# Generated by pormake.
# Topology wns, (7)-cn, num edge types: 1
# Building blocks:
#     Node 0, Type 0, BuildingBlock: HICVOG_clean_sbu_0, # of connection points: 7
#     Node 1, Type 0, BuildingBlock: HICVOG_clean_sbu_0, # of connection points: 7
#     Node 2, Type 0, BuildingBlock: HICVOG_clean_sbu_0, # of connection points: 7
#     Node 3, Type 0, BuildingBlock: HICVOG_clean_sbu_0, # of connection points: 7
#     Node 4, Type 0, BuildingBlock: HICVOG_clean_sbu_0, # of connection points: 7
#     Node 5, Type 0, BuildingBlock: HICVOG_clean_sbu_0, # of connection points: 7
#     Node 6, Type 0, BuildingBlock: HICVOG_clean_sbu_0, # of connection points: 7
#     Node 7, Type 0, BuildingBlock: HICVOG_clean_sbu_0, # of connection points: 7
#     Node 8, Type 0, BuildingBlock: HICVOG_clean_sbu_0, # of connection points: 7
#     Node 9, Type 0, BuildingBlock: HICVOG_clean_sbu_0, # of connection points: 7
#     Node 10, Type 0, BuildingBlock: HICVOG_clean_sbu_0, # of connection points: 7
#     Node 11, Type 0, BuildingBlock: HICVOG_clean_sbu_0, # of connection points: 7
#     Edge 12, Type (0, 0), BuildingBlock: TEMPAE_clean_linker_10, # of connection points: 2
#     Edge 13, Type (0, 0), BuildingBlock: TEMPAE_clean_linker_10, # of connection points: 2
#     Edge 14, Type (0, 0), BuildingBlock: TEMPAE_clean_linker_10, # of connection points: 2
#     Edge 15, Type (0, 0), BuildingBlock: TEMPAE_clean_linker_10, # of connection points: 2
#     Edge 16, Type (0, 0), BuildingBlock: TEMPAE_clean_linker_10, # of connection points: 2
#     Edge 17, Type (0, 0), BuildingBlock: TEMPAE_clean_linker_10, # of connection points: 2
#     Edge 18, Type (0, 0), BuildingBlock: TEMPAE_clean_linker_10, # of connection points: 2
#     Edge 19, Type (0, 0), BuildingBlock: TEMPAE_clean_linker_10, # of connection points: 2
#     Edge 20, Type (0, 0), BuildingBlock: TEMPAE_clean_linker_10, # of connection points: 2
#     Edge 21, Type (0, 0), BuildingBlock: TEMPAE_clean_linker_10, # of connection points: 2
#     Edge 22, Type (0, 0), BuildingBlock: TEMPAE_clean_linker_10, # of connection points: 2
#     Edge 23, Type (0, 0), BuildingBlock: TEMPAE_clean_linker_10, # of connection points: 2
#     Edge 24, Type (0, 0), BuildingBlock: TEMPAE_clean_linker_10, # of connection points: 2
#     Edge 25, Type (0, 0), BuildingBlock: TEMPAE_clean_linker_10, # of connection points: 2
#     Edge 26, Type (0, 0), BuildingBlock: TEMPAE_clean_linker_10, # of connection points: 2
#     Edge 27, Type (0, 0), BuildingBlock: TEMPAE_clean_linker_10, # of connection points: 2
#     Edge 28, Type (0, 0), BuildingBlock: TEMPAE_clean_linker_10, # of connection points: 2
#     Edge 29, Type (0, 0), BuildingBlock: TEMPAE_clean_linker_10, # of connection points: 2
#     Edge 30, Type (0, 0), BuildingBlock: TEMPAE_clean_linker_10, # of connection points: 2
#     Edge 31, Type (0, 0), BuildingBlock: TEMPAE_clean_linker_10, # of connection points: 2
#     Edge 32, Type (0, 0), BuildingBlock: TEMPAE_clean_linker_10, # of connection points: 2
#     Edge 33, Type (0, 0), BuildingBlock: TEMPAE_clean_linker_10, # of connection points: 2
#     Edge 34, Type (0, 0), BuildingBlock: TEMPAE_clean_linker_10, # of connection points: 2
#     Edge 35, Type (0, 0), BuildingBlock: TEMPAE_clean_linker_10, # of connection points: 2
#     Edge 36, Type (0, 0), BuildingBlock: TEMPAE_clean_linker_10, # of connection points: 2
#     Edge 37, Type (0, 0), BuildingBlock: TEMPAE_clean_linker_10, # of connection points: 2
#     Edge 38, Type (0, 0), BuildingBlock: TEMPAE_clean_linker_10, # of connection points: 2
#     Edge 39, Type (0, 0), BuildingBlock: TEMPAE_clean_linker_10, # of connection points: 2
#     Edge 40, Type (0, 0), BuildingBlock: TEMPAE_clean_linker_10, # of connection points: 2
#     Edge 41, Type (0, 0), BuildingBlock: TEMPAE_clean_linker_10, # of connection points: 2
#     Edge 42, Type (0, 0), BuildingBlock: TEMPAE_clean_linker_10, # of connection points: 2
#     Edge 43, Type (0, 0), BuildingBlock: TEMPAE_clean_linker_10, # of connection points: 2
#     Edge 44, Type (0, 0), BuildingBlock: TEMPAE_clean_linker_10, # of connection points: 2
#     Edge 45, Type (0, 0), BuildingBlock: TEMPAE_clean_linker_10, # of connection points: 2
#     Edge 46, Type (0, 0), BuildingBlock: TEMPAE_clean_linker_10, # of connection points: 2
#     Edge 47, Type (0, 0), BuildingBlock: TEMPAE_clean_linker_10, # of connection points: 2
#     Edge 48, Type (0, 0), BuildingBlock: TEMPAE_clean_linker_10, # of connection points: 2
#     Edge 49, Type (0, 0), BuildingBlock: TEMPAE_clean_linker_10, # of connection points: 2
#     Edge 50, Type (0, 0), BuildingBlock: TEMPAE_clean_linker_10, # of connection points: 2
#     Edge 51, Type (0, 0), BuildingBlock: TEMPAE_clean_linker_10, # of connection points: 2
#     Edge 52, Type (0, 0), BuildingBlock: TEMPAE_clean_linker_10, # of connection points: 2
#     Edge 53, Type (0, 0), BuildingBlock: TEMPAE_clean_linker_10, # of connection points: 2
# Relax obj value: 0.155
# Max RMSD: 0.215
# Mean RMSD: 0.215
data_MOF--net-wns--node1-HICVOG_clean_sbu_0--edge1-TEMPAE_clean_linker_10
_symmetry_space_group_name_H-M    P1
_symmetry_Int_Tables_number       1
_symmetry_cell_setting            triclinic
loop_
_symmetry_equiv_pos_as_xyz
'x, y, z'
_cell_length_a     42.855438
_cell_length_b     42.865461
_cell_length_c     35.5019
_cell_angle_alpha  90.000988
_cell_angle_beta   90.012137
_cell_angle_gamma 120.00039
loop_
_atom_site_label
_atom_site_type_symbol
_atom_site_fract_x
_atom_site_fract_y
_atom_site_fract_z
_atom_type_partial_charge
Zn0 Zn 0.43282 0.28275 0.16018 0.0
C1 C 0.34471 0.24815 0.09401 0.0
N2 N 0.33645 0.2661 0.11945 0.0
C3 C 0.36271 0.27602 0.14501 0.0
N4 N 0.38642 0.26529 0.13553 0.0
N5 N 0.37473 0.24708 0.1035 0.0
C6 C 0.41177 0.22024 0.0069 0.0
O7 O 0.44327 0.23819 0.02357 0.0
O8 O 0.42489 0.27657 0.21673 0.0
Zn9 Zn 0.38609 0.21133 0.08402 0.0
N10 N 0.46435 0.33344 0.14655 0.0
C11 C 0.46986 0.3864 0.1183 0.0
C12 C 0.44904 0.35033 0.12828 0.0
C13 C 0.50062 0.35094 0.15308 0.0
N14 N 0.50571 0.40397 0.12539 0.0
C15 C 0.52202 0.38728 0.14204 0.0
O16 O 0.43415 0.21691 0.10047 0.0
C17 C 0.4594 0.23365 0.12427 0.0
O18 O 0.45957 0.25694 0.14653 0.0
H19 H 0.421 0.33588 0.12081 0.0
H20 H 0.51257 0.33677 0.16656 0.0
C21 C 0.33736 0.13466 0.08229 0.0
C22 C 0.31171 0.10092 0.09736 0.0
C23 C 0.31136 0.13045 0.15399 0.0
C24 C 0.33696 0.16351 0.139 0.0
N25 N 0.34952 0.16498 0.10355 0.0
N26 N 0.29945 0.10012 0.13297 0.0
H27 H 0.34749 0.13729 0.05393 0.0
C28 C 0.4117 0.24446 0.22885 0.0
O29 O 0.40378 0.21855 0.20438 0.0
O30 O 0.38336 0.20767 0.02685 0.0
H31 H 0.34679 0.18786 0.15546 0.0
H32 H 0.45775 0.40018 0.10433 0.0
H33 H 0.30109 0.12885 0.18218 0.0
Zn34 Zn 0.73482 0.15302 0.16025 0.0
C35 C 0.7693 0.09899 0.09481 0.0
N36 N 0.75103 0.07289 0.12027 0.0
C37 C 0.74106 0.08942 0.14552 0.0
N38 N 0.75209 0.12387 0.13586 0.0
N39 N 0.77051 0.1302 0.10402 0.0
C40 C 0.79709 0.19303 0.00698 0.0
O41 O 0.77839 0.20591 0.02329 0.0
O42 O 0.74117 0.15154 0.21682 0.0
Zn43 Zn 0.80638 0.17723 0.08436 0.0
N44 N 0.68415 0.13395 0.14659 0.0
C45 C 0.63133 0.0869 0.11769 0.0
C46 C 0.66738 0.10207 0.12775 0.0
C47 C 0.66659 0.15258 0.15355 0.0
N48 N 0.61369 0.10503 0.1252 0.0
C49 C 0.6303 0.13778 0.14239 0.0
O50 O 0.80082 0.21983 0.10031 0.0
C51 C 0.78405 0.22844 0.12395 0.0
O52 O 0.76072 0.20543 0.14625 0.0
H53 H 0.68192 0.08867 0.11986 0.0
H54 H 0.6807 0.17851 0.16743 0.0
C55 C 0.88302 0.20505 0.08283 0.0
C56 C 0.91676 0.21326 0.09804 0.0
C57 C 0.8872 0.18391 0.15486 0.0
C58 C 0.85414 0.17633 0.13973 0.0
N59 N 0.85268 0.18709 0.10412 0.0
N60 N 0.91754 0.20212 0.13381 0.0
H61 H 0.8804 0.2123 0.05436 0.0
C62 C 0.77328 0.17085 0.22885 0.0
O63 O 0.79904 0.18909 0.20432 0.0
O64 O 0.81023 0.17792 0.02725 0.0
H65 H 0.82978 0.16198 0.15621 0.0
H66 H 0.61763 0.06124 0.10328 0.0
H67 H 0.88879 0.17549 0.18317 0.0
Zn68 Zn 0.8645 0.58417 0.16029 0.0
C69 C 0.91849 0.6729 0.09526 0.0
N70 N 0.9446 0.68069 0.12072 0.0
C71 C 0.92807 0.65412 0.1459 0.0
N72 N 0.89361 0.63071 0.13619 0.0
N73 N 0.88728 0.64287 0.10439 0.0
C74 C 0.8245 0.60643 0.00742 0.0
O75 O 0.81159 0.5749 0.02385 0.0
O76 O 0.86613 0.59172 0.21688 0.0
Zn77 Zn 0.84024 0.63167 0.08471 0.0
N78 N 0.88362 0.55275 0.14621 0.0
C79 C 0.93055 0.54715 0.11677 0.0
C80 C 0.91537 0.56795 0.12712 0.0
C81 C 0.86511 0.51656 0.15314 0.0
N82 N 0.91254 0.51138 0.12425 0.0
C83 C 0.8799 0.49516 0.14168 0.0
O84 O 0.7976 0.58351 0.10067 0.0
C85 C 0.78897 0.55806 0.12421 0.0
O86 O 0.812 0.55765 0.14644 0.0
H87 H 0.92866 0.5959 0.11928 0.0
H88 H 0.83926 0.50466 0.16721 0.0
C89 C 0.81228 0.68034 0.08311 0.0
C90 C 0.80405 0.70587 0.09825 0.0
C91 C 0.83365 0.70597 0.155 0.0
C92 C 0.84124 0.68048 0.13995 0.0
N93 N 0.83037 0.66812 0.1044 0.0
N94 N 0.81531 0.71795 0.13395 0.0
H95 H 0.80494 0.67037 0.05467 0.0
C96 C 0.84706 0.60474 0.22902 0.0
O97 O 0.82903 0.61263 0.20457 0.0
O98 O 0.83959 0.63474 0.02759 0.0
H99 H 0.85569 0.67058 0.15644 0.0
H100 H 0.95611 0.55918 0.10217 0.0
H101 H 0.84216 0.7161 0.18327 0.0
Zn102 Zn 0.28667 0.42828 0.34672 0.0
C103 C 0.25396 0.34204 0.41584 0.0
N104 N 0.27193 0.33332 0.39093 0.0
C105 C 0.28162 0.35889 0.36463 0.0
N106 N 0.27088 0.38283 0.37328 0.0
N107 N 0.25269 0.37173 0.4054 0.0
C108 C 0.22651 0.40764 0.50214 0.0
O109 O 0.24639 0.43923 0.48622 0.0
O110 O 0.2739 0.41747 0.29149 0.0
Zn111 Zn 0.21711 0.38354 0.42458 0.0
N112 N 0.33849 0.46053 0.35504 0.0
C113 C 0.39427 0.46726 0.37634 0.0
C114 C 0.35747 0.44591 0.37 0.0
C115 C 0.35474 0.4968 0.3488 0.0
N116 N 0.41053 0.50308 0.36955 0.0
C117 C 0.39184 0.51882 0.35653 0.0
O118 O 0.22388 0.43233 0.40965 0.0
C119 C 0.24072 0.45732 0.38566 0.0
O120 O 0.26279 0.45628 0.36252 0.0
H121 H 0.34413 0.4181 0.378 0.0
H122 H 0.33896 0.5083 0.33832 0.0
C123 C 0.14046 0.33488 0.42545 0.0
C124 C 0.10666 0.31031 0.40966 0.0
C125 C 0.13606 0.31316 0.35186 0.0
C126 C 0.1692 0.33786 0.36752 0.0
N127 N 0.17076 0.34819 0.40395 0.0
N128 N 0.10575 0.3001 0.37314 0.0
H129 H 0.14308 0.34333 0.4545 0.0
C130 C 0.29446 0.42346 0.26331 0.0
O131 O 0.32934 0.43806 0.26864 0.0
O132 O 0.21254 0.37959 0.48155 0.0
H133 H 0.19351 0.34884 0.35079 0.0
H134 H 0.40964 0.45563 0.38759 0.0
H135 H 0.13438 0.30459 0.32291 0.0
Zn136 Zn 0.58913 0.86055 0.34672 0.0
C137 C 0.6775 0.91329 0.41265 0.0
N138 N 0.6856 0.93977 0.38761 0.0
C139 C 0.65924 0.92371 0.36212 0.0
N140 N 0.63557 0.88918 0.37131 0.0
N141 N 0.64742 0.8823 0.40303 0.0
C142 C 0.61053 0.8193 0.49972 0.0
O143 O 0.57895 0.8069 0.48351 0.0
O144 O 0.59703 0.86178 0.29019 0.0
Zn145 Zn 0.63556 0.8349 0.42229 0.0
N146 N 0.55791 0.88012 0.36004 0.0
C147 C 0.55241 0.92766 0.38807 0.0
C148 C 0.57321 0.91233 0.37827 0.0
C149 C 0.52166 0.86137 0.35347 0.0
N150 N 0.51657 0.90939 0.38095 0.0
C151 C 0.50026 0.87633 0.3644 0.0
O152 O 0.58706 0.79267 0.40621 0.0
C153 C 0.56169 0.78472 0.38271 0.0
O154 O 0.56189 0.80821 0.36076 0.0
H155 H 0.6012 0.92582 0.38593 0.0
H156 H 0.5097 0.83519 0.3401 0.0
C157 C 0.68403 0.80664 0.42382 0.0
C158 C 0.70933 0.79813 0.40856 0.0
C159 C 0.70883 0.82703 0.35152 0.0
C160 C 0.68358 0.83492 0.3667 0.0
N161 N 0.67163 0.82453 0.40244 0.0
N162 N 0.72099 0.8089 0.37265 0.0
H163 H 0.6744 0.79969 0.45239 0.0
C164 C 0.60865 0.84149 0.2781 0.0
O165 O 0.61506 0.82237 0.30255 0.0
O166 O 0.63873 0.83401 0.47938 0.0
H167 H 0.67355 0.84922 0.35015 0.0
H168 H 0.56452 0.95356 0.40199 0.0
H169 H 0.71863 0.83516 0.32309 0.0
Zn170 Zn 0.15805 0.73112 0.34685 0.0
C171 C 0.10413 0.76538 0.41288 0.0
N172 N 0.07774 0.74683 0.38779 0.0
C173 C 0.09409 0.7369 0.36227 0.0
N174 N 0.12872 0.74814 0.3715 0.0
N175 N 0.13533 0.76675 0.40327 0.0
C176 C 0.19744 0.7929 0.50019 0.0
O177 O 0.20921 0.77313 0.48409 0.0
O178 O 0.15685 0.73791 0.29035 0.0
Zn179 Zn 0.18246 0.80268 0.4227 0.0
N180 N 0.13921 0.68036 0.35992 0.0
C181 C 0.0917 0.62659 0.38683 0.0
C182 C 0.10659 0.66273 0.37727 0.0
C183 C 0.15874 0.66355 0.35398 0.0
N184 N 0.11074 0.60972 0.38032 0.0
C185 C 0.14417 0.62717 0.36464 0.0
O186 O 0.225 0.79693 0.40707 0.0
C187 C 0.2335 0.78007 0.38344 0.0
O188 O 0.21043 0.75686 0.36109 0.0
H189 H 0.09242 0.67665 0.38442 0.0
H190 H 0.18519 0.67831 0.34128 0.0
C191 C 0.21049 0.87931 0.4239 0.0
C192 C 0.21893 0.91305 0.40854 0.0
C193 C 0.18972 0.88343 0.35168 0.0
C194 C 0.18194 0.85036 0.36695 0.0
N195 N 0.19251 0.84894 0.40266 0.0
N196 N 0.20796 0.9138 0.37268 0.0
H197 H 0.2176 0.87674 0.45245 0.0
C198 C 0.177 0.76985 0.27826 0.0
O199 O 0.19603 0.79543 0.3027 0.0
O200 O 0.18326 0.80687 0.47975 0.0
H201 H 0.16761 0.82598 0.3505 0.0
H202 H 0.06549 0.61224 0.40007 0.0
H203 H 0.18145 0.88499 0.32329 0.0
Zn204 Zn 0.6362 0.80232 0.92251 0.0
C205 C 0.65863 0.73671 0.86163 0.0
N206 N 0.68504 0.74662 0.88701 0.0
C207 C 0.67729 0.76512 0.91226 0.0
N208 N 0.64744 0.76651 0.90283 0.0
N209 N 0.63532 0.74797 0.87105 0.0
C210 C 0.60925 0.76886 0.77797 0.0
O211 O 0.61686 0.79473 0.80239 0.0
O212 O 0.63921 0.80605 0.97964 0.0
Zn213 Zn 0.58883 0.73067 0.84671 0.0
N214 N 0.67264 0.84866 0.90286 0.0
C215 C 0.71046 0.88329 0.85227 0.0
C216 C 0.68499 0.85019 0.86731 0.0
C217 C 0.68483 0.87896 0.92417 0.0
N218 N 0.72241 0.9136 0.87334 0.0
C219 C 0.71033 0.91274 0.90904 0.0
O220 O 0.56233 0.75665 0.86056 0.0
C221 C 0.56269 0.78003 0.88282 0.0
O222 O 0.58808 0.7968 0.90646 0.0
H223 H 0.6751 0.82586 0.85079 0.0
H224 H 0.67485 0.8763 0.9526 0.0
C225 C 0.52089 0.66276 0.85394 0.0
C226 C 0.49931 0.62649 0.86509 0.0
C227 C 0.55126 0.62705 0.88898 0.0
C228 C 0.57226 0.66308 0.87893 0.0
N229 N 0.55715 0.68007 0.86048 0.0
N230 N 0.51542 0.60965 0.88186 0.0
H231 H 0.50908 0.67703 0.84038 0.0
C232 C 0.61089 0.79318 0.99976 0.0
O233 O 0.57933 0.77487 0.98327 0.0
O234 O 0.59653 0.73681 0.79014 0.0
H235 H 0.60027 0.67744 0.88651 0.0
H236 H 0.72059 0.88494 0.824 0.0
H237 H 0.56321 0.61319 0.90308 0.0
Zn238 Zn 0.21526 0.83611 0.92257 0.0
C239 C 0.28075 0.92378 0.86122 0.0
N240 N 0.27079 0.94041 0.88636 0.0
C241 C 0.25238 0.91436 0.91182 0.0
N242 N 0.25105 0.88307 0.90271 0.0
N243 N 0.26956 0.88931 0.87094 0.0
C244 C 0.24906 0.84292 0.7782 0.0
O245 O 0.22309 0.82514 0.80266 0.0
O246 O 0.21175 0.83553 0.97972 0.0
Zn247 Zn 0.28703 0.86018 0.84695 0.0
N248 N 0.16886 0.82626 0.90307 0.0
C249 C 0.13416 0.82955 0.85259 0.0
C250 C 0.16728 0.83713 0.86755 0.0
C251 C 0.13858 0.80816 0.92442 0.0
N252 N 0.10388 0.81121 0.87369 0.0
C253 C 0.10478 0.79994 0.90936 0.0
O254 O 0.26095 0.80772 0.86079 0.0
C255 C 0.23744 0.78474 0.88298 0.0
O256 O 0.22064 0.79344 0.90649 0.0
H257 H 0.19159 0.85156 0.851 0.0
H258 H 0.14129 0.80081 0.95282 0.0
C259 C 0.35529 0.8608 0.85412 0.0
C260 C 0.39148 0.87559 0.86564 0.0
C261 C 0.39 0.92608 0.89082 0.0
C262 C 0.35404 0.91092 0.88039 0.0
N263 N 0.33755 0.87925 0.86115 0.0
N264 N 0.40782 0.90815 0.88324 0.0
H265 H 0.34139 0.83503 0.83992 0.0
C266 C 0.22461 0.82003 0.99978 0.0
O267 O 0.24277 0.80666 0.98322 0.0
O268 O 0.28119 0.86177 0.79034 0.0
H269 H 0.33934 0.92417 0.88828 0.0
H270 H 0.13248 0.83807 0.82434 0.0
H271 H 0.40348 0.95158 0.90554 0.0
Zn272 Zn 0.18225 0.38168 0.92274 0.0
C273 C 0.09364 0.35903 0.86297 0.0
N274 N 0.07739 0.33247 0.88822 0.0
C275 C 0.10376 0.34029 0.91335 0.0
N276 N 0.13486 0.37035 0.90398 0.0
N277 N 0.12817 0.3825 0.87237 0.0
C278 C 0.17575 0.4091 0.77973 0.0
O279 O 0.19444 0.40229 0.80437 0.0
O280 O 0.18456 0.37792 0.97957 0.0
Zn281 Zn 0.15703 0.42905 0.84805 0.0
N282 N 0.19244 0.34586 0.90189 0.0
C283 C 0.18961 0.30864 0.85085 0.0
C284 C 0.18164 0.33375 0.86626 0.0
C285 C 0.21071 0.33369 0.92293 0.0
N286 N 0.20815 0.29671 0.87168 0.0
C287 C 0.21927 0.30852 0.90748 0.0
O288 O 0.20946 0.45619 0.86212 0.0
C289 C 0.23267 0.45594 0.88417 0.0
O290 O 0.22441 0.43027 0.90732 0.0
H291 H 0.16694 0.34351 0.85001 0.0
H292 H 0.21789 0.34339 0.95146 0.0
C293 C 0.15609 0.49648 0.8546 0.0
C294 C 0.14108 0.51784 0.86549 0.0
C295 C 0.08998 0.46576 0.88959 0.0
C296 C 0.10536 0.445 0.87982 0.0
N297 N 0.13747 0.46027 0.86141 0.0
N298 N 0.10811 0.50155 0.88224 0.0
H299 H 0.18219 0.50842 0.84107 0.0
C300 C 0.19726 0.40574 1.00043 0.0
O301 O 0.20502 0.43676 0.98526 0.0
O302 O 0.15582 0.42124 0.79158 0.0
H303 H 0.09195 0.41704 0.8876 0.0
H304 H 0.18119 0.29872 0.8225 0.0
H305 H 0.06414 0.45367 0.90366 0.0
Zn306 Zn 0.73585 0.58426 0.66028 0.0
C307 C 0.7703 0.67262 0.59463 0.0
N308 N 0.7519 0.68047 0.6199 0.0
C309 C 0.742 0.65412 0.64533 0.0
N310 N 0.75314 0.63071 0.6359 0.0
N311 N 0.77162 0.64273 0.60407 0.0
C312 C 0.79762 0.60659 0.50711 0.0
O313 O 0.77807 0.57507 0.52328 0.0
O314 O 0.74232 0.59206 0.71683 0.0
Zn315 Zn 0.80746 0.63145 0.58454 0.0
N316 N 0.68514 0.55269 0.6468 0.0
C317 C 0.63201 0.54688 0.61862 0.0
C318 C 0.66811 0.56783 0.62851 0.0
C319 C 0.6678 0.51644 0.65334 0.0
N320 N 0.6146 0.51105 0.62573 0.0
C321 C 0.63147 0.4949 0.64234 0.0
O322 O 0.80169 0.58315 0.60025 0.0
C323 C 0.78482 0.55775 0.62384 0.0
O324 O 0.76157 0.55755 0.64618 0.0
H325 H 0.68247 0.59583 0.6209 0.0
H326 H 0.68211 0.5046 0.66676 0.0
C327 C 0.88412 0.68006 0.58324 0.0
C328 C 0.91788 0.7054 0.59856 0.0
C329 C 0.88832 0.70503 0.65543 0.0
C330 C 0.85523 0.67972 0.6402 0.0
N331 N 0.85377 0.66768 0.6045 0.0
N332 N 0.91867 0.71716 0.6344 0.0
H333 H 0.88151 0.67034 0.5547 0.0
C334 C 0.7743 0.60419 0.72897 0.0
O335 O 0.8 0.61112 0.70456 0.0
O336 O 0.81149 0.63478 0.52749 0.0
H337 H 0.83086 0.66969 0.65667 0.0
H338 H 0.61812 0.55887 0.60465 0.0
H339 H 0.88991 0.7149 0.68381 0.0
Zn340 Zn 0.43375 0.15287 0.65986 0.0
C341 C 0.3453 0.09947 0.59407 0.0
N342 N 0.33736 0.07309 0.6192 0.0
C343 C 0.36372 0.08934 0.64466 0.0
N344 N 0.38726 0.12389 0.63536 0.0
N345 N 0.37528 0.13057 0.60361 0.0
C346 C 0.41072 0.19244 0.50663 0.0
O347 O 0.44231 0.20365 0.52238 0.0
O348 O 0.4259 0.15192 0.71639 0.0
Zn349 Zn 0.3867 0.17781 0.58437 0.0
N350 N 0.46512 0.13335 0.64679 0.0
C351 C 0.4706 0.08559 0.61933 0.0
C352 C 0.44981 0.10098 0.6289 0.0
C353 C 0.50141 0.15219 0.65324 0.0
N354 N 0.50646 0.10394 0.62634 0.0
C355 C 0.52279 0.13714 0.64255 0.0
O356 O 0.43536 0.22003 0.59965 0.0
C357 C 0.46084 0.22834 0.62309 0.0
O358 O 0.46084 0.2052 0.64544 0.0
H359 H 0.4218 0.08737 0.62134 0.0
H360 H 0.51339 0.17848 0.66636 0.0
C361 C 0.33871 0.20659 0.58426 0.0
C362 C 0.31388 0.21543 0.60015 0.0
C363 C 0.31457 0.18598 0.6567 0.0
C364 C 0.33938 0.1778 0.64091 0.0
N365 N 0.35102 0.18831 0.6051 0.0
N366 N 0.30253 0.20453 0.63611 0.0
H367 H 0.34811 0.21363 0.55562 0.0
C368 C 0.41461 0.17248 0.72847 0.0
O369 O 0.40849 0.19182 0.70402 0.0
O370 O 0.38276 0.17869 0.52736 0.0
H371 H 0.34935 0.16321 0.65704 0.0
H372 H 0.45847 0.05956 0.60567 0.0
H373 H 0.30503 0.17776 0.68519 0.0
Zn374 Zn 0.84076 0.21046 0.58424 0.0
C375 C 0.92865 0.27577 0.64557 0.0
N376 N 0.94524 0.26592 0.62024 0.0
C377 C 0.91911 0.24756 0.59482 0.0
N378 N 0.88783 0.24618 0.6041 0.0
N379 N 0.89415 0.26462 0.63594 0.0
C380 C 0.84657 0.24373 0.72878 0.0
O381 O 0.82812 0.21797 0.70431 0.0
O382 O 0.8402 0.20669 0.52712 0.0
Zn383 Zn 0.86501 0.28207 0.66009 0.0
N384 N 0.83058 0.16403 0.60397 0.0
C385 C 0.83325 0.12939 0.65485 0.0
C386 C 0.84108 0.1625 0.63968 0.0
C387 C 0.8126 0.13371 0.58264 0.0
N388 N 0.81503 0.09907 0.63377 0.0
C389 C 0.80412 0.09992 0.59791 0.0
O390 O 0.81263 0.25632 0.64588 0.0
C391 C 0.78959 0.23302 0.62356 0.0
O392 O 0.79816 0.21615 0.60001 0.0
H393 H 0.8554 0.18683 0.65621 0.0
H394 H 0.80553 0.13638 0.5541 0.0
C395 C 0.86553 0.3503 0.6531 0.0
C396 C 0.88042 0.3866 0.64197 0.0
C397 C 0.93151 0.38561 0.61783 0.0
C398 C 0.91627 0.34955 0.62786 0.0
N399 N 0.88423 0.33275 0.64641 0.0
N400 N 0.91332 0.40323 0.62508 0.0
H401 H 0.83949 0.33618 0.66675 0.0
C402 C 0.8256 0.22036 0.50686 0.0
O403 O 0.81335 0.23962 0.52319 0.0
O404 O 0.86624 0.27575 0.71668 0.0
H405 H 0.92974 0.33503 0.62018 0.0
H406 H 0.84147 0.12774 0.68325 0.0
H407 H 0.95729 0.39932 0.60365 0.0
C408 C 0.22701 0.94593 0.9468 0.0
C409 C 0.24162 0.92314 0.94784 0.0
C410 C 0.23193 0.96911 0.9769 0.0
C411 C 0.25174 0.96919 0.00885 0.0
C412 C 0.26187 0.94247 0.0122 0.0
C413 C 0.25703 0.91991 0.98132 0.0
C414 C 0.22021 0.99675 0.97211 0.0
C415 C 0.28174 0.94053 0.04636 0.0
C416 C 0.3163 0.06325 0.04512 0.0
C417 C 0.29732 0.0665 0.0757 0.0
C418 C 0.30204 0.0314 0.02392 0.0
C419 C 0.26823 1.00149 0.03386 0.0
C420 C 0.24968 1.0038 0.06569 0.0
C421 C 0.26429 0.03628 0.08605 0.0
C422 C 0.32293 0.03011 0.99022 0.0
C423 C 0.21397 0.97233 0.07769 0.0
H424 H 0.21528 0.94854 0.92074 0.0
H425 H 0.26908 0.90289 0.98195 0.0
H426 H 0.20854 1.00018 0.99858 0.0
H427 H 0.24405 0.02317 0.96502 0.0
H428 H 0.20005 0.98928 0.94918 0.0
H429 H 0.27884 0.91339 0.04931 0.0
H430 H 0.31083 0.96052 0.04341 0.0
H431 H 0.27188 0.94696 0.07248 0.0
H432 H 0.34247 0.08545 0.03752 0.0
H433 H 0.24939 0.03811 0.10979 0.0
H434 H 0.30676 0.02528 0.96421 0.0
H435 H 0.32832 1.00747 0.9932 0.0
H436 H 0.34906 0.05545 0.98658 0.0
H437 H 0.19277 0.96876 0.05737 0.0
H438 H 0.20585 0.97635 0.10619 0.0
H439 H 0.21511 0.94703 0.07767 0.0
C440 C 0.98145 0.23049 0.08708 0.0
C441 C 0.95121 0.23312 0.07638 0.0
C442 C 0.014 0.24828 0.06683 0.0
C443 C 0.01637 0.26889 0.03475 0.0
C444 C 0.98639 0.27252 0.02437 0.0
C445 C 0.95447 0.25502 0.04547 0.0
C446 C 0.04551 0.24427 0.07925 0.0
C447 C 0.98771 0.29436 0.99035 0.0
C448 C 0.09833 0.33947 0.98278 0.0
C449 C 0.09539 0.32083 0.94938 0.0
C450 C 0.07542 0.32173 0.01343 0.0
C451 C 0.04888 0.28481 0.01004 0.0
C452 C 0.04942 0.26508 0.97831 0.0
C453 C 0.07282 0.28339 0.94838 0.0
C454 C 0.07674 0.34357 0.04731 0.0
C455 C 0.022 0.22566 0.9735 0.0
H456 H 0.97961 0.214 0.11105 0.0
H457 H 0.93223 0.25882 0.03754 0.0
H458 H 0.04947 0.22684 0.05901 0.0
H459 H 0.07068 0.27082 0.07949 0.0
H460 H 0.04129 0.23204 0.10772 0.0
H461 H 0.96229 0.29493 0.98634 0.0
H462 H 1.01021 0.32248 0.99321 0.0
H463 H 0.99279 0.2829 0.96458 0.0
H464 H 0.1153 0.36853 0.98339 0.0
H465 H 0.07046 0.26905 0.9224 0.0
H466 H 0.07046 0.32748 0.07355 0.0
H467 H 0.05632 0.35208 0.044 0.0
H468 H 0.10363 0.36817 0.05027 0.0
H469 H 0.01831 0.21067 1.0001 0.0
H470 H 0.02988 0.213 0.95092 0.0
H471 H 0.9956 0.22288 0.96587 0.0
C472 C 0.78676 0.75325 0.08699 0.0
C473 C 0.78405 0.72029 0.07656 0.0
C474 C 0.76892 0.76789 0.0666 0.0
C475 C 0.74821 0.74943 0.03464 0.0
C476 C 0.74441 0.71568 0.02462 0.0
C477 C 0.76195 0.70139 0.04587 0.0
C478 C 0.77305 0.80352 0.07869 0.0
C479 C 0.72239 0.69488 0.99079 0.0
C480 C 0.67791 0.7605 0.98177 0.0
C481 C 0.69668 0.77597 0.94837 0.0
C482 C 0.69557 0.75572 0.01276 0.0
C483 C 0.73246 0.76595 0.00959 0.0
C484 C 0.7523 0.78585 0.97774 0.0
C485 C 0.73411 0.79072 0.94754 0.0
C486 C 0.67364 0.73577 0.04682 0.0
C487 C 0.79171 0.79769 0.97317 0.0
H488 H 0.80338 0.76809 0.11083 0.0
H489 H 0.75805 0.67527 0.03819 0.0
H490 H 0.79091 0.82483 0.0586 0.0
H491 H 0.74662 0.80241 0.07839 0.0
H492 H 0.78491 0.81146 0.10733 0.0
H493 H 0.72167 0.6688 0.98709 0.0
H494 H 0.69432 0.68943 0.99366 0.0
H495 H 0.73381 0.71114 0.96486 0.0
H496 H 0.64884 0.74837 0.98224 0.0
H497 H 0.74854 0.8025 0.92154 0.0
H498 H 0.68982 0.74562 0.07301 0.0
H499 H 0.66463 0.7067 0.04384 0.0
H500 H 0.64934 0.73859 0.04963 0.0
H501 H 0.80667 0.80932 0.99972 0.0
H502 H 0.80446 0.81791 0.95032 0.0
H503 H 0.79442 0.77393 0.96608 0.0
C504 C 0.04206 0.26246 0.42036 0.0
C505 C 0.07227 0.29516 0.43148 0.0
C506 C 1.00951 0.24735 0.44068 0.0
C507 C 1.00711 0.26512 0.47317 0.0
C508 C 0.03708 0.29856 0.48396 0.0
C509 C 0.06902 0.31328 0.46287 0.0
C510 C 0.97804 0.21199 0.42788 0.0
C511 C 0.03571 0.31863 0.51837 0.0
C512 C 0.92509 0.25325 0.52543 0.0
C513 C 0.92792 0.23715 0.55859 0.0
C514 C 0.948 0.25865 0.4947 0.0
C515 C 0.97453 0.24824 0.49781 0.0
C516 C 0.97397 0.22769 0.52929 0.0
C517 C 0.95055 0.22234 0.55929 0.0
C518 C 0.94665 0.27945 0.46109 0.0
C519 C 1.00134 0.21559 0.53376 0.0
H520 H 0.04395 0.24824 0.39601 0.0
H521 H 0.09129 0.3392 0.4711 0.0
H522 H 0.97389 0.1904 0.44793 0.0
H523 H 0.9529 0.21344 0.42761 0.0
H524 H 0.98239 0.20422 0.39935 0.0
H525 H 0.06111 0.34459 0.52263 0.0
H526 H 0.01318 0.32423 0.51579 0.0
H527 H 0.03066 0.30179 0.54387 0.0
H528 H 0.90816 0.26539 0.52507 0.0
H529 H 0.95285 0.21007 0.58509 0.0
H530 H 0.95318 0.27006 0.4347 0.0
H531 H 0.96687 0.30839 0.46477 0.0
H532 H 0.91967 0.27695 0.45813 0.0
H533 H 1.00509 0.20462 0.50695 0.0
H534 H 0.99338 0.19477 0.55604 0.0
H535 H 0.02773 0.23909 0.54164 0.0
C536 C 0.76499 0.67281 0.52518 0.0
C537 C 0.78085 0.69178 0.55838 0.0
C538 C 0.7598 0.69026 0.49425 0.0
C539 C 0.7701 0.72718 0.49725 0.0
C540 C 0.79038 0.74721 0.52885 0.0
C541 C 0.7956 0.72921 0.55901 0.0
C542 C 0.73939 0.66811 0.46048 0.0
C543 C 0.80231 0.78664 0.53324 0.0
C544 C 0.75677 0.78088 0.41965 0.0
C545 C 0.72394 0.77835 0.43034 0.0
C546 C 0.77157 0.76321 0.44006 0.0
C547 C 0.7534 0.74282 0.47229 0.0
C548 C 0.7198 0.73923 0.4826 0.0
C549 C 0.70535 0.75662 0.46135 0.0
C550 C 0.80706 0.76714 0.42769 0.0
C551 C 0.69932 0.71756 0.51673 0.0
H552 H 0.75287 0.64374 0.52486 0.0
H553 H 0.80769 0.7438 0.58485 0.0
H554 H 0.71038 0.65921 0.46382 0.0
H555 H 0.74896 0.68407 0.43414 0.0
H556 H 0.74209 0.64373 0.45768 0.0
H557 H 0.82282 0.79953 0.55582 0.0
H558 H 0.81364 0.80142 0.50653 0.0
H559 H 0.77865 0.78943 0.54063 0.0
H560 H 0.77137 0.79723 0.39558 0.0
H561 H 0.67933 0.75288 0.46926 0.0
H562 H 0.80575 0.74063 0.42781 0.0
H563 H 0.82853 0.78484 0.44773 0.0
H564 H 0.81492 0.77904 0.39907 0.0
H565 H 0.69378 0.68946 0.51408 0.0
H566 H 0.6733 0.71694 0.52063 0.0
H567 H 0.71586 0.72921 0.54246 0.0
C568 C 0.26072 0.95074 0.4611 0.0
C569 C 0.23886 0.94752 0.43016 0.0
C570 C 0.27824 0.98265 0.48223 0.0
C571 C 0.27467 0.01265 0.47186 0.0
C572 C 0.25418 0.01036 0.43968 0.0
C573 C 0.23636 0.97782 0.4194 0.0
C574 C 0.3 0.9839 0.51631 0.0
C575 C 0.25028 0.04191 0.42723 0.0
C576 C 0.28864 0.06857 0.55853 0.0
C577 C 0.3261 0.0911 0.55785 0.0
C578 C 0.2705 0.04539 0.52837 0.0
C579 C 0.29043 0.04505 0.49673 0.0
C580 C 0.32739 0.07157 0.49367 0.0
C581 C 0.34497 0.09416 0.52459 0.0
C582 C 0.23104 0.01799 0.53284 0.0
C583 C 0.34943 0.07324 0.45984 0.0
H584 H 0.26445 0.92848 0.46905 0.0
H585 H 0.21993 0.97601 0.39538 0.0
H586 H 0.32813 1.0064 0.51354 0.0
H587 H 0.28847 0.98892 0.54206 0.0
H588 H 0.30056 0.95847 0.52029 0.0
H589 H 0.23846 0.03787 0.39856 0.0
H590 H 0.23249 0.04564 0.44717 0.0
H591 H 0.27679 0.06713 0.42743 0.0
H592 H 0.27411 0.06609 0.58441 0.0
H593 H 0.37406 0.111 0.52424 0.0
H594 H 0.22816 0.99152 0.54025 0.0
H595 H 0.21622 0.01455 0.50615 0.0
H596 H 0.21825 0.02571 0.55543 0.0
H597 H 0.35825 0.05306 0.46313 0.0
H598 H 0.37385 0.10026 0.457 0.0
H599 H 0.33339 0.06687 0.43353 0.0
C600 C 0.70573 0.95029 0.9614 0.0
C601 C 0.72468 0.94714 0.93074 0.0
C602 C 0.71994 0.98212 0.98263 0.0
C603 C 0.75367 0.01211 0.97264 0.0
C604 C 0.7722 0.0099 0.94072 0.0
C605 C 0.75763 0.97743 0.92034 0.0
C606 C 0.69908 0.98331 0.01641 0.0
C607 C 0.80782 0.04145 0.92867 0.0
C608 C 0.76461 0.09352 0.02531 0.0
C609 C 0.7801 0.09033 0.05875 0.0
C610 C 0.75983 0.07102 0.99439 0.0
C611 C 0.77011 0.0444 0.99766 0.0
C612 C 0.79002 0.04456 0.02955 0.0
C613 C 0.79487 0.06767 0.05969 0.0
C614 C 0.73985 0.07288 0.96029 0.0
C615 C 0.80191 0.01704 0.03424 0.0
H616 H 0.67961 0.92803 0.96905 0.0
H617 H 0.77251 0.97567 0.89654 0.0
H618 H 0.71533 0.98818 0.04237 0.0
H619 H 0.69357 1.00587 0.01351 0.0
H620 H 0.67301 0.95791 0.02009 0.0
H621 H 0.81588 0.0375 0.90011 0.0
H622 H 0.8066 0.06671 0.92881 0.0
H623 H 0.82911 0.04504 0.94888 0.0
H624 H 0.75246 0.11045 0.02475 0.0
H625 H 0.80668 0.0651 0.08571 0.0
H626 H 0.71079 0.05278 0.96327 0.0
H627 H 0.74973 0.06655 0.93414 0.0
H628 H 0.7426 0.09996 0.95741 0.0
H629 H 0.77817 0.99057 0.04135 0.0
H630 H 0.82213 0.02459 0.05711 0.0
H631 H 0.81358 0.0137 0.00772 0.0
C632 C 0.04012 0.78263 0.92074 0.0
C633 C 0.07041 0.77993 0.9311 0.0
C634 C 1.00767 0.76476 0.94115 0.0
C635 C 1.00546 0.74401 0.97306 0.0
C636 C 0.03544 0.74024 0.98302 0.0
C637 C 0.06726 0.75782 0.96177 0.0
C638 C 0.97612 0.76886 0.92913 0.0
C639 C 0.03426 0.71819 0.0168 0.0
C640 C 0.94995 0.72976 0.06012 0.0
C641 C 0.92721 0.69235 0.05919 0.0
C642 C 0.97309 0.74799 0.02999 0.0
C643 C 0.97319 0.7282 0.9981 0.0
C644 C 0.94651 0.69133 0.99484 0.0
C645 C 0.92398 0.67364 0.02575 0.0
C646 C 1.00068 0.78737 0.03468 0.0
C647 C 0.94459 0.66946 0.96075 0.0
H648 H 0.04187 0.79926 0.89694 0.0
H649 H 0.08952 0.75395 0.96939 0.0
H650 H 0.95086 0.74238 0.92918 0.0
H651 H 0.9725 0.78648 0.94942 0.0
H652 H 0.98009 0.78096 0.90062 0.0
H653 H 0.05965 0.71749 0.02045 0.0
H654 H 0.02944 0.72958 0.04277 0.0
H655 H 0.01166 0.69013 0.0139 0.0
H656 H 0.95255 0.74415 0.08614 0.0
H657 H 0.90701 0.64458 0.02521 0.0
H658 H 1.00405 0.80239 0.00816 0.0
H659 H 0.02714 0.79004 0.04179 0.0
H660 H 0.99319 0.80008 0.05756 0.0
H661 H 0.95096 0.68567 0.93459 0.0
H662 H 0.91747 0.64517 0.95786 0.0
H663 H 0.96465 0.66044 0.96374 0.0
C664 C 0.28827 0.22277 0.05808 0.0
C665 C 0.32572 0.23764 0.05767 0.0
C666 C 0.27035 0.22785 0.02775 0.0
C667 C 0.29049 0.24812 0.99621 0.0
C668 C 0.32746 0.25854 0.99345 0.0
C669 C 0.34482 0.25348 0.02453 0.0
C670 C 0.23085 0.2158 0.03189 0.0
C671 C 0.34973 0.27896 0.95975 0.0
C672 C 0.23696 0.26137 0.91835 0.0
C673 C 0.23933 0.29411 0.92908 0.0
C674 C 0.25468 0.24665 0.93881 0.0
C675 C 0.27491 0.26479 0.97115 0.0
C676 C 0.27837 0.29832 0.98148 0.0
C677 C 0.261 0.31272 0.96015 0.0
C678 C 0.25088 0.21123 0.92643 0.0
C679 C 0.29978 0.31873 0.01578 0.0
H680 H 0.27357 0.21068 0.08387 0.0
H681 H 0.37391 0.26568 0.02438 0.0
H682 H 0.22793 0.23939 0.03921 0.0
H683 H 0.21623 0.20447 0.0051 0.0
H684 H 0.2179 0.19526 0.05443 0.0
H685 H 0.37421 0.27641 0.95718 0.0
H686 H 0.33389 0.26928 0.93333 0.0
H687 H 0.35846 0.30794 0.96301 0.0
H688 H 0.22067 0.24676 0.89424 0.0
H689 H 0.26467 0.3387 0.96809 0.0
H690 H 0.23288 0.18967 0.94622 0.0
H691 H 0.27738 0.21248 0.92697 0.0
H692 H 0.23936 0.20354 0.89764 0.0
H693 H 0.28795 0.30214 0.04143 0.0
H694 H 0.30032 0.34472 0.01967 0.0
H695 H 0.32792 0.32432 0.01339 0.0
C696 C 0.98262 0.75278 0.5876 0.0
C697 C 0.95233 0.71994 0.57691 0.0
C698 C 0.01514 0.76751 0.56728 0.0
C699 C 0.01741 0.74927 0.53514 0.0
C700 C 0.98741 0.71566 0.52483 0.0
C701 C 0.95553 0.70127 0.54599 0.0
C702 C 0.04668 0.803 0.57967 0.0
C703 C 0.98864 0.69511 0.49079 0.0
C704 C 0.07318 0.7911 0.44838 0.0
C705 C 0.09575 0.77621 0.44908 0.0
C706 C 0.05005 0.78609 0.47855 0.0
C707 C 0.04978 0.7659 0.51023 0.0
C708 C 0.07633 0.75551 0.51331 0.0
C709 C 0.09887 0.76047 0.48236 0.0
C710 C 0.0226 0.7981 0.47407 0.0
C711 C 0.07807 0.73522 0.54718 0.0
H712 H 0.98082 0.76743 0.61159 0.0
H713 H 0.93327 0.67524 0.5381 0.0
H714 H 0.07193 0.80175 0.57945 0.0
H715 H 0.05035 0.82447 0.55969 0.0
H716 H 0.04267 0.8108 0.60832 0.0
H717 H 0.96322 0.66911 0.48686 0.0
H718 H 0.99362 0.7116 0.46501 0.0
H719 H 1.01117 0.68952 0.49357 0.0
H720 H 0.07066 0.80309 0.42248 0.0
H721 H 0.11573 0.74824 0.48273 0.0
H722 H 0.01919 0.80951 0.50074 0.0
H723 H 0.99612 0.77447 0.46671 0.0
H724 H 0.03027 0.81856 0.45143 0.0
H725 H 0.07173 0.74493 0.57346 0.0
H726 H 0.10513 0.73788 0.55001 0.0
H727 H 0.05792 0.70621 0.54395 0.0
C728 C 0.26714 0.23391 0.59055 0.0
C729 C 0.29944 0.23571 0.579 0.0
C730 C 0.25247 0.25201 0.57069 0.0
C731 C 0.27017 0.27202 0.53811 0.0
C732 C 0.30328 0.27492 0.52695 0.0
C733 C 0.31766 0.25718 0.54769 0.0
C734 C 0.21756 0.24886 0.58403 0.0
C735 C 0.32326 0.29616 0.49241 0.0
C736 C 0.22732 0.28589 0.45221 0.0
C737 C 0.24306 0.32343 0.45235 0.0
C738 C 0.23234 0.26782 0.48243 0.0
C739 C 0.25342 0.28793 0.5136 0.0
C740 C 0.2646 0.32508 0.51627 0.0
C741 C 0.25962 0.34258 0.48526 0.0
C742 C 0.21941 0.22813 0.47843 0.0
C743 C 0.28575 0.34731 0.54968 0.0
H744 H 0.25284 0.21781 0.61486 0.0
H745 H 0.34332 0.26042 0.53912 0.0
H746 H 0.21895 0.2754 0.58301 0.0
H747 H 0.19533 0.23037 0.56515 0.0
H748 H 0.21076 0.23816 0.6132 0.0
H749 H 0.3489 0.29616 0.48779 0.0
H750 H 0.30609 0.2846 0.46706 0.0
H751 H 0.32944 0.32447 0.4951 0.0
H752 H 0.21467 0.27114 0.42659 0.0
H753 H 0.27241 0.37172 0.48522 0.0
H754 H 0.20833 0.21379 0.5054 0.0
H755 H 0.24253 0.22457 0.47064 0.0
H756 H 0.19843 0.21538 0.45627 0.0
H757 H 0.27625 0.33162 0.5762 0.0
H758 H 0.28373 0.37207 0.55241 0.0
H759 H 0.31458 0.35557 0.54594 0.0
C760 C 0.7341 0.94386 0.4483 0.0
C761 C 0.69661 0.92152 0.44892 0.0
C762 C 0.75227 0.96713 0.47838 0.0
C763 C 0.73236 0.96776 0.50989 0.0
C764 C 0.69535 0.94141 0.51294 0.0
C765 C 0.67773 0.91872 0.4821 0.0
C766 C 0.7918 0.99433 0.47394 0.0
C767 C 0.67331 0.94006 0.54665 0.0
C768 C 0.78646 0.03507 0.58716 0.0
C769 C 0.78419 0.06546 0.57624 0.0
C770 C 0.76858 1.00251 0.56693 0.0
C771 C 0.74826 1.00027 0.53463 0.0
C772 C 0.74496 0.03038 0.52405 0.0
C773 C 0.76254 0.06232 0.54512 0.0
C774 C 0.77221 0.97085 0.5796 0.0
C775 C 0.72338 0.02918 0.48982 0.0
H776 H 0.74864 0.94614 0.42248 0.0
H777 H 0.64862 0.90202 0.48241 0.0
H778 H 0.79486 0.02083 0.4663 0.0
H779 H 0.80653 0.99782 0.50069 0.0
H780 H 0.80454 0.98637 0.4515 0.0
H781 H 0.64877 0.91312 0.54955 0.0
H782 H 0.68927 0.94645 0.573 0.0
H783 H 0.66467 0.96035 0.54313 0.0
H784 H 0.80274 0.03681 0.6113 0.0
H785 H 0.75899 0.08467 0.53701 0.0
H786 H 0.78986 0.96685 0.55972 0.0
H787 H 0.74559 0.94575 0.5795 0.0
H788 H 0.78403 0.97494 0.60827 0.0
H789 H 0.73491 0.02398 0.4642 0.0
H790 H 0.72303 0.0547 0.48567 0.0
H791 H 0.69518 1.00682 0.49255 0.0
C792 C 0.34921 0.27598 0.21263 0.0
C793 C 0.36338 0.29545 0.1794 0.0
C794 C 0.33937 0.29064 0.24265 0.0
C795 C 0.34501 0.32614 0.23967 0.0
C796 C 0.36158 0.34673 0.20696 0.0
C797 C 0.36933 0.33063 0.17671 0.0
C798 C 0.32041 0.26706 0.27624 0.0
C799 C 0.36951 0.38505 0.20259 0.0
C800 C 0.28231 0.34705 0.29637 0.0
C801 C 0.30095 0.35864 0.33046 0.0
C802 C 0.29683 0.33749 0.26595 0.0
C803 C 0.33119 0.34042 0.26966 0.0
C804 C 0.35106 0.35444 0.30329 0.0
C805 C 0.33504 0.36187 0.33381 0.0
C806 C 0.27462 0.32263 0.23062 0.0
C807 C 0.38885 0.36072 0.30734 0.0
H808 H 0.34325 0.24825 0.21399 0.0
H809 H 0.37863 0.3452 0.15039 0.0
H810 H 0.33545 0.27973 0.30248 0.0
H811 H 0.29321 0.26396 0.27918 0.0
H812 H 0.31747 0.23988 0.27377 0.0
H813 H 0.39437 0.40103 0.18569 0.0
H814 H 0.34707 0.38511 0.1871 0.0
H815 H 0.37286 0.39867 0.2301 0.0
H816 H 0.25539 0.3433 0.29432 0.0
H817 H 0.34885 0.36924 0.3607 0.0
H818 H 0.27193 0.29619 0.22338 0.0
H819 H 0.28831 0.34116 0.20674 0.0
H820 H 0.24726 0.31919 0.23353 0.0
H821 H 0.38833 0.33462 0.30818 0.0
H822 H 0.40223 0.37598 0.33336 0.0
H823 H 0.40535 0.37588 0.28262 0.0
C824 C 0.74053 0.07578 0.21318 0.0
C825 C 0.72128 0.07084 0.17983 0.0
C826 C 0.72548 0.05117 0.24305 0.0
C827 C 0.6899 0.02152 0.23971 0.0
C828 C 0.66944 0.01813 0.20712 0.0
C829 C 0.68585 0.04207 0.177 0.0
C830 C 0.74869 0.05542 0.27686 0.0
C831 C 0.63081 0.98824 0.20325 0.0
C832 C 0.67021 0.93717 0.29407 0.0
C833 C 0.65804 0.94304 0.32841 0.0
C834 C 0.67948 0.96186 0.2643 0.0
C835 C 0.67549 0.99261 0.26884 0.0
C836 C 0.66064 0.99708 0.30259 0.0
C837 C 0.65337 0.97297 0.33247 0.0
C838 C 0.69606 0.95641 0.22917 0.0
C839 C 0.65394 0.02821 0.3078 0.0
H840 H 0.76836 0.0973 0.21473 0.0
H841 H 0.6714 0.03719 0.15065 0.0
H842 H 0.73529 0.05647 0.30312 0.0
H843 H 0.75258 0.03174 0.27898 0.0
H844 H 0.77556 0.08021 0.27526 0.0
H845 H 0.61683 0.99338 0.17977 0.0
H846 H 0.62996 0.96239 0.19766 0.0
H847 H 0.61574 0.98502 0.22974 0.0
H848 H 0.67511 0.91477 0.29153 0.0
H849 H 0.64545 0.97847 0.35953 0.0
H850 H 0.72394 0.9793 0.22577 0.0
H851 H 0.6806 0.95587 0.20392 0.0
H852 H 0.69695 0.93095 0.23001 0.0
H853 H 0.67994 0.05365 0.31096 0.0
H854 H 0.63723 0.0247 0.33309 0.0
H855 H 0.64021 0.03115 0.28267 0.0
C856 C 0.97535 0.64591 0.17706 0.0
C857 C 0.94672 0.65276 0.18009 0.0
C858 C 0.99941 0.65329 0.20705 0.0
C859 C 0.9963 0.67042 0.23974 0.0
C860 C 0.9668 0.67657 0.24328 0.0
C861 C 0.94206 0.66714 0.21353 0.0
C862 C 0.02912 0.64433 0.20293 0.0
C863 C 0.96283 0.69558 0.2772 0.0
C864 C 0.04488 0.68191 0.33239 0.0
C865 C 0.07492 0.71647 0.32843 0.0
C866 C 0.02073 0.66523 0.30248 0.0
C867 C 0.0253 0.68468 0.2688 0.0
C868 C 0.05618 0.71933 0.26433 0.0
C869 C 0.0809 0.73459 0.29413 0.0
C870 C 0.98945 0.62748 0.30762 0.0
C871 C 0.06174 0.74147 0.22928 0.0
H872 H 0.98004 0.63629 0.15064 0.0
H873 H 0.92065 0.6736 0.21525 0.0
H874 H 0.05496 0.6692 0.19689 0.0
H875 H 0.03263 0.63272 0.22946 0.0
H876 H 0.02358 0.62494 0.17962 0.0
H877 H 0.9382 0.69796 0.2757 0.0
H878 H 0.96164 0.68095 0.30338 0.0
H879 H 0.9867 0.72302 0.2794 0.0
H880 H 0.0393 0.66843 0.35941 0.0
H881 H 0.10337 0.76186 0.29168 0.0
H882 H 0.98624 0.61088 0.28234 0.0
H883 H 0.96413 0.62823 0.31108 0.0
H884 H 0.99299 0.61409 0.33273 0.0
H885 H 0.06211 0.72654 0.20396 0.0
H886 H 0.08733 0.76771 0.23013 0.0
H887 H 0.03899 0.7467 0.22598 0.0
C888 C 0.74007 0.66567 0.71329 0.0
C889 C 0.72165 0.65274 0.67926 0.0
C890 C 0.72472 0.67503 0.74306 0.0
C891 C 0.68966 0.67034 0.73886 0.0
C892 C 0.66995 0.65464 0.70549 0.0
C893 C 0.68671 0.6473 0.67557 0.0
C894 C 0.74714 0.6925 0.77776 0.0
C895 C 0.63183 0.64721 0.70063 0.0
C896 C 0.65136 0.68142 0.83091 0.0
C897 C 0.65733 0.71657 0.82756 0.0
C898 C 0.65882 0.66481 0.80093 0.0
C899 C 0.67516 0.68483 0.76791 0.0
C900 C 0.68039 0.72011 0.76404 0.0
C901 C 0.67091 0.73534 0.79382 0.0
C902 C 0.65075 0.62645 0.80534 0.0
C903 C 0.69853 0.74285 0.72973 0.0
H904 H 0.76759 0.67113 0.71554 0.0
H905 H 0.67296 0.6388 0.64873 0.0
H906 H 0.75186 0.72033 0.78056 0.0
H907 H 0.73268 0.6775 0.80339 0.0
H908 H 0.77363 0.69369 0.77679 0.0
H909 H 0.61824 0.62923 0.67624 0.0
H910 H 0.61578 0.6346 0.72642 0.0
H911 H 0.63197 0.67285 0.696 0.0
H912 H 0.64235 0.66738 0.85753 0.0
H913 H 0.67674 0.763 0.79185 0.0
H914 H 0.67617 0.62603 0.80953 0.0
H915 H 0.63777 0.61071 0.77947 0.0
H916 H 0.63283 0.61288 0.82978 0.0
H917 H 0.72621 0.74709 0.72717 0.0
H918 H 0.70024 0.76956 0.73101 0.0
H919 H 0.68368 0.72888 0.70384 0.0
C920 C 0.35307 0.07624 0.71281 0.0
C921 C 0.36502 0.07015 0.67844 0.0
C922 C 0.34369 0.05158 0.74263 0.0
C923 C 0.34732 0.02062 0.73811 0.0
C924 C 0.36202 0.01594 0.70434 0.0
C925 C 0.36943 0.04005 0.67443 0.0
C926 C 0.32732 0.05727 0.77778 0.0
C927 C 0.36831 0.98455 0.69911 0.0
C928 C 0.33628 0.97076 0.82985 0.0
C929 C 0.30071 0.94229 0.82696 0.0
C930 C 0.35293 0.99472 0.79979 0.0
C931 C 0.33259 0.99167 0.7672 0.0
C932 C 0.29686 0.9623 0.76379 0.0
C933 C 0.28155 0.93766 0.7936 0.0
C934 C 0.39169 0.02429 0.80374 0.0
C935 C 0.2738 0.95839 0.72996 0.0
H936 H 0.34837 0.09878 0.71532 0.0
H937 H 0.37721 0.03441 0.64737 0.0
H938 H 0.29929 0.03465 0.78113 0.0
H939 H 0.34263 0.05751 0.80303 0.0
H940 H 0.32685 0.08295 0.77701 0.0
H941 H 0.38532 0.98812 0.67407 0.0
H942 H 0.38152 0.98111 0.72441 0.0
H943 H 0.34217 0.95935 0.69544 0.0
H944 H 0.35068 0.9754 0.8562 0.0
H945 H 0.25362 0.91637 0.792 0.0
H946 H 0.39285 0.05026 0.8095 0.0
H947 H 0.40671 0.02746 0.77723 0.0
H948 H 0.40551 0.01883 0.82715 0.0
H949 H 0.27034 0.98233 0.72779 0.0
H950 H 0.24674 0.93385 0.73155 0.0
H951 H 0.28709 0.95708 0.70373 0.0
C952 C 0.94199 0.27722 0.7135 0.0
C953 C 0.94738 0.29593 0.67969 0.0
C954 C 0.96651 0.29252 0.74345 0.0
C955 C 0.99656 0.32781 0.73968 0.0
C956 C 1.00045 0.34776 0.70653 0.0
C957 C 0.97657 0.33108 0.67641 0.0
C958 C 0.9617 0.26982 0.77786 0.0
C959 C 0.03081 0.38609 0.70209 0.0
C960 C 0.04514 0.36557 0.83227 0.0
C961 C 0.0747 0.36019 0.8289 0.0
C962 C 0.02117 0.35809 0.80216 0.0
C963 C 0.02539 0.34235 0.76894 0.0
C964 C 0.05579 0.33769 0.76508 0.0
C965 C 0.08036 0.34717 0.79502 0.0
C966 C 0.99048 0.36557 0.80655 0.0
C967 C 0.06099 0.32022 0.73055 0.0
H968 H 0.92015 0.24956 0.71543 0.0
H969 H 0.98176 0.34509 0.64974 0.0
H970 H 0.98504 0.26544 0.78056 0.0
H971 H 0.96086 0.28389 0.80369 0.0
H972 H 0.93661 0.24318 0.77659 0.0
H973 H 0.02591 0.39993 0.67828 0.0
H974 H 0.03442 0.40169 0.72829 0.0
H975 H 0.05638 0.38633 0.69665 0.0
H976 H 0.03978 0.37418 0.85898 0.0
H977 H 0.10249 0.34178 0.79302 0.0
H978 H 0.96467 0.33989 0.80936 0.0
H979 H 0.98833 0.37951 0.78117 0.0
H980 H 0.99392 0.38242 0.83172 0.0
H981 H 0.03776 0.29249 0.72745 0.0
H982 H 0.08614 0.31878 0.73192 0.0
H983 H 0.062 0.3354 0.70488 0.0
C984 C 0.50924 0.23301 0.16067 0.0
C985 C 0.48848 0.22451 0.12764 0.0
C986 C 0.53509 0.2223 0.16554 0.0
C987 C 0.54083 0.20315 0.13645 0.0
C988 C 0.52097 0.19573 0.10246 0.0
C989 C 0.49482 0.20618 0.09861 0.0
C990 C 0.5552 0.23023 0.20243 0.0
C991 C 0.52668 0.17591 0.07047 0.0
C992 C 0.6243 0.19286 0.13532 0.0
C993 C 0.60975 0.15693 0.14682 0.0
C994 C 0.60247 0.20876 0.13276 0.0
C995 C 0.56547 0.18837 0.14249 0.0
C996 C 0.55131 0.15277 0.15612 0.0
C997 C 0.57349 0.1374 0.15767 0.0
C998 C 0.61852 0.24661 0.11766 0.0
C999 C 0.51228 0.13033 0.16766 0.0
H1000 H 0.50447 0.24704 0.18335 0.0
H1001 H 0.47917 0.19979 0.07288 0.0
H1002 H 0.54749 0.20458 0.21723 0.0
H1003 H 0.58466 0.24388 0.19733 0.0
H1004 H 0.54942 0.24743 0.22124 0.0
H1005 H 0.51142 0.17499 0.04479 0.0
H1006 H 0.55573 0.189 0.06329 0.0
H1007 H 0.51793 0.14787 0.07922 0.0
H1008 H 0.65216 0.20784 0.12626 0.0
H1009 H 0.5622 0.10961 0.16655 0.0
H1010 H 0.61194 0.2632 0.13643 0.0
H1011 H 0.60667 0.24589 0.08965 0.0
H1012 H 0.64826 0.25997 0.11463 0.0
H1013 H 0.50508 0.14543 0.18791 0.0
H1014 H 0.50631 0.1044 0.18078 0.0
H1015 H 0.49472 0.1244 0.14259 0.0
C1016 C 0.78483 0.27902 0.16018 0.0
C1017 C 0.79322 0.26666 0.12717 0.0
C1018 C 0.79558 0.31558 0.16495 0.0
C1019 C 0.81466 0.34038 0.13577 0.0
C1020 C 0.82195 0.32783 0.10179 0.0
C1021 C 0.81148 0.29122 0.09804 0.0
C1022 C 0.78779 0.32788 0.20183 0.0
C1023 C 0.84168 0.35327 0.06971 0.0
C1024 C 0.82488 0.43407 0.13463 0.0
C1025 C 0.86084 0.45548 0.14605 0.0
C1026 C 0.80901 0.39636 0.13205 0.0
C1027 C 0.82946 0.37979 0.1417 0.0
C1028 C 0.8651 0.40126 0.15524 0.0
C1029 C 0.88046 0.43881 0.15679 0.0
C1030 C 0.77111 0.37451 0.11705 0.0
C1031 C 0.8876 0.38471 0.1667 0.0
H1032 H 0.77086 0.2603 0.18294 0.0
H1033 H 0.81779 0.28187 0.07233 0.0
H1034 H 0.8135 0.34587 0.21654 0.0
H1035 H 0.77412 0.34367 0.19675 0.0
H1036 H 0.77065 0.30496 0.22075 0.0
H1037 H 0.84249 0.33884 0.04405 0.0
H1038 H 0.82858 0.36922 0.06253 0.0
H1039 H 0.86976 0.37256 0.07835 0.0
H1040 H 0.80984 0.44692 0.12566 0.0
H1041 H 0.90827 0.45534 0.16559 0.0
H1042 H 0.75455 0.3514 0.1359 0.0
H1043 H 0.77175 0.3633 0.08907 0.0
H1044 H 0.75774 0.39089 0.11399 0.0
H1045 H 0.87258 0.36246 0.18703 0.0
H1046 H 0.91359 0.40472 0.17971 0.0
H1047 H 0.89343 0.37303 0.14163 0.0
C1048 C 0.72615 0.52282 0.09827 0.0
C1049 C 0.75072 0.529 0.12737 0.0
C1050 C 0.68952 0.49668 0.10194 0.0
C1051 C 0.67695 0.47667 0.13582 0.0
C1052 C 0.70175 0.48225 0.16498 0.0
C1053 C 0.73834 0.50809 0.16028 0.0
C1054 C 0.66409 0.49113 0.06989 0.0
C1055 C 0.68944 0.46199 0.20176 0.0
C1056 C 0.57854 0.44409 0.15709 0.0
C1057 C 0.56176 0.40783 0.14619 0.0
C1058 C 0.61611 0.46625 0.15547 0.0
C1059 C 0.6375 0.45207 0.14173 0.0
C1060 C 0.62084 0.4151 0.1319 0.0
C1061 C 0.58311 0.39329 0.13453 0.0
C1062 C 0.63274 0.50525 0.1671 0.0
C1063 C 0.64261 0.39904 0.1167 0.0
H1064 H 0.7355 0.53859 0.07263 0.0
H1065 H 0.75706 0.51273 0.18302 0.0
H1066 H 0.6481 0.46211 0.06258 0.0
H1067 H 0.64482 0.49991 0.07863 0.0
H1068 H 0.67853 0.50646 0.04429 0.0
H1069 H 0.71237 0.46766 0.22063 0.0
H1070 H 0.67148 0.46967 0.21658 0.0
H1071 H 0.67362 0.43257 0.19651 0.0
H1072 H 0.56208 0.45538 0.16611 0.0
H1073 H 0.57019 0.36544 0.12544 0.0
H1074 H 0.64446 0.52285 0.14209 0.0
H1075 H 0.65498 0.51235 0.18742 0.0
H1076 H 0.61277 0.51125 0.18018 0.0
H1077 H 0.65383 0.41102 0.08877 0.0
H1078 H 0.62617 0.36933 0.11349 0.0
H1079 H 0.66572 0.40546 0.13551 0.0
C1080 C 0.19972 0.62233 0.37408 0.0
C1081 C 0.16414 0.60735 0.36118 0.0
C1082 C 0.21618 0.60106 0.37739 0.0
C1083 C 0.19672 0.56418 0.36701 0.0
C1084 C 0.16154 0.54961 0.352 0.0
C1085 C 0.14559 0.57124 0.3497 0.0
C1086 C 0.25356 0.61753 0.39391 0.0
C1087 C 0.1401 0.51071 0.33976 0.0
C1088 C 0.24248 0.50883 0.35022 0.0
C1089 C 0.23271 0.48723 0.38271 0.0
C1090 C 0.23211 0.53491 0.34526 0.0
C1091 C 0.21193 0.54 0.3737 0.0
C1092 C 0.20352 0.51953 0.40735 0.0
C1093 C 0.21373 0.49321 0.41132 0.0
C1094 C 0.24125 0.55578 0.30879 0.0
C1095 C 0.18261 0.52455 0.43868 0.0
H1096 H 0.21393 0.65008 0.38361 0.0
H1097 H 0.11808 0.55961 0.33971 0.0
H1098 H 0.25208 0.60564 0.42208 0.0
H1099 H 0.27103 0.61138 0.37604 0.0
H1100 H 0.26641 0.64722 0.39703 0.0
H1101 H 0.11442 0.5044 0.32575 0.0
H1102 H 0.15616 0.50424 0.32004 0.0
H1103 H 0.13375 0.49285 0.36462 0.0
H1104 H 0.25713 0.50447 0.3279 0.0
H1105 H 0.20636 0.47695 0.43666 0.0
H1106 H 0.25395 0.58507 0.31447 0.0
H1107 H 0.21615 0.54771 0.29269 0.0
H1108 H 0.25973 0.551 0.29092 0.0
H1109 H 0.19507 0.5535 0.44609 0.0
H1110 H 0.18133 0.50919 0.4644 0.0
H1111 H 0.1547 0.5154 0.4291 0.0
C1112 C 0.52739 0.7208 0.40599 0.0
C1113 C 0.53212 0.7467 0.37899 0.0
C1114 C 0.50108 0.68436 0.40125 0.0
C1115 C 0.47925 0.67337 0.36846 0.0
C1116 C 0.48316 0.69952 0.34166 0.0
C1117 C 0.50934 0.73583 0.34734 0.0
C1118 C 0.49742 0.65742 0.43082 0.0
C1119 C 0.46078 0.68896 0.30615 0.0
C1120 C 0.44663 0.57655 0.33985 0.0
C1121 C 0.41118 0.55864 0.35343 0.0
C1122 C 0.4684 0.61406 0.34295 0.0
C1123 C 0.45466 0.63422 0.36083 0.0
C1124 C 0.41832 0.6165 0.37318 0.0
C1125 C 0.39688 0.57886 0.36911 0.0
C1126 C 0.50667 0.63188 0.32858 0.0
C1127 C 0.40272 0.63693 0.39265 0.0
H1128 H 0.54458 0.72891 0.43067 0.0
H1129 H 0.51272 0.75555 0.32623 0.0
H1130 H 0.46885 0.6408 0.43959 0.0
H1131 H 0.50589 0.63888 0.41889 0.0
H1132 H 0.51406 0.67061 0.45616 0.0
H1133 H 0.46495 0.71277 0.28965 0.0
H1134 H 0.468 0.67235 0.28815 0.0
H1135 H 0.43174 0.6723 0.31302 0.0
H1136 H 0.45775 0.56097 0.32773 0.0
H1137 H 0.3697 0.56506 0.38027 0.0
H1138 H 0.52568 0.64255 0.35266 0.0
H1139 H 0.51231 0.65502 0.31016 0.0
H1140 H 0.5122 0.61293 0.31249 0.0
H1141 H 0.4158 0.64639 0.42054 0.0
H1142 H 0.37317 0.62006 0.39695 0.0
H1143 H 0.40824 0.66113 0.37614 0.0
C1144 C 0.44359 0.87636 0.34947 0.0
C1145 C 0.46052 0.85704 0.36042 0.0
C1146 C 0.40603 0.86085 0.35128 0.0
C1147 C 0.3848 0.82536 0.36527 0.0
C1148 C 0.40162 0.8052 0.37514 0.0
C1149 C 0.43934 0.82121 0.37232 0.0
C1150 C 0.38921 0.88304 0.33959 0.0
C1151 C 0.38003 0.76746 0.3906 0.0
C1152 C 0.2964 0.80761 0.40916 0.0
C1153 C 0.27169 0.78907 0.38022 0.0
C1154 C 0.333 0.81807 0.40531 0.0
C1155 C 0.34539 0.81045 0.37142 0.0
C1156 C 0.32044 0.79102 0.34246 0.0
C1157 C 0.28389 0.78032 0.34732 0.0
C1158 C 0.35861 0.83818 0.43717 0.0
C1159 C 0.33257 0.78285 0.30568 0.0
H1160 H 0.45993 0.90407 0.34027 0.0
H1161 H 0.45238 0.8064 0.38145 0.0
H1162 H 0.36687 0.86772 0.31943 0.0
H1163 H 0.37759 0.88904 0.3646 0.0
H1164 H 0.40904 0.90894 0.32629 0.0
H1165 H 0.39654 0.75425 0.39372 0.0
H1166 H 0.36904 0.76837 0.41862 0.0
H1167 H 0.35677 0.75063 0.37202 0.0
H1168 H 0.28717 0.8142 0.43479 0.0
H1169 H 0.26506 0.76612 0.3247 0.0
H1170 H 0.37775 0.8662 0.42823 0.0
H1171 H 0.37471 0.82527 0.44444 0.0
H1172 H 0.3443 0.83918 0.46284 0.0
H1173 H 0.35032 0.80839 0.2906 0.0
H1174 H 0.30953 0.76535 0.28704 0.0
H1175 H 0.34856 0.76942 0.31094 0.0
C1176 C 0.44846 0.87631 0.85044 0.0
C1177 C 0.41216 0.8566 0.86113 0.0
C1178 C 0.47072 0.86102 0.85187 0.0
C1179 C 0.4566 0.82534 0.86524 0.0
C1180 C 0.41958 0.80481 0.87484 0.0
C1181 C 0.39768 0.82062 0.87238 0.0
C1182 C 0.50977 0.88362 0.84047 0.0
C1183 C 0.40359 0.76687 0.88967 0.0
C1184 C 0.51293 0.78092 0.84655 0.0
C1185 C 0.53364 0.78921 0.8796 0.0
C1186 C 0.48709 0.79165 0.84182 0.0
C1187 C 0.48129 0.8106 0.87109 0.0
C1188 C 0.5011 0.81782 0.90509 0.0
C1189 C 0.52727 0.80737 0.90879 0.0
C1190 C 0.46705 0.78396 0.80491 0.0
C1191 C 0.49531 0.8374 0.93726 0.0
H1192 H 0.4597 0.90415 0.84177 0.0
H1193 H 0.36978 0.80551 0.88131 0.0
H1194 H 0.52727 0.88941 0.86556 0.0
H1195 H 0.51707 0.8687 0.82008 0.0
H1196 H 0.51571 0.90963 0.82757 0.0
H1197 H 0.37384 0.75344 0.89271 0.0
H1198 H 0.41021 0.75042 0.87073 0.0
H1199 H 0.41545 0.76744 0.91763 0.0
H1200 H 0.51774 0.76703 0.82374 0.0
H1201 H 0.54289 0.8136 0.93453 0.0
H1202 H 0.47472 0.80971 0.79034 0.0
H1203 H 0.43758 0.7702 0.80995 0.0
H1204 H 0.47292 0.76694 0.78591 0.0
H1205 H 0.50404 0.86549 0.92873 0.0
H1206 H 0.51054 0.83817 0.9629 0.0
H1207 H 0.46624 0.82423 0.9444 0.0
C1208 C 0.23668 0.73405 0.84695 0.0
C1209 C 0.22813 0.74647 0.87982 0.0
C1210 C 0.22586 0.69746 0.84226 0.0
C1211 C 0.20653 0.67269 0.87138 0.0
C1212 C 0.19905 0.68529 0.90521 0.0
C1213 C 0.20961 0.72192 0.90888 0.0
C1214 C 0.23387 0.68512 0.80553 0.0
C1215 C 0.17905 0.65988 0.93723 0.0
C1216 C 0.14075 0.57428 0.85019 0.0
C1217 C 0.16022 0.55755 0.86123 0.0
C1218 C 0.15615 0.61184 0.85171 0.0
C1219 C 0.1917 0.63326 0.86552 0.0
C1220 C 0.21201 0.61663 0.87549 0.0
C1221 C 0.1961 0.57891 0.87295 0.0
C1222 C 0.1338 0.62846 0.83991 0.0
C1223 C 0.24981 0.63842 0.89078 0.0
H1224 H 0.25086 0.75276 0.82424 0.0
H1225 H 0.20317 0.73131 0.93448 0.0
H1226 H 0.24746 0.6693 0.81086 0.0
H1227 H 0.20825 0.66715 0.79067 0.0
H1228 H 0.25116 0.70802 0.78667 0.0
H1229 H 0.17807 0.67432 0.96278 0.0
H1230 H 0.15102 0.64062 0.92839 0.0
H1231 H 0.19204 0.64388 0.94464 0.0
H1232 H 0.113 0.5578 0.84113 0.0
H1233 H 0.21103 0.56602 0.88215 0.0
H1234 H 0.149 0.65068 0.81961 0.0
H1235 H 0.12784 0.64019 0.86485 0.0
H1236 H 0.10788 0.60848 0.82675 0.0
H1237 H 0.26654 0.6615 0.87196 0.0
H1238 H 0.26309 0.62199 0.89411 0.0
H1239 H 0.24899 0.64967 0.91867 0.0
C1240 C 0.2956 0.49125 0.90981 0.0
C1241 C 0.27079 0.4853 0.88104 0.0
C1242 C 0.33218 0.51746 0.90597 0.0
C1243 C 0.34445 0.53778 0.87225 0.0
C1244 C 0.31939 0.53251 0.8435 0.0
C1245 C 0.28287 0.50659 0.84836 0.0
C1246 C 0.35789 0.52269 0.93762 0.0
C1247 C 0.33138 0.55314 0.8069 0.0
C1248 C 0.43849 0.62084 0.87334 0.0
C1249 C 0.45957 0.60621 0.86105 0.0
C1250 C 0.40076 0.59918 0.87623 0.0
C1251 C 0.38385 0.56229 0.866 0.0
C1252 C 0.40498 0.54807 0.85159 0.0
C1253 C 0.44255 0.57007 0.84975 0.0
C1254 C 0.37929 0.61527 0.89216 0.0
C1255 C 0.38806 0.50917 0.8395 0.0
H1256 H 0.28648 0.47518 0.93528 0.0
H1257 H 0.26396 0.50213 0.82588 0.0
H1258 H 0.37696 0.51383 0.92836 0.0
H1259 H 0.37407 0.55164 0.94511 0.0
H1260 H 0.34366 0.50722 0.96324 0.0
H1261 H 0.30827 0.54784 0.78849 0.0
H1262 H 0.34748 0.5825 0.81242 0.0
H1263 H 0.34899 0.54539 0.79144 0.0
H1264 H 0.45162 0.64861 0.88275 0.0
H1265 H 0.45884 0.55872 0.84027 0.0
H1266 H 0.36844 0.6032 0.92016 0.0
H1267 H 0.35594 0.609 0.87378 0.0
H1268 H 0.39585 0.64497 0.89548 0.0
H1269 H 0.37654 0.49134 0.86438 0.0
H1270 H 0.40781 0.50317 0.82585 0.0
H1271 H 0.36564 0.50235 0.81951 0.0
C1272 C 0.78511 0.50757 0.65988 0.0
C1273 C 0.79383 0.52856 0.62701 0.0
C1274 C 0.79574 0.48166 0.66464 0.0
C1275 C 0.81507 0.4761 0.6356 0.0
C1276 C 0.82269 0.49617 0.60175 0.0
C1277 C 0.8123 0.52238 0.59801 0.0
C1278 C 0.78759 0.46132 0.70139 0.0
C1279 C 0.84268 0.49065 0.56981 0.0
C1280 C 0.88072 0.44337 0.65718 0.0
C1281 C 0.86125 0.40715 0.64617 0.0
C1282 C 0.86536 0.46556 0.65552 0.0
C1283 C 0.82984 0.45145 0.64161 0.0
C1284 C 0.80952 0.4145 0.63168 0.0
C1285 C 0.82541 0.39266 0.63437 0.0
C1286 C 0.88772 0.50453 0.66727 0.0
C1287 C 0.77176 0.39851 0.6163 0.0
H1288 H 0.77097 0.51221 0.68255 0.0
H1289 H 0.81887 0.53821 0.5724 0.0
H1290 H 0.77401 0.4319 0.69608 0.0
H1291 H 0.81315 0.46897 0.71638 0.0
H1292 H 0.77023 0.46695 0.72013 0.0
H1293 H 0.84371 0.50603 0.5442 0.0
H1294 H 0.87069 0.49939 0.57871 0.0
H1295 H 0.82965 0.46164 0.56246 0.0
H1296 H 0.90845 0.45462 0.66629 0.0
H1297 H 0.81048 0.36483 0.62519 0.0
H1298 H 0.8725 0.51161 0.68749 0.0
H1299 H 0.89375 0.52219 0.6423 0.0
H1300 H 0.91361 0.51046 0.68051 0.0
H1301 H 0.75502 0.40496 0.63499 0.0
H1302 H 0.75844 0.3688 0.61307 0.0
H1303 H 0.77267 0.41052 0.58834 0.0
C1304 C 0.51138 0.27854 0.65903 0.0
C1305 C 0.49024 0.26644 0.62624 0.0
C1306 C 0.53732 0.31505 0.66392 0.0
C1307 C 0.54274 0.34008 0.63509 0.0
C1308 C 0.52256 0.32778 0.60127 0.0
C1309 C 0.49634 0.29121 0.5974 0.0
C1310 C 0.55779 0.32706 0.70062 0.0
C1311 C 0.52794 0.35346 0.56955 0.0
C1312 C 0.57496 0.43816 0.65747 0.0
C1313 C 0.61116 0.45517 0.64634 0.0
C1314 C 0.55295 0.4006 0.6556 0.0
C1315 C 0.56723 0.37947 0.64135 0.0
C1316 C 0.60417 0.39636 0.63131 0.0
C1317 C 0.62582 0.43408 0.63421 0.0
C1318 C 0.51399 0.38371 0.66748 0.0
C1319 C 0.62032 0.37487 0.61558 0.0
H1320 H 0.50681 0.25966 0.68158 0.0
H1321 H 0.48039 0.28207 0.57185 0.0
H1322 H 0.58718 0.34316 0.69524 0.0
H1323 H 0.54997 0.34468 0.71595 0.0
H1324 H 0.55241 0.30398 0.71908 0.0
H1325 H 0.51258 0.33922 0.54388 0.0
H1326 H 0.51905 0.37254 0.57867 0.0
H1327 H 0.55694 0.36962 0.56221 0.0
H1328 H 0.56358 0.45445 0.66684 0.0
H1329 H 0.65364 0.44719 0.62493 0.0
H1330 H 0.50708 0.36131 0.68751 0.0
H1331 H 0.49627 0.37215 0.64251 0.0
H1332 H 0.50793 0.40346 0.68098 0.0
H1333 H 0.61397 0.35155 0.63402 0.0
H1334 H 0.65004 0.39142 0.6124 0.0
H1335 H 0.60836 0.36399 0.58755 0.0
C1336 C 0.72663 0.20517 0.5979 0.0
C1337 C 0.75138 0.22398 0.62673 0.0
C1338 C 0.69002 0.19475 0.60169 0.0
C1339 C 0.67766 0.2027 0.63541 0.0
C1340 C 0.70265 0.22237 0.66426 0.0
C1341 C 0.73919 0.23301 0.65946 0.0
C1342 C 0.66438 0.17436 0.56996 0.0
C1343 C 0.69057 0.23091 0.70086 0.0
C1344 C 0.58377 0.19212 0.63419 0.0
C1345 C 0.56255 0.15643 0.64649 0.0
C1346 C 0.62148 0.20803 0.63132 0.0
C1347 C 0.63826 0.18791 0.64153 0.0
C1348 C 0.617 0.15257 0.6559 0.0
C1349 C 0.57944 0.13717 0.65777 0.0
C1350 C 0.6431 0.2456 0.61545 0.0
C1351 C 0.63376 0.13043 0.66796 0.0
H1352 H 0.73582 0.19835 0.5724 0.0
H1353 H 0.75804 0.24742 0.682 0.0
H1354 H 0.64521 0.14645 0.57917 0.0
H1355 H 0.64832 0.18724 0.5624 0.0
H1356 H 0.67866 0.17308 0.54439 0.0
H1357 H 0.71362 0.24852 0.71943 0.0
H1358 H 0.67465 0.24436 0.69534 0.0
H1359 H 0.67277 0.20551 0.71615 0.0
H1360 H 0.57076 0.20688 0.6248 0.0
H1361 H 0.56307 0.10956 0.66727 0.0
H1362 H 0.65409 0.2444 0.58753 0.0
H1363 H 0.66637 0.2626 0.63396 0.0
H1364 H 0.62663 0.25882 0.61202 0.0
H1365 H 0.64533 0.12418 0.64309 0.0
H1366 H 0.61391 0.10467 0.68148 0.0
H1367 H 0.65613 0.14591 0.68805 0.0
C1368 C 0.40568 0.20493 0.78214 0.0
C1369 C 0.41011 0.17638 0.76936 0.0
C1370 C 0.40348 0.21069 0.82073 0.0
C1371 C 0.4054 0.18714 0.84737 0.0
C1372 C 0.4085 0.15744 0.83464 0.0
C1373 C 0.41101 0.15251 0.79577 0.0
C1374 C 0.40034 0.24275 0.833 0.0
C1375 C 0.41003 0.13138 0.86212 0.0
C1376 C 0.44136 0.22585 0.94452 0.0
C1377 C 0.40968 0.21249 0.96588 0.0
C1378 C 0.44026 0.21753 0.90612 0.0
C1379 C 0.40665 0.19519 0.88845 0.0
C1380 C 0.3745 0.18171 0.90975 0.0
C1381 C 0.37638 0.1906 0.94818 0.0
C1382 C 0.47517 0.23276 0.8844 0.0
C1383 C 0.33814 0.15786 0.89196 0.0
H1384 H 0.40486 0.22349 0.76198 0.0
H1385 H 0.41395 0.13012 0.78611 0.0
H1386 H 0.37705 0.23407 0.85225 0.0
H1387 H 0.42487 0.26189 0.84884 0.0
H1388 H 0.39703 0.25725 0.80878 0.0
H1389 H 0.41006 0.10839 0.84771 0.0
H1390 H 0.43477 0.14559 0.87952 0.0
H1391 H 0.38667 0.12067 0.88158 0.0
H1392 H 0.46723 0.24276 0.95785 0.0
H1393 H 0.35175 0.18009 0.96443 0.0
H1394 H 0.47498 0.24957 0.86073 0.0
H1395 H 0.47801 0.21054 0.87204 0.0
H1396 H 0.49908 0.24948 0.90233 0.0
H1397 H 0.33367 0.17245 0.86869 0.0
H1398 H 0.31574 0.14899 0.91252 0.0
H1399 H 0.33724 0.13367 0.87953 0.0
C1400 C 0.86537 0.26089 0.79626 0.0
C1401 C 0.84254 0.23544 0.7697 0.0
C1402 C 0.86014 0.25354 0.83513 0.0
C1403 C 0.83127 0.22009 0.8477 0.0
C1404 C 0.80884 0.19399 0.82094 0.0
C1405 C 0.81485 0.20191 0.78236 0.0
C1406 C 0.885 0.28184 0.86278 0.0
C1407 C 0.77768 0.15807 0.83304 0.0
C1408 C 0.82833 0.18871 0.94888 0.0
C1409 C 0.80508 0.1987 0.96601 0.0
C1410 C 0.83749 0.19585 0.91053 0.0
C1411 C 0.82287 0.21316 0.8887 0.0
C1412 C 0.79913 0.22295 0.90577 0.0
C1413 C 0.79059 0.21567 0.94413 0.0
C1414 C 0.86286 0.18495 0.89339 0.0
C1415 C 0.78267 0.24114 0.88348 0.0
H1416 H 0.88713 0.28666 0.7867 0.0
H1417 H 0.7971 0.18201 0.76209 0.0
H1418 H 0.86944 0.29055 0.88054 0.0
H1419 H 0.89723 0.27042 0.88189 0.0
H1420 H 0.90694 0.30589 0.84852 0.0
H1421 H 0.76408 0.13991 0.80877 0.0
H1422 H 0.78713 0.1444 0.85268 0.0
H1423 H 0.75756 0.16232 0.84839 0.0
H1424 H 0.83973 0.17565 0.96554 0.0
H1425 H 0.77262 0.2235 0.95702 0.0
H1426 H 0.88655 0.20885 0.8811 0.0
H1427 H 0.84919 0.16555 0.8701 0.0
H1428 H 0.87247 0.17237 0.91431 0.0
H1429 H 0.80424 0.26667 0.87121 0.0
H1430 H 0.76488 0.24723 0.90097 0.0
H1431 H 0.76664 0.22363 0.85971 0.0
C1432 C 0.82934 0.64185 0.94903 0.0
C1433 C 0.81891 0.60862 0.9664 0.0
C1434 C 0.82233 0.64378 0.91062 0.0
C1435 C 0.80468 0.61175 0.88898 0.0
C1436 C 0.79445 0.57822 0.9063 0.0
C1437 C 0.80163 0.57707 0.94471 0.0
C1438 C 0.83373 0.68004 0.8932 0.0
C1439 C 0.77588 0.54346 0.88421 0.0
C1440 C 0.75728 0.60657 0.79632 0.0
C1441 C 0.78258 0.60864 0.76989 0.0
C1442 C 0.76461 0.6089 0.8352 0.0
C1443 C 0.79786 0.61309 0.84793 0.0
C1444 C 0.82384 0.61622 0.82129 0.0
C1445 C 0.81596 0.61412 0.78269 0.0
C1446 C 0.73644 0.60605 0.8627 0.0
C1447 C 0.85956 0.62056 0.83357 0.0
H1448 H 0.84266 0.66639 0.96554 0.0
H1449 H 0.79345 0.55126 0.95778 0.0
H1450 H 0.85308 0.68538 0.86998 0.0
H1451 H 0.81001 0.68014 0.88078 0.0
H1452 H 0.84655 0.70233 0.914 0.0
H1453 H 0.76945 0.5196 0.90189 0.0
H1454 H 0.75049 0.53978 0.87182 0.0
H1455 H 0.7933 0.54455 0.86054 0.0
H1456 H 0.73163 0.60283 0.78664 0.0
H1457 H 0.83575 0.61586 0.76252 0.0
H1458 H 0.74823 0.62958 0.88198 0.0
H1459 H 0.72708 0.58158 0.88031 0.0
H1460 H 0.71276 0.60465 0.84832 0.0
H1461 H 0.87345 0.64375 0.85308 0.0
H1462 H 0.87768 0.62475 0.80936 0.0
H1463 H 0.85497 0.59616 0.84911 0.0
C1464 C 0.19449 0.37197 0.55987 0.0
C1465 C 0.21823 0.40519 0.54302 0.0
C1466 C 0.1851 0.36986 0.59815 0.0
C1467 C 0.19993 0.40169 0.62015 0.0
C1468 C 0.22415 0.4352 0.60335 0.0
C1469 C 0.23296 0.43653 0.56508 0.0
C1470 C 0.15927 0.33362 0.61503 0.0
C1471 C 0.24081 0.46974 0.62584 0.0
C1472 C 0.15722 0.40738 0.71217 0.0
C1473 C 0.17977 0.40452 0.7389 0.0
C1474 C 0.16256 0.40512 0.67336 0.0
C1475 C 0.19125 0.40014 0.66105 0.0
C1476 C 0.21331 0.3961 0.68799 0.0
C1477 C 0.20723 0.3982 0.7265 0.0
C1478 C 0.13809 0.40899 0.64551 0.0
C1479 C 0.24423 0.39083 0.67614 0.0
H1480 H 0.18293 0.3476 0.54307 0.0
H1481 H 0.25131 0.46233 0.55239 0.0
H1482 H 0.17258 0.32753 0.63839 0.0
H1483 H 0.13566 0.33411 0.62716 0.0
H1484 H 0.14956 0.31152 0.59399 0.0
H1485 H 0.25894 0.49362 0.60854 0.0
H1486 H 0.21935 0.47397 0.63797 0.0
H1487 H 0.25653 0.4679 0.64972 0.0
H1488 H 0.13563 0.41176 0.72153 0.0
H1489 H 0.22473 0.39581 0.74691 0.0
H1490 H 0.12603 0.38559 0.62608 0.0
H1491 H 0.15395 0.43347 0.62812 0.0
H1492 H 0.11604 0.41103 0.65958 0.0
H1493 H 0.23466 0.36782 0.65634 0.0
H1494 H 0.2574 0.38584 0.70052 0.0
H1495 H 0.26475 0.41517 0.66105 0.0
C1496 C 0.58149 0.79728 0.56272 0.0
C1497 C 0.61286 0.81361 0.54068 0.0
C1498 C 0.58273 0.79002 0.60108 0.0
C1499 C 0.61617 0.79915 0.618 0.0
C1500 C 0.64802 0.8158 0.59601 0.0
C1501 C 0.64601 0.82295 0.55765 0.0
C1502 C 0.54818 0.77254 0.62355 0.0
C1503 C 0.68418 0.82599 0.61298 0.0
C1504 C 0.62013 0.81081 0.7243 0.0
C1505 C 0.61359 0.77705 0.73704 0.0
C1506 C 0.62206 0.81866 0.6857 0.0
C1507 C 0.61765 0.79225 0.659 0.0
C1508 C 0.61239 0.75856 0.67164 0.0
C1509 C 0.61029 0.7513 0.71053 0.0
C1510 C 0.6276 0.85486 0.67352 0.0
C1511 C 0.60815 0.7299 0.64406 0.0
H1512 H 0.55574 0.78996 0.54995 0.0
H1513 H 0.6704 0.8355 0.54088 0.0
H1514 H 0.5437 0.74684 0.6359 0.0
H1515 H 0.55019 0.79031 0.64727 0.0
H1516 H 0.52436 0.76689 0.60618 0.0
H1517 H 0.7063 0.83805 0.59193 0.0
H1518 H 0.69047 0.84561 0.63616 0.0
H1519 H 0.68343 0.80186 0.62536 0.0
H1520 H 0.62282 0.83096 0.74452 0.0
H1521 H 0.60573 0.72534 0.72015 0.0
H1522 H 0.60334 0.85111 0.65829 0.0
H1523 H 0.65066 0.86805 0.65375 0.0
H1524 H 0.63269 0.87321 0.69774 0.0
H1525 H 0.5839 0.72165 0.62638 0.0
H1526 H 0.60549 0.70565 0.65837 0.0
H1527 H 0.63171 0.7408 0.62487 0.0
C1528 C 0.26691 0.86069 0.71064 0.0
C1529 C 0.24083 0.83899 0.73726 0.0
C1530 C 0.25956 0.85538 0.67178 0.0
C1531 C 0.22543 0.82763 0.65927 0.0
C1532 C 0.19872 0.80642 0.68608 0.0
C1533 C 0.20668 0.81244 0.72465 0.0
C1534 C 0.28857 0.87895 0.64407 0.0
C1535 C 0.16204 0.77648 0.67404 0.0
C1536 C 0.1951 0.82575 0.55785 0.0
C1537 C 0.20332 0.80105 0.54112 0.0
C1538 C 0.20251 0.83505 0.59615 0.0
C1539 C 0.21827 0.81907 0.61832 0.0
C1540 C 0.22626 0.79386 0.60165 0.0
C1541 C 0.21877 0.78523 0.56333 0.0
C1542 C 0.19356 0.86202 0.61286 0.0
C1543 C 0.24276 0.77594 0.62434 0.0
H1544 H 0.29318 0.88158 0.72015 0.0
H1545 H 0.18628 0.79558 0.74495 0.0
H1546 H 0.2956 0.86215 0.62614 0.0
H1547 H 0.27851 0.89258 0.62513 0.0
H1548 H 0.31342 0.89975 0.65827 0.0
H1549 H 0.14357 0.76383 0.69832 0.0
H1550 H 0.14945 0.7869 0.65414 0.0
H1551 H 0.16491 0.75536 0.659 0.0
H1552 H 0.18324 0.8382 0.54093 0.0
H1553 H 0.22523 0.76611 0.55074 0.0
H1554 H 0.21814 0.88498 0.62512 0.0
H1555 H 0.17384 0.84935 0.63609 0.0
H1556 H 0.18211 0.87259 0.59168 0.0
H1557 H 0.2688 0.79664 0.63657 0.0
H1558 H 0.24757 0.75709 0.60714 0.0
H1559 H 0.22477 0.76073 0.64814 0.0
C1560 C 0.6464 0.82342 0.05823 0.0
C1561 C 0.6131 0.80102 0.04076 0.0
C1562 C 0.64837 0.83241 0.09663 0.0
C1563 C 0.61631 0.81852 0.11815 0.0
C1564 C 0.5827 0.79566 0.10072 0.0
C1565 C 0.58151 0.78725 0.06234 0.0
C1566 C 0.68472 0.85682 0.11416 0.0
C1567 C 0.5479 0.77999 0.12268 0.0
C1568 C 0.6181 0.80937 0.22446 0.0
C1569 C 0.61314 0.8376 0.23721 0.0
C1570 C 0.62022 0.80355 0.18588 0.0
C1571 C 0.61767 0.8267 0.1592 0.0
C1572 C 0.61404 0.85611 0.17188 0.0
C1573 C 0.61163 0.86112 0.21075 0.0
C1574 C 0.62397 0.77182 0.17366 0.0
C1575 C 0.61181 0.88175 0.14435 0.0
H1576 H 0.67097 0.83425 0.04181 0.0
H1577 H 0.55565 0.76994 0.04919 0.0
H1578 H 0.68523 0.88084 0.12654 0.0
H1579 H 0.68967 0.84257 0.13743 0.0
H1580 H 0.70703 0.86595 0.09345 0.0
H1581 H 0.52397 0.76287 0.10493 0.0
H1582 H 0.54857 0.76346 0.14638 0.0
H1583 H 0.54465 0.80198 0.13502 0.0
H1584 H 0.61939 0.79109 0.24465 0.0
H1585 H 0.60829 0.88327 0.22038 0.0
H1586 H 0.64718 0.78078 0.15424 0.0
H1587 H 0.59947 0.7523 0.15803 0.0
H1588 H 0.62778 0.75766 0.19789 0.0
H1589 H 0.63515 0.89282 0.12484 0.0
H1590 H 0.61128 0.90451 0.15871 0.0
H1591 H 0.58708 0.86708 0.127 0.0
C1592 C 0.19468 0.82552 0.05838 0.0
C1593 C 0.21691 0.81447 0.04082 0.0
C1594 C 0.18581 0.81857 0.09681 0.0
C1595 C 0.19965 0.80031 0.11826 0.0
C1596 C 0.22236 0.78942 0.10074 0.0
C1597 C 0.23065 0.79658 0.06233 0.0
C1598 C 0.16157 0.83066 0.11444 0.0
C1599 C 0.23798 0.7702 0.12262 0.0
C1600 C 0.20913 0.81132 0.22456 0.0
C1601 C 0.18085 0.77819 0.23736 0.0
C1602 C 0.21488 0.81922 0.18596 0.0
C1603 C 0.19158 0.79354 0.15933 0.0
C1604 C 0.16212 0.76057 0.17207 0.0
C1605 C 0.1572 0.75319 0.21095 0.0
C1606 C 0.24668 0.85462 0.17367 0.0
C1607 C 0.13633 0.73273 0.1446 0.0
H1608 H 0.18388 0.83932 0.04201 0.0
H1609 H 0.24783 0.78791 0.0491 0.0
H1610 H 0.13751 0.80721 0.12685 0.0
H1611 H 0.17594 0.84983 0.1377 0.0
H1612 H 0.15247 0.84391 0.09378 0.0
H1613 H 0.25499 0.76331 0.1048 0.0
H1614 H 0.25462 0.78738 0.14629 0.0
H1615 H 0.21596 0.74501 0.135 0.0
H1616 H 0.22751 0.83087 0.24472 0.0
H1617 H 0.13501 0.72774 0.22063 0.0
H1618 H 0.23775 0.86893 0.1543 0.0
H1619 H 0.26608 0.84953 0.15796 0.0
H1620 H 0.26096 0.87257 0.19788 0.0
H1621 H 0.12534 0.74507 0.12507 0.0
H1622 H 0.11351 0.70955 0.15901 0.0
H1623 H 0.15085 0.72251 0.12727 0.0
C1624 C 0.21895 0.43425 0.06369 0.0
C1625 C 0.20766 0.40429 0.04004 0.0
C1626 C 0.23211 0.43481 0.10007 0.0
C1627 C 0.2343 0.40474 0.1132 0.0
C1628 C 0.22231 0.3741 0.08976 0.0
C1629 C 0.20898 0.37416 0.05353 0.0
C1630 C 0.24429 0.46791 0.12425 0.0
C1631 C 0.22434 0.34158 0.10261 0.0
C1632 C 0.30131 0.42508 0.19292 0.0
C1633 C 0.27894 0.41547 0.2247 0.0
C1634 C 0.28699 0.4204 0.15634 0.0
C1635 C 0.24939 0.40579 0.1514 0.0
C1636 C 0.22654 0.39455 0.18331 0.0
C1637 C 0.24155 0.3995 0.2195 0.0
C1638 C 0.31229 0.43241 0.12307 0.0
C1639 C 0.1863 0.37854 0.17933 0.0
H1640 H 0.21798 0.45761 0.05359 0.0
H1641 H 0.20055 0.35096 0.03539 0.0
H1642 H 0.22936 0.46044 0.15132 0.0
H1643 H 0.27333 0.47989 0.13102 0.0
H1644 H 0.24013 0.48871 0.11023 0.0
H1645 H 0.21297 0.31949 0.08148 0.0
H1646 H 0.25281 0.34931 0.10798 0.0
H1647 H 0.20954 0.33123 0.12952 0.0
H1648 H 0.33018 0.43717 0.19659 0.0
H1649 H 0.22393 0.39157 0.24382 0.0
H1650 H 0.31267 0.45588 0.10939 0.0
H1651 H 0.30278 0.41061 0.10176 0.0
H1652 H 0.34026 0.44021 0.13136 0.0
H1653 H 0.18039 0.39919 0.16811 0.0
H1654 H 0.17198 0.36855 0.20659 0.0
H1655 H 0.17531 0.3559 0.15893 0.0
C1656 C 0.83003 0.64182 0.44929 0.0
C1657 C 0.80567 0.60883 0.46616 0.0
C1658 C 0.83924 0.6437 0.41097 0.0
C1659 C 0.82353 0.61189 0.38892 0.0
C1660 C 0.79866 0.57862 0.40572 0.0
C1661 C 0.79011 0.5775 0.44406 0.0
C1662 C 0.86582 0.67969 0.39411 0.0
C1663 C 0.78103 0.54411 0.38317 0.0
C1664 C 0.81638 0.61631 0.2826 0.0
C1665 C 0.84319 0.60911 0.26995 0.0
C1666 C 0.81043 0.6183 0.32117 0.0
C1667 C 0.83198 0.61326 0.34794 0.0
C1668 C 0.85999 0.60729 0.33541 0.0
C1669 C 0.86521 0.60518 0.29653 0.0
C1670 C 0.78022 0.6246 0.33325 0.0
C1671 C 0.88391 0.60234 0.36308 0.0
H1672 H 0.84228 0.66619 0.46613 0.0
H1673 H 0.77127 0.55188 0.45676 0.0
H1674 H 0.88894 0.67838 0.38182 0.0
H1675 H 0.85288 0.68641 0.37088 0.0
H1676 H 0.87621 0.70178 0.41521 0.0
H1677 H 0.76245 0.52042 0.40047 0.0
H1678 H 0.76559 0.54657 0.35939 0.0
H1679 H 0.80193 0.53909 0.37091 0.0
H1680 H 0.79928 0.61951 0.26232 0.0
H1681 H 0.8863 0.60011 0.28699 0.0
H1682 H 0.79045 0.64766 0.35307 0.0
H1683 H 0.75934 0.60053 0.34839 0.0
H1684 H 0.76731 0.6301 0.30899 0.0
H1685 H 0.89728 0.62607 0.382 0.0
H1686 H 0.90495 0.5987 0.34885 0.0
H1687 H 0.86741 0.57845 0.38103 0.0
C1688 C 0.43923 0.21315 0.4432 0.0
C1689 C 0.40821 0.19842 0.46576 0.0
C1690 C 0.43792 0.22072 0.40494 0.0
C1691 C 0.4048 0.21354 0.38867 0.0
C1692 C 0.3733 0.19851 0.4112 0.0
C1693 C 0.37535 0.191 0.44944 0.0
C1694 C 0.47209 0.23643 0.38187 0.0
C1695 C 0.33748 0.19043 0.39494 0.0
C1696 C 0.41233 0.26249 0.29645 0.0
C1697 C 0.40721 0.23619 0.26978 0.0
C1698 C 0.41034 0.25514 0.33532 0.0
C1699 C 0.40321 0.22074 0.34776 0.0
C1700 C 0.39686 0.19379 0.32091 0.0
C1701 C 0.39882 0.20179 0.28235 0.0
C1702 C 0.41672 0.28442 0.36307 0.0
C1703 C 0.38923 0.15681 0.33289 0.0
H1704 H 0.46475 0.21898 0.45547 0.0
H1705 H 0.35123 0.17971 0.46663 0.0
H1706 H 0.46861 0.21821 0.35805 0.0
H1707 H 0.47793 0.26263 0.36966 0.0
H1708 H 0.49572 0.2407 0.39879 0.0
H1709 H 0.31568 0.17955 0.41638 0.0
H1710 H 0.33966 0.21526 0.3827 0.0
H1711 H 0.3297 0.17055 0.37176 0.0
H1712 H 0.41834 0.28897 0.28699 0.0
H1713 H 0.39465 0.1812 0.26202 0.0
H1714 H 0.44071 0.29109 0.38058 0.0
H1715 H 0.39337 0.27485 0.38241 0.0
H1716 H 0.42102 0.30938 0.34892 0.0
H1717 H 0.41311 0.15903 0.3476 0.0
H1718 H 0.38268 0.13819 0.30862 0.0
H1719 H 0.36642 0.14479 0.35305 0.0
C1720 C 0.80359 0.22769 0.44397 0.0
C1721 C 0.81969 0.21234 0.46591 0.0
C1722 C 0.79602 0.21912 0.40565 0.0
C1723 C 0.80462 0.19446 0.38867 0.0
C1724 C 0.82106 0.17898 0.41055 0.0
C1725 C 0.82851 0.18819 0.44887 0.0
C1726 C 0.77877 0.23651 0.3833 0.0
C1727 C 0.83068 0.15262 0.39351 0.0
C1728 C 0.75596 0.15259 0.29642 0.0
C1729 C 0.78169 0.17476 0.26975 0.0
C1730 C 0.76345 0.15783 0.33527 0.0
C1731 C 0.79738 0.18601 0.3477 0.0
C1732 C 0.82377 0.20772 0.32084 0.0
C1733 C 0.81566 0.20175 0.28229 0.0
C1734 C 0.73481 0.13373 0.36303 0.0
C1735 C 0.86022 0.23812 0.3328 0.0
H1736 H 0.79665 0.24636 0.4568 0.0
H1737 H 0.84088 0.1761 0.46557 0.0
H1738 H 0.79649 0.25206 0.35946 0.0
H1739 H 0.75287 0.21547 0.37113 0.0
H1740 H 0.77354 0.25494 0.40072 0.0
H1741 H 0.84267 0.14241 0.41447 0.0
H1742 H 0.80629 0.12937 0.38132 0.0
H1743 H 0.85017 0.16568 0.37017 0.0
H1744 H 0.72983 0.13136 0.28696 0.0
H1745 H 0.8358 0.21898 0.26195 0.0
H1746 H 0.72732 0.15006 0.38113 0.0
H1747 H 0.74543 0.12049 0.38179 0.0
H1748 H 0.71013 0.11259 0.34887 0.0
H1749 H 0.85688 0.25885 0.34807 0.0
H1750 H 0.87848 0.25117 0.30847 0.0
H1751 H 0.8733 0.22805 0.35247 0.0
loop_
_geom_bond_atom_site_label_1
_geom_bond_atom_site_label_2
_geom_bond_distance
_geom_bond_site_symmetry_2
_ccdc_geom_bond_type
Zn0 N4 2.020 . S
Zn0 O8 2.019 . S
Zn0 N10 2.119 . S
Zn0 O18 1.975 . S
C1 N2 1.334 . S
C1 N5 1.336 . S
N2 C1 1.334 . S
N2 C3 1.334 . S
C3 N2 1.334 . S
C3 N4 1.336 . S
N4 Zn0 2.020 . S
N4 C3 1.336 . S
N4 N5 1.354 . S
N5 C1 1.336 . S
N5 N4 1.354 . S
N5 Zn9 2.020 . S
C6 O7 1.244 . S
C6 O30 1.257 . S
O7 C6 1.244 . S
O8 Zn0 2.019 . S
O8 C28 1.257 . S
Zn9 N5 2.020 . S
Zn9 O16 1.975 . S
Zn9 N25 2.119 . S
Zn9 O30 2.019 . S
N10 Zn0 2.119 . S
N10 C12 1.334 . S
N10 C13 1.328 . S
C11 C12 1.391 . S
C11 N14 1.329 . S
C11 H32 0.930 . S
C12 N10 1.334 . S
C12 C11 1.391 . S
C12 H19 0.930 . S
C13 N10 1.328 . S
C13 C15 1.392 . S
C13 H20 0.930 . S
N14 C11 1.329 . S
N14 C15 1.331 . S
C15 C13 1.392 . S
C15 N14 1.331 . S
O16 Zn9 1.975 . S
O16 C17 1.252 . S
C17 O16 1.252 . S
C17 O18 1.252 . S
O18 Zn0 1.975 . S
O18 C17 1.252 . S
H19 C12 0.930 . S
H20 C13 0.930 . S
C21 C22 1.392 . S
C21 N25 1.328 . S
C21 H27 0.930 . S
C22 C21 1.392 . S
C22 N26 1.331 . S
C23 C24 1.391 . S
C23 N26 1.329 . S
C23 H33 0.930 . S
C24 C23 1.391 . S
C24 N25 1.334 . S
C24 H31 0.930 . S
N25 Zn9 2.119 . S
N25 C21 1.328 . S
N25 C24 1.334 . S
N26 C22 1.331 . S
N26 C23 1.329 . S
H27 C21 0.930 . S
C28 O8 1.257 . S
C28 O29 1.244 . S
O29 C28 1.244 . S
O30 C6 1.257 . S
O30 Zn9 2.019 . S
H31 C24 0.930 . S
H32 C11 0.930 . S
H33 C23 0.930 . S
Zn34 N38 2.020 . S
Zn34 O42 2.019 . S
Zn34 N44 2.119 . S
Zn34 O52 1.975 . S
C35 N36 1.334 . S
C35 N39 1.336 . S
N36 C35 1.334 . S
N36 C37 1.334 . S
C37 N36 1.334 . S
C37 N38 1.336 . S
N38 Zn34 2.020 . S
N38 C37 1.336 . S
N38 N39 1.354 . S
N39 C35 1.336 . S
N39 N38 1.354 . S
N39 Zn43 2.020 . S
C40 O41 1.244 . S
C40 O64 1.257 . S
O41 C40 1.244 . S
O42 Zn34 2.019 . S
O42 C62 1.257 . S
Zn43 N39 2.020 . S
Zn43 O50 1.975 . S
Zn43 N59 2.119 . S
Zn43 O64 2.019 . S
N44 Zn34 2.119 . S
N44 C46 1.334 . S
N44 C47 1.328 . S
C45 C46 1.391 . S
C45 N48 1.329 . S
C45 H66 0.930 . S
C46 N44 1.334 . S
C46 C45 1.391 . S
C46 H53 0.930 . S
C47 N44 1.328 . S
C47 C49 1.392 . S
C47 H54 0.930 . S
N48 C45 1.329 . S
N48 C49 1.331 . S
C49 C47 1.392 . S
C49 N48 1.331 . S
O50 Zn43 1.975 . S
O50 C51 1.252 . S
C51 O50 1.252 . S
C51 O52 1.252 . S
O52 Zn34 1.975 . S
O52 C51 1.252 . S
H53 C46 0.930 . S
H54 C47 0.930 . S
C55 C56 1.392 . S
C55 N59 1.328 . S
C55 H61 0.930 . S
C56 C55 1.392 . S
C56 N60 1.331 . S
C57 C58 1.391 . S
C57 N60 1.329 . S
C57 H67 0.930 . S
C58 C57 1.391 . S
C58 N59 1.334 . S
C58 H65 0.930 . S
N59 Zn43 2.119 . S
N59 C55 1.328 . S
N59 C58 1.334 . S
N60 C56 1.331 . S
N60 C57 1.329 . S
H61 C55 0.930 . S
C62 O42 1.257 . S
C62 O63 1.244 . S
O63 C62 1.244 . S
O64 C40 1.257 . S
O64 Zn43 2.019 . S
H65 C58 0.930 . S
H66 C45 0.930 . S
H67 C57 0.930 . S
Zn68 N72 2.020 . S
Zn68 O76 2.019 . S
Zn68 N78 2.119 . S
Zn68 O86 1.975 . S
C69 N70 1.334 . S
C69 N73 1.336 . S
N70 C69 1.334 . S
N70 C71 1.334 . S
C71 N70 1.334 . S
C71 N72 1.336 . S
N72 Zn68 2.020 . S
N72 C71 1.336 . S
N72 N73 1.354 . S
N73 C69 1.336 . S
N73 N72 1.354 . S
N73 Zn77 2.020 . S
C74 O75 1.244 . S
C74 O98 1.257 . S
O75 C74 1.244 . S
O76 Zn68 2.019 . S
O76 C96 1.257 . S
Zn77 N73 2.020 . S
Zn77 O84 1.975 . S
Zn77 N93 2.119 . S
Zn77 O98 2.019 . S
N78 Zn68 2.119 . S
N78 C80 1.334 . S
N78 C81 1.328 . S
C79 C80 1.391 . S
C79 N82 1.329 . S
C79 H100 0.930 . S
C80 N78 1.334 . S
C80 C79 1.391 . S
C80 H87 0.930 . S
C81 N78 1.328 . S
C81 C83 1.392 . S
C81 H88 0.930 . S
N82 C79 1.329 . S
N82 C83 1.331 . S
C83 C81 1.392 . S
C83 N82 1.331 . S
O84 Zn77 1.975 . S
O84 C85 1.252 . S
C85 O84 1.252 . S
C85 O86 1.252 . S
O86 Zn68 1.975 . S
O86 C85 1.252 . S
H87 C80 0.930 . S
H88 C81 0.930 . S
C89 C90 1.392 . S
C89 N93 1.328 . S
C89 H95 0.930 . S
C90 C89 1.392 . S
C90 N94 1.331 . S
C91 C92 1.391 . S
C91 N94 1.329 . S
C91 H101 0.930 . S
C92 C91 1.391 . S
C92 N93 1.334 . S
C92 H99 0.930 . S
N93 Zn77 2.119 . S
N93 C89 1.328 . S
N93 C92 1.334 . S
N94 C90 1.331 . S
N94 C91 1.329 . S
H95 C89 0.930 . S
C96 O76 1.257 . S
C96 O97 1.244 . S
O97 C96 1.244 . S
O98 C74 1.257 . S
O98 Zn77 2.019 . S
H99 C92 0.930 . S
H100 C79 0.930 . S
H101 C91 0.930 . S
Zn102 N106 2.020 . S
Zn102 O110 2.019 . S
Zn102 N112 2.119 . S
Zn102 O120 1.975 . S
C103 N104 1.334 . S
C103 N107 1.336 . S
N104 C103 1.334 . S
N104 C105 1.334 . S
C105 N104 1.334 . S
C105 N106 1.336 . S
N106 Zn102 2.020 . S
N106 C105 1.336 . S
N106 N107 1.354 . S
N107 C103 1.336 . S
N107 N106 1.354 . S
N107 Zn111 2.020 . S
C108 O109 1.244 . S
C108 O132 1.257 . S
O109 C108 1.244 . S
O110 Zn102 2.019 . S
O110 C130 1.257 . S
Zn111 N107 2.020 . S
Zn111 O118 1.975 . S
Zn111 N127 2.119 . S
Zn111 O132 2.019 . S
N112 Zn102 2.119 . S
N112 C114 1.334 . S
N112 C115 1.328 . S
C113 C114 1.391 . S
C113 N116 1.329 . S
C113 H134 0.930 . S
C114 N112 1.334 . S
C114 C113 1.391 . S
C114 H121 0.930 . S
C115 N112 1.328 . S
C115 C117 1.392 . S
C115 H122 0.930 . S
N116 C113 1.329 . S
N116 C117 1.331 . S
C117 C115 1.392 . S
C117 N116 1.331 . S
O118 Zn111 1.975 . S
O118 C119 1.252 . S
C119 O118 1.252 . S
C119 O120 1.252 . S
O120 Zn102 1.975 . S
O120 C119 1.252 . S
H121 C114 0.930 . S
H122 C115 0.930 . S
C123 C124 1.392 . S
C123 N127 1.328 . S
C123 H129 0.930 . S
C124 C123 1.392 . S
C124 N128 1.331 . S
C125 C126 1.391 . S
C125 N128 1.329 . S
C125 H135 0.930 . S
C126 C125 1.391 . S
C126 N127 1.334 . S
C126 H133 0.930 . S
N127 Zn111 2.119 . S
N127 C123 1.328 . S
N127 C126 1.334 . S
N128 C124 1.331 . S
N128 C125 1.329 . S
H129 C123 0.930 . S
C130 O110 1.257 . S
C130 O131 1.244 . S
O131 C130 1.244 . S
O132 C108 1.257 . S
O132 Zn111 2.019 . S
H133 C126 0.930 . S
H134 C113 0.930 . S
H135 C125 0.930 . S
Zn136 N140 2.020 . S
Zn136 O144 2.019 . S
Zn136 N146 2.119 . S
Zn136 O154 1.975 . S
C137 N138 1.334 . S
C137 N141 1.336 . S
N138 C137 1.334 . S
N138 C139 1.334 . S
C139 N138 1.334 . S
C139 N140 1.336 . S
N140 Zn136 2.020 . S
N140 C139 1.336 . S
N140 N141 1.354 . S
N141 C137 1.336 . S
N141 N140 1.354 . S
N141 Zn145 2.020 . S
C142 O143 1.244 . S
C142 O166 1.257 . S
O143 C142 1.244 . S
O144 Zn136 2.019 . S
O144 C164 1.257 . S
Zn145 N141 2.020 . S
Zn145 O152 1.975 . S
Zn145 N161 2.119 . S
Zn145 O166 2.019 . S
N146 Zn136 2.119 . S
N146 C148 1.334 . S
N146 C149 1.328 . S
C147 C148 1.391 . S
C147 N150 1.329 . S
C147 H168 0.930 . S
C148 N146 1.334 . S
C148 C147 1.391 . S
C148 H155 0.930 . S
C149 N146 1.328 . S
C149 C151 1.392 . S
C149 H156 0.930 . S
N150 C147 1.329 . S
N150 C151 1.331 . S
C151 C149 1.392 . S
C151 N150 1.331 . S
O152 Zn145 1.975 . S
O152 C153 1.252 . S
C153 O152 1.252 . S
C153 O154 1.252 . S
O154 Zn136 1.975 . S
O154 C153 1.252 . S
H155 C148 0.930 . S
H156 C149 0.930 . S
C157 C158 1.392 . S
C157 N161 1.328 . S
C157 H163 0.930 . S
C158 C157 1.392 . S
C158 N162 1.331 . S
C159 C160 1.391 . S
C159 N162 1.329 . S
C159 H169 0.930 . S
C160 C159 1.391 . S
C160 N161 1.334 . S
C160 H167 0.930 . S
N161 Zn145 2.119 . S
N161 C157 1.328 . S
N161 C160 1.334 . S
N162 C158 1.331 . S
N162 C159 1.329 . S
H163 C157 0.930 . S
C164 O144 1.257 . S
C164 O165 1.244 . S
O165 C164 1.244 . S
O166 C142 1.257 . S
O166 Zn145 2.019 . S
H167 C160 0.930 . S
H168 C147 0.930 . S
H169 C159 0.930 . S
Zn170 N174 2.020 . S
Zn170 O178 2.019 . S
Zn170 N180 2.119 . S
Zn170 O188 1.975 . S
C171 N172 1.334 . S
C171 N175 1.336 . S
N172 C171 1.334 . S
N172 C173 1.334 . S
C173 N172 1.334 . S
C173 N174 1.336 . S
N174 Zn170 2.020 . S
N174 C173 1.336 . S
N174 N175 1.354 . S
N175 C171 1.336 . S
N175 N174 1.354 . S
N175 Zn179 2.020 . S
C176 O177 1.244 . S
C176 O200 1.257 . S
O177 C176 1.244 . S
O178 Zn170 2.019 . S
O178 C198 1.257 . S
Zn179 N175 2.020 . S
Zn179 O186 1.975 . S
Zn179 N195 2.119 . S
Zn179 O200 2.019 . S
N180 Zn170 2.119 . S
N180 C182 1.334 . S
N180 C183 1.328 . S
C181 C182 1.391 . S
C181 N184 1.329 . S
C181 H202 0.930 . S
C182 N180 1.334 . S
C182 C181 1.391 . S
C182 H189 0.930 . S
C183 N180 1.328 . S
C183 C185 1.392 . S
C183 H190 0.930 . S
N184 C181 1.329 . S
N184 C185 1.331 . S
C185 C183 1.392 . S
C185 N184 1.331 . S
O186 Zn179 1.975 . S
O186 C187 1.252 . S
C187 O186 1.252 . S
C187 O188 1.252 . S
O188 Zn170 1.975 . S
O188 C187 1.252 . S
H189 C182 0.930 . S
H190 C183 0.930 . S
C191 C192 1.392 . S
C191 N195 1.328 . S
C191 H197 0.930 . S
C192 C191 1.392 . S
C192 N196 1.331 . S
C193 C194 1.391 . S
C193 N196 1.329 . S
C193 H203 0.930 . S
C194 C193 1.391 . S
C194 N195 1.334 . S
C194 H201 0.930 . S
N195 Zn179 2.119 . S
N195 C191 1.328 . S
N195 C194 1.334 . S
N196 C192 1.331 . S
N196 C193 1.329 . S
H197 C191 0.930 . S
C198 O178 1.257 . S
C198 O199 1.244 . S
O199 C198 1.244 . S
O200 C176 1.257 . S
O200 Zn179 2.019 . S
H201 C194 0.930 . S
H202 C181 0.930 . S
H203 C193 0.930 . S
Zn204 N208 2.020 . S
Zn204 O212 2.019 . S
Zn204 N214 2.119 . S
Zn204 O222 1.975 . S
C205 N206 1.334 . S
C205 N209 1.336 . S
N206 C205 1.334 . S
N206 C207 1.334 . S
C207 N206 1.334 . S
C207 N208 1.336 . S
N208 Zn204 2.020 . S
N208 C207 1.336 . S
N208 N209 1.354 . S
N209 C205 1.336 . S
N209 N208 1.354 . S
N209 Zn213 2.020 . S
C210 O211 1.244 . S
C210 O234 1.257 . S
O211 C210 1.244 . S
O212 Zn204 2.019 . S
O212 C232 1.257 . S
Zn213 N209 2.020 . S
Zn213 O220 1.975 . S
Zn213 N229 2.119 . S
Zn213 O234 2.019 . S
N214 Zn204 2.119 . S
N214 C216 1.334 . S
N214 C217 1.328 . S
C215 C216 1.391 . S
C215 N218 1.329 . S
C215 H236 0.930 . S
C216 N214 1.334 . S
C216 C215 1.391 . S
C216 H223 0.930 . S
C217 N214 1.328 . S
C217 C219 1.392 . S
C217 H224 0.930 . S
N218 C215 1.329 . S
N218 C219 1.331 . S
C219 C217 1.392 . S
C219 N218 1.331 . S
O220 Zn213 1.975 . S
O220 C221 1.252 . S
C221 O220 1.252 . S
C221 O222 1.252 . S
O222 Zn204 1.975 . S
O222 C221 1.252 . S
H223 C216 0.930 . S
H224 C217 0.930 . S
C225 C226 1.392 . S
C225 N229 1.328 . S
C225 H231 0.930 . S
C226 C225 1.392 . S
C226 N230 1.331 . S
C227 C228 1.391 . S
C227 N230 1.329 . S
C227 H237 0.930 . S
C228 C227 1.391 . S
C228 N229 1.334 . S
C228 H235 0.930 . S
N229 Zn213 2.119 . S
N229 C225 1.328 . S
N229 C228 1.334 . S
N230 C226 1.331 . S
N230 C227 1.329 . S
H231 C225 0.930 . S
C232 O212 1.257 . S
C232 O233 1.244 . S
O233 C232 1.244 . S
O234 C210 1.257 . S
O234 Zn213 2.019 . S
H235 C228 0.930 . S
H236 C215 0.930 . S
H237 C227 0.930 . S
Zn238 N242 2.020 . S
Zn238 O246 2.019 . S
Zn238 N248 2.119 . S
Zn238 O256 1.975 . S
C239 N240 1.334 . S
C239 N243 1.336 . S
N240 C239 1.334 . S
N240 C241 1.334 . S
C241 N240 1.334 . S
C241 N242 1.336 . S
N242 Zn238 2.020 . S
N242 C241 1.336 . S
N242 N243 1.354 . S
N243 C239 1.336 . S
N243 N242 1.354 . S
N243 Zn247 2.020 . S
C244 O245 1.244 . S
C244 O268 1.257 . S
O245 C244 1.244 . S
O246 Zn238 2.019 . S
O246 C266 1.257 . S
Zn247 N243 2.020 . S
Zn247 O254 1.975 . S
Zn247 N263 2.119 . S
Zn247 O268 2.019 . S
N248 Zn238 2.119 . S
N248 C250 1.334 . S
N248 C251 1.328 . S
C249 C250 1.391 . S
C249 N252 1.329 . S
C249 H270 0.930 . S
C250 N248 1.334 . S
C250 C249 1.391 . S
C250 H257 0.930 . S
C251 N248 1.328 . S
C251 C253 1.392 . S
C251 H258 0.930 . S
N252 C249 1.329 . S
N252 C253 1.331 . S
C253 C251 1.392 . S
C253 N252 1.331 . S
O254 Zn247 1.975 . S
O254 C255 1.252 . S
C255 O254 1.252 . S
C255 O256 1.252 . S
O256 Zn238 1.975 . S
O256 C255 1.252 . S
H257 C250 0.930 . S
H258 C251 0.930 . S
C259 C260 1.392 . S
C259 N263 1.328 . S
C259 H265 0.930 . S
C260 C259 1.392 . S
C260 N264 1.331 . S
C261 C262 1.391 . S
C261 N264 1.329 . S
C261 H271 0.930 . S
C262 C261 1.391 . S
C262 N263 1.334 . S
C262 H269 0.930 . S
N263 Zn247 2.119 . S
N263 C259 1.328 . S
N263 C262 1.334 . S
N264 C260 1.331 . S
N264 C261 1.329 . S
H265 C259 0.930 . S
C266 O246 1.257 . S
C266 O267 1.244 . S
O267 C266 1.244 . S
O268 C244 1.257 . S
O268 Zn247 2.019 . S
H269 C262 0.930 . S
H270 C249 0.930 . S
H271 C261 0.930 . S
Zn272 N276 2.020 . S
Zn272 O280 2.019 . S
Zn272 N282 2.119 . S
Zn272 O290 1.975 . S
C273 N274 1.334 . S
C273 N277 1.336 . S
N274 C273 1.334 . S
N274 C275 1.334 . S
C275 N274 1.334 . S
C275 N276 1.336 . S
N276 Zn272 2.020 . S
N276 C275 1.336 . S
N276 N277 1.354 . S
N277 C273 1.336 . S
N277 N276 1.354 . S
N277 Zn281 2.020 . S
C278 O279 1.244 . S
C278 O302 1.257 . S
O279 C278 1.244 . S
O280 Zn272 2.019 . S
O280 C300 1.257 . S
Zn281 N277 2.020 . S
Zn281 O288 1.975 . S
Zn281 N297 2.119 . S
Zn281 O302 2.019 . S
N282 Zn272 2.119 . S
N282 C284 1.334 . S
N282 C285 1.328 . S
C283 C284 1.391 . S
C283 N286 1.329 . S
C283 H304 0.930 . S
C284 N282 1.334 . S
C284 C283 1.391 . S
C284 H291 0.930 . S
C285 N282 1.328 . S
C285 C287 1.392 . S
C285 H292 0.930 . S
N286 C283 1.329 . S
N286 C287 1.331 . S
C287 C285 1.392 . S
C287 N286 1.331 . S
O288 Zn281 1.975 . S
O288 C289 1.252 . S
C289 O288 1.252 . S
C289 O290 1.252 . S
O290 Zn272 1.975 . S
O290 C289 1.252 . S
H291 C284 0.930 . S
H292 C285 0.930 . S
C293 C294 1.392 . S
C293 N297 1.328 . S
C293 H299 0.930 . S
C294 C293 1.392 . S
C294 N298 1.331 . S
C295 C296 1.391 . S
C295 N298 1.329 . S
C295 H305 0.930 . S
C296 C295 1.391 . S
C296 N297 1.334 . S
C296 H303 0.930 . S
N297 Zn281 2.119 . S
N297 C293 1.328 . S
N297 C296 1.334 . S
N298 C294 1.331 . S
N298 C295 1.329 . S
H299 C293 0.930 . S
C300 O280 1.257 . S
C300 O301 1.244 . S
O301 C300 1.244 . S
O302 C278 1.257 . S
O302 Zn281 2.019 . S
H303 C296 0.930 . S
H304 C283 0.930 . S
H305 C295 0.930 . S
Zn306 N310 2.020 . S
Zn306 O314 2.019 . S
Zn306 N316 2.119 . S
Zn306 O324 1.975 . S
C307 N308 1.334 . S
C307 N311 1.336 . S
N308 C307 1.334 . S
N308 C309 1.334 . S
C309 N308 1.334 . S
C309 N310 1.336 . S
N310 Zn306 2.020 . S
N310 C309 1.336 . S
N310 N311 1.354 . S
N311 C307 1.336 . S
N311 N310 1.354 . S
N311 Zn315 2.020 . S
C312 O313 1.244 . S
C312 O336 1.257 . S
O313 C312 1.244 . S
O314 Zn306 2.019 . S
O314 C334 1.257 . S
Zn315 N311 2.020 . S
Zn315 O322 1.975 . S
Zn315 N331 2.119 . S
Zn315 O336 2.019 . S
N316 Zn306 2.119 . S
N316 C318 1.334 . S
N316 C319 1.328 . S
C317 C318 1.391 . S
C317 N320 1.329 . S
C317 H338 0.930 . S
C318 N316 1.334 . S
C318 C317 1.391 . S
C318 H325 0.930 . S
C319 N316 1.328 . S
C319 C321 1.392 . S
C319 H326 0.930 . S
N320 C317 1.329 . S
N320 C321 1.331 . S
C321 C319 1.392 . S
C321 N320 1.331 . S
O322 Zn315 1.975 . S
O322 C323 1.252 . S
C323 O322 1.252 . S
C323 O324 1.252 . S
O324 Zn306 1.975 . S
O324 C323 1.252 . S
H325 C318 0.930 . S
H326 C319 0.930 . S
C327 C328 1.392 . S
C327 N331 1.328 . S
C327 H333 0.930 . S
C328 C327 1.392 . S
C328 N332 1.331 . S
C329 C330 1.391 . S
C329 N332 1.329 . S
C329 H339 0.930 . S
C330 C329 1.391 . S
C330 N331 1.334 . S
C330 H337 0.930 . S
N331 Zn315 2.119 . S
N331 C327 1.328 . S
N331 C330 1.334 . S
N332 C328 1.331 . S
N332 C329 1.329 . S
H333 C327 0.930 . S
C334 O314 1.257 . S
C334 O335 1.244 . S
O335 C334 1.244 . S
O336 C312 1.257 . S
O336 Zn315 2.019 . S
H337 C330 0.930 . S
H338 C317 0.930 . S
H339 C329 0.930 . S
Zn340 N344 2.020 . S
Zn340 O348 2.019 . S
Zn340 N350 2.119 . S
Zn340 O358 1.975 . S
C341 N342 1.334 . S
C341 N345 1.336 . S
N342 C341 1.334 . S
N342 C343 1.334 . S
C343 N342 1.334 . S
C343 N344 1.336 . S
N344 Zn340 2.020 . S
N344 C343 1.336 . S
N344 N345 1.354 . S
N345 C341 1.336 . S
N345 N344 1.354 . S
N345 Zn349 2.020 . S
C346 O347 1.244 . S
C346 O370 1.257 . S
O347 C346 1.244 . S
O348 Zn340 2.019 . S
O348 C368 1.257 . S
Zn349 N345 2.020 . S
Zn349 O356 1.975 . S
Zn349 N365 2.119 . S
Zn349 O370 2.019 . S
N350 Zn340 2.119 . S
N350 C352 1.334 . S
N350 C353 1.328 . S
C351 C352 1.391 . S
C351 N354 1.329 . S
C351 H372 0.930 . S
C352 N350 1.334 . S
C352 C351 1.391 . S
C352 H359 0.930 . S
C353 N350 1.328 . S
C353 C355 1.392 . S
C353 H360 0.930 . S
N354 C351 1.329 . S
N354 C355 1.331 . S
C355 C353 1.392 . S
C355 N354 1.331 . S
O356 Zn349 1.975 . S
O356 C357 1.252 . S
C357 O356 1.252 . S
C357 O358 1.252 . S
O358 Zn340 1.975 . S
O358 C357 1.252 . S
H359 C352 0.930 . S
H360 C353 0.930 . S
C361 C362 1.392 . S
C361 N365 1.328 . S
C361 H367 0.930 . S
C362 C361 1.392 . S
C362 N366 1.331 . S
C363 C364 1.391 . S
C363 N366 1.329 . S
C363 H373 0.930 . S
C364 C363 1.391 . S
C364 N365 1.334 . S
C364 H371 0.930 . S
N365 Zn349 2.119 . S
N365 C361 1.328 . S
N365 C364 1.334 . S
N366 C362 1.331 . S
N366 C363 1.329 . S
H367 C361 0.930 . S
C368 O348 1.257 . S
C368 O369 1.244 . S
O369 C368 1.244 . S
O370 C346 1.257 . S
O370 Zn349 2.019 . S
H371 C364 0.930 . S
H372 C351 0.930 . S
H373 C363 0.930 . S
Zn374 N378 2.020 . S
Zn374 O382 2.019 . S
Zn374 N384 2.119 . S
Zn374 O392 1.975 . S
C375 N376 1.334 . S
C375 N379 1.336 . S
N376 C375 1.334 . S
N376 C377 1.334 . S
C377 N376 1.334 . S
C377 N378 1.336 . S
N378 Zn374 2.020 . S
N378 C377 1.336 . S
N378 N379 1.354 . S
N379 C375 1.336 . S
N379 N378 1.354 . S
N379 Zn383 2.020 . S
C380 O381 1.244 . S
C380 O404 1.257 . S
O381 C380 1.244 . S
O382 Zn374 2.019 . S
O382 C402 1.257 . S
Zn383 N379 2.020 . S
Zn383 O390 1.975 . S
Zn383 N399 2.119 . S
Zn383 O404 2.019 . S
N384 Zn374 2.119 . S
N384 C386 1.334 . S
N384 C387 1.328 . S
C385 C386 1.391 . S
C385 N388 1.329 . S
C385 H406 0.930 . S
C386 N384 1.334 . S
C386 C385 1.391 . S
C386 H393 0.930 . S
C387 N384 1.328 . S
C387 C389 1.392 . S
C387 H394 0.930 . S
N388 C385 1.329 . S
N388 C389 1.331 . S
C389 C387 1.392 . S
C389 N388 1.331 . S
O390 Zn383 1.975 . S
O390 C391 1.252 . S
C391 O390 1.252 . S
C391 O392 1.252 . S
O392 Zn374 1.975 . S
O392 C391 1.252 . S
H393 C386 0.930 . S
H394 C387 0.930 . S
C395 C396 1.392 . S
C395 N399 1.328 . S
C395 H401 0.930 . S
C396 C395 1.392 . S
C396 N400 1.331 . S
C397 C398 1.391 . S
C397 N400 1.329 . S
C397 H407 0.930 . S
C398 C397 1.391 . S
C398 N399 1.334 . S
C398 H405 0.930 . S
N399 Zn383 2.119 . S
N399 C395 1.328 . S
N399 C398 1.334 . S
N400 C396 1.331 . S
N400 C397 1.329 . S
H401 C395 0.930 . S
C402 O382 1.257 . S
C402 O403 1.244 . S
O403 C402 1.244 . S
O404 C380 1.257 . S
O404 Zn383 2.019 . S
H405 C398 0.930 . S
H406 C385 0.930 . S
H407 C397 0.930 . S
C408 C409 1.391 . S
C408 C410 1.394 . S
C408 H424 0.931 . S
C409 C408 1.391 . S
C409 C413 1.376 . S
C410 C408 1.394 . S
C410 C411 1.369 . S
C410 C414 1.531 1_556 S
C411 C410 1.369 . S
C411 C412 1.410 . S
C411 C419 1.503 1_556 S
C412 C411 1.410 . S
C412 C413 1.392 . S
C412 C415 1.511 1_565 S
C413 C409 1.376 . S
C413 C412 1.392 . S
C413 H425 0.929 . S
C414 C410 1.531 1_554 S
C414 H426 0.960 . S
C414 H427 0.962 . S
C414 H428 0.960 . S
C415 C412 1.511 1_545 S
C415 H429 0.961 . S
C415 H430 0.961 . S
C415 H431 0.961 1_545 S
C416 C417 1.370 . S
C416 C418 1.363 1_554 S
C416 H432 0.931 . S
C417 C416 1.370 . S
C417 C421 1.408 . S
C418 C416 1.363 1_556 S
C418 C419 1.370 1_546 S
C418 C422 1.524 . S
C419 C411 1.503 1_554 S
C419 C418 1.370 1_564 S
C419 C420 1.403 . S
C420 C419 1.403 . S
C420 C421 1.404 1_565 S
C420 C423 1.539 . S
C421 C417 1.408 . S
C421 C420 1.404 1_545 S
C421 H433 0.930 . S
C422 C418 1.524 . S
C422 H434 0.957 1_545 S
C422 H435 0.961 . S
C422 H436 0.961 . S
C423 C420 1.539 . S
C423 H437 0.958 . S
C423 H438 0.961 . S
C423 H439 0.960 . S
H424 C408 0.931 . S
H425 C413 0.929 . S
H426 C414 0.960 . S
H427 C414 0.962 . S
H428 C414 0.960 . S
H429 C415 0.961 . S
H430 C415 0.961 . S
H431 C415 0.961 1_565 S
H432 C416 0.931 . S
H433 C421 0.930 . S
H434 C422 0.957 1_565 S
H435 C422 0.961 . S
H436 C422 0.961 . S
H437 C423 0.958 . S
H438 C423 0.961 . S
H439 C423 0.960 . S
C440 C441 1.391 . S
C440 C442 1.394 1_655 S
C440 H456 0.931 . S
C441 C440 1.391 . S
C441 C445 1.376 . S
C442 C440 1.394 1_455 S
C442 C443 1.369 . S
C442 C446 1.531 . S
C443 C442 1.369 . S
C443 C444 1.410 1_455 S
C443 C451 1.503 1_554 S
C444 C443 1.410 1_655 S
C444 C445 1.392 . S
C444 C447 1.511 1_554 S
C445 C441 1.376 . S
C445 C444 1.392 . S
C445 H457 0.929 . S
C446 C442 1.531 . S
C446 H458 0.960 . S
C446 H459 0.962 . S
C446 H460 0.960 . S
C447 C444 1.511 1_556 S
C447 H461 0.961 . S
C447 H462 0.965 . S
C447 H463 0.961 1_655 S
C448 C449 1.370 . S
C448 C450 1.363 . S
C448 H464 0.931 . S
C449 C448 1.370 . S
C449 C453 1.408 . S
C450 C448 1.363 . S
C450 C451 1.370 . S
C450 C454 1.524 1_455 S
C451 C443 1.503 1_556 S
C451 C450 1.370 . S
C451 C452 1.403 . S
C452 C451 1.403 . S
C452 C453 1.404 . S
C452 C455 1.539 1_556 S
C453 C449 1.408 . S
C453 C452 1.404 . S
C453 H465 0.930 . S
C454 C450 1.524 1_655 S
C454 H466 0.956 . S
C454 H467 0.961 . S
C454 H468 0.961 . S
C455 C452 1.539 1_554 S
C455 H469 0.958 . S
C455 H470 0.961 . S
C455 H471 0.960 . S
H456 C440 0.931 . S
H457 C445 0.929 . S
H458 C446 0.960 . S
H459 C446 0.962 . S
H460 C446 0.960 . S
H461 C447 0.961 . S
H462 C447 0.965 . S
H463 C447 0.961 1_455 S
H464 C448 0.931 . S
H465 C453 0.930 . S
H466 C454 0.956 . S
H467 C454 0.961 . S
H468 C454 0.961 . S
H469 C455 0.958 . S
H470 C455 0.961 . S
H471 C455 0.960 . S
C472 C473 1.391 . S
C472 C474 1.394 . S
C472 H488 0.931 . S
C473 C472 1.391 . S
C473 C477 1.376 . S
C474 C472 1.394 . S
C474 C475 1.369 . S
C474 C478 1.531 . S
C475 C474 1.369 . S
C475 C476 1.410 1_554 S
C475 C483 1.503 1_554 S
C476 C475 1.410 1_556 S
C476 C477 1.392 1_556 S
C476 C479 1.511 . S
C477 C473 1.376 . S
C477 C476 1.392 1_554 S
C477 H489 0.929 . S
C478 C474 1.531 . S
C478 H490 0.960 . S
C478 H491 0.962 . S
C478 H492 0.960 . S
C479 C476 1.511 . S
C479 H493 0.961 . S
C479 H494 0.961 . S
C479 H495 0.961 . S
C480 C481 1.370 . S
C480 C482 1.363 . S
C480 H496 0.931 . S
C481 C480 1.370 . S
C481 C485 1.408 . S
C482 C480 1.363 . S
C482 C483 1.370 . S
C482 C486 1.524 . S
C483 C475 1.503 1_556 S
C483 C482 1.370 . S
C483 C484 1.403 . S
C484 C483 1.403 . S
C484 C485 1.404 . S
C484 C487 1.539 . S
C485 C481 1.408 . S
C485 C484 1.404 . S
C485 H497 0.930 . S
C486 C482 1.524 . S
C486 H498 0.956 1_556 S
C486 H499 0.961 . S
C486 H500 0.961 . S
C487 C484 1.539 . S
C487 H501 0.958 . S
C487 H502 0.961 . S
C487 H503 0.960 . S
H488 C472 0.931 . S
H489 C477 0.929 . S
H490 C478 0.960 . S
H491 C478 0.962 . S
H492 C478 0.960 . S
H493 C479 0.961 . S
H494 C479 0.961 . S
H495 C479 0.961 . S
H496 C480 0.931 . S
H497 C485 0.930 . S
H498 C486 0.956 1_554 S
H499 C486 0.961 . S
H500 C486 0.961 . S
H501 C487 0.958 . S
H502 C487 0.961 . S
H503 C487 0.960 . S
C504 C505 1.391 . S
C504 C506 1.394 1_455 S
C504 H520 0.931 . S
C505 C504 1.391 . S
C505 C509 1.376 . S
C506 C504 1.394 1_655 S
C506 C507 1.369 . S
C506 C510 1.531 . S
C507 C506 1.369 . S
C507 C508 1.410 1_655 S
C507 C515 1.503 . S
C508 C507 1.410 1_455 S
C508 C509 1.392 . S
C508 C511 1.511 . S
C509 C505 1.376 . S
C509 C508 1.392 . S
C509 H521 0.929 . S
C510 C506 1.531 . S
C510 H522 0.960 . S
C510 H523 0.962 . S
C510 H524 0.960 . S
C511 C508 1.511 . S
C511 H525 0.961 . S
C511 H526 0.961 . S
C511 H527 0.961 . S
C512 C513 1.370 . S
C512 C514 1.363 . S
C512 H528 0.931 . S
C513 C512 1.370 . S
C513 C517 1.408 . S
C514 C512 1.363 . S
C514 C515 1.370 . S
C514 C518 1.524 . S
C515 C507 1.503 . S
C515 C514 1.370 . S
C515 C516 1.403 . S
C516 C515 1.403 . S
C516 C517 1.404 . S
C516 C519 1.539 . S
C517 C513 1.408 . S
C517 C516 1.404 . S
C517 H529 0.930 . S
C518 C514 1.524 . S
C518 H530 0.956 . S
C518 H531 0.961 1_655 S
C518 H532 0.961 . S
C519 C516 1.539 . S
C519 H533 0.958 . S
C519 H534 0.961 . S
C519 H535 0.960 . S
H520 C504 0.931 . S
H521 C509 0.929 . S
H522 C510 0.960 . S
H523 C510 0.962 . S
H524 C510 0.960 . S
H525 C511 0.961 . S
H526 C511 0.961 . S
H527 C511 0.961 . S
H528 C512 0.931 . S
H529 C517 0.930 . S
H530 C518 0.956 . S
H531 C518 0.961 1_455 S
H532 C518 0.961 . S
H533 C519 0.958 . S
H534 C519 0.961 . S
H535 C519 0.960 . S
C536 C537 1.391 . S
C536 C538 1.394 . S
C536 H552 0.931 . S
C537 C536 1.391 . S
C537 C541 1.376 . S
C538 C536 1.394 . S
C538 C539 1.369 . S
C538 C542 1.531 . S
C539 C538 1.369 . S
C539 C540 1.410 . S
C539 C547 1.503 . S
C540 C539 1.410 . S
C540 C541 1.392 . S
C540 C543 1.511 . S
C541 C537 1.376 . S
C541 C540 1.392 . S
C541 H553 0.929 . S
C542 C538 1.531 . S
C542 H554 0.960 . S
C542 H555 0.962 . S
C542 H556 0.960 . S
C543 C540 1.511 . S
C543 H557 0.961 . S
C543 H558 0.961 . S
C543 H559 0.961 . S
C544 C545 1.370 . S
C544 C546 1.363 . S
C544 H560 0.931 . S
C545 C544 1.370 . S
C545 C549 1.408 . S
C546 C544 1.363 . S
C546 C547 1.370 . S
C546 C550 1.524 . S
C547 C539 1.503 . S
C547 C546 1.370 . S
C547 C548 1.403 . S
C548 C547 1.403 . S
C548 C549 1.404 . S
C548 C551 1.539 . S
C549 C545 1.408 . S
C549 C548 1.404 . S
C549 H561 0.930 . S
C550 C546 1.524 . S
C550 H562 0.956 . S
C550 H563 0.961 . S
C550 H564 0.961 . S
C551 C548 1.539 . S
C551 H565 0.958 . S
C551 H566 0.961 . S
C551 H567 0.960 . S
H552 C536 0.931 . S
H553 C541 0.929 . S
H554 C542 0.960 . S
H555 C542 0.962 . S
H556 C542 0.960 . S
H557 C543 0.961 . S
H558 C543 0.961 . S
H559 C543 0.961 . S
H560 C544 0.931 . S
H561 C549 0.930 . S
H562 C550 0.956 . S
H563 C550 0.961 . S
H564 C550 0.961 . S
H565 C551 0.958 . S
H566 C551 0.961 . S
H567 C551 0.960 . S
C568 C569 1.391 . S
C568 C570 1.394 . S
C568 H584 0.931 . S
C569 C568 1.391 . S
C569 C573 1.376 . S
C570 C568 1.394 . S
C570 C571 1.369 . S
C570 C574 1.531 . S
C571 C570 1.369 . S
C571 C572 1.410 . S
C571 C579 1.503 1_565 S
C572 C571 1.410 . S
C572 C573 1.392 . S
C572 C575 1.511 1_565 S
C573 C569 1.376 . S
C573 C572 1.392 . S
C573 H585 0.929 . S
C574 C570 1.531 . S
C574 H586 0.960 . S
C574 H587 0.962 . S
C574 H588 0.960 . S
C575 C572 1.511 1_545 S
C575 H589 0.961 . S
C575 H590 0.961 . S
C575 H591 0.961 . S
C576 C577 1.370 . S
C576 C578 1.363 . S
C576 H592 0.931 . S
C577 C576 1.370 . S
C577 C581 1.408 . S
C578 C576 1.363 . S
C578 C579 1.370 . S
C578 C582 1.524 . S
C579 C571 1.503 1_545 S
C579 C578 1.370 . S
C579 C580 1.403 . S
C580 C579 1.403 . S
C580 C581 1.404 . S
C580 C583 1.539 1_545 S
C581 C577 1.408 . S
C581 C580 1.404 . S
C581 H593 0.930 . S
C582 C578 1.524 . S
C582 H594 0.956 . S
C582 H595 0.961 . S
C582 H596 0.961 . S
C583 C580 1.539 1_565 S
C583 H597 0.958 . S
C583 H598 0.961 . S
C583 H599 0.960 . S
H584 C568 0.931 . S
H585 C573 0.929 . S
H586 C574 0.960 . S
H587 C574 0.962 . S
H588 C574 0.960 . S
H589 C575 0.961 . S
H590 C575 0.961 . S
H591 C575 0.961 . S
H592 C576 0.931 . S
H593 C581 0.930 . S
H594 C582 0.956 . S
H595 C582 0.961 . S
H596 C582 0.961 . S
H597 C583 0.958 . S
H598 C583 0.961 . S
H599 C583 0.960 . S
C600 C601 1.391 . S
C600 C602 1.394 1_556 S
C600 H616 0.931 . S
C601 C600 1.391 . S
C601 C605 1.376 . S
C602 C600 1.394 1_554 S
C602 C603 1.364 1_564 S
C602 C606 1.531 . S
C603 C602 1.364 1_546 S
C603 C604 1.427 . S
C603 C611 1.491 1_556 S
C604 C603 1.427 . S
C604 C605 1.392 1_545 S
C604 C607 1.511 . S
C605 C601 1.376 . S
C605 C604 1.392 1_565 S
C605 H617 0.929 . S
C606 C602 1.531 . S
C606 H618 0.960 . S
C606 H619 0.962 . S
C606 H620 0.960 . S
C607 C604 1.511 . S
C607 H621 0.961 . S
C607 H622 0.961 . S
C607 H623 0.961 . S
C608 C609 1.370 . S
C608 C610 1.363 . S
C608 H624 0.931 . S
C609 C608 1.370 . S
C609 C613 1.408 . S
C610 C608 1.363 . S
C610 C611 1.370 . S
C610 C614 1.524 . S
C611 C603 1.491 1_554 S
C611 C610 1.370 . S
C611 C612 1.403 . S
C612 C611 1.403 . S
C612 C613 1.404 . S
C612 C615 1.539 . S
C613 C609 1.408 . S
C613 C612 1.404 . S
C613 H625 0.930 . S
C614 C610 1.524 . S
C614 H626 0.965 . S
C614 H627 0.961 1_554 S
C614 H628 0.961 . S
C615 C612 1.539 . S
C615 H629 0.958 . S
C615 H630 0.961 . S
C615 H631 0.960 . S
H616 C600 0.931 . S
H617 C605 0.929 . S
H618 C606 0.960 . S
H619 C606 0.962 . S
H620 C606 0.960 . S
H621 C607 0.961 . S
H622 C607 0.961 . S
H623 C607 0.961 . S
H624 C608 0.931 . S
H625 C613 0.930 . S
H626 C614 0.965 . S
H627 C614 0.961 1_556 S
H628 C614 0.961 . S
H629 C615 0.958 . S
H630 C615 0.961 . S
H631 C615 0.960 . S
C632 C633 1.391 . S
C632 C634 1.408 . S
C632 H648 0.931 . S
C633 C632 1.391 . S
C633 C637 1.376 . S
C634 C632 1.408 . S
C634 C635 1.364 1_556 S
C634 C638 1.522 1_455 S
C635 C634 1.364 1_554 S
C635 C636 1.410 . S
C635 C643 1.503 1_455 S
C636 C635 1.410 . S
C636 C637 1.392 1_554 S
C636 C639 1.511 . S
C637 C633 1.376 . S
C637 C636 1.392 1_556 S
C637 H649 0.929 . S
C638 C634 1.522 1_655 S
C638 H650 0.960 . S
C638 H651 0.962 . S
C638 H652 0.960 . S
C639 C636 1.511 . S
C639 H653 0.961 . S
C639 H654 0.961 . S
C639 H655 0.961 . S
C640 C641 1.370 . S
C640 C642 1.363 . S
C640 H656 0.931 . S
C641 C640 1.370 . S
C641 C645 1.408 . S
C642 C640 1.363 . S
C642 C643 1.370 . S
C642 C646 1.524 1_554 S
C643 C635 1.503 1_655 S
C643 C642 1.370 . S
C643 C644 1.403 . S
C644 C643 1.403 . S
C644 C645 1.404 . S
C644 C647 1.539 1_655 S
C645 C641 1.408 . S
C645 C644 1.404 . S
C645 H657 0.930 . S
C646 C642 1.524 1_556 S
C646 H658 0.956 . S
C646 H659 0.961 . S
C646 H660 0.961 . S
C647 C644 1.539 1_455 S
C647 H661 0.970 1_455 S
C647 H662 0.961 . S
C647 H663 0.960 . S
H648 C632 0.931 . S
H649 C637 0.929 . S
H650 C638 0.960 . S
H651 C638 0.962 . S
H652 C638 0.960 . S
H653 C639 0.961 . S
H654 C639 0.961 . S
H655 C639 0.961 . S
H656 C640 0.931 . S
H657 C645 0.930 . S
H658 C646 0.956 . S
H659 C646 0.961 . S
H660 C646 0.961 . S
H661 C647 0.970 1_655 S
H662 C647 0.961 . S
H663 C647 0.960 . S
C664 C665 1.391 . S
C664 C666 1.394 . S
C664 H680 0.931 . S
C665 C664 1.391 . S
C665 C669 1.376 . S
C666 C664 1.394 . S
C666 C667 1.369 . S
C666 C670 1.531 . S
C667 C666 1.369 . S
C667 C668 1.410 . S
C667 C675 1.503 . S
C668 C667 1.410 . S
C668 C669 1.392 . S
C668 C671 1.511 . S
C669 C665 1.376 . S
C669 C668 1.392 . S
C669 H681 0.929 . S
C670 C666 1.531 . S
C670 H682 0.960 . S
C670 H683 0.962 1_554 S
C670 H684 0.960 . S
C671 C668 1.511 . S
C671 H685 0.961 . S
C671 H686 0.961 . S
C671 H687 0.961 . S
C672 C673 1.370 . S
C672 C674 1.363 . S
C672 H688 0.931 . S
C673 C672 1.370 . S
C673 C677 1.408 . S
C674 C672 1.363 . S
C674 C675 1.370 1_556 S
C674 C678 1.524 . S
C675 C667 1.503 . S
C675 C674 1.370 1_554 S
C675 C676 1.403 . S
C676 C675 1.403 . S
C676 C677 1.404 1_554 S
C676 C679 1.539 . S
C677 C673 1.408 . S
C677 C676 1.404 1_556 S
C677 H689 0.930 . S
C678 C674 1.524 . S
C678 H690 0.956 . S
C678 H691 0.961 . S
C678 H692 0.961 . S
C679 C676 1.539 . S
C679 H693 0.958 . S
C679 H694 0.961 . S
C679 H695 0.960 . S
H680 C664 0.931 . S
H681 C669 0.929 . S
H682 C670 0.960 . S
H683 C670 0.962 1_556 S
H684 C670 0.960 . S
H685 C671 0.961 . S
H686 C671 0.961 . S
H687 C671 0.961 . S
H688 C672 0.931 . S
H689 C677 0.930 . S
H690 C678 0.956 . S
H691 C678 0.961 . S
H692 C678 0.961 . S
H693 C679 0.958 . S
H694 C679 0.961 . S
H695 C679 0.960 . S
C696 C697 1.391 . S
C696 C698 1.394 1_655 S
C696 H712 0.931 . S
C697 C696 1.391 . S
C697 C701 1.376 . S
C698 C696 1.394 1_455 S
C698 C699 1.369 1_455 S
C698 C702 1.531 . S
C699 C698 1.369 1_655 S
C699 C700 1.410 . S
C699 C707 1.503 1_655 S
C700 C699 1.410 . S
C700 C701 1.392 . S
C700 C703 1.511 . S
C701 C697 1.376 . S
C701 C700 1.392 . S
C701 H713 0.929 . S
C702 C698 1.531 . S
C702 H714 0.960 . S
C702 H715 0.962 . S
C702 H716 0.960 . S
C703 C700 1.511 . S
C703 H717 0.961 . S
C703 H718 0.961 . S
C703 H719 0.961 . S
C704 C705 1.370 . S
C704 C706 1.363 . S
C704 H720 0.931 . S
C705 C704 1.370 . S
C705 C709 1.408 . S
C706 C704 1.363 . S
C706 C707 1.370 . S
C706 C710 1.524 . S
C707 C699 1.503 1_455 S
C707 C706 1.370 . S
C707 C708 1.403 . S
C708 C707 1.403 . S
C708 C709 1.404 . S
C708 C711 1.539 . S
C709 C705 1.408 . S
C709 C708 1.404 . S
C709 H721 0.930 . S
C710 C706 1.524 . S
C710 H722 0.956 . S
C710 H723 0.961 . S
C710 H724 0.961 . S
C711 C708 1.539 . S
C711 H725 0.958 . S
C711 H726 0.961 . S
C711 H727 0.960 1_455 S
H712 C696 0.931 . S
H713 C701 0.929 . S
H714 C702 0.960 . S
H715 C702 0.962 . S
H716 C702 0.960 . S
H717 C703 0.961 . S
H718 C703 0.961 . S
H719 C703 0.961 . S
H720 C704 0.931 . S
H721 C709 0.930 . S
H722 C710 0.956 . S
H723 C710 0.961 . S
H724 C710 0.961 . S
H725 C711 0.958 . S
H726 C711 0.961 . S
H727 C711 0.960 1_655 S
C728 C729 1.391 . S
C728 C730 1.394 . S
C728 H744 0.931 . S
C729 C728 1.391 . S
C729 C733 1.376 . S
C730 C728 1.394 . S
C730 C731 1.369 . S
C730 C734 1.531 . S
C731 C730 1.369 . S
C731 C732 1.410 . S
C731 C739 1.503 . S
C732 C731 1.410 . S
C732 C733 1.392 . S
C732 C735 1.511 . S
C733 C729 1.376 . S
C733 C732 1.392 . S
C733 H745 0.929 . S
C734 C730 1.531 . S
C734 H746 0.960 . S
C734 H747 0.962 . S
C734 H748 0.960 . S
C735 C732 1.511 . S
C735 H749 0.961 . S
C735 H750 0.961 . S
C735 H751 0.961 . S
C736 C737 1.370 . S
C736 C738 1.363 . S
C736 H752 0.931 . S
C737 C736 1.370 . S
C737 C741 1.408 . S
C738 C736 1.363 . S
C738 C739 1.370 . S
C738 C742 1.524 . S
C739 C731 1.503 . S
C739 C738 1.370 . S
C739 C740 1.403 . S
C740 C739 1.403 . S
C740 C741 1.404 . S
C740 C743 1.539 . S
C741 C737 1.408 . S
C741 C740 1.404 . S
C741 H753 0.930 . S
C742 C738 1.524 . S
C742 H754 0.956 . S
C742 H755 0.961 . S
C742 H756 0.961 . S
C743 C740 1.539 . S
C743 H757 0.958 . S
C743 H758 0.961 . S
C743 H759 0.960 . S
H744 C728 0.931 . S
H745 C733 0.929 . S
H746 C734 0.960 . S
H747 C734 0.962 . S
H748 C734 0.960 . S
H749 C735 0.961 . S
H750 C735 0.961 . S
H751 C735 0.961 . S
H752 C736 0.931 . S
H753 C741 0.930 . S
H754 C742 0.956 . S
H755 C742 0.961 . S
H756 C742 0.961 . S
H757 C743 0.958 . S
H758 C743 0.961 . S
H759 C743 0.960 . S
C760 C761 1.391 . S
C760 C762 1.394 . S
C760 H776 0.931 . S
C761 C760 1.391 . S
C761 C765 1.376 . S
C762 C760 1.394 . S
C762 C763 1.369 . S
C762 C766 1.531 1_565 S
C763 C762 1.369 . S
C763 C764 1.410 . S
C763 C771 1.503 . S
C764 C763 1.410 . S
C764 C765 1.392 . S
C764 C767 1.511 . S
C765 C761 1.376 . S
C765 C764 1.392 . S
C765 H777 0.929 . S
C766 C762 1.531 1_545 S
C766 H778 0.960 . S
C766 H779 0.962 . S
C766 H780 0.960 . S
C767 C764 1.511 . S
C767 H781 0.961 . S
C767 H782 0.961 . S
C767 H783 0.961 . S
C768 C769 1.370 . S
C768 C770 1.363 . S
C768 H784 0.931 . S
C769 C768 1.370 . S
C769 C773 1.408 . S
C770 C768 1.363 . S
C770 C771 1.370 1_545 S
C770 C774 1.524 1_545 S
C771 C763 1.503 . S
C771 C770 1.370 1_565 S
C771 C772 1.403 1_565 S
C772 C771 1.403 1_545 S
C772 C773 1.404 . S
C772 C775 1.545 1_545 S
C773 C769 1.408 . S
C773 C772 1.404 . S
C773 H785 0.930 . S
C774 C770 1.524 1_565 S
C774 H786 0.955 1_565 S
C774 H787 0.961 . S
C774 H788 0.961 1_565 S
C775 C772 1.545 1_565 S
C775 H789 0.934 1_565 S
C775 H790 0.951 1_565 S
C775 H791 0.990 . S
H776 C760 0.931 . S
H777 C765 0.929 . S
H778 C766 0.960 . S
H779 C766 0.962 . S
H780 C766 0.960 . S
H781 C767 0.961 . S
H782 C767 0.961 . S
H783 C767 0.961 . S
H784 C768 0.931 . S
H785 C773 0.930 . S
H786 C774 0.955 1_545 S
H787 C774 0.961 . S
H788 C774 0.961 1_545 S
H789 C775 0.934 1_545 S
H790 C775 0.951 1_545 S
H791 C775 0.990 . S
C792 C793 1.391 . S
C792 C794 1.394 . S
C792 H808 0.931 . S
C793 C792 1.391 . S
C793 C797 1.376 . S
C794 C792 1.394 . S
C794 C795 1.369 . S
C794 C798 1.531 . S
C795 C794 1.369 . S
C795 C796 1.410 . S
C795 C803 1.503 . S
C796 C795 1.410 . S
C796 C797 1.392 . S
C796 C799 1.511 . S
C797 C793 1.376 . S
C797 C796 1.392 . S
C797 H809 0.929 . S
C798 C794 1.531 . S
C798 H810 0.960 . S
C798 H811 0.962 . S
C798 H812 0.960 . S
C799 C796 1.511 . S
C799 H813 0.961 . S
C799 H814 0.961 . S
C799 H815 0.961 . S
C800 C801 1.370 . S
C800 C802 1.363 . S
C800 H816 0.931 . S
C801 C800 1.370 . S
C801 C805 1.408 . S
C802 C800 1.363 . S
C802 C803 1.370 . S
C802 C806 1.524 . S
C803 C795 1.503 . S
C803 C802 1.370 . S
C803 C804 1.403 . S
C804 C803 1.403 . S
C804 C805 1.404 . S
C804 C807 1.539 . S
C805 C801 1.408 . S
C805 C804 1.404 . S
C805 H817 0.930 . S
C806 C802 1.524 . S
C806 H818 0.956 . S
C806 H819 0.961 . S
C806 H820 0.961 . S
C807 C804 1.539 . S
C807 H821 0.958 . S
C807 H822 0.961 . S
C807 H823 0.960 . S
H808 C792 0.931 . S
H809 C797 0.929 . S
H810 C798 0.960 . S
H811 C798 0.962 . S
H812 C798 0.960 . S
H813 C799 0.961 . S
H814 C799 0.961 . S
H815 C799 0.961 . S
H816 C800 0.931 . S
H817 C805 0.930 . S
H818 C806 0.956 . S
H819 C806 0.961 . S
H820 C806 0.961 . S
H821 C807 0.958 . S
H822 C807 0.961 . S
H823 C807 0.960 . S
C824 C825 1.391 . S
C824 C826 1.394 . S
C824 H840 0.931 . S
C825 C824 1.391 . S
C825 C829 1.376 . S
C826 C824 1.394 . S
C826 C827 1.369 . S
C826 C830 1.531 . S
C827 C826 1.369 . S
C827 C828 1.410 . S
C827 C835 1.503 1_545 S
C828 C827 1.410 . S
C828 C829 1.392 . S
C828 C831 1.511 . S
C829 C825 1.376 . S
C829 C828 1.392 . S
C829 H841 0.929 . S
C830 C826 1.531 . S
C830 H842 0.960 . S
C830 H843 0.962 . S
C830 H844 0.960 . S
C831 C828 1.511 . S
C831 H845 0.961 . S
C831 H846 0.961 1_545 S
C831 H847 0.961 . S
C832 C833 1.370 . S
C832 C834 1.363 . S
C832 H848 0.931 . S
C833 C832 1.370 . S
C833 C837 1.408 . S
C834 C832 1.363 . S
C834 C835 1.370 . S
C834 C838 1.524 . S
C835 C827 1.503 1_565 S
C835 C834 1.370 . S
C835 C836 1.403 . S
C836 C835 1.403 . S
C836 C837 1.404 . S
C836 C839 1.539 1_565 S
C837 C833 1.408 . S
C837 C836 1.404 . S
C837 H849 0.930 . S
C838 C834 1.524 . S
C838 H850 0.956 . S
C838 H851 0.961 . S
C838 H852 0.961 . S
C839 C836 1.539 1_545 S
C839 H853 0.958 . S
C839 H854 0.961 . S
C839 H855 0.960 . S
H840 C824 0.931 . S
H841 C829 0.929 . S
H842 C830 0.960 . S
H843 C830 0.962 . S
H844 C830 0.960 . S
H845 C831 0.961 . S
H846 C831 0.961 1_565 S
H847 C831 0.961 . S
H848 C832 0.931 . S
H849 C837 0.930 . S
H850 C838 0.956 . S
H851 C838 0.961 . S
H852 C838 0.961 . S
H853 C839 0.958 . S
H854 C839 0.961 . S
H855 C839 0.960 . S
C856 C857 1.391 . S
C856 C858 1.394 . S
C856 H872 0.931 . S
C857 C856 1.391 . S
C857 C861 1.376 . S
C858 C856 1.394 . S
C858 C859 1.369 . S
C858 C862 1.531 . S
C859 C858 1.369 . S
C859 C860 1.410 . S
C859 C867 1.503 1_655 S
C860 C859 1.410 . S
C860 C861 1.392 . S
C860 C863 1.511 . S
C861 C857 1.376 . S
C861 C860 1.392 . S
C861 H873 0.929 . S
C862 C858 1.531 . S
C862 H874 0.960 1_655 S
C862 H875 0.962 . S
C862 H876 0.960 . S
C863 C860 1.511 . S
C863 H877 0.961 . S
C863 H878 0.961 1_655 S
C863 H879 0.961 1_655 S
C864 C865 1.370 . S
C864 C866 1.363 . S
C864 H880 0.931 . S
C865 C864 1.370 . S
C865 C869 1.408 . S
C866 C864 1.363 . S
C866 C867 1.370 . S
C866 C870 1.524 1_455 S
C867 C859 1.503 1_455 S
C867 C866 1.370 . S
C867 C868 1.403 . S
C868 C867 1.403 . S
C868 C869 1.404 . S
C868 C871 1.539 . S
C869 C865 1.408 . S
C869 C868 1.404 . S
C869 H881 0.930 . S
C870 C866 1.524 1_655 S
C870 H882 0.956 . S
C870 H883 0.961 . S
C870 H884 0.961 . S
C871 C868 1.539 . S
C871 H885 0.958 . S
C871 H886 0.961 . S
C871 H887 0.960 . S
H872 C856 0.931 . S
H873 C861 0.929 . S
H874 C862 0.960 1_455 S
H875 C862 0.962 . S
H876 C862 0.960 . S
H877 C863 0.961 . S
H878 C863 0.961 1_455 S
H879 C863 0.961 1_455 S
H880 C864 0.931 . S
H881 C869 0.930 . S
H882 C870 0.956 . S
H883 C870 0.961 . S
H884 C870 0.961 . S
H885 C871 0.958 . S
H886 C871 0.961 . S
H887 C871 0.960 . S
C888 C889 1.391 . S
C888 C890 1.394 . S
C888 H904 0.931 . S
C889 C888 1.391 . S
C889 C893 1.376 . S
C890 C888 1.394 . S
C890 C891 1.369 . S
C890 C894 1.531 . S
C891 C890 1.369 . S
C891 C892 1.410 . S
C891 C899 1.503 . S
C892 C891 1.410 . S
C892 C893 1.392 . S
C892 C895 1.511 . S
C893 C889 1.376 . S
C893 C892 1.392 . S
C893 H905 0.929 . S
C894 C890 1.531 . S
C894 H906 0.960 . S
C894 H907 0.962 . S
C894 H908 0.960 . S
C895 C892 1.511 . S
C895 H909 0.961 . S
C895 H910 0.961 . S
C895 H911 0.961 . S
C896 C897 1.370 . S
C896 C898 1.363 . S
C896 H912 0.931 . S
C897 C896 1.370 . S
C897 C901 1.408 . S
C898 C896 1.363 . S
C898 C899 1.370 . S
C898 C902 1.524 . S
C899 C891 1.503 . S
C899 C898 1.370 . S
C899 C900 1.403 . S
C900 C899 1.403 . S
C900 C901 1.404 . S
C900 C903 1.539 . S
C901 C897 1.408 . S
C901 C900 1.404 . S
C901 H913 0.930 . S
C902 C898 1.524 . S
C902 H914 0.956 . S
C902 H915 0.961 . S
C902 H916 0.961 . S
C903 C900 1.539 . S
C903 H917 0.958 . S
C903 H918 0.961 . S
C903 H919 0.960 . S
H904 C888 0.931 . S
H905 C893 0.929 . S
H906 C894 0.960 . S
H907 C894 0.962 . S
H908 C894 0.960 . S
H909 C895 0.961 . S
H910 C895 0.961 . S
H911 C895 0.961 . S
H912 C896 0.931 . S
H913 C901 0.930 . S
H914 C902 0.956 . S
H915 C902 0.961 . S
H916 C902 0.961 . S
H917 C903 0.958 . S
H918 C903 0.961 . S
H919 C903 0.960 . S
C920 C921 1.391 . S
C920 C922 1.394 . S
C920 H936 0.931 . S
C921 C920 1.391 . S
C921 C925 1.376 . S
C922 C920 1.394 . S
C922 C923 1.369 . S
C922 C926 1.531 . S
C923 C922 1.369 . S
C923 C924 1.410 . S
C923 C931 1.503 1_545 S
C924 C923 1.410 . S
C924 C925 1.392 . S
C924 C927 1.511 1_545 S
C925 C921 1.376 . S
C925 C924 1.392 . S
C925 H937 0.929 . S
C926 C922 1.531 . S
C926 H938 0.960 . S
C926 H939 0.962 . S
C926 H940 0.960 . S
C927 C924 1.511 1_565 S
C927 H941 0.961 . S
C927 H942 0.961 . S
C927 H943 0.961 . S
C928 C929 1.370 . S
C928 C930 1.363 . S
C928 H944 0.931 . S
C929 C928 1.370 . S
C929 C933 1.408 . S
C930 C928 1.363 . S
C930 C931 1.370 . S
C930 C934 1.524 1_565 S
C931 C923 1.503 1_565 S
C931 C930 1.370 . S
C931 C932 1.403 . S
C932 C931 1.403 . S
C932 C933 1.404 . S
C932 C935 1.539 . S
C933 C929 1.408 . S
C933 C932 1.404 . S
C933 H945 0.930 . S
C934 C930 1.524 1_545 S
C934 H946 0.956 . S
C934 H947 0.961 . S
C934 H948 0.961 . S
C935 C932 1.539 . S
C935 H949 0.958 . S
C935 H950 0.961 . S
C935 H951 0.960 . S
H936 C920 0.931 . S
H937 C925 0.929 . S
H938 C926 0.960 . S
H939 C926 0.962 . S
H940 C926 0.960 . S
H941 C927 0.961 . S
H942 C927 0.961 . S
H943 C927 0.961 . S
H944 C928 0.931 . S
H945 C933 0.930 . S
H946 C934 0.956 . S
H947 C934 0.961 . S
H948 C934 0.961 . S
H949 C935 0.958 . S
H950 C935 0.961 . S
H951 C935 0.960 . S
C952 C953 1.391 . S
C952 C954 1.394 . S
C952 H968 0.931 . S
C953 C952 1.391 . S
C953 C957 1.376 . S
C954 C952 1.394 . S
C954 C955 1.369 . S
C954 C958 1.531 . S
C955 C954 1.369 . S
C955 C956 1.410 . S
C955 C963 1.503 1_655 S
C956 C955 1.410 . S
C956 C957 1.392 . S
C956 C959 1.511 . S
C957 C953 1.376 . S
C957 C956 1.392 . S
C957 H969 0.929 . S
C958 C954 1.531 . S
C958 H970 0.960 1_655 S
C958 H971 0.962 . S
C958 H972 0.960 . S
C959 C956 1.511 . S
C959 H973 0.961 . S
C959 H974 0.961 1_655 S
C959 H975 0.961 1_655 S
C960 C961 1.370 . S
C960 C962 1.363 . S
C960 H976 0.931 . S
C961 C960 1.370 . S
C961 C965 1.408 . S
C962 C960 1.363 . S
C962 C963 1.370 . S
C962 C966 1.524 1_455 S
C963 C955 1.503 1_455 S
C963 C962 1.370 . S
C963 C964 1.403 . S
C964 C963 1.403 . S
C964 C965 1.404 . S
C964 C967 1.539 . S
C965 C961 1.408 . S
C965 C964 1.404 . S
C965 H977 0.930 . S
C966 C962 1.524 1_655 S
C966 H978 0.956 . S
C966 H979 0.961 . S
C966 H980 0.961 . S
C967 C964 1.539 . S
C967 H981 0.958 . S
C967 H982 0.961 . S
C967 H983 0.960 . S
H968 C952 0.931 . S
H969 C957 0.929 . S
H970 C958 0.960 1_455 S
H971 C958 0.962 . S
H972 C958 0.960 . S
H973 C959 0.961 . S
H974 C959 0.961 1_455 S
H975 C959 0.961 1_455 S
H976 C960 0.931 . S
H977 C965 0.930 . S
H978 C966 0.956 . S
H979 C966 0.961 . S
H980 C966 0.961 . S
H981 C967 0.958 . S
H982 C967 0.961 . S
H983 C967 0.960 . S
C984 C985 1.391 . S
C984 C986 1.394 . S
C984 H1000 0.931 . S
C985 C984 1.391 . S
C985 C989 1.376 . S
C986 C984 1.394 . S
C986 C987 1.369 . S
C986 C990 1.531 . S
C987 C986 1.369 . S
C987 C988 1.410 . S
C987 C995 1.503 . S
C988 C987 1.410 . S
C988 C989 1.392 . S
C988 C991 1.511 . S
C989 C985 1.376 . S
C989 C988 1.392 . S
C989 H1001 0.929 . S
C990 C986 1.531 . S
C990 H1002 0.960 . S
C990 H1003 0.962 . S
C990 H1004 0.960 . S
C991 C988 1.511 . S
C991 H1005 0.961 . S
C991 H1006 0.961 . S
C991 H1007 0.961 . S
C992 C993 1.370 . S
C992 C994 1.363 . S
C992 H1008 0.931 . S
C993 C992 1.370 . S
C993 C997 1.408 . S
C994 C992 1.363 . S
C994 C995 1.370 . S
C994 C998 1.524 . S
C995 C987 1.503 . S
C995 C994 1.370 . S
C995 C996 1.403 . S
C996 C995 1.403 . S
C996 C997 1.404 . S
C996 C999 1.539 . S
C997 C993 1.408 . S
C997 C996 1.404 . S
C997 H1009 0.930 . S
C998 C994 1.524 . S
C998 H1010 0.956 . S
C998 H1011 0.961 . S
C998 H1012 0.961 . S
C999 C996 1.539 . S
C999 H1013 0.958 . S
C999 H1014 0.961 . S
C999 H1015 0.960 . S
H1000 C984 0.931 . S
H1001 C989 0.929 . S
H1002 C990 0.960 . S
H1003 C990 0.962 . S
H1004 C990 0.960 . S
H1005 C991 0.961 . S
H1006 C991 0.961 . S
H1007 C991 0.961 . S
H1008 C992 0.931 . S
H1009 C997 0.930 . S
H1010 C998 0.956 . S
H1011 C998 0.961 . S
H1012 C998 0.961 . S
H1013 C999 0.958 . S
H1014 C999 0.961 . S
H1015 C999 0.960 . S
C1016 C1017 1.391 . S
C1016 C1018 1.394 . S
C1016 H1032 0.931 . S
C1017 C1016 1.391 . S
C1017 C1021 1.376 . S
C1018 C1016 1.394 . S
C1018 C1019 1.369 . S
C1018 C1022 1.531 . S
C1019 C1018 1.369 . S
C1019 C1020 1.410 . S
C1019 C1027 1.503 . S
C1020 C1019 1.410 . S
C1020 C1021 1.392 . S
C1020 C1023 1.511 . S
C1021 C1017 1.376 . S
C1021 C1020 1.392 . S
C1021 H1033 0.929 . S
C1022 C1018 1.531 . S
C1022 H1034 0.960 . S
C1022 H1035 0.962 . S
C1022 H1036 0.960 . S
C1023 C1020 1.511 . S
C1023 H1037 0.961 . S
C1023 H1038 0.961 . S
C1023 H1039 0.961 . S
C1024 C1025 1.370 . S
C1024 C1026 1.363 . S
C1024 H1040 0.931 . S
C1025 C1024 1.370 . S
C1025 C1029 1.408 . S
C1026 C1024 1.363 . S
C1026 C1027 1.370 . S
C1026 C1030 1.524 . S
C1027 C1019 1.503 . S
C1027 C1026 1.370 . S
C1027 C1028 1.403 . S
C1028 C1027 1.403 . S
C1028 C1029 1.404 . S
C1028 C1031 1.539 . S
C1029 C1025 1.408 . S
C1029 C1028 1.404 . S
C1029 H1041 0.930 . S
C1030 C1026 1.524 . S
C1030 H1042 0.956 . S
C1030 H1043 0.961 . S
C1030 H1044 0.961 . S
C1031 C1028 1.539 . S
C1031 H1045 0.958 . S
C1031 H1046 0.961 . S
C1031 H1047 0.960 . S
H1032 C1016 0.931 . S
H1033 C1021 0.929 . S
H1034 C1022 0.960 . S
H1035 C1022 0.962 . S
H1036 C1022 0.960 . S
H1037 C1023 0.961 . S
H1038 C1023 0.961 . S
H1039 C1023 0.961 . S
H1040 C1024 0.931 . S
H1041 C1029 0.930 . S
H1042 C1030 0.956 . S
H1043 C1030 0.961 . S
H1044 C1030 0.961 . S
H1045 C1031 0.958 . S
H1046 C1031 0.961 . S
H1047 C1031 0.960 . S
C1048 C1049 1.391 . S
C1048 C1050 1.394 . S
C1048 H1064 0.931 . S
C1049 C1048 1.391 . S
C1049 C1053 1.376 . S
C1050 C1048 1.394 . S
C1050 C1051 1.369 . S
C1050 C1054 1.531 . S
C1051 C1050 1.369 . S
C1051 C1052 1.410 . S
C1051 C1059 1.503 . S
C1052 C1051 1.410 . S
C1052 C1053 1.392 . S
C1052 C1055 1.511 . S
C1053 C1049 1.376 . S
C1053 C1052 1.392 . S
C1053 H1065 0.929 . S
C1054 C1050 1.531 . S
C1054 H1066 0.960 . S
C1054 H1067 0.962 . S
C1054 H1068 0.960 . S
C1055 C1052 1.511 . S
C1055 H1069 0.961 . S
C1055 H1070 0.961 . S
C1055 H1071 0.961 . S
C1056 C1057 1.370 . S
C1056 C1058 1.363 . S
C1056 H1072 0.931 . S
C1057 C1056 1.370 . S
C1057 C1061 1.408 . S
C1058 C1056 1.363 . S
C1058 C1059 1.370 . S
C1058 C1062 1.524 . S
C1059 C1051 1.503 . S
C1059 C1058 1.370 . S
C1059 C1060 1.403 . S
C1060 C1059 1.403 . S
C1060 C1061 1.404 . S
C1060 C1063 1.539 . S
C1061 C1057 1.408 . S
C1061 C1060 1.404 . S
C1061 H1073 0.930 . S
C1062 C1058 1.524 . S
C1062 H1074 0.956 . S
C1062 H1075 0.961 . S
C1062 H1076 0.961 . S
C1063 C1060 1.539 . S
C1063 H1077 0.958 . S
C1063 H1078 0.961 . S
C1063 H1079 0.960 . S
H1064 C1048 0.931 . S
H1065 C1053 0.929 . S
H1066 C1054 0.960 . S
H1067 C1054 0.962 . S
H1068 C1054 0.960 . S
H1069 C1055 0.961 . S
H1070 C1055 0.961 . S
H1071 C1055 0.961 . S
H1072 C1056 0.931 . S
H1073 C1061 0.930 . S
H1074 C1062 0.956 . S
H1075 C1062 0.961 . S
H1076 C1062 0.961 . S
H1077 C1063 0.958 . S
H1078 C1063 0.961 . S
H1079 C1063 0.960 . S
C1080 C1081 1.391 . S
C1080 C1082 1.394 . S
C1080 H1096 0.931 . S
C1081 C1080 1.391 . S
C1081 C1085 1.376 . S
C1082 C1080 1.394 . S
C1082 C1083 1.369 . S
C1082 C1086 1.531 . S
C1083 C1082 1.369 . S
C1083 C1084 1.410 . S
C1083 C1091 1.503 . S
C1084 C1083 1.410 . S
C1084 C1085 1.392 . S
C1084 C1087 1.511 . S
C1085 C1081 1.376 . S
C1085 C1084 1.392 . S
C1085 H1097 0.929 . S
C1086 C1082 1.531 . S
C1086 H1098 0.960 . S
C1086 H1099 0.962 . S
C1086 H1100 0.960 . S
C1087 C1084 1.511 . S
C1087 H1101 0.961 . S
C1087 H1102 0.961 . S
C1087 H1103 0.961 . S
C1088 C1089 1.370 . S
C1088 C1090 1.363 . S
C1088 H1104 0.931 . S
C1089 C1088 1.370 . S
C1089 C1093 1.408 . S
C1090 C1088 1.363 . S
C1090 C1091 1.370 . S
C1090 C1094 1.524 . S
C1091 C1083 1.503 . S
C1091 C1090 1.370 . S
C1091 C1092 1.403 . S
C1092 C1091 1.403 . S
C1092 C1093 1.404 . S
C1092 C1095 1.539 . S
C1093 C1089 1.408 . S
C1093 C1092 1.404 . S
C1093 H1105 0.930 . S
C1094 C1090 1.524 . S
C1094 H1106 0.956 . S
C1094 H1107 0.961 . S
C1094 H1108 0.961 . S
C1095 C1092 1.539 . S
C1095 H1109 0.958 . S
C1095 H1110 0.961 . S
C1095 H1111 0.960 . S
H1096 C1080 0.931 . S
H1097 C1085 0.929 . S
H1098 C1086 0.960 . S
H1099 C1086 0.962 . S
H1100 C1086 0.960 . S
H1101 C1087 0.961 . S
H1102 C1087 0.961 . S
H1103 C1087 0.961 . S
H1104 C1088 0.931 . S
H1105 C1093 0.930 . S
H1106 C1094 0.956 . S
H1107 C1094 0.961 . S
H1108 C1094 0.961 . S
H1109 C1095 0.958 . S
H1110 C1095 0.961 . S
H1111 C1095 0.960 . S
C1112 C1113 1.391 . S
C1112 C1114 1.394 . S
C1112 H1128 0.931 . S
C1113 C1112 1.391 . S
C1113 C1117 1.376 . S
C1114 C1112 1.394 . S
C1114 C1115 1.369 . S
C1114 C1118 1.531 . S
C1115 C1114 1.369 . S
C1115 C1116 1.410 . S
C1115 C1123 1.503 . S
C1116 C1115 1.410 . S
C1116 C1117 1.392 . S
C1116 C1119 1.511 . S
C1117 C1113 1.376 . S
C1117 C1116 1.392 . S
C1117 H1129 0.929 . S
C1118 C1114 1.531 . S
C1118 H1130 0.960 . S
C1118 H1131 0.962 . S
C1118 H1132 0.960 . S
C1119 C1116 1.511 . S
C1119 H1133 0.961 . S
C1119 H1134 0.961 . S
C1119 H1135 0.961 . S
C1120 C1121 1.370 . S
C1120 C1122 1.363 . S
C1120 H1136 0.931 . S
C1121 C1120 1.370 . S
C1121 C1125 1.408 . S
C1122 C1120 1.363 . S
C1122 C1123 1.370 . S
C1122 C1126 1.524 . S
C1123 C1115 1.503 . S
C1123 C1122 1.370 . S
C1123 C1124 1.403 . S
C1124 C1123 1.403 . S
C1124 C1125 1.404 . S
C1124 C1127 1.539 . S
C1125 C1121 1.408 . S
C1125 C1124 1.404 . S
C1125 H1137 0.930 . S
C1126 C1122 1.524 . S
C1126 H1138 0.956 . S
C1126 H1139 0.961 . S
C1126 H1140 0.961 . S
C1127 C1124 1.539 . S
C1127 H1141 0.958 . S
C1127 H1142 0.961 . S
C1127 H1143 0.960 . S
H1128 C1112 0.931 . S
H1129 C1117 0.929 . S
H1130 C1118 0.960 . S
H1131 C1118 0.962 . S
H1132 C1118 0.960 . S
H1133 C1119 0.961 . S
H1134 C1119 0.961 . S
H1135 C1119 0.961 . S
H1136 C1120 0.931 . S
H1137 C1125 0.930 . S
H1138 C1126 0.956 . S
H1139 C1126 0.961 . S
H1140 C1126 0.961 . S
H1141 C1127 0.958 . S
H1142 C1127 0.961 . S
H1143 C1127 0.960 . S
C1144 C1145 1.391 . S
C1144 C1146 1.394 . S
C1144 H1160 0.931 . S
C1145 C1144 1.391 . S
C1145 C1149 1.376 . S
C1146 C1144 1.394 . S
C1146 C1147 1.369 . S
C1146 C1150 1.531 . S
C1147 C1146 1.369 . S
C1147 C1148 1.410 . S
C1147 C1155 1.503 . S
C1148 C1147 1.410 . S
C1148 C1149 1.392 . S
C1148 C1151 1.511 . S
C1149 C1145 1.376 . S
C1149 C1148 1.392 . S
C1149 H1161 0.929 . S
C1150 C1146 1.531 . S
C1150 H1162 0.960 . S
C1150 H1163 0.962 . S
C1150 H1164 0.960 . S
C1151 C1148 1.511 . S
C1151 H1165 0.961 . S
C1151 H1166 0.961 . S
C1151 H1167 0.961 . S
C1152 C1153 1.370 . S
C1152 C1154 1.363 . S
C1152 H1168 0.931 . S
C1153 C1152 1.370 . S
C1153 C1157 1.408 . S
C1154 C1152 1.363 . S
C1154 C1155 1.370 . S
C1154 C1158 1.524 . S
C1155 C1147 1.503 . S
C1155 C1154 1.370 . S
C1155 C1156 1.403 . S
C1156 C1155 1.403 . S
C1156 C1157 1.404 . S
C1156 C1159 1.539 . S
C1157 C1153 1.408 . S
C1157 C1156 1.404 . S
C1157 H1169 0.930 . S
C1158 C1154 1.524 . S
C1158 H1170 0.956 . S
C1158 H1171 0.961 . S
C1158 H1172 0.961 . S
C1159 C1156 1.539 . S
C1159 H1173 0.958 . S
C1159 H1174 0.961 . S
C1159 H1175 0.960 . S
H1160 C1144 0.931 . S
H1161 C1149 0.929 . S
H1162 C1150 0.960 . S
H1163 C1150 0.962 . S
H1164 C1150 0.960 . S
H1165 C1151 0.961 . S
H1166 C1151 0.961 . S
H1167 C1151 0.961 . S
H1168 C1152 0.931 . S
H1169 C1157 0.930 . S
H1170 C1158 0.956 . S
H1171 C1158 0.961 . S
H1172 C1158 0.961 . S
H1173 C1159 0.958 . S
H1174 C1159 0.961 . S
H1175 C1159 0.960 . S
C1176 C1177 1.391 . S
C1176 C1178 1.394 . S
C1176 H1192 0.931 . S
C1177 C1176 1.391 . S
C1177 C1181 1.376 . S
C1178 C1176 1.394 . S
C1178 C1179 1.369 . S
C1178 C1182 1.531 . S
C1179 C1178 1.369 . S
C1179 C1180 1.410 . S
C1179 C1187 1.503 . S
C1180 C1179 1.410 . S
C1180 C1181 1.392 . S
C1180 C1183 1.511 . S
C1181 C1177 1.376 . S
C1181 C1180 1.392 . S
C1181 H1193 0.929 . S
C1182 C1178 1.531 . S
C1182 H1194 0.960 . S
C1182 H1195 0.962 . S
C1182 H1196 0.960 . S
C1183 C1180 1.511 . S
C1183 H1197 0.961 . S
C1183 H1198 0.961 . S
C1183 H1199 0.961 . S
C1184 C1185 1.370 . S
C1184 C1186 1.363 . S
C1184 H1200 0.931 . S
C1185 C1184 1.370 . S
C1185 C1189 1.408 . S
C1186 C1184 1.363 . S
C1186 C1187 1.370 . S
C1186 C1190 1.524 . S
C1187 C1179 1.503 . S
C1187 C1186 1.370 . S
C1187 C1188 1.403 . S
C1188 C1187 1.403 . S
C1188 C1189 1.404 . S
C1188 C1191 1.539 . S
C1189 C1185 1.408 . S
C1189 C1188 1.404 . S
C1189 H1201 0.930 . S
C1190 C1186 1.524 . S
C1190 H1202 0.956 . S
C1190 H1203 0.961 . S
C1190 H1204 0.961 . S
C1191 C1188 1.539 . S
C1191 H1205 0.958 . S
C1191 H1206 0.961 . S
C1191 H1207 0.960 . S
H1192 C1176 0.931 . S
H1193 C1181 0.929 . S
H1194 C1182 0.960 . S
H1195 C1182 0.962 . S
H1196 C1182 0.960 . S
H1197 C1183 0.961 . S
H1198 C1183 0.961 . S
H1199 C1183 0.961 . S
H1200 C1184 0.931 . S
H1201 C1189 0.930 . S
H1202 C1190 0.956 . S
H1203 C1190 0.961 . S
H1204 C1190 0.961 . S
H1205 C1191 0.958 . S
H1206 C1191 0.961 . S
H1207 C1191 0.960 . S
C1208 C1209 1.391 . S
C1208 C1210 1.394 . S
C1208 H1224 0.931 . S
C1209 C1208 1.391 . S
C1209 C1213 1.376 . S
C1210 C1208 1.394 . S
C1210 C1211 1.369 . S
C1210 C1214 1.531 . S
C1211 C1210 1.369 . S
C1211 C1212 1.410 . S
C1211 C1219 1.503 . S
C1212 C1211 1.410 . S
C1212 C1213 1.392 . S
C1212 C1215 1.511 . S
C1213 C1209 1.376 . S
C1213 C1212 1.392 . S
C1213 H1225 0.929 . S
C1214 C1210 1.531 . S
C1214 H1226 0.960 . S
C1214 H1227 0.962 . S
C1214 H1228 0.960 . S
C1215 C1212 1.511 . S
C1215 H1229 0.961 . S
C1215 H1230 0.961 . S
C1215 H1231 0.961 . S
C1216 C1217 1.370 . S
C1216 C1218 1.363 . S
C1216 H1232 0.931 . S
C1217 C1216 1.370 . S
C1217 C1221 1.408 . S
C1218 C1216 1.363 . S
C1218 C1219 1.370 . S
C1218 C1222 1.524 . S
C1219 C1211 1.503 . S
C1219 C1218 1.370 . S
C1219 C1220 1.403 . S
C1220 C1219 1.403 . S
C1220 C1221 1.404 . S
C1220 C1223 1.539 . S
C1221 C1217 1.408 . S
C1221 C1220 1.404 . S
C1221 H1233 0.930 . S
C1222 C1218 1.524 . S
C1222 H1234 0.956 . S
C1222 H1235 0.961 . S
C1222 H1236 0.961 . S
C1223 C1220 1.539 . S
C1223 H1237 0.958 . S
C1223 H1238 0.961 . S
C1223 H1239 0.960 . S
H1224 C1208 0.931 . S
H1225 C1213 0.929 . S
H1226 C1214 0.960 . S
H1227 C1214 0.962 . S
H1228 C1214 0.960 . S
H1229 C1215 0.961 . S
H1230 C1215 0.961 . S
H1231 C1215 0.961 . S
H1232 C1216 0.931 . S
H1233 C1221 0.930 . S
H1234 C1222 0.956 . S
H1235 C1222 0.961 . S
H1236 C1222 0.961 . S
H1237 C1223 0.958 . S
H1238 C1223 0.961 . S
H1239 C1223 0.960 . S
C1240 C1241 1.391 . S
C1240 C1242 1.394 . S
C1240 H1256 0.931 . S
C1241 C1240 1.391 . S
C1241 C1245 1.376 . S
C1242 C1240 1.394 . S
C1242 C1243 1.369 . S
C1242 C1246 1.531 . S
C1243 C1242 1.369 . S
C1243 C1244 1.410 . S
C1243 C1251 1.503 . S
C1244 C1243 1.410 . S
C1244 C1245 1.392 . S
C1244 C1247 1.511 . S
C1245 C1241 1.376 . S
C1245 C1244 1.392 . S
C1245 H1257 0.929 . S
C1246 C1242 1.531 . S
C1246 H1258 0.960 . S
C1246 H1259 0.962 . S
C1246 H1260 0.960 . S
C1247 C1244 1.511 . S
C1247 H1261 0.961 . S
C1247 H1262 0.961 . S
C1247 H1263 0.961 . S
C1248 C1249 1.370 . S
C1248 C1250 1.363 . S
C1248 H1264 0.931 . S
C1249 C1248 1.370 . S
C1249 C1253 1.408 . S
C1250 C1248 1.363 . S
C1250 C1251 1.370 . S
C1250 C1254 1.524 . S
C1251 C1243 1.503 . S
C1251 C1250 1.370 . S
C1251 C1252 1.403 . S
C1252 C1251 1.403 . S
C1252 C1253 1.404 . S
C1252 C1255 1.539 . S
C1253 C1249 1.408 . S
C1253 C1252 1.404 . S
C1253 H1265 0.930 . S
C1254 C1250 1.524 . S
C1254 H1266 0.956 . S
C1254 H1267 0.961 . S
C1254 H1268 0.961 . S
C1255 C1252 1.539 . S
C1255 H1269 0.958 . S
C1255 H1270 0.961 . S
C1255 H1271 0.960 . S
H1256 C1240 0.931 . S
H1257 C1245 0.929 . S
H1258 C1246 0.960 . S
H1259 C1246 0.962 . S
H1260 C1246 0.960 . S
H1261 C1247 0.961 . S
H1262 C1247 0.961 . S
H1263 C1247 0.961 . S
H1264 C1248 0.931 . S
H1265 C1253 0.930 . S
H1266 C1254 0.956 . S
H1267 C1254 0.961 . S
H1268 C1254 0.961 . S
H1269 C1255 0.958 . S
H1270 C1255 0.961 . S
H1271 C1255 0.960 . S
C1272 C1273 1.391 . S
C1272 C1274 1.394 . S
C1272 H1288 0.931 . S
C1273 C1272 1.391 . S
C1273 C1277 1.376 . S
C1274 C1272 1.394 . S
C1274 C1275 1.369 . S
C1274 C1278 1.531 . S
C1275 C1274 1.369 . S
C1275 C1276 1.410 . S
C1275 C1283 1.503 . S
C1276 C1275 1.410 . S
C1276 C1277 1.392 . S
C1276 C1279 1.511 . S
C1277 C1273 1.376 . S
C1277 C1276 1.392 . S
C1277 H1289 0.929 . S
C1278 C1274 1.531 . S
C1278 H1290 0.960 . S
C1278 H1291 0.962 . S
C1278 H1292 0.960 . S
C1279 C1276 1.511 . S
C1279 H1293 0.961 . S
C1279 H1294 0.961 . S
C1279 H1295 0.961 . S
C1280 C1281 1.370 . S
C1280 C1282 1.363 . S
C1280 H1296 0.931 . S
C1281 C1280 1.370 . S
C1281 C1285 1.408 . S
C1282 C1280 1.363 . S
C1282 C1283 1.370 . S
C1282 C1286 1.524 . S
C1283 C1275 1.503 . S
C1283 C1282 1.370 . S
C1283 C1284 1.403 . S
C1284 C1283 1.403 . S
C1284 C1285 1.404 . S
C1284 C1287 1.539 . S
C1285 C1281 1.408 . S
C1285 C1284 1.404 . S
C1285 H1297 0.930 . S
C1286 C1282 1.524 . S
C1286 H1298 0.956 . S
C1286 H1299 0.961 . S
C1286 H1300 0.961 . S
C1287 C1284 1.539 . S
C1287 H1301 0.958 . S
C1287 H1302 0.961 . S
C1287 H1303 0.960 . S
H1288 C1272 0.931 . S
H1289 C1277 0.929 . S
H1290 C1278 0.960 . S
H1291 C1278 0.962 . S
H1292 C1278 0.960 . S
H1293 C1279 0.961 . S
H1294 C1279 0.961 . S
H1295 C1279 0.961 . S
H1296 C1280 0.931 . S
H1297 C1285 0.930 . S
H1298 C1286 0.956 . S
H1299 C1286 0.961 . S
H1300 C1286 0.961 . S
H1301 C1287 0.958 . S
H1302 C1287 0.961 . S
H1303 C1287 0.960 . S
C1304 C1305 1.391 . S
C1304 C1306 1.394 . S
C1304 H1320 0.931 . S
C1305 C1304 1.391 . S
C1305 C1309 1.376 . S
C1306 C1304 1.394 . S
C1306 C1307 1.369 . S
C1306 C1310 1.531 . S
C1307 C1306 1.369 . S
C1307 C1308 1.410 . S
C1307 C1315 1.503 . S
C1308 C1307 1.410 . S
C1308 C1309 1.392 . S
C1308 C1311 1.511 . S
C1309 C1305 1.376 . S
C1309 C1308 1.392 . S
C1309 H1321 0.929 . S
C1310 C1306 1.531 . S
C1310 H1322 0.960 . S
C1310 H1323 0.962 . S
C1310 H1324 0.960 . S
C1311 C1308 1.511 . S
C1311 H1325 0.961 . S
C1311 H1326 0.961 . S
C1311 H1327 0.961 . S
C1312 C1313 1.370 . S
C1312 C1314 1.363 . S
C1312 H1328 0.931 . S
C1313 C1312 1.370 . S
C1313 C1317 1.408 . S
C1314 C1312 1.363 . S
C1314 C1315 1.370 . S
C1314 C1318 1.524 . S
C1315 C1307 1.503 . S
C1315 C1314 1.370 . S
C1315 C1316 1.403 . S
C1316 C1315 1.403 . S
C1316 C1317 1.404 . S
C1316 C1319 1.539 . S
C1317 C1313 1.408 . S
C1317 C1316 1.404 . S
C1317 H1329 0.930 . S
C1318 C1314 1.524 . S
C1318 H1330 0.956 . S
C1318 H1331 0.961 . S
C1318 H1332 0.961 . S
C1319 C1316 1.539 . S
C1319 H1333 0.958 . S
C1319 H1334 0.961 . S
C1319 H1335 0.960 . S
H1320 C1304 0.931 . S
H1321 C1309 0.929 . S
H1322 C1310 0.960 . S
H1323 C1310 0.962 . S
H1324 C1310 0.960 . S
H1325 C1311 0.961 . S
H1326 C1311 0.961 . S
H1327 C1311 0.961 . S
H1328 C1312 0.931 . S
H1329 C1317 0.930 . S
H1330 C1318 0.956 . S
H1331 C1318 0.961 . S
H1332 C1318 0.961 . S
H1333 C1319 0.958 . S
H1334 C1319 0.961 . S
H1335 C1319 0.960 . S
C1336 C1337 1.391 . S
C1336 C1338 1.394 . S
C1336 H1352 0.931 . S
C1337 C1336 1.391 . S
C1337 C1341 1.376 . S
C1338 C1336 1.394 . S
C1338 C1339 1.369 . S
C1338 C1342 1.531 . S
C1339 C1338 1.369 . S
C1339 C1340 1.410 . S
C1339 C1347 1.503 . S
C1340 C1339 1.410 . S
C1340 C1341 1.392 . S
C1340 C1343 1.511 . S
C1341 C1337 1.376 . S
C1341 C1340 1.392 . S
C1341 H1353 0.929 . S
C1342 C1338 1.531 . S
C1342 H1354 0.960 . S
C1342 H1355 0.962 . S
C1342 H1356 0.960 . S
C1343 C1340 1.511 . S
C1343 H1357 0.961 . S
C1343 H1358 0.961 . S
C1343 H1359 0.961 . S
C1344 C1345 1.370 . S
C1344 C1346 1.363 . S
C1344 H1360 0.931 . S
C1345 C1344 1.370 . S
C1345 C1349 1.408 . S
C1346 C1344 1.363 . S
C1346 C1347 1.370 . S
C1346 C1350 1.524 . S
C1347 C1339 1.503 . S
C1347 C1346 1.370 . S
C1347 C1348 1.403 . S
C1348 C1347 1.403 . S
C1348 C1349 1.404 . S
C1348 C1351 1.539 . S
C1349 C1345 1.408 . S
C1349 C1348 1.404 . S
C1349 H1361 0.930 . S
C1350 C1346 1.524 . S
C1350 H1362 0.956 . S
C1350 H1363 0.961 . S
C1350 H1364 0.961 . S
C1351 C1348 1.539 . S
C1351 H1365 0.958 . S
C1351 H1366 0.961 . S
C1351 H1367 0.960 . S
H1352 C1336 0.931 . S
H1353 C1341 0.929 . S
H1354 C1342 0.960 . S
H1355 C1342 0.962 . S
H1356 C1342 0.960 . S
H1357 C1343 0.961 . S
H1358 C1343 0.961 . S
H1359 C1343 0.961 . S
H1360 C1344 0.931 . S
H1361 C1349 0.930 . S
H1362 C1350 0.956 . S
H1363 C1350 0.961 . S
H1364 C1350 0.961 . S
H1365 C1351 0.958 . S
H1366 C1351 0.961 . S
H1367 C1351 0.960 . S
C1368 C1369 1.391 . S
C1368 C1370 1.394 . S
C1368 H1384 0.931 . S
C1369 C1368 1.391 . S
C1369 C1373 1.376 . S
C1370 C1368 1.394 . S
C1370 C1371 1.369 . S
C1370 C1374 1.531 . S
C1371 C1370 1.369 . S
C1371 C1372 1.410 . S
C1371 C1379 1.503 . S
C1372 C1371 1.410 . S
C1372 C1373 1.392 . S
C1372 C1375 1.511 . S
C1373 C1369 1.376 . S
C1373 C1372 1.392 . S
C1373 H1385 0.929 . S
C1374 C1370 1.531 . S
C1374 H1386 0.960 . S
C1374 H1387 0.962 . S
C1374 H1388 0.960 . S
C1375 C1372 1.511 . S
C1375 H1389 0.961 . S
C1375 H1390 0.961 . S
C1375 H1391 0.961 . S
C1376 C1377 1.370 . S
C1376 C1378 1.363 . S
C1376 H1392 0.931 . S
C1377 C1376 1.370 . S
C1377 C1381 1.408 . S
C1378 C1376 1.363 . S
C1378 C1379 1.370 . S
C1378 C1382 1.524 . S
C1379 C1371 1.503 . S
C1379 C1378 1.370 . S
C1379 C1380 1.403 . S
C1380 C1379 1.403 . S
C1380 C1381 1.404 . S
C1380 C1383 1.539 . S
C1381 C1377 1.408 . S
C1381 C1380 1.404 . S
C1381 H1393 0.930 . S
C1382 C1378 1.524 . S
C1382 H1394 0.956 . S
C1382 H1395 0.961 . S
C1382 H1396 0.961 . S
C1383 C1380 1.539 . S
C1383 H1397 0.958 . S
C1383 H1398 0.961 . S
C1383 H1399 0.960 . S
H1384 C1368 0.931 . S
H1385 C1373 0.929 . S
H1386 C1374 0.960 . S
H1387 C1374 0.962 . S
H1388 C1374 0.960 . S
H1389 C1375 0.961 . S
H1390 C1375 0.961 . S
H1391 C1375 0.961 . S
H1392 C1376 0.931 . S
H1393 C1381 0.930 . S
H1394 C1382 0.956 . S
H1395 C1382 0.961 . S
H1396 C1382 0.961 . S
H1397 C1383 0.958 . S
H1398 C1383 0.961 . S
H1399 C1383 0.960 . S
C1400 C1401 1.391 . S
C1400 C1402 1.394 . S
C1400 H1416 0.931 . S
C1401 C1400 1.391 . S
C1401 C1405 1.376 . S
C1402 C1400 1.394 . S
C1402 C1403 1.369 . S
C1402 C1406 1.531 . S
C1403 C1402 1.369 . S
C1403 C1404 1.410 . S
C1403 C1411 1.503 . S
C1404 C1403 1.410 . S
C1404 C1405 1.392 . S
C1404 C1407 1.511 . S
C1405 C1401 1.376 . S
C1405 C1404 1.392 . S
C1405 H1417 0.929 . S
C1406 C1402 1.531 . S
C1406 H1418 0.960 . S
C1406 H1419 0.962 . S
C1406 H1420 0.960 . S
C1407 C1404 1.511 . S
C1407 H1421 0.961 . S
C1407 H1422 0.961 . S
C1407 H1423 0.961 . S
C1408 C1409 1.370 . S
C1408 C1410 1.363 . S
C1408 H1424 0.931 . S
C1409 C1408 1.370 . S
C1409 C1413 1.408 . S
C1410 C1408 1.363 . S
C1410 C1411 1.370 . S
C1410 C1414 1.524 . S
C1411 C1403 1.503 . S
C1411 C1410 1.370 . S
C1411 C1412 1.403 . S
C1412 C1411 1.403 . S
C1412 C1413 1.404 . S
C1412 C1415 1.539 . S
C1413 C1409 1.408 . S
C1413 C1412 1.404 . S
C1413 H1425 0.930 . S
C1414 C1410 1.524 . S
C1414 H1426 0.956 . S
C1414 H1427 0.961 . S
C1414 H1428 0.961 . S
C1415 C1412 1.539 . S
C1415 H1429 0.958 . S
C1415 H1430 0.961 . S
C1415 H1431 0.960 . S
H1416 C1400 0.931 . S
H1417 C1405 0.929 . S
H1418 C1406 0.960 . S
H1419 C1406 0.962 . S
H1420 C1406 0.960 . S
H1421 C1407 0.961 . S
H1422 C1407 0.961 . S
H1423 C1407 0.961 . S
H1424 C1408 0.931 . S
H1425 C1413 0.930 . S
H1426 C1414 0.956 . S
H1427 C1414 0.961 . S
H1428 C1414 0.961 . S
H1429 C1415 0.958 . S
H1430 C1415 0.961 . S
H1431 C1415 0.960 . S
C1432 C1433 1.391 . S
C1432 C1434 1.394 . S
C1432 H1448 0.931 . S
C1433 C1432 1.391 . S
C1433 C1437 1.376 . S
C1434 C1432 1.394 . S
C1434 C1435 1.369 . S
C1434 C1438 1.531 . S
C1435 C1434 1.369 . S
C1435 C1436 1.410 . S
C1435 C1443 1.503 . S
C1436 C1435 1.410 . S
C1436 C1437 1.392 . S
C1436 C1439 1.511 . S
C1437 C1433 1.376 . S
C1437 C1436 1.392 . S
C1437 H1449 0.929 . S
C1438 C1434 1.531 . S
C1438 H1450 0.960 . S
C1438 H1451 0.962 . S
C1438 H1452 0.960 . S
C1439 C1436 1.511 . S
C1439 H1453 0.961 . S
C1439 H1454 0.961 . S
C1439 H1455 0.961 . S
C1440 C1441 1.370 . S
C1440 C1442 1.363 . S
C1440 H1456 0.931 . S
C1441 C1440 1.370 . S
C1441 C1445 1.408 . S
C1442 C1440 1.363 . S
C1442 C1443 1.370 . S
C1442 C1446 1.524 . S
C1443 C1435 1.503 . S
C1443 C1442 1.370 . S
C1443 C1444 1.403 . S
C1444 C1443 1.403 . S
C1444 C1445 1.404 . S
C1444 C1447 1.539 . S
C1445 C1441 1.408 . S
C1445 C1444 1.404 . S
C1445 H1457 0.930 . S
C1446 C1442 1.524 . S
C1446 H1458 0.956 . S
C1446 H1459 0.961 . S
C1446 H1460 0.961 . S
C1447 C1444 1.539 . S
C1447 H1461 0.958 . S
C1447 H1462 0.961 . S
C1447 H1463 0.960 . S
H1448 C1432 0.931 . S
H1449 C1437 0.929 . S
H1450 C1438 0.960 . S
H1451 C1438 0.962 . S
H1452 C1438 0.960 . S
H1453 C1439 0.961 . S
H1454 C1439 0.961 . S
H1455 C1439 0.961 . S
H1456 C1440 0.931 . S
H1457 C1445 0.930 . S
H1458 C1446 0.956 . S
H1459 C1446 0.961 . S
H1460 C1446 0.961 . S
H1461 C1447 0.958 . S
H1462 C1447 0.961 . S
H1463 C1447 0.960 . S
C1464 C1465 1.391 . S
C1464 C1466 1.394 . S
C1464 H1480 0.931 . S
C1465 C1464 1.391 . S
C1465 C1469 1.376 . S
C1466 C1464 1.394 . S
C1466 C1467 1.369 . S
C1466 C1470 1.531 . S
C1467 C1466 1.369 . S
C1467 C1468 1.410 . S
C1467 C1475 1.503 . S
C1468 C1467 1.410 . S
C1468 C1469 1.392 . S
C1468 C1471 1.511 . S
C1469 C1465 1.376 . S
C1469 C1468 1.392 . S
C1469 H1481 0.929 . S
C1470 C1466 1.531 . S
C1470 H1482 0.960 . S
C1470 H1483 0.962 . S
C1470 H1484 0.960 . S
C1471 C1468 1.511 . S
C1471 H1485 0.961 . S
C1471 H1486 0.961 . S
C1471 H1487 0.961 . S
C1472 C1473 1.370 . S
C1472 C1474 1.363 . S
C1472 H1488 0.931 . S
C1473 C1472 1.370 . S
C1473 C1477 1.408 . S
C1474 C1472 1.363 . S
C1474 C1475 1.370 . S
C1474 C1478 1.524 . S
C1475 C1467 1.503 . S
C1475 C1474 1.370 . S
C1475 C1476 1.403 . S
C1476 C1475 1.403 . S
C1476 C1477 1.404 . S
C1476 C1479 1.539 . S
C1477 C1473 1.408 . S
C1477 C1476 1.404 . S
C1477 H1489 0.930 . S
C1478 C1474 1.524 . S
C1478 H1490 0.956 . S
C1478 H1491 0.961 . S
C1478 H1492 0.961 . S
C1479 C1476 1.539 . S
C1479 H1493 0.958 . S
C1479 H1494 0.961 . S
C1479 H1495 0.960 . S
H1480 C1464 0.931 . S
H1481 C1469 0.929 . S
H1482 C1470 0.960 . S
H1483 C1470 0.962 . S
H1484 C1470 0.960 . S
H1485 C1471 0.961 . S
H1486 C1471 0.961 . S
H1487 C1471 0.961 . S
H1488 C1472 0.931 . S
H1489 C1477 0.930 . S
H1490 C1478 0.956 . S
H1491 C1478 0.961 . S
H1492 C1478 0.961 . S
H1493 C1479 0.958 . S
H1494 C1479 0.961 . S
H1495 C1479 0.960 . S
C1496 C1497 1.391 . S
C1496 C1498 1.394 . S
C1496 H1512 0.931 . S
C1497 C1496 1.391 . S
C1497 C1501 1.376 . S
C1498 C1496 1.394 . S
C1498 C1499 1.369 . S
C1498 C1502 1.531 . S
C1499 C1498 1.369 . S
C1499 C1500 1.410 . S
C1499 C1507 1.503 . S
C1500 C1499 1.410 . S
C1500 C1501 1.392 . S
C1500 C1503 1.511 . S
C1501 C1497 1.376 . S
C1501 C1500 1.392 . S
C1501 H1513 0.929 . S
C1502 C1498 1.531 . S
C1502 H1514 0.960 . S
C1502 H1515 0.962 . S
C1502 H1516 0.960 . S
C1503 C1500 1.511 . S
C1503 H1517 0.961 . S
C1503 H1518 0.961 . S
C1503 H1519 0.961 . S
C1504 C1505 1.370 . S
C1504 C1506 1.363 . S
C1504 H1520 0.931 . S
C1505 C1504 1.370 . S
C1505 C1509 1.408 . S
C1506 C1504 1.363 . S
C1506 C1507 1.370 . S
C1506 C1510 1.524 . S
C1507 C1499 1.503 . S
C1507 C1506 1.370 . S
C1507 C1508 1.403 . S
C1508 C1507 1.403 . S
C1508 C1509 1.404 . S
C1508 C1511 1.539 . S
C1509 C1505 1.408 . S
C1509 C1508 1.404 . S
C1509 H1521 0.930 . S
C1510 C1506 1.524 . S
C1510 H1522 0.956 . S
C1510 H1523 0.961 . S
C1510 H1524 0.961 . S
C1511 C1508 1.539 . S
C1511 H1525 0.958 . S
C1511 H1526 0.961 . S
C1511 H1527 0.960 . S
H1512 C1496 0.931 . S
H1513 C1501 0.929 . S
H1514 C1502 0.960 . S
H1515 C1502 0.962 . S
H1516 C1502 0.960 . S
H1517 C1503 0.961 . S
H1518 C1503 0.961 . S
H1519 C1503 0.961 . S
H1520 C1504 0.931 . S
H1521 C1509 0.930 . S
H1522 C1510 0.956 . S
H1523 C1510 0.961 . S
H1524 C1510 0.961 . S
H1525 C1511 0.958 . S
H1526 C1511 0.961 . S
H1527 C1511 0.960 . S
C1528 C1529 1.391 . S
C1528 C1530 1.394 . S
C1528 H1544 0.931 . S
C1529 C1528 1.391 . S
C1529 C1533 1.376 . S
C1530 C1528 1.394 . S
C1530 C1531 1.369 . S
C1530 C1534 1.531 . S
C1531 C1530 1.369 . S
C1531 C1532 1.410 . S
C1531 C1539 1.503 . S
C1532 C1531 1.410 . S
C1532 C1533 1.392 . S
C1532 C1535 1.511 . S
C1533 C1529 1.376 . S
C1533 C1532 1.392 . S
C1533 H1545 0.929 . S
C1534 C1530 1.531 . S
C1534 H1546 0.960 . S
C1534 H1547 0.962 . S
C1534 H1548 0.960 . S
C1535 C1532 1.511 . S
C1535 H1549 0.961 . S
C1535 H1550 0.961 . S
C1535 H1551 0.961 . S
C1536 C1537 1.370 . S
C1536 C1538 1.363 . S
C1536 H1552 0.931 . S
C1537 C1536 1.370 . S
C1537 C1541 1.408 . S
C1538 C1536 1.363 . S
C1538 C1539 1.370 . S
C1538 C1542 1.524 . S
C1539 C1531 1.503 . S
C1539 C1538 1.370 . S
C1539 C1540 1.403 . S
C1540 C1539 1.403 . S
C1540 C1541 1.404 . S
C1540 C1543 1.539 . S
C1541 C1537 1.408 . S
C1541 C1540 1.404 . S
C1541 H1553 0.930 . S
C1542 C1538 1.524 . S
C1542 H1554 0.956 . S
C1542 H1555 0.961 . S
C1542 H1556 0.961 . S
C1543 C1540 1.539 . S
C1543 H1557 0.958 . S
C1543 H1558 0.961 . S
C1543 H1559 0.960 . S
H1544 C1528 0.931 . S
H1545 C1533 0.929 . S
H1546 C1534 0.960 . S
H1547 C1534 0.962 . S
H1548 C1534 0.960 . S
H1549 C1535 0.961 . S
H1550 C1535 0.961 . S
H1551 C1535 0.961 . S
H1552 C1536 0.931 . S
H1553 C1541 0.930 . S
H1554 C1542 0.956 . S
H1555 C1542 0.961 . S
H1556 C1542 0.961 . S
H1557 C1543 0.958 . S
H1558 C1543 0.961 . S
H1559 C1543 0.960 . S
C1560 C1561 1.391 . S
C1560 C1562 1.394 . S
C1560 H1576 0.931 . S
C1561 C1560 1.391 . S
C1561 C1565 1.376 . S
C1562 C1560 1.394 . S
C1562 C1563 1.369 . S
C1562 C1566 1.531 . S
C1563 C1562 1.369 . S
C1563 C1564 1.410 . S
C1563 C1571 1.503 . S
C1564 C1563 1.410 . S
C1564 C1565 1.392 . S
C1564 C1567 1.511 . S
C1565 C1561 1.376 . S
C1565 C1564 1.392 . S
C1565 H1577 0.929 . S
C1566 C1562 1.531 . S
C1566 H1578 0.960 . S
C1566 H1579 0.962 . S
C1566 H1580 0.960 . S
C1567 C1564 1.511 . S
C1567 H1581 0.961 . S
C1567 H1582 0.961 . S
C1567 H1583 0.961 . S
C1568 C1569 1.370 . S
C1568 C1570 1.363 . S
C1568 H1584 0.931 . S
C1569 C1568 1.370 . S
C1569 C1573 1.408 . S
C1570 C1568 1.363 . S
C1570 C1571 1.370 . S
C1570 C1574 1.524 . S
C1571 C1563 1.503 . S
C1571 C1570 1.370 . S
C1571 C1572 1.403 . S
C1572 C1571 1.403 . S
C1572 C1573 1.404 . S
C1572 C1575 1.539 . S
C1573 C1569 1.408 . S
C1573 C1572 1.404 . S
C1573 H1585 0.930 . S
C1574 C1570 1.524 . S
C1574 H1586 0.956 . S
C1574 H1587 0.961 . S
C1574 H1588 0.961 . S
C1575 C1572 1.539 . S
C1575 H1589 0.958 . S
C1575 H1590 0.961 . S
C1575 H1591 0.960 . S
H1576 C1560 0.931 . S
H1577 C1565 0.929 . S
H1578 C1566 0.960 . S
H1579 C1566 0.962 . S
H1580 C1566 0.960 . S
H1581 C1567 0.961 . S
H1582 C1567 0.961 . S
H1583 C1567 0.961 . S
H1584 C1568 0.931 . S
H1585 C1573 0.930 . S
H1586 C1574 0.956 . S
H1587 C1574 0.961 . S
H1588 C1574 0.961 . S
H1589 C1575 0.958 . S
H1590 C1575 0.961 . S
H1591 C1575 0.960 . S
C1592 C1593 1.391 . S
C1592 C1594 1.394 . S
C1592 H1608 0.931 . S
C1593 C1592 1.391 . S
C1593 C1597 1.376 . S
C1594 C1592 1.394 . S
C1594 C1595 1.369 . S
C1594 C1598 1.531 . S
C1595 C1594 1.369 . S
C1595 C1596 1.410 . S
C1595 C1603 1.503 . S
C1596 C1595 1.410 . S
C1596 C1597 1.392 . S
C1596 C1599 1.511 . S
C1597 C1593 1.376 . S
C1597 C1596 1.392 . S
C1597 H1609 0.929 . S
C1598 C1594 1.531 . S
C1598 H1610 0.960 . S
C1598 H1611 0.962 . S
C1598 H1612 0.960 . S
C1599 C1596 1.511 . S
C1599 H1613 0.961 . S
C1599 H1614 0.961 . S
C1599 H1615 0.961 . S
C1600 C1601 1.370 . S
C1600 C1602 1.363 . S
C1600 H1616 0.931 . S
C1601 C1600 1.370 . S
C1601 C1605 1.408 . S
C1602 C1600 1.363 . S
C1602 C1603 1.370 . S
C1602 C1606 1.524 . S
C1603 C1595 1.503 . S
C1603 C1602 1.370 . S
C1603 C1604 1.403 . S
C1604 C1603 1.403 . S
C1604 C1605 1.404 . S
C1604 C1607 1.539 . S
C1605 C1601 1.408 . S
C1605 C1604 1.404 . S
C1605 H1617 0.930 . S
C1606 C1602 1.524 . S
C1606 H1618 0.956 . S
C1606 H1619 0.961 . S
C1606 H1620 0.961 . S
C1607 C1604 1.539 . S
C1607 H1621 0.958 . S
C1607 H1622 0.961 . S
C1607 H1623 0.960 . S
H1608 C1592 0.931 . S
H1609 C1597 0.929 . S
H1610 C1598 0.960 . S
H1611 C1598 0.962 . S
H1612 C1598 0.960 . S
H1613 C1599 0.961 . S
H1614 C1599 0.961 . S
H1615 C1599 0.961 . S
H1616 C1600 0.931 . S
H1617 C1605 0.930 . S
H1618 C1606 0.956 . S
H1619 C1606 0.961 . S
H1620 C1606 0.961 . S
H1621 C1607 0.958 . S
H1622 C1607 0.961 . S
H1623 C1607 0.960 . S
C1624 C1625 1.391 . S
C1624 C1626 1.394 . S
C1624 H1640 0.931 . S
C1625 C1624 1.391 . S
C1625 C1629 1.376 . S
C1626 C1624 1.394 . S
C1626 C1627 1.369 . S
C1626 C1630 1.531 . S
C1627 C1626 1.369 . S
C1627 C1628 1.410 . S
C1627 C1635 1.503 . S
C1628 C1627 1.410 . S
C1628 C1629 1.392 . S
C1628 C1631 1.511 . S
C1629 C1625 1.376 . S
C1629 C1628 1.392 . S
C1629 H1641 0.929 . S
C1630 C1626 1.531 . S
C1630 H1642 0.960 . S
C1630 H1643 0.962 . S
C1630 H1644 0.960 . S
C1631 C1628 1.511 . S
C1631 H1645 0.961 . S
C1631 H1646 0.961 . S
C1631 H1647 0.961 . S
C1632 C1633 1.370 . S
C1632 C1634 1.363 . S
C1632 H1648 0.931 . S
C1633 C1632 1.370 . S
C1633 C1637 1.408 . S
C1634 C1632 1.363 . S
C1634 C1635 1.370 . S
C1634 C1638 1.524 . S
C1635 C1627 1.503 . S
C1635 C1634 1.370 . S
C1635 C1636 1.403 . S
C1636 C1635 1.403 . S
C1636 C1637 1.404 . S
C1636 C1639 1.539 . S
C1637 C1633 1.408 . S
C1637 C1636 1.404 . S
C1637 H1649 0.930 . S
C1638 C1634 1.524 . S
C1638 H1650 0.956 . S
C1638 H1651 0.961 . S
C1638 H1652 0.961 . S
C1639 C1636 1.539 . S
C1639 H1653 0.958 . S
C1639 H1654 0.961 . S
C1639 H1655 0.960 . S
H1640 C1624 0.931 . S
H1641 C1629 0.929 . S
H1642 C1630 0.960 . S
H1643 C1630 0.962 . S
H1644 C1630 0.960 . S
H1645 C1631 0.961 . S
H1646 C1631 0.961 . S
H1647 C1631 0.961 . S
H1648 C1632 0.931 . S
H1649 C1637 0.930 . S
H1650 C1638 0.956 . S
H1651 C1638 0.961 . S
H1652 C1638 0.961 . S
H1653 C1639 0.958 . S
H1654 C1639 0.961 . S
H1655 C1639 0.960 . S
C1656 C1657 1.391 . S
C1656 C1658 1.394 . S
C1656 H1672 0.931 . S
C1657 C1656 1.391 . S
C1657 C1661 1.376 . S
C1658 C1656 1.394 . S
C1658 C1659 1.369 . S
C1658 C1662 1.531 . S
C1659 C1658 1.369 . S
C1659 C1660 1.410 . S
C1659 C1667 1.503 . S
C1660 C1659 1.410 . S
C1660 C1661 1.392 . S
C1660 C1663 1.511 . S
C1661 C1657 1.376 . S
C1661 C1660 1.392 . S
C1661 H1673 0.929 . S
C1662 C1658 1.531 . S
C1662 H1674 0.960 . S
C1662 H1675 0.962 . S
C1662 H1676 0.960 . S
C1663 C1660 1.511 . S
C1663 H1677 0.961 . S
C1663 H1678 0.961 . S
C1663 H1679 0.961 . S
C1664 C1665 1.370 . S
C1664 C1666 1.363 . S
C1664 H1680 0.931 . S
C1665 C1664 1.370 . S
C1665 C1669 1.408 . S
C1666 C1664 1.363 . S
C1666 C1667 1.370 . S
C1666 C1670 1.524 . S
C1667 C1659 1.503 . S
C1667 C1666 1.370 . S
C1667 C1668 1.403 . S
C1668 C1667 1.403 . S
C1668 C1669 1.404 . S
C1668 C1671 1.539 . S
C1669 C1665 1.408 . S
C1669 C1668 1.404 . S
C1669 H1681 0.930 . S
C1670 C1666 1.524 . S
C1670 H1682 0.956 . S
C1670 H1683 0.961 . S
C1670 H1684 0.961 . S
C1671 C1668 1.539 . S
C1671 H1685 0.958 . S
C1671 H1686 0.961 . S
C1671 H1687 0.960 . S
H1672 C1656 0.931 . S
H1673 C1661 0.929 . S
H1674 C1662 0.960 . S
H1675 C1662 0.962 . S
H1676 C1662 0.960 . S
H1677 C1663 0.961 . S
H1678 C1663 0.961 . S
H1679 C1663 0.961 . S
H1680 C1664 0.931 . S
H1681 C1669 0.930 . S
H1682 C1670 0.956 . S
H1683 C1670 0.961 . S
H1684 C1670 0.961 . S
H1685 C1671 0.958 . S
H1686 C1671 0.961 . S
H1687 C1671 0.960 . S
C1688 C1689 1.391 . S
C1688 C1690 1.394 . S
C1688 H1704 0.931 . S
C1689 C1688 1.391 . S
C1689 C1693 1.376 . S
C1690 C1688 1.394 . S
C1690 C1691 1.369 . S
C1690 C1694 1.531 . S
C1691 C1690 1.369 . S
C1691 C1692 1.410 . S
C1691 C1699 1.503 . S
C1692 C1691 1.410 . S
C1692 C1693 1.392 . S
C1692 C1695 1.511 . S
C1693 C1689 1.376 . S
C1693 C1692 1.392 . S
C1693 H1705 0.929 . S
C1694 C1690 1.531 . S
C1694 H1706 0.960 . S
C1694 H1707 0.962 . S
C1694 H1708 0.960 . S
C1695 C1692 1.511 . S
C1695 H1709 0.961 . S
C1695 H1710 0.961 . S
C1695 H1711 0.961 . S
C1696 C1697 1.370 . S
C1696 C1698 1.363 . S
C1696 H1712 0.931 . S
C1697 C1696 1.370 . S
C1697 C1701 1.408 . S
C1698 C1696 1.363 . S
C1698 C1699 1.370 . S
C1698 C1702 1.524 . S
C1699 C1691 1.503 . S
C1699 C1698 1.370 . S
C1699 C1700 1.403 . S
C1700 C1699 1.403 . S
C1700 C1701 1.404 . S
C1700 C1703 1.539 . S
C1701 C1697 1.408 . S
C1701 C1700 1.404 . S
C1701 H1713 0.930 . S
C1702 C1698 1.524 . S
C1702 H1714 0.956 . S
C1702 H1715 0.961 . S
C1702 H1716 0.961 . S
C1703 C1700 1.539 . S
C1703 H1717 0.958 . S
C1703 H1718 0.961 . S
C1703 H1719 0.960 . S
H1704 C1688 0.931 . S
H1705 C1693 0.929 . S
H1706 C1694 0.960 . S
H1707 C1694 0.962 . S
H1708 C1694 0.960 . S
H1709 C1695 0.961 . S
H1710 C1695 0.961 . S
H1711 C1695 0.961 . S
H1712 C1696 0.931 . S
H1713 C1701 0.930 . S
H1714 C1702 0.956 . S
H1715 C1702 0.961 . S
H1716 C1702 0.961 . S
H1717 C1703 0.958 . S
H1718 C1703 0.961 . S
H1719 C1703 0.960 . S
C1720 C1721 1.391 . S
C1720 C1722 1.394 . S
C1720 H1736 0.931 . S
C1721 C1720 1.391 . S
C1721 C1725 1.376 . S
C1722 C1720 1.394 . S
C1722 C1723 1.369 . S
C1722 C1726 1.531 . S
C1723 C1722 1.369 . S
C1723 C1724 1.410 . S
C1723 C1731 1.503 . S
C1724 C1723 1.410 . S
C1724 C1725 1.392 . S
C1724 C1727 1.511 . S
C1725 C1721 1.376 . S
C1725 C1724 1.392 . S
C1725 H1737 0.929 . S
C1726 C1722 1.531 . S
C1726 H1738 0.960 . S
C1726 H1739 0.962 . S
C1726 H1740 0.960 . S
C1727 C1724 1.511 . S
C1727 H1741 0.961 . S
C1727 H1742 0.961 . S
C1727 H1743 0.961 . S
C1728 C1729 1.370 . S
C1728 C1730 1.363 . S
C1728 H1744 0.931 . S
C1729 C1728 1.370 . S
C1729 C1733 1.408 . S
C1730 C1728 1.363 . S
C1730 C1731 1.370 . S
C1730 C1734 1.524 . S
C1731 C1723 1.503 . S
C1731 C1730 1.370 . S
C1731 C1732 1.403 . S
C1732 C1731 1.403 . S
C1732 C1733 1.404 . S
C1732 C1735 1.539 . S
C1733 C1729 1.408 . S
C1733 C1732 1.404 . S
C1733 H1745 0.930 . S
C1734 C1730 1.524 . S
C1734 H1746 0.956 . S
C1734 H1747 0.961 . S
C1734 H1748 0.961 . S
C1735 C1732 1.539 . S
C1735 H1749 0.958 . S
C1735 H1750 0.961 . S
C1735 H1751 0.960 . S
H1736 C1720 0.931 . S
H1737 C1725 0.929 . S
H1738 C1726 0.960 . S
H1739 C1726 0.962 . S
H1740 C1726 0.960 . S
H1741 C1727 0.961 . S
H1742 C1727 0.961 . S
H1743 C1727 0.961 . S
H1744 C1728 0.931 . S
H1745 C1733 0.930 . S
H1746 C1734 0.956 . S
H1747 C1734 0.961 . S
H1748 C1734 0.961 . S
H1749 C1735 0.958 . S
H1750 C1735 0.961 . S
H1751 C1735 0.960 . S
C409 C241 1.671 . S
C417 C22 1.746 . S
C441 C56 1.749 . S
C449 C275 1.684 . S
C473 C90 1.761 . S
C481 C207 1.676 . S
C505 C124 1.758 . S
C513 C377 1.680 . S
C537 C307 1.638 . S
C545 C158 1.754 . S
C569 C192 1.746 . S
C577 C341 1.656 . S
C601 C219 1.761 . S
C609 C35 1.680 . S
C633 C253 1.741 . S
C641 C69 1.656 . S
C665 C1 1.647 . S
C673 C287 1.755 . S
C697 C328 1.738 . S
C705 C171 1.657 . S
C729 C362 1.732 . S
C737 C103 1.666 . S
C761 C137 1.650 . S
C769 C389 1.745 . S
C793 C3 1.496 . S
C801 C105 1.453 . S
C825 C37 1.496 . S
C833 C139 1.452 . S
C857 C71 1.423 . S
C865 C173 1.474 . S
C889 C309 1.425 . S
C897 C205 1.461 . S
C921 C343 1.417 . S
C929 C239 1.469 . S
C953 C375 1.422 . S
C961 C273 1.476 . S
C985 C17 1.929 . S
C993 C49 1.706 . S
C1017 C51 1.937 . S
C1025 C83 1.700 . S
C1049 C85 1.930 . S
C1057 C15 1.686 . S
C1081 C185 1.668 . S
C1089 C119 1.950 . S
C1113 C153 1.925 . S
C1121 C117 1.702 . S
C1145 C151 1.662 . S
C1153 C187 1.943 . S
C1177 C260 1.648 . S
C1185 C221 1.950 . S
C1209 C255 1.925 . S
C1217 C294 1.698 . S
C1241 C289 1.925 . S
C1249 C226 1.699 . S
C1273 C323 1.952 . S
C1281 C396 1.667 . S
C1305 C357 1.930 . S
C1313 C321 1.680 . S
C1337 C391 1.948 . S
C1345 C355 1.693 . S
C1369 C368 1.229 . S
C1377 C6 1.225 1_556 S
C1401 C380 1.233 . S
C1409 C40 1.233 1_556 S
C1433 C74 1.225 1_556 S
C1441 C334 1.233 . S
C1465 C108 1.226 . S
C1473 C278 1.233 . S
C1497 C142 1.218 . S
C1505 C210 1.233 . S
C1529 C244 1.230 . S
C1537 C176 1.232 . S
C1561 C232 1.219 1_554 S
C1569 C164 1.234 . S
C1593 C266 1.226 1_554 S
C1601 C198 1.234 . S
C1625 C300 1.215 1_554 S
C1633 C130 1.233 . S
C1657 C312 1.224 . S
C1665 C96 1.234 . S
C1689 C346 1.228 . S
C1697 C28 1.233 . S
C1721 C402 1.228 . S
C1729 C62 1.233 . S
