# Generated by pormake.
# Topology sml, (6)-cn, num edge types: 1
# Building blocks:
#     Node 0, Type 0, BuildingBlock: HISSIN_clean_sbu_0, # of connection points: 6
#     Node 1, Type 0, BuildingBlock: HISSIN_clean_sbu_0, # of connection points: 6
#     Node 2, Type 0, BuildingBlock: HISSIN_clean_sbu_0, # of connection points: 6
#     Node 3, Type 0, BuildingBlock: HISSIN_clean_sbu_0, # of connection points: 6
#     Node 4, Type 0, BuildingBlock: HISSIN_clean_sbu_0, # of connection points: 6
#     Node 5, Type 0, BuildingBlock: HISSIN_clean_sbu_0, # of connection points: 6
#     Edge 6, Type (0, 0), BuildingBlock: ZUJKAS_clean_linker_0, # of connection points: 2
#     Edge 7, Type (0, 0), BuildingBlock: ZUJKAS_clean_linker_0, # of connection points: 2
#     Edge 8, Type (0, 0), BuildingBlock: ZUJKAS_clean_linker_0, # of connection points: 2
#     Edge 9, Type (0, 0), BuildingBlock: ZUJKAS_clean_linker_0, # of connection points: 2
#     Edge 10, Type (0, 0), BuildingBlock: ZUJKAS_clean_linker_0, # of connection points: 2
#     Edge 11, Type (0, 0), BuildingBlock: ZUJKAS_clean_linker_0, # of connection points: 2
#     Edge 12, Type (0, 0), BuildingBlock: ZUJKAS_clean_linker_0, # of connection points: 2
#     Edge 13, Type (0, 0), BuildingBlock: ZUJKAS_clean_linker_0, # of connection points: 2
#     Edge 14, Type (0, 0), BuildingBlock: ZUJKAS_clean_linker_0, # of connection points: 2
#     Edge 15, Type (0, 0), BuildingBlock: ZUJKAS_clean_linker_0, # of connection points: 2
#     Edge 16, Type (0, 0), BuildingBlock: ZUJKAS_clean_linker_0, # of connection points: 2
#     Edge 17, Type (0, 0), BuildingBlock: ZUJKAS_clean_linker_0, # of connection points: 2
#     Edge 18, Type (0, 0), BuildingBlock: ZUJKAS_clean_linker_0, # of connection points: 2
#     Edge 19, Type (0, 0), BuildingBlock: ZUJKAS_clean_linker_0, # of connection points: 2
#     Edge 20, Type (0, 0), BuildingBlock: ZUJKAS_clean_linker_0, # of connection points: 2
#     Edge 21, Type (0, 0), BuildingBlock: ZUJKAS_clean_linker_0, # of connection points: 2
#     Edge 22, Type (0, 0), BuildingBlock: ZUJKAS_clean_linker_0, # of connection points: 2
#     Edge 23, Type (0, 0), BuildingBlock: ZUJKAS_clean_linker_0, # of connection points: 2
# Relax obj value: 0.144
# Max RMSD: 0.196
# Mean RMSD: 0.196
data_MOF--net-sml--node1-HISSIN_clean_sbu_0--edge1-ZUJKAS_clean_linker_0
_symmetry_space_group_name_H-M    P1
_symmetry_Int_Tables_number       1
_symmetry_cell_setting            triclinic
loop_
_symmetry_equiv_pos_as_xyz
'x, y, z'
_cell_length_a     43.960781
_cell_length_b     44.042611
_cell_length_c     29.647085
_cell_angle_alpha  89.915958
_cell_angle_beta   90.148466
_cell_angle_gamma 120.24719
loop_
_atom_site_label
_atom_site_type_symbol
_atom_site_fract_x
_atom_site_fract_y
_atom_site_fract_z
_atom_type_partial_charge
Eu0 Eu 0.19347 0.41447 0.08793 0.0
Eu1 Eu 0.14684 0.40592 0.99583 0.0
C2 C 0.15711 0.45937 0.07501 0.0
C3 C 0.21684 0.41828 0.21165 0.0
C4 C 0.18405 0.41373 0.22435 0.0
C5 C 0.23051 0.41566 0.29042 0.0
C6 C 0.17464 0.41036 0.26991 0.0
C7 C 0.23995 0.41917 0.24488 0.0
C8 C 0.19776 0.41125 0.3035 0.0
C9 C 0.22681 0.4216 0.16385 0.0
O10 O 0.2027 0.42767 0.9735 0.0
O11 O 0.22927 0.45678 0.03887 0.0
C12 C 0.23005 0.45216 0.99521 0.0
O13 O 0.20429 0.38113 0.04175 0.0
O14 O 0.13677 0.43158 0.93968 0.0
O15 O 0.10479 0.3751 0.94742 0.0
O16 O 0.15459 0.35888 0.99708 0.0
C17 C 0.18143 0.35727 0.01409 0.0
O18 O 0.1402 0.36635 0.09612 0.0
O19 O 0.10785 0.38288 0.05275 0.0
O20 O 0.15998 0.45675 0.03129 0.0
O21 O 0.21155 0.39254 0.14056 0.0
O22 O 0.22768 0.44779 0.14205 0.0
O23 O 0.1598 0.43782 0.10282 0.0
C24 C 0.11643 0.39812 0.87335 0.0
C25 C 0.14585 0.39725 0.85683 0.0
C26 C 0.09581 0.39526 0.79658 0.0
C27 C 0.15038 0.39569 0.81034 0.0
C28 C 0.09133 0.39683 0.84303 0.0
C29 C 0.12557 0.39503 0.77961 0.0
C30 C 0.11255 0.40218 0.92182 0.0
C31 C 0.11019 0.36427 0.08581 0.0
H32 H 0.16574 0.41271 0.19902 0.0
H33 H 0.2491 0.41691 0.31545 0.0
H34 H 0.14911 0.40665 0.27878 0.0
H35 H 0.26533 0.42262 0.23562 0.0
H36 H 0.16561 0.39843 0.87985 0.0
H37 H 0.07595 0.39426 0.77394 0.0
H38 H 0.17378 0.39594 0.79846 0.0
H39 H 0.06846 0.39749 0.85526 0.0
Eu40 Eu 0.7961 0.21613 0.46173 0.0
Eu41 Eu 0.84447 0.25615 0.55309 0.0
C42 C 0.83216 0.29856 0.47364 0.0
C43 C 0.77273 0.19512 0.33797 0.0
C44 C 0.80533 0.22359 0.32473 0.0
C45 C 0.7586 0.17826 0.25937 0.0
C46 C 0.81444 0.22944 0.27902 0.0
C47 C 0.74948 0.17252 0.30505 0.0
C48 C 0.79121 0.20679 0.24574 0.0
C49 C 0.76305 0.18856 0.38596 0.0
O50 O 0.7887 0.22383 0.57676 0.0
O51 O 0.75937 0.22046 0.51101 0.0
C52 C 0.76019 0.2181 0.55521 0.0
O53 O 0.78528 0.17292 0.50972 0.0
O54 O 0.8561 0.29241 0.60902 0.0
O55 O 0.88653 0.2665 0.60109 0.0
O56 O 0.83609 0.20096 0.55222 0.0
C57 C 0.80855 0.17219 0.53675 0.0
O58 O 0.84952 0.22186 0.4539 0.0
O59 O 0.88222 0.27208 0.49484 0.0
O60 O 0.83302 0.29498 0.51759 0.0
O61 O 0.77916 0.17585 0.40956 0.0
O62 O 0.76125 0.21348 0.40738 0.0
O63 O 0.82749 0.2734 0.44609 0.0
C64 C 0.87531 0.27794 0.67536 0.0
C65 C 0.84495 0.24822 0.69164 0.0
C66 C 0.89608 0.29447 0.75239 0.0
C67 C 0.84004 0.24181 0.73808 0.0
C68 C 0.90093 0.30084 0.70597 0.0
C69 C 0.86541 0.26505 0.76911 0.0
C70 C 0.87961 0.28626 0.62687 0.0
C71 C 0.87943 0.25061 0.46234 0.0
H72 H 0.82375 0.24122 0.34978 0.0
H73 H 0.73987 0.16059 0.23467 0.0
H74 H 0.83986 0.25144 0.2698 0.0
H75 H 0.72422 0.15041 0.31468 0.0
H76 H 0.82476 0.23034 0.66845 0.0
H77 H 0.91638 0.31262 0.77521 0.0
H78 H 0.81594 0.21915 0.74969 0.0
H79 H 0.92452 0.32393 0.69398 0.0
Eu80 Eu 0.57648 0.77998 0.75336 0.0
Eu81 Eu 0.58405 0.74057 0.6621 0.0
C82 C 0.52665 0.69904 0.73767 0.0
C83 C 0.57221 0.79986 0.87709 0.0
C84 C 0.57647 0.77168 0.89073 0.0
C85 C 0.57228 0.81545 0.95561 0.0
C86 C 0.57852 0.76537 0.93663 0.0
C87 C 0.57017 0.82168 0.90975 0.0
C88 C 0.57643 0.78719 0.96969 0.0
C89 C 0.57043 0.80698 0.82897 0.0
O90 O 0.56453 0.77575 0.63747 0.0
O91 O 0.53754 0.77878 0.70215 0.0
C92 C 0.54201 0.78215 0.65812 0.0
O93 O 0.61181 0.82374 0.70744 0.0
O94 O 0.55837 0.70412 0.6065 0.0
O95 O 0.61492 0.72934 0.61423 0.0
O96 O 0.63271 0.79474 0.6643 0.0
C97 C 0.63531 0.82388 0.68013 0.0
O98 O 0.62221 0.77135 0.76343 0.0
O99 O 0.60282 0.72173 0.72082 0.0
O100 O 0.53089 0.70521 0.6942 0.0
O101 O 0.59984 0.81932 0.80664 0.0
O102 O 0.54364 0.78265 0.80653 0.0
O103 O 0.54812 0.72213 0.76683 0.0
C104 C 0.59173 0.71825 0.54013 0.0
C105 C 0.59276 0.74881 0.52437 0.0
C106 C 0.59375 0.70128 0.46276 0.0
C107 C 0.59392 0.75539 0.47803 0.0
C108 C 0.59251 0.6947 0.50912 0.0
C109 C 0.5941 0.73153 0.4466 0.0
C110 C 0.58783 0.70981 0.58854 0.0
C111 C 0.62149 0.74185 0.75454 0.0
H112 H 0.57817 0.75458 0.86588 0.0
H113 H 0.57116 0.83313 0.98002 0.0
H114 H 0.58131 0.74316 0.9462 0.0
H115 H 0.56713 0.84369 0.89977 0.0
H116 H 0.59214 0.7673 0.5479 0.0
H117 H 0.59344 0.68215 0.43956 0.0
H118 H 0.59464 0.77916 0.46681 0.0
H119 H 0.59148 0.67086 0.52072 0.0
Eu120 Eu 0.77773 0.57431 0.13039 0.0
Eu121 Eu 0.73575 0.58244 0.21994 0.0
C122 C 0.6968 0.52146 0.14858 0.0
C123 C 0.79771 0.56832 1.00731 0.0
C124 C 0.76888 0.57162 0.9937 0.0
C125 C 0.81323 0.5688 0.92854 0.0
C126 C 0.76227 0.57351 0.94782 0.0
C127 C 0.81978 0.56689 0.97443 0.0
C128 C 0.78442 0.5722 0.91459 0.0
C129 C 0.80534 0.56725 0.05561 0.0
O130 O 0.75228 0.54269 0.23596 0.0
O131 O 0.80069 0.56146 0.19028 0.0
C132 C 0.78229 0.54451 0.22599 0.0
O133 O 0.81143 0.62903 0.15685 0.0
O134 O 0.69616 0.55672 0.27254 0.0
O135 O 0.72835 0.61348 0.27156 0.0
O136 O 0.79371 0.61971 0.23075 0.0
C137 C 0.81688 0.63808 0.19948 0.0
O138 O 0.74321 0.59382 0.10365 0.0
O139 O 0.73293 0.61786 0.167 0.0
O140 O 0.69431 0.54592 0.1706 0.0
O141 O 0.81752 0.59679 0.07737 0.0
O142 O 0.78137 0.54086 0.07873 0.0
O143 O 0.72738 0.52358 0.14314 0.0
C144 C 0.71209 0.58576 0.34281 0.0
C145 C 0.74156 0.58441 0.35841 0.0
C146 C 0.69455 0.58592 0.4205 0.0
C147 C 0.7475 0.58384 0.40478 0.0
C148 C 0.68868 0.58655 0.37413 0.0
C149 C 0.72402 0.58452 0.4365 0.0
C150 C 0.70537 0.58593 0.29407 0.0
C151 C 0.73371 0.61447 0.12301 0.0
H152 H 0.7516 0.57298 0.01858 0.0
H153 H 0.83057 0.56724 0.90395 0.0
H154 H 0.74014 0.57658 0.93843 0.0
H155 H 0.84217 0.56437 0.98425 0.0
H156 H 0.75986 0.58362 0.33468 0.0
H157 H 0.67617 0.58695 0.44383 0.0
H158 H 0.77019 0.5823 0.41577 0.0
H159 H 0.66581 0.58763 0.36272 0.0
Eu160 Eu 0.21308 0.79654 0.41628 0.0
Eu161 Eu 0.25362 0.84471 0.32578 0.0
C162 C 0.29595 0.83417 0.40681 0.0
C163 C 0.19095 0.77401 0.53993 0.0
C164 C 0.21998 0.80621 0.55332 0.0
C165 C 0.17345 0.76053 0.61843 0.0
C166 C 0.22582 0.81539 0.59905 0.0
C167 C 0.16772 0.75132 0.57273 0.0
C168 C 0.20263 0.79265 0.63222 0.0
C169 C 0.18471 0.76402 0.49194 0.0
O170 O 0.22333 0.78885 0.30222 0.0
O171 O 0.2202 0.76049 0.36867 0.0
C172 C 0.21826 0.76087 0.32436 0.0
O173 O 0.1709 0.78229 0.36467 0.0
O174 O 0.29058 0.85713 0.27042 0.0
O175 O 0.26318 0.88617 0.27742 0.0
O176 O 0.19765 0.83458 0.32591 0.0
C177 C 0.16938 0.80489 0.33729 0.0
O178 O 0.21723 0.84936 0.42235 0.0
O179 O 0.26851 0.88241 0.38384 0.0
O180 O 0.29248 0.83392 0.36271 0.0
O181 O 0.17214 0.77991 0.46758 0.0
O182 O 0.20984 0.76203 0.47126 0.0
O183 O 0.27019 0.82907 0.43356 0.0
C184 C 0.27561 0.87525 0.20349 0.0
C185 C 0.24534 0.84533 0.18729 0.0
C186 C 0.29281 0.89506 0.1263 0.0
C187 C 0.23894 0.84021 0.14082 0.0
C188 C 0.29915 0.90014 0.17275 0.0
C189 C 0.26275 0.8649 0.10968 0.0
C190 C 0.28368 0.87992 0.2521 0.0
C191 C 0.2463 0.87933 0.41546 0.0
H192 H 0.23811 0.82421 0.52839 0.0
H193 H 0.15532 0.74219 0.64303 0.0
H194 H 0.24832 0.84045 0.60838 0.0
H195 H 0.14519 0.72638 0.56302 0.0
H196 H 0.22697 0.82568 0.21057 0.0
H197 H 0.31144 0.91483 0.10341 0.0
H198 H 0.21577 0.8165 0.12929 0.0
H199 H 0.32267 0.92337 0.18466 0.0
Eu200 Eu 0.40678 0.19793 0.78657 0.0
Eu201 Eu 0.40451 0.15245 0.87787 0.0
C202 C 0.45767 0.16685 0.79629 0.0
C203 C 0.40588 0.21952 0.66273 0.0
C204 C 0.40234 0.18726 0.64969 0.0
C205 C 0.40551 0.23432 0.58389 0.0
C206 C 0.40055 0.17865 0.60393 0.0
C207 C 0.40732 0.24289 0.62961 0.0
C208 C 0.40227 0.20216 0.57041 0.0
C209 C 0.40828 0.22902 0.71069 0.0
O210 O 0.42662 0.20803 0.90102 0.0
O211 O 0.44819 0.23734 0.83394 0.0
C212 C 0.44712 0.2368 0.87831 0.0
O213 O 0.37453 0.20737 0.83636 0.0
O214 O 0.4322 0.14366 0.93278 0.0
O215 O 0.37574 0.10997 0.92638 0.0
O216 O 0.3561 0.15801 0.88036 0.0
C217 C 0.35275 0.1844 0.86567 0.0
O218 O 0.36056 0.14311 0.78107 0.0
O219 O 0.3826 0.11382 0.82049 0.0
O220 O 0.45492 0.16741 0.84036 0.0
O221 O 0.3798 0.21064 0.73446 0.0
O222 O 0.43646 0.23392 0.7319 0.0
O223 O 0.43529 0.16936 0.76964 0.0
C224 C 0.39981 0.12345 0.99995 0.0
C225 C 0.399 0.15302 0.01588 0.0
C226 C 0.39686 0.10365 0.07719 0.0
C227 C 0.39746 0.15805 0.06224 0.0
C228 C 0.39849 0.09871 0.03082 0.0
C229 C 0.39662 0.13354 0.09352 0.0
C230 C 0.40347 0.11901 0.95144 0.0
C231 C 0.36182 0.11451 0.78914 0.0
H232 H 0.40119 0.16886 0.67489 0.0
H233 H 0.40633 0.2528 0.55909 0.0
H234 H 0.39846 0.15386 0.59484 0.0
H235 H 0.40988 0.26783 0.63911 0.0
H236 H 0.39996 0.17241 0.99247 0.0
H237 H 0.39666 0.08448 0.10029 0.0
H238 H 0.39684 0.1811 0.07357 0.0
H239 H 0.39927 0.07582 0.0191 0.0
H240 H 0.32454 0.21991 0.82537 0.0
H241 H 0.28212 0.23414 0.8572 0.0
H242 H 0.27397 0.17473 0.97681 0.0
H243 H 0.31646 0.15992 0.94494 0.0
H244 H 0.20646 0.18325 0.90794 0.0
H245 H 0.32064 0.28926 1.00229 0.0
H246 H 0.32719 0.27253 0.94991 0.0
H247 H 0.31446 0.2456 0.99946 0.0
C248 C 0.31337 0.2094 0.85818 0.0
C249 C 0.32411 0.18922 0.88301 0.0
C250 C 0.28891 0.21727 0.87605 0.0
C251 C 0.27504 0.20535 0.91911 0.0
C252 C 0.28432 0.18381 0.94327 0.0
H253 H 0.20151 0.32301 0.07122 0.0
H254 H 0.21618 0.27793 0.05277 0.0
C255 C 0.30861 0.17554 0.92514 0.0
C256 C 0.25508 0.21991 0.94063 0.0
H257 H 0.26839 0.29088 1.00168 0.0
C258 C 0.21959 0.20639 0.92922 0.0
C259 C 0.27256 0.25001 0.96816 0.0
C260 C 0.31084 0.26545 0.98086 0.0
C261 C 0.2012 0.22292 0.94401 0.0
C262 C 0.21928 0.25424 0.96958 0.0
C263 C 0.25447 0.26685 0.98217 0.0
C264 C 0.20345 0.27586 0.98181 0.0
C265 C 0.16278 0.20679 0.93194 0.0
C266 C 0.19036 0.28895 0.94829 0.0
C267 C 0.18124 0.31426 0.95906 0.0
C268 C 0.18616 0.32745 1.00312 0.0
C269 C 0.19794 0.31343 0.03685 0.0
C270 C 0.20617 0.28762 0.02639 0.0
H271 H 0.15024 0.1779 0.92732 0.0
H272 H 0.14811 0.21208 0.95823 0.0
H273 H 0.1604 0.21809 0.89955 0.0
H274 H 0.18895 0.28103 0.91344 0.0
H275 H 0.17235 0.32493 0.93255 0.0
H276 H 0.05523 0.37534 0.10047 0.0
H277 H 0.01507 0.35417 0.16499 0.0
H278 H 0.05931 0.29086 0.20783 0.0
H279 H 0.09986 0.31229 0.14407 0.0
H280 H 0.96511 0.28846 0.19805 0.0
H281 H 0.07873 0.35713 0.31477 0.0
H282 H 0.08249 0.36449 0.25464 0.0
H283 H 0.08205 0.32658 0.27802 0.0
C284 C 0.05578 0.35626 0.12302 0.0
C285 C 0.0809 0.34576 0.11767 0.0
C286 C 0.03301 0.34437 0.15995 0.0
C287 C 0.03507 0.32181 0.19168 0.0
C288 C 0.05809 0.30906 0.18428 0.0
H289 H 0.88854 0.20819 0.4043 0.0
H290 H 0.92842 0.22651 0.33993 0.0
C291 C 0.08101 0.32111 0.1477 0.0
C292 C 0.01453 0.31298 0.23374 0.0
H293 H 0.02311 0.31851 0.34833 0.0
C294 C 0.97771 0.29507 0.23093 0.0
C295 C 0.03123 0.32251 0.27645 0.0
C296 C 0.07079 0.34406 0.2813 0.0
C297 C 0.95699 0.28541 0.26993 0.0
C298 C 0.97368 0.2932 0.31267 0.0
C299 C 0.01051 0.31207 0.31546 0.0
C300 C 0.95316 0.28205 0.3548 0.0
C301 C 0.91745 0.26742 0.26501 0.0
C302 C 0.95566 0.30715 0.38597 0.0
C303 C 0.93326 0.29673 0.42326 0.0
C304 C 0.90808 0.26109 0.42957 0.0
C305 C 0.90743 0.23588 0.39996 0.0
C306 C 0.92997 0.24629 0.36301 0.0
H307 H 0.90961 0.27222 0.23127 0.0
H308 H 0.90597 0.23863 0.26898 0.0
H309 H 0.9059 0.27656 0.29123 0.0
H310 H 0.97375 0.33488 0.38031 0.0
H311 H 0.93425 0.31671 0.44548 0.0
H312 H 0.82266 0.15087 0.61706 0.0
H313 H 0.80539 0.09031 0.63816 0.0
H314 H 0.76706 0.05576 0.50289 0.0
H315 H 0.78283 0.11554 0.48246 0.0
H316 H 0.71771 0.02093 0.56318 0.0
H317 H 0.83881 0.02117 0.61625 0.0
H318 H 0.83298 0.05387 0.64457 0.0
H319 H 0.83998 0.05682 0.58457 0.0
C320 C 0.81121 0.13035 0.59178 0.0
C321 C 0.80352 0.13754 0.54845 0.0
C322 C 0.80165 0.09588 0.60366 0.0
C323 C 0.78516 0.06856 0.57195 0.0
C324 C 0.77971 0.07641 0.52787 0.0
H325 H 0.67543 0.83969 0.60358 0.0
H326 H 0.71803 0.89881 0.57592 0.0
C327 C 0.78854 0.11049 0.51633 0.0
C328 C 0.76872 0.03132 0.58592 0.0
H329 H 0.78363 0.97086 0.63835 0.0
C330 C 0.73233 0.00991 0.57885 0.0
C331 C 0.78777 0.01699 0.60653 0.0
C332 C 0.82711 0.03832 0.61305 0.0
C333 C 0.71431 0.97486 0.59283 0.0
C334 C 0.73307 0.96093 0.61485 0.0
C335 C 0.76953 0.98186 0.62126 0.0
C336 C 0.71393 0.92556 0.6347 0.0
C337 C 0.67503 0.95309 0.58536 0.0
C338 C 0.69841 0.92143 0.67709 0.0
C339 C 0.67391 0.88806 0.69255 0.0
C340 C 0.6647 0.85826 0.66593 0.0
C341 C 0.68207 0.86225 0.62471 0.0
C342 C 0.70645 0.89586 0.60901 0.0
H343 H 0.66485 0.96703 0.56447 0.0
H344 H 0.66829 0.92796 0.56852 0.0
H345 H 0.66135 0.94657 0.61841 0.0
H346 H 0.7038 0.94419 0.69708 0.0
H347 H 0.66129 0.88573 0.72473 0.0
H348 H 0.60384 0.67382 0.77033 0.0
H349 H 0.62149 0.65181 0.83528 0.0
H350 H 0.69109 0.75827 0.8796 0.0
H351 H 0.67295 0.7804 0.81556 0.0
H352 H 0.68294 0.66047 0.86563 0.0
H353 H 0.62937 0.71527 0.9892 0.0
H354 H 0.6209 0.71407 0.92948 0.0
H355 H 0.66136 0.74874 0.95301 0.0
C356 C 0.62338 0.69253 0.79349 0.0
C357 C 0.63686 0.7288 0.78814 0.0
C358 C 0.63323 0.67992 0.83071 0.0
C359 C 0.65677 0.70342 0.86289 0.0
C360 C 0.67201 0.73969 0.85592 0.0
H361 H 0.77313 0.65862 0.05743 0.0
H362 H 0.75297 0.68136 0.99613 0.0
C363 C 0.66191 0.75229 0.81908 0.0
C364 C 0.66524 0.69012 0.904 0.0
H365 H 0.66774 0.69611 0.01888 0.0
C366 C 0.67938 0.66803 0.89915 0.0
C367 C 0.65964 0.69924 0.94772 0.0
C368 C 0.64161 0.72031 0.95524 0.0
C369 C 0.68941 0.6559 0.93685 0.0
C370 C 0.68628 0.66722 0.98042 0.0
C371 C 0.67078 0.68811 0.98539 0.0
C372 C 0.69955 0.65803 0.021 0.0
C373 C 0.70292 0.63082 0.92951 0.0
C374 C 0.67692 0.63983 0.0571 0.0
C375 C 0.68881 0.62783 0.09299 0.0
C376 C 0.7233 0.63384 0.09273 0.0
C377 C 0.74641 0.65385 0.0581 0.0
C378 C 0.7348 0.66637 0.02288 0.0
H379 H 0.69294 0.61613 0.89732 0.0
H380 H 0.73209 0.64593 0.92759 0.0
H381 H 0.69513 0.61156 0.95752 0.0
H382 H 0.64969 0.63346 0.05641 0.0
H383 H 0.67054 0.61198 0.11922 0.0
H384 H 0.11518 0.74033 0.31756 0.0
H385 H 0.05573 0.72452 0.29469 0.0
H386 H 0.08493 0.83393 0.29739 0.0
H387 H 0.14535 0.85004 0.31834 0.0
H388 H 0.01054 0.73357 0.34258 0.0
H389 H 0.03343 0.80389 0.17914 0.0
H390 H 0.06724 0.79902 0.20699 0.0
H391 H 0.05655 0.83111 0.22665 0.0
C392 C 0.10904 0.76106 0.31267 0.0
C393 C 0.13468 0.79636 0.3197 0.0
C394 C 0.07508 0.75202 0.29971 0.0
C395 C 0.06584 0.77802 0.29424 0.0
C396 C 0.0916 0.81349 0.30055 0.0
H397 H 0.83484 0.67803 0.27629 0.0
H398 H 0.89446 0.72101 0.3017 0.0
C399 C 0.12601 0.82265 0.31264 0.0
C400 C 0.02868 0.76705 0.2841 0.0
H401 H 0.97477 0.77032 0.20366 0.0
C402 C 0.00264 0.74179 0.31237 0.0
C403 C 0.01858 0.77804 0.24483 0.0
C404 C 0.04533 0.80429 0.21239 0.0
C405 C 0.9669 0.72521 0.30088 0.0
C406 C 0.95673 0.73554 0.26099 0.0
C407 C 0.98263 0.76256 0.23429 0.0
C408 C 0.92034 0.71515 0.24303 0.0
C409 C 0.9409 0.69506 0.32993 0.0
C410 C 0.91496 0.6996 0.20029 0.0
C411 C 0.88105 0.67603 0.18519 0.0
C412 C 0.85185 0.66707 0.21288 0.0
C413 C 0.85699 0.68409 0.2546 0.0
C414 C 0.891 0.70846 0.26924 0.0
H415 H 0.95418 0.68564 0.35332 0.0
H416 H 0.92581 0.70385 0.35068 0.0
H417 H 0.92205 0.67253 0.30886 0.0
H418 H 0.93712 0.70437 0.17938 0.0
H419 H 0.87796 0.66336 0.15285 0.0
H420 H 0.375 0.06096 0.77415 0.0
H421 H 0.3535 0.01978 0.71067 0.0
H422 H 0.28722 0.06079 0.66833 0.0
H423 H 0.30886 0.10229 0.73105 0.0
H424 H 0.28731 0.96808 0.68037 0.0
H425 H 0.3516 0.07885 0.55952 0.0
H426 H 0.35994 0.08433 0.61941 0.0
H427 H 0.32111 0.08234 0.59625 0.0
C428 C 0.35529 0.06068 0.75187 0.0
C429 C 0.34392 0.08511 0.75717 0.0
C430 C 0.34318 0.03729 0.71556 0.0
C431 C 0.31955 0.03802 0.68432 0.0
C432 C 0.30618 0.06054 0.69152 0.0
H433 H 0.2038 0.88596 0.47645 0.0
H434 H 0.22221 0.92592 0.54078 0.0
C435 C 0.3184 0.08404 0.72751 0.0
C436 C 0.3101 0.01655 0.64297 0.0
H437 H 0.31264 0.02247 0.52814 0.0
C438 C 0.29289 0.97988 0.64706 0.0
C439 C 0.31827 0.03222 0.59967 0.0
C440 C 0.33907 0.0716 0.59333 0.0
C441 C 0.28267 0.9583 0.60878 0.0
C442 C 0.28911 0.97394 0.56548 0.0
C443 C 0.30721 0.01063 0.56143 0.0
C444 C 0.27762 0.95255 0.52397 0.0
C445 C 0.26563 0.91903 0.61505 0.0
C446 C 0.30247 0.9559 0.4918 0.0
C447 C 0.29198 0.93349 0.45454 0.0
C448 C 0.25648 0.9074 0.44912 0.0
C449 C 0.2314 0.9056 0.47998 0.0
C450 C 0.24188 0.92816 0.51696 0.0
H451 H 0.2716 0.91225 0.64879 0.0
H452 H 0.23663 0.90686 0.61221 0.0
H453 H 0.27455 0.90728 0.58882 0.0
H454 H 0.33016 0.97488 0.49649 0.0
H455 H 0.31191 0.93542 0.4314 0.0
H456 H 0.11394 0.43223 0.71455 0.0
H457 H 0.12346 0.43267 0.63328 0.0
H458 H 0.16078 0.35975 0.65129 0.0
H459 H 0.15028 0.35827 0.73251 0.0
H460 H 0.18628 0.4528 0.5888 0.0
H461 H 0.0877 0.31379 0.55071 0.0
H462 H 0.08779 0.33475 0.60304 0.0
H463 H 0.11816 0.31922 0.59476 0.0
C464 C 0.12361 0.41581 0.70119 0.0
C465 C 0.13111 0.39501 0.73007 0.0
C466 C 0.12928 0.4163 0.65475 0.0
C467 C 0.14234 0.39587 0.63613 0.0
C468 C 0.15005 0.37522 0.66481 0.0
H469 H 0.20792 0.37319 0.36884 0.0
H470 H 0.19403 0.36977 0.44927 0.0
C471 C 0.14441 0.37472 0.7113 0.0
C472 C 0.1491 0.39722 0.58693 0.0
H473 H 0.1273 0.34673 0.49178 0.0
C474 C 0.17324 0.42966 0.56752 0.0
C475 C 0.13206 0.36698 0.55926 0.0
C476 C 0.10473 0.33175 0.57782 0.0
C477 C 0.18132 0.43255 0.52136 0.0
C478 C 0.16442 0.40229 0.49375 0.0
C479 C 0.14022 0.36986 0.51308 0.0
C480 C 0.17187 0.40376 0.44479 0.0
C481 C 0.20849 0.46781 0.50267 0.0
C482 C 0.16345 0.42354 0.41552 0.0
C483 C 0.17144 0.42564 0.36957 0.0
C484 C 0.18801 0.40797 0.35203 0.0
C485 C 0.19571 0.38758 0.38138 0.0
C486 C 0.18759 0.3854 0.42728 0.0
H487 H 0.22469 0.48638 0.52978 0.0
H488 H 0.22625 0.46492 0.47872 0.0
H489 H 0.19496 0.47954 0.48408 0.0
H490 H 0.15083 0.43749 0.42827 0.0
H491 H 0.16531 0.4417 0.34797 0.0
H492 H 0.82425 0.26958 0.20009 0.0
H493 H 0.83809 0.27915 0.11955 0.0
H494 H 0.79394 0.16769 0.10056 0.0
H495 H 0.78009 0.15788 0.18095 0.0
H496 H 0.87968 0.26282 0.06564 0.0
H497 H 0.74077 0.19136 1.00718 0.0
H498 H 0.75272 0.20408 0.06527 0.0
H499 H 0.75234 0.16589 0.04315 0.0
C500 C 0.8177 0.24711 0.17887 0.0
C501 C 0.80073 0.2129 0.19699 0.0
C502 C 0.82551 0.25262 0.13278 0.0
C503 C 0.81643 0.22408 0.10383 0.0
C504 C 0.80035 0.19003 0.122 0.0
H505 H 0.83716 0.20257 0.81539 0.0
H506 H 0.8265 0.19302 0.89658 0.0
C507 C 0.79245 0.18447 0.16801 0.0
C508 C 0.8239 0.22993 0.0547 0.0
H509 H 0.78469 0.2091 0.95084 0.0
C510 C 0.85891 0.2512 0.04053 0.0
C511 C 0.79678 0.21474 0.02194 0.0
C512 C 0.7585 0.193 0.03504 0.0
C513 C 0.86759 0.25716 0.99449 0.0
C514 C 0.84046 0.24191 0.96176 0.0
C515 C 0.80547 0.22065 0.97594 0.0
C516 C 0.84769 0.24797 0.91261 0.0
C517 C 0.90581 0.27916 0.98129 0.0
C518 C 0.86278 0.28198 0.89453 0.0
C519 C 0.86876 0.28752 0.84812 0.0
C520 C 0.85957 0.25911 0.81867 0.0
C521 C 0.84427 0.22502 0.83694 0.0
C522 C 0.83831 0.21952 0.88338 0.0
H523 H 0.92365 0.28098 1.00909 0.0
H524 H 0.91164 0.26818 0.951 0.0
H525 H 0.91171 0.30619 0.97316 0.0
H526 H 0.86943 0.30424 0.91624 0.0
H527 H 0.87991 0.31402 0.8352 0.0
H528 H 0.55615 0.75582 0.40139 0.0
H529 H 0.55446 0.76465 0.32017 0.0
H530 H 0.62912 0.72992 0.29864 0.0
H531 H 0.63105 0.72108 0.37989 0.0
H532 H 0.60813 0.80778 0.26198 0.0
H533 H 0.54994 0.66798 0.21159 0.0
H534 H 0.55057 0.68121 0.26933 0.0
H535 H 0.5895 0.68471 0.24455 0.0
C536 C 0.57244 0.7503 0.37945 0.0
C537 C 0.59367 0.73763 0.39721 0.0
C538 C 0.57129 0.75519 0.33298 0.0
C539 C 0.5912 0.74739 0.30322 0.0
C540 C 0.61286 0.73529 0.32083 0.0
H541 H 0.61938 0.76698 0.01117 0.0
H542 H 0.62338 0.75719 0.09179 0.0
C543 C 0.61397 0.7303 0.36731 0.0
C544 C 0.58973 0.75262 0.2539 0.0
H545 H 0.56873 0.70989 0.15245 0.0
C546 C 0.59943 0.78636 0.23805 0.0
C547 C 0.57842 0.72464 0.22268 0.0
C548 C 0.5662 0.68752 0.2378 0.0
C549 C 0.59843 0.79296 0.19186 0.0
C550 C 0.58697 0.76498 0.16071 0.0
C551 C 0.57756 0.7313 0.17643 0.0
C552 C 0.58393 0.77008 0.11176 0.0
C553 C 0.61012 0.82995 0.17666 0.0
C554 C 0.55994 0.77988 0.09619 0.0
C555 C 0.55733 0.78515 0.05016 0.0
C556 C 0.57865 0.78067 0.01863 0.0
C557 C 0.60228 0.77027 0.03437 0.0
C558 C 0.60477 0.76487 0.08046 0.0
H559 H 0.62612 0.84964 0.20286 0.0
H560 H 0.62581 0.83639 0.14516 0.0
H561 H 0.58657 0.83229 0.16969 0.0
H562 H 0.54308 0.78332 0.11969 0.0
H563 H 0.53834 0.79243 0.03923 0.0
H564 H 0.83253 0.60838 0.84794 0.0
H565 H 0.82146 0.61111 0.76756 0.0
H566 H 0.71005 0.54375 0.78963 0.0
H567 H 0.72089 0.54089 0.87008 0.0
H568 H 0.79133 0.5577 0.7058 0.0
H569 H 0.71249 0.62372 0.71852 0.0
H570 H 0.73769 0.62153 0.76529 0.0
H571 H 0.69548 0.58427 0.75146 0.0
C572 C 0.80565 0.59404 0.83574 0.0
C573 C 0.77761 0.57443 0.86564 0.0
C574 C 0.79935 0.59578 0.78974 0.0
C575 C 0.76488 0.57808 0.77252 0.0
C576 C 0.73681 0.55836 0.80219 0.0
H577 H 0.67524 0.54836 0.50262 0.0
H578 H 0.68543 0.54692 0.58358 0.0
C579 C 0.74307 0.5567 0.84825 0.0
C580 C 0.75854 0.57928 0.72329 0.0
H581 H 0.71498 0.60161 0.6464 0.0
C582 C 0.77478 0.56748 0.69282 0.0
C583 C 0.73685 0.59193 0.70628 0.0
C584 C 0.71987 0.60639 0.73701 0.0
C585 C 0.76951 0.56746 0.646 0.0
C586 C 0.74787 0.58014 0.62898 0.0
C587 C 0.73154 0.59186 0.65942 0.0
C588 C 0.74184 0.58145 0.57972 0.0
C589 C 0.78656 0.55309 0.61524 0.0
C590 C 0.77009 0.60175 0.55056 0.0
C591 C 0.76435 0.60273 0.50422 0.0
C592 C 0.73016 0.58363 0.48597 0.0
C593 C 0.70186 0.56369 0.51544 0.0
C594 C 0.70765 0.56271 0.56177 0.0
H595 H 0.79434 0.53609 0.63376 0.0
H596 H 0.76859 0.53764 0.58724 0.0
H597 H 0.8107 0.57527 0.60038 0.0
H598 H 0.79661 0.61711 0.56371 0.0
H599 H 0.78668 0.6189 0.48277 0.0
H600 H 0.26548 0.82368 0.67819 0.0
H601 H 0.27532 0.83706 0.75885 0.0
H602 H 0.16421 0.79674 0.7774 0.0
H603 H 0.15413 0.78327 0.69688 0.0
H604 H 0.26149 0.8798 0.81322 0.0
H605 H 0.18445 0.74121 0.8705 0.0
H606 H 0.19734 0.75296 0.81246 0.0
H607 H 0.16016 0.7545 0.83486 0.0
C608 C 0.24315 0.81788 0.69935 0.0
C609 C 0.20894 0.80207 0.68104 0.0
C610 C 0.24881 0.82542 0.74551 0.0
C611 C 0.22042 0.81725 0.7744 0.0
C612 C 0.18641 0.80239 0.75605 0.0
H613 H 0.2003 0.83857 0.06326 0.0
H614 H 0.19047 0.82815 0.98202 0.0
C615 C 0.18069 0.79473 0.70995 0.0
C616 C 0.22643 0.82442 0.82365 0.0
H617 H 0.20394 0.78503 0.92723 0.0
C618 C 0.24902 0.85907 0.83815 0.0
C619 C 0.21015 0.79735 0.85622 0.0
C620 C 0.18693 0.75936 0.84283 0.0
C621 C 0.25527 0.86748 0.88427 0.0
C622 C 0.23894 0.84041 0.91681 0.0
C623 C 0.21634 0.80578 0.90231 0.0
C624 C 0.24518 0.84733 0.96606 0.0
C625 C 0.27874 0.90539 0.89776 0.0
C626 C 0.27914 0.86116 0.98426 0.0
C627 C 0.28483 0.86702 0.0307 0.0
C628 C 0.25663 0.85895 0.0601 0.0
C629 C 0.22258 0.84481 0.04175 0.0
C630 C 0.21693 0.83899 0.99527 0.0
H631 H 0.28138 0.92365 0.87016 0.0
H632 H 0.26843 0.91185 0.9282 0.0
H633 H 0.30541 0.90999 0.90574 0.0
H634 H 0.30122 0.86696 0.9626 0.0
H635 H 0.31127 0.87726 0.04368 0.0
H636 H 0.44086 0.24605 0.50134 0.0
H637 H 0.43806 0.23217 0.42114 0.0
H638 H 0.35958 0.12444 0.44866 0.0
H639 H 0.36113 0.13844 0.52879 0.0
H640 H 0.45195 0.18498 0.3785 0.0
H641 H 0.31337 0.15014 0.34814 0.0
H642 H 0.33711 0.17233 0.39867 0.0
H643 H 0.31894 0.12572 0.39274 0.0
C644 C 0.4226 0.2195 0.49033 0.0
C645 C 0.40101 0.19343 0.5216 0.0
C646 C 0.42125 0.21154 0.44446 0.0
C647 C 0.39823 0.1774 0.42873 0.0
C648 C 0.37704 0.15114 0.45985 0.0
H649 H 0.35834 0.08526 0.15914 0.0
H650 H 0.35927 0.09506 0.24058 0.0
C651 C 0.3783 0.15909 0.50578 0.0
C652 C 0.39701 0.16936 0.37984 0.0
H653 H 0.34276 0.1407 0.28769 0.0
C654 C 0.42809 0.17535 0.35864 0.0
C655 C 0.36583 0.15671 0.35394 0.0
C656 C 0.33196 0.15111 0.37434 0.0
C657 C 0.42881 0.16885 0.31238 0.0
C658 C 0.39773 0.15653 0.28642 0.0
C659 C 0.36655 0.15014 0.30766 0.0
C660 C 0.39722 0.15068 0.23702 0.0
C661 C 0.46274 0.17477 0.2918 0.0
C662 C 0.41787 0.17879 0.2079 0.0
C663 C 0.4175 0.17327 0.1614 0.0
C664 C 0.39633 0.13951 0.14297 0.0
C665 C 0.37531 0.11148 0.17223 0.0
C666 C 0.37564 0.11706 0.21876 0.0
H667 H 0.48118 0.1752 0.31784 0.0
H668 H 0.45765 0.15402 0.26673 0.0
H669 H 0.47589 0.20051 0.2742 0.0
H670 H 0.43427 0.20507 0.22116 0.0
H671 H 0.43424 0.19539 0.13997 0.0
H672 H 0.13038 0.46118 0.15664 0.0
H673 H 0.13506 0.51254 0.19472 0.0
H674 H 0.18413 0.57569 0.07675 0.0
H675 H 0.17919 0.52411 0.03796 0.0
H676 H 0.22263 0.59646 0.16826 0.0
H677 H 0.08629 0.57445 0.1689 0.0
H678 H 0.09158 0.53723 0.18071 0.0
H679 H 0.10182 0.55667 0.12563 0.0
C680 C 0.1415 0.48583 0.13842 0.0
C681 C 0.15459 0.48879 0.09443 0.0
C682 C 0.14402 0.51505 0.16017 0.0
C683 C 0.15983 0.54769 0.13841 0.0
C684 C 0.17163 0.55051 0.09383 0.0
H685 H 0.19942 0.74884 0.23575 0.0
H686 H 0.18454 0.69653 0.19147 0.0
C687 C 0.16869 0.5211 0.07173 0.0
C688 C 0.1674 0.57935 0.16416 0.0
H689 H 0.12858 0.62086 0.21443 0.0
C690 C 0.20217 0.602 0.17816 0.0
C691 C 0.1405 0.58612 0.17707 0.0
C692 C 0.1029 0.56254 0.16221 0.0
C693 C 0.21072 0.63121 0.20542 0.0
C694 C 0.18376 0.63774 0.21889 0.0
C695 C 0.14905 0.61542 0.20428 0.0
C696 C 0.19152 0.66855 0.24671 0.0
C697 C 0.2485 0.65507 0.21952 0.0
C698 C 0.20003 0.6698 0.29258 0.0
C699 C 0.20846 0.69967 0.31824 0.0
C700 C 0.20871 0.72874 0.29818 0.0
C701 C 0.19976 0.72705 0.25224 0.0
C702 C 0.19109 0.69715 0.22684 0.0
H703 H 0.26689 0.64908 0.20126 0.0
H704 H 0.25641 0.68297 0.21338 0.0
H705 H 0.25113 0.65192 0.25623 0.0
H706 H 0.2003 0.64774 0.30838 0.0
H707 H 0.21517 0.70015 0.35351 0.0
H708 H 0.69579 0.20552 0.52495 0.0
H709 H 0.64382 0.19125 0.5705 0.0
H710 H 0.7001 0.19386 0.69111 0.0
H711 H 0.75212 0.20841 0.64631 0.0
H712 H 0.60539 0.13353 0.63253 0.0
H713 H 0.66606 0.26418 0.71642 0.0
H714 H 0.68415 0.25655 0.66598 0.0
H715 H 0.69094 0.24205 0.71977 0.0
C716 C 0.69711 0.20304 0.56115 0.0
C717 C 0.72822 0.20842 0.58197 0.0
C718 C 0.6674 0.19481 0.58707 0.0
C719 C 0.6684 0.192 0.63414 0.0
C720 C 0.69907 0.19652 0.65489 0.0
H721 H 0.51485 0.16957 0.83807 0.0
H722 H 0.56551 0.17082 0.80161 0.0
C723 C 0.72873 0.20475 0.62911 0.0
C724 C 0.63753 0.18486 0.66168 0.0
H725 H 0.60928 0.22145 0.74045 0.0
C726 C 0.60618 0.15267 0.65622 0.0
C727 C 0.63888 0.20982 0.69277 0.0
C728 C 0.67169 0.24523 0.699 0.0
C729 C 0.57592 0.14483 0.68095 0.0
C730 C 0.57701 0.17017 0.7112 0.0
C731 C 0.60862 0.20202 0.7174 0.0
C732 C 0.54503 0.16562 0.73384 0.0
C733 C 0.5431 0.10951 0.67451 0.0
C734 C 0.51684 0.16222 0.70779 0.0
C735 C 0.48805 0.16152 0.72838 0.0
C736 C 0.48697 0.16453 0.77551 0.0
C737 C 0.51488 0.16713 0.80173 0.0
C738 C 0.5438 0.16786 0.78098 0.0
H739 H 0.54953 0.08955 0.66233 0.0
H740 H 0.52794 0.09996 0.70638 0.0
H741 H 0.52606 0.11192 0.64879 0.0
H742 H 0.51761 0.16129 0.67132 0.0
H743 H 0.46703 0.15948 0.70709 0.0
H744 H 0.27239 0.52283 1.00413 0.0
H745 H 0.32208 0.562 0.95597 0.0
H746 H 0.31029 0.47221 0.8821 0.0
H747 H 0.25894 0.43347 0.92793 0.0
H748 H 0.38243 0.57123 0.94208 0.0
H749 H 0.31257 0.52889 0.77874 0.0
H750 H 0.28984 0.51429 0.83179 0.0
H751 H 0.3115 0.49262 0.80755 0.0
C752 C 0.28051 0.51162 0.97751 0.0
C753 C 0.26187 0.47536 0.96928 0.0
C754 C 0.30882 0.53394 0.94997 0.0
C755 C 0.31944 0.52022 0.91444 0.0
C756 C 0.30179 0.48366 0.90788 0.0
H757 H 0.52718 0.65274 0.79699 0.0
H758 H 0.47645 0.60575 0.83665 0.0
C759 C 0.27276 0.4615 0.93442 0.0
C760 C 0.34937 0.54418 0.88502 0.0
H761 H 0.37524 0.56379 0.77516 0.0
C762 C 0.38069 0.56973 0.90557 0.0
C763 C 0.34705 0.54276 0.83728 0.0
C764 C 0.31329 0.51842 0.81261 0.0
C765 C 0.40965 0.59382 0.87997 0.0
C766 C 0.40808 0.591 0.83228 0.0
C767 C 0.37673 0.56555 0.81167 0.0
C768 C 0.43811 0.61526 0.80325 0.0
C769 C 0.44097 0.6228 0.90455 0.0
C770 C 0.43313 0.63405 0.7684 0.0
C771 C 0.46194 0.65971 0.74425 0.0
C772 C 0.49607 0.66727 0.75525 0.0
C773 C 0.50094 0.64728 0.78825 0.0
C774 C 0.47207 0.62086 0.81131 0.0
H775 H 0.43341 0.62801 0.93815 0.0
H776 H 0.46088 0.61475 0.91017 0.0
H777 H 0.4533 0.64768 0.88498 0.0
H778 H 0.40717 0.63001 0.76122 0.0
H779 H 0.4578 0.67516 0.71912 0.0
H780 H 0.85951 0.36431 0.51173 0.0
H781 H 0.86346 0.41678 0.47649 0.0
H782 H 0.81369 0.35657 0.35641 0.0
H783 H 0.81112 0.30519 0.39021 0.0
H784 H 0.86703 0.41833 0.3346 0.0
H785 H 0.7843 0.43627 0.46148 0.0
H786 H 0.82376 0.43883 0.4829 0.0
H787 H 0.78899 0.39791 0.46092 0.0
C788 C 0.84951 0.36246 0.4778 0.0
C789 C 0.835 0.33066 0.45377 0.0
C790 C 0.85161 0.39235 0.4578 0.0
C791 C 0.83847 0.39052 0.41396 0.0
C792 C 0.82418 0.35876 0.39014 0.0
H793 H 0.74243 0.48734 0.2782 0.0
H794 H 0.76224 0.45564 0.32609 0.0
C795 C 0.82265 0.3293 0.40963 0.0
C796 C 0.83865 0.42096 0.3921 0.0
H797 H 0.80191 0.47306 0.39819 0.0
C798 C 0.85311 0.43062 0.34865 0.0
C799 C 0.82047 0.43693 0.41055 0.0
C800 C 0.80323 0.42687 0.45635 0.0
C801 C 0.84775 0.45379 0.32185 0.0
C802 C 0.82872 0.46904 0.33983 0.0
C803 C 0.81639 0.46127 0.38444 0.0
C804 C 0.81768 0.48967 0.31153 0.0
C805 C 0.8604 0.45962 0.27359 0.0
C806 C 0.84221 0.51956 0.28747 0.0
C807 C 0.83078 0.53721 0.25898 0.0
C808 C 0.79473 0.52585 0.25521 0.0
C809 C 0.77038 0.49668 0.28041 0.0
C810 C 0.78171 0.47863 0.30797 0.0
H811 H 0.86684 0.43949 0.26219 0.0
H812 H 0.84024 0.45904 0.25043 0.0
H813 H 0.88466 0.48572 0.27069 0.0
H814 H 0.87015 0.52921 0.29063 0.0
H815 H 0.85013 0.56003 0.2405 0.0
H816 H 0.31468 0.84641 0.49525 0.0
H817 H 0.36359 0.84552 0.53228 0.0
H818 H 0.39987 0.83035 0.40384 0.0
H819 H 0.35021 0.83062 0.36614 0.0
H820 H 0.39178 0.78136 0.4677 0.0
H821 H 0.4683 0.91486 0.54043 0.0
H822 H 0.42241 0.89409 0.55417 0.0
H823 H 0.43608 0.90413 0.49625 0.0
C824 C 0.3333 0.84342 0.47459 0.0
C825 C 0.32843 0.83837 0.42769 0.0
C826 C 0.3615 0.84327 0.49588 0.0
C827 C 0.38566 0.83837 0.47079 0.0
C828 C 0.38163 0.83447 0.42374 0.0
H829 H 0.54567 0.79241 0.56703 0.0
H830 H 0.5099 0.80801 0.52033 0.0
C831 C 0.35332 0.83469 0.40226 0.0
C832 C 0.41258 0.83354 0.49459 0.0
H833 H 0.47772 0.87042 0.57396 0.0
C834 C 0.411 0.80105 0.49034 0.0
C835 C 0.43739 0.85918 0.52439 0.0
C836 C 0.44142 0.89515 0.52878 0.0
C837 C 0.43263 0.79296 0.51642 0.0
C838 C 0.45676 0.81824 0.54709 0.0
C839 C 0.45897 0.85104 0.55062 0.0
C840 C 0.47971 0.81081 0.57595 0.0
C841 C 0.42863 0.75697 0.5122 0.0
C842 C 0.47515 0.80816 0.62292 0.0
C843 C 0.49564 0.79925 0.64996 0.0
C844 C 0.52111 0.79306 0.63036 0.0
C845 C 0.52614 0.79672 0.58333 0.0
C846 C 0.50568 0.80557 0.55646 0.0
H847 H 0.40396 0.7382 0.49436 0.0
H848 H 0.45116 0.75907 0.49278 0.0
H849 H 0.42873 0.74607 0.54597 0.0
H850 H 0.45525 0.81226 0.63852 0.0
H851 H 0.49119 0.79679 0.68603 0.0
H852 H 0.63692 0.52051 0.12066 0.0
H853 H 0.59008 0.47608 0.07278 0.0
H854 H 0.6405 0.41366 0.07678 0.0
H855 H 0.68765 0.45822 0.12328 0.0
H856 H 0.6254 0.42361 0.99173 0.0
H857 H 0.50782 0.37926 0.10092 0.0
H858 H 0.53259 0.42571 0.09025 0.0
H859 H 0.55216 0.40521 0.12222 0.0
C860 C 0.63754 0.49694 0.11205 0.0
C861 C 0.66586 0.49275 0.12569 0.0
C862 C 0.61078 0.47158 0.08472 0.0
C863 C 0.61171 0.44146 0.07141 0.0
C864 C 0.63933 0.43676 0.0865 0.0
H865 H 0.46153 0.24231 0.96824 0.0
H866 H 0.49994 0.29509 0.01114 0.0
C867 C 0.6662 0.46218 0.1132 0.0
C868 C 0.58531 0.41554 0.03971 0.0
H869 H 0.49822 0.35428 0.02825 0.0
C870 C 0.59753 0.40854 0.99955 0.0
C871 C 0.54902 0.39604 0.05005 0.0
C872 C 0.53452 0.40162 0.09334 0.0
C873 C 0.57474 0.38159 0.9703 0.0
C874 C 0.53847 0.36176 0.98086 0.0
C875 C 0.52601 0.36966 0.02016 0.0
C876 C 0.51375 0.33043 0.95422 0.0
C877 C 0.59009 0.37347 0.9297 0.0
C878 C 0.50836 0.33275 0.90791 0.0
C879 C 0.4867 0.30237 0.88294 0.0
C880 C 0.46963 0.26931 0.90413 0.0
C881 C 0.47427 0.26732 0.95078 0.0
C882 C 0.49616 0.29753 0.97547 0.0
H883 H 0.61917 0.3858 0.93219 0.0
H884 H 0.57854 0.34468 0.92556 0.0
H885 H 0.58405 0.38385 0.89894 0.0
H886 H 0.52106 0.35799 0.89103 0.0
H887 H 0.48329 0.3048 0.84718 0.0
loop_
_geom_bond_atom_site_label_1
_geom_bond_atom_site_label_2
_geom_bond_distance
_geom_bond_site_symmetry_2
_ccdc_geom_bond_type
Eu0 C9 2.828 . S
Eu0 O11 2.392 1_554 S
Eu0 O13 2.418 . S
Eu0 O18 2.373 . S
Eu0 O21 2.488 . S
Eu0 O22 2.471 . S
Eu0 O23 2.349 . S
Eu1 O10 2.373 . S
Eu1 O14 2.488 . S
Eu1 O15 2.471 . S
Eu1 O16 2.349 . S
Eu1 O19 2.392 1_556 S
Eu1 O20 2.418 . S
Eu1 C30 2.828 . S
C2 O20 1.244 1_554 S
C2 O23 1.265 . S
C3 C4 1.379 . S
C3 C7 1.373 . S
C3 C9 1.505 . S
C4 C3 1.379 . S
C4 C6 1.369 . S
C4 H32 0.930 . S
C5 C7 1.383 . S
C5 C8 1.382 . S
C5 H33 0.930 . S
C6 C4 1.369 . S
C6 C8 1.392 . S
C6 H34 0.930 . S
C7 C3 1.373 . S
C7 C5 1.383 . S
C7 H35 0.931 . S
C8 C5 1.382 . S
C8 C6 1.392 . S
C9 Eu0 2.828 . S
C9 C3 1.505 . S
C9 O21 1.249 . S
C9 O22 1.244 . S
O10 Eu1 2.373 . S
O10 C12 1.258 . S
O11 Eu0 2.392 1_556 S
O11 C12 1.242 . S
C12 O10 1.258 . S
C12 O11 1.242 . S
O13 Eu0 2.418 . S
O13 C17 1.244 . S
O14 Eu1 2.488 . S
O14 C30 1.249 . S
O15 Eu1 2.471 . S
O15 C30 1.244 . S
O16 Eu1 2.349 . S
O16 C17 1.265 1_556 S
C17 O13 1.244 . S
C17 O16 1.265 1_554 S
O18 Eu0 2.373 . S
O18 C31 1.258 . S
O19 Eu1 2.392 1_554 S
O19 C31 1.242 . S
O20 Eu1 2.418 . S
O20 C2 1.244 1_556 S
O21 Eu0 2.488 . S
O21 C9 1.249 . S
O22 Eu0 2.471 . S
O22 C9 1.244 . S
O23 Eu0 2.349 . S
O23 C2 1.265 . S
C24 C25 1.379 . S
C24 C28 1.373 . S
C24 C30 1.505 . S
C25 C24 1.379 . S
C25 C27 1.369 . S
C25 H36 0.930 . S
C26 C28 1.383 . S
C26 C29 1.382 . S
C26 H37 0.930 . S
C27 C25 1.369 . S
C27 C29 1.392 . S
C27 H38 0.930 . S
C28 C24 1.373 . S
C28 C26 1.383 . S
C28 H39 0.931 . S
C29 C26 1.382 . S
C29 C27 1.392 . S
C30 Eu1 2.828 . S
C30 O14 1.249 . S
C30 O15 1.244 . S
C30 C24 1.505 . S
C31 O18 1.258 . S
C31 O19 1.242 . S
H32 C4 0.930 . S
H33 C5 0.930 . S
H34 C6 0.930 . S
H35 C7 0.931 . S
H36 C25 0.930 . S
H37 C26 0.930 . S
H38 C27 0.930 . S
H39 C28 0.931 . S
Eu40 C49 2.828 . S
Eu40 O51 2.392 . S
Eu40 O53 2.418 . S
Eu40 O58 2.373 . S
Eu40 O61 2.488 . S
Eu40 O62 2.471 . S
Eu40 O63 2.349 . S
Eu41 O50 2.373 . S
Eu41 O54 2.488 . S
Eu41 O55 2.471 . S
Eu41 O56 2.349 . S
Eu41 O59 2.392 . S
Eu41 O60 2.418 . S
Eu41 C70 2.828 . S
C42 O60 1.244 . S
C42 O63 1.265 . S
C43 C44 1.379 . S
C43 C47 1.373 . S
C43 C49 1.505 . S
C44 C43 1.379 . S
C44 C46 1.369 . S
C44 H72 0.930 . S
C45 C47 1.383 . S
C45 C48 1.382 . S
C45 H73 0.930 . S
C46 C44 1.369 . S
C46 C48 1.392 . S
C46 H74 0.930 . S
C47 C43 1.373 . S
C47 C45 1.383 . S
C47 H75 0.931 . S
C48 C45 1.382 . S
C48 C46 1.392 . S
C49 Eu40 2.828 . S
C49 C43 1.505 . S
C49 O61 1.249 . S
C49 O62 1.244 . S
O50 Eu41 2.373 . S
O50 C52 1.258 . S
O51 Eu40 2.392 . S
O51 C52 1.242 . S
C52 O50 1.258 . S
C52 O51 1.242 . S
O53 Eu40 2.418 . S
O53 C57 1.244 . S
O54 Eu41 2.488 . S
O54 C70 1.249 . S
O55 Eu41 2.471 . S
O55 C70 1.244 . S
O56 Eu41 2.349 . S
O56 C57 1.265 . S
C57 O53 1.244 . S
C57 O56 1.265 . S
O58 Eu40 2.373 . S
O58 C71 1.258 . S
O59 Eu41 2.392 . S
O59 C71 1.242 . S
O60 Eu41 2.418 . S
O60 C42 1.244 . S
O61 Eu40 2.488 . S
O61 C49 1.249 . S
O62 Eu40 2.471 . S
O62 C49 1.244 . S
O63 Eu40 2.349 . S
O63 C42 1.265 . S
C64 C65 1.379 . S
C64 C68 1.373 . S
C64 C70 1.505 . S
C65 C64 1.379 . S
C65 C67 1.369 . S
C65 H76 0.930 . S
C66 C68 1.383 . S
C66 C69 1.382 . S
C66 H77 0.930 . S
C67 C65 1.369 . S
C67 C69 1.392 . S
C67 H78 0.930 . S
C68 C64 1.373 . S
C68 C66 1.383 . S
C68 H79 0.931 . S
C69 C66 1.382 . S
C69 C67 1.392 . S
C70 Eu41 2.828 . S
C70 O54 1.249 . S
C70 O55 1.244 . S
C70 C64 1.505 . S
C71 O58 1.258 . S
C71 O59 1.242 . S
H72 C44 0.930 . S
H73 C45 0.930 . S
H74 C46 0.930 . S
H75 C47 0.931 . S
H76 C65 0.930 . S
H77 C66 0.930 . S
H78 C67 0.930 . S
H79 C68 0.931 . S
Eu80 C89 2.828 . S
Eu80 O91 2.392 . S
Eu80 O93 2.418 . S
Eu80 O98 2.373 . S
Eu80 O101 2.488 . S
Eu80 O102 2.471 . S
Eu80 O103 2.349 . S
Eu81 O90 2.373 . S
Eu81 O94 2.488 . S
Eu81 O95 2.471 . S
Eu81 O96 2.349 . S
Eu81 O99 2.392 . S
Eu81 O100 2.418 . S
Eu81 C110 2.828 . S
C82 O100 1.244 . S
C82 O103 1.265 . S
C83 C84 1.379 . S
C83 C87 1.373 . S
C83 C89 1.505 . S
C84 C83 1.379 . S
C84 C86 1.369 . S
C84 H112 0.930 . S
C85 C87 1.383 . S
C85 C88 1.382 . S
C85 H113 0.930 . S
C86 C84 1.369 . S
C86 C88 1.392 . S
C86 H114 0.930 . S
C87 C83 1.373 . S
C87 C85 1.383 . S
C87 H115 0.931 . S
C88 C85 1.382 . S
C88 C86 1.392 . S
C89 Eu80 2.828 . S
C89 C83 1.505 . S
C89 O101 1.249 . S
C89 O102 1.244 . S
O90 Eu81 2.373 . S
O90 C92 1.258 . S
O91 Eu80 2.392 . S
O91 C92 1.242 . S
C92 O90 1.258 . S
C92 O91 1.242 . S
O93 Eu80 2.418 . S
O93 C97 1.244 . S
O94 Eu81 2.488 . S
O94 C110 1.249 . S
O95 Eu81 2.471 . S
O95 C110 1.244 . S
O96 Eu81 2.349 . S
O96 C97 1.265 . S
C97 O93 1.244 . S
C97 O96 1.265 . S
O98 Eu80 2.373 . S
O98 C111 1.258 . S
O99 Eu81 2.392 . S
O99 C111 1.242 . S
O100 Eu81 2.418 . S
O100 C82 1.244 . S
O101 Eu80 2.488 . S
O101 C89 1.249 . S
O102 Eu80 2.471 . S
O102 C89 1.244 . S
O103 Eu80 2.349 . S
O103 C82 1.265 . S
C104 C105 1.379 . S
C104 C108 1.373 . S
C104 C110 1.505 . S
C105 C104 1.379 . S
C105 C107 1.369 . S
C105 H116 0.930 . S
C106 C108 1.383 . S
C106 C109 1.382 . S
C106 H117 0.930 . S
C107 C105 1.369 . S
C107 C109 1.392 . S
C107 H118 0.930 . S
C108 C104 1.373 . S
C108 C106 1.383 . S
C108 H119 0.931 . S
C109 C106 1.382 . S
C109 C107 1.392 . S
C110 Eu81 2.828 . S
C110 O94 1.249 . S
C110 O95 1.244 . S
C110 C104 1.505 . S
C111 O98 1.258 . S
C111 O99 1.242 . S
H112 C84 0.930 . S
H113 C85 0.930 . S
H114 C86 0.930 . S
H115 C87 0.931 . S
H116 C105 0.930 . S
H117 C106 0.930 . S
H118 C107 0.930 . S
H119 C108 0.931 . S
Eu120 C129 2.828 . S
Eu120 O131 2.392 . S
Eu120 O133 2.418 . S
Eu120 O138 2.373 . S
Eu120 O141 2.488 . S
Eu120 O142 2.471 . S
Eu120 O143 2.349 . S
Eu121 O130 2.373 . S
Eu121 O134 2.488 . S
Eu121 O135 2.471 . S
Eu121 O136 2.349 . S
Eu121 O139 2.392 . S
Eu121 O140 2.418 . S
Eu121 C150 2.828 . S
C122 O140 1.244 . S
C122 O143 1.265 . S
C123 C124 1.379 . S
C123 C127 1.373 . S
C123 C129 1.505 1_556 S
C124 C123 1.379 . S
C124 C126 1.369 . S
C124 H152 0.930 . S
C125 C127 1.383 . S
C125 C128 1.382 . S
C125 H153 0.930 . S
C126 C124 1.369 . S
C126 C128 1.392 . S
C126 H154 0.930 . S
C127 C123 1.373 . S
C127 C125 1.383 . S
C127 H155 0.931 . S
C128 C125 1.382 . S
C128 C126 1.392 . S
C129 Eu120 2.828 . S
C129 C123 1.505 1_554 S
C129 O141 1.249 . S
C129 O142 1.244 . S
O130 Eu121 2.373 . S
O130 C132 1.258 . S
O131 Eu120 2.392 . S
O131 C132 1.242 . S
C132 O130 1.258 . S
C132 O131 1.242 . S
O133 Eu120 2.418 . S
O133 C137 1.244 . S
O134 Eu121 2.488 . S
O134 C150 1.249 . S
O135 Eu121 2.471 . S
O135 C150 1.244 . S
O136 Eu121 2.349 . S
O136 C137 1.265 . S
C137 O133 1.244 . S
C137 O136 1.265 . S
O138 Eu120 2.373 . S
O138 C151 1.258 . S
O139 Eu121 2.392 . S
O139 C151 1.242 . S
O140 Eu121 2.418 . S
O140 C122 1.244 . S
O141 Eu120 2.488 . S
O141 C129 1.249 . S
O142 Eu120 2.471 . S
O142 C129 1.244 . S
O143 Eu120 2.349 . S
O143 C122 1.265 . S
C144 C145 1.379 . S
C144 C148 1.373 . S
C144 C150 1.505 . S
C145 C144 1.379 . S
C145 C147 1.369 . S
C145 H156 0.930 . S
C146 C148 1.383 . S
C146 C149 1.382 . S
C146 H157 0.930 . S
C147 C145 1.369 . S
C147 C149 1.392 . S
C147 H158 0.930 . S
C148 C144 1.373 . S
C148 C146 1.383 . S
C148 H159 0.931 . S
C149 C146 1.382 . S
C149 C147 1.392 . S
C150 Eu121 2.828 . S
C150 O134 1.249 . S
C150 O135 1.244 . S
C150 C144 1.505 . S
C151 O138 1.258 . S
C151 O139 1.242 . S
H152 C124 0.930 . S
H153 C125 0.930 . S
H154 C126 0.930 . S
H155 C127 0.931 . S
H156 C145 0.930 . S
H157 C146 0.930 . S
H158 C147 0.930 . S
H159 C148 0.931 . S
Eu160 C169 2.828 . S
Eu160 O171 2.392 . S
Eu160 O173 2.418 . S
Eu160 O178 2.373 . S
Eu160 O181 2.488 . S
Eu160 O182 2.471 . S
Eu160 O183 2.349 . S
Eu161 O170 2.373 . S
Eu161 O174 2.488 . S
Eu161 O175 2.471 . S
Eu161 O176 2.349 . S
Eu161 O179 2.392 . S
Eu161 O180 2.418 . S
Eu161 C190 2.828 . S
C162 O180 1.244 . S
C162 O183 1.265 . S
C163 C164 1.379 . S
C163 C167 1.373 . S
C163 C169 1.505 . S
C164 C163 1.379 . S
C164 C166 1.369 . S
C164 H192 0.930 . S
C165 C167 1.383 . S
C165 C168 1.382 . S
C165 H193 0.930 . S
C166 C164 1.369 . S
C166 C168 1.392 . S
C166 H194 0.930 . S
C167 C163 1.373 . S
C167 C165 1.383 . S
C167 H195 0.931 . S
C168 C165 1.382 . S
C168 C166 1.392 . S
C169 Eu160 2.828 . S
C169 C163 1.505 . S
C169 O181 1.249 . S
C169 O182 1.244 . S
O170 Eu161 2.373 . S
O170 C172 1.258 . S
O171 Eu160 2.392 . S
O171 C172 1.242 . S
C172 O170 1.258 . S
C172 O171 1.242 . S
O173 Eu160 2.418 . S
O173 C177 1.244 . S
O174 Eu161 2.488 . S
O174 C190 1.249 . S
O175 Eu161 2.471 . S
O175 C190 1.244 . S
O176 Eu161 2.349 . S
O176 C177 1.265 . S
C177 O173 1.244 . S
C177 O176 1.265 . S
O178 Eu160 2.373 . S
O178 C191 1.258 . S
O179 Eu161 2.392 . S
O179 C191 1.242 . S
O180 Eu161 2.418 . S
O180 C162 1.244 . S
O181 Eu160 2.488 . S
O181 C169 1.249 . S
O182 Eu160 2.471 . S
O182 C169 1.244 . S
O183 Eu160 2.349 . S
O183 C162 1.265 . S
C184 C185 1.379 . S
C184 C188 1.373 . S
C184 C190 1.505 . S
C185 C184 1.379 . S
C185 C187 1.369 . S
C185 H196 0.930 . S
C186 C188 1.383 . S
C186 C189 1.382 . S
C186 H197 0.930 . S
C187 C185 1.369 . S
C187 C189 1.392 . S
C187 H198 0.930 . S
C188 C184 1.373 . S
C188 C186 1.383 . S
C188 H199 0.931 . S
C189 C186 1.382 . S
C189 C187 1.392 . S
C190 Eu161 2.828 . S
C190 O174 1.249 . S
C190 O175 1.244 . S
C190 C184 1.505 . S
C191 O178 1.258 . S
C191 O179 1.242 . S
H192 C164 0.930 . S
H193 C165 0.930 . S
H194 C166 0.930 . S
H195 C167 0.931 . S
H196 C185 0.930 . S
H197 C186 0.930 . S
H198 C187 0.930 . S
H199 C188 0.931 . S
Eu200 C209 2.828 . S
Eu200 O211 2.392 . S
Eu200 O213 2.418 . S
Eu200 O218 2.373 . S
Eu200 O221 2.488 . S
Eu200 O222 2.471 . S
Eu200 O223 2.349 . S
Eu201 O210 2.373 . S
Eu201 O214 2.488 . S
Eu201 O215 2.471 . S
Eu201 O216 2.349 . S
Eu201 O219 2.392 . S
Eu201 O220 2.418 . S
Eu201 C230 2.828 . S
C202 O220 1.244 . S
C202 O223 1.265 . S
C203 C204 1.379 . S
C203 C207 1.373 . S
C203 C209 1.505 . S
C204 C203 1.379 . S
C204 C206 1.369 . S
C204 H232 0.930 . S
C205 C207 1.383 . S
C205 C208 1.382 . S
C205 H233 0.930 . S
C206 C204 1.369 . S
C206 C208 1.392 . S
C206 H234 0.930 . S
C207 C203 1.373 . S
C207 C205 1.383 . S
C207 H235 0.931 . S
C208 C205 1.382 . S
C208 C206 1.392 . S
C209 Eu200 2.828 . S
C209 C203 1.505 . S
C209 O221 1.249 . S
C209 O222 1.244 . S
O210 Eu201 2.373 . S
O210 C212 1.258 . S
O211 Eu200 2.392 . S
O211 C212 1.242 . S
C212 O210 1.258 . S
C212 O211 1.242 . S
O213 Eu200 2.418 . S
O213 C217 1.244 . S
O214 Eu201 2.488 . S
O214 C230 1.249 . S
O215 Eu201 2.471 . S
O215 C230 1.244 . S
O216 Eu201 2.349 . S
O216 C217 1.265 . S
C217 O213 1.244 . S
C217 O216 1.265 . S
O218 Eu200 2.373 . S
O218 C231 1.258 . S
O219 Eu201 2.392 . S
O219 C231 1.242 . S
O220 Eu201 2.418 . S
O220 C202 1.244 . S
O221 Eu200 2.488 . S
O221 C209 1.249 . S
O222 Eu200 2.471 . S
O222 C209 1.244 . S
O223 Eu200 2.349 . S
O223 C202 1.265 . S
C224 C225 1.379 . S
C224 C228 1.373 . S
C224 C230 1.505 1_554 S
C225 C224 1.379 . S
C225 C227 1.369 . S
C225 H236 0.930 . S
C226 C228 1.383 . S
C226 C229 1.382 . S
C226 H237 0.930 . S
C227 C225 1.369 . S
C227 C229 1.392 . S
C227 H238 0.930 . S
C228 C224 1.373 . S
C228 C226 1.383 . S
C228 H239 0.931 . S
C229 C226 1.382 . S
C229 C227 1.392 . S
C230 Eu201 2.828 . S
C230 O214 1.249 . S
C230 O215 1.244 . S
C230 C224 1.505 1_556 S
C231 O218 1.258 . S
C231 O219 1.242 . S
H232 C204 0.930 . S
H233 C205 0.930 . S
H234 C206 0.930 . S
H235 C207 0.931 . S
H236 C225 0.930 . S
H237 C226 0.930 . S
H238 C227 0.930 . S
H239 C228 0.931 . S
H240 C248 0.929 . S
H241 C250 0.930 . S
H242 C252 0.930 . S
H243 C255 0.929 . S
H244 C258 0.930 . S
H245 C260 0.960 . S
H246 C260 0.960 . S
H247 C260 0.960 . S
C248 H240 0.929 . S
C248 C249 1.377 . S
C248 C250 1.384 . S
C249 C248 1.377 . S
C249 C255 1.390 . S
C250 H241 0.930 . S
C250 C248 1.384 . S
C250 C251 1.372 . S
C251 C250 1.372 . S
C251 C252 1.400 . S
C251 C256 1.490 . S
C252 H242 0.930 . S
C252 C251 1.400 . S
C252 C255 1.386 . S
H253 C269 0.930 . S
H254 C270 0.931 1_554 S
C255 H243 0.929 . S
C255 C249 1.390 . S
C255 C252 1.386 . S
C256 C251 1.490 . S
C256 C258 1.395 . S
C256 C259 1.403 . S
H257 C263 0.930 . S
C258 H244 0.930 . S
C258 C256 1.395 . S
C258 C261 1.403 . S
C259 C256 1.403 . S
C259 C260 1.524 . S
C259 C263 1.400 . S
C260 H245 0.960 . S
C260 H246 0.960 . S
C260 H247 0.960 . S
C260 C259 1.524 . S
C261 C258 1.403 . S
C261 C262 1.392 . S
C261 C265 1.495 . S
C262 C261 1.392 . S
C262 C263 1.385 . S
C262 C264 1.478 . S
C263 H257 0.930 . S
C263 C259 1.400 . S
C263 C262 1.385 . S
C264 C262 1.478 . S
C264 C266 1.381 . S
C264 C270 1.383 . S
C265 C261 1.495 . S
C265 H271 0.959 . S
C265 H272 0.961 . S
C265 H273 0.960 . S
C266 C264 1.381 . S
C266 C267 1.394 . S
C266 H274 0.930 . S
C267 C266 1.394 . S
C267 C268 1.383 . S
C267 H275 0.929 . S
C268 C267 1.383 . S
C268 C269 1.377 1_556 S
C269 H253 0.930 . S
C269 C268 1.377 1_554 S
C269 C270 1.379 1_554 S
C270 H254 0.931 1_556 S
C270 C264 1.383 . S
C270 C269 1.379 1_556 S
H271 C265 0.959 . S
H272 C265 0.961 . S
H273 C265 0.960 . S
H274 C266 0.930 . S
H275 C267 0.929 . S
H276 C284 0.929 . S
H277 C286 0.930 . S
H278 C288 0.930 . S
H279 C291 0.929 . S
H280 C294 0.930 . S
H281 C296 0.960 . S
H282 C296 0.960 . S
H283 C296 0.960 . S
C284 H276 0.929 . S
C284 C285 1.377 . S
C284 C286 1.384 . S
C285 C284 1.377 . S
C285 C291 1.390 . S
C286 H277 0.930 . S
C286 C284 1.384 . S
C286 C287 1.372 . S
C287 C286 1.372 . S
C287 C288 1.400 . S
C287 C292 1.490 . S
C288 H278 0.930 . S
C288 C287 1.400 . S
C288 C291 1.386 . S
H289 C305 0.930 . S
H290 C306 0.931 . S
C291 H279 0.929 . S
C291 C285 1.390 . S
C291 C288 1.386 . S
C292 C287 1.490 . S
C292 C294 1.395 1_455 S
C292 C295 1.403 . S
H293 C299 0.930 . S
C294 H280 0.930 . S
C294 C292 1.395 1_655 S
C294 C297 1.403 . S
C295 C292 1.403 . S
C295 C296 1.524 . S
C295 C299 1.400 . S
C296 H281 0.960 . S
C296 H282 0.960 . S
C296 H283 0.960 . S
C296 C295 1.524 . S
C297 C294 1.403 . S
C297 C298 1.392 . S
C297 C301 1.495 . S
C298 C297 1.392 . S
C298 C299 1.385 1_655 S
C298 C300 1.478 . S
C299 H293 0.930 . S
C299 C295 1.400 . S
C299 C298 1.385 1_455 S
C300 C298 1.478 . S
C300 C302 1.381 . S
C300 C306 1.383 . S
C301 C297 1.495 . S
C301 H307 0.959 . S
C301 H308 0.961 . S
C301 H309 0.960 . S
C302 C300 1.381 . S
C302 C303 1.394 . S
C302 H310 0.930 . S
C303 C302 1.394 . S
C303 C304 1.383 . S
C303 H311 0.929 . S
C304 C303 1.383 . S
C304 C305 1.377 . S
C305 H289 0.930 . S
C305 C304 1.377 . S
C305 C306 1.379 . S
C306 H290 0.931 . S
C306 C300 1.383 . S
C306 C305 1.379 . S
H307 C301 0.959 . S
H308 C301 0.961 . S
H309 C301 0.960 . S
H310 C302 0.930 . S
H311 C303 0.929 . S
H312 C320 0.929 . S
H313 C322 0.930 . S
H314 C324 0.930 . S
H315 C327 0.929 . S
H316 C330 0.930 . S
H317 C332 0.960 . S
H318 C332 0.960 . S
H319 C332 0.960 . S
C320 H312 0.929 . S
C320 C321 1.377 . S
C320 C322 1.384 . S
C321 C320 1.377 . S
C321 C327 1.390 . S
C322 H313 0.930 . S
C322 C320 1.384 . S
C322 C323 1.372 . S
C323 C322 1.372 . S
C323 C324 1.400 . S
C323 C328 1.490 . S
C324 H314 0.930 . S
C324 C323 1.400 . S
C324 C327 1.386 . S
H325 C341 0.930 . S
H326 C342 0.931 . S
C327 H315 0.929 . S
C327 C321 1.390 . S
C327 C324 1.386 . S
C328 C323 1.490 . S
C328 C330 1.395 . S
C328 C331 1.403 . S
H329 C335 0.930 . S
C330 H316 0.930 . S
C330 C328 1.395 . S
C330 C333 1.403 1_545 S
C331 C328 1.403 . S
C331 C332 1.524 . S
C331 C335 1.400 1_545 S
C332 H317 0.960 . S
C332 H318 0.960 . S
C332 H319 0.960 . S
C332 C331 1.524 . S
C333 C330 1.403 1_565 S
C333 C334 1.392 . S
C333 C337 1.495 . S
C334 C333 1.392 . S
C334 C335 1.385 . S
C334 C336 1.478 . S
C335 H329 0.930 . S
C335 C331 1.400 1_565 S
C335 C334 1.385 . S
C336 C334 1.478 . S
C336 C338 1.381 . S
C336 C342 1.383 . S
C337 C333 1.495 . S
C337 H343 0.959 . S
C337 H344 0.961 . S
C337 H345 0.960 . S
C338 C336 1.381 . S
C338 C339 1.394 . S
C338 H346 0.930 . S
C339 C338 1.394 . S
C339 C340 1.383 . S
C339 H347 0.929 . S
C340 C339 1.383 . S
C340 C341 1.377 . S
C341 H325 0.930 . S
C341 C340 1.377 . S
C341 C342 1.379 . S
C342 H326 0.931 . S
C342 C336 1.383 . S
C342 C341 1.379 . S
H343 C337 0.959 . S
H344 C337 0.961 . S
H345 C337 0.960 . S
H346 C338 0.930 . S
H347 C339 0.929 . S
H348 C356 0.929 . S
H349 C358 0.930 . S
H350 C360 0.930 . S
H351 C363 0.929 . S
H352 C366 0.930 . S
H353 C368 0.960 . S
H354 C368 0.960 . S
H355 C368 0.960 . S
C356 H348 0.929 . S
C356 C357 1.377 . S
C356 C358 1.384 . S
C357 C356 1.377 . S
C357 C363 1.390 . S
C358 H349 0.930 . S
C358 C356 1.384 . S
C358 C359 1.372 . S
C359 C358 1.372 . S
C359 C360 1.400 . S
C359 C364 1.490 . S
C360 H350 0.930 . S
C360 C359 1.400 . S
C360 C363 1.386 . S
H361 C377 0.930 . S
H362 C378 0.931 1_556 S
C363 H351 0.929 . S
C363 C357 1.390 . S
C363 C360 1.386 . S
C364 C359 1.490 . S
C364 C366 1.395 . S
C364 C367 1.403 . S
H365 C371 0.930 . S
C366 H352 0.930 . S
C366 C364 1.395 . S
C366 C369 1.403 . S
C367 C364 1.403 . S
C367 C368 1.524 . S
C367 C371 1.400 . S
C368 H353 0.960 . S
C368 H354 0.960 . S
C368 H355 0.960 . S
C368 C367 1.524 . S
C369 C366 1.403 . S
C369 C370 1.392 . S
C369 C373 1.495 . S
C370 C369 1.392 . S
C370 C371 1.385 . S
C370 C372 1.478 1_556 S
C371 H365 0.930 . S
C371 C367 1.400 . S
C371 C370 1.385 . S
C372 C370 1.478 1_554 S
C372 C374 1.381 . S
C372 C378 1.383 . S
C373 C369 1.495 . S
C373 H379 0.959 . S
C373 H380 0.961 . S
C373 H381 0.960 . S
C374 C372 1.381 . S
C374 C375 1.394 . S
C374 H382 0.930 . S
C375 C374 1.394 . S
C375 C376 1.383 . S
C375 H383 0.929 . S
C376 C375 1.383 . S
C376 C377 1.377 . S
C377 H361 0.930 . S
C377 C376 1.377 . S
C377 C378 1.379 . S
C378 H362 0.931 1_554 S
C378 C372 1.383 . S
C378 C377 1.379 . S
H379 C373 0.959 . S
H380 C373 0.961 . S
H381 C373 0.960 . S
H382 C374 0.930 . S
H383 C375 0.929 . S
H384 C392 0.929 . S
H385 C394 0.930 . S
H386 C396 0.930 . S
H387 C399 0.929 . S
H388 C402 0.930 . S
H389 C404 0.960 . S
H390 C404 0.960 . S
H391 C404 0.960 . S
C392 H384 0.929 . S
C392 C393 1.377 . S
C392 C394 1.384 . S
C393 C392 1.377 . S
C393 C399 1.390 . S
C394 H385 0.930 . S
C394 C392 1.384 . S
C394 C395 1.372 . S
C395 C394 1.372 . S
C395 C396 1.400 . S
C395 C400 1.490 . S
C396 H386 0.930 . S
C396 C395 1.400 . S
C396 C399 1.386 . S
H397 C413 0.930 . S
H398 C414 0.931 . S
C399 H387 0.929 . S
C399 C393 1.390 . S
C399 C396 1.386 . S
C400 C395 1.490 . S
C400 C402 1.395 . S
C400 C403 1.403 . S
H401 C407 0.930 . S
C402 H388 0.930 . S
C402 C400 1.395 . S
C402 C405 1.403 1_455 S
C403 C400 1.403 . S
C403 C404 1.524 . S
C403 C407 1.400 1_455 S
C404 H389 0.960 . S
C404 H390 0.960 . S
C404 H391 0.960 . S
C404 C403 1.524 . S
C405 C402 1.403 1_655 S
C405 C406 1.392 . S
C405 C409 1.495 . S
C406 C405 1.392 . S
C406 C407 1.385 . S
C406 C408 1.478 . S
C407 H401 0.930 . S
C407 C403 1.400 1_655 S
C407 C406 1.385 . S
C408 C406 1.478 . S
C408 C410 1.381 . S
C408 C414 1.383 . S
C409 C405 1.495 . S
C409 H415 0.959 . S
C409 H416 0.961 . S
C409 H417 0.960 . S
C410 C408 1.381 . S
C410 C411 1.394 . S
C410 H418 0.930 . S
C411 C410 1.394 . S
C411 C412 1.383 . S
C411 H419 0.929 . S
C412 C411 1.383 . S
C412 C413 1.377 . S
C413 H397 0.930 . S
C413 C412 1.377 . S
C413 C414 1.379 . S
C414 H398 0.931 . S
C414 C408 1.383 . S
C414 C413 1.379 . S
H415 C409 0.959 . S
H416 C409 0.961 . S
H417 C409 0.960 . S
H418 C410 0.930 . S
H419 C411 0.929 . S
H420 C428 0.929 . S
H421 C430 0.930 . S
H422 C432 0.930 . S
H423 C435 0.929 . S
H424 C438 0.930 . S
H425 C440 0.960 . S
H426 C440 0.960 . S
H427 C440 0.960 . S
C428 H420 0.929 . S
C428 C429 1.377 . S
C428 C430 1.384 . S
C429 C428 1.377 . S
C429 C435 1.390 . S
C430 H421 0.930 . S
C430 C428 1.384 . S
C430 C431 1.372 . S
C431 C430 1.372 . S
C431 C432 1.400 . S
C431 C436 1.490 . S
C432 H422 0.930 . S
C432 C431 1.400 . S
C432 C435 1.386 . S
H433 C449 0.930 . S
H434 C450 0.931 . S
C435 H423 0.929 . S
C435 C429 1.390 . S
C435 C432 1.386 . S
C436 C431 1.490 . S
C436 C438 1.395 1_545 S
C436 C439 1.403 . S
H437 C443 0.938 . S
C438 H424 0.930 . S
C438 C436 1.395 1_565 S
C438 C441 1.403 . S
C439 C436 1.403 . S
C439 C440 1.524 . S
C439 C443 1.411 . S
C440 H425 0.960 . S
C440 H426 0.960 . S
C440 H427 0.960 . S
C440 C439 1.524 . S
C441 C438 1.403 . S
C441 C442 1.392 . S
C441 C445 1.495 . S
C442 C441 1.392 . S
C442 C443 1.367 1_565 S
C442 C444 1.478 . S
C443 H437 0.938 . S
C443 C439 1.411 . S
C443 C442 1.367 1_545 S
C444 C442 1.478 . S
C444 C446 1.381 . S
C444 C450 1.383 . S
C445 C441 1.495 . S
C445 H451 0.959 . S
C445 H452 0.961 . S
C445 H453 0.960 . S
C446 C444 1.381 . S
C446 C447 1.394 . S
C446 H454 0.930 . S
C447 C446 1.394 . S
C447 C448 1.383 . S
C447 H455 0.929 . S
C448 C447 1.383 . S
C448 C449 1.377 . S
C449 H433 0.930 . S
C449 C448 1.377 . S
C449 C450 1.379 . S
C450 H434 0.931 . S
C450 C444 1.383 . S
C450 C449 1.379 . S
H451 C445 0.959 . S
H452 C445 0.961 . S
H453 C445 0.960 . S
H454 C446 0.930 . S
H455 C447 0.929 . S
H456 C464 0.929 . S
H457 C466 0.930 . S
H458 C468 0.930 . S
H459 C471 0.929 . S
H460 C474 0.930 . S
H461 C476 0.960 . S
H462 C476 0.960 . S
H463 C476 0.960 . S
C464 H456 0.929 . S
C464 C465 1.377 . S
C464 C466 1.384 . S
C465 C464 1.377 . S
C465 C471 1.390 . S
C466 H457 0.930 . S
C466 C464 1.384 . S
C466 C467 1.372 . S
C467 C466 1.372 . S
C467 C468 1.400 . S
C467 C472 1.490 . S
C468 H458 0.930 . S
C468 C467 1.400 . S
C468 C471 1.386 . S
H469 C485 0.930 . S
H470 C486 0.931 . S
C471 H459 0.929 . S
C471 C465 1.390 . S
C471 C468 1.386 . S
C472 C467 1.490 . S
C472 C474 1.395 . S
C472 C475 1.403 . S
H473 C479 0.930 . S
C474 H460 0.930 . S
C474 C472 1.395 . S
C474 C477 1.403 . S
C475 C472 1.403 . S
C475 C476 1.524 . S
C475 C479 1.400 . S
C476 H461 0.960 . S
C476 H462 0.960 . S
C476 H463 0.960 . S
C476 C475 1.524 . S
C477 C474 1.403 . S
C477 C478 1.392 . S
C477 C481 1.495 . S
C478 C477 1.392 . S
C478 C479 1.385 . S
C478 C480 1.478 . S
C479 H473 0.930 . S
C479 C475 1.400 . S
C479 C478 1.385 . S
C480 C478 1.478 . S
C480 C482 1.381 . S
C480 C486 1.383 . S
C481 C477 1.495 . S
C481 H487 0.959 . S
C481 H488 0.961 . S
C481 H489 0.960 . S
C482 C480 1.381 . S
C482 C483 1.394 . S
C482 H490 0.930 . S
C483 C482 1.394 . S
C483 C484 1.383 . S
C483 H491 0.929 . S
C484 C483 1.383 . S
C484 C485 1.377 . S
C485 H469 0.930 . S
C485 C484 1.377 . S
C485 C486 1.379 . S
C486 H470 0.931 . S
C486 C480 1.383 . S
C486 C485 1.379 . S
H487 C481 0.959 . S
H488 C481 0.961 . S
H489 C481 0.960 . S
H490 C482 0.930 . S
H491 C483 0.929 . S
H492 C500 0.929 . S
H493 C502 0.930 . S
H494 C504 0.930 . S
H495 C507 0.929 . S
H496 C510 0.930 . S
H497 C512 0.960 . S
H498 C512 0.960 . S
H499 C512 0.960 . S
C500 H492 0.929 . S
C500 C501 1.377 . S
C500 C502 1.384 . S
C501 C500 1.377 . S
C501 C507 1.390 . S
C502 H493 0.930 . S
C502 C500 1.384 . S
C502 C503 1.372 . S
C503 C502 1.372 . S
C503 C504 1.400 . S
C503 C508 1.490 . S
C504 H494 0.930 . S
C504 C503 1.400 . S
C504 C507 1.386 . S
H505 C521 0.930 . S
H506 C522 0.931 . S
C507 H495 0.929 . S
C507 C501 1.390 . S
C507 C504 1.386 . S
C508 C503 1.490 . S
C508 C510 1.395 . S
C508 C511 1.403 . S
H509 C515 0.930 . S
C510 H496 0.930 . S
C510 C508 1.395 . S
C510 C513 1.403 1_554 S
C511 C508 1.403 . S
C511 C512 1.524 . S
C511 C515 1.400 1_554 S
C512 H497 0.960 . S
C512 H498 0.960 . S
C512 H499 0.960 . S
C512 C511 1.524 . S
C513 C510 1.403 1_556 S
C513 C514 1.392 . S
C513 C517 1.495 . S
C514 C513 1.392 . S
C514 C515 1.385 . S
C514 C516 1.478 . S
C515 H509 0.930 . S
C515 C511 1.400 1_556 S
C515 C514 1.385 . S
C516 C514 1.478 . S
C516 C518 1.381 . S
C516 C522 1.383 . S
C517 C513 1.495 . S
C517 H523 0.959 1_556 S
C517 H524 0.961 . S
C517 H525 0.960 . S
C518 C516 1.381 . S
C518 C519 1.394 . S
C518 H526 0.930 . S
C519 C518 1.394 . S
C519 C520 1.383 . S
C519 H527 0.929 . S
C520 C519 1.383 . S
C520 C521 1.377 . S
C521 H505 0.930 . S
C521 C520 1.377 . S
C521 C522 1.379 . S
C522 H506 0.931 . S
C522 C516 1.383 . S
C522 C521 1.379 . S
H523 C517 0.959 1_554 S
H524 C517 0.961 . S
H525 C517 0.960 . S
H526 C518 0.930 . S
H527 C519 0.929 . S
H528 C536 0.929 . S
H529 C538 0.930 . S
H530 C540 0.930 . S
H531 C543 0.929 . S
H532 C546 0.930 . S
H533 C548 0.960 . S
H534 C548 0.960 . S
H535 C548 0.960 . S
C536 H528 0.929 . S
C536 C537 1.377 . S
C536 C538 1.384 . S
C537 C536 1.377 . S
C537 C543 1.390 . S
C538 H529 0.930 . S
C538 C536 1.384 . S
C538 C539 1.372 . S
C539 C538 1.372 . S
C539 C540 1.400 . S
C539 C544 1.490 . S
C540 H530 0.930 . S
C540 C539 1.400 . S
C540 C543 1.386 . S
H541 C557 0.930 . S
H542 C558 0.931 . S
C543 H531 0.929 . S
C543 C537 1.390 . S
C543 C540 1.386 . S
C544 C539 1.490 . S
C544 C546 1.395 . S
C544 C547 1.403 . S
H545 C551 0.930 . S
C546 H532 0.930 . S
C546 C544 1.395 . S
C546 C549 1.403 . S
C547 C544 1.403 . S
C547 C548 1.524 . S
C547 C551 1.400 . S
C548 H533 0.960 . S
C548 H534 0.960 . S
C548 H535 0.960 . S
C548 C547 1.524 . S
C549 C546 1.403 . S
C549 C550 1.392 . S
C549 C553 1.495 . S
C550 C549 1.392 . S
C550 C551 1.385 . S
C550 C552 1.478 . S
C551 H545 0.930 . S
C551 C547 1.400 . S
C551 C550 1.385 . S
C552 C550 1.478 . S
C552 C554 1.381 . S
C552 C558 1.383 . S
C553 C549 1.495 . S
C553 H559 0.959 . S
C553 H560 0.961 . S
C553 H561 0.960 . S
C554 C552 1.381 . S
C554 C555 1.394 . S
C554 H562 0.930 . S
C555 C554 1.394 . S
C555 C556 1.383 1_554 S
C555 H563 0.929 . S
C556 C555 1.383 1_556 S
C556 C557 1.377 1_556 S
C557 H541 0.930 . S
C557 C556 1.377 1_554 S
C557 C558 1.379 . S
C558 H542 0.931 . S
C558 C552 1.383 . S
C558 C557 1.379 . S
H559 C553 0.959 . S
H560 C553 0.961 . S
H561 C553 0.960 . S
H562 C554 0.930 . S
H563 C555 0.929 . S
H564 C572 0.929 . S
H565 C574 0.930 . S
H566 C576 0.930 . S
H567 C579 0.929 . S
H568 C582 0.930 . S
H569 C584 0.960 . S
H570 C584 0.960 . S
H571 C584 0.960 . S
C572 H564 0.929 . S
C572 C573 1.377 . S
C572 C574 1.384 . S
C573 C572 1.377 . S
C573 C579 1.390 . S
C574 H565 0.930 . S
C574 C572 1.384 . S
C574 C575 1.372 . S
C575 C574 1.372 . S
C575 C576 1.400 . S
C575 C580 1.490 . S
C576 H566 0.930 . S
C576 C575 1.400 . S
C576 C579 1.386 . S
H577 C593 0.930 . S
H578 C594 0.931 . S
C579 H567 0.929 . S
C579 C573 1.390 . S
C579 C576 1.386 . S
C580 C575 1.490 . S
C580 C582 1.395 . S
C580 C583 1.403 . S
H581 C587 0.930 . S
C582 H568 0.930 . S
C582 C580 1.395 . S
C582 C585 1.403 . S
C583 C580 1.403 . S
C583 C584 1.524 . S
C583 C587 1.400 . S
C584 H569 0.960 . S
C584 H570 0.960 . S
C584 H571 0.960 . S
C584 C583 1.524 . S
C585 C582 1.403 . S
C585 C586 1.392 . S
C585 C589 1.495 . S
C586 C585 1.392 . S
C586 C587 1.385 . S
C586 C588 1.478 . S
C587 H581 0.930 . S
C587 C583 1.400 . S
C587 C586 1.385 . S
C588 C586 1.478 . S
C588 C590 1.381 . S
C588 C594 1.383 . S
C589 C585 1.495 . S
C589 H595 0.959 . S
C589 H596 0.961 . S
C589 H597 0.960 . S
C590 C588 1.381 . S
C590 C591 1.394 . S
C590 H598 0.930 . S
C591 C590 1.394 . S
C591 C592 1.383 . S
C591 H599 0.929 . S
C592 C591 1.383 . S
C592 C593 1.377 . S
C593 H577 0.930 . S
C593 C592 1.377 . S
C593 C594 1.379 . S
C594 H578 0.931 . S
C594 C588 1.383 . S
C594 C593 1.379 . S
H595 C589 0.959 . S
H596 C589 0.961 . S
H597 C589 0.960 . S
H598 C590 0.930 . S
H599 C591 0.929 . S
H600 C608 0.929 . S
H601 C610 0.930 . S
H602 C612 0.930 . S
H603 C615 0.929 . S
H604 C618 0.930 . S
H605 C620 0.960 . S
H606 C620 0.960 . S
H607 C620 0.960 . S
C608 H600 0.929 . S
C608 C609 1.377 . S
C608 C610 1.384 . S
C609 C608 1.377 . S
C609 C615 1.390 . S
C610 H601 0.930 . S
C610 C608 1.384 . S
C610 C611 1.372 . S
C611 C610 1.372 . S
C611 C612 1.400 . S
C611 C616 1.490 . S
C612 H602 0.930 . S
C612 C611 1.400 . S
C612 C615 1.386 . S
H613 C629 0.930 . S
H614 C630 0.931 . S
C615 H603 0.929 . S
C615 C609 1.390 . S
C615 C612 1.386 . S
C616 C611 1.490 . S
C616 C618 1.395 . S
C616 C619 1.403 . S
H617 C623 0.930 . S
C618 H604 0.930 . S
C618 C616 1.395 . S
C618 C621 1.403 . S
C619 C616 1.403 . S
C619 C620 1.524 . S
C619 C623 1.400 . S
C620 H605 0.960 . S
C620 H606 0.960 . S
C620 H607 0.960 . S
C620 C619 1.524 . S
C621 C618 1.403 . S
C621 C622 1.392 . S
C621 C625 1.495 . S
C622 C621 1.392 . S
C622 C623 1.385 . S
C622 C624 1.478 . S
C623 H617 0.930 . S
C623 C619 1.400 . S
C623 C622 1.385 . S
C624 C622 1.478 . S
C624 C626 1.381 . S
C624 C630 1.383 . S
C625 C621 1.495 . S
C625 H631 0.959 . S
C625 H632 0.961 . S
C625 H633 0.960 . S
C626 C624 1.381 . S
C626 C627 1.394 1_556 S
C626 H634 0.930 . S
C627 C626 1.394 1_554 S
C627 C628 1.383 . S
C627 H635 0.929 . S
C628 C627 1.383 . S
C628 C629 1.377 . S
C629 H613 0.930 . S
C629 C628 1.377 . S
C629 C630 1.379 1_554 S
C630 H614 0.931 . S
C630 C624 1.383 . S
C630 C629 1.379 1_556 S
H631 C625 0.959 . S
H632 C625 0.961 . S
H633 C625 0.960 . S
H634 C626 0.930 . S
H635 C627 0.929 . S
H636 C644 0.929 . S
H637 C646 0.930 . S
H638 C648 0.930 . S
H639 C651 0.929 . S
H640 C654 0.930 . S
H641 C656 0.960 . S
H642 C656 0.960 . S
H643 C656 0.960 . S
C644 H636 0.929 . S
C644 C645 1.377 . S
C644 C646 1.384 . S
C645 C644 1.377 . S
C645 C651 1.390 . S
C646 H637 0.930 . S
C646 C644 1.384 . S
C646 C647 1.372 . S
C647 C646 1.372 . S
C647 C648 1.400 . S
C647 C652 1.490 . S
C648 H638 0.930 . S
C648 C647 1.400 . S
C648 C651 1.386 . S
H649 C665 0.930 . S
H650 C666 0.931 . S
C651 H639 0.929 . S
C651 C645 1.390 . S
C651 C648 1.386 . S
C652 C647 1.490 . S
C652 C654 1.395 . S
C652 C655 1.403 . S
H653 C659 0.930 . S
C654 H640 0.930 . S
C654 C652 1.395 . S
C654 C657 1.403 . S
C655 C652 1.403 . S
C655 C656 1.524 . S
C655 C659 1.400 . S
C656 H641 0.960 . S
C656 H642 0.960 . S
C656 H643 0.960 . S
C656 C655 1.524 . S
C657 C654 1.403 . S
C657 C658 1.392 . S
C657 C661 1.495 . S
C658 C657 1.392 . S
C658 C659 1.385 . S
C658 C660 1.478 . S
C659 H653 0.930 . S
C659 C655 1.400 . S
C659 C658 1.385 . S
C660 C658 1.478 . S
C660 C662 1.381 . S
C660 C666 1.383 . S
C661 C657 1.495 . S
C661 H667 0.959 . S
C661 H668 0.961 . S
C661 H669 0.960 . S
C662 C660 1.381 . S
C662 C663 1.394 . S
C662 H670 0.930 . S
C663 C662 1.394 . S
C663 C664 1.383 . S
C663 H671 0.929 . S
C664 C663 1.383 . S
C664 C665 1.377 . S
C665 H649 0.930 . S
C665 C664 1.377 . S
C665 C666 1.379 . S
C666 H650 0.931 . S
C666 C660 1.383 . S
C666 C665 1.379 . S
H667 C661 0.959 . S
H668 C661 0.961 . S
H669 C661 0.960 . S
H670 C662 0.930 . S
H671 C663 0.929 . S
H672 C680 0.929 . S
H673 C682 0.930 . S
H674 C684 0.930 . S
H675 C687 0.929 . S
H676 C690 0.930 . S
H677 C692 0.960 . S
H678 C692 0.960 . S
H679 C692 0.960 . S
C680 H672 0.929 . S
C680 C681 1.377 . S
C680 C682 1.384 . S
C681 C680 1.377 . S
C681 C687 1.390 . S
C682 H673 0.930 . S
C682 C680 1.384 . S
C682 C683 1.372 . S
C683 C682 1.372 . S
C683 C684 1.400 . S
C683 C688 1.490 . S
C684 H674 0.930 . S
C684 C683 1.400 . S
C684 C687 1.386 . S
H685 C701 0.930 . S
H686 C702 0.931 . S
C687 H675 0.929 . S
C687 C681 1.390 . S
C687 C684 1.386 . S
C688 C683 1.490 . S
C688 C690 1.395 . S
C688 C691 1.403 . S
H689 C695 0.930 . S
C690 H676 0.930 . S
C690 C688 1.395 . S
C690 C693 1.403 . S
C691 C688 1.403 . S
C691 C692 1.524 . S
C691 C695 1.400 . S
C692 H677 0.960 . S
C692 H678 0.960 . S
C692 H679 0.960 . S
C692 C691 1.524 . S
C693 C690 1.403 . S
C693 C694 1.392 . S
C693 C697 1.495 . S
C694 C693 1.392 . S
C694 C695 1.385 . S
C694 C696 1.478 . S
C695 H689 0.930 . S
C695 C691 1.400 . S
C695 C694 1.385 . S
C696 C694 1.478 . S
C696 C698 1.381 . S
C696 C702 1.383 . S
C697 C693 1.495 . S
C697 H703 0.959 . S
C697 H704 0.961 . S
C697 H705 0.960 . S
C698 C696 1.381 . S
C698 C699 1.394 . S
C698 H706 0.930 . S
C699 C698 1.394 . S
C699 C700 1.383 . S
C699 H707 0.929 . S
C700 C699 1.383 . S
C700 C701 1.377 . S
C701 H685 0.930 . S
C701 C700 1.377 . S
C701 C702 1.379 . S
C702 H686 0.931 . S
C702 C696 1.383 . S
C702 C701 1.379 . S
H703 C697 0.959 . S
H704 C697 0.961 . S
H705 C697 0.960 . S
H706 C698 0.930 . S
H707 C699 0.929 . S
H708 C716 0.929 . S
H709 C718 0.930 . S
H710 C720 0.930 . S
H711 C723 0.929 . S
H712 C726 0.930 . S
H713 C728 0.960 . S
H714 C728 0.960 . S
H715 C728 0.960 . S
C716 H708 0.929 . S
C716 C717 1.377 . S
C716 C718 1.384 . S
C717 C716 1.377 . S
C717 C723 1.390 . S
C718 H709 0.930 . S
C718 C716 1.384 . S
C718 C719 1.372 . S
C719 C718 1.372 . S
C719 C720 1.400 . S
C719 C724 1.490 . S
C720 H710 0.930 . S
C720 C719 1.400 . S
C720 C723 1.386 . S
H721 C737 0.930 . S
H722 C738 0.931 . S
C723 H711 0.929 . S
C723 C717 1.390 . S
C723 C720 1.386 . S
C724 C719 1.490 . S
C724 C726 1.395 . S
C724 C727 1.403 . S
H725 C731 0.930 . S
C726 H712 0.930 . S
C726 C724 1.395 . S
C726 C729 1.403 . S
C727 C724 1.403 . S
C727 C728 1.524 . S
C727 C731 1.400 . S
C728 H713 0.960 . S
C728 H714 0.960 . S
C728 H715 0.960 . S
C728 C727 1.524 . S
C729 C726 1.403 . S
C729 C730 1.392 . S
C729 C733 1.495 . S
C730 C729 1.392 . S
C730 C731 1.385 . S
C730 C732 1.478 . S
C731 H725 0.930 . S
C731 C727 1.400 . S
C731 C730 1.385 . S
C732 C730 1.478 . S
C732 C734 1.381 . S
C732 C738 1.383 . S
C733 C729 1.495 . S
C733 H739 0.959 . S
C733 H740 0.961 . S
C733 H741 0.960 . S
C734 C732 1.381 . S
C734 C735 1.394 . S
C734 H742 0.930 . S
C735 C734 1.394 . S
C735 C736 1.383 . S
C735 H743 0.929 . S
C736 C735 1.383 . S
C736 C737 1.377 . S
C737 H721 0.930 . S
C737 C736 1.377 . S
C737 C738 1.379 . S
C738 H722 0.931 . S
C738 C732 1.383 . S
C738 C737 1.379 . S
H739 C733 0.959 . S
H740 C733 0.961 . S
H741 C733 0.960 . S
H742 C734 0.930 . S
H743 C735 0.929 . S
H744 C752 0.929 . S
H745 C754 0.930 . S
H746 C756 0.930 . S
H747 C759 0.929 . S
H748 C762 0.930 . S
H749 C764 0.960 . S
H750 C764 0.960 . S
H751 C764 0.960 . S
C752 H744 0.929 . S
C752 C753 1.377 . S
C752 C754 1.384 . S
C753 C752 1.377 . S
C753 C759 1.390 . S
C754 H745 0.930 . S
C754 C752 1.384 . S
C754 C755 1.372 . S
C755 C754 1.372 . S
C755 C756 1.400 . S
C755 C760 1.490 . S
C756 H746 0.930 . S
C756 C755 1.400 . S
C756 C759 1.386 . S
H757 C773 0.930 . S
H758 C774 0.931 . S
C759 H747 0.929 . S
C759 C753 1.390 . S
C759 C756 1.386 . S
C760 C755 1.490 . S
C760 C762 1.395 . S
C760 C763 1.403 . S
H761 C767 0.930 . S
C762 H748 0.930 . S
C762 C760 1.395 . S
C762 C765 1.403 . S
C763 C760 1.403 . S
C763 C764 1.524 . S
C763 C767 1.400 . S
C764 H749 0.960 . S
C764 H750 0.960 . S
C764 H751 0.960 . S
C764 C763 1.524 . S
C765 C762 1.403 . S
C765 C766 1.392 . S
C765 C769 1.495 . S
C766 C765 1.392 . S
C766 C767 1.385 . S
C766 C768 1.478 . S
C767 H761 0.930 . S
C767 C763 1.400 . S
C767 C766 1.385 . S
C768 C766 1.478 . S
C768 C770 1.381 . S
C768 C774 1.383 . S
C769 C765 1.495 . S
C769 H775 0.959 . S
C769 H776 0.961 . S
C769 H777 0.960 . S
C770 C768 1.381 . S
C770 C771 1.394 . S
C770 H778 0.930 . S
C771 C770 1.394 . S
C771 C772 1.383 . S
C771 H779 0.929 . S
C772 C771 1.383 . S
C772 C773 1.377 . S
C773 H757 0.930 . S
C773 C772 1.377 . S
C773 C774 1.379 . S
C774 H758 0.931 . S
C774 C768 1.383 . S
C774 C773 1.379 . S
H775 C769 0.959 . S
H776 C769 0.961 . S
H777 C769 0.960 . S
H778 C770 0.930 . S
H779 C771 0.929 . S
H780 C788 0.929 . S
H781 C790 0.930 . S
H782 C792 0.930 . S
H783 C795 0.929 . S
H784 C798 0.930 . S
H785 C800 0.960 . S
H786 C800 0.960 . S
H787 C800 0.960 . S
C788 H780 0.929 . S
C788 C789 1.377 . S
C788 C790 1.384 . S
C789 C788 1.377 . S
C789 C795 1.390 . S
C790 H781 0.930 . S
C790 C788 1.384 . S
C790 C791 1.372 . S
C791 C790 1.372 . S
C791 C792 1.400 . S
C791 C796 1.490 . S
C792 H782 0.930 . S
C792 C791 1.400 . S
C792 C795 1.386 . S
H793 C809 0.930 . S
H794 C810 0.931 . S
C795 H783 0.929 . S
C795 C789 1.390 . S
C795 C792 1.386 . S
C796 C791 1.490 . S
C796 C798 1.395 . S
C796 C799 1.403 . S
H797 C803 0.930 . S
C798 H784 0.930 . S
C798 C796 1.395 . S
C798 C801 1.403 . S
C799 C796 1.403 . S
C799 C800 1.524 . S
C799 C803 1.400 . S
C800 H785 0.960 . S
C800 H786 0.960 . S
C800 H787 0.960 . S
C800 C799 1.524 . S
C801 C798 1.403 . S
C801 C802 1.392 . S
C801 C805 1.495 . S
C802 C801 1.392 . S
C802 C803 1.385 . S
C802 C804 1.478 . S
C803 H797 0.930 . S
C803 C799 1.400 . S
C803 C802 1.385 . S
C804 C802 1.478 . S
C804 C806 1.381 . S
C804 C810 1.383 . S
C805 C801 1.495 . S
C805 H811 0.959 . S
C805 H812 0.961 . S
C805 H813 0.960 . S
C806 C804 1.381 . S
C806 C807 1.394 . S
C806 H814 0.930 . S
C807 C806 1.394 . S
C807 C808 1.383 . S
C807 H815 0.929 . S
C808 C807 1.383 . S
C808 C809 1.377 . S
C809 H793 0.930 . S
C809 C808 1.377 . S
C809 C810 1.379 . S
C810 H794 0.931 . S
C810 C804 1.383 . S
C810 C809 1.379 . S
H811 C805 0.959 . S
H812 C805 0.961 . S
H813 C805 0.960 . S
H814 C806 0.930 . S
H815 C807 0.929 . S
H816 C824 0.929 . S
H817 C826 0.930 . S
H818 C828 0.930 . S
H819 C831 0.929 . S
H820 C834 0.930 . S
H821 C836 0.960 . S
H822 C836 0.960 . S
H823 C836 0.960 . S
C824 H816 0.929 . S
C824 C825 1.377 . S
C824 C826 1.384 . S
C825 C824 1.377 . S
C825 C831 1.390 . S
C826 H817 0.930 . S
C826 C824 1.384 . S
C826 C827 1.372 . S
C827 C826 1.372 . S
C827 C828 1.400 . S
C827 C832 1.490 . S
C828 H818 0.930 . S
C828 C827 1.400 . S
C828 C831 1.386 . S
H829 C845 0.930 . S
H830 C846 0.931 . S
C831 H819 0.929 . S
C831 C825 1.390 . S
C831 C828 1.386 . S
C832 C827 1.490 . S
C832 C834 1.395 . S
C832 C835 1.403 . S
H833 C839 0.930 . S
C834 H820 0.930 . S
C834 C832 1.395 . S
C834 C837 1.403 . S
C835 C832 1.403 . S
C835 C836 1.524 . S
C835 C839 1.400 . S
C836 H821 0.960 . S
C836 H822 0.960 . S
C836 H823 0.960 . S
C836 C835 1.524 . S
C837 C834 1.403 . S
C837 C838 1.392 . S
C837 C841 1.495 . S
C838 C837 1.392 . S
C838 C839 1.385 . S
C838 C840 1.478 . S
C839 H833 0.930 . S
C839 C835 1.400 . S
C839 C838 1.385 . S
C840 C838 1.478 . S
C840 C842 1.381 . S
C840 C846 1.383 . S
C841 C837 1.495 . S
C841 H847 0.959 . S
C841 H848 0.961 . S
C841 H849 0.960 . S
C842 C840 1.381 . S
C842 C843 1.394 . S
C842 H850 0.930 . S
C843 C842 1.394 . S
C843 C844 1.383 . S
C843 H851 0.929 . S
C844 C843 1.383 . S
C844 C845 1.377 . S
C845 H829 0.930 . S
C845 C844 1.377 . S
C845 C846 1.379 . S
C846 H830 0.931 . S
C846 C840 1.383 . S
C846 C845 1.379 . S
H847 C841 0.959 . S
H848 C841 0.961 . S
H849 C841 0.960 . S
H850 C842 0.930 . S
H851 C843 0.929 . S
H852 C860 0.929 . S
H853 C862 0.930 . S
H854 C864 0.930 . S
H855 C867 0.929 . S
H856 C870 0.930 1_556 S
H857 C872 0.960 . S
H858 C872 0.960 . S
H859 C872 0.960 . S
C860 H852 0.929 . S
C860 C861 1.377 . S
C860 C862 1.384 . S
C861 C860 1.377 . S
C861 C867 1.390 . S
C862 H853 0.930 . S
C862 C860 1.384 . S
C862 C863 1.372 . S
C863 C862 1.372 . S
C863 C864 1.400 . S
C863 C868 1.490 . S
C864 H854 0.930 . S
C864 C863 1.400 . S
C864 C867 1.386 . S
H865 C881 0.930 . S
H866 C882 0.931 . S
C867 H855 0.929 . S
C867 C861 1.390 . S
C867 C864 1.386 . S
C868 C863 1.490 . S
C868 C870 1.395 . S
C868 C871 1.403 . S
H869 C875 0.930 . S
C870 H856 0.930 1_554 S
C870 C868 1.395 . S
C870 C873 1.403 1_554 S
C871 C868 1.403 . S
C871 C872 1.524 . S
C871 C875 1.400 . S
C872 H857 0.960 . S
C872 H858 0.960 . S
C872 H859 0.960 . S
C872 C871 1.524 . S
C873 C870 1.403 1_556 S
C873 C874 1.391 . S
C873 C877 1.495 . S
C874 C873 1.391 . S
C874 C875 1.388 1_556 S
C874 C876 1.476 . S
C875 H869 0.930 . S
C875 C871 1.400 . S
C875 C874 1.388 1_554 S
C876 C874 1.476 . S
C876 C878 1.381 . S
C876 C882 1.383 . S
C877 C873 1.495 . S
C877 H883 0.959 . S
C877 H884 0.961 . S
C877 H885 0.960 . S
C878 C876 1.381 . S
C878 C879 1.394 . S
C878 H886 0.930 . S
C879 C878 1.394 . S
C879 C880 1.383 . S
C879 H887 0.929 . S
C880 C879 1.383 . S
C880 C881 1.377 . S
C881 H865 0.930 . S
C881 C880 1.377 . S
C881 C882 1.379 . S
C882 H866 0.931 . S
C882 C876 1.383 . S
C882 C881 1.379 . S
H883 C877 0.959 . S
H884 C877 0.961 . S
H885 C877 0.960 . S
H886 C878 0.930 . S
H887 C879 0.929 . S
C249 C217 1.316 . S
C268 C17 1.354 1_556 S
C285 C31 1.563 . S
C304 C71 1.556 . S
C321 C57 1.331 . S
C340 C97 1.293 . S
C357 C111 1.564 . S
C376 C151 1.546 . S
C393 C177 1.324 . S
C412 C137 1.323 . S
C429 C231 1.564 . S
C448 C191 1.546 . S
C465 C29 0.986 . S
C484 C8 0.971 . S
C501 C48 0.981 . S
C520 C69 0.979 . S
C537 C109 0.988 . S
C556 C88 0.998 . S
C573 C128 0.987 . S
C592 C149 0.977 . S
C609 C168 0.981 . S
C628 C189 0.987 . S
C645 C208 0.986 . S
C664 C229 1.002 . S
C681 C2 1.825 . S
C700 C172 1.819 . S
C717 C52 1.823 . S
C736 C202 1.822 . S
C753 C12 1.823 . S
C772 C82 1.821 . S
C789 C42 1.824 . S
C808 C132 1.814 . S
C825 C162 1.824 . S
C844 C92 1.823 . S
C861 C122 1.825 . S
C880 C212 1.814 . S
