# Generated by pormake.
# Topology yfx, (5)-cn, num edge types: 1
# Building blocks:
#     Node 0, Type 0, BuildingBlock: XOMCOT_clean_sbu_1, # of connection points: 5
#     Node 1, Type 0, BuildingBlock: XOMCOT_clean_sbu_1, # of connection points: 5
#     Node 2, Type 0, BuildingBlock: XOMCOT_clean_sbu_1, # of connection points: 5
#     Node 3, Type 0, BuildingBlock: XOMCOT_clean_sbu_1, # of connection points: 5
#     Node 4, Type 0, BuildingBlock: XOMCOT_clean_sbu_1, # of connection points: 5
#     Node 5, Type 0, BuildingBlock: XOMCOT_clean_sbu_1, # of connection points: 5
#     Node 6, Type 0, BuildingBlock: XOMCOT_clean_sbu_1, # of connection points: 5
#     Node 7, Type 0, BuildingBlock: XOMCOT_clean_sbu_1, # of connection points: 5
#     Edge 8, Type (0, 0), BuildingBlock: OJICUG_clean_linker_0, # of connection points: 2
#     Edge 9, Type (0, 0), BuildingBlock: OJICUG_clean_linker_0, # of connection points: 2
#     Edge 10, Type (0, 0), BuildingBlock: OJICUG_clean_linker_0, # of connection points: 2
#     Edge 11, Type (0, 0), BuildingBlock: OJICUG_clean_linker_0, # of connection points: 2
#     Edge 12, Type (0, 0), BuildingBlock: OJICUG_clean_linker_0, # of connection points: 2
#     Edge 13, Type (0, 0), BuildingBlock: OJICUG_clean_linker_0, # of connection points: 2
#     Edge 14, Type (0, 0), BuildingBlock: OJICUG_clean_linker_0, # of connection points: 2
#     Edge 15, Type (0, 0), BuildingBlock: OJICUG_clean_linker_0, # of connection points: 2
#     Edge 16, Type (0, 0), BuildingBlock: OJICUG_clean_linker_0, # of connection points: 2
#     Edge 17, Type (0, 0), BuildingBlock: OJICUG_clean_linker_0, # of connection points: 2
#     Edge 18, Type (0, 0), BuildingBlock: OJICUG_clean_linker_0, # of connection points: 2
#     Edge 19, Type (0, 0), BuildingBlock: OJICUG_clean_linker_0, # of connection points: 2
#     Edge 20, Type (0, 0), BuildingBlock: OJICUG_clean_linker_0, # of connection points: 2
#     Edge 21, Type (0, 0), BuildingBlock: OJICUG_clean_linker_0, # of connection points: 2
#     Edge 22, Type (0, 0), BuildingBlock: OJICUG_clean_linker_0, # of connection points: 2
#     Edge 23, Type (0, 0), BuildingBlock: OJICUG_clean_linker_0, # of connection points: 2
#     Edge 24, Type (0, 0), BuildingBlock: OJICUG_clean_linker_0, # of connection points: 2
#     Edge 25, Type (0, 0), BuildingBlock: OJICUG_clean_linker_0, # of connection points: 2
#     Edge 26, Type (0, 0), BuildingBlock: OJICUG_clean_linker_0, # of connection points: 2
#     Edge 27, Type (0, 0), BuildingBlock: OJICUG_clean_linker_0, # of connection points: 2
# Relax obj value: 0.108
# Max RMSD: 0.116
# Mean RMSD: 0.116
data_MOF--net-yfx--node1-XOMCOT_clean_sbu_1--edge1-OJICUG_clean_linker_0
_symmetry_space_group_name_H-M    P1
_symmetry_Int_Tables_number       1
_symmetry_cell_setting            triclinic
loop_
_symmetry_equiv_pos_as_xyz
'x, y, z'
_cell_length_a     27.277418
_cell_length_b     27.37726
_cell_length_c     20.41665
_cell_angle_alpha  90.379979
_cell_angle_beta   89.921031
_cell_angle_gamma 90.556005
loop_
_atom_site_label
_atom_site_type_symbol
_atom_site_fract_x
_atom_site_fract_y
_atom_site_fract_z
_atom_type_partial_charge
C0 C 0.30552 0.39086 0.94515 0.0
C1 C 0.35192 0.37303 0.93616 0.0
N2 N 0.36654 0.3528 0.99269 0.0
N3 N 0.29092 0.38193 1.00707 0.0
C4 C 0.32914 0.35896 1.03497 0.0
H5 H 0.2828 0.40675 0.90772 0.0
Co6 Co 0.22728 0.39151 1.03707 0.0
C7 C 0.23455 0.37757 0.17982 0.0
O8 O 0.20799 0.41682 0.18881 0.0
N9 N 0.1621 0.40158 0.06563 0.0
C10 C 0.08614 0.39141 0.10362 0.0
C11 C 0.13 0.36866 0.09014 0.0
C12 C 0.13678 0.44384 0.06469 0.0
N13 N 0.09039 0.43902 0.08754 0.0
O14 O 0.24686 0.45498 0.06715 0.0
H15 H 0.13792 0.33047 0.09768 0.0
H16 H 0.15227 0.47784 0.04808 0.0
O17 O 0.24415 0.3628 0.1217 0.0
C18 C 0.2449 0.48365 1.0183 0.0
O19 O 0.22395 0.46743 0.96431 0.0
N20 N 0.2102 0.33127 0.99976 0.0
C21 C 0.22327 0.26027 0.90223 0.0
C22 C 0.2376 0.2516 0.96747 0.0
C23 C 0.23107 0.28782 1.01562 0.0
C24 C 0.19091 0.33809 0.93914 0.0
C25 C 0.19733 0.30336 0.88957 0.0
H26 H 0.24742 0.28282 0.06325 0.0
H27 H 0.17607 0.37335 0.9268 0.0
H28 H 0.32838 0.3436 0.08338 0.0
H29 H 0.37254 0.37315 0.89081 0.0
H30 H 0.05366 0.37379 0.1231 0.0
H31 H 0.2565 0.21851 0.98057 0.0
H32 H 0.18588 0.31268 0.84056 0.0
C33 C 0.64209 0.30675 0.95055 0.0
C34 C 0.66183 0.3528 0.94377 0.0
N35 N 0.67896 0.36754 1.00255 0.0
N36 N 0.64694 0.29245 1.01326 0.0
C37 C 0.66903 0.33061 0.04385 0.0
H38 H 0.62808 0.28388 0.91132 0.0
Co39 Co 0.6357 0.22888 0.04189 0.0
C40 C 0.64871 0.23643 0.18542 0.0
O41 O 0.60825 0.21075 0.19349 0.0
N42 N 0.62421 0.164 0.06911 0.0
C43 C 0.63384 0.08937 0.10945 0.0
C44 C 0.65623 0.13394 0.09845 0.0
C45 C 0.5828 0.1367 0.0625 0.0
N46 N 0.58747 0.09119 0.08688 0.0
O47 O 0.57198 0.24799 0.07054 0.0
H48 H 0.69349 0.14388 0.11127 0.0
H49 H 0.54988 0.14945 1.03919 0.0
O50 O 0.66431 0.24543 0.1276 0.0
C51 C 0.54436 0.24576 1.02025 0.0
O52 O 0.56216 0.22606 0.96643 0.0
N53 N 0.69608 0.21181 1.00575 0.0
C54 C 0.76832 0.22247 0.90927 0.0
C55 C 0.77688 0.23816 0.97429 0.0
C56 C 0.74 0.23292 1.02186 0.0
C57 C 0.68921 0.19135 0.94555 0.0
C58 C 0.7245 0.19659 0.89651 0.0
H59 H 0.74499 0.25024 0.06913 0.0
H60 H 0.6536 0.17631 0.93295 0.0
H61 H 0.68136 0.33007 0.09387 0.0
H62 H 0.66541 0.37294 0.89853 0.0
H63 H 0.65036 0.0583 0.13299 0.0
H64 H 0.81045 0.25706 0.98762 0.0
H65 H 0.71508 0.18416 0.8477 0.0
C66 C 0.72607 0.62819 0.97561 0.0
C67 C 0.67956 0.64505 0.9654 0.0
N68 N 0.66427 0.6673 1.02067 0.0
N69 N 0.74019 0.63974 1.03705 0.0
C70 C 0.70133 0.66292 0.06382 0.0
H71 H 0.74944 0.61177 0.93897 0.0
Co72 Co 0.80476 0.63353 0.06496 0.0
C73 C 0.80441 0.69568 0.18676 0.0
O74 O 0.84282 0.72027 0.16603 0.0
N75 N 0.8719 0.62581 0.09126 0.0
C76 C 0.95281 0.6378 0.09953 0.0
C77 C 0.90826 0.65984 0.09109 0.0
C78 C 0.8961 0.58324 0.10082 0.0
N79 N 0.94523 0.58941 0.10489 0.0
O80 O 0.78835 0.56931 0.09397 0.0
H81 H 0.90375 0.69815 0.08067 0.0
H82 H 0.87884 0.54764 0.10017 0.0
O83 O 0.78684 0.66079 0.15175 0.0
C84 C 0.79339 0.54121 0.04434 0.0
O85 O 0.81663 0.55853 0.99288 0.0
N86 N 0.81824 0.69462 1.0267 0.0
C87 C 0.80301 0.75942 0.92407 0.0
C88 C 0.78238 0.76817 0.98603 0.0
C89 C 0.7906 0.73537 1.03702 0.0
C90 C 0.8426 0.6885 0.96886 0.0
C91 C 0.83597 0.72083 0.91706 0.0
H92 H 0.7693 0.73956 0.0812 0.0
H93 H 0.86246 0.65509 0.95994 0.0
H94 H 0.70177 0.6804 0.1115 0.0
H95 H 0.65967 0.64373 0.91956 0.0
H96 H 0.98827 0.65588 0.0984 0.0
H97 H 0.75662 0.7976 0.9933 0.0
H98 H 0.85211 0.71238 0.86987 0.0
C99 C 0.39966 0.71998 0.95295 0.0
C100 C 0.38133 0.67363 0.94331 0.0
N101 N 0.35802 0.65982 0.99839 0.0
N102 N 0.38796 0.73532 1.01384 0.0
C103 C 0.36276 0.69764 1.04046 0.0
H104 H 0.41766 0.74218 0.91637 0.0
Co105 Co 0.39698 0.79918 0.04304 0.0
C106 C 0.3798 0.79278 0.18547 0.0
O107 O 0.41946 0.81945 0.19512 0.0
N108 N 0.4065 0.86454 0.07039 0.0
C109 C 0.39527 0.94005 0.10843 0.0
C110 C 0.37356 0.89494 0.09789 0.0
C111 C 0.44769 0.89216 0.06441 0.0
N112 N 0.4421 0.93815 0.08743 0.0
O113 O 0.45977 0.78121 0.0763 0.0
H114 H 0.3361 0.88492 0.10951 0.0
H115 H 0.48113 0.87934 0.04231 0.0
O116 O 0.36584 0.78287 0.12705 0.0
C117 C 0.49072 0.78268 1.02954 0.0
O118 O 0.4769 0.80194 0.97379 0.0
N119 N 0.33757 0.81479 1.00319 0.0
C120 C 0.26582 0.80335 0.9061 0.0
C121 C 0.25617 0.79024 0.97164 0.0
C122 C 0.29279 0.79578 1.01949 0.0
C123 C 0.34588 0.83245 0.94203 0.0
C124 C 0.31084 0.82678 0.89272 0.0
H125 H 0.28653 0.78068 0.06757 0.0
H126 H 0.38211 0.84583 0.92941 0.0
H127 H 0.34472 0.69911 0.08741 0.0
H128 H 0.38307 0.65256 0.89832 0.0
H129 H 0.37798 0.97157 0.13045 0.0
H130 H 0.22171 0.77327 0.98539 0.0
H131 H 0.32109 0.83709 0.84349 0.0
C132 C 0.79307 0.87827 0.45839 0.0
C133 C 0.83791 0.85796 0.44531 0.0
N134 N 0.85696 0.84211 0.50213 0.0
N135 N 0.78371 0.87484 0.523 0.0
C136 C 0.82365 0.85326 0.54855 0.0
H137 H 0.76801 0.89302 0.42278 0.0
Co138 Co 0.72461 0.89216 0.56169 0.0
C139 C 0.72185 0.83182 0.68209 0.0
O140 O 0.67718 0.81745 0.66669 0.0
N141 N 0.66465 0.91281 0.60077 0.0
C142 C 0.61837 0.95082 0.67511 0.0
C143 C 0.65955 0.92372 0.66518 0.0
C144 C 0.62621 0.93586 0.5724 0.0
N145 N 0.59768 0.9594 0.61672 0.0
O146 O 0.75366 0.95264 0.58766 0.0
H147 H 0.68675 0.91777 0.70251 0.0
H148 H 0.62235 0.94037 0.52013 0.0
O149 O 0.74498 0.86122 0.64431 0.0
C150 C 0.74662 0.98163 0.54009 0.0
O151 O 0.71894 0.96631 0.49131 0.0
N152 N 0.6971 0.83364 0.52695 0.0
C153 C 0.70729 0.7716 0.41866 0.0
C154 C 0.72566 0.75807 0.47985 0.0
C155 C 0.72027 0.78969 0.53367 0.0
C156 C 0.67266 0.84335 0.47032 0.0
C157 C 0.67769 0.81304 0.41532 0.0
H158 H 0.74223 0.78229 0.57624 0.0
H159 H 0.65676 0.87878 0.46327 0.0
H160 H 0.82738 0.84355 0.59947 0.0
H161 H 0.85479 0.85434 0.39754 0.0
H162 H 0.60687 0.96643 0.72144 0.0
H163 H 0.74944 0.72678 0.48411 0.0
H164 H 0.66331 0.82496 0.3687 0.0
C165 C 0.13441 0.80419 0.44875 0.0
C166 C 0.15417 0.8499 0.43914 0.0
N167 N 0.1743 0.8652 0.49592 0.0
N168 N 0.14217 0.79069 0.51125 0.0
C169 C 0.16612 0.82898 0.53896 0.0
H170 H 0.11865 0.78088 0.41123 0.0
Co171 Co 0.13257 0.72735 0.54129 0.0
C172 C 0.14732 0.73662 0.68452 0.0
O173 O 0.1072 0.71066 0.69399 0.0
N174 N 0.12266 0.66256 0.5697 0.0
C175 C 0.13368 0.58817 0.61027 0.0
C176 C 0.15532 0.63309 0.59891 0.0
C177 C 0.0817 0.63459 0.56355 0.0
N178 N 0.08719 0.58926 0.58809 0.0
O179 O 0.0687 0.74552 0.57104 0.0
H180 H 0.19251 0.64363 0.61125 0.0
H181 H 0.0485 0.64665 0.54033 0.0
O182 O 0.16189 0.74528 0.62614 0.0
C183 C 0.03976 0.74226 0.52215 0.0
O184 O 0.05648 0.7226 0.46771 0.0
N185 N 0.19297 0.71119 0.50431 0.0
C186 C 0.26475 0.72359 0.4077 0.0
C187 C 0.27337 0.73872 0.47289 0.0
C188 C 0.23676 0.73252 0.52057 0.0
C189 C 0.18611 0.69123 0.44379 0.0
C190 C 0.22123 0.6973 0.39467 0.0
H191 H 0.24184 0.74933 0.56814 0.0
H192 H 0.15062 0.67595 0.43115 0.0
H193 H 0.1812 0.82884 0.58769 0.0
H194 H 0.15592 0.8693 0.39315 0.0
H195 H 0.15078 0.55736 0.63368 0.0
H196 H 0.30678 0.75792 0.48628 0.0
H197 H 0.21195 0.68523 0.34564 0.0
C198 C 0.22177 0.12518 0.44726 0.0
C199 C 0.17495 0.14205 0.43883 0.0
N200 N 0.16163 0.16579 0.4939 0.0
N201 N 0.23786 0.13829 0.50733 0.0
C202 C 0.20017 0.16274 0.53468 0.0
H203 H 0.24377 0.10733 0.41031 0.0
Co204 Co 0.30233 0.1327 0.53526 0.0
C205 C 0.29531 0.14839 0.67846 0.0
O206 O 0.32335 0.11026 0.68729 0.0
N207 N 0.36818 0.12695 0.56162 0.0
C208 C 0.44258 0.14421 0.60026 0.0
C209 C 0.39659 0.16241 0.58832 0.0
C210 C 0.39797 0.08772 0.55724 0.0
N211 N 0.44341 0.0971 0.58065 0.0
O212 O 0.28686 0.06895 0.56672 0.0
H213 H 0.38453 0.19916 0.59881 0.0
H214 H 0.38654 0.05244 0.53868 0.0
O215 O 0.28501 0.16199 0.6203 0.0
C216 C 0.29053 0.03908 0.51886 0.0
O217 O 0.31081 0.05483 0.46438 0.0
N218 N 0.31565 0.19297 0.49686 0.0
C219 C 0.30306 0.26447 0.40141 0.0
C220 C 0.28852 0.27284 0.46681 0.0
C221 C 0.29481 0.23635 0.51394 0.0
C222 C 0.3345 0.18614 0.43584 0.0
C223 C 0.32839 0.22114 0.38733 0.0
H224 H 0.27889 0.24133 0.56198 0.0
H225 H 0.34941 0.15093 0.42268 0.0
H226 H 0.20219 0.18179 0.58093 0.0
H227 H 0.15329 0.13921 0.39455 0.0
H228 H 0.47304 0.1643 0.62156 0.0
H229 H 0.26989 0.30604 0.48082 0.0
H230 H 0.33984 0.21205 0.33802 0.0
C231 C 0.89271 0.21951 0.44908 0.0
C232 C 0.87535 0.17259 0.44128 0.0
N233 N 0.85876 0.1569 0.49969 0.0
N234 N 0.88695 0.23339 0.51207 0.0
C235 C 0.86666 0.19419 0.54184 0.0
H236 H 0.906 0.24301 0.41046 0.0
Co237 Co 0.89684 0.29697 0.54217 0.0
C238 C 0.8833 0.28902 0.68539 0.0
O239 O 0.92342 0.3152 0.69399 0.0
N240 N 0.9072 0.3619 0.57069 0.0
C241 C 0.89664 0.43671 0.61139 0.0
C242 C 0.87476 0.39181 0.60014 0.0
C243 C 0.94833 0.38956 0.56434 0.0
N244 N 0.9431 0.43518 0.5889 0.0
O245 O 0.96056 0.27869 0.57079 0.0
H246 H 0.83752 0.38158 0.61268 0.0
H247 H 0.98143 0.37704 0.54094 0.0
O248 O 0.86805 0.27979 0.62736 0.0
C249 C 0.98853 0.28055 0.52077 0.0
O250 O 0.97145 0.3006 0.4672 0.0
N251 N 0.83632 0.3131 0.50621 0.0
C252 C 0.76394 0.30213 0.4101 0.0
C253 C 0.75576 0.28596 0.47472 0.0
C254 C 0.79271 0.29136 0.52208 0.0
C255 C 0.84286 0.33384 0.44645 0.0
C256 C 0.80748 0.32847 0.3976 0.0
H257 H 0.78801 0.27375 0.56892 0.0
H258 H 0.87827 0.34933 0.43398 0.0
H259 H 0.85447 0.19396 0.59202 0.0
H260 H 0.87307 0.15237 0.39562 0.0
H261 H 0.87973 0.46784 0.63488 0.0
H262 H 0.72242 0.26662 0.4878 0.0
H263 H 0.81657 0.34124 0.34903 0.0
C264 C 0.46927 0.26729 0.95879 0.0
C265 C 0.49601 0.26953 1.01759 0.0
H266 H 0.40734 0.29206 0.90503 0.0
C267 C 0.47788 0.29767 0.06996 0.0
H268 H 0.4818 0.24564 0.91756 0.0
C269 C 0.43461 0.32437 0.06249 0.0
C270 C 0.40947 0.32374 1.00237 0.0
H271 H 0.49771 0.30009 0.1158 0.0
H272 H 0.42165 0.3467 0.10278 0.0
C273 C 0.42675 0.29424 0.95119 0.0
C274 C 0.70635 0.43485 0.0758 0.0
C275 C 0.70947 0.40953 1.01578 0.0
H276 H 0.73061 0.49694 0.13247 0.0
C277 C 0.7434 0.4253 0.96871 0.0
H278 H 0.68062 0.423 0.11301 0.0
C279 C 0.77239 0.46656 0.98013 0.0
C280 C 0.76779 0.49353 1.03866 0.0
H281 H 0.74752 0.40566 0.92286 0.0
H282 H 0.79747 0.47804 0.94192 0.0
C283 C 0.73507 0.47685 0.08702 0.0
C284 C 0.60967 0.72817 0.9733 0.0
C285 C 0.62266 0.69881 1.02635 0.0
H286 H 0.55911 0.77861 0.93374 0.0
C287 C 0.59443 0.7006 0.08395 0.0
H288 H 0.63141 0.72831 0.92893 0.0
C289 C 0.55213 0.72938 0.0868 0.0
C290 C 0.53824 0.75729 1.03238 0.0
H291 H 0.60414 0.67844 0.12562 0.0
H292 H 0.52967 0.72866 0.13058 0.0
C293 C 0.56829 0.75728 0.97642 0.0
C294 C 0.27005 0.55879 0.9593 0.0
C295 C 0.27016 0.5316 1.01749 0.0
H296 H 0.29809 0.62073 0.90787 0.0
C297 C 0.29766 0.5489 0.07116 0.0
H298 H 0.249 0.54686 0.91708 0.0
C299 C 0.32578 0.59185 0.06565 0.0
C300 C 0.3273 0.6174 1.00616 0.0
H301 H 0.29844 0.5287 0.11658 0.0
H302 H 0.34758 0.60426 0.10692 0.0
C303 C 0.29849 0.60095 0.95362 0.0
C304 C 0.97404 0.79427 0.57333 0.0
C305 C 0.99044 0.76415 0.52197 0.0
H306 H 0.91819 0.84329 0.60696 0.0
C307 C 0.96078 0.7581 0.46616 0.0
H308 H 0.99616 0.79972 0.61684 0.0
C309 C 0.9169 0.78318 0.46031 0.0
C310 C 0.90125 0.81473 0.51028 0.0
H311 H 0.97195 0.73479 0.42586 0.0
H312 H 0.89523 0.77798 0.41639 0.0
C313 C 0.92959 0.81924 0.56762 0.0
C314 C 0.26821 0.96166 0.46187 0.0
C315 C 0.26532 0.99109 0.51842 0.0
H316 H 0.24123 0.89872 0.41052 0.0
C317 C 0.23422 0.97652 0.56983 0.0
H318 H 0.29212 0.97144 0.42154 0.0
C319 C 0.20503 0.93433 0.56329 0.0
C320 C 0.20608 0.90677 0.50498 0.0
H321 H 0.23119 0.9985 0.61393 0.0
H322 H 0.18034 0.9242 0.6026 0.0
C323 C 0.23873 0.92021 0.4551 0.0
C324 C 0.0955 0.19909 0.56356 0.0
C325 C 0.11944 0.19608 0.50264 0.0
H326 H 0.03464 0.22829 0.61757 0.0
C327 C 0.10227 0.22379 0.45021 0.0
H328 H 0.10851 0.1782 0.60478 0.0
C329 C 0.06112 0.25288 0.45768 0.0
C330 C 0.03564 0.25449 0.51759 0.0
H331 H 0.12086 0.22307 0.40333 0.0
H332 H 0.04863 0.27317 0.41561 0.0
C333 C 0.05355 0.22782 0.57089 0.0
C334 C 0.79749 0.09631 0.46379 0.0
C335 C 0.83014 0.11355 0.51171 0.0
H336 H 0.74498 0.04221 0.43594 0.0
C337 C 0.83344 0.08861 0.57155 0.0
H338 H 0.7933 0.1155 0.41797 0.0
C339 C 0.80565 0.046 0.58214 0.0
C340 C 0.77364 0.02837 0.53336 0.0
H341 H 0.85826 0.10153 0.60936 0.0
H342 H 0.80967 0.02664 0.62787 0.0
C343 C 0.76942 0.05448 0.47458 0.0
C344 C 0.3158 0.30128 0.28915 0.0
C345 C 0.28765 0.29744 0.34688 0.0
H346 H 0.32095 0.32849 0.19148 0.0
C347 C 0.24249 0.32207 0.34945 0.0
H348 H 0.35129 0.28415 0.28529 0.0
C349 C 0.22578 0.34879 0.29569 0.0
C350 C 0.2531 0.35061 0.23738 0.0
H351 H 0.219 0.31947 0.39207 0.0
H352 H 0.19064 0.36675 0.29906 0.0
C353 C 0.29843 0.32688 0.23495 0.0
C354 C 0.67726 0.22662 0.30137 0.0
C355 C 0.67633 0.25423 0.24366 0.0
H356 H 0.70636 0.21875 0.39775 0.0
C357 C 0.7016 0.29911 0.24255 0.0
H358 H 0.65817 0.19179 0.30375 0.0
C359 C 0.72764 0.31582 0.29747 0.0
C360 C 0.73059 0.28737 0.35464 0.0
H361 H 0.70086 0.32184 0.19959 0.0
H362 H 0.74573 0.35108 0.29454 0.0
C363 C 0.70454 0.24257 0.35577 0.0
C364 C 0.78211 0.76337 0.26324 0.0
C365 C 0.77777 0.71382 0.24553 0.0
H366 H 0.7623 0.82006 0.33054 0.0
C367 C 0.74819 0.68297 0.28431 0.0
H368 H 0.80423 0.78828 0.23434 0.0
C369 C 0.72466 0.70127 0.34072 0.0
C370 C 0.72903 0.751 0.35774 0.0
H371 H 0.74419 0.64462 0.27188 0.0
H372 H 0.70311 0.67676 0.3709 0.0
C373 C 0.75773 0.78174 0.31811 0.0
C374 C 0.32706 0.7291 0.23999 0.0
C375 C 0.35167 0.77433 0.24269 0.0
H376 H 0.28338 0.67611 0.29025 0.0
C377 C 0.34998 0.80151 0.30124 0.0
H378 H 0.32845 0.70673 0.19627 0.0
C379 C 0.32285 0.78466 0.35506 0.0
C380 C 0.29763 0.73943 0.35247 0.0
H381 H 0.36854 0.83659 0.30484 0.0
H382 H 0.32053 0.80805 0.39786 0.0
C383 C 0.30102 0.71157 0.2943 0.0
C384 C 0.79437 0.81758 0.7557 0.0
C385 C 0.74339 0.81661 0.7453 0.0
H386 H 0.85355 0.80004 0.82069 0.0
C387 C 0.71257 0.80028 0.79598 0.0
H388 H 0.81907 0.83011 0.71769 0.0
C389 C 0.73218 0.78432 0.85515 0.0
C390 C 0.78315 0.78352 0.86486 0.0
H391 H 0.67313 0.79944 0.78983 0.0
H392 H 0.70741 0.77064 0.89239 0.0
C393 C 0.81412 0.80056 0.81466 0.0
C394 C 0.20412 0.7979 0.73793 0.0
C395 C 0.17592 0.75484 0.74181 0.0
H396 H 0.25146 0.84878 0.78682 0.0
C397 C 0.1751 0.72933 0.80131 0.0
H398 H 0.20506 0.81892 0.69337 0.0
C399 C 0.2032 0.74552 0.85485 0.0
C400 C 0.23202 0.78851 0.85106 0.0
H401 H 0.15386 0.69588 0.8059 0.0
H402 H 0.20337 0.72321 0.89838 0.0
C403 C 0.23109 0.81491 0.79195 0.0
C404 C 0.23068 0.19925 0.7335 0.0
C405 C 0.27597 0.17542 0.73623 0.0
H406 H 0.17704 0.24166 0.78389 0.0
C407 C 0.30244 0.17707 0.79519 0.0
H408 H 0.2088 0.19791 0.68949 0.0
C409 C 0.28491 0.20345 0.84935 0.0
C410 C 0.23969 0.22798 0.84666 0.0
H411 H 0.33755 0.15913 0.79891 0.0
H412 H 0.30783 0.20579 0.8925 0.0
C413 C 0.21248 0.22455 0.78808 0.0
C414 C 0.82825 0.28175 0.85624 0.0
C415 C 0.80155 0.23735 0.85383 0.0
H416 H 0.87507 0.33243 0.80554 0.0
C417 C 0.80372 0.20953 0.79547 0.0
H418 H 0.82703 0.30515 0.89911 0.0
C419 C 0.82963 0.22651 0.74077 0.0
C420 C 0.85566 0.27095 0.74329 0.0
H421 H 0.78508 0.17458 0.79143 0.0
H422 H 0.82964 0.20438 0.69681 0.0
C423 C 0.85545 0.29792 0.80206 0.0
C424 C 0.02632 0.55975 0.06886 0.0
C425 C 0.98206 0.55176 0.10253 0.0
H426 H 0.09408 0.53104 1.03594 0.0
C427 C 0.97384 0.50593 0.13139 0.0
H428 H 0.0335 0.59415 0.0447 0.0
C429 C 1.00923 0.46912 0.12698 0.0
C430 C 0.05362 0.47699 0.09287 0.0
H431 H 0.94017 0.49868 0.15789 0.0
H432 H 1.0016 0.43468 0.15065 0.0
C433 C 0.06134 0.52301 0.06378 0.0
C434 C 0.56446 1.00328 0.08948 0.0
C435 C 0.55071 0.05265 0.0879 0.0
H436 H 0.54111 0.92849 0.09123 0.0
C437 C 0.50038 0.06362 0.08711 0.0
H438 H 0.60275 0.99332 0.08966 0.0
C439 C 0.46486 0.02626 0.08753 0.0
C440 C 0.47866 0.97689 0.08842 0.0
H441 H 0.4883 0.10114 0.08673 0.0
H442 H 0.42656 0.03613 0.08615 0.0
C443 C 0.52898 0.96597 0.08963 0.0
C444 C 0.51841 0.0699 0.63693 0.0
C445 C 0.48339 0.06312 0.58728 0.0
H446 H 0.58217 0.04303 0.68445 0.0
C447 C 0.48771 0.02216 0.54543 0.0
H448 H 0.51624 0.10064 0.67034 0.0
C449 C 0.5258 0.98856 0.55386 0.0
C450 C 0.55989 0.99491 0.60478 0.0
H451 H 0.46175 0.01612 0.5061 0.0
H452 H 0.52798 0.95709 0.52163 0.0
C453 C 0.55599 0.03634 0.64556 0.0
C454 C 1.00048 0.56091 0.58992 0.0
C455 C 0.05089 0.55034 0.58947 0.0
H456 H 0.9269 0.53293 0.58984 0.0
C457 C 0.06509 0.50108 0.58981 0.0
H458 H 0.98809 0.59834 0.59053 0.0
C459 C 0.02987 0.46347 0.58981 0.0
C460 C 0.97946 0.47406 0.58984 0.0
H461 H 0.10347 0.49149 0.58905 0.0
H462 H 0.04224 0.42605 0.59032 0.0
C463 C 0.96528 0.52332 0.59027 0.0
loop_
_geom_bond_atom_site_label_1
_geom_bond_atom_site_label_2
_geom_bond_distance
_geom_bond_site_symmetry_2
_ccdc_geom_bond_type
C0 C1 1.351 . S
C0 N3 1.368 1_556 S
C0 H5 0.931 . S
C1 C0 1.351 . S
C1 N2 1.373 1_556 S
C1 H29 0.930 . S
N2 C1 1.373 1_554 S
N2 C4 1.340 . S
N3 C0 1.368 1_554 S
N3 C4 1.321 . S
N3 Co6 2.135 . S
C4 N2 1.340 . S
C4 N3 1.321 . S
C4 H28 0.930 . S
H5 C0 0.931 . S
Co6 N3 2.135 . S
Co6 N9 2.121 . S
Co6 O14 2.055 . S
Co6 O17 2.039 . S
Co6 N20 2.140 1_554 S
C7 O8 1.227 . S
C7 O17 1.265 . S
O8 C7 1.227 . S
N9 Co6 2.121 . S
N9 C11 1.375 . S
N9 C12 1.313 . S
C10 C11 1.338 . S
C10 N13 1.377 . S
C10 H30 0.930 . S
C11 N9 1.375 . S
C11 C10 1.338 . S
C11 H15 0.931 . S
C12 N9 1.313 . S
C12 N13 1.344 . S
C12 H16 0.930 . S
N13 C10 1.377 . S
N13 C12 1.344 . S
O14 Co6 2.055 . S
O14 C18 1.243 1_554 S
H15 C11 0.931 . S
H16 C12 0.930 . S
O17 Co6 2.039 . S
O17 C7 1.265 . S
C18 O14 1.243 1_556 S
C18 O19 1.236 . S
O19 C18 1.236 . S
N20 Co6 2.140 1_556 S
N20 C23 1.346 . S
N20 C24 1.345 . S
C21 C22 1.387 . S
C21 C25 1.391 . S
C22 C21 1.387 . S
C22 C23 1.369 . S
C22 H31 0.929 . S
C23 N20 1.346 . S
C23 C22 1.369 . S
C23 H26 0.928 . S
C24 N20 1.345 . S
C24 C25 1.371 . S
C24 H27 0.931 . S
C25 C21 1.391 . S
C25 C24 1.371 . S
C25 H32 0.930 . S
H26 C23 0.928 . S
H27 C24 0.931 . S
H28 C4 0.930 . S
H29 C1 0.930 . S
H30 C10 0.930 . S
H31 C22 0.929 . S
H32 C25 0.930 . S
C33 C34 1.351 . S
C33 N36 1.368 1_556 S
C33 H38 0.931 . S
C34 C33 1.351 . S
C34 N35 1.373 1_556 S
C34 H62 0.930 . S
N35 C34 1.373 1_554 S
N35 C37 1.340 . S
N36 C33 1.368 1_554 S
N36 C37 1.321 . S
N36 Co39 2.135 . S
C37 N35 1.340 . S
C37 N36 1.321 . S
C37 H61 0.930 . S
H38 C33 0.931 . S
Co39 N36 2.135 . S
Co39 N42 2.121 . S
Co39 O47 2.055 . S
Co39 O50 2.039 . S
Co39 N53 2.140 1_554 S
C40 O41 1.227 . S
C40 O50 1.265 . S
O41 C40 1.227 . S
N42 Co39 2.121 . S
N42 C44 1.375 . S
N42 C45 1.313 . S
C43 C44 1.338 . S
C43 N46 1.377 . S
C43 H63 0.930 . S
C44 N42 1.375 . S
C44 C43 1.338 . S
C44 H48 0.931 . S
C45 N42 1.313 . S
C45 N46 1.344 . S
C45 H49 0.930 . S
N46 C43 1.377 . S
N46 C45 1.344 . S
O47 Co39 2.055 . S
O47 C51 1.243 1_554 S
H48 C44 0.931 . S
H49 C45 0.930 . S
O50 Co39 2.039 . S
O50 C40 1.265 . S
C51 O47 1.243 1_556 S
C51 O52 1.236 . S
O52 C51 1.236 . S
N53 Co39 2.140 1_556 S
N53 C56 1.346 . S
N53 C57 1.345 . S
C54 C55 1.387 . S
C54 C58 1.391 . S
C55 C54 1.387 . S
C55 C56 1.369 . S
C55 H64 0.929 . S
C56 N53 1.346 . S
C56 C55 1.369 . S
C56 H59 0.928 . S
C57 N53 1.345 . S
C57 C58 1.371 . S
C57 H60 0.931 . S
C58 C54 1.391 . S
C58 C57 1.371 . S
C58 H65 0.930 . S
H59 C56 0.928 . S
H60 C57 0.931 . S
H61 C37 0.930 . S
H62 C34 0.930 . S
H63 C43 0.930 . S
H64 C55 0.929 . S
H65 C58 0.930 . S
C66 C67 1.351 . S
C66 N69 1.368 1_556 S
C66 H71 0.931 . S
C67 C66 1.351 . S
C67 N68 1.373 1_556 S
C67 H95 0.930 . S
N68 C67 1.373 1_554 S
N68 C70 1.340 . S
N69 C66 1.368 1_554 S
N69 C70 1.321 . S
N69 Co72 2.135 . S
C70 N68 1.340 . S
C70 N69 1.321 . S
C70 H94 0.930 . S
H71 C66 0.931 . S
Co72 N69 2.135 . S
Co72 N75 2.121 . S
Co72 O80 2.055 . S
Co72 O83 2.039 . S
Co72 N86 2.140 1_554 S
C73 O74 1.227 . S
C73 O83 1.265 . S
O74 C73 1.227 . S
N75 Co72 2.121 . S
N75 C77 1.375 . S
N75 C78 1.313 . S
C76 C77 1.338 . S
C76 N79 1.377 . S
C76 H96 0.930 . S
C77 N75 1.375 . S
C77 C76 1.338 . S
C77 H81 0.931 . S
C78 N75 1.313 . S
C78 N79 1.344 . S
C78 H82 0.930 . S
N79 C76 1.377 . S
N79 C78 1.344 . S
O80 Co72 2.055 . S
O80 C84 1.243 1_554 S
H81 C77 0.931 . S
H82 C78 0.930 . S
O83 Co72 2.039 . S
O83 C73 1.265 . S
C84 O80 1.243 1_556 S
C84 O85 1.236 . S
O85 C84 1.236 . S
N86 Co72 2.140 1_556 S
N86 C89 1.346 . S
N86 C90 1.345 . S
C87 C88 1.387 . S
C87 C91 1.391 . S
C88 C87 1.387 . S
C88 C89 1.369 . S
C88 H97 0.929 . S
C89 N86 1.346 . S
C89 C88 1.369 . S
C89 H92 0.928 . S
C90 N86 1.345 . S
C90 C91 1.371 . S
C90 H93 0.931 . S
C91 C87 1.391 . S
C91 C90 1.371 . S
C91 H98 0.930 . S
H92 C89 0.928 . S
H93 C90 0.931 . S
H94 C70 0.930 . S
H95 C67 0.930 . S
H96 C76 0.930 . S
H97 C88 0.929 . S
H98 C91 0.930 . S
C99 C100 1.351 . S
C99 N102 1.368 1_556 S
C99 H104 0.931 . S
C100 C99 1.351 . S
C100 N101 1.373 1_556 S
C100 H128 0.930 . S
N101 C100 1.373 1_554 S
N101 C103 1.340 . S
N102 C99 1.368 1_554 S
N102 C103 1.321 . S
N102 Co105 2.135 . S
C103 N101 1.340 . S
C103 N102 1.321 . S
C103 H127 0.930 . S
H104 C99 0.931 . S
Co105 N102 2.135 . S
Co105 N108 2.121 . S
Co105 O113 2.055 . S
Co105 O116 2.039 . S
Co105 N119 2.140 1_554 S
C106 O107 1.227 . S
C106 O116 1.265 . S
O107 C106 1.227 . S
N108 Co105 2.121 . S
N108 C110 1.375 . S
N108 C111 1.313 . S
C109 C110 1.338 . S
C109 N112 1.377 . S
C109 H129 0.930 . S
C110 N108 1.375 . S
C110 C109 1.338 . S
C110 H114 0.931 . S
C111 N108 1.313 . S
C111 N112 1.344 . S
C111 H115 0.930 . S
N112 C109 1.377 . S
N112 C111 1.344 . S
O113 Co105 2.055 . S
O113 C117 1.243 1_554 S
H114 C110 0.931 . S
H115 C111 0.930 . S
O116 Co105 2.039 . S
O116 C106 1.265 . S
C117 O113 1.243 1_556 S
C117 O118 1.236 . S
O118 C117 1.236 . S
N119 Co105 2.140 1_556 S
N119 C122 1.346 . S
N119 C123 1.345 . S
C120 C121 1.387 . S
C120 C124 1.391 . S
C121 C120 1.387 . S
C121 C122 1.369 . S
C121 H130 0.929 . S
C122 N119 1.346 . S
C122 C121 1.369 . S
C122 H125 0.928 . S
C123 N119 1.345 . S
C123 C124 1.371 . S
C123 H126 0.931 . S
C124 C120 1.391 . S
C124 C123 1.371 . S
C124 H131 0.930 . S
H125 C122 0.928 . S
H126 C123 0.931 . S
H127 C103 0.930 . S
H128 C100 0.930 . S
H129 C109 0.930 . S
H130 C121 0.929 . S
H131 C124 0.930 . S
C132 C133 1.351 . S
C132 N135 1.368 . S
C132 H137 0.931 . S
C133 C132 1.351 . S
C133 N134 1.373 . S
C133 H161 0.930 . S
N134 C133 1.373 . S
N134 C136 1.340 . S
N135 C132 1.368 . S
N135 C136 1.321 . S
N135 Co138 2.135 . S
C136 N134 1.340 . S
C136 N135 1.321 . S
C136 H160 0.930 . S
H137 C132 0.931 . S
Co138 N135 2.135 . S
Co138 N141 2.121 . S
Co138 O146 2.055 . S
Co138 O149 2.039 . S
Co138 N152 2.140 . S
C139 O140 1.227 . S
C139 O149 1.265 . S
O140 C139 1.227 . S
N141 Co138 2.121 . S
N141 C143 1.375 . S
N141 C144 1.313 . S
C142 C143 1.338 . S
C142 N145 1.377 . S
C142 H162 0.930 . S
C143 N141 1.375 . S
C143 C142 1.338 . S
C143 H147 0.931 . S
C144 N141 1.313 . S
C144 N145 1.344 . S
C144 H148 0.930 . S
N145 C142 1.377 . S
N145 C144 1.344 . S
O146 Co138 2.055 . S
O146 C150 1.253 . S
H147 C143 0.931 . S
H148 C144 0.930 . S
O149 Co138 2.039 . S
O149 C139 1.265 . S
C150 O146 1.253 . S
C150 O151 1.227 . S
O151 C150 1.227 . S
N152 Co138 2.140 . S
N152 C155 1.346 . S
N152 C156 1.345 . S
C153 C154 1.387 . S
C153 C157 1.391 . S
C154 C153 1.387 . S
C154 C155 1.369 . S
C154 H163 0.929 . S
C155 N152 1.346 . S
C155 C154 1.369 . S
C155 H158 0.928 . S
C156 N152 1.345 . S
C156 C157 1.371 . S
C156 H159 0.931 . S
C157 C153 1.391 . S
C157 C156 1.371 . S
C157 H164 0.930 . S
H158 C155 0.928 . S
H159 C156 0.931 . S
H160 C136 0.930 . S
H161 C133 0.930 . S
H162 C142 0.930 . S
H163 C154 0.929 . S
H164 C157 0.930 . S
C165 C166 1.351 . S
C165 N168 1.368 . S
C165 H170 0.931 . S
C166 C165 1.351 . S
C166 N167 1.373 . S
C166 H194 0.930 . S
N167 C166 1.373 . S
N167 C169 1.340 . S
N168 C165 1.368 . S
N168 C169 1.321 . S
N168 Co171 2.135 . S
C169 N167 1.340 . S
C169 N168 1.321 . S
C169 H193 0.930 . S
H170 C165 0.931 . S
Co171 N168 2.135 . S
Co171 N174 2.121 . S
Co171 O179 2.055 . S
Co171 O182 2.039 . S
Co171 N185 2.140 . S
C172 O173 1.227 . S
C172 O182 1.265 . S
O173 C172 1.227 . S
N174 Co171 2.121 . S
N174 C176 1.375 . S
N174 C177 1.313 . S
C175 C176 1.338 . S
C175 N178 1.377 . S
C175 H195 0.930 . S
C176 N174 1.375 . S
C176 C175 1.338 . S
C176 H180 0.931 . S
C177 N174 1.313 . S
C177 N178 1.344 . S
C177 H181 0.930 . S
N178 C175 1.377 . S
N178 C177 1.344 . S
O179 Co171 2.055 . S
O179 C183 1.253 . S
H180 C176 0.931 . S
H181 C177 0.930 . S
O182 Co171 2.039 . S
O182 C172 1.265 . S
C183 O179 1.253 . S
C183 O184 1.227 . S
O184 C183 1.227 . S
N185 Co171 2.140 . S
N185 C188 1.346 . S
N185 C189 1.345 . S
C186 C187 1.387 . S
C186 C190 1.391 . S
C187 C186 1.387 . S
C187 C188 1.369 . S
C187 H196 0.929 . S
C188 N185 1.346 . S
C188 C187 1.369 . S
C188 H191 0.928 . S
C189 N185 1.345 . S
C189 C190 1.371 . S
C189 H192 0.931 . S
C190 C186 1.391 . S
C190 C189 1.371 . S
C190 H197 0.930 . S
H191 C188 0.928 . S
H192 C189 0.931 . S
H193 C169 0.930 . S
H194 C166 0.930 . S
H195 C175 0.930 . S
H196 C187 0.929 . S
H197 C190 0.930 . S
C198 C199 1.351 . S
C198 N201 1.368 . S
C198 H203 0.931 . S
C199 C198 1.351 . S
C199 N200 1.373 . S
C199 H227 0.930 . S
N200 C199 1.373 . S
N200 C202 1.340 . S
N201 C198 1.368 . S
N201 C202 1.321 . S
N201 Co204 2.135 . S
C202 N200 1.340 . S
C202 N201 1.321 . S
C202 H226 0.930 . S
H203 C198 0.931 . S
Co204 N201 2.135 . S
Co204 N207 2.121 . S
Co204 O212 2.055 . S
Co204 O215 2.039 . S
Co204 N218 2.140 . S
C205 O206 1.227 . S
C205 O215 1.265 . S
O206 C205 1.227 . S
N207 Co204 2.121 . S
N207 C209 1.375 . S
N207 C210 1.313 . S
C208 C209 1.338 . S
C208 N211 1.377 . S
C208 H228 0.930 . S
C209 N207 1.375 . S
C209 C208 1.338 . S
C209 H213 0.931 . S
C210 N207 1.313 . S
C210 N211 1.344 . S
C210 H214 0.930 . S
N211 C208 1.377 . S
N211 C210 1.344 . S
O212 Co204 2.055 . S
O212 C216 1.253 . S
H213 C209 0.931 . S
H214 C210 0.930 . S
O215 Co204 2.039 . S
O215 C205 1.265 . S
C216 O212 1.253 . S
C216 O217 1.227 . S
O217 C216 1.227 . S
N218 Co204 2.140 . S
N218 C221 1.346 . S
N218 C222 1.345 . S
C219 C220 1.387 . S
C219 C223 1.391 . S
C220 C219 1.387 . S
C220 C221 1.369 . S
C220 H229 0.929 . S
C221 N218 1.346 . S
C221 C220 1.369 . S
C221 H224 0.928 . S
C222 N218 1.345 . S
C222 C223 1.371 . S
C222 H225 0.931 . S
C223 C219 1.391 . S
C223 C222 1.371 . S
C223 H230 0.930 . S
H224 C221 0.928 . S
H225 C222 0.931 . S
H226 C202 0.930 . S
H227 C199 0.930 . S
H228 C208 0.930 . S
H229 C220 0.929 . S
H230 C223 0.930 . S
C231 C232 1.351 . S
C231 N234 1.368 . S
C231 H236 0.931 . S
C232 C231 1.351 . S
C232 N233 1.373 . S
C232 H260 0.930 . S
N233 C232 1.373 . S
N233 C235 1.340 . S
N234 C231 1.368 . S
N234 C235 1.321 . S
N234 Co237 2.135 . S
C235 N233 1.340 . S
C235 N234 1.321 . S
C235 H259 0.930 . S
H236 C231 0.931 . S
Co237 N234 2.135 . S
Co237 N240 2.121 . S
Co237 O245 2.055 . S
Co237 O248 2.039 . S
Co237 N251 2.140 . S
C238 O239 1.227 . S
C238 O248 1.265 . S
O239 C238 1.227 . S
N240 Co237 2.121 . S
N240 C242 1.375 . S
N240 C243 1.313 . S
C241 C242 1.338 . S
C241 N244 1.377 . S
C241 H261 0.930 . S
C242 N240 1.375 . S
C242 C241 1.338 . S
C242 H246 0.931 . S
C243 N240 1.313 . S
C243 N244 1.344 . S
C243 H247 0.930 . S
N244 C241 1.377 . S
N244 C243 1.344 . S
O245 Co237 2.055 . S
O245 C249 1.253 . S
H246 C242 0.931 . S
H247 C243 0.930 . S
O248 Co237 2.039 . S
O248 C238 1.265 . S
C249 O245 1.253 . S
C249 O250 1.227 . S
O250 C249 1.227 . S
N251 Co237 2.140 . S
N251 C254 1.346 . S
N251 C255 1.345 . S
C252 C253 1.387 . S
C252 C256 1.391 . S
C253 C252 1.387 . S
C253 C254 1.369 . S
C253 H262 0.929 . S
C254 N251 1.346 . S
C254 C253 1.369 . S
C254 H257 0.928 . S
C255 N251 1.345 . S
C255 C256 1.371 . S
C255 H258 0.931 . S
C256 C252 1.391 . S
C256 C255 1.371 . S
C256 H263 0.930 . S
H257 C254 0.928 . S
H258 C255 0.931 . S
H259 C235 0.930 . S
H260 C232 0.930 . S
H261 C241 0.930 . S
H262 C253 0.929 . S
H263 C256 0.930 . S
C264 C265 1.387 1_556 S
C264 H268 0.950 . S
C264 C273 1.390 . S
C265 C264 1.387 1_554 S
C265 C267 1.387 . S
H266 C273 0.950 . S
C267 C265 1.387 . S
C267 C269 1.390 . S
C267 H271 0.950 . S
H268 C264 0.950 . S
C269 C267 1.390 . S
C269 C270 1.387 . S
C269 H272 0.950 . S
C270 C269 1.387 . S
C270 C273 1.387 1_554 S
H271 C267 0.950 . S
H272 C269 0.950 . S
C273 C264 1.390 . S
C273 H266 0.950 . S
C273 C270 1.387 1_556 S
C274 C275 1.387 . S
C274 H278 0.950 . S
C274 C283 1.390 . S
C275 C274 1.387 . S
C275 C277 1.387 1_554 S
H276 C283 0.950 . S
C277 C275 1.387 1_556 S
C277 C279 1.390 . S
C277 H281 0.950 . S
H278 C274 0.950 . S
C279 C277 1.390 . S
C279 C280 1.387 1_556 S
C279 H282 0.950 . S
C280 C279 1.387 1_554 S
C280 C283 1.387 . S
H281 C277 0.950 . S
H282 C279 0.950 . S
C283 C274 1.390 . S
C283 H276 0.950 . S
C283 C280 1.387 . S
C284 C285 1.387 1_556 S
C284 H288 0.950 . S
C284 C293 1.390 . S
C285 C284 1.387 1_554 S
C285 C287 1.387 . S
H286 C293 0.950 . S
C287 C285 1.387 . S
C287 C289 1.390 . S
C287 H291 0.950 . S
H288 C284 0.950 . S
C289 C287 1.390 . S
C289 C290 1.387 . S
C289 H292 0.950 . S
C290 C289 1.387 . S
C290 C293 1.387 1_554 S
H291 C287 0.950 . S
H292 C289 0.950 . S
C293 C284 1.390 . S
C293 H286 0.950 . S
C293 C290 1.387 1_556 S
C294 C295 1.387 1_556 S
C294 H298 0.950 . S
C294 C303 1.390 . S
C295 C294 1.387 1_554 S
C295 C297 1.387 . S
H296 C303 0.950 . S
C297 C295 1.387 . S
C297 C299 1.390 . S
C297 H301 0.950 . S
H298 C294 0.950 . S
C299 C297 1.390 . S
C299 C300 1.387 . S
C299 H302 0.950 . S
C300 C299 1.387 . S
C300 C303 1.387 1_554 S
H301 C297 0.950 . S
H302 C299 0.950 . S
C303 C294 1.390 . S
C303 H296 0.950 . S
C303 C300 1.387 1_556 S
C304 C305 1.387 . S
C304 H308 0.950 . S
C304 C313 1.390 . S
C305 C304 1.387 . S
C305 C307 1.387 . S
H306 C313 0.950 . S
C307 C305 1.387 . S
C307 C309 1.390 . S
C307 H311 0.950 . S
H308 C304 0.950 . S
C309 C307 1.390 . S
C309 C310 1.387 . S
C309 H312 0.950 . S
C310 C309 1.387 . S
C310 C313 1.387 . S
H311 C307 0.950 . S
H312 C309 0.950 . S
C313 C304 1.390 . S
C313 H306 0.950 . S
C313 C310 1.387 . S
C314 C315 1.387 . S
C314 H318 0.950 . S
C314 C323 1.390 . S
C315 C314 1.387 . S
C315 C317 1.387 . S
H316 C323 0.950 . S
C317 C315 1.387 . S
C317 C319 1.390 . S
C317 H321 0.950 . S
H318 C314 0.950 . S
C319 C317 1.390 . S
C319 C320 1.387 . S
C319 H322 0.950 . S
C320 C319 1.387 . S
C320 C323 1.387 . S
H321 C317 0.950 . S
H322 C319 0.950 . S
C323 C314 1.390 . S
C323 H316 0.950 . S
C323 C320 1.387 . S
C324 C325 1.387 . S
C324 H328 0.950 . S
C324 C333 1.390 . S
C325 C324 1.387 . S
C325 C327 1.387 . S
H326 C333 0.950 . S
C327 C325 1.387 . S
C327 C329 1.390 . S
C327 H331 0.950 . S
H328 C324 0.950 . S
C329 C327 1.390 . S
C329 C330 1.387 . S
C329 H332 0.950 . S
C330 C329 1.387 . S
C330 C333 1.387 . S
H331 C327 0.950 . S
H332 C329 0.950 . S
C333 C324 1.390 . S
C333 H326 0.950 . S
C333 C330 1.387 . S
C334 C335 1.387 . S
C334 H338 0.950 . S
C334 C343 1.390 . S
C335 C334 1.387 . S
C335 C337 1.387 . S
H336 C343 0.950 . S
C337 C335 1.387 . S
C337 C339 1.390 . S
C337 H341 0.950 . S
H338 C334 0.950 . S
C339 C337 1.390 . S
C339 C340 1.387 . S
C339 H342 0.950 1_545 S
C340 C339 1.387 . S
C340 C343 1.387 . S
H341 C337 0.950 . S
H342 C339 0.950 1_565 S
C343 C334 1.390 . S
C343 H336 0.950 . S
C343 C340 1.387 . S
C344 C345 1.387 . S
C344 H348 0.950 . S
C344 C353 1.390 . S
C345 C344 1.387 . S
C345 C347 1.387 . S
H346 C353 0.950 . S
C347 C345 1.387 . S
C347 C349 1.390 . S
C347 H351 0.950 . S
H348 C344 0.950 . S
C349 C347 1.390 . S
C349 C350 1.387 . S
C349 H352 0.950 . S
C350 C349 1.387 . S
C350 C353 1.387 . S
H351 C347 0.950 . S
H352 C349 0.950 . S
C353 C344 1.390 . S
C353 H346 0.950 . S
C353 C350 1.387 . S
C354 C355 1.387 . S
C354 H358 0.950 . S
C354 C363 1.390 . S
C355 C354 1.387 . S
C355 C357 1.387 . S
H356 C363 0.950 . S
C357 C355 1.387 . S
C357 C359 1.390 . S
C357 H361 0.950 . S
H358 C354 0.950 . S
C359 C357 1.390 . S
C359 C360 1.387 . S
C359 H362 0.950 . S
C360 C359 1.387 . S
C360 C363 1.387 . S
H361 C357 0.950 . S
H362 C359 0.950 . S
C363 C354 1.390 . S
C363 H356 0.950 . S
C363 C360 1.387 . S
C364 C365 1.387 . S
C364 H368 0.950 . S
C364 C373 1.390 . S
C365 C364 1.387 . S
C365 C367 1.387 . S
H366 C373 0.950 . S
C367 C365 1.387 . S
C367 C369 1.390 . S
C367 H371 0.950 . S
H368 C364 0.950 . S
C369 C367 1.390 . S
C369 C370 1.387 . S
C369 H372 0.950 . S
C370 C369 1.387 . S
C370 C373 1.387 . S
H371 C367 0.950 . S
H372 C369 0.950 . S
C373 C364 1.390 . S
C373 H366 0.950 . S
C373 C370 1.387 . S
C374 C375 1.387 . S
C374 H378 0.950 . S
C374 C383 1.390 . S
C375 C374 1.387 . S
C375 C377 1.387 . S
H376 C383 0.950 . S
C377 C375 1.387 . S
C377 C379 1.390 . S
C377 H381 0.950 . S
H378 C374 0.950 . S
C379 C377 1.390 . S
C379 C380 1.387 . S
C379 H382 0.950 . S
C380 C379 1.387 . S
C380 C383 1.387 . S
H381 C377 0.950 . S
H382 C379 0.950 . S
C383 C374 1.390 . S
C383 H376 0.950 . S
C383 C380 1.387 . S
C384 C385 1.387 . S
C384 H388 0.950 . S
C384 C393 1.390 . S
C385 C384 1.387 . S
C385 C387 1.387 . S
H386 C393 0.950 . S
C387 C385 1.387 . S
C387 C389 1.390 . S
C387 H391 0.950 . S
H388 C384 0.950 . S
C389 C387 1.390 . S
C389 C390 1.387 . S
C389 H392 0.950 . S
C390 C389 1.387 . S
C390 C393 1.387 . S
H391 C387 0.950 . S
H392 C389 0.950 . S
C393 C384 1.390 . S
C393 H386 0.950 . S
C393 C390 1.387 . S
C394 C395 1.387 . S
C394 H398 0.950 . S
C394 C403 1.390 . S
C395 C394 1.387 . S
C395 C397 1.387 . S
H396 C403 0.950 . S
C397 C395 1.387 . S
C397 C399 1.390 . S
C397 H401 0.950 . S
H398 C394 0.950 . S
C399 C397 1.390 . S
C399 C400 1.387 . S
C399 H402 0.950 . S
C400 C399 1.387 . S
C400 C403 1.387 . S
H401 C397 0.950 . S
H402 C399 0.950 . S
C403 C394 1.390 . S
C403 H396 0.950 . S
C403 C400 1.387 . S
C404 C405 1.387 . S
C404 H408 0.950 . S
C404 C413 1.390 . S
C405 C404 1.387 . S
C405 C407 1.387 . S
H406 C413 0.950 . S
C407 C405 1.387 . S
C407 C409 1.390 . S
C407 H411 0.950 . S
H408 C404 0.950 . S
C409 C407 1.390 . S
C409 C410 1.387 . S
C409 H412 0.950 . S
C410 C409 1.387 . S
C410 C413 1.387 . S
H411 C407 0.950 . S
H412 C409 0.950 . S
C413 C404 1.390 . S
C413 H406 0.950 . S
C413 C410 1.387 . S
C414 C415 1.387 . S
C414 H418 0.950 . S
C414 C423 1.390 . S
C415 C414 1.387 . S
C415 C417 1.387 . S
H416 C423 0.950 . S
C417 C415 1.387 . S
C417 C419 1.390 . S
C417 H421 0.950 . S
H418 C414 0.950 . S
C419 C417 1.390 . S
C419 C420 1.387 . S
C419 H422 0.950 . S
C420 C419 1.387 . S
C420 C423 1.387 . S
H421 C417 0.950 . S
H422 C419 0.950 . S
C423 C414 1.390 . S
C423 H416 0.950 . S
C423 C420 1.387 . S
C424 C425 1.387 1_556 S
C424 H428 0.950 . S
C424 C433 1.390 1_655 S
C425 C424 1.387 1_554 S
C425 C427 1.387 . S
H426 C433 0.950 . S
C427 C425 1.387 . S
C427 C429 1.390 1_655 S
C427 H431 0.950 . S
H428 C424 0.950 . S
C429 C427 1.390 1_455 S
C429 C430 1.387 . S
C429 H432 0.950 . S
C430 C429 1.387 . S
C430 C433 1.387 1_554 S
H431 C427 0.950 . S
H432 C429 0.950 . S
C433 C424 1.390 1_455 S
C433 H426 0.950 . S
C433 C430 1.387 1_556 S
C434 C435 1.387 1_556 S
C434 H438 0.950 . S
C434 C443 1.390 1_545 S
C435 C434 1.387 1_554 S
C435 C437 1.387 . S
H436 C443 0.950 . S
C437 C435 1.387 . S
C437 C439 1.390 1_545 S
C437 H441 0.950 . S
H438 C434 0.950 . S
C439 C437 1.390 1_565 S
C439 C440 1.387 . S
C439 H442 0.950 . S
C440 C439 1.387 . S
C440 C443 1.387 1_554 S
H441 C437 0.950 . S
H442 C439 0.950 . S
C443 C434 1.390 1_565 S
C443 H436 0.950 . S
C443 C440 1.387 1_556 S
C444 C445 1.387 . S
C444 H448 0.950 . S
C444 C453 1.390 1_545 S
C445 C444 1.387 . S
C445 C447 1.387 . S
H446 C453 0.950 . S
C447 C445 1.387 . S
C447 C449 1.390 1_545 S
C447 H451 0.950 . S
H448 C444 0.950 . S
C449 C447 1.390 1_565 S
C449 C450 1.387 . S
C449 H452 0.950 . S
C450 C449 1.387 . S
C450 C453 1.387 . S
H451 C447 0.950 . S
H452 C449 0.950 . S
C453 C444 1.390 1_565 S
C453 H446 0.950 . S
C453 C450 1.387 . S
C454 C455 1.387 . S
C454 H458 0.950 . S
C454 C463 1.390 1_455 S
C455 C454 1.387 . S
C455 C457 1.387 . S
H456 C463 0.950 . S
C457 C455 1.387 . S
C457 C459 1.390 1_455 S
C457 H461 0.950 . S
H458 C454 0.950 . S
C459 C457 1.390 1_655 S
C459 C460 1.387 . S
C459 H462 0.950 . S
C460 C459 1.387 . S
C460 C463 1.387 . S
H461 C457 0.950 . S
H462 C459 0.950 . S
C463 C454 1.390 1_655 S
C463 H456 0.950 . S
C463 C460 1.387 . S
C265 C51 0.974 1_554 S
C270 N2 0.958 . S
C275 N35 0.957 . S
C280 C84 0.977 1_554 S
C285 N68 0.959 . S
C290 C117 0.975 1_554 S
C295 C18 0.975 1_554 S
C300 N101 0.959 . S
C305 C183 0.977 1_655 S
C310 N134 0.957 . S
C315 C216 0.975 1_565 S
C320 N167 0.959 . S
C325 N200 0.957 . S
C330 C249 0.977 1_455 S
C335 N233 0.960 . S
C340 C150 0.976 1_545 S
C345 C219 1.572 . S
C350 C7 1.554 . S
C355 C40 1.559 . S
C360 C252 1.572 . S
C365 C73 1.560 . S
C370 C153 1.573 . S
C375 C106 1.556 . S
C380 C186 1.570 . S
C385 C139 1.556 . S
C390 C87 1.574 . S
C395 C172 1.558 . S
C400 C120 1.576 . S
C405 C205 1.556 . S
C410 C21 1.574 . S
C415 C54 1.572 . S
C420 C238 1.559 . S
C425 N79 2.037 . S
C430 N13 2.037 . S
C435 N46 2.037 . S
C440 N112 2.037 . S
C445 N211 2.036 . S
C450 N145 2.036 . S
C455 N178 2.036 . S
C460 N244 2.036 . S
