# Generated by pormake.
# Topology wlk, (5)-cn, num edge types: 1
# Building blocks:
#     Node 0, Type 0, BuildingBlock: XOMCOT_clean_sbu_1, # of connection points: 5
#     Node 1, Type 0, BuildingBlock: XOMCOT_clean_sbu_1, # of connection points: 5
#     Node 2, Type 0, BuildingBlock: XOMCOT_clean_sbu_1, # of connection points: 5
#     Node 3, Type 0, BuildingBlock: XOMCOT_clean_sbu_1, # of connection points: 5
#     Node 4, Type 0, BuildingBlock: XOMCOT_clean_sbu_1, # of connection points: 5
#     Node 5, Type 0, BuildingBlock: XOMCOT_clean_sbu_1, # of connection points: 5
#     Node 6, Type 0, BuildingBlock: XOMCOT_clean_sbu_1, # of connection points: 5
#     Node 7, Type 0, BuildingBlock: XOMCOT_clean_sbu_1, # of connection points: 5
#     Node 8, Type 0, BuildingBlock: XOMCOT_clean_sbu_1, # of connection points: 5
#     Node 9, Type 0, BuildingBlock: XOMCOT_clean_sbu_1, # of connection points: 5
#     Node 10, Type 0, BuildingBlock: XOMCOT_clean_sbu_1, # of connection points: 5
#     Node 11, Type 0, BuildingBlock: XOMCOT_clean_sbu_1, # of connection points: 5
#     Node 12, Type 0, BuildingBlock: XOMCOT_clean_sbu_1, # of connection points: 5
#     Node 13, Type 0, BuildingBlock: XOMCOT_clean_sbu_1, # of connection points: 5
#     Node 14, Type 0, BuildingBlock: XOMCOT_clean_sbu_1, # of connection points: 5
#     Node 15, Type 0, BuildingBlock: XOMCOT_clean_sbu_1, # of connection points: 5
#     Node 16, Type 0, BuildingBlock: XOMCOT_clean_sbu_1, # of connection points: 5
#     Node 17, Type 0, BuildingBlock: XOMCOT_clean_sbu_1, # of connection points: 5
#     Edge 18, Type (0, 0), BuildingBlock: MIFKUJ_clean_linker_0, # of connection points: 2
#     Edge 19, Type (0, 0), BuildingBlock: MIFKUJ_clean_linker_0, # of connection points: 2
#     Edge 20, Type (0, 0), BuildingBlock: MIFKUJ_clean_linker_0, # of connection points: 2
#     Edge 21, Type (0, 0), BuildingBlock: MIFKUJ_clean_linker_0, # of connection points: 2
#     Edge 22, Type (0, 0), BuildingBlock: MIFKUJ_clean_linker_0, # of connection points: 2
#     Edge 23, Type (0, 0), BuildingBlock: MIFKUJ_clean_linker_0, # of connection points: 2
#     Edge 24, Type (0, 0), BuildingBlock: MIFKUJ_clean_linker_0, # of connection points: 2
#     Edge 25, Type (0, 0), BuildingBlock: MIFKUJ_clean_linker_0, # of connection points: 2
#     Edge 26, Type (0, 0), BuildingBlock: MIFKUJ_clean_linker_0, # of connection points: 2
#     Edge 27, Type (0, 0), BuildingBlock: MIFKUJ_clean_linker_0, # of connection points: 2
#     Edge 28, Type (0, 0), BuildingBlock: MIFKUJ_clean_linker_0, # of connection points: 2
#     Edge 29, Type (0, 0), BuildingBlock: MIFKUJ_clean_linker_0, # of connection points: 2
#     Edge 30, Type (0, 0), BuildingBlock: MIFKUJ_clean_linker_0, # of connection points: 2
#     Edge 31, Type (0, 0), BuildingBlock: MIFKUJ_clean_linker_0, # of connection points: 2
#     Edge 32, Type (0, 0), BuildingBlock: MIFKUJ_clean_linker_0, # of connection points: 2
#     Edge 33, Type (0, 0), BuildingBlock: MIFKUJ_clean_linker_0, # of connection points: 2
#     Edge 34, Type (0, 0), BuildingBlock: MIFKUJ_clean_linker_0, # of connection points: 2
#     Edge 35, Type (0, 0), BuildingBlock: MIFKUJ_clean_linker_0, # of connection points: 2
#     Edge 36, Type (0, 0), BuildingBlock: MIFKUJ_clean_linker_0, # of connection points: 2
#     Edge 37, Type (0, 0), BuildingBlock: MIFKUJ_clean_linker_0, # of connection points: 2
#     Edge 38, Type (0, 0), BuildingBlock: MIFKUJ_clean_linker_0, # of connection points: 2
#     Edge 39, Type (0, 0), BuildingBlock: MIFKUJ_clean_linker_0, # of connection points: 2
#     Edge 40, Type (0, 0), BuildingBlock: MIFKUJ_clean_linker_0, # of connection points: 2
#     Edge 41, Type (0, 0), BuildingBlock: MIFKUJ_clean_linker_0, # of connection points: 2
#     Edge 42, Type (0, 0), BuildingBlock: MIFKUJ_clean_linker_0, # of connection points: 2
#     Edge 43, Type (0, 0), BuildingBlock: MIFKUJ_clean_linker_0, # of connection points: 2
#     Edge 44, Type (0, 0), BuildingBlock: MIFKUJ_clean_linker_0, # of connection points: 2
#     Edge 45, Type (0, 0), BuildingBlock: MIFKUJ_clean_linker_0, # of connection points: 2
#     Edge 46, Type (0, 0), BuildingBlock: MIFKUJ_clean_linker_0, # of connection points: 2
#     Edge 47, Type (0, 0), BuildingBlock: MIFKUJ_clean_linker_0, # of connection points: 2
#     Edge 48, Type (0, 0), BuildingBlock: MIFKUJ_clean_linker_0, # of connection points: 2
#     Edge 49, Type (0, 0), BuildingBlock: MIFKUJ_clean_linker_0, # of connection points: 2
#     Edge 50, Type (0, 0), BuildingBlock: MIFKUJ_clean_linker_0, # of connection points: 2
#     Edge 51, Type (0, 0), BuildingBlock: MIFKUJ_clean_linker_0, # of connection points: 2
#     Edge 52, Type (0, 0), BuildingBlock: MIFKUJ_clean_linker_0, # of connection points: 2
#     Edge 53, Type (0, 0), BuildingBlock: MIFKUJ_clean_linker_0, # of connection points: 2
#     Edge 54, Type (0, 0), BuildingBlock: MIFKUJ_clean_linker_0, # of connection points: 2
#     Edge 55, Type (0, 0), BuildingBlock: MIFKUJ_clean_linker_0, # of connection points: 2
#     Edge 56, Type (0, 0), BuildingBlock: MIFKUJ_clean_linker_0, # of connection points: 2
#     Edge 57, Type (0, 0), BuildingBlock: MIFKUJ_clean_linker_0, # of connection points: 2
#     Edge 58, Type (0, 0), BuildingBlock: MIFKUJ_clean_linker_0, # of connection points: 2
#     Edge 59, Type (0, 0), BuildingBlock: MIFKUJ_clean_linker_0, # of connection points: 2
#     Edge 60, Type (0, 0), BuildingBlock: MIFKUJ_clean_linker_0, # of connection points: 2
#     Edge 61, Type (0, 0), BuildingBlock: MIFKUJ_clean_linker_0, # of connection points: 2
#     Edge 62, Type (0, 0), BuildingBlock: MIFKUJ_clean_linker_0, # of connection points: 2
# Relax obj value: 0.170
# Max RMSD: 0.216
# Mean RMSD: 0.216
data_MOF--net-wlk--node1-XOMCOT_clean_sbu_1--edge1-MIFKUJ_clean_linker_0
_symmetry_space_group_name_H-M    P1
_symmetry_Int_Tables_number       1
_symmetry_cell_setting            triclinic
loop_
_symmetry_equiv_pos_as_xyz
'x, y, z'
_cell_length_a     82.023815
_cell_length_b     82.402529
_cell_length_c     35.502116
_cell_angle_alpha  89.981756
_cell_angle_beta   90.007459
_cell_angle_gamma 120.09565
loop_
_atom_site_label
_atom_site_type_symbol
_atom_site_fract_x
_atom_site_fract_y
_atom_site_fract_z
_atom_type_partial_charge
C0 C 0.20974 0.27245 1.00296 0.0
C1 C 0.20988 0.25884 0.98083 0.0
N2 N 0.20497 0.24353 1.00217 0.0
N3 N 0.20513 0.26607 0.03858 0.0
C4 C 0.20115 0.24799 0.03657 0.0
H5 H 0.21386 0.28654 0.99405 0.0
Co6 Co 0.20709 0.28137 0.08049 0.0
C7 C 0.22739 0.26109 0.11381 0.0
O8 O 0.23001 0.25416 0.08265 0.0
N9 N 0.20933 0.29662 0.12306 0.0
C10 C 0.22384 0.31512 0.17229 0.0
C11 C 0.22621 0.30773 0.13972 0.0
C12 C 0.19677 0.29762 0.1467 0.0
N13 N 0.20538 0.30876 0.17701 0.0
O14 O 0.18166 0.26273 0.0953 0.0
H15 H 0.23955 0.30969 0.12999 0.0
H16 H 0.18165 0.28959 0.14299 0.0
O17 O 0.21904 0.27072 0.11307 0.0
C18 C 0.17104 0.26577 0.07342 0.0
O19 O 0.1791 0.27998 0.0499 0.0
N20 N 0.23066 0.30056 0.06216 0.0
C21 C 0.26173 0.33058 0.02708 0.0
C22 C 0.26224 0.31445 0.03798 0.0
C23 C 0.24654 0.29957 0.05551 0.0
C24 C 0.22991 0.31608 0.05147 0.0
C25 C 0.24531 0.3313 0.03437 0.0
H26 H 0.24708 0.28718 0.06246 0.0
H27 H 0.21707 0.31649 0.05577 0.0
H28 H 0.19701 0.23874 0.06072 0.0
H29 H 0.21423 0.2605 0.95163 0.0
H30 H 0.23486 0.32407 0.19182 0.0
H31 H 0.27462 0.31328 0.03276 0.0
H32 H 0.24412 0.34327 0.02578 0.0
C33 C 0.75915 0.93141 0.99975 0.0
C34 C 0.7732 0.94636 0.98008 0.0
N35 N 0.78096 0.96152 1.0028 0.0
N36 N 0.75806 0.93699 0.03488 0.0
C37 C 0.77157 0.95538 0.03581 0.0
H38 H 0.75007 0.91743 0.98888 0.0
Co39 Co 0.74068 0.92243 0.07284 0.0
C40 C 0.75809 0.94668 0.139 0.0
O41 O 0.76129 0.93405 0.15442 0.0
N42 N 0.72339 0.90852 0.11265 0.0
C43 C 0.70336 0.90345 0.15985 0.0
C44 C 0.71149 0.91365 0.1279 0.0
C45 C 0.72223 0.89509 0.13668 0.0
N46 N 0.71005 0.89177 0.16534 0.0
O47 O 0.75777 0.91388 0.08891 0.0
H48 H 0.70976 0.92512 0.11818 0.0
H49 H 0.73106 0.88883 0.13499 0.0
O50 O 0.75087 0.94388 0.10618 0.0
C51 C 0.7519 0.89859 0.07039 0.0
O52 O 0.73683 0.89296 0.04927 0.0
N53 N 0.72332 0.9286 0.05265 0.0
C54 C 0.69486 0.93263 0.01856 0.0
C55 C 0.71146 0.94843 0.0314 0.0
C56 C 0.72561 0.9461 0.04851 0.0
C57 C 0.70765 0.91327 0.03895 0.0
C58 C 0.69315 0.91493 0.0224 0.0
H59 H 0.73839 0.95831 0.058 0.0
H60 H 0.70632 0.89958 0.04133 0.0
H61 H 0.77448 0.96426 0.06022 0.0
H62 H 0.77699 0.94618 0.95095 0.0
H63 H 0.6941 0.90526 0.17896 0.0
H64 H 0.7134 0.96237 0.02853 0.0
H65 H 0.68079 0.90244 0.01211 0.0
C66 C 0.08761 0.83263 0.02119 0.0
C67 C 0.07132 0.83053 1.00563 0.0
N68 N 0.05652 0.81675 0.02416 0.0
N69 N 0.08327 0.82039 0.04984 0.0
C70 C 0.06415 0.81071 0.05071 0.0
H71 H 0.10174 0.84234 0.01172 0.0
Co72 Co 0.10129 0.81827 0.07876 0.0
C73 C 0.08199 0.79822 0.14982 0.0
O74 O 0.09324 0.7912 0.15158 0.0
N75 N 0.12002 0.81663 0.10743 0.0
C76 C 0.14079 0.80894 0.1286 0.0
C77 C 0.12918 0.80729 0.09915 0.0
C78 C 0.12695 0.82444 0.14161 0.0
N79 N 0.13928 0.81958 0.15567 0.0
O80 O 0.11227 0.84444 0.09396 0.0
H81 H 0.12729 0.79928 0.07385 0.0
H82 H 0.12233 0.83287 0.15652 0.0
O83 O 0.08342 0.80894 0.12221 0.0
C84 C 0.12662 0.85368 0.0726 0.0
O85 O 0.13099 0.84407 0.04923 0.0
N86 N 0.09216 0.79397 0.05891 0.0
C87 C 0.08513 0.76201 0.01841 0.0
C88 C 0.0752 0.76041 0.0517 0.0
C89 C 0.07859 0.77664 0.07116 0.0
C90 C 0.10116 0.79569 0.02563 0.0
C91 C 0.09796 0.77996 1.00507 0.0
H92 H 0.07012 0.77502 0.09552 0.0
H93 H 0.1114 0.80949 0.01554 0.0
H94 H 0.05601 0.79948 0.07036 0.0
H95 H 0.07047 0.83827 0.98182 0.0
H96 H 0.14909 0.80209 0.1304 0.0
H97 H 0.06476 0.74677 0.06233 0.0
H98 H 0.10592 0.78187 0.97947 0.0
C99 C 0.83866 0.75809 0.99968 0.0
C100 C 0.83703 0.77251 0.01519 0.0
N101 N 0.8238 0.77424 0.99598 0.0
N102 N 0.82659 0.75064 0.97059 0.0
C103 C 0.81757 0.76067 0.96922 0.0
H104 H 0.84811 0.75335 0.00909 0.0
Co105 Co 0.8246 0.73105 0.93986 0.0
C106 C 0.8209 0.75035 0.8712 0.0
O107 O 0.83895 0.75952 0.86305 0.0
N108 N 0.82283 0.71163 0.90879 0.0
C109 C 0.81882 0.68412 0.89003 0.0
C110 C 0.8174 0.694 0.91991 0.0
C111 C 0.82768 0.71218 0.8721 0.0
N112 N 0.82531 0.69556 0.85977 0.0
O113 O 0.85073 0.74666 0.92524 0.0
H114 H 0.81299 0.68875 0.94821 0.0
H115 H 0.83302 0.72461 0.85487 0.0
O116 O 0.81493 0.7395 0.89966 0.0
C117 C 0.86017 0.74084 0.94385 0.0
O118 O 0.8509 0.72648 0.96662 0.0
N119 N 0.79997 0.71512 0.95742 0.0
C120 C 0.766 0.68762 0.98911 0.0
C121 C 0.7672 0.69198 0.95054 0.0
C122 C 0.78436 0.70582 0.93517 0.0
C123 C 0.79901 0.71119 0.9949 0.0
C124 C 0.78218 0.69767 0.01136 0.0
H125 H 0.78529 0.70842 0.90519 0.0
H126 H 0.81162 0.71811 0.01195 0.0
H127 H 0.80687 0.75828 0.94862 0.0
H128 H 0.84487 0.78093 0.03915 0.0
H129 H 0.81577 0.66975 0.89101 0.0
H130 H 0.75508 0.68454 0.93228 0.0
H131 H 0.78209 0.69452 0.04101 0.0
C132 C 0.26326 0.08247 1.00529 0.0
C133 C 0.24974 0.06637 0.02251 0.0
N134 N 0.24867 0.05142 1.00458 0.0
N135 N 0.27076 0.07792 0.97631 0.0
C136 C 0.26167 0.05891 0.97658 0.0
H137 H 0.26728 0.09667 0.01316 0.0
Co138 Co 0.28938 0.09598 0.94512 0.0
C139 C 0.29223 0.07582 0.87788 0.0
O140 O 0.31036 0.088 0.87639 0.0
N141 N 0.30818 0.11494 0.91378 0.0
C142 C 0.33491 0.13869 0.89148 0.0
C143 C 0.32641 0.12719 0.92191 0.0
C144 C 0.30592 0.11976 0.87835 0.0
N145 N 0.32206 0.13399 0.86386 0.0
O146 O 0.27143 0.10331 0.92795 0.0
H147 H 0.33337 0.12795 0.94814 0.0
H148 H 0.29265 0.11273 0.86334 0.0
O149 O 0.28214 0.07709 0.90411 0.0
C150 C 0.27499 0.1191 0.94178 0.0
O151 O 0.29001 0.12835 0.96304 0.0
N152 N 0.30704 0.09001 0.96627 0.0
C153 C 0.33465 0.08628 1.00567 0.0
C154 C 0.32441 0.07393 0.97628 0.0
C155 C 0.3103 0.0757 0.95759 0.0
C156 C 0.31596 0.10125 0.99643 0.0
C157 C 0.32992 0.0998 0.0162 0.0
H158 H 0.30195 0.06529 0.93688 0.0
H159 H 0.31253 0.11185 1.00452 0.0
H160 H 0.26467 0.05077 0.95683 0.0
H161 H 0.24113 0.06586 0.04605 0.0
H162 H 0.34961 0.14944 0.88972 0.0
H163 H 0.32703 0.06276 0.9683 0.0
H164 H 0.33723 0.1095 0.039 0.0
C165 C 0.94461 0.18525 0.99881 0.0
C166 C 0.96086 0.18843 0.01649 0.0
N167 N 0.97559 0.19872 0.9935 0.0
N168 N 0.94881 0.19336 0.96456 0.0
C169 C 0.96786 0.20148 0.96203 0.0
H170 H 0.93057 0.17771 0.01055 0.0
Co171 Co 0.93021 0.19317 0.93307 0.0
C172 C 0.95022 0.21643 0.86689 0.0
O173 O 0.93878 0.22324 0.86851 0.0
N174 N 0.91072 0.19231 0.90156 0.0
C175 C 0.88503 0.19245 0.88144 0.0
C176 C 0.8965 0.19521 0.91179 0.0
C177 C 0.907 0.18711 0.86472 0.0
N178 N 0.89166 0.18747 0.85164 0.0
O179 O 0.92212 0.16747 0.91808 0.0
H180 H 0.89411 0.19879 0.93959 0.0
H181 H 0.91545 0.1832 0.84776 0.0
O182 O 0.94869 0.20421 0.89123 0.0
C183 C 0.90761 0.15729 0.93849 0.0
O184 O 0.9022 0.16596 0.96211 0.0
N185 N 0.93651 0.21703 0.95266 0.0
C186 C 0.94089 0.24851 0.9921 0.0
C187 C 0.95439 0.25019 0.9655 0.0
C188 C 0.95216 0.2342 0.94667 0.0
C189 C 0.92428 0.21502 0.98063 0.0
C190 C 0.92581 0.23048 0.99975 0.0
H191 H 0.96328 0.23571 0.92821 0.0
H192 H 0.91306 0.20116 0.98811 0.0
H193 H 0.97596 0.20974 0.93819 0.0
H194 H 0.9617 0.18345 0.04422 0.0
H195 H 0.87283 0.19426 0.88127 0.0
H196 H 0.9668 0.26364 0.95991 0.0
H197 H 0.91507 0.22819 0.02017 0.0
C198 C 0.85445 0.58857 0.34861 0.0
C199 C 0.85648 0.57457 0.33236 0.0
N200 N 0.86918 0.57234 0.3524 0.0
N201 N 0.86575 0.59533 0.37902 0.0
C202 C 0.87472 0.58525 0.3804 0.0
H203 H 0.8453 0.59355 0.33859 0.0
Co204 Co 0.86676 0.61427 0.41085 0.0
C205 C 0.8745 0.59527 0.47558 0.0
O206 O 0.85673 0.58287 0.48181 0.0
N207 N 0.86751 0.6329 0.44269 0.0
C208 C 0.86972 0.65953 0.46227 0.0
C209 C 0.87109 0.65003 0.43169 0.0
C210 C 0.86376 0.63222 0.48004 0.0
N211 N 0.86509 0.64835 0.49284 0.0
O212 O 0.8412 0.59702 0.42749 0.0
H213 H 0.87425 0.65518 0.40306 0.0
H214 H 0.86003 0.62007 0.49744 0.0
O215 O 0.87889 0.60741 0.44954 0.0
C216 C 0.83095 0.60096 0.40647 0.0
O217 O 0.83952 0.61523 0.38322 0.0
N218 N 0.89044 0.63169 0.39091 0.0
C219 C 0.92263 0.65999 0.3551 0.0
C220 C 0.92289 0.65623 0.39371 0.0
C221 C 0.90658 0.64206 0.41119 0.0
C222 C 0.8899 0.63529 0.35362 0.0
C223 C 0.90579 0.6492 0.33515 0.0
H224 H 0.90671 0.63996 0.44119 0.0
H225 H 0.87681 0.6277 0.33825 0.0
H226 H 0.88492 0.58713 0.40178 0.0
H227 H 0.84929 0.56681 0.30729 0.0
H228 H 0.8715 0.67346 0.46168 0.0
H229 H 0.93551 0.66426 0.41036 0.0
H230 H 0.90465 0.6519 0.3057 0.0
C231 C 0.43939 0.27126 0.36733 0.0
C232 C 0.45317 0.28747 0.3509 0.0
N233 N 0.45222 0.30207 0.36538 0.0
N234 N 0.42977 0.27547 0.39253 0.0
C235 C 0.43778 0.29439 0.39036 0.0
H236 H 0.4365 0.25725 0.3609 0.0
Co237 Co 0.4096 0.25765 0.42205 0.0
C238 C 0.41311 0.27738 0.49698 0.0
O239 O 0.39738 0.2635 0.51028 0.0
N240 N 0.38923 0.23901 0.45105 0.0
C241 C 0.36054 0.21715 0.46973 0.0
C242 C 0.37071 0.23017 0.44229 0.0
C243 C 0.38994 0.23034 0.48303 0.0
N244 N 0.37266 0.21743 0.49568 0.0
O245 O 0.42492 0.24687 0.43696 0.0
H246 H 0.36484 0.23297 0.41755 0.0
H247 H 0.40294 0.23395 0.49755 0.0
O248 O 0.41887 0.27617 0.46406 0.0
C249 C 0.41911 0.2317 0.41813 0.0
O250 O 0.40484 0.2267 0.39502 0.0
N251 N 0.39419 0.26686 0.40359 0.0
C252 C 0.36846 0.27444 0.36763 0.0
C253 C 0.37159 0.27729 0.40651 0.0
C254 C 0.3847 0.27359 0.424 0.0
C255 C 0.39134 0.26417 0.36573 0.0
C256 C 0.37878 0.26815 0.3471 0.0
H257 H 0.38634 0.27521 0.45403 0.0
H258 H 0.39845 0.25831 0.34998 0.0
H259 H 0.43312 0.30236 0.40678 0.0
H260 H 0.46292 0.28836 0.32934 0.0
H261 H 0.34535 0.20859 0.47105 0.0
H262 H 0.3637 0.28199 0.42327 0.0
H263 H 0.37651 0.26548 0.31714 0.0
C264 C 0.75065 0.1437 0.32909 0.0
C265 C 0.73722 0.14461 0.30738 0.0
N266 N 0.72894 0.15217 0.32813 0.0
N267 N 0.75075 0.15032 0.36388 0.0
C268 C 0.73809 0.1563 0.36169 0.0
H269 H 0.75901 0.13753 0.32062 0.0
Co270 Co 0.76432 0.14902 0.40618 0.0
C271 C 0.72406 0.13138 0.43957 0.0
O272 O 0.71494 0.12812 0.4076 0.0
N273 N 0.77759 0.14761 0.44916 0.0
C274 C 0.78165 0.13488 0.50119 0.0
C275 C 0.77116 0.13158 0.4692 0.0
C276 C 0.7923 0.16061 0.47003 0.0
N277 N 0.79492 0.1531 0.50191 0.0
O278 O 0.77251 0.17512 0.41727 0.0
H279 H 0.7589 0.11831 0.46208 0.0
H280 H 0.80019 0.1754 0.46327 0.0
O281 O 0.74206 0.13916 0.4399 0.0
C282 C 0.78674 0.184 0.39539 0.0
O283 O 0.79188 0.17395 0.37517 0.0
N284 N 0.75873 0.1246 0.39143 0.0
C285 C 0.75625 0.09212 0.36085 0.0
C286 C 0.73995 0.09253 0.37123 0.0
C287 C 0.74149 0.10891 0.38664 0.0
C288 C 0.77467 0.12439 0.38133 0.0
C289 C 0.77379 0.10828 0.36652 0.0
H290 H 0.72877 0.10895 0.39331 0.0
H291 H 0.78824 0.13702 0.38421 0.0
H292 H 0.73466 0.16233 0.38534 0.0
H293 H 0.73292 0.13876 0.27942 0.0
H294 H 0.77929 0.12478 0.52311 0.0
H295 H 0.72612 0.08036 0.36711 0.0
H296 H 0.78671 0.10871 0.35823 0.0
C297 C 0.51078 0.09706 0.33542 0.0
C298 C 0.50882 0.11102 0.35216 0.0
N299 N 0.49543 0.11271 0.33358 0.0
N300 N 0.49878 0.08991 0.3061 0.0
C301 C 0.48947 0.09964 0.30589 0.0
H302 H 0.52026 0.09231 0.34445 0.0
Co303 Co 0.49675 0.07054 0.27479 0.0
C304 C 0.48887 0.08697 0.20552 0.0
O305 O 0.50617 0.0951 0.19246 0.0
N306 N 0.49495 0.05115 0.24367 0.0
C307 C 0.49006 0.02332 0.22501 0.0
C308 C 0.48875 0.03334 0.25463 0.0
C309 C 0.50029 0.05167 0.20734 0.0
N310 N 0.4974 0.03484 0.19503 0.0
O311 O 0.52219 0.08716 0.25648 0.0
H312 H 0.48371 0.02795 0.28259 0.0
H313 H 0.50671 0.06431 0.19065 0.0
O314 O 0.48474 0.07774 0.23626 0.0
C315 C 0.53333 0.08387 0.27605 0.0
O316 O 0.52582 0.07004 0.30052 0.0
N317 N 0.473 0.05395 0.29592 0.0
C318 C 0.44058 0.02652 0.33274 0.0
C319 C 0.43987 0.03125 0.2949 0.0
C320 C 0.45627 0.04497 0.27691 0.0
C321 C 0.47392 0.04969 0.33265 0.0
C322 C 0.45794 0.03613 0.35158 0.0
H323 H 0.45559 0.04785 0.24743 0.0
H324 H 0.48735 0.05644 0.34704 0.0
H325 H 0.47864 0.0973 0.28569 0.0
H326 H 0.51645 0.11905 0.37667 0.0
H327 H 0.48583 1.00862 0.22586 0.0
H328 H 0.42681 0.02428 0.27917 0.0
H329 H 0.45939 0.03275 0.38041 0.0
C330 C 0.93263 0.41071 0.32896 0.0
C331 C 0.91875 0.39461 0.34559 0.0
N332 N 0.91232 0.38055 0.32026 0.0
N333 N 0.93509 0.40707 0.29309 0.0
C334 C 0.92255 0.3885 0.28859 0.0
H335 H 0.94068 0.42422 0.34247 0.0
Co336 Co 0.95338 0.42569 0.26158 0.0
C337 C 0.95565 0.40603 0.19348 0.0
O338 O 0.97396 0.41754 0.19354 0.0
N339 N 0.9719 0.44528 0.23023 0.0
C340 C 0.99749 0.47141 0.21089 0.0
C341 C 0.98892 0.45958 0.24082 0.0
C342 C 0.9703 0.44929 0.19367 0.0
N343 N 0.98586 0.46486 0.18107 0.0
O344 O 0.9359 0.4343 0.24876 0.0
H345 H 0.99485 0.46183 0.26869 0.0
H346 H 0.95794 0.44092 0.17655 0.0
O347 O 0.94537 0.40751 0.21903 0.0
C348 C 0.94087 0.44842 0.27058 0.0
O349 O 0.95487 0.45271 0.29397 0.0
N350 N 0.97096 0.41896 0.27917 0.0
C351 C 0.99899 0.41447 0.31416 0.0
C352 C 0.98659 0.40112 0.28815 0.0
C353 C 0.97234 0.40342 0.27149 0.0
C354 C 0.9816 0.43081 0.30723 0.0
C355 C 0.99593 0.42913 0.32439 0.0
H356 H 0.9624 0.39254 0.25314 0.0
H357 H 0.97897 0.44179 0.31636 0.0
H358 H 0.92088 0.38097 0.26267 0.0
H359 H 0.91414 0.39331 0.37455 0.0
H360 H 1.01135 0.48382 0.21096 0.0
H361 H 0.98793 0.38911 0.2806 0.0
H362 H 1.00439 0.43914 0.34595 0.0
C363 C 0.60415 0.51753 0.33127 0.0
C364 C 0.61966 0.51927 0.34995 0.0
N365 N 0.63533 0.53225 0.3321 0.0
N366 N 0.60985 0.52931 0.3016 0.0
C367 C 0.62895 0.53812 0.30284 0.0
H368 H 0.58959 0.50831 0.33902 0.0
Co369 Co 0.59352 0.53222 0.26863 0.0
C370 C 0.61894 0.53723 0.20324 0.0
O371 O 0.61041 0.51929 0.19494 0.0
N372 N 0.57719 0.53519 0.23533 0.0
C373 C 0.55556 0.54154 0.21357 0.0
C374 C 0.56523 0.54124 0.24499 0.0
C375 C 0.57429 0.53162 0.19787 0.0
N376 N 0.56125 0.5355 0.18379 0.0
O377 O 0.58341 0.50654 0.25186 0.0
H378 H 0.56349 0.54504 0.27323 0.0
H379 H 0.58162 0.52631 0.1812 0.0
O380 O 0.61323 0.54293 0.23089 0.0
C381 C 0.56752 0.497 0.26856 0.0
O382 O 0.56158 0.50609 0.2897 0.0
N383 N 0.60144 0.55597 0.28901 0.0
C384 C 0.60719 0.58814 0.32737 0.0
C385 C 0.61488 0.58942 0.29121 0.0
C386 C 0.61162 0.5731 0.27223 0.0
C387 C 0.59402 0.55445 0.32397 0.0
C388 C 0.59657 0.57022 0.34344 0.0
H389 H 0.61684 0.57424 0.24388 0.0
H390 H 0.58544 0.54071 0.33631 0.0
H391 H 0.63802 0.54893 0.28315 0.0
H392 H 0.61935 0.51139 0.37457 0.0
H393 H 0.54483 0.54551 0.21299 0.0
H394 H 0.62321 0.60284 0.27743 0.0
H395 H 0.58969 0.56816 0.37045 0.0
C396 C 0.52464 0.92446 0.68393 0.0
C397 C 0.52831 0.91164 0.66706 0.0
N398 N 0.54099 0.90989 0.68815 0.0
N399 N 0.53489 0.93091 0.71576 0.0
C400 C 0.54476 0.92174 0.71758 0.0
H401 H 0.51516 0.92889 0.67326 0.0
Co402 Co 0.53443 0.94912 0.74736 0.0
C403 C 0.54242 0.93119 0.81321 0.0
O404 O 0.52463 0.91896 0.81981 0.0
N405 N 0.53375 0.96717 0.77841 0.0
C406 C 0.53246 0.99244 0.79511 0.0
C407 C 0.53411 0.98268 0.76539 0.0
C408 C 0.53175 0.96772 0.81621 0.0
N409 N 0.531 0.98309 0.82732 0.0
O410 O 0.50928 0.93088 0.76364 0.0
H411 H 0.53517 0.98646 0.73595 0.0
H412 H 0.53073 0.95696 0.83509 0.0
O413 O 0.54687 0.94303 0.78656 0.0
C414 C 0.49796 0.93313 0.74245 0.0
O415 O 0.50511 0.94675 0.7175 0.0
N416 N 0.55782 0.96743 0.7283 0.0
C417 C 0.58919 0.99731 0.69403 0.0
C418 C 0.58991 0.99271 0.73188 0.0
C419 C 0.57392 0.9778 0.74872 0.0
C420 C 0.55701 0.9716 0.69148 0.0
C421 C 0.57252 0.98633 0.67375 0.0
H422 H 0.57426 0.97515 0.77842 0.0
H423 H 0.54398 0.9638 0.67602 0.0
H424 H 0.55478 0.92394 0.7396 0.0
H425 H 0.52189 0.90401 0.64139 0.0
H426 H 0.53188 1.00523 0.79275 0.0
H427 H 0.60241 1.00103 0.74869 0.0
H428 H 0.57134 0.98927 0.64444 0.0
C429 C 0.09387 0.6024 0.66375 0.0
C430 C 0.10751 0.61743 0.64368 0.0
N431 N 0.11621 0.63235 0.66694 0.0
N432 N 0.09386 0.60765 0.69965 0.0
C433 C 0.10768 0.62593 0.70075 0.0
H434 H 0.08429 0.58859 0.65268 0.0
Co435 Co 0.07684 0.59272 0.73765 0.0
C436 C 0.09165 0.61723 0.8036 0.0
O437 O 0.0941 0.60439 0.82035 0.0
N438 N 0.05972 0.57831 0.77703 0.0
C439 C 0.03943 0.57274 0.82383 0.0
C440 C 0.04759 0.58313 0.79217 0.0
C441 C 0.05851 0.56467 0.8005 0.0
N442 N 0.04631 0.56118 0.82933 0.0
O443 O 0.09549 0.58678 0.75625 0.0
H444 H 0.04566 0.59448 0.78244 0.0
H445 H 0.06734 0.55843 0.79826 0.0
O446 O 0.08551 0.61459 0.76983 0.0
C447 C 0.09388 0.57267 0.73797 0.0
O448 O 0.08038 0.56465 0.71286 0.0
N449 N 0.05828 0.59682 0.71572 0.0
C450 C 0.02875 0.59836 0.6796 0.0
C451 C 0.04462 0.61481 0.69276 0.0
C452 C 0.05929 0.61375 0.71085 0.0
C453 C 0.04332 0.58085 0.70198 0.0
C454 C 0.02832 0.58126 0.68434 0.0
H455 H 0.07147 0.62648 0.72061 0.0
H456 H 0.043 0.56763 0.70503 0.0
H457 H 0.11104 0.6346 0.72559 0.0
H458 H 0.11065 0.61731 0.61413 0.0
H459 H 0.02982 0.57421 0.84254 0.0
H460 H 0.04558 0.62833 0.68945 0.0
H461 H 0.01661 0.56828 0.67392 0.0
C462 C 0.42105 0.49761 0.66773 0.0
C463 C 0.40563 0.49577 0.64849 0.0
N464 N 0.39073 0.48876 0.67212 0.0
N465 N 0.41614 0.49193 0.70359 0.0
C466 C 0.39759 0.48666 0.70543 0.0
H467 H 0.43492 0.50249 0.65607 0.0
Co468 Co 0.43218 0.4906 0.74015 0.0
C469 C 0.4077 0.48045 0.80711 0.0
O470 O 0.41928 0.49665 0.82284 0.0
N471 N 0.44786 0.48876 0.778 0.0
C472 C 0.45744 0.4751 0.81984 0.0
C473 C 0.44526 0.47216 0.79087 0.0
C474 C 0.46161 0.50165 0.80084 0.0
N475 N 0.46775 0.49363 0.82635 0.0
O476 O 0.4382 0.5151 0.75846 0.0
H477 H 0.43456 0.45851 0.78108 0.0
H478 H 0.46673 0.51655 0.79952 0.0
O479 O 0.41104 0.47688 0.77398 0.0
C480 C 0.45196 0.52651 0.73765 0.0
O481 O 0.45883 0.51958 0.71312 0.0
N482 N 0.42824 0.46833 0.71776 0.0
C483 C 0.4271 0.43852 0.67795 0.0
C484 C 0.41084 0.43653 0.69564 0.0
C485 C 0.41165 0.45174 0.71513 0.0
C486 C 0.44402 0.47058 0.70029 0.0
C487 C 0.44382 0.45587 0.68054 0.0
H488 H 0.39895 0.45027 0.72751 0.0
H489 H 0.45693 0.48397 0.7019 0.0
H490 H 0.38912 0.48086 0.73046 0.0
H491 H 0.40553 0.49935 0.61922 0.0
H492 H 0.45799 0.46429 0.83622 0.0
H493 H 0.39755 0.4235 0.69378 0.0
H494 H 0.45675 0.45806 0.66774 0.0
C495 C 0.1567 0.4163 0.67944 0.0
C496 C 0.15667 0.43006 0.70128 0.0
N497 N 0.16096 0.44508 0.67939 0.0
N498 N 0.16075 0.42229 0.64353 0.0
C499 C 0.16435 0.44025 0.6449 0.0
H500 H 0.15303 0.4024 0.6889 0.0
Co501 Co 0.15886 0.40702 0.60164 0.0
C502 C 0.13695 0.42582 0.57061 0.0
O503 O 0.13348 0.43136 0.60277 0.0
N504 N 0.15659 0.39186 0.55907 0.0
C505 C 0.14203 0.37378 0.50942 0.0
C506 C 0.13975 0.38128 0.5419 0.0
C507 C 0.16904 0.39042 0.53588 0.0
N508 N 0.1604 0.37954 0.50528 0.0
O509 O 0.18392 0.42604 0.5858 0.0
H510 H 0.12655 0.37984 0.55124 0.0
H511 H 0.18414 0.39799 0.54011 0.0
O512 O 0.14633 0.41724 0.5699 0.0
C513 C 0.19499 0.42353 0.60739 0.0
O514 O 0.18743 0.40955 0.63151 0.0
N515 N 0.13574 0.38736 0.62074 0.0
C516 C 0.10592 0.35643 0.6568 0.0
C517 C 0.10386 0.37142 0.64378 0.0
C518 C 0.11897 0.3868 0.62596 0.0
C519 C 0.1379 0.37285 0.63289 0.0
C520 C 0.12322 0.35726 0.65069 0.0
H521 H 0.11707 0.39819 0.61728 0.0
H522 H 0.15132 0.37353 0.6291 0.0
H523 H 0.16791 0.44907 0.62019 0.0
H524 H 0.15295 0.42864 0.73079 0.0
H525 H 0.13102 0.36516 0.48956 0.0
H526 H 0.09088 0.37157 0.64825 0.0
H527 H 0.12548 0.34598 0.65962 0.0
C528 C 0.60967 0.74826 0.67821 0.0
C529 C 0.59631 0.73204 0.69521 0.0
N530 N 0.58783 0.71871 0.66863 0.0
N531 N 0.60982 0.74542 0.64086 0.0
C532 C 0.59622 0.72725 0.63576 0.0
H533 H 0.61888 0.76133 0.69239 0.0
Co534 Co 0.62699 0.76441 0.60843 0.0
C535 C 0.62697 0.7455 0.53664 0.0
O536 O 0.64488 0.75784 0.53174 0.0
N537 N 0.64433 0.78425 0.57671 0.0
C538 C 0.67004 0.80949 0.55508 0.0
C539 C 0.66226 0.7974 0.58495 0.0
C540 C 0.6414 0.78922 0.54192 0.0
N541 N 0.65699 0.80428 0.52776 0.0
O542 O 0.60852 0.77185 0.598 0.0
H543 H 0.66949 0.7984 0.61094 0.0
H544 H 0.62816 0.78166 0.52694 0.0
O545 O 0.6183 0.74638 0.56595 0.0
C546 C 0.61125 0.78427 0.62269 0.0
O547 O 0.62505 0.78914 0.64689 0.0
N548 N 0.64554 0.75843 0.62324 0.0
C549 C 0.67329 0.75348 0.65813 0.0
C550 C 0.66302 0.74218 0.62758 0.0
C551 C 0.64875 0.74451 0.61115 0.0
C552 C 0.65503 0.76899 0.65375 0.0
C553 C 0.66898 0.76685 0.67146 0.0
H554 H 0.64016 0.73471 0.58974 0.0
H555 H 0.65174 0.77931 0.66441 0.0
H556 H 0.59276 0.7203 0.60871 0.0
H557 H 0.59303 0.73029 0.72498 0.0
H558 H 0.68443 0.82095 0.5533 0.0
H559 H 0.66558 0.73127 0.61734 0.0
H560 H 0.67644 0.7757 0.69527 0.0
C561 C 0.27297 0.85717 0.67824 0.0
C562 C 0.28801 0.85871 0.69841 0.0
N563 N 0.30305 0.86512 0.67529 0.0
N564 N 0.27831 0.86247 0.64236 0.0
C565 C 0.2967 0.86719 0.64138 0.0
H566 H 0.25911 0.85288 0.68929 0.0
Co567 Co 0.26295 0.86424 0.60518 0.0
C568 C 0.28732 0.87499 0.53779 0.0
O569 O 0.27448 0.85996 0.52022 0.0
N570 N 0.24766 0.86638 0.56704 0.0
C571 C 0.23692 0.87949 0.52635 0.0
C572 C 0.24894 0.88269 0.55584 0.0
C573 C 0.23497 0.85347 0.54272 0.0
N574 N 0.2282 0.86115 0.51792 0.0
O575 O 0.25685 0.83962 0.58655 0.0
H576 H 0.25858 0.8964 0.56715 0.0
H577 H 0.23109 0.83885 0.54232 0.0
O578 O 0.28462 0.8778 0.572 0.0
C579 C 0.24319 0.82781 0.6071 0.0
O580 O 0.23612 0.83433 0.63211 0.0
N581 N 0.26718 0.88668 0.6276 0.0
C582 C 0.2693 0.91699 0.66756 0.0
C583 C 0.28536 0.91837 0.6501 0.0
C584 C 0.28404 0.90298 0.63043 0.0
C585 C 0.25156 0.88494 0.64494 0.0
C586 C 0.25223 0.89993 0.66457 0.0
H587 H 0.2966 0.90406 0.61828 0.0
H588 H 0.23842 0.87177 0.64324 0.0
H589 H 0.30546 0.87267 0.61661 0.0
H590 H 0.28781 0.85542 0.72797 0.0
H591 H 0.23543 0.89 0.5109 0.0
H592 H 0.29894 0.93105 0.65234 0.0
H593 H 0.2394 0.89814 0.67709 0.0
H594 H 0.2394 0.28571 0.17338 0.0
H595 H 0.26206 0.28919 0.22192 0.0
H596 H 0.26077 0.2392 0.18137 0.0
H597 H 0.23894 0.23629 0.13154 0.0
H598 H 0.26615 0.27207 0.27911 0.0
H599 H 0.30319 0.24369 0.18177 0.0
H600 H 0.30789 0.24118 0.11383 0.0
H601 H 0.30039 0.28825 0.09151 0.0
H602 H 0.29593 0.29121 0.15934 0.0
H603 H 0.33104 0.25647 0.38426 0.0
H604 H 0.30574 0.25581 0.3465 0.0
H605 H 0.34709 0.29652 0.27034 0.0
H606 H 0.37226 0.29633 0.30706 0.0
H607 H 0.3225 0.27126 0.23092 0.0
H608 H 0.31843 0.30596 0.33354 0.0
H609 H 0.31593 0.31353 0.39971 0.0
H610 H 0.2621 0.26322 0.40911 0.0
H611 H 0.26439 0.25521 0.34312 0.0
C612 C 0.24375 0.27534 0.17505 0.0
C613 C 0.2377 0.26098 0.14803 0.0
C614 C 0.2567 0.27731 0.20296 0.0
C615 C 0.26361 0.26479 0.20468 0.0
C616 C 0.25615 0.24942 0.17992 0.0
C617 C 0.24357 0.24769 0.15155 0.0
C618 C 0.27958 0.26855 0.23017 0.0
C619 C 0.27847 0.27187 0.26864 0.0
C620 C 0.29601 0.26899 0.21639 0.0
C621 C 0.29905 0.26754 0.1756 0.0
C622 C 0.30264 0.25356 0.16238 0.0
C623 C 0.30525 0.25205 0.12389 0.0
C624 C 0.30438 0.26451 0.09836 0.0
C625 C 0.301 0.27857 0.11129 0.0
C626 C 0.29843 0.28017 0.14975 0.0
C627 C 0.33467 0.26554 0.35986 0.0
C628 C 0.35355 0.27649 0.34854 0.0
C629 C 0.32021 0.26521 0.33831 0.0
C630 C 0.3244 0.27621 0.30553 0.0
C631 C 0.3434 0.2878 0.29528 0.0
C632 C 0.3578 0.2878 0.31636 0.0
C633 C 0.30906 0.27451 0.28025 0.0
C634 C 0.31025 0.27153 0.24163 0.0
C635 C 0.29311 0.27515 0.29375 0.0
C636 C 0.29167 0.2799 0.33346 0.0
C637 C 0.30612 0.29643 0.3498 0.0
C638 C 0.30473 0.30082 0.38726 0.0
C639 C 0.28889 0.28884 0.40863 0.0
C640 C 0.27438 0.27247 0.39254 0.0
C641 C 0.2757 0.26801 0.35509 0.0
H642 H 0.28784 0.29226 0.43763 0.0
H643 H 0.30637 0.26329 0.06858 0.0
H644 H 0.77557 0.95928 0.20741 0.0
H645 H 0.77615 0.98396 0.2468 0.0
H646 H 0.74469 0.99425 0.16209 0.0
H647 H 0.74462 0.97019 0.12227 0.0
H648 H 0.76986 0.02603 0.18956 0.0
H649 H 0.72405 0.96718 0.24302 0.0
H650 H 0.71311 0.93555 0.2687 0.0
H651 H 0.75241 0.95933 0.36013 0.0
H652 H 0.76391 0.99109 0.3345 0.0
H653 H 0.73374 0.07204 0.30191 0.0
H654 H 0.73429 0.04671 0.26672 0.0
H655 H 0.77686 0.04934 0.34178 0.0
H656 H 0.77651 0.07482 0.3769 0.0
H657 H 0.74671 0.01123 0.32128 0.0
H658 H 0.79197 0.07049 0.26516 0.0
H659 H 0.80197 0.10153 0.23741 0.0
H660 H 0.76093 0.07566 0.14944 0.0
H661 H 0.75047 0.04446 0.17704 0.0
C662 C 0.76896 0.96695 0.19702 0.0
C663 C 0.76002 0.9627 0.16166 0.0
C664 C 0.76918 0.98098 0.21969 0.0
C665 C 0.76014 0.99078 0.20781 0.0
C666 C 0.75174 0.98693 0.17202 0.0
C667 C 0.75172 0.97311 0.14919 0.0
C668 C 0.75902 1.00476 0.23273 0.0
C669 C 0.7646 0.02266 0.2182 0.0
C670 C 0.75235 1.00054 0.27037 0.0
C671 C 0.74499 0.98151 0.2866 0.0
C672 C 0.73042 0.96566 0.26851 0.0
C673 C 0.72412 0.94771 0.28304 0.0
C674 C 0.7321 0.94544 0.31596 0.0
C675 C 0.74628 0.96112 0.33457 0.0
C676 C 0.7527 0.9791 0.32005 0.0
C677 C 0.74298 0.06699 0.3113 0.0
C678 C 0.75512 0.07544 0.34209 0.0
C679 C 0.74333 0.05259 0.2911 0.0
C680 C 0.75568 0.04621 0.30155 0.0
C681 C 0.76722 0.05404 0.33328 0.0
C682 C 0.76708 0.06864 0.35317 0.0
C683 C 0.75743 0.0323 0.27785 0.0
C684 C 0.75197 0.01449 0.29262 0.0
C685 C 0.76391 0.03645 0.24022 0.0
C686 C 0.77031 0.05517 0.22339 0.0
C687 C 0.78497 0.07144 0.24009 0.0
C688 C 0.79074 0.08905 0.22435 0.0
C689 C 0.78206 0.09057 0.19174 0.0
C690 C 0.76762 0.07446 0.17473 0.0
C691 C 0.76177 0.05681 0.19039 0.0
H692 H 0.78655 0.10423 0.17959 0.0
H693 H 0.7273 0.93152 0.32705 0.0
H694 H 0.08074 0.78548 0.22048 0.0
H695 H 0.05272 0.76493 0.25718 0.0
H696 H 0.01784 0.77107 0.1741 0.0
H697 H 0.04608 0.79194 0.1371 0.0
H698 H 1.0041 0.76738 0.25067 0.0
H699 H 0.02348 0.73609 0.16333 0.0
H700 H 0.04658 0.72964 0.13253 0.0
H701 H 0.05745 0.71142 0.23812 0.0
H702 H 0.03467 0.71813 0.26972 0.0
H703 H 0.93545 0.65991 0.28386 0.0
H704 H 0.9613 0.68581 0.2501 0.0
H705 H 0.97425 0.72088 0.34847 0.0
H706 H 0.94784 0.69518 0.38204 0.0
H707 H 0.99746 0.70421 0.25974 0.0
H708 H 0.9924 0.76673 0.32132 0.0
H709 H 0.96829 0.77318 0.34714 0.0
H710 H 0.92543 0.72726 0.28355 0.0
H711 H 0.9493 0.7207 0.25697 0.0
C712 C 0.06716 0.78289 0.21046 0.0
C713 C 0.06559 0.79013 0.17564 0.0
C714 C 0.05115 0.77112 0.23149 0.0
C715 C 0.03317 0.76617 0.21804 0.0
C716 C 0.0316 0.77468 0.18494 0.0
C717 C 0.04774 0.78662 0.16384 0.0
C718 C 0.01627 0.75039 0.2361 0.0
C719 C 1.00261 0.75357 0.25274 0.0
C720 C 1.01411 0.73224 0.238 0.0
C721 C 0.02748 0.72776 0.21895 0.0
C722 C 0.03088 0.73082 0.18003 0.0
C723 C 0.04391 0.72712 0.16242 0.0
C724 C 0.05349 0.72015 0.18337 0.0
C725 C 0.05002 0.71683 0.22194 0.0
C726 C 0.03705 0.72057 0.23972 0.0
C727 C 0.94367 0.67317 0.29831 0.0
C728 C 0.9394 0.67544 0.33566 0.0
C729 C 0.95857 0.68796 0.27899 0.0
C730 C 0.96963 0.70544 0.29644 0.0
C731 C 0.96574 0.70765 0.33408 0.0
C732 C 0.95077 0.69284 0.35345 0.0
C733 C 0.98532 0.72117 0.27526 0.0
C734 C 0.99884 0.71799 0.25788 0.0
C735 C 0.98707 0.73915 0.27201 0.0
C736 C 0.97263 0.74311 0.28748 0.0
C737 C 0.97784 0.75805 0.31275 0.0
C738 C 0.96421 0.76172 0.32753 0.0
C739 C 0.94533 0.75059 0.31709 0.0
C740 C 0.94004 0.73582 0.29173 0.0
C741 C 0.95362 0.73211 0.27684 0.0
H742 H 0.9348 0.75345 0.32859 0.0
H743 H 0.06358 0.71729 0.16969 0.0
H744 H 0.70472 0.75572 0.62648 0.0
H745 H 0.73113 0.75588 0.65927 0.0
H746 H 0.70155 0.7462 0.76493 0.0
H747 H 0.67569 0.74699 0.73236 0.0
H748 H 0.73527 0.77152 0.77594 0.0
H749 H 0.70749 0.71158 0.71499 0.0
H750 H 0.69532 0.68945 0.66166 0.0
H751 H 0.7499 0.71769 0.60949 0.0
H752 H 0.76233 0.74017 0.66227 0.0
H753 H 0.7846 0.73982 0.88856 0.0
H754 H 0.76107 0.74103 0.84858 0.0
H755 H 0.80168 0.76501 0.75866 0.0
H756 H 0.82554 0.7639 0.7988 0.0
H757 H 0.76488 0.73447 0.73659 0.0
H758 H 0.79222 0.79314 0.80402 0.0
H759 H 0.803 0.81241 0.86165 0.0
H760 H 0.74677 0.78299 0.9062 0.0
H761 H 0.7357 0.76336 0.84903 0.0
C762 C 0.70384 0.75339 0.65663 0.0
C763 C 0.68822 0.75133 0.67695 0.0
C764 C 0.7189 0.75344 0.67539 0.0
C765 C 0.71837 0.75092 0.7147 0.0
C766 C 0.70244 0.74831 0.73471 0.0
C767 C 0.68761 0.74865 0.7161 0.0
C768 C 0.73458 0.75167 0.73542 0.0
C769 C 0.74156 0.76324 0.7674 0.0
C770 C 0.7432 0.74123 0.72407 0.0
C771 C 0.73579 0.72769 0.69237 0.0
C772 C 0.71686 0.71316 0.692 0.0
C773 C 0.70992 0.70054 0.6619 0.0
C774 C 0.72182 0.7022 0.63215 0.0
C775 C 0.74069 0.71645 0.63251 0.0
C776 C 0.7477 0.72913 0.66252 0.0
C777 C 0.78861 0.74538 0.8603 0.0
C778 C 0.80699 0.7518 0.84688 0.0
C779 C 0.77512 0.74609 0.83751 0.0
C780 C 0.77965 0.75318 0.80073 0.0
C781 C 0.79793 0.75949 0.787 0.0
C782 C 0.81155 0.75896 0.81002 0.0
C783 C 0.76518 0.75403 0.77708 0.0
C784 C 0.7586 0.74282 0.74468 0.0
C785 C 0.75664 0.76449 0.78843 0.0
C786 C 0.76315 0.7767 0.82231 0.0
C787 C 0.78217 0.79073 0.82617 0.0
C788 C 0.78833 0.80172 0.85876 0.0
C789 C 0.77559 0.7989 0.88761 0.0
C790 C 0.75663 0.78515 0.88383 0.0
C791 C 0.75039 0.77411 0.85131 0.0
H792 H 0.7804 0.80737 0.91288 0.0
H793 H 0.71642 0.69241 0.60887 0.0
H794 H 0.30585 0.07375 0.80969 0.0
H795 H 0.29797 0.04572 0.77316 0.0
H796 H 0.25471 0.01182 0.85357 0.0
H797 H 0.26258 0.04007 0.89051 0.0
H798 H 0.279 0.99846 0.83922 0.0
H799 H 0.24242 0.01729 0.76605 0.0
H800 H 0.23625 0.03924 0.73005 0.0
H801 H 0.27934 0.04778 0.65068 0.0
H802 H 0.28596 0.02607 0.68649 0.0
H803 H 0.25068 0.91565 0.73289 0.0
H804 H 0.25116 0.94157 0.76688 0.0
H805 H 0.29107 0.98075 0.68688 0.0
H806 H 0.28992 0.95473 0.65147 0.0
H807 H 0.26543 0.99012 0.70219 0.0
H808 H 0.30425 0.9743 0.77666 0.0
H809 H 0.31212 0.95355 0.81272 0.0
H810 H 0.26677 0.9407 0.88953 0.0
H811 H 0.25847 0.96119 0.8536 0.0
C812 C 0.2944 0.06039 0.8193 0.0
C813 C 0.28487 0.05913 0.85307 0.0
C814 C 0.28987 0.04435 0.79827 0.0
C815 C 0.27571 0.02663 0.8105 0.0
C816 C 0.26567 0.02536 0.84356 0.0
C817 C 0.27009 0.04151 0.86451 0.0
C818 C 0.27257 0.00951 0.79006 0.0
C819 C 0.27561 0.9964 0.80943 0.0
C820 C 0.26879 1.00715 0.75091 0.0
C821 C 0.26477 0.02014 0.72914 0.0
C822 C 0.25068 0.02395 0.74108 0.0
C823 C 0.24708 0.03633 0.72067 0.0
C824 C 0.25742 0.04493 0.68814 0.0
C825 C 0.27135 0.04112 0.67589 0.0
C826 C 0.27501 0.02875 0.69621 0.0
C827 C 0.25942 0.92974 0.72214 0.0
C828 C 0.27023 0.933 0.68921 0.0
C829 C 0.25985 0.94461 0.74197 0.0
C830 C 0.27132 0.9632 0.72981 0.0
C831 C 0.28212 0.96655 0.69695 0.0
C832 C 0.28161 0.95164 0.67691 0.0
C833 C 0.27201 0.97912 0.75127 0.0
C834 C 0.26859 0.99203 0.73207 0.0
C835 C 0.27564 0.98142 0.79053 0.0
C836 C 0.28061 0.96911 0.8122 0.0
C837 C 0.29586 0.96693 0.80106 0.0
C838 C 0.30041 0.95524 0.82151 0.0
C839 C 0.28992 0.94577 0.85333 0.0
C840 C 0.27487 0.94802 0.86483 0.0
C841 C 0.27024 0.95967 0.84445 0.0
H842 H 0.29347 0.93673 0.86913 0.0
H843 H 0.25462 0.05452 0.67239 0.0
H844 H 0.98562 0.2207 0.87394 0.0
H845 H 1.01341 0.24113 0.83558 0.0
H846 H 0.97881 0.25306 0.76221 0.0
H847 H 0.95118 0.23282 0.80025 0.0
H848 H 1.00616 0.25 0.72281 0.0
H849 H 1.00122 0.28161 0.83375 0.0
H850 H 0.99885 0.28486 0.9023 0.0
H851 H 0.05195 0.28737 0.91859 0.0
H852 H 0.05446 0.2838 0.85013 0.0
H853 H 0.0678 0.33876 0.64295 0.0
H854 H 0.04253 0.31231 0.67696 0.0
H855 H 0.08347 0.31047 0.75039 0.0
H856 H 0.10872 0.33741 0.71766 0.0
H857 H 0.05474 0.3063 0.7904 0.0
H858 H 0.06148 0.27792 0.6788 0.0
H859 H 0.06361 0.27381 0.61054 0.0
H860 H 1.00764 0.26456 0.59527 0.0
H861 H 1.00527 0.26888 0.66341 0.0
C862 C 0.98389 0.22731 0.84912 0.0
C863 C 0.96628 0.22534 0.84035 0.0
C864 C 0.99978 0.23906 0.82733 0.0
C865 C 0.99823 0.24885 0.79632 0.0
C866 C 0.98038 0.24572 0.78601 0.0
C867 C 0.96461 0.23419 0.8079 0.0
C868 C 1.01519 0.26368 0.7766 0.0
C869 C 0.01677 0.26235 0.73751 0.0
C870 C 0.02921 0.27964 0.7959 0.0
C871 C 0.02793 0.28224 0.83691 0.0
C872 C 1.01233 0.28275 0.85198 0.0
C873 C 1.01096 0.28465 0.8908 0.0
C874 C 0.02522 0.28628 0.91479 0.0
C875 C 0.0409 0.28608 0.89997 0.0
C876 C 0.04231 0.28411 0.86117 0.0
C877 C 0.07144 0.33285 0.66653 0.0
C878 C 0.09037 0.34022 0.67731 0.0
C879 C 0.05697 0.31755 0.68571 0.0
C880 C 0.06107 0.30913 0.71592 0.0
C881 C 0.07991 0.3166 0.72706 0.0
C882 C 0.09438 0.33193 0.70801 0.0
C883 C 0.0457 0.29278 0.73632 0.0
C884 C 0.04435 0.29387 0.77561 0.0
C885 C 0.03193 0.27656 0.71718 0.0
C886 C 0.03326 0.27388 0.67619 0.0
C887 C 0.04967 0.27514 0.66086 0.0
C888 C 0.05092 0.27276 0.62219 0.0
C889 C 0.03579 0.26897 0.59857 0.0
C890 C 0.01936 0.26751 0.61359 0.0
C891 C 0.01805 0.26991 0.65225 0.0
H892 H 0.03678 0.26713 0.56864 0.0
H893 H 0.02413 0.28774 0.94484 0.0
H894 H 0.91249 0.61615 0.4636 0.0
H895 H 0.93777 0.61634 0.49965 0.0
H896 H 0.89696 0.5736 0.5732 0.0
H897 H 0.87137 0.57382 0.53774 0.0
H898 H 0.92578 0.59956 0.61331 0.0
H899 H 0.91989 0.56335 0.50417 0.0
H900 H 0.91756 0.55645 0.43616 0.0
H901 H 0.97298 0.60366 0.41905 0.0
H902 H 0.97552 0.61107 0.48687 0.0
H903 H 0.99103 0.57515 0.69156 0.0
H904 H 0.96466 0.57458 0.65804 0.0
H905 H 1.00373 0.62172 0.5907 0.0
H906 H 0.03025 0.62236 0.62422 0.0
H907 H 0.97528 0.59242 0.5479 0.0
H908 H 0.98022 0.62863 0.65795 0.0
H909 H 0.98184 0.63504 0.72609 0.0
H910 H 0.92734 0.58619 0.74151 0.0
H911 H 0.92551 0.57934 0.67349 0.0
C912 C 0.90878 0.6069 0.48763 0.0
C913 C 0.8898 0.59506 0.49782 0.0
C914 C 0.92333 0.60688 0.50807 0.0
C915 C 0.91935 0.5948 0.53891 0.0
C916 C 0.90043 0.58304 0.54946 0.0
C917 C 0.88579 0.58312 0.52906 0.0
C918 C 0.93501 0.59459 0.55997 0.0
C919 C 0.93641 0.59768 0.59905 0.0
C920 C 0.94915 0.59248 0.54138 0.0
C921 C 0.94783 0.58786 0.50063 0.0
C922 C 0.93154 0.57234 0.48589 0.0
C923 C 0.93018 0.56833 0.44736 0.0
C924 C 0.94509 0.57963 0.42329 0.0
C925 C 0.96143 0.59493 0.43773 0.0
C926 C 0.96284 0.59903 0.47622 0.0
C927 C 0.99402 0.58543 0.66965 0.0
C928 C 1.01276 0.5988 0.66056 0.0
C929 C 0.97892 0.58513 0.65061 0.0
C930 C 0.98218 0.59813 0.62187 0.0
C931 C 1.00087 0.61154 0.61276 0.0
C932 C 0.016 0.61199 0.63213 0.0
C933 C 0.96608 0.59752 0.6011 0.0
C934 C 0.96459 0.59423 0.5621 0.0
C935 C 0.95177 0.59925 0.61979 0.0
C936 C 0.95282 0.60336 0.66068 0.0
C937 C 0.96865 0.61916 0.67592 0.0
C938 C 0.96959 0.62289 0.71451 0.0
C939 C 0.95472 0.611 0.73813 0.0
C940 C 0.93886 0.59538 0.72318 0.0
C941 C 0.93786 0.59157 0.68461 0.0
H942 H 0.95548 0.61392 0.768 0.0
H943 H 0.94401 0.57652 0.39347 0.0
H944 H 0.40959 0.40132 0.69766 0.0
H945 H 0.41113 0.37593 0.66514 0.0
H946 H 0.44611 0.41465 0.57891 0.0
H947 H 0.44419 0.43997 0.61066 0.0
H948 H 0.42042 0.38172 0.54831 0.0
H949 H 0.46569 0.40148 0.64782 0.0
H950 H 0.47714 0.40942 0.71319 0.0
H951 H 0.43774 0.35319 0.74818 0.0
H952 H 0.42586 0.34497 0.68309 0.0
H953 H 0.43872 0.31287 0.47088 0.0
H954 H 0.4464 0.34277 0.50051 0.0
H955 H 0.41303 0.3129 0.59739 0.0
H956 H 0.40578 0.28329 0.56864 0.0
H957 H 0.44244 0.34444 0.61937 0.0
H958 H 0.39519 0.32576 0.52074 0.0
H959 H 0.38435 0.31754 0.45505 0.0
H960 H 0.42779 0.37188 0.41826 0.0
H961 H 0.43895 0.38034 0.48377 0.0
C962 C 0.41739 0.40438 0.67151 0.0
C963 C 0.4269 0.42274 0.65699 0.0
C964 C 0.41842 0.38989 0.65312 0.0
C965 C 0.42902 0.39344 0.61989 0.0
C966 C 0.43796 0.41159 0.60462 0.0
C967 C 0.43696 0.42608 0.623 0.0
C968 C 0.43101 0.37829 0.60147 0.0
C969 C 0.4255 0.37375 0.56369 0.0
C970 C 0.43758 0.36781 0.62148 0.0
C971 C 0.44479 0.37266 0.66062 0.0
C972 C 0.45938 0.39084 0.6695 0.0
C973 C 0.46596 0.39538 0.7065 0.0
C974 C 0.45815 0.38183 0.73484 0.0
C975 C 0.44377 0.36368 0.72621 0.0
C976 C 0.43712 0.35906 0.68926 0.0
C977 C 0.43338 0.31271 0.49881 0.0
C978 C 0.4213 0.29563 0.517 0.0
C979 C 0.43769 0.32982 0.51566 0.0
C980 C 0.42988 0.33008 0.55082 0.0
C981 C 0.41911 0.31312 0.57016 0.0
C982 C 0.4149 0.29613 0.55351 0.0
C983 C 0.43138 0.34754 0.56655 0.0
C984 C 0.43756 0.35254 0.60385 0.0
C985 C 0.42539 0.3584 0.54611 0.0
C986 C 0.41812 0.35357 0.50703 0.0
C987 C 0.40247 0.33592 0.49861 0.0
C988 C 0.39626 0.33122 0.46143 0.0
C989 C 0.40542 0.34415 0.43247 0.0
C990 C 0.42073 0.36185 0.44069 0.0
C991 C 0.42701 0.36661 0.47784 0.0
H992 H 0.40062 0.34046 0.40369 0.0
H993 H 0.46326 0.38537 0.76347 0.0
H994 H 0.58776 0.0236 0.64989 0.0
H995 H 0.61326 0.04875 0.61398 0.0
H996 H 0.65261 0.03394 0.6606 0.0
H997 H 0.62694 1.00852 0.69687 0.0
H998 H 0.66779 0.07341 0.65323 0.0
H999 H 0.63599 0.01807 0.57709 0.0
H1000 H 0.60832 0.99083 0.54895 0.0
H1001 H 0.5934 0.02762 0.49236 0.0
H1002 H 0.62083 0.05508 0.52065 0.0
H1003 H 0.7349 0.12008 0.50307 0.0
H1004 H 0.71432 0.09969 0.5531 0.0
H1005 H 0.66751 0.10234 0.50433 0.0
H1006 H 0.68782 0.12198 0.45349 0.0
H1007 H 0.65782 0.06783 0.51493 0.0
H1008 H 0.68934 0.12339 0.59222 0.0
H1009 H 0.71692 0.15059 0.62072 0.0
H1010 H 0.73268 0.11383 0.67467 0.0
H1011 H 0.7053 0.08641 0.64611 0.0
C1012 C 0.60184 0.02569 0.65264 0.0
C1013 C 0.60526 0.01383 0.67566 0.0
C1014 C 0.61643 0.04015 0.63223 0.0
C1015 C 0.63478 0.04303 0.63412 0.0
C1016 C 0.63853 0.03192 0.65867 0.0
C1017 C 0.62387 0.01741 0.67932 0.0
C1018 C 0.6495 0.0567 0.60818 0.0
C1019 C 0.66579 0.07212 0.62295 0.0
C1020 C 0.64677 0.05511 0.56871 0.0
C1021 C 0.63039 0.03862 0.55123 0.0
C1022 C 0.62674 0.02035 0.55884 0.0
C1023 C 0.6111 1.00487 0.54284 0.0
C1024 C 0.59909 1.00749 0.51894 0.0
C1025 C 0.60271 0.02561 0.5109 0.0
C1026 C 0.61831 0.04113 0.52688 0.0
C1027 C 0.72032 0.11661 0.50342 0.0
C1028 C 0.71295 0.12247 0.47405 0.0
C1029 C 0.70854 0.10498 0.53219 0.0
C1030 C 0.68928 0.09937 0.53258 0.0
C1031 C 0.68225 0.10627 0.50454 0.0
C1032 C 0.6939 0.11759 0.47554 0.0
C1033 C 0.67598 0.08504 0.5598 0.0
C1034 C 0.65994 0.06928 0.54518 0.0
C1035 C 0.67901 0.0864 0.59928 0.0
C1036 C 0.69537 0.10286 0.61673 0.0
C1037 C 0.69875 0.12112 0.60995 0.0
C1038 C 0.71434 0.13657 0.62616 0.0
C1039 C 0.72658 0.13394 0.6494 0.0
C1040 C 0.7232 0.11584 0.65661 0.0
C1041 C 0.70764 0.10034 0.64047 0.0
H1042 H 0.73864 0.14593 0.6619 0.0
H1043 H 0.58698 0.99549 0.50659 0.0
H1044 H 0.48765 0.09297 0.12981 0.0
H1045 H 0.46172 0.09217 0.09416 0.0
H1046 H 0.43008 0.08232 0.19711 0.0
H1047 H 0.45544 0.08196 0.23229 0.0
H1048 H 0.40723 0.06146 0.14836 0.0
H1049 H 0.45397 0.12688 0.14572 0.0
H1050 H 0.4852 0.15458 0.13386 0.0
H1051 H 0.48034 0.14076 0.01624 0.0
H1052 H 0.44917 0.11285 0.02748 0.0
H1053 H 0.34144 0.0877 0.08155 0.0
H1054 H 0.3677 0.08727 0.11346 0.0
H1055 H 0.38943 0.08224 1.00623 0.0
H1056 H 0.36311 0.08261 0.97409 0.0
H1057 H 0.4171 0.11007 0.0543 0.0
H1058 H 0.36864 0.04505 0.05952 0.0
H1059 H 0.33691 0.0187 0.07385 0.0
H1060 H 0.34475 0.03389 0.19088 0.0
H1061 H 0.37644 0.06051 0.17715 0.0
C1062 C 0.4752 0.09076 0.14483 0.0
C1063 C 0.47368 0.08765 0.18394 0.0
C1064 C 0.46037 0.0904 0.12443 0.0
C1065 C 0.4439 0.08751 0.14282 0.0
C1066 C 0.44251 0.08455 0.182 0.0
C1067 C 0.45712 0.08445 0.20222 0.0
C1068 C 0.42791 0.08707 0.12144 0.0
C1069 C 0.40947 0.07229 0.12823 0.0
C1070 C 0.43061 0.10089 0.09435 0.0
C1071 C 0.44933 0.11767 0.08752 0.0
C1072 C 0.45963 0.12968 0.11738 0.0
C1073 C 0.4773 0.14543 0.11076 0.0
C1074 C 0.48477 0.1494 0.07434 0.0
C1075 C 0.47455 0.13766 0.04444 0.0
C1076 C 0.45687 0.12188 0.05091 0.0
C1077 C 0.35179 0.08649 0.06475 0.0
C1078 C 0.35016 0.08518 0.02525 0.0
C1079 C 0.36676 0.08616 0.08304 0.0
C1080 C 0.38053 0.08467 0.06227 0.0
C1081 C 0.37898 0.08339 0.02284 0.0
C1082 C 0.36386 0.08347 1.00454 0.0
C1083 C 0.39663 0.08467 0.08177 0.0
C1084 C 0.41501 0.09931 0.07451 0.0
C1085 C 0.39386 0.07094 0.10891 0.0
C1086 C 0.37485 0.05488 0.11724 0.0
C1087 C 0.36354 0.04286 0.08826 0.0
C1088 C 0.34557 0.02786 0.09628 0.0
C1089 C 0.3388 0.02465 0.13324 0.0
C1090 C 0.35 0.03641 0.16226 0.0
C1091 C 0.36798 0.05144 0.15438 0.0
H1092 H 0.32488 0.01303 0.1394 0.0
H1093 H 0.49846 0.1616 0.06927 0.0
H1094 H 0.96593 0.40538 0.12138 0.0
H1095 H 0.96013 0.37783 0.08476 0.0
H1096 H 0.92451 0.34175 0.17353 0.0
H1097 H 0.93009 0.36936 0.21009 0.0
H1098 H 0.95485 0.33613 0.15295 0.0
H1099 H 0.90485 0.3407 0.09262 0.0
H1100 H 0.8909 0.35694 0.05877 0.0
H1101 H 0.92945 0.36891 0.96709 0.0
H1102 H 0.94381 0.35296 1.00064 0.0
H1103 H 0.93094 0.25058 0.06521 0.0
H1104 H 0.93075 0.27669 0.09638 0.0
H1105 H 0.95534 0.31108 0.99781 0.0
H1106 H 0.95425 0.2844 0.96513 0.0
H1107 H 0.92969 0.31754 0.02337 0.0
H1108 H 0.9811 0.31565 0.08133 0.0
H1109 H 0.99768 0.30172 0.11398 0.0
H1110 H 0.96024 0.28765 0.20837 0.0
H1111 H 0.94325 0.30129 0.17607 0.0
C1112 C 0.95637 0.39155 0.13253 0.0
C1113 C 0.94832 0.3895 0.16843 0.0
C1114 C 0.95309 0.37582 0.11162 0.0
C1115 C 0.94191 0.35773 0.12641 0.0
C1116 C 0.93314 0.3556 0.16154 0.0
C1117 C 0.93616 0.37137 0.18224 0.0
C1118 C 0.94104 0.34133 0.10689 0.0
C1119 C 0.94901 0.3318 0.1249 0.0
C1120 C 0.93422 0.33628 0.06965 0.0
C1121 C 0.92551 0.34577 0.04931 0.0
C1122 C 0.91046 0.34693 0.06538 0.0
C1123 C 0.90245 0.35606 0.04622 0.0
C1124 C 0.90931 0.36399 0.01084 0.0
C1125 C 0.92416 0.36277 0.99451 0.0
C1126 C 0.93222 0.35367 0.01357 0.0
C1127 C 0.93611 0.26357 0.04976 0.0
C1128 C 0.94244 0.26519 0.01231 0.0
C1129 C 0.93626 0.27867 0.06798 0.0
C1130 C 0.94328 0.29605 0.04979 0.0
C1131 C 0.94987 0.29786 0.01259 0.0
C1132 C 0.94945 0.28261 0.99405 0.0
C1133 C 0.94341 0.31214 0.06951 0.0
C1134 C 0.93543 0.32173 0.05151 0.0
C1135 C 0.95061 0.31755 0.10656 0.0
C1136 C 0.96079 0.30933 0.1261 0.0
C1137 C 0.97631 0.30946 0.10893 0.0
C1138 C 0.9858 0.30164 0.12739 0.0
C1139 C 0.97999 0.29376 0.16318 0.0
C1140 C 0.96471 0.29374 0.18063 0.0
C1141 C 0.95515 0.30152 0.16226 0.0
H1142 H 0.98736 0.28771 0.17744 0.0
H1143 H 0.9031 0.37106 0.99606 0.0
H1144 H 0.64378 0.57393 0.21944 0.0
H1145 H 0.6668 0.59797 0.17763 0.0
H1146 H 0.65221 0.55674 0.08995 0.0
H1147 H 0.62883 0.53247 0.13176 0.0
H1148 H 0.69071 0.58088 0.09513 0.0
H1149 H 0.63557 0.58591 0.08427 0.0
H1150 H 0.6084 0.58806 0.10756 0.0
H1151 H 0.64584 0.64038 0.16167 0.0
H1152 H 0.67326 0.63838 0.1393 0.0
H1153 H 0.74261 0.65262 0.95978 0.0
H1154 H 0.71584 0.626 0.99066 0.0
H1155 H 0.72341 0.66039 0.08799 0.0
H1156 H 0.74991 0.68711 0.05703 0.0
H1157 H 0.68616 0.63785 0.07133 0.0
H1158 H 0.74098 0.63088 0.08629 0.0
H1159 H 0.76794 0.62819 0.06353 0.0
H1160 H 0.73038 0.57896 1.00042 0.0
H1161 H 0.7032 0.58151 0.02241 0.0
C1162 C 0.64533 0.56992 0.19122 0.0
C1163 C 0.63417 0.55131 0.17875 0.0
C1164 C 0.65856 0.58372 0.16733 0.0
C1165 C 0.66099 0.57926 0.13037 0.0
C1166 C 0.65048 0.56053 0.11827 0.0
C1167 C 0.63715 0.54668 0.14222 0.0
C1168 C 0.67434 0.59434 0.10455 0.0
C1169 C 0.68952 0.59318 0.08933 0.0
C1170 C 0.67293 0.61049 0.09728 0.0
C1171 C 0.65648 0.61192 0.11032 0.0
C1172 C 0.63802 0.59782 0.10134 0.0
C1173 C 0.62257 0.59902 0.11434 0.0
C1174 C 0.62539 0.61434 0.13609 0.0
C1175 C 0.64368 0.62852 0.14482 0.0
C1176 C 0.65918 0.62737 0.13196 0.0
C1177 C 0.73835 0.65462 0.98746 0.0
C1178 C 0.7485 0.67199 1.00601 0.0
C1179 C 0.72314 0.63933 1.00523 0.0
C1180 C 0.71775 0.64109 0.0419 0.0
C1181 C 0.72733 0.65864 0.05978 0.0
C1182 C 0.74256 0.67388 0.04212 0.0
C1183 C 0.70273 0.62456 0.06246 0.0
C1184 C 0.68723 0.62546 0.07672 0.0
C1185 C 0.70379 0.60812 0.06867 0.0
C1186 C 0.72009 0.60651 0.05564 0.0
C1187 C 0.73849 0.61956 0.06733 0.0
C1188 C 0.7538 0.61805 0.05461 0.0
C1189 C 0.75088 0.60344 0.03045 0.0
C1190 C 0.73262 0.59028 0.01907 0.0
C1191 C 0.71726 0.59175 0.03166 0.0
H1192 H 0.76275 0.60229 0.02063 0.0
H1193 H 0.61341 0.61524 0.14614 0.0
H1194 H 0.58025 0.95069 0.7994 0.0
H1195 H 0.60548 0.95124 0.83639 0.0
H1196 H 0.56472 0.91198 0.9151 0.0
H1197 H 0.5392 0.91173 0.87848 0.0
H1198 H 0.59487 0.93947 0.95167 0.0
H1199 H 0.58513 0.89738 0.85129 0.0
H1200 H 0.58081 0.88686 0.78525 0.0
H1201 H 0.63644 0.93157 0.75845 0.0
H1202 H 0.64099 0.94255 0.82435 0.0
H1203 H 0.65729 0.91231 0.03417 0.0
H1204 H 0.63141 0.9129 1.00105 0.0
H1205 H 0.6714 0.95682 0.92845 0.0
H1206 H 0.69744 0.95635 0.96175 0.0
H1207 H 0.64127 0.92639 0.88953 0.0
H1208 H 0.65021 0.96789 0.99272 0.0
H1209 H 0.65331 0.97716 0.05952 0.0
H1210 H 0.59776 0.93116 0.08188 0.0
H1211 H 0.59443 0.92144 0.01528 0.0
C1212 C 0.57656 0.94228 0.82474 0.0
C1213 C 0.55764 0.93124 0.83602 0.0
C1214 C 0.59106 0.94249 0.84575 0.0
C1215 C 0.58703 0.9315 0.87835 0.0
C1216 C 0.56818 0.92057 0.89001 0.0
C1217 C 0.5536 0.92037 0.86895 0.0
C1218 C 0.60259 0.93144 0.8999 0.0
C1219 C 0.60484 0.93633 0.9382 0.0
C1220 C 0.61582 0.92764 0.88225 0.0
C1221 C 0.61333 0.92089 0.84272 0.0
C1222 C 0.5964 0.90505 0.83128 0.0
C1223 C 0.59391 0.89899 0.79386 0.0
C1224 C 0.60831 0.90857 0.76761 0.0
C1225 C 0.62528 0.92418 0.77881 0.0
C1226 C 0.62784 0.93031 0.81621 0.0
C1227 C 0.66057 0.9222 0.01133 0.0
C1228 C 0.67939 0.9343 1.00054 0.0
C1229 C 0.64578 0.92255 0.9925 0.0
C1230 C 0.64946 0.93491 0.96229 0.0
C1231 C 0.66824 0.94717 0.95169 0.0
C1232 C 0.6831 0.947 0.97089 0.0
C1233 C 0.63362 0.93457 0.94117 0.0
C1234 C 0.6313 0.92954 0.90295 0.0
C1235 C 0.6202 0.93799 0.95904 0.0
C1236 C 0.62215 0.94383 0.99908 0.0
C1237 C 0.63872 0.95965 0.01194 0.0
C1238 C 0.64051 0.96501 0.04976 0.0
C1239 C 0.62576 0.95473 0.07495 0.0
C1240 C 0.60918 0.9391 0.06235 0.0
C1241 C 0.60733 0.93367 0.02456 0.0
H1242 H 0.62717 0.9589 0.10422 0.0
H1243 H 0.60634 0.90387 0.73864 0.0
H1244 H 0.09882 0.62415 0.87898 0.0
H1245 H 0.09785 0.64856 0.91636 0.0
H1246 H 0.08647 0.67068 0.81599 0.0
H1247 H 0.08762 0.64645 0.77827 0.0
H1248 H 0.11169 0.69856 0.8625 0.0
H1249 H 0.05115 0.64222 0.87401 0.0
H1250 H 0.03051 0.60861 0.88807 0.0
H1251 H 0.0505 0.61788 1.00221 0.0
H1252 H 0.07154 0.6515 0.98863 0.0
H1253 H 0.07957 0.75494 0.94304 0.0
H1254 H 0.07995 0.72963 0.90789 0.0
H1255 H 0.08652 0.70631 0.01178 0.0
H1256 H 0.08565 0.73144 0.04719 0.0
H1257 H 0.06435 0.6788 0.96507 0.0
H1258 H 0.12467 0.7345 0.95512 0.0
H1259 H 0.1468 0.7679 0.94185 0.0
H1260 H 0.1287 0.75982 0.82646 0.0
H1261 H 0.10624 0.72641 0.83919 0.0
C1262 C 0.09634 0.63433 0.86472 0.0
C1263 C 0.09315 0.63323 0.82561 0.0
C1264 C 0.09569 0.64822 0.8862 0.0
C1265 C 0.09177 0.66126 0.86907 0.0
C1266 C 0.08941 0.66071 0.82984 0.0
C1267 C 0.09004 0.64681 0.80832 0.0
C1268 C 0.08952 0.67508 0.89212 0.0
C1269 C 0.10119 0.69425 0.88462 0.0
C1270 C 0.07615 0.66945 0.92168 0.0
C1271 C 0.06305 0.64935 0.93021 0.0
C1272 C 0.05121 0.63707 0.90206 0.0
C1273 C 0.03944 0.61802 0.90994 0.0
C1274 C 0.03922 0.61111 0.94599 0.0
C1275 C 0.0507 0.62326 0.97429 0.0
C1276 C 0.06255 0.64231 0.96652 0.0
C1277 C 0.08089 0.74429 0.9584 0.0
C1278 C 0.08277 0.74526 0.99781 0.0
C1279 C 0.08118 0.72986 0.93829 0.0
C1280 C 0.08376 0.7163 0.95706 0.0
C1281 C 0.08463 0.71666 0.99662 0.0
C1282 C 0.0841 0.731 0.01684 0.0
C1283 C 0.08643 0.70235 0.93521 0.0
C1284 C 0.07486 0.68315 0.94298 0.0
C1285 C 0.10002 0.70795 0.90605 0.0
C1286 C 0.11365 0.72799 0.8982 0.0
C1287 C 0.12532 0.73987 0.92697 0.0
C1288 C 0.13793 0.7588 0.91954 0.0
C1289 C 0.13912 0.76598 0.88335 0.0
C1290 C 0.12774 0.75424 0.85449 0.0
C1291 C 0.11508 0.7353 0.86179 0.0
H1292 H 0.14889 0.78064 0.87766 0.0
H1293 H 0.03014 0.59634 0.95201 0.0
H1294 H 0.28223 0.32836 0.96851 0.0
H1295 H 0.3072 0.35416 0.93252 0.0
H1296 H 0.30256 0.3941 1.00367 0.0
H1297 H 0.27727 0.3683 0.0392 0.0
H1298 H 0.30492 0.40472 0.93425 0.0
H1299 H 0.34035 0.3853 0.00968 0.0
H1300 H 0.34904 0.36315 0.03695 0.0
H1301 H 0.36007 0.34989 0.9263 0.0
H1302 H 0.35119 0.37178 0.89831 0.0
H1303 H 0.39206 0.48412 0.87255 0.0
H1304 H 0.3673 0.45904 0.91068 0.0
H1305 H 0.36348 0.41792 0.83068 0.0
H1306 H 0.38804 0.44281 0.79241 0.0
H1307 H 0.36603 0.40868 0.90584 0.0
H1308 H 0.33007 0.42851 0.83135 0.0
H1309 H 0.32214 0.45151 0.80573 0.0
H1310 H 0.31316 0.46511 0.91774 0.0
H1311 H 0.32133 0.44238 0.94407 0.0
C1312 C 0.28671 0.34264 0.9768 0.0
C1313 C 0.2778 0.34627 0.0068 0.0
C1314 C 0.30102 0.35742 0.9562 0.0
C1315 C 0.307 0.37617 0.96555 0.0
C1316 C 0.29821 0.3798 0.99576 0.0
C1317 C 0.28377 0.36503 0.01609 0.0
C1318 C 0.32201 0.39197 0.94324 0.0
C1319 C 0.31838 0.4057 0.9286 0.0
C1320 C 0.33953 0.39319 0.93514 0.0
C1321 C 0.34493 0.38005 0.95188 0.0
C1322 C 0.34449 0.37756 0.99114 0.0
C1323 C 0.34947 0.36506 0.00673 0.0
C1324 C 0.35506 0.35508 0.98337 0.0
C1325 C 0.35572 0.35761 0.94436 0.0
C1326 C 0.35073 0.37007 0.92862 0.0
C1327 C 0.38584 0.46975 0.86293 0.0
C1328 C 0.39197 0.46551 0.82926 0.0
C1329 C 0.37169 0.45544 0.88473 0.0
C1330 C 0.36351 0.43661 0.87348 0.0
C1331 C 0.36958 0.43235 0.8399 0.0
C1332 C 0.38355 0.44664 0.81789 0.0
C1333 C 0.34884 0.42128 0.89694 0.0
C1334 C 0.35256 0.40767 0.91173 0.0
C1335 C 0.33152 0.42028 0.9055 0.0
C1336 C 0.32652 0.43389 0.8897 0.0
C1337 C 0.32657 0.43652 0.85054 0.0
C1338 C 0.322 0.44949 0.83588 0.0
C1339 C 0.3172 0.4598 0.8601 0.0
C1340 C 0.31691 0.45713 0.89902 0.0
C1341 C 0.3215 0.4442 0.91382 0.0
H1342 H 0.31366 0.46983 0.8487 0.0
H1343 H 0.35891 0.34542 0.99549 0.0
H1344 H 0.03489 0.44289 0.32624 0.0
H1345 H 0.05983 0.44189 0.36157 0.0
H1346 H 0.02417 0.38219 0.37676 0.0
H1347 H 0.9988 0.38323 0.34217 0.0
H1348 H 0.03895 0.39825 0.44157 0.0
H1349 H 0.06366 0.40019 0.32004 0.0
H1350 H 0.07352 0.41118 0.25495 0.0
H1351 H 0.11534 0.46524 0.29619 0.0
H1352 H 0.10556 0.45468 0.36153 0.0
H1353 H 0.13494 0.40997 0.50114 0.0
H1354 H 0.1132 0.40575 0.4497 0.0
H1355 H 0.09356 0.43763 0.51173 0.0
H1356 H 0.11497 0.44172 0.56312 0.0
H1357 H 0.1062 0.42933 0.40343 0.0
H1358 H 0.04603 0.41393 0.50871 0.0
H1359 H 0.03644 0.40135 0.57302 0.0
H1360 H 0.06503 0.36999 0.56101 0.0
H1361 H 0.07449 0.3821 0.49642 0.0
C1362 C 0.03236 0.42951 0.33689 0.0
C1363 C 1.01478 0.41316 0.33168 0.0
C1364 C 0.04674 0.42892 0.35676 0.0
C1365 C 0.04398 0.41194 0.37162 0.0
C1366 C 0.02665 0.39545 0.36546 0.0
C1367 C 1.0122 0.39603 0.34548 0.0
C1368 C 0.05865 0.41187 0.3962 0.0
C1369 C 0.05361 0.40489 0.43301 0.0
C1370 C 0.07778 0.42023 0.38499 0.0
C1371 C 0.08379 0.42666 0.34572 0.0
C1372 C 0.07487 0.41447 0.31524 0.0
C1373 C 0.08046 0.42061 0.27829 0.0
C1374 C 0.09503 0.4389 0.27144 0.0
C1375 C 0.10406 0.45108 0.30154 0.0
C1376 C 0.09852 0.44501 0.33855 0.0
C1377 C 0.12619 0.41631 0.50361 0.0
C1378 C 0.12647 0.42592 0.53662 0.0
C1379 C 0.11381 0.41392 0.47412 0.0
C1380 C 0.10151 0.42105 0.47725 0.0
C1381 C 0.1027 0.43172 0.50901 0.0
C1382 C 0.115 0.43409 0.53838 0.0
C1383 C 0.08649 0.41639 0.4489 0.0
C1384 C 0.09148 0.42248 0.4116 0.0
C1385 C 0.06724 0.40689 0.45937 0.0
C1386 C 0.06107 0.39904 0.49779 0.0
C1387 C 0.05014 0.40424 0.51968 0.0
C1388 C 0.04475 0.39721 0.5562 0.0
C1389 C 0.05015 0.38491 0.57111 0.0
C1390 C 0.06088 0.37954 0.54946 0.0
C1391 C 0.06627 0.38649 0.5129 0.0
H1392 H 0.046 0.37952 0.59942 0.0
H1393 H 0.09933 0.44364 0.24281 0.0
H1394 H 0.60453 0.70891 0.55794 0.0
H1395 H 0.5977 0.68112 0.52067 0.0
H1396 H 0.62474 0.71629 0.42423 0.0
H1397 H 0.63194 0.74411 0.46157 0.0
H1398 H 0.58952 0.67863 0.40982 0.0
H1399 H 0.65135 0.70863 0.4717 0.0
H1400 H 0.67106 0.7211 0.52862 0.0
H1401 H 0.64025 0.6671 0.58158 0.0
H1402 H 0.6201 0.65442 0.5252 0.0
H1403 H 0.61058 0.62082 0.29797 0.0
H1404 H 0.61233 0.64727 0.33212 0.0
H1405 H 0.60873 0.61962 0.4376 0.0
H1406 H 0.60911 0.5942 0.404 0.0
H1407 H 0.63033 0.65311 0.44909 0.0
H1408 H 0.56955 0.62136 0.39162 0.0
H1409 H 0.54639 0.60723 0.34017 0.0
H1410 H 0.57022 0.66078 0.28523 0.0
H1411 H 0.59369 0.67518 0.33614 0.0
C1412 C 0.60839 0.71063 0.52845 0.0
C1413 C 0.6187 0.72863 0.51254 0.0
C1414 C 0.60459 0.69477 0.50726 0.0
C1415 C 0.6108 0.6967 0.46977 0.0
C1416 C 0.61977 0.71452 0.45304 0.0
C1417 C 0.62389 0.73037 0.47439 0.0
C1418 C 0.61024 0.68068 0.44954 0.0
C1419 C 0.59848 0.67305 0.4181 0.0
C1420 C 0.62159 0.67317 0.46109 0.0
C1421 C 0.63414 0.68063 0.49438 0.0
C1422 C 0.64872 0.69945 0.49557 0.0
C1423 C 0.65996 0.70656 0.52772 0.0
C1424 C 0.65689 0.69491 0.55872 0.0
C1425 C 0.6426 0.67611 0.55756 0.0
C1426 C 0.63128 0.66896 0.52551 0.0
C1427 C 0.61059 0.62048 0.32844 0.0
C1428 C 0.60939 0.60502 0.34795 0.0
C1429 C 0.61121 0.63554 0.34804 0.0
C1430 C 0.61003 0.6353 0.38761 0.0
C1431 C 0.60945 0.62019 0.40713 0.0
C1432 C 0.60937 0.60542 0.38766 0.0
C1433 C 0.60947 0.65071 0.40883 0.0
C1434 C 0.62115 0.65839 0.44058 0.0
C1435 C 0.59761 0.65789 0.39811 0.0
C1436 C 0.58349 0.64931 0.36751 0.0
C1437 C 0.56993 0.63009 0.36844 0.0
C1438 C 0.55674 0.62204 0.3394 0.0
C1439 C 0.55687 0.63309 0.30941 0.0
C1440 C 0.57016 0.65223 0.30846 0.0
C1441 C 0.5834 0.66035 0.33741 0.0
H1442 H 0.54664 0.62683 0.28694 0.0
H1443 H 0.6656 0.70044 0.5836 0.0
H1444 H 0.29575 0.87529 0.46291 0.0
H1445 H 0.32149 0.90057 0.42735 0.0
H1446 H 0.34202 0.93344 0.52888 0.0
H1447 H 0.31632 0.90826 0.56461 0.0
H1448 H 0.34048 0.95419 0.47152 0.0
H1449 H 0.36489 0.91253 0.48965 0.0
H1450 H 0.36433 0.88236 0.48682 0.0
H1451 H 0.3587 0.88149 0.36647 0.0
H1452 H 0.35898 0.91155 0.36863 0.0
H1453 H 0.42965 0.0253 0.40633 0.0
H1454 H 0.40357 0.99934 0.43947 0.0
H1455 H 0.38663 0.96708 0.33675 0.0
H1456 H 0.41325 0.99275 0.30368 0.0
H1457 H 0.38567 0.94568 0.39305 0.0
H1458 H 0.36172 0.9873 0.37408 0.0
H1459 H 0.36193 0.01732 0.37615 0.0
H1460 H 0.36604 0.01806 0.49678 0.0
H1461 H 0.36611 0.98816 0.4954 0.0
C1462 C 0.30583 0.88781 0.47782 0.0
C1463 C 0.30386 0.8897 0.51672 0.0
C1464 C 0.32059 0.90227 0.4574 0.0
C1465 C 0.33379 0.91894 0.47539 0.0
C1466 C 0.33201 0.92076 0.51429 0.0
C1467 C 0.31729 0.90629 0.53474 0.0
C1468 C 0.34912 0.93469 0.45355 0.0
C1469 C 0.35052 0.95238 0.45477 0.0
C1470 C 0.3619 0.93226 0.43071 0.0
C1471 C 0.36176 0.9142 0.42935 0.0
C1472 C 0.36337 0.90583 0.46261 0.0
C1473 C 0.36314 0.88876 0.46112 0.0
C1474 C 0.36143 0.87998 0.4265 0.0
C1475 C 0.36 0.88829 0.39328 0.0
C1476 C 0.36021 0.90535 0.39461 0.0
C1477 C 0.42045 0.01268 0.39071 0.0
C1478 C 0.42367 0.01119 0.35222 0.0
C1479 C 0.40536 0.99787 0.40968 0.0
C1480 C 0.39292 0.98124 0.39063 0.0
C1481 C 0.39596 0.97975 0.35213 0.0
C1482 C 0.41111 0.99456 0.33312 0.0
C1483 C 0.37712 0.96525 0.41118 0.0
C1484 C 0.37561 0.9475 0.40971 0.0
C1485 C 0.36417 0.96761 0.43366 0.0
C1486 C 0.36409 0.98557 0.4346 0.0
C1487 C 0.36281 0.99394 0.40103 0.0
C1488 C 0.36286 0.01092 0.40208 0.0
C1489 C 0.36405 0.01962 0.43656 0.0
C1490 C 0.36515 0.01132 0.47008 0.0
C1491 C 0.36512 0.99435 0.46919 0.0
H1492 H 0.36408 0.03276 0.43732 0.0
H1493 H 0.36125 0.86677 0.4254 0.0
H1494 H 0.15215 0.38227 0.43324 0.0
H1495 H 0.16018 0.37023 0.37771 0.0
H1496 H 0.19384 0.35518 0.44676 0.0
H1497 H 0.18593 0.36765 0.50275 0.0
H1498 H 0.21011 0.36814 0.37793 0.0
H1499 H 0.14879 0.32238 0.42196 0.0
H1500 H 0.11608 0.31084 0.44256 0.0
H1501 H 0.10276 0.32464 0.33453 0.0
H1502 H 0.13549 0.33654 0.31347 0.0
H1503 H 0.21387 0.30578 0.24873 0.0
H1504 H 0.20587 0.31751 0.30481 0.0
H1505 H 0.17182 0.33255 0.23695 0.0
H1506 H 0.17968 0.32035 0.18047 0.0
H1507 H 0.15575 0.31942 0.30554 0.0
H1508 H 0.2171 0.36533 0.26163 0.0
H1509 H 0.24983 0.37694 0.24107 0.0
H1510 H 0.2631 0.3629 0.34891 0.0
H1511 H 0.23035 0.35093 0.36993 0.0
C1512 C 0.16152 0.37667 0.43647 0.0
C1513 C 0.1683 0.37575 0.47235 0.0
C1514 C 0.166 0.36967 0.40474 0.0
C1515 C 0.17718 0.36127 0.40804 0.0
C1516 C 0.18503 0.36142 0.44348 0.0
C1517 C 0.18062 0.36862 0.47542 0.0
C1518 C 0.17989 0.35172 0.37472 0.0
C1519 C 0.19822 0.3573 0.36248 0.0
C1520 C 0.16439 0.33783 0.35381 0.0
C1521 C 0.14464 0.3305 0.36625 0.0
C1522 C 0.13892 0.32307 0.40268 0.0
C1523 C 0.12037 0.31645 0.41443 0.0
C1524 C 0.10736 0.31705 0.3899 0.0
C1525 C 0.11286 0.32421 0.35352 0.0
C1526 C 0.13141 0.33088 0.34165 0.0
C1527 C 0.20439 0.31128 0.24591 0.0
C1528 C 0.19746 0.31225 0.21024 0.0
C1529 C 0.19994 0.31812 0.27794 0.0
C1530 C 0.18866 0.32644 0.27513 0.0
C1531 C 0.1807 0.32636 0.23987 0.0
C1532 C 0.18506 0.3193 0.20765 0.0
C1533 C 0.18598 0.33585 0.30871 0.0
C1534 C 0.16764 0.33026 0.321 0.0
C1535 C 0.20147 0.34972 0.32967 0.0
C1536 C 0.22123 0.35708 0.31723 0.0
C1537 C 0.22697 0.3646 0.28087 0.0
C1538 C 0.24553 0.37126 0.26915 0.0
C1539 C 0.25853 0.37062 0.29364 0.0
C1540 C 0.25301 0.36337 0.32995 0.0
C1541 C 0.23445 0.35666 0.3418 0.0
H1542 H 0.27289 0.37578 0.28451 0.0
H1543 H 0.09301 0.31192 0.39905 0.0
H1544 H 0.64036 0.78649 0.46223 0.0
H1545 H 0.64812 0.79976 0.39844 0.0
H1546 H 0.68891 0.8534 0.44471 0.0
H1547 H 0.68088 0.84037 0.5082 0.0
H1548 H 0.66963 0.85796 0.38927 0.0
H1549 H 0.70183 0.8228 0.40646 0.0
H1550 H 0.7034 0.79428 0.42036 0.0
H1551 H 0.66688 0.7661 0.32674 0.0
H1552 H 0.6649 0.79439 0.31259 0.0
H1553 H 0.72487 0.90573 0.233 0.0
H1554 H 0.71534 0.88915 0.29349 0.0
H1555 H 0.67788 0.83772 0.23519 0.0
H1556 H 0.68799 0.85443 0.17453 0.0
H1557 H 0.69297 0.8302 0.29449 0.0
H1558 H 0.66228 0.86564 0.27429 0.0
H1559 H 0.65994 0.89371 0.26035 0.0
H1560 H 0.69205 0.92071 0.35961 0.0
H1561 H 0.695 0.89298 0.37367 0.0
C1562 C 0.65073 0.80118 0.45881 0.0
C1563 C 0.66007 0.81233 0.49038 0.0
C1564 C 0.65532 0.80872 0.42228 0.0
C1565 C 0.66935 0.82755 0.41658 0.0
C1566 C 0.67813 0.83883 0.4482 0.0
C1567 C 0.6736 0.83132 0.48456 0.0
C1568 C 0.67529 0.8356 0.37793 0.0
C1569 C 0.6749 0.85198 0.36871 0.0
C1570 C 0.68168 0.82755 0.35052 0.0
C1571 C 0.68306 0.81064 0.35871 0.0
C1572 C 0.69404 0.81048 0.38899 0.0
C1573 C 0.69501 0.79436 0.3969 0.0
C1574 C 0.6852 0.77837 0.37451 0.0
C1575 C 0.67445 0.77849 0.34409 0.0
C1576 C 0.6734 0.79456 0.3361 0.0
C1577 C 0.71504 0.89077 0.23325 0.0
C1578 C 0.70732 0.88123 0.19935 0.0
C1579 C 0.7094 0.88133 0.26775 0.0
C1580 C 0.69554 0.86221 0.26913 0.0
C1581 C 0.68854 0.85245 0.235 0.0
C1582 C 0.69435 0.86192 0.20037 0.0
C1583 C 0.68768 0.85281 0.30612 0.0
C1584 C 0.68764 0.83616 0.31497 0.0
C1585 C 0.68078 0.86055 0.33319 0.0
C1586 C 0.679 0.87727 0.32486 0.0
C1587 C 0.66898 0.87762 0.29299 0.0
C1588 C 0.66755 0.89348 0.28506 0.0
C1589 C 0.67586 0.90899 0.30906 0.0
C1590 C 0.68561 0.90868 0.34106 0.0
C1591 C 0.6872 0.89291 0.34898 0.0
H1592 H 0.67475 0.92126 0.30287 0.0
H1593 H 0.68596 0.7659 0.38069 0.0
H1594 H 0.12749 0.82961 0.2189 0.0
H1595 H 0.14102 0.8346 0.28203 0.0
H1596 H 0.18294 0.82195 0.24158 0.0
H1597 H 0.1699 0.81744 0.17818 0.0
H1598 H 0.16611 0.80389 0.31069 0.0
H1599 H 0.19438 0.86555 0.25448 0.0
H1600 H 0.19246 0.8909 0.22198 0.0
H1601 H 0.1625 0.89621 0.316 0.0
H1602 H 0.16368 0.87037 0.34856 0.0
H1603 H 0.23071 0.83874 0.46532 0.0
H1604 H 0.214 0.82959 0.40481 0.0
H1605 H 0.18175 0.85563 0.43759 0.0
H1606 H 0.19918 0.86551 0.49699 0.0
H1607 H 0.19284 0.86618 0.37188 0.0
H1608 H 0.16225 0.80557 0.428 0.0
H1609 H 0.15964 0.77817 0.46123 0.0
H1610 H 0.18974 0.76947 0.37195 0.0
H1611 H 0.19262 0.79698 0.33815 0.0
C1612 C 0.13973 0.82811 0.2231 0.0
C1613 C 0.14757 0.82316 0.193 0.0
C1614 C 0.14736 0.83082 0.25943 0.0
C1615 C 0.16299 0.82863 0.26659 0.0
C1616 C 0.17078 0.82357 0.23682 0.0
C1617 C 0.16326 0.82099 0.20046 0.0
C1618 C 0.17164 0.8322 0.30481 0.0
C1619 C 0.17215 0.81755 0.32399 0.0
C1620 C 0.17899 0.84985 0.32265 0.0
C1621 C 0.17896 0.8659 0.30378 0.0
C1622 C 0.18729 0.87205 0.26814 0.0
C1623 C 0.18632 0.88651 0.24969 0.0
C1624 C 0.17737 0.8952 0.26691 0.0
C1625 C 0.16941 0.88946 0.30267 0.0
C1626 C 0.17019 0.87487 0.32111 0.0
C1627 C 0.21973 0.84207 0.45978 0.0
C1628 C 0.21613 0.85273 0.48577 0.0
C1629 C 0.21015 0.83686 0.42519 0.0
C1630 C 0.19644 0.84181 0.41635 0.0
C1631 C 0.19231 0.85173 0.4433 0.0
C1632 C 0.20215 0.85725 0.47739 0.0
C1633 C 0.18727 0.8378 0.37836 0.0
C1634 C 0.18675 0.85243 0.35896 0.0
C1635 C 0.17951 0.82 0.36073 0.0
C1636 C 0.17782 0.80345 0.38077 0.0
C1637 C 0.16843 0.7979 0.41558 0.0
C1638 C 0.16689 0.78233 0.4345 0.0
C1639 C 0.1746 0.77211 0.41886 0.0
C1640 C 0.1838 0.77742 0.38409 0.0
C1641 C 0.18536 0.79298 0.36498 0.0
H1642 H 0.1734 0.76006 0.43362 0.0
H1643 H 0.17657 0.90638 0.25257 0.0
H1644 H 0.81134 0.66082 0.82882 0.0
H1645 H 0.81867 0.65297 0.76734 0.0
H1646 H 0.85533 0.71169 0.74358 0.0
H1647 H 0.8483 0.71973 0.80543 0.0
H1648 H 0.83348 0.69362 0.68322 0.0
H1649 H 0.87353 0.68389 0.76693 0.0
H1650 H 0.88121 0.67108 0.82258 0.0
H1651 H 0.8446 0.61504 0.78272 0.0
H1652 H 0.83651 0.62752 0.72704 0.0
H1653 H 0.8793 0.68292 0.52419 0.0
H1654 H 0.87258 0.69062 0.58643 0.0
H1655 H 0.83678 0.63178 0.61057 0.0
H1656 H 0.84342 0.62392 0.54799 0.0
H1657 H 0.85814 0.64984 0.67087 0.0
H1658 H 0.81816 0.65975 0.58694 0.0
H1659 H 0.81061 0.67273 0.53138 0.0
H1660 H 0.84721 0.72865 0.57183 0.0
H1661 H 0.85519 0.716 0.6274 0.0
C1662 C 0.82113 0.67214 0.81088 0.0
C1663 C 0.8293 0.69097 0.82265 0.0
C1664 C 0.82529 0.66758 0.7755 0.0
C1665 C 0.83776 0.68169 0.75083 0.0
C1666 C 0.84568 0.70052 0.76205 0.0
C1667 C 0.84157 0.7051 0.79754 0.0
C1668 C 0.84243 0.67677 0.71333 0.0
C1669 C 0.83913 0.68426 0.68059 0.0
C1670 C 0.84939 0.66419 0.70963 0.0
C1671 C 0.85427 0.65664 0.743 0.0
C1672 C 0.867 0.66883 0.77018 0.0
C1673 C 0.87145 0.66163 0.8017 0.0
C1674 C 0.86336 0.64226 0.80623 0.0
C1675 C 0.85084 0.63004 0.77919 0.0
C1676 C 0.84633 0.63717 0.74763 0.0
C1677 C 0.86987 0.67156 0.54249 0.0
C1678 C 0.86175 0.65276 0.53062 0.0
C1679 C 0.86605 0.67601 0.57825 0.0
C1680 C 0.85388 0.66183 0.60316 0.0
C1681 C 0.84616 0.64302 0.59191 0.0
C1682 C 0.85002 0.63853 0.55606 0.0
C1683 C 0.8492 0.6667 0.64072 0.0
C1684 C 0.85249 0.6592 0.67348 0.0
C1685 C 0.84224 0.67929 0.64446 0.0
C1686 C 0.83741 0.68693 0.61115 0.0
C1687 C 0.82471 0.67482 0.58385 0.0
C1688 C 0.82033 0.68211 0.55238 0.0
C1689 C 0.82846 0.7015 0.54803 0.0
C1690 C 0.84094 0.71363 0.57521 0.0
C1691 C 0.84539 0.70641 0.60671 0.0
H1692 H 0.82505 0.70712 0.52365 0.0
H1693 H 0.86682 0.63671 0.83066 0.0
H1694 H 0.34946 0.16876 0.84254 0.0
H1695 H 0.35671 0.18161 0.77908 0.0
H1696 H 0.30949 0.13087 0.73584 0.0
H1697 H 0.30259 0.11753 0.79948 0.0
H1698 H 0.33902 0.14152 0.69124 0.0
H1699 H 0.30828 0.17223 0.74375 0.0
H1700 H 0.30174 0.19034 0.79053 0.0
H1701 H 0.35754 0.23729 0.77561 0.0
H1702 H 0.36452 0.21936 0.72912 0.0
H1703 H 0.34238 0.18337 0.51133 0.0
H1704 H 0.3328 0.16818 0.5731 0.0
H1705 H 0.38212 0.21437 0.6233 0.0
H1706 H 0.39167 0.22967 0.56169 0.0
H1707 H 0.34957 0.20504 0.66295 0.0
H1708 H 0.37993 0.17302 0.61079 0.0
H1709 H 0.38538 0.15446 0.56321 0.0
H1710 H 0.32841 0.1094 0.57629 0.0
H1711 H 0.32253 0.12781 0.62359 0.0
C1712 C 0.34061 0.16023 0.81965 0.0
C1713 C 0.32543 0.14203 0.82638 0.0
C1714 C 0.34468 0.16772 0.78324 0.0
C1715 C 0.33354 0.15736 0.75249 0.0
C1716 C 0.31828 0.13921 0.75903 0.0
C1717 C 0.31423 0.13165 0.79557 0.0
C1718 C 0.3382 0.16541 0.71361 0.0
C1719 C 0.341 0.15528 0.68495 0.0
C1720 C 0.34112 0.18351 0.70528 0.0
C1721 C 0.33697 0.19438 0.73318 0.0
C1722 C 0.31921 0.18636 0.75065 0.0
C1723 C 0.31542 0.19661 0.77709 0.0
C1724 C 0.32923 0.21494 0.7861 0.0
C1725 C 0.34686 0.22308 0.76863 0.0
C1726 C 0.35073 0.21289 0.7422 0.0
C1727 C 0.35123 0.19025 0.5355 0.0
C1728 C 0.36782 0.20773 0.53148 0.0
C1729 C 0.34578 0.1815 0.57079 0.0
C1730 C 0.35676 0.19008 0.60293 0.0
C1731 C 0.37342 0.20745 0.59895 0.0
C1732 C 0.37897 0.21611 0.56361 0.0
C1733 C 0.35061 0.18126 0.64086 0.0
C1734 C 0.3475 0.19125 0.66928 0.0
C1735 C 0.34722 0.16298 0.64881 0.0
C1736 C 0.35073 0.15188 0.62043 0.0
C1737 C 0.36851 0.15922 0.60328 0.0
C1738 C 0.37169 0.14872 0.57641 0.0
C1739 C 0.35723 0.13078 0.56665 0.0
C1740 C 0.33958 0.1233 0.58383 0.0
C1741 C 0.33633 0.13376 0.61069 0.0
H1742 H 0.35972 0.12267 0.54585 0.0
H1743 H 0.32626 0.22285 0.80657 0.0
H1744 H 0.83309 0.17457 0.50152 0.0
H1745 H 0.85378 0.18463 0.55748 0.0
H1746 H 0.8048 0.16121 0.62942 0.0
H1747 H 0.78441 0.15124 0.57391 0.0
H1748 H 0.8326 0.1945 0.65684 0.0
H1749 H 0.82669 0.13666 0.6081 0.0
H1750 H 0.83007 0.11722 0.55936 0.0
H1751 H 0.8897 0.15562 0.55487 0.0
H1752 H 0.88662 0.17542 0.60327 0.0
H1753 H 0.85515 0.17284 0.83164 0.0
H1754 H 0.84255 0.17072 0.7685 0.0
H1755 H 0.89828 0.19307 0.72176 0.0
H1756 H 0.91101 0.1951 0.78549 0.0
H1757 H 0.87231 0.16553 0.6771 0.0
H1758 H 0.87901 0.22118 0.73188 0.0
H1759 H 0.87585 0.24071 0.78068 0.0
H1760 H 0.81556 0.20757 0.77312 0.0
H1761 H 0.81835 0.18766 0.72466 0.0
C1762 C 0.82689 0.17207 0.52935 0.0
C1763 C 0.8072 0.16221 0.53353 0.0
C1764 C 0.83866 0.17762 0.56128 0.0
C1765 C 0.83087 0.17349 0.59782 0.0
C1766 C 0.81121 0.16457 0.60171 0.0
C1767 C 0.79955 0.15888 0.57001 0.0
C1768 C 0.84277 0.17739 0.63226 0.0
C1769 C 0.84125 0.18814 0.66126 0.0
C1770 C 0.85454 0.16956 0.63783 0.0
C1771 C 0.85639 0.15763 0.60892 0.0
C1772 C 0.84049 0.14103 0.59649 0.0
C1773 C 0.84236 0.12994 0.56897 0.0
C1774 C 0.86008 0.13521 0.55394 0.0
C1775 C 0.87598 0.15157 0.56648 0.0
C1776 C 0.87418 0.16273 0.59396 0.0
C1777 C 0.86476 0.17729 0.80798 0.0
C1778 C 0.88414 0.18434 0.81374 0.0
C1779 C 0.85753 0.17611 0.77179 0.0
C1780 C 0.86949 0.18217 0.74024 0.0
C1781 C 0.88876 0.18843 0.7456 0.0
C1782 C 0.89602 0.18951 0.78202 0.0
C1783 C 0.86169 0.18221 0.70212 0.0
C1784 C 0.86396 0.17221 0.67248 0.0
C1785 C 0.85067 0.19082 0.69583 0.0
C1786 C 0.8489 0.20285 0.72478 0.0
C1787 C 0.86507 0.21798 0.74079 0.0
C1788 C 0.86335 0.22913 0.76837 0.0
C1789 C 0.84552 0.22537 0.78004 0.0
C1790 C 0.82937 0.21047 0.76407 0.0
C1791 C 0.83101 0.19926 0.7365 0.0
H1792 H 0.84421 0.23401 0.80141 0.0
H1793 H 0.8615 0.12661 0.53264 0.0
H1794 H 0.4983 1.00323 0.17511 0.0
H1795 H 0.50431 0.99484 0.11338 0.0
H1796 H 0.51296 0.04718 0.06839 0.0
H1797 H 0.50591 0.05536 0.12991 0.0
H1798 H 0.49327 0.02067 0.02049 0.0
H1799 H 0.55032 0.03853 0.08739 0.0
H1800 H 0.57018 0.03845 0.13945 0.0
H1801 H 0.55043 0.98004 0.12024 0.0
H1802 H 0.53025 0.97971 0.06837 0.0
H1803 H 0.53752 0.01732 0.85117 0.0
H1804 H 0.53201 0.02578 0.91351 0.0
H1805 H 0.5141 0.96992 0.9533 0.0
H1806 H 0.51907 0.96102 0.89048 0.0
H1807 H 0.53879 0.9983 1.00328 0.0
H1808 H 0.48171 0.98136 0.93531 0.0
H1809 H 0.46303 0.98268 0.88221 0.0
H1810 H 0.48465 0.04133 0.90268 0.0
H1811 H 0.50368 0.04042 0.9556 0.0
C1812 C 0.5013 0.01302 0.15233 0.0
C1813 C 0.50155 0.03009 0.15817 0.0
C1814 C 0.50501 1.00823 0.11682 0.0
C1815 C 0.50946 0.02048 0.08609 0.0
C1816 C 0.50966 0.03748 0.09159 0.0
C1817 C 0.50576 0.04223 0.1271 0.0
C1818 C 0.51348 0.01532 0.04818 0.0
C1819 C 0.50345 0.01607 0.01677 0.0
C1820 C 0.52649 1.0089 0.04308 0.0
C1821 C 0.53863 0.00906 0.07422 0.0
C1822 C 0.5501 0.02563 0.09445 0.0
C1823 C 0.56144 0.02567 0.1239 0.0
C1824 C 0.56153 0.00924 0.13321 0.0
C1825 C 0.55033 0.99275 0.11303 0.0
C1826 C 0.53895 0.99263 0.08358 0.0
C1827 C 0.5322 1.00665 0.87278 0.0
C1828 C 0.52854 0.98832 0.8651 0.0
C1829 C 0.52914 0.01161 0.90868 0.0
C1830 C 0.52243 0.99846 0.93806 0.0
C1831 C 0.51926 0.98032 0.93104 0.0
C1832 C 0.52217 0.97526 0.89496 0.0
C1833 C 0.51858 1.00368 0.9759 0.0
C1834 C 0.52864 1.00293 0.00719 0.0
C1835 C 0.50578 0.0103 0.98084 0.0
C1836 C 0.49425 0.01085 0.94919 0.0
C1837 C 0.48259 0.99457 0.92831 0.0
C1838 C 0.47192 0.99524 0.89827 0.0
C1839 C 0.47269 0.01209 0.88902 0.0
C1840 C 0.48409 0.0283 0.90985 0.0
C1841 C 0.4948 0.02771 0.93989 0.0
H1842 H 0.46441 0.01258 0.86576 0.0
H1843 H 0.57032 0.0093 0.15602 0.0
H1844 H 0.04764 0.57244 0.90075 0.0
H1845 H 0.03811 0.55299 0.95744 0.0
H1846 H 0.02717 0.50484 0.8907 0.0
H1847 H 0.03699 0.52459 0.83343 0.0
H1848 H 0.9971 0.49857 0.94138 0.0
H1849 H 0.06334 0.52162 0.94655 0.0
H1850 H 0.09703 0.54567 0.94403 0.0
H1851 H 0.08991 0.57393 0.03874 0.0
H1852 H 0.05611 0.55019 0.0415 0.0
H1853 H 0.97732 0.44593 0.11475 0.0
H1854 H 0.98811 0.45946 0.05175 0.0
H1855 H 1.01476 0.51507 0.09971 0.0
H1856 H 1.00458 0.50152 0.16243 0.0
H1857 H 0.03801 0.51389 0.05399 0.0
H1858 H 0.97185 0.49409 0.04453 0.0
H1859 H 0.93774 0.47138 0.04681 0.0
H1860 H 0.94413 0.43836 0.96078 0.0
H1861 H 0.97833 0.46078 0.9583 0.0
C1862 C 0.04346 0.55776 0.89825 0.0
C1863 C 0.04309 0.55 0.86276 0.0
C1864 C 0.03802 0.54665 0.93065 0.0
C1865 C 0.03192 0.52743 0.92845 0.0
C1866 C 0.03183 0.51963 0.89309 0.0
C1867 C 0.03758 0.5309 0.86051 0.0
C1868 C 0.02514 0.51569 0.96323 0.0
C1869 C 1.00612 0.50161 0.96581 0.0
C1870 C 0.03677 0.51995 0.99541 0.0
C1871 C 0.05715 0.53417 0.99408 0.0
C1872 C 0.06893 0.53303 0.96669 0.0
C1873 C 0.08805 0.5466 0.96524 0.0
C1874 C 0.0956 0.56134 0.99117 0.0
C1875 C 0.08404 0.56251 0.01867 0.0
C1876 C 0.06491 0.54898 0.02022 0.0
C1877 C 0.98523 0.46104 0.1116 0.0
C1878 C 0.99011 0.47268 0.1435 0.0
C1879 C 0.99142 0.4688 0.07557 0.0
C1880 C 1.00226 0.48839 0.07061 0.0
C1881 C 1.0066 0.49995 0.10251 0.0
C1882 C 1.00071 0.4922 0.13842 0.0
C1883 C 1.00973 0.49704 0.03276 0.0
C1884 C 0.02895 0.51059 0.02955 0.0
C1885 C 0.99821 0.49242 1.00018 0.0
C1886 C 0.97766 0.47899 1.00154 0.0
C1887 C 0.96599 0.48191 0.0263 0.0
C1888 C 0.94665 0.46911 0.02759 0.0
C1889 C 0.93878 0.4534 1.00404 0.0
C1890 C 0.95024 0.45051 0.97905 0.0
C1891 C 0.9696 0.46327 0.97767 0.0
H1892 H 0.9238 0.44351 1.00509 0.0
H1893 H 0.11041 0.57183 0.99 0.0
H1894 H 0.49168 0.4828 0.85226 0.0
H1895 H 0.50997 0.49271 0.91045 0.0
H1896 H 0.49204 0.53306 0.92958 0.0
H1897 H 0.47363 0.52312 0.87071 0.0
H1898 H 0.52967 0.54654 0.9516 0.0
H1899 H 0.46936 0.49169 0.97293 0.0
H1900 H 0.44347 0.45956 0.96038 0.0
H1901 H 0.48084 0.43808 0.97977 0.0
H1902 H 0.50704 0.47014 0.99187 0.0
H1903 H 0.54659 0.55486 0.14973 0.0
H1904 H 0.53313 0.55001 0.08662 0.0
H1905 H 0.54689 0.50664 0.06673 0.0
H1906 H 0.56002 0.51114 0.13042 0.0
H1907 H 0.51149 0.49538 0.04483 0.0
H1908 H 0.57174 0.54972 0.02392 0.0
H1909 H 0.59797 0.58169 0.03634 0.0
H1910 H 0.56133 0.604 0.01664 0.0
H1911 H 0.53481 0.57211 1.00444 0.0
C1912 C 0.49181 0.49395 0.86859 0.0
C1913 C 0.48101 0.502 0.85708 0.0
C1914 C 0.50226 0.4996 0.90192 0.0
C1915 C 0.5021 0.51336 0.92497 0.0
C1916 C 0.49233 0.52235 0.91242 0.0
C1917 C 0.48186 0.51672 0.87872 0.0
C1918 C 0.51106 0.51723 0.96311 0.0
C1919 C 0.52551 0.53542 0.97219 0.0
C1920 C 0.50599 0.50266 0.98983 0.0
C1921 C 0.4902 0.48334 0.98298 0.0
C1922 C 0.47209 0.48013 0.97427 0.0
C1923 C 0.45735 0.46193 0.96726 0.0
C1924 C 0.46052 0.4468 0.96919 0.0
C1925 C 0.47841 0.44983 0.97824 0.0
C1926 C 0.49321 0.46801 0.9852 0.0
C1927 C 0.54674 0.54424 0.13206 0.0
C1928 C 0.55434 0.53333 0.14545 0.0
C1929 C 0.53919 0.54161 0.0957 0.0
C1930 C 0.53908 0.52805 0.07158 0.0
C1931 C 0.54681 0.51723 0.08468 0.0
C1932 C 0.55446 0.51991 0.12108 0.0
C1933 C 0.53023 0.52467 0.03337 0.0
C1934 C 0.5157 0.50654 0.0243 0.0
C1935 C 0.53529 0.53928 0.00674 0.0
C1936 C 0.55124 0.5585 0.01362 0.0
C1937 C 0.56924 0.56143 0.02249 0.0
C1938 C 0.58416 0.57953 0.02946 0.0
C1939 C 0.5813 0.59486 0.02744 0.0
C1940 C 0.56352 0.59211 0.01826 0.0
C1941 C 0.54854 0.57402 0.01124 0.0
H1942 H 0.59287 0.60886 0.03291 0.0
H1943 H 0.44909 0.43272 0.96376 0.0
H1944 H 0.23048 0.24405 0.95287 0.0
H1945 H 0.23694 0.21903 0.93886 0.0
H1946 H 0.19323 0.18247 0.01604 0.0
H1947 H 0.18693 0.20798 0.03097 0.0
H1948 H 0.22183 0.1777 0.02539 0.0
H1949 H 0.18843 0.17709 0.91615 0.0
H1950 H 0.17984 0.18982 0.86165 0.0
H1951 H 0.23464 0.20957 0.81351 0.0
H1952 H 0.24367 0.19721 0.86798 0.0
H1953 H 0.23786 0.10394 0.96139 0.0
H1954 H 0.22051 0.12107 0.96766 0.0
H1955 H 0.26757 0.17017 0.91899 0.0
H1956 H 0.28497 0.15329 0.91367 0.0
H1957 H 0.23142 0.16369 0.894 0.0
H1958 H 0.26488 0.16704 0.00977 0.0
H1959 H 0.27214 0.15299 0.06393 0.0
H1960 H 0.21419 0.1257 0.09859 0.0
H1961 H 0.20655 0.1394 0.04425 0.0
C1962 C 0.22189 0.23062 0.96642 0.0
C1963 C 0.20789 0.22803 0.99263 0.0
C1964 C 0.22564 0.2162 0.95831 0.0
C1965 C 0.21531 0.19853 0.97555 0.0
C1966 C 0.20136 0.19587 1.00201 0.0
C1967 C 0.19773 0.21046 0.01053 0.0
C1968 C 0.21978 0.18334 0.9668 0.0
C1969 C 0.22347 0.17437 0.99658 0.0
C1970 C 0.22212 0.17888 0.92926 0.0
C1971 C 0.21676 0.18632 0.89632 0.0
C1972 C 0.1987 0.18426 0.89407 0.0
C1973 C 0.19374 0.19139 0.86316 0.0
C1974 C 0.20669 0.20052 0.83417 0.0
C1975 C 0.22462 0.2025 0.836 0.0
C1976 C 0.22966 0.19541 0.86686 0.0
C1977 C 0.24417 0.11817 0.95086 0.0
C1978 C 0.26262 0.12722 0.93645 0.0
C1979 C 0.23436 0.12802 0.95481 0.0
C1980 C 0.24277 0.14699 0.94399 0.0
C1981 C 0.26073 0.15558 0.92742 0.0
C1982 C 0.27064 0.14589 0.92422 0.0
C1983 C 0.23377 0.15849 0.95251 0.0
C1984 C 0.22934 0.1668 0.9227 0.0
C1985 C 0.23047 0.16211 0.98993 0.0
C1986 C 0.2351 0.15404 0.02273 0.0
C1987 C 0.25366 0.15792 0.02877 0.0
C1988 C 0.25785 0.15004 0.05952 0.0
C1989 C 0.24362 0.13841 0.08462 0.0
C1990 C 0.22519 0.13468 0.07908 0.0
C1991 C 0.22092 0.1425 0.04832 0.0
H1992 H 0.24689 0.13232 0.10841 0.0
H1993 H 0.20283 0.20604 0.81026 0.0
H1994 H 0.87422 0.13505 0.97272 0.0
H1995 H 0.85659 0.10123 0.97785 0.0
H1996 H 0.89742 0.09722 0.90813 0.0
H1997 H 0.91567 0.13184 0.90286 0.0
H1998 H 0.8568 0.06939 0.89259 0.0
H1999 H 0.9006 0.09078 0.99478 0.0
H2000 H 0.91807 0.11126 0.04823 0.0
H2001 H 0.86608 0.09376 0.10693 0.0
H2002 H 0.84827 0.07339 0.05356 0.0
H2003 H 0.80871 0.97229 0.95022 0.0
H2004 H 0.83313 1.00434 0.93428 0.0
H2005 H 0.81066 0.02595 0.01751 0.0
H2006 H 0.78642 0.99406 0.0337 0.0
H2007 H 0.84721 0.04411 0.02264 0.0
H2008 H 0.80341 0.0266 0.91882 0.0
H2009 H 0.78492 1.00714 0.86501 0.0
H2010 H 0.83585 0.01778 0.80945 0.0
H2011 H 0.85463 0.03713 0.86319 0.0
C2012 C 0.87962 0.12717 0.95821 0.0
C2013 C 0.8966 0.13635 0.93767 0.0
C2014 C 0.8694 0.10769 0.96123 0.0
C2015 C 0.87574 0.09662 0.94388 0.0
C2016 C 0.89228 0.10551 0.92193 0.0
C2017 C 0.9027 0.12527 0.91894 0.0
C2018 C 0.86508 0.07592 0.9506 0.0
C2019 C 0.85506 0.06374 0.92085 0.0
C2020 C 0.86242 0.06858 0.98761 0.0
C2021 C 0.87309 0.08062 0.02005 0.0
C2022 C 0.89288 0.09138 0.01898 0.0
C2023 C 0.90285 0.10296 0.04928 0.0
C2024 C 0.89319 0.10383 0.08093 0.0
C2025 C 0.87355 0.09307 0.08239 0.0
C2026 C 0.86351 0.08148 0.05214 0.0
C2027 C 0.80889 0.98386 0.96498 0.0
C2028 C 0.79553 0.98047 0.99334 0.0
C2029 C 0.8229 1.00225 0.95579 0.0
C2030 C 0.82375 0.01774 0.97437 0.0
C2031 C 0.81046 0.01434 1.00278 0.0
C2032 C 0.79657 0.99601 0.01214 0.0
C2033 C 0.83845 0.0375 0.96479 0.0
C2034 C 0.8492 0.04957 0.99417 0.0
C2035 C 0.84166 0.0447 0.92749 0.0
C2036 C 0.8304 0.03311 0.8952 0.0
C2037 C 0.81065 0.02467 0.89526 0.0
C2038 C 0.80012 0.01368 0.86475 0.0
C2039 C 0.8092 0.01118 0.83389 0.0
C2040 C 0.82883 0.0197 0.83341 0.0
C2041 C 0.83943 0.03068 0.86387 0.0
H2042 H 0.80102 1.00267 0.81029 0.0
H2043 H 0.90093 0.11281 0.10436 0.0
H2044 H 0.04129 0.83682 0.99658 0.0
H2045 H 1.00851 0.8252 0.97873 0.0
H2046 H 0.99404 0.76965 0.01521 0.0
H2047 H 0.02705 0.78124 0.03286 0.0
H2048 H 0.9791 0.76965 0.94504 0.0
H2049 H 0.98167 0.7955 0.06765 0.0
H2050 H 0.99413 0.81996 0.11672 0.0
H2051 H 0.98289 0.85563 0.04635 0.0
H2052 H 0.97061 0.83146 0.9966 0.0
H2053 H 0.88076 0.72455 0.96044 0.0
H2054 H 0.91465 0.73927 0.96822 0.0
H2055 H 0.92122 0.79239 0.9334 0.0
H2056 H 0.88674 0.77752 0.9259 0.0
H2057 H 0.94106 0.79582 0.99758 0.0
H2058 H 0.93622 0.76908 0.87666 0.0
H2059 H 0.92331 0.74445 0.82795 0.0
H2060 H 0.93875 0.71064 0.89419 0.0
H2061 H 0.9515 0.73494 0.9436 0.0
C2062 C 0.03116 0.82212 1.0008 0.0
C2063 C 0.03684 0.80995 0.01603 0.0
C2064 C 1.01237 0.81552 0.99079 0.0
C2065 C 0.99874 0.79655 0.99569 0.0
C2066 C 1.0043 0.78435 0.01114 0.0
C2067 C 0.02313 0.791 0.02151 0.0
C2068 C 0.97879 0.78947 0.98405 0.0
C2069 C 0.97071 0.77522 0.95684 0.0
C2070 C 0.96803 0.7972 0.99837 0.0
C2071 C 0.97542 0.81175 0.02823 0.0
C2072 C 0.98202 0.80863 0.06249 0.0
C2073 C 0.98902 0.82242 0.09046 0.0
C2074 C 0.98936 0.83936 0.08461 0.0
C2075 C 0.98265 0.84251 0.05081 0.0
C2076 C 0.97566 0.82877 0.02273 0.0
C2077 C 0.88937 0.73934 0.95387 0.0
C2078 C 0.88102 0.74987 0.94253 0.0
C2079 C 0.90883 0.74774 0.95819 0.0
C2080 C 0.92061 0.76694 0.95115 0.0
C2081 C 0.91243 0.77752 0.9389 0.0
C2082 C 0.89277 0.76901 0.9343 0.0
C2083 C 0.94124 0.7758 0.95889 0.0
C2084 C 0.94949 0.79038 0.98541 0.0
C2085 C 0.95219 0.76841 0.94383 0.0
C2086 C 0.94471 0.7538 0.91399 0.0
C2087 C 0.93675 0.75634 0.88098 0.0
C2088 C 0.92948 0.74244 0.85321 0.0
C2089 C 0.93018 0.72597 0.858 0.0
C2090 C 0.93821 0.7234 0.89052 0.0
C2091 C 0.94549 0.73725 0.9184 0.0
H2092 H 0.92452 0.71522 0.83649 0.0
H2093 H 0.99477 0.85002 0.10631 0.0
H2094 H 0.78859 0.90814 0.0897 0.0
H2095 H 0.80306 0.88832 0.08204 0.0
H2096 H 0.7498 0.84272 0.04352 0.0
H2097 H 0.73544 0.86196 0.05191 0.0
H2098 H 0.76515 0.82889 0.08604 0.0
H2099 H 0.78669 0.8729 0.98238 0.0
H2100 H 0.80271 0.90439 0.95359 0.0
H2101 H 0.85468 0.91638 1.00643 0.0
H2102 H 0.83888 0.88502 0.03596 0.0
H2103 H 0.78957 0.77076 0.9811 0.0
H2104 H 0.77923 0.79318 0.99694 0.0
H2105 H 0.83407 0.83098 0.04319 0.0
H2106 H 0.84455 0.80886 0.02695 0.0
H2107 H 0.82045 0.84995 1.00198 0.0
H2108 H 0.79855 0.80425 0.10143 0.0
H2109 H 0.78198 0.77233 0.12817 0.0
H2110 H 0.72984 0.76314 0.08081 0.0
H2111 H 0.74617 0.79493 0.05332 0.0
C2112 C 0.77997 0.89379 0.08028 0.0
C2113 C 0.76089 0.88673 0.0712 0.0
C2114 C 0.78827 0.8825 0.07552 0.0
C2115 C 0.77762 0.864 0.06159 0.0
C2116 C 0.75842 0.85685 0.05421 0.0
C2117 C 0.75022 0.868 0.05891 0.0
C2118 C 0.78612 0.85196 0.05328 0.0
C2119 C 0.77718 0.83353 0.06746 0.0
C2120 C 0.80204 0.85793 0.02956 0.0
C2121 C 0.81156 0.87672 0.01173 0.0
C2122 C 0.8015 0.88231 0.98808 0.0
C2123 C 0.81054 0.90012 0.9716 0.0
C2124 C 0.82969 0.9124 0.97828 0.0
C2125 C 0.83984 0.90687 1.00136 0.0
C2126 C 0.83085 0.88908 0.01797 0.0
C2127 C 0.79949 0.78392 0.99427 0.0
C2128 C 0.81784 0.78783 1.00314 0.0
C2129 C 0.79353 0.7967 1.00356 0.0
C2130 C 0.80578 0.81372 0.0218 0.0
C2131 C 0.8243 0.81795 0.02937 0.0
C2132 C 0.83022 0.80515 0.02034 0.0
C2133 C 0.79918 0.82684 0.03409 0.0
C2134 C 0.8085 0.84541 0.02076 0.0
C2135 C 0.78349 0.82098 0.05832 0.0
C2136 C 0.77362 0.80191 0.07505 0.0
C2137 C 0.78358 0.79538 0.0965 0.0
C2138 C 0.77422 0.77731 0.11182 0.0
C2139 C 0.75488 0.7657 0.10612 0.0
C2140 C 0.74483 0.77214 0.08516 0.0
C2141 C 0.75412 0.79019 0.06974 0.0
H2142 H 0.74766 0.75172 0.118 0.0
H2143 H 0.83667 0.92618 0.96549 0.0
H2144 H 0.23882 0.02085 0.95977 0.0
H2145 H 0.21686 0.98802 0.97487 0.0
H2146 H 0.20688 1.00425 0.08407 0.0
H2147 H 0.22944 0.03684 0.07013 0.0
H2148 H 0.20923 0.97456 0.09236 0.0
H2149 H 0.17442 0.99113 0.00839 0.0
H2150 H 0.16832 1.00358 0.9502 0.0
H2151 H 0.17211 0.96168 0.88509 0.0
H2152 H 0.17847 0.94913 0.94286 0.0
H2153 H 0.12826 0.88059 0.12267 0.0
H2154 H 0.1476 0.91505 0.11593 0.0
H2155 H 0.16889 0.90795 0.0099 0.0
H2156 H 0.15009 0.87423 0.01633 0.0
H2157 H 0.15804 0.93385 1.00419 0.0
H2158 H 0.19528 0.91919 0.08884 0.0
H2159 H 0.204 0.90897 0.14698 0.0
H2160 H 0.19555 0.94819 0.21154 0.0
H2161 H 0.18653 0.95848 0.15386 0.0
C2162 C 0.23214 0.01751 0.98715 0.0
C2163 C 0.23595 0.03178 0.01346 0.0
C2164 C 0.21934 0.99865 0.99562 0.0
C2165 C 0.20981 0.99355 0.03041 0.0
C2166 C 0.21386 1.00771 0.05693 0.0
C2167 C 0.22674 0.0265 0.04865 0.0
C2168 C 0.19585 0.97351 0.0395 0.0
C2169 C 0.19782 0.96578 0.07334 0.0
C2170 C 0.18099 0.96185 0.01471 0.0
C2171 C 0.17707 0.96929 0.97993 0.0
C2172 C 0.17407 0.98465 0.98163 0.0
C2173 C 0.17055 0.99171 0.94873 0.0
C2174 C 0.16987 0.98345 0.91396 0.0
C2175 C 0.17266 0.96808 0.91204 0.0
C2176 C 0.1762 0.96097 0.94486 0.0
C2177 C 0.13706 0.88645 0.09799 0.0
C2178 C 0.13761 0.87456 0.07017 0.0
C2179 C 0.14817 0.90612 0.0942 0.0
C2180 C 0.15977 0.91415 0.06234 0.0
C2181 C 0.16008 0.90221 0.03464 0.0
C2182 C 0.14929 0.8828 0.03856 0.0
C2183 C 0.17164 0.93487 0.05675 0.0
C2184 C 0.16926 0.94274 0.02348 0.0
C2185 C 0.18602 0.94667 0.0822 0.0
C2186 C 0.19 0.93943 0.11712 0.0
C2187 C 0.19494 0.92539 0.11552 0.0
C2188 C 0.20004 0.91966 0.14836 0.0
C2189 C 0.20038 0.92798 0.18287 0.0
C2190 C 0.19531 0.94179 0.18476 0.0
C2191 C 0.19018 0.94756 0.15204 0.0
H2192 H 0.20476 0.92387 0.20812 0.0
H2193 H 0.16715 0.98894 0.88852 0.0
H2194 H 0.15177 0.24978 0.01009 0.0
H2195 H 0.11805 0.23636 0.99906 0.0
H2196 H 0.10963 0.24175 0.11726 0.0
H2197 H 0.1437 0.255 0.12849 0.0
H2198 H 0.07956 0.20955 0.08604 0.0
H2199 H 0.1142 0.27514 0.05638 0.0
H2200 H 0.13935 0.30364 0.02596 0.0
H2201 H 0.11846 0.27959 0.91695 0.0
H2202 H 0.09334 0.2508 0.94674 0.0
H2203 H 0.99209 0.20627 0.0625 0.0
H2204 H 0.02461 0.21571 0.07767 0.0
H2205 H 0.03686 0.21598 0.95948 0.0
H2206 H 1.00411 0.20663 0.94405 0.0
H2207 H 0.06498 0.24523 0.99242 0.0
H2208 H 0.03052 0.17961 0.02137 0.0
H2209 H 1.00552 0.15081 0.05125 0.0
H2210 H 0.02593 0.17449 0.16071 0.0
H2211 H 0.05091 0.20355 0.13147 0.0
C2212 C 0.14265 0.24757 0.03397 0.0
C2213 C 0.15034 0.2533 0.0702 0.0
C2214 C 0.12337 0.24007 0.02756 0.0
C2215 C 0.11125 0.23843 0.05709 0.0
C2216 C 0.11867 0.24295 0.09392 0.0
C2217 C 0.1381 0.25037 0.10043 0.0
C2218 C 0.09131 0.23328 0.04864 0.0
C2219 C 0.07638 0.21751 0.06599 0.0
C2220 C 0.08701 0.24337 0.02181 0.0
C2221 C 0.10199 0.26075 1.00381 0.0
C2222 C 0.11504 0.27587 0.02593 0.0
C2223 C 0.12929 0.29209 0.00879 0.0
C2224 C 0.13053 0.29341 0.96955 0.0
C2225 C 0.11749 0.27853 0.94735 0.0
C2226 C 0.10324 0.26227 0.96434 0.0
C2227 C 1.00159 0.20817 0.03962 0.0
C2228 C 0.99528 0.20539 1.00198 0.0
C2229 C 0.02029 0.21357 0.04841 0.0
C2230 C 0.03326 0.21616 0.0199 0.0
C2231 C 0.02718 0.21396 0.98215 0.0
C2232 C 1.00843 0.20865 0.97328 0.0
C2233 C 0.05313 0.22137 0.02956 0.0
C2234 C 0.0681 0.23722 0.01248 0.0
C2235 C 0.05742 0.21131 0.05656 0.0
C2236 C 0.04248 0.19382 0.07422 0.0
C2237 C 0.0296 0.17873 0.05181 0.0
C2238 C 0.01544 0.16235 0.06863 0.0
C2239 C 1.01411 0.16084 0.10785 0.0
C2240 C 0.02696 0.17569 0.13033 0.0
C2241 C 0.04113 0.19211 0.11366 0.0
H2242 H 1.00314 0.14814 0.12082 0.0
H2243 H 0.14157 0.30597 0.95634 0.0
H2244 H 0.90262 0.57479 0.37128 0.0
H2245 H 0.91317 0.55265 0.35459 0.0
H2246 H 0.86014 0.51718 0.29917 0.0
H2247 H 0.84936 0.53888 0.31651 0.0
H2248 H 0.87128 0.49621 0.33795 0.0
H2249 H 0.89932 0.54672 0.24783 0.0
H2250 H 0.91788 0.57988 0.22851 0.0
H2251 H 0.96644 0.58502 0.28544 0.0
H2252 H 0.9481 0.55193 0.30547 0.0
H2253 H 0.90533 0.4407 0.24607 0.0
H2254 H 0.89119 0.46077 0.25507 0.0
H2255 H 0.94277 0.50318 0.30647 0.0
H2256 H 0.95683 0.4838 0.29682 0.0
H2257 H 0.9303 0.51983 0.2644 0.0
H2258 H 0.90279 0.47087 0.35832 0.0
H2259 H 0.88475 0.43816 0.38066 0.0
H2260 H 0.83602 0.43043 0.32017 0.0
H2261 H 0.85387 0.46305 0.29706 0.0
C2262 C 0.89312 0.56219 0.35592 0.0
C2263 C 0.87521 0.55885 0.3448 0.0
C2264 C 0.89922 0.54958 0.34612 0.0
C2265 C 0.88758 0.53333 0.32499 0.0
C2266 C 0.86946 0.52962 0.3152 0.0
C2267 C 0.86338 0.54221 0.32486 0.0
C2268 C 0.89441 0.52049 0.31204 0.0
C2269 C 0.88406 0.50134 0.32145 0.0
C2270 C 0.91118 0.52709 0.29082 0.0
C2271 C 0.92231 0.54689 0.27834 0.0
C2272 C 0.91393 0.55495 0.25637 0.0
C2273 C 0.92441 0.57373 0.24528 0.0
C2274 C 0.94332 0.58456 0.25579 0.0
C2275 C 0.9518 0.57662 0.27733 0.0
C2276 C 0.94137 0.55784 0.28851 0.0
C2277 C 0.91367 0.45443 0.25868 0.0
C2278 C 0.93216 0.46053 0.27096 0.0
C2279 C 0.90555 0.46584 0.26417 0.0
C2280 C 0.9158 0.48349 0.28201 0.0
C2281 C 0.93446 0.48972 0.29272 0.0
C2282 C 0.94248 0.47847 0.2873 0.0
C2283 C 0.9074 0.49555 0.29093 0.0
C2284 C 0.91743 0.51461 0.28066 0.0
C2285 C 0.89046 0.48888 0.31169 0.0
C2286 C 0.87972 0.46931 0.32559 0.0
C2287 C 0.88827 0.46215 0.34955 0.0
C2288 C 0.87808 0.44363 0.36239 0.0
C2289 C 0.85927 0.4322 0.35174 0.0
C2290 C 0.8506 0.43928 0.32832 0.0
C2291 C 0.86074 0.45778 0.31535 0.0
H2292 H 0.8514 0.41787 0.36171 0.0
H2293 H 0.95141 0.5991 0.2472 0.0
H2294 H 0.57944 0.47107 0.26118 0.0
H2295 H 0.56059 0.4372 0.27471 0.0
H2296 H 0.51133 0.44247 0.2908 0.0
H2297 H 0.52992 0.47591 0.27769 0.0
H2298 H 0.51583 0.42487 0.34927 0.0
H2299 H 0.51641 0.42 0.21373 0.0
H2300 H 0.53133 0.42508 0.15123 0.0
H2301 H 0.5595 0.39557 0.18632 0.0
H2302 H 0.54492 0.39052 0.24923 0.0
H2303 H 0.44319 0.32966 0.36536 0.0
H2304 H 0.46334 0.36235 0.34576 0.0
H2305 H 0.50881 0.35158 0.32396 0.0
H2306 H 0.48863 0.31892 0.34272 0.0
H2307 H 0.50782 0.37199 0.26949 0.0
H2308 H 0.50718 0.376 0.40387 0.0
H2309 H 0.49243 0.37039 0.46665 0.0
H2310 H 0.46553 0.40164 0.43531 0.0
H2311 H 0.47984 0.40714 0.37209 0.0
C2312 C 0.56449 0.46485 0.2666 0.0
C2313 C 0.55619 0.47618 0.26842 0.0
C2314 C 0.55373 0.44552 0.27456 0.0
C2315 C 0.5345 0.43724 0.28418 0.0
C2316 C 0.52612 0.44846 0.28397 0.0
C2317 C 0.53679 0.46762 0.27621 0.0
C2318 C 0.5231 0.41721 0.29647 0.0
C2319 C 0.51394 0.41331 0.3316 0.0
C2320 C 0.52101 0.40207 0.2741 0.0
C2321 C 0.52974 0.40507 0.2363 0.0
C2322 C 0.52591 0.41474 0.20822 0.0
C2323 C 0.53428 0.41758 0.1727 0.0
C2324 C 0.5464 0.4107 0.16485 0.0
C2325 C 0.55013 0.40092 0.19247 0.0
C2326 C 0.54181 0.39805 0.22804 0.0
C2327 C 0.45752 0.33431 0.35669 0.0
C2328 C 0.46425 0.32163 0.35557 0.0
C2329 C 0.46908 0.35303 0.34545 0.0
C2330 C 0.48776 0.35962 0.3336 0.0
C2331 C 0.49448 0.34694 0.3327 0.0
C2332 C 0.48289 0.32822 0.34349 0.0
C2333 C 0.50033 0.37963 0.32209 0.0
C2334 C 0.50975 0.38354 0.28723 0.0
C2335 C 0.50281 0.39482 0.34486 0.0
C2336 C 0.49447 0.39186 0.38312 0.0
C2337 C 0.49803 0.38159 0.41029 0.0
C2338 C 0.48975 0.37842 0.44595 0.0
C2339 C 0.47802 0.38561 0.45494 0.0
C2340 C 0.47459 0.39604 0.42831 0.0
C2341 C 0.4828 0.3992 0.39255 0.0
H2342 H 0.47163 0.38314 0.48258 0.0
H2343 H 0.55286 0.41292 0.13733 0.0
H2344 H 0.55653 0.09236 0.33562 0.0
H2345 H 0.59081 0.1093 0.3369 0.0
H2346 H 0.59221 0.11945 0.2175 0.0
H2347 H 0.55735 0.10248 0.21615 0.0
H2348 H 0.61565 0.1044 0.24227 0.0
H2349 H 0.6063 0.15555 0.27249 0.0
H2350 H 0.59193 0.17152 0.30581 0.0
H2351 H 0.61279 0.16374 0.41119 0.0
H2352 H 0.62705 0.14746 0.37859 0.0
H2353 H 0.7154 0.15309 0.2587 0.0
H2354 H 0.68367 0.14671 0.24315 0.0
H2355 H 0.67008 0.1422 0.36142 0.0
H2356 H 0.70185 0.14907 0.37709 0.0
H2357 H 0.65348 0.15791 0.328 0.0
H2358 H 0.65787 0.10287 0.30196 0.0
H2359 H 0.67092 0.0848 0.27209 0.0
H2360 H 0.65814 0.09777 0.1627 0.0
H2361 H 0.64525 0.11614 0.19196 0.0
C2362 C 0.56407 0.09836 0.30957 0.0
C2363 C 0.55419 0.09605 0.27574 0.0
C2364 C 0.58373 0.10812 0.31042 0.0
C2365 C 0.59418 0.11575 0.27739 0.0
C2366 C 0.58444 0.11373 0.24341 0.0
C2367 C 0.56456 0.10415 0.24266 0.0
C2368 C 0.61519 0.12492 0.27897 0.0
C2369 C 0.62403 0.11642 0.26021 0.0
C2370 C 0.62607 0.14024 0.30335 0.0
C2371 C 0.61767 0.15018 0.32308 0.0
C2372 C 0.60772 0.15712 0.3028 0.0
C2373 C 0.5996 0.16625 0.32156 0.0
C2374 C 0.60142 0.16862 0.3606 0.0
C2375 C 0.6114 0.1619 0.38095 0.0
C2376 C 0.61952 0.15274 0.36233 0.0
C2377 C 0.70572 0.15092 0.28145 0.0
C2378 C 0.71124 0.15133 0.31919 0.0
C2379 C 0.68749 0.14717 0.27249 0.0
C2380 C 0.67414 0.14343 0.301 0.0
C2381 C 0.67996 0.14489 0.33875 0.0
C2382 C 0.69826 0.14886 0.34773 0.0
C2383 C 0.65397 0.1372 0.29178 0.0
C2384 C 0.64525 0.14616 0.30935 0.0
C2385 C 0.64312 0.12212 0.26673 0.0
C2386 C 0.65082 0.11106 0.24912 0.0
C2387 C 0.65798 0.10198 0.27153 0.0
C2388 C 0.66533 0.09167 0.25472 0.0
C2389 C 0.66541 0.09019 0.21552 0.0
C2390 C 0.6581 0.09897 0.19306 0.0
C2391 C 0.65077 0.10932 0.20973 0.0
H2392 H 0.6711 0.0822 0.20255 0.0
H2393 H 0.59513 0.17568 0.37507 0.0
H2394 H 0.51545 0.14688 0.36654 0.0
H2395 H 0.5043 0.1683 0.38393 0.0
H2396 H 0.44955 0.12974 0.33809 0.0
H2397 H 0.46074 0.10826 0.32027 0.0
H2398 H 0.45934 0.16431 0.31873 0.0
H2399 H 0.45902 0.13441 0.4353 0.0
H2400 H 0.47267 0.12442 0.48588 0.0
H2401 H 0.51353 0.18192 0.50912 0.0
H2402 H 0.50026 0.19225 0.45831 0.0
H2403 H 0.40293 0.19495 0.40108 0.0
H2404 H 0.41818 0.17654 0.39039 0.0
H2405 H 0.47146 0.22345 0.42469 0.0
H2406 H 0.45606 0.24221 0.43568 0.0
H2407 H 0.4651 0.18735 0.44998 0.0
H2408 H 0.46374 0.21704 0.33513 0.0
H2409 H 0.44908 0.22648 0.28564 0.0
H2410 H 0.41063 0.16864 0.25975 0.0
H2411 H 0.42486 0.15883 0.30956 0.0
C2412 C 0.50099 0.14286 0.36036 0.0
C2413 C 0.48894 0.1257 0.3423 0.0
C2414 C 0.49461 0.15516 0.37038 0.0
C2415 C 0.47595 0.15055 0.36306 0.0
C2416 C 0.464 0.13364 0.34422 0.0
C2417 C 0.47042 0.12136 0.33393 0.0
C2418 C 0.46893 0.1634 0.37474 0.0
C2419 C 0.46045 0.16915 0.34753 0.0
C2420 C 0.47083 0.17027 0.41211 0.0
C2421 C 0.47877 0.16409 0.44275 0.0
C2422 C 0.471 0.14492 0.45101 0.0
C2423 C 0.47866 0.13919 0.47975 0.0
C2424 C 0.49399 0.15252 0.50062 0.0
C2425 C 0.50167 0.17161 0.49288 0.0
C2426 C 0.49408 0.17741 0.46414 0.0
C2427 C 0.41786 0.20135 0.40692 0.0
C2428 C 0.42833 0.22013 0.41887 0.0
C2429 C 0.42657 0.19078 0.4007 0.0
C2430 C 0.44603 0.1987 0.40594 0.0
C2431 C 0.45643 0.21709 0.42023 0.0
C2432 C 0.44762 0.22777 0.42664 0.0
C2433 C 0.45531 0.18793 0.39408 0.0
C2434 C 0.46418 0.1826 0.42116 0.0
C2435 C 0.45374 0.18136 0.35661 0.0
C2436 C 0.44529 0.1872 0.32629 0.0
C2437 C 0.45207 0.20633 0.31907 0.0
C2438 C 0.44385 0.21175 0.29094 0.0
C2439 C 0.42891 0.19817 0.2696 0.0
C2440 C 0.4222 0.17914 0.27631 0.0
C2441 C 0.43035 0.17364 0.30447 0.0
H2442 H 0.42256 0.20239 0.24783 0.0
H2443 H 0.4999 0.14806 0.52286 0.0
H2444 H 0.81317 0.20341 0.34247 0.0
H2445 H 0.83249 0.23693 0.33398 0.0
H2446 H 0.80506 0.2463 0.42815 0.0
H2447 H 0.78508 0.212 0.43687 0.0
H2448 H 0.81117 0.27072 0.36704 0.0
H2449 H 0.84833 0.25287 0.44013 0.0
H2450 H 0.86259 0.23374 0.45735 0.0
H2451 H 0.89301 0.24816 0.35281 0.0
H2452 H 0.8787 0.26715 0.33468 0.0
H2453 H 0.88368 0.36743 0.371 0.0
H2454 H 0.86118 0.33483 0.38624 0.0
H2455 H 0.88541 0.31652 0.3001 0.0
H2456 H 0.90842 0.3493 0.28534 0.0
H2457 H 0.88045 0.29721 0.36392 0.0
H2458 H 0.84179 0.31352 0.28949 0.0
H2459 H 0.82719 0.33232 0.27189 0.0
H2460 H 0.79965 0.32092 0.37945 0.0
H2461 H 0.81429 0.30225 0.3979 0.0
C2462 C 0.81109 0.21243 0.36166 0.0
C2463 C 0.79761 0.20484 0.39077 0.0
C2464 C 0.82228 0.23174 0.35668 0.0
C2465 C 0.8206 0.24428 0.38078 0.0
C2466 C 0.80675 0.23691 0.40929 0.0
C2467 C 0.79535 0.21732 0.41432 0.0
C2468 C 0.8337 0.26491 0.37576 0.0
C2469 C 0.82633 0.27661 0.36715 0.0
C2470 C 0.85353 0.27261 0.375 0.0
C2471 C 0.86234 0.26135 0.38595 0.0
C2472 C 0.85796 0.25187 0.4207 0.0
C2473 C 0.86607 0.24106 0.43064 0.0
C2474 C 0.87868 0.23971 0.40617 0.0
C2475 C 0.88324 0.24921 0.37174 0.0
C2476 C 0.87515 0.26002 0.36164 0.0
C2477 C 0.88432 0.35653 0.35526 0.0
C2478 C 0.89805 0.36113 0.32702 0.0
C2479 C 0.87124 0.33779 0.36381 0.0
C2480 C 0.8714 0.32306 0.34423 0.0
C2481 C 0.88492 0.32758 0.31566 0.0
C2482 C 0.89802 0.34637 0.307 0.0
C2483 C 0.85795 0.30302 0.35451 0.0
C2484 C 0.8653 0.29142 0.36413 0.0
C2485 C 0.83815 0.29548 0.3563 0.0
C2486 C 0.8293 0.30666 0.34522 0.0
C2487 C 0.83274 0.31515 0.30951 0.0
C2488 C 0.82444 0.32576 0.29936 0.0
C2489 C 0.81255 0.32785 0.32458 0.0
C2490 C 0.80889 0.3193 0.35997 0.0
C2491 C 0.81718 0.3087 0.37027 0.0
H2492 H 0.80613 0.33607 0.31667 0.0
H2493 H 0.88494 0.23133 0.41391 0.0
H2494 H 0.64878 0.53184 0.40188 0.0
H2495 H 0.681 0.54065 0.41909 0.0
H2496 H 0.69839 0.5555 0.30362 0.0
H2497 H 0.66598 0.54633 0.28602 0.0
H2498 H 0.71282 0.53495 0.33359 0.0
H2499 H 0.70886 0.58903 0.37068 0.0
H2500 H 0.69542 0.60588 0.404 0.0
H2501 H 0.70473 0.58692 0.51022 0.0
H2502 H 0.718 0.56973 0.47747 0.0
H2503 H 0.81035 0.59414 0.34355 0.0
H2504 H 0.77638 0.57918 0.33707 0.0
H2505 H 0.76977 0.56676 0.45597 0.0
H2506 H 0.8044 0.58204 0.46268 0.0
H2507 H 0.74872 0.58284 0.43126 0.0
H2508 H 0.75581 0.53139 0.39413 0.0
H2509 H 0.76976 0.51511 0.36045 0.0
H2510 H 0.75474 0.5291 0.25443 0.0
H2511 H 0.74095 0.54572 0.28744 0.0
C2512 C 0.65939 0.53689 0.38002 0.0
C2513 C 0.65467 0.5383 0.34245 0.0
C2514 C 0.67791 0.54208 0.39002 0.0
C2515 C 0.69226 0.54887 0.36277 0.0
C2516 C 0.68762 0.55032 0.32523 0.0
C2517 C 0.66908 0.54521 0.31522 0.0
C2518 C 0.71202 0.55426 0.37329 0.0
C2519 C 0.7207 0.54554 0.35471 0.0
C2520 C 0.72218 0.56759 0.40187 0.0
C2521 C 0.71422 0.57792 0.4216 0.0
C2522 C 0.70789 0.58832 0.40112 0.0
C2523 C 0.70033 0.59796 0.41991 0.0
C2524 C 0.69917 0.59742 0.4592 0.0
C2525 C 0.70561 0.58729 0.47979 0.0
C2526 C 0.71316 0.57761 0.46113 0.0
C2527 C 0.80172 0.58802 0.36839 0.0
C2528 C 0.8101 0.58928 0.40367 0.0
C2529 C 0.78222 0.57937 0.36456 0.0
C2530 C 0.77038 0.57168 0.3959 0.0
C2531 C 0.7786 0.57253 0.43129 0.0
C2532 C 0.79835 0.58111 0.4351 0.0
C2533 C 0.74962 0.56376 0.39106 0.0
C2534 C 0.74074 0.57202 0.41058 0.0
C2535 C 0.73925 0.54998 0.36336 0.0
C2536 C 0.74743 0.5399 0.3433 0.0
C2537 C 0.75559 0.53111 0.36363 0.0
C2538 C 0.76346 0.52181 0.34465 0.0
C2539 C 0.76316 0.5211 0.30533 0.0
C2540 C 0.75496 0.52966 0.28489 0.0
C2541 C 0.74709 0.539 0.30373 0.0
H2542 H 0.76926 0.51389 0.29069 0.0
H2543 H 0.69332 0.6049 0.4737 0.0
H2544 H 0.60258 0.79578 0.68665 0.0
H2545 H 0.58824 0.81525 0.69374 0.0
H2546 H 0.58004 0.81399 0.57355 0.0
H2547 H 0.59459 0.7942 0.56626 0.0
H2548 H 0.5972 0.85018 0.60339 0.0
H2549 H 0.54239 0.79137 0.63008 0.0
H2550 H 0.52384 0.76042 0.66028 0.0
H2551 H 0.53474 0.78665 0.76901 0.0
H2552 H 0.5536 0.81776 0.73951 0.0
H2553 H 0.54548 0.89808 0.61972 0.0
H2554 H 0.55572 0.87554 0.60632 0.0
H2555 H 0.56402 0.87116 0.72496 0.0
H2556 H 0.55343 0.89363 0.73874 0.0
H2557 H 0.54508 0.83671 0.69188 0.0
H2558 H 0.60139 0.8948 0.66695 0.0
H2559 H 0.62076 0.92604 0.63835 0.0
H2560 H 0.60781 0.90141 0.52799 0.0
H2561 H 0.58813 0.87003 0.55594 0.0
C2562 C 0.59744 0.79934 0.66168 0.0
C2563 C 0.59967 0.79341 0.62588 0.0
C2564 C 0.58918 0.81047 0.66583 0.0
C2565 C 0.58294 0.81606 0.63426 0.0
C2566 C 0.58469 0.8098 0.59835 0.0
C2567 C 0.59283 0.79837 0.5942 0.0
C2568 C 0.57576 0.82937 0.63929 0.0
C2569 C 0.58552 0.84707 0.62205 0.0
C2570 C 0.56093 0.8256 0.66469 0.0
C2571 C 0.54953 0.80691 0.68257 0.0
C2572 C 0.54095 0.79054 0.66045 0.0
C2573 C 0.53036 0.77296 0.67745 0.0
C2574 C 0.52814 0.77157 0.71654 0.0
C2575 C 0.53648 0.78775 0.73872 0.0
C2576 C 0.5471 0.80537 0.72187 0.0
C2577 C 0.54944 0.89233 0.64307 0.0
C2578 C 0.54848 0.89761 0.68038 0.0
C2579 C 0.55545 0.87953 0.6353 0.0
C2580 C 0.56074 0.87167 0.66458 0.0
C2581 C 0.56003 0.87704 0.70189 0.0
C2582 C 0.5541 0.88999 0.70971 0.0
C2583 C 0.56659 0.85756 0.65616 0.0
C2584 C 0.55662 0.83974 0.67288 0.0
C2585 C 0.58129 0.86126 0.63045 0.0
C2586 C 0.59312 0.88009 0.61353 0.0
C2587 C 0.60254 0.89607 0.63657 0.0
C2588 C 0.6136 0.91379 0.62048 0.0
C2589 C 0.61547 0.91572 0.58137 0.0
C2590 C 0.60632 0.8999 0.55828 0.0
C2591 C 0.59522 0.88214 0.57423 0.0
H2592 H 0.62405 0.92945 0.56896 0.0
H2593 H 0.51993 0.75794 0.72965 0.0
H2594 H 0.23079 0.80358 0.5462 0.0
H2595 H 0.21176 0.76902 0.54935 0.0
H2596 H 0.21851 0.7715 0.67009 0.0
H2597 H 0.23726 0.80561 0.66692 0.0
H2598 H 0.21987 0.7419 0.64288 0.0
H2599 H 0.18025 0.76937 0.62768 0.0
H2600 H 0.16788 0.78748 0.59547 0.0
H2601 H 0.15179 0.75028 0.50053 0.0
H2602 H 0.16457 0.7323 0.53172 0.0
H2603 H 0.14088 0.65974 0.71447 0.0
H2604 H 0.16475 0.6918 0.69824 0.0
H2605 H 0.14928 0.6804 0.58114 0.0
H2606 H 0.12491 0.64853 0.59726 0.0
H2607 H 0.15376 0.71335 0.59883 0.0
H2608 H 0.19081 0.6841 0.61644 0.0
H2609 H 0.20241 0.66555 0.64952 0.0
H2610 H 0.22269 0.70537 0.74023 0.0
H2611 H 0.21098 0.72404 0.70793 0.0
C2612 C 0.22866 0.79663 0.57315 0.0
C2613 C 0.23559 0.80725 0.60629 0.0
C2614 C 0.21761 0.77691 0.57505 0.0
C2615 C 0.21345 0.76756 0.61009 0.0
C2616 C 0.22144 0.77823 0.64274 0.0
C2617 C 0.2322 0.79778 0.64088 0.0
C2618 C 0.19979 0.74695 0.61384 0.0
C2619 C 0.2054 0.73569 0.63329 0.0
C2620 C 0.18094 0.7386 0.60082 0.0
C2621 C 0.17363 0.74967 0.58178 0.0
C2622 C 0.17432 0.76522 0.5997 0.0
C2623 C 0.16723 0.77546 0.58163 0.0
C2624 C 0.15916 0.77012 0.54587 0.0
C2625 C 0.15817 0.75452 0.52809 0.0
C2626 C 0.16537 0.74432 0.54592 0.0
C2627 C 0.14241 0.66399 0.68526 0.0
C2628 C 0.13081 0.65131 0.65728 0.0
C2629 C 0.1563 0.68237 0.67591 0.0
C2630 C 0.15912 0.6886 0.63829 0.0
C2631 C 0.14753 0.67602 0.61034 0.0
C2632 C 0.13363 0.65765 0.61965 0.0
C2633 C 0.17376 0.70833 0.62831 0.0
C2634 C 0.1683 0.71944 0.60785 0.0
C2635 C 0.19274 0.71654 0.64042 0.0
C2636 C 0.19987 0.70539 0.65988 0.0
C2637 C 0.19762 0.68883 0.64357 0.0
C2638 C 0.20424 0.67831 0.66216 0.0
C2639 C 0.21325 0.68425 0.69699 0.0
C2640 C 0.2157 0.70077 0.71326 0.0
C2641 C 0.20909 0.71134 0.6948 0.0
H2642 H 0.21836 0.67608 0.71134 0.0
H2643 H 0.15358 0.77801 0.53204 0.0
H2644 H 0.22055 0.43814 0.54849 0.0
H2645 H 0.25514 0.45299 0.55378 0.0
H2646 H 0.25043 0.45074 0.67491 0.0
H2647 H 0.21633 0.43616 0.66967 0.0
H2648 H 0.28093 0.48267 0.65415 0.0
H2649 H 0.25313 0.41661 0.62427 0.0
H2650 H 0.23459 0.38853 0.58496 0.0
H2651 H 0.27244 0.41528 0.49234 0.0
H2652 H 0.29106 0.44363 0.531 0.0
H2653 H 0.36248 0.48298 0.72091 0.0
H2654 H 0.33029 0.47484 0.70525 0.0
H2655 H 0.34281 0.47604 0.58701 0.0
H2656 H 0.3747 0.48334 0.60237 0.0
H2657 H 0.30949 0.44727 0.59966 0.0
H2658 H 0.33919 0.51232 0.6315 0.0
H2659 H 0.35758 0.54047 0.67065 0.0
H2660 H 0.31638 0.51618 0.75881 0.0
H2661 H 0.29786 0.48777 0.72037 0.0
C2662 C 0.22703 0.44136 0.57612 0.0
C2663 C 0.21576 0.43604 0.60866 0.0
C2664 C 0.24676 0.44964 0.57919 0.0
C2665 C 0.25548 0.45279 0.61484 0.0
C2666 C 0.2442 0.44851 0.64712 0.0
C2667 C 0.22464 0.44014 0.64407 0.0
C2668 C 0.27602 0.45926 0.61933 0.0
C2669 C 0.28715 0.47489 0.6423 0.0
C2670 C 0.28438 0.4494 0.60342 0.0
C2671 C 0.27335 0.4323 0.58035 0.0
C2672 C 0.25742 0.41654 0.59544 0.0
C2673 C 0.24691 0.40058 0.57329 0.0
C2674 C 0.2523 0.40015 0.53613 0.0
C2675 C 0.26826 0.41565 0.5211 0.0
C2676 C 0.27879 0.43167 0.54311 0.0
C2677 C 0.35845 0.4814 0.69156 0.0
C2678 C 0.37151 0.48401 0.66305 0.0
C2679 C 0.33998 0.47692 0.68256 0.0
C2680 C 0.33404 0.47511 0.6448 0.0
C2681 C 0.34694 0.47745 0.61635 0.0
C2682 C 0.36537 0.48183 0.62529 0.0
C2683 C 0.31439 0.47056 0.63498 0.0
C2684 C 0.30341 0.45526 0.61111 0.0
C2685 C 0.30617 0.48075 0.65003 0.0
C2686 C 0.31722 0.49786 0.67316 0.0
C2687 C 0.33412 0.51293 0.65933 0.0
C2688 C 0.34456 0.52894 0.68138 0.0
C2689 C 0.33818 0.5301 0.71723 0.0
C2690 C 0.32132 0.51526 0.73105 0.0
C2691 C 0.31083 0.49921 0.70913 0.0
H2692 H 0.34628 0.54251 0.73426 0.0
H2693 H 0.24413 0.38778 0.51902 0.0
H2694 H 0.09308 0.5476 0.78914 0.0
H2695 H 0.10894 0.52918 0.78297 0.0
H2696 H 0.13912 0.56202 0.68587 0.0
H2697 H 0.12298 0.58014 0.69181 0.0
H2698 H 0.12266 0.52613 0.66948 0.0
H2699 H 0.16163 0.56372 0.77167 0.0
H2700 H 0.16811 0.57811 0.8348 0.0
H2701 H 0.13902 0.52349 0.88566 0.0
H2702 H 0.13215 0.50876 0.82281 0.0
H2703 H 0.17334 0.47793 0.64041 0.0
H2704 H 0.16619 0.50283 0.65363 0.0
H2705 H 0.13529 0.47322 0.75281 0.0
H2706 H 0.14221 0.44841 0.74 0.0
H2707 H 0.1545 0.50936 0.76802 0.0
H2708 H 0.112 0.47192 0.66978 0.0
H2709 H 0.10273 0.45601 0.60822 0.0
H2710 H 0.13626 0.50871 0.55183 0.0
H2711 H 0.14568 0.52495 0.6132 0.0
C2712 C 0.1037 0.55136 0.76751 0.0
C2713 C 0.10723 0.56565 0.74161 0.0
C2714 C 0.1127 0.54074 0.76378 0.0
C2715 C 0.12539 0.54418 0.73399 0.0
C2716 C 0.12947 0.55904 0.70912 0.0
C2717 C 0.12044 0.56958 0.71281 0.0
C2718 C 0.13299 0.53127 0.72656 0.0
C2719 C 0.12999 0.52282 0.69088 0.0
C2720 C 0.142 0.52632 0.75466 0.0
C2721 C 0.14625 0.53514 0.79249 0.0
C2722 C 0.1565 0.55477 0.79631 0.0
C2723 C 0.16027 0.56299 0.83204 0.0
C2724 C 0.15395 0.55172 0.86422 0.0
C2725 C 0.1439 0.5322 0.86072 0.0
C2726 C 0.14009 0.52391 0.82504 0.0
C2727 C 0.16506 0.47665 0.6651 0.0
C2728 C 0.15837 0.46086 0.68886 0.0
C2729 C 0.16094 0.49097 0.67265 0.0
C2730 C 0.14994 0.48989 0.70404 0.0
C2731 C 0.14382 0.47452 0.72845 0.0
C2732 C 0.14791 0.46023 0.72099 0.0
C2733 C 0.14421 0.50431 0.71094 0.0
C2734 C 0.14744 0.51293 0.74651 0.0
C2735 C 0.13518 0.50928 0.68294 0.0
C2736 C 0.12971 0.4996 0.64603 0.0
C2737 C 0.11751 0.48009 0.64424 0.0
C2738 C 0.1122 0.47102 0.60939 0.0
C2739 C 0.119 0.48133 0.5761 0.0
C2740 C 0.13104 0.50074 0.57763 0.0
C2741 C 0.13633 0.50989 0.61244 0.0
H2742 H 0.11488 0.47428 0.54913 0.0
H2743 H 0.15686 0.55811 0.89186 0.0
H2744 H 0.47291 0.5521 0.79221 0.0
H2745 H 0.49396 0.58591 0.78194 0.0
H2746 H 0.47113 0.5806 0.67018 0.0
H2747 H 0.45051 0.54694 0.68029 0.0
H2748 H 0.50794 0.5974 0.66639 0.0
H2749 H 0.46405 0.60553 0.74175 0.0
H2750 H 0.44444 0.6015 0.7975 0.0
H2751 H 0.49392 0.62775 0.867 0.0
H2752 H 0.51383 0.63171 0.81173 0.0
H2753 H 0.56054 0.69508 0.61976 0.0
H2754 H 0.53504 0.66301 0.63257 0.0
H2755 H 0.55643 0.66652 0.74505 0.0
H2756 H 0.58172 0.69837 0.73251 0.0
H2757 H 0.51945 0.65097 0.74788 0.0
H2758 H 0.56312 0.64168 0.67354 0.0
H2759 H 0.58301 0.64603 0.61806 0.0
H2760 H 0.53404 0.62182 0.54703 0.0
H2761 H 0.51388 0.61758 0.60204 0.0
C2762 C 0.47186 0.55837 0.76617 0.0
C2763 C 0.45981 0.54703 0.73734 0.0
C2764 C 0.484 0.57768 0.7601 0.0
C2765 C 0.48424 0.58593 0.72513 0.0
C2766 C 0.47135 0.57467 0.69729 0.0
C2767 C 0.45937 0.55547 0.70327 0.0
C2768 C 0.49891 0.60574 0.71612 0.0
C2769 C 0.51021 0.60913 0.68395 0.0
C2770 C 0.50234 0.6211 0.73938 0.0
C2771 C 0.49041 0.61875 0.77265 0.0
C2772 C 0.47074 0.6103 0.76898 0.0
C2773 C 0.45957 0.60806 0.80048 0.0
C2774 C 0.46792 0.61432 0.83578 0.0
C2775 C 0.48747 0.62288 0.83964 0.0
C2776 C 0.4987 0.62515 0.80823 0.0
C2777 C 0.5599 0.68896 0.64708 0.0
C2778 C 0.57319 0.69944 0.67511 0.0
C2779 C 0.54527 0.6706 0.65445 0.0
C2780 C 0.54375 0.66221 0.68985 0.0
C2781 C 0.5571 0.67263 0.71767 0.0
C2782 C 0.57161 0.69094 0.7104 0.0
C2783 C 0.52841 0.64259 0.69815 0.0
C2784 C 0.51707 0.63923 0.73023 0.0
C2785 C 0.52496 0.62723 0.67488 0.0
C2786 C 0.53702 0.62949 0.64186 0.0
C2787 C 0.55661 0.63739 0.64606 0.0
C2788 C 0.56793 0.63983 0.6147 0.0
C2789 C 0.55981 0.63426 0.57903 0.0
C2790 C 0.54032 0.62616 0.57467 0.0
C2791 C 0.52894 0.62373 0.60593 0.0
H2792 H 0.5686 0.63618 0.55478 0.0
H2793 H 0.45925 0.61257 0.86014 0.0
H2794 H 0.31873 0.87238 0.74541 0.0
H2795 H 0.35056 0.88008 0.76244 0.0
H2796 H 0.36307 0.87682 0.64568 0.0
H2797 H 0.3309 0.86834 0.62844 0.0
H2798 H 0.37751 0.86066 0.68883 0.0
H2799 H 0.37817 0.91929 0.69095 0.0
H2800 H 0.36747 0.94121 0.71001 0.0
H2801 H 0.37936 0.93587 0.82569 0.0
H2802 H 0.38989 0.9137 0.80736 0.0
H2803 H 0.47627 0.91819 0.68129 0.0
H2804 H 0.44204 0.90246 0.67708 0.0
H2805 H 0.43842 0.90449 0.79804 0.0
H2806 H 0.47312 0.9203 0.80231 0.0
H2807 H 0.41853 0.91883 0.76056 0.0
H2808 H 0.42161 0.86272 0.75577 0.0
H2809 H 0.43316 0.8418 0.73457 0.0
H2810 H 0.41511 0.84331 0.62175 0.0
H2811 H 0.40369 0.86448 0.64213 0.0
C2812 C 0.32808 0.87304 0.72323 0.0
C2813 C 0.32205 0.8697 0.68539 0.0
C2814 C 0.34644 0.87767 0.73308 0.0
C2815 C 0.3594 0.8793 0.70537 0.0
C2816 C 0.3534 0.87572 0.66765 0.0
C2817 C 0.33498 0.87103 0.65775 0.0
C2818 C 0.37923 0.8849 0.71562 0.0
C2819 C 0.38651 0.87346 0.70425 0.0
C2820 C 0.3909 0.90133 0.73675 0.0
C2821 C 0.3846 0.91467 0.74783 0.0
C2822 C 0.37835 0.92267 0.72049 0.0
C2823 C 0.37235 0.93516 0.73115 0.0
C2824 C 0.37268 0.93988 0.76905 0.0
C2825 C 0.37907 0.93217 0.79636 0.0
C2826 C 0.38507 0.91964 0.78585 0.0
C2827 C 0.46817 0.91485 0.70711 0.0
C2828 C 0.47732 0.92032 0.74215 0.0
C2829 C 0.44857 0.90583 0.70467 0.0
C2830 C 0.43756 0.90218 0.73721 0.0
C2831 C 0.44661 0.90708 0.77254 0.0
C2832 C 0.46638 0.91593 0.77504 0.0
C2833 C 0.41688 0.89472 0.73332 0.0
C2834 C 0.40944 0.90586 0.74571 0.0
C2835 C 0.40512 0.8781 0.71288 0.0
C2836 C 0.41189 0.86529 0.70047 0.0
C2837 C 0.42022 0.85871 0.72638 0.0
C2838 C 0.42673 0.84678 0.71451 0.0
C2839 C 0.4249 0.84125 0.67683 0.0
C2840 C 0.41652 0.84761 0.65094 0.0
C2841 C 0.41 0.85955 0.66265 0.0
H2842 H 0.42995 0.83202 0.6677 0.0
H2843 H 0.36803 0.94956 0.77726 0.0
loop_
_geom_bond_atom_site_label_1
_geom_bond_atom_site_label_2
_geom_bond_distance
_geom_bond_site_symmetry_2
_ccdc_geom_bond_type
C0 C1 1.351 . S
C0 N3 1.368 . S
C0 H5 0.931 . S
C1 C0 1.351 . S
C1 N2 1.373 . S
C1 H29 0.930 . S
N2 C1 1.373 . S
N2 C4 1.340 . S
N3 C0 1.368 . S
N3 C4 1.321 . S
N3 Co6 2.135 . S
C4 N2 1.340 . S
C4 N3 1.321 . S
C4 H28 0.930 . S
H5 C0 0.931 . S
Co6 N3 2.135 . S
Co6 N9 2.121 . S
Co6 O14 2.055 . S
Co6 O17 2.039 . S
Co6 N20 2.140 . S
C7 O8 1.227 . S
C7 O17 1.265 . S
O8 C7 1.227 . S
N9 Co6 2.121 . S
N9 C11 1.375 . S
N9 C12 1.313 . S
C10 C11 1.338 . S
C10 N13 1.377 . S
C10 H30 0.930 . S
C11 N9 1.375 . S
C11 C10 1.338 . S
C11 H15 0.931 . S
C12 N9 1.313 . S
C12 N13 1.344 . S
C12 H16 0.930 . S
N13 C10 1.377 . S
N13 C12 1.344 . S
O14 Co6 2.055 . S
O14 C18 1.253 . S
H15 C11 0.931 . S
H16 C12 0.930 . S
O17 Co6 2.039 . S
O17 C7 1.265 . S
C18 O14 1.253 . S
C18 O19 1.227 . S
O19 C18 1.227 . S
N20 Co6 2.140 . S
N20 C23 1.346 . S
N20 C24 1.345 . S
C21 C22 1.387 . S
C21 C25 1.391 . S
C22 C21 1.387 . S
C22 C23 1.369 . S
C22 H31 0.929 . S
C23 N20 1.346 . S
C23 C22 1.369 . S
C23 H26 0.928 . S
C24 N20 1.345 . S
C24 C25 1.371 . S
C24 H27 0.931 . S
C25 C21 1.391 . S
C25 C24 1.371 . S
C25 H32 0.930 . S
H26 C23 0.928 . S
H27 C24 0.931 . S
H28 C4 0.930 . S
H29 C1 0.930 . S
H30 C10 0.930 . S
H31 C22 0.929 . S
H32 C25 0.930 . S
C33 C34 1.351 . S
C33 N36 1.368 . S
C33 H38 0.931 . S
C34 C33 1.351 . S
C34 N35 1.373 . S
C34 H62 0.930 . S
N35 C34 1.373 . S
N35 C37 1.340 . S
N36 C33 1.368 . S
N36 C37 1.321 . S
N36 Co39 2.135 . S
C37 N35 1.340 . S
C37 N36 1.321 . S
C37 H61 0.930 . S
H38 C33 0.931 . S
Co39 N36 2.135 . S
Co39 N42 2.121 . S
Co39 O47 2.055 . S
Co39 O50 2.039 . S
Co39 N53 2.140 . S
C40 O41 1.227 . S
C40 O50 1.265 . S
O41 C40 1.227 . S
N42 Co39 2.121 . S
N42 C44 1.375 . S
N42 C45 1.313 . S
C43 C44 1.338 . S
C43 N46 1.377 . S
C43 H63 0.930 . S
C44 N42 1.375 . S
C44 C43 1.338 . S
C44 H48 0.931 . S
C45 N42 1.313 . S
C45 N46 1.344 . S
C45 H49 0.930 . S
N46 C43 1.377 . S
N46 C45 1.344 . S
O47 Co39 2.055 . S
O47 C51 1.253 . S
H48 C44 0.931 . S
H49 C45 0.930 . S
O50 Co39 2.039 . S
O50 C40 1.265 . S
C51 O47 1.253 . S
C51 O52 1.227 . S
O52 C51 1.227 . S
N53 Co39 2.140 . S
N53 C56 1.346 . S
N53 C57 1.345 . S
C54 C55 1.387 . S
C54 C58 1.391 . S
C55 C54 1.387 . S
C55 C56 1.369 . S
C55 H64 0.929 . S
C56 N53 1.346 . S
C56 C55 1.369 . S
C56 H59 0.928 . S
C57 N53 1.345 . S
C57 C58 1.371 . S
C57 H60 0.931 . S
C58 C54 1.391 . S
C58 C57 1.371 . S
C58 H65 0.930 . S
H59 C56 0.928 . S
H60 C57 0.931 . S
H61 C37 0.930 . S
H62 C34 0.930 . S
H63 C43 0.930 . S
H64 C55 0.929 . S
H65 C58 0.930 . S
C66 C67 1.351 . S
C66 N69 1.368 . S
C66 H71 0.931 . S
C67 C66 1.351 . S
C67 N68 1.373 . S
C67 H95 0.930 . S
N68 C67 1.373 . S
N68 C70 1.340 . S
N69 C66 1.368 . S
N69 C70 1.321 . S
N69 Co72 2.135 . S
C70 N68 1.340 . S
C70 N69 1.321 . S
C70 H94 0.930 . S
H71 C66 0.931 . S
Co72 N69 2.135 . S
Co72 N75 2.121 . S
Co72 O80 2.055 . S
Co72 O83 2.039 . S
Co72 N86 2.140 . S
C73 O74 1.227 . S
C73 O83 1.265 . S
O74 C73 1.227 . S
N75 Co72 2.121 . S
N75 C77 1.375 . S
N75 C78 1.313 . S
C76 C77 1.338 . S
C76 N79 1.377 . S
C76 H96 0.930 . S
C77 N75 1.375 . S
C77 C76 1.338 . S
C77 H81 0.931 . S
C78 N75 1.313 . S
C78 N79 1.344 . S
C78 H82 0.930 . S
N79 C76 1.377 . S
N79 C78 1.344 . S
O80 Co72 2.055 . S
O80 C84 1.253 . S
H81 C77 0.931 . S
H82 C78 0.930 . S
O83 Co72 2.039 . S
O83 C73 1.265 . S
C84 O80 1.253 . S
C84 O85 1.227 . S
O85 C84 1.227 . S
N86 Co72 2.140 . S
N86 C89 1.346 . S
N86 C90 1.345 . S
C87 C88 1.387 . S
C87 C91 1.391 . S
C88 C87 1.387 . S
C88 C89 1.369 . S
C88 H97 0.929 . S
C89 N86 1.346 . S
C89 C88 1.369 . S
C89 H92 0.928 . S
C90 N86 1.345 . S
C90 C91 1.371 . S
C90 H93 0.931 . S
C91 C87 1.391 . S
C91 C90 1.371 . S
C91 H98 0.930 . S
H92 C89 0.928 . S
H93 C90 0.931 . S
H94 C70 0.930 . S
H95 C67 0.930 . S
H96 C76 0.930 . S
H97 C88 0.929 . S
H98 C91 0.930 . S
C99 C100 1.351 . S
C99 N102 1.368 . S
C99 H104 0.931 . S
C100 C99 1.351 . S
C100 N101 1.373 . S
C100 H128 0.930 . S
N101 C100 1.373 . S
N101 C103 1.340 . S
N102 C99 1.368 . S
N102 C103 1.321 . S
N102 Co105 2.135 . S
C103 N101 1.340 . S
C103 N102 1.321 . S
C103 H127 0.930 . S
H104 C99 0.931 . S
Co105 N102 2.135 . S
Co105 N108 2.121 . S
Co105 O113 2.055 . S
Co105 O116 2.039 . S
Co105 N119 2.140 . S
C106 O107 1.227 . S
C106 O116 1.265 . S
O107 C106 1.227 . S
N108 Co105 2.121 . S
N108 C110 1.375 . S
N108 C111 1.313 . S
C109 C110 1.338 . S
C109 N112 1.377 . S
C109 H129 0.930 . S
C110 N108 1.375 . S
C110 C109 1.338 . S
C110 H114 0.931 . S
C111 N108 1.313 . S
C111 N112 1.344 . S
C111 H115 0.930 . S
N112 C109 1.377 . S
N112 C111 1.344 . S
O113 Co105 2.055 . S
O113 C117 1.253 . S
H114 C110 0.931 . S
H115 C111 0.930 . S
O116 Co105 2.039 . S
O116 C106 1.265 . S
C117 O113 1.253 . S
C117 O118 1.227 . S
O118 C117 1.227 . S
N119 Co105 2.140 . S
N119 C122 1.346 . S
N119 C123 1.345 . S
C120 C121 1.387 . S
C120 C124 1.391 . S
C121 C120 1.387 . S
C121 C122 1.369 . S
C121 H130 0.929 . S
C122 N119 1.346 . S
C122 C121 1.369 . S
C122 H125 0.928 . S
C123 N119 1.345 . S
C123 C124 1.371 . S
C123 H126 0.931 . S
C124 C120 1.391 . S
C124 C123 1.371 . S
C124 H131 0.930 . S
H125 C122 0.928 . S
H126 C123 0.931 . S
H127 C103 0.930 . S
H128 C100 0.930 . S
H129 C109 0.930 . S
H130 C121 0.929 . S
H131 C124 0.930 . S
C132 C133 1.351 . S
C132 N135 1.368 . S
C132 H137 0.931 . S
C133 C132 1.351 . S
C133 N134 1.373 . S
C133 H161 0.930 . S
N134 C133 1.373 . S
N134 C136 1.340 . S
N135 C132 1.368 . S
N135 C136 1.321 . S
N135 Co138 2.135 . S
C136 N134 1.340 . S
C136 N135 1.321 . S
C136 H160 0.930 . S
H137 C132 0.931 . S
Co138 N135 2.135 . S
Co138 N141 2.121 . S
Co138 O146 2.055 . S
Co138 O149 2.039 . S
Co138 N152 2.140 . S
C139 O140 1.227 . S
C139 O149 1.265 . S
O140 C139 1.227 . S
N141 Co138 2.121 . S
N141 C143 1.375 . S
N141 C144 1.313 . S
C142 C143 1.338 . S
C142 N145 1.377 . S
C142 H162 0.930 . S
C143 N141 1.375 . S
C143 C142 1.338 . S
C143 H147 0.931 . S
C144 N141 1.313 . S
C144 N145 1.344 . S
C144 H148 0.930 . S
N145 C142 1.377 . S
N145 C144 1.344 . S
O146 Co138 2.055 . S
O146 C150 1.253 . S
H147 C143 0.931 . S
H148 C144 0.930 . S
O149 Co138 2.039 . S
O149 C139 1.265 . S
C150 O146 1.253 . S
C150 O151 1.227 . S
O151 C150 1.227 . S
N152 Co138 2.140 . S
N152 C155 1.346 . S
N152 C156 1.345 . S
C153 C154 1.387 . S
C153 C157 1.391 . S
C154 C153 1.387 . S
C154 C155 1.369 . S
C154 H163 0.929 . S
C155 N152 1.346 . S
C155 C154 1.369 . S
C155 H158 0.928 . S
C156 N152 1.345 . S
C156 C157 1.371 . S
C156 H159 0.931 . S
C157 C153 1.391 . S
C157 C156 1.371 . S
C157 H164 0.930 . S
H158 C155 0.928 . S
H159 C156 0.931 . S
H160 C136 0.930 . S
H161 C133 0.930 . S
H162 C142 0.930 . S
H163 C154 0.929 . S
H164 C157 0.930 . S
C165 C166 1.351 . S
C165 N168 1.368 . S
C165 H170 0.931 . S
C166 C165 1.351 . S
C166 N167 1.373 . S
C166 H194 0.930 . S
N167 C166 1.373 . S
N167 C169 1.340 . S
N168 C165 1.368 . S
N168 C169 1.321 . S
N168 Co171 2.135 . S
C169 N167 1.340 . S
C169 N168 1.321 . S
C169 H193 0.930 . S
H170 C165 0.931 . S
Co171 N168 2.135 . S
Co171 N174 2.121 . S
Co171 O179 2.055 . S
Co171 O182 2.039 . S
Co171 N185 2.140 . S
C172 O173 1.227 . S
C172 O182 1.265 . S
O173 C172 1.227 . S
N174 Co171 2.121 . S
N174 C176 1.375 . S
N174 C177 1.313 . S
C175 C176 1.338 . S
C175 N178 1.377 . S
C175 H195 0.930 . S
C176 N174 1.375 . S
C176 C175 1.338 . S
C176 H180 0.931 . S
C177 N174 1.313 . S
C177 N178 1.344 . S
C177 H181 0.930 . S
N178 C175 1.377 . S
N178 C177 1.344 . S
O179 Co171 2.055 . S
O179 C183 1.253 . S
H180 C176 0.931 . S
H181 C177 0.930 . S
O182 Co171 2.039 . S
O182 C172 1.265 . S
C183 O179 1.253 . S
C183 O184 1.227 . S
O184 C183 1.227 . S
N185 Co171 2.140 . S
N185 C188 1.346 . S
N185 C189 1.345 . S
C186 C187 1.387 . S
C186 C190 1.391 . S
C187 C186 1.387 . S
C187 C188 1.369 . S
C187 H196 0.929 . S
C188 N185 1.346 . S
C188 C187 1.369 . S
C188 H191 0.928 . S
C189 N185 1.345 . S
C189 C190 1.371 . S
C189 H192 0.931 . S
C190 C186 1.391 . S
C190 C189 1.371 . S
C190 H197 0.930 . S
H191 C188 0.928 . S
H192 C189 0.931 . S
H193 C169 0.930 . S
H194 C166 0.930 . S
H195 C175 0.930 . S
H196 C187 0.929 . S
H197 C190 0.930 . S
C198 C199 1.351 . S
C198 N201 1.368 . S
C198 H203 0.931 . S
C199 C198 1.351 . S
C199 N200 1.373 . S
C199 H227 0.930 . S
N200 C199 1.373 . S
N200 C202 1.340 . S
N201 C198 1.368 . S
N201 C202 1.321 . S
N201 Co204 2.135 . S
C202 N200 1.340 . S
C202 N201 1.321 . S
C202 H226 0.930 . S
H203 C198 0.931 . S
Co204 N201 2.135 . S
Co204 N207 2.121 . S
Co204 O212 2.055 . S
Co204 O215 2.039 . S
Co204 N218 2.140 . S
C205 O206 1.227 . S
C205 O215 1.265 . S
O206 C205 1.227 . S
N207 Co204 2.121 . S
N207 C209 1.375 . S
N207 C210 1.313 . S
C208 C209 1.338 . S
C208 N211 1.377 . S
C208 H228 0.930 . S
C209 N207 1.375 . S
C209 C208 1.338 . S
C209 H213 0.931 . S
C210 N207 1.313 . S
C210 N211 1.344 . S
C210 H214 0.930 . S
N211 C208 1.377 . S
N211 C210 1.344 . S
O212 Co204 2.055 . S
O212 C216 1.253 . S
H213 C209 0.931 . S
H214 C210 0.930 . S
O215 Co204 2.039 . S
O215 C205 1.265 . S
C216 O212 1.253 . S
C216 O217 1.227 . S
O217 C216 1.227 . S
N218 Co204 2.140 . S
N218 C221 1.346 . S
N218 C222 1.345 . S
C219 C220 1.387 . S
C219 C223 1.391 . S
C220 C219 1.387 . S
C220 C221 1.369 . S
C220 H229 0.929 . S
C221 N218 1.346 . S
C221 C220 1.369 . S
C221 H224 0.928 . S
C222 N218 1.345 . S
C222 C223 1.371 . S
C222 H225 0.931 . S
C223 C219 1.391 . S
C223 C222 1.371 . S
C223 H230 0.930 . S
H224 C221 0.928 . S
H225 C222 0.931 . S
H226 C202 0.930 . S
H227 C199 0.930 . S
H228 C208 0.930 . S
H229 C220 0.929 . S
H230 C223 0.930 . S
C231 C232 1.351 . S
C231 N234 1.368 . S
C231 H236 0.931 . S
C232 C231 1.351 . S
C232 N233 1.373 . S
C232 H260 0.930 . S
N233 C232 1.373 . S
N233 C235 1.340 . S
N234 C231 1.368 . S
N234 C235 1.321 . S
N234 Co237 2.135 . S
C235 N233 1.340 . S
C235 N234 1.321 . S
C235 H259 0.930 . S
H236 C231 0.931 . S
Co237 N234 2.135 . S
Co237 N240 2.121 . S
Co237 O245 2.055 . S
Co237 O248 2.039 . S
Co237 N251 2.140 . S
C238 O239 1.227 . S
C238 O248 1.265 . S
O239 C238 1.227 . S
N240 Co237 2.121 . S
N240 C242 1.375 . S
N240 C243 1.313 . S
C241 C242 1.338 . S
C241 N244 1.377 . S
C241 H261 0.930 . S
C242 N240 1.375 . S
C242 C241 1.338 . S
C242 H246 0.931 . S
C243 N240 1.313 . S
C243 N244 1.344 . S
C243 H247 0.930 . S
N244 C241 1.377 . S
N244 C243 1.344 . S
O245 Co237 2.055 . S
O245 C249 1.253 . S
H246 C242 0.931 . S
H247 C243 0.930 . S
O248 Co237 2.039 . S
O248 C238 1.265 . S
C249 O245 1.253 . S
C249 O250 1.227 . S
O250 C249 1.227 . S
N251 Co237 2.140 . S
N251 C254 1.346 . S
N251 C255 1.345 . S
C252 C253 1.387 . S
C252 C256 1.391 . S
C253 C252 1.387 . S
C253 C254 1.369 . S
C253 H262 0.929 . S
C254 N251 1.346 . S
C254 C253 1.369 . S
C254 H257 0.928 . S
C255 N251 1.345 . S
C255 C256 1.371 . S
C255 H258 0.931 . S
C256 C252 1.391 . S
C256 C255 1.371 . S
C256 H263 0.930 . S
H257 C254 0.928 . S
H258 C255 0.931 . S
H259 C235 0.930 . S
H260 C232 0.930 . S
H261 C241 0.930 . S
H262 C253 0.929 . S
H263 C256 0.930 . S
C264 C265 1.351 . S
C264 N267 1.368 . S
C264 H269 0.931 . S
C265 C264 1.351 . S
C265 N266 1.373 . S
C265 H293 0.930 . S
N266 C265 1.373 . S
N266 C268 1.340 . S
N267 C264 1.368 . S
N267 C268 1.321 . S
N267 Co270 2.135 . S
C268 N266 1.340 . S
C268 N267 1.321 . S
C268 H292 0.930 . S
H269 C264 0.931 . S
Co270 N267 2.135 . S
Co270 N273 2.121 . S
Co270 O278 2.055 . S
Co270 O281 2.039 . S
Co270 N284 2.140 . S
C271 O272 1.227 . S
C271 O281 1.265 . S
O272 C271 1.227 . S
N273 Co270 2.121 . S
N273 C275 1.375 . S
N273 C276 1.313 . S
C274 C275 1.338 . S
C274 N277 1.377 . S
C274 H294 0.930 . S
C275 N273 1.375 . S
C275 C274 1.338 . S
C275 H279 0.931 . S
C276 N273 1.313 . S
C276 N277 1.344 . S
C276 H280 0.930 . S
N277 C274 1.377 . S
N277 C276 1.344 . S
O278 Co270 2.055 . S
O278 C282 1.253 . S
H279 C275 0.931 . S
H280 C276 0.930 . S
O281 Co270 2.039 . S
O281 C271 1.265 . S
C282 O278 1.253 . S
C282 O283 1.227 . S
O283 C282 1.227 . S
N284 Co270 2.140 . S
N284 C287 1.346 . S
N284 C288 1.345 . S
C285 C286 1.387 . S
C285 C289 1.391 . S
C286 C285 1.387 . S
C286 C287 1.369 . S
C286 H295 0.929 . S
C287 N284 1.346 . S
C287 C286 1.369 . S
C287 H290 0.928 . S
C288 N284 1.345 . S
C288 C289 1.371 . S
C288 H291 0.931 . S
C289 C285 1.391 . S
C289 C288 1.371 . S
C289 H296 0.930 . S
H290 C287 0.928 . S
H291 C288 0.931 . S
H292 C268 0.930 . S
H293 C265 0.930 . S
H294 C274 0.930 . S
H295 C286 0.929 . S
H296 C289 0.930 . S
C297 C298 1.351 . S
C297 N300 1.368 . S
C297 H302 0.931 . S
C298 C297 1.351 . S
C298 N299 1.373 . S
C298 H326 0.930 . S
N299 C298 1.373 . S
N299 C301 1.340 . S
N300 C297 1.368 . S
N300 C301 1.321 . S
N300 Co303 2.135 . S
C301 N299 1.340 . S
C301 N300 1.321 . S
C301 H325 0.930 . S
H302 C297 0.931 . S
Co303 N300 2.135 . S
Co303 N306 2.121 . S
Co303 O311 2.055 . S
Co303 O314 2.039 . S
Co303 N317 2.140 . S
C304 O305 1.227 . S
C304 O314 1.265 . S
O305 C304 1.227 . S
N306 Co303 2.121 . S
N306 C308 1.375 . S
N306 C309 1.313 . S
C307 C308 1.338 . S
C307 N310 1.377 . S
C307 H327 0.930 . S
C308 N306 1.375 . S
C308 C307 1.338 . S
C308 H312 0.931 . S
C309 N306 1.313 . S
C309 N310 1.344 . S
C309 H313 0.930 . S
N310 C307 1.377 . S
N310 C309 1.344 . S
O311 Co303 2.055 . S
O311 C315 1.253 . S
H312 C308 0.931 . S
H313 C309 0.930 . S
O314 Co303 2.039 . S
O314 C304 1.265 . S
C315 O311 1.253 . S
C315 O316 1.227 . S
O316 C315 1.227 . S
N317 Co303 2.140 . S
N317 C320 1.346 . S
N317 C321 1.345 . S
C318 C319 1.387 . S
C318 C322 1.391 . S
C319 C318 1.387 . S
C319 C320 1.369 . S
C319 H328 0.929 . S
C320 N317 1.346 . S
C320 C319 1.369 . S
C320 H323 0.928 . S
C321 N317 1.345 . S
C321 C322 1.371 . S
C321 H324 0.931 . S
C322 C318 1.391 . S
C322 C321 1.371 . S
C322 H329 0.930 . S
H323 C320 0.928 . S
H324 C321 0.931 . S
H325 C301 0.930 . S
H326 C298 0.930 . S
H327 C307 0.930 . S
H328 C319 0.929 . S
H329 C322 0.930 . S
C330 C331 1.351 . S
C330 N333 1.368 . S
C330 H335 0.931 . S
C331 C330 1.351 . S
C331 N332 1.373 . S
C331 H359 0.930 . S
N332 C331 1.373 . S
N332 C334 1.340 . S
N333 C330 1.368 . S
N333 C334 1.321 . S
N333 Co336 2.135 . S
C334 N332 1.340 . S
C334 N333 1.321 . S
C334 H358 0.930 . S
H335 C330 0.931 . S
Co336 N333 2.135 . S
Co336 N339 2.121 . S
Co336 O344 2.055 . S
Co336 O347 2.039 . S
Co336 N350 2.140 . S
C337 O338 1.227 . S
C337 O347 1.265 . S
O338 C337 1.227 . S
N339 Co336 2.121 . S
N339 C341 1.375 . S
N339 C342 1.313 . S
C340 C341 1.338 . S
C340 N343 1.377 . S
C340 H360 0.930 . S
C341 N339 1.375 . S
C341 C340 1.338 . S
C341 H345 0.931 . S
C342 N339 1.313 . S
C342 N343 1.344 . S
C342 H346 0.930 . S
N343 C340 1.377 . S
N343 C342 1.344 . S
O344 Co336 2.055 . S
O344 C348 1.253 . S
H345 C341 0.931 . S
H346 C342 0.930 . S
O347 Co336 2.039 . S
O347 C337 1.265 . S
C348 O344 1.253 . S
C348 O349 1.227 . S
O349 C348 1.227 . S
N350 Co336 2.140 . S
N350 C353 1.346 . S
N350 C354 1.345 . S
C351 C352 1.387 . S
C351 C355 1.391 . S
C352 C351 1.387 . S
C352 C353 1.369 . S
C352 H361 0.929 . S
C353 N350 1.346 . S
C353 C352 1.369 . S
C353 H356 0.928 . S
C354 N350 1.345 . S
C354 C355 1.371 . S
C354 H357 0.931 . S
C355 C351 1.391 . S
C355 C354 1.371 . S
C355 H362 0.930 . S
H356 C353 0.928 . S
H357 C354 0.931 . S
H358 C334 0.930 . S
H359 C331 0.930 . S
H360 C340 0.930 . S
H361 C352 0.929 . S
H362 C355 0.930 . S
C363 C364 1.351 . S
C363 N366 1.368 . S
C363 H368 0.931 . S
C364 C363 1.351 . S
C364 N365 1.373 . S
C364 H392 0.930 . S
N365 C364 1.373 . S
N365 C367 1.340 . S
N366 C363 1.368 . S
N366 C367 1.321 . S
N366 Co369 2.135 . S
C367 N365 1.340 . S
C367 N366 1.321 . S
C367 H391 0.930 . S
H368 C363 0.931 . S
Co369 N366 2.135 . S
Co369 N372 2.121 . S
Co369 O377 2.055 . S
Co369 O380 2.039 . S
Co369 N383 2.140 . S
C370 O371 1.227 . S
C370 O380 1.265 . S
O371 C370 1.227 . S
N372 Co369 2.121 . S
N372 C374 1.375 . S
N372 C375 1.313 . S
C373 C374 1.338 . S
C373 N376 1.377 . S
C373 H393 0.930 . S
C374 N372 1.375 . S
C374 C373 1.338 . S
C374 H378 0.931 . S
C375 N372 1.313 . S
C375 N376 1.344 . S
C375 H379 0.930 . S
N376 C373 1.377 . S
N376 C375 1.344 . S
O377 Co369 2.055 . S
O377 C381 1.253 . S
H378 C374 0.931 . S
H379 C375 0.930 . S
O380 Co369 2.039 . S
O380 C370 1.265 . S
C381 O377 1.253 . S
C381 O382 1.227 . S
O382 C381 1.227 . S
N383 Co369 2.140 . S
N383 C386 1.346 . S
N383 C387 1.345 . S
C384 C385 1.387 . S
C384 C388 1.391 . S
C385 C384 1.387 . S
C385 C386 1.369 . S
C385 H394 0.929 . S
C386 N383 1.346 . S
C386 C385 1.369 . S
C386 H389 0.928 . S
C387 N383 1.345 . S
C387 C388 1.371 . S
C387 H390 0.931 . S
C388 C384 1.391 . S
C388 C387 1.371 . S
C388 H395 0.930 . S
H389 C386 0.928 . S
H390 C387 0.931 . S
H391 C367 0.930 . S
H392 C364 0.930 . S
H393 C373 0.930 . S
H394 C385 0.929 . S
H395 C388 0.930 . S
C396 C397 1.351 . S
C396 N399 1.368 . S
C396 H401 0.931 . S
C397 C396 1.351 . S
C397 N398 1.373 . S
C397 H425 0.930 . S
N398 C397 1.373 . S
N398 C400 1.340 . S
N399 C396 1.368 . S
N399 C400 1.321 . S
N399 Co402 2.135 . S
C400 N398 1.340 . S
C400 N399 1.321 . S
C400 H424 0.930 . S
H401 C396 0.931 . S
Co402 N399 2.135 . S
Co402 N405 2.121 . S
Co402 O410 2.055 . S
Co402 O413 2.039 . S
Co402 N416 2.140 . S
C403 O404 1.227 . S
C403 O413 1.265 . S
O404 C403 1.227 . S
N405 Co402 2.121 . S
N405 C407 1.375 . S
N405 C408 1.313 . S
C406 C407 1.338 . S
C406 N409 1.377 . S
C406 H426 0.930 . S
C407 N405 1.375 . S
C407 C406 1.338 . S
C407 H411 0.931 . S
C408 N405 1.313 . S
C408 N409 1.344 . S
C408 H412 0.930 . S
N409 C406 1.377 . S
N409 C408 1.344 . S
O410 Co402 2.055 . S
O410 C414 1.253 . S
H411 C407 0.931 . S
H412 C408 0.930 . S
O413 Co402 2.039 . S
O413 C403 1.265 . S
C414 O410 1.253 . S
C414 O415 1.227 . S
O415 C414 1.227 . S
N416 Co402 2.140 . S
N416 C419 1.346 . S
N416 C420 1.345 . S
C417 C418 1.387 . S
C417 C421 1.391 . S
C418 C417 1.387 . S
C418 C419 1.369 . S
C418 H427 0.929 . S
C419 N416 1.346 . S
C419 C418 1.369 . S
C419 H422 0.928 . S
C420 N416 1.345 . S
C420 C421 1.371 . S
C420 H423 0.931 . S
C421 C417 1.391 . S
C421 C420 1.371 . S
C421 H428 0.930 . S
H422 C419 0.928 . S
H423 C420 0.931 . S
H424 C400 0.930 . S
H425 C397 0.930 . S
H426 C406 0.930 . S
H427 C418 0.929 . S
H428 C421 0.930 . S
C429 C430 1.351 . S
C429 N432 1.368 . S
C429 H434 0.931 . S
C430 C429 1.351 . S
C430 N431 1.373 . S
C430 H458 0.930 . S
N431 C430 1.373 . S
N431 C433 1.340 . S
N432 C429 1.368 . S
N432 C433 1.321 . S
N432 Co435 2.135 . S
C433 N431 1.340 . S
C433 N432 1.321 . S
C433 H457 0.930 . S
H434 C429 0.931 . S
Co435 N432 2.135 . S
Co435 N438 2.121 . S
Co435 O443 2.055 . S
Co435 O446 2.039 . S
Co435 N449 2.140 . S
C436 O437 1.227 . S
C436 O446 1.265 . S
O437 C436 1.227 . S
N438 Co435 2.121 . S
N438 C440 1.375 . S
N438 C441 1.313 . S
C439 C440 1.338 . S
C439 N442 1.377 . S
C439 H459 0.930 . S
C440 N438 1.375 . S
C440 C439 1.338 . S
C440 H444 0.931 . S
C441 N438 1.313 . S
C441 N442 1.344 . S
C441 H445 0.930 . S
N442 C439 1.377 . S
N442 C441 1.344 . S
O443 Co435 2.055 . S
O443 C447 1.253 . S
H444 C440 0.931 . S
H445 C441 0.930 . S
O446 Co435 2.039 . S
O446 C436 1.265 . S
C447 O443 1.253 . S
C447 O448 1.227 . S
O448 C447 1.227 . S
N449 Co435 2.140 . S
N449 C452 1.346 . S
N449 C453 1.345 . S
C450 C451 1.387 . S
C450 C454 1.391 . S
C451 C450 1.387 . S
C451 C452 1.369 . S
C451 H460 0.929 . S
C452 N449 1.346 . S
C452 C451 1.369 . S
C452 H455 0.928 . S
C453 N449 1.345 . S
C453 C454 1.371 . S
C453 H456 0.931 . S
C454 C450 1.391 . S
C454 C453 1.371 . S
C454 H461 0.930 . S
H455 C452 0.928 . S
H456 C453 0.931 . S
H457 C433 0.930 . S
H458 C430 0.930 . S
H459 C439 0.930 . S
H460 C451 0.929 . S
H461 C454 0.930 . S
C462 C463 1.351 . S
C462 N465 1.368 . S
C462 H467 0.931 . S
C463 C462 1.351 . S
C463 N464 1.373 . S
C463 H491 0.930 . S
N464 C463 1.373 . S
N464 C466 1.340 . S
N465 C462 1.368 . S
N465 C466 1.321 . S
N465 Co468 2.135 . S
C466 N464 1.340 . S
C466 N465 1.321 . S
C466 H490 0.930 . S
H467 C462 0.931 . S
Co468 N465 2.135 . S
Co468 N471 2.121 . S
Co468 O476 2.055 . S
Co468 O479 2.039 . S
Co468 N482 2.140 . S
C469 O470 1.227 . S
C469 O479 1.265 . S
O470 C469 1.227 . S
N471 Co468 2.121 . S
N471 C473 1.375 . S
N471 C474 1.313 . S
C472 C473 1.338 . S
C472 N475 1.377 . S
C472 H492 0.930 . S
C473 N471 1.375 . S
C473 C472 1.338 . S
C473 H477 0.931 . S
C474 N471 1.313 . S
C474 N475 1.344 . S
C474 H478 0.930 . S
N475 C472 1.377 . S
N475 C474 1.344 . S
O476 Co468 2.055 . S
O476 C480 1.253 . S
H477 C473 0.931 . S
H478 C474 0.930 . S
O479 Co468 2.039 . S
O479 C469 1.265 . S
C480 O476 1.253 . S
C480 O481 1.227 . S
O481 C480 1.227 . S
N482 Co468 2.140 . S
N482 C485 1.346 . S
N482 C486 1.345 . S
C483 C484 1.387 . S
C483 C487 1.391 . S
C484 C483 1.387 . S
C484 C485 1.369 . S
C484 H493 0.929 . S
C485 N482 1.346 . S
C485 C484 1.369 . S
C485 H488 0.928 . S
C486 N482 1.345 . S
C486 C487 1.371 . S
C486 H489 0.931 . S
C487 C483 1.391 . S
C487 C486 1.371 . S
C487 H494 0.930 . S
H488 C485 0.928 . S
H489 C486 0.931 . S
H490 C466 0.930 . S
H491 C463 0.930 . S
H492 C472 0.930 . S
H493 C484 0.929 . S
H494 C487 0.930 . S
C495 C496 1.351 . S
C495 N498 1.368 . S
C495 H500 0.931 . S
C496 C495 1.351 . S
C496 N497 1.373 . S
C496 H524 0.930 . S
N497 C496 1.373 . S
N497 C499 1.340 . S
N498 C495 1.368 . S
N498 C499 1.321 . S
N498 Co501 2.135 . S
C499 N497 1.340 . S
C499 N498 1.321 . S
C499 H523 0.930 . S
H500 C495 0.931 . S
Co501 N498 2.135 . S
Co501 N504 2.121 . S
Co501 O509 2.055 . S
Co501 O512 2.039 . S
Co501 N515 2.140 . S
C502 O503 1.227 . S
C502 O512 1.265 . S
O503 C502 1.227 . S
N504 Co501 2.121 . S
N504 C506 1.375 . S
N504 C507 1.313 . S
C505 C506 1.338 . S
C505 N508 1.377 . S
C505 H525 0.930 . S
C506 N504 1.375 . S
C506 C505 1.338 . S
C506 H510 0.931 . S
C507 N504 1.313 . S
C507 N508 1.344 . S
C507 H511 0.930 . S
N508 C505 1.377 . S
N508 C507 1.344 . S
O509 Co501 2.055 . S
O509 C513 1.253 . S
H510 C506 0.931 . S
H511 C507 0.930 . S
O512 Co501 2.039 . S
O512 C502 1.265 . S
C513 O509 1.253 . S
C513 O514 1.227 . S
O514 C513 1.227 . S
N515 Co501 2.140 . S
N515 C518 1.346 . S
N515 C519 1.345 . S
C516 C517 1.387 . S
C516 C520 1.391 . S
C517 C516 1.387 . S
C517 C518 1.369 . S
C517 H526 0.929 . S
C518 N515 1.346 . S
C518 C517 1.369 . S
C518 H521 0.928 . S
C519 N515 1.345 . S
C519 C520 1.371 . S
C519 H522 0.931 . S
C520 C516 1.391 . S
C520 C519 1.371 . S
C520 H527 0.930 . S
H521 C518 0.928 . S
H522 C519 0.931 . S
H523 C499 0.930 . S
H524 C496 0.930 . S
H525 C505 0.930 . S
H526 C517 0.929 . S
H527 C520 0.930 . S
C528 C529 1.351 . S
C528 N531 1.368 . S
C528 H533 0.931 . S
C529 C528 1.351 . S
C529 N530 1.373 . S
C529 H557 0.930 . S
N530 C529 1.373 . S
N530 C532 1.340 . S
N531 C528 1.368 . S
N531 C532 1.321 . S
N531 Co534 2.135 . S
C532 N530 1.340 . S
C532 N531 1.321 . S
C532 H556 0.930 . S
H533 C528 0.931 . S
Co534 N531 2.135 . S
Co534 N537 2.121 . S
Co534 O542 2.055 . S
Co534 O545 2.039 . S
Co534 N548 2.140 . S
C535 O536 1.227 . S
C535 O545 1.265 . S
O536 C535 1.227 . S
N537 Co534 2.121 . S
N537 C539 1.375 . S
N537 C540 1.313 . S
C538 C539 1.338 . S
C538 N541 1.377 . S
C538 H558 0.930 . S
C539 N537 1.375 . S
C539 C538 1.338 . S
C539 H543 0.931 . S
C540 N537 1.313 . S
C540 N541 1.344 . S
C540 H544 0.930 . S
N541 C538 1.377 . S
N541 C540 1.344 . S
O542 Co534 2.055 . S
O542 C546 1.253 . S
H543 C539 0.931 . S
H544 C540 0.930 . S
O545 Co534 2.039 . S
O545 C535 1.265 . S
C546 O542 1.253 . S
C546 O547 1.227 . S
O547 C546 1.227 . S
N548 Co534 2.140 . S
N548 C551 1.346 . S
N548 C552 1.345 . S
C549 C550 1.387 . S
C549 C553 1.391 . S
C550 C549 1.387 . S
C550 C551 1.369 . S
C550 H559 0.929 . S
C551 N548 1.346 . S
C551 C550 1.369 . S
C551 H554 0.928 . S
C552 N548 1.345 . S
C552 C553 1.371 . S
C552 H555 0.931 . S
C553 C549 1.391 . S
C553 C552 1.371 . S
C553 H560 0.930 . S
H554 C551 0.928 . S
H555 C552 0.931 . S
H556 C532 0.930 . S
H557 C529 0.930 . S
H558 C538 0.930 . S
H559 C550 0.929 . S
H560 C553 0.930 . S
C561 C562 1.351 . S
C561 N564 1.368 . S
C561 H566 0.931 . S
C562 C561 1.351 . S
C562 N563 1.373 . S
C562 H590 0.930 . S
N563 C562 1.373 . S
N563 C565 1.340 . S
N564 C561 1.368 . S
N564 C565 1.321 . S
N564 Co567 2.135 . S
C565 N563 1.340 . S
C565 N564 1.321 . S
C565 H589 0.930 . S
H566 C561 0.931 . S
Co567 N564 2.135 . S
Co567 N570 2.121 . S
Co567 O575 2.055 . S
Co567 O578 2.039 . S
Co567 N581 2.140 . S
C568 O569 1.227 . S
C568 O578 1.265 . S
O569 C568 1.227 . S
N570 Co567 2.121 . S
N570 C572 1.375 . S
N570 C573 1.313 . S
C571 C572 1.338 . S
C571 N574 1.377 . S
C571 H591 0.930 . S
C572 N570 1.375 . S
C572 C571 1.338 . S
C572 H576 0.931 . S
C573 N570 1.313 . S
C573 N574 1.344 . S
C573 H577 0.930 . S
N574 C571 1.377 . S
N574 C573 1.344 . S
O575 Co567 2.055 . S
O575 C579 1.253 . S
H576 C572 0.931 . S
H577 C573 0.930 . S
O578 Co567 2.039 . S
O578 C568 1.265 . S
C579 O575 1.253 . S
C579 O580 1.227 . S
O580 C579 1.227 . S
N581 Co567 2.140 . S
N581 C584 1.346 . S
N581 C585 1.345 . S
C582 C583 1.387 . S
C582 C586 1.391 . S
C583 C582 1.387 . S
C583 C584 1.369 . S
C583 H592 0.929 . S
C584 N581 1.346 . S
C584 C583 1.369 . S
C584 H587 0.928 . S
C585 N581 1.345 . S
C585 C586 1.371 . S
C585 H588 0.931 . S
C586 C582 1.391 . S
C586 C585 1.371 . S
C586 H593 0.930 . S
H587 C584 0.928 . S
H588 C585 0.931 . S
H589 C565 0.930 . S
H590 C562 0.930 . S
H591 C571 0.930 . S
H592 C583 0.929 . S
H593 C586 0.930 . S
H594 C612 0.951 . S
H595 C614 0.951 . S
H596 C616 0.950 . S
H597 C617 0.950 . S
H598 C619 0.950 . S
H599 C622 0.950 . S
H600 C623 0.950 . S
H601 C625 0.950 . S
H602 C626 0.950 . S
H603 C627 0.951 . S
H604 C629 0.951 . S
H605 C631 0.950 . S
H606 C632 0.950 . S
H607 C634 0.950 . S
H608 C637 0.950 . S
H609 C638 0.950 . S
H610 C640 0.950 . S
H611 C641 0.950 . S
C612 H594 0.951 . S
C612 C613 1.366 . S
C612 C614 1.388 . S
C613 C612 1.366 . S
C613 C617 1.385 . S
C614 H595 0.951 . S
C614 C612 1.388 . S
C614 C615 1.366 . S
C615 C614 1.366 . S
C615 C616 1.414 . S
C615 C618 1.499 . S
C616 H596 0.950 . S
C616 C615 1.414 . S
C616 C617 1.374 . S
C617 H597 0.950 . S
C617 C613 1.385 . S
C617 C616 1.374 . S
C618 C615 1.499 . S
C618 C619 1.373 . S
C618 C620 1.389 . S
C619 H598 0.950 . S
C619 C618 1.373 . S
C619 C635 1.377 . S
C620 C618 1.389 . S
C620 C621 1.524 . S
C620 C634 1.377 . S
C621 C620 1.524 . S
C621 C622 1.397 . S
C621 C626 1.363 . S
C622 H599 0.950 . S
C622 C621 1.397 . S
C622 C623 1.334 . S
C623 H600 0.950 . S
C623 C622 1.334 . S
C623 C624 1.287 . S
C624 C623 1.287 . S
C624 C625 1.524 . S
C624 H643 0.913 . S
C625 H601 0.950 . S
C625 C624 1.524 . S
C625 C626 1.415 . S
C626 H602 0.950 . S
C626 C621 1.363 . S
C626 C625 1.415 . S
C627 H603 0.951 . S
C627 C628 1.366 . S
C627 C629 1.388 . S
C628 C627 1.366 . S
C628 C632 1.385 . S
C629 H604 0.951 . S
C629 C627 1.388 . S
C629 C630 1.366 . S
C630 C629 1.366 . S
C630 C631 1.414 . S
C630 C633 1.499 . S
C631 H605 0.950 . S
C631 C630 1.414 . S
C631 C632 1.374 . S
C632 H606 0.950 . S
C632 C628 1.385 . S
C632 C631 1.374 . S
C633 C630 1.499 . S
C633 C634 1.373 . S
C633 C635 1.389 . S
C634 H607 0.950 . S
C634 C620 1.377 . S
C634 C633 1.373 . S
C635 C619 1.377 . S
C635 C633 1.389 . S
C635 C636 1.524 . S
C636 C635 1.524 . S
C636 C637 1.397 . S
C636 C641 1.363 . S
C637 H608 0.950 . S
C637 C636 1.397 . S
C637 C638 1.334 . S
C638 H609 0.950 . S
C638 C637 1.334 . S
C638 C639 1.287 . S
C639 C638 1.287 . S
C639 C640 1.524 . S
C639 H642 0.999 . S
C640 H610 0.950 . S
C640 C639 1.524 . S
C640 C641 1.415 . S
C641 H611 0.950 . S
C641 C636 1.363 . S
C641 C640 1.415 . S
H642 C639 0.999 . S
H643 C624 0.913 . S
H644 C662 0.951 . S
H645 C664 0.951 . S
H646 C666 0.950 . S
H647 C667 0.950 . S
H648 C669 0.950 . S
H649 C672 0.950 . S
H650 C673 0.950 . S
H651 C675 0.950 . S
H652 C676 0.950 . S
H653 C677 0.951 . S
H654 C679 0.951 . S
H655 C681 0.950 . S
H656 C682 0.950 . S
H657 C684 0.950 . S
H658 C687 0.950 . S
H659 C688 0.950 . S
H660 C690 0.950 . S
H661 C691 0.950 . S
C662 H644 0.951 . S
C662 C663 1.366 . S
C662 C664 1.388 1_565 S
C663 C662 1.366 . S
C663 C667 1.385 . S
C664 H645 0.951 . S
C664 C662 1.388 1_545 S
C664 C665 1.366 . S
C665 C664 1.366 . S
C665 C666 1.414 1_545 S
C665 C668 1.499 . S
C666 H646 0.950 . S
C666 C665 1.414 1_565 S
C666 C667 1.374 . S
C667 H647 0.950 . S
C667 C663 1.385 . S
C667 C666 1.374 . S
C668 C665 1.499 . S
C668 C669 1.373 . S
C668 C670 1.389 . S
C669 H648 0.950 . S
C669 C668 1.373 . S
C669 C685 1.377 . S
C670 C668 1.389 . S
C670 C671 1.524 . S
C670 C684 1.377 . S
C671 C670 1.524 . S
C671 C672 1.397 1_545 S
C671 C676 1.363 . S
C672 H649 0.950 . S
C672 C671 1.397 1_565 S
C672 C673 1.334 . S
C673 H650 0.950 . S
C673 C672 1.334 . S
C673 C674 1.287 . S
C674 C673 1.287 . S
C674 C675 1.524 1_565 S
C674 H693 0.913 . S
C675 H651 0.950 . S
C675 C674 1.524 1_545 S
C675 C676 1.415 . S
C676 H652 0.950 . S
C676 C671 1.363 . S
C676 C675 1.415 . S
C677 H653 0.951 . S
C677 C678 1.366 . S
C677 C679 1.388 . S
C678 C677 1.366 . S
C678 C682 1.385 . S
C679 H654 0.951 . S
C679 C677 1.388 . S
C679 C680 1.366 . S
C680 C679 1.366 . S
C680 C681 1.414 . S
C680 C683 1.499 . S
C681 H655 0.950 . S
C681 C680 1.414 . S
C681 C682 1.374 . S
C682 H656 0.950 . S
C682 C678 1.385 . S
C682 C681 1.374 . S
C683 C680 1.499 . S
C683 C684 1.373 . S
C683 C685 1.389 . S
C684 H657 0.950 . S
C684 C670 1.377 . S
C684 C683 1.373 . S
C685 C669 1.377 . S
C685 C683 1.389 . S
C685 C686 1.524 . S
C686 C685 1.524 . S
C686 C687 1.397 . S
C686 C691 1.363 . S
C687 H658 0.950 . S
C687 C686 1.397 . S
C687 C688 1.334 . S
C688 H659 0.950 . S
C688 C687 1.334 . S
C688 C689 1.287 . S
C689 C688 1.287 . S
C689 C690 1.524 . S
C689 H692 0.999 . S
C690 H660 0.950 . S
C690 C689 1.524 . S
C690 C691 1.415 . S
C691 H661 0.950 . S
C691 C686 1.363 . S
C691 C690 1.415 . S
H692 C689 0.999 . S
H693 C674 0.913 . S
H694 C712 0.951 . S
H695 C714 0.951 . S
H696 C716 0.950 . S
H697 C717 0.950 1_655 S
H698 C719 0.950 . S
H699 C722 0.950 . S
H700 C723 0.950 . S
H701 C725 0.950 . S
H702 C726 0.950 . S
H703 C727 0.951 . S
H704 C729 0.951 . S
H705 C731 0.950 . S
H706 C732 0.950 . S
H707 C734 0.950 . S
H708 C737 0.950 . S
H709 C738 0.950 . S
H710 C740 0.950 . S
H711 C741 0.950 . S
C712 H694 0.951 . S
C712 C713 1.366 . S
C712 C714 1.388 . S
C713 C712 1.366 . S
C713 C717 1.385 . S
C714 H695 0.951 . S
C714 C712 1.388 . S
C714 C715 1.366 1_455 S
C715 C714 1.366 1_655 S
C715 C716 1.414 . S
C715 C718 1.499 . S
C716 H696 0.950 . S
C716 C715 1.414 . S
C716 C717 1.374 1_655 S
C717 H697 0.950 1_455 S
C717 C713 1.385 . S
C717 C716 1.374 1_455 S
C718 C715 1.499 . S
C718 C719 1.373 . S
C718 C720 1.389 . S
C719 H698 0.950 . S
C719 C718 1.373 . S
C719 C735 1.377 . S
C720 C718 1.389 . S
C720 C721 1.524 . S
C720 C734 1.377 . S
C721 C720 1.524 . S
C721 C722 1.397 . S
C721 C726 1.363 . S
C722 H699 0.950 . S
C722 C721 1.397 . S
C722 C723 1.334 . S
C723 H700 0.950 . S
C723 C722 1.334 . S
C723 C724 1.332 . S
C724 C723 1.332 . S
C724 C725 1.504 1_655 S
C724 H743 0.882 1_655 S
C725 H701 0.950 . S
C725 C724 1.504 1_455 S
C725 C726 1.415 1_455 S
C726 H702 0.950 . S
C726 C721 1.363 . S
C726 C725 1.415 1_655 S
C727 H703 0.951 . S
C727 C728 1.366 . S
C727 C729 1.388 . S
C728 C727 1.366 . S
C728 C732 1.385 . S
C729 H704 0.951 . S
C729 C727 1.388 . S
C729 C730 1.366 . S
C730 C729 1.366 . S
C730 C731 1.414 . S
C730 C733 1.499 . S
C731 H705 0.950 . S
C731 C730 1.414 . S
C731 C732 1.374 . S
C732 H706 0.950 . S
C732 C728 1.385 . S
C732 C731 1.374 . S
C733 C730 1.499 . S
C733 C734 1.373 . S
C733 C735 1.389 . S
C734 H707 0.950 . S
C734 C720 1.377 . S
C734 C733 1.373 . S
C735 C719 1.377 . S
C735 C733 1.389 . S
C735 C736 1.524 . S
C736 C735 1.524 . S
C736 C737 1.397 . S
C736 C741 1.363 . S
C737 H708 0.950 . S
C737 C736 1.397 . S
C737 C738 1.334 . S
C738 H709 0.950 . S
C738 C737 1.334 . S
C738 C739 1.287 . S
C739 C738 1.287 . S
C739 C740 1.524 . S
C739 H742 0.999 . S
C740 H710 0.950 . S
C740 C739 1.524 . S
C740 C741 1.415 . S
C741 H711 0.950 . S
C741 C736 1.363 . S
C741 C740 1.415 . S
H742 C739 0.999 . S
H743 C724 0.882 1_455 S
H744 C762 0.951 . S
H745 C764 0.951 . S
H746 C766 0.950 . S
H747 C767 0.950 . S
H748 C769 0.950 . S
H749 C772 0.950 . S
H750 C773 0.950 . S
H751 C775 0.950 . S
H752 C776 0.950 . S
H753 C777 0.951 . S
H754 C779 0.951 . S
H755 C781 0.950 . S
H756 C782 0.950 . S
H757 C784 0.950 . S
H758 C787 0.950 . S
H759 C788 0.950 . S
H760 C790 0.950 . S
H761 C791 0.950 . S
C762 H744 0.951 . S
C762 C763 1.366 . S
C762 C764 1.388 . S
C763 C762 1.366 . S
C763 C767 1.385 . S
C764 H745 0.951 . S
C764 C762 1.388 . S
C764 C765 1.366 . S
C765 C764 1.366 . S
C765 C766 1.414 . S
C765 C768 1.499 . S
C766 H746 0.950 . S
C766 C765 1.414 . S
C766 C767 1.374 . S
C767 H747 0.950 . S
C767 C763 1.385 . S
C767 C766 1.374 . S
C768 C765 1.499 . S
C768 C769 1.373 . S
C768 C770 1.389 . S
C769 H748 0.950 . S
C769 C768 1.373 . S
C769 C785 1.377 . S
C770 C768 1.389 . S
C770 C771 1.524 . S
C770 C784 1.377 . S
C771 C770 1.524 . S
C771 C772 1.397 . S
C771 C776 1.363 . S
C772 H749 0.950 . S
C772 C771 1.397 . S
C772 C773 1.334 . S
C773 H750 0.950 . S
C773 C772 1.334 . S
C773 C774 1.287 . S
C774 C773 1.287 . S
C774 C775 1.524 . S
C774 H793 0.913 . S
C775 H751 0.950 . S
C775 C774 1.524 . S
C775 C776 1.415 . S
C776 H752 0.950 . S
C776 C771 1.363 . S
C776 C775 1.415 . S
C777 H753 0.951 . S
C777 C778 1.366 . S
C777 C779 1.388 . S
C778 C777 1.366 . S
C778 C782 1.385 . S
C779 H754 0.951 . S
C779 C777 1.388 . S
C779 C780 1.366 . S
C780 C779 1.366 . S
C780 C781 1.414 . S
C780 C783 1.499 . S
C781 H755 0.950 . S
C781 C780 1.414 . S
C781 C782 1.374 . S
C782 H756 0.950 . S
C782 C778 1.385 . S
C782 C781 1.374 . S
C783 C780 1.499 . S
C783 C784 1.373 . S
C783 C785 1.389 . S
C784 H757 0.950 . S
C784 C770 1.377 . S
C784 C783 1.373 . S
C785 C769 1.377 . S
C785 C783 1.389 . S
C785 C786 1.524 . S
C786 C785 1.524 . S
C786 C787 1.397 . S
C786 C791 1.363 . S
C787 H758 0.950 . S
C787 C786 1.397 . S
C787 C788 1.334 . S
C788 H759 0.950 . S
C788 C787 1.334 . S
C788 C789 1.287 . S
C789 C788 1.287 . S
C789 C790 1.524 . S
C789 H792 0.999 . S
C790 H760 0.950 . S
C790 C789 1.524 . S
C790 C791 1.415 . S
C791 H761 0.950 . S
C791 C786 1.363 . S
C791 C790 1.415 . S
H792 C789 0.999 . S
H793 C774 0.913 . S
H794 C812 0.951 . S
H795 C814 0.951 . S
H796 C816 0.950 . S
H797 C817 0.950 1_565 S
H798 C819 0.950 . S
H799 C822 0.956 . S
H800 C823 0.950 . S
H801 C825 0.950 . S
H802 C826 0.950 . S
H803 C827 0.951 . S
H804 C829 0.951 . S
H805 C831 0.950 . S
H806 C832 0.950 . S
H807 C834 0.950 . S
H808 C837 0.950 . S
H809 C838 0.950 . S
H810 C840 0.950 . S
H811 C841 0.950 . S
C812 H794 0.951 . S
C812 C813 1.366 . S
C812 C814 1.388 . S
C813 C812 1.366 . S
C813 C817 1.385 . S
C814 H795 0.951 . S
C814 C812 1.388 . S
C814 C815 1.366 1_545 S
C815 C814 1.366 1_565 S
C815 C816 1.414 . S
C815 C818 1.499 . S
C816 H796 0.950 . S
C816 C815 1.414 . S
C816 C817 1.374 1_565 S
C817 H797 0.950 1_545 S
C817 C813 1.385 . S
C817 C816 1.374 1_545 S
C818 C815 1.499 . S
C818 C819 1.373 . S
C818 C820 1.389 . S
C819 H798 0.950 . S
C819 C818 1.373 . S
C819 C835 1.377 . S
C820 C818 1.389 . S
C820 C821 1.524 . S
C820 C834 1.377 . S
C821 C820 1.524 . S
C821 C822 1.409 . S
C821 C826 1.363 1_565 S
C822 H799 0.956 . S
C822 C821 1.409 . S
C822 C823 1.316 1_565 S
C823 H800 0.950 . S
C823 C822 1.316 1_545 S
C823 C824 1.287 . S
C824 C823 1.287 . S
C824 C825 1.524 . S
C824 H843 0.913 . S
C825 H801 0.950 . S
C825 C824 1.524 . S
C825 C826 1.415 . S
C826 H802 0.950 . S
C826 C821 1.363 1_545 S
C826 C825 1.415 . S
C827 H803 0.951 . S
C827 C828 1.366 . S
C827 C829 1.388 . S
C828 C827 1.366 . S
C828 C832 1.385 . S
C829 H804 0.951 . S
C829 C827 1.388 . S
C829 C830 1.366 . S
C830 C829 1.366 . S
C830 C831 1.414 . S
C830 C833 1.499 . S
C831 H805 0.950 . S
C831 C830 1.414 . S
C831 C832 1.374 . S
C832 H806 0.950 . S
C832 C828 1.385 . S
C832 C831 1.374 . S
C833 C830 1.499 . S
C833 C834 1.373 . S
C833 C835 1.389 . S
C834 H807 0.950 . S
C834 C820 1.377 . S
C834 C833 1.373 . S
C835 C819 1.377 . S
C835 C833 1.389 . S
C835 C836 1.524 . S
C836 C835 1.524 . S
C836 C837 1.397 . S
C836 C841 1.363 . S
C837 H808 0.950 . S
C837 C836 1.397 . S
C837 C838 1.334 . S
C838 H809 0.950 . S
C838 C837 1.334 . S
C838 C839 1.287 . S
C839 C838 1.287 . S
C839 C840 1.524 . S
C839 H842 0.999 . S
C840 H810 0.950 . S
C840 C839 1.524 . S
C840 C841 1.415 . S
C841 H811 0.950 . S
C841 C836 1.363 . S
C841 C840 1.415 . S
H842 C839 0.999 . S
H843 C824 0.913 . S
H844 C862 0.951 . S
H845 C864 0.951 . S
H846 C866 0.950 . S
H847 C867 0.950 . S
H848 C869 0.950 . S
H849 C872 0.950 . S
H850 C873 0.950 . S
H851 C875 0.950 . S
H852 C876 0.950 . S
H853 C877 0.951 . S
H854 C879 0.951 . S
H855 C881 0.950 . S
H856 C882 0.950 . S
H857 C884 0.950 . S
H858 C887 0.950 . S
H859 C888 0.950 . S
H860 C890 0.950 . S
H861 C891 0.950 . S
C862 H844 0.951 . S
C862 C863 1.366 . S
C862 C864 1.388 1_655 S
C863 C862 1.366 . S
C863 C867 1.385 . S
C864 H845 0.951 . S
C864 C862 1.388 1_455 S
C864 C865 1.366 . S
C865 C864 1.366 . S
C865 C866 1.414 1_455 S
C865 C868 1.499 . S
C866 H846 0.950 . S
C866 C865 1.414 1_655 S
C866 C867 1.374 . S
C867 H847 0.950 . S
C867 C863 1.385 . S
C867 C866 1.374 . S
C868 C865 1.499 . S
C868 C869 1.373 . S
C868 C870 1.389 . S
C869 H848 0.950 . S
C869 C868 1.373 . S
C869 C885 1.377 . S
C870 C868 1.389 . S
C870 C871 1.524 . S
C870 C884 1.377 . S
C871 C870 1.524 . S
C871 C872 1.397 1_455 S
C871 C876 1.363 . S
C872 H849 0.950 . S
C872 C871 1.397 1_655 S
C872 C873 1.334 . S
C873 H850 0.950 . S
C873 C872 1.334 . S
C873 C874 1.274 1_655 S
C874 C873 1.274 1_455 S
C874 C875 1.564 . S
C874 H893 0.887 1_455 S
C875 H851 0.950 . S
C875 C874 1.564 . S
C875 C876 1.415 . S
C876 H852 0.950 . S
C876 C871 1.363 . S
C876 C875 1.415 . S
C877 H853 0.951 . S
C877 C878 1.366 . S
C877 C879 1.388 . S
C878 C877 1.366 . S
C878 C882 1.385 . S
C879 H854 0.951 . S
C879 C877 1.388 . S
C879 C880 1.366 . S
C880 C879 1.366 . S
C880 C881 1.414 . S
C880 C883 1.499 . S
C881 H855 0.950 . S
C881 C880 1.414 . S
C881 C882 1.374 . S
C882 H856 0.950 . S
C882 C878 1.385 . S
C882 C881 1.374 . S
C883 C880 1.499 . S
C883 C884 1.373 . S
C883 C885 1.389 . S
C884 H857 0.950 . S
C884 C870 1.377 . S
C884 C883 1.373 . S
C885 C869 1.377 . S
C885 C883 1.389 . S
C885 C886 1.524 . S
C886 C885 1.524 . S
C886 C887 1.397 . S
C886 C891 1.363 . S
C887 H858 0.950 . S
C887 C886 1.397 . S
C887 C888 1.334 . S
C888 H859 0.950 . S
C888 C887 1.334 . S
C888 C889 1.287 . S
C889 C888 1.287 . S
C889 C890 1.524 . S
C889 H892 0.999 . S
C890 H860 0.950 . S
C890 C889 1.524 . S
C890 C891 1.415 . S
C891 H861 0.950 . S
C891 C886 1.363 . S
C891 C890 1.415 . S
H892 C889 0.999 . S
H893 C874 0.887 1_655 S
H894 C912 0.951 . S
H895 C914 0.951 . S
H896 C916 0.950 . S
H897 C917 0.950 . S
H898 C919 0.950 . S
H899 C922 0.950 . S
H900 C923 0.950 . S
H901 C925 0.950 . S
H902 C926 0.950 . S
H903 C927 0.951 . S
H904 C929 0.951 . S
H905 C931 0.950 . S
H906 C932 0.950 . S
H907 C934 0.950 . S
H908 C937 0.950 . S
H909 C938 0.950 1_455 S
H910 C940 0.950 . S
H911 C941 0.950 . S
C912 H894 0.951 . S
C912 C913 1.366 . S
C912 C914 1.388 . S
C913 C912 1.366 . S
C913 C917 1.385 . S
C914 H895 0.951 . S
C914 C912 1.388 . S
C914 C915 1.366 . S
C915 C914 1.366 . S
C915 C916 1.414 . S
C915 C918 1.499 . S
C916 H896 0.950 . S
C916 C915 1.414 . S
C916 C917 1.374 . S
C917 H897 0.950 . S
C917 C913 1.385 . S
C917 C916 1.374 . S
C918 C915 1.499 . S
C918 C919 1.373 . S
C918 C920 1.389 . S
C919 H898 0.950 . S
C919 C918 1.373 . S
C919 C935 1.377 . S
C920 C918 1.389 . S
C920 C921 1.524 . S
C920 C934 1.377 . S
C921 C920 1.524 . S
C921 C922 1.397 . S
C921 C926 1.363 . S
C922 H899 0.950 . S
C922 C921 1.397 . S
C922 C923 1.334 . S
C923 H900 0.950 . S
C923 C922 1.334 . S
C923 C924 1.287 . S
C924 C923 1.287 . S
C924 C925 1.524 . S
C924 H943 0.913 . S
C925 H901 0.950 . S
C925 C924 1.524 . S
C925 C926 1.415 . S
C926 H902 0.950 . S
C926 C921 1.363 . S
C926 C925 1.415 . S
C927 H903 0.951 . S
C927 C928 1.366 . S
C927 C929 1.388 1_455 S
C928 C927 1.366 . S
C928 C932 1.385 . S
C929 H904 0.951 . S
C929 C927 1.388 1_655 S
C929 C930 1.366 . S
C930 C929 1.366 . S
C930 C931 1.414 1_655 S
C930 C933 1.499 . S
C931 H905 0.950 . S
C931 C930 1.414 1_455 S
C931 C932 1.374 . S
C932 H906 0.950 . S
C932 C928 1.385 . S
C932 C931 1.374 . S
C933 C930 1.499 . S
C933 C934 1.373 . S
C933 C935 1.389 . S
C934 H907 0.950 . S
C934 C920 1.377 . S
C934 C933 1.373 . S
C935 C919 1.377 . S
C935 C933 1.389 . S
C935 C936 1.524 . S
C936 C935 1.524 . S
C936 C937 1.397 . S
C936 C941 1.363 . S
C937 H908 0.950 . S
C937 C936 1.397 . S
C937 C938 1.334 . S
C938 H909 0.950 1_655 S
C938 C937 1.334 . S
C938 C939 1.287 . S
C939 C938 1.287 . S
C939 C940 1.524 . S
C939 H942 0.999 . S
C940 H910 0.950 . S
C940 C939 1.524 . S
C940 C941 1.415 . S
C941 H911 0.950 . S
C941 C936 1.363 . S
C941 C940 1.415 . S
H942 C939 0.999 . S
H943 C924 0.913 . S
H944 C962 0.951 . S
H945 C964 0.951 . S
H946 C966 0.950 . S
H947 C967 0.950 . S
H948 C969 0.950 . S
H949 C972 0.950 . S
H950 C973 0.950 . S
H951 C975 0.950 . S
H952 C976 0.950 . S
H953 C977 0.951 . S
H954 C979 0.951 . S
H955 C981 0.950 . S
H956 C982 0.950 . S
H957 C984 0.950 . S
H958 C987 0.950 . S
H959 C988 0.950 . S
H960 C990 0.950 . S
H961 C991 0.950 . S
C962 H944 0.951 . S
C962 C963 1.366 . S
C962 C964 1.388 . S
C963 C962 1.366 . S
C963 C967 1.385 . S
C964 H945 0.951 . S
C964 C962 1.388 . S
C964 C965 1.366 . S
C965 C964 1.366 . S
C965 C966 1.414 . S
C965 C968 1.499 . S
C966 H946 0.950 . S
C966 C965 1.414 . S
C966 C967 1.374 . S
C967 H947 0.950 . S
C967 C963 1.385 . S
C967 C966 1.374 . S
C968 C965 1.499 . S
C968 C969 1.373 . S
C968 C970 1.389 . S
C969 H948 0.950 . S
C969 C968 1.373 . S
C969 C985 1.377 . S
C970 C968 1.389 . S
C970 C971 1.524 . S
C970 C984 1.377 . S
C971 C970 1.524 . S
C971 C972 1.397 . S
C971 C976 1.363 . S
C972 H949 0.950 . S
C972 C971 1.397 . S
C972 C973 1.334 . S
C973 H950 0.950 . S
C973 C972 1.334 . S
C973 C974 1.287 . S
C974 C973 1.287 . S
C974 C975 1.524 . S
C974 H993 0.913 . S
C975 H951 0.950 . S
C975 C974 1.524 . S
C975 C976 1.415 . S
C976 H952 0.950 . S
C976 C971 1.363 . S
C976 C975 1.415 . S
C977 H953 0.951 . S
C977 C978 1.366 . S
C977 C979 1.388 . S
C978 C977 1.366 . S
C978 C982 1.385 . S
C979 H954 0.951 . S
C979 C977 1.388 . S
C979 C980 1.366 . S
C980 C979 1.366 . S
C980 C981 1.414 . S
C980 C983 1.499 . S
C981 H955 0.950 . S
C981 C980 1.414 . S
C981 C982 1.374 . S
C982 H956 0.950 . S
C982 C978 1.385 . S
C982 C981 1.374 . S
C983 C980 1.499 . S
C983 C984 1.373 . S
C983 C985 1.389 . S
C984 H957 0.950 . S
C984 C970 1.377 . S
C984 C983 1.373 . S
C985 C969 1.377 . S
C985 C983 1.389 . S
C985 C986 1.524 . S
C986 C985 1.524 . S
C986 C987 1.397 . S
C986 C991 1.363 . S
C987 H958 0.950 . S
C987 C986 1.397 . S
C987 C988 1.334 . S
C988 H959 0.950 . S
C988 C987 1.334 . S
C988 C989 1.287 . S
C989 C988 1.287 . S
C989 C990 1.524 . S
C989 H992 0.999 . S
C990 H960 0.950 . S
C990 C989 1.524 . S
C990 C991 1.415 . S
C991 H961 0.950 . S
C991 C986 1.363 . S
C991 C990 1.415 . S
H992 C989 0.999 . S
H993 C974 0.913 . S
H994 C1012 0.951 . S
H995 C1014 0.951 . S
H996 C1016 0.950 . S
H997 C1017 0.950 . S
H998 C1019 0.950 . S
H999 C1022 0.950 . S
H1000 C1023 0.950 1_565 S
H1001 C1025 0.950 . S
H1002 C1026 0.950 . S
H1003 C1027 0.951 . S
H1004 C1029 0.951 . S
H1005 C1031 0.950 . S
H1006 C1032 0.950 . S
H1007 C1034 0.950 . S
H1008 C1037 0.950 . S
H1009 C1038 0.950 . S
H1010 C1040 0.950 . S
H1011 C1041 0.950 . S
C1012 H994 0.951 . S
C1012 C1013 1.366 . S
C1012 C1014 1.388 1_565 S
C1013 C1012 1.366 . S
C1013 C1017 1.385 . S
C1014 H995 0.951 . S
C1014 C1012 1.388 1_545 S
C1014 C1015 1.366 . S
C1015 C1014 1.366 . S
C1015 C1016 1.414 1_545 S
C1015 C1018 1.499 . S
C1016 H996 0.950 . S
C1016 C1015 1.414 1_565 S
C1016 C1017 1.374 . S
C1017 H997 0.950 . S
C1017 C1013 1.385 . S
C1017 C1016 1.374 . S
C1018 C1015 1.499 . S
C1018 C1019 1.373 . S
C1018 C1020 1.389 . S
C1019 H998 0.950 . S
C1019 C1018 1.373 . S
C1019 C1035 1.377 . S
C1020 C1018 1.389 . S
C1020 C1021 1.524 . S
C1020 C1034 1.377 . S
C1021 C1020 1.524 . S
C1021 C1022 1.397 . S
C1021 C1026 1.363 . S
C1022 H999 0.950 . S
C1022 C1021 1.397 . S
C1022 C1023 1.334 . S
C1023 H1000 0.950 1_545 S
C1023 C1022 1.334 . S
C1023 C1024 1.287 . S
C1024 C1023 1.287 . S
C1024 C1025 1.524 . S
C1024 H1043 0.913 . S
C1025 H1001 0.950 . S
C1025 C1024 1.524 . S
C1025 C1026 1.415 . S
C1026 H1002 0.950 . S
C1026 C1021 1.363 . S
C1026 C1025 1.415 . S
C1027 H1003 0.951 . S
C1027 C1028 1.366 . S
C1027 C1029 1.388 . S
C1028 C1027 1.366 . S
C1028 C1032 1.385 . S
C1029 H1004 0.951 . S
C1029 C1027 1.388 . S
C1029 C1030 1.366 . S
C1030 C1029 1.366 . S
C1030 C1031 1.414 . S
C1030 C1033 1.499 . S
C1031 H1005 0.950 . S
C1031 C1030 1.414 . S
C1031 C1032 1.374 . S
C1032 H1006 0.950 . S
C1032 C1028 1.385 . S
C1032 C1031 1.374 . S
C1033 C1030 1.499 . S
C1033 C1034 1.373 . S
C1033 C1035 1.389 . S
C1034 H1007 0.950 . S
C1034 C1020 1.377 . S
C1034 C1033 1.373 . S
C1035 C1019 1.377 . S
C1035 C1033 1.389 . S
C1035 C1036 1.524 . S
C1036 C1035 1.524 . S
C1036 C1037 1.397 . S
C1036 C1041 1.363 . S
C1037 H1008 0.950 . S
C1037 C1036 1.397 . S
C1037 C1038 1.334 . S
C1038 H1009 0.950 . S
C1038 C1037 1.334 . S
C1038 C1039 1.287 . S
C1039 C1038 1.287 . S
C1039 C1040 1.524 . S
C1039 H1042 0.999 . S
C1040 H1010 0.950 . S
C1040 C1039 1.524 . S
C1040 C1041 1.415 . S
C1041 H1011 0.950 . S
C1041 C1036 1.363 . S
C1041 C1040 1.415 . S
H1042 C1039 0.999 . S
H1043 C1024 0.913 . S
H1044 C1062 0.951 . S
H1045 C1064 0.951 . S
H1046 C1066 0.950 . S
H1047 C1067 0.950 . S
H1048 C1069 0.950 . S
H1049 C1072 0.950 . S
H1050 C1073 0.950 . S
H1051 C1075 0.950 . S
H1052 C1076 0.950 . S
H1053 C1077 0.951 . S
H1054 C1079 0.951 . S
H1055 C1081 0.950 . S
H1056 C1082 0.950 . S
H1057 C1084 0.950 . S
H1058 C1087 0.950 . S
H1059 C1088 0.950 . S
H1060 C1090 0.950 . S
H1061 C1091 0.950 . S
C1062 H1044 0.951 . S
C1062 C1063 1.366 . S
C1062 C1064 1.388 . S
C1063 C1062 1.366 . S
C1063 C1067 1.385 . S
C1064 H1045 0.951 . S
C1064 C1062 1.388 . S
C1064 C1065 1.366 . S
C1065 C1064 1.366 . S
C1065 C1066 1.414 . S
C1065 C1068 1.499 . S
C1066 H1046 0.950 . S
C1066 C1065 1.414 . S
C1066 C1067 1.374 . S
C1067 H1047 0.950 . S
C1067 C1063 1.385 . S
C1067 C1066 1.374 . S
C1068 C1065 1.499 . S
C1068 C1069 1.373 . S
C1068 C1070 1.389 . S
C1069 H1048 0.950 . S
C1069 C1068 1.373 . S
C1069 C1085 1.377 . S
C1070 C1068 1.389 . S
C1070 C1071 1.524 . S
C1070 C1084 1.377 . S
C1071 C1070 1.524 . S
C1071 C1072 1.397 . S
C1071 C1076 1.363 1_554 S
C1072 H1049 0.950 . S
C1072 C1071 1.397 . S
C1072 C1073 1.334 . S
C1073 H1050 0.950 . S
C1073 C1072 1.334 . S
C1073 C1074 1.287 1_554 S
C1074 C1073 1.287 1_556 S
C1074 C1075 1.524 . S
C1074 H1093 0.913 . S
C1075 H1051 0.950 . S
C1075 C1074 1.524 . S
C1075 C1076 1.415 . S
C1076 H1052 0.950 . S
C1076 C1071 1.363 1_556 S
C1076 C1075 1.415 . S
C1077 H1053 0.951 . S
C1077 C1078 1.366 1_554 S
C1077 C1079 1.388 . S
C1078 C1077 1.366 1_556 S
C1078 C1082 1.385 . S
C1079 H1054 0.951 . S
C1079 C1077 1.388 . S
C1079 C1080 1.366 . S
C1080 C1079 1.366 . S
C1080 C1081 1.414 1_554 S
C1080 C1083 1.499 . S
C1081 H1055 0.950 . S
C1081 C1080 1.414 1_556 S
C1081 C1082 1.374 . S
C1082 H1056 0.950 . S
C1082 C1078 1.385 . S
C1082 C1081 1.374 . S
C1083 C1080 1.499 . S
C1083 C1084 1.373 . S
C1083 C1085 1.389 . S
C1084 H1057 0.950 . S
C1084 C1070 1.377 . S
C1084 C1083 1.373 . S
C1085 C1069 1.377 . S
C1085 C1083 1.389 . S
C1085 C1086 1.524 . S
C1086 C1085 1.524 . S
C1086 C1087 1.397 . S
C1086 C1091 1.363 . S
C1087 H1058 0.950 . S
C1087 C1086 1.397 . S
C1087 C1088 1.334 . S
C1088 H1059 0.950 . S
C1088 C1087 1.334 . S
C1088 C1089 1.287 . S
C1089 C1088 1.287 . S
C1089 C1090 1.524 . S
C1089 H1092 0.999 . S
C1090 H1060 0.950 . S
C1090 C1089 1.524 . S
C1090 C1091 1.415 . S
C1091 H1061 0.950 . S
C1091 C1086 1.363 . S
C1091 C1090 1.415 . S
H1092 C1089 0.999 . S
H1093 C1074 0.913 . S
H1094 C1112 0.951 . S
H1095 C1114 0.951 . S
H1096 C1116 0.950 . S
H1097 C1117 0.950 . S
H1098 C1119 0.950 . S
H1099 C1122 0.950 . S
H1100 C1123 0.950 . S
H1101 C1125 0.950 . S
H1102 C1126 0.950 . S
H1103 C1127 0.951 . S
H1104 C1129 0.951 . S
H1105 C1131 0.951 . S
H1106 C1132 0.950 . S
H1107 C1134 0.950 . S
H1108 C1137 0.950 . S
H1109 C1138 0.950 . S
H1110 C1140 0.950 . S
H1111 C1141 0.950 . S
C1112 H1094 0.951 . S
C1112 C1113 1.366 . S
C1112 C1114 1.388 . S
C1113 C1112 1.366 . S
C1113 C1117 1.385 . S
C1114 H1095 0.951 . S
C1114 C1112 1.388 . S
C1114 C1115 1.366 . S
C1115 C1114 1.366 . S
C1115 C1116 1.414 . S
C1115 C1118 1.499 . S
C1116 H1096 0.950 . S
C1116 C1115 1.414 . S
C1116 C1117 1.374 . S
C1117 H1097 0.950 . S
C1117 C1113 1.385 . S
C1117 C1116 1.374 . S
C1118 C1115 1.499 . S
C1118 C1119 1.373 . S
C1118 C1120 1.389 . S
C1119 H1098 0.950 . S
C1119 C1118 1.373 . S
C1119 C1135 1.377 . S
C1120 C1118 1.389 . S
C1120 C1121 1.524 . S
C1120 C1134 1.377 . S
C1121 C1120 1.524 . S
C1121 C1122 1.397 . S
C1121 C1126 1.363 . S
C1122 H1099 0.950 . S
C1122 C1121 1.397 . S
C1122 C1123 1.334 . S
C1123 H1100 0.950 . S
C1123 C1122 1.334 . S
C1123 C1124 1.287 1_554 S
C1124 C1123 1.287 1_556 S
C1124 C1125 1.524 . S
C1124 H1143 0.913 . S
C1125 H1101 0.950 . S
C1125 C1124 1.524 . S
C1125 C1126 1.415 1_556 S
C1126 H1102 0.950 . S
C1126 C1121 1.363 . S
C1126 C1125 1.415 1_554 S
C1127 H1103 0.951 . S
C1127 C1128 1.366 1_554 S
C1127 C1129 1.388 . S
C1128 C1127 1.366 1_556 S
C1128 C1132 1.385 . S
C1129 H1104 0.951 . S
C1129 C1127 1.388 . S
C1129 C1130 1.366 . S
C1130 C1129 1.366 . S
C1130 C1131 1.414 . S
C1130 C1133 1.499 . S
C1131 H1105 0.951 . S
C1131 C1130 1.414 . S
C1131 C1132 1.374 1_554 S
C1132 H1106 0.950 . S
C1132 C1128 1.385 . S
C1132 C1131 1.374 1_556 S
C1133 C1130 1.499 . S
C1133 C1134 1.373 . S
C1133 C1135 1.389 . S
C1134 H1107 0.950 . S
C1134 C1120 1.377 . S
C1134 C1133 1.373 . S
C1135 C1119 1.377 . S
C1135 C1133 1.389 . S
C1135 C1136 1.524 . S
C1136 C1135 1.524 . S
C1136 C1137 1.397 . S
C1136 C1141 1.363 . S
C1137 H1108 0.950 . S
C1137 C1136 1.397 . S
C1137 C1138 1.334 . S
C1138 H1109 0.950 . S
C1138 C1137 1.334 . S
C1138 C1139 1.287 . S
C1139 C1138 1.287 . S
C1139 C1140 1.524 . S
C1139 H1142 0.999 . S
C1140 H1110 0.950 . S
C1140 C1139 1.524 . S
C1140 C1141 1.415 . S
C1141 H1111 0.950 . S
C1141 C1136 1.363 . S
C1141 C1140 1.415 . S
H1142 C1139 0.999 . S
H1143 C1124 0.913 . S
H1144 C1162 0.951 . S
H1145 C1164 0.951 . S
H1146 C1166 0.950 . S
H1147 C1167 0.950 . S
H1148 C1169 0.950 . S
H1149 C1172 0.950 . S
H1150 C1173 0.950 . S
H1151 C1175 0.950 . S
H1152 C1176 0.950 . S
H1153 C1177 0.951 . S
H1154 C1179 0.951 . S
H1155 C1181 0.950 . S
H1156 C1182 0.950 . S
H1157 C1184 0.950 . S
H1158 C1187 0.950 . S
H1159 C1188 0.950 . S
H1160 C1190 0.950 1_556 S
H1161 C1191 0.950 . S
C1162 H1144 0.951 . S
C1162 C1163 1.366 . S
C1162 C1164 1.388 . S
C1163 C1162 1.366 . S
C1163 C1167 1.385 . S
C1164 H1145 0.951 . S
C1164 C1162 1.388 . S
C1164 C1165 1.366 . S
C1165 C1164 1.366 . S
C1165 C1166 1.414 . S
C1165 C1168 1.499 . S
C1166 H1146 0.950 . S
C1166 C1165 1.414 . S
C1166 C1167 1.374 . S
C1167 H1147 0.950 . S
C1167 C1163 1.385 . S
C1167 C1166 1.374 . S
C1168 C1165 1.499 . S
C1168 C1169 1.373 . S
C1168 C1170 1.389 . S
C1169 H1148 0.950 . S
C1169 C1168 1.373 . S
C1169 C1185 1.377 . S
C1170 C1168 1.389 . S
C1170 C1171 1.524 . S
C1170 C1184 1.377 . S
C1171 C1170 1.524 . S
C1171 C1172 1.397 . S
C1171 C1176 1.363 . S
C1172 H1149 0.950 . S
C1172 C1171 1.397 . S
C1172 C1173 1.334 . S
C1173 H1150 0.950 . S
C1173 C1172 1.334 . S
C1173 C1174 1.287 . S
C1174 C1173 1.287 . S
C1174 C1175 1.524 . S
C1174 H1193 0.913 . S
C1175 H1151 0.950 . S
C1175 C1174 1.524 . S
C1175 C1176 1.415 . S
C1176 H1152 0.950 . S
C1176 C1171 1.363 . S
C1176 C1175 1.415 . S
C1177 H1153 0.951 . S
C1177 C1178 1.366 . S
C1177 C1179 1.388 . S
C1178 C1177 1.366 . S
C1178 C1182 1.385 1_556 S
C1179 H1154 0.951 . S
C1179 C1177 1.388 . S
C1179 C1180 1.366 1_556 S
C1180 C1179 1.366 1_554 S
C1180 C1181 1.414 . S
C1180 C1183 1.499 . S
C1181 H1155 0.950 . S
C1181 C1180 1.414 . S
C1181 C1182 1.374 . S
C1182 H1156 0.950 . S
C1182 C1178 1.385 1_554 S
C1182 C1181 1.374 . S
C1183 C1180 1.499 . S
C1183 C1184 1.373 . S
C1183 C1185 1.389 . S
C1184 H1157 0.950 . S
C1184 C1170 1.377 . S
C1184 C1183 1.373 . S
C1185 C1169 1.377 . S
C1185 C1183 1.389 . S
C1185 C1186 1.524 . S
C1186 C1185 1.524 . S
C1186 C1187 1.397 . S
C1186 C1191 1.363 . S
C1187 H1158 0.950 . S
C1187 C1186 1.397 . S
C1187 C1188 1.334 . S
C1188 H1159 0.950 . S
C1188 C1187 1.334 . S
C1188 C1189 1.287 . S
C1189 C1188 1.287 . S
C1189 C1190 1.524 . S
C1189 H1192 0.999 . S
C1190 H1160 0.950 1_554 S
C1190 C1189 1.524 . S
C1190 C1191 1.415 . S
C1191 H1161 0.950 . S
C1191 C1186 1.363 . S
C1191 C1190 1.415 . S
H1192 C1189 0.999 . S
H1193 C1174 0.913 . S
H1194 C1212 0.951 . S
H1195 C1214 0.951 . S
H1196 C1216 0.950 . S
H1197 C1217 0.950 . S
H1198 C1219 0.950 . S
H1199 C1222 0.950 . S
H1200 C1223 0.950 . S
H1201 C1225 0.950 . S
H1202 C1226 0.950 . S
H1203 C1227 0.951 . S
H1204 C1229 0.951 . S
H1205 C1231 0.950 . S
H1206 C1232 0.950 . S
H1207 C1234 0.950 . S
H1208 C1237 0.950 . S
H1209 C1238 0.950 . S
H1210 C1240 0.950 . S
H1211 C1241 0.950 . S
C1212 H1194 0.951 . S
C1212 C1213 1.366 . S
C1212 C1214 1.388 . S
C1213 C1212 1.366 . S
C1213 C1217 1.385 . S
C1214 H1195 0.951 . S
C1214 C1212 1.388 . S
C1214 C1215 1.366 . S
C1215 C1214 1.366 . S
C1215 C1216 1.414 . S
C1215 C1218 1.499 . S
C1216 H1196 0.950 . S
C1216 C1215 1.414 . S
C1216 C1217 1.374 . S
C1217 H1197 0.950 . S
C1217 C1213 1.385 . S
C1217 C1216 1.374 . S
C1218 C1215 1.499 . S
C1218 C1219 1.373 . S
C1218 C1220 1.389 . S
C1219 H1198 0.950 . S
C1219 C1218 1.373 . S
C1219 C1235 1.377 . S
C1220 C1218 1.389 . S
C1220 C1221 1.524 . S
C1220 C1234 1.377 . S
C1221 C1220 1.524 . S
C1221 C1222 1.397 . S
C1221 C1226 1.363 . S
C1222 H1199 0.950 . S
C1222 C1221 1.397 . S
C1222 C1223 1.334 . S
C1223 H1200 0.950 . S
C1223 C1222 1.334 . S
C1223 C1224 1.287 . S
C1224 C1223 1.287 . S
C1224 C1225 1.524 . S
C1224 H1243 0.913 . S
C1225 H1201 0.950 . S
C1225 C1224 1.524 . S
C1225 C1226 1.415 . S
C1226 H1202 0.950 . S
C1226 C1221 1.363 . S
C1226 C1225 1.415 . S
C1227 H1203 0.951 . S
C1227 C1228 1.366 . S
C1227 C1229 1.388 . S
C1228 C1227 1.366 . S
C1228 C1232 1.385 1_554 S
C1229 H1204 0.951 . S
C1229 C1227 1.388 . S
C1229 C1230 1.366 1_554 S
C1230 C1229 1.366 1_556 S
C1230 C1231 1.414 . S
C1230 C1233 1.499 . S
C1231 H1205 0.950 . S
C1231 C1230 1.414 . S
C1231 C1232 1.374 . S
C1232 H1206 0.950 . S
C1232 C1228 1.385 1_556 S
C1232 C1231 1.374 . S
C1233 C1230 1.499 . S
C1233 C1234 1.373 . S
C1233 C1235 1.389 . S
C1234 H1207 0.950 . S
C1234 C1220 1.377 . S
C1234 C1233 1.373 . S
C1235 C1219 1.377 . S
C1235 C1233 1.389 . S
C1235 C1236 1.524 . S
C1236 C1235 1.524 . S
C1236 C1237 1.397 . S
C1236 C1241 1.363 1_556 S
C1237 H1208 0.950 . S
C1237 C1236 1.397 . S
C1237 C1238 1.334 1_556 S
C1238 H1209 0.950 . S
C1238 C1237 1.334 1_554 S
C1238 C1239 1.287 . S
C1239 C1238 1.287 . S
C1239 C1240 1.524 . S
C1239 H1242 0.999 . S
C1240 H1210 0.950 . S
C1240 C1239 1.524 . S
C1240 C1241 1.415 . S
C1241 H1211 0.950 . S
C1241 C1236 1.363 1_554 S
C1241 C1240 1.415 . S
H1242 C1239 0.999 . S
H1243 C1224 0.913 . S
H1244 C1262 0.951 . S
H1245 C1264 0.951 . S
H1246 C1266 0.950 . S
H1247 C1267 0.950 . S
H1248 C1269 0.950 . S
H1249 C1272 0.950 . S
H1250 C1273 0.950 . S
H1251 C1275 0.950 . S
H1252 C1276 0.950 . S
H1253 C1277 0.951 . S
H1254 C1279 0.951 . S
H1255 C1281 0.950 . S
H1256 C1282 0.950 . S
H1257 C1284 0.950 . S
H1258 C1287 0.950 . S
H1259 C1288 0.950 . S
H1260 C1290 0.950 . S
H1261 C1291 0.950 . S
C1262 H1244 0.951 . S
C1262 C1263 1.366 . S
C1262 C1264 1.388 . S
C1263 C1262 1.366 . S
C1263 C1267 1.385 . S
C1264 H1245 0.951 . S
C1264 C1262 1.388 . S
C1264 C1265 1.366 . S
C1265 C1264 1.366 . S
C1265 C1266 1.414 . S
C1265 C1268 1.499 . S
C1266 H1246 0.950 . S
C1266 C1265 1.414 . S
C1266 C1267 1.374 . S
C1267 H1247 0.950 . S
C1267 C1263 1.385 . S
C1267 C1266 1.374 . S
C1268 C1265 1.499 . S
C1268 C1269 1.373 . S
C1268 C1270 1.389 . S
C1269 H1248 0.950 . S
C1269 C1268 1.373 . S
C1269 C1285 1.377 . S
C1270 C1268 1.389 . S
C1270 C1271 1.524 . S
C1270 C1284 1.377 . S
C1271 C1270 1.524 . S
C1271 C1272 1.397 . S
C1271 C1276 1.363 1_556 S
C1272 H1249 0.950 . S
C1272 C1271 1.397 . S
C1272 C1273 1.334 . S
C1273 H1250 0.950 . S
C1273 C1272 1.334 . S
C1273 C1274 1.287 1_556 S
C1274 C1273 1.287 1_554 S
C1274 C1275 1.524 . S
C1274 H1293 0.913 . S
C1275 H1251 0.950 . S
C1275 C1274 1.524 . S
C1275 C1276 1.415 . S
C1276 H1252 0.950 . S
C1276 C1271 1.363 1_554 S
C1276 C1275 1.415 . S
C1277 H1253 0.951 . S
C1277 C1278 1.366 1_556 S
C1277 C1279 1.388 . S
C1278 C1277 1.366 1_554 S
C1278 C1282 1.385 . S
C1279 H1254 0.951 . S
C1279 C1277 1.388 . S
C1279 C1280 1.366 . S
C1280 C1279 1.366 . S
C1280 C1281 1.414 1_556 S
C1280 C1283 1.499 . S
C1281 H1255 0.950 . S
C1281 C1280 1.414 1_554 S
C1281 C1282 1.374 . S
C1282 H1256 0.950 . S
C1282 C1278 1.385 . S
C1282 C1281 1.374 . S
C1283 C1280 1.499 . S
C1283 C1284 1.373 . S
C1283 C1285 1.389 . S
C1284 H1257 0.950 . S
C1284 C1270 1.377 . S
C1284 C1283 1.373 . S
C1285 C1269 1.377 . S
C1285 C1283 1.389 . S
C1285 C1286 1.524 . S
C1286 C1285 1.524 . S
C1286 C1287 1.397 . S
C1286 C1291 1.363 . S
C1287 H1258 0.950 . S
C1287 C1286 1.397 . S
C1287 C1288 1.334 . S
C1288 H1259 0.950 . S
C1288 C1287 1.334 . S
C1288 C1289 1.287 . S
C1289 C1288 1.287 . S
C1289 C1290 1.524 . S
C1289 H1292 0.999 . S
C1290 H1260 0.950 . S
C1290 C1289 1.524 . S
C1290 C1291 1.415 . S
C1291 H1261 0.950 . S
C1291 C1286 1.363 . S
C1291 C1290 1.415 . S
H1292 C1289 0.999 . S
H1293 C1274 0.913 . S
H1294 C1312 0.951 . S
H1295 C1314 0.951 . S
H1296 C1316 0.950 . S
H1297 C1317 0.950 . S
H1298 C1319 0.950 . S
H1299 C1322 0.950 . S
H1300 C1323 0.950 . S
H1301 C1325 0.950 . S
H1302 C1326 0.950 . S
H1303 C1327 0.951 . S
H1304 C1329 0.951 . S
H1305 C1331 0.950 . S
H1306 C1332 0.950 . S
H1307 C1334 0.950 . S
H1308 C1337 0.950 . S
H1309 C1338 0.950 . S
H1310 C1340 0.950 . S
H1311 C1341 0.950 . S
C1312 H1294 0.951 . S
C1312 C1313 1.366 1_556 S
C1312 C1314 1.388 . S
C1313 C1312 1.366 1_554 S
C1313 C1317 1.385 . S
C1314 H1295 0.951 . S
C1314 C1312 1.388 . S
C1314 C1315 1.366 . S
C1315 C1314 1.366 . S
C1315 C1316 1.414 1_556 S
C1315 C1318 1.499 . S
C1316 H1296 0.950 . S
C1316 C1315 1.414 1_554 S
C1316 C1317 1.374 . S
C1317 H1297 0.950 . S
C1317 C1313 1.385 . S
C1317 C1316 1.374 . S
C1318 C1315 1.499 . S
C1318 C1319 1.373 . S
C1318 C1320 1.389 . S
C1319 H1298 0.950 . S
C1319 C1318 1.373 . S
C1319 C1335 1.377 . S
C1320 C1318 1.389 . S
C1320 C1321 1.524 . S
C1320 C1334 1.377 . S
C1321 C1320 1.524 . S
C1321 C1322 1.397 . S
C1321 C1326 1.363 . S
C1322 H1299 0.950 . S
C1322 C1321 1.397 . S
C1322 C1323 1.334 . S
C1323 H1300 0.950 . S
C1323 C1322 1.334 . S
C1323 C1324 1.287 . S
C1324 C1323 1.287 . S
C1324 C1325 1.524 . S
C1324 H1343 0.913 . S
C1325 H1301 0.950 . S
C1325 C1324 1.524 . S
C1325 C1326 1.415 . S
C1326 H1302 0.950 . S
C1326 C1321 1.363 . S
C1326 C1325 1.415 . S
C1327 H1303 0.951 . S
C1327 C1328 1.366 . S
C1327 C1329 1.388 . S
C1328 C1327 1.366 . S
C1328 C1332 1.385 . S
C1329 H1304 0.951 . S
C1329 C1327 1.388 . S
C1329 C1330 1.366 . S
C1330 C1329 1.366 . S
C1330 C1331 1.414 . S
C1330 C1333 1.499 . S
C1331 H1305 0.950 . S
C1331 C1330 1.414 . S
C1331 C1332 1.374 . S
C1332 H1306 0.950 . S
C1332 C1328 1.385 . S
C1332 C1331 1.374 . S
C1333 C1330 1.499 . S
C1333 C1334 1.373 . S
C1333 C1335 1.389 . S
C1334 H1307 0.950 . S
C1334 C1320 1.377 . S
C1334 C1333 1.373 . S
C1335 C1319 1.377 . S
C1335 C1333 1.389 . S
C1335 C1336 1.524 . S
C1336 C1335 1.524 . S
C1336 C1337 1.397 . S
C1336 C1341 1.363 . S
C1337 H1308 0.950 . S
C1337 C1336 1.397 . S
C1337 C1338 1.334 . S
C1338 H1309 0.950 . S
C1338 C1337 1.334 . S
C1338 C1339 1.287 . S
C1339 C1338 1.287 . S
C1339 C1340 1.524 . S
C1339 H1342 0.999 . S
C1340 H1310 0.950 . S
C1340 C1339 1.524 . S
C1340 C1341 1.415 . S
C1341 H1311 0.950 . S
C1341 C1336 1.363 . S
C1341 C1340 1.415 . S
H1342 C1339 0.999 . S
H1343 C1324 0.913 . S
H1344 C1362 0.951 . S
H1345 C1364 0.951 . S
H1346 C1366 0.950 . S
H1347 C1367 0.950 . S
H1348 C1369 0.950 . S
H1349 C1372 0.950 . S
H1350 C1373 0.950 . S
H1351 C1375 0.950 . S
H1352 C1376 0.950 . S
H1353 C1377 0.951 . S
H1354 C1379 0.951 . S
H1355 C1381 0.950 . S
H1356 C1382 0.950 . S
H1357 C1384 0.950 . S
H1358 C1387 0.950 . S
H1359 C1388 0.950 . S
H1360 C1390 0.950 . S
H1361 C1391 0.950 . S
C1362 H1344 0.951 . S
C1362 C1363 1.366 . S
C1362 C1364 1.388 1_655 S
C1363 C1362 1.366 . S
C1363 C1367 1.385 . S
C1364 H1345 0.951 . S
C1364 C1362 1.388 1_455 S
C1364 C1365 1.366 . S
C1365 C1364 1.366 . S
C1365 C1366 1.414 1_455 S
C1365 C1368 1.499 . S
C1366 H1346 0.950 . S
C1366 C1365 1.414 1_655 S
C1366 C1367 1.374 . S
C1367 H1347 0.950 . S
C1367 C1363 1.385 . S
C1367 C1366 1.374 . S
C1368 C1365 1.499 . S
C1368 C1369 1.373 . S
C1368 C1370 1.389 . S
C1369 H1348 0.950 . S
C1369 C1368 1.373 . S
C1369 C1385 1.377 . S
C1370 C1368 1.389 . S
C1370 C1371 1.524 . S
C1370 C1384 1.377 . S
C1371 C1370 1.524 . S
C1371 C1372 1.397 . S
C1371 C1376 1.363 . S
C1372 H1349 0.950 . S
C1372 C1371 1.397 . S
C1372 C1373 1.334 . S
C1373 H1350 0.950 . S
C1373 C1372 1.334 . S
C1373 C1374 1.287 . S
C1374 C1373 1.287 . S
C1374 C1375 1.524 . S
C1374 H1393 0.913 . S
C1375 H1351 0.950 . S
C1375 C1374 1.524 . S
C1375 C1376 1.415 . S
C1376 H1352 0.950 . S
C1376 C1371 1.363 . S
C1376 C1375 1.415 . S
C1377 H1353 0.951 . S
C1377 C1378 1.366 . S
C1377 C1379 1.388 . S
C1378 C1377 1.366 . S
C1378 C1382 1.385 . S
C1379 H1354 0.951 . S
C1379 C1377 1.388 . S
C1379 C1380 1.366 . S
C1380 C1379 1.366 . S
C1380 C1381 1.414 . S
C1380 C1383 1.499 . S
C1381 H1355 0.950 . S
C1381 C1380 1.414 . S
C1381 C1382 1.374 . S
C1382 H1356 0.950 . S
C1382 C1378 1.385 . S
C1382 C1381 1.374 . S
C1383 C1380 1.499 . S
C1383 C1384 1.373 . S
C1383 C1385 1.389 . S
C1384 H1357 0.950 . S
C1384 C1370 1.377 . S
C1384 C1383 1.373 . S
C1385 C1369 1.377 . S
C1385 C1383 1.389 . S
C1385 C1386 1.524 . S
C1386 C1385 1.524 . S
C1386 C1387 1.397 . S
C1386 C1391 1.363 . S
C1387 H1358 0.950 . S
C1387 C1386 1.397 . S
C1387 C1388 1.334 . S
C1388 H1359 0.950 . S
C1388 C1387 1.334 . S
C1388 C1389 1.287 . S
C1389 C1388 1.287 . S
C1389 C1390 1.524 . S
C1389 H1392 0.999 . S
C1390 H1360 0.950 . S
C1390 C1389 1.524 . S
C1390 C1391 1.415 . S
C1391 H1361 0.950 . S
C1391 C1386 1.363 . S
C1391 C1390 1.415 . S
H1392 C1389 0.999 . S
H1393 C1374 0.913 . S
H1394 C1412 0.951 . S
H1395 C1414 0.951 . S
H1396 C1416 0.950 . S
H1397 C1417 0.950 . S
H1398 C1419 0.950 . S
H1399 C1422 0.950 . S
H1400 C1423 0.950 . S
H1401 C1425 0.950 . S
H1402 C1426 0.950 . S
H1403 C1427 0.951 . S
H1404 C1429 0.951 . S
H1405 C1431 0.950 . S
H1406 C1432 0.950 . S
H1407 C1434 0.950 . S
H1408 C1437 0.950 . S
H1409 C1438 0.950 . S
H1410 C1440 0.950 . S
H1411 C1441 0.950 . S
C1412 H1394 0.951 . S
C1412 C1413 1.366 . S
C1412 C1414 1.388 . S
C1413 C1412 1.366 . S
C1413 C1417 1.385 . S
C1414 H1395 0.951 . S
C1414 C1412 1.388 . S
C1414 C1415 1.366 . S
C1415 C1414 1.366 . S
C1415 C1416 1.414 . S
C1415 C1418 1.499 . S
C1416 H1396 0.950 . S
C1416 C1415 1.414 . S
C1416 C1417 1.374 . S
C1417 H1397 0.950 . S
C1417 C1413 1.385 . S
C1417 C1416 1.374 . S
C1418 C1415 1.499 . S
C1418 C1419 1.373 . S
C1418 C1420 1.389 . S
C1419 H1398 0.950 . S
C1419 C1418 1.373 . S
C1419 C1435 1.377 . S
C1420 C1418 1.389 . S
C1420 C1421 1.524 . S
C1420 C1434 1.377 . S
C1421 C1420 1.524 . S
C1421 C1422 1.397 . S
C1421 C1426 1.363 . S
C1422 H1399 0.950 . S
C1422 C1421 1.397 . S
C1422 C1423 1.334 . S
C1423 H1400 0.950 . S
C1423 C1422 1.334 . S
C1423 C1424 1.287 . S
C1424 C1423 1.287 . S
C1424 C1425 1.524 . S
C1424 H1443 0.913 . S
C1425 H1401 0.950 . S
C1425 C1424 1.524 . S
C1425 C1426 1.415 . S
C1426 H1402 0.950 . S
C1426 C1421 1.363 . S
C1426 C1425 1.415 . S
C1427 H1403 0.951 . S
C1427 C1428 1.366 . S
C1427 C1429 1.388 . S
C1428 C1427 1.366 . S
C1428 C1432 1.385 . S
C1429 H1404 0.951 . S
C1429 C1427 1.388 . S
C1429 C1430 1.366 . S
C1430 C1429 1.366 . S
C1430 C1431 1.414 . S
C1430 C1433 1.499 . S
C1431 H1405 0.950 . S
C1431 C1430 1.414 . S
C1431 C1432 1.374 . S
C1432 H1406 0.950 . S
C1432 C1428 1.385 . S
C1432 C1431 1.374 . S
C1433 C1430 1.499 . S
C1433 C1434 1.373 . S
C1433 C1435 1.389 . S
C1434 H1407 0.950 . S
C1434 C1420 1.377 . S
C1434 C1433 1.373 . S
C1435 C1419 1.377 . S
C1435 C1433 1.389 . S
C1435 C1436 1.524 . S
C1436 C1435 1.524 . S
C1436 C1437 1.397 . S
C1436 C1441 1.363 . S
C1437 H1408 0.950 . S
C1437 C1436 1.397 . S
C1437 C1438 1.334 . S
C1438 H1409 0.950 . S
C1438 C1437 1.334 . S
C1438 C1439 1.287 . S
C1439 C1438 1.287 . S
C1439 C1440 1.524 . S
C1439 H1442 0.999 . S
C1440 H1410 0.950 . S
C1440 C1439 1.524 . S
C1440 C1441 1.415 . S
C1441 H1411 0.950 . S
C1441 C1436 1.363 . S
C1441 C1440 1.415 . S
H1442 C1439 0.999 . S
H1443 C1424 0.913 . S
H1444 C1462 0.951 . S
H1445 C1464 0.951 . S
H1446 C1466 0.950 . S
H1447 C1467 0.950 . S
H1448 C1469 0.950 . S
H1449 C1472 0.950 . S
H1450 C1473 0.950 . S
H1451 C1475 0.950 . S
H1452 C1476 0.950 . S
H1453 C1477 0.951 . S
H1454 C1479 0.951 . S
H1455 C1481 0.950 . S
H1456 C1482 0.950 . S
H1457 C1484 0.950 . S
H1458 C1487 0.926 1_565 S
H1459 C1488 0.950 . S
H1460 C1490 0.950 . S
H1461 C1491 0.986 . S
C1462 H1444 0.951 . S
C1462 C1463 1.366 . S
C1462 C1464 1.388 . S
C1463 C1462 1.366 . S
C1463 C1467 1.385 . S
C1464 H1445 0.951 . S
C1464 C1462 1.388 . S
C1464 C1465 1.366 . S
C1465 C1464 1.366 . S
C1465 C1466 1.414 . S
C1465 C1468 1.499 . S
C1466 H1446 0.950 . S
C1466 C1465 1.414 . S
C1466 C1467 1.374 . S
C1467 H1447 0.950 . S
C1467 C1463 1.385 . S
C1467 C1466 1.374 . S
C1468 C1465 1.499 . S
C1468 C1469 1.373 . S
C1468 C1470 1.389 . S
C1469 H1448 0.950 . S
C1469 C1468 1.373 . S
C1469 C1485 1.377 . S
C1470 C1468 1.389 . S
C1470 C1471 1.524 . S
C1470 C1484 1.377 . S
C1471 C1470 1.524 . S
C1471 C1472 1.397 . S
C1471 C1476 1.363 . S
C1472 H1449 0.950 . S
C1472 C1471 1.397 . S
C1472 C1473 1.334 . S
C1473 H1450 0.950 . S
C1473 C1472 1.334 . S
C1473 C1474 1.287 . S
C1474 C1473 1.287 . S
C1474 C1475 1.524 . S
C1474 H1493 0.913 . S
C1475 H1451 0.950 . S
C1475 C1474 1.524 . S
C1475 C1476 1.415 . S
C1476 H1452 0.950 . S
C1476 C1471 1.363 . S
C1476 C1475 1.415 . S
C1477 H1453 0.951 . S
C1477 C1478 1.366 . S
C1477 C1479 1.388 . S
C1478 C1477 1.366 . S
C1478 C1482 1.385 . S
C1479 H1454 0.951 . S
C1479 C1477 1.388 . S
C1479 C1480 1.366 1_545 S
C1480 C1479 1.366 1_565 S
C1480 C1481 1.414 . S
C1480 C1483 1.499 . S
C1481 H1455 0.950 . S
C1481 C1480 1.414 . S
C1481 C1482 1.374 1_565 S
C1482 H1456 0.950 . S
C1482 C1478 1.385 . S
C1482 C1481 1.374 1_545 S
C1483 C1480 1.499 . S
C1483 C1484 1.373 . S
C1483 C1485 1.389 . S
C1484 H1457 0.950 . S
C1484 C1470 1.377 . S
C1484 C1483 1.373 . S
C1485 C1469 1.377 . S
C1485 C1483 1.389 . S
C1485 C1486 1.524 . S
C1486 C1485 1.524 . S
C1486 C1487 1.356 1_565 S
C1486 C1491 1.381 . S
C1487 H1458 0.926 1_545 S
C1487 C1486 1.356 1_545 S
C1487 C1488 1.402 . S
C1488 H1459 0.950 . S
C1488 C1487 1.402 . S
C1488 C1489 1.287 . S
C1489 C1488 1.287 . S
C1489 C1490 1.524 . S
C1489 H1492 0.999 . S
C1490 H1460 0.950 . S
C1490 C1489 1.524 . S
C1490 C1491 1.363 1_545 S
C1491 H1461 0.986 . S
C1491 C1486 1.381 . S
C1491 C1490 1.363 1_565 S
H1492 C1489 0.999 . S
H1493 C1474 0.913 . S
H1494 C1512 0.951 . S
H1495 C1514 0.951 . S
H1496 C1516 0.950 . S
H1497 C1517 0.950 . S
H1498 C1519 0.950 . S
H1499 C1522 0.950 . S
H1500 C1523 0.950 . S
H1501 C1525 0.950 . S
H1502 C1526 0.950 . S
H1503 C1527 0.951 . S
H1504 C1529 0.951 . S
H1505 C1531 0.950 . S
H1506 C1532 0.950 . S
H1507 C1534 0.950 . S
H1508 C1537 0.950 . S
H1509 C1538 0.950 . S
H1510 C1540 0.950 . S
H1511 C1541 0.950 . S
C1512 H1494 0.951 . S
C1512 C1513 1.366 . S
C1512 C1514 1.388 . S
C1513 C1512 1.366 . S
C1513 C1517 1.385 . S
C1514 H1495 0.951 . S
C1514 C1512 1.388 . S
C1514 C1515 1.366 . S
C1515 C1514 1.366 . S
C1515 C1516 1.414 . S
C1515 C1518 1.499 . S
C1516 H1496 0.950 . S
C1516 C1515 1.414 . S
C1516 C1517 1.374 . S
C1517 H1497 0.950 . S
C1517 C1513 1.385 . S
C1517 C1516 1.374 . S
C1518 C1515 1.499 . S
C1518 C1519 1.373 . S
C1518 C1520 1.389 . S
C1519 H1498 0.950 . S
C1519 C1518 1.373 . S
C1519 C1535 1.377 . S
C1520 C1518 1.389 . S
C1520 C1521 1.524 . S
C1520 C1534 1.377 . S
C1521 C1520 1.524 . S
C1521 C1522 1.397 . S
C1521 C1526 1.363 . S
C1522 H1499 0.950 . S
C1522 C1521 1.397 . S
C1522 C1523 1.334 . S
C1523 H1500 0.950 . S
C1523 C1522 1.334 . S
C1523 C1524 1.287 . S
C1524 C1523 1.287 . S
C1524 C1525 1.524 . S
C1524 H1543 0.913 . S
C1525 H1501 0.950 . S
C1525 C1524 1.524 . S
C1525 C1526 1.415 . S
C1526 H1502 0.950 . S
C1526 C1521 1.363 . S
C1526 C1525 1.415 . S
C1527 H1503 0.951 . S
C1527 C1528 1.366 . S
C1527 C1529 1.388 . S
C1528 C1527 1.366 . S
C1528 C1532 1.385 . S
C1529 H1504 0.951 . S
C1529 C1527 1.388 . S
C1529 C1530 1.366 . S
C1530 C1529 1.366 . S
C1530 C1531 1.414 . S
C1530 C1533 1.499 . S
C1531 H1505 0.950 . S
C1531 C1530 1.414 . S
C1531 C1532 1.374 . S
C1532 H1506 0.950 . S
C1532 C1528 1.385 . S
C1532 C1531 1.374 . S
C1533 C1530 1.499 . S
C1533 C1534 1.373 . S
C1533 C1535 1.389 . S
C1534 H1507 0.950 . S
C1534 C1520 1.377 . S
C1534 C1533 1.373 . S
C1535 C1519 1.377 . S
C1535 C1533 1.389 . S
C1535 C1536 1.524 . S
C1536 C1535 1.524 . S
C1536 C1537 1.397 . S
C1536 C1541 1.363 . S
C1537 H1508 0.950 . S
C1537 C1536 1.397 . S
C1537 C1538 1.334 . S
C1538 H1509 0.950 . S
C1538 C1537 1.334 . S
C1538 C1539 1.287 . S
C1539 C1538 1.287 . S
C1539 C1540 1.524 . S
C1539 H1542 0.999 . S
C1540 H1510 0.950 . S
C1540 C1539 1.524 . S
C1540 C1541 1.415 . S
C1541 H1511 0.950 . S
C1541 C1536 1.363 . S
C1541 C1540 1.415 . S
H1542 C1539 0.999 . S
H1543 C1524 0.913 . S
H1544 C1562 0.951 . S
H1545 C1564 0.951 . S
H1546 C1566 0.950 . S
H1547 C1567 0.950 . S
H1548 C1569 0.950 . S
H1549 C1572 0.950 . S
H1550 C1573 0.950 . S
H1551 C1575 0.950 . S
H1552 C1576 0.950 . S
H1553 C1577 0.951 . S
H1554 C1579 0.951 . S
H1555 C1581 0.950 . S
H1556 C1582 0.950 . S
H1557 C1584 0.950 . S
H1558 C1587 0.950 . S
H1559 C1588 0.950 . S
H1560 C1590 0.950 . S
H1561 C1591 0.950 . S
C1562 H1544 0.951 . S
C1562 C1563 1.366 . S
C1562 C1564 1.388 . S
C1563 C1562 1.366 . S
C1563 C1567 1.385 . S
C1564 H1545 0.951 . S
C1564 C1562 1.388 . S
C1564 C1565 1.366 . S
C1565 C1564 1.366 . S
C1565 C1566 1.414 . S
C1565 C1568 1.499 . S
C1566 H1546 0.950 . S
C1566 C1565 1.414 . S
C1566 C1567 1.374 . S
C1567 H1547 0.950 . S
C1567 C1563 1.385 . S
C1567 C1566 1.374 . S
C1568 C1565 1.499 . S
C1568 C1569 1.373 . S
C1568 C1570 1.389 . S
C1569 H1548 0.950 . S
C1569 C1568 1.373 . S
C1569 C1585 1.377 . S
C1570 C1568 1.389 . S
C1570 C1571 1.524 . S
C1570 C1584 1.377 . S
C1571 C1570 1.524 . S
C1571 C1572 1.397 . S
C1571 C1576 1.363 . S
C1572 H1549 0.950 . S
C1572 C1571 1.397 . S
C1572 C1573 1.334 . S
C1573 H1550 0.950 . S
C1573 C1572 1.334 . S
C1573 C1574 1.287 . S
C1574 C1573 1.287 . S
C1574 C1575 1.524 . S
C1574 H1593 0.913 . S
C1575 H1551 0.950 . S
C1575 C1574 1.524 . S
C1575 C1576 1.415 . S
C1576 H1552 0.950 . S
C1576 C1571 1.363 . S
C1576 C1575 1.415 . S
C1577 H1553 0.951 . S
C1577 C1578 1.366 . S
C1577 C1579 1.388 . S
C1578 C1577 1.366 . S
C1578 C1582 1.385 . S
C1579 H1554 0.951 . S
C1579 C1577 1.388 . S
C1579 C1580 1.366 . S
C1580 C1579 1.366 . S
C1580 C1581 1.414 . S
C1580 C1583 1.499 . S
C1581 H1555 0.950 . S
C1581 C1580 1.414 . S
C1581 C1582 1.374 . S
C1582 H1556 0.950 . S
C1582 C1578 1.385 . S
C1582 C1581 1.374 . S
C1583 C1580 1.499 . S
C1583 C1584 1.373 . S
C1583 C1585 1.389 . S
C1584 H1557 0.950 . S
C1584 C1570 1.377 . S
C1584 C1583 1.373 . S
C1585 C1569 1.377 . S
C1585 C1583 1.389 . S
C1585 C1586 1.524 . S
C1586 C1585 1.524 . S
C1586 C1587 1.397 . S
C1586 C1591 1.363 . S
C1587 H1558 0.950 . S
C1587 C1586 1.397 . S
C1587 C1588 1.334 . S
C1588 H1559 0.950 . S
C1588 C1587 1.334 . S
C1588 C1589 1.287 . S
C1589 C1588 1.287 . S
C1589 C1590 1.524 . S
C1589 H1592 0.999 . S
C1590 H1560 0.950 . S
C1590 C1589 1.524 . S
C1590 C1591 1.415 . S
C1591 H1561 0.950 . S
C1591 C1586 1.363 . S
C1591 C1590 1.415 . S
H1592 C1589 0.999 . S
H1593 C1574 0.913 . S
H1594 C1612 0.951 . S
H1595 C1614 0.951 . S
H1596 C1616 0.950 . S
H1597 C1617 0.950 . S
H1598 C1619 0.950 . S
H1599 C1622 0.950 . S
H1600 C1623 0.950 . S
H1601 C1625 0.950 . S
H1602 C1626 0.950 . S
H1603 C1627 0.951 . S
H1604 C1629 0.951 . S
H1605 C1631 0.950 . S
H1606 C1632 0.950 . S
H1607 C1634 0.950 . S
H1608 C1637 0.950 . S
H1609 C1638 0.950 . S
H1610 C1640 0.950 . S
H1611 C1641 0.950 . S
C1612 H1594 0.951 . S
C1612 C1613 1.366 . S
C1612 C1614 1.388 . S
C1613 C1612 1.366 . S
C1613 C1617 1.385 . S
C1614 H1595 0.951 . S
C1614 C1612 1.388 . S
C1614 C1615 1.366 . S
C1615 C1614 1.366 . S
C1615 C1616 1.414 . S
C1615 C1618 1.499 . S
C1616 H1596 0.950 . S
C1616 C1615 1.414 . S
C1616 C1617 1.374 . S
C1617 H1597 0.950 . S
C1617 C1613 1.385 . S
C1617 C1616 1.374 . S
C1618 C1615 1.499 . S
C1618 C1619 1.373 . S
C1618 C1620 1.389 . S
C1619 H1598 0.950 . S
C1619 C1618 1.373 . S
C1619 C1635 1.377 . S
C1620 C1618 1.389 . S
C1620 C1621 1.524 . S
C1620 C1634 1.377 . S
C1621 C1620 1.524 . S
C1621 C1622 1.397 . S
C1621 C1626 1.363 . S
C1622 H1599 0.950 . S
C1622 C1621 1.397 . S
C1622 C1623 1.334 . S
C1623 H1600 0.950 . S
C1623 C1622 1.334 . S
C1623 C1624 1.287 . S
C1624 C1623 1.287 . S
C1624 C1625 1.524 . S
C1624 H1643 0.913 . S
C1625 H1601 0.950 . S
C1625 C1624 1.524 . S
C1625 C1626 1.415 . S
C1626 H1602 0.950 . S
C1626 C1621 1.363 . S
C1626 C1625 1.415 . S
C1627 H1603 0.951 . S
C1627 C1628 1.366 . S
C1627 C1629 1.388 . S
C1628 C1627 1.366 . S
C1628 C1632 1.385 . S
C1629 H1604 0.951 . S
C1629 C1627 1.388 . S
C1629 C1630 1.366 . S
C1630 C1629 1.366 . S
C1630 C1631 1.414 . S
C1630 C1633 1.499 . S
C1631 H1605 0.950 . S
C1631 C1630 1.414 . S
C1631 C1632 1.374 . S
C1632 H1606 0.950 . S
C1632 C1628 1.385 . S
C1632 C1631 1.374 . S
C1633 C1630 1.499 . S
C1633 C1634 1.373 . S
C1633 C1635 1.389 . S
C1634 H1607 0.950 . S
C1634 C1620 1.377 . S
C1634 C1633 1.373 . S
C1635 C1619 1.377 . S
C1635 C1633 1.389 . S
C1635 C1636 1.524 . S
C1636 C1635 1.524 . S
C1636 C1637 1.397 . S
C1636 C1641 1.363 . S
C1637 H1608 0.950 . S
C1637 C1636 1.397 . S
C1637 C1638 1.334 . S
C1638 H1609 0.950 . S
C1638 C1637 1.334 . S
C1638 C1639 1.287 . S
C1639 C1638 1.287 . S
C1639 C1640 1.524 . S
C1639 H1642 0.999 . S
C1640 H1610 0.950 . S
C1640 C1639 1.524 . S
C1640 C1641 1.415 . S
C1641 H1611 0.950 . S
C1641 C1636 1.363 . S
C1641 C1640 1.415 . S
H1642 C1639 0.999 . S
H1643 C1624 0.913 . S
H1644 C1662 0.951 . S
H1645 C1664 0.951 . S
H1646 C1666 0.950 . S
H1647 C1667 0.950 . S
H1648 C1669 0.950 . S
H1649 C1672 0.950 . S
H1650 C1673 0.950 . S
H1651 C1675 0.950 . S
H1652 C1676 0.950 . S
H1653 C1677 0.951 . S
H1654 C1679 0.951 . S
H1655 C1681 0.950 . S
H1656 C1682 0.950 . S
H1657 C1684 0.950 . S
H1658 C1687 0.950 . S
H1659 C1688 0.950 . S
H1660 C1690 0.950 . S
H1661 C1691 0.950 . S
C1662 H1644 0.951 . S
C1662 C1663 1.366 . S
C1662 C1664 1.388 . S
C1663 C1662 1.366 . S
C1663 C1667 1.385 . S
C1664 H1645 0.951 . S
C1664 C1662 1.388 . S
C1664 C1665 1.366 . S
C1665 C1664 1.366 . S
C1665 C1666 1.414 . S
C1665 C1668 1.499 . S
C1666 H1646 0.950 . S
C1666 C1665 1.414 . S
C1666 C1667 1.374 . S
C1667 H1647 0.950 . S
C1667 C1663 1.385 . S
C1667 C1666 1.374 . S
C1668 C1665 1.499 . S
C1668 C1669 1.373 . S
C1668 C1670 1.389 . S
C1669 H1648 0.950 . S
C1669 C1668 1.373 . S
C1669 C1685 1.377 . S
C1670 C1668 1.389 . S
C1670 C1671 1.524 . S
C1670 C1684 1.377 . S
C1671 C1670 1.524 . S
C1671 C1672 1.397 . S
C1671 C1676 1.363 . S
C1672 H1649 0.950 . S
C1672 C1671 1.397 . S
C1672 C1673 1.334 . S
C1673 H1650 0.950 . S
C1673 C1672 1.334 . S
C1673 C1674 1.287 . S
C1674 C1673 1.287 . S
C1674 C1675 1.524 . S
C1674 H1693 0.913 . S
C1675 H1651 0.950 . S
C1675 C1674 1.524 . S
C1675 C1676 1.415 . S
C1676 H1652 0.950 . S
C1676 C1671 1.363 . S
C1676 C1675 1.415 . S
C1677 H1653 0.951 . S
C1677 C1678 1.366 . S
C1677 C1679 1.388 . S
C1678 C1677 1.366 . S
C1678 C1682 1.385 . S
C1679 H1654 0.951 . S
C1679 C1677 1.388 . S
C1679 C1680 1.366 . S
C1680 C1679 1.366 . S
C1680 C1681 1.414 . S
C1680 C1683 1.499 . S
C1681 H1655 0.950 . S
C1681 C1680 1.414 . S
C1681 C1682 1.374 . S
C1682 H1656 0.950 . S
C1682 C1678 1.385 . S
C1682 C1681 1.374 . S
C1683 C1680 1.499 . S
C1683 C1684 1.373 . S
C1683 C1685 1.389 . S
C1684 H1657 0.950 . S
C1684 C1670 1.377 . S
C1684 C1683 1.373 . S
C1685 C1669 1.377 . S
C1685 C1683 1.389 . S
C1685 C1686 1.524 . S
C1686 C1685 1.524 . S
C1686 C1687 1.397 . S
C1686 C1691 1.363 . S
C1687 H1658 0.950 . S
C1687 C1686 1.397 . S
C1687 C1688 1.334 . S
C1688 H1659 0.950 . S
C1688 C1687 1.334 . S
C1688 C1689 1.287 . S
C1689 C1688 1.287 . S
C1689 C1690 1.524 . S
C1689 H1692 0.999 . S
C1690 H1660 0.950 . S
C1690 C1689 1.524 . S
C1690 C1691 1.415 . S
C1691 H1661 0.950 . S
C1691 C1686 1.363 . S
C1691 C1690 1.415 . S
H1692 C1689 0.999 . S
H1693 C1674 0.913 . S
H1694 C1712 0.951 . S
H1695 C1714 0.951 . S
H1696 C1716 0.950 . S
H1697 C1717 0.950 . S
H1698 C1719 0.950 . S
H1699 C1722 0.950 . S
H1700 C1723 0.950 . S
H1701 C1725 0.950 . S
H1702 C1726 0.950 . S
H1703 C1727 0.951 . S
H1704 C1729 0.951 . S
H1705 C1731 0.950 . S
H1706 C1732 0.950 . S
H1707 C1734 0.950 . S
H1708 C1737 0.950 . S
H1709 C1738 0.950 . S
H1710 C1740 0.950 . S
H1711 C1741 0.950 . S
C1712 H1694 0.951 . S
C1712 C1713 1.366 . S
C1712 C1714 1.388 . S
C1713 C1712 1.366 . S
C1713 C1717 1.385 . S
C1714 H1695 0.951 . S
C1714 C1712 1.388 . S
C1714 C1715 1.366 . S
C1715 C1714 1.366 . S
C1715 C1716 1.414 . S
C1715 C1718 1.499 . S
C1716 H1696 0.950 . S
C1716 C1715 1.414 . S
C1716 C1717 1.374 . S
C1717 H1697 0.950 . S
C1717 C1713 1.385 . S
C1717 C1716 1.374 . S
C1718 C1715 1.499 . S
C1718 C1719 1.373 . S
C1718 C1720 1.389 . S
C1719 H1698 0.950 . S
C1719 C1718 1.373 . S
C1719 C1735 1.377 . S
C1720 C1718 1.389 . S
C1720 C1721 1.524 . S
C1720 C1734 1.377 . S
C1721 C1720 1.524 . S
C1721 C1722 1.397 . S
C1721 C1726 1.363 . S
C1722 H1699 0.950 . S
C1722 C1721 1.397 . S
C1722 C1723 1.334 . S
C1723 H1700 0.950 . S
C1723 C1722 1.334 . S
C1723 C1724 1.287 . S
C1724 C1723 1.287 . S
C1724 C1725 1.524 . S
C1724 H1743 0.913 . S
C1725 H1701 0.950 . S
C1725 C1724 1.524 . S
C1725 C1726 1.415 . S
C1726 H1702 0.950 . S
C1726 C1721 1.363 . S
C1726 C1725 1.415 . S
C1727 H1703 0.951 . S
C1727 C1728 1.366 . S
C1727 C1729 1.388 . S
C1728 C1727 1.366 . S
C1728 C1732 1.385 . S
C1729 H1704 0.951 . S
C1729 C1727 1.388 . S
C1729 C1730 1.366 . S
C1730 C1729 1.366 . S
C1730 C1731 1.414 . S
C1730 C1733 1.499 . S
C1731 H1705 0.950 . S
C1731 C1730 1.414 . S
C1731 C1732 1.374 . S
C1732 H1706 0.950 . S
C1732 C1728 1.385 . S
C1732 C1731 1.374 . S
C1733 C1730 1.499 . S
C1733 C1734 1.373 . S
C1733 C1735 1.389 . S
C1734 H1707 0.950 . S
C1734 C1720 1.377 . S
C1734 C1733 1.373 . S
C1735 C1719 1.377 . S
C1735 C1733 1.389 . S
C1735 C1736 1.524 . S
C1736 C1735 1.524 . S
C1736 C1737 1.397 . S
C1736 C1741 1.363 . S
C1737 H1708 0.950 . S
C1737 C1736 1.397 . S
C1737 C1738 1.334 . S
C1738 H1709 0.950 . S
C1738 C1737 1.334 . S
C1738 C1739 1.287 . S
C1739 C1738 1.287 . S
C1739 C1740 1.524 . S
C1739 H1742 0.999 . S
C1740 H1710 0.950 . S
C1740 C1739 1.524 . S
C1740 C1741 1.415 . S
C1741 H1711 0.950 . S
C1741 C1736 1.363 . S
C1741 C1740 1.415 . S
H1742 C1739 0.999 . S
H1743 C1724 0.913 . S
H1744 C1762 0.951 . S
H1745 C1764 0.951 . S
H1746 C1766 0.950 . S
H1747 C1767 0.950 . S
H1748 C1769 0.950 . S
H1749 C1772 0.950 . S
H1750 C1773 0.950 . S
H1751 C1775 0.950 . S
H1752 C1776 0.950 . S
H1753 C1777 0.951 . S
H1754 C1779 0.951 . S
H1755 C1781 0.950 . S
H1756 C1782 0.950 . S
H1757 C1784 0.950 . S
H1758 C1787 0.950 . S
H1759 C1788 0.950 . S
H1760 C1790 0.950 . S
H1761 C1791 0.950 . S
C1762 H1744 0.951 . S
C1762 C1763 1.366 . S
C1762 C1764 1.388 . S
C1763 C1762 1.366 . S
C1763 C1767 1.385 . S
C1764 H1745 0.951 . S
C1764 C1762 1.388 . S
C1764 C1765 1.366 . S
C1765 C1764 1.366 . S
C1765 C1766 1.414 . S
C1765 C1768 1.499 . S
C1766 H1746 0.950 . S
C1766 C1765 1.414 . S
C1766 C1767 1.374 . S
C1767 H1747 0.950 . S
C1767 C1763 1.385 . S
C1767 C1766 1.374 . S
C1768 C1765 1.499 . S
C1768 C1769 1.373 . S
C1768 C1770 1.389 . S
C1769 H1748 0.950 . S
C1769 C1768 1.373 . S
C1769 C1785 1.377 . S
C1770 C1768 1.389 . S
C1770 C1771 1.524 . S
C1770 C1784 1.377 . S
C1771 C1770 1.524 . S
C1771 C1772 1.397 . S
C1771 C1776 1.363 . S
C1772 H1749 0.950 . S
C1772 C1771 1.397 . S
C1772 C1773 1.334 . S
C1773 H1750 0.950 . S
C1773 C1772 1.334 . S
C1773 C1774 1.287 . S
C1774 C1773 1.287 . S
C1774 C1775 1.524 . S
C1774 H1793 0.913 . S
C1775 H1751 0.950 . S
C1775 C1774 1.524 . S
C1775 C1776 1.415 . S
C1776 H1752 0.950 . S
C1776 C1771 1.363 . S
C1776 C1775 1.415 . S
C1777 H1753 0.951 . S
C1777 C1778 1.366 . S
C1777 C1779 1.388 . S
C1778 C1777 1.366 . S
C1778 C1782 1.385 . S
C1779 H1754 0.951 . S
C1779 C1777 1.388 . S
C1779 C1780 1.366 . S
C1780 C1779 1.366 . S
C1780 C1781 1.414 . S
C1780 C1783 1.499 . S
C1781 H1755 0.950 . S
C1781 C1780 1.414 . S
C1781 C1782 1.374 . S
C1782 H1756 0.950 . S
C1782 C1778 1.385 . S
C1782 C1781 1.374 . S
C1783 C1780 1.499 . S
C1783 C1784 1.373 . S
C1783 C1785 1.389 . S
C1784 H1757 0.950 . S
C1784 C1770 1.377 . S
C1784 C1783 1.373 . S
C1785 C1769 1.377 . S
C1785 C1783 1.389 . S
C1785 C1786 1.524 . S
C1786 C1785 1.524 . S
C1786 C1787 1.397 . S
C1786 C1791 1.363 . S
C1787 H1758 0.950 . S
C1787 C1786 1.397 . S
C1787 C1788 1.334 . S
C1788 H1759 0.950 . S
C1788 C1787 1.334 . S
C1788 C1789 1.287 . S
C1789 C1788 1.287 . S
C1789 C1790 1.524 . S
C1789 H1792 0.999 . S
C1790 H1760 0.950 . S
C1790 C1789 1.524 . S
C1790 C1791 1.415 . S
C1791 H1761 0.950 . S
C1791 C1786 1.363 . S
C1791 C1790 1.415 . S
H1792 C1789 0.999 . S
H1793 C1774 0.913 . S
H1794 C1812 0.951 . S
H1795 C1814 0.951 1_565 S
H1796 C1816 0.950 . S
H1797 C1817 0.950 . S
H1798 C1819 0.950 . S
H1799 C1822 0.950 . S
H1800 C1823 0.950 . S
H1801 C1825 0.950 . S
H1802 C1826 0.950 . S
H1803 C1827 0.951 . S
H1804 C1829 0.951 1_545 S
H1805 C1831 0.950 . S
H1806 C1832 0.950 . S
H1807 C1834 0.950 . S
H1808 C1837 0.950 . S
H1809 C1838 0.950 . S
H1810 C1840 0.950 . S
H1811 C1841 0.950 . S
C1812 H1794 0.951 . S
C1812 C1813 1.366 . S
C1812 C1814 1.388 . S
C1813 C1812 1.366 . S
C1813 C1817 1.385 . S
C1814 H1795 0.951 1_545 S
C1814 C1812 1.388 . S
C1814 C1815 1.366 . S
C1815 C1814 1.366 . S
C1815 C1816 1.414 . S
C1815 C1818 1.499 . S
C1816 H1796 0.950 . S
C1816 C1815 1.414 . S
C1816 C1817 1.374 . S
C1817 H1797 0.950 . S
C1817 C1813 1.385 . S
C1817 C1816 1.374 . S
C1818 C1815 1.499 . S
C1818 C1819 1.373 1_554 S
C1818 C1820 1.389 1_545 S
C1819 H1798 0.950 . S
C1819 C1818 1.373 1_556 S
C1819 C1835 1.377 . S
C1820 C1818 1.389 1_565 S
C1820 C1821 1.524 . S
C1820 C1834 1.377 . S
C1821 C1820 1.524 . S
C1821 C1822 1.397 1_565 S
C1821 C1826 1.363 . S
C1822 H1799 0.950 . S
C1822 C1821 1.397 1_545 S
C1822 C1823 1.334 . S
C1823 H1800 0.950 . S
C1823 C1822 1.334 . S
C1823 C1824 1.287 1_545 S
C1824 C1823 1.287 1_565 S
C1824 C1825 1.524 . S
C1824 H1843 0.913 . S
C1825 H1801 0.950 . S
C1825 C1824 1.524 . S
C1825 C1826 1.415 . S
C1826 H1802 0.950 . S
C1826 C1821 1.363 . S
C1826 C1825 1.415 . S
C1827 H1803 0.951 . S
C1827 C1828 1.366 . S
C1827 C1829 1.388 . S
C1828 C1827 1.366 . S
C1828 C1832 1.385 . S
C1829 H1804 0.951 1_565 S
C1829 C1827 1.388 . S
C1829 C1830 1.366 . S
C1830 C1829 1.366 . S
C1830 C1831 1.414 . S
C1830 C1833 1.499 . S
C1831 H1805 0.950 . S
C1831 C1830 1.414 . S
C1831 C1832 1.374 . S
C1832 H1806 0.950 . S
C1832 C1828 1.385 . S
C1832 C1831 1.374 . S
C1833 C1830 1.499 . S
C1833 C1834 1.373 1_556 S
C1833 C1835 1.389 1_565 S
C1834 H1807 0.950 . S
C1834 C1820 1.377 . S
C1834 C1833 1.373 1_554 S
C1835 C1819 1.377 . S
C1835 C1833 1.389 1_545 S
C1835 C1836 1.524 . S
C1836 C1835 1.524 . S
C1836 C1837 1.397 1_545 S
C1836 C1841 1.363 . S
C1837 H1808 0.950 . S
C1837 C1836 1.397 1_565 S
C1837 C1838 1.334 . S
C1838 H1809 0.950 . S
C1838 C1837 1.334 . S
C1838 C1839 1.287 1_565 S
C1839 C1838 1.287 1_545 S
C1839 C1840 1.524 . S
C1839 H1842 0.999 . S
C1840 H1810 0.950 . S
C1840 C1839 1.524 . S
C1840 C1841 1.415 . S
C1841 H1811 0.950 . S
C1841 C1836 1.363 . S
C1841 C1840 1.415 . S
H1842 C1839 0.999 . S
H1843 C1824 0.913 . S
H1844 C1862 0.951 . S
H1845 C1864 0.951 . S
H1846 C1866 0.950 . S
H1847 C1867 0.950 . S
H1848 C1869 0.950 . S
H1849 C1872 0.950 . S
H1850 C1873 0.950 . S
H1851 C1875 0.950 . S
H1852 C1876 0.950 . S
H1853 C1877 0.951 . S
H1854 C1879 0.951 . S
H1855 C1881 0.950 . S
H1856 C1882 0.950 . S
H1857 C1884 0.950 . S
H1858 C1887 0.950 . S
H1859 C1888 0.950 . S
H1860 C1890 0.950 . S
H1861 C1891 0.950 . S
C1862 H1844 0.951 . S
C1862 C1863 1.366 . S
C1862 C1864 1.388 . S
C1863 C1862 1.366 . S
C1863 C1867 1.385 . S
C1864 H1845 0.951 . S
C1864 C1862 1.388 . S
C1864 C1865 1.366 . S
C1865 C1864 1.366 . S
C1865 C1866 1.414 . S
C1865 C1868 1.499 . S
C1866 H1846 0.950 . S
C1866 C1865 1.414 . S
C1866 C1867 1.374 . S
C1867 H1847 0.950 . S
C1867 C1863 1.385 . S
C1867 C1866 1.374 . S
C1868 C1865 1.499 . S
C1868 C1869 1.373 1_455 S
C1868 C1870 1.389 1_556 S
C1869 H1848 0.950 . S
C1869 C1868 1.373 1_655 S
C1869 C1885 1.377 . S
C1870 C1868 1.389 1_554 S
C1870 C1871 1.524 . S
C1870 C1884 1.377 . S
C1871 C1870 1.524 . S
C1871 C1872 1.397 1_554 S
C1871 C1876 1.363 . S
C1872 H1849 0.950 . S
C1872 C1871 1.397 1_556 S
C1872 C1873 1.334 . S
C1873 H1850 0.950 . S
C1873 C1872 1.334 . S
C1873 C1874 1.287 1_556 S
C1874 C1873 1.287 1_554 S
C1874 C1875 1.524 . S
C1874 H1893 0.913 . S
C1875 H1851 0.950 . S
C1875 C1874 1.524 . S
C1875 C1876 1.415 . S
C1876 H1852 0.950 . S
C1876 C1871 1.363 . S
C1876 C1875 1.415 . S
C1877 H1853 0.951 . S
C1877 C1878 1.366 . S
C1877 C1879 1.388 . S
C1878 C1877 1.366 . S
C1878 C1882 1.385 . S
C1879 H1854 0.951 . S
C1879 C1877 1.388 . S
C1879 C1880 1.366 . S
C1880 C1879 1.366 . S
C1880 C1881 1.414 . S
C1880 C1883 1.499 . S
C1881 H1855 0.950 . S
C1881 C1880 1.414 . S
C1881 C1882 1.374 . S
C1882 H1856 0.950 . S
C1882 C1878 1.385 . S
C1882 C1881 1.374 . S
C1883 C1880 1.499 . S
C1883 C1884 1.373 1_655 S
C1883 C1885 1.389 1_554 S
C1884 H1857 0.950 . S
C1884 C1870 1.377 . S
C1884 C1883 1.373 1_455 S
C1885 C1869 1.377 . S
C1885 C1883 1.389 1_556 S
C1885 C1886 1.524 . S
C1886 C1885 1.524 . S
C1886 C1887 1.397 1_556 S
C1886 C1891 1.363 . S
C1887 H1858 0.950 . S
C1887 C1886 1.397 1_554 S
C1887 C1888 1.334 . S
C1888 H1859 0.950 . S
C1888 C1887 1.334 . S
C1888 C1889 1.287 1_554 S
C1889 C1888 1.287 1_556 S
C1889 C1890 1.524 . S
C1889 H1892 0.999 . S
C1890 H1860 0.950 . S
C1890 C1889 1.524 . S
C1890 C1891 1.415 . S
C1891 H1861 0.950 . S
C1891 C1886 1.363 . S
C1891 C1890 1.415 . S
H1892 C1889 0.999 . S
H1893 C1874 0.913 . S
H1894 C1912 0.951 . S
H1895 C1914 0.951 . S
H1896 C1916 0.950 . S
H1897 C1917 0.950 . S
H1898 C1919 0.950 . S
H1899 C1922 0.950 . S
H1900 C1923 0.950 . S
H1901 C1925 0.950 . S
H1902 C1926 0.950 . S
H1903 C1927 0.951 . S
H1904 C1929 0.951 . S
H1905 C1931 0.950 . S
H1906 C1932 0.950 . S
H1907 C1934 0.950 . S
H1908 C1937 0.950 . S
H1909 C1938 0.950 . S
H1910 C1940 0.950 . S
H1911 C1941 0.950 . S
C1912 H1894 0.951 . S
C1912 C1913 1.366 . S
C1912 C1914 1.388 . S
C1913 C1912 1.366 . S
C1913 C1917 1.385 . S
C1914 H1895 0.951 . S
C1914 C1912 1.388 . S
C1914 C1915 1.366 . S
C1915 C1914 1.366 . S
C1915 C1916 1.414 . S
C1915 C1918 1.499 . S
C1916 H1896 0.950 . S
C1916 C1915 1.414 . S
C1916 C1917 1.374 . S
C1917 H1897 0.950 . S
C1917 C1913 1.385 . S
C1917 C1916 1.374 . S
C1918 C1915 1.499 . S
C1918 C1919 1.373 . S
C1918 C1920 1.389 . S
C1919 H1898 0.950 . S
C1919 C1918 1.373 . S
C1919 C1935 1.377 1_556 S
C1920 C1918 1.389 . S
C1920 C1921 1.524 . S
C1920 C1934 1.377 1_556 S
C1921 C1920 1.524 . S
C1921 C1922 1.397 . S
C1921 C1926 1.363 . S
C1922 H1899 0.950 . S
C1922 C1921 1.397 . S
C1922 C1923 1.334 . S
C1923 H1900 0.950 . S
C1923 C1922 1.334 . S
C1923 C1924 1.287 . S
C1924 C1923 1.287 . S
C1924 C1925 1.524 . S
C1924 H1943 0.913 . S
C1925 H1901 0.950 . S
C1925 C1924 1.524 . S
C1925 C1926 1.415 . S
C1926 H1902 0.950 . S
C1926 C1921 1.363 . S
C1926 C1925 1.415 . S
C1927 H1903 0.951 . S
C1927 C1928 1.366 . S
C1927 C1929 1.388 . S
C1928 C1927 1.366 . S
C1928 C1932 1.385 . S
C1929 H1904 0.951 . S
C1929 C1927 1.388 . S
C1929 C1930 1.366 . S
C1930 C1929 1.366 . S
C1930 C1931 1.414 . S
C1930 C1933 1.499 . S
C1931 H1905 0.950 . S
C1931 C1930 1.414 . S
C1931 C1932 1.374 . S
C1932 H1906 0.950 . S
C1932 C1928 1.385 . S
C1932 C1931 1.374 . S
C1933 C1930 1.499 . S
C1933 C1934 1.373 . S
C1933 C1935 1.389 . S
C1934 H1907 0.950 . S
C1934 C1920 1.377 1_554 S
C1934 C1933 1.373 . S
C1935 C1919 1.377 1_554 S
C1935 C1933 1.389 . S
C1935 C1936 1.524 . S
C1936 C1935 1.524 . S
C1936 C1937 1.397 . S
C1936 C1941 1.363 . S
C1937 H1908 0.950 . S
C1937 C1936 1.397 . S
C1937 C1938 1.334 . S
C1938 H1909 0.950 . S
C1938 C1937 1.334 . S
C1938 C1939 1.287 . S
C1939 C1938 1.287 . S
C1939 C1940 1.524 . S
C1939 H1942 0.999 . S
C1940 H1910 0.950 . S
C1940 C1939 1.524 . S
C1940 C1941 1.415 . S
C1941 H1911 0.950 . S
C1941 C1936 1.363 . S
C1941 C1940 1.415 . S
H1942 C1939 0.999 . S
H1943 C1924 0.913 . S
H1944 C1962 0.951 . S
H1945 C1964 0.951 . S
H1946 C1966 0.950 . S
H1947 C1967 0.950 . S
H1948 C1969 0.950 . S
H1949 C1972 0.950 . S
H1950 C1973 0.950 . S
H1951 C1975 0.950 . S
H1952 C1976 0.950 . S
H1953 C1977 0.951 . S
H1954 C1979 0.951 . S
H1955 C1981 0.950 . S
H1956 C1982 0.950 . S
H1957 C1984 0.950 . S
H1958 C1987 0.950 . S
H1959 C1988 0.950 . S
H1960 C1990 0.950 . S
H1961 C1991 0.950 . S
C1962 H1944 0.951 . S
C1962 C1963 1.366 . S
C1962 C1964 1.388 1_554 S
C1963 C1962 1.366 . S
C1963 C1967 1.385 . S
C1964 H1945 0.951 . S
C1964 C1962 1.388 1_556 S
C1964 C1965 1.366 1_556 S
C1965 C1964 1.366 1_554 S
C1965 C1966 1.414 . S
C1965 C1968 1.499 1_554 S
C1966 H1946 0.950 . S
C1966 C1965 1.414 . S
C1966 C1967 1.374 . S
C1967 H1947 0.950 . S
C1967 C1963 1.385 . S
C1967 C1966 1.374 . S
C1968 C1965 1.499 1_556 S
C1968 C1969 1.373 1_556 S
C1968 C1970 1.389 . S
C1969 H1948 0.950 . S
C1969 C1968 1.373 1_554 S
C1969 C1985 1.377 1_554 S
C1970 C1968 1.389 . S
C1970 C1971 1.524 . S
C1970 C1984 1.377 . S
C1971 C1970 1.524 . S
C1971 C1972 1.397 . S
C1971 C1976 1.363 . S
C1972 H1949 0.950 . S
C1972 C1971 1.397 . S
C1972 C1973 1.334 . S
C1973 H1950 0.950 . S
C1973 C1972 1.334 . S
C1973 C1974 1.287 . S
C1974 C1973 1.287 . S
C1974 C1975 1.524 . S
C1974 H1993 0.913 . S
C1975 H1951 0.950 . S
C1975 C1974 1.524 . S
C1975 C1976 1.415 . S
C1976 H1952 0.950 . S
C1976 C1971 1.363 . S
C1976 C1975 1.415 . S
C1977 H1953 0.951 . S
C1977 C1978 1.366 . S
C1977 C1979 1.388 . S
C1978 C1977 1.366 . S
C1978 C1982 1.385 . S
C1979 H1954 0.951 . S
C1979 C1977 1.388 . S
C1979 C1980 1.366 . S
C1980 C1979 1.366 . S
C1980 C1981 1.414 . S
C1980 C1983 1.499 . S
C1981 H1955 0.950 . S
C1981 C1980 1.414 . S
C1981 C1982 1.374 . S
C1982 H1956 0.950 . S
C1982 C1978 1.385 . S
C1982 C1981 1.374 . S
C1983 C1980 1.499 . S
C1983 C1984 1.373 . S
C1983 C1985 1.389 . S
C1984 H1957 0.950 . S
C1984 C1970 1.377 . S
C1984 C1983 1.373 . S
C1985 C1969 1.377 1_556 S
C1985 C1983 1.389 . S
C1985 C1986 1.524 1_556 S
C1986 C1985 1.524 1_554 S
C1986 C1987 1.397 . S
C1986 C1991 1.363 . S
C1987 H1958 0.950 . S
C1987 C1986 1.397 . S
C1987 C1988 1.334 . S
C1988 H1959 0.950 . S
C1988 C1987 1.334 . S
C1988 C1989 1.287 . S
C1989 C1988 1.287 . S
C1989 C1990 1.524 . S
C1989 H1992 0.999 . S
C1990 H1960 0.950 . S
C1990 C1989 1.524 . S
C1990 C1991 1.415 . S
C1991 H1961 0.950 . S
C1991 C1986 1.363 . S
C1991 C1990 1.415 . S
H1992 C1989 0.999 . S
H1993 C1974 0.913 . S
H1994 C2012 0.951 . S
H1995 C2014 0.951 . S
H1996 C2016 0.950 . S
H1997 C2017 0.950 . S
H1998 C2019 0.950 . S
H1999 C2022 0.950 . S
H2000 C2023 0.950 . S
H2001 C2025 0.950 . S
H2002 C2026 0.950 . S
H2003 C2027 0.905 1_565 S
H2004 C2029 0.951 1_556 S
H2005 C2031 0.950 . S
H2006 C2032 0.950 . S
H2007 C2034 0.950 . S
H2008 C2037 0.950 . S
H2009 C2038 0.950 . S
H2010 C2040 0.950 . S
H2011 C2041 0.950 . S
C2012 H1994 0.951 . S
C2012 C2013 1.366 . S
C2012 C2014 1.388 . S
C2013 C2012 1.366 . S
C2013 C2017 1.385 . S
C2014 H1995 0.951 . S
C2014 C2012 1.388 . S
C2014 C2015 1.366 . S
C2015 C2014 1.366 . S
C2015 C2016 1.414 . S
C2015 C2018 1.499 . S
C2016 H1996 0.950 . S
C2016 C2015 1.414 . S
C2016 C2017 1.374 . S
C2017 H1997 0.950 . S
C2017 C2013 1.385 . S
C2017 C2016 1.374 . S
C2018 C2015 1.499 . S
C2018 C2019 1.373 . S
C2018 C2020 1.389 . S
C2019 H1998 0.950 . S
C2019 C2018 1.373 . S
C2019 C2035 1.377 . S
C2020 C2018 1.389 . S
C2020 C2021 1.524 1_556 S
C2020 C2034 1.377 1_556 S
C2021 C2020 1.524 1_554 S
C2021 C2022 1.397 . S
C2021 C2026 1.363 . S
C2022 H1999 0.950 . S
C2022 C2021 1.397 . S
C2022 C2023 1.334 . S
C2023 H2000 0.950 . S
C2023 C2022 1.334 . S
C2023 C2024 1.287 . S
C2024 C2023 1.287 . S
C2024 C2025 1.524 . S
C2024 H2043 0.913 . S
C2025 H2001 0.950 . S
C2025 C2024 1.524 . S
C2025 C2026 1.415 . S
C2026 H2002 0.950 . S
C2026 C2021 1.363 . S
C2026 C2025 1.415 . S
C2027 H2003 0.905 1_545 S
C2027 C2028 1.366 . S
C2027 C2029 1.388 . S
C2028 C2027 1.366 . S
C2028 C2032 1.385 . S
C2029 H2004 0.951 1_554 S
C2029 C2027 1.388 . S
C2029 C2030 1.366 . S
C2030 C2029 1.366 . S
C2030 C2031 1.414 . S
C2030 C2033 1.499 1_554 S
C2031 H2005 0.950 . S
C2031 C2030 1.414 . S
C2031 C2032 1.374 . S
C2032 H2006 0.950 . S
C2032 C2028 1.385 . S
C2032 C2031 1.374 . S
C2033 C2030 1.499 1_556 S
C2033 C2034 1.373 1_556 S
C2033 C2035 1.389 . S
C2034 H2007 0.950 . S
C2034 C2020 1.377 1_554 S
C2034 C2033 1.373 1_554 S
C2035 C2019 1.377 . S
C2035 C2033 1.389 . S
C2035 C2036 1.524 . S
C2036 C2035 1.524 . S
C2036 C2037 1.397 . S
C2036 C2041 1.363 . S
C2037 H2008 0.950 . S
C2037 C2036 1.397 . S
C2037 C2038 1.334 . S
C2038 H2009 0.950 . S
C2038 C2037 1.334 . S
C2038 C2039 1.287 . S
C2039 C2038 1.287 . S
C2039 C2040 1.524 . S
C2039 H2042 0.999 . S
C2040 H2010 0.950 . S
C2040 C2039 1.524 . S
C2040 C2041 1.415 . S
C2041 H2011 0.950 . S
C2041 C2036 1.363 . S
C2041 C2040 1.415 . S
H2042 C2039 0.999 . S
H2043 C2024 0.913 . S
H2044 C2062 0.951 . S
H2045 C2064 0.951 . S
H2046 C2066 0.950 1_556 S
H2047 C2067 0.950 . S
H2048 C2069 0.950 . S
H2049 C2072 0.950 . S
H2050 C2073 0.950 . S
H2051 C2075 0.950 . S
H2052 C2076 0.950 . S
H2053 C2077 0.951 . S
H2054 C2079 0.951 . S
H2055 C2081 0.950 . S
H2056 C2082 0.950 . S
H2057 C2084 0.950 1_554 S
H2058 C2087 0.950 . S
H2059 C2088 0.950 . S
H2060 C2090 0.950 . S
H2061 C2091 0.950 . S
C2062 H2044 0.951 . S
C2062 C2063 1.366 . S
C2062 C2064 1.388 . S
C2063 C2062 1.366 . S
C2063 C2067 1.385 . S
C2064 H2045 0.951 . S
C2064 C2062 1.388 . S
C2064 C2065 1.366 . S
C2065 C2064 1.366 . S
C2065 C2066 1.414 . S
C2065 C2068 1.499 1_554 S
C2066 H2046 0.950 1_554 S
C2066 C2065 1.414 . S
C2066 C2067 1.374 . S
C2067 H2047 0.950 . S
C2067 C2063 1.385 . S
C2067 C2066 1.374 . S
C2068 C2065 1.499 1_556 S
C2068 C2069 1.373 . S
C2068 C2070 1.389 1_556 S
C2069 H2048 0.950 . S
C2069 C2068 1.373 . S
C2069 C2085 1.377 . S
C2070 C2068 1.389 1_554 S
C2070 C2071 1.524 . S
C2070 C2084 1.377 1_554 S
C2071 C2070 1.524 . S
C2071 C2072 1.397 . S
C2071 C2076 1.363 . S
C2072 H2049 0.950 . S
C2072 C2071 1.397 . S
C2072 C2073 1.334 . S
C2073 H2050 0.950 . S
C2073 C2072 1.334 . S
C2073 C2074 1.287 . S
C2074 C2073 1.287 . S
C2074 C2075 1.524 . S
C2074 H2093 0.913 . S
C2075 H2051 0.950 . S
C2075 C2074 1.524 . S
C2075 C2076 1.415 . S
C2076 H2052 0.950 . S
C2076 C2071 1.363 . S
C2076 C2075 1.415 . S
C2077 H2053 0.951 . S
C2077 C2078 1.366 . S
C2077 C2079 1.388 . S
C2078 C2077 1.366 . S
C2078 C2082 1.385 . S
C2079 H2054 0.951 . S
C2079 C2077 1.388 . S
C2079 C2080 1.366 . S
C2080 C2079 1.366 . S
C2080 C2081 1.414 . S
C2080 C2083 1.499 . S
C2081 H2055 0.950 . S
C2081 C2080 1.414 . S
C2081 C2082 1.374 . S
C2082 H2056 0.950 . S
C2082 C2078 1.385 . S
C2082 C2081 1.374 . S
C2083 C2080 1.499 . S
C2083 C2084 1.373 . S
C2083 C2085 1.389 . S
C2084 H2057 0.950 1_556 S
C2084 C2070 1.377 1_556 S
C2084 C2083 1.373 . S
C2085 C2069 1.377 . S
C2085 C2083 1.389 . S
C2085 C2086 1.524 . S
C2086 C2085 1.524 . S
C2086 C2087 1.397 . S
C2086 C2091 1.363 . S
C2087 H2058 0.950 . S
C2087 C2086 1.397 . S
C2087 C2088 1.334 . S
C2088 H2059 0.950 . S
C2088 C2087 1.334 . S
C2088 C2089 1.287 . S
C2089 C2088 1.287 . S
C2089 C2090 1.524 . S
C2089 H2092 0.999 . S
C2090 H2060 0.950 . S
C2090 C2089 1.524 . S
C2090 C2091 1.415 . S
C2091 H2061 0.950 . S
C2091 C2086 1.363 . S
C2091 C2090 1.415 . S
H2092 C2089 0.999 . S
H2093 C2074 0.913 . S
H2094 C2112 0.951 . S
H2095 C2114 0.951 . S
H2096 C2116 0.950 . S
H2097 C2117 0.950 . S
H2098 C2119 0.950 . S
H2099 C2122 0.950 . S
H2100 C2123 0.950 . S
H2101 C2125 0.950 . S
H2102 C2126 0.950 . S
H2103 C2127 0.951 . S
H2104 C2129 0.951 . S
H2105 C2131 0.950 . S
H2106 C2132 0.950 . S
H2107 C2134 0.950 1_556 S
H2108 C2137 0.950 . S
H2109 C2138 0.950 . S
H2110 C2140 0.950 . S
H2111 C2141 0.950 . S
C2112 H2094 0.951 . S
C2112 C2113 1.366 . S
C2112 C2114 1.388 . S
C2113 C2112 1.366 . S
C2113 C2117 1.385 . S
C2114 H2095 0.951 . S
C2114 C2112 1.388 . S
C2114 C2115 1.366 . S
C2115 C2114 1.366 . S
C2115 C2116 1.414 . S
C2115 C2118 1.499 . S
C2116 H2096 0.950 . S
C2116 C2115 1.414 . S
C2116 C2117 1.374 . S
C2117 H2097 0.950 . S
C2117 C2113 1.385 . S
C2117 C2116 1.374 . S
C2118 C2115 1.499 . S
C2118 C2119 1.373 . S
C2118 C2120 1.389 . S
C2119 H2098 0.950 . S
C2119 C2118 1.373 . S
C2119 C2135 1.377 . S
C2120 C2118 1.389 . S
C2120 C2121 1.524 . S
C2120 C2134 1.377 . S
C2121 C2120 1.524 . S
C2121 C2122 1.397 1_554 S
C2121 C2126 1.363 . S
C2122 H2099 0.950 . S
C2122 C2121 1.397 1_556 S
C2122 C2123 1.334 . S
C2123 H2100 0.950 . S
C2123 C2122 1.334 . S
C2123 C2124 1.287 . S
C2124 C2123 1.287 . S
C2124 C2125 1.524 1_556 S
C2124 H2143 0.913 . S
C2125 H2101 0.950 . S
C2125 C2124 1.524 1_554 S
C2125 C2126 1.415 . S
C2126 H2102 0.950 . S
C2126 C2121 1.363 . S
C2126 C2125 1.415 . S
C2127 H2103 0.951 . S
C2127 C2128 1.366 . S
C2127 C2129 1.388 . S
C2128 C2127 1.366 . S
C2128 C2132 1.385 . S
C2129 H2104 0.951 . S
C2129 C2127 1.388 . S
C2129 C2130 1.366 . S
C2130 C2129 1.366 . S
C2130 C2131 1.414 1_556 S
C2130 C2133 1.499 1_556 S
C2131 H2105 0.950 . S
C2131 C2130 1.414 1_554 S
C2131 C2132 1.374 1_554 S
C2132 H2106 0.950 . S
C2132 C2128 1.385 . S
C2132 C2131 1.374 1_556 S
C2133 C2130 1.499 1_554 S
C2133 C2134 1.373 . S
C2133 C2135 1.389 . S
C2134 H2107 0.950 1_554 S
C2134 C2120 1.377 . S
C2134 C2133 1.373 . S
C2135 C2119 1.377 . S
C2135 C2133 1.389 . S
C2135 C2136 1.524 . S
C2136 C2135 1.524 . S
C2136 C2137 1.397 . S
C2136 C2141 1.363 . S
C2137 H2108 0.950 . S
C2137 C2136 1.397 . S
C2137 C2138 1.334 . S
C2138 H2109 0.950 . S
C2138 C2137 1.334 . S
C2138 C2139 1.287 . S
C2139 C2138 1.287 . S
C2139 C2140 1.524 . S
C2139 H2142 0.999 . S
C2140 H2110 0.950 . S
C2140 C2139 1.524 . S
C2140 C2141 1.415 . S
C2141 H2111 0.950 . S
C2141 C2136 1.363 . S
C2141 C2140 1.415 . S
H2142 C2139 0.999 . S
H2143 C2124 0.913 . S
H2144 C2162 0.951 . S
H2145 C2164 0.951 . S
H2146 C2166 0.950 . S
H2147 C2167 0.961 1_545 S
H2148 C2169 0.950 . S
H2149 C2172 0.950 . S
H2150 C2173 0.950 . S
H2151 C2175 0.950 . S
H2152 C2176 0.950 . S
H2153 C2177 0.951 . S
H2154 C2179 0.951 . S
H2155 C2181 0.950 . S
H2156 C2182 0.950 . S
H2157 C2184 0.950 1_556 S
H2158 C2187 0.950 . S
H2159 C2188 0.950 . S
H2160 C2190 0.950 . S
H2161 C2191 0.950 . S
C2162 H2144 0.951 . S
C2162 C2163 1.366 . S
C2162 C2164 1.388 . S
C2163 C2162 1.366 . S
C2163 C2167 1.366 1_556 S
C2164 H2145 0.951 . S
C2164 C2162 1.388 . S
C2164 C2165 1.366 . S
C2165 C2164 1.366 . S
C2165 C2166 1.414 1_556 S
C2165 C2168 1.499 1_556 S
C2166 H2146 0.950 . S
C2166 C2165 1.414 1_554 S
C2166 C2167 1.382 . S
C2167 H2147 0.961 1_565 S
C2167 C2163 1.366 1_554 S
C2167 C2166 1.382 . S
C2168 C2165 1.499 1_554 S
C2168 C2169 1.373 . S
C2168 C2170 1.389 1_554 S
C2169 H2148 0.950 . S
C2169 C2168 1.373 . S
C2169 C2185 1.377 . S
C2170 C2168 1.389 1_556 S
C2170 C2171 1.524 . S
C2170 C2184 1.377 1_556 S
C2171 C2170 1.524 . S
C2171 C2172 1.397 . S
C2171 C2176 1.363 . S
C2172 H2149 0.950 . S
C2172 C2171 1.397 . S
C2172 C2173 1.334 . S
C2173 H2150 0.950 . S
C2173 C2172 1.334 . S
C2173 C2174 1.287 . S
C2174 C2173 1.287 . S
C2174 C2175 1.524 . S
C2174 H2193 0.913 . S
C2175 H2151 0.950 . S
C2175 C2174 1.524 . S
C2175 C2176 1.415 . S
C2176 H2152 0.950 . S
C2176 C2171 1.363 . S
C2176 C2175 1.415 . S
C2177 H2153 0.951 . S
C2177 C2178 1.366 . S
C2177 C2179 1.388 . S
C2178 C2177 1.366 . S
C2178 C2182 1.385 . S
C2179 H2154 0.951 . S
C2179 C2177 1.388 . S
C2179 C2180 1.366 . S
C2180 C2179 1.366 . S
C2180 C2181 1.414 . S
C2180 C2183 1.499 . S
C2181 H2155 0.950 . S
C2181 C2180 1.414 . S
C2181 C2182 1.374 . S
C2182 H2156 0.950 . S
C2182 C2178 1.385 . S
C2182 C2181 1.374 . S
C2183 C2180 1.499 . S
C2183 C2184 1.373 . S
C2183 C2185 1.389 . S
C2184 H2157 0.950 1_554 S
C2184 C2170 1.377 1_554 S
C2184 C2183 1.373 . S
C2185 C2169 1.377 . S
C2185 C2183 1.389 . S
C2185 C2186 1.524 . S
C2186 C2185 1.524 . S
C2186 C2187 1.397 . S
C2186 C2191 1.363 . S
C2187 H2158 0.950 . S
C2187 C2186 1.397 . S
C2187 C2188 1.334 . S
C2188 H2159 0.950 . S
C2188 C2187 1.334 . S
C2188 C2189 1.287 . S
C2189 C2188 1.287 . S
C2189 C2190 1.524 . S
C2189 H2192 0.999 . S
C2190 H2160 0.950 . S
C2190 C2189 1.524 . S
C2190 C2191 1.415 . S
C2191 H2161 0.950 . S
C2191 C2186 1.363 . S
C2191 C2190 1.415 . S
H2192 C2189 0.999 . S
H2193 C2174 0.913 . S
H2194 C2212 0.951 . S
H2195 C2214 0.951 . S
H2196 C2216 0.950 . S
H2197 C2217 0.950 . S
H2198 C2219 0.950 . S
H2199 C2222 0.950 . S
H2200 C2223 0.951 . S
H2201 C2225 0.950 . S
H2202 C2226 0.950 . S
H2203 C2227 0.951 . S
H2204 C2229 0.951 . S
H2205 C2231 0.950 . S
H2206 C2232 0.950 . S
H2207 C2234 0.950 . S
H2208 C2237 0.950 . S
H2209 C2238 0.950 . S
H2210 C2240 0.950 . S
H2211 C2241 0.950 . S
C2212 H2194 0.951 . S
C2212 C2213 1.366 . S
C2212 C2214 1.388 . S
C2213 C2212 1.366 . S
C2213 C2217 1.385 . S
C2214 H2195 0.951 . S
C2214 C2212 1.388 . S
C2214 C2215 1.366 . S
C2215 C2214 1.366 . S
C2215 C2216 1.414 . S
C2215 C2218 1.499 . S
C2216 H2196 0.950 . S
C2216 C2215 1.414 . S
C2216 C2217 1.374 . S
C2217 H2197 0.950 . S
C2217 C2213 1.385 . S
C2217 C2216 1.374 . S
C2218 C2215 1.499 . S
C2218 C2219 1.373 . S
C2218 C2220 1.389 . S
C2219 H2198 0.950 . S
C2219 C2218 1.373 . S
C2219 C2235 1.377 . S
C2220 C2218 1.389 . S
C2220 C2221 1.524 1_554 S
C2220 C2234 1.377 1_554 S
C2221 C2220 1.524 1_556 S
C2221 C2222 1.397 1_556 S
C2221 C2226 1.363 . S
C2222 H2199 0.950 . S
C2222 C2221 1.397 1_554 S
C2222 C2223 1.334 1_554 S
C2223 H2200 0.951 . S
C2223 C2222 1.334 1_556 S
C2223 C2224 1.287 . S
C2224 C2223 1.287 . S
C2224 C2225 1.524 . S
C2224 H2243 0.913 . S
C2225 H2201 0.950 . S
C2225 C2224 1.524 . S
C2225 C2226 1.415 . S
C2226 H2202 0.950 . S
C2226 C2221 1.363 . S
C2226 C2225 1.415 . S
C2227 H2203 0.951 . S
C2227 C2228 1.366 1_554 S
C2227 C2229 1.388 . S
C2228 C2227 1.366 1_556 S
C2228 C2232 1.385 . S
C2229 H2204 0.951 . S
C2229 C2227 1.388 . S
C2229 C2230 1.366 1_554 S
C2230 C2229 1.366 1_556 S
C2230 C2231 1.414 . S
C2230 C2233 1.499 1_556 S
C2231 H2205 0.950 . S
C2231 C2230 1.414 . S
C2231 C2232 1.374 . S
C2232 H2206 0.950 . S
C2232 C2228 1.385 . S
C2232 C2231 1.374 . S
C2233 C2230 1.499 1_554 S
C2233 C2234 1.373 1_554 S
C2233 C2235 1.389 . S
C2234 H2207 0.950 . S
C2234 C2220 1.377 1_556 S
C2234 C2233 1.373 1_556 S
C2235 C2219 1.377 . S
C2235 C2233 1.389 . S
C2235 C2236 1.524 . S
C2236 C2235 1.524 . S
C2236 C2237 1.397 . S
C2236 C2241 1.363 . S
C2237 H2208 0.950 . S
C2237 C2236 1.397 . S
C2237 C2238 1.334 . S
C2238 H2209 0.950 . S
C2238 C2237 1.334 . S
C2238 C2239 1.287 . S
C2239 C2238 1.287 . S
C2239 C2240 1.524 . S
C2239 H2242 0.999 . S
C2240 H2210 0.950 . S
C2240 C2239 1.524 . S
C2240 C2241 1.415 . S
C2241 H2211 0.950 . S
C2241 C2236 1.363 . S
C2241 C2240 1.415 . S
H2242 C2239 0.999 . S
H2243 C2224 0.913 . S
H2244 C2262 0.951 . S
H2245 C2264 0.951 . S
H2246 C2266 0.950 . S
H2247 C2267 0.950 . S
H2248 C2269 0.950 . S
H2249 C2272 0.950 . S
H2250 C2273 0.950 . S
H2251 C2275 0.950 . S
H2252 C2276 0.950 . S
H2253 C2277 0.951 . S
H2254 C2279 0.951 . S
H2255 C2281 0.950 . S
H2256 C2282 0.950 . S
H2257 C2284 0.950 . S
H2258 C2287 0.950 . S
H2259 C2288 0.950 . S
H2260 C2290 0.950 . S
H2261 C2291 0.950 . S
C2262 H2244 0.951 . S
C2262 C2263 1.366 . S
C2262 C2264 1.388 . S
C2263 C2262 1.366 . S
C2263 C2267 1.385 . S
C2264 H2245 0.951 . S
C2264 C2262 1.388 . S
C2264 C2265 1.366 . S
C2265 C2264 1.366 . S
C2265 C2266 1.414 . S
C2265 C2268 1.499 . S
C2266 H2246 0.950 . S
C2266 C2265 1.414 . S
C2266 C2267 1.374 . S
C2267 H2247 0.950 . S
C2267 C2263 1.385 . S
C2267 C2266 1.374 . S
C2268 C2265 1.499 . S
C2268 C2269 1.373 . S
C2268 C2270 1.389 . S
C2269 H2248 0.950 . S
C2269 C2268 1.373 . S
C2269 C2285 1.377 . S
C2270 C2268 1.389 . S
C2270 C2271 1.524 . S
C2270 C2284 1.377 . S
C2271 C2270 1.524 . S
C2271 C2272 1.397 . S
C2271 C2276 1.363 . S
C2272 H2249 0.950 . S
C2272 C2271 1.397 . S
C2272 C2273 1.334 . S
C2273 H2250 0.950 . S
C2273 C2272 1.334 . S
C2273 C2274 1.287 . S
C2274 C2273 1.287 . S
C2274 C2275 1.524 . S
C2274 H2293 0.913 . S
C2275 H2251 0.950 . S
C2275 C2274 1.524 . S
C2275 C2276 1.415 . S
C2276 H2252 0.950 . S
C2276 C2271 1.363 . S
C2276 C2275 1.415 . S
C2277 H2253 0.951 . S
C2277 C2278 1.366 . S
C2277 C2279 1.388 . S
C2278 C2277 1.366 . S
C2278 C2282 1.385 . S
C2279 H2254 0.951 . S
C2279 C2277 1.388 . S
C2279 C2280 1.366 . S
C2280 C2279 1.366 . S
C2280 C2281 1.414 . S
C2280 C2283 1.499 . S
C2281 H2255 0.950 . S
C2281 C2280 1.414 . S
C2281 C2282 1.374 . S
C2282 H2256 0.950 . S
C2282 C2278 1.385 . S
C2282 C2281 1.374 . S
C2283 C2280 1.499 . S
C2283 C2284 1.373 . S
C2283 C2285 1.389 . S
C2284 H2257 0.950 . S
C2284 C2270 1.377 . S
C2284 C2283 1.373 . S
C2285 C2269 1.377 . S
C2285 C2283 1.389 . S
C2285 C2286 1.524 . S
C2286 C2285 1.524 . S
C2286 C2287 1.397 . S
C2286 C2291 1.363 . S
C2287 H2258 0.950 . S
C2287 C2286 1.397 . S
C2287 C2288 1.334 . S
C2288 H2259 0.950 . S
C2288 C2287 1.334 . S
C2288 C2289 1.287 . S
C2289 C2288 1.287 . S
C2289 C2290 1.524 . S
C2289 H2292 0.999 . S
C2290 H2260 0.950 . S
C2290 C2289 1.524 . S
C2290 C2291 1.415 . S
C2291 H2261 0.950 . S
C2291 C2286 1.363 . S
C2291 C2290 1.415 . S
H2292 C2289 0.999 . S
H2293 C2274 0.913 . S
H2294 C2312 0.951 . S
H2295 C2314 0.951 . S
H2296 C2316 0.950 . S
H2297 C2317 0.950 . S
H2298 C2319 0.950 . S
H2299 C2322 0.950 . S
H2300 C2323 0.950 . S
H2301 C2325 0.950 . S
H2302 C2326 0.950 . S
H2303 C2327 0.951 . S
H2304 C2329 0.951 . S
H2305 C2331 0.950 . S
H2306 C2332 0.950 . S
H2307 C2334 0.950 . S
H2308 C2337 0.950 . S
H2309 C2338 0.950 . S
H2310 C2340 0.950 . S
H2311 C2341 0.950 . S
C2312 H2294 0.951 . S
C2312 C2313 1.366 . S
C2312 C2314 1.388 . S
C2313 C2312 1.366 . S
C2313 C2317 1.385 . S
C2314 H2295 0.951 . S
C2314 C2312 1.388 . S
C2314 C2315 1.366 . S
C2315 C2314 1.366 . S
C2315 C2316 1.414 . S
C2315 C2318 1.499 . S
C2316 H2296 0.950 . S
C2316 C2315 1.414 . S
C2316 C2317 1.374 . S
C2317 H2297 0.950 . S
C2317 C2313 1.385 . S
C2317 C2316 1.374 . S
C2318 C2315 1.499 . S
C2318 C2319 1.373 . S
C2318 C2320 1.389 . S
C2319 H2298 0.950 . S
C2319 C2318 1.373 . S
C2319 C2335 1.377 . S
C2320 C2318 1.389 . S
C2320 C2321 1.524 . S
C2320 C2334 1.377 . S
C2321 C2320 1.524 . S
C2321 C2322 1.397 . S
C2321 C2326 1.363 . S
C2322 H2299 0.950 . S
C2322 C2321 1.397 . S
C2322 C2323 1.334 . S
C2323 H2300 0.950 . S
C2323 C2322 1.334 . S
C2323 C2324 1.287 . S
C2324 C2323 1.287 . S
C2324 C2325 1.524 . S
C2324 H2343 0.913 . S
C2325 H2301 0.950 . S
C2325 C2324 1.524 . S
C2325 C2326 1.415 . S
C2326 H2302 0.950 . S
C2326 C2321 1.363 . S
C2326 C2325 1.415 . S
C2327 H2303 0.951 . S
C2327 C2328 1.366 . S
C2327 C2329 1.388 . S
C2328 C2327 1.366 . S
C2328 C2332 1.385 . S
C2329 H2304 0.951 . S
C2329 C2327 1.388 . S
C2329 C2330 1.366 . S
C2330 C2329 1.366 . S
C2330 C2331 1.414 . S
C2330 C2333 1.499 . S
C2331 H2305 0.950 . S
C2331 C2330 1.414 . S
C2331 C2332 1.374 . S
C2332 H2306 0.950 . S
C2332 C2328 1.385 . S
C2332 C2331 1.374 . S
C2333 C2330 1.499 . S
C2333 C2334 1.373 . S
C2333 C2335 1.389 . S
C2334 H2307 0.950 . S
C2334 C2320 1.377 . S
C2334 C2333 1.373 . S
C2335 C2319 1.377 . S
C2335 C2333 1.389 . S
C2335 C2336 1.524 . S
C2336 C2335 1.524 . S
C2336 C2337 1.397 . S
C2336 C2341 1.363 . S
C2337 H2308 0.950 . S
C2337 C2336 1.397 . S
C2337 C2338 1.334 . S
C2338 H2309 0.950 . S
C2338 C2337 1.334 . S
C2338 C2339 1.287 . S
C2339 C2338 1.287 . S
C2339 C2340 1.524 . S
C2339 H2342 0.999 . S
C2340 H2310 0.950 . S
C2340 C2339 1.524 . S
C2340 C2341 1.415 . S
C2341 H2311 0.950 . S
C2341 C2336 1.363 . S
C2341 C2340 1.415 . S
H2342 C2339 0.999 . S
H2343 C2324 0.913 . S
H2344 C2362 0.951 . S
H2345 C2364 0.951 . S
H2346 C2366 0.950 . S
H2347 C2367 0.950 . S
H2348 C2369 0.950 . S
H2349 C2372 0.950 . S
H2350 C2373 0.950 . S
H2351 C2375 0.950 . S
H2352 C2376 0.950 . S
H2353 C2377 0.951 . S
H2354 C2379 0.951 . S
H2355 C2381 0.950 . S
H2356 C2382 0.950 . S
H2357 C2384 0.950 . S
H2358 C2387 0.950 . S
H2359 C2388 0.950 . S
H2360 C2390 0.950 . S
H2361 C2391 0.950 . S
C2362 H2344 0.951 . S
C2362 C2363 1.366 . S
C2362 C2364 1.388 . S
C2363 C2362 1.366 . S
C2363 C2367 1.385 . S
C2364 H2345 0.951 . S
C2364 C2362 1.388 . S
C2364 C2365 1.366 . S
C2365 C2364 1.366 . S
C2365 C2366 1.414 . S
C2365 C2368 1.499 . S
C2366 H2346 0.950 . S
C2366 C2365 1.414 . S
C2366 C2367 1.374 . S
C2367 H2347 0.950 . S
C2367 C2363 1.385 . S
C2367 C2366 1.374 . S
C2368 C2365 1.499 . S
C2368 C2369 1.373 . S
C2368 C2370 1.389 . S
C2369 H2348 0.950 . S
C2369 C2368 1.373 . S
C2369 C2385 1.377 . S
C2370 C2368 1.389 . S
C2370 C2371 1.524 . S
C2370 C2384 1.377 . S
C2371 C2370 1.524 . S
C2371 C2372 1.397 . S
C2371 C2376 1.363 . S
C2372 H2349 0.950 . S
C2372 C2371 1.397 . S
C2372 C2373 1.334 . S
C2373 H2350 0.950 . S
C2373 C2372 1.334 . S
C2373 C2374 1.287 . S
C2374 C2373 1.287 . S
C2374 C2375 1.524 . S
C2374 H2393 0.913 . S
C2375 H2351 0.950 . S
C2375 C2374 1.524 . S
C2375 C2376 1.415 . S
C2376 H2352 0.950 . S
C2376 C2371 1.363 . S
C2376 C2375 1.415 . S
C2377 H2353 0.951 . S
C2377 C2378 1.366 . S
C2377 C2379 1.388 . S
C2378 C2377 1.366 . S
C2378 C2382 1.385 . S
C2379 H2354 0.951 . S
C2379 C2377 1.388 . S
C2379 C2380 1.366 . S
C2380 C2379 1.366 . S
C2380 C2381 1.414 . S
C2380 C2383 1.499 . S
C2381 H2355 0.950 . S
C2381 C2380 1.414 . S
C2381 C2382 1.374 . S
C2382 H2356 0.950 . S
C2382 C2378 1.385 . S
C2382 C2381 1.374 . S
C2383 C2380 1.499 . S
C2383 C2384 1.373 . S
C2383 C2385 1.389 . S
C2384 H2357 0.950 . S
C2384 C2370 1.377 . S
C2384 C2383 1.373 . S
C2385 C2369 1.377 . S
C2385 C2383 1.389 . S
C2385 C2386 1.524 . S
C2386 C2385 1.524 . S
C2386 C2387 1.397 . S
C2386 C2391 1.363 . S
C2387 H2358 0.950 . S
C2387 C2386 1.397 . S
C2387 C2388 1.334 . S
C2388 H2359 0.950 . S
C2388 C2387 1.334 . S
C2388 C2389 1.287 . S
C2389 C2388 1.287 . S
C2389 C2390 1.524 . S
C2389 H2392 0.999 . S
C2390 H2360 0.950 . S
C2390 C2389 1.524 . S
C2390 C2391 1.415 . S
C2391 H2361 0.950 . S
C2391 C2386 1.363 . S
C2391 C2390 1.415 . S
H2392 C2389 0.999 . S
H2393 C2374 0.913 . S
H2394 C2412 0.951 . S
H2395 C2414 0.951 . S
H2396 C2416 0.950 . S
H2397 C2417 0.950 . S
H2398 C2419 0.950 . S
H2399 C2422 0.950 . S
H2400 C2423 0.950 . S
H2401 C2425 0.950 . S
H2402 C2426 0.950 . S
H2403 C2427 0.951 . S
H2404 C2429 0.951 . S
H2405 C2431 0.950 . S
H2406 C2432 0.950 . S
H2407 C2434 0.950 . S
H2408 C2437 0.950 . S
H2409 C2438 0.950 . S
H2410 C2440 0.950 . S
H2411 C2441 0.950 . S
C2412 H2394 0.951 . S
C2412 C2413 1.366 . S
C2412 C2414 1.388 . S
C2413 C2412 1.366 . S
C2413 C2417 1.385 . S
C2414 H2395 0.951 . S
C2414 C2412 1.388 . S
C2414 C2415 1.366 . S
C2415 C2414 1.366 . S
C2415 C2416 1.414 . S
C2415 C2418 1.499 . S
C2416 H2396 0.950 . S
C2416 C2415 1.414 . S
C2416 C2417 1.374 . S
C2417 H2397 0.950 . S
C2417 C2413 1.385 . S
C2417 C2416 1.374 . S
C2418 C2415 1.499 . S
C2418 C2419 1.373 . S
C2418 C2420 1.389 . S
C2419 H2398 0.950 . S
C2419 C2418 1.373 . S
C2419 C2435 1.377 . S
C2420 C2418 1.389 . S
C2420 C2421 1.524 . S
C2420 C2434 1.377 . S
C2421 C2420 1.524 . S
C2421 C2422 1.397 . S
C2421 C2426 1.363 . S
C2422 H2399 0.950 . S
C2422 C2421 1.397 . S
C2422 C2423 1.334 . S
C2423 H2400 0.950 . S
C2423 C2422 1.334 . S
C2423 C2424 1.287 . S
C2424 C2423 1.287 . S
C2424 C2425 1.524 . S
C2424 H2443 0.913 . S
C2425 H2401 0.950 . S
C2425 C2424 1.524 . S
C2425 C2426 1.415 . S
C2426 H2402 0.950 . S
C2426 C2421 1.363 . S
C2426 C2425 1.415 . S
C2427 H2403 0.951 . S
C2427 C2428 1.366 . S
C2427 C2429 1.388 . S
C2428 C2427 1.366 . S
C2428 C2432 1.385 . S
C2429 H2404 0.951 . S
C2429 C2427 1.388 . S
C2429 C2430 1.366 . S
C2430 C2429 1.366 . S
C2430 C2431 1.414 . S
C2430 C2433 1.499 . S
C2431 H2405 0.950 . S
C2431 C2430 1.414 . S
C2431 C2432 1.374 . S
C2432 H2406 0.950 . S
C2432 C2428 1.385 . S
C2432 C2431 1.374 . S
C2433 C2430 1.499 . S
C2433 C2434 1.373 . S
C2433 C2435 1.389 . S
C2434 H2407 0.950 . S
C2434 C2420 1.377 . S
C2434 C2433 1.373 . S
C2435 C2419 1.377 . S
C2435 C2433 1.389 . S
C2435 C2436 1.524 . S
C2436 C2435 1.524 . S
C2436 C2437 1.397 . S
C2436 C2441 1.363 . S
C2437 H2408 0.950 . S
C2437 C2436 1.397 . S
C2437 C2438 1.334 . S
C2438 H2409 0.950 . S
C2438 C2437 1.334 . S
C2438 C2439 1.287 . S
C2439 C2438 1.287 . S
C2439 C2440 1.524 . S
C2439 H2442 0.999 . S
C2440 H2410 0.950 . S
C2440 C2439 1.524 . S
C2440 C2441 1.415 . S
C2441 H2411 0.950 . S
C2441 C2436 1.363 . S
C2441 C2440 1.415 . S
H2442 C2439 0.999 . S
H2443 C2424 0.913 . S
H2444 C2462 0.951 . S
H2445 C2464 0.951 . S
H2446 C2466 0.950 . S
H2447 C2467 0.950 . S
H2448 C2469 0.950 . S
H2449 C2472 0.950 . S
H2450 C2473 0.950 . S
H2451 C2475 0.950 . S
H2452 C2476 0.950 . S
H2453 C2477 0.951 . S
H2454 C2479 0.951 . S
H2455 C2481 0.950 . S
H2456 C2482 0.950 . S
H2457 C2484 0.950 . S
H2458 C2487 0.950 . S
H2459 C2488 0.950 . S
H2460 C2490 0.950 . S
H2461 C2491 0.950 . S
C2462 H2444 0.951 . S
C2462 C2463 1.366 . S
C2462 C2464 1.388 . S
C2463 C2462 1.366 . S
C2463 C2467 1.385 . S
C2464 H2445 0.951 . S
C2464 C2462 1.388 . S
C2464 C2465 1.366 . S
C2465 C2464 1.366 . S
C2465 C2466 1.414 . S
C2465 C2468 1.499 . S
C2466 H2446 0.950 . S
C2466 C2465 1.414 . S
C2466 C2467 1.374 . S
C2467 H2447 0.950 . S
C2467 C2463 1.385 . S
C2467 C2466 1.374 . S
C2468 C2465 1.499 . S
C2468 C2469 1.373 . S
C2468 C2470 1.389 . S
C2469 H2448 0.950 . S
C2469 C2468 1.373 . S
C2469 C2485 1.377 . S
C2470 C2468 1.389 . S
C2470 C2471 1.524 . S
C2470 C2484 1.377 . S
C2471 C2470 1.524 . S
C2471 C2472 1.397 . S
C2471 C2476 1.363 . S
C2472 H2449 0.950 . S
C2472 C2471 1.397 . S
C2472 C2473 1.334 . S
C2473 H2450 0.950 . S
C2473 C2472 1.334 . S
C2473 C2474 1.287 . S
C2474 C2473 1.287 . S
C2474 C2475 1.524 . S
C2474 H2493 0.913 . S
C2475 H2451 0.950 . S
C2475 C2474 1.524 . S
C2475 C2476 1.415 . S
C2476 H2452 0.950 . S
C2476 C2471 1.363 . S
C2476 C2475 1.415 . S
C2477 H2453 0.951 . S
C2477 C2478 1.366 . S
C2477 C2479 1.388 . S
C2478 C2477 1.366 . S
C2478 C2482 1.385 . S
C2479 H2454 0.951 . S
C2479 C2477 1.388 . S
C2479 C2480 1.366 . S
C2480 C2479 1.366 . S
C2480 C2481 1.414 . S
C2480 C2483 1.499 . S
C2481 H2455 0.950 . S
C2481 C2480 1.414 . S
C2481 C2482 1.374 . S
C2482 H2456 0.950 . S
C2482 C2478 1.385 . S
C2482 C2481 1.374 . S
C2483 C2480 1.499 . S
C2483 C2484 1.373 . S
C2483 C2485 1.389 . S
C2484 H2457 0.950 . S
C2484 C2470 1.377 . S
C2484 C2483 1.373 . S
C2485 C2469 1.377 . S
C2485 C2483 1.389 . S
C2485 C2486 1.524 . S
C2486 C2485 1.524 . S
C2486 C2487 1.397 . S
C2486 C2491 1.363 . S
C2487 H2458 0.950 . S
C2487 C2486 1.397 . S
C2487 C2488 1.334 . S
C2488 H2459 0.950 . S
C2488 C2487 1.334 . S
C2488 C2489 1.287 . S
C2489 C2488 1.287 . S
C2489 C2490 1.524 . S
C2489 H2492 0.999 . S
C2490 H2460 0.950 . S
C2490 C2489 1.524 . S
C2490 C2491 1.415 . S
C2491 H2461 0.950 . S
C2491 C2486 1.363 . S
C2491 C2490 1.415 . S
H2492 C2489 0.999 . S
H2493 C2474 0.913 . S
H2494 C2512 0.951 . S
H2495 C2514 0.951 . S
H2496 C2516 0.950 . S
H2497 C2517 0.950 . S
H2498 C2519 0.950 . S
H2499 C2522 0.950 . S
H2500 C2523 0.950 . S
H2501 C2525 0.950 . S
H2502 C2526 0.950 . S
H2503 C2527 0.951 . S
H2504 C2529 0.951 . S
H2505 C2531 0.950 . S
H2506 C2532 0.950 . S
H2507 C2534 0.950 . S
H2508 C2537 0.950 . S
H2509 C2538 0.950 . S
H2510 C2540 0.950 . S
H2511 C2541 0.950 . S
C2512 H2494 0.951 . S
C2512 C2513 1.366 . S
C2512 C2514 1.388 . S
C2513 C2512 1.366 . S
C2513 C2517 1.385 . S
C2514 H2495 0.951 . S
C2514 C2512 1.388 . S
C2514 C2515 1.366 . S
C2515 C2514 1.366 . S
C2515 C2516 1.414 . S
C2515 C2518 1.499 . S
C2516 H2496 0.950 . S
C2516 C2515 1.414 . S
C2516 C2517 1.374 . S
C2517 H2497 0.950 . S
C2517 C2513 1.385 . S
C2517 C2516 1.374 . S
C2518 C2515 1.499 . S
C2518 C2519 1.373 . S
C2518 C2520 1.389 . S
C2519 H2498 0.950 . S
C2519 C2518 1.373 . S
C2519 C2535 1.377 . S
C2520 C2518 1.389 . S
C2520 C2521 1.524 . S
C2520 C2534 1.377 . S
C2521 C2520 1.524 . S
C2521 C2522 1.397 . S
C2521 C2526 1.363 . S
C2522 H2499 0.950 . S
C2522 C2521 1.397 . S
C2522 C2523 1.334 . S
C2523 H2500 0.950 . S
C2523 C2522 1.334 . S
C2523 C2524 1.287 . S
C2524 C2523 1.287 . S
C2524 C2525 1.524 . S
C2524 H2543 0.913 . S
C2525 H2501 0.950 . S
C2525 C2524 1.524 . S
C2525 C2526 1.415 . S
C2526 H2502 0.950 . S
C2526 C2521 1.363 . S
C2526 C2525 1.415 . S
C2527 H2503 0.951 . S
C2527 C2528 1.366 . S
C2527 C2529 1.388 . S
C2528 C2527 1.366 . S
C2528 C2532 1.385 . S
C2529 H2504 0.951 . S
C2529 C2527 1.388 . S
C2529 C2530 1.366 . S
C2530 C2529 1.366 . S
C2530 C2531 1.414 . S
C2530 C2533 1.499 . S
C2531 H2505 0.950 . S
C2531 C2530 1.414 . S
C2531 C2532 1.374 . S
C2532 H2506 0.950 . S
C2532 C2528 1.385 . S
C2532 C2531 1.374 . S
C2533 C2530 1.499 . S
C2533 C2534 1.373 . S
C2533 C2535 1.389 . S
C2534 H2507 0.950 . S
C2534 C2520 1.377 . S
C2534 C2533 1.373 . S
C2535 C2519 1.377 . S
C2535 C2533 1.389 . S
C2535 C2536 1.524 . S
C2536 C2535 1.524 . S
C2536 C2537 1.397 . S
C2536 C2541 1.363 . S
C2537 H2508 0.950 . S
C2537 C2536 1.397 . S
C2537 C2538 1.334 . S
C2538 H2509 0.950 . S
C2538 C2537 1.334 . S
C2538 C2539 1.287 . S
C2539 C2538 1.287 . S
C2539 C2540 1.524 . S
C2539 H2542 0.999 . S
C2540 H2510 0.950 . S
C2540 C2539 1.524 . S
C2540 C2541 1.415 . S
C2541 H2511 0.950 . S
C2541 C2536 1.363 . S
C2541 C2540 1.415 . S
H2542 C2539 0.999 . S
H2543 C2524 0.913 . S
H2544 C2562 0.951 . S
H2545 C2564 0.951 . S
H2546 C2566 0.950 . S
H2547 C2567 0.950 . S
H2548 C2569 0.950 . S
H2549 C2572 0.950 . S
H2550 C2573 0.950 . S
H2551 C2575 0.950 . S
H2552 C2576 0.950 . S
H2553 C2577 0.951 . S
H2554 C2579 0.951 . S
H2555 C2581 0.950 . S
H2556 C2582 0.950 . S
H2557 C2584 0.950 . S
H2558 C2587 0.950 . S
H2559 C2588 0.950 . S
H2560 C2590 0.950 . S
H2561 C2591 0.950 . S
C2562 H2544 0.951 . S
C2562 C2563 1.366 . S
C2562 C2564 1.388 . S
C2563 C2562 1.366 . S
C2563 C2567 1.385 . S
C2564 H2545 0.951 . S
C2564 C2562 1.388 . S
C2564 C2565 1.366 . S
C2565 C2564 1.366 . S
C2565 C2566 1.414 . S
C2565 C2568 1.499 . S
C2566 H2546 0.950 . S
C2566 C2565 1.414 . S
C2566 C2567 1.374 . S
C2567 H2547 0.950 . S
C2567 C2563 1.385 . S
C2567 C2566 1.374 . S
C2568 C2565 1.499 . S
C2568 C2569 1.373 . S
C2568 C2570 1.389 . S
C2569 H2548 0.950 . S
C2569 C2568 1.373 . S
C2569 C2585 1.377 . S
C2570 C2568 1.389 . S
C2570 C2571 1.524 . S
C2570 C2584 1.377 . S
C2571 C2570 1.524 . S
C2571 C2572 1.397 . S
C2571 C2576 1.363 . S
C2572 H2549 0.950 . S
C2572 C2571 1.397 . S
C2572 C2573 1.334 . S
C2573 H2550 0.950 . S
C2573 C2572 1.334 . S
C2573 C2574 1.287 . S
C2574 C2573 1.287 . S
C2574 C2575 1.524 . S
C2574 H2593 0.913 . S
C2575 H2551 0.950 . S
C2575 C2574 1.524 . S
C2575 C2576 1.415 . S
C2576 H2552 0.950 . S
C2576 C2571 1.363 . S
C2576 C2575 1.415 . S
C2577 H2553 0.951 . S
C2577 C2578 1.366 . S
C2577 C2579 1.388 . S
C2578 C2577 1.366 . S
C2578 C2582 1.385 . S
C2579 H2554 0.951 . S
C2579 C2577 1.388 . S
C2579 C2580 1.366 . S
C2580 C2579 1.366 . S
C2580 C2581 1.414 . S
C2580 C2583 1.499 . S
C2581 H2555 0.950 . S
C2581 C2580 1.414 . S
C2581 C2582 1.374 . S
C2582 H2556 0.950 . S
C2582 C2578 1.385 . S
C2582 C2581 1.374 . S
C2583 C2580 1.499 . S
C2583 C2584 1.373 . S
C2583 C2585 1.389 . S
C2584 H2557 0.950 . S
C2584 C2570 1.377 . S
C2584 C2583 1.373 . S
C2585 C2569 1.377 . S
C2585 C2583 1.389 . S
C2585 C2586 1.524 . S
C2586 C2585 1.524 . S
C2586 C2587 1.397 . S
C2586 C2591 1.363 . S
C2587 H2558 0.950 . S
C2587 C2586 1.397 . S
C2587 C2588 1.334 . S
C2588 H2559 0.950 . S
C2588 C2587 1.334 . S
C2588 C2589 1.287 . S
C2589 C2588 1.287 . S
C2589 C2590 1.524 . S
C2589 H2592 0.999 . S
C2590 H2560 0.950 . S
C2590 C2589 1.524 . S
C2590 C2591 1.415 . S
C2591 H2561 0.950 . S
C2591 C2586 1.363 . S
C2591 C2590 1.415 . S
H2592 C2589 0.999 . S
H2593 C2574 0.913 . S
H2594 C2612 0.951 . S
H2595 C2614 0.951 . S
H2596 C2616 0.950 . S
H2597 C2617 0.950 . S
H2598 C2619 0.950 . S
H2599 C2622 0.950 . S
H2600 C2623 0.950 . S
H2601 C2625 0.950 . S
H2602 C2626 0.950 . S
H2603 C2627 0.951 . S
H2604 C2629 0.951 . S
H2605 C2631 0.950 . S
H2606 C2632 0.950 . S
H2607 C2634 0.950 . S
H2608 C2637 0.950 . S
H2609 C2638 0.950 . S
H2610 C2640 0.950 . S
H2611 C2641 0.950 . S
C2612 H2594 0.951 . S
C2612 C2613 1.366 . S
C2612 C2614 1.388 . S
C2613 C2612 1.366 . S
C2613 C2617 1.385 . S
C2614 H2595 0.951 . S
C2614 C2612 1.388 . S
C2614 C2615 1.366 . S
C2615 C2614 1.366 . S
C2615 C2616 1.414 . S
C2615 C2618 1.499 . S
C2616 H2596 0.950 . S
C2616 C2615 1.414 . S
C2616 C2617 1.374 . S
C2617 H2597 0.950 . S
C2617 C2613 1.385 . S
C2617 C2616 1.374 . S
C2618 C2615 1.499 . S
C2618 C2619 1.373 . S
C2618 C2620 1.389 . S
C2619 H2598 0.950 . S
C2619 C2618 1.373 . S
C2619 C2635 1.377 . S
C2620 C2618 1.389 . S
C2620 C2621 1.524 . S
C2620 C2634 1.377 . S
C2621 C2620 1.524 . S
C2621 C2622 1.397 . S
C2621 C2626 1.363 . S
C2622 H2599 0.950 . S
C2622 C2621 1.397 . S
C2622 C2623 1.334 . S
C2623 H2600 0.950 . S
C2623 C2622 1.334 . S
C2623 C2624 1.287 . S
C2624 C2623 1.287 . S
C2624 C2625 1.524 . S
C2624 H2643 0.913 . S
C2625 H2601 0.950 . S
C2625 C2624 1.524 . S
C2625 C2626 1.415 . S
C2626 H2602 0.950 . S
C2626 C2621 1.363 . S
C2626 C2625 1.415 . S
C2627 H2603 0.951 . S
C2627 C2628 1.366 . S
C2627 C2629 1.388 . S
C2628 C2627 1.366 . S
C2628 C2632 1.385 . S
C2629 H2604 0.951 . S
C2629 C2627 1.388 . S
C2629 C2630 1.366 . S
C2630 C2629 1.366 . S
C2630 C2631 1.414 . S
C2630 C2633 1.499 . S
C2631 H2605 0.950 . S
C2631 C2630 1.414 . S
C2631 C2632 1.374 . S
C2632 H2606 0.950 . S
C2632 C2628 1.385 . S
C2632 C2631 1.374 . S
C2633 C2630 1.499 . S
C2633 C2634 1.373 . S
C2633 C2635 1.389 . S
C2634 H2607 0.950 . S
C2634 C2620 1.377 . S
C2634 C2633 1.373 . S
C2635 C2619 1.377 . S
C2635 C2633 1.389 . S
C2635 C2636 1.524 . S
C2636 C2635 1.524 . S
C2636 C2637 1.397 . S
C2636 C2641 1.363 . S
C2637 H2608 0.950 . S
C2637 C2636 1.397 . S
C2637 C2638 1.334 . S
C2638 H2609 0.950 . S
C2638 C2637 1.334 . S
C2638 C2639 1.287 . S
C2639 C2638 1.287 . S
C2639 C2640 1.524 . S
C2639 H2642 0.999 . S
C2640 H2610 0.950 . S
C2640 C2639 1.524 . S
C2640 C2641 1.415 . S
C2641 H2611 0.950 . S
C2641 C2636 1.363 . S
C2641 C2640 1.415 . S
H2642 C2639 0.999 . S
H2643 C2624 0.913 . S
H2644 C2662 0.951 . S
H2645 C2664 0.951 . S
H2646 C2666 0.950 . S
H2647 C2667 0.950 . S
H2648 C2669 0.950 . S
H2649 C2672 0.950 . S
H2650 C2673 0.950 . S
H2651 C2675 0.950 . S
H2652 C2676 0.950 . S
H2653 C2677 0.951 . S
H2654 C2679 0.951 . S
H2655 C2681 0.950 . S
H2656 C2682 0.950 . S
H2657 C2684 0.950 . S
H2658 C2687 0.950 . S
H2659 C2688 0.950 . S
H2660 C2690 0.950 . S
H2661 C2691 0.950 . S
C2662 H2644 0.951 . S
C2662 C2663 1.366 . S
C2662 C2664 1.388 . S
C2663 C2662 1.366 . S
C2663 C2667 1.385 . S
C2664 H2645 0.951 . S
C2664 C2662 1.388 . S
C2664 C2665 1.366 . S
C2665 C2664 1.366 . S
C2665 C2666 1.414 . S
C2665 C2668 1.499 . S
C2666 H2646 0.950 . S
C2666 C2665 1.414 . S
C2666 C2667 1.374 . S
C2667 H2647 0.950 . S
C2667 C2663 1.385 . S
C2667 C2666 1.374 . S
C2668 C2665 1.499 . S
C2668 C2669 1.373 . S
C2668 C2670 1.389 . S
C2669 H2648 0.950 . S
C2669 C2668 1.373 . S
C2669 C2685 1.377 . S
C2670 C2668 1.389 . S
C2670 C2671 1.524 . S
C2670 C2684 1.377 . S
C2671 C2670 1.524 . S
C2671 C2672 1.397 . S
C2671 C2676 1.363 . S
C2672 H2649 0.950 . S
C2672 C2671 1.397 . S
C2672 C2673 1.334 . S
C2673 H2650 0.950 . S
C2673 C2672 1.334 . S
C2673 C2674 1.287 . S
C2674 C2673 1.287 . S
C2674 C2675 1.524 . S
C2674 H2693 0.913 . S
C2675 H2651 0.950 . S
C2675 C2674 1.524 . S
C2675 C2676 1.415 . S
C2676 H2652 0.950 . S
C2676 C2671 1.363 . S
C2676 C2675 1.415 . S
C2677 H2653 0.951 . S
C2677 C2678 1.366 . S
C2677 C2679 1.388 . S
C2678 C2677 1.366 . S
C2678 C2682 1.385 . S
C2679 H2654 0.951 . S
C2679 C2677 1.388 . S
C2679 C2680 1.366 . S
C2680 C2679 1.366 . S
C2680 C2681 1.414 . S
C2680 C2683 1.499 . S
C2681 H2655 0.950 . S
C2681 C2680 1.414 . S
C2681 C2682 1.374 . S
C2682 H2656 0.950 . S
C2682 C2678 1.385 . S
C2682 C2681 1.374 . S
C2683 C2680 1.499 . S
C2683 C2684 1.373 . S
C2683 C2685 1.389 . S
C2684 H2657 0.950 . S
C2684 C2670 1.377 . S
C2684 C2683 1.373 . S
C2685 C2669 1.377 . S
C2685 C2683 1.389 . S
C2685 C2686 1.524 . S
C2686 C2685 1.524 . S
C2686 C2687 1.397 . S
C2686 C2691 1.363 . S
C2687 H2658 0.950 . S
C2687 C2686 1.397 . S
C2687 C2688 1.334 . S
C2688 H2659 0.950 . S
C2688 C2687 1.334 . S
C2688 C2689 1.287 . S
C2689 C2688 1.287 . S
C2689 C2690 1.524 . S
C2689 H2692 0.999 . S
C2690 H2660 0.950 . S
C2690 C2689 1.524 . S
C2690 C2691 1.415 . S
C2691 H2661 0.950 . S
C2691 C2686 1.363 . S
C2691 C2690 1.415 . S
H2692 C2689 0.999 . S
H2693 C2674 0.913 . S
H2694 C2712 0.951 . S
H2695 C2714 0.951 . S
H2696 C2716 0.950 . S
H2697 C2717 0.950 . S
H2698 C2719 0.950 . S
H2699 C2722 0.950 . S
H2700 C2723 0.950 . S
H2701 C2725 0.950 . S
H2702 C2726 0.950 . S
H2703 C2727 0.951 . S
H2704 C2729 0.951 . S
H2705 C2731 0.950 . S
H2706 C2732 0.950 . S
H2707 C2734 0.950 . S
H2708 C2737 0.950 . S
H2709 C2738 0.950 . S
H2710 C2740 0.950 . S
H2711 C2741 0.950 . S
C2712 H2694 0.951 . S
C2712 C2713 1.366 . S
C2712 C2714 1.388 . S
C2713 C2712 1.366 . S
C2713 C2717 1.385 . S
C2714 H2695 0.951 . S
C2714 C2712 1.388 . S
C2714 C2715 1.366 . S
C2715 C2714 1.366 . S
C2715 C2716 1.414 . S
C2715 C2718 1.499 . S
C2716 H2696 0.950 . S
C2716 C2715 1.414 . S
C2716 C2717 1.374 . S
C2717 H2697 0.950 . S
C2717 C2713 1.385 . S
C2717 C2716 1.374 . S
C2718 C2715 1.499 . S
C2718 C2719 1.373 . S
C2718 C2720 1.389 . S
C2719 H2698 0.950 . S
C2719 C2718 1.373 . S
C2719 C2735 1.377 . S
C2720 C2718 1.389 . S
C2720 C2721 1.524 . S
C2720 C2734 1.377 . S
C2721 C2720 1.524 . S
C2721 C2722 1.397 . S
C2721 C2726 1.363 . S
C2722 H2699 0.950 . S
C2722 C2721 1.397 . S
C2722 C2723 1.334 . S
C2723 H2700 0.950 . S
C2723 C2722 1.334 . S
C2723 C2724 1.287 . S
C2724 C2723 1.287 . S
C2724 C2725 1.524 . S
C2724 H2743 0.913 . S
C2725 H2701 0.950 . S
C2725 C2724 1.524 . S
C2725 C2726 1.415 . S
C2726 H2702 0.950 . S
C2726 C2721 1.363 . S
C2726 C2725 1.415 . S
C2727 H2703 0.951 . S
C2727 C2728 1.366 . S
C2727 C2729 1.388 . S
C2728 C2727 1.366 . S
C2728 C2732 1.385 . S
C2729 H2704 0.951 . S
C2729 C2727 1.388 . S
C2729 C2730 1.366 . S
C2730 C2729 1.366 . S
C2730 C2731 1.414 . S
C2730 C2733 1.499 . S
C2731 H2705 0.950 . S
C2731 C2730 1.414 . S
C2731 C2732 1.374 . S
C2732 H2706 0.950 . S
C2732 C2728 1.385 . S
C2732 C2731 1.374 . S
C2733 C2730 1.499 . S
C2733 C2734 1.373 . S
C2733 C2735 1.389 . S
C2734 H2707 0.950 . S
C2734 C2720 1.377 . S
C2734 C2733 1.373 . S
C2735 C2719 1.377 . S
C2735 C2733 1.389 . S
C2735 C2736 1.524 . S
C2736 C2735 1.524 . S
C2736 C2737 1.397 . S
C2736 C2741 1.363 . S
C2737 H2708 0.950 . S
C2737 C2736 1.397 . S
C2737 C2738 1.334 . S
C2738 H2709 0.950 . S
C2738 C2737 1.334 . S
C2738 C2739 1.287 . S
C2739 C2738 1.287 . S
C2739 C2740 1.524 . S
C2739 H2742 0.999 . S
C2740 H2710 0.950 . S
C2740 C2739 1.524 . S
C2740 C2741 1.415 . S
C2741 H2711 0.950 . S
C2741 C2736 1.363 . S
C2741 C2740 1.415 . S
H2742 C2739 0.999 . S
H2743 C2724 0.913 . S
H2744 C2762 0.951 . S
H2745 C2764 0.951 . S
H2746 C2766 0.950 . S
H2747 C2767 0.950 . S
H2748 C2769 0.950 . S
H2749 C2772 0.950 . S
H2750 C2773 0.950 . S
H2751 C2775 0.950 . S
H2752 C2776 0.950 . S
H2753 C2777 0.951 . S
H2754 C2779 0.951 . S
H2755 C2781 0.950 . S
H2756 C2782 0.950 . S
H2757 C2784 0.950 . S
H2758 C2787 0.950 . S
H2759 C2788 0.950 . S
H2760 C2790 0.950 . S
H2761 C2791 0.950 . S
C2762 H2744 0.951 . S
C2762 C2763 1.366 . S
C2762 C2764 1.388 . S
C2763 C2762 1.366 . S
C2763 C2767 1.385 . S
C2764 H2745 0.951 . S
C2764 C2762 1.388 . S
C2764 C2765 1.366 . S
C2765 C2764 1.366 . S
C2765 C2766 1.414 . S
C2765 C2768 1.499 . S
C2766 H2746 0.950 . S
C2766 C2765 1.414 . S
C2766 C2767 1.374 . S
C2767 H2747 0.950 . S
C2767 C2763 1.385 . S
C2767 C2766 1.374 . S
C2768 C2765 1.499 . S
C2768 C2769 1.373 . S
C2768 C2770 1.389 . S
C2769 H2748 0.950 . S
C2769 C2768 1.373 . S
C2769 C2785 1.377 . S
C2770 C2768 1.389 . S
C2770 C2771 1.524 . S
C2770 C2784 1.377 . S
C2771 C2770 1.524 . S
C2771 C2772 1.397 . S
C2771 C2776 1.363 . S
C2772 H2749 0.950 . S
C2772 C2771 1.397 . S
C2772 C2773 1.334 . S
C2773 H2750 0.950 . S
C2773 C2772 1.334 . S
C2773 C2774 1.287 . S
C2774 C2773 1.287 . S
C2774 C2775 1.524 . S
C2774 H2793 0.913 . S
C2775 H2751 0.950 . S
C2775 C2774 1.524 . S
C2775 C2776 1.415 . S
C2776 H2752 0.950 . S
C2776 C2771 1.363 . S
C2776 C2775 1.415 . S
C2777 H2753 0.951 . S
C2777 C2778 1.366 . S
C2777 C2779 1.388 . S
C2778 C2777 1.366 . S
C2778 C2782 1.385 . S
C2779 H2754 0.951 . S
C2779 C2777 1.388 . S
C2779 C2780 1.366 . S
C2780 C2779 1.366 . S
C2780 C2781 1.414 . S
C2780 C2783 1.499 . S
C2781 H2755 0.950 . S
C2781 C2780 1.414 . S
C2781 C2782 1.374 . S
C2782 H2756 0.950 . S
C2782 C2778 1.385 . S
C2782 C2781 1.374 . S
C2783 C2780 1.499 . S
C2783 C2784 1.373 . S
C2783 C2785 1.389 . S
C2784 H2757 0.950 . S
C2784 C2770 1.377 . S
C2784 C2783 1.373 . S
C2785 C2769 1.377 . S
C2785 C2783 1.389 . S
C2785 C2786 1.524 . S
C2786 C2785 1.524 . S
C2786 C2787 1.397 . S
C2786 C2791 1.363 . S
C2787 H2758 0.950 . S
C2787 C2786 1.397 . S
C2787 C2788 1.334 . S
C2788 H2759 0.950 . S
C2788 C2787 1.334 . S
C2788 C2789 1.287 . S
C2789 C2788 1.287 . S
C2789 C2790 1.524 . S
C2789 H2792 0.999 . S
C2790 H2760 0.950 . S
C2790 C2789 1.524 . S
C2790 C2791 1.415 . S
C2791 H2761 0.950 . S
C2791 C2786 1.363 . S
C2791 C2790 1.415 . S
H2792 C2789 0.999 . S
H2793 C2774 0.913 . S
H2794 C2812 0.951 . S
H2795 C2814 0.951 . S
H2796 C2816 0.950 . S
H2797 C2817 0.950 . S
H2798 C2819 0.950 . S
H2799 C2822 0.950 . S
H2800 C2823 0.950 . S
H2801 C2825 0.950 . S
H2802 C2826 0.950 . S
H2803 C2827 0.951 . S
H2804 C2829 0.951 . S
H2805 C2831 0.950 . S
H2806 C2832 0.950 . S
H2807 C2834 0.950 . S
H2808 C2837 0.950 . S
H2809 C2838 0.950 . S
H2810 C2840 0.950 . S
H2811 C2841 0.950 . S
C2812 H2794 0.951 . S
C2812 C2813 1.366 . S
C2812 C2814 1.388 . S
C2813 C2812 1.366 . S
C2813 C2817 1.385 . S
C2814 H2795 0.951 . S
C2814 C2812 1.388 . S
C2814 C2815 1.366 . S
C2815 C2814 1.366 . S
C2815 C2816 1.414 . S
C2815 C2818 1.499 . S
C2816 H2796 0.950 . S
C2816 C2815 1.414 . S
C2816 C2817 1.374 . S
C2817 H2797 0.950 . S
C2817 C2813 1.385 . S
C2817 C2816 1.374 . S
C2818 C2815 1.499 . S
C2818 C2819 1.373 . S
C2818 C2820 1.389 . S
C2819 H2798 0.950 . S
C2819 C2818 1.373 . S
C2819 C2835 1.377 . S
C2820 C2818 1.389 . S
C2820 C2821 1.524 . S
C2820 C2834 1.377 . S
C2821 C2820 1.524 . S
C2821 C2822 1.397 . S
C2821 C2826 1.363 . S
C2822 H2799 0.950 . S
C2822 C2821 1.397 . S
C2822 C2823 1.334 . S
C2823 H2800 0.950 . S
C2823 C2822 1.334 . S
C2823 C2824 1.287 . S
C2824 C2823 1.287 . S
C2824 C2825 1.524 . S
C2824 H2843 0.913 . S
C2825 H2801 0.950 . S
C2825 C2824 1.524 . S
C2825 C2826 1.415 . S
C2826 H2802 0.950 . S
C2826 C2821 1.363 . S
C2826 C2825 1.415 . S
C2827 H2803 0.951 . S
C2827 C2828 1.366 . S
C2827 C2829 1.388 . S
C2828 C2827 1.366 . S
C2828 C2832 1.385 . S
C2829 H2804 0.951 . S
C2829 C2827 1.388 . S
C2829 C2830 1.366 . S
C2830 C2829 1.366 . S
C2830 C2831 1.414 . S
C2830 C2833 1.499 . S
C2831 H2805 0.950 . S
C2831 C2830 1.414 . S
C2831 C2832 1.374 . S
C2832 H2806 0.950 . S
C2832 C2828 1.385 . S
C2832 C2831 1.374 . S
C2833 C2830 1.499 . S
C2833 C2834 1.373 . S
C2833 C2835 1.389 . S
C2834 H2807 0.950 . S
C2834 C2820 1.377 . S
C2834 C2833 1.373 . S
C2835 C2819 1.377 . S
C2835 C2833 1.389 . S
C2835 C2836 1.524 . S
C2836 C2835 1.524 . S
C2836 C2837 1.397 . S
C2836 C2841 1.363 . S
C2837 H2808 0.950 . S
C2837 C2836 1.397 . S
C2837 C2838 1.334 . S
C2838 H2809 0.950 . S
C2838 C2837 1.334 . S
C2838 C2839 1.287 . S
C2839 C2838 1.287 . S
C2839 C2840 1.524 . S
C2839 H2842 0.999 . S
C2840 H2810 0.950 . S
C2840 C2839 1.524 . S
C2840 C2841 1.415 . S
C2841 H2811 0.950 . S
C2841 C2836 1.363 . S
C2841 C2840 1.415 . S
H2842 C2839 0.999 . S
H2843 C2824 0.913 . S
C613 C7 0.923 . S
C628 C252 0.945 . S
C663 C40 0.922 . S
C678 C285 0.945 . S
C713 C73 0.923 . S
C728 C219 0.945 . S
C763 C549 0.945 . S
C778 C106 0.922 . S
C813 C139 0.922 . S
C828 C582 0.945 . S
C863 C172 0.923 . S
C878 C516 0.945 . S
C913 C205 0.922 . S
C928 C450 0.945 . S
C963 C483 0.945 . S
C978 C238 0.924 . S
C1013 C417 0.945 . S
C1028 C271 0.922 . S
C1063 C304 0.922 . S
C1078 C153 0.945 . S
C1113 C337 0.922 . S
C1128 C186 0.945 . S
C1163 C370 0.923 . S
C1178 C120 0.945 . S
C1213 C403 0.922 . S
C1228 C54 0.945 . S
C1263 C436 0.922 . S
C1278 C87 0.945 . S
C1313 C21 0.945 . S
C1328 C469 0.922 . S
C1363 C351 0.945 . S
C1378 C502 0.923 . S
C1413 C535 0.924 . S
C1428 C384 0.945 . S
C1463 C568 0.922 . S
C1478 C318 0.945 . S
C1513 N508 1.644 . S
C1528 N13 1.644 . S
C1563 N541 1.644 . S
C1578 N46 1.644 . S
C1613 N79 1.643 . S
C1628 N574 1.643 . S
C1663 N112 1.643 . S
C1678 N211 1.643 . S
C1713 N145 1.643 . S
C1728 N244 1.643 . S
C1763 N277 1.644 . S
C1778 N178 1.644 . S
C1813 N310 1.643 . S
C1828 N409 1.643 . S
C1863 N442 1.644 . S
C1878 N343 1.644 . S
C1913 N475 1.644 . S
C1928 N376 1.644 . S
C1963 N2 1.470 . S
C1978 C150 1.469 . S
C2013 C183 1.469 . S
C2028 N35 1.469 1_545 S
C2063 N68 1.469 1_655 S
C2078 C117 1.469 . S
C2113 C51 1.469 . S
C2128 N101 1.469 . S
C2163 N134 1.469 1_565 S
C2178 C84 1.469 . S
C2213 C18 1.469 . S
C2228 N167 1.470 1_455 S
C2263 N200 1.469 . S
C2278 C348 1.469 . S
C2313 C381 1.468 . S
C2328 N233 1.469 . S
C2363 C315 1.469 . S
C2378 N266 1.469 . S
C2413 N299 1.470 . S
C2428 C249 1.469 . S
C2463 C282 1.469 . S
C2478 N332 1.469 . S
C2513 N365 1.469 . S
C2528 C216 1.469 . S
C2563 C546 1.469 . S
C2578 N398 1.469 . S
C2613 C579 1.469 . S
C2628 N431 1.470 . S
C2663 C513 1.469 . S
C2678 N464 1.470 . S
C2713 C447 1.469 . S
C2728 N497 1.469 . S
C2763 C480 1.468 . S
C2778 N530 1.469 . S
C2813 N563 1.469 . S
C2828 C414 1.469 . S
