# Generated by pormake.
# Topology pem, (4)-cn, num edge types: 1
# Building blocks:
#     Node 0, Type 0, BuildingBlock: KUFVIS_clean_sbu_0, # of connection points: 4
#     Node 1, Type 0, BuildingBlock: KUFVIS_clean_sbu_0, # of connection points: 4
#     Node 2, Type 0, BuildingBlock: KUFVIS_clean_sbu_0, # of connection points: 4
#     Node 3, Type 0, BuildingBlock: KUFVIS_clean_sbu_0, # of connection points: 4
#     Node 4, Type 0, BuildingBlock: KUFVIS_clean_sbu_0, # of connection points: 4
#     Node 5, Type 0, BuildingBlock: KUFVIS_clean_sbu_0, # of connection points: 4
#     Node 6, Type 0, BuildingBlock: KUFVIS_clean_sbu_0, # of connection points: 4
#     Node 7, Type 0, BuildingBlock: KUFVIS_clean_sbu_0, # of connection points: 4
#     Node 8, Type 0, BuildingBlock: KUFVIS_clean_sbu_0, # of connection points: 4
#     Node 9, Type 0, BuildingBlock: KUFVIS_clean_sbu_0, # of connection points: 4
#     Node 10, Type 0, BuildingBlock: KUFVIS_clean_sbu_0, # of connection points: 4
#     Node 11, Type 0, BuildingBlock: KUFVIS_clean_sbu_0, # of connection points: 4
#     Node 12, Type 0, BuildingBlock: KUFVIS_clean_sbu_0, # of connection points: 4
#     Node 13, Type 0, BuildingBlock: KUFVIS_clean_sbu_0, # of connection points: 4
#     Node 14, Type 0, BuildingBlock: KUFVIS_clean_sbu_0, # of connection points: 4
#     Node 15, Type 0, BuildingBlock: KUFVIS_clean_sbu_0, # of connection points: 4
#     Node 16, Type 0, BuildingBlock: KUFVIS_clean_sbu_0, # of connection points: 4
#     Node 17, Type 0, BuildingBlock: KUFVIS_clean_sbu_0, # of connection points: 4
#     Node 18, Type 0, BuildingBlock: KUFVIS_clean_sbu_0, # of connection points: 4
#     Node 19, Type 0, BuildingBlock: KUFVIS_clean_sbu_0, # of connection points: 4
#     Node 20, Type 0, BuildingBlock: KUFVIS_clean_sbu_0, # of connection points: 4
#     Node 21, Type 0, BuildingBlock: KUFVIS_clean_sbu_0, # of connection points: 4
#     Node 22, Type 0, BuildingBlock: KUFVIS_clean_sbu_0, # of connection points: 4
#     Node 23, Type 0, BuildingBlock: KUFVIS_clean_sbu_0, # of connection points: 4
#     Node 24, Type 0, BuildingBlock: KUFVIS_clean_sbu_0, # of connection points: 4
#     Node 25, Type 0, BuildingBlock: KUFVIS_clean_sbu_0, # of connection points: 4
#     Node 26, Type 0, BuildingBlock: KUFVIS_clean_sbu_0, # of connection points: 4
#     Node 27, Type 0, BuildingBlock: KUFVIS_clean_sbu_0, # of connection points: 4
#     Node 28, Type 0, BuildingBlock: KUFVIS_clean_sbu_0, # of connection points: 4
#     Node 29, Type 0, BuildingBlock: KUFVIS_clean_sbu_0, # of connection points: 4
#     Node 30, Type 0, BuildingBlock: KUFVIS_clean_sbu_0, # of connection points: 4
#     Node 31, Type 0, BuildingBlock: KUFVIS_clean_sbu_0, # of connection points: 4
#     Edge 32, Type (0, 0), BuildingBlock: XIVTED_clean_linker_0, # of connection points: 2
#     Edge 33, Type (0, 0), BuildingBlock: XIVTED_clean_linker_0, # of connection points: 2
#     Edge 34, Type (0, 0), BuildingBlock: XIVTED_clean_linker_0, # of connection points: 2
#     Edge 35, Type (0, 0), BuildingBlock: XIVTED_clean_linker_0, # of connection points: 2
#     Edge 36, Type (0, 0), BuildingBlock: XIVTED_clean_linker_0, # of connection points: 2
#     Edge 37, Type (0, 0), BuildingBlock: XIVTED_clean_linker_0, # of connection points: 2
#     Edge 38, Type (0, 0), BuildingBlock: XIVTED_clean_linker_0, # of connection points: 2
#     Edge 39, Type (0, 0), BuildingBlock: XIVTED_clean_linker_0, # of connection points: 2
#     Edge 40, Type (0, 0), BuildingBlock: XIVTED_clean_linker_0, # of connection points: 2
#     Edge 41, Type (0, 0), BuildingBlock: XIVTED_clean_linker_0, # of connection points: 2
#     Edge 42, Type (0, 0), BuildingBlock: XIVTED_clean_linker_0, # of connection points: 2
#     Edge 43, Type (0, 0), BuildingBlock: XIVTED_clean_linker_0, # of connection points: 2
#     Edge 44, Type (0, 0), BuildingBlock: XIVTED_clean_linker_0, # of connection points: 2
#     Edge 45, Type (0, 0), BuildingBlock: XIVTED_clean_linker_0, # of connection points: 2
#     Edge 46, Type (0, 0), BuildingBlock: XIVTED_clean_linker_0, # of connection points: 2
#     Edge 47, Type (0, 0), BuildingBlock: XIVTED_clean_linker_0, # of connection points: 2
#     Edge 48, Type (0, 0), BuildingBlock: XIVTED_clean_linker_0, # of connection points: 2
#     Edge 49, Type (0, 0), BuildingBlock: XIVTED_clean_linker_0, # of connection points: 2
#     Edge 50, Type (0, 0), BuildingBlock: XIVTED_clean_linker_0, # of connection points: 2
#     Edge 51, Type (0, 0), BuildingBlock: XIVTED_clean_linker_0, # of connection points: 2
#     Edge 52, Type (0, 0), BuildingBlock: XIVTED_clean_linker_0, # of connection points: 2
#     Edge 53, Type (0, 0), BuildingBlock: XIVTED_clean_linker_0, # of connection points: 2
#     Edge 54, Type (0, 0), BuildingBlock: XIVTED_clean_linker_0, # of connection points: 2
#     Edge 55, Type (0, 0), BuildingBlock: XIVTED_clean_linker_0, # of connection points: 2
#     Edge 56, Type (0, 0), BuildingBlock: XIVTED_clean_linker_0, # of connection points: 2
#     Edge 57, Type (0, 0), BuildingBlock: XIVTED_clean_linker_0, # of connection points: 2
#     Edge 58, Type (0, 0), BuildingBlock: XIVTED_clean_linker_0, # of connection points: 2
#     Edge 59, Type (0, 0), BuildingBlock: XIVTED_clean_linker_0, # of connection points: 2
#     Edge 60, Type (0, 0), BuildingBlock: XIVTED_clean_linker_0, # of connection points: 2
#     Edge 61, Type (0, 0), BuildingBlock: XIVTED_clean_linker_0, # of connection points: 2
#     Edge 62, Type (0, 0), BuildingBlock: XIVTED_clean_linker_0, # of connection points: 2
#     Edge 63, Type (0, 0), BuildingBlock: XIVTED_clean_linker_0, # of connection points: 2
#     Edge 64, Type (0, 0), BuildingBlock: XIVTED_clean_linker_0, # of connection points: 2
#     Edge 65, Type (0, 0), BuildingBlock: XIVTED_clean_linker_0, # of connection points: 2
#     Edge 66, Type (0, 0), BuildingBlock: XIVTED_clean_linker_0, # of connection points: 2
#     Edge 67, Type (0, 0), BuildingBlock: XIVTED_clean_linker_0, # of connection points: 2
#     Edge 68, Type (0, 0), BuildingBlock: XIVTED_clean_linker_0, # of connection points: 2
#     Edge 69, Type (0, 0), BuildingBlock: XIVTED_clean_linker_0, # of connection points: 2
#     Edge 70, Type (0, 0), BuildingBlock: XIVTED_clean_linker_0, # of connection points: 2
#     Edge 71, Type (0, 0), BuildingBlock: XIVTED_clean_linker_0, # of connection points: 2
#     Edge 72, Type (0, 0), BuildingBlock: XIVTED_clean_linker_0, # of connection points: 2
#     Edge 73, Type (0, 0), BuildingBlock: XIVTED_clean_linker_0, # of connection points: 2
#     Edge 74, Type (0, 0), BuildingBlock: XIVTED_clean_linker_0, # of connection points: 2
#     Edge 75, Type (0, 0), BuildingBlock: XIVTED_clean_linker_0, # of connection points: 2
#     Edge 76, Type (0, 0), BuildingBlock: XIVTED_clean_linker_0, # of connection points: 2
#     Edge 77, Type (0, 0), BuildingBlock: XIVTED_clean_linker_0, # of connection points: 2
#     Edge 78, Type (0, 0), BuildingBlock: XIVTED_clean_linker_0, # of connection points: 2
#     Edge 79, Type (0, 0), BuildingBlock: XIVTED_clean_linker_0, # of connection points: 2
#     Edge 80, Type (0, 0), BuildingBlock: XIVTED_clean_linker_0, # of connection points: 2
#     Edge 81, Type (0, 0), BuildingBlock: XIVTED_clean_linker_0, # of connection points: 2
#     Edge 82, Type (0, 0), BuildingBlock: XIVTED_clean_linker_0, # of connection points: 2
#     Edge 83, Type (0, 0), BuildingBlock: XIVTED_clean_linker_0, # of connection points: 2
#     Edge 84, Type (0, 0), BuildingBlock: XIVTED_clean_linker_0, # of connection points: 2
#     Edge 85, Type (0, 0), BuildingBlock: XIVTED_clean_linker_0, # of connection points: 2
#     Edge 86, Type (0, 0), BuildingBlock: XIVTED_clean_linker_0, # of connection points: 2
#     Edge 87, Type (0, 0), BuildingBlock: XIVTED_clean_linker_0, # of connection points: 2
#     Edge 88, Type (0, 0), BuildingBlock: XIVTED_clean_linker_0, # of connection points: 2
#     Edge 89, Type (0, 0), BuildingBlock: XIVTED_clean_linker_0, # of connection points: 2
#     Edge 90, Type (0, 0), BuildingBlock: XIVTED_clean_linker_0, # of connection points: 2
#     Edge 91, Type (0, 0), BuildingBlock: XIVTED_clean_linker_0, # of connection points: 2
#     Edge 92, Type (0, 0), BuildingBlock: XIVTED_clean_linker_0, # of connection points: 2
#     Edge 93, Type (0, 0), BuildingBlock: XIVTED_clean_linker_0, # of connection points: 2
#     Edge 94, Type (0, 0), BuildingBlock: XIVTED_clean_linker_0, # of connection points: 2
#     Edge 95, Type (0, 0), BuildingBlock: XIVTED_clean_linker_0, # of connection points: 2
# Relax obj value: 0.171
# Max RMSD: 0.152
# Mean RMSD: 0.131
data_MOF--net-pem--node1-KUFVIS_clean_sbu_0--edge1-XIVTED_clean_linker_0
_symmetry_space_group_name_H-M    P1
_symmetry_Int_Tables_number       1
_symmetry_cell_setting            triclinic
loop_
_symmetry_equiv_pos_as_xyz
'x, y, z'
_cell_length_a     44.880748
_cell_length_b     41.659676
_cell_length_c     40.983142
_cell_angle_alpha  91.246352
_cell_angle_beta   91.393461
_cell_angle_gamma 92.453624
loop_
_atom_site_label
_atom_site_type_symbol
_atom_site_fract_x
_atom_site_fract_y
_atom_site_fract_z
_atom_type_partial_charge
Mn0 Mn 0.07163 0.10064 0.10902 0.0
Mn1 Mn 0.08123 0.03023 0.06898 0.0
C2 C 0.05533 0.09385 0.05553 0.0
C3 C 0.03985 0.13327 0.13966 0.0
C4 C 0.12844 0.08415 0.0722 0.0
O5 O 0.08197 0.07061 0.14674 0.0
O6 O 0.09043 0.02681 0.11605 0.0
C7 C 0.03146 0.99416 0.09977 0.0
N8 N 0.0455 0.00407 0.07242 0.0
C9 C 0.01412 0.96847 0.03831 0.0
C10 C 0.9993 0.95784 0.06606 0.0
C11 C 0.00773 0.9711 0.09689 0.0
C12 C 0.03648 0.99279 0.0425 0.0
H13 H 0.03853 0.00349 0.12361 0.0
C14 C 0.08959 0.04149 0.14355 0.0
O15 O 0.06845 0.13945 0.13918 0.0
O16 O 0.03058 0.10659 0.12559 0.0
N17 N 0.07368 0.0274 0.02282 0.0
C18 C 0.09201 0.03776 0.99878 0.0
C19 C 0.08632 0.02712 0.9664 0.0
C20 C 0.06294 0.00444 0.95924 0.0
C21 C 0.04557 0.99249 0.98459 0.0
C22 C 0.05152 0.00496 0.01624 0.0
H23 H 0.11075 0.05424 0.00418 0.0
O24 O 0.05966 0.12226 0.0685 0.0
O25 O 0.05935 0.06976 0.07476 0.0
O26 O 0.11544 0.10299 0.09223 0.0
O27 O 0.11777 0.0563 0.06352 0.0
C28 C 0.02369 0.96745 0.9799 0.0
C29 C 0.00813 0.95529 0.00679 0.0
H30 H 0.98157 0.93938 0.06401 0.0
H31 H 0.99645 0.96301 0.11845 0.0
H32 H 0.10035 0.03586 0.94711 0.0
H33 H 0.05907 0.99568 0.93435 0.0
H34 H 0.01882 0.95714 0.95577 0.0
H35 H 0.99146 0.93592 0.0029 0.0
Mn36 Mn 0.16142 0.84493 0.34724 0.0
Mn37 Mn 0.18277 0.77086 0.36794 0.0
C38 C 0.19837 0.82114 0.32077 0.0
C39 C 0.13495 0.87988 0.31422 0.0
C40 C 0.20527 0.83171 0.40416 0.0
O41 O 0.12502 0.82662 0.37089 0.0
O42 O 0.14375 0.77986 0.38719 0.0
C43 C 0.13491 0.73177 0.33235 0.0
N44 N 0.1644 0.73937 0.33811 0.0
C45 C 0.17826 0.69756 0.30063 0.0
C46 C 0.14802 0.68954 0.29424 0.0
C47 C 0.12624 0.70676 0.31017 0.0
C48 C 0.18553 0.72284 0.32295 0.0
H49 H 0.11811 0.74445 0.34468 0.0
C50 C 0.12274 0.79963 0.38524 0.0
O51 O 0.14662 0.8891 0.34236 0.0
O52 O 0.13654 0.84976 0.30638 0.0
N53 N 0.21972 0.75805 0.35038 0.0
C54 C 0.24801 0.76909 0.35855 0.0
C55 C 0.27234 0.754 0.345 0.0
C56 C 0.26734 0.72761 0.32337 0.0
C57 C 0.23817 0.71677 0.31518 0.0
C58 C 0.21479 0.73245 0.32977 0.0
H59 H 0.25203 0.78925 0.37527 0.0
O60 O 0.19735 0.85219 0.32151 0.0
O61 O 0.17799 0.8046 0.33581 0.0
O62 O 0.18821 0.85089 0.38934 0.0
O63 O 0.20395 0.8014 0.39867 0.0
C64 C 0.23143 0.69104 0.29299 0.0
C65 C 0.20147 0.68154 0.28559 0.0
H66 H 0.14128 0.67022 0.27717 0.0
H67 H 0.10281 0.70068 0.30551 0.0
H68 H 0.29485 0.76257 0.35145 0.0
H69 H 0.28591 0.7155 0.31327 0.0
H70 H 0.24912 0.67858 0.28126 0.0
H71 H 0.19653 0.6619 0.26828 0.0
Mn72 Mn 0.41958 0.8923 0.60983 0.0
Mn73 Mn 0.4034 0.96812 0.58996 0.0
C74 C 0.44047 0.91633 0.56507 0.0
C75 C 0.4501 0.85573 0.63585 0.0
C76 C 0.36278 0.91025 0.57137 0.0
O77 O 0.40271 0.91017 0.65284 0.0
O78 O 0.39303 0.95942 0.63564 0.0
C79 C 0.4481 1.00181 0.6345 0.0
N80 N 0.436 0.99663 0.60394 0.0
C81 C 0.4693 0.03695 0.58183 0.0
C82 C 0.48193 0.0429 0.61311 0.0
C83 C 0.4714 0.02512 0.63952 0.0
C84 C 0.44636 0.01318 0.57826 0.0
H85 H 0.4401 0.98828 0.65491 0.0
C86 C 0.39385 0.93867 0.65813 0.0
O87 O 0.42275 0.84771 0.62702 0.0
O88 O 0.4589 0.88532 0.63174 0.0
N89 N 0.41293 0.98068 0.54662 0.0
C90 C 0.39914 0.97125 0.51776 0.0
C91 C 0.40748 0.98635 0.48886 0.0
C92 C 0.42948 0.01137 0.48997 0.0
C93 C 0.44299 0.02105 0.51999 0.0
C94 C 0.43388 0.00501 0.54797 0.0
H95 H 0.38191 0.95235 0.51673 0.0
O96 O 0.43888 0.88528 0.56675 0.0
O97 O 0.43 0.93221 0.58943 0.0
O98 O 0.37827 0.88936 0.58581 0.0
O99 O 0.36929 0.94041 0.57316 0.0
C100 C 0.46535 0.04577 0.52318 0.0
C101 C 0.47872 0.0535 0.55402 0.0
H102 H 0.49984 0.06094 0.6171 0.0
H103 H 0.48114 0.02945 0.66371 0.0
H104 H 0.39687 0.97881 0.4658 0.0
H105 H 0.43591 0.02291 0.46762 0.0
H106 H 0.47284 0.05859 0.50196 0.0
H107 H 0.49633 0.07209 0.55604 0.0
Mn108 Mn 0.31936 0.16629 0.87464 0.0
Mn109 Mn 0.3411 0.18172 0.79797 0.0
C110 C 0.30754 0.21397 0.84914 0.0
C111 C 0.28485 0.14639 0.91179 0.0
C112 C 0.38266 0.19001 0.85742 0.0
O113 O 0.32815 0.12046 0.85643 0.0
O114 O 0.33824 0.13496 0.80514 0.0
C115 C 0.28673 0.15445 0.76286 0.0
N116 N 0.30806 0.1784 0.76761 0.0
C117 C 0.28973 0.20686 0.72138 0.0
C118 C 0.26857 0.18164 0.71485 0.0
C119 C 0.26659 0.15568 0.73617 0.0
C120 C 0.30854 0.20466 0.74886 0.0
H121 H 0.28493 0.13486 0.77959 0.0
C122 C 0.33272 0.11346 0.82629 0.0
O123 O 0.31279 0.15132 0.91989 0.0
O124 O 0.27707 0.15149 0.88171 0.0
N125 N 0.34377 0.22612 0.78667 0.0
C126 C 0.36185 0.25052 0.79956 0.0
C127 C 0.36368 0.2801 0.78377 0.0
C128 C 0.34734 0.2841 0.75457 0.0
C129 C 0.32883 0.25868 0.74181 0.0
C130 C 0.32745 0.23001 0.759 0.0
H131 H 0.37452 0.24757 0.82185 0.0
O132 O 0.30749 0.21246 0.8807 0.0
O133 O 0.31424 0.18797 0.83389 0.0
O134 O 0.36364 0.18153 0.8786 0.0
O135 O 0.37707 0.18775 0.82674 0.0
C136 C 0.31162 0.26064 0.71276 0.0
C137 C 0.29235 0.23455 0.70232 0.0
H138 H 0.25312 0.18246 0.69419 0.0
H139 H 0.24967 0.13665 0.73197 0.0
H140 H 0.37785 0.29968 0.79393 0.0
H141 H 0.349 0.30686 0.74231 0.0
H142 H 0.31251 0.28233 0.69865 0.0
H143 H 0.27855 0.23669 0.68048 0.0
Mn144 Mn 0.0785 0.89327 0.40816 0.0
Mn145 Mn 0.062 0.86282 0.48213 0.0
C146 C 0.0425 0.91411 0.43928 0.0
C147 C 0.10151 0.93039 0.37307 0.0
C148 C 0.03813 0.83259 0.41825 0.0
O149 O 0.11684 0.87082 0.42126 0.0
O150 O 0.10176 0.849 0.4686 0.0
C151 C 0.10899 0.89762 0.52317 0.0
N152 N 0.07966 0.88997 0.51641 0.0
C153 C 0.06499 0.92029 0.56366 0.0
C154 C 0.09505 0.92858 0.57089 0.0
C155 C 0.11714 0.9172 0.55052 0.0
C156 C 0.05822 0.90072 0.53598 0.0
H157 H 0.12605 0.88875 0.50801 0.0
C158 C 0.12152 0.8548 0.44721 0.0
O159 O 0.0901 0.90285 0.36261 0.0
O160 O 0.10167 0.93562 0.40439 0.0
N161 N 0.02454 0.87511 0.49885 0.0
C162 C 0.9964 0.86635 0.48778 0.0
C163 C 0.97181 0.87552 0.50573 0.0
C164 C 0.9764 0.89354 0.53487 0.0
C165 C 0.00541 0.90286 0.54546 0.0
C166 C 0.02909 0.89256 0.52688 0.0
H167 H 0.99267 0.85246 0.46544 0.0
O168 O 0.04128 0.91704 0.40782 0.0
O169 O 0.06419 0.89852 0.4517 0.0
O170 O 0.05298 0.85109 0.39951 0.0
O171 O 0.04133 0.83406 0.44925 0.0
C172 C 0.01169 0.92209 0.57368 0.0
C173 C 0.04147 0.93095 0.58268 0.0
H174 H 0.10141 0.94369 0.59197 0.0
H175 H 0.14043 0.92338 0.55595 0.0
H176 H 0.94939 0.86851 0.49727 0.0
H177 H 0.9576 0.89986 0.54919 0.0
H178 H 0.99376 0.93052 0.58842 0.0
H179 H 0.04603 0.94608 0.60421 0.0
Mn180 Mn 0.32877 0.81531 0.6358 0.0
Mn181 Mn 0.33952 0.79791 0.7147 0.0
C182 C 0.30118 0.77399 0.65937 0.0
C183 C 0.29934 0.8388 0.59534 0.0
C184 C 0.38413 0.78165 0.66258 0.0
O185 O 0.34716 0.85809 0.65539 0.0
O186 O 0.35088 0.84389 0.70842 0.0
C187 C 0.29189 0.83763 0.74022 0.0
N188 N 0.30463 0.80861 0.73761 0.0
C189 C 0.26388 0.78242 0.76501 0.0
C190 C 0.25007 0.81186 0.76729 0.0
C191 C 0.26422 0.83964 0.75516 0.0
C192 C 0.29108 0.78171 0.74919 0.0
H193 H 0.30235 0.85892 0.7302 0.0
C194 C 0.3524 0.86469 0.68587 0.0
O195 O 0.32599 0.82952 0.58932 0.0
O196 O 0.29115 0.83722 0.62519 0.0
N197 N 0.32818 0.75412 0.72345 0.0
C198 C 0.34155 0.72675 0.7141 0.0
C199 C 0.32996 0.69686 0.72419 0.0
C200 C 0.30463 0.69534 0.74361 0.0
C201 C 0.29105 0.72377 0.75262 0.0
C202 C 0.3039 0.75295 0.74229 0.0
H203 H 0.36084 0.72762 0.69894 0.0
O204 O 0.30574 0.77301 0.6283 0.0
O205 O 0.3155 0.79716 0.67507 0.0
O206 O 0.36916 0.79219 0.63823 0.0
O207 O 0.3757 0.78466 0.69206 0.0
C208 C 0.26471 0.7242 0.77053 0.0
C209 C 0.25104 0.75349 0.77647 0.0
H210 H 0.22833 0.8133 0.77789 0.0
H211 H 0.25362 0.86244 0.75688 0.0
H212 H 0.34043 0.67501 0.71686 0.0
H213 H 0.29551 0.67221 0.75101 0.0
H214 H 0.25427 0.70208 0.77897 0.0
H215 H 0.23033 0.75337 0.78939 0.0
Mn216 Mn 0.41519 0.09346 0.91412 0.0
Mn217 Mn 0.39606 0.01871 0.93734 0.0
C218 C 0.4319 0.0761 0.9652 0.0
C219 C 0.44937 0.13109 0.89216 0.0
C220 C 0.35403 0.07385 0.94171 0.0
O221 O 0.40508 0.07068 0.86935 0.0
O222 O 0.3945 0.02193 0.8892 0.0
C223 C 0.44454 0.98215 0.90832 0.0
N224 N 0.42791 0.98996 0.93444 0.0
C225 C 0.44352 0.94388 0.96356 0.0
C226 C 0.46055 0.93502 0.93683 0.0
C227 C 0.46154 0.95463 0.90935 0.0
C228 C 0.42833 0.97243 0.96175 0.0
H229 H 0.44448 0.99654 0.88674 0.0
C230 C 0.39931 0.04046 0.86523 0.0
O231 O 0.42135 0.13703 0.89447 0.0
O232 O 0.45693 0.10266 0.90006 0.0
N233 N 0.39734 0.01059 0.98303 0.0
C234 C 0.38102 0.02347 0.00727 0.0
C235 C 0.38007 0.00858 0.03768 0.0
C236 C 0.39485 0.9799 0.04237 0.0
C237 C 0.41101 0.96678 0.01683 0.0
C238 C 0.41234 0.98354 0.98764 0.0
H239 H 0.3686 0.04472 0.00336 0.0
O240 O 0.42778 0.10607 0.95953 0.0
O241 O 0.42424 0.05639 0.941 0.0
O242 O 0.37133 0.09526 0.92931 0.0
O243 O 0.36066 0.04453 0.94293 0.0
C244 C 0.4252 0.9373 0.01883 0.0
C245 C 0.44116 0.92566 0.99206 0.0
H246 H 0.47316 0.91344 0.93727 0.0
H247 H 0.47481 0.94812 0.88872 0.0
H248 H 0.36731 0.01869 0.05715 0.0
H249 H 0.39336 0.96799 0.06554 0.0
H250 H 0.42415 0.9235 0.04089 0.0
H251 H 0.45233 0.90323 0.99406 0.0
Mn252 Mn 0.17969 0.14135 0.16049 0.0
Mn253 Mn 0.16217 0.16991 0.23496 0.0
C254 C 0.20273 0.18852 0.18151 0.0
C255 C 0.21065 0.11435 0.12333 0.0
C256 C 0.12469 0.18097 0.17443 0.0
O257 O 0.16218 0.10039 0.18212 0.0
O258 O 0.1482 0.12471 0.22855 0.0
C259 C 0.2 0.12898 0.27566 0.0
N260 N 0.1901 0.15836 0.26799 0.0
C261 C 0.20875 0.18152 0.31909 0.0
C262 C 0.21932 0.15154 0.32762 0.0
C263 C 0.21535 0.12527 0.30555 0.0
C264 C 0.19513 0.18407 0.28826 0.0
H265 H 0.19582 0.10853 0.25934 0.0
C266 C 0.15002 0.09986 0.21015 0.0
O267 O 0.18316 0.12012 0.11625 0.0
O268 O 0.2194 0.12144 0.15304 0.0
N269 N 0.17372 0.21326 0.24678 0.0
C270 C 0.16449 0.24092 0.23347 0.0
C271 C 0.1678 0.26984 0.25172 0.0
C272 C 0.17938 0.26973 0.28391 0.0
C273 C 0.18852 0.24086 0.29714 0.0
C274 C 0.18594 0.21314 0.27723 0.0
H275 H 0.15407 0.24073 0.20942 0.0
O276 O 0.19896 0.18344 0.15034 0.0
O277 O 0.19154 0.16638 0.20013 0.0
O278 O 0.13828 0.16239 0.155 0.0
O279 O 0.13215 0.18442 0.20437 0.0
C280 C 0.20041 0.23849 0.32916 0.0
C281 C 0.21102 0.20896 0.33992 0.0
H282 H 0.23047 0.14842 0.35099 0.0
H283 H 0.22338 0.10205 0.31196 0.0
H284 H 0.16061 0.29199 0.24138 0.0
H285 H 0.1813 0.29194 0.29818 0.0
H286 H 0.20256 0.25948 0.34524 0.0
H287 H 0.22108 0.20769 0.36412 0.0
Mn288 Mn 0.59274 0.40389 0.91104 0.0
Mn289 Mn 0.58203 0.37649 0.98747 0.0
C290 C 0.55916 0.42626 0.94438 0.0
C291 C 0.61187 0.43978 0.87237 0.0
C292 C 0.55418 0.34326 0.92725 0.0
O293 O 0.63219 0.38219 0.92116 0.0
O294 O 0.6198 0.36172 0.96999 0.0
C295 C 0.6327 0.41219 0.02192 0.0
N296 N 0.60304 0.40398 0.01918 0.0
C297 C 0.5938 0.43129 0.07008 0.0
C298 C 0.62428 0.43979 0.07347 0.0
C299 C 0.64379 0.43038 0.04913 0.0
C300 C 0.58401 0.41342 0.0422 0.0
H301 H 0.6478 0.40487 0.00361 0.0
C302 C 0.63825 0.36677 0.94714 0.0
O303 O 0.60009 0.41177 0.86407 0.0
O304 O 0.6149 0.44611 0.90343 0.0
N305 N 0.54665 0.38948 0.00831 0.0
C306 C 0.51762 0.38123 1.0004 0.0
C307 C 0.49516 0.38993 0.02172 0.0
C308 C 0.50284 0.40646 0.05119 0.0
C309 C 0.53281 0.41451 0.05887 0.0
C310 C 0.55419 0.40552 0.03656 0.0
H311 H 0.51165 0.36797 0.97809 0.0
O312 O 0.55547 0.42724 0.91295 0.0
O313 O 0.58175 0.41129 0.95579 0.0
O314 O 0.56754 0.36097 0.90658 0.0
O315 O 0.55854 0.34687 0.95792 0.0
C316 C 0.54229 0.43116 0.08782 0.0
C317 C 0.57272 0.43991 0.09324 0.0
H318 H 0.63293 0.45366 0.09455 0.0
H319 H 0.66736 0.4369 0.05146 0.0
H320 H 0.47207 0.38345 0.01566 0.0
H321 H 0.48568 0.41286 0.06789 0.0
H322 H 0.52625 0.43799 0.10577 0.0
H323 H 0.57965 0.45339 0.11523 0.0
Mn324 Mn 0.83307 0.33672 0.14743 0.0
Mn325 Mn 0.83819 0.31074 0.22399 0.0
C326 C 0.80599 0.291 0.16259 0.0
C327 C 0.80639 0.36382 0.10715 0.0
C328 C 0.88698 0.30125 0.17524 0.0
O329 O 0.8488 0.37757 0.17324 0.0
O330 O 0.84916 0.35742 0.22361 0.0
C331 C 0.78583 0.3459 0.24386 0.0
N332 N 0.80074 0.31811 0.24317 0.0
C333 C 0.75785 0.28791 0.26182 0.0
C334 C 0.74183 0.31598 0.26168 0.0
C335 C 0.75591 0.34518 0.25299 0.0
C336 C 0.7871 0.2898 0.25091 0.0
H337 H 0.79624 0.36815 0.23598 0.0
C338 C 0.85289 0.38103 0.20436 0.0
O339 O 0.83403 0.35682 0.10341 0.0
O340 O 0.79551 0.35808 0.13538 0.0
N341 N 0.82767 0.26596 0.22782 0.0
C342 C 0.84333 0.24005 0.21873 0.0
C343 C 0.83216 0.20898 0.22552 0.0
C344 C 0.80501 0.20483 0.24154 0.0
C345 C 0.78927 0.23183 0.25057 0.0
C346 C 0.80182 0.26226 0.24377 0.0
H347 H 0.86425 0.24299 0.20649 0.0
O348 O 0.81272 0.29473 0.13235 0.0
O349 O 0.81742 0.31297 0.18236 0.0
O350 O 0.87357 0.31439 0.15125 0.0
O351 O 0.87675 0.30083 0.20413 0.0
C352 C 0.76113 0.22972 0.265 0.0
C353 C 0.74528 0.25776 0.27025 0.0
H354 H 0.71849 0.31525 0.26764 0.0
H355 H 0.74356 0.36693 0.25276 0.0
H356 H 0.8444 0.18826 0.21832 0.0
H357 H 0.79623 0.18081 0.2463 0.0
H358 H 0.75088 0.20659 0.27075 0.0
H359 H 0.72305 0.25575 0.27982 0.0
Mn360 Mn 0.92014 0.61042 0.44008 0.0
Mn361 Mn 0.91264 0.53758 0.47205 0.0
C362 C 0.94634 0.59867 0.48839 0.0
C363 C 0.94894 0.64657 0.40975 0.0
C364 C 0.86433 0.58655 0.47639 0.0
O365 O 0.90522 0.58253 0.3998 0.0
O366 O 0.90522 0.53469 0.42425 0.0
C367 C 0.96692 0.51614 0.44097 0.0
N368 N 0.94979 0.51775 0.46788 0.0
C369 C 0.9886 0.49726 0.50177 0.0
C370 C 0.00663 0.49543 0.47446 0.0
C371 C 0.99593 0.50531 0.444 0.0
C372 C 0.9606 0.5101 0.49761 0.0
H373 H 0.95893 0.5243 0.41765 0.0
C374 C 0.9032 0.55166 0.39866 0.0
O375 O 0.92153 0.65213 0.41668 0.0
O376 O 0.95834 0.61901 0.41771 0.0
N377 N 0.92027 0.53641 0.51818 0.0
C378 C 0.90373 0.54768 0.54307 0.0
C379 C 0.91204 0.54132 0.57547 0.0
C380 C 0.93727 0.52348 0.58199 0.0
C381 C 0.95411 0.5124 0.55602 0.0
C382 C 0.94441 0.51897 0.5242 0.0
H383 H 0.88431 0.56136 0.53832 0.0
O384 O 0.94024 0.62796 0.48197 0.0
O385 O 0.93459 0.57791 0.46756 0.0
O386 O 0.87873 0.60928 0.46206 0.0
O387 O 0.87415 0.55824 0.47872 0.0
C388 C 0.98067 0.49602 0.56044 0.0
C389 C 0.99799 0.48864 0.53327 0.0
H390 H 0.02894 0.48698 0.47669 0.0
H391 H 0.01003 0.50456 0.42297 0.0
H392 H 0.89905 0.5502 0.59538 0.0
H393 H 0.94383 0.51896 0.60702 0.0
H394 H 0.98858 0.49014 0.58467 0.0
H395 H 0.01881 0.47698 0.5369 0.0
Mn396 Mn 0.82136 0.6328 0.35449 0.0
Mn397 Mn 0.83826 0.65612 0.27816 0.0
C398 C 0.80495 0.68056 0.33432 0.0
C399 C 0.78944 0.60834 0.39213 0.0
C400 C 0.88058 0.66754 0.33624 0.0
O401 O 0.83289 0.58981 0.33247 0.0
O402 O 0.84394 0.60963 0.28341 0.0
C403 C 0.78934 0.61862 0.24283 0.0
N404 N 0.80432 0.6472 0.2497 0.0
C405 C 0.77311 0.67457 0.21169 0.0
C406 C 0.75751 0.64539 0.20409 0.0
C407 C 0.76557 0.61734 0.21986 0.0
C408 C 0.79643 0.67444 0.23503 0.0
H409 H 0.79541 0.59693 0.25476 0.0
C410 C 0.84036 0.58602 0.30264 0.0
O411 O 0.8177 0.61347 0.39879 0.0
O412 O 0.78036 0.61486 0.36286 0.0
N413 N 0.83294 0.70038 0.2686 0.0
C414 C 0.84953 0.72688 0.27938 0.0
C415 C 0.84399 0.75696 0.26626 0.0
C416 C 0.82184 0.75948 0.24178 0.0
C417 C 0.8054 0.73186 0.23066 0.0
C418 C 0.81185 0.70251 0.24471 0.0
H419 H 0.86685 0.72518 0.2979 0.0
O420 O 0.80702 0.6766 0.36556 0.0
O421 O 0.81228 0.65666 0.31588 0.0
O422 O 0.8646 0.65238 0.35688 0.0
O423 O 0.87389 0.66803 0.30581 0.0
C424 C 0.78263 0.73237 0.20643 0.0
C425 C 0.7663 0.70381 0.19718 0.0
H426 H 0.73922 0.64428 0.1863 0.0
H427 H 0.75355 0.59475 0.21423 0.0
H428 H 0.85684 0.77816 0.27492 0.0
H429 H 0.81755 0.78275 0.2318 0.0
H430 H 0.77715 0.75472 0.19515 0.0
H431 H 0.74846 0.70463 0.17898 0.0
Mn432 Mn 0.65947 0.33691 0.84276 0.0
Mn433 Mn 0.67692 0.26024 0.8582 0.0
C434 C 0.69442 0.3125 0.81319 0.0
C435 C 0.63548 0.3764 0.81357 0.0
C436 C 0.70266 0.31718 0.89789 0.0
O437 O 0.62253 0.31977 0.86681 0.0
O438 O 0.6385 0.27032 0.87769 0.0
C439 C 0.6277 0.22643 0.81971 0.0
N440 N 0.65733 0.23114 0.82702 0.0
C441 C 0.66921 0.18581 0.79311 0.0
C442 C 0.63878 0.18035 0.78541 0.0
C443 C 0.61796 0.20096 0.79853 0.0
C444 C 0.6776 0.21199 0.81379 0.0
H445 H 0.61162 0.24183 0.83006 0.0
C446 C 0.61886 0.29161 0.87856 0.0
O447 O 0.64794 0.38242 0.84207 0.0
O448 O 0.63424 0.34668 0.80341 0.0
N449 N 0.71317 0.24603 0.84045 0.0
C450 C 0.74177 0.25587 0.84857 0.0
C451 C 0.76538 0.23869 0.83626 0.0
C452 C 0.75942 0.21095 0.81669 0.0
C453 C 0.72979 0.20105 0.80903 0.0
C454 C 0.70718 0.21966 0.82123 0.0
H455 H 0.74655 0.27668 0.86429 0.0
O456 O 0.69501 0.34352 0.81621 0.0
O457 O 0.67364 0.29609 0.82787 0.0
O458 O 0.68731 0.33837 0.88392 0.0
O459 O 0.69937 0.2873 0.89098 0.0
C460 C 0.72178 0.17352 0.78966 0.0
C461 C 0.69154 0.16619 0.78126 0.0
H462 H 0.63117 0.16048 0.7694 0.0
H463 H 0.59443 0.197 0.79265 0.0
H464 H 0.78803 0.24668 0.8423 0.0
H465 H 0.77771 0.19756 0.80748 0.0
H466 H 0.73876 0.1583 0.78035 0.0
H467 H 0.68573 0.14547 0.76561 0.0
Mn468 Mn 0.90465 0.90419 0.92351 0.0
Mn469 Mn 0.86992 0.96942 0.95351 0.0
C470 C 0.93 0.95307 0.93265 0.0
C471 C 0.93555 0.85952 0.92707 0.0
C472 C 0.86834 0.9507 0.88211 0.0
O473 O 0.86609 0.88271 0.94346 0.0
O474 O 0.84705 0.92923 0.95959 0.0
C475 C 0.87394 0.95229 0.02332 0.0
N476 N 0.87832 0.97405 0.99938 0.0
C477 C 0.89575 0.01485 0.03862 0.0
C478 C 0.89122 0.99294 0.06369 0.0
C479 C 0.88041 0.96148 0.05598 0.0
C480 C 0.88906 0.00427 0.00651 0.0
H481 H 0.86559 0.9281 0.01757 0.0
C482 C 0.84577 0.89863 0.95749 0.0
O483 O 0.9183 0.86405 0.90191 0.0
O484 O 0.93221 0.87866 0.95201 0.0
N485 N 0.88964 0.01089 0.95025 0.0
C486 C 0.89446 0.02859 0.92313 0.0
C487 C 0.90586 0.06043 0.92661 0.0
C488 C 0.91164 0.07399 0.95791 0.0
C489 C 0.906 0.05556 0.98547 0.0
C490 C 0.89455 0.02397 0.98051 0.0
H491 H 0.88971 0.01854 0.89899 0.0
O492 O 0.94009 0.93225 0.91229 0.0
O493 O 0.90593 0.94485 0.94772 0.0
O494 O 0.88202 0.92448 0.88489 0.0
O495 O 0.86092 0.96789 0.90639 0.0
C496 C 0.91194 0.06704 0.01766 0.0
C497 C 0.90706 0.04663 0.0442 0.0
H498 H 0.89619 0.99993 0.08892 0.0
H499 H 0.87701 0.94437 0.07518 0.0
H500 H 0.91009 0.07452 0.9052 0.0
H501 H 0.92064 0.09848 0.96048 0.0
H502 H 0.92086 0.09134 0.02225 0.0
H503 H 0.91233 0.05552 0.06879 0.0
Mn504 Mn 0.86356 0.16324 0.66713 0.0
Mn505 Mn 0.8972 0.1951 0.73568 0.0
C506 C 0.83625 0.179 0.71002 0.0
C507 C 0.83414 0.16386 0.6184 0.0
C508 C 0.89343 0.12397 0.7206 0.0
O509 O 0.90365 0.18157 0.65023 0.0
O510 O 0.92532 0.19679 0.69905 0.0
C511 C 0.90627 0.26284 0.71549 0.0
N512 N 0.89461 0.24091 0.7364 0.0
C513 C 0.87543 0.28288 0.77024 0.0
C514 C 0.88724 0.30582 0.74903 0.0
C515 C 0.90265 0.29573 0.7215 0.0
C516 C 0.87962 0.2504 0.76294 0.0
H517 H 0.91825 0.25544 0.69437 0.0
C518 C 0.92546 0.19435 0.6678 0.0
O519 O 0.8497 0.13974 0.6265 0.0
O520 O 0.83888 0.18976 0.63626 0.0
N521 N 0.87175 0.19586 0.77248 0.0
C522 C 0.86045 0.1707 0.78971 0.0
C523 C 0.84453 0.17675 0.81807 0.0
C524 C 0.84045 0.20854 0.82848 0.0
C525 C 0.8517 0.23405 0.81 0.0
C526 C 0.8676 0.22656 0.78206 0.0
H527 H 0.8638 0.14618 0.78211 0.0
O528 O 0.8268 0.15491 0.69141 0.0
O529 O 0.86294 0.19075 0.70509 0.0
O530 O 0.88233 0.12607 0.6918 0.0
O531 O 0.90036 0.14834 0.73883 0.0
C532 C 0.84793 0.26661 0.81827 0.0
C533 C 0.85952 0.29099 0.79823 0.0
H534 H 0.88452 0.33122 0.75359 0.0
H535 H 0.91181 0.31328 0.70498 0.0
H536 H 0.83567 0.15694 0.83207 0.0
H537 H 0.82858 0.213 0.85069 0.0
H538 H 0.83607 0.27324 0.83992 0.0
H539 H 0.85611 0.31591 0.80461 0.0
Mn540 Mn 0.59851 0.10793 0.42904 0.0
Mn541 Mn 0.62792 0.04086 0.45981 0.0
C542 C 0.56908 0.06213 0.43817 0.0
C543 C 0.57148 0.15531 0.43212 0.0
C544 C 0.63187 0.05793 0.38866 0.0
O545 O 0.63861 0.12617 0.45094 0.0
O546 O 0.6549 0.07875 0.46813 0.0
C547 C 0.62651 0.05949 0.53 0.0
N548 N 0.61901 0.03824 0.50511 0.0
C549 C 0.59605 1.00115 0.54213 0.0
C550 C 0.60365 0.02257 0.56816 0.0
C551 C 0.61881 0.05194 0.56203 0.0
C552 C 0.60404 0.01012 0.51069 0.0
H553 H 0.63831 0.08201 0.52552 0.0
C554 C 0.65789 0.10927 0.46591 0.0
O555 O 0.58797 0.14874 0.40747 0.0
O556 O 0.57377 0.13659 0.45688 0.0
N557 N 0.60364 1.00209 0.45429 0.0
C558 C 0.59684 0.98462 0.42638 0.0
C559 C 0.58109 0.95488 0.42824 0.0
C560 C 0.57291 0.94316 0.45877 0.0
C561 C 0.58052 0.96133 0.48718 0.0
C562 C 0.59614 0.99085 0.48381 0.0
H563 H 0.60333 0.99327 0.40285 0.0
O564 O 0.56064 0.08254 0.4168 0.0
O565 O 0.5944 0.06873 0.45309 0.0
O566 O 0.61922 0.08479 0.39107 0.0
O567 O 0.6373 0.04041 0.41303 0.0
C568 C 0.57297 0.95143 0.51868 0.0
C569 C 0.58064 0.97137 0.54613 0.0
H570 H 0.59782 0.0168 0.59291 0.0
H571 H 0.62466 0.06865 0.58198 0.0
H572 H 0.57536 0.94097 0.4062 0.0
H573 H 0.5607 0.92025 0.4601 0.0
H574 H 0.56084 0.92874 0.52204 0.0
H575 H 0.57427 0.96373 0.57017 0.0
Mn576 Mn 0.65856 0.84589 0.16483 0.0
Mn577 Mn 0.62991 0.81487 0.23377 0.0
C578 C 0.689 0.83395 0.20898 0.0
C579 C 0.68209 0.84337 0.11392 0.0
C580 C 0.62812 0.88542 0.21833 0.0
O581 O 0.6173 0.82605 0.14851 0.0
O582 O 0.60127 0.80763 0.19681 0.0
C583 C 0.62822 0.74592 0.21386 0.0
N584 N 0.63744 0.77006 0.23521 0.0
C585 C 0.66036 0.73271 0.27098 0.0
C586 C 0.65101 0.70746 0.24945 0.0
C587 C 0.63503 0.71413 0.22067 0.0
C588 C 0.65329 0.76395 0.26268 0.0
H589 H 0.61572 0.75083 0.19184 0.0
C590 C 0.59803 0.81091 0.16597 0.0
O591 O 0.66733 0.86788 0.12329 0.0
O592 O 0.68065 0.81863 0.13265 0.0
N593 N 0.65592 0.8194 0.27149 0.0
C594 C 0.66463 0.84658 0.28891 0.0
C595 C 0.68159 0.84411 0.31793 0.0
C596 C 0.68904 0.81374 0.329 0.0
C597 C 0.67959 0.7861 0.31085 0.0
C598 C 0.66291 0.79005 0.282 0.0
H599 H 0.65871 0.86999 0.28078 0.0
O600 O 0.69792 0.85539 0.18848 0.0
O601 O 0.66261 0.82106 0.20348 0.0
O602 O 0.64057 0.88335 0.19069 0.0
O603 O 0.62187 0.86111 0.23564 0.0
C604 C 0.68622 0.75479 0.32015 0.0
C605 C 0.67659 0.72811 0.30024 0.0
H606 H 0.65611 0.68288 0.25468 0.0
H607 H 0.62782 0.69478 0.20386 0.0
H608 H 0.68879 0.86557 0.33181 0.0
H609 H 0.70212 0.81194 0.3514 0.0
H610 H 0.69908 0.75097 0.34233 0.0
H611 H 0.6822 0.70419 0.30742 0.0
Mn612 Mn 0.90434 0.11994 0.5643 0.0
Mn613 Mn 0.86914 0.0515 0.53409 0.0
C614 C 0.92986 0.07429 0.55525 0.0
C615 C 0.93453 0.16761 0.55905 0.0
C616 C 0.86682 0.07203 0.60498 0.0
O617 O 0.86493 0.13663 0.54342 0.0
O618 O 0.84667 0.089 0.52267 0.0
C619 C 0.87531 0.06318 0.46339 0.0
N620 N 0.87939 0.04419 0.48962 0.0
C621 C 0.89775 1.00192 0.45566 0.0
C622 C 0.8936 0.02094 0.42826 0.0
C623 C 0.88253 0.0518 0.43219 0.0
C624 C 0.89063 0.01476 0.4862 0.0
H625 H 0.86661 0.08681 0.46626 0.0
C626 C 0.84583 0.11951 0.52566 0.0
O627 O 0.91876 0.16213 0.58465 0.0
O628 O 0.92986 0.14739 0.53481 0.0
N629 N 0.88922 0.01291 0.54286 0.0
C630 C 0.89304 0.99806 0.57189 0.0
C631 C 0.90366 0.9669 0.57221 0.0
C632 C 0.90992 0.95121 0.54269 0.0
C633 C 0.90637 0.96709 0.51319 0.0
C634 C 0.89553 0.99807 0.51435 0.0
H635 H 0.8875 0.00956 0.59462 0.0
O636 O 0.94072 0.09613 0.57569 0.0
O637 O 0.90478 0.07973 0.54079 0.0
O638 O 0.88391 0.0973 0.6031 0.0
O639 O 0.85752 0.05545 0.58002 0.0
C640 C 0.91274 0.95321 0.48264 0.0
C641 C 0.90879 0.97077 0.45392 0.0
H642 H 0.89894 0.01216 0.40412 0.0
H643 H 0.87937 0.06668 0.41117 0.0
H644 H 0.90638 0.95473 0.59509 0.0
H645 H 0.91684 0.92676 0.5429 0.0
H646 H 0.92113 0.92924 0.48101 0.0
H647 H 0.91433 0.9601 0.43062 0.0
Mn648 Mn 0.63271 0.18423 0.33005 0.0
Mn649 Mn 0.66281 0.25586 0.35831 0.0
C650 C 0.64165 0.22595 0.29379 0.0
C651 C 0.63518 0.13195 0.30553 0.0
C652 C 0.59804 0.23577 0.36651 0.0
O653 O 0.6538 0.17215 0.37326 0.0
O654 O 0.67276 0.22136 0.38813 0.0
C655 C 0.72751 0.24504 0.35702 0.0
N656 N 0.70383 0.26269 0.34836 0.0
C657 C 0.73587 0.30914 0.33905 0.0
C658 C 0.76066 0.29147 0.34769 0.0
C659 C 0.75649 0.25907 0.35609 0.0
C660 C 0.70775 0.29325 0.33845 0.0
H661 H 0.72423 0.22076 0.36533 0.0
C662 C 0.67017 0.1911 0.39203 0.0
O663 O 0.61251 0.14036 0.32227 0.0
O664 O 0.65732 0.15295 0.30505 0.0
N665 N 0.65608 0.29227 0.33212 0.0
C666 C 0.6298 0.30575 0.32426 0.0
C667 C 0.63016 0.33726 0.3127 0.0
C668 C 0.65736 0.3551 0.31103 0.0
C669 C 0.68403 0.34096 0.32014 0.0
C670 C 0.68243 0.30884 0.32948 0.0
H671 H 0.60876 0.29272 0.32721 0.0
O672 O 0.62083 0.20379 0.28826 0.0
O673 O 0.65596 0.22418 0.32169 0.0
O674 O 0.59867 0.20822 0.35232 0.0
O675 O 0.62108 0.25407 0.3711 0.0
C676 C 0.71199 0.35779 0.32155 0.0
C677 C 0.73785 0.34199 0.33139 0.0
H678 H 0.78296 0.30251 0.34795 0.0
H679 H 0.77549 0.24529 0.36288 0.0
H680 H 0.60944 0.34815 0.30617 0.0
H681 H 0.65745 0.37979 0.30326 0.0
H682 H 0.71388 0.38285 0.31506 0.0
H683 H 0.75924 0.35508 0.3321 0.0
Mn684 Mn 0.62429 0.93917 0.07602 0.0
Mn685 Mn 0.58737 0.92468 0.00406 0.0
C686 C 0.60998 0.98125 0.04326 0.0
C687 C 0.62488 0.95563 0.13203 0.0
C688 C 0.65305 0.91291 0.01338 0.0
O689 O 0.60434 0.89338 0.08166 0.0
O690 O 0.57934 0.88823 0.03301 0.0
C691 C 0.5281 0.9316 0.03218 0.0
N692 N 0.54799 0.93916 0.00868 0.0
C693 C 0.51607 0.97842 0.98638 0.0
C694 C 0.49556 0.97151 0.01071 0.0
C695 C 0.50159 0.94806 0.03377 0.0
C696 C 0.54284 0.96254 0.98719 0.0
H697 H 0.53294 0.91401 0.05029 0.0
C698 C 0.58582 0.87819 0.06148 0.0
O699 O 0.64734 0.94171 0.11926 0.0
O700 O 0.60125 0.95653 0.11345 0.0
N701 N 0.5926 0.95875 0.97385 0.0
C702 C 0.61732 0.96776 0.95707 0.0
C703 C 0.61547 0.99191 0.93381 0.0
C704 C 0.58822 0.00641 0.92792 0.0
C705 C 0.56311 0.99676 0.9455 0.0
C706 C 0.56624 0.97236 0.96815 0.0
H707 H 0.63825 0.95653 0.96125 0.0
O708 O 0.63264 0.98529 0.06334 0.0
O709 O 0.59885 0.95224 0.04139 0.0
O710 O 0.65546 0.9232 0.0431 0.0
O711 O 0.62831 0.91056 0.99729 0.0
C712 C 0.53527 0.01089 0.94204 0.0
C713 C 0.51178 1.00176 0.96258 0.0
H714 H 0.47533 0.98453 0.01234 0.0
H715 H 0.48595 0.94289 0.05283 0.0
H716 H 0.63498 0.99928 0.92041 0.0
H717 H 0.58694 0.02519 0.91013 0.0
H718 H 0.53201 0.02958 0.9245 0.0
H719 H 0.4908 0.01352 0.96054 0.0
Mn720 Mn 0.86401 0.86278 0.80991 0.0
Mn721 Mn 0.8317 0.792 0.83069 0.0
C722 C 0.85702 0.82088 0.77117 0.0
C723 C 0.85983 0.91358 0.78562 0.0
C724 C 0.895 0.81173 0.85026 0.0
O725 O 0.84115 0.87459 0.85231 0.0
O726 O 0.817 0.82666 0.85839 0.0
C727 C 0.77195 0.80709 0.80561 0.0
N728 N 0.79429 0.78618 0.80835 0.0
C729 C 0.76746 0.74644 0.77477 0.0
C730 C 0.74427 0.76756 0.77123 0.0
C731 C 0.74668 0.79826 0.78619 0.0
C732 C 0.79301 0.75765 0.79208 0.0
H733 H 0.77388 0.83055 0.81743 0.0
C734 C 0.82143 0.85637 0.86614 0.0
O735 O 0.88289 0.90714 0.80375 0.0
O736 O 0.8384 0.89187 0.78424 0.0
N737 N 0.8434 0.7556 0.80548 0.0
C738 C 0.87021 0.74145 0.80492 0.0
C739 C 0.87244 0.71162 0.78873 0.0
C740 C 0.84698 0.69631 0.77383 0.0
C741 C 0.8196 0.71121 0.7749 0.0
C742 C 0.81882 0.74105 0.79121 0.0
H743 H 0.8897 0.75253 0.81701 0.0
O744 O 0.87713 0.84357 0.76725 0.0
O745 O 0.8431 0.8231 0.79823 0.0
O746 O 0.89675 0.83798 0.83442 0.0
O747 O 0.87067 0.79539 0.85373 0.0
C748 C 0.79302 0.69775 0.76041 0.0
C749 C 0.76686 0.71533 0.76062 0.0
H750 H 0.72488 0.76073 0.75629 0.0
H751 H 0.729 0.81486 0.78304 0.0
H752 H 0.89367 0.70026 0.78811 0.0
H753 H 0.84873 0.67322 0.76151 0.0
H754 H 0.7926 0.67431 0.74841 0.0
H755 H 0.74658 0.70498 0.74924 0.0
Mn756 Mn 0.41029 0.58981 0.1112 0.0
Mn757 Mn 0.37672 0.52542 0.07085 0.0
C758 C 0.43722 0.54811 0.09292 0.0
C759 C 0.4381 0.63959 0.11377 0.0
C760 C 0.37392 0.53512 0.14386 0.0
O761 O 0.37082 0.60771 0.09393 0.0
O762 O 0.35127 0.56242 0.06837 0.0
C763 C 0.37686 0.54939 0.00325 0.0
N764 N 0.38458 0.52697 0.02525 0.0
C765 C 0.40303 0.49291 0.98279 0.0
C766 C 0.39532 0.51567 0.9597 0.0
C767 C 0.38238 0.54415 0.97002 0.0
C768 C 0.39758 0.49979 0.01564 0.0
H769 H 0.36645 0.57102 0.01095 0.0
C770 C 0.35056 0.59214 0.07649 0.0
O771 O 0.42322 0.62867 0.13807 0.0
O772 O 0.43499 0.62288 0.08674 0.0
N773 N 0.39991 0.48795 0.07084 0.0
C774 C 0.40715 0.46907 0.09633 0.0
C775 C 0.42038 0.4397 0.09018 0.0
C776 C 0.42569 0.42991 0.05791 0.0
C777 C 0.41868 0.45005 0.03215 0.0
C778 C 0.40559 0.47907 0.03977 0.0
H779 H 0.40236 0.47608 0.12111 0.0
O780 O 0.44719 0.56566 0.1177 0.0
O781 O 0.41133 0.55444 0.08087 0.0
O782 O 0.38933 0.56168 0.14574 0.0
O783 O 0.36732 0.52026 0.11706 0.0
C784 C 0.42361 0.44219 0.99917 0.0
C785 C 0.4158 0.46363 0.9745 0.0
H786 H 0.39925 0.51154 0.934 0.0
H787 H 0.37635 0.56185 0.95236 0.0
H788 H 0.42588 0.42431 0.11019 0.0
H789 H 0.43483 0.40672 0.05318 0.0
H790 H 0.43354 0.41983 0.99248 0.0
H791 H 0.42 0.45748 0.94926 0.0
Mn792 Mn 0.14483 0.67717 0.84558 0.0
Mn793 Mn 0.17952 0.7445 0.87766 0.0
C794 C 0.1509 0.72199 0.81324 0.0
C795 C 0.14367 0.62782 0.815 0.0
C796 C 0.11516 0.72502 0.89185 0.0
O797 O 0.16923 0.66063 0.88434 0.0
O798 O 0.19209 0.70672 0.90308 0.0
C799 C 0.24209 0.73139 0.86239 0.0
N800 N 0.21886 0.75125 0.86191 0.0
C801 C 0.25082 0.79647 0.84825 0.0
C802 C 0.27546 0.77689 0.85021 0.0
C803 C 0.27096 0.74399 0.8565 0.0
C804 C 0.22259 0.78222 0.85336 0.0
H805 H 0.23835 0.70623 0.86701 0.0
C806 C 0.1875 0.67624 0.90414 0.0
O807 O 0.12298 0.63476 0.83518 0.0
O808 O 0.16625 0.64822 0.81454 0.0
N809 N 0.17102 0.78351 0.8562 0.0
C810 C 0.14464 0.79832 0.85321 0.0
C811 C 0.14459 0.83032 0.84306 0.0
C812 C 0.17173 0.84712 0.83734 0.0
C813 C 0.19863 0.83154 0.84116 0.0
C814 C 0.19715 0.79927 0.84995 0.0
H815 H 0.12388 0.78596 0.85884 0.0
O816 O 0.12898 0.701 0.8083 0.0
O817 O 0.16794 0.71712 0.83878 0.0
O818 O 0.11395 0.69924 0.87437 0.0
O819 O 0.13903 0.74238 0.89603 0.0
C820 C 0.22691 0.84691 0.83731 0.0
C821 C 0.25303 0.82943 0.84115 0.0
H822 H 0.29776 0.78665 0.84601 0.0
H823 H 0.2897 0.72848 0.85705 0.0
H824 H 0.12375 0.84225 0.84045 0.0
H825 H 0.17165 0.87203 0.83031 0.0
H826 H 0.22883 0.87202 0.83101 0.0
H827 H 0.2746 0.8413 0.8375 0.0
Mn828 Mn 0.11088 0.42472 0.58754 0.0
Mn829 Mn 0.0716 0.39722 0.52047 0.0
C830 C 0.10082 0.45939 0.54465 0.0
C831 C 0.11536 0.45366 0.63835 0.0
C832 C 0.1367 0.38405 0.53176 0.0
O833 O 0.08841 0.38432 0.60561 0.0
O834 O 0.06476 0.36985 0.5583 0.0
C835 C 0.00991 0.40408 0.54317 0.0
N836 N 0.03107 0.40922 0.52039 0.0
C837 C 0.9939 0.41947 0.47915 0.0
C838 C 0.9716 0.41404 0.50204 0.0
C839 C 0.9797 0.40691 0.53437 0.0
C840 C 0.02363 0.41788 0.48982 0.0
H841 H 0.01604 0.39736 0.56764 0.0
C842 C 0.06959 0.36621 0.5888 0.0
O843 O 0.13583 0.4348 0.62865 0.0
O844 O 0.09137 0.45328 0.62023 0.0
N845 N 0.0747 0.4212 0.48149 0.0
C846 C 0.09906 0.4274 0.4631 0.0
C847 C 0.0951 0.43768 0.43092 0.0
C848 C 0.06615 0.43994 0.41754 0.0
C849 C 0.04142 0.43274 0.43677 0.0
C850 C 0.04681 0.42436 0.46918 0.0
H851 H 0.12123 0.42403 0.47279 0.0
O852 O 0.12419 0.4636 0.56361 0.0
O853 O 0.0845 0.43355 0.54993 0.0
O854 O 0.13977 0.39788 0.55991 0.0
O855 O 0.11223 0.38258 0.51562 0.0
C856 C 0.01164 0.43302 0.42498 0.0
C857 C 0.98788 0.42639 0.44617 0.0
H858 H 0.94826 0.41552 0.49515 0.0
H859 H 0.96265 0.40286 0.55223 0.0
H860 H 0.1143 0.44286 0.41615 0.0
H861 H 0.06317 0.44696 0.39241 0.0
H862 H 0.00675 0.43892 0.39986 0.0
H863 H 0.96509 0.42743 0.43704 0.0
Mn864 Mn 0.17573 0.34384 0.63263 0.0
Mn865 Mn 0.1437 0.30153 0.69376 0.0
C866 C 0.20228 0.33333 0.68062 0.0
C867 C 0.20559 0.35119 0.58593 0.0
C868 C 0.13403 0.37201 0.68399 0.0
O869 O 0.13885 0.31984 0.60813 0.0
O870 O 0.12217 0.29368 0.65196 0.0
C871 C 0.15798 0.23685 0.66835 0.0
N872 N 0.15732 0.25869 0.6935 0.0
C873 C 0.17602 0.22071 0.7315 0.0
C874 C 0.17597 0.19748 0.70623 0.0
C875 C 0.16727 0.20572 0.67442 0.0
C876 C 0.16684 0.25142 0.72387 0.0
H877 H 0.15175 0.24327 0.64382 0.0
C878 C 0.12085 0.29924 0.62146 0.0
O879 O 0.18651 0.37174 0.59524 0.0
O880 O 0.20541 0.32453 0.60183 0.0
N881 N 0.16228 0.30574 0.73626 0.0
C882 C 0.16455 0.3319 0.75687 0.0
C883 C 0.1749 0.32838 0.78915 0.0
C884 C 0.18216 0.29792 0.80014 0.0
C885 C 0.17929 0.27128 0.77863 0.0
C886 C 0.16911 0.2763 0.74666 0.0
H887 H 0.15845 0.35526 0.74881 0.0
O888 O 0.21048 0.35731 0.66284 0.0
O889 O 0.17916 0.31621 0.67006 0.0
O890 O 0.1498 0.37479 0.65859 0.0
O891 O 0.12875 0.34531 0.69773 0.0
C892 C 0.1867 0.24005 0.78744 0.0
C893 C 0.18552 0.21488 0.76377 0.0
H894 H 0.18315 0.17346 0.71082 0.0
H895 H 0.16774 0.18812 0.65465 0.0
H896 H 0.17704 0.34907 0.80561 0.0
H897 H 0.19015 0.2953 0.82506 0.0
H898 H 0.19433 0.23536 0.81209 0.0
H899 H 0.19246 0.19128 0.77052 0.0
Mn900 Mn 0.34843 0.69938 0.11781 0.0
Mn901 Mn 0.38179 0.73036 0.18739 0.0
C902 C 0.32144 0.71252 0.16248 0.0
C903 C 0.31958 0.70362 0.06862 0.0
C904 C 0.37751 0.6591 0.17195 0.0
O905 O 0.39004 0.71697 0.101 0.0
O906 O 0.40811 0.73444 0.15022 0.0
C907 C 0.38375 0.79827 0.16657 0.0
N908 N 0.37699 0.77576 0.18915 0.0
C909 C 0.36238 0.81632 0.22751 0.0
C910 C 0.37003 0.84002 0.20505 0.0
C911 C 0.38037 0.83091 0.17427 0.0
C912 C 0.36563 0.78417 0.21815 0.0
H913 H 0.39147 0.79139 0.14282 0.0
C914 C 0.41047 0.73152 0.11935 0.0
O915 O 0.33377 0.67812 0.07566 0.0
O916 O 0.32529 0.72821 0.08797 0.0
N917 N 0.35888 0.7292 0.22613 0.0
C918 C 0.35116 0.70335 0.24444 0.0
C919 C 0.34068 0.70828 0.27605 0.0
C920 C 0.33859 0.7397 0.28864 0.0
C921 C 0.34597 0.76589 0.26917 0.0
C922 C 0.35655 0.75952 0.23798 0.0
H923 H 0.3537 0.67912 0.2354 0.0
O924 O 0.31057 0.69136 0.14136 0.0
O925 O 0.34759 0.72507 0.15725 0.0
O926 O 0.36543 0.66091 0.14332 0.0
O927 O 0.38664 0.68371 0.18894 0.0
C928 C 0.34389 0.79807 0.2798 0.0
C929 C 0.35158 0.82329 0.25875 0.0
H930 H 0.36772 0.86523 0.21104 0.0
H931 H 0.38587 0.84901 0.15658 0.0
H932 H 0.33494 0.68793 0.29098 0.0
H933 H 0.33173 0.74351 0.31347 0.0
H934 H 0.33583 0.80369 0.30387 0.0
H935 H 0.34915 0.84794 0.26685 0.0
Mn936 Mn 0.58616 0.59768 0.60351 0.0
Mn937 Mn 0.59376 0.5237 0.57017 0.0
C938 C 0.56813 0.58534 0.55209 0.0
C939 C 0.55471 0.63304 0.6312 0.0
C940 C 0.64301 0.57554 0.57024 0.0
O941 O 0.59752 0.57102 0.64355 0.0
O942 O 0.60089 0.5227 0.61796 0.0
C943 C 0.54105 0.49202 0.6 0.0
N944 N 0.55632 0.50035 0.57293 0.0
C945 C 0.51897 0.47358 0.53768 0.0
C946 C 0.50293 0.46459 0.5652 0.0
C947 C 0.51396 0.47398 0.59649 0.0
C948 C 0.54566 0.49187 0.54269 0.0
H949 H 0.54946 0.4991 0.62409 0.0
C950 C 0.60202 0.54079 0.6436 0.0
O951 O 0.58303 0.63987 0.62829 0.0
O952 O 0.54551 0.60482 0.62095 0.0
N953 N 0.58698 0.52089 0.52384 0.0
C954 C 0.60485 0.53198 0.49974 0.0
C955 C 0.59678 0.52494 0.46695 0.0
C956 C 0.57072 0.50616 0.45929 0.0
C957 C 0.55297 0.49455 0.4845 0.0
C958 C 0.56204 0.50247 0.51672 0.0
H959 H 0.6251 0.54611 0.50542 0.0
O960 O 0.57287 0.61504 0.56113 0.0
O961 O 0.57345 0.56389 0.57369 0.0
O962 O 0.62915 0.59753 0.58546 0.0
O963 O 0.6324 0.54687 0.56522 0.0
C964 C 0.52662 0.47542 0.47892 0.0
C965 C 0.5095 0.46515 0.50548 0.0
H966 H 0.48209 0.45056 0.56259 0.0
H967 H 0.50166 0.46723 0.61785 0.0
H968 H 0.61069 0.53387 0.44764 0.0
H969 H 0.56455 0.50079 0.43398 0.0
H970 H 0.51909 0.46884 0.45427 0.0
H971 H 0.48902 0.45089 0.50084 0.0
Mn972 Mn 0.93197 0.36917 0.08912 0.0
Mn973 Mn 0.91033 0.44482 0.07488 0.0
C974 C 0.94915 0.39693 0.04479 0.0
C975 C 0.9652 0.33286 0.11109 0.0
C976 C 0.87317 0.38527 0.05341 0.0
O977 O 0.91558 0.38269 0.13407 0.0
O978 O 0.90119 0.43148 0.11948 0.0
C979 C 0.95363 0.47764 0.12166 0.0
N980 N 0.94096 0.47472 0.09113 0.0
C981 C 0.96946 0.52102 0.07323 0.0
C982 C 0.98266 0.52465 0.10453 0.0
C983 C 0.97484 0.50273 0.12878 0.0
C984 C 0.9488 0.49526 0.06744 0.0
H985 H 0.94762 0.46099 0.14044 0.0
C986 C 0.90429 0.40976 0.1406 0.0
O987 O 0.93816 0.32379 0.10207 0.0
O988 O 0.97226 0.36327 0.10947 0.0
N989 N 0.91771 0.46278 0.03306 0.0
C990 C 0.90337 0.45567 0.00393 0.0
C991 C 0.90843 0.47554 0.9772 0.0
C992 C 0.92773 0.50287 0.9808 0.0
C993 C 0.9419 0.51003 0.0111 0.0
C994 C 0.93593 0.48939 0.03689 0.0
H995 H 0.88825 0.43493 0.00102 0.0
O996 O 0.94961 0.36589 0.04499 0.0
O997 O 0.9395 0.41121 0.0707 0.0
O998 O 0.88988 0.36483 0.06684 0.0
O999 O 0.87833 0.41562 0.05611 0.0
C1000 C 0.96188 0.53672 0.01667 0.0
C1001 C 0.97598 0.54194 0.04757 0.0
H1002 H 0.99889 0.5441 0.11018 0.0
H1003 H 0.985 0.50529 0.15297 0.0
H1004 H 0.8974 0.46984 0.95389 0.0
H1005 H 0.93169 0.51806 0.96009 0.0
H1006 H 0.96687 0.55314 0.99721 0.0
H1007 H 0.99173 0.5622 0.05136 0.0
Mn1008 Mn 0.66336 0.66244 0.66274 0.0
Mn1009 Mn 0.64894 0.68833 0.73906 0.0
C1010 C 0.6841 0.71124 0.68201 0.0
C1011 C 0.69507 0.63715 0.62543 0.0
C1012 C 0.60597 0.69523 0.68194 0.0
O1013 O 0.64854 0.62048 0.68433 0.0
O1014 O 0.64016 0.64155 0.73419 0.0
C1015 C 0.69534 0.65408 0.77544 0.0
N1016 N 0.68144 0.68164 0.76864 0.0
C1017 C 0.70538 0.70938 0.81487 0.0
C1018 C 0.72004 0.68131 0.82244 0.0
C1019 C 0.71531 0.65367 0.80235 0.0
C1020 C 0.68681 0.70869 0.78693 0.0
H1021 H 0.69091 0.63257 0.76068 0.0
C1022 C 0.64065 0.61782 0.71405 0.0
O1023 O 0.66752 0.64254 0.61772 0.0
O1024 O 0.70334 0.64397 0.65524 0.0
N1025 N 0.65626 0.73298 0.74901 0.0
C1026 C 0.64234 0.75865 0.73666 0.0
C1027 C 0.64555 0.78859 0.75312 0.0
C1028 C 0.6621 0.79149 0.78268 0.0
C1029 C 0.67598 0.76463 0.79505 0.0
C1030 C 0.67293 0.73578 0.7769 0.0
H1031 H 0.62847 0.75616 0.71477 0.0
O1032 O 0.67935 0.70526 0.65121 0.0
O1033 O 0.67569 0.68837 0.70148 0.0
O1034 O 0.62138 0.68134 0.66034 0.0
O1035 O 0.61399 0.69757 0.71187 0.0
C1036 C 0.69316 0.7654 0.82438 0.0
C1037 C 0.70824 0.73793 0.83401 0.0
H1038 H 0.73497 0.68072 0.84357 0.0
H1039 H 0.72653 0.63192 0.80802 0.0
H1040 H 0.63469 0.80918 0.74347 0.0
H1041 H 0.66413 0.81448 0.79558 0.0
H1042 H 0.69579 0.78731 0.83908 0.0
H1043 H 0.72215 0.73912 0.85601 0.0
Mn1044 Mn 0.4044 0.43682 0.37759 0.0
Mn1045 Mn 0.37073 0.50032 0.4116 0.0
C1046 C 0.43081 0.48334 0.39177 0.0
C1047 C 0.43254 0.38979 0.38077 0.0
C1048 C 0.36883 0.48659 0.33889 0.0
O1049 O 0.36548 0.41573 0.39623 0.0
O1050 O 0.34533 0.46074 0.41606 0.0
C1051 C 0.37311 0.47979 0.48052 0.0
N1052 N 0.37991 0.50191 0.45753 0.0
C1053 C 0.40358 0.53776 0.49814 0.0
C1054 C 0.39667 0.51542 0.5222 0.0
C1055 C 0.38147 0.48626 0.51331 0.0
C1056 C 0.39474 0.52997 0.46581 0.0
H1057 H 0.36145 0.45731 0.47398 0.0
C1058 C 0.34527 0.43015 0.41207 0.0
O1059 O 0.41802 0.39734 0.35463 0.0
O1060 O 0.42949 0.40859 0.40597 0.0
N1061 N 0.39382 0.54005 0.41014 0.0
C1062 C 0.40053 0.55823 0.38383 0.0
C1063 C 0.4167 0.58764 0.38849 0.0
C1064 C 0.42559 0.59822 0.42015 0.0
C1065 C 0.41824 0.57927 0.44687 0.0
C1066 C 0.40203 0.55018 0.44075 0.0
H1067 H 0.39373 0.55038 0.35943 0.0
O1068 O 0.44093 0.46425 0.36968 0.0
O1069 O 0.4056 0.47481 0.40431 0.0
O1070 O 0.38323 0.46068 0.34003 0.0
O1071 O 0.36109 0.50194 0.36436 0.0
C1072 C 0.42674 0.58791 0.4793 0.0
C1073 C 0.41935 0.5672 0.50492 0.0
H1074 H 0.40317 0.52027 0.54751 0.0
H1075 H 0.37619 0.46881 0.53172 0.0
H1076 H 0.4223 0.60211 0.36773 0.0
H1077 H 0.4382 0.62084 0.42363 0.0
H1078 H 0.43932 0.61022 0.48477 0.0
H1079 H 0.42638 0.5739 0.5297 0.0
Mn1080 Mn 0.07393 0.59849 0.8869 0.0
Mn1081 Mn 0.10548 0.5388 0.92931 0.0
C1082 C 0.04554 0.5544 0.90298 0.0
C1083 C 0.04932 0.64744 0.88379 0.0
C1084 C 0.10899 0.54365 0.85588 0.0
O1085 O 0.11383 0.62018 0.90431 0.0
O1086 O 0.13093 0.57831 0.93199 0.0
C1087 C 0.10128 0.56842 0.99537 0.0
N1088 N 0.09594 0.54295 0.97434 0.0
C1089 C 0.0773 0.50995 0.01742 0.0
C1090 C 0.08262 0.5358 0.03958 0.0
C1091 C 0.09445 0.56524 0.02844 0.0
C1092 C 0.08385 0.51481 0.98463 0.0
H1093 H 0.11078 0.59094 0.98701 0.0
C1094 C 0.13284 0.60752 0.92345 0.0
O1095 O 0.06376 0.63599 0.85942 0.0
O1096 O 0.05064 0.6315 0.9106 0.0
N1097 N 0.08364 0.49836 0.92996 0.0
C1098 C 0.07911 0.47601 0.90533 0.0
C1099 C 0.06725 0.44526 0.91235 0.0
C1100 C 0.06099 0.43746 0.94471 0.0
C1101 C 0.06645 0.46059 0.96974 0.0
C1102 C 0.07786 0.49098 0.96122 0.0
H1103 H 0.0846 0.48152 0.88052 0.0
O1104 O 0.03614 0.57173 0.87926 0.0
O1105 O 0.07072 0.56358 0.91709 0.0
O1106 O 0.09434 0.56923 0.85325 0.0
O1107 O 0.11585 0.53149 0.88321 0.0
C1108 C 0.06104 0.45468 0.00284 0.0
C1109 C 0.06593 0.4795 0.02658 0.0
H1110 H 0.0777 0.53332 0.06517 0.0
H1111 H 0.0986 0.58532 0.04538 0.0
H1112 H 0.06327 0.42749 0.89291 0.0
H1113 H 0.05197 0.41368 0.95006 0.0
H1114 H 0.05245 0.43131 0.0102 0.0
H1115 H 0.06093 0.47489 0.05182 0.0
Mn1116 Mn 0.35506 0.32391 0.3457 0.0
Mn1117 Mn 0.32986 0.24936 0.36211 0.0
C1118 C 0.36175 0.28245 0.30762 0.0
C1119 C 0.34829 0.37328 0.32006 0.0
C1120 C 0.38663 0.27898 0.393 0.0
O1121 O 0.32449 0.33174 0.38165 0.0
O1122 O 0.30621 0.281 0.38636 0.0
C1123 C 0.27713 0.26001 0.32128 0.0
N1124 N 0.29758 0.23941 0.33235 0.0
C1125 C 0.28282 0.19993 0.29088 0.0
C1126 C 0.26077 0.22017 0.27994 0.0
C1127 C 0.2591 0.25106 0.29397 0.0
C1128 C 0.30214 0.21161 0.31602 0.0
H1129 H 0.27595 0.28379 0.3321 0.0
C1130 C 0.30564 0.31112 0.39301 0.0
O1131 O 0.36782 0.37011 0.34337 0.0
O1132 O 0.33041 0.34867 0.31395 0.0
N1133 N 0.3493 0.21501 0.34069 0.0
C1134 C 0.37712 0.20411 0.34636 0.0
C1135 C 0.3854 0.17551 0.33097 0.0
C1136 C 0.36492 0.15819 0.31014 0.0
C1137 C 0.33638 0.16974 0.30479 0.0
C1138 C 0.3292 0.19804 0.32136 0.0
H1139 H 0.3928 0.21682 0.36278 0.0
O1140 O 0.37893 0.30823 0.30822 0.0
O1141 O 0.34269 0.28155 0.33091 0.0
O1142 O 0.38618 0.30538 0.37749 0.0
O1143 O 0.36491 0.25803 0.39209 0.0
C1144 C 0.31517 0.15501 0.28271 0.0
C1145 C 0.28844 0.1703 0.2755 0.0
H1146 H 0.2462 0.21301 0.25952 0.0
H1147 H 0.24393 0.2679 0.28383 0.0
H1148 H 0.40749 0.16677 0.33525 0.0
H1149 H 0.37152 0.13636 0.29797 0.0
H1150 H 0.31989 0.1329 0.26983 0.0
H1151 H 0.2731 0.15984 0.25706 0.0
H1152 H 0.06516 0.09269 0.9892 0.0
H1153 H 0.94176 0.96821 0.99456 0.0
H1154 H 0.99646 0.09199 0.06047 0.0
H1155 H 0.96094 0.99865 0.89714 0.0
H1156 H 0.967 0.01627 0.01658 0.0
H1157 H 0.02936 0.06633 0.94918 0.0
C1158 C 0.0424 0.08727 0.99604 0.0
C1159 C 0.034 0.09044 0.02852 0.0
C1160 C 0.96534 0.01304 0.99028 0.0
C1161 C 0.99342 0.06387 0.98365 0.0
C1162 C 0.95114 0.98548 0.97781 0.0
C1163 C 0.94839 0.98055 0.94424 0.0
C1164 C 0.97751 0.03568 0.96901 0.0
C1165 C 0.96231 1.00247 0.92336 0.0
C1166 C 0.02193 0.07323 0.97318 0.0
C1167 C 0.00398 0.08717 0.03599 0.0
N1168 N 0.97655 0.02959 0.93618 0.0
N1169 N 0.98464 0.07343 0.01372 0.0
H1170 H 0.31629 0.77584 0.1676 0.0
H1171 H 0.25579 0.83685 0.30839 0.0
H1172 H 0.28164 0.68572 0.20421 0.0
H1173 H 0.18095 0.77382 0.27815 0.0
H1174 H 0.28578 0.81137 0.2668 0.0
H1175 H 0.2862 0.80459 0.20633 0.0
C1176 C 0.30247 0.76224 0.18418 0.0
C1177 C 0.30205 0.72869 0.1842 0.0
C1178 C 0.26294 0.80293 0.26977 0.0
C1179 C 0.26751 0.76092 0.22708 0.0
C1180 C 0.246 0.81736 0.29319 0.0
C1181 C 0.21667 0.80611 0.29714 0.0
C1182 C 0.25016 0.77734 0.25076 0.0
C1183 C 0.20415 0.78175 0.27649 0.0
C1184 C 0.28543 0.77855 0.20598 0.0
C1185 C 0.28278 0.71174 0.20446 0.0
N1186 N 0.22129 0.76748 0.25432 0.0
N1187 N 0.26604 0.72824 0.22553 0.0
H1188 H 0.48758 0.95322 0.58447 0.0
H1189 H 0.53279 0.01423 0.40853 0.0
H1190 H 0.44179 0.91429 0.49783 0.0
H1191 H 0.5559 0.06124 0.50098 0.0
H1192 H 0.50194 0.97382 0.43759 0.0
H1193 H 0.51883 0.98706 0.55106 0.0
C1194 C 0.48445 0.95168 0.55815 0.0
C1195 C 0.46164 0.93213 0.54368 0.0
C1196 C 0.51375 0.99313 0.45128 0.0
C1197 C 0.49731 0.97061 0.50505 0.0
C1198 C 0.53104 0.0161 0.4348 0.0
C1199 C 0.54745 0.04009 0.45279 0.0
C1200 C 0.51321 0.99479 0.48555 0.0
C1201 C 0.54429 0.04233 0.4865 0.0
C1202 C 0.50227 0.97096 0.53901 0.0
C1203 C 0.45892 0.9299 0.50958 0.0
N1204 N 0.52792 0.01969 0.5018 0.0
N1205 N 0.47635 0.94957 0.49113 0.0
H1206 H 0.31736 0.28024 0.84592 0.0
H1207 H 0.21852 0.27305 0.68422 0.0
H1208 H 0.25889 0.20082 0.81269 0.0
H1209 H 0.2316 0.36533 0.7332 0.0
H1210 H 0.2411 0.24797 0.7304 0.0
H1211 H 0.29294 0.31475 0.80542 0.0
C1212 C 0.29899 0.2704 0.83068 0.0
C1213 C 0.29048 0.23762 0.83167 0.0
C1214 C 0.24026 0.27385 0.73083 0.0
C1215 C 0.26323 0.27604 0.78614 0.0
C1216 C 0.22687 0.28812 0.70461 0.0
C1217 C 0.22208 0.32089 0.7058 0.0
C1218 C 0.25101 0.29264 0.75769 0.0
C1219 C 0.23447 0.33967 0.73204 0.0
C1220 C 0.28524 0.28993 0.80767 0.0
C1221 C 0.26659 0.22579 0.81196 0.0
N1222 N 0.24847 0.32517 0.75741 0.0
N1223 N 0.25427 0.2448 0.78968 0.0
H1224 H 0.06468 0.95067 0.48963 0.0
H1225 H 0.94112 0.06795 0.49223 0.0
H1226 H 0.98406 0.92709 0.43307 0.0
H1227 H 0.96247 0.02971 0.58657 0.0
H1228 H 0.9685 0.02548 0.46626 0.0
H1229 H 0.03723 0.98796 0.52345 0.0
C1230 C 0.041 0.95291 0.48494 0.0
C1231 C 0.02598 0.93521 0.45969 0.0
C1232 C 0.96711 0.02649 0.49263 0.0
C1233 C 0.99566 0.97832 0.49641 0.0
C1234 C 0.9517 0.05047 0.50736 0.0
C1235 C 0.94894 0.05107 0.54121 0.0
C1236 C 0.98039 0.00383 0.51213 0.0
C1237 C 0.96388 0.02913 0.56023 0.0
C1238 C 0.02561 0.97403 0.50406 0.0
C1239 C 0.99597 0.94003 0.45291 0.0
N1240 N 0.97917 0.00585 0.54526 0.0
N1241 N 0.98168 0.96165 0.47114 0.0
H1242 H 0.25833 0.81542 0.67041 0.0
H1243 H 0.15837 0.7832 0.78851 0.0
H1244 H 0.27542 0.7145 0.67213 0.0
H1245 H 0.17296 0.68339 0.76783 0.0
H1246 H 0.1849 0.79721 0.73931 0.0
H1247 H 0.21124 0.80515 0.69625 0.0
C1248 C 0.25185 0.79088 0.676 0.0
C1249 C 0.27105 0.7658 0.67016 0.0
C1250 C 0.18215 0.77213 0.7451 0.0
C1251 C 0.21766 0.75395 0.70157 0.0
C1252 C 0.16739 0.76433 0.77374 0.0
C1253 C 0.16501 0.73234 0.78315 0.0
C1254 C 0.19481 0.74758 0.72627 0.0
C1255 C 0.17556 0.70851 0.76225 0.0
C1256 C 0.22493 0.78504 0.69115 0.0
C1257 C 0.26144 0.7345 0.67706 0.0
N1258 N 0.19043 0.71663 0.73519 0.0
N1259 N 0.2356 0.72952 0.69321 0.0
H1260 H 0.48711 0.09841 0.95187 0.0
H1261 H 0.56226 0.98773 0.08024 0.0
H1262 H 0.43914 0.04383 0.02328 0.0
H1263 H 0.60921 0.03257 0.00166 0.0
H1264 H 0.52065 0.02199 0.0707 0.0
H1265 H 0.53378 0.08801 0.97999 0.0
C1266 C 0.48637 0.08417 0.97355 0.0
C1267 C 0.45927 0.07062 0.98437 0.0
C1268 C 0.54024 0.02501 0.05596 0.0
C1269 C 0.51283 0.05904 0.01713 0.0
C1270 C 0.56406 0.00547 0.06141 0.0
C1271 C 0.58877 0.00696 0.04113 0.0
C1272 C 0.54087 0.04572 0.02955 0.0
C1273 C 0.59023 0.03045 0.01737 0.0
C1274 C 0.51309 0.07858 0.98982 0.0
C1275 C 0.45957 0.05338 0.01322 0.0
N1276 N 0.56614 0.04852 0.01166 0.0
N1277 N 0.48607 0.04769 0.02842 0.0
H1278 H 0.36886 0.22386 0.2759 0.0
H1279 H 0.21564 0.25328 0.18694 0.0
H1280 H 0.33203 0.31654 0.26365 0.0
H1281 H 0.25408 0.1607 0.19437 0.0
H1282 H 0.26443 0.27894 0.20225 0.0
H1283 H 0.3356 0.20237 0.23125 0.0
C1284 C 0.35382 0.23959 0.26375 0.0
C1285 C 0.35106 0.2711 0.27512 0.0
C1286 C 0.26232 0.25299 0.20013 0.0
C1287 C 0.31365 0.24748 0.22448 0.0
C1288 C 0.23441 0.23851 0.19204 0.0
C1289 C 0.23084 0.20506 0.19145 0.0
C1290 C 0.28661 0.23366 0.20727 0.0
C1291 C 0.25591 0.18667 0.19626 0.0
C1292 C 0.33509 0.22758 0.23812 0.0
C1293 C 0.33325 0.29145 0.25703 0.0
N1294 N 0.28272 0.20119 0.20439 0.0
N1295 N 0.31448 0.27911 0.23324 0.0
H1296 H 0.48354 0.51108 0.11037 0.0
H1297 H 0.50161 0.44184 0.9371 0.0
H1298 H 0.44047 0.55497 0.02843 0.0
H1299 H 0.58154 0.46166 0.99592 0.0
H1300 H 0.47516 0.47809 0.97292 0.0
H1301 H 0.5183 0.48691 0.07227 0.0
C1302 C 0.48118 0.51503 0.08442 0.0
C1303 C 0.45823 0.53308 0.07194 0.0
C1304 C 0.49832 0.47384 0.97821 0.0
C1305 C 0.49667 0.50566 0.02932 0.0
C1306 C 0.5133 0.45344 0.9579 0.0
C1307 C 0.54307 0.44764 0.96506 0.0
C1308 C 0.51317 0.48755 0.00591 0.0
C1309 C 0.55793 0.46412 0.99124 0.0
C1310 C 0.50083 0.50143 0.06293 0.0
C1311 C 0.45667 0.53917 0.0385 0.0
N1312 N 0.54254 0.48285 0.01156 0.0
N1313 N 0.4752 0.52473 0.01805 0.0
H1314 H 0.78576 0.22783 0.16665 0.0
H1315 H 0.64675 0.28482 0.26382 0.0
H1316 H 0.7581 0.32549 0.17257 0.0
H1317 H 0.67333 0.18682 0.25704 0.0
H1318 H 0.67936 0.29803 0.21847 0.0
H1319 H 0.73687 0.20969 0.18699 0.0
C1320 C 0.76913 0.24526 0.17161 0.0
C1321 C 0.77601 0.2781 0.1693 0.0
C1322 C 0.67773 0.27349 0.22664 0.0
C1323 C 0.72054 0.25804 0.19198 0.0
C1324 C 0.65952 0.2662 0.25291 0.0
C1325 C 0.6586 0.23514 0.26508 0.0
C1326 C 0.69518 0.24951 0.21294 0.0
C1327 C 0.67431 0.21136 0.24899 0.0
C1328 C 0.74124 0.23505 0.18304 0.0
C1329 C 0.75374 0.29994 0.17514 0.0
N1330 N 0.69235 0.21911 0.22411 0.0
N1331 N 0.72716 0.28959 0.18674 0.0
H1332 H 0.09987 0.49175 0.48672 0.0
H1333 H 0.99654 0.60052 0.45377 0.0
H1334 H 0.07047 0.49578 0.58584 0.0
H1335 H 0.96575 0.58487 0.55098 0.0
H1336 H 0.04385 0.57944 0.46846 0.0
H1337 H 0.07206 0.5393 0.47521 0.0
C1338 C 0.08743 0.50271 0.50597 0.0
C1339 C 0.0859 0.48891 0.53662 0.0
C1340 C 0.02705 0.58026 0.48683 0.0
C1341 C 0.0546 0.54403 0.5245 0.0
C1342 C 0.99982 0.59277 0.47846 0.0
C1343 C 0.97664 0.59298 0.50077 0.0
C1344 C 0.03087 0.56686 0.51762 0.0
C1345 C 0.98271 0.58386 0.53272 0.0
C1346 C 0.07189 0.53043 0.49975 0.0
C1347 C 0.07107 0.50496 0.56143 0.0
N1348 N 0.00907 0.57029 0.54002 0.0
N1349 N 0.05555 0.53128 0.5547 0.0
H1350 H 0.75659 0.67102 0.29603 0.0
H1351 H 0.72879 0.85448 0.25873 0.0
H1352 H 0.81175 0.74628 0.34343 0.0
H1353 H 0.69815 0.77204 0.19983 0.0
H1354 H 0.75786 0.81851 0.29349 0.0
H1355 H 0.73006 0.71091 0.26641 0.0
C1356 C 0.76285 0.69622 0.3003 0.0
C1357 C 0.78688 0.70562 0.32099 0.0
C1358 C 0.74495 0.80859 0.27272 0.0
C1359 C 0.75656 0.75168 0.28748 0.0
C1360 C 0.72863 0.82899 0.25295 0.0
C1361 C 0.71058 0.81575 0.22726 0.0
C1362 C 0.74277 0.77526 0.26626 0.0
C1363 C 0.71119 0.7829 0.22009 0.0
C1364 C 0.74776 0.71906 0.28342 0.0
C1365 C 0.79361 0.73844 0.32686 0.0
N1366 N 0.72662 0.76379 0.23976 0.0
N1367 N 0.7787 0.76062 0.30963 0.0
H1368 H 0.77913 0.16345 0.72597 0.0
H1369 H 0.75211 0.3284 0.80266 0.0
H1370 H 0.84068 0.24394 0.71177 0.0
H1371 H 0.67833 0.26565 0.76893 0.0
H1372 H 0.78496 0.29971 0.7667 0.0
H1373 H 0.74012 0.20146 0.7359 0.0
C1374 C 0.78481 0.189 0.72668 0.0
C1375 C 0.81389 0.20065 0.7212 0.0
C1376 C 0.76145 0.29259 0.76665 0.0
C1377 C 0.77021 0.24348 0.73423 0.0
C1378 C 0.74294 0.3087 0.78731 0.0
C1379 C 0.71327 0.29782 0.78968 0.0
C1380 C 0.74987 0.26564 0.74867 0.0
C1381 C 0.70171 0.27321 0.76877 0.0
C1382 C 0.76264 0.21052 0.73216 0.0
C1383 C 0.8196 0.23392 0.71969 0.0
N1384 N 0.72032 0.25719 0.7495 0.0
N1385 N 0.79819 0.25431 0.7273 0.0
H1386 H 0.81419 0.85249 0.74121 0.0
H1387 H 0.73855 0.68834 0.68167 0.0
H1388 H 0.85969 0.76367 0.73641 0.0
H1389 H 0.69233 0.77634 0.69135 0.0
H1390 H 0.78607 0.71871 0.6849 0.0
H1391 H 0.77443 0.82904 0.70598 0.0
C1392 C 0.81615 0.8282 0.73188 0.0
C1393 C 0.83949 0.80942 0.74249 0.0
C1394 C 0.76563 0.73152 0.68638 0.0
C1395 C 0.79385 0.78222 0.70289 0.0
C1396 C 0.73853 0.71415 0.68522 0.0
C1397 C 0.71178 0.72983 0.68886 0.0
C1398 C 0.76595 0.76478 0.69201 0.0
C1399 C 0.71269 0.76335 0.6909 0.0
C1400 C 0.79339 0.81479 0.71184 0.0
C1401 C 0.84145 0.77844 0.72941 0.0
N1402 N 0.73951 0.77978 0.69336 0.0
N1403 N 0.81834 0.76535 0.71083 0.0
H1404 H 0.46887 0.53317 0.37311 0.0
H1405 H 0.51373 0.56108 0.56052 0.0
H1406 H 0.44056 0.47684 0.4548 0.0
H1407 H 0.57277 0.59613 0.48659 0.0
H1408 H 0.47726 0.54444 0.51863 0.0
H1409 H 0.50117 0.5672 0.41123 0.0
C1410 C 0.4695 0.5282 0.39894 0.0
C1411 C 0.4516 0.50327 0.41145 0.0
C1412 C 0.49801 0.55604 0.51129 0.0
C1413 C 0.48696 0.54125 0.45396 0.0
C1414 C 0.51881 0.56518 0.53517 0.0
C1415 C 0.5464 0.57823 0.52633 0.0
C1416 C 0.50523 0.55931 0.47838 0.0
C1417 C 0.55182 0.58478 0.49363 0.0
C1418 C 0.48753 0.54751 0.42045 0.0
C1419 C 0.45328 0.49672 0.44457 0.0
N1420 N 0.5315 0.57429 0.47026 0.0
N1421 N 0.4703 0.51591 0.4647 0.0
H1422 H 0.01634 0.50098 0.87493 0.0
H1423 H 0.94075 0.38991 0.97846 0.0
H1424 H 0.02967 0.55533 0.96513 0.0
H1425 H 0.99128 0.44369 0.05356 0.0
H1426 H 0.96081 0.42694 0.93753 0.0
H1427 H 0.99099 0.45758 0.90505 0.0
C1428 C 0.01322 0.50391 0.90093 0.0
C1429 C 0.02572 0.53087 0.91808 0.0
C1430 C 0.96786 0.43031 0.96283 0.0
C1431 C 0.99705 0.48243 0.95221 0.0
C1432 C 0.95647 0.40925 0.98606 0.0
C1433 C 0.96371 0.4149 0.01921 0.0
C1434 C 0.98657 0.45659 0.97342 0.0
C1435 C 0.98442 0.43947 0.02825 0.0
C1436 C 0.99884 0.47927 0.91808 0.0
C1437 C 0.02105 0.53429 0.95141 0.0
N1438 N 0.99459 0.45983 0.00555 0.0
N1439 N 0.00756 0.51005 0.96746 0.0
H1440 H 0.14208 0.01454 0.15671 0.0
H1441 H 0.07922 0.89131 0.28794 0.0
H1442 H 0.05305 0.02083 0.1924 0.0
H1443 H 0.17201 0.9213 0.28371 0.0
H1444 H 0.06743 0.93147 0.24644 0.0
H1445 H 0.15198 0.97336 0.19689 0.0
C1446 C 0.12484 0.0077 0.17359 0.0
C1447 C 0.09712 0.02197 0.17211 0.0
C1448 C 0.09035 0.9291 0.25457 0.0
C1449 C 0.10772 0.97355 0.21711 0.0
C1450 C 0.09704 0.90628 0.27818 0.0
C1451 C 0.12654 0.9035 0.28951 0.0
C1452 C 0.1135 0.94845 0.24168 0.0
C1453 C 0.14893 0.92311 0.27591 0.0
C1454 C 0.13035 0.98392 0.19622 0.0
C1455 C 0.0751 0.01129 0.19364 0.0
N1456 N 0.142 0.94456 0.25265 0.0
N1457 N 0.08081 0.9876 0.21521 0.0
H1458 H 0.31564 0.9438 0.54734 0.0
H1459 H 0.24727 0.7979 0.43674 0.0
H1460 H 0.35697 0.85266 0.53758 0.0
H1461 H 0.22072 0.89514 0.42273 0.0
H1462 H 0.28744 0.81806 0.47326 0.0
H1463 H 0.27991 0.92696 0.50327 0.0
C1464 C 0.31699 0.92007 0.53629 0.0
C1465 C 0.33883 0.89919 0.54717 0.0
C1466 C 0.27286 0.83511 0.46232 0.0
C1467 C 0.29826 0.88006 0.49597 0.0
C1468 C 0.24962 0.82357 0.44142 0.0
C1469 C 0.22967 0.84467 0.42708 0.0
C1470 C 0.27589 0.86801 0.47033 0.0
C1471 C 0.23485 0.87777 0.43381 0.0
C1472 C 0.29678 0.91066 0.51082 0.0
C1473 C 0.33991 0.86914 0.53108 0.0
N1474 N 0.25696 0.88835 0.45552 0.0
N1475 N 0.31987 0.86044 0.50663 0.0
H1476 H 0.33589 0.05207 0.85538 0.0
H1477 H 0.38579 0.00744 0.67118 0.0
H1478 H 0.31684 0.09732 0.76394 0.0
H1479 H 0.35205 0.90298 0.75657 0.0
H1480 H 0.35628 0.03785 0.7182 0.0
H1481 H 0.33662 0.99964 0.82488 0.0
C1482 C 0.33139 0.05116 0.8293 0.0
C1483 C 0.3281 0.07987 0.81217 0.0
C1484 C 0.35749 0.01223 0.7212 0.0
C1485 C 0.3281 0.02042 0.77764 0.0
C1486 C 0.37739 0.99304 0.69087 0.0
C1487 C 0.3828 0.95109 0.69101 0.0
C1488 C 0.33997 0.995 0.75581 0.0
C1489 C 0.35525 0.9273 0.7474 0.0
C1490 C 0.3314 0.02117 0.81199 0.0
C1491 C 0.32079 0.07669 0.77862 0.0
N1492 N 0.3402 0.95732 0.76627 0.0
N1493 N 0.3214 0.048 0.7628 0.0
H1494 H 0.24154 0.09854 0.90751 0.0
H1495 H 0.15208 0.14646 0.06426 0.0
H1496 H 0.27718 0.17518 0.97118 0.0
H1497 H 0.16357 0.04772 0.03438 0.0
H1498 H 0.19111 0.1631 0.02584 0.0
H1499 H 0.20422 0.08497 0.94849 0.0
C1500 C 0.24137 0.11253 0.9301 0.0
C1501 C 0.26251 0.1377 0.93628 0.0
C1502 C 0.18498 0.13783 0.02806 0.0
C1503 C 0.2195 0.12317 0.98258 0.0
C1504 C 0.16298 0.12829 0.05016 0.0
C1505 C 0.15473 0.09554 0.05326 0.0
C1506 C 0.19764 0.11461 0.00787 0.0
C1507 C 0.16903 0.07323 0.03329 0.0
C1508 C 0.22017 0.10484 0.95341 0.0
C1509 C 0.26134 0.15532 0.96581 0.0
N1510 N 0.18929 0.08319 0.01127 0.0
N1511 N 0.23998 0.14794 0.98785 0.0
H1512 H 0.18578 0.05119 0.22742 0.0
H1513 H 0.06296 0.96029 0.3337 0.0
H1514 H 0.09598 0.08262 0.23413 0.0
H1515 H 0.15648 0.95892 0.35931 0.0
H1516 H 0.07418 1.00074 0.29268 0.0
H1517 H 0.17511 0.01152 0.26983 0.0
C1518 C 0.16347 0.04883 0.23684 0.0
C1519 C 0.14139 0.06947 0.22631 0.0
C1520 C 0.09229 0.99187 0.30741 0.0
C1521 C 0.12936 0.02507 0.27577 0.0
C1522 C 0.08589 0.96874 0.33077 0.0
C1523 C 0.10883 0.95628 0.34985 0.0
C1524 C 0.12202 1.00206 0.30227 0.0
C1525 C 0.13817 0.96799 0.34508 0.0
C1526 C 0.15763 0.0268 0.26164 0.0
C1527 C 0.11334 0.06652 0.24073 0.0
N1528 N 0.14401 0.98991 0.32143 0.0
N1529 N 0.10809 0.04473 0.26445 0.0
H1530 H 0.26468 0.89053 0.5858 0.0
H1531 H 0.14731 0.79884 0.46495 0.0
H1532 H 0.28037 0.79562 0.54822 0.0
H1533 H 0.16393 0.90119 0.46095 0.0
H1534 H 0.19186 0.7953 0.5006 0.0
H1535 H 0.22256 0.8938 0.5464 0.0
C1536 C 0.25945 0.8706 0.56893 0.0
C1537 C 0.27661 0.84327 0.5693 0.0
C1538 C 0.18592 0.81847 0.49158 0.0
C1539 C 0.22749 0.8459 0.52585 0.0
C1540 C 0.16084 0.82041 0.47073 0.0
C1541 C 0.15246 0.85021 0.45899 0.0
C1542 C 0.20184 0.84674 0.50213 0.0
C1543 C 0.17019 0.87759 0.46848 0.0
C1544 C 0.23534 0.87234 0.5467 0.0
C1545 C 0.26829 0.81756 0.54783 0.0
N1546 N 0.19348 0.87534 0.49015 0.0
N1547 N 0.2441 0.8193 0.52731 0.0
H1548 H 0.40013 0.97624 0.85312 0.0
H1549 H 0.40761 0.88158 0.71887 0.0
H1550 H 0.40248 0.06552 0.80142 0.0
H1551 H 0.31431 0.92252 0.68151 0.0
H1552 H 0.4276 0.93457 0.7528 0.0
H1553 H 0.39629 0.94701 0.80234 0.0
C1554 C 0.40011 0.99006 0.83106 0.0
C1555 C 0.40033 0.02385 0.83222 0.0
C1556 C 0.40671 0.93521 0.73913 0.0
C1557 C 0.39582 0.98909 0.77204 0.0
C1558 C 0.39381 0.90223 0.71813 0.0
C1559 C 0.36069 0.89778 0.69732 0.0
C1560 C 0.38538 0.96832 0.74141 0.0
C1561 C 0.33544 0.92685 0.69445 0.0
C1562 C 0.39828 0.97297 0.8016 0.0
C1563 C 0.40133 0.03954 0.80201 0.0
N1564 N 0.3431 0.9604 0.7134 0.0
N1565 N 0.39849 0.02207 0.7731 0.0
H1566 H 0.30273 0.03836 0.95444 0.0
H1567 H 0.25693 0.15313 0.10424 0.0
H1568 H 0.34812 0.12929 0.97858 0.0
H1569 H 0.21359 0.0608 0.0825 0.0
H1570 H 0.28962 0.14542 0.05776 0.0
H1571 H 0.26802 0.04764 0.99861 0.0
C1572 C 0.30499 0.0607 0.96847 0.0
C1573 C 0.32833 0.08326 0.96219 0.0
C1574 C 0.27313 0.12668 0.06314 0.0
C1575 C 0.28907 0.09347 0.01425 0.0
C1576 C 0.25455 0.131 0.08985 0.0
C1577 C 0.23238 0.10761 0.09721 0.0
C1578 C 0.26983 0.09856 0.0435 0.0
C1579 C 0.23018 0.07956 0.07754 0.0
C1580 C 0.28534 0.06578 0.99409 0.0
C1581 C 0.33026 0.11145 0.98185 0.0
N1582 N 0.2486 0.07581 0.0517 0.0
N1583 N 0.31121 0.11556 0.00703 0.0
H1584 H 0.89864 0.26722 0.11941 0.0
H1585 H 0.04033 0.17722 0.19193 0.0
H1586 H 0.93343 0.28672 0.21711 0.0
H1587 H 0.9896 0.14612 0.1056 0.0
H1588 H 0.00468 0.22008 0.20082 0.0
H1589 H 0.93569 0.22645 0.1123 0.0
C1590 C 0.91452 0.26351 0.13915 0.0
C1591 C 0.91298 0.28086 0.16878 0.0
C1592 C 0.00134 0.20375 0.18002 0.0
C1593 C 0.9556 0.23342 0.16096 0.0
C1594 C 0.02176 0.17942 0.1749 0.0
C1595 C 0.01806 0.15814 0.14793 0.0
C1596 C 0.9774 0.2072 0.1576 0.0
C1597 C 0.99332 0.16182 0.12684 0.0
C1598 C 0.93548 0.2398 0.13525 0.0
C1599 C 0.93388 0.27419 0.19372 0.0
N1600 N 0.97426 0.18589 0.13193 0.0
N1601 N 0.95431 0.25116 0.18924 0.0
H1602 H 0.52647 0.33621 0.86643 0.0
H1603 H 0.40476 0.20217 0.92037 0.0
H1604 H 0.52561 0.29668 0.9629 0.0
H1605 H 0.42383 0.22177 0.81979 0.0
H1606 H 0.44616 0.23962 0.93743 0.0
H1607 H 0.48505 0.29852 0.85 0.0
C1608 C 0.5178 0.31951 0.88411 0.0
C1609 C 0.53016 0.31932 0.91594 0.0
C1610 C 0.44122 0.23566 0.91163 0.0
C1611 C 0.48211 0.27644 0.89743 0.0
C1612 C 0.41771 0.21403 0.90183 0.0
C1613 C 0.41056 0.20852 0.8685 0.0
C1614 C 0.4574 0.2526 0.88804 0.0
C1615 C 0.42824 0.22502 0.84575 0.0
C1616 C 0.494 0.29809 0.87475 0.0
C1617 C 0.51727 0.29753 0.93795 0.0
N1618 N 0.45044 0.24648 0.85592 0.0
N1619 N 0.4941 0.27705 0.9283 0.0
H1620 H 0.97909 0.65978 0.35367 0.0
H1621 H 0.1022 0.77585 0.44284 0.0
H1622 H 0.97147 0.68972 0.4542 0.0
H1623 H 0.07778 0.787 0.34161 0.0
H1624 H 0.0591 0.73809 0.4482 0.0
H1625 H 0.0211 0.69949 0.34848 0.0
C1626 C 0.98602 0.6751 0.37441 0.0
C1627 C 0.97119 0.67265 0.40398 0.0
C1628 C 0.06308 0.74905 0.4249 0.0
C1629 C 0.02009 0.71611 0.39903 0.0
C1630 C 0.08729 0.77105 0.42203 0.0
C1631 C 0.09293 0.78544 0.39205 0.0
C1632 C 0.04538 0.74012 0.39715 0.0
C1633 C 0.07358 0.77728 0.36544 0.0
C1634 C 0.01007 0.69741 0.3716 0.0
C1635 C 0.98172 0.69189 0.43066 0.0
N1636 N 0.05119 0.75452 0.36836 0.0
N1637 N 0.0057 0.71257 0.42768 0.0
H1638 H 0.97408 0.27447 0.08178 0.0
H1639 H 0.09562 0.22464 0.21086 0.0
H1640 H 0.009 0.33891 0.15839 0.0
H1641 H 0.09998 0.18853 0.11146 0.0
H1642 H 0.05888 0.26176 0.19375 0.0
H1643 H 0.01437 0.23772 0.09395 0.0
C1644 C 0.99007 0.28069 0.10136 0.0
C1645 C 0.988 0.3095 0.11951 0.0
C1646 C 0.06778 0.24574 0.1756 0.0
C1647 C 0.03397 0.26783 0.13333 0.0
C1648 C 0.08882 0.22413 0.18532 0.0
C1649 C 0.10085 0.20248 0.16276 0.0
C1650 C 0.05762 0.24564 0.14309 0.0
C1651 C 0.09096 0.20403 0.12996 0.0
C1652 C 0.01321 0.25996 0.10795 0.0
C1653 C 0.0096 0.31679 0.1441 0.0
N1654 N 0.06947 0.22482 0.12118 0.0
N1655 N 0.03139 0.29594 0.15056 0.0
H1656 H 0.59462 0.72433 0.62351 0.0
H1657 H 0.45338 0.8172 0.68947 0.0
H1658 H 0.55891 0.7111 0.71927 0.0
H1659 H 0.49651 0.83905 0.59944 0.0
H1660 H 0.49053 0.77657 0.70017 0.0
H1661 H 0.55656 0.76357 0.61254 0.0
C1662 C 0.57842 0.72914 0.64197 0.0
C1663 C 0.57986 0.71408 0.67224 0.0
C1664 C 0.49185 0.7902 0.67802 0.0
C1665 C 0.53658 0.75964 0.66017 0.0
C1666 C 0.47066 0.81332 0.67199 0.0
C1667 C 0.472 0.83131 0.64358 0.0
C1668 C 0.51403 0.78456 0.65505 0.0
C1669 C 0.49482 0.82557 0.62167 0.0
C1670 C 0.55693 0.75191 0.63588 0.0
C1671 C 0.55861 0.72194 0.69551 0.0
N1672 N 0.51476 0.80257 0.6277 0.0
N1673 N 0.53797 0.74409 0.68902 0.0
H1674 H 0.88498 0.69837 0.39583 0.0
H1675 H 0.02078 0.82067 0.35328 0.0
H1676 H 0.92862 0.69368 0.3034 0.0
H1677 H 0.99861 0.79409 0.45128 0.0
H1678 H 0.98143 0.7821 0.33215 0.0
H1679 H 0.92087 0.74117 0.4141 0.0
C1680 C 0.90254 0.70578 0.37958 0.0
C1681 C 0.90458 0.69107 0.34858 0.0
C1682 C 0.98517 0.78499 0.35827 0.0
C1683 C 0.94489 0.74188 0.36876 0.0
C1684 C 0.00771 0.80692 0.37039 0.0
C1685 C 0.01399 0.81 0.40419 0.0
C1686 C 0.96782 0.76705 0.38011 0.0
C1687 C 0.99542 0.79219 0.42505 0.0
C1688 C 0.92274 0.73068 0.38987 0.0
C1689 C 0.92678 0.7034 0.32794 0.0
N1690 N 0.97328 0.77178 0.41272 0.0
N1691 N 0.94607 0.72797 0.33839 0.0
H1692 H 0.46697 0.1641 0.83764 0.0
H1693 H 0.6008 0.26222 0.93387 0.0
H1694 H 0.48447 0.15687 0.94091 0.0
H1695 H 0.57077 0.28649 0.83733 0.0
H1696 H 0.55867 0.22307 0.93679 0.0
H1697 H 0.50658 0.20699 0.8357 0.0
C1698 C 0.47915 0.17162 0.85983 0.0
C1699 C 0.47254 0.15714 0.88947 0.0
C1700 C 0.56091 0.23734 0.91516 0.0
C1701 C 0.51756 0.20594 0.88764 0.0
C1702 C 0.5846 0.26019 0.91382 0.0
C1703 C 0.58873 0.27841 0.88578 0.0
C1704 C 0.54158 0.23192 0.88786 0.0
C1705 C 0.56782 0.27373 0.85985 0.0
C1706 C 0.50172 0.196 0.85878 0.0
C1707 C 0.489 0.16749 0.91756 0.0
N1708 N 0.5455 0.25059 0.86126 0.0
N1709 N 0.51064 0.19122 0.916 0.0
H1710 H 0.93775 0.09159 0.75155 0.0
H1711 H 0.82337 0.98161 0.85067 0.0
H1712 H 0.84328 0.08749 0.73001 0.0
H1713 H 0.9166 0.96216 0.84526 0.0
H1714 H 0.82983 0.0216 0.8078 0.0
H1715 H 0.93078 0.04535 0.78742 0.0
C1716 C 0.91568 0.08043 0.7538 0.0
C1717 C 0.89121 0.09267 0.73704 0.0
C1718 C 0.84876 0.00817 0.81559 0.0
C1719 C 0.88272 0.04106 0.77941 0.0
C1720 C 0.84494 0.98502 0.83968 0.0
C1721 C 0.86921 0.96764 0.85068 0.0
C1722 C 0.87729 0.01484 0.80318 0.0
C1723 C 0.89704 0.97411 0.83664 0.0
C1724 C 0.91163 0.05425 0.77446 0.0
C1725 C 0.86286 0.07815 0.74179 0.0
N1726 N 0.90041 0.99742 0.81405 0.0
N1727 N 0.85933 0.05344 0.76279 0.0
H1728 H 0.66701 0.16973 0.49774 0.0
H1729 H 0.81189 0.10743 0.59169 0.0
H1730 H 0.70933 0.08033 0.47905 0.0
H1731 H 0.79546 0.20867 0.59311 0.0
H1732 H 0.76839 0.09743 0.55637 0.0
H1733 H 0.70887 0.18568 0.53639 0.0
C1734 C 0.68512 0.15372 0.50126 0.0
C1735 C 0.68451 0.12366 0.48472 0.0
C1736 C 0.77416 0.12198 0.56411 0.0
C1737 C 0.73151 0.14102 0.52994 0.0
C1738 C 0.79939 0.12779 0.58423 0.0
C1739 C 0.80823 0.15913 0.59474 0.0
C1740 C 0.75705 0.14758 0.55392 0.0
C1741 C 0.79004 0.1842 0.58494 0.0
C1742 C 0.7088 0.16265 0.52364 0.0
C1743 C 0.70841 0.10367 0.49104 0.0
N1744 N 0.76541 0.17796 0.56489 0.0
N1745 N 0.73038 0.11252 0.5131 0.0
H1746 H 0.58026 0.91153 0.24804 0.0
H1747 H 0.68045 0.03254 0.35942 0.0
H1748 H 0.67315 0.93038 0.22863 0.0
H1749 H 0.58605 0.04367 0.3461 0.0
H1750 H 0.67897 0.9947 0.31232 0.0
H1751 H 0.58164 0.95908 0.2848 0.0
C1752 C 0.60073 0.92617 0.25091 0.0
C1753 C 0.62643 0.91744 0.23468 0.0
C1754 C 0.65868 0.00592 0.31929 0.0
C1755 C 0.62869 0.97081 0.27812 0.0
C1756 C 0.65961 0.02773 0.34595 0.0
C1757 C 0.6335 0.04194 0.35609 0.0
C1758 C 0.6312 0.99714 0.30359 0.0
C1759 C 0.60684 0.03393 0.33853 0.0
C1760 C 0.6016 0.95317 0.27206 0.0
C1761 C 0.65264 0.93671 0.24006 0.0
N1762 N 0.60626 0.01166 0.31363 0.0
N1763 N 0.65326 0.96207 0.26172 0.0
H1764 H 0.83313 0.83425 0.97725 0.0
H1765 H 0.69566 0.89687 0.08043 0.0
H1766 H 0.7995 0.92994 0.98195 0.0
H1767 H 0.71902 0.79785 0.08648 0.0
H1768 H 0.73415 0.90592 0.04158 0.0
H1769 H 0.79208 0.81647 0.01357 0.0
C1770 C 0.81728 0.85138 0.98539 0.0
C1771 C 0.8202 0.88374 0.97597 0.0
C1772 C 0.73083 0.88186 0.05062 0.0
C1773 C 0.77385 0.86382 0.01795 0.0
C1774 C 0.70838 0.87663 0.0729 0.0
C1775 C 0.70347 0.84643 0.08657 0.0
C1776 C 0.74895 0.85674 0.04104 0.0
C1777 C 0.72174 0.82151 0.07629 0.0
C1778 C 0.79398 0.84128 0.0063 0.0
C1779 C 0.79906 0.9048 0.98809 0.0
N1780 N 0.74373 0.82717 0.05411 0.0
N1781 N 0.77744 0.89455 0.00814 0.0
H1782 H 0.81609 0.04094 0.62587 0.0
H1783 H 0.81098 0.94353 0.76218 0.0
H1784 H 0.90705 0.06545 0.65549 0.0
H1785 H 0.90686 0.94707 0.75809 0.0
H1786 H 0.80932 0.9859 0.72206 0.0
H1787 H 0.81208 0.00445 0.67143 0.0
C1788 C 0.83493 0.03947 0.64273 0.0
C1789 C 0.86168 0.05702 0.63722 0.0
C1790 C 0.8308 0.97732 0.72942 0.0
C1791 C 0.85769 0.01415 0.6896 0.0
C1792 C 0.83174 0.95329 0.75279 0.0
C1793 C 0.8591 0.9418 0.76379 0.0
C1794 C 0.85744 0.9897 0.71609 0.0
C1795 C 0.88527 0.95539 0.75063 0.0
C1796 C 0.83272 0.0184 0.66887 0.0
C1797 C 0.88571 0.05316 0.65927 0.0
N1798 N 0.88379 0.97848 0.72751 0.0
N1799 N 0.8833 0.03182 0.68404 0.0
H1800 H 0.82675 0.18308 0.52253 0.0
H1801 H 0.69541 0.13201 0.39089 0.0
H1802 H 0.80965 0.08785 0.48034 0.0
H1803 H 0.69873 0.22285 0.44377 0.0
H1804 H 0.741 0.11786 0.42019 0.0
H1805 H 0.78408 0.20145 0.48939 0.0
C1806 C 0.81437 0.16613 0.50641 0.0
C1807 C 0.82165 0.13365 0.50524 0.0
C1808 C 0.73167 0.14087 0.42555 0.0
C1809 C 0.77343 0.15452 0.46676 0.0
C1810 C 0.70521 0.14863 0.40924 0.0
C1811 C 0.69275 0.17842 0.41515 0.0
C1812 C 0.74585 0.16291 0.44819 0.0
C1813 C 0.70726 0.19941 0.43862 0.0
C1814 C 0.79008 0.17661 0.48742 0.0
C1815 C 0.80491 0.11298 0.48318 0.0
N1816 N 0.73297 0.19135 0.45413 0.0
N1817 N 0.78187 0.1237 0.46518 0.0
H1818 H 0.67579 0.97945 0.16491 0.0
H1819 H 0.58651 0.09293 0.28702 0.0
H1820 H 0.57991 0.97873 0.169 0.0
H1821 H 0.68158 0.10278 0.27511 0.0
H1822 H 0.58438 0.04745 0.24799 0.0
H1823 H 0.67904 0.02015 0.20935 0.0
C1824 C 0.65541 0.9873 0.17556 0.0
C1825 C 0.62751 0.97541 0.16307 0.0
C1826 C 0.60578 0.05938 0.25399 0.0
C1827 C 0.63108 0.02262 0.21396 0.0
C1828 C 0.60705 0.08532 0.27654 0.0
C1829 C 0.63429 0.10187 0.28459 0.0
C1830 C 0.63199 0.04937 0.2394 0.0
C1831 C 0.66006 0.09083 0.26982 0.0
C1832 C 0.65729 0.01087 0.20075 0.0
C1833 C 0.60193 0.98701 0.17775 0.0
N1834 N 0.65829 0.06539 0.24807 0.0
N1835 N 0.60433 0.00986 0.20219 0.0
H1836 H 0.66775 0.85474 0.9884 0.0
H1837 H 0.80414 0.91929 0.88021 0.0
H1838 H 0.69847 0.95403 0.99441 0.0
H1839 H 0.78892 0.82075 0.90829 0.0
H1840 H 0.76312 0.93447 0.91618 0.0
H1841 H 0.70919 0.84325 0.95268 0.0
C1842 C 0.6835 0.87404 0.98247 0.0
C1843 C 0.68015 0.90515 0.99507 0.0
C1844 C 0.76895 0.90957 0.91427 0.0
C1845 C 0.72713 0.89259 0.95282 0.0
C1846 C 0.79261 0.90096 0.89406 0.0
C1847 C 0.80029 0.86864 0.89096 0.0
C1848 C 0.75272 0.88563 0.93116 0.0
C1849 C 0.78399 0.84595 0.90933 0.0
C1850 C 0.70706 0.86759 0.96186 0.0
C1851 C 0.70079 0.92952 0.98586 0.0
N1852 N 0.76114 0.8548 0.92816 0.0
N1853 N 0.72332 0.9228 0.96519 0.0
H1854 H 0.96916 0.85103 0.87395 0.0
H1855 H 0.09329 0.74099 0.95284 0.0
H1856 H 0.96349 0.82256 0.97405 0.0
H1857 H 0.07412 0.74691 0.84982 0.0
H1858 H 0.04965 0.77377 0.96375 0.0
H1859 H 0.01242 0.81823 0.86755 0.0
C1860 C 0.97681 0.83749 0.89457 0.0
C1861 C 0.9619 0.83879 0.92425 0.0
C1862 C 0.05486 0.76758 0.9388 0.0
C1863 C 0.01227 0.80092 0.91715 0.0
C1864 C 0.07959 0.74867 0.93259 0.0
C1865 C 0.08678 0.74031 0.90036 0.0
C1866 C 0.03801 0.77934 0.91253 0.0
C1867 C 0.06893 0.75193 0.87504 0.0
C1868 C 0.00172 0.81881 0.89094 0.0
C1869 C 0.9738 0.82168 0.95047 0.0
N1870 N 0.04581 0.771 0.88162 0.0
N1871 N 0.9981 0.80322 0.94626 0.0
H1872 H 0.44822 0.67756 0.1683 0.0
H1873 H 0.59342 0.77584 0.10731 0.0
H1874 H 0.47932 0.66427 0.0704 0.0
H1875 H 0.54399 0.80026 0.19259 0.0
H1876 H 0.55428 0.73406 0.09249 0.0
H1877 H 0.48622 0.72034 0.17781 0.0
C1878 C 0.46291 0.68377 0.14862 0.0
C1879 C 0.46011 0.66742 0.11832 0.0
C1880 C 0.55198 0.74885 0.11425 0.0
C1881 C 0.50459 0.71669 0.12931 0.0
C1882 C 0.57406 0.77305 0.12242 0.0
C1883 C 0.57197 0.79188 0.15115 0.0
C1884 C 0.52789 0.74328 0.13515 0.0
C1885 C 0.54665 0.78651 0.1702 0.0
C1886 C 0.48482 0.70825 0.15413 0.0
C1887 C 0.4803 0.67648 0.09401 0.0
N1888 N 0.52599 0.76273 0.16207 0.0
N1889 N 0.50173 0.70042 0.10003 0.0
H1890 H 0.07184 0.33804 0.65086 0.0
H1891 H 0.92202 0.22903 0.61205 0.0
H1892 H 0.01965 0.33737 0.56077 0.0
H1893 H 0.98264 0.20773 0.69109 0.0
H1894 H 0.95694 0.27185 0.59557 0.0
H1895 H 0.03816 0.29392 0.66991 0.0
C1896 C 0.05344 0.32898 0.63522 0.0
C1897 C 0.04931 0.34129 0.6038 0.0
C1898 C 0.96288 0.25761 0.61634 0.0
C1899 C 0.01035 0.29161 0.62566 0.0
C1900 C 0.94308 0.23267 0.62536 0.0
C1901 C 0.9496 0.21409 0.65251 0.0
C1902 C 0.98943 0.2645 0.63474 0.0
C1903 C 0.97691 0.22102 0.66959 0.0
C1904 C 0.03425 0.30378 0.64604 0.0
C1905 C 0.02451 0.32879 0.58495 0.0
N1906 N 0.99572 0.2457 0.66056 0.0
N1907 N 0.0063 0.30495 0.5961 0.0
H1908 H 0.03762 0.68153 0.82862 0.0
H1909 H 0.9056 0.77867 0.90593 0.0
H1910 H 0.01566 0.67647 0.9303 0.0
H1911 H 0.9448 0.80344 0.81444 0.0
H1912 H 0.94463 0.74017 0.91495 0.0
H1913 H 0.00218 0.72421 0.82198 0.0
C1914 C 0.02553 0.68951 0.84964 0.0
C1915 C 0.02978 0.67533 0.88012 0.0
C1916 C 0.94499 0.75431 0.8931 0.0
C1917 C 0.98877 0.72418 0.87254 0.0
C1918 C 0.9229 0.77658 0.88812 0.0
C1919 C 0.92238 0.79502 0.85982 0.0
C1920 C 0.9663 0.74952 0.8691 0.0
C1921 C 0.94486 0.79052 0.83707 0.0
C1922 C 0.0052 0.71387 0.84578 0.0
C1923 C 0.01326 0.68669 0.90637 0.0
N1924 N 0.96563 0.76799 0.842 0.0
N1925 N 0.99346 0.71025 0.90195 0.0
H1926 H 0.40288 0.25274 0.4524 0.0
H1927 H 0.54673 0.17726 0.37609 0.0
H1928 H 0.43578 0.27516 0.3575 0.0
H1929 H 0.53773 0.18293 0.48049 0.0
H1930 H 0.50267 0.20886 0.36952 0.0
H1931 H 0.44939 0.22486 0.46446 0.0
C1932 C 0.42026 0.25265 0.43453 0.0
C1933 C 0.41606 0.26761 0.40441 0.0
C1934 C 0.51066 0.20395 0.39396 0.0
C1935 C 0.46836 0.23417 0.41719 0.0
C1936 C 0.53602 0.18591 0.39778 0.0
C1937 C 0.54671 0.17809 0.42896 0.0
C1938 C 0.49559 0.21479 0.42145 0.0
C1939 C 0.53078 0.18897 0.45599 0.0
C1940 C 0.44665 0.23652 0.44129 0.0
C1941 C 0.4387 0.26544 0.3816 0.0
N1942 N 0.50609 0.20682 0.45166 0.0
N1943 N 0.46347 0.24878 0.38824 0.0
H1944 H 0.95743 0.21658 0.51934 0.0
H1945 H 0.09895 0.24165 0.64097 0.0
H1946 H 0.97729 0.16271 0.60505 0.0
H1947 H 0.09009 0.30517 0.55975 0.0
H1948 H 0.05736 0.20959 0.62079 0.0
H1949 H 0.00598 0.24723 0.52762 0.0
C1950 C 0.97193 0.21123 0.53983 0.0
C1951 C 0.96293 0.18761 0.56212 0.0
C1952 C 0.0641 0.23039 0.60692 0.0
C1953 C 0.01869 0.22151 0.57094 0.0
C1954 C 0.08847 0.24911 0.6185 0.0
C1955 C 0.09807 0.27748 0.60298 0.0
C1956 C 0.0479 0.23951 0.57931 0.0
C1957 C 0.08325 0.28422 0.57327 0.0
C1958 C 0.99966 0.22858 0.54441 0.0
C1959 C 0.98282 0.18116 0.58771 0.0
N1960 N 0.0584 0.26581 0.56276 0.0
N1961 N 0.00937 0.19786 0.59132 0.0
H1962 H 0.43833 0.73132 0.0574 0.0
H1963 H 0.55846 0.87133 0.12 0.0
H1964 H 0.44384 0.7775 0.15302 0.0
H1965 H 0.56462 0.8254 0.02537 0.0
H1966 H 0.5149 0.83634 0.13057 0.0
H1967 H 0.48293 0.76497 0.04249 0.0
C1968 C 0.44847 0.74836 0.07511 0.0
C1969 C 0.43692 0.75084 0.10669 0.0
C1970 C 0.52599 0.83335 0.10761 0.0
C1971 C 0.48749 0.78983 0.08969 0.0
C1972 C 0.55137 0.85305 0.10192 0.0
C1973 C 0.56578 0.85098 0.07208 0.0
C1974 C 0.51494 0.81071 0.08362 0.0
C1975 C 0.55456 0.82745 0.04902 0.0
C1976 C 0.47395 0.7676 0.06663 0.0
C1977 C 0.45131 0.77383 0.12839 0.0
N1978 N 0.52992 0.80829 0.05521 0.0
N1979 N 0.47527 0.79207 0.11949 0.0
H1980 H 0.67304 0.42612 0.79904 0.0
H1981 H 0.56034 0.51571 0.68307 0.0
H1982 H 0.58502 0.3856 0.77566 0.0
H1983 H 0.65059 0.50288 0.69849 0.0
H1984 H 0.56713 0.47417 0.72365 0.0
H1985 H 0.66551 0.46774 0.75863 0.0
C1986 C 0.65194 0.4263 0.78564 0.0
C1987 C 0.62944 0.40271 0.79094 0.0
C1988 C 0.58654 0.48543 0.71274 0.0
C1989 C 0.62051 0.45053 0.745 0.0
C1990 C 0.5828 0.50957 0.69003 0.0
C1991 C 0.6073 0.52401 0.67436 0.0
C1992 C 0.61522 0.47615 0.72098 0.0
C1993 C 0.63652 0.51543 0.68212 0.0
C1994 C 0.64779 0.44983 0.76238 0.0
C1995 C 0.60276 0.4036 0.7725 0.0
N1996 N 0.63968 0.49253 0.70631 0.0
N1997 N 0.59883 0.42743 0.75063 0.0
H1998 H 0.85219 0.32283 0.03892 0.0
H1999 H 0.73212 0.37635 0.90402 0.0
H2000 H 0.83664 0.42144 0.01573 0.0
H2001 H 0.73252 0.28061 0.94201 0.0
H2002 H 0.77506 0.39171 0.93985 0.0
H2003 H 0.81243 0.30548 0.99932 0.0
C2004 C 0.84051 0.34085 0.02563 0.0
C2005 C 0.84788 0.37373 0.03105 0.0
C2006 C 0.76574 0.36733 0.94039 0.0
C2007 C 0.80275 0.35391 0.98498 0.0
C2008 C 0.74101 0.35862 0.9201 0.0
C2009 C 0.72795 0.3274 0.92065 0.0
C2010 C 0.77781 0.34465 0.96135 0.0
C2011 C 0.74133 0.30516 0.94121 0.0
C2012 C 0.81791 0.3309 0.00286 0.0
C2013 C 0.83197 0.39585 0.01268 0.0
N2014 N 0.76529 0.31425 0.96086 0.0
N2015 N 0.81038 0.38556 0.99056 0.0
H2016 H 0.85709 0.57271 0.24077 0.0
H2017 H 0.9135 0.41461 0.22967 0.0
H2018 H 0.82726 0.52407 0.3269 0.0
H2019 H 0.85415 0.4458 0.1483 0.0
H2020 H 0.91941 0.42156 0.27229 0.0
H2021 H 0.8619 0.52177 0.21355 0.0
C2022 C 0.85144 0.55132 0.25427 0.0
C2023 C 0.84279 0.55324 0.287 0.0
C2024 C 0.90592 0.42499 0.2466 0.0
C2025 C 0.84825 0.4932 0.25465 0.0
C2026 C 0.91462 0.40868 0.20705 0.0
C2027 C 0.89423 0.41881 0.17367 0.0
C2028 C 0.85922 0.46243 0.23787 0.0
C2029 C 0.86425 0.44267 0.1722 0.0
C2030 C 0.85374 0.52191 0.23822 0.0
C2031 C 0.83501 0.52397 0.3021 0.0
N2032 N 0.84982 0.4612 0.20078 0.0
N2033 N 0.8383 0.49506 0.28598 0.0
H2034 H 0.73493 0.63308 0.39894 0.0
H2035 H 0.69289 0.54116 0.56163 0.0
H2036 H 0.79483 0.5686 0.44466 0.0
H2037 H 0.65137 0.62743 0.53164 0.0
H2038 H 0.72894 0.54794 0.51792 0.0
H2039 H 0.70144 0.62715 0.44487 0.0
C2040 C 0.74083 0.61727 0.4185 0.0
C2041 C 0.76778 0.60138 0.41811 0.0
C2042 C 0.71222 0.56564 0.52119 0.0
C2043 C 0.72946 0.5945 0.47094 0.0
C2044 C 0.69192 0.56204 0.54641 0.0
C2045 C 0.66952 0.5842 0.55083 0.0
C2046 C 0.70971 0.59117 0.49961 0.0
C2047 C 0.66873 0.61027 0.52974 0.0
C2048 C 0.72184 0.61418 0.4449 0.0
C2049 C 0.77442 0.58151 0.44425 0.0
N2050 N 0.68825 0.61282 0.50487 0.0
N2051 N 0.75531 0.57844 0.46952 0.0
H2052 H 0.57198 0.45757 0.82635 0.0
H2053 H 0.68224 0.57723 0.73377 0.0
H2054 H 0.66143 0.47982 0.86285 0.0
H2055 H 0.59252 0.56058 0.75135 0.0
H2056 H 0.67635 0.53548 0.77455 0.0
H2057 H 0.57798 0.50005 0.78622 0.0
C2058 C 0.593 0.4713 0.82569 0.0
C2059 C 0.61635 0.46502 0.84773 0.0
C2060 C 0.65674 0.54655 0.76481 0.0
C2061 C 0.6237 0.51308 0.80115 0.0
C2062 C 0.65994 0.56992 0.74098 0.0
C2063 C 0.63527 0.58603 0.7287 0.0
C2064 C 0.62836 0.53783 0.77572 0.0
C2065 C 0.60632 0.5777 0.73892 0.0
C2066 C 0.59634 0.49566 0.80293 0.0
C2067 C 0.64297 0.4838 0.84615 0.0
N2068 N 0.60362 0.55269 0.76108 0.0
N2069 N 0.64612 0.50664 0.82289 0.0
H2070 H 0.78739 0.4172 0.07437 0.0
H2071 H 0.66045 0.31358 0.97402 0.0
H2072 H 0.77699 0.31408 0.07696 0.0
H2073 H 0.6849 0.41085 0.94889 0.0
H2074 H 0.70304 0.31393 0.01224 0.0
H2075 H 0.74906 0.41696 0.02986 0.0
C2076 C 0.77723 0.39459 0.06532 0.0
C2077 C 0.78555 0.36557 0.07883 0.0
C2078 C 0.69955 0.33506 0.99795 0.0
C2079 C 0.74158 0.36504 0.02886 0.0
C2080 C 0.67559 0.33456 0.97554 0.0
C2081 C 0.66947 0.36191 0.95757 0.0
C2082 C 0.7175 0.36331 0.00299 0.0
C2083 C 0.68931 0.38889 0.96145 0.0
C2084 C 0.75537 0.39441 0.04008 0.0
C2085 C 0.77142 0.33692 0.06682 0.0
N2086 N 0.71205 0.38918 0.98423 0.0
N2087 N 0.75017 0.33737 0.04269 0.0
H2088 H 0.914 0.57158 0.33459 0.0
H2089 H 0.84233 0.39298 0.27215 0.0
H2090 H 0.89063 0.4877 0.39014 0.0
H2091 H 0.9115 0.47207 0.19064 0.0
H2092 H 0.86597 0.43599 0.31395 0.0
H2093 H 0.91431 0.53662 0.28475 0.0
C2094 C 0.90884 0.54607 0.33643 0.0
C2095 C 0.90153 0.53294 0.36684 0.0
C2096 C 0.87257 0.43913 0.28899 0.0
C2097 C 0.90291 0.49281 0.31022 0.0
C2098 C 0.8567 0.41184 0.26257 0.0
C2099 C 0.86361 0.41294 0.22177 0.0
C2100 C 0.89684 0.4708 0.28112 0.0
C2101 C 0.9005 0.46298 0.21232 0.0
C2102 C 0.9097 0.52604 0.30809 0.0
C2103 C 0.89588 0.49949 0.36758 0.0
N2104 N 0.90842 0.48043 0.24633 0.0
N2105 N 0.89653 0.48102 0.34002 0.0
H2106 H 0.83173 0.54577 0.51494 0.0
H2107 H 0.70808 0.66751 0.5687 0.0
H2108 H 0.83343 0.64318 0.48094 0.0
H2109 H 0.73442 0.58866 0.62746 0.0
H2110 H 0.74872 0.65647 0.53119 0.0
H2111 H 0.79065 0.55811 0.55012 0.0
C2112 C 0.82343 0.56979 0.51455 0.0
C2113 C 0.8366 0.5935 0.49479 0.0
C2114 C 0.74553 0.64151 0.55221 0.0
C2115 C 0.78874 0.60774 0.53562 0.0
C2116 C 0.72214 0.64754 0.57339 0.0
C2117 C 0.71746 0.6285 0.60085 0.0
C2118 C 0.76406 0.61577 0.55808 0.0
C2119 C 0.73688 0.60354 0.60629 0.0
C2120 C 0.79995 0.57683 0.53499 0.0
C2121 C 0.82429 0.62408 0.49566 0.0
N2122 N 0.759 0.59766 0.58495 0.0
N2123 N 0.80106 0.63027 0.51562 0.0
H2124 H 0.52059 0.64025 0.68546 0.0
H2125 H 0.41557 0.77147 0.60558 0.0
H2126 H 0.53643 0.67976 0.59101 0.0
H2127 H 0.41463 0.74649 0.70722 0.0
H2128 H 0.45789 0.73644 0.59817 0.0
H2129 H 0.47963 0.67704 0.69256 0.0
C2130 C 0.51572 0.65706 0.66647 0.0
C2131 C 0.53254 0.65772 0.63811 0.0
C2132 C 0.44829 0.73864 0.62205 0.0
C2133 C 0.48476 0.69905 0.64526 0.0
C2134 C 0.42412 0.75875 0.62632 0.0
C2135 C 0.41117 0.76219 0.65708 0.0
C2136 C 0.4594 0.72129 0.64856 0.0
C2137 C 0.42353 0.74487 0.68298 0.0
C2138 C 0.49219 0.67792 0.67035 0.0
C2139 C 0.52455 0.67918 0.61368 0.0
N2140 N 0.44656 0.7252 0.67807 0.0
N2141 N 0.50127 0.69886 0.61773 0.0
H2142 H 0.42299 0.63514 0.20854 0.0
H2143 H 0.32074 0.51336 0.30769 0.0
H2144 H 0.33186 0.61349 0.17751 0.0
H2145 H 0.41563 0.50421 0.30184 0.0
H2146 H 0.32291 0.55222 0.26303 0.0
H2147 H 0.42011 0.58979 0.24564 0.0
C2148 C 0.40256 0.62036 0.20897 0.0
C2149 C 0.37791 0.62772 0.1891 0.0
C2150 C 0.34317 0.54136 0.27124 0.0
C2151 C 0.37382 0.57663 0.23333 0.0
C2152 C 0.34189 0.51896 0.2965 0.0
C2153 C 0.3679 0.50468 0.30785 0.0
C2154 C 0.37088 0.55073 0.25821 0.0
C2155 C 0.39489 0.5138 0.29322 0.0
C2156 C 0.40083 0.5946 0.23041 0.0
C2157 C 0.35168 0.60822 0.19164 0.0
N2158 N 0.39575 0.53651 0.26972 0.0
N2159 N 0.35016 0.58398 0.21366 0.0
H2160 H 0.26573 0.67784 0.08351 0.0
H2161 H 0.21088 0.60534 0.93083 0.0
H2162 H 0.28032 0.71446 0.9923 0.0
H2163 H 0.13843 0.6677 0.9632 0.0
H2164 H 0.24944 0.59982 0.93701 0.0
H2165 H 0.22278 0.66375 0.04729 0.0
C2166 C 0.26613 0.68583 0.05853 0.0
C2167 C 0.29219 0.70134 0.04691 0.0
C2168 C 0.22642 0.61393 0.94128 0.0
C2169 C 0.24226 0.68514 0.00488 0.0
C2170 C 0.19041 0.60308 0.92439 0.0
C2171 C 0.16082 0.62453 0.93448 0.0
C2172 C 0.22121 0.6661 0.98002 0.0
C2173 C 0.16016 0.65809 0.95967 0.0
C2174 C 0.24129 0.67805 0.038 0.0
C2175 C 0.29265 0.7124 0.01469 0.0
N2176 N 0.18737 0.67551 0.97917 0.0
N2177 N 0.26735 0.70429 0.99471 0.0
H2178 H 0.16108 0.51886 0.83498 0.0
H2179 H 0.08069 0.39298 0.7071 0.0
H2180 H 0.06714 0.5201 0.81144 0.0
H2181 H 0.17521 0.41559 0.70854 0.0
H2182 H 0.07455 0.43713 0.74721 0.0
H2183 H 0.16654 0.47876 0.79083 0.0
C2184 C 0.14172 0.51105 0.82011 0.0
C2185 C 0.11379 0.52343 0.82629 0.0
C2186 C 0.09659 0.43265 0.73846 0.0
C2187 C 0.1195 0.47637 0.77668 0.0
C2188 C 0.10002 0.40766 0.71539 0.0
C2189 C 0.12836 0.40137 0.70367 0.0
C2190 C 0.12184 0.45063 0.75085 0.0
C2191 C 0.15285 0.42033 0.71614 0.0
C2192 C 0.14476 0.48801 0.79507 0.0
C2193 C 0.08922 0.51178 0.8069 0.0
N2194 N 0.14909 0.44374 0.73922 0.0
N2195 N 0.09258 0.48879 0.78319 0.0
H2196 H 0.24724 0.3131 0.55576 0.0
H2197 H 0.29085 0.44974 0.42927 0.0
H2198 H 0.21646 0.40969 0.55915 0.0
H2199 H 0.3492 0.37142 0.44356 0.0
H2200 H 0.26043 0.43045 0.47346 0.0
H2201 H 0.28285 0.32958 0.51342 0.0
C2202 C 0.24789 0.33769 0.54769 0.0
C2203 C 0.22809 0.35978 0.56061 0.0
C2204 C 0.27967 0.41711 0.46691 0.0
C2205 C 0.26878 0.37873 0.51209 0.0
C2206 C 0.29695 0.42791 0.44116 0.0
C2207 C 0.32275 0.41221 0.43216 0.0
C2208 C 0.2874 0.38969 0.48396 0.0
C2209 C 0.32932 0.3841 0.44908 0.0
C2210 C 0.26836 0.34711 0.52364 0.0
C2211 C 0.23058 0.39148 0.54958 0.0
N2212 N 0.31177 0.3737 0.47411 0.0
N2213 N 0.2501 0.39977 0.52597 0.0
H2214 H 0.39907 0.40086 0.29692 0.0
H2215 H 0.32028 0.51021 0.16475 0.0
H2216 H 0.30352 0.40456 0.2878 0.0
H2217 H 0.41428 0.51616 0.1888 0.0
H2218 H 0.31271 0.47188 0.20906 0.0
H2219 H 0.40437 0.44245 0.25649 0.0
C2220 C 0.37914 0.41113 0.2871 0.0
C2221 C 0.35083 0.4002 0.29693 0.0
C2222 C 0.33493 0.48184 0.20489 0.0
C2223 C 0.35666 0.44716 0.24894 0.0
C2224 C 0.33919 0.50392 0.17986 0.0
C2225 C 0.36782 0.51706 0.17384 0.0
C2226 C 0.35965 0.47201 0.22327 0.0
C2227 C 0.39175 0.50731 0.19328 0.0
C2228 C 0.38217 0.43461 0.2635 0.0
C2229 C 0.32578 0.41292 0.28154 0.0
N2230 N 0.38718 0.48517 0.21677 0.0
N2231 N 0.32925 0.43584 0.25839 0.0
H2232 H 0.2916 0.58583 0.08728 0.0
H2233 H 0.25336 0.6814 0.91049 0.0
H2234 H 0.35557 0.63054 0.02414 0.0
H2235 H 0.17464 0.61124 0.98988 0.0
H2236 H 0.29069 0.65647 0.95405 0.0
H2237 H 0.25194 0.59646 0.04784 0.0
C2238 C 0.29703 0.59908 0.06559 0.0
C2239 C 0.32662 0.60857 0.05959 0.0
C2240 C 0.26726 0.65006 0.95656 0.0
C2241 C 0.28164 0.61916 0.013 0.0
C2242 C 0.24384 0.66616 0.92871 0.0
C2243 C 0.20586 0.65871 0.92986 0.0
C2244 C 0.25778 0.6259 0.98866 0.0
C2245 C 0.19525 0.62141 0.97979 0.0
C2246 C 0.27454 0.60439 0.04254 0.0
C2247 C 0.33279 0.62401 0.03019 0.0
N2248 N 0.22531 0.61399 0.99753 0.0
N2249 N 0.31046 0.62897 0.00799 0.0
H2250 H 0.16851 0.47689 0.6668 0.0
H2251 H 0.09148 0.59969 0.79025 0.0
H2252 H 0.07352 0.48643 0.67198 0.0
H2253 H 0.18676 0.59498 0.78264 0.0
H2254 H 0.08482 0.55811 0.74725 0.0
H2255 H 0.17597 0.51909 0.70945 0.0
C2256 C 0.14919 0.48762 0.67709 0.0
C2257 C 0.12029 0.47759 0.66601 0.0
C2258 C 0.10724 0.56594 0.75503 0.0
C2259 C 0.12872 0.52661 0.7147 0.0
C2260 C 0.11107 0.58958 0.77987 0.0
C2261 C 0.13976 0.60062 0.79057 0.0
C2262 C 0.13226 0.55253 0.7409 0.0
C2263 C 0.16423 0.58701 0.77549 0.0
C2264 C 0.15349 0.51195 0.70132 0.0
C2265 C 0.09619 0.493 0.6799 0.0
N2266 N 0.15994 0.56359 0.7517 0.0
N2267 N 0.10093 0.51649 0.70345 0.0
H2268 H 0.17257 0.42027 0.49359 0.0
H2269 H 0.27576 0.27716 0.43949 0.0
H2270 H 0.1584 0.32336 0.52598 0.0
H2271 H 0.27701 0.3686 0.39223 0.0
H2272 H 0.2334 0.29348 0.47149 0.0
H2273 H 0.21073 0.40191 0.45653 0.0
C2274 C 0.17796 0.39517 0.49333 0.0
C2275 C 0.16304 0.37351 0.51376 0.0
C2276 C 0.24279 0.30998 0.45405 0.0
C2277 C 0.20681 0.35212 0.47109 0.0
C2278 C 0.26722 0.30079 0.43589 0.0
C2279 C 0.28063 0.32184 0.41361 0.0
C2280 C 0.23139 0.34057 0.4501 0.0
C2281 C 0.26805 0.35189 0.40971 0.0
C2282 C 0.19955 0.38462 0.47189 0.0
C2283 C 0.17012 0.34105 0.51151 0.0
N2284 N 0.2443 0.36035 0.42779 0.0
N2285 N 0.19175 0.33142 0.49096 0.0
H2286 H 0.44679 0.35125 0.32898 0.0
H2287 H 0.5817 0.26819 0.42156 0.0
H2288 H 0.46751 0.36792 0.43141 0.0
H2289 H 0.55064 0.24084 0.32426 0.0
H2290 H 0.53973 0.3038 0.42647 0.0
H2291 H 0.48499 0.31122 0.32701 0.0
C2292 C 0.45916 0.3463 0.3512 0.0
C2293 C 0.45379 0.36312 0.38044 0.0
C2294 C 0.54178 0.28968 0.40421 0.0
C2295 C 0.49785 0.31684 0.37833 0.0
C2296 C 0.56556 0.26908 0.40154 0.0
C2297 C 0.56927 0.2509 0.37275 0.0
C2298 C 0.52193 0.29294 0.37753 0.0
C2299 C 0.54821 0.25375 0.34719 0.0
C2300 C 0.48113 0.32345 0.35 0.0
C2301 C 0.47073 0.35556 0.40835 0.0
N2302 N 0.52568 0.27454 0.35006 0.0
N2303 N 0.49197 0.33308 0.40659 0.0
loop_
_geom_bond_atom_site_label_1
_geom_bond_atom_site_label_2
_geom_bond_distance
_geom_bond_site_symmetry_2
_ccdc_geom_bond_type
Mn0 O5 2.095 . S
Mn0 O15 2.162 . S
Mn0 O16 2.297 . S
Mn0 O24 2.385 . S
Mn0 O25 2.209 . S
Mn0 O26 2.094 . S
Mn1 O6 2.121 . S
Mn1 N8 2.257 1_545 S
Mn1 N17 2.282 . S
Mn1 O25 2.215 . S
Mn1 O27 2.117 . S
C2 O24 1.234 . S
C2 O25 1.283 . S
C3 O15 1.281 . S
C3 O16 1.236 . S
C4 O26 1.240 . S
C4 O27 1.264 . S
O5 Mn0 2.095 . S
O5 C14 1.250 . S
O6 Mn1 2.121 . S
O6 C14 1.258 . S
C7 N8 1.326 . S
C7 C11 1.460 . S
C7 H13 0.929 . S
N8 Mn1 2.257 1_565 S
N8 C7 1.326 . S
N8 C12 1.362 . S
C9 C10 1.258 . S
C9 C12 1.431 . S
C9 C29 1.449 . S
C10 C9 1.258 . S
C10 C11 1.477 . S
C10 H30 0.931 . S
C11 C7 1.460 . S
C11 C10 1.477 . S
C11 H31 0.930 . S
C12 N8 1.362 . S
C12 C9 1.431 . S
C12 C22 1.476 . S
H13 C7 0.929 . S
C14 O5 1.250 . S
C14 O6 1.258 . S
O15 Mn0 2.162 . S
O15 C3 1.281 . S
O16 Mn0 2.297 . S
O16 C3 1.236 . S
N17 Mn1 2.282 . S
N17 C18 1.328 1_554 S
N17 C22 1.318 1_545 S
C18 N17 1.328 1_556 S
C18 C19 1.457 . S
C18 H23 0.929 . S
C19 C18 1.457 . S
C19 C20 1.291 1_545 S
C19 H32 0.931 . S
C20 C19 1.291 1_565 S
C20 C21 1.373 . S
C20 H33 0.929 . S
C21 C20 1.373 . S
C21 C22 1.396 1_556 S
C21 C28 1.403 . S
C22 C12 1.476 . S
C22 N17 1.318 1_565 S
C22 C21 1.396 1_554 S
H23 C18 0.929 . S
O24 Mn0 2.385 . S
O24 C2 1.234 . S
O25 Mn0 2.209 . S
O25 Mn1 2.215 . S
O25 C2 1.283 . S
O26 Mn0 2.094 . S
O26 C4 1.240 . S
O27 Mn1 2.117 . S
O27 C4 1.264 . S
C28 C21 1.403 . S
C28 C29 1.399 1_556 S
C28 H34 0.929 . S
C29 C9 1.449 . S
C29 C28 1.399 1_554 S
C29 H35 0.930 . S
H30 C10 0.931 . S
H31 C11 0.930 . S
H32 C19 0.931 . S
H33 C20 0.929 . S
H34 C28 0.929 . S
H35 C29 0.930 . S
Mn36 O41 2.095 . S
Mn36 O51 2.162 . S
Mn36 O52 2.297 . S
Mn36 O60 2.385 . S
Mn36 O61 2.209 . S
Mn36 O62 2.094 . S
Mn37 O42 2.121 . S
Mn37 N44 2.257 . S
Mn37 N53 2.282 . S
Mn37 O61 2.215 . S
Mn37 O63 2.117 . S
C38 O60 1.234 . S
C38 O61 1.283 . S
C39 O51 1.281 . S
C39 O52 1.236 . S
C40 O62 1.240 . S
C40 O63 1.264 . S
O41 Mn36 2.095 . S
O41 C50 1.250 . S
O42 Mn37 2.121 . S
O42 C50 1.258 . S
C43 N44 1.326 . S
C43 C47 1.460 . S
C43 H49 0.929 . S
N44 Mn37 2.257 . S
N44 C43 1.326 . S
N44 C48 1.362 . S
C45 C46 1.258 . S
C45 C48 1.431 . S
C45 C65 1.449 . S
C46 C45 1.258 . S
C46 C47 1.477 . S
C46 H66 0.931 . S
C47 C43 1.460 . S
C47 C46 1.477 . S
C47 H67 0.930 . S
C48 N44 1.362 . S
C48 C45 1.431 . S
C48 C58 1.476 . S
H49 C43 0.929 . S
C50 O41 1.250 . S
C50 O42 1.258 . S
O51 Mn36 2.162 . S
O51 C39 1.281 . S
O52 Mn36 2.297 . S
O52 C39 1.236 . S
N53 Mn37 2.282 . S
N53 C54 1.328 . S
N53 C58 1.318 . S
C54 N53 1.328 . S
C54 C55 1.457 . S
C54 H59 0.929 . S
C55 C54 1.457 . S
C55 C56 1.291 . S
C55 H68 0.931 . S
C56 C55 1.291 . S
C56 C57 1.373 . S
C56 H69 0.929 . S
C57 C56 1.373 . S
C57 C58 1.396 . S
C57 C64 1.403 . S
C58 C48 1.476 . S
C58 N53 1.318 . S
C58 C57 1.396 . S
H59 C54 0.929 . S
O60 Mn36 2.385 . S
O60 C38 1.234 . S
O61 Mn36 2.209 . S
O61 Mn37 2.215 . S
O61 C38 1.283 . S
O62 Mn36 2.094 . S
O62 C40 1.240 . S
O63 Mn37 2.117 . S
O63 C40 1.264 . S
C64 C57 1.403 . S
C64 C65 1.399 . S
C64 H70 0.929 . S
C65 C45 1.449 . S
C65 C64 1.399 . S
C65 H71 0.930 . S
H66 C46 0.931 . S
H67 C47 0.930 . S
H68 C55 0.931 . S
H69 C56 0.929 . S
H70 C64 0.929 . S
H71 C65 0.930 . S
Mn72 O77 2.095 . S
Mn72 O87 2.162 . S
Mn72 O88 2.297 . S
Mn72 O96 2.385 . S
Mn72 O97 2.209 . S
Mn72 O98 2.094 . S
Mn73 O78 2.121 . S
Mn73 N80 2.257 . S
Mn73 N89 2.282 . S
Mn73 O97 2.215 . S
Mn73 O99 2.117 . S
C74 O96 1.234 . S
C74 O97 1.283 . S
C75 O87 1.281 . S
C75 O88 1.236 . S
C76 O98 1.240 . S
C76 O99 1.264 . S
O77 Mn72 2.095 . S
O77 C86 1.250 . S
O78 Mn73 2.121 . S
O78 C86 1.258 . S
C79 N80 1.326 1_545 S
C79 C83 1.460 . S
C79 H85 0.929 1_545 S
N80 Mn73 2.257 . S
N80 C79 1.326 1_565 S
N80 C84 1.362 1_565 S
C81 C82 1.258 . S
C81 C84 1.431 . S
C81 C101 1.449 . S
C82 C81 1.258 . S
C82 C83 1.477 . S
C82 H102 0.931 . S
C83 C79 1.460 . S
C83 C82 1.477 . S
C83 H103 0.930 . S
C84 N80 1.362 1_545 S
C84 C81 1.431 . S
C84 C94 1.476 1_545 S
H85 C79 0.929 1_565 S
C86 O77 1.250 . S
C86 O78 1.258 . S
O87 Mn72 2.162 . S
O87 C75 1.281 . S
O88 Mn72 2.297 . S
O88 C75 1.236 . S
N89 Mn73 2.282 . S
N89 C90 1.328 . S
N89 C94 1.318 . S
C90 N89 1.328 . S
C90 C91 1.457 . S
C90 H95 0.929 . S
C91 C90 1.457 . S
C91 C92 1.291 . S
C91 H104 0.931 . S
C92 C91 1.291 . S
C92 C93 1.373 1_565 S
C92 H105 0.929 . S
C93 C92 1.373 1_545 S
C93 C94 1.396 1_545 S
C93 C100 1.403 . S
C94 C84 1.476 1_565 S
C94 N89 1.318 . S
C94 C93 1.396 1_565 S
H95 C90 0.929 . S
O96 Mn72 2.385 . S
O96 C74 1.234 . S
O97 Mn72 2.209 . S
O97 Mn73 2.215 . S
O97 C74 1.283 . S
O98 Mn72 2.094 . S
O98 C76 1.240 . S
O99 Mn73 2.117 . S
O99 C76 1.264 . S
C100 C93 1.403 . S
C100 C101 1.399 . S
C100 H106 0.929 . S
C101 C81 1.449 . S
C101 C100 1.399 . S
C101 H107 0.930 . S
H102 C82 0.931 . S
H103 C83 0.930 . S
H104 C91 0.931 . S
H105 C92 0.929 . S
H106 C100 0.929 . S
H107 C101 0.930 . S
Mn108 O113 2.095 . S
Mn108 O123 2.162 . S
Mn108 O124 2.297 . S
Mn108 O132 2.385 . S
Mn108 O133 2.209 . S
Mn108 O134 2.094 . S
Mn109 O114 2.121 . S
Mn109 N116 2.257 . S
Mn109 N125 2.282 . S
Mn109 O133 2.215 . S
Mn109 O135 2.117 . S
C110 O132 1.234 . S
C110 O133 1.283 . S
C111 O123 1.281 . S
C111 O124 1.236 . S
C112 O134 1.240 . S
C112 O135 1.264 . S
O113 Mn108 2.095 . S
O113 C122 1.250 . S
O114 Mn109 2.121 . S
O114 C122 1.258 . S
C115 N116 1.326 . S
C115 C119 1.460 . S
C115 H121 0.929 . S
N116 Mn109 2.257 . S
N116 C115 1.326 . S
N116 C120 1.362 . S
C117 C118 1.258 . S
C117 C120 1.431 . S
C117 C137 1.449 . S
C118 C117 1.258 . S
C118 C119 1.477 . S
C118 H138 0.931 . S
C119 C115 1.460 . S
C119 C118 1.477 . S
C119 H139 0.930 . S
C120 N116 1.362 . S
C120 C117 1.431 . S
C120 C130 1.476 . S
H121 C115 0.929 . S
C122 O113 1.250 . S
C122 O114 1.258 . S
O123 Mn108 2.162 . S
O123 C111 1.281 . S
O124 Mn108 2.297 . S
O124 C111 1.236 . S
N125 Mn109 2.282 . S
N125 C126 1.328 . S
N125 C130 1.318 . S
C126 N125 1.328 . S
C126 C127 1.457 . S
C126 H131 0.929 . S
C127 C126 1.457 . S
C127 C128 1.291 . S
C127 H140 0.931 . S
C128 C127 1.291 . S
C128 C129 1.373 . S
C128 H141 0.929 . S
C129 C128 1.373 . S
C129 C130 1.396 . S
C129 C136 1.403 . S
C130 C120 1.476 . S
C130 N125 1.318 . S
C130 C129 1.396 . S
H131 C126 0.929 . S
O132 Mn108 2.385 . S
O132 C110 1.234 . S
O133 Mn108 2.209 . S
O133 Mn109 2.215 . S
O133 C110 1.283 . S
O134 Mn108 2.094 . S
O134 C112 1.240 . S
O135 Mn109 2.117 . S
O135 C112 1.264 . S
C136 C129 1.403 . S
C136 C137 1.399 . S
C136 H142 0.929 . S
C137 C117 1.449 . S
C137 C136 1.399 . S
C137 H143 0.930 . S
H138 C118 0.931 . S
H139 C119 0.930 . S
H140 C127 0.931 . S
H141 C128 0.929 . S
H142 C136 0.929 . S
H143 C137 0.930 . S
Mn144 O149 2.095 . S
Mn144 O159 2.162 . S
Mn144 O160 2.297 . S
Mn144 O168 2.385 . S
Mn144 O169 2.209 . S
Mn144 O170 2.094 . S
Mn145 O150 2.121 . S
Mn145 N152 2.257 . S
Mn145 N161 2.282 . S
Mn145 O169 2.215 . S
Mn145 O171 2.117 . S
C146 O168 1.234 . S
C146 O169 1.283 . S
C147 O159 1.281 . S
C147 O160 1.236 . S
C148 O170 1.240 . S
C148 O171 1.264 . S
O149 Mn144 2.095 . S
O149 C158 1.250 . S
O150 Mn145 2.121 . S
O150 C158 1.258 . S
C151 N152 1.326 . S
C151 C155 1.460 . S
C151 H157 0.929 . S
N152 Mn145 2.257 . S
N152 C151 1.326 . S
N152 C156 1.362 . S
C153 C154 1.258 . S
C153 C156 1.431 . S
C153 C173 1.449 . S
C154 C153 1.258 . S
C154 C155 1.477 . S
C154 H174 0.931 . S
C155 C151 1.460 . S
C155 C154 1.477 . S
C155 H175 0.930 . S
C156 N152 1.362 . S
C156 C153 1.431 . S
C156 C166 1.476 . S
H157 C151 0.929 . S
C158 O149 1.250 . S
C158 O150 1.258 . S
O159 Mn144 2.162 . S
O159 C147 1.281 . S
O160 Mn144 2.297 . S
O160 C147 1.236 . S
N161 Mn145 2.282 . S
N161 C162 1.328 1_455 S
N161 C166 1.318 . S
C162 N161 1.328 1_655 S
C162 C163 1.457 . S
C162 H167 0.929 . S
C163 C162 1.457 . S
C163 C164 1.291 . S
C163 H176 0.931 . S
C164 C163 1.291 . S
C164 C165 1.373 . S
C164 H177 0.929 . S
C165 C164 1.373 . S
C165 C166 1.396 1_655 S
C165 C172 1.403 . S
C166 C156 1.476 . S
C166 N161 1.318 . S
C166 C165 1.396 1_455 S
H167 C162 0.929 . S
O168 Mn144 2.385 . S
O168 C146 1.234 . S
O169 Mn144 2.209 . S
O169 Mn145 2.215 . S
O169 C146 1.283 . S
O170 Mn144 2.094 . S
O170 C148 1.240 . S
O171 Mn145 2.117 . S
O171 C148 1.264 . S
C172 C165 1.403 . S
C172 C173 1.399 1_655 S
C172 H178 0.929 . S
C173 C153 1.449 . S
C173 C172 1.399 1_455 S
C173 H179 0.930 . S
H174 C154 0.931 . S
H175 C155 0.930 . S
H176 C163 0.931 . S
H177 C164 0.929 . S
H178 C172 0.929 . S
H179 C173 0.930 . S
Mn180 O185 2.095 . S
Mn180 O195 2.162 . S
Mn180 O196 2.297 . S
Mn180 O204 2.385 . S
Mn180 O205 2.209 . S
Mn180 O206 2.094 . S
Mn181 O186 2.121 . S
Mn181 N188 2.257 . S
Mn181 N197 2.282 . S
Mn181 O205 2.215 . S
Mn181 O207 2.117 . S
C182 O204 1.234 . S
C182 O205 1.283 . S
C183 O195 1.281 . S
C183 O196 1.236 . S
C184 O206 1.240 . S
C184 O207 1.264 . S
O185 Mn180 2.095 . S
O185 C194 1.250 . S
O186 Mn181 2.121 . S
O186 C194 1.258 . S
C187 N188 1.326 . S
C187 C191 1.460 . S
C187 H193 0.929 . S
N188 Mn181 2.257 . S
N188 C187 1.326 . S
N188 C192 1.362 . S
C189 C190 1.258 . S
C189 C192 1.431 . S
C189 C209 1.449 . S
C190 C189 1.258 . S
C190 C191 1.477 . S
C190 H210 0.931 . S
C191 C187 1.460 . S
C191 C190 1.477 . S
C191 H211 0.930 . S
C192 N188 1.362 . S
C192 C189 1.431 . S
C192 C202 1.476 . S
H193 C187 0.929 . S
C194 O185 1.250 . S
C194 O186 1.258 . S
O195 Mn180 2.162 . S
O195 C183 1.281 . S
O196 Mn180 2.297 . S
O196 C183 1.236 . S
N197 Mn181 2.282 . S
N197 C198 1.328 . S
N197 C202 1.318 . S
C198 N197 1.328 . S
C198 C199 1.457 . S
C198 H203 0.929 . S
C199 C198 1.457 . S
C199 C200 1.291 . S
C199 H212 0.931 . S
C200 C199 1.291 . S
C200 C201 1.373 . S
C200 H213 0.929 . S
C201 C200 1.373 . S
C201 C202 1.396 . S
C201 C208 1.403 . S
C202 C192 1.476 . S
C202 N197 1.318 . S
C202 C201 1.396 . S
H203 C198 0.929 . S
O204 Mn180 2.385 . S
O204 C182 1.234 . S
O205 Mn180 2.209 . S
O205 Mn181 2.215 . S
O205 C182 1.283 . S
O206 Mn180 2.094 . S
O206 C184 1.240 . S
O207 Mn181 2.117 . S
O207 C184 1.264 . S
C208 C201 1.403 . S
C208 C209 1.399 . S
C208 H214 0.929 . S
C209 C189 1.449 . S
C209 C208 1.399 . S
C209 H215 0.930 . S
H210 C190 0.931 . S
H211 C191 0.930 . S
H212 C199 0.931 . S
H213 C200 0.929 . S
H214 C208 0.929 . S
H215 C209 0.930 . S
Mn216 O221 2.095 . S
Mn216 O231 2.162 . S
Mn216 O232 2.297 . S
Mn216 O240 2.385 . S
Mn216 O241 2.209 . S
Mn216 O242 2.094 . S
Mn217 O222 2.121 . S
Mn217 N224 2.257 1_545 S
Mn217 N233 2.282 . S
Mn217 O241 2.215 . S
Mn217 O243 2.117 . S
C218 O240 1.234 . S
C218 O241 1.283 . S
C219 O231 1.281 . S
C219 O232 1.236 . S
C220 O242 1.240 . S
C220 O243 1.264 . S
O221 Mn216 2.095 . S
O221 C230 1.250 . S
O222 Mn217 2.121 . S
O222 C230 1.258 . S
C223 N224 1.326 . S
C223 C227 1.460 . S
C223 H229 0.929 . S
N224 Mn217 2.257 1_565 S
N224 C223 1.326 . S
N224 C228 1.362 . S
C225 C226 1.258 . S
C225 C228 1.431 . S
C225 C245 1.449 . S
C226 C225 1.258 . S
C226 C227 1.477 . S
C226 H246 0.931 . S
C227 C223 1.460 . S
C227 C226 1.477 . S
C227 H247 0.930 . S
C228 N224 1.362 . S
C228 C225 1.431 . S
C228 C238 1.476 . S
H229 C223 0.929 . S
C230 O221 1.250 . S
C230 O222 1.258 . S
O231 Mn216 2.162 . S
O231 C219 1.281 . S
O232 Mn216 2.297 . S
O232 C219 1.236 . S
N233 Mn217 2.282 . S
N233 C234 1.305 1_556 S
N233 C238 1.318 1_545 S
C234 N233 1.305 1_554 S
C234 C235 1.483 . S
C234 H239 0.927 1_554 S
C235 C234 1.483 . S
C235 C236 1.320 . S
C235 H248 0.931 . S
C236 C235 1.320 . S
C236 C237 1.355 1_545 S
C236 H249 0.919 1_545 S
C237 C236 1.355 1_565 S
C237 C238 1.396 1_554 S
C237 C244 1.403 . S
C238 C228 1.476 . S
C238 N233 1.318 1_565 S
C238 C237 1.396 1_556 S
H239 C234 0.927 1_556 S
O240 Mn216 2.385 . S
O240 C218 1.234 . S
O241 Mn216 2.209 . S
O241 Mn217 2.215 . S
O241 C218 1.283 . S
O242 Mn216 2.094 . S
O242 C220 1.240 . S
O243 Mn217 2.117 . S
O243 C220 1.264 . S
C244 C237 1.403 . S
C244 C245 1.399 1_554 S
C244 H250 0.929 . S
C245 C225 1.449 . S
C245 C244 1.399 1_556 S
C245 H251 0.930 . S
H246 C226 0.931 . S
H247 C227 0.930 . S
H248 C235 0.931 . S
H249 C236 0.919 1_565 S
H250 C244 0.929 . S
H251 C245 0.930 . S
Mn252 O257 2.095 . S
Mn252 O267 2.162 . S
Mn252 O268 2.297 . S
Mn252 O276 2.385 . S
Mn252 O277 2.209 . S
Mn252 O278 2.094 . S
Mn253 O258 2.121 . S
Mn253 N260 2.257 . S
Mn253 N269 2.282 . S
Mn253 O277 2.215 . S
Mn253 O279 2.117 . S
C254 O276 1.234 . S
C254 O277 1.283 . S
C255 O267 1.281 . S
C255 O268 1.236 . S
C256 O278 1.240 . S
C256 O279 1.264 . S
O257 Mn252 2.095 . S
O257 C266 1.250 . S
O258 Mn253 2.121 . S
O258 C266 1.258 . S
C259 N260 1.326 . S
C259 C263 1.460 . S
C259 H265 0.929 . S
N260 Mn253 2.257 . S
N260 C259 1.326 . S
N260 C264 1.362 . S
C261 C262 1.258 . S
C261 C264 1.431 . S
C261 C281 1.449 . S
C262 C261 1.258 . S
C262 C263 1.477 . S
C262 H282 0.931 . S
C263 C259 1.460 . S
C263 C262 1.477 . S
C263 H283 0.930 . S
C264 N260 1.362 . S
C264 C261 1.431 . S
C264 C274 1.476 . S
H265 C259 0.929 . S
C266 O257 1.250 . S
C266 O258 1.258 . S
O267 Mn252 2.162 . S
O267 C255 1.281 . S
O268 Mn252 2.297 . S
O268 C255 1.236 . S
N269 Mn253 2.282 . S
N269 C270 1.328 . S
N269 C274 1.318 . S
C270 N269 1.328 . S
C270 C271 1.457 . S
C270 H275 0.929 . S
C271 C270 1.457 . S
C271 C272 1.291 . S
C271 H284 0.931 . S
C272 C271 1.291 . S
C272 C273 1.373 . S
C272 H285 0.929 . S
C273 C272 1.373 . S
C273 C274 1.396 . S
C273 C280 1.403 . S
C274 C264 1.476 . S
C274 N269 1.318 . S
C274 C273 1.396 . S
H275 C270 0.929 . S
O276 Mn252 2.385 . S
O276 C254 1.234 . S
O277 Mn252 2.209 . S
O277 Mn253 2.215 . S
O277 C254 1.283 . S
O278 Mn252 2.094 . S
O278 C256 1.240 . S
O279 Mn253 2.117 . S
O279 C256 1.264 . S
C280 C273 1.403 . S
C280 C281 1.399 . S
C280 H286 0.929 . S
C281 C261 1.449 . S
C281 C280 1.399 . S
C281 H287 0.930 . S
H282 C262 0.931 . S
H283 C263 0.930 . S
H284 C271 0.931 . S
H285 C272 0.929 . S
H286 C280 0.929 . S
H287 C281 0.930 . S
Mn288 O293 2.095 . S
Mn288 O303 2.162 . S
Mn288 O304 2.297 . S
Mn288 O312 2.385 . S
Mn288 O313 2.209 . S
Mn288 O314 2.094 . S
Mn289 O294 2.121 . S
Mn289 N296 2.257 1_556 S
Mn289 N305 2.282 . S
Mn289 O313 2.215 . S
Mn289 O315 2.117 . S
C290 O312 1.234 . S
C290 O313 1.283 . S
C291 O303 1.281 . S
C291 O304 1.236 . S
C292 O314 1.240 . S
C292 O315 1.264 . S
O293 Mn288 2.095 . S
O293 C302 1.250 . S
O294 Mn289 2.121 . S
O294 C302 1.258 . S
C295 N296 1.326 . S
C295 C299 1.460 . S
C295 H301 0.929 . S
N296 Mn289 2.257 1_554 S
N296 C295 1.326 . S
N296 C300 1.362 . S
C297 C298 1.258 . S
C297 C300 1.431 . S
C297 C317 1.449 . S
C298 C297 1.258 . S
C298 C299 1.477 . S
C298 H318 0.931 . S
C299 C295 1.460 . S
C299 C298 1.477 . S
C299 H319 0.930 . S
C300 N296 1.362 . S
C300 C297 1.431 . S
C300 C310 1.476 . S
H301 C295 0.929 . S
C302 O293 1.250 . S
C302 O294 1.258 . S
O303 Mn288 2.162 . S
O303 C291 1.281 . S
O304 Mn288 2.297 . S
O304 C291 1.236 . S
N305 Mn289 2.282 . S
N305 C306 1.328 . S
N305 C310 1.318 1_556 S
C306 N305 1.328 . S
C306 C307 1.457 . S
C306 H311 0.929 . S
C307 C306 1.457 . S
C307 C308 1.291 . S
C307 H320 0.931 . S
C308 C307 1.291 . S
C308 C309 1.373 1_556 S
C308 H321 0.930 . S
C309 C308 1.373 1_554 S
C309 C310 1.396 . S
C309 C316 1.403 . S
C310 C300 1.476 . S
C310 N305 1.318 1_554 S
C310 C309 1.396 . S
H311 C306 0.929 . S
O312 Mn288 2.385 . S
O312 C290 1.234 . S
O313 Mn288 2.209 . S
O313 Mn289 2.215 . S
O313 C290 1.283 . S
O314 Mn288 2.094 . S
O314 C292 1.240 . S
O315 Mn289 2.117 . S
O315 C292 1.264 . S
C316 C309 1.403 . S
C316 C317 1.399 . S
C316 H322 0.929 . S
C317 C297 1.449 . S
C317 C316 1.399 . S
C317 H323 0.930 . S
H318 C298 0.931 . S
H319 C299 0.930 . S
H320 C307 0.931 . S
H321 C308 0.930 . S
H322 C316 0.929 . S
H323 C317 0.930 . S
Mn324 O329 2.095 . S
Mn324 O339 2.162 . S
Mn324 O340 2.297 . S
Mn324 O348 2.385 . S
Mn324 O349 2.209 . S
Mn324 O350 2.094 . S
Mn325 O330 2.121 . S
Mn325 N332 2.257 . S
Mn325 N341 2.282 . S
Mn325 O349 2.215 . S
Mn325 O351 2.117 . S
C326 O348 1.234 . S
C326 O349 1.283 . S
C327 O339 1.281 . S
C327 O340 1.236 . S
C328 O350 1.240 . S
C328 O351 1.264 . S
O329 Mn324 2.095 . S
O329 C338 1.250 . S
O330 Mn325 2.121 . S
O330 C338 1.258 . S
C331 N332 1.326 . S
C331 C335 1.460 . S
C331 H337 0.929 . S
N332 Mn325 2.257 . S
N332 C331 1.326 . S
N332 C336 1.362 . S
C333 C334 1.258 . S
C333 C336 1.431 . S
C333 C353 1.449 . S
C334 C333 1.258 . S
C334 C335 1.477 . S
C334 H354 0.931 . S
C335 C331 1.460 . S
C335 C334 1.477 . S
C335 H355 0.930 . S
C336 N332 1.362 . S
C336 C333 1.431 . S
C336 C346 1.476 . S
H337 C331 0.929 . S
C338 O329 1.250 . S
C338 O330 1.258 . S
O339 Mn324 2.162 . S
O339 C327 1.281 . S
O340 Mn324 2.297 . S
O340 C327 1.236 . S
N341 Mn325 2.282 . S
N341 C342 1.328 . S
N341 C346 1.318 . S
C342 N341 1.328 . S
C342 C343 1.457 . S
C342 H347 0.929 . S
C343 C342 1.457 . S
C343 C344 1.291 . S
C343 H356 0.931 . S
C344 C343 1.291 . S
C344 C345 1.373 . S
C344 H357 0.929 . S
C345 C344 1.373 . S
C345 C346 1.396 . S
C345 C352 1.403 . S
C346 C336 1.476 . S
C346 N341 1.318 . S
C346 C345 1.396 . S
H347 C342 0.929 . S
O348 Mn324 2.385 . S
O348 C326 1.234 . S
O349 Mn324 2.209 . S
O349 Mn325 2.215 . S
O349 C326 1.283 . S
O350 Mn324 2.094 . S
O350 C328 1.240 . S
O351 Mn325 2.117 . S
O351 C328 1.264 . S
C352 C345 1.403 . S
C352 C353 1.399 . S
C352 H358 0.929 . S
C353 C333 1.449 . S
C353 C352 1.399 . S
C353 H359 0.930 . S
H354 C334 0.931 . S
H355 C335 0.930 . S
H356 C343 0.931 . S
H357 C344 0.929 . S
H358 C352 0.929 . S
H359 C353 0.930 . S
Mn360 O365 2.095 . S
Mn360 O375 2.162 . S
Mn360 O376 2.297 . S
Mn360 O384 2.385 . S
Mn360 O385 2.209 . S
Mn360 O386 2.094 . S
Mn361 O366 2.121 . S
Mn361 N368 2.257 . S
Mn361 N377 2.282 . S
Mn361 O385 2.215 . S
Mn361 O387 2.117 . S
C362 O384 1.234 . S
C362 O385 1.283 . S
C363 O375 1.281 . S
C363 O376 1.236 . S
C364 O386 1.240 . S
C364 O387 1.264 . S
O365 Mn360 2.095 . S
O365 C374 1.250 . S
O366 Mn361 2.121 . S
O366 C374 1.258 . S
C367 N368 1.326 . S
C367 C371 1.460 . S
C367 H373 0.929 . S
N368 Mn361 2.257 . S
N368 C367 1.326 . S
N368 C372 1.362 . S
C369 C370 1.258 . S
C369 C372 1.431 . S
C369 C389 1.449 . S
C370 C369 1.258 . S
C370 C371 1.477 . S
C370 H390 0.931 . S
C371 C367 1.460 . S
C371 C370 1.477 . S
C371 H391 0.930 . S
C372 N368 1.362 . S
C372 C369 1.431 . S
C372 C382 1.476 . S
H373 C367 0.929 . S
C374 O365 1.250 . S
C374 O366 1.258 . S
O375 Mn360 2.162 . S
O375 C363 1.281 . S
O376 Mn360 2.297 . S
O376 C363 1.236 . S
N377 Mn361 2.282 . S
N377 C378 1.328 . S
N377 C382 1.318 . S
C378 N377 1.328 . S
C378 C379 1.457 . S
C378 H383 0.929 . S
C379 C378 1.457 . S
C379 C380 1.291 . S
C379 H392 0.931 . S
C380 C379 1.291 . S
C380 C381 1.373 . S
C380 H393 0.929 . S
C381 C380 1.373 . S
C381 C382 1.396 . S
C381 C388 1.403 . S
C382 C372 1.476 . S
C382 N377 1.318 . S
C382 C381 1.396 . S
H383 C378 0.929 . S
O384 Mn360 2.385 . S
O384 C362 1.234 . S
O385 Mn360 2.209 . S
O385 Mn361 2.215 . S
O385 C362 1.283 . S
O386 Mn360 2.094 . S
O386 C364 1.240 . S
O387 Mn361 2.117 . S
O387 C364 1.264 . S
C388 C381 1.403 . S
C388 C389 1.399 . S
C388 H394 0.929 . S
C389 C369 1.449 . S
C389 C388 1.399 . S
C389 H395 0.930 . S
H390 C370 0.931 . S
H391 C371 0.930 . S
H392 C379 0.931 . S
H393 C380 0.929 . S
H394 C388 0.929 . S
H395 C389 0.930 . S
Mn396 O401 2.095 . S
Mn396 O411 2.162 . S
Mn396 O412 2.297 . S
Mn396 O420 2.385 . S
Mn396 O421 2.209 . S
Mn396 O422 2.094 . S
Mn397 O402 2.121 . S
Mn397 N404 2.257 . S
Mn397 N413 2.282 . S
Mn397 O421 2.215 . S
Mn397 O423 2.117 . S
C398 O420 1.234 . S
C398 O421 1.283 . S
C399 O411 1.281 . S
C399 O412 1.236 . S
C400 O422 1.240 . S
C400 O423 1.264 . S
O401 Mn396 2.095 . S
O401 C410 1.250 . S
O402 Mn397 2.121 . S
O402 C410 1.258 . S
C403 N404 1.326 . S
C403 C407 1.460 . S
C403 H409 0.929 . S
N404 Mn397 2.257 . S
N404 C403 1.326 . S
N404 C408 1.362 . S
C405 C406 1.258 . S
C405 C408 1.431 . S
C405 C425 1.449 . S
C406 C405 1.258 . S
C406 C407 1.477 . S
C406 H426 0.931 . S
C407 C403 1.460 . S
C407 C406 1.477 . S
C407 H427 0.930 . S
C408 N404 1.362 . S
C408 C405 1.431 . S
C408 C418 1.476 . S
H409 C403 0.929 . S
C410 O401 1.250 . S
C410 O402 1.258 . S
O411 Mn396 2.162 . S
O411 C399 1.281 . S
O412 Mn396 2.297 . S
O412 C399 1.236 . S
N413 Mn397 2.282 . S
N413 C414 1.328 . S
N413 C418 1.318 . S
C414 N413 1.328 . S
C414 C415 1.457 . S
C414 H419 0.929 . S
C415 C414 1.457 . S
C415 C416 1.291 . S
C415 H428 0.931 . S
C416 C415 1.291 . S
C416 C417 1.373 . S
C416 H429 0.929 . S
C417 C416 1.373 . S
C417 C418 1.396 . S
C417 C424 1.403 . S
C418 C408 1.476 . S
C418 N413 1.318 . S
C418 C417 1.396 . S
H419 C414 0.929 . S
O420 Mn396 2.385 . S
O420 C398 1.234 . S
O421 Mn396 2.209 . S
O421 Mn397 2.215 . S
O421 C398 1.283 . S
O422 Mn396 2.094 . S
O422 C400 1.240 . S
O423 Mn397 2.117 . S
O423 C400 1.264 . S
C424 C417 1.403 . S
C424 C425 1.399 . S
C424 H430 0.929 . S
C425 C405 1.449 . S
C425 C424 1.399 . S
C425 H431 0.930 . S
H426 C406 0.931 . S
H427 C407 0.930 . S
H428 C415 0.931 . S
H429 C416 0.929 . S
H430 C424 0.929 . S
H431 C425 0.930 . S
Mn432 O437 2.095 . S
Mn432 O447 2.162 . S
Mn432 O448 2.297 . S
Mn432 O456 2.385 . S
Mn432 O457 2.209 . S
Mn432 O458 2.094 . S
Mn433 O438 2.121 . S
Mn433 N440 2.257 . S
Mn433 N449 2.282 . S
Mn433 O457 2.215 . S
Mn433 O459 2.117 . S
C434 O456 1.234 . S
C434 O457 1.283 . S
C435 O447 1.281 . S
C435 O448 1.236 . S
C436 O458 1.240 . S
C436 O459 1.264 . S
O437 Mn432 2.095 . S
O437 C446 1.250 . S
O438 Mn433 2.121 . S
O438 C446 1.258 . S
C439 N440 1.326 . S
C439 C443 1.460 . S
C439 H445 0.929 . S
N440 Mn433 2.257 . S
N440 C439 1.326 . S
N440 C444 1.362 . S
C441 C442 1.258 . S
C441 C444 1.431 . S
C441 C461 1.449 . S
C442 C441 1.258 . S
C442 C443 1.477 . S
C442 H462 0.931 . S
C443 C439 1.460 . S
C443 C442 1.477 . S
C443 H463 0.930 . S
C444 N440 1.362 . S
C444 C441 1.431 . S
C444 C454 1.476 . S
H445 C439 0.929 . S
C446 O437 1.250 . S
C446 O438 1.258 . S
O447 Mn432 2.162 . S
O447 C435 1.281 . S
O448 Mn432 2.297 . S
O448 C435 1.236 . S
N449 Mn433 2.282 . S
N449 C450 1.328 . S
N449 C454 1.318 . S
C450 N449 1.328 . S
C450 C451 1.457 . S
C450 H455 0.929 . S
C451 C450 1.457 . S
C451 C452 1.291 . S
C451 H464 0.931 . S
C452 C451 1.291 . S
C452 C453 1.373 . S
C452 H465 0.929 . S
C453 C452 1.373 . S
C453 C454 1.396 . S
C453 C460 1.403 . S
C454 C444 1.476 . S
C454 N449 1.318 . S
C454 C453 1.396 . S
H455 C450 0.929 . S
O456 Mn432 2.385 . S
O456 C434 1.234 . S
O457 Mn432 2.209 . S
O457 Mn433 2.215 . S
O457 C434 1.283 . S
O458 Mn432 2.094 . S
O458 C436 1.240 . S
O459 Mn433 2.117 . S
O459 C436 1.264 . S
C460 C453 1.403 . S
C460 C461 1.399 . S
C460 H466 0.929 . S
C461 C441 1.449 . S
C461 C460 1.399 . S
C461 H467 0.930 . S
H462 C442 0.931 . S
H463 C443 0.930 . S
H464 C451 0.931 . S
H465 C452 0.929 . S
H466 C460 0.929 . S
H467 C461 0.930 . S
Mn468 O473 2.095 . S
Mn468 O483 2.162 . S
Mn468 O484 2.297 . S
Mn468 O492 2.385 . S
Mn468 O493 2.209 . S
Mn468 O494 2.094 . S
Mn469 O474 2.121 . S
Mn469 N476 2.257 . S
Mn469 N485 2.282 1_565 S
Mn469 O493 2.215 . S
Mn469 O495 2.117 . S
C470 O492 1.234 . S
C470 O493 1.283 . S
C471 O483 1.281 . S
C471 O484 1.236 . S
C472 O494 1.240 . S
C472 O495 1.264 . S
O473 Mn468 2.095 . S
O473 C482 1.250 . S
O474 Mn469 2.121 . S
O474 C482 1.258 . S
C475 N476 1.326 1_554 S
C475 C479 1.460 . S
C475 H481 0.929 . S
N476 Mn469 2.257 . S
N476 C475 1.326 1_556 S
N476 C480 1.362 1_565 S
C477 C478 1.258 . S
C477 C480 1.431 1_554 S
C477 C497 1.449 . S
C478 C477 1.258 . S
C478 C479 1.477 1_545 S
C478 H498 0.931 . S
C479 C475 1.460 . S
C479 C478 1.477 1_565 S
C479 H499 0.930 . S
C480 N476 1.362 1_545 S
C480 C477 1.431 1_556 S
C480 C490 1.476 . S
H481 C475 0.929 . S
C482 O473 1.250 . S
C482 O474 1.258 . S
O483 Mn468 2.162 . S
O483 C471 1.281 . S
O484 Mn468 2.297 . S
O484 C471 1.236 . S
N485 Mn469 2.282 1_545 S
N485 C486 1.328 . S
N485 C490 1.318 . S
C486 N485 1.328 . S
C486 C487 1.457 . S
C486 H491 0.929 . S
C487 C486 1.457 . S
C487 C488 1.291 . S
C487 H500 0.931 . S
C488 C487 1.291 . S
C488 C489 1.373 . S
C488 H501 0.929 . S
C489 C488 1.373 . S
C489 C490 1.396 . S
C489 C496 1.403 1_556 S
C490 C480 1.476 . S
C490 N485 1.318 . S
C490 C489 1.396 . S
H491 C486 0.929 . S
O492 Mn468 2.385 . S
O492 C470 1.234 . S
O493 Mn468 2.209 . S
O493 Mn469 2.215 . S
O493 C470 1.283 . S
O494 Mn468 2.094 . S
O494 C472 1.240 . S
O495 Mn469 2.117 . S
O495 C472 1.264 . S
C496 C489 1.403 1_554 S
C496 C497 1.399 . S
C496 H502 0.929 . S
C497 C477 1.449 . S
C497 C496 1.399 . S
C497 H503 0.930 . S
H498 C478 0.931 . S
H499 C479 0.930 . S
H500 C487 0.931 . S
H501 C488 0.929 . S
H502 C496 0.929 . S
H503 C497 0.930 . S
Mn504 O509 2.095 . S
Mn504 O519 2.162 . S
Mn504 O520 2.297 . S
Mn504 O528 2.385 . S
Mn504 O529 2.209 . S
Mn504 O530 2.094 . S
Mn505 O510 2.121 . S
Mn505 N512 2.257 . S
Mn505 N521 2.282 . S
Mn505 O529 2.215 . S
Mn505 O531 2.117 . S
C506 O528 1.234 . S
C506 O529 1.283 . S
C507 O519 1.281 . S
C507 O520 1.236 . S
C508 O530 1.240 . S
C508 O531 1.264 . S
O509 Mn504 2.095 . S
O509 C518 1.250 . S
O510 Mn505 2.121 . S
O510 C518 1.258 . S
C511 N512 1.326 . S
C511 C515 1.460 . S
C511 H517 0.929 . S
N512 Mn505 2.257 . S
N512 C511 1.326 . S
N512 C516 1.362 . S
C513 C514 1.258 . S
C513 C516 1.431 . S
C513 C533 1.449 . S
C514 C513 1.258 . S
C514 C515 1.477 . S
C514 H534 0.931 . S
C515 C511 1.460 . S
C515 C514 1.477 . S
C515 H535 0.930 . S
C516 N512 1.362 . S
C516 C513 1.431 . S
C516 C526 1.476 . S
H517 C511 0.929 . S
C518 O509 1.250 . S
C518 O510 1.258 . S
O519 Mn504 2.162 . S
O519 C507 1.281 . S
O520 Mn504 2.297 . S
O520 C507 1.236 . S
N521 Mn505 2.282 . S
N521 C522 1.328 . S
N521 C526 1.318 . S
C522 N521 1.328 . S
C522 C523 1.457 . S
C522 H527 0.929 . S
C523 C522 1.457 . S
C523 C524 1.291 . S
C523 H536 0.931 . S
C524 C523 1.291 . S
C524 C525 1.373 . S
C524 H537 0.929 . S
C525 C524 1.373 . S
C525 C526 1.396 . S
C525 C532 1.403 . S
C526 C516 1.476 . S
C526 N521 1.318 . S
C526 C525 1.396 . S
H527 C522 0.929 . S
O528 Mn504 2.385 . S
O528 C506 1.234 . S
O529 Mn504 2.209 . S
O529 Mn505 2.215 . S
O529 C506 1.283 . S
O530 Mn504 2.094 . S
O530 C508 1.240 . S
O531 Mn505 2.117 . S
O531 C508 1.264 . S
C532 C525 1.403 . S
C532 C533 1.399 . S
C532 H538 0.929 . S
C533 C513 1.449 . S
C533 C532 1.399 . S
C533 H539 0.930 . S
H534 C514 0.931 . S
H535 C515 0.930 . S
H536 C523 0.931 . S
H537 C524 0.929 . S
H538 C532 0.929 . S
H539 C533 0.930 . S
Mn540 O545 2.095 . S
Mn540 O555 2.162 . S
Mn540 O556 2.297 . S
Mn540 O564 2.385 . S
Mn540 O565 2.209 . S
Mn540 O566 2.094 . S
Mn541 O546 2.121 . S
Mn541 N548 2.257 . S
Mn541 N557 2.282 1_545 S
Mn541 O565 2.215 . S
Mn541 O567 2.117 . S
C542 O564 1.234 . S
C542 O565 1.283 . S
C543 O555 1.281 . S
C543 O556 1.236 . S
C544 O566 1.240 . S
C544 O567 1.264 . S
O545 Mn540 2.095 . S
O545 C554 1.250 . S
O546 Mn541 2.121 . S
O546 C554 1.258 . S
C547 N548 1.326 . S
C547 C551 1.460 . S
C547 H553 0.929 . S
N548 Mn541 2.257 . S
N548 C547 1.326 . S
N548 C552 1.362 1_545 S
C549 C550 1.258 . S
C549 C552 1.431 . S
C549 C569 1.449 . S
C550 C549 1.258 . S
C550 C551 1.477 1_565 S
C550 H570 0.931 . S
C551 C547 1.460 . S
C551 C550 1.477 1_545 S
C551 H571 0.930 . S
C552 N548 1.362 1_565 S
C552 C549 1.431 . S
C552 C562 1.476 . S
H553 C547 0.929 . S
C554 O545 1.250 . S
C554 O546 1.258 . S
O555 Mn540 2.162 . S
O555 C543 1.281 . S
O556 Mn540 2.297 . S
O556 C543 1.236 . S
N557 Mn541 2.282 1_565 S
N557 C558 1.328 . S
N557 C562 1.318 . S
C558 N557 1.328 . S
C558 C559 1.457 . S
C558 H563 0.929 . S
C559 C558 1.457 . S
C559 C560 1.291 . S
C559 H572 0.931 . S
C560 C559 1.291 . S
C560 C561 1.373 . S
C560 H573 0.929 . S
C561 C560 1.373 . S
C561 C562 1.396 . S
C561 C568 1.403 . S
C562 C552 1.476 . S
C562 N557 1.318 . S
C562 C561 1.396 . S
H563 C558 0.929 . S
O564 Mn540 2.385 . S
O564 C542 1.234 . S
O565 Mn540 2.209 . S
O565 Mn541 2.215 . S
O565 C542 1.283 . S
O566 Mn540 2.094 . S
O566 C544 1.240 . S
O567 Mn541 2.117 . S
O567 C544 1.264 . S
C568 C561 1.403 . S
C568 C569 1.399 . S
C568 H574 0.929 . S
C569 C549 1.449 . S
C569 C568 1.399 . S
C569 H575 0.930 . S
H570 C550 0.931 . S
H571 C551 0.930 . S
H572 C559 0.931 . S
H573 C560 0.929 . S
H574 C568 0.929 . S
H575 C569 0.930 . S
Mn576 O581 2.095 . S
Mn576 O591 2.162 . S
Mn576 O592 2.297 . S
Mn576 O600 2.385 . S
Mn576 O601 2.209 . S
Mn576 O602 2.094 . S
Mn577 O582 2.121 . S
Mn577 N584 2.257 . S
Mn577 N593 2.282 . S
Mn577 O601 2.215 . S
Mn577 O603 2.117 . S
C578 O600 1.234 . S
C578 O601 1.283 . S
C579 O591 1.281 . S
C579 O592 1.236 . S
C580 O602 1.240 . S
C580 O603 1.264 . S
O581 Mn576 2.095 . S
O581 C590 1.250 . S
O582 Mn577 2.121 . S
O582 C590 1.258 . S
C583 N584 1.326 . S
C583 C587 1.460 . S
C583 H589 0.929 . S
N584 Mn577 2.257 . S
N584 C583 1.326 . S
N584 C588 1.362 . S
C585 C586 1.258 . S
C585 C588 1.431 . S
C585 C605 1.449 . S
C586 C585 1.258 . S
C586 C587 1.477 . S
C586 H606 0.931 . S
C587 C583 1.460 . S
C587 C586 1.477 . S
C587 H607 0.930 . S
C588 N584 1.362 . S
C588 C585 1.431 . S
C588 C598 1.476 . S
H589 C583 0.929 . S
C590 O581 1.250 . S
C590 O582 1.258 . S
O591 Mn576 2.162 . S
O591 C579 1.281 . S
O592 Mn576 2.297 . S
O592 C579 1.236 . S
N593 Mn577 2.282 . S
N593 C594 1.328 . S
N593 C598 1.318 . S
C594 N593 1.328 . S
C594 C595 1.457 . S
C594 H599 0.929 . S
C595 C594 1.457 . S
C595 C596 1.291 . S
C595 H608 0.931 . S
C596 C595 1.291 . S
C596 C597 1.373 . S
C596 H609 0.929 . S
C597 C596 1.373 . S
C597 C598 1.396 . S
C597 C604 1.403 . S
C598 C588 1.476 . S
C598 N593 1.318 . S
C598 C597 1.396 . S
H599 C594 0.929 . S
O600 Mn576 2.385 . S
O600 C578 1.234 . S
O601 Mn576 2.209 . S
O601 Mn577 2.215 . S
O601 C578 1.283 . S
O602 Mn576 2.094 . S
O602 C580 1.240 . S
O603 Mn577 2.117 . S
O603 C580 1.264 . S
C604 C597 1.403 . S
C604 C605 1.399 . S
C604 H610 0.929 . S
C605 C585 1.449 . S
C605 C604 1.399 . S
C605 H611 0.930 . S
H606 C586 0.931 . S
H607 C587 0.930 . S
H608 C595 0.931 . S
H609 C596 0.929 . S
H610 C604 0.929 . S
H611 C605 0.930 . S
Mn612 O617 2.095 . S
Mn612 O627 2.162 . S
Mn612 O628 2.297 . S
Mn612 O636 2.385 . S
Mn612 O637 2.209 . S
Mn612 O638 2.094 . S
Mn613 O618 2.121 . S
Mn613 N620 2.257 . S
Mn613 N629 2.282 . S
Mn613 O637 2.215 . S
Mn613 O639 2.117 . S
C614 O636 1.234 . S
C614 O637 1.283 . S
C615 O627 1.281 . S
C615 O628 1.236 . S
C616 O638 1.240 . S
C616 O639 1.264 . S
O617 Mn612 2.095 . S
O617 C626 1.250 . S
O618 Mn613 2.121 . S
O618 C626 1.258 . S
C619 N620 1.326 . S
C619 C623 1.460 . S
C619 H625 0.929 . S
N620 Mn613 2.257 . S
N620 C619 1.326 . S
N620 C624 1.362 . S
C621 C622 1.258 . S
C621 C624 1.431 . S
C621 C641 1.449 1_545 S
C622 C621 1.258 . S
C622 C623 1.477 . S
C622 H642 0.931 . S
C623 C619 1.460 . S
C623 C622 1.477 . S
C623 H643 0.930 . S
C624 N620 1.362 . S
C624 C621 1.431 . S
C624 C634 1.476 1_545 S
H625 C619 0.929 . S
C626 O617 1.250 . S
C626 O618 1.258 . S
O627 Mn612 2.162 . S
O627 C615 1.281 . S
O628 Mn612 2.297 . S
O628 C615 1.236 . S
N629 Mn613 2.282 . S
N629 C630 1.328 1_545 S
N629 C634 1.318 1_545 S
C630 N629 1.328 1_565 S
C630 C631 1.457 . S
C630 H635 0.929 1_565 S
C631 C630 1.457 . S
C631 C632 1.291 . S
C631 H644 0.931 . S
C632 C631 1.291 . S
C632 C633 1.373 . S
C632 H645 0.929 . S
C633 C632 1.373 . S
C633 C634 1.396 . S
C633 C640 1.403 . S
C634 C624 1.476 1_565 S
C634 N629 1.318 1_565 S
C634 C633 1.396 . S
H635 C630 0.929 1_545 S
O636 Mn612 2.385 . S
O636 C614 1.234 . S
O637 Mn612 2.209 . S
O637 Mn613 2.215 . S
O637 C614 1.283 . S
O638 Mn612 2.094 . S
O638 C616 1.240 . S
O639 Mn613 2.117 . S
O639 C616 1.264 . S
C640 C633 1.403 . S
C640 C641 1.399 . S
C640 H646 0.929 . S
C641 C621 1.449 1_565 S
C641 C640 1.399 . S
C641 H647 0.930 . S
H642 C622 0.931 . S
H643 C623 0.930 . S
H644 C631 0.931 . S
H645 C632 0.929 . S
H646 C640 0.929 . S
H647 C641 0.930 . S
Mn648 O653 2.095 . S
Mn648 O663 2.162 . S
Mn648 O664 2.297 . S
Mn648 O672 2.385 . S
Mn648 O673 2.209 . S
Mn648 O674 2.094 . S
Mn649 O654 2.121 . S
Mn649 N656 2.257 . S
Mn649 N665 2.282 . S
Mn649 O673 2.215 . S
Mn649 O675 2.117 . S
C650 O672 1.234 . S
C650 O673 1.283 . S
C651 O663 1.281 . S
C651 O664 1.236 . S
C652 O674 1.240 . S
C652 O675 1.264 . S
O653 Mn648 2.095 . S
O653 C662 1.250 . S
O654 Mn649 2.121 . S
O654 C662 1.258 . S
C655 N656 1.326 . S
C655 C659 1.460 . S
C655 H661 0.929 . S
N656 Mn649 2.257 . S
N656 C655 1.326 . S
N656 C660 1.362 . S
C657 C658 1.258 . S
C657 C660 1.431 . S
C657 C677 1.449 . S
C658 C657 1.258 . S
C658 C659 1.477 . S
C658 H678 0.931 . S
C659 C655 1.460 . S
C659 C658 1.477 . S
C659 H679 0.930 . S
C660 N656 1.362 . S
C660 C657 1.431 . S
C660 C670 1.476 . S
H661 C655 0.929 . S
C662 O653 1.250 . S
C662 O654 1.258 . S
O663 Mn648 2.162 . S
O663 C651 1.281 . S
O664 Mn648 2.297 . S
O664 C651 1.236 . S
N665 Mn649 2.282 . S
N665 C666 1.328 . S
N665 C670 1.318 . S
C666 N665 1.328 . S
C666 C667 1.457 . S
C666 H671 0.929 . S
C667 C666 1.457 . S
C667 C668 1.291 . S
C667 H680 0.931 . S
C668 C667 1.291 . S
C668 C669 1.373 . S
C668 H681 0.929 . S
C669 C668 1.373 . S
C669 C670 1.396 . S
C669 C676 1.403 . S
C670 C660 1.476 . S
C670 N665 1.318 . S
C670 C669 1.396 . S
H671 C666 0.929 . S
O672 Mn648 2.385 . S
O672 C650 1.234 . S
O673 Mn648 2.209 . S
O673 Mn649 2.215 . S
O673 C650 1.283 . S
O674 Mn648 2.094 . S
O674 C652 1.240 . S
O675 Mn649 2.117 . S
O675 C652 1.264 . S
C676 C669 1.403 . S
C676 C677 1.399 . S
C676 H682 0.929 . S
C677 C657 1.449 . S
C677 C676 1.399 . S
C677 H683 0.930 . S
H678 C658 0.931 . S
H679 C659 0.930 . S
H680 C667 0.931 . S
H681 C668 0.929 . S
H682 C676 0.929 . S
H683 C677 0.930 . S
Mn684 O689 2.095 . S
Mn684 O699 2.162 . S
Mn684 O700 2.297 . S
Mn684 O708 2.385 . S
Mn684 O709 2.209 . S
Mn684 O710 2.094 . S
Mn685 O690 2.121 . S
Mn685 N692 2.257 . S
Mn685 N701 2.282 1_554 S
Mn685 O709 2.215 . S
Mn685 O711 2.117 . S
C686 O708 1.234 . S
C686 O709 1.283 . S
C687 O699 1.281 . S
C687 O700 1.236 . S
C688 O710 1.240 . S
C688 O711 1.264 . S
O689 Mn684 2.095 . S
O689 C698 1.250 . S
O690 Mn685 2.121 . S
O690 C698 1.258 . S
C691 N692 1.326 . S
C691 C695 1.460 . S
C691 H697 0.929 . S
N692 Mn685 2.257 . S
N692 C691 1.326 . S
N692 C696 1.362 1_554 S
C693 C694 1.258 . S
C693 C696 1.431 . S
C693 C713 1.449 . S
C694 C693 1.258 . S
C694 C695 1.477 1_556 S
C694 H714 0.931 . S
C695 C691 1.460 . S
C695 C694 1.477 1_554 S
C695 H715 0.930 . S
C696 N692 1.362 1_556 S
C696 C693 1.431 . S
C696 C706 1.476 . S
H697 C691 0.929 . S
C698 O689 1.250 . S
C698 O690 1.258 . S
O699 Mn684 2.162 . S
O699 C687 1.281 . S
O700 Mn684 2.297 . S
O700 C687 1.236 . S
N701 Mn685 2.282 1_556 S
N701 C702 1.328 . S
N701 C706 1.318 . S
C702 N701 1.328 . S
C702 C703 1.457 . S
C702 H707 0.929 . S
C703 C702 1.457 . S
C703 C704 1.291 . S
C703 H716 0.931 . S
C704 C703 1.291 . S
C704 C705 1.373 . S
C704 H717 0.929 . S
C705 C704 1.373 . S
C705 C706 1.396 . S
C705 C712 1.403 . S
C706 C696 1.476 . S
C706 N701 1.318 . S
C706 C705 1.396 . S
H707 C702 0.929 . S
O708 Mn684 2.385 . S
O708 C686 1.234 . S
O709 Mn684 2.209 . S
O709 Mn685 2.215 . S
O709 C686 1.283 . S
O710 Mn684 2.094 . S
O710 C688 1.240 . S
O711 Mn685 2.117 . S
O711 C688 1.264 . S
C712 C705 1.403 . S
C712 C713 1.399 . S
C712 H718 0.929 . S
C713 C693 1.449 . S
C713 C712 1.399 . S
C713 H719 0.930 . S
H714 C694 0.931 . S
H715 C695 0.930 . S
H716 C703 0.931 . S
H717 C704 0.929 . S
H718 C712 0.929 . S
H719 C713 0.930 . S
Mn720 O725 2.095 . S
Mn720 O735 2.162 . S
Mn720 O736 2.297 . S
Mn720 O744 2.385 . S
Mn720 O745 2.209 . S
Mn720 O746 2.094 . S
Mn721 O726 2.121 . S
Mn721 N728 2.257 . S
Mn721 N737 2.282 . S
Mn721 O745 2.215 . S
Mn721 O747 2.117 . S
C722 O744 1.234 . S
C722 O745 1.283 . S
C723 O735 1.281 . S
C723 O736 1.236 . S
C724 O746 1.240 . S
C724 O747 1.264 . S
O725 Mn720 2.095 . S
O725 C734 1.250 . S
O726 Mn721 2.121 . S
O726 C734 1.258 . S
C727 N728 1.326 . S
C727 C731 1.460 . S
C727 H733 0.929 . S
N728 Mn721 2.257 . S
N728 C727 1.326 . S
N728 C732 1.362 . S
C729 C730 1.258 . S
C729 C732 1.431 . S
C729 C749 1.449 . S
C730 C729 1.258 . S
C730 C731 1.477 . S
C730 H750 0.931 . S
C731 C727 1.460 . S
C731 C730 1.477 . S
C731 H751 0.930 . S
C732 N728 1.362 . S
C732 C729 1.431 . S
C732 C742 1.476 . S
H733 C727 0.929 . S
C734 O725 1.250 . S
C734 O726 1.258 . S
O735 Mn720 2.162 . S
O735 C723 1.281 . S
O736 Mn720 2.297 . S
O736 C723 1.236 . S
N737 Mn721 2.282 . S
N737 C738 1.328 . S
N737 C742 1.318 . S
C738 N737 1.328 . S
C738 C739 1.457 . S
C738 H743 0.929 . S
C739 C738 1.457 . S
C739 C740 1.291 . S
C739 H752 0.931 . S
C740 C739 1.291 . S
C740 C741 1.373 . S
C740 H753 0.929 . S
C741 C740 1.373 . S
C741 C742 1.396 . S
C741 C748 1.403 . S
C742 C732 1.476 . S
C742 N737 1.318 . S
C742 C741 1.396 . S
H743 C738 0.929 . S
O744 Mn720 2.385 . S
O744 C722 1.234 . S
O745 Mn720 2.209 . S
O745 Mn721 2.215 . S
O745 C722 1.283 . S
O746 Mn720 2.094 . S
O746 C724 1.240 . S
O747 Mn721 2.117 . S
O747 C724 1.264 . S
C748 C741 1.403 . S
C748 C749 1.399 . S
C748 H754 0.929 . S
C749 C729 1.449 . S
C749 C748 1.399 . S
C749 H755 0.930 . S
H750 C730 0.931 . S
H751 C731 0.930 . S
H752 C739 0.931 . S
H753 C740 0.929 . S
H754 C748 0.929 . S
H755 C749 0.930 . S
Mn756 O761 2.095 . S
Mn756 O771 2.162 . S
Mn756 O772 2.297 . S
Mn756 O780 2.385 . S
Mn756 O781 2.209 . S
Mn756 O782 2.094 . S
Mn757 O762 2.121 . S
Mn757 N764 2.257 1_554 S
Mn757 N773 2.282 . S
Mn757 O781 2.215 . S
Mn757 O783 2.117 . S
C758 O780 1.234 . S
C758 O781 1.283 . S
C759 O771 1.281 . S
C759 O772 1.236 . S
C760 O782 1.240 . S
C760 O783 1.264 . S
O761 Mn756 2.095 . S
O761 C770 1.250 . S
O762 Mn757 2.121 . S
O762 C770 1.258 . S
C763 N764 1.326 . S
C763 C767 1.460 . S
C763 H769 0.929 . S
N764 Mn757 2.257 1_556 S
N764 C763 1.326 . S
N764 C768 1.362 . S
C765 C766 1.258 . S
C765 C768 1.431 . S
C765 C785 1.449 . S
C766 C765 1.258 . S
C766 C767 1.477 . S
C766 H786 0.931 . S
C767 C763 1.460 . S
C767 C766 1.477 . S
C767 H787 0.930 . S
C768 N764 1.362 . S
C768 C765 1.431 . S
C768 C778 1.476 1_556 S
H769 C763 0.929 . S
C770 O761 1.250 . S
C770 O762 1.258 . S
O771 Mn756 2.162 . S
O771 C759 1.281 . S
O772 Mn756 2.297 . S
O772 C759 1.236 . S
N773 Mn757 2.282 . S
N773 C774 1.328 . S
N773 C778 1.318 . S
C774 N773 1.328 . S
C774 C775 1.457 . S
C774 H779 0.929 . S
C775 C774 1.457 . S
C775 C776 1.291 . S
C775 H788 0.931 . S
C776 C775 1.291 . S
C776 C777 1.373 . S
C776 H789 0.929 . S
C777 C776 1.373 . S
C777 C778 1.396 . S
C777 C784 1.403 1_554 S
C778 C768 1.476 1_554 S
C778 N773 1.318 . S
C778 C777 1.396 . S
H779 C774 0.929 . S
O780 Mn756 2.385 . S
O780 C758 1.234 . S
O781 Mn756 2.209 . S
O781 Mn757 2.215 . S
O781 C758 1.283 . S
O782 Mn756 2.094 . S
O782 C760 1.240 . S
O783 Mn757 2.117 . S
O783 C760 1.264 . S
C784 C777 1.403 1_556 S
C784 C785 1.399 . S
C784 H790 0.929 . S
C785 C765 1.449 . S
C785 C784 1.399 . S
C785 H791 0.930 . S
H786 C766 0.931 . S
H787 C767 0.930 . S
H788 C775 0.931 . S
H789 C776 0.929 . S
H790 C784 0.929 . S
H791 C785 0.930 . S
Mn792 O797 2.095 . S
Mn792 O807 2.162 . S
Mn792 O808 2.297 . S
Mn792 O816 2.385 . S
Mn792 O817 2.209 . S
Mn792 O818 2.094 . S
Mn793 O798 2.121 . S
Mn793 N800 2.257 . S
Mn793 N809 2.282 . S
Mn793 O817 2.215 . S
Mn793 O819 2.117 . S
C794 O816 1.234 . S
C794 O817 1.283 . S
C795 O807 1.281 . S
C795 O808 1.236 . S
C796 O818 1.240 . S
C796 O819 1.264 . S
O797 Mn792 2.095 . S
O797 C806 1.250 . S
O798 Mn793 2.121 . S
O798 C806 1.258 . S
C799 N800 1.326 . S
C799 C803 1.460 . S
C799 H805 0.929 . S
N800 Mn793 2.257 . S
N800 C799 1.326 . S
N800 C804 1.362 . S
C801 C802 1.258 . S
C801 C804 1.431 . S
C801 C821 1.449 . S
C802 C801 1.258 . S
C802 C803 1.477 . S
C802 H822 0.931 . S
C803 C799 1.460 . S
C803 C802 1.477 . S
C803 H823 0.930 . S
C804 N800 1.362 . S
C804 C801 1.431 . S
C804 C814 1.476 . S
H805 C799 0.929 . S
C806 O797 1.250 . S
C806 O798 1.258 . S
O807 Mn792 2.162 . S
O807 C795 1.281 . S
O808 Mn792 2.297 . S
O808 C795 1.236 . S
N809 Mn793 2.282 . S
N809 C810 1.328 . S
N809 C814 1.318 . S
C810 N809 1.328 . S
C810 C811 1.457 . S
C810 H815 0.929 . S
C811 C810 1.457 . S
C811 C812 1.291 . S
C811 H824 0.931 . S
C812 C811 1.291 . S
C812 C813 1.373 . S
C812 H825 0.929 . S
C813 C812 1.373 . S
C813 C814 1.396 . S
C813 C820 1.403 . S
C814 C804 1.476 . S
C814 N809 1.318 . S
C814 C813 1.396 . S
H815 C810 0.929 . S
O816 Mn792 2.385 . S
O816 C794 1.234 . S
O817 Mn792 2.209 . S
O817 Mn793 2.215 . S
O817 C794 1.283 . S
O818 Mn792 2.094 . S
O818 C796 1.240 . S
O819 Mn793 2.117 . S
O819 C796 1.264 . S
C820 C813 1.403 . S
C820 C821 1.399 . S
C820 H826 0.929 . S
C821 C801 1.449 . S
C821 C820 1.399 . S
C821 H827 0.930 . S
H822 C802 0.931 . S
H823 C803 0.930 . S
H824 C811 0.931 . S
H825 C812 0.929 . S
H826 C820 0.929 . S
H827 C821 0.930 . S
Mn828 O833 2.095 . S
Mn828 O843 2.162 . S
Mn828 O844 2.297 . S
Mn828 O852 2.385 . S
Mn828 O853 2.209 . S
Mn828 O854 2.094 . S
Mn829 O834 2.121 . S
Mn829 N836 2.257 . S
Mn829 N845 2.282 . S
Mn829 O853 2.215 . S
Mn829 O855 2.117 . S
C830 O852 1.234 . S
C830 O853 1.283 . S
C831 O843 1.281 . S
C831 O844 1.236 . S
C832 O854 1.240 . S
C832 O855 1.264 . S
O833 Mn828 2.095 . S
O833 C842 1.250 . S
O834 Mn829 2.121 . S
O834 C842 1.258 . S
C835 N836 1.326 . S
C835 C839 1.460 1_455 S
C835 H841 0.929 . S
N836 Mn829 2.257 . S
N836 C835 1.326 . S
N836 C840 1.362 . S
C837 C838 1.250 1_455 S
C837 C840 1.439 . S
C837 C857 1.449 1_455 S
C838 C837 1.250 1_655 S
C838 C839 1.477 . S
C838 H858 0.931 . S
C839 C835 1.460 1_655 S
C839 C838 1.477 . S
C839 H859 0.930 . S
C840 N836 1.362 . S
C840 C837 1.439 . S
C840 C850 1.476 . S
H841 C835 0.929 . S
C842 O833 1.250 . S
C842 O834 1.258 . S
O843 Mn828 2.162 . S
O843 C831 1.281 . S
O844 Mn828 2.297 . S
O844 C831 1.236 . S
N845 Mn829 2.282 . S
N845 C846 1.328 . S
N845 C850 1.318 . S
C846 N845 1.328 . S
C846 C847 1.457 . S
C846 H851 0.929 . S
C847 C846 1.457 . S
C847 C848 1.291 . S
C847 H860 0.931 . S
C848 C847 1.291 . S
C848 C849 1.373 . S
C848 H861 0.929 . S
C849 C848 1.373 . S
C849 C850 1.396 . S
C849 C856 1.403 . S
C850 C840 1.476 . S
C850 N845 1.318 . S
C850 C849 1.396 . S
H851 C846 0.929 . S
O852 Mn828 2.385 . S
O852 C830 1.234 . S
O853 Mn828 2.209 . S
O853 Mn829 2.215 . S
O853 C830 1.283 . S
O854 Mn828 2.094 . S
O854 C832 1.240 . S
O855 Mn829 2.117 . S
O855 C832 1.264 . S
C856 C849 1.403 . S
C856 C857 1.399 1_455 S
C856 H862 0.929 . S
C857 C837 1.449 1_655 S
C857 C856 1.399 1_655 S
C857 H863 0.930 . S
H858 C838 0.931 . S
H859 C839 0.930 . S
H860 C847 0.931 . S
H861 C848 0.929 . S
H862 C856 0.929 . S
H863 C857 0.930 . S
Mn864 O869 2.095 . S
Mn864 O879 2.162 . S
Mn864 O880 2.297 . S
Mn864 O888 2.385 . S
Mn864 O889 2.209 . S
Mn864 O890 2.094 . S
Mn865 O870 2.121 . S
Mn865 N872 2.257 . S
Mn865 N881 2.282 . S
Mn865 O889 2.215 . S
Mn865 O891 2.117 . S
C866 O888 1.234 . S
C866 O889 1.283 . S
C867 O879 1.281 . S
C867 O880 1.236 . S
C868 O890 1.240 . S
C868 O891 1.264 . S
O869 Mn864 2.095 . S
O869 C878 1.250 . S
O870 Mn865 2.121 . S
O870 C878 1.258 . S
C871 N872 1.326 . S
C871 C875 1.460 . S
C871 H877 0.929 . S
N872 Mn865 2.257 . S
N872 C871 1.326 . S
N872 C876 1.362 . S
C873 C874 1.258 . S
C873 C876 1.431 . S
C873 C893 1.449 . S
C874 C873 1.258 . S
C874 C875 1.477 . S
C874 H894 0.931 . S
C875 C871 1.460 . S
C875 C874 1.477 . S
C875 H895 0.930 . S
C876 N872 1.362 . S
C876 C873 1.431 . S
C876 C886 1.476 . S
H877 C871 0.929 . S
C878 O869 1.250 . S
C878 O870 1.258 . S
O879 Mn864 2.162 . S
O879 C867 1.281 . S
O880 Mn864 2.297 . S
O880 C867 1.236 . S
N881 Mn865 2.282 . S
N881 C882 1.328 . S
N881 C886 1.318 . S
C882 N881 1.328 . S
C882 C883 1.457 . S
C882 H887 0.929 . S
C883 C882 1.457 . S
C883 C884 1.291 . S
C883 H896 0.931 . S
C884 C883 1.291 . S
C884 C885 1.373 . S
C884 H897 0.929 . S
C885 C884 1.373 . S
C885 C886 1.396 . S
C885 C892 1.403 . S
C886 C876 1.476 . S
C886 N881 1.318 . S
C886 C885 1.396 . S
H887 C882 0.929 . S
O888 Mn864 2.385 . S
O888 C866 1.234 . S
O889 Mn864 2.209 . S
O889 Mn865 2.215 . S
O889 C866 1.283 . S
O890 Mn864 2.094 . S
O890 C868 1.240 . S
O891 Mn865 2.117 . S
O891 C868 1.264 . S
C892 C885 1.403 . S
C892 C893 1.399 . S
C892 H898 0.929 . S
C893 C873 1.449 . S
C893 C892 1.399 . S
C893 H899 0.930 . S
H894 C874 0.931 . S
H895 C875 0.930 . S
H896 C883 0.931 . S
H897 C884 0.929 . S
H898 C892 0.929 . S
H899 C893 0.930 . S
Mn900 O905 2.095 . S
Mn900 O915 2.162 . S
Mn900 O916 2.297 . S
Mn900 O924 2.385 . S
Mn900 O925 2.209 . S
Mn900 O926 2.094 . S
Mn901 O906 2.121 . S
Mn901 N908 2.257 . S
Mn901 N917 2.282 . S
Mn901 O925 2.215 . S
Mn901 O927 2.117 . S
C902 O924 1.234 . S
C902 O925 1.283 . S
C903 O915 1.281 . S
C903 O916 1.236 . S
C904 O926 1.240 . S
C904 O927 1.264 . S
O905 Mn900 2.095 . S
O905 C914 1.250 . S
O906 Mn901 2.121 . S
O906 C914 1.258 . S
C907 N908 1.326 . S
C907 C911 1.460 . S
C907 H913 0.929 . S
N908 Mn901 2.257 . S
N908 C907 1.326 . S
N908 C912 1.362 . S
C909 C910 1.258 . S
C909 C912 1.431 . S
C909 C929 1.449 . S
C910 C909 1.258 . S
C910 C911 1.477 . S
C910 H930 0.931 . S
C911 C907 1.460 . S
C911 C910 1.477 . S
C911 H931 0.930 . S
C912 N908 1.362 . S
C912 C909 1.431 . S
C912 C922 1.476 . S
H913 C907 0.929 . S
C914 O905 1.250 . S
C914 O906 1.258 . S
O915 Mn900 2.162 . S
O915 C903 1.281 . S
O916 Mn900 2.297 . S
O916 C903 1.236 . S
N917 Mn901 2.282 . S
N917 C918 1.328 . S
N917 C922 1.318 . S
C918 N917 1.328 . S
C918 C919 1.457 . S
C918 H923 0.929 . S
C919 C918 1.457 . S
C919 C920 1.291 . S
C919 H932 0.931 . S
C920 C919 1.291 . S
C920 C921 1.373 . S
C920 H933 0.929 . S
C921 C920 1.373 . S
C921 C922 1.396 . S
C921 C928 1.403 . S
C922 C912 1.476 . S
C922 N917 1.318 . S
C922 C921 1.396 . S
H923 C918 0.929 . S
O924 Mn900 2.385 . S
O924 C902 1.234 . S
O925 Mn900 2.209 . S
O925 Mn901 2.215 . S
O925 C902 1.283 . S
O926 Mn900 2.094 . S
O926 C904 1.240 . S
O927 Mn901 2.117 . S
O927 C904 1.264 . S
C928 C921 1.403 . S
C928 C929 1.399 . S
C928 H934 0.929 . S
C929 C909 1.449 . S
C929 C928 1.399 . S
C929 H935 0.930 . S
H930 C910 0.931 . S
H931 C911 0.930 . S
H932 C919 0.931 . S
H933 C920 0.929 . S
H934 C928 0.929 . S
H935 C929 0.930 . S
Mn936 O941 2.095 . S
Mn936 O951 2.162 . S
Mn936 O952 2.297 . S
Mn936 O960 2.385 . S
Mn936 O961 2.209 . S
Mn936 O962 2.094 . S
Mn937 O942 2.121 . S
Mn937 N944 2.257 . S
Mn937 N953 2.282 . S
Mn937 O961 2.215 . S
Mn937 O963 2.117 . S
C938 O960 1.234 . S
C938 O961 1.283 . S
C939 O951 1.281 . S
C939 O952 1.236 . S
C940 O962 1.240 . S
C940 O963 1.264 . S
O941 Mn936 2.095 . S
O941 C950 1.250 . S
O942 Mn937 2.121 . S
O942 C950 1.258 . S
C943 N944 1.326 . S
C943 C947 1.460 . S
C943 H949 0.929 . S
N944 Mn937 2.257 . S
N944 C943 1.326 . S
N944 C948 1.362 . S
C945 C946 1.258 . S
C945 C948 1.431 . S
C945 C965 1.449 . S
C946 C945 1.258 . S
C946 C947 1.477 . S
C946 H966 0.931 . S
C947 C943 1.460 . S
C947 C946 1.477 . S
C947 H967 0.930 . S
C948 N944 1.362 . S
C948 C945 1.431 . S
C948 C958 1.476 . S
H949 C943 0.929 . S
C950 O941 1.250 . S
C950 O942 1.258 . S
O951 Mn936 2.162 . S
O951 C939 1.281 . S
O952 Mn936 2.297 . S
O952 C939 1.236 . S
N953 Mn937 2.282 . S
N953 C954 1.328 . S
N953 C958 1.318 . S
C954 N953 1.328 . S
C954 C955 1.457 . S
C954 H959 0.929 . S
C955 C954 1.457 . S
C955 C956 1.291 . S
C955 H968 0.931 . S
C956 C955 1.291 . S
C956 C957 1.373 . S
C956 H969 0.929 . S
C957 C956 1.373 . S
C957 C958 1.396 . S
C957 C964 1.403 . S
C958 C948 1.476 . S
C958 N953 1.318 . S
C958 C957 1.396 . S
H959 C954 0.929 . S
O960 Mn936 2.385 . S
O960 C938 1.234 . S
O961 Mn936 2.209 . S
O961 Mn937 2.215 . S
O961 C938 1.283 . S
O962 Mn936 2.094 . S
O962 C940 1.240 . S
O963 Mn937 2.117 . S
O963 C940 1.264 . S
C964 C957 1.403 . S
C964 C965 1.399 . S
C964 H970 0.929 . S
C965 C945 1.449 . S
C965 C964 1.399 . S
C965 H971 0.930 . S
H966 C946 0.931 . S
H967 C947 0.930 . S
H968 C955 0.931 . S
H969 C956 0.929 . S
H970 C964 0.929 . S
H971 C965 0.930 . S
Mn972 O977 2.095 . S
Mn972 O987 2.162 . S
Mn972 O988 2.297 . S
Mn972 O996 2.385 . S
Mn972 O997 2.209 . S
Mn972 O998 2.094 . S
Mn973 O978 2.121 . S
Mn973 N980 2.257 . S
Mn973 N989 2.282 . S
Mn973 O997 2.215 . S
Mn973 O999 2.117 . S
C974 O996 1.234 . S
C974 O997 1.283 . S
C975 O987 1.281 . S
C975 O988 1.236 . S
C976 O998 1.240 . S
C976 O999 1.264 . S
O977 Mn972 2.095 . S
O977 C986 1.250 . S
O978 Mn973 2.121 . S
O978 C986 1.258 . S
C979 N980 1.326 . S
C979 C983 1.460 . S
C979 H985 0.929 . S
N980 Mn973 2.257 . S
N980 C979 1.326 . S
N980 C984 1.362 . S
C981 C982 1.258 . S
C981 C984 1.431 . S
C981 C1001 1.449 . S
C982 C981 1.258 . S
C982 C983 1.477 . S
C982 H1002 0.931 . S
C983 C979 1.460 . S
C983 C982 1.477 . S
C983 H1003 0.930 . S
C984 N980 1.362 . S
C984 C981 1.431 . S
C984 C994 1.476 . S
H985 C979 0.929 . S
C986 O977 1.250 . S
C986 O978 1.258 . S
O987 Mn972 2.162 . S
O987 C975 1.281 . S
O988 Mn972 2.297 . S
O988 C975 1.236 . S
N989 Mn973 2.282 . S
N989 C990 1.328 . S
N989 C994 1.318 . S
C990 N989 1.328 . S
C990 C991 1.457 1_554 S
C990 H995 0.929 . S
C991 C990 1.457 1_556 S
C991 C992 1.291 . S
C991 H1004 0.931 . S
C992 C991 1.291 . S
C992 C993 1.373 1_556 S
C992 H1005 0.929 . S
C993 C992 1.373 1_554 S
C993 C994 1.396 . S
C993 C1000 1.403 . S
C994 C984 1.476 . S
C994 N989 1.318 . S
C994 C993 1.396 . S
H995 C990 0.929 . S
O996 Mn972 2.385 . S
O996 C974 1.234 . S
O997 Mn972 2.209 . S
O997 Mn973 2.215 . S
O997 C974 1.283 . S
O998 Mn972 2.094 . S
O998 C976 1.240 . S
O999 Mn973 2.117 . S
O999 C976 1.264 . S
C1000 C993 1.403 . S
C1000 C1001 1.399 . S
C1000 H1006 0.929 1_554 S
C1001 C981 1.449 . S
C1001 C1000 1.399 . S
C1001 H1007 0.930 . S
H1002 C982 0.931 . S
H1003 C983 0.930 . S
H1004 C991 0.931 . S
H1005 C992 0.929 . S
H1006 C1000 0.929 1_556 S
H1007 C1001 0.930 . S
Mn1008 O1013 2.095 . S
Mn1008 O1023 2.162 . S
Mn1008 O1024 2.297 . S
Mn1008 O1032 2.385 . S
Mn1008 O1033 2.209 . S
Mn1008 O1034 2.094 . S
Mn1009 O1014 2.121 . S
Mn1009 N1016 2.257 . S
Mn1009 N1025 2.282 . S
Mn1009 O1033 2.215 . S
Mn1009 O1035 2.117 . S
C1010 O1032 1.234 . S
C1010 O1033 1.283 . S
C1011 O1023 1.281 . S
C1011 O1024 1.236 . S
C1012 O1034 1.240 . S
C1012 O1035 1.264 . S
O1013 Mn1008 2.095 . S
O1013 C1022 1.250 . S
O1014 Mn1009 2.121 . S
O1014 C1022 1.258 . S
C1015 N1016 1.326 . S
C1015 C1019 1.460 . S
C1015 H1021 0.929 . S
N1016 Mn1009 2.257 . S
N1016 C1015 1.326 . S
N1016 C1020 1.362 . S
C1017 C1018 1.258 . S
C1017 C1020 1.431 . S
C1017 C1037 1.449 . S
C1018 C1017 1.258 . S
C1018 C1019 1.477 . S
C1018 H1038 0.931 . S
C1019 C1015 1.460 . S
C1019 C1018 1.477 . S
C1019 H1039 0.930 . S
C1020 N1016 1.362 . S
C1020 C1017 1.431 . S
C1020 C1030 1.476 . S
H1021 C1015 0.929 . S
C1022 O1013 1.250 . S
C1022 O1014 1.258 . S
O1023 Mn1008 2.162 . S
O1023 C1011 1.281 . S
O1024 Mn1008 2.297 . S
O1024 C1011 1.236 . S
N1025 Mn1009 2.282 . S
N1025 C1026 1.328 . S
N1025 C1030 1.318 . S
C1026 N1025 1.328 . S
C1026 C1027 1.457 . S
C1026 H1031 0.929 . S
C1027 C1026 1.457 . S
C1027 C1028 1.291 . S
C1027 H1040 0.931 . S
C1028 C1027 1.291 . S
C1028 C1029 1.373 . S
C1028 H1041 0.929 . S
C1029 C1028 1.373 . S
C1029 C1030 1.396 . S
C1029 C1036 1.403 . S
C1030 C1020 1.476 . S
C1030 N1025 1.318 . S
C1030 C1029 1.396 . S
H1031 C1026 0.929 . S
O1032 Mn1008 2.385 . S
O1032 C1010 1.234 . S
O1033 Mn1008 2.209 . S
O1033 Mn1009 2.215 . S
O1033 C1010 1.283 . S
O1034 Mn1008 2.094 . S
O1034 C1012 1.240 . S
O1035 Mn1009 2.117 . S
O1035 C1012 1.264 . S
C1036 C1029 1.403 . S
C1036 C1037 1.399 . S
C1036 H1042 0.929 . S
C1037 C1017 1.449 . S
C1037 C1036 1.399 . S
C1037 H1043 0.930 . S
H1038 C1018 0.931 . S
H1039 C1019 0.930 . S
H1040 C1027 0.931 . S
H1041 C1028 0.929 . S
H1042 C1036 0.929 . S
H1043 C1037 0.930 . S
Mn1044 O1049 2.095 . S
Mn1044 O1059 2.162 . S
Mn1044 O1060 2.297 . S
Mn1044 O1068 2.385 . S
Mn1044 O1069 2.209 . S
Mn1044 O1070 2.094 . S
Mn1045 O1050 2.121 . S
Mn1045 N1052 2.257 . S
Mn1045 N1061 2.282 . S
Mn1045 O1069 2.215 . S
Mn1045 O1071 2.117 . S
C1046 O1068 1.234 . S
C1046 O1069 1.283 . S
C1047 O1059 1.281 . S
C1047 O1060 1.236 . S
C1048 O1070 1.240 . S
C1048 O1071 1.264 . S
O1049 Mn1044 2.095 . S
O1049 C1058 1.250 . S
O1050 Mn1045 2.121 . S
O1050 C1058 1.258 . S
C1051 N1052 1.326 . S
C1051 C1055 1.460 . S
C1051 H1057 0.929 . S
N1052 Mn1045 2.257 . S
N1052 C1051 1.326 . S
N1052 C1056 1.362 . S
C1053 C1054 1.258 . S
C1053 C1056 1.431 . S
C1053 C1073 1.449 . S
C1054 C1053 1.258 . S
C1054 C1055 1.477 . S
C1054 H1074 0.931 . S
C1055 C1051 1.460 . S
C1055 C1054 1.477 . S
C1055 H1075 0.930 . S
C1056 N1052 1.362 . S
C1056 C1053 1.431 . S
C1056 C1066 1.476 . S
H1057 C1051 0.929 . S
C1058 O1049 1.250 . S
C1058 O1050 1.258 . S
O1059 Mn1044 2.162 . S
O1059 C1047 1.281 . S
O1060 Mn1044 2.297 . S
O1060 C1047 1.236 . S
N1061 Mn1045 2.282 . S
N1061 C1062 1.328 . S
N1061 C1066 1.318 . S
C1062 N1061 1.328 . S
C1062 C1063 1.457 . S
C1062 H1067 0.929 . S
C1063 C1062 1.457 . S
C1063 C1064 1.291 . S
C1063 H1076 0.931 . S
C1064 C1063 1.291 . S
C1064 C1065 1.373 . S
C1064 H1077 0.929 . S
C1065 C1064 1.373 . S
C1065 C1066 1.396 . S
C1065 C1072 1.403 . S
C1066 C1056 1.476 . S
C1066 N1061 1.318 . S
C1066 C1065 1.396 . S
H1067 C1062 0.929 . S
O1068 Mn1044 2.385 . S
O1068 C1046 1.234 . S
O1069 Mn1044 2.209 . S
O1069 Mn1045 2.215 . S
O1069 C1046 1.283 . S
O1070 Mn1044 2.094 . S
O1070 C1048 1.240 . S
O1071 Mn1045 2.117 . S
O1071 C1048 1.264 . S
C1072 C1065 1.403 . S
C1072 C1073 1.399 . S
C1072 H1078 0.929 . S
C1073 C1053 1.449 . S
C1073 C1072 1.399 . S
C1073 H1079 0.930 . S
H1074 C1054 0.931 . S
H1075 C1055 0.930 . S
H1076 C1063 0.931 . S
H1077 C1064 0.929 . S
H1078 C1072 0.929 . S
H1079 C1073 0.930 . S
Mn1080 O1085 2.095 . S
Mn1080 O1095 2.162 . S
Mn1080 O1096 2.297 . S
Mn1080 O1104 2.385 . S
Mn1080 O1105 2.209 . S
Mn1080 O1106 2.094 . S
Mn1081 O1086 2.121 . S
Mn1081 N1088 2.223 1_556 S
Mn1081 N1097 2.282 . S
Mn1081 O1105 2.215 . S
Mn1081 O1107 2.117 . S
C1082 O1104 1.234 . S
C1082 O1105 1.283 . S
C1083 O1095 1.281 . S
C1083 O1096 1.236 . S
C1084 O1106 1.240 . S
C1084 O1107 1.264 . S
O1085 Mn1080 2.095 . S
O1085 C1094 1.250 . S
O1086 Mn1081 2.121 . S
O1086 C1094 1.258 . S
C1087 N1088 1.352 . S
C1087 C1091 1.460 . S
C1087 H1093 0.929 . S
N1088 Mn1081 2.223 1_554 S
N1088 C1087 1.352 . S
N1088 C1092 1.370 . S
C1089 C1090 1.258 . S
C1089 C1092 1.431 . S
C1089 C1109 1.449 . S
C1090 C1089 1.258 . S
C1090 C1091 1.477 . S
C1090 H1110 0.931 . S
C1091 C1087 1.460 . S
C1091 C1090 1.477 . S
C1091 H1111 0.930 . S
C1092 N1088 1.370 . S
C1092 C1089 1.431 . S
C1092 C1102 1.476 1_554 S
H1093 C1087 0.929 . S
C1094 O1085 1.250 . S
C1094 O1086 1.258 . S
O1095 Mn1080 2.162 . S
O1095 C1083 1.281 . S
O1096 Mn1080 2.297 . S
O1096 C1083 1.236 . S
N1097 Mn1081 2.282 . S
N1097 C1098 1.328 . S
N1097 C1102 1.318 . S
C1098 N1097 1.328 . S
C1098 C1099 1.457 . S
C1098 H1103 0.929 . S
C1099 C1098 1.457 . S
C1099 C1100 1.291 . S
C1099 H1112 0.931 . S
C1100 C1099 1.291 . S
C1100 C1101 1.373 . S
C1100 H1113 0.929 . S
C1101 C1100 1.373 . S
C1101 C1102 1.396 . S
C1101 C1108 1.403 1_556 S
C1102 C1092 1.476 1_556 S
C1102 N1097 1.318 . S
C1102 C1101 1.396 . S
H1103 C1098 0.929 . S
O1104 Mn1080 2.385 . S
O1104 C1082 1.234 . S
O1105 Mn1080 2.209 . S
O1105 Mn1081 2.215 . S
O1105 C1082 1.283 . S
O1106 Mn1080 2.094 . S
O1106 C1084 1.240 . S
O1107 Mn1081 2.117 . S
O1107 C1084 1.264 . S
C1108 C1101 1.403 1_554 S
C1108 C1109 1.399 . S
C1108 H1114 0.929 . S
C1109 C1089 1.449 . S
C1109 C1108 1.399 . S
C1109 H1115 0.930 . S
H1110 C1090 0.931 . S
H1111 C1091 0.930 . S
H1112 C1099 0.931 . S
H1113 C1100 0.929 . S
H1114 C1108 0.929 . S
H1115 C1109 0.930 . S
Mn1116 O1121 2.095 . S
Mn1116 O1131 2.162 . S
Mn1116 O1132 2.297 . S
Mn1116 O1140 2.385 . S
Mn1116 O1141 2.209 . S
Mn1116 O1142 2.094 . S
Mn1117 O1122 2.121 . S
Mn1117 N1124 2.257 . S
Mn1117 N1133 2.282 . S
Mn1117 O1141 2.215 . S
Mn1117 O1143 2.117 . S
C1118 O1140 1.234 . S
C1118 O1141 1.283 . S
C1119 O1131 1.281 . S
C1119 O1132 1.236 . S
C1120 O1142 1.240 . S
C1120 O1143 1.264 . S
O1121 Mn1116 2.095 . S
O1121 C1130 1.250 . S
O1122 Mn1117 2.121 . S
O1122 C1130 1.258 . S
C1123 N1124 1.326 . S
C1123 C1127 1.460 . S
C1123 H1129 0.929 . S
N1124 Mn1117 2.257 . S
N1124 C1123 1.326 . S
N1124 C1128 1.362 . S
C1125 C1126 1.258 . S
C1125 C1128 1.431 . S
C1125 C1145 1.449 . S
C1126 C1125 1.258 . S
C1126 C1127 1.477 . S
C1126 H1146 0.931 . S
C1127 C1123 1.460 . S
C1127 C1126 1.477 . S
C1127 H1147 0.930 . S
C1128 N1124 1.362 . S
C1128 C1125 1.431 . S
C1128 C1138 1.476 . S
H1129 C1123 0.929 . S
C1130 O1121 1.250 . S
C1130 O1122 1.258 . S
O1131 Mn1116 2.162 . S
O1131 C1119 1.281 . S
O1132 Mn1116 2.297 . S
O1132 C1119 1.236 . S
N1133 Mn1117 2.282 . S
N1133 C1134 1.328 . S
N1133 C1138 1.318 . S
C1134 N1133 1.328 . S
C1134 C1135 1.457 . S
C1134 H1139 0.929 . S
C1135 C1134 1.457 . S
C1135 C1136 1.291 . S
C1135 H1148 0.931 . S
C1136 C1135 1.291 . S
C1136 C1137 1.373 . S
C1136 H1149 0.929 . S
C1137 C1136 1.373 . S
C1137 C1138 1.396 . S
C1137 C1144 1.403 . S
C1138 C1128 1.476 . S
C1138 N1133 1.318 . S
C1138 C1137 1.396 . S
H1139 C1134 0.929 . S
O1140 Mn1116 2.385 . S
O1140 C1118 1.234 . S
O1141 Mn1116 2.209 . S
O1141 Mn1117 2.215 . S
O1141 C1118 1.283 . S
O1142 Mn1116 2.094 . S
O1142 C1120 1.240 . S
O1143 Mn1117 2.117 . S
O1143 C1120 1.264 . S
C1144 C1137 1.403 . S
C1144 C1145 1.399 . S
C1144 H1150 0.929 . S
C1145 C1125 1.449 . S
C1145 C1144 1.399 . S
C1145 H1151 0.930 . S
H1146 C1126 0.931 . S
H1147 C1127 0.930 . S
H1148 C1135 0.931 . S
H1149 C1136 0.929 . S
H1150 C1144 0.929 . S
H1151 C1145 0.930 . S
H1152 C1158 0.929 . S
H1153 C1162 0.930 . S
H1154 C1167 0.929 . S
H1155 C1165 0.929 . S
H1156 C1160 0.929 1_554 S
H1157 C1166 0.929 . S
C1158 H1152 0.929 . S
C1158 C1159 1.367 . S
C1158 C1166 1.378 1_554 S
C1159 C1158 1.367 . S
C1159 C1167 1.433 . S
C1160 H1156 0.929 1_556 S
C1160 C1162 1.378 . S
C1160 C1164 1.350 . S
C1161 C1164 1.443 1_444 S
C1161 C1166 1.335 1_554 S
C1161 N1169 1.463 . S
C1162 H1153 0.930 . S
C1162 C1160 1.378 . S
C1162 C1163 1.367 . S
C1163 C1162 1.367 . S
C1163 C1165 1.433 . S
C1164 C1160 1.350 . S
C1164 C1161 1.443 1_666 S
C1164 N1168 1.427 1_565 S
C1165 H1155 0.929 . S
C1165 C1163 1.433 . S
C1165 N1168 1.381 1_565 S
C1166 H1157 0.929 . S
C1166 C1158 1.378 1_556 S
C1166 C1161 1.335 1_556 S
C1167 H1154 0.929 . S
C1167 C1159 1.433 . S
C1167 N1169 1.384 . S
N1168 C1164 1.427 1_545 S
N1168 C1165 1.381 1_545 S
N1169 C1161 1.463 . S
N1169 C1167 1.384 . S
H1170 C1176 0.930 . S
H1171 C1180 0.930 . S
H1172 C1185 0.929 . S
H1173 C1183 0.929 . S
H1174 C1178 0.929 . S
H1175 C1184 0.929 . S
C1176 H1170 0.930 . S
C1176 C1177 1.367 . S
C1176 C1184 1.378 . S
C1177 C1176 1.367 . S
C1177 C1185 1.433 . S
C1178 H1174 0.929 . S
C1178 C1180 1.378 . S
C1178 C1182 1.350 . S
C1179 C1182 1.463 . S
C1179 C1184 1.350 . S
C1179 N1187 1.427 . S
C1180 H1171 0.930 . S
C1180 C1178 1.378 . S
C1180 C1181 1.367 . S
C1181 C1180 1.367 . S
C1181 C1183 1.433 . S
C1182 C1178 1.350 . S
C1182 C1179 1.463 . S
C1182 N1186 1.427 . S
C1183 H1173 0.929 . S
C1183 C1181 1.433 . S
C1183 N1186 1.384 . S
C1184 H1175 0.929 . S
C1184 C1176 1.378 . S
C1184 C1179 1.350 . S
C1185 H1172 0.929 . S
C1185 C1177 1.433 . S
C1185 N1187 1.384 . S
N1186 C1182 1.427 . S
N1186 C1183 1.384 . S
N1187 C1179 1.427 . S
N1187 C1185 1.384 . S
H1188 C1194 0.930 . S
H1189 C1198 0.930 1_565 S
H1190 C1203 0.929 . S
H1191 C1201 0.929 . S
H1192 C1196 0.929 . S
H1193 C1202 0.929 . S
C1194 H1188 0.930 . S
C1194 C1195 1.367 . S
C1194 C1202 1.378 . S
C1195 C1194 1.367 . S
C1195 C1203 1.433 . S
C1196 H1192 0.929 . S
C1196 C1198 1.378 1_565 S
C1196 C1200 1.350 . S
C1197 C1200 1.463 . S
C1197 C1202 1.350 . S
C1197 N1205 1.427 . S
C1198 H1189 0.930 1_545 S
C1198 C1196 1.378 1_545 S
C1198 C1199 1.367 . S
C1199 C1198 1.367 . S
C1199 C1201 1.433 . S
C1200 C1196 1.350 . S
C1200 C1197 1.463 . S
C1200 N1204 1.427 1_565 S
C1201 H1191 0.929 . S
C1201 C1199 1.433 . S
C1201 N1204 1.384 . S
C1202 H1193 0.929 . S
C1202 C1194 1.378 . S
C1202 C1197 1.350 . S
C1203 H1190 0.929 . S
C1203 C1195 1.433 . S
C1203 N1205 1.384 . S
N1204 C1200 1.427 1_545 S
N1204 C1201 1.384 . S
N1205 C1197 1.427 . S
N1205 C1203 1.384 . S
H1206 C1212 0.930 . S
H1207 C1216 0.930 . S
H1208 C1221 0.929 . S
H1209 C1219 0.929 . S
H1210 C1214 0.929 . S
H1211 C1220 0.929 . S
C1212 H1206 0.930 . S
C1212 C1213 1.367 . S
C1212 C1220 1.378 . S
C1213 C1212 1.367 . S
C1213 C1221 1.433 . S
C1214 H1210 0.929 . S
C1214 C1216 1.378 . S
C1214 C1218 1.350 . S
C1215 C1218 1.463 . S
C1215 C1220 1.350 . S
C1215 N1223 1.427 . S
C1216 H1207 0.930 . S
C1216 C1214 1.378 . S
C1216 C1217 1.367 . S
C1217 C1216 1.367 . S
C1217 C1219 1.433 . S
C1218 C1214 1.350 . S
C1218 C1215 1.463 . S
C1218 N1222 1.427 . S
C1219 H1209 0.929 . S
C1219 C1217 1.433 . S
C1219 N1222 1.384 . S
C1220 H1211 0.929 . S
C1220 C1212 1.378 . S
C1220 C1215 1.350 . S
C1221 H1208 0.929 . S
C1221 C1213 1.433 . S
C1221 N1223 1.384 . S
N1222 C1218 1.427 . S
N1222 C1219 1.384 . S
N1223 C1215 1.427 . S
N1223 C1221 1.384 . S
H1224 C1230 0.930 . S
H1225 C1234 0.930 . S
H1226 C1239 0.929 1_655 S
H1227 C1237 0.929 . S
H1228 C1232 0.929 . S
H1229 C1238 0.929 1_545 S
C1230 H1224 0.930 . S
C1230 C1231 1.367 . S
C1230 C1238 1.378 . S
C1231 C1230 1.367 . S
C1231 C1239 1.433 . S
C1232 H1228 0.929 . S
C1232 C1234 1.378 . S
C1232 C1236 1.350 . S
C1233 C1236 1.463 . S
C1233 C1238 1.350 1_645 S
C1233 N1241 1.427 1_545 S
C1234 H1225 0.930 . S
C1234 C1232 1.378 . S
C1234 C1235 1.367 . S
C1235 C1234 1.367 . S
C1235 C1237 1.433 . S
C1236 C1232 1.350 . S
C1236 C1233 1.463 . S
C1236 N1240 1.427 . S
C1237 H1227 0.929 . S
C1237 C1235 1.433 . S
C1237 N1240 1.384 . S
C1238 H1229 0.929 1_565 S
C1238 C1230 1.378 . S
C1238 C1233 1.350 1_465 S
C1239 H1226 0.929 1_455 S
C1239 C1231 1.433 . S
C1239 N1241 1.384 1_455 S
N1240 C1236 1.427 . S
N1240 C1237 1.384 . S
N1241 C1233 1.427 1_565 S
N1241 C1239 1.384 1_655 S
H1242 C1248 0.930 . S
H1243 C1252 0.930 . S
H1244 C1257 0.929 . S
H1245 C1255 0.929 . S
H1246 C1250 0.929 . S
H1247 C1256 0.929 . S
C1248 H1242 0.930 . S
C1248 C1249 1.367 . S
C1248 C1256 1.378 . S
C1249 C1248 1.367 . S
C1249 C1257 1.433 . S
C1250 H1246 0.929 . S
C1250 C1252 1.378 . S
C1250 C1254 1.350 . S
C1251 C1254 1.463 . S
C1251 C1256 1.350 . S
C1251 N1259 1.427 . S
C1252 H1243 0.930 . S
C1252 C1250 1.378 . S
C1252 C1253 1.367 . S
C1253 C1252 1.367 . S
C1253 C1255 1.433 . S
C1254 C1250 1.350 . S
C1254 C1251 1.463 . S
C1254 N1258 1.427 . S
C1255 H1245 0.929 . S
C1255 C1253 1.433 . S
C1255 N1258 1.384 . S
C1256 H1247 0.929 . S
C1256 C1248 1.378 . S
C1256 C1251 1.350 . S
C1257 H1244 0.929 . S
C1257 C1249 1.433 . S
C1257 N1259 1.384 . S
N1258 C1254 1.427 . S
N1258 C1255 1.384 . S
N1259 C1251 1.427 . S
N1259 C1257 1.384 . S
H1260 C1266 0.930 . S
H1261 C1270 0.930 . S
H1262 C1275 0.928 1_554 S
H1263 C1273 0.929 . S
H1264 C1268 0.929 . S
H1265 C1274 0.929 1_565 S
C1266 H1260 0.930 . S
C1266 C1267 1.367 . S
C1266 C1274 1.378 . S
C1267 C1266 1.367 . S
C1267 C1275 1.433 . S
C1268 H1264 0.929 . S
C1268 C1270 1.378 1_545 S
C1268 C1272 1.350 1_545 S
C1269 C1272 1.463 1_546 S
C1269 C1274 1.350 . S
C1269 N1277 1.427 1_556 S
C1270 H1261 0.930 . S
C1270 C1268 1.378 1_565 S
C1270 C1271 1.367 . S
C1271 C1270 1.367 . S
C1271 C1273 1.433 . S
C1272 C1268 1.350 1_565 S
C1272 C1269 1.463 1_564 S
C1272 N1276 1.427 1_554 S
C1273 H1263 0.929 . S
C1273 C1271 1.433 . S
C1273 N1276 1.384 1_554 S
C1274 H1265 0.929 1_545 S
C1274 C1266 1.378 . S
C1274 C1269 1.350 . S
C1275 H1262 0.928 1_556 S
C1275 C1267 1.433 . S
C1275 N1277 1.384 1_556 S
N1276 C1272 1.427 1_556 S
N1276 C1273 1.384 1_556 S
N1277 C1269 1.427 1_554 S
N1277 C1275 1.384 1_554 S
H1278 C1284 0.930 . S
H1279 C1288 0.930 . S
H1280 C1293 0.929 . S
H1281 C1291 0.929 . S
H1282 C1286 0.929 . S
H1283 C1292 0.929 . S
C1284 H1278 0.930 . S
C1284 C1285 1.367 . S
C1284 C1292 1.378 . S
C1285 C1284 1.367 . S
C1285 C1293 1.433 . S
C1286 H1282 0.929 . S
C1286 C1288 1.378 . S
C1286 C1290 1.350 . S
C1287 C1290 1.463 . S
C1287 C1292 1.350 . S
C1287 N1295 1.427 . S
C1288 H1279 0.930 . S
C1288 C1286 1.378 . S
C1288 C1289 1.367 . S
C1289 C1288 1.367 . S
C1289 C1291 1.433 . S
C1290 C1286 1.350 . S
C1290 C1287 1.463 . S
C1290 N1294 1.427 . S
C1291 H1281 0.929 . S
C1291 C1289 1.433 . S
C1291 N1294 1.384 . S
C1292 H1283 0.929 . S
C1292 C1284 1.378 . S
C1292 C1287 1.350 . S
C1293 H1280 0.929 . S
C1293 C1285 1.433 . S
C1293 N1295 1.384 . S
N1294 C1290 1.427 . S
N1294 C1291 1.384 . S
N1295 C1287 1.427 . S
N1295 C1293 1.384 . S
H1296 C1302 0.930 . S
H1297 C1306 0.930 . S
H1298 C1311 0.929 . S
H1299 C1309 0.929 . S
H1300 C1304 0.929 . S
H1301 C1310 0.929 . S
C1302 H1296 0.930 . S
C1302 C1303 1.367 . S
C1302 C1310 1.378 . S
C1303 C1302 1.367 . S
C1303 C1311 1.433 . S
C1304 H1300 0.929 . S
C1304 C1306 1.378 . S
C1304 C1308 1.350 . S
C1305 C1308 1.463 . S
C1305 C1310 1.350 1_556 S
C1305 N1313 1.427 . S
C1306 H1297 0.930 . S
C1306 C1304 1.378 . S
C1306 C1307 1.367 . S
C1307 C1306 1.367 . S
C1307 C1309 1.433 . S
C1308 C1304 1.350 . S
C1308 C1305 1.463 . S
C1308 N1312 1.427 . S
C1309 H1299 0.929 . S
C1309 C1307 1.433 . S
C1309 N1312 1.384 . S
C1310 H1301 0.929 . S
C1310 C1302 1.378 . S
C1310 C1305 1.350 1_554 S
C1311 H1298 0.929 . S
C1311 C1303 1.433 . S
C1311 N1313 1.384 1_554 S
N1312 C1308 1.427 . S
N1312 C1309 1.384 . S
N1313 C1305 1.427 . S
N1313 C1311 1.384 1_556 S
H1314 C1320 0.930 . S
H1315 C1324 0.930 . S
H1316 C1329 0.929 . S
H1317 C1327 0.929 . S
H1318 C1322 0.929 . S
H1319 C1328 0.929 . S
C1320 H1314 0.930 . S
C1320 C1321 1.367 . S
C1320 C1328 1.378 . S
C1321 C1320 1.367 . S
C1321 C1329 1.433 . S
C1322 H1318 0.929 . S
C1322 C1324 1.378 . S
C1322 C1326 1.350 . S
C1323 C1326 1.463 . S
C1323 C1328 1.350 . S
C1323 N1331 1.427 . S
C1324 H1315 0.930 . S
C1324 C1322 1.378 . S
C1324 C1325 1.367 . S
C1325 C1324 1.367 . S
C1325 C1327 1.433 . S
C1326 C1322 1.350 . S
C1326 C1323 1.463 . S
C1326 N1330 1.427 . S
C1327 H1317 0.929 . S
C1327 C1325 1.433 . S
C1327 N1330 1.384 . S
C1328 H1319 0.929 . S
C1328 C1320 1.378 . S
C1328 C1323 1.350 . S
C1329 H1316 0.929 . S
C1329 C1321 1.433 . S
C1329 N1331 1.384 . S
N1330 C1326 1.427 . S
N1330 C1327 1.384 . S
N1331 C1323 1.427 . S
N1331 C1329 1.384 . S
H1332 C1338 0.930 . S
H1333 C1342 0.930 . S
H1334 C1347 0.929 . S
H1335 C1345 0.929 . S
H1336 C1340 0.929 . S
H1337 C1346 0.929 . S
C1338 H1332 0.930 . S
C1338 C1339 1.367 . S
C1338 C1346 1.378 . S
C1339 C1338 1.367 . S
C1339 C1347 1.433 . S
C1340 H1336 0.929 . S
C1340 C1342 1.378 . S
C1340 C1344 1.350 1_655 S
C1341 C1344 1.463 . S
C1341 C1346 1.350 . S
C1341 N1349 1.427 . S
C1342 H1333 0.930 . S
C1342 C1340 1.378 . S
C1342 C1343 1.367 . S
C1343 C1342 1.367 . S
C1343 C1345 1.433 1_655 S
C1344 C1340 1.350 1_455 S
C1344 C1341 1.463 . S
C1344 N1348 1.427 . S
C1345 H1335 0.929 . S
C1345 C1343 1.433 1_455 S
C1345 N1348 1.384 . S
C1346 H1337 0.929 . S
C1346 C1338 1.378 . S
C1346 C1341 1.350 . S
C1347 H1334 0.929 . S
C1347 C1339 1.433 . S
C1347 N1349 1.384 . S
N1348 C1344 1.427 . S
N1348 C1345 1.384 . S
N1349 C1341 1.427 . S
N1349 C1347 1.384 . S
H1350 C1356 0.930 . S
H1351 C1360 0.930 . S
H1352 C1365 0.929 . S
H1353 C1363 0.929 . S
H1354 C1358 0.929 . S
H1355 C1364 0.929 . S
C1356 H1350 0.930 . S
C1356 C1357 1.367 . S
C1356 C1364 1.378 . S
C1357 C1356 1.367 . S
C1357 C1365 1.433 . S
C1358 H1354 0.929 . S
C1358 C1360 1.378 . S
C1358 C1362 1.350 . S
C1359 C1362 1.463 . S
C1359 C1364 1.350 . S
C1359 N1367 1.427 . S
C1360 H1351 0.930 . S
C1360 C1358 1.378 . S
C1360 C1361 1.367 . S
C1361 C1360 1.367 . S
C1361 C1363 1.433 . S
C1362 C1358 1.350 . S
C1362 C1359 1.463 . S
C1362 N1366 1.427 . S
C1363 H1353 0.929 . S
C1363 C1361 1.433 . S
C1363 N1366 1.384 . S
C1364 H1355 0.929 . S
C1364 C1356 1.378 . S
C1364 C1359 1.350 . S
C1365 H1352 0.929 . S
C1365 C1357 1.433 . S
C1365 N1367 1.384 . S
N1366 C1362 1.427 . S
N1366 C1363 1.384 . S
N1367 C1359 1.427 . S
N1367 C1365 1.384 . S
H1368 C1374 0.930 . S
H1369 C1378 0.930 . S
H1370 C1383 0.929 . S
H1371 C1381 0.929 . S
H1372 C1376 0.929 . S
H1373 C1382 0.929 . S
C1374 H1368 0.930 . S
C1374 C1375 1.367 . S
C1374 C1382 1.378 . S
C1375 C1374 1.367 . S
C1375 C1383 1.433 . S
C1376 H1372 0.929 . S
C1376 C1378 1.378 . S
C1376 C1380 1.350 . S
C1377 C1380 1.463 . S
C1377 C1382 1.350 . S
C1377 N1385 1.427 . S
C1378 H1369 0.930 . S
C1378 C1376 1.378 . S
C1378 C1379 1.367 . S
C1379 C1378 1.367 . S
C1379 C1381 1.433 . S
C1380 C1376 1.350 . S
C1380 C1377 1.463 . S
C1380 N1384 1.427 . S
C1381 H1371 0.929 . S
C1381 C1379 1.433 . S
C1381 N1384 1.384 . S
C1382 H1373 0.929 . S
C1382 C1374 1.378 . S
C1382 C1377 1.350 . S
C1383 H1370 0.929 . S
C1383 C1375 1.433 . S
C1383 N1385 1.384 . S
N1384 C1380 1.427 . S
N1384 C1381 1.384 . S
N1385 C1377 1.427 . S
N1385 C1383 1.384 . S
H1386 C1392 0.930 . S
H1387 C1396 0.930 . S
H1388 C1401 0.929 . S
H1389 C1399 0.929 . S
H1390 C1394 0.929 . S
H1391 C1400 0.929 . S
C1392 H1386 0.930 . S
C1392 C1393 1.367 . S
C1392 C1400 1.378 . S
C1393 C1392 1.367 . S
C1393 C1401 1.433 . S
C1394 H1390 0.929 . S
C1394 C1396 1.378 . S
C1394 C1398 1.350 . S
C1395 C1398 1.463 . S
C1395 C1400 1.350 . S
C1395 N1403 1.427 . S
C1396 H1387 0.930 . S
C1396 C1394 1.378 . S
C1396 C1397 1.367 . S
C1397 C1396 1.367 . S
C1397 C1399 1.433 . S
C1398 C1394 1.350 . S
C1398 C1395 1.463 . S
C1398 N1402 1.427 . S
C1399 H1389 0.929 . S
C1399 C1397 1.433 . S
C1399 N1402 1.384 . S
C1400 H1391 0.929 . S
C1400 C1392 1.378 . S
C1400 C1395 1.350 . S
C1401 H1388 0.929 . S
C1401 C1393 1.433 . S
C1401 N1403 1.384 . S
N1402 C1398 1.427 . S
N1402 C1399 1.384 . S
N1403 C1395 1.427 . S
N1403 C1401 1.384 . S
H1404 C1410 0.930 . S
H1405 C1414 0.930 . S
H1406 C1419 0.929 . S
H1407 C1417 0.929 . S
H1408 C1412 0.929 . S
H1409 C1418 0.929 . S
C1410 H1404 0.930 . S
C1410 C1411 1.367 . S
C1410 C1418 1.378 . S
C1411 C1410 1.367 . S
C1411 C1419 1.433 . S
C1412 H1408 0.929 . S
C1412 C1414 1.378 . S
C1412 C1416 1.350 . S
C1413 C1416 1.463 . S
C1413 C1418 1.350 . S
C1413 N1421 1.427 . S
C1414 H1405 0.930 . S
C1414 C1412 1.378 . S
C1414 C1415 1.367 . S
C1415 C1414 1.367 . S
C1415 C1417 1.433 . S
C1416 C1412 1.350 . S
C1416 C1413 1.463 . S
C1416 N1420 1.427 . S
C1417 H1407 0.929 . S
C1417 C1415 1.433 . S
C1417 N1420 1.384 . S
C1418 H1409 0.929 . S
C1418 C1410 1.378 . S
C1418 C1413 1.350 . S
C1419 H1406 0.929 . S
C1419 C1411 1.433 . S
C1419 N1421 1.384 . S
N1420 C1416 1.427 . S
N1420 C1417 1.384 . S
N1421 C1413 1.427 . S
N1421 C1419 1.384 . S
H1422 C1428 0.930 . S
H1423 C1432 0.930 . S
H1424 C1437 0.929 . S
H1425 C1435 0.929 . S
H1426 C1430 0.929 1_455 S
H1427 C1436 0.929 . S
C1428 H1422 0.930 . S
C1428 C1429 1.367 1_655 S
C1428 C1436 1.378 . S
C1429 C1428 1.367 1_455 S
C1429 C1437 1.433 . S
C1430 H1426 0.929 1_655 S
C1430 C1432 1.378 . S
C1430 C1434 1.350 . S
C1431 C1434 1.463 1_556 S
C1431 C1436 1.350 . S
C1431 N1439 1.427 1_655 S
C1432 H1423 0.930 . S
C1432 C1430 1.378 . S
C1432 C1433 1.367 . S
C1433 C1432 1.367 . S
C1433 C1435 1.433 . S
C1434 C1430 1.350 . S
C1434 C1431 1.463 1_554 S
C1434 N1438 1.427 . S
C1435 H1425 0.929 . S
C1435 C1433 1.433 . S
C1435 N1438 1.384 . S
C1436 H1427 0.929 . S
C1436 C1428 1.378 . S
C1436 C1431 1.350 . S
C1437 H1424 0.929 . S
C1437 C1429 1.433 . S
C1437 N1439 1.384 . S
N1438 C1434 1.427 . S
N1438 C1435 1.384 . S
N1439 C1431 1.427 1_455 S
N1439 C1437 1.384 . S
H1440 C1446 0.930 . S
H1441 C1450 0.930 . S
H1442 C1455 0.929 . S
H1443 C1453 0.929 . S
H1444 C1448 0.929 . S
H1445 C1454 0.929 1_565 S
C1446 H1440 0.930 . S
C1446 C1447 1.367 . S
C1446 C1454 1.378 . S
C1447 C1446 1.367 . S
C1447 C1455 1.433 . S
C1448 H1444 0.929 . S
C1448 C1450 1.378 . S
C1448 C1452 1.350 . S
C1449 C1452 1.463 1_545 S
C1449 C1454 1.350 . S
C1449 N1457 1.427 . S
C1450 H1441 0.930 . S
C1450 C1448 1.378 . S
C1450 C1451 1.367 . S
C1451 C1450 1.367 . S
C1451 C1453 1.433 . S
C1452 C1448 1.350 . S
C1452 C1449 1.463 1_565 S
C1452 N1456 1.427 . S
C1453 H1443 0.929 . S
C1453 C1451 1.433 . S
C1453 N1456 1.384 . S
C1454 H1445 0.929 1_545 S
C1454 C1446 1.378 . S
C1454 C1449 1.350 . S
C1455 H1442 0.929 . S
C1455 C1447 1.433 . S
C1455 N1457 1.384 . S
N1456 C1452 1.427 . S
N1456 C1453 1.384 . S
N1457 C1449 1.427 . S
N1457 C1455 1.384 . S
H1458 C1464 0.930 . S
H1459 C1468 0.930 . S
H1460 C1473 0.929 . S
H1461 C1471 0.929 . S
H1462 C1466 0.929 . S
H1463 C1472 0.929 . S
C1464 H1458 0.930 . S
C1464 C1465 1.367 . S
C1464 C1472 1.378 . S
C1465 C1464 1.367 . S
C1465 C1473 1.433 . S
C1466 H1462 0.929 . S
C1466 C1468 1.378 . S
C1466 C1470 1.350 . S
C1467 C1470 1.463 . S
C1467 C1472 1.350 . S
C1467 N1475 1.427 . S
C1468 H1459 0.930 . S
C1468 C1466 1.378 . S
C1468 C1469 1.367 . S
C1469 C1468 1.367 . S
C1469 C1471 1.433 . S
C1470 C1466 1.350 . S
C1470 C1467 1.463 . S
C1470 N1474 1.427 . S
C1471 H1461 0.929 . S
C1471 C1469 1.433 . S
C1471 N1474 1.384 . S
C1472 H1463 0.929 . S
C1472 C1464 1.378 . S
C1472 C1467 1.350 . S
C1473 H1460 0.929 . S
C1473 C1465 1.433 . S
C1473 N1475 1.384 . S
N1474 C1470 1.427 . S
N1474 C1471 1.384 . S
N1475 C1467 1.427 . S
N1475 C1473 1.384 . S
H1476 C1482 0.930 . S
H1477 C1486 0.930 . S
H1478 C1491 0.929 . S
H1479 C1489 0.929 . S
H1480 C1484 0.946 . S
H1481 C1490 0.929 1_565 S
C1482 H1476 0.930 . S
C1482 C1483 1.367 . S
C1482 C1490 1.378 . S
C1483 C1482 1.367 . S
C1483 C1491 1.433 . S
C1484 H1480 0.946 . S
C1484 C1486 1.378 . S
C1484 C1488 1.350 . S
C1485 C1488 1.463 1_545 S
C1485 C1490 1.350 . S
C1485 N1493 1.427 . S
C1486 H1477 0.930 . S
C1486 C1484 1.378 . S
C1486 C1487 1.367 . S
C1487 C1486 1.367 . S
C1487 C1489 1.433 . S
C1488 C1484 1.350 . S
C1488 C1485 1.463 1_565 S
C1488 N1492 1.427 . S
C1489 H1479 0.929 . S
C1489 C1487 1.433 . S
C1489 N1492 1.384 . S
C1490 H1481 0.929 1_545 S
C1490 C1482 1.378 . S
C1490 C1485 1.350 . S
C1491 H1478 0.929 . S
C1491 C1483 1.433 . S
C1491 N1493 1.384 . S
N1492 C1488 1.427 . S
N1492 C1489 1.384 . S
N1493 C1485 1.427 . S
N1493 C1491 1.384 . S
H1494 C1500 0.930 . S
H1495 C1504 0.930 . S
H1496 C1509 0.929 . S
H1497 C1507 0.929 . S
H1498 C1502 0.929 1_556 S
H1499 C1508 0.929 . S
C1500 H1494 0.930 . S
C1500 C1501 1.367 . S
C1500 C1508 1.378 . S
C1501 C1500 1.367 . S
C1501 C1509 1.433 . S
C1502 H1498 0.929 1_554 S
C1502 C1504 1.378 . S
C1502 C1506 1.350 1_554 S
C1503 C1506 1.463 . S
C1503 C1508 1.350 . S
C1503 N1511 1.427 . S
C1504 H1495 0.930 . S
C1504 C1502 1.378 . S
C1504 C1505 1.367 . S
C1505 C1504 1.367 . S
C1505 C1507 1.433 . S
C1506 C1502 1.350 1_556 S
C1506 C1503 1.463 . S
C1506 N1510 1.427 1_556 S
C1507 H1497 0.929 . S
C1507 C1505 1.433 . S
C1507 N1510 1.384 . S
C1508 H1499 0.929 . S
C1508 C1500 1.378 . S
C1508 C1503 1.350 . S
C1509 H1496 0.929 . S
C1509 C1501 1.433 . S
C1509 N1511 1.384 . S
N1510 C1506 1.427 1_554 S
N1510 C1507 1.384 . S
N1511 C1503 1.427 . S
N1511 C1509 1.384 . S
H1512 C1518 0.930 . S
H1513 C1522 0.930 . S
H1514 C1527 0.929 . S
H1515 C1525 0.929 . S
H1516 C1520 0.929 . S
H1517 C1526 0.929 . S
C1518 H1512 0.930 . S
C1518 C1519 1.367 . S
C1518 C1526 1.378 . S
C1519 C1518 1.367 . S
C1519 C1527 1.433 . S
C1520 H1516 0.929 . S
C1520 C1522 1.377 . S
C1520 C1524 1.350 . S
C1521 C1524 1.463 . S
C1521 C1526 1.350 . S
C1521 N1529 1.427 . S
C1522 H1513 0.930 . S
C1522 C1520 1.377 . S
C1522 C1523 1.367 1_545 S
C1523 C1522 1.367 1_565 S
C1523 C1525 1.433 . S
C1524 C1520 1.350 . S
C1524 C1521 1.463 . S
C1524 N1528 1.427 1_545 S
C1525 H1515 0.929 . S
C1525 C1523 1.433 . S
C1525 N1528 1.384 . S
C1526 H1517 0.929 . S
C1526 C1518 1.378 . S
C1526 C1521 1.350 . S
C1527 H1514 0.929 . S
C1527 C1519 1.433 . S
C1527 N1529 1.384 . S
N1528 C1524 1.427 1_565 S
N1528 C1525 1.384 . S
N1529 C1521 1.427 . S
N1529 C1527 1.384 . S
H1530 C1536 0.930 . S
H1531 C1540 0.930 . S
H1532 C1545 0.929 . S
H1533 C1543 0.929 . S
H1534 C1538 0.929 . S
H1535 C1544 0.929 . S
C1536 H1530 0.930 . S
C1536 C1537 1.367 . S
C1536 C1544 1.378 . S
C1537 C1536 1.367 . S
C1537 C1545 1.433 . S
C1538 H1534 0.929 . S
C1538 C1540 1.378 . S
C1538 C1542 1.350 . S
C1539 C1542 1.463 . S
C1539 C1544 1.350 . S
C1539 N1547 1.427 . S
C1540 H1531 0.930 . S
C1540 C1538 1.378 . S
C1540 C1541 1.367 . S
C1541 C1540 1.367 . S
C1541 C1543 1.433 . S
C1542 C1538 1.350 . S
C1542 C1539 1.463 . S
C1542 N1546 1.427 . S
C1543 H1533 0.929 . S
C1543 C1541 1.433 . S
C1543 N1546 1.384 . S
C1544 H1535 0.929 . S
C1544 C1536 1.378 . S
C1544 C1539 1.350 . S
C1545 H1532 0.929 . S
C1545 C1537 1.433 . S
C1545 N1547 1.384 . S
N1546 C1542 1.427 . S
N1546 C1543 1.384 . S
N1547 C1539 1.427 . S
N1547 C1545 1.384 . S
H1548 C1554 0.930 . S
H1549 C1558 0.930 . S
H1550 C1563 0.929 . S
H1551 C1561 0.929 . S
H1552 C1556 0.929 . S
H1553 C1562 0.929 . S
C1554 H1548 0.930 . S
C1554 C1555 1.367 . S
C1554 C1562 1.378 . S
C1555 C1554 1.367 . S
C1555 C1563 1.433 . S
C1556 H1552 0.929 . S
C1556 C1558 1.378 . S
C1556 C1560 1.350 . S
C1557 C1560 1.463 . S
C1557 C1562 1.350 1_565 S
C1557 N1565 1.427 . S
C1558 H1549 0.930 . S
C1558 C1556 1.378 . S
C1558 C1559 1.367 . S
C1559 C1558 1.367 . S
C1559 C1561 1.433 . S
C1560 C1556 1.350 . S
C1560 C1557 1.463 . S
C1560 N1564 1.427 . S
C1561 H1551 0.929 . S
C1561 C1559 1.433 . S
C1561 N1564 1.384 . S
C1562 H1553 0.929 . S
C1562 C1554 1.378 . S
C1562 C1557 1.350 1_545 S
C1563 H1550 0.929 . S
C1563 C1555 1.433 . S
C1563 N1565 1.384 1_545 S
N1564 C1560 1.427 . S
N1564 C1561 1.384 . S
N1565 C1557 1.427 . S
N1565 C1563 1.384 1_565 S
H1566 C1572 0.930 . S
H1567 C1576 0.930 . S
H1568 C1581 0.929 . S
H1569 C1579 0.929 . S
H1570 C1574 0.929 . S
H1571 C1580 0.929 . S
C1572 H1566 0.930 . S
C1572 C1573 1.367 . S
C1572 C1580 1.378 1_556 S
C1573 C1572 1.367 . S
C1573 C1581 1.433 . S
C1574 H1570 0.929 . S
C1574 C1576 1.378 . S
C1574 C1578 1.350 . S
C1575 C1578 1.463 . S
C1575 C1580 1.350 . S
C1575 N1583 1.427 1_554 S
C1576 H1567 0.930 . S
C1576 C1574 1.378 . S
C1576 C1577 1.367 . S
C1577 C1576 1.367 . S
C1577 C1579 1.433 . S
C1578 C1574 1.350 . S
C1578 C1575 1.463 . S
C1578 N1582 1.427 . S
C1579 H1569 0.929 . S
C1579 C1577 1.433 . S
C1579 N1582 1.384 . S
C1580 H1571 0.929 . S
C1580 C1572 1.378 1_554 S
C1580 C1575 1.350 . S
C1581 H1568 0.929 . S
C1581 C1573 1.433 . S
C1581 N1583 1.384 . S
N1582 C1578 1.427 . S
N1582 C1579 1.384 . S
N1583 C1575 1.427 1_556 S
N1583 C1581 1.384 . S
H1584 C1590 0.930 . S
H1585 C1594 0.930 . S
H1586 C1599 0.929 . S
H1587 C1597 0.929 . S
H1588 C1592 0.929 . S
H1589 C1598 0.929 . S
C1590 H1584 0.930 . S
C1590 C1591 1.367 . S
C1590 C1598 1.378 . S
C1591 C1590 1.367 . S
C1591 C1599 1.433 . S
C1592 H1588 0.929 . S
C1592 C1594 1.378 1_655 S
C1592 C1596 1.350 . S
C1593 C1596 1.463 . S
C1593 C1598 1.350 . S
C1593 N1601 1.427 . S
C1594 H1585 0.930 . S
C1594 C1592 1.378 1_455 S
C1594 C1595 1.367 . S
C1595 C1594 1.367 . S
C1595 C1597 1.433 . S
C1596 C1592 1.350 . S
C1596 C1593 1.463 . S
C1596 N1600 1.427 . S
C1597 H1587 0.929 . S
C1597 C1595 1.433 . S
C1597 N1600 1.384 1_455 S
C1598 H1589 0.929 . S
C1598 C1590 1.378 . S
C1598 C1593 1.350 . S
C1599 H1586 0.929 . S
C1599 C1591 1.433 . S
C1599 N1601 1.384 . S
N1600 C1596 1.427 . S
N1600 C1597 1.384 1_655 S
N1601 C1593 1.427 . S
N1601 C1599 1.384 . S
H1602 C1608 0.930 . S
H1603 C1612 0.930 . S
H1604 C1617 0.929 . S
H1605 C1615 0.929 . S
H1606 C1610 0.929 . S
H1607 C1616 0.929 . S
C1608 H1602 0.930 . S
C1608 C1609 1.367 . S
C1608 C1616 1.378 . S
C1609 C1608 1.367 . S
C1609 C1617 1.433 . S
C1610 H1606 0.929 . S
C1610 C1612 1.378 . S
C1610 C1614 1.350 . S
C1611 C1614 1.463 . S
C1611 C1616 1.350 . S
C1611 N1619 1.427 . S
C1612 H1603 0.930 . S
C1612 C1610 1.378 . S
C1612 C1613 1.367 . S
C1613 C1612 1.367 . S
C1613 C1615 1.433 . S
C1614 C1610 1.350 . S
C1614 C1611 1.463 . S
C1614 N1618 1.427 . S
C1615 H1605 0.929 . S
C1615 C1613 1.433 . S
C1615 N1618 1.384 . S
C1616 H1607 0.929 . S
C1616 C1608 1.378 . S
C1616 C1611 1.350 . S
C1617 H1604 0.929 . S
C1617 C1609 1.433 . S
C1617 N1619 1.384 . S
N1618 C1614 1.427 . S
N1618 C1615 1.384 . S
N1619 C1611 1.427 . S
N1619 C1617 1.384 . S
H1620 C1626 0.930 . S
H1621 C1630 0.930 . S
H1622 C1635 0.929 . S
H1623 C1633 0.929 . S
H1624 C1628 0.929 . S
H1625 C1634 0.929 . S
C1626 H1620 0.930 . S
C1626 C1627 1.367 . S
C1626 C1634 1.378 1_655 S
C1627 C1626 1.367 . S
C1627 C1635 1.433 1_655 S
C1628 H1624 0.929 . S
C1628 C1630 1.378 . S
C1628 C1632 1.350 . S
C1629 C1632 1.463 . S
C1629 C1634 1.350 . S
C1629 N1637 1.427 . S
C1630 H1621 0.930 . S
C1630 C1628 1.378 . S
C1630 C1631 1.367 . S
C1631 C1630 1.367 . S
C1631 C1633 1.433 . S
C1632 C1628 1.350 . S
C1632 C1629 1.463 . S
C1632 N1636 1.427 . S
C1633 H1623 0.929 . S
C1633 C1631 1.433 . S
C1633 N1636 1.384 . S
C1634 H1625 0.929 . S
C1634 C1626 1.378 1_455 S
C1634 C1629 1.350 . S
C1635 H1622 0.929 . S
C1635 C1627 1.433 1_455 S
C1635 N1637 1.384 . S
N1636 C1632 1.427 . S
N1636 C1633 1.384 . S
N1637 C1629 1.427 . S
N1637 C1635 1.384 . S
H1638 C1644 0.930 . S
H1639 C1648 0.930 . S
H1640 C1653 0.926 1_455 S
H1641 C1651 0.929 . S
H1642 C1646 0.929 . S
H1643 C1652 0.929 . S
C1644 H1638 0.930 . S
C1644 C1645 1.367 . S
C1644 C1652 1.378 . S
C1645 C1644 1.367 . S
C1645 C1653 1.469 . S
C1646 H1642 0.929 . S
C1646 C1648 1.378 . S
C1646 C1650 1.350 . S
C1647 C1650 1.463 . S
C1647 C1652 1.350 1_455 S
C1647 N1655 1.427 . S
C1648 H1639 0.930 . S
C1648 C1646 1.378 . S
C1648 C1649 1.367 . S
C1649 C1648 1.367 . S
C1649 C1651 1.433 . S
C1650 C1646 1.350 . S
C1650 C1647 1.463 . S
C1650 N1654 1.427 . S
C1651 H1641 0.929 . S
C1651 C1649 1.433 . S
C1651 N1654 1.384 . S
C1652 H1643 0.929 . S
C1652 C1644 1.378 . S
C1652 C1647 1.350 1_655 S
C1653 H1640 0.926 1_655 S
C1653 C1645 1.469 . S
C1653 N1655 1.353 1_655 S
N1654 C1650 1.427 . S
N1654 C1651 1.384 . S
N1655 C1647 1.427 . S
N1655 C1653 1.353 1_455 S
H1656 C1662 0.930 . S
H1657 C1666 0.930 . S
H1658 C1671 0.929 . S
H1659 C1669 0.929 . S
H1660 C1664 0.929 . S
H1661 C1670 0.929 . S
C1662 H1656 0.930 . S
C1662 C1663 1.367 . S
C1662 C1670 1.378 . S
C1663 C1662 1.367 . S
C1663 C1671 1.433 . S
C1664 H1660 0.929 . S
C1664 C1666 1.378 . S
C1664 C1668 1.350 . S
C1665 C1668 1.463 . S
C1665 C1670 1.350 . S
C1665 N1673 1.427 . S
C1666 H1657 0.930 . S
C1666 C1664 1.378 . S
C1666 C1667 1.367 . S
C1667 C1666 1.367 . S
C1667 C1669 1.433 . S
C1668 C1664 1.350 . S
C1668 C1665 1.463 . S
C1668 N1672 1.427 . S
C1669 H1659 0.929 . S
C1669 C1667 1.433 . S
C1669 N1672 1.384 . S
C1670 H1661 0.929 . S
C1670 C1662 1.378 . S
C1670 C1665 1.350 . S
C1671 H1658 0.929 . S
C1671 C1663 1.433 . S
C1671 N1673 1.384 . S
N1672 C1668 1.427 . S
N1672 C1669 1.384 . S
N1673 C1665 1.427 . S
N1673 C1671 1.384 . S
H1674 C1680 0.930 . S
H1675 C1684 0.930 . S
H1676 C1689 0.929 . S
H1677 C1687 0.929 . S
H1678 C1682 0.929 . S
H1679 C1688 0.929 . S
C1680 H1674 0.930 . S
C1680 C1681 1.367 . S
C1680 C1688 1.378 . S
C1681 C1680 1.367 . S
C1681 C1689 1.433 . S
C1682 H1678 0.929 . S
C1682 C1684 1.378 1_655 S
C1682 C1686 1.350 . S
C1683 C1686 1.463 . S
C1683 C1688 1.350 . S
C1683 N1691 1.427 . S
C1684 H1675 0.930 . S
C1684 C1682 1.378 1_455 S
C1684 C1685 1.367 . S
C1685 C1684 1.367 . S
C1685 C1687 1.433 . S
C1686 C1682 1.350 . S
C1686 C1683 1.463 . S
C1686 N1690 1.427 1_655 S
C1687 H1677 0.929 . S
C1687 C1685 1.433 . S
C1687 N1690 1.384 . S
C1688 H1679 0.929 . S
C1688 C1680 1.378 . S
C1688 C1683 1.350 . S
C1689 H1676 0.929 . S
C1689 C1681 1.433 . S
C1689 N1691 1.384 . S
N1690 C1686 1.427 1_455 S
N1690 C1687 1.384 . S
N1691 C1683 1.427 . S
N1691 C1689 1.384 . S
H1692 C1698 0.930 . S
H1693 C1702 0.930 . S
H1694 C1707 0.929 . S
H1695 C1705 0.929 . S
H1696 C1700 0.929 . S
H1697 C1706 0.929 . S
C1698 H1692 0.930 . S
C1698 C1699 1.367 . S
C1698 C1706 1.378 . S
C1699 C1698 1.367 . S
C1699 C1707 1.433 . S
C1700 H1696 0.929 . S
C1700 C1702 1.378 . S
C1700 C1704 1.350 . S
C1701 C1704 1.463 . S
C1701 C1706 1.350 . S
C1701 N1709 1.427 . S
C1702 H1693 0.930 . S
C1702 C1700 1.378 . S
C1702 C1703 1.367 . S
C1703 C1702 1.367 . S
C1703 C1705 1.433 . S
C1704 C1700 1.350 . S
C1704 C1701 1.463 . S
C1704 N1708 1.427 . S
C1705 H1695 0.929 . S
C1705 C1703 1.433 . S
C1705 N1708 1.384 . S
C1706 H1697 0.929 . S
C1706 C1698 1.378 . S
C1706 C1701 1.350 . S
C1707 H1694 0.929 . S
C1707 C1699 1.433 . S
C1707 N1709 1.384 . S
N1708 C1704 1.427 . S
N1708 C1705 1.384 . S
N1709 C1701 1.427 . S
N1709 C1707 1.384 . S
H1710 C1716 0.930 . S
H1711 C1720 0.930 . S
H1712 C1725 0.929 . S
H1713 C1723 0.929 . S
H1714 C1718 0.929 . S
H1715 C1724 0.929 . S
C1716 H1710 0.930 . S
C1716 C1717 1.367 . S
C1716 C1724 1.378 . S
C1717 C1716 1.367 . S
C1717 C1725 1.433 . S
C1718 H1714 0.929 . S
C1718 C1720 1.378 1_545 S
C1718 C1722 1.350 . S
C1719 C1722 1.463 . S
C1719 C1724 1.350 . S
C1719 N1727 1.427 . S
C1720 H1711 0.930 . S
C1720 C1718 1.378 1_565 S
C1720 C1721 1.367 . S
C1721 C1720 1.367 . S
C1721 C1723 1.433 1_565 S
C1722 C1718 1.350 . S
C1722 C1719 1.463 . S
C1722 N1726 1.427 . S
C1723 H1713 0.929 . S
C1723 C1721 1.433 1_545 S
C1723 N1726 1.384 . S
C1724 H1715 0.929 . S
C1724 C1716 1.378 . S
C1724 C1719 1.350 . S
C1725 H1712 0.929 . S
C1725 C1717 1.433 . S
C1725 N1727 1.384 . S
N1726 C1722 1.427 . S
N1726 C1723 1.384 . S
N1727 C1719 1.427 . S
N1727 C1725 1.384 . S
H1728 C1734 0.930 . S
H1729 C1738 0.930 . S
H1730 C1743 0.929 . S
H1731 C1741 0.929 . S
H1732 C1736 0.929 . S
H1733 C1742 0.929 . S
C1734 H1728 0.930 . S
C1734 C1735 1.367 . S
C1734 C1742 1.378 . S
C1735 C1734 1.367 . S
C1735 C1743 1.433 . S
C1736 H1732 0.929 . S
C1736 C1738 1.378 . S
C1736 C1740 1.350 . S
C1737 C1740 1.463 . S
C1737 C1742 1.350 . S
C1737 N1745 1.427 . S
C1738 H1729 0.930 . S
C1738 C1736 1.378 . S
C1738 C1739 1.367 . S
C1739 C1738 1.367 . S
C1739 C1741 1.433 . S
C1740 C1736 1.350 . S
C1740 C1737 1.463 . S
C1740 N1744 1.427 . S
C1741 H1731 0.929 . S
C1741 C1739 1.433 . S
C1741 N1744 1.384 . S
C1742 H1733 0.929 . S
C1742 C1734 1.378 . S
C1742 C1737 1.350 . S
C1743 H1730 0.929 . S
C1743 C1735 1.433 . S
C1743 N1745 1.384 . S
N1744 C1740 1.427 . S
N1744 C1741 1.384 . S
N1745 C1737 1.427 . S
N1745 C1743 1.384 . S
H1746 C1752 0.930 . S
H1747 C1756 0.930 . S
H1748 C1761 0.929 . S
H1749 C1759 0.929 . S
H1750 C1754 0.929 . S
H1751 C1760 0.929 . S
C1752 H1746 0.930 . S
C1752 C1753 1.367 . S
C1752 C1760 1.378 . S
C1753 C1752 1.367 . S
C1753 C1761 1.433 . S
C1754 H1750 0.929 . S
C1754 C1756 1.378 . S
C1754 C1758 1.350 . S
C1755 C1758 1.463 . S
C1755 C1760 1.350 . S
C1755 N1763 1.427 . S
C1756 H1747 0.930 . S
C1756 C1754 1.378 . S
C1756 C1757 1.367 1_565 S
C1757 C1756 1.367 1_545 S
C1757 C1759 1.433 . S
C1758 C1754 1.350 . S
C1758 C1755 1.463 . S
C1758 N1762 1.427 1_565 S
C1759 H1749 0.929 . S
C1759 C1757 1.433 . S
C1759 N1762 1.384 . S
C1760 H1751 0.929 . S
C1760 C1752 1.378 . S
C1760 C1755 1.350 . S
C1761 H1748 0.929 . S
C1761 C1753 1.433 . S
C1761 N1763 1.384 . S
N1762 C1758 1.427 1_545 S
N1762 C1759 1.384 . S
N1763 C1755 1.427 . S
N1763 C1761 1.384 . S
H1764 C1770 0.930 . S
H1765 C1774 0.930 . S
H1766 C1779 0.929 . S
H1767 C1777 0.929 . S
H1768 C1772 0.929 . S
H1769 C1778 0.929 1_554 S
C1770 H1764 0.930 . S
C1770 C1771 1.367 . S
C1770 C1778 1.378 . S
C1771 C1770 1.367 . S
C1771 C1779 1.433 . S
C1772 H1768 0.929 . S
C1772 C1774 1.378 . S
C1772 C1776 1.350 . S
C1773 C1776 1.463 1_556 S
C1773 C1778 1.350 . S
C1773 N1781 1.427 . S
C1774 H1765 0.930 . S
C1774 C1772 1.378 . S
C1774 C1775 1.367 . S
C1775 C1774 1.367 . S
C1775 C1777 1.433 . S
C1776 C1772 1.350 . S
C1776 C1773 1.463 1_554 S
C1776 N1780 1.427 . S
C1777 H1767 0.929 . S
C1777 C1775 1.433 . S
C1777 N1780 1.384 . S
C1778 H1769 0.929 1_556 S
C1778 C1770 1.378 . S
C1778 C1773 1.350 . S
C1779 H1766 0.929 . S
C1779 C1771 1.433 . S
C1779 N1781 1.384 . S
N1780 C1776 1.427 . S
N1780 C1777 1.384 . S
N1781 C1773 1.427 . S
N1781 C1779 1.384 . S
H1782 C1788 0.930 . S
H1783 C1792 0.930 . S
H1784 C1797 0.929 . S
H1785 C1795 0.929 . S
H1786 C1790 0.929 1_545 S
H1787 C1796 0.929 . S
C1788 H1782 0.930 . S
C1788 C1789 1.367 . S
C1788 C1796 1.378 1_545 S
C1789 C1788 1.367 . S
C1789 C1797 1.433 . S
C1790 H1786 0.929 1_565 S
C1790 C1792 1.378 . S
C1790 C1794 1.350 . S
C1791 C1794 1.463 . S
C1791 C1796 1.350 . S
C1791 N1799 1.427 1_565 S
C1792 H1783 0.930 . S
C1792 C1790 1.378 . S
C1792 C1793 1.367 . S
C1793 C1792 1.367 . S
C1793 C1795 1.433 . S
C1794 C1790 1.350 . S
C1794 C1791 1.463 . S
C1794 N1798 1.427 . S
C1795 H1785 0.929 . S
C1795 C1793 1.433 . S
C1795 N1798 1.384 . S
C1796 H1787 0.929 . S
C1796 C1788 1.378 1_565 S
C1796 C1791 1.350 . S
C1797 H1784 0.929 . S
C1797 C1789 1.433 . S
C1797 N1799 1.384 . S
N1798 C1794 1.427 . S
N1798 C1795 1.384 . S
N1799 C1791 1.427 1_545 S
N1799 C1797 1.384 . S
H1800 C1806 0.930 . S
H1801 C1810 0.930 . S
H1802 C1815 0.929 . S
H1803 C1813 0.929 . S
H1804 C1808 0.929 . S
H1805 C1814 0.929 . S
C1806 H1800 0.930 . S
C1806 C1807 1.367 . S
C1806 C1814 1.378 . S
C1807 C1806 1.367 . S
C1807 C1815 1.433 . S
C1808 H1804 0.929 . S
C1808 C1810 1.378 . S
C1808 C1812 1.350 . S
C1809 C1812 1.463 . S
C1809 C1814 1.350 . S
C1809 N1817 1.427 . S
C1810 H1801 0.930 . S
C1810 C1808 1.378 . S
C1810 C1811 1.367 . S
C1811 C1810 1.367 . S
C1811 C1813 1.433 . S
C1812 C1808 1.350 . S
C1812 C1809 1.463 . S
C1812 N1816 1.427 . S
C1813 H1803 0.929 . S
C1813 C1811 1.433 . S
C1813 N1816 1.384 . S
C1814 H1805 0.929 . S
C1814 C1806 1.378 . S
C1814 C1809 1.350 . S
C1815 H1802 0.929 . S
C1815 C1807 1.433 . S
C1815 N1817 1.384 . S
N1816 C1812 1.427 . S
N1816 C1813 1.384 . S
N1817 C1809 1.427 . S
N1817 C1815 1.384 . S
H1818 C1824 0.930 . S
H1819 C1828 0.930 . S
H1820 C1833 0.929 . S
H1821 C1831 0.929 . S
H1822 C1826 0.929 . S
H1823 C1832 0.929 . S
C1824 H1818 0.930 . S
C1824 C1825 1.367 . S
C1824 C1832 1.378 . S
C1825 C1824 1.367 . S
C1825 C1833 1.433 . S
C1826 H1822 0.929 . S
C1826 C1828 1.378 . S
C1826 C1830 1.350 . S
C1827 C1830 1.463 . S
C1827 C1832 1.350 1_545 S
C1827 N1835 1.427 . S
C1828 H1819 0.930 . S
C1828 C1826 1.378 . S
C1828 C1829 1.367 . S
C1829 C1828 1.367 . S
C1829 C1831 1.433 . S
C1830 C1826 1.350 . S
C1830 C1827 1.463 . S
C1830 N1834 1.427 . S
C1831 H1821 0.929 . S
C1831 C1829 1.433 . S
C1831 N1834 1.384 . S
C1832 H1823 0.929 . S
C1832 C1824 1.378 . S
C1832 C1827 1.350 1_565 S
C1833 H1820 0.929 . S
C1833 C1825 1.433 . S
C1833 N1835 1.384 1_565 S
N1834 C1830 1.427 . S
N1834 C1831 1.384 . S
N1835 C1827 1.427 . S
N1835 C1833 1.384 1_545 S
H1836 C1842 0.933 . S
H1837 C1846 0.930 . S
H1838 C1851 0.929 . S
H1839 C1849 0.929 . S
H1840 C1844 0.929 . S
H1841 C1850 0.929 . S
C1842 H1836 0.933 . S
C1842 C1843 1.367 . S
C1842 C1850 1.378 1_554 S
C1843 C1842 1.367 . S
C1843 C1851 1.433 . S
C1844 H1840 0.929 . S
C1844 C1846 1.378 . S
C1844 C1848 1.350 . S
C1845 C1848 1.463 . S
C1845 C1850 1.350 . S
C1845 N1853 1.427 1_556 S
C1846 H1837 0.930 . S
C1846 C1844 1.378 . S
C1846 C1847 1.367 . S
C1847 C1846 1.367 . S
C1847 C1849 1.433 . S
C1848 C1844 1.350 . S
C1848 C1845 1.463 . S
C1848 N1852 1.427 . S
C1849 H1839 0.929 . S
C1849 C1847 1.433 . S
C1849 N1852 1.384 . S
C1850 H1841 0.929 . S
C1850 C1842 1.378 1_556 S
C1850 C1845 1.350 . S
C1851 H1838 0.929 . S
C1851 C1843 1.433 . S
C1851 N1853 1.384 . S
N1852 C1848 1.427 . S
N1852 C1849 1.384 . S
N1853 C1845 1.427 1_554 S
N1853 C1851 1.384 . S
H1854 C1860 0.930 . S
H1855 C1864 0.930 . S
H1856 C1869 0.929 . S
H1857 C1867 0.929 . S
H1858 C1862 0.929 . S
H1859 C1868 0.929 . S
C1860 H1854 0.930 . S
C1860 C1861 1.367 . S
C1860 C1868 1.378 . S
C1861 C1860 1.367 . S
C1861 C1869 1.433 . S
C1862 H1858 0.929 . S
C1862 C1864 1.378 . S
C1862 C1866 1.350 . S
C1863 C1866 1.463 . S
C1863 C1868 1.350 1_455 S
C1863 N1871 1.427 . S
C1864 H1855 0.930 . S
C1864 C1862 1.378 . S
C1864 C1865 1.367 . S
C1865 C1864 1.367 . S
C1865 C1867 1.433 . S
C1866 C1862 1.350 . S
C1866 C1863 1.463 . S
C1866 N1870 1.427 . S
C1867 H1857 0.929 . S
C1867 C1865 1.433 . S
C1867 N1870 1.384 . S
C1868 H1859 0.929 . S
C1868 C1860 1.378 . S
C1868 C1863 1.350 1_655 S
C1869 H1856 0.929 . S
C1869 C1861 1.433 . S
C1869 N1871 1.384 1_655 S
N1870 C1866 1.427 . S
N1870 C1867 1.384 . S
N1871 C1863 1.427 . S
N1871 C1869 1.384 1_455 S
H1872 C1878 0.930 . S
H1873 C1882 0.930 . S
H1874 C1887 0.929 . S
H1875 C1885 0.929 . S
H1876 C1880 0.929 . S
H1877 C1886 0.929 . S
C1878 H1872 0.930 . S
C1878 C1879 1.367 . S
C1878 C1886 1.378 . S
C1879 C1878 1.367 . S
C1879 C1887 1.433 . S
C1880 H1876 0.929 . S
C1880 C1882 1.378 . S
C1880 C1884 1.350 . S
C1881 C1884 1.463 . S
C1881 C1886 1.350 . S
C1881 N1889 1.427 . S
C1882 H1873 0.930 . S
C1882 C1880 1.378 . S
C1882 C1883 1.367 . S
C1883 C1882 1.367 . S
C1883 C1885 1.433 . S
C1884 C1880 1.350 . S
C1884 C1881 1.463 . S
C1884 N1888 1.427 . S
C1885 H1875 0.929 . S
C1885 C1883 1.433 . S
C1885 N1888 1.384 . S
C1886 H1877 0.929 . S
C1886 C1878 1.378 . S
C1886 C1881 1.350 . S
C1887 H1874 0.929 . S
C1887 C1879 1.433 . S
C1887 N1889 1.384 . S
N1888 C1884 1.427 . S
N1888 C1885 1.384 . S
N1889 C1881 1.427 . S
N1889 C1887 1.384 . S
H1890 C1896 0.930 . S
H1891 C1900 0.930 . S
H1892 C1905 0.929 . S
H1893 C1903 0.929 . S
H1894 C1898 0.929 . S
H1895 C1904 0.929 1_655 S
C1896 H1890 0.930 . S
C1896 C1897 1.367 . S
C1896 C1904 1.378 . S
C1897 C1896 1.367 . S
C1897 C1905 1.433 . S
C1898 H1894 0.929 . S
C1898 C1900 1.378 . S
C1898 C1902 1.350 . S
C1899 C1902 1.463 1_455 S
C1899 C1904 1.350 . S
C1899 N1907 1.427 . S
C1900 H1891 0.930 . S
C1900 C1898 1.378 . S
C1900 C1901 1.367 . S
C1901 C1900 1.367 . S
C1901 C1903 1.433 . S
C1902 C1898 1.350 . S
C1902 C1899 1.463 1_655 S
C1902 N1906 1.427 . S
C1903 H1893 0.929 . S
C1903 C1901 1.433 . S
C1903 N1906 1.384 . S
C1904 H1895 0.929 1_455 S
C1904 C1896 1.378 . S
C1904 C1899 1.350 . S
C1905 H1892 0.929 . S
C1905 C1897 1.433 . S
C1905 N1907 1.384 . S
N1906 C1902 1.427 . S
N1906 C1903 1.384 . S
N1907 C1899 1.427 . S
N1907 C1905 1.384 . S
H1908 C1914 0.930 . S
H1909 C1918 0.930 . S
H1910 C1923 0.929 . S
H1911 C1921 0.929 . S
H1912 C1916 0.929 . S
H1913 C1922 0.929 . S
C1914 H1908 0.930 . S
C1914 C1915 1.367 1_655 S
C1914 C1922 1.378 . S
C1915 C1914 1.367 1_455 S
C1915 C1923 1.433 . S
C1916 H1912 0.929 . S
C1916 C1918 1.378 . S
C1916 C1920 1.350 . S
C1917 C1920 1.463 . S
C1917 C1922 1.350 . S
C1917 N1925 1.427 . S
C1918 H1909 0.930 . S
C1918 C1916 1.378 . S
C1918 C1919 1.367 . S
C1919 C1918 1.367 . S
C1919 C1921 1.433 . S
C1920 C1916 1.350 . S
C1920 C1917 1.463 . S
C1920 N1924 1.427 . S
C1921 H1911 0.929 . S
C1921 C1919 1.433 . S
C1921 N1924 1.384 . S
C1922 H1913 0.929 . S
C1922 C1914 1.378 . S
C1922 C1917 1.350 . S
C1923 H1910 0.929 . S
C1923 C1915 1.433 . S
C1923 N1925 1.384 1_455 S
N1924 C1920 1.427 . S
N1924 C1921 1.384 . S
N1925 C1917 1.427 . S
N1925 C1923 1.384 1_655 S
H1926 C1932 0.930 . S
H1927 C1936 0.930 . S
H1928 C1941 0.929 . S
H1929 C1939 0.929 . S
H1930 C1934 0.929 . S
H1931 C1940 0.929 . S
C1932 H1926 0.930 . S
C1932 C1933 1.367 . S
C1932 C1940 1.378 . S
C1933 C1932 1.367 . S
C1933 C1941 1.433 . S
C1934 H1930 0.929 . S
C1934 C1936 1.378 . S
C1934 C1938 1.350 . S
C1935 C1938 1.463 . S
C1935 C1940 1.350 . S
C1935 N1943 1.427 . S
C1936 H1927 0.930 . S
C1936 C1934 1.378 . S
C1936 C1937 1.367 . S
C1937 C1936 1.367 . S
C1937 C1939 1.433 . S
C1938 C1934 1.350 . S
C1938 C1935 1.463 . S
C1938 N1942 1.427 . S
C1939 H1929 0.929 . S
C1939 C1937 1.433 . S
C1939 N1942 1.384 . S
C1940 H1931 0.929 . S
C1940 C1932 1.378 . S
C1940 C1935 1.350 . S
C1941 H1928 0.929 . S
C1941 C1933 1.433 . S
C1941 N1943 1.384 . S
N1942 C1938 1.427 . S
N1942 C1939 1.384 . S
N1943 C1935 1.427 . S
N1943 C1941 1.384 . S
H1944 C1950 0.930 . S
H1945 C1954 0.930 . S
H1946 C1959 0.929 . S
H1947 C1957 0.929 . S
H1948 C1952 0.929 . S
H1949 C1958 0.927 . S
C1950 H1944 0.930 . S
C1950 C1951 1.367 . S
C1950 C1958 1.378 . S
C1951 C1950 1.367 . S
C1951 C1959 1.433 . S
C1952 H1948 0.929 . S
C1952 C1954 1.378 . S
C1952 C1956 1.350 . S
C1953 C1956 1.463 . S
C1953 C1958 1.350 1_455 S
C1953 N1961 1.427 1_455 S
C1954 H1945 0.930 . S
C1954 C1952 1.378 . S
C1954 C1955 1.367 . S
C1955 C1954 1.367 . S
C1955 C1957 1.433 . S
C1956 C1952 1.350 . S
C1956 C1953 1.463 . S
C1956 N1960 1.427 . S
C1957 H1947 0.929 . S
C1957 C1955 1.433 . S
C1957 N1960 1.384 . S
C1958 H1949 0.927 . S
C1958 C1950 1.378 . S
C1958 C1953 1.350 1_655 S
C1959 H1946 0.929 . S
C1959 C1951 1.433 . S
C1959 N1961 1.384 . S
N1960 C1956 1.427 . S
N1960 C1957 1.384 . S
N1961 C1953 1.427 1_655 S
N1961 C1959 1.384 . S
H1962 C1968 0.930 . S
H1963 C1972 0.930 . S
H1964 C1977 0.929 . S
H1965 C1975 0.929 . S
H1966 C1970 0.929 . S
H1967 C1976 0.929 . S
C1968 H1962 0.930 . S
C1968 C1969 1.367 . S
C1968 C1976 1.378 . S
C1969 C1968 1.367 . S
C1969 C1977 1.433 . S
C1970 H1966 0.929 . S
C1970 C1972 1.378 . S
C1970 C1974 1.350 . S
C1971 C1974 1.463 . S
C1971 C1976 1.350 . S
C1971 N1979 1.427 . S
C1972 H1963 0.930 . S
C1972 C1970 1.378 . S
C1972 C1973 1.367 . S
C1973 C1972 1.367 . S
C1973 C1975 1.433 . S
C1974 C1970 1.350 . S
C1974 C1971 1.463 . S
C1974 N1978 1.427 . S
C1975 H1965 0.929 . S
C1975 C1973 1.433 . S
C1975 N1978 1.384 . S
C1976 H1967 0.929 . S
C1976 C1968 1.378 . S
C1976 C1971 1.350 . S
C1977 H1964 0.929 . S
C1977 C1969 1.433 . S
C1977 N1979 1.384 . S
N1978 C1974 1.427 . S
N1978 C1975 1.384 . S
N1979 C1971 1.427 . S
N1979 C1977 1.384 . S
H1980 C1986 0.930 . S
H1981 C1990 0.930 . S
H1982 C1995 0.929 . S
H1983 C1993 0.929 . S
H1984 C1988 0.929 . S
H1985 C1994 0.929 . S
C1986 H1980 0.930 . S
C1986 C1987 1.367 . S
C1986 C1994 1.378 . S
C1987 C1986 1.367 . S
C1987 C1995 1.433 . S
C1988 H1984 0.929 . S
C1988 C1990 1.378 . S
C1988 C1992 1.350 . S
C1989 C1992 1.463 . S
C1989 C1994 1.350 . S
C1989 N1997 1.427 . S
C1990 H1981 0.930 . S
C1990 C1988 1.378 . S
C1990 C1991 1.367 . S
C1991 C1990 1.367 . S
C1991 C1993 1.433 . S
C1992 C1988 1.350 . S
C1992 C1989 1.463 . S
C1992 N1996 1.427 . S
C1993 H1983 0.929 . S
C1993 C1991 1.433 . S
C1993 N1996 1.384 . S
C1994 H1985 0.929 . S
C1994 C1986 1.378 . S
C1994 C1989 1.350 . S
C1995 H1982 0.929 . S
C1995 C1987 1.433 . S
C1995 N1997 1.384 . S
N1996 C1992 1.427 . S
N1996 C1993 1.384 . S
N1997 C1989 1.427 . S
N1997 C1995 1.384 . S
H1998 C2004 0.930 . S
H1999 C2008 0.930 . S
H2000 C2013 0.929 . S
H2001 C2011 0.929 . S
H2002 C2006 0.929 . S
H2003 C2012 0.929 . S
C2004 H1998 0.930 . S
C2004 C2005 1.367 . S
C2004 C2012 1.378 . S
C2005 C2004 1.367 . S
C2005 C2013 1.433 . S
C2006 H2002 0.929 . S
C2006 C2008 1.378 . S
C2006 C2010 1.350 . S
C2007 C2010 1.463 1_554 S
C2007 C2012 1.350 . S
C2007 N2015 1.427 . S
C2008 H1999 0.930 . S
C2008 C2006 1.378 . S
C2008 C2009 1.367 . S
C2009 C2008 1.367 . S
C2009 C2011 1.433 . S
C2010 C2006 1.350 . S
C2010 C2007 1.463 1_556 S
C2010 N2014 1.427 . S
C2011 H2001 0.929 . S
C2011 C2009 1.433 . S
C2011 N2014 1.384 . S
C2012 H2003 0.929 . S
C2012 C2004 1.378 . S
C2012 C2007 1.350 . S
C2013 H2000 0.929 . S
C2013 C2005 1.433 . S
C2013 N2015 1.384 . S
N2014 C2010 1.427 . S
N2014 C2011 1.384 . S
N2015 C2007 1.427 . S
N2015 C2013 1.384 . S
H2016 C2022 0.930 . S
H2017 C2026 0.930 . S
H2018 C2031 0.929 . S
H2019 C2029 0.929 . S
H2020 C2024 0.929 . S
H2021 C2030 0.929 . S
C2022 H2016 0.930 . S
C2022 C2023 1.367 . S
C2022 C2030 1.378 . S
C2023 C2022 1.367 . S
C2023 C2031 1.433 . S
C2024 H2020 0.929 . S
C2024 C2026 1.378 . S
C2024 C2028 1.350 . S
C2025 C2028 1.463 . S
C2025 C2030 1.350 . S
C2025 N2033 1.427 . S
C2026 H2017 0.930 . S
C2026 C2024 1.378 . S
C2026 C2027 1.367 . S
C2027 C2026 1.367 . S
C2027 C2029 1.433 . S
C2028 C2024 1.350 . S
C2028 C2025 1.463 . S
C2028 N2032 1.427 . S
C2029 H2019 0.929 . S
C2029 C2027 1.433 . S
C2029 N2032 1.384 . S
C2030 H2021 0.929 . S
C2030 C2022 1.378 . S
C2030 C2025 1.350 . S
C2031 H2018 0.929 . S
C2031 C2023 1.433 . S
C2031 N2033 1.384 . S
N2032 C2028 1.427 . S
N2032 C2029 1.384 . S
N2033 C2025 1.427 . S
N2033 C2031 1.384 . S
H2034 C2040 0.930 . S
H2035 C2044 0.930 . S
H2036 C2049 0.929 . S
H2037 C2047 0.929 . S
H2038 C2042 0.929 . S
H2039 C2048 0.929 . S
C2040 H2034 0.930 . S
C2040 C2041 1.367 . S
C2040 C2048 1.378 . S
C2041 C2040 1.367 . S
C2041 C2049 1.433 . S
C2042 H2038 0.929 . S
C2042 C2044 1.378 . S
C2042 C2046 1.350 . S
C2043 C2046 1.463 . S
C2043 C2048 1.350 . S
C2043 N2051 1.427 . S
C2044 H2035 0.930 . S
C2044 C2042 1.378 . S
C2044 C2045 1.367 . S
C2045 C2044 1.367 . S
C2045 C2047 1.433 . S
C2046 C2042 1.350 . S
C2046 C2043 1.463 . S
C2046 N2050 1.427 . S
C2047 H2037 0.929 . S
C2047 C2045 1.433 . S
C2047 N2050 1.384 . S
C2048 H2039 0.929 . S
C2048 C2040 1.378 . S
C2048 C2043 1.350 . S
C2049 H2036 0.929 . S
C2049 C2041 1.433 . S
C2049 N2051 1.384 . S
N2050 C2046 1.427 . S
N2050 C2047 1.384 . S
N2051 C2043 1.427 . S
N2051 C2049 1.384 . S
H2052 C2058 0.930 . S
H2053 C2062 0.930 . S
H2054 C2067 0.929 . S
H2055 C2065 0.929 . S
H2056 C2060 0.929 . S
H2057 C2066 0.929 . S
C2058 H2052 0.930 . S
C2058 C2059 1.367 . S
C2058 C2066 1.378 . S
C2059 C2058 1.367 . S
C2059 C2067 1.433 . S
C2060 H2056 0.929 . S
C2060 C2062 1.378 . S
C2060 C2064 1.350 . S
C2061 C2064 1.463 . S
C2061 C2066 1.350 . S
C2061 N2069 1.427 . S
C2062 H2053 0.930 . S
C2062 C2060 1.378 . S
C2062 C2063 1.367 . S
C2063 C2062 1.367 . S
C2063 C2065 1.433 . S
C2064 C2060 1.350 . S
C2064 C2061 1.463 . S
C2064 N2068 1.427 . S
C2065 H2055 0.929 . S
C2065 C2063 1.433 . S
C2065 N2068 1.384 . S
C2066 H2057 0.929 . S
C2066 C2058 1.378 . S
C2066 C2061 1.350 . S
C2067 H2054 0.929 . S
C2067 C2059 1.433 . S
C2067 N2069 1.384 . S
N2068 C2064 1.427 . S
N2068 C2065 1.384 . S
N2069 C2061 1.427 . S
N2069 C2067 1.384 . S
H2070 C2076 0.930 . S
H2071 C2080 0.930 . S
H2072 C2085 0.929 . S
H2073 C2083 0.929 . S
H2074 C2078 0.929 1_554 S
H2075 C2084 0.929 . S
C2076 H2070 0.930 . S
C2076 C2077 1.367 . S
C2076 C2084 1.378 . S
C2077 C2076 1.367 . S
C2077 C2085 1.433 . S
C2078 H2074 0.929 1_556 S
C2078 C2080 1.378 . S
C2078 C2082 1.349 . S
C2079 C2082 1.465 1_554 S
C2079 C2084 1.350 . S
C2079 N2087 1.427 . S
C2080 H2071 0.930 . S
C2080 C2078 1.378 . S
C2080 C2081 1.367 . S
C2081 C2080 1.367 . S
C2081 C2083 1.433 . S
C2082 C2078 1.349 . S
C2082 C2079 1.465 1_556 S
C2082 N2086 1.425 . S
C2083 H2073 0.929 . S
C2083 C2081 1.433 . S
C2083 N2086 1.384 . S
C2084 H2075 0.929 . S
C2084 C2076 1.378 . S
C2084 C2079 1.350 . S
C2085 H2072 0.929 . S
C2085 C2077 1.433 . S
C2085 N2087 1.384 . S
N2086 C2082 1.425 . S
N2086 C2083 1.384 . S
N2087 C2079 1.427 . S
N2087 C2085 1.384 . S
H2088 C2094 0.930 . S
H2089 C2098 0.930 . S
H2090 C2103 0.929 . S
H2091 C2101 0.929 . S
H2092 C2096 0.929 . S
H2093 C2102 0.929 . S
C2094 H2088 0.930 . S
C2094 C2095 1.367 . S
C2094 C2102 1.378 . S
C2095 C2094 1.367 . S
C2095 C2103 1.433 . S
C2096 H2092 0.929 . S
C2096 C2098 1.378 . S
C2096 C2100 1.350 . S
C2097 C2100 1.463 . S
C2097 C2102 1.350 . S
C2097 N2105 1.427 . S
C2098 H2089 0.930 . S
C2098 C2096 1.378 . S
C2098 C2099 1.367 . S
C2099 C2098 1.367 . S
C2099 C2101 1.433 . S
C2100 C2096 1.350 . S
C2100 C2097 1.463 . S
C2100 N2104 1.427 . S
C2101 H2091 0.929 . S
C2101 C2099 1.433 . S
C2101 N2104 1.384 . S
C2102 H2093 0.929 . S
C2102 C2094 1.378 . S
C2102 C2097 1.350 . S
C2103 H2090 0.929 . S
C2103 C2095 1.433 . S
C2103 N2105 1.384 . S
N2104 C2100 1.427 . S
N2104 C2101 1.384 . S
N2105 C2097 1.427 . S
N2105 C2103 1.384 . S
H2106 C2112 0.930 . S
H2107 C2116 0.930 . S
H2108 C2121 0.929 . S
H2109 C2119 0.929 . S
H2110 C2114 0.929 . S
H2111 C2120 0.929 . S
C2112 H2106 0.930 . S
C2112 C2113 1.367 . S
C2112 C2120 1.378 . S
C2113 C2112 1.367 . S
C2113 C2121 1.433 . S
C2114 H2110 0.929 . S
C2114 C2116 1.378 . S
C2114 C2118 1.350 . S
C2115 C2118 1.463 . S
C2115 C2120 1.350 . S
C2115 N2123 1.427 . S
C2116 H2107 0.930 . S
C2116 C2114 1.378 . S
C2116 C2117 1.367 . S
C2117 C2116 1.367 . S
C2117 C2119 1.433 . S
C2118 C2114 1.350 . S
C2118 C2115 1.463 . S
C2118 N2122 1.427 . S
C2119 H2109 0.929 . S
C2119 C2117 1.433 . S
C2119 N2122 1.384 . S
C2120 H2111 0.929 . S
C2120 C2112 1.378 . S
C2120 C2115 1.350 . S
C2121 H2108 0.929 . S
C2121 C2113 1.433 . S
C2121 N2123 1.384 . S
N2122 C2118 1.427 . S
N2122 C2119 1.384 . S
N2123 C2115 1.427 . S
N2123 C2121 1.384 . S
H2124 C2130 0.930 . S
H2125 C2134 0.930 . S
H2126 C2139 0.929 . S
H2127 C2137 0.929 . S
H2128 C2132 0.929 . S
H2129 C2138 0.929 . S
C2130 H2124 0.930 . S
C2130 C2131 1.367 . S
C2130 C2138 1.378 . S
C2131 C2130 1.367 . S
C2131 C2139 1.433 . S
C2132 H2128 0.929 . S
C2132 C2134 1.378 . S
C2132 C2136 1.350 . S
C2133 C2136 1.463 . S
C2133 C2138 1.350 . S
C2133 N2141 1.427 . S
C2134 H2125 0.930 . S
C2134 C2132 1.378 . S
C2134 C2135 1.367 . S
C2135 C2134 1.367 . S
C2135 C2137 1.433 . S
C2136 C2132 1.350 . S
C2136 C2133 1.463 . S
C2136 N2140 1.427 . S
C2137 H2127 0.929 . S
C2137 C2135 1.433 . S
C2137 N2140 1.384 . S
C2138 H2129 0.929 . S
C2138 C2130 1.378 . S
C2138 C2133 1.350 . S
C2139 H2126 0.929 . S
C2139 C2131 1.433 . S
C2139 N2141 1.384 . S
N2140 C2136 1.427 . S
N2140 C2137 1.384 . S
N2141 C2133 1.427 . S
N2141 C2139 1.384 . S
H2142 C2148 0.930 . S
H2143 C2152 0.930 . S
H2144 C2157 0.929 . S
H2145 C2155 0.929 . S
H2146 C2150 0.929 . S
H2147 C2156 0.929 . S
C2148 H2142 0.930 . S
C2148 C2149 1.367 . S
C2148 C2156 1.378 . S
C2149 C2148 1.367 . S
C2149 C2157 1.433 . S
C2150 H2146 0.929 . S
C2150 C2152 1.378 . S
C2150 C2154 1.350 . S
C2151 C2154 1.463 . S
C2151 C2156 1.350 . S
C2151 N2159 1.427 . S
C2152 H2143 0.930 . S
C2152 C2150 1.378 . S
C2152 C2153 1.367 . S
C2153 C2152 1.367 . S
C2153 C2155 1.433 . S
C2154 C2150 1.350 . S
C2154 C2151 1.463 . S
C2154 N2158 1.427 . S
C2155 H2145 0.929 . S
C2155 C2153 1.433 . S
C2155 N2158 1.384 . S
C2156 H2147 0.929 . S
C2156 C2148 1.378 . S
C2156 C2151 1.350 . S
C2157 H2144 0.929 . S
C2157 C2149 1.433 . S
C2157 N2159 1.384 . S
N2158 C2154 1.427 . S
N2158 C2155 1.384 . S
N2159 C2151 1.427 . S
N2159 C2157 1.384 . S
H2160 C2166 0.930 . S
H2161 C2170 0.930 . S
H2162 C2175 0.929 . S
H2163 C2173 0.929 . S
H2164 C2168 0.929 . S
H2165 C2174 0.929 . S
C2166 H2160 0.930 . S
C2166 C2167 1.367 . S
C2166 C2174 1.378 . S
C2167 C2166 1.367 . S
C2167 C2175 1.433 . S
C2168 H2164 0.929 . S
C2168 C2170 1.378 . S
C2168 C2172 1.347 1_556 S
C2169 C2172 1.465 . S
C2169 C2174 1.350 . S
C2169 N2177 1.427 . S
C2170 H2161 0.930 . S
C2170 C2168 1.378 . S
C2170 C2171 1.367 . S
C2171 C2170 1.367 . S
C2171 C2173 1.433 . S
C2172 C2168 1.347 1_554 S
C2172 C2169 1.465 . S
C2172 N2176 1.428 . S
C2173 H2163 0.929 . S
C2173 C2171 1.433 . S
C2173 N2176 1.384 1_556 S
C2174 H2165 0.929 . S
C2174 C2166 1.378 . S
C2174 C2169 1.350 . S
C2175 H2162 0.929 . S
C2175 C2167 1.433 . S
C2175 N2177 1.384 . S
N2176 C2172 1.428 . S
N2176 C2173 1.384 1_554 S
N2177 C2169 1.427 . S
N2177 C2175 1.384 . S
H2178 C2184 0.930 . S
H2179 C2188 0.930 . S
H2180 C2193 0.929 . S
H2181 C2191 0.929 . S
H2182 C2186 0.929 . S
H2183 C2192 0.929 . S
C2184 H2178 0.930 . S
C2184 C2185 1.367 . S
C2184 C2192 1.378 . S
C2185 C2184 1.367 . S
C2185 C2193 1.433 . S
C2186 H2182 0.929 . S
C2186 C2188 1.378 . S
C2186 C2190 1.350 . S
C2187 C2190 1.463 . S
C2187 C2192 1.350 . S
C2187 N2195 1.427 . S
C2188 H2179 0.930 . S
C2188 C2186 1.378 . S
C2188 C2189 1.367 . S
C2189 C2188 1.367 . S
C2189 C2191 1.433 . S
C2190 C2186 1.350 . S
C2190 C2187 1.463 . S
C2190 N2194 1.427 . S
C2191 H2181 0.929 . S
C2191 C2189 1.433 . S
C2191 N2194 1.384 . S
C2192 H2183 0.929 . S
C2192 C2184 1.378 . S
C2192 C2187 1.350 . S
C2193 H2180 0.929 . S
C2193 C2185 1.433 . S
C2193 N2195 1.384 . S
N2194 C2190 1.427 . S
N2194 C2191 1.384 . S
N2195 C2187 1.427 . S
N2195 C2193 1.384 . S
H2196 C2202 0.930 . S
H2197 C2206 0.930 . S
H2198 C2211 0.929 . S
H2199 C2209 0.929 . S
H2200 C2204 0.929 . S
H2201 C2210 0.929 . S
C2202 H2196 0.930 . S
C2202 C2203 1.367 . S
C2202 C2210 1.378 . S
C2203 C2202 1.367 . S
C2203 C2211 1.433 . S
C2204 H2200 0.929 . S
C2204 C2206 1.378 . S
C2204 C2208 1.350 . S
C2205 C2208 1.463 . S
C2205 C2210 1.350 . S
C2205 N2213 1.427 . S
C2206 H2197 0.930 . S
C2206 C2204 1.378 . S
C2206 C2207 1.367 . S
C2207 C2206 1.367 . S
C2207 C2209 1.433 . S
C2208 C2204 1.350 . S
C2208 C2205 1.463 . S
C2208 N2212 1.427 . S
C2209 H2199 0.929 . S
C2209 C2207 1.433 . S
C2209 N2212 1.384 . S
C2210 H2201 0.929 . S
C2210 C2202 1.378 . S
C2210 C2205 1.350 . S
C2211 H2198 0.929 . S
C2211 C2203 1.433 . S
C2211 N2213 1.384 . S
N2212 C2208 1.427 . S
N2212 C2209 1.384 . S
N2213 C2205 1.427 . S
N2213 C2211 1.384 . S
H2214 C2220 0.930 . S
H2215 C2224 0.930 . S
H2216 C2229 0.929 . S
H2217 C2227 0.929 . S
H2218 C2222 0.929 . S
H2219 C2228 0.929 . S
C2220 H2214 0.930 . S
C2220 C2221 1.367 . S
C2220 C2228 1.378 . S
C2221 C2220 1.367 . S
C2221 C2229 1.433 . S
C2222 H2218 0.929 . S
C2222 C2224 1.378 . S
C2222 C2226 1.350 . S
C2223 C2226 1.463 . S
C2223 C2228 1.350 . S
C2223 N2231 1.427 . S
C2224 H2215 0.930 . S
C2224 C2222 1.378 . S
C2224 C2225 1.367 . S
C2225 C2224 1.367 . S
C2225 C2227 1.433 . S
C2226 C2222 1.350 . S
C2226 C2223 1.463 . S
C2226 N2230 1.427 . S
C2227 H2217 0.929 . S
C2227 C2225 1.433 . S
C2227 N2230 1.384 . S
C2228 H2219 0.929 . S
C2228 C2220 1.378 . S
C2228 C2223 1.350 . S
C2229 H2216 0.929 . S
C2229 C2221 1.433 . S
C2229 N2231 1.384 . S
N2230 C2226 1.427 . S
N2230 C2227 1.384 . S
N2231 C2223 1.427 . S
N2231 C2229 1.384 . S
H2232 C2238 0.930 . S
H2233 C2242 0.930 . S
H2234 C2247 0.929 . S
H2235 C2245 0.929 . S
H2236 C2240 0.929 . S
H2237 C2246 0.929 . S
C2238 H2232 0.930 . S
C2238 C2239 1.367 . S
C2238 C2246 1.378 . S
C2239 C2238 1.367 . S
C2239 C2247 1.433 . S
C2240 H2236 0.929 . S
C2240 C2242 1.378 . S
C2240 C2244 1.350 . S
C2241 C2244 1.454 1_554 S
C2241 C2246 1.362 . S
C2241 N2249 1.423 1_554 S
C2242 H2233 0.930 . S
C2242 C2240 1.378 . S
C2242 C2243 1.367 . S
C2243 C2242 1.367 . S
C2243 C2245 1.433 . S
C2244 C2240 1.350 . S
C2244 C2241 1.454 1_556 S
C2244 N2248 1.427 . S
C2245 H2235 0.929 . S
C2245 C2243 1.433 . S
C2245 N2248 1.384 . S
C2246 H2237 0.929 . S
C2246 C2238 1.378 . S
C2246 C2241 1.362 . S
C2247 H2234 0.929 . S
C2247 C2239 1.433 . S
C2247 N2249 1.384 1_554 S
N2248 C2244 1.427 . S
N2248 C2245 1.384 . S
N2249 C2241 1.423 1_556 S
N2249 C2247 1.384 1_556 S
H2250 C2256 0.930 . S
H2251 C2260 0.930 . S
H2252 C2265 0.929 . S
H2253 C2263 0.929 . S
H2254 C2258 0.929 . S
H2255 C2264 0.929 . S
C2256 H2250 0.930 . S
C2256 C2257 1.367 . S
C2256 C2264 1.378 . S
C2257 C2256 1.367 . S
C2257 C2265 1.433 . S
C2258 H2254 0.929 . S
C2258 C2260 1.378 . S
C2258 C2262 1.350 . S
C2259 C2262 1.463 . S
C2259 C2264 1.350 . S
C2259 N2267 1.427 . S
C2260 H2251 0.930 . S
C2260 C2258 1.378 . S
C2260 C2261 1.367 . S
C2261 C2260 1.367 . S
C2261 C2263 1.433 . S
C2262 C2258 1.350 . S
C2262 C2259 1.463 . S
C2262 N2266 1.427 . S
C2263 H2253 0.929 . S
C2263 C2261 1.433 . S
C2263 N2266 1.384 . S
C2264 H2255 0.929 . S
C2264 C2256 1.378 . S
C2264 C2259 1.350 . S
C2265 H2252 0.929 . S
C2265 C2257 1.433 . S
C2265 N2267 1.384 . S
N2266 C2262 1.427 . S
N2266 C2263 1.384 . S
N2267 C2259 1.427 . S
N2267 C2265 1.384 . S
H2268 C2274 0.930 . S
H2269 C2278 0.930 . S
H2270 C2283 0.929 . S
H2271 C2281 0.929 . S
H2272 C2276 0.929 . S
H2273 C2282 0.929 . S
C2274 H2268 0.930 . S
C2274 C2275 1.367 . S
C2274 C2282 1.378 . S
C2275 C2274 1.367 . S
C2275 C2283 1.433 . S
C2276 H2272 0.929 . S
C2276 C2278 1.378 . S
C2276 C2280 1.350 . S
C2277 C2280 1.463 . S
C2277 C2282 1.350 . S
C2277 N2285 1.427 . S
C2278 H2269 0.930 . S
C2278 C2276 1.378 . S
C2278 C2279 1.367 . S
C2279 C2278 1.367 . S
C2279 C2281 1.433 . S
C2280 C2276 1.350 . S
C2280 C2277 1.463 . S
C2280 N2284 1.427 . S
C2281 H2271 0.929 . S
C2281 C2279 1.433 . S
C2281 N2284 1.384 . S
C2282 H2273 0.929 . S
C2282 C2274 1.378 . S
C2282 C2277 1.350 . S
C2283 H2270 0.929 . S
C2283 C2275 1.433 . S
C2283 N2285 1.384 . S
N2284 C2280 1.427 . S
N2284 C2281 1.384 . S
N2285 C2277 1.427 . S
N2285 C2283 1.384 . S
H2286 C2292 0.930 . S
H2287 C2296 0.930 . S
H2288 C2301 0.929 . S
H2289 C2299 0.929 . S
H2290 C2294 0.929 . S
H2291 C2300 0.929 . S
C2292 H2286 0.930 . S
C2292 C2293 1.367 . S
C2292 C2300 1.378 . S
C2293 C2292 1.367 . S
C2293 C2301 1.433 . S
C2294 H2290 0.929 . S
C2294 C2296 1.378 . S
C2294 C2298 1.350 . S
C2295 C2298 1.463 . S
C2295 C2300 1.350 . S
C2295 N2303 1.427 . S
C2296 H2287 0.930 . S
C2296 C2294 1.378 . S
C2296 C2297 1.367 . S
C2297 C2296 1.367 . S
C2297 C2299 1.433 . S
C2298 C2294 1.350 . S
C2298 C2295 1.463 . S
C2298 N2302 1.427 . S
C2299 H2289 0.929 . S
C2299 C2297 1.433 . S
C2299 N2302 1.384 . S
C2300 H2291 0.929 . S
C2300 C2292 1.378 . S
C2300 C2295 1.350 . S
C2301 H2288 0.929 . S
C2301 C2293 1.433 . S
C2301 N2303 1.384 . S
N2302 C2298 1.427 . S
N2302 C2299 1.384 . S
N2303 C2295 1.427 . S
N2303 C2301 1.384 . S
C1159 C2 0.671 . S
C1163 C470 0.676 . S
C1177 C902 1.191 . S
C1181 C38 1.190 . S
C1195 C74 1.337 . S
C1199 C542 1.335 . S
C1213 C110 1.606 . S
C1217 C866 1.610 . S
C1231 C146 1.481 . S
C1235 C614 1.480 . S
C1249 C182 1.355 . S
C1253 C794 1.352 . S
C1267 C218 1.325 . S
C1271 C686 1.322 . S
C1285 C1118 0.693 . S
C1289 C254 0.692 . S
C1303 C758 1.476 . S
C1307 C290 1.479 . S
C1321 C326 1.355 . S
C1325 C650 1.354 . S
C1339 C830 1.323 . S
C1343 C362 1.325 . S
C1357 C398 1.609 . S
C1361 C578 1.608 . S
C1375 C506 1.190 . S
C1379 C434 1.192 . S
C1393 C722 0.695 . S
C1397 C1010 0.694 . S
C1411 C1046 0.672 . S
C1415 C938 0.676 . S
C1429 C1082 1.337 . S
C1433 C974 1.336 . S
C1447 C14 1.389 . S
C1451 C39 1.505 . S
C1465 C76 1.361 . S
C1469 C40 1.380 . S
C1483 C122 1.575 . S
C1487 C86 1.526 . S
C1501 C111 1.418 . S
C1505 C4 1.406 . S
C1519 C266 1.373 . S
C1523 C147 1.478 . S
C1537 C183 1.553 . S
C1541 C158 1.454 . S
C1555 C230 1.680 . S
C1559 C194 1.683 . S
C1573 C220 1.599 . S
C1577 C255 1.608 . S
C1591 C328 1.778 . S
C1595 C3 1.787 . S
C1609 C292 1.377 . S
C1613 C112 1.358 . S
C1627 C363 1.420 . S
C1631 C50 1.320 . S
C1645 C975 1.640 . S
C1649 C256 1.624 . S
C1663 C1012 1.625 . S
C1667 C75 1.641 . S
C1681 C400 1.366 . S
C1685 C148 1.373 . S
C1699 C219 1.421 . S
C1703 C446 1.328 . S
C1717 C508 1.632 . S
C1721 C472 1.627 . S
C1735 C554 1.587 . S
C1739 C507 1.669 . S
C1753 C580 1.486 . S
C1757 C544 1.484 . S
C1771 C482 1.602 . S
C1775 C579 1.701 . S
C1789 C616 1.588 . S
C1793 C723 1.612 . S
C1807 C626 1.371 . S
C1811 C662 1.369 . S
C1825 C687 1.224 . S
C1829 C651 1.216 . S
C1843 C688 1.520 . S
C1847 C734 1.418 . S
C1861 C471 1.490 . S
C1865 C796 1.464 . S
C1879 C759 1.640 . S
C1883 C590 1.529 . S
C1897 C842 1.586 . S
C1901 C518 1.587 . S
C1915 C1083 1.702 . S
C1919 C724 1.693 . S
C1933 C1120 1.690 . S
C1937 C543 1.704 . S
C1951 C615 1.645 . S
C1955 C878 1.517 . S
C1969 C914 1.588 . S
C1973 C698 1.590 . S
C1987 C435 1.501 . S
C1991 C950 1.388 . S
C2005 C976 1.373 . S
C2009 C436 1.379 . S
C2023 C410 1.560 . S
C2027 C986 1.543 . S
C2041 C399 1.411 . S
C2045 C940 1.400 . S
C2059 C291 1.476 . S
C2063 C1022 1.356 . S
C2077 C327 1.556 . S
C2081 C302 1.459 . S
C2095 C374 1.680 . S
C2099 C338 1.685 . S
C2113 C364 1.603 . S
C2117 C1011 1.608 . S
C2131 C939 1.785 . S
C2135 C184 1.774 . S
C2149 C904 1.630 . S
C2153 C1048 1.627 . S
C2167 C903 1.667 . S
C2171 C1094 1.574 . S
C2185 C1084 1.482 . S
C2189 C868 1.485 . S
C2203 C867 1.702 . S
C2207 C1058 1.589 . S
C2221 C1119 1.612 . S
C2225 C760 1.589 . S
C2239 C770 1.354 . S
C2243 C806 1.346 . S
C2257 C831 1.223 . S
C2261 C795 1.218 . S
C2275 C832 1.513 . S
C2279 C1130 1.397 . S
C2293 C1047 1.489 . S
C2297 C652 1.467 . S
