# Generated by pormake.
# Topology kag, (6)-cn, num edge types: 1
# Building blocks:
#     Node 0, Type 0, BuildingBlock: HISSIN_clean_sbu_0, # of connection points: 6
#     Node 1, Type 0, BuildingBlock: HISSIN_clean_sbu_0, # of connection points: 6
#     Node 2, Type 0, BuildingBlock: HISSIN_clean_sbu_0, # of connection points: 6
#     Edge 3, Type (0, 0), BuildingBlock: MIFKUJ_clean_linker_0, # of connection points: 2
#     Edge 4, Type (0, 0), BuildingBlock: MIFKUJ_clean_linker_0, # of connection points: 2
#     Edge 5, Type (0, 0), BuildingBlock: MIFKUJ_clean_linker_0, # of connection points: 2
#     Edge 6, Type (0, 0), BuildingBlock: MIFKUJ_clean_linker_0, # of connection points: 2
#     Edge 7, Type (0, 0), BuildingBlock: MIFKUJ_clean_linker_0, # of connection points: 2
#     Edge 8, Type (0, 0), BuildingBlock: MIFKUJ_clean_linker_0, # of connection points: 2
#     Edge 9, Type (0, 0), BuildingBlock: MIFKUJ_clean_linker_0, # of connection points: 2
#     Edge 10, Type (0, 0), BuildingBlock: MIFKUJ_clean_linker_0, # of connection points: 2
#     Edge 11, Type (0, 0), BuildingBlock: MIFKUJ_clean_linker_0, # of connection points: 2
# Relax obj value: 0.054
# Max RMSD: 0.160
# Mean RMSD: 0.094
data_MOF--net-kag--node1-HISSIN_clean_sbu_0--edge1-MIFKUJ_clean_linker_0
_symmetry_space_group_name_H-M    P1
_symmetry_Int_Tables_number       1
_symmetry_cell_setting            triclinic
loop_
_symmetry_equiv_pos_as_xyz
'x, y, z'
_cell_length_a     51.441056
_cell_length_b     40.310483
_cell_length_c     19.790688
_cell_angle_alpha  91.761785
_cell_angle_beta   95.476048
_cell_angle_gamma 101.11371
loop_
_atom_site_label
_atom_site_type_symbol
_atom_site_fract_x
_atom_site_fract_y
_atom_site_fract_z
_atom_type_partial_charge
Eu0 Eu 1.0074 0.49951 0.98316 0.0
Eu1 Eu 0.0226 0.58243 0.98821 0.0
C2 C 0.02013 0.5425 0.12466 0.0
C3 C 0.96671 0.4119 -0.00861 0.0
C4 C 0.94716 0.42591 0.02041 0.0
C5 C 0.93726 0.35683 0.98296 0.0
C6 C 0.92273 0.40554 0.03031 0.0
C7 C 0.96171 0.37727 0.9731 0.0
C8 C 0.91739 0.37079 0.01115 0.0
C9 C 0.99156 0.43381 0.97659 0.0
O10 O 0.06055 0.5648 0.96772 0.0
O11 O 0.0522 0.51101 0.00657 0.0
C12 C 0.06876 0.53735 0.98761 0.0
O13 O 0.01953 0.51568 0.88074 0.0
O14 O 0.02984 0.63239 0.04076 0.0
O15 O 0.03399 0.62813 0.93333 0.0
O16 O 1.00335 0.56419 0.88315 0.0
C17 C 1.01077 0.53998 0.84866 0.0
O18 O 0.96796 0.51653 0.96704 0.0
O19 O 0.97947 0.57142 0.01096 0.0
O20 O 0.03414 0.56704 0.09363 0.0
O21 O 0.98921 0.45268 0.9249 0.0
O22 O 1.00626 0.45063 0.02862 0.0
O23 O 1.00382 0.51724 0.09028 0.0
C24 C 0.06475 0.67135 -0.00214 0.0
C25 C 0.07668 0.68475 0.94103 0.0
C26 C 0.10397 0.70023 0.07063 0.0
C27 C 0.10213 0.70508 0.94871 0.0
C28 C 0.07854 0.67964 0.06292 0.0
C29 C 0.11615 0.71281 0.0135 0.0
C30 C 0.03847 0.64805 0.98808 0.0
C31 C 0.96135 0.54426 -0.00922 0.0
H32 H 0.95069 0.45271 0.03458 0.0
H33 H 0.93365 0.33029 0.9668 0.0
H34 H 0.90802 0.41701 0.05288 0.0
H35 H 0.97652 0.36616 0.95005 0.0
H36 H 0.06644 0.67916 0.89034 0.0
H37 H 0.11433 0.70571 0.12118 0.0
H38 H 0.11079 0.71493 0.90385 0.0
H39 H 0.06989 0.66988 0.10785 0.0
Eu40 Eu 0.54655 0.04749 0.97604 0.0
Eu41 Eu 0.48117 1.03356 0.95965 0.0
C42 C 0.5135 1.03753 0.83216 0.0
C43 C 0.62097 0.08986 -0.00076 0.0
C44 C 0.62418 0.11731 0.9566 0.0
C45 C 0.66275 0.11548 0.06519 0.0
C46 C 0.6467 0.14324 0.96743 0.0
C47 C 0.64031 0.08941 0.05402 0.0
C48 C 0.66646 0.14244 0.02132 0.0
C49 C 0.59859 0.06068 0.98497 0.0
O50 O 0.49121 0.98142 0.94756 0.0
O51 O 0.53478 0.99174 -0.00503 0.0
C52 C 0.51261 0.97058 0.97218 0.0
O53 O 0.53404 0.05974 0.07839 0.0
O54 O 0.44375 1.01262 0.89819 0.0
O55 O 0.44332 1.03889 -0.00466 0.0
O56 O 0.49379 1.02325 0.06765 0.0
C57 C 0.51407 0.0416 0.10569 0.0
O58 O 0.53659 0.09891 0.95493 0.0
O59 O 0.49348 0.09009 0.98255 0.0
O60 O 0.49551 0.05069 0.8601 0.0
O61 O 0.58514 0.0501 0.03545 0.0
O62 O 0.58329 0.06016 0.9283 0.0
O63 O 0.5314 1.0256 0.8704 0.0
C64 C 0.4072 0.99326 0.96034 0.0
C65 C 0.40415 0.98367 0.02731 0.0
C66 C 0.36752 0.95151 0.92058 0.0
C67 C 0.38277 0.95842 0.04076 0.0
C68 C 0.38873 0.97691 0.90723 0.0
C69 C 0.36422 0.94213 0.9875 0.0
C70 C 0.42917 1.02034 0.9445 0.0
C71 C 0.51538 0.11055 0.96904 0.0
H72 H 0.60964 0.11845 0.91382 0.0
H73 H 0.67732 0.11431 0.10787 0.0
H74 H 0.649 0.16332 0.93206 0.0
H75 H 0.6383 0.06854 0.08761 0.0
H76 H 0.41818 0.9957 0.06934 0.0
H77 H 0.35336 0.93972 0.87862 0.0
H78 H 0.38082 0.9515 0.09275 0.0
H79 H 0.39062 0.98396 0.85526 0.0
Eu80 Eu 0.48029 0.53086 0.96808 0.0
Eu81 Eu 0.5477 0.55055 0.98242 0.0
C82 C 0.51504 0.54332 0.11333 0.0
C83 C 0.40206 0.52446 0.963 0.0
C84 C 0.39377 0.52916 0.02775 0.0
C85 C 0.35801 0.52972 0.91232 0.0
C86 C 0.36773 0.53378 0.0346 0.0
C87 C 0.38395 0.52518 0.90555 0.0
C88 C 0.34933 0.53365 0.97693 0.0
C89 C 0.42801 0.51481 0.95355 0.0
O90 O 0.53762 0.49344 0.96428 0.0
O91 O 0.49379 0.48147 0.98813 0.0
C92 C 0.51609 0.47176 0.97658 0.0
O93 O 0.49399 0.51926 0.86685 0.0
O94 O 0.58711 0.57022 0.03793 0.0
O95 O 0.58373 0.55463 0.93116 0.0
O96 O 0.5315 0.56051 0.87718 0.0
C97 C 0.51279 0.53946 0.83943 0.0
O98 O 0.49031 0.58762 0.95722 0.0
O99 O 0.5347 0.60053 -0.0001 0.0
O100 O 0.53575 0.53622 0.08585 0.0
O101 O 0.44212 0.52985 0.90782 0.0
O102 O 0.44281 0.50784 0.00651 0.0
O103 O 0.49403 0.54947 0.07634 0.0
C104 C 0.62627 0.5561 -0.00607 0.0
C105 C 0.63688 0.54353 0.93768 0.0
C106 C 0.66935 0.5593 0.06024 0.0
C107 C 0.66342 0.5394 0.9423 0.0
C108 C 0.64278 0.56354 0.05552 0.0
C109 C 0.68025 0.54782 0.00328 0.0
C110 C 0.59986 0.56637 0.9851 0.0
C111 C 0.5121 0.60978 0.97927 0.0
H112 H 0.40716 0.52852 0.07315 0.0
H113 H 0.34445 0.52884 0.86666 0.0
H114 H 0.36197 0.53716 0.08517 0.0
H115 H 0.38959 0.52105 0.85505 0.0
H116 H 0.62502 0.53816 0.88896 0.0
H117 H 0.68147 0.56559 0.10839 0.0
H118 H 0.67102 0.53099 0.89696 0.0
H119 H 0.63544 0.57373 0.09961 0.0
H120 H 0.02205 0.49238 0.76048 0.0
H121 H 0.02426 0.49549 0.63816 0.0
H122 H 1.00215 0.59339 0.64441 0.0
H123 H 0.99935 0.59015 0.76688 0.0
H124 H 0.97831 0.55961 0.53352 0.0
H125 H 0.06582 0.5881 0.63286 0.0
H126 H 0.10605 0.58516 0.70875 0.0
H127 H 0.11147 0.49135 0.60762 0.0
H128 H 0.07086 0.49335 0.53175 0.0
H129 H 0.03192 0.59853 0.21157 0.0
H130 H 0.032 0.60045 0.33577 0.0
H131 H 1.0138 0.49142 0.33146 0.0
H132 H 1.01268 0.48928 0.20718 0.0
H133 H 0.05981 0.53666 0.44071 0.0
H134 H 0.96635 0.51703 0.3377 0.0
H135 H 0.93351 0.5357 0.25644 0.0
H136 H 0.94574 0.6315 0.36779 0.0
H137 H 0.97989 0.61404 0.44762 0.0
C138 C 0.0175 0.51452 0.73591 0.0
C139 C 1.01069 0.54111 0.77371 0.0
C140 C 0.01887 0.51633 0.66587 0.0
C141 C 1.01377 0.54492 0.63201 0.0
C142 C 1.0062 0.57108 0.66925 0.0
C143 C 1.00469 0.56922 0.73939 0.0
C144 C 0.01712 0.54766 0.55826 0.0
C145 C 0.99621 0.55477 0.51354 0.0
C146 C 0.04074 0.54236 0.5318 0.0
C147 C 0.06511 0.54068 0.57711 0.0
C148 C 0.07541 0.56664 0.6272 0.0
C149 C 0.09829 0.56518 0.67015 0.0
C150 C 0.11123 0.53805 0.66311 0.0
C151 C 0.10135 0.5123 0.61307 0.0
C152 C 0.07839 0.51359 0.57004 0.0
C153 C 0.02817 0.57498 0.2372 0.0
C154 C 0.02214 0.54375 0.19978 0.0
C155 C 0.02826 0.57613 0.30801 0.0
C156 C 0.02294 0.54608 0.34252 0.0
C157 C 0.01803 0.51486 0.30559 0.0
C158 C 0.01723 0.5137 0.2347 0.0
C159 C 0.02064 0.54712 0.41655 0.0
C160 C 0.04187 0.5411 0.46113 0.0
C161 C 0.99784 0.55496 0.44306 0.0
C162 C 0.97595 0.56439 0.39808 0.0
C163 C 0.96226 0.5422 0.3445 0.0
C164 C 0.94343 0.5526 0.29861 0.0
C165 C 0.93749 0.58478 0.30694 0.0
C166 C 0.95038 0.6066 0.36132 0.0
C167 C 0.96959 0.59652 0.40671 0.0
H168 H 0.92291 0.5928 0.27129 0.0
H169 H 0.12898 0.53718 0.69632 0.0
H170 H 0.55602 0.0668 0.20066 0.0
H171 H 0.55732 0.06453 0.32413 0.0
H172 H 0.47469 1.01445 0.30386 0.0
H173 H 0.47344 1.01575 0.18034 0.0
H174 H 0.53329 0.09066 0.41507 0.0
H175 H 0.46256 0.96028 0.42927 0.0
H176 H 0.44967 0.90548 0.36394 0.0
H177 H 0.52438 0.92347 0.27801 0.0
H178 H 0.53788 0.97813 0.34354 0.0
H179 H 0.48713 0.07167 0.73995 0.0
H180 H 0.48887 0.07126 0.61681 0.0
H181 H 0.54226 1.00083 0.63223 0.0
H182 H 0.54084 1.00129 0.75558 0.0
H183 H 0.50212 0.98334 0.52545 0.0
H184 H 0.56852 0.0776 0.61012 0.0
H185 H 0.58784 0.13049 0.67761 0.0
H186 H 0.53234 0.18148 0.56797 0.0
H187 H 0.51238 0.12866 0.50043 0.0
C188 C 0.53811 0.0553 0.22245 0.0
C189 C 0.51466 1.04128 0.18061 0.0
C190 C 0.53888 0.05407 0.2931 0.0
C191 C 0.51622 1.03893 0.32338 0.0
C192 C 0.4926 1.02562 0.28172 0.0
C193 C 0.49189 1.02652 0.21105 0.0
C194 C 0.51725 1.03721 0.39849 0.0
C195 C 0.52642 0.06717 0.43903 0.0
C196 C 0.50896 1.00643 0.43018 0.0
C197 C 0.50111 0.97346 0.39087 0.0
C198 C 0.47627 0.95249 0.39662 0.0
C199 C 0.46886 0.92146 0.35953 0.0
C200 C 0.48617 0.91104 0.31674 0.0
C201 C 0.51095 0.93162 0.31101 0.0
C202 C 0.51848 0.96265 0.34806 0.0
C203 C 0.49916 0.05599 0.71716 0.0
C204 C 0.51391 1.03659 0.75751 0.0
C205 C 0.50019 0.05586 0.64685 0.0
C206 C 0.51578 1.03613 0.61557 0.0
C207 C 0.53009 1.01619 0.65547 0.0
C208 C 0.52934 1.01662 0.72592 0.0
C209 C 0.51749 1.03686 0.5413 0.0
C210 C 0.50887 1.00676 0.50114 0.0
C211 C 0.52705 0.06727 0.51007 0.0
C212 C 0.53878 0.09909 0.55069 0.0
C213 C 0.56025 0.1 0.60085 0.0
C214 C 0.57135 0.12997 0.63903 0.0
C215 C 0.5613 0.1593 0.62718 0.0
C216 C 0.54009 0.15872 0.57715 0.0
C217 C 0.52888 0.12877 0.53885 0.0
H218 H 0.57007 0.18249 0.65661 0.0
H219 H 0.48042 0.88697 0.28825 0.0
H220 H 0.55549 0.55763 0.76803 0.0
H221 H 0.55596 0.55779 0.64489 0.0
H222 H 0.47077 0.52189 0.61914 0.0
H223 H 0.47047 0.51999 0.74266 0.0
H224 H 0.49124 0.49128 0.52893 0.0
H225 H 0.50224 0.60798 0.60237 0.0
H226 H 0.52268 0.66041 0.67047 0.0
H227 H 0.59713 0.66014 0.58933 0.0
H228 H 0.57725 0.60744 0.52149 0.0
H229 H 0.4724 0.53976 0.18696 0.0
H230 H 0.47241 0.53947 0.31054 0.0
H231 H 0.55773 0.54859 0.33274 0.0
H232 H 0.55792 0.54848 0.20894 0.0
H233 H 0.53698 0.59342 0.42287 0.0
H234 H 0.52402 0.47595 0.34815 0.0
H235 H 0.50169 0.42546 0.27693 0.0
H236 H 0.42803 0.42935 0.35943 0.0
H237 H 0.44982 0.4805 0.42999 0.0
C238 C 0.53686 0.54976 0.73607 0.0
C239 C 0.5129 0.53903 0.76485 0.0
C240 C 0.53711 0.55004 0.66563 0.0
C241 C 0.5133 0.54066 0.62249 0.0
C242 C 0.48939 0.52939 0.65124 0.0
C243 C 0.48922 0.52836 0.7218 0.0
C244 C 0.51339 0.54244 0.54751 0.0
C245 C 0.50092 0.51384 0.5059 0.0
C246 C 0.52639 0.57165 0.51708 0.0
C247 C 0.53831 0.60359 0.55726 0.0
C248 C 0.52301 0.61899 0.59935 0.0
C249 C 0.5345 0.64877 0.63788 0.0
C250 C 0.5612 0.66355 0.63433 0.0
C251 C 0.57645 0.64864 0.59208 0.0
C252 C 0.56509 0.61884 0.55353 0.0
C253 C 0.4912 0.54185 0.21806 0.0
C254 C 0.51517 0.54403 0.18815 0.0
C255 C 0.49114 0.54161 0.28861 0.0
C256 C 0.51506 0.54389 0.33053 0.0
C257 C 0.53909 0.54683 0.30107 0.0
C258 C 0.53913 0.54658 0.23041 0.0
C259 C 0.51485 0.5424 0.40512 0.0
C260 C 0.52728 0.57101 0.44637 0.0
C261 C 0.5015 0.51344 0.43514 0.0
C262 C 0.48849 0.48228 0.39383 0.0
C263 C 0.50301 0.46623 0.35071 0.0
C264 C 0.49045 0.43745 0.3105 0.0
C265 C 0.46343 0.42418 0.31358 0.0
C266 C 0.44895 0.43966 0.35703 0.0
C267 C 0.46139 0.46857 0.39713 0.0
H268 H 0.45374 0.4019 0.28237 0.0
H269 H 0.57006 0.68659 0.66419 0.0
H270 H 0.10494 0.57195 0.90922 0.0
H271 H 0.15225 0.56966 0.90941 0.0
H272 H 0.14522 0.49839 0.06775 0.0
H273 H 0.09766 0.49974 0.06639 0.0
H274 H 0.1903 0.55472 0.09137 0.0
H275 H 0.14882 0.46894 0.92544 0.0
H276 H 0.12133 0.44137 0.82292 0.0
H277 H 0.16996 0.50674 0.69735 0.0
H278 H 0.19705 0.53582 0.79928 0.0
H279 H 0.31691 0.50598 0.07233 0.0
H280 H 0.26981 0.50708 0.07818 0.0
H281 H 0.26978 0.56699 0.90149 0.0
H282 H 0.31696 0.56665 0.89602 0.0
H283 H 0.22783 0.51407 0.88992 0.0
H284 H 0.26756 0.60205 0.0593 0.0
H285 H 0.29618 0.62651 0.16285 0.0
H286 H 0.25182 0.55285 0.28209 0.0
H287 H 0.22313 0.52766 0.17903 0.0
C288 C 0.11343 0.55573 0.94402 0.0
C289 C 0.09749 0.53599 0.98776 0.0
C290 C 0.14048 0.55438 0.94391 0.0
C291 C 0.15231 0.53381 0.98852 0.0
C292 C 0.13653 0.51442 0.03289 0.0
C293 C 0.10933 0.51513 0.03186 0.0
C294 C 0.18119 0.53288 0.9892 0.0
C295 C 0.19845 0.54546 0.04755 0.0
C296 C 0.19194 0.52121 0.93174 0.0
C297 C 0.17473 0.50503 0.87035 0.0
C298 C 0.1533 0.47805 0.87615 0.0
C299 C 0.13782 0.46205 0.81804 0.0
C300 C 0.14382 0.47239 0.75367 0.0
C301 C 0.16528 0.49883 0.74729 0.0
C302 C 0.18059 0.51524 0.80525 0.0
C303 C 0.3071 0.51997 0.0354 0.0
C304 C 0.32094 0.53615 0.98355 0.0
C305 C 0.28004 0.52045 0.03869 0.0
C306 C 0.26613 0.53718 -0.00964 0.0
C307 C 0.27995 0.55373 0.93918 0.0
C308 C 0.307 0.55339 0.936 0.0
C309 C 0.23701 0.53652 -0.00852 0.0
C310 C 0.21967 0.5235 0.93354 0.0
C311 C 0.22618 0.54762 0.04934 0.0
C312 C 0.24338 0.56275 0.11134 0.0
C313 C 0.26405 0.59089 0.10751 0.0
C314 C 0.28025 0.60492 0.16613 0.0
C315 C 0.27587 0.59118 0.22898 0.0
C316 C 0.25522 0.56343 0.23336 0.0
C317 C 0.23897 0.54929 0.17487 0.0
H318 H 0.28844 0.60208 0.27431 0.0
H319 H 0.13191 0.45983 0.70874 0.0
H320 H 0.71734 0.13365 0.05746 0.0
H321 H 0.7585 0.17596 0.06468 0.0
H322 H 0.71374 0.2527 0.00813 0.0
H323 H 0.67225 0.21068 0.00254 0.0
H324 H 0.75595 0.25261 0.93247 0.0
H325 H 0.74109 0.25392 0.16683 0.0
H326 H 0.73158 0.22954 0.27664 0.0
H327 H 0.80305 0.18897 0.28472 0.0
H328 H 0.81281 0.2127 0.17439 0.0
H329 H 0.86826 0.38713 0.98526 0.0
H330 H 0.82476 0.35144 -0.00517 0.0
H331 H 0.86299 0.27008 0.06124 0.0
H332 H 0.90665 0.30605 0.0541 0.0
H333 H 0.82255 0.27572 0.13525 0.0
H334 H 0.83572 0.27079 0.89792 0.0
H335 H 0.84519 0.2943 0.78731 0.0
H336 H 0.77675 0.34086 0.78431 0.0
H337 H 0.76707 0.31798 0.89543 0.0
C338 C 0.7161 0.15964 0.048 0.0
C339 C 0.69139 0.1687 0.02952 0.0
C340 C 0.73971 0.18378 0.05187 0.0
C341 C 0.73915 0.21749 0.0373 0.0
C342 C 0.71458 0.22678 0.01945 0.0
C343 C 0.69091 0.20268 0.016 0.0
C344 C 0.76437 0.24257 0.03772 0.0
C345 C 0.77032 0.25817 0.97715 0.0
C346 C 0.78333 0.24915 0.0956 0.0
C347 C 0.77755 0.23484 0.162 0.0
C348 C 0.75467 0.23955 0.19171 0.0
C349 C 0.74925 0.22589 0.25412 0.0
C350 C 0.76667 0.20765 0.28756 0.0
C351 C 0.78957 0.20308 0.25872 0.0
C352 C 0.79506 0.21666 0.19628 0.0
C353 C 0.86745 0.36181 0.00284 0.0
C354 C 0.89095 0.3494 0.01872 0.0
C355 C 0.84255 0.34133 0.00766 0.0
C356 C 0.84062 0.30795 0.02792 0.0
C357 C 0.86402 0.29573 0.04526 0.0
C358 C 0.88894 0.31621 0.04055 0.0
C359 C 0.81423 0.28552 0.02981 0.0
C360 C 0.80808 0.27038 0.09075 0.0
C361 C 0.79509 0.27926 0.97219 0.0
C362 C 0.80085 0.29299 0.90533 0.0
C363 C 0.82282 0.28627 0.87394 0.0
C364 C 0.8282 0.29944 0.81111 0.0
C365 C 0.81163 0.31914 0.7789 0.0
C366 C 0.78959 0.32564 0.80938 0.0
C367 C 0.78414 0.31257 0.87226 0.0
H368 H 0.81582 0.32931 0.73024 0.0
H369 H 0.76245 0.19711 0.33588 0.0
H370 H 0.471 0.91836 0.92752 0.0
H371 H 0.46996 0.85748 0.92885 0.0
H372 H 0.55102 0.87693 0.02205 0.0
H373 H 0.55238 0.93785 0.01991 0.0
H374 H 0.5444 0.82881 0.92302 0.0
H375 H 0.49594 0.84984 0.11209 0.0
H376 H 0.46046 0.87029 0.16675 0.0
H377 H 0.40096 0.80187 0.03642 0.0
H378 H 0.43607 0.78145 0.98002 0.0
H379 H 0.55222 0.66374 0.02374 0.0
H380 H 0.55113 0.72403 0.02302 0.0
H381 H 0.46933 0.70049 0.93525 0.0
H382 H 0.4701 0.64001 0.93686 0.0
H383 H 0.47514 0.75029 0.02905 0.0
H384 H 0.52074 0.72957 0.83865 0.0
H385 H 0.55436 0.70877 0.77714 0.0
H386 H 0.61691 0.77595 0.90126 0.0
H387 H 0.58363 0.7968 0.96428 0.0
C388 C 0.48864 0.90978 0.94847 0.0
C389 C 0.51178 0.93328 0.97372 0.0
C390 C 0.48796 0.87481 0.94949 0.0
C391 C 0.5103 0.86232 0.97631 0.0
C392 C 0.53347 0.88573 0.00114 0.0
C393 C 0.53419 0.9207 4e-05 0.0
C394 C 0.50978 0.82499 0.97764 0.0
C395 C 0.52946 0.81178 0.94716 0.0
C396 C 0.48977 0.8023 0.00691 0.0
C397 C 0.46866 0.81434 0.04138 0.0
C398 C 0.47529 0.83931 0.09475 0.0
C399 C 0.45524 0.85087 0.12611 0.0
C400 C 0.42848 0.8374 0.10506 0.0
C401 C 0.4217 0.81229 0.05266 0.0
C402 C 0.44167 0.80072 0.02098 0.0
C403 C 0.53394 0.67125 0.0043 0.0
C404 C 0.51129 0.64673 0.98004 0.0
C405 C 0.53338 0.70591 0.00366 0.0
C406 C 0.51025 0.71712 0.97817 0.0
C407 C 0.48746 0.6927 0.95509 0.0
C408 C 0.48797 0.65799 0.95586 0.0
C409 C 0.50997 0.75422 0.97516 0.0
C410 C 0.49011 0.76736 0.00509 0.0
C411 C 0.52959 0.77683 0.94457 0.0
C412 C 0.54969 0.76451 0.90664 0.0
C413 C 0.54167 0.73973 0.85319 0.0
C414 C 0.56067 0.72796 0.81798 0.0
C415 C 0.58776 0.74098 0.83537 0.0
C416 C 0.59591 0.76586 0.88791 0.0
C417 C 0.57699 0.77768 0.92337 0.0
H418 H 0.60244 0.73183 0.80804 0.0
H419 H 0.41299 0.84638 0.12941 0.0
H420 H 0.93891 0.58995 0.06045 0.0
H421 H 0.89142 0.58934 0.067 0.0
H422 H 0.87102 0.49852 0.93665 0.0
H423 H 0.91826 0.4987 0.93044 0.0
H424 H 0.84161 0.54507 0.89573 0.0
H425 H 0.86343 0.49338 0.10094 0.0
H426 H 0.88524 0.48492 0.21375 0.0
H427 H 0.86383 0.5749 0.29432 0.0
H428 H 0.84215 0.58417 0.18171 0.0
H429 H 0.70358 0.50067 0.94054 0.0
H430 H 0.751 0.50022 0.93995 0.0
H431 H 0.77041 0.59041 0.07216 0.0
H432 H 0.72307 0.59149 0.07205 0.0
H433 H 0.80029 0.54437 0.1122 0.0
H434 H 0.77735 0.5944 0.90306 0.0
H435 H 0.75151 0.59728 0.79258 0.0
H436 H 0.77358 0.50617 0.71994 0.0
H437 H 0.79926 0.50249 0.83039 0.0
C438 C 0.92433 0.56986 0.0331 0.0
C439 C 0.93253 0.54449 -0.00539 0.0
C440 C 0.89714 0.56942 0.03726 0.0
C441 C 0.87752 0.5438 0.00251 0.0
C442 C 0.88568 0.51857 0.96388 0.0
C443 C 0.91279 0.51873 0.96045 0.0
C444 C 0.84852 0.54377 0.00459 0.0
C445 C 0.83257 0.54455 0.94312 0.0
C446 C 0.83663 0.54368 0.0663 0.0
C447 C 0.85141 0.53967 0.13266 0.0
C448 C 0.86374 0.51168 0.1424 0.0
C449 C 0.87591 0.5066 0.20643 0.0
C450 C 0.87576 0.52924 0.26122 0.0
C451 C 0.8638 0.55729 0.25189 0.0
C452 C 0.8516 0.5625 0.18796 0.0
C453 C 0.71787 0.52061 0.96917 0.0
C454 C 0.70925 0.54621 0.00612 0.0
C455 C 0.74507 0.52027 0.96885 0.0
C456 C 0.76442 0.54552 0.00533 0.0
C457 C 0.75593 0.57062 0.04358 0.0
C458 C 0.72874 0.57106 0.04377 0.0
C459 C 0.79348 0.54584 0.00352 0.0
C460 C 0.80943 0.54513 0.06494 0.0
C461 C 0.80534 0.54575 0.94176 0.0
C462 C 0.79001 0.548 0.87522 0.0
C463 C 0.77652 0.57484 0.86371 0.0
C464 C 0.76193 0.57664 0.80106 0.0
C465 C 0.76085 0.55187 0.74933 0.0
C466 C 0.77441 0.52531 0.76009 0.0
C467 C 0.789 0.52337 0.82268 0.0
H468 H 0.74955 0.55331 0.70086 0.0
H469 H 0.88498 0.5251 0.3109 0.0
H470 H 0.13669 0.76543 0.10595 0.0
H471 H 0.18087 0.80212 0.11388 0.0
H472 H 0.20113 0.74492 0.94564 0.0
H473 H 0.15717 0.70784 0.93814 0.0
H474 H 0.24287 0.76151 0.04697 0.0
H475 H 0.18144 0.81691 0.91708 0.0
H476 H 0.14075 0.84034 0.89487 0.0
H477 H 0.1653 0.90956 0.06871 0.0
H478 H 0.20599 0.88616 0.09254 0.0
H479 H 0.34494 0.88098 0.9196 0.0
H480 H 0.30469 0.84004 0.93719 0.0
H481 H 0.29085 0.90347 0.10427 0.0
H482 H 0.33094 0.94476 0.08633 0.0
H483 H 0.2466 0.88378 0.01341 0.0
H484 H 0.3112 0.83136 0.13502 0.0
H485 H 0.35236 0.8085 0.15159 0.0
H486 H 0.32246 0.7338 0.98925 0.0
H487 H 0.28131 0.75664 0.97073 0.0
C488 C 0.15069 0.76041 0.07129 0.0
C489 C 0.14339 0.73396 0.02102 0.0
C490 C 0.17586 0.78146 0.07566 0.0
C491 C 0.19417 0.77641 0.02992 0.0
C492 C 0.18729 0.74928 0.98134 0.0
C493 C 0.16209 0.72834 0.97671 0.0
C494 C 0.21993 0.80047 0.03022 0.0
C495 C 0.24374 0.78821 0.0392 0.0
C496 C 0.22102 0.83538 0.02126 0.0
C497 C 0.19659 0.8495 0.00707 0.0
C498 C 0.17804 0.83691 0.95093 0.0
C499 C 0.155 0.85022 0.93798 0.0
C500 C 0.1504 0.87635 0.98049 0.0
C501 C 0.16887 0.88927 0.03593 0.0
C502 C 0.19192 0.876 0.04917 0.0
C503 C 0.33337 0.88612 0.96024 0.0
C504 C 0.34103 0.9161 0.00149 0.0
C505 C 0.31051 0.8626 0.97058 0.0
C506 C 0.29489 0.86863 0.02232 0.0
C507 C 0.30269 0.8983 0.06423 0.0
C508 C 0.32566 0.92174 0.0542 0.0
C509 C 0.26961 0.84488 0.02999 0.0
C510 C 0.24583 0.85718 0.02216 0.0
C511 C 0.26862 0.81002 0.03957 0.0
C512 C 0.29323 0.79593 0.05109 0.0
C513 C 0.31347 0.81023 0.10245 0.0
C514 C 0.3368 0.79726 0.11225 0.0
C515 C 0.34004 0.76976 0.07142 0.0
C516 C 0.31993 0.75513 0.0208 0.0
C517 C 0.29659 0.76807 0.01065 0.0
H518 H 0.35811 0.75974 0.07911 0.0
H519 H 0.13256 0.88664 0.97035 0.0
H520 H 0.47621 0.41911 0.00246 0.0
H521 H 0.47709 0.35877 0.0025 0.0
H522 H 0.55828 0.37959 0.95304 0.0
H523 H 0.55748 0.44012 0.95203 0.0
H524 H 0.53019 0.3264 0.87723 0.0
H525 H 0.54183 0.35876 0.11576 0.0
H526 H 0.53089 0.38306 0.22288 0.0
H527 H 0.45579 0.3134 0.20509 0.0
H528 H 0.46612 0.28894 0.09741 0.0
H529 H 0.55632 0.16172 0.94144 0.0
H530 H 0.55713 0.22265 0.94284 0.0
H531 H 0.47677 0.20519 -0.00156 0.0
H532 H 0.4759 0.14438 -0.00204 0.0
H533 H 0.50537 0.25704 0.07233 0.0
H534 H 0.49181 0.22556 0.83529 0.0
H535 H 0.50025 0.20179 0.72502 0.0
H536 H 0.57614 0.26954 0.73675 0.0
H537 H 0.56835 0.2934 0.84764 0.0
C538 C 0.49434 0.41101 -0.00828 0.0
C539 C 0.51681 0.43479 0.97736 0.0
C540 C 0.49485 0.37633 -0.00786 0.0
C541 C 0.51787 0.36437 0.97864 0.0
C542 C 0.54027 0.388 0.96381 0.0
C543 C 0.53979 0.42274 0.96342 0.0
C544 C 0.51837 0.32726 0.97858 0.0
C545 C 0.52521 0.31138 0.92043 0.0
C546 C 0.51106 0.30718 0.03393 0.0
C547 C 0.50467 0.3222 0.09821 0.0
C548 C 0.52288 0.34882 0.13436 0.0
C549 C 0.51681 0.36258 0.19526 0.0
C550 C 0.49265 0.34978 0.22074 0.0
C551 C 0.47449 0.32327 0.18529 0.0
C552 C 0.48045 0.30944 0.12437 0.0
C553 C 0.53877 0.17076 0.95389 0.0
C554 C 0.51602 0.14786 0.96947 0.0
C555 C 0.53922 0.20574 0.95434 0.0
C556 C 0.51691 0.2188 0.97008 0.0
C557 C 0.49427 0.19599 0.98611 0.0
C558 C 0.49379 0.16105 0.98562 0.0
C559 C 0.51721 0.25614 0.97094 0.0
C560 C 0.5105 0.27206 0.02923 0.0
C561 C 0.5244 0.2762 0.91549 0.0
C562 C 0.5296 0.26103 0.85012 0.0
C563 C 0.51045 0.23509 0.8148 0.0
C564 C 0.51508 0.22167 0.7521 0.0
C565 C 0.5387 0.23417 0.72394 0.0
C566 C 0.55785 0.2599 0.75866 0.0
C567 C 0.55334 0.27338 0.82143 0.0
H568 H 0.54207 0.22411 0.67498 0.0
H569 H 0.48805 0.36028 0.2681 0.0
loop_
_geom_bond_atom_site_label_1
_geom_bond_atom_site_label_2
_geom_bond_distance
_geom_bond_site_symmetry_2
_ccdc_geom_bond_type
Eu0 C9 2.828 . S
Eu0 O11 2.392 1_655 S
Eu0 O13 2.418 . S
Eu0 O18 2.373 . S
Eu0 O21 2.488 . S
Eu0 O22 2.471 1_556 S
Eu0 O23 2.349 1_556 S
Eu1 O10 2.373 . S
Eu1 O14 2.488 . S
Eu1 O15 2.471 1_554 S
Eu1 O16 2.349 1_554 S
Eu1 O19 2.392 1_455 S
Eu1 O20 2.418 . S
Eu1 C30 2.828 . S
C2 O20 1.244 . S
C2 O23 1.265 1_455 S
C3 C4 1.378 . S
C3 C7 1.373 1_554 S
C3 C9 1.505 1_554 S
C4 C3 1.378 . S
C4 C6 1.369 . S
C4 H32 0.930 . S
C5 C7 1.383 . S
C5 C8 1.382 1_556 S
C5 H33 0.930 . S
C6 C4 1.369 . S
C6 C8 1.392 . S
C6 H34 0.930 . S
C7 C3 1.373 1_556 S
C7 C5 1.383 . S
C7 H35 0.931 . S
C8 C5 1.382 1_554 S
C8 C6 1.392 . S
C9 Eu0 2.828 . S
C9 C3 1.505 1_556 S
C9 O21 1.249 . S
C9 O22 1.244 1_556 S
O10 Eu1 2.373 . S
O10 C12 1.258 . S
O11 Eu0 2.392 1_455 S
O11 C12 1.242 1_556 S
C12 O10 1.258 . S
C12 O11 1.242 1_554 S
O13 Eu0 2.418 . S
O13 C17 1.244 . S
O14 Eu1 2.488 . S
O14 C30 1.249 . S
O15 Eu1 2.471 1_556 S
O15 C30 1.244 1_556 S
O16 Eu1 2.349 1_556 S
O16 C17 1.265 1_455 S
C17 O13 1.244 . S
C17 O16 1.265 1_655 S
O18 Eu0 2.373 . S
O18 C31 1.258 . S
O19 Eu1 2.392 1_655 S
O19 C31 1.242 1_554 S
O20 Eu1 2.418 . S
O20 C2 1.244 . S
O21 Eu0 2.488 . S
O21 C9 1.249 . S
O22 Eu0 2.471 1_554 S
O22 C9 1.244 1_554 S
O23 Eu0 2.349 1_554 S
O23 C2 1.265 1_655 S
C24 C25 1.375 1_554 S
C24 C28 1.376 . S
C24 C30 1.506 . S
C25 C24 1.375 1_556 S
C25 C27 1.369 . S
C25 H36 0.930 . S
C26 C28 1.383 . S
C26 C29 1.382 1_554 S
C26 H37 0.930 . S
C27 C25 1.369 . S
C27 C29 1.392 . S
C27 H38 0.930 . S
C28 C24 1.376 . S
C28 C26 1.383 . S
C28 H39 0.931 . S
C29 C26 1.382 1_556 S
C29 C27 1.392 . S
C30 Eu1 2.828 . S
C30 O14 1.249 . S
C30 O15 1.244 1_554 S
C30 C24 1.506 . S
C31 O18 1.258 . S
C31 O19 1.242 1_556 S
H32 C4 0.930 . S
H33 C5 0.930 . S
H34 C6 0.930 . S
H35 C7 0.931 . S
H36 C25 0.930 . S
H37 C26 0.930 . S
H38 C27 0.930 . S
H39 C28 0.931 . S
Eu40 C49 2.828 . S
Eu40 O51 2.392 1_545 S
Eu40 O53 2.418 . S
Eu40 O58 2.373 . S
Eu40 O61 2.488 . S
Eu40 O62 2.471 1_554 S
Eu40 O63 2.349 1_554 S
Eu41 O50 2.373 . S
Eu41 O54 2.488 . S
Eu41 O55 2.471 1_556 S
Eu41 O56 2.349 1_556 S
Eu41 O59 2.392 1_565 S
Eu41 O60 2.418 . S
Eu41 C70 2.828 . S
C42 O60 1.244 . S
C42 O63 1.265 1_565 S
C43 C44 1.379 1_554 S
C43 C47 1.373 . S
C43 C49 1.505 . S
C44 C43 1.379 1_556 S
C44 C46 1.369 . S
C44 H72 0.930 . S
C45 C47 1.383 . S
C45 C48 1.382 1_554 S
C45 H73 0.930 . S
C46 C44 1.369 . S
C46 C48 1.392 . S
C46 H74 0.930 . S
C47 C43 1.373 . S
C47 C45 1.383 . S
C47 H75 0.931 . S
C48 C45 1.382 1_556 S
C48 C46 1.392 . S
C49 Eu40 2.828 . S
C49 C43 1.505 . S
C49 O61 1.249 . S
C49 O62 1.244 1_554 S
O50 Eu41 2.373 . S
O50 C52 1.258 . S
O51 Eu40 2.392 1_565 S
O51 C52 1.242 1_554 S
C52 O50 1.258 . S
C52 O51 1.242 1_556 S
O53 Eu40 2.418 . S
O53 C57 1.244 . S
O54 Eu41 2.488 . S
O54 C70 1.249 . S
O55 Eu41 2.471 1_554 S
O55 C70 1.244 1_554 S
O56 Eu41 2.349 1_554 S
O56 C57 1.265 1_565 S
C57 O53 1.244 . S
C57 O56 1.265 1_545 S
O58 Eu40 2.373 . S
O58 C71 1.258 . S
O59 Eu41 2.392 1_545 S
O59 C71 1.242 1_556 S
O60 Eu41 2.418 . S
O60 C42 1.244 . S
O61 Eu40 2.488 . S
O61 C49 1.249 . S
O62 Eu40 2.471 1_556 S
O62 C49 1.244 1_556 S
O63 Eu40 2.349 1_556 S
O63 C42 1.265 1_545 S
C64 C65 1.379 1_556 S
C64 C68 1.373 . S
C64 C70 1.505 . S
C65 C64 1.379 1_554 S
C65 C67 1.369 . S
C65 H76 0.930 . S
C66 C68 1.383 . S
C66 C69 1.382 1_556 S
C66 H77 0.930 . S
C67 C65 1.369 . S
C67 C69 1.392 . S
C67 H78 0.930 . S
C68 C64 1.373 . S
C68 C66 1.383 . S
C68 H79 0.931 . S
C69 C66 1.382 1_554 S
C69 C67 1.392 . S
C70 Eu41 2.828 . S
C70 O54 1.249 . S
C70 O55 1.244 1_556 S
C70 C64 1.505 . S
C71 O58 1.258 . S
C71 O59 1.242 1_554 S
H72 C44 0.930 . S
H73 C45 0.930 . S
H74 C46 0.930 . S
H75 C47 0.931 . S
H76 C65 0.930 . S
H77 C66 0.930 . S
H78 C67 0.930 . S
H79 C68 0.931 . S
Eu80 C89 2.828 . S
Eu80 O91 2.392 . S
Eu80 O93 2.418 . S
Eu80 O98 2.373 . S
Eu80 O101 2.488 . S
Eu80 O102 2.471 1_556 S
Eu80 O103 2.349 1_556 S
Eu81 O90 2.373 . S
Eu81 O94 2.488 . S
Eu81 O95 2.471 1_554 S
Eu81 O96 2.349 1_554 S
Eu81 O99 2.392 . S
Eu81 O100 2.418 . S
Eu81 C110 2.828 . S
C82 O100 1.244 . S
C82 O103 1.265 . S
C83 C84 1.379 1_556 S
C83 C87 1.373 . S
C83 C89 1.505 . S
C84 C83 1.379 1_554 S
C84 C86 1.369 . S
C84 H112 0.930 . S
C85 C87 1.383 . S
C85 C88 1.382 1_556 S
C85 H113 0.930 . S
C86 C84 1.369 . S
C86 C88 1.392 . S
C86 H114 0.930 . S
C87 C83 1.373 . S
C87 C85 1.383 . S
C87 H115 0.931 . S
C88 C85 1.382 1_554 S
C88 C86 1.392 . S
C89 Eu80 2.828 . S
C89 C83 1.505 . S
C89 O101 1.249 . S
C89 O102 1.244 1_556 S
O90 Eu81 2.373 . S
O90 C92 1.258 . S
O91 Eu80 2.392 . S
O91 C92 1.242 1_556 S
C92 O90 1.258 . S
C92 O91 1.242 1_554 S
O93 Eu80 2.418 . S
O93 C97 1.244 . S
O94 Eu81 2.488 . S
O94 C110 1.249 . S
O95 Eu81 2.471 1_556 S
O95 C110 1.244 1_556 S
O96 Eu81 2.349 1_556 S
O96 C97 1.265 . S
C97 O93 1.244 . S
C97 O96 1.265 . S
O98 Eu80 2.373 . S
O98 C111 1.261 . S
O99 Eu81 2.392 . S
O99 C111 1.239 1_554 S
O100 Eu81 2.418 . S
O100 C82 1.244 . S
O101 Eu80 2.488 . S
O101 C89 1.249 . S
O102 Eu80 2.471 1_554 S
O102 C89 1.244 1_554 S
O103 Eu80 2.349 1_554 S
O103 C82 1.265 . S
C104 C105 1.379 1_554 S
C104 C108 1.373 . S
C104 C110 1.505 . S
C105 C104 1.379 1_556 S
C105 C107 1.369 . S
C105 H116 0.930 . S
C106 C108 1.383 . S
C106 C109 1.382 1_554 S
C106 H117 0.930 . S
C107 C105 1.369 . S
C107 C109 1.392 . S
C107 H118 0.930 . S
C108 C104 1.373 . S
C108 C106 1.383 . S
C108 H119 0.931 . S
C109 C106 1.382 1_556 S
C109 C107 1.392 . S
C110 Eu81 2.828 . S
C110 O94 1.249 . S
C110 O95 1.244 1_554 S
C110 C104 1.505 . S
C111 O98 1.261 . S
C111 O99 1.239 1_556 S
H112 C84 0.930 . S
H113 C85 0.930 . S
H114 C86 0.930 . S
H115 C87 0.931 . S
H116 C105 0.930 . S
H117 C106 0.930 . S
H118 C107 0.930 . S
H119 C108 0.931 . S
H120 C138 0.951 . S
H121 C140 0.951 . S
H122 C142 0.950 . S
H123 C143 0.950 . S
H124 C145 0.950 . S
H125 C148 0.950 . S
H126 C149 0.950 . S
H127 C151 0.950 . S
H128 C152 0.950 . S
H129 C153 0.951 . S
H130 C155 0.951 . S
H131 C157 0.950 . S
H132 C158 0.950 . S
H133 C160 0.950 . S
H134 C163 0.950 . S
H135 C164 0.950 . S
H136 C166 0.950 . S
H137 C167 0.950 . S
C138 H120 0.951 . S
C138 C139 1.366 1_455 S
C138 C140 1.388 . S
C139 C138 1.366 1_655 S
C139 C143 1.385 . S
C140 H121 0.951 . S
C140 C138 1.388 . S
C140 C141 1.366 . S
C141 C140 1.366 . S
C141 C142 1.414 1_455 S
C141 C144 1.499 . S
C142 H122 0.950 . S
C142 C141 1.414 1_655 S
C142 C143 1.374 . S
C143 H123 0.950 . S
C143 C139 1.385 . S
C143 C142 1.374 . S
C144 C141 1.499 . S
C144 C145 1.373 1_455 S
C144 C146 1.389 . S
C145 H124 0.950 . S
C145 C144 1.373 1_655 S
C145 C161 1.377 . S
C146 C144 1.389 . S
C146 C147 1.524 . S
C146 C160 1.377 . S
C147 C146 1.524 . S
C147 C148 1.397 . S
C147 C152 1.363 . S
C148 H125 0.950 . S
C148 C147 1.397 . S
C148 C149 1.334 . S
C149 H126 0.950 . S
C149 C148 1.334 . S
C149 C150 1.287 . S
C150 C149 1.287 . S
C150 C151 1.524 . S
C150 H169 0.913 . S
C151 H127 0.950 . S
C151 C150 1.524 . S
C151 C152 1.415 . S
C152 H128 0.950 . S
C152 C147 1.363 . S
C152 C151 1.415 . S
C153 H129 0.951 . S
C153 C154 1.366 1_655 S
C153 C155 1.388 . S
C154 C153 1.366 1_455 S
C154 C158 1.385 . S
C155 H130 0.951 . S
C155 C153 1.388 . S
C155 C156 1.361 1_655 S
C156 C155 1.361 1_455 S
C156 C157 1.421 . S
C156 C159 1.497 1_455 S
C157 H131 0.950 . S
C157 C156 1.421 . S
C157 C158 1.374 . S
C158 H132 0.950 . S
C158 C154 1.385 . S
C158 C157 1.374 . S
C159 C156 1.497 1_655 S
C159 C160 1.375 1_655 S
C159 C161 1.388 . S
C160 H133 0.950 . S
C160 C146 1.377 . S
C160 C159 1.375 1_455 S
C161 C145 1.377 . S
C161 C159 1.388 . S
C161 C162 1.524 . S
C162 C161 1.524 . S
C162 C163 1.397 . S
C162 C167 1.363 . S
C163 H134 0.950 . S
C163 C162 1.397 . S
C163 C164 1.334 . S
C164 H135 0.950 . S
C164 C163 1.334 . S
C164 C165 1.287 . S
C165 C164 1.287 . S
C165 C166 1.524 . S
C165 H168 0.999 . S
C166 H136 0.950 . S
C166 C165 1.524 . S
C166 C167 1.415 . S
C167 H137 0.950 . S
C167 C162 1.363 . S
C167 C166 1.415 . S
H168 C165 0.999 . S
H169 C150 0.913 . S
H170 C188 0.951 . S
H171 C190 0.951 . S
H172 C192 0.950 . S
H173 C193 0.950 . S
H174 C195 0.950 . S
H175 C198 0.950 . S
H176 C199 0.950 . S
H177 C201 0.950 . S
H178 C202 0.950 . S
H179 C203 0.951 . S
H180 C205 0.951 . S
H181 C207 0.950 . S
H182 C208 0.950 . S
H183 C210 0.950 . S
H184 C213 0.950 . S
H185 C214 0.950 . S
H186 C216 0.950 . S
H187 C217 0.950 . S
C188 H170 0.951 . S
C188 C189 1.366 1_565 S
C188 C190 1.388 . S
C189 C188 1.366 1_545 S
C189 C193 1.385 . S
C190 H171 0.951 . S
C190 C188 1.388 . S
C190 C191 1.356 1_565 S
C191 C190 1.356 1_545 S
C191 C192 1.425 . S
C191 C194 1.499 . S
C192 H172 0.950 . S
C192 C191 1.425 . S
C192 C193 1.374 . S
C193 H173 0.950 . S
C193 C189 1.385 . S
C193 C192 1.374 . S
C194 C191 1.499 . S
C194 C195 1.393 . S
C194 C196 1.368 1_545 S
C195 H174 0.950 . S
C195 C194 1.393 . S
C195 C211 1.377 . S
C196 C194 1.368 1_565 S
C196 C197 1.524 . S
C196 C210 1.377 . S
C197 C196 1.524 . S
C197 C198 1.397 . S
C197 C202 1.363 . S
C198 H175 0.950 . S
C198 C197 1.397 . S
C198 C199 1.334 . S
C199 H176 0.950 . S
C199 C198 1.334 . S
C199 C200 1.287 . S
C200 C199 1.287 . S
C200 C201 1.524 . S
C200 H219 0.913 . S
C201 H177 0.950 . S
C201 C200 1.524 . S
C201 C202 1.415 . S
C202 H178 0.950 . S
C202 C197 1.363 . S
C202 C201 1.415 . S
C203 H179 0.951 . S
C203 C204 1.366 1_545 S
C203 C205 1.388 . S
C204 C203 1.366 1_565 S
C204 C208 1.385 . S
C205 H180 0.951 . S
C205 C203 1.388 . S
C205 C206 1.365 . S
C206 C205 1.365 . S
C206 C207 1.414 1_545 S
C206 C209 1.499 1_545 S
C207 H181 0.950 . S
C207 C206 1.414 1_565 S
C207 C208 1.374 . S
C208 H182 0.950 . S
C208 C204 1.385 . S
C208 C207 1.374 . S
C209 C206 1.499 1_565 S
C209 C210 1.380 . S
C209 C211 1.382 1_565 S
C210 H183 0.950 . S
C210 C196 1.377 . S
C210 C209 1.380 . S
C211 C195 1.377 . S
C211 C209 1.382 1_545 S
C211 C212 1.524 . S
C212 C211 1.524 . S
C212 C213 1.397 . S
C212 C217 1.363 . S
C213 H184 0.950 . S
C213 C212 1.397 . S
C213 C214 1.334 . S
C214 H185 0.950 . S
C214 C213 1.334 . S
C214 C215 1.287 . S
C215 C214 1.287 . S
C215 C216 1.524 . S
C215 H218 0.999 . S
C216 H186 0.950 . S
C216 C215 1.524 . S
C216 C217 1.415 . S
C217 H187 0.950 . S
C217 C212 1.363 . S
C217 C216 1.415 . S
H218 C215 0.999 . S
H219 C200 0.913 . S
H220 C238 0.951 . S
H221 C240 0.951 . S
H222 C242 0.950 . S
H223 C243 0.950 . S
H224 C245 0.950 . S
H225 C248 0.950 . S
H226 C249 0.950 . S
H227 C251 0.950 . S
H228 C252 0.950 . S
H229 C253 0.951 . S
H230 C255 0.951 . S
H231 C257 0.950 . S
H232 C258 0.950 . S
H233 C260 0.950 . S
H234 C263 0.950 . S
H235 C264 0.950 . S
H236 C266 0.950 . S
H237 C267 0.950 . S
C238 H220 0.951 . S
C238 C239 1.366 . S
C238 C240 1.388 . S
C239 C238 1.366 . S
C239 C243 1.385 . S
C240 H221 0.951 . S
C240 C238 1.388 . S
C240 C241 1.366 . S
C241 C240 1.366 . S
C241 C242 1.414 . S
C241 C244 1.499 . S
C242 H222 0.950 . S
C242 C241 1.414 . S
C242 C243 1.374 . S
C243 H223 0.950 . S
C243 C239 1.385 . S
C243 C242 1.374 . S
C244 C241 1.499 . S
C244 C245 1.373 . S
C244 C246 1.389 . S
C245 H224 0.950 . S
C245 C244 1.373 . S
C245 C261 1.377 . S
C246 C244 1.389 . S
C246 C247 1.524 . S
C246 C260 1.377 . S
C247 C246 1.524 . S
C247 C248 1.397 . S
C247 C252 1.363 . S
C248 H225 0.950 . S
C248 C247 1.397 . S
C248 C249 1.334 . S
C249 H226 0.950 . S
C249 C248 1.334 . S
C249 C250 1.287 . S
C250 C249 1.287 . S
C250 C251 1.524 . S
C250 H269 0.913 . S
C251 H227 0.950 . S
C251 C250 1.524 . S
C251 C252 1.415 . S
C252 H228 0.950 . S
C252 C247 1.363 . S
C252 C251 1.415 . S
C253 H229 0.951 . S
C253 C254 1.366 . S
C253 C255 1.388 . S
C254 C253 1.366 . S
C254 C258 1.385 . S
C255 H230 0.951 . S
C255 C253 1.388 . S
C255 C256 1.366 . S
C256 C255 1.366 . S
C256 C257 1.414 . S
C256 C259 1.499 . S
C257 H231 0.950 . S
C257 C256 1.414 . S
C257 C258 1.374 . S
C258 H232 0.950 . S
C258 C254 1.385 . S
C258 C257 1.374 . S
C259 C256 1.499 . S
C259 C260 1.373 . S
C259 C261 1.389 . S
C260 H233 0.950 . S
C260 C246 1.377 . S
C260 C259 1.373 . S
C261 C245 1.377 . S
C261 C259 1.389 . S
C261 C262 1.524 . S
C262 C261 1.524 . S
C262 C263 1.397 . S
C262 C267 1.363 . S
C263 H234 0.950 . S
C263 C262 1.397 . S
C263 C264 1.334 . S
C264 H235 0.950 . S
C264 C263 1.334 . S
C264 C265 1.287 . S
C265 C264 1.287 . S
C265 C266 1.524 . S
C265 H268 0.999 . S
C266 H236 0.950 . S
C266 C265 1.524 . S
C266 C267 1.415 . S
C267 H237 0.950 . S
C267 C262 1.363 . S
C267 C266 1.415 . S
H268 C265 0.999 . S
H269 C250 0.913 . S
H270 C288 0.951 . S
H271 C290 0.951 . S
H272 C292 0.950 . S
H273 C293 0.950 . S
H274 C295 0.950 . S
H275 C298 0.950 . S
H276 C299 0.950 . S
H277 C301 0.950 . S
H278 C302 0.950 . S
H279 C303 0.951 . S
H280 C305 0.951 . S
H281 C307 0.950 . S
H282 C308 0.950 . S
H283 C310 0.950 . S
H284 C313 0.950 . S
H285 C314 0.950 . S
H286 C316 0.950 . S
H287 C317 0.950 . S
C288 H270 0.951 . S
C288 C289 1.366 1_556 S
C288 C290 1.388 . S
C289 C288 1.366 1_554 S
C289 C293 1.385 . S
C290 H271 0.951 . S
C290 C288 1.388 . S
C290 C291 1.366 1_556 S
C291 C290 1.366 1_554 S
C291 C292 1.414 . S
C291 C294 1.499 . S
C292 H272 0.950 . S
C292 C291 1.414 . S
C292 C293 1.374 . S
C293 H273 0.950 . S
C293 C289 1.385 . S
C293 C292 1.374 . S
C294 C291 1.499 . S
C294 C295 1.373 . S
C294 C296 1.389 1_554 S
C295 H274 0.950 . S
C295 C294 1.373 . S
C295 C311 1.377 . S
C296 C294 1.389 1_556 S
C296 C297 1.524 . S
C296 C310 1.377 . S
C297 C296 1.524 . S
C297 C298 1.397 . S
C297 C302 1.363 . S
C298 H275 0.950 . S
C298 C297 1.397 . S
C298 C299 1.334 . S
C299 H276 0.950 . S
C299 C298 1.334 . S
C299 C300 1.287 . S
C300 C299 1.287 . S
C300 C301 1.524 . S
C300 H319 0.913 . S
C301 H277 0.950 . S
C301 C300 1.524 . S
C301 C302 1.415 . S
C302 H278 0.950 . S
C302 C297 1.363 . S
C302 C301 1.415 . S
C303 H279 0.951 . S
C303 C304 1.366 . S
C303 C305 1.388 . S
C304 C303 1.366 . S
C304 C308 1.385 1_554 S
C305 H280 0.951 . S
C305 C303 1.388 . S
C305 C306 1.366 . S
C306 C305 1.366 . S
C306 C307 1.414 1_554 S
C306 C309 1.499 . S
C307 H281 0.950 . S
C307 C306 1.414 1_556 S
C307 C308 1.374 . S
C308 H282 0.950 . S
C308 C304 1.385 1_556 S
C308 C307 1.374 . S
C309 C306 1.499 . S
C309 C310 1.373 1_554 S
C309 C311 1.389 . S
C310 H283 0.950 . S
C310 C296 1.377 . S
C310 C309 1.373 1_556 S
C311 C295 1.377 . S
C311 C309 1.389 . S
C311 C312 1.524 . S
C312 C311 1.524 . S
C312 C313 1.397 . S
C312 C317 1.363 . S
C313 H284 0.950 . S
C313 C312 1.397 . S
C313 C314 1.334 . S
C314 H285 0.950 . S
C314 C313 1.334 . S
C314 C315 1.287 . S
C315 C314 1.287 . S
C315 C316 1.524 . S
C315 H318 0.999 . S
C316 H286 0.950 . S
C316 C315 1.524 . S
C316 C317 1.415 . S
C317 H287 0.950 . S
C317 C312 1.363 . S
C317 C316 1.415 . S
H318 C315 0.999 . S
H319 C300 0.913 . S
H320 C338 0.951 . S
H321 C340 0.951 . S
H322 C342 0.950 . S
H323 C343 0.950 . S
H324 C345 0.950 . S
H325 C348 0.950 . S
H326 C349 0.950 . S
H327 C351 0.950 . S
H328 C352 0.950 . S
H329 C353 0.951 . S
H330 C355 0.951 . S
H331 C357 0.950 . S
H332 C358 0.950 . S
H333 C360 0.950 . S
H334 C363 0.950 . S
H335 C364 0.950 . S
H336 C366 0.950 . S
H337 C367 0.950 . S
C338 H320 0.951 . S
C338 C339 1.366 1_554 S
C338 C340 1.388 . S
C339 C338 1.366 1_556 S
C339 C343 1.385 . S
C340 H321 0.951 . S
C340 C338 1.388 . S
C340 C341 1.360 1_554 S
C341 C340 1.360 1_556 S
C341 C342 1.420 . S
C341 C344 1.500 1_556 S
C342 H322 0.950 . S
C342 C341 1.420 . S
C342 C343 1.374 . S
C343 H323 0.950 . S
C343 C339 1.385 . S
C343 C342 1.374 . S
C344 C341 1.500 1_554 S
C344 C345 1.373 1_554 S
C344 C346 1.389 . S
C345 H324 0.950 . S
C345 C344 1.373 1_556 S
C345 C361 1.377 . S
C346 C344 1.389 . S
C346 C347 1.524 . S
C346 C360 1.377 . S
C347 C346 1.524 . S
C347 C348 1.397 . S
C347 C352 1.363 . S
C348 H325 0.950 . S
C348 C347 1.397 . S
C348 C349 1.334 . S
C349 H326 0.950 . S
C349 C348 1.334 . S
C349 C350 1.287 . S
C350 C349 1.287 . S
C350 C351 1.524 . S
C350 H369 0.913 . S
C351 H327 0.950 . S
C351 C350 1.524 . S
C351 C352 1.415 . S
C352 H328 0.950 . S
C352 C347 1.363 . S
C352 C351 1.415 . S
C353 H329 0.951 . S
C353 C354 1.366 1_556 S
C353 C355 1.388 . S
C354 C353 1.366 1_554 S
C354 C358 1.385 . S
C355 H330 0.951 . S
C355 C353 1.388 . S
C355 C356 1.366 1_556 S
C356 C355 1.366 1_554 S
C356 C357 1.414 . S
C356 C359 1.499 . S
C357 H331 0.950 . S
C357 C356 1.414 . S
C357 C358 1.374 . S
C358 H332 0.950 . S
C358 C354 1.385 . S
C358 C357 1.374 . S
C359 C356 1.499 . S
C359 C360 1.373 . S
C359 C361 1.389 1_554 S
C360 H333 0.950 . S
C360 C346 1.377 . S
C360 C359 1.373 . S
C361 C345 1.377 . S
C361 C359 1.389 1_556 S
C361 C362 1.524 . S
C362 C361 1.524 . S
C362 C363 1.397 . S
C362 C367 1.363 . S
C363 H334 0.950 . S
C363 C362 1.397 . S
C363 C364 1.334 . S
C364 H335 0.950 . S
C364 C363 1.334 . S
C364 C365 1.287 . S
C365 C364 1.287 . S
C365 C366 1.524 . S
C365 H368 0.999 . S
C366 H336 0.950 . S
C366 C365 1.524 . S
C366 C367 1.415 . S
C367 H337 0.950 . S
C367 C362 1.363 . S
C367 C366 1.415 . S
H368 C365 0.999 . S
H369 C350 0.913 . S
H370 C388 0.951 . S
H371 C390 0.951 . S
H372 C392 0.950 . S
H373 C393 0.950 . S
H374 C395 0.950 . S
H375 C398 0.950 . S
H376 C399 0.950 . S
H377 C401 0.950 . S
H378 C402 0.950 . S
H379 C403 0.951 . S
H380 C405 0.951 . S
H381 C407 0.950 . S
H382 C408 0.950 . S
H383 C410 0.950 . S
H384 C413 0.950 . S
H385 C414 0.950 . S
H386 C416 0.950 . S
H387 C417 0.950 . S
C388 H370 0.951 . S
C388 C389 1.366 . S
C388 C390 1.388 . S
C389 C388 1.366 . S
C389 C393 1.385 1_556 S
C390 H371 0.951 . S
C390 C388 1.388 . S
C390 C391 1.366 . S
C391 C390 1.366 . S
C391 C392 1.414 1_556 S
C391 C394 1.499 1_556 S
C392 H372 0.950 . S
C392 C391 1.414 1_554 S
C392 C393 1.374 . S
C393 H373 0.950 . S
C393 C389 1.385 1_554 S
C393 C392 1.374 . S
C394 C391 1.499 1_554 S
C394 C395 1.373 1_554 S
C394 C396 1.389 . S
C395 H374 0.950 . S
C395 C394 1.373 1_556 S
C395 C411 1.377 . S
C396 C394 1.389 . S
C396 C397 1.524 . S
C396 C410 1.377 . S
C397 C396 1.524 . S
C397 C398 1.397 . S
C397 C402 1.363 . S
C398 H375 0.950 . S
C398 C397 1.397 . S
C398 C399 1.334 . S
C399 H376 0.950 . S
C399 C398 1.334 . S
C399 C400 1.287 . S
C400 C399 1.287 . S
C400 C401 1.524 . S
C400 H419 0.913 . S
C401 H377 0.950 . S
C401 C400 1.524 . S
C401 C402 1.415 . S
C402 H378 0.950 . S
C402 C397 1.363 . S
C402 C401 1.415 . S
C403 H379 0.951 . S
C403 C404 1.366 1_554 S
C403 C405 1.388 . S
C404 C403 1.366 1_556 S
C404 C408 1.385 . S
C405 H380 0.951 . S
C405 C403 1.388 . S
C405 C406 1.366 1_554 S
C406 C405 1.366 1_556 S
C406 C407 1.414 . S
C406 C409 1.499 . S
C407 H381 0.950 . S
C407 C406 1.414 . S
C407 C408 1.374 . S
C408 H382 0.950 . S
C408 C404 1.385 . S
C408 C407 1.374 . S
C409 C406 1.499 . S
C409 C410 1.373 1_556 S
C409 C411 1.389 . S
C410 H383 0.950 . S
C410 C396 1.377 . S
C410 C409 1.373 1_554 S
C411 C395 1.377 . S
C411 C409 1.389 . S
C411 C412 1.524 . S
C412 C411 1.524 . S
C412 C413 1.397 . S
C412 C417 1.363 . S
C413 H384 0.950 . S
C413 C412 1.397 . S
C413 C414 1.334 . S
C414 H385 0.950 . S
C414 C413 1.334 . S
C414 C415 1.287 . S
C415 C414 1.287 . S
C415 C416 1.524 . S
C415 H418 0.999 . S
C416 H386 0.950 . S
C416 C415 1.524 . S
C416 C417 1.415 . S
C417 H387 0.950 . S
C417 C412 1.363 . S
C417 C416 1.415 . S
H418 C415 0.999 . S
H419 C400 0.913 . S
H420 C438 0.951 . S
H421 C440 0.951 . S
H422 C442 0.950 . S
H423 C443 0.950 . S
H424 C445 0.950 . S
H425 C448 0.950 . S
H426 C449 0.950 . S
H427 C451 0.950 . S
H428 C452 0.950 . S
H429 C453 0.951 . S
H430 C455 0.951 . S
H431 C457 0.950 . S
H432 C458 0.950 . S
H433 C460 0.950 . S
H434 C463 0.950 . S
H435 C464 0.950 . S
H436 C466 0.950 . S
H437 C467 0.950 . S
C438 H420 0.951 . S
C438 C439 1.366 1_554 S
C438 C440 1.388 . S
C439 C438 1.366 1_556 S
C439 C443 1.385 . S
C440 H421 0.951 . S
C440 C438 1.388 . S
C440 C441 1.366 1_554 S
C441 C440 1.366 1_556 S
C441 C442 1.414 . S
C441 C444 1.499 . S
C442 H422 0.950 . S
C442 C441 1.414 . S
C442 C443 1.374 . S
C443 H423 0.950 . S
C443 C439 1.385 . S
C443 C442 1.374 . S
C444 C441 1.499 . S
C444 C445 1.373 . S
C444 C446 1.389 1_556 S
C445 H424 0.950 . S
C445 C444 1.373 . S
C445 C461 1.377 . S
C446 C444 1.389 1_554 S
C446 C447 1.524 . S
C446 C460 1.377 . S
C447 C446 1.524 . S
C447 C448 1.397 . S
C447 C452 1.363 . S
C448 H425 0.950 . S
C448 C447 1.397 . S
C448 C449 1.334 . S
C449 H426 0.950 . S
C449 C448 1.334 . S
C449 C450 1.287 . S
C450 C449 1.287 . S
C450 C451 1.524 . S
C450 H469 0.913 . S
C451 H427 0.950 . S
C451 C450 1.524 . S
C451 C452 1.415 . S
C452 H428 0.950 . S
C452 C447 1.363 . S
C452 C451 1.415 . S
C453 H429 0.951 . S
C453 C454 1.366 . S
C453 C455 1.388 . S
C454 C453 1.366 . S
C454 C458 1.385 1_556 S
C455 H430 0.951 . S
C455 C453 1.388 . S
C455 C456 1.366 . S
C456 C455 1.366 . S
C456 C457 1.414 1_556 S
C456 C459 1.499 . S
C457 H431 0.950 . S
C457 C456 1.414 1_554 S
C457 C458 1.374 . S
C458 H432 0.950 . S
C458 C454 1.385 1_554 S
C458 C457 1.374 . S
C459 C456 1.499 . S
C459 C460 1.373 1_556 S
C459 C461 1.389 . S
C460 H433 0.950 . S
C460 C446 1.377 . S
C460 C459 1.373 1_554 S
C461 C445 1.377 . S
C461 C459 1.389 . S
C461 C462 1.524 . S
C462 C461 1.524 . S
C462 C463 1.397 . S
C462 C467 1.363 . S
C463 H434 0.950 . S
C463 C462 1.397 . S
C463 C464 1.334 . S
C464 H435 0.950 . S
C464 C463 1.334 . S
C464 C465 1.287 . S
C465 C464 1.287 . S
C465 C466 1.524 . S
C465 H468 0.999 . S
C466 H436 0.950 . S
C466 C465 1.524 . S
C466 C467 1.415 . S
C467 H437 0.950 . S
C467 C462 1.363 . S
C467 C466 1.415 . S
H468 C465 0.999 . S
H469 C450 0.913 . S
H470 C488 0.951 . S
H471 C490 0.951 . S
H472 C492 0.950 . S
H473 C493 0.950 . S
H474 C495 0.950 . S
H475 C498 0.950 . S
H476 C499 0.950 . S
H477 C501 0.950 . S
H478 C502 0.950 1_554 S
H479 C503 0.951 . S
H480 C505 0.951 . S
H481 C507 0.950 . S
H482 C508 0.950 . S
H483 C510 0.950 . S
H484 C513 0.950 . S
H485 C514 0.950 . S
H486 C516 0.950 . S
H487 C517 0.950 1_556 S
C488 H470 0.951 . S
C488 C489 1.366 1_554 S
C488 C490 1.388 . S
C489 C488 1.366 1_556 S
C489 C493 1.385 . S
C490 H471 0.951 . S
C490 C488 1.388 . S
C490 C491 1.366 1_554 S
C491 C490 1.366 1_556 S
C491 C492 1.414 . S
C491 C494 1.499 . S
C492 H472 0.950 . S
C492 C491 1.414 . S
C492 C493 1.374 . S
C493 H473 0.950 . S
C493 C489 1.385 . S
C493 C492 1.374 . S
C494 C491 1.499 . S
C494 C495 1.373 1_556 S
C494 C496 1.389 . S
C495 H474 0.950 . S
C495 C494 1.373 1_554 S
C495 C511 1.377 . S
C496 C494 1.389 . S
C496 C497 1.524 . S
C496 C510 1.377 . S
C497 C496 1.524 . S
C497 C498 1.397 . S
C497 C502 1.363 . S
C498 H475 0.950 . S
C498 C497 1.397 . S
C498 C499 1.334 . S
C499 H476 0.950 . S
C499 C498 1.334 . S
C499 C500 1.287 . S
C500 C499 1.287 . S
C500 C501 1.524 . S
C500 H519 0.913 . S
C501 H477 0.950 . S
C501 C500 1.524 . S
C501 C502 1.415 . S
C502 H478 0.950 1_556 S
C502 C497 1.363 . S
C502 C501 1.415 . S
C503 H479 0.951 . S
C503 C504 1.366 1_556 S
C503 C505 1.388 . S
C504 C503 1.366 1_554 S
C504 C508 1.385 . S
C505 H480 0.951 . S
C505 C503 1.388 . S
C505 C506 1.366 1_556 S
C506 C505 1.366 1_554 S
C506 C507 1.414 . S
C506 C509 1.499 . S
C507 H481 0.950 . S
C507 C506 1.414 . S
C507 C508 1.374 . S
C508 H482 0.950 . S
C508 C504 1.385 . S
C508 C507 1.374 . S
C509 C506 1.499 . S
C509 C510 1.373 1_554 S
C509 C511 1.389 . S
C510 H483 0.950 . S
C510 C496 1.377 . S
C510 C509 1.373 1_556 S
C511 C495 1.377 . S
C511 C509 1.389 . S
C511 C512 1.524 . S
C512 C511 1.524 . S
C512 C513 1.397 . S
C512 C517 1.363 . S
C513 H484 0.950 . S
C513 C512 1.397 . S
C513 C514 1.334 . S
C514 H485 0.950 . S
C514 C513 1.334 . S
C514 C515 1.287 . S
C515 C514 1.287 . S
C515 C516 1.524 . S
C515 H518 0.999 . S
C516 H486 0.950 . S
C516 C515 1.524 . S
C516 C517 1.415 . S
C517 H487 0.950 1_554 S
C517 C512 1.363 . S
C517 C516 1.415 . S
H518 C515 0.999 . S
H519 C500 0.913 . S
H520 C538 0.951 . S
H521 C540 0.951 . S
H522 C542 0.950 . S
H523 C543 0.950 . S
H524 C545 0.950 . S
H525 C548 0.950 . S
H526 C549 0.950 . S
H527 C551 0.950 . S
H528 C552 0.950 . S
H529 C553 0.951 . S
H530 C555 0.951 . S
H531 C557 0.950 . S
H532 C558 0.950 . S
H533 C560 0.950 . S
H534 C563 0.950 . S
H535 C564 0.950 . S
H536 C566 0.950 . S
H537 C567 0.950 . S
C538 H520 0.951 . S
C538 C539 1.366 . S
C538 C540 1.388 . S
C539 C538 1.366 . S
C539 C543 1.385 1_554 S
C540 H521 0.951 . S
C540 C538 1.388 . S
C540 C541 1.366 . S
C541 C540 1.366 . S
C541 C542 1.414 1_554 S
C541 C544 1.499 . S
C542 H522 0.950 . S
C542 C541 1.414 1_556 S
C542 C543 1.374 . S
C543 H523 0.950 . S
C543 C539 1.385 1_556 S
C543 C542 1.374 . S
C544 C541 1.499 . S
C544 C545 1.373 1_554 S
C544 C546 1.389 . S
C545 H524 0.950 . S
C545 C544 1.373 1_556 S
C545 C561 1.377 . S
C546 C544 1.389 . S
C546 C547 1.524 . S
C546 C560 1.377 . S
C547 C546 1.524 . S
C547 C548 1.397 . S
C547 C552 1.363 . S
C548 H525 0.950 . S
C548 C547 1.397 . S
C548 C549 1.334 . S
C549 H526 0.950 . S
C549 C548 1.334 . S
C549 C550 1.287 . S
C550 C549 1.287 . S
C550 C551 1.524 . S
C550 H569 0.913 . S
C551 H527 0.950 . S
C551 C550 1.524 . S
C551 C552 1.415 . S
C552 H528 0.950 . S
C552 C547 1.363 . S
C552 C551 1.415 . S
C553 H529 0.951 . S
C553 C554 1.366 1_556 S
C553 C555 1.388 . S
C554 C553 1.366 1_554 S
C554 C558 1.385 . S
C555 H530 0.951 . S
C555 C553 1.388 . S
C555 C556 1.366 1_556 S
C556 C555 1.366 1_554 S
C556 C557 1.414 . S
C556 C559 1.499 . S
C557 H531 0.950 . S
C557 C556 1.414 . S
C557 C558 1.374 . S
C558 H532 0.950 . S
C558 C554 1.385 . S
C558 C557 1.374 . S
C559 C556 1.499 . S
C559 C560 1.373 . S
C559 C561 1.389 1_554 S
C560 H533 0.950 . S
C560 C546 1.377 . S
C560 C559 1.373 . S
C561 C545 1.377 . S
C561 C559 1.389 1_556 S
C561 C562 1.524 . S
C562 C561 1.524 . S
C562 C563 1.397 . S
C562 C567 1.363 . S
C563 H534 0.950 . S
C563 C562 1.397 . S
C563 C564 1.334 . S
C564 H535 0.950 . S
C564 C563 1.334 . S
C564 C565 1.287 . S
C565 C564 1.287 . S
C565 C566 1.524 . S
C565 H568 0.999 . S
C566 H536 0.950 . S
C566 C565 1.524 . S
C566 C567 1.415 . S
C567 H537 0.950 . S
C567 C562 1.363 . S
C567 C566 1.415 . S
H568 C565 0.999 . S
H569 C550 0.913 . S
C139 C17 1.466 . S
C154 C2 1.466 . S
C189 C57 1.463 . S
C204 C42 1.463 . S
C239 C97 1.460 . S
C254 C82 1.460 . S
C289 C12 1.892 . S
C304 C88 1.837 . S
C339 C48 0.859 . S
C354 C8 0.863 . S
C389 C52 2.586 . S
C404 C111 2.567 . S
C439 C31 1.892 . S
C454 C109 1.837 . S
C489 C29 0.863 . S
C504 C69 0.858 . S
C539 C92 2.566 . S
C554 C71 2.586 . S
