# Generated by pormake.
# Topology yfz, (5)-cn, num edge types: 1
# Building blocks:
#     Node 0, Type 0, BuildingBlock: BEQFEK_clean_sbu_0, # of connection points: 5
#     Node 1, Type 0, BuildingBlock: BEQFEK_clean_sbu_0, # of connection points: 5
#     Node 2, Type 0, BuildingBlock: BEQFEK_clean_sbu_0, # of connection points: 5
#     Node 3, Type 0, BuildingBlock: BEQFEK_clean_sbu_0, # of connection points: 5
#     Node 4, Type 0, BuildingBlock: BEQFEK_clean_sbu_0, # of connection points: 5
#     Node 5, Type 0, BuildingBlock: BEQFEK_clean_sbu_0, # of connection points: 5
#     Node 6, Type 0, BuildingBlock: BEQFEK_clean_sbu_0, # of connection points: 5
#     Node 7, Type 0, BuildingBlock: BEQFEK_clean_sbu_0, # of connection points: 5
#     Edge 8, Type (0, 0), BuildingBlock: UVAHIK_clean_linker_0, # of connection points: 2
#     Edge 9, Type (0, 0), BuildingBlock: UVAHIK_clean_linker_0, # of connection points: 2
#     Edge 10, Type (0, 0), BuildingBlock: UVAHIK_clean_linker_0, # of connection points: 2
#     Edge 11, Type (0, 0), BuildingBlock: UVAHIK_clean_linker_0, # of connection points: 2
#     Edge 12, Type (0, 0), BuildingBlock: UVAHIK_clean_linker_0, # of connection points: 2
#     Edge 13, Type (0, 0), BuildingBlock: UVAHIK_clean_linker_0, # of connection points: 2
#     Edge 14, Type (0, 0), BuildingBlock: UVAHIK_clean_linker_0, # of connection points: 2
#     Edge 15, Type (0, 0), BuildingBlock: UVAHIK_clean_linker_0, # of connection points: 2
#     Edge 16, Type (0, 0), BuildingBlock: UVAHIK_clean_linker_0, # of connection points: 2
#     Edge 17, Type (0, 0), BuildingBlock: UVAHIK_clean_linker_0, # of connection points: 2
#     Edge 18, Type (0, 0), BuildingBlock: UVAHIK_clean_linker_0, # of connection points: 2
#     Edge 19, Type (0, 0), BuildingBlock: UVAHIK_clean_linker_0, # of connection points: 2
#     Edge 20, Type (0, 0), BuildingBlock: UVAHIK_clean_linker_0, # of connection points: 2
#     Edge 21, Type (0, 0), BuildingBlock: UVAHIK_clean_linker_0, # of connection points: 2
#     Edge 22, Type (0, 0), BuildingBlock: UVAHIK_clean_linker_0, # of connection points: 2
#     Edge 23, Type (0, 0), BuildingBlock: UVAHIK_clean_linker_0, # of connection points: 2
#     Edge 24, Type (0, 0), BuildingBlock: UVAHIK_clean_linker_0, # of connection points: 2
#     Edge 25, Type (0, 0), BuildingBlock: UVAHIK_clean_linker_0, # of connection points: 2
#     Edge 26, Type (0, 0), BuildingBlock: UVAHIK_clean_linker_0, # of connection points: 2
#     Edge 27, Type (0, 0), BuildingBlock: UVAHIK_clean_linker_0, # of connection points: 2
# Relax obj value: 0.181
# Max RMSD: 0.171
# Mean RMSD: 0.171
data_MOF--net-yfz--node1-BEQFEK_clean_sbu_0--edge1-UVAHIK_clean_linker_0
_symmetry_space_group_name_H-M    P1
_symmetry_Int_Tables_number       1
_symmetry_cell_setting            triclinic
loop_
_symmetry_equiv_pos_as_xyz
'x, y, z'
_cell_length_a     66.51384
_cell_length_b     66.474008
_cell_length_c     23.030116
_cell_angle_alpha  89.923962
_cell_angle_beta   89.91444
_cell_angle_gamma 89.977081
loop_
_atom_site_label
_atom_site_type_symbol
_atom_site_fract_x
_atom_site_fract_y
_atom_site_fract_z
_atom_type_partial_charge
Co0 Co 0.59776 0.09929 0.26109 0.0
Co1 Co 0.6075 0.10979 0.39031 0.0
C2 C 0.63934 0.09482 0.31102 0.0
O3 O 0.62674 0.09408 0.2697 0.0
O4 O 0.63405 0.10041 0.3616 0.0
C5 C 0.59955 0.07388 0.16303 0.0
O6 O 0.61156 0.0636 0.19723 0.0
C7 C 0.61775 0.10177 0.51114 0.0
C8 C 0.60444 0.12792 0.55619 0.0
C9 C 0.61445 0.10995 0.56565 0.0
N10 N 0.60974 0.11419 0.47141 0.0
N11 N 0.60209 0.12996 0.49845 0.0
C12 C 0.62892 0.0829 0.49616 0.0
H13 H 0.6445 0.08698 0.48349 0.0
H14 H 0.62185 0.07546 0.45821 0.0
H15 H 0.62974 0.07236 0.53339 0.0
C16 C 0.56725 0.0735 0.31768 0.0
N17 N 0.58281 0.08641 0.31994 0.0
N18 N 0.58662 0.0909 0.3745 0.0
C19 C 0.57337 0.08111 0.40877 0.0
C20 C 0.56073 0.06974 0.37384 0.0
C21 C 0.55815 0.06591 0.26252 0.0
H22 H 0.55645 0.07851 0.23129 0.0
H23 H 0.5684 0.05464 0.24286 0.0
H24 H 0.54327 0.05886 0.27026 0.0
O25 O 0.59299 0.12862 0.26325 0.0
O26 O 0.60072 0.13603 0.35453 0.0
H27 H 0.57304 0.09817 0.48768 0.0
H28 H 0.56009 0.0744 0.49314 0.0
C29 C 0.57315 0.08222 0.47374 0.0
H30 H 0.58687 0.07492 0.49084 0.0
H31 H 0.59471 0.14179 0.47763 0.0
O32 O 0.59074 0.0894 0.18283 0.0
C33 C 0.59501 0.14137 0.30405 0.0
Co34 Co 0.39266 0.59944 0.75763 0.0
Co35 Co 0.38075 0.60689 0.88659 0.0
C36 C 0.39606 0.64026 0.81407 0.0
O37 O 0.39725 0.62836 0.77102 0.0
O38 O 0.39028 0.63405 0.86367 0.0
C39 C 0.41843 0.60316 0.65908 0.0
O40 O 0.42661 0.61786 0.68886 0.0
C41 C 0.38484 0.61338 0.0118 0.0
C42 C 0.35909 0.59561 0.04442 0.0
C43 C 0.37588 0.60627 0.06225 0.0
N44 N 0.3741 0.6067 0.96643 0.0
N45 N 0.35843 0.59658 0.98623 0.0
C46 C 0.40446 0.62424 0.00605 0.0
H47 H 0.4105 0.62274 0.96131 0.0
H48 H 0.41556 0.61837 0.03778 0.0
H49 H 0.40204 0.64044 0.0153 0.0
C50 C 0.41756 0.56778 0.81145 0.0
N51 N 0.40482 0.58346 0.8153 0.0
N52 N 0.39991 0.58636 0.87001 0.0
C53 C 0.40928 0.57239 0.90284 0.0
C54 C 0.42077 0.56022 0.86675 0.0
C55 C 0.42533 0.55946 0.7554 0.0
H56 H 0.41272 0.55767 0.72438 0.0
H57 H 0.43621 0.57026 0.73626 0.0
H58 H 0.43284 0.54471 0.76161 0.0
O59 O 0.36338 0.59428 0.75453 0.0
O60 O 0.35541 0.60069 0.84619 0.0
H61 H 0.39157 0.56988 0.98026 0.0
H62 H 0.41586 0.55793 0.9856 0.0
C63 C 0.4076 0.57097 0.96757 0.0
H64 H 0.41409 0.58467 0.9871 0.0
H65 H 0.34795 0.58932 0.95991 0.0
O66 O 0.40405 0.59312 0.68107 0.0
C67 C 0.35039 0.5957 0.79495 0.0
Co68 Co 0.89124 0.3941 0.26548 0.0
Co69 Co 0.88177 0.38244 0.3937 0.0
C70 C 0.85003 0.39928 0.31768 0.0
O71 O 0.86237 0.40016 0.27555 0.0
O72 O 0.85549 0.39296 0.36738 0.0
C73 C 0.89026 0.41995 0.16708 0.0
O74 O 0.87702 0.42988 0.19831 0.0
C75 C 0.87167 0.38791 0.51594 0.0
C76 C 0.8868 0.36178 0.55625 0.0
C77 C 0.87588 0.37897 0.56895 0.0
N78 N 0.88009 0.3767 0.47401 0.0
N79 N 0.88881 0.36092 0.49821 0.0
C80 C 0.85934 0.40634 0.50439 0.0
H81 H 0.86732 0.41636 0.47344 0.0
H82 H 0.85558 0.41458 0.54477 0.0
H83 H 0.8451 0.40172 0.48327 0.0
C84 C 0.9233 0.41752 0.32261 0.0
N85 N 0.90697 0.4056 0.32466 0.0
N86 N 0.90304 0.4009 0.37901 0.0
C87 C 0.91678 0.40977 0.41351 0.0
C88 C 0.93009 0.42054 0.37883 0.0
C89 C 0.93301 0.42446 0.26744 0.0
H90 H 0.93378 0.41179 0.23621 0.0
H91 H 0.92366 0.43649 0.24777 0.0
H92 H 0.94839 0.43032 0.27504 0.0
O93 O 0.89512 0.36468 0.26403 0.0
O94 O 0.88767 0.35655 0.35502 0.0
H95 H 0.91839 0.39235 0.49167 0.0
H96 H 0.92899 0.41729 0.49849 0.0
C97 C 0.91683 0.40832 0.47844 0.0
H98 H 0.9024 0.41409 0.49547 0.0
H99 H 0.8967 0.34994 0.47523 0.0
O100 O 0.89888 0.40462 0.18868 0.0
C101 C 0.89296 0.35157 0.30389 0.0
Co102 Co 0.09859 0.89244 0.76568 0.0
Co103 Co 0.10903 0.88172 0.8946 0.0
C104 C 0.09598 0.85018 0.81113 0.0
O105 O 0.09484 0.86318 0.77087 0.0
O106 O 0.10107 0.85517 0.86234 0.0
C107 C 0.07356 0.8904 0.66752 0.0
O108 O 0.06383 0.87785 0.70155 0.0
C109 C 0.09945 0.87184 0.01548 0.0
C110 C 0.12722 0.88117 0.0606 0.0
C111 C 0.10805 0.87369 0.06999 0.0
N112 N 0.1128 0.87832 0.97579 0.0
N113 N 0.12947 0.8836 0.00295 0.0
C114 C 0.07923 0.86328 0.00105 0.0
H115 H 0.07895 0.85777 0.95566 0.0
H116 H 0.0675 0.87499 0.00555 0.0
H117 H 0.07547 0.85084 0.03137 0.0
C118 C 0.07086 0.92082 0.82447 0.0
N119 N 0.08453 0.90587 0.8256 0.0
N120 N 0.08957 0.90209 0.87983 0.0
C121 C 0.07975 0.91505 0.91478 0.0
C122 C 0.0673 0.92698 0.88106 0.0
C123 C 0.06149 0.92885 0.77015 0.0
H124 H 0.07345 0.93449 0.74071 0.0
H125 H 0.05357 0.91646 0.74754 0.0
H126 H 0.05057 0.94105 0.77922 0.0
O127 O 0.12777 0.89866 0.77003 0.0
O128 O 0.13494 0.89028 0.86116 0.0
H129 H 0.10032 0.91484 0.98691 0.0
H130 H 0.0815 0.93424 0.99016 0.0
C131 C 0.08438 0.91837 0.97771 0.0
H132 H 0.07455 0.90876 0.0048 0.0
H133 H 0.14218 0.8894 0.98228 0.0
O134 O 0.08864 0.89986 0.68759 0.0
C135 C 0.1403 0.89686 0.81156 0.0
Co136 Co 0.59873 0.39536 0.22785 0.0
Co137 Co 0.61069 0.38333 0.10129 0.0
C138 C 0.64105 0.39931 0.18412 0.0
O139 O 0.62782 0.40057 0.2238 0.0
O140 O 0.63654 0.39312 0.13355 0.0
C141 C 0.59868 0.42054 0.32712 0.0
O142 O 0.61227 0.43039 0.29693 0.0
C143 C 0.62123 0.39067 0.97972 0.0
C144 C 0.61152 0.36227 0.93863 0.0
C145 C 0.61919 0.38119 0.92643 0.0
N146 N 0.61461 0.37807 0.02119 0.0
N147 N 0.60918 0.36099 -0.0035 0.0
C148 C 0.62997 0.41101 0.99178 0.0
H149 H 0.64069 0.40992 0.02849 0.0
H150 H 0.61793 0.42154 0.00515 0.0
H151 H 0.63789 0.41713 0.95318 0.0
C152 C 0.56964 0.42091 0.16408 0.0
N153 N 0.58503 0.40775 0.16548 0.0
N154 N 0.58942 0.40211 0.11214 0.0
C155 C 0.57649 0.41106 0.07521 0.0
C156 C 0.56384 0.4235 0.10675 0.0
C157 C 0.56098 0.43084 0.21673 0.0
H158 H 0.55461 0.41919 0.24598 0.0
H159 H 0.57315 0.43864 0.24061 0.0
H160 H 0.54916 0.44192 0.20536 0.0
O161 O 0.59404 0.36584 0.2275 0.0
O162 O 0.60319 0.35763 0.13784 0.0
H163 H 0.55857 0.40858 -0.00262 0.0
H164 H 0.58432 0.41535 0.98577 0.0
C165 C 0.5742 0.40582 0.01229 0.0
H166 H 0.57787 0.38979 0.00496 0.0
H167 H 0.60318 0.34873 0.01893 0.0
O168 O 0.58976 0.40566 0.30402 0.0
C169 C 0.59665 0.35275 0.18784 0.0
Co170 Co 0.09695 0.59917 0.72122 0.0
Co171 Co 0.10794 0.60919 0.59286 0.0
C172 C 0.09238 0.64084 0.67121 0.0
O173 O 0.09155 0.62825 0.71274 0.0
O174 O 0.09815 0.63555 0.6208 0.0
C175 C 0.0712 0.60011 0.81949 0.0
O176 O 0.06122 0.61317 0.7878 0.0
C177 C 0.10209 0.61987 0.47108 0.0
C178 C 0.12808 0.60488 0.42965 0.0
C179 C 0.11092 0.61594 0.41775 0.0
N180 N 0.11336 0.61119 0.51243 0.0
N181 N 0.12904 0.60255 0.48757 0.0
C182 C 0.08374 0.63222 0.48351 0.0
H183 H 0.07399 0.62433 0.51533 0.0
H184 H 0.0752 0.63583 0.44356 0.0
H185 H 0.0885 0.64655 0.50393 0.0
C186 C 0.07283 0.56768 0.66385 0.0
N187 N 0.08478 0.58399 0.6619 0.0
N188 N 0.0892 0.58817 0.60751 0.0
C189 C 0.08009 0.57462 0.57287 0.0
C190 C 0.06947 0.56117 0.6075 0.0
C191 C 0.06631 0.55763 0.71893 0.0
H192 H 0.07916 0.55679 0.74948 0.0
H193 H 0.05433 0.56678 0.73961 0.0
H194 H 0.06052 0.54223 0.71094 0.0
O195 O 0.12627 0.59461 0.72105 0.0
O196 O 0.13389 0.60263 0.63009 0.0
H197 H 0.09722 0.57307 0.49418 0.0
H198 H 0.07215 0.56277 0.4878 0.0
C199 C 0.08132 0.57478 0.50791 0.0
H200 H 0.07566 0.58933 0.49143 0.0
H201 H 0.14006 0.59451 0.51 0.0
O202 O 0.08658 0.59149 0.79818 0.0
C203 C 0.13913 0.59686 0.68057 0.0
Co204 Co 0.89078 0.09819 0.22879 0.0
Co205 Co 0.88094 0.10887 0.10032 0.0
C206 C 0.84919 0.0936 0.17927 0.0
O207 O 0.8617 0.09286 0.22088 0.0
O208 O 0.85457 0.09921 0.12876 0.0
C209 C 0.88992 0.07252 0.32707 0.0
O210 O 0.87705 0.06241 0.29525 0.0
C211 C 0.87034 0.1024 0.97904 0.0
C212 C 0.88444 0.12872 0.93662 0.0
C213 C 0.87383 0.11123 0.92544 0.0
N214 N 0.87881 0.11401 0.01987 0.0
N215 N 0.88694 0.12987 0.99443 0.0
C216 C 0.85846 0.08381 0.99229 0.0
H217 H 0.866 0.07496 0.02687 0.0
H218 H 0.85606 0.07441 0.95322 0.0
H219 H 0.84354 0.08837 0.00936 0.0
C220 C 0.92162 0.07296 0.17155 0.0
N221 N 0.90584 0.08561 0.16958 0.0
N222 N 0.90186 0.09009 0.11512 0.0
C223 C 0.91514 0.0805 0.08055 0.0
C224 C 0.92806 0.06933 0.11525 0.0
C225 C 0.9311 0.06564 0.22656 0.0
H226 H 0.93275 0.07835 0.25736 0.0
H227 H 0.92113 0.05426 0.24692 0.0
H228 H 0.94607 0.05882 0.21848 0.0
O229 O 0.89541 0.12759 0.22801 0.0
O230 O 0.88763 0.13486 0.1367 0.0
H231 H 0.91597 0.09767 0.00178 0.0
H232 H 0.92777 0.07327 -0.00421 0.0
C233 C 0.91515 0.08171 0.01558 0.0
H234 H 0.90102 0.07518 -0.00117 0.0
H235 H 0.89471 0.14117 0.01638 0.0
O236 O 0.89843 0.08799 0.30584 0.0
C237 C 0.8933 0.14028 0.18703 0.0
Co238 Co 0.39305 0.89302 0.73764 0.0
Co239 Co 0.38013 0.88348 0.60995 0.0
C240 C 0.39433 0.85108 0.68892 0.0
O241 O 0.39624 0.86377 0.72974 0.0
O242 O 0.38857 0.85651 0.63858 0.0
C243 C 0.41827 0.88976 0.83665 0.0
O244 O 0.42695 0.87577 0.80514 0.0
C245 C 0.38642 0.87521 0.48639 0.0
C246 C 0.35903 0.88858 0.44821 0.0
C247 C 0.37732 0.87988 0.43375 0.0
N248 N 0.37424 0.88136 0.52949 0.0
N249 N 0.35768 0.88885 0.50642 0.0
C250 C 0.40715 0.86714 0.49629 0.0
H251 H 0.41213 0.87023 0.54138 0.0
H252 H 0.41795 0.87379 0.46493 0.0
H253 H 0.407 0.85061 0.48968 0.0
C254 C 0.4204 0.92116 0.6768 0.0
N255 N 0.40617 0.90675 0.67667 0.0
N256 N 0.40025 0.90345 0.62295 0.0
C257 C 0.4102 0.91615 0.58736 0.0
C258 C 0.4235 0.92744 0.6201 0.0
C259 C 0.43088 0.9284 0.73025 0.0
H260 H 0.43807 0.91544 0.75233 0.0
H261 H 0.44254 0.9398 0.72011 0.0
H262 H 0.41966 0.93489 0.76061 0.0
O263 O 0.36401 0.89966 0.73842 0.0
O264 O 0.35495 0.89177 0.64857 0.0
H265 H 0.40952 0.93496 0.51082 0.0
H266 H 0.41437 0.90886 0.49773 0.0
C267 C 0.40548 0.91946 0.52449 0.0
H268 H 0.38926 0.91716 0.51635 0.0
H269 H 0.34595 0.89518 0.53036 0.0
O270 O 0.40407 0.90007 0.81467 0.0
C271 C 0.35063 0.89811 0.69919 0.0
C272 C 0.43715 0.96245 0.61774 0.0
C273 C 0.43773 0.94255 0.59784 0.0
C274 C 0.44954 0.97702 0.59241 0.0
C275 C 0.47875 0.9868 0.45814 0.0
H276 H 0.50467 0.02775 0.55145 0.0
C277 C 0.54458 0.03597 0.37702 0.0
C278 C 0.54433 0.05634 0.39259 0.0
C279 C 0.53007 0.02284 0.3991 0.0
C280 C 0.49732 0.01654 0.52479 0.0
H281 H 0.45174 0.92192 0.5375 0.0
H282 H 0.4738 0.94712 0.49424 0.0
H283 H 0.4828 0.0031 0.5981 0.0
H284 H 0.52824 0.07942 0.43988 0.0
H285 H 0.50293 0.05639 0.47941 0.0
H286 H 0.49374 -0.0 0.38507 0.0
C287 C 0.46353 0.95173 0.52825 0.0
C288 C 0.48478 0.00244 0.55147 0.0
C289 C 0.45107 0.93726 0.55327 0.0
C290 C 0.52889 0.06363 0.42837 0.0
C291 C 0.51448 0.0505 0.45089 0.0
C292 C 0.49141 0.0008 0.43158 0.0
C293 C 0.46272 0.97184 0.54693 0.0
C294 C 0.47549 0.9873 0.51851 0.0
C295 C 0.51514 0.02993 0.43722 0.0
C296 C 0.5009 0.01572 0.46471 0.0
H297 H 0.4267 0.96683 0.65158 0.0
H298 H 0.44839 0.99241 0.60738 0.0
H299 H 0.47148 0.9756 0.43128 0.0
H300 H 0.55639 0.03009 0.34937 0.0
H301 H 0.53098 0.00703 0.38811 0.0
C302 C 0.52807 0.43494 0.10215 0.0
C303 C 0.54801 0.43658 0.083 0.0
C304 C 0.513 0.44657 0.07639 0.0
C305 C 0.50239 0.47615 0.94315 0.0
H306 H 0.46107 0.50094 0.03801 0.0
C307 C 0.45421 0.54342 0.86884 0.0
C308 C 0.43378 0.54328 0.88374 0.0
C309 C 0.46697 0.52831 0.8892 0.0
C310 C 0.47235 0.49387 0.01089 0.0
H311 H 0.56813 0.45161 0.02317 0.0
H312 H 0.54204 0.47234 0.97911 0.0
H313 H 0.48581 0.47886 0.08325 0.0
H314 H 0.41023 0.52686 0.92812 0.0
H315 H 0.43264 0.5005 0.96483 0.0
H316 H 0.48926 0.49175 0.87115 0.0
C317 C 0.53781 0.46181 0.01289 0.0
C318 C 0.48651 0.48121 0.03675 0.0
C319 C 0.55278 0.45011 0.03836 0.0
C320 C 0.42606 0.5274 0.91714 0.0
C321 C 0.43883 0.51239 0.93801 0.0
C322 C 0.48834 0.48893 0.91742 0.0
C323 C 0.51771 0.46006 0.03119 0.0
C324 C 0.50186 0.47244 0.00329 0.0
C325 C 0.45946 0.51289 0.92498 0.0
C326 C 0.47335 0.49809 0.95117 0.0
H327 H 0.52408 0.42432 0.136 0.0
H328 H 0.49764 0.44471 0.09104 0.0
H329 H 0.51375 0.46926 0.91592 0.0
H330 H 0.46043 0.55558 0.84308 0.0
H331 H 0.48284 0.52913 0.87885 0.0
C332 C 0.96188 0.424 0.43545 0.0
C333 C 0.94763 0.4324 0.39763 0.0
C334 C 0.97747 0.43579 0.45732 0.0
C335 C 0.00692 0.48128 0.43258 0.0
H336 H 0.01031 0.48452 0.60057 0.0
C337 C 0.0662 0.52951 0.55015 0.0
C338 C 0.05777 0.54354 0.58861 0.0
C339 C 0.05456 0.51381 0.5283 0.0
C340 C 0.00959 0.48363 0.55365 0.0
H341 H 0.93892 0.45918 0.35037 0.0
H342 H 0.96659 0.47975 0.38742 0.0
H343 H 0.9869 0.46077 0.55563 0.0
H344 H 0.03109 0.55172 0.6371 0.0
H345 H 0.01076 0.52385 0.60001 0.0
H346 H 0.02942 0.50432 0.43059 0.0
C347 C 0.96556 0.46413 0.4006 0.0
C348 C -0.00366 0.47001 0.52802 0.0
C349 C 0.94978 0.45242 0.37948 0.0
C350 C 0.03787 0.54104 0.60743 0.0
C351 C 0.0263 0.52515 0.58631 0.0
C352 C 0.02041 0.49466 0.45821 0.0
C353 C 0.97927 0.45601 0.44061 0.0
C354 C 0.99466 0.469 0.46731 0.0
C355 C 0.03444 0.51167 0.54566 0.0
C356 C 0.02158 0.49618 0.51893 0.0
H357 H 0.96071 0.40843 0.44895 0.0
H358 H 0.98802 0.42918 0.48764 0.0
H359 H 0.0059 0.48069 0.38566 0.0
H360 H 0.08169 0.53094 0.53615 0.0
H361 H 0.06119 0.50344 0.49749 0.0
C362 C 0.95989 0.06388 0.06 0.0
C363 C 0.94474 0.05631 0.09637 0.0
C364 C 0.97483 0.05112 0.03859 0.0
C365 C -0.00049 0.00232 0.06289 0.0
H366 H 0.0092 0.00356 0.89675 0.0
C367 C 0.03971 0.9378 0.94636 0.0
C368 C 0.05349 0.94262 0.90242 0.0
C369 C 0.02747 0.95264 0.97026 0.0
C370 C 0.00691 0.00323 0.94331 0.0
H371 H 0.93358 0.02995 0.14119 0.0
H372 H 0.95983 0.00756 0.10425 0.0
H373 H 0.98656 0.02817 0.94048 0.0
H374 H 0.0656 0.96652 0.849 0.0
H375 H 0.04413 0.99274 0.89096 0.0
H376 H 0.01976 0.97738 0.06588 0.0
C377 C 0.96019 0.02331 0.09213 0.0
C378 C 0.99395 0.0173 0.96833 0.0
C379 C 0.94518 0.03605 0.11315 0.0
C380 C 0.05478 0.96247 0.88222 0.0
C381 C 0.04255 0.97741 0.90631 0.0
C382 C 0.01254 0.98833 0.03797 0.0
C383 C 0.97496 0.03066 0.05389 0.0
C384 C 0.9899 0.01678 0.02821 0.0
C385 C 0.02889 0.97266 0.951 0.0
C386 C 0.01612 0.98841 0.97776 0.0
H387 H 0.95998 0.07959 0.04749 0.0
H388 H 0.98621 0.05723 0.00988 0.0
H389 H -0.00311 0.00179 0.1093 0.0
H390 H 0.03849 0.92251 0.96239 0.0
H391 H 0.01683 0.9484 0.00375 0.0
C392 C 0.58767 0.16965 0.23527 0.0
C393 C 0.59126 0.16292 0.29222 0.0
C394 C 0.58543 0.19014 0.22361 0.0
C395 C 0.57467 0.23937 0.29027 0.0
H396 H 0.60697 0.26003 0.16326 0.0
C397 C 0.59081 0.32418 0.25713 0.0
C398 C 0.59247 0.33131 0.19987 0.0
C399 C 0.58835 0.30363 0.26799 0.0
C400 C 0.59756 0.25452 0.19823 0.0
H401 H 0.59453 0.17242 0.38191 0.0
H402 H 0.59065 0.20819 0.36133 0.0
H403 H 0.6064 0.22409 0.18251 0.0
H404 H 0.59175 0.32266 0.10905 0.0
H405 H 0.58695 0.28702 0.12791 0.0
H406 H 0.56586 0.26987 0.30604 0.0
C407 C 0.58952 0.19758 0.32583 0.0
C408 C 0.59728 0.2339 0.20929 0.0
C409 C 0.59188 0.17709 0.3375 0.0
C410 C 0.59083 0.31761 0.15372 0.0
C411 C 0.58817 0.29715 0.16454 0.0
C412 C 0.57483 0.26004 0.27894 0.0
C413 C 0.5866 0.20432 0.26865 0.0
C414 C 0.58594 0.22612 0.25559 0.0
C415 C 0.58732 0.28984 0.22178 0.0
C416 C 0.58638 0.26785 0.23295 0.0
H417 H 0.587 0.15914 0.19942 0.0
H418 H 0.58296 0.19492 0.1792 0.0
H419 H 0.56566 0.23373 0.32597 0.0
H420 H 0.59204 0.33438 0.2936 0.0
H421 H 0.58794 0.29849 0.31262 0.0
C422 C 0.1673 0.58911 0.74919 0.0
C423 C 0.16065 0.59314 0.69245 0.0
C424 C 0.18776 0.58666 0.76067 0.0
C425 C 0.23684 0.57606 0.69242 0.0
H426 H 0.25794 0.60659 0.82205 0.0
C427 C 0.32171 0.59139 0.72539 0.0
C428 C 0.32893 0.59192 0.78267 0.0
C429 C 0.30114 0.58926 0.71463 0.0
C430 C 0.25228 0.59768 0.78628 0.0
H431 H 0.17024 0.59707 0.60294 0.0
H432 H 0.20592 0.59288 0.62321 0.0
H433 H 0.22198 0.6066 0.80344 0.0
H434 H 0.32039 0.58953 0.87346 0.0
H435 H 0.28472 0.58539 0.85465 0.0
H436 H 0.26723 0.56724 0.67511 0.0
C437 C 0.19529 0.59153 0.65868 0.0
C438 C 0.23167 0.59771 0.77562 0.0
C439 C 0.17485 0.59408 0.64721 0.0
C440 C 0.31529 0.58949 0.82881 0.0
C441 C 0.29481 0.58719 0.81806 0.0
C442 C 0.25751 0.57594 0.70328 0.0
C443 C 0.20196 0.58808 0.71563 0.0
C444 C 0.22374 0.58702 0.7284 0.0
C445 C 0.28744 0.58746 0.76095 0.0
C446 C 0.26546 0.58685 0.75017 0.0
H447 H 0.15675 0.5882 0.78498 0.0
H448 H 0.19249 0.58379 0.8049 0.0
H449 H 0.23109 0.56754 0.65601 0.0
H450 H 0.33186 0.59324 0.68894 0.0
H451 H 0.29592 0.58969 0.67013 0.0
C452 C 0.89826 0.17542 0.1512 0.0
C453 C 0.89702 0.16186 0.19794 0.0
C454 C 0.90061 0.19597 0.16116 0.0
C455 C 0.91415 0.23346 0.27371 0.0
H456 H 0.8813 0.26893 0.17939 0.0
C457 C 0.89613 0.31565 0.33525 0.0
C458 C 0.89635 0.33008 0.29056 0.0
C459 C 0.89857 0.29527 0.32258 0.0
C460 C 0.89078 0.25926 0.20553 0.0
H461 H 0.8978 0.15917 0.29179 0.0
H462 H 0.90142 0.19515 0.30927 0.0
H463 H 0.88127 0.23298 0.16008 0.0
H464 H 0.89975 0.33446 0.19763 0.0
H465 H 0.9039 0.29881 0.1756 0.0
H466 H 0.92317 0.25986 0.32017 0.0
C467 C 0.90092 0.18985 0.26485 0.0
C468 C 0.8908 0.23864 0.19444 0.0
C469 C 0.89873 0.16924 0.25486 0.0
C470 C 0.89943 0.32373 0.23305 0.0
C471 C 0.90173 0.30332 0.22036 0.0
C472 C 0.91403 0.25411 0.28503 0.0
C473 C 0.9016 0.20347 0.2181 0.0
C474 C 0.90239 0.22548 0.22859 0.0
C475 C 0.90114 0.28889 0.26495 0.0
C476 C 0.90224 0.26717 0.25125 0.0
H477 H 0.89725 0.1702 0.10676 0.0
H478 H 0.90151 0.206 0.12416 0.0
H479 H 0.92346 0.22377 0.30026 0.0
H480 H 0.89387 0.32004 0.38007 0.0
H481 H 0.89785 0.28445 0.35774 0.0
C482 C 0.32345 0.90691 0.77037 0.0
C483 C 0.32948 0.90312 0.71288 0.0
C484 C 0.3032 0.91012 0.78357 0.0
C485 C 0.25379 0.92261 0.71961 0.0
H486 H 0.23284 0.88983 0.84521 0.0
C487 C 0.16943 0.90426 0.7457 0.0
C488 C 0.16167 0.90201 0.8021 0.0
C489 C 0.18997 0.90759 0.73709 0.0
C490 C 0.23844 0.89941 0.81073 0.0
H491 H 0.31906 0.90063 0.62384 0.0
H492 H 0.28379 0.90617 0.64704 0.0
H493 H 0.2688 0.89046 0.82668 0.0
H494 H 0.16915 0.90262 0.8938 0.0
H495 H 0.20479 0.90888 0.87881 0.0
H496 H 0.22334 0.93137 0.70323 0.0
C497 C 0.29472 0.90672 0.68182 0.0
C498 C 0.25908 0.89974 0.80011 0.0
C499 C 0.31493 0.90339 0.66865 0.0
C500 C 0.1747 0.90399 0.84972 0.0
C501 C 0.19516 0.9075 0.84115 0.0
C502 C 0.23311 0.92238 0.73047 0.0
C503 C 0.2886 0.90976 0.73952 0.0
C504 C 0.26694 0.91109 0.75393 0.0
C505 C 0.20312 0.90892 0.78473 0.0
C506 C 0.22517 0.91054 0.77565 0.0
H507 H 0.33429 0.9069 0.80543 0.0
H508 H 0.2989 0.91263 0.82838 0.0
H509 H 0.25949 0.93166 0.68409 0.0
H510 H 0.15978 0.90279 0.70811 0.0
H511 H 0.19562 0.90839 0.69303 0.0
C512 C 0.4015 0.82341 0.75942 0.0
C513 C 0.39809 0.82959 0.70179 0.0
C514 C 0.40382 0.8031 0.77291 0.0
C515 C 0.41665 0.75381 0.71286 0.0
H516 H 0.38339 0.73324 0.83805 0.0
C517 C 0.40319 0.6692 0.74791 0.0
C518 C 0.40025 0.66187 0.8046 0.0
C519 C 0.40533 0.68976 0.73763 0.0
C520 C 0.3931 0.73875 0.80378 0.0
H521 H 0.39514 0.81927 0.61288 0.0
H522 H 0.39938 0.78361 0.63667 0.0
H523 H 0.38266 0.76896 0.81481 0.0
H524 H 0.39824 0.67036 0.89532 0.0
H525 H 0.40253 0.70631 0.87754 0.0
H526 H 0.42723 0.72366 0.70196 0.0
C527 C 0.40019 0.79462 0.67122 0.0
C528 C 0.39259 0.75921 0.79028 0.0
C529 C 0.39767 0.815 0.65768 0.0
C530 C 0.4003 0.67553 0.85109 0.0
C531 C 0.40264 0.69615 0.84082 0.0
C532 C 0.41734 0.73335 0.72677 0.0
C533 C 0.40298 0.7885 0.7291 0.0
C534 C 0.40419 0.7669 0.74435 0.0
C535 C 0.4048 0.70353 0.78382 0.0
C536 C 0.40538 0.72552 0.77196 0.0
H537 H 0.40199 0.83423 0.79454 0.0
H538 H 0.40617 0.7988 0.81778 0.0
H539 H 0.42593 0.75942 0.6777 0.0
H540 H 0.40319 0.65913 0.71097 0.0
H541 H 0.40665 0.69486 0.69313 0.0
C542 C 0.82173 0.40751 0.25038 0.0
C543 C 0.82872 0.40451 0.30732 0.0
C544 C 0.80132 0.41055 0.23965 0.0
C545 C 0.75185 0.40042 0.30585 0.0
H546 H 0.73246 0.4328 0.17732 0.0
C547 C 0.66763 0.40828 0.25621 0.0
C548 C 0.66216 0.4042 0.19842 0.0
C549 C 0.68773 0.41126 0.27101 0.0
C550 C 0.73771 0.42369 0.21327 0.0
H551 H 0.81987 0.40348 0.39796 0.0
H552 H 0.78429 0.40935 0.3794 0.0
H553 H 0.76814 0.43342 0.20238 0.0
H554 H 0.67346 0.40096 0.11047 0.0
H555 H 0.70866 0.40628 0.13653 0.0
H556 H 0.72142 0.39071 0.31665 0.0
C557 C 0.79453 0.40877 0.34284 0.0
C558 C 0.75812 0.42399 0.22759 0.0
C559 C 0.81495 0.40552 0.35355 0.0
C560 C 0.67718 0.40397 0.15539 0.0
C561 C 0.69731 0.40713 0.17022 0.0
C562 C 0.73145 0.4003 0.29192 0.0
C563 C 0.7874 0.41088 0.28565 0.0
C564 C 0.76549 0.41211 0.27354 0.0
C565 C 0.70279 0.41041 0.22835 0.0
C566 C 0.72423 0.41172 0.24505 0.0
H567 H 0.83192 0.40681 0.21369 0.0
H568 H 0.79639 0.41183 0.19501 0.0
H569 H 0.75699 0.39077 0.34072 0.0
H570 H 0.65646 0.40868 0.29045 0.0
H571 H 0.69154 0.41399 0.31604 0.0
C572 C 0.09201 0.81395 0.84035 0.0
C573 C 0.09192 0.82886 0.79699 0.0
C574 C 0.08913 0.79374 0.82577 0.0
C575 C 0.09609 0.75917 0.70445 0.0
H576 H 0.06166 0.72319 0.79224 0.0
C577 C 0.08736 0.67642 0.63787 0.0
C578 C 0.0879 0.66224 0.68312 0.0
C579 C 0.08503 0.69688 0.65005 0.0
C580 C 0.07146 0.73301 0.76756 0.0
H581 H 0.08815 0.83425 0.70452 0.0
H582 H 0.08329 0.79908 0.67944 0.0
H583 H 0.06332 0.75877 0.81841 0.0
H584 H 0.08566 0.65836 0.77656 0.0
H585 H 0.08216 0.69394 0.79777 0.0
H586 H 0.10482 0.73352 0.6548 0.0
C587 C 0.08572 0.80301 0.72453 0.0
C588 C 0.07238 0.75336 0.78255 0.0
C589 C 0.08844 0.82317 0.73905 0.0
C590 C 0.08531 0.66888 0.7406 0.0
C591 C 0.08316 0.68932 0.75279 0.0
C592 C 0.09533 0.73883 0.68981 0.0
C593 C 0.08627 0.78807 0.76759 0.0
C594 C 0.08476 0.7666 0.75123 0.0
C595 C 0.08336 0.70361 0.70777 0.0
C596 C 0.08309 0.72546 0.72133 0.0
H597 H 0.09457 0.81785 0.88539 0.0
H598 H 0.08974 0.78248 0.85977 0.0
H599 H 0.106 0.76899 0.68008 0.0
H600 H 0.08912 0.67179 0.59308 0.0
H601 H 0.08482 0.70744 0.61423 0.0
C602 C 0.82096 0.08689 0.2485 0.0
C603 C 0.82781 0.089 0.19102 0.0
C604 C 0.80053 0.08437 0.26029 0.0
C605 C 0.75096 0.09425 0.19458 0.0
H606 H 0.73143 0.06306 0.3255 0.0
C607 C 0.66672 0.08576 0.24137 0.0
C608 C 0.66067 0.09012 0.29855 0.0
C609 C 0.68698 0.08303 0.22798 0.0
C610 C 0.73672 0.07186 0.28895 0.0
H611 H 0.81867 0.08904 0.10065 0.0
H612 H 0.78306 0.08408 0.12111 0.0
H613 H 0.76717 0.06232 0.3008 0.0
H614 H 0.67113 0.0941 0.387 0.0
H615 H 0.70667 0.08924 0.36338 0.0
H616 H 0.72053 0.10374 0.1827 0.0
C617 C 0.79343 0.08495 0.15722 0.0
C618 C 0.75717 0.0715 0.27481 0.0
C619 C 0.81386 0.08768 0.14544 0.0
C620 C 0.6753 0.09085 0.3425 0.0
C621 C 0.69562 0.08798 0.32907 0.0
C622 C 0.73054 0.09445 0.20836 0.0
C623 C 0.78646 0.08369 0.21485 0.0
C624 C 0.76457 0.08285 0.22776 0.0
C625 C 0.70166 0.08445 0.27146 0.0
C626 C 0.72324 0.0834 0.25593 0.0
H627 H 0.83129 0.08785 0.28471 0.0
H628 H 0.79573 0.08371 0.30519 0.0
H629 H 0.75614 0.10352 0.15888 0.0
H630 H 0.65586 0.08492 0.20644 0.0
H631 H 0.6912 0.08005 0.18336 0.0
C632 C 0.62523 0.11117 0.66891 0.0
C633 C 0.61679 0.10035 0.62281 0.0
C634 C 0.62489 0.10327 0.72512 0.0
C635 C 0.62907 0.07851 0.83629 0.0
H636 H 0.57581 0.06344 0.88987 0.0
C637 C 0.6142 0.05773 0.07464 0.0
C638 C 0.59918 0.06975 0.10006 0.0
C639 C 0.6161 0.05671 0.01431 0.0
C640 C 0.59079 0.06741 0.87533 0.0
H641 H 0.60105 0.07307 0.59882 0.0
H642 H 0.60045 0.05921 0.69728 0.0
H643 H 0.58134 0.07088 0.78705 0.0
H644 H 0.57346 0.08885 0.0824 0.0
H645 H 0.57665 0.08685 0.97702 0.0
H646 H 0.63838 0.07573 0.92484 0.0
C647 C 0.60764 0.07361 0.68979 0.0
C648 C 0.59399 0.07153 0.81655 0.0
C649 C 0.60821 0.0814 0.63348 0.0
C650 C 0.58525 0.07955 0.06404 0.0
C651 C 0.587 0.07833 0.00373 0.0
C652 C 0.62593 0.07415 0.89492 0.0
C653 C 0.6157 0.08461 0.73625 0.0
C654 C 0.61305 0.07761 0.79678 0.0
C655 C 0.60284 0.06744 0.97836 0.0
C656 C 0.60665 0.06905 0.9152 0.0
H657 H 0.63161 0.12595 0.66165 0.0
H658 H 0.63095 0.1122 0.7603 0.0
H659 H 0.64392 0.08306 0.82204 0.0
H660 H 0.62516 0.04997 0.10123 0.0
H661 H 0.62833 0.04806 -0.00425 0.0
C662 C 0.4182 0.5824 0.56951 0.0
C663 C 0.42316 0.6005 0.5972 0.0
C664 C 0.41836 0.58119 0.50916 0.0
C665 C 0.43079 0.6081 0.37211 0.0
H666 H 0.37986 0.58531 0.3235 0.0
C667 C 0.39406 0.6219 0.14641 0.0
C668 C 0.38451 0.60527 0.121 0.0
C669 C 0.40186 0.62046 0.20267 0.0
C670 C 0.39429 0.59146 0.33608 0.0
H671 H 0.43398 0.63095 0.58425 0.0
H672 H 0.43367 0.62904 0.47847 0.0
H673 H 0.38969 0.58318 0.42441 0.0
H674 H 0.37622 0.57399 0.1331 0.0
H675 H 0.38988 0.57145 0.23054 0.0
H676 H 0.43497 0.61679 0.2831 0.0
C677 C 0.42992 0.6157 0.50327 0.0
C678 C 0.39998 0.59016 0.39398 0.0
C679 C 0.43003 0.61682 0.56385 0.0
C680 C 0.38321 0.58715 0.15207 0.0
C681 C 0.39106 0.58569 0.20781 0.0
C682 C 0.42505 0.6094 0.31377 0.0
C683 C 0.42314 0.59817 0.47544 0.0
C684 C 0.41827 0.59845 0.41274 0.0
C685 C 0.40018 0.60239 0.2341 0.0
C686 C 0.40672 0.60107 0.29533 0.0
H687 H 0.41321 0.56949 0.59441 0.0
H688 H 0.4136 0.5673 0.48883 0.0
H689 H 0.44496 0.61463 0.38542 0.0
H690 H 0.39504 0.63609 0.1235 0.0
H691 H 0.40861 0.63364 0.22219 0.0
C692 C 0.90813 0.41537 0.07298 0.0
C693 C 0.89206 0.42373 0.10426 0.0
C694 C 0.90766 0.4149 0.0125 0.0
C695 C 0.89292 0.39844 0.89951 0.0
H696 H 0.86905 0.43742 0.79488 0.0
C697 C 0.86779 0.3748 0.67344 0.0
C698 C 0.87363 0.38737 0.62759 0.0
C699 C 0.86893 0.38157 0.73061 0.0
C700 C 0.87583 0.42644 0.82361 0.0
H701 H 0.86377 0.43978 0.09702 0.0
H702 H 0.86269 0.4385 0.99136 0.0
H703 H 0.87599 0.44686 0.89563 0.0
H704 H 0.88536 0.41678 0.60494 0.0
H705 H 0.88735 0.42868 0.70497 0.0
H706 H 0.89304 0.3781 0.828 0.0
C707 C 0.87576 0.4325 0.01337 0.0
C708 C 0.87972 0.43181 0.88124 0.0
C709 C 0.87635 0.43318 0.07397 0.0
C710 C 0.88011 0.40704 0.63952 0.0
C711 C 0.88136 0.4138 0.69678 0.0
C712 C 0.88906 0.39311 0.84222 0.0
C713 C 0.89097 0.42254 0.98221 0.0
C714 C 0.88823 0.4178 0.91984 0.0
C715 C 0.87631 0.40093 0.74297 0.0
C716 C 0.88028 0.40695 0.80377 0.0
H717 H 0.92059 0.40827 0.09531 0.0
H718 H 0.91989 0.40763 0.98957 0.0
H719 H 0.89913 0.38713 0.92828 0.0
H720 H 0.8629 0.35953 0.66513 0.0
H721 H 0.86461 0.37143 0.76529 0.0
C722 C 0.07944 0.88006 0.13791 0.0
C723 C 0.09847 0.87163 0.12739 0.0
C724 C 0.07176 0.88089 0.19434 0.0
C725 C 0.07025 0.89528 0.32075 0.0
H726 H 0.07437 0.85119 0.43053 0.0
C727 C 0.07914 0.90457 0.56806 0.0
C728 C 0.0693 0.89077 0.6046 0.0
C729 C 0.07772 0.90274 0.50779 0.0
C730 C 0.07282 0.86357 0.40022 0.0
H731 H 0.12416 0.85703 0.16673 0.0
H732 H 0.11057 0.85811 0.2654 0.0
H733 H 0.08129 0.84522 0.32776 0.0
H734 H 0.04922 0.86504 0.60668 0.0
H735 H 0.04698 0.86176 0.50139 0.0
H736 H 0.06264 0.91382 0.39367 0.0
C737 C 0.10156 0.86397 0.23006 0.0
C738 C 0.07692 0.86017 0.34159 0.0
C739 C 0.10936 0.86342 0.17379 0.0
C740 C 0.05705 0.87587 0.57973 0.0
C741 C 0.05582 0.87391 0.51948 0.0
C742 C 0.06639 0.89874 0.37955 0.0
C743 C 0.0829 0.87314 0.24102 0.0
C744 C 0.07604 0.87607 0.30153 0.0
C745 C 0.06659 0.88698 0.48302 0.0
C746 C 0.068 0.88299 0.41995 0.0
H747 H 0.07098 0.88703 0.10321 0.0
H748 H 0.05735 0.88806 0.20174 0.0
H749 H 0.06962 0.90784 0.29077 0.0
H750 H 0.08861 0.91627 0.58595 0.0
H751 H 0.08627 0.91296 0.48065 0.0
C752 C 0.58173 0.41406 0.42211 0.0
C753 C 0.59689 0.42381 0.39029 0.0
C754 C 0.5825 0.41353 0.48263 0.0
C755 C 0.59876 0.39868 0.59623 0.0
H756 H 0.61983 0.4398 0.69873 0.0
C757 C 0.6271 0.37775 0.82153 0.0
C758 C 0.62052 0.38984 0.86761 0.0
C759 C 0.62501 0.3843 0.76432 0.0
C760 C 0.61383 0.42822 0.67064 0.0
H761 H 0.62376 0.44217 0.39697 0.0
H762 H 0.62535 0.44086 0.50244 0.0
H763 H 0.61171 0.44831 0.59798 0.0
H764 H 0.60679 0.41837 0.8903 0.0
H765 H 0.60314 0.42986 0.79024 0.0
H766 H 0.60061 0.37863 0.66842 0.0
C767 C 0.61276 0.43376 0.48084 0.0
C768 C 0.60928 0.43305 0.61296 0.0
C769 C 0.61188 0.43445 0.42027 0.0
C770 C 0.61252 0.40897 0.85568 0.0
C771 C 0.61032 0.4155 0.79833 0.0
C772 C 0.60328 0.39387 0.65359 0.0
C773 C 0.59855 0.42257 0.5125 0.0
C774 C 0.60181 0.41827 0.57504 0.0
C775 C 0.61599 0.40296 0.75203 0.0
C776 C 0.6111 0.40849 0.69127 0.0
H777 H 0.5698 0.40599 0.4002 0.0
H778 H 0.57101 0.40524 0.50591 0.0
H779 H 0.59337 0.38682 0.56806 0.0
H780 H 0.63326 0.36292 0.82969 0.0
H781 H 0.62989 0.37447 0.72959 0.0
C782 C 0.05764 0.61423 0.91197 0.0
C783 C 0.0674 0.59855 0.88237 0.0
C784 C 0.05819 0.61511 0.97255 0.0
C785 C 0.09225 0.59899 0.08761 0.0
H786 H 0.05261 0.6225 0.19088 0.0
C787 C 0.08287 0.61188 0.34711 0.0
C788 C 0.10245 0.61851 0.35931 0.0
C789 C 0.07619 0.61066 0.28976 0.0
C790 C 0.06378 0.61583 0.16252 0.0
H791 H 0.0833 0.5703 0.8926 0.0
H792 H 0.08374 0.57149 -0.00169 0.0
H793 H 0.04356 0.61509 0.09008 0.0
H794 H 0.13018 0.62968 0.32221 0.0
H795 H 0.11841 0.62807 0.22193 0.0
H796 H 0.11239 0.59942 0.15953 0.0
C797 C 0.07631 0.5835 0.97483 0.0
C798 C 0.05863 0.61168 0.10487 0.0
C799 C 0.07596 0.58275 0.91436 0.0
C800 C 0.11497 0.62467 0.31368 0.0
C801 C 0.10828 0.62357 0.25644 0.0
C802 C 0.09736 0.60311 0.14491 0.0
C803 C 0.06834 0.60019 0.00441 0.0
C804 C 0.07287 0.60327 0.06677 0.0
C805 C 0.08906 0.61593 0.24377 0.0
C806 C 0.08328 0.61177 0.18287 0.0
H807 H 0.05087 0.62661 0.88838 0.0
H808 H 0.05192 0.62818 0.994 0.0
H809 H 0.10372 0.59287 0.05924 0.0
H810 H 0.07317 0.60642 0.38152 0.0
H811 H 0.06142 0.60449 0.28133 0.0
C812 C 0.876 0.05846 0.41929 0.0
C813 C 0.89147 0.06866 0.38989 0.0
C814 C 0.87503 0.05889 0.47988 0.0
C815 C 0.87847 0.0592 0.61233 0.0
H816 H 0.88883 0.11335 0.66717 0.0
C817 C 0.87846 0.08331 0.85463 0.0
C818 C 0.87114 0.10263 0.86725 0.0
C819 C 0.87955 0.07667 0.79721 0.0
C820 C 0.88566 0.0982 0.65249 0.0
H821 H 0.91928 0.08523 0.40047 0.0
H822 H 0.9179 0.0855 0.50617 0.0
H823 H 0.89559 0.10498 0.5667 0.0
H824 H 0.8586 0.1299 0.83095 0.0
H825 H 0.86003 0.11818 0.73055 0.0
H826 H 0.86803 0.05272 0.69853 0.0
C827 C 0.90614 0.0778 0.48252 0.0
C828 C 0.88991 0.09328 0.5951 0.0
C829 C 0.907 0.07756 0.42206 0.0
C830 C 0.86415 0.11489 0.82208 0.0
C831 C 0.86513 0.10823 0.76478 0.0
C832 C 0.87422 0.06414 0.6701 0.0
C833 C 0.88962 0.06937 0.5119 0.0
C834 C 0.88634 0.07376 0.57425 0.0
C835 C 0.87347 0.08933 0.75161 0.0
C836 C 0.87761 0.08377 0.69052 0.0
H837 H 0.86385 0.05142 0.39556 0.0
H838 H 0.86211 0.05226 0.50122 0.0
H839 H 0.8756 0.04402 0.59746 0.0
H840 H 0.88457 0.07386 0.88865 0.0
H841 H 0.88627 0.06215 0.78835 0.0
C842 C 0.39938 0.86507 0.35562 0.0
C843 C 0.38639 0.88032 0.3751 0.0
C844 C 0.40805 0.86621 0.30026 0.0
C845 C 0.41865 0.90233 0.181 0.0
H846 H 0.41617 0.85535 0.08176 0.0
C847 C 0.41339 0.90627 0.93308 0.0
C848 C 0.42243 0.89113 0.89952 0.0
C849 C 0.41444 0.90562 0.99356 0.0
C850 C 0.4174 0.86851 0.10921 0.0
H851 H 0.37212 0.90854 0.3518 0.0
H852 H 0.38683 0.91032 0.25547 0.0
H853 H 0.40731 0.85229 0.18409 0.0
H854 H 0.44086 0.86419 0.9029 0.0
H855 H 0.44262 0.86307 0.00873 0.0
H856 H 0.42791 0.91871 0.10547 0.0
C857 C 0.39073 0.89771 0.2831 0.0
C858 C 0.4123 0.86675 0.16786 0.0
C859 C 0.38207 0.89654 0.33807 0.0
C860 C 0.43364 0.87604 0.92755 0.0
C861 C 0.43457 0.87531 0.98813 0.0
C862 C 0.42369 0.9041 0.12236 0.0
C863 C 0.40387 0.88262 0.26356 0.0
C864 C 0.41226 0.88377 0.20393 0.0
C865 C 0.42448 0.88977 0.02175 0.0
C866 C 0.42255 0.88733 0.0855 0.0
H867 H 0.40264 0.85217 0.38267 0.0
H868 H 0.41805 0.85431 0.28626 0.0
H869 H 0.41917 0.91563 0.20806 0.0
H870 H 0.40474 0.91815 0.91276 0.0
H871 H 0.40638 0.91691 0.01825 0.0
loop_
_geom_bond_atom_site_label_1
_geom_bond_atom_site_label_2
_geom_bond_distance
_geom_bond_site_symmetry_2
_ccdc_geom_bond_type
Co0 O3 1.970 . S
Co0 N17 1.989 . S
Co0 O25 1.967 . S
Co0 O32 1.920 . S
Co1 O4 1.966 . S
Co1 N10 2.022 . S
Co1 N18 1.993 . S
Co1 O26 1.941 . S
C2 O3 1.258 . S
C2 O4 1.263 . S
O3 Co0 1.970 . S
O3 C2 1.258 . S
O4 Co1 1.966 . S
O4 C2 1.263 . S
C5 O6 1.235 . S
C5 O32 1.289 . S
O6 C5 1.235 . S
C7 C9 1.400 . S
C7 N10 1.351 . S
C7 C12 1.501 . S
C8 C9 1.387 . S
C8 N11 1.341 . S
C9 C7 1.400 . S
C9 C8 1.387 . S
N10 Co1 2.022 . S
N10 C7 1.351 . S
N10 N11 1.365 . S
N11 C8 1.341 . S
N11 N10 1.365 . S
N11 H31 0.862 . S
C12 C7 1.501 . S
C12 H13 0.961 . S
C12 H14 0.961 . S
C12 H15 0.960 . S
H13 C12 0.961 . S
H14 C12 0.961 . S
H15 C12 0.960 . S
C16 N17 1.342 . S
C16 C20 1.401 . S
C16 C21 1.499 . S
N17 Co0 1.989 . S
N17 C16 1.342 . S
N17 N18 1.388 . S
N18 Co1 1.993 . S
N18 N17 1.388 . S
N18 C19 1.346 . S
C19 N18 1.346 . S
C19 C20 1.396 . S
C19 C29 1.510 . S
C20 C16 1.401 . S
C20 C19 1.396 . S
C21 C16 1.499 . S
C21 H22 0.959 . S
C21 H23 0.960 . S
C21 H24 0.961 . S
H22 C21 0.959 . S
H23 C21 0.960 . S
H24 C21 0.961 . S
O25 Co0 1.967 . S
O25 C33 1.258 . S
O26 Co1 1.941 . S
O26 C33 1.266 . S
H27 C29 0.959 . S
H28 C29 0.961 . S
C29 C19 1.510 . S
C29 H27 0.959 . S
C29 H28 0.961 . S
C29 H30 0.960 . S
H30 C29 0.960 . S
H31 N11 0.862 . S
O32 Co0 1.920 . S
O32 C5 1.289 . S
C33 O25 1.258 . S
C33 O26 1.266 . S
Co34 O37 1.970 . S
Co34 N51 1.989 . S
Co34 O59 1.967 . S
Co34 O66 1.920 . S
Co35 O38 1.966 . S
Co35 N44 2.022 1_556 S
Co35 N52 1.993 . S
Co35 O60 1.941 . S
C36 O37 1.258 . S
C36 O38 1.263 . S
O37 Co34 1.970 . S
O37 C36 1.258 . S
O38 Co35 1.966 . S
O38 C36 1.263 . S
C39 O40 1.235 . S
C39 O66 1.289 . S
O40 C39 1.235 . S
C41 C43 1.400 . S
C41 N44 1.351 . S
C41 C46 1.501 . S
C42 C43 1.387 . S
C42 N45 1.341 . S
C43 C41 1.400 . S
C43 C42 1.387 . S
N44 Co35 2.022 1_554 S
N44 C41 1.351 . S
N44 N45 1.365 . S
N45 C42 1.341 . S
N45 N44 1.365 . S
N45 H65 0.862 . S
C46 C41 1.501 . S
C46 H47 0.961 1_554 S
C46 H48 0.961 . S
C46 H49 0.960 . S
H47 C46 0.961 1_556 S
H48 C46 0.961 . S
H49 C46 0.960 . S
C50 N51 1.342 . S
C50 C54 1.401 . S
C50 C55 1.499 . S
N51 Co34 1.989 . S
N51 C50 1.342 . S
N51 N52 1.388 . S
N52 Co35 1.993 . S
N52 N51 1.388 . S
N52 C53 1.346 . S
C53 N52 1.346 . S
C53 C54 1.396 . S
C53 C63 1.510 . S
C54 C50 1.401 . S
C54 C53 1.396 . S
C55 C50 1.499 . S
C55 H56 0.959 . S
C55 H57 0.960 . S
C55 H58 0.961 . S
H56 C55 0.959 . S
H57 C55 0.960 . S
H58 C55 0.961 . S
O59 Co34 1.967 . S
O59 C67 1.258 . S
O60 Co35 1.941 . S
O60 C67 1.266 . S
H61 C63 0.960 1_554 S
H62 C63 0.961 . S
C63 C53 1.510 . S
C63 H61 0.960 1_556 S
C63 H62 0.961 . S
C63 H64 0.960 1_556 S
H64 C63 0.960 1_554 S
H65 N45 0.862 . S
O66 Co34 1.920 . S
O66 C39 1.289 . S
C67 O59 1.258 . S
C67 O60 1.266 . S
Co68 O71 1.970 . S
Co68 N85 1.989 . S
Co68 O93 1.967 . S
Co68 O100 1.920 . S
Co69 O72 1.966 . S
Co69 N78 2.022 . S
Co69 N86 1.993 . S
Co69 O94 1.941 . S
C70 O71 1.258 . S
C70 O72 1.263 . S
O71 Co68 1.970 . S
O71 C70 1.258 . S
O72 Co69 1.966 . S
O72 C70 1.263 . S
C73 O74 1.235 . S
C73 O100 1.289 . S
O74 C73 1.235 . S
C75 C77 1.400 . S
C75 N78 1.351 . S
C75 C80 1.501 . S
C76 C77 1.387 . S
C76 N79 1.341 . S
C77 C75 1.400 . S
C77 C76 1.387 . S
N78 Co69 2.022 . S
N78 C75 1.351 . S
N78 N79 1.365 . S
N79 C76 1.341 . S
N79 N78 1.365 . S
N79 H99 0.862 . S
C80 C75 1.501 . S
C80 H81 0.961 . S
C80 H82 0.961 . S
C80 H83 0.960 . S
H81 C80 0.961 . S
H82 C80 0.961 . S
H83 C80 0.960 . S
C84 N85 1.342 . S
C84 C88 1.401 . S
C84 C89 1.499 . S
N85 Co68 1.989 . S
N85 C84 1.342 . S
N85 N86 1.388 . S
N86 Co69 1.993 . S
N86 N85 1.388 . S
N86 C87 1.346 . S
C87 N86 1.346 . S
C87 C88 1.396 . S
C87 C97 1.510 . S
C88 C84 1.401 . S
C88 C87 1.396 . S
C89 C84 1.499 . S
C89 H90 0.959 . S
C89 H91 0.960 . S
C89 H92 0.961 . S
H90 C89 0.959 . S
H91 C89 0.960 . S
H92 C89 0.961 . S
O93 Co68 1.967 . S
O93 C101 1.258 . S
O94 Co69 1.941 . S
O94 C101 1.266 . S
H95 C97 0.959 . S
H96 C97 0.961 . S
C97 C87 1.510 . S
C97 H95 0.959 . S
C97 H96 0.961 . S
C97 H98 0.960 . S
H98 C97 0.960 . S
H99 N79 0.862 . S
O100 Co68 1.920 . S
O100 C73 1.289 . S
C101 O93 1.258 . S
C101 O94 1.266 . S
Co102 O105 1.970 . S
Co102 N119 1.989 . S
Co102 O127 1.967 . S
Co102 O134 1.920 . S
Co103 O106 1.966 . S
Co103 N112 2.022 1_556 S
Co103 N120 1.993 . S
Co103 O128 1.941 . S
C104 O105 1.258 . S
C104 O106 1.263 . S
O105 Co102 1.970 . S
O105 C104 1.258 . S
O106 Co103 1.966 . S
O106 C104 1.263 . S
C107 O108 1.235 . S
C107 O134 1.289 . S
O108 C107 1.235 . S
C109 C111 1.400 . S
C109 N112 1.351 . S
C109 C114 1.501 . S
C110 C111 1.387 . S
C110 N113 1.341 . S
C111 C109 1.400 . S
C111 C110 1.387 . S
N112 Co103 2.022 1_554 S
N112 C109 1.351 . S
N112 N113 1.365 . S
N113 C110 1.341 . S
N113 N112 1.365 . S
N113 H133 0.862 . S
C114 C109 1.501 . S
C114 H115 0.961 1_554 S
C114 H116 0.961 . S
C114 H117 0.960 . S
H115 C114 0.961 1_556 S
H116 C114 0.961 . S
H117 C114 0.960 . S
C118 N119 1.342 . S
C118 C122 1.401 . S
C118 C123 1.499 . S
N119 Co102 1.989 . S
N119 C118 1.342 . S
N119 N120 1.388 . S
N120 Co103 1.993 . S
N120 N119 1.388 . S
N120 C121 1.346 . S
C121 N120 1.346 . S
C121 C122 1.396 . S
C121 C131 1.510 . S
C122 C118 1.401 . S
C122 C121 1.396 . S
C123 C118 1.499 . S
C123 H124 0.959 . S
C123 H125 0.960 . S
C123 H126 0.961 . S
H124 C123 0.959 . S
H125 C123 0.960 . S
H126 C123 0.961 . S
O127 Co102 1.967 . S
O127 C135 1.258 . S
O128 Co103 1.941 . S
O128 C135 1.266 . S
H129 C131 0.960 1_554 S
H130 C131 0.961 . S
C131 C121 1.510 . S
C131 H129 0.960 1_556 S
C131 H130 0.961 . S
C131 H132 0.960 1_556 S
H132 C131 0.960 1_554 S
H133 N113 0.862 . S
O134 Co102 1.920 . S
O134 C107 1.289 . S
C135 O127 1.258 . S
C135 O128 1.266 . S
Co136 O139 1.970 . S
Co136 N153 1.989 . S
Co136 O161 1.967 . S
Co136 O168 1.920 . S
Co137 O140 1.966 . S
Co137 N146 2.022 1_554 S
Co137 N154 1.993 . S
Co137 O162 1.941 . S
C138 O139 1.258 . S
C138 O140 1.263 . S
O139 Co136 1.970 . S
O139 C138 1.258 . S
O140 Co137 1.966 . S
O140 C138 1.263 . S
C141 O142 1.235 . S
C141 O168 1.289 . S
O142 C141 1.235 . S
C143 C145 1.400 . S
C143 N146 1.351 . S
C143 C148 1.501 . S
C144 C145 1.387 . S
C144 N147 1.341 . S
C145 C143 1.400 . S
C145 C144 1.387 . S
N146 Co137 2.022 1_556 S
N146 C143 1.351 . S
N146 N147 1.365 . S
N147 C144 1.341 . S
N147 N146 1.365 . S
N147 H167 0.862 . S
C148 C143 1.501 . S
C148 H149 0.961 1_556 S
C148 H150 0.961 . S
C148 H151 0.960 . S
H149 C148 0.961 1_554 S
H150 C148 0.961 . S
H151 C148 0.960 . S
C152 N153 1.342 . S
C152 C156 1.401 . S
C152 C157 1.499 . S
N153 Co136 1.989 . S
N153 C152 1.342 . S
N153 N154 1.388 . S
N154 Co137 1.993 . S
N154 N153 1.388 . S
N154 C155 1.346 . S
C155 N154 1.346 . S
C155 C156 1.396 . S
C155 C165 1.510 . S
C156 C152 1.401 . S
C156 C155 1.396 . S
C157 C152 1.499 . S
C157 H158 0.959 . S
C157 H159 0.960 . S
C157 H160 0.961 . S
H158 C157 0.959 . S
H159 C157 0.960 . S
H160 C157 0.961 . S
O161 Co136 1.967 . S
O161 C169 1.258 . S
O162 Co137 1.941 . S
O162 C169 1.266 . S
H163 C165 0.960 1_556 S
H164 C165 0.961 . S
C165 C155 1.510 . S
C165 H163 0.960 1_554 S
C165 H164 0.961 . S
C165 H166 0.960 1_554 S
H166 C165 0.960 1_556 S
H167 N147 0.862 . S
O168 Co136 1.920 . S
O168 C141 1.289 . S
C169 O161 1.258 . S
C169 O162 1.266 . S
Co170 O173 1.970 . S
Co170 N187 1.989 . S
Co170 O195 1.967 . S
Co170 O202 1.920 . S
Co171 O174 1.966 . S
Co171 N180 2.022 . S
Co171 N188 1.993 . S
Co171 O196 1.941 . S
C172 O173 1.258 . S
C172 O174 1.263 . S
O173 Co170 1.970 . S
O173 C172 1.258 . S
O174 Co171 1.966 . S
O174 C172 1.263 . S
C175 O176 1.235 . S
C175 O202 1.289 . S
O176 C175 1.235 . S
C177 C179 1.400 . S
C177 N180 1.351 . S
C177 C182 1.501 . S
C178 C179 1.387 . S
C178 N181 1.341 . S
C179 C177 1.400 . S
C179 C178 1.387 . S
N180 Co171 2.022 . S
N180 C177 1.351 . S
N180 N181 1.365 . S
N181 C178 1.341 . S
N181 N180 1.365 . S
N181 H201 0.862 . S
C182 C177 1.501 . S
C182 H183 0.961 . S
C182 H184 0.961 . S
C182 H185 0.960 . S
H183 C182 0.961 . S
H184 C182 0.961 . S
H185 C182 0.960 . S
C186 N187 1.342 . S
C186 C190 1.401 . S
C186 C191 1.499 . S
N187 Co170 1.989 . S
N187 C186 1.342 . S
N187 N188 1.388 . S
N188 Co171 1.993 . S
N188 N187 1.388 . S
N188 C189 1.346 . S
C189 N188 1.346 . S
C189 C190 1.396 . S
C189 C199 1.510 . S
C190 C186 1.401 . S
C190 C189 1.396 . S
C191 C186 1.499 . S
C191 H192 0.959 . S
C191 H193 0.960 . S
C191 H194 0.961 . S
H192 C191 0.959 . S
H193 C191 0.960 . S
H194 C191 0.961 . S
O195 Co170 1.967 . S
O195 C203 1.258 . S
O196 Co171 1.941 . S
O196 C203 1.266 . S
H197 C199 0.959 . S
H198 C199 0.961 . S
C199 C189 1.510 . S
C199 H197 0.959 . S
C199 H198 0.961 . S
C199 H200 0.960 . S
H200 C199 0.960 . S
H201 N181 0.862 . S
O202 Co170 1.920 . S
O202 C175 1.289 . S
C203 O195 1.258 . S
C203 O196 1.266 . S
Co204 O207 1.970 . S
Co204 N221 1.989 . S
Co204 O229 1.967 . S
Co204 O236 1.920 . S
Co205 O208 1.966 . S
Co205 N214 2.022 1_554 S
Co205 N222 1.993 . S
Co205 O230 1.941 . S
C206 O207 1.258 . S
C206 O208 1.263 . S
O207 Co204 1.970 . S
O207 C206 1.258 . S
O208 Co205 1.966 . S
O208 C206 1.263 . S
C209 O210 1.235 . S
C209 O236 1.289 . S
O210 C209 1.235 . S
C211 C213 1.400 . S
C211 N214 1.351 . S
C211 C216 1.501 . S
C212 C213 1.387 . S
C212 N215 1.341 . S
C213 C211 1.400 . S
C213 C212 1.387 . S
N214 Co205 2.022 1_556 S
N214 C211 1.351 . S
N214 N215 1.365 . S
N215 C212 1.341 . S
N215 N214 1.365 . S
N215 H235 0.862 . S
C216 C211 1.501 . S
C216 H217 0.961 1_556 S
C216 H218 0.961 . S
C216 H219 0.960 . S
H217 C216 0.961 1_554 S
H218 C216 0.961 . S
H219 C216 0.960 . S
C220 N221 1.342 . S
C220 C224 1.401 . S
C220 C225 1.499 . S
N221 Co204 1.989 . S
N221 C220 1.342 . S
N221 N222 1.388 . S
N222 Co205 1.993 . S
N222 N221 1.388 . S
N222 C223 1.346 . S
C223 N222 1.346 . S
C223 C224 1.396 . S
C223 C233 1.510 . S
C224 C220 1.401 . S
C224 C223 1.396 . S
C225 C220 1.499 . S
C225 H226 0.959 . S
C225 H227 0.960 . S
C225 H228 0.961 . S
H226 C225 0.959 . S
H227 C225 0.960 . S
H228 C225 0.961 . S
O229 Co204 1.967 . S
O229 C237 1.258 . S
O230 Co205 1.941 . S
O230 C237 1.266 . S
H231 C233 0.960 1_556 S
H232 C233 0.961 . S
C233 C223 1.510 . S
C233 H231 0.960 1_554 S
C233 H232 0.961 . S
C233 H234 0.960 1_554 S
H234 C233 0.960 1_556 S
H235 N215 0.862 . S
O236 Co204 1.920 . S
O236 C209 1.289 . S
C237 O229 1.258 . S
C237 O230 1.266 . S
Co238 O241 1.970 . S
Co238 N255 1.989 . S
Co238 O263 1.967 . S
Co238 O270 1.920 . S
Co239 O242 1.966 . S
Co239 N248 2.022 . S
Co239 N256 1.993 . S
Co239 O264 1.941 . S
C240 O241 1.258 . S
C240 O242 1.263 . S
O241 Co238 1.970 . S
O241 C240 1.258 . S
O242 Co239 1.966 . S
O242 C240 1.263 . S
C243 O244 1.235 . S
C243 O270 1.289 . S
O244 C243 1.235 . S
C245 C247 1.400 . S
C245 N248 1.351 . S
C245 C250 1.501 . S
C246 C247 1.387 . S
C246 N249 1.341 . S
C247 C245 1.400 . S
C247 C246 1.387 . S
N248 Co239 2.022 . S
N248 C245 1.351 . S
N248 N249 1.365 . S
N249 C246 1.341 . S
N249 N248 1.365 . S
N249 H269 0.862 . S
C250 C245 1.501 . S
C250 H251 0.961 . S
C250 H252 0.961 . S
C250 H253 0.960 . S
H251 C250 0.961 . S
H252 C250 0.961 . S
H253 C250 0.960 . S
C254 N255 1.342 . S
C254 C258 1.401 . S
C254 C259 1.499 . S
N255 Co238 1.989 . S
N255 C254 1.342 . S
N255 N256 1.388 . S
N256 Co239 1.993 . S
N256 N255 1.388 . S
N256 C257 1.346 . S
C257 N256 1.346 . S
C257 C258 1.396 . S
C257 C267 1.510 . S
C258 C254 1.401 . S
C258 C257 1.396 . S
C259 C254 1.499 . S
C259 H260 0.959 . S
C259 H261 0.960 . S
C259 H262 0.961 . S
H260 C259 0.959 . S
H261 C259 0.960 . S
H262 C259 0.961 . S
O263 Co238 1.967 . S
O263 C271 1.258 . S
O264 Co239 1.941 . S
O264 C271 1.266 . S
H265 C267 0.959 . S
H266 C267 0.961 . S
C267 C257 1.510 . S
C267 H265 0.959 . S
C267 H266 0.961 . S
C267 H268 0.960 . S
H268 C267 0.960 . S
H269 N249 0.862 . S
O270 Co238 1.920 . S
O270 C243 1.289 . S
C271 O263 1.258 . S
C271 O264 1.266 . S
C272 C273 1.349 . S
C272 C274 1.327 . S
C272 H297 0.950 . S
C273 C272 1.349 . S
C273 C289 1.349 . S
C274 C272 1.327 . S
C274 C293 1.429 . S
C274 H298 0.950 . S
C275 C292 1.574 1_565 S
C275 C294 1.368 . S
C275 H299 0.949 . S
H276 C280 0.949 . S
C277 C278 1.349 . S
C277 C279 1.327 . S
C277 H300 0.950 . S
C278 C277 1.349 . S
C278 C290 1.349 . S
C279 C277 1.327 . S
C279 C295 1.429 . S
C279 H301 0.950 . S
C280 H276 0.949 . S
C280 C288 1.574 . S
C280 C296 1.368 . S
H281 C289 0.950 . S
H282 C287 0.950 . S
H283 C288 0.949 . S
H284 C290 0.950 . S
H285 C291 0.950 . S
H286 C292 0.949 . S
C287 H282 0.950 . S
C287 C289 1.327 . S
C287 C293 1.429 . S
C288 C280 1.574 . S
C288 H283 0.949 . S
C288 C294 1.368 1_545 S
C289 C273 1.349 . S
C289 H281 0.950 . S
C289 C287 1.327 . S
C290 C278 1.349 . S
C290 H284 0.950 . S
C290 C291 1.327 . S
C291 H285 0.950 . S
C291 C290 1.327 . S
C291 C295 1.429 . S
C292 C275 1.574 1_545 S
C292 H286 0.949 . S
C292 C296 1.368 . S
C293 C274 1.429 . S
C293 C287 1.429 . S
C293 C294 1.523 . S
C294 C275 1.368 . S
C294 C288 1.368 1_565 S
C294 C293 1.523 . S
C295 C279 1.429 . S
C295 C291 1.429 . S
C295 C296 1.523 . S
C296 C280 1.368 . S
C296 C292 1.368 . S
C296 C295 1.523 . S
H297 C272 0.950 . S
H298 C274 0.950 . S
H299 C275 0.949 . S
H300 C277 0.950 . S
H301 C279 0.950 . S
C302 C303 1.349 . S
C302 C304 1.327 . S
C302 H327 0.950 . S
C303 C302 1.349 . S
C303 C319 1.349 . S
C304 C302 1.327 . S
C304 C323 1.429 . S
C304 H328 0.950 . S
C305 C322 1.574 . S
C305 C324 1.368 1_556 S
C305 H329 0.949 . S
H306 C310 0.949 . S
C307 C308 1.349 . S
C307 C309 1.327 . S
C307 H330 0.950 . S
C308 C307 1.349 . S
C308 C320 1.349 . S
C309 C307 1.327 . S
C309 C325 1.429 . S
C309 H331 0.950 . S
C310 H306 0.949 . S
C310 C318 1.574 . S
C310 C326 1.368 1_554 S
H311 C319 0.950 . S
H312 C317 0.950 1_556 S
H313 C318 0.949 . S
H314 C320 0.950 . S
H315 C321 0.950 1_554 S
H316 C322 0.949 . S
C317 H312 0.950 1_554 S
C317 C319 1.327 . S
C317 C323 1.429 . S
C318 C310 1.574 . S
C318 H313 0.949 . S
C318 C324 1.368 . S
C319 C303 1.349 . S
C319 H311 0.950 . S
C319 C317 1.327 . S
C320 C308 1.349 . S
C320 H314 0.950 . S
C320 C321 1.327 . S
C321 H315 0.950 1_556 S
C321 C320 1.327 . S
C321 C325 1.429 . S
C322 C305 1.574 . S
C322 H316 0.949 . S
C322 C326 1.368 . S
C323 C304 1.429 . S
C323 C317 1.429 . S
C323 C324 1.523 . S
C324 C305 1.368 1_554 S
C324 C318 1.368 . S
C324 C323 1.523 . S
C325 C309 1.429 . S
C325 C321 1.429 . S
C325 C326 1.523 . S
C326 C310 1.368 1_556 S
C326 C322 1.368 . S
C326 C325 1.523 . S
H327 C302 0.950 . S
H328 C304 0.950 . S
H329 C305 0.949 . S
H330 C307 0.950 . S
H331 C309 0.950 . S
C332 C333 1.349 . S
C332 C334 1.327 . S
C332 H357 0.950 . S
C333 C332 1.349 . S
C333 C349 1.349 . S
C334 C332 1.327 . S
C334 C353 1.429 . S
C334 H358 0.950 . S
C335 C352 1.574 . S
C335 C354 1.368 1_455 S
C335 H359 0.949 . S
H336 C340 0.949 . S
C337 C338 1.349 . S
C337 C339 1.327 . S
C337 H360 0.950 . S
C338 C337 1.349 . S
C338 C350 1.349 . S
C339 C337 1.327 . S
C339 C355 1.429 . S
C339 H361 0.950 . S
C340 H336 0.949 . S
C340 C348 1.574 1_455 S
C340 C356 1.368 . S
H341 C349 0.950 . S
H342 C347 0.950 . S
H343 C348 0.949 . S
H344 C350 0.950 . S
H345 C351 0.950 . S
H346 C352 0.949 . S
C347 H342 0.950 . S
C347 C349 1.327 . S
C347 C353 1.429 . S
C348 C340 1.574 1_655 S
C348 H343 0.949 . S
C348 C354 1.368 . S
C349 C333 1.349 . S
C349 H341 0.950 . S
C349 C347 1.327 . S
C350 C338 1.349 . S
C350 H344 0.950 . S
C350 C351 1.327 . S
C351 H345 0.950 . S
C351 C350 1.327 . S
C351 C355 1.429 . S
C352 C335 1.574 . S
C352 H346 0.949 . S
C352 C356 1.368 . S
C353 C334 1.429 . S
C353 C347 1.429 . S
C353 C354 1.523 . S
C354 C335 1.368 1_655 S
C354 C348 1.368 . S
C354 C353 1.523 . S
C355 C339 1.429 . S
C355 C351 1.429 . S
C355 C356 1.523 . S
C356 C340 1.368 . S
C356 C352 1.368 . S
C356 C355 1.523 . S
H357 C332 0.950 . S
H358 C334 0.950 . S
H359 C335 0.949 . S
H360 C337 0.950 . S
H361 C339 0.950 . S
C362 C363 1.349 . S
C362 C364 1.327 . S
C362 H387 0.950 . S
C363 C362 1.349 . S
C363 C379 1.349 . S
C364 C362 1.327 . S
C364 C383 1.429 . S
C364 H388 0.950 . S
C365 C382 1.574 1_645 S
C365 C384 1.368 . S
C365 H389 0.954 . S
H366 C370 0.949 . S
C367 C368 1.349 . S
C367 C369 1.327 . S
C367 H390 0.950 . S
C368 C367 1.349 . S
C368 C380 1.349 . S
C369 C367 1.327 . S
C369 C385 1.429 . S
C369 H391 0.950 . S
C370 H366 0.949 . S
C370 C378 1.574 . S
C370 C386 1.368 1_545 S
H371 C379 0.950 . S
H372 C377 0.950 . S
H373 C378 0.949 . S
H374 C380 0.950 . S
H375 C381 0.950 1_545 S
H376 C382 0.949 . S
C377 H372 0.950 . S
C377 C379 1.327 . S
C377 C383 1.429 . S
C378 C370 1.574 . S
C378 H373 0.949 . S
C378 C384 1.368 1_456 S
C379 C363 1.349 . S
C379 H371 0.950 . S
C379 C377 1.327 . S
C380 C368 1.349 . S
C380 H374 0.950 . S
C380 C381 1.327 . S
C381 H375 0.950 1_565 S
C381 C380 1.327 . S
C381 C385 1.429 . S
C382 C365 1.574 1_465 S
C382 H376 0.949 . S
C382 C386 1.368 1_554 S
C383 C364 1.429 . S
C383 C377 1.429 . S
C383 C384 1.523 . S
C384 C365 1.368 . S
C384 C378 1.368 1_654 S
C384 C383 1.523 . S
C385 C369 1.429 . S
C385 C381 1.429 . S
C385 C386 1.523 . S
C386 C370 1.368 1_565 S
C386 C382 1.368 1_556 S
C386 C385 1.523 . S
H387 C362 0.950 . S
H388 C364 0.950 . S
H389 C365 0.954 . S
H390 C367 0.950 . S
H391 C369 0.950 . S
C392 C393 1.349 . S
C392 C394 1.327 . S
C392 H417 0.950 . S
C393 C392 1.349 . S
C393 C409 1.349 . S
C394 C392 1.327 . S
C394 C413 1.429 . S
C394 H418 0.950 . S
C395 C412 1.574 . S
C395 C414 1.368 . S
C395 H419 0.949 . S
H396 C400 0.949 . S
C397 C398 1.349 . S
C397 C399 1.327 . S
C397 H420 0.950 . S
C398 C397 1.349 . S
C398 C410 1.349 . S
C399 C397 1.327 . S
C399 C415 1.429 . S
C399 H421 0.950 . S
C400 H396 0.949 . S
C400 C408 1.574 . S
C400 C416 1.368 . S
H401 C409 0.950 . S
H402 C407 0.950 . S
H403 C408 0.949 . S
H404 C410 0.950 . S
H405 C411 0.950 . S
H406 C412 0.949 . S
C407 H402 0.950 . S
C407 C409 1.327 . S
C407 C413 1.429 . S
C408 C400 1.574 . S
C408 H403 0.949 . S
C408 C414 1.368 . S
C409 C393 1.349 . S
C409 H401 0.950 . S
C409 C407 1.327 . S
C410 C398 1.349 . S
C410 H404 0.950 . S
C410 C411 1.327 . S
C411 H405 0.950 . S
C411 C410 1.327 . S
C411 C415 1.429 . S
C412 C395 1.574 . S
C412 H406 0.949 . S
C412 C416 1.368 . S
C413 C394 1.429 . S
C413 C407 1.429 . S
C413 C414 1.523 . S
C414 C395 1.368 . S
C414 C408 1.368 . S
C414 C413 1.523 . S
C415 C399 1.429 . S
C415 C411 1.429 . S
C415 C416 1.523 . S
C416 C400 1.368 . S
C416 C412 1.368 . S
C416 C415 1.523 . S
H417 C392 0.950 . S
H418 C394 0.950 . S
H419 C395 0.949 . S
H420 C397 0.950 . S
H421 C399 0.950 . S
C422 C423 1.349 . S
C422 C424 1.327 . S
C422 H447 0.950 . S
C423 C422 1.349 . S
C423 C439 1.349 . S
C424 C422 1.327 . S
C424 C443 1.429 . S
C424 H448 0.950 . S
C425 C442 1.574 . S
C425 C444 1.368 . S
C425 H449 0.949 . S
H426 C430 0.949 . S
C427 C428 1.349 . S
C427 C429 1.327 . S
C427 H450 0.950 . S
C428 C427 1.349 . S
C428 C440 1.349 . S
C429 C427 1.327 . S
C429 C445 1.429 . S
C429 H451 0.950 . S
C430 H426 0.949 . S
C430 C438 1.574 . S
C430 C446 1.368 . S
H431 C439 0.950 . S
H432 C437 0.950 . S
H433 C438 0.949 . S
H434 C440 0.950 . S
H435 C441 0.950 . S
H436 C442 0.949 . S
C437 H432 0.950 . S
C437 C439 1.327 . S
C437 C443 1.429 . S
C438 C430 1.574 . S
C438 H433 0.949 . S
C438 C444 1.368 . S
C439 C423 1.349 . S
C439 H431 0.950 . S
C439 C437 1.327 . S
C440 C428 1.349 . S
C440 H434 0.950 . S
C440 C441 1.327 . S
C441 H435 0.950 . S
C441 C440 1.327 . S
C441 C445 1.429 . S
C442 C425 1.574 . S
C442 H436 0.949 . S
C442 C446 1.368 . S
C443 C424 1.429 . S
C443 C437 1.429 . S
C443 C444 1.523 . S
C444 C425 1.368 . S
C444 C438 1.368 . S
C444 C443 1.523 . S
C445 C429 1.429 . S
C445 C441 1.429 . S
C445 C446 1.523 . S
C446 C430 1.368 . S
C446 C442 1.368 . S
C446 C445 1.523 . S
H447 C422 0.950 . S
H448 C424 0.950 . S
H449 C425 0.949 . S
H450 C427 0.950 . S
H451 C429 0.950 . S
C452 C453 1.349 . S
C452 C454 1.327 . S
C452 H477 0.950 . S
C453 C452 1.349 . S
C453 C469 1.349 . S
C454 C452 1.327 . S
C454 C473 1.429 . S
C454 H478 0.950 . S
C455 C472 1.574 . S
C455 C474 1.368 . S
C455 H479 0.949 . S
H456 C460 0.949 . S
C457 C458 1.349 . S
C457 C459 1.327 . S
C457 H480 0.950 . S
C458 C457 1.349 . S
C458 C470 1.349 . S
C459 C457 1.327 . S
C459 C475 1.429 . S
C459 H481 0.950 . S
C460 H456 0.949 . S
C460 C468 1.574 . S
C460 C476 1.368 . S
H461 C469 0.950 . S
H462 C467 0.950 . S
H463 C468 0.949 . S
H464 C470 0.950 . S
H465 C471 0.950 . S
H466 C472 0.949 . S
C467 H462 0.950 . S
C467 C469 1.327 . S
C467 C473 1.429 . S
C468 C460 1.574 . S
C468 H463 0.949 . S
C468 C474 1.368 . S
C469 C453 1.349 . S
C469 H461 0.950 . S
C469 C467 1.327 . S
C470 C458 1.349 . S
C470 H464 0.950 . S
C470 C471 1.327 . S
C471 H465 0.950 . S
C471 C470 1.327 . S
C471 C475 1.429 . S
C472 C455 1.574 . S
C472 H466 0.949 . S
C472 C476 1.368 . S
C473 C454 1.429 . S
C473 C467 1.429 . S
C473 C474 1.523 . S
C474 C455 1.368 . S
C474 C468 1.368 . S
C474 C473 1.523 . S
C475 C459 1.429 . S
C475 C471 1.429 . S
C475 C476 1.523 . S
C476 C460 1.368 . S
C476 C472 1.368 . S
C476 C475 1.523 . S
H477 C452 0.950 . S
H478 C454 0.950 . S
H479 C455 0.949 . S
H480 C457 0.950 . S
H481 C459 0.950 . S
C482 C483 1.349 . S
C482 C484 1.327 . S
C482 H507 0.950 . S
C483 C482 1.349 . S
C483 C499 1.349 . S
C484 C482 1.327 . S
C484 C503 1.429 . S
C484 H508 0.950 . S
C485 C502 1.574 . S
C485 C504 1.368 . S
C485 H509 0.949 . S
H486 C490 0.949 . S
C487 C488 1.349 . S
C487 C489 1.327 . S
C487 H510 0.950 . S
C488 C487 1.349 . S
C488 C500 1.349 . S
C489 C487 1.327 . S
C489 C505 1.429 . S
C489 H511 0.950 . S
C490 H486 0.949 . S
C490 C498 1.574 . S
C490 C506 1.368 . S
H491 C499 0.950 . S
H492 C497 0.950 . S
H493 C498 0.949 . S
H494 C500 0.950 . S
H495 C501 0.950 . S
H496 C502 0.949 . S
C497 H492 0.950 . S
C497 C499 1.327 . S
C497 C503 1.429 . S
C498 C490 1.574 . S
C498 H493 0.949 . S
C498 C504 1.368 . S
C499 C483 1.349 . S
C499 H491 0.950 . S
C499 C497 1.327 . S
C500 C488 1.349 . S
C500 H494 0.950 . S
C500 C501 1.327 . S
C501 H495 0.950 . S
C501 C500 1.327 . S
C501 C505 1.429 . S
C502 C485 1.574 . S
C502 H496 0.949 . S
C502 C506 1.368 . S
C503 C484 1.429 . S
C503 C497 1.429 . S
C503 C504 1.523 . S
C504 C485 1.368 . S
C504 C498 1.368 . S
C504 C503 1.523 . S
C505 C489 1.429 . S
C505 C501 1.429 . S
C505 C506 1.523 . S
C506 C490 1.368 . S
C506 C502 1.368 . S
C506 C505 1.523 . S
H507 C482 0.950 . S
H508 C484 0.950 . S
H509 C485 0.949 . S
H510 C487 0.950 . S
H511 C489 0.950 . S
C512 C513 1.349 . S
C512 C514 1.327 . S
C512 H537 0.950 . S
C513 C512 1.349 . S
C513 C529 1.349 . S
C514 C512 1.327 . S
C514 C533 1.429 . S
C514 H538 0.950 . S
C515 C532 1.574 . S
C515 C534 1.368 . S
C515 H539 0.949 . S
H516 C520 0.949 . S
C517 C518 1.349 . S
C517 C519 1.327 . S
C517 H540 0.950 . S
C518 C517 1.349 . S
C518 C530 1.349 . S
C519 C517 1.327 . S
C519 C535 1.429 . S
C519 H541 0.950 . S
C520 H516 0.949 . S
C520 C528 1.574 . S
C520 C536 1.368 . S
H521 C529 0.950 . S
H522 C527 0.950 . S
H523 C528 0.949 . S
H524 C530 0.950 . S
H525 C531 0.950 . S
H526 C532 0.949 . S
C527 H522 0.950 . S
C527 C529 1.327 . S
C527 C533 1.429 . S
C528 C520 1.574 . S
C528 H523 0.949 . S
C528 C534 1.368 . S
C529 C513 1.349 . S
C529 H521 0.950 . S
C529 C527 1.327 . S
C530 C518 1.349 . S
C530 H524 0.950 . S
C530 C531 1.327 . S
C531 H525 0.950 . S
C531 C530 1.327 . S
C531 C535 1.429 . S
C532 C515 1.574 . S
C532 H526 0.949 . S
C532 C536 1.368 . S
C533 C514 1.429 . S
C533 C527 1.429 . S
C533 C534 1.523 . S
C534 C515 1.368 . S
C534 C528 1.368 . S
C534 C533 1.523 . S
C535 C519 1.429 . S
C535 C531 1.429 . S
C535 C536 1.523 . S
C536 C520 1.368 . S
C536 C532 1.368 . S
C536 C535 1.523 . S
H537 C512 0.950 . S
H538 C514 0.950 . S
H539 C515 0.949 . S
H540 C517 0.950 . S
H541 C519 0.950 . S
C542 C543 1.349 . S
C542 C544 1.327 . S
C542 H567 0.950 . S
C543 C542 1.349 . S
C543 C559 1.349 . S
C544 C542 1.327 . S
C544 C563 1.429 . S
C544 H568 0.950 . S
C545 C562 1.574 . S
C545 C564 1.368 . S
C545 H569 0.949 . S
H546 C550 0.949 . S
C547 C548 1.349 . S
C547 C549 1.327 . S
C547 H570 0.950 . S
C548 C547 1.349 . S
C548 C560 1.349 . S
C549 C547 1.327 . S
C549 C565 1.429 . S
C549 H571 0.950 . S
C550 H546 0.949 . S
C550 C558 1.574 . S
C550 C566 1.368 . S
H551 C559 0.950 . S
H552 C557 0.950 . S
H553 C558 0.949 . S
H554 C560 0.950 . S
H555 C561 0.950 . S
H556 C562 0.949 . S
C557 H552 0.950 . S
C557 C559 1.327 . S
C557 C563 1.429 . S
C558 C550 1.574 . S
C558 H553 0.949 . S
C558 C564 1.368 . S
C559 C543 1.349 . S
C559 H551 0.950 . S
C559 C557 1.327 . S
C560 C548 1.349 . S
C560 H554 0.950 . S
C560 C561 1.327 . S
C561 H555 0.950 . S
C561 C560 1.327 . S
C561 C565 1.429 . S
C562 C545 1.574 . S
C562 H556 0.949 . S
C562 C566 1.368 . S
C563 C544 1.429 . S
C563 C557 1.429 . S
C563 C564 1.523 . S
C564 C545 1.368 . S
C564 C558 1.368 . S
C564 C563 1.523 . S
C565 C549 1.429 . S
C565 C561 1.429 . S
C565 C566 1.523 . S
C566 C550 1.368 . S
C566 C562 1.368 . S
C566 C565 1.523 . S
H567 C542 0.950 . S
H568 C544 0.950 . S
H569 C545 0.949 . S
H570 C547 0.950 . S
H571 C549 0.950 . S
C572 C573 1.349 . S
C572 C574 1.327 . S
C572 H597 0.950 . S
C573 C572 1.349 . S
C573 C589 1.349 . S
C574 C572 1.327 . S
C574 C593 1.429 . S
C574 H598 0.950 . S
C575 C592 1.574 . S
C575 C594 1.368 . S
C575 H599 0.949 . S
H576 C580 0.949 . S
C577 C578 1.349 . S
C577 C579 1.327 . S
C577 H600 0.950 . S
C578 C577 1.349 . S
C578 C590 1.349 . S
C579 C577 1.327 . S
C579 C595 1.429 . S
C579 H601 0.950 . S
C580 H576 0.949 . S
C580 C588 1.574 . S
C580 C596 1.368 . S
H581 C589 0.950 . S
H582 C587 0.950 . S
H583 C588 0.949 . S
H584 C590 0.950 . S
H585 C591 0.950 . S
H586 C592 0.949 . S
C587 H582 0.950 . S
C587 C589 1.327 . S
C587 C593 1.429 . S
C588 C580 1.574 . S
C588 H583 0.949 . S
C588 C594 1.368 . S
C589 C573 1.349 . S
C589 H581 0.950 . S
C589 C587 1.327 . S
C590 C578 1.349 . S
C590 H584 0.950 . S
C590 C591 1.327 . S
C591 H585 0.950 . S
C591 C590 1.327 . S
C591 C595 1.429 . S
C592 C575 1.574 . S
C592 H586 0.949 . S
C592 C596 1.368 . S
C593 C574 1.429 . S
C593 C587 1.429 . S
C593 C594 1.523 . S
C594 C575 1.368 . S
C594 C588 1.368 . S
C594 C593 1.523 . S
C595 C579 1.429 . S
C595 C591 1.429 . S
C595 C596 1.523 . S
C596 C580 1.368 . S
C596 C592 1.368 . S
C596 C595 1.523 . S
H597 C572 0.950 . S
H598 C574 0.950 . S
H599 C575 0.949 . S
H600 C577 0.950 . S
H601 C579 0.950 . S
C602 C603 1.349 . S
C602 C604 1.327 . S
C602 H627 0.950 . S
C603 C602 1.349 . S
C603 C619 1.349 . S
C604 C602 1.327 . S
C604 C623 1.429 . S
C604 H628 0.950 . S
C605 C622 1.574 . S
C605 C624 1.368 . S
C605 H629 0.949 . S
H606 C610 0.949 . S
C607 C608 1.349 . S
C607 C609 1.327 . S
C607 H630 0.950 . S
C608 C607 1.349 . S
C608 C620 1.349 . S
C609 C607 1.327 . S
C609 C625 1.429 . S
C609 H631 0.950 . S
C610 H606 0.949 . S
C610 C618 1.574 . S
C610 C626 1.368 . S
H611 C619 0.950 . S
H612 C617 0.950 . S
H613 C618 0.949 . S
H614 C620 0.950 . S
H615 C621 0.950 . S
H616 C622 0.949 . S
C617 H612 0.950 . S
C617 C619 1.327 . S
C617 C623 1.429 . S
C618 C610 1.574 . S
C618 H613 0.949 . S
C618 C624 1.368 . S
C619 C603 1.349 . S
C619 H611 0.950 . S
C619 C617 1.327 . S
C620 C608 1.349 . S
C620 H614 0.950 . S
C620 C621 1.327 . S
C621 H615 0.950 . S
C621 C620 1.327 . S
C621 C625 1.429 . S
C622 C605 1.574 . S
C622 H616 0.949 . S
C622 C626 1.368 . S
C623 C604 1.429 . S
C623 C617 1.429 . S
C623 C624 1.523 . S
C624 C605 1.368 . S
C624 C618 1.368 . S
C624 C623 1.523 . S
C625 C609 1.429 . S
C625 C621 1.429 . S
C625 C626 1.523 . S
C626 C610 1.368 . S
C626 C622 1.368 . S
C626 C625 1.523 . S
H627 C602 0.950 . S
H628 C604 0.950 . S
H629 C605 0.949 . S
H630 C607 0.950 . S
H631 C609 0.950 . S
C632 C633 1.349 . S
C632 C634 1.327 . S
C632 H657 0.950 . S
C633 C632 1.349 . S
C633 C649 1.349 . S
C634 C632 1.327 . S
C634 C653 1.429 . S
C634 H658 0.950 . S
C635 C652 1.574 . S
C635 C654 1.368 . S
C635 H659 0.949 . S
H636 C640 0.949 . S
C637 C638 1.349 . S
C637 C639 1.327 . S
C637 H660 0.950 . S
C638 C637 1.349 . S
C638 C650 1.349 . S
C639 C637 1.327 . S
C639 C655 1.429 . S
C639 H661 0.950 . S
C640 H636 0.949 . S
C640 C648 1.574 . S
C640 C656 1.368 . S
H641 C649 0.950 . S
H642 C647 0.950 . S
H643 C648 0.949 . S
H644 C650 0.950 . S
H645 C651 0.950 . S
H646 C652 0.949 . S
C647 H642 0.950 . S
C647 C649 1.327 . S
C647 C653 1.429 . S
C648 C640 1.574 . S
C648 H643 0.949 . S
C648 C654 1.368 . S
C649 C633 1.349 . S
C649 H641 0.950 . S
C649 C647 1.327 . S
C650 C638 1.349 . S
C650 H644 0.950 . S
C650 C651 1.327 . S
C651 H645 0.950 . S
C651 C650 1.327 . S
C651 C655 1.429 . S
C652 C635 1.574 . S
C652 H646 0.949 . S
C652 C656 1.368 . S
C653 C634 1.429 . S
C653 C647 1.429 . S
C653 C654 1.523 . S
C654 C635 1.368 . S
C654 C648 1.368 . S
C654 C653 1.523 . S
C655 C639 1.429 . S
C655 C651 1.429 . S
C655 C656 1.523 1_554 S
C656 C640 1.368 . S
C656 C652 1.368 . S
C656 C655 1.523 1_556 S
H657 C632 0.950 . S
H658 C634 0.950 . S
H659 C635 0.949 . S
H660 C637 0.950 . S
H661 C639 0.950 . S
C662 C663 1.349 . S
C662 C664 1.327 . S
C662 H687 0.950 . S
C663 C662 1.349 . S
C663 C679 1.349 . S
C664 C662 1.327 . S
C664 C683 1.429 . S
C664 H688 0.950 . S
C665 C682 1.574 . S
C665 C684 1.368 . S
C665 H689 0.949 . S
H666 C670 0.949 . S
C667 C668 1.349 . S
C667 C669 1.327 . S
C667 H690 0.950 . S
C668 C667 1.349 . S
C668 C680 1.349 . S
C669 C667 1.327 . S
C669 C685 1.429 . S
C669 H691 0.950 . S
C670 H666 0.949 . S
C670 C678 1.574 . S
C670 C686 1.368 . S
H671 C679 0.950 . S
H672 C677 0.950 . S
H673 C678 0.949 . S
H674 C680 0.950 . S
H675 C681 0.950 . S
H676 C682 0.949 . S
C677 H672 0.950 . S
C677 C679 1.327 . S
C677 C683 1.429 . S
C678 C670 1.574 . S
C678 H673 0.949 . S
C678 C684 1.368 . S
C679 C663 1.349 . S
C679 H671 0.950 . S
C679 C677 1.327 . S
C680 C668 1.349 . S
C680 H674 0.950 . S
C680 C681 1.327 . S
C681 H675 0.950 . S
C681 C680 1.327 . S
C681 C685 1.429 . S
C682 C665 1.574 . S
C682 H676 0.949 . S
C682 C686 1.368 . S
C683 C664 1.429 . S
C683 C677 1.429 . S
C683 C684 1.523 . S
C684 C665 1.368 . S
C684 C678 1.368 . S
C684 C683 1.523 . S
C685 C669 1.429 . S
C685 C681 1.429 . S
C685 C686 1.523 . S
C686 C670 1.368 . S
C686 C682 1.368 . S
C686 C685 1.523 . S
H687 C662 0.950 . S
H688 C664 0.950 . S
H689 C665 0.949 . S
H690 C667 0.950 . S
H691 C669 0.950 . S
C692 C693 1.349 . S
C692 C694 1.327 . S
C692 H717 0.950 . S
C693 C692 1.349 . S
C693 C709 1.349 . S
C694 C692 1.327 . S
C694 C713 1.429 . S
C694 H718 0.950 . S
C695 C712 1.574 . S
C695 C714 1.368 . S
C695 H719 0.949 . S
H696 C700 0.949 . S
C697 C698 1.349 . S
C697 C699 1.327 . S
C697 H720 0.950 . S
C698 C697 1.349 . S
C698 C710 1.349 . S
C699 C697 1.327 . S
C699 C715 1.429 . S
C699 H721 0.950 . S
C700 H696 0.949 . S
C700 C708 1.574 . S
C700 C716 1.368 . S
H701 C709 0.950 . S
H702 C707 0.950 . S
H703 C708 0.949 . S
H704 C710 0.950 . S
H705 C711 0.950 . S
H706 C712 0.949 . S
C707 H702 0.950 . S
C707 C709 1.327 . S
C707 C713 1.429 . S
C708 C700 1.574 . S
C708 H703 0.949 . S
C708 C714 1.368 . S
C709 C693 1.349 . S
C709 H701 0.950 . S
C709 C707 1.327 . S
C710 C698 1.349 . S
C710 H704 0.950 . S
C710 C711 1.327 . S
C711 H705 0.950 . S
C711 C710 1.327 . S
C711 C715 1.429 . S
C712 C695 1.574 . S
C712 H706 0.949 . S
C712 C716 1.368 . S
C713 C694 1.429 . S
C713 C707 1.429 . S
C713 C714 1.523 1_554 S
C714 C695 1.368 . S
C714 C708 1.368 . S
C714 C713 1.523 1_556 S
C715 C699 1.429 . S
C715 C711 1.429 . S
C715 C716 1.523 . S
C716 C700 1.368 . S
C716 C712 1.368 . S
C716 C715 1.523 . S
H717 C692 0.950 . S
H718 C694 0.950 . S
H719 C695 0.949 . S
H720 C697 0.950 . S
H721 C699 0.950 . S
C722 C723 1.349 . S
C722 C724 1.327 . S
C722 H747 0.950 . S
C723 C722 1.349 . S
C723 C739 1.349 . S
C724 C722 1.327 . S
C724 C743 1.429 . S
C724 H748 0.950 . S
C725 C742 1.574 . S
C725 C744 1.368 . S
C725 H749 0.949 . S
H726 C730 0.949 . S
C727 C728 1.349 . S
C727 C729 1.327 . S
C727 H750 0.950 . S
C728 C727 1.349 . S
C728 C740 1.349 . S
C729 C727 1.327 . S
C729 C745 1.429 . S
C729 H751 0.950 . S
C730 H726 0.949 . S
C730 C738 1.574 . S
C730 C746 1.368 . S
H731 C739 0.950 . S
H732 C737 0.950 . S
H733 C738 0.949 . S
H734 C740 0.950 . S
H735 C741 0.950 . S
H736 C742 0.949 . S
C737 H732 0.950 . S
C737 C739 1.327 . S
C737 C743 1.429 . S
C738 C730 1.574 . S
C738 H733 0.949 . S
C738 C744 1.368 . S
C739 C723 1.349 . S
C739 H731 0.950 . S
C739 C737 1.327 . S
C740 C728 1.349 . S
C740 H734 0.950 . S
C740 C741 1.327 . S
C741 H735 0.950 . S
C741 C740 1.327 . S
C741 C745 1.429 . S
C742 C725 1.574 . S
C742 H736 0.949 . S
C742 C746 1.368 . S
C743 C724 1.429 . S
C743 C737 1.429 . S
C743 C744 1.523 . S
C744 C725 1.368 . S
C744 C738 1.368 . S
C744 C743 1.523 . S
C745 C729 1.429 . S
C745 C741 1.429 . S
C745 C746 1.523 . S
C746 C730 1.368 . S
C746 C742 1.368 . S
C746 C745 1.523 . S
H747 C722 0.950 . S
H748 C724 0.950 . S
H749 C725 0.949 . S
H750 C727 0.950 . S
H751 C729 0.950 . S
C752 C753 1.349 . S
C752 C754 1.327 . S
C752 H777 0.950 . S
C753 C752 1.349 . S
C753 C769 1.349 . S
C754 C752 1.327 . S
C754 C773 1.429 . S
C754 H778 0.950 . S
C755 C772 1.574 . S
C755 C774 1.368 . S
C755 H779 0.949 . S
H756 C760 0.949 . S
C757 C758 1.349 . S
C757 C759 1.327 . S
C757 H780 0.950 . S
C758 C757 1.349 . S
C758 C770 1.349 . S
C759 C757 1.327 . S
C759 C775 1.429 . S
C759 H781 0.950 . S
C760 H756 0.949 . S
C760 C768 1.574 . S
C760 C776 1.368 . S
H761 C769 0.950 . S
H762 C767 0.950 . S
H763 C768 0.949 . S
H764 C770 0.950 . S
H765 C771 0.950 . S
H766 C772 0.949 . S
C767 H762 0.950 . S
C767 C769 1.327 . S
C767 C773 1.429 . S
C768 C760 1.574 . S
C768 H763 0.949 . S
C768 C774 1.368 . S
C769 C753 1.349 . S
C769 H761 0.950 . S
C769 C767 1.327 . S
C770 C758 1.349 . S
C770 H764 0.950 . S
C770 C771 1.327 . S
C771 H765 0.950 . S
C771 C770 1.327 . S
C771 C775 1.429 . S
C772 C755 1.574 . S
C772 H766 0.949 . S
C772 C776 1.368 . S
C773 C754 1.429 . S
C773 C767 1.429 . S
C773 C774 1.523 . S
C774 C755 1.368 . S
C774 C768 1.368 . S
C774 C773 1.523 . S
C775 C759 1.429 . S
C775 C771 1.429 . S
C775 C776 1.523 . S
C776 C760 1.368 . S
C776 C772 1.368 . S
C776 C775 1.523 . S
H777 C752 0.950 . S
H778 C754 0.950 . S
H779 C755 0.949 . S
H780 C757 0.950 . S
H781 C759 0.950 . S
C782 C783 1.349 . S
C782 C784 1.327 . S
C782 H807 0.950 . S
C783 C782 1.349 . S
C783 C799 1.349 . S
C784 C782 1.327 . S
C784 C803 1.429 . S
C784 H808 0.950 . S
C785 C802 1.574 . S
C785 C804 1.368 . S
C785 H809 0.949 . S
H786 C790 0.949 . S
C787 C788 1.349 . S
C787 C789 1.327 . S
C787 H810 0.950 . S
C788 C787 1.349 . S
C788 C800 1.349 . S
C789 C787 1.327 . S
C789 C805 1.429 . S
C789 H811 0.950 . S
C790 H786 0.949 . S
C790 C798 1.574 . S
C790 C806 1.368 . S
H791 C799 0.950 . S
H792 C797 0.950 . S
H793 C798 0.949 . S
H794 C800 0.950 . S
H795 C801 0.950 . S
H796 C802 0.949 . S
C797 H792 0.950 . S
C797 C799 1.327 . S
C797 C803 1.429 . S
C798 C790 1.574 . S
C798 H793 0.949 . S
C798 C804 1.368 . S
C799 C783 1.349 . S
C799 H791 0.950 . S
C799 C797 1.327 . S
C800 C788 1.349 . S
C800 H794 0.950 . S
C800 C801 1.327 . S
C801 H795 0.950 . S
C801 C800 1.327 . S
C801 C805 1.429 . S
C802 C785 1.574 . S
C802 H796 0.949 . S
C802 C806 1.368 . S
C803 C784 1.429 . S
C803 C797 1.429 . S
C803 C804 1.523 1_556 S
C804 C785 1.368 . S
C804 C798 1.368 . S
C804 C803 1.523 1_554 S
C805 C789 1.429 . S
C805 C801 1.429 . S
C805 C806 1.523 . S
C806 C790 1.368 . S
C806 C802 1.368 . S
C806 C805 1.523 . S
H807 C782 0.950 . S
H808 C784 0.950 . S
H809 C785 0.949 . S
H810 C787 0.950 . S
H811 C789 0.950 . S
C812 C813 1.349 . S
C812 C814 1.327 . S
C812 H837 0.950 . S
C813 C812 1.349 . S
C813 C829 1.349 . S
C814 C812 1.327 . S
C814 C833 1.429 . S
C814 H838 0.950 . S
C815 C832 1.574 . S
C815 C834 1.368 . S
C815 H839 0.949 . S
H816 C820 0.949 . S
C817 C818 1.349 . S
C817 C819 1.327 . S
C817 H840 0.950 . S
C818 C817 1.349 . S
C818 C830 1.349 . S
C819 C817 1.327 . S
C819 C835 1.429 . S
C819 H841 0.950 . S
C820 H816 0.949 . S
C820 C828 1.574 . S
C820 C836 1.368 . S
H821 C829 0.950 . S
H822 C827 0.950 . S
H823 C828 0.949 . S
H824 C830 0.950 . S
H825 C831 0.950 . S
H826 C832 0.949 . S
C827 H822 0.950 . S
C827 C829 1.327 . S
C827 C833 1.429 . S
C828 C820 1.574 . S
C828 H823 0.949 . S
C828 C834 1.368 . S
C829 C813 1.349 . S
C829 H821 0.950 . S
C829 C827 1.327 . S
C830 C818 1.349 . S
C830 H824 0.950 . S
C830 C831 1.327 . S
C831 H825 0.950 . S
C831 C830 1.327 . S
C831 C835 1.429 . S
C832 C815 1.574 . S
C832 H826 0.949 . S
C832 C836 1.368 . S
C833 C814 1.429 . S
C833 C827 1.429 . S
C833 C834 1.523 . S
C834 C815 1.368 . S
C834 C828 1.368 . S
C834 C833 1.523 . S
C835 C819 1.429 . S
C835 C831 1.429 . S
C835 C836 1.523 . S
C836 C820 1.368 . S
C836 C832 1.368 . S
C836 C835 1.523 . S
H837 C812 0.950 . S
H838 C814 0.950 . S
H839 C815 0.949 . S
H840 C817 0.950 . S
H841 C819 0.950 . S
C842 C843 1.349 . S
C842 C844 1.327 . S
C842 H867 0.950 . S
C843 C842 1.349 . S
C843 C859 1.349 . S
C844 C842 1.327 . S
C844 C863 1.429 . S
C844 H868 0.950 . S
C845 C862 1.574 . S
C845 C864 1.368 . S
C845 H869 0.949 . S
H846 C850 0.949 . S
C847 C848 1.349 . S
C847 C849 1.327 . S
C847 H870 0.950 . S
C848 C847 1.349 . S
C848 C860 1.349 . S
C849 C847 1.327 . S
C849 C865 1.429 . S
C849 H871 0.950 . S
C850 H846 0.949 . S
C850 C858 1.574 . S
C850 C866 1.368 . S
H851 C859 0.950 . S
H852 C857 0.950 . S
H853 C858 0.949 . S
H854 C860 0.950 . S
H855 C861 0.950 . S
H856 C862 0.949 . S
C857 H852 0.950 . S
C857 C859 1.327 . S
C857 C863 1.429 . S
C858 C850 1.574 . S
C858 H853 0.949 . S
C858 C864 1.368 . S
C859 C843 1.349 . S
C859 H851 0.950 . S
C859 C857 1.327 . S
C860 C848 1.349 . S
C860 H854 0.950 . S
C860 C861 1.327 . S
C861 H855 0.950 . S
C861 C860 1.327 . S
C861 C865 1.429 . S
C862 C845 1.574 . S
C862 H856 0.949 . S
C862 C866 1.368 . S
C863 C844 1.429 . S
C863 C857 1.429 . S
C863 C864 1.523 . S
C864 C845 1.368 . S
C864 C858 1.368 . S
C864 C863 1.523 . S
C865 C849 1.429 . S
C865 C861 1.429 . S
C865 C866 1.523 1_556 S
C866 C850 1.368 . S
C866 C862 1.368 . S
C866 C865 1.523 1_554 S
H867 C842 0.950 . S
H868 C844 0.950 . S
H869 C845 0.949 . S
H870 C847 0.950 . S
H871 C849 0.950 . S
C273 C258 1.495 . S
C278 C20 1.495 . S
C303 C156 1.495 . S
C308 C54 1.495 . S
C333 C88 1.495 . S
C338 C190 1.495 . S
C363 C224 1.495 . S
C368 C122 1.495 . S
C393 C33 1.111 . S
C398 C169 1.111 . S
C423 C203 1.111 . S
C428 C67 1.111 . S
C453 C237 1.111 . S
C458 C101 1.111 . S
C483 C271 1.111 . S
C488 C135 1.111 . S
C513 C240 1.719 . S
C518 C36 1.719 . S
C543 C70 1.719 . S
C548 C138 1.719 . S
C573 C104 1.719 . S
C578 C172 1.719 . S
C603 C206 1.719 . S
C608 C2 1.719 . S
C633 C9 0.998 . S
C638 C5 1.042 . S
C663 C39 1.042 . S
C668 C43 0.998 . S
C693 C73 1.042 . S
C698 C77 0.998 . S
C723 C111 0.998 . S
C728 C107 1.042 . S
C753 C141 1.042 . S
C758 C145 0.998 . S
C783 C175 1.042 . S
C788 C179 0.998 . S
C813 C209 1.042 . S
C818 C213 0.998 . S
C843 C247 0.998 . S
C848 C243 1.042 . S
