# Generated by pormake.
# Topology dmp, (4)-cn, num edge types: 1
# Building blocks:
#     Node 0, Type 0, BuildingBlock: UXUYUI_clean_sbu_0, # of connection points: 4
#     Node 1, Type 0, BuildingBlock: UXUYUI_clean_sbu_0, # of connection points: 4
#     Node 2, Type 0, BuildingBlock: UXUYUI_clean_sbu_0, # of connection points: 4
#     Node 3, Type 0, BuildingBlock: UXUYUI_clean_sbu_0, # of connection points: 4
#     Edge 4, Type (0, 0), BuildingBlock: TEMPAE_clean_linker_10, # of connection points: 2
#     Edge 5, Type (0, 0), BuildingBlock: TEMPAE_clean_linker_10, # of connection points: 2
#     Edge 6, Type (0, 0), BuildingBlock: TEMPAE_clean_linker_10, # of connection points: 2
#     Edge 7, Type (0, 0), BuildingBlock: TEMPAE_clean_linker_10, # of connection points: 2
#     Edge 8, Type (0, 0), BuildingBlock: TEMPAE_clean_linker_10, # of connection points: 2
#     Edge 9, Type (0, 0), BuildingBlock: TEMPAE_clean_linker_10, # of connection points: 2
#     Edge 10, Type (0, 0), BuildingBlock: TEMPAE_clean_linker_10, # of connection points: 2
#     Edge 11, Type (0, 0), BuildingBlock: TEMPAE_clean_linker_10, # of connection points: 2
# Relax obj value: 0.351
# Max RMSD: 0.312
# Mean RMSD: 0.312
data_MOF--net-dmp--node1-UXUYUI_clean_sbu_0--edge1-TEMPAE_clean_linker_10
_symmetry_space_group_name_H-M    P1
_symmetry_Int_Tables_number       1
_symmetry_cell_setting            triclinic
loop_
_symmetry_equiv_pos_as_xyz
'x, y, z'
_cell_length_a     56.958404
_cell_length_b     24.238955
_cell_length_c     29.345627
_cell_angle_alpha  89.880174
_cell_angle_beta   90.074697
_cell_angle_gamma 90.086606
loop_
_atom_site_label
_atom_site_type_symbol
_atom_site_fract_x
_atom_site_fract_y
_atom_site_fract_z
_atom_type_partial_charge
Li0 Li 0.10617 0.2926 0.21815 0.0
Li1 Li 0.11125 0.21705 0.26941 0.0
Li2 Li 0.07955 0.21837 0.20846 0.0
Li3 Li 0.07813 0.28105 0.27614 0.0
C4 C 0.13315 0.21419 0.17571 0.0
N5 N 0.17227 0.21525 0.12024 0.0
C6 C 0.15473 0.23244 0.19272 0.0
C7 C 0.1315 0.19583 0.13071 0.0
C8 C 0.17429 0.23291 0.16404 0.0
C9 C 0.15149 0.19679 0.10317 0.0
C10 C 0.11672 0.30053 0.33047 0.0
C11 C 0.11058 0.26923 0.40769 0.0
N12 N 0.12612 0.30776 0.42275 0.0
C13 C 0.13264 0.33979 0.34678 0.0
C14 C 0.10562 0.26488 0.36122 0.0
C15 C 0.13715 0.3428 0.39352 0.0
C16 C 0.13524 0.38442 0.21049 0.0
N17 N 0.12446 0.3451 0.18509 0.0
C18 C 0.14751 0.36909 0.12003 0.0
C19 C 0.12939 0.33876 0.14004 0.0
C20 C 0.16027 0.40674 0.1466 0.0
C21 C 0.15327 0.41601 0.19182 0.0
H22 H 0.1308 0.38891 0.24605 0.0
H23 H 0.12036 0.30767 0.12036 0.0
C24 C 0.12836 0.11499 0.29992 0.0
N25 N 0.13279 0.17006 0.29942 0.0
C26 C 0.1451 0.07839 0.31705 0.0
C27 C 0.17018 0.1562 0.33443 0.0
C28 C 0.15307 0.1912 0.31659 0.0
C29 C 0.16649 0.09896 0.33384 0.0
H30 H 0.11215 0.09944 0.28554 0.0
H31 H 0.15639 0.23505 0.31481 0.0
C32 C 0.07005 0.34233 0.18279 0.0
N33 N 0.06787 0.43274 0.12538 0.0
C34 C 0.0669 0.39519 0.20066 0.0
C35 C 0.07194 0.33542 0.13565 0.0
C36 C 0.06589 0.44038 0.17111 0.0
C37 C 0.07084 0.38165 0.10721 0.0
C38 C 0.05859 0.1699 0.29072 0.0
C39 C 0.03686 0.17459 0.26887 0.0
C40 C 0.06092 0.1352 0.32853 0.0
C41 C 0.01773 0.14455 0.28545 0.0
C42 C 0.04136 0.10594 0.34412 0.0
N43 N 0.02036 0.11116 0.32243 0.0
C44 C 0.06919 0.11872 0.16591 0.0
C45 C 0.04634 0.19408 0.1397 0.0
C46 C 0.05836 0.08349 0.13477 0.0
N47 N 0.06312 0.1728 0.16752 0.0
C48 C 0.03529 0.16057 0.10758 0.0
C49 C 0.04131 0.10442 0.10466 0.0
H50 H 0.08256 0.10312 0.18876 0.0
H51 H 0.04168 0.23716 0.14219 0.0
C52 C 0.06636 0.3708 0.32896 0.0
N53 N 0.05913 0.31865 0.31936 0.0
C54 C 0.05423 0.40277 0.36044 0.0
C55 C 0.02756 0.32647 0.3725 0.0
C56 C 0.04021 0.29596 0.34058 0.0
C57 C 0.0345 0.38072 0.3825 0.0
H58 H 0.08171 0.38751 0.31219 0.0
H59 H 0.03486 0.25437 0.33304 0.0
O60 O 0.11362 0.21502 0.20268 0.0
O61 O 0.11234 0.2971 0.2846 0.0
O62 O 0.07108 0.29755 0.21122 0.0
O63 O 0.07768 0.19808 0.27468 0.0
H64 H 0.15622 0.24728 0.22734 0.0
H65 H 0.11488 0.18163 0.1171 0.0
H66 H 0.19105 0.2476 0.17653 0.0
H67 H 0.15045 0.18308 0.06816 0.0
H68 H 0.10209 0.24192 0.43179 0.0
H69 H 0.14153 0.36754 0.32359 0.0
H70 H 0.0933 0.23415 0.34956 0.0
H71 H 0.14945 0.37295 0.40654 0.0
H72 H 0.15225 0.36125 0.0849 0.0
H73 H 0.16275 0.44441 0.21359 0.0
H74 H 0.14167 0.03444 0.31601 0.0
H75 H 0.18664 0.17352 0.34626 0.0
H76 H 0.06518 0.40134 0.23691 0.0
H77 H 0.07464 0.29491 0.1212 0.0
H78 H 0.06349 0.48151 0.18453 0.0
H79 H 0.07244 0.37693 0.0707 0.0
H80 H 0.03472 0.20165 0.23981 0.0
H81 H 0.07767 0.13098 0.34567 0.0
H82 H 0.00079 0.14789 0.26901 0.0
H83 H 0.04288 0.07901 0.37342 0.0
H84 H 0.06323 0.04034 0.1345 0.0
H85 H 0.02247 0.17877 0.08483 0.0
H86 H 0.06039 0.44411 0.3678 0.0
H87 H 0.01236 0.30811 0.38872 0.0
Li88 Li 0.39827 0.77075 0.20792 0.0
Li89 Li 0.4014 0.7028 0.27314 0.0
Li90 Li 0.37104 0.69423 0.21221 0.0
Li91 Li 0.36925 0.76935 0.26812 0.0
C92 C 0.40976 0.6452 0.17961 0.0
N93 N 0.41685 0.55285 0.12638 0.0
C94 C 0.41433 0.59418 0.20002 0.0
C95 C 0.40906 0.6494 0.13214 0.0
C96 C 0.41778 0.54793 0.17252 0.0
C97 C 0.41262 0.60219 0.10581 0.0
C98 C 0.4098 0.82292 0.30534 0.0
C99 C 0.42104 0.84734 0.38196 0.0
N100 N 0.42334 0.90089 0.36874 0.0
C101 C 0.4124 0.87813 0.29245 0.0
C102 C 0.41425 0.80728 0.3504 0.0
C103 C 0.41921 0.91696 0.32502 0.0
C104 C 0.40913 0.87025 0.16222 0.0
N105 N 0.41588 0.81707 0.16876 0.0
C106 C 0.44874 0.82941 0.11937 0.0
C107 C 0.4353 0.79626 0.14827 0.0
C108 C 0.44199 0.88438 0.11135 0.0
C109 C 0.42186 0.90464 0.13323 0.0
H110 H 0.39382 0.88601 0.17947 0.0
H111 H 0.44042 0.75399 0.15462 0.0
C112 C 0.41214 0.61627 0.33147 0.0
N113 N 0.42114 0.66273 0.31231 0.0
C114 C 0.42591 0.58412 0.36035 0.0
C115 C 0.45791 0.64866 0.34959 0.0
C116 C 0.44353 0.67942 0.32055 0.0
C117 C 0.4491 0.60023 0.36969 0.0
H118 H 0.39428 0.60406 0.32403 0.0
H119 H 0.45014 0.71658 0.30459 0.0
C120 C 0.35818 0.80509 0.16581 0.0
N121 N 0.34745 0.87183 0.0923 0.0
C122 C 0.34599 0.85441 0.17242 0.0
C123 C 0.36481 0.78957 0.12183 0.0
C124 C 0.34074 0.88761 0.13479 0.0
C125 C 0.35927 0.82392 0.08512 0.0
C126 C 0.35234 0.68153 0.31417 0.0
C127 C 0.32983 0.66079 0.30602 0.0
C128 C 0.35885 0.69684 0.35829 0.0
C129 C 0.31404 0.65636 0.34225 0.0
C130 C 0.34255 0.69182 0.39358 0.0
N131 N 0.32066 0.67189 0.38489 0.0
C132 C 0.3531 0.58846 0.19159 0.0
C133 C 0.33527 0.66241 0.15161 0.0
C134 C 0.33652 0.55149 0.1743 0.0
N135 N 0.35198 0.64285 0.18045 0.0
C136 C 0.31833 0.62706 0.13368 0.0
C137 C 0.31841 0.57104 0.14597 0.0
H138 H 0.3661 0.57429 0.21577 0.0
H139 H 0.33415 0.706 0.1446 0.0
C140 C 0.35166 0.85256 0.33138 0.0
N141 N 0.34673 0.81165 0.3011 0.0
C142 C 0.3335 0.88349 0.35054 0.0
C143 C 0.30557 0.82766 0.30901 0.0
C144 C 0.32422 0.79886 0.28983 0.0
C145 C 0.31018 0.87109 0.33912 0.0
H146 H 0.36955 0.86236 0.34 0.0
H147 H 0.32081 0.76692 0.26499 0.0
O148 O 0.40629 0.69092 0.20598 0.0
O149 O 0.40351 0.78422 0.27376 0.0
O150 O 0.36344 0.77204 0.20224 0.0
O151 O 0.36786 0.68737 0.27899 0.0
H152 H 0.41503 0.59019 0.23667 0.0
H153 H 0.40593 0.68871 0.11577 0.0
H154 H 0.42119 0.50812 0.18787 0.0
H155 H 0.41208 0.60481 0.06902 0.0
H156 H 0.4245 0.83584 0.41697 0.0
H157 H 0.40911 0.89096 0.25776 0.0
H158 H 0.41252 0.7647 0.36092 0.0
H159 H 0.42121 0.95986 0.31555 0.0
H160 H 0.46436 0.81231 0.1039 0.0
H161 H 0.41581 0.94644 0.12767 0.0
H162 H 0.41841 0.54743 0.37566 0.0
H163 H 0.47576 0.66217 0.35585 0.0
H164 H 0.34072 0.86697 0.20627 0.0
H165 H 0.37413 0.7514 0.11618 0.0
H166 H 0.33135 0.92595 0.13937 0.0
H167 H 0.36435 0.81247 0.05091 0.0
H168 H 0.32455 0.64878 0.272 0.0
H169 H 0.37623 0.71286 0.36509 0.0
H170 H 0.29649 0.64069 0.33644 0.0
H171 H 0.34729 0.70385 0.42786 0.0
H172 H 0.33724 0.50861 0.18464 0.0
H173 H 0.3044 0.64427 0.11295 0.0
H174 H 0.33758 0.91723 0.37338 0.0
H175 H 0.28776 0.81782 0.29879 0.0
Li176 Li 0.873 0.79045 0.72138 0.0
Li177 Li 0.90373 0.77507 0.78198 0.0
Li178 Li 0.90255 0.71912 0.70901 0.0
Li179 Li 0.87339 0.70739 0.76693 0.0
C180 C 0.91177 0.84635 0.69237 0.0
N181 N 0.91916 0.94174 0.64277 0.0
C182 C 0.92048 0.89357 0.71382 0.0
C183 C 0.90684 0.84755 0.64573 0.0
C184 C 0.92411 0.94142 0.68813 0.0
C185 C 0.91067 0.89623 0.62124 0.0
C186 C 0.85172 0.77829 0.81903 0.0
C187 C 0.83768 0.74747 0.89233 0.0
N188 N 0.81531 0.75904 0.87918 0.0
C189 C 0.82861 0.79012 0.80631 0.0
C190 C 0.85633 0.75695 0.86243 0.0
C191 C 0.81045 0.78002 0.8372 0.0
C192 C 0.83313 0.82 0.67339 0.0
N193 N 0.85256 0.84207 0.69316 0.0
C194 C 0.83888 0.93332 0.67752 0.0
C195 C 0.85575 0.8976 0.69563 0.0
C196 C 0.81857 0.91145 0.6571 0.0
C197 C 0.81597 0.854 0.65465 0.0
H198 H 0.83047 0.77588 0.6738 0.0
H199 H 0.87095 0.91421 0.71287 0.0
C200 C 0.94712 0.81369 0.81306 0.0
N201 N 0.924 0.80951 0.82396 0.0
C202 C 0.9626 0.84115 0.84218 0.0
C203 C 0.93024 0.85773 0.8937 0.0
C204 C 0.91533 0.83094 0.86321 0.0
C205 C 0.95412 0.86342 0.88302 0.0
H206 H 0.9534 0.79648 0.78136 0.0
H207 H 0.8968 0.82812 0.87049 0.0
C208 C 0.86331 0.67955 0.66593 0.0
N209 N 0.85299 0.60887 0.59485 0.0
C210 C 0.86259 0.62261 0.67329 0.0
C211 C 0.85853 0.70057 0.62249 0.0
C212 C 0.8574 0.58755 0.6369 0.0
C213 C 0.85343 0.66417 0.58698 0.0
C214 C 0.911 0.64727 0.79728 0.0
C215 C 0.90776 0.59606 0.77639 0.0
C216 C 0.91835 0.64972 0.84268 0.0
C217 C 0.91157 0.54794 0.80158 0.0
C218 C 0.92201 0.60062 0.8667 0.0
N219 N 0.91854 0.55119 0.84584 0.0
C220 C 0.93928 0.65001 0.68206 0.0
C221 C 0.91777 0.68829 0.62048 0.0
C222 C 0.95262 0.61834 0.65214 0.0
N223 N 0.92185 0.68294 0.66591 0.0
C224 C 0.93046 0.65687 0.58938 0.0
C225 C 0.94785 0.62071 0.60528 0.0
H226 H 0.94257 0.64757 0.71826 0.0
H227 H 0.90446 0.71627 0.60834 0.0
C228 C 0.8307 0.65539 0.7706 0.0
N229 N 0.85144 0.65696 0.79354 0.0
C230 C 0.81208 0.62406 0.787 0.0
C231 C 0.83615 0.59676 0.8511 0.0
C232 C 0.85449 0.62855 0.83323 0.0
C233 C 0.81474 0.59464 0.82769 0.0
H234 H 0.82845 0.67963 0.73997 0.0
H235 H 0.87074 0.63193 0.85188 0.0
O236 O 0.90819 0.79913 0.71692 0.0
O237 O 0.86966 0.7863 0.78876 0.0
O238 O 0.86812 0.71469 0.70123 0.0
O239 O 0.90777 0.69485 0.77302 0.0
H240 H 0.92432 0.89337 0.74995 0.0
H241 H 0.89989 0.8115 0.62875 0.0
H242 H 0.93082 0.97831 0.70426 0.0
H243 H 0.90684 0.89785 0.58515 0.0
H244 H 0.84097 0.73042 0.92582 0.0
H245 H 0.82473 0.80646 0.77282 0.0
H246 H 0.87404 0.74633 0.87248 0.0
H247 H 0.79246 0.78869 0.82773 0.0
H248 H 0.84137 0.97748 0.68046 0.0
H249 H 0.80024 0.83552 0.64052 0.0
H250 H 0.98094 0.84497 0.83297 0.0
H251 H 0.92309 0.87523 0.92465 0.0
H252 H 0.86577 0.60564 0.70681 0.0
H253 H 0.85916 0.74451 0.61603 0.0
H254 H 0.8568 0.54338 0.64213 0.0
H255 H 0.84989 0.67989 0.55314 0.0
H256 H 0.90259 0.59349 0.74102 0.0
H257 H 0.92112 0.68911 0.85918 0.0
H258 H 0.90908 0.50801 0.78587 0.0
H259 H 0.92761 0.60181 0.90192 0.0
H260 H 0.96599 0.59103 0.66559 0.0
H261 H 0.92666 0.66058 0.55332 0.0
H262 H 0.79561 0.62339 0.76846 0.0
H263 H 0.83854 0.57463 0.88287 0.0
Li264 Li 0.60791 0.20513 0.72052 0.0
Li265 Li 0.57825 0.20964 0.77946 0.0
Li266 Li 0.57779 0.27473 0.71155 0.0
Li267 Li 0.60813 0.28166 0.77339 0.0
C268 C 0.56886 0.14679 0.68904 0.0
N269 N 0.559 0.05215 0.64033 0.0
C270 C 0.57175 0.09503 0.7093 0.0
C271 C 0.56093 0.15051 0.64404 0.0
C272 C 0.56668 0.04764 0.68409 0.0
C273 C 0.55604 0.10214 0.61997 0.0
C274 C 0.61875 0.18586 0.82952 0.0
C275 C 0.6184 0.19901 0.91091 0.0
N276 N 0.63091 0.15166 0.91621 0.0
C277 C 0.6317 0.1375 0.83569 0.0
C278 C 0.61212 0.21702 0.86734 0.0
C279 C 0.63764 0.12084 0.87982 0.0
C280 C 0.65234 0.17211 0.70445 0.0
N281 N 0.63029 0.16087 0.68938 0.0
C282 C 0.64525 0.09582 0.63559 0.0
C283 C 0.62638 0.12401 0.65522 0.0
C284 C 0.66812 0.10736 0.65048 0.0
C285 C 0.67163 0.14619 0.68504 0.0
H286 H 0.65489 0.20185 0.73145 0.0
H287 H 0.60883 0.11639 0.64301 0.0
C288 C 0.53914 0.19284 0.83646 0.0
N289 N 0.55951 0.17007 0.82151 0.0
C290 C 0.52576 0.16597 0.86961 0.0
C291 C 0.5544 0.09241 0.87062 0.0
C292 C 0.56718 0.12063 0.8375 0.0
C293 C 0.53349 0.11527 0.88737 0.0
H294 H 0.53348 0.23223 0.82304 0.0
H295 H 0.58333 0.10322 0.8248 0.0
C296 C 0.62505 0.28584 0.66807 0.0
N297 N 0.65222 0.2844 0.59024 0.0
C298 C 0.64827 0.30437 0.66956 0.0
C299 C 0.61559 0.26675 0.62704 0.0
C300 C 0.66174 0.30328 0.62981 0.0
C301 C 0.62963 0.2663 0.58806 0.0
C302 C 0.56654 0.33656 0.80188 0.0
C303 C 0.56253 0.38634 0.77904 0.0
C304 C 0.56298 0.3335 0.84894 0.0
C305 C 0.55551 0.43258 0.80385 0.0
C306 C 0.55595 0.38067 0.87253 0.0
N307 N 0.55242 0.42883 0.84969 0.0
C308 C 0.53809 0.29891 0.6567 0.0
C309 C 0.57053 0.3599 0.64991 0.0
C310 C 0.52585 0.32807 0.62318 0.0
N311 N 0.56002 0.31517 0.66904 0.0
C312 C 0.55899 0.39013 0.61633 0.0
C313 C 0.53642 0.3741 0.60235 0.0
H314 H 0.5303 0.26288 0.67244 0.0
H315 H 0.58796 0.37192 0.66068 0.0
C316 C 0.64982 0.30691 0.81776 0.0
N317 N 0.62911 0.3297 0.80454 0.0
C318 C 0.66753 0.33967 0.83618 0.0
C319 C 0.64242 0.4192 0.82692 0.0
C320 C 0.62506 0.38469 0.80898 0.0
C321 C 0.66411 0.39675 0.8401 0.0
H322 H 0.65303 0.26355 0.81216 0.0
H323 H 0.60885 0.40229 0.79681 0.0
O324 O 0.5733 0.1937 0.71333 0.0
O325 O 0.61264 0.20237 0.78653 0.0
O326 O 0.61175 0.28534 0.7068 0.0
O327 O 0.57305 0.29063 0.77801 0.0
H328 H 0.57801 0.09147 0.74393 0.0
H329 H 0.5586 0.1903 0.62787 0.0
H330 H 0.56889 0.00728 0.69929 0.0
H331 H 0.54991 0.10435 0.58512 0.0
H332 H 0.61337 0.22272 0.94051 0.0
H333 H 0.63699 0.11301 0.80665 0.0
H334 H 0.60239 0.25484 0.86301 0.0
H335 H 0.64759 0.08339 0.88514 0.0
H336 H 0.64208 0.06564 0.6091 0.0
H337 H 0.68909 0.15537 0.69762 0.0
H338 H 0.50979 0.18511 0.88179 0.0
H339 H 0.56075 0.05294 0.88278 0.0
H340 H 0.65583 0.31903 0.70118 0.0
H341 H 0.59769 0.25182 0.62548 0.0
H342 H 0.67977 0.31732 0.63043 0.0
H343 H 0.62259 0.25138 0.55612 0.0
H344 H 0.56502 0.38943 0.74265 0.0
H345 H 0.56538 0.29505 0.86709 0.0
H346 H 0.55251 0.47145 0.78663 0.0
H347 H 0.5532 0.37891 0.90897 0.0
H348 H 0.50853 0.31419 0.61305 0.0
H349 H 0.56758 0.42588 0.60166 0.0
H350 H 0.68423 0.32095 0.84471 0.0
H351 H 0.63922 0.46316 0.82902 0.0
C352 C 0.29016 0.96176 0.33943 0.0
C353 C 0.29072 0.90677 0.35391 0.0
C354 C 0.26973 -0.00664 0.34424 0.0
C355 C 0.24966 0.9695 0.36492 0.0
C356 C 0.25092 0.91551 0.38326 0.0
C357 C 0.27137 0.88431 0.37678 0.0
C358 C 0.26903 0.05047 0.32361 0.0
C359 C 0.23019 0.8894 0.40695 0.0
C360 C 0.19951 0.06954 0.38498 0.0
C361 C 0.18594 0.06112 0.34568 0.0
C362 C 0.2197 0.03782 0.39327 0.0
C363 C 0.22666 -0.00214 0.3609 0.0
C364 C 0.2125 0.9879 0.32206 0.0
C365 C 0.19222 0.01939 0.31513 0.0
C366 C 0.23401 0.04853 0.43566 0.0
C367 C 0.21942 0.94603 0.28645 0.0
H368 H 0.30514 0.97876 0.32141 0.0
H369 H 0.27197 0.8417 0.38808 0.0
H370 H 0.25724 0.05035 0.29347 0.0
H371 H 0.26183 0.08054 0.34831 0.0
H372 H 0.28668 0.06482 0.31262 0.0
H373 H 0.23538 0.85224 0.42675 0.0
H374 H 0.22168 0.91927 0.43027 0.0
H375 H 0.21694 0.87686 0.38123 0.0
H376 H 0.19455 0.10159 0.4088 0.0
H377 H 0.18192 0.01329 0.28445 0.0
H378 H 0.25046 0.07035 0.42636 0.0
H379 H 0.23904 0.00908 0.45223 0.0
H380 H 0.22434 0.07424 0.46066 0.0
H381 H 0.23635 0.95829 0.27071 0.0
H382 H 0.20605 0.94203 0.25905 0.0
H383 H 0.222 0.90498 0.3024 0.0
C384 C 0.19958 0.3964 0.11023 0.0
C385 C 0.1826 0.4307 0.12999 0.0
C386 C 0.22263 0.41515 0.10346 0.0
C387 C 0.22873 0.4693 0.11697 0.0
C388 C 0.21116 0.50543 0.13342 0.0
C389 C 0.18828 0.48564 0.13975 0.0
C390 C 0.24078 0.37554 0.08541 0.0
C391 C 0.2169 0.56373 0.14774 0.0
C392 C 0.28774 0.50275 0.16862 0.0
C393 C 0.29787 0.53584 0.13466 0.0
C394 C 0.26586 0.47768 0.16195 0.0
C395 C 0.25375 0.48606 0.12035 0.0
C396 C 0.26463 0.51584 0.08465 0.0
C397 C 0.2866 0.5405 0.09225 0.0
C398 C 0.25494 0.44568 0.20079 0.0
C399 C 0.25244 0.5247 0.03953 0.0
H400 H 0.19532 0.35369 0.10296 0.0
H401 H 0.17507 0.51237 0.15447 0.0
H402 H 0.25285 0.39651 0.06129 0.0
H403 H 0.2515 0.35968 0.11417 0.0
H404 H 0.23253 0.33978 0.06794 0.0
H405 H 0.20088 0.58819 0.15514 0.0
H406 H 0.22798 0.56277 0.17888 0.0
H407 H 0.22707 0.58512 0.12075 0.0
H408 H 0.29616 0.49933 0.20164 0.0
H409 H 0.29454 0.56528 0.06559 0.0
H410 H 0.24829 0.40527 0.18865 0.0
H411 H 0.23974 0.46895 0.21446 0.0
H412 H 0.26756 0.43833 0.22905 0.0
H413 H 0.24426 0.48585 0.02738 0.0
H414 H 0.26471 0.54017 0.01301 0.0
H415 H 0.23819 0.55541 0.04382 0.0
C416 C 0.69149 0.02161 0.64684 0.0
C417 C 0.68846 0.07645 0.63337 0.0
C418 C 0.71323 -0.00452 0.64142 0.0
C419 C 0.73211 0.02488 0.62132 0.0
C420 C 0.72834 0.0785 0.60361 0.0
C421 C 0.70658 0.10414 0.6106 0.0
C422 C 0.71657 0.9384 0.66109 0.0
C423 C 0.74774 0.11037 0.58047 0.0
C424 C 0.79065 0.98773 0.67359 0.0
C425 C 0.79881 0.94749 0.64337 0.0
C426 C 0.76949 0.01539 0.66542 0.0
C427 C 0.75632 0.00289 0.62576 0.0
C428 C 0.76533 0.96529 0.59342 0.0
C429 C 0.78642 0.93756 0.60283 0.0
C430 C 0.76048 0.05522 0.70084 0.0
C431 C 0.75215 0.95211 0.55014 0.0
H432 H 0.67742 0.00066 0.6648 0.0
H433 H 0.70406 0.14671 0.60025 0.0
H434 H 0.72522 0.91105 0.63599 0.0
H435 H 0.72818 0.94082 0.69143 0.0
H436 H 0.69967 0.91926 0.67154 0.0
H437 H 0.74076 0.14558 0.5603 0.0
H438 H 0.75994 0.12694 0.60658 0.0
H439 H 0.75803 0.0832 0.5576 0.0
H440 H 0.80006 -0.00487 0.70514 0.0
H441 H 0.79287 0.90685 0.57915 0.0
H442 H 0.74415 0.03861 0.71628 0.0
H443 H 0.75607 0.09537 0.68484 0.0
H444 H 0.77345 0.06262 0.72848 0.0
H445 H 0.73712 0.92463 0.55814 0.0
H446 H 0.76349 0.93095 0.52486 0.0
H447 H 0.74495 0.99021 0.53446 0.0
C448 C 0.77896 0.58595 0.8754 0.0
C449 C 0.79482 0.56226 0.84482 0.0
C450 C 0.7573 0.56046 0.88437 0.0
C451 C 0.75155 0.51064 0.8618 0.0
C452 C 0.76831 0.48497 0.83319 0.0
C453 C 0.78977 0.51135 0.82489 0.0
C454 C 0.74 0.58877 0.91538 0.0
C455 C 0.76292 0.43172 0.80864 0.0
C456 C 0.69951 0.41843 0.88763 0.0
C457 C 0.68423 0.43275 0.85201 0.0
C458 C 0.72091 0.44631 0.89361 0.0
C459 C 0.72719 0.48881 0.86282 0.0
C460 C 0.71109 0.50584 0.82878 0.0
C461 C 0.68975 0.4777 0.82391 0.0
C462 C 0.73739 0.42789 0.93094 0.0
C463 C 0.71714 0.55098 0.79519 0.0
H464 H 0.78298 0.62579 0.89028 0.0
H465 H 0.80213 0.49366 0.80095 0.0
H466 H 0.72605 0.60844 0.89454 0.0
H467 H 0.73137 0.55851 0.93833 0.0
H468 H 0.74855 0.62121 0.93636 0.0
H469 H 0.77859 0.41466 0.79114 0.0
H470 H 0.75618 0.40034 0.83288 0.0
H471 H 0.74902 0.43904 0.78279 0.0
H472 H 0.69512 0.38405 0.90974 0.0
H473 H 0.6781 0.48857 0.79608 0.0
H474 H 0.74527 0.46398 0.94845 0.0
H475 H 0.75195 0.40371 0.91587 0.0
H476 H 0.72836 0.40164 0.95661 0.0
H477 H 0.72353 0.5882 0.81331 0.0
H478 H 0.70188 0.56276 0.77365 0.0
H479 H 0.73149 0.53677 0.77254 0.0
C480 C 0.00604 0.07456 0.05973 0.0
C481 C 0.02988 0.06795 0.07047 0.0
C482 C -0.00498 0.04058 0.02756 0.0
C483 C 0.00802 -0.00184 0.00627 0.0
C484 C 0.03206 0.9911 0.01685 0.0
C485 C 0.04276 0.02641 0.04851 0.0
C486 C 0.96939 0.04979 0.01667 0.0
C487 C 0.04639 0.9459 -0.00488 0.0
C488 C 0.97087 0.88124 0.96007 0.0
C489 C 0.96976 0.89465 0.9137 0.0
C490 C 0.98417 0.91329 0.99031 0.0
C491 C -0.00384 0.96045 0.97378 0.0
C492 C -0.00445 0.97334 0.92671 0.0
C493 C 0.98248 0.93987 0.89709 0.0
C494 C 0.98484 0.89759 0.04012 0.0
C495 C 0.00779 0.02379 0.90798 0.0
H496 H -0.00419 0.10584 0.07696 0.0
H497 H 0.06129 0.0216 0.05586 0.0
H498 H 0.96701 0.05544 0.97942 0.0
H499 H 0.95901 0.01302 0.02683 0.0
H500 H 0.96213 0.08643 0.03441 0.0
H501 H 0.06494 0.94615 0.00685 0.0
H502 H 0.03856 0.90512 0.00327 0.0
H503 H 0.04613 0.95041 0.9575 0.0
H504 H 0.96112 0.84592 0.97269 0.0
H505 H 0.98141 0.95034 0.8612 0.0
H506 H 0.97579 0.92957 0.06056 0.0
H507 H 0.00327 0.89554 0.05229 0.0
H508 H 0.97624 0.85719 0.04673 0.0
H509 H -0.00049 0.06147 0.92209 0.0
H510 H 0.00692 0.02589 0.87019 0.0
H511 H 0.02649 0.02424 0.91856 0.0
C512 C 0.53143 0.06077 0.95972 0.0
C513 C 0.51985 0.08592 0.92295 0.0
C514 C 0.51896 0.03014 0.99225 0.0
C515 C 0.49433 0.02467 0.98791 0.0
C516 C 0.48244 0.05133 0.95167 0.0
C517 C 0.49536 0.08164 0.91955 0.0
C518 C 0.53222 0.0025 0.03059 0.0
C519 C 0.45615 0.04659 0.94612 0.0
C520 C 0.46516 0.89879 0.03978 0.0
C521 C 0.45574 0.9203 0.08014 0.0
C522 C 0.47794 0.93227 0.00972 0.0
C523 C 0.48114 0.98881 0.01996 0.0
C524 C 0.47171 0.0109 0.06057 0.0
C525 C 0.45924 0.97629 0.09032 0.0
C526 C 0.48791 0.9072 0.96682 0.0
C527 C 0.47473 0.07107 0.0725 0.0
H528 H 0.55031 0.06484 0.96294 0.0
H529 H 0.48636 0.10066 0.89101 0.0
H530 H 0.5247 0.01461 0.06395 0.0
H531 H 0.53042 0.95705 0.02771 0.0
H532 H 0.5512 0.01314 0.0304 0.0
H533 H 0.44943 0.07254 0.91772 0.0
H534 H 0.45131 0.00301 0.93934 0.0
H535 H 0.4472 0.05898 0.97804 0.0
H536 H 0.46224 0.85584 0.03126 0.0
H537 H 0.45237 -0.00692 0.12179 0.0
H538 H 0.50719 0.9136 0.96571 0.0
H539 H 0.48034 0.92797 0.93646 0.0
H540 H 0.48426 0.86226 0.96435 0.0
H541 H 0.49367 0.08144 0.07478 0.0
H542 H 0.46622 0.08181 0.10534 0.0
H543 H 0.46708 0.09726 0.04522 0.0
C544 C 0.985 0.58043 0.57495 0.0
C545 C 0.96049 0.58449 0.57324 0.0
C546 C -0.00289 0.54619 0.5446 0.0
C547 C 0.98431 0.51496 0.51225 0.0
C548 C 0.95953 0.51833 0.51087 0.0
C549 C 0.9479 0.55336 0.54128 0.0
C550 C 0.02358 0.54396 0.54671 0.0
C551 C 0.9453 0.48513 0.47717 0.0
C552 C 0.01588 0.46958 0.40529 0.0
C553 C 0.02123 0.4145 0.41554 0.0
C554 C 0.00379 0.50266 0.43646 0.0
C555 C -0.00309 0.48005 0.47888 0.0
C556 C 0.00209 0.42435 0.48935 0.0
C557 C 0.01418 0.39213 0.45744 0.0
C558 C -0.00157 0.56183 0.42405 0.0
C559 C -0.00498 0.39899 0.53434 0.0
H560 H -0.00529 0.60478 0.59957 0.0
H561 H 0.9289 0.55595 0.54047 0.0
H562 H 0.02948 0.50083 0.55207 0.0
H563 H 0.03109 0.55816 0.51383 0.0
H564 H 0.03085 0.57 0.57448 0.0
H565 H 0.92611 0.4914 0.4814 0.0
H566 H 0.95023 0.49685 0.44188 0.0
H567 H 0.9492 0.44056 0.48123 0.0
H568 H 0.02103 0.48672 0.37264 0.0
H569 H 0.0185 0.3497 0.4656 0.0
H570 H 0.00656 0.59003 0.44931 0.0
H571 H 0.9792 0.56892 0.42503 0.0
H572 H 0.00498 0.573 0.38959 0.0
H573 H 0.00348 0.42172 0.56275 0.0
H574 H 1e-05 0.3548 0.53684 0.0
H575 H 0.97576 0.40248 0.53905 0.0
C576 C 0.4642 0.5092 0.39674 0.0
C577 C 0.46376 0.5668 0.40086 0.0
C578 C 0.47679 0.47664 0.42776 0.0
C579 C 0.48909 0.50239 0.46385 0.0
C580 C 0.48919 0.56062 0.46753 0.0
C581 C 0.47656 0.5922 0.43583 0.0
C582 C 0.47653 0.41467 0.42246 0.0
C583 C 0.50209 0.58944 0.50567 0.0
C584 C 0.50036 0.41935 0.57124 0.0
C585 C 0.52408 0.40548 0.56621 0.0
C586 C 0.48872 0.45067 0.53798 0.0
C587 C 0.50112 0.46831 0.49878 0.0
C588 C 0.52499 0.45382 0.4932 0.0
C589 C 0.5362 0.42256 0.52704 0.0
C590 C 0.46324 0.46549 0.54506 0.0
C591 C 0.5387 0.47156 0.45165 0.0
H592 H 0.45457 0.48958 0.36929 0.0
H593 H 0.47608 0.63671 0.43926 0.0
H594 H 0.49475 0.39863 0.42119 0.0
H595 H 0.46788 0.39547 0.45241 0.0
H596 H 0.46712 0.40136 0.39118 0.0
H597 H 0.50122 0.63508 0.5026 0.0
H598 H 0.49443 0.57715 0.53893 0.0
H599 H 0.5208 0.57679 0.50603 0.0
H600 H 0.49101 0.40669 0.60168 0.0
H601 H 0.55446 0.4112 0.52275 0.0
H602 H 0.45252 0.45021 0.51611 0.0
H603 H 0.46127 0.51101 0.54604 0.0
H604 H 0.45606 0.44794 0.57716 0.0
H605 H 0.52991 0.45639 0.42031 0.0
H606 H 0.55703 0.45597 0.45214 0.0
H607 H 0.53917 0.51725 0.44951 0.0
loop_
_geom_bond_atom_site_label_1
_geom_bond_atom_site_label_2
_geom_bond_distance
_geom_bond_site_symmetry_2
_ccdc_geom_bond_type
Li0 N17 1.990 . S
Li0 O60 1.956 . S
Li0 O61 1.970 . S
Li0 O62 1.961 . S
Li1 N25 1.990 . S
Li1 O60 1.970 . S
Li1 O61 1.956 . S
Li1 O63 1.961 . S
Li2 N47 1.990 . S
Li2 O60 1.961 . S
Li2 O62 1.956 . S
Li2 O63 1.970 . S
Li3 N53 1.990 . S
Li3 O61 1.961 . S
Li3 O62 1.970 . S
Li3 O63 1.956 . S
C4 C6 1.348 . S
C4 C7 1.356 . S
C4 O60 1.325 . S
N5 C8 1.314 . S
N5 C9 1.279 . S
C6 C4 1.348 . S
C6 C8 1.353 . S
C6 H64 0.929 . S
C7 C4 1.356 . S
C7 C9 1.358 . S
C7 H65 0.930 . S
C8 N5 1.314 . S
C8 C6 1.353 . S
C8 H66 0.930 . S
C9 N5 1.279 . S
C9 C7 1.358 . S
C9 H67 0.930 . S
C10 C13 1.348 . S
C10 C14 1.356 . S
C10 O61 1.325 . S
C11 N12 1.279 . S
C11 C14 1.358 . S
C11 H68 0.930 . S
N12 C11 1.279 . S
N12 C15 1.314 . S
C13 C10 1.348 . S
C13 C15 1.353 . S
C13 H69 0.929 . S
C14 C10 1.356 . S
C14 C11 1.358 . S
C14 H70 0.930 . S
C15 N12 1.314 . S
C15 C13 1.353 . S
C15 H71 0.930 . S
C16 N17 1.314 . S
C16 C21 1.353 . S
C16 H22 0.930 . S
N17 Li0 1.990 . S
N17 C16 1.314 . S
N17 C19 1.279 . S
C18 C19 1.358 . S
C18 C20 1.356 . S
C18 H72 0.930 . S
C19 N17 1.279 . S
C19 C18 1.358 . S
C19 H23 0.930 . S
C20 C18 1.356 . S
C20 C21 1.348 . S
C21 C16 1.353 . S
C21 C20 1.348 . S
C21 H73 0.929 . S
H22 C16 0.930 . S
H23 C19 0.930 . S
C24 N25 1.314 . S
C24 C26 1.353 . S
C24 H30 0.930 . S
N25 Li1 1.990 . S
N25 C24 1.314 . S
N25 C28 1.279 . S
C26 C24 1.353 . S
C26 C29 1.348 . S
C26 H74 0.929 . S
C27 C28 1.358 . S
C27 C29 1.356 . S
C27 H75 0.930 . S
C28 N25 1.279 . S
C28 C27 1.358 . S
C28 H31 0.930 . S
C29 C26 1.348 . S
C29 C27 1.356 . S
H30 C24 0.930 . S
H31 C28 0.930 . S
C32 C34 1.348 . S
C32 C35 1.356 . S
C32 O62 1.325 . S
N33 C36 1.314 . S
N33 C37 1.279 . S
C34 C32 1.348 . S
C34 C36 1.353 . S
C34 H76 0.929 . S
C35 C32 1.356 . S
C35 C37 1.358 . S
C35 H77 0.930 . S
C36 N33 1.314 . S
C36 C34 1.353 . S
C36 H78 0.930 . S
C37 N33 1.279 . S
C37 C35 1.358 . S
C37 H79 0.930 . S
C38 C39 1.348 . S
C38 C40 1.356 . S
C38 O63 1.325 . S
C39 C38 1.348 . S
C39 C41 1.353 . S
C39 H80 0.929 . S
C40 C38 1.356 . S
C40 C42 1.358 . S
C40 H81 0.930 . S
C41 C39 1.353 . S
C41 N43 1.314 . S
C41 H82 0.930 . S
C42 C40 1.358 . S
C42 N43 1.279 . S
C42 H83 0.930 . S
N43 C41 1.314 . S
N43 C42 1.279 . S
C44 C46 1.353 . S
C44 N47 1.314 . S
C44 H50 0.930 . S
C45 N47 1.279 . S
C45 C48 1.358 . S
C45 H51 0.930 . S
C46 C44 1.353 . S
C46 C49 1.348 . S
C46 H84 0.929 . S
N47 Li2 1.990 . S
N47 C44 1.314 . S
N47 C45 1.279 . S
C48 C45 1.358 . S
C48 C49 1.356 . S
C48 H85 0.930 . S
C49 C46 1.348 . S
C49 C48 1.356 . S
H50 C44 0.930 . S
H51 C45 0.930 . S
C52 N53 1.314 . S
C52 C54 1.353 . S
C52 H58 0.930 . S
N53 Li3 1.990 . S
N53 C52 1.314 . S
N53 C56 1.279 . S
C54 C52 1.353 . S
C54 C57 1.348 . S
C54 H86 0.929 . S
C55 C56 1.358 . S
C55 C57 1.356 . S
C55 H87 0.930 . S
C56 N53 1.279 . S
C56 C55 1.358 . S
C56 H59 0.930 . S
C57 C54 1.348 . S
C57 C55 1.356 . S
H58 C52 0.930 . S
H59 C56 0.930 . S
O60 Li0 1.956 . S
O60 Li1 1.970 . S
O60 Li2 1.961 . S
O60 C4 1.325 . S
O61 Li0 1.970 . S
O61 Li1 1.956 . S
O61 Li3 1.961 . S
O61 C10 1.325 . S
O62 Li0 1.961 . S
O62 Li2 1.956 . S
O62 Li3 1.970 . S
O62 C32 1.325 . S
O63 Li1 1.961 . S
O63 Li2 1.970 . S
O63 Li3 1.956 . S
O63 C38 1.325 . S
H64 C6 0.929 . S
H65 C7 0.930 . S
H66 C8 0.930 . S
H67 C9 0.930 . S
H68 C11 0.930 . S
H69 C13 0.929 . S
H70 C14 0.930 . S
H71 C15 0.930 . S
H72 C18 0.930 . S
H73 C21 0.929 . S
H74 C26 0.929 . S
H75 C27 0.930 . S
H76 C34 0.929 . S
H77 C35 0.930 . S
H78 C36 0.930 . S
H79 C37 0.930 . S
H80 C39 0.929 . S
H81 C40 0.930 . S
H82 C41 0.930 . S
H83 C42 0.930 . S
H84 C46 0.929 . S
H85 C48 0.930 . S
H86 C54 0.929 . S
H87 C55 0.930 . S
Li88 N105 1.990 . S
Li88 O148 1.956 . S
Li88 O149 1.970 . S
Li88 O150 1.961 . S
Li89 N113 1.990 . S
Li89 O148 1.970 . S
Li89 O149 1.956 . S
Li89 O151 1.961 . S
Li90 N135 1.990 . S
Li90 O148 1.961 . S
Li90 O150 1.956 . S
Li90 O151 1.970 . S
Li91 N141 1.990 . S
Li91 O149 1.961 . S
Li91 O150 1.970 . S
Li91 O151 1.956 . S
C92 C94 1.348 . S
C92 C95 1.356 . S
C92 O148 1.325 . S
N93 C96 1.314 . S
N93 C97 1.279 . S
C94 C92 1.348 . S
C94 C96 1.353 . S
C94 H152 0.929 . S
C95 C92 1.356 . S
C95 C97 1.358 . S
C95 H153 0.930 . S
C96 N93 1.314 . S
C96 C94 1.353 . S
C96 H154 0.930 . S
C97 N93 1.279 . S
C97 C95 1.358 . S
C97 H155 0.930 . S
C98 C101 1.348 . S
C98 C102 1.356 . S
C98 O149 1.325 . S
C99 N100 1.279 . S
C99 C102 1.358 . S
C99 H156 0.930 . S
N100 C99 1.279 . S
N100 C103 1.314 . S
C101 C98 1.348 . S
C101 C103 1.353 . S
C101 H157 0.929 . S
C102 C98 1.356 . S
C102 C99 1.358 . S
C102 H158 0.930 . S
C103 N100 1.314 . S
C103 C101 1.353 . S
C103 H159 0.930 . S
C104 N105 1.314 . S
C104 C109 1.353 . S
C104 H110 0.930 . S
N105 Li88 1.990 . S
N105 C104 1.314 . S
N105 C107 1.279 . S
C106 C107 1.358 . S
C106 C108 1.356 . S
C106 H160 0.930 . S
C107 N105 1.279 . S
C107 C106 1.358 . S
C107 H111 0.930 . S
C108 C106 1.356 . S
C108 C109 1.348 . S
C109 C104 1.353 . S
C109 C108 1.348 . S
C109 H161 0.929 . S
H110 C104 0.930 . S
H111 C107 0.930 . S
C112 N113 1.314 . S
C112 C114 1.353 . S
C112 H118 0.930 . S
N113 Li89 1.990 . S
N113 C112 1.314 . S
N113 C116 1.279 . S
C114 C112 1.353 . S
C114 C117 1.348 . S
C114 H162 0.929 . S
C115 C116 1.358 . S
C115 C117 1.356 . S
C115 H163 0.930 . S
C116 N113 1.279 . S
C116 C115 1.358 . S
C116 H119 0.930 . S
C117 C114 1.348 . S
C117 C115 1.356 . S
H118 C112 0.930 . S
H119 C116 0.930 . S
C120 C122 1.348 . S
C120 C123 1.356 . S
C120 O150 1.325 . S
N121 C124 1.314 . S
N121 C125 1.279 . S
C122 C120 1.348 . S
C122 C124 1.353 . S
C122 H164 0.929 . S
C123 C120 1.356 . S
C123 C125 1.358 . S
C123 H165 0.930 . S
C124 N121 1.314 . S
C124 C122 1.353 . S
C124 H166 0.930 . S
C125 N121 1.279 . S
C125 C123 1.358 . S
C125 H167 0.930 . S
C126 C127 1.348 . S
C126 C128 1.356 . S
C126 O151 1.325 . S
C127 C126 1.348 . S
C127 C129 1.353 . S
C127 H168 0.929 . S
C128 C126 1.356 . S
C128 C130 1.358 . S
C128 H169 0.930 . S
C129 C127 1.353 . S
C129 N131 1.314 . S
C129 H170 0.930 . S
C130 C128 1.358 . S
C130 N131 1.279 . S
C130 H171 0.930 . S
N131 C129 1.314 . S
N131 C130 1.279 . S
C132 C134 1.353 . S
C132 N135 1.314 . S
C132 H138 0.930 . S
C133 N135 1.279 . S
C133 C136 1.358 . S
C133 H139 0.930 . S
C134 C132 1.353 . S
C134 C137 1.348 . S
C134 H172 0.929 . S
N135 Li90 1.990 . S
N135 C132 1.314 . S
N135 C133 1.279 . S
C136 C133 1.358 . S
C136 C137 1.356 . S
C136 H173 0.930 . S
C137 C134 1.348 . S
C137 C136 1.356 . S
H138 C132 0.930 . S
H139 C133 0.930 . S
C140 N141 1.314 . S
C140 C142 1.353 . S
C140 H146 0.930 . S
N141 Li91 1.990 . S
N141 C140 1.314 . S
N141 C144 1.279 . S
C142 C140 1.353 . S
C142 C145 1.348 . S
C142 H174 0.929 . S
C143 C144 1.358 . S
C143 C145 1.356 . S
C143 H175 0.930 . S
C144 N141 1.279 . S
C144 C143 1.358 . S
C144 H147 0.930 . S
C145 C142 1.348 . S
C145 C143 1.356 . S
H146 C140 0.930 . S
H147 C144 0.930 . S
O148 Li88 1.956 . S
O148 Li89 1.970 . S
O148 Li90 1.961 . S
O148 C92 1.325 . S
O149 Li88 1.970 . S
O149 Li89 1.956 . S
O149 Li91 1.961 . S
O149 C98 1.325 . S
O150 Li88 1.961 . S
O150 Li90 1.956 . S
O150 Li91 1.970 . S
O150 C120 1.325 . S
O151 Li89 1.961 . S
O151 Li90 1.970 . S
O151 Li91 1.956 . S
O151 C126 1.325 . S
H152 C94 0.929 . S
H153 C95 0.930 . S
H154 C96 0.930 . S
H155 C97 0.930 . S
H156 C99 0.930 . S
H157 C101 0.929 . S
H158 C102 0.930 . S
H159 C103 0.930 . S
H160 C106 0.930 . S
H161 C109 0.929 . S
H162 C114 0.929 . S
H163 C115 0.930 . S
H164 C122 0.929 . S
H165 C123 0.930 . S
H166 C124 0.930 . S
H167 C125 0.930 . S
H168 C127 0.929 . S
H169 C128 0.930 . S
H170 C129 0.930 . S
H171 C130 0.930 . S
H172 C134 0.929 . S
H173 C136 0.930 . S
H174 C142 0.929 . S
H175 C143 0.930 . S
Li176 N193 1.990 . S
Li176 O236 1.956 . S
Li176 O237 1.970 . S
Li176 O238 1.961 . S
Li177 N201 1.990 . S
Li177 O236 1.970 . S
Li177 O237 1.956 . S
Li177 O239 1.961 . S
Li178 N223 1.990 . S
Li178 O236 1.961 . S
Li178 O238 1.956 . S
Li178 O239 1.970 . S
Li179 N229 1.990 . S
Li179 O237 1.961 . S
Li179 O238 1.970 . S
Li179 O239 1.956 . S
C180 C182 1.348 . S
C180 C183 1.356 . S
C180 O236 1.325 . S
N181 C184 1.314 . S
N181 C185 1.279 . S
C182 C180 1.348 . S
C182 C184 1.353 . S
C182 H240 0.929 . S
C183 C180 1.356 . S
C183 C185 1.358 . S
C183 H241 0.930 . S
C184 N181 1.314 . S
C184 C182 1.353 . S
C184 H242 0.930 . S
C185 N181 1.279 . S
C185 C183 1.358 . S
C185 H243 0.930 . S
C186 C189 1.348 . S
C186 C190 1.356 . S
C186 O237 1.325 . S
C187 N188 1.279 . S
C187 C190 1.358 . S
C187 H244 0.930 . S
N188 C187 1.279 . S
N188 C191 1.314 . S
C189 C186 1.348 . S
C189 C191 1.353 . S
C189 H245 0.929 . S
C190 C186 1.356 . S
C190 C187 1.358 . S
C190 H246 0.930 . S
C191 N188 1.314 . S
C191 C189 1.353 . S
C191 H247 0.930 . S
C192 N193 1.314 . S
C192 C197 1.353 . S
C192 H198 0.930 . S
N193 Li176 1.990 . S
N193 C192 1.314 . S
N193 C195 1.279 . S
C194 C195 1.358 . S
C194 C196 1.356 . S
C194 H248 0.930 . S
C195 N193 1.279 . S
C195 C194 1.358 . S
C195 H199 0.930 . S
C196 C194 1.356 . S
C196 C197 1.348 . S
C197 C192 1.353 . S
C197 C196 1.348 . S
C197 H249 0.929 . S
H198 C192 0.930 . S
H199 C195 0.930 . S
C200 N201 1.314 . S
C200 C202 1.353 . S
C200 H206 0.930 . S
N201 Li177 1.990 . S
N201 C200 1.314 . S
N201 C204 1.279 . S
C202 C200 1.353 . S
C202 C205 1.348 . S
C202 H250 0.929 . S
C203 C204 1.358 . S
C203 C205 1.356 . S
C203 H251 0.930 . S
C204 N201 1.279 . S
C204 C203 1.358 . S
C204 H207 0.930 . S
C205 C202 1.348 . S
C205 C203 1.356 . S
H206 C200 0.930 . S
H207 C204 0.930 . S
C208 C210 1.348 . S
C208 C211 1.356 . S
C208 O238 1.325 . S
N209 C212 1.314 . S
N209 C213 1.279 . S
C210 C208 1.348 . S
C210 C212 1.353 . S
C210 H252 0.929 . S
C211 C208 1.356 . S
C211 C213 1.358 . S
C211 H253 0.930 . S
C212 N209 1.314 . S
C212 C210 1.353 . S
C212 H254 0.930 . S
C213 N209 1.279 . S
C213 C211 1.358 . S
C213 H255 0.930 . S
C214 C215 1.348 . S
C214 C216 1.356 . S
C214 O239 1.325 . S
C215 C214 1.348 . S
C215 C217 1.353 . S
C215 H256 0.929 . S
C216 C214 1.356 . S
C216 C218 1.358 . S
C216 H257 0.930 . S
C217 C215 1.353 . S
C217 N219 1.314 . S
C217 H258 0.930 . S
C218 C216 1.358 . S
C218 N219 1.279 . S
C218 H259 0.930 . S
N219 C217 1.314 . S
N219 C218 1.279 . S
C220 C222 1.353 . S
C220 N223 1.314 . S
C220 H226 0.930 . S
C221 N223 1.279 . S
C221 C224 1.358 . S
C221 H227 0.930 . S
C222 C220 1.353 . S
C222 C225 1.348 . S
C222 H260 0.929 . S
N223 Li178 1.990 . S
N223 C220 1.314 . S
N223 C221 1.279 . S
C224 C221 1.358 . S
C224 C225 1.356 . S
C224 H261 0.930 . S
C225 C222 1.348 . S
C225 C224 1.356 . S
H226 C220 0.930 . S
H227 C221 0.930 . S
C228 N229 1.314 . S
C228 C230 1.353 . S
C228 H234 0.930 . S
N229 Li179 1.990 . S
N229 C228 1.314 . S
N229 C232 1.279 . S
C230 C228 1.353 . S
C230 C233 1.348 . S
C230 H262 0.929 . S
C231 C232 1.358 . S
C231 C233 1.356 . S
C231 H263 0.930 . S
C232 N229 1.279 . S
C232 C231 1.358 . S
C232 H235 0.930 . S
C233 C230 1.348 . S
C233 C231 1.356 . S
H234 C228 0.930 . S
H235 C232 0.930 . S
O236 Li176 1.956 . S
O236 Li177 1.970 . S
O236 Li178 1.961 . S
O236 C180 1.325 . S
O237 Li176 1.970 . S
O237 Li177 1.956 . S
O237 Li179 1.961 . S
O237 C186 1.325 . S
O238 Li176 1.961 . S
O238 Li178 1.956 . S
O238 Li179 1.970 . S
O238 C208 1.325 . S
O239 Li177 1.961 . S
O239 Li178 1.970 . S
O239 Li179 1.956 . S
O239 C214 1.325 . S
H240 C182 0.929 . S
H241 C183 0.930 . S
H242 C184 0.930 . S
H243 C185 0.930 . S
H244 C187 0.930 . S
H245 C189 0.929 . S
H246 C190 0.930 . S
H247 C191 0.930 . S
H248 C194 0.930 . S
H249 C197 0.929 . S
H250 C202 0.929 . S
H251 C203 0.930 . S
H252 C210 0.929 . S
H253 C211 0.930 . S
H254 C212 0.930 . S
H255 C213 0.930 . S
H256 C215 0.929 . S
H257 C216 0.930 . S
H258 C217 0.930 . S
H259 C218 0.930 . S
H260 C222 0.929 . S
H261 C224 0.930 . S
H262 C230 0.929 . S
H263 C231 0.930 . S
Li264 N281 1.990 . S
Li264 O324 1.956 . S
Li264 O325 1.970 . S
Li264 O326 1.961 . S
Li265 N289 1.990 . S
Li265 O324 1.970 . S
Li265 O325 1.956 . S
Li265 O327 1.961 . S
Li266 N311 1.990 . S
Li266 O324 1.961 . S
Li266 O326 1.956 . S
Li266 O327 1.970 . S
Li267 N317 1.990 . S
Li267 O325 1.961 . S
Li267 O326 1.970 . S
Li267 O327 1.956 . S
C268 C270 1.348 . S
C268 C271 1.356 . S
C268 O324 1.325 . S
N269 C272 1.314 . S
N269 C273 1.279 . S
C270 C268 1.348 . S
C270 C272 1.353 . S
C270 H328 0.929 . S
C271 C268 1.356 . S
C271 C273 1.358 . S
C271 H329 0.930 . S
C272 N269 1.314 . S
C272 C270 1.353 . S
C272 H330 0.930 . S
C273 N269 1.279 . S
C273 C271 1.358 . S
C273 H331 0.930 . S
C274 C277 1.348 . S
C274 C278 1.356 . S
C274 O325 1.325 . S
C275 N276 1.279 . S
C275 C278 1.358 . S
C275 H332 0.930 . S
N276 C275 1.279 . S
N276 C279 1.314 . S
C277 C274 1.348 . S
C277 C279 1.353 . S
C277 H333 0.929 . S
C278 C274 1.356 . S
C278 C275 1.358 . S
C278 H334 0.930 . S
C279 N276 1.314 . S
C279 C277 1.353 . S
C279 H335 0.930 . S
C280 N281 1.314 . S
C280 C285 1.353 . S
C280 H286 0.930 . S
N281 Li264 1.990 . S
N281 C280 1.314 . S
N281 C283 1.279 . S
C282 C283 1.358 . S
C282 C284 1.356 . S
C282 H336 0.930 . S
C283 N281 1.279 . S
C283 C282 1.358 . S
C283 H287 0.930 . S
C284 C282 1.356 . S
C284 C285 1.348 . S
C285 C280 1.353 . S
C285 C284 1.348 . S
C285 H337 0.929 . S
H286 C280 0.930 . S
H287 C283 0.930 . S
C288 N289 1.314 . S
C288 C290 1.353 . S
C288 H294 0.930 . S
N289 Li265 1.990 . S
N289 C288 1.314 . S
N289 C292 1.279 . S
C290 C288 1.353 . S
C290 C293 1.348 . S
C290 H338 0.929 . S
C291 C292 1.358 . S
C291 C293 1.356 . S
C291 H339 0.930 . S
C292 N289 1.279 . S
C292 C291 1.358 . S
C292 H295 0.930 . S
C293 C290 1.348 . S
C293 C291 1.356 . S
H294 C288 0.930 . S
H295 C292 0.930 . S
C296 C298 1.348 . S
C296 C299 1.356 . S
C296 O326 1.325 . S
N297 C300 1.314 . S
N297 C301 1.279 . S
C298 C296 1.348 . S
C298 C300 1.353 . S
C298 H340 0.929 . S
C299 C296 1.356 . S
C299 C301 1.358 . S
C299 H341 0.930 . S
C300 N297 1.314 . S
C300 C298 1.353 . S
C300 H342 0.930 . S
C301 N297 1.279 . S
C301 C299 1.358 . S
C301 H343 0.930 . S
C302 C303 1.348 . S
C302 C304 1.356 . S
C302 O327 1.325 . S
C303 C302 1.348 . S
C303 C305 1.353 . S
C303 H344 0.929 . S
C304 C302 1.356 . S
C304 C306 1.358 . S
C304 H345 0.930 . S
C305 C303 1.353 . S
C305 N307 1.314 . S
C305 H346 0.930 . S
C306 C304 1.358 . S
C306 N307 1.279 . S
C306 H347 0.930 . S
N307 C305 1.314 . S
N307 C306 1.279 . S
C308 C310 1.353 . S
C308 N311 1.314 . S
C308 H314 0.930 . S
C309 N311 1.279 . S
C309 C312 1.358 . S
C309 H315 0.930 . S
C310 C308 1.353 . S
C310 C313 1.348 . S
C310 H348 0.929 . S
N311 Li266 1.990 . S
N311 C308 1.314 . S
N311 C309 1.279 . S
C312 C309 1.358 . S
C312 C313 1.356 . S
C312 H349 0.930 . S
C313 C310 1.348 . S
C313 C312 1.356 . S
H314 C308 0.930 . S
H315 C309 0.930 . S
C316 N317 1.314 . S
C316 C318 1.353 . S
C316 H322 0.930 . S
N317 Li267 1.990 . S
N317 C316 1.314 . S
N317 C320 1.279 . S
C318 C316 1.353 . S
C318 C321 1.348 . S
C318 H350 0.929 . S
C319 C320 1.358 . S
C319 C321 1.356 . S
C319 H351 0.930 . S
C320 N317 1.279 . S
C320 C319 1.358 . S
C320 H323 0.930 . S
C321 C318 1.348 . S
C321 C319 1.356 . S
H322 C316 0.930 . S
H323 C320 0.930 . S
O324 Li264 1.956 . S
O324 Li265 1.970 . S
O324 Li266 1.961 . S
O324 C268 1.325 . S
O325 Li264 1.970 . S
O325 Li265 1.956 . S
O325 Li267 1.961 . S
O325 C274 1.325 . S
O326 Li264 1.961 . S
O326 Li266 1.956 . S
O326 Li267 1.970 . S
O326 C296 1.325 . S
O327 Li265 1.961 . S
O327 Li266 1.970 . S
O327 Li267 1.956 . S
O327 C302 1.325 . S
H328 C270 0.929 . S
H329 C271 0.930 . S
H330 C272 0.930 . S
H331 C273 0.930 . S
H332 C275 0.930 . S
H333 C277 0.929 . S
H334 C278 0.930 . S
H335 C279 0.930 . S
H336 C282 0.930 . S
H337 C285 0.929 . S
H338 C290 0.929 . S
H339 C291 0.930 . S
H340 C298 0.929 . S
H341 C299 0.930 . S
H342 C300 0.930 . S
H343 C301 0.930 . S
H344 C303 0.929 . S
H345 C304 0.930 . S
H346 C305 0.930 . S
H347 C306 0.930 . S
H348 C310 0.929 . S
H349 C312 0.930 . S
H350 C318 0.929 . S
H351 C319 0.930 . S
C352 C353 1.391 1_545 S
C352 C354 1.394 . S
C352 H368 0.931 . S
C353 C352 1.391 1_565 S
C353 C357 1.376 . S
C354 C352 1.394 . S
C354 C355 1.369 1_545 S
C354 C358 1.531 . S
C355 C354 1.369 1_565 S
C355 C356 1.410 . S
C355 C363 1.504 . S
C356 C355 1.410 . S
C356 C357 1.392 . S
C356 C359 1.511 . S
C357 C353 1.376 . S
C357 C356 1.392 . S
C357 H369 0.929 . S
C358 C354 1.531 . S
C358 H370 0.960 . S
C358 H371 0.962 . S
C358 H372 0.960 . S
C359 C356 1.511 . S
C359 H373 0.961 . S
C359 H374 0.961 . S
C359 H375 0.961 . S
C360 C361 1.370 . S
C360 C362 1.363 . S
C360 H376 0.931 . S
C361 C360 1.370 . S
C361 C365 1.408 1_545 S
C362 C360 1.363 . S
C362 C363 1.368 1_545 S
C362 C366 1.524 . S
C363 C355 1.504 . S
C363 C362 1.368 1_565 S
C363 C364 1.404 . S
C364 C363 1.404 . S
C364 C365 1.404 . S
C364 C367 1.539 . S
C365 C361 1.408 1_565 S
C365 C364 1.404 . S
C365 H377 0.930 . S
C366 C362 1.524 . S
C366 H378 0.956 . S
C366 H379 0.961 . S
C366 H380 0.961 . S
C367 C364 1.539 . S
C367 H381 0.958 . S
C367 H382 0.961 . S
C367 H383 0.960 . S
H368 C352 0.931 . S
H369 C357 0.929 . S
H370 C358 0.960 . S
H371 C358 0.962 . S
H372 C358 0.960 . S
H373 C359 0.961 . S
H374 C359 0.961 . S
H375 C359 0.961 . S
H376 C360 0.931 . S
H377 C365 0.930 . S
H378 C366 0.956 . S
H379 C366 0.961 . S
H380 C366 0.961 . S
H381 C367 0.958 . S
H382 C367 0.961 . S
H383 C367 0.960 . S
C384 C385 1.391 . S
C384 C386 1.394 . S
C384 H400 0.931 . S
C385 C384 1.391 . S
C385 C389 1.376 . S
C386 C384 1.394 . S
C386 C387 1.369 . S
C386 C390 1.531 . S
C387 C386 1.369 . S
C387 C388 1.410 . S
C387 C395 1.503 . S
C388 C387 1.410 . S
C388 C389 1.392 . S
C388 C391 1.511 . S
C389 C385 1.376 . S
C389 C388 1.392 . S
C389 H401 0.929 . S
C390 C386 1.531 . S
C390 H402 0.960 . S
C390 H403 0.962 . S
C390 H404 0.960 . S
C391 C388 1.511 . S
C391 H405 0.961 . S
C391 H406 0.961 . S
C391 H407 0.961 . S
C392 C393 1.370 . S
C392 C394 1.363 . S
C392 H408 0.931 . S
C393 C392 1.370 . S
C393 C397 1.408 . S
C394 C392 1.363 . S
C394 C395 1.370 . S
C394 C398 1.524 . S
C395 C387 1.503 . S
C395 C394 1.370 . S
C395 C396 1.403 . S
C396 C395 1.403 . S
C396 C397 1.404 . S
C396 C399 1.539 . S
C397 C393 1.408 . S
C397 C396 1.404 . S
C397 H409 0.930 . S
C398 C394 1.524 . S
C398 H410 0.956 . S
C398 H411 0.961 . S
C398 H412 0.961 . S
C399 C396 1.539 . S
C399 H413 0.958 . S
C399 H414 0.961 . S
C399 H415 0.960 . S
H400 C384 0.931 . S
H401 C389 0.929 . S
H402 C390 0.960 . S
H403 C390 0.962 . S
H404 C390 0.960 . S
H405 C391 0.961 . S
H406 C391 0.961 . S
H407 C391 0.961 . S
H408 C392 0.931 . S
H409 C397 0.930 . S
H410 C398 0.956 . S
H411 C398 0.961 . S
H412 C398 0.961 . S
H413 C399 0.958 . S
H414 C399 0.961 . S
H415 C399 0.960 . S
C416 C417 1.391 1_565 S
C416 C418 1.394 . S
C416 H432 0.931 . S
C417 C416 1.391 1_545 S
C417 C421 1.376 . S
C418 C416 1.394 . S
C418 C419 1.370 1_565 S
C418 C422 1.531 . S
C419 C418 1.370 1_545 S
C419 C420 1.408 . S
C419 C427 1.503 1_545 S
C420 C419 1.408 . S
C420 C421 1.392 . S
C420 C423 1.511 . S
C421 C417 1.376 . S
C421 C420 1.392 . S
C421 H433 0.929 . S
C422 C418 1.531 . S
C422 H434 0.960 . S
C422 H435 0.962 . S
C422 H436 0.960 . S
C423 C420 1.511 . S
C423 H437 0.961 . S
C423 H438 0.961 . S
C423 H439 0.961 . S
C424 C425 1.370 . S
C424 C426 1.363 1_565 S
C424 H440 0.931 1_565 S
C425 C424 1.370 . S
C425 C429 1.408 . S
C426 C424 1.363 1_545 S
C426 C427 1.370 1_545 S
C426 C430 1.524 . S
C427 C419 1.503 1_565 S
C427 C426 1.370 1_565 S
C427 C428 1.403 . S
C428 C427 1.403 . S
C428 C429 1.404 . S
C428 C431 1.539 . S
C429 C425 1.408 . S
C429 C428 1.404 . S
C429 H441 0.930 . S
C430 C426 1.524 . S
C430 H442 0.956 1_545 S
C430 H443 0.961 . S
C430 H444 0.961 . S
C431 C428 1.539 . S
C431 H445 0.958 . S
C431 H446 0.961 . S
C431 H447 0.960 . S
H432 C416 0.931 . S
H433 C421 0.929 . S
H434 C422 0.960 . S
H435 C422 0.962 . S
H436 C422 0.960 . S
H437 C423 0.961 . S
H438 C423 0.961 . S
H439 C423 0.961 . S
H440 C424 0.931 1_545 S
H441 C429 0.930 . S
H442 C430 0.956 1_565 S
H443 C430 0.961 . S
H444 C430 0.961 . S
H445 C431 0.958 . S
H446 C431 0.961 . S
H447 C431 0.960 . S
C448 C449 1.391 . S
C448 C450 1.394 . S
C448 H464 0.931 . S
C449 C448 1.391 . S
C449 C453 1.376 . S
C450 C448 1.394 . S
C450 C451 1.369 . S
C450 C454 1.531 . S
C451 C450 1.369 . S
C451 C452 1.410 . S
C451 C459 1.503 . S
C452 C451 1.410 . S
C452 C453 1.392 . S
C452 C455 1.511 . S
C453 C449 1.376 . S
C453 C452 1.392 . S
C453 H465 0.929 . S
C454 C450 1.531 . S
C454 H466 0.960 . S
C454 H467 0.962 . S
C454 H468 0.960 . S
C455 C452 1.511 . S
C455 H469 0.961 . S
C455 H470 0.961 . S
C455 H471 0.961 . S
C456 C457 1.370 . S
C456 C458 1.363 . S
C456 H472 0.931 . S
C457 C456 1.370 . S
C457 C461 1.408 . S
C458 C456 1.363 . S
C458 C459 1.370 . S
C458 C462 1.524 . S
C459 C451 1.503 . S
C459 C458 1.370 . S
C459 C460 1.403 . S
C460 C459 1.403 . S
C460 C461 1.404 . S
C460 C463 1.539 . S
C461 C457 1.408 . S
C461 C460 1.404 . S
C461 H473 0.930 . S
C462 C458 1.524 . S
C462 H474 0.956 . S
C462 H475 0.961 . S
C462 H476 0.961 . S
C463 C460 1.539 . S
C463 H477 0.958 . S
C463 H478 0.961 . S
C463 H479 0.960 . S
H464 C448 0.931 . S
H465 C453 0.929 . S
H466 C454 0.960 . S
H467 C454 0.962 . S
H468 C454 0.960 . S
H469 C455 0.961 . S
H470 C455 0.961 . S
H471 C455 0.961 . S
H472 C456 0.931 . S
H473 C461 0.930 . S
H474 C462 0.956 . S
H475 C462 0.961 . S
H476 C462 0.961 . S
H477 C463 0.958 . S
H478 C463 0.961 . S
H479 C463 0.960 . S
C480 C481 1.391 . S
C480 C482 1.394 1_455 S
C480 H496 0.931 1_455 S
C481 C480 1.391 . S
C481 C485 1.376 . S
C482 C480 1.394 1_655 S
C482 C483 1.369 1_654 S
C482 C486 1.531 1_554 S
C483 C482 1.369 1_456 S
C483 C484 1.410 1_556 S
C483 C491 1.503 1_445 S
C484 C483 1.410 1_554 S
C484 C485 1.392 . S
C484 C487 1.511 1_545 S
C485 C481 1.376 . S
C485 C484 1.392 . S
C485 H497 0.929 . S
C486 C482 1.531 1_556 S
C486 H498 0.960 . S
C486 H499 0.962 1_556 S
C486 H500 0.960 . S
C487 C484 1.511 1_565 S
C487 H501 0.961 . S
C487 H502 0.961 . S
C487 H503 0.961 1_554 S
C488 C489 1.370 . S
C488 C490 1.363 1_556 S
C488 H504 0.931 1_556 S
C489 C488 1.370 . S
C489 C493 1.408 . S
C490 C488 1.363 1_554 S
C490 C491 1.370 1_554 S
C490 C494 1.524 . S
C491 C483 1.503 1_665 S
C491 C490 1.370 1_556 S
C491 C492 1.403 . S
C492 C491 1.403 . S
C492 C493 1.404 . S
C492 C495 1.539 1_665 S
C493 C489 1.408 . S
C493 C492 1.404 . S
C493 H505 0.930 . S
C494 C490 1.524 . S
C494 H506 0.956 . S
C494 H507 0.961 1_655 S
C494 H508 0.961 . S
C495 C492 1.539 1_445 S
C495 H509 0.958 1_455 S
C495 H510 0.961 1_545 S
C495 H511 0.960 . S
H496 C480 0.931 1_655 S
H497 C485 0.929 . S
H498 C486 0.960 . S
H499 C486 0.962 1_554 S
H500 C486 0.960 . S
H501 C487 0.961 . S
H502 C487 0.961 . S
H503 C487 0.961 1_556 S
H504 C488 0.931 1_554 S
H505 C493 0.930 . S
H506 C494 0.956 . S
H507 C494 0.961 1_455 S
H508 C494 0.961 . S
H509 C495 0.958 1_655 S
H510 C495 0.961 1_565 S
H511 C495 0.960 . S
C512 C513 1.391 . S
C512 C514 1.394 1_556 S
C512 H528 0.934 . S
C513 C512 1.391 . S
C513 C517 1.376 . S
C514 C512 1.394 1_554 S
C514 C515 1.369 1_554 S
C514 C518 1.531 . S
C515 C514 1.369 1_556 S
C515 C516 1.410 . S
C515 C523 1.503 1_546 S
C516 C515 1.410 . S
C516 C517 1.392 . S
C516 C519 1.511 . S
C517 C513 1.376 . S
C517 C516 1.392 . S
C517 H529 0.929 . S
C518 C514 1.531 . S
C518 H530 0.960 1_545 S
C518 H531 0.962 1_545 S
C518 H532 0.960 . S
C519 C516 1.511 . S
C519 H533 0.961 . S
C519 H534 0.961 . S
C519 H535 0.961 . S
C520 C521 1.370 . S
C520 C522 1.363 1_554 S
C520 H536 0.931 1_554 S
C521 C520 1.370 . S
C521 C525 1.408 . S
C522 C520 1.363 1_556 S
C522 C523 1.370 1_556 S
C522 C526 1.524 . S
C523 C515 1.503 1_564 S
C523 C522 1.370 1_554 S
C523 C524 1.403 . S
C524 C523 1.403 . S
C524 C525 1.404 . S
C524 C527 1.539 1_565 S
C525 C521 1.408 . S
C525 C524 1.404 . S
C525 H537 0.930 . S
C526 C522 1.524 . S
C526 H538 0.956 . S
C526 H539 0.961 . S
C526 H540 0.961 . S
C527 C524 1.539 1_545 S
C527 H541 0.958 . S
C527 H542 0.961 . S
C527 H543 0.960 . S
H528 C512 0.934 . S
H529 C517 0.929 . S
H530 C518 0.960 1_565 S
H531 C518 0.962 1_565 S
H532 C518 0.960 . S
H533 C519 0.961 . S
H534 C519 0.961 . S
H535 C519 0.961 . S
H536 C520 0.931 1_556 S
H537 C525 0.930 . S
H538 C526 0.956 . S
H539 C526 0.961 . S
H540 C526 0.961 . S
H541 C527 0.958 . S
H542 C527 0.961 . S
H543 C527 0.960 . S
C544 C545 1.391 . S
C544 C546 1.394 1_655 S
C544 H560 0.931 1_655 S
C545 C544 1.391 . S
C545 C549 1.376 . S
C546 C544 1.394 1_455 S
C546 C547 1.369 1_455 S
C546 C550 1.531 . S
C547 C546 1.369 1_655 S
C547 C548 1.410 . S
C547 C555 1.503 1_655 S
C548 C547 1.410 . S
C548 C549 1.392 . S
C548 C551 1.511 . S
C549 C545 1.376 . S
C549 C548 1.392 . S
C549 H561 0.929 . S
C550 C546 1.531 . S
C550 H562 0.960 . S
C550 H563 0.962 . S
C550 H564 0.960 . S
C551 C548 1.511 . S
C551 H565 0.961 . S
C551 H566 0.961 . S
C551 H567 0.961 . S
C552 C553 1.370 . S
C552 C554 1.363 . S
C552 H568 0.931 . S
C553 C552 1.370 . S
C553 C557 1.408 . S
C554 C552 1.363 . S
C554 C555 1.370 . S
C554 C558 1.524 . S
C555 C547 1.503 1_455 S
C555 C554 1.370 . S
C555 C556 1.403 . S
C556 C555 1.403 . S
C556 C557 1.404 . S
C556 C559 1.539 . S
C557 C553 1.408 . S
C557 C556 1.404 . S
C557 H569 0.930 . S
C558 C554 1.524 . S
C558 H570 0.956 . S
C558 H571 0.961 1_455 S
C558 H572 0.961 . S
C559 C556 1.539 . S
C559 H573 0.958 . S
C559 H574 0.961 . S
C559 H575 0.960 1_455 S
H560 C544 0.931 1_455 S
H561 C549 0.929 . S
H562 C550 0.960 . S
H563 C550 0.962 . S
H564 C550 0.960 . S
H565 C551 0.961 . S
H566 C551 0.961 . S
H567 C551 0.961 . S
H568 C552 0.931 . S
H569 C557 0.930 . S
H570 C558 0.956 . S
H571 C558 0.961 1_655 S
H572 C558 0.961 . S
H573 C559 0.958 . S
H574 C559 0.961 . S
H575 C559 0.960 1_655 S
C576 C577 1.391 . S
C576 C578 1.394 . S
C576 H592 0.931 . S
C577 C576 1.391 . S
C577 C581 1.376 . S
C578 C576 1.394 . S
C578 C579 1.369 . S
C578 C582 1.531 . S
C579 C578 1.369 . S
C579 C580 1.410 . S
C579 C587 1.503 . S
C580 C579 1.410 . S
C580 C581 1.392 . S
C580 C583 1.511 . S
C581 C577 1.376 . S
C581 C580 1.392 . S
C581 H593 0.929 . S
C582 C578 1.531 . S
C582 H594 0.960 . S
C582 H595 0.962 . S
C582 H596 0.960 . S
C583 C580 1.511 . S
C583 H597 0.961 . S
C583 H598 0.961 . S
C583 H599 0.961 . S
C584 C585 1.370 . S
C584 C586 1.363 . S
C584 H600 0.931 . S
C585 C584 1.370 . S
C585 C589 1.408 . S
C586 C584 1.363 . S
C586 C587 1.370 . S
C586 C590 1.524 . S
C587 C579 1.503 . S
C587 C586 1.370 . S
C587 C588 1.403 . S
C588 C587 1.403 . S
C588 C589 1.404 . S
C588 C591 1.539 . S
C589 C585 1.408 . S
C589 C588 1.404 . S
C589 H601 0.930 . S
C590 C586 1.524 . S
C590 H602 0.956 . S
C590 H603 0.961 . S
C590 H604 0.961 . S
C591 C588 1.539 . S
C591 H605 0.958 . S
C591 H606 0.961 . S
C591 H607 0.960 . S
H592 C576 0.931 . S
H593 C581 0.929 . S
H594 C582 0.960 . S
H595 C582 0.962 . S
H596 C582 0.960 . S
H597 C583 0.961 . S
H598 C583 0.961 . S
H599 C583 0.961 . S
H600 C584 0.931 . S
H601 C589 0.930 . S
H602 C590 0.956 . S
H603 C590 0.961 . S
H604 C590 0.961 . S
H605 C591 0.958 . S
H606 C591 0.961 . S
H607 C591 0.960 . S
C353 C145 0.696 . S
C361 C29 0.780 . S
C385 C20 0.814 . S
C393 C137 0.766 . S
C417 C284 0.823 . S
C425 C196 0.780 . S
C449 C233 0.705 . S
C457 C321 0.770 . S
C481 C49 1.886 . S
C489 C205 1.858 . S
C513 C293 1.888 . S
C521 C108 1.858 . S
C545 C225 1.836 . S
C553 C57 1.880 . S
C577 C117 1.869 . S
C585 C313 1.861 . S
