# Generated by pormake.
# Topology zfo, (5)-cn, num edge types: 1
# Building blocks:
#     Node 0, Type 0, BuildingBlock: XOMCOT_clean_sbu_0, # of connection points: 5
#     Node 1, Type 0, BuildingBlock: XOMCOT_clean_sbu_0, # of connection points: 5
#     Node 2, Type 0, BuildingBlock: XOMCOT_clean_sbu_0, # of connection points: 5
#     Node 3, Type 0, BuildingBlock: XOMCOT_clean_sbu_0, # of connection points: 5
#     Node 4, Type 0, BuildingBlock: XOMCOT_clean_sbu_0, # of connection points: 5
#     Node 5, Type 0, BuildingBlock: XOMCOT_clean_sbu_0, # of connection points: 5
#     Node 6, Type 0, BuildingBlock: XOMCOT_clean_sbu_0, # of connection points: 5
#     Node 7, Type 0, BuildingBlock: XOMCOT_clean_sbu_0, # of connection points: 5
#     Node 8, Type 0, BuildingBlock: XOMCOT_clean_sbu_0, # of connection points: 5
#     Node 9, Type 0, BuildingBlock: XOMCOT_clean_sbu_0, # of connection points: 5
#     Node 10, Type 0, BuildingBlock: XOMCOT_clean_sbu_0, # of connection points: 5
#     Node 11, Type 0, BuildingBlock: XOMCOT_clean_sbu_0, # of connection points: 5
#     Node 12, Type 0, BuildingBlock: XOMCOT_clean_sbu_0, # of connection points: 5
#     Node 13, Type 0, BuildingBlock: XOMCOT_clean_sbu_0, # of connection points: 5
#     Node 14, Type 0, BuildingBlock: XOMCOT_clean_sbu_0, # of connection points: 5
#     Node 15, Type 0, BuildingBlock: XOMCOT_clean_sbu_0, # of connection points: 5
#     Edge 16, Type (0, 0), BuildingBlock: XUDNAN_clean_linker_2, # of connection points: 2
#     Edge 17, Type (0, 0), BuildingBlock: XUDNAN_clean_linker_2, # of connection points: 2
#     Edge 18, Type (0, 0), BuildingBlock: XUDNAN_clean_linker_2, # of connection points: 2
#     Edge 19, Type (0, 0), BuildingBlock: XUDNAN_clean_linker_2, # of connection points: 2
#     Edge 20, Type (0, 0), BuildingBlock: XUDNAN_clean_linker_2, # of connection points: 2
#     Edge 21, Type (0, 0), BuildingBlock: XUDNAN_clean_linker_2, # of connection points: 2
#     Edge 22, Type (0, 0), BuildingBlock: XUDNAN_clean_linker_2, # of connection points: 2
#     Edge 23, Type (0, 0), BuildingBlock: XUDNAN_clean_linker_2, # of connection points: 2
#     Edge 24, Type (0, 0), BuildingBlock: XUDNAN_clean_linker_2, # of connection points: 2
#     Edge 25, Type (0, 0), BuildingBlock: XUDNAN_clean_linker_2, # of connection points: 2
#     Edge 26, Type (0, 0), BuildingBlock: XUDNAN_clean_linker_2, # of connection points: 2
#     Edge 27, Type (0, 0), BuildingBlock: XUDNAN_clean_linker_2, # of connection points: 2
#     Edge 28, Type (0, 0), BuildingBlock: XUDNAN_clean_linker_2, # of connection points: 2
#     Edge 29, Type (0, 0), BuildingBlock: XUDNAN_clean_linker_2, # of connection points: 2
#     Edge 30, Type (0, 0), BuildingBlock: XUDNAN_clean_linker_2, # of connection points: 2
#     Edge 31, Type (0, 0), BuildingBlock: XUDNAN_clean_linker_2, # of connection points: 2
#     Edge 32, Type (0, 0), BuildingBlock: XUDNAN_clean_linker_2, # of connection points: 2
#     Edge 33, Type (0, 0), BuildingBlock: XUDNAN_clean_linker_2, # of connection points: 2
#     Edge 34, Type (0, 0), BuildingBlock: XUDNAN_clean_linker_2, # of connection points: 2
#     Edge 35, Type (0, 0), BuildingBlock: XUDNAN_clean_linker_2, # of connection points: 2
#     Edge 36, Type (0, 0), BuildingBlock: XUDNAN_clean_linker_2, # of connection points: 2
#     Edge 37, Type (0, 0), BuildingBlock: XUDNAN_clean_linker_2, # of connection points: 2
#     Edge 38, Type (0, 0), BuildingBlock: XUDNAN_clean_linker_2, # of connection points: 2
#     Edge 39, Type (0, 0), BuildingBlock: XUDNAN_clean_linker_2, # of connection points: 2
#     Edge 40, Type (0, 0), BuildingBlock: XUDNAN_clean_linker_2, # of connection points: 2
#     Edge 41, Type (0, 0), BuildingBlock: XUDNAN_clean_linker_2, # of connection points: 2
#     Edge 42, Type (0, 0), BuildingBlock: XUDNAN_clean_linker_2, # of connection points: 2
#     Edge 43, Type (0, 0), BuildingBlock: XUDNAN_clean_linker_2, # of connection points: 2
#     Edge 44, Type (0, 0), BuildingBlock: XUDNAN_clean_linker_2, # of connection points: 2
#     Edge 45, Type (0, 0), BuildingBlock: XUDNAN_clean_linker_2, # of connection points: 2
#     Edge 46, Type (0, 0), BuildingBlock: XUDNAN_clean_linker_2, # of connection points: 2
#     Edge 47, Type (0, 0), BuildingBlock: XUDNAN_clean_linker_2, # of connection points: 2
#     Edge 48, Type (0, 0), BuildingBlock: XUDNAN_clean_linker_2, # of connection points: 2
#     Edge 49, Type (0, 0), BuildingBlock: XUDNAN_clean_linker_2, # of connection points: 2
#     Edge 50, Type (0, 0), BuildingBlock: XUDNAN_clean_linker_2, # of connection points: 2
#     Edge 51, Type (0, 0), BuildingBlock: XUDNAN_clean_linker_2, # of connection points: 2
#     Edge 52, Type (0, 0), BuildingBlock: XUDNAN_clean_linker_2, # of connection points: 2
#     Edge 53, Type (0, 0), BuildingBlock: XUDNAN_clean_linker_2, # of connection points: 2
#     Edge 54, Type (0, 0), BuildingBlock: XUDNAN_clean_linker_2, # of connection points: 2
#     Edge 55, Type (0, 0), BuildingBlock: XUDNAN_clean_linker_2, # of connection points: 2
# Relax obj value: 0.183
# Max RMSD: 0.186
# Mean RMSD: 0.186
data_MOF--net-zfo--node1-XOMCOT_clean_sbu_0--edge1-XUDNAN_clean_linker_2
_symmetry_space_group_name_H-M    P1
_symmetry_Int_Tables_number       1
_symmetry_cell_setting            triclinic
loop_
_symmetry_equiv_pos_as_xyz
'x, y, z'
_cell_length_a     34.212853
_cell_length_b     34.350679
_cell_length_c     58.283866
_cell_angle_alpha  90.025848
_cell_angle_beta   90.039931
_cell_angle_gamma 90.021453
loop_
_atom_site_label
_atom_site_type_symbol
_atom_site_fract_x
_atom_site_fract_y
_atom_site_fract_z
_atom_type_partial_charge
Co0 Co 0.09532 0.21247 0.17701 0.0
C1 C 0.1806 0.20321 0.184 0.0
C2 C 0.14831 0.16064 0.20279 0.0
C3 C 0.18722 0.15741 0.20874 0.0
N4 N 0.14426 0.18867 0.18667 0.0
N5 N 0.20732 0.1842 0.19675 0.0
H6 H 0.18732 0.22957 0.17483 0.0
H7 H 0.12442 0.14494 0.21064 0.0
C8 C 0.08062 0.12809 0.17124 0.0
O9 O 0.11428 0.12741 0.16041 0.0
N10 N 0.04697 0.23704 0.16845 0.0
C11 C 0.04325 0.26773 0.15425 0.0
C12 C 0.00458 0.27844 0.15354 0.0
C13 C 0.01073 0.22937 0.17624 0.0
N14 N 0.98424 0.25434 0.16736 0.0
C15 C 0.13769 0.22053 0.13428 0.0
C16 C 0.08382 0.18232 0.10703 0.0
C17 C 0.11791 0.19695 0.09693 0.0
C18 C 0.1449 0.21645 0.11083 0.0
C19 C 0.07816 0.18635 0.1307 0.0
N20 N 0.10573 0.20388 0.1443 0.0
H21 H 0.15697 0.2388 0.14397 0.0
H22 H 0.05109 0.17597 0.13802 0.0
H23 H 0.06712 0.28149 0.14518 0.0
H24 H 1.00408 0.20667 0.1885 0.0
O25 O 0.11863 0.2632 0.17998 0.0
O26 O 0.08927 0.23151 0.20826 0.0
O27 O 0.06776 0.16012 0.17959 0.0
C28 C 0.10807 0.26242 0.20137 0.0
H29 H 0.19954 0.13769 0.22128 0.0
H30 H 0.9923 0.30191 0.14346 0.0
H31 H 0.06177 0.16787 0.09675 0.0
H32 H 0.17074 0.22973 0.10346 0.0
Co33 Co 0.81074 0.0992 0.65929 0.0
C34 C 0.8265 0.1834 0.65615 0.0
C35 C 0.86546 0.15578 0.67987 0.0
C36 C 0.87053 0.19559 0.68143 0.0
N37 N 0.83775 0.14817 0.66399 0.0
N38 N 0.8461 0.21265 0.66637 0.0
H39 H 0.80221 0.18818 0.64473 0.0
H40 H 0.87911 0.13423 0.69073 0.0
C41 C 0.88514 0.05749 0.6703 0.0
O42 O 0.87403 0.05647 0.69185 0.0
N43 N 0.78281 0.05092 0.6545 0.0
C44 C 0.74629 0.0487 0.64608 0.0
C45 C 0.73514 0.0104 0.64531 0.0
C46 C 0.79354 0.01375 0.65876 0.0
N47 N 0.7648 0.98811 0.6532 0.0
C48 C 0.77705 0.13232 0.61842 0.0
C49 C 0.82752 0.09843 0.58734 0.0
C50 C 0.7984 0.12349 0.57917 0.0
C51 C 0.77277 0.14033 0.59504 0.0
C52 C 0.831 0.09145 0.61085 0.0
N53 N 0.80675 0.10927 0.62628 0.0
H54 H 0.75629 0.14493 0.63019 0.0
H55 H 0.85288 0.07098 0.61619 0.0
H56 H 0.72868 0.07338 0.64103 0.0
H57 H 0.82165 0.00579 0.66574 0.0
O58 O 0.76276 0.12371 0.66964 0.0
O59 O 0.80489 0.09358 0.69222 0.0
O60 O 0.86279 0.07249 0.65511 0.0
C61 C 0.77256 0.11315 0.69024 0.0
H62 H 0.88941 0.21085 0.69333 0.0
H63 H 0.70683 1.00023 0.63967 0.0
H64 H 0.84773 0.08443 0.57566 0.0
H65 H 0.74915 0.15904 0.58943 0.0
Co66 Co 0.91756 0.79761 0.17219 0.0
C67 C 0.83306 0.80295 0.18357 0.0
C68 C 0.8543 0.85534 0.16796 0.0
C69 C 0.81424 0.85791 0.16997 0.0
N70 N 0.86618 0.82077 0.17644 0.0
N71 N 0.80103 0.82487 0.17974 0.0
H72 H 0.83164 0.77325 0.18961 0.0
H73 H 0.87295 0.87613 0.15937 0.0
C74 C 0.94765 0.8756 0.18628 0.0
O75 O 0.93821 0.86736 0.20756 0.0
N76 N 0.96829 0.77419 0.16752 0.0
C77 C 0.976 0.74585 0.15219 0.0
C78 C 0.01478 0.73608 0.15374 0.0
C79 C 1.00234 0.78072 0.17866 0.0
N80 N 0.03129 0.75789 0.17035 0.0
C81 C 0.87785 0.7779 0.1309 0.0
C82 C 0.93004 0.81238 0.10088 0.0
C83 C 0.89877 0.79062 0.09198 0.0
C84 C 0.87211 0.77389 0.10735 0.0
C85 C 0.93478 0.81565 0.12465 0.0
N86 N 0.90907 0.79808 0.13928 0.0
H87 H 0.85764 0.76394 0.14252 0.0
H88 H 0.9601 0.83077 0.13123 0.0
H89 H 0.95473 0.73292 0.14076 0.0
H90 H 0.00585 0.80163 0.19241 0.0
O91 O 0.89729 0.7467 0.17865 0.0
O92 O 0.92094 0.78696 0.20498 0.0
O93 O 0.94161 0.85079 0.17039 0.0
C94 C 0.90547 0.75326 0.20006 0.0
H95 H 0.79608 0.88139 0.16367 0.0
H96 H 0.02959 0.71389 0.14381 0.0
H97 H 0.95158 0.82535 0.08961 0.0
H98 H 0.84727 0.7573 0.10123 0.0
Co99 Co 0.22116 0.9056 0.65963 0.0
C100 C 0.20736 0.82171 0.65385 0.0
C101 C 0.16243 0.84747 0.67424 0.0
C102 C 0.15741 0.80759 0.67441 0.0
N103 N 0.19334 0.85637 0.66081 0.0
N104 N 0.18582 0.79165 0.66146 0.0
H105 H 0.23545 0.81775 0.64595 0.0
H106 H 0.14624 0.8682 0.68446 0.0
C107 C 0.13842 0.92665 0.65058 0.0
O108 O 0.13851 0.89743 0.63602 0.0
N109 N 0.25007 0.95393 0.65911 0.0
C110 C 0.28883 0.95731 0.65517 0.0
C111 C 0.29915 0.99579 0.6565 0.0
C112 C 0.23715 0.99064 0.66235 0.0
N113 N 0.26672 0.0165 0.66094 0.0
C114 C 0.23748 0.87886 0.61366 0.0
C115 C 0.19759 0.93703 0.59086 0.0
C116 C 0.2111 0.90484 0.57847 0.0
C117 C 0.23253 0.87626 0.58997 0.0
C118 C 0.20263 0.93802 0.6147 0.0
N119 N 0.21937 0.90733 0.62605 0.0
H120 H 0.25625 0.85807 0.62186 0.0
H121 H 0.19184 0.96293 0.62404 0.0
H122 H 0.30845 0.93361 0.65118 0.0
H123 H 0.20699 0.99847 0.66545 0.0
O124 O 0.26952 0.87762 0.66331 0.0
O125 O 0.2334 0.89912 0.69212 0.0
O126 O 0.16939 0.9348 0.66204 0.0
C127 C 0.2646 0.8806 0.68532 0.0
H128 H 0.13597 0.7916 0.68427 0.0
H129 H 0.32795 0.00789 0.65359 0.0
H130 H 0.18211 0.96045 0.58236 0.0
H131 H 0.24539 0.8521 0.5807 0.0
Co132 Co 0.59189 0.28557 0.83427 0.0
C133 C 0.67429 0.29976 0.84008 0.0
C134 C 0.65164 0.33665 0.81358 0.0
C135 C 0.69206 0.33669 0.81233 0.0
N136 N 0.64074 0.3131 0.83091 0.0
N137 N 0.70601 0.31276 0.82876 0.0
H138 H 0.67515 0.27739 0.85314 0.0
H139 H 0.63181 0.34913 0.80114 0.0
C140 C 0.53356 0.34739 0.84392 0.0
O141 O 0.52208 0.32417 0.86053 0.0
N142 N 0.54346 0.2555 0.8369 0.0
C143 C 0.54056 0.21829 0.84425 0.0
C144 C 0.50291 0.20546 0.84143 0.0
C145 C 0.50753 0.26371 0.82837 0.0
N146 N 0.482 0.2341 0.83157 0.0
C147 C 0.59472 0.26368 0.88258 0.0
C148 C 0.60391 0.33875 0.89881 0.0
C149 C 0.59956 0.30841 0.91462 0.0
C150 C 0.59606 0.27029 0.90626 0.0
C151 C 0.60264 0.33082 0.87537 0.0
N152 N 0.59561 0.29398 0.86743 0.0
H153 H 0.59352 0.23416 0.8766 0.0
H154 H 0.60658 0.35468 0.86351 0.0
H155 H 0.56437 0.20049 0.85032 0.0
H156 H 0.50027 0.29037 0.8195 0.0
O157 O 0.62069 0.23749 0.83199 0.0
O158 O 0.59571 0.26943 0.80239 0.0
O159 O 0.56137 0.33641 0.83062 0.0
C160 C 0.61624 0.24008 0.8099 0.0
H161 H 0.70945 0.34977 0.79886 0.0
H162 H 0.49181 0.1772 0.84642 0.0
H163 H 0.60829 0.36847 0.90448 0.0
H164 H 0.59369 0.24581 0.91789 0.0
Co165 Co 0.71338 0.59454 0.34123 0.0
C166 C 0.70666 0.68037 0.33855 0.0
C167 C 0.66183 0.6515 0.31944 0.0
C168 C 0.66178 0.69023 0.31345 0.0
N169 N 0.68969 0.64514 0.33547 0.0
N170 N 0.69012 0.70819 0.32544 0.0
H171 H 0.73369 0.68495 0.34772 0.0
H172 H 0.64536 0.62893 0.31085 0.0
C173 C 0.62865 0.58034 0.3477 0.0
O174 O 0.62924 0.61154 0.36077 0.0
N175 N 0.73811 0.54469 0.3458 0.0
C176 C 0.76806 0.53765 0.36019 0.0
C177 C 0.77959 0.49964 0.35754 0.0
C178 C 0.73201 0.51111 0.33436 0.0
N179 N 0.75711 0.48293 0.34121 0.0
C180 C 0.72562 0.62718 0.38684 0.0
C181 C 0.69251 0.56475 0.40965 0.0
C182 C 0.71152 0.5935 0.4224 0.0
C183 C 0.72742 0.62556 0.41088 0.0
C184 C 0.69094 0.56767 0.38586 0.0
N185 N 0.70738 0.59853 0.37455 0.0
H186 H 0.74128 0.65001 0.37824 0.0
H187 H 0.6788 0.54344 0.37645 0.0
H188 H 0.78082 0.55887 0.37169 0.0
H189 H 0.71047 0.50783 0.32089 0.0
O190 O 0.76452 0.61802 0.33766 0.0
O191 O 0.72861 0.59307 0.30944 0.0
O192 O 0.66033 0.5685 0.33828 0.0
C193 C 0.76052 0.61059 0.31587 0.0
H194 H 0.64411 0.70359 0.3002 0.0
H195 H 0.80271 0.48547 0.36706 0.0
H196 H 0.6805 0.53919 0.41796 0.0
H197 H 0.74332 0.64778 0.42021 0.0
Co198 Co 0.41382 0.69754 0.83485 0.0
C199 C 0.32753 0.69759 0.83059 0.0
C200 C 0.35307 0.64898 0.81311 0.0
C201 C 0.31367 0.65023 0.80795 0.0
N202 N 0.36176 0.67867 0.8274 0.0
N203 N 0.29784 0.68077 0.81906 0.0
H204 H 0.32457 0.7249 0.83952 0.0
H205 H 0.3742 0.6292 0.80578 0.0
C206 C 0.45202 0.62134 0.82335 0.0
O207 O 0.46384 0.63608 0.80377 0.0
N208 N 0.46578 0.71718 0.84209 0.0
C209 C 0.4752 0.73944 0.86037 0.0
C210 C 0.51412 0.74882 0.85934 0.0
C211 C 0.49924 0.71435 0.82978 0.0
N212 N 0.52928 0.73314 0.84014 0.0
C213 C 0.37775 0.72709 0.8759 0.0
C214 C 0.41355 0.67671 0.9063 0.0
C215 C 0.39025 0.70681 0.91509 0.0
C216 C 0.37145 0.73153 0.89941 0.0
C217 C 0.41852 0.67278 0.88259 0.0
N218 N 0.40092 0.69796 0.86758 0.0
H219 H 0.36564 0.74866 0.86455 0.0
H220 H 0.43868 0.65087 0.87671 0.0
H221 H 0.45514 0.74934 0.87341 0.0
H222 H 0.50154 0.69948 0.81349 0.0
O223 O 0.39736 0.74956 0.82652 0.0
O224 O 0.42268 0.70646 0.80247 0.0
O225 O 0.43237 0.64211 0.83739 0.0
C226 C 0.40698 0.74054 0.80562 0.0
H227 H 0.29811 0.63093 0.79644 0.0
H228 H 0.52978 0.76715 0.87136 0.0
H229 H 0.42956 0.65745 0.9176 0.0
H230 H 0.35286 0.75506 0.9052 0.0
Co231 Co 0.28942 0.42737 0.34258 0.0
C232 C 0.29236 0.34276 0.33983 0.0
C233 C 0.33757 0.36807 0.31917 0.0
C234 C 0.33688 0.32838 0.31531 0.0
N235 N 0.30956 0.37681 0.33455 0.0
N236 N 0.30806 0.3127 0.32815 0.0
H237 H 0.2675 0.34044 0.35121 0.0
H238 H 0.3555 0.3892 0.31033 0.0
C239 C 0.35965 0.47886 0.34983 0.0
O240 O 0.3404 0.49758 0.36587 0.0
N241 N 0.26819 0.47844 0.35035 0.0
C242 C 0.25365 0.49112 0.37059 0.0
C243 C 0.24217 0.52917 0.36835 0.0
C244 C 0.26491 0.50934 0.33605 0.0
N245 N 0.24923 0.54066 0.34667 0.0
C246 C 0.26542 0.40339 0.38779 0.0
C247 C 0.33863 0.40502 0.40772 0.0
C248 C 0.30606 0.39824 0.4218 0.0
C249 C 0.26916 0.39612 0.41131 0.0
C250 C 0.33357 0.4116 0.38427 0.0
N251 N 0.29705 0.41387 0.37488 0.0
H252 H 0.23663 0.40263 0.38021 0.0
H253 H 0.35936 0.41477 0.37387 0.0
H254 H 0.25171 0.47486 0.38628 0.0
H255 H 0.27445 0.50915 0.31836 0.0
O256 O 0.23677 0.40749 0.33801 0.0
O257 O 0.27341 0.43466 0.31111 0.0
O258 O 0.34384 0.45 0.3395 0.0
C259 C 0.24094 0.41738 0.31661 0.0
H260 H 0.35444 0.31274 0.30292 0.0
H261 H 0.22911 0.54691 0.38165 0.0
H262 H 0.36793 0.40615 0.41468 0.0
H263 H 0.24324 0.38929 0.42116 0.0
Co264 Co 0.91486 0.79947 0.8424 0.0
C265 C 0.82801 0.79948 0.83701 0.0
C266 C 0.85512 0.84715 0.8196 0.0
C267 C 0.81637 0.84567 0.81318 0.0
N268 N 0.86252 0.81854 0.83491 0.0
N269 N 0.79947 0.81565 0.82419 0.0
H270 H 0.82429 0.77197 0.84555 0.0
H271 H 0.87707 0.86611 0.8123 0.0
C272 C 0.9168 0.88263 0.8552 0.0
O273 O 0.88243 0.87541 0.86432 0.0
N274 N 0.96675 0.77927 0.84862 0.0
C275 C 0.97589 0.75259 0.86472 0.0
C276 C 0.01472 0.74308 0.86269 0.0
C277 C 1.00001 0.78472 0.83648 0.0
N278 N 0.02982 0.76308 0.8449 0.0
C279 C 0.87689 0.77272 0.88382 0.0
C280 C 0.92348 0.81369 0.91412 0.0
C281 C 0.89471 0.78885 0.92297 0.0
C282 C 0.87108 0.76841 0.9074 0.0
C283 C 0.92804 0.81743 0.89042 0.0
N284 N 0.90407 0.79807 0.87543 0.0
H285 H 0.8611 0.7537 0.87252 0.0
H286 H 0.95239 0.83441 0.88421 0.0
H287 H 0.95547 0.73979 0.87669 0.0
H288 H 1.0021 0.80332 0.82155 0.0
O289 O 0.89767 0.74781 0.83441 0.0
O290 O 0.9226 0.79068 0.80993 0.0
O291 O 0.93517 0.85522 0.84484 0.0
C292 C 0.90671 0.7567 0.8134 0.0
H293 H 0.80215 0.86416 0.80067 0.0
H294 H 0.03023 0.72158 0.87277 0.0
H295 H 0.94367 0.82877 0.92536 0.0
H296 H 0.84886 0.74833 0.9133 0.0
Co297 Co 0.21371 0.92276 0.33027 0.0
C298 C 0.19822 0.83866 0.33005 0.0
C299 C 0.1564 0.86973 0.3096 0.0
C300 C 0.15123 0.83038 0.30604 0.0
N301 N 0.18593 0.87478 0.3246 0.0
N302 N 0.17775 0.81097 0.31881 0.0
H303 H 0.22367 0.83292 0.34056 0.0
H304 H 0.14146 0.89299 0.30069 0.0
C305 C 0.15031 0.97759 0.34288 0.0
O306 O 0.17295 0.9872 0.36022 0.0
N307 N 0.24288 0.97127 0.33462 0.0
C308 C 0.28085 0.97499 0.34077 0.0
C309 C 0.29197 0.01327 0.3388 0.0
C310 C 0.2325 0.00738 0.3276 0.0
N311 N 0.26141 0.03364 0.33065 0.0
C312 C 0.23783 0.91665 0.37771 0.0
C313 C 0.16471 0.8998 0.39522 0.0
C314 C 0.19619 0.90423 0.41039 0.0
C315 C 0.23319 0.91225 0.40134 0.0
C316 C 0.17056 0.90501 0.37168 0.0
N317 N 0.2065 0.91504 0.36323 0.0
H318 H 0.26685 0.92044 0.37117 0.0
H319 H 0.14594 0.90153 0.36023 0.0
H320 H 0.30026 0.95143 0.34528 0.0
H321 H 0.20494 0.01428 0.31951 0.0
O322 O 0.2622 0.89536 0.32699 0.0
O323 O 0.22976 0.923 0.29829 0.0
O324 O 0.16236 0.95256 0.32818 0.0
C325 C 0.25996 0.90296 0.30521 0.0
H326 H 0.1307 0.81719 0.29423 0.0
H327 H 0.32042 0.02512 0.34298 0.0
H328 H 0.13574 0.89289 0.40151 0.0
H329 H 0.25858 0.91418 0.41241 0.0
Co330 Co 0.09214 0.20192 0.84817 0.0
C331 C 0.17574 0.19079 0.8476 0.0
C332 C 0.14804 0.14642 0.82747 0.0
C333 C 0.1878 0.14593 0.82301 0.0
N334 N 0.14073 0.17483 0.84281 0.0
N335 N 0.20488 0.17444 0.83542 0.0
H336 H 0.17911 0.21651 0.85815 0.0
H337 H 0.12581 0.1301 0.81842 0.0
C338 C 0.03891 0.14221 0.86738 0.0
O339 O 0.03077 0.16864 0.88299 0.0
N340 N 0.04371 0.23123 0.85243 0.0
C341 C 0.0411 0.26987 0.85657 0.0
C342 C 1.00315 0.28176 0.85388 0.0
C343 C 0.0071 0.22083 0.84599 0.0
N344 N 0.98169 0.25096 0.84718 0.0
C345 C 0.10409 0.23516 0.89393 0.0
C346 C 0.12364 0.16528 0.91447 0.0
C347 C 0.1206 0.1986 0.92813 0.0
C348 C 0.11107 0.23399 0.91761 0.0
C349 C 0.11559 0.16757 0.89103 0.0
N350 N 0.10435 0.2019 0.88108 0.0
H351 H 0.0993 0.26297 0.88612 0.0
H352 H 0.11793 0.14136 0.88087 0.0
H353 H 0.06537 0.28932 0.85946 0.0
H354 H 0.99959 0.19244 0.83928 0.0
O355 O 0.11817 0.24947 0.83867 0.0
O356 O 0.08629 0.20905 0.81558 0.0
O357 O 0.06316 0.15041 0.85137 0.0
C358 C 0.10722 0.24045 0.81792 0.0
H359 H 0.20229 0.12868 0.81 0.0
H360 H 0.99251 0.31119 0.85605 0.0
H361 H 0.13154 0.13747 0.9219 0.0
H362 H 0.10988 0.26065 0.92752 0.0
Co363 Co 0.79919 0.09372 0.33097 0.0
C364 C 0.79628 0.17789 0.32056 0.0
C365 C 0.85554 0.15785 0.32151 0.0
C366 C 0.8556 0.19741 0.31746 0.0
N367 N 0.81822 0.14559 0.32353 0.0
N368 N 0.81825 0.20987 0.31686 0.0
H369 H 0.76481 0.17848 0.32203 0.0
H370 H 0.88122 0.13987 0.3233 0.0
C371 C 0.87635 0.05778 0.31904 0.0
O372 O 0.86299 0.04901 0.29856 0.0
N373 N 0.77965 0.04251 0.33863 0.0
C374 C 0.7548 0.03439 0.35592 0.0
C375 C 0.74654 0.99531 0.35566 0.0
C376 C 0.78539 0.00835 0.32765 0.0
N377 N 0.76567 0.979 0.3379 0.0
C378 C 0.77471 0.13548 0.37117 0.0
C379 C 0.8217 0.09588 0.40193 0.0
C380 C 0.7962 0.12452 0.41031 0.0
C381 C 0.77262 0.14457 0.39453 0.0
C382 C 0.82266 0.08749 0.37852 0.0
N383 N 0.79953 0.10734 0.3634 0.0
H384 H 0.75559 0.15045 0.35939 0.0
H385 H 0.8412 0.06401 0.37282 0.0
H386 H 0.74273 0.05554 0.36768 0.0
H387 H 0.80309 0.00505 0.31241 0.0
O388 O 0.74658 0.10927 0.32298 0.0
O389 O 0.78958 0.08415 0.29874 0.0
O390 O 0.85445 0.0748 0.33362 0.0
C391 C 0.75504 0.09896 0.3021 0.0
H392 H 0.88119 0.2156 0.31539 0.0
H393 H 0.72675 0.98024 0.36711 0.0
H394 H 0.84073 0.07979 0.41335 0.0
H395 H 0.75192 0.16638 0.40019 0.0
Co396 Co 0.41612 0.70839 0.16473 0.0
C397 C 0.33042 0.70064 0.17106 0.0
C398 C 0.36232 0.65977 0.19142 0.0
C399 C 0.32387 0.65953 0.19851 0.0
N400 N 0.36652 0.68534 0.17398 0.0
N401 N 0.30401 0.68533 0.18564 0.0
H402 H 0.324 0.72552 0.16051 0.0
H403 H 0.3862 0.64478 0.19978 0.0
C404 C 0.42827 0.62303 0.15874 0.0
O405 O 0.39407 0.62216 0.14846 0.0
N406 N 0.46516 0.73236 0.15651 0.0
C407 C 0.46955 0.76213 0.14177 0.0
C408 C 0.50763 0.77468 0.14267 0.0
C409 C 0.5005 0.72729 0.16636 0.0
N410 N 0.52728 0.75289 0.15818 0.0
C411 C 0.37596 0.72751 0.12296 0.0
C412 C 0.42296 0.68492 0.09373 0.0
C413 C 0.39413 0.70911 0.08435 0.0
C414 C 0.37013 0.7301 0.09934 0.0
C415 C 0.42792 0.68326 0.11757 0.0
N416 N 0.40395 0.70371 0.13202 0.0
H417 H 0.35978 0.74715 0.13368 0.0
H418 H 0.45268 0.66738 0.12418 0.0
H419 H 0.44626 0.77492 0.13174 0.0
H420 H 0.50596 0.70599 0.17963 0.0
O421 O 0.39415 0.75928 0.17037 0.0
O422 O 0.42453 0.72302 0.19635 0.0
O423 O 0.44226 0.6555 0.16574 0.0
C424 C 0.40557 0.75481 0.19147 0.0
H425 H 0.31192 0.64322 0.21276 0.0
H426 H 0.51921 0.79925 0.13329 0.0
H427 H 0.44308 0.66929 0.08273 0.0
H428 H 0.34797 0.74974 0.09284 0.0
Co429 Co 0.29312 0.40654 0.67172 0.0
C430 C 0.30638 0.32506 0.65894 0.0
C431 C 0.34932 0.34455 0.68298 0.0
C432 C 0.35295 0.30486 0.68043 0.0
N433 N 0.32048 0.35734 0.66913 0.0
N434 N 0.32546 0.29253 0.66545 0.0
H435 H 0.27965 0.32469 0.64924 0.0
H436 H 0.36464 0.36233 0.69539 0.0
C437 C 0.37744 0.42763 0.66564 0.0
O438 O 0.37898 0.39959 0.65032 0.0
N439 N 0.26444 0.45493 0.67499 0.0
C440 C 0.22622 0.45862 0.68052 0.0
C441 C 0.21664 0.49726 0.68118 0.0
C442 C 0.27739 0.49174 0.67211 0.0
N443 N 0.2487 0.51794 0.67585 0.0
C444 C 0.26831 0.39127 0.62529 0.0
C445 C 0.31997 0.44075 0.6036 0.0
C446 C 0.2982 0.41455 0.59041 0.0
C447 C 0.27077 0.39089 0.60136 0.0
C448 C 0.31586 0.44079 0.62747 0.0
N449 N 0.29301 0.41364 0.63824 0.0
H450 H 0.24692 0.37273 0.63331 0.0
H451 H 0.33207 0.46215 0.63705 0.0
H452 H 0.20586 0.43515 0.68349 0.0
H453 H 0.30691 0.49939 0.66728 0.0
O454 O 0.24513 0.37761 0.67471 0.0
O455 O 0.28306 0.39434 0.70384 0.0
O456 O 0.34491 0.43537 0.67561 0.0
C457 C 0.25176 0.37645 0.69664 0.0
H458 H 0.37258 0.28648 0.69013 0.0
H459 H 0.18786 0.50924 0.68434 0.0
H460 H 0.34041 0.46058 0.59554 0.0
H461 H 0.25255 0.37111 0.59158 0.0
Co462 Co 0.59061 0.2894 0.16299 0.0
C463 C 0.67574 0.2929 0.16381 0.0
C464 C 0.6514 0.34124 0.18221 0.0
C465 C 0.69146 0.34138 0.18522 0.0
N466 N 0.64178 0.31072 0.1688 0.0
N467 N 0.70637 0.3106 0.17386 0.0
H468 H 0.67786 0.2662 0.15402 0.0
H469 H 0.63074 0.36049 0.19046 0.0
C470 C 0.53656 0.3575 0.15889 0.0
O471 O 0.51852 0.33826 0.14253 0.0
N472 N 0.53916 0.26701 0.15775 0.0
C473 C 0.52565 0.24688 0.13946 0.0
C474 C 0.48782 0.23583 0.14354 0.0
C475 C 0.50929 0.26696 0.17295 0.0
N476 N 0.47758 0.24845 0.16453 0.0
C477 C 0.60566 0.27102 0.11563 0.0
C478 C 0.60445 0.34636 0.09933 0.0
C479 C 0.60611 0.31565 0.08346 0.0
C480 C 0.60825 0.27754 0.09203 0.0
C481 C 0.60136 0.33835 0.12276 0.0
N482 N 0.59836 0.30089 0.13047 0.0
H483 H 0.60758 0.24146 0.12182 0.0
H484 H 0.60154 0.3625 0.13459 0.0
H485 H 0.54137 0.23975 0.12412 0.0
H486 H 0.51059 0.2807 0.18965 0.0
O487 O 0.61226 0.23756 0.16378 0.0
O488 O 0.58988 0.26916 0.19413 0.0
O489 O 0.56621 0.34234 0.16892 0.0
C490 C 0.60661 0.23815 0.18581 0.0
H491 H 0.70795 0.3608 0.1962 0.0
H492 H 0.46941 0.21907 0.13208 0.0
H493 H 0.60541 0.37641 0.09376 0.0
H494 H 0.61048 0.25269 0.08069 0.0
Co495 Co 0.71196 0.59228 0.67184 0.0
C496 C 0.72301 0.67603 0.66182 0.0
C497 C 0.66236 0.66245 0.66649 0.0
C498 C 0.6661 0.70213 0.66363 0.0
N499 N 0.69812 0.64605 0.66538 0.0
N500 N 0.70431 0.71057 0.66096 0.0
H501 H 0.75439 0.67298 0.66054 0.0
H502 H 0.63546 0.64709 0.67004 0.0
C503 C 0.63966 0.54573 0.666 0.0
O504 O 0.66177 0.52177 0.65417 0.0
N505 N 0.72572 0.53871 0.67954 0.0
C506 C 0.71398 0.52143 0.69914 0.0
C507 C 0.72801 0.484 0.6998 0.0
C508 C 0.74707 0.51123 0.66855 0.0
N509 N 0.74878 0.47754 0.68055 0.0
C510 C 0.74862 0.57682 0.62855 0.0
C511 C 0.68322 0.58767 0.60147 0.0
C512 C 0.71885 0.57862 0.59091 0.0
C513 C 0.75187 0.57347 0.60478 0.0
C514 C 0.68117 0.59021 0.62541 0.0
N515 N 0.71327 0.58302 0.63878 0.0
H516 H 0.77489 0.57482 0.63874 0.0
H517 H 0.65384 0.59896 0.63306 0.0
H518 H 0.69572 0.53505 0.71198 0.0
H519 H 0.7611 0.51512 0.65222 0.0
O520 O 0.76569 0.60725 0.67589 0.0
O521 O 0.72168 0.60675 0.70368 0.0
O522 O 0.65454 0.57711 0.67414 0.0
C523 C 0.75748 0.61391 0.69726 0.0
H524 H 0.64275 0.72332 0.6647 0.0
H525 H 0.72238 0.46285 0.71316 0.0
H526 H 0.65716 0.59274 0.59134 0.0
H527 H 0.78029 0.5679 0.59727 0.0
H528 H 0.04656 0.08593 0.20637 0.0
H529 H 0.05994 0.09122 0.13248 0.0
H530 H 0.02396 0.02933 0.12851 0.0
H531 H 0.06375 0.98457 0.2105 0.0
H532 H 0.02906 0.97518 0.23307 0.0
H533 H 0.05156 0.02244 0.2307 0.0
H534 H 0.9838 0.05517 0.22871 0.0
H535 H 0.96058 0.00829 0.23136 0.0
H536 H 0.94892 0.03943 0.20743 0.0
H537 H 0.99096 0.96588 0.13223 0.0
H538 H 0.96234 0.90311 0.14329 0.0
H539 H 0.97111 0.93559 0.21519 0.0
C540 C 0.04092 0.07436 0.1894 0.0
C541 C 0.05536 0.09342 0.16965 0.0
C542 C 0.04872 0.07705 0.14773 0.0
C543 C 0.02833 0.04199 0.14532 0.0
C544 C 0.01508 0.02335 0.16505 0.0
C545 C 0.02101 0.03876 0.1867 0.0
C546 C 0.00611 0.01094 0.20504 0.0
C547 C 0.03962 0.99751 0.22075 0.0
C548 C 0.97287 0.02958 0.21895 0.0
C549 C 0.99116 0.97761 0.19024 0.0
C550 C 0.99654 0.98569 0.16725 0.0
C551 C 0.98635 0.95926 0.15017 0.0
C552 C 0.97021 0.92351 0.15669 0.0
C553 C 0.96442 0.91417 0.18014 0.0
C554 C 0.97495 0.94183 0.19712 0.0
H555 H 0.09269 0.95065 0.687 0.0
H556 H 0.10655 0.95996 0.61329 0.0
H557 H 0.04518 0.99747 0.61078 0.0
H558 H 0.99082 0.93414 0.68558 0.0
H559 H 0.97955 0.9615 0.71113 0.0
H560 H 0.02699 0.93951 0.70788 0.0
H561 H 0.06006 0.00651 0.7141 0.0
H562 H 0.01268 0.02867 0.71758 0.0
H563 H 0.04611 0.04713 0.69631 0.0
H564 H 0.98105 0.03002 0.61557 0.0
H565 H 0.91719 0.05593 0.62728 0.0
H566 H 0.94167 0.02381 0.69793 0.0
C567 C 0.08316 0.9616 0.67049 0.0
C568 C 0.10448 0.9531 0.65034 0.0
C569 C 0.09068 0.96661 0.6289 0.0
C570 C 0.05591 0.9879 0.62731 0.0
C571 C 0.03495 0.99512 0.64734 0.0
C572 C 0.04792 0.98249 0.66855 0.0
C573 C 0.01807 0.9919 0.68706 0.0
C574 C 1.00297 0.95453 0.69859 0.0
C575 C 0.03526 0.02025 0.70481 0.0
C576 C 0.98628 0.01127 0.67284 0.0
C577 C 0.99694 0.01306 0.65002 0.0
C578 C 0.9724 0.02893 0.63342 0.0
C579 C 0.93597 0.04345 0.64026 0.0
C580 C 0.92401 0.04183 0.66352 0.0
C581 C 0.94977 0.02552 0.68 0.0
H582 H 0.50272 0.56941 0.80214 0.0
H583 H 0.41802 0.57892 0.85738 0.0
H584 H 0.4286 0.51012 0.86708 0.0
H585 H 0.47811 0.47056 0.78498 0.0
H586 H 0.52796 0.45639 0.77949 0.0
H587 H 0.51342 0.50648 0.77609 0.0
H588 H 0.56768 0.52793 0.80439 0.0
H589 H 0.58247 0.47794 0.80782 0.0
H590 H 0.5696 0.50656 0.83262 0.0
H591 H 0.44703 0.44125 0.871 0.0
H592 H 0.47539 0.37584 0.87074 0.0
H593 H 0.55081 0.40852 0.8139 0.0
C594 C 0.48633 0.55694 0.81622 0.0
C595 C 0.45939 0.57974 0.82895 0.0
C596 C 0.43882 0.56231 0.84737 0.0
C597 C 0.44452 0.52311 0.85299 0.0
C598 C 0.47109 0.50151 0.84016 0.0
C599 C 0.49195 0.51765 0.82226 0.0
C600 C 0.5196 0.48774 0.81183 0.0
C601 C 0.50914 0.47983 0.7866 0.0
C602 C 0.56237 0.50083 0.81432 0.0
C603 C 0.51099 0.45243 0.82677 0.0
C604 C 0.4826 0.46125 0.84281 0.0
C605 C 0.46935 0.43396 0.85857 0.0
C606 C 0.48577 0.39672 0.85823 0.0
C607 C 0.51554 0.38676 0.84234 0.0
C608 C 0.52809 0.41509 0.82624 0.0
H609 H 0.55816 0.59656 0.36755 0.0
H610 H 0.61436 0.51629 0.32043 0.0
H611 H 0.5513 0.48195 0.31511 0.0
H612 H 0.49619 0.52666 0.39478 0.0
H613 H 0.45582 0.55996 0.39777 0.0
H614 H 0.50516 0.57819 0.39742 0.0
H615 H 0.48751 0.62394 0.3636 0.0
H616 H 0.43812 0.60579 0.36381 0.0
H617 H 0.46659 0.60366 0.33783 0.0
H618 H 0.4812 0.4565 0.31516 0.0
H619 H 0.41133 0.44127 0.32126 0.0
H620 H 0.40237 0.53847 0.3686 0.0
C621 C 0.55736 0.57181 0.35604 0.0
C622 C 0.59127 0.55919 0.34435 0.0
C623 C 0.58879 0.52653 0.32956 0.0
C624 C 0.55308 0.50688 0.32641 0.0
C625 C 0.52021 0.52022 0.33821 0.0
C626 C 0.52216 0.5519 0.35278 0.0
C627 C 0.48296 0.56029 0.36373 0.0
C628 C 0.48518 0.556 0.38998 0.0
C629 C 0.46791 0.60082 0.35682 0.0
C630 C 0.45846 0.52836 0.3531 0.0
C631 C 0.48035 0.50557 0.33837 0.0
C632 C 0.46385 0.4742 0.32666 0.0
C633 C 0.42409 0.46581 0.33022 0.0
C634 C 0.40125 0.48864 0.34543 0.0
C635 C 0.41888 0.52039 0.35687 0.0
H636 H 0.04091 0.0801 0.83648 0.0
H637 H 0.99448 0.11588 0.90262 0.0
H638 H 0.96196 0.05276 0.90669 0.0
H639 H 0.95521 0.02795 0.81818 0.0
H640 H 0.98145 0.9891 0.80423 0.0
H641 H 1.00314 0.03674 0.80643 0.0
H642 H 0.06372 0.00693 0.82641 0.0
H643 H 0.04217 0.95916 0.82429 0.0
H644 H 0.05729 0.97775 0.85183 0.0
H645 H 0.93222 0.9885 0.90373 0.0
H646 H 0.90567 0.92441 0.89369 0.0
H647 H 0.97029 0.9261 0.82958 0.0
C648 C 0.0241 0.07446 0.85185 0.0
C649 C 0.02033 0.1032 0.86922 0.0
C650 C 0.99785 0.09468 0.88901 0.0
C651 C 0.97926 0.05874 0.89156 0.0
C652 C 0.9833 0.03126 0.87422 0.0
C653 C 0.00505 0.03838 0.85472 0.0
C654 C 1.00324 0.00356 0.83853 0.0
C655 C 0.98465 0.01503 0.81548 0.0
C656 C 0.04404 0.9858 0.83507 0.0
C657 C 0.97679 0.97616 0.85199 0.0
C658 C 0.9659 0.99307 0.87253 0.0
C659 C 0.94062 0.9748 0.88776 0.0
C660 C 0.92555 0.9384 0.88182 0.0
C661 C 0.93578 0.92024 0.86084 0.0
C662 C 0.96227 0.93915 0.84582 0.0
H663 H 0.09223 0.96519 0.31018 0.0
H664 H 0.11852 0.02978 0.37247 0.0
H665 H 0.05246 0.05729 0.37226 0.0
H666 H 0.03164 0.04175 0.28392 0.0
H667 H 0.99747 0.00772 0.27159 0.0
H668 H 0.04768 0.99364 0.27596 0.0
H669 H 0.02465 0.93423 0.29973 0.0
H670 H 0.97446 0.94842 0.29557 0.0
H671 H 0.99332 0.9418 0.32419 0.0
H672 H 0.98368 0.07551 0.36712 0.0
H673 H 0.91536 0.08643 0.35605 0.0
H674 H 0.93128 0.01242 0.29626 0.0
C675 C 0.08413 0.98537 0.32363 0.0
C676 C 0.11076 0.99518 0.34137 0.0
C677 C 0.0989 0.02165 0.35869 0.0
C678 C 0.06131 0.03754 0.35876 0.0
C679 C 0.03572 0.02702 0.3413 0.0
C680 C 0.04648 1.00188 0.32391 0.0
C681 C 0.01265 0.99554 0.30736 0.0
C682 C 0.02298 0.01057 0.28328 0.0
C683 C 1.00056 0.95243 0.30669 0.0
C684 C 0.98124 0.02053 0.31849 0.0
C685 C 0.99545 0.03832 0.33804 0.0
C686 C 0.97219 0.062 0.35175 0.0
C687 C 0.93328 0.06788 0.34532 0.0
C688 C 0.91778 0.05035 0.32525 0.0
C689 C 0.94226 0.02641 0.31162 0.0
H690 H 0.47269 0.39664 0.14243 0.0
H691 H 0.57541 0.41162 0.18529 0.0
H692 H 0.5588 0.48118 0.19037 0.0
H693 H 0.47869 0.48715 0.11348 0.0
H694 H 0.42661 0.49491 0.11272 0.0
H695 H 0.4458 0.44613 0.11327 0.0
H696 H 0.40476 0.43086 0.14953 0.0
H697 H 0.38523 0.47954 0.14902 0.0
H698 H 0.40928 0.46168 0.17444 0.0
H699 H 0.53215 0.55042 0.1891 0.0
H700 H 0.49616 0.61209 0.18321 0.0
H701 H 0.41067 0.5507 0.14166 0.0
C702 C 0.49162 0.41439 0.15305 0.0
C703 C 0.52542 0.39857 0.16345 0.0
C704 C 0.54929 0.42296 0.1772 0.0
C705 C 0.54014 0.46257 0.18014 0.0
C706 C 0.50688 0.47731 0.16934 0.0
C707 C 0.48284 0.45382 0.15623 0.0
C708 C 0.44901 0.47667 0.14626 0.0
C709 C 0.45012 0.47618 0.11987 0.0
C710 C 0.40975 0.46127 0.15536 0.0
C711 C 0.45789 0.51684 0.1556 0.0
C712 C 0.49141 0.51671 0.16885 0.0
C713 C 0.50574 0.55074 0.17887 0.0
C714 C 0.48514 0.58567 0.17537 0.0
C715 C 0.45049 0.58632 0.16203 0.0
C716 C 0.43691 0.55129 0.15205 0.0
H717 H 0.4504 0.41497 0.64849 0.0
H718 H 0.38511 0.4948 0.69159 0.0
H719 H 0.44495 0.53482 0.69671 0.0
H720 H 0.54012 0.41829 0.68013 0.0
H721 H 0.57004 0.41533 0.65474 0.0
H722 H 0.52215 0.39359 0.65494 0.0
H723 H 0.50315 0.43391 0.61901 0.0
H724 H 0.55093 0.45586 0.61875 0.0
H725 H 0.50796 0.48616 0.6197 0.0
H726 H 0.51384 0.56665 0.69625 0.0
H727 H 0.58338 0.58541 0.69094 0.0
H728 H 0.60076 0.48339 0.64823 0.0
C729 C 0.44846 0.44082 0.65907 0.0
C730 C 0.41294 0.4517 0.66963 0.0
C731 C 0.41199 0.48577 0.68336 0.0
C732 C 0.44584 0.50872 0.68632 0.0
C733 C 0.48037 0.49713 0.67548 0.0
C734 C 0.48171 0.46382 0.66219 0.0
C735 C 0.52196 0.45725 0.65226 0.0
C736 C 0.5396 0.41885 0.66105 0.0
C737 C 0.52092 0.45838 0.62587 0.0
C738 C 0.54333 0.49208 0.66195 0.0
C739 C 0.5191 0.51495 0.67529 0.0
C740 C 0.53295 0.54881 0.68585 0.0
C741 C 0.57248 0.55929 0.68273 0.0
C742 C 0.59767 0.53592 0.6692 0.0
C743 C 0.58252 0.502 0.65872 0.0
H744 H 0.06902 0.21751 0.06159 0.0
H745 H 0.18319 0.1686 0.07607 0.0
H746 H 0.19643 0.16372 0.03442 0.0
H747 H 0.04769 0.16053 0.01087 0.0
H748 H 0.02445 0.20022 0.99595 0.0
H749 H 0.0235 0.19847 0.02683 0.0
H750 H 0.05446 0.26727 0.02855 0.0
H751 H 0.05568 0.26914 0.99767 0.0
H752 H 0.09997 0.27628 0.01391 0.0
H753 H 0.19657 0.16283 0.99129 0.0
H754 H 0.18491 0.16895 0.94952 0.0
H755 H 0.07235 0.22214 0.96298 0.0
C756 C 0.09661 0.20544 0.05592 0.0
C757 C 0.12503 0.19311 0.07194 0.0
C758 C 0.16111 0.17815 0.06399 0.0
C759 C 0.16882 0.17523 0.04042 0.0
C760 C 0.14032 0.18787 0.02503 0.0
C761 C 0.10504 0.20294 0.03243 0.0
C762 C 0.07999 0.21566 0.01231 0.0
C763 C 0.04164 0.19232 0.01144 0.0
C764 C 0.07207 0.2597 0.01317 0.0
C765 C 0.10659 0.20521 0.99246 0.0
C766 C 0.14111 0.18891 1.00018 0.0
C767 C 0.16978 0.17579 0.98505 0.0
C768 C 0.16292 0.17932 0.9614 0.0
C769 C 0.12795 0.19628 0.95314 0.0
C770 C 0.09958 0.20959 0.9689 0.0
H771 H 0.80069 0.07197 0.4458 0.0
H772 H 0.78603 0.19527 0.43176 0.0
H773 H 0.78235 0.20826 0.47339 0.0
H774 H 0.73725 0.06659 0.49482 0.0
H775 H 0.76815 0.03283 0.51003 0.0
H776 H 0.76781 0.03315 0.47913 0.0
H777 H 0.84286 0.04348 0.47879 0.0
H778 H 0.84345 0.04313 0.50968 0.0
H779 H 0.86361 0.08396 0.49429 0.0
H780 H 0.78159 0.20776 0.51684 0.0
H781 H 0.78567 0.19397 0.55843 0.0
H782 H 0.80286 0.07138 0.5436 0.0
C783 C 0.79704 0.10181 0.45139 0.0
C784 C 0.79366 0.13259 0.43539 0.0
C785 C 0.78815 0.17107 0.44359 0.0
C786 C 0.78623 0.17879 0.46723 0.0
C787 C 0.78994 0.14774 0.48247 0.0
C788 C 0.79534 0.11004 0.47485 0.0
C789 C 0.79951 0.08193 0.49469 0.0
C790 C 0.76619 0.05186 0.49466 0.0
C791 C 0.83975 0.06196 0.49434 0.0
C792 C 0.79592 0.10973 0.51471 0.0
C793 C 0.79012 0.14753 0.50734 0.0
C794 C 0.78604 0.17825 0.52279 0.0
C795 C 0.78821 0.17013 0.54636 0.0
C796 C 0.79468 0.13164 0.55425 0.0
C797 C 0.79835 0.10116 0.53811 0.0
H798 H 0.9039 0.84209 0.95808 0.0
H799 H 0.87921 0.71994 0.94506 0.0
H800 H 0.87542 0.70809 0.98662 0.0
H801 H 0.96676 0.8256 0.00628 0.0
H802 H 0.95045 0.86792 0.02185 0.0
H803 H 0.94896 0.8676 0.99096 0.0
H804 H 0.87504 0.88389 0.99198 0.0
H805 H 0.8763 0.88431 0.02288 0.0
H806 H 0.84231 0.85308 0.00803 0.0
H807 H 0.87593 0.70873 0.02941 0.0
H808 H 0.88164 0.72174 0.07088 0.0
H809 H 0.90812 0.84291 0.05651 0.0
C810 C 0.89776 0.81281 0.96392 0.0
C811 C 0.89141 0.78208 0.94814 0.0
C812 C 0.88322 0.74426 0.95665 0.0
C813 C 0.88133 0.7371 0.98028 0.0
C814 C 0.8879 0.76797 0.99527 0.0
C815 C 0.89605 0.80505 0.98748 0.0
C816 C 0.90307 0.83279 0.00731 0.0
C817 C 0.94479 0.84945 0.00655 0.0
C818 C 0.87234 0.86544 0.00755 0.0
C819 C 0.89779 0.8054 0.02744 0.0
C820 C 0.88884 0.76821 0.02008 0.0
C821 C 0.88272 0.73777 0.03541 0.0
C822 C 0.88582 0.74551 0.05894 0.0
C823 C 0.89506 0.78338 0.06695 0.0
C824 C 0.9012 0.81364 0.05091 0.0
H825 H 0.2228 0.95214 0.44456 0.0
H826 H 0.15826 0.84529 0.43269 0.0
H827 H 0.15269 0.83536 0.4746 0.0
H828 H 0.27777 0.91962 0.49232 0.0
H829 H 0.27547 0.96515 0.50764 0.0
H830 H 0.27285 0.96474 0.47679 0.0
H831 H 0.20721 0.00226 0.47838 0.0
H832 H 0.20967 0.00286 0.50926 0.0
H833 H 0.16733 0.98292 0.49507 0.0
H834 H 0.15891 0.83437 0.51746 0.0
H835 H 0.1726 0.84461 0.55871 0.0
H836 H 0.23016 0.95378 0.54297 0.0
C837 C 0.20734 0.92676 0.45083 0.0
C838 C 0.19098 0.8994 0.43546 0.0
C839 C 0.17069 0.86672 0.44422 0.0
C840 C 0.16752 0.8608 0.46796 0.0
C841 C 0.18433 0.88813 0.48265 0.0
C842 C 0.20345 0.92071 0.47446 0.0
C843 C 0.2192 0.94545 0.49392 0.0
C844 C 0.26398 0.94892 0.49258 0.0
C845 C 0.19968 0.98576 0.49417 0.0
C846 C 0.20665 0.92129 0.51436 0.0
C847 C 0.18668 0.88827 0.50745 0.0
C848 C 0.17402 0.86036 0.52309 0.0
C849 C 0.18201 0.86631 0.54641 0.0
C850 C 0.20208 0.90006 0.55385 0.0
C851 C 0.21424 0.92805 0.53765 0.0
H852 H 0.64193 0.27506 0.04814 0.0
H853 H 0.5643 0.37264 0.06146 0.0
H854 H 0.55709 0.38307 0.01994 0.0
H855 H 0.68867 0.31411 0.99712 0.0
H856 H 0.68995 0.26768 0.98272 0.0
H857 H 0.69187 0.2698 0.01359 0.0
H858 H 0.63174 0.2241 0.01596 0.0
H859 H 0.62953 0.22194 0.98512 0.0
H860 H 0.58732 0.2373 1.00124 0.0
H861 H 0.55547 0.38126 0.97712 0.0
H862 H 0.55933 0.3669 0.93571 0.0
H863 H 0.63563 0.26889 0.94995 0.0
C864 C 0.62339 0.29866 0.04243 0.0
C865 C 0.60398 0.3232 0.05829 0.0
C866 C 0.58032 0.35395 0.04984 0.0
C867 C 0.57572 0.35996 0.02622 0.0
C868 C 0.59478 0.3349 0.01116 0.0
C869 C 0.61812 0.30485 0.01888 0.0
C870 C 0.63391 0.28104 0.99904 0.0
C871 C 0.67877 0.28331 0.99806 0.0
C872 C 0.61977 0.23859 1.00043 0.0
C873 C 0.61541 0.30218 0.97898 0.0
C874 C 0.59322 0.33335 0.98637 0.0
C875 C 0.57297 0.35709 0.9711 0.0
C876 C 0.57547 0.34879 0.94761 0.0
C877 C 0.5979 0.31689 0.93959 0.0
C878 C 0.61807 0.29332 0.95557 0.0
H879 H 0.6898 0.628 0.55778 0.0
H880 H 0.75524 0.52095 0.567 0.0
H881 H 0.76194 0.51458 0.52499 0.0
H882 H 0.63702 0.59848 0.50718 0.0
H883 H 0.63957 0.64561 0.49369 0.0
H884 H 0.6399 0.64188 0.52451 0.0
H885 H 0.70472 0.6808 0.52596 0.0
H886 H 0.7047 0.68448 0.49512 0.0
H887 H 0.74626 0.66388 0.50976 0.0
H888 H 0.75988 0.51841 0.4824 0.0
H889 H 0.75025 0.5329 0.44127 0.0
H890 H 0.68825 0.63877 0.459 0.0
C891 C 0.70531 0.60313 0.5509 0.0
C892 C 0.722 0.5749 0.56561 0.0
C893 C 0.74252 0.54302 0.55602 0.0
C894 C 0.74639 0.53912 0.53221 0.0
C895 C 0.72984 0.56752 0.5182 0.0
C896 C 0.70983 0.599 0.52711 0.0
C897 C 0.69512 0.62546 0.50812 0.0
C898 C 0.65024 0.62799 0.5084 0.0
C899 C 0.71383 0.66606 0.50985 0.0
C900 C 0.70967 0.60369 0.48715 0.0
C901 C 0.72953 0.57029 0.49344 0.0
C902 C 0.74462 0.54458 0.47725 0.0
C903 C 0.73899 0.553 0.45399 0.0
C904 C 0.71872 0.58695 0.44712 0.0
C905 C 0.70425 0.61287 0.4639 0.0
H906 H 0.39536 0.65468 0.04946 0.0
H907 H 0.38808 0.7789 0.06245 0.0
H908 H 0.38458 0.7913 0.02087 0.0
H909 H 0.45568 0.66101 0.99914 0.0
H910 H 0.43151 0.62181 0.98423 0.0
H911 H 0.43277 0.62231 0.01512 0.0
H912 H 0.3572 0.61785 0.01629 0.0
H913 H 0.35571 0.61732 0.98539 0.0
H914 H 0.32844 0.65346 1.00108 0.0
H915 H 0.38459 0.79083 0.97825 0.0
H916 H 0.38652 0.77763 0.93687 0.0
H917 H 0.39055 0.65333 0.95077 0.0
C918 C 0.39303 0.68444 0.0435 0.0
C919 C 0.39164 0.71581 0.05921 0.0
C920 C 0.38849 0.75438 0.05077 0.0
C921 C 0.38671 0.76175 0.02717 0.0
C922 C 0.38795 0.73025 0.01217 0.0
C923 C 0.39088 0.69235 0.01992 0.0
C924 C 0.39166 0.66393 0.99998 0.0
C925 C 0.4302 0.64091 0.9996 0.0
C926 C 0.35613 0.63653 1.00073 0.0
C927 C 0.38907 0.69188 0.97988 0.0
C928 C 0.38703 0.72996 0.98737 0.0
C929 C 0.38561 0.76109 0.97214 0.0
C930 C 0.38633 0.75318 0.94857 0.0
C931 C 0.38806 0.71434 0.9403 0.0
C932 C 0.38934 0.68336 0.95635 0.0
H933 H 0.25005 0.43182 0.55409 0.0
H934 H 0.36428 0.38598 0.5714 0.0
H935 H 0.37766 0.37396 0.53025 0.0
H936 H 0.22853 0.36731 0.50708 0.0
H937 H 0.20584 0.40422 0.4896 0.0
H938 H 0.20464 0.40825 0.52041 0.0
H939 H 0.2366 0.47655 0.51803 0.0
H940 H 0.23752 0.47287 0.48721 0.0
H941 H 0.28205 0.48237 0.50278 0.0
H942 H 0.37746 0.36469 0.48758 0.0
H943 H 0.36719 0.36524 0.44579 0.0
H944 H 0.25526 0.42267 0.45573 0.0
C945 C 0.27783 0.41934 0.54908 0.0
C946 C 0.30622 0.40967 0.5657 0.0
C947 C 0.34237 0.39363 0.55875 0.0
C948 C 0.35009 0.38655 0.5355 0.0
C949 C 0.32148 0.39618 0.51945 0.0
C950 C 0.28632 0.4128 0.52586 0.0
C951 C 0.26141 0.42202 0.50504 0.0
C952 C 0.22282 0.39907 0.50557 0.0
C953 C 0.25397 0.46607 0.50315 0.0
C954 C 0.28793 0.40774 0.48597 0.0
C955 C 0.3222 0.39255 0.4947 0.0
C956 C 0.35096 0.37701 0.48051 0.0
C957 C 0.34492 0.37773 0.45671 0.0
C958 C 0.31062 0.39448 0.4472 0.0
C959 C 0.28165 0.40925 0.46224 0.0
H960 H 0.11539 0.26083 0.24847 0.0
H961 H 0.12805 0.33593 0.18912 0.0
H962 H 0.15535 0.38756 0.2137 0.0
H963 H 0.09298 0.33998 0.29106 0.0
H964 H 0.12119 0.31669 0.31328 0.0
H965 H 0.09687 0.28765 0.29179 0.0
H966 H 0.16285 0.25478 0.28109 0.0
H967 H 0.18628 0.28328 0.30295 0.0
H968 H 0.20417 0.28504 0.27389 0.0
H969 H 0.18937 0.42725 0.24303 0.0
H970 H 0.22787 0.45268 0.27561 0.0
H971 H 0.19324 0.35326 0.31667 0.0
C972 C 0.1228 0.28861 0.24084 0.0
C973 C 0.1193 0.29454 0.21693 0.0
C974 C 0.13035 0.33082 0.20741 0.0
C975 C 0.14575 0.36042 0.22125 0.0
C976 C 0.14986 0.3534 0.24465 0.0
C977 C 0.13854 0.31852 0.25446 0.0
C978 C 0.14963 0.31726 0.27967 0.0
C979 C 0.11297 0.31529 0.29485 0.0
C980 C 0.17741 0.28306 0.28465 0.0
C981 C 0.17022 0.3562 0.28222 0.0
C982 C 0.1695 0.37675 0.26184 0.0
C983 C 0.18942 0.41188 0.25923 0.0
C984 C 0.21125 0.42608 0.27779 0.0
C985 C 0.21287 0.40532 0.29871 0.0
C986 C 0.19144 0.37033 0.30108 0.0
H987 H 0.71885 0.17205 0.69335 0.0
H988 H 0.77421 0.08033 0.73287 0.0
H989 H 0.73672 0.10049 0.76713 0.0
H990 H 0.72164 0.243 0.73815 0.0
H991 H 0.6755 0.26486 0.73063 0.0
H992 H 0.70465 0.24158 0.70889 0.0
H993 H 0.64605 0.19718 0.69826 0.0
H994 H 0.61676 0.22025 0.72004 0.0
H995 H 0.62312 0.16816 0.72023 0.0
H996 H 0.69513 0.1317 0.79722 0.0
H997 H 0.65435 0.17357 0.82182 0.0
H998 H 0.62669 0.24632 0.76314 0.0
C999 C 0.72262 0.15587 0.70914 0.0
C1000 C 0.74907 0.12433 0.71045 0.0
C1001 C 0.75396 0.10445 0.73151 0.0
C1002 C 0.73273 0.11563 0.75102 0.0
C1003 C 0.70702 0.14697 0.7492 0.0
C1004 C 0.70206 0.16701 0.72886 0.0
C1005 C 0.67433 0.20109 0.73191 0.0
C1006 C 0.69528 0.23992 0.72711 0.0
C1007 C 0.6379 0.19637 0.71671 0.0
C1008 C 0.66426 0.19691 0.75712 0.0
C1009 C 0.68338 0.16541 0.76671 0.0
C1010 C 0.67981 0.15628 0.78988 0.0
C1011 C 0.6565 0.18023 0.80371 0.0
C1012 C 0.63703 0.21301 0.79437 0.0
C1013 C 0.64069 0.22113 0.77069 0.0
H1014 H 0.79702 0.6812 0.31331 0.0
H1015 H 0.78705 0.56918 0.27958 0.0
H1016 H 0.83117 0.59188 0.24878 0.0
H1017 H 0.79037 0.73555 0.26274 0.0
H1018 H 0.82373 0.77346 0.27136 0.0
H1019 H 0.79688 0.74679 0.29272 0.0
H1020 H 0.86147 0.72789 0.3129 0.0
H1021 H 0.88876 0.75458 0.29163 0.0
H1022 H 0.89948 0.70395 0.29678 0.0
H1023 H 0.87062 0.62757 0.22034 0.0
H1024 H 0.89986 0.67555 0.19408 0.0
H1025 H 0.8831 0.76635 0.24487 0.0
C1026 C 0.80524 0.66123 0.29975 0.0
C1027 C 0.7896 0.6232 0.29891 0.0
C1028 C 0.79931 0.59823 0.28053 0.0
C1029 C 0.8244 0.61083 0.26307 0.0
C1030 C 0.83901 0.64868 0.26414 0.0
C1031 C 0.82961 0.67372 0.28187 0.0
C1032 C 0.84552 0.7143 0.2774 0.0
C1033 C 0.81214 0.74427 0.27596 0.0
C1034 C 0.87561 0.72585 0.29577 0.0
C1035 C 0.86488 0.70821 0.25424 0.0
C1036 C 0.86114 0.66995 0.24716 0.0
C1037 C 0.87423 0.65747 0.22579 0.0
C1038 C 0.89077 0.68493 0.211 0.0
C1039 C 0.89412 0.72445 0.21758 0.0
C1040 C 0.88178 0.73611 0.23968 0.0
H1041 H 0.34341 0.78827 0.80283 0.0
H1042 H 0.44267 0.74592 0.76393 0.0
H1043 H 0.41884 0.78135 0.7297 0.0
H1044 H 0.27506 0.77555 0.75811 0.0
H1045 H 0.24617 0.81781 0.76505 0.0
H1046 H 0.27327 0.7932 0.78721 0.0
H1047 H 0.30845 0.85767 0.79758 0.0
H1048 H 0.28132 0.8826 0.77552 0.0
H1049 H 0.33398 0.88432 0.77556 0.0
H1050 H 0.38265 0.81765 0.69945 0.0
H1051 H 0.33578 0.85125 0.67432 0.0
H1052 H 0.25778 0.86855 0.73217 0.0
C1053 C 0.36067 0.78744 0.78726 0.0
C1054 C 0.39536 0.76514 0.78605 0.0
C1055 C 0.41635 0.76331 0.7652 0.0
C1056 C 0.40302 0.78331 0.74573 0.0
C1057 C 0.36836 0.80453 0.74736 0.0
C1058 C 0.34734 0.80662 0.76754 0.0
C1059 C 0.3093 0.82867 0.76412 0.0
C1060 C 0.27387 0.80223 0.7689 0.0
C1061 C 0.30822 0.86551 0.77909 0.0
C1062 C 0.31229 0.83878 0.73884 0.0
C1063 C 0.34673 0.82466 0.72961 0.0
C1064 C 0.35574 0.82907 0.70649 0.0
C1065 C 0.32882 0.84818 0.69235 0.0
C1066 C 0.29314 0.8627 0.70127 0.0
C1067 C 0.28497 0.85817 0.72491 0.0
H1068 H 0.84039 0.71343 0.81143 0.0
H1069 H 0.9421 0.74701 0.77177 0.0
H1070 H 0.91645 0.71005 0.73845 0.0
H1071 H 0.82549 0.61638 0.78731 0.0
H1072 H 0.77301 0.62106 0.78698 0.0
H1073 H 0.80137 0.64654 0.80829 0.0
H1074 H 0.77007 0.7117 0.79567 0.0
H1075 H 0.74175 0.68665 0.77421 0.0
H1076 H 0.77312 0.72646 0.76605 0.0
H1077 H 0.87894 0.67148 0.70946 0.0
H1078 H 0.83066 0.63732 0.68551 0.0
H1079 H 0.75075 0.63213 0.74329 0.0
C1080 C 0.8577 0.71211 0.79589 0.0
C1081 C 0.89366 0.73214 0.79418 0.0
C1082 C 0.91479 0.73129 0.77338 0.0
C1083 C 0.90044 0.71041 0.75445 0.0
C1084 C 0.86463 0.69127 0.7566 0.0
C1085 C 0.84334 0.69223 0.77671 0.0
C1086 C 0.80415 0.67212 0.77392 0.0
C1087 C 0.80083 0.63693 0.79008 0.0
C1088 C 0.77028 0.70095 0.77767 0.0
C1089 C 0.80678 0.65942 0.74906 0.0
C1090 C 0.84208 0.6705 0.73951 0.0
C1091 C 0.85128 0.66255 0.71676 0.0
C1092 C 0.8236 0.64304 0.7033 0.0
C1093 C 0.78694 0.63189 0.71254 0.0
C1094 C 0.77858 0.64006 0.73579 0.0
H1095 H 0.25277 0.88592 0.25924 0.0
H1096 H 0.33441 0.88409 0.31623 0.0
H1097 H 0.38315 0.85109 0.29197 0.0
H1098 H 0.27497 0.79189 0.2394 0.0
H1099 H 0.27021 0.80303 0.20933 0.0
H1100 H 0.24313 0.83066 0.23019 0.0
H1101 H 0.27336 0.89465 0.21458 0.0
H1102 H 0.30045 0.86715 0.19359 0.0
H1103 H 0.32576 0.89945 0.21294 0.0
H1104 H 0.41991 0.81174 0.26351 0.0
H1105 H 0.44345 0.77044 0.23159 0.0
H1106 H 0.33944 0.7988 0.19247 0.0
C1107 C 0.28132 0.87951 0.26634 0.0
C1108 C 0.29005 0.88782 0.2895 0.0
C1109 C 0.32724 0.87804 0.29848 0.0
C1110 C 0.35515 0.85937 0.28483 0.0
C1111 C 0.34542 0.85065 0.26224 0.0
C1112 C 0.30952 0.86049 0.25295 0.0
C1113 C 0.30558 0.84507 0.22868 0.0
C1114 C 0.27147 0.81595 0.2268 0.0
C1115 C 0.30103 0.87859 0.21143 0.0
C1116 C 0.34468 0.82484 0.22594 0.0
C1117 C 0.36717 0.82837 0.24553 0.0
C1118 C 0.40299 0.80941 0.24787 0.0
C1119 C 0.4161 0.786 0.22974 0.0
C1120 C 0.39362 0.78223 0.20952 0.0
C1121 C 0.35772 0.80225 0.20751 0.0
H1122 H 0.16874 0.29169 0.81513 0.0
H1123 H 0.07656 0.23796 0.77488 0.0
H1124 H 0.10218 0.26956 0.73999 0.0
H1125 H 0.1731 0.38417 0.78294 0.0
H1126 H 0.22556 0.3874 0.78515 0.0
H1127 H 0.19789 0.36352 0.80737 0.0
H1128 H 0.24001 0.3021 0.80218 0.0
H1129 H 0.26749 0.32478 0.77953 0.0
H1130 H 0.24313 0.27901 0.77446 0.0
H1131 H 0.13932 0.30327 0.70936 0.0
H1132 H 0.1857 0.3378 0.6844 0.0
H1133 H 0.25545 0.36931 0.74387 0.0
C1134 C 0.15351 0.2873 0.79904 0.0
C1135 C 0.12044 0.26267 0.79769 0.0
C1136 C 0.10181 0.25685 0.77628 0.0
C1137 C 0.11612 0.27468 0.75639 0.0
C1138 C 0.14919 0.29816 0.75818 0.0
C1139 C 0.16765 0.30467 0.77892 0.0
C1140 C 0.20395 0.32955 0.77577 0.0
C1141 C 0.19986 0.36847 0.78857 0.0
C1142 C 0.24084 0.30751 0.78341 0.0
C1143 C 0.20327 0.33545 0.74998 0.0
C1144 C 0.1712 0.3173 0.74028 0.0
C1145 C 0.1644 0.31784 0.71676 0.0
C1146 C 0.19101 0.33751 0.70272 0.0
C1147 C 0.22419 0.35634 0.71217 0.0
C1148 C 0.23031 0.3553 0.73616 0.0
H1149 H 0.69678 0.15332 0.3012 0.0
H1150 H 0.75577 0.06747 0.25905 0.0
H1151 H 0.71741 0.08904 0.2254 0.0
H1152 H 0.60003 0.14977 0.27161 0.0
H1153 H 0.59321 0.2016 0.27437 0.0
H1154 H 0.62062 0.17534 0.29578 0.0
H1155 H 0.67868 0.22196 0.28966 0.0
H1156 H 0.65253 0.24799 0.26777 0.0
H1157 H 0.69968 0.2272 0.26144 0.0
H1158 H 0.67793 0.12398 0.19581 0.0
H1159 H 0.64212 0.17118 0.17193 0.0
H1160 H 0.60995 0.23602 0.23299 0.0
C1161 C 0.70071 0.13825 0.28504 0.0
C1162 C 0.72877 0.10828 0.28275 0.0
C1163 C 0.73413 0.09019 0.26118 0.0
C1164 C 0.71241 0.10219 0.24201 0.0
C1165 C 0.68558 0.13241 0.24472 0.0
C1166 C 0.67962 0.15022 0.26569 0.0
C1167 C 0.65199 0.18455 0.2635 0.0
C1168 C 0.61422 0.17737 0.27712 0.0
C1169 C 0.67194 0.22266 0.27102 0.0
C1170 C 0.64427 0.18402 0.2379 0.0
C1171 C 0.66339 0.15327 0.22748 0.0
C1172 C 0.66241 0.14783 0.20381 0.0
C1173 C 0.64196 0.17485 0.19039 0.0
C1174 C 0.62298 0.20716 0.2006 0.0
C1175 C 0.62364 0.21131 0.22472 0.0
H1176 H 0.40793 0.25125 0.1434 0.0
H1177 H 0.46291 0.23217 0.20937 0.0
H1178 H 0.39832 0.21484 0.22606 0.0
H1179 H 0.31682 0.29252 0.16522 0.0
H1180 H 0.28811 0.26949 0.1431 0.0
H1181 H 0.33806 0.28301 0.13748 0.0
H1182 H 0.35337 0.21186 0.12557 0.0
H1183 H 0.30363 0.19805 0.13137 0.0
H1184 H 0.34321 0.17282 0.14535 0.0
H1185 H 0.32727 0.19393 0.23407 0.0
H1186 H 0.25669 0.17698 0.23335 0.0
H1187 H 0.25105 0.21046 0.16174 0.0
C1188 C 0.40628 0.24376 0.16142 0.0
C1189 C 0.44015 0.24278 0.17513 0.0
C1190 C 0.43703 0.2333 0.19869 0.0
C1191 C 0.4006 0.22326 0.20822 0.0
C1192 C 0.3678 0.22344 0.19394 0.0
C1193 C 0.37042 0.23404 0.1711 0.0
C1194 C 0.3315 0.2312 0.15906 0.0
C1195 C 0.31782 0.27145 0.15074 0.0
C1196 C 0.33305 0.20172 0.13917 0.0
C1197 C 0.30649 0.21654 0.1785 0.0
C1198 C 0.32765 0.21218 0.19855 0.0
C1199 C 0.31042 0.19763 0.2185 0.0
C1200 C 0.27049 0.18779 0.2179 0.0
C1201 C 0.24845 0.19275 0.19752 0.0
C1202 C 0.26698 0.2071 0.17767 0.0
H1203 H 0.83549 0.2652 0.7005 0.0
H1204 H 0.83519 0.25114 0.62669 0.0
H1205 H 0.81421 0.31973 0.62209 0.0
H1206 H 0.74895 0.32091 0.70265 0.0
H1207 H 0.76454 0.35176 0.72595 0.0
H1208 H 0.78378 0.3032 0.72337 0.0
H1209 H 0.85437 0.33054 0.72322 0.0
H1210 H 0.83539 0.37924 0.72595 0.0
H1211 H 0.86773 0.36729 0.70259 0.0
H1212 H 0.7901 0.38854 0.62569 0.0
H1213 H 0.76206 0.45183 0.6371 0.0
H1214 H 0.77634 0.42061 0.70878 0.0
C1215 C 0.83198 0.27704 0.68341 0.0
C1216 C 0.83757 0.25339 0.66388 0.0
C1217 C 0.83134 0.26917 0.64176 0.0
C1218 C 0.81951 0.30797 0.63903 0.0
C1219 C 0.81363 0.33046 0.65864 0.0
C1220 C 0.8195 0.31556 0.68042 0.0
C1221 C 0.80807 0.34485 0.69866 0.0
C1222 C 0.77434 0.32925 0.71352 0.0
C1223 C 0.84351 0.35615 0.71347 0.0
C1224 C 0.79485 0.37851 0.68374 0.0
C1225 C 0.79858 0.36973 0.66072 0.0
C1226 C 0.78735 0.39589 0.64368 0.0
C1227 C 0.77163 0.4319 0.65033 0.0
C1228 C 0.76703 0.44139 0.67384 0.0
C1229 C 0.77916 0.41424 0.69067 0.0
H1230 H 0.58403 0.7948 0.13629 0.0
H1231 H 0.56296 0.72347 0.19661 0.0
H1232 H 0.63087 0.73471 0.2091 0.0
H1233 H 0.68242 0.76556 0.12618 0.0
H1234 H 0.69807 0.81344 0.11748 0.0
H1235 H 0.64813 0.79867 0.11311 0.0
H1236 H 0.62438 0.85894 0.13597 0.0
H1237 H 0.67427 0.8738 0.14051 0.0
H1238 H 0.64223 0.86688 0.16471 0.0
H1239 H 0.70232 0.75374 0.2148 0.0
H1240 H 0.77009 0.77921 0.21302 0.0
H1241 H 0.7419 0.84045 0.15017 0.0
C1242 C 0.59316 0.78168 0.15225 0.0
C1243 C 0.56749 0.75826 0.16539 0.0
C1244 C 0.5817 0.74123 0.18597 0.0
C1245 C 0.62033 0.74764 0.19334 0.0
C1246 C 0.64445 0.77134 0.18005 0.0
C1247 C 0.6313 0.7881 0.15996 0.0
C1248 C 0.6627 0.81269 0.14881 0.0
C1249 C 0.67346 0.79662 0.12499 0.0
C1250 C 0.65013 0.85562 0.14743 0.0
C1251 C 0.69572 0.80718 0.16575 0.0
C1252 C 0.68481 0.78307 0.18362 0.0
C1253 C 0.71103 0.77281 0.20094 0.0
C1254 C 0.7494 0.78734 0.19979 0.0
C1255 C 0.76104 0.81213 0.18161 0.0
C1256 C 0.73361 0.82229 0.16453 0.0
H1257 H 0.21324 0.57263 0.70155 0.0
H1258 H 0.2844 0.55537 0.64095 0.0
H1259 H 0.27564 0.62474 0.63057 0.0
H1260 H 0.14384 0.6339 0.67722 0.0
H1261 H 0.13838 0.66549 0.70172 0.0
H1262 H 0.1532 0.61567 0.70571 0.0
H1263 H 0.21546 0.6381 0.7274 0.0
H1264 H 0.20034 0.68798 0.72398 0.0
H1265 H 0.24786 0.67279 0.7141 0.0
H1266 H 0.25245 0.69282 0.62458 0.0
H1267 H 0.22525 0.75913 0.62618 0.0
H1268 H 0.17151 0.73295 0.69184 0.0
C1269 C 0.22757 0.58383 0.68636 0.0
C1270 C 0.24948 0.55906 0.67199 0.0
C1271 C 0.26794 0.57427 0.65224 0.0
C1272 C 0.26282 0.61339 0.64616 0.0
C1273 C 0.23971 0.63672 0.66027 0.0
C1274 C 0.22316 0.62281 0.68026 0.0
C1275 C 0.1992 0.65379 0.69223 0.0
C1276 C 0.15611 0.64146 0.69433 0.0
C1277 C 0.21678 0.66376 0.71582 0.0
C1278 C 0.20399 0.68705 0.6755 0.0
C1279 C 0.22732 0.67648 0.65716 0.0
C1280 C 0.23484 0.70172 0.63908 0.0
C1281 C 0.21923 0.73927 0.64015 0.0
C1282 C 0.19676 0.75141 0.6593 0.0
C1283 C 0.18843 0.72459 0.67696 0.0
H1284 H 0.93795 0.31249 0.83261 0.0
H1285 H 0.93152 0.18996 0.85032 0.0
H1286 H 0.85991 0.19166 0.84478 0.0
H1287 H 0.85407 0.34176 0.86225 0.0
H1288 H 0.8386 0.3771 0.84127 0.0
H1289 H 0.88962 0.36535 0.84414 0.0
H1290 H 0.89284 0.34742 0.80098 0.0
H1291 H 0.8418 0.35933 0.79794 0.0
H1292 H 0.85925 0.31193 0.78953 0.0
H1293 H 0.78893 0.20802 0.84052 0.0
H1294 H 0.72347 0.23714 0.83698 0.0
H1295 H 0.7756 0.34967 0.82276 0.0
C1296 C 0.92162 0.28591 0.83522 0.0
C1297 C 0.94045 0.25104 0.84198 0.0
C1298 C 0.91787 0.21684 0.8449 0.0
C1299 C 0.87717 0.2176 0.84187 0.0
C1300 C 0.85954 0.2527 0.83574 0.0
C1301 C 0.88106 0.28616 0.83225 0.0
C1302 C 0.85485 0.32053 0.82674 0.0
C1303 C 0.85957 0.3531 0.84467 0.0
C1304 C 0.86266 0.33568 0.80235 0.0
C1305 C 0.81506 0.30145 0.82838 0.0
C1306 C 0.81851 0.26223 0.83338 0.0
C1307 C 0.78591 0.23864 0.83655 0.0
C1308 C 0.74883 0.25559 0.83475 0.0
C1309 C 0.7445 0.29586 0.82996 0.0
C1310 C 0.77813 0.31887 0.82639 0.0
H1311 H 0.71604 0.75708 0.3583 0.0
H1312 H 0.69684 0.747 0.28509 0.0
H1313 H 0.72131 0.81422 0.27962 0.0
H1314 H 0.68243 0.85327 0.36336 0.0
H1315 H 0.71745 0.8673 0.38495 0.0
H1316 H 0.7025 0.81726 0.38253 0.0
H1317 H 0.7749 0.79639 0.37797 0.0
H1318 H 0.7901 0.84649 0.38026 0.0
H1319 H 0.80425 0.81797 0.35566 0.0
H1320 H 0.74523 0.88403 0.28265 0.0
H1321 H 0.76065 0.95181 0.29429 0.0
H1322 H 0.7618 0.91621 0.36555 0.0
C1323 C 0.71751 0.76899 0.34113 0.0
C1324 C 0.70459 0.74709 0.32213 0.0
C1325 C 0.70624 0.76361 0.29989 0.0
C1326 C 0.72044 0.80156 0.29661 0.0
C1327 C 0.73266 0.8226 0.31579 0.0
C1328 C 0.73105 0.80693 0.33763 0.0
C1329 C 0.74288 0.83647 0.35559 0.0
C1330 C 0.70931 0.84402 0.3726 0.0
C1331 C 0.78026 0.82355 0.36811 0.0
C1332 C 0.75046 0.87152 0.34054 0.0
C1333 C 0.74527 0.86283 0.31758 0.0
C1334 C 0.74963 0.89108 0.30056 0.0
C1335 C 0.75857 0.92939 0.30727 0.0
C1336 C 0.76233 0.93905 0.33077 0.0
C1337 C 0.75896 0.90951 0.34747 0.0
H1338 H 0.09648 0.75632 0.86931 0.0
H1339 H 0.0505 0.75676 0.80011 0.0
H1340 H 0.11582 0.73806 0.78518 0.0
H1341 H 0.19432 0.79503 0.85451 0.0
H1342 H 0.21814 0.76532 0.87581 0.0
H1343 H 0.16875 0.78177 0.88039 0.0
H1344 H 0.14656 0.71032 0.88626 0.0
H1345 H 0.19571 0.69363 0.88144 0.0
H1346 H 0.15625 0.67489 0.86416 0.0
H1347 H 0.18476 0.71134 0.77873 0.0
H1348 H 0.2527 0.68624 0.7809 0.0
H1349 H 0.25376 0.70697 0.85416 0.0
C1350 C 0.10045 0.75316 0.85098 0.0
C1351 C 0.06863 0.758 0.83581 0.0
C1352 C 0.07471 0.75363 0.81193 0.0
C1353 C 0.1116 0.74279 0.80337 0.0
C1354 C 0.14219 0.73717 0.81891 0.0
C1355 C 0.1371 0.74302 0.84219 0.0
C1356 C 0.1742 0.7344 0.85543 0.0
C1357 C 0.18977 0.77134 0.86723 0.0
C1358 C 0.16777 0.70135 0.87284 0.0
C1359 C 0.20077 0.72169 0.83609 0.0
C1360 C 0.18185 0.72331 0.81513 0.0
C1361 C 0.19995 0.71056 0.79501 0.0
C1362 C 0.23834 0.69607 0.7964 0.0
C1363 C 0.25829 0.69489 0.81768 0.0
C1364 C 0.23923 0.70811 0.83767 0.0
H1365 H 0.34915 0.24668 0.31882 0.0
H1366 H 0.23325 0.28949 0.3354 0.0
H1367 H 0.20774 0.22257 0.33442 0.0
H1368 H 0.31687 0.16752 0.28039 0.0
H1369 H 0.35435 0.13464 0.29021 0.0
H1370 H 0.36309 0.18639 0.29026 0.0
H1371 H 0.37996 0.18363 0.33361 0.0
H1372 H 0.37132 0.13196 0.33369 0.0
H1373 H 0.34516 0.16292 0.35337 0.0
H1374 H 0.19509 0.15103 0.33344 0.0
H1375 H 0.19733 0.07925 0.33503 0.0
H1376 H 0.32126 0.08225 0.31942 0.0
C1377 C 0.31833 0.24198 0.32192 0.0
C1378 C 0.29327 0.27342 0.32721 0.0
C1379 C 0.2532 0.26595 0.33159 0.0
C1380 C 0.23829 0.22802 0.33085 0.0
C1381 C 0.26378 0.1977 0.32573 0.0
C1382 C 0.30298 0.20416 0.32142 0.0
C1383 C 0.32452 0.16612 0.31777 0.0
C1384 C 0.34065 0.16352 0.29319 0.0
C1385 C 0.35715 0.16086 0.33568 0.0
C1386 C 0.29153 0.13734 0.32144 0.0
C1387 C 0.25659 0.15621 0.32555 0.0
C1388 C 0.2222 0.13587 0.33005 0.0
C1389 C 0.2237 0.09511 0.3308 0.0
C1390 C 0.25943 0.07515 0.32734 0.0
C1391 C 0.29358 0.09669 0.32226 0.0
H1392 H 0.59445 0.73584 0.86627 0.0
H1393 H 0.55329 0.74426 0.79617 0.0
H1394 H 0.62002 0.7629 0.78358 0.0
H1395 H 0.65534 0.81679 0.86566 0.0
H1396 H 0.69323 0.79575 0.88322 0.0
H1397 H 0.64359 0.77923 0.88613 0.0
H1398 H 0.66547 0.70826 0.87818 0.0
H1399 H 0.71534 0.72454 0.87546 0.0
H1400 H 0.69278 0.69742 0.85252 0.0
H1401 H 0.68989 0.78837 0.7798 0.0
H1402 H 0.75757 0.81288 0.78461 0.0
H1403 H 0.75281 0.78547 0.85707 0.0
C1404 C 0.59967 0.74103 0.84821 0.0
C1405 C 0.56878 0.73868 0.83216 0.0
C1406 C 0.57667 0.7455 0.80867 0.0
C1407 C 0.61441 0.75629 0.80143 0.0
C1408 C 0.64399 0.75946 0.81787 0.0
C1409 C 0.6371 0.75133 0.84073 0.0
C1410 C 0.67327 0.75807 0.85519 0.0
C1411 C 0.6659 0.78932 0.87363 0.0
C1412 C 0.68756 0.71979 0.86597 0.0
C1413 C 0.7014 0.77244 0.83706 0.0
C1414 C 0.68409 0.77304 0.81561 0.0
C1415 C 0.7038 0.78752 0.79648 0.0
C1416 C 0.74207 0.80167 0.79938 0.0
C1417 C 0.76032 0.80096 0.8212 0.0
C1418 C 0.7397 0.7858 0.84016 0.0
H1419 H 0.25109 0.60952 0.36925 0.0
H1420 H 0.22778 0.5575 0.30286 0.0
H1421 H 0.20782 0.62202 0.28785 0.0
H1422 H 0.17056 0.67357 0.37007 0.0
H1423 H 0.19649 0.71276 0.38393 0.0
H1424 H 0.21114 0.66313 0.38883 0.0
H1425 H 0.28155 0.67955 0.37556 0.0
H1426 H 0.26718 0.72934 0.37078 0.0
H1427 H 0.28906 0.70165 0.34786 0.0
H1428 H 0.18618 0.69201 0.28114 0.0
H1429 H 0.16902 0.76189 0.28251 0.0
H1430 H 0.20676 0.76716 0.35348 0.0
C1431 C 0.24188 0.61168 0.35153 0.0
C1432 C 0.24076 0.57848 0.33723 0.0
C1433 C 0.22914 0.58264 0.31403 0.0
C1434 C 0.21756 0.6191 0.30543 0.0
C1435 C 0.21818 0.65108 0.32021 0.0
C1436 C 0.2305 0.64772 0.3427 0.0
C1437 C 0.22809 0.68625 0.35522 0.0
C1438 C 0.19989 0.68376 0.37572 0.0
C1439 C 0.2689 0.7 0.36279 0.0
C1440 C 0.21181 0.71181 0.3364 0.0
C1441 C 0.20626 0.69109 0.31632 0.0
C1442 C 0.19057 0.70849 0.29677 0.0
C1443 C 0.18058 0.74812 0.29777 0.0
C1444 C 0.18647 0.76994 0.31814 0.0
C1445 C 0.20229 0.75133 0.33763 0.0
H1446 H 0.43601 0.17083 0.82342 0.0
H1447 H 0.43328 0.29642 0.83132 0.0
H1448 H 0.36121 0.29491 0.82981 0.0
H1449 H 0.34901 0.16304 0.78533 0.0
H1450 H 0.3332 0.11837 0.79862 0.0
H1451 H 0.38455 0.1299 0.79716 0.0
H1452 H 0.38987 0.12204 0.84127 0.0
H1453 H 0.33857 0.11088 0.84291 0.0
H1454 H 0.35842 0.15039 0.85962 0.0
H1455 H 0.29022 0.2791 0.83238 0.0
H1456 H 0.22447 0.25087 0.83625 0.0
H1457 H 0.27249 0.13504 0.82719 0.0
C1458 C 0.42032 0.1981 0.82451 0.0
C1459 C 0.4404 0.2338 0.8275 0.0
C1460 C 0.41868 0.26883 0.82869 0.0
C1461 C 0.37769 0.26821 0.82797 0.0
C1462 C 0.35887 0.23238 0.8258 0.0
C1463 C 0.37944 0.19799 0.82376 0.0
C1464 C 0.35211 0.1632 0.82293 0.0
C1465 C 0.35489 0.14241 0.79962 0.0
C1466 C 0.36023 0.13498 0.84287 0.0
C1467 C 0.313 0.18329 0.82571 0.0
C1468 C 0.31764 0.22322 0.82714 0.0
C1469 C 0.28617 0.24794 0.83102 0.0
C1470 C 0.24896 0.23153 0.83348 0.0
C1471 C 0.24338 0.19065 0.83225 0.0
C1472 C 0.27587 0.16634 0.82801 0.0
H1473 H 0.85654 0.27574 0.32971 0.0
H1474 H 0.74807 0.2336 0.30028 0.0
H1475 H 0.7214 0.30042 0.3009 0.0
H1476 H 0.81551 0.34172 0.36786 0.0
H1477 H 0.85269 0.37849 0.36457 0.0
H1478 H 0.86448 0.32813 0.35973 0.0
H1479 H 0.88936 0.34467 0.31888 0.0
H1480 H 0.87797 0.39525 0.32366 0.0
H1481 H 0.8577 0.37015 0.29923 0.0
H1482 H 0.70484 0.37133 0.30796 0.0
H1483 H 0.7003 0.44007 0.32018 0.0
H1484 H 0.82074 0.4355 0.34353 0.0
C1485 C 0.82756 0.28065 0.32286 0.0
C1486 C 0.80432 0.24936 0.31502 0.0
C1487 C 0.76617 0.25704 0.30666 0.0
C1488 C 0.7509 0.29494 0.30679 0.0
C1489 C 0.77428 0.32498 0.31517 0.0
C1490 C 0.81194 0.31827 0.32285 0.0
C1491 C 0.83037 0.35511 0.3321 0.0
C1492 C 0.84139 0.35057 0.35757 0.0
C1493 C 0.86596 0.36699 0.3176 0.0
C1494 C 0.79689 0.38337 0.32899 0.0
C1495 C 0.76487 0.36562 0.31904 0.0
C1496 C 0.72995 0.38567 0.31547 0.0
C1497 C 0.72767 0.42479 0.32242 0.0
C1498 C 0.76008 0.44342 0.3329 0.0
C1499 C 0.7952 0.42228 0.33586 0.0
H1500 H 0.0943 0.7501 0.14314 0.0
H1501 H 0.05832 0.75789 0.21417 0.0
H1502 H 0.1262 0.74282 0.22655 0.0
H1503 H 0.15616 0.67089 0.1485 0.0
H1504 H 0.19253 0.68812 0.12857 0.0
H1505 H 0.14251 0.70344 0.1256 0.0
H1506 H 0.16391 0.7758 0.12748 0.0
H1507 H 0.21414 0.76068 0.13015 0.0
H1508 H 0.19295 0.79248 0.15137 0.0
H1509 H 0.19688 0.71893 0.23053 0.0
H1510 H 0.26482 0.695 0.22585 0.0
H1511 H 0.2537 0.70533 0.15209 0.0
C1512 C 0.10096 0.74929 0.1613 0.0
C1513 C 0.07131 0.75507 0.17775 0.0
C1514 C 0.08088 0.75393 0.20136 0.0
C1515 C 0.11922 0.74518 0.20849 0.0
C1516 C 0.1476 0.73841 0.19172 0.0
C1517 C 0.13897 0.74118 0.1686 0.0
C1518 C 0.17407 0.73158 0.15389 0.0
C1519 C 0.1658 0.69642 0.13823 0.0
C1520 C 0.18703 0.76726 0.1399 0.0
C1521 C 0.2036 0.72166 0.17226 0.0
C1522 C 0.18798 0.72576 0.19401 0.0
C1523 C 0.20945 0.71611 0.21357 0.0
C1524 C 0.24783 0.70221 0.21077 0.0
C1525 C 0.26434 0.69837 0.18859 0.0
C1526 C 0.24186 0.70844 0.16921 0.0
H1527 H 0.34699 0.22639 0.6886 0.0
H1528 H 0.27556 0.26771 0.63184 0.0
H1529 H 0.24763 0.20241 0.62751 0.0
H1530 H 0.37014 0.13475 0.6622 0.0
H1531 H 0.37002 0.10862 0.68902 0.0
H1532 H 0.38264 0.15948 0.6885 0.0
H1533 H 0.32851 0.17329 0.71853 0.0
H1534 H 0.3152 0.12254 0.7188 0.0
H1535 H 0.27885 0.15898 0.71249 0.0
H1536 H 0.22547 0.13292 0.63003 0.0
H1537 H 0.2202 0.06127 0.63471 0.0
H1538 H 0.31003 0.06448 0.68696 0.0
C1539 C 0.32574 0.22203 0.67513 0.0
C1540 C 0.31281 0.25306 0.66109 0.0
C1541 C 0.28513 0.24519 0.64349 0.0
C1542 C 0.26904 0.20801 0.64079 0.0
C1543 C 0.28144 0.17864 0.65547 0.0
C1544 C 0.30987 0.18495 0.67189 0.0
C1545 C 0.32004 0.14775 0.68441 0.0
C1546 C 0.36327 0.13702 0.6808 0.0
C1547 C 0.31004 0.15084 0.71007 0.0
C1548 C 0.29308 0.11953 0.67229 0.0
C1549 C 0.27037 0.13808 0.65601 0.0
C1550 C 0.24314 0.11801 0.64267 0.0
C1551 C 0.24006 0.0776 0.64553 0.0
C1552 C 0.2646 0.05801 0.66122 0.0
C1553 C 0.2909 0.07925 0.67498 0.0
H1554 H 0.77388 0.35157 0.17195 0.0
H1555 H 0.72656 0.23524 0.17938 0.0
H1556 H 0.79345 0.20829 0.18099 0.0
H1557 H 0.85128 0.32535 0.13473 0.0
H1558 H 0.88601 0.35929 0.14663 0.0
H1559 H 0.83452 0.36974 0.14799 0.0
H1560 H 0.83926 0.37732 0.19216 0.0
H1561 H 0.89084 0.36692 0.19094 0.0
H1562 H 0.85938 0.33822 0.20907 0.0
H1563 H 0.86526 0.19384 0.18052 0.0
H1564 H 0.93712 0.19261 0.1759 0.0
H1565 H 0.93762 0.31811 0.16787 0.0
C1566 C 0.77783 0.32054 0.1742 0.0
C1567 C 0.74534 0.2954 0.17547 0.0
C1568 C 0.75126 0.25483 0.17809 0.0
C1569 C 0.78906 0.23934 0.17921 0.0
C1570 C 0.82058 0.26482 0.17759 0.0
C1571 C 0.81541 0.30454 0.17505 0.0
C1572 C 0.85419 0.32522 0.17234 0.0
C1573 C 0.85663 0.34612 0.14904 0.0
C1574 C 0.86133 0.35359 0.19232 0.0
C1575 C 0.88185 0.29088 0.17341 0.0
C1576 C 0.86194 0.25637 0.17677 0.0
C1577 C 0.88123 0.2207 0.178 0.0
C1578 C 0.92199 0.22027 0.17546 0.0
C1579 C 0.94283 0.25522 0.17147 0.0
C1580 C 0.92239 0.29092 0.17067 0.0
H1581 H 0.71046 0.93688 0.63626 0.0
H1582 H 0.81871 0.94226 0.67531 0.0
H1583 H 0.81684 0.87099 0.67981 0.0
H1584 H 0.66458 0.86582 0.67092 0.0
H1585 H 0.64032 0.8423 0.6472 0.0
H1586 H 0.65181 0.89337 0.64569 0.0
H1587 H 0.68995 0.88177 0.60789 0.0
H1588 H 0.67862 0.83061 0.60929 0.0
H1589 H 0.72878 0.84632 0.60728 0.0
H1590 H 0.80182 0.7984 0.68091 0.0
H1591 H 0.77365 0.73212 0.6798 0.0
H1592 H 0.67423 0.7757 0.6415 0.0
C1593 C 0.73392 0.92365 0.64587 0.0
C1594 C 0.76474 0.94603 0.65544 0.0
C1595 C 0.79484 0.92636 0.66758 0.0
C1596 C 0.79401 0.88567 0.6703 0.0
C1597 C 0.7629 0.86489 0.66084 0.0
C1598 C 0.73337 0.88332 0.64894 0.0
C1599 C 0.70228 0.8548 0.64118 0.0
C1600 C 0.6624 0.86466 0.6519 0.0
C1601 C 0.69978 0.85329 0.61485 0.0
C1602 C 0.71864 0.81733 0.65082 0.0
C1603 C 0.75387 0.8236 0.66187 0.0
C1604 C 0.77435 0.79322 0.67221 0.0
C1605 C 0.75824 0.75562 0.67137 0.0
C1606 C 0.7218 0.74876 0.66048 0.0
C1607 C 0.70199 0.78012 0.65002 0.0
loop_
_geom_bond_atom_site_label_1
_geom_bond_atom_site_label_2
_geom_bond_distance
_geom_bond_site_symmetry_2
_ccdc_geom_bond_type
Co0 N4 2.148 . S
Co0 N10 2.128 . S
Co0 N20 2.194 . S
Co0 O25 2.351 . S
Co0 O26 2.155 . S
Co0 O27 2.096 . S
C1 N4 1.301 . S
C1 N5 1.328 . S
C1 H6 0.930 . S
C2 C3 1.333 . S
C2 N4 1.317 . S
C2 H7 0.930 . S
C3 C2 1.333 . S
C3 N5 1.350 . S
C3 H29 0.931 . S
N4 Co0 2.148 . S
N4 C1 1.301 . S
N4 C2 1.317 . S
N5 C1 1.328 . S
N5 C3 1.350 . S
H6 C1 0.930 . S
H7 C2 0.930 . S
C8 O9 1.224 . S
C8 O27 1.247 . S
O9 C8 1.224 . S
N10 Co0 2.128 . S
N10 C11 1.355 1_455 S
N10 C13 1.311 1_455 S
C11 N10 1.355 1_655 S
C11 C12 1.363 . S
C11 H23 0.929 1_655 S
C12 C11 1.363 . S
C12 N14 1.375 . S
C12 H30 0.931 . S
C13 N10 1.311 1_655 S
C13 N14 1.347 . S
C13 H24 0.929 . S
N14 C12 1.375 . S
N14 C13 1.347 . S
C15 C18 1.365 . S
C15 N20 1.328 . S
C15 H21 0.929 . S
C16 C17 1.362 . S
C16 C19 1.378 . S
C16 H31 0.929 . S
C17 C16 1.362 . S
C17 C18 1.366 . S
C18 C15 1.365 . S
C18 C17 1.366 . S
C18 H32 0.930 . S
C19 C16 1.378 . S
C19 N20 1.315 . S
C19 H22 0.930 . S
N20 Co0 2.194 . S
N20 C15 1.328 . S
N20 C19 1.315 . S
H21 C15 0.929 . S
H22 C19 0.930 . S
H23 C11 0.929 1_455 S
H24 C13 0.929 . S
O25 Co0 2.351 . S
O25 C28 1.244 . S
O26 Co0 2.155 . S
O26 C28 1.240 . S
O27 Co0 2.096 . S
O27 C8 1.247 . S
C28 O25 1.244 . S
C28 O26 1.240 . S
H29 C3 0.931 . S
H30 C12 0.931 . S
H31 C16 0.929 . S
H32 C18 0.930 . S
Co33 N37 2.148 . S
Co33 N43 2.128 . S
Co33 N53 2.194 . S
Co33 O58 2.351 . S
Co33 O59 2.155 . S
Co33 O60 2.096 . S
C34 N37 1.301 . S
C34 N38 1.328 . S
C34 H39 0.930 . S
C35 C36 1.333 . S
C35 N37 1.317 . S
C35 H40 0.930 . S
C36 C35 1.333 . S
C36 N38 1.350 . S
C36 H62 0.931 . S
N37 Co33 2.148 . S
N37 C34 1.301 . S
N37 C35 1.317 . S
N38 C34 1.328 . S
N38 C36 1.350 . S
H39 C34 0.930 . S
H40 C35 0.930 . S
C41 O42 1.224 . S
C41 O60 1.247 . S
O42 C41 1.224 . S
N43 Co33 2.128 . S
N43 C44 1.355 1_545 S
N43 C46 1.311 1_545 S
C44 N43 1.355 1_565 S
C44 C45 1.363 . S
C44 H56 0.929 1_565 S
C45 C44 1.363 . S
C45 N47 1.375 . S
C45 H63 0.931 . S
C46 N43 1.311 1_565 S
C46 N47 1.347 . S
C46 H57 0.929 . S
N47 C45 1.375 . S
N47 C46 1.347 . S
C48 C51 1.365 . S
C48 N53 1.328 . S
C48 H54 0.929 . S
C49 C50 1.362 . S
C49 C52 1.378 . S
C49 H64 0.929 . S
C50 C49 1.362 . S
C50 C51 1.366 . S
C51 C48 1.365 . S
C51 C50 1.366 . S
C51 H65 0.930 . S
C52 C49 1.378 . S
C52 N53 1.315 . S
C52 H55 0.930 . S
N53 Co33 2.194 . S
N53 C48 1.328 . S
N53 C52 1.315 . S
H54 C48 0.929 . S
H55 C52 0.930 . S
H56 C44 0.929 1_545 S
H57 C46 0.929 . S
O58 Co33 2.351 . S
O58 C61 1.244 . S
O59 Co33 2.155 . S
O59 C61 1.240 . S
O60 Co33 2.096 . S
O60 C41 1.247 . S
C61 O58 1.244 . S
C61 O59 1.240 . S
H62 C36 0.931 . S
H63 C45 0.931 . S
H64 C49 0.929 . S
H65 C51 0.930 . S
Co66 N70 2.148 . S
Co66 N76 2.128 . S
Co66 N86 2.194 . S
Co66 O91 2.351 . S
Co66 O92 2.155 . S
Co66 O93 2.096 . S
C67 N70 1.301 . S
C67 N71 1.328 . S
C67 H72 0.930 . S
C68 C69 1.333 . S
C68 N70 1.317 . S
C68 H73 0.930 . S
C69 C68 1.333 . S
C69 N71 1.350 . S
C69 H95 0.931 . S
N70 Co66 2.148 . S
N70 C67 1.301 . S
N70 C68 1.317 . S
N71 C67 1.328 . S
N71 C69 1.350 . S
H72 C67 0.930 . S
H73 C68 0.930 . S
C74 O75 1.224 . S
C74 O93 1.247 . S
O75 C74 1.224 . S
N76 Co66 2.128 . S
N76 C77 1.355 1_655 S
N76 C79 1.311 1_655 S
C77 N76 1.355 1_455 S
C77 C78 1.363 . S
C77 H89 0.929 1_455 S
C78 C77 1.363 . S
C78 N80 1.375 . S
C78 H96 0.931 . S
C79 N76 1.311 1_455 S
C79 N80 1.347 . S
C79 H90 0.929 . S
N80 C78 1.375 . S
N80 C79 1.347 . S
C81 C84 1.365 . S
C81 N86 1.328 . S
C81 H87 0.929 . S
C82 C83 1.362 . S
C82 C85 1.378 . S
C82 H97 0.929 . S
C83 C82 1.362 . S
C83 C84 1.366 . S
C84 C81 1.365 . S
C84 C83 1.366 . S
C84 H98 0.930 . S
C85 C82 1.378 . S
C85 N86 1.315 . S
C85 H88 0.930 . S
N86 Co66 2.194 . S
N86 C81 1.328 . S
N86 C85 1.315 . S
H87 C81 0.929 . S
H88 C85 0.930 . S
H89 C77 0.929 1_655 S
H90 C79 0.929 . S
O91 Co66 2.351 . S
O91 C94 1.244 . S
O92 Co66 2.155 . S
O92 C94 1.240 . S
O93 Co66 2.096 . S
O93 C74 1.247 . S
C94 O91 1.244 . S
C94 O92 1.240 . S
H95 C69 0.931 . S
H96 C78 0.931 . S
H97 C82 0.929 . S
H98 C84 0.930 . S
Co99 N103 2.148 . S
Co99 N109 2.128 . S
Co99 N119 2.194 . S
Co99 O124 2.351 . S
Co99 O125 2.155 . S
Co99 O126 2.096 . S
C100 N103 1.301 . S
C100 N104 1.328 . S
C100 H105 0.930 . S
C101 C102 1.333 . S
C101 N103 1.317 . S
C101 H106 0.930 . S
C102 C101 1.333 . S
C102 N104 1.350 . S
C102 H128 0.931 . S
N103 Co99 2.148 . S
N103 C100 1.301 . S
N103 C101 1.317 . S
N104 C100 1.328 . S
N104 C102 1.350 . S
H105 C100 0.930 . S
H106 C101 0.930 . S
C107 O108 1.224 . S
C107 O126 1.247 . S
O108 C107 1.224 . S
N109 Co99 2.128 . S
N109 C110 1.355 1_565 S
N109 C112 1.311 1_565 S
C110 N109 1.355 1_545 S
C110 C111 1.363 . S
C110 H122 0.929 1_545 S
C111 C110 1.363 . S
C111 N113 1.375 . S
C111 H129 0.931 . S
C112 N109 1.311 1_545 S
C112 N113 1.347 . S
C112 H123 0.929 . S
N113 C111 1.375 . S
N113 C112 1.347 . S
C114 C117 1.365 . S
C114 N119 1.328 . S
C114 H120 0.929 . S
C115 C116 1.362 . S
C115 C118 1.378 . S
C115 H130 0.929 . S
C116 C115 1.362 . S
C116 C117 1.366 . S
C117 C114 1.365 . S
C117 C116 1.366 . S
C117 H131 0.930 . S
C118 C115 1.378 . S
C118 N119 1.315 . S
C118 H121 0.930 . S
N119 Co99 2.194 . S
N119 C114 1.328 . S
N119 C118 1.315 . S
H120 C114 0.929 . S
H121 C118 0.930 . S
H122 C110 0.929 1_565 S
H123 C112 0.929 . S
O124 Co99 2.351 . S
O124 C127 1.244 . S
O125 Co99 2.155 . S
O125 C127 1.240 . S
O126 Co99 2.096 . S
O126 C107 1.247 . S
C127 O124 1.244 . S
C127 O125 1.240 . S
H128 C102 0.931 . S
H129 C111 0.931 . S
H130 C115 0.929 . S
H131 C117 0.930 . S
Co132 N136 2.148 . S
Co132 N142 2.128 . S
Co132 N152 2.194 . S
Co132 O157 2.351 . S
Co132 O158 2.155 . S
Co132 O159 2.096 . S
C133 N136 1.301 . S
C133 N137 1.328 . S
C133 H138 0.930 . S
C134 C135 1.333 . S
C134 N136 1.317 . S
C134 H139 0.930 . S
C135 C134 1.333 . S
C135 N137 1.350 . S
C135 H161 0.931 . S
N136 Co132 2.148 . S
N136 C133 1.301 . S
N136 C134 1.317 . S
N137 C133 1.328 . S
N137 C135 1.350 . S
H138 C133 0.930 . S
H139 C134 0.930 . S
C140 O141 1.224 . S
C140 O159 1.247 . S
O141 C140 1.224 . S
N142 Co132 2.128 . S
N142 C143 1.355 . S
N142 C145 1.311 . S
C143 N142 1.355 . S
C143 C144 1.363 . S
C143 H155 0.929 . S
C144 C143 1.363 . S
C144 N146 1.375 . S
C144 H162 0.931 . S
C145 N142 1.311 . S
C145 N146 1.347 . S
C145 H156 0.929 . S
N146 C144 1.375 . S
N146 C145 1.347 . S
C147 C150 1.365 . S
C147 N152 1.328 . S
C147 H153 0.929 . S
C148 C149 1.362 . S
C148 C151 1.378 . S
C148 H163 0.929 . S
C149 C148 1.362 . S
C149 C150 1.366 . S
C150 C147 1.365 . S
C150 C149 1.366 . S
C150 H164 0.930 . S
C151 C148 1.378 . S
C151 N152 1.315 . S
C151 H154 0.930 . S
N152 Co132 2.194 . S
N152 C147 1.328 . S
N152 C151 1.315 . S
H153 C147 0.929 . S
H154 C151 0.930 . S
H155 C143 0.929 . S
H156 C145 0.929 . S
O157 Co132 2.351 . S
O157 C160 1.244 . S
O158 Co132 2.155 . S
O158 C160 1.240 . S
O159 Co132 2.096 . S
O159 C140 1.247 . S
C160 O157 1.244 . S
C160 O158 1.240 . S
H161 C135 0.931 . S
H162 C144 0.931 . S
H163 C148 0.929 . S
H164 C150 0.930 . S
Co165 N169 2.148 . S
Co165 N175 2.128 . S
Co165 N185 2.194 . S
Co165 O190 2.351 . S
Co165 O191 2.155 . S
Co165 O192 2.096 . S
C166 N169 1.301 . S
C166 N170 1.328 . S
C166 H171 0.930 . S
C167 C168 1.333 . S
C167 N169 1.317 . S
C167 H172 0.930 . S
C168 C167 1.333 . S
C168 N170 1.350 . S
C168 H194 0.931 . S
N169 Co165 2.148 . S
N169 C166 1.301 . S
N169 C167 1.317 . S
N170 C166 1.328 . S
N170 C168 1.350 . S
H171 C166 0.930 . S
H172 C167 0.930 . S
C173 O174 1.224 . S
C173 O192 1.247 . S
O174 C173 1.224 . S
N175 Co165 2.128 . S
N175 C176 1.355 . S
N175 C178 1.311 . S
C176 N175 1.355 . S
C176 C177 1.363 . S
C176 H188 0.929 . S
C177 C176 1.363 . S
C177 N179 1.375 . S
C177 H195 0.931 . S
C178 N175 1.311 . S
C178 N179 1.347 . S
C178 H189 0.929 . S
N179 C177 1.375 . S
N179 C178 1.347 . S
C180 C183 1.365 . S
C180 N185 1.328 . S
C180 H186 0.929 . S
C181 C182 1.362 . S
C181 C184 1.378 . S
C181 H196 0.929 . S
C182 C181 1.362 . S
C182 C183 1.366 . S
C183 C180 1.365 . S
C183 C182 1.366 . S
C183 H197 0.930 . S
C184 C181 1.378 . S
C184 N185 1.315 . S
C184 H187 0.930 . S
N185 Co165 2.194 . S
N185 C180 1.328 . S
N185 C184 1.315 . S
H186 C180 0.929 . S
H187 C184 0.930 . S
H188 C176 0.929 . S
H189 C178 0.929 . S
O190 Co165 2.351 . S
O190 C193 1.244 . S
O191 Co165 2.155 . S
O191 C193 1.240 . S
O192 Co165 2.096 . S
O192 C173 1.247 . S
C193 O190 1.244 . S
C193 O191 1.240 . S
H194 C168 0.931 . S
H195 C177 0.931 . S
H196 C181 0.929 . S
H197 C183 0.930 . S
Co198 N202 2.148 . S
Co198 N208 2.128 . S
Co198 N218 2.194 . S
Co198 O223 2.351 . S
Co198 O224 2.155 . S
Co198 O225 2.096 . S
C199 N202 1.301 . S
C199 N203 1.328 . S
C199 H204 0.930 . S
C200 C201 1.333 . S
C200 N202 1.317 . S
C200 H205 0.930 . S
C201 C200 1.333 . S
C201 N203 1.350 . S
C201 H227 0.931 . S
N202 Co198 2.148 . S
N202 C199 1.301 . S
N202 C200 1.317 . S
N203 C199 1.328 . S
N203 C201 1.350 . S
H204 C199 0.930 . S
H205 C200 0.930 . S
C206 O207 1.224 . S
C206 O225 1.247 . S
O207 C206 1.224 . S
N208 Co198 2.128 . S
N208 C209 1.355 . S
N208 C211 1.311 . S
C209 N208 1.355 . S
C209 C210 1.363 . S
C209 H221 0.929 . S
C210 C209 1.363 . S
C210 N212 1.375 . S
C210 H228 0.931 . S
C211 N208 1.311 . S
C211 N212 1.347 . S
C211 H222 0.929 . S
N212 C210 1.375 . S
N212 C211 1.347 . S
C213 C216 1.365 . S
C213 N218 1.328 . S
C213 H219 0.929 . S
C214 C215 1.362 . S
C214 C217 1.378 . S
C214 H229 0.929 . S
C215 C214 1.362 . S
C215 C216 1.366 . S
C216 C213 1.365 . S
C216 C215 1.366 . S
C216 H230 0.930 . S
C217 C214 1.378 . S
C217 N218 1.315 . S
C217 H220 0.930 . S
N218 Co198 2.194 . S
N218 C213 1.328 . S
N218 C217 1.315 . S
H219 C213 0.929 . S
H220 C217 0.930 . S
H221 C209 0.929 . S
H222 C211 0.929 . S
O223 Co198 2.351 . S
O223 C226 1.244 . S
O224 Co198 2.155 . S
O224 C226 1.240 . S
O225 Co198 2.096 . S
O225 C206 1.247 . S
C226 O223 1.244 . S
C226 O224 1.240 . S
H227 C201 0.931 . S
H228 C210 0.931 . S
H229 C214 0.929 . S
H230 C216 0.930 . S
Co231 N235 2.148 . S
Co231 N241 2.128 . S
Co231 N251 2.194 . S
Co231 O256 2.351 . S
Co231 O257 2.155 . S
Co231 O258 2.096 . S
C232 N235 1.301 . S
C232 N236 1.328 . S
C232 H237 0.930 . S
C233 C234 1.333 . S
C233 N235 1.317 . S
C233 H238 0.930 . S
C234 C233 1.333 . S
C234 N236 1.350 . S
C234 H260 0.931 . S
N235 Co231 2.148 . S
N235 C232 1.301 . S
N235 C233 1.317 . S
N236 C232 1.328 . S
N236 C234 1.350 . S
H237 C232 0.930 . S
H238 C233 0.930 . S
C239 O240 1.224 . S
C239 O258 1.247 . S
O240 C239 1.224 . S
N241 Co231 2.128 . S
N241 C242 1.355 . S
N241 C244 1.311 . S
C242 N241 1.355 . S
C242 C243 1.363 . S
C242 H254 0.929 . S
C243 C242 1.363 . S
C243 N245 1.375 . S
C243 H261 0.931 . S
C244 N241 1.311 . S
C244 N245 1.347 . S
C244 H255 0.929 . S
N245 C243 1.375 . S
N245 C244 1.347 . S
C246 C249 1.365 . S
C246 N251 1.328 . S
C246 H252 0.929 . S
C247 C248 1.362 . S
C247 C250 1.378 . S
C247 H262 0.929 . S
C248 C247 1.362 . S
C248 C249 1.366 . S
C249 C246 1.365 . S
C249 C248 1.366 . S
C249 H263 0.930 . S
C250 C247 1.378 . S
C250 N251 1.315 . S
C250 H253 0.930 . S
N251 Co231 2.194 . S
N251 C246 1.328 . S
N251 C250 1.315 . S
H252 C246 0.929 . S
H253 C250 0.930 . S
H254 C242 0.929 . S
H255 C244 0.929 . S
O256 Co231 2.351 . S
O256 C259 1.244 . S
O257 Co231 2.155 . S
O257 C259 1.240 . S
O258 Co231 2.096 . S
O258 C239 1.247 . S
C259 O256 1.244 . S
C259 O257 1.240 . S
H260 C234 0.931 . S
H261 C243 0.931 . S
H262 C247 0.929 . S
H263 C249 0.930 . S
Co264 N268 2.148 . S
Co264 N274 2.128 . S
Co264 N284 2.194 . S
Co264 O289 2.351 . S
Co264 O290 2.155 . S
Co264 O291 2.096 . S
C265 N268 1.301 . S
C265 N269 1.328 . S
C265 H270 0.930 . S
C266 C267 1.333 . S
C266 N268 1.317 . S
C266 H271 0.930 . S
C267 C266 1.333 . S
C267 N269 1.350 . S
C267 H293 0.931 . S
N268 Co264 2.148 . S
N268 C265 1.301 . S
N268 C266 1.317 . S
N269 C265 1.328 . S
N269 C267 1.350 . S
H270 C265 0.930 . S
H271 C266 0.930 . S
C272 O273 1.224 . S
C272 O291 1.247 . S
O273 C272 1.224 . S
N274 Co264 2.128 . S
N274 C275 1.355 1_655 S
N274 C277 1.311 1_655 S
C275 N274 1.355 1_455 S
C275 C276 1.363 . S
C275 H287 0.929 1_455 S
C276 C275 1.363 . S
C276 N278 1.375 . S
C276 H294 0.931 . S
C277 N274 1.311 1_455 S
C277 N278 1.347 . S
C277 H288 0.929 . S
N278 C276 1.375 . S
N278 C277 1.347 . S
C279 C282 1.365 . S
C279 N284 1.328 . S
C279 H285 0.929 . S
C280 C281 1.362 . S
C280 C283 1.378 . S
C280 H295 0.929 . S
C281 C280 1.362 . S
C281 C282 1.366 . S
C282 C279 1.365 . S
C282 C281 1.366 . S
C282 H296 0.930 . S
C283 C280 1.378 . S
C283 N284 1.315 . S
C283 H286 0.930 . S
N284 Co264 2.194 . S
N284 C279 1.328 . S
N284 C283 1.315 . S
H285 C279 0.929 . S
H286 C283 0.930 . S
H287 C275 0.929 1_655 S
H288 C277 0.929 . S
O289 Co264 2.351 . S
O289 C292 1.244 . S
O290 Co264 2.155 . S
O290 C292 1.240 . S
O291 Co264 2.096 . S
O291 C272 1.247 . S
C292 O289 1.244 . S
C292 O290 1.240 . S
H293 C267 0.931 . S
H294 C276 0.931 . S
H295 C280 0.929 . S
H296 C282 0.930 . S
Co297 N301 2.148 . S
Co297 N307 2.128 . S
Co297 N317 2.194 . S
Co297 O322 2.351 . S
Co297 O323 2.155 . S
Co297 O324 2.096 . S
C298 N301 1.301 . S
C298 N302 1.328 . S
C298 H303 0.930 . S
C299 C300 1.333 . S
C299 N301 1.317 . S
C299 H304 0.930 . S
C300 C299 1.333 . S
C300 N302 1.350 . S
C300 H326 0.931 . S
N301 Co297 2.148 . S
N301 C298 1.301 . S
N301 C299 1.317 . S
N302 C298 1.328 . S
N302 C300 1.350 . S
H303 C298 0.930 . S
H304 C299 0.930 . S
C305 O306 1.224 . S
C305 O324 1.247 . S
O306 C305 1.224 . S
N307 Co297 2.128 . S
N307 C308 1.355 1_565 S
N307 C310 1.311 1_565 S
C308 N307 1.355 1_545 S
C308 C309 1.363 . S
C308 H320 0.929 1_545 S
C309 C308 1.363 . S
C309 N311 1.375 . S
C309 H327 0.931 . S
C310 N307 1.311 1_545 S
C310 N311 1.347 . S
C310 H321 0.929 . S
N311 C309 1.375 . S
N311 C310 1.347 . S
C312 C315 1.365 . S
C312 N317 1.328 . S
C312 H318 0.929 . S
C313 C314 1.362 . S
C313 C316 1.378 . S
C313 H328 0.929 . S
C314 C313 1.362 . S
C314 C315 1.366 . S
C315 C312 1.365 . S
C315 C314 1.366 . S
C315 H329 0.930 . S
C316 C313 1.378 . S
C316 N317 1.315 . S
C316 H319 0.930 . S
N317 Co297 2.194 . S
N317 C312 1.328 . S
N317 C316 1.315 . S
H318 C312 0.929 . S
H319 C316 0.930 . S
H320 C308 0.929 1_565 S
H321 C310 0.929 . S
O322 Co297 2.351 . S
O322 C325 1.244 . S
O323 Co297 2.155 . S
O323 C325 1.240 . S
O324 Co297 2.096 . S
O324 C305 1.247 . S
C325 O322 1.244 . S
C325 O323 1.240 . S
H326 C300 0.931 . S
H327 C309 0.931 . S
H328 C313 0.929 . S
H329 C315 0.930 . S
Co330 N334 2.148 . S
Co330 N340 2.128 . S
Co330 N350 2.194 . S
Co330 O355 2.351 . S
Co330 O356 2.155 . S
Co330 O357 2.096 . S
C331 N334 1.301 . S
C331 N335 1.328 . S
C331 H336 0.930 . S
C332 C333 1.333 . S
C332 N334 1.317 . S
C332 H337 0.930 . S
C333 C332 1.333 . S
C333 N335 1.350 . S
C333 H359 0.931 . S
N334 Co330 2.148 . S
N334 C331 1.301 . S
N334 C332 1.317 . S
N335 C331 1.328 . S
N335 C333 1.350 . S
H336 C331 0.930 . S
H337 C332 0.930 . S
C338 O339 1.224 . S
C338 O357 1.247 . S
O339 C338 1.224 . S
N340 Co330 2.128 . S
N340 C341 1.355 1_455 S
N340 C343 1.311 1_455 S
C341 N340 1.355 1_655 S
C341 C342 1.363 . S
C341 H353 0.929 1_655 S
C342 C341 1.363 . S
C342 N344 1.375 . S
C342 H360 0.931 . S
C343 N340 1.311 1_655 S
C343 N344 1.347 . S
C343 H354 0.929 . S
N344 C342 1.375 . S
N344 C343 1.347 . S
C345 C348 1.365 . S
C345 N350 1.328 . S
C345 H351 0.929 . S
C346 C347 1.362 . S
C346 C349 1.378 . S
C346 H361 0.929 . S
C347 C346 1.362 . S
C347 C348 1.366 . S
C348 C345 1.365 . S
C348 C347 1.366 . S
C348 H362 0.930 . S
C349 C346 1.378 . S
C349 N350 1.315 . S
C349 H352 0.930 . S
N350 Co330 2.194 . S
N350 C345 1.328 . S
N350 C349 1.315 . S
H351 C345 0.929 . S
H352 C349 0.930 . S
H353 C341 0.929 1_455 S
H354 C343 0.929 . S
O355 Co330 2.351 . S
O355 C358 1.244 . S
O356 Co330 2.155 . S
O356 C358 1.240 . S
O357 Co330 2.096 . S
O357 C338 1.247 . S
C358 O355 1.244 . S
C358 O356 1.240 . S
H359 C333 0.931 . S
H360 C342 0.931 . S
H361 C346 0.929 . S
H362 C348 0.930 . S
Co363 N367 2.148 . S
Co363 N373 2.128 . S
Co363 N383 2.194 . S
Co363 O388 2.351 . S
Co363 O389 2.155 . S
Co363 O390 2.096 . S
C364 N367 1.301 . S
C364 N368 1.328 . S
C364 H369 0.930 . S
C365 C366 1.333 . S
C365 N367 1.317 . S
C365 H370 0.930 . S
C366 C365 1.333 . S
C366 N368 1.350 . S
C366 H392 0.931 . S
N367 Co363 2.148 . S
N367 C364 1.301 . S
N367 C365 1.317 . S
N368 C364 1.328 . S
N368 C366 1.350 . S
H369 C364 0.930 . S
H370 C365 0.930 . S
C371 O372 1.224 . S
C371 O390 1.247 . S
O372 C371 1.224 . S
N373 Co363 2.128 . S
N373 C374 1.355 1_545 S
N373 C376 1.311 1_545 S
C374 N373 1.355 1_565 S
C374 C375 1.363 . S
C374 H386 0.929 1_565 S
C375 C374 1.363 . S
C375 N377 1.375 . S
C375 H393 0.931 . S
C376 N373 1.311 1_565 S
C376 N377 1.347 . S
C376 H387 0.929 . S
N377 C375 1.375 . S
N377 C376 1.347 . S
C378 C381 1.365 . S
C378 N383 1.328 . S
C378 H384 0.929 . S
C379 C380 1.362 . S
C379 C382 1.378 . S
C379 H394 0.929 . S
C380 C379 1.362 . S
C380 C381 1.366 . S
C381 C378 1.365 . S
C381 C380 1.366 . S
C381 H395 0.930 . S
C382 C379 1.378 . S
C382 N383 1.315 . S
C382 H385 0.930 . S
N383 Co363 2.194 . S
N383 C378 1.328 . S
N383 C382 1.315 . S
H384 C378 0.929 . S
H385 C382 0.930 . S
H386 C374 0.929 1_545 S
H387 C376 0.929 . S
O388 Co363 2.351 . S
O388 C391 1.244 . S
O389 Co363 2.155 . S
O389 C391 1.240 . S
O390 Co363 2.096 . S
O390 C371 1.247 . S
C391 O388 1.244 . S
C391 O389 1.240 . S
H392 C366 0.931 . S
H393 C375 0.931 . S
H394 C379 0.929 . S
H395 C381 0.930 . S
Co396 N400 2.148 . S
Co396 N406 2.128 . S
Co396 N416 2.194 . S
Co396 O421 2.351 . S
Co396 O422 2.155 . S
Co396 O423 2.096 . S
C397 N400 1.301 . S
C397 N401 1.328 . S
C397 H402 0.930 . S
C398 C399 1.333 . S
C398 N400 1.317 . S
C398 H403 0.930 . S
C399 C398 1.333 . S
C399 N401 1.350 . S
C399 H425 0.931 . S
N400 Co396 2.148 . S
N400 C397 1.301 . S
N400 C398 1.317 . S
N401 C397 1.328 . S
N401 C399 1.350 . S
H402 C397 0.930 . S
H403 C398 0.930 . S
C404 O405 1.224 . S
C404 O423 1.247 . S
O405 C404 1.224 . S
N406 Co396 2.128 . S
N406 C407 1.355 . S
N406 C409 1.311 . S
C407 N406 1.355 . S
C407 C408 1.363 . S
C407 H419 0.929 . S
C408 C407 1.363 . S
C408 N410 1.375 . S
C408 H426 0.931 . S
C409 N406 1.311 . S
C409 N410 1.347 . S
C409 H420 0.929 . S
N410 C408 1.375 . S
N410 C409 1.347 . S
C411 C414 1.365 . S
C411 N416 1.328 . S
C411 H417 0.929 . S
C412 C413 1.362 . S
C412 C415 1.378 . S
C412 H427 0.929 . S
C413 C412 1.362 . S
C413 C414 1.366 . S
C414 C411 1.365 . S
C414 C413 1.366 . S
C414 H428 0.930 . S
C415 C412 1.378 . S
C415 N416 1.315 . S
C415 H418 0.930 . S
N416 Co396 2.194 . S
N416 C411 1.328 . S
N416 C415 1.315 . S
H417 C411 0.929 . S
H418 C415 0.930 . S
H419 C407 0.929 . S
H420 C409 0.929 . S
O421 Co396 2.351 . S
O421 C424 1.244 . S
O422 Co396 2.155 . S
O422 C424 1.240 . S
O423 Co396 2.096 . S
O423 C404 1.247 . S
C424 O421 1.244 . S
C424 O422 1.240 . S
H425 C399 0.931 . S
H426 C408 0.931 . S
H427 C412 0.929 . S
H428 C414 0.930 . S
Co429 N433 2.148 . S
Co429 N439 2.128 . S
Co429 N449 2.194 . S
Co429 O454 2.351 . S
Co429 O455 2.155 . S
Co429 O456 2.096 . S
C430 N433 1.301 . S
C430 N434 1.328 . S
C430 H435 0.930 . S
C431 C432 1.333 . S
C431 N433 1.317 . S
C431 H436 0.930 . S
C432 C431 1.333 . S
C432 N434 1.350 . S
C432 H458 0.931 . S
N433 Co429 2.148 . S
N433 C430 1.301 . S
N433 C431 1.317 . S
N434 C430 1.328 . S
N434 C432 1.350 . S
H435 C430 0.930 . S
H436 C431 0.930 . S
C437 O438 1.224 . S
C437 O456 1.247 . S
O438 C437 1.224 . S
N439 Co429 2.128 . S
N439 C440 1.355 . S
N439 C442 1.311 . S
C440 N439 1.355 . S
C440 C441 1.363 . S
C440 H452 0.929 . S
C441 C440 1.363 . S
C441 N443 1.375 . S
C441 H459 0.931 . S
C442 N439 1.311 . S
C442 N443 1.347 . S
C442 H453 0.929 . S
N443 C441 1.375 . S
N443 C442 1.347 . S
C444 C447 1.365 . S
C444 N449 1.328 . S
C444 H450 0.929 . S
C445 C446 1.362 . S
C445 C448 1.378 . S
C445 H460 0.929 . S
C446 C445 1.362 . S
C446 C447 1.366 . S
C447 C444 1.365 . S
C447 C446 1.366 . S
C447 H461 0.930 . S
C448 C445 1.378 . S
C448 N449 1.315 . S
C448 H451 0.930 . S
N449 Co429 2.194 . S
N449 C444 1.328 . S
N449 C448 1.315 . S
H450 C444 0.929 . S
H451 C448 0.930 . S
H452 C440 0.929 . S
H453 C442 0.929 . S
O454 Co429 2.351 . S
O454 C457 1.244 . S
O455 Co429 2.155 . S
O455 C457 1.240 . S
O456 Co429 2.096 . S
O456 C437 1.247 . S
C457 O454 1.244 . S
C457 O455 1.240 . S
H458 C432 0.931 . S
H459 C441 0.931 . S
H460 C445 0.929 . S
H461 C447 0.930 . S
Co462 N466 2.148 . S
Co462 N472 2.128 . S
Co462 N482 2.194 . S
Co462 O487 2.351 . S
Co462 O488 2.155 . S
Co462 O489 2.096 . S
C463 N466 1.301 . S
C463 N467 1.328 . S
C463 H468 0.930 . S
C464 C465 1.333 . S
C464 N466 1.317 . S
C464 H469 0.930 . S
C465 C464 1.333 . S
C465 N467 1.350 . S
C465 H491 0.931 . S
N466 Co462 2.148 . S
N466 C463 1.301 . S
N466 C464 1.317 . S
N467 C463 1.328 . S
N467 C465 1.350 . S
H468 C463 0.930 . S
H469 C464 0.930 . S
C470 O471 1.224 . S
C470 O489 1.247 . S
O471 C470 1.224 . S
N472 Co462 2.128 . S
N472 C473 1.355 . S
N472 C475 1.311 . S
C473 N472 1.355 . S
C473 C474 1.363 . S
C473 H485 0.929 . S
C474 C473 1.363 . S
C474 N476 1.375 . S
C474 H492 0.931 . S
C475 N472 1.311 . S
C475 N476 1.347 . S
C475 H486 0.929 . S
N476 C474 1.375 . S
N476 C475 1.347 . S
C477 C480 1.365 . S
C477 N482 1.328 . S
C477 H483 0.929 . S
C478 C479 1.362 . S
C478 C481 1.378 . S
C478 H493 0.929 . S
C479 C478 1.362 . S
C479 C480 1.366 . S
C480 C477 1.365 . S
C480 C479 1.366 . S
C480 H494 0.930 . S
C481 C478 1.378 . S
C481 N482 1.315 . S
C481 H484 0.930 . S
N482 Co462 2.194 . S
N482 C477 1.328 . S
N482 C481 1.315 . S
H483 C477 0.929 . S
H484 C481 0.930 . S
H485 C473 0.929 . S
H486 C475 0.929 . S
O487 Co462 2.351 . S
O487 C490 1.244 . S
O488 Co462 2.155 . S
O488 C490 1.240 . S
O489 Co462 2.096 . S
O489 C470 1.247 . S
C490 O487 1.244 . S
C490 O488 1.240 . S
H491 C465 0.931 . S
H492 C474 0.931 . S
H493 C478 0.929 . S
H494 C480 0.930 . S
Co495 N499 2.148 . S
Co495 N505 2.128 . S
Co495 N515 2.194 . S
Co495 O520 2.351 . S
Co495 O521 2.155 . S
Co495 O522 2.096 . S
C496 N499 1.301 . S
C496 N500 1.328 . S
C496 H501 0.930 . S
C497 C498 1.333 . S
C497 N499 1.317 . S
C497 H502 0.930 . S
C498 C497 1.333 . S
C498 N500 1.350 . S
C498 H524 0.931 . S
N499 Co495 2.148 . S
N499 C496 1.301 . S
N499 C497 1.317 . S
N500 C496 1.328 . S
N500 C498 1.350 . S
H501 C496 0.930 . S
H502 C497 0.930 . S
C503 O504 1.224 . S
C503 O522 1.247 . S
O504 C503 1.224 . S
N505 Co495 2.128 . S
N505 C506 1.355 . S
N505 C508 1.311 . S
C506 N505 1.355 . S
C506 C507 1.363 . S
C506 H518 0.929 . S
C507 C506 1.363 . S
C507 N509 1.375 . S
C507 H525 0.931 . S
C508 N505 1.311 . S
C508 N509 1.347 . S
C508 H519 0.929 . S
N509 C507 1.375 . S
N509 C508 1.347 . S
C510 C513 1.365 . S
C510 N515 1.328 . S
C510 H516 0.929 . S
C511 C512 1.362 . S
C511 C514 1.378 . S
C511 H526 0.929 . S
C512 C511 1.362 . S
C512 C513 1.366 . S
C513 C510 1.365 . S
C513 C512 1.366 . S
C513 H527 0.930 . S
C514 C511 1.378 . S
C514 N515 1.315 . S
C514 H517 0.930 . S
N515 Co495 2.194 . S
N515 C510 1.328 . S
N515 C514 1.315 . S
H516 C510 0.929 . S
H517 C514 0.930 . S
H518 C506 0.929 . S
H519 C508 0.929 . S
O520 Co495 2.351 . S
O520 C523 1.244 . S
O521 Co495 2.155 . S
O521 C523 1.240 . S
O522 Co495 2.096 . S
O522 C503 1.247 . S
C523 O520 1.244 . S
C523 O521 1.240 . S
H524 C498 0.931 . S
H525 C507 0.931 . S
H526 C511 0.929 . S
H527 C513 0.930 . S
H528 C540 0.930 . S
H529 C542 0.931 . S
H530 C543 0.930 . S
H531 C547 0.959 . S
H532 C547 0.959 . S
H533 C547 0.961 1_545 S
H534 C548 0.960 . S
H535 C548 0.961 1_565 S
H536 C548 0.959 . S
H537 C551 0.929 . S
H538 C552 0.931 . S
H539 C554 0.930 . S
C540 H528 0.930 . S
C540 C541 1.399 . S
C540 C545 1.399 . S
C541 C540 1.399 . S
C541 C542 1.376 . S
C542 H529 0.931 . S
C542 C541 1.376 . S
C542 C543 1.388 1_455 S
C543 H530 0.930 . S
C543 C542 1.388 1_655 S
C543 C544 1.390 . S
C544 C543 1.390 . S
C544 C545 1.394 1_655 S
C544 C550 1.465 1_545 S
C545 C540 1.399 . S
C545 C544 1.394 1_455 S
C545 C546 1.516 1_545 S
C546 C545 1.516 1_565 S
C546 C547 1.502 . S
C546 C548 1.561 1_465 S
C546 C549 1.526 1_455 S
C547 H531 0.959 . S
C547 H532 0.959 . S
C547 H533 0.961 1_565 S
C547 C546 1.502 . S
C548 H534 0.960 . S
C548 H535 0.961 1_545 S
C548 H536 0.959 . S
C548 C546 1.561 1_645 S
C549 C546 1.526 1_655 S
C549 C550 1.396 . S
C549 C554 1.390 . S
C550 C544 1.465 1_565 S
C550 C549 1.396 . S
C550 C551 1.399 . S
C551 H537 0.929 . S
C551 C550 1.399 . S
C551 C552 1.385 . S
C552 H538 0.931 . S
C552 C551 1.385 . S
C552 C553 1.389 . S
C553 C552 1.389 . S
C553 C554 1.387 . S
C554 H539 0.930 . S
C554 C549 1.390 . S
C554 C553 1.387 . S
H555 C567 0.930 . S
H556 C569 0.934 . S
H557 C570 0.930 . S
H558 C574 0.959 . S
H559 C574 0.959 . S
H560 C574 0.961 1_455 S
H561 C575 0.960 . S
H562 C575 0.961 1_655 S
H563 C575 0.959 . S
H564 C578 0.929 . S
H565 C579 0.931 . S
H566 C581 0.930 . S
C567 H555 0.930 . S
C567 C568 1.399 . S
C567 C572 1.399 . S
C568 C567 1.399 . S
C568 C569 1.376 . S
C569 H556 0.934 . S
C569 C568 1.376 . S
C569 C570 1.388 1_565 S
C570 H557 0.930 . S
C570 C569 1.388 1_545 S
C570 C571 1.390 . S
C571 C570 1.390 . S
C571 C572 1.394 1_545 S
C571 C577 1.465 1_455 S
C572 C567 1.399 . S
C572 C571 1.394 1_565 S
C572 C573 1.516 1_455 S
C573 C572 1.516 1_655 S
C573 C574 1.502 . S
C573 C575 1.561 1_665 S
C573 C576 1.526 1_565 S
C574 H558 0.959 . S
C574 H559 0.959 . S
C574 H560 0.961 1_655 S
C574 C573 1.502 . S
C575 H561 0.960 . S
C575 H562 0.961 1_455 S
C575 H563 0.959 . S
C575 C573 1.561 1_445 S
C576 C573 1.526 1_545 S
C576 C577 1.396 . S
C576 C581 1.390 . S
C577 C571 1.465 1_655 S
C577 C576 1.396 . S
C577 C578 1.399 . S
C578 H564 0.929 . S
C578 C577 1.399 . S
C578 C579 1.385 . S
C579 H565 0.931 . S
C579 C578 1.385 . S
C579 C580 1.389 . S
C580 C579 1.389 . S
C580 C581 1.387 . S
C581 H566 0.930 . S
C581 C576 1.390 . S
C581 C580 1.387 . S
H582 C594 0.930 . S
H583 C596 0.930 . S
H584 C597 0.930 . S
H585 C601 0.959 . S
H586 C601 0.959 . S
H587 C601 0.961 . S
H588 C602 0.960 . S
H589 C602 0.961 . S
H590 C602 0.959 . S
H591 C605 0.929 . S
H592 C606 0.931 . S
H593 C608 0.930 . S
C594 H582 0.930 . S
C594 C595 1.399 . S
C594 C599 1.399 . S
C595 C594 1.399 . S
C595 C596 1.376 . S
C596 H583 0.930 . S
C596 C595 1.376 . S
C596 C597 1.388 . S
C597 H584 0.930 . S
C597 C596 1.388 . S
C597 C598 1.390 . S
C598 C597 1.390 . S
C598 C599 1.394 . S
C598 C604 1.465 . S
C599 C594 1.399 . S
C599 C598 1.394 . S
C599 C600 1.516 . S
C600 C599 1.516 . S
C600 C601 1.502 . S
C600 C602 1.561 . S
C600 C603 1.526 . S
C601 H585 0.959 . S
C601 H586 0.959 . S
C601 H587 0.961 . S
C601 C600 1.502 . S
C602 H588 0.960 . S
C602 H589 0.961 . S
C602 H590 0.959 . S
C602 C600 1.561 . S
C603 C600 1.526 . S
C603 C604 1.396 . S
C603 C608 1.390 . S
C604 C598 1.465 . S
C604 C603 1.396 . S
C604 C605 1.399 . S
C605 H591 0.929 . S
C605 C604 1.399 . S
C605 C606 1.385 . S
C606 H592 0.931 . S
C606 C605 1.385 . S
C606 C607 1.389 . S
C607 C606 1.389 . S
C607 C608 1.387 . S
C608 H593 0.930 . S
C608 C603 1.390 . S
C608 C607 1.387 . S
H609 C621 0.930 . S
H610 C623 0.930 . S
H611 C624 0.930 . S
H612 C628 0.959 . S
H613 C628 0.959 . S
H614 C628 0.961 . S
H615 C629 0.960 . S
H616 C629 0.961 . S
H617 C629 0.959 . S
H618 C632 0.929 . S
H619 C633 0.931 . S
H620 C635 0.930 . S
C621 H609 0.930 . S
C621 C622 1.399 . S
C621 C626 1.399 . S
C622 C621 1.399 . S
C622 C623 1.376 . S
C623 H610 0.930 . S
C623 C622 1.376 . S
C623 C624 1.388 . S
C624 H611 0.930 . S
C624 C623 1.388 . S
C624 C625 1.390 . S
C625 C624 1.390 . S
C625 C626 1.394 . S
C625 C631 1.465 . S
C626 C621 1.399 . S
C626 C625 1.394 . S
C626 C627 1.516 . S
C627 C626 1.516 . S
C627 C628 1.502 . S
C627 C629 1.561 . S
C627 C630 1.526 . S
C628 H612 0.959 . S
C628 H613 0.959 . S
C628 H614 0.961 . S
C628 C627 1.502 . S
C629 H615 0.960 . S
C629 H616 0.961 . S
C629 H617 0.959 . S
C629 C627 1.561 . S
C630 C627 1.526 . S
C630 C631 1.396 . S
C630 C635 1.390 . S
C631 C625 1.465 . S
C631 C630 1.396 . S
C631 C632 1.399 . S
C632 H618 0.929 . S
C632 C631 1.399 . S
C632 C633 1.385 . S
C633 H619 0.931 . S
C633 C632 1.385 . S
C633 C634 1.389 . S
C634 C633 1.389 . S
C634 C635 1.387 . S
C635 H620 0.930 . S
C635 C630 1.390 . S
C635 C634 1.387 . S
H636 C648 0.930 . S
H637 C650 0.930 . S
H638 C651 0.930 . S
H639 C655 0.959 . S
H640 C655 0.959 1_565 S
H641 C655 0.961 . S
H642 C656 0.960 1_545 S
H643 C656 0.961 . S
H644 C656 0.959 . S
H645 C659 0.929 . S
H646 C660 0.931 . S
H647 C662 0.930 . S
C648 H636 0.930 . S
C648 C649 1.399 . S
C648 C653 1.399 . S
C649 C648 1.399 . S
C649 C650 1.376 . S
C650 H637 0.930 . S
C650 C649 1.376 . S
C650 C651 1.388 . S
C651 H638 0.930 . S
C651 C650 1.388 . S
C651 C652 1.390 . S
C652 C651 1.390 . S
C652 C653 1.394 . S
C652 C658 1.465 1_545 S
C653 C648 1.399 . S
C653 C652 1.394 . S
C653 C654 1.516 1_455 S
C654 C653 1.516 1_655 S
C654 C655 1.502 . S
C654 C656 1.561 1_645 S
C654 C657 1.526 1_545 S
C655 H639 0.959 . S
C655 H640 0.959 1_545 S
C655 H641 0.961 . S
C655 C654 1.502 . S
C656 H642 0.960 1_565 S
C656 H643 0.961 . S
C656 H644 0.959 . S
C656 C654 1.561 1_465 S
C657 C654 1.526 1_565 S
C657 C658 1.396 1_655 S
C657 C662 1.390 . S
C658 C652 1.465 1_565 S
C658 C657 1.396 1_455 S
C658 C659 1.399 . S
C659 H645 0.929 . S
C659 C658 1.399 . S
C659 C660 1.385 1_455 S
C660 H646 0.931 . S
C660 C659 1.385 1_655 S
C660 C661 1.389 . S
C661 C660 1.389 . S
C661 C662 1.387 . S
C662 H647 0.930 . S
C662 C657 1.390 . S
C662 C661 1.387 . S
H663 C675 0.930 . S
H664 C677 0.930 . S
H665 C678 0.930 . S
H666 C682 0.959 . S
H667 C682 0.959 1_655 S
H668 C682 0.961 . S
H669 C683 0.960 1_455 S
H670 C683 0.961 . S
H671 C683 0.959 . S
H672 C686 0.929 . S
H673 C687 0.931 . S
H674 C689 0.930 . S
C675 H663 0.930 . S
C675 C676 1.399 . S
C675 C680 1.399 . S
C676 C675 1.399 . S
C676 C677 1.376 . S
C677 H664 0.930 . S
C677 C676 1.376 . S
C677 C678 1.388 . S
C678 H665 0.930 . S
C678 C677 1.388 . S
C678 C679 1.390 . S
C679 C678 1.390 . S
C679 C680 1.394 . S
C679 C685 1.465 1_465 S
C680 C675 1.399 . S
C680 C679 1.394 . S
C680 C681 1.516 1_455 S
C681 C680 1.516 1_655 S
C681 C682 1.502 1_665 S
C681 C683 1.561 . S
C681 C684 1.526 1_565 S
C682 H666 0.959 . S
C682 H667 0.959 1_455 S
C682 H668 0.961 . S
C682 C681 1.502 1_445 S
C683 H669 0.960 1_655 S
C683 H670 0.961 . S
C683 H671 0.959 . S
C683 C681 1.561 . S
C684 C681 1.526 1_545 S
C684 C685 1.396 . S
C684 C689 1.390 . S
C685 C679 1.465 1_645 S
C685 C684 1.396 . S
C685 C686 1.399 . S
C686 H672 0.929 . S
C686 C685 1.399 . S
C686 C687 1.385 . S
C687 H673 0.931 . S
C687 C686 1.385 . S
C687 C688 1.389 . S
C688 C687 1.389 . S
C688 C689 1.387 . S
C689 H674 0.930 . S
C689 C684 1.390 . S
C689 C688 1.387 . S
H690 C702 0.930 . S
H691 C704 0.930 . S
H692 C705 0.930 . S
H693 C709 0.959 . S
H694 C709 0.959 . S
H695 C709 0.961 . S
H696 C710 0.960 . S
H697 C710 0.961 . S
H698 C710 0.959 . S
H699 C713 0.929 . S
H700 C714 0.931 . S
H701 C716 0.930 . S
C702 H690 0.930 . S
C702 C703 1.399 . S
C702 C707 1.399 . S
C703 C702 1.399 . S
C703 C704 1.376 . S
C704 H691 0.930 . S
C704 C703 1.376 . S
C704 C705 1.388 . S
C705 H692 0.930 . S
C705 C704 1.388 . S
C705 C706 1.390 . S
C706 C705 1.390 . S
C706 C707 1.394 . S
C706 C712 1.465 . S
C707 C702 1.399 . S
C707 C706 1.394 . S
C707 C708 1.516 . S
C708 C707 1.516 . S
C708 C709 1.502 . S
C708 C710 1.561 . S
C708 C711 1.526 . S
C709 H693 0.959 . S
C709 H694 0.959 . S
C709 H695 0.961 . S
C709 C708 1.502 . S
C710 H696 0.960 . S
C710 H697 0.961 . S
C710 H698 0.959 . S
C710 C708 1.561 . S
C711 C708 1.526 . S
C711 C712 1.396 . S
C711 C716 1.390 . S
C712 C706 1.465 . S
C712 C711 1.396 . S
C712 C713 1.399 . S
C713 H699 0.929 . S
C713 C712 1.399 . S
C713 C714 1.385 . S
C714 H700 0.931 . S
C714 C713 1.385 . S
C714 C715 1.389 . S
C715 C714 1.389 . S
C715 C716 1.387 . S
C716 H701 0.930 . S
C716 C711 1.390 . S
C716 C715 1.387 . S
H717 C729 0.930 . S
H718 C731 0.930 . S
H719 C732 0.930 . S
H720 C736 0.959 . S
H721 C736 0.959 . S
H722 C736 0.961 . S
H723 C737 0.960 . S
H724 C737 0.961 . S
H725 C737 0.959 . S
H726 C740 0.929 . S
H727 C741 0.931 . S
H728 C743 0.930 . S
C729 H717 0.930 . S
C729 C730 1.399 . S
C729 C734 1.399 . S
C730 C729 1.399 . S
C730 C731 1.376 . S
C731 H718 0.930 . S
C731 C730 1.376 . S
C731 C732 1.388 . S
C732 H719 0.930 . S
C732 C731 1.388 . S
C732 C733 1.390 . S
C733 C732 1.390 . S
C733 C734 1.394 . S
C733 C739 1.465 . S
C734 C729 1.399 . S
C734 C733 1.394 . S
C734 C735 1.516 . S
C735 C734 1.516 . S
C735 C736 1.502 . S
C735 C737 1.561 . S
C735 C738 1.526 . S
C736 H720 0.959 . S
C736 H721 0.959 . S
C736 H722 0.961 . S
C736 C735 1.502 . S
C737 H723 0.960 . S
C737 H724 0.961 . S
C737 H725 0.959 . S
C737 C735 1.561 . S
C738 C735 1.526 . S
C738 C739 1.396 . S
C738 C743 1.390 . S
C739 C733 1.465 . S
C739 C738 1.396 . S
C739 C740 1.399 . S
C740 H726 0.929 . S
C740 C739 1.399 . S
C740 C741 1.385 . S
C741 H727 0.931 . S
C741 C740 1.385 . S
C741 C742 1.389 . S
C742 C741 1.389 . S
C742 C743 1.387 . S
C743 H728 0.930 . S
C743 C738 1.390 . S
C743 C742 1.387 . S
H744 C756 0.930 . S
H745 C758 0.930 . S
H746 C759 0.930 . S
H747 C763 0.962 1_655 S
H748 C763 0.979 . S
H749 C763 0.940 1_554 S
H750 C764 0.958 1_554 S
H751 C764 0.963 . S
H752 C764 0.959 . S
H753 C767 0.929 . S
H754 C768 0.931 . S
H755 C770 0.930 . S
C756 H744 0.930 . S
C756 C757 1.399 . S
C756 C761 1.399 . S
C757 C756 1.399 . S
C757 C758 1.376 . S
C758 H745 0.930 . S
C758 C757 1.376 . S
C758 C759 1.388 . S
C759 H746 0.930 . S
C759 C758 1.388 . S
C759 C760 1.390 . S
C760 C759 1.390 . S
C760 C761 1.394 . S
C760 C766 1.465 1_554 S
C761 C756 1.399 . S
C761 C760 1.394 . S
C761 C762 1.517 1_554 S
C762 C761 1.517 1_556 S
C762 C763 1.502 . S
C762 C764 1.561 . S
C762 C765 1.525 . S
C763 H747 0.962 1_455 S
C763 H748 0.979 . S
C763 H749 0.940 1_556 S
C763 C762 1.502 . S
C764 H750 0.958 1_556 S
C764 H751 0.963 . S
C764 H752 0.959 . S
C764 C762 1.561 . S
C765 C762 1.525 . S
C765 C766 1.396 . S
C765 C770 1.390 . S
C766 C760 1.465 1_556 S
C766 C765 1.396 . S
C766 C767 1.399 . S
C767 H753 0.929 . S
C767 C766 1.399 . S
C767 C768 1.385 . S
C768 H754 0.931 . S
C768 C767 1.385 . S
C768 C769 1.389 . S
C769 C768 1.389 . S
C769 C770 1.387 . S
C770 H755 0.930 . S
C770 C765 1.390 . S
C770 C769 1.387 . S
H771 C783 0.930 . S
H772 C785 0.930 . S
H773 C786 0.930 . S
H774 C790 0.959 1_545 S
H775 C790 0.959 . S
H776 C790 0.961 . S
H777 C791 0.960 . S
H778 C791 0.961 . S
H779 C791 0.953 1_545 S
H780 C794 0.929 . S
H781 C795 0.931 . S
H782 C797 0.930 . S
C783 H771 0.930 . S
C783 C784 1.399 . S
C783 C788 1.399 . S
C784 C783 1.399 . S
C784 C785 1.376 . S
C785 H772 0.930 . S
C785 C784 1.376 . S
C785 C786 1.388 . S
C786 H773 0.930 . S
C786 C785 1.388 . S
C786 C787 1.390 . S
C787 C786 1.390 . S
C787 C788 1.394 . S
C787 C793 1.465 . S
C788 C783 1.399 . S
C788 C787 1.394 . S
C788 C789 1.516 . S
C789 C788 1.516 . S
C789 C790 1.502 1_545 S
C789 C791 1.561 1_545 S
C789 C792 1.526 . S
C790 H774 0.959 1_565 S
C790 H775 0.959 . S
C790 H776 0.961 . S
C790 C789 1.502 1_565 S
C791 H777 0.960 . S
C791 H778 0.961 . S
C791 H779 0.953 1_565 S
C791 C789 1.561 1_565 S
C792 C789 1.526 . S
C792 C793 1.396 . S
C792 C797 1.390 . S
C793 C787 1.465 . S
C793 C792 1.396 . S
C793 C794 1.399 . S
C794 H780 0.929 . S
C794 C793 1.399 . S
C794 C795 1.385 . S
C795 H781 0.931 . S
C795 C794 1.385 . S
C795 C796 1.389 . S
C796 C795 1.389 . S
C796 C797 1.387 . S
C797 H782 0.930 . S
C797 C792 1.390 . S
C797 C796 1.387 . S
H798 C810 0.930 . S
H799 C812 0.930 . S
H800 C813 0.930 . S
H801 C817 0.962 1_455 S
H802 C817 0.979 . S
H803 C817 0.940 1_556 S
H804 C818 0.958 1_556 S
H805 C818 0.963 . S
H806 C818 0.959 . S
H807 C821 0.929 . S
H808 C822 0.931 . S
H809 C824 0.930 . S
C810 H798 0.930 . S
C810 C811 1.399 . S
C810 C815 1.399 . S
C811 C810 1.399 . S
C811 C812 1.376 . S
C812 H799 0.930 . S
C812 C811 1.376 . S
C812 C813 1.388 . S
C813 H800 0.930 . S
C813 C812 1.388 . S
C813 C814 1.390 . S
C814 C813 1.390 . S
C814 C815 1.394 . S
C814 C820 1.465 1_556 S
C815 C810 1.399 . S
C815 C814 1.394 . S
C815 C816 1.517 1_556 S
C816 C815 1.517 1_554 S
C816 C817 1.502 . S
C816 C818 1.561 . S
C816 C819 1.525 . S
C817 H801 0.962 1_655 S
C817 H802 0.979 . S
C817 H803 0.940 1_554 S
C817 C816 1.502 . S
C818 H804 0.958 1_554 S
C818 H805 0.963 . S
C818 H806 0.959 . S
C818 C816 1.561 . S
C819 C816 1.525 . S
C819 C820 1.396 . S
C819 C824 1.390 . S
C820 C814 1.465 1_554 S
C820 C819 1.396 . S
C820 C821 1.399 . S
C821 H807 0.929 . S
C821 C820 1.399 . S
C821 C822 1.385 . S
C822 H808 0.931 . S
C822 C821 1.385 . S
C822 C823 1.389 . S
C823 C822 1.389 . S
C823 C824 1.387 . S
C824 H809 0.930 . S
C824 C819 1.390 . S
C824 C823 1.387 . S
H825 C837 0.930 . S
H826 C839 0.930 . S
H827 C840 0.930 . S
H828 C844 0.959 . S
H829 C844 0.959 1_545 S
H830 C844 0.961 1_545 S
H831 C845 0.960 . S
H832 C845 0.961 . S
H833 C845 0.959 . S
H834 C848 0.929 . S
H835 C849 0.931 . S
H836 C851 0.930 . S
C837 H825 0.930 . S
C837 C838 1.399 . S
C837 C842 1.399 . S
C838 C837 1.399 . S
C838 C839 1.376 . S
C839 H826 0.930 . S
C839 C838 1.376 . S
C839 C840 1.388 . S
C840 H827 0.930 . S
C840 C839 1.388 . S
C840 C841 1.390 . S
C841 C840 1.390 . S
C841 C842 1.394 . S
C841 C847 1.465 . S
C842 C837 1.399 . S
C842 C841 1.394 . S
C842 C843 1.516 . S
C843 C842 1.516 . S
C843 C844 1.502 . S
C843 C845 1.561 1_565 S
C843 C846 1.526 . S
C844 H828 0.959 . S
C844 H829 0.959 1_565 S
C844 H830 0.961 1_565 S
C844 C843 1.502 . S
C845 H831 0.960 . S
C845 H832 0.961 . S
C845 H833 0.959 . S
C845 C843 1.561 1_545 S
C846 C843 1.526 . S
C846 C847 1.396 . S
C846 C851 1.390 . S
C847 C841 1.465 . S
C847 C846 1.396 . S
C847 C848 1.399 . S
C848 H834 0.929 . S
C848 C847 1.399 . S
C848 C849 1.385 . S
C849 H835 0.931 . S
C849 C848 1.385 . S
C849 C850 1.389 . S
C850 C849 1.389 . S
C850 C851 1.387 . S
C851 H836 0.930 . S
C851 C846 1.390 . S
C851 C850 1.387 . S
H852 C864 0.930 . S
H853 C866 0.930 . S
H854 C867 0.930 . S
H855 C871 0.962 . S
H856 C871 0.979 . S
H857 C871 0.940 1_554 S
H858 C872 0.958 1_554 S
H859 C872 0.963 . S
H860 C872 0.959 . S
H861 C875 0.929 . S
H862 C876 0.931 . S
H863 C878 0.930 . S
C864 H852 0.930 . S
C864 C865 1.399 . S
C864 C869 1.399 . S
C865 C864 1.399 . S
C865 C866 1.376 . S
C866 H853 0.930 . S
C866 C865 1.376 . S
C866 C867 1.388 . S
C867 H854 0.930 . S
C867 C866 1.388 . S
C867 C868 1.390 . S
C868 C867 1.390 . S
C868 C869 1.394 . S
C868 C874 1.465 1_554 S
C869 C864 1.399 . S
C869 C868 1.394 . S
C869 C870 1.517 1_554 S
C870 C869 1.517 1_556 S
C870 C871 1.502 . S
C870 C872 1.561 . S
C870 C873 1.525 . S
C871 H855 0.962 . S
C871 H856 0.979 . S
C871 H857 0.940 1_556 S
C871 C870 1.502 . S
C872 H858 0.958 1_556 S
C872 H859 0.963 . S
C872 H860 0.959 . S
C872 C870 1.561 . S
C873 C870 1.525 . S
C873 C874 1.396 . S
C873 C878 1.390 . S
C874 C868 1.465 1_556 S
C874 C873 1.396 . S
C874 C875 1.399 . S
C875 H861 0.929 . S
C875 C874 1.399 . S
C875 C876 1.385 . S
C876 H862 0.931 . S
C876 C875 1.385 . S
C876 C877 1.389 . S
C877 C876 1.389 . S
C877 C878 1.387 . S
C878 H863 0.930 . S
C878 C873 1.390 . S
C878 C877 1.387 . S
H879 C891 0.930 . S
H880 C893 0.930 . S
H881 C894 0.930 . S
H882 C898 0.959 . S
H883 C898 0.959 . S
H884 C898 0.961 . S
H885 C899 0.960 . S
H886 C899 0.961 . S
H887 C899 0.959 . S
H888 C902 0.929 . S
H889 C903 0.931 . S
H890 C905 0.930 . S
C891 H879 0.930 . S
C891 C892 1.399 . S
C891 C896 1.399 . S
C892 C891 1.399 . S
C892 C893 1.376 . S
C893 H880 0.930 . S
C893 C892 1.376 . S
C893 C894 1.388 . S
C894 H881 0.930 . S
C894 C893 1.388 . S
C894 C895 1.390 . S
C895 C894 1.390 . S
C895 C896 1.394 . S
C895 C901 1.465 . S
C896 C891 1.399 . S
C896 C895 1.394 . S
C896 C897 1.516 . S
C897 C896 1.516 . S
C897 C898 1.502 . S
C897 C899 1.561 . S
C897 C900 1.526 . S
C898 H882 0.959 . S
C898 H883 0.959 . S
C898 H884 0.961 . S
C898 C897 1.502 . S
C899 H885 0.960 . S
C899 H886 0.961 . S
C899 H887 0.959 . S
C899 C897 1.561 . S
C900 C897 1.526 . S
C900 C901 1.396 . S
C900 C905 1.390 . S
C901 C895 1.465 . S
C901 C900 1.396 . S
C901 C902 1.399 . S
C902 H888 0.929 . S
C902 C901 1.399 . S
C902 C903 1.385 . S
C903 H889 0.931 . S
C903 C902 1.385 . S
C903 C904 1.389 . S
C904 C903 1.389 . S
C904 C905 1.387 . S
C905 H890 0.930 . S
C905 C900 1.390 . S
C905 C904 1.387 . S
H906 C918 0.930 . S
H907 C920 0.930 . S
H908 C921 0.930 . S
H909 C925 0.962 . S
H910 C925 0.979 . S
H911 C925 0.940 1_554 S
H912 C926 0.958 1_554 S
H913 C926 0.963 . S
H914 C926 0.959 . S
H915 C929 0.929 . S
H916 C930 0.931 . S
H917 C932 0.930 . S
C918 H906 0.930 . S
C918 C919 1.399 . S
C918 C923 1.399 . S
C919 C918 1.399 . S
C919 C920 1.376 . S
C920 H907 0.930 . S
C920 C919 1.376 . S
C920 C921 1.388 . S
C921 H908 0.930 . S
C921 C920 1.388 . S
C921 C922 1.390 . S
C922 C921 1.390 . S
C922 C923 1.394 . S
C922 C928 1.465 1_554 S
C923 C918 1.399 . S
C923 C922 1.394 . S
C923 C924 1.517 1_554 S
C924 C923 1.517 1_556 S
C924 C925 1.502 . S
C924 C926 1.561 . S
C924 C927 1.525 . S
C925 H909 0.962 . S
C925 H910 0.979 . S
C925 H911 0.940 1_556 S
C925 C924 1.502 . S
C926 H912 0.958 1_556 S
C926 H913 0.963 . S
C926 H914 0.959 . S
C926 C924 1.561 . S
C927 C924 1.525 . S
C927 C928 1.396 . S
C927 C932 1.390 . S
C928 C922 1.465 1_556 S
C928 C927 1.396 . S
C928 C929 1.399 . S
C929 H915 0.929 . S
C929 C928 1.399 . S
C929 C930 1.385 . S
C930 H916 0.931 . S
C930 C929 1.385 . S
C930 C931 1.389 . S
C931 C930 1.389 . S
C931 C932 1.387 . S
C932 H917 0.930 . S
C932 C927 1.390 . S
C932 C931 1.387 . S
H933 C945 0.930 . S
H934 C947 0.930 . S
H935 C948 0.930 . S
H936 C952 0.959 . S
H937 C952 0.959 . S
H938 C952 0.961 . S
H939 C953 0.960 . S
H940 C953 0.961 . S
H941 C953 0.959 . S
H942 C956 0.929 . S
H943 C957 0.931 . S
H944 C959 0.930 . S
C945 H933 0.930 . S
C945 C946 1.399 . S
C945 C950 1.399 . S
C946 C945 1.399 . S
C946 C947 1.376 . S
C947 H934 0.930 . S
C947 C946 1.376 . S
C947 C948 1.388 . S
C948 H935 0.930 . S
C948 C947 1.388 . S
C948 C949 1.390 . S
C949 C948 1.390 . S
C949 C950 1.394 . S
C949 C955 1.465 . S
C950 C945 1.399 . S
C950 C949 1.394 . S
C950 C951 1.516 . S
C951 C950 1.516 . S
C951 C952 1.502 . S
C951 C953 1.561 . S
C951 C954 1.526 . S
C952 H936 0.959 . S
C952 H937 0.959 . S
C952 H938 0.961 . S
C952 C951 1.502 . S
C953 H939 0.960 . S
C953 H940 0.961 . S
C953 H941 0.959 . S
C953 C951 1.561 . S
C954 C951 1.526 . S
C954 C955 1.396 . S
C954 C959 1.390 . S
C955 C949 1.465 . S
C955 C954 1.396 . S
C955 C956 1.399 . S
C956 H942 0.929 . S
C956 C955 1.399 . S
C956 C957 1.385 . S
C957 H943 0.931 . S
C957 C956 1.385 . S
C957 C958 1.389 . S
C958 C957 1.389 . S
C958 C959 1.387 . S
C959 H944 0.930 . S
C959 C954 1.390 . S
C959 C958 1.387 . S
H960 C972 0.930 . S
H961 C974 0.930 . S
H962 C975 0.930 . S
H963 C979 0.959 . S
H964 C979 0.959 . S
H965 C979 0.961 . S
H966 C980 0.960 . S
H967 C980 0.961 . S
H968 C980 0.959 . S
H969 C983 0.929 . S
H970 C984 0.931 . S
H971 C986 0.930 . S
C972 H960 0.930 . S
C972 C973 1.399 . S
C972 C977 1.399 . S
C973 C972 1.399 . S
C973 C974 1.376 . S
C974 H961 0.930 . S
C974 C973 1.376 . S
C974 C975 1.388 . S
C975 H962 0.930 . S
C975 C974 1.388 . S
C975 C976 1.390 . S
C976 C975 1.390 . S
C976 C977 1.394 . S
C976 C982 1.465 . S
C977 C972 1.399 . S
C977 C976 1.394 . S
C977 C978 1.516 . S
C978 C977 1.516 . S
C978 C979 1.502 . S
C978 C980 1.561 . S
C978 C981 1.526 . S
C979 H963 0.959 . S
C979 H964 0.959 . S
C979 H965 0.961 . S
C979 C978 1.502 . S
C980 H966 0.960 . S
C980 H967 0.961 . S
C980 H968 0.959 . S
C980 C978 1.561 . S
C981 C978 1.526 . S
C981 C982 1.396 . S
C981 C986 1.390 . S
C982 C976 1.465 . S
C982 C981 1.396 . S
C982 C983 1.399 . S
C983 H969 0.929 . S
C983 C982 1.399 . S
C983 C984 1.385 . S
C984 H970 0.931 . S
C984 C983 1.385 . S
C984 C985 1.389 . S
C985 C984 1.389 . S
C985 C986 1.387 . S
C986 H971 0.930 . S
C986 C981 1.390 . S
C986 C985 1.387 . S
H987 C999 0.930 . S
H988 C1001 0.930 . S
H989 C1002 0.930 . S
H990 C1006 0.959 . S
H991 C1006 0.959 . S
H992 C1006 0.961 . S
H993 C1007 0.960 . S
H994 C1007 0.961 . S
H995 C1007 0.959 . S
H996 C1010 0.929 . S
H997 C1011 0.931 . S
H998 C1013 0.930 . S
C999 H987 0.930 . S
C999 C1000 1.399 . S
C999 C1004 1.399 . S
C1000 C999 1.399 . S
C1000 C1001 1.376 . S
C1001 H988 0.930 . S
C1001 C1000 1.376 . S
C1001 C1002 1.388 . S
C1002 H989 0.930 . S
C1002 C1001 1.388 . S
C1002 C1003 1.390 . S
C1003 C1002 1.390 . S
C1003 C1004 1.394 . S
C1003 C1009 1.465 . S
C1004 C999 1.399 . S
C1004 C1003 1.394 . S
C1004 C1005 1.516 . S
C1005 C1004 1.516 . S
C1005 C1006 1.502 . S
C1005 C1007 1.561 . S
C1005 C1008 1.526 . S
C1006 H990 0.959 . S
C1006 H991 0.959 . S
C1006 H992 0.961 . S
C1006 C1005 1.502 . S
C1007 H993 0.960 . S
C1007 H994 0.961 . S
C1007 H995 0.959 . S
C1007 C1005 1.561 . S
C1008 C1005 1.526 . S
C1008 C1009 1.396 . S
C1008 C1013 1.390 . S
C1009 C1003 1.465 . S
C1009 C1008 1.396 . S
C1009 C1010 1.399 . S
C1010 H996 0.929 . S
C1010 C1009 1.399 . S
C1010 C1011 1.385 . S
C1011 H997 0.931 . S
C1011 C1010 1.385 . S
C1011 C1012 1.389 . S
C1012 C1011 1.389 . S
C1012 C1013 1.387 . S
C1013 H998 0.930 . S
C1013 C1008 1.390 . S
C1013 C1012 1.387 . S
H1014 C1026 0.930 . S
H1015 C1028 0.930 . S
H1016 C1029 0.930 . S
H1017 C1033 0.959 . S
H1018 C1033 0.959 . S
H1019 C1033 0.961 . S
H1020 C1034 0.960 . S
H1021 C1034 0.961 . S
H1022 C1034 0.959 . S
H1023 C1037 0.929 . S
H1024 C1038 0.931 . S
H1025 C1040 0.930 . S
C1026 H1014 0.930 . S
C1026 C1027 1.399 . S
C1026 C1031 1.399 . S
C1027 C1026 1.399 . S
C1027 C1028 1.376 . S
C1028 H1015 0.930 . S
C1028 C1027 1.376 . S
C1028 C1029 1.388 . S
C1029 H1016 0.930 . S
C1029 C1028 1.388 . S
C1029 C1030 1.390 . S
C1030 C1029 1.390 . S
C1030 C1031 1.394 . S
C1030 C1036 1.465 . S
C1031 C1026 1.399 . S
C1031 C1030 1.394 . S
C1031 C1032 1.516 . S
C1032 C1031 1.516 . S
C1032 C1033 1.502 . S
C1032 C1034 1.561 . S
C1032 C1035 1.526 . S
C1033 H1017 0.959 . S
C1033 H1018 0.959 . S
C1033 H1019 0.961 . S
C1033 C1032 1.502 . S
C1034 H1020 0.960 . S
C1034 H1021 0.961 . S
C1034 H1022 0.959 . S
C1034 C1032 1.561 . S
C1035 C1032 1.526 . S
C1035 C1036 1.396 . S
C1035 C1040 1.390 . S
C1036 C1030 1.465 . S
C1036 C1035 1.396 . S
C1036 C1037 1.399 . S
C1037 H1023 0.929 . S
C1037 C1036 1.399 . S
C1037 C1038 1.385 . S
C1038 H1024 0.931 . S
C1038 C1037 1.385 . S
C1038 C1039 1.389 . S
C1039 C1038 1.389 . S
C1039 C1040 1.387 . S
C1040 H1025 0.930 . S
C1040 C1035 1.390 . S
C1040 C1039 1.387 . S
H1041 C1053 0.930 . S
H1042 C1055 0.930 . S
H1043 C1056 0.930 . S
H1044 C1060 0.959 . S
H1045 C1060 0.959 . S
H1046 C1060 0.961 . S
H1047 C1061 0.960 . S
H1048 C1061 0.961 . S
H1049 C1061 0.959 . S
H1050 C1064 0.929 . S
H1051 C1065 0.931 . S
H1052 C1067 0.930 . S
C1053 H1041 0.930 . S
C1053 C1054 1.399 . S
C1053 C1058 1.399 . S
C1054 C1053 1.399 . S
C1054 C1055 1.376 . S
C1055 H1042 0.930 . S
C1055 C1054 1.376 . S
C1055 C1056 1.388 . S
C1056 H1043 0.930 . S
C1056 C1055 1.388 . S
C1056 C1057 1.390 . S
C1057 C1056 1.390 . S
C1057 C1058 1.394 . S
C1057 C1063 1.465 . S
C1058 C1053 1.399 . S
C1058 C1057 1.394 . S
C1058 C1059 1.516 . S
C1059 C1058 1.516 . S
C1059 C1060 1.502 . S
C1059 C1061 1.561 . S
C1059 C1062 1.526 . S
C1060 H1044 0.959 . S
C1060 H1045 0.959 . S
C1060 H1046 0.961 . S
C1060 C1059 1.502 . S
C1061 H1047 0.960 . S
C1061 H1048 0.961 . S
C1061 H1049 0.959 . S
C1061 C1059 1.561 . S
C1062 C1059 1.526 . S
C1062 C1063 1.396 . S
C1062 C1067 1.390 . S
C1063 C1057 1.465 . S
C1063 C1062 1.396 . S
C1063 C1064 1.399 . S
C1064 H1050 0.929 . S
C1064 C1063 1.399 . S
C1064 C1065 1.385 . S
C1065 H1051 0.931 . S
C1065 C1064 1.385 . S
C1065 C1066 1.389 . S
C1066 C1065 1.389 . S
C1066 C1067 1.387 . S
C1067 H1052 0.930 . S
C1067 C1062 1.390 . S
C1067 C1066 1.387 . S
H1068 C1080 0.930 . S
H1069 C1082 0.930 . S
H1070 C1083 0.930 . S
H1071 C1087 0.959 . S
H1072 C1087 0.959 . S
H1073 C1087 0.961 . S
H1074 C1088 0.960 . S
H1075 C1088 0.961 . S
H1076 C1088 0.959 . S
H1077 C1091 0.929 . S
H1078 C1092 0.931 . S
H1079 C1094 0.930 . S
C1080 H1068 0.930 . S
C1080 C1081 1.399 . S
C1080 C1085 1.399 . S
C1081 C1080 1.399 . S
C1081 C1082 1.376 . S
C1082 H1069 0.930 . S
C1082 C1081 1.376 . S
C1082 C1083 1.388 . S
C1083 H1070 0.930 . S
C1083 C1082 1.388 . S
C1083 C1084 1.390 . S
C1084 C1083 1.390 . S
C1084 C1085 1.394 . S
C1084 C1090 1.465 . S
C1085 C1080 1.399 . S
C1085 C1084 1.394 . S
C1085 C1086 1.516 . S
C1086 C1085 1.516 . S
C1086 C1087 1.502 . S
C1086 C1088 1.561 . S
C1086 C1089 1.526 . S
C1087 H1071 0.959 . S
C1087 H1072 0.959 . S
C1087 H1073 0.961 . S
C1087 C1086 1.502 . S
C1088 H1074 0.960 . S
C1088 H1075 0.961 . S
C1088 H1076 0.959 . S
C1088 C1086 1.561 . S
C1089 C1086 1.526 . S
C1089 C1090 1.396 . S
C1089 C1094 1.390 . S
C1090 C1084 1.465 . S
C1090 C1089 1.396 . S
C1090 C1091 1.399 . S
C1091 H1077 0.929 . S
C1091 C1090 1.399 . S
C1091 C1092 1.385 . S
C1092 H1078 0.931 . S
C1092 C1091 1.385 . S
C1092 C1093 1.389 . S
C1093 C1092 1.389 . S
C1093 C1094 1.387 . S
C1094 H1079 0.930 . S
C1094 C1089 1.390 . S
C1094 C1093 1.387 . S
H1095 C1107 0.930 . S
H1096 C1109 0.930 . S
H1097 C1110 0.930 . S
H1098 C1114 0.959 . S
H1099 C1114 0.959 . S
H1100 C1114 0.961 . S
H1101 C1115 0.960 . S
H1102 C1115 0.961 . S
H1103 C1115 0.959 . S
H1104 C1118 0.929 . S
H1105 C1119 0.931 . S
H1106 C1121 0.930 . S
C1107 H1095 0.930 . S
C1107 C1108 1.399 . S
C1107 C1112 1.399 . S
C1108 C1107 1.399 . S
C1108 C1109 1.376 . S
C1109 H1096 0.930 . S
C1109 C1108 1.376 . S
C1109 C1110 1.388 . S
C1110 H1097 0.930 . S
C1110 C1109 1.388 . S
C1110 C1111 1.390 . S
C1111 C1110 1.390 . S
C1111 C1112 1.394 . S
C1111 C1117 1.465 . S
C1112 C1107 1.399 . S
C1112 C1111 1.394 . S
C1112 C1113 1.516 . S
C1113 C1112 1.516 . S
C1113 C1114 1.502 . S
C1113 C1115 1.561 . S
C1113 C1116 1.526 . S
C1114 H1098 0.959 . S
C1114 H1099 0.959 . S
C1114 H1100 0.961 . S
C1114 C1113 1.502 . S
C1115 H1101 0.960 . S
C1115 H1102 0.961 . S
C1115 H1103 0.959 . S
C1115 C1113 1.561 . S
C1116 C1113 1.526 . S
C1116 C1117 1.396 . S
C1116 C1121 1.390 . S
C1117 C1111 1.465 . S
C1117 C1116 1.396 . S
C1117 C1118 1.399 . S
C1118 H1104 0.929 . S
C1118 C1117 1.399 . S
C1118 C1119 1.385 . S
C1119 H1105 0.931 . S
C1119 C1118 1.385 . S
C1119 C1120 1.389 . S
C1120 C1119 1.389 . S
C1120 C1121 1.387 . S
C1121 H1106 0.930 . S
C1121 C1116 1.390 . S
C1121 C1120 1.387 . S
H1122 C1134 0.930 . S
H1123 C1136 0.930 . S
H1124 C1137 0.930 . S
H1125 C1141 0.959 . S
H1126 C1141 0.959 . S
H1127 C1141 0.961 . S
H1128 C1142 0.960 . S
H1129 C1142 0.961 . S
H1130 C1142 0.959 . S
H1131 C1145 0.929 . S
H1132 C1146 0.931 . S
H1133 C1148 0.930 . S
C1134 H1122 0.930 . S
C1134 C1135 1.399 . S
C1134 C1139 1.399 . S
C1135 C1134 1.399 . S
C1135 C1136 1.376 . S
C1136 H1123 0.930 . S
C1136 C1135 1.376 . S
C1136 C1137 1.388 . S
C1137 H1124 0.930 . S
C1137 C1136 1.388 . S
C1137 C1138 1.390 . S
C1138 C1137 1.390 . S
C1138 C1139 1.394 . S
C1138 C1144 1.465 . S
C1139 C1134 1.399 . S
C1139 C1138 1.394 . S
C1139 C1140 1.516 . S
C1140 C1139 1.516 . S
C1140 C1141 1.502 . S
C1140 C1142 1.561 . S
C1140 C1143 1.526 . S
C1141 H1125 0.959 . S
C1141 H1126 0.959 . S
C1141 H1127 0.961 . S
C1141 C1140 1.502 . S
C1142 H1128 0.960 . S
C1142 H1129 0.961 . S
C1142 H1130 0.959 . S
C1142 C1140 1.561 . S
C1143 C1140 1.526 . S
C1143 C1144 1.396 . S
C1143 C1148 1.390 . S
C1144 C1138 1.465 . S
C1144 C1143 1.396 . S
C1144 C1145 1.399 . S
C1145 H1131 0.929 . S
C1145 C1144 1.399 . S
C1145 C1146 1.385 . S
C1146 H1132 0.931 . S
C1146 C1145 1.385 . S
C1146 C1147 1.389 . S
C1147 C1146 1.389 . S
C1147 C1148 1.387 . S
C1148 H1133 0.930 . S
C1148 C1143 1.390 . S
C1148 C1147 1.387 . S
H1149 C1161 0.930 . S
H1150 C1163 0.930 . S
H1151 C1164 0.930 . S
H1152 C1168 0.959 . S
H1153 C1168 0.959 . S
H1154 C1168 0.961 . S
H1155 C1169 0.960 . S
H1156 C1169 0.961 . S
H1157 C1169 0.959 . S
H1158 C1172 0.929 . S
H1159 C1173 0.931 . S
H1160 C1175 0.930 . S
C1161 H1149 0.930 . S
C1161 C1162 1.399 . S
C1161 C1166 1.399 . S
C1162 C1161 1.399 . S
C1162 C1163 1.376 . S
C1163 H1150 0.930 . S
C1163 C1162 1.376 . S
C1163 C1164 1.388 . S
C1164 H1151 0.930 . S
C1164 C1163 1.388 . S
C1164 C1165 1.390 . S
C1165 C1164 1.390 . S
C1165 C1166 1.394 . S
C1165 C1171 1.465 . S
C1166 C1161 1.399 . S
C1166 C1165 1.394 . S
C1166 C1167 1.516 . S
C1167 C1166 1.516 . S
C1167 C1168 1.502 . S
C1167 C1169 1.561 . S
C1167 C1170 1.526 . S
C1168 H1152 0.959 . S
C1168 H1153 0.959 . S
C1168 H1154 0.961 . S
C1168 C1167 1.502 . S
C1169 H1155 0.960 . S
C1169 H1156 0.961 . S
C1169 H1157 0.959 . S
C1169 C1167 1.561 . S
C1170 C1167 1.526 . S
C1170 C1171 1.396 . S
C1170 C1175 1.390 . S
C1171 C1165 1.465 . S
C1171 C1170 1.396 . S
C1171 C1172 1.399 . S
C1172 H1158 0.929 . S
C1172 C1171 1.399 . S
C1172 C1173 1.385 . S
C1173 H1159 0.931 . S
C1173 C1172 1.385 . S
C1173 C1174 1.389 . S
C1174 C1173 1.389 . S
C1174 C1175 1.387 . S
C1175 H1160 0.930 . S
C1175 C1170 1.390 . S
C1175 C1174 1.387 . S
H1176 C1188 0.930 . S
H1177 C1190 0.930 . S
H1178 C1191 0.930 . S
H1179 C1195 0.959 . S
H1180 C1195 0.959 . S
H1181 C1195 0.961 . S
H1182 C1196 0.960 . S
H1183 C1196 0.961 . S
H1184 C1196 0.959 . S
H1185 C1199 0.929 . S
H1186 C1200 0.931 . S
H1187 C1202 0.930 . S
C1188 H1176 0.930 . S
C1188 C1189 1.399 . S
C1188 C1193 1.399 . S
C1189 C1188 1.399 . S
C1189 C1190 1.376 . S
C1190 H1177 0.930 . S
C1190 C1189 1.376 . S
C1190 C1191 1.388 . S
C1191 H1178 0.930 . S
C1191 C1190 1.388 . S
C1191 C1192 1.390 . S
C1192 C1191 1.390 . S
C1192 C1193 1.394 . S
C1192 C1198 1.465 . S
C1193 C1188 1.399 . S
C1193 C1192 1.394 . S
C1193 C1194 1.516 . S
C1194 C1193 1.516 . S
C1194 C1195 1.502 . S
C1194 C1196 1.561 . S
C1194 C1197 1.526 . S
C1195 H1179 0.959 . S
C1195 H1180 0.959 . S
C1195 H1181 0.961 . S
C1195 C1194 1.502 . S
C1196 H1182 0.960 . S
C1196 H1183 0.961 . S
C1196 H1184 0.959 . S
C1196 C1194 1.561 . S
C1197 C1194 1.526 . S
C1197 C1198 1.396 . S
C1197 C1202 1.390 . S
C1198 C1192 1.465 . S
C1198 C1197 1.396 . S
C1198 C1199 1.399 . S
C1199 H1185 0.929 . S
C1199 C1198 1.399 . S
C1199 C1200 1.385 . S
C1200 H1186 0.931 . S
C1200 C1199 1.385 . S
C1200 C1201 1.389 . S
C1201 C1200 1.389 . S
C1201 C1202 1.387 . S
C1202 H1187 0.930 . S
C1202 C1197 1.390 . S
C1202 C1201 1.387 . S
H1203 C1215 0.930 . S
H1204 C1217 0.930 . S
H1205 C1218 0.930 . S
H1206 C1222 0.959 . S
H1207 C1222 0.959 . S
H1208 C1222 0.961 . S
H1209 C1223 0.960 . S
H1210 C1223 0.961 . S
H1211 C1223 0.959 . S
H1212 C1226 0.929 . S
H1213 C1227 0.931 . S
H1214 C1229 0.930 . S
C1215 H1203 0.930 . S
C1215 C1216 1.399 . S
C1215 C1220 1.399 . S
C1216 C1215 1.399 . S
C1216 C1217 1.376 . S
C1217 H1204 0.930 . S
C1217 C1216 1.376 . S
C1217 C1218 1.388 . S
C1218 H1205 0.930 . S
C1218 C1217 1.388 . S
C1218 C1219 1.390 . S
C1219 C1218 1.390 . S
C1219 C1220 1.394 . S
C1219 C1225 1.465 . S
C1220 C1215 1.399 . S
C1220 C1219 1.394 . S
C1220 C1221 1.516 . S
C1221 C1220 1.516 . S
C1221 C1222 1.502 . S
C1221 C1223 1.561 . S
C1221 C1224 1.526 . S
C1222 H1206 0.959 . S
C1222 H1207 0.959 . S
C1222 H1208 0.961 . S
C1222 C1221 1.502 . S
C1223 H1209 0.960 . S
C1223 H1210 0.961 . S
C1223 H1211 0.959 . S
C1223 C1221 1.561 . S
C1224 C1221 1.526 . S
C1224 C1225 1.396 . S
C1224 C1229 1.390 . S
C1225 C1219 1.465 . S
C1225 C1224 1.396 . S
C1225 C1226 1.399 . S
C1226 H1212 0.929 . S
C1226 C1225 1.399 . S
C1226 C1227 1.385 . S
C1227 H1213 0.931 . S
C1227 C1226 1.385 . S
C1227 C1228 1.389 . S
C1228 C1227 1.389 . S
C1228 C1229 1.387 . S
C1229 H1214 0.930 . S
C1229 C1224 1.390 . S
C1229 C1228 1.387 . S
H1230 C1242 0.930 . S
H1231 C1244 0.930 . S
H1232 C1245 0.930 . S
H1233 C1249 0.959 . S
H1234 C1249 0.959 . S
H1235 C1249 0.961 . S
H1236 C1250 0.960 . S
H1237 C1250 0.961 . S
H1238 C1250 0.959 . S
H1239 C1253 0.929 . S
H1240 C1254 0.931 . S
H1241 C1256 0.930 . S
C1242 H1230 0.930 . S
C1242 C1243 1.399 . S
C1242 C1247 1.399 . S
C1243 C1242 1.399 . S
C1243 C1244 1.376 . S
C1244 H1231 0.930 . S
C1244 C1243 1.376 . S
C1244 C1245 1.388 . S
C1245 H1232 0.930 . S
C1245 C1244 1.388 . S
C1245 C1246 1.390 . S
C1246 C1245 1.390 . S
C1246 C1247 1.394 . S
C1246 C1252 1.465 . S
C1247 C1242 1.399 . S
C1247 C1246 1.394 . S
C1247 C1248 1.516 . S
C1248 C1247 1.516 . S
C1248 C1249 1.502 . S
C1248 C1250 1.561 . S
C1248 C1251 1.526 . S
C1249 H1233 0.959 . S
C1249 H1234 0.959 . S
C1249 H1235 0.961 . S
C1249 C1248 1.502 . S
C1250 H1236 0.960 . S
C1250 H1237 0.961 . S
C1250 H1238 0.959 . S
C1250 C1248 1.561 . S
C1251 C1248 1.526 . S
C1251 C1252 1.396 . S
C1251 C1256 1.390 . S
C1252 C1246 1.465 . S
C1252 C1251 1.396 . S
C1252 C1253 1.399 . S
C1253 H1239 0.929 . S
C1253 C1252 1.399 . S
C1253 C1254 1.385 . S
C1254 H1240 0.931 . S
C1254 C1253 1.385 . S
C1254 C1255 1.389 . S
C1255 C1254 1.389 . S
C1255 C1256 1.387 . S
C1256 H1241 0.930 . S
C1256 C1251 1.390 . S
C1256 C1255 1.387 . S
H1257 C1269 0.930 . S
H1258 C1271 0.930 . S
H1259 C1272 0.930 . S
H1260 C1276 0.959 . S
H1261 C1276 0.959 . S
H1262 C1276 0.961 . S
H1263 C1277 0.960 . S
H1264 C1277 0.961 . S
H1265 C1277 0.959 . S
H1266 C1280 0.929 . S
H1267 C1281 0.931 . S
H1268 C1283 0.930 . S
C1269 H1257 0.930 . S
C1269 C1270 1.399 . S
C1269 C1274 1.399 . S
C1270 C1269 1.399 . S
C1270 C1271 1.376 . S
C1271 H1258 0.930 . S
C1271 C1270 1.376 . S
C1271 C1272 1.388 . S
C1272 H1259 0.930 . S
C1272 C1271 1.388 . S
C1272 C1273 1.390 . S
C1273 C1272 1.390 . S
C1273 C1274 1.394 . S
C1273 C1279 1.465 . S
C1274 C1269 1.399 . S
C1274 C1273 1.394 . S
C1274 C1275 1.516 . S
C1275 C1274 1.516 . S
C1275 C1276 1.502 . S
C1275 C1277 1.561 . S
C1275 C1278 1.526 . S
C1276 H1260 0.959 . S
C1276 H1261 0.959 . S
C1276 H1262 0.961 . S
C1276 C1275 1.502 . S
C1277 H1263 0.960 . S
C1277 H1264 0.961 . S
C1277 H1265 0.959 . S
C1277 C1275 1.561 . S
C1278 C1275 1.526 . S
C1278 C1279 1.396 . S
C1278 C1283 1.390 . S
C1279 C1273 1.465 . S
C1279 C1278 1.396 . S
C1279 C1280 1.399 . S
C1280 H1266 0.929 . S
C1280 C1279 1.399 . S
C1280 C1281 1.385 . S
C1281 H1267 0.931 . S
C1281 C1280 1.385 . S
C1281 C1282 1.389 . S
C1282 C1281 1.389 . S
C1282 C1283 1.387 . S
C1283 H1268 0.930 . S
C1283 C1278 1.390 . S
C1283 C1282 1.387 . S
H1284 C1296 0.930 . S
H1285 C1298 0.930 . S
H1286 C1299 0.930 . S
H1287 C1303 0.959 . S
H1288 C1303 0.959 . S
H1289 C1303 0.961 . S
H1290 C1304 0.960 . S
H1291 C1304 0.961 . S
H1292 C1304 0.959 . S
H1293 C1307 0.929 . S
H1294 C1308 0.931 . S
H1295 C1310 0.930 . S
C1296 H1284 0.930 . S
C1296 C1297 1.399 . S
C1296 C1301 1.399 . S
C1297 C1296 1.399 . S
C1297 C1298 1.376 . S
C1298 H1285 0.930 . S
C1298 C1297 1.376 . S
C1298 C1299 1.388 . S
C1299 H1286 0.930 . S
C1299 C1298 1.388 . S
C1299 C1300 1.390 . S
C1300 C1299 1.390 . S
C1300 C1301 1.394 . S
C1300 C1306 1.465 . S
C1301 C1296 1.399 . S
C1301 C1300 1.394 . S
C1301 C1302 1.516 . S
C1302 C1301 1.516 . S
C1302 C1303 1.502 . S
C1302 C1304 1.561 . S
C1302 C1305 1.526 . S
C1303 H1287 0.959 . S
C1303 H1288 0.959 . S
C1303 H1289 0.961 . S
C1303 C1302 1.502 . S
C1304 H1290 0.960 . S
C1304 H1291 0.961 . S
C1304 H1292 0.959 . S
C1304 C1302 1.561 . S
C1305 C1302 1.526 . S
C1305 C1306 1.396 . S
C1305 C1310 1.390 . S
C1306 C1300 1.465 . S
C1306 C1305 1.396 . S
C1306 C1307 1.399 . S
C1307 H1293 0.929 . S
C1307 C1306 1.399 . S
C1307 C1308 1.385 . S
C1308 H1294 0.931 . S
C1308 C1307 1.385 . S
C1308 C1309 1.389 . S
C1309 C1308 1.389 . S
C1309 C1310 1.387 . S
C1310 H1295 0.930 . S
C1310 C1305 1.390 . S
C1310 C1309 1.387 . S
H1311 C1323 0.930 . S
H1312 C1325 0.930 . S
H1313 C1326 0.930 . S
H1314 C1330 0.959 . S
H1315 C1330 0.959 . S
H1316 C1330 0.961 . S
H1317 C1331 0.960 . S
H1318 C1331 0.961 . S
H1319 C1331 0.959 . S
H1320 C1334 0.929 . S
H1321 C1335 0.931 . S
H1322 C1337 0.930 . S
C1323 H1311 0.930 . S
C1323 C1324 1.399 . S
C1323 C1328 1.399 . S
C1324 C1323 1.399 . S
C1324 C1325 1.376 . S
C1325 H1312 0.930 . S
C1325 C1324 1.376 . S
C1325 C1326 1.388 . S
C1326 H1313 0.930 . S
C1326 C1325 1.388 . S
C1326 C1327 1.390 . S
C1327 C1326 1.390 . S
C1327 C1328 1.394 . S
C1327 C1333 1.465 . S
C1328 C1323 1.399 . S
C1328 C1327 1.394 . S
C1328 C1329 1.516 . S
C1329 C1328 1.516 . S
C1329 C1330 1.502 . S
C1329 C1331 1.561 . S
C1329 C1332 1.526 . S
C1330 H1314 0.959 . S
C1330 H1315 0.959 . S
C1330 H1316 0.961 . S
C1330 C1329 1.502 . S
C1331 H1317 0.960 . S
C1331 H1318 0.961 . S
C1331 H1319 0.959 . S
C1331 C1329 1.561 . S
C1332 C1329 1.526 . S
C1332 C1333 1.396 . S
C1332 C1337 1.390 . S
C1333 C1327 1.465 . S
C1333 C1332 1.396 . S
C1333 C1334 1.399 . S
C1334 H1320 0.929 . S
C1334 C1333 1.399 . S
C1334 C1335 1.385 . S
C1335 H1321 0.931 . S
C1335 C1334 1.385 . S
C1335 C1336 1.389 . S
C1336 C1335 1.389 . S
C1336 C1337 1.387 . S
C1337 H1322 0.930 . S
C1337 C1332 1.390 . S
C1337 C1336 1.387 . S
H1338 C1350 0.930 . S
H1339 C1352 0.930 . S
H1340 C1353 0.930 . S
H1341 C1357 0.959 . S
H1342 C1357 0.959 . S
H1343 C1357 0.961 . S
H1344 C1358 0.960 . S
H1345 C1358 0.961 . S
H1346 C1358 0.959 . S
H1347 C1361 0.929 . S
H1348 C1362 0.931 . S
H1349 C1364 0.930 . S
C1350 H1338 0.930 . S
C1350 C1351 1.399 . S
C1350 C1355 1.399 . S
C1351 C1350 1.399 . S
C1351 C1352 1.376 . S
C1352 H1339 0.930 . S
C1352 C1351 1.376 . S
C1352 C1353 1.388 . S
C1353 H1340 0.930 . S
C1353 C1352 1.388 . S
C1353 C1354 1.390 . S
C1354 C1353 1.390 . S
C1354 C1355 1.394 . S
C1354 C1360 1.465 . S
C1355 C1350 1.399 . S
C1355 C1354 1.394 . S
C1355 C1356 1.516 . S
C1356 C1355 1.516 . S
C1356 C1357 1.502 . S
C1356 C1358 1.561 . S
C1356 C1359 1.526 . S
C1357 H1341 0.959 . S
C1357 H1342 0.959 . S
C1357 H1343 0.961 . S
C1357 C1356 1.502 . S
C1358 H1344 0.960 . S
C1358 H1345 0.961 . S
C1358 H1346 0.959 . S
C1358 C1356 1.561 . S
C1359 C1356 1.526 . S
C1359 C1360 1.396 . S
C1359 C1364 1.390 . S
C1360 C1354 1.465 . S
C1360 C1359 1.396 . S
C1360 C1361 1.399 . S
C1361 H1347 0.929 . S
C1361 C1360 1.399 . S
C1361 C1362 1.385 . S
C1362 H1348 0.931 . S
C1362 C1361 1.385 . S
C1362 C1363 1.389 . S
C1363 C1362 1.389 . S
C1363 C1364 1.387 . S
C1364 H1349 0.930 . S
C1364 C1359 1.390 . S
C1364 C1363 1.387 . S
H1365 C1377 0.930 . S
H1366 C1379 0.930 . S
H1367 C1380 0.930 . S
H1368 C1384 0.959 . S
H1369 C1384 0.959 . S
H1370 C1384 0.961 . S
H1371 C1385 0.960 . S
H1372 C1385 0.961 . S
H1373 C1385 0.959 . S
H1374 C1388 0.929 . S
H1375 C1389 0.931 . S
H1376 C1391 0.930 . S
C1377 H1365 0.930 . S
C1377 C1378 1.399 . S
C1377 C1382 1.399 . S
C1378 C1377 1.399 . S
C1378 C1379 1.376 . S
C1379 H1366 0.930 . S
C1379 C1378 1.376 . S
C1379 C1380 1.388 . S
C1380 H1367 0.930 . S
C1380 C1379 1.388 . S
C1380 C1381 1.390 . S
C1381 C1380 1.390 . S
C1381 C1382 1.394 . S
C1381 C1387 1.465 . S
C1382 C1377 1.399 . S
C1382 C1381 1.394 . S
C1382 C1383 1.516 . S
C1383 C1382 1.516 . S
C1383 C1384 1.502 . S
C1383 C1385 1.561 . S
C1383 C1386 1.526 . S
C1384 H1368 0.959 . S
C1384 H1369 0.959 . S
C1384 H1370 0.961 . S
C1384 C1383 1.502 . S
C1385 H1371 0.960 . S
C1385 H1372 0.961 . S
C1385 H1373 0.959 . S
C1385 C1383 1.561 . S
C1386 C1383 1.526 . S
C1386 C1387 1.396 . S
C1386 C1391 1.390 . S
C1387 C1381 1.465 . S
C1387 C1386 1.396 . S
C1387 C1388 1.399 . S
C1388 H1374 0.929 . S
C1388 C1387 1.399 . S
C1388 C1389 1.385 . S
C1389 H1375 0.931 . S
C1389 C1388 1.385 . S
C1389 C1390 1.389 . S
C1390 C1389 1.389 . S
C1390 C1391 1.387 . S
C1391 H1376 0.930 . S
C1391 C1386 1.390 . S
C1391 C1390 1.387 . S
H1392 C1404 0.930 . S
H1393 C1406 0.930 . S
H1394 C1407 0.930 . S
H1395 C1411 0.959 . S
H1396 C1411 0.959 . S
H1397 C1411 0.961 . S
H1398 C1412 0.960 . S
H1399 C1412 0.961 . S
H1400 C1412 0.959 . S
H1401 C1415 0.929 . S
H1402 C1416 0.931 . S
H1403 C1418 0.930 . S
C1404 H1392 0.930 . S
C1404 C1405 1.399 . S
C1404 C1409 1.399 . S
C1405 C1404 1.399 . S
C1405 C1406 1.376 . S
C1406 H1393 0.930 . S
C1406 C1405 1.376 . S
C1406 C1407 1.388 . S
C1407 H1394 0.930 . S
C1407 C1406 1.388 . S
C1407 C1408 1.390 . S
C1408 C1407 1.390 . S
C1408 C1409 1.394 . S
C1408 C1414 1.465 . S
C1409 C1404 1.399 . S
C1409 C1408 1.394 . S
C1409 C1410 1.516 . S
C1410 C1409 1.516 . S
C1410 C1411 1.502 . S
C1410 C1412 1.561 . S
C1410 C1413 1.526 . S
C1411 H1395 0.959 . S
C1411 H1396 0.959 . S
C1411 H1397 0.961 . S
C1411 C1410 1.502 . S
C1412 H1398 0.960 . S
C1412 H1399 0.961 . S
C1412 H1400 0.959 . S
C1412 C1410 1.561 . S
C1413 C1410 1.526 . S
C1413 C1414 1.396 . S
C1413 C1418 1.390 . S
C1414 C1408 1.465 . S
C1414 C1413 1.396 . S
C1414 C1415 1.399 . S
C1415 H1401 0.929 . S
C1415 C1414 1.399 . S
C1415 C1416 1.385 . S
C1416 H1402 0.931 . S
C1416 C1415 1.385 . S
C1416 C1417 1.389 . S
C1417 C1416 1.389 . S
C1417 C1418 1.387 . S
C1418 H1403 0.930 . S
C1418 C1413 1.390 . S
C1418 C1417 1.387 . S
H1419 C1431 0.930 . S
H1420 C1433 0.930 . S
H1421 C1434 0.930 . S
H1422 C1438 0.959 . S
H1423 C1438 0.959 . S
H1424 C1438 0.961 . S
H1425 C1439 0.960 . S
H1426 C1439 0.961 . S
H1427 C1439 0.959 . S
H1428 C1442 0.929 . S
H1429 C1443 0.931 . S
H1430 C1445 0.930 . S
C1431 H1419 0.930 . S
C1431 C1432 1.399 . S
C1431 C1436 1.399 . S
C1432 C1431 1.399 . S
C1432 C1433 1.376 . S
C1433 H1420 0.930 . S
C1433 C1432 1.376 . S
C1433 C1434 1.388 . S
C1434 H1421 0.930 . S
C1434 C1433 1.388 . S
C1434 C1435 1.390 . S
C1435 C1434 1.390 . S
C1435 C1436 1.394 . S
C1435 C1441 1.465 . S
C1436 C1431 1.399 . S
C1436 C1435 1.394 . S
C1436 C1437 1.516 . S
C1437 C1436 1.516 . S
C1437 C1438 1.502 . S
C1437 C1439 1.561 . S
C1437 C1440 1.526 . S
C1438 H1422 0.959 . S
C1438 H1423 0.959 . S
C1438 H1424 0.961 . S
C1438 C1437 1.502 . S
C1439 H1425 0.960 . S
C1439 H1426 0.961 . S
C1439 H1427 0.959 . S
C1439 C1437 1.561 . S
C1440 C1437 1.526 . S
C1440 C1441 1.396 . S
C1440 C1445 1.390 . S
C1441 C1435 1.465 . S
C1441 C1440 1.396 . S
C1441 C1442 1.399 . S
C1442 H1428 0.929 . S
C1442 C1441 1.399 . S
C1442 C1443 1.385 . S
C1443 H1429 0.931 . S
C1443 C1442 1.385 . S
C1443 C1444 1.389 . S
C1444 C1443 1.389 . S
C1444 C1445 1.387 . S
C1445 H1430 0.930 . S
C1445 C1440 1.390 . S
C1445 C1444 1.387 . S
H1446 C1458 0.930 . S
H1447 C1460 0.930 . S
H1448 C1461 0.930 . S
H1449 C1465 0.959 . S
H1450 C1465 0.959 . S
H1451 C1465 0.961 . S
H1452 C1466 0.960 . S
H1453 C1466 0.961 . S
H1454 C1466 0.959 . S
H1455 C1469 0.929 . S
H1456 C1470 0.931 . S
H1457 C1472 0.930 . S
C1458 H1446 0.930 . S
C1458 C1459 1.399 . S
C1458 C1463 1.399 . S
C1459 C1458 1.399 . S
C1459 C1460 1.376 . S
C1460 H1447 0.930 . S
C1460 C1459 1.376 . S
C1460 C1461 1.388 . S
C1461 H1448 0.930 . S
C1461 C1460 1.388 . S
C1461 C1462 1.390 . S
C1462 C1461 1.390 . S
C1462 C1463 1.394 . S
C1462 C1468 1.465 . S
C1463 C1458 1.399 . S
C1463 C1462 1.394 . S
C1463 C1464 1.516 . S
C1464 C1463 1.516 . S
C1464 C1465 1.502 . S
C1464 C1466 1.561 . S
C1464 C1467 1.526 . S
C1465 H1449 0.959 . S
C1465 H1450 0.959 . S
C1465 H1451 0.961 . S
C1465 C1464 1.502 . S
C1466 H1452 0.960 . S
C1466 H1453 0.961 . S
C1466 H1454 0.959 . S
C1466 C1464 1.561 . S
C1467 C1464 1.526 . S
C1467 C1468 1.396 . S
C1467 C1472 1.390 . S
C1468 C1462 1.465 . S
C1468 C1467 1.396 . S
C1468 C1469 1.399 . S
C1469 H1455 0.929 . S
C1469 C1468 1.399 . S
C1469 C1470 1.385 . S
C1470 H1456 0.931 . S
C1470 C1469 1.385 . S
C1470 C1471 1.389 . S
C1471 C1470 1.389 . S
C1471 C1472 1.387 . S
C1472 H1457 0.930 . S
C1472 C1467 1.390 . S
C1472 C1471 1.387 . S
H1473 C1485 0.930 . S
H1474 C1487 0.930 . S
H1475 C1488 0.930 . S
H1476 C1492 0.959 . S
H1477 C1492 0.959 . S
H1478 C1492 0.961 . S
H1479 C1493 0.960 . S
H1480 C1493 0.961 . S
H1481 C1493 0.959 . S
H1482 C1496 0.929 . S
H1483 C1497 0.931 . S
H1484 C1499 0.930 . S
C1485 H1473 0.930 . S
C1485 C1486 1.399 . S
C1485 C1490 1.399 . S
C1486 C1485 1.399 . S
C1486 C1487 1.376 . S
C1487 H1474 0.930 . S
C1487 C1486 1.376 . S
C1487 C1488 1.388 . S
C1488 H1475 0.930 . S
C1488 C1487 1.388 . S
C1488 C1489 1.390 . S
C1489 C1488 1.390 . S
C1489 C1490 1.394 . S
C1489 C1495 1.465 . S
C1490 C1485 1.399 . S
C1490 C1489 1.394 . S
C1490 C1491 1.516 . S
C1491 C1490 1.516 . S
C1491 C1492 1.502 . S
C1491 C1493 1.561 . S
C1491 C1494 1.526 . S
C1492 H1476 0.959 . S
C1492 H1477 0.959 . S
C1492 H1478 0.961 . S
C1492 C1491 1.502 . S
C1493 H1479 0.960 . S
C1493 H1480 0.961 . S
C1493 H1481 0.959 . S
C1493 C1491 1.561 . S
C1494 C1491 1.526 . S
C1494 C1495 1.396 . S
C1494 C1499 1.390 . S
C1495 C1489 1.465 . S
C1495 C1494 1.396 . S
C1495 C1496 1.399 . S
C1496 H1482 0.929 . S
C1496 C1495 1.399 . S
C1496 C1497 1.385 . S
C1497 H1483 0.931 . S
C1497 C1496 1.385 . S
C1497 C1498 1.389 . S
C1498 C1497 1.389 . S
C1498 C1499 1.387 . S
C1499 H1484 0.930 . S
C1499 C1494 1.390 . S
C1499 C1498 1.387 . S
H1500 C1512 0.930 . S
H1501 C1514 0.930 . S
H1502 C1515 0.930 . S
H1503 C1519 0.959 . S
H1504 C1519 0.959 . S
H1505 C1519 0.961 . S
H1506 C1520 0.960 . S
H1507 C1520 0.961 . S
H1508 C1520 0.959 . S
H1509 C1523 0.929 . S
H1510 C1524 0.931 . S
H1511 C1526 0.930 . S
C1512 H1500 0.930 . S
C1512 C1513 1.399 . S
C1512 C1517 1.399 . S
C1513 C1512 1.399 . S
C1513 C1514 1.376 . S
C1514 H1501 0.930 . S
C1514 C1513 1.376 . S
C1514 C1515 1.388 . S
C1515 H1502 0.930 . S
C1515 C1514 1.388 . S
C1515 C1516 1.390 . S
C1516 C1515 1.390 . S
C1516 C1517 1.394 . S
C1516 C1522 1.465 . S
C1517 C1512 1.399 . S
C1517 C1516 1.394 . S
C1517 C1518 1.516 . S
C1518 C1517 1.516 . S
C1518 C1519 1.502 . S
C1518 C1520 1.561 . S
C1518 C1521 1.526 . S
C1519 H1503 0.959 . S
C1519 H1504 0.959 . S
C1519 H1505 0.961 . S
C1519 C1518 1.502 . S
C1520 H1506 0.960 . S
C1520 H1507 0.961 . S
C1520 H1508 0.959 . S
C1520 C1518 1.561 . S
C1521 C1518 1.526 . S
C1521 C1522 1.396 . S
C1521 C1526 1.390 . S
C1522 C1516 1.465 . S
C1522 C1521 1.396 . S
C1522 C1523 1.399 . S
C1523 H1509 0.929 . S
C1523 C1522 1.399 . S
C1523 C1524 1.385 . S
C1524 H1510 0.931 . S
C1524 C1523 1.385 . S
C1524 C1525 1.389 . S
C1525 C1524 1.389 . S
C1525 C1526 1.387 . S
C1526 H1511 0.930 . S
C1526 C1521 1.390 . S
C1526 C1525 1.387 . S
H1527 C1539 0.930 . S
H1528 C1541 0.930 . S
H1529 C1542 0.930 . S
H1530 C1546 0.959 . S
H1531 C1546 0.959 . S
H1532 C1546 0.961 . S
H1533 C1547 0.960 . S
H1534 C1547 0.961 . S
H1535 C1547 0.959 . S
H1536 C1550 0.929 . S
H1537 C1551 0.931 . S
H1538 C1553 0.930 . S
C1539 H1527 0.930 . S
C1539 C1540 1.399 . S
C1539 C1544 1.399 . S
C1540 C1539 1.399 . S
C1540 C1541 1.376 . S
C1541 H1528 0.930 . S
C1541 C1540 1.376 . S
C1541 C1542 1.388 . S
C1542 H1529 0.930 . S
C1542 C1541 1.388 . S
C1542 C1543 1.390 . S
C1543 C1542 1.390 . S
C1543 C1544 1.394 . S
C1543 C1549 1.465 . S
C1544 C1539 1.399 . S
C1544 C1543 1.394 . S
C1544 C1545 1.516 . S
C1545 C1544 1.516 . S
C1545 C1546 1.502 . S
C1545 C1547 1.561 . S
C1545 C1548 1.526 . S
C1546 H1530 0.959 . S
C1546 H1531 0.959 . S
C1546 H1532 0.961 . S
C1546 C1545 1.502 . S
C1547 H1533 0.960 . S
C1547 H1534 0.961 . S
C1547 H1535 0.959 . S
C1547 C1545 1.561 . S
C1548 C1545 1.526 . S
C1548 C1549 1.396 . S
C1548 C1553 1.390 . S
C1549 C1543 1.465 . S
C1549 C1548 1.396 . S
C1549 C1550 1.399 . S
C1550 H1536 0.929 . S
C1550 C1549 1.399 . S
C1550 C1551 1.385 . S
C1551 H1537 0.931 . S
C1551 C1550 1.385 . S
C1551 C1552 1.389 . S
C1552 C1551 1.389 . S
C1552 C1553 1.387 . S
C1553 H1538 0.930 . S
C1553 C1548 1.390 . S
C1553 C1552 1.387 . S
H1554 C1566 0.930 . S
H1555 C1568 0.930 . S
H1556 C1569 0.930 . S
H1557 C1573 0.959 . S
H1558 C1573 0.959 . S
H1559 C1573 0.961 . S
H1560 C1574 0.960 . S
H1561 C1574 0.961 . S
H1562 C1574 0.959 . S
H1563 C1577 0.929 . S
H1564 C1578 0.931 . S
H1565 C1580 0.930 . S
C1566 H1554 0.930 . S
C1566 C1567 1.399 . S
C1566 C1571 1.399 . S
C1567 C1566 1.399 . S
C1567 C1568 1.376 . S
C1568 H1555 0.930 . S
C1568 C1567 1.376 . S
C1568 C1569 1.388 . S
C1569 H1556 0.930 . S
C1569 C1568 1.388 . S
C1569 C1570 1.390 . S
C1570 C1569 1.390 . S
C1570 C1571 1.394 . S
C1570 C1576 1.465 . S
C1571 C1566 1.399 . S
C1571 C1570 1.394 . S
C1571 C1572 1.516 . S
C1572 C1571 1.516 . S
C1572 C1573 1.502 . S
C1572 C1574 1.561 . S
C1572 C1575 1.526 . S
C1573 H1557 0.959 . S
C1573 H1558 0.959 . S
C1573 H1559 0.961 . S
C1573 C1572 1.502 . S
C1574 H1560 0.960 . S
C1574 H1561 0.961 . S
C1574 H1562 0.959 . S
C1574 C1572 1.561 . S
C1575 C1572 1.526 . S
C1575 C1576 1.396 . S
C1575 C1580 1.390 . S
C1576 C1570 1.465 . S
C1576 C1575 1.396 . S
C1576 C1577 1.399 . S
C1577 H1563 0.929 . S
C1577 C1576 1.399 . S
C1577 C1578 1.385 . S
C1578 H1564 0.931 . S
C1578 C1577 1.385 . S
C1578 C1579 1.389 . S
C1579 C1578 1.389 . S
C1579 C1580 1.387 . S
C1580 H1565 0.930 . S
C1580 C1575 1.390 . S
C1580 C1579 1.387 . S
H1581 C1593 0.930 . S
H1582 C1595 0.930 . S
H1583 C1596 0.930 . S
H1584 C1600 0.959 . S
H1585 C1600 0.959 . S
H1586 C1600 0.961 . S
H1587 C1601 0.960 . S
H1588 C1601 0.961 . S
H1589 C1601 0.959 . S
H1590 C1604 0.929 . S
H1591 C1605 0.931 . S
H1592 C1607 0.930 . S
C1593 H1581 0.930 . S
C1593 C1594 1.399 . S
C1593 C1598 1.399 . S
C1594 C1593 1.399 . S
C1594 C1595 1.376 . S
C1595 H1582 0.930 . S
C1595 C1594 1.376 . S
C1595 C1596 1.388 . S
C1596 H1583 0.930 . S
C1596 C1595 1.388 . S
C1596 C1597 1.390 . S
C1597 C1596 1.390 . S
C1597 C1598 1.394 . S
C1597 C1603 1.465 . S
C1598 C1593 1.399 . S
C1598 C1597 1.394 . S
C1598 C1599 1.516 . S
C1599 C1598 1.516 . S
C1599 C1600 1.502 . S
C1599 C1601 1.561 . S
C1599 C1602 1.526 . S
C1600 H1584 0.959 . S
C1600 H1585 0.959 . S
C1600 H1586 0.961 . S
C1600 C1599 1.502 . S
C1601 H1587 0.960 . S
C1601 H1588 0.961 . S
C1601 H1589 0.959 . S
C1601 C1599 1.561 . S
C1602 C1599 1.526 . S
C1602 C1603 1.396 . S
C1602 C1607 1.390 . S
C1603 C1597 1.465 . S
C1603 C1602 1.396 . S
C1603 C1604 1.399 . S
C1604 H1590 0.929 . S
C1604 C1603 1.399 . S
C1604 C1605 1.385 . S
C1605 H1591 0.931 . S
C1605 C1604 1.385 . S
C1605 C1606 1.389 . S
C1606 C1605 1.389 . S
C1606 C1607 1.387 . S
C1607 H1592 0.930 . S
C1607 C1602 1.390 . S
C1607 C1606 1.387 . S
C541 C8 2.259 . S
C553 C74 2.257 . S
C568 C107 2.259 . S
C580 C41 2.257 . S
C595 C206 2.257 . S
C607 C140 2.256 . S
C622 C173 2.275 . S
C634 C239 2.272 . S
C649 C338 2.258 . S
C661 C272 2.257 . S
C676 C305 2.256 . S
C688 C371 2.256 . S
C703 C470 2.259 . S
C715 C404 2.258 . S
C730 C437 2.275 . S
C742 C503 2.278 . S
C757 C17 1.491 . S
C769 C347 1.490 . S
C784 C380 1.493 . S
C796 C50 1.498 . S
C811 C281 1.522 . S
C823 C83 1.528 . S
C838 C314 1.491 . S
C850 C116 1.495 . S
C865 C479 1.512 . S
C877 C149 1.506 . S
C892 C512 1.533 . S
C904 C182 1.530 . S
C919 C413 1.521 . S
C931 C215 1.527 . S
C946 C446 1.492 . S
C958 C248 1.496 . S
C973 C28 1.018 . S
C985 C259 1.019 . S
C1000 C61 1.065 . S
C1012 C160 1.065 . S
C1027 C193 1.063 . S
C1039 C94 1.063 . S
C1054 C226 1.063 . S
C1066 C127 1.063 . S
C1081 C292 1.017 . S
C1093 C523 1.024 . S
C1108 C325 1.032 . S
C1120 C424 1.021 . S
C1135 C358 1.026 . S
C1147 C457 1.042 . S
C1162 C391 1.067 . S
C1174 C490 1.072 . S
C1189 N476 1.032 . S
C1201 N5 1.021 . S
C1216 N38 1.023 . S
C1228 N509 0.962 . S
C1243 N410 1.022 . S
C1255 N71 1.016 . S
C1270 N443 1.031 . S
C1282 N104 1.048 . S
C1297 N344 0.971 . S
C1309 N137 1.029 . S
C1324 N170 1.022 . S
C1336 N377 1.035 . S
C1351 N278 0.997 . S
C1363 N203 1.007 . S
C1378 N236 1.024 . S
C1390 N311 0.964 . S
C1405 N212 1.049 . S
C1417 N269 1.017 . S
C1432 N245 1.055 . S
C1444 N302 1.023 . S
C1459 N146 0.954 . S
C1471 N335 1.033 . S
C1486 N368 1.049 . S
C1498 N179 1.023 . S
C1513 N80 0.951 . S
C1525 N401 1.014 . S
C1540 N434 1.049 . S
C1552 N113 1.001 . S
C1567 N467 1.014 . S
C1579 N14 1.045 . S
C1594 N47 1.018 . S
C1606 N500 1.004 . S
