# Generated by pormake.
# Topology msp, (4)-cn, num edge types: 1
# Building blocks:
#     Node 0, Type 0, BuildingBlock: KOZSID_clean_sbu_0, # of connection points: 4
#     Node 1, Type 0, BuildingBlock: KOZSID_clean_sbu_0, # of connection points: 4
#     Node 2, Type 0, BuildingBlock: KOZSID_clean_sbu_0, # of connection points: 4
#     Node 3, Type 0, BuildingBlock: KOZSID_clean_sbu_0, # of connection points: 4
#     Node 4, Type 0, BuildingBlock: KOZSID_clean_sbu_0, # of connection points: 4
#     Node 5, Type 0, BuildingBlock: KOZSID_clean_sbu_0, # of connection points: 4
#     Node 6, Type 0, BuildingBlock: KOZSID_clean_sbu_0, # of connection points: 4
#     Node 7, Type 0, BuildingBlock: KOZSID_clean_sbu_0, # of connection points: 4
#     Edge 8, Type (0, 0), BuildingBlock: TEMPAE_clean_linker_10, # of connection points: 2
#     Edge 9, Type (0, 0), BuildingBlock: TEMPAE_clean_linker_10, # of connection points: 2
#     Edge 10, Type (0, 0), BuildingBlock: TEMPAE_clean_linker_10, # of connection points: 2
#     Edge 11, Type (0, 0), BuildingBlock: TEMPAE_clean_linker_10, # of connection points: 2
#     Edge 12, Type (0, 0), BuildingBlock: TEMPAE_clean_linker_10, # of connection points: 2
#     Edge 13, Type (0, 0), BuildingBlock: TEMPAE_clean_linker_10, # of connection points: 2
#     Edge 14, Type (0, 0), BuildingBlock: TEMPAE_clean_linker_10, # of connection points: 2
#     Edge 15, Type (0, 0), BuildingBlock: TEMPAE_clean_linker_10, # of connection points: 2
#     Edge 16, Type (0, 0), BuildingBlock: TEMPAE_clean_linker_10, # of connection points: 2
#     Edge 17, Type (0, 0), BuildingBlock: TEMPAE_clean_linker_10, # of connection points: 2
#     Edge 18, Type (0, 0), BuildingBlock: TEMPAE_clean_linker_10, # of connection points: 2
#     Edge 19, Type (0, 0), BuildingBlock: TEMPAE_clean_linker_10, # of connection points: 2
#     Edge 20, Type (0, 0), BuildingBlock: TEMPAE_clean_linker_10, # of connection points: 2
#     Edge 21, Type (0, 0), BuildingBlock: TEMPAE_clean_linker_10, # of connection points: 2
#     Edge 22, Type (0, 0), BuildingBlock: TEMPAE_clean_linker_10, # of connection points: 2
#     Edge 23, Type (0, 0), BuildingBlock: TEMPAE_clean_linker_10, # of connection points: 2
# Relax obj value: 0.072
# Max RMSD: 0.204
# Mean RMSD: 0.204
data_MOF--net-msp--node1-KOZSID_clean_sbu_0--edge1-TEMPAE_clean_linker_10
_symmetry_space_group_name_H-M    P1
_symmetry_Int_Tables_number       1
_symmetry_cell_setting            triclinic
loop_
_symmetry_equiv_pos_as_xyz
'x, y, z'
_cell_length_a     25.667286
_cell_length_b     12.500261
_cell_length_c     57.52777
_cell_angle_alpha  90.005611
_cell_angle_beta   89.905378
_cell_angle_gamma 89.970117
loop_
_atom_site_label
_atom_site_type_symbol
_atom_site_fract_x
_atom_site_fract_y
_atom_site_fract_z
_atom_type_partial_charge
C0 C 0.98381 0.51101 0.39597 0.0
C1 C 0.95704 0.60724 0.39423 0.0
C2 C 0.97178 0.6525 0.37342 0.0
C3 C 0.00452 0.5789 0.36329 0.0
N4 N 0.01061 0.49109 0.37634 0.0
Co5 Co 0.04112 0.35497 0.36572 0.0
N6 N 0.08567 0.42994 0.34296 0.0
C7 C 0.07786 0.53072 0.33528 0.0
C8 C 0.11466 0.5628 0.31954 0.0
C9 C 0.14666 0.47608 0.31666 0.0
C10 C 0.1275 0.39457 0.33074 0.0
N11 N 0.07003 0.21773 0.35426 0.0
C12 C 0.11226 0.19824 0.34065 0.0
C13 C 0.11827 0.08879 0.33724 0.0
C14 C 0.07713 0.03948 0.34815 0.0
C15 C 0.04856 0.12067 0.35797 0.0
N16 N 0.99693 0.28298 0.38903 0.0
C17 C 0.98193 0.18034 0.38881 0.0
C18 C 0.95183 0.15508 0.40787 0.0
C19 C 0.94846 0.248 0.42077 0.0
C20 C 0.9778 0.32407 0.4091 0.0
N21 N 0.98517 0.34341 0.34257 0.0
C22 C 0.90355 0.31542 0.31078 0.0
C23 C 0.89357 0.35018 0.33346 0.0
C24 C 0.93469 0.36263 0.34909 0.0
C25 C 0.95531 0.29645 0.30419 0.0
C26 C 0.99555 0.312 0.32024 0.0
N27 N 0.09561 0.36406 0.38958 0.0
C28 C 0.13443 0.27539 0.42239 0.0
C29 C 0.14638 0.37355 0.43272 0.0
C30 C 0.13714 0.46716 0.41979 0.0
C31 C 0.11232 0.46047 0.39804 0.0
C32 C 0.10899 0.27237 0.4011 0.0
H33 H 0.10339 0.53361 0.38887 0.0
H34 H 0.09666 0.1952 0.39507 0.0
H35 H 0.92537 0.38648 0.36661 0.0
H36 H 0.03496 0.29704 0.31464 0.0
C37 C 0.0373 0.59471 0.34413 0.0
C38 C 0.98394 0.43744 0.41582 0.0
C39 C 0.14406 0.28133 0.32894 0.0
C40 C 0.0065 0.10813 0.37356 0.0
H41 H 0.93088 0.6422 0.40691 0.0
H42 H 0.96137 0.73089 0.36693 0.0
H43 H 0.11773 0.63985 0.31108 0.0
H44 H 0.17906 0.4728 0.30474 0.0
H45 H 0.1487 0.04848 0.32759 0.0
H46 H 0.06989 0.95436 0.34934 0.0
H47 H 0.93646 0.07736 0.41252 0.0
H48 H 0.92738 0.25833 0.43692 0.0
H49 H 0.85406 0.36493 0.33929 0.0
H50 H 0.96463 0.27025 0.28672 0.0
H51 H 0.14264 0.20058 0.43116 0.0
H52 H 0.1464 0.54508 0.42688 0.0
C53 C 0.51388 0.46039 0.6042 0.0
C54 C 0.53297 0.55979 0.59776 0.0
C55 C 0.52477 0.62659 0.61643 0.0
C56 C 0.50148 0.56396 0.63315 0.0
N57 N 0.4951 0.46245 0.62608 0.0
Co58 Co 0.46375 0.34458 0.64405 0.0
N59 N 0.42638 0.44548 0.66461 0.0
C60 C 0.43589 0.5512 0.66653 0.0
C61 C 0.39911 0.60297 0.67971 0.0
C62 C 0.36524 0.52459 0.6868 0.0
C63 C 0.384 0.42844 0.67815 0.0
N64 N 0.43319 0.22571 0.66224 0.0
C65 C 0.39349 0.22616 0.67781 0.0
C66 C 0.38813 0.12586 0.688 0.0
C67 C 0.42568 0.06128 0.67836 0.0
C68 C 0.45222 0.12534 0.66301 0.0
N69 N 0.50085 0.24512 0.62302 0.0
C70 C 0.51219 0.14228 0.62748 0.0
C71 C 0.53329 0.09157 0.60848 0.0
C72 C 0.53489 0.16737 0.59114 0.0
C73 C 0.51482 0.26115 0.60054 0.0
N74 N 0.52374 0.34645 0.66512 0.0
C75 C 0.60987 0.34024 0.69528 0.0
C76 C 0.61662 0.35143 0.67116 0.0
C77 C 0.57326 0.35355 0.65644 0.0
C78 C 0.5587 0.33409 0.70385 0.0
C79 C 0.51645 0.33846 0.6886 0.0
N80 N 0.40436 0.34179 0.62292 0.0
C81 C 0.35202 0.24273 0.59579 0.0
C82 C 0.33179 0.338 0.58676 0.0
C83 C 0.34622 0.43487 0.59722 0.0
C84 C 0.38254 0.43502 0.61527 0.0
C85 C 0.38785 0.24633 0.61397 0.0
H86 H 0.3948 0.51089 0.62226 0.0
H87 H 0.40398 0.17189 0.62008 0.0
H88 H 0.57983 0.36029 0.63796 0.0
H89 H 0.4778 0.33362 0.69586 0.0
C90 C 0.47325 0.60143 0.65237 0.0
C91 C 0.5111 0.36658 0.58896 0.0
C92 C 0.3642 0.32221 0.68509 0.0
C93 C 0.49002 0.09139 0.64689 0.0
H94 H 0.54902 0.5822 0.58104 0.0
H95 H 0.53125 0.71211 0.61699 0.0
H96 H 0.39568 0.68813 0.68276 0.0
H97 H 0.33048 0.53659 0.69705 0.0
H98 H 0.36087 0.10213 0.70138 0.0
H99 H 0.43216 0.97725 0.68187 0.0
H100 H 0.54279 0.00753 0.60683 0.0
H101 H 0.54854 0.1525 0.57373 0.0
H102 H 0.65509 0.35862 0.66359 0.0
H103 H 0.55098 0.32353 0.72221 0.0
H104 H 0.341 0.16595 0.58859 0.0
H105 H 0.33165 0.51054 0.59075 0.0
C106 C 0.03075 0.76516 0.59292 0.0
C107 C 0.04442 0.85579 0.58046 0.0
C108 C 0.02815 0.94142 0.59335 0.0
C109 C 0.00552 0.89815 0.61284 0.0
N110 N 0.00762 0.79022 0.61341 0.0
Co111 Co 0.97628 0.69349 0.63745 0.0
N112 N 0.93869 0.81568 0.65266 0.0
C113 C 0.93992 0.91946 0.64597 0.0
C114 C 0.90739 0.98428 0.65854 0.0
C115 C 0.88396 0.91815 0.67425 0.0
C116 C 0.90429 0.81635 0.67062 0.0
N117 N 0.94615 0.59677 0.66177 0.0
C118 C 0.91411 0.61904 0.67996 0.0
C119 C 0.90632 0.52932 0.69376 0.0
C120 C 0.93331 0.44733 0.68373 0.0
C121 C 0.95671 0.49143 0.66459 0.0
N122 N 0.01194 0.57106 0.62142 0.0
C123 C 0.01245 0.46738 0.6281 0.0
C124 C 0.03495 0.40018 0.6121 0.0
C125 C 0.04802 0.4644 0.59376 0.0
C126 C 0.03283 0.56717 0.59977 0.0
N127 N 0.03813 0.71742 0.65805 0.0
C128 C 0.11975 0.74808 0.6905 0.0
C129 C 0.10652 0.64607 0.68265 0.0
C130 C 0.06642 0.63282 0.66652 0.0
C131 C 0.09278 0.83509 0.68115 0.0
C132 C 0.0525 0.81813 0.66512 0.0
N133 N 0.91525 0.66899 0.61712 0.0
C134 C 0.85759 0.54549 0.5976 0.0
C135 C 0.8394 0.62673 0.58303 0.0
C136 C 0.85754 0.73083 0.58684 0.0
C137 C 0.89506 0.75014 0.60392 0.0
C138 C 0.89495 0.56834 0.61452 0.0
H139 H 0.90869 0.83054 0.60561 0.0
H140 H 0.90816 0.50272 0.62481 0.0
H141 H 0.05903 0.55281 0.66145 0.0
H142 H 0.03323 0.88796 0.65903 0.0
C143 C 0.97252 0.95372 0.62793 0.0
C144 C 0.03512 0.65713 0.5837 0.0
C145 C 0.89064 0.72358 0.68499 0.0
C146 C 0.98679 0.43496 0.64838 0.0
H147 H 0.06173 0.85936 0.56332 0.0
H148 H 0.0289 0.02472 0.58822 0.0
H149 H 0.90129 0.06946 0.6565 0.0
H150 H 0.85523 0.94273 0.68695 0.0
H151 H 0.88376 0.52366 0.70954 0.0
H152 H 0.93547 0.36526 0.68967 0.0
H153 H 0.03875 0.31405 0.61309 0.0
H154 H 0.06475 0.43834 0.57743 0.0
H155 H 0.12713 0.57611 0.68892 0.0
H156 H 0.10167 0.91595 0.68664 0.0
H157 H 0.84392 0.46402 0.59563 0.0
H158 H 0.84479 0.79649 0.57595 0.0
C159 C 0.46313 0.66314 0.41144 0.0
C160 C 0.44298 0.74563 0.42483 0.0
C161 C 0.45696 0.83877 0.41407 0.0
C162 C 0.48459 0.80764 0.39479 0.0
N163 N 0.48738 0.70036 0.39212 0.0
Co164 Co 0.52862 0.61946 0.36832 0.0
N165 N 0.55949 0.75462 0.3554 0.0
C166 C 0.54706 0.85579 0.36176 0.0
C167 C 0.57148 0.9328 0.34879 0.0
C168 C 0.60117 0.87784 0.33313 0.0
C169 C 0.59371 0.76965 0.33762 0.0
N170 N 0.57148 0.53772 0.34521 0.0
C171 C 0.60735 0.57218 0.32955 0.0
C172 C 0.63091 0.48669 0.31824 0.0
C173 C 0.60808 0.39574 0.3264 0.0
C174 C 0.57256 0.43023 0.34249 0.0
N175 N 0.49675 0.48489 0.38095 0.0
C176 C 0.50202 0.38508 0.3722 0.0
C177 C 0.47946 0.30775 0.38571 0.0
C178 C 0.46006 0.36074 0.40455 0.0
C179 C 0.47154 0.46846 0.4014 0.0
N180 N 0.47037 0.63151 0.34533 0.0
C181 C 0.38778 0.65034 0.31285 0.0
C182 C 0.41717 0.55638 0.3145 0.0
C183 C 0.45788 0.54887 0.33064 0.0
C184 C 0.40077 0.7346 0.32768 0.0
C185 C 0.44147 0.7235 0.34359 0.0
N186 N 0.58565 0.60737 0.39138 0.0
C187 C 0.63529 0.49688 0.41782 0.0
C188 C 0.65018 0.58666 0.43064 0.0
C189 C 0.6351 0.68745 0.42257 0.0
C190 C 0.60305 0.69598 0.40304 0.0
C191 C 0.604 0.50912 0.39811 0.0
H192 H 0.59106 0.77469 0.39821 0.0
H193 H 0.59346 0.43777 0.38904 0.0
H194 H 0.4786 0.47527 0.33078 0.0
H195 H 0.4487 0.79132 0.35412 0.0
C196 C 0.51293 0.87598 0.38026 0.0
C197 C 0.46334 0.55162 0.41899 0.0
C198 C 0.61927 0.68438 0.32428 0.0
C199 C 0.53872 0.36397 0.35489 0.0
H200 H 0.42279 0.73883 0.4413 0.0
H201 H 0.45043 0.9194 0.4203 0.0
H202 H 0.56787 0.01877 0.35042 0.0
H203 H 0.62515 0.91388 0.31979 0.0
H204 H 0.6612 0.48944 0.30529 0.0
H205 H 0.61624 0.31427 0.32115 0.0
H206 H 0.48127 0.22192 0.38329 0.0
H207 H 0.44256 0.32181 0.41933 0.0
H208 H 0.40866 0.48817 0.30355 0.0
H209 H 0.38017 0.81015 0.32685 0.0
H210 H 0.64718 0.41741 0.42314 0.0
H211 H 0.646 0.75932 0.43189 0.0
C212 C 0.49203 0.97314 0.9018 0.0
C213 C 0.46976 0.07181 0.90659 0.0
C214 C 0.47726 0.13388 0.88712 0.0
C215 C 0.50326 0.06935 0.87158 0.0
N216 N 0.51195 0.97094 0.88008 0.0
Co217 Co 0.54731 0.85203 0.86392 0.0
N218 N 0.5834 0.95133 0.84248 0.0
C219 C 0.57056 0.05464 0.8389 0.0
C220 C 0.60343 0.1049 0.8236 0.0
C221 C 0.63833 0.02785 0.81686 0.0
C222 C 0.62443 0.93385 0.8281 0.0
N223 N 0.58115 0.73142 0.84737 0.0
C224 C 0.62049 0.73124 0.83163 0.0
C225 C 0.62848 0.62866 0.82292 0.0
C226 C 0.5927 0.56336 0.8335 0.0
C227 C 0.56465 0.62911 0.84795 0.0
N228 N 0.51176 0.75478 0.88602 0.0
C229 C 0.50372 0.64955 0.88301 0.0
C230 C 0.48408 0.60164 0.90261 0.0
C231 C 0.47989 0.68175 0.91889 0.0
C232 C 0.49672 0.77542 0.90824 0.0
N233 N 0.48872 0.84225 0.84223 0.0
C234 C 0.40585 0.82275 0.8107 0.0
C235 C 0.3966 0.82946 0.83474 0.0
C236 C 0.43849 0.83993 0.85017 0.0
C237 C 0.45756 0.82771 0.80294 0.0
C238 C 0.4981 0.83626 0.81886 0.0
N239 N 0.60553 0.86078 0.8856 0.0
C240 C 0.6574 0.77118 0.9143 0.0
C241 C 0.66967 0.86921 0.92474 0.0
C242 C 0.6537 0.96353 0.9136 0.0
C243 C 0.62202 0.95749 0.89387 0.0
C244 C 0.6252 0.76869 0.89487 0.0
H245 H 0.60799 0.03094 0.88629 0.0
H246 H 0.61351 0.69164 0.88835 0.0
H247 H 0.4303 0.84527 0.86855 0.0
H248 H 0.53717 0.83762 0.8121 0.0
C249 C 0.5313 0.1043 0.85209 0.0
C250 C 0.49631 0.88447 0.91841 0.0
C251 C 0.64645 0.82763 0.8225 0.0
C252 C 0.52763 0.59594 0.86442 0.0
H253 H 0.45196 0.09717 0.92275 0.0
H254 H 0.46837 0.2181 0.88527 0.0
H255 H 0.60282 0.18798 0.8183 0.0
H256 H 0.66962 0.03916 0.80465 0.0
H257 H 0.65622 0.6037 0.80982 0.0
H258 H 0.58825 0.47792 0.83116 0.0
H259 H 0.47748 0.51709 0.90541 0.0
H260 H 0.46707 0.66933 0.93649 0.0
H261 H 0.35746 0.82506 0.8417 0.0
H262 H 0.467 0.82569 0.78459 0.0
H263 H 0.67056 0.69622 0.92168 0.0
H264 H 0.66253 0.04133 0.92086 0.0
C265 C 0.01332 0.96228 0.10682 0.0
C266 C 0.03674 0.06012 0.10238 0.0
C267 C 0.0317 0.11961 0.12237 0.0
C268 C 0.00584 0.05446 0.13782 0.0
N269 N 0.99482 0.95814 0.12877 0.0
Co270 Co 0.95854 0.83944 0.14462 0.0
N271 N 0.92564 0.93821 0.1672 0.0
C272 C 0.942 0.03858 0.17178 0.0
C273 C 0.91416 0.08682 0.18921 0.0
C274 C 0.8788 0.01156 0.19626 0.0
C275 C 0.88667 0.92106 0.18272 0.0
N276 N 0.92322 0.71914 0.1607 0.0
C277 C 0.88329 0.71983 0.17616 0.0
C278 C 0.86961 0.61582 0.18222 0.0
C279 C 0.90385 0.54893 0.17109 0.0
C280 C 0.93596 0.61498 0.15854 0.0
N281 N 0.99145 0.74278 0.12154 0.0
C282 C 0.99734 0.63641 0.12365 0.0
C283 C 0.01522 0.59008 0.10353 0.0
C284 C 0.02044 0.67232 0.08785 0.0
C285 C 0.00607 0.76553 0.09937 0.0
N286 N 0.01815 0.82223 0.16552 0.0
C287 C 0.10207 0.78678 0.19555 0.0
C288 C 0.11069 0.80743 0.17192 0.0
C289 C 0.06809 0.82411 0.15713 0.0
C290 C 0.05094 0.78711 0.20391 0.0
C291 C 0.00976 0.80556 0.18872 0.0
N292 N 0.89928 0.85505 0.12361 0.0
C293 C 0.84532 0.77088 0.09493 0.0
C294 C 0.83514 0.86995 0.08458 0.0
C295 C 0.85256 0.96269 0.09593 0.0
C296 C 0.88428 0.9534 0.11565 0.0
C297 C 0.87762 0.76511 0.11423 0.0
H298 H 0.89972 0.02533 0.1234 0.0
H299 H 0.88797 0.68679 0.12038 0.0
H300 H 0.07544 0.83702 0.13886 0.0
H301 H 0.97103 0.80456 0.19584 0.0
C302 C 0.98082 0.08745 0.15824 0.0
C303 C 0.00761 0.87559 0.08984 0.0
C304 C 0.86201 0.81658 0.18748 0.0
C305 C 0.97196 0.58166 0.14165 0.0
H306 H 0.05408 0.08647 0.0862 0.0
H307 H 0.0424 0.20263 0.12475 0.0
H308 H 0.91899 0.1669 0.19604 0.0
H309 H 0.85189 0.02091 0.21042 0.0
H310 H 0.83873 0.59052 0.19381 0.0
H311 H 0.90407 0.46235 0.17151 0.0
H312 H 0.01953 0.5055 0.09996 0.0
H313 H 0.03182 0.66177 0.06998 0.0
H314 H 0.14982 0.80751 0.16484 0.0
H315 H 0.04274 0.77268 0.22213 0.0
H316 H 0.83082 0.69723 0.08743 0.0
H317 H 0.84502 0.04128 0.08878 0.0
C318 C 0.52436 0.19181 0.09758 0.0
C319 C 0.53732 0.28064 0.08434 0.0
C320 C 0.52125 0.36825 0.09665 0.0
C321 C 0.49952 0.32774 0.1166 0.0
N322 N 0.50268 0.2201 0.1182 0.0
Co323 Co 0.46975 0.12674 0.14243 0.0
N324 N 0.43478 0.25169 0.15778 0.0
C325 C 0.44301 0.35606 0.15274 0.0
C326 C 0.41836 0.42508 0.16762 0.0
C327 C 0.39325 0.36119 0.18327 0.0
C328 C 0.40339 0.25599 0.17686 0.0
N329 N 0.43409 0.0318 0.16553 0.0
C330 C 0.39928 0.05513 0.18258 0.0
C331 C 0.38197 0.96269 0.19347 0.0
C332 C 0.40775 0.87888 0.18363 0.0
C333 C 0.43877 0.92423 0.167 0.0
N334 N 0.50656 0.00278 0.12765 0.0
C335 C 0.50893 0.9018 0.13592 0.0
C336 C 0.53338 0.83209 0.12115 0.0
C337 C 0.54595 0.89126 0.10204 0.0
C338 C 0.52892 0.99507 0.10631 0.0
N339 N 0.53017 0.14683 0.16406 0.0
C340 C 0.61127 0.18274 0.19651 0.0
C341 C 0.58239 0.08808 0.19685 0.0
C342 C 0.54265 0.07166 0.18058 0.0
C343 C 0.59964 0.25788 0.17937 0.0
C344 C 0.55961 0.2385 0.16351 0.0
N345 N 0.41059 0.10734 0.12086 0.0
C346 C 0.36441 0.99294 0.09405 0.0
C347 C 0.34442 0.0819 0.08231 0.0
C348 C 0.3549 0.18347 0.09141 0.0
C349 C 0.38751 0.19426 0.11068 0.0
C350 C 0.39673 0.00732 0.11334 0.0
H351 H 0.3957 0.27386 0.11642 0.0
H352 H 0.41203 0.93674 0.12135 0.0
H353 H 0.52266 0.99741 0.18193 0.0
H354 H 0.55339 0.30014 0.15118 0.0
C355 C 0.47251 0.38675 0.13338 0.0
C356 C 0.52944 0.08197 0.08915 0.0
C357 C 0.38352 0.1631 0.18978 0.0
C358 C 0.47563 0.86943 0.15372 0.0
H359 H 0.55452 0.2814 0.06715 0.0
H360 H 0.52283 0.45104 0.09119 0.0
H361 H 0.41883 0.51166 0.16724 0.0
H362 H 0.37067 0.38947 0.19792 0.0
H363 H 0.35466 0.95635 0.20754 0.0
H364 H 0.40508 0.79528 0.1884 0.0
H365 H 0.53671 0.74614 0.12296 0.0
H366 H 0.56256 0.85805 0.08642 0.0
H367 H 0.59062 0.02624 0.20952 0.0
H368 H 0.62071 0.33284 0.1784 0.0
H369 H 0.35605 0.91254 0.08811 0.0
H370 H 0.34013 0.25493 0.08305 0.0
C371 C 0.97601 0.20396 0.91306 0.0
C372 C 0.95953 0.28762 0.92709 0.0
C373 C 0.97452 0.37981 0.91622 0.0
C374 C 0.999 0.34708 0.89622 0.0
N375 N 0.99881 0.23976 0.89327 0.0
Co376 Co 0.0346 0.15595 0.86822 0.0
N377 N 0.06799 0.28832 0.85515 0.0
C378 C 0.06144 0.3899 0.86282 0.0
C379 C 0.08902 0.46421 0.85035 0.0
C380 C 0.11425 0.40709 0.83353 0.0
C381 C 0.10025 0.3007 0.8366 0.0
N382 N 0.07098 0.07132 0.84343 0.0
C383 C 0.10069 0.10479 0.82532 0.0
C384 C 0.11264 0.02105 0.8104 0.0
C385 C 0.0914 0.93095 0.81975 0.0
C386 C 0.06672 0.96488 0.83954 0.0
N387 N 1.00097 0.02402 0.88135 0.0
C388 C 0.00331 0.92381 0.87253 0.0
C389 C 0.98174 0.84785 0.8867 0.0
C390 C 0.96623 0.90192 0.90608 0.0
C391 C 0.97879 0.0089 0.90254 0.0
N392 N 0.97426 0.1781 0.84679 0.0
C393 C 0.89625 0.21591 0.81306 0.0
C394 C 0.91732 0.11388 0.81621 0.0
C395 C 0.95562 0.09685 0.83309 0.0
C396 C 0.91344 0.29758 0.8277 0.0
C397 C 0.95183 0.27705 0.84429 0.0
N398 N 0.09408 0.1343 0.88965 0.0
C399 C 0.14416 0.01414 0.91383 0.0
C400 C 0.16055 0.09937 0.92775 0.0
C401 C 0.14636 0.20289 0.92117 0.0
C402 C 0.11353 0.21846 0.90216 0.0
C403 C 0.11189 0.03353 0.89468 0.0
H404 H 0.10247 0.29893 0.89857 0.0
H405 H 0.10003 0.96567 0.8847 0.0
H406 H 0.9699 0.01746 0.83438 0.0
H407 H 0.9629 0.34328 0.85465 0.0
C408 C 0.0291 0.41289 0.88182 0.0
C409 C 0.97444 0.09218 0.92037 0.0
C410 C 0.1177 0.21476 0.82118 0.0
C411 C 0.03494 0.90074 0.85344 0.0
H412 H 0.94133 0.28199 0.94404 0.0
H413 H 0.97122 0.4605 0.92289 0.0
H414 H 0.09039 0.54985 0.85309 0.0
H415 H 0.13965 0.44035 0.82036 0.0
H416 H 0.13299 0.02546 0.79399 0.0
H417 H 0.09187 0.85115 0.81244 0.0
H418 H 0.98143 0.76204 0.88414 0.0
H419 H 0.9505 0.86413 0.9214 0.0
H420 H 0.9053 0.04755 0.80535 0.0
H421 H 0.8973 0.37747 0.82643 0.0
H422 H 0.15549 0.93278 0.9179 0.0
H423 H 0.15839 0.27157 0.93131 0.0
C424 C 0.00702 0.40233 0.45827 0.0
C425 C 0.99721 0.47513 0.44014 0.0
C426 C 0.01699 0.43763 0.4811 0.0
C427 C 0.01729 0.54857 0.48616 0.0
C428 C 0.00978 0.62256 0.46794 0.0
C429 C 0.00218 0.58507 0.44526 0.0
C430 C 0.02569 0.35593 0.5 0.0
C431 C 0.00821 0.74221 0.47183 0.0
C432 C 0.98268 0.60638 0.54911 0.0
C433 C 0.03068 0.63766 0.55829 0.0
C434 C 0.97737 0.58303 0.5254 0.0
C435 C 0.02161 0.58588 0.51072 0.0
C436 C 0.06966 0.62342 0.51965 0.0
C437 C 0.07365 0.64902 0.54345 0.0
C438 C 0.92402 0.55551 0.51642 0.0
C439 C 0.11662 0.63564 0.50405 0.0
H440 H 0.00758 0.31739 0.45485 0.0
H441 H 1.00012 0.64479 0.43187 0.0
H442 H 0.99126 0.35402 0.51167 0.0
H443 H 0.03163 0.27422 0.4929 0.0
H444 H 0.05993 0.37839 0.5107 0.0
H445 H 0.9738 0.77692 0.46289 0.0
H446 H 0.00655 0.76573 0.49039 0.0
H447 H 0.04324 0.77899 0.4638 0.0
H448 H 0.94911 0.60036 0.56052 0.0
H449 H 0.1104 0.6762 0.55055 0.0
H450 H 0.91463 0.47253 0.52173 0.0
H451 H 0.9205 0.56155 0.49726 0.0
H452 H 0.8948 0.61017 0.52424 0.0
H453 H 0.1282 0.55617 0.49717 0.0
H454 H 0.15014 0.67272 0.51314 0.0
H455 H 0.10709 0.68654 0.48889 0.0
C456 C 0.50231 0.57511 0.45859 0.0
C457 C 0.46488 0.52632 0.44438 0.0
C458 C 0.50567 0.55086 0.48238 0.0
C459 C 0.47248 0.47157 0.492 0.0
C460 C 0.43391 0.42405 0.4778 0.0
C461 C 0.42922 0.45532 0.45444 0.0
C462 C 0.54359 0.61356 0.49708 0.0
C463 C 0.39862 0.33763 0.487 0.0
C464 C 0.52683 0.33449 0.54585 0.0
C465 C 0.49833 0.3832 0.56379 0.0
C466 C 0.51614 0.35722 0.52237 0.0
C467 C 0.47896 0.43672 0.51666 0.0
C468 C 0.45022 0.48659 0.53463 0.0
C469 C 0.45958 0.45783 0.55784 0.0
C470 C 0.54481 0.2966 0.50361 0.0
C471 C 0.41104 0.57345 0.52948 0.0
H472 H 0.52901 0.63285 0.45108 0.0
H473 H 0.39787 0.42313 0.44399 0.0
H474 H 0.5237 0.68671 0.50349 0.0
H475 H 0.5572 0.56843 0.51246 0.0
H476 H 0.5779 0.6396 0.48675 0.0
H477 H 0.36592 0.32106 0.47492 0.0
H478 H 0.42136 0.26288 0.48925 0.0
H479 H 0.38269 0.35959 0.50428 0.0
H480 H 0.55908 0.28253 0.54992 0.0
H481 H 0.43772 0.49721 0.57149 0.0
H482 H 0.5629 0.3528 0.49107 0.0
H483 H 0.51666 0.2471 0.49372 0.0
H484 H 0.57534 0.24304 0.5108 0.0
H485 H 0.3874 0.59479 0.545 0.0
H486 H 0.38441 0.54854 0.51534 0.0
H487 H 0.43194 0.64602 0.52343 0.0
C488 C 0.48709 0.09942 0.05 0.0
C489 C 0.52813 0.05977 0.0636 0.0
C490 C 0.48394 0.07622 0.02611 0.0
C491 C 0.52116 0.00697 0.01579 0.0
C492 C 0.5628 0.96797 0.02946 0.0
C493 C 0.5672 0.99925 0.05282 0.0
C494 C 0.44095 0.12614 0.01195 0.0
C495 C 0.60096 0.88807 0.01986 0.0
C496 C 0.47502 0.86025 0.9614 0.0
C497 C 0.50397 0.90996 0.94373 0.0
C498 C 0.48245 0.8871 0.98493 0.0
C499 C 0.5158 0.97298 0.99094 0.0
C500 C 0.54367 0.02642 0.97317 0.0
C501 C 0.53844 0.99251 0.94999 0.0
C502 C 0.45545 0.82194 1.00344 0.0
C503 C 0.57863 0.12026 0.97856 0.0
H504 H 0.45733 0.14852 0.05811 0.0
H505 H 0.6008 0.97415 0.0628 0.0
H506 H 0.45815 0.18374 0.99942 0.0
H507 H 0.42045 0.06444 1.00166 0.0
H508 H 0.41204 0.16903 0.02293 0.0
H509 H 0.63377 0.87304 0.03197 0.0
H510 H 0.58036 0.81141 0.01677 0.0
H511 H 0.61659 0.91524 1.00291 0.0
H512 H 0.44513 0.80318 0.95704 0.0
H513 H 0.56044 0.03314 0.93656 0.0
H514 H 0.43602 0.87465 0.0163 0.0
H515 H 0.48496 0.77452 0.01304 0.0
H516 H 0.42638 0.76576 0.99601 0.0
H517 H 0.55666 0.18159 0.98852 0.0
H518 H 0.5947 0.15788 0.96259 0.0
H519 H 0.61162 0.0939 0.98957 0.0
C520 C 0.02994 0.85562 0.04693 0.0
C521 C 1.00054 0.90367 0.06466 0.0
C522 C 0.02289 0.88441 0.02349 0.0
C523 C 0.98919 0.97013 0.01772 0.0
C524 C 0.96089 0.0219 0.0356 0.0
C525 C 0.96611 0.98665 0.05867 0.0
C526 C 0.05056 0.82129 0.00483 0.0
C527 C 0.92539 0.11518 0.03043 0.0
C528 C 0.01668 0.10546 0.95954 0.0
C529 C 0.97632 0.06528 0.94565 0.0
C530 C 0.02029 0.07844 0.98321 0.0
C531 C 0.98391 0.00594 0.99301 0.0
C532 C 0.94301 0.96609 0.97902 0.0
C533 C 0.93844 0.99978 0.95583 0.0
C534 C 0.06302 0.12734 0.99769 0.0
C535 C 0.90566 0.88353 0.98814 0.0
H536 H 0.05976 0.79809 0.05122 0.0
H537 H 0.94405 0.02629 0.07222 0.0
H538 H 0.06919 0.87532 0.99201 0.0
H539 H 0.08038 0.76642 0.01214 0.0
H540 H 0.02158 0.77255 0.99523 0.0
H541 H 0.90783 0.14967 0.04643 0.0
H542 H 0.94746 0.17881 0.02124 0.0
H543 H 0.89349 0.08935 0.01875 0.0
H544 H 0.04558 0.15785 0.95182 0.0
H545 H 0.90572 0.97286 0.9455 0.0
H546 H 0.08502 0.06408 0.00688 0.0
H547 H 0.0455 0.17986 0.01116 0.0
H548 H 0.09072 0.17529 0.98709 0.0
H549 H 0.92691 0.8072 0.99074 0.0
H550 H 0.8729 0.86892 0.97596 0.0
H551 H 0.88987 0.90809 0.00525 0.0
C552 C 0.64595 0.17803 0.23736 0.0
C553 C 0.65322 0.20342 0.2138 0.0
C554 C 0.68529 0.19735 0.2538 0.0
C555 C 0.73302 0.24345 0.24654 0.0
C556 C 0.74045 0.26998 0.22284 0.0
C557 C 0.70057 0.24947 0.20678 0.0
C558 C 0.6759 0.16794 0.27891 0.0
C559 C 0.79101 0.31807 0.21437 0.0
C560 C 0.82186 0.37617 0.29093 0.0
C561 C 0.85992 0.29717 0.29432 0.0
C562 C 0.78009 0.35945 0.27559 0.0
C563 C 0.77598 0.26118 0.26355 0.0
C564 C 0.81377 0.18057 0.26725 0.0
C565 C 0.85554 0.19965 0.28245 0.0
C566 C 0.74121 0.44802 0.2718 0.0
C567 C 0.8092 0.07325 0.25556 0.0
H568 H 0.6093 0.14351 0.24297 0.0
H569 H 0.7068 0.26801 0.18858 0.0
H570 H 0.70314 0.10335 0.28412 0.0
H571 H 0.68369 0.2378 0.29029 0.0
H572 H 0.63542 0.13998 0.28204 0.0
H573 H 0.79 0.33766 0.19554 0.0
H574 H 0.79981 0.3922 0.22423 0.0
H575 H 0.82344 0.26109 0.2175 0.0
H576 H 0.82522 0.45179 0.30004 0.0
H577 H 0.88426 0.1375 0.2854 0.0
H578 H 0.74269 0.50831 0.28593 0.0
H579 H 0.70095 0.41639 0.27058 0.0
H580 H 0.75016 0.4884 0.2551 0.0
H581 H 0.77726 0.02788 0.2639 0.0
H582 H 0.84574 0.02587 0.25669 0.0
H583 H 0.79802 0.08287 0.23712 0.0
C584 C 0.65269 0.37289 0.7341 0.0
C585 C 0.65554 0.33193 0.71137 0.0
C586 C 0.69361 0.35834 0.74998 0.0
C587 C 0.73925 0.30357 0.74291 0.0
C588 C 0.74357 0.26635 0.71974 0.0
C589 C 0.70154 0.27981 0.70436 0.0
C590 C 0.68744 0.39951 0.77452 0.0
C591 C 0.79231 0.21064 0.71129 0.0
C592 C 0.85884 0.33207 0.78156 0.0
C593 C 0.85683 0.23734 0.79466 0.0
C594 C 0.8216 0.35381 0.76434 0.0
C595 C 0.78104 0.27973 0.76016 0.0
C596 C 0.77944 0.18327 0.77299 0.0
C597 C 0.81712 0.16331 0.79011 0.0
C598 C 0.82512 0.45705 0.75098 0.0
C599 C 0.7378 0.10105 0.76857 0.0
H600 H 0.61824 0.4161 0.73961 0.0
H601 H 0.70438 0.24669 0.68701 0.0
H602 H 0.71948 0.45573 0.77874 0.0
H603 H 0.64972 0.44138 0.77723 0.0
H604 H 0.6899 0.33185 0.78697 0.0
H605 H 0.79105 0.19336 0.69236 0.0
H606 H 0.827 0.26086 0.71494 0.0
H607 H 0.7976 0.13407 0.72075 0.0
H608 H 0.88984 0.38917 0.78466 0.0
H609 H 0.8149 0.09037 0.80025 0.0
H610 H 0.79526 0.51281 0.75777 0.0
H611 H 0.8169 0.44382 0.73229 0.0
H612 H 0.86392 0.4955 0.75278 0.0
H613 H 0.69862 0.13758 0.77048 0.0
H614 H 0.74114 0.03189 0.78052 0.0
H615 H 0.74115 0.07141 0.75048 0.0
C616 C 0.16232 0.6941 0.72793 0.0
C617 C 0.16071 0.76246 0.70858 0.0
C618 C 0.2009 0.70472 0.74504 0.0
C619 C 0.23949 0.78496 0.74265 0.0
C620 C 0.23813 0.85446 0.7232 0.0
C621 C 0.19848 0.84306 0.70651 0.0
C622 C 0.20074 0.62687 0.76512 0.0
C623 C 0.27831 0.94148 0.72011 0.0
C624 C 0.31433 0.86175 0.79725 0.0
C625 C 0.36241 0.81074 0.79366 0.0
C626 C 0.27404 0.85382 0.78082 0.0
C627 C 0.28196 0.79444 0.76019 0.0
C628 C 0.32992 0.7413 0.75664 0.0
C629 C 0.36936 0.74952 0.77339 0.0
C630 C 0.2228 0.90838 0.78553 0.0
C631 C 0.33974 0.67611 0.73504 0.0
H632 H 0.13299 0.63235 0.72982 0.0
H633 H 0.19768 0.89587 0.69157 0.0
H634 H 0.22033 0.5522 0.75951 0.0
H635 H 0.22132 0.65717 0.7807 0.0
H636 H 0.16024 0.60647 0.77027 0.0
H637 H 0.27589 0.97996 0.70275 0.0
H638 H 0.27245 0.00312 0.73371 0.0
H639 H 0.31829 0.9097 0.72233 0.0
H640 H 0.30835 0.90961 0.81272 0.0
H641 H 0.40563 0.70704 0.7706 0.0
H642 H 0.19074 0.84889 0.7854 0.0
H643 H 0.21461 0.96726 0.77156 0.0
H644 H 0.22245 0.94985 0.8026 0.0
H645 H 0.37532 0.62592 0.73652 0.0
H646 H 0.34455 0.73024 0.71994 0.0
H647 H 0.30586 0.62367 0.73141 0.0
C648 C 0.29901 0.71843 0.30157 0.0
C649 C 0.34448 0.66179 0.29569 0.0
C650 C 0.25904 0.73482 0.2853 0.0
C651 C 0.26441 0.69336 0.26251 0.0
C652 C 0.30934 0.63319 0.25666 0.0
C653 C 0.34892 0.61873 0.27323 0.0
C654 C 0.21187 0.79937 0.29242 0.0
C655 C 0.3159 0.58527 0.23275 0.0
C656 C 0.14242 0.66874 0.22536 0.0
C657 C 0.14545 0.7607 0.21154 0.0
C658 C 0.18111 0.64488 0.24172 0.0
C659 C 0.22376 0.71529 0.24459 0.0
C660 C 0.22703 0.80832 0.2306 0.0
C661 C 0.18808 0.82957 0.21404 0.0
C662 C 0.17368 0.54858 0.25701 0.0
C663 C 0.27086 0.88689 0.23372 0.0
H664 H 0.29458 0.7504 0.31897 0.0
H665 H 0.38388 0.57545 0.2684 0.0
H666 H 0.21531 0.88134 0.28519 0.0
H667 H 0.17553 0.76373 0.28548 0.0
H668 H 0.20832 0.80596 0.31162 0.0
H669 H 0.35198 0.53659 0.23123 0.0
H670 H 0.28198 0.53373 0.22863 0.0
H671 H 0.3172 0.65 0.21956 0.0
H672 H 0.10921 0.61575 0.22355 0.0
H673 H 0.19004 0.90168 0.20361 0.0
H674 H 0.15399 0.57581 0.27304 0.0
H675 H 0.21125 0.51071 0.26184 0.0
H676 H 0.14804 0.48814 0.24872 0.0
H677 H 0.26933 0.95252 0.22073 0.0
H678 H 0.30882 0.84486 0.23242 0.0
H679 H 0.26874 0.92248 0.25135 0.0
C680 C 0.36249 0.13493 0.23226 0.0
C681 C 0.34881 0.17808 0.21061 0.0
C682 C 0.32877 0.14192 0.25151 0.0
C683 C 0.28176 0.20148 0.24975 0.0
C684 C 0.26859 0.24792 0.22794 0.0
C685 C 0.30146 0.23294 0.20861 0.0
C686 C 0.34388 0.08258 0.27336 0.0
C687 C 0.21941 0.31175 0.2243 0.0
C688 C 0.16482 0.18766 0.29113 0.0
C689 C 0.18137 0.25107 0.30984 0.0
C690 C 0.19759 0.16662 0.27205 0.0
C691 C 0.24726 0.21667 0.27065 0.0
C692 C 0.26344 0.28364 0.28929 0.0
C693 C 0.23143 0.29558 0.30902 0.0
C694 C 0.17693 0.0934 0.25334 0.0
C695 C 0.31351 0.34689 0.28834 0.0
H696 H 0.39914 0.0925 0.234 0.0
H697 H 0.29019 0.26524 0.19186 0.0
H698 H 0.37392 0.12913 0.2828 0.0
H699 H 0.31038 0.06786 0.28514 0.0
H700 H 0.36163 0.00411 0.26889 0.0
H701 H 0.19058 0.26128 0.21503 0.0
H702 H 0.20177 0.33936 0.24077 0.0
H703 H 0.22724 0.38244 0.21313 0.0
H704 H 0.12562 0.15536 0.29117 0.0
H705 H 0.24428 0.34571 0.32329 0.0
H706 H 0.20614 0.07215 0.23997 0.0
H707 H 0.1434 0.13262 0.24464 0.0
H708 H 0.162 0.01848 0.2613 0.0
H709 H 0.34528 0.29927 0.29627 0.0
H710 H 0.31 0.42212 0.29851 0.0
H711 H 0.32479 0.36781 0.27028 0.0
C712 C 0.28028 0.25149 0.70179 0.0
C713 C 0.32539 0.31314 0.70446 0.0
C714 C 0.24515 0.23697 0.72035 0.0
C715 C 0.25445 0.2887 0.74198 0.0
C716 C 0.29946 0.35385 0.74445 0.0
C717 C 0.33488 0.36251 0.72593 0.0
C718 C 0.19842 0.1657 0.71651 0.0
C719 C 0.3118 0.41448 0.76652 0.0
C720 C 0.13596 0.29892 0.78237 0.0
C721 C 0.1532 0.23793 0.80124 0.0
C722 C 0.16833 0.31743 0.76304 0.0
C723 C 0.21886 0.27072 0.76227 0.0
C724 C 0.23596 0.20763 0.78136 0.0
C725 C 0.20327 0.19386 0.80072 0.0
C726 C 0.14707 0.38617 0.74367 0.0
C727 C 0.28889 0.15464 0.78162 0.0
H728 H 0.27304 0.21271 0.68524 0.0
H729 H 0.37033 0.40834 0.72833 0.0
H730 H 0.18732 0.12172 0.73254 0.0
H731 H 0.16496 0.21527 0.71093 0.0
H732 H 0.20553 0.10698 0.70239 0.0
H733 H 0.34807 0.38206 0.77428 0.0
H734 H 0.31997 0.49924 0.76243 0.0
H735 H 0.28023 0.41253 0.77966 0.0
H736 H 0.09691 0.33209 0.78271 0.0
H737 H 0.21648 0.1467 0.8154 0.0
H738 H 0.12399 0.4535 0.7509 0.0
H739 H 0.11956 0.33812 0.73312 0.0
H740 H 0.17783 0.41892 0.73213 0.0
H741 H 0.3188 0.21352 0.78688 0.0
H742 H 0.29953 0.12313 0.76423 0.0
H743 H 0.29066 0.08865 0.79444 0.0
C744 C 0.73136 0.76388 0.8057 0.0
C745 C 0.68344 0.81517 0.80258 0.0
C746 C 0.76503 0.74479 0.78684 0.0
C747 C 0.75111 0.78092 0.7642 0.0
C748 C 0.7026 0.83402 0.76113 0.0
C749 C 0.66897 0.84765 0.7802 0.0
C750 C 0.81516 0.68588 0.79183 0.0
C751 C 0.68537 0.87813 0.73793 0.0
C752 C 0.86805 0.80749 0.72342 0.0
C753 C 0.85509 0.73693 0.70544 0.0
C754 C 0.83426 0.82455 0.74229 0.0
C755 C 0.78718 0.765 0.74396 0.0
C756 C 0.77473 0.69097 0.72601 0.0
C757 C 0.8083 0.67974 0.70681 0.0
C758 C 0.85039 0.90619 0.76024 0.0
C759 C 0.72628 0.62244 0.72661 0.0
H760 H 0.74217 0.7368 0.82295 0.0
H761 H 0.63123 0.88478 0.7776 0.0
H762 H 0.83827 0.66636 0.77614 0.0
H763 H 0.83959 0.73523 0.80359 0.0
H764 H 0.8064 0.61022 0.80118 0.0
H765 H 0.66259 0.95296 0.7403 0.0
H766 H 0.71851 0.89535 0.72611 0.0
H767 H 0.65909 0.81965 0.72944 0.0
H768 H 0.90453 0.8511 0.72252 0.0
H769 H 0.79815 0.62507 0.6929 0.0
H770 H 0.88221 0.87221 0.771 0.0
H771 H 0.81827 0.93065 0.77191 0.0
H772 H 0.86608 0.97887 0.75159 0.0
H773 H 0.73449 0.54192 0.71931 0.0
H774 H 0.6961 0.65905 0.71537 0.0
H775 H 0.7102 0.61256 0.74439 0.0
C776 C 0.84477 0.74326 0.22744 0.0
C777 C 0.82804 0.80494 0.20854 0.0
C778 C 0.81289 0.72696 0.24697 0.0
C779 C 0.76368 0.77902 0.24839 0.0
C780 C 0.74862 0.84879 0.23003 0.0
C781 C 0.78024 0.85835 0.21011 0.0
C782 C 0.83354 0.6535 0.26564 0.0
C783 C 0.69941 0.91471 0.23116 0.0
C784 C 0.64569 0.67572 0.28217 0.0
C785 C 0.65585 0.71127 0.30479 0.0
C786 C 0.68106 0.69439 0.26394 0.0
C787 C 0.72673 0.75605 0.26803 0.0
C788 C 0.73637 0.79451 0.29094 0.0
C789 C 0.70132 0.76989 0.30899 0.0
C790 C 0.66908 0.64488 0.24058 0.0
C791 C 0.78351 0.86057 0.29721 0.0
H792 H 0.8828 0.70546 0.22679 0.0
H793 H 0.76784 0.9089 0.19583 0.0
H794 H 0.87034 0.68709 0.27267 0.0
H795 H 0.80642 0.64066 0.2803 0.0
H796 H 0.8434 0.57466 0.25788 0.0
H797 H 0.6675 0.87149 0.22223 0.0
H798 H 0.68728 0.93183 0.24931 0.0
H799 H 0.70484 0.99184 0.22191 0.0
H800 H 0.61044 0.63048 0.27883 0.0
H801 H 0.70953 0.79695 0.32652 0.0
H802 H 0.70412 0.63515 0.22947 0.0
H803 H 0.64039 0.69567 0.23133 0.0
H804 H 0.65081 0.56496 0.24285 0.0
H805 H 0.8044 0.8222 0.31191 0.0
H806 H 0.77052 0.94046 0.30337 0.0
H807 H 0.81144 0.87172 0.28276 0.0
C808 C 0.30965 0.2716 0.54681 0.0
C809 C 0.29775 0.33707 0.56591 0.0
C810 C 0.27988 0.2759 0.52636 0.0
C811 C 0.2375 0.34834 0.52487 0.0
C812 C 0.22335 0.40885 0.54472 0.0
C813 C 0.25403 0.40372 0.56483 0.0
C814 C 0.29333 0.20085 0.50666 0.0
C815 C 0.17673 0.48144 0.54496 0.0
C816 C 0.20608 0.44642 0.46376 0.0
C817 C 0.16649 0.37568 0.45707 0.0
C818 C 0.22794 0.44139 0.48616 0.0
C819 C 0.20999 0.36359 0.50225 0.0
C820 C 0.16834 0.29568 0.49599 0.0
C821 C 0.14702 0.30285 0.47358 0.0
C822 C 0.27124 0.51746 0.49245 0.0
C823 C 0.14668 0.21459 0.51288 0.0
H824 H 0.34311 0.21876 0.5476 0.0
H825 H 0.24369 0.45226 0.57977 0.0
H826 H 0.2664 0.13155 0.50711 0.0
H827 H 0.28875 0.24 0.48949 0.0
H828 H 0.33365 0.16933 0.50819 0.0
H829 H 0.18975 0.56257 0.53988 0.0
H830 H 0.14596 0.45386 0.53289 0.0
H831 H 0.15969 0.48734 0.56269 0.0
H832 H 0.22126 0.50328 0.45125 0.0
H833 H 0.11518 0.25023 0.46891 0.0
H834 H 0.30657 0.47142 0.49712 0.0
H835 H 0.25983 0.56514 0.50792 0.0
H836 H 0.28107 0.57304 0.47803 0.0
H837 H 0.1774 0.15655 0.51782 0.0
H838 H 0.11322 0.16955 0.50556 0.0
H839 H 0.13385 0.25536 0.52905 0.0
C840 C 0.81651 0.51409 0.54848 0.0
C841 C 0.80542 0.60226 0.56278 0.0
C842 C 0.79115 0.50046 0.52706 0.0
C843 C 0.75224 0.57424 0.52027 0.0
C844 C 0.73714 0.6568 0.53574 0.0
C845 C 0.76464 0.67128 0.55659 0.0
C846 C 0.80776 0.41038 0.51119 0.0
C847 C 0.69254 0.73103 0.53004 0.0
C848 C 0.72274 0.64036 0.45725 0.0
C849 C 0.6793 0.57574 0.45281 0.0
C850 C 0.74828 0.63656 0.47879 0.0
C851 C 0.72899 0.56883 0.49659 0.0
C852 C 0.68645 0.50012 0.49188 0.0
C853 C 0.66222 0.50418 0.47 0.0
C854 C 0.79586 0.70544 0.48254 0.0
C855 C 0.66506 0.42374 0.50984 0.0
H856 H 0.84765 0.45981 0.55324 0.0
H857 H 0.75464 0.7374 0.56795 0.0
H858 H 0.77358 0.36214 0.50586 0.0
H859 H 0.82531 0.44417 0.49514 0.0
H860 H 0.83653 0.35628 0.51954 0.0
H861 H 0.68158 0.78236 0.54504 0.0
H862 H 0.70349 0.7835 0.51528 0.0
H863 H 0.65792 0.68399 0.52463 0.0
H864 H 0.7367 0.69411 0.44383 0.0
H865 H 0.62859 0.45407 0.46667 0.0
H866 H 0.82838 0.65601 0.48933 0.0
H867 H 0.7873 0.76791 0.4957 0.0
H868 H 0.80891 0.74537 0.46629 0.0
H869 H 0.691 0.41161 0.52497 0.0
H870 H 0.65767 0.34468 0.50172 0.0
H871 H 0.62748 0.4548 0.51645 0.0
C872 C 0.82435 0.79674 0.04448 0.0
C873 C 0.81082 0.87396 0.06113 0.0
C874 C 0.80206 0.79636 0.02232 0.0
C875 C 0.76539 0.87667 0.01627 0.0
C876 C 0.75204 0.95623 0.03296 0.0
C877 C 0.7751 0.95394 0.05511 0.0
C878 C 0.81823 0.70789 0.00587 0.0
C879 C 0.71393 0.04536 0.02796 0.0
C880 C 0.73135 0.95101 0.95376 0.0
C881 C 0.69507 0.87169 0.94798 0.0
C882 C 0.75453 0.95412 0.97585 0.0
C883 C 0.74085 0.87599 0.99277 0.0
C884 C 0.7041 0.79554 0.98691 0.0
C885 C 0.68163 0.7951 0.96476 0.0
C886 C 0.79298 0.04285 0.9806 0.0
C887 C 0.68797 0.70791 1.00357 0.0
H888 H 0.85311 0.73619 0.04866 0.0
H889 H 0.7644 0.01411 0.06783 0.0
H890 H 0.79707 0.63368 0.01059 0.0
H891 H 0.81047 0.72668 0.98737 0.0
H892 H 0.86031 0.68945 0.00787 0.0
H893 H 0.68701 0.05628 0.04291 0.0
H894 H 0.73583 0.12132 0.0259 0.0
H895 H 0.69049 0.03216 0.0121 0.0
H896 H 0.74225 0.01041 0.94091 0.0
H897 H 0.65265 0.73483 0.96076 0.0
H898 H 0.81698 0.02909 0.99627 0.0
H899 H 0.77129 0.11896 0.98291 0.0
H900 H 0.81936 0.0538 0.96546 0.0
H901 H 0.70934 0.6336 0.99908 0.0
H902 H 0.64596 0.68901 1.00156 0.0
H903 H 0.69559 0.72785 0.02203 0.0
C904 C 0.33148 0.9965 0.04316 0.0
C905 C 0.31492 0.06973 0.06018 0.0
C906 C 0.30616 0.9895 0.02157 0.0
C907 C 0.26408 0.05903 0.01666 0.0
C908 C 0.24578 0.12971 0.03409 0.0
C909 C 0.27145 0.13439 0.0556 0.0
C910 C 0.32516 0.90868 1.00398 0.0
C911 C 0.19912 0.20074 0.02996 0.0
C912 C 0.23289 0.14665 0.95506 0.0
C913 C 0.19025 0.08135 0.94957 0.0
C914 C 0.25839 0.13738 0.97652 0.0
C915 C 0.24051 0.06177 0.99302 0.0
C916 C 0.19914 0.992 0.98716 0.0
C917 C 0.17421 0.00312 0.96555 0.0
C918 C 0.30432 0.20896 0.98162 0.0
C919 C 0.18037 0.9069 1.0038 0.0
H920 H 0.3652 0.94652 0.04643 0.0
H921 H 0.25757 0.18919 0.06883 0.0
H922 H 0.29316 0.87715 0.99305 0.0
H923 H 0.35365 0.94716 0.99216 0.0
H924 H 0.34414 0.83984 0.01271 0.0
H925 H 0.18859 0.24855 0.04555 0.0
H926 H 0.20713 0.25632 0.01535 0.0
H927 H 0.16514 0.15104 0.02496 0.0
H928 H 0.24609 0.20573 0.94258 0.0
H929 H 0.14108 0.95274 0.96149 0.0
H930 H 0.33869 0.15934 0.98612 0.0
H931 H 0.29561 0.26055 0.99683 0.0
H932 H 0.31459 0.26094 0.96663 0.0
H933 H 0.21245 0.8734 0.01441 0.0
H934 H 0.16169 0.83991 0.99429 0.0
H935 H 0.15165 0.94228 0.01598 0.0
loop_
_geom_bond_atom_site_label_1
_geom_bond_atom_site_label_2
_geom_bond_distance
_geom_bond_site_symmetry_2
_ccdc_geom_bond_type
C0 C1 1.443 . S
C0 N4 1.376 . S
C0 C38 1.389 1_455 S
C1 C0 1.443 . S
C1 C2 1.340 . S
C1 H41 0.951 . S
C2 C1 1.340 . S
C2 C3 1.439 . S
C2 H42 0.950 . S
C3 C2 1.439 . S
C3 N4 1.374 . S
C3 C37 1.395 . S
N4 C0 1.376 . S
N4 C3 1.374 . S
N4 Co5 2.008 . S
Co5 N4 2.008 . S
Co5 N6 1.995 . S
Co5 N11 2.008 . S
Co5 N16 1.995 . S
Co5 N21 2.282 1_455 S
Co5 N27 2.282 . S
N6 Co5 1.995 . S
N6 C7 1.376 . S
N6 C10 1.383 . S
C7 N6 1.376 . S
C7 C8 1.446 . S
C7 C37 1.391 . S
C8 C7 1.446 . S
C8 C9 1.339 . S
C8 H43 0.949 . S
C9 C8 1.339 . S
C9 C10 1.439 . S
C9 H44 0.950 . S
C10 N6 1.383 . S
C10 C9 1.439 . S
C10 C39 1.392 . S
N11 Co5 2.008 . S
N11 C12 1.376 . S
N11 C15 1.374 1_545 S
C12 N11 1.376 . S
C12 C13 1.443 1_545 S
C12 C39 1.389 . S
C13 C12 1.443 1_565 S
C13 C14 1.340 . S
C13 H45 0.951 . S
C14 C13 1.340 . S
C14 C15 1.439 . S
C14 H46 0.950 . S
C15 N11 1.374 1_565 S
C15 C14 1.439 . S
C15 C40 1.395 . S
N16 Co5 1.995 . S
N16 C17 1.376 1_455 S
N16 C20 1.383 1_455 S
C17 N16 1.376 1_655 S
C17 C18 1.446 1_545 S
C17 C40 1.391 1_645 S
C18 C17 1.446 1_565 S
C18 C19 1.339 1_565 S
C18 H47 0.949 . S
C19 C18 1.339 1_545 S
C19 C20 1.439 . S
C19 H48 0.950 . S
C20 N16 1.383 1_655 S
C20 C19 1.439 . S
C20 C38 1.392 . S
N21 Co5 2.282 1_655 S
N21 C24 1.332 . S
N21 C26 1.332 . S
C22 C23 1.386 . S
C22 C25 1.388 . S
C23 C22 1.386 . S
C23 C24 1.382 . S
C23 H49 0.950 . S
C24 N21 1.332 . S
C24 C23 1.382 . S
C24 H35 0.952 . S
C25 C22 1.388 . S
C25 C26 1.382 . S
C25 H50 0.950 . S
C26 N21 1.332 . S
C26 C25 1.382 . S
C26 H36 0.948 1_655 S
N27 Co5 2.282 . S
N27 C31 1.332 . S
N27 C32 1.332 . S
C28 C29 1.388 . S
C28 C32 1.382 . S
C28 H51 0.950 . S
C29 C28 1.388 . S
C29 C30 1.386 . S
C30 C29 1.386 . S
C30 C31 1.382 . S
C30 H52 0.950 . S
C31 N27 1.332 . S
C31 C30 1.382 . S
C31 H33 0.952 . S
C32 N27 1.332 . S
C32 C28 1.382 . S
C32 H34 0.948 . S
H33 C31 0.952 . S
H34 C32 0.948 . S
H35 C24 0.952 . S
H36 C26 0.948 1_455 S
C37 C3 1.395 . S
C37 C7 1.391 . S
C38 C0 1.389 1_655 S
C38 C20 1.392 . S
C39 C10 1.392 . S
C39 C12 1.389 . S
C40 C15 1.395 . S
C40 C17 1.391 1_465 S
H41 C1 0.951 . S
H42 C2 0.950 . S
H43 C8 0.949 . S
H44 C9 0.950 . S
H45 C13 0.951 . S
H46 C14 0.950 . S
H47 C18 0.949 . S
H48 C19 0.950 . S
H49 C23 0.950 . S
H50 C25 0.950 . S
H51 C28 0.950 . S
H52 C30 0.950 . S
C53 C54 1.443 . S
C53 N57 1.376 . S
C53 C91 1.389 . S
C54 C53 1.443 . S
C54 C55 1.340 . S
C54 H94 0.951 . S
C55 C54 1.340 . S
C55 C56 1.439 . S
C55 H95 0.950 . S
C56 C55 1.439 . S
C56 N57 1.374 . S
C56 C90 1.395 . S
N57 C53 1.376 . S
N57 C56 1.374 . S
N57 Co58 2.008 . S
Co58 N57 2.008 . S
Co58 N59 1.995 . S
Co58 N64 2.008 . S
Co58 N69 1.995 . S
Co58 N74 2.282 . S
Co58 N80 2.282 . S
N59 Co58 1.995 . S
N59 C60 1.376 . S
N59 C63 1.383 . S
C60 N59 1.376 . S
C60 C61 1.446 . S
C60 C90 1.391 . S
C61 C60 1.446 . S
C61 C62 1.339 . S
C61 H96 0.949 . S
C62 C61 1.339 . S
C62 C63 1.439 . S
C62 H97 0.950 . S
C63 N59 1.383 . S
C63 C62 1.439 . S
C63 C92 1.392 . S
N64 Co58 2.008 . S
N64 C65 1.376 . S
N64 C68 1.374 1_545 S
C65 N64 1.376 . S
C65 C66 1.443 1_545 S
C65 C92 1.389 . S
C66 C65 1.443 1_565 S
C66 C67 1.340 . S
C66 H98 0.951 . S
C67 C66 1.340 . S
C67 C68 1.439 . S
C67 H99 0.950 . S
C68 N64 1.374 1_565 S
C68 C67 1.439 . S
C68 C93 1.395 . S
N69 Co58 1.995 . S
N69 C70 1.376 . S
N69 C73 1.383 . S
C70 N69 1.376 . S
C70 C71 1.446 1_545 S
C70 C93 1.391 1_545 S
C71 C70 1.446 1_565 S
C71 C72 1.339 1_565 S
C71 H100 0.949 . S
C72 C71 1.339 1_545 S
C72 C73 1.439 . S
C72 H101 0.950 . S
C73 N69 1.383 . S
C73 C72 1.439 . S
C73 C91 1.392 . S
N74 Co58 2.282 . S
N74 C77 1.332 . S
N74 C79 1.332 . S
C75 C76 1.386 . S
C75 C78 1.388 . S
C76 C75 1.386 . S
C76 C77 1.382 . S
C76 H102 0.950 . S
C77 N74 1.332 . S
C77 C76 1.382 . S
C77 H88 0.952 . S
C78 C75 1.388 . S
C78 C79 1.382 . S
C78 H103 0.950 . S
C79 N74 1.332 . S
C79 C78 1.382 . S
C79 H89 0.948 . S
N80 Co58 2.282 . S
N80 C84 1.332 . S
N80 C85 1.332 . S
C81 C82 1.388 . S
C81 C85 1.382 . S
C81 H104 0.950 . S
C82 C81 1.388 . S
C82 C83 1.386 . S
C83 C82 1.386 . S
C83 C84 1.382 . S
C83 H105 0.950 . S
C84 N80 1.332 . S
C84 C83 1.382 . S
C84 H86 0.952 . S
C85 N80 1.332 . S
C85 C81 1.382 . S
C85 H87 0.948 . S
H86 C84 0.952 . S
H87 C85 0.948 . S
H88 C77 0.952 . S
H89 C79 0.948 . S
C90 C56 1.395 . S
C90 C60 1.391 . S
C91 C53 1.389 . S
C91 C73 1.392 . S
C92 C63 1.392 . S
C92 C65 1.389 . S
C93 C68 1.395 . S
C93 C70 1.391 1_565 S
H94 C54 0.951 . S
H95 C55 0.950 . S
H96 C61 0.949 . S
H97 C62 0.950 . S
H98 C66 0.951 . S
H99 C67 0.950 . S
H100 C71 0.949 . S
H101 C72 0.950 . S
H102 C76 0.950 . S
H103 C78 0.950 . S
H104 C81 0.950 . S
H105 C83 0.950 . S
C106 C107 1.443 . S
C106 N110 1.376 1_455 S
C106 C144 1.389 . S
C107 C106 1.443 . S
C107 C108 1.340 1_565 S
C107 H147 0.951 . S
C108 C107 1.340 1_545 S
C108 C109 1.439 1_455 S
C108 H148 0.950 . S
C109 C108 1.439 1_655 S
C109 N110 1.374 1_545 S
C109 C143 1.395 . S
N110 C106 1.376 1_655 S
N110 C109 1.374 1_565 S
N110 Co111 2.008 . S
Co111 N110 2.008 . S
Co111 N112 1.995 . S
Co111 N117 2.008 . S
Co111 N122 1.995 . S
Co111 N127 2.282 1_655 S
Co111 N133 2.282 . S
N112 Co111 1.995 . S
N112 C113 1.376 1_565 S
N112 C116 1.383 . S
C113 N112 1.376 1_545 S
C113 C114 1.446 . S
C113 C143 1.391 . S
C114 C113 1.446 . S
C114 C115 1.339 . S
C114 H149 0.949 . S
C115 C114 1.339 . S
C115 C116 1.439 1_545 S
C115 H150 0.950 . S
C116 N112 1.383 . S
C116 C115 1.439 1_565 S
C116 C145 1.392 . S
N117 Co111 2.008 . S
N117 C118 1.376 . S
N117 C121 1.374 . S
C118 N117 1.376 . S
C118 C119 1.443 . S
C118 C145 1.389 . S
C119 C118 1.443 . S
C119 C120 1.340 . S
C119 H151 0.951 . S
C120 C119 1.340 . S
C120 C121 1.439 . S
C120 H152 0.950 . S
C121 N117 1.374 . S
C121 C120 1.439 . S
C121 C146 1.395 . S
N122 Co111 1.995 . S
N122 C123 1.376 . S
N122 C126 1.383 . S
C123 N122 1.376 . S
C123 C124 1.446 . S
C123 C146 1.391 . S
C124 C123 1.446 . S
C124 C125 1.344 . S
C124 H153 0.949 . S
C125 C124 1.344 . S
C125 C126 1.440 . S
C125 H154 0.944 1_655 S
C126 N122 1.383 . S
C126 C125 1.440 . S
C126 C144 1.392 1_655 S
N127 Co111 2.282 1_455 S
N127 C130 1.332 . S
N127 C132 1.332 . S
C128 C129 1.386 . S
C128 C131 1.388 . S
C129 C128 1.386 . S
C129 C130 1.382 . S
C129 H155 0.950 . S
C130 N127 1.332 . S
C130 C129 1.382 . S
C130 H141 0.952 . S
C131 C128 1.388 . S
C131 C132 1.382 . S
C131 H156 0.950 . S
C132 N127 1.332 . S
C132 C131 1.382 . S
C132 H142 0.948 . S
N133 Co111 2.282 . S
N133 C137 1.332 . S
N133 C138 1.332 . S
C134 C135 1.388 . S
C134 C138 1.382 . S
C134 H157 0.950 . S
C135 C134 1.388 . S
C135 C136 1.386 . S
C136 C135 1.386 . S
C136 C137 1.382 . S
C136 H158 0.950 . S
C137 N133 1.332 . S
C137 C136 1.382 . S
C137 H139 0.952 . S
C138 N133 1.332 . S
C138 C134 1.382 . S
C138 H140 0.948 . S
H139 C137 0.952 . S
H140 C138 0.948 . S
H141 C130 0.952 . S
H142 C132 0.948 . S
C143 C109 1.395 . S
C143 C113 1.391 . S
C144 C106 1.389 . S
C144 C126 1.392 1_455 S
C145 C116 1.392 . S
C145 C118 1.389 . S
C146 C121 1.395 . S
C146 C123 1.391 . S
H147 C107 0.951 . S
H148 C108 0.950 . S
H149 C114 0.949 . S
H150 C115 0.950 . S
H151 C119 0.951 . S
H152 C120 0.950 . S
H153 C124 0.949 . S
H154 C125 0.944 1_455 S
H155 C129 0.950 . S
H156 C131 0.950 . S
H157 C134 0.950 . S
H158 C136 0.950 . S
C159 C160 1.443 . S
C159 N163 1.376 . S
C159 C197 1.389 . S
C160 C159 1.443 . S
C160 C161 1.340 1_565 S
C160 H200 0.951 . S
C161 C160 1.340 1_545 S
C161 C162 1.439 . S
C161 H201 0.950 . S
C162 C161 1.439 . S
C162 N163 1.374 1_545 S
C162 C196 1.395 . S
N163 C159 1.376 . S
N163 C162 1.374 1_565 S
N163 Co164 2.008 . S
Co164 N163 2.008 . S
Co164 N165 1.995 . S
Co164 N170 2.008 . S
Co164 N175 1.995 . S
Co164 N180 2.282 . S
Co164 N186 2.282 . S
N165 Co164 1.995 . S
N165 C166 1.376 1_565 S
N165 C169 1.383 . S
C166 N165 1.376 1_545 S
C166 C167 1.446 . S
C166 C196 1.391 . S
C167 C166 1.446 . S
C167 C168 1.339 . S
C167 H202 0.949 . S
C168 C167 1.339 . S
C168 C169 1.439 1_545 S
C168 H203 0.950 . S
C169 N165 1.383 . S
C169 C168 1.439 1_565 S
C169 C198 1.392 . S
N170 Co164 2.008 . S
N170 C171 1.376 . S
N170 C174 1.374 . S
C171 N170 1.376 . S
C171 C172 1.443 . S
C171 C198 1.389 . S
C172 C171 1.443 . S
C172 C173 1.340 . S
C172 H204 0.951 . S
C173 C172 1.340 . S
C173 C174 1.439 . S
C173 H205 0.950 . S
C174 N170 1.374 . S
C174 C173 1.439 . S
C174 C199 1.395 . S
N175 Co164 1.995 . S
N175 C176 1.376 . S
N175 C179 1.383 . S
C176 N175 1.376 . S
C176 C177 1.446 . S
C176 C199 1.391 . S
C177 C176 1.446 . S
C177 C178 1.339 . S
C177 H206 0.949 . S
C178 C177 1.339 . S
C178 C179 1.439 . S
C178 H207 0.950 . S
C179 N175 1.383 . S
C179 C178 1.439 . S
C179 C197 1.392 . S
N180 Co164 2.282 . S
N180 C183 1.332 . S
N180 C185 1.332 . S
C181 C182 1.386 . S
C181 C184 1.388 . S
C182 C181 1.386 . S
C182 C183 1.382 . S
C182 H208 0.950 . S
C183 N180 1.332 . S
C183 C182 1.382 . S
C183 H194 0.952 . S
C184 C181 1.388 . S
C184 C185 1.382 . S
C184 H209 0.950 . S
C185 N180 1.332 . S
C185 C184 1.382 . S
C185 H195 0.948 . S
N186 Co164 2.282 . S
N186 C190 1.332 . S
N186 C191 1.332 . S
C187 C188 1.388 . S
C187 C191 1.382 . S
C187 H210 0.950 . S
C188 C187 1.388 . S
C188 C189 1.386 . S
C189 C188 1.386 . S
C189 C190 1.382 . S
C189 H211 0.950 . S
C190 N186 1.332 . S
C190 C189 1.382 . S
C190 H192 0.952 . S
C191 N186 1.332 . S
C191 C187 1.382 . S
C191 H193 0.948 . S
H192 C190 0.952 . S
H193 C191 0.948 . S
H194 C183 0.952 . S
H195 C185 0.948 . S
C196 C162 1.395 . S
C196 C166 1.391 . S
C197 C159 1.389 . S
C197 C179 1.392 . S
C198 C169 1.392 . S
C198 C171 1.389 . S
C199 C174 1.395 . S
C199 C176 1.391 . S
H200 C160 0.951 . S
H201 C161 0.950 . S
H202 C167 0.949 . S
H203 C168 0.950 . S
H204 C172 0.951 . S
H205 C173 0.950 . S
H206 C177 0.949 . S
H207 C178 0.950 . S
H208 C182 0.950 . S
H209 C184 0.950 . S
H210 C187 0.950 . S
H211 C189 0.950 . S
C212 C213 1.443 . S
C212 N216 1.376 . S
C212 C250 1.389 . S
C213 C212 1.443 . S
C213 C214 1.338 1_565 S
C213 H253 0.951 . S
C214 C213 1.338 1_545 S
C214 C215 1.437 1_545 S
C214 H254 0.953 . S
C215 C214 1.437 1_565 S
C215 N216 1.374 . S
C215 C249 1.395 . S
N216 C212 1.376 . S
N216 C215 1.374 . S
N216 Co217 2.008 . S
Co217 N216 2.008 . S
Co217 N218 1.995 . S
Co217 N223 2.008 . S
Co217 N228 1.995 . S
Co217 N233 2.282 . S
Co217 N239 2.282 . S
N218 Co217 1.995 . S
N218 C219 1.376 . S
N218 C222 1.383 . S
C219 N218 1.376 . S
C219 C220 1.446 . S
C219 C249 1.391 . S
C220 C219 1.446 . S
C220 C221 1.339 . S
C220 H255 0.949 . S
C221 C220 1.339 . S
C221 C222 1.439 . S
C221 H256 0.950 . S
C222 N218 1.383 . S
C222 C221 1.439 . S
C222 C251 1.392 . S
N223 Co217 2.008 . S
N223 C224 1.376 . S
N223 C227 1.374 . S
C224 N223 1.376 . S
C224 C225 1.443 . S
C224 C251 1.389 . S
C225 C224 1.443 . S
C225 C226 1.340 . S
C225 H257 0.951 . S
C226 C225 1.340 . S
C226 C227 1.439 . S
C226 H258 0.950 . S
C227 N223 1.374 . S
C227 C226 1.439 . S
C227 C252 1.395 . S
N228 Co217 1.995 . S
N228 C229 1.376 . S
N228 C232 1.383 . S
C229 N228 1.376 . S
C229 C230 1.446 . S
C229 C252 1.391 . S
C230 C229 1.446 . S
C230 C231 1.339 . S
C230 H259 0.949 . S
C231 C230 1.339 . S
C231 C232 1.439 . S
C231 H260 0.950 . S
C232 N228 1.383 . S
C232 C231 1.439 . S
C232 C250 1.392 . S
N233 Co217 2.282 . S
N233 C236 1.332 . S
N233 C238 1.332 . S
C234 C235 1.386 . S
C234 C237 1.388 . S
C235 C234 1.386 . S
C235 C236 1.382 . S
C235 H261 0.950 . S
C236 N233 1.332 . S
C236 C235 1.382 . S
C236 H247 0.952 . S
C237 C234 1.388 . S
C237 C238 1.382 . S
C237 H262 0.950 . S
C238 N233 1.332 . S
C238 C237 1.382 . S
C238 H248 0.948 . S
N239 Co217 2.282 . S
N239 C243 1.332 . S
N239 C244 1.332 . S
C240 C241 1.388 . S
C240 C244 1.382 . S
C240 H263 0.950 . S
C241 C240 1.388 . S
C241 C242 1.386 . S
C242 C241 1.386 . S
C242 C243 1.382 . S
C242 H264 0.950 . S
C243 N239 1.332 . S
C243 C242 1.382 . S
C243 H245 0.952 . S
C244 N239 1.332 . S
C244 C240 1.382 . S
C244 H246 0.948 . S
H245 C243 0.952 . S
H246 C244 0.948 . S
H247 C236 0.952 . S
H248 C238 0.948 . S
C249 C215 1.395 . S
C249 C219 1.391 . S
C250 C212 1.389 . S
C250 C232 1.392 . S
C251 C222 1.392 . S
C251 C224 1.389 . S
C252 C227 1.395 . S
C252 C229 1.391 . S
H253 C213 0.951 . S
H254 C214 0.953 . S
H255 C220 0.949 . S
H256 C221 0.950 . S
H257 C225 0.951 . S
H258 C226 0.950 . S
H259 C230 0.949 . S
H260 C231 0.950 . S
H261 C235 0.950 . S
H262 C237 0.950 . S
H263 C240 0.950 . S
H264 C242 0.950 . S
C265 C266 1.443 . S
C265 N269 1.376 . S
C265 C303 1.389 1_655 S
C266 C265 1.443 . S
C266 C267 1.339 1_565 S
C266 H306 0.951 . S
C267 C266 1.339 1_545 S
C267 C268 1.437 1_545 S
C267 H307 0.952 . S
C268 C267 1.437 1_565 S
C268 N269 1.374 . S
C268 C302 1.395 . S
N269 C265 1.376 . S
N269 C268 1.374 . S
N269 Co270 2.008 . S
Co270 N269 2.008 . S
Co270 N271 1.995 . S
Co270 N276 2.008 . S
Co270 N281 1.995 . S
Co270 N286 2.282 1_655 S
Co270 N292 2.282 . S
N271 Co270 1.995 . S
N271 C272 1.376 . S
N271 C275 1.383 . S
C272 N271 1.376 . S
C272 C273 1.446 . S
C272 C302 1.391 . S
C273 C272 1.446 . S
C273 C274 1.339 . S
C273 H308 0.949 . S
C274 C273 1.339 . S
C274 C275 1.439 . S
C274 H309 0.950 . S
C275 N271 1.383 . S
C275 C274 1.439 . S
C275 C304 1.392 . S
N276 Co270 2.008 . S
N276 C277 1.376 . S
N276 C280 1.374 . S
C277 N276 1.376 . S
C277 C278 1.443 . S
C277 C304 1.389 . S
C278 C277 1.443 . S
C278 C279 1.340 . S
C278 H310 0.951 . S
C279 C278 1.340 . S
C279 C280 1.439 . S
C279 H311 0.950 . S
C280 N276 1.374 . S
C280 C279 1.439 . S
C280 C305 1.395 . S
N281 Co270 1.995 . S
N281 C282 1.376 1_655 S
N281 C285 1.383 1_655 S
C282 N281 1.376 1_455 S
C282 C283 1.446 . S
C282 C305 1.391 1_455 S
C283 C282 1.446 . S
C283 C284 1.339 . S
C283 H312 0.949 . S
C284 C283 1.339 . S
C284 C285 1.439 . S
C284 H313 0.950 . S
C285 N281 1.383 1_455 S
C285 C284 1.439 . S
C285 C303 1.392 . S
N286 Co270 2.282 1_455 S
N286 C289 1.332 . S
N286 C291 1.332 . S
C287 C288 1.386 . S
C287 C290 1.388 . S
C288 C287 1.386 . S
C288 C289 1.382 . S
C288 H314 0.950 . S
C289 N286 1.332 . S
C289 C288 1.382 . S
C289 H300 0.952 . S
C290 C287 1.388 . S
C290 C291 1.382 . S
C290 H315 0.950 . S
C291 N286 1.332 . S
C291 C290 1.382 . S
C291 H301 0.948 1_455 S
N292 Co270 2.282 . S
N292 C296 1.332 . S
N292 C297 1.332 . S
C293 C294 1.388 . S
C293 C297 1.382 . S
C293 H316 0.950 . S
C294 C293 1.388 . S
C294 C295 1.386 . S
C295 C294 1.386 . S
C295 C296 1.382 . S
C295 H317 0.950 . S
C296 N292 1.332 . S
C296 C295 1.382 . S
C296 H298 0.952 . S
C297 N292 1.332 . S
C297 C293 1.382 . S
C297 H299 0.948 . S
H298 C296 0.952 . S
H299 C297 0.948 . S
H300 C289 0.952 . S
H301 C291 0.948 1_655 S
C302 C268 1.395 . S
C302 C272 1.391 . S
C303 C265 1.389 1_455 S
C303 C285 1.392 . S
C304 C275 1.392 . S
C304 C277 1.389 . S
C305 C280 1.395 . S
C305 C282 1.391 1_655 S
H306 C266 0.951 . S
H307 C267 0.952 . S
H308 C273 0.949 . S
H309 C274 0.950 . S
H310 C278 0.951 . S
H311 C279 0.950 . S
H312 C283 0.949 . S
H313 C284 0.950 . S
H314 C288 0.950 . S
H315 C290 0.950 . S
H316 C293 0.950 . S
H317 C295 0.950 . S
C318 C319 1.443 . S
C318 N322 1.376 . S
C318 C356 1.389 . S
C319 C318 1.443 . S
C319 C320 1.340 . S
C319 H359 0.951 . S
C320 C319 1.340 . S
C320 C321 1.439 . S
C320 H360 0.950 . S
C321 C320 1.439 . S
C321 N322 1.374 . S
C321 C355 1.395 . S
N322 C318 1.376 . S
N322 C321 1.374 . S
N322 Co323 2.008 . S
Co323 N322 2.008 . S
Co323 N324 1.995 . S
Co323 N329 2.008 . S
Co323 N334 1.995 . S
Co323 N339 2.282 . S
Co323 N345 2.282 . S
N324 Co323 1.995 . S
N324 C325 1.376 . S
N324 C328 1.383 . S
C325 N324 1.376 . S
C325 C326 1.446 . S
C325 C355 1.391 . S
C326 C325 1.446 . S
C326 C327 1.339 . S
C326 H361 0.949 . S
C327 C326 1.339 . S
C327 C328 1.439 . S
C327 H362 0.950 . S
C328 N324 1.383 . S
C328 C327 1.439 . S
C328 C357 1.392 . S
N329 Co323 2.008 . S
N329 C330 1.376 . S
N329 C333 1.374 . S
C330 N329 1.376 . S
C330 C331 1.443 . S
C330 C357 1.389 . S
C331 C330 1.443 . S
C331 C332 1.340 . S
C331 H363 0.951 . S
C332 C331 1.340 . S
C332 C333 1.439 . S
C332 H364 0.950 . S
C333 N329 1.374 . S
C333 C332 1.439 . S
C333 C358 1.395 . S
N334 Co323 1.995 . S
N334 C335 1.376 . S
N334 C338 1.383 . S
C335 N334 1.376 . S
C335 C336 1.446 1_545 S
C335 C358 1.391 . S
C336 C335 1.446 1_565 S
C336 C337 1.339 1_565 S
C336 H365 0.949 . S
C337 C336 1.339 1_545 S
C337 C338 1.439 . S
C337 H366 0.950 . S
C338 N334 1.383 . S
C338 C337 1.439 . S
C338 C356 1.392 . S
N339 Co323 2.282 . S
N339 C342 1.332 . S
N339 C344 1.332 . S
C340 C341 1.386 . S
C340 C343 1.388 . S
C341 C340 1.386 . S
C341 C342 1.382 . S
C341 H367 0.950 . S
C342 N339 1.332 . S
C342 C341 1.382 . S
C342 H353 0.952 . S
C343 C340 1.388 . S
C343 C344 1.382 . S
C343 H368 0.950 . S
C344 N339 1.332 . S
C344 C343 1.382 . S
C344 H354 0.948 . S
N345 Co323 2.282 . S
N345 C349 1.332 . S
N345 C350 1.332 . S
C346 C347 1.388 . S
C346 C350 1.382 . S
C346 H369 0.950 . S
C347 C346 1.388 . S
C347 C348 1.386 . S
C348 C347 1.386 . S
C348 C349 1.382 . S
C348 H370 0.950 . S
C349 N345 1.332 . S
C349 C348 1.382 . S
C349 H351 0.952 . S
C350 N345 1.332 . S
C350 C346 1.382 . S
C350 H352 0.948 . S
H351 C349 0.952 . S
H352 C350 0.948 . S
H353 C342 0.952 . S
H354 C344 0.948 . S
C355 C321 1.395 . S
C355 C325 1.391 . S
C356 C318 1.389 . S
C356 C338 1.392 . S
C357 C328 1.392 . S
C357 C330 1.389 . S
C358 C333 1.395 . S
C358 C335 1.391 . S
H359 C319 0.951 . S
H360 C320 0.950 . S
H361 C326 0.949 . S
H362 C327 0.950 . S
H363 C331 0.951 . S
H364 C332 0.950 . S
H365 C336 0.949 . S
H366 C337 0.950 . S
H367 C341 0.950 . S
H368 C343 0.950 . S
H369 C346 0.950 . S
H370 C348 0.950 . S
C371 C372 1.443 . S
C371 N375 1.376 1_655 S
C371 C409 1.389 . S
C372 C371 1.443 . S
C372 C373 1.340 . S
C372 H412 0.951 . S
C373 C372 1.340 . S
C373 C374 1.439 1_655 S
C373 H413 0.950 . S
C374 C373 1.439 1_455 S
C374 N375 1.374 . S
C374 C408 1.395 . S
N375 C371 1.376 1_455 S
N375 C374 1.374 . S
N375 Co376 2.008 . S
Co376 N375 2.008 . S
Co376 N377 1.995 . S
Co376 N382 2.008 . S
Co376 N387 1.995 . S
Co376 N392 2.282 1_455 S
Co376 N398 2.282 . S
N377 Co376 1.995 . S
N377 C378 1.376 . S
N377 C381 1.383 . S
C378 N377 1.376 . S
C378 C379 1.446 . S
C378 C408 1.391 . S
C379 C378 1.446 . S
C379 C380 1.339 . S
C379 H414 0.949 . S
C380 C379 1.339 . S
C380 C381 1.439 . S
C380 H415 0.950 . S
C381 N377 1.383 . S
C381 C380 1.439 . S
C381 C410 1.392 . S
N382 Co376 2.008 . S
N382 C383 1.376 . S
N382 C386 1.374 . S
C383 N382 1.376 . S
C383 C384 1.443 . S
C383 C410 1.389 . S
C384 C383 1.443 . S
C384 C385 1.340 . S
C384 H416 0.951 . S
C385 C384 1.340 . S
C385 C386 1.439 . S
C385 H417 0.950 . S
C386 N382 1.374 . S
C386 C385 1.439 . S
C386 C411 1.395 . S
N387 Co376 1.995 . S
N387 C388 1.376 . S
N387 C391 1.383 . S
C388 N387 1.376 . S
C388 C389 1.446 1_545 S
C388 C411 1.391 . S
C389 C388 1.446 1_565 S
C389 C390 1.344 1_565 S
C389 H418 0.949 . S
C390 C389 1.344 1_545 S
C390 C391 1.440 . S
C390 H419 0.944 1_455 S
C391 N387 1.383 . S
C391 C390 1.440 . S
C391 C409 1.392 1_455 S
N392 Co376 2.282 1_655 S
N392 C395 1.332 . S
N392 C397 1.332 . S
C393 C394 1.386 . S
C393 C396 1.388 . S
C394 C393 1.386 . S
C394 C395 1.382 . S
C394 H420 0.950 . S
C395 N392 1.332 . S
C395 C394 1.382 . S
C395 H406 0.952 . S
C396 C393 1.388 . S
C396 C397 1.382 . S
C396 H421 0.950 . S
C397 N392 1.332 . S
C397 C396 1.382 . S
C397 H407 0.948 . S
N398 Co376 2.282 . S
N398 C402 1.332 . S
N398 C403 1.332 . S
C399 C400 1.388 . S
C399 C403 1.382 . S
C399 H422 0.950 . S
C400 C399 1.388 . S
C400 C401 1.386 . S
C401 C400 1.386 . S
C401 C402 1.382 . S
C401 H423 0.950 . S
C402 N398 1.332 . S
C402 C401 1.382 . S
C402 H404 0.952 . S
C403 N398 1.332 . S
C403 C399 1.382 . S
C403 H405 0.948 . S
H404 C402 0.952 . S
H405 C403 0.948 . S
H406 C395 0.952 . S
H407 C397 0.948 . S
C408 C374 1.395 . S
C408 C378 1.391 . S
C409 C371 1.389 . S
C409 C391 1.392 1_655 S
C410 C381 1.392 . S
C410 C383 1.389 . S
C411 C386 1.395 . S
C411 C388 1.391 . S
H412 C372 0.951 . S
H413 C373 0.950 . S
H414 C379 0.949 . S
H415 C380 0.950 . S
H416 C384 0.951 . S
H417 C385 0.950 . S
H418 C389 0.949 . S
H419 C390 0.944 1_655 S
H420 C394 0.950 . S
H421 C396 0.950 . S
H422 C399 0.950 . S
H423 C401 0.950 . S
C424 C425 1.391 . S
C424 C426 1.394 . S
C424 H440 0.931 . S
C425 C424 1.391 . S
C425 C429 1.376 1_655 S
C426 C424 1.394 . S
C426 C427 1.369 . S
C426 C430 1.531 . S
C427 C426 1.369 . S
C427 C428 1.410 1_655 S
C427 C435 1.503 1_655 S
C428 C427 1.410 1_455 S
C428 C429 1.392 . S
C428 C431 1.511 . S
C429 C425 1.376 1_455 S
C429 C428 1.392 . S
C429 H441 0.929 . S
C430 C426 1.531 . S
C430 H442 0.960 . S
C430 H443 0.962 . S
C430 H444 0.960 . S
C431 C428 1.511 . S
C431 H445 0.961 . S
C431 H446 0.961 . S
C431 H447 0.961 . S
C432 C433 1.370 . S
C432 C434 1.363 1_455 S
C432 H448 0.931 1_455 S
C433 C432 1.370 . S
C433 C437 1.408 . S
C434 C432 1.363 1_655 S
C434 C435 1.370 1_655 S
C434 C438 1.524 . S
C435 C427 1.503 1_455 S
C435 C434 1.370 1_455 S
C435 C436 1.403 . S
C436 C435 1.403 . S
C436 C437 1.404 . S
C436 C439 1.539 . S
C437 C433 1.408 . S
C437 C436 1.404 . S
C437 H449 0.930 . S
C438 C434 1.524 . S
C438 H450 0.956 . S
C438 H451 0.961 1_655 S
C438 H452 0.961 . S
C439 C436 1.539 . S
C439 H453 0.958 . S
C439 H454 0.961 . S
C439 H455 0.960 . S
H440 C424 0.931 . S
H441 C429 0.929 . S
H442 C430 0.960 . S
H443 C430 0.962 . S
H444 C430 0.960 . S
H445 C431 0.961 . S
H446 C431 0.961 . S
H447 C431 0.961 . S
H448 C432 0.931 1_655 S
H449 C437 0.930 . S
H450 C438 0.956 . S
H451 C438 0.961 1_455 S
H452 C438 0.961 . S
H453 C439 0.958 . S
H454 C439 0.961 . S
H455 C439 0.960 . S
C456 C457 1.391 . S
C456 C458 1.394 . S
C456 H472 0.931 . S
C457 C456 1.391 . S
C457 C461 1.376 . S
C458 C456 1.394 . S
C458 C459 1.369 . S
C458 C462 1.531 . S
C459 C458 1.369 . S
C459 C460 1.410 . S
C459 C467 1.503 . S
C460 C459 1.410 . S
C460 C461 1.392 . S
C460 C463 1.511 . S
C461 C457 1.376 . S
C461 C460 1.392 . S
C461 H473 0.929 . S
C462 C458 1.531 . S
C462 H474 0.960 . S
C462 H475 0.962 . S
C462 H476 0.960 . S
C463 C460 1.511 . S
C463 H477 0.961 . S
C463 H478 0.961 . S
C463 H479 0.961 . S
C464 C465 1.370 . S
C464 C466 1.363 . S
C464 H480 0.931 . S
C465 C464 1.370 . S
C465 C469 1.408 . S
C466 C464 1.363 . S
C466 C467 1.370 . S
C466 C470 1.524 . S
C467 C459 1.503 . S
C467 C466 1.370 . S
C467 C468 1.403 . S
C468 C467 1.403 . S
C468 C469 1.404 . S
C468 C471 1.539 . S
C469 C465 1.408 . S
C469 C468 1.404 . S
C469 H481 0.930 . S
C470 C466 1.524 . S
C470 H482 0.956 . S
C470 H483 0.961 . S
C470 H484 0.961 . S
C471 C468 1.539 . S
C471 H485 0.958 . S
C471 H486 0.961 . S
C471 H487 0.960 . S
H472 C456 0.931 . S
H473 C461 0.929 . S
H474 C462 0.960 . S
H475 C462 0.962 . S
H476 C462 0.960 . S
H477 C463 0.961 . S
H478 C463 0.961 . S
H479 C463 0.961 . S
H480 C464 0.931 . S
H481 C469 0.930 . S
H482 C470 0.956 . S
H483 C470 0.961 . S
H484 C470 0.961 . S
H485 C471 0.958 . S
H486 C471 0.961 . S
H487 C471 0.960 . S
C488 C489 1.391 . S
C488 C490 1.394 . S
C488 H504 0.931 . S
C489 C488 1.391 . S
C489 C493 1.376 . S
C490 C488 1.394 . S
C490 C491 1.369 . S
C490 C494 1.531 1_554 S
C491 C490 1.369 . S
C491 C492 1.410 . S
C491 C499 1.503 1_544 S
C492 C491 1.410 . S
C492 C493 1.392 . S
C492 C495 1.511 1_545 S
C493 C489 1.376 . S
C493 C492 1.392 . S
C493 H505 0.929 . S
C494 C490 1.531 1_556 S
C494 H506 0.960 . S
C494 H507 0.962 . S
C494 H508 0.960 . S
C495 C492 1.511 1_565 S
C495 H509 0.961 . S
C495 H510 0.961 . S
C495 H511 0.961 . S
C496 C497 1.370 . S
C496 C498 1.363 . S
C496 H512 0.931 . S
C497 C496 1.370 . S
C497 C501 1.408 . S
C498 C496 1.363 . S
C498 C499 1.370 . S
C498 C502 1.524 1_556 S
C499 C491 1.503 1_566 S
C499 C498 1.370 . S
C499 C500 1.403 . S
C500 C499 1.403 . S
C500 C501 1.404 . S
C500 C503 1.539 1_565 S
C501 C497 1.408 . S
C501 C500 1.404 . S
C501 H513 0.930 . S
C502 C498 1.524 1_554 S
C502 H514 0.956 . S
C502 H515 0.961 . S
C502 H516 0.961 . S
C503 C500 1.539 1_545 S
C503 H517 0.958 . S
C503 H518 0.961 . S
C503 H519 0.960 . S
H504 C488 0.931 . S
H505 C493 0.929 . S
H506 C494 0.960 . S
H507 C494 0.962 . S
H508 C494 0.960 . S
H509 C495 0.961 . S
H510 C495 0.961 . S
H511 C495 0.961 . S
H512 C496 0.931 . S
H513 C501 0.930 . S
H514 C502 0.956 . S
H515 C502 0.961 . S
H516 C502 0.961 . S
H517 C503 0.958 . S
H518 C503 0.961 . S
H519 C503 0.960 . S
C520 C521 1.391 . S
C520 C522 1.394 . S
C520 H536 0.931 . S
C521 C520 1.391 . S
C521 C525 1.376 1_455 S
C522 C520 1.394 . S
C522 C523 1.369 1_455 S
C522 C526 1.531 1_554 S
C523 C522 1.369 1_655 S
C523 C524 1.410 . S
C523 C531 1.503 1_564 S
C524 C523 1.410 . S
C524 C525 1.392 . S
C524 C527 1.511 1_565 S
C525 C521 1.376 1_655 S
C525 C524 1.392 . S
C525 H537 0.929 . S
C526 C522 1.531 1_556 S
C526 H538 0.960 . S
C526 H539 0.962 . S
C526 H540 0.960 . S
C527 C524 1.511 1_545 S
C527 H541 0.961 . S
C527 H542 0.961 . S
C527 H543 0.961 1_545 S
C528 C529 1.370 1_455 S
C528 C530 1.363 . S
C528 H544 0.931 . S
C529 C528 1.370 1_655 S
C529 C533 1.408 . S
C530 C528 1.363 . S
C530 C531 1.370 1_455 S
C530 C534 1.524 1_556 S
C531 C523 1.503 1_546 S
C531 C530 1.370 1_655 S
C531 C532 1.403 1_545 S
C532 C531 1.403 1_565 S
C532 C533 1.404 1_565 S
C532 C535 1.539 . S
C533 C529 1.408 . S
C533 C532 1.404 1_545 S
C533 H545 0.930 . S
C534 C530 1.524 1_554 S
C534 H546 0.956 . S
C534 H547 0.961 . S
C534 H548 0.961 . S
C535 C532 1.539 . S
C535 H549 0.958 . S
C535 H550 0.961 . S
C535 H551 0.960 . S
H536 C520 0.931 . S
H537 C525 0.929 . S
H538 C526 0.960 . S
H539 C526 0.962 . S
H540 C526 0.960 . S
H541 C527 0.961 . S
H542 C527 0.961 . S
H543 C527 0.961 1_565 S
H544 C528 0.931 . S
H545 C533 0.930 . S
H546 C534 0.956 . S
H547 C534 0.961 . S
H548 C534 0.961 . S
H549 C535 0.958 . S
H550 C535 0.961 . S
H551 C535 0.960 . S
C552 C553 1.391 . S
C552 C554 1.394 . S
C552 H568 0.931 . S
C553 C552 1.391 . S
C553 C557 1.376 . S
C554 C552 1.394 . S
C554 C555 1.369 . S
C554 C558 1.531 . S
C555 C554 1.369 . S
C555 C556 1.410 . S
C555 C563 1.503 . S
C556 C555 1.410 . S
C556 C557 1.392 . S
C556 C559 1.511 . S
C557 C553 1.376 . S
C557 C556 1.392 . S
C557 H569 0.929 . S
C558 C554 1.531 . S
C558 H570 0.960 . S
C558 H571 0.962 . S
C558 H572 0.960 . S
C559 C556 1.511 . S
C559 H573 0.961 . S
C559 H574 0.961 . S
C559 H575 0.961 . S
C560 C561 1.370 . S
C560 C562 1.363 . S
C560 H576 0.931 . S
C561 C560 1.370 . S
C561 C565 1.408 . S
C562 C560 1.363 . S
C562 C563 1.370 . S
C562 C566 1.524 . S
C563 C555 1.503 . S
C563 C562 1.370 . S
C563 C564 1.403 . S
C564 C563 1.403 . S
C564 C565 1.404 . S
C564 C567 1.539 . S
C565 C561 1.408 . S
C565 C564 1.404 . S
C565 H577 0.930 . S
C566 C562 1.524 . S
C566 H578 0.956 . S
C566 H579 0.961 . S
C566 H580 0.961 . S
C567 C564 1.539 . S
C567 H581 0.958 . S
C567 H582 0.961 1_545 S
C567 H583 0.960 . S
H568 C552 0.931 . S
H569 C557 0.929 . S
H570 C558 0.960 . S
H571 C558 0.962 . S
H572 C558 0.960 . S
H573 C559 0.961 . S
H574 C559 0.961 . S
H575 C559 0.961 . S
H576 C560 0.931 . S
H577 C565 0.930 . S
H578 C566 0.956 . S
H579 C566 0.961 . S
H580 C566 0.961 . S
H581 C567 0.958 . S
H582 C567 0.961 1_565 S
H583 C567 0.960 . S
C584 C585 1.391 . S
C584 C586 1.394 . S
C584 H600 0.931 . S
C585 C584 1.391 . S
C585 C589 1.376 . S
C586 C584 1.394 . S
C586 C587 1.369 . S
C586 C590 1.531 . S
C587 C586 1.369 . S
C587 C588 1.410 . S
C587 C595 1.503 . S
C588 C587 1.410 . S
C588 C589 1.392 . S
C588 C591 1.511 . S
C589 C585 1.376 . S
C589 C588 1.392 . S
C589 H601 0.929 . S
C590 C586 1.531 . S
C590 H602 0.960 . S
C590 H603 0.962 . S
C590 H604 0.960 . S
C591 C588 1.511 . S
C591 H605 0.961 . S
C591 H606 0.961 . S
C591 H607 0.961 . S
C592 C593 1.370 . S
C592 C594 1.363 . S
C592 H608 0.931 . S
C593 C592 1.370 . S
C593 C597 1.408 . S
C594 C592 1.363 . S
C594 C595 1.370 . S
C594 C598 1.524 . S
C595 C587 1.503 . S
C595 C594 1.370 . S
C595 C596 1.403 . S
C596 C595 1.403 . S
C596 C597 1.404 . S
C596 C599 1.539 . S
C597 C593 1.408 . S
C597 C596 1.404 . S
C597 H609 0.930 . S
C598 C594 1.524 . S
C598 H610 0.956 . S
C598 H611 0.961 . S
C598 H612 0.961 . S
C599 C596 1.539 . S
C599 H613 0.958 . S
C599 H614 0.961 1_545 S
C599 H615 0.960 . S
H600 C584 0.931 . S
H601 C589 0.929 . S
H602 C590 0.960 . S
H603 C590 0.962 . S
H604 C590 0.960 . S
H605 C591 0.961 . S
H606 C591 0.961 . S
H607 C591 0.961 . S
H608 C592 0.931 . S
H609 C597 0.930 . S
H610 C598 0.956 . S
H611 C598 0.961 . S
H612 C598 0.961 . S
H613 C599 0.958 . S
H614 C599 0.961 1_565 S
H615 C599 0.960 . S
C616 C617 1.391 . S
C616 C618 1.394 . S
C616 H632 0.931 . S
C617 C616 1.391 . S
C617 C621 1.376 . S
C618 C616 1.394 . S
C618 C619 1.369 . S
C618 C622 1.531 . S
C619 C618 1.369 . S
C619 C620 1.410 . S
C619 C627 1.503 . S
C620 C619 1.410 . S
C620 C621 1.392 . S
C620 C623 1.511 . S
C621 C617 1.376 . S
C621 C620 1.392 . S
C621 H633 0.929 . S
C622 C618 1.531 . S
C622 H634 0.960 . S
C622 H635 0.962 . S
C622 H636 0.960 . S
C623 C620 1.511 . S
C623 H637 0.961 . S
C623 H638 0.961 . S
C623 H639 0.961 . S
C624 C625 1.370 . S
C624 C626 1.363 . S
C624 H640 0.931 . S
C625 C624 1.370 . S
C625 C629 1.408 . S
C626 C624 1.363 . S
C626 C627 1.370 . S
C626 C630 1.524 . S
C627 C619 1.503 . S
C627 C626 1.370 . S
C627 C628 1.403 . S
C628 C627 1.403 . S
C628 C629 1.404 . S
C628 C631 1.539 . S
C629 C625 1.408 . S
C629 C628 1.404 . S
C629 H641 0.930 . S
C630 C626 1.524 . S
C630 H642 0.956 . S
C630 H643 0.961 . S
C630 H644 0.961 . S
C631 C628 1.539 . S
C631 H645 0.958 . S
C631 H646 0.961 . S
C631 H647 0.960 . S
H632 C616 0.931 . S
H633 C621 0.929 . S
H634 C622 0.960 . S
H635 C622 0.962 . S
H636 C622 0.960 . S
H637 C623 0.961 . S
H638 C623 0.961 . S
H639 C623 0.961 . S
H640 C624 0.931 . S
H641 C629 0.930 . S
H642 C630 0.956 . S
H643 C630 0.961 . S
H644 C630 0.961 . S
H645 C631 0.958 . S
H646 C631 0.961 . S
H647 C631 0.960 . S
C648 C649 1.391 . S
C648 C650 1.394 . S
C648 H664 0.931 . S
C649 C648 1.391 . S
C649 C653 1.376 . S
C650 C648 1.394 . S
C650 C651 1.369 . S
C650 C654 1.531 . S
C651 C650 1.369 . S
C651 C652 1.410 . S
C651 C659 1.503 . S
C652 C651 1.410 . S
C652 C653 1.392 . S
C652 C655 1.511 . S
C653 C649 1.376 . S
C653 C652 1.392 . S
C653 H665 0.929 . S
C654 C650 1.531 . S
C654 H666 0.960 . S
C654 H667 0.962 . S
C654 H668 0.960 1_565 S
C655 C652 1.511 . S
C655 H669 0.961 . S
C655 H670 0.961 . S
C655 H671 0.961 . S
C656 C657 1.370 . S
C656 C658 1.363 . S
C656 H672 0.931 . S
C657 C656 1.370 . S
C657 C661 1.408 . S
C658 C656 1.363 . S
C658 C659 1.370 . S
C658 C662 1.524 . S
C659 C651 1.503 . S
C659 C658 1.370 . S
C659 C660 1.403 . S
C660 C659 1.403 . S
C660 C661 1.404 . S
C660 C663 1.539 . S
C661 C657 1.408 . S
C661 C660 1.404 . S
C661 H673 0.930 . S
C662 C658 1.524 . S
C662 H674 0.956 . S
C662 H675 0.961 . S
C662 H676 0.961 . S
C663 C660 1.539 . S
C663 H677 0.958 . S
C663 H678 0.961 . S
C663 H679 0.960 . S
H664 C648 0.931 . S
H665 C653 0.929 . S
H666 C654 0.960 . S
H667 C654 0.962 . S
H668 C654 0.960 1_545 S
H669 C655 0.961 . S
H670 C655 0.961 . S
H671 C655 0.961 . S
H672 C656 0.931 . S
H673 C661 0.930 . S
H674 C662 0.956 . S
H675 C662 0.961 . S
H676 C662 0.961 . S
H677 C663 0.958 . S
H678 C663 0.961 . S
H679 C663 0.960 . S
C680 C681 1.391 . S
C680 C682 1.394 . S
C680 H696 0.931 . S
C681 C680 1.391 . S
C681 C685 1.376 . S
C682 C680 1.394 . S
C682 C683 1.369 . S
C682 C686 1.531 . S
C683 C682 1.369 . S
C683 C684 1.410 . S
C683 C691 1.503 . S
C684 C683 1.410 . S
C684 C685 1.392 . S
C684 C687 1.511 . S
C685 C681 1.376 . S
C685 C684 1.392 . S
C685 H697 0.929 . S
C686 C682 1.531 . S
C686 H698 0.960 . S
C686 H699 0.962 . S
C686 H700 0.960 . S
C687 C684 1.511 . S
C687 H701 0.961 . S
C687 H702 0.961 . S
C687 H703 0.961 . S
C688 C689 1.370 . S
C688 C690 1.363 . S
C688 H704 0.931 . S
C689 C688 1.370 . S
C689 C693 1.408 . S
C690 C688 1.363 . S
C690 C691 1.370 . S
C690 C694 1.524 . S
C691 C683 1.503 . S
C691 C690 1.370 . S
C691 C692 1.403 . S
C692 C691 1.403 . S
C692 C693 1.404 . S
C692 C695 1.539 . S
C693 C689 1.408 . S
C693 C692 1.404 . S
C693 H705 0.930 . S
C694 C690 1.524 . S
C694 H706 0.956 . S
C694 H707 0.961 . S
C694 H708 0.961 . S
C695 C692 1.539 . S
C695 H709 0.958 . S
C695 H710 0.961 . S
C695 H711 0.960 . S
H696 C680 0.931 . S
H697 C685 0.929 . S
H698 C686 0.960 . S
H699 C686 0.962 . S
H700 C686 0.960 . S
H701 C687 0.961 . S
H702 C687 0.961 . S
H703 C687 0.961 . S
H704 C688 0.931 . S
H705 C693 0.930 . S
H706 C694 0.956 . S
H707 C694 0.961 . S
H708 C694 0.961 . S
H709 C695 0.958 . S
H710 C695 0.961 . S
H711 C695 0.960 . S
C712 C713 1.391 . S
C712 C714 1.394 . S
C712 H728 0.931 . S
C713 C712 1.391 . S
C713 C717 1.376 . S
C714 C712 1.394 . S
C714 C715 1.369 . S
C714 C718 1.531 . S
C715 C714 1.369 . S
C715 C716 1.410 . S
C715 C723 1.503 . S
C716 C715 1.410 . S
C716 C717 1.392 . S
C716 C719 1.511 . S
C717 C713 1.376 . S
C717 C716 1.392 . S
C717 H729 0.929 . S
C718 C714 1.531 . S
C718 H730 0.960 . S
C718 H731 0.962 . S
C718 H732 0.960 . S
C719 C716 1.511 . S
C719 H733 0.961 . S
C719 H734 0.961 . S
C719 H735 0.961 . S
C720 C721 1.370 . S
C720 C722 1.363 . S
C720 H736 0.931 . S
C721 C720 1.370 . S
C721 C725 1.408 . S
C722 C720 1.363 . S
C722 C723 1.370 . S
C722 C726 1.524 . S
C723 C715 1.503 . S
C723 C722 1.370 . S
C723 C724 1.403 . S
C724 C723 1.403 . S
C724 C725 1.404 . S
C724 C727 1.539 . S
C725 C721 1.408 . S
C725 C724 1.404 . S
C725 H737 0.930 . S
C726 C722 1.524 . S
C726 H738 0.956 . S
C726 H739 0.961 . S
C726 H740 0.961 . S
C727 C724 1.539 . S
C727 H741 0.958 . S
C727 H742 0.961 . S
C727 H743 0.960 . S
H728 C712 0.931 . S
H729 C717 0.929 . S
H730 C718 0.960 . S
H731 C718 0.962 . S
H732 C718 0.960 . S
H733 C719 0.961 . S
H734 C719 0.961 . S
H735 C719 0.961 . S
H736 C720 0.931 . S
H737 C725 0.930 . S
H738 C726 0.956 . S
H739 C726 0.961 . S
H740 C726 0.961 . S
H741 C727 0.958 . S
H742 C727 0.961 . S
H743 C727 0.960 . S
C744 C745 1.391 . S
C744 C746 1.394 . S
C744 H760 0.931 . S
C745 C744 1.391 . S
C745 C749 1.376 . S
C746 C744 1.394 . S
C746 C747 1.369 . S
C746 C750 1.531 . S
C747 C746 1.369 . S
C747 C748 1.410 . S
C747 C755 1.503 . S
C748 C747 1.410 . S
C748 C749 1.392 . S
C748 C751 1.511 . S
C749 C745 1.376 . S
C749 C748 1.392 . S
C749 H761 0.929 . S
C750 C746 1.531 . S
C750 H762 0.960 . S
C750 H763 0.962 . S
C750 H764 0.960 . S
C751 C748 1.511 . S
C751 H765 0.961 . S
C751 H766 0.961 . S
C751 H767 0.961 . S
C752 C753 1.370 . S
C752 C754 1.363 . S
C752 H768 0.931 . S
C753 C752 1.370 . S
C753 C757 1.408 . S
C754 C752 1.363 . S
C754 C755 1.370 . S
C754 C758 1.524 . S
C755 C747 1.503 . S
C755 C754 1.370 . S
C755 C756 1.403 . S
C756 C755 1.403 . S
C756 C757 1.404 . S
C756 C759 1.539 . S
C757 C753 1.408 . S
C757 C756 1.404 . S
C757 H769 0.930 . S
C758 C754 1.524 . S
C758 H770 0.956 . S
C758 H771 0.961 . S
C758 H772 0.961 . S
C759 C756 1.539 . S
C759 H773 0.958 . S
C759 H774 0.961 . S
C759 H775 0.960 . S
H760 C744 0.931 . S
H761 C749 0.929 . S
H762 C750 0.960 . S
H763 C750 0.962 . S
H764 C750 0.960 . S
H765 C751 0.961 . S
H766 C751 0.961 . S
H767 C751 0.961 . S
H768 C752 0.931 . S
H769 C757 0.930 . S
H770 C758 0.956 . S
H771 C758 0.961 . S
H772 C758 0.961 . S
H773 C759 0.958 . S
H774 C759 0.961 . S
H775 C759 0.960 . S
C776 C777 1.391 . S
C776 C778 1.394 . S
C776 H792 0.931 . S
C777 C776 1.391 . S
C777 C781 1.376 . S
C778 C776 1.394 . S
C778 C779 1.369 . S
C778 C782 1.531 . S
C779 C778 1.369 . S
C779 C780 1.410 . S
C779 C787 1.503 . S
C780 C779 1.410 . S
C780 C781 1.392 . S
C780 C783 1.511 . S
C781 C777 1.376 . S
C781 C780 1.392 . S
C781 H793 0.929 . S
C782 C778 1.531 . S
C782 H794 0.960 . S
C782 H795 0.962 . S
C782 H796 0.960 . S
C783 C780 1.511 . S
C783 H797 0.961 . S
C783 H798 0.961 . S
C783 H799 0.961 . S
C784 C785 1.370 . S
C784 C786 1.363 . S
C784 H800 0.931 . S
C785 C784 1.370 . S
C785 C789 1.408 . S
C786 C784 1.363 . S
C786 C787 1.370 . S
C786 C790 1.524 . S
C787 C779 1.503 . S
C787 C786 1.370 . S
C787 C788 1.403 . S
C788 C787 1.403 . S
C788 C789 1.404 . S
C788 C791 1.539 . S
C789 C785 1.408 . S
C789 C788 1.404 . S
C789 H801 0.930 . S
C790 C786 1.524 . S
C790 H802 0.956 . S
C790 H803 0.961 . S
C790 H804 0.961 . S
C791 C788 1.539 . S
C791 H805 0.958 . S
C791 H806 0.961 1_565 S
C791 H807 0.960 . S
H792 C776 0.931 . S
H793 C781 0.929 . S
H794 C782 0.960 . S
H795 C782 0.962 . S
H796 C782 0.960 . S
H797 C783 0.961 . S
H798 C783 0.961 . S
H799 C783 0.961 . S
H800 C784 0.931 . S
H801 C789 0.930 . S
H802 C790 0.956 . S
H803 C790 0.961 . S
H804 C790 0.961 . S
H805 C791 0.958 . S
H806 C791 0.961 1_545 S
H807 C791 0.960 . S
C808 C809 1.391 . S
C808 C810 1.394 . S
C808 H824 0.931 . S
C809 C808 1.391 . S
C809 C813 1.376 . S
C810 C808 1.394 . S
C810 C811 1.369 . S
C810 C814 1.531 . S
C811 C810 1.369 . S
C811 C812 1.410 . S
C811 C819 1.503 . S
C812 C811 1.410 . S
C812 C813 1.392 . S
C812 C815 1.511 . S
C813 C809 1.376 . S
C813 C812 1.392 . S
C813 H825 0.929 . S
C814 C810 1.531 . S
C814 H826 0.960 . S
C814 H827 0.962 . S
C814 H828 0.960 . S
C815 C812 1.511 . S
C815 H829 0.961 . S
C815 H830 0.961 . S
C815 H831 0.961 . S
C816 C817 1.370 . S
C816 C818 1.363 . S
C816 H832 0.931 . S
C817 C816 1.370 . S
C817 C821 1.408 . S
C818 C816 1.363 . S
C818 C819 1.370 . S
C818 C822 1.524 . S
C819 C811 1.503 . S
C819 C818 1.370 . S
C819 C820 1.403 . S
C820 C819 1.403 . S
C820 C821 1.404 . S
C820 C823 1.539 1_545 S
C821 C817 1.408 . S
C821 C820 1.404 . S
C821 H833 0.930 . S
C822 C818 1.524 . S
C822 H834 0.956 . S
C822 H835 0.961 . S
C822 H836 0.961 . S
C823 C820 1.539 1_565 S
C823 H837 0.958 . S
C823 H838 0.961 . S
C823 H839 0.960 . S
H824 C808 0.931 . S
H825 C813 0.929 . S
H826 C814 0.960 . S
H827 C814 0.962 . S
H828 C814 0.960 . S
H829 C815 0.961 . S
H830 C815 0.961 . S
H831 C815 0.961 . S
H832 C816 0.931 . S
H833 C821 0.930 . S
H834 C822 0.956 . S
H835 C822 0.961 . S
H836 C822 0.961 . S
H837 C823 0.958 . S
H838 C823 0.961 . S
H839 C823 0.960 . S
C840 C841 1.391 . S
C840 C842 1.394 . S
C840 H856 0.931 . S
C841 C840 1.391 . S
C841 C845 1.376 . S
C842 C840 1.394 . S
C842 C843 1.369 . S
C842 C846 1.531 . S
C843 C842 1.369 . S
C843 C844 1.410 . S
C843 C851 1.503 . S
C844 C843 1.410 . S
C844 C845 1.392 . S
C844 C847 1.511 . S
C845 C841 1.376 . S
C845 C844 1.392 . S
C845 H857 0.929 . S
C846 C842 1.531 . S
C846 H858 0.960 . S
C846 H859 0.962 . S
C846 H860 0.960 . S
C847 C844 1.511 . S
C847 H861 0.961 . S
C847 H862 0.961 . S
C847 H863 0.961 . S
C848 C849 1.370 . S
C848 C850 1.363 . S
C848 H864 0.931 . S
C849 C848 1.370 . S
C849 C853 1.408 . S
C850 C848 1.363 . S
C850 C851 1.370 . S
C850 C854 1.524 . S
C851 C843 1.503 . S
C851 C850 1.370 . S
C851 C852 1.403 . S
C852 C851 1.403 . S
C852 C853 1.404 . S
C852 C855 1.539 . S
C853 C849 1.408 . S
C853 C852 1.404 . S
C853 H865 0.930 . S
C854 C850 1.524 . S
C854 H866 0.956 . S
C854 H867 0.961 1_565 S
C854 H868 0.961 1_565 S
C855 C852 1.539 . S
C855 H869 0.958 . S
C855 H870 0.961 . S
C855 H871 0.960 . S
H856 C840 0.931 . S
H857 C845 0.929 . S
H858 C846 0.960 . S
H859 C846 0.962 . S
H860 C846 0.960 . S
H861 C847 0.961 . S
H862 C847 0.961 . S
H863 C847 0.961 . S
H864 C848 0.931 . S
H865 C853 0.930 . S
H866 C854 0.956 . S
H867 C854 0.961 1_545 S
H868 C854 0.961 1_545 S
H869 C855 0.958 . S
H870 C855 0.961 . S
H871 C855 0.960 . S
C872 C873 1.391 . S
C872 C874 1.394 . S
C872 H888 0.931 . S
C873 C872 1.391 . S
C873 C877 1.376 . S
C874 C872 1.394 . S
C874 C875 1.369 . S
C874 C878 1.555 . S
C875 C874 1.369 . S
C875 C876 1.410 . S
C875 C883 1.503 1_554 S
C876 C875 1.410 . S
C876 C877 1.392 . S
C876 C879 1.511 . S
C877 C873 1.376 . S
C877 C876 1.392 . S
C877 H889 0.929 . S
C878 C874 1.555 . S
C878 H890 0.937 1_554 S
C878 H891 0.946 1_554 S
C878 H892 0.976 . S
C879 C876 1.511 . S
C879 H893 0.961 . S
C879 H894 0.961 . S
C879 H895 0.961 . S
C880 C881 1.370 . S
C880 C882 1.363 . S
C880 H896 0.931 . S
C881 C880 1.370 . S
C881 C885 1.408 . S
C882 C880 1.363 . S
C882 C883 1.370 . S
C882 C886 1.524 . S
C883 C875 1.503 1_556 S
C883 C882 1.370 . S
C883 C884 1.403 . S
C884 C883 1.403 . S
C884 C885 1.404 . S
C884 C887 1.539 . S
C885 C881 1.408 . S
C885 C884 1.404 . S
C885 H897 0.930 . S
C886 C882 1.524 . S
C886 H898 0.956 . S
C886 H899 0.961 . S
C886 H900 0.961 . S
C887 C884 1.539 . S
C887 H901 0.958 . S
C887 H902 0.961 . S
C887 H903 0.960 1_556 S
H888 C872 0.931 . S
H889 C877 0.929 . S
H890 C878 0.937 1_556 S
H891 C878 0.946 1_556 S
H892 C878 0.976 . S
H893 C879 0.961 . S
H894 C879 0.961 . S
H895 C879 0.961 . S
H896 C880 0.931 . S
H897 C885 0.930 . S
H898 C886 0.956 . S
H899 C886 0.961 . S
H900 C886 0.961 . S
H901 C887 0.958 . S
H902 C887 0.961 . S
H903 C887 0.960 1_554 S
C904 C905 1.391 . S
C904 C906 1.394 . S
C904 H920 0.931 . S
C905 C904 1.391 . S
C905 C909 1.376 . S
C906 C904 1.394 . S
C906 C907 1.369 . S
C906 C910 1.531 . S
C907 C906 1.369 . S
C907 C908 1.410 . S
C907 C915 1.503 1_554 S
C908 C907 1.410 . S
C908 C909 1.392 . S
C908 C911 1.511 . S
C909 C905 1.376 . S
C909 C908 1.392 . S
C909 H921 0.929 . S
C910 C906 1.531 . S
C910 H922 0.960 1_554 S
C910 H923 0.962 1_554 S
C910 H924 0.960 . S
C911 C908 1.511 . S
C911 H925 0.961 . S
C911 H926 0.961 . S
C911 H927 0.961 . S
C912 C913 1.370 . S
C912 C914 1.363 . S
C912 H928 0.931 . S
C913 C912 1.370 . S
C913 C917 1.408 . S
C914 C912 1.363 . S
C914 C915 1.370 . S
C914 C918 1.524 . S
C915 C907 1.503 1_556 S
C915 C914 1.370 . S
C915 C916 1.403 . S
C916 C915 1.403 . S
C916 C917 1.404 . S
C916 C919 1.539 . S
C917 C913 1.408 . S
C917 C916 1.404 . S
C917 H929 0.930 . S
C918 C914 1.524 . S
C918 H930 0.956 . S
C918 H931 0.961 . S
C918 H932 0.961 . S
C919 C916 1.539 . S
C919 H933 0.958 . S
C919 H934 0.961 . S
C919 H935 0.960 1_556 S
H920 C904 0.931 . S
H921 C909 0.929 . S
H922 C910 0.960 1_556 S
H923 C910 0.962 1_556 S
H924 C910 0.960 . S
H925 C911 0.961 . S
H926 C911 0.961 . S
H927 C911 0.961 . S
H928 C912 0.931 . S
H929 C917 0.930 . S
H930 C918 0.956 . S
H931 C918 0.961 . S
H932 C918 0.961 . S
H933 C919 0.958 . S
H934 C919 0.961 . S
H935 C919 0.960 1_554 S
C425 C38 1.960 . S
C433 C144 1.961 . S
C457 C197 1.987 . S
C465 C91 1.940 . S
C489 C356 1.985 . S
C497 C250 1.938 . S
C521 C303 1.949 . S
C529 C409 1.964 . S
C553 C340 1.975 . S
C561 C22 1.980 . S
C585 C75 1.976 . S
C593 C393 1.979 . S
C617 C128 1.971 . S
C625 C234 1.981 . S
C649 C181 1.980 . S
C657 C287 1.976 . S
C681 C357 2.227 . S
C689 C39 2.212 . S
C713 C92 2.235 . S
C721 C410 2.200 . S
C745 C251 2.238 . S
C753 C145 2.199 . S
C777 C304 2.206 . S
C785 C198 2.215 . S
C809 C82 0.699 . S
C817 C29 0.680 . S
C841 C135 0.703 . S
C849 C188 0.669 . S
C873 C294 0.719 . S
C881 C241 0.671 . S
C905 C347 0.713 . S
C913 C400 0.665 . S
