# Generated by pormake.
# Topology lcs-e, (6)-cn, num edge types: 1
# Building blocks:
#     Node 0, Type 0, BuildingBlock: KUMJIN_clean_sbu_0, # of connection points: 6
#     Node 1, Type 0, BuildingBlock: KUMJIN_clean_sbu_0, # of connection points: 6
#     Node 2, Type 0, BuildingBlock: KUMJIN_clean_sbu_0, # of connection points: 6
#     Node 3, Type 0, BuildingBlock: KUMJIN_clean_sbu_0, # of connection points: 6
#     Node 4, Type 0, BuildingBlock: KUMJIN_clean_sbu_0, # of connection points: 6
#     Node 5, Type 0, BuildingBlock: KUMJIN_clean_sbu_0, # of connection points: 6
#     Node 6, Type 0, BuildingBlock: KUMJIN_clean_sbu_0, # of connection points: 6
#     Node 7, Type 0, BuildingBlock: KUMJIN_clean_sbu_0, # of connection points: 6
#     Node 8, Type 0, BuildingBlock: KUMJIN_clean_sbu_0, # of connection points: 6
#     Node 9, Type 0, BuildingBlock: KUMJIN_clean_sbu_0, # of connection points: 6
#     Node 10, Type 0, BuildingBlock: KUMJIN_clean_sbu_0, # of connection points: 6
#     Node 11, Type 0, BuildingBlock: KUMJIN_clean_sbu_0, # of connection points: 6
#     Node 12, Type 0, BuildingBlock: KUMJIN_clean_sbu_0, # of connection points: 6
#     Node 13, Type 0, BuildingBlock: KUMJIN_clean_sbu_0, # of connection points: 6
#     Node 14, Type 0, BuildingBlock: KUMJIN_clean_sbu_0, # of connection points: 6
#     Node 15, Type 0, BuildingBlock: KUMJIN_clean_sbu_0, # of connection points: 6
#     Node 16, Type 0, BuildingBlock: KUMJIN_clean_sbu_0, # of connection points: 6
#     Node 17, Type 0, BuildingBlock: KUMJIN_clean_sbu_0, # of connection points: 6
#     Node 18, Type 0, BuildingBlock: KUMJIN_clean_sbu_0, # of connection points: 6
#     Node 19, Type 0, BuildingBlock: KUMJIN_clean_sbu_0, # of connection points: 6
#     Node 20, Type 0, BuildingBlock: KUMJIN_clean_sbu_0, # of connection points: 6
#     Node 21, Type 0, BuildingBlock: KUMJIN_clean_sbu_0, # of connection points: 6
#     Node 22, Type 0, BuildingBlock: KUMJIN_clean_sbu_0, # of connection points: 6
#     Node 23, Type 0, BuildingBlock: KUMJIN_clean_sbu_0, # of connection points: 6
#     Node 24, Type 0, BuildingBlock: KUMJIN_clean_sbu_0, # of connection points: 6
#     Node 25, Type 0, BuildingBlock: KUMJIN_clean_sbu_0, # of connection points: 6
#     Node 26, Type 0, BuildingBlock: KUMJIN_clean_sbu_0, # of connection points: 6
#     Node 27, Type 0, BuildingBlock: KUMJIN_clean_sbu_0, # of connection points: 6
#     Node 28, Type 0, BuildingBlock: KUMJIN_clean_sbu_0, # of connection points: 6
#     Node 29, Type 0, BuildingBlock: KUMJIN_clean_sbu_0, # of connection points: 6
#     Node 30, Type 0, BuildingBlock: KUMJIN_clean_sbu_0, # of connection points: 6
#     Node 31, Type 0, BuildingBlock: KUMJIN_clean_sbu_0, # of connection points: 6
#     Node 32, Type 0, BuildingBlock: KUMJIN_clean_sbu_0, # of connection points: 6
#     Node 33, Type 0, BuildingBlock: KUMJIN_clean_sbu_0, # of connection points: 6
#     Node 34, Type 0, BuildingBlock: KUMJIN_clean_sbu_0, # of connection points: 6
#     Node 35, Type 0, BuildingBlock: KUMJIN_clean_sbu_0, # of connection points: 6
#     Node 36, Type 0, BuildingBlock: KUMJIN_clean_sbu_0, # of connection points: 6
#     Node 37, Type 0, BuildingBlock: KUMJIN_clean_sbu_0, # of connection points: 6
#     Node 38, Type 0, BuildingBlock: KUMJIN_clean_sbu_0, # of connection points: 6
#     Node 39, Type 0, BuildingBlock: KUMJIN_clean_sbu_0, # of connection points: 6
#     Node 40, Type 0, BuildingBlock: KUMJIN_clean_sbu_0, # of connection points: 6
#     Node 41, Type 0, BuildingBlock: KUMJIN_clean_sbu_0, # of connection points: 6
#     Node 42, Type 0, BuildingBlock: KUMJIN_clean_sbu_0, # of connection points: 6
#     Node 43, Type 0, BuildingBlock: KUMJIN_clean_sbu_0, # of connection points: 6
#     Node 44, Type 0, BuildingBlock: KUMJIN_clean_sbu_0, # of connection points: 6
#     Node 45, Type 0, BuildingBlock: KUMJIN_clean_sbu_0, # of connection points: 6
#     Node 46, Type 0, BuildingBlock: KUMJIN_clean_sbu_0, # of connection points: 6
#     Node 47, Type 0, BuildingBlock: KUMJIN_clean_sbu_0, # of connection points: 6
#     Edge 48, Type (0, 0), BuildingBlock: XUDNAN_clean_linker_2, # of connection points: 2
#     Edge 49, Type (0, 0), BuildingBlock: XUDNAN_clean_linker_2, # of connection points: 2
#     Edge 50, Type (0, 0), BuildingBlock: XUDNAN_clean_linker_2, # of connection points: 2
#     Edge 51, Type (0, 0), BuildingBlock: XUDNAN_clean_linker_2, # of connection points: 2
#     Edge 52, Type (0, 0), BuildingBlock: XUDNAN_clean_linker_2, # of connection points: 2
#     Edge 53, Type (0, 0), BuildingBlock: XUDNAN_clean_linker_2, # of connection points: 2
#     Edge 54, Type (0, 0), BuildingBlock: XUDNAN_clean_linker_2, # of connection points: 2
#     Edge 55, Type (0, 0), BuildingBlock: XUDNAN_clean_linker_2, # of connection points: 2
#     Edge 56, Type (0, 0), BuildingBlock: XUDNAN_clean_linker_2, # of connection points: 2
#     Edge 57, Type (0, 0), BuildingBlock: XUDNAN_clean_linker_2, # of connection points: 2
#     Edge 58, Type (0, 0), BuildingBlock: XUDNAN_clean_linker_2, # of connection points: 2
#     Edge 59, Type (0, 0), BuildingBlock: XUDNAN_clean_linker_2, # of connection points: 2
#     Edge 60, Type (0, 0), BuildingBlock: XUDNAN_clean_linker_2, # of connection points: 2
#     Edge 61, Type (0, 0), BuildingBlock: XUDNAN_clean_linker_2, # of connection points: 2
#     Edge 62, Type (0, 0), BuildingBlock: XUDNAN_clean_linker_2, # of connection points: 2
#     Edge 63, Type (0, 0), BuildingBlock: XUDNAN_clean_linker_2, # of connection points: 2
#     Edge 64, Type (0, 0), BuildingBlock: XUDNAN_clean_linker_2, # of connection points: 2
#     Edge 65, Type (0, 0), BuildingBlock: XUDNAN_clean_linker_2, # of connection points: 2
#     Edge 66, Type (0, 0), BuildingBlock: XUDNAN_clean_linker_2, # of connection points: 2
#     Edge 67, Type (0, 0), BuildingBlock: XUDNAN_clean_linker_2, # of connection points: 2
#     Edge 68, Type (0, 0), BuildingBlock: XUDNAN_clean_linker_2, # of connection points: 2
#     Edge 69, Type (0, 0), BuildingBlock: XUDNAN_clean_linker_2, # of connection points: 2
#     Edge 70, Type (0, 0), BuildingBlock: XUDNAN_clean_linker_2, # of connection points: 2
#     Edge 71, Type (0, 0), BuildingBlock: XUDNAN_clean_linker_2, # of connection points: 2
#     Edge 72, Type (0, 0), BuildingBlock: XUDNAN_clean_linker_2, # of connection points: 2
#     Edge 73, Type (0, 0), BuildingBlock: XUDNAN_clean_linker_2, # of connection points: 2
#     Edge 74, Type (0, 0), BuildingBlock: XUDNAN_clean_linker_2, # of connection points: 2
#     Edge 75, Type (0, 0), BuildingBlock: XUDNAN_clean_linker_2, # of connection points: 2
#     Edge 76, Type (0, 0), BuildingBlock: XUDNAN_clean_linker_2, # of connection points: 2
#     Edge 77, Type (0, 0), BuildingBlock: XUDNAN_clean_linker_2, # of connection points: 2
#     Edge 78, Type (0, 0), BuildingBlock: XUDNAN_clean_linker_2, # of connection points: 2
#     Edge 79, Type (0, 0), BuildingBlock: XUDNAN_clean_linker_2, # of connection points: 2
#     Edge 80, Type (0, 0), BuildingBlock: XUDNAN_clean_linker_2, # of connection points: 2
#     Edge 81, Type (0, 0), BuildingBlock: XUDNAN_clean_linker_2, # of connection points: 2
#     Edge 82, Type (0, 0), BuildingBlock: XUDNAN_clean_linker_2, # of connection points: 2
#     Edge 83, Type (0, 0), BuildingBlock: XUDNAN_clean_linker_2, # of connection points: 2
#     Edge 84, Type (0, 0), BuildingBlock: XUDNAN_clean_linker_2, # of connection points: 2
#     Edge 85, Type (0, 0), BuildingBlock: XUDNAN_clean_linker_2, # of connection points: 2
#     Edge 86, Type (0, 0), BuildingBlock: XUDNAN_clean_linker_2, # of connection points: 2
#     Edge 87, Type (0, 0), BuildingBlock: XUDNAN_clean_linker_2, # of connection points: 2
#     Edge 88, Type (0, 0), BuildingBlock: XUDNAN_clean_linker_2, # of connection points: 2
#     Edge 89, Type (0, 0), BuildingBlock: XUDNAN_clean_linker_2, # of connection points: 2
#     Edge 90, Type (0, 0), BuildingBlock: XUDNAN_clean_linker_2, # of connection points: 2
#     Edge 91, Type (0, 0), BuildingBlock: XUDNAN_clean_linker_2, # of connection points: 2
#     Edge 92, Type (0, 0), BuildingBlock: XUDNAN_clean_linker_2, # of connection points: 2
#     Edge 93, Type (0, 0), BuildingBlock: XUDNAN_clean_linker_2, # of connection points: 2
#     Edge 94, Type (0, 0), BuildingBlock: XUDNAN_clean_linker_2, # of connection points: 2
#     Edge 95, Type (0, 0), BuildingBlock: XUDNAN_clean_linker_2, # of connection points: 2
#     Edge 96, Type (0, 0), BuildingBlock: XUDNAN_clean_linker_2, # of connection points: 2
#     Edge 97, Type (0, 0), BuildingBlock: XUDNAN_clean_linker_2, # of connection points: 2
#     Edge 98, Type (0, 0), BuildingBlock: XUDNAN_clean_linker_2, # of connection points: 2
#     Edge 99, Type (0, 0), BuildingBlock: XUDNAN_clean_linker_2, # of connection points: 2
#     Edge 100, Type (0, 0), BuildingBlock: XUDNAN_clean_linker_2, # of connection points: 2
#     Edge 101, Type (0, 0), BuildingBlock: XUDNAN_clean_linker_2, # of connection points: 2
#     Edge 102, Type (0, 0), BuildingBlock: XUDNAN_clean_linker_2, # of connection points: 2
#     Edge 103, Type (0, 0), BuildingBlock: XUDNAN_clean_linker_2, # of connection points: 2
#     Edge 104, Type (0, 0), BuildingBlock: XUDNAN_clean_linker_2, # of connection points: 2
#     Edge 105, Type (0, 0), BuildingBlock: XUDNAN_clean_linker_2, # of connection points: 2
#     Edge 106, Type (0, 0), BuildingBlock: XUDNAN_clean_linker_2, # of connection points: 2
#     Edge 107, Type (0, 0), BuildingBlock: XUDNAN_clean_linker_2, # of connection points: 2
#     Edge 108, Type (0, 0), BuildingBlock: XUDNAN_clean_linker_2, # of connection points: 2
#     Edge 109, Type (0, 0), BuildingBlock: XUDNAN_clean_linker_2, # of connection points: 2
#     Edge 110, Type (0, 0), BuildingBlock: XUDNAN_clean_linker_2, # of connection points: 2
#     Edge 111, Type (0, 0), BuildingBlock: XUDNAN_clean_linker_2, # of connection points: 2
#     Edge 112, Type (0, 0), BuildingBlock: XUDNAN_clean_linker_2, # of connection points: 2
#     Edge 113, Type (0, 0), BuildingBlock: XUDNAN_clean_linker_2, # of connection points: 2
#     Edge 114, Type (0, 0), BuildingBlock: XUDNAN_clean_linker_2, # of connection points: 2
#     Edge 115, Type (0, 0), BuildingBlock: XUDNAN_clean_linker_2, # of connection points: 2
#     Edge 116, Type (0, 0), BuildingBlock: XUDNAN_clean_linker_2, # of connection points: 2
#     Edge 117, Type (0, 0), BuildingBlock: XUDNAN_clean_linker_2, # of connection points: 2
#     Edge 118, Type (0, 0), BuildingBlock: XUDNAN_clean_linker_2, # of connection points: 2
#     Edge 119, Type (0, 0), BuildingBlock: XUDNAN_clean_linker_2, # of connection points: 2
#     Edge 120, Type (0, 0), BuildingBlock: XUDNAN_clean_linker_2, # of connection points: 2
#     Edge 121, Type (0, 0), BuildingBlock: XUDNAN_clean_linker_2, # of connection points: 2
#     Edge 122, Type (0, 0), BuildingBlock: XUDNAN_clean_linker_2, # of connection points: 2
#     Edge 123, Type (0, 0), BuildingBlock: XUDNAN_clean_linker_2, # of connection points: 2
#     Edge 124, Type (0, 0), BuildingBlock: XUDNAN_clean_linker_2, # of connection points: 2
#     Edge 125, Type (0, 0), BuildingBlock: XUDNAN_clean_linker_2, # of connection points: 2
#     Edge 126, Type (0, 0), BuildingBlock: XUDNAN_clean_linker_2, # of connection points: 2
#     Edge 127, Type (0, 0), BuildingBlock: XUDNAN_clean_linker_2, # of connection points: 2
#     Edge 128, Type (0, 0), BuildingBlock: XUDNAN_clean_linker_2, # of connection points: 2
#     Edge 129, Type (0, 0), BuildingBlock: XUDNAN_clean_linker_2, # of connection points: 2
#     Edge 130, Type (0, 0), BuildingBlock: XUDNAN_clean_linker_2, # of connection points: 2
#     Edge 131, Type (0, 0), BuildingBlock: XUDNAN_clean_linker_2, # of connection points: 2
#     Edge 132, Type (0, 0), BuildingBlock: XUDNAN_clean_linker_2, # of connection points: 2
#     Edge 133, Type (0, 0), BuildingBlock: XUDNAN_clean_linker_2, # of connection points: 2
#     Edge 134, Type (0, 0), BuildingBlock: XUDNAN_clean_linker_2, # of connection points: 2
#     Edge 135, Type (0, 0), BuildingBlock: XUDNAN_clean_linker_2, # of connection points: 2
#     Edge 136, Type (0, 0), BuildingBlock: XUDNAN_clean_linker_2, # of connection points: 2
#     Edge 137, Type (0, 0), BuildingBlock: XUDNAN_clean_linker_2, # of connection points: 2
#     Edge 138, Type (0, 0), BuildingBlock: XUDNAN_clean_linker_2, # of connection points: 2
#     Edge 139, Type (0, 0), BuildingBlock: XUDNAN_clean_linker_2, # of connection points: 2
#     Edge 140, Type (0, 0), BuildingBlock: XUDNAN_clean_linker_2, # of connection points: 2
#     Edge 141, Type (0, 0), BuildingBlock: XUDNAN_clean_linker_2, # of connection points: 2
#     Edge 142, Type (0, 0), BuildingBlock: XUDNAN_clean_linker_2, # of connection points: 2
#     Edge 143, Type (0, 0), BuildingBlock: XUDNAN_clean_linker_2, # of connection points: 2
#     Edge 144, Type (0, 0), BuildingBlock: XUDNAN_clean_linker_2, # of connection points: 2
#     Edge 145, Type (0, 0), BuildingBlock: XUDNAN_clean_linker_2, # of connection points: 2
#     Edge 146, Type (0, 0), BuildingBlock: XUDNAN_clean_linker_2, # of connection points: 2
#     Edge 147, Type (0, 0), BuildingBlock: XUDNAN_clean_linker_2, # of connection points: 2
#     Edge 148, Type (0, 0), BuildingBlock: XUDNAN_clean_linker_2, # of connection points: 2
#     Edge 149, Type (0, 0), BuildingBlock: XUDNAN_clean_linker_2, # of connection points: 2
#     Edge 150, Type (0, 0), BuildingBlock: XUDNAN_clean_linker_2, # of connection points: 2
#     Edge 151, Type (0, 0), BuildingBlock: XUDNAN_clean_linker_2, # of connection points: 2
#     Edge 152, Type (0, 0), BuildingBlock: XUDNAN_clean_linker_2, # of connection points: 2
#     Edge 153, Type (0, 0), BuildingBlock: XUDNAN_clean_linker_2, # of connection points: 2
#     Edge 154, Type (0, 0), BuildingBlock: XUDNAN_clean_linker_2, # of connection points: 2
#     Edge 155, Type (0, 0), BuildingBlock: XUDNAN_clean_linker_2, # of connection points: 2
#     Edge 156, Type (0, 0), BuildingBlock: XUDNAN_clean_linker_2, # of connection points: 2
#     Edge 157, Type (0, 0), BuildingBlock: XUDNAN_clean_linker_2, # of connection points: 2
#     Edge 158, Type (0, 0), BuildingBlock: XUDNAN_clean_linker_2, # of connection points: 2
#     Edge 159, Type (0, 0), BuildingBlock: XUDNAN_clean_linker_2, # of connection points: 2
#     Edge 160, Type (0, 0), BuildingBlock: XUDNAN_clean_linker_2, # of connection points: 2
#     Edge 161, Type (0, 0), BuildingBlock: XUDNAN_clean_linker_2, # of connection points: 2
#     Edge 162, Type (0, 0), BuildingBlock: XUDNAN_clean_linker_2, # of connection points: 2
#     Edge 163, Type (0, 0), BuildingBlock: XUDNAN_clean_linker_2, # of connection points: 2
#     Edge 164, Type (0, 0), BuildingBlock: XUDNAN_clean_linker_2, # of connection points: 2
#     Edge 165, Type (0, 0), BuildingBlock: XUDNAN_clean_linker_2, # of connection points: 2
#     Edge 166, Type (0, 0), BuildingBlock: XUDNAN_clean_linker_2, # of connection points: 2
#     Edge 167, Type (0, 0), BuildingBlock: XUDNAN_clean_linker_2, # of connection points: 2
#     Edge 168, Type (0, 0), BuildingBlock: XUDNAN_clean_linker_2, # of connection points: 2
#     Edge 169, Type (0, 0), BuildingBlock: XUDNAN_clean_linker_2, # of connection points: 2
#     Edge 170, Type (0, 0), BuildingBlock: XUDNAN_clean_linker_2, # of connection points: 2
#     Edge 171, Type (0, 0), BuildingBlock: XUDNAN_clean_linker_2, # of connection points: 2
#     Edge 172, Type (0, 0), BuildingBlock: XUDNAN_clean_linker_2, # of connection points: 2
#     Edge 173, Type (0, 0), BuildingBlock: XUDNAN_clean_linker_2, # of connection points: 2
#     Edge 174, Type (0, 0), BuildingBlock: XUDNAN_clean_linker_2, # of connection points: 2
#     Edge 175, Type (0, 0), BuildingBlock: XUDNAN_clean_linker_2, # of connection points: 2
#     Edge 176, Type (0, 0), BuildingBlock: XUDNAN_clean_linker_2, # of connection points: 2
#     Edge 177, Type (0, 0), BuildingBlock: XUDNAN_clean_linker_2, # of connection points: 2
#     Edge 178, Type (0, 0), BuildingBlock: XUDNAN_clean_linker_2, # of connection points: 2
#     Edge 179, Type (0, 0), BuildingBlock: XUDNAN_clean_linker_2, # of connection points: 2
#     Edge 180, Type (0, 0), BuildingBlock: XUDNAN_clean_linker_2, # of connection points: 2
#     Edge 181, Type (0, 0), BuildingBlock: XUDNAN_clean_linker_2, # of connection points: 2
#     Edge 182, Type (0, 0), BuildingBlock: XUDNAN_clean_linker_2, # of connection points: 2
#     Edge 183, Type (0, 0), BuildingBlock: XUDNAN_clean_linker_2, # of connection points: 2
#     Edge 184, Type (0, 0), BuildingBlock: XUDNAN_clean_linker_2, # of connection points: 2
#     Edge 185, Type (0, 0), BuildingBlock: XUDNAN_clean_linker_2, # of connection points: 2
#     Edge 186, Type (0, 0), BuildingBlock: XUDNAN_clean_linker_2, # of connection points: 2
#     Edge 187, Type (0, 0), BuildingBlock: XUDNAN_clean_linker_2, # of connection points: 2
#     Edge 188, Type (0, 0), BuildingBlock: XUDNAN_clean_linker_2, # of connection points: 2
#     Edge 189, Type (0, 0), BuildingBlock: XUDNAN_clean_linker_2, # of connection points: 2
#     Edge 190, Type (0, 0), BuildingBlock: XUDNAN_clean_linker_2, # of connection points: 2
#     Edge 191, Type (0, 0), BuildingBlock: XUDNAN_clean_linker_2, # of connection points: 2
# Relax obj value: 0.211
# Max RMSD: 0.192
# Mean RMSD: 0.190
data_MOF--net-lcs-e--node1-KUMJIN_clean_sbu_0--edge1-XUDNAN_clean_linker_2
_symmetry_space_group_name_H-M    P1
_symmetry_Int_Tables_number       1
_symmetry_cell_setting            triclinic
loop_
_symmetry_equiv_pos_as_xyz
'x, y, z'
_cell_length_a     65.37341
_cell_length_b     65.473937
_cell_length_c     65.558715
_cell_angle_alpha  89.904596
_cell_angle_beta   90.298211
_cell_angle_gamma 90.252584
loop_
_atom_site_label
_atom_site_type_symbol
_atom_site_fract_x
_atom_site_fract_y
_atom_site_fract_z
_atom_type_partial_charge
Eu0 Eu 0.02886 0.40958 0.3126 0.0
C1 C 0.09553 0.36613 0.27609 0.0
C2 C 0.12482 0.37248 0.29795 0.0
C3 C 0.11907 0.33859 0.28397 0.0
C4 C 0.10673 0.37939 0.28836 0.0
C5 C 0.10249 0.3461 0.27259 0.0
C6 C 0.13013 0.35174 0.2968 0.0
C7 C 0.07888 0.34389 0.24417 0.0
N8 N 0.07931 0.3736 0.26558 0.0
C9 C 0.07215 0.36362 0.24857 0.0
C10 C 0.09349 0.33474 0.25681 0.0
Eu11 Eu 0.06693 0.40562 0.27693 0.0
N12 N 0.10142 0.39949 0.28872 0.0
C13 C 0.11591 0.41369 0.2944 0.0
C14 C 0.13778 0.38684 0.30713 0.0
C15 C 0.13375 0.4076 0.30456 0.0
H16 H 0.06022 0.37041 0.23932 0.0
H17 H 0.14446 0.41892 0.31023 0.0
H18 H 0.14362 0.34606 0.30459 0.0
H19 H 0.07248 0.33561 0.23136 0.0
H20 H 0.11346 0.42984 0.29194 0.0
H21 H 0.99287 0.39269 0.23913 0.0
H22 H 0.15171 0.38215 0.3148 0.0
H23 H 1.02349 0.45028 0.34297 0.0
H24 H 1.01937 0.38987 0.26574 0.0
H25 H 0.99885 0.47836 0.34757 0.0
H26 H 0.1242 0.323 0.28204 0.0
H27 H 0.96513 0.41801 0.24273 0.0
H28 H 0.94955 0.44666 0.26277 0.0
H29 H 0.09853 0.31936 0.25352 0.0
H30 H 0.95106 0.46981 0.29229 0.0
N31 N 1.00648 0.41269 0.28461 0.0
C32 C 1.00723 0.40065 0.2677 0.0
C33 C 0.97668 0.4167 0.25456 0.0
C34 C 0.97644 0.4295 0.27165 0.0
C35 C 0.9923 0.40238 0.25248 0.0
C36 C 0.99185 0.42719 0.28656 0.0
H37 H 0.96957 0.48198 0.32376 0.0
N38 N 1.00881 0.43883 0.31627 0.0
C39 C 0.99702 0.46784 0.33497 0.0
C40 C 0.99283 0.4404 0.30307 0.0
C41 C 1.01112 0.45211 0.33214 0.0
C42 C 0.98041 0.46973 0.32158 0.0
C43 C 0.97822 0.45601 0.30531 0.0
O44 O 1.02336 0.4095 0.34522 0.0
O45 O 0.05507 0.39099 0.30399 0.0
O46 O 0.04933 0.37155 0.27922 0.0
O47 O 1.02459 0.37397 0.30353 0.0
O48 O 0.05469 0.40111 0.33396 0.0
O49 O 1.00198 0.39392 0.32513 0.0
O50 O 0.05569 0.41352 0.24593 0.0
O51 O 0.04076 0.42911 0.28495 0.0
O52 O 0.05174 0.43403 0.32302 0.0
O53 O 0.07963 0.42519 0.3027 0.0
O54 O 0.06778 0.44139 0.27511 0.0
O55 O 0.08761 0.40573 0.25191 0.0
C56 C 0.06444 0.39031 0.32088 0.0
C57 C 0.99058 0.40379 0.35814 0.0
C58 C 0.97543 0.39902 0.39164 0.0
C59 C 0.98971 0.39336 0.37681 0.0
C60 C 0.96258 0.41584 0.38773 0.0
C61 C 0.97693 0.4197 0.35409 0.0
C62 C 0.96323 0.42594 0.369 0.0
C63 C 0.03461 0.36174 0.29037 0.0
C64 C 1.00681 0.39849 0.34393 0.0
C65 C 0.96242 0.4579 0.29085 0.0
C66 C 0.96157 0.44473 0.27403 0.0
C67 C 0.04977 0.44728 0.28122 0.0
C68 C 0.08277 0.42968 0.22608 0.0
C69 C 0.1032 0.43647 0.22896 0.0
C70 C 0.11222 0.45024 0.21533 0.0
C71 C 0.10066 0.45774 0.19891 0.0
C72 C 0.07148 0.43731 0.20955 0.0
C73 C 0.08038 0.45136 0.19612 0.0
C74 C 0.07123 0.43576 0.31768 0.0
C75 C 0.07448 0.41284 0.23874 0.0
H76 H 0.99985 0.38057 0.37953 0.0
H77 H 0.95171 0.42096 0.39901 0.0
H78 H 0.97687 0.42734 0.33955 0.0
H79 H 0.95298 0.43854 0.36599 0.0
H80 H 0.11245 0.43073 0.24148 0.0
H81 H 0.10741 0.46835 0.18815 0.0
H82 H 0.05597 0.43208 0.20678 0.0
H83 H 0.07163 0.45706 0.18327 0.0
Eu84 Eu 0.90233 0.77433 0.5625 0.0
C85 C 0.94778 0.84241 0.52658 0.0
C86 C 0.94441 0.87202 0.54836 0.0
C87 C 0.97664 0.86545 0.53136 0.0
C88 C 0.93601 0.85407 0.53975 0.0
C89 C 0.96771 0.84873 0.52131 0.0
C90 C 0.96504 0.877 0.54499 0.0
C91 C 0.96734 0.82361 0.49428 0.0
N92 N 0.93894 0.82618 0.51717 0.0
C93 C 0.94764 0.8178 0.50012 0.0
C94 C 0.97765 0.83876 0.50529 0.0
Eu95 Eu 0.90719 0.81545 0.53078 0.0
N96 N 0.91582 0.84929 0.54209 0.0
C97 C 0.9028 0.86374 0.54968 0.0
C98 C 0.93153 0.88517 0.55898 0.0
C99 C 0.91056 0.88137 0.55904 0.0
H100 H 0.93986 0.80561 0.49204 0.0
H101 H 0.90042 0.89218 0.56619 0.0
H102 H 0.9718 0.89049 0.55186 0.0
H103 H 0.97461 0.8163 0.48145 0.0
H104 H 0.88643 0.86161 0.54904 0.0
H105 H 0.91383 0.74446 0.48583 0.0
H106 H 0.93742 0.89899 0.56598 0.0
H107 H 0.86239 0.77001 0.59436 0.0
H108 H 0.9229 0.76419 0.51654 0.0
H109 H 0.82819 0.75384 0.59437 0.0
H110 H 0.99214 0.8702 0.52793 0.0
H111 H 0.88067 0.72619 0.48399 0.0
H112 H 0.8471 0.71742 0.5003 0.0
H113 H 0.99291 0.84328 0.50072 0.0
H114 H 0.82373 0.72042 0.5294 0.0
N115 N 0.89559 0.75648 0.53225 0.0
C116 C 0.90865 0.75591 0.51614 0.0
C117 C 0.8847 0.73461 0.49765 0.0
C118 C 0.8712 0.73559 0.51414 0.0
C119 C 0.90345 0.74489 0.49863 0.0
C120 C 0.87714 0.74676 0.53155 0.0
H121 H 0.81649 0.73401 0.56437 0.0
N122 N 0.86942 0.76019 0.56429 0.0
C123 C 0.83794 0.75246 0.58115 0.0
C124 C 0.86373 0.7487 0.54796 0.0
C125 C 0.85718 0.76182 0.58099 0.0
C126 C 0.83144 0.7412 0.56422 0.0
C127 C 0.84439 0.73912 0.5474 0.0
O128 O 0.90776 0.76592 0.59377 0.0
O129 O 0.92163 0.80078 0.55643 0.0
O130 O 0.9414 0.79895 0.53391 0.0
O131 O 0.93748 0.76926 0.5517 0.0
O132 O 0.9126 0.79679 0.58657 0.0
O133 O 0.90949 0.74242 0.57077 0.0
O134 O 0.89816 0.80319 0.50062 0.0
O135 O 0.88326 0.78926 0.53642 0.0
O136 O 0.8805 0.79785 0.57655 0.0
O137 O 0.88903 0.82716 0.55775 0.0
O138 O 0.87138 0.81777 0.53172 0.0
O139 O 0.90609 0.83533 0.505 0.0
C140 C 0.92295 0.80806 0.57424 0.0
C141 C 0.90287 0.73318 0.60562 0.0
C142 C 0.90582 0.72213 0.6408 0.0
C143 C 0.91403 0.73189 0.62378 0.0
C144 C 0.88625 0.71336 0.63962 0.0
C145 C 0.88346 0.72413 0.60424 0.0
C146 C 0.87515 0.71431 0.62131 0.0
C147 C 0.95044 0.78186 0.54159 0.0
C148 C 0.91106 0.74682 0.59009 0.0
C149 C 0.83857 0.72781 0.53013 0.0
C150 C 0.85191 0.72607 0.51357 0.0
C151 C 0.86539 0.79907 0.53564 0.0
C152 C 0.87993 0.82918 0.48155 0.0
C153 C 0.87437 0.84996 0.483 0.0
C154 C 0.85911 0.8581 0.47051 0.0
C155 C 0.84873 0.84528 0.45677 0.0
C156 C 0.86921 0.81646 0.468 0.0
C157 C 0.85355 0.82449 0.4558 0.0
C158 C 0.87903 0.81775 0.57267 0.0
C159 C 0.89807 0.82174 0.49281 0.0
H160 H 0.92915 0.73879 0.6248 0.0
H161 H 0.87991 0.7053 0.65258 0.0
H162 H 0.8747 0.72486 0.59023 0.0
H163 H 0.86011 0.70739 0.62034 0.0
H164 H 0.8826 0.8603 0.49304 0.0
H165 H 0.83713 0.85141 0.44665 0.0
H166 H 0.87323 0.8005 0.46654 0.0
H167 H 0.84549 0.81468 0.44516 0.0
Eu168 Eu 0.4938 0.65642 0.77511 0.0
C169 C 0.53312 0.61243 0.84218 0.0
C170 C 0.5121 0.61489 0.87247 0.0
C171 C 0.52986 0.58327 0.86494 0.0
C172 C 0.51967 0.62357 0.85428 0.0
C173 C 0.53911 0.5926 0.84804 0.0
C174 C 0.51632 0.59437 0.8771 0.0
C175 C 0.56537 0.59389 0.82219 0.0
N176 N 0.54181 0.62165 0.82575 0.0
C177 C 0.55896 0.61353 0.81691 0.0
C178 C 0.555 0.58313 0.8374 0.0
Eu179 Eu 0.52694 0.65336 0.81661 0.0
N180 N 0.51626 0.64361 0.84978 0.0
C181 C 0.50945 0.65643 0.86465 0.0
C182 C 0.50183 0.62749 0.88622 0.0
C183 C 0.50129 0.64852 0.8827 0.0
H184 H 0.56655 0.62149 0.8046 0.0
H185 H 0.49499 0.65865 0.89406 0.0
H186 H 0.51021 0.58734 0.89076 0.0
H187 H 0.57815 0.587 0.8144 0.0
H188 H 0.51052 0.67277 0.86269 0.0
H189 H 0.57234 0.64608 0.74997 0.0
H190 H 0.49575 0.62141 0.90034 0.0
H191 H 0.45973 0.69266 0.76482 0.0
H192 H 0.54115 0.63749 0.76924 0.0
H193 H 0.45777 0.72425 0.74398 0.0
H194 H 0.53389 0.56784 0.86935 0.0
H195 H 0.5731 0.67691 0.72807 0.0
H196 H 0.55508 0.70804 0.7146 0.0
H197 H 0.56 0.56789 0.84144 0.0
H198 H 0.52423 0.72944 0.71331 0.0
N199 N 0.52433 0.66272 0.75778 0.0
C200 C 0.5412 0.65069 0.75943 0.0
C201 C 0.55931 0.6731 0.73636 0.0
C202 C 0.54199 0.68559 0.7351 0.0
C203 C 0.55894 0.65565 0.74867 0.0
C204 C 0.52447 0.67998 0.74622 0.0
H205 H 0.48795 0.73569 0.72427 0.0
N206 N 0.49067 0.68689 0.75703 0.0
C207 C 0.47175 0.71546 0.74441 0.0
C208 C 0.50716 0.69234 0.74579 0.0
C209 C 0.47289 0.69768 0.7562 0.0
C210 C 0.48883 0.72185 0.7333 0.0
C211 C 0.50678 0.71019 0.73378 0.0
O212 O 0.46198 0.65175 0.76735 0.0
O213 O 0.5005 0.63896 0.8026 0.0
O214 O 0.52361 0.61877 0.80112 0.0
O215 O 0.50503 0.62137 0.77162 0.0
O216 O 0.46998 0.64696 0.79816 0.0
O217 O 0.48513 0.6449 0.74478 0.0
O218 O 0.55962 0.6591 0.80797 0.0
O219 O 0.51796 0.67675 0.79124 0.0
O220 O 0.48208 0.68057 0.79732 0.0
O221 O 0.49953 0.67148 0.82755 0.0
O222 O 0.53251 0.689 0.81507 0.0
O223 O 0.54775 0.66018 0.83986 0.0
C224 C 0.48268 0.63755 0.80989 0.0
C225 C 0.45079 0.65157 0.7337 0.0
C226 C 0.41539 0.64896 0.72202 0.0
C227 C 0.43185 0.64157 0.73368 0.0
C228 C 0.41855 0.66666 0.71009 0.0
C229 C 0.45397 0.66847 0.72104 0.0
C230 C 0.43779 0.67607 0.70938 0.0
C231 C 0.51533 0.60906 0.78464 0.0
C232 C 0.46565 0.64514 0.74907 0.0
C233 C 0.52419 0.71573 0.72258 0.0
C234 C 0.54175 0.7035 0.72327 0.0
C235 C 0.52432 0.69505 0.79803 0.0
C236 C 0.58277 0.66849 0.83724 0.0
C237 C 0.58227 0.67488 0.8577 0.0
C238 C 0.60015 0.67965 0.86838 0.0
C239 C 0.61899 0.67818 0.85824 0.0
C240 C 0.60156 0.66723 0.82722 0.0
C241 C 0.61963 0.67212 0.83774 0.0
C242 C 0.4854 0.6821 0.81737 0.0
C243 C 0.56342 0.6621 0.82763 0.0
H244 H 0.43014 0.62799 0.74299 0.0
H245 H 0.40625 0.67338 0.70131 0.0
H246 H 0.46871 0.67602 0.72049 0.0
H247 H 0.44006 0.68947 0.69996 0.0
H248 H 0.56786 0.6756 0.86576 0.0
H249 H 0.63316 0.68188 0.86606 0.0
H250 H 0.60229 0.66221 0.81151 0.0
H251 H 0.63419 0.67105 0.83005 0.0
Eu252 Eu 0.66373 0.28415 0.05761 0.0
C253 C 0.62046 0.2185 1.0083 0.0
C254 C 0.61941 0.18462 1.02348 0.0
C255 C 0.59313 0.19473 0.99925 0.0
C256 C 0.62901 0.2039 1.02142 0.0
C257 C 0.60266 0.21379 0.99688 0.0
C258 C 0.60141 0.18025 1.01257 0.0
C259 C 0.60516 0.24687 0.98067 0.0
N260 N 0.62958 0.23711 1.00637 0.0
C261 C 0.62266 0.25097 0.99223 0.0
C262 C 0.595 0.22829 0.98314 0.0
Eu263 Eu 0.65922 0.24204 1.02662 0.0
N264 N 0.64669 0.20826 0.0318 0.0
C265 C 0.65608 0.19338 0.04315 0.0
C266 C 0.62827 0.17003 0.03628 0.0
C267 C 0.64674 0.17436 0.04598 0.0
H268 H 0.63038 0.26545 0.99033 0.0
H269 H 0.6539 0.16287 0.05546 0.0
H270 H 0.59391 0.16554 1.01407 0.0
H271 H 0.59954 0.25804 0.96985 0.0
H272 H 0.6709 0.19567 0.04996 0.0
H273 H 0.6408 0.3157 0.98388 0.0
H274 H 0.62124 0.15516 0.03837 0.0
H275 H 0.70891 0.28699 0.08225 0.0
H276 H 0.6387 0.29187 1.01284 0.0
H277 H 0.73984 0.30868 0.08117 0.0
H278 H 0.57942 0.19095 0.99068 0.0
H279 H 0.6692 0.34076 0.98215 0.0
H280 H 0.70164 0.35488 0.99743 0.0
H281 H 0.58141 0.22516 0.97413 0.0
H282 H 0.72837 0.35313 1.02393 0.0
N283 N 0.66541 0.30331 1.02745 0.0
C284 C 0.65108 0.30266 1.01231 0.0
C285 C 0.66835 0.33026 0.99491 0.0
C286 C 0.68334 0.33041 1.01025 0.0
C287 C 0.6523 0.31614 0.99582 0.0
C288 C 0.68156 0.31639 1.02647 0.0
H289 H 0.74301 0.33564 0.05485 0.0
N290 N 0.69545 0.30063 0.05597 0.0
C291 C 0.7279 0.31063 0.06984 0.0
C292 C 0.69683 0.31524 0.04133 0.0
C293 C 0.71052 0.29813 0.0702 0.0
C294 C 0.72955 0.32594 0.05506 0.0
C295 C 0.71397 0.32833 0.04049 0.0
O296 O 0.66798 0.29463 0.08827 0.0
O297 O 0.64616 0.2566 0.05306 0.0
O298 O 0.62388 0.25582 0.03144 0.0
O299 O 0.62779 0.28639 0.04837 0.0
O300 O 0.6512 0.26502 0.08306 0.0
O301 O 0.65142 0.31415 0.06675 0.0
O302 O 0.6665 0.25263 0.99562 0.0
O303 O 0.68241 0.26909 0.03193 0.0
O304 O 0.68499 0.25966 0.07205 0.0
O305 O 0.67397 0.22991 0.05517 0.0
O306 O 0.69461 0.24017 0.03029 0.0
O307 O 0.67358 0.2214 1.00596 0.0
C308 C 0.64273 0.25158 0.07146 0.0
C309 C 0.66354 0.3283 0.09871 0.0
C310 C 0.65801 0.33812 0.13399 0.0
C311 C 0.65047 0.33122 0.11511 0.0
C312 C 0.67828 0.34562 0.13481 0.0
C313 C 0.68357 0.33582 0.0996 0.0
C314 C 0.69068 0.34509 0.11747 0.0
C315 C 0.61481 0.27288 0.03931 0.0
C316 C 0.65785 0.31144 0.08545 0.0
C317 C 0.71535 0.34288 1.02479 0.0
C318 C 0.70013 0.34386 1.00968 0.0
C319 C 0.70013 0.25916 0.03216 0.0
C320 C 0.66675 0.22469 0.9713 0.0
C321 C 0.67409 0.20501 0.96673 0.0
C322 C 0.66666 0.19413 0.94978 0.0
C323 C 0.65131 0.20329 0.93766 0.0
C324 C 0.6529 0.23408 0.95795 0.0
C325 C 0.64487 0.22321 0.94149 0.0
C326 C 0.68467 0.23939 0.06961 0.0
C327 C 0.67322 0.23428 0.99061 0.0
H328 H 0.63481 0.32607 0.11341 0.0
H329 H 0.68499 0.35123 0.14882 0.0
H330 H 0.69391 0.33361 0.087 0.0
H331 H 0.70628 0.35064 0.11831 0.0
H332 H 0.68579 0.19835 0.9764 0.0
H333 H 0.64437 0.19524 0.92498 0.0
H334 H 0.64799 0.24963 0.96036 0.0
H335 H 0.63356 0.23024 0.93165 0.0
Eu336 Eu 1.02369 0.65167 0.24757 0.0
C337 C 0.09626 0.69152 0.28103 0.0
C338 C 0.12622 0.68008 0.26315 0.0
C339 C 0.12323 0.71574 0.27265 0.0
C340 C 0.10672 0.67611 0.27141 0.0
C341 C 0.10509 0.71112 0.28307 0.0
C342 C 0.1338 0.70019 0.26261 0.0
C343 C 0.08046 0.71825 0.30936 0.0
N344 N 0.07911 0.68636 0.29125 0.0
C345 C 0.07239 0.69861 0.30682 0.0
C346 C 0.09638 0.72484 0.29683 0.0
Eu347 Eu 0.06339 0.65479 0.2813 0.0
N348 N 0.09916 0.65678 0.27289 0.0
C349 C 0.11201 0.6406 0.26976 0.0
C350 C 0.13814 0.66359 0.2571 0.0
C351 C 0.13131 0.64382 0.26108 0.0
H352 H 0.0597 0.69371 0.3162 0.0
H353 H 0.14109 0.63124 0.25742 0.0
H354 H 0.14848 0.70358 0.25578 0.0
H355 H 0.07429 0.72831 0.32085 0.0
H356 H 0.10688 0.62518 0.27275 0.0
H357 H 0.99112 0.66668 0.32258 0.0
H358 H 0.1532 0.66593 0.25064 0.0
H359 H 1.01995 0.61027 0.21749 0.0
H360 H 1.01318 0.67342 0.29315 0.0
H361 H 1.00103 0.57762 0.21692 0.0
H362 H 0.12994 0.73088 0.27348 0.0
H363 H 0.96966 0.63549 0.32346 0.0
H364 H 0.95841 0.60291 0.30666 0.0
H365 H 0.10272 0.74002 0.29889 0.0
H366 H 0.96104 0.57883 0.27805 0.0
N367 N 1.0043 0.64658 0.27722 0.0
C368 C 1.00385 0.65992 0.29313 0.0
C369 C 0.97931 0.63844 0.31038 0.0
C370 C 0.98 0.62468 0.29408 0.0
C371 C 0.99138 0.65606 0.30995 0.0
C372 C 0.99289 0.62916 0.27748 0.0
H373 H 0.97717 0.56906 0.24484 0.0
N374 N 1.00786 0.61951 0.24611 0.0
C375 C 0.99914 0.58805 0.22956 0.0
C376 C 0.99461 0.61535 0.26144 0.0
C377 C 1.01006 0.60643 0.23009 0.0
C378 C 0.9856 0.58334 0.24529 0.0
C379 C 0.98311 0.59707 0.26144 0.0
O380 O 1.01442 0.65098 0.21583 0.0
O381 O 0.05037 0.67021 0.25516 0.0
O382 O 0.04653 0.68837 0.27943 0.0
O383 O 1.02018 0.68764 0.25661 0.0
O384 O 0.04649 0.66347 0.22453 0.0
O385 O 0.99402 0.66418 0.23822 0.0
O386 O 0.04686 0.64482 0.30902 0.0
O387 O 0.03795 0.63054 0.27323 0.0
O388 O 0.04727 0.63063 0.2336 0.0
O389 O 0.07595 0.63897 0.25358 0.0
O390 O 0.06682 0.61923 0.27914 0.0
O391 O 0.07798 0.65611 0.31053 0.0
C392 C 0.05809 0.67256 0.2376 0.0
C393 C 0.98002 0.65265 0.20654 0.0
C394 C 0.96264 0.6541 0.17369 0.0
C395 C 0.97782 0.66119 0.18709 0.0
C396 C 0.94952 0.63829 0.18012 0.0
C397 C 0.96702 0.63682 0.2128 0.0
C398 C 0.95178 0.6297 0.19957 0.0
C399 C 0.03167 0.699 0.26953 0.0
C400 C 0.99704 0.65991 0.21902 0.0
C401 C 0.96992 0.59284 0.27774 0.0
C402 C 0.96843 0.60656 0.29404 0.0
C403 C 0.04838 0.61286 0.27434 0.0
C404 C 0.07096 0.6285 0.33164 0.0
C405 C 0.09205 0.62414 0.33175 0.0
C406 C 0.10016 0.60867 0.34396 0.0
C407 C 0.08674 0.59647 0.35546 0.0
C408 C 0.05776 0.6163 0.34324 0.0
C409 C 0.06565 0.60021 0.35494 0.0
C410 C 0.067 0.62963 0.23799 0.0
C411 C 0.06355 0.64639 0.32006 0.0
H412 H 0.9879 0.67356 0.1825 0.0
H413 H 0.93764 0.63249 0.17009 0.0
H414 H 0.96872 0.62996 0.22774 0.0
H415 H 0.94171 0.61745 0.20435 0.0
H416 H 0.10249 0.63297 0.32241 0.0
H417 H 0.09255 0.58437 0.36513 0.0
H418 H 0.04148 0.61931 0.34339 0.0
H419 H 0.05542 0.59083 0.36393 0.0
Eu420 Eu 0.66138 0.77751 0.49521 0.0
C421 C 0.62282 0.8195 0.56463 0.0
C422 C 0.61293 0.85412 0.55482 0.0
C423 C 0.59478 0.83644 0.58194 0.0
C424 C 0.62565 0.83695 0.55221 0.0
C425 C 0.60743 0.81934 0.57961 0.0
C426 C 0.59747 0.85368 0.56958 0.0
C427 C 0.61797 0.78514 0.58912 0.0
N428 N 0.63477 0.80255 0.56181 0.0
C429 C 0.63305 0.7858 0.57411 0.0
C430 C 0.60511 0.80192 0.59185 0.0
Eu431 Eu 0.66097 0.80777 0.53814 0.0
N432 N 0.64099 0.83745 0.53811 0.0
C433 C 0.64485 0.85467 0.52698 0.0
C434 C 0.6163 0.87149 0.54278 0.0
C435 C 0.63243 0.87182 0.52896 0.0
H436 H 0.64344 0.77315 0.57233 0.0
H437 H 0.6355 0.88539 0.52002 0.0
H438 H 0.5876 0.86675 0.57172 0.0
H439 H 0.61638 0.77177 0.59872 0.0
H440 H 0.65775 0.85547 0.51684 0.0
H441 H 0.64203 0.73133 0.56234 0.0
H442 H 0.6068 0.88492 0.54435 0.0
H443 H 0.70145 0.77487 0.4641 0.0
H444 H 0.63645 0.75745 0.5364 0.0
H445 H 0.73337 0.75503 0.46092 0.0
H446 H 0.58284 0.8365 0.59333 0.0
H447 H 0.67354 0.71066 0.56188 0.0
H448 H 0.7069 0.70246 0.54523 0.0
H449 H 0.59344 0.80128 0.60351 0.0
H450 H 0.73172 0.70893 0.51789 0.0
N451 N 0.66448 0.75237 0.52102 0.0
C452 C 0.65026 0.74888 0.53578 0.0
C453 C 0.67116 0.72225 0.55031 0.0
C454 C 0.68563 0.72564 0.53502 0.0
C455 C 0.65337 0.73388 0.55063 0.0
C456 C 0.68181 0.74095 0.52033 0.0
H457 H 0.74173 0.72845 0.48648 0.0
N458 N 0.69209 0.75968 0.4912 0.0
C459 C 0.72301 0.752 0.47339 0.0
C460 C 0.69596 0.74471 0.50499 0.0
C461 C 0.70497 0.76321 0.47525 0.0
C462 C 0.72766 0.73701 0.48786 0.0
C463 C 0.71403 0.73311 0.50382 0.0
O464 O 0.66191 0.77413 0.46216 0.0
O465 O 0.64537 0.80362 0.50821 0.0
O466 O 0.62591 0.79412 0.53399 0.0
O467 O 0.62516 0.77577 0.50421 0.0
O468 O 0.65387 0.80636 0.47807 0.0
O469 O 0.64498 0.75234 0.4804 0.0
O470 O 0.67104 0.8075 0.56978 0.0
O471 O 0.68319 0.78599 0.52143 0.0
O472 O 0.68584 0.80181 0.48892 0.0
O473 O 0.67832 0.82553 0.51459 0.0
O474 O 0.69352 0.79574 0.54793 0.0
O475 O 0.67411 0.83531 0.55085 0.0
C476 C 0.64431 0.81531 0.49272 0.0
C477 C 0.6562 0.7417 0.44777 0.0
C478 C 0.64989 0.72427 0.41551 0.0
C479 C 0.64427 0.73886 0.43014 0.0
C480 C 0.66802 0.7131 0.41854 0.0
C481 C 0.67354 0.72963 0.45102 0.0
C482 C 0.67964 0.71568 0.43625 0.0
C483 C 0.61443 0.78401 0.5198 0.0
C484 C 0.65049 0.75781 0.46209 0.0
C485 C 0.71787 0.71794 0.51849 0.0
C486 C 0.70373 0.71424 0.53404 0.0
C487 C 0.70074 0.78763 0.53159 0.0
C488 C 0.66639 0.83997 0.58563 0.0
C489 C 0.67016 0.86099 0.58523 0.0
C490 C 0.66258 0.87379 0.60052 0.0
C491 C 0.65019 0.8654 0.61589 0.0
C492 C 0.65451 0.83167 0.60143 0.0
C493 C 0.64614 0.84443 0.61624 0.0
C494 C 0.68866 0.81968 0.49828 0.0
C495 C 0.67496 0.82729 0.56927 0.0
H496 H 0.63045 0.74773 0.42809 0.0
H497 H 0.67315 0.70219 0.4073 0.0
H498 H 0.68234 0.73084 0.46489 0.0
H499 H 0.69332 0.70673 0.43861 0.0
H500 H 0.67932 0.86741 0.57303 0.0
H501 H 0.64428 0.87488 0.628 0.0
H502 H 0.65153 0.81543 0.6023 0.0
H503 H 0.63681 0.83797 0.62824 0.0
Eu504 Eu 0.53681 0.40805 0.75129 0.0
C505 C 0.45696 0.37045 0.77476 0.0
C506 C 0.42949 0.38812 0.75765 0.0
C507 C 0.42779 0.35126 0.76184 0.0
C508 C 0.44885 0.38829 0.76719 0.0
C509 C 0.44586 0.35198 0.77347 0.0
C510 C 0.41964 0.36936 0.7538 0.0
C511 C 0.46864 0.33786 0.79884 0.0
N512 N 0.47426 0.37186 0.78599 0.0
C513 C 0.47909 0.35651 0.79946 0.0
C514 C 0.45245 0.33528 0.78512 0.0
Eu515 Eu 0.49354 0.40285 0.78259 0.0
N516 N 0.45849 0.40605 0.77203 0.0
C517 C 0.44779 0.42396 0.77131 0.0
C518 C 0.41993 0.40681 0.75381 0.0
C519 C 0.42877 0.42476 0.76139 0.0
H520 H 0.49171 0.35837 0.81007 0.0
H521 H 0.42092 0.43919 0.75968 0.0
H522 H 0.40503 0.36885 0.74595 0.0
H523 H 0.47319 0.32549 0.80883 0.0
H524 H 0.45445 0.43777 0.77741 0.0
H525 H 0.5622 0.39937 0.83002 0.0
H526 H 0.40509 0.4074 0.7464 0.0
H527 H 0.54562 0.44487 0.71716 0.0
H528 H 0.54533 0.38862 0.798 0.0
H529 H 0.56253 0.47879 0.71612 0.0
H530 H 0.41937 0.33708 0.76009 0.0
H531 H 0.57927 0.43313 0.83206 0.0
H532 H 0.58895 0.46614 0.81487 0.0
H533 H 0.44434 0.32082 0.78463 0.0
H534 H 0.58876 0.48779 0.78415 0.0
N535 N 0.55322 0.41577 0.7821 0.0
C536 C 0.55307 0.40317 0.79863 0.0
C537 C 0.57205 0.42841 0.81791 0.0
C538 C 0.57214 0.44124 0.80079 0.0
C539 C 0.56247 0.4093 0.81682 0.0
C540 C 0.56245 0.43442 0.78281 0.0
H541 H 0.579 0.49266 0.74728 0.0
N542 N 0.55223 0.44014 0.74858 0.0
C543 C 0.56241 0.47002 0.73013 0.0
C544 C 0.56202 0.44687 0.76556 0.0
C545 C 0.55283 0.45091 0.73077 0.0
C546 C 0.57171 0.47778 0.74776 0.0
C547 C 0.57176 0.4661 0.76571 0.0
O548 O 0.54564 0.40376 0.72013 0.0
O549 O 0.50986 0.38963 0.75746 0.0
O550 O 0.51038 0.36907 0.77915 0.0
O551 O 0.54105 0.37313 0.76284 0.0
O552 O 0.51529 0.39615 0.72686 0.0
O553 O 0.56845 0.39925 0.74415 0.0
O554 O 0.50925 0.40847 0.81213 0.0
O555 O 0.51803 0.42699 0.77398 0.0
O556 O 0.51411 0.43052 0.73748 0.0
O557 O 0.48377 0.42132 0.75458 0.0
O558 O 0.49361 0.43846 0.78858 0.0
O559 O 0.47777 0.39816 0.81075 0.0
C560 C 0.50352 0.38668 0.73945 0.0
C561 C 0.57954 0.40448 0.70943 0.0
C562 C 0.59142 0.39785 0.67502 0.0
C563 C 0.57662 0.39596 0.69019 0.0
C564 C 0.6087 0.41019 0.6789 0.0
C565 C 0.59666 0.41676 0.71334 0.0
C566 C 0.61108 0.41985 0.69788 0.0
C567 C 0.52777 0.36019 0.77206 0.0
C568 C 0.56435 0.39885 0.72462 0.0
C569 C 0.58134 0.47297 0.78366 0.0
C570 C 0.58148 0.46061 0.80115 0.0
C571 C 0.51075 0.44481 0.7805 0.0
C572 C 0.48536 0.41989 0.83764 0.0
C573 C 0.46606 0.42919 0.83528 0.0
C574 C 0.45632 0.43828 0.8519 0.0
C575 C 0.46663 0.4395 0.87067 0.0
C576 C 0.49565 0.42158 0.85636 0.0
C577 C 0.4864 0.43161 0.87271 0.0
C578 C 0.49406 0.43186 0.74053 0.0
C579 C 0.49239 0.4051 0.82229 0.0
H580 H 0.56278 0.38721 0.68728 0.0
H581 H 0.6206 0.41195 0.66762 0.0
H582 H 0.59891 0.42375 0.72815 0.0
H583 H 0.6244 0.42928 0.70079 0.0
H584 H 0.45779 0.42795 0.82094 0.0
H585 H 0.45935 0.44646 0.88372 0.0
H586 H 0.51038 0.41436 0.85858 0.0
H587 H 0.49426 0.43257 0.88725 0.0
Eu588 Eu 0.9114 0.25147 0.03783 0.0
C589 C 0.87149 0.28707 0.96385 0.0
C590 C 0.87768 0.2683 0.93267 0.0
C591 C 0.84551 0.2861 0.93722 0.0
C592 C 0.88403 0.27447 0.95233 0.0
C593 C 0.8528 0.29413 0.95571 0.0
C594 C 0.8579 0.27309 0.92575 0.0
C595 C 0.85223 0.31978 0.98218 0.0
N596 N 0.87883 0.29466 0.9817 0.0
C597 C 0.87049 0.3119 0.99 0.0
C598 C 0.84284 0.31024 0.96553 0.0
Eu599 Eu 0.90946 0.27979 0.99366 0.0
N600 N 0.90338 0.27063 0.95912 0.0
C601 C 0.91794 0.26393 0.94578 0.0
C602 C 0.89193 0.25896 0.9199 0.0
C603 C 0.91231 0.25757 0.92618 0.0
H604 H 0.87743 0.31885 1.00332 0.0
H605 H 0.92372 0.25185 0.9158 0.0
H606 H 0.85259 0.26801 0.91091 0.0
H607 H 0.8452 0.33288 0.98927 0.0
H608 H 0.93384 0.2631 0.95031 0.0
H609 H 0.88282 0.32585 0.06342 0.0
H610 H 0.88767 0.25411 0.90466 0.0
H611 H 0.95988 0.23308 0.04258 0.0
H612 H 0.8847 0.29673 0.04028 0.0
H613 H 0.98912 0.23776 0.06589 0.0
H614 H 0.83089 0.29088 0.93103 0.0
H615 H 0.90832 0.32975 0.09111 0.0
H616 H 0.94059 0.3176 0.10782 0.0
H617 H 0.82856 0.31623 0.95964 0.0
H618 H 0.96959 0.29385 0.10833 0.0
N619 N 0.90966 0.28265 0.05575 0.0
C620 C 0.89532 0.29746 0.05274 0.0
C621 C 0.90897 0.31656 0.08119 0.0
C622 C 0.92474 0.3023 0.08305 0.0
C623 C 0.8945 0.31438 0.06563 0.0
C624 C 0.92491 0.28541 0.06972 0.0
H625 H 0.98798 0.26439 0.09255 0.0
N626 N 0.94227 0.25699 0.05578 0.0
C627 C 0.97584 0.24748 0.0672 0.0
C628 C 0.94157 0.27218 0.06981 0.0
C629 C 0.95933 0.24506 0.05383 0.0
C630 C 0.97507 0.26246 0.08229 0.0
C631 C 0.958 0.27526 0.08352 0.0
O632 O 0.92197 0.23193 0.06278 0.0
O633 O 0.89514 0.25442 1.00913 0.0
O634 O 0.87415 0.27641 1.00769 0.0
O635 O 0.87526 0.26011 0.03881 0.0
O636 O 0.90296 0.22476 1.01767 0.0
O637 O 0.89036 0.23123 0.05468 0.0
O638 O 0.91711 0.31188 1.00394 0.0
O639 O 0.93152 0.27616 1.02152 0.0
O640 O 0.93395 0.23591 1.0158 0.0
O641 O 0.92601 0.25097 0.98414 0.0
O642 O 0.94476 0.27715 0.99286 0.0
O643 O 0.91593 0.30192 0.97174 0.0
C644 C 0.89366 0.23578 1.00426 0.0
C645 C 0.90777 0.19974 0.05668 0.0
C646 C 0.89432 0.16513 0.05353 0.0
C647 C 0.89226 0.18545 0.0603 0.0
C648 C 0.9117 0.15964 0.04224 0.0
C649 C 0.92498 0.19383 0.04525 0.0
C650 C 0.92677 0.17401 0.03794 0.0
C651 C 0.86354 0.26889 1.02411 0.0
C652 C 0.90539 0.22124 0.06294 0.0
C653 C 0.95719 0.29135 0.09757 0.0
C654 C 0.94065 0.30486 0.0973 0.0
C655 C 0.94957 0.27578 1.01209 0.0
C656 C 0.9293 0.33485 0.97557 0.0
C657 C 0.93593 0.334 0.95508 0.0
C658 C 0.94234 0.35155 0.94471 0.0
C659 C 0.94283 0.3702 0.95537 0.0
C660 C 0.92984 0.35353 0.98587 0.0
C661 C 0.93677 0.3711 0.97582 0.0
C662 C 0.93554 0.23712 0.99556 0.0
C663 C 0.91908 0.31683 0.98449 0.0
H664 H 0.87872 0.19022 0.06844 0.0
H665 H 0.91412 0.14409 0.03727 0.0
H666 H 0.93702 0.20458 0.04166 0.0
H667 H 0.94006 0.16969 1.0292 0.0
H668 H 0.93505 0.31979 0.94665 0.0
H669 H 0.94789 0.38409 0.94792 0.0
H670 H 0.92446 0.35464 1.00142 0.0
H671 H 0.93708 0.38555 0.98379 0.0
Eu672 Eu 0.30823 0.03098 0.41016 0.0
C673 C 0.25857 0.08683 0.36063 0.0
C674 C 0.2755 0.11977 0.35683 0.0
C675 C 0.25172 0.108 0.33081 0.0
C676 C 0.27213 0.10174 0.36836 0.0
C677 C 0.24793 0.09025 0.34212 0.0
C678 C 0.26552 0.12261 0.33806 0.0
C679 C 0.22935 0.0587 0.34743 0.0
N680 N 0.25522 0.06928 0.37137 0.0
C681 C 0.24024 0.05569 0.3655 0.0
C682 C 0.23337 0.07591 0.33557 0.0
Eu683 Eu 0.27384 0.06636 0.40218 0.0
N684 N 0.28139 0.0991 0.38705 0.0
C685 C 0.29397 0.11429 0.39455 0.0
C686 C 0.28865 0.13476 0.36448 0.0
C687 C 0.29783 0.13202 0.38337 0.0
H688 H 0.23725 0.04216 0.37448 0.0
H689 H 0.3081 0.14359 0.38932 0.0
H690 H 0.2681 0.13633 0.32915 0.0
H691 H 0.21791 0.0477 0.34262 0.0
H692 H 0.30176 0.11345 0.40889 0.0
H693 H 0.23703 0.99298 0.38815 0.0
H694 H 0.29169 0.14864 0.35596 0.0
H695 H 0.33316 0.03071 0.45524 0.0
H696 H 0.26445 1.01875 0.38542 0.0
H697 H 0.33364 1.00984 0.48659 0.0
H698 H 0.24383 0.11072 0.31649 0.0
H699 H 0.23682 0.96882 0.41723 0.0
H700 H 0.25294 0.95684 0.45002 0.0
H701 H 0.22491 0.07814 0.32149 0.0
H702 H 0.27929 0.96127 0.4766 0.0
N703 N 0.2796 1.00932 0.41248 0.0
C704 C 0.26456 1.00832 0.39806 0.0
C705 C 0.24893 0.98011 0.41606 0.0
C706 C 0.26429 0.98144 0.43097 0.0
C707 C 0.24897 0.99374 0.39964 0.0
C708 C 0.27963 0.99645 0.42877 0.0
H709 H 0.30912 0.98124 0.49059 0.0
N710 N 0.30814 1.0145 0.44197 0.0
C711 C 0.32255 1.00663 0.4747 0.0
C712 C 0.29444 0.99902 0.44386 0.0
C713 C 0.32207 1.01856 0.45701 0.0
C714 C 0.30876 0.99042 0.47683 0.0
C715 C 0.29439 0.98651 0.46138 0.0
O716 O 0.33929 1.02183 0.41695 0.0
O717 O 0.30313 0.05624 0.38888 0.0
O718 O 0.27968 0.05091 0.36818 0.0
O719 O 0.30224 1.0253 0.3736 0.0
O720 O 0.33048 0.05626 0.40459 0.0
O721 O 0.32069 1.00378 0.39561 0.0
O722 O 0.24376 0.05327 0.41071 0.0
O723 O 0.27952 0.04114 0.42719 0.0
O724 O 0.31871 0.05729 0.4318 0.0
O725 O 0.29608 0.08315 0.42244 0.0
O726 O 0.27292 0.06964 0.43805 0.0
O727 O 0.24792 0.0857 0.4027 0.0
C728 C 0.3205 0.06506 0.39006 0.0
C729 C 0.35226 0.98984 0.40735 0.0
C730 C 0.38383 0.97495 0.39608 0.0
C731 C 0.3688 0.98976 0.39431 0.0
C732 C 0.38248 0.9603 0.41175 0.0
C733 C 0.35062 0.97544 0.42304 0.0
C734 C 0.36586 0.96061 0.42522 0.0
C735 C 0.2906 0.03555 0.35979 0.0
C736 C 0.33837 1.00655 0.40444 0.0
C737 C 0.27957 0.97105 0.46326 0.0
C738 C 0.26454 0.96855 0.44813 0.0
C739 C 0.27712 0.05127 0.44462 0.0
C740 C 0.22063 0.07883 0.42417 0.0
C741 C 0.22487 0.09728 0.4343 0.0
C742 C 0.20895 0.10967 0.44096 0.0
C743 C 0.18875 0.10241 0.43992 0.0
C744 C 0.2005 0.07144 0.42357 0.0
C745 C 0.18466 0.08303 0.43185 0.0
C746 C 0.31209 0.07656 0.43302 0.0
C747 C 0.23534 0.07148 0.40909 0.0
H748 H 0.37013 1.00168 0.38282 0.0
H749 H 0.39403 0.9486 0.41343 0.0
H750 H 0.33788 0.97582 0.43353 0.0
H751 H 0.36481 0.94939 0.4373 0.0
H752 H 0.24037 0.10332 0.43459 0.0
H753 H 0.17619 0.11185 0.44498 0.0
H754 H 0.19686 0.05745 0.41549 0.0
H755 H 0.16905 0.07755 0.43088 0.0
Eu756 Eu 0.27935 0.05232 0.65793 0.0
C757 C 0.20197 1.02613 0.61829 0.0
C758 C 0.17283 0.04581 0.62908 0.0
C759 C 0.17471 0.03366 0.59416 0.0
C760 C 0.19205 0.03703 0.63328 0.0
C761 C 0.19267 1.02305 0.59909 0.0
C762 C 0.16485 0.04518 0.60914 0.0
C763 C 0.21685 0.99596 0.59303 0.0
N764 N 0.21919 1.01606 0.62356 0.0
C765 C 0.22574 0.99989 0.61207 0.0
C766 C 0.2008 1.00821 0.58612 0.0
Eu767 Eu 0.23475 1.02604 0.65477 0.0
N768 N 0.19992 0.03667 0.65254 0.0
C769 C 0.18785 0.04194 0.66866 0.0
C770 C 0.16156 0.05363 0.64528 0.0
C771 C 0.16872 0.05102 0.66518 0.0
H772 H 0.23866 0.9909 0.61717 0.0
H773 H 0.15932 0.05603 0.67767 0.0
H774 H 0.15036 0.05233 0.60553 0.0
H775 H 0.22261 0.98376 0.58358 0.0
H776 H 0.19331 0.04 0.68413 0.0
H777 H 0.29848 0.97689 0.62686 0.0
H778 H 0.14673 0.06055 0.64271 0.0
H779 H 0.28489 0.06935 0.70667 0.0
H780 H 0.28096 1.00954 0.62749 0.0
H781 H 0.30344 0.0595 0.73785 0.0
H782 H 0.16766 0.03202 0.57925 0.0
H783 H 0.32028 0.9665 0.65588 0.0
H784 H 0.33392 0.97383 0.69074 0.0
H785 H 0.19401 1.00524 0.5713 0.0
H786 H 0.33516 0.99609 0.72083 0.0
N787 N 0.29339 1.01902 0.65605 0.0
C788 C 0.2908 1.00596 0.64001 0.0
C789 C 0.31283 0.98124 0.65613 0.0
C790 C 0.31479 0.99419 0.67296 0.0
C791 C 0.30057 0.98706 0.63972 0.0
C792 C 0.30474 1.01323 0.67257 0.0
H793 H 0.32373 0.02776 0.73856 0.0
N794 N 0.29467 0.04347 0.68956 0.0
C795 C 0.30422 0.04994 0.72442 0.0
C796 C 0.30543 1.02579 0.68971 0.0
C797 C 0.2936 0.05537 0.70672 0.0
C798 C 0.31568 0.03205 0.72472 0.0
C799 C 0.31621 1.01962 0.70738 0.0
O800 O 0.30164 0.07293 0.67141 0.0
O801 O 0.25008 0.05189 0.64155 0.0
O802 O 0.249 0.03117 0.61955 0.0
O803 O 0.28035 0.04675 0.62123 0.0
O804 O 0.26078 0.08051 0.64847 0.0
O805 O 0.30449 0.06494 0.63975 0.0
O806 O 0.24919 0.99614 0.66077 0.0
O807 O 0.26199 0.02825 0.67781 0.0
O808 O 0.25889 0.07054 0.67924 0.0
O809 O 0.22759 0.05313 0.67537 0.0
O810 O 0.23305 1.02724 0.69043 0.0
O811 O 0.21649 0.99891 0.65543 0.0
C812 C 0.24609 0.07082 0.6396 0.0
C813 C 0.30505 0.09961 0.64878 0.0
C814 C 0.31046 0.12786 0.62602 0.0
C815 C 0.31445 0.10777 0.63176 0.0
C816 C 0.29554 0.13927 0.63637 0.0
C817 C 0.29059 0.11132 0.6596 0.0
C818 C 0.28551 0.13086 0.65303 0.0
C819 C 0.26552 0.03885 0.60907 0.0
C820 C 0.30876 0.07827 0.65393 0.0
C821 C 0.32675 1.00102 0.70743 0.0
C822 C 0.32604 0.98835 0.69029 0.0
C823 C 0.25237 0.02845 0.69581 0.0
C824 C 0.22541 0.97504 0.67975 0.0
C825 C 0.20481 0.96903 0.68161 0.0
C826 C 0.19719 0.96112 0.6999 0.0
C827 C 0.21074 0.95827 0.71637 0.0
C828 C 0.23885 0.97169 0.69613 0.0
C829 C 0.23151 0.96326 0.71434 0.0
C830 C 0.2392 0.06799 0.68329 0.0
C831 C 0.23123 0.98708 0.6616 0.0
H832 H 0.32551 0.09875 0.62343 0.0
H833 H 0.29248 0.15502 0.63237 0.0
H834 H 0.2828 0.10526 0.67284 0.0
H835 H 0.27425 0.13969 0.6612 0.0
H836 H 0.19427 0.97172 0.66907 0.0
H837 H 0.20532 0.9521 0.7307 0.0
H838 H 0.25479 0.97597 0.69498 0.0
H839 H 0.24186 0.96096 0.72706 0.0
Eu840 Eu 0.25103 0.03526 0.90926 0.0
C841 C 0.28624 0.96289 0.86623 0.0
C842 C 0.26605 0.93197 0.86986 0.0
C843 C 0.28671 0.93711 0.83958 0.0
C844 C 0.27257 0.95108 0.87756 0.0
C845 C 0.29426 0.95543 0.84773 0.0
C846 C 0.27247 0.92552 0.85052 0.0
C847 C 0.31801 0.98386 0.84746 0.0
N848 N 0.29306 0.98086 0.87408 0.0
C849 C 0.30948 0.99083 0.86562 0.0
C850 C 0.31014 0.96627 0.83827 0.0
Eu851 Eu 0.27805 0.99101 0.90512 0.0
N852 N 0.26733 0.95719 0.89676 0.0
C853 C 0.25772 0.94379 0.90959 0.0
C854 C 0.25421 0.9193 0.88228 0.0
C855 C 0.25052 0.92498 0.90237 0.0
H856 H 0.31545 1.00457 0.87261 0.0
H857 H 0.24239 0.91465 0.91233 0.0
H858 H 0.26733 0.91103 0.84433 0.0
H859 H 0.33057 0.99211 0.84052 0.0
H860 H 0.25553 0.94733 0.92542 0.0
H861 H 0.32829 0.05362 0.88375 0.0
H862 H 0.24886 0.90457 0.87689 0.0
H863 H 0.22874 0.0426 0.9549 0.0
H864 H 0.29526 0.03546 0.88249 0.0
H865 H 0.23445 0.06453 0.98492 0.0
H866 H 0.29231 0.93141 0.82515 0.0
H867 H 0.3358 0.07745 0.9121 0.0
H868 H 0.32448 0.09403 0.94467 0.0
H869 H 0.31673 0.96095 0.82413 0.0
H870 H 0.29881 0.09743 0.97174 0.0
N871 N 0.28439 0.0484 0.90999 0.0
C872 C 0.29839 0.0456 0.89497 0.0
C873 C 0.32132 0.06935 0.91171 0.0
C874 C 0.30684 0.07208 0.92713 0.0
C875 C 0.31714 0.05591 0.89567 0.0
C876 C 0.28831 0.06109 0.92597 0.0
H877 H 0.2654 0.08631 0.98704 0.0
N878 N 0.25684 0.05094 0.94077 0.0
C879 C 0.2457 0.06411 0.97288 0.0
C880 C 0.27395 0.06273 0.94154 0.0
C881 C 0.2427 0.05143 0.95601 0.0
C882 C 0.26312 0.07651 0.97392 0.0
C883 C 0.27756 0.07585 0.95821 0.0
O884 O 0.22399 0.05332 0.91598 0.0
O885 O 0.25279 1.00748 0.8925 0.0
O886 O 0.27244 1.00475 0.87023 0.0
O887 O 0.257 0.03598 0.872 0.0
O888 O 0.22313 1.01712 0.89861 0.0
O889 O 0.248 0.06597 0.89685 0.0
O890 O 0.30859 1.00404 0.91267 0.0
O891 O 0.27531 1.01743 0.92892 0.0
O892 O 0.23445 1.01372 0.93163 0.0
O893 O 0.2503 0.98234 0.92409 0.0
O894 O 0.27701 0.98779 0.94043 0.0
O895 O 0.30372 0.97134 0.90722 0.0
C896 C 0.2341 1.00291 0.89059 0.0
C897 C 0.2153 0.08102 0.8941 0.0
C898 C 0.18141 0.08635 0.87997 0.0
C899 C 0.1955 0.07364 0.88986 0.0
C900 C 0.18706 0.10633 0.87447 0.0
C901 C 0.22072 0.10102 0.88854 0.0
C902 C 0.20664 0.11361 0.87876 0.0
C903 C 0.26517 1.02132 0.8598 0.0
C904 C 0.23034 0.06901 0.90547 0.0
C905 C 0.29574 0.08731 0.95903 0.0
C906 C 0.31038 0.08533 0.94362 0.0
C907 C 0.27562 1.00681 0.94646 0.0
C908 C 0.33133 0.97911 0.92845 0.0
C909 C 0.32861 0.96004 0.93811 0.0
C910 C 0.34497 0.95035 0.94778 0.0
C911 C 0.36391 0.96037 0.94925 0.0
C912 C 0.35021 0.98917 0.93029 0.0
C913 C 0.36634 0.97993 0.94092 0.0
C914 C 0.2364 0.99356 0.93388 0.0
C915 C 0.31662 0.98562 0.91268 0.0
H916 H 0.19109 0.05824 0.89412 0.0
H917 H 0.17623 0.11632 0.86689 0.0
H918 H 0.23583 0.10699 0.892 0.0
H919 H 0.21087 0.12905 0.87459 0.0
H920 H 0.3142 0.95184 0.93676 0.0
H921 H 0.37678 0.953 0.95663 0.0
H922 H 0.35279 1.00364 0.92267 0.0
H923 H 0.38102 0.98758 0.94197 0.0
Eu924 Eu 0.27737 0.99191 0.15912 0.0
C925 C 0.32887 0.04803 0.11252 0.0
C926 C 0.36141 0.03157 0.10535 0.0
C927 C 0.34934 0.05909 0.08359 0.0
C928 C 0.34392 0.03359 0.11779 0.0
C929 C 0.33199 0.06134 0.09584 0.0
C930 C 0.36382 0.04412 0.08817 0.0
C931 C 0.30064 0.07873 0.10456 0.0
N932 N 0.31142 0.04943 0.12384 0.0
C933 C 0.29764 0.06483 0.12044 0.0
C934 C 0.31775 0.07685 0.09207 0.0
Eu935 Eu 0.31141 0.0292 0.15357 0.0
N936 N 0.34184 1.022 0.1351 0.0
C937 C 0.35641 1.00775 0.14003 0.0
C938 C 0.37624 1.01715 0.11058 0.0
C939 C 0.37371 1.00522 0.12794 0.0
H940 H 0.28431 0.06628 0.13001 0.0
H941 H 0.385 0.99381 0.13193 0.0
H942 H 0.37714 0.04266 0.07851 0.0
H943 H 0.28965 0.09075 0.10183 0.0
H944 H 0.35496 0.99754 0.15278 0.0
H945 H 0.23345 0.05896 0.13275 0.0
H946 H 0.38974 1.01511 0.10129 0.0
H947 H 0.27999 0.97238 0.20645 0.0
H948 H 0.26078 0.03425 0.13147 0.0
H949 H 0.26101 0.97419 0.23862 0.0
H950 H 0.35178 0.06899 0.07055 0.0
H951 H 0.21038 0.05989 0.16239 0.0
H952 H 0.2016 0.04696 0.19709 0.0
H953 H 0.31984 0.08748 0.07957 0.0
H954 H 0.20945 1.02447 0.22608 0.0
N955 N 0.25297 1.01903 0.15911 0.0
C956 C 0.25068 0.03333 0.14406 0.0
C957 C 0.22224 0.04841 0.16168 0.0
C958 C 0.22536 0.03474 0.17775 0.0
C959 C 0.23519 0.04791 0.14493 0.0
C960 C 0.24106 1.02007 0.1761 0.0
H961 H 0.23175 0.99774 0.24183 0.0
N962 N 0.26142 0.9944 0.19118 0.0
C963 C 0.25637 0.98352 0.22577 0.0
C964 C 0.24546 1.00743 0.19257 0.0
C965 C 0.26705 0.98252 0.20742 0.0
C966 C 0.23987 0.99681 0.2275 0.0
C967 C 0.23429 1.00904 0.21087 0.0
O968 O 0.27838 0.96096 0.17116 0.0
O969 O 0.30866 0.99586 0.14813 0.0
O970 O 0.29538 1.02427 0.12029 0.0
O971 O 0.27125 0.99896 0.1226 0.0
O972 O 0.28996 0.97845 0.13018 0.0
O973 O 0.25087 0.97145 0.15526 0.0
O974 O 0.30188 0.05987 0.16341 0.0
O975 O 0.28622 1.02069 0.17735 0.0
O976 O 0.30632 0.9832 0.17915 0.0
O977 O 0.33024 1.00926 0.1735 0.0
O978 O 0.31293 0.03177 0.18911 0.0
O979 O 0.33408 0.05233 0.15657 0.0
C980 C 0.30862 0.98482 0.13226 0.0
C981 C 0.25218 0.93607 0.16597 0.0
C982 C 0.24222 0.90469 0.14914 0.0
C983 C 0.24762 0.92544 0.14797 0.0
C984 C 0.24112 0.89489 0.16817 0.0
C985 C 0.25105 0.92609 0.1849 0.0
C986 C 0.24547 0.9056 0.18598 0.0
C987 C 0.28186 1.01212 0.11037 0.0
C988 C 0.25958 0.95709 0.16601 0.0
C989 C 0.21823 1.02308 0.21219 0.0
C990 C 0.21375 0.03586 0.19566 0.0
C991 C 0.29529 1.02503 0.19526 0.0
C992 C 0.32904 0.08066 0.17761 0.0
C993 C 0.34781 0.07649 0.18706 0.0
C994 C 0.35958 0.0923 0.19511 0.0
C995 C 0.35174 0.11219 0.1957 0.0
C996 C 0.32097 0.10043 0.17854 0.0
C997 C 0.33217 0.11608 0.18795 0.0
C998 C 0.32462 0.99208 0.18253 0.0
C999 C 0.32103 0.06627 0.16252 0.0
H1000 H 0.24877 0.93299 0.13329 0.0
H1001 H 0.23683 0.87891 0.16922 0.0
H1002 H 0.25474 0.93416 0.19888 0.0
H1003 H 0.24466 0.89797 0.20061 0.0
H1004 H 0.35439 0.06131 0.18624 0.0
H1005 H 0.36085 0.12463 0.20182 0.0
H1006 H 0.30663 0.104 0.171 0.0
H1007 H 0.32614 0.13144 0.18825 0.0
Eu1008 Eu 0.40217 0.27876 0.06342 0.0
C1009 C 0.4473 0.34014 1.01627 0.0
C1010 C 0.447 0.37344 0.03253 0.0
C1011 C 0.47643 0.36305 1.01261 0.0
C1012 C 0.43742 0.35445 1.02861 0.0
C1013 C 0.46641 0.34479 1.00745 0.0
C1014 C 0.46682 0.37726 1.02522 0.0
C1015 C 0.46323 0.31428 0.98686 0.0
N1016 N 0.43755 0.32237 1.01152 0.0
C1017 C 0.44442 0.3102 0.996 0.0
C1018 C 0.47452 0.33137 0.99298 0.0
Eu1019 Eu 0.40689 0.3163 1.02931 0.0
N1020 N 0.41784 0.35072 0.03497 0.0
C1021 C 0.40639 0.36643 0.04265 0.0
C1022 C 0.43603 0.38854 0.04275 0.0
C1023 C 0.41549 0.38521 0.0473 0.0
H1024 H 0.43588 0.2967 0.99164 0.0
H1025 H 0.40653 0.39726 0.0541 0.0
H1026 H 0.47445 0.39164 1.02839 0.0
H1027 H 0.46906 0.30419 0.97521 0.0
H1028 H 0.39016 0.36491 0.04519 0.0
H1029 H 0.42073 0.24267 0.99091 0.0
H1030 H 0.44292 0.40324 0.04612 0.0
H1031 H 0.35855 0.27735 0.0906 0.0
H1032 H 0.42465 0.26811 1.01828 0.0
H1033 H 0.32766 0.25571 0.09242 0.0
H1034 H 0.49129 0.36668 1.00629 0.0
H1035 H 0.39177 0.21821 0.99164 0.0
H1036 H 0.35982 0.20565 1.00888 0.0
H1037 H 0.48911 0.3345 0.98584 0.0
H1038 H 0.3348 0.20897 0.03659 0.0
N1039 N 0.39843 0.25805 0.03447 0.0
C1040 C 0.41207 0.25751 1.01885 0.0
C1041 C 0.39341 0.2294 1.0037 0.0
C1042 C 0.37913 0.23047 1.01951 0.0
C1043 C 0.4098 0.24316 1.00324 0.0
C1044 C 0.38194 0.24534 0.03477 0.0
H1045 H 0.32284 0.22736 0.0679 0.0
N1046 N 0.37008 0.26267 0.06407 0.0
C1047 C 0.33868 0.25333 0.0804 0.0
C1048 C 0.36749 0.24758 0.05011 0.0
C1049 C 0.35599 0.26589 0.07903 0.0
C1050 C 0.33608 0.23727 0.0666 0.0
C1051 C 0.35039 0.23442 0.05102 0.0
O1052 O 0.40149 0.27122 0.09563 0.0
O1053 O 0.42194 0.30504 0.05711 0.0
O1054 O 0.4411 0.3018 0.03434 0.0
O1055 O 0.43841 0.27388 0.05463 0.0
O1056 O 0.40957 0.3031 0.086 0.0
O1057 O 0.41455 0.2496 0.07485 0.0
O1058 O 0.39691 0.30236 1.00024 0.0
O1059 O 0.38211 0.29064 0.0361 0.0
O1060 O 0.37982 0.3035 0.07501 0.0
O1061 O 0.3895 0.33144 0.05495 0.0
O1062 O 0.37207 0.31991 0.0305 0.0
O1063 O 0.40453 0.33486 1.0026 0.0
C1064 C 0.42193 0.31334 0.07463 0.0
C1065 C 0.40171 0.23756 0.10677 0.0
C1066 C 0.40117 0.22053 0.13994 0.0
C1067 C 0.41138 0.23269 0.12537 0.0
C1068 C 0.38061 0.21496 0.13601 0.0
C1069 C 0.38248 0.22932 0.1023 0.0
C1070 C 0.37164 0.21876 0.11712 0.0
C1071 C 0.45085 0.28583 0.04314 0.0
C1072 C 0.41033 0.25365 0.09381 0.0
C1073 C 0.34789 0.21917 0.03618 0.0
C1074 C 0.36214 0.21728 1.0204 0.0
C1075 C 0.36491 0.30164 0.03424 0.0
C1076 C 0.37745 0.32746 0.98094 0.0
C1077 C 0.37603 0.34822 0.97529 0.0
C1078 C 0.35773 0.35646 0.96777 0.0
C1079 C 0.34081 0.34338 0.96508 0.0
C1080 C 0.3604 0.31468 0.97817 0.0
C1081 C 0.34223 0.32264 0.97013 0.0
C1082 C 0.37893 0.32326 0.07012 0.0
C1083 C 0.39628 0.32051 0.99142 0.0
H1084 H 0.42672 0.23831 0.12827 0.0
H1085 H 0.37147 0.2071 0.14729 0.0
H1086 H 0.3756 0.23148 0.0876 0.0
H1087 H 0.35623 0.2135 0.11395 0.0
H1088 H 0.38902 0.35829 0.97771 0.0
H1089 H 0.32651 0.34915 0.95903 0.0
H1090 H 0.36096 0.29875 0.98257 0.0
H1091 H 0.32907 0.31275 0.96809 0.0
Eu1092 Eu 0.03273 0.91022 0.25359 0.0
C1093 C 0.95651 0.87126 0.2824 0.0
C1094 C 0.92656 0.88791 0.26879 0.0
C1095 C 0.92698 0.85096 0.27222 0.0
C1096 C 0.94692 0.88883 0.27595 0.0
C1097 C 0.94613 0.85231 0.28186 0.0
C1098 C 0.9171 0.86881 0.26583 0.0
C1099 C 0.97116 0.83913 0.30552 0.0
N1100 N 0.97442 0.87341 0.29252 0.0
C1101 C 0.98052 0.85834 0.30586 0.0
C1102 C 0.95433 0.83585 0.29277 0.0
Eu1103 Eu 0.99212 0.90526 0.28749 0.0
N1104 N 0.95627 0.90697 0.27995 0.0
C1105 C 0.9449 0.92445 0.28032 0.0
C1106 C 0.9158 0.90618 0.26645 0.0
C1107 C 0.92481 0.92447 0.27285 0.0
H1108 H 0.99352 0.86081 0.31587 0.0
H1109 H 0.91622 0.93856 0.27223 0.0
H1110 H 0.90161 0.86778 0.25997 0.0
H1111 H 0.97688 0.82696 0.31514 0.0
H1112 H 0.95158 0.93848 0.28578 0.0
H1113 H 0.06207 0.89209 0.3297 0.0
H1114 H 0.90013 0.90617 0.26099 0.0
H1115 H 0.03868 0.95258 0.22511 0.0
H1116 H 0.04266 0.88601 0.29831 0.0
H1117 H 0.05653 0.98573 0.22736 0.0
H1118 H 0.91899 0.83646 0.27118 0.0
H1119 H 0.08107 0.9245 0.3343 0.0
H1120 H 0.09118 0.95877 0.32045 0.0
H1121 H 0.94685 0.82105 0.29276 0.0
H1122 H 0.08949 0.98422 0.29287 0.0
N1123 N 0.05056 0.91441 0.28468 0.0
C1124 C 0.05095 0.90005 0.29977 0.0
C1125 C 0.07261 0.92184 0.32029 0.0
C1126 C 0.07215 0.93655 0.30479 0.0
C1127 C 0.06193 0.90352 0.31776 0.0
C1128 C 0.06089 0.93235 0.28687 0.0
H1129 H 0.07657 0.99445 0.25826 0.0
N1130 N 0.04865 0.94252 0.25442 0.0
C1131 C 0.05765 0.97491 0.23981 0.0
C1132 C 0.0599 0.94678 0.27133 0.0
C1133 C 0.04759 0.95608 0.2386 0.0
C1134 C 0.06892 0.97978 0.25729 0.0
C1135 C 0.07022 0.96564 0.27329 0.0
O1136 O 0.04633 0.91532 0.22384 0.0
O1137 O 1.00572 0.89199 0.2606 0.0
O1138 O 1.00918 0.87207 0.28369 0.0
O1139 O 0.03615 0.8741 0.26194 0.0
O1140 O 1.00913 0.89979 0.23006 0.0
O1141 O 0.06071 0.89442 0.24515 0.0
O1142 O 1.00921 0.9134 0.31563 0.0
O1143 O 1.01661 0.92912 0.27812 0.0
O1144 O 1.0087 0.93173 0.24018 0.0
O1145 O 0.98002 0.92386 0.26059 0.0
O1146 O 0.99129 0.94116 0.29093 0.0
O1147 O 0.97929 0.89955 0.31705 0.0
C1148 C 0.99783 0.89021 0.24304 0.0
C1149 C 0.05694 0.88443 0.21116 0.0
C1150 C 0.06384 0.8716 0.17752 0.0
C1151 C 0.06856 0.88498 0.19345 0.0
C1152 C 0.04703 0.8581 0.17928 0.0
C1153 C 0.04093 0.87012 0.2131 0.0
C1154 C 0.03592 0.85713 0.19718 0.0
C1155 C 1.02424 0.86205 0.2737 0.0
C1156 C 0.05932 0.90052 0.22624 0.0
C1157 C 0.08148 0.96981 0.29109 0.0
C1158 C 0.08246 0.95531 0.30678 0.0
C1159 C 1.00869 0.9472 0.2831 0.0
C1160 C 0.98513 0.92482 0.34066 0.0
C1161 C 0.96631 0.93387 0.33543 0.0
C1162 C 0.95489 0.94425 0.34994 0.0
C1163 C 0.96297 0.94709 0.36958 0.0
C1164 C 0.99323 0.92785 0.36024 0.0
C1165 C 0.98228 0.93924 0.37456 0.0
C1166 C 0.98913 0.93385 0.24532 0.0
C1167 C 0.9935 0.90908 0.32711 0.0
H1168 H 0.08109 0.8958 0.19212 0.0
H1169 H 0.04254 0.84811 0.16687 0.0
H1170 H 0.03168 0.86935 0.22653 0.0
H1171 H 1.02323 0.84654 0.19861 0.0
H1172 H 0.95966 0.93141 0.32049 0.0
H1173 H 0.95423 0.95503 0.38108 0.0
H1174 H 1.0075 0.92074 0.36469 0.0
H1175 H 0.98839 0.9413 0.38979 0.0
Eu1176 Eu 0.16294 0.78153 0.55626 0.0
C1177 C 0.124 0.71577 0.50552 0.0
C1178 C 0.12445 0.6812 0.51911 0.0
C1179 C 0.0974 0.69147 0.49579 0.0
C1180 C 0.13319 0.70095 0.51792 0.0
C1181 C 0.1063 0.71091 0.49404 0.0
C1182 C 0.1064 0.67671 0.50832 0.0
C1183 C 0.10789 0.74447 0.47872 0.0
N1184 N 0.13255 0.73472 0.5042 0.0
C1185 C 0.12534 0.7487 0.4903 0.0
C1186 C 0.09816 0.72561 0.48079 0.0
Eu1187 Eu 0.1616 0.73992 0.52531 0.0
N1188 N 0.15079 0.70548 0.52835 0.0
C1189 C 0.16118 0.69046 0.53854 0.0
C1190 C 0.13426 0.6663 0.53084 0.0
C1191 C 0.15281 0.67086 0.54033 0.0
H1192 H 0.13271 0.76341 0.48873 0.0
H1193 H 0.16071 0.65915 0.54887 0.0
H1194 H 0.09947 0.66167 0.50924 0.0
H1195 H 0.10195 0.75577 0.4682 0.0
H1196 H 0.17601 0.69326 0.54523 0.0
H1197 H 0.14594 0.81104 0.48034 0.0
H1198 H 0.12793 0.65104 0.53219 0.0
H1199 H 0.20512 0.78607 0.58542 0.0
H1200 H 0.13987 0.79034 0.5112 0.0
H1201 H 0.23799 0.80475 0.58453 0.0
H1202 H 0.0837 0.68759 0.48724 0.0
H1203 H 0.17728 0.83223 0.47775 0.0
H1204 H 0.21044 0.84408 0.49343 0.0
H1205 H 0.0846 0.72238 0.47177 0.0
H1206 H 0.23533 0.8424 0.52166 0.0
N1207 N 0.16748 0.79948 0.52568 0.0
C1208 C 0.15357 0.79941 0.51017 0.0
C1209 C 0.17467 0.82315 0.49133 0.0
C1210 C 0.1889 0.82312 0.50738 0.0
C1211 C 0.15698 0.81118 0.4927 0.0
C1212 C 0.18485 0.81095 0.52463 0.0
H1213 H 0.24595 0.82746 0.55541 0.0
N1214 N 0.19517 0.79731 0.55657 0.0
C1215 C 0.2272 0.80628 0.57205 0.0
C1216 C 0.19906 0.80983 0.54052 0.0
C1217 C 0.20869 0.79553 0.57238 0.0
C1218 C 0.23158 0.81916 0.55562 0.0
C1219 C 0.21742 0.82114 0.53963 0.0
O1220 O 0.16464 0.7948 0.58646 0.0
O1221 O 0.14594 0.75366 0.55111 0.0
O1222 O 0.12554 0.75183 0.52975 0.0
O1223 O 0.12674 0.7828 0.546 0.0
O1224 O 0.15255 0.76083 0.58128 0.0
O1225 O 0.14777 0.8106 0.56268 0.0
O1226 O 0.16822 0.74917 0.49358 0.0
O1227 O 0.18336 0.76782 0.53096 0.0
O1228 O 0.18393 0.7574 0.57231 0.0
O1229 O 0.17548 0.72747 0.55426 0.0
O1230 O 0.19668 0.73937 0.53097 0.0
O1231 O 0.17846 0.71988 0.50622 0.0
C1232 C 0.14337 0.74799 0.56944 0.0
C1233 C 0.16067 0.82989 0.59074 0.0
C1234 C 0.15903 0.85237 0.62054 0.0
C1235 C 0.15111 0.83616 0.60865 0.0
C1236 C 0.17676 0.86242 0.61314 0.0
C1237 C 0.1778 0.84038 0.58357 0.0
C1238 C 0.18576 0.85664 0.59474 0.0
C1239 C 0.11489 0.76851 0.53659 0.0
C1240 C 0.15381 0.81071 0.58167 0.0
C1241 C 0.22127 0.83364 0.52265 0.0
C1242 C 0.20709 0.83459 0.50656 0.0
C1243 C 0.20136 0.75855 0.53246 0.0
C1244 C 0.16873 0.71871 0.47222 0.0
C1245 C 0.17417 0.69789 0.47132 0.0
C1246 C 0.16579 0.68478 0.45654 0.0
C1247 C 0.15213 0.69302 0.44207 0.0
C1248 C 0.15564 0.72669 0.45725 0.0
C1249 C 0.14731 0.71383 0.44234 0.0
C1250 C 0.18492 0.73713 0.56945 0.0
C1251 C 0.17603 0.73098 0.48978 0.0
H1252 H 0.13772 0.82764 0.61312 0.0
H1253 H 0.18425 0.87459 0.62134 0.0
H1254 H 0.18523 0.83582 0.56967 0.0
H1255 H 0.19927 0.86455 0.58935 0.0
H1256 H 0.18507 0.69186 0.48226 0.0
H1257 H 0.14515 0.68343 0.43052 0.0
H1258 H 0.1516 0.74269 0.45723 0.0
H1259 H 0.13692 0.71999 0.43102 0.0
Eu1260 Eu 0.99936 0.65077 0.78601 0.0
C1261 C 0.06547 0.61026 0.76461 0.0
C1262 C 0.08186 0.62281 0.79543 0.0
C1263 C 0.08885 0.58842 0.78347 0.0
C1264 C 0.06849 0.62578 0.77875 0.0
C1265 C 0.07561 0.59143 0.76684 0.0
C1266 C 0.09198 0.60407 0.79772 0.0
C1267 C 0.05858 0.57977 0.73614 0.0
N1268 N 0.0522 0.61336 0.74897 0.0
C1269 C 0.04864 0.59857 0.73473 0.0
C1270 C 0.07201 0.57611 0.75235 0.0
Eu1271 Eu 0.03598 0.64525 0.74794 0.0
N1272 N 0.05812 0.6436 0.77643 0.0
C1273 C 0.06089 0.6592 0.78993 0.0
C1274 C 0.08459 0.63872 0.80941 0.0
C1275 C 0.07414 0.65703 0.80657 0.0
H1276 H 0.03805 0.60119 0.7223 0.0
H1277 H 0.07613 0.66944 0.81729 0.0
H1278 H 0.10224 0.6015 0.81049 0.0
H1279 H 0.05575 0.56808 0.72482 0.0
H1280 H 0.05287 0.67331 0.78826 0.0
H1281 H 0.92568 0.68425 0.76406 0.0
H1282 H 0.09471 0.63703 0.82243 0.0
H1283 H 0.03375 0.66516 0.82156 0.0
H1284 H 0.95279 0.65824 0.76374 0.0
H1285 H 0.03892 0.69425 0.8453 0.0
H1286 H 0.09672 0.57403 0.78548 0.0
H1287 H 0.92928 0.71453 0.78628 0.0
H1288 H 0.94953 0.73373 0.8125 0.0
H1289 H 0.07948 0.56143 0.75355 0.0
H1290 H 0.97999 0.73646 0.83443 0.0
N1291 N 0.9719 0.67392 0.78471 0.0
C1292 C 0.95467 0.6715 0.77312 0.0
C1293 C 0.94128 0.70317 0.78611 0.0
C1294 C 0.95864 0.70523 0.79857 0.0
C1295 C 0.93919 0.68613 0.7735 0.0
C1296 C 0.9739 0.69008 0.79776 0.0
H1297 H 1.01334 0.72196 0.84664 0.0
N1298 N 1.00645 0.67724 0.80906 0.0
C1299 C 1.02565 0.69379 0.83538 0.0
C1300 C 0.99129 0.69164 0.81045 0.0
C1301 C 1.02293 0.67755 0.82181 0.0
C1302 C 1.01107 0.70935 0.83618 0.0
C1303 C 0.99356 0.70834 0.82378 0.0
O1304 O 0.99501 0.64077 0.81721 0.0
O1305 O 1.02254 0.62717 0.77361 0.0
O1306 O 1.01026 0.62203 0.73996 0.0
O1307 O 0.98358 0.63358 0.76096 0.0
O1308 O 1.00992 0.6187 0.7989 0.0
O1309 O 0.96951 0.63907 0.79513 0.0
O1310 O 0.04573 0.63908 0.7168 0.0
O1311 O 1.00844 0.66296 0.75544 0.0
O1312 O 1.01366 0.68552 0.7797 0.0
O1313 O 0.03821 0.68168 0.75527 0.0
O1314 O 1.01134 0.65199 0.72569 0.0
O1315 O 0.06187 0.66169 0.73483 0.0
C1316 C 1.01982 0.6103 0.78414 0.0
C1317 C 0.96136 0.64584 0.82952 0.0
C1318 C 0.92761 0.64673 0.8453 0.0
C1319 C 0.9419 0.63716 0.83241 0.0
C1320 C 0.93275 0.6662 0.85323 0.0
C1321 C 0.96705 0.66311 0.84081 0.0
C1322 C 0.95252 0.67386 0.85167 0.0
C1323 C 0.99075 0.62185 0.74609 0.0
C1324 C 0.97532 0.63724 0.8143 0.0
C1325 C 0.97842 0.72346 0.82433 0.0
C1326 C 0.96107 0.72192 0.8118 0.0
C1327 C 1.00026 0.66287 0.73771 0.0
C1328 C 0.05241 0.67035 0.70141 0.0
C1329 C 0.0617 0.67071 0.68232 0.0
C1330 C 0.05529 0.68508 0.66783 0.0
C1331 C 0.03895 0.69826 0.672 0.0
C1332 C 0.03676 0.68439 0.70572 0.0
C1333 C 0.02981 0.69797 0.691 0.0
C1334 C 1.02746 0.69468 0.76718 0.0
C1335 C 0.05795 0.65481 0.71654 0.0
H1336 H 0.93838 0.62286 0.82492 0.0
H1337 H 0.92183 0.67547 0.86131 0.0
H1338 H 0.98259 0.66861 0.84098 0.0
H1339 H 0.95664 0.68808 0.85906 0.0
H1340 H 0.07435 0.66058 0.67909 0.0
H1341 H 0.03404 0.70952 0.66088 0.0
H1342 H 0.02968 0.68501 0.72037 0.0
H1343 H 1.01765 0.70855 0.69451 0.0
Eu1344 Eu 0.15944 0.24004 0.53239 0.0
C1345 C 0.1917 0.31368 0.51778 0.0
C1346 C 0.17678 0.32769 0.54854 0.0
C1347 C 0.20834 0.34206 0.53515 0.0
C1348 C 0.17591 0.31394 0.53201 0.0
C1349 C 0.20805 0.32775 0.51926 0.0
C1350 C 0.19283 0.34195 0.54982 0.0
C1351 C 0.22354 0.31157 0.49003 0.0
N1352 N 0.19145 0.29929 0.5029 0.0
C1353 C 0.20751 0.29739 0.48968 0.0
C1354 C 0.22376 0.32689 0.50483 0.0
Eu1355 Eu 0.16047 0.2809 0.49997 0.0
N1356 N 0.16038 0.30009 0.5304 0.0
C1357 C 0.14659 0.29784 0.5458 0.0
C1358 C 0.16178 0.32635 0.56365 0.0
C1359 C 0.14689 0.31108 0.56247 0.0
H1360 H 0.20722 0.28591 0.47787 0.0
H1361 H 0.13569 0.3094 0.57447 0.0
H1362 H 0.19359 0.35275 0.5623 0.0
H1363 H 0.23579 0.31053 0.47904 0.0
H1364 H 0.13551 0.28576 0.54564 0.0
H1365 H 0.16852 0.15972 0.51043 0.0
H1366 H 0.16197 0.33659 0.57661 0.0
H1367 H 0.1261 0.25839 0.56791 0.0
H1368 H 0.18059 0.1946 0.51803 0.0
H1369 H 0.09311 0.24833 0.58294 0.0
H1370 H 0.22073 0.35302 0.5365 0.0
H1371 H 0.13267 0.14993 0.51749 0.0
H1372 H 0.09915 0.15873 0.53355 0.0
H1373 H 0.23644 0.3376 0.50534 0.0
H1374 H 0.07889 0.18263 0.55398 0.0
N1375 N 0.15127 0.20512 0.52741 0.0
C1376 C 0.16477 0.19071 0.52079 0.0
C1377 C 0.13779 0.16537 0.52061 0.0
C1378 C 0.12481 0.17948 0.52987 0.0
C1379 C 0.15805 0.17083 0.51664 0.0
C1380 C 0.13218 0.19945 0.5335 0.0
H1381 H 0.07683 0.21565 0.57304 0.0
N1382 N 0.12863 0.23157 0.54965 0.0
C1383 C 0.10064 0.23827 0.57229 0.0
C1384 C 0.12068 0.21291 0.54514 0.0
C1385 C 0.11948 0.24377 0.56397 0.0
C1386 C 0.09148 0.21986 0.56659 0.0
C1387 C 0.10165 0.20674 0.55322 0.0
O1388 O 0.16365 0.25159 0.56385 0.0
O1389 O 0.18224 0.26779 0.52607 0.0
O1390 O 0.18262 0.25811 0.48507 0.0
O1391 O 0.1771 0.22866 0.50486 0.0
O1392 O 0.19378 0.23866 0.52873 0.0
O1393 O 0.17478 0.22157 0.55438 0.0
O1394 O 0.16982 0.30379 0.47759 0.0
O1395 O 0.14516 0.25221 0.50544 0.0
O1396 O 0.12379 0.25187 0.52598 0.0
O1397 O 0.12462 0.28309 0.51016 0.0
O1398 O 0.15099 0.25823 0.47511 0.0
O1399 O 0.13806 0.2977 0.48108 0.0
C1400 C 0.20004 0.25736 0.52645 0.0
C1401 C 0.1645 0.22304 0.58798 0.0
C1402 C 0.16368 0.19072 0.60766 0.0
C1403 C 0.17196 0.20313 0.59203 0.0
C1404 C 0.14735 0.19923 0.61899 0.0
C1405 C 0.14942 0.2312 0.6005 0.0
C1406 C 0.14064 0.21918 0.61561 0.0
C1407 C 0.18555 0.23842 0.48913 0.0
C1408 C 0.17178 0.234 0.56961 0.0
C1409 C 0.09366 0.18746 0.54824 0.0
C1410 C 0.10519 0.17388 0.53656 0.0
C1411 C 0.14244 0.24558 0.48747 0.0
C1412 C 0.15137 0.29881 0.44754 0.0
C1413 C 0.13728 0.30733 0.43382 0.0
C1414 C 0.13656 0.30051 0.41344 0.0
C1415 C 0.14978 0.28492 0.40709 0.0
C1416 C 0.1648 0.28354 0.44063 0.0
C1417 C 0.16379 0.27649 0.42066 0.0
C1418 C 0.11297 0.2683 0.51888 0.0
C1419 C 0.15206 0.30513 0.46916 0.0
H1420 H 0.18402 0.19747 0.58245 0.0
H1421 H 0.13938 0.19102 0.63075 0.0
H1422 H 0.14401 0.24664 0.5983 0.0
H1423 H 0.12838 0.22532 0.62475 0.0
H1424 H 0.12702 0.31921 0.43894 0.0
H1425 H 0.14977 0.27969 0.39142 0.0
H1426 H 0.17615 0.27692 0.45068 0.0
H1427 H 0.17409 0.26465 0.4156 0.0
Eu1428 Eu 0.52412 0.4013 0.2449 0.0
C1429 C 0.53627 0.36233 0.31582 0.0
C1430 C 0.50568 0.37679 0.33063 0.0
C1431 C 0.51859 0.34422 0.34293 0.0
C1432 C 0.52239 0.37831 0.31719 0.0
C1433 C 0.53447 0.34514 0.32865 0.0
C1434 C 0.50411 0.3599 0.34378 0.0
C1435 C 0.56271 0.32978 0.31066 0.0
N1436 N 0.55101 0.3632 0.30136 0.0
C1437 C 0.56349 0.34683 0.29785 0.0
C1438 C 0.54846 0.32917 0.32646 0.0
Eu1439 Eu 0.55544 0.39554 0.28615 0.0
N1440 N 0.52439 0.39461 0.30445 0.0
C1441 C 0.50898 0.40852 0.30269 0.0
C1442 C 0.49066 0.39194 0.33 0.0
C1443 C 0.49208 0.40759 0.31561 0.0
H1444 H 0.57508 0.34759 0.28618 0.0
H1445 H 0.48008 0.41886 0.31434 0.0
H1446 H 0.49151 0.35862 0.35438 0.0
H1447 H 0.57318 0.31723 0.30846 0.0
H1448 H 0.5092 0.42009 0.2911 0.0
H1449 H 0.54802 0.3839 0.16606 0.0
H1450 H 0.47753 0.39126 0.34 0.0
H1451 H 0.48911 0.43797 0.25531 0.0
H1452 H 0.53506 0.37508 0.20022 0.0
H1453 H 0.48045 0.47265 0.24296 0.0
H1454 H 0.51699 0.33114 0.35295 0.0
H1455 H 0.54975 0.42004 0.15516 0.0
H1456 H 0.53992 0.45644 0.16176 0.0
H1457 H 0.54799 0.31607 0.33654 0.0
H1458 H 0.52127 0.48097 0.18294 0.0
N1459 N 0.53191 0.40609 0.2096 0.0
C1460 C 0.53631 0.39096 0.19591 0.0
C1461 C 0.54446 0.41629 0.17035 0.0
C1462 C 0.53703 0.43145 0.18332 0.0
C1463 C 0.54347 0.39587 0.17643 0.0
C1464 C 0.53056 0.4258 0.20305 0.0
H1465 H 0.49807 0.48684 0.21274 0.0
N1466 N 0.512 0.43323 0.23279 0.0
C1467 C 0.49183 0.4637 0.2351 0.0
C1468 C 0.52017 0.43978 0.215 0.0
C1469 C 0.49659 0.44407 0.24191 0.0
C1470 C 0.50194 0.47169 0.21814 0.0
C1471 C 0.51575 0.45946 0.20744 0.0
O1472 O 0.49561 0.39125 0.26024 0.0
O1473 O 0.53012 0.37574 0.26978 0.0
O1474 O 0.57071 0.37622 0.26123 0.0
O1475 O 0.55183 0.38491 0.23196 0.0
O1476 O 0.52586 0.36648 0.23999 0.0
O1477 O 0.4954 0.4028 0.22924 0.0
O1478 O 0.5744 0.41531 0.30603 0.0
O1479 O 0.54984 0.41473 0.25998 0.0
O1480 O 0.52977 0.4355 0.26062 0.0
O1481 O 0.5453 0.43101 0.29164 0.0
O1482 O 0.57988 0.40705 0.26434 0.0
O1483 O 0.57794 0.38312 0.30749 0.0
C1484 C 0.52907 0.35883 0.25822 0.0
C1485 C 0.47359 0.37535 0.23492 0.0
C1486 C 0.46207 0.35594 0.20495 0.0
C1487 C 0.47497 0.37052 0.21396 0.0
C1488 C 0.44843 0.34508 0.21749 0.0
C1489 C 0.45987 0.3644 0.24711 0.0
C1490 C 0.44753 0.34916 0.23843 0.0
C1491 C 0.56722 0.37541 0.24122 0.0
C1492 C 0.48524 0.393 0.24313 0.0
C1493 C 0.52404 0.46573 0.18876 0.0
C1494 C 0.53465 0.45173 0.17669 0.0
C1495 C 0.56756 0.41736 0.25298 0.0
C1496 C 0.60807 0.402 0.30624 0.0
C1497 C 0.62221 0.41263 0.31847 0.0
C1498 C 0.6429 0.41403 0.31247 0.0
C1499 C 0.64881 0.40566 0.29362 0.0
C1500 C 0.61492 0.39238 0.28834 0.0
C1501 C 0.63495 0.39469 0.28182 0.0
C1502 C 0.53676 0.44435 0.27815 0.0
C1503 C 0.58623 0.40046 0.31175 0.0
H1504 H 0.48583 0.37846 0.20431 0.0
H1505 H 0.43807 0.33383 0.21106 0.0
H1506 H 0.45846 0.36785 0.26319 0.0
H1507 H 0.43682 0.34085 0.24789 0.0
H1508 H 0.61719 0.41926 0.33271 0.0
H1509 H 0.66427 0.40737 0.288 0.0
H1510 H 0.6048 0.38299 0.27924 0.0
H1511 H 0.63981 0.38778 0.26766 0.0
Eu1512 Eu 0.40551 0.81264 0.03467 0.0
C1513 C 0.36104 0.74637 1.02008 0.0
C1514 C 0.3726 0.73275 0.05265 0.0
C1515 C 0.33822 0.72526 0.04046 0.0
C1516 C 0.37647 0.7442 0.03479 0.0
C1517 C 0.34183 0.73687 1.02285 0.0
C1518 C 0.35353 0.7232 0.05528 0.0
C1519 C 0.33075 0.75123 0.99065 0.0
N1520 N 0.36457 0.75814 1.00335 0.0
C1521 C 0.34981 0.76072 0.9887 0.0
C1522 C 0.32667 0.73942 1.00789 0.0
Eu1523 Eu 0.39773 0.77215 1.00112 0.0
N1524 N 0.39479 0.75394 0.03218 0.0
C1525 C 0.40933 0.7534 0.04719 0.0
C1526 C 0.38783 0.73158 0.06765 0.0
C1527 C 0.40618 0.7421 0.06497 0.0
H1528 H 0.35285 0.77006 0.97544 0.0
H1529 H 0.41786 0.74172 0.07674 0.0
H1530 H 0.35038 0.71436 0.0689 0.0
H1531 H 0.31912 0.75334 0.97904 0.0
H1532 H 0.42323 0.7619 0.04605 0.0
H1533 H 0.38565 0.89014 1.00614 0.0
H1534 H 0.38541 0.72296 0.08155 0.0
H1535 H 0.4461 0.80813 0.06741 0.0
H1536 H 0.37864 0.85842 1.02544 0.0
H1537 H 0.48215 0.81989 0.06866 0.0
H1538 H 0.32353 0.71792 0.04284 0.0
H1539 H 0.42095 0.89817 0.99504 0.0
H1540 H 0.45864 0.89046 0.99826 0.0
H1541 H 0.31174 0.73239 1.00955 0.0
H1542 H 0.48562 0.87125 1.01621 0.0
N1543 N 0.40929 0.84753 1.02328 0.0
C1544 C 0.39409 0.8617 1.02055 0.0
C1545 C 0.41791 0.88414 1.0033 0.0
C1546 C 0.43389 0.87138 1.00945 0.0
C1547 C 0.39799 0.87971 1.00964 0.0
C1548 C 0.42902 0.8532 1.01994 0.0
H1549 H 0.49446 0.84546 0.04361 0.0
N1550 N 0.43857 0.82644 0.04157 0.0
C1551 C 0.47173 0.82618 0.05744 0.0
C1552 C 0.44423 0.84237 0.02974 0.0
C1553 C 0.4513 0.81977 0.05687 0.0
C1554 C 0.47863 0.84052 0.0432 0.0
C1555 C 0.4646 0.84946 1.02967 0.0
O1556 O 0.39994 0.79829 0.06472 0.0
O1557 O 0.38107 0.78795 1.0271 0.0
O1558 O 0.3769 0.79797 0.98791 0.0
O1559 O 0.38589 0.82544 1.00931 0.0
O1560 O 0.36957 0.81434 0.03799 0.0
O1561 O 0.40739 0.83062 0.06184 0.0
O1562 O 0.38702 0.74603 0.98325 0.0
O1563 O 0.41736 0.79824 1.00734 0.0
O1564 O 0.43832 0.79419 0.03043 0.0
O1565 O 0.43342 0.76636 1.00982 0.0
O1566 O 0.40623 0.79593 0.97736 0.0
O1567 O 0.41775 0.75626 0.97963 0.0
C1568 C 0.36321 0.7965 0.03156 0.0
C1569 C 0.38547 0.82231 0.08871 0.0
C1570 C 0.36676 0.85041 0.10498 0.0
C1571 C 0.37755 0.84238 0.08828 0.0
C1572 C 0.36259 0.83721 0.1215 0.0
C1573 C 0.38075 0.80954 0.10514 0.0
C1574 C 0.36909 0.81689 0.12128 0.0
C1575 C 0.37551 0.81756 0.99382 0.0
C1576 C 0.40124 0.81606 0.0739 0.0
C1577 C 0.46991 0.86601 1.0171 0.0
C1578 C 0.45453 0.87694 1.00687 0.0
C1579 C 0.41794 0.80622 0.98972 0.0
C1580 C 0.3989 0.74903 0.94972 0.0
C1581 C 0.41534 0.75246 0.9366 0.0
C1582 C 0.41193 0.75616 0.91579 0.0
C1583 C 0.39176 0.75753 0.90838 0.0
C1584 C 0.37881 0.74981 0.94191 0.0
C1585 C 0.37531 0.75446 0.92145 0.0
C1586 C 0.44681 0.77785 1.02082 0.0
C1587 C 0.40281 0.74588 0.97162 0.0
H1588 H 0.3805 0.85198 0.07517 0.0
H1589 H 0.35489 0.84253 0.13502 0.0
H1590 H 0.38671 0.79414 0.10585 0.0
H1591 H 0.36581 0.80704 0.13413 0.0
H1592 H 0.43086 0.75169 0.94248 0.0
H1593 H 0.38864 0.75983 0.89231 0.0
H1594 H 0.36576 0.74682 0.9515 0.0
H1595 H 0.35982 0.7551 0.91558 0.0
Eu1596 Eu 0.99393 0.40592 0.77631 0.0
C1597 C 0.06795 0.44038 0.79323 0.0
C1598 C 0.07775 0.42939 0.75935 0.0
C1599 C 0.09318 0.45984 0.77412 0.0
C1600 C 0.06621 0.42657 0.77725 0.0
C1601 C 0.08149 0.45715 0.79181 0.0
C1602 C 0.09133 0.446 0.75794 0.0
C1603 C 0.07103 0.4674 0.82556 0.0
N1604 N 0.05623 0.43762 0.81002 0.0
C1605 C 0.05784 0.45058 0.82628 0.0
C1606 C 0.08285 0.47076 0.80822 0.0
Eu1607 Eu 0.03509 0.40838 0.81006 0.0
N1608 N 0.05274 0.4108 0.77889 0.0
C1609 C 0.04961 0.39774 0.76298 0.0
C1610 C 0.07506 0.41564 0.74323 0.0
C1611 C 0.0608 0.39983 0.74501 0.0
H1612 H 0.04832 0.44851 0.83956 0.0
H1613 H 0.05825 0.38938 0.73248 0.0
H1614 H 0.10035 0.44838 0.74432 0.0
H1615 H 0.07188 0.47789 0.83829 0.0
H1616 H 0.03822 0.38595 0.76377 0.0
H1617 H 0.91737 0.41676 0.81058 0.0
H1618 H 0.08364 0.41729 0.72923 0.0
H1619 H 1.00436 0.37088 0.73892 0.0
H1620 H 0.94913 0.42884 0.79497 0.0
H1621 H 0.99198 0.33706 0.72832 0.0
H1622 H 0.10366 0.47263 0.77276 0.0
H1623 H 0.90792 0.38024 0.8091 0.0
H1624 H 0.91455 0.34564 0.79457 0.0
H1625 H 0.09298 0.48389 0.80765 0.0
H1626 H 0.93443 0.32409 0.77139 0.0
N1627 N 0.95951 0.39889 0.78689 0.0
C1628 C 0.94595 0.41263 0.7949 0.0
C1629 C 0.92227 0.38533 0.80259 0.0
C1630 C 0.93475 0.37184 0.79189 0.0
C1631 C 0.92756 0.40595 0.80348 0.0
C1632 C 0.95338 0.3792 0.7838 0.0
H1633 H 0.9627 0.32107 0.746 0.0
N1634 N 0.98179 0.37464 0.76209 0.0
C1635 C 0.98417 0.34524 0.74029 0.0
C1636 C 0.96463 0.36689 0.77077 0.0
C1637 C 0.99083 0.36468 0.74606 0.0
C1638 C 0.96773 0.33623 0.75041 0.0
C1639 C 0.95746 0.3472 0.76551 0.0
O1640 O 1.00438 0.40747 0.74428 0.0
O1641 O 1.0216 0.4275 0.78404 0.0
O1642 O 1.01325 0.43341 0.82115 0.0
O1643 O 0.98347 0.42567 0.8023 0.0
O1644 O 0.99674 0.44155 0.77265 0.0
O1645 O 0.97473 0.4196 0.75404 0.0
O1646 O 0.048 0.41159 0.84055 0.0
O1647 O 1.00656 0.392 0.80378 0.0
O1648 O 1.00726 0.37054 0.78118 0.0
O1649 O 0.03665 0.3728 0.80025 0.0
O1650 O 1.01045 0.40159 0.83356 0.0
O1651 O 0.06054 0.38918 0.82004 0.0
C1652 C 1.01491 0.4462 0.77926 0.0
C1653 C 0.97531 0.40751 0.72064 0.0
C1654 C 0.94294 0.40622 0.70155 0.0
C1655 C 0.9544 0.41232 0.71861 0.0
C1656 C 0.95261 0.39465 0.68639 0.0
C1657 C 0.98479 0.3963 0.7052 0.0
C1658 C 0.9734 0.38975 0.68826 0.0
C1659 C 0.99361 0.43625 0.81626 0.0
C1660 C 0.98663 0.41534 0.73864 0.0
C1661 C 0.93988 0.33935 0.7749 0.0
C1662 C 0.92858 0.35162 0.78813 0.0
C1663 C 0.99848 0.39187 0.82125 0.0
C1664 C 0.05501 0.37986 0.85417 0.0
C1665 C 0.06636 0.3788 0.87228 0.0
C1666 C 0.05966 0.36607 0.88823 0.0
C1667 C 0.04094 0.35547 0.88612 0.0
C1668 C 0.03749 0.36764 0.85177 0.0
C1669 C 0.03029 0.35584 0.86782 0.0
C1670 C 1.02332 0.36062 0.7901 0.0
C1671 C 0.05945 0.39552 0.83887 0.0
H1672 H 0.94685 0.42098 0.73043 0.0
H1673 H 0.94428 0.3898 0.67291 0.0
H1674 H 1.0009 0.39263 0.70619 0.0
H1675 H 0.98077 0.38104 0.67639 0.0
H1676 H 0.0803 0.38769 0.87375 0.0
H1677 H 0.03466 0.34645 0.89847 0.0
H1678 H 0.029 0.36771 0.83769 0.0
H1679 H 1.01644 0.34695 0.86616 0.0
Eu1680 Eu 0.40668 0.24413 0.52323 0.0
C1681 C 0.36777 0.31104 0.54771 0.0
C1682 C 0.37664 0.32728 0.51566 0.0
C1683 C 0.34459 0.33563 0.53233 0.0
C1684 C 0.38147 0.31384 0.53178 0.0
C1685 C 0.34926 0.32198 0.5482 0.0
C1686 C 0.3582 0.3382 0.51607 0.0
C1687 C 0.34092 0.30454 0.57964 0.0
N1688 N 0.37241 0.29742 0.56261 0.0
C1689 C 0.3595 0.29415 0.57859 0.0
C1690 C 0.33579 0.31857 0.56442 0.0
Eu1691 Eu 0.40465 0.28209 0.56037 0.0
N1692 N 0.39924 0.3031 0.53176 0.0
C1693 C 0.41255 0.30469 0.51592 0.0
C1694 C 0.3904 0.32918 0.49947 0.0
C1695 C 0.40837 0.31774 0.49956 0.0
H1696 H 0.36365 0.28378 0.59075 0.0
H1697 H 0.41898 0.31891 0.48699 0.0
H1698 H 0.35426 0.3486 0.50381 0.0
H1699 H 0.33066 0.30187 0.59228 0.0
H1700 H 0.42626 0.29574 0.51556 0.0
H1701 H 0.35569 0.17657 0.52815 0.0
H1702 H 0.38721 0.33928 0.48675 0.0
H1703 H 0.45373 0.23898 0.50078 0.0
H1704 H 0.36432 0.21188 0.51991 0.0
H1705 H 0.48241 0.21494 0.50137 0.0
H1706 H 0.33037 0.34407 0.53235 0.0
H1707 H 0.38257 0.15254 0.53919 0.0
H1708 H 0.42003 0.14496 0.54206 0.0
H1709 H 0.32141 0.32667 0.56532 0.0
H1710 H 0.45522 0.15543 0.53398 0.0
N1711 N 0.39621 0.20886 0.52664 0.0
C1712 C 0.37643 0.20194 0.5247 0.0
C1713 C 0.38657 0.16822 0.53563 0.0
C1714 C 0.40697 0.17459 0.53521 0.0
C1715 C 0.37134 0.18175 0.52951 0.0
C1716 C 0.41134 0.19515 0.53025 0.0
H1717 H 0.47866 0.18142 0.51835 0.0
N1718 N 0.4341 0.2202 0.51896 0.0
C1719 C 0.46819 0.21093 0.50879 0.0
C1720 C 0.43108 0.20106 0.52616 0.0
C1721 C 0.45188 0.22466 0.50881 0.0
C1722 C 0.46604 0.19209 0.51844 0.0
C1723 C 0.44704 0.18658 0.52648 0.0
O1724 O 0.3985 0.26379 0.497 0.0
O1725 O 0.38314 0.26725 0.53653 0.0
O1726 O 0.38319 0.25729 0.57202 0.0
O1727 O 0.39127 0.22979 0.55047 0.0
O1728 O 0.37154 0.24652 0.51731 0.0
O1729 O 0.41429 0.23547 0.49236 0.0
O1730 O 0.40459 0.28798 0.59294 0.0
O1731 O 0.42238 0.25596 0.55013 0.0
O1732 O 0.44109 0.2594 0.52747 0.0
O1733 O 0.44041 0.28611 0.55002 0.0
O1734 O 0.41697 0.25744 0.58102 0.0
O1735 O 0.41721 0.31073 0.5724 0.0
C1736 C 0.36515 0.26149 0.52857 0.0
C1737 C 0.38619 0.24099 0.47119 0.0
C1738 C 0.3655 0.21147 0.46046 0.0
C1739 C 0.38124 0.21998 0.47235 0.0
C1740 C 0.35425 0.22444 0.44752 0.0
C1741 C 0.37474 0.25361 0.45827 0.0
C1742 C 0.35881 0.24534 0.44654 0.0
C1743 C 0.38206 0.23783 0.56651 0.0
C1744 C 0.40291 0.24933 0.48407 0.0
C1745 C 0.44309 0.16664 0.53326 0.0
C1746 C 0.42306 0.16069 0.53786 0.0
C1747 C 0.42569 0.24691 0.56697 0.0
C1748 C 0.40606 0.32143 0.60522 0.0
C1749 C 0.41557 0.32306 0.62435 0.0
C1750 C 0.40889 0.33752 0.63854 0.0
C1751 C 0.39231 0.35019 0.63339 0.0
C1752 C 0.38956 0.3341 0.60024 0.0
C1753 C 0.38268 0.3484 0.61438 0.0
C1754 C 0.4518 0.27441 0.53737 0.0
C1755 C 0.41336 0.30574 0.5913 0.0
H1756 H 0.38956 0.21011 0.4827 0.0
H1757 H 0.34215 0.21842 0.43789 0.0
H1758 H 0.37809 0.2698 0.4573 0.0
H1759 H 0.35004 0.25514 0.43651 0.0
H1760 H 0.4285 0.31334 0.62799 0.0
H1761 H 0.38683 0.36152 0.64405 0.0
H1762 H 0.38207 0.33296 0.58553 0.0
H1763 H 0.36993 0.3582 0.61056 0.0
Eu1764 Eu 0.56267 0.64747 0.27449 0.0
C1765 C 0.49278 0.60956 0.29454 0.0
C1766 C 0.48001 0.61737 0.26056 0.0
C1767 C 0.46927 0.58614 0.2777 0.0
C1768 C 0.49199 0.6226 0.2777 0.0
C1769 C 0.48125 0.59133 0.29476 0.0
C1770 C 0.46867 0.59909 0.26065 0.0
C1771 C 0.49364 0.58505 0.32905 0.0
N1772 N 0.50474 0.6147 0.31072 0.0
C1773 C 0.50484 0.60325 0.32812 0.0
C1774 C 0.48196 0.57895 0.31221 0.0
Eu1775 Eu 0.52179 0.646 0.30791 0.0
N1776 N 0.5032 0.64017 0.2779 0.0
C1777 C 0.50332 0.65307 0.2616 0.0
C1778 C 0.47991 0.63062 0.24376 0.0
C1779 C 0.49166 0.64851 0.24427 0.0
H1780 H 0.51372 0.60804 0.34124 0.0
H1781 H 0.49178 0.65875 0.2313 0.0
H1782 H 0.45937 0.59483 0.2476 0.0
H1783 H 0.49405 0.57576 0.34271 0.0
H1784 H 0.5125 0.66675 0.26183 0.0
H1785 H 0.6399 0.64664 0.30926 0.0
H1786 H 0.47091 0.62713 0.23028 0.0
H1787 H 0.5473 0.67776 0.23497 0.0
H1788 H 0.60839 0.63077 0.29641 0.0
H1789 H 0.55786 0.70989 0.21855 0.0
H1790 H 0.46035 0.57216 0.27755 0.0
H1791 H 0.64738 0.68278 0.30181 0.0
H1792 H 0.63857 0.71433 0.28226 0.0
H1793 H 0.47333 0.5648 0.31294 0.0
H1794 H 0.61687 0.73119 0.25666 0.0
N1795 N 0.59652 0.65824 0.28351 0.0
C1796 C 0.61077 0.64677 0.29367 0.0
C1797 C 0.63319 0.67603 0.29642 0.0
C1798 C 0.61978 0.68703 0.28397 0.0
C1799 C 0.62898 0.65562 0.3007 0.0
C1800 C 0.60143 0.67757 0.27743 0.0
H1801 H 0.58748 0.7292 0.23213 0.0
N1802 N 0.57186 0.6777 0.2565 0.0
C1803 C 0.56677 0.70374 0.23107 0.0
C1804 C 0.58903 0.68733 0.2632 0.0
C1805 C 0.56118 0.68521 0.24004 0.0
C1806 C 0.58339 0.71465 0.23889 0.0
C1807 C 0.59489 0.7064 0.25495 0.0
O1808 O 0.55099 0.64123 0.24348 0.0
O1809 O 0.53556 0.62567 0.28271 0.0
O1810 O 0.54409 0.62327 0.32177 0.0
O1811 O 0.57373 0.63069 0.30293 0.0
O1812 O 0.56301 0.61201 0.27634 0.0
O1813 O 0.58214 0.63297 0.25296 0.0
O1814 O 0.51287 0.64813 0.33918 0.0
O1815 O 0.54936 0.6624 0.30041 0.0
O1816 O 0.54731 0.68221 0.27647 0.0
O1817 O 0.52005 0.68186 0.29838 0.0
O1818 O 0.54495 0.65729 0.33135 0.0
O1819 O 0.49129 0.65775 0.31527 0.0
C1820 C 0.5443 0.60734 0.281 0.0
C1821 C 0.57835 0.64026 0.21844 0.0
C1822 C 0.6097 0.64188 0.19779 0.0
C1823 C 0.59847 0.63383 0.21428 0.0
C1824 C 0.59967 0.65634 0.18518 0.0
C1825 C 0.5684 0.65314 0.20461 0.0
C1826 C 0.57916 0.66137 0.18825 0.0
C1827 C 0.56389 0.62112 0.31795 0.0
C1828 C 0.56893 0.63393 0.2379 0.0
C1829 C 0.61238 0.71635 0.2625 0.0
C1830 C 0.62472 0.70675 0.27709 0.0
C1831 C 0.55684 0.66538 0.31796 0.0
C1832 C 0.47898 0.65107 0.34915 0.0
C1833 C 0.48115 0.66123 0.36746 0.0
C1834 C 0.46594 0.66047 0.38209 0.0
C1835 C 0.44923 0.64718 0.37929 0.0
C1836 C 0.46245 0.63783 0.34588 0.0
C1837 C 0.44772 0.63561 0.36127 0.0
C1838 C 0.53236 0.69305 0.28613 0.0
C1839 C 0.495 0.65558 0.33475 0.0
H1840 H 0.60516 0.62261 0.22433 0.0
H1841 H 0.60738 0.66409 0.17287 0.0
H1842 H 0.55257 0.65735 0.20673 0.0
H1843 H 0.57167 0.67206 0.17808 0.0
H1844 H 0.49464 0.6707 0.37 0.0
H1845 H 0.43724 0.64618 0.39058 0.0
H1846 H 0.46099 0.62938 0.33176 0.0
H1847 H 0.43486 0.62539 0.359 0.0
Eu1848 Eu 0.15604 0.78094 0.06397 0.0
C1849 C 0.1154 0.78067 0.99355 0.0
C1850 C 0.12754 0.74645 0.98642 0.0
C1851 C 0.09595 0.75853 0.97086 0.0
C1852 C 0.13021 0.7656 0.99583 0.0
C1853 C 0.09825 0.77733 0.98087 0.0
C1854 C 0.11044 0.74306 0.9738 0.0
C1855 C 0.08588 0.81075 0.9904 0.0
N1856 N 0.1176 0.79844 1.00396 0.0
C1857 C 0.10301 0.81328 1.00298 0.0
C1858 C 0.08373 0.79289 0.97893 0.0
Eu1859 Eu 0.15039 0.80378 1.0175 0.0
N1860 N 0.14691 0.76948 1.00766 0.0
C1861 C 0.16088 0.75461 1.0117 0.0
C1862 C 0.1421 0.73123 0.99008 0.0
C1863 C 0.15867 0.73526 1.00301 0.0
H1864 H 0.10506 0.82754 1.01101 0.0
H1865 H 0.16986 0.72351 1.00615 0.0
H1866 H 0.10823 0.72848 0.96629 0.0
H1867 H 0.07455 0.82271 0.98925 0.0
H1868 H 0.17368 0.75747 1.02158 0.0
H1869 H 0.15677 0.82791 0.13401 0.0
H1870 H 0.14056 0.71627 0.98319 0.0
H1871 H 0.18471 0.73878 0.05563 0.0
H1872 H 0.14025 0.81028 0.10533 0.0
H1873 H 0.21778 0.72472 0.06723 0.0
H1874 H 0.08281 0.75565 0.96113 0.0
H1875 H 0.193 0.82117 0.14229 0.0
H1876 H 0.22431 0.80029 0.13625 0.0
H1877 H 0.07065 0.79111 0.96889 0.0
H1878 H 0.24077 0.77177 0.11849 0.0
N1879 N 0.16754 0.7956 0.09537 0.0
C1880 C 0.15632 0.80783 0.10798 0.0
C1881 C 0.18595 0.81368 0.12929 0.0
C1882 C 0.19662 0.79917 0.11797 0.0
C1883 C 0.16551 0.81756 0.12464 0.0
C1884 C 0.18683 0.79002 0.10101 0.0
H1885 H 0.2381 0.74302 0.09341 0.0
N1886 N 0.1865 0.76488 0.07498 0.0
C1887 C 0.21203 0.73868 0.07385 0.0
C1888 C 0.19639 0.77407 0.09078 0.0
C1889 C 0.19323 0.74655 0.06749 0.0
C1890 C 0.22346 0.74909 0.0886 0.0
C1891 C 0.21552 0.76675 0.09756 0.0
O1892 O 0.14731 0.74845 0.05843 0.0
O1893 O 0.13053 0.78195 0.03794 0.0
O1894 O 0.13137 0.82428 0.03831 0.0
O1895 O 0.14203 0.81182 0.07017 0.0
O1896 O 0.12145 0.78514 0.06764 0.0
O1897 O 0.14793 0.76259 0.08934 0.0
O1898 O 0.14284 0.82894 0.99727 0.0
O1899 O 0.16917 0.80341 0.04414 0.0
O1900 O 0.19026 0.78075 0.04779 0.0
O1901 O 0.18652 0.79446 1.01573 0.0
O1902 O 0.16536 0.83221 0.03185 0.0
O1903 O 0.16259 0.80472 0.98656 0.0
C1904 C 0.11371 0.78408 0.04932 0.0
C1905 C 0.13671 0.72797 0.08877 0.0
C1906 C 0.12344 0.71258 0.12006 0.0
C1907 C 0.12889 0.72986 0.10868 0.0
C1908 C 0.12554 0.69318 0.11119 0.0
C1909 C 0.13844 0.70856 0.08004 0.0
C1910 C 0.13284 0.69124 0.09125 0.0
C1911 C 0.13215 0.8252 0.05853 0.0
C1912 C 0.14437 0.74632 0.07827 0.0
C1913 C 0.22582 0.77685 0.11345 0.0
C1914 C 0.21644 0.79308 0.12356 0.0
C1915 C 0.17405 0.82198 0.04632 0.0
C1916 C 0.167 0.8375 0.97199 0.0
C1917 C 0.16958 0.85743 0.97964 0.0
C1918 C 0.181 0.87174 0.9686 0.0
C1919 C 0.18985 0.86614 0.94996 0.0
C1920 C 0.17585 0.83215 0.95331 0.0
C1921 C 0.18725 0.84643 0.94237 0.0
C1922 C 0.19941 0.7865 0.03003 0.0
C1923 C 0.15426 0.82235 0.98249 0.0
H1924 H 0.12755 0.7448 0.11564 0.0
H1925 H 0.12132 0.67954 0.11958 0.0
H1926 H 0.14452 0.70678 0.06481 0.0
H1927 H 0.13434 0.67624 0.08453 0.0
H1928 H 0.16278 0.86187 0.99401 0.0
H1929 H 0.19858 0.87714 0.94116 0.0
H1930 H 0.17375 0.81696 0.94709 0.0
H1931 H 0.19395 0.84226 0.92791 0.0
Eu1932 Eu 0.78184 0.99071 0.65885 0.0
C1933 C 0.78473 0.06652 0.62365 0.0
C1934 C 0.81299 0.07977 0.64367 0.0
C1935 C 0.80642 0.0933 0.60974 0.0
C1936 C 0.79571 0.06693 0.64179 0.0
C1937 C 0.79022 0.0794 0.60728 0.0
C1938 C 0.81784 0.09344 0.62787 0.0
C1939 C 0.76451 0.06263 0.58659 0.0
N1940 N 0.76955 0.05257 0.62155 0.0
C1941 C 0.75996 0.04989 0.60306 0.0
C1942 C 0.77959 0.07761 0.58876 0.0
Eu1943 Eu 0.7584 0.03717 0.65235 0.0
N1944 N 0.79068 0.0535 0.6568 0.0
C1945 C 0.80413 0.04996 0.67243 0.0
C1946 C 0.82547 0.07781 0.66095 0.0
C1947 C 0.82137 0.06238 0.67504 0.0
H1948 H 0.7481 0.03843 0.60131 0.0
H1949 H 0.83163 0.05985 0.6878 0.0
H1950 H 0.83084 0.10368 0.62923 0.0
H1951 H 0.75649 0.06077 0.57222 0.0
H1952 H 0.80211 0.0374 0.68275 0.0
H1953 H 0.75534 0.91166 0.64705 0.0
H1954 H 0.8389 0.08736 0.66295 0.0
H1955 H 0.81842 1.00307 0.69341 0.0
H1956 H 0.76611 0.94635 0.63604 0.0
H1957 H 0.82914 0.99217 0.72804 0.0
H1958 H 0.81069 0.10352 0.59744 0.0
H1959 H 0.75593 0.90235 0.6833 0.0
H1960 H 0.76782 0.91055 0.71867 0.0
H1961 H 0.78328 0.08732 0.5759 0.0
H1962 H 0.7883 0.93268 0.74115 0.0
N1963 N 0.77221 0.95654 0.6662 0.0
C1964 C 0.76601 0.94254 0.65204 0.0
C1965 C 0.7606 0.91757 0.67871 0.0
C1966 C 0.76902 0.93121 0.69282 0.0
C1967 C 0.75995 0.92294 0.65814 0.0
C1968 C 0.77513 0.95074 0.686 0.0
H1969 H 0.8121 0.96265 0.74444 0.0
N1970 N 0.7948 0.98066 0.69108 0.0
C1971 C 0.81705 0.98404 0.72011 0.0
C1972 C 0.78684 0.96314 0.69878 0.0
C1973 C 0.81109 0.99006 0.70053 0.0
C1974 C 0.80729 0.96745 0.72935 0.0
C1975 C 0.79253 0.95633 0.71842 0.0
O1976 O 0.81151 1.00494 0.65106 0.0
O1977 O 0.78051 1.01626 0.63396 0.0
O1978 O 0.74024 1.01345 0.63267 0.0
O1979 O 0.75292 0.98126 0.64239 0.0
O1980 O 0.77997 0.98649 0.62328 0.0
O1981 O 0.80874 0.97244 0.65792 0.0
O1982 O 0.73637 0.05337 0.63403 0.0
O1983 O 0.75649 1.00858 0.66826 0.0
O1984 O 0.77601 1.00575 0.69326 0.0
O1985 O 0.76615 0.03923 0.68881 0.0
O1986 O 0.7316 1.02636 0.67148 0.0
O1987 O 0.74145 0.06359 0.66458 0.0
C1988 C 0.77974 1.00544 0.61664 0.0
C1989 C 0.8314 0.98032 0.63212 0.0
C1990 C 0.84387 0.95116 0.61255 0.0
C1991 C 0.83671 0.9596 0.63073 0.0
C1992 C 0.84691 0.96412 0.5957 0.0
C1993 C 0.83456 0.99311 0.61523 0.0
C1994 C 0.84249 0.98501 0.59717 0.0
C1995 C 0.73986 0.993 0.63208 0.0
C1996 C 0.82033 0.98691 0.65053 0.0
C1997 C 0.78452 0.93791 0.72591 0.0
C1998 C 0.77289 0.9253 0.71308 0.0
C1999 C 0.73858 1.00855 0.67564 0.0
C2000 C 0.70726 0.05937 0.65244 0.0
C2001 C 0.69696 0.06922 0.66804 0.0
C2002 C 0.67677 0.06375 0.67233 0.0
C2003 C 0.66718 0.0476 0.66188 0.0
C2004 C 0.69698 0.0441 0.64102 0.0
C2005 C 0.67727 0.03792 0.64611 0.0
C2006 C 0.77124 1.02398 0.70211 0.0
C2007 C 0.72904 0.06367 0.64889 0.0
H2008 H 0.83391 0.94959 0.64362 0.0
H2009 H 0.85264 0.95814 0.58145 0.0
H2010 H 0.83046 1.0091 0.6158 0.0
H2011 H 0.84478 0.99486 0.5841 0.0
H2012 H 0.70434 0.08154 0.67636 0.0
H2013 H 0.65141 0.04347 0.66493 0.0
H2014 H 0.70432 0.03653 0.62841 0.0
H2015 H 0.6697 1.02589 0.63758 0.0
Eu2016 Eu 0.82379 0.02787 0.40678 0.0
C2017 C 0.75456 1.01319 0.36698 0.0
C2018 C 0.74233 0.04671 0.37684 0.0
C2019 C 0.73219 0.0322 0.34417 0.0
C2020 C 0.75375 0.029 0.38116 0.0
C2021 C 0.74384 1.01471 0.34832 0.0
C2022 C 0.73144 0.04814 0.35837 0.0
C2023 C 0.75728 0.9817 0.33895 0.0
N2024 N 0.76636 0.99665 0.37112 0.0
C2025 C 0.76754 0.98079 0.35767 0.0
C2026 C 0.74542 0.99876 0.33422 0.0
Eu2027 Eu 0.78225 0.99647 0.40341 0.0
N2028 N 0.76488 1.02748 0.39871 0.0
C2029 C 0.76518 0.04293 0.41259 0.0
C2030 C 0.74252 0.06264 0.39107 0.0
C2031 C 0.75404 0.06076 0.40898 0.0
H2032 H 0.77619 0.96726 0.36141 0.0
H2033 H 0.75439 0.07306 0.41998 0.0
H2034 H 0.72258 0.06164 0.35482 0.0
H2035 H 0.75843 0.9692 0.32824 0.0
H2036 H 0.77413 0.04168 0.42634 0.0
H2037 H 0.89963 0.99339 0.39136 0.0
H2038 H 0.73398 0.07652 0.38829 0.0
H2039 H 0.81929 0.06715 0.43981 0.0
H2040 H 0.86807 1.01116 0.38136 0.0
H2041 H 0.83509 0.07879 0.47204 0.0
H2042 H 0.72389 0.03365 0.3299 0.0
H2043 H 0.90965 0.99134 0.42774 0.0
H2044 H 0.9046 1.00453 0.46331 0.0
H2045 H 0.73753 0.99944 0.31966 0.0
H2046 H 0.88734 0.0292 0.48555 0.0
N2047 N 0.8583 1.01618 0.41206 0.0
C2048 C 0.87166 1.00959 0.3974 0.0
C2049 C 0.89537 0.99858 0.42349 0.0
C2050 C 0.88355 1.00871 0.43799 0.0
C2051 C 0.88981 0.99976 0.40295 0.0
C2052 C 0.86496 1.01767 0.43168 0.0
H2053 H 0.86245 0.05828 0.48823 0.0
N2054 N 0.83843 0.04102 0.43715 0.0
C2055 C 0.84068 0.06518 0.4646 0.0
C2056 C 0.85496 0.03103 0.44452 0.0
C2057 C 0.83192 0.05866 0.44623 0.0
C2058 C 0.85597 0.05345 0.47377 0.0
C2059 C 0.86368 0.03642 0.46349 0.0
O2060 O 0.81066 0.05862 0.40265 0.0
O2061 O 0.79615 1.02263 0.38447 0.0
O2062 O 0.80501 0.98195 0.38044 0.0
O2063 O 0.83448 1.00036 0.38878 0.0
O2064 O 0.82387 1.02736 0.37116 0.0
O2065 O 0.8438 0.05263 0.39851 0.0
O2066 O 0.76824 0.96656 0.40097 0.0
O2067 O 0.80958 1.00191 0.42156 0.0
O2068 O 0.80849 1.02576 0.44166 0.0
O2069 O 0.7805 1.00462 0.44001 0.0
O2070 O 0.80423 0.97174 0.41313 0.0
O2071 O 0.75296 0.99068 0.41809 0.0
C2072 C 0.80495 1.02342 0.36626 0.0
C2073 C 0.83319 0.08716 0.3925 0.0
C2074 C 0.85633 0.11271 0.37789 0.0
C2075 C 0.85109 0.09218 0.38156 0.0
C2076 C 0.84358 0.12808 0.38583 0.0
C2077 C 0.82044 0.10271 0.39954 0.0
C2078 C 0.82573 0.12308 0.39633 0.0
C2079 C 0.825 0.9857 0.37852 0.0
C2080 C 0.82892 0.06588 0.39813 0.0
C2081 C 0.88081 1.02575 0.47073 0.0
C2082 C 0.89063 1.01171 0.45804 0.0
C2083 C 0.81638 0.98391 0.42287 0.0
C2084 C 0.73295 0.96286 0.40618 0.0
C2085 C 0.72583 0.94813 0.41947 0.0
C2086 C 0.70804 0.93717 0.4152 0.0
C2087 C 0.69742 0.94076 0.3969 0.0
C2088 C 0.7223 0.96704 0.38806 0.0
C2089 C 0.7045 0.95588 0.38343 0.0
C2090 C 0.79289 1.01627 0.45203 0.0
C2091 C 0.75246 0.97184 0.4117 0.0
H2092 H 0.86074 0.08013 0.37574 0.0
H2093 H 0.84739 0.14408 0.38397 0.0
H2094 H 0.80675 0.09912 0.40809 0.0
H2095 H 0.81607 0.13507 0.40218 0.0
H2096 H 0.73469 0.94468 0.43313 0.0
H2097 H 0.6838 0.93205 0.39316 0.0
H2098 H 0.72776 0.97851 0.37753 0.0
H2099 H 0.69631 0.95882 0.36935 0.0
Eu2100 Eu 0.77722 0.0639 0.15869 0.0
C2101 C 0.7854 0.99579 0.11764 0.0
C2102 C 0.75165 0.98501 0.12865 0.0
C2103 C 0.76456 0.97425 0.09562 0.0
C2104 C 0.77014 0.99548 0.13242 0.0
C2105 C 0.78283 0.98501 0.09921 0.0
C2106 C 0.74897 0.97436 0.11023 0.0
C2107 C 0.81628 0.99698 0.08884 0.0
N2108 N 0.80266 1.00679 0.12118 0.0
C2109 C 0.81811 1.00747 0.10728 0.0
C2110 C 0.79862 0.98557 0.08484 0.0
Eu2111 Eu 0.80547 1.02096 0.15379 0.0
N2112 N 0.77316 1.00577 0.15022 0.0
C2113 C 0.75829 1.00663 0.16464 0.0
C2114 C 0.73631 0.98568 0.14347 0.0
C2115 C 0.73961 0.99664 0.16148 0.0
H2116 H 0.83211 1.01569 0.11055 0.0
H2117 H 0.72777 0.9974 0.17292 0.0
H2118 H 0.73487 0.96617 0.1071 0.0
H2119 H 0.82857 0.99748 0.07785 0.0
H2120 H 0.76063 1.01517 0.17846 0.0
H2121 H 0.80588 0.14319 0.15193 0.0
H2122 H 0.72183 0.97791 0.14111 0.0
H2123 H 0.73884 0.0489 0.18931 0.0
H2124 H 0.79544 0.10946 0.13844 0.0
H2125 H 0.72225 0.06033 0.22114 0.0
H2126 H 0.76225 0.96598 0.08149 0.0
H2127 H 0.80016 0.15182 0.18778 0.0
H2128 H 0.78285 0.14341 0.22059 0.0
H2129 H 0.79736 0.97725 0.07063 0.0
H2130 H 0.7587 0.12149 0.23916 0.0
N2131 N 0.78536 0.09833 0.16735 0.0
C2132 C 0.79345 0.11267 0.15447 0.0
C2133 C 0.79584 0.13682 0.18223 0.0
C2134 C 0.7852 0.12311 0.19463 0.0
C2135 C 0.79925 0.13188 0.16189 0.0
C2136 C 0.77983 0.1038 0.18663 0.0
H2137 H 0.73492 0.09133 0.23877 0.0
N2138 N 0.76065 0.07317 0.1892 0.0
C2139 C 0.73485 0.069 0.21483 0.0
C2140 C 0.76668 0.09114 0.1976 0.0
C2141 C 0.74419 0.06263 0.19684 0.0
C2142 C 0.74208 0.08649 0.22473 0.0
C2143 C 0.758 0.09791 0.21604 0.0
O2144 O 0.74842 0.04924 0.14821 0.0
O2145 O 0.78208 0.03903 0.13332 0.0
O2146 O 0.82111 0.0444 0.13313 0.0
O2147 O 0.80647 0.07529 0.14367 0.0
O2148 O 0.77996 0.06916 0.12387 0.0
O2149 O 0.74994 0.08135 0.1568 0.0
O2150 O 0.83552 1.0085 0.14919 0.0
O2151 O 0.80222 0.0477 0.17218 0.0
O2152 O 0.78125 0.04856 0.19308 0.0
O2153 O 0.79776 1.01799 0.19058 0.0
O2154 O 0.83212 0.03909 0.16657 0.0
O2155 O 0.81182 0.98948 0.16369 0.0
C2156 C 0.78196 0.05068 0.11643 0.0
C2157 C 0.72793 0.07428 0.12997 0.0
C2158 C 0.71492 0.1037 0.11091 0.0
C2159 C 0.72389 0.09533 0.12836 0.0
C2160 C 0.70926 0.09059 0.09488 0.0
C2161 C 0.72208 0.06133 0.11396 0.0
C2162 C 0.71266 0.06951 0.09653 0.0
C2163 C 0.82038 0.06471 0.13335 0.0
C2164 C 0.73902 0.06699 0.14826 0.0
C2165 C 0.76474 0.11632 0.22471 0.0
C2166 C 0.77851 0.12879 0.21412 0.0
C2167 C 0.82078 0.05236 0.17546 0.0
C2168 C 0.84392 0.9739 0.1543 0.0
C2169 C 0.86077 0.97282 0.16713 0.0
C2170 C 0.87645 0.95894 0.1636 0.0
C2171 C 0.87519 0.94598 0.14658 0.0
C2172 C 0.84248 0.96118 0.13723 0.0
C2173 C 0.85811 0.94706 0.1335 0.0
C2174 C 0.78876 0.03185 0.20311 0.0
C2175 C 0.8308 0.99125 0.15777 0.0
H2176 H 0.72845 0.10556 0.14056 0.0
H2177 H 0.7021 0.09659 0.08121 0.0
H2178 H 0.72495 0.04507 0.1148 0.0
H2179 H 0.70817 0.0595 0.08415 0.0
H2180 H 0.86213 0.98371 0.17956 0.0
H2181 H 0.88722 0.93512 0.14348 0.0
H2182 H 0.82973 0.96252 0.1267 0.0
H2183 H 0.85717 0.93719 0.12031 0.0
Eu2184 Eu 0.7472 1.02378 0.90832 0.0
C2185 C 0.81739 0.05347 0.87424 0.0
C2186 C 0.83581 1.0256 0.88998 0.0
C2187 C 0.8484 0.04051 0.85855 0.0
C2188 C 0.81944 0.03968 0.89004 0.0
C2189 C 0.83175 0.05393 0.85821 0.0
C2190 C 0.85042 1.02636 0.87441 0.0
C2191 C 0.81186 0.08044 0.84219 0.0
N2192 N 0.80094 0.06595 0.87407 0.0
C2193 C 0.79808 0.07943 0.85836 0.0
C2194 C 0.82883 0.06767 0.84213 0.0
Eu2195 Eu 0.77873 0.06482 0.90252 0.0
N2196 N 0.80482 0.03911 0.9047 0.0
C2197 C 0.80497 1.02346 0.9185 0.0
C2198 C 0.83663 1.01065 0.90516 0.0
C2199 C 0.82091 1.00937 0.91927 0.0
H2200 H 0.78491 0.08928 0.85785 0.0
H2201 H 0.8208 0.99726 0.93054 0.0
H2202 H 0.86309 1.01575 0.87424 0.0
H2203 H 0.8093 0.09101 0.82974 0.0
H2204 H 0.79272 1.02104 0.9286 0.0
H2205 H 0.6734 0.0551 0.9326 0.0
H2206 H 0.84887 0.99954 0.90561 0.0
H2207 H 0.77806 0.98864 0.93075 0.0
H2208 H 0.70203 0.05077 0.90919 0.0
H2209 H 0.77757 0.96712 0.9618 0.0
H2210 H 0.85961 0.04071 0.84643 0.0
H2211 H 0.67228 0.03566 0.96489 0.0
H2212 H 0.688 1.00982 0.98804 0.0
H2213 H 0.83947 0.06842 0.82954 0.0
H2214 H 0.71576 0.98588 0.99573 0.0
N2215 N 0.71802 0.02972 0.92837 0.0
C2216 C 0.70219 0.04237 0.92331 0.0
C2217 C 0.68517 0.03379 0.95475 0.0
C2218 C 0.70104 1.0203 0.95957 0.0
C2219 C 0.68573 0.0448 0.93654 0.0
C2220 C 0.71766 1.01854 0.94602 0.0
H2221 H 0.74898 0.96994 0.98614 0.0
N2222 N 0.75073 1.00436 0.93836 0.0
C2223 C 0.7654 0.97793 0.95899 0.0
C2224 C 0.7338 1.00501 0.95068 0.0
C2225 C 0.76581 0.99029 0.94162 0.0
C2226 C 0.7491 0.97944 0.97259 0.0
C2227 C 0.73303 0.99298 0.96852 0.0
O2228 O 0.74971 0.99143 0.90123 0.0
O2229 O 0.77023 0.03678 0.88476 0.0
O2230 O 0.75288 0.06773 0.8778 0.0
O2231 O 0.72883 0.04298 0.88683 0.0
O2232 O 0.75595 1.01258 0.87485 0.0
O2233 O 0.71968 1.00667 0.90276 0.0
O2234 O 0.77258 0.09518 0.8911 0.0
O2235 O 0.74713 0.05759 0.91168 0.0
O2236 O 0.76208 0.03124 0.94238 0.0
O2237 O 0.78449 0.05808 0.93863 0.0
O2238 O 0.76252 0.07701 0.93057 0.0
O2239 O 0.80082 0.08946 0.90766 0.0
C2240 C 0.76756 1.02679 0.8674 0.0
C2241 C 0.72177 0.97771 0.88193 0.0
C2242 C 0.69183 0.96498 0.86406 0.0
C2243 C 0.70058 0.97643 0.87973 0.0
C2244 C 0.70454 0.95449 0.85043 0.0
C2245 C 0.73448 0.96717 0.86838 0.0
C2246 C 0.72581 0.95559 0.85265 0.0
C2247 C 0.73501 0.05797 0.87472 0.0
C2248 C 0.72973 0.98976 0.89897 0.0
C2249 C 0.71645 0.99488 0.98187 0.0
C2250 C 0.70063 1.00855 0.97749 0.0
C2251 C 0.74477 0.06898 0.92719 0.0
C2252 C 0.78443 0.12101 0.91277 0.0
C2253 C 0.80093 0.13237 0.92015 0.0
C2254 C 0.79751 0.1492 0.93267 0.0
C2255 C 0.7775 0.15476 0.93788 0.0
C2256 C 0.76435 0.12678 0.91778 0.0
C2257 C 0.76096 0.14366 0.93021 0.0
C2258 C 0.77494 0.04479 0.95149 0.0
C2259 C 0.7885 0.10319 0.90002 0.0
H2260 H 0.69077 0.98476 0.89008 0.0
H2261 H 0.69806 0.94544 0.83817 0.0
H2262 H 0.75097 0.96785 0.86991 0.0
H2263 H 0.73557 0.94746 0.84216 0.0
H2264 H 0.81644 0.12808 0.91623 0.0
H2265 H 0.77472 0.16797 0.94739 0.0
H2266 H 0.75128 0.11842 0.91201 0.0
H2267 H 0.74549 0.14829 0.9336 0.0
Eu2268 Eu 0.65519 0.73865 0.03168 0.0
C2269 C 0.69515 0.80631 1.00558 0.0
C2270 C 0.68369 0.82494 0.03535 0.0
C2271 C 0.715 0.83519 1.0182 0.0
C2272 C 0.68072 0.8094 1.02076 0.0
C2273 C 0.71232 0.81934 1.00404 0.0
C2274 C 0.70081 0.83789 0.0339 0.0
C2275 C 0.72378 0.79913 0.97545 0.0
N2276 N 0.69247 0.79056 0.99237 0.0
C2277 C 0.70649 0.78667 0.97752 0.0
C2278 C 0.72655 0.81574 0.98856 0.0
Eu2279 Eu 0.66047 0.77419 0.99396 0.0
N2280 N 0.66414 0.79684 1.02165 0.0
C2281 C 0.65049 0.79837 0.03721 0.0
C2282 C 0.66946 0.82689 0.0511 0.0
C2283 C 0.65292 0.81339 0.05215 0.0
H2284 H 0.70393 0.77458 0.96659 0.0
H2285 H 0.64198 0.81459 0.06443 0.0
H2286 H 0.70328 0.84997 0.04492 0.0
H2287 H 0.73473 0.79618 0.96351 0.0
H2288 H 0.63781 0.78803 0.03836 0.0
H2289 H 0.65619 0.6584 1.00452 0.0
H2290 H 0.67124 0.83859 0.06265 0.0
H2291 H 0.62399 0.75509 0.07027 0.0
H2292 H 0.67229 0.68957 1.0176 0.0
H2293 H 0.58977 0.7471 0.08354 0.0
H2294 H 0.72818 0.84524 1.01734 0.0
H2295 H 0.61876 0.65372 1.0069 0.0
H2296 H 0.58565 0.66554 1.02172 0.0
H2297 H 0.73985 0.82548 0.98681 0.0
H2298 H 0.56769 0.68926 0.04437 0.0
N2299 N 0.64397 0.70437 1.02451 0.0
C2300 C 0.65583 0.68847 1.01785 0.0
C2301 C 0.6257 0.66782 1.0122 0.0
C2302 C 0.61411 0.68265 1.02211 0.0
C2303 C 0.64681 0.6704 1.01081 0.0
C2304 C 0.62386 0.70085 1.02853 0.0
H2305 H 0.56947 0.71902 0.06832 0.0
N2306 N 0.62377 0.73092 0.04842 0.0
C2307 C 0.59627 0.73777 0.07162 0.0
C2308 C 0.61361 0.71429 0.04122 0.0
C2309 C 0.61592 0.7419 0.06442 0.0
C2310 C 0.58481 0.72201 0.06287 0.0
C2311 C 0.59358 0.70976 0.04782 0.0
O2312 O 0.66031 0.75008 0.06321 0.0
O2313 O 0.67958 0.7645 1.0226 0.0
O2314 O 0.683 0.74879 0.98407 0.0
O2315 O 0.67227 0.72292 1.0061 0.0
O2316 O 0.69012 0.73685 0.0314 0.0
O2317 O 0.66826 0.71892 0.05356 0.0
O2318 O 0.6636 0.78267 0.962 0.0
O2319 O 0.64159 0.74879 1.0034 0.0
O2320 O 0.62118 0.75514 1.02814 0.0
O2321 O 0.62414 0.77799 1.00191 0.0
O2322 O 0.65032 0.74851 0.97303 0.0
O2323 O 0.6447 0.80102 0.9818 0.0
C2324 C 0.69719 0.75442 1.02568 0.0
C2325 C 0.66364 0.72215 0.08819 0.0
C2326 C 0.67201 0.69356 0.11046 0.0
C2327 C 0.67479 0.70435 0.09238 0.0
C2328 C 0.65777 0.70051 0.12472 0.0
C2329 C 0.64954 0.72924 0.10253 0.0
C2330 C 0.64647 0.71824 0.12065 0.0
C2331 C 0.68363 0.72955 0.99074 0.0
C2332 C 0.66773 0.73208 0.06851 0.0
C2333 C 0.58326 0.69268 0.03987 0.0
C2334 C 0.59348 0.6792 1.02694 0.0
C2335 C 0.6401 0.73902 0.98689 0.0
C2336 C 0.65802 0.81673 0.95213 0.0
C2337 C 0.64518 0.82419 0.93669 0.0
C2338 C 0.65107 0.84136 0.9253 0.0
C2339 C 0.67024 0.8505 0.92902 0.0
C2340 C 0.67671 0.82647 0.95612 0.0
C2341 C 0.68294 0.84309 0.94442 0.0
C2342 C 0.61166 0.76889 1.01577 0.0
C2343 C 0.65174 0.7985 0.96341 0.0
H2344 H 0.68623 0.69906 0.08167 0.0
H2345 H 0.65573 0.69251 0.13904 0.0
H2346 H 0.64107 0.74314 0.0999 0.0
H2347 H 0.63557 0.72367 0.13174 0.0
H2348 H 0.63044 0.817 0.93393 0.0
H2349 H 0.67526 0.86359 0.92022 0.0
H2350 H 0.6865 0.82138 0.9682 0.0
H2351 H 0.69753 0.85037 0.94745 0.0
Eu2352 Eu 0.06297 0.15202 0.77835 0.0
C2353 C 0.98479 0.12094 0.78037 0.0
C2354 C 0.97055 0.14225 0.75373 0.0
C2355 C 0.95642 0.10843 0.75967 0.0
C2356 C 0.98431 0.13947 0.77019 0.0
C2357 C 0.97122 0.10502 0.77483 0.0
C2358 C 0.95611 0.12701 0.74911 0.0
C2359 C 0.98929 0.0827 0.79797 0.0
N2360 N 0.99966 0.11786 0.79446 0.0
C2361 C 1.00262 0.09876 0.80263 0.0
C2362 C 0.97335 0.08591 0.78418 0.0
Eu2363 Eu 1.01774 0.14755 0.80545 0.0
N2364 N 0.99877 0.15378 0.77474 0.0
C2365 C 1.00234 0.16924 0.76114 0.0
C2366 C 0.97255 0.15967 0.74156 0.0
C2367 C 0.98899 0.17284 0.74486 0.0
H2368 H 1.01488 0.09609 0.81345 0.0
H2369 H 0.99168 0.18553 0.73461 0.0
H2370 H 0.94523 0.12907 0.73676 0.0
H2371 H 0.99147 0.06784 0.8049 0.0
H2372 H 1.01567 0.17862 0.76209 0.0
H2373 H 0.13651 0.16023 0.81939 0.0
H2374 H 0.96236 0.16233 0.72875 0.0
H2375 H 0.04355 0.18085 0.73997 0.0
H2376 H 0.10663 0.14142 0.80758 0.0
H2377 H 0.05136 0.2136 0.72306 0.0
H2378 H 0.94569 0.0965 0.75542 0.0
H2379 H 0.1434 0.19506 0.80675 0.0
H2380 H 0.13392 0.22382 0.78383 0.0
H2381 H 0.96319 0.07336 0.78035 0.0
H2382 H 0.11133 0.23805 0.75748 0.0
N2383 N 0.09461 0.16605 0.78956 0.0
C2384 C 0.10844 0.1569 0.80237 0.0
C2385 C 0.12972 0.18708 0.80176 0.0
C2386 C 0.11628 0.196 0.78773 0.0
C2387 C 0.12587 0.16742 0.80894 0.0
C2388 C 0.09853 0.1851 0.78177 0.0
H2389 H 0.08087 0.23431 0.73467 0.0
N2390 N 0.06797 0.18345 0.76154 0.0
C2391 C 0.06086 0.2083 0.73554 0.0
C2392 C 0.08538 0.19361 0.76704 0.0
C2393 C 0.05648 0.18979 0.74515 0.0
C2394 C 0.07758 0.21988 0.74211 0.0
C2395 C 0.09023 0.2125 0.75777 0.0
O2396 O 0.05422 0.14462 0.74677 0.0
O2397 O 0.03549 0.12915 0.78038 0.0
O2398 O 0.04134 0.12514 0.82025 0.0
O2399 O 0.07292 0.13328 0.80527 0.0
O2400 O 0.06461 0.11663 0.778 0.0
O2401 O 0.08652 0.14752 0.75664 0.0
O2402 O 1.0022 0.12882 0.82758 0.0
O2403 O 0.0485 0.15886 0.80653 0.0
O2404 O 0.04836 0.18601 0.78409 0.0
O2405 O 1.01628 0.18413 0.79838 0.0
O2406 O 0.03173 0.16895 0.82965 0.0
O2407 O 0.99579 0.16054 0.82766 0.0
C2408 C 0.04543 0.11122 0.7795 0.0
C2409 C 0.08079 0.12744 0.72771 0.0
C2410 C 0.10972 0.11208 0.71061 0.0
C2411 C 0.10189 0.12606 0.72439 0.0
C2412 C 0.09644 0.09923 0.69972 0.0
C2413 C 0.0674 0.11473 0.71669 0.0
C2414 C 0.07529 0.10064 0.70273 0.0
C2415 C 0.0616 0.12278 0.81848 0.0
C2416 C 0.07371 0.1434 0.74165 0.0
C2417 C 0.10758 0.22339 0.76422 0.0
C2418 C 0.12044 0.21526 0.77924 0.0
C2419 C 0.04993 0.16975 0.8224 0.0
C2420 C 1.00191 0.14344 0.85956 0.0
C2421 C 0.99767 0.15977 0.87259 0.0
C2422 C 1.0054 0.15977 0.89263 0.0
C2423 C 1.01752 0.14348 0.89954 0.0
C2424 C 1.01386 0.12703 0.86699 0.0
C2425 C 1.02171 0.12721 0.88673 0.0
C2426 C 0.03169 0.1961 0.79115 0.0
C2427 C 0.99497 0.14357 0.83804 0.0
H2428 H 0.11246 0.13606 0.73246 0.0
H2429 H 0.10241 0.08834 0.68887 0.0
H2430 H 0.05101 0.11577 0.71872 0.0
H2431 H 0.06499 0.09087 0.69417 0.0
H2432 H 0.98839 0.17238 0.8672 0.0
H2433 H 1.02317 0.14296 0.9151 0.0
H2434 H 1.01736 0.11399 0.85752 0.0
H2435 H 0.03087 0.11457 0.8922 0.0
Eu2436 Eu 0.90542 0.3144 0.53382 0.0
C2437 C 0.86399 0.24503 0.5246 0.0
C2438 C 0.87826 0.23243 0.55645 0.0
C2439 C 0.84364 0.22301 0.5466 0.0
C2440 C 0.88042 0.24376 0.53822 0.0
C2441 C 0.8454 0.23484 0.52886 0.0
C2442 C 0.86002 0.22178 0.56032 0.0
C2443 C 0.83094 0.24959 0.4983 0.0
N2444 N 0.86574 0.25705 0.50779 0.0
C2445 C 0.84945 0.25966 0.49483 0.0
C2446 C 0.82888 0.23714 0.5154 0.0
Eu2447 Eu 0.8983 0.27212 0.50273 0.0
N2448 N 0.89783 0.25469 0.53449 0.0
C2449 C 0.91258 0.25631 0.54925 0.0
C2450 C 0.89419 0.23276 0.57076 0.0
C2451 C 0.91124 0.24506 0.56729 0.0
H2452 H 0.85056 0.26965 0.48187 0.0
H2453 H 0.92319 0.24624 0.57873 0.0
H2454 H 0.85821 0.21296 0.5742 0.0
H2455 H 0.81816 0.25176 0.48796 0.0
H2456 H 0.92515 0.26668 0.54784 0.0
H2457 H 0.89886 0.39157 0.49934 0.0
H2458 H 0.89308 0.22428 0.58491 0.0
H2459 H 0.94006 0.3027 0.57093 0.0
H2460 H 0.88511 0.36095 0.5161 0.0
H2461 H 0.97552 0.31218 0.58002 0.0
H2462 H 0.8295 0.21507 0.55005 0.0
H2463 H 0.9362 0.39763 0.49842 0.0
H2464 H 0.97108 0.38777 0.51083 0.0
H2465 H 0.81437 0.22963 0.51825 0.0
H2466 H 0.99204 0.36647 0.53363 0.0
N2467 N 0.91452 0.348 0.52228 0.0
C2468 C 0.9015 0.36278 0.51512 0.0
C2469 C 0.93028 0.38382 0.5054 0.0
C2470 C 0.94331 0.37018 0.51541 0.0
C2471 C 0.9092 0.38046 0.5059 0.0
C2472 C 0.93485 0.35236 0.52419 0.0
H2473 H 0.99349 0.33906 0.56044 0.0
N2474 N 0.93807 0.32406 0.54637 0.0
C2475 C 0.9677 0.32008 0.56776 0.0
C2476 C 0.94686 0.34025 0.53688 0.0
C2477 C 0.94753 0.31499 0.56279 0.0
C2478 C 0.97782 0.33517 0.55657 0.0
C2479 C 0.96727 0.34581 0.54126 0.0
O2480 O 0.90179 0.30251 0.5653 0.0
O2481 O 0.88104 0.2888 0.5279 0.0
O2482 O 0.8769 0.29731 0.48893 0.0
O2483 O 0.88709 0.3264 0.50736 0.0
O2484 O 0.8694 0.31584 0.53637 0.0
O2485 O 0.90003 0.33566 0.55767 0.0
O2486 O 0.88642 0.24724 0.48382 0.0
O2487 O 0.91721 0.29865 0.50768 0.0
O2488 O 0.93946 0.29804 0.52825 0.0
O2489 O 0.93425 0.26725 0.5122 0.0
O2490 O 0.90737 0.2946 0.47771 0.0
O2491 O 0.91795 0.25538 0.48143 0.0
C2492 C 0.86305 0.29756 0.53154 0.0
C2493 C 0.89453 0.32756 0.59261 0.0
C2494 C 0.88042 0.35272 0.61592 0.0
C2495 C 0.88407 0.346 0.59604 0.0
C2496 C 0.88772 0.34107 0.63244 0.0
C2497 C 0.90153 0.31601 0.6092 0.0
C2498 C 0.89824 0.32287 0.62906 0.0
C2499 C 0.87607 0.3174 0.49294 0.0
C2500 C 0.89927 0.32145 0.5717 0.0
C2501 C 0.97619 0.36235 0.53093 0.0
C2502 C 0.96425 0.37446 0.51793 0.0
C2503 C 0.91892 0.30531 0.48972 0.0
C2504 C 0.89885 0.25326 0.4511 0.0
C2505 C 0.91268 0.24786 0.43599 0.0
C2506 C 0.91003 0.2552 0.41601 0.0
C2507 C 0.8934 0.26792 0.41129 0.0
C2508 C 0.8827 0.26661 0.44622 0.0
C2509 C 0.8799 0.27372 0.42643 0.0
C2510 C 0.94796 0.2806 0.52062 0.0
C2511 C 0.90237 0.24702 0.47235 0.0
H2512 H 0.87824 0.35484 0.58328 0.0
H2513 H 0.88499 0.34593 0.64797 0.0
H2514 H 0.90986 0.30196 0.60679 0.0
H2515 H 0.90377 0.31401 0.64188 0.0
H2516 H 0.92565 0.2383 0.43987 0.0
H2517 H 0.89069 0.27323 0.39586 0.0
H2518 H 0.87244 0.27201 0.4577 0.0
H2519 H 0.8673 0.28381 0.42287 0.0
Eu2520 Eu 0.51768 0.90873 0.81278 0.0
C2521 C 0.57565 0.86286 0.76343 0.0
C2522 C 0.60572 0.8544 0.78386 0.0
C2523 C 0.59373 0.83105 0.75754 0.0
C2524 C 0.58959 0.8679 0.77911 0.0
C2525 C 0.5778 0.84448 0.75252 0.0
C2526 C 0.60757 0.83596 0.77315 0.0
C2527 C 0.54852 0.85412 0.73185 0.0
N2528 N 0.55934 0.87549 0.75949 0.0
C2529 C 0.54671 0.87209 0.74314 0.0
C2530 C 0.56387 0.84012 0.73677 0.0
Eu2531 Eu 0.55915 0.90551 0.77925 0.0
N2532 N 0.58754 0.88582 0.78956 0.0
C2533 C 0.60166 0.89153 0.80395 0.0
C2534 C 0.61966 0.85981 0.79924 0.0
C2535 C 0.61771 0.87851 0.80918 0.0
H2536 H 0.5353 0.88325 0.73896 0.0
H2537 H 0.62859 0.88291 0.8209 0.0
H2538 H 0.6198 0.82541 0.77674 0.0
H2539 H 0.53818 0.85113 0.71925 0.0
H2540 H 0.60064 0.90606 0.81158 0.0
H2541 H 0.49033 0.87693 0.73965 0.0
H2542 H 0.63214 0.84977 0.80337 0.0
H2543 H 0.50683 0.95643 0.83041 0.0
H2544 H 0.51455 0.88294 0.76713 0.0
H2545 H 0.48133 0.98291 0.82581 0.0
H2546 H 0.5955 0.81679 0.74939 0.0
H2547 H 0.45918 0.898 0.73718 0.0
H2548 H 0.43979 0.9283 0.74952 0.0
H2549 H 0.5651 0.82616 0.72803 0.0
H2550 H 0.4379 0.95786 0.77246 0.0
N2551 N 0.49649 0.90437 0.78298 0.0
C2552 C 0.50058 0.89097 0.76761 0.0
C2553 C 0.46953 0.89998 0.75 0.0
C2554 C 0.46653 0.91544 0.76429 0.0
C2555 C 0.48699 0.88803 0.75138 0.0
C2556 C 0.48053 0.91738 0.78071 0.0
H2557 H 0.45368 0.97866 0.80036 0.0
N2558 N 0.49424 0.93627 0.80784 0.0
C2559 C 0.48047 0.96917 0.81668 0.0
C2560 C 0.47949 0.93399 0.79346 0.0
C2561 C 0.49502 0.95384 0.8192 0.0
C2562 C 0.4649 0.96669 0.80237 0.0
C2563 C 0.46439 0.94909 0.79037 0.0
O2564 O 0.51298 0.92382 0.84148 0.0
O2565 O 0.5503 0.90106 0.81098 0.0
O2566 O 0.54395 0.87071 0.78401 0.0
O2567 O 0.51514 0.87269 0.80402 0.0
O2568 O 0.53371 0.88238 0.82926 0.0
O2569 O 0.49637 0.89614 0.83581 0.0
O2570 O 0.56532 0.91359 0.74771 0.0
O2571 O 0.53299 0.92778 0.78791 0.0
O2572 O 0.54089 0.934 0.82224 0.0
O2573 O 0.57074 0.92569 0.80465 0.0
O2574 O 0.55019 0.93786 0.76564 0.0
O2575 O 0.58919 0.91725 0.77134 0.0
C2576 C 0.55184 0.88577 0.82255 0.0
C2577 C 0.51138 0.90142 0.86877 0.0
C2578 C 0.50901 0.88182 0.90026 0.0
C2579 C 0.50033 0.88836 0.88163 0.0
C2580 C 0.52872 0.88868 0.9058 0.0
C2581 C 0.53136 0.90743 0.87449 0.0
C2582 C 0.5399 0.90111 0.89282 0.0
C2583 C 0.52857 0.86062 0.79386 0.0
C2584 C 0.50245 0.90924 0.84956 0.0
C2585 C 0.4497 0.94653 0.77492 0.0
C2586 C 0.45074 0.92969 0.76191 0.0
C2587 C 0.53695 0.94521 0.77824 0.0
C2588 C 0.60019 0.90983 0.73805 0.0
C2589 C 0.61767 0.92159 0.73437 0.0
C2590 C 0.63263 0.9145 0.72098 0.0
C2591 C 0.63069 0.89515 0.71209 0.0
C2592 C 0.59782 0.89099 0.72809 0.0
C2593 C 0.61329 0.88339 0.71572 0.0
C2594 C 0.56039 0.93758 0.81734 0.0
C2595 C 0.58461 0.91797 0.75183 0.0
H2596 H 0.48517 0.88333 0.87707 0.0
H2597 H 0.53553 0.88469 0.92035 0.0
H2598 H 0.54041 0.91736 0.86493 0.0
H2599 H 0.55512 0.90612 0.89712 0.0
H2600 H 0.61909 0.93674 0.74095 0.0
H2601 H 0.64196 0.88978 0.7013 0.0
H2602 H 0.58392 0.88236 0.72924 0.0
H2603 H 0.61136 0.86879 0.70821 0.0
Eu2604 Eu 0.99886 0.16045 0.26948 0.0
C2605 C 0.04717 0.11323 0.32699 0.0
C2606 C 0.029 0.10155 0.35729 0.0
C2607 C 0.05713 0.08161 0.34367 0.0
C2608 C 0.0317 0.1161 0.34164 0.0
C2609 C 0.05972 0.09582 0.32783 0.0
C2610 C 0.04186 0.08444 0.35828 0.0
C2611 C 0.07633 0.10743 0.29685 0.0
N2612 N 0.04872 0.12657 0.31087 0.0
C2613 C 0.06357 0.12448 0.29645 0.0
C2614 C 0.07432 0.093 0.31249 0.0
Eu2615 Eu 1.02715 0.15494 0.31356 0.0
N2616 N 1.019 0.13262 0.3403 0.0
C2617 C 1.0037 0.13554 0.35403 0.0
C2618 C 1.01326 0.10444 0.37141 0.0
C2619 C 1.00061 0.1215 0.36978 0.0
H2620 H 0.06568 0.13619 0.28503 0.0
H2621 H 0.98851 0.12388 0.38071 0.0
H2622 H 0.03996 0.07314 0.37022 0.0
H2623 H 0.08792 0.10556 0.28528 0.0
H2624 H 0.99393 0.1487 0.35309 0.0
H2625 H 0.06878 0.12504 0.23803 0.0
H2626 H 1.01072 0.09356 0.38361 0.0
H2627 H 0.984 0.20935 0.26577 0.0
H2628 H 0.03992 0.12723 0.26045 0.0
H2629 H 0.99112 0.23933 0.24454 0.0
H2630 H 0.0667 0.06817 0.34458 0.0
H2631 H 0.07701 0.1535 0.21477 0.0
H2632 H 0.06924 0.18854 0.20219 0.0
H2633 H 0.08422 0.07978 0.31266 0.0
H2634 H 0.0483 0.21953 0.20394 0.0
N2635 N 0.02977 0.15653 0.25025 0.0
C2636 C 0.04222 0.13976 0.25042 0.0
C2637 C 0.06382 0.15457 0.22464 0.0
C2638 C 0.05171 0.17205 0.22489 0.0
C2639 C 0.05919 0.13848 0.23767 0.0
C2640 C 0.03472 0.17274 0.23813 0.0
H2641 H 1.01908 0.23839 0.21933 0.0
N2642 N 1.00767 0.19117 0.25283 0.0
C2643 C 1.00026 0.22569 0.24287 0.0
C2644 C 1.02325 0.19043 0.23936 0.0
C2645 C 0.99632 0.20855 0.25493 0.0
C2646 C 1.01607 0.22511 0.22874 0.0
C2647 C 1.02799 0.20751 0.22706 0.0
O2648 O 0.96983 0.17502 0.2639 0.0
O2649 O 0.99649 0.15023 0.30094 0.0
O2650 O 1.02235 0.12076 0.29821 0.0
O2651 O 1.00516 0.12396 0.26763 0.0
O2652 O 0.97894 0.13427 0.28159 0.0
O2653 O 0.98237 0.15558 0.24026 0.0
O2654 O 0.05876 0.16465 0.31741 0.0
O2655 O 1.02453 0.17816 0.28627 0.0
O2656 O 0.98681 0.18347 0.29345 0.0
O2657 O 0.99905 0.17126 0.3247 0.0
O2658 O 0.03198 0.19004 0.31344 0.0
O2659 O 0.03785 0.16404 0.34371 0.0
C2660 C 0.98311 0.13621 0.30082 0.0
C2661 C 0.94734 0.1675 0.23696 0.0
C2662 C 0.91426 0.15139 0.23179 0.0
C2663 C 0.9349 0.14997 0.23781 0.0
C2664 C 0.90634 0.1701 0.22497 0.0
C2665 C 0.93917 0.18606 0.23003 0.0
C2666 C 0.91877 0.18734 0.22406 0.0
C2667 C 1.0138 0.11139 0.2818 0.0
C2668 C 0.96804 0.16839 0.24539 0.0
C2669 C 0.04447 0.20658 0.21352 0.0
C2670 C 0.05635 0.18893 0.2125 0.0
C2671 C 1.02823 0.19632 0.29513 0.0
C2672 C 0.07287 0.15795 0.35038 0.0
C2673 C 0.07672 0.16593 0.36995 0.0
C2674 C 0.09055 0.15608 0.38344 0.0
C2675 C 0.0985 0.13698 0.37722 0.0
C2676 C 0.084 0.14105 0.34381 0.0
C2677 C 0.09587 0.13003 0.3574 0.0
C2678 C 0.98759 0.18403 0.31378 0.0
C2679 C 0.05674 0.16684 0.33733 0.0
H2680 H 0.94105 0.13561 0.24329 0.0
H2681 H 0.89054 0.17125 0.22001 0.0
H2682 H 0.94853 0.19977 0.22969 0.0
H2683 H 0.91258 0.20173 0.21881 0.0
H2684 H 0.06896 0.1798 0.37418 0.0
H2685 H 0.10716 0.1272 0.38724 0.0
H2686 H 0.08329 0.13598 0.32832 0.0
H2687 H 0.10314 0.11605 0.35253 0.0
Eu2688 Eu 0.52247 0.15044 0.7497 0.0
C2689 C 0.60515 0.18001 0.78265 0.0
C2690 C 0.63416 0.16114 0.77021 0.0
C2691 C 0.63776 0.19729 0.77756 0.0
C2692 C 0.61334 0.16194 0.77578 0.0
C2693 C 0.61765 0.19753 0.7849 0.0
C2694 C 0.646 0.17909 0.77016 0.0
C2695 C 0.59117 0.21255 0.80535 0.0
N2696 N 0.58573 0.17971 0.78962 0.0
C2697 C 0.57942 0.19489 0.8026 0.0
C2698 C 0.61006 0.21423 0.79572 0.0
Eu2699 Eu 0.56531 0.15044 0.78062 0.0
N2700 N 0.60133 0.14489 0.77577 0.0
C2701 C 0.6102 0.12615 0.77308 0.0
C2702 C 0.64275 0.14219 0.76589 0.0
C2703 C 0.63093 0.12461 0.76815 0.0
H2704 H 0.56479 0.19371 0.8102 0.0
H2705 H 0.63792 0.10986 0.76632 0.0
H2706 H 0.66186 0.17881 0.76546 0.0
H2707 H 0.58559 0.22486 0.81478 0.0
H2708 H 0.60145 0.11224 0.7743 0.0
H2709 H 0.49663 0.16777 0.82697 0.0
H2710 H 0.65874 0.14087 0.76186 0.0
H2711 H 0.51634 0.10774 0.72156 0.0
H2712 H 0.51513 0.17413 0.79515 0.0
H2713 H 0.4989 0.07452 0.72439 0.0
H2714 H 0.6474 0.21076 0.77861 0.0
H2715 H 0.47702 0.13574 0.83147 0.0
H2716 H 0.46592 0.10184 0.81751 0.0
H2717 H 0.6192 0.22792 0.79785 0.0
H2718 H 0.46674 0.07651 0.7899 0.0
N2719 N 0.50562 0.14637 0.78114 0.0
C2720 C 0.50629 0.16035 0.79652 0.0
C2721 C 0.48491 0.13857 0.81725 0.0
C2722 C 0.48448 0.12414 0.80153 0.0
C2723 C 0.49594 0.15668 0.81476 0.0
C2724 C 0.49509 0.12849 0.78335 0.0
H2725 H 0.47916 0.06608 0.75537 0.0
N2726 N 0.50687 0.11804 0.75087 0.0
C2727 C 0.49791 0.08545 0.73672 0.0
C2728 C 0.49569 0.114 0.7678 0.0
C2729 C 0.50789 0.10428 0.73526 0.0
C2730 C 0.48673 0.08078 0.7542 0.0
C2731 C 0.48549 0.0951 0.76999 0.0
O2732 O 0.5099 0.14612 0.71901 0.0
O2733 O 0.55188 0.16565 0.7545 0.0
O2734 O 0.55194 0.18552 0.77606 0.0
O2735 O 0.52082 0.18587 0.75999 0.0
O2736 O 0.54166 0.16553 0.72485 0.0
O2737 O 0.49276 0.16356 0.74201 0.0
O2738 O 0.54667 0.14086 0.80717 0.0
O2739 O 0.53794 0.12827 0.77355 0.0
O2740 O 0.54453 0.12983 0.7332 0.0
O2741 O 0.57506 0.13422 0.75197 0.0
O2742 O 0.56586 0.11486 0.77798 0.0
O2743 O 0.57672 0.15363 0.81128 0.0
C2744 C 0.55668 0.17095 0.73638 0.0
C2745 C 0.47731 0.15981 0.70865 0.0
C2746 C 0.46641 0.17172 0.67519 0.0
C2747 C 0.48136 0.17048 0.69057 0.0
C2748 C 0.44736 0.16202 0.67824 0.0
C2749 C 0.45837 0.15027 0.71151 0.0
C2750 C 0.44344 0.15136 0.69631 0.0
C2751 C 0.53565 0.19676 0.7694 0.0
C2752 C 0.49359 0.15644 0.72344 0.0
C2753 C 0.47464 0.09096 0.78794 0.0
C2754 C 0.47415 0.10541 0.80365 0.0
C2755 C 0.54702 0.10991 0.77335 0.0
C2756 C 0.56935 0.12595 0.83201 0.0
C2757 C 0.58999 0.11986 0.83063 0.0
C2758 C 0.59847 0.10586 0.84444 0.0
C2759 C 0.58548 0.09662 0.85885 0.0
C2760 C 0.55668 0.11654 0.84639 0.0
C2761 C 0.5647 0.10172 0.85956 0.0
C2762 C 0.56429 0.12698 0.73632 0.0
C2763 C 0.56207 0.14339 0.81966 0.0
H2764 H 0.49631 0.17734 0.6883 0.0
H2765 H 0.4354 0.16284 0.66678 0.0
H2766 H 0.4554 0.14153 0.72524 0.0
H2767 H 0.42884 0.14382 0.69847 0.0
H2768 H 0.59978 0.12649 0.81908 0.0
H2769 H 0.59141 0.08585 0.86991 0.0
H2770 H 0.54079 0.12093 0.8477 0.0
H2771 H 0.55491 0.09459 0.87079 0.0
Eu2772 Eu 0.15978 0.26939 1.00189 0.0
C2773 C 0.12594 0.34814 0.04057 0.0
C2774 C 0.13772 0.37796 1.02247 0.0
C2775 C 0.10411 0.37802 0.03802 0.0
C2776 C 0.14066 0.35771 1.02924 0.0
C2777 C 0.10798 0.35858 0.04617 0.0
C2778 C 0.11897 0.38769 1.02606 0.0
C2779 C 0.10106 0.33157 0.07017 0.0
N2780 N 0.13037 0.32951 0.04819 0.0
C2781 C 0.11886 0.32172 0.06383 0.0
C2782 C 0.09518 0.34974 0.06076 0.0
Eu2783 Eu 0.15908 0.31186 0.03421 0.0
N2784 N 0.15867 0.34789 1.0266 0.0
C2785 C 0.17529 0.35869 1.01972 0.0
C2786 C 0.15402 0.38814 1.01323 0.0
C2787 C 0.17302 0.37866 1.01234 0.0
H2788 H 0.12264 0.3072 0.07066 0.0
H2789 H 0.18584 0.38681 1.00588 0.0
H2790 H 0.11627 0.40308 1.02061 0.0
H2791 H 0.09168 0.32489 0.08202 0.0
H2792 H 0.19018 0.35166 1.01897 0.0
H2793 H 0.14129 0.23921 0.07733 0.0
H2794 H 0.15237 0.40364 1.00766 0.0
H2795 H 0.20223 0.26421 0.97362 0.0
H2796 H 0.13605 0.26042 0.04689 0.0
H2797 H 0.23454 0.24505 0.97508 0.0
H2798 H 0.09018 0.38609 0.04171 0.0
H2799 H 0.17218 0.21773 0.08038 0.0
H2800 H 0.20545 0.2061 0.06559 0.0
H2801 H 0.0813 0.35728 0.06557 0.0
H2802 H 0.23071 0.20773 0.03797 0.0
N2803 N 0.16333 0.25077 0.03235 0.0
C2804 C 0.1494 0.25098 0.04774 0.0
C2805 C 0.16989 0.22696 0.06684 0.0
C2806 C 0.18437 0.22718 0.05119 0.0
C2807 C 0.15242 0.23904 0.06517 0.0
C2808 C 0.1807 0.2395 0.03391 0.0
H2809 H 0.24166 0.22212 1.00425 0.0
N2810 N 0.19172 0.25325 1.00235 0.0
C2811 C 0.22366 0.24376 0.98741 0.0
C2812 C 0.1952 0.24068 1.01845 0.0
C2813 C 0.20545 0.25483 0.9868 0.0
C2814 C 0.22758 0.23077 1.00387 0.0
C2815 C 0.21333 0.22915 1.01968 0.0
O2816 O 0.16112 0.25926 0.97049 0.0
O2817 O 0.1442 0.29722 1.00911 0.0
O2818 O 0.12364 0.29783 0.03189 0.0
O2819 O 0.12379 0.26873 1.01201 0.0
O2820 O 0.14506 0.2903 0.97842 0.0
O2821 O 0.14569 0.24019 0.99279 0.0
O2822 O 0.15817 0.29694 0.06464 0.0
O2823 O 0.18209 0.28524 1.02589 0.0
O2824 O 0.1806 0.29171 0.98576 0.0
O2825 O 0.17304 0.32164 1.00392 0.0
O2826 O 0.1933 0.31435 0.02994 0.0
O2827 O 0.17815 0.3226 0.05858 0.0
C2828 C 0.13911 0.30349 0.99157 0.0
C2829 C 0.15543 0.22523 0.96092 0.0
C2830 C 0.14714 0.20397 0.93154 0.0
C2831 C 0.14213 0.21993 0.94482 0.0
C2832 C 0.16572 0.1936 0.93428 0.0
C2833 C 0.17391 0.21478 0.96348 0.0
C2834 C 0.17906 0.19909 0.95008 0.0
C2835 C 0.11266 0.28219 1.02312 0.0
C2836 C 0.15034 0.24283 0.97358 0.0
C2837 C 0.21682 0.21661 0.03671 0.0
C2838 C 0.20242 0.21568 0.05244 0.0
C2839 C 0.19974 0.29601 1.02613 0.0
C2840 C 0.16269 0.32332 0.09041 0.0
C2841 C 0.16759 0.34436 0.09186 0.0
C2842 C 0.16224 0.35602 0.10899 0.0
C2843 C 0.15102 0.34638 0.12457 0.0
C2844 C 0.15159 0.31414 0.10617 0.0
C2845 C 0.14563 0.3257 0.12304 0.0
C2846 C 0.18154 0.31165 0.98849 0.0
C2847 C 0.16974 0.31137 0.07253 0.0
H2848 H 0.12777 0.22797 0.94284 0.0
H2849 H 0.16975 0.18107 0.92432 0.0
H2850 H 0.18433 0.21878 0.9757 0.0
H2851 H 0.19336 0.19103 0.95206 0.0
H2852 H 0.17568 0.35185 0.07955 0.0
H2853 H 0.14678 0.35463 0.13819 0.0
H2854 H 0.14754 0.2981 0.10544 0.0
H2855 H 0.13706 0.3185 0.13518 0.0
Eu2856 Eu 0.4128 0.75549 0.53154 0.0
C2857 C 0.37032 0.79936 0.46545 0.0
C2858 C 0.37395 0.78222 0.43285 0.0
C2859 C 0.34335 0.80182 0.4399 0.0
C2860 C 0.38168 0.78679 0.4525 0.0
C2861 C 0.35184 0.80811 0.45854 0.0
C2862 C 0.35427 0.78871 0.42718 0.0
C2863 C 0.35305 0.83114 0.4874 0.0
N2864 N 0.3786 0.80524 0.4836 0.0
C2865 C 0.37092 0.82157 0.49408 0.0
C2866 C 0.34315 0.82401 0.46985 0.0
Eu2867 Eu 0.40966 0.78949 0.49242 0.0
N2868 N 0.40125 0.78161 0.45784 0.0
C2869 C 0.41443 0.77477 0.44317 0.0
C2870 C 0.38678 0.77276 0.41878 0.0
C2871 C 0.40722 0.76948 0.4238 0.0
H2872 H 0.37847 0.82681 0.50785 0.0
H2873 H 0.41758 0.76335 0.41255 0.0
H2874 H 0.34799 0.78488 0.41234 0.0
H2875 H 0.34677 0.84375 0.49594 0.0
H2876 H 0.43063 0.77353 0.446 0.0
H2877 H 0.38419 0.82662 0.56474 0.0
H2878 H 0.38142 0.76916 0.40353 0.0
H2879 H 0.46111 0.73678 0.5355 0.0
H2880 H 0.38679 0.80029 0.53851 0.0
H2881 H 0.48916 0.73751 0.56066 0.0
H2882 H 0.32886 0.8079 0.43465 0.0
H2883 H 0.40854 0.82694 0.59374 0.0
H2884 H 0.43988 0.81224 0.61035 0.0
H2885 H 0.32917 0.83131 0.46481 0.0
H2886 H 0.46847 0.78797 0.60923 0.0
N2887 N 0.41118 0.78445 0.553 0.0
C2888 C 0.39699 0.79957 0.55128 0.0
C2889 C 0.40952 0.81502 0.58235 0.0
C2890 C 0.42501 0.80038 0.58321 0.0
C2891 C 0.39572 0.81487 0.56604 0.0
C2892 C 0.42562 0.78524 0.56796 0.0
H2893 H 0.48712 0.76028 0.59064 0.0
N2894 N 0.44308 0.75882 0.55116 0.0
C2895 C 0.47596 0.7472 0.56271 0.0
C2896 C 0.44194 0.77184 0.56713 0.0
C2897 C 0.46008 0.74701 0.54837 0.0
C2898 C 0.47469 0.75999 0.57966 0.0
C2899 C 0.45776 0.77283 0.58182 0.0
O2900 O 0.42447 0.72745 0.54457 0.0
O2901 O 0.39502 0.7626 0.50405 0.0
O2902 O 0.37474 0.78375 0.50711 0.0
O2903 O 0.37624 0.76206 0.53454 0.0
O2904 O 0.40435 0.73325 0.50652 0.0
O2905 O 0.39461 0.73773 0.55348 0.0
O2906 O 0.41951 0.81971 0.50472 0.0
O2907 O 0.43247 0.78261 0.51931 0.0
O2908 O 0.43533 0.74326 0.50823 0.0
O2909 O 0.42833 0.76347 0.47952 0.0
O2910 O 0.4452 0.78846 0.49101 0.0
O2911 O 0.41066 0.81527 0.47283 0.0
C2912 C 0.39412 0.74552 0.4953 0.0
C2913 C 0.39943 0.70256 0.54711 0.0
C2914 C 0.38107 0.67192 0.55557 0.0
C2915 C 0.38841 0.69113 0.56113 0.0
C2916 C 0.38313 0.66471 0.53556 0.0
C2917 C 0.40349 0.69422 0.52767 0.0
C2918 C 0.39449 0.67589 0.52162 0.0
C2919 C 0.36423 0.77342 0.52207 0.0
C2920 C 0.40747 0.72255 0.55322 0.0
C2921 C 0.45655 0.78707 0.59773 0.0
C2922 C 0.44025 0.80087 0.59837 0.0
C2923 C 0.45046 0.78417 0.50976 0.0
C2924 C 0.43509 0.84053 0.47772 0.0
C2925 C 0.44222 0.8367 0.4577 0.0
C2926 C 0.45237 0.8519 0.44658 0.0
C2927 C 0.45697 0.87054 0.45611 0.0
C2928 C 0.44015 0.85908 0.48709 0.0
C2929 C 0.45133 0.87387 0.47641 0.0
C2930 C 0.43793 0.74819 0.48881 0.0
C2931 C 0.41852 0.82767 0.48623 0.0
H2932 H 0.38639 0.69668 0.57658 0.0
H2933 H 0.37726 0.64982 0.53123 0.0
H2934 H 0.41416 0.70126 0.51733 0.0
H2935 H 0.39721 0.66988 0.5065 0.0
H2936 H 0.43836 0.82255 0.44997 0.0
H2937 H 0.46473 0.88257 0.44777 0.0
H2938 H 0.43458 0.86253 0.50222 0.0
H2939 H 0.45485 0.88834 0.4836 0.0
Eu2940 Eu 0.8076 0.52173 0.90959 0.0
C2941 C 0.77206 0.58969 0.86309 0.0
C2942 C 0.78826 0.62196 0.87116 0.0
C2943 C 0.77786 0.6147 0.83631 0.0
C2944 C 0.78141 0.60244 0.87726 0.0
C2945 C 0.7688 0.5964 0.84289 0.0
C2946 C 0.78774 0.62743 0.85043 0.0
C2947 C 0.74479 0.56854 0.83843 0.0
N2948 N 0.76365 0.572 0.86978 0.0
C2949 C 0.74877 0.5623 0.85845 0.0
C2950 C 0.75536 0.58529 0.83039 0.0
Eu2951 Eu 0.77435 0.56148 0.90282 0.0
N2952 N 0.78126 0.59687 0.89732 0.0
C2953 C 0.78413 0.6114 0.91206 0.0
C2954 C 0.79384 0.636 0.8862 0.0
C2955 C 0.79082 0.63103 0.90665 0.0
H2956 H 0.74109 0.54897 0.86454 0.0
H2957 H 0.79345 0.64253 0.91808 0.0
H2958 H 0.79357 0.64211 0.84542 0.0
H2959 H 0.73379 0.5603 0.82916 0.0
H2960 H 0.78196 0.60772 0.92799 0.0
H2961 H 0.73742 0.49002 0.87512 0.0
H2962 H 0.79904 0.65122 0.88217 0.0
H2963 H 0.82015 0.51891 0.95983 0.0
H2964 H 0.76298 0.51672 0.88125 0.0
H2965 H 0.81641 0.49382 0.98778 0.0
H2966 H 0.77619 0.61976 0.82064 0.0
H2967 H 0.73605 0.45977 0.89774 0.0
H2968 H 0.74827 0.44256 0.92982 0.0
H2969 H 0.75228 0.5901 0.81486 0.0
H2970 H 0.76938 0.44398 0.96099 0.0
N2971 N 0.77814 0.50077 0.90522 0.0
C2972 C 0.76356 0.5032 0.89043 0.0
C2973 C 0.74777 0.47128 0.90012 0.0
C2974 C 0.76119 0.47014 0.91677 0.0
C2975 C 0.74854 0.48827 0.88728 0.0
C2976 C 0.77616 0.48554 0.91914 0.0
H2977 H 0.79435 0.46336 0.98301 0.0
N2978 N 0.8005 0.50268 0.93946 0.0
C2979 C 0.80833 0.49153 0.97351 0.0
C2980 C 0.78775 0.48653 0.93684 0.0
C2981 C 0.81023 0.5058 0.95774 0.0
C2982 C 0.79592 0.47433 0.97072 0.0
C2983 C 0.78512 0.47186 0.95239 0.0
O2984 O 0.83316 0.50694 0.92487 0.0
O2985 O 0.8021 0.54898 0.89128 0.0
O2986 O 0.78284 0.54615 0.86871 0.0
O2987 O 0.80129 0.51687 0.8734 0.0
O2988 O 0.83202 0.54461 0.89951 0.0
O2989 O 0.82766 0.50052 0.89322 0.0
O2990 O 0.74545 0.54563 0.91091 0.0
O2991 O 0.78047 0.53599 0.92741 0.0
O2992 O 0.82009 0.5468 0.93084 0.0
O2993 O 0.79913 0.57492 0.92315 0.0
O2994 O 0.77401 0.5647 0.93855 0.0
O2995 O 0.74568 0.57665 0.89914 0.0
C2996 C 0.81999 0.55623 0.88939 0.0
C2997 C 0.8611 0.51012 0.90337 0.0
C2998 C 0.88859 0.51535 0.87938 0.0
C2999 C 0.87134 0.50439 0.88576 0.0
C3000 C 0.89515 0.5327 0.8901 0.0
C3001 C 0.86858 0.52691 0.91481 0.0
C3002 C 0.88517 0.53839 0.90787 0.0
C3003 C 0.79212 0.52966 0.8599 0.0
C3004 C 0.84112 0.5008 0.90802 0.0
C3005 C 0.77139 0.45558 0.94936 0.0
C3006 C 0.75941 0.45474 0.93159 0.0
C3007 C 0.77827 0.54618 0.94496 0.0
C3008 C 0.72246 0.57095 0.92458 0.0
C3009 C 0.72914 0.58901 0.93437 0.0
C3010 C 0.71544 0.60108 0.94517 0.0
C3011 C 0.69522 0.59436 0.94768 0.0
C3012 C 0.70226 0.56433 0.9272 0.0
C3013 C 0.68877 0.57588 0.93899 0.0
C3014 C 0.81504 0.56637 0.93261 0.0
C3015 C 0.73502 0.5625 0.90808 0.0
H3016 H 0.8661 0.4912 0.87716 0.0
H3017 H 0.90866 0.54108 0.88541 0.0
H3018 H 0.86102 0.53188 0.92858 0.0
H3019 H 0.89043 0.55155 0.91641 0.0
H3020 H 0.74463 0.59459 0.93228 0.0
H3021 H 0.68437 0.60356 0.95601 0.0
H3022 H 0.69668 0.55082 0.9194 0.0
H3023 H 0.67307 0.57091 0.94072 0.0
Eu3024 Eu 0.78288 0.55552 0.15788 0.0
C3025 C 0.71486 0.51699 0.11412 0.0
C3026 C 0.68534 0.53882 0.10854 0.0
C3027 C 0.69237 0.51121 0.08496 0.0
C3028 C 0.70293 0.53374 0.12008 0.0
C3029 C 0.70909 0.50522 0.09696 0.0
C3030 C 0.68059 0.52798 0.09068 0.0
C3031 C 0.73557 0.48103 0.1057 0.0
N3032 N 0.73163 0.51168 0.12538 0.0
C3033 C 0.74129 0.4934 0.12208 0.0
C3034 C 0.71982 0.48727 0.09273 0.0
Eu3035 Eu 0.73776 0.53255 0.15415 0.0
N3036 N 0.70756 0.54412 0.13765 0.0
C3037 C 0.69447 0.5587 0.14487 0.0
C3038 C 0.67242 0.55414 0.11565 0.0
C3039 C 0.67682 0.56382 0.13404 0.0
H3040 H 0.75371 0.48858 0.13184 0.0
H3041 H 0.66656 0.5753 0.13992 0.0
H3042 H 0.66734 0.53199 0.08155 0.0
H3043 H 0.74357 0.46689 0.10286 0.0
H3044 H 0.69681 0.56632 0.15919 0.0
H3045 H 0.79954 0.47624 0.13591 0.0
H3046 H 0.65871 0.5583 0.10728 0.0
H3047 H 0.78848 0.5785 0.20331 0.0
H3048 H 0.78366 0.50955 0.13201 0.0
H3049 H 0.80598 0.57196 0.23602 0.0
H3050 H 0.68801 0.50257 0.07153 0.0
H3051 H 0.81963 0.4683 0.16691 0.0
H3052 H 0.83244 0.47914 0.20123 0.0
H3053 H 0.71568 0.4778 0.0798 0.0
H3054 H 0.83389 0.50484 0.22848 0.0
N3055 N 0.79475 0.52141 0.16017 0.0
C3056 C 0.79243 0.50683 0.14548 0.0
C3057 C 0.81271 0.48322 0.16524 0.0
C3058 C 0.81459 0.49791 0.18059 0.0
C3059 C 0.8014 0.48764 0.14772 0.0
C3060 C 0.8053 0.51712 0.17768 0.0
H3061 H 0.82382 0.5392 0.24171 0.0
N3062 N 0.79631 0.54967 0.19059 0.0
C3063 C 0.80619 0.56052 0.22412 0.0
C3064 C 0.80611 0.53162 0.19324 0.0
C3065 C 0.79626 0.56415 0.20557 0.0
C3066 C 0.81625 0.54202 0.22725 0.0
C3067 C 0.81627 0.52729 0.21177 0.0
O3068 O 0.79691 0.58441 0.16667 0.0
O3069 O 0.75211 0.56241 0.1463 0.0
O3070 O 0.75311 0.53186 0.11966 0.0
O3071 O 0.78541 0.54544 0.12184 0.0
O3072 O 0.77574 0.57198 0.12846 0.0
O3073 O 0.81563 0.56021 0.15423 0.0
O3074 O 0.74081 0.50088 0.16473 0.0
O3075 O 0.76454 0.53293 0.17767 0.0
O3076 O 0.76007 0.57662 0.17605 0.0
O3077 O 0.72842 0.56066 0.17162 0.0
O3078 O 0.73563 0.53464 0.18957 0.0
O3079 O 0.71045 0.5166 0.16295 0.0
C3080 C 0.75599 0.57226 0.13003 0.0
C3081 C 0.82851 0.59365 0.15163 0.0
C3082 C 0.83389 0.62601 0.1348 0.0
C3083 C 0.82079 0.61211 0.14414 0.0
C3084 C 0.85489 0.62185 0.13341 0.0
C3085 C 0.84954 0.58961 0.15041 0.0
C3086 C 0.86269 0.60373 0.14137 0.0
C3087 C 0.77045 0.53744 0.10963 0.0
C3088 C 0.81524 0.5787 0.16149 0.0
C3089 C 0.82593 0.50839 0.21438 0.0
C3090 C 0.82512 0.49377 0.19885 0.0
C3091 C 0.75463 0.53399 0.19545 0.0
C3092 C 0.71006 0.48174 0.17461 0.0
C3093 C 0.69071 0.48401 0.18339 0.0
C3094 C 0.67899 0.46687 0.18842 0.0
C3095 C 0.68681 0.44726 0.18485 0.0
C3096 C 0.71796 0.46214 0.17141 0.0
C3097 C 0.70632 0.44495 0.17654 0.0
C3098 C 0.73987 0.57529 0.17979 0.0
C3099 C 0.72075 0.49982 0.16694 0.0
H3100 H 0.80478 0.61578 0.14553 0.0
H3101 H 0.86521 0.63272 0.12633 0.0
H3102 H 0.85577 0.57556 0.15657 0.0
H3103 H 0.87891 0.60062 0.14051 0.0
H3104 H 0.68445 0.49912 0.18585 0.0
H3105 H 0.67793 0.4338 0.18869 0.0
H3106 H 0.7328 0.46013 0.16441 0.0
H3107 H 0.71232 0.42982 0.17386 0.0
Eu3108 Eu 0.74997 0.53706 0.41002 0.0
C3109 C 0.79235 0.4695 0.36362 0.0
C3110 C 0.77594 0.43607 0.36325 0.0
C3111 C 0.79876 0.44589 0.33577 0.0
C3112 C 0.77913 0.45523 0.37267 0.0
C3113 C 0.80272 0.46457 0.34547 0.0
C3114 C 0.78539 0.43173 0.34459 0.0
C3115 C 0.82211 0.49593 0.34878 0.0
N3116 N 0.79586 0.48776 0.37297 0.0
C3117 C 0.81159 0.5002 0.36671 0.0
C3118 C 0.81734 0.47827 0.33786 0.0
Eu3119 Eu 0.77676 0.49337 0.4029 0.0
N3120 N 0.76999 0.45969 0.39086 0.0
C3121 C 0.7595 0.4448 0.40118 0.0
C3122 C 0.76373 0.42153 0.37306 0.0
C3123 C 0.75581 0.42579 0.39226 0.0
H3124 H 0.81531 0.51392 0.37507 0.0
H3125 H 0.74708 0.41429 0.40035 0.0
H3126 H 0.78289 0.41718 0.33712 0.0
H3127 H 0.83389 0.50625 0.34341 0.0
H3128 H 0.75415 0.44716 0.41644 0.0
H3129 H 0.82817 0.55804 0.39044 0.0
H3130 H 0.76092 0.4067 0.36627 0.0
H3131 H 0.72483 0.53942 0.45461 0.0
H3132 H 0.79471 0.54139 0.38495 0.0
H3133 H 0.72964 0.55627 0.48801 0.0
H3134 H 0.80639 0.44202 0.32167 0.0
H3135 H 0.83519 0.5763 0.42278 0.0
H3136 H 0.82296 0.58744 0.4573 0.0
H3137 H 0.82554 0.475 0.32393 0.0
H3138 H 0.79615 0.58734 0.48348 0.0
N3139 N 0.78333 0.54939 0.41406 0.0
C3140 C 0.79776 0.54893 0.3992 0.0
C3141 C 0.82056 0.56879 0.42053 0.0
C3142 C 0.80553 0.56931 0.43569 0.0
C3143 C 0.81668 0.55847 0.40226 0.0
C3144 C 0.78679 0.55927 0.43203 0.0
H3145 H 0.76133 0.57584 0.49505 0.0
N3146 N 0.75402 0.54847 0.44354 0.0
C3147 C 0.74158 0.55707 0.47666 0.0
C3148 C 0.77168 0.55895 0.44706 0.0
C3149 C 0.73901 0.54735 0.45786 0.0
C3150 C 0.75951 0.56813 0.48055 0.0
C3151 C 0.7749 0.56903 0.46576 0.0
O3152 O 0.72406 0.55646 0.4173 0.0
O3153 O 0.7511 0.51095 0.39087 0.0
O3154 O 0.77278 0.50829 0.36823 0.0
O3155 O 0.75824 0.5397 0.37333 0.0
O3156 O 0.72183 0.52239 0.39574 0.0
O3157 O 0.74955 0.56861 0.39984 0.0
O3158 O 0.80844 0.50343 0.41163 0.0
O3159 O 0.77358 0.51833 0.42858 0.0
O3160 O 0.73259 0.512 0.42877 0.0
O3161 O 0.74705 0.482 0.41545 0.0
O3162 O 0.77385 0.48879 0.43819 0.0
O3163 O 0.79823 0.47086 0.41042 0.0
C3164 C 0.7322 0.50831 0.38667 0.0
C3165 C 0.71753 0.58341 0.39401 0.0
C3166 C 0.68496 0.58737 0.37685 0.0
C3167 C 0.69786 0.57604 0.38951 0.0
C3168 C 0.69167 0.60606 0.36867 0.0
C3169 C 0.72409 0.60217 0.38587 0.0
C3170 C 0.71118 0.61342 0.3732 0.0
C3171 C 0.76603 0.52601 0.35968 0.0
C3172 C 0.73145 0.57207 0.4073 0.0
C3173 C 0.79341 0.57946 0.46921 0.0
C3174 C 0.80869 0.57951 0.45428 0.0
C3175 C 0.77313 0.50722 0.44569 0.0
C3176 C 0.83201 0.47526 0.42208 0.0
C3177 C 0.83058 0.45653 0.43244 0.0
C3178 C 0.84778 0.44443 0.43555 0.0
C3179 C 0.86701 0.45164 0.42937 0.0
C3180 C 0.85125 0.48265 0.41628 0.0
C3181 C 0.86874 0.4709 0.42012 0.0
C3182 C 0.73343 0.49157 0.42687 0.0
C3183 C 0.81313 0.48389 0.41368 0.0
H3184 H 0.69255 0.5616 0.3957 0.0
H3185 H 0.68167 0.61509 0.35901 0.0
H3186 H 0.73921 0.6081 0.38935 0.0
H3187 H 0.71626 0.62789 0.367 0.0
H3188 H 0.81574 0.45063 0.43701 0.0
H3189 H 0.88057 0.44249 0.43182 0.0
H3190 H 0.85262 0.49687 0.40792 0.0
H3191 H 0.88358 0.47646 0.41535 0.0
Eu3192 Eu 0.77159 0.49341 0.65986 0.0
C3193 C 0.83846 0.53143 0.61251 0.0
C3194 C 0.86908 0.51073 0.61146 0.0
C3195 C 0.86032 0.53231 0.58261 0.0
C3196 C 0.85133 0.51721 0.62178 0.0
C3197 C 0.84358 0.53995 0.5934 0.0
C3198 C 0.87293 0.51757 0.59155 0.0
C3199 C 0.81667 0.56468 0.59799 0.0
N3200 N 0.82177 0.53807 0.62279 0.0
C3201 C 0.81177 0.55543 0.61653 0.0
C3202 C 0.83229 0.55658 0.5861 0.0
Eu3203 Eu 0.81484 0.52095 0.65395 0.0
N3204 N 0.84768 0.51135 0.64143 0.0
C3205 C 0.8626 0.50128 0.65217 0.0
C3206 C 0.8831 0.49845 0.62182 0.0
C3207 C 0.88012 0.49421 0.64238 0.0
H3208 H 0.79935 0.56158 0.62537 0.0
H3209 H 0.8916 0.48578 0.65068 0.0
H3210 H 0.88628 0.51239 0.58334 0.0
H3211 H 0.80822 0.57788 0.59274 0.0
H3212 H 0.86147 0.4988 0.66838 0.0
H3213 H 0.74905 0.5681 0.6277 0.0
H3214 H 0.89686 0.49313 0.6144 0.0
H3215 H 0.76801 0.48154 0.71019 0.0
H3216 H 0.77158 0.53907 0.63285 0.0
H3217 H 0.74594 0.48924 0.73916 0.0
H3218 H 0.86413 0.53828 0.56767 0.0
H3219 H 0.72007 0.57353 0.65109 0.0
H3220 H 0.70268 0.56386 0.68369 0.0
H3221 H 0.83588 0.56362 0.57158 0.0
H3222 H 0.70249 0.54281 0.71479 0.0
N3223 N 0.75391 0.52532 0.6563 0.0
C3224 C 0.75821 0.53988 0.64197 0.0
C3225 C 0.7295 0.56006 0.65278 0.0
C3226 C 0.72684 0.54668 0.66917 0.0
C3227 C 0.74575 0.557 0.63951 0.0
C3228 C 0.73963 0.5294 0.67068 0.0
H3229 H 0.71912 0.51556 0.73593 0.0
N3230 N 0.75375 0.5029 0.68999 0.0
C3231 C 0.74381 0.49729 0.72487 0.0
C3232 C 0.73965 0.51782 0.68821 0.0
C3233 C 0.75628 0.49294 0.70824 0.0
C3234 C 0.7287 0.51209 0.72297 0.0
C3235 C 0.72669 0.52283 0.70461 0.0
O3236 O 0.76471 0.46711 0.67776 0.0
O3237 O 0.80237 0.49074 0.64839 0.0
O3238 O 0.79906 0.51786 0.61958 0.0
O3239 O 0.76782 0.50196 0.62368 0.0
O3240 O 0.78165 0.47626 0.6313 0.0
O3241 O 0.74484 0.47361 0.65255 0.0
O3242 O 0.80299 0.55173 0.66162 0.0
O3243 O 0.78909 0.51774 0.67826 0.0
O3244 O 0.79663 0.47664 0.67931 0.0
O3245 O 0.82695 0.49365 0.67151 0.0
O3246 O 0.81847 0.52043 0.68945 0.0
O3247 O 0.83632 0.54357 0.66176 0.0
C3248 C 0.80123 0.47887 0.63326 0.0
C3249 C 0.75165 0.43861 0.66218 0.0
C3250 C 0.74532 0.40941 0.64051 0.0
C3251 C 0.7424 0.43011 0.64496 0.0
C3252 C 0.7584 0.39747 0.65261 0.0
C3253 C 0.76363 0.42601 0.67506 0.0
C3254 C 0.7674 0.40577 0.66995 0.0
C3255 C 0.78163 0.51067 0.61066 0.0
C3256 C 0.74969 0.46051 0.66685 0.0
C3257 C 0.71276 0.53892 0.70248 0.0
C3258 C 0.71282 0.55085 0.68475 0.0
C3259 C 0.79964 0.51859 0.6958 0.0
C3260 C 0.82891 0.57718 0.6724 0.0
C3261 C 0.84776 0.57772 0.68243 0.0
C3262 C 0.85857 0.59592 0.68432 0.0
C3263 C 0.84908 0.61431 0.67845 0.0
C3264 C 0.81932 0.59538 0.66668 0.0
C3265 C 0.8293 0.61401 0.67013 0.0
C3266 C 0.81688 0.47899 0.68131 0.0
C3267 C 0.82217 0.55749 0.66464 0.0
H3268 H 0.73231 0.43926 0.63549 0.0
H3269 H 0.76048 0.38137 0.64949 0.0
H3270 H 0.77073 0.43197 0.68879 0.0
H3271 H 0.77702 0.39642 0.67963 0.0
H3272 H 0.85471 0.56359 0.68757 0.0
H3273 H 0.85707 0.62877 0.67972 0.0
H3274 H 0.80476 0.59513 0.65873 0.0
H3275 H 0.82214 0.62814 0.66545 0.0
Eu3276 Eu 0.49127 0.1486 0.28212 0.0
C3277 C 0.5597 0.11039 0.26712 0.0
C3278 C 0.5732 0.12305 0.29928 0.0
C3279 C 0.5822 0.08906 0.28762 0.0
C3280 C 0.56123 0.12589 0.28155 0.0
C3281 C 0.57 0.09174 0.27016 0.0
C3282 C 0.58384 0.10467 0.30211 0.0
C3283 C 0.55487 0.07938 0.23878 0.0
N3284 N 0.54739 0.11315 0.25062 0.0
C3285 C 0.54496 0.0981 0.23639 0.0
C3286 C 0.56743 0.07617 0.25574 0.0
Eu3287 Eu 0.53115 0.1451 0.24812 0.0
N3288 N 0.5502 0.14327 0.27878 0.0
C3289 C 0.55032 0.15819 0.29328 0.0
C3290 C 0.57374 0.13856 0.31393 0.0
C3291 C 0.56216 0.15615 0.31095 0.0
H3292 H 0.5354 0.10044 0.22312 0.0
H3293 H 0.56218 0.16808 0.32236 0.0
H3294 H 0.59311 0.10226 0.31564 0.0
H3295 H 0.55274 0.06743 0.22758 0.0
H3296 H 0.54117 0.17159 0.29164 0.0
H3297 H 0.41448 0.11875 0.26225 0.0
H3298 H 0.58275 0.13695 0.32775 0.0
H3299 H 0.4958 0.1897 0.31423 0.0
H3300 H 0.44981 0.11599 0.2754 0.0
H3301 H 0.47981 0.22365 0.3181 0.0
H3302 H 0.59024 0.07484 0.29019 0.0
H3303 H 0.3993 0.15276 0.25597 0.0
H3304 H 0.40207 0.19093 0.25983 0.0
H3305 H 0.57497 0.06159 0.25763 0.0
H3306 H 0.4204 0.22018 0.27493 0.0
N3307 N 0.45528 0.14813 0.27485 0.0
C3308 C 0.44345 0.13094 0.27256 0.0
C3309 C 0.41487 0.15164 0.26161 0.0
C3310 C 0.42608 0.16917 0.26669 0.0
C3311 C 0.42337 0.13243 0.26518 0.0
C3312 C 0.44636 0.16685 0.27376 0.0
H3313 H 0.44909 0.23239 0.2977 0.0
N3314 N 0.47499 0.17995 0.29101 0.0
C3315 C 0.4733 0.21261 0.30762 0.0
C3316 C 0.4567 0.18339 0.28196 0.0
C3317 C 0.48219 0.19337 0.30551 0.0
C3318 C 0.45605 0.21751 0.29598 0.0
C3319 C 0.44698 0.2025 0.28367 0.0
O3320 O 0.50737 0.14014 0.31081 0.0
O3321 O 0.5179 0.12562 0.275 0.0
O3322 O 0.50763 0.12289 0.23468 0.0
O3323 O 0.47951 0.12902 0.256 0.0
O3324 O 0.48999 0.11283 0.28197 0.0
O3325 O 0.47613 0.15085 0.31092 0.0
O3326 O 0.54487 0.13868 0.21851 0.0
O3327 O 0.50359 0.16223 0.2548 0.0
O3328 O 0.50612 0.18355 0.27686 0.0
O3329 O 0.5334 0.18134 0.25547 0.0
O3330 O 0.50714 0.15436 0.22445 0.0
O3331 O 0.55785 0.16227 0.23755 0.0
C3332 C 0.50851 0.10744 0.27676 0.0
C3333 C 0.48255 0.124 0.33316 0.0
C3334 C 0.45293 0.10374 0.34479 0.0
C3335 C 0.46178 0.11793 0.33129 0.0
C3336 C 0.4657 0.09452 0.35948 0.0
C3337 C 0.49487 0.11447 0.34782 0.0
C3338 C 0.4865 0.09963 0.36072 0.0
C3339 C 0.48835 0.11989 0.24024 0.0
C3340 C 0.49033 0.14163 0.32118 0.0
C3341 C 0.42782 0.20543 0.2744 0.0
C3342 C 0.41736 0.18875 0.26587 0.0
C3343 C 0.49584 0.16411 0.23715 0.0
C3344 C 0.55324 0.16939 0.20261 0.0
C3345 C 0.56456 0.16864 0.18453 0.0
C3346 C 0.55931 0.18153 0.16816 0.0
C3347 C 0.54282 0.19501 0.16985 0.0
C3348 C 0.53711 0.18342 0.20419 0.0
C3349 C 0.53186 0.19601 0.1879 0.0
C3350 C 0.52133 0.19363 0.26671 0.0
C3351 C 0.55676 0.15463 0.2192 0.0
H3352 H 0.45221 0.12468 0.31959 0.0
H3353 H 0.4596 0.08378 0.37046 0.0
H3354 H 0.51078 0.11883 0.34958 0.0
H3355 H 0.49606 0.09249 0.3722 0.0
H3356 H 0.57736 0.15827 0.18322 0.0
H3357 H 0.53899 0.20535 0.15749 0.0
H3358 H 0.52836 0.18461 0.21796 0.0
H3359 H 0.51946 0.20672 0.18939 0.0
Eu3360 Eu 1.0269 0.90074 0.73723 0.0
C3361 C 0.0325 0.86556 0.80891 0.0
C3362 C 1.00117 0.88081 0.8212 0.0
C3363 C 1.01101 0.84697 0.83282 0.0
C3364 C 1.01918 0.88207 0.80947 0.0
C3365 C 1.02841 0.84779 0.82042 0.0
C3366 C 0.9974 0.8634 0.83316 0.0
C3367 C 0.05815 0.83214 0.80541 0.0
N3368 N 0.04893 0.86647 0.79641 0.0
C3369 C 0.0614 0.84988 0.79403 0.0
C3370 C 0.04172 0.83118 0.81887 0.0
Eu3371 Eu 0.05539 0.89863 0.78127 0.0
N3372 N 1.02311 0.89874 0.79763 0.0
C3373 C 1.0087 0.91365 0.79552 0.0
C3374 C 0.9871 0.89679 0.82009 0.0
C3375 C 0.99071 0.91307 0.80688 0.0
H3376 H 0.07433 0.85061 0.78383 0.0
H3377 H 0.97951 0.9251 0.80524 0.0
H3378 H 0.98374 0.86231 0.84239 0.0
H3379 H 0.06828 0.81922 0.80377 0.0
H3380 H 1.01043 0.92581 0.78481 0.0
H3381 H 0.04923 0.8678 0.66302 0.0
H3382 H 0.97307 0.89635 0.82881 0.0
H3383 H 0.99308 0.93938 0.73999 0.0
H3384 H 0.03864 0.86648 0.69879 0.0
H3385 H 0.98306 0.96993 0.72022 0.0
H3386 H 1.00768 0.83349 0.84183 0.0
H3387 H 0.05113 0.90078 0.64484 0.0
H3388 H 0.04228 0.93792 0.64408 0.0
H3389 H 0.03924 0.81741 0.8277 0.0
H3390 H 1.02364 0.96629 0.6598 0.0
N3391 N 0.03492 0.89879 0.70157 0.0
C3392 C 0.03926 0.88113 0.69126 0.0
C3393 C 0.04647 0.9004 0.66068 0.0
C3394 C 0.03971 0.91805 0.67044 0.0
C3395 C 0.04549 0.88176 0.67091 0.0
C3396 C 0.03363 0.9167 0.69105 0.0
H3397 H 1.00035 0.97785 0.6877 0.0
N3398 N 1.01605 0.93027 0.71897 0.0
C3399 C 0.99489 0.95995 0.71454 0.0
C3400 C 1.02376 0.93296 0.70004 0.0
C3401 C 1.00064 0.94269 0.72569 0.0
C3402 C 1.00475 0.9644 0.69627 0.0
C3403 C 1.01889 0.9505 0.68845 0.0
O3404 O 0.99875 0.89095 0.75362 0.0
O3405 O 0.03282 0.87714 0.76353 0.0
O3406 O 0.0736 0.87956 0.75808 0.0
O3407 O 0.05659 0.88598 0.72714 0.0
O3408 O 0.02975 0.86544 0.7346 0.0
O3409 O 0.99781 0.90146 0.72238 0.0
O3410 O 0.07801 0.8857 0.8019 0.0
O3411 O 0.05134 0.91587 0.75313 0.0
O3412 O 0.03031 0.93618 0.75198 0.0
O3413 O 0.04662 0.93506 0.78312 0.0
O3414 O 0.0812 0.91146 0.76235 0.0
O3415 O 0.07107 0.91742 0.80455 0.0
C3416 C 0.03273 0.85938 0.75337 0.0
C3417 C 0.97447 0.87598 0.7297 0.0
C3418 C 0.96125 0.85766 0.69985 0.0
C3419 C 0.97703 0.86835 0.70968 0.0
C3420 C 0.94342 0.85293 0.71077 0.0
C3421 C 0.95676 0.87082 0.74048 0.0
C3422 C 0.94146 0.85904 0.73113 0.0
C3423 C 0.07187 0.87798 0.73787 0.0
C3424 C 0.98775 0.8928 0.73698 0.0
C3425 C 1.02677 0.9527 0.66873 0.0
C3426 C 0.03733 0.93651 0.65976 0.0
C3427 C 0.06981 0.91964 0.74862 0.0
C3428 C 0.10591 0.90742 0.8042 0.0
C3429 C 0.11735 0.92017 0.81692 0.0
C3430 C 0.13796 0.92412 0.81246 0.0
C3431 C 0.14685 0.91601 0.79482 0.0
C3432 C 0.1154 0.89848 0.78711 0.0
C3433 C 0.13556 0.90316 0.78222 0.0
C3434 C 0.03757 0.94696 0.76862 0.0
C3435 C 0.08426 0.90311 0.80859 0.0
H3436 H 0.99055 0.8723 0.70096 0.0
H3437 H 0.93097 0.84472 0.70349 0.0
H3438 H 0.95433 0.8767 0.7557 0.0
H3439 H 0.92762 0.85541 0.7394 0.0
H3440 H 0.11045 0.92656 0.8305 0.0
H3441 H 0.1628 0.91883 0.79132 0.0
H3442 H 0.10733 0.88775 0.77746 0.0
H3443 H 0.14256 0.89646 0.76889 0.0
Eu3444 Eu 0.49458 0.90102 0.27432 0.0
C3445 C 0.56334 0.94009 0.30222 0.0
C3446 C 0.57797 0.93379 0.26887 0.0
C3447 C 0.58854 0.96364 0.28839 0.0
C3448 C 0.56473 0.92806 0.28479 0.0
C3449 C 0.57547 0.95782 0.30431 0.0
C3450 C 0.58976 0.95169 0.27072 0.0
C3451 C 0.56145 0.96232 0.3381 0.0
N3452 N 0.55037 0.93434 0.31726 0.0
C3453 C 0.54962 0.94471 0.33529 0.0
C3454 C 0.57427 0.96904 0.32245 0.0
Eu3455 Eu 0.53187 0.90427 0.31129 0.0
N3456 N 0.55313 0.91082 0.28335 0.0
C3457 C 0.55413 0.89854 0.26666 0.0
C3458 C 0.57897 0.92134 0.25156 0.0
C3459 C 0.56701 0.90363 0.25047 0.0
H3460 H 0.53956 0.93966 0.34734 0.0
H3461 H 0.56769 0.89392 0.23715 0.0
H3462 H 0.59997 0.95637 0.2586 0.0
H3463 H 0.56056 0.97078 0.35224 0.0
H3464 H 0.5449 0.88496 0.26565 0.0
H3465 H 0.41618 0.92023 0.29972 0.0
H3466 H 0.58893 0.92525 0.23898 0.0
H3467 H 0.49976 0.86322 0.23873 0.0
H3468 H 0.44919 0.92783 0.2832 0.0
H3469 H 0.48665 0.8282 0.23319 0.0
H3470 H 0.59788 0.9773 0.28965 0.0
H3471 H 0.40637 0.88442 0.30702 0.0
H3472 H 0.41301 0.84714 0.30083 0.0
H3473 H 0.58332 0.98278 0.32461 0.0
H3474 H 0.43244 0.82139 0.28181 0.0
N3475 N 0.45931 0.89695 0.28387 0.0
C3476 C 0.44545 0.91223 0.28702 0.0
C3477 C 0.42112 0.88773 0.30028 0.0
C3478 C 0.43386 0.87199 0.29374 0.0
C3479 C 0.42658 0.90796 0.29613 0.0
C3480 C 0.45296 0.87717 0.28519 0.0
H3481 H 0.4594 0.81441 0.25545 0.0
N3482 N 0.4806 0.86881 0.26436 0.0
C3483 C 0.4803 0.83756 0.24517 0.0
C3484 C 0.46398 0.86255 0.27484 0.0
C3485 C 0.48749 0.85745 0.24819 0.0
C3486 C 0.46506 0.8298 0.25788 0.0
C3487 C 0.45607 0.84262 0.27235 0.0
O3488 O 0.51006 0.90745 0.245 0.0
O3489 O 0.51963 0.92442 0.28445 0.0
O3490 O 0.5097 0.92885 0.32123 0.0
O3491 O 0.48196 0.92144 0.29948 0.0
O3492 O 0.49465 0.93668 0.27043 0.0
O3493 O 0.47741 0.90033 0.24664 0.0
O3494 O 0.53768 0.90105 0.34371 0.0
O3495 O 0.50509 0.88613 0.30228 0.0
O3496 O 0.51214 0.86797 0.27648 0.0
O3497 O 0.53495 0.86825 0.30275 0.0
O3498 O 0.50545 0.89728 0.33192 0.0
O3499 O 0.56013 0.89003 0.32192 0.0
C3500 C 0.51181 0.94264 0.27888 0.0
C3501 C 0.48657 0.9221 0.22033 0.0
C3502 C 0.45843 0.94259 0.2072 0.0
C3503 C 0.46845 0.93319 0.22353 0.0
C3504 C 0.46745 0.94257 0.18786 0.0
C3505 C 0.49569 0.92247 0.20105 0.0
C3506 C 0.48629 0.93298 0.18495 0.0
C3507 C 0.49066 0.93178 0.31472 0.0
C3508 C 0.49252 0.90631 0.23515 0.0
C3509 C 0.43844 0.8368 0.28303 0.0
C3510 C 0.42737 0.85149 0.29384 0.0
C3511 C 0.4953 0.88641 0.31894 0.0
C3512 C 0.57124 0.89777 0.35568 0.0
C3513 C 0.57011 0.88872 0.37492 0.0
C3514 C 0.58573 0.89155 0.38934 0.0
C3515 C 0.60207 0.90482 0.38442 0.0
C3516 C 0.58737 0.91105 0.35098 0.0
C3517 C 0.60262 0.91475 0.3655 0.0
C3518 C 0.52522 0.85712 0.28835 0.0
C3519 C 0.5553 0.89236 0.34109 0.0
H3520 H 0.46102 0.93291 0.2383 0.0
H3521 H 0.45979 0.94972 0.17503 0.0
H3522 H 0.50941 0.91374 0.19817 0.0
H3523 H 0.49314 0.93287 0.16996 0.0
H3524 H 0.557 0.87916 0.37842 0.0
H3525 H 0.61475 0.90719 0.39482 0.0
H3526 H 0.58825 0.91834 0.33617 0.0
H3527 H 0.61519 0.92492 0.36191 0.0
Eu3528 Eu 0.90545 0.74351 1.02803 0.0
C3529 C 0.86406 0.812 0.04616 0.0
C3530 C 0.8749 0.82675 1.01396 0.0
C3531 C 0.84203 0.83604 1.0284 0.0
C3532 C 0.87868 0.81402 0.0309 0.0
C3533 C 0.84566 0.82309 0.0451 0.0
C3534 C 0.85657 0.83781 1.01285 0.0
C3535 C 0.83541 0.80721 0.07682 0.0
N3536 N 0.86768 0.799 0.06188 0.0
C3537 C 0.85389 0.79659 0.07726 0.0
C3538 C 0.83129 0.82058 0.0607 0.0
Eu3539 Eu 0.89981 0.78336 0.06197 0.0
N3540 N 0.89627 0.80308 0.03228 0.0
C3541 C 0.91037 0.80361 1.01707 0.0
C3542 C 0.88955 0.82775 0.99848 0.0
C3543 C 0.90729 0.81602 0.99998 0.0
H3544 H 0.85726 0.78677 0.0901 0.0
H3545 H 0.91855 0.81645 0.98794 0.0
H3546 H 0.85343 0.84769 0.99995 0.0
H3547 H 0.82445 0.80525 0.08899 0.0
H3548 H 0.92388 0.79437 1.01784 0.0
H3549 H 0.90329 0.66513 0.05983 0.0
H3550 H 0.88719 0.83732 0.98518 0.0
H3551 H 0.93631 0.75854 0.98941 0.0
H3552 H 0.88776 0.69589 0.04524 0.0
H3553 H 0.97046 0.74977 0.97594 0.0
H3554 H 0.82791 0.84458 1.02724 0.0
H3555 H 0.9405 0.65966 0.05671 0.0
H3556 H 0.9736 0.67032 0.04078 0.0
H3557 H 0.81701 0.82889 0.06047 0.0
H3558 H 0.99187 0.69302 1.0171 0.0
N3559 N 0.91604 0.70976 0.03711 0.0
C3560 C 0.90405 0.69455 0.04501 0.0
C3561 C 0.93379 0.67362 0.05091 0.0
C3562 C 0.94553 0.6878 0.04007 0.0
C3563 C 0.9128 0.67669 0.05276 0.0
C3564 C 0.93611 0.70591 0.03307 0.0
H3565 H 0.9904 0.72195 0.99197 0.0
N3566 N 0.93714 0.73579 1.01268 0.0
C3567 C 0.96409 0.74117 0.98852 0.0
C3568 C 0.94678 0.71902 1.02015 0.0
C3569 C 0.94474 0.74595 0.99601 0.0
C3570 C 0.97533 0.72553 0.9977 0.0
C3571 C 0.96655 0.71393 1.01339 0.0
O3572 O 0.89623 0.75655 0.99826 0.0
O3573 O 0.88075 0.76879 0.03512 0.0
O3574 O 0.87726 0.75943 0.07325 0.0
O3575 O 0.88673 0.73042 0.05445 0.0
O3576 O 0.87032 0.74023 1.02727 0.0
O3577 O 0.90409 0.72428 1.0019 0.0
O3578 O 0.89821 0.79117 0.09394 0.0
O3579 O 0.91805 0.75693 0.05515 0.0
O3580 O 0.9395 0.75978 0.03239 0.0
O3581 O 0.93601 0.78676 0.05417 0.0
O3582 O 0.9101 0.76023 0.08554 0.0
O3583 O 0.91201 0.81282 0.07293 0.0
C3584 C 0.86324 0.75831 0.03186 0.0
C3585 C 0.8777 0.73048 0.97917 0.0
C3586 C 0.85868 0.70047 0.96728 0.0
C3587 C 0.87666 0.70946 0.97469 0.0
C3588 C 0.8417 0.71295 0.96327 0.0
C3589 C 0.86069 0.74279 0.97499 0.0
C3590 C 0.84284 0.73402 0.96686 0.0
C3591 C 0.87598 0.73963 0.06907 0.0
C3592 C 0.89606 0.73815 0.99001 0.0
C3593 C 0.97646 0.69685 1.02169 0.0
C3594 C 0.96603 0.68391 0.03515 0.0
C3595 C 0.92008 0.74929 0.07275 0.0
C3596 C 0.90203 0.82445 0.10619 0.0
C3597 C 0.9139 0.82667 0.12395 0.0
C3598 C 0.90725 0.83897 0.14018 0.0
C3599 C 0.88853 0.84943 0.13785 0.0
C3600 C 0.88369 0.83514 0.10406 0.0
C3601 C 0.87706 0.84771 0.11985 0.0
C3602 C 0.94876 0.77531 0.04266 0.0
C3603 C 0.90783 0.80844 0.09191 0.0
H3604 H 0.88965 0.69972 0.97799 0.0
H3605 H 0.82765 0.70644 0.95728 0.0
H3606 H 0.86102 0.75897 0.97835 0.0
H3607 H 0.8297 0.74353 0.9637 0.0
H3608 H 0.92819 0.81842 0.12511 0.0
H3609 H 0.88243 0.85869 0.15001 0.0
H3610 H 0.87433 0.8334 0.09051 0.0
H3611 H 0.86273 0.85579 0.11834 0.0
Eu3612 Eu 0.6534 0.2771 0.56785 0.0
C3613 C 0.61021 0.28894 0.49811 0.0
C3614 C 0.61501 0.25312 0.4894 0.0
C3615 C 0.58326 0.27032 0.48039 0.0
C3616 C 0.62245 0.27132 0.49814 0.0
C3617 C 0.59066 0.28855 0.48896 0.0
C3618 C 0.59537 0.2527 0.48061 0.0
C3619 C 0.58738 0.32455 0.49663 0.0
N3620 N 0.61738 0.30637 0.50693 0.0
C3621 C 0.60687 0.32429 0.50542 0.0
C3622 C 0.57911 0.30655 0.48861 0.0
Eu3623 Eu 0.65009 0.30329 0.52113 0.0
N3624 N 0.64134 0.27183 0.50712 0.0
C3625 C 0.65362 0.25513 0.50768 0.0
C3626 C 0.6275 0.23577 0.48991 0.0
C3627 C 0.64686 0.23678 0.49907 0.0
H3628 H 0.6135 0.33836 0.51108 0.0
H3629 H 0.65652 0.22341 0.49958 0.0
H3630 H 0.58938 0.23879 0.4739 0.0
H3631 H 0.57879 0.33864 0.49593 0.0
H3632 H 0.66844 0.2559 0.51503 0.0
H3633 H 0.64034 0.31933 0.63938 0.0
H3634 H 0.6223 0.22148 0.48335 0.0
H3635 H 0.68777 0.23869 0.56293 0.0
H3636 H 0.62954 0.3007 0.60862 0.0
H3637 H 0.72143 0.22927 0.57712 0.0
H3638 H 0.56819 0.26971 0.47347 0.0
H3639 H 0.67663 0.31909 0.65022 0.0
H3640 H 0.71175 0.30439 0.646 0.0
H3641 H 0.56397 0.30681 0.48182 0.0
H3642 H 0.73383 0.27915 0.62935 0.0
N3643 N 0.65987 0.29177 0.60057 0.0
C3644 C 0.64558 0.30097 0.61264 0.0
C3645 C 0.67206 0.31115 0.63643 0.0
C3646 C 0.68608 0.29947 0.62549 0.0
C3647 C 0.65156 0.31132 0.63037 0.0
C3648 C 0.67935 0.28949 0.6076 0.0
H3649 H 0.73719 0.25034 0.60432 0.0
N3650 N 0.68435 0.26469 0.58214 0.0
C3651 C 0.71334 0.24231 0.58315 0.0
C3652 C 0.69188 0.27533 0.59822 0.0
C3653 C 0.6941 0.24748 0.5754 0.0
C3654 C 0.72222 0.25431 0.59841 0.0
C3655 C 0.71129 0.27075 0.60649 0.0
O3656 O 0.65002 0.24428 0.56054 0.0
O3657 O 0.63215 0.2789 0.53925 0.0
O3658 O 0.62734 0.32055 0.54138 0.0
O3659 O 0.63415 0.30555 0.57343 0.0
O3660 O 0.61805 0.27834 0.56732 0.0
O3661 O 0.63982 0.25698 0.58964 0.0
O3662 O 0.66557 0.32897 0.50725 0.0
O3663 O 0.66649 0.30094 0.54941 0.0
O3664 O 0.68874 0.28011 0.55361 0.0
O3665 O 0.68523 0.29136 0.5205 0.0
O3666 O 0.65932 0.33072 0.54014 0.0
O3667 O 0.65116 0.30687 0.48771 0.0
C3668 C 0.61384 0.27924 0.54797 0.0
C3669 C 0.64769 0.22219 0.59064 0.0
C3670 C 0.64419 0.20229 0.62238 0.0
C3671 C 0.64036 0.22005 0.61084 0.0
C3672 C 0.65561 0.18659 0.61323 0.0
C3673 C 0.65899 0.20631 0.58203 0.0
C3674 C 0.663 0.18869 0.59335 0.0
C3675 C 0.62451 0.31894 0.56142 0.0
C3676 C 0.64207 0.24054 0.57865 0.0
C3677 C 0.71874 0.28208 0.62311 0.0
C3678 C 0.70617 0.29647 0.63257 0.0
C3679 C 0.66867 0.31965 0.55362 0.0
C3680 C 0.64994 0.34203 0.47781 0.0
C3681 C 0.65706 0.36173 0.48198 0.0
C3682 C 0.65244 0.37816 0.46907 0.0
C3683 C 0.63774 0.37524 0.45359 0.0
C3684 C 0.63532 0.33921 0.46233 0.0
C3685 C 0.62884 0.35594 0.45068 0.0
C3686 C 0.69808 0.28507 0.5356 0.0
C3687 C 0.65942 0.32488 0.48891 0.0
H3688 H 0.63161 0.2323 0.61759 0.0
H3689 H 0.65853 0.17242 0.62121 0.0
H3690 H 0.66453 0.20739 0.56653 0.0
H3691 H 0.67166 0.17642 0.58656 0.0
H3692 H 0.66744 0.364 0.49472 0.0
H3693 H 0.63376 0.38746 0.4432 0.0
H3694 H 0.62916 0.32418 0.45907 0.0
H3695 H 0.61763 0.35373 0.43867 0.0
Eu3696 Eu 0.28356 0.48542 0.15796 0.0
C3697 C 0.27436 0.55287 0.11518 0.0
C3698 C 0.30553 0.56746 0.12921 0.0
C3699 C 0.2947 0.57636 0.09482 0.0
C3700 C 0.28802 0.555 0.13137 0.0
C3701 C 0.27763 0.56347 0.09673 0.0
C3702 C 0.30866 0.57828 0.11097 0.0
C3703 C 0.24771 0.54668 0.08273 0.0
N3704 N 0.25828 0.53988 0.11718 0.0
C3705 C 0.24524 0.53629 0.10117 0.0
C3706 C 0.26381 0.56055 0.08059 0.0
Eu3707 Eu 0.25326 0.52627 0.15014 0.0
N3708 N 0.28467 0.54429 0.14886 0.0
C3709 C 0.29862 0.5449 0.16441 0.0
C3710 C 0.3196 0.56846 0.14533 0.0
C3711 C 0.31622 0.55695 0.16291 0.0
H3712 H 0.23257 0.52575 0.10274 0.0
H3713 H 0.32723 0.55726 0.17529 0.0
H3714 H 0.32198 0.588 0.10913 0.0
H3715 H 0.23718 0.54402 0.07021 0.0
H3716 H 0.29675 0.53574 0.17782 0.0
H3717 H 0.27863 0.41049 0.1191 0.0
H3718 H 0.33328 0.57778 0.14422 0.0
H3719 H 0.30763 0.48379 0.20479 0.0
H3720 H 0.28824 0.4464 0.12205 0.0
H3721 H 0.30386 0.46471 0.23704 0.0
H3722 H 0.29745 0.58464 0.08077 0.0
H3723 H 0.2625 0.39248 0.14809 0.0
H3724 H 0.25421 0.39224 0.1855 0.0
H3725 H 0.26563 0.56868 0.06633 0.0
H3726 H 0.26127 0.40769 0.21901 0.0
N3727 N 0.27815 0.44939 0.15294 0.0
C3728 C 0.28147 0.43905 0.13508 0.0
C3729 C 0.26679 0.40841 0.14962 0.0
C3730 C 0.26537 0.41835 0.16837 0.0
C3731 C 0.27582 0.41853 0.1332 0.0
C3732 C 0.27187 0.43888 0.16966 0.0
H3733 H 0.28119 0.43438 0.2385 0.0
N3734 N 0.28597 0.46544 0.18854 0.0
C3735 C 0.2955 0.45987 0.22358 0.0
C3736 C 0.27585 0.44742 0.18838 0.0
C3737 C 0.29755 0.47064 0.20527 0.0
C3738 C 0.28258 0.44287 0.22437 0.0
C3739 C 0.27341 0.43581 0.20637 0.0
O3740 O 0.31086 0.50427 0.15186 0.0
O3741 O 0.2782 0.50998 0.13232 0.0
O3742 O 0.23783 0.50052 0.1313 0.0
O3743 O 0.25639 0.47145 0.14083 0.0
O3744 O 0.28425 0.48158 0.12226 0.0
O3745 O 0.31389 0.47406 0.16444 0.0
O3746 O 0.22682 0.54172 0.13747 0.0
O3747 O 0.2573 0.50048 0.17096 0.0
O3748 O 0.27765 0.50189 0.19214 0.0
O3749 O 0.26078 0.53183 0.18656 0.0
O3750 O 0.2282 0.50496 0.16067 0.0
O3751 O 0.24097 0.55342 0.16493 0.0
C3752 C 0.28028 0.49966 0.11502 0.0
C3753 C 0.3384 0.48362 0.1407 0.0
C3754 C 0.35216 0.45716 0.11872 0.0
C3755 C 0.33628 0.46483 0.13055 0.0
C3756 C 0.36995 0.46888 0.11601 0.0
C3757 C 0.35602 0.49544 0.13762 0.0
C3758 C 0.37166 0.48815 0.12511 0.0
C3759 C 0.24109 0.48038 0.13086 0.0
C3760 C 0.32332 0.48942 0.15616 0.0
C3761 C 0.26389 0.41659 0.20531 0.0
C3762 C 0.25987 0.4078 0.18623 0.0
C3763 C 0.23922 0.49364 0.1723 0.0
C3764 C 0.20549 0.54955 0.16427 0.0
C3765 C 0.19981 0.5635 0.17899 0.0
C3766 C 0.18212 0.5601 0.19016 0.0
C3767 C 0.17142 0.54144 0.18837 0.0
C3768 C 0.19365 0.53172 0.16114 0.0
C3769 C 0.17727 0.52727 0.17384 0.0
C3770 C 0.26971 0.51926 0.2006 0.0
C3771 C 0.22458 0.55293 0.15349 0.0
H3772 H 0.32284 0.45543 0.13297 0.0
H3773 H 0.3825 0.46306 0.10703 0.0
H3774 H 0.35793 0.50996 0.14532 0.0
H3775 H 0.3854 0.49715 0.12298 0.0
H3776 H 0.20832 0.57767 0.18078 0.0
H3777 H 0.15749 0.5386 0.19683 0.0
H3778 H 0.19705 0.52111 0.14902 0.0
H3779 H 0.16855 0.51332 0.17177 0.0
Eu3780 Eu 0.32129 0.52855 0.9076 0.0
C3781 C 0.25192 0.5238 0.86661 0.0
C3782 C 0.23992 0.55506 0.88228 0.0
C3783 C 0.2294 0.54654 0.8477 0.0
C3784 C 0.25121 0.53678 0.8834 0.0
C3785 C 0.24121 0.52873 0.84852 0.0
C3786 C 0.22877 0.55967 0.86451 0.0
C3787 C 0.2558 0.49887 0.8327 0.0
N3788 N 0.26393 0.50698 0.86754 0.0
C3789 C 0.26637 0.49475 0.85078 0.0
C3790 C 0.24309 0.51588 0.83157 0.0
Eu3791 Eu 0.27836 0.49988 0.89995 0.0
N3792 N 0.26241 0.53215 0.90036 0.0
C3793 C 0.26369 0.54557 0.91621 0.0
C3794 C 0.24056 0.56847 0.89886 0.0
C3795 C 0.25271 0.56382 0.91577 0.0
H3796 H 0.27613 0.48147 0.85151 0.0
H3797 H 0.25373 0.57435 0.92845 0.0
H3798 H 0.21992 0.57359 0.86347 0.0
H3799 H 0.25757 0.48899 0.81961 0.0
H3800 H 0.27339 0.54265 0.92908 0.0
H3801 H 0.39783 0.50575 0.88065 0.0
H3802 H 0.23213 0.58268 0.89855 0.0
H3803 H 0.31568 0.55996 0.9483 0.0
H3804 H 0.36317 0.51993 0.87648 0.0
H3805 H 0.33171 0.56517 0.9822 0.0
H3806 H 0.22102 0.55052 0.83397 0.0
H3807 H 0.41196 0.49972 0.91521 0.0
H3808 H 0.40879 0.50514 0.953 0.0
H3809 H 0.23512 0.51919 0.81743 0.0
H3810 H 0.39054 0.52167 0.98119 0.0
N3811 N 0.35685 0.51997 0.9084 0.0
C3812 C 0.36904 0.51714 0.89168 0.0
C3813 C 0.39661 0.50568 0.91348 0.0
C3814 C 0.38522 0.51147 0.93051 0.0
C3815 C 0.38873 0.50915 0.89395 0.0
C3816 C 0.36522 0.51894 0.92743 0.0
H3817 H 0.36221 0.5451 0.99202 0.0
N3818 N 0.33662 0.53677 0.93949 0.0
C3819 C 0.33817 0.55432 0.97162 0.0
C3820 C 0.35477 0.52772 0.9435 0.0
C3821 C 0.32922 0.55141 0.95245 0.0
C3822 C 0.35531 0.54287 0.97712 0.0
C3823 C 0.3643 0.52997 0.96272 0.0
O3824 O 0.30653 0.55827 0.90067 0.0
O3825 O 0.2952 0.52552 0.88323 0.0
O3826 O 0.30287 0.48454 0.87928 0.0
O3827 O 0.33284 0.50136 0.88999 0.0
O3828 O 0.32411 0.52859 0.87173 0.0
O3829 O 0.33816 0.55645 0.91046 0.0
O3830 O 0.25871 0.47718 0.88604 0.0
O3831 O 0.30534 0.50206 0.9193 0.0
O3832 O 0.30561 0.52181 0.94196 0.0
O3833 O 0.27498 0.50557 0.93669 0.0
O3834 O 0.2977 0.47289 0.90952 0.0
O3835 O 0.25217 0.48729 0.91657 0.0
C3836 C 0.30517 0.52601 0.8657 0.0
C3837 C 0.33138 0.5823 0.88709 0.0
C3838 C 0.36058 0.59724 0.86895 0.0
C3839 C 0.352 0.58146 0.88061 0.0
C3840 C 0.34809 0.61355 0.86281 0.0
C3841 C 0.31913 0.59856 0.88056 0.0
C3842 C 0.32743 0.61399 0.86831 0.0
C3843 C 0.32319 0.48724 0.87912 0.0
C3844 C 0.32395 0.56803 0.90297 0.0
C3845 C 0.38324 0.52063 0.96635 0.0
C3846 C 0.39365 0.51127 0.95027 0.0
C3847 C 0.31048 0.48344 0.92024 0.0
C3848 C 0.25201 0.45218 0.90972 0.0
C3849 C 0.23977 0.44495 0.92534 0.0
C3850 C 0.2428 0.42534 0.9328 0.0
C3851 C 0.2585 0.41301 0.92494 0.0
C3852 C 0.26765 0.43976 0.90168 0.0
C3853 C 0.27098 0.42033 0.90949 0.0
C3854 C 0.28833 0.51365 0.95054 0.0
C3855 C 0.24941 0.47311 0.90284 0.0
H3856 H 0.36187 0.56913 0.88559 0.0
H3857 H 0.3543 0.62594 0.85375 0.0
H3858 H 0.30338 0.59965 0.88546 0.0
H3859 H 0.31795 0.62664 0.8635 0.0
H3860 H 0.22764 0.4544 0.93142 0.0
H3861 H 0.26067 0.39746 0.93021 0.0
H3862 H 0.27745 0.44504 0.88948 0.0
H3863 H 0.283 0.41085 0.90336 0.0
Eu3864 Eu 0.27091 0.56345 0.65754 0.0
C3865 C 0.28979 0.49462 0.61893 0.0
C3866 C 0.25678 0.48043 0.62835 0.0
C3867 C 0.27322 0.46963 0.59695 0.0
C3868 C 0.27364 0.49319 0.63268 0.0
C3869 C 0.28986 0.48261 0.60111 0.0
C3870 C 0.25667 0.46867 0.61044 0.0
C3871 C 0.32241 0.49789 0.59227 0.0
N3872 N 0.30536 0.5078 0.6229 0.0
C3873 C 0.32165 0.50954 0.61007 0.0
C3874 C 0.30652 0.48425 0.58783 0.0
Eu3875 Eu 0.30423 0.52347 0.65488 0.0
N3876 N 0.27421 0.50452 0.65006 0.0
C3877 C 0.25842 0.50423 0.6635 0.0
C3878 C 0.24048 0.47995 0.64212 0.0
C3879 C 0.24126 0.49199 0.6597 0.0
H3880 H 0.33434 0.51951 0.61378 0.0
H3881 H 0.22866 0.49182 0.67034 0.0
H3882 H 0.24384 0.45875 0.60688 0.0
H3883 H 0.33536 0.49923 0.58212 0.0
H3884 H 0.25887 0.51358 0.67699 0.0
H3885 H 0.28463 0.63931 0.62259 0.0
H3886 H 0.22718 0.47042 0.63928 0.0
H3887 H 0.23913 0.56023 0.69835 0.0
H3888 H 0.27549 0.60302 0.62231 0.0
H3889 H 0.23168 0.57964 0.7297 0.0
H3890 H 0.2729 0.46044 0.58322 0.0
H3891 H 0.29058 0.65721 0.65509 0.0
H3892 H 0.28697 0.65718 0.69307 0.0
H3893 H 0.30725 0.47509 0.57412 0.0
H3894 H 0.27183 0.64064 0.72312 0.0
N3895 N 0.27685 0.5996 0.65476 0.0
C3896 C 0.27811 0.61032 0.63679 0.0
C3897 C 0.28666 0.64112 0.65519 0.0
C3898 C 0.28284 0.63084 0.67346 0.0
C3899 C 0.28344 0.63102 0.63678 0.0
C3900 C 0.27743 0.60995 0.67272 0.0
H3901 H 0.24965 0.61229 0.73642 0.0
N3902 N 0.26118 0.58168 0.68745 0.0
C3903 C 0.24254 0.5856 0.71877 0.0
C3904 C 0.26917 0.60064 0.68971 0.0
C3905 C 0.24682 0.57467 0.70103 0.0
C3906 C 0.25285 0.6039 0.72257 0.0
C3907 C 0.2658 0.61201 0.70765 0.0
O3908 O 0.24422 0.54544 0.64659 0.0
O3909 O 0.27952 0.53832 0.63302 0.0
O3910 O 0.31862 0.5472 0.63446 0.0
O3911 O 0.29942 0.57638 0.64249 0.0
O3912 O 0.2731 0.56719 0.62278 0.0
O3913 O 0.24035 0.57503 0.66002 0.0
O3914 O 0.33592 0.51511 0.65407 0.0
O3915 O 0.2965 0.54998 0.67233 0.0
O3916 O 0.27553 0.54841 0.69241 0.0
O3917 O 0.29544 0.51979 0.691 0.0
O3918 O 0.32759 0.54541 0.66892 0.0
O3919 O 0.31344 0.49296 0.66548 0.0
C3920 C 0.27819 0.54934 0.61569 0.0
C3921 C 0.22209 0.56998 0.63014 0.0
C3922 C 0.21228 0.60096 0.61136 0.0
C3923 C 0.21848 0.59126 0.62939 0.0
C3924 C 0.20876 0.58898 0.59392 0.0
C3925 C 0.2184 0.55831 0.61259 0.0
C3926 C 0.2116 0.56779 0.59464 0.0
C3927 C 0.31514 0.56706 0.63374 0.0
C3928 C 0.23215 0.56121 0.64851 0.0
C3929 C 0.27372 0.63189 0.70925 0.0
C3930 C 0.28231 0.64131 0.69213 0.0
C3931 C 0.31397 0.55728 0.67644 0.0
C3932 C 0.34743 0.48158 0.65723 0.0
C3933 C 0.36624 0.48397 0.66681 0.0
C3934 C 0.38179 0.46981 0.66419 0.0
C3935 C 0.37874 0.45356 0.65047 0.0
C3936 C 0.34415 0.46553 0.64354 0.0
C3937 C 0.35998 0.45158 0.64006 0.0
C3938 C 0.28467 0.53271 0.70296 0.0
C3939 C 0.33266 0.49721 0.66201 0.0
H3940 H 0.22154 0.60067 0.64266 0.0
H3941 H 0.20374 0.59598 0.57979 0.0
H3942 H 0.22123 0.54202 0.61259 0.0
H3943 H 0.20887 0.55872 0.5811 0.0
H3944 H 0.3687 0.49708 0.67669 0.0
H3945 H 0.39054 0.44226 0.64816 0.0
H3946 H 0.32965 0.46389 0.63562 0.0
H3947 H 0.35764 0.43908 0.62952 0.0
Eu3948 Eu 0.24391 0.52496 0.40695 0.0
C3949 C 0.3098 0.54953 0.366 0.0
C3950 C 0.3255 0.51751 0.37608 0.0
C3951 C 0.33391 0.53295 0.34339 0.0
C3952 C 0.31233 0.53394 0.38024 0.0
C3953 C 0.32064 0.54922 0.34748 0.0
C3954 C 0.33632 0.51714 0.35763 0.0
C3955 C 0.30436 0.58108 0.33833 0.0
N3956 N 0.29644 0.56478 0.37005 0.0
C3957 C 0.29381 0.58065 0.35681 0.0
C3958 C 0.31773 0.56523 0.33357 0.0
Eu3959 Eu 0.27984 0.56282 0.40161 0.0
N3960 N 0.3013 0.53441 0.39777 0.0
C3961 C 0.30274 0.51908 0.41178 0.0
C3962 C 0.32714 0.50174 0.39045 0.0
C3963 C 0.31567 0.50253 0.40835 0.0
H3964 H 0.28333 0.59285 0.36033 0.0
H3965 H 0.3167 0.49032 0.41946 0.0
H3966 H 0.34649 0.50462 0.35416 0.0
H3967 H 0.30203 0.59353 0.3277 0.0
H3968 H 0.29376 0.51938 0.42544 0.0
H3969 H 0.16487 0.55446 0.4146 0.0
H3970 H 0.33706 0.48881 0.38779 0.0
H3971 H 0.26648 0.4877 0.43499 0.0
H3972 H 0.19487 0.54478 0.39514 0.0
H3973 H 0.26114 0.47059 0.46816 0.0
H3974 H 0.34231 0.5324 0.32919 0.0
H3975 H 0.16163 0.5445 0.45057 0.0
H3976 H 0.17501 0.52486 0.48021 0.0
H3977 H 0.32572 0.56549 0.31914 0.0
H3978 H 0.2006 0.50156 0.49459 0.0
N3979 N 0.21062 0.53116 0.42047 0.0
C3980 C 0.19462 0.54085 0.41102 0.0
C3981 C 0.17533 0.54049 0.44229 0.0
C3982 C 0.19069 0.52884 0.45142 0.0
C3983 C 0.17712 0.54613 0.42192 0.0
C3984 C 0.20844 0.52426 0.4401 0.0
H3985 H 0.23213 0.48069 0.48992 0.0
N3986 N 0.24049 0.50702 0.43797 0.0
C3987 C 0.25053 0.48215 0.46296 0.0
C3988 C 0.22329 0.51142 0.44873 0.0
C3989 C 0.25338 0.49168 0.44414 0.0
C3990 C 0.23415 0.48794 0.4752 0.0
C3991 C 0.22018 0.50251 0.46808 0.0
O3992 O 0.258 0.49583 0.39774 0.0
O3993 O 0.26902 0.53444 0.38329 0.0
O3994 O 0.2545 0.57204 0.37881 0.0
O3995 O 0.22831 0.54873 0.38733 0.0
O3996 O 0.24222 0.52337 0.37118 0.0
O3997 O 0.22528 0.49826 0.40519 0.0
O3998 O 0.28831 0.59485 0.39878 0.0
O3999 O 0.2534 0.55414 0.41966 0.0
O4000 O 0.25935 0.53066 0.4411 0.0
O4001 O 0.28309 0.55601 0.43798 0.0
O4002 O 0.25449 0.58439 0.40973 0.0
O4003 O 0.30698 0.57437 0.41733 0.0
C4004 C 0.26007 0.53014 0.36531 0.0
C4005 C 0.23328 0.47441 0.38023 0.0
C4006 C 0.20495 0.46409 0.35825 0.0
C4007 C 0.21437 0.47859 0.37073 0.0
C4008 C 0.21511 0.44583 0.35385 0.0
C4009 C 0.24351 0.45628 0.37552 0.0
C4010 C 0.23456 0.44219 0.3621 0.0
C4011 C 0.23548 0.56466 0.37684 0.0
C4012 C 0.23986 0.48684 0.39778 0.0
C4013 C 0.203 0.50793 0.47952 0.0
C4014 C 0.18843 0.5212 0.47131 0.0
C4015 C 0.24423 0.57118 0.42015 0.0
C4016 C 0.32155 0.60611 0.40733 0.0
C4017 C 0.3228 0.62409 0.41866 0.0
C4018 C 0.33986 0.63701 0.41715 0.0
C4019 C 0.3554 0.63188 0.40324 0.0
C4020 C 0.3369 0.60117 0.39345 0.0
C4021 C 0.35376 0.61418 0.39133 0.0
C4022 C 0.27316 0.54295 0.45058 0.0
C4023 C 0.30396 0.59302 0.41097 0.0
H4024 H 0.20604 0.49242 0.37429 0.0
H4025 H 0.20785 0.4343 0.34441 0.0
H4026 H 0.25791 0.45264 0.38288 0.0
H4027 H 0.24231 0.42801 0.35881 0.0
H4028 H 0.31032 0.6279 0.42878 0.0
H4029 H 0.369 0.64123 0.40178 0.0
H4030 H 0.33589 0.58733 0.38446 0.0
H4031 H 0.36575 0.61039 0.38069 0.0
H4032 H 0.07279 0.48391 0.26818 0.0
H4033 H 1.01363 0.47115 0.29324 0.0
H4034 H 1.00653 0.50799 0.29506 0.0
H4035 H 0.08476 0.5314 0.29542 0.0
H4036 H 0.09574 0.54456 0.274 0.0
H4037 H 0.09635 0.51705 0.27514 0.0
H4038 H 0.07955 0.51526 0.24057 0.0
H4039 H 0.07509 0.54234 0.23785 0.0
H4040 H 0.05405 0.52493 0.23682 0.0
H4041 H 1.00662 0.5528 0.29425 0.0
H4042 H 1.0136 0.58993 0.29052 0.0
H4043 H 0.07189 0.5753 0.26399 0.0
C4044 C 0.05828 0.48847 0.27454 0.0
C4045 C 0.04423 0.4722 0.28172 0.0
C4046 C 1.02551 0.48114 0.28865 0.0
C4047 C 1.02122 0.50305 0.28943 0.0
C4048 C 0.03546 0.51816 0.28274 0.0
C4049 C 0.05375 0.51075 0.27521 0.0
C4050 C 0.06627 0.52976 0.26758 0.0
C4051 C 0.08703 0.53075 0.27864 0.0
C4052 C 0.06902 0.52796 0.24438 0.0
C4053 C 0.05305 0.54913 0.27273 0.0
C4054 C 0.03503 0.54213 0.28126 0.0
C4055 C 1.02077 0.55753 0.28713 0.0
C4056 C 1.0247 0.57945 0.28444 0.0
C4057 C 0.04285 0.58795 0.27538 0.0
C4058 C 0.05719 0.57133 0.27002 0.0
H4059 H 0.82875 0.7949 0.56326 0.0
H4060 H 0.84357 0.79138 0.49924 0.0
H4061 H 0.80666 0.78854 0.49103 0.0
H4062 H 0.78427 0.75709 0.56064 0.0
H4063 H 0.76882 0.77037 0.57898 0.0
H4064 H 0.79631 0.77216 0.58039 0.0
H4065 H 0.79444 0.81122 0.57882 0.0
H4066 H 0.76691 0.80972 0.57763 0.0
H4067 H 0.7808 0.82333 0.55816 0.0
H4068 H 0.76302 0.78961 0.48922 0.0
H4069 H 0.72566 0.79027 0.49481 0.0
H4070 H 0.73608 0.78747 0.55965 0.0
C4071 C 0.82459 0.79274 0.54742 0.0
C4072 C 0.84118 0.7925 0.53214 0.0
C4073 C 0.83294 0.79085 0.51183 0.0
C4074 C 0.81123 0.78942 0.50689 0.0
C4075 C 0.79575 0.78946 0.52207 0.0
C4076 C 0.8024 0.79067 0.54217 0.0
C4077 C 0.78254 0.79007 0.55573 0.0
C4078 C 0.78303 0.77131 0.56979 0.0
C4079 C 0.78109 0.80975 0.56835 0.0
C4080 C 0.76384 0.78841 0.54054 0.0
C4081 C 0.77185 0.78843 0.52105 0.0
C4082 C 0.75739 0.78856 0.50468 0.0
C4083 C 0.73531 0.78819 0.50797 0.0
C4084 C 0.72577 0.78664 0.5276 0.0
C4085 C 0.74136 0.78736 0.54404 0.0
H4086 H 0.51074 0.47952 0.80911 0.0
H4087 H 0.51852 0.46945 0.74453 0.0
H4088 H 0.52054 0.50669 0.73921 0.0
H4089 H 0.48001 0.52644 0.8051 0.0
H4090 H 0.49156 0.53924 0.82661 0.0
H4091 H 0.49107 0.5117 0.82559 0.0
H4092 H 0.53022 0.51094 0.83003 0.0
H4093 H 0.53068 0.53847 0.83117 0.0
H4094 H 0.5461 0.5253 0.81272 0.0
H4095 H 0.51901 0.54956 0.74048 0.0
H4096 H 0.51791 0.58651 0.74823 0.0
H4097 H 0.51405 0.57227 0.81254 0.0
C4098 C 0.5134 0.48486 0.79372 0.0
C4099 C 0.51533 0.46943 0.77742 0.0
C4100 C 0.51797 0.47899 0.75787 0.0
C4101 C 0.51879 0.50097 0.7546 0.0
C4102 C 0.51705 0.51525 0.77084 0.0
C4103 C 0.51471 0.50728 0.79025 0.0
C4104 C 0.51347 0.52601 0.80527 0.0
C4105 C 0.49281 0.52583 0.81632 0.0
C4106 C 0.53116 0.52512 0.82074 0.0
C4107 C 0.51543 0.54571 0.79162 0.0
C4108 C 0.51712 0.539 0.77165 0.0
C4109 C 0.51802 0.55426 0.75625 0.0
C4110 C 0.51737 0.57592 0.76091 0.0
C4111 C 0.51634 0.58418 0.78114 0.0
C4112 C 0.51536 0.56789 0.7967 0.0
H4113 H 0.82958 0.23997 0.03644 0.0
H4114 H 0.83783 0.30194 1.01536 0.0
H4115 H 0.80041 0.30643 1.01426 0.0
H4116 H 0.78274 0.22921 1.00694 0.0
H4117 H 0.76814 0.2155 1.02584 0.0
H4118 H 0.79553 0.21473 1.02668 0.0
H4119 H 0.79877 0.22827 0.0623 0.0
H4120 H 0.77125 0.22707 0.06387 0.0
H4121 H 0.78454 0.25057 0.06968 0.0
H4122 H 0.75771 0.30375 1.01384 0.0
H4123 H 0.72092 0.29479 1.01612 0.0
H4124 H 0.73717 0.23636 0.04176 0.0
C4125 C 0.82376 0.25466 0.03164 0.0
C4126 C 0.83851 0.27054 1.02535 0.0
C4127 C 0.82846 0.289 1.01934 0.0
C4128 C 0.80651 0.29182 1.01899 0.0
C4129 C 0.79276 0.27613 1.02489 0.0
C4130 C 0.80122 0.25779 0.0313 0.0
C4131 C 0.78276 0.24346 0.03714 0.0
C4132 C 0.78227 0.22463 1.02327 0.0
C4133 C 0.78443 0.23695 0.05959 0.0
C4134 C 0.76297 0.25645 0.03352 0.0
C4135 C 0.7691 0.27525 1.02608 0.0
C4136 C 0.75342 0.28917 1.02037 0.0
C4137 C 0.73184 0.28415 1.02232 0.0
C4138 C 0.72434 0.26545 0.03091 0.0
C4139 C 0.74108 0.25138 0.03605 0.0
H4140 H 0.28616 0.07398 0.48291 0.0
H4141 H 0.26189 1.01519 0.4651 0.0
H4142 H 0.25809 1.00606 0.50155 0.0
H4143 H 0.31337 0.05735 0.53072 0.0
H4144 H 0.30669 0.07964 0.5453 0.0
H4145 H 0.30868 0.08127 0.51791 0.0
H4146 H 0.27206 0.09523 0.51586 0.0
H4147 H 0.26995 0.09358 0.54325 0.0
H4148 H 0.2514 0.08092 0.52718 0.0
H4149 H 0.25551 1.0032 0.54443 0.0
H4150 H 0.25549 1.00691 0.58188 0.0
H4151 H 0.27977 0.06803 0.57565 0.0
C4152 C 0.28031 0.0589 0.48639 0.0
C4153 C 0.27563 0.04505 0.46911 0.0
C4154 C 0.26726 1.02607 0.47629 0.0
C4155 C 0.26454 1.02082 0.49775 0.0
C4156 C 0.26958 0.03453 0.51391 0.0
C4157 C 0.27734 0.05341 0.50829 0.0
C4158 C 0.28107 0.06569 0.52873 0.0
C4159 C 0.30381 0.07134 0.53078 0.0
C4160 C 0.26785 0.08502 0.52875 0.0
C4161 C 0.2745 0.05106 0.54673 0.0
C4162 C 0.26775 0.03313 0.53762 0.0
C4163 C 0.26075 1.01748 0.55094 0.0
C4164 C 0.26049 1.01985 0.573 0.0
C4165 C 0.26706 0.03781 0.5838 0.0
C4166 C 0.27443 0.05367 0.56942 0.0
H4167 H 0.24571 0.05404 0.73288 0.0
H4168 H 0.27385 0.9967 0.71684 0.0
H4169 H 0.27861 0.98918 0.75359 0.0
H4170 H 0.2813 0.06398 0.7778 0.0
H4171 H 0.26212 0.07635 0.79302 0.0
H4172 H 0.26056 0.07736 0.76554 0.0
H4173 H 0.22449 0.06215 0.76669 0.0
H4174 H 0.22568 0.06125 0.79418 0.0
H4175 H 0.21988 0.03841 0.77988 0.0
H4176 H 0.27777 0.98617 0.79609 0.0
H4177 H 0.27579 0.99005 0.83327 0.0
H4178 H 0.25208 0.05099 0.82567 0.0
C4179 C 0.25298 0.03979 0.73675 0.0
C4180 C 0.25909 1.02605 0.71998 0.0
C4181 C 0.26871 1.00795 0.72768 0.0
C4182 C 0.2715 1.00344 0.74926 0.0
C4183 C 0.26515 1.01705 0.7649 0.0
C4184 C 0.2565 0.03527 0.75873 0.0
C4185 C 0.25198 0.04781 0.77875 0.0
C4186 C 0.26473 0.06757 0.77878 0.0
C4187 C 0.22911 0.0527 0.77998 0.0
C4188 C 0.25859 0.03382 0.79718 0.0
C4189 C 0.26608 1.01602 0.78857 0.0
C4190 C 0.27235 1.00048 0.80223 0.0
C4191 C 0.27142 1.00297 0.82415 0.0
C4192 C 0.26476 1.02104 0.83453 0.0
C4193 C 0.25791 0.03674 0.8198 0.0
H4194 H 0.26674 0.98434 0.0756 0.0
H4195 H 0.29394 0.04365 0.08488 0.0
H4196 H 0.29546 0.04913 0.048 0.0
H4197 H 0.29672 0.9728 1.02857 0.0
H4198 H 0.27647 0.95982 1.01514 0.0
H4199 H 0.27687 0.95988 0.04264 0.0
H4200 H 0.24084 0.97471 0.04333 0.0
H4201 H 0.23969 0.97533 1.01582 0.0
H4202 H 0.23547 0.99831 0.03018 0.0
H4203 H 0.29584 0.04791 1.0058 0.0
H4204 H 0.29382 0.04019 0.96889 0.0
H4205 H 0.26384 0.98326 0.98294 0.0
C4206 C 0.27282 0.99873 0.07016 0.0
C4207 C 0.28021 1.01376 0.08528 0.0
C4208 C 0.28819 0.03165 0.07545 0.0
C4209 C 0.28907 0.03496 0.0537 0.0
C4210 C 0.28187 1.02026 0.03966 0.0
C4211 C 0.2738 1.00233 0.04768 0.0
C4212 C 0.26745 0.98888 1.02881 0.0
C4213 C 0.28009 0.96915 1.0288 0.0
C4214 C 0.24449 0.98398 1.0296 0.0
C4215 C 0.27253 1.00204 1.00932 0.0
C4216 C 0.28116 1.02009 1.01606 0.0
C4217 C 0.28826 0.03401 1.00095 0.0
C4218 C 0.28637 0.02984 0.97925 0.0
C4219 C 0.27653 1.01212 0.97096 0.0
C4220 C 0.2702 0.99784 0.98723 0.0
H4221 H 0.27032 0.04644 0.22864 0.0
H4222 H 0.31286 0.99674 0.22225 0.0
H4223 H 0.31768 0.99571 0.25926 0.0
H4224 H 0.29077 0.07182 0.27375 0.0
H4225 H 0.26701 0.07535 0.28713 0.0
H4226 H 0.26701 0.07308 0.25971 0.0
H4227 H 0.24142 0.04319 0.2619 0.0
H4228 H 0.24128 0.04557 0.28935 0.0
H4229 H 0.24742 1.02148 0.27768 0.0
H4230 H 0.31974 1.00097 0.301 0.0
H4231 H 0.31573 1.00871 0.33762 0.0
H4232 H 0.26881 0.05261 0.32227 0.0
C4233 C 0.28039 0.03485 0.23474 0.0
C4234 C 0.29157 1.02173 0.22013 0.0
C4235 C 0.30444 1.00762 0.23097 0.0
C4236 C 0.30713 1.00674 0.25289 0.0
C4237 C 0.29644 1.01975 0.2663 0.0
C4238 C 0.28264 0.03318 0.25749 0.0
C4239 C 0.2719 0.0443 0.27597 0.0
C4240 C 0.27431 0.06753 0.27402 0.0
C4241 C 0.24914 0.03832 0.27624 0.0
C4242 C 0.28268 0.03629 0.29613 0.0
C4243 C 0.2967 1.02183 0.28992 0.0
C4244 C 0.30847 1.01216 0.30541 0.0
C4245 C 0.30601 1.01677 0.32693 0.0
C4246 C 0.29176 0.03132 0.33489 0.0
C4247 C 0.27997 0.04121 0.31823 0.0
H4248 H 0.48356 0.25313 0.03794 0.0
H4249 H 0.47793 0.31816 0.0482 0.0
H4250 H 0.51553 0.32135 0.04855 0.0
H4251 H 0.53134 0.24444 0.06805 0.0
H4252 H 0.54291 0.22715 0.05017 0.0
H4253 H 0.51543 0.22926 0.05135 0.0
H4254 H 0.51414 0.23764 1.01302 0.0
H4255 H 0.54163 0.23552 1.01173 0.0
H4256 H 0.5292 0.25857 1.00327 0.0
H4257 H 0.55711 0.31781 0.04915 0.0
H4258 H 0.59364 0.30893 0.04707 0.0
H4259 H 0.57688 0.24634 0.03344 0.0
C4260 C 0.49001 0.26815 0.04048 0.0
C4261 C 0.47595 0.28544 0.04344 0.0
C4262 C 0.48677 0.30438 0.04605 0.0
C4263 C 0.5088 0.30639 0.04629 0.0
C4264 C 0.52184 0.28943 0.04343 0.0
C4265 C 0.5127 0.27057 0.04023 0.0
C4266 C 0.53067 0.25505 0.03642 0.0
C4267 C 0.53004 0.23794 0.05244 0.0
C4268 C 0.52879 0.24614 1.01483 0.0
C4269 C 0.55113 0.26775 0.03847 0.0
C4270 C 0.54538 0.28765 0.04264 0.0
C4271 C 0.56118 0.30221 0.04565 0.0
C4272 C 0.58258 0.29686 0.04439 0.0
C4273 C 0.59001 0.27682 0.03976 0.0
C4274 C 0.57312 0.26206 0.03676 0.0
H4275 H 0.98646 0.26315 0.99116 0.0
H4276 H 0.97005 0.29399 0.04682 0.0
H4277 H 1.00692 0.2973 0.05556 0.0
H4278 H 0.03214 0.23565 1.01104 0.0
H4279 H 0.04775 0.23918 0.98868 0.0
H4280 H 1.02036 0.23828 0.98623 0.0
H4281 H 1.01821 0.27292 0.96897 0.0
H4282 H 0.04568 0.27293 0.96911 0.0
H4283 H 0.03178 0.29424 0.97992 0.0
H4284 H 0.04951 0.29762 0.05825 0.0
H4285 H 0.08693 0.29574 0.05432 0.0
H4286 H 0.07878 0.2665 0.99581 0.0
C4287 C 0.99035 0.27015 1.00561 0.0
C4288 C 0.97361 0.27694 1.01883 0.0
C4289 C 0.98103 0.2871 0.03673 0.0
C4290 C 1.00262 0.28943 0.04168 0.0
C4291 C 1.01829 0.28213 1.02862 0.0
C4292 C 1.01221 0.27263 1.01078 0.0
C4293 C 0.03206 0.26677 0.99882 0.0
C4294 C 0.03315 0.24356 0.99606 0.0
C4295 C 0.03197 0.27739 0.97796 0.0
C4296 C 0.05042 0.27439 1.01238 0.0
C4297 C 0.04194 0.28313 1.02963 0.0
C4298 C 0.05564 0.29089 0.04453 0.0
C4299 C 0.07759 0.28995 0.04203 0.0
C4300 C 0.08765 0.28137 1.0247 0.0
C4301 C 0.07294 0.2733 1.00963 0.0
H4302 H 1.02705 0.73507 0.241 0.0
H4303 H 0.03221 0.72167 0.30551 0.0
H4304 H 0.0308 0.75863 0.31288 0.0
H4305 H 0.06091 0.78161 0.24357 0.0
H4306 H 0.04698 0.79564 0.22437 0.0
H4307 H 0.04714 0.76809 0.22385 0.0
H4308 H 1.00781 0.76784 0.22408 0.0
H4309 H 1.00755 0.79538 0.22485 0.0
H4310 H 0.99439 0.78086 0.24416 0.0
H4311 H 1.02634 0.80017 0.31397 0.0
H4312 H 1.02458 0.83749 0.30853 0.0
H4313 H 1.02796 0.82776 0.24334 0.0
C4314 C 1.02798 0.73957 0.25681 0.0
C4315 C 0.02961 0.72364 0.27263 0.0
C4316 C 0.03081 0.73207 0.29274 0.0
C4317 C 0.02999 0.75366 0.29716 0.0
C4318 C 1.0285 0.76852 0.28152 0.0
C4319 C 1.02798 0.76169 0.26155 0.0
C4320 C 1.0277 0.78122 0.24754 0.0
C4321 C 0.04681 0.78166 0.23401 0.0
C4322 C 1.00821 0.78133 0.23436 0.0
C4323 C 1.02784 0.79995 0.26252 0.0
C4324 C 1.02788 0.79203 0.28212 0.0
C4325 C 1.02675 0.80601 0.29853 0.0
C4326 C 1.02574 0.82781 0.29524 0.0
C4327 C 1.02643 0.83731 0.27558 0.0
C4328 C 1.02764 0.82231 0.25892 0.0
H4329 H 0.5797 0.77578 0.49001 0.0
H4330 H 0.58912 0.7913 0.55338 0.0
H4331 H 0.5518 0.79281 0.55823 0.0
H4332 H 0.53363 0.80911 0.48292 0.0
H4333 H 0.52048 0.7918 0.46594 0.0
H4334 H 0.54805 0.79182 0.46726 0.0
H4335 H 0.54748 0.75337 0.47535 0.0
H4336 H 0.5199 0.7533 0.47419 0.0
H4337 H 0.53285 0.74412 0.49673 0.0
H4338 H 0.50898 0.79377 0.55618 0.0
H4339 H 0.47202 0.79369 0.54735 0.0
H4340 H 0.48727 0.77636 0.48586 0.0
C4341 C 0.5742 0.77938 0.5051 0.0
C4342 C 0.58931 0.78339 0.5214 0.0
C4343 C 0.57955 0.78821 0.54033 0.0
C4344 C 0.55762 0.78905 0.54329 0.0
C4345 C 0.54355 0.78516 0.52724 0.0
C4346 C 0.55171 0.78043 0.50832 0.0
C4347 C 0.53304 0.77736 0.49342 0.0
C4348 C 0.53386 0.79347 0.47635 0.0
C4349 C 0.53334 0.75575 0.48437 0.0
C4350 C 0.51336 0.78047 0.50673 0.0
C4351 C 0.51983 0.78518 0.52627 0.0
C4352 C 0.50439 0.78955 0.54087 0.0
C4353 C 0.48269 0.78903 0.53578 0.0
C4354 C 0.47477 0.78349 0.51614 0.0
C4355 C 0.49134 0.77967 0.50147 0.0
H4356 H 0.98833 0.80834 0.53701 0.0
H4357 H 0.97171 0.74479 0.54482 0.0
H4358 H 1.00831 0.73556 0.54399 0.0
H4359 H 0.03373 0.79988 0.50331 0.0
H4360 H 0.04951 0.81951 0.51462 0.0
H4361 H 1.02202 0.82168 0.51517 0.0
H4362 H 1.02302 0.82531 0.55408 0.0
H4363 H 0.05053 0.82326 0.55378 0.0
H4364 H 0.03559 0.80608 0.5693 0.0
H4365 H 0.05022 0.73207 0.54054 0.0
H4366 H 0.08779 0.73536 0.53855 0.0
H4367 H 0.08169 0.80113 0.53604 0.0
C4368 C 0.99211 0.79233 0.53831 0.0
C4369 C 0.97521 0.77743 0.54057 0.0
C4370 C 0.98274 0.757 0.5428 0.0
C4371 C 1.00419 0.75147 0.54233 0.0
C4372 C 1.01999 0.7662 0.53997 0.0
C4373 C 1.01413 0.78644 0.53826 0.0
C4374 C 0.03454 0.79931 0.53666 0.0
C4375 C 0.03497 0.8108 0.51623 0.0
C4376 C 0.03601 0.8144 0.55451 0.0
C4377 C 0.05266 0.78346 0.5377 0.0
C4378 C 0.04362 0.76434 0.53928 0.0
C4379 C 0.05684 0.74721 0.53953 0.0
C4380 C 0.07889 0.74928 0.5383 0.0
C4381 C 0.08965 0.76841 0.53721 0.0
C4382 C 0.07538 0.78587 0.53703 0.0
H4383 H 0.04311 0.23072 0.26548 0.0
H4384 H 1.01035 0.22257 0.32197 0.0
H4385 H 1.00761 0.25958 0.32565 0.0
H4386 H 0.07219 0.27643 0.28298 0.0
H4387 H 0.07154 0.29012 0.25911 0.0
H4388 H 0.06978 0.26261 0.25931 0.0
H4389 H 0.03666 0.26494 0.23873 0.0
H4390 H 0.03753 0.29245 0.23901 0.0
H4391 H 1.01531 0.27918 0.24854 0.0
H4392 H 1.0087 0.3012 0.32472 0.0
H4393 H 1.01409 0.33808 0.31946 0.0
H4394 H 0.04771 0.3249 0.26439 0.0
C4395 C 0.03441 0.23642 0.27822 0.0
C4396 C 1.02507 0.22136 0.29243 0.0
C4397 C 1.01608 0.23174 0.30951 0.0
C4398 C 1.01482 0.25362 0.31209 0.0
C4399 C 1.02337 0.26747 0.29794 0.0
C4400 C 0.03316 0.25917 0.28119 0.0
C4401 C 0.04187 0.27817 0.2689 0.0
C4402 C 0.06524 0.27674 0.26748 0.0
C4403 C 0.03227 0.27871 0.24751 0.0
C4404 C 0.03561 0.29801 0.28116 0.0
C4405 C 1.02478 0.29113 0.2979 0.0
C4406 C 1.01718 0.30614 0.31145 0.0
C4407 C 1.02035 0.32783 0.30818 0.0
C4408 C 0.03142 0.33656 0.29137 0.0
C4409 C 0.03918 0.32036 0.27768 0.0
H4410 H 0.55547 0.82383 0.80254 0.0
H4411 H 0.4938 0.8373 0.78271 0.0
H4412 H 0.48667 0.80022 0.78013 0.0
H4413 H 0.56357 0.77641 0.7723 0.0
H4414 H 0.57667 0.76256 0.7922 0.0
H4415 H 0.57757 0.79011 0.79174 0.0
H4416 H 0.5637 0.79116 0.82828 0.0
H4417 H 0.56273 0.76362 0.8289 0.0
H4418 H 0.54006 0.77822 0.83417 0.0
H4419 H 0.48596 0.75697 0.77874 0.0
H4420 H 0.49105 0.71979 0.78228 0.0
H4421 H 0.55168 0.73059 0.80555 0.0
C4422 C 0.54035 0.81927 0.79747 0.0
C4423 C 0.52541 0.8355 0.79251 0.0
C4424 C 0.50604 0.82688 0.78656 0.0
C4425 C 0.50176 0.80509 0.785 0.0
C4426 C 0.51653 0.78992 0.78987 0.0
C4427 C 0.53552 0.79692 0.79641 0.0
C4428 C 0.54835 0.77725 0.80191 0.0
C4429 C 0.56771 0.77655 0.78877 0.0
C4430 C 0.55407 0.77759 0.82466 0.0
C4431 C 0.53413 0.75823 0.7971 0.0
C4432 C 0.51581 0.76604 0.78995 0.0
C4433 C 0.50054 0.75148 0.7843 0.0
C4434 C 0.50366 0.72948 0.78599 0.0
C4435 C 0.52193 0.71996 0.79341 0.0
C4436 C 0.53727 0.73573 0.79925 0.0
H4437 H 1.01235 0.48199 0.752 0.0
H4438 H 1.02634 0.46956 0.81497 0.0
H4439 H 0.03176 0.5062 0.82097 0.0
H4440 H 0.0469 0.52839 0.74492 0.0
H4441 H 1.02843 0.54184 0.72946 0.0
H4442 H 1.02847 0.51431 0.7299 0.0
H4443 H 0.99042 0.51507 0.74009 0.0
H4444 H 0.99086 0.54262 0.74022 0.0
H4445 H 0.98292 0.52878 0.76265 0.0
H4446 H 0.03439 0.54835 0.82088 0.0
H4447 H 0.03266 0.58552 0.81553 0.0
H4448 H 1.01393 0.57544 0.75299 0.0
C4449 C 1.01743 0.48665 0.76702 0.0
C4450 C 1.02127 0.47048 0.7824 0.0
C4451 C 1.02612 0.47935 0.80184 0.0
C4452 C 1.02833 0.50111 0.80563 0.0
C4453 C 1.02516 0.51602 0.79017 0.0
C4454 C 1.01956 0.50894 0.77109 0.0
C4455 C 1.01592 0.52845 0.75734 0.0
C4456 C 0.03081 0.52823 0.73932 0.0
C4457 C 0.99371 0.52874 0.7496 0.0
C4458 C 1.02033 0.54758 0.77136 0.0
C4459 C 1.02571 0.53972 0.7903 0.0
C4460 C 0.03033 0.55398 0.80588 0.0
C4461 C 0.02944 0.57582 0.80254 0.0
C4462 C 1.0241 0.58549 0.78358 0.0
C4463 C 1.01917 0.57013 0.76772 0.0
H4464 H 0.2349 0.2919 0.52315 0.0
H4465 H 0.2268 0.22819 0.53927 0.0
H4466 H 0.2633 0.2242 0.54158 0.0
H4467 H 0.28362 0.28405 0.49257 0.0
H4468 H 0.29689 0.30653 0.50154 0.0
H4469 H 0.26931 0.30609 0.50055 0.0
H4470 H 0.2675 0.31503 0.53864 0.0
H4471 H 0.29507 0.31606 0.53942 0.0
H4472 H 0.2814 0.29971 0.55687 0.0
H4473 H 0.30298 0.22439 0.53974 0.0
H4474 H 0.34004 0.22968 0.53763 0.0
H4475 H 0.33014 0.29332 0.52406 0.0
C4476 C 0.24039 0.27687 0.52645 0.0
C4477 C 0.22526 0.26015 0.52948 0.0
C4478 C 0.23567 0.24169 0.53566 0.0
C4479 C 0.25739 0.239 0.53721 0.0
C4480 C 0.27117 0.25499 0.5333 0.0
C4481 C 0.26316 0.27385 0.52825 0.0
C4482 C 0.28256 0.28831 0.52559 0.0
C4483 C 0.28312 0.29677 0.50376 0.0
C4484 C 0.28157 0.30584 0.54105 0.0
C4485 C 0.30222 0.27469 0.52982 0.0
C4486 C 0.29465 0.25547 0.53414 0.0
C4487 C 0.30879 0.23966 0.53733 0.0
C4488 C 0.33054 0.24306 0.53648 0.0
C4489 C 0.34036 0.26242 0.53325 0.0
C4490 C 0.32489 0.27848 0.52898 0.0
H4491 H 0.53616 0.48052 0.25006 0.0
H4492 H 0.53799 0.467 0.31465 0.0
H4493 H 0.53783 0.50407 0.32205 0.0
H4494 H 0.57045 0.52639 0.25374 0.0
H4495 H 0.55748 0.54077 0.23414 0.0
H4496 H 0.55698 0.51323 0.23359 0.0
H4497 H 0.51779 0.51384 0.23259 0.0
H4498 H 0.51796 0.54136 0.23344 0.0
H4499 H 0.50394 0.527 0.25228 0.0
H4500 H 0.53752 0.54645 0.323 0.0
H4501 H 0.53966 0.58356 0.31722 0.0
H4502 H 0.53928 0.57316 0.25222 0.0
C4503 C 0.53632 0.48512 0.2659 0.0
C4504 C 0.53669 0.46909 0.28169 0.0
C4505 C 0.53749 0.47747 0.30186 0.0
C4506 C 0.53739 0.49915 0.3063 0.0
C4507 C 0.53686 0.51415 0.29067 0.0
C4508 C 0.53664 0.50728 0.27069 0.0
C4509 C 0.53713 0.52679 0.25668 0.0
C4510 C 0.55666 0.5268 0.24375 0.0
C4511 C 0.51807 0.52727 0.24292 0.0
C4512 C 0.53718 0.54559 0.27159 0.0
C4513 C 0.53696 0.53779 0.29122 0.0
C4514 C 0.53731 0.55208 0.30748 0.0
C4515 C 0.53808 0.57395 0.30397 0.0
C4516 C 0.53808 0.58333 0.28418 0.0
C4517 C 0.53807 0.56791 0.26782 0.0
H4518 H 0.32844 0.78444 0.05853 0.0
H4519 H 0.33852 0.79998 0.9953 0.0
H4520 H 0.30174 0.79995 0.98925 0.0
H4521 H 0.28325 0.74936 0.04734 0.0
H4522 H 0.26929 0.75632 0.06991 0.0
H4523 H 0.29688 0.75767 0.06982 0.0
H4524 H 0.29522 0.79544 0.08056 0.0
H4525 H 0.26764 0.79415 0.08057 0.0
H4526 H 0.28056 0.81316 0.06538 0.0
H4527 H 0.25992 0.79919 0.98935 0.0
H4528 H 0.22276 0.7964 0.99551 0.0
H4529 H 0.23532 0.77907 0.05806 0.0
C4530 C 0.32323 0.7874 0.04313 0.0
C4531 C 0.33871 0.79189 1.02741 0.0
C4532 C 0.32912 0.79636 1.00815 0.0
C4533 C 0.30733 0.79629 1.00438 0.0
C4534 C 0.29309 0.79166 1.01984 0.0
C4535 C 0.30082 0.787 0.03897 0.0
C4536 C 0.2818 0.78225 0.05286 0.0
C4537 C 0.28287 0.76008 0.06046 0.0
C4538 C 0.28128 0.79713 0.07093 0.0
C4539 C 0.26238 0.78523 0.03886 0.0
C4540 C 0.26949 0.79074 1.01978 0.0
C4541 C 0.25475 0.79466 1.00435 0.0
C4542 C 0.23301 0.79294 1.00806 0.0
C4543 C 0.2243 0.78708 1.02723 0.0
C4544 C 0.24012 0.78325 0.04287 0.0
H4545 H 0.77079 0.99161 0.48528 0.0
H4546 H 0.81163 0.04315 0.47983 0.0
H4547 H 0.81326 0.04603 0.5172 0.0
H4548 H 0.7425 1.01136 0.53104 0.0
H4549 H 0.73978 0.98687 0.54336 0.0
H4550 H 0.74188 0.98836 0.51597 0.0
H4551 H 0.77251 0.96391 0.51706 0.0
H4552 H 0.77042 0.96233 0.54445 0.0
H4553 H 0.79427 0.96996 0.53298 0.0
H4554 H 0.81095 0.04317 0.5598 0.0
H4555 H 0.80467 0.03555 0.5963 0.0
H4556 H 0.76399 0.9865 0.57827 0.0
C4557 C 0.78009 1.00375 0.49166 0.0
C4558 C 0.79143 1.01723 0.4774 0.0
C4559 C 0.80304 0.03223 0.48848 0.0
C4560 C 0.80392 0.03407 0.51054 0.0
C4561 C 0.79294 1.02082 0.52371 0.0
C4562 C 0.78107 1.00583 0.51443 0.0
C4563 C 0.77068 0.99354 0.5324 0.0
C4564 C 0.74731 0.9951 0.53058 0.0
C4565 C 0.77735 0.97109 0.53167 0.0
C4566 C 0.7783 1.00377 0.55293 0.0
C4567 C 0.79128 1.01955 0.5474 0.0
C4568 C 0.80052 0.03088 0.56359 0.0
C4569 C 0.79664 1.02646 0.58502 0.0
C4570 C 0.78295 1.01081 0.59213 0.0
C4571 C 0.77412 0.99915 0.57482 0.0
H4572 H 0.81203 0.99844 0.32875 0.0
H4573 H 0.78048 0.05349 0.3464 0.0
H4574 H 0.77344 0.06057 0.30984 0.0
H4575 H 0.83644 1.02001 0.2823 0.0
H4576 H 0.8342 0.99695 0.26747 0.0
H4577 H 0.83594 0.99553 0.29491 0.0
H4578 H 0.80243 0.9749 0.29587 0.0
H4579 H 0.8005 0.97629 0.26844 0.0
H4580 H 0.77972 0.98514 0.28404 0.0
H4581 H 0.77208 0.06361 0.2675 0.0
H4582 H 0.77393 0.06062 0.23027 0.0
H4583 H 0.80584 1.0034 0.23638 0.0
C4584 C 0.80387 1.01229 0.32536 0.0
C4585 C 0.79708 1.02524 0.34245 0.0
C4586 C 0.78586 0.04262 0.33526 0.0
C4587 C 0.78193 0.04697 0.31382 0.0
C4588 C 0.78923 0.03424 0.29787 0.0
C4589 C 0.79992 1.01698 0.30356 0.0
C4590 C 0.80616 1.00568 0.28332 0.0
C4591 C 0.82958 1.00445 0.28192 0.0
C4592 C 0.79665 0.98421 0.28289 0.0
C4593 C 0.79741 1.01896 0.26526 0.0
C4594 C 0.78783 0.03551 0.27428 0.0
C4595 C 0.77928 0.05027 0.26103 0.0
C4596 C 0.78015 0.04828 0.23909 0.0
C4597 C 0.78905 0.03148 0.22831 0.0
C4598 C 0.79815 1.01657 0.24261 0.0
H4599 H 0.76198 1.01899 0.98821 0.0
H4600 H 0.79456 0.07506 0.97476 0.0
H4601 H 0.79964 0.08065 1.01163 0.0
H4602 H 0.73697 0.03686 0.03624 0.0
H4603 H 0.73981 1.01324 0.05011 0.0
H4604 H 0.73831 1.013 1.02262 0.0
H4605 H 0.7728 0.99407 1.02055 0.0
H4606 H 0.77318 0.99361 0.04802 0.0
H4607 H 0.79461 1.00414 0.03424 0.0
H4608 H 0.80097 0.08161 0.05288 0.0
H4609 H 0.79882 0.07792 0.08988 0.0
H4610 H 0.76643 1.02065 0.0823 0.0
C4611 C 0.77034 0.0325 0.99272 0.0
C4612 C 0.77791 0.04641 0.97652 0.0
C4613 C 0.78851 0.06364 0.98509 0.0
C4614 C 0.79151 0.06708 1.00673 0.0
C4615 C 0.78416 0.05329 1.02175 0.0
C4616 C 0.77374 0.03616 1.015 0.0
C4617 C 0.76764 1.02377 0.03489 0.0
C4618 C 0.74429 1.02158 0.03603 0.0
C4619 C 0.77767 1.00263 0.03439 0.0
C4620 C 0.776 0.03649 0.05376 0.0
C4621 C 0.78546 0.05352 0.04534 0.0
C4622 C 0.79384 0.06798 0.05899 0.0
C4623 C 0.79274 0.06548 0.08083 0.0
C4624 C 0.7838 0.04833 0.09131 0.0
C4625 C 0.77486 0.03362 0.07649 0.0
H4626 H 0.77281 0.99588 0.73912 0.0
H4627 H 0.7683 0.0603 0.72516 0.0
H4628 H 0.76754 0.06789 0.76206 0.0
H4629 H 0.73858 0.99771 0.78508 0.0
H4630 H 0.75273 0.97915 0.7997 0.0
H4631 H 0.7531 0.97833 0.77219 0.0
H4632 H 0.79226 0.98002 0.77283 0.0
H4633 H 0.79221 0.98104 0.80031 0.0
H4634 H 0.80502 1.00072 0.78588 0.0
H4635 H 0.76641 0.06908 0.80503 0.0
H4636 H 0.76508 0.06338 0.84207 0.0
H4637 H 0.77139 0.9986 0.83216 0.0
C4638 C 0.77184 1.01175 0.74353 0.0
C4639 C 0.7709 1.02737 0.72718 0.0
C4640 C 0.76921 0.04753 0.73563 0.0
C4641 C 0.76875 0.05212 0.75733 0.0
C4642 C 0.7698 0.0367 0.77259 0.0
C4643 C 0.77121 1.0167 0.76579 0.0
C4644 C 0.77167 1.00289 0.78555 0.0
C4645 C 0.75292 0.98865 0.78563 0.0
C4646 C 0.79147 0.99041 0.78618 0.0
C4647 C 0.77085 1.01789 0.80438 0.0
C4648 C 0.76961 0.03742 0.79639 0.0
C4649 C 0.768 0.05364 0.81071 0.0
C4650 C 0.76781 0.05024 0.8327 0.0
C4651 C 0.76976 0.03063 0.8424 0.0
C4652 C 0.77079 1.01424 0.82687 0.0
H4653 H 0.48359 0.77782 0.04966 0.0
H4654 H 0.4696 0.77245 0.9853 0.0
H4655 H 0.50657 0.77165 0.97782 0.0
H4656 H 0.5324 0.8072 0.04516 0.0
H4657 H 0.54596 0.79357 0.0649 0.0
H4658 H 0.51843 0.79532 0.06565 0.0
H4659 H 0.51577 0.75613 0.06723 0.0
H4660 H 0.54329 0.75429 0.06648 0.0
H4661 H 0.5279 0.74099 0.04783 0.0
H4662 H 0.54876 0.776 0.9766 0.0
H4663 H 0.5861 0.77604 0.98181 0.0
H4664 H 0.57692 0.76939 0.0468 0.0
C4665 C 0.48804 0.7763 0.03387 0.0
C4666 C 0.47177 0.77542 1.01816 0.0
C4667 C 0.48013 0.77322 0.99807 0.0
C4668 C 0.5018 0.77287 0.99355 0.0
C4669 C 0.51697 0.77382 1.00906 0.0
C4670 C 0.51026 0.77478 1.02904 0.0
C4671 C 0.5301 0.77395 0.04286 0.0
C4672 C 0.53182 0.79367 0.05542 0.0
C4673 C 0.52921 0.75523 0.05696 0.0
C4674 C 0.54882 0.77228 1.02786 0.0
C4675 C 0.54065 0.77314 1.00834 0.0
C4676 C 0.55466 0.77446 0.99198 0.0
C4677 C 0.57661 0.77433 0.99518 0.0
C4678 C 0.58649 0.7714 1.01461 0.0
C4679 C 0.57136 0.77067 0.0313 0.0
H4680 H 0.98483 0.76786 1.01452 0.0
H4681 H 0.97207 0.78802 0.07598 0.0
H4682 H 1.00914 0.79106 0.08251 0.0
H4683 H 0.03335 0.73945 1.0263 0.0
H4684 H 0.047 0.74758 1.00386 0.0
H4685 H 1.01945 0.74594 1.00339 0.0
H4686 H 1.01661 0.78367 0.99253 0.0
H4687 H 0.04407 0.78463 0.99194 0.0
H4688 H 0.03021 0.80289 1.00697 0.0
H4689 H 0.04963 0.78834 0.08429 0.0
H4690 H 0.08639 0.78678 0.08053 0.0
H4691 H 0.07913 0.77327 1.0165 0.0
C4692 C 0.98958 0.77283 1.0295 0.0
C4693 C 0.97368 0.77752 0.0447 0.0
C4694 C 0.98234 0.78427 0.06365 0.0
C4695 C 1.00402 0.78597 0.06764 0.0
C4696 C 1.01879 0.78136 0.05262 0.0
C4697 C 1.01189 0.77517 0.0337 0.0
C4698 C 0.03162 0.77224 1.02016 0.0
C4699 C 0.03293 0.74997 1.01298 0.0
C4700 C 0.03057 0.78674 1.0018 0.0
C4701 C 0.05064 0.77767 0.03425 0.0
C4702 C 0.04229 0.78243 0.05301 0.0
C4703 C 0.05586 0.78595 0.06924 0.0
C4704 C 0.07766 0.78552 0.06662 0.0
C4705 C 0.0883 0.78262 0.04763 0.0
C4706 C 0.07342 0.77771 0.03115 0.0
H4707 H 0.99939 0.23002 0.79163 0.0
H4708 H 0.06511 0.22248 0.7915 0.0
H4709 H 0.06948 0.25976 0.79057 0.0
H4710 H 0.99787 0.27611 0.75774 0.0
H4711 H 0.97795 0.2891 0.77143 0.0
H4712 H 0.97938 0.26159 0.77211 0.0
H4713 H 0.98055 0.26253 0.81131 0.0
H4714 H 0.97915 0.29005 0.8107 0.0
H4715 H 0.99987 0.27766 0.824 0.0
H4716 H 0.06752 0.3014 0.79117 0.0
H4717 H 0.05958 0.33822 0.79109 0.0
H4718 H 0.99496 0.32363 0.78921 0.0
C4719 C 1.01485 0.23596 0.79139 0.0
C4720 C 0.03198 0.22129 0.79123 0.0
C4721 C 0.05141 0.23162 0.79102 0.0
C4722 C 0.05412 0.25354 0.79072 0.0
C4723 C 0.03734 0.26712 0.79067 0.0
C4724 C 1.0179 0.25859 0.79094 0.0
C4725 C 1.00253 0.27714 0.79075 0.0
C4726 C 0.98858 0.27591 0.77189 0.0
C4727 C 0.98974 0.27682 0.81034 0.0
C4728 C 1.01609 0.29716 0.78999 0.0
C4729 C 0.03623 0.29072 0.79032 0.0
C4730 C 0.05165 0.30601 0.79066 0.0
C4731 C 0.04687 0.32758 0.79058 0.0
C4732 C 1.02656 0.33571 0.78966 0.0
C4733 C 1.01092 0.31933 0.78939 0.0
H4734 H 0.48609 0.30564 0.542 0.0
H4735 H 0.47679 0.24057 0.53644 0.0
H4736 H 0.51392 0.23543 0.53481 0.0
H4737 H 0.53315 0.30905 0.50964 0.0
H4738 H 0.54631 0.32733 0.52557 0.0
H4739 H 0.51871 0.32658 0.52502 0.0
H4740 H 0.51812 0.32196 0.56402 0.0
H4741 H 0.5457 0.32279 0.56468 0.0
H4742 H 0.53225 0.30131 0.57553 0.0
H4743 H 0.55546 0.2368 0.53313 0.0
H4744 H 0.59258 0.24406 0.53602 0.0
H4745 H 0.57891 0.30788 0.54558 0.0
C4746 C 0.49165 0.29021 0.54023 0.0
C4747 C 0.47672 0.27353 0.53789 0.0
C4748 C 0.48635 0.25399 0.53645 0.0
C4749 C 0.50811 0.25083 0.53601 0.0
C4750 C 0.52203 0.26727 0.53753 0.0
C4751 C 0.51407 0.2867 0.54 0.0
C4752 C 0.53286 0.30157 0.54217 0.0
C4753 C 0.53274 0.31708 0.52457 0.0
C4754 C 0.53219 0.31257 0.56282 0.0
C4755 C 0.55231 0.28766 0.54078 0.0
C4756 C 0.54553 0.26788 0.53774 0.0
C4757 C 0.56043 0.25239 0.53553 0.0
C4758 C 0.58208 0.25677 0.53692 0.0
C4759 C 0.59033 0.27671 0.54054 0.0
C4760 C 0.57436 0.2923 0.5425 0.0
H4761 H 0.98607 0.30742 0.52106 0.0
H4762 H 0.96943 0.24339 0.51971 0.0
H4763 H 1.00613 0.23441 0.51964 0.0
H4764 H 0.03123 0.30141 0.48596 0.0
H4765 H 0.04687 0.32041 0.49844 0.0
H4766 H 1.01936 0.32226 0.49927 0.0
H4767 H 1.02095 0.32353 0.53825 0.0
H4768 H 0.04842 0.32133 0.53779 0.0
H4769 H 0.03338 0.30329 0.5522 0.0
H4770 H 0.04838 0.23144 0.52105 0.0
H4771 H 0.08593 0.23508 0.52058 0.0
H4772 H 0.07941 0.30077 0.51773 0.0
C4773 C 0.98982 0.29136 0.52084 0.0
C4774 C 0.97287 0.27628 0.52072 0.0
C4775 C 0.98045 0.25577 0.52001 0.0
C4776 C 1.00198 0.25038 0.51997 0.0
C4777 C 1.01781 0.26532 0.52011 0.0
C4778 C 1.01188 0.28559 0.52018 0.0
C4779 C 0.03225 0.29864 0.5192 0.0
C4780 C 0.03243 0.31146 0.49956 0.0
C4781 C 0.03384 0.31254 0.53798 0.0
C4782 C 0.05047 0.28287 0.51907 0.0
C4783 C 0.04151 0.26365 0.51977 0.0
C4784 C 0.05489 0.24665 0.52036 0.0
C4785 C 0.07697 0.24893 0.52018 0.0
C4786 C 0.08765 0.26812 0.51914 0.0
C4787 C 0.0732 0.28545 0.51845 0.0
H4788 H 1.00905 0.73249 0.78756 0.0
H4789 H 0.05238 0.71689 0.7404 0.0
H4790 H 0.05832 0.75351 0.73399 0.0
H4791 H 0.98783 0.77894 0.76188 0.0
H4792 H 0.98559 0.79416 0.78464 0.0
H4793 H 0.98442 0.76667 0.78629 0.0
H4794 H 1.0142 0.7666 0.81225 0.0
H4795 H 1.0145 0.79411 0.81097 0.0
H4796 H 0.03756 0.77995 0.8061 0.0
H4797 H 0.06055 0.79508 0.7319 0.0
H4798 H 0.05753 0.83239 0.73347 0.0
H4799 H 1.01241 0.82648 0.78104 0.0
C4800 C 1.02001 0.73649 0.77591 0.0
C4801 C 0.03035 0.71973 0.76486 0.0
C4802 C 0.0441 0.72766 0.74972 0.0
C4803 C 0.04765 0.74918 0.74582 0.0
C4804 C 0.03763 0.76478 0.75689 0.0
C4805 C 1.0239 0.75866 0.77173 0.0
C4806 C 1.01514 0.77905 0.78124 0.0
C4807 C 0.99185 0.77974 0.77835 0.0
C4808 C 1.02067 0.77998 0.80401 0.0
C4809 C 1.02567 0.79742 0.76947 0.0
C4810 C 0.03877 0.78842 0.7556 0.0
C4811 C 0.05029 0.80164 0.74298 0.0
C4812 C 0.04854 0.82363 0.74411 0.0
C4813 C 0.03546 0.83459 0.75775 0.0
C4814 C 1.02353 0.82023 0.77064 0.0
H4815 H 0.52245 0.32467 0.2923 0.0
H4816 H 0.52976 0.33123 0.22723 0.0
H4817 H 0.53093 0.29457 0.22341 0.0
H4818 H 0.55323 0.2757 0.29826 0.0
H4819 H 0.53604 0.26223 0.31506 0.0
H4820 H 0.53705 0.28965 0.31545 0.0
H4821 H 0.49901 0.29293 0.30827 0.0
H4822 H 0.49691 0.26543 0.30902 0.0
H4823 H 0.48778 0.27934 0.28706 0.0
H4824 H 0.53232 0.25379 0.22517 0.0
H4825 H 0.52985 0.21702 0.23222 0.0
H4826 H 0.51657 0.23022 0.29544 0.0
C4827 C 0.52536 0.31873 0.27728 0.0
C4828 C 0.52863 0.33343 0.26028 0.0
C4829 C 0.52975 0.32261 0.2412 0.0
C4830 C 0.5298 0.30081 0.23864 0.0
C4831 C 0.52758 0.28735 0.25521 0.0
C4832 C 0.5249 0.29591 0.27433 0.0
C4833 C 0.52106 0.27701 0.28905 0.0
C4834 C 0.53786 0.27611 0.30543 0.0
C4835 C 0.49993 0.27878 0.29896 0.0
C4836 C 0.52207 0.25711 0.27539 0.0
C4837 C 0.52623 0.26384 0.25587 0.0
C4838 C 0.5289 0.24889 0.24056 0.0
C4839 C 0.52747 0.22728 0.24484 0.0
C4840 C 0.52279 0.21869 0.26442 0.0
C4841 C 0.51994 0.23481 0.27996 0.0
H4842 H 0.54557 0.07299 0.74609 0.0
H4843 H 0.53473 0.08874 0.80905 0.0
H4844 H 0.53109 0.05194 0.81727 0.0
H4845 H 0.50768 0.02818 0.7456 0.0
H4846 H 0.5228 1.01299 0.72848 0.0
H4847 H 0.52417 0.0405 0.72736 0.0
H4848 H 0.56266 0.0387 0.73199 0.0
H4849 H 0.56208 1.01126 0.73389 0.0
H4850 H 0.57364 1.02622 0.754 0.0
H4851 H 0.53152 1.0082 0.81948 0.0
H4852 H 0.5328 0.97102 0.8145 0.0
H4853 H 0.53969 0.98039 0.7498 0.0
C4854 C 0.54177 0.06906 0.76165 0.0
C4855 C 0.53971 0.08589 0.77656 0.0
C4856 C 0.53569 0.07794 0.79661 0.0
C4857 C 0.53379 0.05628 0.80158 0.0
C4858 C 0.53575 0.04057 0.7867 0.0
C4859 C 0.53926 0.04696 0.76685 0.0
C4860 C 0.5402 1.02697 0.75348 0.0
C4861 C 0.52269 1.02717 0.73777 0.0
C4862 C 0.56091 1.02569 0.7427 0.0
C4863 C 0.53738 1.00838 0.76854 0.0
C4864 C 0.53484 1.01666 0.78777 0.0
C4865 C 0.53277 1.0024 0.80409 0.0
C4866 C 0.53294 0.9803 0.801 0.0
C4867 C 0.53457 0.97037 0.7815 0.0
C4868 C 0.53733 0.98582 0.76517 0.0
H4869 H 0.23525 0.26301 0.03321 0.0
H4870 H 0.2257 0.32724 1.02078 0.0
H4871 H 0.26212 0.3329 1.02018 0.0
H4872 H 0.2806 0.27283 0.06709 0.0
H4873 H 0.29546 0.25116 0.05927 0.0
H4874 H 0.26799 0.25034 0.05723 0.0
H4875 H 0.27123 0.24156 1.01931 0.0
H4876 H 0.29876 0.24286 1.02104 0.0
H4877 H 0.28531 0.25837 1.00265 0.0
H4878 H 0.30124 0.33395 1.01945 0.0
H4879 H 0.33788 0.33079 1.02251 0.0
H4880 H 0.33073 0.26681 0.03796 0.0
C4881 C 0.24048 0.27817 1.02939 0.0
C4882 C 0.22504 0.29429 1.02527 0.0
C4883 C 0.23497 0.31377 1.0225 0.0
C4884 C 0.25654 0.31749 1.02241 0.0
C4885 C 0.27064 0.30185 1.0258 0.0
C4886 C 0.26318 0.28241 1.0295 0.0
C4887 C 0.28302 0.26916 0.03407 0.0
C4888 C 0.28169 0.26033 0.0557 0.0
C4889 C 0.28467 0.25194 1.01833 0.0
C4890 C 0.3022 0.28413 0.03222 0.0
C4891 C 0.29397 0.30285 1.0272 0.0
C4892 C 0.30742 0.31926 1.02379 0.0
C4893 C 0.32915 0.31711 1.02576 0.0
C4894 C 0.33973 0.29878 0.03177 0.0
C4895 C 0.32496 0.28168 0.03449 0.0
H4896 H 1.01846 0.07553 0.31055 0.0
H4897 H 1.0087 0.08765 0.24634 0.0
H4898 H 1.00825 0.05049 0.23972 0.0
H4899 H 0.05058 0.02881 0.30451 0.0
H4900 H 0.03947 1.0149 0.32549 0.0
H4901 H 0.03973 0.04246 0.32569 0.0
H4902 H 1.00078 0.04289 0.33037 0.0
H4903 H 1.00029 1.01534 0.33032 0.0
H4904 H 0.98461 0.02937 0.31253 0.0
H4905 H 1.00959 1.00794 0.23943 0.0
H4906 H 1.00944 0.97102 0.24587 0.0
H4907 H 1.0155 0.98255 0.31049 0.0
C4908 C 1.01635 0.07063 0.29493 0.0
C4909 C 1.01389 0.08641 0.27898 0.0
C4910 C 1.01082 0.0775 0.25922 0.0
C4911 C 1.01055 0.05571 0.25521 0.0
C4912 C 1.01303 0.04099 0.27094 0.0
C4913 C 1.01563 0.0483 0.29062 0.0
C4914 C 1.01713 0.02897 0.3049 0.0
C4915 C 0.03796 0.02878 0.31582 0.0
C4916 C 0.99967 0.02916 0.32047 0.0
C4917 C 1.01508 1.00982 0.2905 0.0
C4918 C 1.013 1.01727 0.27085 0.0
C4919 C 1.01125 1.00263 0.25498 0.0
C4920 C 1.01132 0.98079 0.25891 0.0
C4921 C 1.01313 0.97166 0.27879 0.0
C4922 C 1.01474 0.98749 0.29476 0.0
H4923 H 0.33164 0.75004 0.54569 0.0
H4924 H 0.33664 0.79576 0.49866 0.0
H4925 H 0.29921 0.7987 0.49719 0.0
H4926 H 0.28491 0.72526 0.52298 0.0
H4927 H 0.27318 0.71923 0.54708 0.0
H4928 H 0.30064 0.72128 0.54528 0.0
H4929 H 0.30077 0.74814 0.57392 0.0
H4930 H 0.2733 0.74615 0.57571 0.0
H4931 H 0.28518 0.77065 0.57132 0.0
H4932 H 0.25706 0.79684 0.50081 0.0
H4933 H 0.22054 0.78863 0.50701 0.0
H4934 H 0.23909 0.74275 0.55073 0.0
C4935 C 0.32511 0.76097 0.53515 0.0
C4936 C 0.33907 0.77352 0.5227 0.0
C4937 C 0.32801 0.78659 0.50906 0.0
C4938 C 0.306 0.78818 0.50799 0.0
C4939 C 0.29307 0.77617 0.52043 0.0
C4940 C 0.30241 0.76246 0.53365 0.0
C4941 C 0.28466 0.75062 0.54468 0.0
C4942 C 0.28592 0.72773 0.53973 0.0
C4943 C 0.28607 0.75408 0.56779 0.0
C4944 C 0.26419 0.75982 0.53599 0.0
C4945 C 0.26951 0.77471 0.522 0.0
C4946 C 0.25333 0.78523 0.51197 0.0
C4947 C 0.23196 0.78064 0.51591 0.0
C4948 C 0.22523 0.76558 0.53026 0.0
C4949 C 0.24247 0.75493 0.54007 0.0
H4950 H 0.78819 0.5696 0.98251 0.0
H4951 H 0.76418 0.51018 0.96642 0.0
H4952 H 0.7609 0.50206 1.00323 0.0
H4953 H 0.81694 0.55395 0.02974 0.0
H4954 H 0.81072 0.57662 0.04394 0.0
H4955 H 0.81191 0.57756 1.01647 0.0
H4956 H 0.77533 0.59161 1.01522 0.0
H4957 H 0.77397 0.59055 0.04268 0.0
H4958 H 0.75495 0.57762 1.0274 0.0
H4959 H 0.75878 0.50047 0.04608 0.0
H4960 H 0.75938 0.50514 0.08338 0.0
H4961 H 0.78463 0.56561 0.07537 0.0
C4962 C 0.78256 0.55458 0.98639 0.0
C4963 C 0.77751 0.54034 0.96955 0.0
C4964 C 0.76936 0.52149 0.97729 0.0
C4965 C 0.76714 0.51677 0.99893 0.0
C4966 C 0.77257 0.53086 1.01464 0.0
C4967 C 0.78023 0.54958 1.00844 0.0
C4968 C 0.78461 0.5623 1.02846 0.0
C4969 C 0.8074 0.56796 0.02972 0.0
C4970 C 0.77145 0.58169 1.02844 0.0
C4971 C 0.77853 0.54807 0.04694 0.0
C4972 C 0.77141 0.52999 0.03839 0.0
C4973 C 0.76448 0.51476 0.05218 0.0
C4974 C 0.76472 0.51764 0.07415 0.0
C4975 C 0.77196 0.53564 0.08443 0.0
C4976 C 0.7791 0.55114 0.06957 0.0
H4977 H 0.76918 0.50452 0.22867 0.0
H4978 H 0.74972 0.56715 0.22154 0.0
H4979 H 0.75048 0.57136 0.25883 0.0
H4980 H 0.74013 0.49416 0.27601 0.0
H4981 H 0.75933 0.4787 0.28831 0.0
H4982 H 0.75829 0.48028 0.26084 0.0
H4983 H 0.79586 0.49198 0.26013 0.0
H4984 H 0.79701 0.49035 0.28761 0.0
H4985 H 0.80369 0.51387 0.2749 0.0
H4986 H 0.7519 0.56906 0.30071 0.0
H4987 H 0.75479 0.56108 0.33743 0.0
H4988 H 0.77414 0.49984 0.32224 0.0
C4989 C 0.76568 0.51948 0.23465 0.0
C4990 C 0.7602 0.53586 0.22001 0.0
C4991 C 0.7547 0.55425 0.23055 0.0
C4992 C 0.75498 0.55681 0.25251 0.0
C4993 C 0.76048 0.54081 0.26602 0.0
C4994 C 0.76591 0.52235 0.25732 0.0
C4995 C 0.77084 0.50752 0.27577 0.0
C4996 C 0.75629 0.48905 0.27519 0.0
C4997 C 0.79318 0.50049 0.27453 0.0
C4998 C 0.7674 0.52027 0.29595 0.0
C4999 C 0.7613 0.53952 0.28967 0.0
C5000 C 0.75685 0.55394 0.30516 0.0
C5001 C 0.7586 0.54915 0.32672 0.0
C5002 C 0.76501 0.52977 0.33472 0.0
C5003 C 0.76939 0.51512 0.31811 0.0
H5004 H 0.79965 0.53335 0.57413 0.0
H5005 H 0.75593 0.48543 0.5873 0.0
H5006 H 0.74966 0.48136 0.55038 0.0
H5007 H 0.76932 0.55433 0.52874 0.0
H5008 H 0.79174 0.56135 0.5144 0.0
H5009 H 0.79273 0.56079 0.54189 0.0
H5010 H 0.82335 0.53634 0.53987 0.0
H5011 H 0.82186 0.53662 0.51238 0.0
H5012 H 0.82078 0.51269 0.526 0.0
H5013 H 0.74617 0.48294 0.5094 0.0
H5014 H 0.74742 0.48811 0.47284 0.0
H5015 H 0.79543 0.5327 0.47992 0.0
C5016 C 0.78868 0.52193 0.56955 0.0
C5017 C 0.77835 0.50984 0.58565 0.0
C5018 C 0.76422 0.49539 0.57703 0.0
C5019 C 0.7605 0.49287 0.55537 0.0
C5020 C 0.77056 0.50496 0.54046 0.0
C5021 C 0.78449 0.51935 0.54728 0.0
C5022 C 0.79273 0.5306 0.52749 0.0
C5023 C 0.78627 0.55312 0.52817 0.0
C5024 C 0.81609 0.52897 0.52637 0.0
C5025 C 0.78227 0.5197 0.50852 0.0
C5026 C 0.76913 0.50533 0.51692 0.0
C5027 C 0.75683 0.49405 0.50332 0.0
C5028 C 0.75788 0.49692 0.48156 0.0
C5029 C 0.77144 0.51042 0.47088 0.0
C5030 C 0.78408 0.52219 0.48574 0.0
H5031 H 0.7837 0.55502 0.82177 0.0
H5032 H 0.8033 0.49426 0.83851 0.0
H5033 H 0.80548 0.48534 0.80201 0.0
H5034 H 0.75267 0.53941 0.77559 0.0
H5035 H 0.75983 0.56116 0.76028 0.0
H5036 H 0.75948 0.56318 0.78772 0.0
H5037 H 0.79693 0.57526 0.78758 0.0
H5038 H 0.79743 0.57325 0.76014 0.0
H5039 H 0.81604 0.55979 0.77538 0.0
H5040 H 0.8062 0.48217 0.75996 0.0
H5041 H 0.80617 0.48572 0.72257 0.0
H5042 H 0.78581 0.54813 0.72861 0.0
C5043 C 0.7881 0.53962 0.81807 0.0
C5044 C 0.79286 0.52545 0.83503 0.0
C5045 C 0.79923 0.50591 0.82751 0.0
C5046 C 0.80054 0.50055 0.80608 0.0
C5047 C 0.79562 0.51453 0.79024 0.0
C5048 C 0.78954 0.53388 0.79607 0.0
C5049 C 0.78547 0.54612 0.77566 0.0
C5050 C 0.76303 0.5529 0.77476 0.0
C5051 C 0.79981 0.56473 0.77463 0.0
C5052 C 0.79008 0.53093 0.75756 0.0
C5053 C 0.79591 0.51271 0.76661 0.0
C5054 C 0.80131 0.49652 0.75337 0.0
C5055 C 0.80106 0.49867 0.73134 0.0
C5056 C 0.79493 0.51676 0.72049 0.0
C5057 C 0.78966 0.53333 0.73486 0.0
H5058 H 0.5001 0.32336 0.77391 0.0
H5059 H 0.56445 0.33833 0.76927 0.0
H5060 H 0.57248 0.30149 0.76848 0.0
H5061 H 0.50543 0.27631 0.80529 0.0
H5062 H 0.48579 0.26193 0.79223 0.0
H5063 H 0.48456 0.28943 0.79295 0.0
H5064 H 0.48272 0.29075 0.75387 0.0
H5065 H 0.4838 0.26323 0.75291 0.0
H5066 H 0.5022 0.27833 0.73906 0.0
H5067 H 0.57437 0.2598 0.76891 0.0
H5068 H 0.5697 0.22244 0.76823 0.0
H5069 H 0.50409 0.23055 0.7707 0.0
C5070 C 0.51602 0.31918 0.77298 0.0
C5071 C 0.53154 0.33552 0.77214 0.0
C5072 C 0.55184 0.32761 0.77027 0.0
C5073 C 0.55666 0.30607 0.76976 0.0
C5074 C 0.54127 0.2908 0.77071 0.0
C5075 C 0.52117 0.29717 0.77204 0.0
C5076 C 0.50749 0.27733 0.77202 0.0
C5077 C 0.49506 0.27619 0.7918 0.0
C5078 C 0.49319 0.27742 0.75336 0.0
C5079 C 0.52279 0.25889 0.77079 0.0
C5080 C 0.54228 0.26728 0.77019 0.0
C5081 C 0.55899 0.25365 0.7694 0.0
C5082 C 0.55613 0.23176 0.76922 0.0
C5083 C 0.53659 0.22174 0.76974 0.0
C5084 C 0.51958 0.2364 0.77033 0.0
H5085 H 0.50356 0.97817 0.25252 0.0
H5086 H 0.52634 0.96732 0.31319 0.0
H5087 H 0.53085 1.00453 0.31802 0.0
H5088 H 0.53565 1.02441 0.2403 0.0
H5089 H 0.51548 0.03748 0.22682 0.0
H5090 H 0.5157 1.00993 0.2278 0.0
H5091 H 0.47932 1.01001 0.24265 0.0
H5092 H 0.47909 0.03754 0.2417 0.0
H5093 H 0.47422 1.02447 0.26541 0.0
H5094 H 0.53203 0.04856 0.31613 0.0
H5095 H 0.52788 0.08555 0.30905 0.0
H5096 H 0.5033 0.07056 0.24963 0.0
C5097 C 0.51008 0.98329 0.26683 0.0
C5098 C 0.51622 0.96752 0.28187 0.0
C5099 C 0.52335 0.97699 0.30034 0.0
C5100 C 0.52537 0.99903 0.30342 0.0
C5101 C 0.5198 1.01364 0.2882 0.0
C5102 C 0.51206 1.00575 0.27014 0.0
C5103 C 0.50636 1.02459 0.25625 0.0
C5104 C 0.51903 1.02406 0.23661 0.0
C5105 C 0.48339 1.02412 0.25118 0.0
C5106 C 0.51186 0.0443 0.26896 0.0
C5107 C 0.51975 0.03759 0.28744 0.0
C5108 C 0.52585 0.05312 0.30148 0.0
C5109 C 0.52365 0.0749 0.29712 0.0
C5110 C 0.51544 0.08315 0.27847 0.0
C5111 C 0.5096 0.06649 0.26431 0.0
H5112 H 0.82802 0.79072 1.02355 0.0
H5113 H 0.83702 0.72767 0.04073 0.0
H5114 H 0.80046 0.72236 0.04192 0.0
H5115 H 0.77814 0.7981 0.054 0.0
H5116 H 0.76464 0.81251 0.03476 0.0
H5117 H 0.79217 0.81374 0.03619 0.0
H5118 H 0.79542 0.80256 0.99909 0.0
H5119 H 0.76793 0.80195 0.99703 0.0
H5120 H 0.78256 0.77967 0.99057 0.0
H5121 H 0.76072 0.72183 0.04134 0.0
H5122 H 0.72427 0.72567 0.03856 0.0
H5123 H 0.73242 0.78844 1.01936 0.0
C5124 C 0.8226 0.77598 1.02863 0.0
C5125 C 0.83795 0.76006 0.034 0.0
C5126 C 0.82783 0.741 0.03831 0.0
C5127 C 0.80613 0.73754 0.03853 0.0
C5128 C 0.7921 0.75302 0.03373 0.0
C5129 C 0.79982 0.77208 1.02877 0.0
C5130 C 0.78014 0.78533 1.02329 0.0
C5131 C 0.77869 0.80352 0.03793 0.0
C5132 C 0.7816 0.79284 1.00117 0.0
C5133 C 0.76066 0.77085 1.02595 0.0
C5134 C 0.76864 0.75232 0.03207 0.0
C5135 C 0.75483 0.73638 0.03616 0.0
C5136 C 0.73311 0.73884 0.03404 0.0
C5137 C 0.72265 0.757 1.02716 0.0
C5138 C 0.73786 0.77362 1.02352 0.0
H5139 H 0.06379 0.07383 0.79647 0.0
H5140 H 1.01453 0.09042 0.75552 0.0
H5141 H 1.0079 0.05355 0.74926 0.0
H5142 H 0.08233 0.02899 0.76861 0.0
H5143 H 0.08764 1.01358 0.79081 0.0
H5144 H 0.08829 0.04106 0.79263 0.0
H5145 H 0.06216 0.03977 0.82171 0.0
H5146 H 0.06142 1.01227 0.82005 0.0
H5147 H 0.03811 1.02671 0.81788 0.0
H5148 H 1.00682 1.01089 0.74661 0.0
H5149 H 1.01049 0.97369 0.74886 0.0
H5150 H 0.0607 0.981 0.79112 0.0
C5151 C 0.05123 0.07 0.78638 0.0
C5152 C 0.03935 0.08689 0.77725 0.0
C5153 C 1.02379 0.07939 0.76366 0.0
C5154 C 1.01997 0.05779 0.7598 0.0
C5155 C 0.0317 0.042 0.7692 0.0
C5156 C 0.04707 0.04804 0.78246 0.0
C5157 C 0.05746 0.02795 0.79079 0.0
C5158 C 0.0803 0.0279 0.7854 0.0
C5159 C 0.05465 1.0266 0.81399 0.0
C5160 C 0.04609 1.00959 0.78005 0.0
C5161 C 0.03119 1.0183 0.76766 0.0
C5162 C 1.01868 1.00468 0.75635 0.0
C5163 C 1.02111 0.98272 0.75748 0.0
C5164 C 0.03606 0.97223 0.76963 0.0
C5165 C 0.04875 0.98693 0.78132 0.0
H5166 H 0.73556 0.27775 0.56272 0.0
H5167 H 0.72069 0.29617 0.501 0.0
H5168 H 0.75747 0.29982 0.49367 0.0
H5169 H 0.78094 0.31162 0.56948 0.0
H5170 H 0.79632 0.29348 0.58339 0.0
H5171 H 0.76878 0.29183 0.58432 0.0
H5172 H 0.77021 0.25461 0.57202 0.0
H5173 H 0.79778 0.25608 0.57106 0.0
H5174 H 0.78344 0.24867 0.54872 0.0
H5175 H 0.79964 0.30153 0.49204 0.0
H5176 H 0.83676 0.30177 0.49669 0.0
H5177 H 0.82914 0.28374 0.5596 0.0
C5178 C 0.73975 0.28234 0.54747 0.0
C5179 C 0.72318 0.28622 0.53249 0.0
C5180 C 0.73134 0.29262 0.51318 0.0
C5181 C 0.75295 0.29484 0.50874 0.0
C5182 C 0.76839 0.29077 0.52347 0.0
C5183 C 0.76198 0.28462 0.54263 0.0
C5184 C 0.78211 0.28129 0.55565 0.0
C5185 C 0.78203 0.29539 0.57434 0.0
C5186 C 0.78346 0.25883 0.56229 0.0
C5187 C 0.80067 0.28675 0.54124 0.0
C5188 C 0.79211 0.292 0.52261 0.0
C5189 C 0.80582 0.29738 0.50681 0.0
C5190 C 0.82782 0.29765 0.50975 0.0
C5191 C 0.83829 0.29252 0.52841 0.0
C5192 C 0.82334 0.28722 0.54452 0.0
H5193 H 0.30125 0.52634 0.08244 0.0
H5194 H 0.25515 0.47909 0.08758 0.0
H5195 H 0.25243 0.47771 0.05014 0.0
H5196 H 0.27776 0.55166 0.03473 0.0
H5197 H 0.30206 0.55752 1.02327 0.0
H5198 H 0.29997 0.55597 0.05065 0.0
H5199 H 0.32863 0.52926 0.05143 0.0
H5200 H 0.33064 0.53074 1.02403 0.0
H5201 H 0.32615 0.50645 0.03623 0.0
H5202 H 0.25478 0.48065 1.00808 0.0
H5203 H 0.26162 0.48739 0.97168 0.0
H5204 H 0.30676 0.53265 0.98918 0.0
C5205 C 0.28999 0.51604 0.07598 0.0
C5206 C 0.27765 0.50334 0.09012 0.0
C5207 C 0.26442 0.48971 0.07897 0.0
C5208 C 0.26285 0.48869 0.05691 0.0
C5209 C 0.27478 0.50122 0.04388 0.0
C5210 C 0.28814 0.51486 0.05319 0.0
C5211 C 0.29944 0.52637 0.03519 0.0
C5212 C 0.29454 0.54926 0.03603 0.0
C5213 C 0.3226 0.52302 0.03682 0.0
C5214 C 0.29085 0.517 1.01462 0.0
C5215 C 0.27639 0.50256 1.02024 0.0
C5216 C 0.26611 0.49209 1.0042 0.0
C5217 C 0.27018 0.49619 0.98281 0.0
C5218 C 0.28488 0.51081 0.97546 0.0
C5219 C 0.29537 0.52123 0.99265 0.0
H5220 H 0.31069 0.50043 0.8281 0.0
H5221 H 0.28318 0.55767 0.84573 0.0
H5222 H 0.27554 0.56462 0.80927 0.0
H5223 H 0.33467 0.51929 0.78011 0.0
H5224 H 0.33014 0.49615 0.76591 0.0
H5225 H 0.33302 0.49516 0.79328 0.0
H5226 H 0.29807 0.47705 0.79628 0.0
H5227 H 0.29536 0.47788 0.76888 0.0
H5228 H 0.27579 0.48859 0.78482 0.0
H5229 H 0.27312 0.56714 0.76715 0.0
H5230 H 0.2736 0.56345 0.72993 0.0
H5231 H 0.301 0.50401 0.73602 0.0
C5232 C 0.30358 0.51485 0.82469 0.0
C5233 C 0.29812 0.52852 0.8417 0.0
C5234 C 0.28775 0.54642 0.83458 0.0
C5235 C 0.28339 0.55064 0.81324 0.0
C5236 C 0.28927 0.53715 0.79735 0.0
C5237 C 0.29906 0.51935 0.80298 0.0
C5238 C 0.30355 0.50718 0.78277 0.0
C5239 C 0.32672 0.50425 0.78038 0.0
C5240 C 0.29255 0.48642 0.78323 0.0
C5241 C 0.29493 0.52066 0.76485 0.0
C5242 C 0.28689 0.53801 0.77386 0.0
C5243 C 0.2789 0.55313 0.76068 0.0
C5244 C 0.27872 0.55066 0.73878 0.0
C5245 C 0.28575 0.53297 0.72809 0.0
C5246 C 0.29449 0.51778 0.74228 0.0
H5247 H 0.27483 0.51521 0.58104 0.0
H5248 H 0.27906 0.58069 0.58852 0.0
H5249 H 0.27993 0.5851 0.55196 0.0
H5250 H 0.30648 0.51185 0.53239 0.0
H5251 H 0.29016 0.49391 0.51918 0.0
H5252 H 0.29123 0.49387 0.54665 0.0
H5253 H 0.25254 0.49848 0.54884 0.0
H5254 H 0.25099 0.49799 0.52135 0.0
H5255 H 0.24054 0.51922 0.53524 0.0
H5256 H 0.28191 0.58421 0.51125 0.0
H5257 H 0.28 0.57768 0.47425 0.0
H5258 H 0.27046 0.51339 0.48669 0.0
C5259 C 0.27697 0.53051 0.57539 0.0
C5260 C 0.27898 0.54746 0.59034 0.0
C5261 C 0.2795 0.5668 0.57976 0.0
C5262 C 0.27958 0.56972 0.55801 0.0
C5263 C 0.27843 0.55327 0.54435 0.0
C5264 C 0.27669 0.53384 0.55263 0.0
C5265 C 0.27392 0.5192 0.53354 0.0
C5266 C 0.2915 0.50377 0.53291 0.0
C5267 C 0.25327 0.50803 0.53482 0.0
C5268 C 0.27456 0.53326 0.51383 0.0
C5269 C 0.27749 0.55293 0.52083 0.0
C5270 C 0.27945 0.56869 0.5061 0.0
C5271 C 0.2784 0.56472 0.48441 0.0
C5272 C 0.27492 0.54498 0.4756 0.0
C5273 C 0.27289 0.52898 0.49149 0.0
H5274 H 0.26843 0.50013 0.33202 0.0
H5275 H 0.25927 0.565 0.33873 0.0
H5276 H 0.2611 0.56896 0.30136 0.0
H5277 H 0.30381 0.50252 0.2865 0.0
H5278 H 0.29292 0.48041 0.2741 0.0
H5279 H 0.292 0.48267 0.30151 0.0
H5280 H 0.25291 0.4781 0.30035 0.0
H5281 H 0.2538 0.4759 0.27293 0.0
H5282 H 0.23776 0.49486 0.28459 0.0
H5283 H 0.26208 0.56563 0.25841 0.0
H5284 H 0.2637 0.5563 0.22192 0.0
H5285 H 0.27279 0.49322 0.23917 0.0
C5286 C 0.26753 0.51547 0.32595 0.0
C5287 C 0.26524 0.53251 0.34064 0.0
C5288 C 0.26266 0.55153 0.32993 0.0
C5289 C 0.26327 0.5539 0.30782 0.0
C5290 C 0.26599 0.53712 0.29431 0.0
C5291 C 0.26818 0.51809 0.30329 0.0
C5292 C 0.2704 0.50233 0.28519 0.0
C5293 C 0.29101 0.49131 0.28693 0.0
C5294 C 0.25268 0.48686 0.28581 0.0
C5295 C 0.26944 0.51513 0.26474 0.0
C5296 C 0.2666 0.53527 0.27054 0.0
C5297 C 0.26455 0.54979 0.25449 0.0
C5298 C 0.26553 0.54418 0.23302 0.0
C5299 C 0.26894 0.52384 0.22556 0.0
C5300 C 0.27075 0.50918 0.24273 0.0
H5301 H 0.52853 0.82109 0.31743 0.0
H5302 H 0.52631 0.83378 0.25264 0.0
H5303 H 0.52775 0.79674 0.24574 0.0
H5304 H 0.56182 0.77531 0.31583 0.0
H5305 H 0.54809 0.76092 0.33485 0.0
H5306 H 0.54762 0.78846 0.33527 0.0
H5307 H 0.50833 0.78789 0.33419 0.0
H5308 H 0.50867 0.76034 0.33394 0.0
H5309 H 0.49533 0.77411 0.31415 0.0
H5310 H 0.5309 0.75485 0.24513 0.0
H5311 H 0.53189 0.71757 0.25094 0.0
H5312 H 0.5292 0.72795 0.31599 0.0
C5313 C 0.52837 0.81641 0.30163 0.0
C5314 C 0.52737 0.83228 0.28561 0.0
C5315 C 0.52706 0.82354 0.26559 0.0
C5316 C 0.52793 0.80185 0.26143 0.0
C5317 C 0.52877 0.78706 0.27723 0.0
C5318 C 0.52867 0.79415 0.29712 0.0
C5319 C 0.52865 0.77467 0.3113 0.0
C5320 C 0.54767 0.77485 0.32515 0.0
C5321 C 0.50909 0.77423 0.32418 0.0
C5322 C 0.52914 0.75569 0.29654 0.0
C5323 C 0.52942 0.76345 0.27688 0.0
C5324 C 0.53052 0.74921 0.26065 0.0
C5325 C 0.53127 0.72738 0.26415 0.0
C5326 C 0.53071 0.71799 0.28388 0.0
C5327 C 0.52946 0.73328 0.30036 0.0
H5328 H 0.09302 0.39435 0.35035 0.0
H5329 H 0.06787 0.35039 0.30772 0.0
H5330 H 0.08269 0.32236 0.32756 0.0
H5331 H 0.14255 0.36126 0.36103 0.0
H5332 H 0.14261 0.37385 0.38549 0.0
H5333 H 0.13309 0.38664 0.36301 0.0
H5334 H 0.09958 0.39203 0.38727 0.0
H5335 H 0.11 0.37528 0.40639 0.0
H5336 H 0.08572 0.36941 0.39461 0.0
H5337 H 0.09569 0.29911 0.35504 0.0
H5338 H 0.11282 0.28219 0.38419 0.0
H5339 H 0.13112 0.3414 0.40792 0.0
C5340 C 0.09125 0.37884 0.34484 0.0
C5341 C 0.07876 0.37451 0.3278 0.0
C5342 C 0.07681 0.35413 0.32095 0.0
C5343 C 0.08528 0.33804 0.33216 0.0
C5344 C 0.09616 0.34275 0.34981 0.0
C5345 C 0.1 0.36266 0.35562 0.0
C5346 C 0.11228 0.36353 0.37519 0.0
C5347 C 0.1339 0.37184 0.37102 0.0
C5348 C 0.10125 0.3758 0.39183 0.0
C5349 C 0.11318 0.34112 0.38038 0.0
C5350 C 0.10409 0.32934 0.36538 0.0
C5351 C 0.10324 0.30814 0.36668 0.0
C5352 C 0.11293 0.29871 0.38327 0.0
C5353 C 0.12332 0.31052 0.39819 0.0
C5354 C 0.123 0.332 0.39693 0.0
H5355 H 0.93528 0.8702 0.6698 0.0
H5356 H 0.99061 0.83556 0.68018 0.0
H5357 H 0.9917 0.82669 0.64345 0.0
H5358 H 0.91062 0.83861 0.63757 0.0
H5359 H 0.90078 0.85853 0.6212 0.0
H5360 H 0.90706 0.86421 0.64713 0.0
H5361 H 0.93021 0.89349 0.63291 0.0
H5362 H 0.92394 0.88609 0.60713 0.0
H5363 H 0.95029 0.88743 0.6152 0.0
H5364 H 0.98307 0.81639 0.60768 0.0
H5365 H 0.96366 0.80263 0.57847 0.0
H5366 H 0.91438 0.84441 0.5909 0.0
C5367 C 0.94779 0.86103 0.66417 0.0
C5368 C 0.96269 0.85327 0.67772 0.0
C5369 C 0.979 0.84152 0.66996 0.0
C5370 C 0.97985 0.83664 0.64911 0.0
C5371 C 0.96467 0.84422 0.63612 0.0
C5372 C 0.94907 0.85641 0.64335 0.0
C5373 C 0.93345 0.8608 0.62682 0.0
C5374 C 0.91171 0.85511 0.63367 0.0
C5375 C 0.93456 0.88329 0.62013 0.0
C5376 C 0.94114 0.84699 0.61002 0.0
C5377 C 0.95983 0.83849 0.61519 0.0
C5378 C 0.96879 0.82344 0.60317 0.0
C5379 C 0.95777 0.81585 0.58636 0.0
C5380 C 0.93781 0.82291 0.58215 0.0
C5381 C 0.92998 0.83946 0.59334 0.0
H5382 H 0.4784 0.68168 0.85792 0.0
H5383 H 0.46487 0.71637 0.80346 0.0
H5384 H 0.45283 0.74492 0.82484 0.0
H5385 H 0.43775 0.69315 0.8843 0.0
H5386 H 0.44984 0.69489 0.90906 0.0
H5387 H 0.4611 0.67954 0.88968 0.0
H5388 H 0.49514 0.69882 0.89268 0.0
H5389 H 0.48445 0.71446 0.91251 0.0
H5390 H 0.49567 0.72623 0.89033 0.0
H5391 H 0.43934 0.76761 0.85188 0.0
H5392 H 0.41853 0.77883 0.88106 0.0
H5393 H 0.44291 0.72907 0.91738 0.0
C5394 C 0.47412 0.69566 0.85046 0.0
C5395 C 0.47439 0.69753 0.82914 0.0
C5396 C 0.46609 0.71515 0.81984 0.0
C5397 C 0.45937 0.73146 0.83187 0.0
C5398 C 0.46102 0.72968 0.85302 0.0
C5399 C 0.46793 0.712 0.86218 0.0
C5400 C 0.46548 0.71233 0.88498 0.0
C5401 C 0.45271 0.69393 0.89242 0.0
C5402 C 0.48643 0.71302 0.89575 0.0
C5403 C 0.45435 0.73231 0.88714 0.0
C5404 C 0.45272 0.74255 0.86871 0.0
C5405 C 0.44076 0.75996 0.86646 0.0
C5406 C 0.42895 0.76616 0.88304 0.0
C5407 C 0.42902 0.75467 0.90133 0.0
C5408 C 0.44289 0.73844 0.90376 0.0
H5409 H 0.64401 0.24107 0.11039 0.0
H5410 H 0.61421 0.22493 0.05346 0.0
H5411 H 0.59266 0.19979 0.07197 0.0
H5412 H 0.64215 0.19577 0.13935 0.0
H5413 H 0.63405 0.20882 0.16213 0.0
H5414 H 0.64946 0.22202 0.1436 0.0
H5415 H 0.62216 0.25054 0.14068 0.0
H5416 H 0.60679 0.23757 0.15936 0.0
H5417 H 0.59608 0.24373 0.13476 0.0
H5418 H 0.57168 0.1795 0.09841 0.0
H5419 H 0.55228 0.1685 0.12911 0.0
H5420 H 0.59484 0.20151 0.16769 0.0
C5421 C 0.63346 0.23182 0.10152 0.0
C5422 C 0.63155 0.23416 0.08024 0.0
C5423 C 0.61684 0.22246 0.06951 0.0
C5424 C 0.6043 0.20843 0.08003 0.0
C5425 C 0.60635 0.20701 0.10125 0.0
C5426 C 0.62036 0.21883 0.11178 0.0
C5427 C 0.61744 0.21783 0.13452 0.0
C5428 C 0.63693 0.21065 0.14553 0.0
C5429 C 0.61019 0.23863 0.1428 0.0
C5430 C 0.60058 0.2022 0.13547 0.0
C5431 C 0.59401 0.19632 0.11621 0.0
C5432 C 0.57697 0.18369 0.11351 0.0
C5433 C 0.56616 0.17742 0.13091 0.0
C5434 C 0.57271 0.18366 0.15052 0.0
C5435 C 0.59025 0.19583 0.15282 0.0
H5436 H 0.09793 0.66877 0.22729 0.0
H5437 H 0.04722 0.71047 0.22816 0.0
H5438 H 0.06318 0.73109 0.20127 0.0
H5439 H 0.13859 0.712 0.20989 0.0
H5440 H 0.15176 0.69332 0.19468 0.0
H5441 H 0.14105 0.68612 0.2189 0.0
H5442 H 0.12105 0.65754 0.20207 0.0
H5443 H 0.13072 0.66393 0.17739 0.0
H5444 H 0.10344 0.66301 0.18133 0.0
H5445 H 0.07829 0.73984 0.1678 0.0
H5446 H 0.09357 0.73847 0.13343 0.0
H5447 H 0.13549 0.69167 0.15412 0.0
C5448 C 0.09129 0.68332 0.22315 0.0
C5449 C 0.07192 0.68882 0.23071 0.0
C5450 C 0.06266 0.70695 0.22367 0.0
C5451 C 0.07154 0.71854 0.20805 0.0
C5452 C 0.09005 0.71203 0.19992 0.0
C5453 C 0.10037 0.69533 0.20786 0.0
C5454 C 0.11845 0.68987 0.19452 0.0
C5455 C 0.13865 0.6957 0.20513 0.0
C5456 C 0.11834 0.66724 0.18843 0.0
C5457 C 0.1146 0.70368 0.17641 0.0
C5458 C 0.09879 0.71707 0.18019 0.0
C5459 C 0.09115 0.7299 0.16496 0.0
C5460 C 0.09982 0.72893 0.14543 0.0
C5461 C 0.11563 0.71486 0.14116 0.0
C5462 C 0.12335 0.70247 0.15701 0.0
H5463 H 0.64045 0.85598 0.48639 0.0
H5464 H 0.60897 0.79836 0.47962 0.0
H5465 H 0.58377 0.81434 0.45741 0.0
H5466 H 0.58824 0.8884 0.48168 0.0
H5467 H 0.60236 0.90851 0.46921 0.0
H5468 H 0.61395 0.89435 0.48983 0.0
H5469 H 0.64478 0.88467 0.46629 0.0
H5470 H 0.63315 0.89961 0.44655 0.0
H5471 H 0.63899 0.87327 0.4418 0.0
H5472 H 0.57211 0.83234 0.42701 0.0
H5473 H 0.56953 0.85304 0.39614 0.0
H5474 H 0.60237 0.90235 0.42646 0.0
C5475 C 0.62699 0.84733 0.48224 0.0
C5476 C 0.62573 0.8263 0.48657 0.0
C5477 C 0.60934 0.81475 0.47825 0.0
C5478 C 0.59502 0.82373 0.46519 0.0
C5479 C 0.59698 0.84444 0.46091 0.0
C5480 C 0.61196 0.8564 0.47 0.0
C5481 C 0.61217 0.87772 0.46099 0.0
C5482 C 0.60367 0.89316 0.47634 0.0
C5483 C 0.63357 0.88414 0.45351 0.0
C5484 C 0.59744 0.87478 0.44341 0.0
C5485 C 0.58851 0.85562 0.44385 0.0
C5486 C 0.57791 0.84785 0.42708 0.0
C5487 C 0.57654 0.85987 0.40948 0.0
C5488 C 0.58542 0.87972 0.40878 0.0
C5489 C 0.59534 0.88737 0.42634 0.0
H5490 H 0.47468 0.40241 0.71532 0.0
H5491 H 0.49232 0.34687 0.74622 0.0
H5492 H 0.46648 0.32748 0.72612 0.0
H5493 H 0.4193 0.39145 0.70598 0.0
H5494 H 0.42168 0.40375 0.68149 0.0
H5495 H 0.43758 0.41175 0.70267 0.0
H5496 H 0.47117 0.4034 0.67906 0.0
H5497 H 0.45292 0.39708 0.65924 0.0
H5498 H 0.47187 0.37885 0.66724 0.0
H5499 H 0.4432 0.31385 0.6971 0.0
H5500 H 0.42268 0.30813 0.6656 0.0
H5501 H 0.4218 0.37338 0.65455 0.0
C5502 C 0.47235 0.38637 0.71863 0.0
C5503 C 0.48483 0.37621 0.73279 0.0
C5504 C 0.48226 0.35499 0.73595 0.0
C5505 C 0.46777 0.34388 0.72443 0.0
C5506 C 0.45618 0.35435 0.70985 0.0
C5507 C 0.45826 0.37521 0.70721 0.0
C5508 C 0.44661 0.38271 0.68887 0.0
C5509 C 0.43034 0.39837 0.69509 0.0
C5510 C 0.46145 0.39106 0.67265 0.0
C5511 C 0.43704 0.3631 0.68171 0.0
C5512 C 0.44294 0.3467 0.69364 0.0
C5513 C 0.43799 0.3267 0.68809 0.0
C5514 C 0.42649 0.32359 0.67012 0.0
C5515 C 0.42013 0.34042 0.65802 0.0
C5516 C 0.42559 0.36031 0.66398 0.0
H5517 H 0.96689 0.17348 0.89922 0.0
H5518 H 0.02988 0.18051 0.91937 0.0
H5519 H 1.01822 0.19972 0.94954 0.0
H5520 H 0.94927 0.22419 0.91649 0.0
H5521 H 0.92461 0.21401 0.92374 0.0
H5522 H 0.93844 0.20272 0.90299 0.0
H5523 H 0.9355 0.16773 0.92128 0.0
H5524 H 0.92251 0.17932 0.94242 0.0
H5525 H 0.94556 0.16493 0.9468 0.0
H5526 H 0.99934 0.21156 0.98024 0.0
H5527 H 0.97522 0.22808 1.00425 0.0
H5528 H 0.92526 0.21446 0.96276 0.0
C5529 C 0.97826 0.17969 0.9096 0.0
C5530 C 0.99921 0.17542 0.90727 0.0
C5531 C 1.01371 0.18349 0.92122 0.0
C5532 C 1.00726 0.19425 0.93837 0.0
C5533 C 0.98636 0.19688 0.94103 0.0
C5534 C 0.97211 0.19052 0.9267 0.0
C5535 C 0.95056 0.19523 0.93328 0.0
C5536 C 0.94012 0.20995 0.91824 0.0
C5537 C 0.9378 0.17562 0.93611 0.0
C5538 C 0.95505 0.20527 0.95351 0.0
C5539 C 0.97568 0.20552 0.95799 0.0
C5540 C 0.98327 0.21261 0.97656 0.0
C5541 C 0.96951 0.22145 0.99021 0.0
C5542 C 0.94867 0.22301 0.98483 0.0
C5543 C 0.94125 0.214 0.96681 0.0
H5544 H 0.35266 0.04377 0.37628 0.0
H5545 H 0.31874 0.09926 0.36503 0.0
H5546 H 0.34857 0.11373 0.34685 0.0
H5547 H 0.39492 0.06808 0.39188 0.0
H5548 H 0.41326 0.05012 0.38218 0.0
H5549 H 0.38789 0.04164 0.38843 0.0
H5550 H 0.38257 1.02758 0.35201 0.0
H5551 H 0.40821 0.03543 0.34564 0.0
H5552 H 0.3869 0.04396 0.3303 0.0
H5553 H 0.38458 0.12472 0.33734 0.0
H5554 H 0.42169 0.13062 0.33539 0.0
H5555 H 0.43242 0.06785 0.35402 0.0
C5556 C 0.35111 0.05863 0.36914 0.0
C5557 C 0.33336 0.07055 0.37228 0.0
C5558 C 0.3321 0.08995 0.36299 0.0
C5559 C 0.34908 0.09825 0.35266 0.0
C5560 C 0.36712 0.08683 0.35175 0.0
C5561 C 0.36806 0.06724 0.35951 0.0
C5562 C 0.38981 0.05927 0.35991 0.0
C5563 C 0.39686 0.05451 0.38189 0.0
C5564 C 0.392 0.04045 0.34612 0.0
C5565 C 0.40114 0.07754 0.35137 0.0
C5566 C 0.38783 0.09324 0.3466 0.0
C5567 C 0.39505 0.11232 0.34048 0.0
C5568 C 0.4163 0.11548 0.33934 0.0
C5569 C 0.4303 0.09965 0.34434 0.0
C5570 C 0.42237 0.08036 0.35009 0.0
H5571 H 0.24335 0.09619 0.6065 0.0
H5572 H 0.20774 0.07411 0.65735 0.0
H5573 H 0.18206 0.09868 0.6512 0.0
H5574 H 0.23667 0.14633 0.61586 0.0
H5575 H 0.23311 0.15539 0.59009 0.0
H5576 H 0.24721 0.13231 0.59476 0.0
H5577 H 0.22302 0.11224 0.57074 0.0
H5578 H 0.2089 0.13533 0.56564 0.0
H5579 H 0.19581 0.11291 0.57491 0.0
H5580 H 0.16397 0.12961 0.64565 0.0
H5581 H 0.15118 0.16284 0.63785 0.0
H5582 H 0.19608 0.16832 0.58876 0.0
C5583 C 0.22954 0.09581 0.61555 0.0
C5584 C 0.22748 0.08157 0.6318 0.0
C5585 C 0.20974 0.0828 0.64397 0.0
C5586 C 0.19479 0.09748 0.64077 0.0
C5587 C 0.19759 0.11146 0.62525 0.0
C5588 C 0.21422 0.1107 0.61242 0.0
C5589 C 0.21398 0.12905 0.59808 0.0
C5590 C 0.23392 0.14151 0.59983 0.0
C5591 C 0.2102 0.12197 0.57603 0.0
C5592 C 0.19561 0.14085 0.60625 0.0
C5593 C 0.18641 0.13004 0.6217 0.0
C5594 C 0.1705 0.13802 0.63301 0.0
C5595 C 0.16329 0.15747 0.62825 0.0
C5596 C 0.1718 0.16932 0.61209 0.0
C5597 C 0.1884 0.16044 0.60097 0.0
H5598 H 0.22572 0.9987 0.8508 0.0
H5599 H 0.21953 0.96811 0.90916 0.0
H5600 H 0.19593 0.94374 0.89448 0.0
H5601 H 0.17481 0.99795 0.84057 0.0
H5602 H 0.1763 0.99377 0.81346 0.0
H5603 H 0.19708 1.00622 0.82664 0.0
H5604 H 0.22268 0.97929 0.81346 0.0
H5605 H 0.20215 0.96704 0.79959 0.0
H5606 H 0.21742 0.95251 0.81737 0.0
H5607 H 0.16824 0.92703 0.87618 0.0
H5608 H 0.14185 0.91431 0.85232 0.0
H5609 H 0.16384 0.95613 0.80581 0.0
C5610 C 0.22025 0.98614 0.8601 0.0
C5611 C 0.22536 0.98484 0.8809 0.0
C5612 C 0.21687 0.96911 0.89306 0.0
C5613 C 0.20306 0.95515 0.88486 0.0
C5614 C 0.19745 0.95754 0.86461 0.0
C5615 C 0.20595 0.97238 0.8522 0.0
C5616 C 0.19536 0.9731 0.83167 0.0
C5617 C 0.1853 0.994 0.82788 0.0
C5618 C 0.21029 0.96764 0.81451 0.0
C5619 C 0.17946 0.95659 0.83477 0.0
C5620 C 0.18089 0.94796 0.85395 0.0
C5621 C 0.16716 0.93328 0.86092 0.0
C5622 C 0.15209 0.92642 0.84745 0.0
C5623 C 0.15108 0.93429 0.82739 0.0
C5624 C 0.16458 0.94985 0.82109 0.0
H5625 H 0.33542 0.86869 0.12665 0.0
H5626 H 0.38554 0.88354 0.08564 0.0
H5627 H 0.37716 0.91988 0.08859 0.0
H5628 H 0.30115 0.90924 0.1119 0.0
H5629 H 0.29283 0.91313 0.13777 0.0
H5630 H 0.30119 0.88828 0.12975 0.0
H5631 H 0.32627 0.88839 0.15972 0.0
H5632 H 0.32042 0.91417 0.16719 0.0
H5633 H 0.34633 0.90715 0.1611 0.0
H5634 H 0.36096 0.9552 0.09435 0.0
H5635 H 0.34055 0.98526 0.10503 0.0
H5636 H 0.30857 0.94743 0.14872 0.0
C5637 C 0.34499 0.87935 0.11842 0.0
C5638 C 0.36116 0.87267 0.10583 0.0
C5639 C 0.37265 0.8877 0.095 0.0
C5640 C 0.3682 0.90861 0.09675 0.0
C5641 C 0.3526 0.91449 0.10982 0.0
C5642 C 0.34133 0.90024 0.1206 0.0
C5643 C 0.32608 0.91039 0.1345 0.0
C5644 C 0.30402 0.90495 0.12809 0.0
C5645 C 0.33002 0.90473 0.15696 0.0
C5646 C 0.33088 0.93261 0.13021 0.0
C5647 C 0.34564 0.93478 0.11537 0.0
C5648 C 0.35002 0.9538 0.10662 0.0
C5649 C 0.33867 0.97087 0.11297 0.0
C5650 C 0.32406 0.96893 0.12865 0.0
C5651 C 0.32053 0.94959 0.13756 0.0
H5652 H 0.42248 0.92581 0.1942 0.0
H5653 H 0.44817 0.97735 0.22699 0.0
H5654 H 0.41353 0.9919 0.23078 0.0
H5655 H 0.38973 0.95133 0.16552 0.0
H5656 H 0.36776 0.93482 0.16586 0.0
H5657 H 0.39281 0.92427 0.16974 0.0
H5658 H 0.38365 0.90872 0.20457 0.0
H5659 H 0.35769 0.91729 0.20082 0.0
H5660 H 0.37154 0.92432 0.2236 0.0
H5661 H 0.37869 1.00356 0.22561 0.0
H5662 H 0.3456 1.0128 0.21077 0.0
H5663 H 0.34057 0.95329 0.18234 0.0
C5664 C 0.42059 0.93995 0.20252 0.0
C5665 C 0.43774 0.95071 0.21019 0.0
C5666 C 0.43506 0.96909 0.221 0.0
C5667 C 0.41548 0.97727 0.22341 0.0
C5668 C 0.39881 0.9665 0.21541 0.0
C5669 C 0.40106 0.94811 0.20537 0.0
C5670 C 0.38092 0.94098 0.19611 0.0
C5671 C 0.38294 0.93765 0.17295 0.0
C5672 C 0.37299 0.92168 0.20691 0.0
C5673 C 0.36746 0.95907 0.20096 0.0
C5674 C 0.378 0.97323 0.21273 0.0
C5675 C 0.36999 0.99229 0.21712 0.0
C5676 C 0.35111 0.99736 0.20867 0.0
C5677 C 0.34025 0.98341 0.19608 0.0
C5678 C 0.34815 0.96375 0.19273 0.0
H5679 H 0.32818 0.19196 0.45911 0.0
H5680 H 0.39334 0.18008 0.46342 0.0
H5681 H 0.38645 0.14303 0.46255 0.0
H5682 H 0.30998 0.14739 0.48856 0.0
H5683 H 0.28853 0.14349 0.47158 0.0
H5684 H 0.29857 0.16884 0.47557 0.0
H5685 H 0.30319 0.17286 0.43661 0.0
H5686 H 0.2937 0.14741 0.43236 0.0
H5687 H 0.31859 0.15471 0.42303 0.0
H5688 H 0.3726 0.10718 0.45587 0.0
H5689 H 0.35284 0.07679 0.4444 0.0
H5690 H 0.29707 0.1123 0.44685 0.0
C5691 C 0.34102 0.18161 0.46007 0.0
C5692 C 0.36129 0.18906 0.4613 0.0
C5693 C 0.37761 0.17486 0.4627 0.0
C5694 C 0.37388 0.15372 0.46218 0.0
C5695 C 0.35372 0.14694 0.46049 0.0
C5696 C 0.33756 0.16051 0.45966 0.0
C5697 C 0.31748 0.14956 0.45607 0.0
C5698 C 0.30278 0.1525 0.47403 0.0
C5699 C 0.30766 0.15653 0.43582 0.0
C5700 C 0.32485 0.12774 0.45484 0.0
C5701 C 0.34579 0.1264 0.45733 0.0
C5702 C 0.35613 0.10798 0.45439 0.0
C5703 C 0.3448 0.09074 0.44805 0.0
C5704 C 0.32345 0.09219 0.44478 0.0
C5705 C 0.31339 0.11067 0.44928 0.0
H5706 H 0.2155 0.06119 0.7159 0.0
H5707 H 0.23729 0.10827 0.6751 0.0
H5708 H 0.20732 0.12926 0.68332 0.0
H5709 H 0.1719 0.05711 0.70861 0.0
H5710 H 0.15874 0.0575 0.73255 0.0
H5711 H 0.18515 0.05039 0.73164 0.0
H5712 H 0.19487 0.07794 0.7571 0.0
H5713 H 0.16855 0.08544 0.75909 0.0
H5714 H 0.18787 0.10415 0.75286 0.0
H5715 H 0.17094 0.13789 0.68562 0.0
H5716 H 0.13312 0.13753 0.68783 0.0
H5717 H 0.13578 0.08595 0.7291 0.0
C5718 C 0.21492 0.07673 0.71034 0.0
C5719 C 0.22858 0.08337 0.69519 0.0
C5720 C 0.22707 0.10327 0.68709 0.0
C5721 C 0.21007 0.11526 0.69168 0.0
C5722 C 0.19568 0.10752 0.70534 0.0
C5723 C 0.19866 0.0893 0.71574 0.0
C5724 C 0.1798 0.0833 0.72778 0.0
C5725 C 0.17352 0.06077 0.72492 0.0
C5726 C 0.18297 0.08803 0.75054 0.0
C5727 C 0.16463 0.09802 0.71858 0.0
C5728 C 0.17429 0.11269 0.70676 0.0
C5729 C 0.16328 0.12692 0.69535 0.0
C5730 C 0.14191 0.12636 0.69631 0.0
C5731 C 0.13192 0.11133 0.70815 0.0
C5732 C 0.14334 0.09724 0.71965 0.0
H5733 H 0.21626 0.88917 0.98016 0.0
H5734 H 0.15201 0.9014 0.97122 0.0
H5735 H 0.15913 0.93854 0.97123 0.0
H5736 H 0.23117 0.93972 1.00825 0.0
H5737 H 0.25464 0.94051 0.99387 0.0
H5738 H 0.24401 0.91634 1.00174 0.0
H5739 H 0.24453 0.90395 0.96453 0.0
H5740 H 0.25505 0.92778 0.95647 0.0
H5741 H 0.2314 0.91863 0.94528 0.0
H5742 H 0.17414 0.97197 0.96062 0.0
H5743 H 0.19529 0.99759 0.94224 0.0
H5744 H 0.24954 0.96321 0.95772 0.0
C5745 C 0.20366 0.89985 0.97952 0.0
C5746 C 0.1837 0.89278 0.97587 0.0
C5747 C 0.1674 0.90678 0.97436 0.0
C5748 C 0.17135 0.92787 0.97435 0.0
C5749 C 0.1916 0.93451 0.97616 0.0
C5750 C 0.20748 0.92081 0.97927 0.0
C5751 C 0.22806 0.93079 0.97616 0.0
C5752 C 0.24016 0.93193 0.99623 0.0
C5753 C 0.24047 0.91966 0.9596 0.0
C5754 C 0.22132 0.95171 0.96921 0.0
C5755 C 0.20032 0.95394 0.96984 0.0
C5756 C 0.19064 0.97077 0.96083 0.0
C5757 C 0.20269 0.98526 0.95042 0.0
C5758 C 0.224 0.98241 0.94887 0.0
C5759 C 0.23332 0.96597 0.95911 0.0
H5760 H 0.37605 0.42519 0.12967 0.0
H5761 H 0.32445 0.4418 0.09148 0.0
H5762 H 0.32169 0.40601 0.07938 0.0
H5763 H 0.40015 0.39204 0.09689 0.0
H5764 H 0.40756 0.37371 0.11608 0.0
H5765 H 0.40377 0.39993 0.12302 0.0
H5766 H 0.3774 0.38842 0.15034 0.0
H5767 H 0.38101 0.36213 0.14306 0.0
H5768 H 0.35575 0.37303 0.14275 0.0
H5769 H 0.3272 0.3699 0.06878 0.0
H5770 H 0.3418 0.33678 0.0589 0.0
H5771 H 0.38913 0.34328 0.10461 0.0
C5772 C 0.36421 0.42118 0.11876 0.0
C5773 C 0.35071 0.43608 0.11109 0.0
C5774 C 0.33505 0.43046 0.09723 0.0
C5775 C 0.33326 0.41021 0.0905 0.0
C5776 C 0.34689 0.3958 0.0983 0.0
C5777 C 0.36198 0.40099 0.11223 0.0
C5778 C 0.37533 0.38287 0.11746 0.0
C5779 C 0.39803 0.38742 0.11307 0.0
C5780 C 0.37218 0.37623 0.13973 0.0
C5781 C 0.36652 0.36713 0.10301 0.0
C5782 C 0.34967 0.37469 0.09262 0.0
C5783 C 0.33998 0.36362 0.07723 0.0
C5784 C 0.34825 0.34475 0.07178 0.0
C5785 C 0.36608 0.33735 0.08144 0.0
C5786 C 0.3749 0.34828 0.09771 0.0
H5787 H 0.8075 0.15817 0.97174 0.0
H5788 H 0.8262 0.16737 0.90902 0.0
H5789 H 0.85354 0.19101 0.92053 0.0
H5790 H 0.81308 0.20722 0.9892 0.0
H5791 H 0.82425 0.20072 1.01359 0.0
H5792 H 0.80744 0.18288 1.00093 0.0
H5793 H 0.83586 0.15532 1.00293 0.0
H5794 H 0.85223 0.1733 1.016 0.0
H5795 H 0.86092 0.16108 0.99304 0.0
H5796 H 0.8774 0.21441 0.93876 0.0
H5797 H 0.89773 0.23442 0.963 0.0
H5798 H 0.86128 0.21271 1.01307 0.0
C5799 C 0.81755 0.16505 0.96055 0.0
C5800 C 0.81485 0.16143 0.93961 0.0
C5801 C 0.82825 0.17023 0.92518 0.0
C5802 C 0.84371 0.18357 0.93154 0.0
C5803 C 0.84554 0.18747 0.95232 0.0
C5804 C 0.83317 0.17814 0.96665 0.0
C5805 C 0.83818 0.18521 0.98797 0.0
C5806 C 0.81956 0.19456 0.9985 0.0
C5807 C 0.84734 0.16769 1.00073 0.0
C5808 C 0.85406 0.20118 0.98322 0.0
C5809 C 0.85849 0.20184 0.96266 0.0
C5810 C 0.87357 0.21452 0.9548 0.0
C5811 C 0.8846 0.22657 0.96852 0.0
C5812 C 0.87983 0.22667 0.98942 0.0
C5813 C 0.86441 0.21374 0.99688 0.0
H5814 H 0.08963 0.59888 0.25076 0.0
H5815 H 0.07609 0.63649 0.19823 0.0
H5816 H 0.10872 0.62543 0.18243 0.0
H5817 H 0.14392 0.59884 0.25741 0.0
H5818 H 0.14258 0.57211 0.26139 0.0
H5819 H 0.12053 0.58743 0.26675 0.0
H5820 H 0.10416 0.55905 0.24232 0.0
H5821 H 0.12844 0.54893 0.23483 0.0
H5822 H 0.11102 0.55855 0.21572 0.0
H5823 H 0.14544 0.61726 0.1772 0.0
H5824 H 0.17599 0.59644 0.17152 0.0
H5825 H 0.16352 0.56206 0.22678 0.0
C5826 C 0.0929 0.60374 0.23546 0.0
C5827 C 0.08049 0.61798 0.2254 0.0
C5828 C 0.08553 0.62521 0.20582 0.0
C5829 C 0.10416 0.61958 0.19716 0.0
C5830 C 0.11708 0.60714 0.20862 0.0
C5831 C 0.11109 0.59815 0.22665 0.0
C5832 C 0.12617 0.58239 0.23407 0.0
C5833 C 0.1336 0.58553 0.25618 0.0
C5834 C 0.11692 0.56093 0.23149 0.0
C5835 C 0.14287 0.58614 0.21893 0.0
C5836 C 0.13735 0.6005 0.20441 0.0
C5837 C 0.14985 0.60572 0.18821 0.0
C5838 C 0.16739 0.59414 0.18542 0.0
C5839 C 0.17167 0.57757 0.19872 0.0
C5840 C 0.16043 0.57475 0.2166 0.0
H5841 H 0.6964 0.82457 0.45757 0.0
H5842 H 0.70685 0.85131 0.51731 0.0
H5843 H 0.71274 0.88473 0.50153 0.0
H5844 H 0.7364 0.86074 0.43114 0.0
H5845 H 0.72106 0.8609 0.4082 0.0
H5846 H 0.72218 0.83825 0.42384 0.0
H5847 H 0.6831 0.83836 0.42506 0.0
H5848 H 0.68091 0.86215 0.41144 0.0
H5849 H 0.67007 0.8595 0.43653 0.0
H5850 H 0.7067 0.91519 0.48154 0.0
H5851 H 0.70328 0.94221 0.4557 0.0
H5852 H 0.70153 0.8965 0.40781 0.0
C5853 C 0.70122 0.83718 0.46715 0.0
C5854 C 0.70071 0.83568 0.48857 0.0
C5855 C 0.70684 0.85242 0.50081 0.0
C5856 C 0.71014 0.87145 0.49203 0.0
C5857 C 0.70828 0.87303 0.47101 0.0
C5858 C 0.70528 0.85627 0.45852 0.0
C5859 C 0.70334 0.86269 0.43638 0.0
C5860 C 0.72185 0.85522 0.42416 0.0
C5861 C 0.68315 0.85523 0.42677 0.0
C5862 C 0.70364 0.88567 0.43882 0.0
C5863 C 0.70643 0.89114 0.45898 0.0
C5864 C 0.70534 0.91124 0.46556 0.0
C5865 C 0.70295 0.92639 0.45087 0.0
C5866 C 0.70234 0.92131 0.42988 0.0
C5867 C 0.70186 0.90069 0.42378 0.0
H5868 H 0.9871 0.94338 0.20403 0.0
H5869 H 0.96403 0.96017 0.26341 0.0
H5870 H 0.93283 0.97363 0.24772 0.0
H5871 H 0.95518 0.99686 0.18316 0.0
H5872 H 0.9545 0.98602 0.15794 0.0
H5873 H 0.97743 0.98425 0.17329 0.0
H5874 H 0.97731 0.94586 0.16785 0.0
H5875 H 0.95391 0.94697 0.15336 0.0
H5876 H 0.9557 0.93093 0.1754 0.0
H5877 H 0.90195 0.96736 0.22882 0.0
H5878 H 0.87425 0.96018 0.20469 0.0
H5879 H 0.91787 0.95806 0.15496 0.0
C5880 C 0.97606 0.95115 0.21348 0.0
C5881 C 0.97656 0.94908 0.23492 0.0
C5882 C 0.9625 0.95984 0.24702 0.0
C5883 C 0.94515 0.96818 0.23823 0.0
C5884 C 0.94352 0.96764 0.21717 0.0
C5885 C 0.95945 0.96161 0.20472 0.0
C5886 C 0.95293 0.9633 0.18247 0.0
C5887 C 0.96044 0.98382 0.17371 0.0
C5888 C 0.96036 0.94568 0.16901 0.0
C5889 C 0.92989 0.96385 0.1852 0.0
C5890 C 0.92508 0.96769 0.20536 0.0
C5891 C 0.90528 0.96593 0.21273 0.0
C5892 C 0.88973 0.96144 0.19896 0.0
C5893 C 0.8939 0.95919 0.17791 0.0
C5894 C 0.9143 0.96 0.17094 0.0
H5895 H 0.2256 0.62748 0.58174 0.0
H5896 H 0.19449 0.62567 0.63999 0.0
H5897 H 0.1906 0.66315 0.63895 0.0
H5898 H 0.25169 0.67822 0.58942 0.0
H5899 H 0.24797 0.68502 0.56301 0.0
H5900 H 0.25139 0.65863 0.57012 0.0
H5901 H 0.21774 0.64957 0.55172 0.0
H5902 H 0.21334 0.6758 0.54497 0.0
H5903 H 0.19443 0.66179 0.55931 0.0
H5904 H 0.18541 0.70001 0.62907 0.0
H5905 H 0.17799 0.73198 0.61016 0.0
H5906 H 0.21354 0.71004 0.55931 0.0
C5907 C 0.21814 0.635 0.59436 0.0
C5908 C 0.21027 0.62361 0.61088 0.0
C5909 C 0.20074 0.63406 0.62719 0.0
C5910 C 0.19855 0.65538 0.6268 0.0
C5911 C 0.20627 0.66614 0.61016 0.0
C5912 C 0.21604 0.65628 0.59431 0.0
C5913 C 0.2212 0.67099 0.57726 0.0
C5914 C 0.24445 0.67335 0.57482 0.0
C5915 C 0.21108 0.66417 0.55711 0.0
C5916 C 0.21184 0.6904 0.5855 0.0
C5917 C 0.20368 0.68749 0.6047 0.0
C5918 C 0.1923 0.70269 0.61433 0.0
C5919 C 0.18839 0.72095 0.60366 0.0
C5920 C 0.19579 0.72362 0.58364 0.0
C5921 C 0.20842 0.70858 0.57494 0.0
H5922 H 0.089 0.43406 0.35506 0.0
H5923 H 0.08579 0.46938 0.29956 0.0
H5924 H 0.11805 0.48648 0.30804 0.0
H5925 H 0.12054 0.47511 0.38667 0.0
H5926 H 0.13474 0.45475 0.39861 0.0
H5927 H 0.10809 0.45114 0.39223 0.0
H5928 H 0.11745 0.41913 0.37159 0.0
H5929 H 0.14403 0.42261 0.37748 0.0
H5930 H 0.13578 0.42113 0.35119 0.0
H5931 H 0.15415 0.49207 0.31687 0.0
H5932 H 0.19042 0.48759 0.32712 0.0
H5933 H 0.17159 0.44787 0.37647 0.0
C5934 C 0.09443 0.44653 0.34564 0.0
C5935 C 0.0846 0.45107 0.32707 0.0
C5936 C 0.09263 0.46645 0.31425 0.0
C5937 C 0.11112 0.47613 0.31891 0.0
C5938 C 0.12136 0.47034 0.33662 0.0
C5939 C 0.11307 0.45628 0.35014 0.0
C5940 C 0.12871 0.45009 0.36607 0.0
C5941 C 0.12267 0.45827 0.38715 0.0
C5942 C 0.13168 0.42687 0.36658 0.0
C5943 C 0.14751 0.46091 0.35802 0.0
C5944 C 0.1428 0.47314 0.34148 0.0
C5945 C 0.15797 0.48295 0.33011 0.0
C5946 C 0.17847 0.48011 0.33579 0.0
C5947 C 0.18349 0.46716 0.35226 0.0
C5948 C 0.16789 0.45777 0.36372 0.0
H5949 H 0.46456 0.65088 0.84384 0.0
H5950 H 0.48164 0.59624 0.8116 0.0
H5951 H 0.45429 0.57709 0.8291 0.0
H5952 H 0.44274 0.62107 0.89322 0.0
H5953 H 0.42487 0.64185 0.89536 0.0
H5954 H 0.45061 0.64648 0.8866 0.0
H5955 H 0.43335 0.66441 0.85499 0.0
H5956 H 0.40822 0.65702 0.86298 0.0
H5957 H 0.41736 0.64925 0.83829 0.0
H5958 H 0.41943 0.5671 0.84208 0.0
H5959 H 0.38292 0.56625 0.85203 0.0
H5960 H 0.38827 0.62798 0.87518 0.0
C5961 C 0.46357 0.63454 0.84181 0.0
C5962 C 0.47551 0.62487 0.82689 0.0
C5963 C 0.47317 0.60369 0.82359 0.0
C5964 C 0.45743 0.59276 0.83332 0.0
C5965 C 0.44461 0.60322 0.84667 0.0
C5966 C 0.44807 0.62351 0.85157 0.0
C5967 C 0.43062 0.63213 0.86395 0.0
C5968 C 0.43758 0.63561 0.8861 0.0
C5969 C 0.42189 0.65184 0.85445 0.0
C5970 C 0.41557 0.61457 0.86278 0.0
C5971 C 0.42422 0.59767 0.85363 0.0
C5972 C 0.41273 0.58007 0.84972 0.0
C5973 C 0.39198 0.57976 0.85528 0.0
C5974 C 0.38279 0.59715 0.86414 0.0
C5975 C 0.3949 0.61458 0.86823 0.0
H5976 H 0.93776 0.69717 0.64199 0.0
H5977 H 0.90349 0.73946 0.67901 0.0
H5978 H 0.92611 0.73168 0.70876 0.0
H5979 H 0.93891 0.66139 0.6721 0.0
H5980 H 0.96432 0.65069 0.67198 0.0
H5981 H 0.95426 0.66342 0.64982 0.0
H5982 H 0.97978 0.6914 0.64634 0.0
H5983 H 0.99488 0.67833 0.66531 0.0
H5984 H 0.989 0.70505 0.66837 0.0
H5985 H 0.95509 0.71891 0.73412 0.0
H5986 H 0.98091 0.69809 0.75295 0.0
H5987 H 0.98621 0.65879 0.70013 0.0
C5988 C 0.93535 0.70509 0.65628 0.0
C5989 C 0.91911 0.71876 0.65852 0.0
C5990 C 0.91597 0.72878 0.67732 0.0
C5991 C 0.92885 0.72466 0.6941 0.0
C5992 C 0.94455 0.7105 0.69157 0.0
C5993 C 0.9477 0.70091 0.673 0.0
C5994 C 0.9633 0.68422 0.67453 0.0
C5995 C 0.95474 0.66368 0.66676 0.0
C5996 C 0.9829 0.69011 0.66298 0.0
C5997 C 0.96695 0.68451 0.69722 0.0
C5998 C 0.95752 0.70069 0.70669 0.0
C5999 C 0.96182 0.70563 0.72706 0.0
C6000 C 0.97606 0.69349 0.73785 0.0
C6001 C 0.98422 0.67581 0.72868 0.0
C6002 C 0.97945 0.67153 0.70812 0.0
H6003 H 0.10617 0.24374 0.46738 0.0
H6004 H 0.15718 0.20659 0.48637 0.0
H6005 H 0.1431 0.17743 0.46931 0.0
H6006 H 0.06723 0.19909 0.45947 0.0
H6007 H 0.05769 0.21079 0.43642 0.0
H6008 H 0.06655 0.22653 0.45726 0.0
H6009 H 0.09139 0.24487 0.43261 0.0
H6010 H 0.08311 0.22888 0.41187 0.0
H6011 H 0.10984 0.23009 0.41868 0.0
H6012 H 0.13419 0.15838 0.44015 0.0
H6013 H 0.12352 0.14486 0.40799 0.0
H6014 H 0.07576 0.19122 0.40402 0.0
C6015 C 0.1137 0.22908 0.46865 0.0
C6016 C 0.13178 0.227 0.48045 0.0
C6017 C 0.1422 0.20823 0.48022 0.0
C6018 C 0.13469 0.19159 0.46942 0.0
C6019 C 0.11766 0.19439 0.45716 0.0
C6020 C 0.10693 0.21248 0.45677 0.0
C6021 C 0.09097 0.21211 0.4398 0.0
C6022 C 0.06932 0.21213 0.44877 0.0
C6023 C 0.09403 0.23004 0.42486 0.0
C6024 C 0.09579 0.19168 0.42986 0.0
C6025 C 0.11121 0.1819 0.44034 0.0
C6026 C 0.12103 0.16494 0.43256 0.0
C6027 C 0.11441 0.1571 0.41399 0.0
C6028 C 0.09732 0.16547 0.40337 0.0
C6029 C 0.08814 0.18339 0.41158 0.0
H6030 H 0.60882 0.37852 0.23657 0.0
H6031 H 0.55487 0.34729 0.21449 0.0
H6032 H 0.57537 0.32726 0.19086 0.0
H6033 H 0.62691 0.38788 0.18844 0.0
H6034 H 0.65363 0.38582 0.19471 0.0
H6035 H 0.63587 0.39246 0.21434 0.0
H6036 H 0.64939 0.36157 0.23536 0.0
H6037 H 0.66621 0.35462 0.21479 0.0
H6038 H 0.64802 0.33632 0.22449 0.0
H6039 H 0.60041 0.31293 0.16785 0.0
H6040 H 0.62554 0.31128 0.14078 0.0
H6041 H 0.66111 0.35918 0.17075 0.0
C6042 C 0.6017 0.3667 0.22738 0.0
C6043 C 0.58047 0.36302 0.22839 0.0
C6044 C 0.5712 0.34886 0.21508 0.0
C6045 C 0.5828 0.33757 0.20149 0.0
C6046 C 0.60368 0.34135 0.20071 0.0
C6047 C 0.61307 0.35601 0.2128 0.0
C6048 C 0.63461 0.36035 0.20539 0.0
C6049 C 0.6379 0.38303 0.20045 0.0
C6050 C 0.6505 0.35276 0.22094 0.0
C6051 C 0.63487 0.34743 0.18628 0.0
C6052 C 0.61749 0.33555 0.18482 0.0
C6053 C 0.61396 0.32248 0.16857 0.0
C6054 C 0.62818 0.32222 0.15283 0.0
C6055 C 0.64497 0.33618 0.15257 0.0
C6056 C 0.6486 0.34838 0.17003 0.0
H6057 H 0.41316 0.83651 0.96121 0.0
H6058 H 0.45799 0.80938 1.0015 0.0
H6059 H 0.48571 0.82337 0.98116 0.0
H6060 H 0.4385 0.83543 0.91379 0.0
H6061 H 0.43087 0.86104 0.90721 0.0
H6062 H 0.41583 0.84601 0.92464 0.0
H6063 H 0.42159 0.87731 0.9524 0.0
H6064 H 0.43538 0.88986 0.93212 0.0
H6065 H 0.44734 0.88559 0.95661 0.0
H6066 H 0.50753 0.83342 0.95216 0.0
H6067 H 0.52478 0.85156 0.92432 0.0
H6068 H 0.46734 0.88078 0.90779 0.0
C6069 C 0.42883 0.83395 0.96595 0.0
C6070 C 0.43349 0.82061 0.98224 0.0
C6071 C 0.45402 0.81821 0.98843 0.0
C6072 C 0.46996 0.82636 0.97701 0.0
C6073 C 0.46495 0.8381 0.96016 0.0
C6074 C 0.44503 0.84316 0.95541 0.0
C6075 C 0.44435 0.85807 0.93774 0.0
C6076 C 0.43161 0.84968 0.91981 0.0
C6077 C 0.43669 0.87896 0.94507 0.0
C6078 C 0.46682 0.85913 0.93243 0.0
C6079 C 0.47829 0.84713 0.9454 0.0
C6080 C 0.49901 0.84383 0.94253 0.0
C6081 C 0.50863 0.85425 0.92669 0.0
C6082 C 0.49768 0.86837 0.91444 0.0
C6083 C 0.47631 0.87036 0.917 0.0
H6084 H 0.93201 0.37876 0.9149 0.0
H6085 H 0.96441 0.32194 0.92443 0.0
H6086 H 0.97423 0.32166 0.88801 0.0
H6087 H 0.9161 0.37024 0.86194 0.0
H6088 H 0.92198 0.39527 0.85277 0.0
H6089 H 0.91309 0.39186 0.87861 0.0
H6090 H 0.94309 0.40866 0.89504 0.0
H6091 H 0.95649 0.41405 0.87188 0.0
H6092 H 0.9687 0.39927 0.89108 0.0
H6093 H 0.984 0.3303 0.85108 0.0
H6094 H 0.99965 0.35009 0.8232 0.0
H6095 H 0.96306 0.40235 0.83909 0.0
C6096 C 0.94082 0.366 0.90929 0.0
C6097 C 0.9474 0.35043 0.92257 0.0
C6098 C 0.95896 0.33402 0.91452 0.0
C6099 C 0.96447 0.33363 0.89376 0.0
C6100 C 0.95804 0.34958 0.88113 0.0
C6101 C 0.9465 0.36544 0.88878 0.0
C6102 C 0.94497 0.38277 0.87378 0.0
C6103 C 0.92274 0.38527 0.86639 0.0
C6104 C 0.95374 0.40233 0.88352 0.0
C6105 C 0.95835 0.37498 0.85679 0.0
C6106 C 0.96493 0.35532 0.86075 0.0
C6107 C 0.97872 0.34561 0.84784 0.0
C6108 C 0.9874 0.35694 0.83176 0.0
C6109 C 0.98261 0.37784 0.82909 0.0
C6110 C 0.96687 0.38639 0.84082 0.0
H6111 H 0.45602 0.16077 0.63637 0.0
H6112 H 0.48567 0.20883 0.67108 0.0
H6113 H 0.48837 0.22974 0.63991 0.0
H6114 H 0.48212 0.17368 0.58432 0.0
H6115 H 0.45856 0.16715 0.57157 0.0
H6116 H 0.46602 0.15361 0.5943 0.0
H6117 H 0.43126 0.16245 0.6101 0.0
H6118 H 0.42386 0.17678 0.58805 0.0
H6119 H 0.42437 0.1889 0.61294 0.0
H6120 H 0.48149 0.24791 0.60765 0.0
H6121 H 0.46009 0.26389 0.58138 0.0
H6122 H 0.43129 0.20577 0.56875 0.0
C6123 C 0.46358 0.17549 0.63725 0.0
C6124 C 0.47061 0.18316 0.65609 0.0
C6125 C 0.48043 0.20248 0.65672 0.0
C6126 C 0.48217 0.21442 0.63902 0.0
C6127 C 0.47433 0.20671 0.62072 0.0
C6128 C 0.46528 0.18761 0.61976 0.0
C6129 C 0.45442 0.18442 0.59961 0.0
C6130 C 0.46599 0.16879 0.58668 0.0
C6131 C 0.43213 0.17777 0.60285 0.0
C6132 C 0.45617 0.20566 0.59052 0.0
C6133 C 0.46916 0.21775 0.60218 0.0
C6134 C 0.47174 0.23847 0.59815 0.0
C6135 C 0.4596 0.24742 0.58298 0.0
C6136 C 0.44442 0.23589 0.57263 0.0
C6137 C 0.44348 0.21461 0.57565 0.0
H6138 H 0.64121 0.68709 0.399 0.0
H6139 H 0.62782 0.75159 0.39191 0.0
H6140 H 0.60596 0.74359 0.36199 0.0
H6141 H 0.64321 0.67505 0.34433 0.0
H6142 H 0.63177 0.65025 0.3483 0.0
H6143 H 0.64738 0.66163 0.368 0.0
H6144 H 0.6174 0.65771 0.39361 0.0
H6145 H 0.60198 0.64626 0.37394 0.0
H6146 H 0.59282 0.66845 0.38729 0.0
H6147 H 0.58512 0.72807 0.33303 0.0
H6148 H 0.56257 0.70614 0.3121 0.0
H6149 H 0.58972 0.65229 0.33899 0.0
C6150 C 0.63415 0.69965 0.39089 0.0
C6151 C 0.63664 0.71999 0.39754 0.0
C6152 C 0.62628 0.73586 0.38702 0.0
C6153 C 0.61403 0.7315 0.36987 0.0
C6154 C 0.61248 0.71126 0.3634 0.0
C6155 C 0.62208 0.69561 0.3738 0.0
C6156 C 0.61685 0.67498 0.36489 0.0
C6157 C 0.63594 0.66489 0.35584 0.0
C6158 C 0.60664 0.66105 0.38088 0.0
C6159 C 0.60207 0.68131 0.34831 0.0
C6160 C 0.60022 0.70233 0.3472 0.0
C6161 C 0.5867 0.71162 0.33358 0.0
C6162 C 0.57407 0.69906 0.32155 0.0
C6163 C 0.57478 0.67759 0.32364 0.0
C6164 C 0.58935 0.66867 0.33671 0.0
H6165 H 0.10497 0.81336 0.08472 0.0
H6166 H 0.13253 0.86783 0.05994 0.0
H6167 H 0.11799 0.88782 0.08886 0.0
H6168 H 0.05909 0.83466 0.10666 0.0
H6169 H 0.06074 0.8181 0.12861 0.0
H6170 H 0.06993 0.80952 0.10442 0.0
H6171 H 0.10564 0.80177 0.11967 0.0
H6172 H 0.09632 0.80968 0.14408 0.0
H6173 H 0.11882 0.8216 0.13377 0.0
H6174 H 0.10016 0.90034 0.12288 0.0
H6175 H 0.08205 0.9035 0.15602 0.0
H6176 H 0.07504 0.83764 0.15831 0.0
C6177 C 0.10686 0.82957 0.08444 0.0
C6178 C 0.11909 0.83909 0.06984 0.0
C6179 C 0.12261 0.86038 0.07085 0.0
C6180 C 0.11463 0.8717 0.0873 0.0
C6181 C 0.10363 0.86116 0.10231 0.0
C6182 C 0.09988 0.84046 0.10077 0.0
C6183 C 0.09011 0.8315 0.11939 0.0
C6184 C 0.06867 0.823 0.11447 0.0
C6185 C 0.10356 0.81519 0.12979 0.0
C6186 C 0.08891 0.85034 0.13195 0.0
C6187 C 0.09616 0.86754 0.12202 0.0
C6188 C 0.0946 0.88688 0.13073 0.0
C6189 C 0.08449 0.8885 0.14957 0.0
C6190 C 0.07673 0.87075 0.15933 0.0
C6191 C 0.08014 0.85154 0.15087 0.0
H6192 H 0.73829 0.97532 0.70347 0.0
H6193 H 0.70405 1.0063 0.65624 0.0
H6194 H 0.67512 0.98384 0.66095 0.0
H6195 H 0.7152 0.92328 0.69671 0.0
H6196 H 0.71151 0.91832 0.72353 0.0
H6197 H 0.73244 0.93415 0.71538 0.0
H6198 H 0.72138 0.96389 0.7377 0.0
H6199 H 0.70061 0.94848 0.74721 0.0
H6200 H 0.69547 0.97308 0.73596 0.0
H6201 H 0.64862 0.96237 0.6723 0.0
H6202 H 0.62466 0.93936 0.68994 0.0
H6203 H 0.67253 0.92202 0.73256 0.0
C6204 C 0.72505 0.97648 0.69355 0.0
C6205 C 0.72399 0.99157 0.67811 0.0
C6206 C 0.70576 0.99385 0.66675 0.0
C6207 C 0.68902 0.98134 0.66962 0.0
C6208 C 0.6902 0.96689 0.68484 0.0
C6209 C 0.70751 0.96422 0.69683 0.0
C6210 C 0.70289 0.94911 0.7139 0.0
C6211 C 0.7163 0.93004 0.71223 0.0
C6212 C 0.70523 0.95925 0.73494 0.0
C6213 C 0.68063 0.94405 0.70928 0.0
C6214 C 0.67381 0.95468 0.69243 0.0
C6215 C 0.65376 0.95359 0.68534 0.0
C6216 C 0.64029 0.94064 0.69542 0.0
C6217 C 0.64705 0.92902 0.71224 0.0
C6218 C 0.66732 0.93079 0.71953 0.0
H6219 H 0.86838 0.88357 0.43963 0.0
H6220 H 0.84332 0.88266 0.50056 0.0
H6221 H 0.837 0.92007 0.49836 0.0
H6222 H 0.89292 0.93262 0.44228 0.0
H6223 H 0.88556 0.94261 0.41799 0.0
H6224 H 0.89018 0.91552 0.42091 0.0
H6225 H 0.8557 0.90323 0.40967 0.0
H6226 H 0.84674 0.92857 0.40353 0.0
H6227 H 0.83273 0.91307 0.42097 0.0
H6228 H 0.82717 0.95584 0.48584 0.0
H6229 H 0.81412 0.9839 0.46461 0.0
H6230 H 0.84926 0.96244 0.41353 0.0
C6231 C 0.86196 0.89137 0.45267 0.0
C6232 C 0.85603 0.88042 0.47009 0.0
C6233 C 0.84772 0.89095 0.48695 0.0
C6234 C 0.84432 0.91217 0.4859 0.0
C6235 C 0.85 0.92259 0.46816 0.0
C6236 C 0.85893 0.91243 0.45204 0.0
C6237 C 0.86112 0.92603 0.43369 0.0
C6238 C 0.88376 0.92931 0.42832 0.0
C6239 C 0.84843 0.91719 0.41588 0.0
C6240 C 0.85181 0.94546 0.44154 0.0
C6241 C 0.84544 0.94336 0.46152 0.0
C6242 C 0.83291 0.95796 0.47052 0.0
C6243 C 0.82579 0.97422 0.45839 0.0
C6244 C 0.83126 0.97573 0.43757 0.0
C6245 C 0.84556 0.96203 0.42963 0.0
H6246 H 0.85596 0.07062 0.1659 0.0
H6247 H 0.80623 0.0731 0.2093 0.0
H6248 H 0.82644 0.0969 0.23067 0.0
H6249 H 0.89555 0.0683 0.20165 0.0
H6250 H 0.91311 0.08381 0.18715 0.0
H6251 H 0.89382 0.06893 0.17419 0.0
H6252 H 0.87929 0.10145 0.15626 0.0
H6253 H 0.89973 0.1157 0.16812 0.0
H6254 H 0.87362 0.12353 0.17168 0.0
H6255 H 0.85334 0.11933 0.24784 0.0
H6256 H 0.88226 0.14238 0.25662 0.0
H6257 H 0.91485 0.12219 0.20308 0.0
C6258 C 0.84911 0.07651 0.17971 0.0
C6259 C 0.82949 0.07019 0.1859 0.0
C6260 C 0.82105 0.07806 0.20404 0.0
C6261 C 0.83259 0.09133 0.21645 0.0
C6262 C 0.85248 0.09625 0.21043 0.0
C6263 C 0.86047 0.08933 0.19228 0.0
C6264 C 0.88223 0.09642 0.18919 0.0
C6265 C 0.89704 0.07827 0.18798 0.0
C6266 C 0.88381 0.11008 0.17017 0.0
C6267 C 0.8854 0.10849 0.20851 0.0
C6268 C 0.86811 0.1082 0.22064 0.0
C6269 C 0.867 0.11951 0.23858 0.0
C6270 C 0.88351 0.13233 0.24358 0.0
C6271 C 0.9008 0.13348 0.23074 0.0
C6272 C 0.90207 0.12089 0.21347 0.0
H6273 H 0.68373 0.16359 0.97489 0.0
H6274 H 0.67119 0.17893 0.91134 0.0
H6275 H 0.68481 0.14609 0.9009 0.0
H6276 H 0.73227 0.14206 0.96554 0.0
H6277 H 0.73068 0.12128 0.98345 0.0
H6278 H 0.7168 0.14452 0.98795 0.0
H6279 H 0.683 0.1248 0.99073 0.0
H6280 H 0.69647 0.10117 0.98677 0.0
H6281 H 0.67518 0.10778 0.97052 0.0
H6282 H 0.69981 0.11352 0.89626 0.0
H6283 H 0.72243 0.08492 0.89657 0.0
H6284 H 0.72996 0.08867 0.96178 0.0
C6285 C 0.68378 0.1601 0.95877 0.0
C6286 C 0.67546 0.17387 0.94405 0.0
C6287 C 0.67626 0.16851 0.92313 0.0
C6288 C 0.68419 0.14984 0.91695 0.0
C6289 C 0.69177 0.13664 0.93173 0.0
C6290 C 0.69223 0.14152 0.95216 0.0
C6291 C 0.70335 0.12493 0.96431 0.0
C6292 C 0.72188 0.13372 0.97597 0.0
C6293 C 0.68861 0.11403 0.97895 0.0
C6294 C 0.70979 0.11064 0.94718 0.0
C6295 C 0.702 0.11754 0.92881 0.0
C6296 C 0.70564 0.10769 0.91061 0.0
C6297 C 0.71826 0.09076 0.91091 0.0
C6298 C 0.72729 0.08335 0.92902 0.0
C6299 C 0.72278 0.09342 0.94764 0.0
H6300 H 0.61821 0.06961 0.85217 0.0
H6301 H 0.62988 0.13314 0.83685 0.0
H6302 H 0.66697 0.12661 0.83751 0.0
H6303 H 0.6587 0.06662 0.8883 0.0
H6304 H 0.66431 0.04033 0.88266 0.0
H6305 H 0.63882 0.04989 0.87889 0.0
H6306 H 0.63983 0.03786 0.84111 0.0
H6307 H 0.66543 0.0285 0.84489 0.0
H6308 H 0.66021 0.04663 0.82481 0.0
H6309 H 0.7034 0.11364 0.8434 0.0
H6310 H 0.73455 0.09577 0.85556 0.0
H6311 H 0.69833 0.04096 0.86547 0.0
C6312 C 0.62848 0.08217 0.84886 0.0
C6313 C 0.62094 0.10181 0.84426 0.0
C6314 C 0.63511 0.11778 0.83998 0.0
C6315 C 0.6563 0.11427 0.8404 0.0
C6316 C 0.66316 0.09472 0.8451 0.0
C6317 C 0.64961 0.07898 0.8493 0.0
C6318 C 0.66072 0.05979 0.85556 0.0
C6319 C 0.65532 0.05382 0.87765 0.0
C6320 C 0.65628 0.04216 0.84069 0.0
C6321 C 0.68262 0.06707 0.85398 0.0
C6322 C 0.68388 0.08727 0.84807 0.0
C6323 C 0.70261 0.09769 0.84768 0.0
C6324 C 0.72029 0.08737 0.85438 0.0
C6325 C 0.71894 0.06695 0.86146 0.0
C6326 C 0.70002 0.05652 0.86007 0.0
H6327 H 0.7465 0.95903 0.60971 0.0
H6328 H 0.69908 1.00249 0.62373 0.0
H6329 H 0.67273 0.97695 0.61483 0.0
H6330 H 0.71654 0.93589 0.56498 0.0
H6331 H 0.72757 0.91118 0.56999 0.0
H6332 H 0.74222 0.93406 0.57493 0.0
H6333 H 0.74797 0.9222 0.61215 0.0
H6334 H 0.73339 0.89949 0.6073 0.0
H6335 H 0.72594 0.91617 0.62776 0.0
H6336 H 0.65257 0.9435 0.61302 0.0
H6337 H 0.63987 0.90787 0.6101 0.0
H6338 H 0.7008 0.88824 0.59343 0.0
C6339 C 0.73057 0.9633 0.61054 0.0
C6340 C 0.72474 0.98203 0.61924 0.0
C6341 C 0.70389 0.98769 0.61865 0.0
C6342 C 0.68879 0.97333 0.6133 0.0
C6343 C 0.69505 0.95407 0.6069 0.0
C6344 C 0.7155 0.9495 0.60436 0.0
C6345 C 0.71839 0.92775 0.59741 0.0
C6346 C 0.72665 0.92719 0.57552 0.0
C6347 C 0.73226 0.91571 0.61206 0.0
C6348 C 0.69658 0.92023 0.59835 0.0
C6349 C 0.68321 0.9356 0.60367 0.0
C6350 C 0.66273 0.9315 0.60807 0.0
C6351 C 0.65572 0.91123 0.60667 0.0
C6352 C 0.66926 0.8954 0.60113 0.0
C6353 C 0.68987 0.90012 0.59688 0.0
H6354 H 0.83927 0.94596 0.37281 0.0
H6355 H 0.84125 1.00708 0.34754 0.0
H6356 H 0.87196 0.99934 0.32938 0.0
H6357 H 0.88116 0.93763 0.38477 0.0
H6358 H 0.89102 0.91394 0.37487 0.0
H6359 H 0.86409 0.9171 0.37694 0.0
H6360 H 0.85485 0.9121 0.3406 0.0
H6361 H 0.88116 0.90495 0.33662 0.0
H6362 H 0.86956 0.92438 0.32092 0.0
H6363 H 0.90744 0.9912 0.32595 0.0
H6364 H 0.94289 0.97964 0.33208 0.0
H6365 H 0.92002 0.92251 0.35626 0.0
C6366 C 0.8454 0.95709 0.36228 0.0
C6367 C 0.8374 0.97713 0.36167 0.0
C6368 C 0.84646 0.99157 0.34832 0.0
C6369 C 0.86421 0.9873 0.33766 0.0
C6370 C 0.87278 0.96818 0.33988 0.0
C6371 C 0.86317 0.95274 0.35079 0.0
C6372 C 0.87725 0.93431 0.35206 0.0
C6373 C 0.87851 0.92528 0.37355 0.0
C6374 C 0.87031 0.91798 0.33663 0.0
C6375 C 0.89731 0.94391 0.34532 0.0
C6376 C 0.89402 0.96295 0.33689 0.0
C6377 C 0.9102 0.97598 0.33179 0.0
C6378 C 0.93024 0.96951 0.33561 0.0
C6379 C 0.93385 0.95042 0.34484 0.0
C6380 C 0.91731 0.93722 0.34921 0.0
H6381 H 0.8735 0.16328 0.08954 0.0
H6382 H 0.88195 0.13059 0.03254 0.0
H6383 H 0.86434 0.10063 0.04723 0.0
H6384 H 0.88025 0.12588 0.12432 0.0
H6385 H 0.85917 0.13337 0.14033 0.0
H6386 H 0.87166 0.15203 0.12464 0.0
H6387 H 0.83626 0.16084 0.10898 0.0
H6388 H 0.82419 0.14134 0.12411 0.0
H6389 H 0.82122 0.14103 0.0969 0.0
H6390 H 0.85151 0.0727 0.0704 0.0
H6391 H 0.83598 0.05128 0.09727 0.0
H6392 H 0.83349 0.10388 0.13736 0.0
C6393 C 0.87114 0.1502 0.07974 0.0
C6394 C 0.8797 0.14914 0.06008 0.0
C6395 C 0.8762 0.13151 0.04796 0.0
C6396 C 0.86613 0.11446 0.05609 0.0
C6397 C 0.85909 0.11566 0.07602 0.0
C6398 C 0.86072 0.13335 0.08733 0.0
C6399 C 0.85128 0.13101 0.10808 0.0
C6400 C 0.86657 0.13584 0.12533 0.0
C6401 C 0.8321 0.14437 0.10958 0.0
C6402 C 0.84582 0.10864 0.10746 0.0
C6403 C 0.85027 0.10005 0.08876 0.0
C6404 C 0.84753 0.07932 0.08496 0.0
C6405 C 0.8391 0.06722 0.10042 0.0
C6406 C 0.83327 0.07612 0.11916 0.0
C6407 C 0.8373 0.09689 0.12292 0.0
H6408 H 0.69458 0.7164 0.95145 0.0
H6409 H 0.70673 0.7075 1.01583 0.0
H6410 H 0.72678 0.67766 1.00881 0.0
H6411 H 0.68586 0.66775 0.93597 0.0
H6412 H 0.70032 0.66947 0.91292 0.0
H6413 H 0.69104 0.69251 0.9242 0.0
H6414 H 0.72994 0.70385 0.92252 0.0
H6415 H 0.73752 0.67875 0.9142 0.0
H6416 H 0.74858 0.6896 0.93697 0.0
H6417 H 0.73363 0.644 0.99817 0.0
H6418 H 0.7291 0.60984 0.98311 0.0
H6419 H 0.71534 0.63735 0.92465 0.0
C6420 C 0.70249 0.7087 0.96377 0.0
C6421 C 0.69959 0.71492 0.98424 0.0
C6422 C 0.70943 0.70394 1.00007 0.0
C6423 C 0.72086 0.68661 0.99622 0.0
C6424 C 0.7226 0.68007 0.97626 0.0
C6425 C 0.71422 0.69093 0.96008 0.0
C6426 C 0.71692 0.67881 0.94046 0.0
C6427 C 0.69728 0.67715 0.92769 0.0
C6428 C 0.73428 0.6883 0.92779 0.0
C6429 C 0.72328 0.65815 0.9491 0.0
C6430 C 0.72791 0.65975 0.96963 0.0
C6431 C 0.73079 0.64256 0.98196 0.0
C6432 C 0.72791 0.62321 0.97343 0.0
C6433 C 0.72197 0.62123 0.95287 0.0
C6434 C 0.72037 0.63876 0.94035 0.0
H6435 H 0.21002 0.90941 0.12304 0.0
H6436 H 0.26351 0.87241 0.13537 0.0
H6437 H 0.25174 0.84711 0.10993 0.0
H6438 H 0.17532 0.86912 0.11911 0.0
H6439 H 0.16021 0.87962 0.0986 0.0
H6440 H 0.17378 0.89642 0.11572 0.0
H6441 H 0.19242 0.91339 0.08515 0.0
H6442 H 0.17849 0.8969 0.06798 0.0
H6443 H 0.20605 0.89759 0.06733 0.0
H6444 H 0.2326 0.82431 0.08705 0.0
H6445 H 0.20955 0.80703 0.06356 0.0
H6446 H 0.16805 0.85841 0.06501 0.0
C6447 C 0.21953 0.89634 0.11973 0.0
C6448 C 0.23769 0.89272 0.13082 0.0
C6449 C 0.24964 0.8753 0.12673 0.0
C6450 C 0.24304 0.86088 0.11247 0.0
C6451 C 0.22452 0.86428 0.10251 0.0
C6452 C 0.21309 0.88173 0.10555 0.0
C6453 C 0.19327 0.88099 0.09345 0.0
C6454 C 0.17455 0.88157 0.10758 0.0
C6455 C 0.19253 0.89824 0.07753 0.0
C6456 C 0.19533 0.86033 0.08343 0.0
C6457 C 0.21338 0.85097 0.08904 0.0
C6458 C 0.2185 0.83158 0.08234 0.0
C6459 C 0.20504 0.82169 0.06904 0.0
C6460 C 0.18672 0.83113 0.06254 0.0
C6461 C 0.18183 0.85072 0.0699 0.0
H6462 H 0.90372 0.47777 0.88151 0.0
H6463 H 0.90468 0.53297 0.84493 0.0
H6464 H 0.93265 0.51853 0.82402 0.0
H6465 H 0.95281 0.47317 0.88737 0.0
H6466 H 0.95645 0.44624 0.88484 0.0
H6467 H 0.93242 0.45578 0.89393 0.0
H6468 H 0.91219 0.43788 0.86743 0.0
H6469 H 0.93291 0.42772 0.85249 0.0
H6470 H 0.91487 0.44422 0.84082 0.0
H6471 H 0.95995 0.49732 0.80767 0.0
H6472 H 0.98543 0.47223 0.79778 0.0
H6473 H 0.97207 0.43561 0.85075 0.0
C6474 C 0.90934 0.48654 0.86865 0.0
C6475 C 0.90206 0.50621 0.8644 0.0
C6476 C 0.91008 0.51768 0.848 0.0
C6477 C 0.92589 0.50964 0.83619 0.0
C6478 C 0.93341 0.49046 0.84148 0.0
C6479 C 0.92534 0.47911 0.85726 0.0
C6480 C 0.93699 0.45974 0.86099 0.0
C6481 C 0.9451 0.45862 0.88306 0.0
C6482 C 0.92344 0.44132 0.85523 0.0
C6483 C 0.954 0.46263 0.84592 0.0
C6484 C 0.95107 0.47993 0.83416 0.0
C6485 C 0.96307 0.48431 0.81738 0.0
C6486 C 0.97817 0.47031 0.81229 0.0
C6487 C 0.98217 0.4531 0.82479 0.0
C6488 C 0.97005 0.44935 0.84189 0.0
H6489 H 0.342 0.2277 0.57147 0.0
H6490 H 0.40316 0.21502 0.59307 0.0
H6491 H 0.39134 0.18101 0.60528 0.0
H6492 H 0.31498 0.20307 0.60886 0.0
H6493 H 0.2954 0.19229 0.59262 0.0
H6494 H 0.3083 0.21537 0.58509 0.0
H6495 H 0.32194 0.19776 0.55012 0.0
H6496 H 0.30475 0.17774 0.55826 0.0
H6497 H 0.33088 0.17204 0.55242 0.0
H6498 H 0.37574 0.14875 0.61179 0.0
H6499 H 0.3517 0.1239 0.62584 0.0
H6500 H 0.30113 0.15553 0.59648 0.0
C6501 C 0.35302 0.21746 0.57805 0.0
C6502 C 0.37353 0.2232 0.58046 0.0
C6503 C 0.38738 0.21043 0.59089 0.0
C6504 C 0.3812 0.19106 0.59712 0.0
C6505 C 0.36162 0.18476 0.59201 0.0
C6506 C 0.34746 0.19766 0.58326 0.0
C6507 C 0.32669 0.18769 0.58162 0.0
C6508 C 0.31039 0.20035 0.59273 0.0
C6509 C 0.32069 0.18363 0.55929 0.0
C6510 C 0.33125 0.16783 0.59225 0.0
C6511 C 0.35175 0.16607 0.59708 0.0
C6512 C 0.35965 0.14972 0.60796 0.0
C6513 C 0.34586 0.13554 0.61562 0.0
C6514 C 0.32459 0.13807 0.61227 0.0
C6515 C 0.31734 0.15351 0.59928 0.0
H6516 H 0.09416 0.10198 0.80549 0.0
H6517 H 0.05453 0.10839 0.85778 0.0
H6518 H 0.07982 0.08985 0.87899 0.0
H6519 H 0.11958 0.0518 0.82027 0.0
H6520 H 0.14363 0.06118 0.81058 0.0
H6521 H 0.11996 0.0688 0.79861 0.0
H6522 H 0.12993 0.1068 0.80348 0.0
H6523 H 0.15341 0.09948 0.81547 0.0
H6524 H 0.13598 0.11602 0.82871 0.0
H6525 H 0.11293 0.07995 0.89573 0.0
H6526 H 0.1495 0.07987 0.90586 0.0
H6527 H 0.167 0.07943 0.84242 0.0
C6528 C 0.09041 0.09886 0.82126 0.0
C6529 C 0.07269 0.10706 0.83019 0.0
C6530 C 0.06815 0.10244 0.85072 0.0
C6531 C 0.08241 0.0918 0.86281 0.0
C6532 C 0.10065 0.08537 0.85384 0.0
C6533 C 0.10441 0.08844 0.83332 0.0
C6534 C 0.12628 0.08378 0.82779 0.0
C6535 C 0.12742 0.06527 0.81347 0.0
C6536 C 0.137 0.10263 0.81835 0.0
C6537 C 0.13474 0.0788 0.84863 0.0
C6538 C 0.11972 0.07929 0.86347 0.0
C6539 C 0.12466 0.07872 0.88422 0.0
C6540 C 0.14541 0.07861 0.88987 0.0
C6541 C 0.16073 0.07926 0.87477 0.0
C6542 C 0.15534 0.07827 0.85406 0.0
H6543 H 0.85267 0.4064 0.41871 0.0
H6544 H 0.83606 0.4378 0.47425 0.0
H6545 H 0.83127 0.40476 0.49161 0.0
H6546 H 0.81578 0.35809 0.43349 0.0
H6547 H 0.83294 0.34111 0.42051 0.0
H6548 H 0.82812 0.36628 0.41036 0.0
H6549 H 0.86625 0.37335 0.40998 0.0
H6550 H 0.87148 0.34868 0.42062 0.0
H6551 H 0.88063 0.37165 0.43319 0.0
H6552 H 0.83319 0.3705 0.50419 0.0
H6553 H 0.84911 0.33869 0.5142 0.0
H6554 H 0.86872 0.3282 0.45195 0.0
C6555 C 0.84763 0.40606 0.43441 0.0
C6556 C 0.84504 0.4244 0.44541 0.0
C6557 C 0.8383 0.42379 0.46579 0.0
C6558 C 0.83511 0.40512 0.47559 0.0
C6559 C 0.83804 0.38721 0.46454 0.0
C6560 C 0.84381 0.38738 0.4443 0.0
C6561 C 0.84837 0.36578 0.4371 0.0
C6562 C 0.83022 0.35733 0.42464 0.0
C6563 C 0.86793 0.36476 0.42452 0.0
C6564 C 0.84963 0.35477 0.45755 0.0
C6565 C 0.84098 0.3669 0.47249 0.0
C6566 C 0.83987 0.36082 0.49266 0.0
C6567 C 0.84913 0.34262 0.49819 0.0
C6568 C 0.86044 0.33103 0.48395 0.0
C6569 C 0.85995 0.33661 0.46307 0.0
H6570 H 0.95639 0.6408 0.73638 0.0
H6571 H 0.98948 0.58498 0.72462 0.0
H6572 H 0.95872 0.57136 0.7062 0.0
H6573 H 0.91179 0.61369 0.75217 0.0
H6574 H 0.8947 0.63354 0.74374 0.0
H6575 H 0.92006 0.64001 0.75242 0.0
H6576 H 0.92922 0.65794 0.71695 0.0
H6577 H 0.90256 0.65355 0.71138 0.0
H6578 H 0.92155 0.64427 0.69419 0.0
H6579 H 0.92346 0.56589 0.68823 0.0
H6580 H 0.88784 0.56691 0.67561 0.0
H6581 H 0.87786 0.62331 0.7088 0.0
C6582 C 0.95719 0.6255 0.7305 0.0
C6583 C 0.9749 0.61362 0.73256 0.0
C6584 C 0.97583 0.5942 0.72329 0.0
C6585 C 0.95845 0.5864 0.71302 0.0
C6586 C 0.94061 0.5982 0.71283 0.0
C6587 C 0.93998 0.61724 0.7217 0.0
C6588 C 0.9189 0.62632 0.72193 0.0
C6589 C 0.91091 0.62849 0.74387 0.0
C6590 C 0.9181 0.64679 0.71048 0.0
C6591 C 0.90764 0.60997 0.71054 0.0
C6592 C 0.92028 0.59393 0.70516 0.0
C6593 C 0.91337 0.5781 0.69281 0.0
C6594 C 0.8931 0.57885 0.6858 0.0
C6595 C 0.87997 0.59517 0.69151 0.0
C6596 C 0.88743 0.61071 0.70415 0.0
H6597 H 0.6429 0.45203 0.17417 0.0
H6598 H 0.6698 0.48729 0.22322 0.0
H6599 H 0.63665 0.48745 0.24108 0.0
H6600 H 0.58661 0.47444 0.18101 0.0
H6601 H 0.57721 0.44967 0.1734 0.0
H6602 H 0.60031 0.45963 0.16239 0.0
H6603 H 0.61854 0.42581 0.17412 0.0
H6604 H 0.59509 0.4172 0.18525 0.0
H6605 H 0.61769 0.41956 0.20096 0.0
H6606 H 0.60549 0.47573 0.25739 0.0
H6607 H 0.58092 0.45124 0.27171 0.0
H6608 H 0.57337 0.42314 0.21266 0.0
C6609 C 0.64142 0.46036 0.18833 0.0
C6610 C 0.65864 0.46955 0.19748 0.0
C6611 C 0.65658 0.48027 0.21602 0.0
C6612 C 0.63777 0.48062 0.22611 0.0
C6613 C 0.62107 0.47069 0.21711 0.0
C6614 C 0.62264 0.46105 0.19842 0.0
C6615 C 0.60371 0.44855 0.1937 0.0
C6616 C 0.59121 0.45872 0.17663 0.0
C6617 C 0.60909 0.42645 0.18812 0.0
C6618 C 0.59279 0.44987 0.21397 0.0
C6619 C 0.60235 0.46389 0.22675 0.0
C6620 C 0.59736 0.46538 0.24733 0.0
C6621 C 0.58335 0.4514 0.25537 0.0
C6622 C 0.57476 0.43597 0.24295 0.0
C6623 C 0.57885 0.43567 0.22195 0.0
H6624 H 0.62774 0.82269 0.89519 0.0
H6625 H 0.64184 0.88136 0.92291 0.0
H6626 H 0.61969 0.89846 0.89794 0.0
H6627 H 0.62601 0.84067 0.84306 0.0
H6628 H 0.6045 0.82517 0.83527 0.0
H6629 H 0.62143 0.81637 0.8552 0.0
H6630 H 0.59108 0.81235 0.88002 0.0
H6631 H 0.5739 0.82054 0.86008 0.0
H6632 H 0.57425 0.83366 0.88423 0.0
H6633 H 0.59658 0.90936 0.87176 0.0
H6634 H 0.57044 0.91382 0.84578 0.0
H6635 H 0.57033 0.84926 0.83257 0.0
C6636 C 0.62604 0.83911 0.89593 0.0
C6637 C 0.63683 0.85085 0.91064 0.0
C6638 C 0.63416 0.87224 0.9114 0.0
C6639 C 0.62157 0.88206 0.89735 0.0
C6640 C 0.61168 0.87026 0.88271 0.0
C6641 C 0.61342 0.84928 0.8819 0.0
C6642 C 0.60047 0.84056 0.86459 0.0
C6643 C 0.61391 0.83007 0.84858 0.0
C6644 C 0.58394 0.82591 0.87273 0.0
C6645 C 0.5911 0.86001 0.85614 0.0
C6646 C 0.59812 0.87682 0.86685 0.0
C6647 C 0.59136 0.89642 0.86287 0.0
C6648 C 0.57675 0.89896 0.84769 0.0
C6649 C 0.56925 0.88229 0.83629 0.0
C6650 C 0.57639 0.86241 0.84063 0.0
H6651 H 0.44372 0.29428 0.10295 0.0
H6652 H 0.43704 0.3526 0.0728 0.0
H6653 H 0.45355 0.36965 0.10221 0.0
H6654 H 0.42151 0.31451 0.14462 0.0
H6655 H 0.43383 0.29816 0.16303 0.0
H6656 H 0.42995 0.2894 0.13734 0.0
H6657 H 0.46864 0.28252 0.1335 0.0
H6658 H 0.47277 0.29078 0.1594 0.0
H6659 H 0.48688 0.30257 0.13891 0.0
H6660 H 0.46374 0.38079 0.13783 0.0
H6661 H 0.46535 0.3854 0.17514 0.0
H6662 H 0.45865 0.31997 0.1836 0.0
C6663 C 0.44705 0.31049 0.10197 0.0
C6664 C 0.43979 0.32208 0.08526 0.0
C6665 C 0.44328 0.34336 0.08495 0.0
C6666 C 0.45231 0.35316 0.10187 0.0
C6667 C 0.45706 0.34145 0.11912 0.0
C6668 C 0.45428 0.32051 0.11929 0.0
C6669 C 0.45481 0.31196 0.14077 0.0
C6670 C 0.43379 0.30299 0.14677 0.0
C6671 C 0.47181 0.29603 0.14329 0.0
C6672 C 0.45932 0.33115 0.15271 0.0
C6673 C 0.46066 0.348 0.14001 0.0
C6674 C 0.46305 0.36763 0.14783 0.0
C6675 C 0.46398 0.37008 0.16909 0.0
C6676 C 0.46226 0.353 0.18239 0.0
C6677 C 0.46007 0.33332 0.17393 0.0
H6678 H 0.92589 0.21726 0.41038 0.0
H6679 H 0.92531 0.27868 0.38511 0.0
H6680 H 0.9436 0.26634 0.35474 0.0
H6681 H 0.97758 0.20477 0.39236 0.0
H6682 H 0.97071 0.17848 0.38776 0.0
H6683 H 0.95832 0.19251 0.40776 0.0
H6684 H 0.92315 0.18334 0.39156 0.0
H6685 H 0.93557 0.16991 0.37117 0.0
H6686 H 0.91802 0.19028 0.3654 0.0
H6687 H 0.95709 0.24651 0.32543 0.0
H6688 H 0.97426 0.22191 0.30257 0.0
H6689 H 0.96901 0.17507 0.34914 0.0
C6690 C 0.93006 0.22825 0.39874 0.0
C6691 C 0.92387 0.2488 0.39976 0.0
C6692 C 0.92948 0.26272 0.3842 0.0
C6693 C 0.93984 0.25591 0.36699 0.0
C6694 C 0.94471 0.23532 0.36596 0.0
C6695 C 0.94066 0.22182 0.38169 0.0
C6696 C 0.94795 0.20056 0.37694 0.0
C6697 C 0.96464 0.1937 0.3921 0.0
C6698 C 0.9301 0.18513 0.37623 0.0
C6699 C 0.9565 0.20431 0.35601 0.0
C6700 C 0.95405 0.22428 0.34971 0.0
C6701 C 0.95966 0.23094 0.33034 0.0
C6702 C 0.9692 0.21694 0.31749 0.0
C6703 C 0.97369 0.19714 0.32472 0.0
C6704 C 0.96647 0.19049 0.34374 0.0
H6705 H 0.12095 0.75837 0.60125 0.0
H6706 H 0.12808 0.7104 0.55683 0.0
H6707 H 0.10505 0.68805 0.57667 0.0
H6708 H 0.12554 0.72706 0.64296 0.0
H6709 H 0.10778 0.74109 0.65845 0.0
H6710 H 0.1219 0.75403 0.6388 0.0
H6711 H 0.08817 0.7667 0.62212 0.0
H6712 H 0.07388 0.75426 0.64202 0.0
H6713 H 0.0684 0.7485 0.61566 0.0
H6714 H 0.08429 0.67003 0.60471 0.0
H6715 H 0.06466 0.65982 0.63565 0.0
H6716 H 0.07452 0.72008 0.66115 0.0
C6717 C 0.11741 0.74329 0.59537 0.0
C6718 C 0.12647 0.73585 0.57753 0.0
C6719 C 0.12131 0.71624 0.57032 0.0
C6720 C 0.10832 0.70348 0.58166 0.0
C6721 C 0.10079 0.71091 0.60003 0.0
C6722 C 0.10499 0.73054 0.6066 0.0
C6723 C 0.0967 0.73479 0.62743 0.0
C6724 C 0.11401 0.73951 0.6428 0.0
C6725 C 0.08083 0.75207 0.62675 0.0
C6726 C 0.08698 0.71449 0.63165 0.0
C6727 C 0.08944 0.70074 0.61587 0.0
C6728 C 0.08198 0.68076 0.61701 0.0
C6729 C 0.07106 0.67506 0.63452 0.0
C6730 C 0.06793 0.68946 0.6502 0.0
C6731 C 0.07642 0.70907 0.64897 0.0
H6732 H 0.558 0.20087 0.7083 0.0
H6733 H 0.59732 0.1593 0.74075 0.0
H6734 H 0.62556 0.16754 0.71843 0.0
H6735 H 0.57172 0.18571 0.66172 0.0
H6736 H 0.57122 0.21021 0.64912 0.0
H6737 H 0.5558 0.20593 0.67133 0.0
H6738 H 0.57266 0.23685 0.6894 0.0
H6739 H 0.58795 0.24156 0.66703 0.0
H6740 H 0.60012 0.23826 0.69155 0.0
H6741 H 0.64769 0.17519 0.68859 0.0
H6742 H 0.66219 0.18234 0.65479 0.0
H6743 H 0.6076 0.21652 0.63859 0.0
C6744 C 0.57292 0.19439 0.7114 0.0
C6745 C 0.57556 0.18024 0.72755 0.0
C6746 C 0.59503 0.17136 0.73022 0.0
C6747 C 0.61124 0.17567 0.71693 0.0
C6748 C 0.60779 0.18892 0.70069 0.0
C6749 C 0.58914 0.1984 0.69797 0.0
C6750 C 0.58854 0.20991 0.67783 0.0
C6751 C 0.57077 0.20247 0.6642 0.0
C6752 C 0.58724 0.23302 0.68167 0.0
C6753 C 0.6092 0.20418 0.66903 0.0
C6754 C 0.62024 0.19251 0.68274 0.0
C6755 C 0.63929 0.18452 0.67781 0.0
C6756 C 0.64727 0.18844 0.65837 0.0
C6757 C 0.63608 0.19984 0.64367 0.0
C6758 C 0.61685 0.20804 0.64937 0.0
H6759 H 0.06333 0.33055 0.90901 0.0
H6760 H 0.08564 0.39316 0.90855 0.0
H6761 H 0.1064 0.38573 0.93943 0.0
H6762 H 0.05616 0.32802 0.96259 0.0
H6763 H 0.06449 0.30202 0.96514 0.0
H6764 H 0.05172 0.31018 0.94203 0.0
H6765 H 0.08153 0.29922 0.91912 0.0
H6766 H 0.09349 0.28834 0.94129 0.0
H6767 H 0.10728 0.30655 0.92589 0.0
H6768 H 0.12769 0.36888 0.96791 0.0
H6769 H 0.14644 0.34499 0.9898 0.0
H6770 H 0.10264 0.29738 0.97635 0.0
C6771 C 0.07195 0.34308 0.91561 0.0
C6772 C 0.0724 0.36257 0.90658 0.0
C6773 C 0.085 0.37804 0.91521 0.0
C6774 C 0.09665 0.37404 0.93285 0.0
C6775 C 0.09501 0.35475 0.94176 0.0
C6776 C 0.08283 0.33967 0.93336 0.0
C6777 C 0.0836 0.32013 0.94527 0.0
C6778 C 0.06266 0.3148 0.95422 0.0
C6779 C 0.09199 0.30255 0.93212 0.0
C6780 C 0.09834 0.32628 0.96177 0.0
C6781 C 0.10512 0.34619 0.95946 0.0
C6782 C 0.12165 0.35371 0.97065 0.0
C6783 C 0.13195 0.34016 0.98369 0.0
C6784 C 0.12503 0.31981 0.98607 0.0
C6785 C 0.10742 0.31325 0.97575 0.0
H6786 H 0.96025 0.90114 0.22924 0.0
H6787 H 0.99934 0.84922 0.23972 0.0
H6788 H 0.97731 0.82802 0.21755 0.0
H6789 H 0.9094 0.86865 0.22292 0.0
H6790 H 0.90057 0.88631 0.20382 0.0
H6791 H 0.91553 0.89554 0.22499 0.0
H6792 H 0.94087 0.91165 0.20027 0.0
H6793 H 0.92646 0.90245 0.17879 0.0
H6794 H 0.95317 0.89593 0.18122 0.0
H6795 H 0.95516 0.815 0.18849 0.0
H6796 H 0.9333 0.81042 0.15812 0.0
H6797 H 0.90996 0.87194 0.16599 0.0
C6798 C 0.96331 0.88497 0.22791 0.0
C6799 C 0.98108 0.87653 0.2367 0.0
C6800 C 0.98535 0.85563 0.2338 0.0
C6801 C 0.97294 0.84353 0.22109 0.0
C6802 C 0.95595 0.85252 0.21183 0.0
C6803 C 0.95064 0.87259 0.21574 0.0
C6804 C 0.93319 0.87931 0.20203 0.0
C6805 C 0.91352 0.88263 0.21423 0.0
C6806 C 0.93878 0.89846 0.18982 0.0
C6807 C 0.93102 0.86086 0.18847 0.0
C6808 C 0.94369 0.84524 0.19472 0.0
C6809 C 0.94489 0.82706 0.18376 0.0
C6810 C 0.93261 0.82478 0.16622 0.0
C6811 C 0.91968 0.84085 0.15936 0.0
C6812 C 0.91905 0.85905 0.17086 0.0
H6813 H 0.45803 0.65426 0.42287 0.0
H6814 H 0.47695 0.70024 0.37897 0.0
H6815 H 0.48368 0.72433 0.40639 0.0
H6816 H 0.4281 0.68542 0.44846 0.0
H6817 H 0.43255 0.67581 0.47388 0.0
H6818 H 0.43643 0.6595 0.45232 0.0
H6819 H 0.47382 0.65307 0.4641 0.0
H6820 H 0.47002 0.66961 0.48574 0.0
H6821 H 0.49076 0.67446 0.46836 0.0
H6822 H 0.48192 0.74529 0.43505 0.0
H6823 H 0.46383 0.76407 0.46145 0.0
H6824 H 0.44354 0.70723 0.4887 0.0
C6825 C 0.4639 0.66931 0.41925 0.0
C6826 C 0.4677 0.67511 0.39897 0.0
C6827 C 0.47472 0.69516 0.39454 0.0
C6828 C 0.47887 0.70892 0.41004 0.0
C6829 C 0.47536 0.70274 0.42996 0.0
C6830 C 0.46757 0.68361 0.43467 0.0
C6831 C 0.46044 0.68272 0.45655 0.0
C6832 C 0.43804 0.67544 0.45788 0.0
C6833 C 0.47461 0.66916 0.46945 0.0
C6834 C 0.46299 0.70497 0.46234 0.0
C6835 C 0.47307 0.7158 0.44723 0.0
C6836 C 0.47453 0.73699 0.44726 0.0
C6837 C 0.46411 0.74756 0.46223 0.0
C6838 C 0.45256 0.73688 0.47689 0.0
C6839 C 0.45285 0.71544 0.47777 0.0
H6840 H 0.84053 0.55963 0.85346 0.0
H6841 H 0.82051 0.59515 0.90522 0.0
H6842 H 0.84251 0.62238 0.89627 0.0
H6843 H 0.89048 0.57079 0.85873 0.0
H6844 H 0.8974 0.5741 0.83235 0.0
H6845 H 0.87583 0.5583 0.83896 0.0
H6846 H 0.85214 0.57964 0.81572 0.0
H6847 H 0.8737 0.59533 0.80854 0.0
H6848 H 0.85107 0.60696 0.8189 0.0
H6849 H 0.8729 0.64013 0.89 0.0
H6850 H 0.90519 0.65437 0.8798 0.0
H6851 H 0.90637 0.6132 0.82749 0.0
C6852 C 0.83986 0.57374 0.86203 0.0
C6853 C 0.82732 0.57523 0.87958 0.0
C6854 C 0.82825 0.59334 0.89121 0.0
C6855 C 0.84134 0.60923 0.88633 0.0
C6856 C 0.85398 0.60693 0.86974 0.0
C6857 C 0.85314 0.59006 0.8572 0.0
C6858 C 0.8702 0.59119 0.84146 0.0
C6859 C 0.88431 0.57249 0.84298 0.0
C6860 C 0.86124 0.59342 0.81987 0.0
C6861 C 0.88116 0.61069 0.8482 0.0
C6862 C 0.87142 0.61912 0.86471 0.0
C6863 C 0.87992 0.63483 0.87608 0.0
C6864 C 0.89841 0.6431 0.86981 0.0
C6865 C 0.90807 0.63647 0.85164 0.0
C6866 C 0.89935 0.61956 0.84092 0.0
H6867 H 0.71874 0.58074 0.1102 0.0
H6868 H 0.77285 0.60862 0.13689 0.0
H6869 H 0.75795 0.64251 0.13297 0.0
H6870 H 0.71528 0.62785 0.07291 0.0
H6871 H 0.68789 0.62525 0.07082 0.0
H6872 H 0.70365 0.60289 0.0739 0.0
H6873 H 0.6819 0.59301 0.10416 0.0
H6874 H 0.66684 0.61578 0.10348 0.0
H6875 H 0.68063 0.60923 0.12649 0.0
H6876 H 0.73385 0.67089 0.13607 0.0
H6877 H 0.7065 0.69662 0.13258 0.0
H6878 H 0.67007 0.6537 0.09742 0.0
C6879 C 0.72731 0.59404 0.11513 0.0
C6880 C 0.74652 0.59204 0.12495 0.0
C6881 C 0.75804 0.60981 0.12972 0.0
C6882 C 0.74967 0.62918 0.12762 0.0
C6883 C 0.73015 0.63066 0.11953 0.0
C6884 C 0.71961 0.61391 0.11199 0.0
C6885 C 0.69987 0.62083 0.10181 0.0
C6886 C 0.70177 0.61911 0.07848 0.0
C6887 C 0.68119 0.609 0.10955 0.0
C6888 C 0.69943 0.64307 0.10835 0.0
C6889 C 0.71732 0.64838 0.1183 0.0
C6890 C 0.72005 0.6673 0.12759 0.0
C6891 C 0.70435 0.68162 0.12592 0.0
C6892 C 0.68628 0.6769 0.11505 0.0
C6893 C 0.68375 0.65744 0.10605 0.0
H6894 H 0.69143 0.50117 0.38285 0.0
H6895 H 0.75002 0.47937 0.36255 0.0
H6896 H 0.73348 0.44956 0.34646 0.0
H6897 H 0.66261 0.45382 0.38796 0.0
H6898 H 0.64028 0.46427 0.37571 0.0
H6899 H 0.65744 0.48087 0.38957 0.0
H6900 H 0.66128 0.50324 0.35694 0.0
H6901 H 0.64442 0.48624 0.34326 0.0
H6902 H 0.66969 0.49146 0.33362 0.0
H6903 H 0.71032 0.42146 0.33467 0.0
H6904 H 0.68272 0.40235 0.31767 0.0
H6905 H 0.63878 0.44778 0.33751 0.0
C6906 C 0.70083 0.48984 0.37543 0.0
C6907 C 0.7224 0.49128 0.37566 0.0
C6908 C 0.73394 0.47713 0.3645 0.0
C6909 C 0.72452 0.46044 0.35498 0.0
C6910 C 0.7033 0.45895 0.3558 0.0
C6911 C 0.69153 0.4738 0.36485 0.0
C6912 C 0.66903 0.47082 0.36002 0.0
C6913 C 0.6566 0.46725 0.37951 0.0
C6914 C 0.66062 0.48901 0.34772 0.0
C6915 C 0.67002 0.45166 0.34722 0.0
C6916 C 0.6899 0.44479 0.34557 0.0
C6917 C 0.69475 0.42698 0.33528 0.0
C6918 C 0.67895 0.41634 0.32555 0.0
C6919 C 0.65865 0.42396 0.32552 0.0
C6920 C 0.65409 0.44157 0.33705 0.0
H6921 H 0.88397 0.39272 0.60158 0.0
H6922 H 0.84624 0.35221 0.63822 0.0
H6923 H 0.82334 0.38065 0.64608 0.0
H6924 H 0.87953 0.437 0.63469 0.0
H6925 H 0.87808 0.45536 0.61423 0.0
H6926 H 0.89167 0.4318 0.61061 0.0
H6927 H 0.86909 0.42428 0.57876 0.0
H6928 H 0.85548 0.44781 0.58274 0.0
H6929 H 0.84164 0.42399 0.58129 0.0
H6930 H 0.80513 0.41118 0.65037 0.0
H6931 H 0.7903 0.44518 0.65171 0.0
H6932 H 0.83837 0.46917 0.61334 0.0
C6933 C 0.87082 0.39001 0.6112 0.0
C6934 C 0.86694 0.37036 0.61964 0.0
C6935 C 0.84962 0.36719 0.63202 0.0
C6936 C 0.83651 0.38322 0.63647 0.0
C6937 C 0.84093 0.40239 0.62845 0.0
C6938 C 0.85749 0.40611 0.61604 0.0
C6939 C 0.85832 0.42868 0.61002 0.0
C6940 C 0.87808 0.4388 0.61788 0.0
C6941 C 0.856 0.43133 0.58682 0.0
C6942 C 0.83964 0.43682 0.62116 0.0
C6943 C 0.83006 0.42104 0.63144 0.0
C6944 C 0.81236 0.42372 0.64243 0.0
C6945 C 0.80403 0.44307 0.64308 0.0
C6946 C 0.81306 0.45974 0.63286 0.0
C6947 C 0.8313 0.45673 0.62166 0.0
H6948 H 0.92652 0.44333 0.71134 0.0
H6949 H 0.91003 0.38378 0.68721 0.0
H6950 H 0.87385 0.3947 0.68492 0.0
H6951 H 0.87857 0.45123 0.74142 0.0
H6952 H 0.87857 0.47816 0.73565 0.0
H6953 H 0.90245 0.46465 0.73798 0.0
H6954 H 0.91241 0.4778 0.70281 0.0
H6955 H 0.88833 0.49023 0.69844 0.0
H6956 H 0.89726 0.471 0.68092 0.0
H6957 H 0.83897 0.41226 0.68633 0.0
H6958 H 0.81082 0.43733 0.68303 0.0
H6959 H 0.85166 0.48553 0.70295 0.0
C6960 C 0.91528 0.43231 0.70612 0.0
C6961 C 0.92112 0.41255 0.69976 0.0
C6962 C 0.90595 0.39899 0.69217 0.0
C6963 C 0.88532 0.40494 0.69114 0.0
C6964 C 0.88009 0.42439 0.69798 0.0
C6965 C 0.89472 0.43791 0.70519 0.0
C6966 C 0.88567 0.45867 0.70957 0.0
C6967 C 0.88636 0.46344 0.73252 0.0
C6968 C 0.89651 0.47546 0.69719 0.0
C6969 C 0.8639 0.4551 0.70253 0.0
C6970 C 0.86067 0.43501 0.69686 0.0
C6971 C 0.84148 0.4281 0.69037 0.0
C6972 C 0.82562 0.44242 0.68839 0.0
C6973 C 0.82958 0.46341 0.69146 0.0
C6974 C 0.8485 0.46956 0.69991 0.0
H6975 H 0.80325 0.59388 0.96065 0.0
H6976 H 0.85593 0.57151 0.92808 0.0
H6977 H 0.87535 0.60247 0.93789 0.0
H6978 H 0.80502 0.64409 0.94894 0.0
H6979 H 0.79743 0.65239 0.97373 0.0
H6980 H 0.79059 0.62719 0.9653 0.0
H6981 H 0.80902 0.61486 0.99922 0.0
H6982 H 0.81719 0.64057 1.00496 0.0
H6983 H 0.83581 0.62049 1.00282 0.0
H6984 H 0.88538 0.63875 0.94388 0.0
H6985 H 0.88705 0.67606 0.94898 0.0
H6986 H 0.82839 0.67421 0.97955 0.0
C6987 C 0.81927 0.59499 0.95673 0.0
C6988 C 0.82835 0.58026 0.94411 0.0
C6989 C 0.84905 0.58238 0.93838 0.0
C6990 C 0.86009 0.60001 0.94373 0.0
C6991 C 0.85034 0.61484 0.95542 0.0
C6992 C 0.83059 0.61218 0.96245 0.0
C6993 C 0.82309 0.63095 0.97358 0.0
C6994 C 0.80279 0.63903 0.96485 0.0
C6995 C 0.82119 0.62645 0.99651 0.0
C6996 C 0.84061 0.6455 0.96932 0.0
C6997 C 0.85645 0.63573 0.95942 0.0
C6998 C 0.87335 0.64644 0.9521 0.0
C6999 C 0.87406 0.66764 0.95489 0.0
C7000 C 0.85778 0.678 0.96457 0.0
C7001 C 0.841 0.66668 0.97205 0.0
H7002 H 0.63736 0.62027 0.22345 0.0
H7003 H 0.63283 0.64709 0.1625 0.0
H7004 H 0.66843 0.63879 0.15673 0.0
H7005 H 0.69127 0.63084 0.23342 0.0
H7006 H 0.69615 0.60617 0.24457 0.0
H7007 H 0.67116 0.61752 0.24671 0.0
H7008 H 0.65455 0.58555 0.23032 0.0
H7009 H 0.67936 0.57395 0.22858 0.0
H7010 H 0.66368 0.57659 0.20602 0.0
H7011 H 0.70554 0.6309 0.15863 0.0
H7012 H 0.73731 0.61111 0.16126 0.0
H7013 H 0.71421 0.57887 0.2135 0.0
C7014 C 0.64333 0.62451 0.20874 0.0
C7015 C 0.63159 0.63551 0.19393 0.0
C7016 C 0.64107 0.64009 0.17495 0.0
C7017 C 0.66154 0.63525 0.17131 0.0
C7018 C 0.67247 0.62507 0.1864 0.0
C7019 C 0.66351 0.61882 0.20432 0.0
C7020 C 0.67795 0.60512 0.21646 0.0
C7021 C 0.6845 0.61553 0.23648 0.0
C7022 C 0.6683 0.58405 0.22055 0.0
C7023 C 0.69591 0.60388 0.20187 0.0
C7024 C 0.69285 0.61682 0.1855 0.0
C7025 C 0.70785 0.62019 0.171 0.0
C7026 C 0.72588 0.60894 0.1725 0.0
C7027 C 0.72803 0.59308 0.18677 0.0
C7028 C 0.71314 0.591 0.20232 0.0
H7029 H 0.69129 0.48785 0.4338 0.0
H7030 H 0.75046 0.46162 0.44831 0.0
H7031 H 0.7347 0.43562 0.46867 0.0
H7032 H 0.66299 0.46872 0.48267 0.0
H7033 H 0.6407 0.46148 0.46804 0.0
H7034 H 0.65587 0.48324 0.46038 0.0
H7035 H 0.66028 0.46744 0.42474 0.0
H7036 H 0.64534 0.44556 0.43203 0.0
H7037 H 0.67087 0.44212 0.42238 0.0
H7038 H 0.71536 0.40895 0.48034 0.0
H7039 H 0.69273 0.38001 0.48007 0.0
H7040 H 0.64276 0.41847 0.45864 0.0
C7041 C 0.70072 0.47717 0.44221 0.0
C7042 C 0.72225 0.47772 0.44055 0.0
C7043 C 0.73404 0.46221 0.44992 0.0
C7044 C 0.72522 0.44734 0.46191 0.0
C7045 C 0.70417 0.44697 0.46335 0.0
C7046 C 0.69183 0.46106 0.4535 0.0
C7047 C 0.66972 0.45369 0.45365 0.0
C7048 C 0.65654 0.46762 0.46698 0.0
C7049 C 0.66105 0.45209 0.43189 0.0
C7050 C 0.67222 0.43273 0.46341 0.0
C7051 C 0.69216 0.42987 0.46967 0.0
C7052 C 0.69943 0.41119 0.47639 0.0
C7053 C 0.68616 0.39469 0.47636 0.0
C7054 C 0.66541 0.39685 0.47025 0.0
C7055 C 0.65832 0.41631 0.46388 0.0
H7056 H 0.85164 0.84456 0.55796 0.0
H7057 H 0.87735 0.82085 0.61411 0.0
H7058 H 0.86487 0.85131 0.63251 0.0
H7059 H 0.86613 0.89218 0.56026 0.0
H7060 H 0.84319 0.90396 0.55097 0.0
H7061 H 0.8486 0.87799 0.54432 0.0
H7062 H 0.81308 0.8678 0.55926 0.0
H7063 H 0.80857 0.89401 0.5663 0.0
H7064 H 0.80713 0.87414 0.5853 0.0
H7065 H 0.86257 0.88824 0.64074 0.0
H7066 H 0.86018 0.92572 0.64166 0.0
H7067 H 0.83406 0.92565 0.58064 0.0
C7068 C 0.85379 0.84547 0.57432 0.0
C7069 C 0.86554 0.8307 0.58474 0.0
C7070 C 0.86816 0.83202 0.60604 0.0
C7071 C 0.8613 0.84935 0.6165 0.0
C7072 C 0.85189 0.86489 0.6053 0.0
C7073 C 0.84718 0.86268 0.58484 0.0
C7074 C 0.83835 0.88217 0.57596 0.0
C7075 C 0.84978 0.88944 0.55675 0.0
C7076 C 0.81542 0.87937 0.57145 0.0
C7077 C 0.84177 0.89648 0.59374 0.0
C7078 C 0.84909 0.88611 0.61066 0.0
C7079 C 0.85591 0.8964 0.62798 0.0
C7080 C 0.85466 0.91773 0.62826 0.0
C7081 C 0.84665 0.92867 0.61132 0.0
C7082 C 0.84018 0.91778 0.59385 0.0
H7083 H 0.35807 0.67402 0.40854 0.0
H7084 H 0.32601 0.64136 0.45658 0.0
H7085 H 0.32915 0.67131 0.47877 0.0
H7086 H 0.39496 0.69243 0.43959 0.0
H7087 H 0.39836 0.71689 0.42728 0.0
H7088 H 0.38888 0.69546 0.41295 0.0
H7089 H 0.35621 0.71511 0.40266 0.0
H7090 H 0.36555 0.73705 0.41636 0.0
H7091 H 0.34071 0.72671 0.42211 0.0
H7092 H 0.33917 0.70262 0.49725 0.0
H7093 H 0.36072 0.72935 0.51263 0.0
H7094 H 0.38992 0.73985 0.45451 0.0
C7095 C 0.35152 0.67314 0.42364 0.0
C7096 C 0.34142 0.65534 0.43048 0.0
C7097 C 0.33318 0.65499 0.4505 0.0
C7098 C 0.33487 0.67199 0.46332 0.0
C7099 C 0.34501 0.68923 0.45606 0.0
C7100 C 0.35349 0.68979 0.43682 0.0
C7101 C 0.36643 0.70872 0.43385 0.0
C7102 C 0.38848 0.70307 0.42808 0.0
C7103 C 0.35663 0.72273 0.41779 0.0
C7104 C 0.36518 0.71801 0.45496 0.0
C7105 C 0.35183 0.70707 0.46718 0.0
C7106 C 0.34924 0.71163 0.48772 0.0
C7107 C 0.36138 0.72705 0.49629 0.0
C7108 C 0.37629 0.73729 0.48447 0.0
C7109 C 0.37779 0.73314 0.46347 0.0
H7110 H 0.58 0.08912 0.73771 0.0
H7111 H 0.57562 0.14411 0.7011 0.0
H7112 H 0.60792 0.13545 0.68394 0.0
H7113 H 0.63263 0.08454 0.7449 0.0
H7114 H 0.63279 0.05755 0.74066 0.0
H7115 H 0.6099 0.06962 0.74981 0.0
H7116 H 0.59122 0.05301 0.71802 0.0
H7117 H 0.61508 0.04251 0.70958 0.0
H7118 H 0.60036 0.05865 0.69277 0.0
H7119 H 0.64267 0.12428 0.67592 0.0
H7120 H 0.67231 0.10389 0.6654 0.0
H7121 H 0.65208 0.05394 0.70407 0.0
C7122 C 0.58539 0.09868 0.72533 0.0
C7123 C 0.57595 0.1173 0.72068 0.0
C7124 C 0.58307 0.12979 0.70468 0.0
C7125 C 0.60143 0.12518 0.69515 0.0
C7126 C 0.6115 0.10756 0.70134 0.0
C7127 C 0.60318 0.09381 0.71502 0.0
C7128 C 0.6163 0.07504 0.71739 0.0
C7129 C 0.62325 0.07152 0.73954 0.0
C7130 C 0.60509 0.05618 0.7089 0.0
C7131 C 0.63395 0.0812 0.70403 0.0
C7132 C 0.63098 0.10018 0.69526 0.0
C7133 C 0.64511 0.10924 0.68234 0.0
C7134 C 0.66202 0.09775 0.6768 0.0
C7135 C 0.66416 0.07752 0.68404 0.0
C7136 C 0.65063 0.06949 0.69857 0.0
H7137 H 0.21995 0.32612 0.98693 0.0
H7138 H 0.16176 0.32652 0.95557 0.0
H7139 H 0.16784 0.36219 0.94469 0.0
H7140 H 0.21873 0.37691 1.00751 0.0
H7141 H 0.2451 0.38271 1.0026 0.0
H7142 H 0.23741 0.35695 1.00777 0.0
H7143 H 0.25267 0.34379 0.97407 0.0
H7144 H 0.26215 0.3692 0.96976 0.0
H7145 H 0.24661 0.35686 0.95057 0.0
H7146 H 0.17961 0.39724 0.93859 0.0
H7147 H 0.20178 0.42535 0.92719 0.0
H7148 H 0.25034 0.40389 0.96686 0.0
C7149 C 0.20869 0.3338 0.97772 0.0
C7150 C 0.1901 0.32438 0.97285 0.0
C7151 C 0.17606 0.33396 0.95958 0.0
C7152 C 0.17906 0.3543 0.95394 0.0
C7153 C 0.19628 0.36426 0.96166 0.0
C7154 C 0.21125 0.35416 0.97264 0.0
C7155 C 0.22942 0.36764 0.97717 0.0
C7156 C 0.23277 0.37123 1.00011 0.0
C7157 C 0.24884 0.35888 0.96728 0.0
C7158 C 0.22234 0.38688 0.96687 0.0
C7159 C 0.20298 0.38478 0.9584 0.0
C7160 C 0.19457 0.39934 0.94544 0.0
C7161 C 0.20715 0.41539 0.93928 0.0
C7162 C 0.22765 0.4163 0.94619 0.0
C7163 C 0.23458 0.4033 0.96167 0.0
H7164 H 0.42189 0.46345 0.65344 0.0
H7165 H 0.38324 0.48028 0.70427 0.0
H7166 H 0.41325 0.48424 0.72607 0.0
H7167 H 0.44847 0.43172 0.67508 0.0
H7168 H 0.47435 0.43656 0.66637 0.0
H7169 H 0.4529 0.44453 0.65132 0.0
H7170 H 0.46484 0.48154 0.6513 0.0
H7171 H 0.48731 0.47413 0.66557 0.0
H7172 H 0.47107 0.49416 0.67494 0.0
H7173 H 0.44475 0.48075 0.74401 0.0
H7174 H 0.47259 0.46088 0.75909 0.0
H7175 H 0.4902 0.43943 0.6993 0.0
C7176 C 0.41997 0.4685 0.66902 0.0
C7177 C 0.40033 0.47206 0.67695 0.0
C7178 C 0.39819 0.47817 0.69756 0.0
C7179 C 0.41522 0.48075 0.71007 0.0
C7180 C 0.43441 0.47699 0.70193 0.0
C7181 C 0.43697 0.47089 0.6819 0.0
C7182 C 0.45851 0.4632 0.67851 0.0
C7183 C 0.45859 0.44272 0.66721 0.0
C7184 C 0.47118 0.47922 0.6669 0.0
C7185 C 0.46582 0.46174 0.70048 0.0
C7186 C 0.45262 0.47212 0.71321 0.0
C7187 C 0.4552 0.4726 0.73423 0.0
C7188 C 0.47074 0.46091 0.7427 0.0
C7189 C 0.48263 0.44805 0.73032 0.0
C7190 C 0.48109 0.44923 0.7089 0.0
H7191 H 0.72307 0.12869 0.07832 0.0
H7192 H 0.70129 0.12956 0.14072 0.0
H7193 H 0.69851 0.16707 0.13918 0.0
H7194 H 0.75154 0.17819 0.07964 0.0
H7195 H 0.74349 0.18454 0.05407 0.0
H7196 H 0.74696 0.15819 0.06128 0.0
H7197 H 0.71036 0.15027 0.04932 0.0
H7198 H 0.70583 0.1765 0.04265 0.0
H7199 H 0.68927 0.16362 0.06051 0.0
H7200 H 0.69345 0.20369 0.12945 0.0
H7201 H 0.68413 0.23547 0.1111 0.0
H7202 H 0.71036 0.21104 0.05585 0.0
C7203 C 0.71782 0.13679 0.09169 0.0
C7204 C 0.71243 0.1262 0.10961 0.0
C7205 C 0.70569 0.13737 0.12683 0.0
C7206 C 0.70418 0.1587 0.12618 0.0
C7207 C 0.70965 0.1687 0.10826 0.0
C7208 C 0.71637 0.1581 0.09133 0.0
C7209 C 0.71911 0.17213 0.07323 0.0
C7210 C 0.74162 0.17333 0.06669 0.0
C7211 C 0.70533 0.16527 0.05536 0.0
C7212 C 0.71215 0.19212 0.08244 0.0
C7213 C 0.70708 0.18997 0.10277 0.0
C7214 C 0.69794 0.20579 0.11372 0.0
C7215 C 0.69293 0.2239 0.10333 0.0
C7216 C 0.69703 0.22576 0.08231 0.0
C7217 C 0.70773 0.21016 0.07213 0.0
H7218 H 0.59031 0.9599 0.80138 0.0
H7219 H 0.55859 0.94815 0.85795 0.0
H7220 H 0.58904 0.95969 0.87732 0.0
H7221 H 0.63185 0.93705 0.81437 0.0
H7222 H 0.65018 0.95339 0.80187 0.0
H7223 H 0.62447 0.95188 0.79235 0.0
H7224 H 0.62002 0.99107 0.79605 0.0
H7225 H 0.64613 0.99297 0.80488 0.0
H7226 H 0.62572 1.00322 0.8201 0.0
H7227 H 0.62528 0.96225 0.88954 0.0
H7228 H 0.66282 0.96064 0.89388 0.0
H7229 H 0.67058 0.97 0.82888 0.0
C7230 C 0.5894 0.961 0.81785 0.0
C7231 C 0.57256 0.95282 0.82832 0.0
C7232 C 0.57156 0.95431 0.84977 0.0
C7233 C 0.58883 0.96074 0.86084 0.0
C7234 C 0.60635 0.96627 0.85 0.0
C7235 C 0.6065 0.96708 0.8289 0.0
C7236 C 0.62782 0.9698 0.8206 0.0
C7237 C 0.6339 0.95198 0.80649 0.0
C7238 C 0.63005 0.99051 0.80977 0.0
C7239 C 0.63983 0.96931 0.84019 0.0
C7240 C 0.62728 0.96754 0.85704 0.0
C7241 C 0.63521 0.96434 0.87653 0.0
C7242 C 0.65649 0.96327 0.87881 0.0
C7243 C 0.66946 0.96518 0.86162 0.0
C7244 C 0.66097 0.96839 0.8422 0.0
H7245 H 0.89507 0.09443 0.37595 0.0
H7246 H 0.85843 0.14356 0.35027 0.0
H7247 H 0.88812 0.1559 0.33135 0.0
H7248 H 0.94362 0.12205 0.37972 0.0
H7249 H 0.95877 0.1007 0.37141 0.0
H7250 H 0.93497 0.09627 0.38443 0.0
H7251 H 0.92292 0.07392 0.35385 0.0
H7252 H 0.94669 0.07895 0.34096 0.0
H7253 H 0.92275 0.08478 0.32855 0.0
H7254 H 0.92013 0.16357 0.31542 0.0
H7255 H 0.95307 0.16353 0.29824 0.0
H7256 H 0.97113 0.10921 0.33161 0.0
C7257 C 0.8933 0.10774 0.36629 0.0
C7258 C 0.87443 0.11849 0.36529 0.0
C7259 C 0.87279 0.13559 0.35212 0.0
C7260 C 0.88958 0.14269 0.34117 0.0
C7261 C 0.90799 0.13235 0.34307 0.0
C7262 C 0.91003 0.11496 0.35481 0.0
C7263 C 0.93157 0.10627 0.35271 0.0
C7264 C 0.9429 0.10635 0.37331 0.0
C7265 C 0.93093 0.0847 0.34347 0.0
C7266 C 0.94105 0.12159 0.33797 0.0
C7267 C 0.92705 0.13658 0.33303 0.0
C7268 C 0.93137 0.15212 0.31932 0.0
C7269 C 0.95034 0.15213 0.30985 0.0
C7270 C 0.9651 0.137 0.31428 0.0
C7271 C 0.96043 0.12143 0.32856 0.0
H7272 H 0.4347 0.23663 0.16227 0.0
H7273 H 0.3935 0.18423 0.15871 0.0
H7274 H 0.40874 0.17016 0.1892 0.0
H7275 H 0.47832 0.20688 0.17358 0.0
H7276 H 0.48959 0.22561 0.19048 0.0
H7277 H 0.47244 0.23364 0.17062 0.0
H7278 H 0.45159 0.25176 0.19915 0.0
H7279 H 0.46839 0.24173 0.21862 0.0
H7280 H 0.4413 0.23678 0.21983 0.0
H7281 H 0.42823 0.15975 0.21719 0.0
H7282 H 0.45805 0.14644 0.23381 0.0
H7283 H 0.49092 0.2029 0.22221 0.0
C7284 C 0.42863 0.22238 0.16809 0.0
C7285 C 0.41173 0.21237 0.15851 0.0
C7286 C 0.40511 0.19327 0.16634 0.0
C7287 C 0.41382 0.18494 0.18377 0.0
C7288 C 0.42975 0.1954 0.19317 0.0
C7289 C 0.43774 0.21329 0.18538 0.0
C7290 C 0.45745 0.21897 0.19669 0.0
C7291 C 0.47551 0.22136 0.18193 0.0
C7292 C 0.4545 0.23848 0.20932 0.0
C7293 C 0.4599 0.20043 0.21062 0.0
C7294 C 0.44297 0.18791 0.20895 0.0
C7295 C 0.44175 0.16915 0.21851 0.0
C7296 C 0.45885 0.16193 0.22871 0.0
C7297 C 0.47659 0.17406 0.23096 0.0
C7298 C 0.47706 0.19378 0.2219 0.0
H7299 H 0.64767 0.70087 0.97468 0.0
H7300 H 0.59949 0.74403 0.98388 0.0
H7301 H 0.5788 0.7278 0.9571 0.0
H7302 H 0.6482 0.70355 0.92647 0.0
H7303 H 0.65369 0.6772 0.92087 0.0
H7304 H 0.66006 0.68772 0.94551 0.0
H7305 H 0.63892 0.65833 0.96235 0.0
H7306 H 0.63201 0.64859 0.93751 0.0
H7307 H 0.61236 0.65531 0.95545 0.0
H7308 H 0.57078 0.71622 0.92198 0.0
H7309 H 0.57242 0.70557 0.88599 0.0
H7310 H 0.62482 0.6676 0.89987 0.0
C7311 C 0.63203 0.70564 0.97217 0.0
C7312 C 0.62487 0.72349 0.98145 0.0
C7313 C 0.60483 0.73011 0.97732 0.0
C7314 C 0.59308 0.72097 0.9619 0.0
C7315 C 0.60147 0.7046 0.95135 0.0
C7316 C 0.62013 0.69633 0.95697 0.0
C7317 C 0.62759 0.68149 0.94109 0.0
C7318 C 0.64865 0.68787 0.93298 0.0
C7319 C 0.62773 0.65962 0.9496 0.0
C7320 C 0.61145 0.68408 0.92483 0.0
C7321 C 0.59629 0.6973 0.93107 0.0
C7322 C 0.58198 0.70508 0.91729 0.0
C7323 C 0.58318 0.69909 0.89679 0.0
C7324 C 0.59872 0.68561 0.89017 0.0
C7325 C 0.61272 0.6778 0.90452 0.0
H7326 H 0.1268 0.83288 0.64197 0.0
H7327 H 0.16753 0.88597 0.64597 0.0
H7328 H 0.15291 0.89404 0.67883 0.0
H7329 H 0.08474 0.85956 0.65853 0.0
H7330 H 0.07321 0.83862 0.67239 0.0
H7331 H 0.08904 0.8336 0.65065 0.0
H7332 H 0.11258 0.8105 0.67194 0.0
H7333 H 0.09688 0.81475 0.69403 0.0
H7334 H 0.12394 0.82006 0.69518 0.0
H7335 H 0.13489 0.89597 0.71236 0.0
H7336 H 0.10863 0.89712 0.73902 0.0
H7337 H 0.07524 0.84836 0.7088 0.0
C7338 C 0.13316 0.84625 0.64915 0.0
C7339 C 0.14935 0.85811 0.64062 0.0
C7340 C 0.15606 0.87564 0.65171 0.0
C7341 C 0.14774 0.88058 0.6707 0.0
C7342 C 0.13232 0.86824 0.67848 0.0
C7343 C 0.12465 0.85183 0.66776 0.0
C7344 C 0.10604 0.84271 0.67811 0.0
C7345 C 0.08712 0.8437 0.6641 0.0
C7346 C 0.11012 0.8207 0.68523 0.0
C7347 C 0.10428 0.85694 0.69612 0.0
C7348 C 0.12017 0.87092 0.69655 0.0
C7349 C 0.12234 0.88513 0.71216 0.0
C7350 C 0.1074 0.88553 0.72735 0.0
C7351 C 0.09005 0.87256 0.72615 0.0
C7352 C 0.08862 0.85796 0.71047 0.0
H7353 H 0.90644 0.33707 0.46733 0.0
H7354 H 0.96039 0.31047 0.49442 0.0
H7355 H 0.98233 0.33424 0.47484 0.0
H7356 H 0.9273 0.34003 0.41807 0.0
H7357 H 0.91154 0.36191 0.41291 0.0
H7358 H 0.90407 0.34321 0.43183 0.0
H7359 H 0.90322 0.37655 0.45897 0.0
H7360 H 0.91134 0.39196 0.43747 0.0
H7361 H 0.92635 0.3913 0.46048 0.0
H7362 H 0.99793 0.35757 0.4462 0.0
H7363 H 1.00462 0.37971 0.41608 0.0
H7364 H 0.93934 0.38857 0.40851 0.0
C7365 C 0.92282 0.33685 0.46978 0.0
C7366 C 0.93172 0.3224 0.48275 0.0
C7367 C 0.95325 0.322 0.48513 0.0
C7368 C 0.96584 0.33532 0.47383 0.0
C7369 C 0.95649 0.34892 0.46033 0.0
C7370 C 0.93541 0.3499 0.45868 0.0
C7371 C 0.92879 0.36375 0.44171 0.0
C7372 C 0.91717 0.3516 0.42517 0.0
C7373 C 0.91664 0.38193 0.4501 0.0
C7374 C 0.94914 0.3706 0.43387 0.0
C7375 C 0.96518 0.36193 0.4445 0.0
C7376 C 0.98538 0.36485 0.43823 0.0
C7377 C 0.98902 0.37728 0.421 0.0
C7378 C 0.97248 0.38646 0.41028 0.0
C7379 C 0.95241 0.38274 0.41686 0.0
H7380 H 0.45748 0.89007 0.33396 0.0
H7381 H 0.50696 0.84769 0.32605 0.0
H7382 H 0.49597 0.82853 0.35627 0.0
H7383 H 0.46276 0.89828 0.38009 0.0
H7384 H 0.43673 0.89913 0.38909 0.0
H7385 H 0.44199 0.90398 0.36272 0.0
H7386 H 0.41758 0.87541 0.35126 0.0
H7387 H 0.41123 0.87075 0.37762 0.0
H7388 H 0.42019 0.85014 0.36185 0.0
H7389 H 0.48705 0.8214 0.3925 0.0
H7390 H 0.47844 0.82456 0.42915 0.0
H7391 H 0.43539 0.87251 0.41463 0.0
C7392 C 0.46476 0.87569 0.33764 0.0
C7393 C 0.4826 0.86987 0.32725 0.0
C7394 C 0.49267 0.85173 0.33308 0.0
C7395 C 0.48667 0.84095 0.35058 0.0
C7396 C 0.47018 0.84826 0.36179 0.0
C7397 C 0.45879 0.86479 0.35508 0.0
C7398 C 0.44409 0.87177 0.37144 0.0
C7399 C 0.44659 0.89463 0.37612 0.0
C7400 C 0.42196 0.86671 0.36518 0.0
C7401 C 0.45096 0.85863 0.38921 0.0
C7402 C 0.46536 0.8445 0.38313 0.0
C7403 C 0.47536 0.832 0.39727 0.0
C7404 C 0.47058 0.83402 0.41806 0.0
C7405 C 0.45644 0.84889 0.42456 0.0
C7406 C 0.44629 0.86106 0.40992 0.0
H7407 H 0.92695 0.66578 0.15583 0.0
H7408 H 0.99257 0.6658 0.14661 0.0
H7409 H 0.98798 0.68551 0.11472 0.0
H7410 H 0.91136 0.66338 0.10083 0.0
H7411 H 0.89031 0.68049 0.10531 0.0
H7412 H 0.89864 0.66332 0.12517 0.0
H7413 H 0.90344 0.69419 0.14965 0.0
H7414 H 0.89481 0.71098 0.1298 0.0
H7415 H 0.91931 0.71535 0.14181 0.0
H7416 H 0.97638 0.70879 0.08611 0.0
H7417 H 0.95914 0.7361 0.06626 0.0
H7418 H 0.90178 0.72024 0.09496 0.0
C7419 C 0.94028 0.66922 0.14669 0.0
C7420 C 0.96003 0.66395 0.15348 0.0
C7421 C 0.97724 0.6696 0.1416 0.0
C7422 C 0.97478 0.6806 0.12337 0.0
C7423 C 0.95502 0.68567 0.11716 0.0
C7424 C 0.93809 0.68018 0.12857 0.0
C7425 C 0.91879 0.68966 0.12026 0.0
C7426 C 0.9039 0.6732 0.11242 0.0
C7427 C 0.90852 0.70336 0.13633 0.0
C7428 C 0.92757 0.70199 0.10288 0.0
C7429 C 0.9484 0.69916 0.10089 0.0
C7430 C 0.95999 0.71073 0.08718 0.0
C7431 C 0.95012 0.7261 0.07586 0.0
C7432 C 0.92903 0.72968 0.07859 0.0
C7433 C 0.91767 0.71715 0.09184 0.0
H7434 H 0.13284 0.223 0.89637 0.0
H7435 H 0.12791 0.16779 0.93274 0.0
H7436 H 0.10453 0.15286 0.90718 0.0
H7437 H 0.07966 0.2229 0.87798 0.0
H7438 H 0.08594 0.23185 0.85276 0.0
H7439 H 0.10181 0.23893 0.87419 0.0
H7440 H 0.13338 0.22429 0.85577 0.0
H7441 H 0.11755 0.21699 0.83439 0.0
H7442 H 0.13304 0.19814 0.84724 0.0
H7443 H 0.08026 0.14505 0.88059 0.0
H7444 H 0.0559 0.14367 0.85248 0.0
H7445 H 0.07905 0.20059 0.82828 0.0
C7446 C 0.12668 0.20782 0.89884 0.0
C7447 C 0.13218 0.19635 0.91638 0.0
C7448 C 0.12392 0.17662 0.9193 0.0
C7449 C 0.11069 0.16806 0.90489 0.0
C7450 C 0.10599 0.17937 0.88751 0.0
C7451 C 0.11353 0.19883 0.8843 0.0
C7452 C 0.10571 0.20731 0.86402 0.0
C7453 C 0.09249 0.22637 0.86745 0.0
C7454 C 0.12349 0.21195 0.84949 0.0
C7455 C 0.0928 0.18941 0.85641 0.0
C7456 C 0.09316 0.1737 0.87054 0.0
C7457 C 0.0807 0.15663 0.86881 0.0
C7458 C 0.06735 0.15556 0.85231 0.0
C7459 C 0.06732 0.17056 0.8368 0.0
C7460 C 0.08002 0.18803 0.839 0.0
H7461 H 0.60406 0.40746 0.63594 0.0
H7462 H 0.57457 0.35959 0.67136 0.0
H7463 H 0.57057 0.33901 0.64077 0.0
H7464 H 0.57823 0.39566 0.58416 0.0
H7465 H 0.60213 0.40001 0.57121 0.0
H7466 H 0.59607 0.41438 0.59384 0.0
H7467 H 0.63004 0.40317 0.60898 0.0
H7468 H 0.63654 0.38628 0.58848 0.0
H7469 H 0.63442 0.37667 0.61426 0.0
H7470 H 0.5745 0.32106 0.60943 0.0
H7471 H 0.59254 0.30394 0.58193 0.0
H7472 H 0.62315 0.36052 0.56596 0.0
C7473 C 0.5963 0.39288 0.63714 0.0
C7474 C 0.58892 0.38569 0.65604 0.0
C7475 C 0.57944 0.36615 0.65701 0.0
C7476 C 0.57702 0.35422 0.6396 0.0
C7477 C 0.58448 0.36172 0.62125 0.0
C7478 C 0.5942 0.38046 0.61988 0.0
C7479 C 0.60503 0.38273 0.59961 0.0
C7480 C 0.59474 0.39918 0.58643 0.0
C7481 C 0.62789 0.38746 0.60295 0.0
C7482 C 0.60138 0.36166 0.59067 0.0
C7483 C 0.58842 0.35035 0.60297 0.0
C7484 C 0.58423 0.32986 0.59938 0.0
C7485 C 0.59451 0.32027 0.58359 0.0
C7486 C 0.60889 0.33107 0.57165 0.0
C7487 C 0.61162 0.35224 0.57447 0.0
H7488 H 0.14626 0.43003 0.20253 0.0
H7489 H 0.12639 0.48499 0.233 0.0
H7490 H 0.16204 0.49782 0.23357 0.0
H7491 H 0.20099 0.42863 0.22677 0.0
H7492 H 0.21162 0.41983 0.20307 0.0
H7493 H 0.18617 0.41207 0.21041 0.0
H7494 H 0.17216 0.42573 0.1762 0.0
H7495 H 0.19719 0.434 0.16868 0.0
H7496 H 0.17644 0.45211 0.16954 0.0
H7497 H 0.19725 0.50746 0.22523 0.0
H7498 H 0.22738 0.51543 0.20475 0.0
H7499 H 0.22555 0.45499 0.17835 0.0
C7500 C 0.14972 0.44439 0.21001 0.0
C7501 C 0.13383 0.45652 0.21797 0.0
C7502 C 0.13851 0.4755 0.22706 0.0
C7503 C 0.15872 0.48274 0.22762 0.0
C7504 C 0.17411 0.4707 0.21922 0.0
C7505 C 0.1699 0.45183 0.21064 0.0
C7506 C 0.18847 0.44362 0.19951 0.0
C7507 C 0.19732 0.42492 0.21061 0.0
C7508 C 0.18328 0.43858 0.17714 0.0
C7509 C 0.20298 0.46169 0.20136 0.0
C7510 C 0.19479 0.47662 0.21379 0.0
C7511 C 0.20419 0.4956 0.21615 0.0
C7512 C 0.22167 0.49989 0.20467 0.0
C7513 C 0.22944 0.48545 0.1907 0.0
C7514 C 0.22052 0.46583 0.18972 0.0
H7515 H 0.29926 0.46037 0.95167 0.0
H7516 H 0.35214 0.48076 0.91803 0.0
H7517 H 0.3729 0.45388 0.934 0.0
H7518 H 0.32828 0.43547 0.99715 0.0
H7519 H 0.30997 0.4148 0.9974 0.0
H7520 H 0.30193 0.44024 0.99052 0.0
H7521 H 0.28722 0.42618 0.95661 0.0
H7522 H 0.29548 0.4009 0.96312 0.0
H7523 H 0.30383 0.4124 0.93958 0.0
H7524 H 0.38385 0.4183 0.94248 0.0
H7525 H 0.38642 0.38139 0.94965 0.0
H7526 H 0.32572 0.38211 0.97608 0.0
C7527 C 0.31553 0.45979 0.94867 0.0
C7528 C 0.32446 0.47348 0.93466 0.0
C7529 C 0.34539 0.47159 0.9299 0.0
C7530 C 0.3571 0.45577 0.93837 0.0
C7531 C 0.34733 0.44134 0.95063 0.0
C7532 C 0.32708 0.44348 0.9562 0.0
C7533 C 0.31919 0.42448 0.96683 0.0
C7534 C 0.31458 0.42902 0.98932 0.0
C7535 C 0.30032 0.41548 0.95586 0.0
C7536 C 0.33754 0.41067 0.96479 0.0
C7537 C 0.35378 0.42077 0.95579 0.0
C7538 C 0.37152 0.41047 0.95024 0.0
C7539 C 0.37278 0.38944 0.95428 0.0
C7540 C 0.3563 0.3788 0.96356 0.0
C7541 C 0.33857 0.38973 0.96897 0.0
H7542 H 0.3872 0.64706 0.6909 0.0
H7543 H 0.39796 0.62495 0.7526 0.0
H7544 H 0.36765 0.60289 0.74967 0.0
H7545 H 0.32881 0.64618 0.69666 0.0
H7546 H 0.32685 0.64059 0.66977 0.0
H7547 H 0.34747 0.6563 0.67914 0.0
H7548 H 0.37327 0.63113 0.6617 0.0
H7549 H 0.35161 0.61678 0.65309 0.0
H7550 H 0.37146 0.60427 0.66773 0.0
H7551 H 0.34052 0.57885 0.73748 0.0
H7552 H 0.31984 0.5551 0.71693 0.0
H7553 H 0.3237 0.5961 0.66537 0.0
C7554 C 0.3829 0.63834 0.70422 0.0
C7555 C 0.39541 0.63779 0.72182 0.0
C7556 C 0.3892 0.62541 0.73857 0.0
C7557 C 0.37168 0.61304 0.73726 0.0
C7558 C 0.35996 0.61383 0.7195 0.0
C7559 C 0.36517 0.62647 0.70346 0.0
C7560 C 0.35088 0.62369 0.68555 0.0
C7561 C 0.33769 0.64283 0.68264 0.0
C7562 C 0.36258 0.61861 0.66591 0.0
C7563 C 0.33819 0.60586 0.69308 0.0
C7564 C 0.34316 0.60086 0.71303 0.0
C7565 C 0.33574 0.58316 0.72225 0.0
C7566 C 0.32369 0.56983 0.71055 0.0
C7567 C 0.31909 0.57433 0.68996 0.0
C7568 C 0.32595 0.59283 0.68136 0.0
H7569 H 0.1724 0.66152 0.42264 0.0
H7570 H 0.17427 0.65848 0.48873 0.0
H7571 H 0.18878 0.62375 0.48676 0.0
H7572 H 0.15967 0.60682 0.41345 0.0
H7573 H 0.176 0.6057 0.39148 0.0
H7574 H 0.16321 0.62919 0.39775 0.0
H7575 H 0.19753 0.6487 0.39868 0.0
H7576 H 0.2109 0.62589 0.39201 0.0
H7577 H 0.21802 0.63955 0.41474 0.0
H7578 H 0.20852 0.59131 0.47695 0.0
H7579 H 0.23245 0.56726 0.46024 0.0
H7580 H 0.2141 0.5909 0.40149 0.0
C7581 C 0.175 0.65333 0.43676 0.0
C7582 C 0.17207 0.66286 0.45578 0.0
C7583 C 0.17658 0.65171 0.47387 0.0
C7584 C 0.18459 0.6318 0.47293 0.0
C7585 C 0.18758 0.623 0.45382 0.0
C7586 C 0.18269 0.63347 0.43609 0.0
C7587 C 0.18941 0.62198 0.41741 0.0
C7588 C 0.17096 0.61556 0.40425 0.0
C7589 C 0.20487 0.63477 0.40501 0.0
C7590 C 0.19938 0.60366 0.42729 0.0
C7591 C 0.19811 0.60422 0.4483 0.0
C7592 C 0.20902 0.59037 0.46048 0.0
C7593 C 0.22239 0.57652 0.45091 0.0
C7594 C 0.22465 0.57682 0.42949 0.0
C7595 C 0.21207 0.5897 0.41773 0.0
H7596 H 0.12163 0.57281 0.34437 0.0
H7597 H 0.12962 0.63861 0.34593 0.0
H7598 H 0.16703 0.63431 0.34722 0.0
H7599 H 0.15838 0.56354 0.38079 0.0
H7600 H 0.16715 0.53975 0.37006 0.0
H7601 H 0.14142 0.54807 0.36551 0.0
H7602 H 0.14713 0.54608 0.32654 0.0
H7603 H 0.17299 0.53763 0.33091 0.0
H7604 H 0.16822 0.55978 0.31523 0.0
H7605 H 0.20336 0.62283 0.35223 0.0
H7606 H 0.23428 0.60504 0.36502 0.0
H7607 H 0.20256 0.54705 0.35905 0.0
C7608 C 0.13125 0.58631 0.34473 0.0
C7609 C 0.12268 0.60599 0.3448 0.0
C7610 C 0.13583 0.62332 0.34545 0.0
C7611 C 0.15712 0.62106 0.34609 0.0
C7612 C 0.16508 0.6014 0.34592 0.0
C7613 C 0.15251 0.58433 0.34534 0.0
C7614 C 0.16459 0.56494 0.34805 0.0
C7615 C 0.1575 0.55339 0.36726 0.0
C7616 C 0.16314 0.55132 0.32904 0.0
C7617 C 0.18584 0.57377 0.35066 0.0
C7618 C 0.18597 0.5948 0.34907 0.0
C7619 C 0.20357 0.60633 0.35314 0.0
C7620 C 0.22111 0.59614 0.36022 0.0
C7621 C 0.22058 0.57479 0.36334 0.0
C7622 C 0.20324 0.56347 0.3571 0.0
H7623 H 0.19818 0.37339 0.09526 0.0
H7624 H 0.14214 0.38837 0.12711 0.0
H7625 H 0.15468 0.42369 0.13174 0.0
H7626 H 0.23227 0.39953 0.1239 0.0
H7627 H 0.24759 0.40825 0.10261 0.0
H7628 H 0.23269 0.38541 0.10031 0.0
H7629 H 0.21607 0.40154 0.06797 0.0
H7630 H 0.23063 0.42472 0.07164 0.0
H7631 H 0.20315 0.42571 0.07001 0.0
H7632 H 0.17385 0.45742 0.13343 0.0
H7633 H 0.20046 0.48377 0.13878 0.0
H7634 H 0.24444 0.44603 0.10727 0.0
C7635 C 0.18813 0.38416 0.10262 0.0
C7636 C 0.16904 0.37787 0.11072 0.0
C7637 C 0.15689 0.39255 0.12091 0.0
C7638 C 0.16374 0.4128 0.12333 0.0
C7639 C 0.18262 0.41836 0.11515 0.0
C7640 C 0.1946 0.40445 0.10493 0.0
C7641 C 0.215 0.41376 0.09904 0.0
C7642 C 0.23295 0.40097 0.10703 0.0
C7643 C 0.21628 0.41659 0.07578 0.0
C7644 C 0.21358 0.43429 0.10954 0.0
C7645 C 0.19429 0.43716 0.11757 0.0
C7646 C 0.18907 0.45522 0.12743 0.0
C7647 C 0.20424 0.47021 0.13019 0.0
C7648 C 0.22449 0.46691 0.1234 0.0
C7649 C 0.22906 0.4489 0.11257 0.0
H7650 H 0.34085 0.45026 0.88613 0.0
H7651 H 0.33956 0.50179 0.84503 0.0
H7652 H 0.37091 0.49041 0.82891 0.0
H7653 H 0.38818 0.45513 0.89875 0.0
H7654 H 0.39688 0.42904 0.89996 0.0
H7655 H 0.37027 0.43448 0.9033 0.0
H7656 H 0.35903 0.41125 0.87433 0.0
H7657 H 0.38535 0.40381 0.8711 0.0
H7658 H 0.37093 0.4135 0.84969 0.0
H7659 H 0.40569 0.47876 0.82237 0.0
H7660 H 0.44142 0.46678 0.82555 0.0
H7661 H 0.4231 0.42468 0.87321 0.0
C7662 C 0.3464 0.45804 0.87264 0.0
C7663 C 0.33657 0.47582 0.86543 0.0
C7664 C 0.34536 0.48695 0.84917 0.0
C7665 C 0.36367 0.48086 0.8403 0.0
C7666 C 0.37347 0.4638 0.84819 0.0
C7667 C 0.3651 0.45231 0.86386 0.0
C7668 C 0.3805 0.43686 0.87176 0.0
C7669 C 0.3842 0.43908 0.89482 0.0
C7670 C 0.37354 0.41506 0.86639 0.0
C7671 C 0.39923 0.44295 0.85958 0.0
C7672 C 0.39458 0.45794 0.8455 0.0
C7673 C 0.40948 0.46677 0.8331 0.0
C7674 C 0.42971 0.46004 0.8351 0.0
C7675 C 0.43489 0.4451 0.8498 0.0
C7676 C 0.41944 0.43631 0.86203 0.0
H7677 H 0.34365 0.65511 0.55824 0.0
H7678 H 0.40343 0.65737 0.58702 0.0
H7679 H 0.39389 0.62831 0.60937 0.0
H7680 H 0.3153 0.64393 0.60325 0.0
H7681 H 0.29755 0.62716 0.59012 0.0
H7682 H 0.30948 0.6479 0.57665 0.0
H7683 H 0.32294 0.62242 0.54991 0.0
H7684 H 0.31161 0.60137 0.56354 0.0
H7685 H 0.33855 0.60123 0.55801 0.0
H7686 H 0.3791 0.59613 0.62469 0.0
H7687 H 0.35618 0.56999 0.64014 0.0
H7688 H 0.30585 0.59276 0.60381 0.0
C7689 C 0.35449 0.64964 0.56954 0.0
C7690 C 0.3741 0.65801 0.57117 0.0
C7691 C 0.3882 0.65084 0.58593 0.0
C7692 C 0.38307 0.63431 0.59836 0.0
C7693 C 0.36383 0.62559 0.59569 0.0
C7694 C 0.34956 0.63344 0.58214 0.0
C7695 C 0.32971 0.62197 0.58272 0.0
C7696 C 0.31195 0.63608 0.58858 0.0
C7697 C 0.32548 0.61111 0.56232 0.0
C7698 C 0.33479 0.60688 0.59923 0.0
C7699 C 0.35483 0.60843 0.60581 0.0
C7700 C 0.36327 0.59492 0.61994 0.0
C7701 C 0.35032 0.58016 0.62847 0.0
C7702 C 0.32945 0.57971 0.62288 0.0
C7703 C 0.32175 0.59291 0.60802 0.0
H7704 H 0.19339 0.14403 0.4235 0.0
H7705 H 0.23532 0.12295 0.47028 0.0
H7706 H 0.24228 0.15862 0.48031 0.0
H7707 H 0.22353 0.19694 0.41495 0.0
H7708 H 0.19951 0.2094 0.4099 0.0
H7709 H 0.20351 0.18349 0.4015 0.0
H7710 H 0.1709 0.17301 0.42005 0.0
H7711 H 0.16675 0.19794 0.43042 0.0
H7712 H 0.16932 0.17618 0.44721 0.0
H7713 H 0.23828 0.19355 0.49062 0.0
H7714 H 0.22106 0.22405 0.50289 0.0
H7715 H 0.1811 0.22407 0.45036 0.0
C7716 C 0.20438 0.14713 0.43553 0.0
C7717 C 0.21359 0.13099 0.44645 0.0
C7718 C 0.22802 0.13526 0.46196 0.0
C7719 C 0.23233 0.15545 0.46745 0.0
C7720 C 0.22257 0.17114 0.45681 0.0
C7721 C 0.20916 0.16729 0.44087 0.0
C7722 C 0.19817 0.18661 0.4343 0.0
C7723 C 0.20669 0.19456 0.41395 0.0
C7724 C 0.17489 0.1833 0.43295 0.0
C7725 C 0.20449 0.20075 0.45149 0.0
C7726 C 0.2199 0.19203 0.46318 0.0
C7727 C 0.22681 0.20087 0.48118 0.0
C7728 C 0.21695 0.2183 0.4881 0.0
C7729 C 0.20017 0.22653 0.47736 0.0
C7730 C 0.19445 0.21835 0.45833 0.0
H7731 H 0.70902 0.32464 0.56144 0.0
H7732 H 0.64874 0.33691 0.58577 0.0
H7733 H 0.6632 0.35924 0.611 0.0
H7734 H 0.73774 0.33195 0.61151 0.0
H7735 H 0.75859 0.34485 0.59891 0.0
H7736 H 0.74433 0.32523 0.58572 0.0
H7737 H 0.73715 0.35081 0.55642 0.0
H7738 H 0.75057 0.37082 0.56981 0.0
H7739 H 0.72438 0.37451 0.56196 0.0
H7740 H 0.68043 0.38708 0.62632 0.0
H7741 H 0.70446 0.41129 0.64202 0.0
H7742 H 0.75467 0.38358 0.60901 0.0
C7743 C 0.69907 0.33144 0.57268 0.0
C7744 C 0.67775 0.32826 0.57199 0.0
C7745 C 0.665 0.33823 0.58611 0.0
C7746 C 0.67303 0.3515 0.60041 0.0
C7747 C 0.69367 0.35559 0.59968 0.0
C7748 C 0.70681 0.34556 0.58673 0.0
C7749 C 0.72822 0.3543 0.58843 0.0
C7750 C 0.74311 0.33812 0.59665 0.0
C7751 C 0.73549 0.36313 0.56793 0.0
C7752 C 0.72455 0.37109 0.60385 0.0
C7753 C 0.70433 0.37164 0.60971 0.0
C7754 C 0.6965 0.38653 0.62249 0.0
C7755 C 0.71015 0.40044 0.63097 0.0
C7756 C 0.73125 0.39904 0.6267 0.0
C7757 C 0.73853 0.38471 0.61246 0.0
H7758 H 0.48957 0.9435 0.35453 0.0
H7759 H 0.46517 0.957 0.2945 0.0
H7760 H 0.43763 0.97704 0.30974 0.0
H7761 H 0.44838 0.93494 0.38042 0.0
H7762 H 0.45508 0.94829 0.40338 0.0
H7763 H 0.47493 0.93955 0.38682 0.0
H7764 H 0.48772 0.97789 0.38585 0.0
H7765 H 0.46632 0.98561 0.40128 0.0
H7766 H 0.47054 0.99743 0.37681 0.0
H7767 H 0.40799 0.98287 0.33014 0.0
H7768 H 0.38043 0.98131 0.35519 0.0
H7769 H 0.4246 0.96924 0.40331 0.0
C7770 C 0.47896 0.9516 0.34474 0.0
C7771 C 0.47865 0.94814 0.32359 0.0
C7772 C 0.46483 0.95879 0.3109 0.0
C7773 C 0.44944 0.97056 0.31937 0.0
C7774 C 0.44885 0.97229 0.34048 0.0
C7775 C 0.46375 0.96395 0.35305 0.0
C7776 C 0.45811 0.96628 0.37529 0.0
C7777 C 0.45928 0.94602 0.38714 0.0
C7778 C 0.47146 0.98279 0.3854 0.0
C7779 C 0.43631 0.97347 0.37293 0.0
C7780 C 0.43162 0.97768 0.35275 0.0
C7781 C 0.41164 0.98075 0.34612 0.0
C7782 C 0.39607 0.97955 0.36044 0.0
C7783 C 0.40055 0.97542 0.38121 0.0
C7784 C 0.42091 0.97262 0.38755 0.0
H7785 H 0.83065 0.63539 0.09534 0.0
H7786 H 0.82132 0.65915 0.15593 0.0
H7787 H 0.82129 0.6943 0.14231 0.0
H7788 H 0.86661 0.66279 0.0836 0.0
H7789 H 0.86172 0.66852 0.05713 0.0
H7790 H 0.85088 0.6461 0.06828 0.0
H7791 H 0.81442 0.65731 0.0582 0.0
H7792 H 0.82516 0.67965 0.04611 0.0
H7793 H 0.80546 0.68239 0.06503 0.0
H7794 H 0.8358 0.72457 0.12575 0.0
H7795 H 0.85889 0.74747 0.10646 0.0
H7796 H 0.85845 0.7044 0.05644 0.0
C7797 C 0.82722 0.64808 0.10532 0.0
C7798 C 0.826 0.64505 0.12643 0.0
C7799 C 0.82209 0.66153 0.1396 0.0
C7800 C 0.822 0.68147 0.13195 0.0
C7801 C 0.82555 0.68433 0.11118 0.0
C7802 C 0.82732 0.66797 0.09782 0.0
C7803 C 0.83571 0.67462 0.07744 0.0
C7804 C 0.85486 0.66231 0.07132 0.0
C7805 C 0.81919 0.67344 0.06072 0.0
C7806 C 0.8409 0.69647 0.08241 0.0
C7807 C 0.83426 0.70216 0.10152 0.0
C7808 C 0.84033 0.72061 0.11041 0.0
C7809 C 0.85362 0.7334 0.09949 0.0
C7810 C 0.86086 0.72737 0.08016 0.0
C7811 C 0.85386 0.70905 0.07146 0.0
H7812 H 0.59518 0.59864 0.30442 0.0
H7813 H 0.55952 0.61127 0.35837 0.0
H7814 H 0.58473 0.59237 0.37935 0.0
H7815 H 0.62093 0.54926 0.32115 0.0
H7816 H 0.64466 0.55777 0.31001 0.0
H7817 H 0.62062 0.56498 0.29854 0.0
H7818 H 0.63135 0.60284 0.30071 0.0
H7819 H 0.6551 0.59616 0.3124 0.0
H7820 H 0.63822 0.61358 0.3252 0.0
H7821 H 0.6172 0.58146 0.39498 0.0
H7822 H 0.65398 0.58221 0.40388 0.0
H7823 H 0.66948 0.57844 0.34001 0.0
C7824 C 0.59246 0.59698 0.32061 0.0
C7825 C 0.57582 0.60661 0.33 0.0
C7826 C 0.57231 0.60389 0.35103 0.0
C7827 C 0.58648 0.59309 0.36297 0.0
C7828 C 0.60375 0.58505 0.35345 0.0
C7829 C 0.60668 0.58683 0.33262 0.0
C7830 C 0.62824 0.58154 0.32652 0.0
C7831 C 0.62862 0.56222 0.31328 0.0
C7832 C 0.63882 0.59962 0.3156 0.0
C7833 C 0.63745 0.57772 0.34729 0.0
C7834 C 0.62297 0.57908 0.36261 0.0
C7835 C 0.62855 0.57969 0.38317 0.0
C7836 C 0.64941 0.58012 0.38811 0.0
C7837 C 0.66416 0.5803 0.37247 0.0
C7838 C 0.6582 0.5779 0.35205 0.0
H7839 H 0.37444 0.83407 0.95501 0.0
H7840 H 0.34526 0.83552 1.01409 0.0
H7841 H 0.32834 0.86741 1.00533 0.0
H7842 H 0.3878 0.88259 0.95338 0.0
H7843 H 0.38315 0.88735 0.92663 0.0
H7844 H 0.38761 0.86176 0.93534 0.0
H7845 H 0.35292 0.8508 0.9189 0.0
H7846 H 0.34835 0.87681 0.91103 0.0
H7847 H 0.32986 0.8636 0.92657 0.0
H7848 H 0.3224 0.90251 0.99511 0.0
H7849 H 0.32556 0.93786 0.98205 0.0
H7850 H 0.35847 0.91561 0.9295 0.0
C7851 C 0.3634 0.8405 0.96541 0.0
C7852 C 0.36056 0.83186 0.98491 0.0
C7853 C 0.34699 0.84132 0.99874 0.0
C7854 C 0.33734 0.85962 0.99395 0.0
C7855 C 0.34127 0.86846 0.97514 0.0
C7856 C 0.35354 0.85906 0.96078 0.0
C7857 C 0.35748 0.87344 0.94303 0.0
C7858 C 0.38042 0.87646 0.93936 0.0
C7859 C 0.3465 0.86571 0.92373 0.0
C7860 C 0.34777 0.89286 0.9509 0.0
C7861 C 0.33782 0.88941 0.96912 0.0
C7862 C 0.32963 0.90534 0.98057 0.0
C7863 C 0.33172 0.92534 0.97324 0.0
C7864 C 0.34239 0.92921 0.955 0.0
C7865 C 0.35022 0.91282 0.94352 0.0
H7866 H 0.3934 0.10682 0.17627 0.0
H7867 H 0.37304 0.06759 0.22538 0.0
H7868 H 0.40888 0.06112 0.23519 0.0
H7869 H 0.44653 0.0772 0.16817 0.0
H7870 H 0.45857 0.10129 0.16225 0.0
H7871 H 0.43255 0.09641 0.15425 0.0
H7872 H 0.42223 0.12943 0.17164 0.0
H7873 H 0.44704 0.1345 0.18223 0.0
H7874 H 0.42514 0.13185 0.19877 0.0
H7875 H 0.44288 0.06735 0.24588 0.0
H7876 H 0.47221 0.08685 0.2579 0.0
H7877 H 0.47399 0.12082 0.20136 0.0
C7878 C 0.39676 0.09646 0.18873 0.0
C7879 C 0.38086 0.08799 0.20047 0.0
C7880 C 0.38527 0.07439 0.21655 0.0
C7881 C 0.40553 0.07032 0.22188 0.0
C7882 C 0.42107 0.07948 0.21052 0.0
C7883 C 0.417 0.09193 0.19392 0.0
C7884 C 0.43614 0.10294 0.18681 0.0
C7885 C 0.44389 0.09391 0.16668 0.0
C7886 C 0.4325 0.12608 0.18477 0.0
C7887 C 0.45056 0.09756 0.20414 0.0
C7888 C 0.44192 0.08287 0.21678 0.0
C7889 C 0.45033 0.07797 0.23564 0.0
C7890 C 0.46718 0.08909 0.24233 0.0
C7891 C 0.47587 0.10452 0.23004 0.0
C7892 C 0.46812 0.10824 0.21037 0.0
H7893 H 0.17186 0.97115 0.73156 0.0
H7894 H 0.17224 0.94176 0.67231 0.0
H7895 H 0.1351 0.9355 0.67487 0.0
H7896 H 0.13966 0.93613 0.75368 0.0
H7897 H 0.12636 0.95384 0.7699 0.0
H7898 H 0.15204 0.95932 0.76197 0.0
H7899 H 0.14052 0.99382 0.74654 0.0
H7900 H 0.11462 0.9887 0.75445 0.0
H7901 H 0.11997 0.99435 0.72808 0.0
H7902 H 0.09988 0.92718 0.68631 0.0
H7903 H 0.07135 0.91495 0.70701 0.0
H7904 H 0.09165 0.95251 0.75728 0.0
C7905 C 0.16407 0.96358 0.71904 0.0
C7906 C 0.17492 0.95699 0.70172 0.0
C7907 C 0.16419 0.94712 0.68565 0.0
C7908 C 0.14306 0.94364 0.68689 0.0
C7909 C 0.13278 0.95041 0.70415 0.0
C7910 C 0.14294 0.96017 0.71995 0.0
C7911 C 0.12894 0.96362 0.73789 0.0
C7912 C 0.13722 0.95258 0.75699 0.0
C7913 C 0.12584 0.98649 0.74196 0.0
C7914 C 0.10947 0.95375 0.72994 0.0
C7915 C 0.1119 0.94642 0.71035 0.0
C7916 C 0.09736 0.93364 0.70127 0.0
C7917 C 0.08069 0.92709 0.71301 0.0
C7918 C 0.07856 0.93357 0.73341 0.0
C7919 C 0.09238 0.94815 0.74135 0.0
loop_
_geom_bond_atom_site_label_1
_geom_bond_atom_site_label_2
_geom_bond_distance
_geom_bond_site_symmetry_2
_ccdc_geom_bond_type
Eu0 N31 2.657 1_455 S
Eu0 N38 2.609 1_455 S
Eu0 O44 2.554 1_455 S
Eu0 O45 2.612 . S
Eu0 O47 2.339 1_455 S
Eu0 O48 2.563 . S
Eu0 O49 2.419 1_455 S
Eu0 O51 2.380 . S
Eu0 O52 2.432 . S
Eu0 C64 2.848 1_455 S
C1 C4 1.429 . S
C1 C5 1.411 . S
C1 N8 1.377 . S
C2 C4 1.420 . S
C2 C6 1.423 . S
C2 C14 1.392 . S
C3 C5 1.420 . S
C3 C6 1.351 . S
C3 H26 0.931 . S
C4 C1 1.429 . S
C4 C2 1.420 . S
C4 N12 1.362 . S
C5 C1 1.411 . S
C5 C3 1.420 . S
C5 C10 1.395 . S
C6 C2 1.423 . S
C6 C3 1.351 . S
C6 H18 0.930 . S
C7 C9 1.400 . S
C7 C10 1.386 . S
C7 H19 0.930 . S
N8 C1 1.377 . S
N8 C9 1.321 . S
N8 Eu11 2.609 . S
C9 C7 1.400 . S
C9 N8 1.321 . S
C9 H16 0.930 . S
C10 C5 1.395 . S
C10 C7 1.386 . S
C10 H29 0.930 . S
Eu11 N8 2.609 . S
Eu11 N12 2.657 . S
Eu11 O45 2.380 . S
Eu11 O46 2.432 . S
Eu11 O50 2.558 . S
Eu11 O51 2.612 . S
Eu11 O53 2.339 . S
Eu11 O54 2.563 . S
Eu11 O55 2.419 . S
Eu11 C75 2.848 . S
N12 C4 1.362 . S
N12 Eu11 2.657 . S
N12 C13 1.334 . S
C13 N12 1.334 . S
C13 C15 1.413 . S
C13 H20 0.929 . S
C14 C2 1.392 . S
C14 C15 1.367 . S
C14 H22 0.930 . S
C15 C13 1.413 . S
C15 C14 1.367 . S
C15 H17 0.930 . S
H16 C9 0.930 . S
H17 C15 0.930 . S
H18 C6 0.930 . S
H19 C7 0.930 . S
H20 C13 0.929 . S
H21 C35 0.930 . S
H22 C14 0.930 . S
H23 C41 0.930 . S
H24 C32 0.929 . S
H25 C39 0.946 . S
H26 C3 0.931 . S
H27 C33 0.930 . S
H28 C66 0.930 . S
H29 C10 0.930 . S
H30 C65 0.931 . S
N31 Eu0 2.657 1_655 S
N31 C32 1.334 . S
N31 C36 1.362 . S
C32 H24 0.929 . S
C32 N31 1.334 . S
C32 C35 1.413 . S
C33 H27 0.930 . S
C33 C34 1.392 . S
C33 C35 1.367 . S
C34 C33 1.392 . S
C34 C36 1.420 . S
C34 C66 1.423 . S
C35 H21 0.930 . S
C35 C32 1.413 . S
C35 C33 1.367 . S
C36 N31 1.362 . S
C36 C34 1.420 . S
C36 C40 1.429 . S
H37 C42 0.930 . S
N38 Eu0 2.609 1_655 S
N38 C40 1.377 . S
N38 C41 1.321 1_655 S
C39 H25 0.946 . S
C39 C41 1.411 . S
C39 C42 1.358 1_455 S
C40 C36 1.429 . S
C40 N38 1.377 . S
C40 C43 1.411 . S
C41 H23 0.930 . S
C41 N38 1.321 1_455 S
C41 C39 1.411 . S
C42 H37 0.930 . S
C42 C39 1.358 1_655 S
C42 C43 1.395 . S
C43 C40 1.411 . S
C43 C42 1.395 . S
C43 C65 1.420 . S
O44 Eu0 2.554 1_655 S
O44 C64 1.270 . S
O45 Eu0 2.612 . S
O45 Eu11 2.380 . S
O45 C56 1.276 . S
O46 Eu11 2.432 . S
O46 C63 1.264 . S
O47 Eu0 2.339 1_655 S
O47 C63 1.254 1_655 S
O48 Eu0 2.563 . S
O48 C56 1.235 . S
O49 Eu0 2.419 1_655 S
O49 C64 1.249 . S
O50 Eu11 2.558 . S
O50 C75 1.257 . S
O51 Eu0 2.380 . S
O51 Eu11 2.612 . S
O51 C67 1.276 . S
O52 Eu0 2.432 . S
O52 C74 1.264 . S
O53 Eu11 2.339 . S
O53 C74 1.254 . S
O54 Eu11 2.563 . S
O54 C67 1.235 . S
O55 Eu11 2.419 . S
O55 C75 1.249 . S
C56 O45 1.276 . S
C56 O48 1.235 . S
C57 C59 1.393 . S
C57 C61 1.395 . S
C57 C64 1.492 . S
C58 C59 1.392 . S
C58 C60 1.386 . S
C59 C57 1.393 . S
C59 C58 1.392 . S
C59 H76 0.930 . S
C60 C58 1.386 . S
C60 C62 1.395 . S
C60 H77 0.930 . S
C61 C57 1.395 . S
C61 C62 1.379 . S
C61 H78 0.930 . S
C62 C60 1.395 . S
C62 C61 1.379 . S
C62 H79 0.930 . S
C63 O46 1.264 . S
C63 O47 1.254 1_455 S
C64 Eu0 2.848 1_655 S
C64 O44 1.270 . S
C64 O49 1.249 . S
C64 C57 1.492 . S
C65 H30 0.931 . S
C65 C43 1.420 . S
C65 C66 1.351 . S
C66 H28 0.930 . S
C66 C34 1.423 . S
C66 C65 1.351 . S
C67 O51 1.276 . S
C67 O54 1.235 . S
C68 C69 1.393 . S
C68 C72 1.395 . S
C68 C75 1.492 . S
C69 C68 1.393 . S
C69 C70 1.392 . S
C69 H80 0.930 . S
C70 C69 1.392 . S
C70 C71 1.386 . S
C71 C70 1.386 . S
C71 C73 1.395 . S
C71 H81 0.930 . S
C72 C68 1.395 . S
C72 C73 1.379 . S
C72 H82 0.930 . S
C73 C71 1.395 . S
C73 C72 1.379 . S
C73 H83 0.930 . S
C74 O52 1.264 . S
C74 O53 1.254 . S
C75 Eu11 2.848 . S
C75 O50 1.257 . S
C75 O55 1.249 . S
C75 C68 1.492 . S
H76 C59 0.930 . S
H77 C60 0.930 . S
H78 C61 0.930 . S
H79 C62 0.930 . S
H80 C69 0.930 . S
H81 C71 0.930 . S
H82 C72 0.930 . S
H83 C73 0.930 . S
Eu84 N115 2.657 . S
Eu84 N122 2.609 . S
Eu84 O128 2.558 . S
Eu84 O129 2.612 . S
Eu84 O131 2.339 . S
Eu84 O132 2.563 . S
Eu84 O133 2.419 . S
Eu84 O135 2.380 . S
Eu84 O136 2.432 . S
Eu84 C148 2.848 . S
C85 C88 1.429 . S
C85 C89 1.411 . S
C85 N92 1.377 . S
C86 C88 1.420 . S
C86 C90 1.423 . S
C86 C98 1.392 . S
C87 C89 1.420 . S
C87 C90 1.351 . S
C87 H110 0.931 . S
C88 C85 1.429 . S
C88 C86 1.420 . S
C88 N96 1.362 . S
C89 C85 1.411 . S
C89 C87 1.420 . S
C89 C94 1.395 . S
C90 C86 1.423 . S
C90 C87 1.351 . S
C90 H102 0.930 . S
C91 C93 1.400 . S
C91 C94 1.386 . S
C91 H103 0.930 . S
N92 C85 1.377 . S
N92 C93 1.321 . S
N92 Eu95 2.609 . S
C93 C91 1.400 . S
C93 N92 1.321 . S
C93 H100 0.930 . S
C94 C89 1.395 . S
C94 C91 1.386 . S
C94 H113 0.930 . S
Eu95 N92 2.609 . S
Eu95 N96 2.657 . S
Eu95 O129 2.380 . S
Eu95 O130 2.432 . S
Eu95 O134 2.558 . S
Eu95 O135 2.612 . S
Eu95 O137 2.339 . S
Eu95 O138 2.563 . S
Eu95 O139 2.419 . S
Eu95 C159 2.848 . S
N96 C88 1.362 . S
N96 Eu95 2.657 . S
N96 C97 1.334 . S
C97 N96 1.334 . S
C97 C99 1.413 . S
C97 H104 0.929 . S
C98 C86 1.392 . S
C98 C99 1.367 . S
C98 H106 0.930 . S
C99 C97 1.413 . S
C99 C98 1.367 . S
C99 H101 0.930 . S
H100 C93 0.930 . S
H101 C99 0.930 . S
H102 C90 0.930 . S
H103 C91 0.930 . S
H104 C97 0.929 . S
H105 C119 0.930 . S
H106 C98 0.930 . S
H107 C125 0.930 . S
H108 C116 0.929 . S
H109 C123 0.930 . S
H110 C87 0.931 . S
H111 C117 0.930 . S
H112 C150 0.930 . S
H113 C94 0.930 . S
H114 C149 0.931 . S
N115 Eu84 2.657 . S
N115 C116 1.334 . S
N115 C120 1.362 . S
C116 H108 0.929 . S
C116 N115 1.334 . S
C116 C119 1.413 . S
C117 H111 0.930 . S
C117 C118 1.392 . S
C117 C119 1.367 . S
C118 C117 1.392 . S
C118 C120 1.420 . S
C118 C150 1.423 . S
C119 H105 0.930 . S
C119 C116 1.413 . S
C119 C117 1.367 . S
C120 N115 1.362 . S
C120 C118 1.420 . S
C120 C124 1.429 . S
H121 C126 0.930 . S
N122 Eu84 2.609 . S
N122 C124 1.377 . S
N122 C125 1.321 . S
C123 H109 0.930 . S
C123 C125 1.400 . S
C123 C126 1.386 . S
C124 C120 1.429 . S
C124 N122 1.377 . S
C124 C127 1.411 . S
C125 H107 0.930 . S
C125 N122 1.321 . S
C125 C123 1.400 . S
C126 H121 0.930 . S
C126 C123 1.386 . S
C126 C127 1.395 . S
C127 C124 1.411 . S
C127 C126 1.395 . S
C127 C149 1.420 . S
O128 Eu84 2.558 . S
O128 C148 1.257 . S
O129 Eu84 2.612 . S
O129 Eu95 2.380 . S
O129 C140 1.276 . S
O130 Eu95 2.432 . S
O130 C147 1.264 . S
O131 Eu84 2.339 . S
O131 C147 1.254 . S
O132 Eu84 2.563 . S
O132 C140 1.235 . S
O133 Eu84 2.419 . S
O133 C148 1.249 . S
O134 Eu95 2.558 . S
O134 C159 1.257 . S
O135 Eu84 2.380 . S
O135 Eu95 2.612 . S
O135 C151 1.276 . S
O136 Eu84 2.432 . S
O136 C158 1.264 . S
O137 Eu95 2.339 . S
O137 C158 1.254 . S
O138 Eu95 2.563 . S
O138 C151 1.235 . S
O139 Eu95 2.419 . S
O139 C159 1.249 . S
C140 O129 1.276 . S
C140 O132 1.235 . S
C141 C143 1.393 . S
C141 C145 1.395 . S
C141 C148 1.492 . S
C142 C143 1.392 . S
C142 C144 1.386 . S
C143 C141 1.393 . S
C143 C142 1.392 . S
C143 H160 0.930 . S
C144 C142 1.386 . S
C144 C146 1.395 . S
C144 H161 0.930 . S
C145 C141 1.395 . S
C145 C146 1.379 . S
C145 H162 0.930 . S
C146 C144 1.395 . S
C146 C145 1.379 . S
C146 H163 0.930 . S
C147 O130 1.264 . S
C147 O131 1.254 . S
C148 Eu84 2.848 . S
C148 O128 1.257 . S
C148 O133 1.249 . S
C148 C141 1.492 . S
C149 H114 0.931 . S
C149 C127 1.420 . S
C149 C150 1.351 . S
C150 H112 0.930 . S
C150 C118 1.423 . S
C150 C149 1.351 . S
C151 O135 1.276 . S
C151 O138 1.235 . S
C152 C153 1.393 . S
C152 C156 1.395 . S
C152 C159 1.492 . S
C153 C152 1.393 . S
C153 C154 1.392 . S
C153 H164 0.930 . S
C154 C153 1.392 . S
C154 C155 1.386 . S
C155 C154 1.386 . S
C155 C157 1.395 . S
C155 H165 0.930 . S
C156 C152 1.395 . S
C156 C157 1.379 . S
C156 H166 0.930 . S
C157 C155 1.395 . S
C157 C156 1.379 . S
C157 H167 0.930 . S
C158 O136 1.264 . S
C158 O137 1.254 . S
C159 Eu95 2.848 . S
C159 O134 1.257 . S
C159 O139 1.249 . S
C159 C152 1.492 . S
H160 C143 0.930 . S
H161 C144 0.930 . S
H162 C145 0.930 . S
H163 C146 0.930 . S
H164 C153 0.930 . S
H165 C155 0.930 . S
H166 C156 0.930 . S
H167 C157 0.930 . S
Eu168 N199 2.657 . S
Eu168 N206 2.609 . S
Eu168 O212 2.558 . S
Eu168 O213 2.612 . S
Eu168 O215 2.339 . S
Eu168 O216 2.563 . S
Eu168 O217 2.419 . S
Eu168 O219 2.380 . S
Eu168 O220 2.432 . S
Eu168 C232 2.848 . S
C169 C172 1.429 . S
C169 C173 1.411 . S
C169 N176 1.377 . S
C170 C172 1.420 . S
C170 C174 1.423 . S
C170 C182 1.392 . S
C171 C173 1.420 . S
C171 C174 1.351 . S
C171 H194 0.931 . S
C172 C169 1.429 . S
C172 C170 1.420 . S
C172 N180 1.362 . S
C173 C169 1.411 . S
C173 C171 1.420 . S
C173 C178 1.395 . S
C174 C170 1.423 . S
C174 C171 1.351 . S
C174 H186 0.930 . S
C175 C177 1.400 . S
C175 C178 1.386 . S
C175 H187 0.930 . S
N176 C169 1.377 . S
N176 C177 1.321 . S
N176 Eu179 2.609 . S
C177 C175 1.400 . S
C177 N176 1.321 . S
C177 H184 0.930 . S
C178 C173 1.395 . S
C178 C175 1.386 . S
C178 H197 0.930 . S
Eu179 N176 2.609 . S
Eu179 N180 2.657 . S
Eu179 O213 2.380 . S
Eu179 O214 2.432 . S
Eu179 O218 2.558 . S
Eu179 O219 2.612 . S
Eu179 O221 2.339 . S
Eu179 O222 2.563 . S
Eu179 O223 2.419 . S
Eu179 C243 2.848 . S
N180 C172 1.362 . S
N180 Eu179 2.657 . S
N180 C181 1.334 . S
C181 N180 1.334 . S
C181 C183 1.413 . S
C181 H188 0.929 . S
C182 C170 1.392 . S
C182 C183 1.367 . S
C182 H190 0.930 . S
C183 C181 1.413 . S
C183 C182 1.367 . S
C183 H185 0.930 . S
H184 C177 0.930 . S
H185 C183 0.930 . S
H186 C174 0.930 . S
H187 C175 0.930 . S
H188 C181 0.929 . S
H189 C203 0.930 . S
H190 C182 0.930 . S
H191 C209 0.930 . S
H192 C200 0.929 . S
H193 C207 0.930 . S
H194 C171 0.931 . S
H195 C201 0.930 . S
H196 C234 0.930 . S
H197 C178 0.930 . S
H198 C233 0.931 . S
N199 Eu168 2.657 . S
N199 C200 1.334 . S
N199 C204 1.362 . S
C200 H192 0.929 . S
C200 N199 1.334 . S
C200 C203 1.413 . S
C201 H195 0.930 . S
C201 C202 1.392 . S
C201 C203 1.367 . S
C202 C201 1.392 . S
C202 C204 1.420 . S
C202 C234 1.423 . S
C203 H189 0.930 . S
C203 C200 1.413 . S
C203 C201 1.367 . S
C204 N199 1.362 . S
C204 C202 1.420 . S
C204 C208 1.429 . S
H205 C210 0.930 . S
N206 Eu168 2.609 . S
N206 C208 1.377 . S
N206 C209 1.321 . S
C207 H193 0.930 . S
C207 C209 1.400 . S
C207 C210 1.386 . S
C208 C204 1.429 . S
C208 N206 1.377 . S
C208 C211 1.411 . S
C209 H191 0.930 . S
C209 N206 1.321 . S
C209 C207 1.400 . S
C210 H205 0.930 . S
C210 C207 1.386 . S
C210 C211 1.395 . S
C211 C208 1.411 . S
C211 C210 1.395 . S
C211 C233 1.420 . S
O212 Eu168 2.558 . S
O212 C232 1.257 . S
O213 Eu168 2.612 . S
O213 Eu179 2.380 . S
O213 C224 1.276 . S
O214 Eu179 2.432 . S
O214 C231 1.264 . S
O215 Eu168 2.339 . S
O215 C231 1.254 . S
O216 Eu168 2.563 . S
O216 C224 1.235 . S
O217 Eu168 2.419 . S
O217 C232 1.249 . S
O218 Eu179 2.558 . S
O218 C243 1.257 . S
O219 Eu168 2.380 . S
O219 Eu179 2.612 . S
O219 C235 1.276 . S
O220 Eu168 2.432 . S
O220 C242 1.264 . S
O221 Eu179 2.339 . S
O221 C242 1.254 . S
O222 Eu179 2.563 . S
O222 C235 1.235 . S
O223 Eu179 2.419 . S
O223 C243 1.249 . S
C224 O213 1.276 . S
C224 O216 1.235 . S
C225 C227 1.393 . S
C225 C229 1.395 . S
C225 C232 1.492 . S
C226 C227 1.392 . S
C226 C228 1.386 . S
C227 C225 1.393 . S
C227 C226 1.392 . S
C227 H244 0.930 . S
C228 C226 1.386 . S
C228 C230 1.395 . S
C228 H245 0.930 . S
C229 C225 1.395 . S
C229 C230 1.379 . S
C229 H246 0.930 . S
C230 C228 1.395 . S
C230 C229 1.379 . S
C230 H247 0.930 . S
C231 O214 1.264 . S
C231 O215 1.254 . S
C232 Eu168 2.848 . S
C232 O212 1.257 . S
C232 O217 1.249 . S
C232 C225 1.492 . S
C233 H198 0.931 . S
C233 C211 1.420 . S
C233 C234 1.351 . S
C234 H196 0.930 . S
C234 C202 1.423 . S
C234 C233 1.351 . S
C235 O219 1.276 . S
C235 O222 1.235 . S
C236 C237 1.393 . S
C236 C240 1.395 . S
C236 C243 1.492 . S
C237 C236 1.393 . S
C237 C238 1.392 . S
C237 H248 0.930 . S
C238 C237 1.392 . S
C238 C239 1.386 . S
C239 C238 1.386 . S
C239 C241 1.395 . S
C239 H249 0.930 . S
C240 C236 1.395 . S
C240 C241 1.379 . S
C240 H250 0.930 . S
C241 C239 1.395 . S
C241 C240 1.379 . S
C241 H251 0.930 . S
C242 O220 1.264 . S
C242 O221 1.254 . S
C243 Eu179 2.848 . S
C243 O218 1.257 . S
C243 O223 1.249 . S
C243 C236 1.492 . S
H244 C227 0.930 . S
H245 C228 0.930 . S
H246 C229 0.930 . S
H247 C230 0.930 . S
H248 C237 0.930 . S
H249 C239 0.930 . S
H250 C240 0.930 . S
H251 C241 0.930 . S
Eu252 N283 2.657 . S
Eu252 N290 2.609 . S
Eu252 O296 2.558 . S
Eu252 O297 2.612 . S
Eu252 O299 2.339 . S
Eu252 O300 2.563 . S
Eu252 O301 2.419 . S
Eu252 O303 2.380 . S
Eu252 O304 2.432 . S
Eu252 C316 2.848 . S
C253 C256 1.429 . S
C253 C257 1.411 1_554 S
C253 N260 1.377 1_554 S
C254 C256 1.420 . S
C254 C258 1.423 . S
C254 C266 1.392 . S
C255 C257 1.420 1_554 S
C255 C258 1.351 . S
C255 H278 0.931 . S
C256 C253 1.429 . S
C256 C254 1.420 . S
C256 N264 1.362 . S
C257 C253 1.411 1_556 S
C257 C255 1.420 1_556 S
C257 C262 1.395 . S
C258 C254 1.423 . S
C258 C255 1.351 . S
C258 H270 0.930 . S
C259 C261 1.400 . S
C259 C262 1.386 . S
C259 H271 0.930 . S
N260 C253 1.377 1_556 S
N260 C261 1.321 . S
N260 Eu263 2.609 1_556 S
C261 C259 1.400 . S
C261 N260 1.321 . S
C261 H268 0.930 . S
C262 C257 1.395 . S
C262 C259 1.386 . S
C262 H281 0.930 . S
Eu263 N260 2.609 1_554 S
Eu263 N264 2.657 . S
Eu263 O297 2.380 . S
Eu263 O298 2.439 . S
Eu263 O302 2.558 1_554 S
Eu263 O303 2.612 . S
Eu263 O305 2.339 . S
Eu263 O306 2.563 1_554 S
Eu263 O307 2.419 1_554 S
Eu263 C327 2.848 1_554 S
N264 C256 1.362 . S
N264 Eu263 2.657 . S
N264 C265 1.334 . S
C265 N264 1.334 . S
C265 C267 1.413 . S
C265 H272 0.929 . S
C266 C254 1.392 . S
C266 C267 1.367 . S
C266 H274 0.930 . S
C267 C265 1.413 . S
C267 C266 1.367 . S
C267 H269 0.930 . S
H268 C261 0.930 . S
H269 C267 0.930 . S
H270 C258 0.930 . S
H271 C259 0.930 . S
H272 C265 0.929 . S
H273 C287 0.930 1_556 S
H274 C266 0.930 . S
H275 C293 0.930 . S
H276 C284 0.929 . S
H277 C291 0.930 . S
H278 C255 0.931 . S
H279 C285 0.930 . S
H280 C318 0.930 . S
H281 C262 0.930 . S
H282 C317 0.931 . S
N283 Eu252 2.657 . S
N283 C284 1.334 . S
N283 C288 1.362 . S
C284 H276 0.929 . S
C284 N283 1.334 . S
C284 C287 1.413 . S
C285 H279 0.930 . S
C285 C286 1.392 . S
C285 C287 1.367 . S
C286 C285 1.392 . S
C286 C288 1.420 . S
C286 C318 1.423 . S
C287 H273 0.930 1_554 S
C287 C284 1.413 . S
C287 C285 1.367 . S
C288 N283 1.362 . S
C288 C286 1.420 . S
C288 C292 1.429 . S
H289 C294 0.930 . S
N290 Eu252 2.609 . S
N290 C292 1.377 . S
N290 C293 1.321 . S
C291 H277 0.930 . S
C291 C293 1.400 . S
C291 C294 1.386 . S
C292 C288 1.429 . S
C292 N290 1.377 . S
C292 C295 1.411 . S
C293 H275 0.930 . S
C293 N290 1.321 . S
C293 C291 1.400 . S
C294 H289 0.930 . S
C294 C291 1.386 . S
C294 C295 1.395 . S
C295 C292 1.411 . S
C295 C294 1.395 . S
C295 C317 1.420 . S
O296 Eu252 2.558 . S
O296 C316 1.257 . S
O297 Eu252 2.612 . S
O297 Eu263 2.380 . S
O297 C308 1.276 . S
O298 Eu263 2.439 . S
O298 C315 1.290 . S
O299 Eu252 2.339 . S
O299 C315 1.254 . S
O300 Eu252 2.563 . S
O300 C308 1.235 . S
O301 Eu252 2.419 . S
O301 C316 1.249 . S
O302 Eu263 2.558 1_556 S
O302 C327 1.257 . S
O303 Eu252 2.380 . S
O303 Eu263 2.612 . S
O303 C319 1.276 . S
O304 Eu252 2.432 . S
O304 C326 1.264 . S
O305 Eu263 2.339 . S
O305 C326 1.254 . S
O306 Eu263 2.563 1_556 S
O306 C319 1.235 1_556 S
O307 Eu263 2.419 1_556 S
O307 C327 1.249 . S
C308 O297 1.276 . S
C308 O300 1.235 . S
C309 C311 1.393 . S
C309 C313 1.395 . S
C309 C316 1.492 . S
C310 C311 1.392 . S
C310 C312 1.386 . S
C311 C309 1.393 . S
C311 C310 1.392 . S
C311 H328 0.930 . S
C312 C310 1.386 . S
C312 C314 1.395 . S
C312 H329 0.930 . S
C313 C309 1.395 . S
C313 C314 1.379 . S
C313 H330 0.930 . S
C314 C312 1.395 . S
C314 C313 1.379 . S
C314 H331 0.930 . S
C315 O298 1.290 . S
C315 O299 1.254 . S
C316 Eu252 2.848 . S
C316 O296 1.257 . S
C316 O301 1.249 . S
C316 C309 1.492 . S
C317 H282 0.931 . S
C317 C295 1.420 . S
C317 C318 1.351 . S
C318 H280 0.930 . S
C318 C286 1.423 . S
C318 C317 1.351 . S
C319 O303 1.276 . S
C319 O306 1.235 1_554 S
C320 C321 1.393 . S
C320 C324 1.395 . S
C320 C327 1.492 . S
C321 C320 1.393 . S
C321 C322 1.392 . S
C321 H332 0.930 . S
C322 C321 1.392 . S
C322 C323 1.386 . S
C323 C322 1.386 . S
C323 C325 1.395 . S
C323 H333 0.930 . S
C324 C320 1.395 . S
C324 C325 1.379 . S
C324 H334 0.930 . S
C325 C323 1.395 . S
C325 C324 1.379 . S
C325 H335 0.930 . S
C326 O304 1.264 . S
C326 O305 1.254 . S
C327 Eu263 2.848 1_556 S
C327 O302 1.257 . S
C327 O307 1.249 . S
C327 C320 1.492 . S
H328 C311 0.930 . S
H329 C312 0.930 . S
H330 C313 0.930 . S
H331 C314 0.930 . S
H332 C321 0.930 . S
H333 C323 0.930 . S
H334 C324 0.930 . S
H335 C325 0.930 . S
Eu336 N367 2.657 1_455 S
Eu336 N374 2.609 1_455 S
Eu336 O380 2.558 1_455 S
Eu336 O381 2.612 . S
Eu336 O383 2.339 1_455 S
Eu336 O384 2.563 . S
Eu336 O385 2.419 1_455 S
Eu336 O387 2.380 . S
Eu336 O388 2.432 . S
Eu336 C400 2.848 1_455 S
C337 C340 1.429 . S
C337 C341 1.411 . S
C337 N344 1.377 . S
C338 C340 1.420 . S
C338 C342 1.423 . S
C338 C350 1.392 . S
C339 C341 1.420 . S
C339 C342 1.351 . S
C339 H362 0.931 . S
C340 C337 1.429 . S
C340 C338 1.420 . S
C340 N348 1.362 . S
C341 C337 1.411 . S
C341 C339 1.420 . S
C341 C346 1.395 . S
C342 C338 1.423 . S
C342 C339 1.351 . S
C342 H354 0.930 . S
C343 C345 1.400 . S
C343 C346 1.386 . S
C343 H355 0.930 . S
N344 C337 1.377 . S
N344 C345 1.321 . S
N344 Eu347 2.609 . S
C345 C343 1.400 . S
C345 N344 1.321 . S
C345 H352 0.930 . S
C346 C341 1.395 . S
C346 C343 1.386 . S
C346 H365 0.930 . S
Eu347 N344 2.609 . S
Eu347 N348 2.657 . S
Eu347 O381 2.380 . S
Eu347 O382 2.432 . S
Eu347 O386 2.558 . S
Eu347 O387 2.612 . S
Eu347 O389 2.339 . S
Eu347 O390 2.563 . S
Eu347 O391 2.419 . S
Eu347 C411 2.848 . S
N348 C340 1.362 . S
N348 Eu347 2.657 . S
N348 C349 1.334 . S
C349 N348 1.334 . S
C349 C351 1.413 . S
C349 H356 0.929 . S
C350 C338 1.392 . S
C350 C351 1.367 . S
C350 H358 0.930 . S
C351 C349 1.413 . S
C351 C350 1.367 . S
C351 H353 0.930 . S
H352 C345 0.930 . S
H353 C351 0.930 . S
H354 C342 0.930 . S
H355 C343 0.930 . S
H356 C349 0.929 . S
H357 C371 0.930 . S
H358 C350 0.930 . S
H359 C377 0.930 . S
H360 C368 0.929 . S
H361 C375 0.904 1_455 S
H362 C339 0.931 . S
H363 C369 0.930 . S
H364 C402 0.930 . S
H365 C346 0.930 . S
H366 C401 0.931 . S
N367 Eu336 2.657 1_655 S
N367 C368 1.334 . S
N367 C372 1.362 . S
C368 H360 0.929 . S
C368 N367 1.334 . S
C368 C371 1.413 . S
C369 H363 0.930 . S
C369 C370 1.392 . S
C369 C371 1.367 . S
C370 C369 1.392 . S
C370 C372 1.420 . S
C370 C402 1.423 . S
C371 H357 0.930 . S
C371 C368 1.413 . S
C371 C369 1.367 . S
C372 N367 1.362 . S
C372 C370 1.420 . S
C372 C376 1.429 . S
H373 C378 0.930 . S
N374 Eu336 2.609 1_655 S
N374 C376 1.377 . S
N374 C377 1.321 1_655 S
C375 H361 0.904 1_655 S
C375 C377 1.383 1_655 S
C375 C378 1.430 . S
C376 C372 1.429 . S
C376 N374 1.377 . S
C376 C379 1.411 . S
C377 H359 0.930 . S
C377 N374 1.321 1_455 S
C377 C375 1.383 1_455 S
C378 H373 0.930 . S
C378 C375 1.430 . S
C378 C379 1.395 . S
C379 C376 1.411 . S
C379 C378 1.395 . S
C379 C401 1.420 . S
O380 Eu336 2.558 1_655 S
O380 C400 1.257 . S
O381 Eu336 2.612 . S
O381 Eu347 2.380 . S
O381 C392 1.276 . S
O382 Eu347 2.432 . S
O382 C399 1.264 . S
O383 Eu336 2.339 1_655 S
O383 C399 1.254 1_655 S
O384 Eu336 2.563 . S
O384 C392 1.235 . S
O385 Eu336 2.419 1_655 S
O385 C400 1.249 . S
O386 Eu347 2.558 . S
O386 C411 1.257 . S
O387 Eu336 2.380 . S
O387 Eu347 2.612 . S
O387 C403 1.276 . S
O388 Eu336 2.432 . S
O388 C410 1.264 . S
O389 Eu347 2.339 . S
O389 C410 1.254 . S
O390 Eu347 2.563 . S
O390 C403 1.235 . S
O391 Eu347 2.419 . S
O391 C411 1.249 . S
C392 O381 1.276 . S
C392 O384 1.235 . S
C393 C395 1.393 . S
C393 C397 1.395 . S
C393 C400 1.492 . S
C394 C395 1.392 . S
C394 C396 1.386 . S
C395 C393 1.393 . S
C395 C394 1.392 . S
C395 H412 0.930 . S
C396 C394 1.386 . S
C396 C398 1.395 . S
C396 H413 0.930 . S
C397 C393 1.395 . S
C397 C398 1.379 . S
C397 H414 0.930 . S
C398 C396 1.395 . S
C398 C397 1.379 . S
C398 H415 0.930 . S
C399 O382 1.264 . S
C399 O383 1.254 1_455 S
C400 Eu336 2.848 1_655 S
C400 O380 1.257 . S
C400 O385 1.249 . S
C400 C393 1.492 . S
C401 H366 0.931 . S
C401 C379 1.420 . S
C401 C402 1.351 . S
C402 H364 0.930 . S
C402 C370 1.423 . S
C402 C401 1.351 . S
C403 O387 1.276 . S
C403 O390 1.235 . S
C404 C405 1.393 . S
C404 C408 1.395 . S
C404 C411 1.492 . S
C405 C404 1.393 . S
C405 C406 1.392 . S
C405 H416 0.930 . S
C406 C405 1.392 . S
C406 C407 1.386 . S
C407 C406 1.386 . S
C407 C409 1.395 . S
C407 H417 0.930 . S
C408 C404 1.395 . S
C408 C409 1.379 . S
C408 H418 0.930 . S
C409 C407 1.395 . S
C409 C408 1.379 . S
C409 H419 0.930 . S
C410 O388 1.264 . S
C410 O389 1.254 . S
C411 Eu347 2.848 . S
C411 O386 1.257 . S
C411 O391 1.249 . S
C411 C404 1.492 . S
H412 C395 0.930 . S
H413 C396 0.930 . S
H414 C397 0.930 . S
H415 C398 0.930 . S
H416 C405 0.930 . S
H417 C407 0.930 . S
H418 C408 0.930 . S
H419 C409 0.930 . S
Eu420 N451 2.657 . S
Eu420 N458 2.609 . S
Eu420 O464 2.558 . S
Eu420 O465 2.612 . S
Eu420 O467 2.339 . S
Eu420 O468 2.563 . S
Eu420 O469 2.419 . S
Eu420 O471 2.380 . S
Eu420 O472 2.432 . S
Eu420 C484 2.848 . S
C421 C424 1.429 . S
C421 C425 1.411 . S
C421 N428 1.377 . S
C422 C424 1.420 . S
C422 C426 1.423 . S
C422 C434 1.392 . S
C423 C425 1.420 . S
C423 C426 1.351 . S
C423 H446 0.931 . S
C424 C421 1.429 . S
C424 C422 1.420 . S
C424 N432 1.362 . S
C425 C421 1.411 . S
C425 C423 1.420 . S
C425 C430 1.395 . S
C426 C422 1.423 . S
C426 C423 1.351 . S
C426 H438 0.930 . S
C427 C429 1.400 . S
C427 C430 1.386 . S
C427 H439 0.930 . S
N428 C421 1.377 . S
N428 C429 1.321 . S
N428 Eu431 2.609 . S
C429 C427 1.400 . S
C429 N428 1.321 . S
C429 H436 0.930 . S
C430 C425 1.395 . S
C430 C427 1.386 . S
C430 H449 0.930 . S
Eu431 N428 2.609 . S
Eu431 N432 2.657 . S
Eu431 O465 2.380 . S
Eu431 O466 2.432 . S
Eu431 O470 2.558 . S
Eu431 O471 2.612 . S
Eu431 O473 2.339 . S
Eu431 O474 2.563 . S
Eu431 O475 2.419 . S
Eu431 C495 2.848 . S
N432 C424 1.362 . S
N432 Eu431 2.657 . S
N432 C433 1.334 . S
C433 N432 1.334 . S
C433 C435 1.413 . S
C433 H440 0.929 . S
C434 C422 1.392 . S
C434 C435 1.367 . S
C434 H442 0.930 . S
C435 C433 1.413 . S
C435 C434 1.367 . S
C435 H437 0.930 . S
H436 C429 0.930 . S
H437 C435 0.930 . S
H438 C426 0.930 . S
H439 C427 0.930 . S
H440 C433 0.929 . S
H441 C455 0.930 . S
H442 C434 0.930 . S
H443 C461 0.930 . S
H444 C452 0.929 . S
H445 C459 0.930 . S
H446 C423 0.931 . S
H447 C453 0.930 . S
H448 C486 0.930 . S
H449 C430 0.930 . S
H450 C485 0.931 . S
N451 Eu420 2.657 . S
N451 C452 1.334 . S
N451 C456 1.362 . S
C452 H444 0.929 . S
C452 N451 1.334 . S
C452 C455 1.413 . S
C453 H447 0.930 . S
C453 C454 1.392 . S
C453 C455 1.367 . S
C454 C453 1.392 . S
C454 C456 1.420 . S
C454 C486 1.423 . S
C455 H441 0.930 . S
C455 C452 1.413 . S
C455 C453 1.367 . S
C456 N451 1.362 . S
C456 C454 1.420 . S
C456 C460 1.429 . S
H457 C462 0.930 . S
N458 Eu420 2.609 . S
N458 C460 1.377 . S
N458 C461 1.321 . S
C459 H445 0.930 . S
C459 C461 1.400 . S
C459 C462 1.386 . S
C460 C456 1.429 . S
C460 N458 1.377 . S
C460 C463 1.411 . S
C461 H443 0.930 . S
C461 N458 1.321 . S
C461 C459 1.400 . S
C462 H457 0.930 . S
C462 C459 1.386 . S
C462 C463 1.395 . S
C463 C460 1.411 . S
C463 C462 1.395 . S
C463 C485 1.420 . S
O464 Eu420 2.558 . S
O464 C484 1.257 . S
O465 Eu420 2.612 . S
O465 Eu431 2.380 . S
O465 C476 1.276 . S
O466 Eu431 2.432 . S
O466 C483 1.264 . S
O467 Eu420 2.339 . S
O467 C483 1.254 . S
O468 Eu420 2.563 . S
O468 C476 1.235 . S
O469 Eu420 2.419 . S
O469 C484 1.249 . S
O470 Eu431 2.558 . S
O470 C495 1.257 . S
O471 Eu420 2.380 . S
O471 Eu431 2.612 . S
O471 C487 1.276 . S
O472 Eu420 2.432 . S
O472 C494 1.264 . S
O473 Eu431 2.339 . S
O473 C494 1.254 . S
O474 Eu431 2.563 . S
O474 C487 1.235 . S
O475 Eu431 2.419 . S
O475 C495 1.249 . S
C476 O465 1.276 . S
C476 O468 1.235 . S
C477 C479 1.393 . S
C477 C481 1.395 . S
C477 C484 1.492 . S
C478 C479 1.392 . S
C478 C480 1.386 . S
C479 C477 1.393 . S
C479 C478 1.392 . S
C479 H496 0.930 . S
C480 C478 1.386 . S
C480 C482 1.395 . S
C480 H497 0.930 . S
C481 C477 1.395 . S
C481 C482 1.379 . S
C481 H498 0.930 . S
C482 C480 1.395 . S
C482 C481 1.379 . S
C482 H499 0.930 . S
C483 O466 1.264 . S
C483 O467 1.254 . S
C484 Eu420 2.848 . S
C484 O464 1.257 . S
C484 O469 1.249 . S
C484 C477 1.492 . S
C485 H450 0.931 . S
C485 C463 1.420 . S
C485 C486 1.351 . S
C486 H448 0.930 . S
C486 C454 1.423 . S
C486 C485 1.351 . S
C487 O471 1.276 . S
C487 O474 1.235 . S
C488 C489 1.393 . S
C488 C492 1.395 . S
C488 C495 1.492 . S
C489 C488 1.393 . S
C489 C490 1.392 . S
C489 H500 0.930 . S
C490 C489 1.392 . S
C490 C491 1.386 . S
C491 C490 1.386 . S
C491 C493 1.395 . S
C491 H501 0.930 . S
C492 C488 1.395 . S
C492 C493 1.379 . S
C492 H502 0.930 . S
C493 C491 1.395 . S
C493 C492 1.379 . S
C493 H503 0.930 . S
C494 O472 1.264 . S
C494 O473 1.254 . S
C495 Eu431 2.848 . S
C495 O470 1.257 . S
C495 O475 1.249 . S
C495 C488 1.492 . S
H496 C479 0.930 . S
H497 C480 0.930 . S
H498 C481 0.930 . S
H499 C482 0.930 . S
H500 C489 0.930 . S
H501 C491 0.930 . S
H502 C492 0.930 . S
H503 C493 0.930 . S
Eu504 N535 2.657 . S
Eu504 N542 2.609 . S
Eu504 O548 2.558 . S
Eu504 O549 2.612 . S
Eu504 O551 2.339 . S
Eu504 O552 2.563 . S
Eu504 O553 2.419 . S
Eu504 O555 2.380 . S
Eu504 O556 2.432 . S
Eu504 C568 2.848 . S
C505 C508 1.429 . S
C505 C509 1.411 . S
C505 N512 1.377 . S
C506 C508 1.420 . S
C506 C510 1.423 . S
C506 C518 1.392 . S
C507 C509 1.420 . S
C507 C510 1.351 . S
C507 H530 0.931 . S
C508 C505 1.429 . S
C508 C506 1.420 . S
C508 N516 1.362 . S
C509 C505 1.411 . S
C509 C507 1.420 . S
C509 C514 1.395 . S
C510 C506 1.423 . S
C510 C507 1.351 . S
C510 H522 0.930 . S
C511 C513 1.400 . S
C511 C514 1.386 . S
C511 H523 0.930 . S
N512 C505 1.377 . S
N512 C513 1.321 . S
N512 Eu515 2.609 . S
C513 C511 1.400 . S
C513 N512 1.321 . S
C513 H520 0.930 . S
C514 C509 1.395 . S
C514 C511 1.386 . S
C514 H533 0.930 . S
Eu515 N512 2.609 . S
Eu515 N516 2.657 . S
Eu515 O549 2.380 . S
Eu515 O550 2.432 . S
Eu515 O554 2.558 . S
Eu515 O555 2.612 . S
Eu515 O557 2.339 . S
Eu515 O558 2.563 . S
Eu515 O559 2.419 . S
Eu515 C579 2.848 . S
N516 C508 1.362 . S
N516 Eu515 2.657 . S
N516 C517 1.334 . S
C517 N516 1.334 . S
C517 C519 1.413 . S
C517 H524 0.929 . S
C518 C506 1.392 . S
C518 C519 1.367 . S
C518 H526 0.930 . S
C519 C517 1.413 . S
C519 C518 1.367 . S
C519 H521 0.930 . S
H520 C513 0.930 . S
H521 C519 0.930 . S
H522 C510 0.930 . S
H523 C511 0.930 . S
H524 C517 0.929 . S
H525 C539 0.930 . S
H526 C518 0.930 . S
H527 C545 0.930 . S
H528 C536 0.929 . S
H529 C543 0.930 . S
H530 C507 0.931 . S
H531 C537 0.930 . S
H532 C570 0.930 . S
H533 C514 0.930 . S
H534 C569 0.931 . S
N535 Eu504 2.657 . S
N535 C536 1.334 . S
N535 C540 1.362 . S
C536 H528 0.929 . S
C536 N535 1.334 . S
C536 C539 1.413 . S
C537 H531 0.930 . S
C537 C538 1.392 . S
C537 C539 1.367 . S
C538 C537 1.392 . S
C538 C540 1.420 . S
C538 C570 1.423 . S
C539 H525 0.930 . S
C539 C536 1.413 . S
C539 C537 1.367 . S
C540 N535 1.362 . S
C540 C538 1.420 . S
C540 C544 1.429 . S
H541 C546 0.930 . S
N542 Eu504 2.609 . S
N542 C544 1.377 . S
N542 C545 1.321 . S
C543 H529 0.930 . S
C543 C545 1.400 . S
C543 C546 1.386 . S
C544 C540 1.429 . S
C544 N542 1.377 . S
C544 C547 1.411 . S
C545 H527 0.930 . S
C545 N542 1.321 . S
C545 C543 1.400 . S
C546 H541 0.930 . S
C546 C543 1.386 . S
C546 C547 1.395 . S
C547 C544 1.411 . S
C547 C546 1.395 . S
C547 C569 1.420 . S
O548 Eu504 2.558 . S
O548 C568 1.257 . S
O549 Eu504 2.612 . S
O549 Eu515 2.380 . S
O549 C560 1.276 . S
O550 Eu515 2.432 . S
O550 C567 1.264 . S
O551 Eu504 2.339 . S
O551 C567 1.254 . S
O552 Eu504 2.563 . S
O552 C560 1.235 . S
O553 Eu504 2.419 . S
O553 C568 1.249 . S
O554 Eu515 2.558 . S
O554 C579 1.257 . S
O555 Eu504 2.380 . S
O555 Eu515 2.612 . S
O555 C571 1.276 . S
O556 Eu504 2.432 . S
O556 C578 1.264 . S
O557 Eu515 2.339 . S
O557 C578 1.254 . S
O558 Eu515 2.563 . S
O558 C571 1.235 . S
O559 Eu515 2.419 . S
O559 C579 1.249 . S
C560 O549 1.276 . S
C560 O552 1.235 . S
C561 C563 1.393 . S
C561 C565 1.395 . S
C561 C568 1.492 . S
C562 C563 1.392 . S
C562 C564 1.386 . S
C563 C561 1.393 . S
C563 C562 1.392 . S
C563 H580 0.930 . S
C564 C562 1.386 . S
C564 C566 1.395 . S
C564 H581 0.930 . S
C565 C561 1.395 . S
C565 C566 1.379 . S
C565 H582 0.930 . S
C566 C564 1.395 . S
C566 C565 1.379 . S
C566 H583 0.930 . S
C567 O550 1.264 . S
C567 O551 1.254 . S
C568 Eu504 2.848 . S
C568 O548 1.257 . S
C568 O553 1.249 . S
C568 C561 1.492 . S
C569 H534 0.931 . S
C569 C547 1.420 . S
C569 C570 1.351 . S
C570 H532 0.930 . S
C570 C538 1.423 . S
C570 C569 1.351 . S
C571 O555 1.276 . S
C571 O558 1.235 . S
C572 C573 1.393 . S
C572 C576 1.395 . S
C572 C579 1.492 . S
C573 C572 1.393 . S
C573 C574 1.392 . S
C573 H584 0.930 . S
C574 C573 1.392 . S
C574 C575 1.386 . S
C575 C574 1.386 . S
C575 C577 1.395 . S
C575 H585 0.930 . S
C576 C572 1.395 . S
C576 C577 1.379 . S
C576 H586 0.930 . S
C577 C575 1.395 . S
C577 C576 1.379 . S
C577 H587 0.930 . S
C578 O556 1.264 . S
C578 O557 1.254 . S
C579 Eu515 2.848 . S
C579 O554 1.257 . S
C579 O559 1.249 . S
C579 C572 1.492 . S
H580 C563 0.930 . S
H581 C564 0.930 . S
H582 C565 0.930 . S
H583 C566 0.930 . S
H584 C573 0.930 . S
H585 C575 0.930 . S
H586 C576 0.930 . S
H587 C577 0.930 . S
Eu588 N619 2.657 1_556 S
Eu588 N626 2.609 1_556 S
Eu588 O632 2.558 1_556 S
Eu588 O633 2.612 . S
Eu588 O635 2.339 1_556 S
Eu588 O636 2.563 . S
Eu588 O637 2.419 1_556 S
Eu588 O639 2.380 . S
Eu588 O640 2.432 . S
Eu588 C652 2.848 1_556 S
C589 C592 1.429 . S
C589 C593 1.411 . S
C589 N596 1.377 . S
C590 C592 1.420 . S
C590 C594 1.423 . S
C590 C602 1.392 . S
C591 C593 1.420 . S
C591 C594 1.351 . S
C591 H614 0.931 . S
C592 C589 1.429 . S
C592 C590 1.420 . S
C592 N600 1.362 . S
C593 C589 1.411 . S
C593 C591 1.420 . S
C593 C598 1.395 . S
C594 C590 1.423 . S
C594 C591 1.351 . S
C594 H606 0.930 . S
C595 C597 1.400 . S
C595 C598 1.386 . S
C595 H607 0.930 . S
N596 C589 1.377 . S
N596 C597 1.321 . S
N596 Eu599 2.609 . S
C597 C595 1.400 . S
C597 N596 1.321 . S
C597 H604 0.930 . S
C598 C593 1.395 . S
C598 C595 1.386 . S
C598 H617 0.930 . S
Eu599 N596 2.609 . S
Eu599 N600 2.657 . S
Eu599 O633 2.380 . S
Eu599 O634 2.432 . S
Eu599 O638 2.558 . S
Eu599 O639 2.612 . S
Eu599 O641 2.339 . S
Eu599 O642 2.563 . S
Eu599 O643 2.419 . S
Eu599 C663 2.848 . S
N600 C592 1.362 . S
N600 Eu599 2.657 . S
N600 C601 1.334 . S
C601 N600 1.334 . S
C601 C603 1.413 . S
C601 H608 0.929 . S
C602 C590 1.392 . S
C602 C603 1.367 . S
C602 H610 0.930 . S
C603 C601 1.413 . S
C603 C602 1.367 . S
C603 H605 0.930 . S
H604 C597 0.930 . S
H605 C603 0.930 . S
H606 C594 0.930 . S
H607 C595 0.930 . S
H608 C601 0.929 . S
H609 C623 0.930 . S
H610 C602 0.930 . S
H611 C629 0.930 . S
H612 C620 0.929 . S
H613 C627 0.902 1_556 S
H614 C591 0.931 . S
H615 C621 0.930 . S
H616 C654 0.930 . S
H617 C598 0.930 . S
H618 C653 0.931 . S
N619 Eu588 2.657 1_554 S
N619 C620 1.334 . S
N619 C624 1.362 . S
C620 H612 0.929 . S
C620 N619 1.334 . S
C620 C623 1.413 . S
C621 H615 0.930 . S
C621 C622 1.392 . S
C621 C623 1.367 . S
C622 C621 1.392 . S
C622 C624 1.420 . S
C622 C654 1.423 . S
C623 H609 0.930 . S
C623 C620 1.413 . S
C623 C621 1.367 . S
C624 N619 1.362 . S
C624 C622 1.420 . S
C624 C628 1.429 . S
H625 C630 0.930 . S
N626 Eu588 2.609 1_554 S
N626 C628 1.377 . S
N626 C629 1.321 1_554 S
C627 H613 0.902 1_554 S
C627 C629 1.382 1_554 S
C627 C630 1.434 . S
C628 C624 1.429 . S
C628 N626 1.377 . S
C628 C631 1.411 . S
C629 H611 0.930 . S
C629 N626 1.321 1_556 S
C629 C627 1.382 1_556 S
C630 H625 0.930 . S
C630 C627 1.434 . S
C630 C631 1.395 . S
C631 C628 1.411 . S
C631 C630 1.395 . S
C631 C653 1.420 . S
O632 Eu588 2.558 1_554 S
O632 C652 1.257 . S
O633 Eu588 2.612 . S
O633 Eu599 2.380 . S
O633 C644 1.276 . S
O634 Eu599 2.432 . S
O634 C651 1.264 . S
O635 Eu588 2.339 1_554 S
O635 C651 1.254 1_554 S
O636 Eu588 2.563 . S
O636 C644 1.235 . S
O637 Eu588 2.419 1_554 S
O637 C652 1.249 . S
O638 Eu599 2.558 . S
O638 C663 1.257 . S
O639 Eu588 2.380 . S
O639 Eu599 2.612 . S
O639 C655 1.276 . S
O640 Eu588 2.432 . S
O640 C662 1.264 . S
O641 Eu599 2.339 . S
O641 C662 1.254 . S
O642 Eu599 2.563 . S
O642 C655 1.235 . S
O643 Eu599 2.419 . S
O643 C663 1.249 . S
C644 O633 1.276 . S
C644 O636 1.235 . S
C645 C647 1.393 . S
C645 C649 1.395 . S
C645 C652 1.492 . S
C646 C647 1.392 . S
C646 C648 1.386 . S
C647 C645 1.393 . S
C647 C646 1.392 . S
C647 H664 0.930 . S
C648 C646 1.386 . S
C648 C650 1.395 . S
C648 H665 0.930 . S
C649 C645 1.395 . S
C649 C650 1.379 . S
C649 H666 0.930 . S
C650 C648 1.395 . S
C650 C649 1.379 . S
C650 H667 0.930 . S
C651 O634 1.264 . S
C651 O635 1.254 1_556 S
C652 Eu588 2.848 1_554 S
C652 O632 1.257 . S
C652 O637 1.249 . S
C652 C645 1.492 . S
C653 H618 0.931 . S
C653 C631 1.420 . S
C653 C654 1.351 . S
C654 H616 0.930 . S
C654 C622 1.423 . S
C654 C653 1.351 . S
C655 O639 1.276 . S
C655 O642 1.235 . S
C656 C657 1.393 . S
C656 C660 1.395 . S
C656 C663 1.492 . S
C657 C656 1.393 . S
C657 C658 1.392 . S
C657 H668 0.930 . S
C658 C657 1.392 . S
C658 C659 1.386 . S
C659 C658 1.386 . S
C659 C661 1.395 . S
C659 H669 0.930 . S
C660 C656 1.395 . S
C660 C661 1.379 . S
C660 H670 0.930 . S
C661 C659 1.395 . S
C661 C660 1.379 . S
C661 H671 0.930 . S
C662 O640 1.264 . S
C662 O641 1.254 . S
C663 Eu599 2.848 . S
C663 O638 1.257 . S
C663 O643 1.249 . S
C663 C656 1.492 . S
H664 C647 0.930 . S
H665 C648 0.930 . S
H666 C649 0.930 . S
H667 C650 0.930 . S
H668 C657 0.930 . S
H669 C659 0.930 . S
H670 C660 0.930 . S
H671 C661 0.930 . S
Eu672 N703 2.657 1_545 S
Eu672 N710 2.609 1_545 S
Eu672 O716 2.558 1_545 S
Eu672 O717 2.612 . S
Eu672 O719 2.339 1_545 S
Eu672 O720 2.563 . S
Eu672 O721 2.419 1_545 S
Eu672 O723 2.380 . S
Eu672 O724 2.432 . S
Eu672 C736 2.848 1_545 S
C673 C676 1.429 . S
C673 C677 1.411 . S
C673 N680 1.377 . S
C674 C676 1.420 . S
C674 C678 1.423 . S
C674 C686 1.392 . S
C675 C677 1.420 . S
C675 C678 1.351 . S
C675 H698 0.931 . S
C676 C673 1.429 . S
C676 C674 1.420 . S
C676 N684 1.362 . S
C677 C673 1.411 . S
C677 C675 1.420 . S
C677 C682 1.395 . S
C678 C674 1.423 . S
C678 C675 1.351 . S
C678 H690 0.930 . S
C679 C681 1.400 . S
C679 C682 1.386 . S
C679 H691 0.930 . S
N680 C673 1.377 . S
N680 C681 1.321 . S
N680 Eu683 2.609 . S
C681 C679 1.400 . S
C681 N680 1.321 . S
C681 H688 0.930 . S
C682 C677 1.395 . S
C682 C679 1.386 . S
C682 H701 0.930 . S
Eu683 N680 2.609 . S
Eu683 N684 2.657 . S
Eu683 O717 2.380 . S
Eu683 O718 2.432 . S
Eu683 O722 2.558 . S
Eu683 O723 2.612 . S
Eu683 O725 2.339 . S
Eu683 O726 2.563 . S
Eu683 O727 2.419 . S
Eu683 C747 2.848 . S
N684 C676 1.362 . S
N684 Eu683 2.657 . S
N684 C685 1.334 . S
C685 N684 1.334 . S
C685 C687 1.413 . S
C685 H692 0.929 . S
C686 C674 1.392 . S
C686 C687 1.367 . S
C686 H694 0.930 . S
C687 C685 1.413 . S
C687 C686 1.367 . S
C687 H689 0.930 . S
H688 C681 0.930 . S
H689 C687 0.930 . S
H690 C678 0.930 . S
H691 C679 0.930 . S
H692 C685 0.929 . S
H693 C707 0.930 . S
H694 C686 0.930 . S
H695 C713 0.930 . S
H696 C704 0.929 . S
H697 C711 0.908 1_545 S
H698 C675 0.931 . S
H699 C705 0.930 . S
H700 C738 0.930 . S
H701 C682 0.930 . S
H702 C737 0.931 . S
N703 Eu672 2.657 1_565 S
N703 C704 1.334 . S
N703 C708 1.362 . S
C704 H696 0.929 . S
C704 N703 1.334 . S
C704 C707 1.413 . S
C705 H699 0.930 . S
C705 C706 1.392 . S
C705 C707 1.367 . S
C706 C705 1.392 . S
C706 C708 1.420 . S
C706 C738 1.423 . S
C707 H693 0.930 . S
C707 C704 1.413 . S
C707 C705 1.367 . S
C708 N703 1.362 . S
C708 C706 1.420 . S
C708 C712 1.429 . S
H709 C714 0.930 . S
N710 Eu672 2.609 1_565 S
N710 C712 1.377 . S
N710 C713 1.321 1_565 S
C711 H697 0.908 1_565 S
C711 C713 1.385 1_565 S
C711 C714 1.425 . S
C712 C708 1.429 . S
C712 N710 1.377 . S
C712 C715 1.411 . S
C713 H695 0.930 . S
C713 N710 1.321 1_545 S
C713 C711 1.385 1_545 S
C714 H709 0.930 . S
C714 C711 1.425 . S
C714 C715 1.395 . S
C715 C712 1.411 . S
C715 C714 1.395 . S
C715 C737 1.420 . S
O716 Eu672 2.558 1_565 S
O716 C736 1.257 . S
O717 Eu672 2.612 . S
O717 Eu683 2.380 . S
O717 C728 1.276 . S
O718 Eu683 2.432 . S
O718 C735 1.264 . S
O719 Eu672 2.339 1_565 S
O719 C735 1.254 1_565 S
O720 Eu672 2.563 . S
O720 C728 1.235 . S
O721 Eu672 2.419 1_565 S
O721 C736 1.249 . S
O722 Eu683 2.558 . S
O722 C747 1.257 . S
O723 Eu672 2.380 . S
O723 Eu683 2.612 . S
O723 C739 1.276 . S
O724 Eu672 2.432 . S
O724 C746 1.264 . S
O725 Eu683 2.339 . S
O725 C746 1.254 . S
O726 Eu683 2.563 . S
O726 C739 1.235 . S
O727 Eu683 2.419 . S
O727 C747 1.249 . S
C728 O717 1.276 . S
C728 O720 1.235 . S
C729 C731 1.393 . S
C729 C733 1.395 . S
C729 C736 1.492 . S
C730 C731 1.392 . S
C730 C732 1.386 . S
C731 C729 1.393 . S
C731 C730 1.392 . S
C731 H748 0.930 . S
C732 C730 1.386 . S
C732 C734 1.395 . S
C732 H749 0.930 . S
C733 C729 1.395 . S
C733 C734 1.379 . S
C733 H750 0.930 . S
C734 C732 1.395 . S
C734 C733 1.379 . S
C734 H751 0.930 . S
C735 O718 1.264 . S
C735 O719 1.254 1_545 S
C736 Eu672 2.848 1_565 S
C736 O716 1.257 . S
C736 O721 1.249 . S
C736 C729 1.492 . S
C737 H702 0.931 . S
C737 C715 1.420 . S
C737 C738 1.351 . S
C738 H700 0.930 . S
C738 C706 1.423 . S
C738 C737 1.351 . S
C739 O723 1.276 . S
C739 O726 1.235 . S
C740 C741 1.393 . S
C740 C744 1.395 . S
C740 C747 1.492 . S
C741 C740 1.393 . S
C741 C742 1.392 . S
C741 H752 0.930 . S
C742 C741 1.392 . S
C742 C743 1.386 . S
C743 C742 1.386 . S
C743 C745 1.395 . S
C743 H753 0.930 . S
C744 C740 1.395 . S
C744 C745 1.379 . S
C744 H754 0.930 . S
C745 C743 1.395 . S
C745 C744 1.379 . S
C745 H755 0.930 . S
C746 O724 1.264 . S
C746 O725 1.254 . S
C747 Eu683 2.848 . S
C747 O722 1.257 . S
C747 O727 1.249 . S
C747 C740 1.492 . S
H748 C731 0.930 . S
H749 C732 0.930 . S
H750 C733 0.930 . S
H751 C734 0.930 . S
H752 C741 0.930 . S
H753 C743 0.930 . S
H754 C744 0.930 . S
H755 C745 0.930 . S
Eu756 N787 2.657 . S
Eu756 N794 2.609 . S
Eu756 O800 2.558 . S
Eu756 O801 2.612 . S
Eu756 O803 2.339 . S
Eu756 O804 2.563 . S
Eu756 O805 2.419 . S
Eu756 O807 2.380 . S
Eu756 O808 2.432 . S
Eu756 C820 2.848 . S
C757 C760 1.429 . S
C757 C761 1.396 1_545 S
C757 N764 1.377 1_545 S
C758 C760 1.420 . S
C758 C762 1.423 . S
C758 C770 1.392 . S
C759 C761 1.396 1_545 S
C759 C762 1.351 . S
C759 H782 0.931 . S
C760 C757 1.429 . S
C760 C758 1.420 . S
C760 N768 1.362 . S
C761 C757 1.396 1_565 S
C761 C759 1.396 1_565 S
C761 C766 1.434 . S
C762 C758 1.423 . S
C762 C759 1.351 . S
C762 H774 0.930 . S
C763 C765 1.400 . S
C763 C766 1.386 . S
C763 H775 0.930 . S
N764 C757 1.377 1_565 S
N764 C765 1.321 . S
N764 Eu767 2.609 1_565 S
C765 C763 1.400 . S
C765 N764 1.321 . S
C765 H772 0.930 . S
C766 C761 1.434 . S
C766 C763 1.386 . S
C766 H785 0.930 . S
Eu767 N764 2.609 1_545 S
Eu767 N768 2.657 . S
Eu767 O801 2.380 . S
Eu767 O802 2.432 . S
Eu767 O806 2.558 1_545 S
Eu767 O807 2.612 . S
Eu767 O809 2.339 . S
Eu767 O810 2.563 1_545 S
Eu767 O811 2.419 1_545 S
Eu767 C831 2.848 1_545 S
N768 C760 1.362 . S
N768 Eu767 2.657 . S
N768 C769 1.334 . S
C769 N768 1.334 . S
C769 C771 1.413 . S
C769 H776 0.929 . S
C770 C758 1.392 . S
C770 C771 1.367 . S
C770 H778 0.930 . S
C771 C769 1.413 . S
C771 C770 1.367 . S
C771 H773 0.930 . S
H772 C765 0.930 . S
H773 C771 0.930 . S
H774 C762 0.930 . S
H775 C763 0.930 . S
H776 C769 0.929 . S
H777 C791 0.930 1_565 S
H778 C770 0.930 . S
H779 C797 0.930 . S
H780 C788 0.929 . S
H781 C795 0.930 . S
H782 C759 0.931 . S
H783 C789 0.930 . S
H784 C822 0.930 . S
H785 C766 0.930 . S
H786 C821 0.931 . S
N787 Eu756 2.657 . S
N787 C788 1.334 . S
N787 C792 1.362 . S
C788 H780 0.929 . S
C788 N787 1.334 . S
C788 C791 1.413 . S
C789 H783 0.930 . S
C789 C790 1.392 . S
C789 C791 1.367 . S
C790 C789 1.392 . S
C790 C792 1.420 . S
C790 C822 1.423 . S
C791 H777 0.930 1_545 S
C791 C788 1.413 . S
C791 C789 1.367 . S
C792 N787 1.362 . S
C792 C790 1.420 . S
C792 C796 1.429 . S
H793 C798 0.930 . S
N794 Eu756 2.609 . S
N794 C796 1.377 . S
N794 C797 1.321 . S
C795 H781 0.930 . S
C795 C797 1.400 . S
C795 C798 1.386 . S
C796 C792 1.429 . S
C796 N794 1.377 . S
C796 C799 1.411 . S
C797 H779 0.930 . S
C797 N794 1.321 . S
C797 C795 1.400 . S
C798 H793 0.930 . S
C798 C795 1.386 . S
C798 C799 1.395 . S
C799 C796 1.411 . S
C799 C798 1.395 . S
C799 C821 1.420 . S
O800 Eu756 2.558 . S
O800 C820 1.257 . S
O801 Eu756 2.612 . S
O801 Eu767 2.380 . S
O801 C812 1.276 . S
O802 Eu767 2.432 . S
O802 C819 1.264 . S
O803 Eu756 2.339 . S
O803 C819 1.254 . S
O804 Eu756 2.563 . S
O804 C812 1.235 . S
O805 Eu756 2.419 . S
O805 C820 1.249 . S
O806 Eu767 2.558 1_565 S
O806 C831 1.257 . S
O807 Eu756 2.380 . S
O807 Eu767 2.612 . S
O807 C823 1.276 . S
O808 Eu756 2.432 . S
O808 C830 1.264 . S
O809 Eu767 2.339 . S
O809 C830 1.254 . S
O810 Eu767 2.563 1_565 S
O810 C823 1.235 1_565 S
O811 Eu767 2.419 1_565 S
O811 C831 1.249 . S
C812 O801 1.276 . S
C812 O804 1.235 . S
C813 C815 1.393 . S
C813 C817 1.395 . S
C813 C820 1.492 . S
C814 C815 1.392 . S
C814 C816 1.386 . S
C815 C813 1.393 . S
C815 C814 1.392 . S
C815 H832 0.930 . S
C816 C814 1.386 . S
C816 C818 1.395 . S
C816 H833 0.930 . S
C817 C813 1.395 . S
C817 C818 1.379 . S
C817 H834 0.930 . S
C818 C816 1.395 . S
C818 C817 1.379 . S
C818 H835 0.930 . S
C819 O802 1.264 . S
C819 O803 1.254 . S
C820 Eu756 2.848 . S
C820 O800 1.257 . S
C820 O805 1.249 . S
C820 C813 1.492 . S
C821 H786 0.931 . S
C821 C799 1.420 . S
C821 C822 1.351 . S
C822 H784 0.930 . S
C822 C790 1.423 . S
C822 C821 1.351 . S
C823 O807 1.276 . S
C823 O810 1.235 1_545 S
C824 C825 1.393 . S
C824 C828 1.395 . S
C824 C831 1.492 . S
C825 C824 1.393 . S
C825 C826 1.392 . S
C825 H836 0.930 . S
C826 C825 1.392 . S
C826 C827 1.386 . S
C827 C826 1.386 . S
C827 C829 1.395 . S
C827 H837 0.930 . S
C828 C824 1.395 . S
C828 C829 1.379 . S
C828 H838 0.930 . S
C829 C827 1.395 . S
C829 C828 1.379 . S
C829 H839 0.930 . S
C830 O808 1.264 . S
C830 O809 1.254 . S
C831 Eu767 2.848 1_565 S
C831 O806 1.257 . S
C831 O811 1.249 . S
C831 C824 1.492 . S
H832 C815 0.930 . S
H833 C816 0.930 . S
H834 C817 0.930 . S
H835 C818 0.930 . S
H836 C825 0.930 . S
H837 C827 0.930 . S
H838 C828 0.930 . S
H839 C829 0.930 . S
Eu840 N871 2.657 1_565 S
Eu840 N878 2.609 1_565 S
Eu840 O884 2.558 1_565 S
Eu840 O885 2.612 . S
Eu840 O887 2.339 1_565 S
Eu840 O888 2.563 . S
Eu840 O889 2.419 1_565 S
Eu840 O891 2.380 . S
Eu840 O892 2.432 . S
Eu840 C904 2.848 1_565 S
C841 C844 1.429 . S
C841 C845 1.411 . S
C841 N848 1.377 . S
C842 C844 1.420 . S
C842 C846 1.423 . S
C842 C854 1.392 . S
C843 C845 1.420 . S
C843 C846 1.351 . S
C843 H866 0.931 . S
C844 C841 1.429 . S
C844 C842 1.420 . S
C844 N852 1.362 . S
C845 C841 1.411 . S
C845 C843 1.420 . S
C845 C850 1.395 . S
C846 C842 1.423 . S
C846 C843 1.351 . S
C846 H858 0.930 . S
C847 C849 1.400 . S
C847 C850 1.386 . S
C847 H859 0.930 . S
N848 C841 1.377 . S
N848 C849 1.321 . S
N848 Eu851 2.609 . S
C849 C847 1.400 . S
C849 N848 1.321 . S
C849 H856 0.930 . S
C850 C845 1.395 . S
C850 C847 1.386 . S
C850 H869 0.930 . S
Eu851 N848 2.609 . S
Eu851 N852 2.657 . S
Eu851 O885 2.380 . S
Eu851 O886 2.432 . S
Eu851 O890 2.558 . S
Eu851 O891 2.612 . S
Eu851 O893 2.339 . S
Eu851 O894 2.563 . S
Eu851 O895 2.419 . S
Eu851 C915 2.848 . S
N852 C844 1.362 . S
N852 Eu851 2.657 . S
N852 C853 1.334 . S
C853 N852 1.334 . S
C853 C855 1.413 . S
C853 H860 0.929 . S
C854 C842 1.392 . S
C854 C855 1.367 . S
C854 H862 0.930 . S
C855 C853 1.413 . S
C855 C854 1.367 . S
C855 H857 0.930 . S
H856 C849 0.930 . S
H857 C855 0.930 . S
H858 C846 0.930 . S
H859 C847 0.930 . S
H860 C853 0.929 . S
H861 C875 0.930 . S
H862 C854 0.930 . S
H863 C881 0.930 . S
H864 C872 0.929 . S
H865 C879 0.906 1_565 S
H866 C843 0.931 . S
H867 C873 0.930 . S
H868 C906 0.930 . S
H869 C850 0.930 . S
H870 C905 0.931 . S
N871 Eu840 2.657 1_545 S
N871 C872 1.334 . S
N871 C876 1.362 . S
C872 H864 0.929 . S
C872 N871 1.334 . S
C872 C875 1.413 . S
C873 H867 0.930 . S
C873 C874 1.392 . S
C873 C875 1.367 . S
C874 C873 1.392 . S
C874 C876 1.420 . S
C874 C906 1.423 . S
C875 H861 0.930 . S
C875 C872 1.413 . S
C875 C873 1.367 . S
C876 N871 1.362 . S
C876 C874 1.420 . S
C876 C880 1.429 . S
H877 C882 0.930 . S
N878 Eu840 2.609 1_545 S
N878 C880 1.377 . S
N878 C881 1.321 1_545 S
C879 H865 0.906 1_545 S
C879 C881 1.383 1_545 S
C879 C882 1.429 . S
C880 C876 1.429 . S
C880 N878 1.377 . S
C880 C883 1.411 . S
C881 H863 0.930 . S
C881 N878 1.321 1_565 S
C881 C879 1.383 1_565 S
C882 H877 0.930 . S
C882 C879 1.429 . S
C882 C883 1.395 . S
C883 C880 1.411 . S
C883 C882 1.395 . S
C883 C905 1.420 . S
O884 Eu840 2.558 1_545 S
O884 C904 1.257 . S
O885 Eu840 2.612 . S
O885 Eu851 2.380 . S
O885 C896 1.276 . S
O886 Eu851 2.432 . S
O886 C903 1.264 . S
O887 Eu840 2.339 1_545 S
O887 C903 1.254 1_545 S
O888 Eu840 2.563 . S
O888 C896 1.235 . S
O889 Eu840 2.419 1_545 S
O889 C904 1.249 . S
O890 Eu851 2.558 . S
O890 C915 1.257 . S
O891 Eu840 2.380 . S
O891 Eu851 2.612 . S
O891 C907 1.276 . S
O892 Eu840 2.432 . S
O892 C914 1.264 . S
O893 Eu851 2.339 . S
O893 C914 1.254 . S
O894 Eu851 2.563 . S
O894 C907 1.235 . S
O895 Eu851 2.419 . S
O895 C915 1.249 . S
C896 O885 1.276 . S
C896 O888 1.235 . S
C897 C899 1.393 . S
C897 C901 1.395 . S
C897 C904 1.492 . S
C898 C899 1.392 . S
C898 C900 1.386 . S
C899 C897 1.393 . S
C899 C898 1.392 . S
C899 H916 0.930 . S
C900 C898 1.386 . S
C900 C902 1.395 . S
C900 H917 0.930 . S
C901 C897 1.395 . S
C901 C902 1.379 . S
C901 H918 0.930 . S
C902 C900 1.395 . S
C902 C901 1.379 . S
C902 H919 0.930 . S
C903 O886 1.264 . S
C903 O887 1.254 1_565 S
C904 Eu840 2.848 1_545 S
C904 O884 1.257 . S
C904 O889 1.249 . S
C904 C897 1.492 . S
C905 H870 0.931 . S
C905 C883 1.420 . S
C905 C906 1.351 . S
C906 H868 0.930 . S
C906 C874 1.423 . S
C906 C905 1.351 . S
C907 O891 1.276 . S
C907 O894 1.235 . S
C908 C909 1.393 . S
C908 C912 1.395 . S
C908 C915 1.492 . S
C909 C908 1.393 . S
C909 C910 1.392 . S
C909 H920 0.930 . S
C910 C909 1.392 . S
C910 C911 1.386 . S
C911 C910 1.386 . S
C911 C913 1.395 . S
C911 H921 0.930 . S
C912 C908 1.395 . S
C912 C913 1.379 . S
C912 H922 0.930 . S
C913 C911 1.395 . S
C913 C912 1.379 . S
C913 H923 0.930 . S
C914 O892 1.264 . S
C914 O893 1.254 . S
C915 Eu851 2.848 . S
C915 O890 1.257 . S
C915 O895 1.249 . S
C915 C908 1.492 . S
H916 C899 0.930 . S
H917 C900 0.930 . S
H918 C901 0.930 . S
H919 C902 0.930 . S
H920 C909 0.930 . S
H921 C911 0.930 . S
H922 C912 0.930 . S
H923 C913 0.930 . S
Eu924 N955 2.657 . S
Eu924 N962 2.609 . S
Eu924 O968 2.558 . S
Eu924 O969 2.612 . S
Eu924 O971 2.339 . S
Eu924 O972 2.563 . S
Eu924 O973 2.419 . S
Eu924 O975 2.380 . S
Eu924 O976 2.432 . S
Eu924 C988 2.848 . S
C925 C928 1.429 . S
C925 C929 1.411 1_565 S
C925 N932 1.377 1_565 S
C926 C928 1.420 . S
C926 C930 1.423 . S
C926 C938 1.392 . S
C927 C929 1.420 1_565 S
C927 C930 1.351 . S
C927 H950 0.931 . S
C928 C925 1.429 . S
C928 C926 1.420 . S
C928 N936 1.362 . S
C929 C925 1.411 1_545 S
C929 C927 1.420 1_545 S
C929 C934 1.395 . S
C930 C926 1.423 . S
C930 C927 1.351 . S
C930 H942 0.930 . S
C931 C933 1.400 . S
C931 C934 1.386 . S
C931 H943 0.930 . S
N932 C925 1.377 1_545 S
N932 C933 1.321 . S
N932 Eu935 2.609 1_545 S
C933 C931 1.400 . S
C933 N932 1.321 . S
C933 H940 0.930 . S
C934 C929 1.395 . S
C934 C931 1.386 . S
C934 H953 0.930 . S
Eu935 N932 2.609 1_565 S
Eu935 N936 2.657 . S
Eu935 O969 2.380 . S
Eu935 O970 2.432 . S
Eu935 O974 2.558 1_565 S
Eu935 O975 2.612 . S
Eu935 O977 2.339 . S
Eu935 O978 2.563 1_565 S
Eu935 O979 2.419 1_565 S
Eu935 C999 2.848 1_565 S
N936 C928 1.362 . S
N936 Eu935 2.657 . S
N936 C937 1.334 . S
C937 N936 1.334 . S
C937 C939 1.413 . S
C937 H944 0.929 . S
C938 C926 1.392 . S
C938 C939 1.367 . S
C938 H946 0.930 . S
C939 C937 1.413 . S
C939 C938 1.367 . S
C939 H941 0.930 . S
H940 C933 0.930 . S
H941 C939 0.930 . S
H942 C930 0.930 . S
H943 C931 0.930 . S
H944 C937 0.929 . S
H945 C959 0.930 1_545 S
H946 C938 0.930 . S
H947 C965 0.930 . S
H948 C956 0.929 . S
H949 C963 0.930 . S
H950 C927 0.931 . S
H951 C957 0.930 . S
H952 C990 0.930 . S
H953 C934 0.930 . S
H954 C989 0.931 . S
N955 Eu924 2.657 . S
N955 C956 1.334 . S
N955 C960 1.362 . S
C956 H948 0.929 . S
C956 N955 1.334 . S
C956 C959 1.413 . S
C957 H951 0.930 . S
C957 C958 1.392 . S
C957 C959 1.367 . S
C958 C957 1.392 . S
C958 C960 1.420 . S
C958 C990 1.423 . S
C959 H945 0.930 1_565 S
C959 C956 1.413 . S
C959 C957 1.367 . S
C960 N955 1.362 . S
C960 C958 1.420 . S
C960 C964 1.429 . S
H961 C966 0.930 . S
N962 Eu924 2.609 . S
N962 C964 1.377 . S
N962 C965 1.321 . S
C963 H949 0.930 . S
C963 C965 1.400 . S
C963 C966 1.386 . S
C964 C960 1.429 . S
C964 N962 1.377 . S
C964 C967 1.411 . S
C965 H947 0.930 . S
C965 N962 1.321 . S
C965 C963 1.400 . S
C966 H961 0.930 . S
C966 C963 1.386 . S
C966 C967 1.395 . S
C967 C964 1.411 . S
C967 C966 1.395 . S
C967 C989 1.420 . S
O968 Eu924 2.558 . S
O968 C988 1.257 . S
O969 Eu924 2.612 . S
O969 Eu935 2.380 . S
O969 C980 1.276 . S
O970 Eu935 2.432 . S
O970 C987 1.264 . S
O971 Eu924 2.339 . S
O971 C987 1.254 . S
O972 Eu924 2.563 . S
O972 C980 1.235 . S
O973 Eu924 2.419 . S
O973 C988 1.249 . S
O974 Eu935 2.558 1_545 S
O974 C999 1.257 . S
O975 Eu924 2.380 . S
O975 Eu935 2.612 . S
O975 C991 1.276 . S
O976 Eu924 2.432 . S
O976 C998 1.264 . S
O977 Eu935 2.339 . S
O977 C998 1.254 . S
O978 Eu935 2.563 1_545 S
O978 C991 1.235 1_545 S
O979 Eu935 2.419 1_545 S
O979 C999 1.249 . S
C980 O969 1.276 . S
C980 O972 1.235 . S
C981 C983 1.393 . S
C981 C985 1.395 . S
C981 C988 1.492 . S
C982 C983 1.392 . S
C982 C984 1.386 . S
C983 C981 1.393 . S
C983 C982 1.392 . S
C983 H1000 0.930 . S
C984 C982 1.386 . S
C984 C986 1.395 . S
C984 H1001 0.930 . S
C985 C981 1.395 . S
C985 C986 1.379 . S
C985 H1002 0.930 . S
C986 C984 1.395 . S
C986 C985 1.379 . S
C986 H1003 0.930 . S
C987 O970 1.264 . S
C987 O971 1.254 . S
C988 Eu924 2.848 . S
C988 O968 1.257 . S
C988 O973 1.249 . S
C988 C981 1.492 . S
C989 H954 0.931 . S
C989 C967 1.420 . S
C989 C990 1.351 . S
C990 H952 0.930 . S
C990 C958 1.423 . S
C990 C989 1.351 . S
C991 O975 1.276 . S
C991 O978 1.235 1_565 S
C992 C993 1.393 . S
C992 C996 1.395 . S
C992 C999 1.492 . S
C993 C992 1.393 . S
C993 C994 1.392 . S
C993 H1004 0.930 . S
C994 C993 1.392 . S
C994 C995 1.386 . S
C995 C994 1.386 . S
C995 C997 1.395 . S
C995 H1005 0.930 . S
C996 C992 1.395 . S
C996 C997 1.379 . S
C996 H1006 0.930 . S
C997 C995 1.395 . S
C997 C996 1.379 . S
C997 H1007 0.930 . S
C998 O976 1.264 . S
C998 O977 1.254 . S
C999 Eu935 2.848 1_545 S
C999 O974 1.257 . S
C999 O979 1.249 . S
C999 C992 1.492 . S
H1000 C983 0.930 . S
H1001 C984 0.930 . S
H1002 C985 0.930 . S
H1003 C986 0.930 . S
H1004 C993 0.930 . S
H1005 C995 0.930 . S
H1006 C996 0.930 . S
H1007 C997 0.930 . S
Eu1008 N1039 2.657 . S
Eu1008 N1046 2.609 . S
Eu1008 O1052 2.558 . S
Eu1008 O1053 2.612 . S
Eu1008 O1055 2.339 . S
Eu1008 O1056 2.563 . S
Eu1008 O1057 2.419 . S
Eu1008 O1059 2.380 . S
Eu1008 O1060 2.432 . S
Eu1008 C1072 2.848 . S
C1009 C1012 1.429 . S
C1009 C1013 1.393 1_554 S
C1009 N1016 1.377 1_554 S
C1010 C1012 1.420 . S
C1010 C1014 1.423 . S
C1010 C1022 1.392 . S
C1011 C1013 1.392 1_554 S
C1011 C1014 1.351 . S
C1011 H1034 0.931 . S
C1012 C1009 1.429 . S
C1012 C1010 1.420 . S
C1012 N1020 1.362 . S
C1013 C1009 1.393 1_556 S
C1013 C1011 1.392 1_556 S
C1013 C1018 1.442 . S
C1014 C1010 1.423 . S
C1014 C1011 1.351 . S
C1014 H1026 0.930 . S
C1015 C1017 1.400 . S
C1015 C1018 1.386 . S
C1015 H1027 0.930 . S
N1016 C1009 1.377 1_556 S
N1016 C1017 1.321 . S
N1016 Eu1019 2.609 1_556 S
C1017 C1015 1.400 . S
C1017 N1016 1.321 . S
C1017 H1024 0.930 . S
C1018 C1013 1.442 . S
C1018 C1015 1.386 . S
C1018 H1037 0.930 . S
Eu1019 N1016 2.609 1_554 S
Eu1019 N1020 2.657 . S
Eu1019 O1053 2.380 . S
Eu1019 O1054 2.432 . S
Eu1019 O1058 2.558 1_554 S
Eu1019 O1059 2.612 . S
Eu1019 O1061 2.339 . S
Eu1019 O1062 2.563 1_554 S
Eu1019 O1063 2.419 1_554 S
Eu1019 C1083 2.848 1_554 S
N1020 C1012 1.362 . S
N1020 Eu1019 2.657 . S
N1020 C1021 1.334 . S
C1021 N1020 1.334 . S
C1021 C1023 1.413 . S
C1021 H1028 0.929 . S
C1022 C1010 1.392 . S
C1022 C1023 1.367 . S
C1022 H1030 0.930 . S
C1023 C1021 1.413 . S
C1023 C1022 1.367 . S
C1023 H1025 0.930 . S
H1024 C1017 0.930 . S
H1025 C1023 0.930 . S
H1026 C1014 0.930 . S
H1027 C1015 0.930 . S
H1028 C1021 0.929 . S
H1029 C1043 0.930 1_556 S
H1030 C1022 0.930 . S
H1031 C1049 0.930 . S
H1032 C1040 0.929 . S
H1033 C1047 0.930 . S
H1034 C1011 0.931 . S
H1035 C1041 0.930 . S
H1036 C1074 0.930 . S
H1037 C1018 0.930 . S
H1038 C1073 0.931 . S
N1039 Eu1008 2.657 . S
N1039 C1040 1.334 . S
N1039 C1044 1.362 . S
C1040 H1032 0.929 . S
C1040 N1039 1.334 . S
C1040 C1043 1.413 . S
C1041 H1035 0.930 . S
C1041 C1042 1.392 . S
C1041 C1043 1.367 . S
C1042 C1041 1.392 . S
C1042 C1044 1.420 . S
C1042 C1074 1.423 . S
C1043 H1029 0.930 1_554 S
C1043 C1040 1.413 . S
C1043 C1041 1.367 . S
C1044 N1039 1.362 . S
C1044 C1042 1.420 . S
C1044 C1048 1.429 . S
H1045 C1050 0.930 . S
N1046 Eu1008 2.609 . S
N1046 C1048 1.377 . S
N1046 C1049 1.321 . S
C1047 H1033 0.930 . S
C1047 C1049 1.400 . S
C1047 C1050 1.386 . S
C1048 C1044 1.429 . S
C1048 N1046 1.377 . S
C1048 C1051 1.411 . S
C1049 H1031 0.930 . S
C1049 N1046 1.321 . S
C1049 C1047 1.400 . S
C1050 H1045 0.930 . S
C1050 C1047 1.386 . S
C1050 C1051 1.395 . S
C1051 C1048 1.411 . S
C1051 C1050 1.395 . S
C1051 C1073 1.420 . S
O1052 Eu1008 2.558 . S
O1052 C1072 1.257 . S
O1053 Eu1008 2.612 . S
O1053 Eu1019 2.380 . S
O1053 C1064 1.276 . S
O1054 Eu1019 2.432 . S
O1054 C1071 1.264 . S
O1055 Eu1008 2.339 . S
O1055 C1071 1.254 . S
O1056 Eu1008 2.563 . S
O1056 C1064 1.235 . S
O1057 Eu1008 2.419 . S
O1057 C1072 1.249 . S
O1058 Eu1019 2.558 1_556 S
O1058 C1083 1.257 . S
O1059 Eu1008 2.380 . S
O1059 Eu1019 2.612 . S
O1059 C1075 1.276 . S
O1060 Eu1008 2.432 . S
O1060 C1082 1.264 . S
O1061 Eu1019 2.339 . S
O1061 C1082 1.254 . S
O1062 Eu1019 2.563 1_556 S
O1062 C1075 1.235 1_556 S
O1063 Eu1019 2.419 1_556 S
O1063 C1083 1.249 . S
C1064 O1053 1.276 . S
C1064 O1056 1.235 . S
C1065 C1067 1.393 . S
C1065 C1069 1.395 . S
C1065 C1072 1.492 . S
C1066 C1067 1.392 . S
C1066 C1068 1.386 . S
C1067 C1065 1.393 . S
C1067 C1066 1.392 . S
C1067 H1084 0.930 . S
C1068 C1066 1.386 . S
C1068 C1070 1.395 . S
C1068 H1085 0.930 . S
C1069 C1065 1.395 . S
C1069 C1070 1.379 . S
C1069 H1086 0.930 . S
C1070 C1068 1.395 . S
C1070 C1069 1.379 . S
C1070 H1087 0.930 . S
C1071 O1054 1.264 . S
C1071 O1055 1.254 . S
C1072 Eu1008 2.848 . S
C1072 O1052 1.257 . S
C1072 O1057 1.249 . S
C1072 C1065 1.492 . S
C1073 H1038 0.931 . S
C1073 C1051 1.420 . S
C1073 C1074 1.351 . S
C1074 H1036 0.930 . S
C1074 C1042 1.423 . S
C1074 C1073 1.351 . S
C1075 O1059 1.276 . S
C1075 O1062 1.235 1_554 S
C1076 C1077 1.393 . S
C1076 C1080 1.395 . S
C1076 C1083 1.492 . S
C1077 C1076 1.393 . S
C1077 C1078 1.392 . S
C1077 H1088 0.930 . S
C1078 C1077 1.392 . S
C1078 C1079 1.386 . S
C1079 C1078 1.386 . S
C1079 C1081 1.395 . S
C1079 H1089 0.930 . S
C1080 C1076 1.395 . S
C1080 C1081 1.379 . S
C1080 H1090 0.930 . S
C1081 C1079 1.395 . S
C1081 C1080 1.379 . S
C1081 H1091 0.930 . S
C1082 O1060 1.264 . S
C1082 O1061 1.254 . S
C1083 Eu1019 2.848 1_556 S
C1083 O1058 1.257 . S
C1083 O1063 1.249 . S
C1083 C1076 1.492 . S
H1084 C1067 0.930 . S
H1085 C1068 0.930 . S
H1086 C1069 0.930 . S
H1087 C1070 0.930 . S
H1088 C1077 0.930 . S
H1089 C1079 0.930 . S
H1090 C1080 0.930 . S
H1091 C1081 0.930 . S
Eu1092 N1123 2.657 1_655 S
Eu1092 N1130 2.609 1_655 S
Eu1092 O1136 2.558 1_655 S
Eu1092 O1137 2.612 . S
Eu1092 O1139 2.339 1_655 S
Eu1092 O1140 2.563 . S
Eu1092 O1141 2.419 1_655 S
Eu1092 O1143 2.380 . S
Eu1092 O1144 2.432 . S
Eu1092 C1156 2.848 1_655 S
C1093 C1096 1.429 . S
C1093 C1097 1.411 . S
C1093 N1100 1.377 . S
C1094 C1096 1.420 . S
C1094 C1098 1.423 . S
C1094 C1106 1.392 . S
C1095 C1097 1.420 . S
C1095 C1098 1.351 . S
C1095 H1118 0.931 . S
C1096 C1093 1.429 . S
C1096 C1094 1.420 . S
C1096 N1104 1.362 . S
C1097 C1093 1.411 . S
C1097 C1095 1.420 . S
C1097 C1102 1.395 . S
C1098 C1094 1.423 . S
C1098 C1095 1.351 . S
C1098 H1110 0.930 . S
C1099 C1101 1.400 . S
C1099 C1102 1.386 . S
C1099 H1111 0.930 . S
N1100 C1093 1.377 . S
N1100 C1101 1.321 . S
N1100 Eu1103 2.609 . S
C1101 C1099 1.400 . S
C1101 N1100 1.321 . S
C1101 H1108 0.930 . S
C1102 C1097 1.395 . S
C1102 C1099 1.386 . S
C1102 H1121 0.930 . S
Eu1103 N1100 2.609 . S
Eu1103 N1104 2.657 . S
Eu1103 O1137 2.380 . S
Eu1103 O1138 2.432 . S
Eu1103 O1142 2.558 . S
Eu1103 O1143 2.612 . S
Eu1103 O1145 2.339 . S
Eu1103 O1146 2.563 . S
Eu1103 O1147 2.419 . S
Eu1103 C1167 2.848 . S
N1104 C1096 1.362 . S
N1104 Eu1103 2.657 . S
N1104 C1105 1.334 . S
C1105 N1104 1.334 . S
C1105 C1107 1.413 . S
C1105 H1112 0.929 . S
C1106 C1094 1.392 . S
C1106 C1107 1.367 . S
C1106 H1114 0.930 . S
C1107 C1105 1.413 . S
C1107 C1106 1.367 . S
C1107 H1109 0.930 . S
H1108 C1101 0.930 . S
H1109 C1107 0.930 . S
H1110 C1098 0.930 . S
H1111 C1099 0.930 . S
H1112 C1105 0.929 . S
H1113 C1127 0.930 . S
H1114 C1106 0.930 . S
H1115 C1133 0.930 . S
H1116 C1124 0.929 . S
H1117 C1131 0.930 1_655 S
H1118 C1095 0.931 . S
H1119 C1125 0.930 . S
H1120 C1158 0.930 . S
H1121 C1102 0.930 . S
H1122 C1157 0.931 . S
N1123 Eu1092 2.657 1_455 S
N1123 C1124 1.334 . S
N1123 C1128 1.362 . S
C1124 H1116 0.929 . S
C1124 N1123 1.334 . S
C1124 C1127 1.413 . S
C1125 H1119 0.930 . S
C1125 C1126 1.392 . S
C1125 C1127 1.367 . S
C1126 C1125 1.392 . S
C1126 C1128 1.420 . S
C1126 C1158 1.423 . S
C1127 H1113 0.930 . S
C1127 C1124 1.413 . S
C1127 C1125 1.367 . S
C1128 N1123 1.362 . S
C1128 C1126 1.420 . S
C1128 C1132 1.429 . S
H1129 C1134 0.930 . S
N1130 Eu1092 2.609 1_455 S
N1130 C1132 1.377 . S
N1130 C1133 1.321 1_455 S
C1131 H1117 0.930 1_455 S
C1131 C1133 1.400 1_455 S
C1131 C1134 1.386 . S
C1132 C1128 1.429 . S
C1132 N1130 1.377 . S
C1132 C1135 1.411 . S
C1133 H1115 0.930 . S
C1133 N1130 1.321 1_655 S
C1133 C1131 1.400 1_655 S
C1134 H1129 0.930 . S
C1134 C1131 1.386 . S
C1134 C1135 1.395 . S
C1135 C1132 1.411 . S
C1135 C1134 1.395 . S
C1135 C1157 1.420 . S
O1136 Eu1092 2.558 1_455 S
O1136 C1156 1.257 . S
O1137 Eu1092 2.612 . S
O1137 Eu1103 2.380 . S
O1137 C1148 1.276 . S
O1138 Eu1103 2.432 . S
O1138 C1155 1.264 . S
O1139 Eu1092 2.339 1_455 S
O1139 C1155 1.254 1_455 S
O1140 Eu1092 2.563 . S
O1140 C1148 1.235 . S
O1141 Eu1092 2.419 1_455 S
O1141 C1156 1.249 . S
O1142 Eu1103 2.558 . S
O1142 C1167 1.257 . S
O1143 Eu1092 2.380 . S
O1143 Eu1103 2.612 . S
O1143 C1159 1.276 . S
O1144 Eu1092 2.432 . S
O1144 C1166 1.264 . S
O1145 Eu1103 2.339 . S
O1145 C1166 1.254 . S
O1146 Eu1103 2.563 . S
O1146 C1159 1.235 . S
O1147 Eu1103 2.419 . S
O1147 C1167 1.249 . S
C1148 O1137 1.276 . S
C1148 O1140 1.235 . S
C1149 C1151 1.393 . S
C1149 C1153 1.395 . S
C1149 C1156 1.492 . S
C1150 C1151 1.392 . S
C1150 C1152 1.386 . S
C1151 C1149 1.393 . S
C1151 C1150 1.392 . S
C1151 H1168 0.930 . S
C1152 C1150 1.386 . S
C1152 C1154 1.395 . S
C1152 H1169 0.930 . S
C1153 C1149 1.395 . S
C1153 C1154 1.379 . S
C1153 H1170 0.930 . S
C1154 C1152 1.395 . S
C1154 C1153 1.379 . S
C1154 H1171 0.930 . S
C1155 O1138 1.264 . S
C1155 O1139 1.254 1_655 S
C1156 Eu1092 2.848 1_455 S
C1156 O1136 1.257 . S
C1156 O1141 1.249 . S
C1156 C1149 1.492 . S
C1157 H1122 0.931 . S
C1157 C1135 1.420 . S
C1157 C1158 1.351 . S
C1158 H1120 0.930 . S
C1158 C1126 1.423 . S
C1158 C1157 1.351 . S
C1159 O1143 1.276 . S
C1159 O1146 1.235 . S
C1160 C1161 1.393 . S
C1160 C1164 1.395 . S
C1160 C1167 1.492 . S
C1161 C1160 1.393 . S
C1161 C1162 1.392 . S
C1161 H1172 0.930 . S
C1162 C1161 1.392 . S
C1162 C1163 1.386 . S
C1163 C1162 1.386 . S
C1163 C1165 1.395 . S
C1163 H1173 0.930 . S
C1164 C1160 1.395 . S
C1164 C1165 1.379 . S
C1164 H1174 0.930 . S
C1165 C1163 1.395 . S
C1165 C1164 1.379 . S
C1165 H1175 0.930 . S
C1166 O1144 1.264 . S
C1166 O1145 1.254 . S
C1167 Eu1103 2.848 . S
C1167 O1142 1.257 . S
C1167 O1147 1.249 . S
C1167 C1160 1.492 . S
H1168 C1151 0.930 . S
H1169 C1152 0.930 . S
H1170 C1153 0.930 . S
H1171 C1154 0.930 . S
H1172 C1161 0.930 . S
H1173 C1163 0.930 . S
H1174 C1164 0.930 . S
H1175 C1165 0.930 . S
Eu1176 N1207 2.657 . S
Eu1176 N1214 2.609 . S
Eu1176 O1220 2.558 . S
Eu1176 O1221 2.612 . S
Eu1176 O1223 2.339 . S
Eu1176 O1224 2.563 . S
Eu1176 O1225 2.419 . S
Eu1176 O1227 2.380 . S
Eu1176 O1228 2.432 . S
Eu1176 C1240 2.848 . S
C1177 C1180 1.429 . S
C1177 C1181 1.411 . S
C1177 N1184 1.377 . S
C1178 C1180 1.420 . S
C1178 C1182 1.423 . S
C1178 C1190 1.392 . S
C1179 C1181 1.420 . S
C1179 C1182 1.351 . S
C1179 H1202 0.931 . S
C1180 C1177 1.429 . S
C1180 C1178 1.420 . S
C1180 N1188 1.362 . S
C1181 C1177 1.411 . S
C1181 C1179 1.420 . S
C1181 C1186 1.395 . S
C1182 C1178 1.423 . S
C1182 C1179 1.351 . S
C1182 H1194 0.930 . S
C1183 C1185 1.400 . S
C1183 C1186 1.386 . S
C1183 H1195 0.930 . S
N1184 C1177 1.377 . S
N1184 C1185 1.321 . S
N1184 Eu1187 2.609 . S
C1185 C1183 1.400 . S
C1185 N1184 1.321 . S
C1185 H1192 0.930 . S
C1186 C1181 1.395 . S
C1186 C1183 1.386 . S
C1186 H1205 0.930 . S
Eu1187 N1184 2.609 . S
Eu1187 N1188 2.657 . S
Eu1187 O1221 2.380 . S
Eu1187 O1222 2.432 . S
Eu1187 O1226 2.558 . S
Eu1187 O1227 2.612 . S
Eu1187 O1229 2.339 . S
Eu1187 O1230 2.563 . S
Eu1187 O1231 2.419 . S
Eu1187 C1251 2.848 . S
N1188 C1180 1.362 . S
N1188 Eu1187 2.657 . S
N1188 C1189 1.334 . S
C1189 N1188 1.334 . S
C1189 C1191 1.413 . S
C1189 H1196 0.929 . S
C1190 C1178 1.392 . S
C1190 C1191 1.367 . S
C1190 H1198 0.930 . S
C1191 C1189 1.413 . S
C1191 C1190 1.367 . S
C1191 H1193 0.930 . S
H1192 C1185 0.930 . S
H1193 C1191 0.930 . S
H1194 C1182 0.930 . S
H1195 C1183 0.930 . S
H1196 C1189 0.929 . S
H1197 C1211 0.930 . S
H1198 C1190 0.930 . S
H1199 C1217 0.930 . S
H1200 C1208 0.929 . S
H1201 C1215 0.930 . S
H1202 C1179 0.931 . S
H1203 C1209 0.930 . S
H1204 C1242 0.930 . S
H1205 C1186 0.930 . S
H1206 C1241 0.931 . S
N1207 Eu1176 2.657 . S
N1207 C1208 1.334 . S
N1207 C1212 1.362 . S
C1208 H1200 0.929 . S
C1208 N1207 1.334 . S
C1208 C1211 1.413 . S
C1209 H1203 0.930 . S
C1209 C1210 1.392 . S
C1209 C1211 1.367 . S
C1210 C1209 1.392 . S
C1210 C1212 1.420 . S
C1210 C1242 1.423 . S
C1211 H1197 0.930 . S
C1211 C1208 1.413 . S
C1211 C1209 1.367 . S
C1212 N1207 1.362 . S
C1212 C1210 1.420 . S
C1212 C1216 1.429 . S
H1213 C1218 0.930 . S
N1214 Eu1176 2.609 . S
N1214 C1216 1.377 . S
N1214 C1217 1.321 . S
C1215 H1201 0.930 . S
C1215 C1217 1.400 . S
C1215 C1218 1.386 . S
C1216 C1212 1.429 . S
C1216 N1214 1.377 . S
C1216 C1219 1.411 . S
C1217 H1199 0.930 . S
C1217 N1214 1.321 . S
C1217 C1215 1.400 . S
C1218 H1213 0.930 . S
C1218 C1215 1.386 . S
C1218 C1219 1.395 . S
C1219 C1216 1.411 . S
C1219 C1218 1.395 . S
C1219 C1241 1.420 . S
O1220 Eu1176 2.558 . S
O1220 C1240 1.257 . S
O1221 Eu1176 2.612 . S
O1221 Eu1187 2.380 . S
O1221 C1232 1.276 . S
O1222 Eu1187 2.432 . S
O1222 C1239 1.264 . S
O1223 Eu1176 2.339 . S
O1223 C1239 1.254 . S
O1224 Eu1176 2.563 . S
O1224 C1232 1.235 . S
O1225 Eu1176 2.419 . S
O1225 C1240 1.249 . S
O1226 Eu1187 2.558 . S
O1226 C1251 1.257 . S
O1227 Eu1176 2.380 . S
O1227 Eu1187 2.612 . S
O1227 C1243 1.276 . S
O1228 Eu1176 2.432 . S
O1228 C1250 1.264 . S
O1229 Eu1187 2.339 . S
O1229 C1250 1.254 . S
O1230 Eu1187 2.563 . S
O1230 C1243 1.235 . S
O1231 Eu1187 2.419 . S
O1231 C1251 1.249 . S
C1232 O1221 1.276 . S
C1232 O1224 1.235 . S
C1233 C1235 1.393 . S
C1233 C1237 1.395 . S
C1233 C1240 1.492 . S
C1234 C1235 1.392 . S
C1234 C1236 1.386 . S
C1235 C1233 1.393 . S
C1235 C1234 1.392 . S
C1235 H1252 0.930 . S
C1236 C1234 1.386 . S
C1236 C1238 1.395 . S
C1236 H1253 0.930 . S
C1237 C1233 1.395 . S
C1237 C1238 1.379 . S
C1237 H1254 0.930 . S
C1238 C1236 1.395 . S
C1238 C1237 1.379 . S
C1238 H1255 0.930 . S
C1239 O1222 1.264 . S
C1239 O1223 1.254 . S
C1240 Eu1176 2.848 . S
C1240 O1220 1.257 . S
C1240 O1225 1.249 . S
C1240 C1233 1.492 . S
C1241 H1206 0.931 . S
C1241 C1219 1.420 . S
C1241 C1242 1.351 . S
C1242 H1204 0.930 . S
C1242 C1210 1.423 . S
C1242 C1241 1.351 . S
C1243 O1227 1.276 . S
C1243 O1230 1.235 . S
C1244 C1245 1.393 . S
C1244 C1248 1.395 . S
C1244 C1251 1.492 . S
C1245 C1244 1.393 . S
C1245 C1246 1.392 . S
C1245 H1256 0.930 . S
C1246 C1245 1.392 . S
C1246 C1247 1.386 . S
C1247 C1246 1.386 . S
C1247 C1249 1.395 . S
C1247 H1257 0.930 . S
C1248 C1244 1.395 . S
C1248 C1249 1.379 . S
C1248 H1258 0.930 . S
C1249 C1247 1.395 . S
C1249 C1248 1.379 . S
C1249 H1259 0.930 . S
C1250 O1228 1.264 . S
C1250 O1229 1.254 . S
C1251 Eu1187 2.848 . S
C1251 O1226 1.257 . S
C1251 O1231 1.249 . S
C1251 C1244 1.492 . S
H1252 C1235 0.930 . S
H1253 C1236 0.930 . S
H1254 C1237 0.930 . S
H1255 C1238 0.930 . S
H1256 C1245 0.930 . S
H1257 C1247 0.930 . S
H1258 C1248 0.930 . S
H1259 C1249 0.930 . S
Eu1260 N1291 2.657 . S
Eu1260 N1298 2.609 . S
Eu1260 O1304 2.558 . S
Eu1260 O1305 2.612 . S
Eu1260 O1307 2.339 . S
Eu1260 O1308 2.563 . S
Eu1260 O1309 2.419 . S
Eu1260 O1311 2.380 . S
Eu1260 O1312 2.432 . S
Eu1260 C1324 2.848 . S
C1261 C1264 1.429 . S
C1261 C1265 1.411 . S
C1261 N1268 1.377 . S
C1262 C1264 1.420 . S
C1262 C1266 1.423 . S
C1262 C1274 1.392 . S
C1263 C1265 1.420 . S
C1263 C1266 1.351 . S
C1263 H1286 0.931 . S
C1264 C1261 1.429 . S
C1264 C1262 1.420 . S
C1264 N1272 1.362 . S
C1265 C1261 1.411 . S
C1265 C1263 1.420 . S
C1265 C1270 1.395 . S
C1266 C1262 1.423 . S
C1266 C1263 1.351 . S
C1266 H1278 0.930 . S
C1267 C1269 1.411 . S
C1267 C1270 1.358 1_655 S
C1267 H1279 0.946 . S
N1268 C1261 1.377 . S
N1268 C1269 1.321 1_455 S
N1268 Eu1271 2.609 1_455 S
C1269 C1267 1.411 . S
C1269 N1268 1.321 1_655 S
C1269 H1276 0.930 . S
C1270 C1265 1.395 . S
C1270 C1267 1.358 1_455 S
C1270 H1289 0.930 . S
Eu1271 N1268 2.609 1_655 S
Eu1271 N1272 2.657 1_655 S
Eu1271 O1305 2.380 . S
Eu1271 O1306 2.432 . S
Eu1271 O1310 2.554 1_655 S
Eu1271 O1311 2.612 . S
Eu1271 O1313 2.339 1_655 S
Eu1271 O1314 2.563 . S
Eu1271 O1315 2.419 1_655 S
Eu1271 C1335 2.848 1_655 S
N1272 C1264 1.362 . S
N1272 Eu1271 2.657 1_455 S
N1272 C1273 1.334 . S
C1273 N1272 1.334 . S
C1273 C1275 1.413 . S
C1273 H1280 0.929 . S
C1274 C1262 1.392 . S
C1274 C1275 1.367 . S
C1274 H1282 0.930 . S
C1275 C1273 1.413 . S
C1275 C1274 1.367 . S
C1275 H1277 0.930 . S
H1276 C1269 0.930 . S
H1277 C1275 0.930 . S
H1278 C1266 0.930 . S
H1279 C1267 0.946 . S
H1280 C1273 0.929 . S
H1281 C1295 0.930 . S
H1282 C1274 0.930 . S
H1283 C1301 0.930 . S
H1284 C1292 0.929 . S
H1285 C1299 0.930 . S
H1286 C1263 0.931 . S
H1287 C1293 0.930 . S
H1288 C1326 0.930 . S
H1289 C1270 0.930 . S
H1290 C1325 0.931 . S
N1291 Eu1260 2.657 . S
N1291 C1292 1.334 . S
N1291 C1296 1.362 . S
C1292 H1284 0.929 . S
C1292 N1291 1.334 . S
C1292 C1295 1.413 . S
C1293 H1287 0.930 . S
C1293 C1294 1.392 . S
C1293 C1295 1.367 . S
C1294 C1293 1.392 . S
C1294 C1296 1.420 . S
C1294 C1326 1.423 . S
C1295 H1281 0.930 . S
C1295 C1292 1.413 . S
C1295 C1293 1.367 . S
C1296 N1291 1.362 . S
C1296 C1294 1.420 . S
C1296 C1300 1.429 . S
H1297 C1302 0.930 . S
N1298 Eu1260 2.609 . S
N1298 C1300 1.377 . S
N1298 C1301 1.321 . S
C1299 H1285 0.930 . S
C1299 C1301 1.400 . S
C1299 C1302 1.386 . S
C1300 C1296 1.429 . S
C1300 N1298 1.377 . S
C1300 C1303 1.411 . S
C1301 H1283 0.930 . S
C1301 N1298 1.321 . S
C1301 C1299 1.400 . S
C1302 H1297 0.930 . S
C1302 C1299 1.386 . S
C1302 C1303 1.395 . S
C1303 C1300 1.411 . S
C1303 C1302 1.395 . S
C1303 C1325 1.420 . S
O1304 Eu1260 2.558 . S
O1304 C1324 1.257 . S
O1305 Eu1260 2.612 . S
O1305 Eu1271 2.380 . S
O1305 C1316 1.276 . S
O1306 Eu1271 2.432 . S
O1306 C1323 1.264 . S
O1307 Eu1260 2.339 . S
O1307 C1323 1.254 . S
O1308 Eu1260 2.563 . S
O1308 C1316 1.235 . S
O1309 Eu1260 2.419 . S
O1309 C1324 1.249 . S
O1310 Eu1271 2.554 1_455 S
O1310 C1335 1.270 . S
O1311 Eu1260 2.380 . S
O1311 Eu1271 2.612 . S
O1311 C1327 1.276 . S
O1312 Eu1260 2.432 . S
O1312 C1334 1.264 . S
O1313 Eu1271 2.339 1_455 S
O1313 C1334 1.254 1_455 S
O1314 Eu1271 2.563 . S
O1314 C1327 1.235 . S
O1315 Eu1271 2.419 1_455 S
O1315 C1335 1.249 . S
C1316 O1305 1.276 . S
C1316 O1308 1.235 . S
C1317 C1319 1.393 . S
C1317 C1321 1.395 . S
C1317 C1324 1.492 . S
C1318 C1319 1.392 . S
C1318 C1320 1.386 . S
C1319 C1317 1.393 . S
C1319 C1318 1.392 . S
C1319 H1336 0.930 . S
C1320 C1318 1.386 . S
C1320 C1322 1.395 . S
C1320 H1337 0.930 . S
C1321 C1317 1.395 . S
C1321 C1322 1.379 . S
C1321 H1338 0.930 . S
C1322 C1320 1.395 . S
C1322 C1321 1.379 . S
C1322 H1339 0.930 . S
C1323 O1306 1.264 . S
C1323 O1307 1.254 . S
C1324 Eu1260 2.848 . S
C1324 O1304 1.257 . S
C1324 O1309 1.249 . S
C1324 C1317 1.492 . S
C1325 H1290 0.931 . S
C1325 C1303 1.420 . S
C1325 C1326 1.351 . S
C1326 H1288 0.930 . S
C1326 C1294 1.423 . S
C1326 C1325 1.351 . S
C1327 O1311 1.276 . S
C1327 O1314 1.235 . S
C1328 C1329 1.393 . S
C1328 C1332 1.395 . S
C1328 C1335 1.492 . S
C1329 C1328 1.393 . S
C1329 C1330 1.392 . S
C1329 H1340 0.930 . S
C1330 C1329 1.392 . S
C1330 C1331 1.386 . S
C1331 C1330 1.386 . S
C1331 C1333 1.395 . S
C1331 H1341 0.930 . S
C1332 C1328 1.395 . S
C1332 C1333 1.379 . S
C1332 H1342 0.930 . S
C1333 C1331 1.395 . S
C1333 C1332 1.379 . S
C1333 H1343 0.930 . S
C1334 O1312 1.264 . S
C1334 O1313 1.254 1_655 S
C1335 Eu1271 2.848 1_455 S
C1335 O1310 1.270 . S
C1335 O1315 1.249 . S
C1335 C1328 1.492 . S
H1336 C1319 0.930 . S
H1337 C1320 0.930 . S
H1338 C1321 0.930 . S
H1339 C1322 0.930 . S
H1340 C1329 0.930 . S
H1341 C1331 0.930 . S
H1342 C1332 0.930 . S
H1343 C1333 0.930 . S
Eu1344 N1375 2.657 . S
Eu1344 N1382 2.609 . S
Eu1344 O1388 2.558 . S
Eu1344 O1389 2.612 . S
Eu1344 O1391 2.339 . S
Eu1344 O1392 2.563 . S
Eu1344 O1393 2.419 . S
Eu1344 O1395 2.380 . S
Eu1344 O1396 2.432 . S
Eu1344 C1408 2.848 . S
C1345 C1348 1.429 . S
C1345 C1349 1.411 . S
C1345 N1352 1.377 . S
C1346 C1348 1.420 . S
C1346 C1350 1.423 . S
C1346 C1358 1.392 . S
C1347 C1349 1.420 . S
C1347 C1350 1.351 . S
C1347 H1370 0.931 . S
C1348 C1345 1.429 . S
C1348 C1346 1.420 . S
C1348 N1356 1.362 . S
C1349 C1345 1.411 . S
C1349 C1347 1.420 . S
C1349 C1354 1.395 . S
C1350 C1346 1.423 . S
C1350 C1347 1.351 . S
C1350 H1362 0.930 . S
C1351 C1353 1.400 . S
C1351 C1354 1.386 . S
C1351 H1363 0.930 . S
N1352 C1345 1.377 . S
N1352 C1353 1.321 . S
N1352 Eu1355 2.609 . S
C1353 C1351 1.400 . S
C1353 N1352 1.321 . S
C1353 H1360 0.930 . S
C1354 C1349 1.395 . S
C1354 C1351 1.386 . S
C1354 H1373 0.930 . S
Eu1355 N1352 2.609 . S
Eu1355 N1356 2.657 . S
Eu1355 O1389 2.380 . S
Eu1355 O1390 2.432 . S
Eu1355 O1394 2.558 . S
Eu1355 O1395 2.612 . S
Eu1355 O1397 2.339 . S
Eu1355 O1398 2.563 . S
Eu1355 O1399 2.419 . S
Eu1355 C1419 2.848 . S
N1356 C1348 1.362 . S
N1356 Eu1355 2.657 . S
N1356 C1357 1.334 . S
C1357 N1356 1.334 . S
C1357 C1359 1.413 . S
C1357 H1364 0.929 . S
C1358 C1346 1.392 . S
C1358 C1359 1.367 . S
C1358 H1366 0.930 . S
C1359 C1357 1.413 . S
C1359 C1358 1.367 . S
C1359 H1361 0.930 . S
H1360 C1353 0.930 . S
H1361 C1359 0.930 . S
H1362 C1350 0.930 . S
H1363 C1351 0.930 . S
H1364 C1357 0.929 . S
H1365 C1379 0.930 . S
H1366 C1358 0.930 . S
H1367 C1385 0.930 . S
H1368 C1376 0.929 . S
H1369 C1383 0.930 . S
H1370 C1347 0.931 . S
H1371 C1377 0.930 . S
H1372 C1410 0.930 . S
H1373 C1354 0.930 . S
H1374 C1409 0.931 . S
N1375 Eu1344 2.657 . S
N1375 C1376 1.334 . S
N1375 C1380 1.362 . S
C1376 H1368 0.929 . S
C1376 N1375 1.334 . S
C1376 C1379 1.413 . S
C1377 H1371 0.930 . S
C1377 C1378 1.392 . S
C1377 C1379 1.367 . S
C1378 C1377 1.392 . S
C1378 C1380 1.420 . S
C1378 C1410 1.423 . S
C1379 H1365 0.930 . S
C1379 C1376 1.413 . S
C1379 C1377 1.367 . S
C1380 N1375 1.362 . S
C1380 C1378 1.420 . S
C1380 C1384 1.429 . S
H1381 C1386 0.930 . S
N1382 Eu1344 2.609 . S
N1382 C1384 1.377 . S
N1382 C1385 1.321 . S
C1383 H1369 0.930 . S
C1383 C1385 1.400 . S
C1383 C1386 1.386 . S
C1384 C1380 1.429 . S
C1384 N1382 1.377 . S
C1384 C1387 1.411 . S
C1385 H1367 0.930 . S
C1385 N1382 1.321 . S
C1385 C1383 1.400 . S
C1386 H1381 0.930 . S
C1386 C1383 1.386 . S
C1386 C1387 1.395 . S
C1387 C1384 1.411 . S
C1387 C1386 1.395 . S
C1387 C1409 1.420 . S
O1388 Eu1344 2.558 . S
O1388 C1408 1.257 . S
O1389 Eu1344 2.612 . S
O1389 Eu1355 2.380 . S
O1389 C1400 1.276 . S
O1390 Eu1355 2.432 . S
O1390 C1407 1.264 . S
O1391 Eu1344 2.339 . S
O1391 C1407 1.254 . S
O1392 Eu1344 2.563 . S
O1392 C1400 1.235 . S
O1393 Eu1344 2.419 . S
O1393 C1408 1.249 . S
O1394 Eu1355 2.558 . S
O1394 C1419 1.257 . S
O1395 Eu1344 2.380 . S
O1395 Eu1355 2.612 . S
O1395 C1411 1.276 . S
O1396 Eu1344 2.432 . S
O1396 C1418 1.264 . S
O1397 Eu1355 2.339 . S
O1397 C1418 1.254 . S
O1398 Eu1355 2.563 . S
O1398 C1411 1.235 . S
O1399 Eu1355 2.419 . S
O1399 C1419 1.249 . S
C1400 O1389 1.276 . S
C1400 O1392 1.235 . S
C1401 C1403 1.393 . S
C1401 C1405 1.395 . S
C1401 C1408 1.492 . S
C1402 C1403 1.392 . S
C1402 C1404 1.386 . S
C1403 C1401 1.393 . S
C1403 C1402 1.392 . S
C1403 H1420 0.930 . S
C1404 C1402 1.386 . S
C1404 C1406 1.395 . S
C1404 H1421 0.930 . S
C1405 C1401 1.395 . S
C1405 C1406 1.379 . S
C1405 H1422 0.930 . S
C1406 C1404 1.395 . S
C1406 C1405 1.379 . S
C1406 H1423 0.930 . S
C1407 O1390 1.264 . S
C1407 O1391 1.254 . S
C1408 Eu1344 2.848 . S
C1408 O1388 1.257 . S
C1408 O1393 1.249 . S
C1408 C1401 1.492 . S
C1409 H1374 0.931 . S
C1409 C1387 1.420 . S
C1409 C1410 1.351 . S
C1410 H1372 0.930 . S
C1410 C1378 1.423 . S
C1410 C1409 1.351 . S
C1411 O1395 1.276 . S
C1411 O1398 1.235 . S
C1412 C1413 1.393 . S
C1412 C1416 1.395 . S
C1412 C1419 1.492 . S
C1413 C1412 1.393 . S
C1413 C1414 1.392 . S
C1413 H1424 0.930 . S
C1414 C1413 1.392 . S
C1414 C1415 1.386 . S
C1415 C1414 1.386 . S
C1415 C1417 1.395 . S
C1415 H1425 0.930 . S
C1416 C1412 1.395 . S
C1416 C1417 1.379 . S
C1416 H1426 0.930 . S
C1417 C1415 1.395 . S
C1417 C1416 1.379 . S
C1417 H1427 0.930 . S
C1418 O1396 1.264 . S
C1418 O1397 1.254 . S
C1419 Eu1355 2.848 . S
C1419 O1394 1.257 . S
C1419 O1399 1.249 . S
C1419 C1412 1.492 . S
H1420 C1403 0.930 . S
H1421 C1404 0.930 . S
H1422 C1405 0.930 . S
H1423 C1406 0.930 . S
H1424 C1413 0.930 . S
H1425 C1415 0.930 . S
H1426 C1416 0.930 . S
H1427 C1417 0.930 . S
Eu1428 N1459 2.657 . S
Eu1428 N1466 2.609 . S
Eu1428 O1472 2.558 . S
Eu1428 O1473 2.612 . S
Eu1428 O1475 2.339 . S
Eu1428 O1476 2.563 . S
Eu1428 O1477 2.419 . S
Eu1428 O1479 2.380 . S
Eu1428 O1480 2.432 . S
Eu1428 C1492 2.848 . S
C1429 C1432 1.429 . S
C1429 C1433 1.411 . S
C1429 N1436 1.377 . S
C1430 C1432 1.420 . S
C1430 C1434 1.423 . S
C1430 C1442 1.392 . S
C1431 C1433 1.420 . S
C1431 C1434 1.351 . S
C1431 H1454 0.931 . S
C1432 C1429 1.429 . S
C1432 C1430 1.420 . S
C1432 N1440 1.362 . S
C1433 C1429 1.411 . S
C1433 C1431 1.420 . S
C1433 C1438 1.395 . S
C1434 C1430 1.423 . S
C1434 C1431 1.351 . S
C1434 H1446 0.930 . S
C1435 C1437 1.400 . S
C1435 C1438 1.386 . S
C1435 H1447 0.930 . S
N1436 C1429 1.377 . S
N1436 C1437 1.321 . S
N1436 Eu1439 2.609 . S
C1437 C1435 1.400 . S
C1437 N1436 1.321 . S
C1437 H1444 0.930 . S
C1438 C1433 1.395 . S
C1438 C1435 1.386 . S
C1438 H1457 0.930 . S
Eu1439 N1436 2.609 . S
Eu1439 N1440 2.657 . S
Eu1439 O1473 2.380 . S
Eu1439 O1474 2.432 . S
Eu1439 O1478 2.558 . S
Eu1439 O1479 2.612 . S
Eu1439 O1481 2.339 . S
Eu1439 O1482 2.563 . S
Eu1439 O1483 2.419 . S
Eu1439 C1503 2.848 . S
N1440 C1432 1.362 . S
N1440 Eu1439 2.657 . S
N1440 C1441 1.334 . S
C1441 N1440 1.334 . S
C1441 C1443 1.413 . S
C1441 H1448 0.929 . S
C1442 C1430 1.392 . S
C1442 C1443 1.367 . S
C1442 H1450 0.930 . S
C1443 C1441 1.413 . S
C1443 C1442 1.367 . S
C1443 H1445 0.930 . S
H1444 C1437 0.930 . S
H1445 C1443 0.930 . S
H1446 C1434 0.930 . S
H1447 C1435 0.930 . S
H1448 C1441 0.929 . S
H1449 C1463 0.930 . S
H1450 C1442 0.930 . S
H1451 C1469 0.930 . S
H1452 C1460 0.929 . S
H1453 C1467 0.930 . S
H1454 C1431 0.931 . S
H1455 C1461 0.930 . S
H1456 C1494 0.930 . S
H1457 C1438 0.930 . S
H1458 C1493 0.931 . S
N1459 Eu1428 2.657 . S
N1459 C1460 1.334 . S
N1459 C1464 1.362 . S
C1460 H1452 0.929 . S
C1460 N1459 1.334 . S
C1460 C1463 1.413 . S
C1461 H1455 0.930 . S
C1461 C1462 1.392 . S
C1461 C1463 1.367 . S
C1462 C1461 1.392 . S
C1462 C1464 1.420 . S
C1462 C1494 1.423 . S
C1463 H1449 0.930 . S
C1463 C1460 1.413 . S
C1463 C1461 1.367 . S
C1464 N1459 1.362 . S
C1464 C1462 1.420 . S
C1464 C1468 1.429 . S
H1465 C1470 0.930 . S
N1466 Eu1428 2.609 . S
N1466 C1468 1.377 . S
N1466 C1469 1.321 . S
C1467 H1453 0.930 . S
C1467 C1469 1.400 . S
C1467 C1470 1.386 . S
C1468 C1464 1.429 . S
C1468 N1466 1.377 . S
C1468 C1471 1.411 . S
C1469 H1451 0.930 . S
C1469 N1466 1.321 . S
C1469 C1467 1.400 . S
C1470 H1465 0.930 . S
C1470 C1467 1.386 . S
C1470 C1471 1.395 . S
C1471 C1468 1.411 . S
C1471 C1470 1.395 . S
C1471 C1493 1.420 . S
O1472 Eu1428 2.558 . S
O1472 C1492 1.257 . S
O1473 Eu1428 2.612 . S
O1473 Eu1439 2.380 . S
O1473 C1484 1.276 . S
O1474 Eu1439 2.432 . S
O1474 C1491 1.264 . S
O1475 Eu1428 2.339 . S
O1475 C1491 1.254 . S
O1476 Eu1428 2.563 . S
O1476 C1484 1.235 . S
O1477 Eu1428 2.419 . S
O1477 C1492 1.249 . S
O1478 Eu1439 2.558 . S
O1478 C1503 1.257 . S
O1479 Eu1428 2.380 . S
O1479 Eu1439 2.612 . S
O1479 C1495 1.276 . S
O1480 Eu1428 2.432 . S
O1480 C1502 1.264 . S
O1481 Eu1439 2.339 . S
O1481 C1502 1.254 . S
O1482 Eu1439 2.563 . S
O1482 C1495 1.235 . S
O1483 Eu1439 2.419 . S
O1483 C1503 1.249 . S
C1484 O1473 1.276 . S
C1484 O1476 1.235 . S
C1485 C1487 1.393 . S
C1485 C1489 1.395 . S
C1485 C1492 1.492 . S
C1486 C1487 1.392 . S
C1486 C1488 1.386 . S
C1487 C1485 1.393 . S
C1487 C1486 1.392 . S
C1487 H1504 0.930 . S
C1488 C1486 1.386 . S
C1488 C1490 1.395 . S
C1488 H1505 0.930 . S
C1489 C1485 1.395 . S
C1489 C1490 1.379 . S
C1489 H1506 0.930 . S
C1490 C1488 1.395 . S
C1490 C1489 1.379 . S
C1490 H1507 0.930 . S
C1491 O1474 1.264 . S
C1491 O1475 1.254 . S
C1492 Eu1428 2.848 . S
C1492 O1472 1.257 . S
C1492 O1477 1.249 . S
C1492 C1485 1.492 . S
C1493 H1458 0.931 . S
C1493 C1471 1.420 . S
C1493 C1494 1.351 . S
C1494 H1456 0.930 . S
C1494 C1462 1.423 . S
C1494 C1493 1.351 . S
C1495 O1479 1.276 . S
C1495 O1482 1.235 . S
C1496 C1497 1.393 . S
C1496 C1500 1.395 . S
C1496 C1503 1.492 . S
C1497 C1496 1.393 . S
C1497 C1498 1.392 . S
C1497 H1508 0.930 . S
C1498 C1497 1.392 . S
C1498 C1499 1.386 . S
C1499 C1498 1.386 . S
C1499 C1501 1.395 . S
C1499 H1509 0.930 . S
C1500 C1496 1.395 . S
C1500 C1501 1.379 . S
C1500 H1510 0.930 . S
C1501 C1499 1.395 . S
C1501 C1500 1.379 . S
C1501 H1511 0.930 . S
C1502 O1480 1.264 . S
C1502 O1481 1.254 . S
C1503 Eu1439 2.848 . S
C1503 O1478 1.257 . S
C1503 O1483 1.249 . S
C1503 C1496 1.492 . S
H1504 C1487 0.930 . S
H1505 C1488 0.930 . S
H1506 C1489 0.930 . S
H1507 C1490 0.930 . S
H1508 C1497 0.930 . S
H1509 C1499 0.930 . S
H1510 C1500 0.930 . S
H1511 C1501 0.930 . S
Eu1512 N1543 2.657 . S
Eu1512 N1550 2.609 1_556 S
Eu1512 O1556 2.558 1_556 S
Eu1512 O1557 2.612 . S
Eu1512 O1559 2.339 . S
Eu1512 O1560 2.563 1_556 S
Eu1512 O1561 2.419 1_556 S
Eu1512 O1563 2.380 . S
Eu1512 O1564 2.439 . S
Eu1512 C1576 2.848 1_556 S
C1513 C1516 1.429 . S
C1513 C1517 1.411 . S
C1513 N1520 1.377 . S
C1514 C1516 1.420 . S
C1514 C1518 1.423 . S
C1514 C1526 1.392 . S
C1515 C1517 1.420 . S
C1515 C1518 1.351 . S
C1515 H1538 0.931 . S
C1516 C1513 1.429 . S
C1516 C1514 1.420 . S
C1516 N1524 1.362 . S
C1517 C1513 1.411 . S
C1517 C1515 1.420 . S
C1517 C1522 1.395 . S
C1518 C1514 1.423 . S
C1518 C1515 1.351 . S
C1518 H1530 0.930 . S
C1519 C1521 1.400 . S
C1519 C1522 1.386 . S
C1519 H1531 0.930 . S
N1520 C1513 1.377 . S
N1520 C1521 1.321 . S
N1520 Eu1523 2.609 . S
C1521 C1519 1.400 . S
C1521 N1520 1.321 . S
C1521 H1528 0.930 . S
C1522 C1517 1.395 . S
C1522 C1519 1.386 . S
C1522 H1541 0.930 . S
Eu1523 N1520 2.609 . S
Eu1523 N1524 2.657 . S
Eu1523 O1557 2.380 . S
Eu1523 O1558 2.432 . S
Eu1523 O1562 2.558 . S
Eu1523 O1563 2.612 . S
Eu1523 O1565 2.339 . S
Eu1523 O1566 2.563 . S
Eu1523 O1567 2.419 . S
Eu1523 C1587 2.848 . S
N1524 C1516 1.362 . S
N1524 Eu1523 2.657 . S
N1524 C1525 1.334 . S
C1525 N1524 1.334 . S
C1525 C1527 1.413 . S
C1525 H1532 0.929 . S
C1526 C1514 1.392 . S
C1526 C1527 1.367 . S
C1526 H1534 0.930 . S
C1527 C1525 1.413 . S
C1527 C1526 1.367 . S
C1527 H1529 0.930 1_556 S
H1528 C1521 0.930 . S
H1529 C1527 0.930 1_554 S
H1530 C1518 0.930 . S
H1531 C1519 0.930 . S
H1532 C1525 0.929 . S
H1533 C1547 0.930 . S
H1534 C1526 0.930 . S
H1535 C1553 0.930 . S
H1536 C1544 0.929 . S
H1537 C1551 0.930 . S
H1538 C1515 0.931 . S
H1539 C1545 0.930 . S
H1540 C1578 0.930 . S
H1541 C1522 0.930 . S
H1542 C1577 0.931 . S
N1543 Eu1512 2.657 . S
N1543 C1544 1.334 . S
N1543 C1548 1.362 . S
C1544 H1536 0.929 . S
C1544 N1543 1.334 . S
C1544 C1547 1.413 . S
C1545 H1539 0.930 . S
C1545 C1546 1.392 . S
C1545 C1547 1.367 . S
C1546 C1545 1.392 . S
C1546 C1548 1.420 . S
C1546 C1578 1.423 . S
C1547 H1533 0.930 . S
C1547 C1544 1.413 . S
C1547 C1545 1.367 . S
C1548 N1543 1.362 . S
C1548 C1546 1.420 . S
C1548 C1552 1.429 . S
H1549 C1554 0.930 . S
N1550 Eu1512 2.609 1_554 S
N1550 C1552 1.377 1_554 S
N1550 C1553 1.321 . S
C1551 H1537 0.930 . S
C1551 C1553 1.400 . S
C1551 C1554 1.386 . S
C1552 C1548 1.429 . S
C1552 N1550 1.377 1_556 S
C1552 C1555 1.411 1_556 S
C1553 H1535 0.930 . S
C1553 N1550 1.321 . S
C1553 C1551 1.400 . S
C1554 H1549 0.930 . S
C1554 C1551 1.386 . S
C1554 C1555 1.395 . S
C1555 C1552 1.411 1_554 S
C1555 C1554 1.395 . S
C1555 C1577 1.420 1_554 S
O1556 Eu1512 2.558 1_554 S
O1556 C1576 1.257 . S
O1557 Eu1512 2.612 . S
O1557 Eu1523 2.380 . S
O1557 C1568 1.276 . S
O1558 Eu1523 2.432 . S
O1558 C1575 1.264 . S
O1559 Eu1512 2.339 . S
O1559 C1575 1.254 . S
O1560 Eu1512 2.563 1_554 S
O1560 C1568 1.235 1_554 S
O1561 Eu1512 2.419 1_554 S
O1561 C1576 1.249 . S
O1562 Eu1523 2.558 . S
O1562 C1587 1.257 . S
O1563 Eu1512 2.380 . S
O1563 Eu1523 2.612 . S
O1563 C1579 1.276 . S
O1564 Eu1512 2.439 . S
O1564 C1586 1.290 . S
O1565 Eu1523 2.339 . S
O1565 C1586 1.254 . S
O1566 Eu1523 2.563 . S
O1566 C1579 1.235 . S
O1567 Eu1523 2.419 . S
O1567 C1587 1.249 . S
C1568 O1557 1.276 . S
C1568 O1560 1.235 1_556 S
C1569 C1571 1.393 . S
C1569 C1573 1.395 . S
C1569 C1576 1.492 . S
C1570 C1571 1.392 . S
C1570 C1572 1.386 . S
C1571 C1569 1.393 . S
C1571 C1570 1.392 . S
C1571 H1588 0.930 . S
C1572 C1570 1.386 . S
C1572 C1574 1.395 . S
C1572 H1589 0.930 . S
C1573 C1569 1.395 . S
C1573 C1574 1.379 . S
C1573 H1590 0.930 . S
C1574 C1572 1.395 . S
C1574 C1573 1.379 . S
C1574 H1591 0.930 . S
C1575 O1558 1.264 . S
C1575 O1559 1.254 . S
C1576 Eu1512 2.848 1_554 S
C1576 O1556 1.257 . S
C1576 O1561 1.249 . S
C1576 C1569 1.492 . S
C1577 H1542 0.931 . S
C1577 C1555 1.420 1_556 S
C1577 C1578 1.351 . S
C1578 H1540 0.930 . S
C1578 C1546 1.423 . S
C1578 C1577 1.351 . S
C1579 O1563 1.276 . S
C1579 O1566 1.235 . S
C1580 C1581 1.393 . S
C1580 C1584 1.395 . S
C1580 C1587 1.492 . S
C1581 C1580 1.393 . S
C1581 C1582 1.392 . S
C1581 H1592 0.930 . S
C1582 C1581 1.392 . S
C1582 C1583 1.386 . S
C1583 C1582 1.386 . S
C1583 C1585 1.395 . S
C1583 H1593 0.930 . S
C1584 C1580 1.395 . S
C1584 C1585 1.379 . S
C1584 H1594 0.930 . S
C1585 C1583 1.395 . S
C1585 C1584 1.379 . S
C1585 H1595 0.930 . S
C1586 O1564 1.290 . S
C1586 O1565 1.254 . S
C1587 Eu1523 2.848 . S
C1587 O1562 1.257 . S
C1587 O1567 1.249 . S
C1587 C1580 1.492 . S
H1588 C1571 0.930 . S
H1589 C1572 0.930 . S
H1590 C1573 0.930 . S
H1591 C1574 0.930 . S
H1592 C1581 0.930 . S
H1593 C1583 0.930 . S
H1594 C1584 0.930 . S
H1595 C1585 0.930 . S
Eu1596 N1627 2.657 . S
Eu1596 N1634 2.609 . S
Eu1596 O1640 2.558 . S
Eu1596 O1641 2.612 . S
Eu1596 O1643 2.339 . S
Eu1596 O1644 2.563 . S
Eu1596 O1645 2.419 . S
Eu1596 O1647 2.380 . S
Eu1596 O1648 2.432 . S
Eu1596 C1660 2.848 . S
C1597 C1600 1.429 . S
C1597 C1601 1.411 . S
C1597 N1604 1.377 . S
C1598 C1600 1.420 . S
C1598 C1602 1.423 . S
C1598 C1610 1.392 . S
C1599 C1601 1.420 . S
C1599 C1602 1.351 . S
C1599 H1622 0.931 . S
C1600 C1597 1.429 . S
C1600 C1598 1.420 . S
C1600 N1608 1.362 . S
C1601 C1597 1.411 . S
C1601 C1599 1.420 . S
C1601 C1606 1.395 . S
C1602 C1598 1.423 . S
C1602 C1599 1.351 . S
C1602 H1614 0.930 . S
C1603 C1605 1.383 1_455 S
C1603 C1606 1.430 . S
C1603 H1615 0.904 1_455 S
N1604 C1597 1.377 . S
N1604 C1605 1.321 1_455 S
N1604 Eu1607 2.609 1_455 S
C1605 C1603 1.383 1_655 S
C1605 N1604 1.321 1_655 S
C1605 H1612 0.930 . S
C1606 C1601 1.395 . S
C1606 C1603 1.430 . S
C1606 H1625 0.930 . S
Eu1607 N1604 2.609 1_655 S
Eu1607 N1608 2.657 1_655 S
Eu1607 O1641 2.380 . S
Eu1607 O1642 2.432 . S
Eu1607 O1646 2.558 1_655 S
Eu1607 O1647 2.612 . S
Eu1607 O1649 2.339 1_655 S
Eu1607 O1650 2.563 . S
Eu1607 O1651 2.419 1_655 S
Eu1607 C1671 2.848 1_655 S
N1608 C1600 1.362 . S
N1608 Eu1607 2.657 1_455 S
N1608 C1609 1.334 . S
C1609 N1608 1.334 . S
C1609 C1611 1.413 . S
C1609 H1616 0.929 . S
C1610 C1598 1.392 . S
C1610 C1611 1.367 . S
C1610 H1618 0.930 . S
C1611 C1609 1.413 . S
C1611 C1610 1.367 . S
C1611 H1613 0.930 . S
H1612 C1605 0.930 . S
H1613 C1611 0.930 . S
H1614 C1602 0.930 . S
H1615 C1603 0.904 1_655 S
H1616 C1609 0.929 . S
H1617 C1631 0.930 . S
H1618 C1610 0.930 . S
H1619 C1637 0.930 . S
H1620 C1628 0.929 . S
H1621 C1635 0.930 . S
H1622 C1599 0.931 . S
H1623 C1629 0.930 . S
H1624 C1662 0.930 . S
H1625 C1606 0.930 . S
H1626 C1661 0.931 . S
N1627 Eu1596 2.657 . S
N1627 C1628 1.334 . S
N1627 C1632 1.362 . S
C1628 H1620 0.929 . S
C1628 N1627 1.334 . S
C1628 C1631 1.413 . S
C1629 H1623 0.930 . S
C1629 C1630 1.392 . S
C1629 C1631 1.367 . S
C1630 C1629 1.392 . S
C1630 C1632 1.420 . S
C1630 C1662 1.423 . S
C1631 H1617 0.930 . S
C1631 C1628 1.413 . S
C1631 C1629 1.367 . S
C1632 N1627 1.362 . S
C1632 C1630 1.420 . S
C1632 C1636 1.429 . S
H1633 C1638 0.930 . S
N1634 Eu1596 2.609 . S
N1634 C1636 1.377 . S
N1634 C1637 1.321 . S
C1635 H1621 0.930 . S
C1635 C1637 1.400 . S
C1635 C1638 1.386 . S
C1636 C1632 1.429 . S
C1636 N1634 1.377 . S
C1636 C1639 1.411 . S
C1637 H1619 0.930 . S
C1637 N1634 1.321 . S
C1637 C1635 1.400 . S
C1638 H1633 0.930 . S
C1638 C1635 1.386 . S
C1638 C1639 1.395 . S
C1639 C1636 1.411 . S
C1639 C1638 1.395 . S
C1639 C1661 1.420 . S
O1640 Eu1596 2.558 . S
O1640 C1660 1.257 . S
O1641 Eu1596 2.612 . S
O1641 Eu1607 2.380 . S
O1641 C1652 1.276 . S
O1642 Eu1607 2.432 . S
O1642 C1659 1.264 . S
O1643 Eu1596 2.339 . S
O1643 C1659 1.254 . S
O1644 Eu1596 2.563 . S
O1644 C1652 1.235 . S
O1645 Eu1596 2.419 . S
O1645 C1660 1.249 . S
O1646 Eu1607 2.558 1_455 S
O1646 C1671 1.257 . S
O1647 Eu1596 2.380 . S
O1647 Eu1607 2.612 . S
O1647 C1663 1.276 . S
O1648 Eu1596 2.432 . S
O1648 C1670 1.264 . S
O1649 Eu1607 2.339 1_455 S
O1649 C1670 1.254 1_455 S
O1650 Eu1607 2.563 . S
O1650 C1663 1.235 . S
O1651 Eu1607 2.419 1_455 S
O1651 C1671 1.249 . S
C1652 O1641 1.276 . S
C1652 O1644 1.235 . S
C1653 C1655 1.393 . S
C1653 C1657 1.395 . S
C1653 C1660 1.492 . S
C1654 C1655 1.392 . S
C1654 C1656 1.386 . S
C1655 C1653 1.393 . S
C1655 C1654 1.392 . S
C1655 H1672 0.930 . S
C1656 C1654 1.386 . S
C1656 C1658 1.395 . S
C1656 H1673 0.930 . S
C1657 C1653 1.395 . S
C1657 C1658 1.379 . S
C1657 H1674 0.930 . S
C1658 C1656 1.395 . S
C1658 C1657 1.379 . S
C1658 H1675 0.930 . S
C1659 O1642 1.264 . S
C1659 O1643 1.254 . S
C1660 Eu1596 2.848 . S
C1660 O1640 1.257 . S
C1660 O1645 1.249 . S
C1660 C1653 1.492 . S
C1661 H1626 0.931 . S
C1661 C1639 1.420 . S
C1661 C1662 1.351 . S
C1662 H1624 0.930 . S
C1662 C1630 1.423 . S
C1662 C1661 1.351 . S
C1663 O1647 1.276 . S
C1663 O1650 1.235 . S
C1664 C1665 1.393 . S
C1664 C1668 1.395 . S
C1664 C1671 1.492 . S
C1665 C1664 1.393 . S
C1665 C1666 1.392 . S
C1665 H1676 0.930 . S
C1666 C1665 1.392 . S
C1666 C1667 1.386 . S
C1667 C1666 1.386 . S
C1667 C1669 1.395 . S
C1667 H1677 0.930 . S
C1668 C1664 1.395 . S
C1668 C1669 1.379 . S
C1668 H1678 0.930 . S
C1669 C1667 1.395 . S
C1669 C1668 1.379 . S
C1669 H1679 0.930 . S
C1670 O1648 1.264 . S
C1670 O1649 1.254 1_655 S
C1671 Eu1607 2.848 1_455 S
C1671 O1646 1.257 . S
C1671 O1651 1.249 . S
C1671 C1664 1.492 . S
H1672 C1655 0.930 . S
H1673 C1656 0.930 . S
H1674 C1657 0.930 . S
H1675 C1658 0.930 . S
H1676 C1665 0.930 . S
H1677 C1667 0.930 . S
H1678 C1668 0.930 . S
H1679 C1669 0.930 . S
Eu1680 N1711 2.657 . S
Eu1680 N1718 2.609 . S
Eu1680 O1724 2.558 . S
Eu1680 O1725 2.612 . S
Eu1680 O1727 2.339 . S
Eu1680 O1728 2.563 . S
Eu1680 O1729 2.419 . S
Eu1680 O1731 2.380 . S
Eu1680 O1732 2.432 . S
Eu1680 C1744 2.848 . S
C1681 C1684 1.429 . S
C1681 C1685 1.411 . S
C1681 N1688 1.377 . S
C1682 C1684 1.420 . S
C1682 C1686 1.423 . S
C1682 C1694 1.392 . S
C1683 C1685 1.420 . S
C1683 C1686 1.351 . S
C1683 H1706 0.931 . S
C1684 C1681 1.429 . S
C1684 C1682 1.420 . S
C1684 N1692 1.362 . S
C1685 C1681 1.411 . S
C1685 C1683 1.420 . S
C1685 C1690 1.395 . S
C1686 C1682 1.423 . S
C1686 C1683 1.351 . S
C1686 H1698 0.930 . S
C1687 C1689 1.400 . S
C1687 C1690 1.386 . S
C1687 H1699 0.930 . S
N1688 C1681 1.377 . S
N1688 C1689 1.321 . S
N1688 Eu1691 2.609 . S
C1689 C1687 1.400 . S
C1689 N1688 1.321 . S
C1689 H1696 0.930 . S
C1690 C1685 1.395 . S
C1690 C1687 1.386 . S
C1690 H1709 0.930 . S
Eu1691 N1688 2.609 . S
Eu1691 N1692 2.657 . S
Eu1691 O1725 2.380 . S
Eu1691 O1726 2.432 . S
Eu1691 O1730 2.558 . S
Eu1691 O1731 2.612 . S
Eu1691 O1733 2.339 . S
Eu1691 O1734 2.563 . S
Eu1691 O1735 2.419 . S
Eu1691 C1755 2.848 . S
N1692 C1684 1.362 . S
N1692 Eu1691 2.657 . S
N1692 C1693 1.334 . S
C1693 N1692 1.334 . S
C1693 C1695 1.413 . S
C1693 H1700 0.929 . S
C1694 C1682 1.392 . S
C1694 C1695 1.367 . S
C1694 H1702 0.930 . S
C1695 C1693 1.413 . S
C1695 C1694 1.367 . S
C1695 H1697 0.930 . S
H1696 C1689 0.930 . S
H1697 C1695 0.930 . S
H1698 C1686 0.930 . S
H1699 C1687 0.930 . S
H1700 C1693 0.929 . S
H1701 C1715 0.930 . S
H1702 C1694 0.930 . S
H1703 C1721 0.930 . S
H1704 C1712 0.929 . S
H1705 C1719 0.930 . S
H1706 C1683 0.931 . S
H1707 C1713 0.930 . S
H1708 C1746 0.930 . S
H1709 C1690 0.930 . S
H1710 C1745 0.931 . S
N1711 Eu1680 2.657 . S
N1711 C1712 1.334 . S
N1711 C1716 1.362 . S
C1712 H1704 0.929 . S
C1712 N1711 1.334 . S
C1712 C1715 1.413 . S
C1713 H1707 0.930 . S
C1713 C1714 1.392 . S
C1713 C1715 1.367 . S
C1714 C1713 1.392 . S
C1714 C1716 1.420 . S
C1714 C1746 1.423 . S
C1715 H1701 0.930 . S
C1715 C1712 1.413 . S
C1715 C1713 1.367 . S
C1716 N1711 1.362 . S
C1716 C1714 1.420 . S
C1716 C1720 1.429 . S
H1717 C1722 0.930 . S
N1718 Eu1680 2.609 . S
N1718 C1720 1.377 . S
N1718 C1721 1.321 . S
C1719 H1705 0.930 . S
C1719 C1721 1.400 . S
C1719 C1722 1.386 . S
C1720 C1716 1.429 . S
C1720 N1718 1.377 . S
C1720 C1723 1.411 . S
C1721 H1703 0.930 . S
C1721 N1718 1.321 . S
C1721 C1719 1.400 . S
C1722 H1717 0.930 . S
C1722 C1719 1.386 . S
C1722 C1723 1.395 . S
C1723 C1720 1.411 . S
C1723 C1722 1.395 . S
C1723 C1745 1.420 . S
O1724 Eu1680 2.558 . S
O1724 C1744 1.257 . S
O1725 Eu1680 2.612 . S
O1725 Eu1691 2.380 . S
O1725 C1736 1.276 . S
O1726 Eu1691 2.432 . S
O1726 C1743 1.264 . S
O1727 Eu1680 2.339 . S
O1727 C1743 1.254 . S
O1728 Eu1680 2.563 . S
O1728 C1736 1.235 . S
O1729 Eu1680 2.419 . S
O1729 C1744 1.249 . S
O1730 Eu1691 2.558 . S
O1730 C1755 1.257 . S
O1731 Eu1680 2.380 . S
O1731 Eu1691 2.612 . S
O1731 C1747 1.276 . S
O1732 Eu1680 2.432 . S
O1732 C1754 1.264 . S
O1733 Eu1691 2.339 . S
O1733 C1754 1.254 . S
O1734 Eu1691 2.563 . S
O1734 C1747 1.235 . S
O1735 Eu1691 2.419 . S
O1735 C1755 1.249 . S
C1736 O1725 1.276 . S
C1736 O1728 1.235 . S
C1737 C1739 1.393 . S
C1737 C1741 1.395 . S
C1737 C1744 1.492 . S
C1738 C1739 1.392 . S
C1738 C1740 1.386 . S
C1739 C1737 1.393 . S
C1739 C1738 1.392 . S
C1739 H1756 0.930 . S
C1740 C1738 1.386 . S
C1740 C1742 1.395 . S
C1740 H1757 0.930 . S
C1741 C1737 1.395 . S
C1741 C1742 1.379 . S
C1741 H1758 0.930 . S
C1742 C1740 1.395 . S
C1742 C1741 1.379 . S
C1742 H1759 0.930 . S
C1743 O1726 1.264 . S
C1743 O1727 1.254 . S
C1744 Eu1680 2.848 . S
C1744 O1724 1.257 . S
C1744 O1729 1.249 . S
C1744 C1737 1.492 . S
C1745 H1710 0.931 . S
C1745 C1723 1.420 . S
C1745 C1746 1.351 . S
C1746 H1708 0.930 . S
C1746 C1714 1.423 . S
C1746 C1745 1.351 . S
C1747 O1731 1.276 . S
C1747 O1734 1.235 . S
C1748 C1749 1.393 . S
C1748 C1752 1.395 . S
C1748 C1755 1.492 . S
C1749 C1748 1.393 . S
C1749 C1750 1.392 . S
C1749 H1760 0.930 . S
C1750 C1749 1.392 . S
C1750 C1751 1.386 . S
C1751 C1750 1.386 . S
C1751 C1753 1.395 . S
C1751 H1761 0.930 . S
C1752 C1748 1.395 . S
C1752 C1753 1.379 . S
C1752 H1762 0.930 . S
C1753 C1751 1.395 . S
C1753 C1752 1.379 . S
C1753 H1763 0.930 . S
C1754 O1732 1.264 . S
C1754 O1733 1.254 . S
C1755 Eu1691 2.848 . S
C1755 O1730 1.257 . S
C1755 O1735 1.249 . S
C1755 C1748 1.492 . S
H1756 C1739 0.930 . S
H1757 C1740 0.930 . S
H1758 C1741 0.930 . S
H1759 C1742 0.930 . S
H1760 C1749 0.930 . S
H1761 C1751 0.930 . S
H1762 C1752 0.930 . S
H1763 C1753 0.930 . S
Eu1764 N1795 2.657 . S
Eu1764 N1802 2.609 . S
Eu1764 O1808 2.558 . S
Eu1764 O1809 2.612 . S
Eu1764 O1811 2.339 . S
Eu1764 O1812 2.563 . S
Eu1764 O1813 2.419 . S
Eu1764 O1815 2.380 . S
Eu1764 O1816 2.432 . S
Eu1764 C1828 2.848 . S
C1765 C1768 1.429 . S
C1765 C1769 1.411 . S
C1765 N1772 1.377 . S
C1766 C1768 1.420 . S
C1766 C1770 1.423 . S
C1766 C1778 1.392 . S
C1767 C1769 1.420 . S
C1767 C1770 1.351 . S
C1767 H1790 0.931 . S
C1768 C1765 1.429 . S
C1768 C1766 1.420 . S
C1768 N1776 1.362 . S
C1769 C1765 1.411 . S
C1769 C1767 1.420 . S
C1769 C1774 1.395 . S
C1770 C1766 1.423 . S
C1770 C1767 1.351 . S
C1770 H1782 0.930 . S
C1771 C1773 1.400 . S
C1771 C1774 1.386 . S
C1771 H1783 0.930 . S
N1772 C1765 1.377 . S
N1772 C1773 1.321 . S
N1772 Eu1775 2.609 . S
C1773 C1771 1.400 . S
C1773 N1772 1.321 . S
C1773 H1780 0.930 . S
C1774 C1769 1.395 . S
C1774 C1771 1.386 . S
C1774 H1793 0.930 . S
Eu1775 N1772 2.609 . S
Eu1775 N1776 2.657 . S
Eu1775 O1809 2.380 . S
Eu1775 O1810 2.432 . S
Eu1775 O1814 2.558 . S
Eu1775 O1815 2.612 . S
Eu1775 O1817 2.339 . S
Eu1775 O1818 2.563 . S
Eu1775 O1819 2.419 . S
Eu1775 C1839 2.848 . S
N1776 C1768 1.362 . S
N1776 Eu1775 2.657 . S
N1776 C1777 1.334 . S
C1777 N1776 1.334 . S
C1777 C1779 1.413 . S
C1777 H1784 0.929 . S
C1778 C1766 1.392 . S
C1778 C1779 1.367 . S
C1778 H1786 0.930 . S
C1779 C1777 1.413 . S
C1779 C1778 1.367 . S
C1779 H1781 0.930 . S
H1780 C1773 0.930 . S
H1781 C1779 0.930 . S
H1782 C1770 0.930 . S
H1783 C1771 0.930 . S
H1784 C1777 0.929 . S
H1785 C1799 0.930 . S
H1786 C1778 0.930 . S
H1787 C1805 0.930 . S
H1788 C1796 0.929 . S
H1789 C1803 0.930 . S
H1790 C1767 0.931 . S
H1791 C1797 0.930 . S
H1792 C1830 0.930 . S
H1793 C1774 0.930 . S
H1794 C1829 0.931 . S
N1795 Eu1764 2.657 . S
N1795 C1796 1.334 . S
N1795 C1800 1.362 . S
C1796 H1788 0.929 . S
C1796 N1795 1.334 . S
C1796 C1799 1.413 . S
C1797 H1791 0.930 . S
C1797 C1798 1.392 . S
C1797 C1799 1.367 . S
C1798 C1797 1.392 . S
C1798 C1800 1.420 . S
C1798 C1830 1.423 . S
C1799 H1785 0.930 . S
C1799 C1796 1.413 . S
C1799 C1797 1.367 . S
C1800 N1795 1.362 . S
C1800 C1798 1.420 . S
C1800 C1804 1.429 . S
H1801 C1806 0.930 . S
N1802 Eu1764 2.609 . S
N1802 C1804 1.377 . S
N1802 C1805 1.321 . S
C1803 H1789 0.930 . S
C1803 C1805 1.400 . S
C1803 C1806 1.386 . S
C1804 C1800 1.429 . S
C1804 N1802 1.377 . S
C1804 C1807 1.411 . S
C1805 H1787 0.930 . S
C1805 N1802 1.321 . S
C1805 C1803 1.400 . S
C1806 H1801 0.930 . S
C1806 C1803 1.386 . S
C1806 C1807 1.395 . S
C1807 C1804 1.411 . S
C1807 C1806 1.395 . S
C1807 C1829 1.420 . S
O1808 Eu1764 2.558 . S
O1808 C1828 1.257 . S
O1809 Eu1764 2.612 . S
O1809 Eu1775 2.380 . S
O1809 C1820 1.276 . S
O1810 Eu1775 2.432 . S
O1810 C1827 1.264 . S
O1811 Eu1764 2.339 . S
O1811 C1827 1.254 . S
O1812 Eu1764 2.563 . S
O1812 C1820 1.235 . S
O1813 Eu1764 2.419 . S
O1813 C1828 1.249 . S
O1814 Eu1775 2.558 . S
O1814 C1839 1.257 . S
O1815 Eu1764 2.380 . S
O1815 Eu1775 2.612 . S
O1815 C1831 1.276 . S
O1816 Eu1764 2.432 . S
O1816 C1838 1.264 . S
O1817 Eu1775 2.339 . S
O1817 C1838 1.254 . S
O1818 Eu1775 2.563 . S
O1818 C1831 1.235 . S
O1819 Eu1775 2.419 . S
O1819 C1839 1.249 . S
C1820 O1809 1.276 . S
C1820 O1812 1.235 . S
C1821 C1823 1.393 . S
C1821 C1825 1.395 . S
C1821 C1828 1.492 . S
C1822 C1823 1.392 . S
C1822 C1824 1.386 . S
C1823 C1821 1.393 . S
C1823 C1822 1.392 . S
C1823 H1840 0.930 . S
C1824 C1822 1.386 . S
C1824 C1826 1.395 . S
C1824 H1841 0.930 . S
C1825 C1821 1.395 . S
C1825 C1826 1.379 . S
C1825 H1842 0.930 . S
C1826 C1824 1.395 . S
C1826 C1825 1.379 . S
C1826 H1843 0.930 . S
C1827 O1810 1.264 . S
C1827 O1811 1.254 . S
C1828 Eu1764 2.848 . S
C1828 O1808 1.257 . S
C1828 O1813 1.249 . S
C1828 C1821 1.492 . S
C1829 H1794 0.931 . S
C1829 C1807 1.420 . S
C1829 C1830 1.351 . S
C1830 H1792 0.930 . S
C1830 C1798 1.423 . S
C1830 C1829 1.351 . S
C1831 O1815 1.276 . S
C1831 O1818 1.235 . S
C1832 C1833 1.393 . S
C1832 C1836 1.395 . S
C1832 C1839 1.492 . S
C1833 C1832 1.393 . S
C1833 C1834 1.392 . S
C1833 H1844 0.930 . S
C1834 C1833 1.392 . S
C1834 C1835 1.386 . S
C1835 C1834 1.386 . S
C1835 C1837 1.395 . S
C1835 H1845 0.930 . S
C1836 C1832 1.395 . S
C1836 C1837 1.379 . S
C1836 H1846 0.930 . S
C1837 C1835 1.395 . S
C1837 C1836 1.379 . S
C1837 H1847 0.930 . S
C1838 O1816 1.264 . S
C1838 O1817 1.254 . S
C1839 Eu1775 2.848 . S
C1839 O1814 1.257 . S
C1839 O1819 1.249 . S
C1839 C1832 1.492 . S
H1840 C1823 0.930 . S
H1841 C1824 0.930 . S
H1842 C1825 0.930 . S
H1843 C1826 0.930 . S
H1844 C1833 0.930 . S
H1845 C1835 0.930 . S
H1846 C1836 0.930 . S
H1847 C1837 0.930 . S
Eu1848 N1879 2.657 . S
Eu1848 N1886 2.609 . S
Eu1848 O1892 2.558 . S
Eu1848 O1893 2.612 . S
Eu1848 O1895 2.339 . S
Eu1848 O1896 2.563 . S
Eu1848 O1897 2.419 . S
Eu1848 O1899 2.380 . S
Eu1848 O1900 2.432 . S
Eu1848 C1912 2.848 . S
C1849 C1852 1.429 . S
C1849 C1853 1.411 . S
C1849 N1856 1.377 . S
C1850 C1852 1.420 . S
C1850 C1854 1.423 . S
C1850 C1862 1.392 . S
C1851 C1853 1.420 . S
C1851 C1854 1.351 . S
C1851 H1874 0.931 . S
C1852 C1849 1.429 . S
C1852 C1850 1.420 . S
C1852 N1860 1.362 . S
C1853 C1849 1.411 . S
C1853 C1851 1.420 . S
C1853 C1858 1.395 . S
C1854 C1850 1.423 . S
C1854 C1851 1.351 . S
C1854 H1866 0.930 . S
C1855 C1857 1.382 1_556 S
C1855 C1858 1.434 . S
C1855 H1867 0.902 1_556 S
N1856 C1849 1.377 . S
N1856 C1857 1.321 1_556 S
N1856 Eu1859 2.609 1_556 S
C1857 C1855 1.382 1_554 S
C1857 N1856 1.321 1_554 S
C1857 H1864 0.930 . S
C1858 C1853 1.395 . S
C1858 C1855 1.434 . S
C1858 H1877 0.930 . S
Eu1859 N1856 2.609 1_554 S
Eu1859 N1860 2.657 1_554 S
Eu1859 O1893 2.380 . S
Eu1859 O1894 2.432 . S
Eu1859 O1898 2.558 1_554 S
Eu1859 O1899 2.612 . S
Eu1859 O1901 2.339 1_554 S
Eu1859 O1902 2.563 . S
Eu1859 O1903 2.419 1_554 S
Eu1859 C1923 2.848 1_554 S
N1860 C1852 1.362 . S
N1860 Eu1859 2.657 1_556 S
N1860 C1861 1.334 . S
C1861 N1860 1.334 . S
C1861 C1863 1.413 . S
C1861 H1868 0.929 . S
C1862 C1850 1.392 . S
C1862 C1863 1.367 . S
C1862 H1870 0.930 . S
C1863 C1861 1.413 . S
C1863 C1862 1.367 . S
C1863 H1865 0.930 . S
H1864 C1857 0.930 . S
H1865 C1863 0.930 . S
H1866 C1854 0.930 . S
H1867 C1855 0.902 1_554 S
H1868 C1861 0.929 . S
H1869 C1883 0.930 . S
H1870 C1862 0.930 . S
H1871 C1889 0.930 . S
H1872 C1880 0.929 . S
H1873 C1887 0.930 . S
H1874 C1851 0.931 . S
H1875 C1881 0.930 . S
H1876 C1914 0.930 . S
H1877 C1858 0.930 . S
H1878 C1913 0.931 . S
N1879 Eu1848 2.657 . S
N1879 C1880 1.334 . S
N1879 C1884 1.362 . S
C1880 H1872 0.929 . S
C1880 N1879 1.334 . S
C1880 C1883 1.413 . S
C1881 H1875 0.930 . S
C1881 C1882 1.392 . S
C1881 C1883 1.367 . S
C1882 C1881 1.392 . S
C1882 C1884 1.420 . S
C1882 C1914 1.423 . S
C1883 H1869 0.930 . S
C1883 C1880 1.413 . S
C1883 C1881 1.367 . S
C1884 N1879 1.362 . S
C1884 C1882 1.420 . S
C1884 C1888 1.429 . S
H1885 C1890 0.930 . S
N1886 Eu1848 2.609 . S
N1886 C1888 1.377 . S
N1886 C1889 1.321 . S
C1887 H1873 0.930 . S
C1887 C1889 1.400 . S
C1887 C1890 1.386 . S
C1888 C1884 1.429 . S
C1888 N1886 1.377 . S
C1888 C1891 1.411 . S
C1889 H1871 0.930 . S
C1889 N1886 1.321 . S
C1889 C1887 1.400 . S
C1890 H1885 0.930 . S
C1890 C1887 1.386 . S
C1890 C1891 1.395 . S
C1891 C1888 1.411 . S
C1891 C1890 1.395 . S
C1891 C1913 1.420 . S
O1892 Eu1848 2.558 . S
O1892 C1912 1.257 . S
O1893 Eu1848 2.612 . S
O1893 Eu1859 2.380 . S
O1893 C1904 1.276 . S
O1894 Eu1859 2.432 . S
O1894 C1911 1.264 . S
O1895 Eu1848 2.339 . S
O1895 C1911 1.254 . S
O1896 Eu1848 2.563 . S
O1896 C1904 1.235 . S
O1897 Eu1848 2.419 . S
O1897 C1912 1.249 . S
O1898 Eu1859 2.558 1_556 S
O1898 C1923 1.257 . S
O1899 Eu1848 2.380 . S
O1899 Eu1859 2.612 . S
O1899 C1915 1.276 . S
O1900 Eu1848 2.432 . S
O1900 C1922 1.264 . S
O1901 Eu1859 2.339 1_556 S
O1901 C1922 1.254 1_556 S
O1902 Eu1859 2.563 . S
O1902 C1915 1.235 . S
O1903 Eu1859 2.419 1_556 S
O1903 C1923 1.249 . S
C1904 O1893 1.276 . S
C1904 O1896 1.235 . S
C1905 C1907 1.393 . S
C1905 C1909 1.395 . S
C1905 C1912 1.492 . S
C1906 C1907 1.392 . S
C1906 C1908 1.386 . S
C1907 C1905 1.393 . S
C1907 C1906 1.392 . S
C1907 H1924 0.930 . S
C1908 C1906 1.386 . S
C1908 C1910 1.395 . S
C1908 H1925 0.930 . S
C1909 C1905 1.395 . S
C1909 C1910 1.379 . S
C1909 H1926 0.930 . S
C1910 C1908 1.395 . S
C1910 C1909 1.379 . S
C1910 H1927 0.930 . S
C1911 O1894 1.264 . S
C1911 O1895 1.254 . S
C1912 Eu1848 2.848 . S
C1912 O1892 1.257 . S
C1912 O1897 1.249 . S
C1912 C1905 1.492 . S
C1913 H1878 0.931 . S
C1913 C1891 1.420 . S
C1913 C1914 1.351 . S
C1914 H1876 0.930 . S
C1914 C1882 1.423 . S
C1914 C1913 1.351 . S
C1915 O1899 1.276 . S
C1915 O1902 1.235 . S
C1916 C1917 1.393 . S
C1916 C1920 1.395 . S
C1916 C1923 1.492 . S
C1917 C1916 1.393 . S
C1917 C1918 1.392 . S
C1917 H1928 0.930 . S
C1918 C1917 1.392 . S
C1918 C1919 1.386 . S
C1919 C1918 1.386 . S
C1919 C1921 1.395 . S
C1919 H1929 0.930 . S
C1920 C1916 1.395 . S
C1920 C1921 1.379 . S
C1920 H1930 0.930 . S
C1921 C1919 1.395 . S
C1921 C1920 1.379 . S
C1921 H1931 0.930 . S
C1922 O1900 1.264 . S
C1922 O1901 1.254 1_554 S
C1923 Eu1859 2.848 1_556 S
C1923 O1898 1.257 . S
C1923 O1903 1.249 . S
C1923 C1916 1.492 . S
H1924 C1907 0.930 . S
H1925 C1908 0.930 . S
H1926 C1909 0.930 . S
H1927 C1910 0.930 . S
H1928 C1917 0.930 . S
H1929 C1919 0.930 . S
H1930 C1920 0.930 . S
H1931 C1921 0.930 . S
Eu1932 N1963 2.657 . S
Eu1932 N1970 2.609 . S
Eu1932 O1976 2.558 . S
Eu1932 O1977 2.612 . S
Eu1932 O1979 2.339 . S
Eu1932 O1980 2.563 . S
Eu1932 O1981 2.419 . S
Eu1932 O1983 2.380 . S
Eu1932 O1984 2.432 . S
Eu1932 C1996 2.848 . S
C1933 C1936 1.429 . S
C1933 C1937 1.411 . S
C1933 N1940 1.377 . S
C1934 C1936 1.420 . S
C1934 C1938 1.423 . S
C1934 C1946 1.392 . S
C1935 C1937 1.420 . S
C1935 C1938 1.351 . S
C1935 H1958 0.931 . S
C1936 C1933 1.429 . S
C1936 C1934 1.420 . S
C1936 N1944 1.362 . S
C1937 C1933 1.411 . S
C1937 C1935 1.420 . S
C1937 C1942 1.395 . S
C1938 C1934 1.423 . S
C1938 C1935 1.351 . S
C1938 H1950 0.930 . S
C1939 C1941 1.385 1_545 S
C1939 C1942 1.425 . S
C1939 H1951 0.908 1_545 S
N1940 C1933 1.377 . S
N1940 C1941 1.321 1_545 S
N1940 Eu1943 2.609 1_545 S
C1941 C1939 1.385 1_565 S
C1941 N1940 1.321 1_565 S
C1941 H1948 0.930 . S
C1942 C1937 1.395 . S
C1942 C1939 1.425 . S
C1942 H1961 0.930 . S
Eu1943 N1940 2.609 1_565 S
Eu1943 N1944 2.657 1_565 S
Eu1943 O1977 2.380 . S
Eu1943 O1978 2.432 . S
Eu1943 O1982 2.558 1_565 S
Eu1943 O1983 2.612 . S
Eu1943 O1985 2.339 1_565 S
Eu1943 O1986 2.563 . S
Eu1943 O1987 2.419 1_565 S
Eu1943 C2007 2.848 1_565 S
N1944 C1936 1.362 . S
N1944 Eu1943 2.657 1_545 S
N1944 C1945 1.334 . S
C1945 N1944 1.334 . S
C1945 C1947 1.413 . S
C1945 H1952 0.929 . S
C1946 C1934 1.392 . S
C1946 C1947 1.367 . S
C1946 H1954 0.930 . S
C1947 C1945 1.413 . S
C1947 C1946 1.367 . S
C1947 H1949 0.930 . S
H1948 C1941 0.930 . S
H1949 C1947 0.930 . S
H1950 C1938 0.930 . S
H1951 C1939 0.908 1_565 S
H1952 C1945 0.929 . S
H1953 C1967 0.930 . S
H1954 C1946 0.930 . S
H1955 C1973 0.930 . S
H1956 C1964 0.929 . S
H1957 C1971 0.930 . S
H1958 C1935 0.931 . S
H1959 C1965 0.930 . S
H1960 C1998 0.930 . S
H1961 C1942 0.930 . S
H1962 C1997 0.931 . S
N1963 Eu1932 2.657 . S
N1963 C1964 1.334 . S
N1963 C1968 1.362 . S
C1964 H1956 0.929 . S
C1964 N1963 1.334 . S
C1964 C1967 1.413 . S
C1965 H1959 0.930 . S
C1965 C1966 1.392 . S
C1965 C1967 1.367 . S
C1966 C1965 1.392 . S
C1966 C1968 1.420 . S
C1966 C1998 1.423 . S
C1967 H1953 0.930 . S
C1967 C1964 1.413 . S
C1967 C1965 1.367 . S
C1968 N1963 1.362 . S
C1968 C1966 1.420 . S
C1968 C1972 1.429 . S
H1969 C1974 0.930 . S
N1970 Eu1932 2.609 . S
N1970 C1972 1.377 . S
N1970 C1973 1.321 . S
C1971 H1957 0.930 . S
C1971 C1973 1.400 . S
C1971 C1974 1.386 . S
C1972 C1968 1.429 . S
C1972 N1970 1.377 . S
C1972 C1975 1.411 . S
C1973 H1955 0.930 . S
C1973 N1970 1.321 . S
C1973 C1971 1.400 . S
C1974 H1969 0.930 . S
C1974 C1971 1.386 . S
C1974 C1975 1.395 . S
C1975 C1972 1.411 . S
C1975 C1974 1.395 . S
C1975 C1997 1.420 . S
O1976 Eu1932 2.558 . S
O1976 C1996 1.257 . S
O1977 Eu1932 2.612 . S
O1977 Eu1943 2.380 . S
O1977 C1988 1.276 . S
O1978 Eu1943 2.432 . S
O1978 C1995 1.264 . S
O1979 Eu1932 2.339 . S
O1979 C1995 1.254 . S
O1980 Eu1932 2.563 . S
O1980 C1988 1.235 . S
O1981 Eu1932 2.419 . S
O1981 C1996 1.249 . S
O1982 Eu1943 2.558 1_545 S
O1982 C2007 1.257 . S
O1983 Eu1932 2.380 . S
O1983 Eu1943 2.612 . S
O1983 C1999 1.276 . S
O1984 Eu1932 2.432 . S
O1984 C2006 1.264 . S
O1985 Eu1943 2.339 1_545 S
O1985 C2006 1.254 1_545 S
O1986 Eu1943 2.563 . S
O1986 C1999 1.235 . S
O1987 Eu1943 2.419 1_545 S
O1987 C2007 1.249 . S
C1988 O1977 1.276 . S
C1988 O1980 1.235 . S
C1989 C1991 1.393 . S
C1989 C1993 1.395 . S
C1989 C1996 1.492 . S
C1990 C1991 1.392 . S
C1990 C1992 1.386 . S
C1991 C1989 1.393 . S
C1991 C1990 1.392 . S
C1991 H2008 0.930 . S
C1992 C1990 1.386 . S
C1992 C1994 1.395 . S
C1992 H2009 0.930 . S
C1993 C1989 1.395 . S
C1993 C1994 1.379 . S
C1993 H2010 0.930 . S
C1994 C1992 1.395 . S
C1994 C1993 1.379 . S
C1994 H2011 0.930 . S
C1995 O1978 1.264 . S
C1995 O1979 1.254 . S
C1996 Eu1932 2.848 . S
C1996 O1976 1.257 . S
C1996 O1981 1.249 . S
C1996 C1989 1.492 . S
C1997 H1962 0.931 . S
C1997 C1975 1.420 . S
C1997 C1998 1.351 . S
C1998 H1960 0.930 . S
C1998 C1966 1.423 . S
C1998 C1997 1.351 . S
C1999 O1983 1.276 . S
C1999 O1986 1.235 . S
C2000 C2001 1.393 . S
C2000 C2004 1.395 . S
C2000 C2007 1.492 . S
C2001 C2000 1.393 . S
C2001 C2002 1.392 . S
C2001 H2012 0.930 . S
C2002 C2001 1.392 . S
C2002 C2003 1.386 . S
C2003 C2002 1.386 . S
C2003 C2005 1.395 . S
C2003 H2013 0.930 . S
C2004 C2000 1.395 . S
C2004 C2005 1.379 . S
C2004 H2014 0.930 . S
C2005 C2003 1.395 . S
C2005 C2004 1.379 . S
C2005 H2015 0.930 . S
C2006 O1984 1.264 . S
C2006 O1985 1.254 1_565 S
C2007 Eu1943 2.848 1_545 S
C2007 O1982 1.257 . S
C2007 O1987 1.249 . S
C2007 C2000 1.492 . S
H2008 C1991 0.930 . S
H2009 C1992 0.930 . S
H2010 C1993 0.930 . S
H2011 C1994 0.930 . S
H2012 C2001 0.930 . S
H2013 C2003 0.930 . S
H2014 C2004 0.930 . S
H2015 C2005 0.930 . S
Eu2016 N2047 2.657 . S
Eu2016 N2054 2.609 1_565 S
Eu2016 O2060 2.558 1_565 S
Eu2016 O2061 2.612 . S
Eu2016 O2063 2.339 . S
Eu2016 O2064 2.563 1_565 S
Eu2016 O2065 2.419 1_565 S
Eu2016 O2067 2.380 . S
Eu2016 O2068 2.432 . S
Eu2016 C2080 2.848 1_565 S
C2017 C2020 1.429 . S
C2017 C2021 1.411 . S
C2017 N2024 1.377 . S
C2018 C2020 1.420 . S
C2018 C2022 1.423 . S
C2018 C2030 1.392 . S
C2019 C2021 1.420 . S
C2019 C2022 1.351 . S
C2019 H2042 0.931 . S
C2020 C2017 1.429 . S
C2020 C2018 1.420 . S
C2020 N2028 1.362 . S
C2021 C2017 1.411 . S
C2021 C2019 1.420 . S
C2021 C2026 1.395 . S
C2022 C2018 1.423 . S
C2022 C2019 1.351 . S
C2022 H2034 0.930 . S
C2023 C2025 1.400 . S
C2023 C2026 1.386 . S
C2023 H2035 0.930 . S
N2024 C2017 1.377 . S
N2024 C2025 1.321 . S
N2024 Eu2027 2.609 . S
C2025 C2023 1.400 . S
C2025 N2024 1.321 . S
C2025 H2032 0.930 . S
C2026 C2021 1.395 . S
C2026 C2023 1.386 . S
C2026 H2045 0.930 . S
Eu2027 N2024 2.609 . S
Eu2027 N2028 2.657 . S
Eu2027 O2061 2.380 . S
Eu2027 O2062 2.432 . S
Eu2027 O2066 2.558 . S
Eu2027 O2067 2.612 . S
Eu2027 O2069 2.339 . S
Eu2027 O2070 2.563 . S
Eu2027 O2071 2.419 . S
Eu2027 C2091 2.848 . S
N2028 C2020 1.362 . S
N2028 Eu2027 2.657 . S
N2028 C2029 1.334 . S
C2029 N2028 1.334 . S
C2029 C2031 1.413 . S
C2029 H2036 0.929 . S
C2030 C2018 1.392 . S
C2030 C2031 1.367 . S
C2030 H2038 0.930 . S
C2031 C2029 1.413 . S
C2031 C2030 1.367 . S
C2031 H2033 0.930 1_565 S
H2032 C2025 0.930 . S
H2033 C2031 0.930 1_545 S
H2034 C2022 0.930 . S
H2035 C2023 0.930 . S
H2036 C2029 0.929 . S
H2037 C2051 0.930 . S
H2038 C2030 0.930 . S
H2039 C2057 0.930 . S
H2040 C2048 0.929 . S
H2041 C2055 0.930 . S
H2042 C2019 0.931 . S
H2043 C2049 0.930 . S
H2044 C2082 0.930 . S
H2045 C2026 0.930 . S
H2046 C2081 0.931 . S
N2047 Eu2016 2.657 . S
N2047 C2048 1.334 . S
N2047 C2052 1.362 . S
C2048 H2040 0.929 . S
C2048 N2047 1.334 . S
C2048 C2051 1.413 . S
C2049 H2043 0.930 . S
C2049 C2050 1.392 . S
C2049 C2051 1.367 . S
C2050 C2049 1.392 . S
C2050 C2052 1.420 . S
C2050 C2082 1.423 . S
C2051 H2037 0.930 . S
C2051 C2048 1.413 . S
C2051 C2049 1.367 . S
C2052 N2047 1.362 . S
C2052 C2050 1.420 . S
C2052 C2056 1.429 . S
H2053 C2058 0.930 . S
N2054 Eu2016 2.609 1_545 S
N2054 C2056 1.377 1_545 S
N2054 C2057 1.321 . S
C2055 H2041 0.930 . S
C2055 C2057 1.400 . S
C2055 C2058 1.386 . S
C2056 C2052 1.429 . S
C2056 N2054 1.377 1_565 S
C2056 C2059 1.396 1_565 S
C2057 H2039 0.930 . S
C2057 N2054 1.321 . S
C2057 C2055 1.400 . S
C2058 H2053 0.930 . S
C2058 C2055 1.386 . S
C2058 C2059 1.434 . S
C2059 C2056 1.396 1_545 S
C2059 C2058 1.434 . S
C2059 C2081 1.396 1_545 S
O2060 Eu2016 2.558 1_545 S
O2060 C2080 1.257 . S
O2061 Eu2016 2.612 . S
O2061 Eu2027 2.380 . S
O2061 C2072 1.276 . S
O2062 Eu2027 2.432 . S
O2062 C2079 1.264 . S
O2063 Eu2016 2.339 . S
O2063 C2079 1.254 . S
O2064 Eu2016 2.563 1_545 S
O2064 C2072 1.235 1_545 S
O2065 Eu2016 2.419 1_545 S
O2065 C2080 1.249 . S
O2066 Eu2027 2.558 . S
O2066 C2091 1.257 . S
O2067 Eu2016 2.380 . S
O2067 Eu2027 2.612 . S
O2067 C2083 1.276 . S
O2068 Eu2016 2.432 . S
O2068 C2090 1.264 . S
O2069 Eu2027 2.339 . S
O2069 C2090 1.254 . S
O2070 Eu2027 2.563 . S
O2070 C2083 1.235 . S
O2071 Eu2027 2.419 . S
O2071 C2091 1.249 . S
C2072 O2061 1.276 . S
C2072 O2064 1.235 1_565 S
C2073 C2075 1.393 . S
C2073 C2077 1.395 . S
C2073 C2080 1.492 . S
C2074 C2075 1.392 . S
C2074 C2076 1.386 . S
C2075 C2073 1.393 . S
C2075 C2074 1.392 . S
C2075 H2092 0.930 . S
C2076 C2074 1.386 . S
C2076 C2078 1.395 . S
C2076 H2093 0.930 . S
C2077 C2073 1.395 . S
C2077 C2078 1.379 . S
C2077 H2094 0.930 . S
C2078 C2076 1.395 . S
C2078 C2077 1.379 . S
C2078 H2095 0.930 . S
C2079 O2062 1.264 . S
C2079 O2063 1.254 . S
C2080 Eu2016 2.848 1_545 S
C2080 O2060 1.257 . S
C2080 O2065 1.249 . S
C2080 C2073 1.492 . S
C2081 H2046 0.931 . S
C2081 C2059 1.396 1_565 S
C2081 C2082 1.351 . S
C2082 H2044 0.930 . S
C2082 C2050 1.423 . S
C2082 C2081 1.351 . S
C2083 O2067 1.276 . S
C2083 O2070 1.235 . S
C2084 C2085 1.393 . S
C2084 C2088 1.395 . S
C2084 C2091 1.492 . S
C2085 C2084 1.393 . S
C2085 C2086 1.392 . S
C2085 H2096 0.930 . S
C2086 C2085 1.392 . S
C2086 C2087 1.386 . S
C2087 C2086 1.386 . S
C2087 C2089 1.395 . S
C2087 H2097 0.930 . S
C2088 C2084 1.395 . S
C2088 C2089 1.379 . S
C2088 H2098 0.930 . S
C2089 C2087 1.395 . S
C2089 C2088 1.379 . S
C2089 H2099 0.930 . S
C2090 O2068 1.264 . S
C2090 O2069 1.254 . S
C2091 Eu2027 2.848 . S
C2091 O2066 1.257 . S
C2091 O2071 1.249 . S
C2091 C2084 1.492 . S
H2092 C2075 0.930 . S
H2093 C2076 0.930 . S
H2094 C2077 0.930 . S
H2095 C2078 0.930 . S
H2096 C2085 0.930 . S
H2097 C2087 0.930 . S
H2098 C2088 0.930 . S
H2099 C2089 0.930 . S
Eu2100 N2131 2.657 . S
Eu2100 N2138 2.609 . S
Eu2100 O2144 2.558 . S
Eu2100 O2145 2.612 . S
Eu2100 O2147 2.339 . S
Eu2100 O2148 2.563 . S
Eu2100 O2149 2.419 . S
Eu2100 O2151 2.380 . S
Eu2100 O2152 2.432 . S
Eu2100 C2164 2.848 . S
C2101 C2104 1.429 . S
C2101 C2105 1.411 . S
C2101 N2108 1.377 . S
C2102 C2104 1.420 . S
C2102 C2106 1.423 . S
C2102 C2114 1.392 . S
C2103 C2105 1.420 . S
C2103 C2106 1.351 . S
C2103 H2126 0.931 . S
C2104 C2101 1.429 . S
C2104 C2102 1.420 . S
C2104 N2112 1.362 . S
C2105 C2101 1.411 . S
C2105 C2103 1.420 . S
C2105 C2110 1.395 . S
C2106 C2102 1.423 . S
C2106 C2103 1.351 . S
C2106 H2118 0.930 . S
C2107 C2109 1.383 1_565 S
C2107 C2110 1.429 . S
C2107 H2119 0.906 1_565 S
N2108 C2101 1.377 . S
N2108 C2109 1.321 1_565 S
N2108 Eu2111 2.609 1_565 S
C2109 C2107 1.383 1_545 S
C2109 N2108 1.321 1_545 S
C2109 H2116 0.930 . S
C2110 C2105 1.395 . S
C2110 C2107 1.429 . S
C2110 H2129 0.930 . S
Eu2111 N2108 2.609 1_545 S
Eu2111 N2112 2.657 1_545 S
Eu2111 O2145 2.380 . S
Eu2111 O2146 2.432 . S
Eu2111 O2150 2.558 1_545 S
Eu2111 O2151 2.612 . S
Eu2111 O2153 2.339 1_545 S
Eu2111 O2154 2.563 . S
Eu2111 O2155 2.419 1_545 S
Eu2111 C2175 2.848 1_545 S
N2112 C2104 1.362 . S
N2112 Eu2111 2.657 1_565 S
N2112 C2113 1.334 . S
C2113 N2112 1.334 . S
C2113 C2115 1.413 . S
C2113 H2120 0.929 . S
C2114 C2102 1.392 . S
C2114 C2115 1.367 . S
C2114 H2122 0.930 . S
C2115 C2113 1.413 . S
C2115 C2114 1.367 . S
C2115 H2117 0.930 . S
H2116 C2109 0.930 . S
H2117 C2115 0.930 . S
H2118 C2106 0.930 . S
H2119 C2107 0.906 1_545 S
H2120 C2113 0.929 . S
H2121 C2135 0.930 . S
H2122 C2114 0.930 . S
H2123 C2141 0.930 . S
H2124 C2132 0.929 . S
H2125 C2139 0.930 . S
H2126 C2103 0.931 . S
H2127 C2133 0.930 . S
H2128 C2166 0.930 . S
H2129 C2110 0.930 . S
H2130 C2165 0.931 . S
N2131 Eu2100 2.657 . S
N2131 C2132 1.334 . S
N2131 C2136 1.362 . S
C2132 H2124 0.929 . S
C2132 N2131 1.334 . S
C2132 C2135 1.413 . S
C2133 H2127 0.930 . S
C2133 C2134 1.392 . S
C2133 C2135 1.367 . S
C2134 C2133 1.392 . S
C2134 C2136 1.420 . S
C2134 C2166 1.423 . S
C2135 H2121 0.930 . S
C2135 C2132 1.413 . S
C2135 C2133 1.367 . S
C2136 N2131 1.362 . S
C2136 C2134 1.420 . S
C2136 C2140 1.429 . S
H2137 C2142 0.930 . S
N2138 Eu2100 2.609 . S
N2138 C2140 1.377 . S
N2138 C2141 1.321 . S
C2139 H2125 0.930 . S
C2139 C2141 1.400 . S
C2139 C2142 1.386 . S
C2140 C2136 1.429 . S
C2140 N2138 1.377 . S
C2140 C2143 1.411 . S
C2141 H2123 0.930 . S
C2141 N2138 1.321 . S
C2141 C2139 1.400 . S
C2142 H2137 0.930 . S
C2142 C2139 1.386 . S
C2142 C2143 1.395 . S
C2143 C2140 1.411 . S
C2143 C2142 1.395 . S
C2143 C2165 1.420 . S
O2144 Eu2100 2.558 . S
O2144 C2164 1.257 . S
O2145 Eu2100 2.612 . S
O2145 Eu2111 2.380 . S
O2145 C2156 1.276 . S
O2146 Eu2111 2.432 . S
O2146 C2163 1.264 . S
O2147 Eu2100 2.339 . S
O2147 C2163 1.254 . S
O2148 Eu2100 2.563 . S
O2148 C2156 1.235 . S
O2149 Eu2100 2.419 . S
O2149 C2164 1.249 . S
O2150 Eu2111 2.558 1_565 S
O2150 C2175 1.257 . S
O2151 Eu2100 2.380 . S
O2151 Eu2111 2.612 . S
O2151 C2167 1.276 . S
O2152 Eu2100 2.432 . S
O2152 C2174 1.264 . S
O2153 Eu2111 2.339 1_565 S
O2153 C2174 1.254 1_565 S
O2154 Eu2111 2.563 . S
O2154 C2167 1.235 . S
O2155 Eu2111 2.419 1_565 S
O2155 C2175 1.249 . S
C2156 O2145 1.276 . S
C2156 O2148 1.235 . S
C2157 C2159 1.393 . S
C2157 C2161 1.395 . S
C2157 C2164 1.492 . S
C2158 C2159 1.392 . S
C2158 C2160 1.386 . S
C2159 C2157 1.393 . S
C2159 C2158 1.392 . S
C2159 H2176 0.930 . S
C2160 C2158 1.386 . S
C2160 C2162 1.395 . S
C2160 H2177 0.930 . S
C2161 C2157 1.395 . S
C2161 C2162 1.379 . S
C2161 H2178 0.930 . S
C2162 C2160 1.395 . S
C2162 C2161 1.379 . S
C2162 H2179 0.930 . S
C2163 O2146 1.264 . S
C2163 O2147 1.254 . S
C2164 Eu2100 2.848 . S
C2164 O2144 1.257 . S
C2164 O2149 1.249 . S
C2164 C2157 1.492 . S
C2165 H2130 0.931 . S
C2165 C2143 1.420 . S
C2165 C2166 1.351 . S
C2166 H2128 0.930 . S
C2166 C2134 1.423 . S
C2166 C2165 1.351 . S
C2167 O2151 1.276 . S
C2167 O2154 1.235 . S
C2168 C2169 1.393 . S
C2168 C2172 1.395 . S
C2168 C2175 1.492 . S
C2169 C2168 1.393 . S
C2169 C2170 1.392 . S
C2169 H2180 0.930 . S
C2170 C2169 1.392 . S
C2170 C2171 1.386 . S
C2171 C2170 1.386 . S
C2171 C2173 1.395 . S
C2171 H2181 0.930 . S
C2172 C2168 1.395 . S
C2172 C2173 1.379 . S
C2172 H2182 0.930 . S
C2173 C2171 1.395 . S
C2173 C2172 1.379 . S
C2173 H2183 0.930 . S
C2174 O2152 1.264 . S
C2174 O2153 1.254 1_545 S
C2175 Eu2111 2.848 1_565 S
C2175 O2150 1.257 . S
C2175 O2155 1.249 . S
C2175 C2168 1.492 . S
H2176 C2159 0.930 . S
H2177 C2160 0.930 . S
H2178 C2161 0.930 . S
H2179 C2162 0.930 . S
H2180 C2169 0.930 . S
H2181 C2171 0.930 . S
H2182 C2172 0.930 . S
H2183 C2173 0.930 . S
Eu2184 N2215 2.657 . S
Eu2184 N2222 2.609 1_545 S
Eu2184 O2228 2.558 1_545 S
Eu2184 O2229 2.612 . S
Eu2184 O2231 2.339 . S
Eu2184 O2232 2.563 1_545 S
Eu2184 O2233 2.419 1_545 S
Eu2184 O2235 2.380 . S
Eu2184 O2236 2.432 . S
Eu2184 C2248 2.848 1_545 S
C2185 C2188 1.429 . S
C2185 C2189 1.411 . S
C2185 N2192 1.377 . S
C2186 C2188 1.420 . S
C2186 C2190 1.423 . S
C2186 C2198 1.392 . S
C2187 C2189 1.420 . S
C2187 C2190 1.351 . S
C2187 H2210 0.931 . S
C2188 C2185 1.429 . S
C2188 C2186 1.420 . S
C2188 N2196 1.362 . S
C2189 C2185 1.411 . S
C2189 C2187 1.420 . S
C2189 C2194 1.395 . S
C2190 C2186 1.423 . S
C2190 C2187 1.351 . S
C2190 H2202 0.930 . S
C2191 C2193 1.400 . S
C2191 C2194 1.386 . S
C2191 H2203 0.930 . S
N2192 C2185 1.377 . S
N2192 C2193 1.321 . S
N2192 Eu2195 2.609 . S
C2193 C2191 1.400 . S
C2193 N2192 1.321 . S
C2193 H2200 0.930 . S
C2194 C2189 1.395 . S
C2194 C2191 1.386 . S
C2194 H2213 0.930 . S
Eu2195 N2192 2.609 . S
Eu2195 N2196 2.657 . S
Eu2195 O2229 2.380 . S
Eu2195 O2230 2.432 . S
Eu2195 O2234 2.558 . S
Eu2195 O2235 2.612 . S
Eu2195 O2237 2.339 . S
Eu2195 O2238 2.563 . S
Eu2195 O2239 2.419 . S
Eu2195 C2259 2.848 . S
N2196 C2188 1.362 . S
N2196 Eu2195 2.657 . S
N2196 C2197 1.334 . S
C2197 N2196 1.334 . S
C2197 C2199 1.413 . S
C2197 H2204 0.929 . S
C2198 C2186 1.392 . S
C2198 C2199 1.367 . S
C2198 H2206 0.930 . S
C2199 C2197 1.413 . S
C2199 C2198 1.367 . S
C2199 H2201 0.930 1_545 S
H2200 C2193 0.930 . S
H2201 C2199 0.930 1_565 S
H2202 C2190 0.930 . S
H2203 C2191 0.930 . S
H2204 C2197 0.929 . S
H2205 C2219 0.930 . S
H2206 C2198 0.930 . S
H2207 C2225 0.930 . S
H2208 C2216 0.929 . S
H2209 C2223 0.930 . S
H2210 C2187 0.931 . S
H2211 C2217 0.930 . S
H2212 C2250 0.930 . S
H2213 C2194 0.930 . S
H2214 C2249 0.931 . S
N2215 Eu2184 2.657 . S
N2215 C2216 1.334 . S
N2215 C2220 1.362 . S
C2216 H2208 0.929 . S
C2216 N2215 1.334 . S
C2216 C2219 1.413 . S
C2217 H2211 0.930 . S
C2217 C2218 1.392 . S
C2217 C2219 1.367 . S
C2218 C2217 1.392 . S
C2218 C2220 1.420 . S
C2218 C2250 1.423 . S
C2219 H2205 0.930 . S
C2219 C2216 1.413 . S
C2219 C2217 1.367 . S
C2220 N2215 1.362 . S
C2220 C2218 1.420 . S
C2220 C2224 1.429 . S
H2221 C2226 0.930 . S
N2222 Eu2184 2.609 1_565 S
N2222 C2224 1.377 1_565 S
N2222 C2225 1.321 . S
C2223 H2209 0.930 . S
C2223 C2225 1.400 . S
C2223 C2226 1.386 . S
C2224 C2220 1.429 . S
C2224 N2222 1.377 1_545 S
C2224 C2227 1.411 1_545 S
C2225 H2207 0.930 . S
C2225 N2222 1.321 . S
C2225 C2223 1.400 . S
C2226 H2221 0.930 . S
C2226 C2223 1.386 . S
C2226 C2227 1.395 . S
C2227 C2224 1.411 1_565 S
C2227 C2226 1.395 . S
C2227 C2249 1.420 1_565 S
O2228 Eu2184 2.558 1_565 S
O2228 C2248 1.257 . S
O2229 Eu2184 2.612 . S
O2229 Eu2195 2.380 . S
O2229 C2240 1.276 . S
O2230 Eu2195 2.432 . S
O2230 C2247 1.264 . S
O2231 Eu2184 2.339 . S
O2231 C2247 1.254 . S
O2232 Eu2184 2.563 1_565 S
O2232 C2240 1.235 1_565 S
O2233 Eu2184 2.419 1_565 S
O2233 C2248 1.249 . S
O2234 Eu2195 2.558 . S
O2234 C2259 1.257 . S
O2235 Eu2184 2.380 . S
O2235 Eu2195 2.612 . S
O2235 C2251 1.276 . S
O2236 Eu2184 2.432 . S
O2236 C2258 1.264 . S
O2237 Eu2195 2.339 . S
O2237 C2258 1.254 . S
O2238 Eu2195 2.563 . S
O2238 C2251 1.235 . S
O2239 Eu2195 2.419 . S
O2239 C2259 1.249 . S
C2240 O2229 1.276 . S
C2240 O2232 1.235 1_545 S
C2241 C2243 1.393 . S
C2241 C2245 1.395 . S
C2241 C2248 1.492 . S
C2242 C2243 1.392 . S
C2242 C2244 1.386 . S
C2243 C2241 1.393 . S
C2243 C2242 1.392 . S
C2243 H2260 0.930 . S
C2244 C2242 1.386 . S
C2244 C2246 1.395 . S
C2244 H2261 0.930 . S
C2245 C2241 1.395 . S
C2245 C2246 1.379 . S
C2245 H2262 0.930 . S
C2246 C2244 1.395 . S
C2246 C2245 1.379 . S
C2246 H2263 0.930 . S
C2247 O2230 1.264 . S
C2247 O2231 1.254 . S
C2248 Eu2184 2.848 1_565 S
C2248 O2228 1.257 . S
C2248 O2233 1.249 . S
C2248 C2241 1.492 . S
C2249 H2214 0.931 . S
C2249 C2227 1.420 1_545 S
C2249 C2250 1.351 . S
C2250 H2212 0.930 . S
C2250 C2218 1.423 . S
C2250 C2249 1.351 . S
C2251 O2235 1.276 . S
C2251 O2238 1.235 . S
C2252 C2253 1.393 . S
C2252 C2256 1.395 . S
C2252 C2259 1.492 . S
C2253 C2252 1.393 . S
C2253 C2254 1.392 . S
C2253 H2264 0.930 . S
C2254 C2253 1.392 . S
C2254 C2255 1.386 . S
C2255 C2254 1.386 . S
C2255 C2257 1.395 . S
C2255 H2265 0.930 . S
C2256 C2252 1.395 . S
C2256 C2257 1.379 . S
C2256 H2266 0.930 . S
C2257 C2255 1.395 . S
C2257 C2256 1.379 . S
C2257 H2267 0.930 . S
C2258 O2236 1.264 . S
C2258 O2237 1.254 . S
C2259 Eu2195 2.848 . S
C2259 O2234 1.257 . S
C2259 O2239 1.249 . S
C2259 C2252 1.492 . S
H2260 C2243 0.930 . S
H2261 C2244 0.930 . S
H2262 C2245 0.930 . S
H2263 C2246 0.930 . S
H2264 C2253 0.930 . S
H2265 C2255 0.930 . S
H2266 C2256 0.930 . S
H2267 C2257 0.930 . S
Eu2268 N2299 2.657 . S
Eu2268 N2306 2.609 1_556 S
Eu2268 O2312 2.558 1_556 S
Eu2268 O2313 2.612 . S
Eu2268 O2315 2.339 . S
Eu2268 O2316 2.563 1_556 S
Eu2268 O2317 2.419 1_556 S
Eu2268 O2319 2.380 . S
Eu2268 O2320 2.432 . S
Eu2268 C2332 2.848 1_556 S
C2269 C2272 1.429 . S
C2269 C2273 1.411 . S
C2269 N2276 1.377 . S
C2270 C2272 1.420 . S
C2270 C2274 1.423 . S
C2270 C2282 1.392 . S
C2271 C2273 1.420 . S
C2271 C2274 1.351 . S
C2271 H2294 0.931 . S
C2272 C2269 1.429 . S
C2272 C2270 1.420 . S
C2272 N2280 1.362 . S
C2273 C2269 1.411 . S
C2273 C2271 1.420 . S
C2273 C2278 1.395 . S
C2274 C2270 1.423 . S
C2274 C2271 1.351 . S
C2274 H2286 0.930 . S
C2275 C2277 1.400 . S
C2275 C2278 1.386 . S
C2275 H2287 0.930 . S
N2276 C2269 1.377 . S
N2276 C2277 1.321 . S
N2276 Eu2279 2.609 . S
C2277 C2275 1.400 . S
C2277 N2276 1.321 . S
C2277 H2284 0.930 . S
C2278 C2273 1.395 . S
C2278 C2275 1.386 . S
C2278 H2297 0.930 . S
Eu2279 N2276 2.609 . S
Eu2279 N2280 2.657 . S
Eu2279 O2313 2.380 . S
Eu2279 O2314 2.432 . S
Eu2279 O2318 2.558 . S
Eu2279 O2319 2.612 . S
Eu2279 O2321 2.339 . S
Eu2279 O2322 2.563 . S
Eu2279 O2323 2.419 . S
Eu2279 C2343 2.848 . S
N2280 C2272 1.362 . S
N2280 Eu2279 2.657 . S
N2280 C2281 1.334 . S
C2281 N2280 1.334 . S
C2281 C2283 1.413 . S
C2281 H2288 0.929 . S
C2282 C2270 1.392 . S
C2282 C2283 1.367 . S
C2282 H2290 0.930 . S
C2283 C2281 1.413 . S
C2283 C2282 1.367 . S
C2283 H2285 0.930 1_556 S
H2284 C2277 0.930 . S
H2285 C2283 0.930 1_554 S
H2286 C2274 0.930 . S
H2287 C2275 0.930 . S
H2288 C2281 0.929 . S
H2289 C2303 0.930 . S
H2290 C2282 0.930 . S
H2291 C2309 0.930 . S
H2292 C2300 0.929 . S
H2293 C2307 0.930 . S
H2294 C2271 0.931 . S
H2295 C2301 0.930 . S
H2296 C2334 0.930 . S
H2297 C2278 0.930 . S
H2298 C2333 0.931 . S
N2299 Eu2268 2.657 . S
N2299 C2300 1.334 . S
N2299 C2304 1.362 . S
C2300 H2292 0.929 . S
C2300 N2299 1.334 . S
C2300 C2303 1.413 . S
C2301 H2295 0.930 . S
C2301 C2302 1.392 . S
C2301 C2303 1.367 . S
C2302 C2301 1.392 . S
C2302 C2304 1.420 . S
C2302 C2334 1.423 . S
C2303 H2289 0.930 . S
C2303 C2300 1.413 . S
C2303 C2301 1.367 . S
C2304 N2299 1.362 . S
C2304 C2302 1.420 . S
C2304 C2308 1.429 . S
H2305 C2310 0.930 . S
N2306 Eu2268 2.609 1_554 S
N2306 C2308 1.377 1_554 S
N2306 C2309 1.321 . S
C2307 H2293 0.930 . S
C2307 C2309 1.400 . S
C2307 C2310 1.386 . S
C2308 C2304 1.429 . S
C2308 N2306 1.377 1_556 S
C2308 C2311 1.393 1_556 S
C2309 H2291 0.930 . S
C2309 N2306 1.321 . S
C2309 C2307 1.400 . S
C2310 H2305 0.930 . S
C2310 C2307 1.386 . S
C2310 C2311 1.442 . S
C2311 C2308 1.393 1_554 S
C2311 C2310 1.442 . S
C2311 C2333 1.392 1_554 S
O2312 Eu2268 2.558 1_554 S
O2312 C2332 1.257 . S
O2313 Eu2268 2.612 . S
O2313 Eu2279 2.380 . S
O2313 C2324 1.276 . S
O2314 Eu2279 2.432 . S
O2314 C2331 1.264 . S
O2315 Eu2268 2.339 . S
O2315 C2331 1.254 . S
O2316 Eu2268 2.563 1_554 S
O2316 C2324 1.235 1_554 S
O2317 Eu2268 2.419 1_554 S
O2317 C2332 1.249 . S
O2318 Eu2279 2.558 . S
O2318 C2343 1.257 . S
O2319 Eu2268 2.380 . S
O2319 Eu2279 2.612 . S
O2319 C2335 1.276 . S
O2320 Eu2268 2.432 . S
O2320 C2342 1.264 . S
O2321 Eu2279 2.339 . S
O2321 C2342 1.254 . S
O2322 Eu2279 2.563 . S
O2322 C2335 1.235 . S
O2323 Eu2279 2.419 . S
O2323 C2343 1.249 . S
C2324 O2313 1.276 . S
C2324 O2316 1.235 1_556 S
C2325 C2327 1.393 . S
C2325 C2329 1.395 . S
C2325 C2332 1.492 . S
C2326 C2327 1.392 . S
C2326 C2328 1.386 . S
C2327 C2325 1.393 . S
C2327 C2326 1.392 . S
C2327 H2344 0.930 . S
C2328 C2326 1.386 . S
C2328 C2330 1.395 . S
C2328 H2345 0.930 . S
C2329 C2325 1.395 . S
C2329 C2330 1.379 . S
C2329 H2346 0.930 . S
C2330 C2328 1.395 . S
C2330 C2329 1.379 . S
C2330 H2347 0.930 . S
C2331 O2314 1.264 . S
C2331 O2315 1.254 . S
C2332 Eu2268 2.848 1_554 S
C2332 O2312 1.257 . S
C2332 O2317 1.249 . S
C2332 C2325 1.492 . S
C2333 H2298 0.931 . S
C2333 C2311 1.392 1_556 S
C2333 C2334 1.351 . S
C2334 H2296 0.930 . S
C2334 C2302 1.423 . S
C2334 C2333 1.351 . S
C2335 O2319 1.276 . S
C2335 O2322 1.235 . S
C2336 C2337 1.393 . S
C2336 C2340 1.395 . S
C2336 C2343 1.492 . S
C2337 C2336 1.393 . S
C2337 C2338 1.392 . S
C2337 H2348 0.930 . S
C2338 C2337 1.392 . S
C2338 C2339 1.386 . S
C2339 C2338 1.386 . S
C2339 C2341 1.395 . S
C2339 H2349 0.930 . S
C2340 C2336 1.395 . S
C2340 C2341 1.379 . S
C2340 H2350 0.930 . S
C2341 C2339 1.395 . S
C2341 C2340 1.379 . S
C2341 H2351 0.930 . S
C2342 O2320 1.264 . S
C2342 O2321 1.254 . S
C2343 Eu2279 2.848 . S
C2343 O2318 1.257 . S
C2343 O2323 1.249 . S
C2343 C2336 1.492 . S
H2344 C2327 0.930 . S
H2345 C2328 0.930 . S
H2346 C2329 0.930 . S
H2347 C2330 0.930 . S
H2348 C2337 0.930 . S
H2349 C2339 0.930 . S
H2350 C2340 0.930 . S
H2351 C2341 0.930 . S
Eu2352 N2383 2.657 . S
Eu2352 N2390 2.609 . S
Eu2352 O2396 2.558 . S
Eu2352 O2397 2.612 . S
Eu2352 O2399 2.339 . S
Eu2352 O2400 2.563 . S
Eu2352 O2401 2.419 . S
Eu2352 O2403 2.380 . S
Eu2352 O2404 2.432 . S
Eu2352 C2416 2.848 . S
C2353 C2356 1.429 . S
C2353 C2357 1.411 . S
C2353 N2360 1.377 . S
C2354 C2356 1.420 . S
C2354 C2358 1.423 . S
C2354 C2366 1.392 . S
C2355 C2357 1.420 . S
C2355 C2358 1.351 . S
C2355 H2378 0.931 . S
C2356 C2353 1.429 . S
C2356 C2354 1.420 . S
C2356 N2364 1.362 . S
C2357 C2353 1.411 . S
C2357 C2355 1.420 . S
C2357 C2362 1.395 . S
C2358 C2354 1.423 . S
C2358 C2355 1.351 . S
C2358 H2370 0.930 . S
C2359 C2361 1.400 1_655 S
C2359 C2362 1.386 . S
C2359 H2371 0.930 1_655 S
N2360 C2353 1.377 . S
N2360 C2361 1.321 1_655 S
N2360 Eu2363 2.609 1_655 S
C2361 C2359 1.400 1_455 S
C2361 N2360 1.321 1_455 S
C2361 H2368 0.930 . S
C2362 C2357 1.395 . S
C2362 C2359 1.386 . S
C2362 H2381 0.930 . S
Eu2363 N2360 2.609 1_455 S
Eu2363 N2364 2.657 1_455 S
Eu2363 O2397 2.380 . S
Eu2363 O2398 2.432 . S
Eu2363 O2402 2.558 1_455 S
Eu2363 O2403 2.612 . S
Eu2363 O2405 2.339 1_455 S
Eu2363 O2406 2.563 . S
Eu2363 O2407 2.419 1_455 S
Eu2363 C2427 2.848 1_455 S
N2364 C2356 1.362 . S
N2364 Eu2363 2.657 1_655 S
N2364 C2365 1.334 . S
C2365 N2364 1.334 . S
C2365 C2367 1.413 . S
C2365 H2372 0.929 . S
C2366 C2354 1.392 . S
C2366 C2367 1.367 . S
C2366 H2374 0.930 . S
C2367 C2365 1.413 . S
C2367 C2366 1.367 . S
C2367 H2369 0.930 . S
H2368 C2361 0.930 . S
H2369 C2367 0.930 . S
H2370 C2358 0.930 . S
H2371 C2359 0.930 1_455 S
H2372 C2365 0.929 . S
H2373 C2387 0.930 . S
H2374 C2366 0.930 . S
H2375 C2393 0.930 . S
H2376 C2384 0.929 . S
H2377 C2391 0.930 . S
H2378 C2355 0.931 . S
H2379 C2385 0.930 . S
H2380 C2418 0.930 . S
H2381 C2362 0.930 . S
H2382 C2417 0.931 . S
N2383 Eu2352 2.657 . S
N2383 C2384 1.334 . S
N2383 C2388 1.362 . S
C2384 H2376 0.929 . S
C2384 N2383 1.334 . S
C2384 C2387 1.413 . S
C2385 H2379 0.930 . S
C2385 C2386 1.392 . S
C2385 C2387 1.367 . S
C2386 C2385 1.392 . S
C2386 C2388 1.420 . S
C2386 C2418 1.423 . S
C2387 H2373 0.930 . S
C2387 C2384 1.413 . S
C2387 C2385 1.367 . S
C2388 N2383 1.362 . S
C2388 C2386 1.420 . S
C2388 C2392 1.429 . S
H2389 C2394 0.930 . S
N2390 Eu2352 2.609 . S
N2390 C2392 1.377 . S
N2390 C2393 1.321 . S
C2391 H2377 0.930 . S
C2391 C2393 1.400 . S
C2391 C2394 1.386 . S
C2392 C2388 1.429 . S
C2392 N2390 1.377 . S
C2392 C2395 1.411 . S
C2393 H2375 0.930 . S
C2393 N2390 1.321 . S
C2393 C2391 1.400 . S
C2394 H2389 0.930 . S
C2394 C2391 1.386 . S
C2394 C2395 1.395 . S
C2395 C2392 1.411 . S
C2395 C2394 1.395 . S
C2395 C2417 1.420 . S
O2396 Eu2352 2.558 . S
O2396 C2416 1.257 . S
O2397 Eu2352 2.612 . S
O2397 Eu2363 2.380 . S
O2397 C2408 1.276 . S
O2398 Eu2363 2.432 . S
O2398 C2415 1.264 . S
O2399 Eu2352 2.339 . S
O2399 C2415 1.254 . S
O2400 Eu2352 2.563 . S
O2400 C2408 1.235 . S
O2401 Eu2352 2.419 . S
O2401 C2416 1.249 . S
O2402 Eu2363 2.558 1_655 S
O2402 C2427 1.257 . S
O2403 Eu2352 2.380 . S
O2403 Eu2363 2.612 . S
O2403 C2419 1.276 . S
O2404 Eu2352 2.432 . S
O2404 C2426 1.264 . S
O2405 Eu2363 2.339 1_655 S
O2405 C2426 1.254 1_655 S
O2406 Eu2363 2.563 . S
O2406 C2419 1.235 . S
O2407 Eu2363 2.419 1_655 S
O2407 C2427 1.249 . S
C2408 O2397 1.276 . S
C2408 O2400 1.235 . S
C2409 C2411 1.393 . S
C2409 C2413 1.395 . S
C2409 C2416 1.492 . S
C2410 C2411 1.392 . S
C2410 C2412 1.386 . S
C2411 C2409 1.393 . S
C2411 C2410 1.392 . S
C2411 H2428 0.930 . S
C2412 C2410 1.386 . S
C2412 C2414 1.395 . S
C2412 H2429 0.930 . S
C2413 C2409 1.395 . S
C2413 C2414 1.379 . S
C2413 H2430 0.930 . S
C2414 C2412 1.395 . S
C2414 C2413 1.379 . S
C2414 H2431 0.930 . S
C2415 O2398 1.264 . S
C2415 O2399 1.254 . S
C2416 Eu2352 2.848 . S
C2416 O2396 1.257 . S
C2416 O2401 1.249 . S
C2416 C2409 1.492 . S
C2417 H2382 0.931 . S
C2417 C2395 1.420 . S
C2417 C2418 1.351 . S
C2418 H2380 0.930 . S
C2418 C2386 1.423 . S
C2418 C2417 1.351 . S
C2419 O2403 1.276 . S
C2419 O2406 1.235 . S
C2420 C2421 1.393 . S
C2420 C2424 1.395 . S
C2420 C2427 1.492 . S
C2421 C2420 1.393 . S
C2421 C2422 1.392 . S
C2421 H2432 0.930 . S
C2422 C2421 1.392 . S
C2422 C2423 1.386 . S
C2423 C2422 1.386 . S
C2423 C2425 1.395 . S
C2423 H2433 0.930 . S
C2424 C2420 1.395 . S
C2424 C2425 1.379 . S
C2424 H2434 0.930 . S
C2425 C2423 1.395 . S
C2425 C2424 1.379 . S
C2425 H2435 0.930 . S
C2426 O2404 1.264 . S
C2426 O2405 1.254 1_455 S
C2427 Eu2363 2.848 1_655 S
C2427 O2402 1.257 . S
C2427 O2407 1.249 . S
C2427 C2420 1.492 . S
H2428 C2411 0.930 . S
H2429 C2412 0.930 . S
H2430 C2413 0.930 . S
H2431 C2414 0.930 . S
H2432 C2421 0.930 . S
H2433 C2423 0.930 . S
H2434 C2424 0.930 . S
H2435 C2425 0.930 . S
Eu2436 N2467 2.657 . S
Eu2436 N2474 2.609 . S
Eu2436 O2480 2.558 . S
Eu2436 O2481 2.612 . S
Eu2436 O2483 2.339 . S
Eu2436 O2484 2.563 . S
Eu2436 O2485 2.419 . S
Eu2436 O2487 2.380 . S
Eu2436 O2488 2.432 . S
Eu2436 C2500 2.848 . S
C2437 C2440 1.429 . S
C2437 C2441 1.411 . S
C2437 N2444 1.377 . S
C2438 C2440 1.420 . S
C2438 C2442 1.423 . S
C2438 C2450 1.392 . S
C2439 C2441 1.420 . S
C2439 C2442 1.351 . S
C2439 H2462 0.931 . S
C2440 C2437 1.429 . S
C2440 C2438 1.420 . S
C2440 N2448 1.362 . S
C2441 C2437 1.411 . S
C2441 C2439 1.420 . S
C2441 C2446 1.395 . S
C2442 C2438 1.423 . S
C2442 C2439 1.351 . S
C2442 H2454 0.930 . S
C2443 C2445 1.400 . S
C2443 C2446 1.386 . S
C2443 H2455 0.930 . S
N2444 C2437 1.377 . S
N2444 C2445 1.321 . S
N2444 Eu2447 2.609 . S
C2445 C2443 1.400 . S
C2445 N2444 1.321 . S
C2445 H2452 0.930 . S
C2446 C2441 1.395 . S
C2446 C2443 1.386 . S
C2446 H2465 0.930 . S
Eu2447 N2444 2.609 . S
Eu2447 N2448 2.657 . S
Eu2447 O2481 2.380 . S
Eu2447 O2482 2.432 . S
Eu2447 O2486 2.558 . S
Eu2447 O2487 2.612 . S
Eu2447 O2489 2.339 . S
Eu2447 O2490 2.563 . S
Eu2447 O2491 2.419 . S
Eu2447 C2511 2.848 . S
N2448 C2440 1.362 . S
N2448 Eu2447 2.657 . S
N2448 C2449 1.334 . S
C2449 N2448 1.334 . S
C2449 C2451 1.413 . S
C2449 H2456 0.929 . S
C2450 C2438 1.392 . S
C2450 C2451 1.367 . S
C2450 H2458 0.930 . S
C2451 C2449 1.413 . S
C2451 C2450 1.367 . S
C2451 H2453 0.930 . S
H2452 C2445 0.930 . S
H2453 C2451 0.930 . S
H2454 C2442 0.930 . S
H2455 C2443 0.930 . S
H2456 C2449 0.929 . S
H2457 C2471 0.930 . S
H2458 C2450 0.930 . S
H2459 C2477 0.930 . S
H2460 C2468 0.929 . S
H2461 C2475 0.930 . S
H2462 C2439 0.931 . S
H2463 C2469 0.930 . S
H2464 C2502 0.930 . S
H2465 C2446 0.930 . S
H2466 C2501 0.931 . S
N2467 Eu2436 2.657 . S
N2467 C2468 1.334 . S
N2467 C2472 1.362 . S
C2468 H2460 0.929 . S
C2468 N2467 1.334 . S
C2468 C2471 1.413 . S
C2469 H2463 0.930 . S
C2469 C2470 1.392 . S
C2469 C2471 1.367 . S
C2470 C2469 1.392 . S
C2470 C2472 1.420 . S
C2470 C2502 1.423 . S
C2471 H2457 0.930 . S
C2471 C2468 1.413 . S
C2471 C2469 1.367 . S
C2472 N2467 1.362 . S
C2472 C2470 1.420 . S
C2472 C2476 1.429 . S
H2473 C2478 0.930 . S
N2474 Eu2436 2.609 . S
N2474 C2476 1.377 . S
N2474 C2477 1.321 . S
C2475 H2461 0.930 . S
C2475 C2477 1.400 . S
C2475 C2478 1.386 . S
C2476 C2472 1.429 . S
C2476 N2474 1.377 . S
C2476 C2479 1.411 . S
C2477 H2459 0.930 . S
C2477 N2474 1.321 . S
C2477 C2475 1.400 . S
C2478 H2473 0.930 . S
C2478 C2475 1.386 . S
C2478 C2479 1.395 . S
C2479 C2476 1.411 . S
C2479 C2478 1.395 . S
C2479 C2501 1.420 . S
O2480 Eu2436 2.558 . S
O2480 C2500 1.257 . S
O2481 Eu2436 2.612 . S
O2481 Eu2447 2.380 . S
O2481 C2492 1.276 . S
O2482 Eu2447 2.432 . S
O2482 C2499 1.264 . S
O2483 Eu2436 2.339 . S
O2483 C2499 1.254 . S
O2484 Eu2436 2.563 . S
O2484 C2492 1.235 . S
O2485 Eu2436 2.419 . S
O2485 C2500 1.249 . S
O2486 Eu2447 2.558 . S
O2486 C2511 1.257 . S
O2487 Eu2436 2.380 . S
O2487 Eu2447 2.612 . S
O2487 C2503 1.276 . S
O2488 Eu2436 2.432 . S
O2488 C2510 1.264 . S
O2489 Eu2447 2.339 . S
O2489 C2510 1.254 . S
O2490 Eu2447 2.563 . S
O2490 C2503 1.235 . S
O2491 Eu2447 2.419 . S
O2491 C2511 1.249 . S
C2492 O2481 1.276 . S
C2492 O2484 1.235 . S
C2493 C2495 1.393 . S
C2493 C2497 1.395 . S
C2493 C2500 1.492 . S
C2494 C2495 1.392 . S
C2494 C2496 1.386 . S
C2495 C2493 1.393 . S
C2495 C2494 1.392 . S
C2495 H2512 0.930 . S
C2496 C2494 1.386 . S
C2496 C2498 1.395 . S
C2496 H2513 0.930 . S
C2497 C2493 1.395 . S
C2497 C2498 1.379 . S
C2497 H2514 0.930 . S
C2498 C2496 1.395 . S
C2498 C2497 1.379 . S
C2498 H2515 0.930 . S
C2499 O2482 1.264 . S
C2499 O2483 1.254 . S
C2500 Eu2436 2.848 . S
C2500 O2480 1.257 . S
C2500 O2485 1.249 . S
C2500 C2493 1.492 . S
C2501 H2466 0.931 . S
C2501 C2479 1.420 . S
C2501 C2502 1.351 . S
C2502 H2464 0.930 . S
C2502 C2470 1.423 . S
C2502 C2501 1.351 . S
C2503 O2487 1.276 . S
C2503 O2490 1.235 . S
C2504 C2505 1.393 . S
C2504 C2508 1.395 . S
C2504 C2511 1.492 . S
C2505 C2504 1.393 . S
C2505 C2506 1.392 . S
C2505 H2516 0.930 . S
C2506 C2505 1.392 . S
C2506 C2507 1.386 . S
C2507 C2506 1.386 . S
C2507 C2509 1.395 . S
C2507 H2517 0.930 . S
C2508 C2504 1.395 . S
C2508 C2509 1.379 . S
C2508 H2518 0.930 . S
C2509 C2507 1.395 . S
C2509 C2508 1.379 . S
C2509 H2519 0.930 . S
C2510 O2488 1.264 . S
C2510 O2489 1.254 . S
C2511 Eu2447 2.848 . S
C2511 O2486 1.257 . S
C2511 O2491 1.249 . S
C2511 C2504 1.492 . S
H2512 C2495 0.930 . S
H2513 C2496 0.930 . S
H2514 C2497 0.930 . S
H2515 C2498 0.930 . S
H2516 C2505 0.930 . S
H2517 C2507 0.930 . S
H2518 C2508 0.930 . S
H2519 C2509 0.930 . S
Eu2520 N2551 2.657 . S
Eu2520 N2558 2.609 . S
Eu2520 O2564 2.558 . S
Eu2520 O2565 2.612 . S
Eu2520 O2567 2.339 . S
Eu2520 O2568 2.563 . S
Eu2520 O2569 2.419 . S
Eu2520 O2571 2.380 . S
Eu2520 O2572 2.432 . S
Eu2520 C2584 2.848 . S
C2521 C2524 1.429 . S
C2521 C2525 1.411 . S
C2521 N2528 1.377 . S
C2522 C2524 1.420 . S
C2522 C2526 1.423 . S
C2522 C2534 1.392 . S
C2523 C2525 1.420 . S
C2523 C2526 1.351 . S
C2523 H2546 0.931 . S
C2524 C2521 1.429 . S
C2524 C2522 1.420 . S
C2524 N2532 1.362 . S
C2525 C2521 1.411 . S
C2525 C2523 1.420 . S
C2525 C2530 1.395 . S
C2526 C2522 1.423 . S
C2526 C2523 1.351 . S
C2526 H2538 0.930 . S
C2527 C2529 1.400 . S
C2527 C2530 1.386 . S
C2527 H2539 0.930 . S
N2528 C2521 1.377 . S
N2528 C2529 1.321 . S
N2528 Eu2531 2.609 . S
C2529 C2527 1.400 . S
C2529 N2528 1.321 . S
C2529 H2536 0.930 . S
C2530 C2525 1.395 . S
C2530 C2527 1.386 . S
C2530 H2549 0.930 . S
Eu2531 N2528 2.609 . S
Eu2531 N2532 2.657 . S
Eu2531 O2565 2.380 . S
Eu2531 O2566 2.432 . S
Eu2531 O2570 2.558 . S
Eu2531 O2571 2.612 . S
Eu2531 O2573 2.339 . S
Eu2531 O2574 2.563 . S
Eu2531 O2575 2.419 . S
Eu2531 C2595 2.848 . S
N2532 C2524 1.362 . S
N2532 Eu2531 2.657 . S
N2532 C2533 1.334 . S
C2533 N2532 1.334 . S
C2533 C2535 1.413 . S
C2533 H2540 0.929 . S
C2534 C2522 1.392 . S
C2534 C2535 1.367 . S
C2534 H2542 0.930 . S
C2535 C2533 1.413 . S
C2535 C2534 1.367 . S
C2535 H2537 0.930 . S
H2536 C2529 0.930 . S
H2537 C2535 0.930 . S
H2538 C2526 0.930 . S
H2539 C2527 0.930 . S
H2540 C2533 0.929 . S
H2541 C2555 0.930 . S
H2542 C2534 0.930 . S
H2543 C2561 0.930 . S
H2544 C2552 0.929 . S
H2545 C2559 0.930 . S
H2546 C2523 0.931 . S
H2547 C2553 0.930 . S
H2548 C2586 0.930 . S
H2549 C2530 0.930 . S
H2550 C2585 0.931 . S
N2551 Eu2520 2.657 . S
N2551 C2552 1.334 . S
N2551 C2556 1.362 . S
C2552 H2544 0.929 . S
C2552 N2551 1.334 . S
C2552 C2555 1.413 . S
C2553 H2547 0.930 . S
C2553 C2554 1.392 . S
C2553 C2555 1.367 . S
C2554 C2553 1.392 . S
C2554 C2556 1.420 . S
C2554 C2586 1.423 . S
C2555 H2541 0.930 . S
C2555 C2552 1.413 . S
C2555 C2553 1.367 . S
C2556 N2551 1.362 . S
C2556 C2554 1.420 . S
C2556 C2560 1.429 . S
H2557 C2562 0.930 . S
N2558 Eu2520 2.609 . S
N2558 C2560 1.377 . S
N2558 C2561 1.321 . S
C2559 H2545 0.930 . S
C2559 C2561 1.400 . S
C2559 C2562 1.386 . S
C2560 C2556 1.429 . S
C2560 N2558 1.377 . S
C2560 C2563 1.411 . S
C2561 H2543 0.930 . S
C2561 N2558 1.321 . S
C2561 C2559 1.400 . S
C2562 H2557 0.930 . S
C2562 C2559 1.386 . S
C2562 C2563 1.395 . S
C2563 C2560 1.411 . S
C2563 C2562 1.395 . S
C2563 C2585 1.420 . S
O2564 Eu2520 2.558 . S
O2564 C2584 1.257 . S
O2565 Eu2520 2.612 . S
O2565 Eu2531 2.380 . S
O2565 C2576 1.276 . S
O2566 Eu2531 2.432 . S
O2566 C2583 1.264 . S
O2567 Eu2520 2.339 . S
O2567 C2583 1.254 . S
O2568 Eu2520 2.563 . S
O2568 C2576 1.235 . S
O2569 Eu2520 2.419 . S
O2569 C2584 1.249 . S
O2570 Eu2531 2.558 . S
O2570 C2595 1.257 . S
O2571 Eu2520 2.380 . S
O2571 Eu2531 2.612 . S
O2571 C2587 1.276 . S
O2572 Eu2520 2.432 . S
O2572 C2594 1.264 . S
O2573 Eu2531 2.339 . S
O2573 C2594 1.254 . S
O2574 Eu2531 2.563 . S
O2574 C2587 1.235 . S
O2575 Eu2531 2.419 . S
O2575 C2595 1.249 . S
C2576 O2565 1.276 . S
C2576 O2568 1.235 . S
C2577 C2579 1.393 . S
C2577 C2581 1.395 . S
C2577 C2584 1.492 . S
C2578 C2579 1.392 . S
C2578 C2580 1.386 . S
C2579 C2577 1.393 . S
C2579 C2578 1.392 . S
C2579 H2596 0.930 . S
C2580 C2578 1.386 . S
C2580 C2582 1.395 . S
C2580 H2597 0.930 . S
C2581 C2577 1.395 . S
C2581 C2582 1.379 . S
C2581 H2598 0.930 . S
C2582 C2580 1.395 . S
C2582 C2581 1.379 . S
C2582 H2599 0.930 . S
C2583 O2566 1.264 . S
C2583 O2567 1.254 . S
C2584 Eu2520 2.848 . S
C2584 O2564 1.257 . S
C2584 O2569 1.249 . S
C2584 C2577 1.492 . S
C2585 H2550 0.931 . S
C2585 C2563 1.420 . S
C2585 C2586 1.351 . S
C2586 H2548 0.930 . S
C2586 C2554 1.423 . S
C2586 C2585 1.351 . S
C2587 O2571 1.276 . S
C2587 O2574 1.235 . S
C2588 C2589 1.393 . S
C2588 C2592 1.395 . S
C2588 C2595 1.492 . S
C2589 C2588 1.393 . S
C2589 C2590 1.392 . S
C2589 H2600 0.930 . S
C2590 C2589 1.392 . S
C2590 C2591 1.386 . S
C2591 C2590 1.386 . S
C2591 C2593 1.395 . S
C2591 H2601 0.930 . S
C2592 C2588 1.395 . S
C2592 C2593 1.379 . S
C2592 H2602 0.930 . S
C2593 C2591 1.395 . S
C2593 C2592 1.379 . S
C2593 H2603 0.930 . S
C2594 O2572 1.264 . S
C2594 O2573 1.254 . S
C2595 Eu2531 2.848 . S
C2595 O2570 1.257 . S
C2595 O2575 1.249 . S
C2595 C2588 1.492 . S
H2596 C2579 0.930 . S
H2597 C2580 0.930 . S
H2598 C2581 0.930 . S
H2599 C2582 0.930 . S
H2600 C2589 0.930 . S
H2601 C2591 0.930 . S
H2602 C2592 0.930 . S
H2603 C2593 0.930 . S
Eu2604 N2635 2.657 . S
Eu2604 N2642 2.609 . S
Eu2604 O2648 2.558 . S
Eu2604 O2649 2.612 . S
Eu2604 O2651 2.339 . S
Eu2604 O2652 2.563 . S
Eu2604 O2653 2.419 . S
Eu2604 O2655 2.380 . S
Eu2604 O2656 2.432 . S
Eu2604 C2668 2.848 . S
C2605 C2608 1.429 . S
C2605 C2609 1.396 1_655 S
C2605 N2612 1.377 1_655 S
C2606 C2608 1.420 . S
C2606 C2610 1.423 . S
C2606 C2618 1.392 . S
C2607 C2609 1.397 1_655 S
C2607 C2610 1.351 . S
C2607 H2630 0.931 . S
C2608 C2605 1.429 . S
C2608 C2606 1.420 . S
C2608 N2616 1.362 . S
C2609 C2605 1.396 1_455 S
C2609 C2607 1.397 1_455 S
C2609 C2614 1.433 . S
C2610 C2606 1.423 . S
C2610 C2607 1.351 . S
C2610 H2622 0.930 . S
C2611 C2613 1.400 . S
C2611 C2614 1.386 . S
C2611 H2623 0.930 . S
N2612 C2605 1.377 1_455 S
N2612 C2613 1.321 . S
N2612 Eu2615 2.609 1_455 S
C2613 C2611 1.400 . S
C2613 N2612 1.321 . S
C2613 H2620 0.930 . S
C2614 C2609 1.433 . S
C2614 C2611 1.386 . S
C2614 H2633 0.930 . S
Eu2615 N2612 2.609 1_655 S
Eu2615 N2616 2.657 . S
Eu2615 O2649 2.380 . S
Eu2615 O2650 2.432 . S
Eu2615 O2654 2.558 1_655 S
Eu2615 O2655 2.612 . S
Eu2615 O2657 2.339 . S
Eu2615 O2658 2.563 1_655 S
Eu2615 O2659 2.419 1_655 S
Eu2615 C2679 2.848 1_655 S
N2616 C2608 1.362 . S
N2616 Eu2615 2.657 . S
N2616 C2617 1.334 . S
C2617 N2616 1.334 . S
C2617 C2619 1.413 . S
C2617 H2624 0.929 . S
C2618 C2606 1.392 . S
C2618 C2619 1.367 . S
C2618 H2626 0.930 . S
C2619 C2617 1.413 . S
C2619 C2618 1.367 . S
C2619 H2621 0.930 . S
H2620 C2613 0.930 . S
H2621 C2619 0.930 . S
H2622 C2610 0.930 . S
H2623 C2611 0.930 . S
H2624 C2617 0.929 . S
H2625 C2639 0.930 1_455 S
H2626 C2618 0.930 . S
H2627 C2645 0.930 . S
H2628 C2636 0.929 . S
H2629 C2643 0.930 . S
H2630 C2607 0.931 . S
H2631 C2637 0.930 . S
H2632 C2670 0.930 . S
H2633 C2614 0.930 . S
H2634 C2669 0.931 . S
N2635 Eu2604 2.657 . S
N2635 C2636 1.334 . S
N2635 C2640 1.362 . S
C2636 H2628 0.929 . S
C2636 N2635 1.334 . S
C2636 C2639 1.413 . S
C2637 H2631 0.930 . S
C2637 C2638 1.392 . S
C2637 C2639 1.367 . S
C2638 C2637 1.392 . S
C2638 C2640 1.420 . S
C2638 C2670 1.423 . S
C2639 H2625 0.930 1_655 S
C2639 C2636 1.413 . S
C2639 C2637 1.367 . S
C2640 N2635 1.362 . S
C2640 C2638 1.420 . S
C2640 C2644 1.429 . S
H2641 C2646 0.930 . S
N2642 Eu2604 2.609 . S
N2642 C2644 1.377 . S
N2642 C2645 1.321 . S
C2643 H2629 0.930 . S
C2643 C2645 1.400 . S
C2643 C2646 1.386 . S
C2644 C2640 1.429 . S
C2644 N2642 1.377 . S
C2644 C2647 1.411 . S
C2645 H2627 0.930 . S
C2645 N2642 1.321 . S
C2645 C2643 1.400 . S
C2646 H2641 0.930 . S
C2646 C2643 1.386 . S
C2646 C2647 1.395 . S
C2647 C2644 1.411 . S
C2647 C2646 1.395 . S
C2647 C2669 1.420 . S
O2648 Eu2604 2.558 . S
O2648 C2668 1.257 . S
O2649 Eu2604 2.612 . S
O2649 Eu2615 2.380 . S
O2649 C2660 1.276 . S
O2650 Eu2615 2.432 . S
O2650 C2667 1.264 . S
O2651 Eu2604 2.339 . S
O2651 C2667 1.254 . S
O2652 Eu2604 2.563 . S
O2652 C2660 1.235 . S
O2653 Eu2604 2.419 . S
O2653 C2668 1.249 . S
O2654 Eu2615 2.558 1_455 S
O2654 C2679 1.257 . S
O2655 Eu2604 2.380 . S
O2655 Eu2615 2.612 . S
O2655 C2671 1.276 . S
O2656 Eu2604 2.432 . S
O2656 C2678 1.264 . S
O2657 Eu2615 2.339 . S
O2657 C2678 1.254 . S
O2658 Eu2615 2.563 1_455 S
O2658 C2671 1.235 1_455 S
O2659 Eu2615 2.419 1_455 S
O2659 C2679 1.249 . S
C2660 O2649 1.276 . S
C2660 O2652 1.235 . S
C2661 C2663 1.393 . S
C2661 C2665 1.395 . S
C2661 C2668 1.492 . S
C2662 C2663 1.392 . S
C2662 C2664 1.386 . S
C2663 C2661 1.393 . S
C2663 C2662 1.392 . S
C2663 H2680 0.930 . S
C2664 C2662 1.386 . S
C2664 C2666 1.395 . S
C2664 H2681 0.930 . S
C2665 C2661 1.395 . S
C2665 C2666 1.379 . S
C2665 H2682 0.930 . S
C2666 C2664 1.395 . S
C2666 C2665 1.379 . S
C2666 H2683 0.930 . S
C2667 O2650 1.264 . S
C2667 O2651 1.254 . S
C2668 Eu2604 2.848 . S
C2668 O2648 1.257 . S
C2668 O2653 1.249 . S
C2668 C2661 1.492 . S
C2669 H2634 0.931 . S
C2669 C2647 1.420 . S
C2669 C2670 1.351 . S
C2670 H2632 0.930 . S
C2670 C2638 1.423 . S
C2670 C2669 1.351 . S
C2671 O2655 1.276 . S
C2671 O2658 1.235 1_655 S
C2672 C2673 1.393 . S
C2672 C2676 1.395 . S
C2672 C2679 1.492 . S
C2673 C2672 1.393 . S
C2673 C2674 1.392 . S
C2673 H2684 0.930 . S
C2674 C2673 1.392 . S
C2674 C2675 1.386 . S
C2675 C2674 1.386 . S
C2675 C2677 1.395 . S
C2675 H2685 0.930 . S
C2676 C2672 1.395 . S
C2676 C2677 1.379 . S
C2676 H2686 0.930 . S
C2677 C2675 1.395 . S
C2677 C2676 1.379 . S
C2677 H2687 0.930 . S
C2678 O2656 1.264 . S
C2678 O2657 1.254 . S
C2679 Eu2615 2.848 1_455 S
C2679 O2654 1.257 . S
C2679 O2659 1.249 . S
C2679 C2672 1.492 . S
H2680 C2663 0.930 . S
H2681 C2664 0.930 . S
H2682 C2665 0.930 . S
H2683 C2666 0.930 . S
H2684 C2673 0.930 . S
H2685 C2675 0.930 . S
H2686 C2676 0.930 . S
H2687 C2677 0.930 . S
Eu2688 N2719 2.657 . S
Eu2688 N2726 2.609 . S
Eu2688 O2732 2.558 . S
Eu2688 O2733 2.612 . S
Eu2688 O2735 2.339 . S
Eu2688 O2736 2.563 . S
Eu2688 O2737 2.419 . S
Eu2688 O2739 2.380 . S
Eu2688 O2740 2.432 . S
Eu2688 C2752 2.848 . S
C2689 C2692 1.429 . S
C2689 C2693 1.411 . S
C2689 N2696 1.377 . S
C2690 C2692 1.420 . S
C2690 C2694 1.423 . S
C2690 C2702 1.392 . S
C2691 C2693 1.420 . S
C2691 C2694 1.351 . S
C2691 H2714 0.931 . S
C2692 C2689 1.429 . S
C2692 C2690 1.420 . S
C2692 N2700 1.362 . S
C2693 C2689 1.411 . S
C2693 C2691 1.420 . S
C2693 C2698 1.395 . S
C2694 C2690 1.423 . S
C2694 C2691 1.351 . S
C2694 H2706 0.930 . S
C2695 C2697 1.400 . S
C2695 C2698 1.386 . S
C2695 H2707 0.930 . S
N2696 C2689 1.377 . S
N2696 C2697 1.321 . S
N2696 Eu2699 2.609 . S
C2697 C2695 1.400 . S
C2697 N2696 1.321 . S
C2697 H2704 0.930 . S
C2698 C2693 1.395 . S
C2698 C2695 1.386 . S
C2698 H2717 0.930 . S
Eu2699 N2696 2.609 . S
Eu2699 N2700 2.657 . S
Eu2699 O2733 2.380 . S
Eu2699 O2734 2.432 . S
Eu2699 O2738 2.558 . S
Eu2699 O2739 2.612 . S
Eu2699 O2741 2.339 . S
Eu2699 O2742 2.563 . S
Eu2699 O2743 2.419 . S
Eu2699 C2763 2.848 . S
N2700 C2692 1.362 . S
N2700 Eu2699 2.657 . S
N2700 C2701 1.334 . S
C2701 N2700 1.334 . S
C2701 C2703 1.413 . S
C2701 H2708 0.929 . S
C2702 C2690 1.392 . S
C2702 C2703 1.367 . S
C2702 H2710 0.930 . S
C2703 C2701 1.413 . S
C2703 C2702 1.367 . S
C2703 H2705 0.930 . S
H2704 C2697 0.930 . S
H2705 C2703 0.930 . S
H2706 C2694 0.930 . S
H2707 C2695 0.930 . S
H2708 C2701 0.929 . S
H2709 C2723 0.930 . S
H2710 C2702 0.930 . S
H2711 C2729 0.930 . S
H2712 C2720 0.929 . S
H2713 C2727 0.930 . S
H2714 C2691 0.931 . S
H2715 C2721 0.930 . S
H2716 C2754 0.930 . S
H2717 C2698 0.930 . S
H2718 C2753 0.931 . S
N2719 Eu2688 2.657 . S
N2719 C2720 1.334 . S
N2719 C2724 1.362 . S
C2720 H2712 0.929 . S
C2720 N2719 1.334 . S
C2720 C2723 1.413 . S
C2721 H2715 0.930 . S
C2721 C2722 1.392 . S
C2721 C2723 1.367 . S
C2722 C2721 1.392 . S
C2722 C2724 1.420 . S
C2722 C2754 1.423 . S
C2723 H2709 0.930 . S
C2723 C2720 1.413 . S
C2723 C2721 1.367 . S
C2724 N2719 1.362 . S
C2724 C2722 1.420 . S
C2724 C2728 1.429 . S
H2725 C2730 0.930 . S
N2726 Eu2688 2.609 . S
N2726 C2728 1.377 . S
N2726 C2729 1.321 . S
C2727 H2713 0.930 . S
C2727 C2729 1.400 . S
C2727 C2730 1.386 . S
C2728 C2724 1.429 . S
C2728 N2726 1.377 . S
C2728 C2731 1.411 . S
C2729 H2711 0.930 . S
C2729 N2726 1.321 . S
C2729 C2727 1.400 . S
C2730 H2725 0.930 . S
C2730 C2727 1.386 . S
C2730 C2731 1.395 . S
C2731 C2728 1.411 . S
C2731 C2730 1.395 . S
C2731 C2753 1.420 . S
O2732 Eu2688 2.558 . S
O2732 C2752 1.257 . S
O2733 Eu2688 2.612 . S
O2733 Eu2699 2.380 . S
O2733 C2744 1.276 . S
O2734 Eu2699 2.432 . S
O2734 C2751 1.264 . S
O2735 Eu2688 2.339 . S
O2735 C2751 1.254 . S
O2736 Eu2688 2.563 . S
O2736 C2744 1.235 . S
O2737 Eu2688 2.419 . S
O2737 C2752 1.249 . S
O2738 Eu2699 2.558 . S
O2738 C2763 1.257 . S
O2739 Eu2688 2.380 . S
O2739 Eu2699 2.612 . S
O2739 C2755 1.276 . S
O2740 Eu2688 2.432 . S
O2740 C2762 1.264 . S
O2741 Eu2699 2.339 . S
O2741 C2762 1.254 . S
O2742 Eu2699 2.563 . S
O2742 C2755 1.235 . S
O2743 Eu2699 2.419 . S
O2743 C2763 1.249 . S
C2744 O2733 1.276 . S
C2744 O2736 1.235 . S
C2745 C2747 1.393 . S
C2745 C2749 1.395 . S
C2745 C2752 1.492 . S
C2746 C2747 1.392 . S
C2746 C2748 1.386 . S
C2747 C2745 1.393 . S
C2747 C2746 1.392 . S
C2747 H2764 0.930 . S
C2748 C2746 1.386 . S
C2748 C2750 1.395 . S
C2748 H2765 0.930 . S
C2749 C2745 1.395 . S
C2749 C2750 1.379 . S
C2749 H2766 0.930 . S
C2750 C2748 1.395 . S
C2750 C2749 1.379 . S
C2750 H2767 0.930 . S
C2751 O2734 1.264 . S
C2751 O2735 1.254 . S
C2752 Eu2688 2.848 . S
C2752 O2732 1.257 . S
C2752 O2737 1.249 . S
C2752 C2745 1.492 . S
C2753 H2718 0.931 . S
C2753 C2731 1.420 . S
C2753 C2754 1.351 . S
C2754 H2716 0.930 . S
C2754 C2722 1.423 . S
C2754 C2753 1.351 . S
C2755 O2739 1.276 . S
C2755 O2742 1.235 . S
C2756 C2757 1.393 . S
C2756 C2760 1.395 . S
C2756 C2763 1.492 . S
C2757 C2756 1.393 . S
C2757 C2758 1.392 . S
C2757 H2768 0.930 . S
C2758 C2757 1.392 . S
C2758 C2759 1.386 . S
C2759 C2758 1.386 . S
C2759 C2761 1.395 . S
C2759 H2769 0.930 . S
C2760 C2756 1.395 . S
C2760 C2761 1.379 . S
C2760 H2770 0.930 . S
C2761 C2759 1.395 . S
C2761 C2760 1.379 . S
C2761 H2771 0.930 . S
C2762 O2740 1.264 . S
C2762 O2741 1.254 . S
C2763 Eu2699 2.848 . S
C2763 O2738 1.257 . S
C2763 O2743 1.249 . S
C2763 C2756 1.492 . S
H2764 C2747 0.930 . S
H2765 C2748 0.930 . S
H2766 C2749 0.930 . S
H2767 C2750 0.930 . S
H2768 C2757 0.930 . S
H2769 C2759 0.930 . S
H2770 C2760 0.930 . S
H2771 C2761 0.930 . S
Eu2772 N2803 2.657 . S
Eu2772 N2810 2.609 . S
Eu2772 O2816 2.558 . S
Eu2772 O2817 2.612 . S
Eu2772 O2819 2.339 . S
Eu2772 O2820 2.563 . S
Eu2772 O2821 2.419 . S
Eu2772 O2823 2.380 . S
Eu2772 O2824 2.432 . S
Eu2772 C2836 2.848 . S
C2773 C2776 1.429 . S
C2773 C2777 1.412 1_556 S
C2773 N2780 1.377 1_556 S
C2774 C2776 1.420 . S
C2774 C2778 1.423 . S
C2774 C2786 1.392 . S
C2775 C2777 1.422 1_556 S
C2775 C2778 1.351 . S
C2775 H2798 0.931 . S
C2776 C2773 1.429 . S
C2776 C2774 1.420 . S
C2776 N2784 1.362 . S
C2777 C2773 1.412 1_554 S
C2777 C2775 1.422 1_554 S
C2777 C2782 1.392 . S
C2778 C2774 1.423 . S
C2778 C2775 1.351 . S
C2778 H2790 0.930 . S
C2779 C2781 1.400 . S
C2779 C2782 1.386 . S
C2779 H2791 0.930 . S
N2780 C2773 1.377 1_554 S
N2780 C2781 1.321 . S
N2780 Eu2783 2.609 1_554 S
C2781 C2779 1.400 . S
C2781 N2780 1.321 . S
C2781 H2788 0.930 . S
C2782 C2777 1.392 . S
C2782 C2779 1.386 . S
C2782 H2801 0.930 . S
Eu2783 N2780 2.609 1_556 S
Eu2783 N2784 2.657 . S
Eu2783 O2817 2.380 . S
Eu2783 O2818 2.432 . S
Eu2783 O2822 2.558 1_556 S
Eu2783 O2823 2.612 . S
Eu2783 O2825 2.339 . S
Eu2783 O2826 2.563 1_556 S
Eu2783 O2827 2.419 1_556 S
Eu2783 C2847 2.848 1_556 S
N2784 C2776 1.362 . S
N2784 Eu2783 2.657 . S
N2784 C2785 1.334 . S
C2785 N2784 1.334 . S
C2785 C2787 1.413 . S
C2785 H2792 0.929 . S
C2786 C2774 1.392 . S
C2786 C2787 1.367 . S
C2786 H2794 0.930 . S
C2787 C2785 1.413 . S
C2787 C2786 1.367 . S
C2787 H2789 0.930 . S
H2788 C2781 0.930 . S
H2789 C2787 0.930 . S
H2790 C2778 0.930 . S
H2791 C2779 0.930 . S
H2792 C2785 0.929 . S
H2793 C2807 0.930 1_554 S
H2794 C2786 0.930 . S
H2795 C2813 0.930 . S
H2796 C2804 0.929 . S
H2797 C2811 0.930 . S
H2798 C2775 0.931 . S
H2799 C2805 0.930 . S
H2800 C2838 0.930 . S
H2801 C2782 0.930 . S
H2802 C2837 0.931 . S
N2803 Eu2772 2.657 . S
N2803 C2804 1.334 . S
N2803 C2808 1.362 . S
C2804 H2796 0.929 . S
C2804 N2803 1.334 . S
C2804 C2807 1.413 . S
C2805 H2799 0.930 . S
C2805 C2806 1.392 . S
C2805 C2807 1.367 . S
C2806 C2805 1.392 . S
C2806 C2808 1.420 . S
C2806 C2838 1.423 . S
C2807 H2793 0.930 1_556 S
C2807 C2804 1.413 . S
C2807 C2805 1.367 . S
C2808 N2803 1.362 . S
C2808 C2806 1.420 . S
C2808 C2812 1.429 . S
H2809 C2814 0.930 . S
N2810 Eu2772 2.609 . S
N2810 C2812 1.377 . S
N2810 C2813 1.321 . S
C2811 H2797 0.930 . S
C2811 C2813 1.400 . S
C2811 C2814 1.386 . S
C2812 C2808 1.429 . S
C2812 N2810 1.377 . S
C2812 C2815 1.411 . S
C2813 H2795 0.930 . S
C2813 N2810 1.321 . S
C2813 C2811 1.400 . S
C2814 H2809 0.930 . S
C2814 C2811 1.386 . S
C2814 C2815 1.395 . S
C2815 C2812 1.411 . S
C2815 C2814 1.395 . S
C2815 C2837 1.420 . S
O2816 Eu2772 2.558 . S
O2816 C2836 1.257 . S
O2817 Eu2772 2.612 . S
O2817 Eu2783 2.380 . S
O2817 C2828 1.276 . S
O2818 Eu2783 2.432 . S
O2818 C2835 1.264 . S
O2819 Eu2772 2.339 . S
O2819 C2835 1.254 . S
O2820 Eu2772 2.563 . S
O2820 C2828 1.235 . S
O2821 Eu2772 2.419 . S
O2821 C2836 1.249 . S
O2822 Eu2783 2.558 1_554 S
O2822 C2847 1.257 . S
O2823 Eu2772 2.380 . S
O2823 Eu2783 2.612 . S
O2823 C2839 1.276 . S
O2824 Eu2772 2.432 . S
O2824 C2846 1.264 . S
O2825 Eu2783 2.339 . S
O2825 C2846 1.254 . S
O2826 Eu2783 2.563 1_554 S
O2826 C2839 1.235 1_554 S
O2827 Eu2783 2.419 1_554 S
O2827 C2847 1.249 . S
C2828 O2817 1.276 . S
C2828 O2820 1.235 . S
C2829 C2831 1.393 . S
C2829 C2833 1.395 . S
C2829 C2836 1.492 . S
C2830 C2831 1.392 . S
C2830 C2832 1.386 . S
C2831 C2829 1.393 . S
C2831 C2830 1.392 . S
C2831 H2848 0.930 . S
C2832 C2830 1.386 . S
C2832 C2834 1.395 . S
C2832 H2849 0.930 . S
C2833 C2829 1.395 . S
C2833 C2834 1.379 . S
C2833 H2850 0.930 . S
C2834 C2832 1.395 . S
C2834 C2833 1.379 . S
C2834 H2851 0.930 . S
C2835 O2818 1.264 . S
C2835 O2819 1.254 . S
C2836 Eu2772 2.848 . S
C2836 O2816 1.257 . S
C2836 O2821 1.249 . S
C2836 C2829 1.492 . S
C2837 H2802 0.931 . S
C2837 C2815 1.420 . S
C2837 C2838 1.351 . S
C2838 H2800 0.930 . S
C2838 C2806 1.423 . S
C2838 C2837 1.351 . S
C2839 O2823 1.276 . S
C2839 O2826 1.235 1_556 S
C2840 C2841 1.393 . S
C2840 C2844 1.395 . S
C2840 C2847 1.492 . S
C2841 C2840 1.393 . S
C2841 C2842 1.392 . S
C2841 H2852 0.930 . S
C2842 C2841 1.392 . S
C2842 C2843 1.386 . S
C2843 C2842 1.386 . S
C2843 C2845 1.395 . S
C2843 H2853 0.930 . S
C2844 C2840 1.395 . S
C2844 C2845 1.379 . S
C2844 H2854 0.930 . S
C2845 C2843 1.395 . S
C2845 C2844 1.379 . S
C2845 H2855 0.930 . S
C2846 O2824 1.264 . S
C2846 O2825 1.254 . S
C2847 Eu2783 2.848 1_554 S
C2847 O2822 1.257 . S
C2847 O2827 1.249 . S
C2847 C2840 1.492 . S
H2848 C2831 0.930 . S
H2849 C2832 0.930 . S
H2850 C2833 0.930 . S
H2851 C2834 0.930 . S
H2852 C2841 0.930 . S
H2853 C2843 0.930 . S
H2854 C2844 0.930 . S
H2855 C2845 0.930 . S
Eu2856 N2887 2.657 . S
Eu2856 N2894 2.609 . S
Eu2856 O2900 2.558 . S
Eu2856 O2901 2.612 . S
Eu2856 O2903 2.339 . S
Eu2856 O2904 2.563 . S
Eu2856 O2905 2.419 . S
Eu2856 O2907 2.380 . S
Eu2856 O2908 2.432 . S
Eu2856 C2920 2.848 . S
C2857 C2860 1.429 . S
C2857 C2861 1.411 . S
C2857 N2864 1.377 . S
C2858 C2860 1.420 . S
C2858 C2862 1.423 . S
C2858 C2870 1.392 . S
C2859 C2861 1.420 . S
C2859 C2862 1.351 . S
C2859 H2882 0.931 . S
C2860 C2857 1.429 . S
C2860 C2858 1.420 . S
C2860 N2868 1.362 . S
C2861 C2857 1.411 . S
C2861 C2859 1.420 . S
C2861 C2866 1.395 . S
C2862 C2858 1.423 . S
C2862 C2859 1.351 . S
C2862 H2874 0.930 . S
C2863 C2865 1.400 . S
C2863 C2866 1.386 . S
C2863 H2875 0.930 . S
N2864 C2857 1.377 . S
N2864 C2865 1.321 . S
N2864 Eu2867 2.609 . S
C2865 C2863 1.400 . S
C2865 N2864 1.321 . S
C2865 H2872 0.930 . S
C2866 C2861 1.395 . S
C2866 C2863 1.386 . S
C2866 H2885 0.930 . S
Eu2867 N2864 2.609 . S
Eu2867 N2868 2.657 . S
Eu2867 O2901 2.380 . S
Eu2867 O2902 2.432 . S
Eu2867 O2906 2.558 . S
Eu2867 O2907 2.612 . S
Eu2867 O2909 2.339 . S
Eu2867 O2910 2.563 . S
Eu2867 O2911 2.419 . S
Eu2867 C2931 2.848 . S
N2868 C2860 1.362 . S
N2868 Eu2867 2.657 . S
N2868 C2869 1.334 . S
C2869 N2868 1.334 . S
C2869 C2871 1.413 . S
C2869 H2876 0.929 . S
C2870 C2858 1.392 . S
C2870 C2871 1.367 . S
C2870 H2878 0.930 . S
C2871 C2869 1.413 . S
C2871 C2870 1.367 . S
C2871 H2873 0.930 . S
H2872 C2865 0.930 . S
H2873 C2871 0.930 . S
H2874 C2862 0.930 . S
H2875 C2863 0.930 . S
H2876 C2869 0.929 . S
H2877 C2891 0.930 . S
H2878 C2870 0.930 . S
H2879 C2897 0.930 . S
H2880 C2888 0.929 . S
H2881 C2895 0.930 . S
H2882 C2859 0.931 . S
H2883 C2889 0.930 . S
H2884 C2922 0.930 . S
H2885 C2866 0.930 . S
H2886 C2921 0.931 . S
N2887 Eu2856 2.657 . S
N2887 C2888 1.334 . S
N2887 C2892 1.362 . S
C2888 H2880 0.929 . S
C2888 N2887 1.334 . S
C2888 C2891 1.413 . S
C2889 H2883 0.930 . S
C2889 C2890 1.392 . S
C2889 C2891 1.367 . S
C2890 C2889 1.392 . S
C2890 C2892 1.420 . S
C2890 C2922 1.423 . S
C2891 H2877 0.930 . S
C2891 C2888 1.413 . S
C2891 C2889 1.367 . S
C2892 N2887 1.362 . S
C2892 C2890 1.420 . S
C2892 C2896 1.429 . S
H2893 C2898 0.930 . S
N2894 Eu2856 2.609 . S
N2894 C2896 1.377 . S
N2894 C2897 1.321 . S
C2895 H2881 0.930 . S
C2895 C2897 1.400 . S
C2895 C2898 1.386 . S
C2896 C2892 1.429 . S
C2896 N2894 1.377 . S
C2896 C2899 1.411 . S
C2897 H2879 0.930 . S
C2897 N2894 1.321 . S
C2897 C2895 1.400 . S
C2898 H2893 0.930 . S
C2898 C2895 1.386 . S
C2898 C2899 1.395 . S
C2899 C2896 1.411 . S
C2899 C2898 1.395 . S
C2899 C2921 1.420 . S
O2900 Eu2856 2.558 . S
O2900 C2920 1.257 . S
O2901 Eu2856 2.612 . S
O2901 Eu2867 2.380 . S
O2901 C2912 1.276 . S
O2902 Eu2867 2.432 . S
O2902 C2919 1.264 . S
O2903 Eu2856 2.339 . S
O2903 C2919 1.254 . S
O2904 Eu2856 2.563 . S
O2904 C2912 1.235 . S
O2905 Eu2856 2.419 . S
O2905 C2920 1.249 . S
O2906 Eu2867 2.558 . S
O2906 C2931 1.257 . S
O2907 Eu2856 2.380 . S
O2907 Eu2867 2.612 . S
O2907 C2923 1.276 . S
O2908 Eu2856 2.432 . S
O2908 C2930 1.264 . S
O2909 Eu2867 2.339 . S
O2909 C2930 1.254 . S
O2910 Eu2867 2.563 . S
O2910 C2923 1.235 . S
O2911 Eu2867 2.419 . S
O2911 C2931 1.249 . S
C2912 O2901 1.276 . S
C2912 O2904 1.235 . S
C2913 C2915 1.393 . S
C2913 C2917 1.395 . S
C2913 C2920 1.492 . S
C2914 C2915 1.392 . S
C2914 C2916 1.386 . S
C2915 C2913 1.393 . S
C2915 C2914 1.392 . S
C2915 H2932 0.930 . S
C2916 C2914 1.386 . S
C2916 C2918 1.395 . S
C2916 H2933 0.930 . S
C2917 C2913 1.395 . S
C2917 C2918 1.379 . S
C2917 H2934 0.930 . S
C2918 C2916 1.395 . S
C2918 C2917 1.379 . S
C2918 H2935 0.930 . S
C2919 O2902 1.264 . S
C2919 O2903 1.254 . S
C2920 Eu2856 2.848 . S
C2920 O2900 1.257 . S
C2920 O2905 1.249 . S
C2920 C2913 1.492 . S
C2921 H2886 0.931 . S
C2921 C2899 1.420 . S
C2921 C2922 1.351 . S
C2922 H2884 0.930 . S
C2922 C2890 1.423 . S
C2922 C2921 1.351 . S
C2923 O2907 1.276 . S
C2923 O2910 1.235 . S
C2924 C2925 1.393 . S
C2924 C2928 1.395 . S
C2924 C2931 1.492 . S
C2925 C2924 1.393 . S
C2925 C2926 1.392 . S
C2925 H2936 0.930 . S
C2926 C2925 1.392 . S
C2926 C2927 1.386 . S
C2927 C2926 1.386 . S
C2927 C2929 1.395 . S
C2927 H2937 0.930 . S
C2928 C2924 1.395 . S
C2928 C2929 1.379 . S
C2928 H2938 0.930 . S
C2929 C2927 1.395 . S
C2929 C2928 1.379 . S
C2929 H2939 0.930 . S
C2930 O2908 1.264 . S
C2930 O2909 1.254 . S
C2931 Eu2867 2.848 . S
C2931 O2906 1.257 . S
C2931 O2911 1.249 . S
C2931 C2924 1.492 . S
H2932 C2915 0.930 . S
H2933 C2916 0.930 . S
H2934 C2917 0.930 . S
H2935 C2918 0.930 . S
H2936 C2925 0.930 . S
H2937 C2927 0.930 . S
H2938 C2928 0.930 . S
H2939 C2929 0.930 . S
Eu2940 N2971 2.657 . S
Eu2940 N2978 2.609 . S
Eu2940 O2984 2.558 . S
Eu2940 O2985 2.612 . S
Eu2940 O2987 2.339 . S
Eu2940 O2988 2.563 . S
Eu2940 O2989 2.419 . S
Eu2940 O2991 2.380 . S
Eu2940 O2992 2.432 . S
Eu2940 C3004 2.848 . S
C2941 C2944 1.429 . S
C2941 C2945 1.411 . S
C2941 N2948 1.377 . S
C2942 C2944 1.420 . S
C2942 C2946 1.423 . S
C2942 C2954 1.392 . S
C2943 C2945 1.420 . S
C2943 C2946 1.351 . S
C2943 H2966 0.931 . S
C2944 C2941 1.429 . S
C2944 C2942 1.420 . S
C2944 N2952 1.362 . S
C2945 C2941 1.411 . S
C2945 C2943 1.420 . S
C2945 C2950 1.395 . S
C2946 C2942 1.423 . S
C2946 C2943 1.351 . S
C2946 H2958 0.930 . S
C2947 C2949 1.400 . S
C2947 C2950 1.386 . S
C2947 H2959 0.930 . S
N2948 C2941 1.377 . S
N2948 C2949 1.321 . S
N2948 Eu2951 2.609 . S
C2949 C2947 1.400 . S
C2949 N2948 1.321 . S
C2949 H2956 0.930 . S
C2950 C2945 1.395 . S
C2950 C2947 1.386 . S
C2950 H2969 0.930 . S
Eu2951 N2948 2.609 . S
Eu2951 N2952 2.657 . S
Eu2951 O2985 2.380 . S
Eu2951 O2986 2.432 . S
Eu2951 O2990 2.558 . S
Eu2951 O2991 2.612 . S
Eu2951 O2993 2.339 . S
Eu2951 O2994 2.563 . S
Eu2951 O2995 2.419 . S
Eu2951 C3015 2.848 . S
N2952 C2944 1.362 . S
N2952 Eu2951 2.657 . S
N2952 C2953 1.334 . S
C2953 N2952 1.334 . S
C2953 C2955 1.413 . S
C2953 H2960 0.929 . S
C2954 C2942 1.392 . S
C2954 C2955 1.367 . S
C2954 H2962 0.930 . S
C2955 C2953 1.413 . S
C2955 C2954 1.367 . S
C2955 H2957 0.930 . S
H2956 C2949 0.930 . S
H2957 C2955 0.930 . S
H2958 C2946 0.930 . S
H2959 C2947 0.930 . S
H2960 C2953 0.929 . S
H2961 C2975 0.930 . S
H2962 C2954 0.930 . S
H2963 C2981 0.930 . S
H2964 C2972 0.929 . S
H2965 C2979 0.930 . S
H2966 C2943 0.931 . S
H2967 C2973 0.930 . S
H2968 C3006 0.930 . S
H2969 C2950 0.930 . S
H2970 C3005 0.931 . S
N2971 Eu2940 2.657 . S
N2971 C2972 1.334 . S
N2971 C2976 1.362 . S
C2972 H2964 0.929 . S
C2972 N2971 1.334 . S
C2972 C2975 1.413 . S
C2973 H2967 0.930 . S
C2973 C2974 1.392 . S
C2973 C2975 1.367 . S
C2974 C2973 1.392 . S
C2974 C2976 1.420 . S
C2974 C3006 1.423 . S
C2975 H2961 0.930 . S
C2975 C2972 1.413 . S
C2975 C2973 1.367 . S
C2976 N2971 1.362 . S
C2976 C2974 1.420 . S
C2976 C2980 1.429 . S
H2977 C2982 0.930 . S
N2978 Eu2940 2.609 . S
N2978 C2980 1.377 . S
N2978 C2981 1.321 . S
C2979 H2965 0.930 . S
C2979 C2981 1.400 . S
C2979 C2982 1.386 . S
C2980 C2976 1.429 . S
C2980 N2978 1.377 . S
C2980 C2983 1.411 . S
C2981 H2963 0.930 . S
C2981 N2978 1.321 . S
C2981 C2979 1.400 . S
C2982 H2977 0.930 . S
C2982 C2979 1.386 . S
C2982 C2983 1.395 . S
C2983 C2980 1.411 . S
C2983 C2982 1.395 . S
C2983 C3005 1.420 . S
O2984 Eu2940 2.558 . S
O2984 C3004 1.257 . S
O2985 Eu2940 2.612 . S
O2985 Eu2951 2.380 . S
O2985 C2996 1.276 . S
O2986 Eu2951 2.432 . S
O2986 C3003 1.264 . S
O2987 Eu2940 2.339 . S
O2987 C3003 1.254 . S
O2988 Eu2940 2.563 . S
O2988 C2996 1.235 . S
O2989 Eu2940 2.419 . S
O2989 C3004 1.249 . S
O2990 Eu2951 2.558 . S
O2990 C3015 1.257 . S
O2991 Eu2940 2.380 . S
O2991 Eu2951 2.612 . S
O2991 C3007 1.276 . S
O2992 Eu2940 2.432 . S
O2992 C3014 1.264 . S
O2993 Eu2951 2.339 . S
O2993 C3014 1.254 . S
O2994 Eu2951 2.563 . S
O2994 C3007 1.235 . S
O2995 Eu2951 2.419 . S
O2995 C3015 1.249 . S
C2996 O2985 1.276 . S
C2996 O2988 1.235 . S
C2997 C2999 1.393 . S
C2997 C3001 1.395 . S
C2997 C3004 1.492 . S
C2998 C2999 1.392 . S
C2998 C3000 1.386 . S
C2999 C2997 1.393 . S
C2999 C2998 1.392 . S
C2999 H3016 0.930 . S
C3000 C2998 1.386 . S
C3000 C3002 1.395 . S
C3000 H3017 0.930 . S
C3001 C2997 1.395 . S
C3001 C3002 1.379 . S
C3001 H3018 0.930 . S
C3002 C3000 1.395 . S
C3002 C3001 1.379 . S
C3002 H3019 0.930 . S
C3003 O2986 1.264 . S
C3003 O2987 1.254 . S
C3004 Eu2940 2.848 . S
C3004 O2984 1.257 . S
C3004 O2989 1.249 . S
C3004 C2997 1.492 . S
C3005 H2970 0.931 . S
C3005 C2983 1.420 . S
C3005 C3006 1.351 . S
C3006 H2968 0.930 . S
C3006 C2974 1.423 . S
C3006 C3005 1.351 . S
C3007 O2991 1.276 . S
C3007 O2994 1.235 . S
C3008 C3009 1.393 . S
C3008 C3012 1.395 . S
C3008 C3015 1.492 . S
C3009 C3008 1.393 . S
C3009 C3010 1.392 . S
C3009 H3020 0.930 . S
C3010 C3009 1.392 . S
C3010 C3011 1.386 . S
C3011 C3010 1.386 . S
C3011 C3013 1.395 . S
C3011 H3021 0.930 . S
C3012 C3008 1.395 . S
C3012 C3013 1.379 . S
C3012 H3022 0.930 . S
C3013 C3011 1.395 . S
C3013 C3012 1.379 . S
C3013 H3023 0.930 . S
C3014 O2992 1.264 . S
C3014 O2993 1.254 . S
C3015 Eu2951 2.848 . S
C3015 O2990 1.257 . S
C3015 O2995 1.249 . S
C3015 C3008 1.492 . S
H3016 C2999 0.930 . S
H3017 C3000 0.930 . S
H3018 C3001 0.930 . S
H3019 C3002 0.930 . S
H3020 C3009 0.930 . S
H3021 C3011 0.930 . S
H3022 C3012 0.930 . S
H3023 C3013 0.930 . S
Eu3024 N3055 2.657 . S
Eu3024 N3062 2.609 . S
Eu3024 O3068 2.558 . S
Eu3024 O3069 2.612 . S
Eu3024 O3071 2.339 . S
Eu3024 O3072 2.563 . S
Eu3024 O3073 2.419 . S
Eu3024 O3075 2.380 . S
Eu3024 O3076 2.432 . S
Eu3024 C3088 2.848 . S
C3025 C3028 1.429 . S
C3025 C3029 1.411 . S
C3025 N3032 1.377 . S
C3026 C3028 1.420 . S
C3026 C3030 1.423 . S
C3026 C3038 1.392 . S
C3027 C3029 1.420 . S
C3027 C3030 1.351 . S
C3027 H3050 0.931 . S
C3028 C3025 1.429 . S
C3028 C3026 1.420 . S
C3028 N3036 1.362 . S
C3029 C3025 1.411 . S
C3029 C3027 1.420 . S
C3029 C3034 1.395 . S
C3030 C3026 1.423 . S
C3030 C3027 1.351 . S
C3030 H3042 0.930 . S
C3031 C3033 1.400 . S
C3031 C3034 1.386 . S
C3031 H3043 0.930 . S
N3032 C3025 1.377 . S
N3032 C3033 1.321 . S
N3032 Eu3035 2.609 . S
C3033 C3031 1.400 . S
C3033 N3032 1.321 . S
C3033 H3040 0.930 . S
C3034 C3029 1.395 . S
C3034 C3031 1.386 . S
C3034 H3053 0.930 . S
Eu3035 N3032 2.609 . S
Eu3035 N3036 2.657 . S
Eu3035 O3069 2.380 . S
Eu3035 O3070 2.432 . S
Eu3035 O3074 2.558 . S
Eu3035 O3075 2.612 . S
Eu3035 O3077 2.339 . S
Eu3035 O3078 2.563 . S
Eu3035 O3079 2.419 . S
Eu3035 C3099 2.848 . S
N3036 C3028 1.362 . S
N3036 Eu3035 2.657 . S
N3036 C3037 1.334 . S
C3037 N3036 1.334 . S
C3037 C3039 1.413 . S
C3037 H3044 0.929 . S
C3038 C3026 1.392 . S
C3038 C3039 1.367 . S
C3038 H3046 0.930 . S
C3039 C3037 1.413 . S
C3039 C3038 1.367 . S
C3039 H3041 0.930 . S
H3040 C3033 0.930 . S
H3041 C3039 0.930 . S
H3042 C3030 0.930 . S
H3043 C3031 0.930 . S
H3044 C3037 0.929 . S
H3045 C3059 0.930 . S
H3046 C3038 0.930 . S
H3047 C3065 0.930 . S
H3048 C3056 0.929 . S
H3049 C3063 0.930 . S
H3050 C3027 0.931 . S
H3051 C3057 0.930 . S
H3052 C3090 0.930 . S
H3053 C3034 0.930 . S
H3054 C3089 0.931 . S
N3055 Eu3024 2.657 . S
N3055 C3056 1.334 . S
N3055 C3060 1.362 . S
C3056 H3048 0.929 . S
C3056 N3055 1.334 . S
C3056 C3059 1.413 . S
C3057 H3051 0.930 . S
C3057 C3058 1.392 . S
C3057 C3059 1.367 . S
C3058 C3057 1.392 . S
C3058 C3060 1.420 . S
C3058 C3090 1.423 . S
C3059 H3045 0.930 . S
C3059 C3056 1.413 . S
C3059 C3057 1.367 . S
C3060 N3055 1.362 . S
C3060 C3058 1.420 . S
C3060 C3064 1.429 . S
H3061 C3066 0.930 . S
N3062 Eu3024 2.609 . S
N3062 C3064 1.377 . S
N3062 C3065 1.321 . S
C3063 H3049 0.930 . S
C3063 C3065 1.400 . S
C3063 C3066 1.386 . S
C3064 C3060 1.429 . S
C3064 N3062 1.377 . S
C3064 C3067 1.411 . S
C3065 H3047 0.930 . S
C3065 N3062 1.321 . S
C3065 C3063 1.400 . S
C3066 H3061 0.930 . S
C3066 C3063 1.386 . S
C3066 C3067 1.395 . S
C3067 C3064 1.411 . S
C3067 C3066 1.395 . S
C3067 C3089 1.420 . S
O3068 Eu3024 2.558 . S
O3068 C3088 1.257 . S
O3069 Eu3024 2.612 . S
O3069 Eu3035 2.380 . S
O3069 C3080 1.276 . S
O3070 Eu3035 2.432 . S
O3070 C3087 1.264 . S
O3071 Eu3024 2.339 . S
O3071 C3087 1.254 . S
O3072 Eu3024 2.563 . S
O3072 C3080 1.235 . S
O3073 Eu3024 2.419 . S
O3073 C3088 1.249 . S
O3074 Eu3035 2.558 . S
O3074 C3099 1.257 . S
O3075 Eu3024 2.380 . S
O3075 Eu3035 2.612 . S
O3075 C3091 1.276 . S
O3076 Eu3024 2.432 . S
O3076 C3098 1.264 . S
O3077 Eu3035 2.339 . S
O3077 C3098 1.254 . S
O3078 Eu3035 2.563 . S
O3078 C3091 1.235 . S
O3079 Eu3035 2.419 . S
O3079 C3099 1.249 . S
C3080 O3069 1.276 . S
C3080 O3072 1.235 . S
C3081 C3083 1.393 . S
C3081 C3085 1.395 . S
C3081 C3088 1.492 . S
C3082 C3083 1.392 . S
C3082 C3084 1.386 . S
C3083 C3081 1.393 . S
C3083 C3082 1.392 . S
C3083 H3100 0.930 . S
C3084 C3082 1.386 . S
C3084 C3086 1.395 . S
C3084 H3101 0.930 . S
C3085 C3081 1.395 . S
C3085 C3086 1.379 . S
C3085 H3102 0.930 . S
C3086 C3084 1.395 . S
C3086 C3085 1.379 . S
C3086 H3103 0.930 . S
C3087 O3070 1.264 . S
C3087 O3071 1.254 . S
C3088 Eu3024 2.848 . S
C3088 O3068 1.257 . S
C3088 O3073 1.249 . S
C3088 C3081 1.492 . S
C3089 H3054 0.931 . S
C3089 C3067 1.420 . S
C3089 C3090 1.351 . S
C3090 H3052 0.930 . S
C3090 C3058 1.423 . S
C3090 C3089 1.351 . S
C3091 O3075 1.276 . S
C3091 O3078 1.235 . S
C3092 C3093 1.393 . S
C3092 C3096 1.395 . S
C3092 C3099 1.492 . S
C3093 C3092 1.393 . S
C3093 C3094 1.392 . S
C3093 H3104 0.930 . S
C3094 C3093 1.392 . S
C3094 C3095 1.386 . S
C3095 C3094 1.386 . S
C3095 C3097 1.395 . S
C3095 H3105 0.930 . S
C3096 C3092 1.395 . S
C3096 C3097 1.379 . S
C3096 H3106 0.930 . S
C3097 C3095 1.395 . S
C3097 C3096 1.379 . S
C3097 H3107 0.930 . S
C3098 O3076 1.264 . S
C3098 O3077 1.254 . S
C3099 Eu3035 2.848 . S
C3099 O3074 1.257 . S
C3099 O3079 1.249 . S
C3099 C3092 1.492 . S
H3100 C3083 0.930 . S
H3101 C3084 0.930 . S
H3102 C3085 0.930 . S
H3103 C3086 0.930 . S
H3104 C3093 0.930 . S
H3105 C3095 0.930 . S
H3106 C3096 0.930 . S
H3107 C3097 0.930 . S
Eu3108 N3139 2.657 . S
Eu3108 N3146 2.609 . S
Eu3108 O3152 2.558 . S
Eu3108 O3153 2.612 . S
Eu3108 O3155 2.339 . S
Eu3108 O3156 2.563 . S
Eu3108 O3157 2.419 . S
Eu3108 O3159 2.380 . S
Eu3108 O3160 2.432 . S
Eu3108 C3172 2.848 . S
C3109 C3112 1.429 . S
C3109 C3113 1.411 . S
C3109 N3116 1.377 . S
C3110 C3112 1.420 . S
C3110 C3114 1.423 . S
C3110 C3122 1.392 . S
C3111 C3113 1.420 . S
C3111 C3114 1.351 . S
C3111 H3134 0.931 . S
C3112 C3109 1.429 . S
C3112 C3110 1.420 . S
C3112 N3120 1.362 . S
C3113 C3109 1.411 . S
C3113 C3111 1.420 . S
C3113 C3118 1.395 . S
C3114 C3110 1.423 . S
C3114 C3111 1.351 . S
C3114 H3126 0.930 . S
C3115 C3117 1.400 . S
C3115 C3118 1.386 . S
C3115 H3127 0.930 . S
N3116 C3109 1.377 . S
N3116 C3117 1.321 . S
N3116 Eu3119 2.609 . S
C3117 C3115 1.400 . S
C3117 N3116 1.321 . S
C3117 H3124 0.930 . S
C3118 C3113 1.395 . S
C3118 C3115 1.386 . S
C3118 H3137 0.930 . S
Eu3119 N3116 2.609 . S
Eu3119 N3120 2.657 . S
Eu3119 O3153 2.380 . S
Eu3119 O3154 2.432 . S
Eu3119 O3158 2.558 . S
Eu3119 O3159 2.612 . S
Eu3119 O3161 2.339 . S
Eu3119 O3162 2.563 . S
Eu3119 O3163 2.419 . S
Eu3119 C3183 2.848 . S
N3120 C3112 1.362 . S
N3120 Eu3119 2.657 . S
N3120 C3121 1.334 . S
C3121 N3120 1.334 . S
C3121 C3123 1.413 . S
C3121 H3128 0.929 . S
C3122 C3110 1.392 . S
C3122 C3123 1.367 . S
C3122 H3130 0.930 . S
C3123 C3121 1.413 . S
C3123 C3122 1.367 . S
C3123 H3125 0.930 . S
H3124 C3117 0.930 . S
H3125 C3123 0.930 . S
H3126 C3114 0.930 . S
H3127 C3115 0.930 . S
H3128 C3121 0.929 . S
H3129 C3143 0.930 . S
H3130 C3122 0.930 . S
H3131 C3149 0.930 . S
H3132 C3140 0.929 . S
H3133 C3147 0.930 . S
H3134 C3111 0.931 . S
H3135 C3141 0.930 . S
H3136 C3174 0.930 . S
H3137 C3118 0.930 . S
H3138 C3173 0.931 . S
N3139 Eu3108 2.657 . S
N3139 C3140 1.334 . S
N3139 C3144 1.362 . S
C3140 H3132 0.929 . S
C3140 N3139 1.334 . S
C3140 C3143 1.413 . S
C3141 H3135 0.930 . S
C3141 C3142 1.392 . S
C3141 C3143 1.367 . S
C3142 C3141 1.392 . S
C3142 C3144 1.420 . S
C3142 C3174 1.423 . S
C3143 H3129 0.930 . S
C3143 C3140 1.413 . S
C3143 C3141 1.367 . S
C3144 N3139 1.362 . S
C3144 C3142 1.420 . S
C3144 C3148 1.429 . S
H3145 C3150 0.930 . S
N3146 Eu3108 2.609 . S
N3146 C3148 1.377 . S
N3146 C3149 1.321 . S
C3147 H3133 0.930 . S
C3147 C3149 1.400 . S
C3147 C3150 1.386 . S
C3148 C3144 1.429 . S
C3148 N3146 1.377 . S
C3148 C3151 1.411 . S
C3149 H3131 0.930 . S
C3149 N3146 1.321 . S
C3149 C3147 1.400 . S
C3150 H3145 0.930 . S
C3150 C3147 1.386 . S
C3150 C3151 1.395 . S
C3151 C3148 1.411 . S
C3151 C3150 1.395 . S
C3151 C3173 1.420 . S
O3152 Eu3108 2.558 . S
O3152 C3172 1.257 . S
O3153 Eu3108 2.612 . S
O3153 Eu3119 2.380 . S
O3153 C3164 1.276 . S
O3154 Eu3119 2.432 . S
O3154 C3171 1.264 . S
O3155 Eu3108 2.339 . S
O3155 C3171 1.254 . S
O3156 Eu3108 2.563 . S
O3156 C3164 1.235 . S
O3157 Eu3108 2.419 . S
O3157 C3172 1.249 . S
O3158 Eu3119 2.558 . S
O3158 C3183 1.257 . S
O3159 Eu3108 2.380 . S
O3159 Eu3119 2.612 . S
O3159 C3175 1.276 . S
O3160 Eu3108 2.432 . S
O3160 C3182 1.264 . S
O3161 Eu3119 2.339 . S
O3161 C3182 1.254 . S
O3162 Eu3119 2.563 . S
O3162 C3175 1.235 . S
O3163 Eu3119 2.419 . S
O3163 C3183 1.249 . S
C3164 O3153 1.276 . S
C3164 O3156 1.235 . S
C3165 C3167 1.393 . S
C3165 C3169 1.395 . S
C3165 C3172 1.492 . S
C3166 C3167 1.392 . S
C3166 C3168 1.386 . S
C3167 C3165 1.393 . S
C3167 C3166 1.392 . S
C3167 H3184 0.930 . S
C3168 C3166 1.386 . S
C3168 C3170 1.395 . S
C3168 H3185 0.930 . S
C3169 C3165 1.395 . S
C3169 C3170 1.379 . S
C3169 H3186 0.930 . S
C3170 C3168 1.395 . S
C3170 C3169 1.379 . S
C3170 H3187 0.930 . S
C3171 O3154 1.264 . S
C3171 O3155 1.254 . S
C3172 Eu3108 2.848 . S
C3172 O3152 1.257 . S
C3172 O3157 1.249 . S
C3172 C3165 1.492 . S
C3173 H3138 0.931 . S
C3173 C3151 1.420 . S
C3173 C3174 1.351 . S
C3174 H3136 0.930 . S
C3174 C3142 1.423 . S
C3174 C3173 1.351 . S
C3175 O3159 1.276 . S
C3175 O3162 1.235 . S
C3176 C3177 1.393 . S
C3176 C3180 1.395 . S
C3176 C3183 1.492 . S
C3177 C3176 1.393 . S
C3177 C3178 1.392 . S
C3177 H3188 0.930 . S
C3178 C3177 1.392 . S
C3178 C3179 1.386 . S
C3179 C3178 1.386 . S
C3179 C3181 1.395 . S
C3179 H3189 0.930 . S
C3180 C3176 1.395 . S
C3180 C3181 1.379 . S
C3180 H3190 0.930 . S
C3181 C3179 1.395 . S
C3181 C3180 1.379 . S
C3181 H3191 0.930 . S
C3182 O3160 1.264 . S
C3182 O3161 1.254 . S
C3183 Eu3119 2.848 . S
C3183 O3158 1.257 . S
C3183 O3163 1.249 . S
C3183 C3176 1.492 . S
H3184 C3167 0.930 . S
H3185 C3168 0.930 . S
H3186 C3169 0.930 . S
H3187 C3170 0.930 . S
H3188 C3177 0.930 . S
H3189 C3179 0.930 . S
H3190 C3180 0.930 . S
H3191 C3181 0.930 . S
Eu3192 N3223 2.657 . S
Eu3192 N3230 2.609 . S
Eu3192 O3236 2.558 . S
Eu3192 O3237 2.612 . S
Eu3192 O3239 2.339 . S
Eu3192 O3240 2.563 . S
Eu3192 O3241 2.419 . S
Eu3192 O3243 2.380 . S
Eu3192 O3244 2.432 . S
Eu3192 C3256 2.848 . S
C3193 C3196 1.429 . S
C3193 C3197 1.411 . S
C3193 N3200 1.377 . S
C3194 C3196 1.420 . S
C3194 C3198 1.423 . S
C3194 C3206 1.392 . S
C3195 C3197 1.420 . S
C3195 C3198 1.351 . S
C3195 H3218 0.931 . S
C3196 C3193 1.429 . S
C3196 C3194 1.420 . S
C3196 N3204 1.362 . S
C3197 C3193 1.411 . S
C3197 C3195 1.420 . S
C3197 C3202 1.395 . S
C3198 C3194 1.423 . S
C3198 C3195 1.351 . S
C3198 H3210 0.930 . S
C3199 C3201 1.400 . S
C3199 C3202 1.386 . S
C3199 H3211 0.930 . S
N3200 C3193 1.377 . S
N3200 C3201 1.321 . S
N3200 Eu3203 2.609 . S
C3201 C3199 1.400 . S
C3201 N3200 1.321 . S
C3201 H3208 0.930 . S
C3202 C3197 1.395 . S
C3202 C3199 1.386 . S
C3202 H3221 0.930 . S
Eu3203 N3200 2.609 . S
Eu3203 N3204 2.657 . S
Eu3203 O3237 2.380 . S
Eu3203 O3238 2.432 . S
Eu3203 O3242 2.558 . S
Eu3203 O3243 2.612 . S
Eu3203 O3245 2.339 . S
Eu3203 O3246 2.563 . S
Eu3203 O3247 2.419 . S
Eu3203 C3267 2.848 . S
N3204 C3196 1.362 . S
N3204 Eu3203 2.657 . S
N3204 C3205 1.334 . S
C3205 N3204 1.334 . S
C3205 C3207 1.413 . S
C3205 H3212 0.929 . S
C3206 C3194 1.392 . S
C3206 C3207 1.367 . S
C3206 H3214 0.930 . S
C3207 C3205 1.413 . S
C3207 C3206 1.367 . S
C3207 H3209 0.930 . S
H3208 C3201 0.930 . S
H3209 C3207 0.930 . S
H3210 C3198 0.930 . S
H3211 C3199 0.930 . S
H3212 C3205 0.929 . S
H3213 C3227 0.930 . S
H3214 C3206 0.930 . S
H3215 C3233 0.930 . S
H3216 C3224 0.929 . S
H3217 C3231 0.930 . S
H3218 C3195 0.931 . S
H3219 C3225 0.930 . S
H3220 C3258 0.930 . S
H3221 C3202 0.930 . S
H3222 C3257 0.931 . S
N3223 Eu3192 2.657 . S
N3223 C3224 1.334 . S
N3223 C3228 1.362 . S
C3224 H3216 0.929 . S
C3224 N3223 1.334 . S
C3224 C3227 1.413 . S
C3225 H3219 0.930 . S
C3225 C3226 1.392 . S
C3225 C3227 1.367 . S
C3226 C3225 1.392 . S
C3226 C3228 1.420 . S
C3226 C3258 1.423 . S
C3227 H3213 0.930 . S
C3227 C3224 1.413 . S
C3227 C3225 1.367 . S
C3228 N3223 1.362 . S
C3228 C3226 1.420 . S
C3228 C3232 1.429 . S
H3229 C3234 0.930 . S
N3230 Eu3192 2.609 . S
N3230 C3232 1.377 . S
N3230 C3233 1.321 . S
C3231 H3217 0.930 . S
C3231 C3233 1.400 . S
C3231 C3234 1.386 . S
C3232 C3228 1.429 . S
C3232 N3230 1.377 . S
C3232 C3235 1.411 . S
C3233 H3215 0.930 . S
C3233 N3230 1.321 . S
C3233 C3231 1.400 . S
C3234 H3229 0.930 . S
C3234 C3231 1.386 . S
C3234 C3235 1.395 . S
C3235 C3232 1.411 . S
C3235 C3234 1.395 . S
C3235 C3257 1.420 . S
O3236 Eu3192 2.558 . S
O3236 C3256 1.257 . S
O3237 Eu3192 2.612 . S
O3237 Eu3203 2.380 . S
O3237 C3248 1.276 . S
O3238 Eu3203 2.432 . S
O3238 C3255 1.264 . S
O3239 Eu3192 2.339 . S
O3239 C3255 1.254 . S
O3240 Eu3192 2.563 . S
O3240 C3248 1.235 . S
O3241 Eu3192 2.419 . S
O3241 C3256 1.249 . S
O3242 Eu3203 2.558 . S
O3242 C3267 1.257 . S
O3243 Eu3192 2.380 . S
O3243 Eu3203 2.612 . S
O3243 C3259 1.276 . S
O3244 Eu3192 2.432 . S
O3244 C3266 1.264 . S
O3245 Eu3203 2.339 . S
O3245 C3266 1.254 . S
O3246 Eu3203 2.563 . S
O3246 C3259 1.235 . S
O3247 Eu3203 2.419 . S
O3247 C3267 1.249 . S
C3248 O3237 1.276 . S
C3248 O3240 1.235 . S
C3249 C3251 1.393 . S
C3249 C3253 1.395 . S
C3249 C3256 1.492 . S
C3250 C3251 1.392 . S
C3250 C3252 1.386 . S
C3251 C3249 1.393 . S
C3251 C3250 1.392 . S
C3251 H3268 0.930 . S
C3252 C3250 1.386 . S
C3252 C3254 1.395 . S
C3252 H3269 0.930 . S
C3253 C3249 1.395 . S
C3253 C3254 1.379 . S
C3253 H3270 0.930 . S
C3254 C3252 1.395 . S
C3254 C3253 1.379 . S
C3254 H3271 0.930 . S
C3255 O3238 1.264 . S
C3255 O3239 1.254 . S
C3256 Eu3192 2.848 . S
C3256 O3236 1.257 . S
C3256 O3241 1.249 . S
C3256 C3249 1.492 . S
C3257 H3222 0.931 . S
C3257 C3235 1.420 . S
C3257 C3258 1.351 . S
C3258 H3220 0.930 . S
C3258 C3226 1.423 . S
C3258 C3257 1.351 . S
C3259 O3243 1.276 . S
C3259 O3246 1.235 . S
C3260 C3261 1.393 . S
C3260 C3264 1.395 . S
C3260 C3267 1.492 . S
C3261 C3260 1.393 . S
C3261 C3262 1.392 . S
C3261 H3272 0.930 . S
C3262 C3261 1.392 . S
C3262 C3263 1.386 . S
C3263 C3262 1.386 . S
C3263 C3265 1.395 . S
C3263 H3273 0.930 . S
C3264 C3260 1.395 . S
C3264 C3265 1.379 . S
C3264 H3274 0.930 . S
C3265 C3263 1.395 . S
C3265 C3264 1.379 . S
C3265 H3275 0.930 . S
C3266 O3244 1.264 . S
C3266 O3245 1.254 . S
C3267 Eu3203 2.848 . S
C3267 O3242 1.257 . S
C3267 O3247 1.249 . S
C3267 C3260 1.492 . S
H3268 C3251 0.930 . S
H3269 C3252 0.930 . S
H3270 C3253 0.930 . S
H3271 C3254 0.930 . S
H3272 C3261 0.930 . S
H3273 C3263 0.930 . S
H3274 C3264 0.930 . S
H3275 C3265 0.930 . S
Eu3276 N3307 2.657 . S
Eu3276 N3314 2.609 . S
Eu3276 O3320 2.558 . S
Eu3276 O3321 2.612 . S
Eu3276 O3323 2.339 . S
Eu3276 O3324 2.563 . S
Eu3276 O3325 2.419 . S
Eu3276 O3327 2.380 . S
Eu3276 O3328 2.432 . S
Eu3276 C3340 2.848 . S
C3277 C3280 1.429 . S
C3277 C3281 1.411 . S
C3277 N3284 1.377 . S
C3278 C3280 1.420 . S
C3278 C3282 1.423 . S
C3278 C3290 1.392 . S
C3279 C3281 1.420 . S
C3279 C3282 1.351 . S
C3279 H3302 0.931 . S
C3280 C3277 1.429 . S
C3280 C3278 1.420 . S
C3280 N3288 1.362 . S
C3281 C3277 1.411 . S
C3281 C3279 1.420 . S
C3281 C3286 1.395 . S
C3282 C3278 1.423 . S
C3282 C3279 1.351 . S
C3282 H3294 0.930 . S
C3283 C3285 1.400 . S
C3283 C3286 1.386 . S
C3283 H3295 0.930 . S
N3284 C3277 1.377 . S
N3284 C3285 1.321 . S
N3284 Eu3287 2.609 . S
C3285 C3283 1.400 . S
C3285 N3284 1.321 . S
C3285 H3292 0.930 . S
C3286 C3281 1.395 . S
C3286 C3283 1.386 . S
C3286 H3305 0.930 . S
Eu3287 N3284 2.609 . S
Eu3287 N3288 2.657 . S
Eu3287 O3321 2.380 . S
Eu3287 O3322 2.432 . S
Eu3287 O3326 2.558 . S
Eu3287 O3327 2.612 . S
Eu3287 O3329 2.339 . S
Eu3287 O3330 2.563 . S
Eu3287 O3331 2.419 . S
Eu3287 C3351 2.848 . S
N3288 C3280 1.362 . S
N3288 Eu3287 2.657 . S
N3288 C3289 1.334 . S
C3289 N3288 1.334 . S
C3289 C3291 1.413 . S
C3289 H3296 0.929 . S
C3290 C3278 1.392 . S
C3290 C3291 1.367 . S
C3290 H3298 0.930 . S
C3291 C3289 1.413 . S
C3291 C3290 1.367 . S
C3291 H3293 0.930 . S
H3292 C3285 0.930 . S
H3293 C3291 0.930 . S
H3294 C3282 0.930 . S
H3295 C3283 0.930 . S
H3296 C3289 0.929 . S
H3297 C3311 0.930 . S
H3298 C3290 0.930 . S
H3299 C3317 0.930 . S
H3300 C3308 0.929 . S
H3301 C3315 0.930 . S
H3302 C3279 0.931 . S
H3303 C3309 0.930 . S
H3304 C3342 0.930 . S
H3305 C3286 0.930 . S
H3306 C3341 0.931 . S
N3307 Eu3276 2.657 . S
N3307 C3308 1.334 . S
N3307 C3312 1.362 . S
C3308 H3300 0.929 . S
C3308 N3307 1.334 . S
C3308 C3311 1.413 . S
C3309 H3303 0.930 . S
C3309 C3310 1.392 . S
C3309 C3311 1.367 . S
C3310 C3309 1.392 . S
C3310 C3312 1.420 . S
C3310 C3342 1.423 . S
C3311 H3297 0.930 . S
C3311 C3308 1.413 . S
C3311 C3309 1.367 . S
C3312 N3307 1.362 . S
C3312 C3310 1.420 . S
C3312 C3316 1.429 . S
H3313 C3318 0.930 . S
N3314 Eu3276 2.609 . S
N3314 C3316 1.377 . S
N3314 C3317 1.321 . S
C3315 H3301 0.930 . S
C3315 C3317 1.400 . S
C3315 C3318 1.386 . S
C3316 C3312 1.429 . S
C3316 N3314 1.377 . S
C3316 C3319 1.411 . S
C3317 H3299 0.930 . S
C3317 N3314 1.321 . S
C3317 C3315 1.400 . S
C3318 H3313 0.930 . S
C3318 C3315 1.386 . S
C3318 C3319 1.395 . S
C3319 C3316 1.411 . S
C3319 C3318 1.395 . S
C3319 C3341 1.420 . S
O3320 Eu3276 2.558 . S
O3320 C3340 1.257 . S
O3321 Eu3276 2.612 . S
O3321 Eu3287 2.380 . S
O3321 C3332 1.276 . S
O3322 Eu3287 2.432 . S
O3322 C3339 1.264 . S
O3323 Eu3276 2.339 . S
O3323 C3339 1.254 . S
O3324 Eu3276 2.563 . S
O3324 C3332 1.235 . S
O3325 Eu3276 2.419 . S
O3325 C3340 1.249 . S
O3326 Eu3287 2.558 . S
O3326 C3351 1.257 . S
O3327 Eu3276 2.380 . S
O3327 Eu3287 2.612 . S
O3327 C3343 1.276 . S
O3328 Eu3276 2.432 . S
O3328 C3350 1.264 . S
O3329 Eu3287 2.339 . S
O3329 C3350 1.254 . S
O3330 Eu3287 2.563 . S
O3330 C3343 1.235 . S
O3331 Eu3287 2.419 . S
O3331 C3351 1.249 . S
C3332 O3321 1.276 . S
C3332 O3324 1.235 . S
C3333 C3335 1.393 . S
C3333 C3337 1.395 . S
C3333 C3340 1.492 . S
C3334 C3335 1.392 . S
C3334 C3336 1.386 . S
C3335 C3333 1.393 . S
C3335 C3334 1.392 . S
C3335 H3352 0.930 . S
C3336 C3334 1.386 . S
C3336 C3338 1.395 . S
C3336 H3353 0.930 . S
C3337 C3333 1.395 . S
C3337 C3338 1.379 . S
C3337 H3354 0.930 . S
C3338 C3336 1.395 . S
C3338 C3337 1.379 . S
C3338 H3355 0.930 . S
C3339 O3322 1.264 . S
C3339 O3323 1.254 . S
C3340 Eu3276 2.848 . S
C3340 O3320 1.257 . S
C3340 O3325 1.249 . S
C3340 C3333 1.492 . S
C3341 H3306 0.931 . S
C3341 C3319 1.420 . S
C3341 C3342 1.351 . S
C3342 H3304 0.930 . S
C3342 C3310 1.423 . S
C3342 C3341 1.351 . S
C3343 O3327 1.276 . S
C3343 O3330 1.235 . S
C3344 C3345 1.393 . S
C3344 C3348 1.395 . S
C3344 C3351 1.492 . S
C3345 C3344 1.393 . S
C3345 C3346 1.392 . S
C3345 H3356 0.930 . S
C3346 C3345 1.392 . S
C3346 C3347 1.386 . S
C3347 C3346 1.386 . S
C3347 C3349 1.395 . S
C3347 H3357 0.930 . S
C3348 C3344 1.395 . S
C3348 C3349 1.379 . S
C3348 H3358 0.930 . S
C3349 C3347 1.395 . S
C3349 C3348 1.379 . S
C3349 H3359 0.930 . S
C3350 O3328 1.264 . S
C3350 O3329 1.254 . S
C3351 Eu3287 2.848 . S
C3351 O3326 1.257 . S
C3351 O3331 1.249 . S
C3351 C3344 1.492 . S
H3352 C3335 0.930 . S
H3353 C3336 0.930 . S
H3354 C3337 0.930 . S
H3355 C3338 0.930 . S
H3356 C3345 0.930 . S
H3357 C3347 0.930 . S
H3358 C3348 0.930 . S
H3359 C3349 0.930 . S
Eu3360 N3391 2.657 . S
Eu3360 N3398 2.609 1_455 S
Eu3360 O3404 2.558 1_455 S
Eu3360 O3405 2.612 . S
Eu3360 O3407 2.339 . S
Eu3360 O3408 2.563 1_455 S
Eu3360 O3409 2.419 1_455 S
Eu3360 O3411 2.380 . S
Eu3360 O3412 2.432 . S
Eu3360 C3424 2.848 1_455 S
C3361 C3364 1.429 . S
C3361 C3365 1.411 . S
C3361 N3368 1.377 . S
C3362 C3364 1.420 . S
C3362 C3366 1.423 . S
C3362 C3374 1.392 . S
C3363 C3365 1.420 . S
C3363 C3366 1.351 . S
C3363 H3386 0.931 . S
C3364 C3361 1.429 . S
C3364 C3362 1.420 . S
C3364 N3372 1.362 . S
C3365 C3361 1.411 . S
C3365 C3363 1.420 . S
C3365 C3370 1.395 . S
C3366 C3362 1.423 . S
C3366 C3363 1.351 . S
C3366 H3378 0.930 . S
C3367 C3369 1.400 . S
C3367 C3370 1.386 . S
C3367 H3379 0.930 . S
N3368 C3361 1.377 . S
N3368 C3369 1.321 . S
N3368 Eu3371 2.609 . S
C3369 C3367 1.400 . S
C3369 N3368 1.321 . S
C3369 H3376 0.930 . S
C3370 C3365 1.395 . S
C3370 C3367 1.386 . S
C3370 H3389 0.930 . S
Eu3371 N3368 2.609 . S
Eu3371 N3372 2.657 . S
Eu3371 O3405 2.380 . S
Eu3371 O3406 2.432 . S
Eu3371 O3410 2.558 . S
Eu3371 O3411 2.612 . S
Eu3371 O3413 2.339 . S
Eu3371 O3414 2.563 . S
Eu3371 O3415 2.419 . S
Eu3371 C3435 2.848 . S
N3372 C3364 1.362 . S
N3372 Eu3371 2.657 . S
N3372 C3373 1.334 . S
C3373 N3372 1.334 . S
C3373 C3375 1.413 . S
C3373 H3380 0.929 . S
C3374 C3362 1.392 . S
C3374 C3375 1.367 . S
C3374 H3382 0.930 . S
C3375 C3373 1.413 . S
C3375 C3374 1.367 . S
C3375 H3377 0.930 1_455 S
H3376 C3369 0.930 . S
H3377 C3375 0.930 1_655 S
H3378 C3366 0.930 . S
H3379 C3367 0.930 . S
H3380 C3373 0.929 . S
H3381 C3395 0.930 . S
H3382 C3374 0.930 . S
H3383 C3401 0.930 . S
H3384 C3392 0.929 . S
H3385 C3399 0.930 . S
H3386 C3363 0.931 . S
H3387 C3393 0.930 . S
H3388 C3426 0.930 . S
H3389 C3370 0.930 . S
H3390 C3425 0.931 . S
N3391 Eu3360 2.657 . S
N3391 C3392 1.334 . S
N3391 C3396 1.362 . S
C3392 H3384 0.929 . S
C3392 N3391 1.334 . S
C3392 C3395 1.413 . S
C3393 H3387 0.930 . S
C3393 C3394 1.392 . S
C3393 C3395 1.367 . S
C3394 C3393 1.392 . S
C3394 C3396 1.420 . S
C3394 C3426 1.423 . S
C3395 H3381 0.930 . S
C3395 C3392 1.413 . S
C3395 C3393 1.367 . S
C3396 N3391 1.362 . S
C3396 C3394 1.420 . S
C3396 C3400 1.429 . S
H3397 C3402 0.930 . S
N3398 Eu3360 2.609 1_655 S
N3398 C3400 1.377 1_655 S
N3398 C3401 1.321 . S
C3399 H3385 0.930 . S
C3399 C3401 1.400 . S
C3399 C3402 1.386 . S
C3400 C3396 1.429 . S
C3400 N3398 1.377 1_455 S
C3400 C3403 1.396 1_455 S
C3401 H3383 0.930 . S
C3401 N3398 1.321 . S
C3401 C3399 1.400 . S
C3402 H3397 0.930 . S
C3402 C3399 1.386 . S
C3402 C3403 1.433 . S
C3403 C3400 1.396 1_655 S
C3403 C3402 1.433 . S
C3403 C3425 1.397 1_655 S
O3404 Eu3360 2.558 1_655 S
O3404 C3424 1.257 . S
O3405 Eu3360 2.612 . S
O3405 Eu3371 2.380 . S
O3405 C3416 1.276 . S
O3406 Eu3371 2.432 . S
O3406 C3423 1.264 . S
O3407 Eu3360 2.339 . S
O3407 C3423 1.254 . S
O3408 Eu3360 2.563 1_655 S
O3408 C3416 1.235 1_655 S
O3409 Eu3360 2.419 1_655 S
O3409 C3424 1.249 . S
O3410 Eu3371 2.558 . S
O3410 C3435 1.257 . S
O3411 Eu3360 2.380 . S
O3411 Eu3371 2.612 . S
O3411 C3427 1.276 . S
O3412 Eu3360 2.432 . S
O3412 C3434 1.264 . S
O3413 Eu3371 2.339 . S
O3413 C3434 1.254 . S
O3414 Eu3371 2.563 . S
O3414 C3427 1.235 . S
O3415 Eu3371 2.419 . S
O3415 C3435 1.249 . S
C3416 O3405 1.276 . S
C3416 O3408 1.235 1_455 S
C3417 C3419 1.393 . S
C3417 C3421 1.395 . S
C3417 C3424 1.492 . S
C3418 C3419 1.392 . S
C3418 C3420 1.386 . S
C3419 C3417 1.393 . S
C3419 C3418 1.392 . S
C3419 H3436 0.930 . S
C3420 C3418 1.386 . S
C3420 C3422 1.395 . S
C3420 H3437 0.930 . S
C3421 C3417 1.395 . S
C3421 C3422 1.379 . S
C3421 H3438 0.930 . S
C3422 C3420 1.395 . S
C3422 C3421 1.379 . S
C3422 H3439 0.930 . S
C3423 O3406 1.264 . S
C3423 O3407 1.254 . S
C3424 Eu3360 2.848 1_655 S
C3424 O3404 1.257 . S
C3424 O3409 1.249 . S
C3424 C3417 1.492 . S
C3425 H3390 0.931 . S
C3425 C3403 1.397 1_455 S
C3425 C3426 1.351 . S
C3426 H3388 0.930 . S
C3426 C3394 1.423 . S
C3426 C3425 1.351 . S
C3427 O3411 1.276 . S
C3427 O3414 1.235 . S
C3428 C3429 1.393 . S
C3428 C3432 1.395 . S
C3428 C3435 1.492 . S
C3429 C3428 1.393 . S
C3429 C3430 1.392 . S
C3429 H3440 0.930 . S
C3430 C3429 1.392 . S
C3430 C3431 1.386 . S
C3431 C3430 1.386 . S
C3431 C3433 1.395 . S
C3431 H3441 0.930 . S
C3432 C3428 1.395 . S
C3432 C3433 1.379 . S
C3432 H3442 0.930 . S
C3433 C3431 1.395 . S
C3433 C3432 1.379 . S
C3433 H3443 0.930 . S
C3434 O3412 1.264 . S
C3434 O3413 1.254 . S
C3435 Eu3371 2.848 . S
C3435 O3410 1.257 . S
C3435 O3415 1.249 . S
C3435 C3428 1.492 . S
H3436 C3419 0.930 . S
H3437 C3420 0.930 . S
H3438 C3421 0.930 . S
H3439 C3422 0.930 . S
H3440 C3429 0.930 . S
H3441 C3431 0.930 . S
H3442 C3432 0.930 . S
H3443 C3433 0.930 . S
Eu3444 N3475 2.657 . S
Eu3444 N3482 2.609 . S
Eu3444 O3488 2.558 . S
Eu3444 O3489 2.612 . S
Eu3444 O3491 2.339 . S
Eu3444 O3492 2.563 . S
Eu3444 O3493 2.419 . S
Eu3444 O3495 2.380 . S
Eu3444 O3496 2.432 . S
Eu3444 C3508 2.848 . S
C3445 C3448 1.429 . S
C3445 C3449 1.411 . S
C3445 N3452 1.377 . S
C3446 C3448 1.420 . S
C3446 C3450 1.423 . S
C3446 C3458 1.392 . S
C3447 C3449 1.420 . S
C3447 C3450 1.351 . S
C3447 H3470 0.931 . S
C3448 C3445 1.429 . S
C3448 C3446 1.420 . S
C3448 N3456 1.362 . S
C3449 C3445 1.411 . S
C3449 C3447 1.420 . S
C3449 C3454 1.395 . S
C3450 C3446 1.423 . S
C3450 C3447 1.351 . S
C3450 H3462 0.930 . S
C3451 C3453 1.400 . S
C3451 C3454 1.386 . S
C3451 H3463 0.930 . S
N3452 C3445 1.377 . S
N3452 C3453 1.321 . S
N3452 Eu3455 2.609 . S
C3453 C3451 1.400 . S
C3453 N3452 1.321 . S
C3453 H3460 0.930 . S
C3454 C3449 1.395 . S
C3454 C3451 1.386 . S
C3454 H3473 0.930 . S
Eu3455 N3452 2.609 . S
Eu3455 N3456 2.657 . S
Eu3455 O3489 2.380 . S
Eu3455 O3490 2.432 . S
Eu3455 O3494 2.558 . S
Eu3455 O3495 2.612 . S
Eu3455 O3497 2.339 . S
Eu3455 O3498 2.563 . S
Eu3455 O3499 2.419 . S
Eu3455 C3519 2.848 . S
N3456 C3448 1.362 . S
N3456 Eu3455 2.657 . S
N3456 C3457 1.334 . S
C3457 N3456 1.334 . S
C3457 C3459 1.413 . S
C3457 H3464 0.929 . S
C3458 C3446 1.392 . S
C3458 C3459 1.367 . S
C3458 H3466 0.930 . S
C3459 C3457 1.413 . S
C3459 C3458 1.367 . S
C3459 H3461 0.930 . S
H3460 C3453 0.930 . S
H3461 C3459 0.930 . S
H3462 C3450 0.930 . S
H3463 C3451 0.930 . S
H3464 C3457 0.929 . S
H3465 C3479 0.930 . S
H3466 C3458 0.930 . S
H3467 C3485 0.930 . S
H3468 C3476 0.929 . S
H3469 C3483 0.930 . S
H3470 C3447 0.931 . S
H3471 C3477 0.930 . S
H3472 C3510 0.930 . S
H3473 C3454 0.930 . S
H3474 C3509 0.931 . S
N3475 Eu3444 2.657 . S
N3475 C3476 1.334 . S
N3475 C3480 1.362 . S
C3476 H3468 0.929 . S
C3476 N3475 1.334 . S
C3476 C3479 1.413 . S
C3477 H3471 0.930 . S
C3477 C3478 1.392 . S
C3477 C3479 1.367 . S
C3478 C3477 1.392 . S
C3478 C3480 1.420 . S
C3478 C3510 1.423 . S
C3479 H3465 0.930 . S
C3479 C3476 1.413 . S
C3479 C3477 1.367 . S
C3480 N3475 1.362 . S
C3480 C3478 1.420 . S
C3480 C3484 1.429 . S
H3481 C3486 0.930 . S
N3482 Eu3444 2.609 . S
N3482 C3484 1.377 . S
N3482 C3485 1.321 . S
C3483 H3469 0.930 . S
C3483 C3485 1.400 . S
C3483 C3486 1.386 . S
C3484 C3480 1.429 . S
C3484 N3482 1.377 . S
C3484 C3487 1.411 . S
C3485 H3467 0.930 . S
C3485 N3482 1.321 . S
C3485 C3483 1.400 . S
C3486 H3481 0.930 . S
C3486 C3483 1.386 . S
C3486 C3487 1.395 . S
C3487 C3484 1.411 . S
C3487 C3486 1.395 . S
C3487 C3509 1.420 . S
O3488 Eu3444 2.558 . S
O3488 C3508 1.257 . S
O3489 Eu3444 2.612 . S
O3489 Eu3455 2.380 . S
O3489 C3500 1.276 . S
O3490 Eu3455 2.432 . S
O3490 C3507 1.264 . S
O3491 Eu3444 2.339 . S
O3491 C3507 1.254 . S
O3492 Eu3444 2.563 . S
O3492 C3500 1.235 . S
O3493 Eu3444 2.419 . S
O3493 C3508 1.249 . S
O3494 Eu3455 2.558 . S
O3494 C3519 1.257 . S
O3495 Eu3444 2.380 . S
O3495 Eu3455 2.612 . S
O3495 C3511 1.276 . S
O3496 Eu3444 2.432 . S
O3496 C3518 1.264 . S
O3497 Eu3455 2.339 . S
O3497 C3518 1.254 . S
O3498 Eu3455 2.563 . S
O3498 C3511 1.235 . S
O3499 Eu3455 2.419 . S
O3499 C3519 1.249 . S
C3500 O3489 1.276 . S
C3500 O3492 1.235 . S
C3501 C3503 1.393 . S
C3501 C3505 1.395 . S
C3501 C3508 1.492 . S
C3502 C3503 1.392 . S
C3502 C3504 1.386 . S
C3503 C3501 1.393 . S
C3503 C3502 1.392 . S
C3503 H3520 0.930 . S
C3504 C3502 1.386 . S
C3504 C3506 1.395 . S
C3504 H3521 0.930 . S
C3505 C3501 1.395 . S
C3505 C3506 1.379 . S
C3505 H3522 0.930 . S
C3506 C3504 1.395 . S
C3506 C3505 1.379 . S
C3506 H3523 0.930 . S
C3507 O3490 1.264 . S
C3507 O3491 1.254 . S
C3508 Eu3444 2.848 . S
C3508 O3488 1.257 . S
C3508 O3493 1.249 . S
C3508 C3501 1.492 . S
C3509 H3474 0.931 . S
C3509 C3487 1.420 . S
C3509 C3510 1.351 . S
C3510 H3472 0.930 . S
C3510 C3478 1.423 . S
C3510 C3509 1.351 . S
C3511 O3495 1.276 . S
C3511 O3498 1.235 . S
C3512 C3513 1.393 . S
C3512 C3516 1.395 . S
C3512 C3519 1.492 . S
C3513 C3512 1.393 . S
C3513 C3514 1.392 . S
C3513 H3524 0.930 . S
C3514 C3513 1.392 . S
C3514 C3515 1.386 . S
C3515 C3514 1.386 . S
C3515 C3517 1.395 . S
C3515 H3525 0.930 . S
C3516 C3512 1.395 . S
C3516 C3517 1.379 . S
C3516 H3526 0.930 . S
C3517 C3515 1.395 . S
C3517 C3516 1.379 . S
C3517 H3527 0.930 . S
C3518 O3496 1.264 . S
C3518 O3497 1.254 . S
C3519 Eu3455 2.848 . S
C3519 O3494 1.257 . S
C3519 O3499 1.249 . S
C3519 C3512 1.492 . S
H3520 C3503 0.930 . S
H3521 C3504 0.930 . S
H3522 C3505 0.930 . S
H3523 C3506 0.930 . S
H3524 C3513 0.930 . S
H3525 C3515 0.930 . S
H3526 C3516 0.930 . S
H3527 C3517 0.930 . S
Eu3528 N3559 2.657 . S
Eu3528 N3566 2.609 1_554 S
Eu3528 O3572 2.558 1_554 S
Eu3528 O3573 2.612 . S
Eu3528 O3575 2.339 . S
Eu3528 O3576 2.563 1_554 S
Eu3528 O3577 2.419 1_554 S
Eu3528 O3579 2.380 . S
Eu3528 O3580 2.432 . S
Eu3528 C3592 2.848 1_554 S
C3529 C3532 1.429 . S
C3529 C3533 1.411 . S
C3529 N3536 1.377 . S
C3530 C3532 1.420 . S
C3530 C3534 1.423 . S
C3530 C3542 1.392 . S
C3531 C3533 1.420 . S
C3531 C3534 1.351 . S
C3531 H3554 0.931 . S
C3532 C3529 1.429 . S
C3532 C3530 1.420 . S
C3532 N3540 1.362 . S
C3533 C3529 1.411 . S
C3533 C3531 1.420 . S
C3533 C3538 1.395 . S
C3534 C3530 1.423 . S
C3534 C3531 1.351 . S
C3534 H3546 0.930 . S
C3535 C3537 1.400 . S
C3535 C3538 1.386 . S
C3535 H3547 0.930 . S
N3536 C3529 1.377 . S
N3536 C3537 1.321 . S
N3536 Eu3539 2.609 . S
C3537 C3535 1.400 . S
C3537 N3536 1.321 . S
C3537 H3544 0.930 . S
C3538 C3533 1.395 . S
C3538 C3535 1.386 . S
C3538 H3557 0.930 . S
Eu3539 N3536 2.609 . S
Eu3539 N3540 2.657 . S
Eu3539 O3573 2.380 . S
Eu3539 O3574 2.432 . S
Eu3539 O3578 2.558 . S
Eu3539 O3579 2.612 . S
Eu3539 O3581 2.339 . S
Eu3539 O3582 2.563 . S
Eu3539 O3583 2.419 . S
Eu3539 C3603 2.848 . S
N3540 C3532 1.362 . S
N3540 Eu3539 2.657 . S
N3540 C3541 1.334 . S
C3541 N3540 1.334 . S
C3541 C3543 1.413 . S
C3541 H3548 0.929 . S
C3542 C3530 1.392 . S
C3542 C3543 1.367 . S
C3542 H3550 0.930 . S
C3543 C3541 1.413 . S
C3543 C3542 1.367 . S
C3543 H3545 0.930 1_554 S
H3544 C3537 0.930 . S
H3545 C3543 0.930 1_556 S
H3546 C3534 0.930 . S
H3547 C3535 0.930 . S
H3548 C3541 0.929 . S
H3549 C3563 0.930 . S
H3550 C3542 0.930 . S
H3551 C3569 0.930 . S
H3552 C3560 0.929 . S
H3553 C3567 0.930 . S
H3554 C3531 0.931 . S
H3555 C3561 0.930 . S
H3556 C3594 0.930 . S
H3557 C3538 0.930 . S
H3558 C3593 0.931 . S
N3559 Eu3528 2.657 . S
N3559 C3560 1.334 . S
N3559 C3564 1.362 . S
C3560 H3552 0.929 . S
C3560 N3559 1.334 . S
C3560 C3563 1.413 . S
C3561 H3555 0.930 . S
C3561 C3562 1.392 . S
C3561 C3563 1.367 . S
C3562 C3561 1.392 . S
C3562 C3564 1.420 . S
C3562 C3594 1.423 . S
C3563 H3549 0.930 . S
C3563 C3560 1.413 . S
C3563 C3561 1.367 . S
C3564 N3559 1.362 . S
C3564 C3562 1.420 . S
C3564 C3568 1.429 . S
H3565 C3570 0.930 . S
N3566 Eu3528 2.609 1_556 S
N3566 C3568 1.377 1_556 S
N3566 C3569 1.321 . S
C3567 H3553 0.930 . S
C3567 C3569 1.400 . S
C3567 C3570 1.386 . S
C3568 C3564 1.429 . S
C3568 N3566 1.377 1_554 S
C3568 C3571 1.412 1_554 S
C3569 H3551 0.930 . S
C3569 N3566 1.321 . S
C3569 C3567 1.400 . S
C3570 H3565 0.930 . S
C3570 C3567 1.386 . S
C3570 C3571 1.392 . S
C3571 C3568 1.412 1_556 S
C3571 C3570 1.392 . S
C3571 C3593 1.422 1_556 S
O3572 Eu3528 2.558 1_556 S
O3572 C3592 1.257 . S
O3573 Eu3528 2.612 . S
O3573 Eu3539 2.380 . S
O3573 C3584 1.276 . S
O3574 Eu3539 2.432 . S
O3574 C3591 1.264 . S
O3575 Eu3528 2.339 . S
O3575 C3591 1.254 . S
O3576 Eu3528 2.563 1_556 S
O3576 C3584 1.235 1_556 S
O3577 Eu3528 2.419 1_556 S
O3577 C3592 1.249 . S
O3578 Eu3539 2.558 . S
O3578 C3603 1.257 . S
O3579 Eu3528 2.380 . S
O3579 Eu3539 2.612 . S
O3579 C3595 1.276 . S
O3580 Eu3528 2.432 . S
O3580 C3602 1.264 . S
O3581 Eu3539 2.339 . S
O3581 C3602 1.254 . S
O3582 Eu3539 2.563 . S
O3582 C3595 1.235 . S
O3583 Eu3539 2.419 . S
O3583 C3603 1.249 . S
C3584 O3573 1.276 . S
C3584 O3576 1.235 1_554 S
C3585 C3587 1.393 . S
C3585 C3589 1.395 . S
C3585 C3592 1.492 . S
C3586 C3587 1.392 . S
C3586 C3588 1.386 . S
C3587 C3585 1.393 . S
C3587 C3586 1.392 . S
C3587 H3604 0.930 . S
C3588 C3586 1.386 . S
C3588 C3590 1.395 . S
C3588 H3605 0.930 . S
C3589 C3585 1.395 . S
C3589 C3590 1.379 . S
C3589 H3606 0.930 . S
C3590 C3588 1.395 . S
C3590 C3589 1.379 . S
C3590 H3607 0.930 . S
C3591 O3574 1.264 . S
C3591 O3575 1.254 . S
C3592 Eu3528 2.848 1_556 S
C3592 O3572 1.257 . S
C3592 O3577 1.249 . S
C3592 C3585 1.492 . S
C3593 H3558 0.931 . S
C3593 C3571 1.422 1_554 S
C3593 C3594 1.351 . S
C3594 H3556 0.930 . S
C3594 C3562 1.423 . S
C3594 C3593 1.351 . S
C3595 O3579 1.276 . S
C3595 O3582 1.235 . S
C3596 C3597 1.393 . S
C3596 C3600 1.395 . S
C3596 C3603 1.492 . S
C3597 C3596 1.393 . S
C3597 C3598 1.392 . S
C3597 H3608 0.930 . S
C3598 C3597 1.392 . S
C3598 C3599 1.386 . S
C3599 C3598 1.386 . S
C3599 C3601 1.395 . S
C3599 H3609 0.930 . S
C3600 C3596 1.395 . S
C3600 C3601 1.379 . S
C3600 H3610 0.930 . S
C3601 C3599 1.395 . S
C3601 C3600 1.379 . S
C3601 H3611 0.930 . S
C3602 O3580 1.264 . S
C3602 O3581 1.254 . S
C3603 Eu3539 2.848 . S
C3603 O3578 1.257 . S
C3603 O3583 1.249 . S
C3603 C3596 1.492 . S
H3604 C3587 0.930 . S
H3605 C3588 0.930 . S
H3606 C3589 0.930 . S
H3607 C3590 0.930 . S
H3608 C3597 0.930 . S
H3609 C3599 0.930 . S
H3610 C3600 0.930 . S
H3611 C3601 0.930 . S
Eu3612 N3643 2.657 . S
Eu3612 N3650 2.609 . S
Eu3612 O3656 2.558 . S
Eu3612 O3657 2.612 . S
Eu3612 O3659 2.339 . S
Eu3612 O3660 2.563 . S
Eu3612 O3661 2.419 . S
Eu3612 O3663 2.380 . S
Eu3612 O3664 2.432 . S
Eu3612 C3676 2.848 . S
C3613 C3616 1.429 . S
C3613 C3617 1.411 . S
C3613 N3620 1.377 . S
C3614 C3616 1.420 . S
C3614 C3618 1.423 . S
C3614 C3626 1.392 . S
C3615 C3617 1.420 . S
C3615 C3618 1.351 . S
C3615 H3638 0.931 . S
C3616 C3613 1.429 . S
C3616 C3614 1.420 . S
C3616 N3624 1.362 . S
C3617 C3613 1.411 . S
C3617 C3615 1.420 . S
C3617 C3622 1.395 . S
C3618 C3614 1.423 . S
C3618 C3615 1.351 . S
C3618 H3630 0.930 . S
C3619 C3621 1.400 . S
C3619 C3622 1.386 . S
C3619 H3631 0.930 . S
N3620 C3613 1.377 . S
N3620 C3621 1.321 . S
N3620 Eu3623 2.609 . S
C3621 C3619 1.400 . S
C3621 N3620 1.321 . S
C3621 H3628 0.930 . S
C3622 C3617 1.395 . S
C3622 C3619 1.386 . S
C3622 H3641 0.930 . S
Eu3623 N3620 2.609 . S
Eu3623 N3624 2.657 . S
Eu3623 O3657 2.380 . S
Eu3623 O3658 2.432 . S
Eu3623 O3662 2.558 . S
Eu3623 O3663 2.612 . S
Eu3623 O3665 2.339 . S
Eu3623 O3666 2.563 . S
Eu3623 O3667 2.419 . S
Eu3623 C3687 2.848 . S
N3624 C3616 1.362 . S
N3624 Eu3623 2.657 . S
N3624 C3625 1.334 . S
C3625 N3624 1.334 . S
C3625 C3627 1.413 . S
C3625 H3632 0.929 . S
C3626 C3614 1.392 . S
C3626 C3627 1.367 . S
C3626 H3634 0.930 . S
C3627 C3625 1.413 . S
C3627 C3626 1.367 . S
C3627 H3629 0.930 . S
H3628 C3621 0.930 . S
H3629 C3627 0.930 . S
H3630 C3618 0.930 . S
H3631 C3619 0.930 . S
H3632 C3625 0.929 . S
H3633 C3647 0.930 . S
H3634 C3626 0.930 . S
H3635 C3653 0.930 . S
H3636 C3644 0.929 . S
H3637 C3651 0.930 . S
H3638 C3615 0.931 . S
H3639 C3645 0.930 . S
H3640 C3678 0.930 . S
H3641 C3622 0.930 . S
H3642 C3677 0.931 . S
N3643 Eu3612 2.657 . S
N3643 C3644 1.334 . S
N3643 C3648 1.362 . S
C3644 H3636 0.929 . S
C3644 N3643 1.334 . S
C3644 C3647 1.413 . S
C3645 H3639 0.930 . S
C3645 C3646 1.392 . S
C3645 C3647 1.367 . S
C3646 C3645 1.392 . S
C3646 C3648 1.420 . S
C3646 C3678 1.423 . S
C3647 H3633 0.930 . S
C3647 C3644 1.413 . S
C3647 C3645 1.367 . S
C3648 N3643 1.362 . S
C3648 C3646 1.420 . S
C3648 C3652 1.429 . S
H3649 C3654 0.930 . S
N3650 Eu3612 2.609 . S
N3650 C3652 1.377 . S
N3650 C3653 1.321 . S
C3651 H3637 0.930 . S
C3651 C3653 1.400 . S
C3651 C3654 1.386 . S
C3652 C3648 1.429 . S
C3652 N3650 1.377 . S
C3652 C3655 1.411 . S
C3653 H3635 0.930 . S
C3653 N3650 1.321 . S
C3653 C3651 1.400 . S
C3654 H3649 0.930 . S
C3654 C3651 1.386 . S
C3654 C3655 1.395 . S
C3655 C3652 1.411 . S
C3655 C3654 1.395 . S
C3655 C3677 1.420 . S
O3656 Eu3612 2.558 . S
O3656 C3676 1.257 . S
O3657 Eu3612 2.612 . S
O3657 Eu3623 2.380 . S
O3657 C3668 1.276 . S
O3658 Eu3623 2.432 . S
O3658 C3675 1.264 . S
O3659 Eu3612 2.339 . S
O3659 C3675 1.254 . S
O3660 Eu3612 2.563 . S
O3660 C3668 1.235 . S
O3661 Eu3612 2.419 . S
O3661 C3676 1.249 . S
O3662 Eu3623 2.558 . S
O3662 C3687 1.257 . S
O3663 Eu3612 2.380 . S
O3663 Eu3623 2.612 . S
O3663 C3679 1.276 . S
O3664 Eu3612 2.432 . S
O3664 C3686 1.264 . S
O3665 Eu3623 2.339 . S
O3665 C3686 1.254 . S
O3666 Eu3623 2.563 . S
O3666 C3679 1.235 . S
O3667 Eu3623 2.419 . S
O3667 C3687 1.249 . S
C3668 O3657 1.276 . S
C3668 O3660 1.235 . S
C3669 C3671 1.393 . S
C3669 C3673 1.395 . S
C3669 C3676 1.492 . S
C3670 C3671 1.392 . S
C3670 C3672 1.386 . S
C3671 C3669 1.393 . S
C3671 C3670 1.392 . S
C3671 H3688 0.930 . S
C3672 C3670 1.386 . S
C3672 C3674 1.395 . S
C3672 H3689 0.930 . S
C3673 C3669 1.395 . S
C3673 C3674 1.379 . S
C3673 H3690 0.930 . S
C3674 C3672 1.395 . S
C3674 C3673 1.379 . S
C3674 H3691 0.930 . S
C3675 O3658 1.264 . S
C3675 O3659 1.254 . S
C3676 Eu3612 2.848 . S
C3676 O3656 1.257 . S
C3676 O3661 1.249 . S
C3676 C3669 1.492 . S
C3677 H3642 0.931 . S
C3677 C3655 1.420 . S
C3677 C3678 1.351 . S
C3678 H3640 0.930 . S
C3678 C3646 1.423 . S
C3678 C3677 1.351 . S
C3679 O3663 1.276 . S
C3679 O3666 1.235 . S
C3680 C3681 1.393 . S
C3680 C3684 1.395 . S
C3680 C3687 1.492 . S
C3681 C3680 1.393 . S
C3681 C3682 1.392 . S
C3681 H3692 0.930 . S
C3682 C3681 1.392 . S
C3682 C3683 1.386 . S
C3683 C3682 1.386 . S
C3683 C3685 1.395 . S
C3683 H3693 0.930 . S
C3684 C3680 1.395 . S
C3684 C3685 1.379 . S
C3684 H3694 0.930 . S
C3685 C3683 1.395 . S
C3685 C3684 1.379 . S
C3685 H3695 0.930 . S
C3686 O3664 1.264 . S
C3686 O3665 1.254 . S
C3687 Eu3623 2.848 . S
C3687 O3662 1.257 . S
C3687 O3667 1.249 . S
C3687 C3680 1.492 . S
H3688 C3671 0.930 . S
H3689 C3672 0.930 . S
H3690 C3673 0.930 . S
H3691 C3674 0.930 . S
H3692 C3681 0.930 . S
H3693 C3683 0.930 . S
H3694 C3684 0.930 . S
H3695 C3685 0.930 . S
Eu3696 N3727 2.657 . S
Eu3696 N3734 2.609 . S
Eu3696 O3740 2.558 . S
Eu3696 O3741 2.612 . S
Eu3696 O3743 2.339 . S
Eu3696 O3744 2.563 . S
Eu3696 O3745 2.419 . S
Eu3696 O3747 2.380 . S
Eu3696 O3748 2.432 . S
Eu3696 C3760 2.848 . S
C3697 C3700 1.429 . S
C3697 C3701 1.411 . S
C3697 N3704 1.377 . S
C3698 C3700 1.420 . S
C3698 C3702 1.423 . S
C3698 C3710 1.392 . S
C3699 C3701 1.420 . S
C3699 C3702 1.351 . S
C3699 H3722 0.931 . S
C3700 C3697 1.429 . S
C3700 C3698 1.420 . S
C3700 N3708 1.362 . S
C3701 C3697 1.411 . S
C3701 C3699 1.420 . S
C3701 C3706 1.395 . S
C3702 C3698 1.423 . S
C3702 C3699 1.351 . S
C3702 H3714 0.930 . S
C3703 C3705 1.400 . S
C3703 C3706 1.386 . S
C3703 H3715 0.930 . S
N3704 C3697 1.377 . S
N3704 C3705 1.321 . S
N3704 Eu3707 2.609 . S
C3705 C3703 1.400 . S
C3705 N3704 1.321 . S
C3705 H3712 0.930 . S
C3706 C3701 1.395 . S
C3706 C3703 1.386 . S
C3706 H3725 0.930 . S
Eu3707 N3704 2.609 . S
Eu3707 N3708 2.657 . S
Eu3707 O3741 2.380 . S
Eu3707 O3742 2.432 . S
Eu3707 O3746 2.558 . S
Eu3707 O3747 2.612 . S
Eu3707 O3749 2.339 . S
Eu3707 O3750 2.563 . S
Eu3707 O3751 2.419 . S
Eu3707 C3771 2.848 . S
N3708 C3700 1.362 . S
N3708 Eu3707 2.657 . S
N3708 C3709 1.334 . S
C3709 N3708 1.334 . S
C3709 C3711 1.413 . S
C3709 H3716 0.929 . S
C3710 C3698 1.392 . S
C3710 C3711 1.367 . S
C3710 H3718 0.930 . S
C3711 C3709 1.413 . S
C3711 C3710 1.367 . S
C3711 H3713 0.930 . S
H3712 C3705 0.930 . S
H3713 C3711 0.930 . S
H3714 C3702 0.930 . S
H3715 C3703 0.930 . S
H3716 C3709 0.929 . S
H3717 C3731 0.930 . S
H3718 C3710 0.930 . S
H3719 C3737 0.930 . S
H3720 C3728 0.929 . S
H3721 C3735 0.930 . S
H3722 C3699 0.931 . S
H3723 C3729 0.930 . S
H3724 C3762 0.930 . S
H3725 C3706 0.930 . S
H3726 C3761 0.931 . S
N3727 Eu3696 2.657 . S
N3727 C3728 1.334 . S
N3727 C3732 1.362 . S
C3728 H3720 0.929 . S
C3728 N3727 1.334 . S
C3728 C3731 1.413 . S
C3729 H3723 0.930 . S
C3729 C3730 1.392 . S
C3729 C3731 1.367 . S
C3730 C3729 1.392 . S
C3730 C3732 1.420 . S
C3730 C3762 1.423 . S
C3731 H3717 0.930 . S
C3731 C3728 1.413 . S
C3731 C3729 1.367 . S
C3732 N3727 1.362 . S
C3732 C3730 1.420 . S
C3732 C3736 1.429 . S
H3733 C3738 0.930 . S
N3734 Eu3696 2.609 . S
N3734 C3736 1.377 . S
N3734 C3737 1.321 . S
C3735 H3721 0.930 . S
C3735 C3737 1.400 . S
C3735 C3738 1.386 . S
C3736 C3732 1.429 . S
C3736 N3734 1.377 . S
C3736 C3739 1.411 . S
C3737 H3719 0.930 . S
C3737 N3734 1.321 . S
C3737 C3735 1.400 . S
C3738 H3733 0.930 . S
C3738 C3735 1.386 . S
C3738 C3739 1.395 . S
C3739 C3736 1.411 . S
C3739 C3738 1.395 . S
C3739 C3761 1.420 . S
O3740 Eu3696 2.558 . S
O3740 C3760 1.257 . S
O3741 Eu3696 2.612 . S
O3741 Eu3707 2.380 . S
O3741 C3752 1.276 . S
O3742 Eu3707 2.432 . S
O3742 C3759 1.264 . S
O3743 Eu3696 2.339 . S
O3743 C3759 1.254 . S
O3744 Eu3696 2.563 . S
O3744 C3752 1.235 . S
O3745 Eu3696 2.419 . S
O3745 C3760 1.249 . S
O3746 Eu3707 2.558 . S
O3746 C3771 1.257 . S
O3747 Eu3696 2.380 . S
O3747 Eu3707 2.612 . S
O3747 C3763 1.276 . S
O3748 Eu3696 2.432 . S
O3748 C3770 1.264 . S
O3749 Eu3707 2.339 . S
O3749 C3770 1.254 . S
O3750 Eu3707 2.563 . S
O3750 C3763 1.235 . S
O3751 Eu3707 2.419 . S
O3751 C3771 1.249 . S
C3752 O3741 1.276 . S
C3752 O3744 1.235 . S
C3753 C3755 1.393 . S
C3753 C3757 1.395 . S
C3753 C3760 1.492 . S
C3754 C3755 1.392 . S
C3754 C3756 1.386 . S
C3755 C3753 1.393 . S
C3755 C3754 1.392 . S
C3755 H3772 0.930 . S
C3756 C3754 1.386 . S
C3756 C3758 1.395 . S
C3756 H3773 0.930 . S
C3757 C3753 1.395 . S
C3757 C3758 1.379 . S
C3757 H3774 0.930 . S
C3758 C3756 1.395 . S
C3758 C3757 1.379 . S
C3758 H3775 0.930 . S
C3759 O3742 1.264 . S
C3759 O3743 1.254 . S
C3760 Eu3696 2.848 . S
C3760 O3740 1.257 . S
C3760 O3745 1.249 . S
C3760 C3753 1.492 . S
C3761 H3726 0.931 . S
C3761 C3739 1.420 . S
C3761 C3762 1.351 . S
C3762 H3724 0.930 . S
C3762 C3730 1.423 . S
C3762 C3761 1.351 . S
C3763 O3747 1.276 . S
C3763 O3750 1.235 . S
C3764 C3765 1.393 . S
C3764 C3768 1.395 . S
C3764 C3771 1.492 . S
C3765 C3764 1.393 . S
C3765 C3766 1.392 . S
C3765 H3776 0.930 . S
C3766 C3765 1.392 . S
C3766 C3767 1.386 . S
C3767 C3766 1.386 . S
C3767 C3769 1.395 . S
C3767 H3777 0.930 . S
C3768 C3764 1.395 . S
C3768 C3769 1.379 . S
C3768 H3778 0.930 . S
C3769 C3767 1.395 . S
C3769 C3768 1.379 . S
C3769 H3779 0.930 . S
C3770 O3748 1.264 . S
C3770 O3749 1.254 . S
C3771 Eu3707 2.848 . S
C3771 O3746 1.257 . S
C3771 O3751 1.249 . S
C3771 C3764 1.492 . S
H3772 C3755 0.930 . S
H3773 C3756 0.930 . S
H3774 C3757 0.930 . S
H3775 C3758 0.930 . S
H3776 C3765 0.930 . S
H3777 C3767 0.930 . S
H3778 C3768 0.930 . S
H3779 C3769 0.930 . S
Eu3780 N3811 2.657 . S
Eu3780 N3818 2.609 . S
Eu3780 O3824 2.558 . S
Eu3780 O3825 2.612 . S
Eu3780 O3827 2.339 . S
Eu3780 O3828 2.563 . S
Eu3780 O3829 2.419 . S
Eu3780 O3831 2.380 . S
Eu3780 O3832 2.432 . S
Eu3780 C3844 2.848 . S
C3781 C3784 1.429 . S
C3781 C3785 1.411 . S
C3781 N3788 1.377 . S
C3782 C3784 1.420 . S
C3782 C3786 1.423 . S
C3782 C3794 1.392 . S
C3783 C3785 1.420 . S
C3783 C3786 1.351 . S
C3783 H3806 0.931 . S
C3784 C3781 1.429 . S
C3784 C3782 1.420 . S
C3784 N3792 1.362 . S
C3785 C3781 1.411 . S
C3785 C3783 1.420 . S
C3785 C3790 1.395 . S
C3786 C3782 1.423 . S
C3786 C3783 1.351 . S
C3786 H3798 0.930 . S
C3787 C3789 1.400 . S
C3787 C3790 1.386 . S
C3787 H3799 0.930 . S
N3788 C3781 1.377 . S
N3788 C3789 1.321 . S
N3788 Eu3791 2.609 . S
C3789 C3787 1.400 . S
C3789 N3788 1.321 . S
C3789 H3796 0.930 . S
C3790 C3785 1.395 . S
C3790 C3787 1.386 . S
C3790 H3809 0.930 . S
Eu3791 N3788 2.609 . S
Eu3791 N3792 2.657 . S
Eu3791 O3825 2.380 . S
Eu3791 O3826 2.432 . S
Eu3791 O3830 2.558 . S
Eu3791 O3831 2.612 . S
Eu3791 O3833 2.339 . S
Eu3791 O3834 2.563 . S
Eu3791 O3835 2.419 . S
Eu3791 C3855 2.848 . S
N3792 C3784 1.362 . S
N3792 Eu3791 2.657 . S
N3792 C3793 1.334 . S
C3793 N3792 1.334 . S
C3793 C3795 1.413 . S
C3793 H3800 0.929 . S
C3794 C3782 1.392 . S
C3794 C3795 1.367 . S
C3794 H3802 0.930 . S
C3795 C3793 1.413 . S
C3795 C3794 1.367 . S
C3795 H3797 0.930 . S
H3796 C3789 0.930 . S
H3797 C3795 0.930 . S
H3798 C3786 0.930 . S
H3799 C3787 0.930 . S
H3800 C3793 0.929 . S
H3801 C3815 0.930 . S
H3802 C3794 0.930 . S
H3803 C3821 0.930 . S
H3804 C3812 0.929 . S
H3805 C3819 0.930 . S
H3806 C3783 0.931 . S
H3807 C3813 0.930 . S
H3808 C3846 0.930 . S
H3809 C3790 0.930 . S
H3810 C3845 0.931 . S
N3811 Eu3780 2.657 . S
N3811 C3812 1.334 . S
N3811 C3816 1.362 . S
C3812 H3804 0.929 . S
C3812 N3811 1.334 . S
C3812 C3815 1.413 . S
C3813 H3807 0.930 . S
C3813 C3814 1.392 . S
C3813 C3815 1.367 . S
C3814 C3813 1.392 . S
C3814 C3816 1.420 . S
C3814 C3846 1.423 . S
C3815 H3801 0.930 . S
C3815 C3812 1.413 . S
C3815 C3813 1.367 . S
C3816 N3811 1.362 . S
C3816 C3814 1.420 . S
C3816 C3820 1.429 . S
H3817 C3822 0.930 . S
N3818 Eu3780 2.609 . S
N3818 C3820 1.377 . S
N3818 C3821 1.321 . S
C3819 H3805 0.930 . S
C3819 C3821 1.400 . S
C3819 C3822 1.386 . S
C3820 C3816 1.429 . S
C3820 N3818 1.377 . S
C3820 C3823 1.411 . S
C3821 H3803 0.930 . S
C3821 N3818 1.321 . S
C3821 C3819 1.400 . S
C3822 H3817 0.930 . S
C3822 C3819 1.386 . S
C3822 C3823 1.395 . S
C3823 C3820 1.411 . S
C3823 C3822 1.395 . S
C3823 C3845 1.420 . S
O3824 Eu3780 2.558 . S
O3824 C3844 1.257 . S
O3825 Eu3780 2.612 . S
O3825 Eu3791 2.380 . S
O3825 C3836 1.276 . S
O3826 Eu3791 2.432 . S
O3826 C3843 1.264 . S
O3827 Eu3780 2.339 . S
O3827 C3843 1.254 . S
O3828 Eu3780 2.563 . S
O3828 C3836 1.235 . S
O3829 Eu3780 2.419 . S
O3829 C3844 1.249 . S
O3830 Eu3791 2.558 . S
O3830 C3855 1.257 . S
O3831 Eu3780 2.380 . S
O3831 Eu3791 2.612 . S
O3831 C3847 1.276 . S
O3832 Eu3780 2.432 . S
O3832 C3854 1.264 . S
O3833 Eu3791 2.339 . S
O3833 C3854 1.254 . S
O3834 Eu3791 2.563 . S
O3834 C3847 1.235 . S
O3835 Eu3791 2.419 . S
O3835 C3855 1.249 . S
C3836 O3825 1.276 . S
C3836 O3828 1.235 . S
C3837 C3839 1.393 . S
C3837 C3841 1.395 . S
C3837 C3844 1.492 . S
C3838 C3839 1.392 . S
C3838 C3840 1.386 . S
C3839 C3837 1.393 . S
C3839 C3838 1.392 . S
C3839 H3856 0.930 . S
C3840 C3838 1.386 . S
C3840 C3842 1.395 . S
C3840 H3857 0.930 . S
C3841 C3837 1.395 . S
C3841 C3842 1.379 . S
C3841 H3858 0.930 . S
C3842 C3840 1.395 . S
C3842 C3841 1.379 . S
C3842 H3859 0.930 . S
C3843 O3826 1.264 . S
C3843 O3827 1.254 . S
C3844 Eu3780 2.848 . S
C3844 O3824 1.257 . S
C3844 O3829 1.249 . S
C3844 C3837 1.492 . S
C3845 H3810 0.931 . S
C3845 C3823 1.420 . S
C3845 C3846 1.351 . S
C3846 H3808 0.930 . S
C3846 C3814 1.423 . S
C3846 C3845 1.351 . S
C3847 O3831 1.276 . S
C3847 O3834 1.235 . S
C3848 C3849 1.393 . S
C3848 C3852 1.395 . S
C3848 C3855 1.492 . S
C3849 C3848 1.393 . S
C3849 C3850 1.392 . S
C3849 H3860 0.930 . S
C3850 C3849 1.392 . S
C3850 C3851 1.386 . S
C3851 C3850 1.386 . S
C3851 C3853 1.395 . S
C3851 H3861 0.930 . S
C3852 C3848 1.395 . S
C3852 C3853 1.379 . S
C3852 H3862 0.930 . S
C3853 C3851 1.395 . S
C3853 C3852 1.379 . S
C3853 H3863 0.930 . S
C3854 O3832 1.264 . S
C3854 O3833 1.254 . S
C3855 Eu3791 2.848 . S
C3855 O3830 1.257 . S
C3855 O3835 1.249 . S
C3855 C3848 1.492 . S
H3856 C3839 0.930 . S
H3857 C3840 0.930 . S
H3858 C3841 0.930 . S
H3859 C3842 0.930 . S
H3860 C3849 0.930 . S
H3861 C3851 0.930 . S
H3862 C3852 0.930 . S
H3863 C3853 0.930 . S
Eu3864 N3895 2.657 . S
Eu3864 N3902 2.609 . S
Eu3864 O3908 2.558 . S
Eu3864 O3909 2.612 . S
Eu3864 O3911 2.339 . S
Eu3864 O3912 2.563 . S
Eu3864 O3913 2.419 . S
Eu3864 O3915 2.380 . S
Eu3864 O3916 2.432 . S
Eu3864 C3928 2.848 . S
C3865 C3868 1.429 . S
C3865 C3869 1.411 . S
C3865 N3872 1.377 . S
C3866 C3868 1.420 . S
C3866 C3870 1.423 . S
C3866 C3878 1.392 . S
C3867 C3869 1.420 . S
C3867 C3870 1.351 . S
C3867 H3890 0.931 . S
C3868 C3865 1.429 . S
C3868 C3866 1.420 . S
C3868 N3876 1.362 . S
C3869 C3865 1.411 . S
C3869 C3867 1.420 . S
C3869 C3874 1.395 . S
C3870 C3866 1.423 . S
C3870 C3867 1.351 . S
C3870 H3882 0.930 . S
C3871 C3873 1.400 . S
C3871 C3874 1.386 . S
C3871 H3883 0.930 . S
N3872 C3865 1.377 . S
N3872 C3873 1.321 . S
N3872 Eu3875 2.609 . S
C3873 C3871 1.400 . S
C3873 N3872 1.321 . S
C3873 H3880 0.930 . S
C3874 C3869 1.395 . S
C3874 C3871 1.386 . S
C3874 H3893 0.930 . S
Eu3875 N3872 2.609 . S
Eu3875 N3876 2.657 . S
Eu3875 O3909 2.380 . S
Eu3875 O3910 2.432 . S
Eu3875 O3914 2.558 . S
Eu3875 O3915 2.612 . S
Eu3875 O3917 2.339 . S
Eu3875 O3918 2.563 . S
Eu3875 O3919 2.419 . S
Eu3875 C3939 2.848 . S
N3876 C3868 1.362 . S
N3876 Eu3875 2.657 . S
N3876 C3877 1.334 . S
C3877 N3876 1.334 . S
C3877 C3879 1.413 . S
C3877 H3884 0.929 . S
C3878 C3866 1.392 . S
C3878 C3879 1.367 . S
C3878 H3886 0.930 . S
C3879 C3877 1.413 . S
C3879 C3878 1.367 . S
C3879 H3881 0.930 . S
H3880 C3873 0.930 . S
H3881 C3879 0.930 . S
H3882 C3870 0.930 . S
H3883 C3871 0.930 . S
H3884 C3877 0.929 . S
H3885 C3899 0.930 . S
H3886 C3878 0.930 . S
H3887 C3905 0.930 . S
H3888 C3896 0.929 . S
H3889 C3903 0.930 . S
H3890 C3867 0.931 . S
H3891 C3897 0.930 . S
H3892 C3930 0.930 . S
H3893 C3874 0.930 . S
H3894 C3929 0.931 . S
N3895 Eu3864 2.657 . S
N3895 C3896 1.334 . S
N3895 C3900 1.362 . S
C3896 H3888 0.929 . S
C3896 N3895 1.334 . S
C3896 C3899 1.413 . S
C3897 H3891 0.930 . S
C3897 C3898 1.392 . S
C3897 C3899 1.367 . S
C3898 C3897 1.392 . S
C3898 C3900 1.420 . S
C3898 C3930 1.423 . S
C3899 H3885 0.930 . S
C3899 C3896 1.413 . S
C3899 C3897 1.367 . S
C3900 N3895 1.362 . S
C3900 C3898 1.420 . S
C3900 C3904 1.429 . S
H3901 C3906 0.930 . S
N3902 Eu3864 2.609 . S
N3902 C3904 1.377 . S
N3902 C3905 1.321 . S
C3903 H3889 0.930 . S
C3903 C3905 1.400 . S
C3903 C3906 1.386 . S
C3904 C3900 1.429 . S
C3904 N3902 1.377 . S
C3904 C3907 1.411 . S
C3905 H3887 0.930 . S
C3905 N3902 1.321 . S
C3905 C3903 1.400 . S
C3906 H3901 0.930 . S
C3906 C3903 1.386 . S
C3906 C3907 1.395 . S
C3907 C3904 1.411 . S
C3907 C3906 1.395 . S
C3907 C3929 1.420 . S
O3908 Eu3864 2.558 . S
O3908 C3928 1.257 . S
O3909 Eu3864 2.612 . S
O3909 Eu3875 2.380 . S
O3909 C3920 1.276 . S
O3910 Eu3875 2.432 . S
O3910 C3927 1.264 . S
O3911 Eu3864 2.339 . S
O3911 C3927 1.254 . S
O3912 Eu3864 2.563 . S
O3912 C3920 1.235 . S
O3913 Eu3864 2.419 . S
O3913 C3928 1.249 . S
O3914 Eu3875 2.558 . S
O3914 C3939 1.257 . S
O3915 Eu3864 2.380 . S
O3915 Eu3875 2.612 . S
O3915 C3931 1.276 . S
O3916 Eu3864 2.432 . S
O3916 C3938 1.264 . S
O3917 Eu3875 2.339 . S
O3917 C3938 1.254 . S
O3918 Eu3875 2.563 . S
O3918 C3931 1.235 . S
O3919 Eu3875 2.419 . S
O3919 C3939 1.249 . S
C3920 O3909 1.276 . S
C3920 O3912 1.235 . S
C3921 C3923 1.393 . S
C3921 C3925 1.395 . S
C3921 C3928 1.492 . S
C3922 C3923 1.392 . S
C3922 C3924 1.386 . S
C3923 C3921 1.393 . S
C3923 C3922 1.392 . S
C3923 H3940 0.930 . S
C3924 C3922 1.386 . S
C3924 C3926 1.395 . S
C3924 H3941 0.930 . S
C3925 C3921 1.395 . S
C3925 C3926 1.379 . S
C3925 H3942 0.930 . S
C3926 C3924 1.395 . S
C3926 C3925 1.379 . S
C3926 H3943 0.930 . S
C3927 O3910 1.264 . S
C3927 O3911 1.254 . S
C3928 Eu3864 2.848 . S
C3928 O3908 1.257 . S
C3928 O3913 1.249 . S
C3928 C3921 1.492 . S
C3929 H3894 0.931 . S
C3929 C3907 1.420 . S
C3929 C3930 1.351 . S
C3930 H3892 0.930 . S
C3930 C3898 1.423 . S
C3930 C3929 1.351 . S
C3931 O3915 1.276 . S
C3931 O3918 1.235 . S
C3932 C3933 1.393 . S
C3932 C3936 1.395 . S
C3932 C3939 1.492 . S
C3933 C3932 1.393 . S
C3933 C3934 1.392 . S
C3933 H3944 0.930 . S
C3934 C3933 1.392 . S
C3934 C3935 1.386 . S
C3935 C3934 1.386 . S
C3935 C3937 1.395 . S
C3935 H3945 0.930 . S
C3936 C3932 1.395 . S
C3936 C3937 1.379 . S
C3936 H3946 0.930 . S
C3937 C3935 1.395 . S
C3937 C3936 1.379 . S
C3937 H3947 0.930 . S
C3938 O3916 1.264 . S
C3938 O3917 1.254 . S
C3939 Eu3875 2.848 . S
C3939 O3914 1.257 . S
C3939 O3919 1.249 . S
C3939 C3932 1.492 . S
H3940 C3923 0.930 . S
H3941 C3924 0.930 . S
H3942 C3925 0.930 . S
H3943 C3926 0.930 . S
H3944 C3933 0.930 . S
H3945 C3935 0.930 . S
H3946 C3936 0.930 . S
H3947 C3937 0.930 . S
Eu3948 N3979 2.657 . S
Eu3948 N3986 2.609 . S
Eu3948 O3992 2.558 . S
Eu3948 O3993 2.612 . S
Eu3948 O3995 2.339 . S
Eu3948 O3996 2.563 . S
Eu3948 O3997 2.419 . S
Eu3948 O3999 2.380 . S
Eu3948 O4000 2.432 . S
Eu3948 C4012 2.848 . S
C3949 C3952 1.429 . S
C3949 C3953 1.411 . S
C3949 N3956 1.377 . S
C3950 C3952 1.420 . S
C3950 C3954 1.423 . S
C3950 C3962 1.392 . S
C3951 C3953 1.420 . S
C3951 C3954 1.351 . S
C3951 H3974 0.931 . S
C3952 C3949 1.429 . S
C3952 C3950 1.420 . S
C3952 N3960 1.362 . S
C3953 C3949 1.411 . S
C3953 C3951 1.420 . S
C3953 C3958 1.395 . S
C3954 C3950 1.423 . S
C3954 C3951 1.351 . S
C3954 H3966 0.930 . S
C3955 C3957 1.400 . S
C3955 C3958 1.386 . S
C3955 H3967 0.930 . S
N3956 C3949 1.377 . S
N3956 C3957 1.321 . S
N3956 Eu3959 2.609 . S
C3957 C3955 1.400 . S
C3957 N3956 1.321 . S
C3957 H3964 0.930 . S
C3958 C3953 1.395 . S
C3958 C3955 1.386 . S
C3958 H3977 0.930 . S
Eu3959 N3956 2.609 . S
Eu3959 N3960 2.657 . S
Eu3959 O3993 2.380 . S
Eu3959 O3994 2.432 . S
Eu3959 O3998 2.558 . S
Eu3959 O3999 2.612 . S
Eu3959 O4001 2.339 . S
Eu3959 O4002 2.563 . S
Eu3959 O4003 2.419 . S
Eu3959 C4023 2.848 . S
N3960 C3952 1.362 . S
N3960 Eu3959 2.657 . S
N3960 C3961 1.334 . S
C3961 N3960 1.334 . S
C3961 C3963 1.413 . S
C3961 H3968 0.929 . S
C3962 C3950 1.392 . S
C3962 C3963 1.367 . S
C3962 H3970 0.930 . S
C3963 C3961 1.413 . S
C3963 C3962 1.367 . S
C3963 H3965 0.930 . S
H3964 C3957 0.930 . S
H3965 C3963 0.930 . S
H3966 C3954 0.930 . S
H3967 C3955 0.930 . S
H3968 C3961 0.929 . S
H3969 C3983 0.930 . S
H3970 C3962 0.930 . S
H3971 C3989 0.930 . S
H3972 C3980 0.929 . S
H3973 C3987 0.930 . S
H3974 C3951 0.931 . S
H3975 C3981 0.930 . S
H3976 C4014 0.930 . S
H3977 C3958 0.930 . S
H3978 C4013 0.931 . S
N3979 Eu3948 2.657 . S
N3979 C3980 1.334 . S
N3979 C3984 1.362 . S
C3980 H3972 0.929 . S
C3980 N3979 1.334 . S
C3980 C3983 1.413 . S
C3981 H3975 0.930 . S
C3981 C3982 1.392 . S
C3981 C3983 1.367 . S
C3982 C3981 1.392 . S
C3982 C3984 1.420 . S
C3982 C4014 1.423 . S
C3983 H3969 0.930 . S
C3983 C3980 1.413 . S
C3983 C3981 1.367 . S
C3984 N3979 1.362 . S
C3984 C3982 1.420 . S
C3984 C3988 1.429 . S
H3985 C3990 0.930 . S
N3986 Eu3948 2.609 . S
N3986 C3988 1.377 . S
N3986 C3989 1.321 . S
C3987 H3973 0.930 . S
C3987 C3989 1.400 . S
C3987 C3990 1.386 . S
C3988 C3984 1.429 . S
C3988 N3986 1.377 . S
C3988 C3991 1.411 . S
C3989 H3971 0.930 . S
C3989 N3986 1.321 . S
C3989 C3987 1.400 . S
C3990 H3985 0.930 . S
C3990 C3987 1.386 . S
C3990 C3991 1.395 . S
C3991 C3988 1.411 . S
C3991 C3990 1.395 . S
C3991 C4013 1.420 . S
O3992 Eu3948 2.558 . S
O3992 C4012 1.257 . S
O3993 Eu3948 2.612 . S
O3993 Eu3959 2.380 . S
O3993 C4004 1.276 . S
O3994 Eu3959 2.432 . S
O3994 C4011 1.264 . S
O3995 Eu3948 2.339 . S
O3995 C4011 1.254 . S
O3996 Eu3948 2.563 . S
O3996 C4004 1.235 . S
O3997 Eu3948 2.419 . S
O3997 C4012 1.249 . S
O3998 Eu3959 2.558 . S
O3998 C4023 1.257 . S
O3999 Eu3948 2.380 . S
O3999 Eu3959 2.612 . S
O3999 C4015 1.276 . S
O4000 Eu3948 2.432 . S
O4000 C4022 1.264 . S
O4001 Eu3959 2.339 . S
O4001 C4022 1.254 . S
O4002 Eu3959 2.563 . S
O4002 C4015 1.235 . S
O4003 Eu3959 2.419 . S
O4003 C4023 1.249 . S
C4004 O3993 1.276 . S
C4004 O3996 1.235 . S
C4005 C4007 1.393 . S
C4005 C4009 1.395 . S
C4005 C4012 1.492 . S
C4006 C4007 1.392 . S
C4006 C4008 1.386 . S
C4007 C4005 1.393 . S
C4007 C4006 1.392 . S
C4007 H4024 0.930 . S
C4008 C4006 1.386 . S
C4008 C4010 1.395 . S
C4008 H4025 0.930 . S
C4009 C4005 1.395 . S
C4009 C4010 1.379 . S
C4009 H4026 0.930 . S
C4010 C4008 1.395 . S
C4010 C4009 1.379 . S
C4010 H4027 0.930 . S
C4011 O3994 1.264 . S
C4011 O3995 1.254 . S
C4012 Eu3948 2.848 . S
C4012 O3992 1.257 . S
C4012 O3997 1.249 . S
C4012 C4005 1.492 . S
C4013 H3978 0.931 . S
C4013 C3991 1.420 . S
C4013 C4014 1.351 . S
C4014 H3976 0.930 . S
C4014 C3982 1.423 . S
C4014 C4013 1.351 . S
C4015 O3999 1.276 . S
C4015 O4002 1.235 . S
C4016 C4017 1.393 . S
C4016 C4020 1.395 . S
C4016 C4023 1.492 . S
C4017 C4016 1.393 . S
C4017 C4018 1.392 . S
C4017 H4028 0.930 . S
C4018 C4017 1.392 . S
C4018 C4019 1.386 . S
C4019 C4018 1.386 . S
C4019 C4021 1.395 . S
C4019 H4029 0.930 . S
C4020 C4016 1.395 . S
C4020 C4021 1.379 . S
C4020 H4030 0.930 . S
C4021 C4019 1.395 . S
C4021 C4020 1.379 . S
C4021 H4031 0.930 . S
C4022 O4000 1.264 . S
C4022 O4001 1.254 . S
C4023 Eu3959 2.848 . S
C4023 O3998 1.257 . S
C4023 O4003 1.249 . S
C4023 C4016 1.492 . S
H4024 C4007 0.930 . S
H4025 C4008 0.930 . S
H4026 C4009 0.930 . S
H4027 C4010 0.930 . S
H4028 C4017 0.930 . S
H4029 C4019 0.930 . S
H4030 C4020 0.930 . S
H4031 C4021 0.930 . S
H4032 C4044 0.930 . S
H4033 C4046 0.930 1_655 S
H4034 C4047 0.930 1_655 S
H4035 C4051 0.959 . S
H4036 C4051 0.959 . S
H4037 C4051 0.961 . S
H4038 C4052 0.960 . S
H4039 C4052 0.961 . S
H4040 C4052 0.959 . S
H4041 C4055 0.929 1_655 S
H4042 C4056 0.931 1_655 S
H4043 C4058 0.930 . S
C4044 H4032 0.930 . S
C4044 C4045 1.399 . S
C4044 C4049 1.399 . S
C4045 C4044 1.399 . S
C4045 C4046 1.376 . S
C4046 H4033 0.930 1_455 S
C4046 C4045 1.376 . S
C4046 C4047 1.388 . S
C4047 H4034 0.930 1_455 S
C4047 C4046 1.388 . S
C4047 C4048 1.390 . S
C4048 C4047 1.390 . S
C4048 C4049 1.394 . S
C4048 C4054 1.465 . S
C4049 C4044 1.399 . S
C4049 C4048 1.394 . S
C4049 C4050 1.516 . S
C4050 C4049 1.516 . S
C4050 C4051 1.502 . S
C4050 C4052 1.561 . S
C4050 C4053 1.526 . S
C4051 H4035 0.959 . S
C4051 H4036 0.959 . S
C4051 H4037 0.961 . S
C4051 C4050 1.502 . S
C4052 H4038 0.960 . S
C4052 H4039 0.961 . S
C4052 H4040 0.959 . S
C4052 C4050 1.561 . S
C4053 C4050 1.526 . S
C4053 C4054 1.396 . S
C4053 C4058 1.390 . S
C4054 C4048 1.465 . S
C4054 C4053 1.396 . S
C4054 C4055 1.399 . S
C4055 H4041 0.929 1_455 S
C4055 C4054 1.399 . S
C4055 C4056 1.385 . S
C4056 H4042 0.931 1_455 S
C4056 C4055 1.385 . S
C4056 C4057 1.389 . S
C4057 C4056 1.389 . S
C4057 C4058 1.387 . S
C4058 H4043 0.930 . S
C4058 C4053 1.390 . S
C4058 C4057 1.387 . S
H4059 C4071 0.930 . S
H4060 C4073 0.930 . S
H4061 C4074 0.930 . S
H4062 C4078 0.959 . S
H4063 C4078 0.959 . S
H4064 C4078 0.961 . S
H4065 C4079 0.960 . S
H4066 C4079 0.961 . S
H4067 C4079 0.959 . S
H4068 C4082 0.929 . S
H4069 C4083 0.931 . S
H4070 C4085 0.930 . S
C4071 H4059 0.930 . S
C4071 C4072 1.399 . S
C4071 C4076 1.399 . S
C4072 C4071 1.399 . S
C4072 C4073 1.376 . S
C4073 H4060 0.930 . S
C4073 C4072 1.376 . S
C4073 C4074 1.388 . S
C4074 H4061 0.930 . S
C4074 C4073 1.388 . S
C4074 C4075 1.390 . S
C4075 C4074 1.390 . S
C4075 C4076 1.394 . S
C4075 C4081 1.465 . S
C4076 C4071 1.399 . S
C4076 C4075 1.394 . S
C4076 C4077 1.516 . S
C4077 C4076 1.516 . S
C4077 C4078 1.502 . S
C4077 C4079 1.561 . S
C4077 C4080 1.526 . S
C4078 H4062 0.959 . S
C4078 H4063 0.959 . S
C4078 H4064 0.961 . S
C4078 C4077 1.502 . S
C4079 H4065 0.960 . S
C4079 H4066 0.961 . S
C4079 H4067 0.959 . S
C4079 C4077 1.561 . S
C4080 C4077 1.526 . S
C4080 C4081 1.396 . S
C4080 C4085 1.390 . S
C4081 C4075 1.465 . S
C4081 C4080 1.396 . S
C4081 C4082 1.399 . S
C4082 H4068 0.929 . S
C4082 C4081 1.399 . S
C4082 C4083 1.385 . S
C4083 H4069 0.931 . S
C4083 C4082 1.385 . S
C4083 C4084 1.389 . S
C4084 C4083 1.389 . S
C4084 C4085 1.387 . S
C4085 H4070 0.930 . S
C4085 C4080 1.390 . S
C4085 C4084 1.387 . S
H4086 C4098 0.930 . S
H4087 C4100 0.930 . S
H4088 C4101 0.930 . S
H4089 C4105 0.959 . S
H4090 C4105 0.959 . S
H4091 C4105 0.961 . S
H4092 C4106 0.960 . S
H4093 C4106 0.961 . S
H4094 C4106 0.959 . S
H4095 C4109 0.929 . S
H4096 C4110 0.931 . S
H4097 C4112 0.930 . S
C4098 H4086 0.930 . S
C4098 C4099 1.399 . S
C4098 C4103 1.399 . S
C4099 C4098 1.399 . S
C4099 C4100 1.376 . S
C4100 H4087 0.930 . S
C4100 C4099 1.376 . S
C4100 C4101 1.388 . S
C4101 H4088 0.930 . S
C4101 C4100 1.388 . S
C4101 C4102 1.390 . S
C4102 C4101 1.390 . S
C4102 C4103 1.394 . S
C4102 C4108 1.465 . S
C4103 C4098 1.399 . S
C4103 C4102 1.394 . S
C4103 C4104 1.516 . S
C4104 C4103 1.516 . S
C4104 C4105 1.502 . S
C4104 C4106 1.561 . S
C4104 C4107 1.526 . S
C4105 H4089 0.959 . S
C4105 H4090 0.959 . S
C4105 H4091 0.961 . S
C4105 C4104 1.502 . S
C4106 H4092 0.960 . S
C4106 H4093 0.961 . S
C4106 H4094 0.959 . S
C4106 C4104 1.561 . S
C4107 C4104 1.526 . S
C4107 C4108 1.396 . S
C4107 C4112 1.390 . S
C4108 C4102 1.465 . S
C4108 C4107 1.396 . S
C4108 C4109 1.399 . S
C4109 H4095 0.929 . S
C4109 C4108 1.399 . S
C4109 C4110 1.385 . S
C4110 H4096 0.931 . S
C4110 C4109 1.385 . S
C4110 C4111 1.389 . S
C4111 C4110 1.389 . S
C4111 C4112 1.387 . S
C4112 H4097 0.930 . S
C4112 C4107 1.390 . S
C4112 C4111 1.387 . S
H4113 C4125 0.930 . S
H4114 C4127 0.930 . S
H4115 C4128 0.930 . S
H4116 C4132 0.959 . S
H4117 C4132 0.959 . S
H4118 C4132 0.961 . S
H4119 C4133 0.960 . S
H4120 C4133 0.961 . S
H4121 C4133 0.959 1_554 S
H4122 C4136 0.929 . S
H4123 C4137 0.931 . S
H4124 C4139 0.930 . S
C4125 H4113 0.930 . S
C4125 C4126 1.399 1_556 S
C4125 C4130 1.399 . S
C4126 C4125 1.399 1_554 S
C4126 C4127 1.376 . S
C4127 H4114 0.930 . S
C4127 C4126 1.376 . S
C4127 C4128 1.388 . S
C4128 H4115 0.930 . S
C4128 C4127 1.388 . S
C4128 C4129 1.390 . S
C4129 C4128 1.390 . S
C4129 C4130 1.394 1_554 S
C4129 C4135 1.465 . S
C4130 C4125 1.399 . S
C4130 C4129 1.394 1_556 S
C4130 C4131 1.516 . S
C4131 C4130 1.516 . S
C4131 C4132 1.502 . S
C4131 C4133 1.561 . S
C4131 C4134 1.526 . S
C4132 H4116 0.959 . S
C4132 H4117 0.959 . S
C4132 H4118 0.961 . S
C4132 C4131 1.502 . S
C4133 H4119 0.960 . S
C4133 H4120 0.961 . S
C4133 H4121 0.959 1_556 S
C4133 C4131 1.561 . S
C4134 C4131 1.526 . S
C4134 C4135 1.396 1_556 S
C4134 C4139 1.390 . S
C4135 C4129 1.465 . S
C4135 C4134 1.396 1_554 S
C4135 C4136 1.399 . S
C4136 H4122 0.929 . S
C4136 C4135 1.399 . S
C4136 C4137 1.385 . S
C4137 H4123 0.931 . S
C4137 C4136 1.385 . S
C4137 C4138 1.389 . S
C4138 C4137 1.389 . S
C4138 C4139 1.387 1_554 S
C4139 H4124 0.930 . S
C4139 C4134 1.390 . S
C4139 C4138 1.387 1_556 S
H4140 C4152 0.930 . S
H4141 C4154 0.930 . S
H4142 C4155 0.930 . S
H4143 C4159 0.959 . S
H4144 C4159 0.959 . S
H4145 C4159 0.961 . S
H4146 C4160 0.960 . S
H4147 C4160 0.961 . S
H4148 C4160 0.959 . S
H4149 C4163 0.929 . S
H4150 C4164 0.931 . S
H4151 C4166 0.930 . S
C4152 H4140 0.930 . S
C4152 C4153 1.399 . S
C4152 C4157 1.399 . S
C4153 C4152 1.399 . S
C4153 C4154 1.376 1_545 S
C4154 H4141 0.930 . S
C4154 C4153 1.376 1_565 S
C4154 C4155 1.388 . S
C4155 H4142 0.930 . S
C4155 C4154 1.388 . S
C4155 C4156 1.390 1_565 S
C4156 C4155 1.390 1_545 S
C4156 C4157 1.394 . S
C4156 C4162 1.465 . S
C4157 C4152 1.399 . S
C4157 C4156 1.394 . S
C4157 C4158 1.516 . S
C4158 C4157 1.516 . S
C4158 C4159 1.502 . S
C4158 C4160 1.561 . S
C4158 C4161 1.526 . S
C4159 H4143 0.959 . S
C4159 H4144 0.959 . S
C4159 H4145 0.961 . S
C4159 C4158 1.502 . S
C4160 H4146 0.960 . S
C4160 H4147 0.961 . S
C4160 H4148 0.959 . S
C4160 C4158 1.561 . S
C4161 C4158 1.526 . S
C4161 C4162 1.396 . S
C4161 C4166 1.390 . S
C4162 C4156 1.465 . S
C4162 C4161 1.396 . S
C4162 C4163 1.399 1_545 S
C4163 H4149 0.929 . S
C4163 C4162 1.399 1_565 S
C4163 C4164 1.385 . S
C4164 H4150 0.931 . S
C4164 C4163 1.385 . S
C4164 C4165 1.389 1_565 S
C4165 C4164 1.389 1_545 S
C4165 C4166 1.387 . S
C4166 H4151 0.930 . S
C4166 C4161 1.390 . S
C4166 C4165 1.387 . S
H4167 C4179 0.930 . S
H4168 C4181 0.930 . S
H4169 C4182 0.930 . S
H4170 C4186 0.959 . S
H4171 C4186 0.959 . S
H4172 C4186 0.961 . S
H4173 C4187 0.960 . S
H4174 C4187 0.961 . S
H4175 C4187 0.959 . S
H4176 C4190 0.929 . S
H4177 C4191 0.931 . S
H4178 C4193 0.930 . S
C4179 H4167 0.930 . S
C4179 C4180 1.376 1_545 S
C4179 C4184 1.399 . S
C4180 C4179 1.376 1_565 S
C4180 C4181 1.405 . S
C4181 H4168 0.930 . S
C4181 C4180 1.405 . S
C4181 C4182 1.388 . S
C4182 H4169 0.930 . S
C4182 C4181 1.388 . S
C4182 C4183 1.390 . S
C4183 C4182 1.390 . S
C4183 C4184 1.394 1_565 S
C4183 C4189 1.465 . S
C4184 C4179 1.399 . S
C4184 C4183 1.394 1_545 S
C4184 C4185 1.516 . S
C4185 C4184 1.516 . S
C4185 C4186 1.502 . S
C4185 C4187 1.561 . S
C4185 C4188 1.526 . S
C4186 H4170 0.959 . S
C4186 H4171 0.959 . S
C4186 H4172 0.961 . S
C4186 C4185 1.502 . S
C4187 H4173 0.960 . S
C4187 H4174 0.961 . S
C4187 H4175 0.959 . S
C4187 C4185 1.561 . S
C4188 C4185 1.526 . S
C4188 C4189 1.396 1_545 S
C4188 C4193 1.390 . S
C4189 C4183 1.465 . S
C4189 C4188 1.396 1_565 S
C4189 C4190 1.399 . S
C4190 H4176 0.929 . S
C4190 C4189 1.399 . S
C4190 C4191 1.385 . S
C4191 H4177 0.931 . S
C4191 C4190 1.385 . S
C4191 C4192 1.389 . S
C4192 C4191 1.389 . S
C4192 C4193 1.387 1_565 S
C4193 H4178 0.930 . S
C4193 C4188 1.390 . S
C4193 C4192 1.387 1_545 S
H4194 C4206 0.930 . S
H4195 C4208 0.930 . S
H4196 C4209 0.930 . S
H4197 C4213 0.959 . S
H4198 C4213 0.959 . S
H4199 C4213 0.961 1_554 S
H4200 C4214 0.960 1_554 S
H4201 C4214 0.961 . S
H4202 C4214 0.959 . S
H4203 C4217 0.929 . S
H4204 C4218 0.931 . S
H4205 C4220 0.930 . S
C4206 H4194 0.930 . S
C4206 C4207 1.399 . S
C4206 C4211 1.399 . S
C4207 C4206 1.399 . S
C4207 C4208 1.376 1_565 S
C4208 H4195 0.930 . S
C4208 C4207 1.376 1_545 S
C4208 C4209 1.388 . S
C4209 H4196 0.930 . S
C4209 C4208 1.388 . S
C4209 C4210 1.390 1_545 S
C4210 C4209 1.390 1_565 S
C4210 C4211 1.394 . S
C4210 C4216 1.465 1_554 S
C4211 C4206 1.399 . S
C4211 C4210 1.394 . S
C4211 C4212 1.516 1_554 S
C4212 C4211 1.516 1_556 S
C4212 C4213 1.502 . S
C4212 C4214 1.561 . S
C4212 C4215 1.526 . S
C4213 H4197 0.959 . S
C4213 H4198 0.959 . S
C4213 H4199 0.961 1_556 S
C4213 C4212 1.502 . S
C4214 H4200 0.960 1_556 S
C4214 H4201 0.961 . S
C4214 H4202 0.959 . S
C4214 C4212 1.561 . S
C4215 C4212 1.526 . S
C4215 C4216 1.396 . S
C4215 C4220 1.390 . S
C4216 C4210 1.465 1_556 S
C4216 C4215 1.396 . S
C4216 C4217 1.399 1_565 S
C4217 H4203 0.929 . S
C4217 C4216 1.399 1_545 S
C4217 C4218 1.385 . S
C4218 H4204 0.931 . S
C4218 C4217 1.385 . S
C4218 C4219 1.389 1_545 S
C4219 C4218 1.389 1_565 S
C4219 C4220 1.387 . S
C4220 H4205 0.930 . S
C4220 C4215 1.390 . S
C4220 C4219 1.387 . S
H4221 C4233 0.937 . S
H4222 C4235 0.930 . S
H4223 C4236 0.930 . S
H4224 C4240 0.959 . S
H4225 C4240 0.959 . S
H4226 C4240 0.961 . S
H4227 C4241 0.960 . S
H4228 C4241 0.961 . S
H4229 C4241 0.959 . S
H4230 C4244 0.929 . S
H4231 C4245 0.931 . S
H4232 C4247 0.930 . S
C4233 H4221 0.937 . S
C4233 C4234 1.395 1_545 S
C4233 C4238 1.397 1_545 S
C4234 C4233 1.395 1_565 S
C4234 C4235 1.376 . S
C4235 H4222 0.930 . S
C4235 C4234 1.376 . S
C4235 C4236 1.388 . S
C4236 H4223 0.930 . S
C4236 C4235 1.388 . S
C4236 C4237 1.390 . S
C4237 C4236 1.390 . S
C4237 C4238 1.399 . S
C4237 C4243 1.465 . S
C4238 C4233 1.397 1_565 S
C4238 C4237 1.399 . S
C4238 C4239 1.514 1_565 S
C4239 C4238 1.514 1_545 S
C4239 C4240 1.533 . S
C4239 C4241 1.530 1_545 S
C4239 C4242 1.525 1_545 S
C4240 H4224 0.959 . S
C4240 H4225 0.959 . S
C4240 H4226 0.961 . S
C4240 C4239 1.533 . S
C4241 H4227 0.960 . S
C4241 H4228 0.961 . S
C4241 H4229 0.959 . S
C4241 C4239 1.530 1_565 S
C4242 C4239 1.525 1_565 S
C4242 C4243 1.396 . S
C4242 C4247 1.389 1_565 S
C4243 C4237 1.465 . S
C4243 C4242 1.396 . S
C4243 C4244 1.399 . S
C4244 H4230 0.929 . S
C4244 C4243 1.399 . S
C4244 C4245 1.385 . S
C4245 H4231 0.931 . S
C4245 C4244 1.385 . S
C4245 C4246 1.390 1_565 S
C4246 C4245 1.390 1_545 S
C4246 C4247 1.387 . S
C4247 H4232 0.930 . S
C4247 C4242 1.389 1_545 S
C4247 C4246 1.387 . S
H4248 C4260 0.953 . S
H4249 C4262 0.930 . S
H4250 C4263 0.930 . S
H4251 C4267 0.959 . S
H4252 C4267 0.959 . S
H4253 C4267 0.961 . S
H4254 C4268 0.960 . S
H4255 C4268 0.961 . S
H4256 C4268 0.959 . S
H4257 C4271 0.929 . S
H4258 C4272 0.931 . S
H4259 C4274 0.930 . S
C4260 H4248 0.953 . S
C4260 C4261 1.399 . S
C4260 C4265 1.399 . S
C4261 C4260 1.399 . S
C4261 C4262 1.376 . S
C4262 H4249 0.930 . S
C4262 C4261 1.376 . S
C4262 C4263 1.388 . S
C4263 H4250 0.930 . S
C4263 C4262 1.388 . S
C4263 C4264 1.390 . S
C4264 C4263 1.390 . S
C4264 C4265 1.394 . S
C4264 C4270 1.465 . S
C4265 C4260 1.399 . S
C4265 C4264 1.394 . S
C4265 C4266 1.516 1_554 S
C4266 C4265 1.516 1_556 S
C4266 C4267 1.502 1_556 S
C4266 C4268 1.562 . S
C4266 C4269 1.526 1_556 S
C4267 H4251 0.959 . S
C4267 H4252 0.959 . S
C4267 H4253 0.961 . S
C4267 C4266 1.502 1_554 S
C4268 H4254 0.960 . S
C4268 H4255 0.961 . S
C4268 H4256 0.959 . S
C4268 C4266 1.562 . S
C4269 C4266 1.526 1_554 S
C4269 C4270 1.396 . S
C4269 C4274 1.390 . S
C4270 C4264 1.465 . S
C4270 C4269 1.396 . S
C4270 C4271 1.399 . S
C4271 H4257 0.929 . S
C4271 C4270 1.399 . S
C4271 C4272 1.385 . S
C4272 H4258 0.931 . S
C4272 C4271 1.385 . S
C4272 C4273 1.389 . S
C4273 C4272 1.389 . S
C4273 C4274 1.387 . S
C4274 H4259 0.930 . S
C4274 C4269 1.390 . S
C4274 C4273 1.387 . S
H4275 C4287 0.930 . S
H4276 C4289 0.930 . S
H4277 C4290 0.930 . S
H4278 C4294 0.956 1_455 S
H4279 C4294 0.925 1_455 S
H4280 C4294 0.998 . S
H4281 C4295 0.960 . S
H4282 C4295 0.961 1_455 S
H4283 C4295 0.961 . S
H4284 C4298 0.929 . S
H4285 C4299 0.931 . S
H4286 C4301 0.930 . S
C4287 H4275 0.930 . S
C4287 C4288 1.399 . S
C4287 C4292 1.399 . S
C4288 C4287 1.399 . S
C4288 C4289 1.376 1_556 S
C4289 H4276 0.930 . S
C4289 C4288 1.376 1_554 S
C4289 C4290 1.388 . S
C4290 H4277 0.930 . S
C4290 C4289 1.388 . S
C4290 C4291 1.390 1_554 S
C4291 C4290 1.390 1_556 S
C4291 C4292 1.394 . S
C4291 C4297 1.465 1_655 S
C4292 C4287 1.399 . S
C4292 C4291 1.394 . S
C4292 C4293 1.516 . S
C4293 C4292 1.516 . S
C4293 C4294 1.504 . S
C4293 C4295 1.561 . S
C4293 C4296 1.526 1_655 S
C4294 H4278 0.956 1_655 S
C4294 H4279 0.925 1_655 S
C4294 H4280 0.998 . S
C4294 C4293 1.504 . S
C4295 H4281 0.960 . S
C4295 H4282 0.961 1_655 S
C4295 H4283 0.961 . S
C4295 C4293 1.561 . S
C4296 C4293 1.526 1_455 S
C4296 C4297 1.396 . S
C4296 C4301 1.390 . S
C4297 C4291 1.465 1_455 S
C4297 C4296 1.396 . S
C4297 C4298 1.399 1_556 S
C4298 H4284 0.929 . S
C4298 C4297 1.399 1_554 S
C4298 C4299 1.385 . S
C4299 H4285 0.931 . S
C4299 C4298 1.385 . S
C4299 C4300 1.389 1_554 S
C4300 C4299 1.389 1_556 S
C4300 C4301 1.387 . S
C4301 H4286 0.930 . S
C4301 C4296 1.390 . S
C4301 C4300 1.387 . S
H4302 C4314 0.930 . S
H4303 C4316 0.930 . S
H4304 C4317 0.930 . S
H4305 C4321 0.959 . S
H4306 C4321 0.959 . S
H4307 C4321 0.961 . S
H4308 C4322 0.960 . S
H4309 C4322 0.961 . S
H4310 C4322 0.959 . S
H4311 C4325 0.929 . S
H4312 C4326 0.931 . S
H4313 C4328 0.930 . S
C4314 H4302 0.930 . S
C4314 C4315 1.383 1_455 S
C4314 C4319 1.399 . S
C4315 C4314 1.383 1_655 S
C4315 C4316 1.401 . S
C4316 H4303 0.930 . S
C4316 C4315 1.401 . S
C4316 C4317 1.388 . S
C4317 H4304 0.930 . S
C4317 C4316 1.388 . S
C4317 C4318 1.390 . S
C4318 C4317 1.390 . S
C4318 C4319 1.394 1_655 S
C4318 C4324 1.465 . S
C4319 C4314 1.399 . S
C4319 C4318 1.394 1_455 S
C4319 C4320 1.516 . S
C4320 C4319 1.516 . S
C4320 C4321 1.502 . S
C4320 C4322 1.561 1_455 S
C4320 C4323 1.526 . S
C4321 H4305 0.959 . S
C4321 H4306 0.959 . S
C4321 H4307 0.961 . S
C4321 C4320 1.502 . S
C4322 H4308 0.960 . S
C4322 H4309 0.961 . S
C4322 H4310 0.959 . S
C4322 C4320 1.561 1_655 S
C4323 C4320 1.526 . S
C4323 C4324 1.396 1_455 S
C4323 C4328 1.390 . S
C4324 C4318 1.465 . S
C4324 C4323 1.396 1_655 S
C4324 C4325 1.399 . S
C4325 H4311 0.929 . S
C4325 C4324 1.399 . S
C4325 C4326 1.385 . S
C4326 H4312 0.931 . S
C4326 C4325 1.385 . S
C4326 C4327 1.403 . S
C4327 C4326 1.403 . S
C4327 C4328 1.377 1_655 S
C4328 H4313 0.930 . S
C4328 C4323 1.390 . S
C4328 C4327 1.377 1_455 S
H4329 C4341 0.930 . S
H4330 C4343 0.930 . S
H4331 C4344 0.930 . S
H4332 C4348 0.959 . S
H4333 C4348 0.959 . S
H4334 C4348 0.961 . S
H4335 C4349 0.960 . S
H4336 C4349 0.961 . S
H4337 C4349 0.959 . S
H4338 C4352 0.929 . S
H4339 C4353 0.931 . S
H4340 C4355 0.930 . S
C4341 H4329 0.930 . S
C4341 C4342 1.399 . S
C4341 C4346 1.399 . S
C4342 C4341 1.399 . S
C4342 C4343 1.376 . S
C4343 H4330 0.930 . S
C4343 C4342 1.376 . S
C4343 C4344 1.388 . S
C4344 H4331 0.930 . S
C4344 C4343 1.388 . S
C4344 C4345 1.390 . S
C4345 C4344 1.390 . S
C4345 C4346 1.394 . S
C4345 C4351 1.465 . S
C4346 C4341 1.399 . S
C4346 C4345 1.394 . S
C4346 C4347 1.516 . S
C4347 C4346 1.516 . S
C4347 C4348 1.502 . S
C4347 C4349 1.561 . S
C4347 C4350 1.526 . S
C4348 H4332 0.959 . S
C4348 H4333 0.959 . S
C4348 H4334 0.961 . S
C4348 C4347 1.502 . S
C4349 H4335 0.960 . S
C4349 H4336 0.961 . S
C4349 H4337 0.959 . S
C4349 C4347 1.561 . S
C4350 C4347 1.526 . S
C4350 C4351 1.396 . S
C4350 C4355 1.390 . S
C4351 C4345 1.465 . S
C4351 C4350 1.396 . S
C4351 C4352 1.399 . S
C4352 H4338 0.929 . S
C4352 C4351 1.399 . S
C4352 C4353 1.385 . S
C4353 H4339 0.931 . S
C4353 C4352 1.385 . S
C4353 C4354 1.389 . S
C4354 C4353 1.389 . S
C4354 C4355 1.387 . S
C4355 H4340 0.930 . S
C4355 C4350 1.390 . S
C4355 C4354 1.387 . S
H4356 C4368 0.930 . S
H4357 C4370 0.930 . S
H4358 C4371 0.930 . S
H4359 C4375 0.957 1_455 S
H4360 C4375 0.963 1_455 S
H4361 C4375 0.957 . S
H4362 C4376 0.965 1_655 S
H4363 C4376 0.956 . S
H4364 C4376 0.958 . S
H4365 C4379 0.929 . S
H4366 C4380 0.931 . S
H4367 C4382 0.930 . S
C4368 H4356 0.930 . S
C4368 C4369 1.399 . S
C4368 C4373 1.399 . S
C4369 C4368 1.399 . S
C4369 C4370 1.376 . S
C4370 H4357 0.930 . S
C4370 C4369 1.376 . S
C4370 C4371 1.388 . S
C4371 H4358 0.930 . S
C4371 C4370 1.388 . S
C4371 C4372 1.390 . S
C4372 C4371 1.390 . S
C4372 C4373 1.394 . S
C4372 C4378 1.465 1_655 S
C4373 C4368 1.399 . S
C4373 C4372 1.394 . S
C4373 C4374 1.528 . S
C4374 C4373 1.528 . S
C4374 C4375 1.502 . S
C4374 C4376 1.561 1_655 S
C4374 C4377 1.514 1_655 S
C4375 H4359 0.957 1_655 S
C4375 H4360 0.963 1_655 S
C4375 H4361 0.957 . S
C4375 C4374 1.502 . S
C4376 H4362 0.965 1_455 S
C4376 H4363 0.956 . S
C4376 H4364 0.958 . S
C4376 C4374 1.561 1_455 S
C4377 C4374 1.514 1_455 S
C4377 C4378 1.396 . S
C4377 C4382 1.390 . S
C4378 C4372 1.465 1_455 S
C4378 C4377 1.396 . S
C4378 C4379 1.399 . S
C4379 H4365 0.929 . S
C4379 C4378 1.399 . S
C4379 C4380 1.385 . S
C4380 H4366 0.931 . S
C4380 C4379 1.385 . S
C4380 C4381 1.389 . S
C4381 C4380 1.389 . S
C4381 C4382 1.387 . S
C4382 H4367 0.930 . S
C4382 C4377 1.390 . S
C4382 C4381 1.387 . S
H4383 C4395 0.930 . S
H4384 C4397 0.930 . S
H4385 C4398 0.930 . S
H4386 C4402 0.959 . S
H4387 C4402 0.959 . S
H4388 C4402 0.961 . S
H4389 C4403 0.960 . S
H4390 C4403 0.961 . S
H4391 C4403 0.959 . S
H4392 C4406 0.929 . S
H4393 C4407 0.931 . S
H4394 C4409 0.930 . S
C4395 H4383 0.930 . S
C4395 C4396 1.399 1_455 S
C4395 C4400 1.399 . S
C4396 C4395 1.399 1_655 S
C4396 C4397 1.376 . S
C4397 H4384 0.930 . S
C4397 C4396 1.376 . S
C4397 C4398 1.388 . S
C4398 H4385 0.930 . S
C4398 C4397 1.388 . S
C4398 C4399 1.390 . S
C4399 C4398 1.390 . S
C4399 C4400 1.394 1_655 S
C4399 C4405 1.465 . S
C4400 C4395 1.399 . S
C4400 C4399 1.394 1_455 S
C4400 C4401 1.516 . S
C4401 C4400 1.516 . S
C4401 C4402 1.502 . S
C4401 C4403 1.561 1_455 S
C4401 C4404 1.526 . S
C4402 H4386 0.959 . S
C4402 H4387 0.959 . S
C4402 H4388 0.961 . S
C4402 C4401 1.502 . S
C4403 H4389 0.960 . S
C4403 H4390 0.961 . S
C4403 H4391 0.959 . S
C4403 C4401 1.561 1_655 S
C4404 C4401 1.526 . S
C4404 C4405 1.396 1_455 S
C4404 C4409 1.390 . S
C4405 C4399 1.465 . S
C4405 C4404 1.396 1_655 S
C4405 C4406 1.399 . S
C4406 H4392 0.929 . S
C4406 C4405 1.399 . S
C4406 C4407 1.385 . S
C4407 H4393 0.931 . S
C4407 C4406 1.385 . S
C4407 C4408 1.383 1_655 S
C4408 C4407 1.383 1_455 S
C4408 C4409 1.391 . S
C4409 H4394 0.930 . S
C4409 C4404 1.390 . S
C4409 C4408 1.391 . S
H4410 C4422 0.930 . S
H4411 C4424 0.930 . S
H4412 C4425 0.930 . S
H4413 C4429 0.959 . S
H4414 C4429 0.959 . S
H4415 C4429 0.961 . S
H4416 C4430 0.960 . S
H4417 C4430 0.961 . S
H4418 C4430 0.959 . S
H4419 C4433 0.929 . S
H4420 C4434 0.931 . S
H4421 C4436 0.930 . S
C4422 H4410 0.930 . S
C4422 C4423 1.399 . S
C4422 C4427 1.399 . S
C4423 C4422 1.399 . S
C4423 C4424 1.376 . S
C4424 H4411 0.930 . S
C4424 C4423 1.376 . S
C4424 C4425 1.388 . S
C4425 H4412 0.930 . S
C4425 C4424 1.388 . S
C4425 C4426 1.390 . S
C4426 C4425 1.390 . S
C4426 C4427 1.394 . S
C4426 C4432 1.465 . S
C4427 C4422 1.399 . S
C4427 C4426 1.394 . S
C4427 C4428 1.516 . S
C4428 C4427 1.516 . S
C4428 C4429 1.502 . S
C4428 C4430 1.561 . S
C4428 C4431 1.526 . S
C4429 H4413 0.959 . S
C4429 H4414 0.959 . S
C4429 H4415 0.961 . S
C4429 C4428 1.502 . S
C4430 H4416 0.960 . S
C4430 H4417 0.961 . S
C4430 H4418 0.959 . S
C4430 C4428 1.561 . S
C4431 C4428 1.526 . S
C4431 C4432 1.396 . S
C4431 C4436 1.390 . S
C4432 C4426 1.465 . S
C4432 C4431 1.396 . S
C4432 C4433 1.399 . S
C4433 H4419 0.929 . S
C4433 C4432 1.399 . S
C4433 C4434 1.385 . S
C4434 H4420 0.931 . S
C4434 C4433 1.385 . S
C4434 C4435 1.389 . S
C4435 C4434 1.389 . S
C4435 C4436 1.387 . S
C4436 H4421 0.930 . S
C4436 C4431 1.390 . S
C4436 C4435 1.387 . S
H4437 C4449 0.930 . S
H4438 C4451 0.930 . S
H4439 C4452 0.930 . S
H4440 C4456 0.959 . S
H4441 C4456 0.959 . S
H4442 C4456 0.961 . S
H4443 C4457 0.960 . S
H4444 C4457 0.961 . S
H4445 C4457 0.959 . S
H4446 C4460 0.929 . S
H4447 C4461 0.931 . S
H4448 C4463 0.930 . S
C4449 H4437 0.930 . S
C4449 C4450 1.399 . S
C4449 C4454 1.399 . S
C4450 C4449 1.399 . S
C4450 C4451 1.376 . S
C4451 H4438 0.930 . S
C4451 C4450 1.376 . S
C4451 C4452 1.388 . S
C4452 H4439 0.930 . S
C4452 C4451 1.388 . S
C4452 C4453 1.390 . S
C4453 C4452 1.390 . S
C4453 C4454 1.394 . S
C4453 C4459 1.465 . S
C4454 C4449 1.399 . S
C4454 C4453 1.394 . S
C4454 C4455 1.516 . S
C4455 C4454 1.516 . S
C4455 C4456 1.502 1_655 S
C4455 C4457 1.561 . S
C4455 C4458 1.526 . S
C4456 H4440 0.959 . S
C4456 H4441 0.959 . S
C4456 H4442 0.961 . S
C4456 C4455 1.502 1_455 S
C4457 H4443 0.960 . S
C4457 H4444 0.961 . S
C4457 H4445 0.959 . S
C4457 C4455 1.561 . S
C4458 C4455 1.526 . S
C4458 C4459 1.396 . S
C4458 C4463 1.390 . S
C4459 C4453 1.465 . S
C4459 C4458 1.396 . S
C4459 C4460 1.399 . S
C4460 H4446 0.929 . S
C4460 C4459 1.399 . S
C4460 C4461 1.385 . S
C4461 H4447 0.931 . S
C4461 C4460 1.385 . S
C4461 C4462 1.389 . S
C4462 C4461 1.389 . S
C4462 C4463 1.387 . S
C4463 H4448 0.930 . S
C4463 C4458 1.390 . S
C4463 C4462 1.387 . S
H4464 C4476 0.930 . S
H4465 C4478 0.930 . S
H4466 C4479 0.930 . S
H4467 C4483 0.959 . S
H4468 C4483 0.959 . S
H4469 C4483 0.961 . S
H4470 C4484 0.960 . S
H4471 C4484 0.961 . S
H4472 C4484 0.959 . S
H4473 C4487 0.929 . S
H4474 C4488 0.931 . S
H4475 C4490 0.930 . S
C4476 H4464 0.930 . S
C4476 C4477 1.399 . S
C4476 C4481 1.399 . S
C4477 C4476 1.399 . S
C4477 C4478 1.376 . S
C4478 H4465 0.930 . S
C4478 C4477 1.376 . S
C4478 C4479 1.388 . S
C4479 H4466 0.930 . S
C4479 C4478 1.388 . S
C4479 C4480 1.390 . S
C4480 C4479 1.390 . S
C4480 C4481 1.394 . S
C4480 C4486 1.465 . S
C4481 C4476 1.399 . S
C4481 C4480 1.394 . S
C4481 C4482 1.516 . S
C4482 C4481 1.516 . S
C4482 C4483 1.502 . S
C4482 C4484 1.561 . S
C4482 C4485 1.526 . S
C4483 H4467 0.959 . S
C4483 H4468 0.959 . S
C4483 H4469 0.961 . S
C4483 C4482 1.502 . S
C4484 H4470 0.960 . S
C4484 H4471 0.961 . S
C4484 H4472 0.959 . S
C4484 C4482 1.561 . S
C4485 C4482 1.526 . S
C4485 C4486 1.396 . S
C4485 C4490 1.390 . S
C4486 C4480 1.465 . S
C4486 C4485 1.396 . S
C4486 C4487 1.399 . S
C4487 H4473 0.929 . S
C4487 C4486 1.399 . S
C4487 C4488 1.385 . S
C4488 H4474 0.931 . S
C4488 C4487 1.385 . S
C4488 C4489 1.389 . S
C4489 C4488 1.389 . S
C4489 C4490 1.387 . S
C4490 H4475 0.930 . S
C4490 C4485 1.390 . S
C4490 C4489 1.387 . S
H4491 C4503 0.930 . S
H4492 C4505 0.930 . S
H4493 C4506 0.930 . S
H4494 C4510 0.959 . S
H4495 C4510 0.959 . S
H4496 C4510 0.961 . S
H4497 C4511 0.960 . S
H4498 C4511 0.961 . S
H4499 C4511 0.959 . S
H4500 C4514 0.929 . S
H4501 C4515 0.931 . S
H4502 C4517 0.930 . S
C4503 H4491 0.930 . S
C4503 C4504 1.399 . S
C4503 C4508 1.399 . S
C4504 C4503 1.399 . S
C4504 C4505 1.376 . S
C4505 H4492 0.930 . S
C4505 C4504 1.376 . S
C4505 C4506 1.388 . S
C4506 H4493 0.930 . S
C4506 C4505 1.388 . S
C4506 C4507 1.390 . S
C4507 C4506 1.390 . S
C4507 C4508 1.394 . S
C4507 C4513 1.465 . S
C4508 C4503 1.399 . S
C4508 C4507 1.394 . S
C4508 C4509 1.516 . S
C4509 C4508 1.516 . S
C4509 C4510 1.502 . S
C4509 C4511 1.561 . S
C4509 C4512 1.526 . S
C4510 H4494 0.959 . S
C4510 H4495 0.959 . S
C4510 H4496 0.961 . S
C4510 C4509 1.502 . S
C4511 H4497 0.960 . S
C4511 H4498 0.961 . S
C4511 H4499 0.959 . S
C4511 C4509 1.561 . S
C4512 C4509 1.526 . S
C4512 C4513 1.396 . S
C4512 C4517 1.390 . S
C4513 C4507 1.465 . S
C4513 C4512 1.396 . S
C4513 C4514 1.399 . S
C4514 H4500 0.929 . S
C4514 C4513 1.399 . S
C4514 C4515 1.385 . S
C4515 H4501 0.931 . S
C4515 C4514 1.385 . S
C4515 C4516 1.389 . S
C4516 C4515 1.389 . S
C4516 C4517 1.387 . S
C4517 H4502 0.930 . S
C4517 C4512 1.390 . S
C4517 C4516 1.387 . S
H4518 C4530 0.930 . S
H4519 C4532 0.930 . S
H4520 C4533 0.930 . S
H4521 C4537 0.959 . S
H4522 C4537 0.959 . S
H4523 C4537 0.961 . S
H4524 C4538 0.960 . S
H4525 C4538 0.961 . S
H4526 C4538 0.959 . S
H4527 C4541 0.929 . S
H4528 C4542 0.931 . S
H4529 C4544 0.930 . S
C4530 H4518 0.930 . S
C4530 C4531 1.374 1_554 S
C4530 C4535 1.399 . S
C4531 C4530 1.374 1_556 S
C4531 C4532 1.407 . S
C4532 H4519 0.930 . S
C4532 C4531 1.407 . S
C4532 C4533 1.388 . S
C4533 H4520 0.930 . S
C4533 C4532 1.388 . S
C4533 C4534 1.390 . S
C4534 C4533 1.390 . S
C4534 C4535 1.394 1_556 S
C4534 C4540 1.465 . S
C4535 C4530 1.399 . S
C4535 C4534 1.394 1_554 S
C4535 C4536 1.516 . S
C4536 C4535 1.516 . S
C4536 C4537 1.502 . S
C4536 C4538 1.561 . S
C4536 C4539 1.526 . S
C4537 H4521 0.959 . S
C4537 H4522 0.959 . S
C4537 H4523 0.961 . S
C4537 C4536 1.502 . S
C4538 H4524 0.960 . S
C4538 H4525 0.961 . S
C4538 H4526 0.959 . S
C4538 C4536 1.561 . S
C4539 C4536 1.526 . S
C4539 C4540 1.396 1_554 S
C4539 C4544 1.390 . S
C4540 C4534 1.465 . S
C4540 C4539 1.396 1_556 S
C4540 C4541 1.399 . S
C4541 H4527 0.929 . S
C4541 C4540 1.399 . S
C4541 C4542 1.385 . S
C4542 H4528 0.931 . S
C4542 C4541 1.385 . S
C4542 C4543 1.419 . S
C4543 C4542 1.419 . S
C4543 C4544 1.362 1_556 S
C4544 H4529 0.930 . S
C4544 C4539 1.390 . S
C4544 C4543 1.362 1_554 S
H4545 C4557 0.930 . S
H4546 C4559 0.930 . S
H4547 C4560 0.930 1_545 S
H4548 C4564 0.959 . S
H4549 C4564 0.959 . S
H4550 C4564 0.961 . S
H4551 C4565 0.960 . S
H4552 C4565 0.961 . S
H4553 C4565 0.959 . S
H4554 C4568 0.929 1_545 S
H4555 C4569 0.955 . S
H4556 C4571 0.930 . S
C4557 H4545 0.930 . S
C4557 C4558 1.399 . S
C4557 C4562 1.399 . S
C4558 C4557 1.399 . S
C4558 C4559 1.376 . S
C4559 H4546 0.930 . S
C4559 C4558 1.376 . S
C4559 C4560 1.388 . S
C4560 H4547 0.930 1_565 S
C4560 C4559 1.388 . S
C4560 C4561 1.390 . S
C4561 C4560 1.390 . S
C4561 C4562 1.394 . S
C4561 C4567 1.465 . S
C4562 C4557 1.399 . S
C4562 C4561 1.394 . S
C4562 C4563 1.516 . S
C4563 C4562 1.516 . S
C4563 C4564 1.502 . S
C4563 C4565 1.561 . S
C4563 C4566 1.526 . S
C4564 H4548 0.959 . S
C4564 H4549 0.959 . S
C4564 H4550 0.961 . S
C4564 C4563 1.502 . S
C4565 H4551 0.960 . S
C4565 H4552 0.961 . S
C4565 H4553 0.959 . S
C4565 C4563 1.561 . S
C4566 C4563 1.526 . S
C4566 C4567 1.396 . S
C4566 C4571 1.390 . S
C4567 C4561 1.465 . S
C4567 C4566 1.396 . S
C4567 C4568 1.399 . S
C4568 H4554 0.929 1_565 S
C4568 C4567 1.399 . S
C4568 C4569 1.385 . S
C4569 H4555 0.955 . S
C4569 C4568 1.385 . S
C4569 C4570 1.389 . S
C4570 C4569 1.389 . S
C4570 C4571 1.387 . S
C4571 H4556 0.930 . S
C4571 C4566 1.390 . S
C4571 C4570 1.387 . S
H4572 C4584 0.930 . S
H4573 C4586 0.930 . S
H4574 C4587 0.930 . S
H4575 C4591 0.959 . S
H4576 C4591 0.959 . S
H4577 C4591 0.961 . S
H4578 C4592 0.960 . S
H4579 C4592 0.961 . S
H4580 C4592 0.959 . S
H4581 C4595 0.929 . S
H4582 C4596 0.931 . S
H4583 C4598 0.930 . S
C4584 H4572 0.930 . S
C4584 C4585 1.382 1_565 S
C4584 C4589 1.399 . S
C4585 C4584 1.382 1_545 S
C4585 C4586 1.398 . S
C4586 H4573 0.930 . S
C4586 C4585 1.398 . S
C4586 C4587 1.388 . S
C4587 H4574 0.930 . S
C4587 C4586 1.388 . S
C4587 C4588 1.390 . S
C4588 C4587 1.390 . S
C4588 C4589 1.394 1_545 S
C4588 C4594 1.465 . S
C4589 C4584 1.399 . S
C4589 C4588 1.394 1_565 S
C4589 C4590 1.516 . S
C4590 C4589 1.516 . S
C4590 C4591 1.502 . S
C4590 C4592 1.561 . S
C4590 C4593 1.526 . S
C4591 H4575 0.959 . S
C4591 H4576 0.959 . S
C4591 H4577 0.961 . S
C4591 C4590 1.502 . S
C4592 H4578 0.960 . S
C4592 H4579 0.961 . S
C4592 H4580 0.959 . S
C4592 C4590 1.561 . S
C4593 C4590 1.526 . S
C4593 C4594 1.396 1_565 S
C4593 C4598 1.390 . S
C4594 C4588 1.465 . S
C4594 C4593 1.396 1_545 S
C4594 C4595 1.399 . S
C4595 H4581 0.929 . S
C4595 C4594 1.399 . S
C4595 C4596 1.385 . S
C4596 H4582 0.931 . S
C4596 C4595 1.385 . S
C4596 C4597 1.389 . S
C4597 C4596 1.389 . S
C4597 C4598 1.387 1_545 S
C4598 H4583 0.930 . S
C4598 C4593 1.390 . S
C4598 C4597 1.387 1_565 S
H4599 C4611 0.930 1_565 S
H4600 C4613 0.930 . S
H4601 C4614 0.930 . S
H4602 C4618 0.959 . S
H4603 C4618 0.959 . S
H4604 C4618 0.961 1_556 S
H4605 C4619 0.960 1_556 S
H4606 C4619 0.961 . S
H4607 C4619 0.959 . S
H4608 C4622 0.929 . S
H4609 C4623 0.931 . S
H4610 C4625 0.930 1_565 S
C4611 H4599 0.930 1_545 S
C4611 C4612 1.399 . S
C4611 C4616 1.399 . S
C4612 C4611 1.399 . S
C4612 C4613 1.376 . S
C4613 H4600 0.930 . S
C4613 C4612 1.376 . S
C4613 C4614 1.388 . S
C4614 H4601 0.930 . S
C4614 C4613 1.388 . S
C4614 C4615 1.390 . S
C4615 C4614 1.390 . S
C4615 C4616 1.394 . S
C4615 C4621 1.465 1_556 S
C4616 C4611 1.399 . S
C4616 C4615 1.394 . S
C4616 C4617 1.516 1_546 S
C4617 C4616 1.516 1_564 S
C4617 C4618 1.502 . S
C4617 C4619 1.561 . S
C4617 C4620 1.526 1_565 S
C4618 H4602 0.959 . S
C4618 H4603 0.959 . S
C4618 H4604 0.961 1_554 S
C4618 C4617 1.502 . S
C4619 H4605 0.960 1_554 S
C4619 H4606 0.961 . S
C4619 H4607 0.959 . S
C4619 C4617 1.561 . S
C4620 C4617 1.526 1_545 S
C4620 C4621 1.396 . S
C4620 C4625 1.390 . S
C4621 C4615 1.465 1_554 S
C4621 C4620 1.396 . S
C4621 C4622 1.399 . S
C4622 H4608 0.929 . S
C4622 C4621 1.399 . S
C4622 C4623 1.385 . S
C4623 H4609 0.931 . S
C4623 C4622 1.385 . S
C4623 C4624 1.389 . S
C4624 C4623 1.389 . S
C4624 C4625 1.387 . S
C4625 H4610 0.930 1_545 S
C4625 C4620 1.390 . S
C4625 C4624 1.387 . S
H4626 C4638 0.930 . S
H4627 C4640 0.930 . S
H4628 C4641 0.930 . S
H4629 C4645 0.959 . S
H4630 C4645 0.959 . S
H4631 C4645 0.961 . S
H4632 C4646 0.960 . S
H4633 C4646 0.961 . S
H4634 C4646 0.959 . S
H4635 C4649 0.929 . S
H4636 C4650 0.931 . S
H4637 C4652 0.930 . S
C4638 H4626 0.930 . S
C4638 C4639 1.385 1_565 S
C4638 C4643 1.399 . S
C4639 C4638 1.385 1_545 S
C4639 C4640 1.394 . S
C4640 H4627 0.930 . S
C4640 C4639 1.394 . S
C4640 C4641 1.388 . S
C4641 H4628 0.930 . S
C4641 C4640 1.388 . S
C4641 C4642 1.390 . S
C4642 C4641 1.390 . S
C4642 C4643 1.394 1_545 S
C4642 C4648 1.465 . S
C4643 C4638 1.399 . S
C4643 C4642 1.394 1_565 S
C4643 C4644 1.516 . S
C4644 C4643 1.516 . S
C4644 C4645 1.502 . S
C4644 C4646 1.561 . S
C4644 C4647 1.526 . S
C4645 H4629 0.959 . S
C4645 H4630 0.959 . S
C4645 H4631 0.961 . S
C4645 C4644 1.502 . S
C4646 H4632 0.960 . S
C4646 H4633 0.961 . S
C4646 H4634 0.959 . S
C4646 C4644 1.561 . S
C4647 C4644 1.526 . S
C4647 C4648 1.396 1_565 S
C4647 C4652 1.390 . S
C4648 C4642 1.465 . S
C4648 C4647 1.396 1_545 S
C4648 C4649 1.399 . S
C4649 H4635 0.929 . S
C4649 C4648 1.399 . S
C4649 C4650 1.385 . S
C4650 H4636 0.931 . S
C4650 C4649 1.385 . S
C4650 C4651 1.389 . S
C4651 C4650 1.389 . S
C4651 C4652 1.387 1_545 S
C4652 H4637 0.930 . S
C4652 C4647 1.390 . S
C4652 C4651 1.387 1_565 S
H4653 C4665 0.940 . S
H4654 C4667 0.930 . S
H4655 C4668 0.930 . S
H4656 C4672 0.959 . S
H4657 C4672 0.959 . S
H4658 C4672 0.961 . S
H4659 C4673 0.960 . S
H4660 C4673 0.961 . S
H4661 C4673 0.959 . S
H4662 C4676 0.929 . S
H4663 C4677 0.931 . S
H4664 C4679 0.918 1_554 S
C4665 H4653 0.940 . S
C4665 C4666 1.391 1_554 S
C4665 C4670 1.397 1_554 S
C4666 C4665 1.391 1_556 S
C4666 C4667 1.376 . S
C4667 H4654 0.930 . S
C4667 C4666 1.376 . S
C4667 C4668 1.388 . S
C4668 H4655 0.930 . S
C4668 C4667 1.388 . S
C4668 C4669 1.390 . S
C4669 C4668 1.390 . S
C4669 C4670 1.394 . S
C4669 C4675 1.465 . S
C4670 C4665 1.397 1_556 S
C4670 C4669 1.394 . S
C4670 C4671 1.516 1_556 S
C4671 C4670 1.516 1_554 S
C4671 C4672 1.502 . S
C4671 C4673 1.561 . S
C4671 C4674 1.526 1_554 S
C4672 H4656 0.959 . S
C4672 H4657 0.959 . S
C4672 H4658 0.961 . S
C4672 C4671 1.502 . S
C4673 H4659 0.960 . S
C4673 H4660 0.961 . S
C4673 H4661 0.959 . S
C4673 C4671 1.561 . S
C4674 C4671 1.526 1_556 S
C4674 C4675 1.396 . S
C4674 C4679 1.392 . S
C4675 C4669 1.465 . S
C4675 C4674 1.396 . S
C4675 C4676 1.399 . S
C4676 H4662 0.929 . S
C4676 C4675 1.399 . S
C4676 C4677 1.385 . S
C4677 H4663 0.931 . S
C4677 C4676 1.385 . S
C4677 C4678 1.389 . S
C4678 C4677 1.389 . S
C4678 C4679 1.397 . S
C4679 H4664 0.918 1_556 S
C4679 C4674 1.392 . S
C4679 C4678 1.397 . S
H4680 C4692 0.930 1_556 S
H4681 C4694 0.930 . S
H4682 C4695 0.930 . S
H4683 C4699 0.959 . S
H4684 C4699 0.959 . S
H4685 C4699 0.961 1_655 S
H4686 C4700 0.960 1_655 S
H4687 C4700 0.961 . S
H4688 C4700 0.959 1_554 S
H4689 C4703 0.929 . S
H4690 C4704 0.931 . S
H4691 C4706 0.930 1_556 S
C4692 H4680 0.930 1_554 S
C4692 C4693 1.399 . S
C4692 C4697 1.399 . S
C4693 C4692 1.399 . S
C4693 C4694 1.376 . S
C4694 H4681 0.930 . S
C4694 C4693 1.376 . S
C4694 C4695 1.388 . S
C4695 H4682 0.930 . S
C4695 C4694 1.388 . S
C4695 C4696 1.390 . S
C4696 C4695 1.390 . S
C4696 C4697 1.394 . S
C4696 C4702 1.465 1_655 S
C4697 C4692 1.399 . S
C4697 C4696 1.394 . S
C4697 C4698 1.516 1_654 S
C4698 C4697 1.516 1_456 S
C4698 C4699 1.502 . S
C4698 C4700 1.561 . S
C4698 C4701 1.526 1_556 S
C4699 H4683 0.959 . S
C4699 H4684 0.959 . S
C4699 H4685 0.961 1_455 S
C4699 C4698 1.502 . S
C4700 H4686 0.960 1_455 S
C4700 H4687 0.961 . S
C4700 H4688 0.959 1_556 S
C4700 C4698 1.561 . S
C4701 C4698 1.526 1_554 S
C4701 C4702 1.396 . S
C4701 C4706 1.390 . S
C4702 C4696 1.465 1_455 S
C4702 C4701 1.396 . S
C4702 C4703 1.399 . S
C4703 H4689 0.929 . S
C4703 C4702 1.399 . S
C4703 C4704 1.385 . S
C4704 H4690 0.931 . S
C4704 C4703 1.385 . S
C4704 C4705 1.389 . S
C4705 C4704 1.389 . S
C4705 C4706 1.387 . S
C4706 H4691 0.930 1_554 S
C4706 C4701 1.390 . S
C4706 C4705 1.387 . S
H4707 C4719 0.930 . S
H4708 C4721 0.930 . S
H4709 C4722 0.930 . S
H4710 C4726 0.959 . S
H4711 C4726 0.959 . S
H4712 C4726 0.961 . S
H4713 C4727 0.960 . S
H4714 C4727 0.961 . S
H4715 C4727 0.959 . S
H4716 C4730 0.929 . S
H4717 C4731 0.931 . S
H4718 C4733 0.930 . S
C4719 H4707 0.930 . S
C4719 C4720 1.399 1_655 S
C4719 C4724 1.399 . S
C4720 C4719 1.399 1_455 S
C4720 C4721 1.376 . S
C4721 H4708 0.930 . S
C4721 C4720 1.376 . S
C4721 C4722 1.388 . S
C4722 H4709 0.930 . S
C4722 C4721 1.388 . S
C4722 C4723 1.390 . S
C4723 C4722 1.390 . S
C4723 C4724 1.394 1_455 S
C4723 C4729 1.465 . S
C4724 C4719 1.399 . S
C4724 C4723 1.394 1_655 S
C4724 C4725 1.516 . S
C4725 C4724 1.516 . S
C4725 C4726 1.502 . S
C4725 C4727 1.561 . S
C4725 C4728 1.526 . S
C4726 H4710 0.959 . S
C4726 H4711 0.959 . S
C4726 H4712 0.961 . S
C4726 C4725 1.502 . S
C4727 H4713 0.960 . S
C4727 H4714 0.961 . S
C4727 H4715 0.959 . S
C4727 C4725 1.561 . S
C4728 C4725 1.526 . S
C4728 C4729 1.396 1_655 S
C4728 C4733 1.390 . S
C4729 C4723 1.465 . S
C4729 C4728 1.396 1_455 S
C4729 C4730 1.399 . S
C4730 H4716 0.929 . S
C4730 C4729 1.399 . S
C4730 C4731 1.385 . S
C4731 H4717 0.931 . S
C4731 C4730 1.385 . S
C4731 C4732 1.389 . S
C4732 C4731 1.389 . S
C4732 C4733 1.387 1_455 S
C4733 H4718 0.930 . S
C4733 C4728 1.390 . S
C4733 C4732 1.387 1_655 S
H4734 C4746 0.930 . S
H4735 C4748 0.930 . S
H4736 C4749 0.930 . S
H4737 C4753 0.959 . S
H4738 C4753 0.959 . S
H4739 C4753 0.961 . S
H4740 C4754 0.960 . S
H4741 C4754 0.961 . S
H4742 C4754 0.959 . S
H4743 C4757 0.929 . S
H4744 C4758 0.931 . S
H4745 C4760 0.930 . S
C4746 H4734 0.930 . S
C4746 C4747 1.399 . S
C4746 C4751 1.399 . S
C4747 C4746 1.399 . S
C4747 C4748 1.376 . S
C4748 H4735 0.930 . S
C4748 C4747 1.376 . S
C4748 C4749 1.388 . S
C4749 H4736 0.930 . S
C4749 C4748 1.388 . S
C4749 C4750 1.390 . S
C4750 C4749 1.390 . S
C4750 C4751 1.394 . S
C4750 C4756 1.465 . S
C4751 C4746 1.399 . S
C4751 C4750 1.394 . S
C4751 C4752 1.516 . S
C4752 C4751 1.516 . S
C4752 C4753 1.502 . S
C4752 C4754 1.561 . S
C4752 C4755 1.526 . S
C4753 H4737 0.959 . S
C4753 H4738 0.959 . S
C4753 H4739 0.961 . S
C4753 C4752 1.502 . S
C4754 H4740 0.960 . S
C4754 H4741 0.961 . S
C4754 H4742 0.959 . S
C4754 C4752 1.561 . S
C4755 C4752 1.526 . S
C4755 C4756 1.396 . S
C4755 C4760 1.390 . S
C4756 C4750 1.465 . S
C4756 C4755 1.396 . S
C4756 C4757 1.399 . S
C4757 H4743 0.929 . S
C4757 C4756 1.399 . S
C4757 C4758 1.385 . S
C4758 H4744 0.931 . S
C4758 C4757 1.385 . S
C4758 C4759 1.389 . S
C4759 C4758 1.389 . S
C4759 C4760 1.387 . S
C4760 H4745 0.930 . S
C4760 C4755 1.390 . S
C4760 C4759 1.387 . S
H4761 C4773 0.930 . S
H4762 C4775 0.930 . S
H4763 C4776 0.930 . S
H4764 C4780 0.959 . S
H4765 C4780 0.959 . S
H4766 C4780 0.961 1_655 S
H4767 C4781 0.960 1_655 S
H4768 C4781 0.961 . S
H4769 C4781 0.959 . S
H4770 C4784 0.929 . S
H4771 C4785 0.931 . S
H4772 C4787 0.930 . S
C4773 H4761 0.930 . S
C4773 C4774 1.399 . S
C4773 C4778 1.399 . S
C4774 C4773 1.399 . S
C4774 C4775 1.376 . S
C4775 H4762 0.930 . S
C4775 C4774 1.376 . S
C4775 C4776 1.388 . S
C4776 H4763 0.930 . S
C4776 C4775 1.388 . S
C4776 C4777 1.390 . S
C4777 C4776 1.390 . S
C4777 C4778 1.394 . S
C4777 C4783 1.465 1_655 S
C4778 C4773 1.399 . S
C4778 C4777 1.394 . S
C4778 C4779 1.478 1_655 S
C4779 C4778 1.478 1_455 S
C4779 C4780 1.503 . S
C4779 C4781 1.563 . S
C4779 C4782 1.564 . S
C4780 H4764 0.959 . S
C4780 H4765 0.959 . S
C4780 H4766 0.961 1_455 S
C4780 C4779 1.503 . S
C4781 H4767 0.960 1_455 S
C4781 H4768 0.961 . S
C4781 H4769 0.959 . S
C4781 C4779 1.563 . S
C4782 C4779 1.564 . S
C4782 C4783 1.396 . S
C4782 C4787 1.390 . S
C4783 C4777 1.465 1_455 S
C4783 C4782 1.396 . S
C4783 C4784 1.399 . S
C4784 H4770 0.929 . S
C4784 C4783 1.399 . S
C4784 C4785 1.385 . S
C4785 H4771 0.931 . S
C4785 C4784 1.385 . S
C4785 C4786 1.389 . S
C4786 C4785 1.389 . S
C4786 C4787 1.387 . S
C4787 H4772 0.930 . S
C4787 C4782 1.390 . S
C4787 C4786 1.387 . S
H4788 C4800 0.930 . S
H4789 C4802 0.930 . S
H4790 C4803 0.930 . S
H4791 C4807 0.959 . S
H4792 C4807 0.959 . S
H4793 C4807 0.961 . S
H4794 C4808 0.960 . S
H4795 C4808 0.961 . S
H4796 C4808 0.959 . S
H4797 C4811 0.929 . S
H4798 C4812 0.931 . S
H4799 C4814 0.930 . S
C4800 H4788 0.930 . S
C4800 C4801 1.400 1_655 S
C4800 C4805 1.399 . S
C4801 C4800 1.400 1_455 S
C4801 C4802 1.375 . S
C4802 H4789 0.930 . S
C4802 C4801 1.375 . S
C4802 C4803 1.388 . S
C4803 H4790 0.930 . S
C4803 C4802 1.388 . S
C4803 C4804 1.390 . S
C4804 C4803 1.390 . S
C4804 C4805 1.394 1_455 S
C4804 C4810 1.465 . S
C4805 C4800 1.399 . S
C4805 C4804 1.394 1_655 S
C4805 C4806 1.516 . S
C4806 C4805 1.516 . S
C4806 C4807 1.502 . S
C4806 C4808 1.561 1_655 S
C4806 C4809 1.526 . S
C4807 H4791 0.959 . S
C4807 H4792 0.959 . S
C4807 H4793 0.961 . S
C4807 C4806 1.502 . S
C4808 H4794 0.960 . S
C4808 H4795 0.961 . S
C4808 H4796 0.959 . S
C4808 C4806 1.561 1_455 S
C4809 C4806 1.526 . S
C4809 C4810 1.396 1_655 S
C4809 C4814 1.390 . S
C4810 C4804 1.465 . S
C4810 C4809 1.396 1_455 S
C4810 C4811 1.399 . S
C4811 H4797 0.929 . S
C4811 C4810 1.399 . S
C4811 C4812 1.385 . S
C4812 H4798 0.931 . S
C4812 C4811 1.385 . S
C4812 C4813 1.389 . S
C4813 C4812 1.389 . S
C4813 C4814 1.387 1_455 S
C4814 H4799 0.930 . S
C4814 C4809 1.390 . S
C4814 C4813 1.387 1_655 S
H4815 C4827 0.930 . S
H4816 C4829 0.930 . S
H4817 C4830 0.930 . S
H4818 C4834 0.959 . S
H4819 C4834 0.959 . S
H4820 C4834 0.961 . S
H4821 C4835 0.960 . S
H4822 C4835 0.961 . S
H4823 C4835 0.959 . S
H4824 C4838 0.929 . S
H4825 C4839 0.931 . S
H4826 C4841 0.930 . S
C4827 H4815 0.930 . S
C4827 C4828 1.399 . S
C4827 C4832 1.399 . S
C4828 C4827 1.399 . S
C4828 C4829 1.376 . S
C4829 H4816 0.930 . S
C4829 C4828 1.376 . S
C4829 C4830 1.388 . S
C4830 H4817 0.930 . S
C4830 C4829 1.388 . S
C4830 C4831 1.390 . S
C4831 C4830 1.390 . S
C4831 C4832 1.394 . S
C4831 C4837 1.465 . S
C4832 C4827 1.399 . S
C4832 C4831 1.394 . S
C4832 C4833 1.516 . S
C4833 C4832 1.516 . S
C4833 C4834 1.502 . S
C4833 C4835 1.561 . S
C4833 C4836 1.526 . S
C4834 H4818 0.959 . S
C4834 H4819 0.959 . S
C4834 H4820 0.961 . S
C4834 C4833 1.502 . S
C4835 H4821 0.960 . S
C4835 H4822 0.961 . S
C4835 H4823 0.959 . S
C4835 C4833 1.561 . S
C4836 C4833 1.526 . S
C4836 C4837 1.396 . S
C4836 C4841 1.390 . S
C4837 C4831 1.465 . S
C4837 C4836 1.396 . S
C4837 C4838 1.399 . S
C4838 H4824 0.929 . S
C4838 C4837 1.399 . S
C4838 C4839 1.385 . S
C4839 H4825 0.931 . S
C4839 C4838 1.385 . S
C4839 C4840 1.389 . S
C4840 C4839 1.389 . S
C4840 C4841 1.387 . S
C4841 H4826 0.930 . S
C4841 C4836 1.390 . S
C4841 C4840 1.387 . S
H4842 C4854 0.930 . S
H4843 C4856 0.930 . S
H4844 C4857 0.930 . S
H4845 C4861 0.959 . S
H4846 C4861 0.959 . S
H4847 C4861 0.961 1_545 S
H4848 C4862 0.960 1_545 S
H4849 C4862 0.961 . S
H4850 C4862 0.959 . S
H4851 C4865 0.929 . S
H4852 C4866 0.931 . S
H4853 C4868 0.930 . S
C4854 H4842 0.930 . S
C4854 C4855 1.399 . S
C4854 C4859 1.399 . S
C4855 C4854 1.399 . S
C4855 C4856 1.376 . S
C4856 H4843 0.930 . S
C4856 C4855 1.376 . S
C4856 C4857 1.388 . S
C4857 H4844 0.930 . S
C4857 C4856 1.388 . S
C4857 C4858 1.390 . S
C4858 C4857 1.390 . S
C4858 C4859 1.394 . S
C4858 C4864 1.465 1_545 S
C4859 C4854 1.399 . S
C4859 C4858 1.394 . S
C4859 C4860 1.516 1_545 S
C4860 C4859 1.516 1_565 S
C4860 C4861 1.502 . S
C4860 C4862 1.561 . S
C4860 C4863 1.526 . S
C4861 H4845 0.959 . S
C4861 H4846 0.959 . S
C4861 H4847 0.961 1_565 S
C4861 C4860 1.502 . S
C4862 H4848 0.960 1_565 S
C4862 H4849 0.961 . S
C4862 H4850 0.959 . S
C4862 C4860 1.561 . S
C4863 C4860 1.526 . S
C4863 C4864 1.396 . S
C4863 C4868 1.390 . S
C4864 C4858 1.465 1_565 S
C4864 C4863 1.396 . S
C4864 C4865 1.399 . S
C4865 H4851 0.929 . S
C4865 C4864 1.399 . S
C4865 C4866 1.385 . S
C4866 H4852 0.931 . S
C4866 C4865 1.385 . S
C4866 C4867 1.389 . S
C4867 C4866 1.389 . S
C4867 C4868 1.387 . S
C4868 H4853 0.930 . S
C4868 C4863 1.390 . S
C4868 C4867 1.387 . S
H4869 C4881 0.931 . S
H4870 C4883 0.930 . S
H4871 C4884 0.930 . S
H4872 C4888 0.959 . S
H4873 C4888 0.959 . S
H4874 C4888 0.961 . S
H4875 C4889 0.960 . S
H4876 C4889 0.961 . S
H4877 C4889 0.959 . S
H4878 C4892 0.929 . S
H4879 C4893 0.931 . S
H4880 C4895 0.930 . S
C4881 H4869 0.931 . S
C4881 C4882 1.398 1_554 S
C4881 C4886 1.396 1_554 S
C4882 C4881 1.398 1_556 S
C4882 C4883 1.376 . S
C4883 H4870 0.930 . S
C4883 C4882 1.376 . S
C4883 C4884 1.388 . S
C4884 H4871 0.930 . S
C4884 C4883 1.388 . S
C4884 C4885 1.390 . S
C4885 C4884 1.390 . S
C4885 C4886 1.405 . S
C4885 C4891 1.465 . S
C4886 C4881 1.396 1_556 S
C4886 C4885 1.405 . S
C4886 C4887 1.513 1_556 S
C4887 C4886 1.513 1_554 S
C4887 C4888 1.519 . S
C4887 C4889 1.544 1_554 S
C4887 C4890 1.525 1_554 S
C4888 H4872 0.959 . S
C4888 H4873 0.959 . S
C4888 H4874 0.961 . S
C4888 C4887 1.519 . S
C4889 H4875 0.960 . S
C4889 H4876 0.961 . S
C4889 H4877 0.959 . S
C4889 C4887 1.544 1_556 S
C4890 C4887 1.525 1_556 S
C4890 C4891 1.400 . S
C4890 C4895 1.388 1_556 S
C4891 C4885 1.465 . S
C4891 C4890 1.400 . S
C4891 C4892 1.399 . S
C4892 H4878 0.929 . S
C4892 C4891 1.399 . S
C4892 C4893 1.385 . S
C4893 H4879 0.931 . S
C4893 C4892 1.385 . S
C4893 C4894 1.391 . S
C4894 C4893 1.391 . S
C4894 C4895 1.386 1_556 S
C4895 H4880 0.930 . S
C4895 C4890 1.388 1_554 S
C4895 C4894 1.386 1_554 S
H4896 C4908 0.930 . S
H4897 C4910 0.930 . S
H4898 C4911 0.930 . S
H4899 C4915 0.959 . S
H4900 C4915 0.959 . S
H4901 C4915 0.961 1_545 S
H4902 C4916 0.960 1_545 S
H4903 C4916 0.961 . S
H4904 C4916 0.959 . S
H4905 C4919 0.929 . S
H4906 C4920 0.931 . S
H4907 C4922 0.930 . S
C4908 H4896 0.930 . S
C4908 C4909 1.399 . S
C4908 C4913 1.399 . S
C4909 C4908 1.399 . S
C4909 C4910 1.376 . S
C4910 H4897 0.930 . S
C4910 C4909 1.376 . S
C4910 C4911 1.388 . S
C4911 H4898 0.930 . S
C4911 C4910 1.388 . S
C4911 C4912 1.390 . S
C4912 C4911 1.390 . S
C4912 C4913 1.394 . S
C4912 C4918 1.465 1_545 S
C4913 C4908 1.399 . S
C4913 C4912 1.394 . S
C4913 C4914 1.516 1_545 S
C4914 C4913 1.516 1_565 S
C4914 C4915 1.502 1_655 S
C4914 C4916 1.561 . S
C4914 C4917 1.526 . S
C4915 H4899 0.959 . S
C4915 H4900 0.959 . S
C4915 H4901 0.961 1_565 S
C4915 C4914 1.502 1_455 S
C4916 H4902 0.960 1_565 S
C4916 H4903 0.961 . S
C4916 H4904 0.959 . S
C4916 C4914 1.561 . S
C4917 C4914 1.526 . S
C4917 C4918 1.396 . S
C4917 C4922 1.390 . S
C4918 C4912 1.465 1_565 S
C4918 C4917 1.396 . S
C4918 C4919 1.399 . S
C4919 H4905 0.929 . S
C4919 C4918 1.399 . S
C4919 C4920 1.385 . S
C4920 H4906 0.931 . S
C4920 C4919 1.385 . S
C4920 C4921 1.389 . S
C4921 C4920 1.389 . S
C4921 C4922 1.387 . S
C4922 H4907 0.930 . S
C4922 C4917 1.390 . S
C4922 C4921 1.387 . S
H4923 C4935 0.930 . S
H4924 C4937 0.930 . S
H4925 C4938 0.930 . S
H4926 C4942 0.959 . S
H4927 C4942 0.959 . S
H4928 C4942 0.961 . S
H4929 C4943 0.960 . S
H4930 C4943 0.961 . S
H4931 C4943 0.959 . S
H4932 C4946 0.929 . S
H4933 C4947 0.931 . S
H4934 C4949 0.930 . S
C4935 H4923 0.930 . S
C4935 C4936 1.399 . S
C4935 C4940 1.399 . S
C4936 C4935 1.399 . S
C4936 C4937 1.376 . S
C4937 H4924 0.930 . S
C4937 C4936 1.376 . S
C4937 C4938 1.388 . S
C4938 H4925 0.930 . S
C4938 C4937 1.388 . S
C4938 C4939 1.390 . S
C4939 C4938 1.390 . S
C4939 C4940 1.394 . S
C4939 C4945 1.465 . S
C4940 C4935 1.399 . S
C4940 C4939 1.394 . S
C4940 C4941 1.516 . S
C4941 C4940 1.516 . S
C4941 C4942 1.502 . S
C4941 C4943 1.561 . S
C4941 C4944 1.526 . S
C4942 H4926 0.959 . S
C4942 H4927 0.959 . S
C4942 H4928 0.961 . S
C4942 C4941 1.502 . S
C4943 H4929 0.960 . S
C4943 H4930 0.961 . S
C4943 H4931 0.959 . S
C4943 C4941 1.561 . S
C4944 C4941 1.526 . S
C4944 C4945 1.396 . S
C4944 C4949 1.390 . S
C4945 C4939 1.465 . S
C4945 C4944 1.396 . S
C4945 C4946 1.399 . S
C4946 H4932 0.929 . S
C4946 C4945 1.399 . S
C4946 C4947 1.385 . S
C4947 H4933 0.931 . S
C4947 C4946 1.385 . S
C4947 C4948 1.389 . S
C4948 C4947 1.389 . S
C4948 C4949 1.387 . S
C4949 H4934 0.930 . S
C4949 C4944 1.390 . S
C4949 C4948 1.387 . S
H4950 C4962 0.930 . S
H4951 C4964 0.930 . S
H4952 C4965 0.930 . S
H4953 C4969 0.960 . S
H4954 C4969 0.963 . S
H4955 C4969 0.957 1_556 S
H4956 C4970 0.982 . S
H4957 C4970 0.941 1_554 S
H4958 C4970 0.957 1_554 S
H4959 C4973 0.929 . S
H4960 C4974 0.931 . S
H4961 C4976 0.930 . S
C4962 H4950 0.930 . S
C4962 C4963 1.399 . S
C4962 C4967 1.399 . S
C4963 C4962 1.399 . S
C4963 C4964 1.376 . S
C4964 H4951 0.930 . S
C4964 C4963 1.376 . S
C4964 C4965 1.388 . S
C4965 H4952 0.930 . S
C4965 C4964 1.388 . S
C4965 C4966 1.390 . S
C4966 C4965 1.390 . S
C4966 C4967 1.394 . S
C4966 C4972 1.465 1_556 S
C4967 C4962 1.399 . S
C4967 C4966 1.394 . S
C4967 C4968 1.543 . S
C4968 C4967 1.543 . S
C4968 C4969 1.501 1_556 S
C4968 C4970 1.561 . S
C4968 C4971 1.500 1_556 S
C4969 H4953 0.960 . S
C4969 H4954 0.963 . S
C4969 H4955 0.957 1_554 S
C4969 C4968 1.501 1_554 S
C4970 H4956 0.982 . S
C4970 H4957 0.941 1_556 S
C4970 H4958 0.957 1_556 S
C4970 C4968 1.561 . S
C4971 C4968 1.500 1_554 S
C4971 C4972 1.396 . S
C4971 C4976 1.390 . S
C4972 C4966 1.465 1_554 S
C4972 C4971 1.396 . S
C4972 C4973 1.399 . S
C4973 H4959 0.929 . S
C4973 C4972 1.399 . S
C4973 C4974 1.385 . S
C4974 H4960 0.931 . S
C4974 C4973 1.385 . S
C4974 C4975 1.389 . S
C4975 C4974 1.389 . S
C4975 C4976 1.387 . S
C4976 H4961 0.930 . S
C4976 C4971 1.390 . S
C4976 C4975 1.387 . S
H4977 C4989 0.930 . S
H4978 C4991 0.930 . S
H4979 C4992 0.930 . S
H4980 C4996 0.959 . S
H4981 C4996 0.959 . S
H4982 C4996 0.961 . S
H4983 C4997 0.960 . S
H4984 C4997 0.961 . S
H4985 C4997 0.959 . S
H4986 C5000 0.929 . S
H4987 C5001 0.931 . S
H4988 C5003 0.930 . S
C4989 H4977 0.930 . S
C4989 C4990 1.399 . S
C4989 C4994 1.399 . S
C4990 C4989 1.399 . S
C4990 C4991 1.376 . S
C4991 H4978 0.930 . S
C4991 C4990 1.376 . S
C4991 C4992 1.388 . S
C4992 H4979 0.930 . S
C4992 C4991 1.388 . S
C4992 C4993 1.390 . S
C4993 C4992 1.390 . S
C4993 C4994 1.394 . S
C4993 C4999 1.465 . S
C4994 C4989 1.399 . S
C4994 C4993 1.394 . S
C4994 C4995 1.516 . S
C4995 C4994 1.516 . S
C4995 C4996 1.502 . S
C4995 C4997 1.561 . S
C4995 C4998 1.526 . S
C4996 H4980 0.959 . S
C4996 H4981 0.959 . S
C4996 H4982 0.961 . S
C4996 C4995 1.502 . S
C4997 H4983 0.960 . S
C4997 H4984 0.961 . S
C4997 H4985 0.959 . S
C4997 C4995 1.561 . S
C4998 C4995 1.526 . S
C4998 C4999 1.396 . S
C4998 C5003 1.390 . S
C4999 C4993 1.465 . S
C4999 C4998 1.396 . S
C4999 C5000 1.399 . S
C5000 H4986 0.929 . S
C5000 C4999 1.399 . S
C5000 C5001 1.385 . S
C5001 H4987 0.931 . S
C5001 C5000 1.385 . S
C5001 C5002 1.389 . S
C5002 C5001 1.389 . S
C5002 C5003 1.387 . S
C5003 H4988 0.930 . S
C5003 C4998 1.390 . S
C5003 C5002 1.387 . S
H5004 C5016 0.930 . S
H5005 C5018 0.930 . S
H5006 C5019 0.930 . S
H5007 C5023 0.959 . S
H5008 C5023 0.959 . S
H5009 C5023 0.961 . S
H5010 C5024 0.960 . S
H5011 C5024 0.961 . S
H5012 C5024 0.959 . S
H5013 C5027 0.929 . S
H5014 C5028 0.931 . S
H5015 C5030 0.930 . S
C5016 H5004 0.930 . S
C5016 C5017 1.399 . S
C5016 C5021 1.399 . S
C5017 C5016 1.399 . S
C5017 C5018 1.376 . S
C5018 H5005 0.930 . S
C5018 C5017 1.376 . S
C5018 C5019 1.388 . S
C5019 H5006 0.930 . S
C5019 C5018 1.388 . S
C5019 C5020 1.390 . S
C5020 C5019 1.390 . S
C5020 C5021 1.394 . S
C5020 C5026 1.465 . S
C5021 C5016 1.399 . S
C5021 C5020 1.394 . S
C5021 C5022 1.516 . S
C5022 C5021 1.516 . S
C5022 C5023 1.502 . S
C5022 C5024 1.561 . S
C5022 C5025 1.526 . S
C5023 H5007 0.959 . S
C5023 H5008 0.959 . S
C5023 H5009 0.961 . S
C5023 C5022 1.502 . S
C5024 H5010 0.960 . S
C5024 H5011 0.961 . S
C5024 H5012 0.959 . S
C5024 C5022 1.561 . S
C5025 C5022 1.526 . S
C5025 C5026 1.396 . S
C5025 C5030 1.390 . S
C5026 C5020 1.465 . S
C5026 C5025 1.396 . S
C5026 C5027 1.399 . S
C5027 H5013 0.929 . S
C5027 C5026 1.399 . S
C5027 C5028 1.385 . S
C5028 H5014 0.931 . S
C5028 C5027 1.385 . S
C5028 C5029 1.389 . S
C5029 C5028 1.389 . S
C5029 C5030 1.387 . S
C5030 H5015 0.930 . S
C5030 C5025 1.390 . S
C5030 C5029 1.387 . S
H5031 C5043 0.930 . S
H5032 C5045 0.930 . S
H5033 C5046 0.930 . S
H5034 C5050 0.959 . S
H5035 C5050 0.959 . S
H5036 C5050 0.961 . S
H5037 C5051 0.960 . S
H5038 C5051 0.961 . S
H5039 C5051 0.959 . S
H5040 C5054 0.929 . S
H5041 C5055 0.931 . S
H5042 C5057 0.930 . S
C5043 H5031 0.930 . S
C5043 C5044 1.399 . S
C5043 C5048 1.399 . S
C5044 C5043 1.399 . S
C5044 C5045 1.376 . S
C5045 H5032 0.930 . S
C5045 C5044 1.376 . S
C5045 C5046 1.388 . S
C5046 H5033 0.930 . S
C5046 C5045 1.388 . S
C5046 C5047 1.390 . S
C5047 C5046 1.390 . S
C5047 C5048 1.394 . S
C5047 C5053 1.465 . S
C5048 C5043 1.399 . S
C5048 C5047 1.394 . S
C5048 C5049 1.516 . S
C5049 C5048 1.516 . S
C5049 C5050 1.502 . S
C5049 C5051 1.561 . S
C5049 C5052 1.526 . S
C5050 H5034 0.959 . S
C5050 H5035 0.959 . S
C5050 H5036 0.961 . S
C5050 C5049 1.502 . S
C5051 H5037 0.960 . S
C5051 H5038 0.961 . S
C5051 H5039 0.959 . S
C5051 C5049 1.561 . S
C5052 C5049 1.526 . S
C5052 C5053 1.396 . S
C5052 C5057 1.390 . S
C5053 C5047 1.465 . S
C5053 C5052 1.396 . S
C5053 C5054 1.399 . S
C5054 H5040 0.929 . S
C5054 C5053 1.399 . S
C5054 C5055 1.385 . S
C5055 H5041 0.931 . S
C5055 C5054 1.385 . S
C5055 C5056 1.389 . S
C5056 C5055 1.389 . S
C5056 C5057 1.387 . S
C5057 H5042 0.930 . S
C5057 C5052 1.390 . S
C5057 C5056 1.387 . S
H5058 C5070 0.930 . S
H5059 C5072 0.930 . S
H5060 C5073 0.930 . S
H5061 C5077 0.959 . S
H5062 C5077 0.959 . S
H5063 C5077 0.961 . S
H5064 C5078 0.960 . S
H5065 C5078 0.961 . S
H5066 C5078 0.959 . S
H5067 C5081 0.929 . S
H5068 C5082 0.931 . S
H5069 C5084 0.930 . S
C5070 H5058 0.930 . S
C5070 C5071 1.399 . S
C5070 C5075 1.399 . S
C5071 C5070 1.399 . S
C5071 C5072 1.376 . S
C5072 H5059 0.930 . S
C5072 C5071 1.376 . S
C5072 C5073 1.388 . S
C5073 H5060 0.930 . S
C5073 C5072 1.388 . S
C5073 C5074 1.390 . S
C5074 C5073 1.390 . S
C5074 C5075 1.394 . S
C5074 C5080 1.465 . S
C5075 C5070 1.399 . S
C5075 C5074 1.394 . S
C5075 C5076 1.516 . S
C5076 C5075 1.516 . S
C5076 C5077 1.502 . S
C5076 C5078 1.561 . S
C5076 C5079 1.526 . S
C5077 H5061 0.959 . S
C5077 H5062 0.959 . S
C5077 H5063 0.961 . S
C5077 C5076 1.502 . S
C5078 H5064 0.960 . S
C5078 H5065 0.961 . S
C5078 H5066 0.959 . S
C5078 C5076 1.561 . S
C5079 C5076 1.526 . S
C5079 C5080 1.396 . S
C5079 C5084 1.390 . S
C5080 C5074 1.465 . S
C5080 C5079 1.396 . S
C5080 C5081 1.399 . S
C5081 H5067 0.929 . S
C5081 C5080 1.399 . S
C5081 C5082 1.385 . S
C5082 H5068 0.931 . S
C5082 C5081 1.385 . S
C5082 C5083 1.389 . S
C5083 C5082 1.389 . S
C5083 C5084 1.387 . S
C5084 H5069 0.930 . S
C5084 C5079 1.390 . S
C5084 C5083 1.387 . S
H5085 C5097 0.930 . S
H5086 C5099 0.930 . S
H5087 C5100 0.930 . S
H5088 C5104 0.959 . S
H5089 C5104 0.959 . S
H5090 C5104 0.961 1_565 S
H5091 C5105 0.934 1_565 S
H5092 C5105 0.984 . S
H5093 C5105 0.962 . S
H5094 C5108 0.929 . S
H5095 C5109 0.931 . S
H5096 C5111 0.930 . S
C5097 H5085 0.930 . S
C5097 C5098 1.399 . S
C5097 C5102 1.399 . S
C5098 C5097 1.399 . S
C5098 C5099 1.376 . S
C5099 H5086 0.930 . S
C5099 C5098 1.376 . S
C5099 C5100 1.388 . S
C5100 H5087 0.930 . S
C5100 C5099 1.388 . S
C5100 C5101 1.390 . S
C5101 C5100 1.390 . S
C5101 C5102 1.394 . S
C5101 C5107 1.465 1_565 S
C5102 C5097 1.399 . S
C5102 C5101 1.394 . S
C5102 C5103 1.477 1_565 S
C5103 C5102 1.477 1_545 S
C5103 C5104 1.504 . S
C5103 C5105 1.561 . S
C5103 C5106 1.567 . S
C5104 H5088 0.959 . S
C5104 H5089 0.959 . S
C5104 H5090 0.961 1_545 S
C5104 C5103 1.504 . S
C5105 H5091 0.934 1_545 S
C5105 H5092 0.984 . S
C5105 H5093 0.962 . S
C5105 C5103 1.561 . S
C5106 C5103 1.567 . S
C5106 C5107 1.396 . S
C5106 C5111 1.390 . S
C5107 C5101 1.465 1_545 S
C5107 C5106 1.396 . S
C5107 C5108 1.399 . S
C5108 H5094 0.929 . S
C5108 C5107 1.399 . S
C5108 C5109 1.385 . S
C5109 H5095 0.931 . S
C5109 C5108 1.385 . S
C5109 C5110 1.389 . S
C5110 C5109 1.389 . S
C5110 C5111 1.387 . S
C5111 H5096 0.930 . S
C5111 C5106 1.390 . S
C5111 C5110 1.387 . S
H5112 C5124 0.930 . S
H5113 C5126 0.930 . S
H5114 C5127 0.930 . S
H5115 C5131 0.959 . S
H5116 C5131 0.959 . S
H5117 C5131 0.961 . S
H5118 C5132 0.960 . S
H5119 C5132 0.961 . S
H5120 C5132 0.959 . S
H5121 C5135 0.929 . S
H5122 C5136 0.931 . S
H5123 C5138 0.930 . S
C5124 H5112 0.930 . S
C5124 C5125 1.399 . S
C5124 C5129 1.399 1_554 S
C5125 C5124 1.399 . S
C5125 C5126 1.376 1_554 S
C5126 H5113 0.930 . S
C5126 C5125 1.376 1_556 S
C5126 C5127 1.388 . S
C5127 H5114 0.930 . S
C5127 C5126 1.388 . S
C5127 C5128 1.390 . S
C5128 C5127 1.390 . S
C5128 C5129 1.394 . S
C5128 C5134 1.465 . S
C5129 C5124 1.399 1_556 S
C5129 C5128 1.394 . S
C5129 C5130 1.516 . S
C5130 C5129 1.516 . S
C5130 C5131 1.498 1_556 S
C5130 C5132 1.565 . S
C5130 C5133 1.525 . S
C5131 H5115 0.959 . S
C5131 H5116 0.959 . S
C5131 H5117 0.961 . S
C5131 C5130 1.498 1_554 S
C5132 H5118 0.960 . S
C5132 H5119 0.961 . S
C5132 H5120 0.959 . S
C5132 C5130 1.565 . S
C5133 C5130 1.525 . S
C5133 C5134 1.400 . S
C5133 C5138 1.388 1_556 S
C5134 C5128 1.465 . S
C5134 C5133 1.400 . S
C5134 C5135 1.399 . S
C5135 H5121 0.929 . S
C5135 C5134 1.399 . S
C5135 C5136 1.385 . S
C5136 H5122 0.931 . S
C5136 C5135 1.385 . S
C5136 C5137 1.395 . S
C5137 C5136 1.395 . S
C5137 C5138 1.385 1_556 S
C5138 H5123 0.930 . S
C5138 C5133 1.388 1_554 S
C5138 C5137 1.385 1_554 S
H5139 C5151 0.930 . S
H5140 C5153 0.930 1_655 S
H5141 C5154 0.950 . S
H5142 C5158 0.956 1_565 S
H5143 C5158 0.950 1_565 S
H5144 C5158 0.970 . S
H5145 C5159 0.993 . S
H5146 C5159 0.931 1_565 S
H5147 C5159 0.956 1_665 S
H5148 C5162 0.949 . S
H5149 C5163 0.931 1_655 S
H5150 C5165 0.930 . S
C5151 H5139 0.930 . S
C5151 C5152 1.399 . S
C5151 C5156 1.399 . S
C5152 C5151 1.399 . S
C5152 C5153 1.376 . S
C5153 H5140 0.930 1_455 S
C5153 C5152 1.376 . S
C5153 C5154 1.384 1_455 S
C5154 H5141 0.950 . S
C5154 C5153 1.384 1_655 S
C5154 C5155 1.376 1_655 S
C5155 C5154 1.376 1_455 S
C5155 C5156 1.394 . S
C5155 C5161 1.465 1_545 S
C5156 C5151 1.399 . S
C5156 C5155 1.394 . S
C5156 C5157 1.554 . S
C5157 C5156 1.554 . S
C5157 C5158 1.501 . S
C5157 C5159 1.561 . S
C5157 C5160 1.489 1_545 S
C5158 H5142 0.956 1_545 S
C5158 H5143 0.950 1_545 S
C5158 H5144 0.970 . S
C5158 C5157 1.501 . S
C5159 H5145 0.993 . S
C5159 H5146 0.931 1_545 S
C5159 H5147 0.956 1_445 S
C5159 C5157 1.561 . S
C5160 C5157 1.489 1_565 S
C5160 C5161 1.396 . S
C5160 C5165 1.390 . S
C5161 C5155 1.465 1_565 S
C5161 C5160 1.396 . S
C5161 C5162 1.385 1_455 S
C5162 H5148 0.949 . S
C5162 C5161 1.385 1_655 S
C5162 C5163 1.380 1_655 S
C5163 H5149 0.931 1_455 S
C5163 C5162 1.380 1_455 S
C5163 C5164 1.389 . S
C5164 C5163 1.389 . S
C5164 C5165 1.387 . S
C5165 H5150 0.930 . S
C5165 C5160 1.390 . S
C5165 C5164 1.387 . S
H5166 C5178 0.930 . S
H5167 C5180 0.930 . S
H5168 C5181 0.930 . S
H5169 C5185 0.959 . S
H5170 C5185 0.959 . S
H5171 C5185 0.961 . S
H5172 C5186 0.960 . S
H5173 C5186 0.961 . S
H5174 C5186 0.959 . S
H5175 C5189 0.929 . S
H5176 C5190 0.931 . S
H5177 C5192 0.930 . S
C5178 H5166 0.930 . S
C5178 C5179 1.399 . S
C5178 C5183 1.399 . S
C5179 C5178 1.399 . S
C5179 C5180 1.376 . S
C5180 H5167 0.930 . S
C5180 C5179 1.376 . S
C5180 C5181 1.388 . S
C5181 H5168 0.930 . S
C5181 C5180 1.388 . S
C5181 C5182 1.390 . S
C5182 C5181 1.390 . S
C5182 C5183 1.394 . S
C5182 C5188 1.465 . S
C5183 C5178 1.399 . S
C5183 C5182 1.394 . S
C5183 C5184 1.516 . S
C5184 C5183 1.516 . S
C5184 C5185 1.502 . S
C5184 C5186 1.561 . S
C5184 C5187 1.526 . S
C5185 H5169 0.959 . S
C5185 H5170 0.959 . S
C5185 H5171 0.961 . S
C5185 C5184 1.502 . S
C5186 H5172 0.960 . S
C5186 H5173 0.961 . S
C5186 H5174 0.959 . S
C5186 C5184 1.561 . S
C5187 C5184 1.526 . S
C5187 C5188 1.396 . S
C5187 C5192 1.390 . S
C5188 C5182 1.465 . S
C5188 C5187 1.396 . S
C5188 C5189 1.399 . S
C5189 H5175 0.929 . S
C5189 C5188 1.399 . S
C5189 C5190 1.385 . S
C5190 H5176 0.931 . S
C5190 C5189 1.385 . S
C5190 C5191 1.389 . S
C5191 C5190 1.389 . S
C5191 C5192 1.387 . S
C5192 H5177 0.930 . S
C5192 C5187 1.390 . S
C5192 C5191 1.387 . S
H5193 C5205 0.930 . S
H5194 C5207 0.930 . S
H5195 C5208 0.930 . S
H5196 C5212 0.955 1_556 S
H5197 C5212 0.922 1_556 S
H5198 C5212 1.003 . S
H5199 C5213 0.960 . S
H5200 C5213 0.961 1_556 S
H5201 C5213 0.962 . S
H5202 C5216 0.929 . S
H5203 C5217 0.931 . S
H5204 C5219 0.930 . S
C5205 H5193 0.930 . S
C5205 C5206 1.399 . S
C5205 C5210 1.399 . S
C5206 C5205 1.399 . S
C5206 C5207 1.376 . S
C5207 H5194 0.930 . S
C5207 C5206 1.376 . S
C5207 C5208 1.388 . S
C5208 H5195 0.930 . S
C5208 C5207 1.388 . S
C5208 C5209 1.390 . S
C5209 C5208 1.390 . S
C5209 C5210 1.394 . S
C5209 C5215 1.465 1_554 S
C5210 C5205 1.399 . S
C5210 C5209 1.394 . S
C5210 C5211 1.516 . S
C5211 C5210 1.516 . S
C5211 C5212 1.503 . S
C5211 C5213 1.561 . S
C5211 C5214 1.526 1_554 S
C5212 H5196 0.955 1_554 S
C5212 H5197 0.922 1_554 S
C5212 H5198 1.003 . S
C5212 C5211 1.503 . S
C5213 H5199 0.960 . S
C5213 H5200 0.961 1_554 S
C5213 H5201 0.962 . S
C5213 C5211 1.561 . S
C5214 C5211 1.526 1_556 S
C5214 C5215 1.396 . S
C5214 C5219 1.390 . S
C5215 C5209 1.465 1_556 S
C5215 C5214 1.396 . S
C5215 C5216 1.399 . S
C5216 H5202 0.929 . S
C5216 C5215 1.399 . S
C5216 C5217 1.385 . S
C5217 H5203 0.931 . S
C5217 C5216 1.385 . S
C5217 C5218 1.389 . S
C5218 C5217 1.389 . S
C5218 C5219 1.387 . S
C5219 H5204 0.930 . S
C5219 C5214 1.390 . S
C5219 C5218 1.387 . S
H5220 C5232 0.930 . S
H5221 C5234 0.930 . S
H5222 C5235 0.930 . S
H5223 C5239 0.959 . S
H5224 C5239 0.959 . S
H5225 C5239 0.961 . S
H5226 C5240 0.960 . S
H5227 C5240 0.961 . S
H5228 C5240 0.959 . S
H5229 C5243 0.929 . S
H5230 C5244 0.931 . S
H5231 C5246 0.930 . S
C5232 H5220 0.930 . S
C5232 C5233 1.399 . S
C5232 C5237 1.399 . S
C5233 C5232 1.399 . S
C5233 C5234 1.376 . S
C5234 H5221 0.930 . S
C5234 C5233 1.376 . S
C5234 C5235 1.388 . S
C5235 H5222 0.930 . S
C5235 C5234 1.388 . S
C5235 C5236 1.390 . S
C5236 C5235 1.390 . S
C5236 C5237 1.394 . S
C5236 C5242 1.465 . S
C5237 C5232 1.399 . S
C5237 C5236 1.394 . S
C5237 C5238 1.516 . S
C5238 C5237 1.516 . S
C5238 C5239 1.502 . S
C5238 C5240 1.561 . S
C5238 C5241 1.526 . S
C5239 H5223 0.959 . S
C5239 H5224 0.959 . S
C5239 H5225 0.961 . S
C5239 C5238 1.502 . S
C5240 H5226 0.960 . S
C5240 H5227 0.961 . S
C5240 H5228 0.959 . S
C5240 C5238 1.561 . S
C5241 C5238 1.526 . S
C5241 C5242 1.396 . S
C5241 C5246 1.390 . S
C5242 C5236 1.465 . S
C5242 C5241 1.396 . S
C5242 C5243 1.399 . S
C5243 H5229 0.929 . S
C5243 C5242 1.399 . S
C5243 C5244 1.385 . S
C5244 H5230 0.931 . S
C5244 C5243 1.385 . S
C5244 C5245 1.389 . S
C5245 C5244 1.389 . S
C5245 C5246 1.387 . S
C5246 H5231 0.930 . S
C5246 C5241 1.390 . S
C5246 C5245 1.387 . S
H5247 C5259 0.930 . S
H5248 C5261 0.930 . S
H5249 C5262 0.930 . S
H5250 C5266 0.959 . S
H5251 C5266 0.959 . S
H5252 C5266 0.961 . S
H5253 C5267 0.960 . S
H5254 C5267 0.961 . S
H5255 C5267 0.959 . S
H5256 C5270 0.929 . S
H5257 C5271 0.931 . S
H5258 C5273 0.930 . S
C5259 H5247 0.930 . S
C5259 C5260 1.399 . S
C5259 C5264 1.399 . S
C5260 C5259 1.399 . S
C5260 C5261 1.376 . S
C5261 H5248 0.930 . S
C5261 C5260 1.376 . S
C5261 C5262 1.388 . S
C5262 H5249 0.930 . S
C5262 C5261 1.388 . S
C5262 C5263 1.390 . S
C5263 C5262 1.390 . S
C5263 C5264 1.394 . S
C5263 C5269 1.465 . S
C5264 C5259 1.399 . S
C5264 C5263 1.394 . S
C5264 C5265 1.516 . S
C5265 C5264 1.516 . S
C5265 C5266 1.502 . S
C5265 C5267 1.561 . S
C5265 C5268 1.526 . S
C5266 H5250 0.959 . S
C5266 H5251 0.959 . S
C5266 H5252 0.961 . S
C5266 C5265 1.502 . S
C5267 H5253 0.960 . S
C5267 H5254 0.961 . S
C5267 H5255 0.959 . S
C5267 C5265 1.561 . S
C5268 C5265 1.526 . S
C5268 C5269 1.396 . S
C5268 C5273 1.390 . S
C5269 C5263 1.465 . S
C5269 C5268 1.396 . S
C5269 C5270 1.399 . S
C5270 H5256 0.929 . S
C5270 C5269 1.399 . S
C5270 C5271 1.385 . S
C5271 H5257 0.931 . S
C5271 C5270 1.385 . S
C5271 C5272 1.389 . S
C5272 C5271 1.389 . S
C5272 C5273 1.387 . S
C5273 H5258 0.930 . S
C5273 C5268 1.390 . S
C5273 C5272 1.387 . S
H5274 C5286 0.930 . S
H5275 C5288 0.930 . S
H5276 C5289 0.930 . S
H5277 C5293 0.959 . S
H5278 C5293 0.959 . S
H5279 C5293 0.961 . S
H5280 C5294 0.960 . S
H5281 C5294 0.961 . S
H5282 C5294 0.959 . S
H5283 C5297 0.929 . S
H5284 C5298 0.931 . S
H5285 C5300 0.930 . S
C5286 H5274 0.930 . S
C5286 C5287 1.399 . S
C5286 C5291 1.399 . S
C5287 C5286 1.399 . S
C5287 C5288 1.376 . S
C5288 H5275 0.930 . S
C5288 C5287 1.376 . S
C5288 C5289 1.388 . S
C5289 H5276 0.930 . S
C5289 C5288 1.388 . S
C5289 C5290 1.390 . S
C5290 C5289 1.390 . S
C5290 C5291 1.394 . S
C5290 C5296 1.465 . S
C5291 C5286 1.399 . S
C5291 C5290 1.394 . S
C5291 C5292 1.516 . S
C5292 C5291 1.516 . S
C5292 C5293 1.502 . S
C5292 C5294 1.561 . S
C5292 C5295 1.526 . S
C5293 H5277 0.959 . S
C5293 H5278 0.959 . S
C5293 H5279 0.961 . S
C5293 C5292 1.502 . S
C5294 H5280 0.960 . S
C5294 H5281 0.961 . S
C5294 H5282 0.959 . S
C5294 C5292 1.561 . S
C5295 C5292 1.526 . S
C5295 C5296 1.396 . S
C5295 C5300 1.390 . S
C5296 C5290 1.465 . S
C5296 C5295 1.396 . S
C5296 C5297 1.399 . S
C5297 H5283 0.929 . S
C5297 C5296 1.399 . S
C5297 C5298 1.385 . S
C5298 H5284 0.931 . S
C5298 C5297 1.385 . S
C5298 C5299 1.389 . S
C5299 C5298 1.389 . S
C5299 C5300 1.387 . S
C5300 H5285 0.930 . S
C5300 C5295 1.390 . S
C5300 C5299 1.387 . S
H5301 C5313 0.930 . S
H5302 C5315 0.930 . S
H5303 C5316 0.930 . S
H5304 C5320 0.959 . S
H5305 C5320 0.959 . S
H5306 C5320 0.961 . S
H5307 C5321 0.960 . S
H5308 C5321 0.961 . S
H5309 C5321 0.959 . S
H5310 C5324 0.929 . S
H5311 C5325 0.931 . S
H5312 C5327 0.930 . S
C5313 H5301 0.930 . S
C5313 C5314 1.399 . S
C5313 C5318 1.399 . S
C5314 C5313 1.399 . S
C5314 C5315 1.376 . S
C5315 H5302 0.930 . S
C5315 C5314 1.376 . S
C5315 C5316 1.388 . S
C5316 H5303 0.930 . S
C5316 C5315 1.388 . S
C5316 C5317 1.390 . S
C5317 C5316 1.390 . S
C5317 C5318 1.394 . S
C5317 C5323 1.465 . S
C5318 C5313 1.399 . S
C5318 C5317 1.394 . S
C5318 C5319 1.516 . S
C5319 C5318 1.516 . S
C5319 C5320 1.502 . S
C5319 C5321 1.561 . S
C5319 C5322 1.526 . S
C5320 H5304 0.959 . S
C5320 H5305 0.959 . S
C5320 H5306 0.961 . S
C5320 C5319 1.502 . S
C5321 H5307 0.960 . S
C5321 H5308 0.961 . S
C5321 H5309 0.959 . S
C5321 C5319 1.561 . S
C5322 C5319 1.526 . S
C5322 C5323 1.396 . S
C5322 C5327 1.390 . S
C5323 C5317 1.465 . S
C5323 C5322 1.396 . S
C5323 C5324 1.399 . S
C5324 H5310 0.929 . S
C5324 C5323 1.399 . S
C5324 C5325 1.385 . S
C5325 H5311 0.931 . S
C5325 C5324 1.385 . S
C5325 C5326 1.389 . S
C5326 C5325 1.389 . S
C5326 C5327 1.387 . S
C5327 H5312 0.930 . S
C5327 C5322 1.390 . S
C5327 C5326 1.387 . S
H5328 C5340 0.930 . S
H5329 C5342 0.930 . S
H5330 C5343 0.930 . S
H5331 C5347 0.959 . S
H5332 C5347 0.959 . S
H5333 C5347 0.961 . S
H5334 C5348 0.960 . S
H5335 C5348 0.961 . S
H5336 C5348 0.959 . S
H5337 C5351 0.929 . S
H5338 C5352 0.931 . S
H5339 C5354 0.930 . S
C5340 H5328 0.930 . S
C5340 C5341 1.399 . S
C5340 C5345 1.399 . S
C5341 C5340 1.399 . S
C5341 C5342 1.376 . S
C5342 H5329 0.930 . S
C5342 C5341 1.376 . S
C5342 C5343 1.388 . S
C5343 H5330 0.930 . S
C5343 C5342 1.388 . S
C5343 C5344 1.390 . S
C5344 C5343 1.390 . S
C5344 C5345 1.394 . S
C5344 C5350 1.465 . S
C5345 C5340 1.399 . S
C5345 C5344 1.394 . S
C5345 C5346 1.516 . S
C5346 C5345 1.516 . S
C5346 C5347 1.502 . S
C5346 C5348 1.561 . S
C5346 C5349 1.526 . S
C5347 H5331 0.959 . S
C5347 H5332 0.959 . S
C5347 H5333 0.961 . S
C5347 C5346 1.502 . S
C5348 H5334 0.960 . S
C5348 H5335 0.961 . S
C5348 H5336 0.959 . S
C5348 C5346 1.561 . S
C5349 C5346 1.526 . S
C5349 C5350 1.396 . S
C5349 C5354 1.390 . S
C5350 C5344 1.465 . S
C5350 C5349 1.396 . S
C5350 C5351 1.399 . S
C5351 H5337 0.929 . S
C5351 C5350 1.399 . S
C5351 C5352 1.385 . S
C5352 H5338 0.931 . S
C5352 C5351 1.385 . S
C5352 C5353 1.389 . S
C5353 C5352 1.389 . S
C5353 C5354 1.387 . S
C5354 H5339 0.930 . S
C5354 C5349 1.390 . S
C5354 C5353 1.387 . S
H5355 C5367 0.930 . S
H5356 C5369 0.930 . S
H5357 C5370 0.930 . S
H5358 C5374 0.959 . S
H5359 C5374 0.959 . S
H5360 C5374 0.961 . S
H5361 C5375 0.960 . S
H5362 C5375 0.961 . S
H5363 C5375 0.959 . S
H5364 C5378 0.929 . S
H5365 C5379 0.931 . S
H5366 C5381 0.930 . S
C5367 H5355 0.930 . S
C5367 C5368 1.399 . S
C5367 C5372 1.399 . S
C5368 C5367 1.399 . S
C5368 C5369 1.376 . S
C5369 H5356 0.930 . S
C5369 C5368 1.376 . S
C5369 C5370 1.388 . S
C5370 H5357 0.930 . S
C5370 C5369 1.388 . S
C5370 C5371 1.390 . S
C5371 C5370 1.390 . S
C5371 C5372 1.394 . S
C5371 C5377 1.465 . S
C5372 C5367 1.399 . S
C5372 C5371 1.394 . S
C5372 C5373 1.516 . S
C5373 C5372 1.516 . S
C5373 C5374 1.502 . S
C5373 C5375 1.561 . S
C5373 C5376 1.526 . S
C5374 H5358 0.959 . S
C5374 H5359 0.959 . S
C5374 H5360 0.961 . S
C5374 C5373 1.502 . S
C5375 H5361 0.960 . S
C5375 H5362 0.961 . S
C5375 H5363 0.959 . S
C5375 C5373 1.561 . S
C5376 C5373 1.526 . S
C5376 C5377 1.396 . S
C5376 C5381 1.390 . S
C5377 C5371 1.465 . S
C5377 C5376 1.396 . S
C5377 C5378 1.399 . S
C5378 H5364 0.929 . S
C5378 C5377 1.399 . S
C5378 C5379 1.385 . S
C5379 H5365 0.931 . S
C5379 C5378 1.385 . S
C5379 C5380 1.389 . S
C5380 C5379 1.389 . S
C5380 C5381 1.387 . S
C5381 H5366 0.930 . S
C5381 C5376 1.390 . S
C5381 C5380 1.387 . S
H5382 C5394 0.930 . S
H5383 C5396 0.930 . S
H5384 C5397 0.930 . S
H5385 C5401 0.959 . S
H5386 C5401 0.959 . S
H5387 C5401 0.961 . S
H5388 C5402 0.960 . S
H5389 C5402 0.961 . S
H5390 C5402 0.959 . S
H5391 C5405 0.929 . S
H5392 C5406 0.931 . S
H5393 C5408 0.930 . S
C5394 H5382 0.930 . S
C5394 C5395 1.399 . S
C5394 C5399 1.399 . S
C5395 C5394 1.399 . S
C5395 C5396 1.376 . S
C5396 H5383 0.930 . S
C5396 C5395 1.376 . S
C5396 C5397 1.388 . S
C5397 H5384 0.930 . S
C5397 C5396 1.388 . S
C5397 C5398 1.390 . S
C5398 C5397 1.390 . S
C5398 C5399 1.394 . S
C5398 C5404 1.465 . S
C5399 C5394 1.399 . S
C5399 C5398 1.394 . S
C5399 C5400 1.516 . S
C5400 C5399 1.516 . S
C5400 C5401 1.502 . S
C5400 C5402 1.561 . S
C5400 C5403 1.526 . S
C5401 H5385 0.959 . S
C5401 H5386 0.959 . S
C5401 H5387 0.961 . S
C5401 C5400 1.502 . S
C5402 H5388 0.960 . S
C5402 H5389 0.961 . S
C5402 H5390 0.959 . S
C5402 C5400 1.561 . S
C5403 C5400 1.526 . S
C5403 C5404 1.396 . S
C5403 C5408 1.390 . S
C5404 C5398 1.465 . S
C5404 C5403 1.396 . S
C5404 C5405 1.399 . S
C5405 H5391 0.929 . S
C5405 C5404 1.399 . S
C5405 C5406 1.385 . S
C5406 H5392 0.931 . S
C5406 C5405 1.385 . S
C5406 C5407 1.389 . S
C5407 C5406 1.389 . S
C5407 C5408 1.387 . S
C5408 H5393 0.930 . S
C5408 C5403 1.390 . S
C5408 C5407 1.387 . S
H5409 C5421 0.930 . S
H5410 C5423 0.930 . S
H5411 C5424 0.930 . S
H5412 C5428 0.959 . S
H5413 C5428 0.959 . S
H5414 C5428 0.961 . S
H5415 C5429 0.960 . S
H5416 C5429 0.961 . S
H5417 C5429 0.959 . S
H5418 C5432 0.929 . S
H5419 C5433 0.931 . S
H5420 C5435 0.930 . S
C5421 H5409 0.930 . S
C5421 C5422 1.399 . S
C5421 C5426 1.399 . S
C5422 C5421 1.399 . S
C5422 C5423 1.376 . S
C5423 H5410 0.930 . S
C5423 C5422 1.376 . S
C5423 C5424 1.388 . S
C5424 H5411 0.930 . S
C5424 C5423 1.388 . S
C5424 C5425 1.390 . S
C5425 C5424 1.390 . S
C5425 C5426 1.394 . S
C5425 C5431 1.465 . S
C5426 C5421 1.399 . S
C5426 C5425 1.394 . S
C5426 C5427 1.516 . S
C5427 C5426 1.516 . S
C5427 C5428 1.502 . S
C5427 C5429 1.561 . S
C5427 C5430 1.526 . S
C5428 H5412 0.959 . S
C5428 H5413 0.959 . S
C5428 H5414 0.961 . S
C5428 C5427 1.502 . S
C5429 H5415 0.960 . S
C5429 H5416 0.961 . S
C5429 H5417 0.959 . S
C5429 C5427 1.561 . S
C5430 C5427 1.526 . S
C5430 C5431 1.396 . S
C5430 C5435 1.390 . S
C5431 C5425 1.465 . S
C5431 C5430 1.396 . S
C5431 C5432 1.399 . S
C5432 H5418 0.929 . S
C5432 C5431 1.399 . S
C5432 C5433 1.385 . S
C5433 H5419 0.931 . S
C5433 C5432 1.385 . S
C5433 C5434 1.389 . S
C5434 C5433 1.389 . S
C5434 C5435 1.387 . S
C5435 H5420 0.930 . S
C5435 C5430 1.390 . S
C5435 C5434 1.387 . S
H5436 C5448 0.930 . S
H5437 C5450 0.930 . S
H5438 C5451 0.930 . S
H5439 C5455 0.959 . S
H5440 C5455 0.959 . S
H5441 C5455 0.961 . S
H5442 C5456 0.960 . S
H5443 C5456 0.961 . S
H5444 C5456 0.959 . S
H5445 C5459 0.929 . S
H5446 C5460 0.931 . S
H5447 C5462 0.930 . S
C5448 H5436 0.930 . S
C5448 C5449 1.399 . S
C5448 C5453 1.399 . S
C5449 C5448 1.399 . S
C5449 C5450 1.376 . S
C5450 H5437 0.930 . S
C5450 C5449 1.376 . S
C5450 C5451 1.388 . S
C5451 H5438 0.930 . S
C5451 C5450 1.388 . S
C5451 C5452 1.390 . S
C5452 C5451 1.390 . S
C5452 C5453 1.394 . S
C5452 C5458 1.465 . S
C5453 C5448 1.399 . S
C5453 C5452 1.394 . S
C5453 C5454 1.516 . S
C5454 C5453 1.516 . S
C5454 C5455 1.502 . S
C5454 C5456 1.561 . S
C5454 C5457 1.526 . S
C5455 H5439 0.959 . S
C5455 H5440 0.959 . S
C5455 H5441 0.961 . S
C5455 C5454 1.502 . S
C5456 H5442 0.960 . S
C5456 H5443 0.961 . S
C5456 H5444 0.959 . S
C5456 C5454 1.561 . S
C5457 C5454 1.526 . S
C5457 C5458 1.396 . S
C5457 C5462 1.390 . S
C5458 C5452 1.465 . S
C5458 C5457 1.396 . S
C5458 C5459 1.399 . S
C5459 H5445 0.929 . S
C5459 C5458 1.399 . S
C5459 C5460 1.385 . S
C5460 H5446 0.931 . S
C5460 C5459 1.385 . S
C5460 C5461 1.389 . S
C5461 C5460 1.389 . S
C5461 C5462 1.387 . S
C5462 H5447 0.930 . S
C5462 C5457 1.390 . S
C5462 C5461 1.387 . S
H5463 C5475 0.930 . S
H5464 C5477 0.930 . S
H5465 C5478 0.930 . S
H5466 C5482 0.959 . S
H5467 C5482 0.959 . S
H5468 C5482 0.961 . S
H5469 C5483 0.960 . S
H5470 C5483 0.961 . S
H5471 C5483 0.959 . S
H5472 C5486 0.929 . S
H5473 C5487 0.931 . S
H5474 C5489 0.930 . S
C5475 H5463 0.930 . S
C5475 C5476 1.399 . S
C5475 C5480 1.399 . S
C5476 C5475 1.399 . S
C5476 C5477 1.376 . S
C5477 H5464 0.930 . S
C5477 C5476 1.376 . S
C5477 C5478 1.388 . S
C5478 H5465 0.930 . S
C5478 C5477 1.388 . S
C5478 C5479 1.390 . S
C5479 C5478 1.390 . S
C5479 C5480 1.394 . S
C5479 C5485 1.465 . S
C5480 C5475 1.399 . S
C5480 C5479 1.394 . S
C5480 C5481 1.516 . S
C5481 C5480 1.516 . S
C5481 C5482 1.502 . S
C5481 C5483 1.561 . S
C5481 C5484 1.526 . S
C5482 H5466 0.959 . S
C5482 H5467 0.959 . S
C5482 H5468 0.961 . S
C5482 C5481 1.502 . S
C5483 H5469 0.960 . S
C5483 H5470 0.961 . S
C5483 H5471 0.959 . S
C5483 C5481 1.561 . S
C5484 C5481 1.526 . S
C5484 C5485 1.396 . S
C5484 C5489 1.390 . S
C5485 C5479 1.465 . S
C5485 C5484 1.396 . S
C5485 C5486 1.399 . S
C5486 H5472 0.929 . S
C5486 C5485 1.399 . S
C5486 C5487 1.385 . S
C5487 H5473 0.931 . S
C5487 C5486 1.385 . S
C5487 C5488 1.389 . S
C5488 C5487 1.389 . S
C5488 C5489 1.387 . S
C5489 H5474 0.930 . S
C5489 C5484 1.390 . S
C5489 C5488 1.387 . S
H5490 C5502 0.930 . S
H5491 C5504 0.930 . S
H5492 C5505 0.930 . S
H5493 C5509 0.959 . S
H5494 C5509 0.959 . S
H5495 C5509 0.961 . S
H5496 C5510 0.960 . S
H5497 C5510 0.961 . S
H5498 C5510 0.959 . S
H5499 C5513 0.929 . S
H5500 C5514 0.931 . S
H5501 C5516 0.930 . S
C5502 H5490 0.930 . S
C5502 C5503 1.399 . S
C5502 C5507 1.399 . S
C5503 C5502 1.399 . S
C5503 C5504 1.376 . S
C5504 H5491 0.930 . S
C5504 C5503 1.376 . S
C5504 C5505 1.388 . S
C5505 H5492 0.930 . S
C5505 C5504 1.388 . S
C5505 C5506 1.390 . S
C5506 C5505 1.390 . S
C5506 C5507 1.394 . S
C5506 C5512 1.465 . S
C5507 C5502 1.399 . S
C5507 C5506 1.394 . S
C5507 C5508 1.516 . S
C5508 C5507 1.516 . S
C5508 C5509 1.502 . S
C5508 C5510 1.561 . S
C5508 C5511 1.526 . S
C5509 H5493 0.959 . S
C5509 H5494 0.959 . S
C5509 H5495 0.961 . S
C5509 C5508 1.502 . S
C5510 H5496 0.960 . S
C5510 H5497 0.961 . S
C5510 H5498 0.959 . S
C5510 C5508 1.561 . S
C5511 C5508 1.526 . S
C5511 C5512 1.396 . S
C5511 C5516 1.390 . S
C5512 C5506 1.465 . S
C5512 C5511 1.396 . S
C5512 C5513 1.399 . S
C5513 H5499 0.929 . S
C5513 C5512 1.399 . S
C5513 C5514 1.385 . S
C5514 H5500 0.931 . S
C5514 C5513 1.385 . S
C5514 C5515 1.389 . S
C5515 C5514 1.389 . S
C5515 C5516 1.387 . S
C5516 H5501 0.930 . S
C5516 C5511 1.390 . S
C5516 C5515 1.387 . S
H5517 C5529 0.930 . S
H5518 C5531 0.930 . S
H5519 C5532 0.930 . S
H5520 C5536 0.959 . S
H5521 C5536 0.959 . S
H5522 C5536 0.961 . S
H5523 C5537 0.960 . S
H5524 C5537 0.961 . S
H5525 C5537 0.959 . S
H5526 C5540 0.929 . S
H5527 C5541 0.931 . S
H5528 C5543 0.930 . S
C5529 H5517 0.930 . S
C5529 C5530 1.399 . S
C5529 C5534 1.399 . S
C5530 C5529 1.399 . S
C5530 C5531 1.376 . S
C5531 H5518 0.930 . S
C5531 C5530 1.376 . S
C5531 C5532 1.388 . S
C5532 H5519 0.930 . S
C5532 C5531 1.388 . S
C5532 C5533 1.390 . S
C5533 C5532 1.390 . S
C5533 C5534 1.394 . S
C5533 C5539 1.465 . S
C5534 C5529 1.399 . S
C5534 C5533 1.394 . S
C5534 C5535 1.516 . S
C5535 C5534 1.516 . S
C5535 C5536 1.502 . S
C5535 C5537 1.561 . S
C5535 C5538 1.526 . S
C5536 H5520 0.959 . S
C5536 H5521 0.959 . S
C5536 H5522 0.961 . S
C5536 C5535 1.502 . S
C5537 H5523 0.960 . S
C5537 H5524 0.961 . S
C5537 H5525 0.959 . S
C5537 C5535 1.561 . S
C5538 C5535 1.526 . S
C5538 C5539 1.396 . S
C5538 C5543 1.390 . S
C5539 C5533 1.465 . S
C5539 C5538 1.396 . S
C5539 C5540 1.399 . S
C5540 H5526 0.929 . S
C5540 C5539 1.399 . S
C5540 C5541 1.385 . S
C5541 H5527 0.931 . S
C5541 C5540 1.385 . S
C5541 C5542 1.389 . S
C5542 C5541 1.389 . S
C5542 C5543 1.387 . S
C5543 H5528 0.930 . S
C5543 C5538 1.390 . S
C5543 C5542 1.387 . S
H5544 C5556 0.930 . S
H5545 C5558 0.930 . S
H5546 C5559 0.930 . S
H5547 C5563 0.959 . S
H5548 C5563 0.959 . S
H5549 C5563 0.961 . S
H5550 C5564 0.960 . S
H5551 C5564 0.961 . S
H5552 C5564 0.959 . S
H5553 C5567 0.929 . S
H5554 C5568 0.931 . S
H5555 C5570 0.930 . S
C5556 H5544 0.930 . S
C5556 C5557 1.399 . S
C5556 C5561 1.399 . S
C5557 C5556 1.399 . S
C5557 C5558 1.376 . S
C5558 H5545 0.930 . S
C5558 C5557 1.376 . S
C5558 C5559 1.388 . S
C5559 H5546 0.930 . S
C5559 C5558 1.388 . S
C5559 C5560 1.390 . S
C5560 C5559 1.390 . S
C5560 C5561 1.394 . S
C5560 C5566 1.465 . S
C5561 C5556 1.399 . S
C5561 C5560 1.394 . S
C5561 C5562 1.516 . S
C5562 C5561 1.516 . S
C5562 C5563 1.502 . S
C5562 C5564 1.561 . S
C5562 C5565 1.526 . S
C5563 H5547 0.959 . S
C5563 H5548 0.959 . S
C5563 H5549 0.961 . S
C5563 C5562 1.502 . S
C5564 H5550 0.960 . S
C5564 H5551 0.961 . S
C5564 H5552 0.959 . S
C5564 C5562 1.561 . S
C5565 C5562 1.526 . S
C5565 C5566 1.396 . S
C5565 C5570 1.390 . S
C5566 C5560 1.465 . S
C5566 C5565 1.396 . S
C5566 C5567 1.399 . S
C5567 H5553 0.929 . S
C5567 C5566 1.399 . S
C5567 C5568 1.385 . S
C5568 H5554 0.931 . S
C5568 C5567 1.385 . S
C5568 C5569 1.389 . S
C5569 C5568 1.389 . S
C5569 C5570 1.387 . S
C5570 H5555 0.930 . S
C5570 C5565 1.390 . S
C5570 C5569 1.387 . S
H5571 C5583 0.930 . S
H5572 C5585 0.930 . S
H5573 C5586 0.930 . S
H5574 C5590 0.959 . S
H5575 C5590 0.959 . S
H5576 C5590 0.961 . S
H5577 C5591 0.960 . S
H5578 C5591 0.961 . S
H5579 C5591 0.959 . S
H5580 C5594 0.929 . S
H5581 C5595 0.931 . S
H5582 C5597 0.930 . S
C5583 H5571 0.930 . S
C5583 C5584 1.399 . S
C5583 C5588 1.399 . S
C5584 C5583 1.399 . S
C5584 C5585 1.376 . S
C5585 H5572 0.930 . S
C5585 C5584 1.376 . S
C5585 C5586 1.388 . S
C5586 H5573 0.930 . S
C5586 C5585 1.388 . S
C5586 C5587 1.390 . S
C5587 C5586 1.390 . S
C5587 C5588 1.394 . S
C5587 C5593 1.465 . S
C5588 C5583 1.399 . S
C5588 C5587 1.394 . S
C5588 C5589 1.516 . S
C5589 C5588 1.516 . S
C5589 C5590 1.502 . S
C5589 C5591 1.561 . S
C5589 C5592 1.526 . S
C5590 H5574 0.959 . S
C5590 H5575 0.959 . S
C5590 H5576 0.961 . S
C5590 C5589 1.502 . S
C5591 H5577 0.960 . S
C5591 H5578 0.961 . S
C5591 H5579 0.959 . S
C5591 C5589 1.561 . S
C5592 C5589 1.526 . S
C5592 C5593 1.396 . S
C5592 C5597 1.390 . S
C5593 C5587 1.465 . S
C5593 C5592 1.396 . S
C5593 C5594 1.399 . S
C5594 H5580 0.929 . S
C5594 C5593 1.399 . S
C5594 C5595 1.385 . S
C5595 H5581 0.931 . S
C5595 C5594 1.385 . S
C5595 C5596 1.389 . S
C5596 C5595 1.389 . S
C5596 C5597 1.387 . S
C5597 H5582 0.930 . S
C5597 C5592 1.390 . S
C5597 C5596 1.387 . S
H5598 C5610 0.930 . S
H5599 C5612 0.930 . S
H5600 C5613 0.930 . S
H5601 C5617 0.959 . S
H5602 C5617 0.959 . S
H5603 C5617 0.961 . S
H5604 C5618 0.960 . S
H5605 C5618 0.961 . S
H5606 C5618 0.959 . S
H5607 C5621 0.929 . S
H5608 C5622 0.931 . S
H5609 C5624 0.930 . S
C5610 H5598 0.930 . S
C5610 C5611 1.399 . S
C5610 C5615 1.399 . S
C5611 C5610 1.399 . S
C5611 C5612 1.376 . S
C5612 H5599 0.930 . S
C5612 C5611 1.376 . S
C5612 C5613 1.388 . S
C5613 H5600 0.930 . S
C5613 C5612 1.388 . S
C5613 C5614 1.390 . S
C5614 C5613 1.390 . S
C5614 C5615 1.394 . S
C5614 C5620 1.465 . S
C5615 C5610 1.399 . S
C5615 C5614 1.394 . S
C5615 C5616 1.516 . S
C5616 C5615 1.516 . S
C5616 C5617 1.502 . S
C5616 C5618 1.561 . S
C5616 C5619 1.526 . S
C5617 H5601 0.959 . S
C5617 H5602 0.959 . S
C5617 H5603 0.961 . S
C5617 C5616 1.502 . S
C5618 H5604 0.960 . S
C5618 H5605 0.961 . S
C5618 H5606 0.959 . S
C5618 C5616 1.561 . S
C5619 C5616 1.526 . S
C5619 C5620 1.396 . S
C5619 C5624 1.390 . S
C5620 C5614 1.465 . S
C5620 C5619 1.396 . S
C5620 C5621 1.399 . S
C5621 H5607 0.929 . S
C5621 C5620 1.399 . S
C5621 C5622 1.385 . S
C5622 H5608 0.931 . S
C5622 C5621 1.385 . S
C5622 C5623 1.389 . S
C5623 C5622 1.389 . S
C5623 C5624 1.387 . S
C5624 H5609 0.930 . S
C5624 C5619 1.390 . S
C5624 C5623 1.387 . S
H5625 C5637 0.930 . S
H5626 C5639 0.930 . S
H5627 C5640 0.930 . S
H5628 C5644 0.959 . S
H5629 C5644 0.959 . S
H5630 C5644 0.961 . S
H5631 C5645 0.960 . S
H5632 C5645 0.961 . S
H5633 C5645 0.959 . S
H5634 C5648 0.929 . S
H5635 C5649 0.931 . S
H5636 C5651 0.930 . S
C5637 H5625 0.930 . S
C5637 C5638 1.399 . S
C5637 C5642 1.399 . S
C5638 C5637 1.399 . S
C5638 C5639 1.376 . S
C5639 H5626 0.930 . S
C5639 C5638 1.376 . S
C5639 C5640 1.388 . S
C5640 H5627 0.930 . S
C5640 C5639 1.388 . S
C5640 C5641 1.390 . S
C5641 C5640 1.390 . S
C5641 C5642 1.394 . S
C5641 C5647 1.465 . S
C5642 C5637 1.399 . S
C5642 C5641 1.394 . S
C5642 C5643 1.516 . S
C5643 C5642 1.516 . S
C5643 C5644 1.502 . S
C5643 C5645 1.561 . S
C5643 C5646 1.526 . S
C5644 H5628 0.959 . S
C5644 H5629 0.959 . S
C5644 H5630 0.961 . S
C5644 C5643 1.502 . S
C5645 H5631 0.960 . S
C5645 H5632 0.961 . S
C5645 H5633 0.959 . S
C5645 C5643 1.561 . S
C5646 C5643 1.526 . S
C5646 C5647 1.396 . S
C5646 C5651 1.390 . S
C5647 C5641 1.465 . S
C5647 C5646 1.396 . S
C5647 C5648 1.399 . S
C5648 H5634 0.929 . S
C5648 C5647 1.399 . S
C5648 C5649 1.385 . S
C5649 H5635 0.931 . S
C5649 C5648 1.385 . S
C5649 C5650 1.389 . S
C5650 C5649 1.389 . S
C5650 C5651 1.387 . S
C5651 H5636 0.930 . S
C5651 C5646 1.390 . S
C5651 C5650 1.387 . S
H5652 C5664 0.930 . S
H5653 C5666 0.930 . S
H5654 C5667 0.930 . S
H5655 C5671 0.959 . S
H5656 C5671 0.959 . S
H5657 C5671 0.961 . S
H5658 C5672 0.960 . S
H5659 C5672 0.961 . S
H5660 C5672 0.959 . S
H5661 C5675 0.929 . S
H5662 C5676 0.931 . S
H5663 C5678 0.930 . S
C5664 H5652 0.930 . S
C5664 C5665 1.399 . S
C5664 C5669 1.399 . S
C5665 C5664 1.399 . S
C5665 C5666 1.376 . S
C5666 H5653 0.930 . S
C5666 C5665 1.376 . S
C5666 C5667 1.388 . S
C5667 H5654 0.930 . S
C5667 C5666 1.388 . S
C5667 C5668 1.390 . S
C5668 C5667 1.390 . S
C5668 C5669 1.394 . S
C5668 C5674 1.465 . S
C5669 C5664 1.399 . S
C5669 C5668 1.394 . S
C5669 C5670 1.516 . S
C5670 C5669 1.516 . S
C5670 C5671 1.502 . S
C5670 C5672 1.561 . S
C5670 C5673 1.526 . S
C5671 H5655 0.959 . S
C5671 H5656 0.959 . S
C5671 H5657 0.961 . S
C5671 C5670 1.502 . S
C5672 H5658 0.960 . S
C5672 H5659 0.961 . S
C5672 H5660 0.959 . S
C5672 C5670 1.561 . S
C5673 C5670 1.526 . S
C5673 C5674 1.396 . S
C5673 C5678 1.390 . S
C5674 C5668 1.465 . S
C5674 C5673 1.396 . S
C5674 C5675 1.399 . S
C5675 H5661 0.929 . S
C5675 C5674 1.399 . S
C5675 C5676 1.385 . S
C5676 H5662 0.931 . S
C5676 C5675 1.385 . S
C5676 C5677 1.389 . S
C5677 C5676 1.389 . S
C5677 C5678 1.387 . S
C5678 H5663 0.930 . S
C5678 C5673 1.390 . S
C5678 C5677 1.387 . S
H5679 C5691 0.930 . S
H5680 C5693 0.930 . S
H5681 C5694 0.930 . S
H5682 C5698 0.959 . S
H5683 C5698 0.959 . S
H5684 C5698 0.961 . S
H5685 C5699 0.960 . S
H5686 C5699 0.961 . S
H5687 C5699 0.959 . S
H5688 C5702 0.929 . S
H5689 C5703 0.931 . S
H5690 C5705 0.930 . S
C5691 H5679 0.930 . S
C5691 C5692 1.399 . S
C5691 C5696 1.399 . S
C5692 C5691 1.399 . S
C5692 C5693 1.376 . S
C5693 H5680 0.930 . S
C5693 C5692 1.376 . S
C5693 C5694 1.388 . S
C5694 H5681 0.930 . S
C5694 C5693 1.388 . S
C5694 C5695 1.390 . S
C5695 C5694 1.390 . S
C5695 C5696 1.394 . S
C5695 C5701 1.465 . S
C5696 C5691 1.399 . S
C5696 C5695 1.394 . S
C5696 C5697 1.516 . S
C5697 C5696 1.516 . S
C5697 C5698 1.502 . S
C5697 C5699 1.561 . S
C5697 C5700 1.526 . S
C5698 H5682 0.959 . S
C5698 H5683 0.959 . S
C5698 H5684 0.961 . S
C5698 C5697 1.502 . S
C5699 H5685 0.960 . S
C5699 H5686 0.961 . S
C5699 H5687 0.959 . S
C5699 C5697 1.561 . S
C5700 C5697 1.526 . S
C5700 C5701 1.396 . S
C5700 C5705 1.390 . S
C5701 C5695 1.465 . S
C5701 C5700 1.396 . S
C5701 C5702 1.399 . S
C5702 H5688 0.929 . S
C5702 C5701 1.399 . S
C5702 C5703 1.385 . S
C5703 H5689 0.931 . S
C5703 C5702 1.385 . S
C5703 C5704 1.389 . S
C5704 C5703 1.389 . S
C5704 C5705 1.387 . S
C5705 H5690 0.930 . S
C5705 C5700 1.390 . S
C5705 C5704 1.387 . S
H5706 C5718 0.930 . S
H5707 C5720 0.930 . S
H5708 C5721 0.930 . S
H5709 C5725 0.959 . S
H5710 C5725 0.959 . S
H5711 C5725 0.961 . S
H5712 C5726 0.960 . S
H5713 C5726 0.961 . S
H5714 C5726 0.959 . S
H5715 C5729 0.929 . S
H5716 C5730 0.931 . S
H5717 C5732 0.930 . S
C5718 H5706 0.930 . S
C5718 C5719 1.399 . S
C5718 C5723 1.399 . S
C5719 C5718 1.399 . S
C5719 C5720 1.376 . S
C5720 H5707 0.930 . S
C5720 C5719 1.376 . S
C5720 C5721 1.388 . S
C5721 H5708 0.930 . S
C5721 C5720 1.388 . S
C5721 C5722 1.390 . S
C5722 C5721 1.390 . S
C5722 C5723 1.394 . S
C5722 C5728 1.465 . S
C5723 C5718 1.399 . S
C5723 C5722 1.394 . S
C5723 C5724 1.516 . S
C5724 C5723 1.516 . S
C5724 C5725 1.502 . S
C5724 C5726 1.561 . S
C5724 C5727 1.526 . S
C5725 H5709 0.959 . S
C5725 H5710 0.959 . S
C5725 H5711 0.961 . S
C5725 C5724 1.502 . S
C5726 H5712 0.960 . S
C5726 H5713 0.961 . S
C5726 H5714 0.959 . S
C5726 C5724 1.561 . S
C5727 C5724 1.526 . S
C5727 C5728 1.396 . S
C5727 C5732 1.390 . S
C5728 C5722 1.465 . S
C5728 C5727 1.396 . S
C5728 C5729 1.399 . S
C5729 H5715 0.929 . S
C5729 C5728 1.399 . S
C5729 C5730 1.385 . S
C5730 H5716 0.931 . S
C5730 C5729 1.385 . S
C5730 C5731 1.389 . S
C5731 C5730 1.389 . S
C5731 C5732 1.387 . S
C5732 H5717 0.930 . S
C5732 C5727 1.390 . S
C5732 C5731 1.387 . S
H5733 C5745 0.930 . S
H5734 C5747 0.930 . S
H5735 C5748 0.930 . S
H5736 C5752 0.959 . S
H5737 C5752 0.959 . S
H5738 C5752 0.961 . S
H5739 C5753 0.960 . S
H5740 C5753 0.961 . S
H5741 C5753 0.959 . S
H5742 C5756 0.929 . S
H5743 C5757 0.931 . S
H5744 C5759 0.930 . S
C5745 H5733 0.930 . S
C5745 C5746 1.399 . S
C5745 C5750 1.399 . S
C5746 C5745 1.399 . S
C5746 C5747 1.376 . S
C5747 H5734 0.930 . S
C5747 C5746 1.376 . S
C5747 C5748 1.388 . S
C5748 H5735 0.930 . S
C5748 C5747 1.388 . S
C5748 C5749 1.390 . S
C5749 C5748 1.390 . S
C5749 C5750 1.394 . S
C5749 C5755 1.465 . S
C5750 C5745 1.399 . S
C5750 C5749 1.394 . S
C5750 C5751 1.516 . S
C5751 C5750 1.516 . S
C5751 C5752 1.502 . S
C5751 C5753 1.561 . S
C5751 C5754 1.526 . S
C5752 H5736 0.959 . S
C5752 H5737 0.959 . S
C5752 H5738 0.961 . S
C5752 C5751 1.502 . S
C5753 H5739 0.960 . S
C5753 H5740 0.961 . S
C5753 H5741 0.959 . S
C5753 C5751 1.561 . S
C5754 C5751 1.526 . S
C5754 C5755 1.396 . S
C5754 C5759 1.390 . S
C5755 C5749 1.465 . S
C5755 C5754 1.396 . S
C5755 C5756 1.399 . S
C5756 H5742 0.929 . S
C5756 C5755 1.399 . S
C5756 C5757 1.385 . S
C5757 H5743 0.931 . S
C5757 C5756 1.385 . S
C5757 C5758 1.389 . S
C5758 C5757 1.389 . S
C5758 C5759 1.387 . S
C5759 H5744 0.930 . S
C5759 C5754 1.390 . S
C5759 C5758 1.387 . S
H5760 C5772 0.930 . S
H5761 C5774 0.930 . S
H5762 C5775 0.930 . S
H5763 C5779 0.959 . S
H5764 C5779 0.959 . S
H5765 C5779 0.961 . S
H5766 C5780 0.960 . S
H5767 C5780 0.961 . S
H5768 C5780 0.959 . S
H5769 C5783 0.929 . S
H5770 C5784 0.931 . S
H5771 C5786 0.930 . S
C5772 H5760 0.930 . S
C5772 C5773 1.399 . S
C5772 C5777 1.399 . S
C5773 C5772 1.399 . S
C5773 C5774 1.376 . S
C5774 H5761 0.930 . S
C5774 C5773 1.376 . S
C5774 C5775 1.388 . S
C5775 H5762 0.930 . S
C5775 C5774 1.388 . S
C5775 C5776 1.390 . S
C5776 C5775 1.390 . S
C5776 C5777 1.394 . S
C5776 C5782 1.465 . S
C5777 C5772 1.399 . S
C5777 C5776 1.394 . S
C5777 C5778 1.516 . S
C5778 C5777 1.516 . S
C5778 C5779 1.502 . S
C5778 C5780 1.561 . S
C5778 C5781 1.526 . S
C5779 H5763 0.959 . S
C5779 H5764 0.959 . S
C5779 H5765 0.961 . S
C5779 C5778 1.502 . S
C5780 H5766 0.960 . S
C5780 H5767 0.961 . S
C5780 H5768 0.959 . S
C5780 C5778 1.561 . S
C5781 C5778 1.526 . S
C5781 C5782 1.396 . S
C5781 C5786 1.390 . S
C5782 C5776 1.465 . S
C5782 C5781 1.396 . S
C5782 C5783 1.399 . S
C5783 H5769 0.929 . S
C5783 C5782 1.399 . S
C5783 C5784 1.385 . S
C5784 H5770 0.931 . S
C5784 C5783 1.385 . S
C5784 C5785 1.389 . S
C5785 C5784 1.389 . S
C5785 C5786 1.387 . S
C5786 H5771 0.930 . S
C5786 C5781 1.390 . S
C5786 C5785 1.387 . S
H5787 C5799 0.930 . S
H5788 C5801 0.930 . S
H5789 C5802 0.930 . S
H5790 C5806 0.959 . S
H5791 C5806 0.959 . S
H5792 C5806 0.961 . S
H5793 C5807 0.960 . S
H5794 C5807 0.961 . S
H5795 C5807 0.959 . S
H5796 C5810 0.929 . S
H5797 C5811 0.931 . S
H5798 C5813 0.930 . S
C5799 H5787 0.930 . S
C5799 C5800 1.399 . S
C5799 C5804 1.399 . S
C5800 C5799 1.399 . S
C5800 C5801 1.376 . S
C5801 H5788 0.930 . S
C5801 C5800 1.376 . S
C5801 C5802 1.388 . S
C5802 H5789 0.930 . S
C5802 C5801 1.388 . S
C5802 C5803 1.390 . S
C5803 C5802 1.390 . S
C5803 C5804 1.394 . S
C5803 C5809 1.465 . S
C5804 C5799 1.399 . S
C5804 C5803 1.394 . S
C5804 C5805 1.516 . S
C5805 C5804 1.516 . S
C5805 C5806 1.502 . S
C5805 C5807 1.561 . S
C5805 C5808 1.526 . S
C5806 H5790 0.959 . S
C5806 H5791 0.959 . S
C5806 H5792 0.961 . S
C5806 C5805 1.502 . S
C5807 H5793 0.960 . S
C5807 H5794 0.961 . S
C5807 H5795 0.959 . S
C5807 C5805 1.561 . S
C5808 C5805 1.526 . S
C5808 C5809 1.396 . S
C5808 C5813 1.390 . S
C5809 C5803 1.465 . S
C5809 C5808 1.396 . S
C5809 C5810 1.399 . S
C5810 H5796 0.929 . S
C5810 C5809 1.399 . S
C5810 C5811 1.385 . S
C5811 H5797 0.931 . S
C5811 C5810 1.385 . S
C5811 C5812 1.389 . S
C5812 C5811 1.389 . S
C5812 C5813 1.387 . S
C5813 H5798 0.930 . S
C5813 C5808 1.390 . S
C5813 C5812 1.387 . S
H5814 C5826 0.930 . S
H5815 C5828 0.930 . S
H5816 C5829 0.930 . S
H5817 C5833 0.959 . S
H5818 C5833 0.959 . S
H5819 C5833 0.961 . S
H5820 C5834 0.960 . S
H5821 C5834 0.961 . S
H5822 C5834 0.959 . S
H5823 C5837 0.929 . S
H5824 C5838 0.931 . S
H5825 C5840 0.930 . S
C5826 H5814 0.930 . S
C5826 C5827 1.399 . S
C5826 C5831 1.399 . S
C5827 C5826 1.399 . S
C5827 C5828 1.376 . S
C5828 H5815 0.930 . S
C5828 C5827 1.376 . S
C5828 C5829 1.388 . S
C5829 H5816 0.930 . S
C5829 C5828 1.388 . S
C5829 C5830 1.390 . S
C5830 C5829 1.390 . S
C5830 C5831 1.394 . S
C5830 C5836 1.465 . S
C5831 C5826 1.399 . S
C5831 C5830 1.394 . S
C5831 C5832 1.516 . S
C5832 C5831 1.516 . S
C5832 C5833 1.502 . S
C5832 C5834 1.561 . S
C5832 C5835 1.526 . S
C5833 H5817 0.959 . S
C5833 H5818 0.959 . S
C5833 H5819 0.961 . S
C5833 C5832 1.502 . S
C5834 H5820 0.960 . S
C5834 H5821 0.961 . S
C5834 H5822 0.959 . S
C5834 C5832 1.561 . S
C5835 C5832 1.526 . S
C5835 C5836 1.396 . S
C5835 C5840 1.390 . S
C5836 C5830 1.465 . S
C5836 C5835 1.396 . S
C5836 C5837 1.399 . S
C5837 H5823 0.929 . S
C5837 C5836 1.399 . S
C5837 C5838 1.385 . S
C5838 H5824 0.931 . S
C5838 C5837 1.385 . S
C5838 C5839 1.389 . S
C5839 C5838 1.389 . S
C5839 C5840 1.387 . S
C5840 H5825 0.930 . S
C5840 C5835 1.390 . S
C5840 C5839 1.387 . S
H5841 C5853 0.930 . S
H5842 C5855 0.930 . S
H5843 C5856 0.930 . S
H5844 C5860 0.959 . S
H5845 C5860 0.959 . S
H5846 C5860 0.961 . S
H5847 C5861 0.960 . S
H5848 C5861 0.961 . S
H5849 C5861 0.959 . S
H5850 C5864 0.929 . S
H5851 C5865 0.931 . S
H5852 C5867 0.930 . S
C5853 H5841 0.930 . S
C5853 C5854 1.399 . S
C5853 C5858 1.399 . S
C5854 C5853 1.399 . S
C5854 C5855 1.376 . S
C5855 H5842 0.930 . S
C5855 C5854 1.376 . S
C5855 C5856 1.388 . S
C5856 H5843 0.930 . S
C5856 C5855 1.388 . S
C5856 C5857 1.390 . S
C5857 C5856 1.390 . S
C5857 C5858 1.394 . S
C5857 C5863 1.465 . S
C5858 C5853 1.399 . S
C5858 C5857 1.394 . S
C5858 C5859 1.516 . S
C5859 C5858 1.516 . S
C5859 C5860 1.502 . S
C5859 C5861 1.561 . S
C5859 C5862 1.526 . S
C5860 H5844 0.959 . S
C5860 H5845 0.959 . S
C5860 H5846 0.961 . S
C5860 C5859 1.502 . S
C5861 H5847 0.960 . S
C5861 H5848 0.961 . S
C5861 H5849 0.959 . S
C5861 C5859 1.561 . S
C5862 C5859 1.526 . S
C5862 C5863 1.396 . S
C5862 C5867 1.390 . S
C5863 C5857 1.465 . S
C5863 C5862 1.396 . S
C5863 C5864 1.399 . S
C5864 H5850 0.929 . S
C5864 C5863 1.399 . S
C5864 C5865 1.385 . S
C5865 H5851 0.931 . S
C5865 C5864 1.385 . S
C5865 C5866 1.389 . S
C5866 C5865 1.389 . S
C5866 C5867 1.387 . S
C5867 H5852 0.930 . S
C5867 C5862 1.390 . S
C5867 C5866 1.387 . S
H5868 C5880 0.930 . S
H5869 C5882 0.930 . S
H5870 C5883 0.930 . S
H5871 C5887 0.959 . S
H5872 C5887 0.959 . S
H5873 C5887 0.961 . S
H5874 C5888 0.960 . S
H5875 C5888 0.961 . S
H5876 C5888 0.959 . S
H5877 C5891 0.929 . S
H5878 C5892 0.931 . S
H5879 C5894 0.930 . S
C5880 H5868 0.930 . S
C5880 C5881 1.399 . S
C5880 C5885 1.399 . S
C5881 C5880 1.399 . S
C5881 C5882 1.376 . S
C5882 H5869 0.930 . S
C5882 C5881 1.376 . S
C5882 C5883 1.388 . S
C5883 H5870 0.930 . S
C5883 C5882 1.388 . S
C5883 C5884 1.390 . S
C5884 C5883 1.390 . S
C5884 C5885 1.394 . S
C5884 C5890 1.465 . S
C5885 C5880 1.399 . S
C5885 C5884 1.394 . S
C5885 C5886 1.516 . S
C5886 C5885 1.516 . S
C5886 C5887 1.502 . S
C5886 C5888 1.561 . S
C5886 C5889 1.526 . S
C5887 H5871 0.959 . S
C5887 H5872 0.959 . S
C5887 H5873 0.961 . S
C5887 C5886 1.502 . S
C5888 H5874 0.960 . S
C5888 H5875 0.961 . S
C5888 H5876 0.959 . S
C5888 C5886 1.561 . S
C5889 C5886 1.526 . S
C5889 C5890 1.396 . S
C5889 C5894 1.390 . S
C5890 C5884 1.465 . S
C5890 C5889 1.396 . S
C5890 C5891 1.399 . S
C5891 H5877 0.929 . S
C5891 C5890 1.399 . S
C5891 C5892 1.385 . S
C5892 H5878 0.931 . S
C5892 C5891 1.385 . S
C5892 C5893 1.389 . S
C5893 C5892 1.389 . S
C5893 C5894 1.387 . S
C5894 H5879 0.930 . S
C5894 C5889 1.390 . S
C5894 C5893 1.387 . S
H5895 C5907 0.930 . S
H5896 C5909 0.930 . S
H5897 C5910 0.930 . S
H5898 C5914 0.959 . S
H5899 C5914 0.959 . S
H5900 C5914 0.961 . S
H5901 C5915 0.960 . S
H5902 C5915 0.961 . S
H5903 C5915 0.959 . S
H5904 C5918 0.929 . S
H5905 C5919 0.931 . S
H5906 C5921 0.930 . S
C5907 H5895 0.930 . S
C5907 C5908 1.399 . S
C5907 C5912 1.399 . S
C5908 C5907 1.399 . S
C5908 C5909 1.376 . S
C5909 H5896 0.930 . S
C5909 C5908 1.376 . S
C5909 C5910 1.388 . S
C5910 H5897 0.930 . S
C5910 C5909 1.388 . S
C5910 C5911 1.390 . S
C5911 C5910 1.390 . S
C5911 C5912 1.394 . S
C5911 C5917 1.465 . S
C5912 C5907 1.399 . S
C5912 C5911 1.394 . S
C5912 C5913 1.516 . S
C5913 C5912 1.516 . S
C5913 C5914 1.502 . S
C5913 C5915 1.561 . S
C5913 C5916 1.526 . S
C5914 H5898 0.959 . S
C5914 H5899 0.959 . S
C5914 H5900 0.961 . S
C5914 C5913 1.502 . S
C5915 H5901 0.960 . S
C5915 H5902 0.961 . S
C5915 H5903 0.959 . S
C5915 C5913 1.561 . S
C5916 C5913 1.526 . S
C5916 C5917 1.396 . S
C5916 C5921 1.390 . S
C5917 C5911 1.465 . S
C5917 C5916 1.396 . S
C5917 C5918 1.399 . S
C5918 H5904 0.929 . S
C5918 C5917 1.399 . S
C5918 C5919 1.385 . S
C5919 H5905 0.931 . S
C5919 C5918 1.385 . S
C5919 C5920 1.389 . S
C5920 C5919 1.389 . S
C5920 C5921 1.387 . S
C5921 H5906 0.930 . S
C5921 C5916 1.390 . S
C5921 C5920 1.387 . S
H5922 C5934 0.930 . S
H5923 C5936 0.930 . S
H5924 C5937 0.930 . S
H5925 C5941 0.959 . S
H5926 C5941 0.959 . S
H5927 C5941 0.961 . S
H5928 C5942 0.960 . S
H5929 C5942 0.961 . S
H5930 C5942 0.959 . S
H5931 C5945 0.929 . S
H5932 C5946 0.931 . S
H5933 C5948 0.930 . S
C5934 H5922 0.930 . S
C5934 C5935 1.399 . S
C5934 C5939 1.399 . S
C5935 C5934 1.399 . S
C5935 C5936 1.376 . S
C5936 H5923 0.930 . S
C5936 C5935 1.376 . S
C5936 C5937 1.388 . S
C5937 H5924 0.930 . S
C5937 C5936 1.388 . S
C5937 C5938 1.390 . S
C5938 C5937 1.390 . S
C5938 C5939 1.394 . S
C5938 C5944 1.465 . S
C5939 C5934 1.399 . S
C5939 C5938 1.394 . S
C5939 C5940 1.516 . S
C5940 C5939 1.516 . S
C5940 C5941 1.502 . S
C5940 C5942 1.561 . S
C5940 C5943 1.526 . S
C5941 H5925 0.959 . S
C5941 H5926 0.959 . S
C5941 H5927 0.961 . S
C5941 C5940 1.502 . S
C5942 H5928 0.960 . S
C5942 H5929 0.961 . S
C5942 H5930 0.959 . S
C5942 C5940 1.561 . S
C5943 C5940 1.526 . S
C5943 C5944 1.396 . S
C5943 C5948 1.390 . S
C5944 C5938 1.465 . S
C5944 C5943 1.396 . S
C5944 C5945 1.399 . S
C5945 H5931 0.929 . S
C5945 C5944 1.399 . S
C5945 C5946 1.385 . S
C5946 H5932 0.931 . S
C5946 C5945 1.385 . S
C5946 C5947 1.389 . S
C5947 C5946 1.389 . S
C5947 C5948 1.387 . S
C5948 H5933 0.930 . S
C5948 C5943 1.390 . S
C5948 C5947 1.387 . S
H5949 C5961 0.930 . S
H5950 C5963 0.930 . S
H5951 C5964 0.930 . S
H5952 C5968 0.959 . S
H5953 C5968 0.959 . S
H5954 C5968 0.961 . S
H5955 C5969 0.960 . S
H5956 C5969 0.961 . S
H5957 C5969 0.959 . S
H5958 C5972 0.929 . S
H5959 C5973 0.931 . S
H5960 C5975 0.930 . S
C5961 H5949 0.930 . S
C5961 C5962 1.399 . S
C5961 C5966 1.399 . S
C5962 C5961 1.399 . S
C5962 C5963 1.376 . S
C5963 H5950 0.930 . S
C5963 C5962 1.376 . S
C5963 C5964 1.388 . S
C5964 H5951 0.930 . S
C5964 C5963 1.388 . S
C5964 C5965 1.390 . S
C5965 C5964 1.390 . S
C5965 C5966 1.394 . S
C5965 C5971 1.465 . S
C5966 C5961 1.399 . S
C5966 C5965 1.394 . S
C5966 C5967 1.516 . S
C5967 C5966 1.516 . S
C5967 C5968 1.502 . S
C5967 C5969 1.561 . S
C5967 C5970 1.526 . S
C5968 H5952 0.959 . S
C5968 H5953 0.959 . S
C5968 H5954 0.961 . S
C5968 C5967 1.502 . S
C5969 H5955 0.960 . S
C5969 H5956 0.961 . S
C5969 H5957 0.959 . S
C5969 C5967 1.561 . S
C5970 C5967 1.526 . S
C5970 C5971 1.396 . S
C5970 C5975 1.390 . S
C5971 C5965 1.465 . S
C5971 C5970 1.396 . S
C5971 C5972 1.399 . S
C5972 H5958 0.929 . S
C5972 C5971 1.399 . S
C5972 C5973 1.385 . S
C5973 H5959 0.931 . S
C5973 C5972 1.385 . S
C5973 C5974 1.389 . S
C5974 C5973 1.389 . S
C5974 C5975 1.387 . S
C5975 H5960 0.930 . S
C5975 C5970 1.390 . S
C5975 C5974 1.387 . S
H5976 C5988 0.930 . S
H5977 C5990 0.930 . S
H5978 C5991 0.930 . S
H5979 C5995 0.959 . S
H5980 C5995 0.959 . S
H5981 C5995 0.961 . S
H5982 C5996 0.960 . S
H5983 C5996 0.961 . S
H5984 C5996 0.959 . S
H5985 C5999 0.929 . S
H5986 C6000 0.931 . S
H5987 C6002 0.930 . S
C5988 H5976 0.930 . S
C5988 C5989 1.399 . S
C5988 C5993 1.399 . S
C5989 C5988 1.399 . S
C5989 C5990 1.376 . S
C5990 H5977 0.930 . S
C5990 C5989 1.376 . S
C5990 C5991 1.388 . S
C5991 H5978 0.930 . S
C5991 C5990 1.388 . S
C5991 C5992 1.390 . S
C5992 C5991 1.390 . S
C5992 C5993 1.394 . S
C5992 C5998 1.465 . S
C5993 C5988 1.399 . S
C5993 C5992 1.394 . S
C5993 C5994 1.516 . S
C5994 C5993 1.516 . S
C5994 C5995 1.502 . S
C5994 C5996 1.561 . S
C5994 C5997 1.526 . S
C5995 H5979 0.959 . S
C5995 H5980 0.959 . S
C5995 H5981 0.961 . S
C5995 C5994 1.502 . S
C5996 H5982 0.960 . S
C5996 H5983 0.961 . S
C5996 H5984 0.959 . S
C5996 C5994 1.561 . S
C5997 C5994 1.526 . S
C5997 C5998 1.396 . S
C5997 C6002 1.390 . S
C5998 C5992 1.465 . S
C5998 C5997 1.396 . S
C5998 C5999 1.399 . S
C5999 H5985 0.929 . S
C5999 C5998 1.399 . S
C5999 C6000 1.385 . S
C6000 H5986 0.931 . S
C6000 C5999 1.385 . S
C6000 C6001 1.389 . S
C6001 C6000 1.389 . S
C6001 C6002 1.387 . S
C6002 H5987 0.930 . S
C6002 C5997 1.390 . S
C6002 C6001 1.387 . S
H6003 C6015 0.930 . S
H6004 C6017 0.930 . S
H6005 C6018 0.930 . S
H6006 C6022 0.959 . S
H6007 C6022 0.959 . S
H6008 C6022 0.961 . S
H6009 C6023 0.960 . S
H6010 C6023 0.961 . S
H6011 C6023 0.959 . S
H6012 C6026 0.929 . S
H6013 C6027 0.931 . S
H6014 C6029 0.930 . S
C6015 H6003 0.930 . S
C6015 C6016 1.399 . S
C6015 C6020 1.399 . S
C6016 C6015 1.399 . S
C6016 C6017 1.376 . S
C6017 H6004 0.930 . S
C6017 C6016 1.376 . S
C6017 C6018 1.388 . S
C6018 H6005 0.930 . S
C6018 C6017 1.388 . S
C6018 C6019 1.390 . S
C6019 C6018 1.390 . S
C6019 C6020 1.394 . S
C6019 C6025 1.465 . S
C6020 C6015 1.399 . S
C6020 C6019 1.394 . S
C6020 C6021 1.516 . S
C6021 C6020 1.516 . S
C6021 C6022 1.502 . S
C6021 C6023 1.561 . S
C6021 C6024 1.526 . S
C6022 H6006 0.959 . S
C6022 H6007 0.959 . S
C6022 H6008 0.961 . S
C6022 C6021 1.502 . S
C6023 H6009 0.960 . S
C6023 H6010 0.961 . S
C6023 H6011 0.959 . S
C6023 C6021 1.561 . S
C6024 C6021 1.526 . S
C6024 C6025 1.396 . S
C6024 C6029 1.390 . S
C6025 C6019 1.465 . S
C6025 C6024 1.396 . S
C6025 C6026 1.399 . S
C6026 H6012 0.929 . S
C6026 C6025 1.399 . S
C6026 C6027 1.385 . S
C6027 H6013 0.931 . S
C6027 C6026 1.385 . S
C6027 C6028 1.389 . S
C6028 C6027 1.389 . S
C6028 C6029 1.387 . S
C6029 H6014 0.930 . S
C6029 C6024 1.390 . S
C6029 C6028 1.387 . S
H6030 C6042 0.930 . S
H6031 C6044 0.930 . S
H6032 C6045 0.930 . S
H6033 C6049 0.959 . S
H6034 C6049 0.959 . S
H6035 C6049 0.961 . S
H6036 C6050 0.960 . S
H6037 C6050 0.961 . S
H6038 C6050 0.959 . S
H6039 C6053 0.929 . S
H6040 C6054 0.931 . S
H6041 C6056 0.930 . S
C6042 H6030 0.930 . S
C6042 C6043 1.399 . S
C6042 C6047 1.399 . S
C6043 C6042 1.399 . S
C6043 C6044 1.376 . S
C6044 H6031 0.930 . S
C6044 C6043 1.376 . S
C6044 C6045 1.388 . S
C6045 H6032 0.930 . S
C6045 C6044 1.388 . S
C6045 C6046 1.390 . S
C6046 C6045 1.390 . S
C6046 C6047 1.394 . S
C6046 C6052 1.465 . S
C6047 C6042 1.399 . S
C6047 C6046 1.394 . S
C6047 C6048 1.516 . S
C6048 C6047 1.516 . S
C6048 C6049 1.502 . S
C6048 C6050 1.561 . S
C6048 C6051 1.526 . S
C6049 H6033 0.959 . S
C6049 H6034 0.959 . S
C6049 H6035 0.961 . S
C6049 C6048 1.502 . S
C6050 H6036 0.960 . S
C6050 H6037 0.961 . S
C6050 H6038 0.959 . S
C6050 C6048 1.561 . S
C6051 C6048 1.526 . S
C6051 C6052 1.396 . S
C6051 C6056 1.390 . S
C6052 C6046 1.465 . S
C6052 C6051 1.396 . S
C6052 C6053 1.399 . S
C6053 H6039 0.929 . S
C6053 C6052 1.399 . S
C6053 C6054 1.385 . S
C6054 H6040 0.931 . S
C6054 C6053 1.385 . S
C6054 C6055 1.389 . S
C6055 C6054 1.389 . S
C6055 C6056 1.387 . S
C6056 H6041 0.930 . S
C6056 C6051 1.390 . S
C6056 C6055 1.387 . S
H6057 C6069 0.930 . S
H6058 C6071 0.930 . S
H6059 C6072 0.930 . S
H6060 C6076 0.959 . S
H6061 C6076 0.959 . S
H6062 C6076 0.961 . S
H6063 C6077 0.960 . S
H6064 C6077 0.961 . S
H6065 C6077 0.959 . S
H6066 C6080 0.929 . S
H6067 C6081 0.931 . S
H6068 C6083 0.930 . S
C6069 H6057 0.930 . S
C6069 C6070 1.399 . S
C6069 C6074 1.399 . S
C6070 C6069 1.399 . S
C6070 C6071 1.376 . S
C6071 H6058 0.930 . S
C6071 C6070 1.376 . S
C6071 C6072 1.388 . S
C6072 H6059 0.930 . S
C6072 C6071 1.388 . S
C6072 C6073 1.390 . S
C6073 C6072 1.390 . S
C6073 C6074 1.394 . S
C6073 C6079 1.465 . S
C6074 C6069 1.399 . S
C6074 C6073 1.394 . S
C6074 C6075 1.516 . S
C6075 C6074 1.516 . S
C6075 C6076 1.502 . S
C6075 C6077 1.561 . S
C6075 C6078 1.526 . S
C6076 H6060 0.959 . S
C6076 H6061 0.959 . S
C6076 H6062 0.961 . S
C6076 C6075 1.502 . S
C6077 H6063 0.960 . S
C6077 H6064 0.961 . S
C6077 H6065 0.959 . S
C6077 C6075 1.561 . S
C6078 C6075 1.526 . S
C6078 C6079 1.396 . S
C6078 C6083 1.390 . S
C6079 C6073 1.465 . S
C6079 C6078 1.396 . S
C6079 C6080 1.399 . S
C6080 H6066 0.929 . S
C6080 C6079 1.399 . S
C6080 C6081 1.385 . S
C6081 H6067 0.931 . S
C6081 C6080 1.385 . S
C6081 C6082 1.389 . S
C6082 C6081 1.389 . S
C6082 C6083 1.387 . S
C6083 H6068 0.930 . S
C6083 C6078 1.390 . S
C6083 C6082 1.387 . S
H6084 C6096 0.930 . S
H6085 C6098 0.930 . S
H6086 C6099 0.930 . S
H6087 C6103 0.959 . S
H6088 C6103 0.959 . S
H6089 C6103 0.961 . S
H6090 C6104 0.960 . S
H6091 C6104 0.961 . S
H6092 C6104 0.959 . S
H6093 C6107 0.929 . S
H6094 C6108 0.931 . S
H6095 C6110 0.930 . S
C6096 H6084 0.930 . S
C6096 C6097 1.399 . S
C6096 C6101 1.399 . S
C6097 C6096 1.399 . S
C6097 C6098 1.376 . S
C6098 H6085 0.930 . S
C6098 C6097 1.376 . S
C6098 C6099 1.388 . S
C6099 H6086 0.930 . S
C6099 C6098 1.388 . S
C6099 C6100 1.390 . S
C6100 C6099 1.390 . S
C6100 C6101 1.394 . S
C6100 C6106 1.465 . S
C6101 C6096 1.399 . S
C6101 C6100 1.394 . S
C6101 C6102 1.516 . S
C6102 C6101 1.516 . S
C6102 C6103 1.502 . S
C6102 C6104 1.561 . S
C6102 C6105 1.526 . S
C6103 H6087 0.959 . S
C6103 H6088 0.959 . S
C6103 H6089 0.961 . S
C6103 C6102 1.502 . S
C6104 H6090 0.960 . S
C6104 H6091 0.961 . S
C6104 H6092 0.959 . S
C6104 C6102 1.561 . S
C6105 C6102 1.526 . S
C6105 C6106 1.396 . S
C6105 C6110 1.390 . S
C6106 C6100 1.465 . S
C6106 C6105 1.396 . S
C6106 C6107 1.399 . S
C6107 H6093 0.929 . S
C6107 C6106 1.399 . S
C6107 C6108 1.385 . S
C6108 H6094 0.931 . S
C6108 C6107 1.385 . S
C6108 C6109 1.389 . S
C6109 C6108 1.389 . S
C6109 C6110 1.387 . S
C6110 H6095 0.930 . S
C6110 C6105 1.390 . S
C6110 C6109 1.387 . S
H6111 C6123 0.930 . S
H6112 C6125 0.930 . S
H6113 C6126 0.930 . S
H6114 C6130 0.959 . S
H6115 C6130 0.959 . S
H6116 C6130 0.961 . S
H6117 C6131 0.960 . S
H6118 C6131 0.961 . S
H6119 C6131 0.959 . S
H6120 C6134 0.929 . S
H6121 C6135 0.931 . S
H6122 C6137 0.930 . S
C6123 H6111 0.930 . S
C6123 C6124 1.399 . S
C6123 C6128 1.399 . S
C6124 C6123 1.399 . S
C6124 C6125 1.376 . S
C6125 H6112 0.930 . S
C6125 C6124 1.376 . S
C6125 C6126 1.388 . S
C6126 H6113 0.930 . S
C6126 C6125 1.388 . S
C6126 C6127 1.390 . S
C6127 C6126 1.390 . S
C6127 C6128 1.394 . S
C6127 C6133 1.465 . S
C6128 C6123 1.399 . S
C6128 C6127 1.394 . S
C6128 C6129 1.516 . S
C6129 C6128 1.516 . S
C6129 C6130 1.502 . S
C6129 C6131 1.561 . S
C6129 C6132 1.526 . S
C6130 H6114 0.959 . S
C6130 H6115 0.959 . S
C6130 H6116 0.961 . S
C6130 C6129 1.502 . S
C6131 H6117 0.960 . S
C6131 H6118 0.961 . S
C6131 H6119 0.959 . S
C6131 C6129 1.561 . S
C6132 C6129 1.526 . S
C6132 C6133 1.396 . S
C6132 C6137 1.390 . S
C6133 C6127 1.465 . S
C6133 C6132 1.396 . S
C6133 C6134 1.399 . S
C6134 H6120 0.929 . S
C6134 C6133 1.399 . S
C6134 C6135 1.385 . S
C6135 H6121 0.931 . S
C6135 C6134 1.385 . S
C6135 C6136 1.389 . S
C6136 C6135 1.389 . S
C6136 C6137 1.387 . S
C6137 H6122 0.930 . S
C6137 C6132 1.390 . S
C6137 C6136 1.387 . S
H6138 C6150 0.930 . S
H6139 C6152 0.930 . S
H6140 C6153 0.930 . S
H6141 C6157 0.959 . S
H6142 C6157 0.959 . S
H6143 C6157 0.961 . S
H6144 C6158 0.960 . S
H6145 C6158 0.961 . S
H6146 C6158 0.959 . S
H6147 C6161 0.929 . S
H6148 C6162 0.931 . S
H6149 C6164 0.930 . S
C6150 H6138 0.930 . S
C6150 C6151 1.399 . S
C6150 C6155 1.399 . S
C6151 C6150 1.399 . S
C6151 C6152 1.376 . S
C6152 H6139 0.930 . S
C6152 C6151 1.376 . S
C6152 C6153 1.388 . S
C6153 H6140 0.930 . S
C6153 C6152 1.388 . S
C6153 C6154 1.390 . S
C6154 C6153 1.390 . S
C6154 C6155 1.394 . S
C6154 C6160 1.465 . S
C6155 C6150 1.399 . S
C6155 C6154 1.394 . S
C6155 C6156 1.516 . S
C6156 C6155 1.516 . S
C6156 C6157 1.502 . S
C6156 C6158 1.561 . S
C6156 C6159 1.526 . S
C6157 H6141 0.959 . S
C6157 H6142 0.959 . S
C6157 H6143 0.961 . S
C6157 C6156 1.502 . S
C6158 H6144 0.960 . S
C6158 H6145 0.961 . S
C6158 H6146 0.959 . S
C6158 C6156 1.561 . S
C6159 C6156 1.526 . S
C6159 C6160 1.396 . S
C6159 C6164 1.390 . S
C6160 C6154 1.465 . S
C6160 C6159 1.396 . S
C6160 C6161 1.399 . S
C6161 H6147 0.929 . S
C6161 C6160 1.399 . S
C6161 C6162 1.385 . S
C6162 H6148 0.931 . S
C6162 C6161 1.385 . S
C6162 C6163 1.389 . S
C6163 C6162 1.389 . S
C6163 C6164 1.387 . S
C6164 H6149 0.930 . S
C6164 C6159 1.390 . S
C6164 C6163 1.387 . S
H6165 C6177 0.930 . S
H6166 C6179 0.930 . S
H6167 C6180 0.930 . S
H6168 C6184 0.959 . S
H6169 C6184 0.959 . S
H6170 C6184 0.961 . S
H6171 C6185 0.960 . S
H6172 C6185 0.961 . S
H6173 C6185 0.959 . S
H6174 C6188 0.929 . S
H6175 C6189 0.931 . S
H6176 C6191 0.930 . S
C6177 H6165 0.930 . S
C6177 C6178 1.399 . S
C6177 C6182 1.399 . S
C6178 C6177 1.399 . S
C6178 C6179 1.376 . S
C6179 H6166 0.930 . S
C6179 C6178 1.376 . S
C6179 C6180 1.388 . S
C6180 H6167 0.930 . S
C6180 C6179 1.388 . S
C6180 C6181 1.390 . S
C6181 C6180 1.390 . S
C6181 C6182 1.394 . S
C6181 C6187 1.465 . S
C6182 C6177 1.399 . S
C6182 C6181 1.394 . S
C6182 C6183 1.516 . S
C6183 C6182 1.516 . S
C6183 C6184 1.502 . S
C6183 C6185 1.561 . S
C6183 C6186 1.526 . S
C6184 H6168 0.959 . S
C6184 H6169 0.959 . S
C6184 H6170 0.961 . S
C6184 C6183 1.502 . S
C6185 H6171 0.960 . S
C6185 H6172 0.961 . S
C6185 H6173 0.959 . S
C6185 C6183 1.561 . S
C6186 C6183 1.526 . S
C6186 C6187 1.396 . S
C6186 C6191 1.390 . S
C6187 C6181 1.465 . S
C6187 C6186 1.396 . S
C6187 C6188 1.399 . S
C6188 H6174 0.929 . S
C6188 C6187 1.399 . S
C6188 C6189 1.385 . S
C6189 H6175 0.931 . S
C6189 C6188 1.385 . S
C6189 C6190 1.389 . S
C6190 C6189 1.389 . S
C6190 C6191 1.387 . S
C6191 H6176 0.930 . S
C6191 C6186 1.390 . S
C6191 C6190 1.387 . S
H6192 C6204 0.930 . S
H6193 C6206 0.930 . S
H6194 C6207 0.930 . S
H6195 C6211 0.959 . S
H6196 C6211 0.959 . S
H6197 C6211 0.961 . S
H6198 C6212 0.960 . S
H6199 C6212 0.961 . S
H6200 C6212 0.959 . S
H6201 C6215 0.929 . S
H6202 C6216 0.931 . S
H6203 C6218 0.930 . S
C6204 H6192 0.930 . S
C6204 C6205 1.399 . S
C6204 C6209 1.399 . S
C6205 C6204 1.399 . S
C6205 C6206 1.376 . S
C6206 H6193 0.930 . S
C6206 C6205 1.376 . S
C6206 C6207 1.388 . S
C6207 H6194 0.930 . S
C6207 C6206 1.388 . S
C6207 C6208 1.390 . S
C6208 C6207 1.390 . S
C6208 C6209 1.394 . S
C6208 C6214 1.465 . S
C6209 C6204 1.399 . S
C6209 C6208 1.394 . S
C6209 C6210 1.516 . S
C6210 C6209 1.516 . S
C6210 C6211 1.502 . S
C6210 C6212 1.561 . S
C6210 C6213 1.526 . S
C6211 H6195 0.959 . S
C6211 H6196 0.959 . S
C6211 H6197 0.961 . S
C6211 C6210 1.502 . S
C6212 H6198 0.960 . S
C6212 H6199 0.961 . S
C6212 H6200 0.959 . S
C6212 C6210 1.561 . S
C6213 C6210 1.526 . S
C6213 C6214 1.396 . S
C6213 C6218 1.390 . S
C6214 C6208 1.465 . S
C6214 C6213 1.396 . S
C6214 C6215 1.399 . S
C6215 H6201 0.929 . S
C6215 C6214 1.399 . S
C6215 C6216 1.385 . S
C6216 H6202 0.931 . S
C6216 C6215 1.385 . S
C6216 C6217 1.389 . S
C6217 C6216 1.389 . S
C6217 C6218 1.387 . S
C6218 H6203 0.930 . S
C6218 C6213 1.390 . S
C6218 C6217 1.387 . S
H6219 C6231 0.930 . S
H6220 C6233 0.930 . S
H6221 C6234 0.930 . S
H6222 C6238 0.959 . S
H6223 C6238 0.959 . S
H6224 C6238 0.961 . S
H6225 C6239 0.960 . S
H6226 C6239 0.961 . S
H6227 C6239 0.959 . S
H6228 C6242 0.929 . S
H6229 C6243 0.931 . S
H6230 C6245 0.930 . S
C6231 H6219 0.930 . S
C6231 C6232 1.399 . S
C6231 C6236 1.399 . S
C6232 C6231 1.399 . S
C6232 C6233 1.376 . S
C6233 H6220 0.930 . S
C6233 C6232 1.376 . S
C6233 C6234 1.388 . S
C6234 H6221 0.930 . S
C6234 C6233 1.388 . S
C6234 C6235 1.390 . S
C6235 C6234 1.390 . S
C6235 C6236 1.394 . S
C6235 C6241 1.465 . S
C6236 C6231 1.399 . S
C6236 C6235 1.394 . S
C6236 C6237 1.516 . S
C6237 C6236 1.516 . S
C6237 C6238 1.502 . S
C6237 C6239 1.561 . S
C6237 C6240 1.526 . S
C6238 H6222 0.959 . S
C6238 H6223 0.959 . S
C6238 H6224 0.961 . S
C6238 C6237 1.502 . S
C6239 H6225 0.960 . S
C6239 H6226 0.961 . S
C6239 H6227 0.959 . S
C6239 C6237 1.561 . S
C6240 C6237 1.526 . S
C6240 C6241 1.396 . S
C6240 C6245 1.390 . S
C6241 C6235 1.465 . S
C6241 C6240 1.396 . S
C6241 C6242 1.399 . S
C6242 H6228 0.929 . S
C6242 C6241 1.399 . S
C6242 C6243 1.385 . S
C6243 H6229 0.931 . S
C6243 C6242 1.385 . S
C6243 C6244 1.389 . S
C6244 C6243 1.389 . S
C6244 C6245 1.387 . S
C6245 H6230 0.930 . S
C6245 C6240 1.390 . S
C6245 C6244 1.387 . S
H6246 C6258 0.930 . S
H6247 C6260 0.930 . S
H6248 C6261 0.930 . S
H6249 C6265 0.959 . S
H6250 C6265 0.959 . S
H6251 C6265 0.961 . S
H6252 C6266 0.960 . S
H6253 C6266 0.961 . S
H6254 C6266 0.959 . S
H6255 C6269 0.929 . S
H6256 C6270 0.931 . S
H6257 C6272 0.930 . S
C6258 H6246 0.930 . S
C6258 C6259 1.399 . S
C6258 C6263 1.399 . S
C6259 C6258 1.399 . S
C6259 C6260 1.376 . S
C6260 H6247 0.930 . S
C6260 C6259 1.376 . S
C6260 C6261 1.388 . S
C6261 H6248 0.930 . S
C6261 C6260 1.388 . S
C6261 C6262 1.390 . S
C6262 C6261 1.390 . S
C6262 C6263 1.394 . S
C6262 C6268 1.465 . S
C6263 C6258 1.399 . S
C6263 C6262 1.394 . S
C6263 C6264 1.516 . S
C6264 C6263 1.516 . S
C6264 C6265 1.502 . S
C6264 C6266 1.561 . S
C6264 C6267 1.526 . S
C6265 H6249 0.959 . S
C6265 H6250 0.959 . S
C6265 H6251 0.961 . S
C6265 C6264 1.502 . S
C6266 H6252 0.960 . S
C6266 H6253 0.961 . S
C6266 H6254 0.959 . S
C6266 C6264 1.561 . S
C6267 C6264 1.526 . S
C6267 C6268 1.396 . S
C6267 C6272 1.390 . S
C6268 C6262 1.465 . S
C6268 C6267 1.396 . S
C6268 C6269 1.399 . S
C6269 H6255 0.929 . S
C6269 C6268 1.399 . S
C6269 C6270 1.385 . S
C6270 H6256 0.931 . S
C6270 C6269 1.385 . S
C6270 C6271 1.389 . S
C6271 C6270 1.389 . S
C6271 C6272 1.387 . S
C6272 H6257 0.930 . S
C6272 C6267 1.390 . S
C6272 C6271 1.387 . S
H6273 C6285 0.930 . S
H6274 C6287 0.930 . S
H6275 C6288 0.930 . S
H6276 C6292 0.959 . S
H6277 C6292 0.959 . S
H6278 C6292 0.961 . S
H6279 C6293 0.960 . S
H6280 C6293 0.961 . S
H6281 C6293 0.959 . S
H6282 C6296 0.929 . S
H6283 C6297 0.931 . S
H6284 C6299 0.930 . S
C6285 H6273 0.930 . S
C6285 C6286 1.399 . S
C6285 C6290 1.399 . S
C6286 C6285 1.399 . S
C6286 C6287 1.376 . S
C6287 H6274 0.930 . S
C6287 C6286 1.376 . S
C6287 C6288 1.388 . S
C6288 H6275 0.930 . S
C6288 C6287 1.388 . S
C6288 C6289 1.390 . S
C6289 C6288 1.390 . S
C6289 C6290 1.394 . S
C6289 C6295 1.465 . S
C6290 C6285 1.399 . S
C6290 C6289 1.394 . S
C6290 C6291 1.516 . S
C6291 C6290 1.516 . S
C6291 C6292 1.502 . S
C6291 C6293 1.561 . S
C6291 C6294 1.526 . S
C6292 H6276 0.959 . S
C6292 H6277 0.959 . S
C6292 H6278 0.961 . S
C6292 C6291 1.502 . S
C6293 H6279 0.960 . S
C6293 H6280 0.961 . S
C6293 H6281 0.959 . S
C6293 C6291 1.561 . S
C6294 C6291 1.526 . S
C6294 C6295 1.396 . S
C6294 C6299 1.390 . S
C6295 C6289 1.465 . S
C6295 C6294 1.396 . S
C6295 C6296 1.399 . S
C6296 H6282 0.929 . S
C6296 C6295 1.399 . S
C6296 C6297 1.385 . S
C6297 H6283 0.931 . S
C6297 C6296 1.385 . S
C6297 C6298 1.389 . S
C6298 C6297 1.389 . S
C6298 C6299 1.387 . S
C6299 H6284 0.930 . S
C6299 C6294 1.390 . S
C6299 C6298 1.387 . S
H6300 C6312 0.930 . S
H6301 C6314 0.930 . S
H6302 C6315 0.930 . S
H6303 C6319 0.959 . S
H6304 C6319 0.959 . S
H6305 C6319 0.961 . S
H6306 C6320 0.960 . S
H6307 C6320 0.961 . S
H6308 C6320 0.959 . S
H6309 C6323 0.929 . S
H6310 C6324 0.931 . S
H6311 C6326 0.930 . S
C6312 H6300 0.930 . S
C6312 C6313 1.399 . S
C6312 C6317 1.399 . S
C6313 C6312 1.399 . S
C6313 C6314 1.376 . S
C6314 H6301 0.930 . S
C6314 C6313 1.376 . S
C6314 C6315 1.388 . S
C6315 H6302 0.930 . S
C6315 C6314 1.388 . S
C6315 C6316 1.390 . S
C6316 C6315 1.390 . S
C6316 C6317 1.394 . S
C6316 C6322 1.465 . S
C6317 C6312 1.399 . S
C6317 C6316 1.394 . S
C6317 C6318 1.516 . S
C6318 C6317 1.516 . S
C6318 C6319 1.502 . S
C6318 C6320 1.561 . S
C6318 C6321 1.526 . S
C6319 H6303 0.959 . S
C6319 H6304 0.959 . S
C6319 H6305 0.961 . S
C6319 C6318 1.502 . S
C6320 H6306 0.960 . S
C6320 H6307 0.961 . S
C6320 H6308 0.959 . S
C6320 C6318 1.561 . S
C6321 C6318 1.526 . S
C6321 C6322 1.396 . S
C6321 C6326 1.390 . S
C6322 C6316 1.465 . S
C6322 C6321 1.396 . S
C6322 C6323 1.399 . S
C6323 H6309 0.929 . S
C6323 C6322 1.399 . S
C6323 C6324 1.385 . S
C6324 H6310 0.931 . S
C6324 C6323 1.385 . S
C6324 C6325 1.389 . S
C6325 C6324 1.389 . S
C6325 C6326 1.387 . S
C6326 H6311 0.930 . S
C6326 C6321 1.390 . S
C6326 C6325 1.387 . S
H6327 C6339 0.930 . S
H6328 C6341 0.930 . S
H6329 C6342 0.930 . S
H6330 C6346 0.959 . S
H6331 C6346 0.959 . S
H6332 C6346 0.961 . S
H6333 C6347 0.960 . S
H6334 C6347 0.961 . S
H6335 C6347 0.959 . S
H6336 C6350 0.929 . S
H6337 C6351 0.931 . S
H6338 C6353 0.930 . S
C6339 H6327 0.930 . S
C6339 C6340 1.399 . S
C6339 C6344 1.399 . S
C6340 C6339 1.399 . S
C6340 C6341 1.376 . S
C6341 H6328 0.930 . S
C6341 C6340 1.376 . S
C6341 C6342 1.388 . S
C6342 H6329 0.930 . S
C6342 C6341 1.388 . S
C6342 C6343 1.390 . S
C6343 C6342 1.390 . S
C6343 C6344 1.394 . S
C6343 C6349 1.465 . S
C6344 C6339 1.399 . S
C6344 C6343 1.394 . S
C6344 C6345 1.516 . S
C6345 C6344 1.516 . S
C6345 C6346 1.502 . S
C6345 C6347 1.561 . S
C6345 C6348 1.526 . S
C6346 H6330 0.959 . S
C6346 H6331 0.959 . S
C6346 H6332 0.961 . S
C6346 C6345 1.502 . S
C6347 H6333 0.960 . S
C6347 H6334 0.961 . S
C6347 H6335 0.959 . S
C6347 C6345 1.561 . S
C6348 C6345 1.526 . S
C6348 C6349 1.396 . S
C6348 C6353 1.390 . S
C6349 C6343 1.465 . S
C6349 C6348 1.396 . S
C6349 C6350 1.399 . S
C6350 H6336 0.929 . S
C6350 C6349 1.399 . S
C6350 C6351 1.385 . S
C6351 H6337 0.931 . S
C6351 C6350 1.385 . S
C6351 C6352 1.389 . S
C6352 C6351 1.389 . S
C6352 C6353 1.387 . S
C6353 H6338 0.930 . S
C6353 C6348 1.390 . S
C6353 C6352 1.387 . S
H6354 C6366 0.930 . S
H6355 C6368 0.930 . S
H6356 C6369 0.930 . S
H6357 C6373 0.959 . S
H6358 C6373 0.959 . S
H6359 C6373 0.961 . S
H6360 C6374 0.960 . S
H6361 C6374 0.961 . S
H6362 C6374 0.959 . S
H6363 C6377 0.929 . S
H6364 C6378 0.931 . S
H6365 C6380 0.930 . S
C6366 H6354 0.930 . S
C6366 C6367 1.399 . S
C6366 C6371 1.399 . S
C6367 C6366 1.399 . S
C6367 C6368 1.376 . S
C6368 H6355 0.930 . S
C6368 C6367 1.376 . S
C6368 C6369 1.388 . S
C6369 H6356 0.930 . S
C6369 C6368 1.388 . S
C6369 C6370 1.390 . S
C6370 C6369 1.390 . S
C6370 C6371 1.394 . S
C6370 C6376 1.465 . S
C6371 C6366 1.399 . S
C6371 C6370 1.394 . S
C6371 C6372 1.516 . S
C6372 C6371 1.516 . S
C6372 C6373 1.502 . S
C6372 C6374 1.561 . S
C6372 C6375 1.526 . S
C6373 H6357 0.959 . S
C6373 H6358 0.959 . S
C6373 H6359 0.961 . S
C6373 C6372 1.502 . S
C6374 H6360 0.960 . S
C6374 H6361 0.961 . S
C6374 H6362 0.959 . S
C6374 C6372 1.561 . S
C6375 C6372 1.526 . S
C6375 C6376 1.396 . S
C6375 C6380 1.390 . S
C6376 C6370 1.465 . S
C6376 C6375 1.396 . S
C6376 C6377 1.399 . S
C6377 H6363 0.929 . S
C6377 C6376 1.399 . S
C6377 C6378 1.385 . S
C6378 H6364 0.931 . S
C6378 C6377 1.385 . S
C6378 C6379 1.389 . S
C6379 C6378 1.389 . S
C6379 C6380 1.387 . S
C6380 H6365 0.930 . S
C6380 C6375 1.390 . S
C6380 C6379 1.387 . S
H6381 C6393 0.930 . S
H6382 C6395 0.930 . S
H6383 C6396 0.930 . S
H6384 C6400 0.959 . S
H6385 C6400 0.959 . S
H6386 C6400 0.961 . S
H6387 C6401 0.960 . S
H6388 C6401 0.961 . S
H6389 C6401 0.959 . S
H6390 C6404 0.929 . S
H6391 C6405 0.931 . S
H6392 C6407 0.930 . S
C6393 H6381 0.930 . S
C6393 C6394 1.399 . S
C6393 C6398 1.399 . S
C6394 C6393 1.399 . S
C6394 C6395 1.376 . S
C6395 H6382 0.930 . S
C6395 C6394 1.376 . S
C6395 C6396 1.388 . S
C6396 H6383 0.930 . S
C6396 C6395 1.388 . S
C6396 C6397 1.390 . S
C6397 C6396 1.390 . S
C6397 C6398 1.394 . S
C6397 C6403 1.465 . S
C6398 C6393 1.399 . S
C6398 C6397 1.394 . S
C6398 C6399 1.516 . S
C6399 C6398 1.516 . S
C6399 C6400 1.502 . S
C6399 C6401 1.561 . S
C6399 C6402 1.526 . S
C6400 H6384 0.959 . S
C6400 H6385 0.959 . S
C6400 H6386 0.961 . S
C6400 C6399 1.502 . S
C6401 H6387 0.960 . S
C6401 H6388 0.961 . S
C6401 H6389 0.959 . S
C6401 C6399 1.561 . S
C6402 C6399 1.526 . S
C6402 C6403 1.396 . S
C6402 C6407 1.390 . S
C6403 C6397 1.465 . S
C6403 C6402 1.396 . S
C6403 C6404 1.399 . S
C6404 H6390 0.929 . S
C6404 C6403 1.399 . S
C6404 C6405 1.385 . S
C6405 H6391 0.931 . S
C6405 C6404 1.385 . S
C6405 C6406 1.389 . S
C6406 C6405 1.389 . S
C6406 C6407 1.387 . S
C6407 H6392 0.930 . S
C6407 C6402 1.390 . S
C6407 C6406 1.387 . S
H6408 C6420 0.930 . S
H6409 C6422 0.930 . S
H6410 C6423 0.930 . S
H6411 C6427 0.959 . S
H6412 C6427 0.959 . S
H6413 C6427 0.961 . S
H6414 C6428 0.960 . S
H6415 C6428 0.961 . S
H6416 C6428 0.959 . S
H6417 C6431 0.929 . S
H6418 C6432 0.931 . S
H6419 C6434 0.930 . S
C6420 H6408 0.930 . S
C6420 C6421 1.399 . S
C6420 C6425 1.399 . S
C6421 C6420 1.399 . S
C6421 C6422 1.376 . S
C6422 H6409 0.930 . S
C6422 C6421 1.376 . S
C6422 C6423 1.388 . S
C6423 H6410 0.930 . S
C6423 C6422 1.388 . S
C6423 C6424 1.390 . S
C6424 C6423 1.390 . S
C6424 C6425 1.394 . S
C6424 C6430 1.465 . S
C6425 C6420 1.399 . S
C6425 C6424 1.394 . S
C6425 C6426 1.516 . S
C6426 C6425 1.516 . S
C6426 C6427 1.502 . S
C6426 C6428 1.561 . S
C6426 C6429 1.526 . S
C6427 H6411 0.959 . S
C6427 H6412 0.959 . S
C6427 H6413 0.961 . S
C6427 C6426 1.502 . S
C6428 H6414 0.960 . S
C6428 H6415 0.961 . S
C6428 H6416 0.959 . S
C6428 C6426 1.561 . S
C6429 C6426 1.526 . S
C6429 C6430 1.396 . S
C6429 C6434 1.390 . S
C6430 C6424 1.465 . S
C6430 C6429 1.396 . S
C6430 C6431 1.399 . S
C6431 H6417 0.929 . S
C6431 C6430 1.399 . S
C6431 C6432 1.385 . S
C6432 H6418 0.931 . S
C6432 C6431 1.385 . S
C6432 C6433 1.389 . S
C6433 C6432 1.389 . S
C6433 C6434 1.387 . S
C6434 H6419 0.930 . S
C6434 C6429 1.390 . S
C6434 C6433 1.387 . S
H6435 C6447 0.930 . S
H6436 C6449 0.930 . S
H6437 C6450 0.930 . S
H6438 C6454 0.959 . S
H6439 C6454 0.959 . S
H6440 C6454 0.961 . S
H6441 C6455 0.960 . S
H6442 C6455 0.961 . S
H6443 C6455 0.959 . S
H6444 C6458 0.929 . S
H6445 C6459 0.931 . S
H6446 C6461 0.930 . S
C6447 H6435 0.930 . S
C6447 C6448 1.399 . S
C6447 C6452 1.399 . S
C6448 C6447 1.399 . S
C6448 C6449 1.376 . S
C6449 H6436 0.930 . S
C6449 C6448 1.376 . S
C6449 C6450 1.388 . S
C6450 H6437 0.930 . S
C6450 C6449 1.388 . S
C6450 C6451 1.390 . S
C6451 C6450 1.390 . S
C6451 C6452 1.394 . S
C6451 C6457 1.465 . S
C6452 C6447 1.399 . S
C6452 C6451 1.394 . S
C6452 C6453 1.516 . S
C6453 C6452 1.516 . S
C6453 C6454 1.502 . S
C6453 C6455 1.561 . S
C6453 C6456 1.526 . S
C6454 H6438 0.959 . S
C6454 H6439 0.959 . S
C6454 H6440 0.961 . S
C6454 C6453 1.502 . S
C6455 H6441 0.960 . S
C6455 H6442 0.961 . S
C6455 H6443 0.959 . S
C6455 C6453 1.561 . S
C6456 C6453 1.526 . S
C6456 C6457 1.396 . S
C6456 C6461 1.390 . S
C6457 C6451 1.465 . S
C6457 C6456 1.396 . S
C6457 C6458 1.399 . S
C6458 H6444 0.929 . S
C6458 C6457 1.399 . S
C6458 C6459 1.385 . S
C6459 H6445 0.931 . S
C6459 C6458 1.385 . S
C6459 C6460 1.389 . S
C6460 C6459 1.389 . S
C6460 C6461 1.387 . S
C6461 H6446 0.930 . S
C6461 C6456 1.390 . S
C6461 C6460 1.387 . S
H6462 C6474 0.930 . S
H6463 C6476 0.930 . S
H6464 C6477 0.930 . S
H6465 C6481 0.959 . S
H6466 C6481 0.959 . S
H6467 C6481 0.961 . S
H6468 C6482 0.960 . S
H6469 C6482 0.961 . S
H6470 C6482 0.959 . S
H6471 C6485 0.929 . S
H6472 C6486 0.931 . S
H6473 C6488 0.930 . S
C6474 H6462 0.930 . S
C6474 C6475 1.399 . S
C6474 C6479 1.399 . S
C6475 C6474 1.399 . S
C6475 C6476 1.376 . S
C6476 H6463 0.930 . S
C6476 C6475 1.376 . S
C6476 C6477 1.388 . S
C6477 H6464 0.930 . S
C6477 C6476 1.388 . S
C6477 C6478 1.390 . S
C6478 C6477 1.390 . S
C6478 C6479 1.394 . S
C6478 C6484 1.465 . S
C6479 C6474 1.399 . S
C6479 C6478 1.394 . S
C6479 C6480 1.516 . S
C6480 C6479 1.516 . S
C6480 C6481 1.502 . S
C6480 C6482 1.561 . S
C6480 C6483 1.526 . S
C6481 H6465 0.959 . S
C6481 H6466 0.959 . S
C6481 H6467 0.961 . S
C6481 C6480 1.502 . S
C6482 H6468 0.960 . S
C6482 H6469 0.961 . S
C6482 H6470 0.959 . S
C6482 C6480 1.561 . S
C6483 C6480 1.526 . S
C6483 C6484 1.396 . S
C6483 C6488 1.390 . S
C6484 C6478 1.465 . S
C6484 C6483 1.396 . S
C6484 C6485 1.399 . S
C6485 H6471 0.929 . S
C6485 C6484 1.399 . S
C6485 C6486 1.385 . S
C6486 H6472 0.931 . S
C6486 C6485 1.385 . S
C6486 C6487 1.389 . S
C6487 C6486 1.389 . S
C6487 C6488 1.387 . S
C6488 H6473 0.930 . S
C6488 C6483 1.390 . S
C6488 C6487 1.387 . S
H6489 C6501 0.930 . S
H6490 C6503 0.930 . S
H6491 C6504 0.930 . S
H6492 C6508 0.959 . S
H6493 C6508 0.959 . S
H6494 C6508 0.961 . S
H6495 C6509 0.960 . S
H6496 C6509 0.961 . S
H6497 C6509 0.959 . S
H6498 C6512 0.929 . S
H6499 C6513 0.931 . S
H6500 C6515 0.930 . S
C6501 H6489 0.930 . S
C6501 C6502 1.399 . S
C6501 C6506 1.399 . S
C6502 C6501 1.399 . S
C6502 C6503 1.376 . S
C6503 H6490 0.930 . S
C6503 C6502 1.376 . S
C6503 C6504 1.388 . S
C6504 H6491 0.930 . S
C6504 C6503 1.388 . S
C6504 C6505 1.390 . S
C6505 C6504 1.390 . S
C6505 C6506 1.394 . S
C6505 C6511 1.465 . S
C6506 C6501 1.399 . S
C6506 C6505 1.394 . S
C6506 C6507 1.516 . S
C6507 C6506 1.516 . S
C6507 C6508 1.502 . S
C6507 C6509 1.561 . S
C6507 C6510 1.526 . S
C6508 H6492 0.959 . S
C6508 H6493 0.959 . S
C6508 H6494 0.961 . S
C6508 C6507 1.502 . S
C6509 H6495 0.960 . S
C6509 H6496 0.961 . S
C6509 H6497 0.959 . S
C6509 C6507 1.561 . S
C6510 C6507 1.526 . S
C6510 C6511 1.396 . S
C6510 C6515 1.390 . S
C6511 C6505 1.465 . S
C6511 C6510 1.396 . S
C6511 C6512 1.399 . S
C6512 H6498 0.929 . S
C6512 C6511 1.399 . S
C6512 C6513 1.385 . S
C6513 H6499 0.931 . S
C6513 C6512 1.385 . S
C6513 C6514 1.389 . S
C6514 C6513 1.389 . S
C6514 C6515 1.387 . S
C6515 H6500 0.930 . S
C6515 C6510 1.390 . S
C6515 C6514 1.387 . S
H6516 C6528 0.930 . S
H6517 C6530 0.930 . S
H6518 C6531 0.930 . S
H6519 C6535 0.959 . S
H6520 C6535 0.959 . S
H6521 C6535 0.961 . S
H6522 C6536 0.960 . S
H6523 C6536 0.961 . S
H6524 C6536 0.959 . S
H6525 C6539 0.929 . S
H6526 C6540 0.931 . S
H6527 C6542 0.930 . S
C6528 H6516 0.930 . S
C6528 C6529 1.399 . S
C6528 C6533 1.399 . S
C6529 C6528 1.399 . S
C6529 C6530 1.376 . S
C6530 H6517 0.930 . S
C6530 C6529 1.376 . S
C6530 C6531 1.388 . S
C6531 H6518 0.930 . S
C6531 C6530 1.388 . S
C6531 C6532 1.390 . S
C6532 C6531 1.390 . S
C6532 C6533 1.394 . S
C6532 C6538 1.465 . S
C6533 C6528 1.399 . S
C6533 C6532 1.394 . S
C6533 C6534 1.516 . S
C6534 C6533 1.516 . S
C6534 C6535 1.502 . S
C6534 C6536 1.561 . S
C6534 C6537 1.526 . S
C6535 H6519 0.959 . S
C6535 H6520 0.959 . S
C6535 H6521 0.961 . S
C6535 C6534 1.502 . S
C6536 H6522 0.960 . S
C6536 H6523 0.961 . S
C6536 H6524 0.959 . S
C6536 C6534 1.561 . S
C6537 C6534 1.526 . S
C6537 C6538 1.396 . S
C6537 C6542 1.390 . S
C6538 C6532 1.465 . S
C6538 C6537 1.396 . S
C6538 C6539 1.399 . S
C6539 H6525 0.929 . S
C6539 C6538 1.399 . S
C6539 C6540 1.385 . S
C6540 H6526 0.931 . S
C6540 C6539 1.385 . S
C6540 C6541 1.389 . S
C6541 C6540 1.389 . S
C6541 C6542 1.387 . S
C6542 H6527 0.930 . S
C6542 C6537 1.390 . S
C6542 C6541 1.387 . S
H6543 C6555 0.930 . S
H6544 C6557 0.930 . S
H6545 C6558 0.930 . S
H6546 C6562 0.959 . S
H6547 C6562 0.959 . S
H6548 C6562 0.961 . S
H6549 C6563 0.960 . S
H6550 C6563 0.961 . S
H6551 C6563 0.959 . S
H6552 C6566 0.929 . S
H6553 C6567 0.931 . S
H6554 C6569 0.930 . S
C6555 H6543 0.930 . S
C6555 C6556 1.399 . S
C6555 C6560 1.399 . S
C6556 C6555 1.399 . S
C6556 C6557 1.376 . S
C6557 H6544 0.930 . S
C6557 C6556 1.376 . S
C6557 C6558 1.388 . S
C6558 H6545 0.930 . S
C6558 C6557 1.388 . S
C6558 C6559 1.390 . S
C6559 C6558 1.390 . S
C6559 C6560 1.394 . S
C6559 C6565 1.465 . S
C6560 C6555 1.399 . S
C6560 C6559 1.394 . S
C6560 C6561 1.516 . S
C6561 C6560 1.516 . S
C6561 C6562 1.502 . S
C6561 C6563 1.561 . S
C6561 C6564 1.526 . S
C6562 H6546 0.959 . S
C6562 H6547 0.959 . S
C6562 H6548 0.961 . S
C6562 C6561 1.502 . S
C6563 H6549 0.960 . S
C6563 H6550 0.961 . S
C6563 H6551 0.959 . S
C6563 C6561 1.561 . S
C6564 C6561 1.526 . S
C6564 C6565 1.396 . S
C6564 C6569 1.390 . S
C6565 C6559 1.465 . S
C6565 C6564 1.396 . S
C6565 C6566 1.399 . S
C6566 H6552 0.929 . S
C6566 C6565 1.399 . S
C6566 C6567 1.385 . S
C6567 H6553 0.931 . S
C6567 C6566 1.385 . S
C6567 C6568 1.389 . S
C6568 C6567 1.389 . S
C6568 C6569 1.387 . S
C6569 H6554 0.930 . S
C6569 C6564 1.390 . S
C6569 C6568 1.387 . S
H6570 C6582 0.930 . S
H6571 C6584 0.930 . S
H6572 C6585 0.930 . S
H6573 C6589 0.959 . S
H6574 C6589 0.959 . S
H6575 C6589 0.961 . S
H6576 C6590 0.960 . S
H6577 C6590 0.961 . S
H6578 C6590 0.959 . S
H6579 C6593 0.929 . S
H6580 C6594 0.931 . S
H6581 C6596 0.930 . S
C6582 H6570 0.930 . S
C6582 C6583 1.399 . S
C6582 C6587 1.399 . S
C6583 C6582 1.399 . S
C6583 C6584 1.376 . S
C6584 H6571 0.930 . S
C6584 C6583 1.376 . S
C6584 C6585 1.388 . S
C6585 H6572 0.930 . S
C6585 C6584 1.388 . S
C6585 C6586 1.390 . S
C6586 C6585 1.390 . S
C6586 C6587 1.394 . S
C6586 C6592 1.465 . S
C6587 C6582 1.399 . S
C6587 C6586 1.394 . S
C6587 C6588 1.516 . S
C6588 C6587 1.516 . S
C6588 C6589 1.502 . S
C6588 C6590 1.561 . S
C6588 C6591 1.526 . S
C6589 H6573 0.959 . S
C6589 H6574 0.959 . S
C6589 H6575 0.961 . S
C6589 C6588 1.502 . S
C6590 H6576 0.960 . S
C6590 H6577 0.961 . S
C6590 H6578 0.959 . S
C6590 C6588 1.561 . S
C6591 C6588 1.526 . S
C6591 C6592 1.396 . S
C6591 C6596 1.390 . S
C6592 C6586 1.465 . S
C6592 C6591 1.396 . S
C6592 C6593 1.399 . S
C6593 H6579 0.929 . S
C6593 C6592 1.399 . S
C6593 C6594 1.385 . S
C6594 H6580 0.931 . S
C6594 C6593 1.385 . S
C6594 C6595 1.389 . S
C6595 C6594 1.389 . S
C6595 C6596 1.387 . S
C6596 H6581 0.930 . S
C6596 C6591 1.390 . S
C6596 C6595 1.387 . S
H6597 C6609 0.930 . S
H6598 C6611 0.930 . S
H6599 C6612 0.930 . S
H6600 C6616 0.959 . S
H6601 C6616 0.959 . S
H6602 C6616 0.961 . S
H6603 C6617 0.960 . S
H6604 C6617 0.961 . S
H6605 C6617 0.959 . S
H6606 C6620 0.929 . S
H6607 C6621 0.931 . S
H6608 C6623 0.930 . S
C6609 H6597 0.930 . S
C6609 C6610 1.399 . S
C6609 C6614 1.399 . S
C6610 C6609 1.399 . S
C6610 C6611 1.376 . S
C6611 H6598 0.930 . S
C6611 C6610 1.376 . S
C6611 C6612 1.388 . S
C6612 H6599 0.930 . S
C6612 C6611 1.388 . S
C6612 C6613 1.390 . S
C6613 C6612 1.390 . S
C6613 C6614 1.394 . S
C6613 C6619 1.465 . S
C6614 C6609 1.399 . S
C6614 C6613 1.394 . S
C6614 C6615 1.516 . S
C6615 C6614 1.516 . S
C6615 C6616 1.502 . S
C6615 C6617 1.561 . S
C6615 C6618 1.526 . S
C6616 H6600 0.959 . S
C6616 H6601 0.959 . S
C6616 H6602 0.961 . S
C6616 C6615 1.502 . S
C6617 H6603 0.960 . S
C6617 H6604 0.961 . S
C6617 H6605 0.959 . S
C6617 C6615 1.561 . S
C6618 C6615 1.526 . S
C6618 C6619 1.396 . S
C6618 C6623 1.390 . S
C6619 C6613 1.465 . S
C6619 C6618 1.396 . S
C6619 C6620 1.399 . S
C6620 H6606 0.929 . S
C6620 C6619 1.399 . S
C6620 C6621 1.385 . S
C6621 H6607 0.931 . S
C6621 C6620 1.385 . S
C6621 C6622 1.389 . S
C6622 C6621 1.389 . S
C6622 C6623 1.387 . S
C6623 H6608 0.930 . S
C6623 C6618 1.390 . S
C6623 C6622 1.387 . S
H6624 C6636 0.930 . S
H6625 C6638 0.930 . S
H6626 C6639 0.930 . S
H6627 C6643 0.959 . S
H6628 C6643 0.959 . S
H6629 C6643 0.961 . S
H6630 C6644 0.960 . S
H6631 C6644 0.961 . S
H6632 C6644 0.959 . S
H6633 C6647 0.929 . S
H6634 C6648 0.931 . S
H6635 C6650 0.930 . S
C6636 H6624 0.930 . S
C6636 C6637 1.399 . S
C6636 C6641 1.399 . S
C6637 C6636 1.399 . S
C6637 C6638 1.376 . S
C6638 H6625 0.930 . S
C6638 C6637 1.376 . S
C6638 C6639 1.388 . S
C6639 H6626 0.930 . S
C6639 C6638 1.388 . S
C6639 C6640 1.390 . S
C6640 C6639 1.390 . S
C6640 C6641 1.394 . S
C6640 C6646 1.465 . S
C6641 C6636 1.399 . S
C6641 C6640 1.394 . S
C6641 C6642 1.516 . S
C6642 C6641 1.516 . S
C6642 C6643 1.502 . S
C6642 C6644 1.561 . S
C6642 C6645 1.526 . S
C6643 H6627 0.959 . S
C6643 H6628 0.959 . S
C6643 H6629 0.961 . S
C6643 C6642 1.502 . S
C6644 H6630 0.960 . S
C6644 H6631 0.961 . S
C6644 H6632 0.959 . S
C6644 C6642 1.561 . S
C6645 C6642 1.526 . S
C6645 C6646 1.396 . S
C6645 C6650 1.390 . S
C6646 C6640 1.465 . S
C6646 C6645 1.396 . S
C6646 C6647 1.399 . S
C6647 H6633 0.929 . S
C6647 C6646 1.399 . S
C6647 C6648 1.385 . S
C6648 H6634 0.931 . S
C6648 C6647 1.385 . S
C6648 C6649 1.389 . S
C6649 C6648 1.389 . S
C6649 C6650 1.387 . S
C6650 H6635 0.930 . S
C6650 C6645 1.390 . S
C6650 C6649 1.387 . S
H6651 C6663 0.930 . S
H6652 C6665 0.930 . S
H6653 C6666 0.930 . S
H6654 C6670 0.959 . S
H6655 C6670 0.959 . S
H6656 C6670 0.961 . S
H6657 C6671 0.960 . S
H6658 C6671 0.961 . S
H6659 C6671 0.959 . S
H6660 C6674 0.929 . S
H6661 C6675 0.931 . S
H6662 C6677 0.930 . S
C6663 H6651 0.930 . S
C6663 C6664 1.399 . S
C6663 C6668 1.399 . S
C6664 C6663 1.399 . S
C6664 C6665 1.376 . S
C6665 H6652 0.930 . S
C6665 C6664 1.376 . S
C6665 C6666 1.388 . S
C6666 H6653 0.930 . S
C6666 C6665 1.388 . S
C6666 C6667 1.390 . S
C6667 C6666 1.390 . S
C6667 C6668 1.394 . S
C6667 C6673 1.465 . S
C6668 C6663 1.399 . S
C6668 C6667 1.394 . S
C6668 C6669 1.516 . S
C6669 C6668 1.516 . S
C6669 C6670 1.502 . S
C6669 C6671 1.561 . S
C6669 C6672 1.526 . S
C6670 H6654 0.959 . S
C6670 H6655 0.959 . S
C6670 H6656 0.961 . S
C6670 C6669 1.502 . S
C6671 H6657 0.960 . S
C6671 H6658 0.961 . S
C6671 H6659 0.959 . S
C6671 C6669 1.561 . S
C6672 C6669 1.526 . S
C6672 C6673 1.396 . S
C6672 C6677 1.390 . S
C6673 C6667 1.465 . S
C6673 C6672 1.396 . S
C6673 C6674 1.399 . S
C6674 H6660 0.929 . S
C6674 C6673 1.399 . S
C6674 C6675 1.385 . S
C6675 H6661 0.931 . S
C6675 C6674 1.385 . S
C6675 C6676 1.389 . S
C6676 C6675 1.389 . S
C6676 C6677 1.387 . S
C6677 H6662 0.930 . S
C6677 C6672 1.390 . S
C6677 C6676 1.387 . S
H6678 C6690 0.930 . S
H6679 C6692 0.930 . S
H6680 C6693 0.930 . S
H6681 C6697 0.959 . S
H6682 C6697 0.959 . S
H6683 C6697 0.961 . S
H6684 C6698 0.960 . S
H6685 C6698 0.961 . S
H6686 C6698 0.959 . S
H6687 C6701 0.929 . S
H6688 C6702 0.931 . S
H6689 C6704 0.930 . S
C6690 H6678 0.930 . S
C6690 C6691 1.399 . S
C6690 C6695 1.399 . S
C6691 C6690 1.399 . S
C6691 C6692 1.376 . S
C6692 H6679 0.930 . S
C6692 C6691 1.376 . S
C6692 C6693 1.388 . S
C6693 H6680 0.930 . S
C6693 C6692 1.388 . S
C6693 C6694 1.390 . S
C6694 C6693 1.390 . S
C6694 C6695 1.394 . S
C6694 C6700 1.465 . S
C6695 C6690 1.399 . S
C6695 C6694 1.394 . S
C6695 C6696 1.516 . S
C6696 C6695 1.516 . S
C6696 C6697 1.502 . S
C6696 C6698 1.561 . S
C6696 C6699 1.526 . S
C6697 H6681 0.959 . S
C6697 H6682 0.959 . S
C6697 H6683 0.961 . S
C6697 C6696 1.502 . S
C6698 H6684 0.960 . S
C6698 H6685 0.961 . S
C6698 H6686 0.959 . S
C6698 C6696 1.561 . S
C6699 C6696 1.526 . S
C6699 C6700 1.396 . S
C6699 C6704 1.390 . S
C6700 C6694 1.465 . S
C6700 C6699 1.396 . S
C6700 C6701 1.399 . S
C6701 H6687 0.929 . S
C6701 C6700 1.399 . S
C6701 C6702 1.385 . S
C6702 H6688 0.931 . S
C6702 C6701 1.385 . S
C6702 C6703 1.389 . S
C6703 C6702 1.389 . S
C6703 C6704 1.387 . S
C6704 H6689 0.930 . S
C6704 C6699 1.390 . S
C6704 C6703 1.387 . S
H6705 C6717 0.930 . S
H6706 C6719 0.930 . S
H6707 C6720 0.930 . S
H6708 C6724 0.959 . S
H6709 C6724 0.959 . S
H6710 C6724 0.961 . S
H6711 C6725 0.960 . S
H6712 C6725 0.961 . S
H6713 C6725 0.959 . S
H6714 C6728 0.929 . S
H6715 C6729 0.931 . S
H6716 C6731 0.930 . S
C6717 H6705 0.930 . S
C6717 C6718 1.399 . S
C6717 C6722 1.399 . S
C6718 C6717 1.399 . S
C6718 C6719 1.376 . S
C6719 H6706 0.930 . S
C6719 C6718 1.376 . S
C6719 C6720 1.388 . S
C6720 H6707 0.930 . S
C6720 C6719 1.388 . S
C6720 C6721 1.390 . S
C6721 C6720 1.390 . S
C6721 C6722 1.394 . S
C6721 C6727 1.465 . S
C6722 C6717 1.399 . S
C6722 C6721 1.394 . S
C6722 C6723 1.516 . S
C6723 C6722 1.516 . S
C6723 C6724 1.502 . S
C6723 C6725 1.561 . S
C6723 C6726 1.526 . S
C6724 H6708 0.959 . S
C6724 H6709 0.959 . S
C6724 H6710 0.961 . S
C6724 C6723 1.502 . S
C6725 H6711 0.960 . S
C6725 H6712 0.961 . S
C6725 H6713 0.959 . S
C6725 C6723 1.561 . S
C6726 C6723 1.526 . S
C6726 C6727 1.396 . S
C6726 C6731 1.390 . S
C6727 C6721 1.465 . S
C6727 C6726 1.396 . S
C6727 C6728 1.399 . S
C6728 H6714 0.929 . S
C6728 C6727 1.399 . S
C6728 C6729 1.385 . S
C6729 H6715 0.931 . S
C6729 C6728 1.385 . S
C6729 C6730 1.389 . S
C6730 C6729 1.389 . S
C6730 C6731 1.387 . S
C6731 H6716 0.930 . S
C6731 C6726 1.390 . S
C6731 C6730 1.387 . S
H6732 C6744 0.930 . S
H6733 C6746 0.930 . S
H6734 C6747 0.930 . S
H6735 C6751 0.959 . S
H6736 C6751 0.959 . S
H6737 C6751 0.961 . S
H6738 C6752 0.960 . S
H6739 C6752 0.961 . S
H6740 C6752 0.959 . S
H6741 C6755 0.929 . S
H6742 C6756 0.931 . S
H6743 C6758 0.930 . S
C6744 H6732 0.930 . S
C6744 C6745 1.399 . S
C6744 C6749 1.399 . S
C6745 C6744 1.399 . S
C6745 C6746 1.376 . S
C6746 H6733 0.930 . S
C6746 C6745 1.376 . S
C6746 C6747 1.388 . S
C6747 H6734 0.930 . S
C6747 C6746 1.388 . S
C6747 C6748 1.390 . S
C6748 C6747 1.390 . S
C6748 C6749 1.394 . S
C6748 C6754 1.465 . S
C6749 C6744 1.399 . S
C6749 C6748 1.394 . S
C6749 C6750 1.516 . S
C6750 C6749 1.516 . S
C6750 C6751 1.502 . S
C6750 C6752 1.561 . S
C6750 C6753 1.526 . S
C6751 H6735 0.959 . S
C6751 H6736 0.959 . S
C6751 H6737 0.961 . S
C6751 C6750 1.502 . S
C6752 H6738 0.960 . S
C6752 H6739 0.961 . S
C6752 H6740 0.959 . S
C6752 C6750 1.561 . S
C6753 C6750 1.526 . S
C6753 C6754 1.396 . S
C6753 C6758 1.390 . S
C6754 C6748 1.465 . S
C6754 C6753 1.396 . S
C6754 C6755 1.399 . S
C6755 H6741 0.929 . S
C6755 C6754 1.399 . S
C6755 C6756 1.385 . S
C6756 H6742 0.931 . S
C6756 C6755 1.385 . S
C6756 C6757 1.389 . S
C6757 C6756 1.389 . S
C6757 C6758 1.387 . S
C6758 H6743 0.930 . S
C6758 C6753 1.390 . S
C6758 C6757 1.387 . S
H6759 C6771 0.930 . S
H6760 C6773 0.930 . S
H6761 C6774 0.930 . S
H6762 C6778 0.959 . S
H6763 C6778 0.959 . S
H6764 C6778 0.961 . S
H6765 C6779 0.960 . S
H6766 C6779 0.961 . S
H6767 C6779 0.959 . S
H6768 C6782 0.929 . S
H6769 C6783 0.931 . S
H6770 C6785 0.930 . S
C6771 H6759 0.930 . S
C6771 C6772 1.399 . S
C6771 C6776 1.399 . S
C6772 C6771 1.399 . S
C6772 C6773 1.376 . S
C6773 H6760 0.930 . S
C6773 C6772 1.376 . S
C6773 C6774 1.388 . S
C6774 H6761 0.930 . S
C6774 C6773 1.388 . S
C6774 C6775 1.390 . S
C6775 C6774 1.390 . S
C6775 C6776 1.394 . S
C6775 C6781 1.465 . S
C6776 C6771 1.399 . S
C6776 C6775 1.394 . S
C6776 C6777 1.516 . S
C6777 C6776 1.516 . S
C6777 C6778 1.502 . S
C6777 C6779 1.561 . S
C6777 C6780 1.526 . S
C6778 H6762 0.959 . S
C6778 H6763 0.959 . S
C6778 H6764 0.961 . S
C6778 C6777 1.502 . S
C6779 H6765 0.960 . S
C6779 H6766 0.961 . S
C6779 H6767 0.959 . S
C6779 C6777 1.561 . S
C6780 C6777 1.526 . S
C6780 C6781 1.396 . S
C6780 C6785 1.390 . S
C6781 C6775 1.465 . S
C6781 C6780 1.396 . S
C6781 C6782 1.399 . S
C6782 H6768 0.929 . S
C6782 C6781 1.399 . S
C6782 C6783 1.385 . S
C6783 H6769 0.931 . S
C6783 C6782 1.385 . S
C6783 C6784 1.389 . S
C6784 C6783 1.389 . S
C6784 C6785 1.387 . S
C6785 H6770 0.930 . S
C6785 C6780 1.390 . S
C6785 C6784 1.387 . S
H6786 C6798 0.930 . S
H6787 C6800 0.930 . S
H6788 C6801 0.930 . S
H6789 C6805 0.959 . S
H6790 C6805 0.959 . S
H6791 C6805 0.961 . S
H6792 C6806 0.960 . S
H6793 C6806 0.961 . S
H6794 C6806 0.959 . S
H6795 C6809 0.929 . S
H6796 C6810 0.931 . S
H6797 C6812 0.930 . S
C6798 H6786 0.930 . S
C6798 C6799 1.399 . S
C6798 C6803 1.399 . S
C6799 C6798 1.399 . S
C6799 C6800 1.376 . S
C6800 H6787 0.930 . S
C6800 C6799 1.376 . S
C6800 C6801 1.388 . S
C6801 H6788 0.930 . S
C6801 C6800 1.388 . S
C6801 C6802 1.390 . S
C6802 C6801 1.390 . S
C6802 C6803 1.394 . S
C6802 C6808 1.465 . S
C6803 C6798 1.399 . S
C6803 C6802 1.394 . S
C6803 C6804 1.516 . S
C6804 C6803 1.516 . S
C6804 C6805 1.502 . S
C6804 C6806 1.561 . S
C6804 C6807 1.526 . S
C6805 H6789 0.959 . S
C6805 H6790 0.959 . S
C6805 H6791 0.961 . S
C6805 C6804 1.502 . S
C6806 H6792 0.960 . S
C6806 H6793 0.961 . S
C6806 H6794 0.959 . S
C6806 C6804 1.561 . S
C6807 C6804 1.526 . S
C6807 C6808 1.396 . S
C6807 C6812 1.390 . S
C6808 C6802 1.465 . S
C6808 C6807 1.396 . S
C6808 C6809 1.399 . S
C6809 H6795 0.929 . S
C6809 C6808 1.399 . S
C6809 C6810 1.385 . S
C6810 H6796 0.931 . S
C6810 C6809 1.385 . S
C6810 C6811 1.389 . S
C6811 C6810 1.389 . S
C6811 C6812 1.387 . S
C6812 H6797 0.930 . S
C6812 C6807 1.390 . S
C6812 C6811 1.387 . S
H6813 C6825 0.930 . S
H6814 C6827 0.930 . S
H6815 C6828 0.930 . S
H6816 C6832 0.959 . S
H6817 C6832 0.959 . S
H6818 C6832 0.961 . S
H6819 C6833 0.960 . S
H6820 C6833 0.961 . S
H6821 C6833 0.959 . S
H6822 C6836 0.929 . S
H6823 C6837 0.931 . S
H6824 C6839 0.930 . S
C6825 H6813 0.930 . S
C6825 C6826 1.399 . S
C6825 C6830 1.399 . S
C6826 C6825 1.399 . S
C6826 C6827 1.376 . S
C6827 H6814 0.930 . S
C6827 C6826 1.376 . S
C6827 C6828 1.388 . S
C6828 H6815 0.930 . S
C6828 C6827 1.388 . S
C6828 C6829 1.390 . S
C6829 C6828 1.390 . S
C6829 C6830 1.394 . S
C6829 C6835 1.465 . S
C6830 C6825 1.399 . S
C6830 C6829 1.394 . S
C6830 C6831 1.516 . S
C6831 C6830 1.516 . S
C6831 C6832 1.502 . S
C6831 C6833 1.561 . S
C6831 C6834 1.526 . S
C6832 H6816 0.959 . S
C6832 H6817 0.959 . S
C6832 H6818 0.961 . S
C6832 C6831 1.502 . S
C6833 H6819 0.960 . S
C6833 H6820 0.961 . S
C6833 H6821 0.959 . S
C6833 C6831 1.561 . S
C6834 C6831 1.526 . S
C6834 C6835 1.396 . S
C6834 C6839 1.390 . S
C6835 C6829 1.465 . S
C6835 C6834 1.396 . S
C6835 C6836 1.399 . S
C6836 H6822 0.929 . S
C6836 C6835 1.399 . S
C6836 C6837 1.385 . S
C6837 H6823 0.931 . S
C6837 C6836 1.385 . S
C6837 C6838 1.389 . S
C6838 C6837 1.389 . S
C6838 C6839 1.387 . S
C6839 H6824 0.930 . S
C6839 C6834 1.390 . S
C6839 C6838 1.387 . S
H6840 C6852 0.930 . S
H6841 C6854 0.930 . S
H6842 C6855 0.930 . S
H6843 C6859 0.959 . S
H6844 C6859 0.959 . S
H6845 C6859 0.961 . S
H6846 C6860 0.960 . S
H6847 C6860 0.961 . S
H6848 C6860 0.959 . S
H6849 C6863 0.929 . S
H6850 C6864 0.931 . S
H6851 C6866 0.930 . S
C6852 H6840 0.930 . S
C6852 C6853 1.399 . S
C6852 C6857 1.399 . S
C6853 C6852 1.399 . S
C6853 C6854 1.376 . S
C6854 H6841 0.930 . S
C6854 C6853 1.376 . S
C6854 C6855 1.388 . S
C6855 H6842 0.930 . S
C6855 C6854 1.388 . S
C6855 C6856 1.390 . S
C6856 C6855 1.390 . S
C6856 C6857 1.394 . S
C6856 C6862 1.465 . S
C6857 C6852 1.399 . S
C6857 C6856 1.394 . S
C6857 C6858 1.516 . S
C6858 C6857 1.516 . S
C6858 C6859 1.502 . S
C6858 C6860 1.561 . S
C6858 C6861 1.526 . S
C6859 H6843 0.959 . S
C6859 H6844 0.959 . S
C6859 H6845 0.961 . S
C6859 C6858 1.502 . S
C6860 H6846 0.960 . S
C6860 H6847 0.961 . S
C6860 H6848 0.959 . S
C6860 C6858 1.561 . S
C6861 C6858 1.526 . S
C6861 C6862 1.396 . S
C6861 C6866 1.390 . S
C6862 C6856 1.465 . S
C6862 C6861 1.396 . S
C6862 C6863 1.399 . S
C6863 H6849 0.929 . S
C6863 C6862 1.399 . S
C6863 C6864 1.385 . S
C6864 H6850 0.931 . S
C6864 C6863 1.385 . S
C6864 C6865 1.389 . S
C6865 C6864 1.389 . S
C6865 C6866 1.387 . S
C6866 H6851 0.930 . S
C6866 C6861 1.390 . S
C6866 C6865 1.387 . S
H6867 C6879 0.930 . S
H6868 C6881 0.930 . S
H6869 C6882 0.930 . S
H6870 C6886 0.959 . S
H6871 C6886 0.959 . S
H6872 C6886 0.961 . S
H6873 C6887 0.960 . S
H6874 C6887 0.961 . S
H6875 C6887 0.959 . S
H6876 C6890 0.929 . S
H6877 C6891 0.931 . S
H6878 C6893 0.930 . S
C6879 H6867 0.930 . S
C6879 C6880 1.399 . S
C6879 C6884 1.399 . S
C6880 C6879 1.399 . S
C6880 C6881 1.376 . S
C6881 H6868 0.930 . S
C6881 C6880 1.376 . S
C6881 C6882 1.388 . S
C6882 H6869 0.930 . S
C6882 C6881 1.388 . S
C6882 C6883 1.390 . S
C6883 C6882 1.390 . S
C6883 C6884 1.394 . S
C6883 C6889 1.465 . S
C6884 C6879 1.399 . S
C6884 C6883 1.394 . S
C6884 C6885 1.516 . S
C6885 C6884 1.516 . S
C6885 C6886 1.502 . S
C6885 C6887 1.561 . S
C6885 C6888 1.526 . S
C6886 H6870 0.959 . S
C6886 H6871 0.959 . S
C6886 H6872 0.961 . S
C6886 C6885 1.502 . S
C6887 H6873 0.960 . S
C6887 H6874 0.961 . S
C6887 H6875 0.959 . S
C6887 C6885 1.561 . S
C6888 C6885 1.526 . S
C6888 C6889 1.396 . S
C6888 C6893 1.390 . S
C6889 C6883 1.465 . S
C6889 C6888 1.396 . S
C6889 C6890 1.399 . S
C6890 H6876 0.929 . S
C6890 C6889 1.399 . S
C6890 C6891 1.385 . S
C6891 H6877 0.931 . S
C6891 C6890 1.385 . S
C6891 C6892 1.389 . S
C6892 C6891 1.389 . S
C6892 C6893 1.387 . S
C6893 H6878 0.930 . S
C6893 C6888 1.390 . S
C6893 C6892 1.387 . S
H6894 C6906 0.930 . S
H6895 C6908 0.930 . S
H6896 C6909 0.930 . S
H6897 C6913 0.959 . S
H6898 C6913 0.959 . S
H6899 C6913 0.961 . S
H6900 C6914 0.960 . S
H6901 C6914 0.961 . S
H6902 C6914 0.959 . S
H6903 C6917 0.929 . S
H6904 C6918 0.931 . S
H6905 C6920 0.930 . S
C6906 H6894 0.930 . S
C6906 C6907 1.399 . S
C6906 C6911 1.399 . S
C6907 C6906 1.399 . S
C6907 C6908 1.376 . S
C6908 H6895 0.930 . S
C6908 C6907 1.376 . S
C6908 C6909 1.388 . S
C6909 H6896 0.930 . S
C6909 C6908 1.388 . S
C6909 C6910 1.390 . S
C6910 C6909 1.390 . S
C6910 C6911 1.394 . S
C6910 C6916 1.465 . S
C6911 C6906 1.399 . S
C6911 C6910 1.394 . S
C6911 C6912 1.516 . S
C6912 C6911 1.516 . S
C6912 C6913 1.502 . S
C6912 C6914 1.561 . S
C6912 C6915 1.526 . S
C6913 H6897 0.959 . S
C6913 H6898 0.959 . S
C6913 H6899 0.961 . S
C6913 C6912 1.502 . S
C6914 H6900 0.960 . S
C6914 H6901 0.961 . S
C6914 H6902 0.959 . S
C6914 C6912 1.561 . S
C6915 C6912 1.526 . S
C6915 C6916 1.396 . S
C6915 C6920 1.390 . S
C6916 C6910 1.465 . S
C6916 C6915 1.396 . S
C6916 C6917 1.399 . S
C6917 H6903 0.929 . S
C6917 C6916 1.399 . S
C6917 C6918 1.385 . S
C6918 H6904 0.931 . S
C6918 C6917 1.385 . S
C6918 C6919 1.389 . S
C6919 C6918 1.389 . S
C6919 C6920 1.387 . S
C6920 H6905 0.930 . S
C6920 C6915 1.390 . S
C6920 C6919 1.387 . S
H6921 C6933 0.930 . S
H6922 C6935 0.930 . S
H6923 C6936 0.930 . S
H6924 C6940 0.959 . S
H6925 C6940 0.959 . S
H6926 C6940 0.961 . S
H6927 C6941 0.960 . S
H6928 C6941 0.961 . S
H6929 C6941 0.959 . S
H6930 C6944 0.929 . S
H6931 C6945 0.931 . S
H6932 C6947 0.930 . S
C6933 H6921 0.930 . S
C6933 C6934 1.399 . S
C6933 C6938 1.399 . S
C6934 C6933 1.399 . S
C6934 C6935 1.376 . S
C6935 H6922 0.930 . S
C6935 C6934 1.376 . S
C6935 C6936 1.388 . S
C6936 H6923 0.930 . S
C6936 C6935 1.388 . S
C6936 C6937 1.390 . S
C6937 C6936 1.390 . S
C6937 C6938 1.394 . S
C6937 C6943 1.465 . S
C6938 C6933 1.399 . S
C6938 C6937 1.394 . S
C6938 C6939 1.516 . S
C6939 C6938 1.516 . S
C6939 C6940 1.502 . S
C6939 C6941 1.561 . S
C6939 C6942 1.526 . S
C6940 H6924 0.959 . S
C6940 H6925 0.959 . S
C6940 H6926 0.961 . S
C6940 C6939 1.502 . S
C6941 H6927 0.960 . S
C6941 H6928 0.961 . S
C6941 H6929 0.959 . S
C6941 C6939 1.561 . S
C6942 C6939 1.526 . S
C6942 C6943 1.396 . S
C6942 C6947 1.390 . S
C6943 C6937 1.465 . S
C6943 C6942 1.396 . S
C6943 C6944 1.399 . S
C6944 H6930 0.929 . S
C6944 C6943 1.399 . S
C6944 C6945 1.385 . S
C6945 H6931 0.931 . S
C6945 C6944 1.385 . S
C6945 C6946 1.389 . S
C6946 C6945 1.389 . S
C6946 C6947 1.387 . S
C6947 H6932 0.930 . S
C6947 C6942 1.390 . S
C6947 C6946 1.387 . S
H6948 C6960 0.930 . S
H6949 C6962 0.930 . S
H6950 C6963 0.930 . S
H6951 C6967 0.959 . S
H6952 C6967 0.959 . S
H6953 C6967 0.961 . S
H6954 C6968 0.960 . S
H6955 C6968 0.961 . S
H6956 C6968 0.959 . S
H6957 C6971 0.929 . S
H6958 C6972 0.931 . S
H6959 C6974 0.930 . S
C6960 H6948 0.930 . S
C6960 C6961 1.399 . S
C6960 C6965 1.399 . S
C6961 C6960 1.399 . S
C6961 C6962 1.376 . S
C6962 H6949 0.930 . S
C6962 C6961 1.376 . S
C6962 C6963 1.388 . S
C6963 H6950 0.930 . S
C6963 C6962 1.388 . S
C6963 C6964 1.390 . S
C6964 C6963 1.390 . S
C6964 C6965 1.394 . S
C6964 C6970 1.465 . S
C6965 C6960 1.399 . S
C6965 C6964 1.394 . S
C6965 C6966 1.516 . S
C6966 C6965 1.516 . S
C6966 C6967 1.502 . S
C6966 C6968 1.561 . S
C6966 C6969 1.526 . S
C6967 H6951 0.959 . S
C6967 H6952 0.959 . S
C6967 H6953 0.961 . S
C6967 C6966 1.502 . S
C6968 H6954 0.960 . S
C6968 H6955 0.961 . S
C6968 H6956 0.959 . S
C6968 C6966 1.561 . S
C6969 C6966 1.526 . S
C6969 C6970 1.396 . S
C6969 C6974 1.390 . S
C6970 C6964 1.465 . S
C6970 C6969 1.396 . S
C6970 C6971 1.399 . S
C6971 H6957 0.929 . S
C6971 C6970 1.399 . S
C6971 C6972 1.385 . S
C6972 H6958 0.931 . S
C6972 C6971 1.385 . S
C6972 C6973 1.389 . S
C6973 C6972 1.389 . S
C6973 C6974 1.387 . S
C6974 H6959 0.930 . S
C6974 C6969 1.390 . S
C6974 C6973 1.387 . S
H6975 C6987 0.930 . S
H6976 C6989 0.930 . S
H6977 C6990 0.930 . S
H6978 C6994 0.959 . S
H6979 C6994 0.959 . S
H6980 C6994 0.961 . S
H6981 C6995 0.960 . S
H6982 C6995 0.961 . S
H6983 C6995 0.959 . S
H6984 C6998 0.929 . S
H6985 C6999 0.931 . S
H6986 C7001 0.930 . S
C6987 H6975 0.930 . S
C6987 C6988 1.399 . S
C6987 C6992 1.399 . S
C6988 C6987 1.399 . S
C6988 C6989 1.376 . S
C6989 H6976 0.930 . S
C6989 C6988 1.376 . S
C6989 C6990 1.388 . S
C6990 H6977 0.930 . S
C6990 C6989 1.388 . S
C6990 C6991 1.390 . S
C6991 C6990 1.390 . S
C6991 C6992 1.394 . S
C6991 C6997 1.465 . S
C6992 C6987 1.399 . S
C6992 C6991 1.394 . S
C6992 C6993 1.516 . S
C6993 C6992 1.516 . S
C6993 C6994 1.502 . S
C6993 C6995 1.561 . S
C6993 C6996 1.526 . S
C6994 H6978 0.959 . S
C6994 H6979 0.959 . S
C6994 H6980 0.961 . S
C6994 C6993 1.502 . S
C6995 H6981 0.960 . S
C6995 H6982 0.961 . S
C6995 H6983 0.959 . S
C6995 C6993 1.561 . S
C6996 C6993 1.526 . S
C6996 C6997 1.396 . S
C6996 C7001 1.390 . S
C6997 C6991 1.465 . S
C6997 C6996 1.396 . S
C6997 C6998 1.399 . S
C6998 H6984 0.929 . S
C6998 C6997 1.399 . S
C6998 C6999 1.385 . S
C6999 H6985 0.931 . S
C6999 C6998 1.385 . S
C6999 C7000 1.389 . S
C7000 C6999 1.389 . S
C7000 C7001 1.387 . S
C7001 H6986 0.930 . S
C7001 C6996 1.390 . S
C7001 C7000 1.387 . S
H7002 C7014 0.930 . S
H7003 C7016 0.930 . S
H7004 C7017 0.930 . S
H7005 C7021 0.959 . S
H7006 C7021 0.959 . S
H7007 C7021 0.961 . S
H7008 C7022 0.960 . S
H7009 C7022 0.961 . S
H7010 C7022 0.959 . S
H7011 C7025 0.929 . S
H7012 C7026 0.931 . S
H7013 C7028 0.930 . S
C7014 H7002 0.930 . S
C7014 C7015 1.399 . S
C7014 C7019 1.399 . S
C7015 C7014 1.399 . S
C7015 C7016 1.376 . S
C7016 H7003 0.930 . S
C7016 C7015 1.376 . S
C7016 C7017 1.388 . S
C7017 H7004 0.930 . S
C7017 C7016 1.388 . S
C7017 C7018 1.390 . S
C7018 C7017 1.390 . S
C7018 C7019 1.394 . S
C7018 C7024 1.465 . S
C7019 C7014 1.399 . S
C7019 C7018 1.394 . S
C7019 C7020 1.516 . S
C7020 C7019 1.516 . S
C7020 C7021 1.502 . S
C7020 C7022 1.561 . S
C7020 C7023 1.526 . S
C7021 H7005 0.959 . S
C7021 H7006 0.959 . S
C7021 H7007 0.961 . S
C7021 C7020 1.502 . S
C7022 H7008 0.960 . S
C7022 H7009 0.961 . S
C7022 H7010 0.959 . S
C7022 C7020 1.561 . S
C7023 C7020 1.526 . S
C7023 C7024 1.396 . S
C7023 C7028 1.390 . S
C7024 C7018 1.465 . S
C7024 C7023 1.396 . S
C7024 C7025 1.399 . S
C7025 H7011 0.929 . S
C7025 C7024 1.399 . S
C7025 C7026 1.385 . S
C7026 H7012 0.931 . S
C7026 C7025 1.385 . S
C7026 C7027 1.389 . S
C7027 C7026 1.389 . S
C7027 C7028 1.387 . S
C7028 H7013 0.930 . S
C7028 C7023 1.390 . S
C7028 C7027 1.387 . S
H7029 C7041 0.930 . S
H7030 C7043 0.930 . S
H7031 C7044 0.930 . S
H7032 C7048 0.959 . S
H7033 C7048 0.959 . S
H7034 C7048 0.961 . S
H7035 C7049 0.960 . S
H7036 C7049 0.961 . S
H7037 C7049 0.959 . S
H7038 C7052 0.929 . S
H7039 C7053 0.931 . S
H7040 C7055 0.930 . S
C7041 H7029 0.930 . S
C7041 C7042 1.399 . S
C7041 C7046 1.399 . S
C7042 C7041 1.399 . S
C7042 C7043 1.376 . S
C7043 H7030 0.930 . S
C7043 C7042 1.376 . S
C7043 C7044 1.388 . S
C7044 H7031 0.930 . S
C7044 C7043 1.388 . S
C7044 C7045 1.390 . S
C7045 C7044 1.390 . S
C7045 C7046 1.394 . S
C7045 C7051 1.465 . S
C7046 C7041 1.399 . S
C7046 C7045 1.394 . S
C7046 C7047 1.516 . S
C7047 C7046 1.516 . S
C7047 C7048 1.502 . S
C7047 C7049 1.561 . S
C7047 C7050 1.526 . S
C7048 H7032 0.959 . S
C7048 H7033 0.959 . S
C7048 H7034 0.961 . S
C7048 C7047 1.502 . S
C7049 H7035 0.960 . S
C7049 H7036 0.961 . S
C7049 H7037 0.959 . S
C7049 C7047 1.561 . S
C7050 C7047 1.526 . S
C7050 C7051 1.396 . S
C7050 C7055 1.390 . S
C7051 C7045 1.465 . S
C7051 C7050 1.396 . S
C7051 C7052 1.399 . S
C7052 H7038 0.929 . S
C7052 C7051 1.399 . S
C7052 C7053 1.385 . S
C7053 H7039 0.931 . S
C7053 C7052 1.385 . S
C7053 C7054 1.389 . S
C7054 C7053 1.389 . S
C7054 C7055 1.387 . S
C7055 H7040 0.930 . S
C7055 C7050 1.390 . S
C7055 C7054 1.387 . S
H7056 C7068 0.930 . S
H7057 C7070 0.930 . S
H7058 C7071 0.930 . S
H7059 C7075 0.959 . S
H7060 C7075 0.959 . S
H7061 C7075 0.961 . S
H7062 C7076 0.960 . S
H7063 C7076 0.961 . S
H7064 C7076 0.959 . S
H7065 C7079 0.929 . S
H7066 C7080 0.931 . S
H7067 C7082 0.930 . S
C7068 H7056 0.930 . S
C7068 C7069 1.399 . S
C7068 C7073 1.399 . S
C7069 C7068 1.399 . S
C7069 C7070 1.376 . S
C7070 H7057 0.930 . S
C7070 C7069 1.376 . S
C7070 C7071 1.388 . S
C7071 H7058 0.930 . S
C7071 C7070 1.388 . S
C7071 C7072 1.390 . S
C7072 C7071 1.390 . S
C7072 C7073 1.394 . S
C7072 C7078 1.465 . S
C7073 C7068 1.399 . S
C7073 C7072 1.394 . S
C7073 C7074 1.516 . S
C7074 C7073 1.516 . S
C7074 C7075 1.502 . S
C7074 C7076 1.561 . S
C7074 C7077 1.526 . S
C7075 H7059 0.959 . S
C7075 H7060 0.959 . S
C7075 H7061 0.961 . S
C7075 C7074 1.502 . S
C7076 H7062 0.960 . S
C7076 H7063 0.961 . S
C7076 H7064 0.959 . S
C7076 C7074 1.561 . S
C7077 C7074 1.526 . S
C7077 C7078 1.396 . S
C7077 C7082 1.390 . S
C7078 C7072 1.465 . S
C7078 C7077 1.396 . S
C7078 C7079 1.399 . S
C7079 H7065 0.929 . S
C7079 C7078 1.399 . S
C7079 C7080 1.385 . S
C7080 H7066 0.931 . S
C7080 C7079 1.385 . S
C7080 C7081 1.389 . S
C7081 C7080 1.389 . S
C7081 C7082 1.387 . S
C7082 H7067 0.930 . S
C7082 C7077 1.390 . S
C7082 C7081 1.387 . S
H7083 C7095 0.930 . S
H7084 C7097 0.930 . S
H7085 C7098 0.930 . S
H7086 C7102 0.959 . S
H7087 C7102 0.959 . S
H7088 C7102 0.961 . S
H7089 C7103 0.960 . S
H7090 C7103 0.961 . S
H7091 C7103 0.959 . S
H7092 C7106 0.929 . S
H7093 C7107 0.931 . S
H7094 C7109 0.930 . S
C7095 H7083 0.930 . S
C7095 C7096 1.399 . S
C7095 C7100 1.399 . S
C7096 C7095 1.399 . S
C7096 C7097 1.376 . S
C7097 H7084 0.930 . S
C7097 C7096 1.376 . S
C7097 C7098 1.388 . S
C7098 H7085 0.930 . S
C7098 C7097 1.388 . S
C7098 C7099 1.390 . S
C7099 C7098 1.390 . S
C7099 C7100 1.394 . S
C7099 C7105 1.465 . S
C7100 C7095 1.399 . S
C7100 C7099 1.394 . S
C7100 C7101 1.516 . S
C7101 C7100 1.516 . S
C7101 C7102 1.502 . S
C7101 C7103 1.561 . S
C7101 C7104 1.526 . S
C7102 H7086 0.959 . S
C7102 H7087 0.959 . S
C7102 H7088 0.961 . S
C7102 C7101 1.502 . S
C7103 H7089 0.960 . S
C7103 H7090 0.961 . S
C7103 H7091 0.959 . S
C7103 C7101 1.561 . S
C7104 C7101 1.526 . S
C7104 C7105 1.396 . S
C7104 C7109 1.390 . S
C7105 C7099 1.465 . S
C7105 C7104 1.396 . S
C7105 C7106 1.399 . S
C7106 H7092 0.929 . S
C7106 C7105 1.399 . S
C7106 C7107 1.385 . S
C7107 H7093 0.931 . S
C7107 C7106 1.385 . S
C7107 C7108 1.389 . S
C7108 C7107 1.389 . S
C7108 C7109 1.387 . S
C7109 H7094 0.930 . S
C7109 C7104 1.390 . S
C7109 C7108 1.387 . S
H7110 C7122 0.930 . S
H7111 C7124 0.930 . S
H7112 C7125 0.930 . S
H7113 C7129 0.959 . S
H7114 C7129 0.959 . S
H7115 C7129 0.961 . S
H7116 C7130 0.960 . S
H7117 C7130 0.961 . S
H7118 C7130 0.959 . S
H7119 C7133 0.929 . S
H7120 C7134 0.931 . S
H7121 C7136 0.930 . S
C7122 H7110 0.930 . S
C7122 C7123 1.399 . S
C7122 C7127 1.399 . S
C7123 C7122 1.399 . S
C7123 C7124 1.376 . S
C7124 H7111 0.930 . S
C7124 C7123 1.376 . S
C7124 C7125 1.388 . S
C7125 H7112 0.930 . S
C7125 C7124 1.388 . S
C7125 C7126 1.390 . S
C7126 C7125 1.390 . S
C7126 C7127 1.394 . S
C7126 C7132 1.465 . S
C7127 C7122 1.399 . S
C7127 C7126 1.394 . S
C7127 C7128 1.516 . S
C7128 C7127 1.516 . S
C7128 C7129 1.502 . S
C7128 C7130 1.561 . S
C7128 C7131 1.526 . S
C7129 H7113 0.959 . S
C7129 H7114 0.959 . S
C7129 H7115 0.961 . S
C7129 C7128 1.502 . S
C7130 H7116 0.960 . S
C7130 H7117 0.961 . S
C7130 H7118 0.959 . S
C7130 C7128 1.561 . S
C7131 C7128 1.526 . S
C7131 C7132 1.396 . S
C7131 C7136 1.390 . S
C7132 C7126 1.465 . S
C7132 C7131 1.396 . S
C7132 C7133 1.399 . S
C7133 H7119 0.929 . S
C7133 C7132 1.399 . S
C7133 C7134 1.385 . S
C7134 H7120 0.931 . S
C7134 C7133 1.385 . S
C7134 C7135 1.389 . S
C7135 C7134 1.389 . S
C7135 C7136 1.387 . S
C7136 H7121 0.930 . S
C7136 C7131 1.390 . S
C7136 C7135 1.387 . S
H7137 C7149 0.930 . S
H7138 C7151 0.930 . S
H7139 C7152 0.930 . S
H7140 C7156 0.959 . S
H7141 C7156 0.959 . S
H7142 C7156 0.961 . S
H7143 C7157 0.960 . S
H7144 C7157 0.961 . S
H7145 C7157 0.959 . S
H7146 C7160 0.929 . S
H7147 C7161 0.931 . S
H7148 C7163 0.930 . S
C7149 H7137 0.930 . S
C7149 C7150 1.399 . S
C7149 C7154 1.399 . S
C7150 C7149 1.399 . S
C7150 C7151 1.376 . S
C7151 H7138 0.930 . S
C7151 C7150 1.376 . S
C7151 C7152 1.388 . S
C7152 H7139 0.930 . S
C7152 C7151 1.388 . S
C7152 C7153 1.390 . S
C7153 C7152 1.390 . S
C7153 C7154 1.394 . S
C7153 C7159 1.465 . S
C7154 C7149 1.399 . S
C7154 C7153 1.394 . S
C7154 C7155 1.516 . S
C7155 C7154 1.516 . S
C7155 C7156 1.502 . S
C7155 C7157 1.561 . S
C7155 C7158 1.526 . S
C7156 H7140 0.959 . S
C7156 H7141 0.959 . S
C7156 H7142 0.961 . S
C7156 C7155 1.502 . S
C7157 H7143 0.960 . S
C7157 H7144 0.961 . S
C7157 H7145 0.959 . S
C7157 C7155 1.561 . S
C7158 C7155 1.526 . S
C7158 C7159 1.396 . S
C7158 C7163 1.390 . S
C7159 C7153 1.465 . S
C7159 C7158 1.396 . S
C7159 C7160 1.399 . S
C7160 H7146 0.929 . S
C7160 C7159 1.399 . S
C7160 C7161 1.385 . S
C7161 H7147 0.931 . S
C7161 C7160 1.385 . S
C7161 C7162 1.389 . S
C7162 C7161 1.389 . S
C7162 C7163 1.387 . S
C7163 H7148 0.930 . S
C7163 C7158 1.390 . S
C7163 C7162 1.387 . S
H7164 C7176 0.930 . S
H7165 C7178 0.930 . S
H7166 C7179 0.930 . S
H7167 C7183 0.959 . S
H7168 C7183 0.959 . S
H7169 C7183 0.961 . S
H7170 C7184 0.960 . S
H7171 C7184 0.961 . S
H7172 C7184 0.959 . S
H7173 C7187 0.929 . S
H7174 C7188 0.931 . S
H7175 C7190 0.930 . S
C7176 H7164 0.930 . S
C7176 C7177 1.399 . S
C7176 C7181 1.399 . S
C7177 C7176 1.399 . S
C7177 C7178 1.376 . S
C7178 H7165 0.930 . S
C7178 C7177 1.376 . S
C7178 C7179 1.388 . S
C7179 H7166 0.930 . S
C7179 C7178 1.388 . S
C7179 C7180 1.390 . S
C7180 C7179 1.390 . S
C7180 C7181 1.394 . S
C7180 C7186 1.465 . S
C7181 C7176 1.399 . S
C7181 C7180 1.394 . S
C7181 C7182 1.516 . S
C7182 C7181 1.516 . S
C7182 C7183 1.502 . S
C7182 C7184 1.561 . S
C7182 C7185 1.526 . S
C7183 H7167 0.959 . S
C7183 H7168 0.959 . S
C7183 H7169 0.961 . S
C7183 C7182 1.502 . S
C7184 H7170 0.960 . S
C7184 H7171 0.961 . S
C7184 H7172 0.959 . S
C7184 C7182 1.561 . S
C7185 C7182 1.526 . S
C7185 C7186 1.396 . S
C7185 C7190 1.390 . S
C7186 C7180 1.465 . S
C7186 C7185 1.396 . S
C7186 C7187 1.399 . S
C7187 H7173 0.929 . S
C7187 C7186 1.399 . S
C7187 C7188 1.385 . S
C7188 H7174 0.931 . S
C7188 C7187 1.385 . S
C7188 C7189 1.389 . S
C7189 C7188 1.389 . S
C7189 C7190 1.387 . S
C7190 H7175 0.930 . S
C7190 C7185 1.390 . S
C7190 C7189 1.387 . S
H7191 C7203 0.930 . S
H7192 C7205 0.930 . S
H7193 C7206 0.930 . S
H7194 C7210 0.959 . S
H7195 C7210 0.959 . S
H7196 C7210 0.961 . S
H7197 C7211 0.960 . S
H7198 C7211 0.961 . S
H7199 C7211 0.959 . S
H7200 C7214 0.929 . S
H7201 C7215 0.931 . S
H7202 C7217 0.930 . S
C7203 H7191 0.930 . S
C7203 C7204 1.399 . S
C7203 C7208 1.399 . S
C7204 C7203 1.399 . S
C7204 C7205 1.376 . S
C7205 H7192 0.930 . S
C7205 C7204 1.376 . S
C7205 C7206 1.388 . S
C7206 H7193 0.930 . S
C7206 C7205 1.388 . S
C7206 C7207 1.390 . S
C7207 C7206 1.390 . S
C7207 C7208 1.394 . S
C7207 C7213 1.465 . S
C7208 C7203 1.399 . S
C7208 C7207 1.394 . S
C7208 C7209 1.516 . S
C7209 C7208 1.516 . S
C7209 C7210 1.502 . S
C7209 C7211 1.561 . S
C7209 C7212 1.526 . S
C7210 H7194 0.959 . S
C7210 H7195 0.959 . S
C7210 H7196 0.961 . S
C7210 C7209 1.502 . S
C7211 H7197 0.960 . S
C7211 H7198 0.961 . S
C7211 H7199 0.959 . S
C7211 C7209 1.561 . S
C7212 C7209 1.526 . S
C7212 C7213 1.396 . S
C7212 C7217 1.390 . S
C7213 C7207 1.465 . S
C7213 C7212 1.396 . S
C7213 C7214 1.399 . S
C7214 H7200 0.929 . S
C7214 C7213 1.399 . S
C7214 C7215 1.385 . S
C7215 H7201 0.931 . S
C7215 C7214 1.385 . S
C7215 C7216 1.389 . S
C7216 C7215 1.389 . S
C7216 C7217 1.387 . S
C7217 H7202 0.930 . S
C7217 C7212 1.390 . S
C7217 C7216 1.387 . S
H7218 C7230 0.930 . S
H7219 C7232 0.930 . S
H7220 C7233 0.930 . S
H7221 C7237 0.959 . S
H7222 C7237 0.959 . S
H7223 C7237 0.961 . S
H7224 C7238 0.960 . S
H7225 C7238 0.961 . S
H7226 C7238 0.959 . S
H7227 C7241 0.929 . S
H7228 C7242 0.931 . S
H7229 C7244 0.930 . S
C7230 H7218 0.930 . S
C7230 C7231 1.399 . S
C7230 C7235 1.399 . S
C7231 C7230 1.399 . S
C7231 C7232 1.376 . S
C7232 H7219 0.930 . S
C7232 C7231 1.376 . S
C7232 C7233 1.388 . S
C7233 H7220 0.930 . S
C7233 C7232 1.388 . S
C7233 C7234 1.390 . S
C7234 C7233 1.390 . S
C7234 C7235 1.394 . S
C7234 C7240 1.465 . S
C7235 C7230 1.399 . S
C7235 C7234 1.394 . S
C7235 C7236 1.516 . S
C7236 C7235 1.516 . S
C7236 C7237 1.502 . S
C7236 C7238 1.561 . S
C7236 C7239 1.526 . S
C7237 H7221 0.959 . S
C7237 H7222 0.959 . S
C7237 H7223 0.961 . S
C7237 C7236 1.502 . S
C7238 H7224 0.960 . S
C7238 H7225 0.961 . S
C7238 H7226 0.959 . S
C7238 C7236 1.561 . S
C7239 C7236 1.526 . S
C7239 C7240 1.396 . S
C7239 C7244 1.390 . S
C7240 C7234 1.465 . S
C7240 C7239 1.396 . S
C7240 C7241 1.399 . S
C7241 H7227 0.929 . S
C7241 C7240 1.399 . S
C7241 C7242 1.385 . S
C7242 H7228 0.931 . S
C7242 C7241 1.385 . S
C7242 C7243 1.389 . S
C7243 C7242 1.389 . S
C7243 C7244 1.387 . S
C7244 H7229 0.930 . S
C7244 C7239 1.390 . S
C7244 C7243 1.387 . S
H7245 C7257 0.930 . S
H7246 C7259 0.930 . S
H7247 C7260 0.930 . S
H7248 C7264 0.959 . S
H7249 C7264 0.959 . S
H7250 C7264 0.961 . S
H7251 C7265 0.960 . S
H7252 C7265 0.961 . S
H7253 C7265 0.959 . S
H7254 C7268 0.929 . S
H7255 C7269 0.931 . S
H7256 C7271 0.930 . S
C7257 H7245 0.930 . S
C7257 C7258 1.399 . S
C7257 C7262 1.399 . S
C7258 C7257 1.399 . S
C7258 C7259 1.376 . S
C7259 H7246 0.930 . S
C7259 C7258 1.376 . S
C7259 C7260 1.388 . S
C7260 H7247 0.930 . S
C7260 C7259 1.388 . S
C7260 C7261 1.390 . S
C7261 C7260 1.390 . S
C7261 C7262 1.394 . S
C7261 C7267 1.465 . S
C7262 C7257 1.399 . S
C7262 C7261 1.394 . S
C7262 C7263 1.516 . S
C7263 C7262 1.516 . S
C7263 C7264 1.502 . S
C7263 C7265 1.561 . S
C7263 C7266 1.526 . S
C7264 H7248 0.959 . S
C7264 H7249 0.959 . S
C7264 H7250 0.961 . S
C7264 C7263 1.502 . S
C7265 H7251 0.960 . S
C7265 H7252 0.961 . S
C7265 H7253 0.959 . S
C7265 C7263 1.561 . S
C7266 C7263 1.526 . S
C7266 C7267 1.396 . S
C7266 C7271 1.390 . S
C7267 C7261 1.465 . S
C7267 C7266 1.396 . S
C7267 C7268 1.399 . S
C7268 H7254 0.929 . S
C7268 C7267 1.399 . S
C7268 C7269 1.385 . S
C7269 H7255 0.931 . S
C7269 C7268 1.385 . S
C7269 C7270 1.389 . S
C7270 C7269 1.389 . S
C7270 C7271 1.387 . S
C7271 H7256 0.930 . S
C7271 C7266 1.390 . S
C7271 C7270 1.387 . S
H7272 C7284 0.930 . S
H7273 C7286 0.930 . S
H7274 C7287 0.930 . S
H7275 C7291 0.959 . S
H7276 C7291 0.959 . S
H7277 C7291 0.961 . S
H7278 C7292 0.960 . S
H7279 C7292 0.961 . S
H7280 C7292 0.959 . S
H7281 C7295 0.929 . S
H7282 C7296 0.931 . S
H7283 C7298 0.930 . S
C7284 H7272 0.930 . S
C7284 C7285 1.399 . S
C7284 C7289 1.399 . S
C7285 C7284 1.399 . S
C7285 C7286 1.376 . S
C7286 H7273 0.930 . S
C7286 C7285 1.376 . S
C7286 C7287 1.388 . S
C7287 H7274 0.930 . S
C7287 C7286 1.388 . S
C7287 C7288 1.390 . S
C7288 C7287 1.390 . S
C7288 C7289 1.394 . S
C7288 C7294 1.465 . S
C7289 C7284 1.399 . S
C7289 C7288 1.394 . S
C7289 C7290 1.516 . S
C7290 C7289 1.516 . S
C7290 C7291 1.502 . S
C7290 C7292 1.561 . S
C7290 C7293 1.526 . S
C7291 H7275 0.959 . S
C7291 H7276 0.959 . S
C7291 H7277 0.961 . S
C7291 C7290 1.502 . S
C7292 H7278 0.960 . S
C7292 H7279 0.961 . S
C7292 H7280 0.959 . S
C7292 C7290 1.561 . S
C7293 C7290 1.526 . S
C7293 C7294 1.396 . S
C7293 C7298 1.390 . S
C7294 C7288 1.465 . S
C7294 C7293 1.396 . S
C7294 C7295 1.399 . S
C7295 H7281 0.929 . S
C7295 C7294 1.399 . S
C7295 C7296 1.385 . S
C7296 H7282 0.931 . S
C7296 C7295 1.385 . S
C7296 C7297 1.389 . S
C7297 C7296 1.389 . S
C7297 C7298 1.387 . S
C7298 H7283 0.930 . S
C7298 C7293 1.390 . S
C7298 C7297 1.387 . S
H7299 C7311 0.930 . S
H7300 C7313 0.930 . S
H7301 C7314 0.930 . S
H7302 C7318 0.959 . S
H7303 C7318 0.959 . S
H7304 C7318 0.961 . S
H7305 C7319 0.960 . S
H7306 C7319 0.961 . S
H7307 C7319 0.959 . S
H7308 C7322 0.929 . S
H7309 C7323 0.931 . S
H7310 C7325 0.930 . S
C7311 H7299 0.930 . S
C7311 C7312 1.399 . S
C7311 C7316 1.399 . S
C7312 C7311 1.399 . S
C7312 C7313 1.376 . S
C7313 H7300 0.930 . S
C7313 C7312 1.376 . S
C7313 C7314 1.388 . S
C7314 H7301 0.930 . S
C7314 C7313 1.388 . S
C7314 C7315 1.390 . S
C7315 C7314 1.390 . S
C7315 C7316 1.394 . S
C7315 C7321 1.465 . S
C7316 C7311 1.399 . S
C7316 C7315 1.394 . S
C7316 C7317 1.516 . S
C7317 C7316 1.516 . S
C7317 C7318 1.502 . S
C7317 C7319 1.561 . S
C7317 C7320 1.526 . S
C7318 H7302 0.959 . S
C7318 H7303 0.959 . S
C7318 H7304 0.961 . S
C7318 C7317 1.502 . S
C7319 H7305 0.960 . S
C7319 H7306 0.961 . S
C7319 H7307 0.959 . S
C7319 C7317 1.561 . S
C7320 C7317 1.526 . S
C7320 C7321 1.396 . S
C7320 C7325 1.390 . S
C7321 C7315 1.465 . S
C7321 C7320 1.396 . S
C7321 C7322 1.399 . S
C7322 H7308 0.929 . S
C7322 C7321 1.399 . S
C7322 C7323 1.385 . S
C7323 H7309 0.931 . S
C7323 C7322 1.385 . S
C7323 C7324 1.389 . S
C7324 C7323 1.389 . S
C7324 C7325 1.387 . S
C7325 H7310 0.930 . S
C7325 C7320 1.390 . S
C7325 C7324 1.387 . S
H7326 C7338 0.930 . S
H7327 C7340 0.930 . S
H7328 C7341 0.930 . S
H7329 C7345 0.959 . S
H7330 C7345 0.959 . S
H7331 C7345 0.961 . S
H7332 C7346 0.960 . S
H7333 C7346 0.961 . S
H7334 C7346 0.959 . S
H7335 C7349 0.929 . S
H7336 C7350 0.931 . S
H7337 C7352 0.930 . S
C7338 H7326 0.930 . S
C7338 C7339 1.399 . S
C7338 C7343 1.399 . S
C7339 C7338 1.399 . S
C7339 C7340 1.376 . S
C7340 H7327 0.930 . S
C7340 C7339 1.376 . S
C7340 C7341 1.388 . S
C7341 H7328 0.930 . S
C7341 C7340 1.388 . S
C7341 C7342 1.390 . S
C7342 C7341 1.390 . S
C7342 C7343 1.394 . S
C7342 C7348 1.465 . S
C7343 C7338 1.399 . S
C7343 C7342 1.394 . S
C7343 C7344 1.516 . S
C7344 C7343 1.516 . S
C7344 C7345 1.502 . S
C7344 C7346 1.561 . S
C7344 C7347 1.526 . S
C7345 H7329 0.959 . S
C7345 H7330 0.959 . S
C7345 H7331 0.961 . S
C7345 C7344 1.502 . S
C7346 H7332 0.960 . S
C7346 H7333 0.961 . S
C7346 H7334 0.959 . S
C7346 C7344 1.561 . S
C7347 C7344 1.526 . S
C7347 C7348 1.396 . S
C7347 C7352 1.390 . S
C7348 C7342 1.465 . S
C7348 C7347 1.396 . S
C7348 C7349 1.399 . S
C7349 H7335 0.929 . S
C7349 C7348 1.399 . S
C7349 C7350 1.385 . S
C7350 H7336 0.931 . S
C7350 C7349 1.385 . S
C7350 C7351 1.389 . S
C7351 C7350 1.389 . S
C7351 C7352 1.387 . S
C7352 H7337 0.930 . S
C7352 C7347 1.390 . S
C7352 C7351 1.387 . S
H7353 C7365 0.930 . S
H7354 C7367 0.930 . S
H7355 C7368 0.930 . S
H7356 C7372 0.959 . S
H7357 C7372 0.959 . S
H7358 C7372 0.961 . S
H7359 C7373 0.960 . S
H7360 C7373 0.961 . S
H7361 C7373 0.959 . S
H7362 C7376 0.929 . S
H7363 C7377 0.931 . S
H7364 C7379 0.930 . S
C7365 H7353 0.930 . S
C7365 C7366 1.399 . S
C7365 C7370 1.399 . S
C7366 C7365 1.399 . S
C7366 C7367 1.376 . S
C7367 H7354 0.930 . S
C7367 C7366 1.376 . S
C7367 C7368 1.388 . S
C7368 H7355 0.930 . S
C7368 C7367 1.388 . S
C7368 C7369 1.390 . S
C7369 C7368 1.390 . S
C7369 C7370 1.394 . S
C7369 C7375 1.465 . S
C7370 C7365 1.399 . S
C7370 C7369 1.394 . S
C7370 C7371 1.516 . S
C7371 C7370 1.516 . S
C7371 C7372 1.502 . S
C7371 C7373 1.561 . S
C7371 C7374 1.526 . S
C7372 H7356 0.959 . S
C7372 H7357 0.959 . S
C7372 H7358 0.961 . S
C7372 C7371 1.502 . S
C7373 H7359 0.960 . S
C7373 H7360 0.961 . S
C7373 H7361 0.959 . S
C7373 C7371 1.561 . S
C7374 C7371 1.526 . S
C7374 C7375 1.396 . S
C7374 C7379 1.390 . S
C7375 C7369 1.465 . S
C7375 C7374 1.396 . S
C7375 C7376 1.399 . S
C7376 H7362 0.929 . S
C7376 C7375 1.399 . S
C7376 C7377 1.385 . S
C7377 H7363 0.931 . S
C7377 C7376 1.385 . S
C7377 C7378 1.389 . S
C7378 C7377 1.389 . S
C7378 C7379 1.387 . S
C7379 H7364 0.930 . S
C7379 C7374 1.390 . S
C7379 C7378 1.387 . S
H7380 C7392 0.930 . S
H7381 C7394 0.930 . S
H7382 C7395 0.930 . S
H7383 C7399 0.959 . S
H7384 C7399 0.959 . S
H7385 C7399 0.961 . S
H7386 C7400 0.960 . S
H7387 C7400 0.961 . S
H7388 C7400 0.959 . S
H7389 C7403 0.929 . S
H7390 C7404 0.931 . S
H7391 C7406 0.930 . S
C7392 H7380 0.930 . S
C7392 C7393 1.399 . S
C7392 C7397 1.399 . S
C7393 C7392 1.399 . S
C7393 C7394 1.376 . S
C7394 H7381 0.930 . S
C7394 C7393 1.376 . S
C7394 C7395 1.388 . S
C7395 H7382 0.930 . S
C7395 C7394 1.388 . S
C7395 C7396 1.390 . S
C7396 C7395 1.390 . S
C7396 C7397 1.394 . S
C7396 C7402 1.465 . S
C7397 C7392 1.399 . S
C7397 C7396 1.394 . S
C7397 C7398 1.516 . S
C7398 C7397 1.516 . S
C7398 C7399 1.502 . S
C7398 C7400 1.561 . S
C7398 C7401 1.526 . S
C7399 H7383 0.959 . S
C7399 H7384 0.959 . S
C7399 H7385 0.961 . S
C7399 C7398 1.502 . S
C7400 H7386 0.960 . S
C7400 H7387 0.961 . S
C7400 H7388 0.959 . S
C7400 C7398 1.561 . S
C7401 C7398 1.526 . S
C7401 C7402 1.396 . S
C7401 C7406 1.390 . S
C7402 C7396 1.465 . S
C7402 C7401 1.396 . S
C7402 C7403 1.399 . S
C7403 H7389 0.929 . S
C7403 C7402 1.399 . S
C7403 C7404 1.385 . S
C7404 H7390 0.931 . S
C7404 C7403 1.385 . S
C7404 C7405 1.389 . S
C7405 C7404 1.389 . S
C7405 C7406 1.387 . S
C7406 H7391 0.930 . S
C7406 C7401 1.390 . S
C7406 C7405 1.387 . S
H7407 C7419 0.930 . S
H7408 C7421 0.930 . S
H7409 C7422 0.930 . S
H7410 C7426 0.959 . S
H7411 C7426 0.959 . S
H7412 C7426 0.961 . S
H7413 C7427 0.960 . S
H7414 C7427 0.961 . S
H7415 C7427 0.959 . S
H7416 C7430 0.929 . S
H7417 C7431 0.931 . S
H7418 C7433 0.930 . S
C7419 H7407 0.930 . S
C7419 C7420 1.399 . S
C7419 C7424 1.399 . S
C7420 C7419 1.399 . S
C7420 C7421 1.376 . S
C7421 H7408 0.930 . S
C7421 C7420 1.376 . S
C7421 C7422 1.388 . S
C7422 H7409 0.930 . S
C7422 C7421 1.388 . S
C7422 C7423 1.390 . S
C7423 C7422 1.390 . S
C7423 C7424 1.394 . S
C7423 C7429 1.465 . S
C7424 C7419 1.399 . S
C7424 C7423 1.394 . S
C7424 C7425 1.516 . S
C7425 C7424 1.516 . S
C7425 C7426 1.502 . S
C7425 C7427 1.561 . S
C7425 C7428 1.526 . S
C7426 H7410 0.959 . S
C7426 H7411 0.959 . S
C7426 H7412 0.961 . S
C7426 C7425 1.502 . S
C7427 H7413 0.960 . S
C7427 H7414 0.961 . S
C7427 H7415 0.959 . S
C7427 C7425 1.561 . S
C7428 C7425 1.526 . S
C7428 C7429 1.396 . S
C7428 C7433 1.390 . S
C7429 C7423 1.465 . S
C7429 C7428 1.396 . S
C7429 C7430 1.399 . S
C7430 H7416 0.929 . S
C7430 C7429 1.399 . S
C7430 C7431 1.385 . S
C7431 H7417 0.931 . S
C7431 C7430 1.385 . S
C7431 C7432 1.389 . S
C7432 C7431 1.389 . S
C7432 C7433 1.387 . S
C7433 H7418 0.930 . S
C7433 C7428 1.390 . S
C7433 C7432 1.387 . S
H7434 C7446 0.930 . S
H7435 C7448 0.930 . S
H7436 C7449 0.930 . S
H7437 C7453 0.959 . S
H7438 C7453 0.959 . S
H7439 C7453 0.961 . S
H7440 C7454 0.960 . S
H7441 C7454 0.961 . S
H7442 C7454 0.959 . S
H7443 C7457 0.929 . S
H7444 C7458 0.931 . S
H7445 C7460 0.930 . S
C7446 H7434 0.930 . S
C7446 C7447 1.399 . S
C7446 C7451 1.399 . S
C7447 C7446 1.399 . S
C7447 C7448 1.376 . S
C7448 H7435 0.930 . S
C7448 C7447 1.376 . S
C7448 C7449 1.388 . S
C7449 H7436 0.930 . S
C7449 C7448 1.388 . S
C7449 C7450 1.390 . S
C7450 C7449 1.390 . S
C7450 C7451 1.394 . S
C7450 C7456 1.465 . S
C7451 C7446 1.399 . S
C7451 C7450 1.394 . S
C7451 C7452 1.516 . S
C7452 C7451 1.516 . S
C7452 C7453 1.502 . S
C7452 C7454 1.561 . S
C7452 C7455 1.526 . S
C7453 H7437 0.959 . S
C7453 H7438 0.959 . S
C7453 H7439 0.961 . S
C7453 C7452 1.502 . S
C7454 H7440 0.960 . S
C7454 H7441 0.961 . S
C7454 H7442 0.959 . S
C7454 C7452 1.561 . S
C7455 C7452 1.526 . S
C7455 C7456 1.396 . S
C7455 C7460 1.390 . S
C7456 C7450 1.465 . S
C7456 C7455 1.396 . S
C7456 C7457 1.399 . S
C7457 H7443 0.929 . S
C7457 C7456 1.399 . S
C7457 C7458 1.385 . S
C7458 H7444 0.931 . S
C7458 C7457 1.385 . S
C7458 C7459 1.389 . S
C7459 C7458 1.389 . S
C7459 C7460 1.387 . S
C7460 H7445 0.930 . S
C7460 C7455 1.390 . S
C7460 C7459 1.387 . S
H7461 C7473 0.930 . S
H7462 C7475 0.930 . S
H7463 C7476 0.930 . S
H7464 C7480 0.959 . S
H7465 C7480 0.959 . S
H7466 C7480 0.961 . S
H7467 C7481 0.960 . S
H7468 C7481 0.961 . S
H7469 C7481 0.959 . S
H7470 C7484 0.929 . S
H7471 C7485 0.931 . S
H7472 C7487 0.930 . S
C7473 H7461 0.930 . S
C7473 C7474 1.399 . S
C7473 C7478 1.399 . S
C7474 C7473 1.399 . S
C7474 C7475 1.376 . S
C7475 H7462 0.930 . S
C7475 C7474 1.376 . S
C7475 C7476 1.388 . S
C7476 H7463 0.930 . S
C7476 C7475 1.388 . S
C7476 C7477 1.390 . S
C7477 C7476 1.390 . S
C7477 C7478 1.394 . S
C7477 C7483 1.465 . S
C7478 C7473 1.399 . S
C7478 C7477 1.394 . S
C7478 C7479 1.516 . S
C7479 C7478 1.516 . S
C7479 C7480 1.502 . S
C7479 C7481 1.561 . S
C7479 C7482 1.526 . S
C7480 H7464 0.959 . S
C7480 H7465 0.959 . S
C7480 H7466 0.961 . S
C7480 C7479 1.502 . S
C7481 H7467 0.960 . S
C7481 H7468 0.961 . S
C7481 H7469 0.959 . S
C7481 C7479 1.561 . S
C7482 C7479 1.526 . S
C7482 C7483 1.396 . S
C7482 C7487 1.390 . S
C7483 C7477 1.465 . S
C7483 C7482 1.396 . S
C7483 C7484 1.399 . S
C7484 H7470 0.929 . S
C7484 C7483 1.399 . S
C7484 C7485 1.385 . S
C7485 H7471 0.931 . S
C7485 C7484 1.385 . S
C7485 C7486 1.389 . S
C7486 C7485 1.389 . S
C7486 C7487 1.387 . S
C7487 H7472 0.930 . S
C7487 C7482 1.390 . S
C7487 C7486 1.387 . S
H7488 C7500 0.930 . S
H7489 C7502 0.930 . S
H7490 C7503 0.930 . S
H7491 C7507 0.959 . S
H7492 C7507 0.959 . S
H7493 C7507 0.961 . S
H7494 C7508 0.960 . S
H7495 C7508 0.961 . S
H7496 C7508 0.959 . S
H7497 C7511 0.929 . S
H7498 C7512 0.931 . S
H7499 C7514 0.930 . S
C7500 H7488 0.930 . S
C7500 C7501 1.399 . S
C7500 C7505 1.399 . S
C7501 C7500 1.399 . S
C7501 C7502 1.376 . S
C7502 H7489 0.930 . S
C7502 C7501 1.376 . S
C7502 C7503 1.388 . S
C7503 H7490 0.930 . S
C7503 C7502 1.388 . S
C7503 C7504 1.390 . S
C7504 C7503 1.390 . S
C7504 C7505 1.394 . S
C7504 C7510 1.465 . S
C7505 C7500 1.399 . S
C7505 C7504 1.394 . S
C7505 C7506 1.516 . S
C7506 C7505 1.516 . S
C7506 C7507 1.502 . S
C7506 C7508 1.561 . S
C7506 C7509 1.526 . S
C7507 H7491 0.959 . S
C7507 H7492 0.959 . S
C7507 H7493 0.961 . S
C7507 C7506 1.502 . S
C7508 H7494 0.960 . S
C7508 H7495 0.961 . S
C7508 H7496 0.959 . S
C7508 C7506 1.561 . S
C7509 C7506 1.526 . S
C7509 C7510 1.396 . S
C7509 C7514 1.390 . S
C7510 C7504 1.465 . S
C7510 C7509 1.396 . S
C7510 C7511 1.399 . S
C7511 H7497 0.929 . S
C7511 C7510 1.399 . S
C7511 C7512 1.385 . S
C7512 H7498 0.931 . S
C7512 C7511 1.385 . S
C7512 C7513 1.389 . S
C7513 C7512 1.389 . S
C7513 C7514 1.387 . S
C7514 H7499 0.930 . S
C7514 C7509 1.390 . S
C7514 C7513 1.387 . S
H7515 C7527 0.930 . S
H7516 C7529 0.930 . S
H7517 C7530 0.930 . S
H7518 C7534 0.959 . S
H7519 C7534 0.959 . S
H7520 C7534 0.961 . S
H7521 C7535 0.960 . S
H7522 C7535 0.961 . S
H7523 C7535 0.959 . S
H7524 C7538 0.929 . S
H7525 C7539 0.931 . S
H7526 C7541 0.930 . S
C7527 H7515 0.930 . S
C7527 C7528 1.399 . S
C7527 C7532 1.399 . S
C7528 C7527 1.399 . S
C7528 C7529 1.376 . S
C7529 H7516 0.930 . S
C7529 C7528 1.376 . S
C7529 C7530 1.388 . S
C7530 H7517 0.930 . S
C7530 C7529 1.388 . S
C7530 C7531 1.390 . S
C7531 C7530 1.390 . S
C7531 C7532 1.394 . S
C7531 C7537 1.465 . S
C7532 C7527 1.399 . S
C7532 C7531 1.394 . S
C7532 C7533 1.516 . S
C7533 C7532 1.516 . S
C7533 C7534 1.502 . S
C7533 C7535 1.561 . S
C7533 C7536 1.526 . S
C7534 H7518 0.959 . S
C7534 H7519 0.959 . S
C7534 H7520 0.961 . S
C7534 C7533 1.502 . S
C7535 H7521 0.960 . S
C7535 H7522 0.961 . S
C7535 H7523 0.959 . S
C7535 C7533 1.561 . S
C7536 C7533 1.526 . S
C7536 C7537 1.396 . S
C7536 C7541 1.390 . S
C7537 C7531 1.465 . S
C7537 C7536 1.396 . S
C7537 C7538 1.399 . S
C7538 H7524 0.929 . S
C7538 C7537 1.399 . S
C7538 C7539 1.385 . S
C7539 H7525 0.931 . S
C7539 C7538 1.385 . S
C7539 C7540 1.389 . S
C7540 C7539 1.389 . S
C7540 C7541 1.387 . S
C7541 H7526 0.930 . S
C7541 C7536 1.390 . S
C7541 C7540 1.387 . S
H7542 C7554 0.930 . S
H7543 C7556 0.930 . S
H7544 C7557 0.930 . S
H7545 C7561 0.959 . S
H7546 C7561 0.959 . S
H7547 C7561 0.961 . S
H7548 C7562 0.960 . S
H7549 C7562 0.961 . S
H7550 C7562 0.959 . S
H7551 C7565 0.929 . S
H7552 C7566 0.931 . S
H7553 C7568 0.930 . S
C7554 H7542 0.930 . S
C7554 C7555 1.399 . S
C7554 C7559 1.399 . S
C7555 C7554 1.399 . S
C7555 C7556 1.376 . S
C7556 H7543 0.930 . S
C7556 C7555 1.376 . S
C7556 C7557 1.388 . S
C7557 H7544 0.930 . S
C7557 C7556 1.388 . S
C7557 C7558 1.390 . S
C7558 C7557 1.390 . S
C7558 C7559 1.394 . S
C7558 C7564 1.465 . S
C7559 C7554 1.399 . S
C7559 C7558 1.394 . S
C7559 C7560 1.516 . S
C7560 C7559 1.516 . S
C7560 C7561 1.502 . S
C7560 C7562 1.561 . S
C7560 C7563 1.526 . S
C7561 H7545 0.959 . S
C7561 H7546 0.959 . S
C7561 H7547 0.961 . S
C7561 C7560 1.502 . S
C7562 H7548 0.960 . S
C7562 H7549 0.961 . S
C7562 H7550 0.959 . S
C7562 C7560 1.561 . S
C7563 C7560 1.526 . S
C7563 C7564 1.396 . S
C7563 C7568 1.390 . S
C7564 C7558 1.465 . S
C7564 C7563 1.396 . S
C7564 C7565 1.399 . S
C7565 H7551 0.929 . S
C7565 C7564 1.399 . S
C7565 C7566 1.385 . S
C7566 H7552 0.931 . S
C7566 C7565 1.385 . S
C7566 C7567 1.389 . S
C7567 C7566 1.389 . S
C7567 C7568 1.387 . S
C7568 H7553 0.930 . S
C7568 C7563 1.390 . S
C7568 C7567 1.387 . S
H7569 C7581 0.930 . S
H7570 C7583 0.930 . S
H7571 C7584 0.930 . S
H7572 C7588 0.959 . S
H7573 C7588 0.959 . S
H7574 C7588 0.961 . S
H7575 C7589 0.960 . S
H7576 C7589 0.961 . S
H7577 C7589 0.959 . S
H7578 C7592 0.929 . S
H7579 C7593 0.931 . S
H7580 C7595 0.930 . S
C7581 H7569 0.930 . S
C7581 C7582 1.399 . S
C7581 C7586 1.399 . S
C7582 C7581 1.399 . S
C7582 C7583 1.376 . S
C7583 H7570 0.930 . S
C7583 C7582 1.376 . S
C7583 C7584 1.388 . S
C7584 H7571 0.930 . S
C7584 C7583 1.388 . S
C7584 C7585 1.390 . S
C7585 C7584 1.390 . S
C7585 C7586 1.394 . S
C7585 C7591 1.465 . S
C7586 C7581 1.399 . S
C7586 C7585 1.394 . S
C7586 C7587 1.516 . S
C7587 C7586 1.516 . S
C7587 C7588 1.502 . S
C7587 C7589 1.561 . S
C7587 C7590 1.526 . S
C7588 H7572 0.959 . S
C7588 H7573 0.959 . S
C7588 H7574 0.961 . S
C7588 C7587 1.502 . S
C7589 H7575 0.960 . S
C7589 H7576 0.961 . S
C7589 H7577 0.959 . S
C7589 C7587 1.561 . S
C7590 C7587 1.526 . S
C7590 C7591 1.396 . S
C7590 C7595 1.390 . S
C7591 C7585 1.465 . S
C7591 C7590 1.396 . S
C7591 C7592 1.399 . S
C7592 H7578 0.929 . S
C7592 C7591 1.399 . S
C7592 C7593 1.385 . S
C7593 H7579 0.931 . S
C7593 C7592 1.385 . S
C7593 C7594 1.389 . S
C7594 C7593 1.389 . S
C7594 C7595 1.387 . S
C7595 H7580 0.930 . S
C7595 C7590 1.390 . S
C7595 C7594 1.387 . S
H7596 C7608 0.930 . S
H7597 C7610 0.930 . S
H7598 C7611 0.930 . S
H7599 C7615 0.959 . S
H7600 C7615 0.959 . S
H7601 C7615 0.961 . S
H7602 C7616 0.960 . S
H7603 C7616 0.961 . S
H7604 C7616 0.959 . S
H7605 C7619 0.929 . S
H7606 C7620 0.931 . S
H7607 C7622 0.930 . S
C7608 H7596 0.930 . S
C7608 C7609 1.399 . S
C7608 C7613 1.399 . S
C7609 C7608 1.399 . S
C7609 C7610 1.376 . S
C7610 H7597 0.930 . S
C7610 C7609 1.376 . S
C7610 C7611 1.388 . S
C7611 H7598 0.930 . S
C7611 C7610 1.388 . S
C7611 C7612 1.390 . S
C7612 C7611 1.390 . S
C7612 C7613 1.394 . S
C7612 C7618 1.465 . S
C7613 C7608 1.399 . S
C7613 C7612 1.394 . S
C7613 C7614 1.516 . S
C7614 C7613 1.516 . S
C7614 C7615 1.502 . S
C7614 C7616 1.561 . S
C7614 C7617 1.526 . S
C7615 H7599 0.959 . S
C7615 H7600 0.959 . S
C7615 H7601 0.961 . S
C7615 C7614 1.502 . S
C7616 H7602 0.960 . S
C7616 H7603 0.961 . S
C7616 H7604 0.959 . S
C7616 C7614 1.561 . S
C7617 C7614 1.526 . S
C7617 C7618 1.396 . S
C7617 C7622 1.390 . S
C7618 C7612 1.465 . S
C7618 C7617 1.396 . S
C7618 C7619 1.399 . S
C7619 H7605 0.929 . S
C7619 C7618 1.399 . S
C7619 C7620 1.385 . S
C7620 H7606 0.931 . S
C7620 C7619 1.385 . S
C7620 C7621 1.389 . S
C7621 C7620 1.389 . S
C7621 C7622 1.387 . S
C7622 H7607 0.930 . S
C7622 C7617 1.390 . S
C7622 C7621 1.387 . S
H7623 C7635 0.930 . S
H7624 C7637 0.930 . S
H7625 C7638 0.930 . S
H7626 C7642 0.959 . S
H7627 C7642 0.959 . S
H7628 C7642 0.961 . S
H7629 C7643 0.960 . S
H7630 C7643 0.961 . S
H7631 C7643 0.959 . S
H7632 C7646 0.929 . S
H7633 C7647 0.931 . S
H7634 C7649 0.930 . S
C7635 H7623 0.930 . S
C7635 C7636 1.399 . S
C7635 C7640 1.399 . S
C7636 C7635 1.399 . S
C7636 C7637 1.376 . S
C7637 H7624 0.930 . S
C7637 C7636 1.376 . S
C7637 C7638 1.388 . S
C7638 H7625 0.930 . S
C7638 C7637 1.388 . S
C7638 C7639 1.390 . S
C7639 C7638 1.390 . S
C7639 C7640 1.394 . S
C7639 C7645 1.465 . S
C7640 C7635 1.399 . S
C7640 C7639 1.394 . S
C7640 C7641 1.516 . S
C7641 C7640 1.516 . S
C7641 C7642 1.502 . S
C7641 C7643 1.561 . S
C7641 C7644 1.526 . S
C7642 H7626 0.959 . S
C7642 H7627 0.959 . S
C7642 H7628 0.961 . S
C7642 C7641 1.502 . S
C7643 H7629 0.960 . S
C7643 H7630 0.961 . S
C7643 H7631 0.959 . S
C7643 C7641 1.561 . S
C7644 C7641 1.526 . S
C7644 C7645 1.396 . S
C7644 C7649 1.390 . S
C7645 C7639 1.465 . S
C7645 C7644 1.396 . S
C7645 C7646 1.399 . S
C7646 H7632 0.929 . S
C7646 C7645 1.399 . S
C7646 C7647 1.385 . S
C7647 H7633 0.931 . S
C7647 C7646 1.385 . S
C7647 C7648 1.389 . S
C7648 C7647 1.389 . S
C7648 C7649 1.387 . S
C7649 H7634 0.930 . S
C7649 C7644 1.390 . S
C7649 C7648 1.387 . S
H7650 C7662 0.930 . S
H7651 C7664 0.930 . S
H7652 C7665 0.930 . S
H7653 C7669 0.959 . S
H7654 C7669 0.959 . S
H7655 C7669 0.961 . S
H7656 C7670 0.960 . S
H7657 C7670 0.961 . S
H7658 C7670 0.959 . S
H7659 C7673 0.929 . S
H7660 C7674 0.931 . S
H7661 C7676 0.930 . S
C7662 H7650 0.930 . S
C7662 C7663 1.399 . S
C7662 C7667 1.399 . S
C7663 C7662 1.399 . S
C7663 C7664 1.376 . S
C7664 H7651 0.930 . S
C7664 C7663 1.376 . S
C7664 C7665 1.388 . S
C7665 H7652 0.930 . S
C7665 C7664 1.388 . S
C7665 C7666 1.390 . S
C7666 C7665 1.390 . S
C7666 C7667 1.394 . S
C7666 C7672 1.465 . S
C7667 C7662 1.399 . S
C7667 C7666 1.394 . S
C7667 C7668 1.516 . S
C7668 C7667 1.516 . S
C7668 C7669 1.502 . S
C7668 C7670 1.561 . S
C7668 C7671 1.526 . S
C7669 H7653 0.959 . S
C7669 H7654 0.959 . S
C7669 H7655 0.961 . S
C7669 C7668 1.502 . S
C7670 H7656 0.960 . S
C7670 H7657 0.961 . S
C7670 H7658 0.959 . S
C7670 C7668 1.561 . S
C7671 C7668 1.526 . S
C7671 C7672 1.396 . S
C7671 C7676 1.390 . S
C7672 C7666 1.465 . S
C7672 C7671 1.396 . S
C7672 C7673 1.399 . S
C7673 H7659 0.929 . S
C7673 C7672 1.399 . S
C7673 C7674 1.385 . S
C7674 H7660 0.931 . S
C7674 C7673 1.385 . S
C7674 C7675 1.389 . S
C7675 C7674 1.389 . S
C7675 C7676 1.387 . S
C7676 H7661 0.930 . S
C7676 C7671 1.390 . S
C7676 C7675 1.387 . S
H7677 C7689 0.930 . S
H7678 C7691 0.930 . S
H7679 C7692 0.930 . S
H7680 C7696 0.959 . S
H7681 C7696 0.959 . S
H7682 C7696 0.961 . S
H7683 C7697 0.960 . S
H7684 C7697 0.961 . S
H7685 C7697 0.959 . S
H7686 C7700 0.929 . S
H7687 C7701 0.931 . S
H7688 C7703 0.930 . S
C7689 H7677 0.930 . S
C7689 C7690 1.399 . S
C7689 C7694 1.399 . S
C7690 C7689 1.399 . S
C7690 C7691 1.376 . S
C7691 H7678 0.930 . S
C7691 C7690 1.376 . S
C7691 C7692 1.388 . S
C7692 H7679 0.930 . S
C7692 C7691 1.388 . S
C7692 C7693 1.390 . S
C7693 C7692 1.390 . S
C7693 C7694 1.394 . S
C7693 C7699 1.465 . S
C7694 C7689 1.399 . S
C7694 C7693 1.394 . S
C7694 C7695 1.516 . S
C7695 C7694 1.516 . S
C7695 C7696 1.502 . S
C7695 C7697 1.561 . S
C7695 C7698 1.526 . S
C7696 H7680 0.959 . S
C7696 H7681 0.959 . S
C7696 H7682 0.961 . S
C7696 C7695 1.502 . S
C7697 H7683 0.960 . S
C7697 H7684 0.961 . S
C7697 H7685 0.959 . S
C7697 C7695 1.561 . S
C7698 C7695 1.526 . S
C7698 C7699 1.396 . S
C7698 C7703 1.390 . S
C7699 C7693 1.465 . S
C7699 C7698 1.396 . S
C7699 C7700 1.399 . S
C7700 H7686 0.929 . S
C7700 C7699 1.399 . S
C7700 C7701 1.385 . S
C7701 H7687 0.931 . S
C7701 C7700 1.385 . S
C7701 C7702 1.389 . S
C7702 C7701 1.389 . S
C7702 C7703 1.387 . S
C7703 H7688 0.930 . S
C7703 C7698 1.390 . S
C7703 C7702 1.387 . S
H7704 C7716 0.930 . S
H7705 C7718 0.930 . S
H7706 C7719 0.930 . S
H7707 C7723 0.959 . S
H7708 C7723 0.959 . S
H7709 C7723 0.961 . S
H7710 C7724 0.960 . S
H7711 C7724 0.961 . S
H7712 C7724 0.959 . S
H7713 C7727 0.929 . S
H7714 C7728 0.931 . S
H7715 C7730 0.930 . S
C7716 H7704 0.930 . S
C7716 C7717 1.399 . S
C7716 C7721 1.399 . S
C7717 C7716 1.399 . S
C7717 C7718 1.376 . S
C7718 H7705 0.930 . S
C7718 C7717 1.376 . S
C7718 C7719 1.388 . S
C7719 H7706 0.930 . S
C7719 C7718 1.388 . S
C7719 C7720 1.390 . S
C7720 C7719 1.390 . S
C7720 C7721 1.394 . S
C7720 C7726 1.465 . S
C7721 C7716 1.399 . S
C7721 C7720 1.394 . S
C7721 C7722 1.516 . S
C7722 C7721 1.516 . S
C7722 C7723 1.502 . S
C7722 C7724 1.561 . S
C7722 C7725 1.526 . S
C7723 H7707 0.959 . S
C7723 H7708 0.959 . S
C7723 H7709 0.961 . S
C7723 C7722 1.502 . S
C7724 H7710 0.960 . S
C7724 H7711 0.961 . S
C7724 H7712 0.959 . S
C7724 C7722 1.561 . S
C7725 C7722 1.526 . S
C7725 C7726 1.396 . S
C7725 C7730 1.390 . S
C7726 C7720 1.465 . S
C7726 C7725 1.396 . S
C7726 C7727 1.399 . S
C7727 H7713 0.929 . S
C7727 C7726 1.399 . S
C7727 C7728 1.385 . S
C7728 H7714 0.931 . S
C7728 C7727 1.385 . S
C7728 C7729 1.389 . S
C7729 C7728 1.389 . S
C7729 C7730 1.387 . S
C7730 H7715 0.930 . S
C7730 C7725 1.390 . S
C7730 C7729 1.387 . S
H7731 C7743 0.930 . S
H7732 C7745 0.930 . S
H7733 C7746 0.930 . S
H7734 C7750 0.959 . S
H7735 C7750 0.959 . S
H7736 C7750 0.961 . S
H7737 C7751 0.960 . S
H7738 C7751 0.961 . S
H7739 C7751 0.959 . S
H7740 C7754 0.929 . S
H7741 C7755 0.931 . S
H7742 C7757 0.930 . S
C7743 H7731 0.930 . S
C7743 C7744 1.399 . S
C7743 C7748 1.399 . S
C7744 C7743 1.399 . S
C7744 C7745 1.376 . S
C7745 H7732 0.930 . S
C7745 C7744 1.376 . S
C7745 C7746 1.388 . S
C7746 H7733 0.930 . S
C7746 C7745 1.388 . S
C7746 C7747 1.390 . S
C7747 C7746 1.390 . S
C7747 C7748 1.394 . S
C7747 C7753 1.465 . S
C7748 C7743 1.399 . S
C7748 C7747 1.394 . S
C7748 C7749 1.516 . S
C7749 C7748 1.516 . S
C7749 C7750 1.502 . S
C7749 C7751 1.561 . S
C7749 C7752 1.526 . S
C7750 H7734 0.959 . S
C7750 H7735 0.959 . S
C7750 H7736 0.961 . S
C7750 C7749 1.502 . S
C7751 H7737 0.960 . S
C7751 H7738 0.961 . S
C7751 H7739 0.959 . S
C7751 C7749 1.561 . S
C7752 C7749 1.526 . S
C7752 C7753 1.396 . S
C7752 C7757 1.390 . S
C7753 C7747 1.465 . S
C7753 C7752 1.396 . S
C7753 C7754 1.399 . S
C7754 H7740 0.929 . S
C7754 C7753 1.399 . S
C7754 C7755 1.385 . S
C7755 H7741 0.931 . S
C7755 C7754 1.385 . S
C7755 C7756 1.389 . S
C7756 C7755 1.389 . S
C7756 C7757 1.387 . S
C7757 H7742 0.930 . S
C7757 C7752 1.390 . S
C7757 C7756 1.387 . S
H7758 C7770 0.930 . S
H7759 C7772 0.930 . S
H7760 C7773 0.930 . S
H7761 C7777 0.959 . S
H7762 C7777 0.959 . S
H7763 C7777 0.961 . S
H7764 C7778 0.960 . S
H7765 C7778 0.961 . S
H7766 C7778 0.959 . S
H7767 C7781 0.929 . S
H7768 C7782 0.931 . S
H7769 C7784 0.930 . S
C7770 H7758 0.930 . S
C7770 C7771 1.399 . S
C7770 C7775 1.399 . S
C7771 C7770 1.399 . S
C7771 C7772 1.376 . S
C7772 H7759 0.930 . S
C7772 C7771 1.376 . S
C7772 C7773 1.388 . S
C7773 H7760 0.930 . S
C7773 C7772 1.388 . S
C7773 C7774 1.390 . S
C7774 C7773 1.390 . S
C7774 C7775 1.394 . S
C7774 C7780 1.465 . S
C7775 C7770 1.399 . S
C7775 C7774 1.394 . S
C7775 C7776 1.516 . S
C7776 C7775 1.516 . S
C7776 C7777 1.502 . S
C7776 C7778 1.561 . S
C7776 C7779 1.526 . S
C7777 H7761 0.959 . S
C7777 H7762 0.959 . S
C7777 H7763 0.961 . S
C7777 C7776 1.502 . S
C7778 H7764 0.960 . S
C7778 H7765 0.961 . S
C7778 H7766 0.959 . S
C7778 C7776 1.561 . S
C7779 C7776 1.526 . S
C7779 C7780 1.396 . S
C7779 C7784 1.390 . S
C7780 C7774 1.465 . S
C7780 C7779 1.396 . S
C7780 C7781 1.399 . S
C7781 H7767 0.929 . S
C7781 C7780 1.399 . S
C7781 C7782 1.385 . S
C7782 H7768 0.931 . S
C7782 C7781 1.385 . S
C7782 C7783 1.389 . S
C7783 C7782 1.389 . S
C7783 C7784 1.387 . S
C7784 H7769 0.930 . S
C7784 C7779 1.390 . S
C7784 C7783 1.387 . S
H7785 C7797 0.930 . S
H7786 C7799 0.930 . S
H7787 C7800 0.930 . S
H7788 C7804 0.959 . S
H7789 C7804 0.959 . S
H7790 C7804 0.961 . S
H7791 C7805 0.960 . S
H7792 C7805 0.961 . S
H7793 C7805 0.959 . S
H7794 C7808 0.929 . S
H7795 C7809 0.931 . S
H7796 C7811 0.930 . S
C7797 H7785 0.930 . S
C7797 C7798 1.399 . S
C7797 C7802 1.399 . S
C7798 C7797 1.399 . S
C7798 C7799 1.376 . S
C7799 H7786 0.930 . S
C7799 C7798 1.376 . S
C7799 C7800 1.388 . S
C7800 H7787 0.930 . S
C7800 C7799 1.388 . S
C7800 C7801 1.390 . S
C7801 C7800 1.390 . S
C7801 C7802 1.394 . S
C7801 C7807 1.465 . S
C7802 C7797 1.399 . S
C7802 C7801 1.394 . S
C7802 C7803 1.516 . S
C7803 C7802 1.516 . S
C7803 C7804 1.502 . S
C7803 C7805 1.561 . S
C7803 C7806 1.526 . S
C7804 H7788 0.959 . S
C7804 H7789 0.959 . S
C7804 H7790 0.961 . S
C7804 C7803 1.502 . S
C7805 H7791 0.960 . S
C7805 H7792 0.961 . S
C7805 H7793 0.959 . S
C7805 C7803 1.561 . S
C7806 C7803 1.526 . S
C7806 C7807 1.396 . S
C7806 C7811 1.390 . S
C7807 C7801 1.465 . S
C7807 C7806 1.396 . S
C7807 C7808 1.399 . S
C7808 H7794 0.929 . S
C7808 C7807 1.399 . S
C7808 C7809 1.385 . S
C7809 H7795 0.931 . S
C7809 C7808 1.385 . S
C7809 C7810 1.389 . S
C7810 C7809 1.389 . S
C7810 C7811 1.387 . S
C7811 H7796 0.930 . S
C7811 C7806 1.390 . S
C7811 C7810 1.387 . S
H7812 C7824 0.930 . S
H7813 C7826 0.930 . S
H7814 C7827 0.930 . S
H7815 C7831 0.959 . S
H7816 C7831 0.959 . S
H7817 C7831 0.961 . S
H7818 C7832 0.960 . S
H7819 C7832 0.961 . S
H7820 C7832 0.959 . S
H7821 C7835 0.929 . S
H7822 C7836 0.931 . S
H7823 C7838 0.930 . S
C7824 H7812 0.930 . S
C7824 C7825 1.399 . S
C7824 C7829 1.399 . S
C7825 C7824 1.399 . S
C7825 C7826 1.376 . S
C7826 H7813 0.930 . S
C7826 C7825 1.376 . S
C7826 C7827 1.388 . S
C7827 H7814 0.930 . S
C7827 C7826 1.388 . S
C7827 C7828 1.390 . S
C7828 C7827 1.390 . S
C7828 C7829 1.394 . S
C7828 C7834 1.465 . S
C7829 C7824 1.399 . S
C7829 C7828 1.394 . S
C7829 C7830 1.516 . S
C7830 C7829 1.516 . S
C7830 C7831 1.502 . S
C7830 C7832 1.561 . S
C7830 C7833 1.526 . S
C7831 H7815 0.959 . S
C7831 H7816 0.959 . S
C7831 H7817 0.961 . S
C7831 C7830 1.502 . S
C7832 H7818 0.960 . S
C7832 H7819 0.961 . S
C7832 H7820 0.959 . S
C7832 C7830 1.561 . S
C7833 C7830 1.526 . S
C7833 C7834 1.396 . S
C7833 C7838 1.390 . S
C7834 C7828 1.465 . S
C7834 C7833 1.396 . S
C7834 C7835 1.399 . S
C7835 H7821 0.929 . S
C7835 C7834 1.399 . S
C7835 C7836 1.385 . S
C7836 H7822 0.931 . S
C7836 C7835 1.385 . S
C7836 C7837 1.389 . S
C7837 C7836 1.389 . S
C7837 C7838 1.387 . S
C7838 H7823 0.930 . S
C7838 C7833 1.390 . S
C7838 C7837 1.387 . S
H7839 C7851 0.930 . S
H7840 C7853 0.930 . S
H7841 C7854 0.930 . S
H7842 C7858 0.959 . S
H7843 C7858 0.959 . S
H7844 C7858 0.961 . S
H7845 C7859 0.960 . S
H7846 C7859 0.961 . S
H7847 C7859 0.959 . S
H7848 C7862 0.929 . S
H7849 C7863 0.931 . S
H7850 C7865 0.930 . S
C7851 H7839 0.930 . S
C7851 C7852 1.399 . S
C7851 C7856 1.399 . S
C7852 C7851 1.399 . S
C7852 C7853 1.376 . S
C7853 H7840 0.930 . S
C7853 C7852 1.376 . S
C7853 C7854 1.388 . S
C7854 H7841 0.930 . S
C7854 C7853 1.388 . S
C7854 C7855 1.390 . S
C7855 C7854 1.390 . S
C7855 C7856 1.394 . S
C7855 C7861 1.465 . S
C7856 C7851 1.399 . S
C7856 C7855 1.394 . S
C7856 C7857 1.516 . S
C7857 C7856 1.516 . S
C7857 C7858 1.502 . S
C7857 C7859 1.561 . S
C7857 C7860 1.526 . S
C7858 H7842 0.959 . S
C7858 H7843 0.959 . S
C7858 H7844 0.961 . S
C7858 C7857 1.502 . S
C7859 H7845 0.960 . S
C7859 H7846 0.961 . S
C7859 H7847 0.959 . S
C7859 C7857 1.561 . S
C7860 C7857 1.526 . S
C7860 C7861 1.396 . S
C7860 C7865 1.390 . S
C7861 C7855 1.465 . S
C7861 C7860 1.396 . S
C7861 C7862 1.399 . S
C7862 H7848 0.929 . S
C7862 C7861 1.399 . S
C7862 C7863 1.385 . S
C7863 H7849 0.931 . S
C7863 C7862 1.385 . S
C7863 C7864 1.389 . S
C7864 C7863 1.389 . S
C7864 C7865 1.387 . S
C7865 H7850 0.930 . S
C7865 C7860 1.390 . S
C7865 C7864 1.387 . S
H7866 C7878 0.930 . S
H7867 C7880 0.930 . S
H7868 C7881 0.930 . S
H7869 C7885 0.959 . S
H7870 C7885 0.959 . S
H7871 C7885 0.961 . S
H7872 C7886 0.960 . S
H7873 C7886 0.961 . S
H7874 C7886 0.959 . S
H7875 C7889 0.929 . S
H7876 C7890 0.931 . S
H7877 C7892 0.930 . S
C7878 H7866 0.930 . S
C7878 C7879 1.399 . S
C7878 C7883 1.399 . S
C7879 C7878 1.399 . S
C7879 C7880 1.376 . S
C7880 H7867 0.930 . S
C7880 C7879 1.376 . S
C7880 C7881 1.388 . S
C7881 H7868 0.930 . S
C7881 C7880 1.388 . S
C7881 C7882 1.390 . S
C7882 C7881 1.390 . S
C7882 C7883 1.394 . S
C7882 C7888 1.465 . S
C7883 C7878 1.399 . S
C7883 C7882 1.394 . S
C7883 C7884 1.516 . S
C7884 C7883 1.516 . S
C7884 C7885 1.502 . S
C7884 C7886 1.561 . S
C7884 C7887 1.526 . S
C7885 H7869 0.959 . S
C7885 H7870 0.959 . S
C7885 H7871 0.961 . S
C7885 C7884 1.502 . S
C7886 H7872 0.960 . S
C7886 H7873 0.961 . S
C7886 H7874 0.959 . S
C7886 C7884 1.561 . S
C7887 C7884 1.526 . S
C7887 C7888 1.396 . S
C7887 C7892 1.390 . S
C7888 C7882 1.465 . S
C7888 C7887 1.396 . S
C7888 C7889 1.399 . S
C7889 H7875 0.929 . S
C7889 C7888 1.399 . S
C7889 C7890 1.385 . S
C7890 H7876 0.931 . S
C7890 C7889 1.385 . S
C7890 C7891 1.389 . S
C7891 C7890 1.389 . S
C7891 C7892 1.387 . S
C7892 H7877 0.930 . S
C7892 C7887 1.390 . S
C7892 C7891 1.387 . S
H7893 C7905 0.930 . S
H7894 C7907 0.930 . S
H7895 C7908 0.930 . S
H7896 C7912 0.959 . S
H7897 C7912 0.959 . S
H7898 C7912 0.961 . S
H7899 C7913 0.960 . S
H7900 C7913 0.961 . S
H7901 C7913 0.959 . S
H7902 C7916 0.929 . S
H7903 C7917 0.931 . S
H7904 C7919 0.930 . S
C7905 H7893 0.930 . S
C7905 C7906 1.399 . S
C7905 C7910 1.399 . S
C7906 C7905 1.399 . S
C7906 C7907 1.376 . S
C7907 H7894 0.930 . S
C7907 C7906 1.376 . S
C7907 C7908 1.388 . S
C7908 H7895 0.930 . S
C7908 C7907 1.388 . S
C7908 C7909 1.390 . S
C7909 C7908 1.390 . S
C7909 C7910 1.394 . S
C7909 C7915 1.465 . S
C7910 C7905 1.399 . S
C7910 C7909 1.394 . S
C7910 C7911 1.516 . S
C7911 C7910 1.516 . S
C7911 C7912 1.502 . S
C7911 C7913 1.561 . S
C7911 C7914 1.526 . S
C7912 H7896 0.959 . S
C7912 H7897 0.959 . S
C7912 H7898 0.961 . S
C7912 C7911 1.502 . S
C7913 H7899 0.960 . S
C7913 H7900 0.961 . S
C7913 H7901 0.959 . S
C7913 C7911 1.561 . S
C7914 C7911 1.526 . S
C7914 C7915 1.396 . S
C7914 C7919 1.390 . S
C7915 C7909 1.465 . S
C7915 C7914 1.396 . S
C7915 C7916 1.399 . S
C7916 H7902 0.929 . S
C7916 C7915 1.399 . S
C7916 C7917 1.385 . S
C7917 H7903 0.931 . S
C7917 C7916 1.385 . S
C7917 C7918 1.389 . S
C7918 C7917 1.389 . S
C7918 C7919 1.387 . S
C7919 H7904 0.930 . S
C7919 C7914 1.390 . S
C7919 C7918 1.387 . S
C4045 C67 3.393 . S
C4057 C403 3.389 . S
C4072 C151 3.362 . S
C4084 C487 3.364 . S
C4099 C571 3.322 . S
C4111 C231 3.360 . S
C4126 C651 3.361 1_554 S
C4138 C319 3.325 . S
C4153 C739 3.391 . S
C4165 C819 3.410 . S
C4180 C823 3.282 1_565 S
C4192 C903 3.320 . S
C4207 C987 3.338 . S
C4219 C907 3.306 . S
C4234 C991 3.361 . S
C4246 C735 3.419 . S
C4261 C1071 3.275 . S
C4273 C315 3.301 . S
C4288 C655 3.237 . S
C4300 C2835 3.258 . S
C4315 C399 3.274 1_655 S
C4327 C1155 3.265 . S
C4342 C483 3.265 . S
C4354 C2923 3.233 . S
C4369 C147 3.295 . S
C4381 C1239 3.280 . S
C4396 C2671 3.223 . S
C4408 C63 3.283 . S
C4423 C2583 3.287 . S
C4435 C235 3.240 . S
C4450 C1652 3.361 . S
C4462 C1316 3.374 . S
C4477 C1400 3.363 . S
C4489 C1736 3.361 . S
C4504 C1502 3.359 . S
C4516 C1820 3.314 . S
C4531 C1568 3.299 . S
C4543 C1922 3.352 1_556 S
C4558 C2090 3.401 . S
C4570 C1988 3.384 . S
C4585 C2072 3.307 1_545 S
C4597 C2174 3.320 . S
C4612 C2258 3.339 . S
C4624 C2156 3.277 . S
C4639 C2006 3.418 1_545 S
C4651 C2240 3.386 . S
C4666 C1586 3.297 . S
C4678 C2342 3.285 . S
C4693 C3602 3.256 . S
C4705 C1904 3.204 . S
C4720 C2426 3.257 . S
C4732 C1670 3.282 1_455 S
C4747 C1754 3.252 . S
C4759 C3668 3.207 . S
C4774 C2510 3.295 . S
C4786 C1418 3.278 . S
C4801 C1334 3.283 1_455 S
C4813 C3416 3.220 . S
C4828 C1484 3.227 . S
C4840 C3350 3.268 . S
C4855 C2755 3.363 . S
C4867 C2587 3.369 . S
C4882 C2839 3.362 . S
C4894 C1075 3.362 1_556 S
C4909 C2667 3.358 . S
C4921 C1159 3.302 . S
C4936 C2919 3.342 . S
C4948 C1243 3.327 . S
C4963 C3007 3.388 . S
C4975 C3087 3.407 . S
C4990 C3091 3.295 . S
C5002 C3171 3.343 . S
C5017 C3255 3.324 . S
C5029 C3175 3.276 . S
C5044 C3003 3.424 . S
C5056 C3259 3.368 . S
C5071 C567 3.283 . S
C5083 C2751 3.257 . S
C5098 C3500 3.361 . S
C5110 C3332 3.374 . S
C5125 C3584 3.364 . S
C5137 C2324 3.362 . S
C5152 C2408 3.327 . S
C5164 C3434 3.339 . S
C5179 C3686 3.361 . S
C5191 C2492 3.302 . S
C5206 C3752 3.364 . S
C5218 C3854 3.411 . S
C5233 C3836 3.309 . S
C5245 C3938 3.320 . S
C5260 C3920 3.283 . S
C5272 C4022 3.324 . S
C5287 C4004 3.363 . S
C5299 C3770 3.426 . S
C5314 C3518 3.258 . S
C5326 C1838 3.278 . S
C5341 C56 0.788 . S
C5353 C1414 0.799 . S
C5368 C3418 0.908 . S
C5380 C140 0.817 . S
C5395 C242 0.852 . S
C5407 C1582 0.744 . S
C5422 C308 0.876 . S
C5434 C3346 0.655 . S
C5449 C392 0.729 . S
C5461 C1906 0.920 . S
C5476 C476 0.656 . S
C5488 C3514 0.883 . S
C5503 C560 0.877 . S
C5515 C1750 0.744 . S
C5530 C2422 0.717 . S
C5542 C662 0.861 . S
C5557 C728 0.893 . S
C5569 C3334 0.721 . S
C5584 C812 0.755 . S
C5596 C1402 0.726 . S
C5611 C896 0.833 . S
C5623 C3430 0.660 . S
C5638 C1570 0.773 . S
C5650 C980 0.919 . S
C5665 C3502 0.853 . S
C5677 C998 0.823 . S
C5692 C1738 0.685 . S
C5704 C746 0.817 . S
C5719 C830 0.769 . S
C5731 C2410 0.685 . S
C5746 C1918 0.606 . S
C5758 C914 0.785 . S
C5773 C3754 0.838 . S
C5785 C1082 0.841 . S
C5800 C2254 0.776 . S
C5812 C644 0.707 . S
C5827 C410 0.694 . S
C5839 C3766 0.605 . S
C5854 C494 0.662 . S
C5866 C2086 0.839 . S
C5881 C1166 0.689 . S
C5893 C2170 0.863 . S
C5908 C3922 0.702 . S
C5920 C1250 0.713 . S
C5935 C74 0.771 . S
C5947 C4006 0.842 . S
C5962 C224 0.801 . S
C5974 C3838 0.894 . S
C5989 C142 0.816 . S
C6001 C1327 0.833 . S
C6016 C1411 0.705 . S
C6028 C2674 0.783 . S
C6043 C1491 0.845 . S
C6055 C310 0.833 . S
C6070 C1579 0.838 . S
C6082 C2578 0.846 . S
C6097 C658 0.928 . S
C6109 C1663 0.860 . S
C6124 C2746 0.879 . S
C6136 C1747 0.684 . S
C6151 C478 0.902 . S
C6163 C1831 0.733 . S
C6178 C1911 0.644 . S
C6190 C1150 0.685 . S
C6205 C1999 0.665 . S
C6217 C2590 0.790 . S
C6232 C154 0.890 . S
C6244 C2083 0.809 . S
C6259 C2167 0.879 . S
C6271 C2662 0.711 . S
C6286 C322 0.736 . S
C6298 C2251 0.756 . S
C6313 C2758 0.803 . S
C6325 C2247 0.854 . S
C6340 C1995 0.636 . S
C6352 C490 0.672 . S
C6367 C2079 0.820 . S
C6379 C1162 0.871 . S
C6394 C646 0.804 . S
C6406 C2163 0.840 . S
C6421 C2331 0.844 . S
C6433 C3010 0.854 . S
C6448 C982 0.765 . S
C6460 C1915 0.864 . S
C6475 C2998 0.838 . S
C6487 C1659 0.795 . S
C6502 C1743 0.610 . S
C6514 C814 0.762 . S
C6529 C2415 0.692 . S
C6541 C898 0.619 . S
C6556 C3178 0.809 . S
C6568 C2499 0.733 . S
C6583 C1323 0.829 . S
C6595 C3262 0.760 . S
C6610 C3094 0.844 . S
C6622 C1495 0.696 . S
C6637 C2338 0.858 . S
C6649 C2576 0.645 . S
C6664 C1064 0.921 . S
C6676 C1486 0.765 . S
C6691 C2506 0.710 . S
C6703 C2678 0.852 . S
C6718 C1232 0.876 . S
C6730 C1330 0.655 . S
C6745 C2744 0.782 . S
C6757 C3670 0.783 . S
C6772 C1666 0.716 . S
C6784 C2828 0.775 . S
C6799 C1148 0.715 . S
C6811 C3598 0.894 . S
C6826 C1834 0.877 . S
C6838 C2930 0.734 . S
C6853 C2996 0.732 . S
C6865 C1318 0.741 . S
C6880 C3080 0.759 . S
C6892 C2326 0.723 . S
C6907 C3164 0.857 . S
C6919 C1498 0.644 . S
C6934 C2494 0.870 . S
C6946 C3248 0.695 . S
C6961 C1654 0.721 . S
C6973 C3266 0.641 . S
C6988 C3014 0.693 . S
C7000 C3586 0.652 . S
C7015 C1822 0.814 . S
C7027 C3098 0.684 . S
C7042 C3182 0.651 . S
C7054 C3682 0.844 . S
C7069 C158 0.749 . S
C7081 C1990 0.648 . S
C7096 C4018 0.863 . S
C7108 C2912 0.715 . S
C7123 C2762 0.627 . S
C7135 C2002 0.668 . S
C7150 C2846 0.711 . S
C7162 C3850 0.584 . S
C7177 C3934 0.866 . S
C7189 C578 0.748 . S
C7204 C2158 0.690 . S
C7216 C326 0.741 . S
C7231 C2594 0.699 . S
C7243 C2242 0.634 . S
C7258 C2074 0.884 . S
C7270 C2660 0.692 . S
C7285 C1066 0.711 . S
C7297 C3343 0.694 . S
C7312 C2335 0.894 . S
C7324 C238 0.897 . S
C7339 C1234 0.705 . S
C7351 C3423 0.630 . S
C7366 C2503 0.831 . S
C7378 C58 0.853 . S
C7393 C3511 0.824 . S
C7405 C2926 0.928 . S
C7420 C394 0.819 . S
C7432 C3595 0.844 . S
C7447 C2830 0.785 . S
C7459 C2419 0.694 . S
C7474 C562 0.864 . S
C7486 C3675 0.740 . S
C7501 C70 0.878 . S
C7513 C3763 0.747 . S
C7528 C3847 0.733 . S
C7540 C1078 0.700 . S
C7555 C226 0.884 . S
C7567 C3931 0.708 . S
C7582 C1246 0.900 . S
C7594 C4015 0.887 . S
C7609 C406 0.809 . S
C7621 C4011 0.856 . S
C7636 C2842 0.678 . S
C7648 C3759 0.639 . S
C7663 C3843 0.868 . S
C7675 C574 0.884 . S
C7690 C2914 0.610 . S
C7702 C3927 0.672 . S
C7717 C742 0.764 . S
C7729 C1407 0.688 . S
C7744 C3679 0.680 . S
C7756 C3250 0.733 . S
C7771 C3507 0.660 . S
C7783 C730 0.809 . S
C7798 C3082 0.592 . S
C7810 C3591 0.717 . S
C7825 C1827 0.729 . S
C7837 C3166 0.619 . S
C7852 C1575 0.855 . S
C7864 C910 0.885 . S
C7879 C994 0.838 . S
C7891 C3339 0.799 . S
C7906 C826 0.718 . S
C7918 C3427 0.835 . S
