# Generated by pormake.
# Topology crs, (6)-cn, num edge types: 1
# Building blocks:
#     Node 0, Type 0, BuildingBlock: CUKXOW_clean_sbu_0, # of connection points: 6
#     Node 1, Type 0, BuildingBlock: CUKXOW_clean_sbu_0, # of connection points: 6
#     Node 2, Type 0, BuildingBlock: CUKXOW_clean_sbu_0, # of connection points: 6
#     Node 3, Type 0, BuildingBlock: CUKXOW_clean_sbu_0, # of connection points: 6
#     Node 4, Type 0, BuildingBlock: CUKXOW_clean_sbu_0, # of connection points: 6
#     Node 5, Type 0, BuildingBlock: CUKXOW_clean_sbu_0, # of connection points: 6
#     Node 6, Type 0, BuildingBlock: CUKXOW_clean_sbu_0, # of connection points: 6
#     Node 7, Type 0, BuildingBlock: CUKXOW_clean_sbu_0, # of connection points: 6
#     Node 8, Type 0, BuildingBlock: CUKXOW_clean_sbu_0, # of connection points: 6
#     Node 9, Type 0, BuildingBlock: CUKXOW_clean_sbu_0, # of connection points: 6
#     Node 10, Type 0, BuildingBlock: CUKXOW_clean_sbu_0, # of connection points: 6
#     Node 11, Type 0, BuildingBlock: CUKXOW_clean_sbu_0, # of connection points: 6
#     Node 12, Type 0, BuildingBlock: CUKXOW_clean_sbu_0, # of connection points: 6
#     Node 13, Type 0, BuildingBlock: CUKXOW_clean_sbu_0, # of connection points: 6
#     Node 14, Type 0, BuildingBlock: CUKXOW_clean_sbu_0, # of connection points: 6
#     Node 15, Type 0, BuildingBlock: CUKXOW_clean_sbu_0, # of connection points: 6
#     Edge 16, Type (0, 0), BuildingBlock: TEMPAE_clean_linker_10, # of connection points: 2
#     Edge 17, Type (0, 0), BuildingBlock: TEMPAE_clean_linker_10, # of connection points: 2
#     Edge 18, Type (0, 0), BuildingBlock: TEMPAE_clean_linker_10, # of connection points: 2
#     Edge 19, Type (0, 0), BuildingBlock: TEMPAE_clean_linker_10, # of connection points: 2
#     Edge 20, Type (0, 0), BuildingBlock: TEMPAE_clean_linker_10, # of connection points: 2
#     Edge 21, Type (0, 0), BuildingBlock: TEMPAE_clean_linker_10, # of connection points: 2
#     Edge 22, Type (0, 0), BuildingBlock: TEMPAE_clean_linker_10, # of connection points: 2
#     Edge 23, Type (0, 0), BuildingBlock: TEMPAE_clean_linker_10, # of connection points: 2
#     Edge 24, Type (0, 0), BuildingBlock: TEMPAE_clean_linker_10, # of connection points: 2
#     Edge 25, Type (0, 0), BuildingBlock: TEMPAE_clean_linker_10, # of connection points: 2
#     Edge 26, Type (0, 0), BuildingBlock: TEMPAE_clean_linker_10, # of connection points: 2
#     Edge 27, Type (0, 0), BuildingBlock: TEMPAE_clean_linker_10, # of connection points: 2
#     Edge 28, Type (0, 0), BuildingBlock: TEMPAE_clean_linker_10, # of connection points: 2
#     Edge 29, Type (0, 0), BuildingBlock: TEMPAE_clean_linker_10, # of connection points: 2
#     Edge 30, Type (0, 0), BuildingBlock: TEMPAE_clean_linker_10, # of connection points: 2
#     Edge 31, Type (0, 0), BuildingBlock: TEMPAE_clean_linker_10, # of connection points: 2
#     Edge 32, Type (0, 0), BuildingBlock: TEMPAE_clean_linker_10, # of connection points: 2
#     Edge 33, Type (0, 0), BuildingBlock: TEMPAE_clean_linker_10, # of connection points: 2
#     Edge 34, Type (0, 0), BuildingBlock: TEMPAE_clean_linker_10, # of connection points: 2
#     Edge 35, Type (0, 0), BuildingBlock: TEMPAE_clean_linker_10, # of connection points: 2
#     Edge 36, Type (0, 0), BuildingBlock: TEMPAE_clean_linker_10, # of connection points: 2
#     Edge 37, Type (0, 0), BuildingBlock: TEMPAE_clean_linker_10, # of connection points: 2
#     Edge 38, Type (0, 0), BuildingBlock: TEMPAE_clean_linker_10, # of connection points: 2
#     Edge 39, Type (0, 0), BuildingBlock: TEMPAE_clean_linker_10, # of connection points: 2
#     Edge 40, Type (0, 0), BuildingBlock: TEMPAE_clean_linker_10, # of connection points: 2
#     Edge 41, Type (0, 0), BuildingBlock: TEMPAE_clean_linker_10, # of connection points: 2
#     Edge 42, Type (0, 0), BuildingBlock: TEMPAE_clean_linker_10, # of connection points: 2
#     Edge 43, Type (0, 0), BuildingBlock: TEMPAE_clean_linker_10, # of connection points: 2
#     Edge 44, Type (0, 0), BuildingBlock: TEMPAE_clean_linker_10, # of connection points: 2
#     Edge 45, Type (0, 0), BuildingBlock: TEMPAE_clean_linker_10, # of connection points: 2
#     Edge 46, Type (0, 0), BuildingBlock: TEMPAE_clean_linker_10, # of connection points: 2
#     Edge 47, Type (0, 0), BuildingBlock: TEMPAE_clean_linker_10, # of connection points: 2
#     Edge 48, Type (0, 0), BuildingBlock: TEMPAE_clean_linker_10, # of connection points: 2
#     Edge 49, Type (0, 0), BuildingBlock: TEMPAE_clean_linker_10, # of connection points: 2
#     Edge 50, Type (0, 0), BuildingBlock: TEMPAE_clean_linker_10, # of connection points: 2
#     Edge 51, Type (0, 0), BuildingBlock: TEMPAE_clean_linker_10, # of connection points: 2
#     Edge 52, Type (0, 0), BuildingBlock: TEMPAE_clean_linker_10, # of connection points: 2
#     Edge 53, Type (0, 0), BuildingBlock: TEMPAE_clean_linker_10, # of connection points: 2
#     Edge 54, Type (0, 0), BuildingBlock: TEMPAE_clean_linker_10, # of connection points: 2
#     Edge 55, Type (0, 0), BuildingBlock: TEMPAE_clean_linker_10, # of connection points: 2
#     Edge 56, Type (0, 0), BuildingBlock: TEMPAE_clean_linker_10, # of connection points: 2
#     Edge 57, Type (0, 0), BuildingBlock: TEMPAE_clean_linker_10, # of connection points: 2
#     Edge 58, Type (0, 0), BuildingBlock: TEMPAE_clean_linker_10, # of connection points: 2
#     Edge 59, Type (0, 0), BuildingBlock: TEMPAE_clean_linker_10, # of connection points: 2
#     Edge 60, Type (0, 0), BuildingBlock: TEMPAE_clean_linker_10, # of connection points: 2
#     Edge 61, Type (0, 0), BuildingBlock: TEMPAE_clean_linker_10, # of connection points: 2
#     Edge 62, Type (0, 0), BuildingBlock: TEMPAE_clean_linker_10, # of connection points: 2
#     Edge 63, Type (0, 0), BuildingBlock: TEMPAE_clean_linker_10, # of connection points: 2
# Relax obj value: 0.154
# Max RMSD: 0.222
# Mean RMSD: 0.190
data_MOF--net-crs--node1-CUKXOW_clean_sbu_0--edge1-TEMPAE_clean_linker_10
_symmetry_space_group_name_H-M    P1
_symmetry_Int_Tables_number       1
_symmetry_cell_setting            triclinic
loop_
_symmetry_equiv_pos_as_xyz
'x, y, z'
_cell_length_a     38.34201
_cell_length_b     44.702069
_cell_length_c     48.092596
_cell_angle_alpha  95.056142
_cell_angle_beta   93.976669
_cell_angle_gamma 93.120159
loop_
_atom_site_label
_atom_site_type_symbol
_atom_site_fract_x
_atom_site_fract_y
_atom_site_fract_z
_atom_type_partial_charge
Tb0 Tb 0.02941 0.99863 0.96962 0.0
C1 C 0.05059 0.00678 0.03349 0.0
Tb2 Tb 0.99619 0.04698 0.00358 0.0
O3 O 0.08077 0.0227 0.97594 0.0
O4 O 0.03527 0.04646 0.97449 0.0
O5 O 0.05049 0.98851 0.01031 0.0
C6 C 0.98593 0.09629 0.03648 0.0
O7 O 0.03295 0.0315 0.03512 0.0
C8 C 0.95901 0.99497 -0.00537 0.0
C9 C 0.97506 0.0393 0.9407 0.0
O10 O 0.9619 0.07561 0.02712 0.0
O11 O 0.01566 0.08904 0.02753 0.0
O12 O 0.94522 0.02085 -0.00254 0.0
O13 O 0.99159 0.99928 -0.00059 0.0
O14 O 0.98074 0.05943 0.96257 0.0
O15 O 0.9879 0.01227 0.94041 0.0
C16 C 0.04107 0.9487 0.93858 0.0
O17 O 0.02503 0.94976 0.96141 0.0
O18 O 0.05034 0.97575 0.93303 0.0
C19 C 0.06819 0.04907 0.97933 0.0
Tb20 Tb 0.96372 0.24488 0.26479 0.0
C21 C 0.03655 0.22784 0.24712 0.0
Tb22 Tb 0.99707 0.28102 0.22209 0.0
O23 O 0.96062 0.204 0.23634 0.0
O24 O 0.95753 0.24622 0.22095 0.0
O25 O 0.01579 0.22859 0.26798 0.0
C26 C 0.03335 0.30371 0.18305 0.0
O27 O 0.03174 0.24399 0.22549 0.0
C28 C 0.0008 0.30625 0.27332 0.0
C29 C 0.92224 0.2955 0.23634 0.0
O30 O 0.03836 0.31099 0.20969 0.0
O31 O 0.00744 0.28355 0.17811 0.0
O32 O 0.99742 0.32116 0.25148 0.0
O33 O 0.0039 0.27894 0.26586 0.0
O34 O 0.94431 0.29533 0.21626 0.0
O35 O 0.92695 0.28022 0.25873 0.0
C36 C 0.93877 0.22503 0.3101 0.0
O37 O 0.96393 0.24552 0.31001 0.0
O38 O 0.92669 0.2164 0.28464 0.0
C39 C 0.95947 0.21857 0.21415 0.0
Tb40 Tb 0.73248 0.28994 0.48293 0.0
C41 C 0.70874 0.29267 0.54449 0.0
Tb42 Tb 0.76693 0.25214 0.52375 0.0
O43 O 0.70091 0.2518 0.46105 0.0
O44 O 0.71611 0.25157 0.50332 0.0
O45 O 0.71097 0.30702 0.52167 0.0
C46 C 0.79201 0.20728 0.55031 0.0
O47 O 0.72394 0.26706 0.54737 0.0
C48 C 0.79753 0.30621 0.52269 0.0
C49 C 0.78809 0.24723 0.46175 0.0
O50 O 0.78781 0.23404 0.56178 0.0
O51 O 0.78139 0.20552 0.52406 0.0
O52 O 0.7989 0.29114 0.54447 0.0
O53 O 0.78336 0.28935 0.50241 0.0
O54 O 0.78538 0.23309 0.48457 0.0
O55 O 0.77459 0.27358 0.45918 0.0
C56 C 0.71326 0.33635 0.45563 0.0
O57 O 0.71187 0.30857 0.44511 0.0
O58 O 0.72533 0.33808 0.48159 0.0
C59 C 0.70259 0.23551 0.48206 0.0
Tb60 Tb 0.78553 0.03943 0.72523 0.0
C61 C 0.80643 0.97657 0.74288 0.0
Tb62 Tb 0.74655 0.01131 0.77187 0.0
O63 O 0.81324 0.07401 0.75522 0.0
O64 O 0.79604 0.03294 0.76775 0.0
O65 O 0.80709 0.99551 0.72313 0.0
C66 C 0.72517 0.98328 0.81454 0.0
O67 O 0.78774 0.98018 0.7651 0.0
C68 C 0.7141 0.00676 0.72182 0.0
C69 C 0.72878 0.07445 0.75646 0.0
O70 O 0.72391 0.97181 0.78874 0.0
O71 O 0.73853 0.01079 0.81646 0.0
O72 O 0.69766 0.00878 0.7445 0.0
O73 O 0.74608 0.00566 0.72814 0.0
O74 O 0.73297 0.05768 0.77766 0.0
O75 O 0.74257 0.0684 0.7322 0.0
C76 C 0.80401 0.05322 0.67562 0.0
O77 O 0.82594 0.04971 0.69681 0.0
O78 O 0.77217 0.04947 0.6827 0.0
C79 C 0.80908 0.05865 0.7766 0.0
Tb80 Tb 0.49627 0.76439 0.27073 0.0
C81 C 0.57312 0.75434 0.26262 0.0
Tb82 Tb 0.52852 0.79846 0.22808 0.0
O83 O 0.50413 0.72196 0.24607 0.0
O84 O 0.49341 0.7603 0.22612 0.0
O85 O 0.54988 0.75518 0.28159 0.0
C86 C 0.56409 0.81353 0.18545 0.0
O87 O 0.56791 0.76669 0.23874 0.0
C88 C 0.52338 0.83138 0.27513 0.0
C89 C 0.45067 0.80861 0.23743 0.0
O90 O 0.57219 0.82256 0.21155 0.0
O91 O 0.53537 0.79648 0.18325 0.0
O92 O 0.52274 0.84166 0.25071 0.0
O93 O 0.53057 0.80389 0.27281 0.0
O94 O 0.47521 0.81102 0.21947 0.0
O95 O 0.45465 0.79353 0.25985 0.0
C96 C 0.46405 0.7442 0.31323 0.0
O97 O 0.4587 0.7334 0.28733 0.0
O98 O 0.48718 0.76665 0.31519 0.0
C99 C 0.50106 0.73326 0.22216 0.0
Tb100 Tb 0.2425 0.78176 0.48323 0.0
C101 C 0.2359 0.78783 0.54822 0.0
Tb102 Tb 0.28047 0.7374 0.52143 0.0
O103 O 0.20837 0.74429 0.46228 0.0
O104 O 0.22934 0.74254 0.50306 0.0
O105 O 0.23662 0.80216 0.52521 0.0
C106 C 0.29127 0.68826 0.54697 0.0
O107 O 0.24673 0.76021 0.54973 0.0
C108 C 0.31884 0.78785 0.51818 0.0
C109 C 0.29714 0.73879 0.45823 0.0
O110 O 0.29675 0.71566 0.55852 0.0
O111 O 0.27974 0.68849 0.52094 0.0
O112 O 0.32942 0.76635 0.53271 0.0
O113 O 0.28937 0.77891 0.50683 0.0
O114 O 0.29656 0.72263 0.48011 0.0
O115 O 0.28152 0.76444 0.45685 0.0
C116 C 0.22295 0.8291 0.45794 0.0
O117 O 0.25084 0.81481 0.45355 0.0
O118 O 0.20528 0.81633 0.47625 0.0
C119 C 0.21263 0.72735 0.48271 0.0
Tb120 Tb 0.26347 0.51477 0.72722 0.0
C121 C 0.27121 0.44678 0.7365 0.0
Tb122 Tb 0.226 0.48687 0.77402 0.0
O123 O 0.30201 0.54044 0.75701 0.0
O124 O 0.27831 0.5 0.76689 0.0
O125 O 0.26952 0.4666 0.71753 0.0
C126 C 0.20897 0.4718 0.82373 0.0
O127 O 0.26164 0.45278 0.76226 0.0
C128 C 0.19203 0.47961 0.72437 0.0
C129 C 0.21908 0.55592 0.76616 0.0
O130 O 0.20086 0.4559 0.80004 0.0
O131 O 0.22644 0.49641 0.81941 0.0
O132 O 0.18538 0.46274 0.74423 0.0
O133 O 0.21191 0.50157 0.73476 0.0
O134 O 0.21224 0.53327 0.78136 0.0
O135 O 0.23717 0.5536 0.74362 0.0
C136 C 0.27427 0.53231 0.67698 0.0
O137 O 0.2986 0.52369 0.69424 0.0
O138 O 0.24463 0.53124 0.68824 0.0
C139 C 0.29758 0.52277 0.77678 0.0
Tb140 Tb 0.02174 0.48608 0.48163 0.0
C141 C 0.05124 0.50211 0.54298 0.0
Tb142 Tb 0.99546 0.54078 0.5127 0.0
O143 O 0.0743 0.50749 0.48132 0.0
O144 O 0.03047 0.53337 0.48108 0.0
O145 O 0.04236 0.47928 0.52378 0.0
C146 C 0.98783 0.59121 0.54466 0.0
O147 O 0.04 0.52937 0.54023 0.0
C148 C 0.95414 0.49209 0.51069 0.0
C149 C 0.966 0.52558 0.45059 0.0
O150 O 0.98145 0.56419 0.55147 0.0
O151 O -0.00159 0.59006 0.51958 0.0
O152 O 0.94305 0.51902 0.51186 0.0
O153 O 0.98713 0.49363 0.5134 0.0
O154 O 0.96871 0.54629 0.4723 0.0
O155 O 0.98358 0.50072 0.45014 0.0
C156 C 0.02358 0.43249 0.45279 0.0
O157 O 0.99694 0.44233 0.46512 0.0
O158 O 0.0493 0.45284 0.45677 0.0
C159 C 0.06354 0.53459 0.4832 0.0
Tb160 Tb 0.25102 0.2981 0.0008 0.0
C161 C 0.23061 0.29527 0.06275 0.0
Tb162 Tb 0.28132 0.2491 0.03497 0.0
O163 O 0.21813 0.2636 0.97347 0.0
O164 O 0.23283 0.25701 0.0146 0.0
O165 O 0.23161 0.31134 0.04088 0.0
C166 C 0.28618 0.19785 0.05831 0.0
O167 O 0.2467 0.26972 0.06447 0.0
C168 C 0.32378 0.29621 0.03021 0.0
C169 C 0.2998 0.25262 0.97313 0.0
O170 O 0.29625 0.22431 0.07079 0.0
O171 O 0.27384 0.20045 0.03291 0.0
O172 O 0.33484 0.26968 0.03356 0.0
O173 O 0.29137 0.29551 0.03239 0.0
O174 O 0.29356 0.23438 0.99267 0.0
O175 O 0.2899 0.28053 0.97446 0.0
C176 C 0.24094 0.3503 0.9803 0.0
O177 O 0.27103 0.33878 0.98422 0.0
O178 O 0.2162 0.33219 0.98766 0.0
C179 C 0.2179 0.2444 0.99229 0.0
Tb180 Tb 0.23191 0.00454 0.2181 0.0
C181 C 0.25243 0.94517 0.24023 0.0
Tb182 Tb 0.1941 0.98339 0.26799 0.0
O183 O 0.28063 0.01523 0.24469 0.0
O184 O 0.23197 0.01733 0.26122 0.0
O185 O 0.24667 0.95847 0.21689 0.0
C186 C 0.17726 0.96573 0.31691 0.0
O187 O 0.23821 0.95403 0.26385 0.0
C188 C 0.1614 0.96954 0.2189 0.0
C189 C 0.17452 0.04466 0.24596 0.0
O190 O 0.16821 0.95139 0.29263 0.0
O191 O 0.19618 0.98992 0.31367 0.0
O192 O 0.1453 0.9739 0.24166 0.0
O193 O 0.19387 0.97059 0.22481 0.0
O194 O 0.1714 0.02683 0.26645 0.0
O195 O 0.19524 0.03959 0.22528 0.0
C196 C 0.24423 0.02468 0.16896 0.0
O197 O 0.26806 0.01738 0.18725 0.0
O198 O 0.21365 0.02008 0.17822 0.0
C199 C 0.26431 0.01876 0.2674 0.0
Tb200 Tb 0.45979 0.23109 0.75997 0.0
C201 C 0.5393 0.21716 0.75402 0.0
Tb202 Tb 0.50442 0.26555 0.72097 0.0
O203 O 0.44533 0.18951 0.73273 0.0
O204 O 0.4758 0.22393 0.7193 0.0
O205 O 0.51227 0.21635 0.76985 0.0
C206 C 0.53193 0.28975 0.67836 0.0
O207 O 0.54015 0.2321 0.73149 0.0
C208 C 0.50957 0.2866 0.77416 0.0
C209 C 0.42398 0.2773 0.7228 0.0
O210 O 0.52923 0.3038 0.7028 0.0
O211 O 0.51961 0.26218 0.67815 0.0
O212 O 0.53513 0.28759 0.75785 0.0
O213 O 0.48215 0.2757 0.75991 0.0
O214 O 0.45283 0.28018 0.70937 0.0
O215 O 0.42154 0.26112 0.74454 0.0
C216 C 0.43241 0.21694 0.80638 0.0
O217 O 0.41622 0.21345 0.78158 0.0
O218 O 0.46389 0.22873 0.80509 0.0
C219 C 0.46215 0.19785 0.71191 0.0
Tb220 Tb 0.99009 0.74907 0.75935 0.0
C221 C 0.06616 0.72585 0.75292 0.0
Tb222 Tb 0.04363 0.78501 0.72992 0.0
O223 O 0.95951 0.73627 0.71961 0.0
O224 O 0.01369 0.74411 0.72105 0.0
O225 O 0.03777 0.72536 0.76723 0.0
C226 C 0.07642 0.81307 0.69198 0.0
O227 O 0.07129 0.7444 0.73336 0.0
C228 C 0.04713 0.79456 0.7843 0.0
C229 C 0.96761 0.80887 0.73676 0.0
O230 O 0.08524 0.81596 0.71865 0.0
O231 O 0.04952 0.79406 0.68672 0.0
O232 O 0.07423 0.79725 0.76972 0.0
O233 O 0.01997 0.79001 0.76801 0.0
O234 O 0.99712 0.81065 0.72392 0.0
O235 O 0.96094 0.7885 0.75438 0.0
C236 C 0.95579 0.72402 0.79835 0.0
O237 O 0.94969 0.71738 0.77158 0.0
O238 O 0.98131 0.74445 0.803 0.0
C239 C 0.98642 0.73938 0.70491 0.0
Tb240 Tb 0.76597 0.53715 0.2313 0.0
C241 C 0.76926 0.46748 0.23758 0.0
Tb242 Tb 0.72439 0.5086 0.27531 0.0
O243 O 0.80316 0.56086 0.26341 0.0
O244 O 0.77778 0.52014 0.27034 0.0
O245 O 0.77306 0.48935 0.22079 0.0
C246 C 0.70654 0.49315 0.32489 0.0
O247 O 0.75474 0.47111 0.26182 0.0
C248 C 0.69471 0.50075 0.22443 0.0
C249 C 0.71966 0.57839 0.26835 0.0
O250 O 0.68822 0.48616 0.30126 0.0
O251 O 0.73455 0.50905 0.32051 0.0
O252 O 0.68762 0.48326 0.24379 0.0
O253 O 0.71319 0.52357 0.23545 0.0
O254 O 0.7107 0.55531 0.28248 0.0
O255 O 0.74001 0.5763 0.24721 0.0
C256 C 0.78327 0.55687 0.18321 0.0
O257 O 0.75256 0.55708 0.19274 0.0
O258 O 0.80486 0.54551 0.20092 0.0
C259 C 0.79756 0.54186 0.28184 0.0
Tb260 Tb 0.7498 0.78778 0.98163 0.0
C261 C 0.73986 0.78565 0.04389 0.0
Tb262 Tb 0.7903 0.74368 0.01185 0.0
O263 O 0.6994 0.76402 0.98649 0.0
O264 O 0.74475 0.74041 0.98367 0.0
O265 O 0.74309 0.80422 0.02421 0.0
C266 C 0.81136 0.69958 0.04158 0.0
O267 O 0.7527 0.75864 0.04166 0.0
C268 C 0.82538 0.79431 0.00415 0.0
C269 C 0.79547 0.74174 0.94749 0.0
O270 O 0.81753 0.72811 0.04889 0.0
O271 O 0.79326 0.69594 0.01764 0.0
O272 O 0.83948 0.76857 0.0043 0.0
O273 O 0.79417 0.791 0.01035 0.0
O274 O 0.80129 0.72729 0.97003 0.0
O275 O 0.77736 0.76626 0.94757 0.0
C276 C 0.73817 0.83582 0.95441 0.0
O277 O 0.71387 0.81827 0.96304 0.0
O278 O 0.76857 0.82594 0.9606 0.0
C279 C 0.71287 0.7382 0.98871 0.0
Tb280 Tb 0.53034 0.00795 0.5043 0.0
C281 C 0.51065 0.98265 0.44334 0.0
Tb282 Tb 0.46519 0.02872 0.47811 0.0
O283 O 0.50812 0.9621 0.50133 0.0
O284 O 0.47585 0.99807 0.50826 0.0
O285 O 0.53784 0.99039 0.46162 0.0
C286 C 0.40455 0.03397 0.44886 0.0
O287 O 0.47944 0.99329 0.44696 0.0
C288 C 0.51978 0.06671 0.47931 0.0
C289 C 0.4842 0.05298 0.54003 0.0
O290 O 0.43267 0.05124 0.44858 0.0
O291 O 0.41031 0.01364 0.466 0.0
O292 O 0.48799 0.07459 0.4814 0.0
O293 O 0.5197 0.03848 0.47436 0.0
O294 O 0.45799 0.04803 0.52033 0.0
O295 O 0.5147 0.04067 0.53734 0.0
C296 C 0.59121 0.00332 0.53327 0.0
O297 O 0.56645 0.98235 0.52808 0.0
O298 O 0.58202 0.02696 0.5215 0.0
C299 C 0.47634 0.96985 0.50346 0.0
Tb300 Tb 0.52783 0.49153 0.97686 0.0
C301 C 0.55615 0.50619 0.03905 0.0
Tb302 Tb 0.49497 0.54292 0.01024 0.0
O303 O 0.57788 0.51777 0.97932 0.0
O304 O 0.53057 0.53937 0.97844 0.0
O305 O 0.55406 0.48513 0.01751 0.0
C306 C 0.48939 0.59276 0.04505 0.0
O307 O 0.53739 0.53038 0.03917 0.0
C308 C 0.4605 0.49017 0.0067 0.0
C309 C 0.46488 0.52704 0.94922 0.0
O310 O 0.46885 0.56848 0.04313 0.0
O311 O 0.51232 0.58936 0.02655 0.0
O312 O 0.44544 0.51555 0.00908 0.0
O313 O 0.49321 0.49536 0.00907 0.0
O314 O 0.46884 0.54915 0.96976 0.0
O315 O 0.48241 0.50221 0.94982 0.0
C316 C 0.5333 0.44241 0.94103 0.0
O317 O 0.5448 0.46966 0.93782 0.0
O318 O 0.52007 0.44255 0.96523 0.0
C319 C 0.56357 0.54353 0.98153 0.0
C320 C 0.01032 0.14036 0.06831 0.0
C321 C 0.98138 0.12144 0.05736 0.0
C322 C 0.00769 0.16102 0.09162 0.0
C323 C 0.97538 0.16248 0.10407 0.0
C324 C 0.94544 0.14512 0.09162 0.0
C325 C 0.94883 0.12473 0.06831 0.0
C326 C 0.04006 0.17947 0.10415 0.0
C327 C 0.91049 0.14626 0.10424 0.0
C328 C 0.9755 0.17572 0.18257 0.0
C329 C 0.96472 0.2051 0.18598 0.0
C330 C 0.98038 0.16207 0.15599 0.0
C331 C 0.97398 0.17821 0.13229 0.0
C332 C 0.96403 0.20825 0.13569 0.0
C333 C 0.95935 0.22137 0.16264 0.0
C334 C 0.99151 0.13008 0.15325 0.0
C335 C 0.95748 0.22619 0.11088 0.0
H336 H 0.03546 0.13798 0.05956 0.0
H337 H 0.92639 0.11026 0.0596 0.0
H338 H 0.03388 0.20301 0.11022 0.0
H339 H 0.05016 0.16985 0.12341 0.0
H340 H 0.06115 0.17967 0.08944 0.0
H341 H 0.889 0.13434 0.09012 0.0
H342 H 0.91196 0.13555 0.12422 0.0
H343 H 0.90385 0.1699 0.10908 0.0
H344 H 0.98009 0.16331 0.20073 0.0
H345 H 0.9509 0.24412 0.16541 0.0
H346 H 0.01506 0.12857 0.14117 0.0
H347 H 0.97031 0.11515 0.14161 0.0
H348 H 0.99754 0.12147 0.17392 0.0
H349 H 0.97974 0.22505 0.09734 0.0
H350 H 0.95362 0.25019 0.11735 0.0
H351 H 0.93377 0.21642 0.09804 0.0
C352 C 0.83072 0.21099 0.44444 0.0
C353 C 0.80981 0.23518 0.43999 0.0
C354 C 0.85399 0.20149 0.42475 0.0
C355 C 0.85622 0.21673 0.40037 0.0
C356 C 0.8339 0.24016 0.39519 0.0
C357 C 0.81089 0.24903 0.41508 0.0
C358 C 0.87721 0.17626 0.43071 0.0
C359 C 0.83535 0.25685 0.36922 0.0
C360 C 0.93466 0.23153 0.36115 0.0
C361 C 0.92329 0.21624 0.33523 0.0
C362 C 0.91494 0.22892 0.38423 0.0
C363 C 0.8835 0.21046 0.38097 0.0
C364 C 0.87465 0.19187 0.35587 0.0
C365 C 0.89467 0.19518 0.33301 0.0
C366 C 0.92536 0.24892 0.41081 0.0
C367 C 0.84182 0.17129 0.35204 0.0
H368 H 0.82977 0.20009 0.46366 0.0
H369 H 0.79438 0.26742 0.41137 0.0
H370 H 0.87999 0.16127 0.41145 0.0
H371 H 0.90374 0.18588 0.43848 0.0
H372 H 0.86694 0.16258 0.44689 0.0
H373 H 0.81512 0.27366 0.36797 0.0
H374 H 0.86147 0.26879 0.36903 0.0
H375 H 0.83154 0.24079 0.35017 0.0
H376 H 0.95732 0.24739 0.36288 0.0
H377 H 0.88649 0.18286 0.31297 0.0
H378 H 0.9212 0.23671 0.42951 0.0
H379 H 0.90878 0.26853 0.41175 0.0
H380 H 0.95321 0.25751 0.41174 0.0
H381 H 0.8373 0.16034 0.37141 0.0
H382 H 0.84308 0.15362 0.33445 0.0
H383 H 0.81896 0.18469 0.34732 0.0
C384 C 0.78574 0.06694 0.62863 0.0
C385 C 0.81267 0.06537 0.64948 0.0
C386 C 0.78965 0.08587 0.60735 0.0
C387 C 0.82127 0.10372 0.60727 0.0
C388 C 0.85027 0.09881 0.62582 0.0
C389 C 0.84556 0.07964 0.64704 0.0
C390 C 0.75807 0.08957 0.58766 0.0
C391 C 0.88498 0.11623 0.6253 0.0
C392 C 0.81685 0.15703 0.55055 0.0
C393 C 0.80438 0.18226 0.56519 0.0
C394 C 0.8257 0.13191 0.56448 0.0
C395 C 0.82046 0.13187 0.59329 0.0
C396 C 0.80939 0.15798 0.60831 0.0
C397 C 0.80203 0.18308 0.59407 0.0
C398 C 0.83857 0.10489 0.54806 0.0
C399 C 0.803 0.15879 0.63903 0.0
H400 H 0.76048 0.05541 0.63029 0.0
H401 H 0.86665 0.07791 0.66293 0.0
H402 H 0.74189 0.10685 0.59748 0.0
H403 H 0.76533 0.09683 0.56731 0.0
H404 H 0.74169 0.06815 0.5836 0.0
H405 H 0.90667 0.10437 0.63513 0.0
H406 H 0.89079 0.12 0.60354 0.0
H407 H 0.88403 0.13856 0.63719 0.0
H408 H 0.81911 0.15673 0.52818 0.0
H409 H 0.79254 0.20277 0.60529 0.0
H410 H 0.81656 0.08773 0.54279 0.0
H411 H 0.85926 0.09447 0.56057 0.0
H412 H 0.84907 0.11095 0.5282 0.0
H413 H 0.78171 0.14182 0.6421 0.0
H414 H 0.79545 0.1812 0.64767 0.0
H415 H 0.82686 0.15304 0.6513 0.0
C416 C 0.93095 0.07116 0.91973 0.0
C417 C 0.95272 0.04703 0.91658 0.0
C418 C 0.9075 0.07755 0.89775 0.0
C419 C 0.90623 0.05961 0.87197 0.0
C420 C 0.92915 0.03602 0.86826 0.0
C421 C 0.95199 0.02983 0.89076 0.0
C422 C 0.88294 0.10248 0.90256 0.0
C423 C 0.92872 0.01665 0.84084 0.0
C424 C 0.82346 0.04592 0.82474 0.0
C425 C 0.83053 0.06389 0.80321 0.0
C426 C 0.84699 0.04578 0.84819 0.0
C427 C 0.87882 0.06356 0.84968 0.0
C428 C 0.88534 0.08305 0.82871 0.0
C429 C 0.86078 0.08322 0.80571 0.0
C430 C 0.83869 0.02517 0.87045 0.0
C431 C 0.91923 0.10206 0.82955 0.0
H432 H 0.9313 0.08447 0.93972 0.0
H433 H 0.96899 0.01134 0.88819 0.0
H434 H 0.88371 0.1177 0.88558 0.0
H435 H 0.85568 0.09267 0.9022 0.0
H436 H 0.88941 0.11602 0.92295 0.0
H437 H 0.95043 1.00117 0.84057 0.0
H438 H 0.90353 0.00297 0.83708 0.0
H439 H 0.93073 0.03097 0.82325 0.0
H440 H 0.80027 0.03084 0.82263 0.0
H441 H 0.86637 0.09697 0.78888 0.0
H442 H 0.84328 0.03741 0.89159 0.0
H443 H 0.85626 0.00625 0.86954 0.0
H444 H 0.81114 0.01566 0.86776 0.0
H445 H 0.92515 0.11453 0.85047 0.0
H446 H 0.91855 0.11843 0.81346 0.0
H447 H 0.94104 0.08722 0.8258 0.0
C448 C 0.07143 0.96793 0.06336 0.0
C449 C 0.0689 0.99833 0.05905 0.0
C450 C 0.08649 0.95959 0.08864 0.0
C451 C 0.09996 0.98228 0.10956 0.0
C452 C 0.0985 0.01302 0.10487 0.0
C453 C 0.0825 0.02069 0.07971 0.0
C454 C 0.08695 0.92665 0.09335 0.0
C455 C 0.11296 0.03785 0.12664 0.0
C456 C 0.10871 0.97127 0.18639 0.0
C457 C 0.14471 0.96807 0.19051 0.0
C458 C 0.09326 0.97392 0.15959 0.0
C459 C 0.11467 0.97414 0.1368 0.0
C460 C 0.15076 0.96936 0.1407 0.0
C461 C 0.1652 0.96558 0.16756 0.0
C462 C 0.05443 0.97805 0.15594 0.0
C463 C 0.1746 0.97056 0.11705 0.0
H464 H 0.06049 0.95069 0.04739 0.0
H465 H 0.08062 0.04421 0.0762 0.0
H466 H 0.11411 0.92064 0.09878 0.0
H467 H 0.0714 0.92207 0.1113 0.0
H468 H 0.07602 0.91182 0.07467 0.0
H469 H 0.1155 0.05995 0.11783 0.0
H470 H 0.09517 0.03989 0.14386 0.0
H471 H 0.13896 0.03263 0.1359 0.0
H472 H 0.09281 0.97267 0.20419 0.0
H473 H 0.19294 0.96232 0.1708 0.0
H474 H 0.04222 0.96324 0.13773 0.0
H475 H 0.05011 1.00163 0.15174 0.0
H476 H 0.04086 0.9731 0.17484 0.0
H477 H 0.16356 0.95576 0.09845 0.0
H478 H 0.20134 0.96379 0.12306 0.0
H479 H 0.17677 0.99387 0.1108 0.0
C480 C 0.05013 0.40106 0.41581 0.0
C481 C 0.02216 0.40581 0.43252 0.0
C482 C 0.04642 0.37998 0.39233 0.0
C483 C 0.01402 0.36326 0.38567 0.0
C484 C 0.98687 0.36593 0.40407 0.0
C485 C 0.99123 0.38739 0.42733 0.0
C486 C 0.07608 0.37762 0.37331 0.0
C487 C 0.95227 0.34796 0.398 0.0
C488 C 0.99152 0.34897 0.3078 0.0
C489 C 0.00164 0.31958 0.30237 0.0
C490 C 0.99406 0.36296 0.33511 0.0
C491 C 0.00696 0.34703 0.35747 0.0
C492 C 0.01581 0.31684 0.35223 0.0
C493 C 0.01339 0.30353 0.32458 0.0
C494 C 0.98417 0.39518 0.33985 0.0
C495 C 0.02901 0.29901 0.3756 0.0
H496 H 0.07416 0.41516 0.42001 0.0
H497 H 0.9697 0.39087 0.44051 0.0
H498 H 0.08088 0.35372 0.3675 0.0
H499 H 0.0689 0.38792 0.3537 0.0
H500 H 0.1008 0.38927 0.38317 0.0
H501 H 0.93664 0.34849 0.41664 0.0
H502 H 0.93681 0.35746 0.38088 0.0
H503 H 0.95633 0.32419 0.39091 0.0
H504 H 0.98214 0.36126 0.29059 0.0
H505 H 0.0216 0.28087 0.32028 0.0
H506 H 0.00769 0.40982 0.34783 0.0
H507 H 0.9648 0.39719 0.3559 0.0
H508 H 0.97287 0.40377 0.3204 0.0
H509 H 0.05583 0.3078 0.38344 0.0
H510 H 0.02981 0.27471 0.36862 0.0
H511 H 0.01218 0.30145 0.39343 0.0
C512 C 0.65953 0.32336 0.55914 0.0
C513 C 0.68487 0.30301 0.56546 0.0
C514 C 0.63304 0.32926 0.57717 0.0
C515 C 0.63218 0.31442 0.6019 0.0
C516 C 0.65949 0.29596 0.6095 0.0
C517 C 0.68551 0.29046 0.59112 0.0
C518 C 0.60464 0.34943 0.56866 0.0
C519 C 0.65975 0.28003 0.63596 0.0
C520 C 0.57431 0.32675 0.66136 0.0
C521 C 0.55143 0.30109 0.656 0.0
C522 C 0.59906 0.33344 0.64234 0.0
C523 C 0.60053 0.31392 0.6177 0.0
C524 C 0.57485 0.28993 0.61093 0.0
C525 C 0.55058 0.28376 0.6303 0.0
C526 C 0.62565 0.35952 0.64995 0.0
C527 C 0.57523 0.26884 0.58462 0.0
H528 H 0.65915 0.33341 0.53942 0.0
H529 H 0.70552 0.27523 0.59635 0.0
H530 H 0.5813 0.33537 0.55933 0.0
H531 H 0.59653 0.36342 0.58704 0.0
H532 H 0.61322 0.36445 0.55289 0.0
H533 H 0.68467 0.2691 0.64017 0.0
H534 H 0.65572 0.29607 0.65423 0.0
H535 H 0.63792 0.26244 0.63406 0.0
H536 H 0.57461 0.34031 0.68123 0.0
H537 H 0.53239 0.26418 0.62606 0.0
H538 H 0.6319 0.371 0.63121 0.0
H539 H 0.65028 0.35102 0.65885 0.0
H540 H 0.61627 0.37621 0.66581 0.0
H541 H 0.57843 0.28168 0.56617 0.0
H542 H 0.55087 0.25397 0.58072 0.0
H543 H 0.59779 0.25443 0.58658 0.0
C544 C 0.70856 0.93509 0.83288 0.0
C545 C 0.71797 0.96584 0.83815 0.0
C546 C 0.70763 0.9166 0.85478 0.0
C547 C 0.71575 0.9294 0.88261 0.0
C548 C 0.72241 0.96089 0.88822 0.0
C549 C 0.7238 0.97882 0.86576 0.0
C550 C 0.70087 0.88305 0.84788 0.0
C551 C 0.73021 0.97537 0.9177 0.0
C552 C 0.6994 0.87328 0.9353 0.0
C553 C 0.73266 0.86214 0.93889 0.0
C554 C 0.69386 0.89706 0.91865 0.0
C555 C 0.72212 0.90913 0.90487 0.0
C556 C 0.75609 0.89881 0.90958 0.0
C557 C 0.761 0.87562 0.92685 0.0
C558 C 0.6576 0.9083 0.91479 0.0
C559 C 0.78688 0.91096 0.89508 0.0
H560 H 0.70382 0.92512 0.81148 0.0
H561 H 0.73086 0.00271 0.86978 0.0
H562 H 0.72516 0.87156 0.85293 0.0
H563 H 0.68041 0.87416 0.86068 0.0
H564 H 0.69244 0.87704 0.82542 0.0
H565 H 0.72704 1.0 0.91898 0.0
H566 H 0.71286 0.96513 0.93228 0.0
H567 H 0.75764 0.97173 0.92492 0.0
H568 H 0.67763 0.86309 0.94507 0.0
H569 H 0.78684 0.86718 0.92996 0.0
H570 H 0.64571 0.90018 0.8936 0.0
H571 H 0.65882 0.93326 0.91642 0.0
H572 H 0.64017 0.90031 0.93048 0.0
H573 H 0.81161 0.90065 0.90132 0.0
H574 H 0.7907 0.93567 0.89997 0.0
H575 H 0.78165 0.90653 0.87205 0.0
C576 C 0.20017 0.28593 0.10558 0.0
C577 C 0.20615 0.30407 0.08389 0.0
C578 C 0.17192 0.29042 0.12207 0.0
C579 C 0.14921 0.31347 0.11652 0.0
C580 C 0.15649 0.33315 0.096 0.0
C581 C 0.1851 0.32836 0.08003 0.0
C582 C 0.16524 0.26943 0.14434 0.0
C583 C 0.13279 0.35798 0.08962 0.0
C584 C 0.05765 0.29562 0.13673 0.0
C585 C 0.05893 0.31135 0.16324 0.0
C586 C 0.08635 0.29757 0.12037 0.0
C587 C 0.11669 0.31557 0.13106 0.0
C588 C 0.11692 0.33329 0.15688 0.0
C589 C 0.08782 0.33105 0.17267 0.0
C590 C 0.08512 0.27873 0.09262 0.0
C591 C 0.14884 0.35271 0.16887 0.0
H592 H 0.21648 0.2673 0.10884 0.0
H593 H 0.18968 0.34273 0.06348 0.0
H594 H 0.1615 0.28248 0.16451 0.0
H595 H 0.1408 0.25523 0.13819 0.0
H596 H 0.18702 0.25442 0.14763 0.0
H597 H 0.14435 0.37343 0.07538 0.0
H598 H 0.10743 0.34794 0.07952 0.0
H599 H 0.12709 0.37131 0.10916 0.0
H600 H 0.03519 0.28042 0.12951 0.0
H601 H 0.08862 0.34334 0.1932 0.0
H602 H 0.10313 0.26026 0.09426 0.0
H603 H 0.09406 0.29254 0.0761 0.0
H604 H 0.05838 0.26864 0.086 0.0
H605 H 0.1697 0.3381 0.17567 0.0
H606 H 0.14306 0.36809 0.18719 0.0
H607 H 0.15938 0.36634 0.15282 0.0
C608 C 0.73028 0.47713 0.37001 0.0
C609 C 0.70157 0.4786 0.35065 0.0
C610 C 0.72913 0.4571 0.39077 0.0
C611 C 0.69811 0.43889 0.39255 0.0
C612 C 0.66778 0.44296 0.3751 0.0
C613 C 0.67004 0.46248 0.35393 0.0
C614 C 0.76235 0.45319 0.40852 0.0
C615 C 0.63382 0.42489 0.37723 0.0
C616 C 0.71072 0.3595 0.41083 0.0
C617 C 0.70667 0.36211 0.43958 0.0
C618 C 0.70785 0.38441 0.39534 0.0
C619 C 0.69938 0.41227 0.40883 0.0
C620 C 0.69378 0.41468 0.4377 0.0
C621 C 0.69823 0.38959 0.45294 0.0
C622 C 0.71508 0.38111 0.36475 0.0
C623 C 0.68371 0.44378 0.45249 0.0
H624 H 0.75464 0.48977 0.36754 0.0
H625 H 0.6477 0.46396 0.33911 0.0
H626 H 0.75688 0.44904 0.43022 0.0
H627 H 0.77528 0.43339 0.39936 0.0
H628 H 0.781 0.4732 0.40929 0.0
H629 H 0.61131 0.43494 0.36649 0.0
H630 H 0.63567 0.40171 0.36735 0.0
H631 H 0.62856 0.42321 0.39946 0.0
H632 H 0.71757 0.33822 0.40065 0.0
H633 H 0.69501 0.39142 0.47524 0.0
H634 H 0.73683 0.39731 0.36093 0.0
H635 H 0.69166 0.38639 0.35166 0.0
H636 H 0.72223 0.35806 0.35771 0.0
H637 H 0.70571 0.46106 0.4532 0.0
H638 H 0.67696 0.44107 0.47426 0.0
H639 H 0.66097 0.45241 0.44081 0.0
C640 C 0.63579 0.03029 0.56777 0.0
C641 C 0.61833 0.00326 0.55621 0.0
C642 C 0.65454 0.03185 0.59397 0.0
C643 C 0.65548 0.00578 0.60865 0.0
C644 C 0.63989 0.97801 0.5961 0.0
C645 C 0.62171 0.97706 0.56983 0.0
C646 C 0.67107 0.06182 0.60665 0.0
C647 C 0.64006 0.94982 0.61129 0.0
C648 C 0.71916 0.99921 0.67079 0.0
C649 C 0.69873 0.00675 0.69311 0.0
C650 C 0.70594 1.00022 0.64312 0.0
C651 C 0.67093 0.00761 0.63777 0.0
C652 C 0.64994 0.01486 0.66025 0.0
C653 C 0.66427 0.01456 0.68783 0.0
C654 C 0.72928 0.99296 0.61969 0.0
C655 C 0.61223 0.02239 0.65518 0.0
H656 H 0.63299 0.05059 0.55723 0.0
H657 H 0.60815 0.95616 0.56079 0.0
H658 H 0.69632 0.05909 0.61858 0.0
H659 H 0.67554 0.07751 0.5904 0.0
H660 H 0.65335 0.0723 0.62145 0.0
H661 H 0.62808 0.92979 0.59801 0.0
H662 H 0.66721 0.94517 0.61834 0.0
H663 H 0.62526 0.95306 0.63025 0.0
H664 H 0.74571 0.99266 0.67496 0.0
H665 H 0.64858 0.02036 0.7052 0.0
H666 H 0.72683 0.00945 0.60381 0.0
H667 H 0.72115 0.9704 0.60904 0.0
H668 H 0.75726 0.99295 0.62747 0.0
H669 H 0.6107 0.04219 0.64289 0.0
H670 H 0.59951 0.02738 0.67499 0.0
H671 H 0.59715 0.00328 0.6427 0.0
C672 C 0.0535 0.92344 0.89298 0.0
C673 C 0.04565 0.92127 0.92066 0.0
C674 C 0.05484 0.89759 0.87466 0.0
C675 C 0.04917 0.86894 0.88464 0.0
C676 C 0.04298 0.86662 0.91304 0.0
C677 C 0.04067 0.89299 0.9307 0.0
C678 C 0.06092 0.90104 0.84434 0.0
C679 C 0.03764 0.83655 0.92465 0.0
C680 C 0.01513 0.81471 0.82403 0.0
C681 C 0.04673 0.80628 0.81366 0.0
C682 C 0.01507 0.83279 0.84923 0.0
C683 C 0.04737 0.84201 0.86438 0.0
C684 C 0.07875 0.83002 0.8559 0.0
C685 C 0.07815 0.81251 0.83024 0.0
C686 C 0.98098 0.84489 0.85775 0.0
C687 C 0.11333 0.83809 0.87249 0.0
H688 H 0.05725 0.94541 0.88534 0.0
H689 H 0.03476 0.89147 0.95227 0.0
H690 H 0.08449 0.8894 0.83843 0.0
H691 H 0.03828 0.89048 0.83063 0.0
H692 H 0.06456 0.92499 0.84006 0.0
H693 H 0.04419 0.83837 0.94763 0.0
H694 H 0.00974 0.82842 0.92071 0.0
H695 H 0.05378 0.81945 0.91454 0.0
H696 H 0.99071 0.80937 0.81137 0.0
H697 H 0.10247 0.80524 0.82244 0.0
H698 H 0.98052 0.86893 0.85367 0.0
H699 H 0.97848 0.84362 0.88044 0.0
H700 H 0.95792 0.83243 0.84596 0.0
H701 H 0.12304 0.86101 0.86838 0.0
H702 H 0.13341 0.82214 0.86665 0.0
H703 H 0.11023 0.83827 0.89528 0.0
C704 C 0.12663 0.0774 0.98279 0.0
C705 C 0.09 0.07781 0.98212 0.0
C706 C 0.14793 0.10422 0.9845 0.0
C707 C 0.13231 0.13227 0.98607 0.0
C708 C 0.09535 0.13282 0.98602 0.0
C709 C 0.07462 0.10559 0.98366 0.0
C710 C 0.18716 0.10251 0.98426 0.0
C711 C 0.07767 0.16219 0.9885 0.0
C712 C 0.18989 0.20186 0.01481 0.0
C713 C 0.1967 0.21544 0.99035 0.0
C714 C 0.16888 0.17496 0.01376 0.0
C715 C 0.15465 0.16096 0.98755 0.0
C716 C 0.16192 0.17435 0.96273 0.0
C717 C 0.18261 0.20158 0.96445 0.0
C718 C 0.16165 0.16171 0.04077 0.0
C719 C 0.14796 0.15982 0.93433 0.0
H720 H 0.13871 0.05601 0.98159 0.0
H721 H 0.04636 0.10606 0.98295 0.0
H722 H 0.19674 0.11386 0.96638 0.0
H723 H 0.20035 0.11449 0.00366 0.0
H724 H 0.19518 0.07895 0.98258 0.0
H725 H 0.04887 0.1588 0.98949 0.0
H726 H 0.0886 0.17626 0.00761 0.0
H727 H 0.08288 0.17495 0.97031 0.0
H728 H 0.20058 0.21256 0.03493 0.0
H729 H 0.18793 0.21194 0.94552 0.0
H730 H 0.17201 0.13903 0.04086 0.0
H731 H 0.13298 0.15899 0.04259 0.0
H732 H 0.17371 0.1759 0.05946 0.0
H733 H 0.15678 0.1366 0.93127 0.0
H734 H 0.1567 0.17262 0.91702 0.0
H735 H 0.11891 0.1581 0.93302 0.0
C736 C 0.66823 0.60685 0.28091 0.0
C737 C 0.70313 0.60703 0.27408 0.0
C738 C 0.65002 0.63323 0.28139 0.0
C739 C 0.66755 0.66051 0.27575 0.0
C740 C 0.70355 0.66118 0.27087 0.0
C741 C 0.72079 0.63427 0.26961 0.0
C742 C 0.61142 0.63143 0.28603 0.0
C743 C 0.72338 0.69001 0.26567 0.0
C744 C 0.61015 0.71569 0.24227 0.0
C745 C 0.60173 0.73401 0.26569 0.0
C746 C 0.63229 0.69209 0.24521 0.0
C747 C 0.64726 0.68743 0.27213 0.0
C748 C 0.64061 0.70714 0.29561 0.0
C749 C 0.61728 0.7299 0.29218 0.0
C750 C 0.63786 0.67107 0.21975 0.0
C751 C 0.65702 0.70345 0.32445 0.0
H752 H 0.65448 0.58572 0.28409 0.0
H753 H 0.74791 0.6344 0.26452 0.0
H754 H 0.60566 0.64855 0.30294 0.0
H755 H 0.59613 0.63635 0.26668 0.0
H756 H 0.60218 0.6089 0.29161 0.0
H757 H 0.75211 0.6876 0.26638 0.0
H758 H 0.71464 0.69672 0.24477 0.0
H759 H 0.71791 0.7085 0.28143 0.0
H760 H 0.5976 0.71854 0.22183 0.0
H761 H 0.61065 0.74411 0.31027 0.0
H762 H 0.62715 0.64806 0.22263 0.0
H763 H 0.66623 0.6697 0.21706 0.0
H764 H 0.62495 0.67829 0.20025 0.0
H765 H 0.64524 0.68289 0.3323 0.0
H766 H 0.65312 0.72298 0.33962 0.0
H767 H 0.68553 0.70061 0.3237 0.0
C768 C 0.37016 0.82422 0.53106 0.0
C769 C 0.33763 0.81722 0.51622 0.0
C770 C 0.38895 0.85162 0.52877 0.0
C771 C 0.37509 0.87228 0.51083 0.0
C772 C 0.34183 0.86557 0.49629 0.0
C773 C 0.32337 0.83823 0.49946 0.0
C774 C 0.42409 0.85811 0.54501 0.0
C775 C 0.3263 0.88669 0.47662 0.0
C776 C 0.4199 0.95098 0.52071 0.0
C777 C 0.44632 0.94776 0.50222 0.0
C778 C 0.39525 0.92696 0.52297 0.0
C779 C 0.39684 0.89963 0.50582 0.0
C780 C 0.42187 0.8974 0.48556 0.0
C781 C 0.44662 0.92135 0.48432 0.0
C782 C 0.36915 0.9301 0.54496 0.0
C783 C 0.42384 0.8691 0.46625 0.0
H784 H 0.38111 0.80814 0.54431 0.0
H785 H 0.29797 0.83311 0.48853 0.0
H786 H 0.44511 0.85862 0.53029 0.0
H787 H 0.42508 0.88055 0.55701 0.0
H788 H 0.42978 0.84096 0.5598 0.0
H789 H 0.29884 0.87952 0.469 0.0
H790 H 0.32693 0.90987 0.48705 0.0
H791 H 0.34221 0.88753 0.45826 0.0
H792 H 0.41988 0.97145 0.5346 0.0
H793 H 0.46696 0.91911 0.46979 0.0
H794 H 0.37624 0.91583 0.56199 0.0
H795 H 0.34248 0.92215 0.53601 0.0
H796 H 0.3685 0.95372 0.5542 0.0
H797 H 0.43351 0.8509 0.47846 0.0
H798 H 0.44171 0.87244 0.4494 0.0
H799 H 0.39748 0.86134 0.45646 0.0
C800 C 0.10188 0.68513 0.73521 0.0
C801 C 0.09187 0.70372 0.75777 0.0
C802 C 0.12497 0.66258 0.73965 0.0
C803 C 0.13925 0.65961 0.76717 0.0
C804 C 0.13034 0.67937 0.78986 0.0
C805 C 0.10599 0.70089 0.78493 0.0
C806 C 0.13303 0.64129 0.71506 0.0
C807 C 0.14619 0.67754 0.81924 0.0
C808 C 0.16624 0.58161 0.7786 0.0
C809 C 0.20112 0.58361 0.77181 0.0
C810 C 0.14603 0.6067 0.77838 0.0
C811 C 0.16165 0.63451 0.77219 0.0
C812 C 0.19773 0.63718 0.76769 0.0
C813 C 0.21697 0.61141 0.76696 0.0
C814 C 0.10738 0.60277 0.78245 0.0
C815 C 0.21548 0.66681 0.76212 0.0
H816 H 0.0906 0.68754 0.71426 0.0
H817 H 0.09826 0.71574 0.8022 0.0
H818 H 0.1616 0.6423 0.71263 0.0
H819 H 0.12508 0.61783 0.71883 0.0
H820 H 0.11933 0.64654 0.69511 0.0
H821 H 0.13923 0.69652 0.83391 0.0
H822 H 0.13693 0.65615 0.82713 0.0
H823 H 0.17515 0.67758 0.81933 0.0
H824 H 0.15398 0.55994 0.78203 0.0
H825 H 0.24409 0.61281 0.76188 0.0
H826 H 0.09206 0.60577 0.76255 0.0
H827 H 0.09975 0.62009 0.79846 0.0
H828 H 0.09991 0.5802 0.78893 0.0
H829 H 0.20727 0.67214 0.74063 0.0
H830 H 0.24448 0.66623 0.76399 0.0
H831 H 0.20767 0.6853 0.7769 0.0
C832 C 0.83368 0.35145 0.54402 0.0
C833 C 0.81926 0.33388 0.52003 0.0
C834 C 0.85552 0.37724 0.54188 0.0
C835 C 0.86355 0.38526 0.51509 0.0
C836 C 0.84898 0.36756 0.49077 0.0
C837 C 0.82666 0.34222 0.49354 0.0
C838 C 0.87003 0.39588 0.56827 0.0
C839 C 0.85735 0.37514 0.46188 0.0
C840 C 0.89484 0.46629 0.50921 0.0
C841 C 0.93128 0.46449 0.51083 0.0
C842 C 0.87246 0.44061 0.5103 0.0
C843 C 0.88692 0.4124 0.51263 0.0
C844 C 0.92373 0.41035 0.5136 0.0
C845 C 0.94552 0.43654 0.51309 0.0
C846 C 0.83338 0.44378 0.50951 0.0
C847 C 0.94008 0.38056 0.51547 0.0
H848 H 0.82782 0.34504 0.56449 0.0
H849 H 0.81559 0.32858 0.47494 0.0
H850 H 0.89907 0.39652 0.56972 0.0
H851 H 0.86235 0.41941 0.5677 0.0
H852 H 0.86064 0.38694 0.58743 0.0
H853 H 0.84433 0.35876 0.44513 0.0
H854 H 0.84895 0.39792 0.45827 0.0
H855 H 0.88608 0.37551 0.46009 0.0
H856 H 0.88376 0.48791 0.50746 0.0
H857 H 0.97371 0.43517 0.5147 0.0
H858 H 0.82311 0.43639 0.52897 0.0
H859 H 0.82 0.42906 0.49173 0.0
H860 H 0.82634 0.46729 0.50739 0.0
H861 H 0.9344 0.37144 0.5355 0.0
H862 H 0.96893 0.38254 0.51423 0.0
H863 H 0.92856 0.364 0.49829 0.0
C864 C 0.27962 0.90196 0.21592 0.0
C865 C 0.27737 0.92136 0.24014 0.0
C866 C 0.30581 0.88131 0.21441 0.0
C867 C 0.33092 0.88086 0.23734 0.0
C868 C 0.32837 0.90014 0.26205 0.0
C869 C 0.30122 0.9199 0.2633 0.0
C870 C 0.30711 0.86052 0.18804 0.0
C871 C 0.35514 0.9008 0.28671 0.0
C872 C 0.38779 0.81486 0.24474 0.0
C873 C 0.41885 0.82535 0.23413 0.0
C874 C 0.35847 0.83226 0.24501 0.0
C875 C 0.36068 0.86112 0.2351 0.0
C876 C 0.39178 0.87155 0.22381 0.0
C877 C 0.42041 0.85333 0.22314 0.0
C878 C 0.32545 0.82007 0.25652 0.0
C879 C 0.39532 0.90247 0.21356 0.0
H880 H 0.26104 0.90313 0.19805 0.0
H881 H 0.2997 0.93528 0.28187 0.0
H882 H 0.33108 0.86626 0.17749 0.0
H883 H 0.30845 0.83689 0.19326 0.0
H884 H 0.28397 0.86197 0.1731 0.0
H885 H 0.34924 0.917 0.3044 0.0
H886 H 0.3563 0.87811 0.29425 0.0
H887 H 0.38152 0.90718 0.28017 0.0
H888 H 0.38658 0.79316 0.25319 0.0
H889 H 0.44461 0.86162 0.21531 0.0
H890 H 0.30261 0.82153 0.24132 0.0
H891 H 0.32047 0.83386 0.27601 0.0
H892 H 0.3271 0.7963 0.26129 0.0
H893 H 0.37429 0.90499 0.19706 0.0
H894 H 0.42106 0.90699 0.20498 0.0
H895 H 0.39229 0.91983 0.23105 0.0
C896 C 0.28329 0.4025 0.704 0.0
C897 C 0.28854 0.4188 0.73031 0.0
C898 C 0.30033 0.37584 0.69836 0.0
C899 C 0.32406 0.3663 0.7192 0.0
C900 C 0.32927 0.38283 0.74581 0.0
C901 C 0.31094 0.40861 0.75116 0.0
C902 C 0.29327 0.35811 0.67016 0.0
C903 C 0.35512 0.37394 0.76839 0.0
C904 C 0.36164 0.29072 0.72417 0.0
C905 C 0.39542 0.29675 0.71587 0.0
C906 C 0.33638 0.31216 0.72241 0.0
C907 C 0.34572 0.34046 0.71307 0.0
C908 C 0.37889 0.34568 0.70265 0.0
C909 C 0.40319 0.32353 0.70381 0.0
C910 C 0.30072 0.30541 0.73263 0.0
C911 C 0.39024 0.3758 0.69314 0.0
H912 H 0.26559 0.4104 0.68804 0.0
H913 H 0.31511 0.42145 0.77145 0.0
H914 H 0.31686 0.35963 0.65814 0.0
H915 H 0.28749 0.33397 0.67279 0.0
H916 H 0.27098 0.36647 0.65766 0.0
H917 H 0.35636 0.38959 0.78775 0.0
H918 H 0.34784 0.35096 0.77386 0.0
H919 H 0.3817 0.37358 0.76062 0.0
H920 H 0.35538 0.2698 0.73307 0.0
H921 H 0.42926 0.32833 0.6973 0.0
H922 H 0.27994 0.31443 0.71908 0.0
H923 H 0.29965 0.31642 0.75413 0.0
H924 H 0.29497 0.28085 0.7332 0.0
H925 H 0.36969 0.38382 0.67875 0.0
H926 H 0.41497 0.37493 0.68242 0.0
H927 H 0.39446 0.39266 0.71162 0.0
C928 C 0.2136 0.78571 0.59528 0.0
C929 C 0.21896 0.80193 0.57219 0.0
C930 C 0.19211 0.79612 0.61585 0.0
C931 C 0.17602 0.82363 0.61338 0.0
C932 C 0.18403 0.84156 0.59164 0.0
C933 C 0.20532 0.83037 0.57108 0.0
C934 C 0.1844 0.77637 0.63892 0.0
C935 C 0.16824 0.87144 0.58884 0.0
C936 C 0.08879 0.81454 0.64248 0.0
C937 C 0.09782 0.82419 0.67061 0.0
C938 C 0.11319 0.81751 0.6225 0.0
C939 C 0.14708 0.83065 0.6311 0.0
C940 C 0.15453 0.84414 0.65873 0.0
C941 C 0.12971 0.84053 0.6784 0.0
C942 C 0.10406 0.80318 0.59308 0.0
C943 C 0.18991 0.85944 0.66826 0.0
H944 H 0.22454 0.76398 0.59658 0.0
H945 H 0.20991 0.84336 0.55355 0.0
H946 H 0.18869 0.78949 0.65965 0.0
H947 H 0.15652 0.76783 0.63631 0.0
H948 H 0.20099 0.75675 0.63891 0.0
H949 H 0.18451 0.88608 0.57667 0.0
H950 H 0.1419 0.8676 0.5776 0.0
H951 H 0.16513 0.88347 0.60963 0.0
H952 H 0.06377 0.80239 0.63644 0.0
H953 H 0.13633 0.84854 0.70017 0.0
H954 H 0.11774 0.78201 0.58998 0.0
H955 H 0.11287 0.81824 0.57749 0.0
H956 H 0.07546 0.79771 0.58886 0.0
H957 H 0.20857 0.84218 0.67316 0.0
H958 H 0.18859 0.87505 0.68741 0.0
H959 H 0.20048 0.87216 0.65159 0.0
C960 C 0.15544 0.92496 0.34378 0.0
C961 C 0.17276 0.95328 0.34369 0.0
C962 C 0.15835 0.90907 0.36749 0.0
C963 C 0.17884 0.92211 0.39157 0.0
C964 C 0.19257 0.95225 0.3927 0.0
C965 C 0.1896 0.96754 0.3685 0.0
C966 C 0.14305 0.87703 0.36551 0.0
C967 C 0.21311 0.96724 0.41857 0.0
C968 C 0.18333 0.87054 0.4499 0.0
C969 C 0.21314 0.85529 0.44355 0.0
C970 C 0.17296 0.89423 0.4345 0.0
C971 C 0.19253 0.90204 0.41203 0.0
C972 C 0.22369 0.88762 0.40663 0.0
C973 C 0.2337 0.86456 0.42263 0.0
C974 C 0.14028 0.90974 0.44149 0.0
C975 C 0.24541 0.89522 0.38282 0.0
H976 H 0.14186 0.91422 0.32465 0.0
H977 H 0.20244 0.98975 0.36849 0.0
H978 H 0.16452 0.86138 0.36413 0.0
H979 H 0.12935 0.87283 0.38446 0.0
H980 H 0.12432 0.87164 0.34683 0.0
H981 H 0.21805 0.9918 0.41735 0.0
H982 H 0.19888 0.96361 0.43743 0.0
H983 H 0.23871 0.95703 0.42129 0.0
H984 H 0.16777 0.8636 0.46645 0.0
H985 H 0.25707 0.85301 0.41803 0.0
H986 H 0.11753 0.89862 0.4283 0.0
H987 H 0.14228 0.93378 0.43736 0.0
H988 H 0.13495 0.90824 0.46375 0.0
H989 H 0.22979 0.88951 0.36256 0.0
H990 H 0.26975 0.88284 0.3824 0.0
H991 H 0.25281 0.91966 0.38451 0.0
C992 C 0.95502 0.72204 0.65891 0.0
C993 C 0.98659 0.72887 0.67516 0.0
C994 C 0.95459 0.70588 0.63256 0.0
C995 C 0.98639 0.69593 0.62287 0.0
C996 C 0.01862 0.70588 0.63782 0.0
C997 C 0.01832 0.72248 0.66383 0.0
C998 C 0.91982 0.69666 0.61663 0.0
C999 C 0.05315 0.69585 0.62823 0.0
C1000 C 0.9818 0.6153 0.59196 0.0
C1001 C 0.98605 0.61842 0.56373 0.0
C1002 C 0.9818 0.64049 0.61125 0.0
C1003 C 0.98535 0.66959 0.60188 0.0
C1004 C 0.98874 0.67296 0.57318 0.0
C1005 C 0.98954 0.64715 0.55436 0.0
C1006 C 0.97863 0.63583 0.64178 0.0
C1007 C 0.99202 0.70363 0.56246 0.0
H1008 H 0.93052 0.72768 0.66746 0.0
H1009 H 0.04285 0.72827 0.67623 0.0
H1010 H 0.92183 0.69724 0.59377 0.0
H1011 H 0.91182 0.67323 0.62047 0.0
H1012 H 0.899 0.71144 0.62336 0.0
H1013 H 0.07563 0.71022 0.63877 0.0
H1014 H 0.05636 0.67235 0.6333 0.0
H1015 H 0.05399 0.6962 0.60528 0.0
H1016 H 0.97927 0.59303 0.59918 0.0
H1017 H 0.99285 0.64943 0.53243 0.0
H1018 H 0.95496 0.64623 0.64923 0.0
H1019 H 0.00166 0.64692 0.65465 0.0
H1020 H 0.97683 0.61165 0.64553 0.0
H1021 H 0.97263 0.71851 0.5715 0.0
H1022 H 0.98824 0.70234 0.53926 0.0
H1023 H 0.01845 0.71431 0.56896 0.0
C1024 C 0.34557 0.70985 0.43915 0.0
C1025 C 0.31906 0.72983 0.43534 0.0
C1026 C 0.37047 0.70571 0.41933 0.0
C1027 C 0.36861 0.72204 0.39544 0.0
C1028 C 0.34035 0.74042 0.39053 0.0
C1029 C 0.31583 0.74397 0.4105 0.0
C1030 C 0.39994 0.68549 0.42489 0.0
C1031 C 0.33731 0.75807 0.36514 0.0
C1032 C 0.44761 0.7518 0.36211 0.0
C1033 C 0.44396 0.73484 0.33612 0.0
C1034 C 0.4247 0.74622 0.38271 0.0
C1035 C 0.39786 0.723 0.37704 0.0
C1036 C 0.39603 0.70418 0.3517 0.0
C1037 C 0.41909 0.71048 0.33135 0.0
C1038 C 0.42744 0.76681 0.40953 0.0
C1039 C 0.36811 0.67892 0.3452 0.0
H1040 H 0.34806 0.69869 0.45825 0.0
H1041 H 0.29498 0.759 0.40718 0.0
H1042 H 0.40528 0.67172 0.40549 0.0
H1043 H 0.42419 0.69948 0.43214 0.0
H1044 H 0.39406 0.67025 0.44123 0.0
H1045 H 0.31236 0.76953 0.36345 0.0
H1046 H 0.35936 0.77541 0.36635 0.0
H1047 H 0.33901 0.74305 0.34573 0.0
H1048 H 0.46712 0.77049 0.3658 0.0
H1049 H 0.41664 0.69715 0.31128 0.0
H1050 H 0.42629 0.75353 0.4279 0.0
H1051 H 0.40494 0.78142 0.40962 0.0
H1052 H 0.45203 0.78145 0.41199 0.0
H1053 H 0.36473 0.66623 0.36374 0.0
H1054 H 0.37436 0.66304 0.32739 0.0
H1055 H 0.3427 0.68843 0.33961 0.0
C1056 C 0.22393 0.05905 0.13444 0.0
C1057 C 0.25095 0.04292 0.14571 0.0
C1058 C 0.23102 0.08178 0.11703 0.0
C1059 C 0.26591 0.08799 0.11038 0.0
C1060 C 0.29275 0.06988 0.11967 0.0
C1061 C 0.285 0.04768 0.13758 0.0
C1062 C 0.20167 0.10073 0.10775 0.0
C1063 C 0.32999 0.07518 0.11211 0.0
C1064 C 0.27645 0.14225 0.05491 0.0
C1065 C 0.28488 0.16943 0.07146 0.0
C1066 C 0.27174 0.11517 0.06719 0.0
C1067 C 0.27476 0.11556 0.09669 0.0
C1068 C 0.28406 0.14292 0.11344 0.0
C1069 C 0.28938 0.16955 0.10055 0.0
C1070 C 0.26234 0.08643 0.04862 0.0
C1071 C 0.28686 0.14432 0.14502 0.0
H1072 H 0.19761 0.05543 0.14081 0.0
H1073 H 0.30585 0.03501 0.14619 0.0
H1074 H 0.20594 0.12374 0.11859 0.0
H1075 H 0.20132 0.10289 0.08495 0.0
H1076 H 0.17561 0.0912 0.11251 0.0
H1077 H 0.34645 0.05645 0.11733 0.0
H1078 H 0.33064 0.07789 0.08943 0.0
H1079 H 0.34174 0.09628 0.12372 0.0
H1080 H 0.27294 0.14222 0.03234 0.0
H1081 H 0.29567 0.19064 0.11329 0.0
H1082 H 0.23433 0.07954 0.04999 0.0
H1083 H 0.27799 0.06794 0.0556 0.0
H1084 H 0.26662 0.08912 0.02634 0.0
H1085 H 0.26115 0.13737 0.15247 0.0
H1086 H 0.29507 0.16724 0.15494 0.0
H1087 H 0.30602 0.12843 0.15226 0.0
C1088 C 0.81434 0.74973 0.90008 0.0
C1089 C 0.81166 0.73106 0.92183 0.0
C1090 C 0.83527 0.74246 0.87807 0.0
C1091 C 0.85365 0.71581 0.87782 0.0
C1092 C 0.84855 0.69558 0.89834 0.0
C1093 C 0.82765 0.70352 0.92025 0.0
C1094 C 0.83998 0.76455 0.85639 0.0
C1095 C 0.86723 0.66672 0.89841 0.0
C1096 C 0.90019 0.70001 0.81187 0.0
C1097 C 0.93255 0.71558 0.81967 0.0
C1098 C 0.87467 0.69789 0.83124 0.0
C1099 C 0.88199 0.71181 0.85875 0.0
C1100 C 0.91573 0.72537 0.86722 0.0
C1101 C 0.94069 0.72701 0.84751 0.0
C1102 C 0.83916 0.68283 0.82168 0.0
C1103 C 0.92461 0.74032 0.89648 0.0
H1104 H 0.80184 0.77093 0.90107 0.0
H1105 H 0.82517 0.6887 0.93677 0.0
H1106 H 0.86684 0.77548 0.85947 0.0
H1107 H 0.83697 0.75277 0.83501 0.0
H1108 H 0.82093 0.78239 0.85773 0.0
H1109 H 0.85544 0.651 0.91229 0.0
H1110 H 0.86673 0.65525 0.87695 0.0
H1111 H 0.89509 0.67194 0.90597 0.0
H1112 H 0.89403 0.69106 0.79029 0.0
H1113 H 0.96588 0.73888 0.85353 0.0
H1114 H 0.82024 0.70029 0.81822 0.0
H1115 H 0.82923 0.66905 0.83786 0.0
H1116 H 0.83985 0.66826 0.8018 0.0
H1117 H 0.9093 0.76055 0.89972 0.0
H1118 H 0.95289 0.74739 0.90033 0.0
H1119 H 0.91745 0.72488 0.91227 0.0
C1120 C 0.31288 0.55173 0.64199 0.0
C1121 C 0.27935 0.546 0.6508 0.0
C1122 C 0.31785 0.57024 0.6203 0.0
C1123 C 0.28867 0.58352 0.60782 0.0
C1124 C 0.25447 0.57538 0.61493 0.0
C1125 C 0.25025 0.55651 0.63627 0.0
C1126 C 0.3545 0.57744 0.61227 0.0
C1127 C 0.22259 0.58895 0.60211 0.0
C1128 C 0.29919 0.66423 0.59115 0.0
C1129 C 0.29443 0.66122 0.56195 0.0
C1130 C 0.29863 0.6389 0.60623 0.0
C1131 C 0.294 0.60986 0.59162 0.0
C1132 C 0.29111 0.60665 0.56199 0.0
C1133 C 0.29083 0.63251 0.54744 0.0
C1134 C 0.30114 0.64335 0.63785 0.0
C1135 C 0.28683 0.57611 0.54564 0.0
H1136 H 0.33533 0.54317 0.65299 0.0
H1137 H 0.22419 0.55165 0.64281 0.0
H1138 H 0.35489 0.57748 0.58922 0.0
H1139 H 0.36383 0.60025 0.62175 0.0
H1140 H 0.37308 0.5611 0.61966 0.0
H1141 H 0.22284 0.61311 0.60984 0.0
H1142 H 0.22287 0.58762 0.57901 0.0
H1143 H 0.19777 0.57758 0.60749 0.0
H1144 H 0.30193 0.68649 0.60232 0.0
H1145 H 0.28727 0.63026 0.52477 0.0
H1146 H 0.32289 0.63084 0.64661 0.0
H1147 H 0.27657 0.6343 0.64579 0.0
H1148 H 0.30554 0.66743 0.6459 0.0
H1149 H 0.30263 0.55955 0.55593 0.0
H1150 H 0.29458 0.57716 0.52389 0.0
H1151 H 0.25895 0.56775 0.54448 0.0
C1152 C 0.31385 0.00999 0.30107 0.0
C1153 C 0.28049 0.02037 0.29604 0.0
C1154 C 0.32936 0.01108 0.3284 0.0
C1155 C 0.31099 0.023 0.35103 0.0
C1156 C 0.27687 0.03281 0.34603 0.0
C1157 C 0.26214 0.03163 0.31846 0.0
C1158 C 0.36577 1.00023 0.33296 0.0
C1159 C 0.25643 0.04538 0.36965 0.0
C1160 C 0.35206 0.00787 0.42185 0.0
C1161 C 0.37477 0.03358 0.42794 0.0
C1162 C 0.32906 0.0048 0.39761 0.0
C1163 C 0.32916 0.02799 0.37935 0.0
C1164 C 0.34998 0.05499 0.38678 0.0
C1165 C 0.37255 0.05744 0.41106 0.0
C1166 C 0.30667 0.97594 0.39052 0.0
C1167 C 0.35058 0.08035 0.36798 0.0
H1168 H 0.32779 1.00097 0.28365 0.0
H1169 H 0.23642 0.03997 0.31438 0.0
H1170 H 0.38421 0.01943 0.3413 0.0
H1171 H 0.36614 0.98349 0.34867 0.0
H1172 H 0.37544 0.98978 0.31335 0.0
H1173 H 0.22865 0.04815 0.36266 0.0
H1174 H 0.25713 0.03047 0.38692 0.0
H1175 H 0.26857 0.06766 0.37828 0.0
H1176 H 0.35381 0.98943 0.43499 0.0
H1177 H 0.38998 0.07743 0.41597 0.0
H1178 H 0.31796 0.96212 0.37346 0.0
H1179 H 0.27974 0.98066 0.38287 0.0
H1180 H 0.30519 0.96249 0.40881 0.0
H1181 H 0.36293 0.07307 0.34851 0.0
H1182 H 0.36547 0.1009 0.37816 0.0
H1183 H 0.32355 0.08618 0.36185 0.0
C1184 C 0.83558 0.84981 0.01664 0.0
C1185 C 0.84417 0.82362 0.00103 0.0
C1186 C 0.85416 0.87758 0.01493 0.0
C1187 C 0.88099 0.87959 -0.00384 0.0
C1188 C 0.88875 0.85332 0.97949 0.0
C1189 C 0.87081 0.82554 0.9826 0.0
C1190 C 0.84575 0.90458 0.03386 0.0
C1191 C 0.91589 0.85455 0.95826 0.0
C1192 C 0.90745 0.95913 0.97825 0.0
C1193 C 0.93946 0.96529 -0.00581 0.0
C1194 C 0.88879 0.93096 0.97781 0.0
C1195 C 0.90163 0.90892 -0.00524 0.0
C1196 C 0.93387 0.91529 0.01109 0.0
C1197 C 0.95273 0.94307 0.01009 0.0
C1198 C 0.85545 0.92473 0.95908 0.0
C1199 C 0.94804 0.89311 0.03027 0.0
H1200 H 0.81502 0.84836 0.03094 0.0
H1201 H 0.87716 0.80538 0.97022 0.0
H1202 H 0.86967 0.91365 0.04687 0.0
H1203 H 0.83692 0.92268 0.02119 0.0
H1204 H 0.82502 0.89908 0.04795 0.0
H1205 H 0.91665 0.83284 0.94523 0.0
H1206 H 0.91035 0.87248 0.94428 0.0
H1207 H 0.94221 0.8603 0.96904 0.0
H1208 H 0.89732 0.97618 0.96571 0.0
H1209 H 0.97741 0.94781 0.02254 0.0
H1210 H 0.8327 0.92265 0.97196 0.0
H1211 H 0.85635 0.90303 0.94609 0.0
H1212 H 0.85096 0.9428 0.94502 0.0
H1213 H 0.92838 0.88764 0.04524 0.0
H1214 H 0.9728 0.90189 0.04233 0.0
H1215 H 0.95299 0.87181 0.01796 0.0
C1216 C 0.67993 0.19261 0.50743 0.0
C1217 C 0.68202 0.20663 0.4826 0.0
C1218 C 0.65755 0.16674 0.50839 0.0
C1219 C 0.63669 0.15489 0.484 0.0
C1220 C 0.64024 0.16813 0.45857 0.0
C1221 C 0.66294 0.19374 0.45818 0.0
C1222 C 0.65496 0.15305 0.53582 0.0
C1223 C 0.61853 0.15631 0.43208 0.0
C1224 C 0.58429 0.07921 0.47718 0.0
C1225 C 0.55071 0.0883 0.48218 0.0
C1226 C 0.6131 0.10044 0.47893 0.0
C1227 C 0.60796 0.13136 0.48557 0.0
C1228 C 0.57422 0.14036 0.49149 0.0
C1229 C 0.54611 0.11874 0.48976 0.0
C1230 C 0.64876 0.08993 0.47289 0.0
C1231 C 0.56747 0.17302 0.49872 0.0
H1232 H 0.695 0.20233 0.52629 0.0
H1233 H 0.66479 0.20432 0.43885 0.0
H1234 H 0.62986 0.1586 0.54462 0.0
H1235 H 0.65506 0.12817 0.53263 0.0
H1236 H 0.67676 0.16159 0.55141 0.0
H1237 H 0.62667 0.16736 0.41356 0.0
H1238 H 0.62058 0.13169 0.42794 0.0
H1239 H 0.59055 0.16026 0.43461 0.0
H1240 H 0.58794 0.05565 0.47143 0.0
H1241 H 0.52025 0.12585 0.49393 0.0
H1242 H 0.66875 0.09963 0.4895 0.0
H1243 H 0.65639 0.09791 0.45284 0.0
H1244 H 0.64925 0.06501 0.47133 0.0
H1245 H 0.58554 0.18274 0.51665 0.0
H1246 H 0.54012 0.17608 0.50417 0.0
H1247 H 0.57256 0.18605 0.48066 0.0
C1248 C 0.82128 0.4408 0.22441 0.0
C1249 C 0.78647 0.43945 0.23137 0.0
C1250 C 0.84054 0.41505 0.22361 0.0
C1251 C 0.82403 0.38719 0.22885 0.0
C1252 C 0.7881 0.3854 0.23398 0.0
C1253 C 0.76989 0.4118 0.23583 0.0
C1254 C 0.87909 0.41807 0.21894 0.0
C1255 C 0.76929 0.35589 0.23855 0.0
C1256 C 0.87676 0.32048 0.20885 0.0
C1257 C 0.8933 0.31563 0.23481 0.0
C1258 C 0.85222 0.34247 0.2068 0.0
C1259 C 0.84526 0.36065 0.23115 0.0
C1260 C 0.86116 0.35514 0.25754 0.0
C1261 C 0.88463 0.33229 0.25909 0.0
C1262 C 0.83483 0.34702 0.17847 0.0
C1263 C 0.85511 0.37455 0.2839 0.0
H1264 H 0.83412 0.46239 0.22143 0.0
H1265 H 0.74287 0.41094 0.24122 0.0
H1266 H 0.8947 0.41229 0.23783 0.0
H1267 H 0.88517 0.40212 0.2012 0.0
H1268 H 0.88768 0.4412 0.21452 0.0
H1269 H 0.74046 0.35758 0.23811 0.0
H1270 H 0.77516 0.33805 0.22229 0.0
H1271 H 0.77855 0.34872 0.25915 0.0
H1272 H 0.88342 0.30738 0.19011 0.0
H1273 H 0.89782 0.32871 0.27911 0.0
H1274 H 0.8454 0.36841 0.17136 0.0
H1275 H 0.80621 0.34874 0.17978 0.0
H1276 H 0.83925 0.32841 0.16245 0.0
H1277 H 0.86493 0.39806 0.28205 0.0
H1278 H 0.86853 0.36659 0.30286 0.0
H1279 H 0.82671 0.37493 0.28683 0.0
C1280 C 0.07263 0.59065 0.48564 0.0
C1281 C 0.08671 0.56237 0.48478 0.0
C1282 C 0.09443 0.61713 0.48729 0.0
C1283 C 0.13118 0.61523 0.48698 0.0
C1284 C 0.14556 0.58666 0.48603 0.0
C1285 C 0.12315 0.56059 0.48524 0.0
C1286 C 0.07804 0.64714 0.48898 0.0
C1287 C 0.18451 0.58359 0.48512 0.0
C1288 C 0.17922 0.68166 0.45921 0.0
C1289 C 0.19414 0.69768 0.48388 0.0
C1290 C 0.15964 0.65431 0.45991 0.0
C1291 C 0.15425 0.64302 0.486 0.0
C1292 C 0.16988 0.65886 0.51099 0.0
C1293 C 0.18995 0.6859 0.5096 0.0
C1294 C 0.14428 0.63772 0.43273 0.0
C1295 C 0.16442 0.64782 0.53924 0.0
H1296 H 0.04452 0.5921 0.48472 0.0
H1297 H 0.13417 0.53874 0.48452 0.0
H1298 H 0.09098 0.66223 0.50671 0.0
H1299 H 0.08187 0.65818 0.46955 0.0
H1300 H 0.04952 0.64487 0.49177 0.0
H1301 H 0.19157 0.5598 0.48487 0.0
H1302 H 0.19373 0.59299 0.46613 0.0
H1303 H 0.19883 0.59666 0.50349 0.0
H1304 H 0.18268 0.69065 0.4393 0.0
H1305 H 0.20147 0.69831 0.52873 0.0
H1306 H 0.11527 0.63713 0.432 0.0
H1307 H 0.15192 0.61408 0.4313 0.0
H1308 H 0.15295 0.6484 0.41416 0.0
H1309 H 0.13615 0.64747 0.54295 0.0
H1310 H 0.17931 0.66221 0.55658 0.0
H1311 H 0.17257 0.62444 0.53983 0.0
C1312 C 0.68289 0.10379 0.73518 0.0
C1313 C 0.7044 0.09849 0.75872 0.0
C1314 C 0.65698 0.12449 0.73727 0.0
C1315 C 0.6533 0.14082 0.76338 0.0
C1316 C 0.67576 0.13628 0.78704 0.0
C1317 C 0.70081 0.1147 0.78452 0.0
C1318 C 0.63294 0.12826 0.7117 0.0
C1319 C 0.67308 0.15396 0.81496 0.0
C1320 C 0.60294 0.20996 0.75524 0.0
C1321 C 0.56928 0.1995 0.76078 0.0
C1322 C 0.63127 0.19176 0.75803 0.0
C1323 C 0.62536 0.1622 0.76571 0.0
C1324 C 0.59167 0.15204 0.77257 0.0
C1325 C 0.56398 0.17108 0.77036 0.0
C1326 C 0.66707 0.20357 0.7513 0.0
C1327 C 0.5843 0.1204 0.78027 0.0
H1328 H 0.68539 0.09084 0.71533 0.0
H1329 H 0.71763 0.11052 0.80266 0.0
H1330 H 0.60531 0.12326 0.71612 0.0
H1331 H 0.63523 0.15189 0.70636 0.0
H1332 H 0.6389 0.11328 0.69316 0.0
H1333 H 0.69392 0.14898 0.83082 0.0
H1334 H 0.67493 0.17844 0.81252 0.0
H1335 H 0.64724 0.14866 0.82297 0.0
H1336 H 0.60695 0.23217 0.74814 0.0
H1337 H 0.5378 0.16304 0.77446 0.0
H1338 H 0.67378 0.19226 0.73107 0.0
H1339 H 0.68731 0.19853 0.76757 0.0
H1340 H 0.66824 0.22824 0.74966 0.0
H1341 H 0.58698 0.10419 0.7618 0.0
H1342 H 0.55752 0.11693 0.78734 0.0
H1343 H 0.60358 0.11505 0.7971 0.0
C1344 C 0.82676 0.5737 0.15051 0.0
C1345 C 0.79219 0.57109 0.15805 0.0
C1346 C 0.83549 0.59105 0.12873 0.0
C1347 C 0.80907 0.6064 0.11484 0.0
C1348 C 0.77381 0.60228 0.1214 0.0
C1349 C 0.7658 0.58442 0.14277 0.0
C1350 C 0.87311 0.59409 0.12151 0.0
C1351 C 0.74476 0.61825 0.10713 0.0
C1352 C 0.82562 0.68236 0.08838 0.0
C1353 C 0.81819 0.67539 0.0596 0.0
C1354 C 0.82527 0.65964 0.10665 0.0
C1355 C 0.81812 0.62931 0.09563 0.0
C1356 C 0.81395 0.622 0.06632 0.0
C1357 C 0.81351 0.64526 0.04859 0.0
C1358 C 0.82933 0.66842 0.13781 0.0
C1359 C 0.80738 0.58987 0.05377 0.0
H1360 H 0.84708 0.56307 0.16219 0.0
H1361 H 0.73894 0.58204 0.14837 0.0
H1362 H 0.87469 0.59224 0.09847 0.0
H1363 H 0.88483 0.61659 0.12988 0.0
H1364 H 0.88903 0.57675 0.13049 0.0
H1365 H 0.71858 0.6116 0.11397 0.0
H1366 H 0.74959 0.64295 0.11187 0.0
H1367 H 0.7442 0.61333 0.0841 0.0
H1368 H 0.82931 0.70571 0.09683 0.0
H1369 H 0.80814 0.63992 0.02621 0.0
H1370 H 0.84843 0.65445 0.14817 0.0
H1371 H 0.80381 0.66437 0.14685 0.0
H1372 H 0.83813 0.6925 0.14286 0.0
H1373 H 0.81269 0.58744 0.03128 0.0
H1374 H 0.77959 0.58244 0.05546 0.0
H1375 H 0.82389 0.57461 0.06518 0.0
C1376 C 0.91116 0.54519 0.42956 0.0
C1377 C 0.94164 0.5297 0.42609 0.0
C1378 C 0.88656 0.5474 0.40683 0.0
C1379 C 0.89306 0.53456 0.37982 0.0
C1380 C 0.92418 0.51942 0.37613 0.0
C1381 C 0.94781 0.5168 0.39936 0.0
C1382 C 0.85327 0.56294 0.41184 0.0
C1383 C 0.93255 0.50601 0.34762 0.0
C1384 C 0.81842 0.51555 0.32334 0.0
C1385 C 0.8205 0.54063 0.30781 0.0
C1386 C 0.84121 0.51364 0.34726 0.0
C1387 C 0.8674 0.53698 0.35539 0.0
C1388 C 0.86964 0.56231 0.3397 0.0
C1389 C 0.84596 0.56396 0.3163 0.0
C1390 C 0.83752 0.48647 0.36362 0.0
C1391 C 0.89761 0.58737 0.34725 0.0
H1392 H 0.90599 0.55479 0.45025 0.0
H1393 H 0.97135 0.50484 0.39655 0.0
H1394 H 0.85121 0.58214 0.39882 0.0
H1395 H 0.83024 0.54708 0.40546 0.0
H1396 H 0.85194 0.57143 0.43413 0.0
H1397 H 0.95839 0.49588 0.34811 0.0
H1398 H 0.9121 0.48835 0.33936 0.0
H1399 H 0.93259 0.5236 0.33272 0.0
H1400 H 0.79936 0.49712 0.31658 0.0
H1401 H 0.84787 0.5833 0.30426 0.0
H1402 H 0.83458 0.49373 0.38595 0.0
H1403 H 0.86152 0.47375 0.3628 0.0
H1404 H 0.81469 0.47106 0.35545 0.0
H1405 H 0.89547 0.59734 0.36896 0.0
H1406 H 0.89585 0.60551 0.33293 0.0
H1407 H 0.9239 0.57822 0.34646 0.0
C1408 C 0.18909 0.48021 0.67256 0.0
C1409 C 0.17173 0.47869 0.69708 0.0
C1410 C 0.17046 0.48278 0.64675 0.0
C1411 C 0.13347 0.48324 0.64544 0.0
C1412 C 0.11573 0.48033 0.67008 0.0
C1413 C 0.13513 0.47802 0.69564 0.0
C1414 C 0.19044 0.48563 0.62104 0.0
C1415 C 0.07635 0.48067 0.6696 0.0
C1416 C 0.08675 0.52171 0.58724 0.0
C1417 C 0.07342 0.49715 0.56859 0.0
C1418 C 0.10673 0.51749 0.61204 0.0
C1419 C 0.1134 0.48796 0.61859 0.0
C1420 C 0.10045 0.46308 0.59971 0.0
C1421 C 0.08072 0.46797 0.57492 0.0
C1422 C 0.12044 0.54467 0.6314 0.0
C1423 C 0.10703 0.43126 0.6059 0.0
H1424 H 0.21732 0.4794 0.67359 0.0
H1425 H 0.12176 0.47671 0.71468 0.0
H1426 H 0.18168 0.46707 0.6048 0.0
H1427 H 0.18494 0.50704 0.61203 0.0
H1428 H 0.21918 0.48512 0.62567 0.0
H1429 H 0.06644 0.47663 0.6902 0.0
H1430 H 0.06793 0.50278 0.66376 0.0
H1431 H 0.06396 0.46325 0.65356 0.0
H1432 H 0.08152 0.54438 0.58252 0.0
H1433 H 0.07054 0.44883 0.56071 0.0
H1434 H 0.14933 0.54464 0.63508 0.0
H1435 H 0.1093 0.54377 0.65202 0.0
H1436 H 0.11383 0.56615 0.62291 0.0
H1437 H 0.13558 0.42861 0.60914 0.0
H1438 H 0.09591 0.41439 0.58879 0.0
H1439 H 0.09526 0.42632 0.62556 0.0
C1440 C 0.62128 0.83071 0.16973 0.0
C1441 C 0.58826 0.81581 0.16335 0.0
C1442 C 0.64726 0.8284 0.15077 0.0
C1443 C 0.63972 0.81094 0.12487 0.0
C1444 C 0.60578 0.79716 0.11772 0.0
C1445 C 0.58033 0.79975 0.13717 0.0
C1446 C 0.68325 0.84327 0.15905 0.0
C1447 C 0.59681 0.77857 0.09011 0.0
C1448 C 0.6986 0.81984 0.06604 0.0
C1449 C 0.71766 0.79395 0.06679 0.0
C1450 C 0.67352 0.82597 0.08517 0.0
C1451 C 0.66777 0.80593 0.10573 0.0
C1452 C 0.688 0.7805 0.10746 0.0
C1453 C 0.71268 0.77472 0.08783 0.0
C1454 C 0.65216 0.85316 0.08265 0.0
C1455 C 0.68278 0.75889 0.12947 0.0
H1456 H 0.62736 0.84307 0.19007 0.0
H1457 H 0.55477 0.78813 0.13236 0.0
H1458 H 0.70244 0.82576 0.16128 0.0
H1459 H 0.69183 0.85722 0.14252 0.0
H1460 H 0.68409 0.85772 0.17913 0.0
H1461 H 0.56854 0.77126 0.08699 0.0
H1462 H 0.6039 0.7916 0.07252 0.0
H1463 H 0.61219 0.75823 0.08919 0.0
H1464 H 0.70222 0.83483 0.04981 0.0
H1465 H 0.72737 0.75472 0.08854 0.0
H1466 H 0.65349 0.86716 0.10295 0.0
H1467 H 0.62425 0.84574 0.07719 0.0
H1468 H 0.66118 0.86736 0.0664 0.0
H1469 H 0.68483 0.77128 0.15061 0.0
H1470 H 0.70222 0.74134 0.12909 0.0
H1471 H 0.65613 0.74761 0.12608 0.0
C1472 C 0.69474 0.50412 0.17282 0.0
C1473 C 0.67654 0.49808 0.19612 0.0
C1474 C 0.67726 0.50352 0.14607 0.0
C1475 C 0.64072 0.49603 0.1425 0.0
C1476 C 0.62258 0.48839 0.16584 0.0
C1477 C 0.64076 0.48941 0.19236 0.0
C1478 C 0.69772 0.51171 0.12183 0.0
C1479 C 0.58368 0.48026 0.16303 0.0
C1480 C 0.58637 0.52822 0.08454 0.0
C1481 C 0.57959 0.50331 0.06455 0.0
C1482 C 0.60674 0.52622 0.10958 0.0
C1483 C 0.6209 0.49858 0.11503 0.0
C1484 C 0.61499 0.47347 0.09472 0.0
C1485 C 0.59444 0.47613 0.06966 0.0
C1486 C 0.61251 0.55364 0.13048 0.0
C1487 C 0.62979 0.44365 0.09973 0.0
H1488 H 0.72274 0.50887 0.17544 0.0
H1489 H 0.62675 0.48429 0.21036 0.0
H1490 H 0.69303 0.49403 0.10407 0.0
H1491 H 0.68869 0.53297 0.11435 0.0
H1492 H 0.72633 0.51479 0.12765 0.0
H1493 H 0.57396 0.47281 0.18268 0.0
H1494 H 0.5694 0.50006 0.15739 0.0
H1495 H 0.57725 0.46205 0.14595 0.0
H1496 H 0.5755 0.54951 0.08076 0.0
H1497 H 0.58943 0.45679 0.05439 0.0
H1498 H 0.64096 0.55917 0.13533 0.0
H1499 H 0.60119 0.54891 0.15037 0.0
H1500 H 0.60043 0.57368 0.12276 0.0
H1501 H 0.65852 0.44667 0.10471 0.0
H1502 H 0.6244 0.42676 0.08135 0.0
H1503 H 0.61827 0.43464 0.11805 0.0
C1504 C 0.4093 0.4537 0.99276 0.0
C1505 C 0.44233 0.46021 0.00698 0.0
C1506 C 0.39105 0.4257 -0.00607 0.0
C1507 C 0.40553 0.40431 0.01079 0.0
C1508 C 0.43914 0.4108 0.02496 0.0
C1509 C 0.45746 0.43842 0.02236 0.0
C1510 C 0.3561 0.41918 0.97741 0.0
C1511 C 0.45503 0.38923 0.04397 0.0
C1512 C 0.34024 0.35074 0.0405 0.0
C1513 C 0.34534 0.32334 0.02539 0.0
C1514 C 0.36013 0.37706 0.03628 0.0
C1515 C 0.38448 0.37626 0.01539 0.0
C1516 C 0.38888 0.34867 -0.0006 0.0
C1517 C 0.36981 0.32233 0.00507 0.0
C1518 C 0.35536 0.40563 0.05448 0.0
C1519 C 0.4132 0.34709 0.976 0.0
H1520 H 0.39785 0.47047 0.98057 0.0
H1521 H 0.48298 0.44355 0.03344 0.0
H1522 H 0.35576 0.39717 0.96473 0.0
H1523 H 0.3349 0.4176 0.99186 0.0
H1524 H 0.35013 0.43684 0.96323 0.0
H1525 H 0.4816 0.39742 0.05314 0.0
H1526 H 0.43791 0.38598 0.06129 0.0
H1527 H 0.45685 0.36691 0.03233 0.0
H1528 H 0.32116 0.35143 0.05614 0.0
H1529 H 0.37315 0.30114 0.99301 0.0
H1530 H 0.34518 0.42294 0.04145 0.0
H1531 H 0.38099 0.41477 0.06482 0.0
H1532 H 0.33695 0.40201 0.07089 0.0
H1533 H 0.40639 0.36378 0.96104 0.0
H1534 H 0.41198 0.32439 0.9644 0.0
H1535 H 0.44058 0.35294 0.98451 0.0
C1536 C 0.08048 0.19806 0.27083 0.0
C1537 C 0.0624 0.2049 0.24615 0.0
C1538 C 0.10122 0.17322 0.27084 0.0
C1539 C 0.10256 0.15427 0.2458 0.0
C1540 C 0.08494 0.16156 0.22065 0.0
C1541 C 0.06552 0.18721 0.22106 0.0
C1542 C 0.12075 0.16674 0.29779 0.0
C1543 C 0.08488 0.14141 0.19372 0.0
C1544 C 0.17334 0.09887 0.23925 0.0
C1545 C 0.15625 0.07265 0.24684 0.0
C1546 C 0.15638 0.12581 0.2393 0.0
C1547 C 0.12116 0.12612 0.24622 0.0
C1548 C 0.10364 0.09955 0.25362 0.0
C1549 C 0.1217 0.07314 0.25432 0.0
C1550 C 0.17614 0.1539 0.23208 0.0
C1551 C 0.06572 0.09891 0.2603 0.0
H1552 H 0.07794 0.21189 0.29019 0.0
H1553 H 0.05102 0.19236 0.20207 0.0
H1554 H 0.1092 0.14582 0.30514 0.0
H1555 H 0.14857 0.16306 0.2943 0.0
H1556 H 0.11981 0.18532 0.31461 0.0
H1557 H 0.07204 0.15149 0.17565 0.0
H1558 H 0.11199 0.13657 0.18896 0.0
H1559 H 0.07068 0.11957 0.19606 0.0
H1560 H 0.20024 0.0984 0.23364 0.0
H1561 H 0.10852 0.05267 0.25989 0.0
H1562 H 0.17571 0.172 0.24938 0.0
H1563 H 0.16326 0.16217 0.2131 0.0
H1564 H 0.20384 0.15003 0.22821 0.0
H1565 H 0.06258 0.11484 0.27885 0.0
H1566 H 0.05562 0.07614 0.26462 0.0
H1567 H 0.04935 0.1063 0.24253 0.0
C1568 C 0.26233 0.3883 0.9502 0.0
C1569 C 0.23548 0.37705 0.96537 0.0
C1570 C 0.25575 0.4095 0.93109 0.0
C1571 C 0.22173 0.42016 0.92782 0.0
C1572 C 0.19578 0.41151 0.94556 0.0
C1573 C 0.20277 0.38948 0.96387 0.0
C1574 C 0.28425 0.41836 0.91268 0.0
C1575 C 0.15997 0.42393 0.94379 0.0
C1576 C 0.2167 0.47876 0.87579 0.0
C1577 C 0.20567 0.46057 0.85121 0.0
C1578 C 0.21936 0.4665 0.90166 0.0
C1579 C 0.21185 0.43526 0.90252 0.0
C1580 C 0.19878 0.41725 0.87788 0.0
C1581 C 0.19537 0.4303 0.85257 0.0
C1582 C 0.23219 0.48672 0.92753 0.0
C1583 C 0.1911 0.38369 0.87773 0.0
H1584 H 0.28781 0.37891 0.95172 0.0
H1585 H 0.18226 0.38117 0.97615 0.0
H1586 H 0.27606 0.4108 0.89047 0.0
H1587 H 0.28875 0.44317 0.91433 0.0
H1588 H 0.30944 0.40844 0.91833 0.0
H1589 H 0.14567 0.42003 0.96258 0.0
H1590 H 0.16211 0.44845 0.94148 0.0
H1591 H 0.14426 0.41283 0.92511 0.0
H1592 H 0.2245 0.50229 0.8747 0.0
H1593 H 0.18678 0.41628 0.83351 0.0
H1594 H 0.26121 0.48744 0.92995 0.0
H1595 H 0.22191 0.47857 0.9467 0.0
H1596 H 0.22443 0.5101 0.92573 0.0
H1597 H 0.21555 0.3728 0.88359 0.0
H1598 H 0.18022 0.37318 0.85692 0.0
H1599 H 0.17213 0.37887 0.89337 0.0
C1600 C 0.33287 0.21341 0.94768 0.0
C1601 C 0.31954 0.24207 0.94936 0.0
C1602 C 0.35271 0.2039 0.92549 0.0
C1603 C 0.3591 0.22354 0.90469 0.0
C1604 C 0.34549 0.25237 0.90619 0.0
C1605 C 0.32589 0.26127 0.92852 0.0
C1606 C 0.3671 0.17308 0.92443 0.0
C1607 C 0.35177 0.27397 0.88429 0.0
C1608 C 0.43378 0.22219 0.85815 0.0
C1609 C 0.41591 0.21239 0.83233 0.0
C1610 C 0.41618 0.22339 0.88271 0.0
C1611 C 0.38005 0.21451 0.8811 0.0
C1612 C 0.36279 0.20201 0.85542 0.0
C1613 C 0.38102 0.20116 0.8312 0.0
C1614 C 0.43543 0.23678 0.90979 0.0
C1615 C 0.3243 0.19222 0.85298 0.0
H1616 H 0.32813 0.19851 0.96379 0.0
H1617 H 0.31572 0.28346 0.92964 0.0
H1618 H 0.3581 0.15994 0.90432 0.0
H1619 H 0.39613 0.17526 0.92541 0.0
H1620 H 0.359 0.16025 0.94191 0.0
H1621 H 0.33893 0.29543 0.88847 0.0
H1622 H 0.38029 0.27922 0.88354 0.0
H1623 H 0.34168 0.26348 0.86331 0.0
H1624 H 0.46092 0.23064 0.85897 0.0
H1625 H 0.36739 0.19326 0.81117 0.0
H1626 H 0.42852 0.22378 0.92744 0.0
H1627 H 0.42765 0.26012 0.91457 0.0
H1628 H 0.4643 0.23752 0.90858 0.0
H1629 H 0.31757 0.17907 0.87058 0.0
H1630 H 0.31644 0.17843 0.83294 0.0
H1631 H 0.30867 0.21242 0.85399 0.0
C1632 C 0.41014 0.54635 0.92683 0.0
C1633 C 0.43931 0.52886 0.92483 0.0
C1634 C 0.3847 0.54616 0.90415 0.0
C1635 C 0.38892 0.52854 0.87874 0.0
C1636 C 0.4186 0.5112 0.87657 0.0
C1637 C 0.44317 0.51139 0.89963 0.0
C1638 C 0.35307 0.56445 0.9075 0.0
C1639 C 0.42455 0.49246 0.84979 0.0
C1640 C 0.31404 0.50441 0.82353 0.0
C1641 C 0.31902 0.52533 0.80387 0.0
C1642 C 0.33535 0.50612 0.84875 0.0
C1643 C 0.36307 0.52871 0.85398 0.0
C1644 C 0.36781 0.55011 0.83431 0.0
C1645 C 0.34551 0.54835 0.80969 0.0
C1646 C 0.32874 0.48327 0.8694 0.0
C1647 C 0.39733 0.57422 0.83874 0.0
H1648 H 0.40672 0.55959 0.94633 0.0
H1649 H 0.46567 0.49785 0.89783 0.0
H1650 H 0.35194 0.58114 0.89176 0.0
H1651 H 0.32882 0.54951 0.90366 0.0
H1652 H 0.35331 0.57656 0.9287 0.0
H1653 H 0.44919 0.48055 0.8514 0.0
H1654 H 0.40237 0.47551 0.84433 0.0
H1655 H 0.42565 0.50702 0.8323 0.0
H1656 H 0.2938 0.48643 0.81906 0.0
H1657 H 0.3495 0.56458 0.79457 0.0
H1658 H 0.32819 0.49461 0.89083 0.0
H1659 H 0.35034 0.46775 0.86984 0.0
H1660 H 0.30362 0.46973 0.86397 0.0
H1661 H 0.39629 0.58732 0.85932 0.0
H1662 H 0.3965 0.58999 0.82213 0.0
H1663 H 0.42284 0.5636 0.83895 0.0
C1664 C 0.66371 0.70868 0.0072 0.0
C1665 C 0.69191 0.70959 0.99017 0.0
C1666 C 0.64267 0.68198 0.00813 0.0
C1667 C 0.64896 0.65592 0.99059 0.0
C1668 C 0.67747 0.65687 0.97329 0.0
C1669 C 0.69905 0.68349 0.97377 0.0
C1670 C 0.61378 0.68167 0.02792 0.0
C1671 C 0.6846 0.63003 0.95364 0.0
C1672 C 0.61433 0.57691 0.00328 0.0
C1673 C 0.58358 0.57309 0.98547 0.0
C1674 C 0.63493 0.60422 0.00619 0.0
C1675 C 0.62547 0.62783 0.98985 0.0
C1676 C 0.5942 0.62405 0.97195 0.0
C1677 C 0.57323 0.59697 0.97046 0.0
C1678 C 0.667 0.60766 0.02656 0.0
C1679 C 0.58359 0.64815 0.95351 0.0
H1680 H 0.6584 0.72882 0.0201 0.0
H1681 H 0.72073 0.68423 0.96047 0.0
H1682 H 0.58792 0.67843 0.01587 0.0
H1683 H 0.61611 0.66254 0.04103 0.0
H1684 H 0.61427 0.70288 0.04191 0.0
H1685 H 0.70697 0.63473 0.94085 0.0
H1686 H 0.69043 0.61063 0.96568 0.0
H1687 H 0.66097 0.62324 0.93935 0.0
H1688 H 0.62214 0.55851 0.01513 0.0
H1689 H 0.54955 0.59394 0.95657 0.0
H1690 H 0.66697 0.62898 0.04026 0.0
H1691 H 0.69097 0.60879 0.01496 0.0
H1692 H 0.66851 0.58867 0.03994 0.0
H1693 H 0.58036 0.66945 0.96645 0.0
H1694 H 0.55874 0.64168 0.94059 0.0
H1695 H 0.60455 0.65268 0.93936 0.0
C1696 C 0.95489 0.86157 0.72983 0.0
C1697 C 0.94274 0.83223 0.73362 0.0
C1698 C 0.93193 0.88483 0.72999 0.0
C1699 C 0.89604 0.8782 0.73329 0.0
C1700 C 0.88339 0.84832 0.73577 0.0
C1701 C 0.90709 0.82566 0.73628 0.0
C1702 C 0.94633 0.91662 0.72791 0.0
C1703 C 0.84507 0.84045 0.73862 0.0
C1704 C 0.84417 0.94045 0.76453 0.0
C1705 C 0.82831 0.95084 0.74044 0.0
C1706 C 0.86649 0.91678 0.76246 0.0
C1707 C 0.87208 0.90283 0.7357 0.0
C1708 C 0.85535 0.91276 0.71134 0.0
C1709 C 0.83396 0.93705 0.714 0.0
C1710 C 0.8846 0.90713 0.78883 0.0
C1711 C 0.86012 0.89778 0.68257 0.0
H1712 H 0.98259 0.86659 0.72803 0.0
H1713 H 0.8978 0.80282 0.73898 0.0
H1714 H 0.93204 0.9266 0.71049 0.0
H1715 H 0.94239 0.93074 0.74748 0.0
H1716 H 0.97471 0.91774 0.72449 0.0
H1717 H 0.83913 0.81577 0.73777 0.0
H1718 H 0.83729 0.85093 0.75885 0.0
H1719 H 0.82873 0.84952 0.72174 0.0
H1720 H 0.83992 0.95142 0.78494 0.0
H1721 H 0.82132 0.94506 0.69542 0.0
H1722 H 0.91343 0.9093 0.78767 0.0
H1723 H 0.87736 0.88312 0.79092 0.0
H1724 H 0.87778 0.92072 0.80795 0.0
H1725 H 0.88801 0.90034 0.67794 0.0
H1726 H 0.8439 0.90738 0.6659 0.0
H1727 H 0.85305 0.8733 0.68182 0.0
C1728 C 0.45023 0.14875 0.68326 0.0
C1729 C 0.46587 0.1781 0.68584 0.0
C1730 C 0.45334 0.12881 0.65943 0.0
C1731 C 0.47241 0.13836 0.63731 0.0
C1732 C 0.48817 0.16805 0.63967 0.0
C1733 C 0.48479 0.18752 0.66397 0.0
C1734 C 0.43634 0.09737 0.65806 0.0
C1735 C 0.50863 0.17923 0.61655 0.0
C1736 C 0.50607 0.07678 0.58782 0.0
C1737 C 0.48044 0.07419 0.56524 0.0
C1738 C 0.50407 0.09779 0.61115 0.0
C1739 C 0.47589 0.11702 0.61196 0.0
C1740 C 0.45005 0.11466 0.58918 0.0
C1741 C 0.45252 0.09323 0.56622 0.0
C1742 C 0.53199 0.0992 0.63506 0.0
C1743 C 0.41971 0.13481 0.58909 0.0
H1744 H 0.43559 0.14117 0.70009 0.0
H1745 H 0.49694 0.20998 0.6658 0.0
H1746 H 0.41724 0.09333 0.63952 0.0
H1747 H 0.45646 0.0806 0.6556 0.0
H1748 H 0.4225 0.09339 0.67706 0.0
H1749 H 0.51893 0.20297 0.6214 0.0
H1750 H 0.53096 0.16497 0.61295 0.0
H1751 H 0.49172 0.17746 0.59672 0.0
H1752 H 0.52785 0.06231 0.58734 0.0
H1753 H 0.4328 0.09173 0.5488 0.0
H1754 H 0.51993 0.09399 0.65453 0.0
H1755 H 0.54457 0.12228 0.6389 0.0
H1756 H 0.5526 0.08317 0.63098 0.0
H1757 H 0.40366 0.13076 0.60688 0.0
H1758 H 0.40257 0.13105 0.56936 0.0
H1759 H 0.42959 0.15876 0.59195 0.0
C1760 C 0.48089 0.31783 0.81126 0.0
C1761 C 0.51071 0.3045 0.80181 0.0
C1762 C 0.48325 0.33844 0.83542 0.0
C1763 C 0.51604 0.34526 0.85093 0.0
C1764 C 0.54569 0.33032 0.84231 0.0
C1765 C 0.54277 0.31053 0.8177 0.0
C1766 C 0.45106 0.35417 0.8434 0.0
C1767 C 0.58094 0.33612 0.85849 0.0
C1768 C 0.53588 0.4226 0.891 0.0
C1769 C 0.53018 0.417 0.91862 0.0
C1770 C 0.53068 0.39964 0.8689 0.0
C1771 C 0.52023 0.36996 0.87445 0.0
C1772 C 0.5148 0.36406 0.90241 0.0
C1773 C 0.51946 0.38771 0.9241 0.0
C1774 C 0.53606 0.40727 0.83946 0.0
C1775 C 0.50431 0.33273 0.90942 0.0
H1776 H 0.45606 0.31337 0.79898 0.0
H1777 H 0.56585 0.30012 0.81057 0.0
H1778 H 0.44688 0.35229 0.86578 0.0
H1779 H 0.45485 0.37849 0.84061 0.0
H1780 H 0.42711 0.34487 0.83051 0.0
H1781 H 0.60029 0.32021 0.85105 0.0
H1782 H 0.59134 0.35937 0.85625 0.0
H1783 H 0.57834 0.33423 0.88111 0.0
H1784 H 0.54371 0.44524 0.88652 0.0
H1785 H 0.51478 0.38327 0.94537 0.0
H1786 H 0.51203 0.40057 0.82561 0.0
H1787 H 0.5576 0.3945 0.83101 0.0
H1788 H 0.54255 0.43165 0.83843 0.0
H1789 H 0.47938 0.32441 0.89746 0.0
H1790 H 0.50097 0.33181 0.9321 0.0
H1791 H 0.52452 0.31712 0.90318 0.0
C1792 C 0.52118 0.88259 0.29946 0.0
C1793 C 0.52309 0.85155 0.30139 0.0
C1794 C 0.52052 0.90287 0.32336 0.0
C1795 C 0.52111 0.89197 0.35011 0.0
C1796 C 0.5229 0.86059 0.35232 0.0
C1797 C 0.52428 0.84075 0.32791 0.0
C1798 C 0.51888 0.93605 0.31987 0.0
C1799 C 0.52289 0.84798 0.3804 0.0
C1800 C 0.54668 0.95063 0.41188 0.0
C1801 C 0.51385 0.95942 0.41959 0.0
C1802 C 0.54949 0.92809 0.38986 0.0
C1803 C 0.51876 0.91364 0.37541 0.0
C1804 C 0.48558 0.92193 0.38359 0.0
C1805 C 0.48354 0.94476 0.40537 0.0
C1806 C 0.58537 0.92024 0.38158 0.0
C1807 C 0.45211 0.90701 0.36902 0.0
H1808 H 0.52026 0.89122 0.27907 0.0
H1809 H 0.52599 0.81688 0.32958 0.0
H1810 H 0.49417 0.94428 0.32751 0.0
H1811 H 0.54084 0.94896 0.33262 0.0
H1812 H 0.52018 0.94101 0.29772 0.0
H1813 H 0.52389 0.8231 0.37859 0.0
H1814 H 0.5457 0.85797 0.39421 0.0
H1815 H 0.49895 0.85409 0.39075 0.0
H1816 H 0.57024 0.96162 0.42284 0.0
H1817 H 0.45798 0.95091 0.41141 0.0
H1818 H 0.58873 0.9261 0.35994 0.0
H1819 H 0.58813 0.89568 0.38167 0.0
H1820 H 0.60668 0.93229 0.39579 0.0
H1821 H 0.44964 0.91261 0.34698 0.0
H1822 H 0.42852 0.91423 0.37934 0.0
H1823 H 0.45267 0.88219 0.36861 0.0
C1824 C 0.51926 0.63851 0.07272 0.0
C1825 C 0.49044 0.61747 0.06795 0.0
C1826 C 0.52252 0.65966 0.09647 0.0
C1827 C 0.4962 0.65993 0.11581 0.0
C1828 C 0.46641 0.63948 0.11039 0.0
C1829 C 0.46401 0.61845 0.08667 0.0
C1830 C 0.55481 0.68087 0.10142 0.0
C1831 C 0.4375 0.63916 0.13016 0.0
C1832 C 0.51633 0.68749 0.19288 0.0
C1833 C 0.50226 0.71583 0.19452 0.0
C1834 C 0.5159 0.66969 0.16721 0.0
C1835 C 0.50048 0.68023 0.14253 0.0
C1836 C 0.4872 0.70929 0.14396 0.0
C1837 C 0.48845 0.72682 0.16991 0.0
C1838 C 0.53112 0.63922 0.16668 0.0
C1839 C 0.47053 0.72145 0.11827 0.0
H1840 H 0.5399 0.63776 0.05841 0.0
H1841 H 0.44169 0.60226 0.08312 0.0
H1842 H 0.54738 0.70442 0.10533 0.0
H1843 H 0.57054 0.67545 0.12037 0.0
H1844 H 0.57153 0.67941 0.08344 0.0
H1845 H 0.415 0.62336 0.12202 0.0
H1846 H 0.44779 0.6324 0.15067 0.0
H1847 H 0.42793 0.66204 0.13392 0.0
H1848 H 0.52746 0.67907 0.2118 0.0
H1849 H 0.47764 0.74877 0.17106 0.0
H1850 H 0.54986 0.63681 0.15017 0.0
H1851 H 0.50987 0.62132 0.16154 0.0
H1852 H 0.54488 0.63545 0.18706 0.0
H1853 H 0.4885 0.72021 0.10115 0.0
H1854 H 0.46356 0.74514 0.12245 0.0
H1855 H 0.44639 0.70744 0.1107 0.0
loop_
_geom_bond_atom_site_label_1
_geom_bond_atom_site_label_2
_geom_bond_distance
_geom_bond_site_symmetry_2
_ccdc_geom_bond_type
Tb0 O3 2.453 1_565 S
Tb0 O4 2.596 1_566 S
Tb0 O5 2.374 1_556 S
Tb0 O13 2.361 1_455 S
Tb0 O15 2.353 1_465 S
Tb0 O17 2.427 . S
Tb0 O18 2.513 . S
C1 O5 1.251 . S
C1 O7 1.263 1_565 S
Tb2 O4 2.343 1_655 S
Tb2 O7 2.353 1_655 S
Tb2 O10 2.428 . S
Tb2 O11 2.513 . S
Tb2 O12 2.453 1_545 S
Tb2 O13 2.577 1_544 S
Tb2 O14 2.374 1_554 S
O3 Tb0 2.453 1_545 S
O3 C19 1.245 1_556 S
O4 Tb0 2.596 1_544 S
O4 Tb2 2.343 1_455 S
O4 C19 1.259 . S
O5 Tb0 2.374 1_554 S
O5 C1 1.251 . S
C6 O10 1.276 . S
C6 O11 1.246 . S
O7 C1 1.263 1_545 S
O7 Tb2 2.353 1_455 S
C8 O12 1.245 . S
C8 O13 1.247 1_554 S
C9 O14 1.250 . S
C9 O15 1.263 . S
O10 Tb2 2.428 . S
O10 C6 1.276 . S
O11 Tb2 2.513 . S
O11 C6 1.246 . S
O12 Tb2 2.453 1_565 S
O12 C8 1.245 . S
O13 Tb0 2.361 1_655 S
O13 Tb2 2.577 1_566 S
O13 C8 1.247 1_556 S
O14 Tb2 2.374 1_556 S
O14 C9 1.250 . S
O15 Tb0 2.353 1_645 S
O15 C9 1.263 . S
C16 O17 1.275 . S
C16 O18 1.246 . S
O17 Tb0 2.427 . S
O17 C16 1.275 . S
O18 Tb0 2.513 . S
O18 C16 1.246 . S
C19 O3 1.245 1_554 S
C19 O4 1.259 . S
Tb20 O23 2.453 . S
Tb20 O24 2.596 1_655 S
Tb20 O25 2.374 1_655 S
Tb20 O33 2.343 1_655 S
Tb20 O35 2.353 . S
Tb20 O37 2.427 . S
Tb20 O38 2.513 . S
C21 O25 1.251 . S
C21 O27 1.263 . S
Tb22 O24 2.343 . S
Tb22 O27 2.353 . S
Tb22 O30 2.427 . S
Tb22 O31 2.513 . S
Tb22 O32 2.453 . S
Tb22 O33 2.596 . S
Tb22 O34 2.374 1_455 S
O23 Tb20 2.453 . S
O23 C39 1.245 . S
O24 Tb20 2.596 1_455 S
O24 Tb22 2.343 . S
O24 C39 1.259 1_455 S
O25 Tb20 2.374 1_455 S
O25 C21 1.251 . S
C26 O30 1.275 . S
C26 O31 1.246 . S
O27 C21 1.263 . S
O27 Tb22 2.353 . S
C28 O32 1.245 . S
C28 O33 1.259 . S
C29 O34 1.250 . S
C29 O35 1.263 . S
O30 Tb22 2.427 . S
O30 C26 1.275 . S
O31 Tb22 2.513 . S
O31 C26 1.246 . S
O32 Tb22 2.453 . S
O32 C28 1.245 . S
O33 Tb20 2.343 1_455 S
O33 Tb22 2.596 . S
O33 C28 1.259 . S
O34 Tb22 2.374 1_655 S
O34 C29 1.250 . S
O35 Tb20 2.353 . S
O35 C29 1.263 . S
C36 O37 1.275 . S
C36 O38 1.246 . S
O37 Tb20 2.427 . S
O37 C36 1.275 . S
O38 Tb20 2.513 . S
O38 C36 1.246 . S
C39 O23 1.245 . S
C39 O24 1.259 1_655 S
Tb40 O43 2.453 . S
Tb40 O44 2.596 . S
Tb40 O45 2.374 . S
Tb40 O53 2.343 . S
Tb40 O55 2.353 . S
Tb40 O57 2.427 . S
Tb40 O58 2.513 . S
C41 O45 1.251 . S
C41 O47 1.263 . S
Tb42 O44 2.343 . S
Tb42 O47 2.353 . S
Tb42 O50 2.427 . S
Tb42 O51 2.513 . S
Tb42 O52 2.453 . S
Tb42 O53 2.596 . S
Tb42 O54 2.374 . S
O43 Tb40 2.453 . S
O43 C59 1.245 . S
O44 Tb40 2.596 . S
O44 Tb42 2.343 . S
O44 C59 1.259 . S
O45 Tb40 2.374 . S
O45 C41 1.251 . S
C46 O50 1.275 . S
C46 O51 1.246 . S
O47 C41 1.263 . S
O47 Tb42 2.353 . S
C48 O52 1.245 . S
C48 O53 1.259 . S
C49 O54 1.250 . S
C49 O55 1.263 . S
O50 Tb42 2.427 . S
O50 C46 1.275 . S
O51 Tb42 2.513 . S
O51 C46 1.246 . S
O52 Tb42 2.453 . S
O52 C48 1.245 . S
O53 Tb40 2.343 . S
O53 Tb42 2.596 . S
O53 C48 1.259 . S
O54 Tb42 2.374 . S
O54 C49 1.250 . S
O55 Tb40 2.353 . S
O55 C49 1.263 . S
C56 O57 1.275 . S
C56 O58 1.246 . S
O57 Tb40 2.427 . S
O57 C56 1.275 . S
O58 Tb40 2.513 . S
O58 C56 1.246 . S
C59 O43 1.245 . S
C59 O44 1.259 . S
Tb60 O63 2.453 . S
Tb60 O64 2.596 . S
Tb60 O65 2.374 . S
Tb60 O73 2.343 . S
Tb60 O75 2.353 . S
Tb60 O77 2.427 . S
Tb60 O78 2.513 . S
C61 O65 1.251 1_565 S
C61 O67 1.263 . S
Tb62 O64 2.343 1_565 S
Tb62 O67 2.353 . S
Tb62 O70 2.427 . S
Tb62 O71 2.513 . S
Tb62 O72 2.453 . S
Tb62 O73 2.596 1_565 S
Tb62 O74 2.374 1_565 S
O63 Tb60 2.453 . S
O63 C79 1.245 . S
O64 Tb60 2.596 . S
O64 Tb62 2.343 1_545 S
O64 C79 1.259 . S
O65 Tb60 2.374 . S
O65 C61 1.251 1_545 S
C66 O70 1.275 . S
C66 O71 1.246 . S
O67 C61 1.263 . S
O67 Tb62 2.353 . S
C68 O72 1.245 1_545 S
C68 O73 1.259 . S
C69 O74 1.250 . S
C69 O75 1.263 . S
O70 Tb62 2.427 . S
O70 C66 1.275 . S
O71 Tb62 2.513 . S
O71 C66 1.246 . S
O72 Tb62 2.453 . S
O72 C68 1.245 1_565 S
O73 Tb60 2.343 . S
O73 Tb62 2.596 1_545 S
O73 C68 1.259 . S
O74 Tb62 2.374 1_545 S
O74 C69 1.250 . S
O75 Tb60 2.353 . S
O75 C69 1.263 . S
C76 O77 1.275 . S
C76 O78 1.246 . S
O77 Tb60 2.427 . S
O77 C76 1.275 . S
O78 Tb60 2.513 . S
O78 C76 1.246 . S
C79 O63 1.245 . S
C79 O64 1.259 . S
Tb80 O83 2.453 . S
Tb80 O84 2.596 . S
Tb80 O85 2.374 . S
Tb80 O93 2.343 . S
Tb80 O95 2.353 . S
Tb80 O97 2.427 . S
Tb80 O98 2.513 . S
C81 O85 1.251 . S
C81 O87 1.263 . S
Tb82 O84 2.343 . S
Tb82 O87 2.353 . S
Tb82 O90 2.427 . S
Tb82 O91 2.513 . S
Tb82 O92 2.453 . S
Tb82 O93 2.596 . S
Tb82 O94 2.374 . S
O83 Tb80 2.453 . S
O83 C99 1.245 . S
O84 Tb80 2.596 . S
O84 Tb82 2.343 . S
O84 C99 1.259 . S
O85 Tb80 2.374 . S
O85 C81 1.251 . S
C86 O90 1.275 . S
C86 O91 1.246 . S
O87 C81 1.263 . S
O87 Tb82 2.353 . S
C88 O92 1.245 . S
C88 O93 1.259 . S
C89 O94 1.250 . S
C89 O95 1.263 . S
O90 Tb82 2.427 . S
O90 C86 1.275 . S
O91 Tb82 2.513 . S
O91 C86 1.246 . S
O92 Tb82 2.453 . S
O92 C88 1.245 . S
O93 Tb80 2.343 . S
O93 Tb82 2.596 . S
O93 C88 1.259 . S
O94 Tb82 2.374 . S
O94 C89 1.250 . S
O95 Tb80 2.353 . S
O95 C89 1.263 . S
C96 O97 1.275 . S
C96 O98 1.246 . S
O97 Tb80 2.427 . S
O97 C96 1.275 . S
O98 Tb80 2.513 . S
O98 C96 1.246 . S
C99 O83 1.245 . S
C99 O84 1.259 . S
Tb100 O103 2.453 . S
Tb100 O104 2.596 . S
Tb100 O105 2.374 . S
Tb100 O113 2.343 . S
Tb100 O115 2.353 . S
Tb100 O117 2.427 . S
Tb100 O118 2.513 . S
C101 O105 1.251 . S
C101 O107 1.263 . S
Tb102 O104 2.343 . S
Tb102 O107 2.353 . S
Tb102 O110 2.427 . S
Tb102 O111 2.513 . S
Tb102 O112 2.453 . S
Tb102 O113 2.596 . S
Tb102 O114 2.374 . S
O103 Tb100 2.453 . S
O103 C119 1.245 . S
O104 Tb100 2.596 . S
O104 Tb102 2.343 . S
O104 C119 1.259 . S
O105 Tb100 2.374 . S
O105 C101 1.251 . S
C106 O110 1.275 . S
C106 O111 1.246 . S
O107 C101 1.263 . S
O107 Tb102 2.353 . S
C108 O112 1.245 . S
C108 O113 1.259 . S
C109 O114 1.250 . S
C109 O115 1.263 . S
O110 Tb102 2.427 . S
O110 C106 1.275 . S
O111 Tb102 2.513 . S
O111 C106 1.246 . S
O112 Tb102 2.453 . S
O112 C108 1.245 . S
O113 Tb100 2.343 . S
O113 Tb102 2.596 . S
O113 C108 1.259 . S
O114 Tb102 2.374 . S
O114 C109 1.250 . S
O115 Tb100 2.353 . S
O115 C109 1.263 . S
C116 O117 1.275 . S
C116 O118 1.246 . S
O117 Tb100 2.427 . S
O117 C116 1.275 . S
O118 Tb100 2.513 . S
O118 C116 1.246 . S
C119 O103 1.245 . S
C119 O104 1.259 . S
Tb120 O123 2.453 . S
Tb120 O124 2.596 . S
Tb120 O125 2.374 . S
Tb120 O133 2.343 . S
Tb120 O135 2.353 . S
Tb120 O137 2.427 . S
Tb120 O138 2.513 . S
C121 O125 1.251 . S
C121 O127 1.263 . S
Tb122 O124 2.343 . S
Tb122 O127 2.353 . S
Tb122 O130 2.427 . S
Tb122 O131 2.513 . S
Tb122 O132 2.453 . S
Tb122 O133 2.596 . S
Tb122 O134 2.374 . S
O123 Tb120 2.453 . S
O123 C139 1.245 . S
O124 Tb120 2.596 . S
O124 Tb122 2.343 . S
O124 C139 1.259 . S
O125 Tb120 2.374 . S
O125 C121 1.251 . S
C126 O130 1.275 . S
C126 O131 1.246 . S
O127 C121 1.263 . S
O127 Tb122 2.353 . S
C128 O132 1.245 . S
C128 O133 1.259 . S
C129 O134 1.250 . S
C129 O135 1.263 . S
O130 Tb122 2.427 . S
O130 C126 1.275 . S
O131 Tb122 2.513 . S
O131 C126 1.246 . S
O132 Tb122 2.453 . S
O132 C128 1.245 . S
O133 Tb120 2.343 . S
O133 Tb122 2.596 . S
O133 C128 1.259 . S
O134 Tb122 2.374 . S
O134 C129 1.250 . S
O135 Tb120 2.353 . S
O135 C129 1.263 . S
C136 O137 1.275 . S
C136 O138 1.246 . S
O137 Tb120 2.427 . S
O137 C136 1.275 . S
O138 Tb120 2.513 . S
O138 C136 1.246 . S
C139 O123 1.245 . S
C139 O124 1.259 . S
Tb140 O143 2.453 . S
Tb140 O144 2.596 . S
Tb140 O145 2.374 . S
Tb140 O153 2.343 1_455 S
Tb140 O155 2.353 1_455 S
Tb140 O157 2.427 . S
Tb140 O158 2.513 . S
C141 O145 1.251 . S
C141 O147 1.263 . S
Tb142 O144 2.343 1_655 S
Tb142 O147 2.353 1_655 S
Tb142 O150 2.433 . S
Tb142 O151 2.513 . S
Tb142 O152 2.453 . S
Tb142 O153 2.596 . S
Tb142 O154 2.374 . S
O143 Tb140 2.453 . S
O143 C159 1.245 . S
O144 Tb140 2.596 . S
O144 Tb142 2.343 1_455 S
O144 C159 1.259 . S
O145 Tb140 2.374 . S
O145 C141 1.251 . S
C146 O150 1.284 . S
C146 O151 1.246 . S
O147 C141 1.263 . S
O147 Tb142 2.353 1_455 S
C148 O152 1.245 . S
C148 O153 1.259 . S
C149 O154 1.250 . S
C149 O155 1.263 . S
O150 Tb142 2.433 . S
O150 C146 1.284 . S
O151 Tb142 2.513 . S
O151 C146 1.246 . S
O152 Tb142 2.453 . S
O152 C148 1.245 . S
O153 Tb140 2.343 1_655 S
O153 Tb142 2.596 . S
O153 C148 1.259 . S
O154 Tb142 2.374 . S
O154 C149 1.250 . S
O155 Tb140 2.353 1_655 S
O155 C149 1.263 . S
C156 O157 1.275 . S
C156 O158 1.246 . S
O157 Tb140 2.427 . S
O157 C156 1.275 . S
O158 Tb140 2.513 . S
O158 C156 1.246 . S
C159 O143 1.245 . S
C159 O144 1.259 . S
Tb160 O163 2.453 . S
Tb160 O164 2.596 1_556 S
Tb160 O165 2.374 1_556 S
Tb160 O173 2.347 . S
Tb160 O175 2.353 . S
Tb160 O177 2.427 . S
Tb160 O178 2.513 . S
C161 O165 1.251 . S
C161 O167 1.263 . S
Tb162 O164 2.343 . S
Tb162 O167 2.353 . S
Tb162 O170 2.427 . S
Tb162 O171 2.513 . S
Tb162 O172 2.453 . S
Tb162 O173 2.590 1_554 S
Tb162 O174 2.374 1_554 S
O163 Tb160 2.453 . S
O163 C179 1.245 . S
O164 Tb160 2.596 1_554 S
O164 Tb162 2.343 . S
O164 C179 1.259 1_554 S
O165 Tb160 2.374 1_554 S
O165 C161 1.251 . S
C166 O170 1.275 . S
C166 O171 1.246 . S
O167 C161 1.263 . S
O167 Tb162 2.353 . S
C168 O172 1.245 . S
C168 O173 1.257 1_554 S
C169 O174 1.250 . S
C169 O175 1.263 . S
O170 Tb162 2.427 . S
O170 C166 1.275 . S
O171 Tb162 2.513 . S
O171 C166 1.246 . S
O172 Tb162 2.453 . S
O172 C168 1.245 . S
O173 Tb160 2.347 . S
O173 Tb162 2.590 1_556 S
O173 C168 1.257 1_556 S
O174 Tb162 2.374 1_556 S
O174 C169 1.250 . S
O175 Tb160 2.353 . S
O175 C169 1.263 . S
C176 O177 1.275 . S
C176 O178 1.246 . S
O177 Tb160 2.427 . S
O177 C176 1.275 . S
O178 Tb160 2.513 . S
O178 C176 1.246 . S
C179 O163 1.245 . S
C179 O164 1.259 1_556 S
Tb180 O183 2.453 . S
Tb180 O184 2.596 . S
Tb180 O185 2.374 1_545 S
Tb180 O193 2.343 . S
Tb180 O195 2.353 . S
Tb180 O197 2.427 . S
Tb180 O198 2.513 . S
C181 O185 1.251 . S
C181 O187 1.263 . S
Tb182 O184 2.343 1_565 S
Tb182 O187 2.353 . S
Tb182 O190 2.427 . S
Tb182 O191 2.513 . S
Tb182 O192 2.453 . S
Tb182 O193 2.596 1_565 S
Tb182 O194 2.374 1_565 S
O183 Tb180 2.453 . S
O183 C199 1.245 . S
O184 Tb180 2.596 . S
O184 Tb182 2.343 1_545 S
O184 C199 1.259 . S
O185 Tb180 2.374 1_565 S
O185 C181 1.251 . S
C186 O190 1.275 . S
C186 O191 1.246 . S
O187 C181 1.263 . S
O187 Tb182 2.353 . S
C188 O192 1.245 . S
C188 O193 1.259 1_565 S
C189 O194 1.250 . S
C189 O195 1.263 . S
O190 Tb182 2.427 . S
O190 C186 1.275 . S
O191 Tb182 2.513 . S
O191 C186 1.246 . S
O192 Tb182 2.453 . S
O192 C188 1.245 . S
O193 Tb180 2.343 . S
O193 Tb182 2.596 1_545 S
O193 C188 1.259 1_545 S
O194 Tb182 2.374 1_545 S
O194 C189 1.250 . S
O195 Tb180 2.353 . S
O195 C189 1.263 . S
C196 O197 1.275 . S
C196 O198 1.246 . S
O197 Tb180 2.427 . S
O197 C196 1.275 . S
O198 Tb180 2.513 . S
O198 C196 1.246 . S
C199 O183 1.245 . S
C199 O184 1.259 . S
Tb200 O203 2.453 . S
Tb200 O204 2.596 . S
Tb200 O205 2.374 . S
Tb200 O213 2.343 . S
Tb200 O215 2.353 . S
Tb200 O217 2.427 . S
Tb200 O218 2.513 . S
C201 O205 1.251 . S
C201 O207 1.263 . S
Tb202 O204 2.343 . S
Tb202 O207 2.353 . S
Tb202 O210 2.427 . S
Tb202 O211 2.513 . S
Tb202 O212 2.453 . S
Tb202 O213 2.596 . S
Tb202 O214 2.374 . S
O203 Tb200 2.453 . S
O203 C219 1.245 . S
O204 Tb200 2.596 . S
O204 Tb202 2.343 . S
O204 C219 1.259 . S
O205 Tb200 2.374 . S
O205 C201 1.251 . S
C206 O210 1.275 . S
C206 O211 1.246 . S
O207 C201 1.263 . S
O207 Tb202 2.353 . S
C208 O212 1.245 . S
C208 O213 1.259 . S
C209 O214 1.250 . S
C209 O215 1.263 . S
O210 Tb202 2.427 . S
O210 C206 1.275 . S
O211 Tb202 2.513 . S
O211 C206 1.246 . S
O212 Tb202 2.453 . S
O212 C208 1.245 . S
O213 Tb200 2.343 . S
O213 Tb202 2.596 . S
O213 C208 1.259 . S
O214 Tb202 2.374 . S
O214 C209 1.250 . S
O215 Tb200 2.353 . S
O215 C209 1.263 . S
C216 O217 1.275 . S
C216 O218 1.246 . S
O217 Tb200 2.427 . S
O217 C216 1.275 . S
O218 Tb200 2.513 . S
O218 C216 1.246 . S
C219 O203 1.245 . S
C219 O204 1.259 . S
Tb220 O223 2.453 . S
Tb220 O224 2.596 1_655 S
Tb220 O225 2.374 1_655 S
Tb220 O233 2.343 1_655 S
Tb220 O235 2.353 . S
Tb220 O237 2.427 . S
Tb220 O238 2.513 . S
C221 O225 1.251 . S
C221 O227 1.263 . S
Tb222 O224 2.343 . S
Tb222 O227 2.353 . S
Tb222 O230 2.427 . S
Tb222 O231 2.513 . S
Tb222 O232 2.453 . S
Tb222 O233 2.596 . S
Tb222 O234 2.374 1_455 S
O223 Tb220 2.453 . S
O223 C239 1.245 . S
O224 Tb220 2.596 1_455 S
O224 Tb222 2.343 . S
O224 C239 1.259 1_455 S
O225 Tb220 2.374 1_455 S
O225 C221 1.251 . S
C226 O230 1.275 . S
C226 O231 1.246 . S
O227 C221 1.263 . S
O227 Tb222 2.353 . S
C228 O232 1.245 . S
C228 O233 1.259 . S
C229 O234 1.250 . S
C229 O235 1.263 . S
O230 Tb222 2.427 . S
O230 C226 1.275 . S
O231 Tb222 2.513 . S
O231 C226 1.246 . S
O232 Tb222 2.453 . S
O232 C228 1.245 . S
O233 Tb220 2.343 1_455 S
O233 Tb222 2.596 . S
O233 C228 1.259 . S
O234 Tb222 2.374 1_655 S
O234 C229 1.250 . S
O235 Tb220 2.353 . S
O235 C229 1.263 . S
C236 O237 1.275 . S
C236 O238 1.246 . S
O237 Tb220 2.427 . S
O237 C236 1.275 . S
O238 Tb220 2.513 . S
O238 C236 1.246 . S
C239 O223 1.245 . S
C239 O224 1.259 1_655 S
Tb240 O243 2.453 . S
Tb240 O244 2.596 . S
Tb240 O245 2.374 . S
Tb240 O253 2.343 . S
Tb240 O255 2.353 . S
Tb240 O257 2.427 . S
Tb240 O258 2.513 . S
C241 O245 1.251 . S
C241 O247 1.263 . S
Tb242 O244 2.343 . S
Tb242 O247 2.353 . S
Tb242 O250 2.427 . S
Tb242 O251 2.513 . S
Tb242 O252 2.453 . S
Tb242 O253 2.596 . S
Tb242 O254 2.374 . S
O243 Tb240 2.453 . S
O243 C259 1.245 . S
O244 Tb240 2.596 . S
O244 Tb242 2.343 . S
O244 C259 1.259 . S
O245 Tb240 2.374 . S
O245 C241 1.251 . S
C246 O250 1.275 . S
C246 O251 1.246 . S
O247 C241 1.263 . S
O247 Tb242 2.353 . S
C248 O252 1.245 . S
C248 O253 1.259 . S
C249 O254 1.250 . S
C249 O255 1.263 . S
O250 Tb242 2.427 . S
O250 C246 1.275 . S
O251 Tb242 2.513 . S
O251 C246 1.246 . S
O252 Tb242 2.453 . S
O252 C248 1.245 . S
O253 Tb240 2.343 . S
O253 Tb242 2.596 . S
O253 C248 1.259 . S
O254 Tb242 2.374 . S
O254 C249 1.250 . S
O255 Tb240 2.353 . S
O255 C249 1.263 . S
C256 O257 1.275 . S
C256 O258 1.246 . S
O257 Tb240 2.427 . S
O257 C256 1.275 . S
O258 Tb240 2.513 . S
O258 C256 1.246 . S
C259 O243 1.245 . S
C259 O244 1.259 . S
Tb260 O263 2.453 . S
Tb260 O264 2.596 1_556 S
Tb260 O265 2.374 1_556 S
Tb260 O273 2.343 1_556 S
Tb260 O275 2.353 . S
Tb260 O277 2.427 . S
Tb260 O278 2.513 . S
C261 O265 1.251 . S
C261 O267 1.263 . S
Tb262 O264 2.343 . S
Tb262 O267 2.353 . S
Tb262 O270 2.427 . S
Tb262 O271 2.513 . S
Tb262 O272 2.453 . S
Tb262 O273 2.596 . S
Tb262 O274 2.374 1_554 S
O263 Tb260 2.453 . S
O263 C279 1.245 . S
O264 Tb260 2.596 1_554 S
O264 Tb262 2.343 . S
O264 C279 1.259 1_554 S
O265 Tb260 2.374 1_554 S
O265 C261 1.251 . S
C266 O270 1.275 . S
C266 O271 1.246 . S
O267 C261 1.263 . S
O267 Tb262 2.353 . S
C268 O272 1.245 . S
C268 O273 1.259 . S
C269 O274 1.250 . S
C269 O275 1.263 . S
O270 Tb262 2.427 . S
O270 C266 1.275 . S
O271 Tb262 2.513 . S
O271 C266 1.246 . S
O272 Tb262 2.453 . S
O272 C268 1.245 . S
O273 Tb260 2.343 1_554 S
O273 Tb262 2.596 . S
O273 C268 1.259 . S
O274 Tb262 2.374 1_556 S
O274 C269 1.250 . S
O275 Tb260 2.353 . S
O275 C269 1.263 . S
C276 O277 1.275 . S
C276 O278 1.246 . S
O277 Tb260 2.427 . S
O277 C276 1.275 . S
O278 Tb260 2.513 . S
O278 C276 1.246 . S
C279 O263 1.245 . S
C279 O264 1.259 1_556 S
Tb280 O283 2.453 . S
Tb280 O284 2.596 . S
Tb280 O285 2.374 . S
Tb280 O293 2.343 1_565 S
Tb280 O295 2.353 1_565 S
Tb280 O297 2.427 1_565 S
Tb280 O298 2.513 . S
C281 O285 1.251 . S
C281 O287 1.263 . S
Tb282 O284 2.343 1_545 S
Tb282 O287 2.353 1_545 S
Tb282 O290 2.427 . S
Tb282 O291 2.513 . S
Tb282 O292 2.453 . S
Tb282 O293 2.596 . S
Tb282 O294 2.374 . S
O283 Tb280 2.453 . S
O283 C299 1.245 . S
O284 Tb280 2.596 . S
O284 Tb282 2.343 1_565 S
O284 C299 1.259 . S
O285 Tb280 2.374 . S
O285 C281 1.251 . S
C286 O290 1.275 . S
C286 O291 1.246 . S
O287 C281 1.263 . S
O287 Tb282 2.353 1_565 S
C288 O292 1.245 . S
C288 O293 1.259 . S
C289 O294 1.250 . S
C289 O295 1.263 . S
O290 Tb282 2.427 . S
O290 C286 1.275 . S
O291 Tb282 2.513 . S
O291 C286 1.246 . S
O292 Tb282 2.453 . S
O292 C288 1.245 . S
O293 Tb280 2.343 1_545 S
O293 Tb282 2.596 . S
O293 C288 1.259 . S
O294 Tb282 2.374 . S
O294 C289 1.250 . S
O295 Tb280 2.353 1_545 S
O295 C289 1.263 . S
C296 O297 1.275 . S
C296 O298 1.246 1_545 S
O297 Tb280 2.427 1_545 S
O297 C296 1.275 . S
O298 Tb280 2.513 . S
O298 C296 1.246 1_565 S
C299 O283 1.245 . S
C299 O284 1.259 . S
Tb300 O303 2.453 . S
Tb300 O304 2.596 1_556 S
Tb300 O305 2.374 1_556 S
Tb300 O313 2.356 . S
Tb300 O315 2.353 . S
Tb300 O317 2.427 . S
Tb300 O318 2.513 . S
C301 O305 1.251 . S
C301 O307 1.263 . S
Tb302 O304 2.343 . S
Tb302 O307 2.353 . S
Tb302 O310 2.427 . S
Tb302 O311 2.513 . S
Tb302 O312 2.453 . S
Tb302 O313 2.582 1_554 S
Tb302 O314 2.374 1_554 S
O303 Tb300 2.453 . S
O303 C319 1.211 1_556 S
O304 Tb300 2.596 1_554 S
O304 Tb302 2.343 . S
O304 C319 1.276 . S
O305 Tb300 2.374 1_554 S
O305 C301 1.251 . S
C306 O310 1.275 . S
C306 O311 1.246 . S
O307 C301 1.263 . S
O307 Tb302 2.353 . S
C308 O312 1.245 . S
C308 O313 1.250 1_554 S
C309 O314 1.250 . S
C309 O315 1.263 . S
O310 Tb302 2.427 . S
O310 C306 1.275 . S
O311 Tb302 2.513 . S
O311 C306 1.246 . S
O312 Tb302 2.453 . S
O312 C308 1.245 . S
O313 Tb300 2.356 . S
O313 Tb302 2.582 1_556 S
O313 C308 1.250 1_556 S
O314 Tb302 2.374 1_556 S
O314 C309 1.250 . S
O315 Tb300 2.353 . S
O315 C309 1.263 . S
C316 O317 1.275 . S
C316 O318 1.246 . S
O317 Tb300 2.427 . S
O317 C316 1.275 . S
O318 Tb300 2.513 . S
O318 C316 1.246 . S
C319 O303 1.211 1_554 S
C319 O304 1.276 . S
C320 C321 1.391 1_455 S
C320 C322 1.394 . S
C320 H336 0.931 . S
C321 C320 1.391 1_655 S
C321 C325 1.376 . S
C322 C320 1.394 . S
C322 C323 1.369 1_455 S
C322 C326 1.531 . S
C323 C322 1.369 1_655 S
C323 C324 1.410 . S
C323 C331 1.503 . S
C324 C323 1.410 . S
C324 C325 1.392 . S
C324 C327 1.511 . S
C325 C321 1.376 . S
C325 C324 1.392 . S
C325 H337 0.929 . S
C326 C322 1.531 . S
C326 H338 0.960 . S
C326 H339 0.962 . S
C326 H340 0.960 . S
C327 C324 1.511 . S
C327 H341 0.961 . S
C327 H342 0.961 . S
C327 H343 0.961 . S
C328 C329 1.371 . S
C328 C330 1.363 . S
C328 H344 0.931 . S
C329 C328 1.371 . S
C329 C333 1.408 1_655 S
C330 C328 1.363 . S
C330 C331 1.370 . S
C330 C334 1.524 . S
C331 C323 1.503 . S
C331 C330 1.370 . S
C331 C332 1.403 1_655 S
C332 C331 1.403 1_455 S
C332 C333 1.404 . S
C332 C335 1.539 . S
C333 C329 1.408 1_455 S
C333 C332 1.404 . S
C333 H345 0.930 . S
C334 C330 1.524 . S
C334 H346 0.956 . S
C334 H347 0.961 . S
C334 H348 0.961 . S
C335 C332 1.539 . S
C335 H349 0.958 . S
C335 H350 0.961 . S
C335 H351 0.960 . S
H336 C320 0.931 . S
H337 C325 0.929 . S
H338 C326 0.960 . S
H339 C326 0.962 . S
H340 C326 0.960 . S
H341 C327 0.961 . S
H342 C327 0.961 . S
H343 C327 0.961 . S
H344 C328 0.931 . S
H345 C333 0.930 . S
H346 C334 0.956 . S
H347 C334 0.961 . S
H348 C334 0.961 . S
H349 C335 0.958 . S
H350 C335 0.961 . S
H351 C335 0.960 . S
C352 C353 1.391 . S
C352 C354 1.394 . S
C352 H368 0.931 . S
C353 C352 1.391 . S
C353 C357 1.376 . S
C354 C352 1.394 . S
C354 C355 1.369 . S
C354 C358 1.531 . S
C355 C354 1.369 . S
C355 C356 1.410 . S
C355 C363 1.503 . S
C356 C355 1.410 . S
C356 C357 1.392 . S
C356 C359 1.511 . S
C357 C353 1.376 . S
C357 C356 1.392 . S
C357 H369 0.929 . S
C358 C354 1.531 . S
C358 H370 0.960 . S
C358 H371 0.962 . S
C358 H372 0.960 . S
C359 C356 1.511 . S
C359 H373 0.961 . S
C359 H374 0.961 . S
C359 H375 0.961 . S
C360 C361 1.370 . S
C360 C362 1.363 . S
C360 H376 0.931 . S
C361 C360 1.370 . S
C361 C365 1.408 . S
C362 C360 1.363 . S
C362 C363 1.370 . S
C362 C366 1.524 . S
C363 C355 1.503 . S
C363 C362 1.370 . S
C363 C364 1.403 . S
C364 C363 1.403 . S
C364 C365 1.404 . S
C364 C367 1.539 . S
C365 C361 1.408 . S
C365 C364 1.404 . S
C365 H377 0.930 . S
C366 C362 1.524 . S
C366 H378 0.956 . S
C366 H379 0.961 . S
C366 H380 0.961 . S
C367 C364 1.539 . S
C367 H381 0.958 . S
C367 H382 0.961 . S
C367 H383 0.960 . S
H368 C352 0.931 . S
H369 C357 0.929 . S
H370 C358 0.960 . S
H371 C358 0.962 . S
H372 C358 0.960 . S
H373 C359 0.961 . S
H374 C359 0.961 . S
H375 C359 0.961 . S
H376 C360 0.931 . S
H377 C365 0.930 . S
H378 C366 0.956 . S
H379 C366 0.961 . S
H380 C366 0.961 . S
H381 C367 0.958 . S
H382 C367 0.961 . S
H383 C367 0.960 . S
C384 C385 1.391 . S
C384 C386 1.394 . S
C384 H400 0.931 . S
C385 C384 1.391 . S
C385 C389 1.376 . S
C386 C384 1.394 . S
C386 C387 1.369 . S
C386 C390 1.531 . S
C387 C386 1.369 . S
C387 C388 1.410 . S
C387 C395 1.503 . S
C388 C387 1.410 . S
C388 C389 1.392 . S
C388 C391 1.511 . S
C389 C385 1.376 . S
C389 C388 1.392 . S
C389 H401 0.929 . S
C390 C386 1.531 . S
C390 H402 0.960 . S
C390 H403 0.962 . S
C390 H404 0.960 . S
C391 C388 1.511 . S
C391 H405 0.961 . S
C391 H406 0.961 . S
C391 H407 0.961 . S
C392 C393 1.370 . S
C392 C394 1.363 . S
C392 H408 0.931 . S
C393 C392 1.370 . S
C393 C397 1.408 . S
C394 C392 1.363 . S
C394 C395 1.370 . S
C394 C398 1.524 . S
C395 C387 1.503 . S
C395 C394 1.370 . S
C395 C396 1.403 . S
C396 C395 1.403 . S
C396 C397 1.404 . S
C396 C399 1.539 . S
C397 C393 1.408 . S
C397 C396 1.404 . S
C397 H409 0.930 . S
C398 C394 1.524 . S
C398 H410 0.956 . S
C398 H411 0.961 . S
C398 H412 0.961 . S
C399 C396 1.539 . S
C399 H413 0.958 . S
C399 H414 0.961 . S
C399 H415 0.960 . S
H400 C384 0.931 . S
H401 C389 0.929 . S
H402 C390 0.960 . S
H403 C390 0.962 . S
H404 C390 0.960 . S
H405 C391 0.961 . S
H406 C391 0.961 . S
H407 C391 0.961 . S
H408 C392 0.931 . S
H409 C397 0.930 . S
H410 C398 0.956 . S
H411 C398 0.961 . S
H412 C398 0.961 . S
H413 C399 0.958 . S
H414 C399 0.961 . S
H415 C399 0.960 . S
C416 C417 1.391 . S
C416 C418 1.394 . S
C416 H432 0.931 . S
C417 C416 1.391 . S
C417 C421 1.376 . S
C418 C416 1.394 . S
C418 C419 1.369 . S
C418 C422 1.531 . S
C419 C418 1.369 . S
C419 C420 1.410 . S
C419 C427 1.503 . S
C420 C419 1.410 . S
C420 C421 1.392 . S
C420 C423 1.511 1_545 S
C421 C417 1.376 . S
C421 C420 1.392 . S
C421 H433 0.916 1_545 S
C422 C418 1.531 . S
C422 H434 0.960 . S
C422 H435 0.962 . S
C422 H436 0.960 . S
C423 C420 1.511 1_565 S
C423 H437 0.961 . S
C423 H438 0.961 . S
C423 H439 0.961 1_565 S
C424 C425 1.370 . S
C424 C426 1.363 . S
C424 H440 0.931 1_545 S
C425 C424 1.370 . S
C425 C429 1.408 . S
C426 C424 1.363 . S
C426 C427 1.370 . S
C426 C430 1.524 1_545 S
C427 C419 1.503 . S
C427 C426 1.370 . S
C427 C428 1.403 . S
C428 C427 1.403 . S
C428 C429 1.404 . S
C428 C431 1.539 . S
C429 C425 1.408 . S
C429 C428 1.404 . S
C429 H441 0.930 . S
C430 C426 1.524 1_565 S
C430 H442 0.956 1_565 S
C430 H443 0.961 . S
C430 H444 0.961 . S
C431 C428 1.539 . S
C431 H445 0.958 . S
C431 H446 0.961 . S
C431 H447 0.960 . S
H432 C416 0.931 . S
H433 C421 0.916 1_565 S
H434 C422 0.960 . S
H435 C422 0.962 . S
H436 C422 0.960 . S
H437 C423 0.961 . S
H438 C423 0.961 . S
H439 C423 0.961 1_545 S
H440 C424 0.931 1_565 S
H441 C429 0.930 . S
H442 C430 0.956 1_545 S
H443 C430 0.961 . S
H444 C430 0.961 . S
H445 C431 0.958 . S
H446 C431 0.961 . S
H447 C431 0.960 . S
C448 C449 1.391 . S
C448 C450 1.394 . S
C448 H464 0.931 . S
C449 C448 1.391 . S
C449 C453 1.376 1_565 S
C450 C448 1.394 . S
C450 C451 1.369 . S
C450 C454 1.531 . S
C451 C450 1.369 . S
C451 C452 1.410 1_565 S
C451 C459 1.503 . S
C452 C451 1.410 1_545 S
C452 C453 1.392 . S
C452 C455 1.511 . S
C453 C449 1.376 1_545 S
C453 C452 1.392 . S
C453 H465 0.929 . S
C454 C450 1.531 . S
C454 H466 0.960 . S
C454 H467 0.962 . S
C454 H468 0.960 . S
C455 C452 1.511 . S
C455 H469 0.961 . S
C455 H470 0.961 . S
C455 H471 0.961 1_545 S
C456 C457 1.370 . S
C456 C458 1.363 . S
C456 H472 0.931 . S
C457 C456 1.370 . S
C457 C461 1.408 1_545 S
C458 C456 1.363 . S
C458 C459 1.370 1_545 S
C458 C462 1.524 . S
C459 C451 1.503 . S
C459 C458 1.370 1_565 S
C459 C460 1.403 . S
C460 C459 1.403 . S
C460 C461 1.404 . S
C460 C463 1.539 . S
C461 C457 1.408 1_565 S
C461 C460 1.404 . S
C461 H473 0.930 . S
C462 C458 1.524 . S
C462 H474 0.956 . S
C462 H475 0.961 . S
C462 H476 0.961 . S
C463 C460 1.539 . S
C463 H477 0.958 . S
C463 H478 0.961 . S
C463 H479 0.960 . S
H464 C448 0.931 . S
H465 C453 0.929 . S
H466 C454 0.960 . S
H467 C454 0.962 . S
H468 C454 0.960 . S
H469 C455 0.961 . S
H470 C455 0.961 . S
H471 C455 0.961 1_565 S
H472 C456 0.931 . S
H473 C461 0.930 . S
H474 C462 0.956 . S
H475 C462 0.961 . S
H476 C462 0.961 . S
H477 C463 0.958 . S
H478 C463 0.961 . S
H479 C463 0.960 . S
C480 C481 1.391 . S
C480 C482 1.394 . S
C480 H496 0.931 . S
C481 C480 1.391 . S
C481 C485 1.376 1_455 S
C482 C480 1.394 . S
C482 C483 1.369 . S
C482 C486 1.531 . S
C483 C482 1.369 . S
C483 C484 1.410 1_455 S
C483 C491 1.503 . S
C484 C483 1.410 1_655 S
C484 C485 1.392 . S
C484 C487 1.511 . S
C485 C481 1.376 1_655 S
C485 C484 1.392 . S
C485 H497 0.929 . S
C486 C482 1.531 . S
C486 H498 0.960 . S
C486 H499 0.962 . S
C486 H500 0.960 . S
C487 C484 1.511 . S
C487 H501 0.961 . S
C487 H502 0.961 . S
C487 H503 0.961 . S
C488 C489 1.370 . S
C488 C490 1.363 . S
C488 H504 0.931 . S
C489 C488 1.370 . S
C489 C493 1.408 . S
C490 C488 1.363 . S
C490 C491 1.370 . S
C490 C494 1.524 . S
C491 C483 1.503 . S
C491 C490 1.370 . S
C491 C492 1.403 . S
C492 C491 1.403 . S
C492 C493 1.404 . S
C492 C495 1.539 . S
C493 C489 1.408 . S
C493 C492 1.404 . S
C493 H505 0.930 . S
C494 C490 1.524 . S
C494 H506 0.956 . S
C494 H507 0.961 1_455 S
C494 H508 0.961 1_455 S
C495 C492 1.539 . S
C495 H509 0.958 . S
C495 H510 0.961 . S
C495 H511 0.960 . S
H496 C480 0.931 . S
H497 C485 0.929 . S
H498 C486 0.960 . S
H499 C486 0.962 . S
H500 C486 0.960 . S
H501 C487 0.961 . S
H502 C487 0.961 . S
H503 C487 0.961 . S
H504 C488 0.931 . S
H505 C493 0.930 . S
H506 C494 0.956 . S
H507 C494 0.961 1_655 S
H508 C494 0.961 1_655 S
H509 C495 0.958 . S
H510 C495 0.961 . S
H511 C495 0.960 . S
C512 C513 1.391 . S
C512 C514 1.394 . S
C512 H528 0.931 . S
C513 C512 1.391 . S
C513 C517 1.376 . S
C514 C512 1.394 . S
C514 C515 1.369 . S
C514 C518 1.531 . S
C515 C514 1.369 . S
C515 C516 1.410 . S
C515 C523 1.503 . S
C516 C515 1.410 . S
C516 C517 1.392 . S
C516 C519 1.511 . S
C517 C513 1.376 . S
C517 C516 1.392 . S
C517 H529 0.929 . S
C518 C514 1.531 . S
C518 H530 0.960 . S
C518 H531 0.962 . S
C518 H532 0.960 . S
C519 C516 1.511 . S
C519 H533 0.961 . S
C519 H534 0.961 . S
C519 H535 0.961 . S
C520 C521 1.370 . S
C520 C522 1.363 . S
C520 H536 0.931 . S
C521 C520 1.370 . S
C521 C525 1.408 . S
C522 C520 1.363 . S
C522 C523 1.370 . S
C522 C526 1.524 . S
C523 C515 1.503 . S
C523 C522 1.370 . S
C523 C524 1.403 . S
C524 C523 1.403 . S
C524 C525 1.404 . S
C524 C527 1.539 . S
C525 C521 1.408 . S
C525 C524 1.404 . S
C525 H537 0.930 . S
C526 C522 1.524 . S
C526 H538 0.956 . S
C526 H539 0.961 . S
C526 H540 0.961 . S
C527 C524 1.539 . S
C527 H541 0.958 . S
C527 H542 0.961 . S
C527 H543 0.960 . S
H528 C512 0.931 . S
H529 C517 0.929 . S
H530 C518 0.960 . S
H531 C518 0.962 . S
H532 C518 0.960 . S
H533 C519 0.961 . S
H534 C519 0.961 . S
H535 C519 0.961 . S
H536 C520 0.931 . S
H537 C525 0.930 . S
H538 C526 0.956 . S
H539 C526 0.961 . S
H540 C526 0.961 . S
H541 C527 0.958 . S
H542 C527 0.961 . S
H543 C527 0.960 . S
C544 C545 1.391 . S
C544 C546 1.394 . S
C544 H560 0.931 . S
C545 C544 1.391 . S
C545 C549 1.376 . S
C546 C544 1.394 . S
C546 C547 1.369 . S
C546 C550 1.531 . S
C547 C546 1.369 . S
C547 C548 1.410 . S
C547 C555 1.503 . S
C548 C547 1.410 . S
C548 C549 1.392 . S
C548 C551 1.511 . S
C549 C545 1.376 . S
C549 C548 1.392 . S
C549 H561 0.929 . S
C550 C546 1.531 . S
C550 H562 0.960 . S
C550 H563 0.962 . S
C550 H564 0.960 . S
C551 C548 1.511 . S
C551 H565 0.961 . S
C551 H566 0.961 . S
C551 H567 0.961 . S
C552 C553 1.370 . S
C552 C554 1.363 . S
C552 H568 0.931 . S
C553 C552 1.370 . S
C553 C557 1.408 . S
C554 C552 1.363 . S
C554 C555 1.370 . S
C554 C558 1.524 . S
C555 C547 1.503 . S
C555 C554 1.370 . S
C555 C556 1.403 . S
C556 C555 1.403 . S
C556 C557 1.404 . S
C556 C559 1.539 . S
C557 C553 1.408 . S
C557 C556 1.404 . S
C557 H569 0.930 . S
C558 C554 1.524 . S
C558 H570 0.956 . S
C558 H571 0.961 . S
C558 H572 0.961 . S
C559 C556 1.539 . S
C559 H573 0.958 . S
C559 H574 0.961 . S
C559 H575 0.960 . S
H560 C544 0.931 . S
H561 C549 0.929 . S
H562 C550 0.960 . S
H563 C550 0.962 . S
H564 C550 0.960 . S
H565 C551 0.961 . S
H566 C551 0.961 . S
H567 C551 0.961 . S
H568 C552 0.931 . S
H569 C557 0.930 . S
H570 C558 0.956 . S
H571 C558 0.961 . S
H572 C558 0.961 . S
H573 C559 0.958 . S
H574 C559 0.961 . S
H575 C559 0.960 . S
C576 C577 1.391 . S
C576 C578 1.394 . S
C576 H592 0.931 . S
C577 C576 1.391 . S
C577 C581 1.376 . S
C578 C576 1.394 . S
C578 C579 1.369 . S
C578 C582 1.531 . S
C579 C578 1.369 . S
C579 C580 1.410 . S
C579 C587 1.503 . S
C580 C579 1.410 . S
C580 C581 1.392 . S
C580 C583 1.511 . S
C581 C577 1.376 . S
C581 C580 1.392 . S
C581 H593 0.929 . S
C582 C578 1.531 . S
C582 H594 0.960 . S
C582 H595 0.962 . S
C582 H596 0.960 . S
C583 C580 1.511 . S
C583 H597 0.961 . S
C583 H598 0.961 . S
C583 H599 0.961 . S
C584 C585 1.370 . S
C584 C586 1.363 . S
C584 H600 0.931 . S
C585 C584 1.370 . S
C585 C589 1.408 . S
C586 C584 1.363 . S
C586 C587 1.370 . S
C586 C590 1.524 . S
C587 C579 1.503 . S
C587 C586 1.370 . S
C587 C588 1.403 . S
C588 C587 1.403 . S
C588 C589 1.404 . S
C588 C591 1.539 . S
C589 C585 1.408 . S
C589 C588 1.404 . S
C589 H601 0.930 . S
C590 C586 1.524 . S
C590 H602 0.956 . S
C590 H603 0.961 . S
C590 H604 0.961 . S
C591 C588 1.539 . S
C591 H605 0.958 . S
C591 H606 0.961 . S
C591 H607 0.960 . S
H592 C576 0.931 . S
H593 C581 0.929 . S
H594 C582 0.960 . S
H595 C582 0.962 . S
H596 C582 0.960 . S
H597 C583 0.961 . S
H598 C583 0.961 . S
H599 C583 0.961 . S
H600 C584 0.931 . S
H601 C589 0.930 . S
H602 C590 0.956 . S
H603 C590 0.961 . S
H604 C590 0.961 . S
H605 C591 0.958 . S
H606 C591 0.961 . S
H607 C591 0.960 . S
C608 C609 1.391 . S
C608 C610 1.394 . S
C608 H624 0.931 . S
C609 C608 1.391 . S
C609 C613 1.376 . S
C610 C608 1.394 . S
C610 C611 1.369 . S
C610 C614 1.531 . S
C611 C610 1.369 . S
C611 C612 1.410 . S
C611 C619 1.503 . S
C612 C611 1.410 . S
C612 C613 1.392 . S
C612 C615 1.511 . S
C613 C609 1.376 . S
C613 C612 1.392 . S
C613 H625 0.929 . S
C614 C610 1.531 . S
C614 H626 0.960 . S
C614 H627 0.962 . S
C614 H628 0.960 . S
C615 C612 1.511 . S
C615 H629 0.961 . S
C615 H630 0.961 . S
C615 H631 0.961 . S
C616 C617 1.370 . S
C616 C618 1.363 . S
C616 H632 0.931 . S
C617 C616 1.370 . S
C617 C621 1.408 . S
C618 C616 1.363 . S
C618 C619 1.370 . S
C618 C622 1.524 . S
C619 C611 1.503 . S
C619 C618 1.370 . S
C619 C620 1.403 . S
C620 C619 1.403 . S
C620 C621 1.404 . S
C620 C623 1.539 . S
C621 C617 1.408 . S
C621 C620 1.404 . S
C621 H633 0.930 . S
C622 C618 1.524 . S
C622 H634 0.956 . S
C622 H635 0.961 . S
C622 H636 0.961 . S
C623 C620 1.539 . S
C623 H637 0.958 . S
C623 H638 0.961 . S
C623 H639 0.960 . S
H624 C608 0.931 . S
H625 C613 0.929 . S
H626 C614 0.960 . S
H627 C614 0.962 . S
H628 C614 0.960 . S
H629 C615 0.961 . S
H630 C615 0.961 . S
H631 C615 0.961 . S
H632 C616 0.931 . S
H633 C621 0.930 . S
H634 C622 0.956 . S
H635 C622 0.961 . S
H636 C622 0.961 . S
H637 C623 0.958 . S
H638 C623 0.961 . S
H639 C623 0.960 . S
C640 C641 1.391 . S
C640 C642 1.394 . S
C640 H656 0.931 . S
C641 C640 1.391 . S
C641 C645 1.376 1_545 S
C642 C640 1.394 . S
C642 C643 1.369 . S
C642 C646 1.531 . S
C643 C642 1.369 . S
C643 C644 1.410 . S
C643 C651 1.503 . S
C644 C643 1.410 . S
C644 C645 1.392 1_545 S
C644 C647 1.511 1_545 S
C645 C641 1.376 1_565 S
C645 C644 1.392 1_565 S
C645 H657 0.929 . S
C646 C642 1.531 . S
C646 H658 0.960 . S
C646 H659 0.962 . S
C646 H660 0.960 . S
C647 C644 1.511 1_565 S
C647 H661 0.961 . S
C647 H662 0.961 . S
C647 H663 0.961 . S
C648 C649 1.383 . S
C648 C650 1.365 1_545 S
C648 H664 0.917 1_545 S
C649 C648 1.383 . S
C649 C653 1.408 . S
C650 C648 1.365 1_565 S
C650 C651 1.364 1_565 S
C650 C654 1.530 . S
C651 C643 1.503 . S
C651 C650 1.364 1_545 S
C651 C652 1.403 . S
C652 C651 1.403 . S
C652 C653 1.404 . S
C652 C655 1.539 . S
C653 C649 1.408 . S
C653 C652 1.404 . S
C653 H665 0.930 . S
C654 C650 1.530 . S
C654 H666 0.956 . S
C654 H667 0.961 . S
C654 H668 0.961 . S
C655 C652 1.539 . S
C655 H669 0.958 . S
C655 H670 0.961 . S
C655 H671 0.960 . S
H656 C640 0.931 . S
H657 C645 0.929 . S
H658 C646 0.960 . S
H659 C646 0.962 . S
H660 C646 0.960 . S
H661 C647 0.961 . S
H662 C647 0.961 . S
H663 C647 0.961 . S
H664 C648 0.917 1_565 S
H665 C653 0.930 . S
H666 C654 0.956 . S
H667 C654 0.961 . S
H668 C654 0.961 . S
H669 C655 0.958 . S
H670 C655 0.961 . S
H671 C655 0.960 . S
C672 C673 1.391 . S
C672 C674 1.394 . S
C672 H688 0.931 . S
C673 C672 1.391 . S
C673 C677 1.376 . S
C674 C672 1.394 . S
C674 C675 1.369 . S
C674 C678 1.531 . S
C675 C674 1.369 . S
C675 C676 1.410 . S
C675 C683 1.503 . S
C676 C675 1.410 . S
C676 C677 1.392 . S
C676 C679 1.511 . S
C677 C673 1.376 . S
C677 C676 1.392 . S
C677 H689 0.929 . S
C678 C674 1.531 . S
C678 H690 0.960 . S
C678 H691 0.962 . S
C678 H692 0.960 . S
C679 C676 1.511 . S
C679 H693 0.961 1_455 S
C679 H694 0.952 1_455 S
C679 H695 0.961 . S
C680 C681 1.370 1_655 S
C680 C682 1.363 . S
C680 H696 0.931 . S
C681 C680 1.370 1_455 S
C681 C685 1.408 . S
C682 C680 1.363 . S
C682 C683 1.370 1_655 S
C682 C686 1.524 . S
C683 C675 1.503 . S
C683 C682 1.370 1_455 S
C683 C684 1.403 . S
C684 C683 1.403 . S
C684 C685 1.404 . S
C684 C687 1.539 . S
C685 C681 1.408 . S
C685 C684 1.404 . S
C685 H697 0.930 . S
C686 C682 1.524 . S
C686 H698 0.956 . S
C686 H699 0.961 . S
C686 H700 0.961 . S
C687 C684 1.539 . S
C687 H701 0.958 . S
C687 H702 0.961 . S
C687 H703 0.960 . S
H688 C672 0.931 . S
H689 C677 0.929 . S
H690 C678 0.960 . S
H691 C678 0.962 . S
H692 C678 0.960 . S
H693 C679 0.961 1_655 S
H694 C679 0.952 1_655 S
H695 C679 0.961 . S
H696 C680 0.931 . S
H697 C685 0.930 . S
H698 C686 0.956 . S
H699 C686 0.961 . S
H700 C686 0.961 . S
H701 C687 0.958 . S
H702 C687 0.961 . S
H703 C687 0.960 . S
C704 C705 1.391 . S
C704 C706 1.394 . S
C704 H720 0.931 . S
C705 C704 1.391 . S
C705 C709 1.376 . S
C706 C704 1.394 . S
C706 C707 1.369 . S
C706 C710 1.531 . S
C707 C706 1.369 . S
C707 C708 1.410 1_554 S
C707 C715 1.505 . S
C708 C707 1.410 1_556 S
C708 C709 1.390 1_556 S
C708 C711 1.513 . S
C709 C705 1.376 . S
C709 C708 1.390 1_554 S
C709 H721 0.929 . S
C710 C706 1.531 . S
C710 H722 0.960 1_554 S
C710 H723 0.962 . S
C710 H724 0.960 1_554 S
C711 C708 1.513 . S
C711 H725 0.961 1_556 S
C711 H726 0.961 1_556 S
C711 H727 0.961 . S
C712 C713 1.370 . S
C712 C714 1.363 . S
C712 H728 0.931 . S
C713 C712 1.370 . S
C713 C717 1.408 1_554 S
C714 C712 1.363 . S
C714 C715 1.388 . S
C714 C718 1.524 . S
C715 C707 1.505 . S
C715 C714 1.388 . S
C715 C716 1.384 1_554 S
C716 C715 1.384 1_556 S
C716 C717 1.404 . S
C716 C719 1.539 . S
C717 C713 1.408 1_556 S
C717 C716 1.404 . S
C717 H729 0.930 . S
C718 C714 1.524 . S
C718 H730 0.956 . S
C718 H731 0.961 . S
C718 H732 0.961 . S
C719 C716 1.539 . S
C719 H733 0.958 . S
C719 H734 0.961 . S
C719 H735 0.960 . S
H720 C704 0.931 . S
H721 C709 0.929 . S
H722 C710 0.960 1_556 S
H723 C710 0.962 . S
H724 C710 0.960 1_556 S
H725 C711 0.961 1_554 S
H726 C711 0.961 1_554 S
H727 C711 0.961 . S
H728 C712 0.931 . S
H729 C717 0.930 . S
H730 C718 0.956 . S
H731 C718 0.961 . S
H732 C718 0.961 . S
H733 C719 0.958 . S
H734 C719 0.961 . S
H735 C719 0.960 . S
C736 C737 1.391 . S
C736 C738 1.394 . S
C736 H752 0.931 . S
C737 C736 1.391 . S
C737 C741 1.376 . S
C738 C736 1.394 . S
C738 C739 1.369 . S
C738 C742 1.531 . S
C739 C738 1.369 . S
C739 C740 1.410 . S
C739 C747 1.503 . S
C740 C739 1.410 . S
C740 C741 1.392 . S
C740 C743 1.511 . S
C741 C737 1.376 . S
C741 C740 1.392 . S
C741 H753 0.929 . S
C742 C738 1.531 . S
C742 H754 0.960 . S
C742 H755 0.962 . S
C742 H756 0.960 . S
C743 C740 1.511 . S
C743 H757 0.961 . S
C743 H758 0.961 . S
C743 H759 0.961 . S
C744 C745 1.370 . S
C744 C746 1.363 . S
C744 H760 0.931 . S
C745 C744 1.370 . S
C745 C749 1.408 . S
C746 C744 1.363 . S
C746 C747 1.370 . S
C746 C750 1.524 . S
C747 C739 1.503 . S
C747 C746 1.370 . S
C747 C748 1.403 . S
C748 C747 1.403 . S
C748 C749 1.404 . S
C748 C751 1.539 . S
C749 C745 1.408 . S
C749 C748 1.404 . S
C749 H761 0.930 . S
C750 C746 1.524 . S
C750 H762 0.956 . S
C750 H763 0.961 . S
C750 H764 0.961 . S
C751 C748 1.539 . S
C751 H765 0.958 . S
C751 H766 0.961 . S
C751 H767 0.960 . S
H752 C736 0.931 . S
H753 C741 0.929 . S
H754 C742 0.960 . S
H755 C742 0.962 . S
H756 C742 0.960 . S
H757 C743 0.961 . S
H758 C743 0.961 . S
H759 C743 0.961 . S
H760 C744 0.931 . S
H761 C749 0.930 . S
H762 C750 0.956 . S
H763 C750 0.961 . S
H764 C750 0.961 . S
H765 C751 0.958 . S
H766 C751 0.961 . S
H767 C751 0.960 . S
C768 C769 1.391 . S
C768 C770 1.394 . S
C768 H784 0.931 . S
C769 C768 1.391 . S
C769 C773 1.376 . S
C770 C768 1.394 . S
C770 C771 1.369 . S
C770 C774 1.531 . S
C771 C770 1.369 . S
C771 C772 1.410 . S
C771 C779 1.503 . S
C772 C771 1.410 . S
C772 C773 1.392 . S
C772 C775 1.511 . S
C773 C769 1.376 . S
C773 C772 1.392 . S
C773 H785 0.929 . S
C774 C770 1.531 . S
C774 H786 0.960 . S
C774 H787 0.962 . S
C774 H788 0.960 . S
C775 C772 1.511 . S
C775 H789 0.961 . S
C775 H790 0.961 . S
C775 H791 0.961 . S
C776 C777 1.370 . S
C776 C778 1.363 . S
C776 H792 0.931 . S
C777 C776 1.370 . S
C777 C781 1.408 . S
C778 C776 1.363 . S
C778 C779 1.370 . S
C778 C782 1.524 . S
C779 C771 1.503 . S
C779 C778 1.370 . S
C779 C780 1.403 . S
C780 C779 1.403 . S
C780 C781 1.404 . S
C780 C783 1.539 . S
C781 C777 1.408 . S
C781 C780 1.404 . S
C781 H793 0.930 . S
C782 C778 1.524 . S
C782 H794 0.956 . S
C782 H795 0.961 . S
C782 H796 0.961 . S
C783 C780 1.539 . S
C783 H797 0.958 . S
C783 H798 0.961 . S
C783 H799 0.960 . S
H784 C768 0.931 . S
H785 C773 0.929 . S
H786 C774 0.960 . S
H787 C774 0.962 . S
H788 C774 0.960 . S
H789 C775 0.961 . S
H790 C775 0.961 . S
H791 C775 0.961 . S
H792 C776 0.931 . S
H793 C781 0.930 . S
H794 C782 0.956 . S
H795 C782 0.961 . S
H796 C782 0.961 . S
H797 C783 0.958 . S
H798 C783 0.961 . S
H799 C783 0.960 . S
C800 C801 1.391 . S
C800 C802 1.394 . S
C800 H816 0.931 . S
C801 C800 1.391 . S
C801 C805 1.376 . S
C802 C800 1.394 . S
C802 C803 1.369 . S
C802 C806 1.531 . S
C803 C802 1.369 . S
C803 C804 1.410 . S
C803 C811 1.503 . S
C804 C803 1.410 . S
C804 C805 1.392 . S
C804 C807 1.511 . S
C805 C801 1.376 . S
C805 C804 1.392 . S
C805 H817 0.929 . S
C806 C802 1.531 . S
C806 H818 0.960 . S
C806 H819 0.962 . S
C806 H820 0.960 . S
C807 C804 1.511 . S
C807 H821 0.961 . S
C807 H822 0.961 . S
C807 H823 0.961 . S
C808 C809 1.370 . S
C808 C810 1.363 . S
C808 H824 0.931 . S
C809 C808 1.370 . S
C809 C813 1.408 . S
C810 C808 1.363 . S
C810 C811 1.370 . S
C810 C814 1.524 . S
C811 C803 1.503 . S
C811 C810 1.370 . S
C811 C812 1.403 . S
C812 C811 1.403 . S
C812 C813 1.404 . S
C812 C815 1.539 . S
C813 C809 1.408 . S
C813 C812 1.404 . S
C813 H825 0.930 . S
C814 C810 1.524 . S
C814 H826 0.956 . S
C814 H827 0.961 . S
C814 H828 0.961 . S
C815 C812 1.539 . S
C815 H829 0.958 . S
C815 H830 0.961 . S
C815 H831 0.960 . S
H816 C800 0.931 . S
H817 C805 0.929 . S
H818 C806 0.960 . S
H819 C806 0.962 . S
H820 C806 0.960 . S
H821 C807 0.961 . S
H822 C807 0.961 . S
H823 C807 0.961 . S
H824 C808 0.931 . S
H825 C813 0.930 . S
H826 C814 0.956 . S
H827 C814 0.961 . S
H828 C814 0.961 . S
H829 C815 0.958 . S
H830 C815 0.961 . S
H831 C815 0.960 . S
C832 C833 1.391 . S
C832 C834 1.394 . S
C832 H848 0.931 . S
C833 C832 1.391 . S
C833 C837 1.376 . S
C834 C832 1.394 . S
C834 C835 1.369 . S
C834 C838 1.531 . S
C835 C834 1.369 . S
C835 C836 1.410 . S
C835 C843 1.503 . S
C836 C835 1.410 . S
C836 C837 1.392 . S
C836 C839 1.511 . S
C837 C833 1.376 . S
C837 C836 1.392 . S
C837 H849 0.929 . S
C838 C834 1.531 . S
C838 H850 0.960 . S
C838 H851 0.962 . S
C838 H852 0.960 . S
C839 C836 1.511 . S
C839 H853 0.961 . S
C839 H854 0.961 . S
C839 H855 0.961 . S
C840 C841 1.370 . S
C840 C842 1.363 . S
C840 H856 0.931 . S
C841 C840 1.370 . S
C841 C845 1.408 . S
C842 C840 1.363 . S
C842 C843 1.370 . S
C842 C846 1.524 . S
C843 C835 1.503 . S
C843 C842 1.370 . S
C843 C844 1.403 . S
C844 C843 1.403 . S
C844 C845 1.404 . S
C844 C847 1.539 . S
C845 C841 1.408 . S
C845 C844 1.404 . S
C845 H857 0.930 . S
C846 C842 1.524 . S
C846 H858 0.956 . S
C846 H859 0.961 . S
C846 H860 0.961 . S
C847 C844 1.539 . S
C847 H861 0.958 . S
C847 H862 0.961 . S
C847 H863 0.960 . S
H848 C832 0.931 . S
H849 C837 0.929 . S
H850 C838 0.960 . S
H851 C838 0.962 . S
H852 C838 0.960 . S
H853 C839 0.961 . S
H854 C839 0.961 . S
H855 C839 0.961 . S
H856 C840 0.931 . S
H857 C845 0.930 . S
H858 C846 0.956 . S
H859 C846 0.961 . S
H860 C846 0.961 . S
H861 C847 0.958 . S
H862 C847 0.961 . S
H863 C847 0.960 . S
C864 C865 1.391 . S
C864 C866 1.394 . S
C864 H880 0.931 . S
C865 C864 1.391 . S
C865 C869 1.376 . S
C866 C864 1.394 . S
C866 C867 1.369 . S
C866 C870 1.531 . S
C867 C866 1.369 . S
C867 C868 1.410 . S
C867 C875 1.503 . S
C868 C867 1.410 . S
C868 C869 1.392 . S
C868 C871 1.511 . S
C869 C865 1.376 . S
C869 C868 1.392 . S
C869 H881 0.929 . S
C870 C866 1.531 . S
C870 H882 0.960 . S
C870 H883 0.962 . S
C870 H884 0.960 . S
C871 C868 1.511 . S
C871 H885 0.961 . S
C871 H886 0.961 . S
C871 H887 0.961 . S
C872 C873 1.370 . S
C872 C874 1.363 . S
C872 H888 0.931 . S
C873 C872 1.370 . S
C873 C877 1.408 . S
C874 C872 1.363 . S
C874 C875 1.370 . S
C874 C878 1.524 . S
C875 C867 1.503 . S
C875 C874 1.370 . S
C875 C876 1.403 . S
C876 C875 1.403 . S
C876 C877 1.404 . S
C876 C879 1.539 . S
C877 C873 1.408 . S
C877 C876 1.404 . S
C877 H889 0.930 . S
C878 C874 1.524 . S
C878 H890 0.956 . S
C878 H891 0.961 . S
C878 H892 0.961 . S
C879 C876 1.539 . S
C879 H893 0.958 . S
C879 H894 0.961 . S
C879 H895 0.960 . S
H880 C864 0.931 . S
H881 C869 0.929 . S
H882 C870 0.960 . S
H883 C870 0.962 . S
H884 C870 0.960 . S
H885 C871 0.961 . S
H886 C871 0.961 . S
H887 C871 0.961 . S
H888 C872 0.931 . S
H889 C877 0.930 . S
H890 C878 0.956 . S
H891 C878 0.961 . S
H892 C878 0.961 . S
H893 C879 0.958 . S
H894 C879 0.961 . S
H895 C879 0.960 . S
C896 C897 1.391 . S
C896 C898 1.394 . S
C896 H912 0.931 . S
C897 C896 1.391 . S
C897 C901 1.376 . S
C898 C896 1.394 . S
C898 C899 1.369 . S
C898 C902 1.531 . S
C899 C898 1.369 . S
C899 C900 1.410 . S
C899 C907 1.503 . S
C900 C899 1.410 . S
C900 C901 1.392 . S
C900 C903 1.511 . S
C901 C897 1.376 . S
C901 C900 1.392 . S
C901 H913 0.929 . S
C902 C898 1.531 . S
C902 H914 0.960 . S
C902 H915 0.962 . S
C902 H916 0.960 . S
C903 C900 1.511 . S
C903 H917 0.961 . S
C903 H918 0.961 . S
C903 H919 0.961 . S
C904 C905 1.370 . S
C904 C906 1.363 . S
C904 H920 0.931 . S
C905 C904 1.370 . S
C905 C909 1.408 . S
C906 C904 1.363 . S
C906 C907 1.370 . S
C906 C910 1.524 . S
C907 C899 1.503 . S
C907 C906 1.370 . S
C907 C908 1.403 . S
C908 C907 1.403 . S
C908 C909 1.404 . S
C908 C911 1.539 . S
C909 C905 1.408 . S
C909 C908 1.404 . S
C909 H921 0.930 . S
C910 C906 1.524 . S
C910 H922 0.956 . S
C910 H923 0.961 . S
C910 H924 0.961 . S
C911 C908 1.539 . S
C911 H925 0.958 . S
C911 H926 0.961 . S
C911 H927 0.960 . S
H912 C896 0.931 . S
H913 C901 0.929 . S
H914 C902 0.960 . S
H915 C902 0.962 . S
H916 C902 0.960 . S
H917 C903 0.961 . S
H918 C903 0.961 . S
H919 C903 0.961 . S
H920 C904 0.931 . S
H921 C909 0.930 . S
H922 C910 0.956 . S
H923 C910 0.961 . S
H924 C910 0.961 . S
H925 C911 0.958 . S
H926 C911 0.961 . S
H927 C911 0.960 . S
C928 C929 1.391 . S
C928 C930 1.394 . S
C928 H944 0.931 . S
C929 C928 1.391 . S
C929 C933 1.376 . S
C930 C928 1.394 . S
C930 C931 1.369 . S
C930 C934 1.531 . S
C931 C930 1.369 . S
C931 C932 1.410 . S
C931 C939 1.503 . S
C932 C931 1.410 . S
C932 C933 1.392 . S
C932 C935 1.511 . S
C933 C929 1.376 . S
C933 C932 1.392 . S
C933 H945 0.929 . S
C934 C930 1.531 . S
C934 H946 0.960 . S
C934 H947 0.962 . S
C934 H948 0.960 . S
C935 C932 1.511 . S
C935 H949 0.961 . S
C935 H950 0.961 . S
C935 H951 0.961 . S
C936 C937 1.370 . S
C936 C938 1.363 . S
C936 H952 0.931 . S
C937 C936 1.370 . S
C937 C941 1.408 . S
C938 C936 1.363 . S
C938 C939 1.370 . S
C938 C942 1.524 . S
C939 C931 1.503 . S
C939 C938 1.370 . S
C939 C940 1.403 . S
C940 C939 1.403 . S
C940 C941 1.404 . S
C940 C943 1.539 . S
C941 C937 1.408 . S
C941 C940 1.404 . S
C941 H953 0.930 . S
C942 C938 1.524 . S
C942 H954 0.956 . S
C942 H955 0.961 . S
C942 H956 0.961 . S
C943 C940 1.539 . S
C943 H957 0.958 . S
C943 H958 0.961 . S
C943 H959 0.960 . S
H944 C928 0.931 . S
H945 C933 0.929 . S
H946 C934 0.960 . S
H947 C934 0.962 . S
H948 C934 0.960 . S
H949 C935 0.961 . S
H950 C935 0.961 . S
H951 C935 0.961 . S
H952 C936 0.931 . S
H953 C941 0.930 . S
H954 C942 0.956 . S
H955 C942 0.961 . S
H956 C942 0.961 . S
H957 C943 0.958 . S
H958 C943 0.961 . S
H959 C943 0.960 . S
C960 C961 1.391 . S
C960 C962 1.394 . S
C960 H976 0.931 . S
C961 C960 1.391 . S
C961 C965 1.376 . S
C962 C960 1.394 . S
C962 C963 1.369 . S
C962 C966 1.531 . S
C963 C962 1.369 . S
C963 C964 1.410 . S
C963 C971 1.503 . S
C964 C963 1.410 . S
C964 C965 1.392 . S
C964 C967 1.511 . S
C965 C961 1.376 . S
C965 C964 1.392 . S
C965 H977 0.929 . S
C966 C962 1.531 . S
C966 H978 0.960 . S
C966 H979 0.962 . S
C966 H980 0.960 . S
C967 C964 1.511 . S
C967 H981 0.961 . S
C967 H982 0.961 . S
C967 H983 0.961 . S
C968 C969 1.370 . S
C968 C970 1.363 . S
C968 H984 0.931 . S
C969 C968 1.370 . S
C969 C973 1.408 . S
C970 C968 1.363 . S
C970 C971 1.370 . S
C970 C974 1.524 . S
C971 C963 1.503 . S
C971 C970 1.370 . S
C971 C972 1.403 . S
C972 C971 1.403 . S
C972 C973 1.404 . S
C972 C975 1.539 . S
C973 C969 1.408 . S
C973 C972 1.404 . S
C973 H985 0.930 . S
C974 C970 1.524 . S
C974 H986 0.956 . S
C974 H987 0.961 . S
C974 H988 0.961 . S
C975 C972 1.539 . S
C975 H989 0.958 . S
C975 H990 0.961 . S
C975 H991 0.960 . S
H976 C960 0.931 . S
H977 C965 0.929 . S
H978 C966 0.960 . S
H979 C966 0.962 . S
H980 C966 0.960 . S
H981 C967 0.961 . S
H982 C967 0.961 . S
H983 C967 0.961 . S
H984 C968 0.931 . S
H985 C973 0.930 . S
H986 C974 0.956 . S
H987 C974 0.961 . S
H988 C974 0.961 . S
H989 C975 0.958 . S
H990 C975 0.961 . S
H991 C975 0.960 . S
C992 C993 1.391 . S
C992 C994 1.394 . S
C992 H1008 0.931 . S
C993 C992 1.391 . S
C993 C997 1.376 1_655 S
C994 C992 1.394 . S
C994 C995 1.369 . S
C994 C998 1.531 . S
C995 C994 1.369 . S
C995 C996 1.410 1_655 S
C995 C1003 1.503 . S
C996 C995 1.410 1_455 S
C996 C997 1.392 . S
C996 C999 1.511 . S
C997 C993 1.376 1_455 S
C997 C996 1.392 . S
C997 H1009 0.929 . S
C998 C994 1.531 . S
C998 H1010 0.960 . S
C998 H1011 0.962 . S
C998 H1012 0.960 . S
C999 C996 1.511 . S
C999 H1013 0.961 . S
C999 H1014 0.961 . S
C999 H1015 0.961 . S
C1000 C1001 1.370 . S
C1000 C1002 1.363 . S
C1000 H1016 0.931 . S
C1001 C1000 1.370 . S
C1001 C1005 1.408 1_655 S
C1002 C1000 1.363 . S
C1002 C1003 1.370 . S
C1002 C1006 1.524 . S
C1003 C995 1.503 . S
C1003 C1002 1.370 . S
C1003 C1004 1.403 1_655 S
C1004 C1003 1.403 1_455 S
C1004 C1005 1.404 . S
C1004 C1007 1.539 . S
C1005 C1001 1.408 1_455 S
C1005 C1004 1.404 . S
C1005 H1017 0.930 . S
C1006 C1002 1.524 . S
C1006 H1018 0.956 . S
C1006 H1019 0.961 . S
C1006 H1020 0.961 . S
C1007 C1004 1.539 . S
C1007 H1021 0.958 . S
C1007 H1022 0.961 . S
C1007 H1023 0.960 . S
H1008 C992 0.931 . S
H1009 C997 0.929 . S
H1010 C998 0.960 . S
H1011 C998 0.962 . S
H1012 C998 0.960 . S
H1013 C999 0.961 . S
H1014 C999 0.961 . S
H1015 C999 0.961 . S
H1016 C1000 0.931 . S
H1017 C1005 0.930 . S
H1018 C1006 0.956 . S
H1019 C1006 0.961 . S
H1020 C1006 0.961 . S
H1021 C1007 0.958 . S
H1022 C1007 0.961 . S
H1023 C1007 0.960 . S
C1024 C1025 1.391 . S
C1024 C1026 1.394 . S
C1024 H1040 0.931 . S
C1025 C1024 1.391 . S
C1025 C1029 1.376 . S
C1026 C1024 1.394 . S
C1026 C1027 1.369 . S
C1026 C1030 1.531 . S
C1027 C1026 1.369 . S
C1027 C1028 1.410 . S
C1027 C1035 1.503 . S
C1028 C1027 1.410 . S
C1028 C1029 1.392 . S
C1028 C1031 1.511 . S
C1029 C1025 1.376 . S
C1029 C1028 1.392 . S
C1029 H1041 0.929 . S
C1030 C1026 1.531 . S
C1030 H1042 0.960 . S
C1030 H1043 0.962 . S
C1030 H1044 0.960 . S
C1031 C1028 1.511 . S
C1031 H1045 0.961 . S
C1031 H1046 0.961 . S
C1031 H1047 0.961 . S
C1032 C1033 1.370 . S
C1032 C1034 1.363 . S
C1032 H1048 0.931 . S
C1033 C1032 1.370 . S
C1033 C1037 1.408 . S
C1034 C1032 1.363 . S
C1034 C1035 1.370 . S
C1034 C1038 1.524 . S
C1035 C1027 1.503 . S
C1035 C1034 1.370 . S
C1035 C1036 1.403 . S
C1036 C1035 1.403 . S
C1036 C1037 1.404 . S
C1036 C1039 1.539 . S
C1037 C1033 1.408 . S
C1037 C1036 1.404 . S
C1037 H1049 0.930 . S
C1038 C1034 1.524 . S
C1038 H1050 0.956 . S
C1038 H1051 0.961 . S
C1038 H1052 0.961 . S
C1039 C1036 1.539 . S
C1039 H1053 0.958 . S
C1039 H1054 0.961 . S
C1039 H1055 0.960 . S
H1040 C1024 0.931 . S
H1041 C1029 0.929 . S
H1042 C1030 0.960 . S
H1043 C1030 0.962 . S
H1044 C1030 0.960 . S
H1045 C1031 0.961 . S
H1046 C1031 0.961 . S
H1047 C1031 0.961 . S
H1048 C1032 0.931 . S
H1049 C1037 0.930 . S
H1050 C1038 0.956 . S
H1051 C1038 0.961 . S
H1052 C1038 0.961 . S
H1053 C1039 0.958 . S
H1054 C1039 0.961 . S
H1055 C1039 0.960 . S
C1056 C1057 1.391 . S
C1056 C1058 1.394 . S
C1056 H1072 0.931 . S
C1057 C1056 1.391 . S
C1057 C1061 1.376 . S
C1058 C1056 1.394 . S
C1058 C1059 1.369 . S
C1058 C1062 1.531 . S
C1059 C1058 1.369 . S
C1059 C1060 1.410 . S
C1059 C1067 1.503 . S
C1060 C1059 1.410 . S
C1060 C1061 1.392 . S
C1060 C1063 1.511 . S
C1061 C1057 1.376 . S
C1061 C1060 1.392 . S
C1061 H1073 0.929 . S
C1062 C1058 1.531 . S
C1062 H1074 0.960 . S
C1062 H1075 0.962 . S
C1062 H1076 0.960 . S
C1063 C1060 1.511 . S
C1063 H1077 0.961 . S
C1063 H1078 0.961 . S
C1063 H1079 0.961 . S
C1064 C1065 1.370 . S
C1064 C1066 1.363 . S
C1064 H1080 0.931 . S
C1065 C1064 1.370 . S
C1065 C1069 1.408 . S
C1066 C1064 1.363 . S
C1066 C1067 1.370 . S
C1066 C1070 1.524 . S
C1067 C1059 1.503 . S
C1067 C1066 1.370 . S
C1067 C1068 1.403 . S
C1068 C1067 1.403 . S
C1068 C1069 1.404 . S
C1068 C1071 1.539 . S
C1069 C1065 1.408 . S
C1069 C1068 1.404 . S
C1069 H1081 0.930 . S
C1070 C1066 1.524 . S
C1070 H1082 0.956 . S
C1070 H1083 0.961 . S
C1070 H1084 0.961 . S
C1071 C1068 1.539 . S
C1071 H1085 0.958 . S
C1071 H1086 0.961 . S
C1071 H1087 0.960 . S
H1072 C1056 0.931 . S
H1073 C1061 0.929 . S
H1074 C1062 0.960 . S
H1075 C1062 0.962 . S
H1076 C1062 0.960 . S
H1077 C1063 0.961 . S
H1078 C1063 0.961 . S
H1079 C1063 0.961 . S
H1080 C1064 0.931 . S
H1081 C1069 0.930 . S
H1082 C1070 0.956 . S
H1083 C1070 0.961 . S
H1084 C1070 0.961 . S
H1085 C1071 0.958 . S
H1086 C1071 0.961 . S
H1087 C1071 0.960 . S
C1088 C1089 1.391 . S
C1088 C1090 1.394 . S
C1088 H1104 0.931 . S
C1089 C1088 1.391 . S
C1089 C1093 1.376 . S
C1090 C1088 1.394 . S
C1090 C1091 1.369 . S
C1090 C1094 1.531 . S
C1091 C1090 1.369 . S
C1091 C1092 1.410 . S
C1091 C1099 1.503 . S
C1092 C1091 1.410 . S
C1092 C1093 1.392 . S
C1092 C1095 1.511 . S
C1093 C1089 1.376 . S
C1093 C1092 1.392 . S
C1093 H1105 0.929 . S
C1094 C1090 1.531 . S
C1094 H1106 0.960 . S
C1094 H1107 0.962 . S
C1094 H1108 0.960 . S
C1095 C1092 1.511 . S
C1095 H1109 0.961 . S
C1095 H1110 0.961 . S
C1095 H1111 0.961 . S
C1096 C1097 1.370 . S
C1096 C1098 1.363 . S
C1096 H1112 0.931 . S
C1097 C1096 1.370 . S
C1097 C1101 1.408 . S
C1098 C1096 1.363 . S
C1098 C1099 1.370 . S
C1098 C1102 1.524 . S
C1099 C1091 1.503 . S
C1099 C1098 1.370 . S
C1099 C1100 1.403 . S
C1100 C1099 1.403 . S
C1100 C1101 1.404 . S
C1100 C1103 1.539 . S
C1101 C1097 1.408 . S
C1101 C1100 1.404 . S
C1101 H1113 0.930 . S
C1102 C1098 1.524 . S
C1102 H1114 0.956 . S
C1102 H1115 0.961 . S
C1102 H1116 0.961 . S
C1103 C1100 1.539 . S
C1103 H1117 0.958 . S
C1103 H1118 0.961 . S
C1103 H1119 0.960 . S
H1104 C1088 0.931 . S
H1105 C1093 0.929 . S
H1106 C1094 0.960 . S
H1107 C1094 0.962 . S
H1108 C1094 0.960 . S
H1109 C1095 0.961 . S
H1110 C1095 0.961 . S
H1111 C1095 0.961 . S
H1112 C1096 0.931 . S
H1113 C1101 0.930 . S
H1114 C1102 0.956 . S
H1115 C1102 0.961 . S
H1116 C1102 0.961 . S
H1117 C1103 0.958 . S
H1118 C1103 0.961 . S
H1119 C1103 0.960 . S
C1120 C1121 1.391 . S
C1120 C1122 1.394 . S
C1120 H1136 0.931 . S
C1121 C1120 1.391 . S
C1121 C1125 1.376 . S
C1122 C1120 1.394 . S
C1122 C1123 1.369 . S
C1122 C1126 1.531 . S
C1123 C1122 1.369 . S
C1123 C1124 1.410 . S
C1123 C1131 1.503 . S
C1124 C1123 1.410 . S
C1124 C1125 1.392 . S
C1124 C1127 1.511 . S
C1125 C1121 1.376 . S
C1125 C1124 1.392 . S
C1125 H1137 0.929 . S
C1126 C1122 1.531 . S
C1126 H1138 0.960 . S
C1126 H1139 0.962 . S
C1126 H1140 0.960 . S
C1127 C1124 1.511 . S
C1127 H1141 0.961 . S
C1127 H1142 0.961 . S
C1127 H1143 0.961 . S
C1128 C1129 1.370 . S
C1128 C1130 1.363 . S
C1128 H1144 0.931 . S
C1129 C1128 1.370 . S
C1129 C1133 1.408 . S
C1130 C1128 1.363 . S
C1130 C1131 1.370 . S
C1130 C1134 1.524 . S
C1131 C1123 1.503 . S
C1131 C1130 1.370 . S
C1131 C1132 1.403 . S
C1132 C1131 1.403 . S
C1132 C1133 1.404 . S
C1132 C1135 1.539 . S
C1133 C1129 1.408 . S
C1133 C1132 1.404 . S
C1133 H1145 0.930 . S
C1134 C1130 1.524 . S
C1134 H1146 0.956 . S
C1134 H1147 0.961 . S
C1134 H1148 0.961 . S
C1135 C1132 1.539 . S
C1135 H1149 0.958 . S
C1135 H1150 0.961 . S
C1135 H1151 0.960 . S
H1136 C1120 0.931 . S
H1137 C1125 0.929 . S
H1138 C1126 0.960 . S
H1139 C1126 0.962 . S
H1140 C1126 0.960 . S
H1141 C1127 0.961 . S
H1142 C1127 0.961 . S
H1143 C1127 0.961 . S
H1144 C1128 0.931 . S
H1145 C1133 0.930 . S
H1146 C1134 0.956 . S
H1147 C1134 0.961 . S
H1148 C1134 0.961 . S
H1149 C1135 0.958 . S
H1150 C1135 0.961 . S
H1151 C1135 0.960 . S
C1152 C1153 1.391 . S
C1152 C1154 1.394 . S
C1152 H1168 0.931 . S
C1153 C1152 1.391 . S
C1153 C1157 1.376 . S
C1154 C1152 1.394 . S
C1154 C1155 1.369 . S
C1154 C1158 1.531 . S
C1155 C1154 1.369 . S
C1155 C1156 1.410 . S
C1155 C1163 1.503 . S
C1156 C1155 1.410 . S
C1156 C1157 1.392 . S
C1156 C1159 1.511 . S
C1157 C1153 1.376 . S
C1157 C1156 1.392 . S
C1157 H1169 0.929 . S
C1158 C1154 1.531 . S
C1158 H1170 0.960 . S
C1158 H1171 0.962 1_545 S
C1158 H1172 0.960 . S
C1159 C1156 1.511 . S
C1159 H1173 0.961 . S
C1159 H1174 0.961 . S
C1159 H1175 0.961 . S
C1160 C1161 1.370 1_565 S
C1160 C1162 1.363 . S
C1160 H1176 0.931 . S
C1161 C1160 1.370 1_545 S
C1161 C1165 1.408 . S
C1162 C1160 1.363 . S
C1162 C1163 1.370 1_565 S
C1162 C1166 1.524 . S
C1163 C1155 1.503 . S
C1163 C1162 1.370 1_545 S
C1163 C1164 1.403 . S
C1164 C1163 1.403 . S
C1164 C1165 1.404 . S
C1164 C1167 1.539 . S
C1165 C1161 1.408 . S
C1165 C1164 1.404 . S
C1165 H1177 0.930 . S
C1166 C1162 1.524 . S
C1166 H1178 0.956 . S
C1166 H1179 0.961 . S
C1166 H1180 0.961 . S
C1167 C1164 1.539 . S
C1167 H1181 0.958 . S
C1167 H1182 0.961 . S
C1167 H1183 0.960 . S
H1168 C1152 0.931 . S
H1169 C1157 0.929 . S
H1170 C1158 0.960 . S
H1171 C1158 0.962 1_565 S
H1172 C1158 0.960 . S
H1173 C1159 0.961 . S
H1174 C1159 0.961 . S
H1175 C1159 0.961 . S
H1176 C1160 0.931 . S
H1177 C1165 0.930 . S
H1178 C1166 0.956 . S
H1179 C1166 0.961 . S
H1180 C1166 0.961 . S
H1181 C1167 0.958 . S
H1182 C1167 0.961 . S
H1183 C1167 0.960 . S
C1184 C1185 1.391 . S
C1184 C1186 1.394 . S
C1184 H1200 0.931 . S
C1185 C1184 1.391 . S
C1185 C1189 1.376 1_554 S
C1186 C1184 1.394 . S
C1186 C1187 1.369 . S
C1186 C1190 1.531 . S
C1187 C1186 1.369 . S
C1187 C1188 1.410 1_554 S
C1187 C1195 1.503 . S
C1188 C1187 1.410 1_556 S
C1188 C1189 1.392 . S
C1188 C1191 1.511 . S
C1189 C1185 1.376 1_556 S
C1189 C1188 1.392 . S
C1189 H1201 0.929 . S
C1190 C1186 1.531 . S
C1190 H1202 0.960 . S
C1190 H1203 0.962 . S
C1190 H1204 0.960 . S
C1191 C1188 1.511 . S
C1191 H1205 0.961 . S
C1191 H1206 0.961 . S
C1191 H1207 0.961 . S
C1192 C1193 1.368 1_556 S
C1192 C1194 1.363 . S
C1192 H1208 0.931 . S
C1193 C1192 1.368 1_554 S
C1193 C1197 1.412 . S
C1194 C1192 1.363 . S
C1194 C1195 1.370 1_556 S
C1194 C1198 1.524 . S
C1195 C1187 1.503 . S
C1195 C1194 1.370 1_554 S
C1195 C1196 1.403 . S
C1196 C1195 1.403 . S
C1196 C1197 1.404 . S
C1196 C1199 1.539 . S
C1197 C1193 1.412 . S
C1197 C1196 1.404 . S
C1197 H1209 0.930 . S
C1198 C1194 1.524 . S
C1198 H1210 0.956 . S
C1198 H1211 0.961 . S
C1198 H1212 0.961 . S
C1199 C1196 1.539 . S
C1199 H1213 0.958 . S
C1199 H1214 0.961 . S
C1199 H1215 0.960 . S
H1200 C1184 0.931 . S
H1201 C1189 0.929 . S
H1202 C1190 0.960 . S
H1203 C1190 0.962 . S
H1204 C1190 0.960 . S
H1205 C1191 0.961 . S
H1206 C1191 0.961 . S
H1207 C1191 0.961 . S
H1208 C1192 0.931 . S
H1209 C1197 0.930 . S
H1210 C1198 0.956 . S
H1211 C1198 0.961 . S
H1212 C1198 0.961 . S
H1213 C1199 0.958 . S
H1214 C1199 0.961 . S
H1215 C1199 0.960 . S
C1216 C1217 1.391 . S
C1216 C1218 1.394 . S
C1216 H1232 0.931 . S
C1217 C1216 1.391 . S
C1217 C1221 1.376 . S
C1218 C1216 1.394 . S
C1218 C1219 1.369 . S
C1218 C1222 1.531 . S
C1219 C1218 1.369 . S
C1219 C1220 1.410 . S
C1219 C1227 1.503 . S
C1220 C1219 1.410 . S
C1220 C1221 1.392 . S
C1220 C1223 1.511 . S
C1221 C1217 1.376 . S
C1221 C1220 1.392 . S
C1221 H1233 0.929 . S
C1222 C1218 1.531 . S
C1222 H1234 0.960 . S
C1222 H1235 0.962 . S
C1222 H1236 0.960 . S
C1223 C1220 1.511 . S
C1223 H1237 0.961 . S
C1223 H1238 0.961 . S
C1223 H1239 0.961 . S
C1224 C1225 1.370 . S
C1224 C1226 1.363 . S
C1224 H1240 0.931 . S
C1225 C1224 1.370 . S
C1225 C1229 1.408 . S
C1226 C1224 1.363 . S
C1226 C1227 1.370 . S
C1226 C1230 1.524 . S
C1227 C1219 1.503 . S
C1227 C1226 1.370 . S
C1227 C1228 1.403 . S
C1228 C1227 1.403 . S
C1228 C1229 1.404 . S
C1228 C1231 1.539 . S
C1229 C1225 1.408 . S
C1229 C1228 1.404 . S
C1229 H1241 0.930 . S
C1230 C1226 1.524 . S
C1230 H1242 0.956 . S
C1230 H1243 0.961 . S
C1230 H1244 0.961 . S
C1231 C1228 1.539 . S
C1231 H1245 0.958 . S
C1231 H1246 0.961 . S
C1231 H1247 0.960 . S
H1232 C1216 0.931 . S
H1233 C1221 0.929 . S
H1234 C1222 0.960 . S
H1235 C1222 0.962 . S
H1236 C1222 0.960 . S
H1237 C1223 0.961 . S
H1238 C1223 0.961 . S
H1239 C1223 0.961 . S
H1240 C1224 0.931 . S
H1241 C1229 0.930 . S
H1242 C1230 0.956 . S
H1243 C1230 0.961 . S
H1244 C1230 0.961 . S
H1245 C1231 0.958 . S
H1246 C1231 0.961 . S
H1247 C1231 0.960 . S
C1248 C1249 1.391 . S
C1248 C1250 1.394 . S
C1248 H1264 0.931 . S
C1249 C1248 1.391 . S
C1249 C1253 1.376 . S
C1250 C1248 1.394 . S
C1250 C1251 1.369 . S
C1250 C1254 1.531 . S
C1251 C1250 1.369 . S
C1251 C1252 1.410 . S
C1251 C1259 1.503 . S
C1252 C1251 1.410 . S
C1252 C1253 1.392 . S
C1252 C1255 1.511 . S
C1253 C1249 1.376 . S
C1253 C1252 1.392 . S
C1253 H1265 0.929 . S
C1254 C1250 1.531 . S
C1254 H1266 0.960 . S
C1254 H1267 0.962 . S
C1254 H1268 0.960 . S
C1255 C1252 1.511 . S
C1255 H1269 0.961 . S
C1255 H1270 0.961 . S
C1255 H1271 0.961 . S
C1256 C1257 1.370 . S
C1256 C1258 1.363 . S
C1256 H1272 0.931 . S
C1257 C1256 1.370 . S
C1257 C1261 1.408 . S
C1258 C1256 1.363 . S
C1258 C1259 1.370 . S
C1258 C1262 1.524 . S
C1259 C1251 1.503 . S
C1259 C1258 1.370 . S
C1259 C1260 1.403 . S
C1260 C1259 1.403 . S
C1260 C1261 1.404 . S
C1260 C1263 1.539 . S
C1261 C1257 1.408 . S
C1261 C1260 1.404 . S
C1261 H1273 0.930 . S
C1262 C1258 1.524 . S
C1262 H1274 0.956 . S
C1262 H1275 0.961 . S
C1262 H1276 0.961 . S
C1263 C1260 1.539 . S
C1263 H1277 0.958 . S
C1263 H1278 0.961 . S
C1263 H1279 0.960 . S
H1264 C1248 0.931 . S
H1265 C1253 0.929 . S
H1266 C1254 0.960 . S
H1267 C1254 0.962 . S
H1268 C1254 0.960 . S
H1269 C1255 0.961 . S
H1270 C1255 0.961 . S
H1271 C1255 0.961 . S
H1272 C1256 0.931 . S
H1273 C1261 0.930 . S
H1274 C1262 0.956 . S
H1275 C1262 0.961 . S
H1276 C1262 0.961 . S
H1277 C1263 0.958 . S
H1278 C1263 0.961 . S
H1279 C1263 0.960 . S
C1280 C1281 1.391 . S
C1280 C1282 1.394 . S
C1280 H1296 0.931 . S
C1281 C1280 1.391 . S
C1281 C1285 1.376 . S
C1282 C1280 1.394 . S
C1282 C1283 1.369 . S
C1282 C1286 1.531 . S
C1283 C1282 1.369 . S
C1283 C1284 1.410 . S
C1283 C1291 1.503 . S
C1284 C1283 1.410 . S
C1284 C1285 1.392 . S
C1284 C1287 1.511 . S
C1285 C1281 1.376 . S
C1285 C1284 1.392 . S
C1285 H1297 0.929 . S
C1286 C1282 1.531 . S
C1286 H1298 0.960 . S
C1286 H1299 0.962 . S
C1286 H1300 0.960 . S
C1287 C1284 1.511 . S
C1287 H1301 0.961 . S
C1287 H1302 0.961 . S
C1287 H1303 0.961 . S
C1288 C1289 1.370 . S
C1288 C1290 1.363 . S
C1288 H1304 0.931 . S
C1289 C1288 1.370 . S
C1289 C1293 1.408 . S
C1290 C1288 1.363 . S
C1290 C1291 1.370 . S
C1290 C1294 1.524 . S
C1291 C1283 1.503 . S
C1291 C1290 1.370 . S
C1291 C1292 1.403 . S
C1292 C1291 1.403 . S
C1292 C1293 1.404 . S
C1292 C1295 1.539 . S
C1293 C1289 1.408 . S
C1293 C1292 1.404 . S
C1293 H1305 0.930 . S
C1294 C1290 1.524 . S
C1294 H1306 0.956 . S
C1294 H1307 0.961 . S
C1294 H1308 0.961 . S
C1295 C1292 1.539 . S
C1295 H1309 0.958 . S
C1295 H1310 0.961 . S
C1295 H1311 0.960 . S
H1296 C1280 0.931 . S
H1297 C1285 0.929 . S
H1298 C1286 0.960 . S
H1299 C1286 0.962 . S
H1300 C1286 0.960 . S
H1301 C1287 0.961 . S
H1302 C1287 0.961 . S
H1303 C1287 0.961 . S
H1304 C1288 0.931 . S
H1305 C1293 0.930 . S
H1306 C1294 0.956 . S
H1307 C1294 0.961 . S
H1308 C1294 0.961 . S
H1309 C1295 0.958 . S
H1310 C1295 0.961 . S
H1311 C1295 0.960 . S
C1312 C1313 1.391 . S
C1312 C1314 1.394 . S
C1312 H1328 0.931 . S
C1313 C1312 1.391 . S
C1313 C1317 1.376 . S
C1314 C1312 1.394 . S
C1314 C1315 1.369 . S
C1314 C1318 1.531 . S
C1315 C1314 1.369 . S
C1315 C1316 1.410 . S
C1315 C1323 1.503 . S
C1316 C1315 1.410 . S
C1316 C1317 1.392 . S
C1316 C1319 1.511 . S
C1317 C1313 1.376 . S
C1317 C1316 1.392 . S
C1317 H1329 0.929 . S
C1318 C1314 1.531 . S
C1318 H1330 0.960 . S
C1318 H1331 0.962 . S
C1318 H1332 0.960 . S
C1319 C1316 1.511 . S
C1319 H1333 0.961 . S
C1319 H1334 0.961 . S
C1319 H1335 0.961 . S
C1320 C1321 1.370 . S
C1320 C1322 1.363 . S
C1320 H1336 0.931 . S
C1321 C1320 1.370 . S
C1321 C1325 1.408 . S
C1322 C1320 1.363 . S
C1322 C1323 1.370 . S
C1322 C1326 1.524 . S
C1323 C1315 1.503 . S
C1323 C1322 1.370 . S
C1323 C1324 1.403 . S
C1324 C1323 1.403 . S
C1324 C1325 1.404 . S
C1324 C1327 1.539 . S
C1325 C1321 1.408 . S
C1325 C1324 1.404 . S
C1325 H1337 0.930 . S
C1326 C1322 1.524 . S
C1326 H1338 0.956 . S
C1326 H1339 0.961 . S
C1326 H1340 0.961 . S
C1327 C1324 1.539 . S
C1327 H1341 0.958 . S
C1327 H1342 0.961 . S
C1327 H1343 0.960 . S
H1328 C1312 0.931 . S
H1329 C1317 0.929 . S
H1330 C1318 0.960 . S
H1331 C1318 0.962 . S
H1332 C1318 0.960 . S
H1333 C1319 0.961 . S
H1334 C1319 0.961 . S
H1335 C1319 0.961 . S
H1336 C1320 0.931 . S
H1337 C1325 0.930 . S
H1338 C1326 0.956 . S
H1339 C1326 0.961 . S
H1340 C1326 0.961 . S
H1341 C1327 0.958 . S
H1342 C1327 0.961 . S
H1343 C1327 0.960 . S
C1344 C1345 1.391 . S
C1344 C1346 1.394 . S
C1344 H1360 0.931 . S
C1345 C1344 1.391 . S
C1345 C1349 1.376 . S
C1346 C1344 1.394 . S
C1346 C1347 1.369 . S
C1346 C1350 1.531 . S
C1347 C1346 1.369 . S
C1347 C1348 1.410 . S
C1347 C1355 1.503 . S
C1348 C1347 1.410 . S
C1348 C1349 1.392 . S
C1348 C1351 1.511 . S
C1349 C1345 1.376 . S
C1349 C1348 1.392 . S
C1349 H1361 0.929 . S
C1350 C1346 1.531 . S
C1350 H1362 0.960 . S
C1350 H1363 0.962 . S
C1350 H1364 0.960 . S
C1351 C1348 1.511 . S
C1351 H1365 0.961 . S
C1351 H1366 0.961 . S
C1351 H1367 0.961 . S
C1352 C1353 1.370 . S
C1352 C1354 1.363 . S
C1352 H1368 0.931 . S
C1353 C1352 1.370 . S
C1353 C1357 1.408 . S
C1354 C1352 1.363 . S
C1354 C1355 1.370 . S
C1354 C1358 1.524 . S
C1355 C1347 1.503 . S
C1355 C1354 1.370 . S
C1355 C1356 1.403 . S
C1356 C1355 1.403 . S
C1356 C1357 1.404 . S
C1356 C1359 1.539 . S
C1357 C1353 1.408 . S
C1357 C1356 1.404 . S
C1357 H1369 0.930 . S
C1358 C1354 1.524 . S
C1358 H1370 0.956 . S
C1358 H1371 0.961 . S
C1358 H1372 0.961 . S
C1359 C1356 1.539 . S
C1359 H1373 0.958 . S
C1359 H1374 0.961 . S
C1359 H1375 0.960 . S
H1360 C1344 0.931 . S
H1361 C1349 0.929 . S
H1362 C1350 0.960 . S
H1363 C1350 0.962 . S
H1364 C1350 0.960 . S
H1365 C1351 0.961 . S
H1366 C1351 0.961 . S
H1367 C1351 0.961 . S
H1368 C1352 0.931 . S
H1369 C1357 0.930 . S
H1370 C1358 0.956 . S
H1371 C1358 0.961 . S
H1372 C1358 0.961 . S
H1373 C1359 0.958 . S
H1374 C1359 0.961 . S
H1375 C1359 0.960 . S
C1376 C1377 1.391 . S
C1376 C1378 1.394 . S
C1376 H1392 0.931 . S
C1377 C1376 1.391 . S
C1377 C1381 1.376 . S
C1378 C1376 1.394 . S
C1378 C1379 1.369 . S
C1378 C1382 1.531 . S
C1379 C1378 1.369 . S
C1379 C1380 1.410 . S
C1379 C1387 1.503 . S
C1380 C1379 1.410 . S
C1380 C1381 1.392 . S
C1380 C1383 1.511 . S
C1381 C1377 1.376 . S
C1381 C1380 1.392 . S
C1381 H1393 0.929 . S
C1382 C1378 1.531 . S
C1382 H1394 0.960 . S
C1382 H1395 0.962 . S
C1382 H1396 0.960 . S
C1383 C1380 1.511 . S
C1383 H1397 0.961 . S
C1383 H1398 0.961 . S
C1383 H1399 0.961 . S
C1384 C1385 1.370 . S
C1384 C1386 1.363 . S
C1384 H1400 0.931 . S
C1385 C1384 1.370 . S
C1385 C1389 1.408 . S
C1386 C1384 1.363 . S
C1386 C1387 1.370 . S
C1386 C1390 1.524 . S
C1387 C1379 1.503 . S
C1387 C1386 1.370 . S
C1387 C1388 1.403 . S
C1388 C1387 1.403 . S
C1388 C1389 1.404 . S
C1388 C1391 1.539 . S
C1389 C1385 1.408 . S
C1389 C1388 1.404 . S
C1389 H1401 0.930 . S
C1390 C1386 1.524 . S
C1390 H1402 0.956 . S
C1390 H1403 0.961 . S
C1390 H1404 0.961 . S
C1391 C1388 1.539 . S
C1391 H1405 0.958 . S
C1391 H1406 0.961 . S
C1391 H1407 0.960 . S
H1392 C1376 0.931 . S
H1393 C1381 0.929 . S
H1394 C1382 0.960 . S
H1395 C1382 0.962 . S
H1396 C1382 0.960 . S
H1397 C1383 0.961 . S
H1398 C1383 0.961 . S
H1399 C1383 0.961 . S
H1400 C1384 0.931 . S
H1401 C1389 0.930 . S
H1402 C1390 0.956 . S
H1403 C1390 0.961 . S
H1404 C1390 0.961 . S
H1405 C1391 0.958 . S
H1406 C1391 0.961 . S
H1407 C1391 0.960 . S
C1408 C1409 1.391 . S
C1408 C1410 1.394 . S
C1408 H1424 0.931 . S
C1409 C1408 1.391 . S
C1409 C1413 1.376 . S
C1410 C1408 1.394 . S
C1410 C1411 1.369 . S
C1410 C1414 1.531 . S
C1411 C1410 1.369 . S
C1411 C1412 1.410 . S
C1411 C1419 1.503 . S
C1412 C1411 1.410 . S
C1412 C1413 1.392 . S
C1412 C1415 1.511 . S
C1413 C1409 1.376 . S
C1413 C1412 1.392 . S
C1413 H1425 0.929 . S
C1414 C1410 1.531 . S
C1414 H1426 0.960 . S
C1414 H1427 0.962 . S
C1414 H1428 0.960 . S
C1415 C1412 1.511 . S
C1415 H1429 0.961 . S
C1415 H1430 0.961 . S
C1415 H1431 0.961 . S
C1416 C1417 1.370 . S
C1416 C1418 1.363 . S
C1416 H1432 0.931 . S
C1417 C1416 1.370 . S
C1417 C1421 1.408 . S
C1418 C1416 1.363 . S
C1418 C1419 1.370 . S
C1418 C1422 1.524 . S
C1419 C1411 1.503 . S
C1419 C1418 1.370 . S
C1419 C1420 1.403 . S
C1420 C1419 1.403 . S
C1420 C1421 1.404 . S
C1420 C1423 1.539 . S
C1421 C1417 1.408 . S
C1421 C1420 1.404 . S
C1421 H1433 0.930 . S
C1422 C1418 1.524 . S
C1422 H1434 0.956 . S
C1422 H1435 0.961 . S
C1422 H1436 0.961 . S
C1423 C1420 1.539 . S
C1423 H1437 0.958 . S
C1423 H1438 0.961 . S
C1423 H1439 0.960 . S
H1424 C1408 0.931 . S
H1425 C1413 0.929 . S
H1426 C1414 0.960 . S
H1427 C1414 0.962 . S
H1428 C1414 0.960 . S
H1429 C1415 0.961 . S
H1430 C1415 0.961 . S
H1431 C1415 0.961 . S
H1432 C1416 0.931 . S
H1433 C1421 0.930 . S
H1434 C1422 0.956 . S
H1435 C1422 0.961 . S
H1436 C1422 0.961 . S
H1437 C1423 0.958 . S
H1438 C1423 0.961 . S
H1439 C1423 0.960 . S
C1440 C1441 1.391 . S
C1440 C1442 1.394 . S
C1440 H1456 0.931 . S
C1441 C1440 1.391 . S
C1441 C1445 1.376 . S
C1442 C1440 1.394 . S
C1442 C1443 1.369 . S
C1442 C1446 1.531 . S
C1443 C1442 1.369 . S
C1443 C1444 1.410 . S
C1443 C1451 1.503 . S
C1444 C1443 1.410 . S
C1444 C1445 1.392 . S
C1444 C1447 1.511 . S
C1445 C1441 1.376 . S
C1445 C1444 1.392 . S
C1445 H1457 0.929 . S
C1446 C1442 1.531 . S
C1446 H1458 0.960 . S
C1446 H1459 0.962 . S
C1446 H1460 0.960 . S
C1447 C1444 1.511 . S
C1447 H1461 0.961 . S
C1447 H1462 0.961 . S
C1447 H1463 0.961 . S
C1448 C1449 1.370 . S
C1448 C1450 1.363 . S
C1448 H1464 0.931 . S
C1449 C1448 1.370 . S
C1449 C1453 1.408 . S
C1450 C1448 1.363 . S
C1450 C1451 1.370 . S
C1450 C1454 1.524 . S
C1451 C1443 1.503 . S
C1451 C1450 1.370 . S
C1451 C1452 1.403 . S
C1452 C1451 1.403 . S
C1452 C1453 1.404 . S
C1452 C1455 1.539 . S
C1453 C1449 1.408 . S
C1453 C1452 1.404 . S
C1453 H1465 0.930 . S
C1454 C1450 1.524 . S
C1454 H1466 0.956 . S
C1454 H1467 0.961 . S
C1454 H1468 0.961 . S
C1455 C1452 1.539 . S
C1455 H1469 0.958 . S
C1455 H1470 0.961 . S
C1455 H1471 0.960 . S
H1456 C1440 0.931 . S
H1457 C1445 0.929 . S
H1458 C1446 0.960 . S
H1459 C1446 0.962 . S
H1460 C1446 0.960 . S
H1461 C1447 0.961 . S
H1462 C1447 0.961 . S
H1463 C1447 0.961 . S
H1464 C1448 0.931 . S
H1465 C1453 0.930 . S
H1466 C1454 0.956 . S
H1467 C1454 0.961 . S
H1468 C1454 0.961 . S
H1469 C1455 0.958 . S
H1470 C1455 0.961 . S
H1471 C1455 0.960 . S
C1472 C1473 1.391 . S
C1472 C1474 1.394 . S
C1472 H1488 0.931 . S
C1473 C1472 1.391 . S
C1473 C1477 1.376 . S
C1474 C1472 1.394 . S
C1474 C1475 1.369 . S
C1474 C1478 1.531 . S
C1475 C1474 1.369 . S
C1475 C1476 1.410 . S
C1475 C1483 1.503 . S
C1476 C1475 1.410 . S
C1476 C1477 1.392 . S
C1476 C1479 1.511 . S
C1477 C1473 1.376 . S
C1477 C1476 1.392 . S
C1477 H1489 0.929 . S
C1478 C1474 1.531 . S
C1478 H1490 0.960 . S
C1478 H1491 0.962 . S
C1478 H1492 0.960 . S
C1479 C1476 1.511 . S
C1479 H1493 0.961 . S
C1479 H1494 0.961 . S
C1479 H1495 0.961 . S
C1480 C1481 1.370 . S
C1480 C1482 1.363 . S
C1480 H1496 0.931 . S
C1481 C1480 1.370 . S
C1481 C1485 1.408 . S
C1482 C1480 1.363 . S
C1482 C1483 1.370 . S
C1482 C1486 1.524 . S
C1483 C1475 1.503 . S
C1483 C1482 1.370 . S
C1483 C1484 1.403 . S
C1484 C1483 1.403 . S
C1484 C1485 1.404 . S
C1484 C1487 1.539 . S
C1485 C1481 1.408 . S
C1485 C1484 1.404 . S
C1485 H1497 0.930 . S
C1486 C1482 1.524 . S
C1486 H1498 0.956 . S
C1486 H1499 0.961 . S
C1486 H1500 0.961 . S
C1487 C1484 1.539 . S
C1487 H1501 0.958 . S
C1487 H1502 0.961 . S
C1487 H1503 0.960 . S
H1488 C1472 0.931 . S
H1489 C1477 0.929 . S
H1490 C1478 0.960 . S
H1491 C1478 0.962 . S
H1492 C1478 0.960 . S
H1493 C1479 0.961 . S
H1494 C1479 0.961 . S
H1495 C1479 0.961 . S
H1496 C1480 0.931 . S
H1497 C1485 0.930 . S
H1498 C1486 0.956 . S
H1499 C1486 0.961 . S
H1500 C1486 0.961 . S
H1501 C1487 0.958 . S
H1502 C1487 0.961 . S
H1503 C1487 0.960 . S
C1504 C1505 1.391 . S
C1504 C1506 1.394 . S
C1504 H1520 0.931 . S
C1505 C1504 1.391 . S
C1505 C1509 1.376 1_556 S
C1506 C1504 1.394 . S
C1506 C1507 1.369 . S
C1506 C1510 1.531 . S
C1507 C1506 1.369 . S
C1507 C1508 1.410 1_556 S
C1507 C1515 1.503 . S
C1508 C1507 1.410 1_554 S
C1508 C1509 1.392 . S
C1508 C1511 1.511 . S
C1509 C1505 1.376 1_554 S
C1509 C1508 1.392 . S
C1509 H1521 0.929 . S
C1510 C1506 1.531 . S
C1510 H1522 0.960 . S
C1510 H1523 0.962 . S
C1510 H1524 0.960 . S
C1511 C1508 1.511 . S
C1511 H1525 0.961 . S
C1511 H1526 0.961 . S
C1511 H1527 0.961 . S
C1512 C1513 1.370 . S
C1512 C1514 1.363 . S
C1512 H1528 0.931 . S
C1513 C1512 1.370 . S
C1513 C1517 1.408 1_554 S
C1514 C1512 1.363 . S
C1514 C1515 1.370 1_554 S
C1514 C1518 1.524 . S
C1515 C1507 1.503 . S
C1515 C1514 1.370 1_556 S
C1515 C1516 1.403 . S
C1516 C1515 1.403 . S
C1516 C1517 1.404 . S
C1516 C1519 1.539 . S
C1517 C1513 1.408 1_556 S
C1517 C1516 1.404 . S
C1517 H1529 0.930 . S
C1518 C1514 1.524 . S
C1518 H1530 0.956 . S
C1518 H1531 0.961 . S
C1518 H1532 0.961 . S
C1519 C1516 1.539 . S
C1519 H1533 0.958 . S
C1519 H1534 0.961 . S
C1519 H1535 0.960 . S
H1520 C1504 0.931 . S
H1521 C1509 0.929 . S
H1522 C1510 0.960 . S
H1523 C1510 0.962 . S
H1524 C1510 0.960 . S
H1525 C1511 0.961 . S
H1526 C1511 0.961 . S
H1527 C1511 0.961 . S
H1528 C1512 0.931 . S
H1529 C1517 0.930 . S
H1530 C1518 0.956 . S
H1531 C1518 0.961 . S
H1532 C1518 0.961 . S
H1533 C1519 0.958 . S
H1534 C1519 0.961 . S
H1535 C1519 0.960 . S
C1536 C1537 1.391 . S
C1536 C1538 1.394 . S
C1536 H1552 0.931 . S
C1537 C1536 1.391 . S
C1537 C1541 1.376 . S
C1538 C1536 1.394 . S
C1538 C1539 1.369 . S
C1538 C1542 1.531 . S
C1539 C1538 1.369 . S
C1539 C1540 1.410 . S
C1539 C1547 1.503 . S
C1540 C1539 1.410 . S
C1540 C1541 1.392 . S
C1540 C1543 1.511 . S
C1541 C1537 1.376 . S
C1541 C1540 1.392 . S
C1541 H1553 0.929 . S
C1542 C1538 1.531 . S
C1542 H1554 0.960 . S
C1542 H1555 0.962 . S
C1542 H1556 0.960 . S
C1543 C1540 1.511 . S
C1543 H1557 0.961 . S
C1543 H1558 0.961 . S
C1543 H1559 0.961 . S
C1544 C1545 1.370 . S
C1544 C1546 1.363 . S
C1544 H1560 0.931 . S
C1545 C1544 1.370 . S
C1545 C1549 1.408 . S
C1546 C1544 1.363 . S
C1546 C1547 1.370 . S
C1546 C1550 1.524 . S
C1547 C1539 1.503 . S
C1547 C1546 1.370 . S
C1547 C1548 1.403 . S
C1548 C1547 1.403 . S
C1548 C1549 1.404 . S
C1548 C1551 1.539 . S
C1549 C1545 1.408 . S
C1549 C1548 1.404 . S
C1549 H1561 0.930 . S
C1550 C1546 1.524 . S
C1550 H1562 0.956 . S
C1550 H1563 0.961 . S
C1550 H1564 0.961 . S
C1551 C1548 1.539 . S
C1551 H1565 0.958 . S
C1551 H1566 0.961 . S
C1551 H1567 0.960 . S
H1552 C1536 0.931 . S
H1553 C1541 0.929 . S
H1554 C1542 0.960 . S
H1555 C1542 0.962 . S
H1556 C1542 0.960 . S
H1557 C1543 0.961 . S
H1558 C1543 0.961 . S
H1559 C1543 0.961 . S
H1560 C1544 0.931 . S
H1561 C1549 0.930 . S
H1562 C1550 0.956 . S
H1563 C1550 0.961 . S
H1564 C1550 0.961 . S
H1565 C1551 0.958 . S
H1566 C1551 0.961 . S
H1567 C1551 0.960 . S
C1568 C1569 1.391 . S
C1568 C1570 1.394 . S
C1568 H1584 0.931 . S
C1569 C1568 1.391 . S
C1569 C1573 1.376 . S
C1570 C1568 1.394 . S
C1570 C1571 1.369 . S
C1570 C1574 1.531 . S
C1571 C1570 1.369 . S
C1571 C1572 1.410 . S
C1571 C1579 1.503 . S
C1572 C1571 1.410 . S
C1572 C1573 1.392 . S
C1572 C1575 1.511 . S
C1573 C1569 1.376 . S
C1573 C1572 1.392 . S
C1573 H1585 0.929 . S
C1574 C1570 1.531 . S
C1574 H1586 0.960 . S
C1574 H1587 0.962 . S
C1574 H1588 0.960 . S
C1575 C1572 1.511 . S
C1575 H1589 0.961 . S
C1575 H1590 0.961 . S
C1575 H1591 0.961 . S
C1576 C1577 1.370 . S
C1576 C1578 1.363 . S
C1576 H1592 0.931 . S
C1577 C1576 1.370 . S
C1577 C1581 1.408 . S
C1578 C1576 1.363 . S
C1578 C1579 1.370 . S
C1578 C1582 1.524 . S
C1579 C1571 1.503 . S
C1579 C1578 1.370 . S
C1579 C1580 1.403 . S
C1580 C1579 1.403 . S
C1580 C1581 1.404 . S
C1580 C1583 1.539 . S
C1581 C1577 1.408 . S
C1581 C1580 1.404 . S
C1581 H1593 0.930 . S
C1582 C1578 1.524 . S
C1582 H1594 0.956 . S
C1582 H1595 0.961 . S
C1582 H1596 0.961 . S
C1583 C1580 1.539 . S
C1583 H1597 0.958 . S
C1583 H1598 0.961 . S
C1583 H1599 0.960 . S
H1584 C1568 0.931 . S
H1585 C1573 0.929 . S
H1586 C1574 0.960 . S
H1587 C1574 0.962 . S
H1588 C1574 0.960 . S
H1589 C1575 0.961 . S
H1590 C1575 0.961 . S
H1591 C1575 0.961 . S
H1592 C1576 0.931 . S
H1593 C1581 0.930 . S
H1594 C1582 0.956 . S
H1595 C1582 0.961 . S
H1596 C1582 0.961 . S
H1597 C1583 0.958 . S
H1598 C1583 0.961 . S
H1599 C1583 0.960 . S
C1600 C1601 1.391 . S
C1600 C1602 1.394 . S
C1600 H1616 0.931 . S
C1601 C1600 1.391 . S
C1601 C1605 1.376 . S
C1602 C1600 1.394 . S
C1602 C1603 1.369 . S
C1602 C1606 1.531 . S
C1603 C1602 1.369 . S
C1603 C1604 1.410 . S
C1603 C1611 1.503 . S
C1604 C1603 1.410 . S
C1604 C1605 1.392 . S
C1604 C1607 1.511 . S
C1605 C1601 1.376 . S
C1605 C1604 1.392 . S
C1605 H1617 0.929 . S
C1606 C1602 1.531 . S
C1606 H1618 0.960 . S
C1606 H1619 0.962 . S
C1606 H1620 0.960 . S
C1607 C1604 1.511 . S
C1607 H1621 0.961 . S
C1607 H1622 0.961 . S
C1607 H1623 0.961 . S
C1608 C1609 1.370 . S
C1608 C1610 1.363 . S
C1608 H1624 0.931 . S
C1609 C1608 1.370 . S
C1609 C1613 1.408 . S
C1610 C1608 1.363 . S
C1610 C1611 1.370 . S
C1610 C1614 1.524 . S
C1611 C1603 1.503 . S
C1611 C1610 1.370 . S
C1611 C1612 1.403 . S
C1612 C1611 1.403 . S
C1612 C1613 1.404 . S
C1612 C1615 1.539 . S
C1613 C1609 1.408 . S
C1613 C1612 1.404 . S
C1613 H1625 0.930 . S
C1614 C1610 1.524 . S
C1614 H1626 0.956 . S
C1614 H1627 0.961 . S
C1614 H1628 0.961 . S
C1615 C1612 1.539 . S
C1615 H1629 0.958 . S
C1615 H1630 0.961 . S
C1615 H1631 0.960 . S
H1616 C1600 0.931 . S
H1617 C1605 0.929 . S
H1618 C1606 0.960 . S
H1619 C1606 0.962 . S
H1620 C1606 0.960 . S
H1621 C1607 0.961 . S
H1622 C1607 0.961 . S
H1623 C1607 0.961 . S
H1624 C1608 0.931 . S
H1625 C1613 0.930 . S
H1626 C1614 0.956 . S
H1627 C1614 0.961 . S
H1628 C1614 0.961 . S
H1629 C1615 0.958 . S
H1630 C1615 0.961 . S
H1631 C1615 0.960 . S
C1632 C1633 1.391 . S
C1632 C1634 1.394 . S
C1632 H1648 0.931 . S
C1633 C1632 1.391 . S
C1633 C1637 1.376 . S
C1634 C1632 1.394 . S
C1634 C1635 1.369 . S
C1634 C1638 1.531 . S
C1635 C1634 1.369 . S
C1635 C1636 1.410 . S
C1635 C1643 1.503 . S
C1636 C1635 1.410 . S
C1636 C1637 1.392 . S
C1636 C1639 1.511 . S
C1637 C1633 1.376 . S
C1637 C1636 1.392 . S
C1637 H1649 0.929 . S
C1638 C1634 1.531 . S
C1638 H1650 0.960 . S
C1638 H1651 0.962 . S
C1638 H1652 0.960 . S
C1639 C1636 1.511 . S
C1639 H1653 0.961 . S
C1639 H1654 0.961 . S
C1639 H1655 0.961 . S
C1640 C1641 1.370 . S
C1640 C1642 1.363 . S
C1640 H1656 0.931 . S
C1641 C1640 1.370 . S
C1641 C1645 1.408 . S
C1642 C1640 1.363 . S
C1642 C1643 1.370 . S
C1642 C1646 1.524 . S
C1643 C1635 1.503 . S
C1643 C1642 1.370 . S
C1643 C1644 1.403 . S
C1644 C1643 1.403 . S
C1644 C1645 1.404 . S
C1644 C1647 1.539 . S
C1645 C1641 1.408 . S
C1645 C1644 1.404 . S
C1645 H1657 0.930 . S
C1646 C1642 1.524 . S
C1646 H1658 0.956 . S
C1646 H1659 0.961 . S
C1646 H1660 0.961 . S
C1647 C1644 1.539 . S
C1647 H1661 0.958 . S
C1647 H1662 0.961 . S
C1647 H1663 0.960 . S
H1648 C1632 0.931 . S
H1649 C1637 0.929 . S
H1650 C1638 0.960 . S
H1651 C1638 0.962 . S
H1652 C1638 0.960 . S
H1653 C1639 0.961 . S
H1654 C1639 0.961 . S
H1655 C1639 0.961 . S
H1656 C1640 0.931 . S
H1657 C1645 0.930 . S
H1658 C1646 0.956 . S
H1659 C1646 0.961 . S
H1660 C1646 0.961 . S
H1661 C1647 0.958 . S
H1662 C1647 0.961 . S
H1663 C1647 0.960 . S
C1664 C1665 1.391 . S
C1664 C1666 1.394 . S
C1664 H1680 0.931 . S
C1665 C1664 1.391 . S
C1665 C1669 1.376 1_554 S
C1666 C1664 1.394 . S
C1666 C1667 1.369 . S
C1666 C1670 1.531 . S
C1667 C1666 1.369 . S
C1667 C1668 1.410 1_554 S
C1667 C1675 1.503 . S
C1668 C1667 1.410 1_556 S
C1668 C1669 1.392 . S
C1668 C1671 1.511 . S
C1669 C1665 1.376 1_556 S
C1669 C1668 1.392 . S
C1669 H1681 0.929 . S
C1670 C1666 1.531 . S
C1670 H1682 0.960 . S
C1670 H1683 0.962 . S
C1670 H1684 0.960 . S
C1671 C1668 1.511 . S
C1671 H1685 0.961 . S
C1671 H1686 0.961 . S
C1671 H1687 0.961 . S
C1672 C1673 1.370 . S
C1672 C1674 1.363 . S
C1672 H1688 0.931 . S
C1673 C1672 1.370 . S
C1673 C1677 1.408 1_554 S
C1674 C1672 1.363 . S
C1674 C1675 1.370 . S
C1674 C1678 1.524 . S
C1675 C1667 1.503 . S
C1675 C1674 1.370 . S
C1675 C1676 1.403 1_554 S
C1676 C1675 1.403 1_556 S
C1676 C1677 1.404 . S
C1676 C1679 1.539 . S
C1677 C1673 1.408 1_556 S
C1677 C1676 1.404 . S
C1677 H1689 0.930 . S
C1678 C1674 1.524 . S
C1678 H1690 0.956 . S
C1678 H1691 0.961 . S
C1678 H1692 0.961 . S
C1679 C1676 1.539 . S
C1679 H1693 0.958 . S
C1679 H1694 0.961 . S
C1679 H1695 0.960 . S
H1680 C1664 0.931 . S
H1681 C1669 0.929 . S
H1682 C1670 0.960 . S
H1683 C1670 0.962 . S
H1684 C1670 0.960 . S
H1685 C1671 0.961 . S
H1686 C1671 0.961 . S
H1687 C1671 0.961 . S
H1688 C1672 0.931 . S
H1689 C1677 0.930 . S
H1690 C1678 0.956 . S
H1691 C1678 0.961 . S
H1692 C1678 0.961 . S
H1693 C1679 0.958 . S
H1694 C1679 0.961 . S
H1695 C1679 0.960 . S
C1696 C1697 1.391 . S
C1696 C1698 1.394 . S
C1696 H1712 0.931 . S
C1697 C1696 1.391 . S
C1697 C1701 1.376 . S
C1698 C1696 1.394 . S
C1698 C1699 1.369 . S
C1698 C1702 1.531 . S
C1699 C1698 1.369 . S
C1699 C1700 1.410 . S
C1699 C1707 1.503 . S
C1700 C1699 1.410 . S
C1700 C1701 1.392 . S
C1700 C1703 1.511 . S
C1701 C1697 1.376 . S
C1701 C1700 1.392 . S
C1701 H1713 0.929 . S
C1702 C1698 1.531 . S
C1702 H1714 0.960 . S
C1702 H1715 0.962 . S
C1702 H1716 0.960 . S
C1703 C1700 1.511 . S
C1703 H1717 0.961 . S
C1703 H1718 0.961 . S
C1703 H1719 0.961 . S
C1704 C1705 1.370 . S
C1704 C1706 1.363 . S
C1704 H1720 0.931 . S
C1705 C1704 1.370 . S
C1705 C1709 1.408 . S
C1706 C1704 1.363 . S
C1706 C1707 1.370 . S
C1706 C1710 1.524 . S
C1707 C1699 1.503 . S
C1707 C1706 1.370 . S
C1707 C1708 1.403 . S
C1708 C1707 1.403 . S
C1708 C1709 1.404 . S
C1708 C1711 1.539 . S
C1709 C1705 1.408 . S
C1709 C1708 1.404 . S
C1709 H1721 0.930 . S
C1710 C1706 1.524 . S
C1710 H1722 0.956 . S
C1710 H1723 0.961 . S
C1710 H1724 0.961 . S
C1711 C1708 1.539 . S
C1711 H1725 0.958 . S
C1711 H1726 0.961 . S
C1711 H1727 0.960 . S
H1712 C1696 0.931 . S
H1713 C1701 0.929 . S
H1714 C1702 0.960 . S
H1715 C1702 0.962 . S
H1716 C1702 0.960 . S
H1717 C1703 0.961 . S
H1718 C1703 0.961 . S
H1719 C1703 0.961 . S
H1720 C1704 0.931 . S
H1721 C1709 0.930 . S
H1722 C1710 0.956 . S
H1723 C1710 0.961 . S
H1724 C1710 0.961 . S
H1725 C1711 0.958 . S
H1726 C1711 0.961 . S
H1727 C1711 0.960 . S
C1728 C1729 1.391 . S
C1728 C1730 1.394 . S
C1728 H1744 0.931 . S
C1729 C1728 1.391 . S
C1729 C1733 1.376 . S
C1730 C1728 1.394 . S
C1730 C1731 1.369 . S
C1730 C1734 1.531 . S
C1731 C1730 1.369 . S
C1731 C1732 1.410 . S
C1731 C1739 1.503 . S
C1732 C1731 1.410 . S
C1732 C1733 1.392 . S
C1732 C1735 1.511 . S
C1733 C1729 1.376 . S
C1733 C1732 1.392 . S
C1733 H1745 0.929 . S
C1734 C1730 1.531 . S
C1734 H1746 0.960 . S
C1734 H1747 0.962 . S
C1734 H1748 0.960 . S
C1735 C1732 1.511 . S
C1735 H1749 0.961 . S
C1735 H1750 0.961 . S
C1735 H1751 0.961 . S
C1736 C1737 1.370 . S
C1736 C1738 1.363 . S
C1736 H1752 0.931 . S
C1737 C1736 1.370 . S
C1737 C1741 1.408 . S
C1738 C1736 1.363 . S
C1738 C1739 1.370 . S
C1738 C1742 1.524 . S
C1739 C1731 1.503 . S
C1739 C1738 1.370 . S
C1739 C1740 1.403 . S
C1740 C1739 1.403 . S
C1740 C1741 1.404 . S
C1740 C1743 1.539 . S
C1741 C1737 1.408 . S
C1741 C1740 1.404 . S
C1741 H1753 0.930 . S
C1742 C1738 1.524 . S
C1742 H1754 0.956 . S
C1742 H1755 0.961 . S
C1742 H1756 0.961 . S
C1743 C1740 1.539 . S
C1743 H1757 0.958 . S
C1743 H1758 0.961 . S
C1743 H1759 0.960 . S
H1744 C1728 0.931 . S
H1745 C1733 0.929 . S
H1746 C1734 0.960 . S
H1747 C1734 0.962 . S
H1748 C1734 0.960 . S
H1749 C1735 0.961 . S
H1750 C1735 0.961 . S
H1751 C1735 0.961 . S
H1752 C1736 0.931 . S
H1753 C1741 0.930 . S
H1754 C1742 0.956 . S
H1755 C1742 0.961 . S
H1756 C1742 0.961 . S
H1757 C1743 0.958 . S
H1758 C1743 0.961 . S
H1759 C1743 0.960 . S
C1760 C1761 1.391 . S
C1760 C1762 1.394 . S
C1760 H1776 0.931 . S
C1761 C1760 1.391 . S
C1761 C1765 1.376 . S
C1762 C1760 1.394 . S
C1762 C1763 1.369 . S
C1762 C1766 1.531 . S
C1763 C1762 1.369 . S
C1763 C1764 1.410 . S
C1763 C1771 1.503 . S
C1764 C1763 1.410 . S
C1764 C1765 1.392 . S
C1764 C1767 1.511 . S
C1765 C1761 1.376 . S
C1765 C1764 1.392 . S
C1765 H1777 0.929 . S
C1766 C1762 1.531 . S
C1766 H1778 0.960 . S
C1766 H1779 0.962 . S
C1766 H1780 0.960 . S
C1767 C1764 1.511 . S
C1767 H1781 0.961 . S
C1767 H1782 0.961 . S
C1767 H1783 0.961 . S
C1768 C1769 1.370 . S
C1768 C1770 1.363 . S
C1768 H1784 0.931 . S
C1769 C1768 1.370 . S
C1769 C1773 1.408 . S
C1770 C1768 1.363 . S
C1770 C1771 1.370 . S
C1770 C1774 1.524 . S
C1771 C1763 1.503 . S
C1771 C1770 1.370 . S
C1771 C1772 1.403 . S
C1772 C1771 1.403 . S
C1772 C1773 1.404 . S
C1772 C1775 1.539 . S
C1773 C1769 1.408 . S
C1773 C1772 1.404 . S
C1773 H1785 0.930 . S
C1774 C1770 1.524 . S
C1774 H1786 0.956 . S
C1774 H1787 0.961 . S
C1774 H1788 0.961 . S
C1775 C1772 1.539 . S
C1775 H1789 0.958 . S
C1775 H1790 0.961 . S
C1775 H1791 0.960 . S
H1776 C1760 0.931 . S
H1777 C1765 0.929 . S
H1778 C1766 0.960 . S
H1779 C1766 0.962 . S
H1780 C1766 0.960 . S
H1781 C1767 0.961 . S
H1782 C1767 0.961 . S
H1783 C1767 0.961 . S
H1784 C1768 0.931 . S
H1785 C1773 0.930 . S
H1786 C1774 0.956 . S
H1787 C1774 0.961 . S
H1788 C1774 0.961 . S
H1789 C1775 0.958 . S
H1790 C1775 0.961 . S
H1791 C1775 0.960 . S
C1792 C1793 1.391 . S
C1792 C1794 1.394 . S
C1792 H1808 0.931 . S
C1793 C1792 1.391 . S
C1793 C1797 1.376 . S
C1794 C1792 1.394 . S
C1794 C1795 1.369 . S
C1794 C1798 1.531 . S
C1795 C1794 1.369 . S
C1795 C1796 1.410 . S
C1795 C1803 1.503 . S
C1796 C1795 1.410 . S
C1796 C1797 1.392 . S
C1796 C1799 1.511 . S
C1797 C1793 1.376 . S
C1797 C1796 1.392 . S
C1797 H1809 0.929 . S
C1798 C1794 1.531 . S
C1798 H1810 0.960 . S
C1798 H1811 0.962 . S
C1798 H1812 0.960 . S
C1799 C1796 1.511 . S
C1799 H1813 0.961 . S
C1799 H1814 0.961 . S
C1799 H1815 0.961 . S
C1800 C1801 1.370 . S
C1800 C1802 1.363 . S
C1800 H1816 0.931 . S
C1801 C1800 1.370 . S
C1801 C1805 1.408 . S
C1802 C1800 1.363 . S
C1802 C1803 1.370 . S
C1802 C1806 1.524 . S
C1803 C1795 1.503 . S
C1803 C1802 1.370 . S
C1803 C1804 1.403 . S
C1804 C1803 1.403 . S
C1804 C1805 1.404 . S
C1804 C1807 1.539 . S
C1805 C1801 1.408 . S
C1805 C1804 1.404 . S
C1805 H1817 0.930 . S
C1806 C1802 1.524 . S
C1806 H1818 0.956 . S
C1806 H1819 0.961 . S
C1806 H1820 0.961 . S
C1807 C1804 1.539 . S
C1807 H1821 0.958 . S
C1807 H1822 0.961 . S
C1807 H1823 0.960 . S
H1808 C1792 0.931 . S
H1809 C1797 0.929 . S
H1810 C1798 0.960 . S
H1811 C1798 0.962 . S
H1812 C1798 0.960 . S
H1813 C1799 0.961 . S
H1814 C1799 0.961 . S
H1815 C1799 0.961 . S
H1816 C1800 0.931 . S
H1817 C1805 0.930 . S
H1818 C1806 0.956 . S
H1819 C1806 0.961 . S
H1820 C1806 0.961 . S
H1821 C1807 0.958 . S
H1822 C1807 0.961 . S
H1823 C1807 0.960 . S
C1824 C1825 1.391 . S
C1824 C1826 1.394 . S
C1824 H1840 0.931 . S
C1825 C1824 1.391 . S
C1825 C1829 1.376 . S
C1826 C1824 1.394 . S
C1826 C1827 1.369 . S
C1826 C1830 1.531 . S
C1827 C1826 1.369 . S
C1827 C1828 1.410 . S
C1827 C1835 1.503 . S
C1828 C1827 1.410 . S
C1828 C1829 1.392 . S
C1828 C1831 1.511 . S
C1829 C1825 1.376 . S
C1829 C1828 1.392 . S
C1829 H1841 0.929 . S
C1830 C1826 1.531 . S
C1830 H1842 0.960 . S
C1830 H1843 0.962 . S
C1830 H1844 0.960 . S
C1831 C1828 1.511 . S
C1831 H1845 0.961 . S
C1831 H1846 0.961 . S
C1831 H1847 0.961 . S
C1832 C1833 1.370 . S
C1832 C1834 1.363 . S
C1832 H1848 0.931 . S
C1833 C1832 1.370 . S
C1833 C1837 1.408 . S
C1834 C1832 1.363 . S
C1834 C1835 1.370 . S
C1834 C1838 1.524 . S
C1835 C1827 1.503 . S
C1835 C1834 1.370 . S
C1835 C1836 1.403 . S
C1836 C1835 1.403 . S
C1836 C1837 1.404 . S
C1836 C1839 1.539 . S
C1837 C1833 1.408 . S
C1837 C1836 1.404 . S
C1837 H1849 0.930 . S
C1838 C1834 1.524 . S
C1838 H1850 0.956 . S
C1838 H1851 0.961 . S
C1838 H1852 0.961 . S
C1839 C1836 1.539 . S
C1839 H1853 0.958 . S
C1839 H1854 0.961 . S
C1839 H1855 0.960 . S
H1840 C1824 0.931 . S
H1841 C1829 0.929 . S
H1842 C1830 0.960 . S
H1843 C1830 0.962 . S
H1844 C1830 0.960 . S
H1845 C1831 0.961 . S
H1846 C1831 0.961 . S
H1847 C1831 0.961 . S
H1848 C1832 0.931 . S
H1849 C1837 0.930 . S
H1850 C1838 0.956 . S
H1851 C1838 0.961 . S
H1852 C1838 0.961 . S
H1853 C1839 0.958 . S
H1854 C1839 0.961 . S
H1855 C1839 0.960 . S
C321 C6 1.158 . S
C329 C39 1.128 . S
C353 C49 0.945 . S
C361 C36 0.913 . S
C385 C76 0.858 . S
C393 C46 0.847 . S
C417 C9 0.995 . S
C425 C79 0.977 . S
C449 C1 1.018 . S
C457 C188 0.980 1_545 S
C481 C156 1.150 . S
C489 C28 1.122 . S
C513 C41 1.138 . S
C521 C206 1.116 . S
C545 C66 1.020 . S
C553 C276 1.004 . S
C577 C161 0.931 . S
C585 C26 0.934 . S
C609 C246 1.042 . S
C617 C56 1.025 . S
C641 C296 1.029 . S
C649 C68 1.052 . S
C673 C16 1.116 . S
C681 C228 1.107 . S
C705 C19 1.192 . S
C713 C179 1.254 1_554 S
C737 C249 1.430 . S
C745 C81 1.459 . S
C769 C108 1.342 . S
C777 C299 1.305 . S
C801 C221 1.345 . S
C809 C129 1.349 . S
C833 C48 1.253 . S
C841 C148 1.263 . S
C865 C181 1.401 . S
C873 C89 1.393 . S
C897 C121 1.445 . S
C905 C209 1.457 . S
C929 C101 0.910 . S
C937 C226 0.925 . S
C961 C186 0.856 . S
C969 C116 0.851 . S
C993 C239 1.141 . S
C1001 C146 1.134 . S
C1025 C109 1.123 . S
C1033 C96 1.096 . S
C1057 C196 0.946 . S
C1065 C166 0.982 . S
C1089 C269 0.955 . S
C1097 C236 0.954 . S
C1121 C136 1.038 . S
C1129 C106 1.023 . S
C1153 C199 0.997 . S
C1161 C286 1.040 . S
C1185 C268 1.233 . S
C1193 C8 1.239 . S
C1217 C59 1.334 . S
C1225 C288 1.299 . S
C1249 C241 1.345 . S
C1257 C29 1.354 . S
C1281 C159 1.301 . S
C1289 C119 1.295 . S
C1313 C69 1.400 . S
C1321 C201 1.397 . S
C1345 C256 1.007 . S
C1353 C266 0.988 . S
C1377 C149 1.368 . S
C1385 C259 1.313 . S
C1409 C128 1.290 . S
C1417 C141 1.380 . S
C1441 C86 0.974 . S
C1449 C261 0.957 . S
C1473 C248 1.288 . S
C1481 C301 1.372 . S
C1505 C308 1.324 1_556 S
C1513 C168 1.311 . S
C1537 C21 1.307 . S
C1545 C189 1.302 . S
C1569 C176 0.939 . S
C1577 C126 0.968 . S
C1601 C169 0.943 . S
C1609 C216 0.935 . S
C1633 C309 1.353 . S
C1641 C139 1.311 . S
C1665 C279 1.273 1_554 S
C1673 C319 1.284 . S
C1697 C229 1.309 . S
C1705 C61 1.293 . S
C1729 C219 1.448 . S
C1737 C289 1.518 . S
C1761 C208 1.406 . S
C1769 C316 1.447 . S
C1793 C88 1.450 . S
C1801 C281 1.509 . S
C1825 C306 1.463 . S
C1833 C99 1.420 . S
