# Generated by pormake.
# Topology wgu, (5)-cn, num edge types: 1
# Building blocks:
#     Node 0, Type 0, BuildingBlock: XOMCOT_clean_sbu_1, # of connection points: 5
#     Node 1, Type 0, BuildingBlock: XOMCOT_clean_sbu_1, # of connection points: 5
#     Node 2, Type 0, BuildingBlock: XOMCOT_clean_sbu_1, # of connection points: 5
#     Node 3, Type 0, BuildingBlock: XOMCOT_clean_sbu_1, # of connection points: 5
#     Node 4, Type 0, BuildingBlock: XOMCOT_clean_sbu_1, # of connection points: 5
#     Node 5, Type 0, BuildingBlock: XOMCOT_clean_sbu_1, # of connection points: 5
#     Node 6, Type 0, BuildingBlock: XOMCOT_clean_sbu_1, # of connection points: 5
#     Node 7, Type 0, BuildingBlock: XOMCOT_clean_sbu_1, # of connection points: 5
#     Edge 8, Type (0, 0), BuildingBlock: UVAHIK_clean_linker_0, # of connection points: 2
#     Edge 9, Type (0, 0), BuildingBlock: UVAHIK_clean_linker_0, # of connection points: 2
#     Edge 10, Type (0, 0), BuildingBlock: UVAHIK_clean_linker_0, # of connection points: 2
#     Edge 11, Type (0, 0), BuildingBlock: UVAHIK_clean_linker_0, # of connection points: 2
#     Edge 12, Type (0, 0), BuildingBlock: UVAHIK_clean_linker_0, # of connection points: 2
#     Edge 13, Type (0, 0), BuildingBlock: UVAHIK_clean_linker_0, # of connection points: 2
#     Edge 14, Type (0, 0), BuildingBlock: UVAHIK_clean_linker_0, # of connection points: 2
#     Edge 15, Type (0, 0), BuildingBlock: UVAHIK_clean_linker_0, # of connection points: 2
#     Edge 16, Type (0, 0), BuildingBlock: UVAHIK_clean_linker_0, # of connection points: 2
#     Edge 17, Type (0, 0), BuildingBlock: UVAHIK_clean_linker_0, # of connection points: 2
#     Edge 18, Type (0, 0), BuildingBlock: UVAHIK_clean_linker_0, # of connection points: 2
#     Edge 19, Type (0, 0), BuildingBlock: UVAHIK_clean_linker_0, # of connection points: 2
#     Edge 20, Type (0, 0), BuildingBlock: UVAHIK_clean_linker_0, # of connection points: 2
#     Edge 21, Type (0, 0), BuildingBlock: UVAHIK_clean_linker_0, # of connection points: 2
#     Edge 22, Type (0, 0), BuildingBlock: UVAHIK_clean_linker_0, # of connection points: 2
#     Edge 23, Type (0, 0), BuildingBlock: UVAHIK_clean_linker_0, # of connection points: 2
#     Edge 24, Type (0, 0), BuildingBlock: UVAHIK_clean_linker_0, # of connection points: 2
#     Edge 25, Type (0, 0), BuildingBlock: UVAHIK_clean_linker_0, # of connection points: 2
#     Edge 26, Type (0, 0), BuildingBlock: UVAHIK_clean_linker_0, # of connection points: 2
#     Edge 27, Type (0, 0), BuildingBlock: UVAHIK_clean_linker_0, # of connection points: 2
# Relax obj value: 0.198
# Max RMSD: 0.182
# Mean RMSD: 0.170
data_MOF--net-wgu--node1-XOMCOT_clean_sbu_1--edge1-UVAHIK_clean_linker_0
_symmetry_space_group_name_H-M    P1
_symmetry_Int_Tables_number       1
_symmetry_cell_setting            triclinic
loop_
_symmetry_equiv_pos_as_xyz
'x, y, z'
_cell_length_a     41.544042
_cell_length_b     41.085905
_cell_length_c     36.8351
_cell_angle_alpha  94.738921
_cell_angle_beta   92.441493
_cell_angle_gamma 89.815653
loop_
_atom_site_label
_atom_site_type_symbol
_atom_site_fract_x
_atom_site_fract_y
_atom_site_fract_z
_atom_type_partial_charge
C0 C 0.25369 0.36164 0.05772 0.0
C1 C 0.24064 0.39062 0.04829 0.0
N2 N 0.25858 0.41528 0.06486 0.0
N3 N 0.27986 0.36781 0.08007 0.0
C4 C 0.28214 0.40073 0.08423 0.0
H5 H 0.24477 0.33746 0.04881 0.0
Co6 Co 0.30466 0.33503 0.09953 0.0
C7 C 0.37052 0.35911 0.0912 0.0
O8 O 0.37729 0.33071 0.07411 0.0
N9 N 0.328 0.30118 0.12072 0.0
C10 C 0.36138 0.26788 0.14925 0.0
C11 C 0.35794 0.2983 0.13628 0.0
C12 C 0.31318 0.27324 0.12751 0.0
N13 N 0.333 0.25239 0.14374 0.0
O14 O 0.29168 0.34933 0.14727 0.0
H15 H 0.37605 0.31716 0.13966 0.0
H16 H 0.28814 0.26795 0.12011 0.0
O17 O 0.34253 0.36421 0.10385 0.0
C18 C 0.26405 0.33667 0.15053 0.0
O19 O 0.25009 0.32095 0.12156 0.0
N20 N 0.31447 0.3189 0.05142 0.0
C21 C 0.31272 0.29548 0.97811 0.0
C22 C 0.32112 0.32801 0.9884 0.0
C23 C 0.32208 0.33923 0.02535 0.0
C24 C 0.30656 0.28713 0.04135 0.0
C25 C 0.30641 0.27476 0.00512 0.0
H26 H 0.32683 0.36483 0.03275 0.0
H27 H 0.29767 0.27156 0.06058 0.0
H28 H 0.30092 0.41369 0.10072 0.0
H29 H 0.21929 0.39324 0.03091 0.0
H30 H 0.3827 0.25822 0.16246 0.0
H31 H 0.3254 0.34488 0.96803 0.0
H32 H 0.29857 0.24982 0.99803 0.0
C33 C 0.59462 0.32267 0.42999 0.0
C34 C 0.56331 0.31187 0.42661 0.0
N35 N 0.55859 0.29189 0.45309 0.0
N36 N 0.60966 0.30971 0.45852 0.0
C37 C 0.58715 0.2908 0.47203 0.0
H38 H 0.60555 0.33972 0.41334 0.0
Co39 Co 0.65138 0.32171 0.47406 0.0
C40 C 0.66221 0.29922 0.54674 0.0
O41 O 0.67272 0.32872 0.55747 0.0
N42 N 0.69445 0.33378 0.4889 0.0
C43 C 0.74058 0.35849 0.508 0.0
C44 C 0.70829 0.36294 0.49982 0.0
C45 C 0.71911 0.31218 0.49052 0.0
N46 N 0.7473 0.32653 0.50192 0.0
O47 O 0.66754 0.28723 0.44153 0.0
H48 H 0.69616 0.38618 0.50226 0.0
H49 H 0.71633 0.28612 0.48423 0.0
O50 O 0.65136 0.29263 0.51391 0.0
C51 C 0.67508 0.29974 0.41253 0.0
O52 O 0.67172 0.33148 0.41134 0.0
N53 N 0.63383 0.35759 0.50173 0.0
C54 C 0.59809 0.41317 0.52311 0.0
C55 C 0.59602 0.38482 0.54169 0.0
C56 C 0.61344 0.35687 0.52988 0.0
C57 C 0.63573 0.38494 0.48338 0.0
C58 C 0.61856 0.41307 0.4939 0.0
H59 H 0.60888 0.33435 0.54191 0.0
H60 H 0.64977 0.38443 0.45927 0.0
H61 H 0.59112 0.27769 0.49612 0.0
H62 H 0.54528 0.31849 0.40643 0.0
H63 H 0.75786 0.37736 0.51725 0.0
H64 H 0.57948 0.38359 0.56349 0.0
H65 H 0.62039 0.43423 0.47841 0.0
C66 C 0.72246 0.61295 0.94295 0.0
C67 C 0.74105 0.58546 0.9379 0.0
N68 N 0.751 0.5765 0.97086 0.0
N69 N 0.72088 0.62155 0.97892 0.0
C70 C 0.73842 0.59875 0.9954 0.0
H71 H 0.71036 0.62563 0.92172 0.0
Co72 Co 0.6975 0.65754 0.99599 0.0
C73 C 0.71699 0.67299 0.07311 0.0
O74 O 0.68633 0.67729 0.07953 0.0
N75 N 0.67358 0.69496 0.01185 0.0
C76 C 0.63623 0.73284 0.02414 0.0
C77 C 0.64161 0.70021 0.01488 0.0
C78 C 0.68689 0.72482 0.01969 0.0
N79 N 0.66482 0.74835 0.02693 0.0
O80 O 0.7259 0.68463 0.97132 0.0
H81 H 0.62288 0.68216 0.00971 0.0
H82 H 0.71242 0.72941 0.01844 0.0
O83 O 0.72555 0.66376 0.04083 0.0
C84 C 0.71395 0.69512 0.94202 0.0
O85 O 0.68359 0.68862 0.9328 0.0
N86 N 0.66876 0.62932 0.01654 0.0
C87 C 0.62152 0.58683 0.03675 0.0
C88 C 0.65077 0.59084 0.05709 0.0
C89 C 0.67435 0.61178 0.04617 0.0
C90 C 0.64167 0.62346 0.99484 0.0
C91 C 0.61738 0.60304 0.00487 0.0
H92 H 0.69709 0.61329 0.0614 0.0
H93 H 0.63867 0.63535 0.96978 0.0
H94 H 0.74185 0.5983 0.02462 0.0
H95 H 0.74588 0.57232 0.912 0.0
H96 H 0.61293 0.74427 0.02748 0.0
H97 H 0.65538 0.578 0.08131 0.0
H98 H 0.59576 0.59958 0.98749 0.0
C99 C 0.38885 0.81611 0.5636 0.0
C100 C 0.41774 0.83161 0.561 0.0
N101 N 0.44152 0.81072 0.5691 0.0
N102 N 0.39436 0.78555 0.5731 0.0
C103 C 0.42671 0.78299 0.57666 0.0
H104 H 0.3652 0.82611 0.55801 0.0
Co105 Co 0.36138 0.75606 0.57664 0.0
C106 C 0.39055 0.69358 0.54855 0.0
O107 O 0.36603 0.68973 0.52484 0.0
N108 N 0.3269 0.72768 0.5819 0.0
C109 C 0.29382 0.6877 0.59369 0.0
C110 C 0.32526 0.69582 0.5884 0.0
C111 C 0.2966 0.73868 0.58628 0.0
N112 N 0.27568 0.7148 0.5921 0.0
O113 O 0.36806 0.75899 0.62863 0.0
H114 H 0.34547 0.67949 0.59085 0.0
H115 H 0.29035 0.76424 0.58673 0.0
O116 O 0.39178 0.71882 0.57149 0.0
C117 C 0.35549 0.78465 0.64395 0.0
O118 O 0.34148 0.80559 0.62329 0.0
N119 N 0.35348 0.75584 0.52501 0.0
C120 C 0.34174 0.76654 0.45129 0.0
C121 C 0.3722 0.75649 0.4639 0.0
C122 C 0.37773 0.75188 0.50092 0.0
C123 C 0.32399 0.76631 0.51306 0.0
C124 C 0.31744 0.77109 0.47645 0.0
H125 H 0.40188 0.74605 0.51038 0.0
H126 H 0.30563 0.77287 0.53192 0.0
H127 H 0.43917 0.7609 0.58315 0.0
H128 H 0.42103 0.85621 0.55332 0.0
H129 H 0.28523 0.66368 0.59853 0.0
H130 H 0.39199 0.7536 0.4457 0.0
H131 H 0.29359 0.77916 0.46817 0.0
C132 C 0.72063 0.11961 0.92237 0.0
C133 C 0.70624 0.09071 0.92879 0.0
N134 N 0.72787 0.07259 0.94666 0.0
N135 N 0.7513 0.1197 0.93576 0.0
C136 C 0.75503 0.0908 0.95034 0.0
H137 H 0.70916 0.13953 0.90942 0.0
Co138 Co 0.77975 0.15431 0.93648 0.0
C139 C 0.84513 0.12562 0.94806 0.0
O140 O 0.85421 0.15194 0.9686 0.0
N141 N 0.80776 0.19019 0.93646 0.0
C142 C 0.84417 0.22435 0.91856 0.0
C143 C 0.83236 0.19301 0.91413 0.0
C144 C 0.80449 0.22044 0.95327 0.0
N145 N 0.82645 0.24176 0.94311 0.0
O146 O 0.77633 0.15234 0.88407 0.0
H147 H 0.84052 0.17374 0.8949 0.0
H148 H 0.78492 0.22742 0.97057 0.0
O149 O 0.81624 0.12342 0.9345 0.0
C150 C 0.75644 0.17408 0.87451 0.0
O151 O 0.74369 0.19339 0.90031 0.0
N152 N 0.77961 0.15794 0.9878 0.0
C153 C 0.76723 0.16984 0.06172 0.0
C154 C 0.79028 0.14658 0.05024 0.0
C155 C 0.79585 0.14064 0.01298 0.0
C156 C 0.75583 0.17901 0.99848 0.0
C157 C 0.74954 0.18568 0.03512 0.0
H158 H 0.81243 0.1215 0.00485 0.0
H159 H 0.74154 0.19079 0.97811 0.0
H160 H 0.77697 0.08383 0.96449 0.0
H161 H 0.68164 0.08386 0.92101 0.0
H162 H 0.86363 0.23367 0.9038 0.0
H163 H 0.8039 0.13316 0.06979 0.0
H164 H 0.73055 0.20279 0.04247 0.0
C165 C 0.89333 0.73039 0.4856 0.0
C166 C 0.92265 0.71671 0.4941 0.0
N167 N 0.94232 0.74066 0.50897 0.0
N168 N 0.89462 0.76277 0.49499 0.0
C169 C 0.92476 0.76835 0.50909 0.0
H170 H 0.87208 0.71739 0.4745 0.0
Co171 Co 0.85981 0.79057 0.49391 0.0
C172 C 0.88644 0.85804 0.50824 0.0
O173 O 0.86177 0.86653 0.52813 0.0
N174 N 0.82363 0.81786 0.49215 0.0
C175 C 0.78744 0.85399 0.47442 0.0
C176 C 0.81784 0.8415 0.46931 0.0
C177 C 0.79612 0.81588 0.51002 0.0
N178 N 0.77384 0.83777 0.50015 0.0
O179 O 0.85896 0.78626 0.4415 0.0
H180 H 0.83455 0.84889 0.4498 0.0
H181 H 0.79165 0.79758 0.52851 0.0
O182 O 0.8888 0.82858 0.49422 0.0
C183 C 0.83808 0.76534 0.42841 0.0
O184 O 0.82022 0.75131 0.45128 0.0
N185 N 0.85946 0.79134 0.54532 0.0
C186 C 0.85288 0.78097 0.61886 0.0
C187 C 0.87412 0.80483 0.60869 0.0
C188 C 0.87763 0.80915 0.57167 0.0
C189 C 0.84029 0.76683 0.55475 0.0
C190 C 0.83617 0.76159 0.59116 0.0
H191 H 0.89562 0.82608 0.56469 0.0
H192 H 0.82759 0.75147 0.53358 0.0
H193 H 0.93316 0.79192 0.52098 0.0
H194 H 0.92883 0.69109 0.49015 0.0
H195 H 0.77618 0.87317 0.45993 0.0
H196 H 0.88848 0.81948 0.62911 0.0
H197 H 0.81962 0.74276 0.59747 0.0
C198 C 0.15598 0.90842 0.06916 0.0
C199 C 0.16542 0.93779 0.08661 0.0
N200 N 0.19783 0.93846 0.0893 0.0
N201 N 0.18224 0.89066 0.06003 0.0
C202 C 0.20746 0.90943 0.07337 0.0
H203 H 0.13135 0.90032 0.06415 0.0
Co204 Co 0.18033 0.84723 0.04008 0.0
C205 C 0.23114 0.87359 0.99093 0.0
O206 O 0.22945 0.90491 1.00115 0.0
N207 N 0.1781 0.80384 0.02101 0.0
C208 C 0.17775 0.75962 0.98207 0.0
C209 C 0.17543 0.79308 0.98541 0.0
C210 C 0.18185 0.77652 0.0388 0.0
N211 N 0.18197 0.74919 0.0157 0.0
O212 O 0.21326 0.83595 0.07511 0.0
H213 H 0.17319 0.80868 0.96317 0.0
H214 H 0.18514 0.77673 0.06809 0.0
O215 O 0.21315 0.85326 0.00492 0.0
C216 C 0.20389 0.83648 0.10764 0.0
O217 O 0.17365 0.8437 0.11379 0.0
N218 N 0.1465 0.85833 0.00747 0.0
C219 C 0.09025 0.88402 0.97657 0.0
C220 C 0.12073 0.895 0.96783 0.0
C221 C 0.14856 0.88189 0.98361 0.0
C222 C 0.11726 0.84575 0.01436 0.0
C223 C 0.08885 0.85813 0.99909 0.0
H224 H 0.17132 0.89273 0.97884 0.0
H225 H 0.11585 0.82751 0.0338 0.0
H226 H 0.23232 0.90159 0.07234 0.0
H227 H 0.14956 0.95725 0.09634 0.0
H228 H 0.17789 0.74436 0.95669 0.0
H229 H 0.12315 0.91522 0.95107 0.0
H230 H 0.06594 0.84849 0.00623 0.0
C231 C 0.12109 0.21629 0.56691 0.0
C232 C 0.09054 0.22807 0.57191 0.0
N233 N 0.06992 0.21085 0.54843 0.0
N234 N 0.12002 0.19158 0.54051 0.0
C235 C 0.08859 0.18888 0.52953 0.0
H236 H 0.14292 0.22549 0.58116 0.0
Co237 Co 0.15689 0.17049 0.52337 0.0
C238 C 0.13529 0.10146 0.51843 0.0
O239 O 0.1609 0.09444 0.53851 0.0
N240 N 0.1951 0.15141 0.50495 0.0
C241 C 0.23429 0.12346 0.47668 0.0
C242 C 0.20259 0.12274 0.48644 0.0
C243 C 0.22209 0.16958 0.5039 0.0
N244 N 0.24642 0.15311 0.48771 0.0
O245 O 0.14872 0.18676 0.47694 0.0
H246 H 0.18608 0.10297 0.47858 0.0
H247 H 0.22391 0.1947 0.51516 0.0
O248 O 0.13132 0.13062 0.50909 0.0
C249 C 0.15965 0.21581 0.47806 0.0
O250 O 0.17054 0.22963 0.50964 0.0
N251 N 0.16636 0.15713 0.57083 0.0
C252 C 0.17947 0.15166 0.64497 0.0
C253 C 0.14909 0.14315 0.62921 0.0
C254 C 0.14306 0.14586 0.5919 0.0
C255 C 0.19595 0.16538 0.58624 0.0
C256 C 0.20325 0.16199 0.62284 0.0
H257 H 0.11905 0.14073 0.5804 0.0
H258 H 0.21359 0.17699 0.57129 0.0
H259 H 0.07974 0.17137 0.50789 0.0
H260 H 0.08433 0.24855 0.59067 0.0
H261 H 0.24699 0.10418 0.46139 0.0
H262 H 0.12988 0.13589 0.64582 0.0
H263 H 0.22658 0.17011 0.6344 0.0
C264 C 0.20525 0.98766 0.1318 0.0
C265 C 0.2174 0.96548 0.10465 0.0
C266 C 0.22169 0.01651 0.14296 0.0
C267 C 0.29815 0.06126 0.14324 0.0
H268 H 0.24216 0.1362 0.13507 0.0
C269 C 0.34529 0.19361 0.13797 0.0
C270 C 0.32538 0.21945 0.15038 0.0
C271 C 0.33491 0.16126 0.13829 0.0
C272 C 0.25815 0.11571 0.13842 0.0
H273 H 0.25751 0.95514 0.06976 0.0
H274 H 0.28654 0.00581 0.08957 0.0
H275 H 0.21979 0.08169 0.1255 0.0
H276 H 0.28054 0.23224 0.17551 0.0
H277 H 0.26301 0.17591 0.17815 0.0
H278 H 0.33659 0.09547 0.15638 0.0
C279 C 0.26418 0.00069 0.10208 0.0
C280 C 0.24527 0.08437 0.13268 0.0
C281 C 0.24758 0.97172 0.09076 0.0
C282 C 0.29604 0.21255 0.16548 0.0
C283 C 0.28597 0.1803 0.16658 0.0
C284 C 0.31108 0.09281 0.14952 0.0
C285 C 0.25078 0.02383 0.12739 0.0
C286 C 0.26507 0.05682 0.13491 0.0
C287 C 0.30462 0.15425 0.15161 0.0
C288 C 0.2912 0.12047 0.14706 0.0
H289 H 0.1825 0.98316 0.14374 0.0
H290 H 0.21113 0.03365 0.16302 0.0
H291 H 0.31392 0.04037 0.14519 0.0
H292 H 0.3679 0.19855 0.12591 0.0
H293 H 0.34986 0.14198 0.12627 0.0
C294 C 0.01841 0.20555 0.51131 0.0
C295 C 0.03561 0.21644 0.54378 0.0
C296 C 0.98561 0.21296 0.50632 0.0
C297 C 0.91412 0.24453 0.55721 0.0
H298 H 0.88327 0.26863 0.46227 0.0
C299 C 0.8 0.32217 0.53478 0.0
C300 C 0.77816 0.31093 0.50639 0.0
C301 C 0.83005 0.30721 0.53901 0.0
C302 C 0.89149 0.26164 0.48883 0.0
H303 H 0.03089 0.24241 0.59709 0.0
H304 H 0.97488 0.25647 0.58782 0.0
H305 H 0.93815 0.24819 0.47022 0.0
H306 H 0.77073 0.2755 0.45992 0.0
H307 H 0.8237 0.24967 0.46687 0.0
H308 H 0.8678 0.25947 0.57602 0.0
C309 C 0.98633 0.24174 0.56629 0.0
C310 C 0.9229 0.24975 0.49341 0.0
C311 C 0.01887 0.2341 0.5714 0.0
C312 C 0.78702 0.28446 0.48221 0.0
C313 C 0.81735 0.26986 0.48603 0.0
C314 C 0.88294 0.25689 0.55273 0.0
C315 C 0.96922 0.23155 0.5336 0.0
C316 C 0.93485 0.24148 0.52782 0.0
C317 C 0.83911 0.28104 0.51455 0.0
C318 C 0.87144 0.26594 0.51862 0.0
H319 H 0.03033 0.19196 0.48935 0.0
H320 H 0.97319 0.20423 0.48097 0.0
H321 H 0.92203 0.23765 0.58389 0.0
H322 H 0.79367 0.34236 0.55393 0.0
H323 H 0.84645 0.31647 0.56108 0.0
C324 C 0.69113 0.02962 0.96398 0.0
C325 C 0.72258 0.04124 0.96051 0.0
C326 C 0.68596 0.99928 0.97715 0.0
C327 C 0.72664 0.92066 0.98983 0.0
H328 H 0.65262 0.90616 0.04723 0.0
C329 C 0.70151 0.79541 0.041 0.0
C330 C 0.67063 0.78308 0.03051 0.0
C331 C 0.70856 0.82839 0.03904 0.0
C332 C 0.67341 0.90994 0.03129 0.0
H333 H 0.77331 0.02953 0.96854 0.0
H334 H 0.76423 0.97738 0.99278 0.0
H335 H 0.66436 0.96117 0.03093 0.0
H336 H 0.62244 0.7965 0.01195 0.0
H337 H 0.63467 0.85407 0.00928 0.0
H338 H 0.73559 0.86939 0.99022 0.0
C339 C 0.74353 0.99154 0.9846 0.0
C340 C 0.68006 0.94136 0.02175 0.0
C341 C 0.74872 0.02176 0.97105 0.0
C342 C 0.64641 0.80501 0.02045 0.0
C343 C 0.65341 0.83807 0.01885 0.0
C344 C 0.72019 0.88936 0.99974 0.0
C345 C 0.71207 0.97983 0.9876 0.0
C346 C 0.70643 0.947 1.00033 0.0
C347 C 0.68478 0.84983 0.02706 0.0
C348 C 0.69324 0.88362 0.02004 0.0
H349 H 0.67029 0.04389 0.9567 0.0
H350 H 0.6614 0.99087 0.97851 0.0
H351 H 0.74682 0.92391 0.97284 0.0
H352 H 0.72053 0.77944 0.04983 0.0
H353 H 0.73283 0.837 0.04609 0.0
C354 C 0.98437 0.70819 0.53873 0.0
C355 C 0.97457 0.73724 0.5239 0.0
C356 C 0.01568 0.70498 0.55335 0.0
C357 C 0.08793 0.75331 0.58645 0.0
H358 H 0.13374 0.6728 0.56093 0.0
C359 C 0.22507 0.74499 0.58115 0.0
C360 C 0.24112 0.71764 0.59387 0.0
C361 C 0.19158 0.74685 0.58015 0.0
C362 C 0.12108 0.69518 0.56889 0.0
H363 H 0.98987 0.78557 0.51248 0.0
H364 H 0.04464 0.77987 0.53735 0.0
H365 H 0.07659 0.67693 0.54403 0.0
H366 H 0.23393 0.67128 0.61684 0.0
H367 H 0.17524 0.67429 0.61408 0.0
H368 H 0.13289 0.77196 0.60987 0.0
C369 C 0.02796 0.75981 0.53854 0.0
C370 C 0.08836 0.69758 0.55921 0.0
C371 C 0.99664 0.76306 0.52413 0.0
C372 C 0.2226 0.69251 0.60638 0.0
C373 C 0.18895 0.69424 0.60496 0.0
C374 C 0.12067 0.75096 0.59591 0.0
C375 C 0.03787 0.73071 0.55327 0.0
C376 C 0.07161 0.72695 0.56711 0.0
C377 C 0.17318 0.72129 0.59147 0.0
C378 C 0.1377 0.72215 0.58646 0.0
H379 H 0.96772 0.68809 0.53951 0.0
H380 H 0.02243 0.68241 0.56491 0.0
H381 H 0.07553 0.77601 0.59365 0.0
H382 H 0.23813 0.76462 0.57062 0.0
H383 H 0.18004 0.76774 0.56902 0.0
C384 C 0.79205 0.5357 0.95338 0.0
C385 C 0.76839 0.5471 0.97735 0.0
C386 C 0.80498 0.5045 0.95512 0.0
C387 C 0.81046 0.43191 0.00885 0.0
H388 H 0.80983 0.38558 0.91273 0.0
C389 C 0.81178 0.2906 0.98324 0.0
C390 C 0.82743 0.27663 0.95253 0.0
C391 C 0.80966 0.32453 0.99004 0.0
C392 C 0.81082 0.39818 0.93977 0.0
H393 H 0.74113 0.53579 0.02348 0.0
H394 H 0.76341 0.48071 0.02631 0.0
H395 H 0.7978 0.44342 0.91871 0.0
H396 H 0.85486 0.28801 0.90626 0.0
H397 H 0.85207 0.34669 0.91881 0.0
H398 H 0.82295 0.38613 0.02981 0.0
C399 C 0.77225 0.49608 0.00639 0.0
C400 C 0.80387 0.43145 0.94321 0.0
C401 C 0.75948 0.52756 0.00481 0.0
C402 C 0.84252 0.29755 0.93009 0.0
C403 C 0.84061 0.33139 0.93707 0.0
C404 C 0.81754 0.39845 0.00539 0.0
C405 C 0.79426 0.48381 0.98065 0.0
C406 C 0.80349 0.44874 0.97774 0.0
C407 C 0.82336 0.34532 0.96648 0.0
C408 C 0.81766 0.38118 0.97075 0.0
H409 H 0.79968 0.55058 0.93239 0.0
H410 H 0.82251 0.49609 0.93551 0.0
H411 H 0.81049 0.44461 0.03582 0.0
H412 H 0.80053 0.27542 1.0017 0.0
H413 H 0.79614 0.33439 0.01293 0.0
C414 C 0.49779 0.80149 0.59015 0.0
C415 C 0.4755 0.81613 0.56685 0.0
C416 C 0.53082 0.80673 0.58758 0.0
C417 C 0.58933 0.86108 0.54803 0.0
H418 H 0.64721 0.78758 0.55608 0.0
C419 C 0.71671 0.8536 0.49074 0.0
C420 C 0.74143 0.84074 0.51258 0.0
C421 C 0.68487 0.85379 0.50154 0.0
C422 C 0.63137 0.80843 0.55423 0.0
H423 H 0.47021 0.84711 0.52214 0.0
H424 H 0.52757 0.85563 0.51696 0.0
H425 H 0.59028 0.78118 0.56714 0.0
H426 H 0.75218 0.82003 0.56412 0.0
H427 H 0.69655 0.81963 0.58233 0.0
H428 H 0.63046 0.88784 0.53363 0.0
C429 C 0.51974 0.84098 0.53806 0.0
C430 C 0.59877 0.80483 0.56068 0.0
C431 C 0.48681 0.83601 0.54091 0.0
C432 C 0.7337 0.82928 0.54611 0.0
C433 C 0.70187 0.82918 0.5567 0.0
C434 C 0.62188 0.86455 0.54117 0.0
C435 C 0.54219 0.82644 0.56135 0.0
C436 C 0.57726 0.83099 0.55722 0.0
C437 C 0.67712 0.84096 0.53424 0.0
C438 C 0.64311 0.83816 0.54386 0.0
H439 H 0.48963 0.78632 0.61061 0.0
H440 H 0.54742 0.7955 0.60627 0.0
H441 H 0.57358 0.88195 0.54586 0.0
H442 H 0.72166 0.86241 0.46468 0.0
H443 H 0.66614 0.8628 0.4836 0.0
C444 C 0.23689 0.46035 0.03075 0.0
C445 C 0.25347 0.44971 0.06167 0.0
C446 C 0.23093 0.49344 0.02776 0.0
C447 C 0.22452 0.57265 0.08186 0.0
H448 H 0.22958 0.60657 0.98708 0.0
C449 C 0.20697 0.70981 0.05603 0.0
C450 C 0.18864 0.71614 0.02435 0.0
C451 C 0.21555 0.67779 0.06269 0.0
C452 C 0.2278 0.59741 0.01367 0.0
H453 H 0.27699 0.46586 0.1137 0.0
H454 H 0.26706 0.52401 0.10816 0.0
H455 H 0.24499 0.55027 0.99461 0.0
H456 H 0.1636 0.69351 0.97593 0.0
H457 H 0.17869 0.6379 0.98741 0.0
H458 H 0.20731 0.62009 0.10078 0.0
C459 C 0.25835 0.50649 0.08641 0.0
C460 C 0.23663 0.56513 0.018 0.0
C461 C 0.26434 0.4732 0.08941 0.0
C462 C 0.17828 0.68963 1.00016 0.0
C463 C 0.18694 0.65773 0.00674 0.0
C464 C 0.21579 0.60511 0.07753 0.0
C465 C 0.24154 0.51697 0.05551 0.0
C466 C 0.23459 0.55214 0.05197 0.0
C467 C 0.2061 0.65148 0.03775 0.0
C468 C 0.21683 0.61764 0.04322 0.0
H469 H 0.22856 0.4431 0.00859 0.0
H470 H 0.21753 0.50054 0.0038 0.0
H471 H 0.22241 0.56334 0.10832 0.0
H472 H 0.21567 0.72961 0.07508 0.0
H473 H 0.23048 0.67374 0.08673 0.0
C474 C 0.28359 0.19834 0.47909 0.0
C475 C 0.27851 0.16515 0.48351 0.0
C476 C 0.31476 0.21059 0.47719 0.0
C477 C 0.39987 0.1858 0.46223 0.0
H478 H 0.41719 0.27324 0.50657 0.0
C479 C 0.52761 0.24548 0.47287 0.0
C480 C 0.52849 0.27692 0.46051 0.0
C481 C 0.49802 0.23048 0.47795 0.0
C482 C 0.41271 0.24881 0.494 0.0
H483 H 0.30211 0.11868 0.48903 0.0
H484 H 0.35675 0.14009 0.48645 0.0
H485 H 0.36401 0.2494 0.51044 0.0
H486 H 0.49924 0.31771 0.44514 0.0
H487 H 0.44784 0.29186 0.45437 0.0
H488 H 0.44897 0.18537 0.44619 0.0
C489 C 0.33661 0.15663 0.48378 0.0
C490 C 0.38213 0.23516 0.49599 0.0
C491 C 0.30531 0.14431 0.48529 0.0
C492 C 0.49931 0.29334 0.45429 0.0
C493 C 0.46988 0.27864 0.45987 0.0
C494 C 0.43064 0.19938 0.46058 0.0
C495 C 0.34178 0.19005 0.48009 0.0
C496 C 0.37506 0.20369 0.47957 0.0
C497 C 0.46884 0.24694 0.47145 0.0
C498 C 0.4372 0.23125 0.47593 0.0
H499 H 0.26339 0.21488 0.47692 0.0
H500 H 0.3176 0.23624 0.4733 0.0
H501 H 0.39534 0.16164 0.44896 0.0
H502 H 0.54975 0.23226 0.47771 0.0
H503 H 0.49793 0.20609 0.48708 0.0
C504 C 0.60328 0.53413 0.05924 0.0
C505 C 0.59577 0.56519 0.04791 0.0
C506 C 0.57882 0.51318 0.06796 0.0
C507 C 0.49429 0.50996 0.09431 0.0
H508 H 0.49769 0.42119 0.05003 0.0
C509 C 0.38773 0.41789 0.094 0.0
C510 C 0.3956 0.38468 0.0947 0.0
C511 C 0.41207 0.4412 0.09195 0.0
C512 C 0.49655 0.44568 0.06325 0.0
H513 H 0.55687 0.59909 0.03812 0.0
H514 H 0.51412 0.56244 0.05342 0.0
H515 H 0.54048 0.45917 0.04022 0.0
H516 H 0.43492 0.35002 0.09653 0.0
H517 H 0.47718 0.39045 0.09463 0.0
H518 H 0.45038 0.49632 0.11762 0.0
C519 C 0.53892 0.55433 0.05551 0.0
C520 C 0.52112 0.4675 0.05747 0.0
C521 C 0.56335 0.57516 0.04642 0.0
C522 C 0.42814 0.37542 0.09547 0.0
C523 C 0.45237 0.39862 0.09405 0.0
C524 C 0.46976 0.48796 0.10045 0.0
C525 C 0.54636 0.52294 0.06589 0.0
C526 C 0.52031 0.49986 0.07291 0.0
C527 C 0.44469 0.43168 0.09104 0.0
C528 C 0.47063 0.45547 0.08505 0.0
H529 H 0.62799 0.52568 0.06046 0.0
H530 H 0.5853 0.48922 0.07617 0.0
H531 H 0.49313 0.53475 0.10671 0.0
H532 H 0.36278 0.42562 0.09317 0.0
H533 H 0.4052 0.46639 0.08951 0.0
C534 C 0.57461 0.45673 0.56659 0.0
C535 C 0.5766 0.44156 0.53112 0.0
C536 C 0.55488 0.48424 0.57315 0.0
C537 C 0.48327 0.52423 0.53583 0.0
H538 H 0.5173 0.60541 0.58336 0.0
C539 C 0.41675 0.64399 0.51967 0.0
C540 C 0.41483 0.66713 0.54976 0.0
C541 C 0.43716 0.6171 0.52103 0.0
C542 C 0.50726 0.58281 0.57056 0.0
H543 H 0.55895 0.44257 0.47502 0.0
H544 H 0.52429 0.48994 0.48649 0.0
H545 H 0.551 0.55619 0.58035 0.0
H546 H 0.4338 0.6808 0.60459 0.0
H547 H 0.46941 0.63316 0.60727 0.0
H548 H 0.43967 0.55027 0.52597 0.0
C549 C 0.53811 0.48093 0.50918 0.0
C550 C 0.52657 0.55466 0.56883 0.0
C551 C 0.5581 0.45394 0.50257 0.0
C552 C 0.43476 0.66335 0.58095 0.0
C553 C 0.45516 0.63609 0.58245 0.0
C554 C 0.46397 0.55211 0.53783 0.0
C555 C 0.53633 0.49648 0.54446 0.0
C556 C 0.51499 0.52532 0.5506 0.0
C557 C 0.45607 0.61226 0.5527 0.0
C558 C 0.47595 0.58204 0.55427 0.0
H559 H 0.58869 0.44766 0.58904 0.0
H560 H 0.55384 0.49572 0.60062 0.0
H561 H 0.47352 0.50181 0.52218 0.0
H562 H 0.40213 0.64641 0.49497 0.0
H563 H 0.43793 0.59991 0.49715 0.0
C564 C 0.05746 0.91533 0.93176 0.0
C565 C 0.06051 0.90195 0.9657 0.0
C566 C 0.0314 0.93559 0.92365 0.0
C567 C 0.98945 0.99659 0.92733 0.0
H568 H 0.90348 0.98389 0.96083 0.0
C569 C 0.90077 0.10271 0.95287 0.0
C570 C 0.86792 0.09788 0.9433 0.0
C571 C 0.92246 0.07669 0.95015 0.0
C572 C 0.92723 0.98762 0.95086 0.0
H573 H 0.03781 0.89899 0.01734 0.0
H574 H 0.99249 0.93391 0.0031 0.0
H575 H 0.9437 0.94067 0.9652 0.0
H576 H 0.83212 0.06181 0.92303 0.0
H577 H 0.87021 0.01607 0.91845 0.0
H578 H 0.97318 0.04366 0.91348 0.0
C579 C 0.01002 0.92844 0.98252 0.0
C580 C 0.95038 0.96299 0.9537 0.0
C581 C 0.03608 0.90829 0.99066 0.0
C582 C 0.8573 0.06636 0.93051 0.0
C583 C 0.87907 0.04015 0.92809 0.0
C584 C 0.96638 0.02123 0.92466 0.0
C585 C 0.00768 0.94292 0.94923 0.0
C586 C 0.98196 0.96741 0.94259 0.0
C587 C 0.91191 0.04504 0.93799 0.0
C588 C 0.93518 0.01734 0.93707 0.0
H589 H 0.07554 0.91061 0.91165 0.0
H590 H 0.03008 0.94593 0.89751 0.0
H591 H 0.01356 0.001 0.91878 0.0
H592 H 0.90981 0.12665 0.96279 0.0
H593 H 0.94746 0.08128 0.95852 0.0
C594 C 0.93709 0.87567 0.47993 0.0
C595 C 0.91201 0.88242 0.50389 0.0
C596 C 0.96085 0.89915 0.47596 0.0
C597 C 0.97846 0.9884 0.49553 0.0
H598 H 0.06711 0.9607 0.48589 0.0
C599 C 0.11452 0.04486 0.52234 0.0
C600 C 0.11036 0.07589 0.50931 0.0
C601 C 0.09048 0.02112 0.51645 0.0
C602 C 0.04251 0.96895 0.48877 0.0
H603 H 0.89256 0.91911 0.54276 0.0
H604 H 0.93413 0.95933 0.53672 0.0
H605 H 0.02497 0.91992 0.48693 0.0
H606 H 0.07778 0.10591 0.47889 0.0
H607 H 0.03591 0.06408 0.46781 0.0
H608 H 0.9962 0.03744 0.49938 0.0
C609 C 0.93515 0.93637 0.52012 0.0
C610 C 0.01819 0.94545 0.48884 0.0
C611 C 0.91135 0.91308 0.52384 0.0
C612 C 0.08176 0.08229 0.48936 0.0
C613 C 0.05766 0.05835 0.48325 0.0
C614 C 0.00281 0.0119 0.49579 0.0
C615 C 0.96021 0.92987 0.49605 0.0
C616 C 0.98586 0.95482 0.49289 0.0
C617 C 0.06157 0.02751 0.49707 0.0
C618 C 0.03527 0.00253 0.49308 0.0
H619 H 0.93825 0.85233 0.46405 0.0
H620 H 0.97953 0.89331 0.45687 0.0
H621 H 0.95381 0.99665 0.49791 0.0
H622 H 0.13614 0.039 0.53797 0.0
H623 H 0.09427 0.99803 0.52818 0.0
C624 C 0.2198 0.31843 0.18719 0.0
C625 C 0.25001 0.33365 0.1863 0.0
C626 C 0.20833 0.30944 0.21984 0.0
C627 C 0.20885 0.32296 0.31675 0.0
H628 H 0.19765 0.22917 0.31636 0.0
C629 C 0.18362 0.26096 0.44714 0.0
C630 C 0.16508 0.23223 0.44463 0.0
C631 C 0.192 0.27527 0.4159 0.0
C632 C 0.19998 0.25544 0.31681 0.0
H633 H 0.29087 0.35345 0.21943 0.0
H634 H 0.27001 0.33838 0.27734 0.0
H635 H 0.21654 0.25239 0.26235 0.0
H636 H 0.1397 0.19666 0.40733 0.0
H637 H 0.15327 0.22241 0.35244 0.0
H638 H 0.19123 0.32638 0.3706 0.0
C639 C 0.25568 0.33314 0.25229 0.0
C640 C 0.21115 0.26865 0.286 0.0
C641 C 0.26751 0.34181 0.21929 0.0
C642 C 0.15409 0.21873 0.41011 0.0
C643 C 0.16216 0.23336 0.37869 0.0
C644 C 0.19709 0.30982 0.34743 0.0
C645 C 0.22649 0.31595 0.25246 0.0
C646 C 0.21575 0.30245 0.28579 0.0
C647 C 0.18171 0.26153 0.38118 0.0
C648 C 0.19264 0.27583 0.34792 0.0
H649 H 0.20549 0.31204 0.16237 0.0
H650 H 0.1856 0.29652 0.21948 0.0
H651 H 0.21191 0.34914 0.3169 0.0
H652 H 0.19269 0.27197 0.4733 0.0
H653 H 0.20754 0.29651 0.41907 0.0
C654 C 0.75898 0.15824 0.8067 0.0
C655 C 0.74581 0.17722 0.83599 0.0
C656 C 0.74781 0.16192 0.77066 0.0
C657 C 0.6779 0.1946 0.71858 0.0
H658 H 0.73865 0.21017 0.64492 0.0
C659 C 0.65491 0.28271 0.60897 0.0
C660 C 0.66397 0.27427 0.5732 0.0
C661 C 0.66149 0.26179 0.63629 0.0
C662 C 0.72134 0.20513 0.66491 0.0
H663 H 0.71069 0.21494 0.85023 0.0
H664 H 0.69173 0.22131 0.7884 0.0
H665 H 0.7581 0.18998 0.70267 0.0
H666 H 0.68658 0.23731 0.53748 0.0
H667 H 0.69907 0.20071 0.58595 0.0
H668 H 0.64147 0.21174 0.68191 0.0
C669 C 0.71021 0.20324 0.7929 0.0
C670 C 0.73247 0.19358 0.69797 0.0
C671 C 0.7214 0.19977 0.8285 0.0
C672 C 0.67892 0.24401 0.56484 0.0
C673 C 0.68628 0.2233 0.59252 0.0
C674 C 0.66687 0.20633 0.6858 0.0
C675 C 0.72306 0.18433 0.76349 0.0
C676 C 0.711 0.18954 0.72576 0.0
C677 C 0.67799 0.23228 0.62861 0.0
C678 C 0.68862 0.21291 0.65922 0.0
H679 H 0.77783 0.14068 0.81159 0.0
H680 H 0.75826 0.14708 0.7485 0.0
H681 H 0.66063 0.191 0.73911 0.0
H682 H 0.64363 0.30606 0.61606 0.0
H683 H 0.65515 0.26955 0.6639 0.0
C684 C 0.85152 0.77048 0.36272 0.0
C685 C 0.83405 0.75561 0.38877 0.0
C686 C 0.84717 0.76032 0.32543 0.0
C687 C 0.81565 0.69037 0.26366 0.0
H688 H 0.79922 0.754 0.19303 0.0
C689 C 0.73205 0.66631 0.13784 0.0
C690 C 0.74049 0.67696 0.10431 0.0
C691 C 0.75153 0.67359 0.16918 0.0
C692 C 0.80445 0.73592 0.21225 0.0
H693 H 0.79826 0.71851 0.39591 0.0
H694 H 0.79066 0.70125 0.33178 0.0
H695 H 0.81836 0.77231 0.25522 0.0
H696 H 0.77609 0.70317 0.07688 0.0
H697 H 0.81017 0.71683 0.13251 0.0
H698 H 0.80009 0.6542 0.22144 0.0
C699 C 0.80809 0.72033 0.33985 0.0
C700 C 0.81539 0.74639 0.24787 0.0
C701 C 0.81226 0.7305 0.37676 0.0
C702 C 0.76934 0.69438 0.10242 0.0
C703 C 0.78861 0.70238 0.13418 0.0
C704 C 0.8046 0.67998 0.22829 0.0
C705 C 0.82553 0.73491 0.31365 0.0
C706 C 0.81989 0.72381 0.27434 0.0
C707 C 0.77965 0.69228 0.16794 0.0
C708 C 0.79777 0.70272 0.20258 0.0
H709 H 0.86847 0.78991 0.3711 0.0
H710 H 0.86094 0.77207 0.30589 0.0
H711 H 0.81966 0.67224 0.28312 0.0
H712 H 0.70987 0.65292 0.14 0.0
H713 H 0.74377 0.66579 0.1948 0.0
C714 C 0.26556 0.88421 0.93872 0.0
C715 C 0.25127 0.86194 0.96013 0.0
C716 C 0.2826 0.87313 0.90813 0.0
C717 C 0.29024 0.80069 0.84194 0.0
H718 H 0.36243 0.8494 0.81076 0.0
C719 C 0.35205 0.76435 0.70628 0.0
C720 C 0.35381 0.79038 0.68398 0.0
C721 C 0.34513 0.77035 0.7432 0.0
C722 C 0.34236 0.83548 0.81918 0.0
H723 H 0.24484 0.81044 0.96694 0.0
H724 H 0.27505 0.79115 0.91415 0.0
H725 H 0.33951 0.86505 0.86956 0.0
H726 H 0.35162 0.84303 0.68315 0.0
H727 H 0.34023 0.85347 0.74729 0.0
H728 H 0.29292 0.77141 0.79124 0.0
C729 C 0.27248 0.81722 0.92042 0.0
C730 C 0.32906 0.84455 0.8528 0.0
C731 C 0.25526 0.82831 0.95085 0.0
C732 C 0.35034 0.82247 0.69967 0.0
C733 C 0.34398 0.82848 0.7365 0.0
C734 C 0.30371 0.79147 0.80844 0.0
C735 C 0.28602 0.83947 0.89831 0.0
C736 C 0.30232 0.82778 0.86427 0.0
C737 C 0.34048 0.8025 0.75852 0.0
C738 C 0.32943 0.80923 0.7963 0.0
H739 H 0.26288 0.91028 0.94497 0.0
H740 H 0.29221 0.89105 0.89155 0.0
H741 H 0.26943 0.7874 0.84952 0.0
H742 H 0.3544 0.73936 0.69481 0.0
H743 H 0.34273 0.74986 0.75959 0.0
C744 C 0.71894 0.72656 0.88741 0.0
C745 C 0.73395 0.71168 0.91668 0.0
C746 C 0.73715 0.73904 0.86076 0.0
C747 C 0.78062 0.77503 0.81395 0.0
H748 H 0.8483 0.71878 0.77538 0.0
C749 C 0.84452 0.80299 0.6837 0.0
C750 C 0.84779 0.77613 0.65788 0.0
C751 C 0.83637 0.79835 0.71945 0.0
C752 C 0.82949 0.73481 0.78582 0.0
H753 H 0.78009 0.69934 0.94165 0.0
H754 H 0.81213 0.72134 0.89491 0.0
H755 H 0.82248 0.70599 0.83071 0.0
H756 H 0.84701 0.72322 0.65015 0.0
H757 H 0.83215 0.71518 0.71188 0.0
H758 H 0.78636 0.80287 0.76809 0.0
C759 C 0.78612 0.72306 0.89253 0.0
C760 C 0.81494 0.72769 0.81785 0.0
C761 C 0.7678 0.71068 0.91944 0.0
C762 C 0.84415 0.74451 0.66913 0.0
C763 C 0.83603 0.73987 0.70478 0.0
C764 C 0.79512 0.78213 0.78193 0.0
C765 C 0.77095 0.73695 0.86254 0.0
C766 C 0.78971 0.74722 0.83177 0.0
C767 C 0.8314 0.76673 0.73026 0.0
C768 C 0.81917 0.76163 0.7669 0.0
H769 H 0.69292 0.72783 0.88446 0.0
H770 H 0.72456 0.74911 0.8379 0.0
H771 H 0.7616 0.7909 0.8242 0.0
H772 H 0.84706 0.82769 0.67595 0.0
H773 H 0.83341 0.81959 0.73846 0.0
C774 C 0.34757 0.75438 0.38351 0.0
C775 C 0.33557 0.7743 0.41281 0.0
C776 C 0.34045 0.76139 0.34741 0.0
C777 C 0.30944 0.82802 0.29235 0.0
H778 H 0.28146 0.75727 0.22197 0.0
C779 C 0.22 0.84523 0.17342 0.0
C780 C 0.22626 0.83058 0.13865 0.0
C781 C 0.23976 0.839 0.20359 0.0
C782 C 0.28978 0.77721 0.24112 0.0
H783 H 0.30787 0.81802 0.427 0.0
H784 H 0.29477 0.82962 0.36466 0.0
H785 H 0.30441 0.74492 0.28156 0.0
H786 H 0.25818 0.79798 0.10801 0.0
H787 H 0.29254 0.78619 0.16153 0.0
H788 H 0.29316 0.8603 0.25264 0.0
C789 C 0.30994 0.80875 0.36928 0.0
C790 C 0.30296 0.77017 0.27526 0.0
C791 C 0.31703 0.80178 0.40516 0.0
C792 C 0.25297 0.8097 0.13454 0.0
C793 C 0.27247 0.80287 0.16507 0.0
C794 C 0.29601 0.83501 0.25848 0.0
C795 C 0.32137 0.78861 0.33986 0.0
C796 C 0.312 0.79557 0.30173 0.0
C797 C 0.26597 0.81752 0.19988 0.0
C798 C 0.2852 0.80974 0.23293 0.0
H799 H 0.36188 0.73299 0.38847 0.0
H800 H 0.34985 0.7455 0.32543 0.0
H801 H 0.31694 0.84817 0.31164 0.0
H802 H 0.19968 0.86154 0.17738 0.0
H803 H 0.23397 0.85035 0.23012 0.0
C804 C 0.21363 0.14314 0.70056 0.0
C805 C 0.18544 0.15589 0.6848 0.0
C806 C 0.225 0.1554 0.73519 0.0
C807 C 0.22774 0.23325 0.78684 0.0
H808 H 0.26558 0.18691 0.86557 0.0
C809 C 0.27979 0.29917 0.92079 0.0
C810 C 0.30479 0.28398 0.93984 0.0
C811 C 0.26587 0.28368 0.8888 0.0
C812 C 0.25566 0.20021 0.84351 0.0
H813 H 0.14566 0.18941 0.69358 0.0
H814 H 0.16565 0.21101 0.75422 0.0
H815 H 0.23643 0.15653 0.81477 0.0
H816 H 0.33659 0.24217 0.9394 0.0
H817 H 0.31356 0.21581 0.88236 0.0
H818 H 0.24786 0.27673 0.81444 0.0
C819 C 0.17888 0.19156 0.73981 0.0
C820 C 0.23864 0.1828 0.81472 0.0
C821 C 0.16727 0.17896 0.70539 0.0
C822 C 0.31734 0.25431 0.92501 0.0
C823 C 0.30377 0.23904 0.89272 0.0
C824 C 0.24515 0.25061 0.8153 0.0
C825 C 0.20855 0.18091 0.75422 0.0
C826 C 0.22448 0.19919 0.78621 0.0
C827 C 0.27698 0.25287 0.87505 0.0
C828 C 0.25937 0.23433 0.84401 0.0
H829 H 0.22809 0.1255 0.68496 0.0
H830 H 0.24797 0.14684 0.74571 0.0
H831 H 0.21762 0.24637 0.76471 0.0
H832 H 0.26936 0.32179 0.93212 0.0
H833 H 0.24514 0.295 0.87621 0.0
C834 C 0.75528 0.21021 0.11393 0.0
C835 C 0.76089 0.17767 0.10092 0.0
C836 C 0.74604 0.21782 0.14953 0.0
C837 C 0.74516 0.1913 0.24163 0.0
H838 H 0.67351 0.25191 0.24919 0.0
C839 C 0.68896 0.24577 0.37848 0.0
C840 C 0.68606 0.28 0.37989 0.0
C841 C 0.69764 0.22796 0.3461 0.0
C842 C 0.69346 0.23487 0.24755 0.0
H843 H 0.76273 0.12769 0.11584 0.0
H844 H 0.74686 0.14126 0.1788 0.0
H845 H 0.69029 0.23065 0.18933 0.0
H846 H 0.69118 0.3223 0.34885 0.0
H847 H 0.70591 0.29154 0.29326 0.0
H848 H 0.74873 0.1966 0.30028 0.0
C849 C 0.74949 0.16073 0.16103 0.0
C850 C 0.70311 0.22278 0.2133 0.0
C851 C 0.75864 0.15301 0.12508 0.0
C852 C 0.69282 0.29598 0.3488 0.0
C853 C 0.70117 0.27834 0.31675 0.0
C854 C 0.73544 0.20354 0.27618 0.0
C855 C 0.7423 0.19315 0.17322 0.0
C856 C 0.72974 0.20178 0.20989 0.0
C857 C 0.70314 0.24417 0.31475 0.0
C858 C 0.71018 0.22633 0.27931 0.0
H859 H 0.75761 0.22988 0.09636 0.0
H860 H 0.74144 0.24314 0.15846 0.0
H861 H 0.7657 0.17504 0.23972 0.0
H862 H 0.68405 0.23281 0.40207 0.0
H863 H 0.69915 0.20159 0.34524 0.0
loop_
_geom_bond_atom_site_label_1
_geom_bond_atom_site_label_2
_geom_bond_distance
_geom_bond_site_symmetry_2
_ccdc_geom_bond_type
C0 C1 1.351 . S
C0 N3 1.368 . S
C0 H5 0.931 . S
C1 C0 1.351 . S
C1 N2 1.373 . S
C1 H29 0.930 . S
N2 C1 1.373 . S
N2 C4 1.340 . S
N3 C0 1.368 . S
N3 C4 1.321 . S
N3 Co6 2.135 . S
C4 N2 1.340 . S
C4 N3 1.321 . S
C4 H28 0.930 . S
H5 C0 0.931 . S
Co6 N3 2.135 . S
Co6 N9 2.121 . S
Co6 O14 2.055 . S
Co6 O17 2.039 . S
Co6 N20 2.140 . S
C7 O8 1.227 . S
C7 O17 1.265 . S
O8 C7 1.227 . S
N9 Co6 2.121 . S
N9 C11 1.375 . S
N9 C12 1.313 . S
C10 C11 1.338 . S
C10 N13 1.377 . S
C10 H30 0.930 . S
C11 N9 1.375 . S
C11 C10 1.338 . S
C11 H15 0.931 . S
C12 N9 1.313 . S
C12 N13 1.344 . S
C12 H16 0.930 . S
N13 C10 1.377 . S
N13 C12 1.344 . S
O14 Co6 2.055 . S
O14 C18 1.253 . S
H15 C11 0.931 . S
H16 C12 0.930 . S
O17 Co6 2.039 . S
O17 C7 1.265 . S
C18 O14 1.253 . S
C18 O19 1.227 . S
O19 C18 1.227 . S
N20 Co6 2.140 . S
N20 C23 1.346 1_554 S
N20 C24 1.345 . S
C21 C22 1.387 . S
C21 C25 1.391 . S
C22 C21 1.387 . S
C22 C23 1.369 . S
C22 H31 0.929 . S
C23 N20 1.346 1_556 S
C23 C22 1.369 . S
C23 H26 0.928 . S
C24 N20 1.345 . S
C24 C25 1.371 1_554 S
C24 H27 0.931 . S
C25 C21 1.391 . S
C25 C24 1.371 1_556 S
C25 H32 0.930 . S
H26 C23 0.928 . S
H27 C24 0.931 . S
H28 C4 0.930 . S
H29 C1 0.930 . S
H30 C10 0.930 . S
H31 C22 0.929 . S
H32 C25 0.930 . S
C33 C34 1.351 . S
C33 N36 1.368 . S
C33 H38 0.931 . S
C34 C33 1.351 . S
C34 N35 1.373 . S
C34 H62 0.930 . S
N35 C34 1.373 . S
N35 C37 1.340 . S
N36 C33 1.368 . S
N36 C37 1.321 . S
N36 Co39 2.135 . S
C37 N35 1.340 . S
C37 N36 1.321 . S
C37 H61 0.930 . S
H38 C33 0.931 . S
Co39 N36 2.135 . S
Co39 N42 2.121 . S
Co39 O47 2.055 . S
Co39 O50 2.039 . S
Co39 N53 2.140 . S
C40 O41 1.227 . S
C40 O50 1.265 . S
O41 C40 1.227 . S
N42 Co39 2.121 . S
N42 C44 1.375 . S
N42 C45 1.313 . S
C43 C44 1.338 . S
C43 N46 1.377 . S
C43 H63 0.930 . S
C44 N42 1.375 . S
C44 C43 1.338 . S
C44 H48 0.931 . S
C45 N42 1.313 . S
C45 N46 1.344 . S
C45 H49 0.930 . S
N46 C43 1.377 . S
N46 C45 1.344 . S
O47 Co39 2.055 . S
O47 C51 1.253 . S
H48 C44 0.931 . S
H49 C45 0.930 . S
O50 Co39 2.039 . S
O50 C40 1.265 . S
C51 O47 1.253 . S
C51 O52 1.227 . S
O52 C51 1.227 . S
N53 Co39 2.140 . S
N53 C56 1.346 . S
N53 C57 1.345 . S
C54 C55 1.387 . S
C54 C58 1.391 . S
C55 C54 1.387 . S
C55 C56 1.369 . S
C55 H64 0.929 . S
C56 N53 1.346 . S
C56 C55 1.369 . S
C56 H59 0.928 . S
C57 N53 1.345 . S
C57 C58 1.371 . S
C57 H60 0.931 . S
C58 C54 1.391 . S
C58 C57 1.371 . S
C58 H65 0.930 . S
H59 C56 0.928 . S
H60 C57 0.931 . S
H61 C37 0.930 . S
H62 C34 0.930 . S
H63 C43 0.930 . S
H64 C55 0.929 . S
H65 C58 0.930 . S
C66 C67 1.351 . S
C66 N69 1.368 1_556 S
C66 H71 0.931 . S
C67 C66 1.351 . S
C67 N68 1.373 1_556 S
C67 H95 0.930 . S
N68 C67 1.373 1_554 S
N68 C70 1.340 . S
N69 C66 1.368 1_554 S
N69 C70 1.321 . S
N69 Co72 2.135 . S
C70 N68 1.340 . S
C70 N69 1.321 . S
C70 H94 0.930 . S
H71 C66 0.931 . S
Co72 N69 2.135 . S
Co72 N75 2.121 . S
Co72 O80 2.055 1_554 S
Co72 O83 2.039 . S
Co72 N86 2.140 . S
C73 O74 1.227 . S
C73 O83 1.265 . S
O74 C73 1.227 . S
N75 Co72 2.121 . S
N75 C77 1.375 . S
N75 C78 1.313 . S
C76 C77 1.338 . S
C76 N79 1.377 . S
C76 H96 0.930 . S
C77 N75 1.375 . S
C77 C76 1.338 . S
C77 H81 0.931 . S
C78 N75 1.313 . S
C78 N79 1.344 . S
C78 H82 0.930 1_554 S
N79 C76 1.377 . S
N79 C78 1.344 . S
O80 Co72 2.055 1_556 S
O80 C84 1.253 . S
H81 C77 0.931 . S
H82 C78 0.930 1_556 S
O83 Co72 2.039 . S
O83 C73 1.265 . S
C84 O80 1.253 . S
C84 O85 1.227 . S
O85 C84 1.227 . S
N86 Co72 2.140 . S
N86 C89 1.346 . S
N86 C90 1.358 . S
C87 C88 1.387 . S
C87 C91 1.408 . S
C88 C87 1.387 . S
C88 C89 1.369 . S
C88 H97 0.929 . S
C89 N86 1.346 . S
C89 C88 1.369 . S
C89 H92 0.928 . S
C90 N86 1.358 . S
C90 C91 1.371 . S
C90 H93 0.916 1_554 S
C91 C87 1.408 . S
C91 C90 1.371 . S
C91 H98 0.915 1_554 S
H92 C89 0.928 . S
H93 C90 0.916 1_556 S
H94 C70 0.930 . S
H95 C67 0.930 . S
H96 C76 0.930 . S
H97 C88 0.929 . S
H98 C91 0.915 1_556 S
C99 C100 1.351 . S
C99 N102 1.368 . S
C99 H104 0.931 . S
C100 C99 1.351 . S
C100 N101 1.373 . S
C100 H128 0.930 . S
N101 C100 1.373 . S
N101 C103 1.340 . S
N102 C99 1.368 . S
N102 C103 1.321 . S
N102 Co105 2.135 . S
C103 N101 1.340 . S
C103 N102 1.321 . S
C103 H127 0.930 . S
H104 C99 0.931 . S
Co105 N102 2.135 . S
Co105 N108 2.121 . S
Co105 O113 2.055 . S
Co105 O116 2.039 . S
Co105 N119 2.140 . S
C106 O107 1.227 . S
C106 O116 1.265 . S
O107 C106 1.227 . S
N108 Co105 2.121 . S
N108 C110 1.375 . S
N108 C111 1.313 . S
C109 C110 1.338 . S
C109 N112 1.377 . S
C109 H129 0.930 . S
C110 N108 1.375 . S
C110 C109 1.338 . S
C110 H114 0.931 . S
C111 N108 1.313 . S
C111 N112 1.344 . S
C111 H115 0.930 . S
N112 C109 1.377 . S
N112 C111 1.344 . S
O113 Co105 2.055 . S
O113 C117 1.253 . S
H114 C110 0.931 . S
H115 C111 0.930 . S
O116 Co105 2.039 . S
O116 C106 1.265 . S
C117 O113 1.253 . S
C117 O118 1.227 . S
O118 C117 1.227 . S
N119 Co105 2.140 . S
N119 C122 1.346 . S
N119 C123 1.345 . S
C120 C121 1.387 . S
C120 C124 1.391 . S
C121 C120 1.387 . S
C121 C122 1.369 . S
C121 H130 0.929 . S
C122 N119 1.346 . S
C122 C121 1.369 . S
C122 H125 0.928 . S
C123 N119 1.345 . S
C123 C124 1.371 . S
C123 H126 0.931 . S
C124 C120 1.391 . S
C124 C123 1.371 . S
C124 H131 0.930 . S
H125 C122 0.928 . S
H126 C123 0.931 . S
H127 C103 0.930 . S
H128 C100 0.930 . S
H129 C109 0.930 . S
H130 C121 0.929 . S
H131 C124 0.930 . S
C132 C133 1.351 1_545 S
C132 N135 1.368 . S
C132 H137 0.931 . S
C133 C132 1.351 1_565 S
C133 N134 1.373 . S
C133 H161 0.930 . S
N134 C133 1.373 . S
N134 C136 1.340 1_565 S
N135 C132 1.368 . S
N135 C136 1.321 . S
N135 Co138 2.135 . S
C136 N134 1.340 1_545 S
C136 N135 1.321 . S
C136 H160 0.930 . S
H137 C132 0.931 . S
Co138 N135 2.135 . S
Co138 N141 2.121 . S
Co138 O146 2.055 . S
Co138 O149 2.039 . S
Co138 N152 2.140 1_556 S
C139 O140 1.227 . S
C139 O149 1.265 1_554 S
O140 C139 1.227 . S
N141 Co138 2.121 . S
N141 C143 1.375 1_556 S
N141 C144 1.313 . S
C142 C143 1.338 . S
C142 N145 1.377 1_554 S
C142 H162 0.930 . S
C143 N141 1.375 1_554 S
C143 C142 1.338 . S
C143 H147 0.931 . S
C144 N141 1.313 . S
C144 N145 1.344 . S
C144 H148 0.930 . S
N145 C142 1.377 1_556 S
N145 C144 1.344 . S
O146 Co138 2.055 . S
O146 C150 1.253 . S
H147 C143 0.931 . S
H148 C144 0.930 . S
O149 Co138 2.039 . S
O149 C139 1.265 1_556 S
C150 O146 1.253 . S
C150 O151 1.227 . S
O151 C150 1.227 . S
N152 Co138 2.140 1_554 S
N152 C155 1.346 . S
N152 C156 1.345 . S
C153 C154 1.387 . S
C153 C157 1.391 . S
C154 C153 1.387 . S
C154 C155 1.369 . S
C154 H163 0.929 . S
C155 N152 1.346 . S
C155 C154 1.369 . S
C155 H158 0.928 . S
C156 N152 1.345 . S
C156 C157 1.371 . S
C156 H159 0.931 . S
C157 C153 1.391 . S
C157 C156 1.371 . S
C157 H164 0.930 . S
H158 C155 0.928 . S
H159 C156 0.931 . S
H160 C136 0.930 . S
H161 C133 0.930 . S
H162 C142 0.930 . S
H163 C154 0.929 . S
H164 C157 0.930 . S
C165 C166 1.351 1_655 S
C165 N168 1.368 . S
C165 H170 0.931 . S
C166 C165 1.351 1_455 S
C166 N167 1.373 . S
C166 H194 0.930 . S
N167 C166 1.373 . S
N167 C169 1.340 . S
N168 C165 1.368 . S
N168 C169 1.321 1_655 S
N168 Co171 2.135 . S
C169 N167 1.340 . S
C169 N168 1.321 1_455 S
C169 H193 0.930 . S
H170 C165 0.931 . S
Co171 N168 2.135 . S
Co171 N174 2.121 . S
Co171 O179 2.055 . S
Co171 O182 2.039 . S
Co171 N185 2.140 . S
C172 O173 1.227 . S
C172 O182 1.265 . S
O173 C172 1.227 . S
N174 Co171 2.121 . S
N174 C176 1.375 . S
N174 C177 1.313 . S
C175 C176 1.338 . S
C175 N178 1.377 . S
C175 H195 0.930 . S
C176 N174 1.375 . S
C176 C175 1.338 . S
C176 H180 0.931 . S
C177 N174 1.313 . S
C177 N178 1.344 . S
C177 H181 0.930 . S
N178 C175 1.377 . S
N178 C177 1.344 . S
O179 Co171 2.055 . S
O179 C183 1.253 . S
H180 C176 0.931 . S
H181 C177 0.930 . S
O182 Co171 2.039 . S
O182 C172 1.265 . S
C183 O179 1.253 . S
C183 O184 1.227 . S
O184 C183 1.227 . S
N185 Co171 2.140 . S
N185 C188 1.346 . S
N185 C189 1.345 . S
C186 C187 1.387 . S
C186 C190 1.391 . S
C187 C186 1.387 . S
C187 C188 1.369 . S
C187 H196 0.929 . S
C188 N185 1.346 . S
C188 C187 1.369 . S
C188 H191 0.928 . S
C189 N185 1.345 . S
C189 C190 1.371 . S
C189 H192 0.931 . S
C190 C186 1.391 . S
C190 C189 1.371 . S
C190 H197 0.930 . S
H191 C188 0.928 . S
H192 C189 0.931 . S
H193 C169 0.930 . S
H194 C166 0.930 . S
H195 C175 0.930 . S
H196 C187 0.929 . S
H197 C190 0.930 . S
C198 C199 1.351 . S
C198 N201 1.368 1_545 S
C198 H203 0.931 1_545 S
C199 C198 1.351 . S
C199 N200 1.373 . S
C199 H227 0.930 . S
N200 C199 1.373 . S
N200 C202 1.340 . S
N201 C198 1.368 1_565 S
N201 C202 1.321 1_565 S
N201 Co204 2.135 . S
C202 N200 1.340 . S
C202 N201 1.321 1_545 S
C202 H226 0.933 . S
H203 C198 0.931 1_565 S
Co204 N201 2.135 . S
Co204 N207 2.121 . S
Co204 O212 2.055 . S
Co204 O215 2.039 1_554 S
Co204 N218 2.140 . S
C205 O206 1.227 . S
C205 O215 1.265 . S
O206 C205 1.227 . S
N207 Co204 2.121 . S
N207 C209 1.375 1_554 S
N207 C210 1.313 . S
C208 C209 1.337 1_554 S
C208 N211 1.382 . S
C208 H228 0.927 1_554 S
C209 N207 1.375 1_556 S
C209 C208 1.337 1_556 S
C209 H213 0.931 . S
C210 N207 1.313 . S
C210 N211 1.344 . S
C210 H214 0.930 . S
N211 C208 1.382 . S
N211 C210 1.344 . S
O212 Co204 2.055 . S
O212 C216 1.253 . S
H213 C209 0.931 . S
H214 C210 0.930 . S
O215 Co204 2.039 1_556 S
O215 C205 1.265 . S
C216 O212 1.253 . S
C216 O217 1.227 . S
O217 C216 1.227 . S
N218 Co204 2.140 . S
N218 C221 1.346 . S
N218 C222 1.345 . S
C219 C220 1.387 . S
C219 C223 1.391 . S
C220 C219 1.387 . S
C220 C221 1.369 . S
C220 H229 0.923 1_554 S
C221 N218 1.346 . S
C221 C220 1.369 . S
C221 H224 0.928 . S
C222 N218 1.345 . S
C222 C223 1.371 . S
C222 H225 0.931 . S
C223 C219 1.391 . S
C223 C222 1.371 . S
C223 H230 0.930 . S
H224 C221 0.928 . S
H225 C222 0.931 . S
H226 C202 0.933 . S
H227 C199 0.930 . S
H228 C208 0.927 1_556 S
H229 C220 0.923 1_556 S
H230 C223 0.930 . S
C231 C232 1.351 1_455 S
C231 N234 1.368 . S
C231 H236 0.931 . S
C232 C231 1.351 1_655 S
C232 N233 1.373 . S
C232 H260 0.930 . S
N233 C232 1.373 . S
N233 C235 1.340 1_655 S
N234 C231 1.368 . S
N234 C235 1.321 . S
N234 Co237 2.135 . S
C235 N233 1.340 1_455 S
C235 N234 1.321 . S
C235 H259 0.930 . S
H236 C231 0.931 . S
Co237 N234 2.135 . S
Co237 N240 2.121 . S
Co237 O245 2.055 . S
Co237 O248 2.039 . S
Co237 N251 2.140 . S
C238 O239 1.227 . S
C238 O248 1.265 . S
O239 C238 1.227 . S
N240 Co237 2.121 . S
N240 C242 1.375 . S
N240 C243 1.313 . S
C241 C242 1.338 . S
C241 N244 1.377 . S
C241 H261 0.930 . S
C242 N240 1.375 . S
C242 C241 1.338 . S
C242 H246 0.931 . S
C243 N240 1.313 . S
C243 N244 1.344 . S
C243 H247 0.930 . S
N244 C241 1.377 . S
N244 C243 1.344 . S
O245 Co237 2.055 . S
O245 C249 1.253 . S
H246 C242 0.931 . S
H247 C243 0.930 . S
O248 Co237 2.039 . S
O248 C238 1.265 . S
C249 O245 1.253 . S
C249 O250 1.227 . S
O250 C249 1.227 . S
N251 Co237 2.140 . S
N251 C254 1.346 . S
N251 C255 1.345 . S
C252 C253 1.387 . S
C252 C256 1.391 . S
C253 C252 1.387 . S
C253 C254 1.369 . S
C253 H262 0.929 . S
C254 N251 1.346 . S
C254 C253 1.369 . S
C254 H257 0.928 . S
C255 N251 1.345 . S
C255 C256 1.371 . S
C255 H258 0.931 . S
C256 C252 1.391 . S
C256 C255 1.371 . S
C256 H263 0.930 . S
H257 C254 0.928 . S
H258 C255 0.931 . S
H259 C235 0.930 . S
H260 C232 0.930 . S
H261 C241 0.930 . S
H262 C253 0.929 . S
H263 C256 0.930 . S
C264 C265 1.349 . S
C264 C266 1.327 . S
C264 H289 0.950 . S
C265 C264 1.349 . S
C265 C281 1.349 . S
C266 C264 1.327 . S
C266 C285 1.429 . S
C266 H290 0.950 . S
C267 C284 1.574 . S
C267 C286 1.368 . S
C267 H291 0.949 . S
H268 C272 0.949 . S
C269 C270 1.349 . S
C269 C271 1.327 . S
C269 H292 0.950 . S
C270 C269 1.349 . S
C270 C282 1.349 . S
C271 C269 1.327 . S
C271 C287 1.429 . S
C271 H293 0.950 . S
C272 H268 0.949 . S
C272 C280 1.574 . S
C272 C288 1.368 . S
H273 C281 0.950 1_556 S
H274 C279 0.950 1_556 S
H275 C280 0.949 . S
H276 C282 0.950 . S
H277 C283 0.950 . S
H278 C284 0.949 . S
C279 H274 0.950 1_554 S
C279 C281 1.327 . S
C279 C285 1.429 . S
C280 C272 1.574 . S
C280 H275 0.949 . S
C280 C286 1.368 . S
C281 C265 1.349 . S
C281 H273 0.950 1_554 S
C281 C279 1.327 . S
C282 C270 1.349 . S
C282 H276 0.950 . S
C282 C283 1.327 . S
C283 H277 0.950 . S
C283 C282 1.327 . S
C283 C287 1.429 . S
C284 C267 1.574 . S
C284 H278 0.949 . S
C284 C288 1.368 . S
C285 C266 1.429 . S
C285 C279 1.429 . S
C285 C286 1.523 . S
C286 C267 1.368 . S
C286 C280 1.368 . S
C286 C285 1.523 . S
C287 C271 1.429 . S
C287 C283 1.429 . S
C287 C288 1.523 . S
C288 C272 1.368 . S
C288 C284 1.368 . S
C288 C287 1.523 . S
H289 C264 0.950 . S
H290 C266 0.950 . S
H291 C267 0.949 . S
H292 C269 0.950 . S
H293 C271 0.950 . S
C294 C295 1.349 . S
C294 C296 1.327 . S
C294 H319 0.950 . S
C295 C294 1.349 . S
C295 C311 1.349 . S
C296 C294 1.327 . S
C296 C315 1.429 . S
C296 H320 0.950 . S
C297 C314 1.574 . S
C297 C316 1.368 . S
C297 H321 0.949 . S
H298 C302 0.949 . S
C299 C300 1.349 . S
C299 C301 1.327 . S
C299 H322 0.950 . S
C300 C299 1.349 . S
C300 C312 1.349 . S
C301 C299 1.327 . S
C301 C317 1.429 . S
C301 H323 0.950 . S
C302 H298 0.949 . S
C302 C310 1.574 . S
C302 C318 1.368 . S
H303 C311 0.950 . S
H304 C309 0.950 . S
H305 C310 0.949 . S
H306 C312 0.950 . S
H307 C313 0.950 . S
H308 C314 0.949 . S
C309 H304 0.950 . S
C309 C311 1.327 . S
C309 C315 1.429 . S
C310 C302 1.574 . S
C310 H305 0.949 . S
C310 C316 1.368 . S
C311 C295 1.349 . S
C311 H303 0.950 . S
C311 C309 1.327 . S
C312 C300 1.349 . S
C312 H306 0.950 . S
C312 C313 1.327 . S
C313 H307 0.950 . S
C313 C312 1.327 . S
C313 C317 1.429 . S
C314 C297 1.574 . S
C314 H308 0.949 . S
C314 C318 1.368 . S
C315 C296 1.429 . S
C315 C309 1.429 . S
C315 C316 1.523 . S
C316 C297 1.368 . S
C316 C310 1.368 . S
C316 C315 1.523 . S
C317 C301 1.429 . S
C317 C313 1.429 . S
C317 C318 1.523 . S
C318 C302 1.368 . S
C318 C314 1.368 . S
C318 C317 1.523 . S
H319 C294 0.950 . S
H320 C296 0.950 . S
H321 C297 0.949 . S
H322 C299 0.950 . S
H323 C301 0.950 . S
C324 C325 1.349 1_554 S
C324 C326 1.327 . S
C324 H349 0.950 . S
C325 C324 1.349 1_556 S
C325 C341 1.349 . S
C326 C324 1.327 . S
C326 C345 1.429 1_554 S
C326 H350 0.950 . S
C327 C344 1.574 . S
C327 C346 1.368 . S
C327 H351 0.949 . S
H328 C332 0.949 . S
C329 C330 1.349 1_556 S
C329 C331 1.327 . S
C329 H352 0.950 . S
C330 C329 1.349 1_554 S
C330 C342 1.349 . S
C331 C329 1.327 . S
C331 C347 1.429 1_556 S
C331 H353 0.950 . S
C332 H328 0.949 . S
C332 C340 1.574 . S
C332 C348 1.387 . S
H333 C341 0.950 . S
H334 C339 0.950 . S
H335 C340 0.949 . S
H336 C342 0.950 . S
H337 C343 0.950 . S
H338 C344 0.949 . S
C339 H334 0.950 . S
C339 C341 1.327 . S
C339 C345 1.429 . S
C340 C332 1.574 . S
C340 H335 0.949 . S
C340 C346 1.368 1_554 S
C341 C325 1.349 . S
C341 H333 0.950 . S
C341 C339 1.327 . S
C342 C330 1.349 . S
C342 H336 0.950 . S
C342 C343 1.327 . S
C343 H337 0.950 . S
C343 C342 1.327 . S
C343 C347 1.429 . S
C344 C327 1.574 . S
C344 H338 0.949 . S
C344 C348 1.346 1_556 S
C345 C326 1.429 1_556 S
C345 C339 1.429 . S
C345 C346 1.523 . S
C346 C327 1.368 . S
C346 C340 1.368 1_556 S
C346 C345 1.523 . S
C347 C331 1.429 1_554 S
C347 C343 1.429 . S
C347 C348 1.528 . S
C348 C332 1.387 . S
C348 C344 1.346 1_554 S
C348 C347 1.528 . S
H349 C324 0.950 . S
H350 C326 0.950 . S
H351 C327 0.949 . S
H352 C329 0.950 . S
H353 C331 0.950 . S
C354 C355 1.349 . S
C354 C356 1.327 . S
C354 H379 0.950 . S
C355 C354 1.349 . S
C355 C371 1.349 . S
C356 C354 1.327 . S
C356 C375 1.429 . S
C356 H380 0.950 . S
C357 C374 1.574 . S
C357 C376 1.368 . S
C357 H381 0.949 . S
H358 C362 0.949 . S
C359 C360 1.349 . S
C359 C361 1.327 . S
C359 H382 0.950 . S
C360 C359 1.349 . S
C360 C372 1.349 . S
C361 C359 1.327 . S
C361 C377 1.429 . S
C361 H383 0.950 . S
C362 H358 0.949 . S
C362 C370 1.574 . S
C362 C378 1.368 . S
H363 C371 0.950 . S
H364 C369 0.950 . S
H365 C370 0.949 . S
H366 C372 0.950 . S
H367 C373 0.950 . S
H368 C374 0.949 . S
C369 H364 0.950 . S
C369 C371 1.327 . S
C369 C375 1.429 . S
C370 C362 1.574 . S
C370 H365 0.949 . S
C370 C376 1.368 . S
C371 C355 1.349 . S
C371 H363 0.950 . S
C371 C369 1.327 . S
C372 C360 1.349 . S
C372 H366 0.950 . S
C372 C373 1.327 . S
C373 H367 0.950 . S
C373 C372 1.327 . S
C373 C377 1.429 . S
C374 C357 1.574 . S
C374 H368 0.949 . S
C374 C378 1.368 . S
C375 C356 1.429 . S
C375 C369 1.429 . S
C375 C376 1.523 . S
C376 C357 1.368 . S
C376 C370 1.368 . S
C376 C375 1.523 . S
C377 C361 1.429 . S
C377 C373 1.429 . S
C377 C378 1.523 . S
C378 C362 1.368 . S
C378 C374 1.368 . S
C378 C377 1.523 . S
H379 C354 0.950 . S
H380 C356 0.950 . S
H381 C357 0.949 . S
H382 C359 0.950 . S
H383 C361 0.950 . S
C384 C385 1.349 1_556 S
C384 C386 1.327 . S
C384 H409 0.950 . S
C385 C384 1.349 1_554 S
C385 C401 1.349 . S
C386 C384 1.327 . S
C386 C405 1.429 1_556 S
C386 H410 0.950 . S
C387 C404 1.574 . S
C387 C406 1.368 . S
C387 H411 0.949 . S
H388 C392 0.949 . S
C389 C390 1.349 1_554 S
C389 C391 1.327 . S
C389 H412 0.950 . S
C390 C389 1.349 1_556 S
C390 C402 1.349 . S
C391 C389 1.327 . S
C391 C407 1.429 1_554 S
C391 H413 0.950 . S
C392 H388 0.949 . S
C392 C400 1.574 . S
C392 C408 1.368 . S
H393 C401 0.950 . S
H394 C399 0.950 . S
H395 C400 0.949 . S
H396 C402 0.950 . S
H397 C403 0.950 . S
H398 C404 0.949 . S
C399 H394 0.950 . S
C399 C401 1.327 . S
C399 C405 1.429 . S
C400 C392 1.574 . S
C400 H395 0.949 . S
C400 C406 1.368 1_556 S
C401 C385 1.349 . S
C401 H393 0.950 . S
C401 C399 1.327 . S
C402 C390 1.349 . S
C402 H396 0.950 . S
C402 C403 1.327 . S
C403 H397 0.950 . S
C403 C402 1.327 . S
C403 C407 1.429 . S
C404 C387 1.574 . S
C404 H398 0.949 . S
C404 C408 1.368 1_554 S
C405 C386 1.429 1_554 S
C405 C399 1.429 . S
C405 C406 1.523 . S
C406 C387 1.368 . S
C406 C400 1.368 1_554 S
C406 C405 1.523 . S
C407 C391 1.429 1_556 S
C407 C403 1.429 . S
C407 C408 1.523 . S
C408 C392 1.368 . S
C408 C404 1.368 1_556 S
C408 C407 1.523 . S
H409 C384 0.950 . S
H410 C386 0.950 . S
H411 C387 0.949 . S
H412 C389 0.950 . S
H413 C391 0.950 . S
C414 C415 1.349 . S
C414 C416 1.327 . S
C414 H439 0.950 . S
C415 C414 1.349 . S
C415 C431 1.349 . S
C416 C414 1.327 . S
C416 C435 1.429 . S
C416 H440 0.950 . S
C417 C434 1.574 . S
C417 C436 1.368 . S
C417 H441 0.949 . S
H418 C422 0.949 . S
C419 C420 1.349 . S
C419 C421 1.327 . S
C419 H442 0.950 . S
C420 C419 1.349 . S
C420 C432 1.349 . S
C421 C419 1.327 . S
C421 C437 1.429 . S
C421 H443 0.950 . S
C422 H418 0.949 . S
C422 C430 1.574 . S
C422 C438 1.368 . S
H423 C431 0.950 . S
H424 C429 0.950 . S
H425 C430 0.949 . S
H426 C432 0.950 . S
H427 C433 0.950 . S
H428 C434 0.949 . S
C429 H424 0.950 . S
C429 C431 1.327 . S
C429 C435 1.429 . S
C430 C422 1.574 . S
C430 H425 0.949 . S
C430 C436 1.368 . S
C431 C415 1.349 . S
C431 H423 0.950 . S
C431 C429 1.327 . S
C432 C420 1.349 . S
C432 H426 0.950 . S
C432 C433 1.327 . S
C433 H427 0.950 . S
C433 C432 1.327 . S
C433 C437 1.429 . S
C434 C417 1.574 . S
C434 H428 0.949 . S
C434 C438 1.368 . S
C435 C416 1.429 . S
C435 C429 1.429 . S
C435 C436 1.523 . S
C436 C417 1.368 . S
C436 C430 1.368 . S
C436 C435 1.523 . S
C437 C421 1.429 . S
C437 C433 1.429 . S
C437 C438 1.523 . S
C438 C422 1.368 . S
C438 C434 1.368 . S
C438 C437 1.523 . S
H439 C414 0.950 . S
H440 C416 0.950 . S
H441 C417 0.949 . S
H442 C419 0.950 . S
H443 C421 0.950 . S
C444 C445 1.349 . S
C444 C446 1.327 . S
C444 H469 0.950 . S
C445 C444 1.349 . S
C445 C461 1.349 . S
C446 C444 1.327 . S
C446 C465 1.429 . S
C446 H470 0.950 . S
C447 C464 1.574 . S
C447 C466 1.368 . S
C447 H471 0.949 . S
H448 C452 0.949 . S
C449 C450 1.349 . S
C449 C451 1.327 . S
C449 H472 0.950 . S
C450 C449 1.349 . S
C450 C462 1.349 . S
C451 C449 1.327 . S
C451 C467 1.429 . S
C451 H473 0.950 . S
C452 H448 0.949 . S
C452 C460 1.574 . S
C452 C468 1.368 . S
H453 C461 0.950 . S
H454 C459 0.950 . S
H455 C460 0.949 . S
H456 C462 0.950 1_556 S
H457 C463 0.948 . S
H458 C464 0.949 . S
C459 H454 0.950 . S
C459 C461 1.327 . S
C459 C465 1.429 . S
C460 C452 1.574 . S
C460 H455 0.949 . S
C460 C466 1.368 . S
C461 C445 1.349 . S
C461 H453 0.950 . S
C461 C459 1.327 . S
C462 C450 1.349 . S
C462 H456 0.950 1_554 S
C462 C463 1.327 . S
C463 H457 0.948 . S
C463 C462 1.327 . S
C463 C467 1.429 . S
C464 C447 1.574 . S
C464 H458 0.949 . S
C464 C468 1.368 . S
C465 C446 1.429 . S
C465 C459 1.429 . S
C465 C466 1.523 . S
C466 C447 1.368 . S
C466 C460 1.368 . S
C466 C465 1.523 . S
C467 C451 1.429 . S
C467 C463 1.429 . S
C467 C468 1.523 . S
C468 C452 1.368 . S
C468 C464 1.368 . S
C468 C467 1.523 . S
H469 C444 0.950 . S
H470 C446 0.950 . S
H471 C447 0.949 . S
H472 C449 0.950 . S
H473 C451 0.950 . S
C474 C475 1.349 . S
C474 C476 1.327 . S
C474 H499 0.950 . S
C475 C474 1.349 . S
C475 C491 1.349 . S
C476 C474 1.327 . S
C476 C495 1.429 . S
C476 H500 0.950 . S
C477 C494 1.574 . S
C477 C496 1.368 . S
C477 H501 0.949 . S
H478 C482 0.949 . S
C479 C480 1.349 . S
C479 C481 1.327 . S
C479 H502 0.950 . S
C480 C479 1.349 . S
C480 C492 1.349 . S
C481 C479 1.327 . S
C481 C497 1.429 . S
C481 H503 0.950 . S
C482 H478 0.949 . S
C482 C490 1.574 . S
C482 C498 1.368 . S
H483 C491 0.950 . S
H484 C489 0.950 . S
H485 C490 0.949 . S
H486 C492 0.950 . S
H487 C493 0.950 . S
H488 C494 0.949 . S
C489 H484 0.950 . S
C489 C491 1.327 . S
C489 C495 1.429 . S
C490 C482 1.574 . S
C490 H485 0.949 . S
C490 C496 1.368 . S
C491 C475 1.349 . S
C491 H483 0.950 . S
C491 C489 1.327 . S
C492 C480 1.349 . S
C492 H486 0.950 . S
C492 C493 1.327 . S
C493 H487 0.950 . S
C493 C492 1.327 . S
C493 C497 1.429 . S
C494 C477 1.574 . S
C494 H488 0.949 . S
C494 C498 1.368 . S
C495 C476 1.429 . S
C495 C489 1.429 . S
C495 C496 1.523 . S
C496 C477 1.368 . S
C496 C490 1.368 . S
C496 C495 1.523 . S
C497 C481 1.429 . S
C497 C493 1.429 . S
C497 C498 1.523 . S
C498 C482 1.368 . S
C498 C494 1.368 . S
C498 C497 1.523 . S
H499 C474 0.950 . S
H500 C476 0.950 . S
H501 C477 0.949 . S
H502 C479 0.950 . S
H503 C481 0.950 . S
C504 C505 1.335 1_556 S
C504 C506 1.324 1_556 S
C504 H529 0.967 . S
C505 C504 1.335 1_554 S
C505 C521 1.349 . S
C506 C504 1.324 1_554 S
C506 C525 1.429 . S
C506 H530 0.950 1_554 S
C507 C524 1.574 . S
C507 C526 1.368 . S
C507 H531 0.949 . S
H508 C512 0.949 1_556 S
C509 C510 1.349 . S
C509 C511 1.327 . S
C509 H532 0.950 . S
C510 C509 1.349 . S
C510 C522 1.349 . S
C511 C509 1.327 . S
C511 C527 1.429 . S
C511 H533 0.950 . S
C512 H508 0.949 1_554 S
C512 C520 1.574 . S
C512 C528 1.368 . S
H513 C521 0.950 . S
H514 C519 0.950 . S
H515 C520 0.949 1_556 S
H516 C522 0.950 . S
H517 C523 0.950 1_556 S
H518 C524 0.949 . S
C519 H514 0.950 . S
C519 C521 1.327 . S
C519 C525 1.429 . S
C520 C512 1.574 . S
C520 H515 0.949 1_554 S
C520 C526 1.368 . S
C521 C505 1.349 . S
C521 H513 0.950 . S
C521 C519 1.327 . S
C522 C510 1.349 . S
C522 H516 0.950 . S
C522 C523 1.327 . S
C523 H517 0.950 1_554 S
C523 C522 1.327 . S
C523 C527 1.429 . S
C524 C507 1.574 . S
C524 H518 0.949 . S
C524 C528 1.368 . S
C525 C506 1.429 . S
C525 C519 1.429 . S
C525 C526 1.523 . S
C526 C507 1.368 . S
C526 C520 1.368 . S
C526 C525 1.523 . S
C527 C511 1.429 . S
C527 C523 1.429 . S
C527 C528 1.523 . S
C528 C512 1.368 . S
C528 C524 1.368 . S
C528 C527 1.523 . S
H529 C504 0.967 . S
H530 C506 0.950 1_556 S
H531 C507 0.949 . S
H532 C509 0.950 . S
H533 C511 0.950 . S
C534 C535 1.349 . S
C534 C536 1.327 . S
C534 H559 0.950 . S
C535 C534 1.349 . S
C535 C551 1.349 . S
C536 C534 1.327 . S
C536 C555 1.429 . S
C536 H560 0.950 . S
C537 C554 1.574 . S
C537 C556 1.368 . S
C537 H561 0.949 . S
H538 C542 0.949 . S
C539 C540 1.349 . S
C539 C541 1.327 . S
C539 H562 0.950 . S
C540 C539 1.349 . S
C540 C552 1.349 . S
C541 C539 1.327 . S
C541 C557 1.429 . S
C541 H563 0.950 . S
C542 H538 0.949 . S
C542 C550 1.574 . S
C542 C558 1.368 . S
H543 C551 0.950 . S
H544 C549 0.950 . S
H545 C550 0.949 . S
H546 C552 0.950 . S
H547 C553 0.950 . S
H548 C554 0.949 . S
C549 H544 0.950 . S
C549 C551 1.327 . S
C549 C555 1.429 . S
C550 C542 1.574 . S
C550 H545 0.949 . S
C550 C556 1.368 . S
C551 C535 1.349 . S
C551 H543 0.950 . S
C551 C549 1.327 . S
C552 C540 1.349 . S
C552 H546 0.950 . S
C552 C553 1.327 . S
C553 H547 0.950 . S
C553 C552 1.327 . S
C553 C557 1.429 . S
C554 C537 1.574 . S
C554 H548 0.949 . S
C554 C558 1.368 . S
C555 C536 1.429 . S
C555 C549 1.429 . S
C555 C556 1.523 . S
C556 C537 1.368 . S
C556 C550 1.368 . S
C556 C555 1.523 . S
C557 C541 1.429 . S
C557 C553 1.429 . S
C557 C558 1.523 . S
C558 C542 1.368 . S
C558 C554 1.368 . S
C558 C557 1.523 . S
H559 C534 0.950 . S
H560 C536 0.950 . S
H561 C537 0.949 . S
H562 C539 0.950 . S
H563 C541 0.950 . S
C564 C565 1.349 1_556 S
C564 C566 1.327 . S
C564 H589 0.950 . S
C565 C564 1.349 1_554 S
C565 C581 1.349 . S
C566 C564 1.327 . S
C566 C585 1.429 1_556 S
C566 H590 0.950 . S
C567 C584 1.574 1_455 S
C567 C586 1.368 1_545 S
C567 H591 0.949 . S
H568 C572 0.949 . S
C569 C570 1.349 . S
C569 C571 1.327 . S
C569 H592 0.950 . S
C570 C569 1.349 . S
C570 C582 1.349 1_554 S
C571 C569 1.327 . S
C571 C587 1.429 . S
C571 H593 0.950 . S
C572 H568 0.949 . S
C572 C580 1.574 . S
C572 C588 1.368 1_566 S
H573 C581 0.950 . S
H574 C579 0.950 1_545 S
H575 C580 0.949 1_455 S
H576 C582 0.950 . S
H577 C583 0.963 . S
H578 C584 0.949 . S
C579 H574 0.950 1_565 S
C579 C581 1.327 . S
C579 C585 1.429 . S
C580 C572 1.574 . S
C580 H575 0.949 1_655 S
C580 C586 1.368 1_656 S
C581 C565 1.349 . S
C581 H573 0.950 . S
C581 C579 1.327 . S
C582 C570 1.349 1_556 S
C582 H576 0.950 . S
C582 C583 1.327 . S
C583 H577 0.963 . S
C583 C582 1.327 . S
C583 C587 1.429 1_556 S
C584 C567 1.574 1_655 S
C584 H578 0.949 . S
C584 C588 1.368 . S
C585 C566 1.429 1_554 S
C585 C579 1.429 . S
C585 C586 1.523 . S
C586 C567 1.368 1_565 S
C586 C580 1.368 1_454 S
C586 C585 1.523 . S
C587 C571 1.429 . S
C587 C583 1.429 1_554 S
C587 C588 1.523 . S
C588 C572 1.368 1_544 S
C588 C584 1.368 . S
C588 C587 1.523 . S
H589 C564 0.950 . S
H590 C566 0.950 . S
H591 C567 0.949 . S
H592 C569 0.950 . S
H593 C571 0.950 . S
C594 C595 1.349 . S
C594 C596 1.327 . S
C594 H619 0.950 . S
C595 C594 1.349 . S
C595 C611 1.349 . S
C596 C594 1.327 . S
C596 C615 1.429 . S
C596 H620 0.950 1_655 S
C597 C614 1.574 1_565 S
C597 C616 1.368 . S
C597 H621 0.949 . S
H598 C602 0.949 1_545 S
C599 C600 1.349 . S
C599 C601 1.327 . S
C599 H622 0.950 . S
C600 C599 1.349 . S
C600 C612 1.349 . S
C601 C599 1.327 . S
C601 C617 1.429 . S
C601 H623 0.950 . S
C602 H598 0.949 1_565 S
C602 C610 1.574 . S
C602 C618 1.368 1_565 S
H603 C611 0.950 . S
H604 C609 0.950 . S
H605 C610 0.949 . S
H606 C612 0.950 . S
H607 C613 0.950 . S
H608 C614 0.949 . S
C609 H604 0.950 . S
C609 C611 1.327 . S
C609 C615 1.429 . S
C610 C602 1.574 . S
C610 H605 0.949 . S
C610 C616 1.368 1_455 S
C611 C595 1.349 . S
C611 H603 0.950 . S
C611 C609 1.327 . S
C612 C600 1.349 . S
C612 H606 0.950 . S
C612 C613 1.327 . S
C613 H607 0.950 . S
C613 C612 1.327 . S
C613 C617 1.429 . S
C614 C597 1.574 1_545 S
C614 H608 0.949 . S
C614 C618 1.368 1_655 S
C615 C596 1.429 . S
C615 C609 1.429 . S
C615 C616 1.523 . S
C616 C597 1.368 . S
C616 C610 1.368 1_655 S
C616 C615 1.523 . S
C617 C601 1.429 . S
C617 C613 1.429 . S
C617 C618 1.523 . S
C618 C602 1.368 1_545 S
C618 C614 1.368 1_455 S
C618 C617 1.523 . S
H619 C594 0.950 . S
H620 C596 0.950 1_455 S
H621 C597 0.949 . S
H622 C599 0.950 . S
H623 C601 0.950 . S
C624 C625 1.349 . S
C624 C626 1.327 . S
C624 H649 0.950 . S
C625 C624 1.349 . S
C625 C641 1.349 . S
C626 C624 1.327 . S
C626 C645 1.429 . S
C626 H650 0.950 . S
C627 C644 1.574 . S
C627 C646 1.368 . S
C627 H651 0.949 . S
H628 C632 0.949 . S
C629 C630 1.349 . S
C629 C631 1.327 . S
C629 H652 0.950 . S
C630 C629 1.349 . S
C630 C642 1.349 . S
C631 C629 1.327 . S
C631 C647 1.429 . S
C631 H653 0.950 . S
C632 H628 0.949 . S
C632 C640 1.574 . S
C632 C648 1.368 . S
H633 C641 0.950 . S
H634 C639 0.950 . S
H635 C640 0.949 . S
H636 C642 0.950 . S
H637 C643 0.950 . S
H638 C644 0.949 . S
C639 H634 0.950 . S
C639 C641 1.327 . S
C639 C645 1.429 . S
C640 C632 1.574 . S
C640 H635 0.949 . S
C640 C646 1.368 . S
C641 C625 1.349 . S
C641 H633 0.950 . S
C641 C639 1.327 . S
C642 C630 1.349 . S
C642 H636 0.950 . S
C642 C643 1.327 . S
C643 H637 0.950 . S
C643 C642 1.327 . S
C643 C647 1.429 . S
C644 C627 1.574 . S
C644 H638 0.949 . S
C644 C648 1.368 . S
C645 C626 1.429 . S
C645 C639 1.429 . S
C645 C646 1.523 . S
C646 C627 1.368 . S
C646 C640 1.368 . S
C646 C645 1.523 . S
C647 C631 1.429 . S
C647 C643 1.429 . S
C647 C648 1.523 . S
C648 C632 1.368 . S
C648 C644 1.368 . S
C648 C647 1.523 . S
H649 C624 0.950 . S
H650 C626 0.950 . S
H651 C627 0.949 . S
H652 C629 0.950 . S
H653 C631 0.950 . S
C654 C655 1.349 . S
C654 C656 1.327 . S
C654 H679 0.950 . S
C655 C654 1.349 . S
C655 C671 1.349 . S
C656 C654 1.327 . S
C656 C675 1.429 . S
C656 H680 0.950 . S
C657 C674 1.574 . S
C657 C676 1.368 . S
C657 H681 0.949 . S
H658 C662 0.949 . S
C659 C660 1.349 . S
C659 C661 1.327 . S
C659 H682 0.950 . S
C660 C659 1.349 . S
C660 C672 1.349 . S
C661 C659 1.327 . S
C661 C677 1.429 . S
C661 H683 0.950 . S
C662 H658 0.949 . S
C662 C670 1.574 . S
C662 C678 1.368 . S
H663 C671 0.950 . S
H664 C669 0.950 . S
H665 C670 0.949 . S
H666 C672 0.950 . S
H667 C673 0.950 . S
H668 C674 0.949 . S
C669 H664 0.950 . S
C669 C671 1.327 . S
C669 C675 1.429 . S
C670 C662 1.574 . S
C670 H665 0.949 . S
C670 C676 1.368 . S
C671 C655 1.349 . S
C671 H663 0.950 . S
C671 C669 1.327 . S
C672 C660 1.349 . S
C672 H666 0.950 . S
C672 C673 1.327 . S
C673 H667 0.950 . S
C673 C672 1.327 . S
C673 C677 1.429 . S
C674 C657 1.574 . S
C674 H668 0.949 . S
C674 C678 1.368 . S
C675 C656 1.429 . S
C675 C669 1.429 . S
C675 C676 1.523 . S
C676 C657 1.368 . S
C676 C670 1.368 . S
C676 C675 1.523 . S
C677 C661 1.429 . S
C677 C673 1.429 . S
C677 C678 1.523 . S
C678 C662 1.368 . S
C678 C674 1.368 . S
C678 C677 1.523 . S
H679 C654 0.950 . S
H680 C656 0.950 . S
H681 C657 0.949 . S
H682 C659 0.950 . S
H683 C661 0.950 . S
C684 C685 1.349 . S
C684 C686 1.327 . S
C684 H709 0.950 . S
C685 C684 1.349 . S
C685 C701 1.349 . S
C686 C684 1.327 . S
C686 C705 1.429 . S
C686 H710 0.950 . S
C687 C704 1.574 . S
C687 C706 1.368 . S
C687 H711 0.949 . S
H688 C692 0.949 . S
C689 C690 1.349 . S
C689 C691 1.327 . S
C689 H712 0.950 . S
C690 C689 1.349 . S
C690 C702 1.349 . S
C691 C689 1.327 . S
C691 C707 1.429 . S
C691 H713 0.950 . S
C692 H688 0.949 . S
C692 C700 1.574 . S
C692 C708 1.368 . S
H693 C701 0.950 . S
H694 C699 0.950 . S
H695 C700 0.949 . S
H696 C702 0.950 . S
H697 C703 0.950 . S
H698 C704 0.949 . S
C699 H694 0.950 . S
C699 C701 1.327 . S
C699 C705 1.429 . S
C700 C692 1.574 . S
C700 H695 0.949 . S
C700 C706 1.368 . S
C701 C685 1.349 . S
C701 H693 0.950 . S
C701 C699 1.327 . S
C702 C690 1.349 . S
C702 H696 0.950 . S
C702 C703 1.327 . S
C703 H697 0.950 . S
C703 C702 1.327 . S
C703 C707 1.429 . S
C704 C687 1.574 . S
C704 H698 0.949 . S
C704 C708 1.368 . S
C705 C686 1.429 . S
C705 C699 1.429 . S
C705 C706 1.523 . S
C706 C687 1.368 . S
C706 C700 1.368 . S
C706 C705 1.523 . S
C707 C691 1.429 . S
C707 C703 1.429 . S
C707 C708 1.523 . S
C708 C692 1.368 . S
C708 C704 1.368 . S
C708 C707 1.523 . S
H709 C684 0.950 . S
H710 C686 0.950 . S
H711 C687 0.949 . S
H712 C689 0.950 . S
H713 C691 0.950 . S
C714 C715 1.349 . S
C714 C716 1.327 . S
C714 H739 0.950 . S
C715 C714 1.349 . S
C715 C731 1.349 . S
C716 C714 1.327 . S
C716 C735 1.429 . S
C716 H740 0.950 . S
C717 C734 1.574 . S
C717 C736 1.368 . S
C717 H741 0.949 . S
H718 C722 0.949 . S
C719 C720 1.349 . S
C719 C721 1.327 . S
C719 H742 0.950 . S
C720 C719 1.349 . S
C720 C732 1.349 . S
C721 C719 1.327 . S
C721 C737 1.429 . S
C721 H743 0.950 . S
C722 H718 0.949 . S
C722 C730 1.574 . S
C722 C738 1.368 . S
H723 C731 0.950 . S
H724 C729 0.950 . S
H725 C730 0.949 . S
H726 C732 0.950 . S
H727 C733 0.950 . S
H728 C734 0.949 . S
C729 H724 0.950 . S
C729 C731 1.327 . S
C729 C735 1.429 . S
C730 C722 1.574 . S
C730 H725 0.949 . S
C730 C736 1.368 . S
C731 C715 1.349 . S
C731 H723 0.950 . S
C731 C729 1.327 . S
C732 C720 1.349 . S
C732 H726 0.950 . S
C732 C733 1.327 . S
C733 H727 0.950 . S
C733 C732 1.327 . S
C733 C737 1.429 . S
C734 C717 1.574 . S
C734 H728 0.949 . S
C734 C738 1.368 . S
C735 C716 1.429 . S
C735 C729 1.429 . S
C735 C736 1.523 . S
C736 C717 1.368 . S
C736 C730 1.368 . S
C736 C735 1.523 . S
C737 C721 1.429 . S
C737 C733 1.429 . S
C737 C738 1.523 . S
C738 C722 1.368 . S
C738 C734 1.368 . S
C738 C737 1.523 . S
H739 C714 0.950 . S
H740 C716 0.950 . S
H741 C717 0.949 . S
H742 C719 0.950 . S
H743 C721 0.950 . S
C744 C745 1.349 . S
C744 C746 1.327 . S
C744 H769 0.950 . S
C745 C744 1.349 . S
C745 C761 1.349 . S
C746 C744 1.327 . S
C746 C765 1.429 . S
C746 H770 0.950 . S
C747 C764 1.574 . S
C747 C766 1.368 . S
C747 H771 0.949 . S
H748 C752 0.949 . S
C749 C750 1.349 . S
C749 C751 1.327 . S
C749 H772 0.950 . S
C750 C749 1.349 . S
C750 C762 1.349 . S
C751 C749 1.327 . S
C751 C767 1.429 . S
C751 H773 0.950 . S
C752 H748 0.949 . S
C752 C760 1.574 . S
C752 C768 1.368 . S
H753 C761 0.950 . S
H754 C759 0.950 . S
H755 C760 0.949 . S
H756 C762 0.950 . S
H757 C763 0.950 . S
H758 C764 0.949 . S
C759 H754 0.950 . S
C759 C761 1.327 . S
C759 C765 1.429 . S
C760 C752 1.574 . S
C760 H755 0.949 . S
C760 C766 1.368 . S
C761 C745 1.349 . S
C761 H753 0.950 . S
C761 C759 1.327 . S
C762 C750 1.349 . S
C762 H756 0.950 . S
C762 C763 1.327 . S
C763 H757 0.950 . S
C763 C762 1.327 . S
C763 C767 1.429 . S
C764 C747 1.574 . S
C764 H758 0.949 . S
C764 C768 1.368 . S
C765 C746 1.429 . S
C765 C759 1.429 . S
C765 C766 1.523 . S
C766 C747 1.368 . S
C766 C760 1.368 . S
C766 C765 1.523 . S
C767 C751 1.429 . S
C767 C763 1.429 . S
C767 C768 1.523 . S
C768 C752 1.368 . S
C768 C764 1.368 . S
C768 C767 1.523 . S
H769 C744 0.950 . S
H770 C746 0.950 . S
H771 C747 0.949 . S
H772 C749 0.950 . S
H773 C751 0.950 . S
C774 C775 1.349 . S
C774 C776 1.327 . S
C774 H799 0.950 . S
C775 C774 1.349 . S
C775 C791 1.349 . S
C776 C774 1.327 . S
C776 C795 1.429 . S
C776 H800 0.950 . S
C777 C794 1.574 . S
C777 C796 1.368 . S
C777 H801 0.949 . S
H778 C782 0.949 . S
C779 C780 1.349 . S
C779 C781 1.327 . S
C779 H802 0.950 . S
C780 C779 1.349 . S
C780 C792 1.349 . S
C781 C779 1.327 . S
C781 C797 1.429 . S
C781 H803 0.950 . S
C782 H778 0.949 . S
C782 C790 1.574 . S
C782 C798 1.368 . S
H783 C791 0.950 . S
H784 C789 0.950 . S
H785 C790 0.949 . S
H786 C792 0.950 . S
H787 C793 0.950 . S
H788 C794 0.949 . S
C789 H784 0.950 . S
C789 C791 1.327 . S
C789 C795 1.429 . S
C790 C782 1.574 . S
C790 H785 0.949 . S
C790 C796 1.368 . S
C791 C775 1.349 . S
C791 H783 0.950 . S
C791 C789 1.327 . S
C792 C780 1.349 . S
C792 H786 0.950 . S
C792 C793 1.327 . S
C793 H787 0.950 . S
C793 C792 1.327 . S
C793 C797 1.429 . S
C794 C777 1.574 . S
C794 H788 0.949 . S
C794 C798 1.368 . S
C795 C776 1.429 . S
C795 C789 1.429 . S
C795 C796 1.523 . S
C796 C777 1.368 . S
C796 C790 1.368 . S
C796 C795 1.523 . S
C797 C781 1.429 . S
C797 C793 1.429 . S
C797 C798 1.523 . S
C798 C782 1.368 . S
C798 C794 1.368 . S
C798 C797 1.523 . S
H799 C774 0.950 . S
H800 C776 0.950 . S
H801 C777 0.949 . S
H802 C779 0.950 . S
H803 C781 0.950 . S
C804 C805 1.349 . S
C804 C806 1.327 . S
C804 H829 0.950 . S
C805 C804 1.349 . S
C805 C821 1.349 . S
C806 C804 1.327 . S
C806 C825 1.429 . S
C806 H830 0.950 . S
C807 C824 1.574 . S
C807 C826 1.368 . S
C807 H831 0.949 . S
H808 C812 0.949 . S
C809 C810 1.349 . S
C809 C811 1.327 . S
C809 H832 0.950 . S
C810 C809 1.349 . S
C810 C822 1.349 . S
C811 C809 1.327 . S
C811 C827 1.429 . S
C811 H833 0.950 . S
C812 H808 0.949 . S
C812 C820 1.574 . S
C812 C828 1.368 . S
H813 C821 0.950 . S
H814 C819 0.950 . S
H815 C820 0.949 . S
H816 C822 0.950 . S
H817 C823 0.950 . S
H818 C824 0.949 . S
C819 H814 0.950 . S
C819 C821 1.327 . S
C819 C825 1.429 . S
C820 C812 1.574 . S
C820 H815 0.949 . S
C820 C826 1.368 . S
C821 C805 1.349 . S
C821 H813 0.950 . S
C821 C819 1.327 . S
C822 C810 1.349 . S
C822 H816 0.950 . S
C822 C823 1.327 . S
C823 H817 0.950 . S
C823 C822 1.327 . S
C823 C827 1.429 . S
C824 C807 1.574 . S
C824 H818 0.949 . S
C824 C828 1.368 . S
C825 C806 1.429 . S
C825 C819 1.429 . S
C825 C826 1.523 . S
C826 C807 1.368 . S
C826 C820 1.368 . S
C826 C825 1.523 . S
C827 C811 1.429 . S
C827 C823 1.429 . S
C827 C828 1.523 . S
C828 C812 1.368 . S
C828 C824 1.368 . S
C828 C827 1.523 . S
H829 C804 0.950 . S
H830 C806 0.950 . S
H831 C807 0.949 . S
H832 C809 0.950 . S
H833 C811 0.950 . S
C834 C835 1.349 . S
C834 C836 1.327 . S
C834 H859 0.950 . S
C835 C834 1.349 . S
C835 C851 1.349 . S
C836 C834 1.327 . S
C836 C855 1.429 . S
C836 H860 0.950 . S
C837 C854 1.574 . S
C837 C856 1.368 . S
C837 H861 0.949 . S
H838 C842 0.949 . S
C839 C840 1.349 . S
C839 C841 1.327 . S
C839 H862 0.950 . S
C840 C839 1.349 . S
C840 C852 1.349 . S
C841 C839 1.327 . S
C841 C857 1.429 . S
C841 H863 0.950 . S
C842 H838 0.949 . S
C842 C850 1.574 . S
C842 C858 1.368 . S
H843 C851 0.950 . S
H844 C849 0.950 . S
H845 C850 0.949 . S
H846 C852 0.950 . S
H847 C853 0.950 . S
H848 C854 0.949 . S
C849 H844 0.950 . S
C849 C851 1.327 . S
C849 C855 1.429 . S
C850 C842 1.574 . S
C850 H845 0.949 . S
C850 C856 1.368 . S
C851 C835 1.349 . S
C851 H843 0.950 . S
C851 C849 1.327 . S
C852 C840 1.349 . S
C852 H846 0.950 . S
C852 C853 1.327 . S
C853 H847 0.950 . S
C853 C852 1.327 . S
C853 C857 1.429 . S
C854 C837 1.574 . S
C854 H848 0.949 . S
C854 C858 1.368 . S
C855 C836 1.429 . S
C855 C849 1.429 . S
C855 C856 1.523 . S
C856 C837 1.368 . S
C856 C850 1.368 . S
C856 C855 1.523 . S
C857 C841 1.429 . S
C857 C853 1.429 . S
C857 C858 1.523 . S
C858 C842 1.368 . S
C858 C854 1.368 . S
C858 C857 1.523 . S
H859 C834 0.950 . S
H860 C836 0.950 . S
H861 C837 0.949 . S
H862 C839 0.950 . S
H863 C841 0.950 . S
C265 N200 0.521 . S
C270 N13 0.493 . S
C295 N233 0.669 . S
C300 N46 0.674 . S
C325 N134 0.635 . S
C330 N79 0.639 . S
C355 N167 0.699 . S
C360 N112 0.705 . S
C385 N68 0.609 . S
C390 N145 0.597 . S
C415 N101 0.703 . S
C420 N178 0.709 . S
C445 N2 0.680 . S
C450 N211 0.684 . S
C475 N244 0.603 . S
C480 N35 0.614 . S
C505 C87 2.044 . S
C510 C7 2.033 . S
C535 C54 2.256 . S
C540 C106 2.251 . S
C565 C219 2.119 . S
C570 C139 2.111 . S
C595 C172 2.460 . S
C600 C238 2.452 . S
C625 C18 1.858 . S
C630 C249 1.870 . S
C655 C150 1.974 . S
C660 C40 1.986 . S
C685 C183 1.776 . S
C690 C73 1.778 . S
C715 C205 1.916 . S
C720 C117 1.902 . S
C745 C84 1.448 . S
C750 C186 1.430 . S
C775 C120 1.237 . S
C780 C216 1.249 . S
C805 C252 0.997 . S
C810 C21 0.995 . S
C835 C153 1.237 . S
C840 C51 1.237 . S
