# Generated by pormake.
# Topology utj, (3)-cn, num edge types: 1
# Building blocks:
#     Node 0, Type 0, BuildingBlock: OLANEW_clean_sbu_2, # of connection points: 3
#     Node 1, Type 0, BuildingBlock: OLANEW_clean_sbu_2, # of connection points: 3
#     Node 2, Type 0, BuildingBlock: OLANEW_clean_sbu_2, # of connection points: 3
#     Node 3, Type 0, BuildingBlock: OLANEW_clean_sbu_2, # of connection points: 3
#     Node 4, Type 0, BuildingBlock: OLANEW_clean_sbu_2, # of connection points: 3
#     Node 5, Type 0, BuildingBlock: OLANEW_clean_sbu_2, # of connection points: 3
#     Node 6, Type 0, BuildingBlock: OLANEW_clean_sbu_2, # of connection points: 3
#     Node 7, Type 0, BuildingBlock: OLANEW_clean_sbu_2, # of connection points: 3
#     Node 8, Type 0, BuildingBlock: OLANEW_clean_sbu_2, # of connection points: 3
#     Node 9, Type 0, BuildingBlock: OLANEW_clean_sbu_2, # of connection points: 3
#     Node 10, Type 0, BuildingBlock: OLANEW_clean_sbu_2, # of connection points: 3
#     Node 11, Type 0, BuildingBlock: OLANEW_clean_sbu_2, # of connection points: 3
#     Node 12, Type 0, BuildingBlock: OLANEW_clean_sbu_2, # of connection points: 3
#     Node 13, Type 0, BuildingBlock: OLANEW_clean_sbu_2, # of connection points: 3
#     Node 14, Type 0, BuildingBlock: OLANEW_clean_sbu_2, # of connection points: 3
#     Node 15, Type 0, BuildingBlock: OLANEW_clean_sbu_2, # of connection points: 3
#     Edge 16, Type (0, 0), BuildingBlock: XIVTED_clean_linker_0, # of connection points: 2
#     Edge 17, Type (0, 0), BuildingBlock: XIVTED_clean_linker_0, # of connection points: 2
#     Edge 18, Type (0, 0), BuildingBlock: XIVTED_clean_linker_0, # of connection points: 2
#     Edge 19, Type (0, 0), BuildingBlock: XIVTED_clean_linker_0, # of connection points: 2
#     Edge 20, Type (0, 0), BuildingBlock: XIVTED_clean_linker_0, # of connection points: 2
#     Edge 21, Type (0, 0), BuildingBlock: XIVTED_clean_linker_0, # of connection points: 2
#     Edge 22, Type (0, 0), BuildingBlock: XIVTED_clean_linker_0, # of connection points: 2
#     Edge 23, Type (0, 0), BuildingBlock: XIVTED_clean_linker_0, # of connection points: 2
#     Edge 24, Type (0, 0), BuildingBlock: XIVTED_clean_linker_0, # of connection points: 2
#     Edge 25, Type (0, 0), BuildingBlock: XIVTED_clean_linker_0, # of connection points: 2
#     Edge 26, Type (0, 0), BuildingBlock: XIVTED_clean_linker_0, # of connection points: 2
#     Edge 27, Type (0, 0), BuildingBlock: XIVTED_clean_linker_0, # of connection points: 2
#     Edge 28, Type (0, 0), BuildingBlock: XIVTED_clean_linker_0, # of connection points: 2
#     Edge 29, Type (0, 0), BuildingBlock: XIVTED_clean_linker_0, # of connection points: 2
#     Edge 30, Type (0, 0), BuildingBlock: XIVTED_clean_linker_0, # of connection points: 2
#     Edge 31, Type (0, 0), BuildingBlock: XIVTED_clean_linker_0, # of connection points: 2
#     Edge 32, Type (0, 0), BuildingBlock: XIVTED_clean_linker_0, # of connection points: 2
#     Edge 33, Type (0, 0), BuildingBlock: XIVTED_clean_linker_0, # of connection points: 2
#     Edge 34, Type (0, 0), BuildingBlock: XIVTED_clean_linker_0, # of connection points: 2
#     Edge 35, Type (0, 0), BuildingBlock: XIVTED_clean_linker_0, # of connection points: 2
#     Edge 36, Type (0, 0), BuildingBlock: XIVTED_clean_linker_0, # of connection points: 2
#     Edge 37, Type (0, 0), BuildingBlock: XIVTED_clean_linker_0, # of connection points: 2
#     Edge 38, Type (0, 0), BuildingBlock: XIVTED_clean_linker_0, # of connection points: 2
#     Edge 39, Type (0, 0), BuildingBlock: XIVTED_clean_linker_0, # of connection points: 2
# Relax obj value: 0.000
# Max RMSD: 0.045
# Mean RMSD: 0.045
data_MOF--net-utj--node1-OLANEW_clean_sbu_2--edge1-XIVTED_clean_linker_0
_symmetry_space_group_name_H-M    P1
_symmetry_Int_Tables_number       1
_symmetry_cell_setting            triclinic
loop_
_symmetry_equiv_pos_as_xyz
'x, y, z'
_cell_length_a     64.418784
_cell_length_b     64.366785
_cell_length_c     37.018659
_cell_angle_alpha  90.174847
_cell_angle_beta   90.029571
_cell_angle_gamma 89.694971
loop_
_atom_site_label
_atom_site_type_symbol
_atom_site_fract_x
_atom_site_fract_y
_atom_site_fract_z
_atom_type_partial_charge
O0 O 0.06337 0.3548 0.09081 0.0
Cd1 Cd 0.04587 0.34717 0.03361 0.0
O2 O 0.0685 0.38752 0.07622 0.0
Cd3 Cd 0.04816 0.38901 0.02919 0.0
O4 O 0.02556 0.41052 0.00559 0.0
C5 C 0.02046 0.42552 0.02626 0.0
O6 O 0.02863 0.42639 0.05876 0.0
C7 C 0.07123 0.37244 0.09785 0.0
C8 C 0.04846 0.30499 0.01579 0.0
O9 O 0.06309 0.31756 0.00762 0.0
O10 O 0.03257 0.31235 0.03237 0.0
O11 O 0.10898 0.07154 0.57448 0.0
Cd12 Cd 0.11362 0.05559 0.51492 0.0
O13 O 0.11346 0.04206 0.60342 0.0
Cd14 Cd 0.10649 0.02376 0.55524 0.0
O15 O 0.0815 0.00735 0.52731 0.0
C16 C 0.06446 0.00662 0.54462 0.0
O17 O 0.06346 0.01536 0.5767 0.0
C18 C 0.11134 0.06171 0.60395 0.0
C19 C 0.15579 0.05262 0.49771 0.0
O20 O 0.14541 0.06924 0.49133 0.0
O21 O 0.14622 0.03729 0.51197 0.0
O22 O 0.39457 0.11467 0.0852 0.0
Cd23 Cd 0.40262 0.11902 0.02112 0.0
O24 O 0.42708 0.10775 0.0992 0.0
Cd25 Cd 0.43696 0.10069 0.04414 0.0
O26 O 0.45027 0.07496 0.01295 0.0
C27 C 0.45008 0.05756 0.02917 0.0
O28 O 0.44181 0.05664 0.06157 0.0
C29 C 0.40849 0.11143 0.10891 0.0
C30 C 0.4045 0.16123 0.00382 0.0
O31 O 0.38731 0.15133 0.00256 0.0
O32 O 0.42088 0.15114 0.01294 0.0
O33 O 0.35725 0.41674 0.58705 0.0
Cd34 Cd 0.34944 0.43529 0.53105 0.0
O35 O 0.3908 0.41439 0.57594 0.0
Cd36 Cd 0.39306 0.43496 0.52941 0.0
O37 O 0.41606 0.45541 0.50475 0.0
C38 C 0.43178 0.44692 0.48998 0.0
O39 O 0.43258 0.42656 0.48768 0.0
C40 C 0.37521 0.41009 0.59556 0.0
C41 C 0.30736 0.43191 0.51345 0.0
O42 O 0.32048 0.41791 0.50388 0.0
O43 O 0.31413 0.44762 0.53116 0.0
O44 O 0.07603 0.1067 0.87416 0.0
Cd45 Cd 0.06038 0.11133 0.93394 0.0
O46 O 0.04704 0.11364 0.84508 0.0
Cd47 Cd 0.02831 0.10768 0.89295 0.0
O48 O 0.01052 0.08368 0.92063 0.0
C49 C 0.01011 0.06622 0.90445 0.0
O50 O 0.02009 0.06422 0.87367 0.0
C51 C 0.06647 0.11009 0.84468 0.0
C52 C 0.05704 0.15339 0.95225 0.0
O53 O 0.07385 0.14318 0.95802 0.0
O54 O 0.04175 0.14372 0.93793 0.0
O55 O 0.35827 0.06207 0.36957 0.0
Cd56 Cd 0.35082 0.0449 0.42696 0.0
O57 O 0.39203 0.06327 0.37911 0.0
Cd58 Cd 0.39432 0.04375 0.42703 0.0
O59 O 0.41677 0.02272 0.4524 0.0
C60 C 0.43292 0.01924 0.43351 0.0
O61 O 0.43441 0.02807 0.40166 0.0
C62 C 0.37629 0.06778 0.35986 0.0
C63 C 0.30839 0.04653 0.44292 0.0
O64 O 0.32046 0.06156 0.45131 0.0
O65 O 0.31637 0.03065 0.42711 0.0
O66 O 0.39812 0.36074 0.86728 0.0
Cd67 Cd 0.40785 0.35612 0.93063 0.0
O68 O 0.4306 0.36407 0.85001 0.0
Cd69 Cd 0.44254 0.37089 0.90389 0.0
O70 O 0.4575 0.39615 0.9335 0.0
C71 C 0.44645 0.41091 0.94606 0.0
O72 O 0.42614 0.40969 0.94359 0.0
C73 C 0.41148 0.36224 0.84217 0.0
C74 C 0.40726 0.31398 0.94865 0.0
O75 O 0.3909 0.32529 0.95134 0.0
O76 O 0.424 0.32263 0.93778 0.0
O77 O 0.11149 0.40255 0.37197 0.0
Cd78 Cd 0.11413 0.41407 0.43483 0.0
O79 O 0.1095 0.43451 0.35131 0.0
Cd80 Cd 0.10117 0.44829 0.40328 0.0
O81 O 0.07575 0.46437 0.431 0.0
C82 C 0.06016 0.45388 0.44119 0.0
O83 O 0.06059 0.43358 0.43731 0.0
C84 C 0.11117 0.41509 0.34552 0.0
C85 C 0.15579 0.41889 0.45418 0.0
O86 O 0.14683 0.40122 0.45654 0.0
O87 O 0.145 0.43439 0.44301 0.0
O88 O 0.90662 0.61588 0.87067 0.0
Cd89 Cd 0.91863 0.6199 0.93297 0.0
O90 O 0.88958 0.58694 0.88104 0.0
Cd91 Cd 0.90472 0.5804 0.93251 0.0
O92 O 0.9241 0.55671 0.95831 0.0
C93 C 0.92812 0.54106 0.93838 0.0
O94 O 0.92051 0.5406 0.90544 0.0
C95 C 0.8944 0.60168 0.85992 0.0
C96 C 0.9183 0.66193 0.95234 0.0
O97 O 0.93477 0.65327 0.93983 0.0
O98 O 0.9021 0.65068 0.9561 0.0
O99 O 0.86926 0.89631 0.37663 0.0
Cd100 Cd 0.86626 0.90201 0.44172 0.0
O101 O 0.8834 0.92687 0.36699 0.0
Cd102 Cd 0.89169 0.9337 0.42292 0.0
O103 O 0.91797 0.94465 0.45512 0.0
C104 C 0.93533 0.9442 0.43877 0.0
O105 O 0.93597 0.93696 0.40555 0.0
C106 C 0.87573 0.91007 0.35488 0.0
C107 C 0.82443 0.90633 0.46061 0.0
O108 O 0.83553 0.92227 0.45346 0.0
O109 O 0.83317 0.88842 0.45929 0.0
O110 O 0.55148 0.85293 0.85827 0.0
Cd111 Cd 0.52797 0.84919 0.90962 0.0
O112 O 0.56274 0.88442 0.8708 0.0
Cd113 Cd 0.54175 0.89118 0.91563 0.0
O114 O 0.52307 0.91555 0.94136 0.0
C115 C 0.52162 0.93236 0.92354 0.0
O116 O 0.53091 0.93352 0.89202 0.0
C117 C 0.56313 0.86824 0.85102 0.0
C118 C 0.52736 0.80785 0.93252 0.0
O119 O 0.51652 0.81386 0.90544 0.0
O120 O 0.53836 0.8214 0.94913 0.0
O121 O 0.6209 0.56167 0.35846 0.0
Cd122 Cd 0.6242 0.54852 0.42011 0.0
O123 O 0.59444 0.58213 0.37148 0.0
Cd124 Cd 0.58685 0.56646 0.42191 0.0
O125 O 0.56254 0.5474 0.44607 0.0
C126 C 0.55849 0.53028 0.43042 0.0
O127 O 0.56994 0.52448 0.40276 0.0
C128 C 0.60816 0.57586 0.34924 0.0
C129 C 0.66598 0.54766 0.4406 0.0
O130 O 0.65728 0.53153 0.42714 0.0
O131 O 0.65488 0.56408 0.44475 0.0
O132 O 0.90315 0.86528 0.07993 0.0
Cd133 Cd 0.91475 0.85793 0.01826 0.0
O134 O 0.90379 0.89928 0.07308 0.0
Cd135 Cd 0.9174 0.90177 0.01937 0.0
O136 O 0.93381 0.92573 -0.01095 0.0
C137 C 0.93444 0.94321 0.00515 0.0
O138 O 0.92537 0.94505 0.0368 0.0
C139 C 0.89999 0.88346 0.09239 0.0
C140 C 0.91622 0.81516 0.00477 0.0
O141 O 0.93237 0.82494 0.0156 0.0
O142 O 0.89943 0.82561 0.00021 0.0
O143 O 0.62521 0.91125 0.59708 0.0
Cd144 Cd 0.63071 0.92524 0.53651 0.0
O145 O 0.59773 0.89318 0.58124 0.0
Cd146 Cd 0.59209 0.90993 0.53099 0.0
O147 O 0.56846 0.92906 0.50436 0.0
C148 C 0.55203 0.93194 0.52281 0.0
O149 O 0.55079 0.92348 0.55499 0.0
C150 C 0.61136 0.89795 0.60465 0.0
C151 C 0.67269 0.92222 0.51794 0.0
O152 O 0.66532 0.93879 0.53247 0.0
O153 O 0.66018 0.9072 0.51181 0.0
O154 O 0.55511 0.61548 0.0885 0.0
Cd155 Cd 0.53262 0.61796 0.03548 0.0
O156 O 0.56727 0.58389 0.0787 0.0
Cd157 Cd 0.54763 0.57592 0.0327 0.0
O158 O 0.53057 0.5506 0.0069 0.0
C159 C 0.51342 0.54486 0.0205 0.0
O160 O 0.50573 0.55533 0.04798 0.0
C161 C 0.56689 0.60045 0.09749 0.0
C162 C 0.53027 0.65919 0.01222 0.0
O163 O 0.51913 0.65274 0.03852 0.0
O164 O 0.54238 0.64613 -0.00347 0.0
O165 O 0.86133 0.56006 0.58792 0.0
Cd166 Cd 0.85912 0.54654 0.52628 0.0
O167 O 0.89027 0.57734 0.57881 0.0
Cd168 Cd 0.89859 0.56174 0.52839 0.0
O169 O 0.92363 0.54462 0.50148 0.0
C170 C 0.92797 0.52643 0.51256 0.0
O171 O 0.9163 0.51811 0.53771 0.0
C172 C 0.87502 0.57274 0.599 0.0
C173 C 0.81753 0.5456 0.50469 0.0
O174 O 0.82629 0.52953 0.5184 0.0
O175 O 0.82851 0.56198 0.50068 0.0
H176 H 0.07538 0.34621 0.15607 0.0
H177 H 0.11664 0.43717 0.28339 0.0
H178 H 0.09188 0.40742 0.11868 0.0
H179 H 0.10464 0.37515 0.32193 0.0
H180 H 0.11139 0.42507 0.22168 0.0
H181 H 0.08964 0.35493 0.21556 0.0
C182 C 0.08224 0.36136 0.16018 0.0
C183 C 0.08216 0.3762 0.13245 0.0
C184 C 0.1101 0.41401 0.24354 0.0
C185 C 0.09837 0.3863 0.20042 0.0
C186 C 0.11311 0.42093 0.27885 0.0
C187 C 0.11083 0.40721 0.30793 0.0
C188 C 0.10453 0.39325 0.23715 0.0
C189 C 0.10644 0.38629 0.30033 0.0
C190 C 0.09035 0.36634 0.19417 0.0
C191 C 0.09133 0.39556 0.13932 0.0
N192 N 0.10315 0.38 0.26568 0.0
N193 N 0.09886 0.40009 0.17264 0.0
H194 H 0.09431 0.10004 0.61699 0.0
H195 H 0.10351 0.09047 0.83162 0.0
H196 H 0.12391 0.04831 0.67062 0.0
H197 H 0.05402 0.1238 0.7781 0.0
H198 H 0.1184 0.08189 0.77255 0.0
H199 H 0.08688 0.11564 0.67605 0.0
C200 C 0.09959 0.09215 0.64113 0.0
C201 C 0.10954 0.07272 0.63893 0.0
C202 C 0.10445 0.09133 0.77385 0.0
C203 C 0.10117 0.09053 0.70635 0.0
C204 C 0.09599 0.09633 0.8075 0.0
C205 C 0.07735 0.10767 0.80974 0.0
C206 C 0.09436 0.09797 0.7423 0.0
C207 C 0.06828 0.11482 0.77758 0.0
C208 C 0.09525 0.10101 0.67477 0.0
C209 C 0.11599 0.06318 0.67111 0.0
N210 N 0.07682 0.10976 0.74515 0.0
N211 N 0.11161 0.07214 0.70353 0.0
H212 H 0.34756 0.07637 0.30674 0.0
H213 H 0.43476 0.11115 0.16677 0.0
H214 H 0.41234 0.08391 0.33356 0.0
H215 H 0.3697 0.10843 0.13928 0.0
H216 H 0.42598 0.10447 0.22961 0.0
H217 H 0.35441 0.09115 0.24702 0.0
C218 C 0.36315 0.08132 0.30026 0.0
C219 C 0.37944 0.07865 0.32509 0.0
C220 C 0.41356 0.10552 0.20997 0.0
C221 C 0.38739 0.09548 0.25685 0.0
C222 C 0.41858 0.10935 0.17401 0.0
C223 C 0.40297 0.11013 0.14763 0.0
C224 C 0.39277 0.10221 0.21971 0.0
C225 C 0.38225 0.10787 0.15871 0.0
C226 C 0.36706 0.08975 0.26616 0.0
C227 C 0.39932 0.08543 0.31523 0.0
N228 N 0.37776 0.10374 0.19388 0.0
N229 N 0.40274 0.09335 0.28185 0.0
H230 H 0.43577 0.35975 0.78188 0.0
H231 H 0.34732 0.40254 0.65028 0.0
H232 H 0.37217 0.36868 0.81546 0.0
H233 H 0.41082 0.39104 0.61834 0.0
H234 H 0.35476 0.38649 0.70885 0.0
H235 H 0.4256 0.36721 0.7199 0.0
C236 C 0.4196 0.36307 0.77616 0.0
C237 C 0.40485 0.36383 0.804 0.0
C238 C 0.36698 0.38729 0.68883 0.0
C239 C 0.39309 0.37267 0.73292 0.0
C240 C 0.36274 0.39643 0.65538 0.0
C241 C 0.37853 0.3984 0.6295 0.0
C242 C 0.38716 0.3801 0.6964 0.0
C243 C 0.3982 0.39013 0.63757 0.0
C244 C 0.41379 0.36735 0.74069 0.0
C245 C 0.38408 0.36802 0.79486 0.0
N246 N 0.40198 0.38153 0.67034 0.0
N247 N 0.37885 0.37256 0.76014 0.0
H248 H 0.86528 0.57613 0.82967 0.0
H249 H 0.89888 0.60337 0.62894 0.0
H250 H 0.90741 0.6258 0.80342 0.0
H251 H 0.84947 0.56077 0.65433 0.0
H252 H 0.90022 0.61378 0.69232 0.0
H253 H 0.85716 0.57227 0.76561 0.0
C254 C 0.87266 0.5864 0.81048 0.0
C255 C 0.88725 0.60115 0.82193 0.0
C256 C 0.88891 0.60233 0.68399 0.0
C257 C 0.87816 0.59666 0.74842 0.0
C258 C 0.88815 0.59634 0.64777 0.0
C259 C 0.8742 0.58098 0.63635 0.0
C260 C 0.87578 0.59273 0.70912 0.0
C261 C 0.86056 0.57258 0.66194 0.0
C262 C 0.86799 0.58419 0.77387 0.0
C263 C 0.89617 0.61412 0.79584 0.0
N264 N 0.86188 0.57837 0.69721 0.0
N265 N 0.89169 0.61139 0.76026 0.0
H266 H 0.89169 0.85391 0.14411 0.0
H267 H 0.88115 0.93841 0.30114 0.0
H268 H 0.89211 0.92023 0.12673 0.0
H269 H 0.87012 0.87313 0.31877 0.0
H270 H 0.88405 0.9317 0.23661 0.0
H271 H 0.88263 0.86015 0.20758 0.0
C272 C 0.88972 0.86975 0.15351 0.0
C273 C 0.89286 0.88656 0.13008 0.0
C274 C 0.88083 0.91882 0.25447 0.0
C275 C 0.88261 0.89378 0.20255 0.0
C276 C 0.8792 0.92265 0.2914 0.0
C277 C 0.87553 0.90628 0.31545 0.0
C278 C 0.87903 0.89842 0.24134 0.0
C279 C 0.87299 0.8862 0.30118 0.0
C280 C 0.88454 0.87329 0.18972 0.0
C281 C 0.89002 0.90675 0.14375 0.0
N282 N 0.87501 0.88278 0.26505 0.0
N283 N 0.88523 0.90977 0.17905 0.0
H284 H 0.63114 0.91127 0.66606 0.0
H285 H 0.56181 0.84034 0.79494 0.0
H286 H 0.5876 0.86547 0.62765 0.0
H287 H 0.59253 0.89635 0.83006 0.0
H288 H 0.57814 0.84397 0.73572 0.0
H289 H 0.62395 0.90045 0.72811 0.0
C290 C 0.62034 0.89871 0.6706 0.0
C291 C 0.60972 0.88947 0.64164 0.0
C292 C 0.58151 0.8553 0.75657 0.0
C293 C 0.60143 0.87707 0.7125 0.0
C294 C 0.57226 0.8532 0.79045 0.0
C295 C 0.57553 0.86825 0.81736 0.0
C296 C 0.5942 0.8725 0.7496 0.0
C297 C 0.58932 0.88454 0.80997 0.0
C298 C 0.61619 0.8926 0.70603 0.0
C299 C 0.59593 0.87322 0.64917 0.0
N300 N 0.59798 0.88634 0.77668 0.0
N301 N 0.59205 0.86767 0.68387 0.0
H302 H 0.62926 0.56053 0.2905 0.0
H303 H 0.56404 0.62965 0.15143 0.0
H304 H 0.58601 0.60872 0.32214 0.0
H305 H 0.59598 0.57283 0.12256 0.0
H306 H 0.57889 0.62731 0.21207 0.0
H307 H 0.62399 0.57013 0.22727 0.0
C308 C 0.61893 0.57335 0.28424 0.0
C309 C 0.6078 0.58361 0.31164 0.0
C310 C 0.58286 0.61552 0.19228 0.0
C311 C 0.60168 0.59461 0.23937 0.0
C312 C 0.57445 0.61687 0.1576 0.0
C313 C 0.57849 0.60122 0.13202 0.0
C314 C 0.59544 0.59844 0.20142 0.0
C315 C 0.59219 0.5851 0.14156 0.0
C316 C 0.61588 0.57877 0.24812 0.0
C317 C 0.59469 0.60017 0.30188 0.0
N318 N 0.6 0.584 0.1756 0.0
N319 N 0.59184 0.60502 0.26654 0.0
H320 H 0.08272 0.2832 -0.00667 0.0
H321 H 0.02195 0.17753 0.95612 0.0
H322 H 0.01754 0.27593 0.0167 0.0
H323 H 0.08843 0.18009 0.9698 0.0
H324 H 0.01972 0.21448 0.97173 0.0
H325 H 0.08482 0.24625 -0.02204 0.0
C326 C 0.06884 0.27385 -0.00483 0.0
C327 C 0.04992 0.28266 0.00636 0.0
C328 C 0.03478 0.20692 0.97138 0.0
C329 C 0.0522 0.24041 -0.01143 0.0
C330 C 0.03607 0.18586 0.96236 0.0
C331 C 0.05541 0.1757 0.9617 0.0
C332 C 0.05296 0.21798 -0.02071 0.0
C333 C 0.0732 0.18727 0.9701 0.0
C334 C 0.07007 0.25275 -0.01348 0.0
C335 C 0.03245 0.26976 0.00833 0.0
N336 N 0.07156 0.20781 -0.02165 0.0
N337 N 0.03398 0.24931 -0.00066 0.0
H338 H 0.28552 0.08052 0.46338 0.0
H339 H 0.18057 0.01789 0.49559 0.0
H340 H 0.28006 0.01492 0.44109 0.0
H341 H 0.18212 0.08434 0.48071 0.0
H342 H 0.21777 0.01623 0.48206 0.0
H343 H 0.24831 0.08197 0.47642 0.0
C344 C 0.27651 0.06641 0.4613 0.0
C345 C 0.28591 0.04757 0.45109 0.0
C346 C 0.20993 0.03115 0.48167 0.0
C347 C 0.24335 0.04911 0.46621 0.0
C348 C 0.18873 0.03212 0.48949 0.0
C349 C 0.17822 0.05128 0.48923 0.0
C350 C 0.22077 0.0495 0.47407 0.0
C351 C 0.18957 0.06923 0.48108 0.0
C352 C 0.25526 0.06727 0.46862 0.0
C353 C 0.27344 0.02979 0.44875 0.0
N354 N 0.21025 0.06791 0.47403 0.0
N355 N 0.25282 0.03097 0.45643 0.0
H356 H 0.37343 0.29032 0.96538 0.0
H357 H 0.43888 0.18592 -0.00224 0.0
H358 H 0.43989 0.28647 0.95172 0.0
H359 H 0.372 0.18778 -0.00908 0.0
H360 H 0.43975 0.22314 -0.0154 0.0
H361 H 0.3728 0.25318 -0.02125 0.0
C362 C 0.38791 0.28168 0.96527 0.0
C363 C 0.40675 0.29154 0.95738 0.0
C364 C 0.42489 0.21539 -0.01408 0.0
C365 C 0.40612 0.24896 0.97273 0.0
C366 C 0.42438 0.19414 -0.00652 0.0
C367 C 0.40534 0.1837 -0.00458 0.0
C368 C 0.40622 0.22633 -0.01947 0.0
C369 C 0.38704 0.19517 -0.01039 0.0
C370 C 0.38752 0.26045 0.97281 0.0
C371 C 0.42501 0.27952 0.95758 0.0
N372 N 0.38794 0.21585 -0.01745 0.0
N373 N 0.42424 0.25887 0.9652 0.0
H374 H 0.28711 0.39766 0.48767 0.0
H375 H 0.17772 0.45491 0.46337 0.0
H376 H 0.27676 0.46153 0.51895 0.0
H377 H 0.1845 0.38819 0.46611 0.0
H378 H 0.21465 0.45827 0.47799 0.0
H379 H 0.25016 0.39452 0.47362 0.0
C380 C 0.27708 0.41104 0.49151 0.0
C381 C 0.28505 0.42989 0.50454 0.0
C382 C 0.20802 0.44291 0.47548 0.0
C383 C 0.24274 0.42641 0.48832 0.0
C384 C 0.18696 0.44097 0.46705 0.0
C385 C 0.178 0.42123 0.46355 0.0
C386 C 0.22026 0.42498 0.47996 0.0
C387 C 0.19073 0.40371 0.46867 0.0
C388 C 0.25598 0.40921 0.48361 0.0
C389 C 0.27129 0.44669 0.50907 0.0
N390 N 0.21122 0.40599 0.47641 0.0
N391 N 0.25082 0.44459 0.50082 0.0
H392 H 0.95032 0.78952 0.00288 0.0
H393 H 0.88462 0.68598 0.97016 0.0
H394 H 0.88367 0.78913 -0.0091 0.0
H395 H 0.951 0.68899 0.95532 0.0
H396 H 0.88413 0.72318 -0.01635 0.0
H397 H 0.951 0.75209 -0.0089 0.0
C398 C 0.93582 0.78157 -0.00218 0.0
C399 C 0.91691 0.7925 -0.00219 0.0
C400 C 0.8988 0.7157 -0.02255 0.0
C401 C 0.91758 0.74964 -0.01549 0.0
C402 C 0.89911 0.69444 0.96986 0.0
C403 C 0.91788 0.68434 0.96153 0.0
C404 C 0.91741 0.72696 -0.02297 0.0
C405 C 0.93616 0.69613 0.9615 0.0
C406 C 0.93624 0.76021 -0.00898 0.0
C407 C 0.89861 0.78137 -0.00895 0.0
N408 N 0.93548 0.7168 0.96919 0.0
N409 N 0.8994 0.76056 -0.01522 0.0
H410 H 0.70245 0.95248 0.52084 0.0
H411 H 0.7958 0.87545 0.46903 0.0
H412 H 0.69391 0.88764 0.49499 0.0
H413 H 0.80216 0.94215 0.47244 0.0
H414 H 0.75887 0.87935 0.48271 0.0
H415 H 0.73944 0.94876 0.50708 0.0
C416 C 0.70834 0.93746 0.51224 0.0
C417 C 0.69504 0.92034 0.50904 0.0
C418 C 0.76834 0.89314 0.48044 0.0
C419 C 0.73739 0.91597 0.49347 0.0
C420 C 0.78945 0.89092 0.47275 0.0
C421 C 0.80211 0.9085 0.46956 0.0
C422 C 0.7598 0.91308 0.48529 0.0
C423 C 0.79299 0.92816 0.47458 0.0
C424 C 0.72945 0.93537 0.50434 0.0
C425 C 0.70355 0.90128 0.49775 0.0
N426 N 0.77241 0.92992 0.48228 0.0
N427 N 0.72418 0.89959 0.49051 0.0
H428 H 0.51899 0.69301 0.05252 0.0
H429 H 0.5189 0.77363 0.8914 0.0
H430 H 0.53954 0.67525 0.94585 0.0
H431 H 0.53586 0.79213 -0.00047 0.0
H432 H 0.51957 0.73717 0.91065 0.0
H433 H 0.51824 0.72946 0.03324 0.0
C434 C 0.52323 0.69678 0.025 0.0
C435 C 0.52937 0.68114 0.00072 0.0
C436 C 0.52313 0.74926 0.93007 0.0
C437 C 0.52823 0.72259 -0.02149 0.0
C438 C 0.52265 0.77001 0.91922 0.0
C439 C 0.52737 0.78588 0.94394 0.0
C440 C 0.52782 0.7444 0.96609 0.0
C441 C 0.53223 0.78035 -0.02039 0.0
C442 C 0.5229 0.71754 0.01414 0.0
C443 C 0.53482 0.68687 0.96543 0.0
N444 N 0.53215 0.76005 -0.01026 0.0
N445 N 0.53394 0.70714 0.95525 0.0
H446 H 0.69034 0.5807 0.45933 0.0
H447 H 0.7914 0.51219 0.50068 0.0
H448 H 0.69239 0.51419 0.44441 0.0
H449 H 0.79294 0.57865 0.48584 0.0
H450 H 0.75445 0.5125 0.48518 0.0
H451 H 0.72727 0.58014 0.47456 0.0
C452 C 0.69854 0.56596 0.45936 0.0
C453 C 0.68825 0.54746 0.45054 0.0
C454 C 0.7629 0.52699 0.48521 0.0
C455 C 0.73054 0.54672 0.46806 0.0
C456 C 0.78398 0.52684 0.49412 0.0
C457 C 0.79529 0.54542 0.49452 0.0
C458 C 0.75299 0.54589 0.47706 0.0
C459 C 0.78486 0.56394 0.48576 0.0
C460 C 0.71964 0.56567 0.46792 0.0
C461 C 0.6997 0.52883 0.45094 0.0
N462 N 0.76429 0.56372 0.47757 0.0
N463 N 0.72021 0.52892 0.45966 0.0
H464 H 0.93954 0.50591 0.90168 0.0
H465 H 0.00711 0.45949 0.06431 0.0
H466 H 0.94659 0.53651 0.00487 0.0
H467 H 0.00122 0.42955 0.96032 0.0
H468 H 0.98427 0.48733 0.04353 0.0
H469 H 0.96139 0.47745 0.92316 0.0
C470 C 0.94566 0.50666 0.92891 0.0
C471 C 0.94123 0.52368 0.9515 0.0
C472 C -0.01207 0.47467 0.02524 0.0
C473 C 0.96633 0.49104 0.97629 0.0
C474 C 0.00098 0.45872 0.03709 0.0
C475 C 0.00614 0.44214 0.01399 0.0
C476 C 0.97993 0.47409 -0.01002 0.0
C477 C -0.00231 0.44202 -0.02096 0.0
C478 C 0.95816 0.49037 0.94115 0.0
C479 C 0.94961 0.52373 -0.0135 0.0
N480 N 0.98503 0.45777 0.96809 0.0
N481 N 0.96176 0.50767 -0.0022 0.0
H482 H 0.06051 -0.01279 0.47876 0.0
H483 H 0.93981 0.96154 0.50625 0.0
H484 H 0.02602 0.00292 0.57509 0.0
H485 H 0.9744 0.94559 0.41014 0.0
H486 H 0.97146 0.976 0.53262 0.0
H487 H 0.0293 0.97115 0.45368 0.0
C488 C 0.0464 -0.01274 0.49467 0.0
C489 C 0.04589 -0.00353 0.52906 0.0
C490 C 0.97213 0.96929 0.50579 0.0
C491 C 0.01009 0.97813 0.50052 0.0
C492 C 0.95406 0.96101 0.49074 0.0
C493 C 0.95442 0.95238 0.45589 0.0
C494 C -0.00929 0.96895 0.48585 0.0
C495 C 0.97335 0.95212 0.43706 0.0
C496 C 0.02858 0.97808 0.48034 0.0
C497 C 0.02716 -0.00396 0.54845 0.0
N498 N -0.00931 0.96032 0.45223 0.0
N499 N 0.01002 -0.01293 0.5339 0.0
H500 H 0.45234 0.01855 0.05786 0.0
H501 H 0.51638 0.9704 0.89205 0.0
H502 H 0.46951 0.05363 0.96337 0.0
H503 H 0.50085 0.93595 -0.01188 0.0
H504 H 0.49825 0.00063 0.91674 0.0
H505 H 0.46891 -0.01215 0.03174 0.0
C506 C 0.45955 0.01981 0.03154 0.0
C507 C 0.45956 0.03875 0.01282 0.0
C508 C 0.49876 0.98646 0.93242 0.0
C509 C 0.47865 0.00354 -0.01728 0.0
C510 C 0.50912 0.96916 0.91833 0.0
C511 C 0.51019 0.95058 0.93808 0.0
C512 C 0.48937 0.98526 0.96655 0.0
C513 C 0.50045 0.94994 0.97196 0.0
C514 C 0.46904 0.00224 0.01665 0.0
C515 C 0.46914 0.03938 -0.02121 0.0
N516 N 0.49048 0.96703 -0.01486 0.0
N517 N 0.47833 0.02204 0.96488 0.0
H518 H 0.52726 0.54094 0.47755 0.0
H519 H 0.46589 0.43417 0.45183 0.0
H520 H 0.54771 0.49155 0.40667 0.0
H521 H 0.43917 0.48818 0.50371 0.0
H522 H 0.49685 0.45432 0.43787 0.0
H523 H 0.49599 0.52098 0.49119 0.0
C524 C 0.52526 0.52585 0.46505 0.0
C525 C 0.54014 0.51792 0.44089 0.0
C526 C 0.48418 0.46181 0.45215 0.0
C527 C 0.50436 0.49505 0.45628 0.0
C528 C 0.46647 0.45031 0.46011 0.0
C529 C 0.44989 0.45949 0.47898 0.0
C530 C 0.48546 0.48262 0.46343 0.0
C531 C 0.45155 0.48048 0.48902 0.0
C532 C 0.50735 0.51452 0.47268 0.0
C533 C 0.53666 0.49831 0.42538 0.0
N534 N 0.46907 0.4913 0.48131 0.0
N535 N 0.51916 0.48756 0.43336 0.0
H536 H -0.01212 0.06446 0.96767 0.0
H537 H 0.95574 0.94513 0.94091 0.0
H538 H 0.00626 0.02723 0.87577 0.0
H539 H 0.93809 0.98229 0.03331 0.0
H540 H 0.97401 0.97514 0.91613 0.0
H541 H 0.96922 0.03458 -0.00815 0.0
C542 C -0.01201 0.05002 0.95257 0.0
C543 C -0.00133 0.04837 0.91965 0.0
C544 C 0.96612 0.97672 0.94182 0.0
C545 C 0.97733 0.01408 0.94715 0.0
C546 C 0.95568 0.95959 0.95596 0.0
C547 C 0.94538 0.96117 -0.01075 0.0
C548 C 0.96626 -0.00442 0.9611 0.0
C549 C 0.94582 0.98031 0.00756 0.0
C550 C 0.97733 0.03295 0.96638 0.0
C551 C -0.00174 0.02924 0.90126 0.0
N552 N 0.95608 -0.00327 -0.00673 0.0
N553 N -0.01222 0.01287 0.91525 0.0
H554 H 0.43566 -0.00127 0.49839 0.0
H555 H 0.54893 0.95184 0.45742 0.0
H556 H 0.46924 0.00931 0.39929 0.0
H557 H 0.51522 0.94089 0.55627 0.0
H558 H 0.51975 0.97276 0.43543 0.0
H559 H 0.46453 0.9772 0.51992 0.0
C560 C 0.44907 -0.00349 0.48114 0.0
C561 C 0.45002 0.00587 0.447 0.0
C562 C 0.51874 0.96577 0.46193 0.0
C563 C 0.48314 0.98128 0.47146 0.0
C564 C 0.53541 0.95382 0.47449 0.0
C565 C 0.53455 0.9446 0.50876 0.0
C566 C 0.50108 0.96853 0.48377 0.0
C567 C 0.5166 0.9477 0.52968 0.0
C568 C 0.46556 0.98422 0.49344 0.0
C569 C 0.4678 0.00244 0.42581 0.0
N570 N 0.50061 0.9594 0.51688 0.0
N571 N 0.48364 -0.00954 0.43839 0.0
H572 H 0.52882 0.5153 0.97409 0.0
H573 H 0.42792 0.44368 -0.01904 0.0
H574 H 0.475 0.53023 0.03878 0.0
H575 H 0.48729 0.42228 0.94112 0.0
H576 H 0.44395 0.47654 -0.0013 0.0
H577 H 0.51266 0.48241 0.95704 0.0
C578 C 0.51354 0.51175 -0.01549 0.0
C579 C 0.50326 0.52555 0.00796 0.0
C580 C 0.45348 0.4646 -0.01375 0.0
C581 C 0.48471 0.48788 -0.01138 0.0
C582 C 0.44435 0.44583 0.97613 0.0
C583 C 0.45627 0.43019 0.95952 0.0
C584 C 0.47465 0.46787 -0.02067 0.0
C585 C 0.4775 0.43386 0.95395 0.0
C586 C 0.50439 0.4929 0.97494 0.0
C587 C 0.48352 0.52005 0.02072 0.0
N588 N 0.48597 0.45237 0.9636 0.0
N589 N 0.47488 0.50166 0.01085 0.0
H590 H 0.95954 0.54188 0.47099 0.0
H591 H 0.02558 0.43629 0.47097 0.0
H592 H 0.93992 0.48633 0.52609 0.0
H593 H 0.05085 0.49549 0.43934 0.0
H594 H -0.00687 0.45371 0.48755 0.0
H595 H -0.00808 0.52431 0.45436 0.0
C596 C 0.96196 0.52594 0.47937 0.0
C597 C 0.94699 0.51557 0.50004 0.0
C598 C 0.00581 0.4629 0.47714 0.0
C599 C 0.98408 0.49541 0.48119 0.0
C600 C 0.02436 0.45297 0.46769 0.0
C601 C 0.04098 0.46444 0.45375 0.0
C602 C 0.00376 0.48444 0.47228 0.0
C603 C 0.03848 0.48603 0.45009 0.0
C604 C 0.98051 0.51596 0.47005 0.0
C605 C 0.95103 0.49495 0.51023 0.0
N606 N 0.02018 0.4953 0.45909 0.0
N607 N 0.96917 0.48555 0.50069 0.0
loop_
_geom_bond_atom_site_label_1
_geom_bond_atom_site_label_2
_geom_bond_distance
_geom_bond_site_symmetry_2
_ccdc_geom_bond_type
O0 Cd1 2.300 . S
O0 C7 1.275 . S
Cd1 O0 2.300 . S
Cd1 O9 2.381 . S
Cd1 O10 2.378 . S
O2 Cd3 2.385 . S
O2 C7 1.255 . S
Cd3 O2 2.385 . S
Cd3 O4 2.317 . S
O4 Cd3 2.317 . S
O4 C5 1.232 . S
C5 O4 1.232 . S
C5 O6 1.218 . S
O6 C5 1.218 . S
C7 O0 1.275 . S
C7 O2 1.255 . S
C8 O9 1.258 . S
C8 O10 1.256 . S
O9 Cd1 2.381 . S
O9 C8 1.258 . S
O10 Cd1 2.378 . S
O10 C8 1.256 . S
O11 Cd12 2.300 . S
O11 C18 1.275 . S
Cd12 O11 2.300 . S
Cd12 O20 2.381 . S
Cd12 O21 2.378 . S
O13 Cd14 2.385 . S
O13 C18 1.255 . S
Cd14 O13 2.385 . S
Cd14 O15 2.317 . S
O15 Cd14 2.317 . S
O15 C16 1.232 . S
C16 O15 1.232 . S
C16 O17 1.218 . S
O17 C16 1.218 . S
C18 O11 1.275 . S
C18 O13 1.255 . S
C19 O20 1.258 . S
C19 O21 1.256 . S
O20 Cd12 2.381 . S
O20 C19 1.258 . S
O21 Cd12 2.378 . S
O21 C19 1.256 . S
O22 Cd23 2.300 . S
O22 C29 1.275 . S
Cd23 O22 2.300 . S
Cd23 O31 2.381 . S
Cd23 O32 2.378 . S
O24 Cd25 2.385 . S
O24 C29 1.255 . S
Cd25 O24 2.385 . S
Cd25 O26 2.317 . S
O26 Cd25 2.317 . S
O26 C27 1.232 . S
C27 O26 1.232 . S
C27 O28 1.218 . S
O28 C27 1.218 . S
C29 O22 1.275 . S
C29 O24 1.255 . S
C30 O31 1.258 . S
C30 O32 1.256 . S
O31 Cd23 2.381 . S
O31 C30 1.258 . S
O32 Cd23 2.378 . S
O32 C30 1.256 . S
O33 Cd34 2.300 . S
O33 C40 1.275 . S
Cd34 O33 2.300 . S
Cd34 O42 2.381 . S
Cd34 O43 2.378 . S
O35 Cd36 2.385 . S
O35 C40 1.255 . S
Cd36 O35 2.385 . S
Cd36 O37 2.317 . S
O37 Cd36 2.317 . S
O37 C38 1.232 . S
C38 O37 1.232 . S
C38 O39 1.218 . S
O39 C38 1.218 . S
C40 O33 1.275 . S
C40 O35 1.255 . S
C41 O42 1.258 . S
C41 O43 1.256 . S
O42 Cd34 2.381 . S
O42 C41 1.258 . S
O43 Cd34 2.378 . S
O43 C41 1.256 . S
O44 Cd45 2.300 . S
O44 C51 1.275 . S
Cd45 O44 2.300 . S
Cd45 O53 2.381 . S
Cd45 O54 2.378 . S
O46 Cd47 2.385 . S
O46 C51 1.255 . S
Cd47 O46 2.385 . S
Cd47 O48 2.317 . S
O48 Cd47 2.317 . S
O48 C49 1.232 . S
C49 O48 1.232 . S
C49 O50 1.218 . S
O50 C49 1.218 . S
C51 O44 1.275 . S
C51 O46 1.255 . S
C52 O53 1.258 . S
C52 O54 1.256 . S
O53 Cd45 2.381 . S
O53 C52 1.258 . S
O54 Cd45 2.378 . S
O54 C52 1.256 . S
O55 Cd56 2.300 . S
O55 C62 1.275 . S
Cd56 O55 2.300 . S
Cd56 O64 2.381 . S
Cd56 O65 2.378 . S
O57 Cd58 2.385 . S
O57 C62 1.255 . S
Cd58 O57 2.385 . S
Cd58 O59 2.317 . S
O59 Cd58 2.317 . S
O59 C60 1.232 . S
C60 O59 1.232 . S
C60 O61 1.218 . S
O61 C60 1.218 . S
C62 O55 1.275 . S
C62 O57 1.255 . S
C63 O64 1.258 . S
C63 O65 1.256 . S
O64 Cd56 2.381 . S
O64 C63 1.258 . S
O65 Cd56 2.378 . S
O65 C63 1.256 . S
O66 Cd67 2.300 . S
O66 C73 1.275 . S
Cd67 O66 2.300 . S
Cd67 O75 2.381 . S
Cd67 O76 2.378 . S
O68 Cd69 2.385 . S
O68 C73 1.255 . S
Cd69 O68 2.385 . S
Cd69 O70 2.317 . S
O70 Cd69 2.317 . S
O70 C71 1.232 . S
C71 O70 1.232 . S
C71 O72 1.218 . S
O72 C71 1.218 . S
C73 O66 1.275 . S
C73 O68 1.255 . S
C74 O75 1.258 . S
C74 O76 1.256 . S
O75 Cd67 2.381 . S
O75 C74 1.258 . S
O76 Cd67 2.378 . S
O76 C74 1.256 . S
O77 Cd78 2.300 . S
O77 C84 1.275 . S
Cd78 O77 2.300 . S
Cd78 O86 2.381 . S
Cd78 O87 2.378 . S
O79 Cd80 2.385 . S
O79 C84 1.255 . S
Cd80 O79 2.385 . S
Cd80 O81 2.317 . S
O81 Cd80 2.317 . S
O81 C82 1.232 . S
C82 O81 1.232 . S
C82 O83 1.218 . S
O83 C82 1.218 . S
C84 O77 1.275 . S
C84 O79 1.255 . S
C85 O86 1.258 . S
C85 O87 1.256 . S
O86 Cd78 2.381 . S
O86 C85 1.258 . S
O87 Cd78 2.378 . S
O87 C85 1.256 . S
O88 Cd89 2.300 . S
O88 C95 1.275 . S
Cd89 O88 2.300 . S
Cd89 O97 2.381 . S
Cd89 O98 2.378 . S
O90 Cd91 2.385 . S
O90 C95 1.255 . S
Cd91 O90 2.385 . S
Cd91 O92 2.317 . S
O92 Cd91 2.317 . S
O92 C93 1.232 . S
C93 O92 1.232 . S
C93 O94 1.218 . S
O94 C93 1.218 . S
C95 O88 1.275 . S
C95 O90 1.255 . S
C96 O97 1.258 . S
C96 O98 1.256 . S
O97 Cd89 2.381 . S
O97 C96 1.258 . S
O98 Cd89 2.378 . S
O98 C96 1.256 . S
O99 Cd100 2.300 . S
O99 C106 1.275 . S
Cd100 O99 2.300 . S
Cd100 O108 2.381 . S
Cd100 O109 2.378 . S
O101 Cd102 2.385 . S
O101 C106 1.255 . S
Cd102 O101 2.385 . S
Cd102 O103 2.317 . S
O103 Cd102 2.317 . S
O103 C104 1.232 . S
C104 O103 1.232 . S
C104 O105 1.218 . S
O105 C104 1.218 . S
C106 O99 1.275 . S
C106 O101 1.255 . S
C107 O108 1.258 . S
C107 O109 1.256 . S
O108 Cd100 2.381 . S
O108 C107 1.258 . S
O109 Cd100 2.378 . S
O109 C107 1.256 . S
O110 Cd111 2.300 . S
O110 C117 1.275 . S
Cd111 O110 2.300 . S
Cd111 O119 2.381 . S
Cd111 O120 2.378 . S
O112 Cd113 2.385 . S
O112 C117 1.255 . S
Cd113 O112 2.385 . S
Cd113 O114 2.317 . S
O114 Cd113 2.317 . S
O114 C115 1.232 . S
C115 O114 1.232 . S
C115 O116 1.218 . S
O116 C115 1.218 . S
C117 O110 1.275 . S
C117 O112 1.255 . S
C118 O119 1.258 . S
C118 O120 1.256 . S
O119 Cd111 2.381 . S
O119 C118 1.258 . S
O120 Cd111 2.378 . S
O120 C118 1.256 . S
O121 Cd122 2.300 . S
O121 C128 1.275 . S
Cd122 O121 2.300 . S
Cd122 O130 2.381 . S
Cd122 O131 2.378 . S
O123 Cd124 2.385 . S
O123 C128 1.255 . S
Cd124 O123 2.385 . S
Cd124 O125 2.317 . S
O125 Cd124 2.317 . S
O125 C126 1.232 . S
C126 O125 1.232 . S
C126 O127 1.218 . S
O127 C126 1.218 . S
C128 O121 1.275 . S
C128 O123 1.255 . S
C129 O130 1.258 . S
C129 O131 1.256 . S
O130 Cd122 2.381 . S
O130 C129 1.258 . S
O131 Cd122 2.378 . S
O131 C129 1.256 . S
O132 Cd133 2.300 . S
O132 C139 1.275 . S
Cd133 O132 2.300 . S
Cd133 O141 2.381 . S
Cd133 O142 2.378 . S
O134 Cd135 2.385 . S
O134 C139 1.255 . S
Cd135 O134 2.385 . S
Cd135 O136 2.317 . S
O136 Cd135 2.317 . S
O136 C137 1.232 . S
C137 O136 1.232 . S
C137 O138 1.218 . S
O138 C137 1.218 . S
C139 O132 1.275 . S
C139 O134 1.255 . S
C140 O141 1.258 . S
C140 O142 1.256 . S
O141 Cd133 2.381 . S
O141 C140 1.258 . S
O142 Cd133 2.378 . S
O142 C140 1.256 . S
O143 Cd144 2.300 . S
O143 C150 1.275 . S
Cd144 O143 2.300 . S
Cd144 O152 2.381 . S
Cd144 O153 2.378 . S
O145 Cd146 2.385 . S
O145 C150 1.255 . S
Cd146 O145 2.385 . S
Cd146 O147 2.317 . S
O147 Cd146 2.317 . S
O147 C148 1.232 . S
C148 O147 1.232 . S
C148 O149 1.218 . S
O149 C148 1.218 . S
C150 O143 1.275 . S
C150 O145 1.255 . S
C151 O152 1.258 . S
C151 O153 1.256 . S
O152 Cd144 2.381 . S
O152 C151 1.258 . S
O153 Cd144 2.378 . S
O153 C151 1.256 . S
O154 Cd155 2.300 . S
O154 C161 1.275 . S
Cd155 O154 2.300 . S
Cd155 O163 2.381 . S
Cd155 O164 2.378 . S
O156 Cd157 2.385 . S
O156 C161 1.255 . S
Cd157 O156 2.385 . S
Cd157 O158 2.317 . S
O158 Cd157 2.317 . S
O158 C159 1.232 . S
C159 O158 1.232 . S
C159 O160 1.218 . S
O160 C159 1.218 . S
C161 O154 1.275 . S
C161 O156 1.255 . S
C162 O163 1.258 . S
C162 O164 1.256 . S
O163 Cd155 2.381 . S
O163 C162 1.258 . S
O164 Cd155 2.378 . S
O164 C162 1.256 . S
O165 Cd166 2.300 . S
O165 C172 1.275 . S
Cd166 O165 2.300 . S
Cd166 O174 2.381 . S
Cd166 O175 2.378 . S
O167 Cd168 2.385 . S
O167 C172 1.255 . S
Cd168 O167 2.385 . S
Cd168 O169 2.317 . S
O169 Cd168 2.317 . S
O169 C170 1.232 . S
C170 O169 1.232 . S
C170 O171 1.218 . S
O171 C170 1.218 . S
C172 O165 1.275 . S
C172 O167 1.255 . S
C173 O174 1.258 . S
C173 O175 1.256 . S
O174 Cd166 2.381 . S
O174 C173 1.258 . S
O175 Cd166 2.378 . S
O175 C173 1.256 . S
H176 C182 0.930 . S
H177 C186 0.930 . S
H178 C191 0.929 . S
H179 C189 0.929 . S
H180 C184 0.929 . S
H181 C190 0.929 . S
C182 H176 0.930 . S
C182 C183 1.367 . S
C182 C190 1.378 . S
C183 C182 1.367 . S
C183 C191 1.433 . S
C184 H180 0.929 . S
C184 C186 1.378 . S
C184 C188 1.350 . S
C185 C188 1.463 . S
C185 C190 1.350 . S
C185 N193 1.427 . S
C186 H177 0.930 . S
C186 C184 1.378 . S
C186 C187 1.367 . S
C187 C186 1.367 . S
C187 C189 1.433 . S
C188 C184 1.350 . S
C188 C185 1.463 . S
C188 N192 1.427 . S
C189 H179 0.929 . S
C189 C187 1.433 . S
C189 N192 1.384 . S
C190 H181 0.929 . S
C190 C182 1.378 . S
C190 C185 1.350 . S
C191 H178 0.929 . S
C191 C183 1.433 . S
C191 N193 1.384 . S
N192 C188 1.427 . S
N192 C189 1.384 . S
N193 C185 1.427 . S
N193 C191 1.384 . S
H194 C200 0.930 . S
H195 C204 0.930 . S
H196 C209 0.929 . S
H197 C207 0.929 . S
H198 C202 0.929 . S
H199 C208 0.929 . S
C200 H194 0.930 . S
C200 C201 1.367 . S
C200 C208 1.378 . S
C201 C200 1.367 . S
C201 C209 1.433 . S
C202 H198 0.929 . S
C202 C204 1.378 . S
C202 C206 1.350 . S
C203 C206 1.463 . S
C203 C208 1.350 . S
C203 N211 1.427 . S
C204 H195 0.930 . S
C204 C202 1.378 . S
C204 C205 1.367 . S
C205 C204 1.367 . S
C205 C207 1.433 . S
C206 C202 1.350 . S
C206 C203 1.463 . S
C206 N210 1.427 . S
C207 H197 0.929 . S
C207 C205 1.433 . S
C207 N210 1.384 . S
C208 H199 0.929 . S
C208 C200 1.378 . S
C208 C203 1.350 . S
C209 H196 0.929 . S
C209 C201 1.433 . S
C209 N211 1.384 . S
N210 C206 1.427 . S
N210 C207 1.384 . S
N211 C203 1.427 . S
N211 C209 1.384 . S
H212 C218 0.930 . S
H213 C222 0.930 . S
H214 C227 0.929 . S
H215 C225 0.929 . S
H216 C220 0.929 . S
H217 C226 0.929 . S
C218 H212 0.930 . S
C218 C219 1.367 . S
C218 C226 1.378 . S
C219 C218 1.367 . S
C219 C227 1.433 . S
C220 H216 0.929 . S
C220 C222 1.378 . S
C220 C224 1.350 . S
C221 C224 1.463 . S
C221 C226 1.350 . S
C221 N229 1.427 . S
C222 H213 0.930 . S
C222 C220 1.378 . S
C222 C223 1.367 . S
C223 C222 1.367 . S
C223 C225 1.433 . S
C224 C220 1.350 . S
C224 C221 1.463 . S
C224 N228 1.427 . S
C225 H215 0.929 . S
C225 C223 1.433 . S
C225 N228 1.384 . S
C226 H217 0.929 . S
C226 C218 1.378 . S
C226 C221 1.350 . S
C227 H214 0.929 . S
C227 C219 1.433 . S
C227 N229 1.384 . S
N228 C224 1.427 . S
N228 C225 1.384 . S
N229 C221 1.427 . S
N229 C227 1.384 . S
H230 C236 0.930 . S
H231 C240 0.930 . S
H232 C245 0.929 . S
H233 C243 0.929 . S
H234 C238 0.929 . S
H235 C244 0.929 . S
C236 H230 0.930 . S
C236 C237 1.367 . S
C236 C244 1.378 . S
C237 C236 1.367 . S
C237 C245 1.433 . S
C238 H234 0.929 . S
C238 C240 1.378 . S
C238 C242 1.350 . S
C239 C242 1.463 . S
C239 C244 1.350 . S
C239 N247 1.427 . S
C240 H231 0.930 . S
C240 C238 1.378 . S
C240 C241 1.367 . S
C241 C240 1.367 . S
C241 C243 1.433 . S
C242 C238 1.350 . S
C242 C239 1.463 . S
C242 N246 1.427 . S
C243 H233 0.929 . S
C243 C241 1.433 . S
C243 N246 1.384 . S
C244 H235 0.929 . S
C244 C236 1.378 . S
C244 C239 1.350 . S
C245 H232 0.929 . S
C245 C237 1.433 . S
C245 N247 1.384 . S
N246 C242 1.427 . S
N246 C243 1.384 . S
N247 C239 1.427 . S
N247 C245 1.384 . S
H248 C254 0.930 . S
H249 C258 0.930 . S
H250 C263 0.929 . S
H251 C261 0.929 . S
H252 C256 0.929 . S
H253 C262 0.929 . S
C254 H248 0.930 . S
C254 C255 1.367 . S
C254 C262 1.378 . S
C255 C254 1.367 . S
C255 C263 1.433 . S
C256 H252 0.929 . S
C256 C258 1.378 . S
C256 C260 1.350 . S
C257 C260 1.463 . S
C257 C262 1.350 . S
C257 N265 1.427 . S
C258 H249 0.930 . S
C258 C256 1.378 . S
C258 C259 1.367 . S
C259 C258 1.367 . S
C259 C261 1.433 . S
C260 C256 1.350 . S
C260 C257 1.463 . S
C260 N264 1.427 . S
C261 H251 0.929 . S
C261 C259 1.433 . S
C261 N264 1.384 . S
C262 H253 0.929 . S
C262 C254 1.378 . S
C262 C257 1.350 . S
C263 H250 0.929 . S
C263 C255 1.433 . S
C263 N265 1.384 . S
N264 C260 1.427 . S
N264 C261 1.384 . S
N265 C257 1.427 . S
N265 C263 1.384 . S
H266 C272 0.930 . S
H267 C276 0.930 . S
H268 C281 0.929 . S
H269 C279 0.929 . S
H270 C274 0.929 . S
H271 C280 0.929 . S
C272 H266 0.930 . S
C272 C273 1.367 . S
C272 C280 1.378 . S
C273 C272 1.367 . S
C273 C281 1.433 . S
C274 H270 0.929 . S
C274 C276 1.378 . S
C274 C278 1.350 . S
C275 C278 1.463 . S
C275 C280 1.350 . S
C275 N283 1.427 . S
C276 H267 0.930 . S
C276 C274 1.378 . S
C276 C277 1.367 . S
C277 C276 1.367 . S
C277 C279 1.433 . S
C278 C274 1.350 . S
C278 C275 1.463 . S
C278 N282 1.427 . S
C279 H269 0.929 . S
C279 C277 1.433 . S
C279 N282 1.384 . S
C280 H271 0.929 . S
C280 C272 1.378 . S
C280 C275 1.350 . S
C281 H268 0.929 . S
C281 C273 1.433 . S
C281 N283 1.384 . S
N282 C278 1.427 . S
N282 C279 1.384 . S
N283 C275 1.427 . S
N283 C281 1.384 . S
H284 C290 0.930 . S
H285 C294 0.930 . S
H286 C299 0.929 . S
H287 C297 0.929 . S
H288 C292 0.929 . S
H289 C298 0.929 . S
C290 H284 0.930 . S
C290 C291 1.367 . S
C290 C298 1.378 . S
C291 C290 1.367 . S
C291 C299 1.433 . S
C292 H288 0.929 . S
C292 C294 1.378 . S
C292 C296 1.350 . S
C293 C296 1.463 . S
C293 C298 1.350 . S
C293 N301 1.427 . S
C294 H285 0.930 . S
C294 C292 1.378 . S
C294 C295 1.367 . S
C295 C294 1.367 . S
C295 C297 1.433 . S
C296 C292 1.350 . S
C296 C293 1.463 . S
C296 N300 1.427 . S
C297 H287 0.929 . S
C297 C295 1.433 . S
C297 N300 1.384 . S
C298 H289 0.929 . S
C298 C290 1.378 . S
C298 C293 1.350 . S
C299 H286 0.929 . S
C299 C291 1.433 . S
C299 N301 1.384 . S
N300 C296 1.427 . S
N300 C297 1.384 . S
N301 C293 1.427 . S
N301 C299 1.384 . S
H302 C308 0.930 . S
H303 C312 0.930 . S
H304 C317 0.929 . S
H305 C315 0.929 . S
H306 C310 0.929 . S
H307 C316 0.929 . S
C308 H302 0.930 . S
C308 C309 1.367 . S
C308 C316 1.378 . S
C309 C308 1.367 . S
C309 C317 1.433 . S
C310 H306 0.929 . S
C310 C312 1.378 . S
C310 C314 1.350 . S
C311 C314 1.463 . S
C311 C316 1.350 . S
C311 N319 1.427 . S
C312 H303 0.930 . S
C312 C310 1.378 . S
C312 C313 1.367 . S
C313 C312 1.367 . S
C313 C315 1.433 . S
C314 C310 1.350 . S
C314 C311 1.463 . S
C314 N318 1.427 . S
C315 H305 0.929 . S
C315 C313 1.433 . S
C315 N318 1.384 . S
C316 H307 0.929 . S
C316 C308 1.378 . S
C316 C311 1.350 . S
C317 H304 0.929 . S
C317 C309 1.433 . S
C317 N319 1.384 . S
N318 C314 1.427 . S
N318 C315 1.384 . S
N319 C311 1.427 . S
N319 C317 1.384 . S
H320 C326 0.930 . S
H321 C330 0.930 . S
H322 C335 0.929 . S
H323 C333 0.929 . S
H324 C328 0.929 . S
H325 C334 0.929 . S
C326 H320 0.930 . S
C326 C327 1.367 1_556 S
C326 C334 1.378 . S
C327 C326 1.367 1_554 S
C327 C335 1.433 . S
C328 H324 0.929 . S
C328 C330 1.378 . S
C328 C332 1.350 1_554 S
C329 C332 1.463 1_554 S
C329 C334 1.350 1_554 S
C329 N337 1.427 . S
C330 H321 0.930 . S
C330 C328 1.378 . S
C330 C331 1.367 1_554 S
C331 C330 1.367 1_556 S
C331 C333 1.433 . S
C332 C328 1.350 1_556 S
C332 C329 1.463 1_556 S
C332 N336 1.427 . S
C333 H323 0.929 . S
C333 C331 1.433 . S
C333 N336 1.384 . S
C334 H325 0.929 . S
C334 C326 1.378 . S
C334 C329 1.350 1_556 S
C335 H322 0.929 . S
C335 C327 1.433 . S
C335 N337 1.384 . S
N336 C332 1.427 . S
N336 C333 1.384 . S
N337 C329 1.427 . S
N337 C335 1.384 . S
H338 C344 0.930 . S
H339 C348 0.930 . S
H340 C353 0.929 . S
H341 C351 0.929 . S
H342 C346 0.929 . S
H343 C352 0.929 . S
C344 H338 0.930 . S
C344 C345 1.367 . S
C344 C352 1.378 . S
C345 C344 1.367 . S
C345 C353 1.433 . S
C346 H342 0.929 . S
C346 C348 1.378 . S
C346 C350 1.350 . S
C347 C350 1.463 . S
C347 C352 1.350 . S
C347 N355 1.427 . S
C348 H339 0.930 . S
C348 C346 1.378 . S
C348 C349 1.367 . S
C349 C348 1.367 . S
C349 C351 1.433 . S
C350 C346 1.350 . S
C350 C347 1.463 . S
C350 N354 1.427 . S
C351 H341 0.929 . S
C351 C349 1.433 . S
C351 N354 1.384 . S
C352 H343 0.929 . S
C352 C344 1.378 . S
C352 C347 1.350 . S
C353 H340 0.929 . S
C353 C345 1.433 . S
C353 N355 1.384 . S
N354 C350 1.427 . S
N354 C351 1.384 . S
N355 C347 1.427 . S
N355 C353 1.384 . S
H356 C362 0.930 . S
H357 C366 0.930 . S
H358 C371 0.929 . S
H359 C369 0.929 . S
H360 C364 0.929 . S
H361 C370 0.929 . S
C362 H356 0.930 . S
C362 C363 1.367 . S
C362 C370 1.378 . S
C363 C362 1.367 . S
C363 C371 1.433 . S
C364 H360 0.929 . S
C364 C366 1.378 . S
C364 C368 1.350 . S
C365 C368 1.463 1_556 S
C365 C370 1.350 . S
C365 N373 1.427 . S
C366 H357 0.930 . S
C366 C364 1.378 . S
C366 C367 1.367 . S
C367 C366 1.367 . S
C367 C369 1.433 . S
C368 C364 1.350 . S
C368 C365 1.463 1_554 S
C368 N372 1.427 . S
C369 H359 0.929 . S
C369 C367 1.433 . S
C369 N372 1.384 . S
C370 H361 0.929 . S
C370 C362 1.378 . S
C370 C365 1.350 . S
C371 H358 0.929 . S
C371 C363 1.433 . S
C371 N373 1.384 . S
N372 C368 1.427 . S
N372 C369 1.384 . S
N373 C365 1.427 . S
N373 C371 1.384 . S
H374 C380 0.930 . S
H375 C384 0.930 . S
H376 C389 0.929 . S
H377 C387 0.929 . S
H378 C382 0.929 . S
H379 C388 0.929 . S
C380 H374 0.930 . S
C380 C381 1.367 . S
C380 C388 1.378 . S
C381 C380 1.367 . S
C381 C389 1.433 . S
C382 H378 0.929 . S
C382 C384 1.378 . S
C382 C386 1.350 . S
C383 C386 1.463 . S
C383 C388 1.350 . S
C383 N391 1.427 . S
C384 H375 0.930 . S
C384 C382 1.378 . S
C384 C385 1.367 . S
C385 C384 1.367 . S
C385 C387 1.433 . S
C386 C382 1.350 . S
C386 C383 1.463 . S
C386 N390 1.427 . S
C387 H377 0.929 . S
C387 C385 1.433 . S
C387 N390 1.384 . S
C388 H379 0.929 . S
C388 C380 1.378 . S
C388 C383 1.350 . S
C389 H376 0.929 . S
C389 C381 1.433 . S
C389 N391 1.384 . S
N390 C386 1.427 . S
N390 C387 1.384 . S
N391 C383 1.427 . S
N391 C389 1.384 . S
H392 C398 0.930 . S
H393 C402 0.930 . S
H394 C407 0.929 . S
H395 C405 0.929 . S
H396 C400 0.929 1_554 S
H397 C406 0.929 1_556 S
C398 H392 0.930 . S
C398 C399 1.367 . S
C398 C406 1.378 . S
C399 C398 1.367 . S
C399 C407 1.433 . S
C400 H396 0.929 1_556 S
C400 C402 1.378 . S
C400 C404 1.350 . S
C401 C404 1.463 1_554 S
C401 C406 1.350 . S
C401 N409 1.427 . S
C402 H393 0.930 . S
C402 C400 1.378 . S
C402 C403 1.367 . S
C403 C402 1.367 . S
C403 C405 1.433 . S
C404 C400 1.350 . S
C404 C401 1.463 1_556 S
C404 N408 1.427 . S
C405 H395 0.929 . S
C405 C403 1.433 . S
C405 N408 1.384 . S
C406 H397 0.929 1_554 S
C406 C398 1.378 . S
C406 C401 1.350 . S
C407 H394 0.929 . S
C407 C399 1.433 . S
C407 N409 1.384 . S
N408 C404 1.427 . S
N408 C405 1.384 . S
N409 C401 1.427 . S
N409 C407 1.384 . S
H410 C416 0.930 . S
H411 C420 0.930 . S
H412 C425 0.929 . S
H413 C423 0.929 . S
H414 C418 0.929 . S
H415 C424 0.929 . S
C416 H410 0.930 . S
C416 C417 1.367 . S
C416 C424 1.378 . S
C417 C416 1.367 . S
C417 C425 1.433 . S
C418 H414 0.929 . S
C418 C420 1.378 . S
C418 C422 1.350 . S
C419 C422 1.463 . S
C419 C424 1.350 . S
C419 N427 1.427 . S
C420 H411 0.930 . S
C420 C418 1.378 . S
C420 C421 1.367 . S
C421 C420 1.367 . S
C421 C423 1.433 . S
C422 C418 1.350 . S
C422 C419 1.463 . S
C422 N426 1.427 . S
C423 H413 0.929 . S
C423 C421 1.433 . S
C423 N426 1.384 . S
C424 H415 0.929 . S
C424 C416 1.378 . S
C424 C419 1.350 . S
C425 H412 0.929 . S
C425 C417 1.433 . S
C425 N427 1.384 . S
N426 C422 1.427 . S
N426 C423 1.384 . S
N427 C419 1.427 . S
N427 C425 1.384 . S
H428 C434 0.930 . S
H429 C438 0.930 . S
H430 C443 0.929 . S
H431 C441 0.929 . S
H432 C436 0.929 . S
H433 C442 0.929 . S
C434 H428 0.930 . S
C434 C435 1.367 . S
C434 C442 1.378 . S
C435 C434 1.367 . S
C435 C443 1.433 1_554 S
C436 H432 0.929 . S
C436 C438 1.378 . S
C436 C440 1.350 . S
C437 C440 1.463 1_554 S
C437 C442 1.350 . S
C437 N445 1.427 1_554 S
C438 H429 0.930 . S
C438 C436 1.378 . S
C438 C439 1.367 . S
C439 C438 1.367 . S
C439 C441 1.433 1_556 S
C440 C436 1.350 . S
C440 C437 1.463 1_556 S
C440 N444 1.427 1_556 S
C441 H431 0.929 . S
C441 C439 1.433 1_554 S
C441 N444 1.384 . S
C442 H433 0.929 . S
C442 C434 1.378 . S
C442 C437 1.350 . S
C443 H430 0.929 . S
C443 C435 1.433 1_556 S
C443 N445 1.384 . S
N444 C440 1.427 1_554 S
N444 C441 1.384 . S
N445 C437 1.427 1_556 S
N445 C443 1.384 . S
H446 C452 0.930 . S
H447 C456 0.930 . S
H448 C461 0.929 . S
H449 C459 0.929 . S
H450 C454 0.929 . S
H451 C460 0.929 . S
C452 H446 0.930 . S
C452 C453 1.367 . S
C452 C460 1.378 . S
C453 C452 1.367 . S
C453 C461 1.433 . S
C454 H450 0.929 . S
C454 C456 1.378 . S
C454 C458 1.350 . S
C455 C458 1.463 . S
C455 C460 1.350 . S
C455 N463 1.427 . S
C456 H447 0.930 . S
C456 C454 1.378 . S
C456 C457 1.367 . S
C457 C456 1.367 . S
C457 C459 1.433 . S
C458 C454 1.350 . S
C458 C455 1.463 . S
C458 N462 1.427 . S
C459 H449 0.929 . S
C459 C457 1.433 . S
C459 N462 1.384 . S
C460 H451 0.929 . S
C460 C452 1.378 . S
C460 C455 1.350 . S
C461 H448 0.929 . S
C461 C453 1.433 . S
C461 N463 1.384 . S
N462 C458 1.427 . S
N462 C459 1.384 . S
N463 C455 1.427 . S
N463 C461 1.384 . S
H464 C470 0.930 . S
H465 C474 0.930 . S
H466 C479 0.929 . S
H467 C477 0.929 . S
H468 C472 0.929 . S
H469 C478 0.929 . S
C470 H464 0.930 . S
C470 C471 1.367 . S
C470 C478 1.378 . S
C471 C470 1.367 . S
C471 C479 1.433 1_556 S
C472 H468 0.929 . S
C472 C474 1.378 . S
C472 C476 1.350 . S
C473 C476 1.463 1_656 S
C473 C478 1.350 . S
C473 N481 1.427 1_556 S
C474 H465 0.930 . S
C474 C472 1.378 . S
C474 C475 1.367 . S
C475 C474 1.367 . S
C475 C477 1.433 1_554 S
C476 C472 1.350 . S
C476 C473 1.463 1_454 S
C476 N480 1.427 1_554 S
C477 H467 0.929 . S
C477 C475 1.433 1_556 S
C477 N480 1.384 . S
C478 H469 0.929 . S
C478 C470 1.378 . S
C478 C473 1.350 . S
C479 H466 0.929 . S
C479 C471 1.433 1_554 S
C479 N481 1.384 . S
N480 C476 1.427 1_556 S
N480 C477 1.384 . S
N481 C473 1.427 1_554 S
N481 C479 1.384 . S
H482 C488 0.930 . S
H483 C492 0.930 . S
H484 C497 0.929 . S
H485 C495 0.929 . S
H486 C490 0.929 1_545 S
H487 C496 0.929 1_565 S
C488 H482 0.930 . S
C488 C489 1.367 . S
C488 C496 1.378 . S
C489 C488 1.367 . S
C489 C497 1.433 . S
C490 H486 0.929 1_565 S
C490 C492 1.378 . S
C490 C494 1.350 . S
C491 C494 1.463 1_445 S
C491 C496 1.350 . S
C491 N499 1.427 . S
C492 H483 0.930 . S
C492 C490 1.378 . S
C492 C493 1.367 . S
C493 C492 1.367 . S
C493 C495 1.433 . S
C494 C490 1.350 . S
C494 C491 1.463 1_665 S
C494 N498 1.427 . S
C495 H485 0.929 . S
C495 C493 1.433 . S
C495 N498 1.384 . S
C496 H487 0.929 1_545 S
C496 C488 1.378 . S
C496 C491 1.350 . S
C497 H484 0.929 . S
C497 C489 1.433 . S
C497 N499 1.384 . S
N498 C494 1.427 . S
N498 C495 1.384 . S
N499 C491 1.427 . S
N499 C497 1.384 . S
H500 C506 0.930 . S
H501 C510 0.930 . S
H502 C515 0.929 . S
H503 C513 0.929 . S
H504 C508 0.942 . S
H505 C514 0.942 . S
C506 H500 0.930 . S
C506 C507 1.367 . S
C506 C514 1.378 . S
C507 C506 1.367 . S
C507 C515 1.433 1_554 S
C508 H504 0.942 . S
C508 C510 1.378 . S
C508 C512 1.350 . S
C509 C512 1.463 1_544 S
C509 C514 1.350 . S
C509 N517 1.427 1_554 S
C510 H501 0.930 . S
C510 C508 1.378 . S
C510 C511 1.367 . S
C511 C510 1.367 . S
C511 C513 1.433 1_556 S
C512 C508 1.350 . S
C512 C509 1.463 1_566 S
C512 N516 1.427 1_556 S
C513 H503 0.929 . S
C513 C511 1.433 1_554 S
C513 N516 1.384 . S
C514 H505 0.942 . S
C514 C506 1.378 . S
C514 C509 1.350 . S
C515 H502 0.929 . S
C515 C507 1.433 1_556 S
C515 N517 1.384 . S
N516 C512 1.427 1_554 S
N516 C513 1.384 . S
N517 C509 1.427 1_556 S
N517 C515 1.384 . S
H518 C524 0.930 . S
H519 C528 0.930 . S
H520 C533 0.929 . S
H521 C531 0.929 . S
H522 C526 0.929 . S
H523 C532 0.929 . S
C524 H518 0.930 . S
C524 C525 1.367 . S
C524 C532 1.378 . S
C525 C524 1.367 . S
C525 C533 1.433 . S
C526 H522 0.929 . S
C526 C528 1.378 . S
C526 C530 1.350 . S
C527 C530 1.463 . S
C527 C532 1.350 . S
C527 N535 1.427 . S
C528 H519 0.930 . S
C528 C526 1.378 . S
C528 C529 1.367 . S
C529 C528 1.367 . S
C529 C531 1.433 . S
C530 C526 1.350 . S
C530 C527 1.463 . S
C530 N534 1.427 . S
C531 H521 0.929 . S
C531 C529 1.433 . S
C531 N534 1.384 . S
C532 H523 0.929 . S
C532 C524 1.378 . S
C532 C527 1.350 . S
C533 H520 0.929 . S
C533 C525 1.433 . S
C533 N535 1.384 . S
N534 C530 1.427 . S
N534 C531 1.384 . S
N535 C527 1.427 . S
N535 C533 1.384 . S
H536 C542 0.930 . S
H537 C546 0.930 . S
H538 C551 0.929 . S
H539 C549 0.929 . S
H540 C544 0.929 . S
H541 C550 0.929 . S
C542 H536 0.930 . S
C542 C543 1.367 1_554 S
C542 C550 1.378 1_455 S
C543 C542 1.367 1_556 S
C543 C551 1.433 . S
C544 H540 0.929 . S
C544 C546 1.378 1_455 S
C544 C548 1.350 1_456 S
C545 C548 1.463 1_446 S
C545 C550 1.350 1_456 S
C545 N553 1.427 . S
C546 H537 0.930 . S
C546 C544 1.378 1_655 S
C546 C547 1.367 1_556 S
C547 C546 1.367 1_554 S
C547 C549 1.433 . S
C548 C544 1.350 1_654 S
C548 C545 1.463 1_664 S
C548 N552 1.427 . S
C549 H539 0.929 . S
C549 C547 1.433 . S
C549 N552 1.384 . S
C550 H541 0.929 . S
C550 C542 1.378 1_655 S
C550 C545 1.350 1_654 S
C551 H538 0.929 . S
C551 C543 1.433 . S
C551 N553 1.384 . S
N552 C548 1.427 . S
N552 C549 1.384 . S
N553 C545 1.427 . S
N553 C551 1.384 . S
H554 C560 0.930 . S
H555 C564 0.930 . S
H556 C569 0.929 . S
H557 C567 0.929 . S
H558 C562 0.929 . S
H559 C568 0.929 . S
C560 H554 0.930 . S
C560 C561 1.367 . S
C560 C568 1.378 . S
C561 C560 1.367 . S
C561 C569 1.433 . S
C562 H558 0.929 . S
C562 C564 1.378 . S
C562 C566 1.350 . S
C563 C566 1.463 1_545 S
C563 C568 1.350 . S
C563 N571 1.427 . S
C564 H555 0.930 . S
C564 C562 1.378 . S
C564 C565 1.367 . S
C565 C564 1.367 . S
C565 C567 1.433 . S
C566 C562 1.350 . S
C566 C563 1.463 1_565 S
C566 N570 1.427 . S
C567 H557 0.929 . S
C567 C565 1.433 . S
C567 N570 1.384 . S
C568 H559 0.929 . S
C568 C560 1.378 . S
C568 C563 1.350 . S
C569 H556 0.929 . S
C569 C561 1.433 . S
C569 N571 1.384 . S
N570 C566 1.427 . S
N570 C567 1.384 . S
N571 C563 1.427 . S
N571 C569 1.384 . S
H572 C578 0.930 . S
H573 C582 0.930 . S
H574 C587 0.929 . S
H575 C585 0.929 . S
H576 C580 0.929 . S
H577 C586 0.929 . S
C578 H572 0.930 . S
C578 C579 1.367 1_556 S
C578 C586 1.378 . S
C579 C578 1.367 1_554 S
C579 C587 1.433 . S
C580 H576 0.929 . S
C580 C582 1.378 . S
C580 C584 1.350 1_554 S
C581 C584 1.463 1_554 S
C581 C586 1.350 1_554 S
C581 N589 1.427 . S
C582 H573 0.930 . S
C582 C580 1.378 . S
C582 C583 1.367 1_554 S
C583 C582 1.367 1_556 S
C583 C585 1.433 . S
C584 C580 1.350 1_556 S
C584 C581 1.463 1_556 S
C584 N588 1.427 . S
C585 H575 0.929 . S
C585 C583 1.433 . S
C585 N588 1.384 . S
C586 H577 0.929 . S
C586 C578 1.378 . S
C586 C581 1.350 1_556 S
C587 H574 0.929 . S
C587 C579 1.433 . S
C587 N589 1.384 . S
N588 C584 1.427 . S
N588 C585 1.384 . S
N589 C581 1.427 . S
N589 C587 1.384 . S
H590 C596 0.930 . S
H591 C600 0.930 . S
H592 C605 0.929 . S
H593 C603 0.929 . S
H594 C598 0.929 . S
H595 C604 0.929 . S
C596 H590 0.930 . S
C596 C597 1.367 . S
C596 C604 1.378 . S
C597 C596 1.367 . S
C597 C605 1.433 . S
C598 H594 0.929 . S
C598 C600 1.378 . S
C598 C602 1.350 . S
C599 C602 1.463 1_655 S
C599 C604 1.350 . S
C599 N607 1.427 . S
C600 H591 0.930 . S
C600 C598 1.378 . S
C600 C601 1.367 . S
C601 C600 1.367 . S
C601 C603 1.433 . S
C602 C598 1.350 . S
C602 C599 1.463 1_455 S
C602 N606 1.427 . S
C603 H593 0.929 . S
C603 C601 1.433 . S
C603 N606 1.384 . S
C604 H595 0.929 . S
C604 C596 1.378 . S
C604 C599 1.350 . S
C605 H592 0.929 . S
C605 C597 1.433 . S
C605 N607 1.384 . S
N606 C602 1.427 . S
N606 C603 1.384 . S
N607 C599 1.427 . S
N607 C605 1.384 . S
C183 C7 1.458 . S
C187 C84 1.460 . S
C201 C18 1.467 . S
C205 C51 1.467 . S
C219 C62 1.459 . S
C223 C29 1.461 . S
C237 C73 1.461 . S
C241 C40 1.459 . S
C255 C95 1.488 . S
C259 C172 1.490 . S
C273 C139 1.484 . S
C277 C106 1.495 . S
C291 C150 1.493 . S
C295 C117 1.486 . S
C309 C128 1.495 . S
C313 C161 1.484 . S
C327 C8 1.510 . S
C331 C52 1.506 . S
C345 C63 1.508 . S
C349 C19 1.502 . S
C363 C74 1.509 . S
C367 C30 1.503 . S
C381 C41 1.510 . S
C385 C85 1.507 . S
C399 C140 1.520 . S
C403 C96 1.516 . S
C417 C151 1.520 . S
C421 C107 1.516 . S
C435 C162 1.516 . S
C439 C118 1.519 . S
C453 C129 1.516 . S
C457 C173 1.520 . S
C471 C93 1.363 . S
C475 C5 1.269 . S
C489 C16 1.278 . S
C493 C104 1.373 . S
C507 C27 1.267 . S
C511 C115 1.365 . S
C525 C126 1.357 . S
C529 C38 1.287 . S
C543 C49 1.273 . S
C547 C137 1.377 . S
C561 C60 1.285 . S
C565 C148 1.367 . S
C579 C159 1.362 . S
C583 C71 1.288 . S
C597 C170 1.360 . S
C601 C82 1.289 . S
