# Generated by pormake.
# Topology zfv, (5)-cn, num edge types: 1
# Building blocks:
#     Node 0, Type 0, BuildingBlock: BEQFEK_clean_sbu_0, # of connection points: 5
#     Node 1, Type 0, BuildingBlock: BEQFEK_clean_sbu_0, # of connection points: 5
#     Node 2, Type 0, BuildingBlock: BEQFEK_clean_sbu_0, # of connection points: 5
#     Node 3, Type 0, BuildingBlock: BEQFEK_clean_sbu_0, # of connection points: 5
#     Node 4, Type 0, BuildingBlock: BEQFEK_clean_sbu_0, # of connection points: 5
#     Node 5, Type 0, BuildingBlock: BEQFEK_clean_sbu_0, # of connection points: 5
#     Node 6, Type 0, BuildingBlock: BEQFEK_clean_sbu_0, # of connection points: 5
#     Node 7, Type 0, BuildingBlock: BEQFEK_clean_sbu_0, # of connection points: 5
#     Node 8, Type 0, BuildingBlock: BEQFEK_clean_sbu_0, # of connection points: 5
#     Node 9, Type 0, BuildingBlock: BEQFEK_clean_sbu_0, # of connection points: 5
#     Node 10, Type 0, BuildingBlock: BEQFEK_clean_sbu_0, # of connection points: 5
#     Node 11, Type 0, BuildingBlock: BEQFEK_clean_sbu_0, # of connection points: 5
#     Node 12, Type 0, BuildingBlock: BEQFEK_clean_sbu_0, # of connection points: 5
#     Node 13, Type 0, BuildingBlock: BEQFEK_clean_sbu_0, # of connection points: 5
#     Node 14, Type 0, BuildingBlock: BEQFEK_clean_sbu_0, # of connection points: 5
#     Node 15, Type 0, BuildingBlock: BEQFEK_clean_sbu_0, # of connection points: 5
#     Edge 16, Type (0, 0), BuildingBlock: ZUJKAS_clean_linker_0, # of connection points: 2
#     Edge 17, Type (0, 0), BuildingBlock: ZUJKAS_clean_linker_0, # of connection points: 2
#     Edge 18, Type (0, 0), BuildingBlock: ZUJKAS_clean_linker_0, # of connection points: 2
#     Edge 19, Type (0, 0), BuildingBlock: ZUJKAS_clean_linker_0, # of connection points: 2
#     Edge 20, Type (0, 0), BuildingBlock: ZUJKAS_clean_linker_0, # of connection points: 2
#     Edge 21, Type (0, 0), BuildingBlock: ZUJKAS_clean_linker_0, # of connection points: 2
#     Edge 22, Type (0, 0), BuildingBlock: ZUJKAS_clean_linker_0, # of connection points: 2
#     Edge 23, Type (0, 0), BuildingBlock: ZUJKAS_clean_linker_0, # of connection points: 2
#     Edge 24, Type (0, 0), BuildingBlock: ZUJKAS_clean_linker_0, # of connection points: 2
#     Edge 25, Type (0, 0), BuildingBlock: ZUJKAS_clean_linker_0, # of connection points: 2
#     Edge 26, Type (0, 0), BuildingBlock: ZUJKAS_clean_linker_0, # of connection points: 2
#     Edge 27, Type (0, 0), BuildingBlock: ZUJKAS_clean_linker_0, # of connection points: 2
#     Edge 28, Type (0, 0), BuildingBlock: ZUJKAS_clean_linker_0, # of connection points: 2
#     Edge 29, Type (0, 0), BuildingBlock: ZUJKAS_clean_linker_0, # of connection points: 2
#     Edge 30, Type (0, 0), BuildingBlock: ZUJKAS_clean_linker_0, # of connection points: 2
#     Edge 31, Type (0, 0), BuildingBlock: ZUJKAS_clean_linker_0, # of connection points: 2
#     Edge 32, Type (0, 0), BuildingBlock: ZUJKAS_clean_linker_0, # of connection points: 2
#     Edge 33, Type (0, 0), BuildingBlock: ZUJKAS_clean_linker_0, # of connection points: 2
#     Edge 34, Type (0, 0), BuildingBlock: ZUJKAS_clean_linker_0, # of connection points: 2
#     Edge 35, Type (0, 0), BuildingBlock: ZUJKAS_clean_linker_0, # of connection points: 2
#     Edge 36, Type (0, 0), BuildingBlock: ZUJKAS_clean_linker_0, # of connection points: 2
#     Edge 37, Type (0, 0), BuildingBlock: ZUJKAS_clean_linker_0, # of connection points: 2
#     Edge 38, Type (0, 0), BuildingBlock: ZUJKAS_clean_linker_0, # of connection points: 2
#     Edge 39, Type (0, 0), BuildingBlock: ZUJKAS_clean_linker_0, # of connection points: 2
#     Edge 40, Type (0, 0), BuildingBlock: ZUJKAS_clean_linker_0, # of connection points: 2
#     Edge 41, Type (0, 0), BuildingBlock: ZUJKAS_clean_linker_0, # of connection points: 2
#     Edge 42, Type (0, 0), BuildingBlock: ZUJKAS_clean_linker_0, # of connection points: 2
#     Edge 43, Type (0, 0), BuildingBlock: ZUJKAS_clean_linker_0, # of connection points: 2
#     Edge 44, Type (0, 0), BuildingBlock: ZUJKAS_clean_linker_0, # of connection points: 2
#     Edge 45, Type (0, 0), BuildingBlock: ZUJKAS_clean_linker_0, # of connection points: 2
#     Edge 46, Type (0, 0), BuildingBlock: ZUJKAS_clean_linker_0, # of connection points: 2
#     Edge 47, Type (0, 0), BuildingBlock: ZUJKAS_clean_linker_0, # of connection points: 2
#     Edge 48, Type (0, 0), BuildingBlock: ZUJKAS_clean_linker_0, # of connection points: 2
#     Edge 49, Type (0, 0), BuildingBlock: ZUJKAS_clean_linker_0, # of connection points: 2
#     Edge 50, Type (0, 0), BuildingBlock: ZUJKAS_clean_linker_0, # of connection points: 2
#     Edge 51, Type (0, 0), BuildingBlock: ZUJKAS_clean_linker_0, # of connection points: 2
#     Edge 52, Type (0, 0), BuildingBlock: ZUJKAS_clean_linker_0, # of connection points: 2
#     Edge 53, Type (0, 0), BuildingBlock: ZUJKAS_clean_linker_0, # of connection points: 2
#     Edge 54, Type (0, 0), BuildingBlock: ZUJKAS_clean_linker_0, # of connection points: 2
#     Edge 55, Type (0, 0), BuildingBlock: ZUJKAS_clean_linker_0, # of connection points: 2
# Relax obj value: 0.066
# Max RMSD: 0.132
# Mean RMSD: 0.132
data_MOF--net-zfv--node1-BEQFEK_clean_sbu_0--edge1-ZUJKAS_clean_linker_0
_symmetry_space_group_name_H-M    P1
_symmetry_Int_Tables_number       1
_symmetry_cell_setting            triclinic
loop_
_symmetry_equiv_pos_as_xyz
'x, y, z'
_cell_length_a     97.149239
_cell_length_b     97.132092
_cell_length_c     23.775398
_cell_angle_alpha  89.998003
_cell_angle_beta   89.982393
_cell_angle_gamma 90.004893
loop_
_atom_site_label
_atom_site_type_symbol
_atom_site_fract_x
_atom_site_fract_y
_atom_site_fract_z
_atom_type_partial_charge
Co0 Co 0.0138 0.6059 0.14389 0.0
Co1 Co 0.01768 0.61117 0.01562 0.0
C2 C 0.99345 0.62242 0.07593 0.0
O3 O 0.99776 0.61698 0.12124 0.0
O4 O 0.0001 0.62114 0.03002 0.0
C5 C 0.00576 0.60951 0.25461 0.0
O6 O 0.0031 0.62175 0.23373 0.0
C7 C 0.01338 0.60938 0.89383 0.0
C8 C 0.03475 0.61154 0.86293 0.0
C9 C 0.02135 0.60923 0.84537 0.0
N10 N 0.02176 0.61153 0.93786 0.0
N11 N 0.03448 0.61299 0.91909 0.0
C12 C -0.00165 0.6063 0.89935 0.0
H13 H 0.99597 0.6026 0.94244 0.0
H14 H 0.99514 0.59847 0.86796 0.0
H15 H 0.9924 0.61586 0.89172 0.0
C16 C 0.01515 0.5769 0.1064 0.0
N17 N 0.01546 0.59052 0.09616 0.0
N18 N 0.01707 0.59263 0.04187 0.0
C19 C 0.01805 0.58033 0.01585 0.0
C20 C 0.01674 0.56999 0.05577 0.0
C21 C 0.01271 0.57078 0.1633 0.0
H22 H 0.0035 0.57561 0.18253 0.0
H23 H 0.01118 0.55948 0.16115 0.0
H24 H 0.02165 0.5731 0.19077 0.0
O25 O 0.03077 0.61728 0.14288 0.0
O26 O 0.03299 0.6211 0.05151 0.0
H27 H 0.0294 0.58556 0.94154 0.0
H28 H 0.02443 0.56776 0.94516 0.0
C29 C 0.0211 0.57843 0.9546 0.0
H30 H 0.01173 0.58073 0.92979 0.0
H31 H 0.04303 0.61454 0.94483 0.0
O32 O 0.01069 0.6003 0.22248 0.0
C33 C 0.03717 0.6227 0.10172 0.0
Co34 Co 0.66132 0.74592 0.39607 0.0
Co35 Co 0.65468 0.74725 0.26637 0.0
C36 C 0.64405 0.72442 0.33828 0.0
O37 O 0.64972 0.72968 0.38145 0.0
O38 O 0.64517 0.73001 0.28998 0.0
C39 C 0.66882 0.7333 0.50088 0.0
O40 O 0.66718 0.72184 0.47232 0.0
C41 C 0.6555 0.74059 0.14408 0.0
C42 C 0.65019 0.7609 0.10824 0.0
C43 C 0.65369 0.74756 0.09346 0.0
N44 N 0.65333 0.74951 0.18657 0.0
N45 N 0.65009 0.76159 0.16468 0.0
C46 C 0.65851 0.7256 0.15213 0.0
H47 H 0.65521 0.72216 0.19446 0.0
H48 H 0.66973 0.72379 0.14832 0.0
H49 H 0.65324 0.71941 0.11933 0.0
C50 C 0.68987 0.74669 0.35196 0.0
N51 N 0.67613 0.74658 0.34438 0.0
N52 N 0.6734 0.74747 0.2902 0.0
C53 C 0.68536 0.74848 0.26173 0.0
C54 C 0.69617 0.74784 0.29976 0.0
C55 C 0.69667 0.74513 0.40805 0.0
H56 H 0.69403 0.75411 0.43482 0.0
H57 H 0.69264 0.73577 0.4291 0.0
H58 H 0.70801 0.74425 0.40432 0.0
O59 O 0.64985 0.76274 0.3901 0.0
O60 O 0.64488 0.76317 0.2991 0.0
H61 H 0.67851 0.75877 0.18694 0.0
H62 H 0.69673 0.75548 0.18877 0.0
C63 C 0.68647 0.75127 0.19995 0.0
H64 H 0.68491 0.74155 0.17648 0.0
H65 H 0.64795 0.77038 0.18832 0.0
O66 O 0.66756 0.74478 0.47561 0.0
C67 C 0.64386 0.76827 0.3482 0.0
Co68 Co 0.51857 0.39132 0.64502 0.0
Co69 Co 0.51813 0.38508 0.51468 0.0
C70 C 0.54029 0.37397 0.58826 0.0
O71 O 0.5347 0.3795 0.63104 0.0
O72 O 0.53517 0.37537 0.53923 0.0
C73 C 0.53117 0.39862 0.74977 0.0
O74 O 0.54255 0.39706 0.72062 0.0
C75 C 0.52518 0.38603 0.39254 0.0
C76 C 0.50497 0.3807 0.35578 0.0
C77 C 0.51835 0.38417 0.34163 0.0
N78 N 0.51613 0.3839 0.43465 0.0
N79 N 0.50411 0.38067 0.41218 0.0
C80 C 0.54014 0.38901 0.40116 0.0
H81 H 0.54336 0.38622 0.44442 0.0
H82 H 0.5421 0.40014 0.39497 0.0
H83 H 0.54641 0.38327 0.36995 0.0
C84 C 0.51832 0.42 0.60216 0.0
N85 N 0.51841 0.40629 0.59389 0.0
N86 N 0.51794 0.40373 0.53948 0.0
C87 C 0.51723 0.41578 0.51151 0.0
C88 C 0.51763 0.42646 0.55015 0.0
C89 C 0.51946 0.42663 0.65877 0.0
H90 H 0.52881 0.42274 0.68024 0.0
H91 H 0.52011 0.438 0.65585 0.0
H92 H 0.51044 0.42368 0.68472 0.0
O93 O 0.50163 0.38009 0.63712 0.0
O94 O 0.502 0.37537 0.54586 0.0
H95 H 0.50747 0.40924 0.43507 0.0
H96 H 0.51096 0.42742 0.43815 0.0
C97 C 0.51496 0.41708 0.44945 0.0
H98 H 0.52485 0.41545 0.42725 0.0
H99 H 0.49525 0.37854 0.4354 0.0
O100 O 0.51963 0.39738 0.72497 0.0
C101 C 0.49645 0.37425 0.5941 0.0
Co102 Co 0.87483 0.24896 0.90199 0.0
Co103 Co 0.88062 0.24815 0.77141 0.0
C104 C 0.89213 0.27043 0.84349 0.0
O105 O 0.88668 0.26502 0.88685 0.0
O106 O 0.89055 0.26515 0.79484 0.0
C107 C 0.86782 0.26176 0.00672 0.0
O108 O 0.86945 0.27311 0.97742 0.0
C109 C 0.87942 0.25508 0.64932 0.0
C110 C 0.88448 0.23481 0.61252 0.0
C111 C 0.88113 0.24822 0.59841 0.0
N112 N 0.88152 0.24603 0.69141 0.0
N113 N 0.88458 0.23397 0.66892 0.0
C114 C 0.87661 0.27009 0.65793 0.0
H115 H 0.87947 0.27329 0.7011 0.0
H116 H 0.86548 0.27214 0.65199 0.0
H117 H 0.88237 0.27629 0.62656 0.0
C118 C 0.84602 0.24856 0.86094 0.0
N119 N 0.8597 0.24871 0.85177 0.0
N120 N 0.86206 0.24816 0.79722 0.0
C121 C 0.84991 0.24739 0.77004 0.0
C122 C 0.83937 0.24778 0.80938 0.0
C123 C 0.8396 0.24965 0.91797 0.0
H124 H 0.84339 0.25911 0.93895 0.0
H125 H 0.82821 0.25006 0.91578 0.0
H126 H 0.84284 0.24072 0.94391 0.0
O127 O 0.88594 0.23194 0.89412 0.0
O128 O 0.8903 0.23198 0.80254 0.0
H129 H 0.83796 0.24126 0.69731 0.0
H130 H 0.85013 0.25494 0.68568 0.0
C131 C 0.84838 0.2451 0.70808 0.0
H132 H 0.85606 0.23747 0.69344 0.0
H133 H 0.88667 0.2251 0.69215 0.0
O134 O 0.86897 0.25019 0.98207 0.0
C135 C 0.89156 0.22657 0.851 0.0
Co136 Co 0.01764 0.38904 0.8483 0.0
Co137 Co 0.01894 0.38532 0.97944 0.0
C138 C 0.99621 0.37297 0.9139 0.0
O139 O 0.00156 0.37758 0.86879 0.0
O140 O 0.00167 0.3753 0.96169 0.0
C141 C 0.00395 0.39453 0.74407 0.0
O142 O 0.99282 0.39235 0.77414 0.0
C143 C 0.01303 0.38688 0.10157 0.0
C144 C 0.0342 0.38705 0.13551 0.0
C145 C 0.0205 0.38773 0.15149 0.0
N146 N 0.02199 0.38588 0.05857 0.0
N147 N 0.0346 0.38585 0.07927 0.0
C148 C 0.99779 0.38815 0.09377 0.0
H149 H 0.99536 0.39144 0.05019 0.0
H150 H 0.99343 0.39566 0.12408 0.0
H151 H 0.99293 0.37797 0.10114 0.0
C152 C 0.019 0.41842 0.88137 0.0
N153 N 0.01847 0.40492 0.89406 0.0
N154 N 0.01879 0.40342 0.94908 0.0
C155 C 0.0195 0.41595 0.97319 0.0
C156 C 0.01971 0.42586 0.9311 0.0
C157 C 0.0195 0.42393 0.82263 0.0
H158 H 0.02675 0.41771 0.79707 0.0
H159 H 0.00913 0.42302 0.80342 0.0
H160 H 0.02276 0.43488 0.82179 0.0
O161 O 0.03463 0.37798 0.85651 0.0
O162 O 0.03483 0.37498 0.94897 0.0
H163 H 0.0289 0.41425 0.05422 0.0
H164 H 0.01831 0.42943 0.04605 0.0
C165 C 0.01931 0.41837 0.03538 0.0
H166 H 0.01046 0.41285 0.05407 0.0
H167 H 0.0435 0.3853 0.05481 0.0
O168 O 0.01568 0.39401 0.76776 0.0
C169 C 0.04008 0.37295 0.90064 0.0
Co170 Co 0.87765 0.74946 0.09397 0.0
Co171 Co 0.88008 0.74927 0.22522 0.0
C172 C 0.89224 0.72676 0.15824 0.0
O173 O 0.88803 0.73263 0.11355 0.0
O174 O 0.88997 0.73194 0.20665 0.0
C175 C 0.86953 0.73765 0.98879 0.0
O176 O 0.86655 0.72681 0.01958 0.0
C177 C 0.87844 0.74275 0.34689 0.0
C178 C 0.87226 0.76313 0.37999 0.0
C179 C 0.87465 0.74963 0.39558 0.0
N180 N 0.87813 0.75182 0.30414 0.0
N181 N 0.87468 0.764 0.32446 0.0
C182 C 0.88106 0.72768 0.33995 0.0
H183 H 0.87555 0.72381 0.30224 0.0
H184 H 0.87779 0.7218 0.37768 0.0
H185 H 0.89224 0.72603 0.33294 0.0
C186 C 0.84788 0.75135 0.12204 0.0
N187 N 0.86127 0.7504 0.13641 0.0
N188 N 0.86229 0.74962 0.19152 0.0
C189 C 0.84954 0.74973 0.21388 0.0
C190 C 0.84002 0.75099 0.17073 0.0
C191 C 0.84279 0.75313 0.06312 0.0
H192 H 0.85015 0.75947 0.03857 0.0
H193 H 0.84195 0.74288 0.04288 0.0
H194 H 0.8325 0.75809 0.06255 0.0
O195 O 0.88918 0.76584 0.10726 0.0
O196 O 0.89121 0.76524 0.20004 0.0
H197 H 0.84798 0.75738 0.29793 0.0
H198 H 0.83568 0.74409 0.28146 0.0
C199 C 0.84644 0.74757 0.27494 0.0
H200 H 0.85345 0.73968 0.29251 0.0
H201 H 0.87344 0.77282 0.29989 0.0
O202 O 0.87396 0.7485 0.01251 0.0
C203 C 0.89391 0.77079 0.15284 0.0
Co204 Co 0.51638 0.60847 0.35246 0.0
Co205 Co 0.51717 0.6106 0.48363 0.0
C206 C 0.53925 0.62311 0.41692 0.0
O207 O 0.53301 0.61932 0.37238 0.0
O208 O 0.53456 0.62021 0.46556 0.0
C209 C 0.5283 0.60057 0.24733 0.0
O210 O 0.53906 0.59748 0.27833 0.0
C211 C 0.52355 0.60875 0.60537 0.0
C212 C 0.50321 0.60227 0.63779 0.0
C213 C 0.51665 0.60478 0.65377 0.0
N214 N 0.51455 0.60843 0.56241 0.0
N215 N 0.50238 0.60479 0.58233 0.0
C216 C 0.5386 0.61156 0.59883 0.0
H217 H 0.54257 0.60619 0.56095 0.0
H218 H 0.54447 0.60823 0.6365 0.0
H219 H 0.54014 0.62277 0.59242 0.0
C220 C 0.51485 0.57863 0.37919 0.0
N221 N 0.51579 0.59198 0.39407 0.0
N222 N 0.51666 0.59288 0.44918 0.0
C223 C 0.51665 0.58008 0.47102 0.0
C224 C 0.51534 0.57066 0.42753 0.0
C225 C 0.51287 0.57367 0.32017 0.0
H226 H 0.50651 0.58112 0.29618 0.0
H227 H 0.52306 0.57281 0.29942 0.0
H228 H 0.50785 0.56341 0.31949 0.0
O229 O 0.49968 0.61938 0.36655 0.0
O230 O 0.50149 0.62227 0.45888 0.0
H231 H 0.5092 0.57819 0.55525 0.0
H232 H 0.52257 0.56609 0.53769 0.0
C233 C 0.51898 0.57683 0.53185 0.0
H234 H 0.52682 0.58388 0.5495 0.0
H235 H 0.49361 0.6035 0.55751 0.0
O236 O 0.51743 0.605 0.27088 0.0
C237 C 0.4954 0.62454 0.41245 0.0
Co238 Co 0.65871 0.24892 0.60012 0.0
Co239 Co 0.65453 0.24721 0.73061 0.0
C240 C 0.6428 0.2704 0.66571 0.0
O241 O 0.64752 0.26517 0.62058 0.0
O242 O 0.64482 0.2647 0.71329 0.0
C243 C 0.66454 0.26237 0.4953 0.0
O244 O 0.66242 0.2737 0.52422 0.0
C245 C 0.65574 0.25265 0.85303 0.0
C246 C 0.65643 0.23133 0.88542 0.0
C247 C 0.65679 0.24498 0.90224 0.0
N248 N 0.65493 0.24387 0.80941 0.0
N249 N 0.65519 0.23116 0.82918 0.0
C250 C 0.65674 0.26794 0.84659 0.0
H251 H 0.66036 0.27065 0.80371 0.0
H252 H 0.66387 0.27234 0.87836 0.0
H253 H 0.6464 0.27254 0.85286 0.0
C254 C 0.68796 0.24708 0.63432 0.0
N255 N 0.67443 0.2477 0.64637 0.0
N256 N 0.67274 0.2472 0.70126 0.0
C257 C 0.68519 0.24629 0.72597 0.0
C258 C 0.69523 0.24612 0.68438 0.0
C259 C 0.69365 0.24676 0.57585 0.0
H260 H 0.68752 0.23958 0.54964 0.0
H261 H 0.69276 0.25719 0.55708 0.0
H262 H 0.7046 0.24353 0.57538 0.0
O263 O 0.64733 0.23214 0.60697 0.0
O264 O 0.64399 0.23157 0.69915 0.0
H265 H 0.68335 0.23659 0.80637 0.0
H266 H 0.69848 0.2473 0.79938 0.0
C267 C 0.68745 0.24629 0.78826 0.0
H268 H 0.68182 0.25503 0.80723 0.0
H269 H 0.65486 0.22236 0.80405 0.0
O270 O 0.66387 0.25079 0.52002 0.0
C271 C 0.64205 0.22657 0.65034 0.0
Co272 Co 0.37716 0.24731 0.59717 0.0
Co273 Co 0.38092 0.24906 0.72783 0.0
C274 C 0.39288 0.22586 0.66356 0.0
O275 O 0.3883 0.23106 0.61811 0.0
O276 O 0.39069 0.23158 0.71097 0.0
C277 C 0.37138 0.23391 0.4922 0.0
O278 O 0.37313 0.22256 0.52135 0.0
C279 C 0.37958 0.24349 0.85007 0.0
C280 C 0.37817 0.26475 0.88286 0.0
C281 C 0.3782 0.25107 0.89936 0.0
N282 N 0.38022 0.25235 0.80664 0.0
N283 N 0.37953 0.26501 0.82665 0.0
C284 C 0.37902 0.22818 0.84338 0.0
H285 H 0.37526 0.22543 0.80077 0.0
H286 H 0.3722 0.22352 0.87567 0.0
H287 H 0.38953 0.2239 0.84858 0.0
C288 C 0.3478 0.24922 0.62987 0.0
N289 N 0.36129 0.24855 0.64259 0.0
N290 N 0.3628 0.24902 0.69755 0.0
C291 C 0.35028 0.24991 0.72166 0.0
C292 C 0.34037 0.25015 0.67959 0.0
C293 C 0.3423 0.24965 0.57113 0.0
H294 H 0.34861 0.25675 0.54527 0.0
H295 H 0.34307 0.23922 0.55233 0.0
H296 H 0.3314 0.25306 0.57015 0.0
O297 O 0.38848 0.26408 0.60466 0.0
O298 O 0.39157 0.26472 0.69697 0.0
H299 H 0.35155 0.25963 0.80219 0.0
H300 H 0.3368 0.24845 0.79433 0.0
C301 C 0.34783 0.24981 0.78383 0.0
H302 H 0.35367 0.24124 0.80308 0.0
H303 H 0.37965 0.27385 0.80169 0.0
O304 O 0.37226 0.24549 0.51684 0.0
C305 C 0.39364 0.26969 0.64818 0.0
Co306 Co 0.15901 0.7464 0.10586 0.0
Co307 Co 0.15459 0.74601 0.23718 0.0
C308 C 0.14303 0.76852 0.16677 0.0
O309 O 0.1479 0.76293 0.12263 0.0
O310 O 0.14485 0.76319 0.21517 0.0
C311 C 0.16604 0.75912 0.00134 0.0
O312 O 0.16527 0.77041 0.0316 0.0
C313 C 0.15654 0.75296 0.35909 0.0
C314 C 0.15199 0.73259 0.39619 0.0
C315 C 0.15512 0.74607 0.41004 0.0
N316 N 0.15444 0.74387 0.31714 0.0
N317 N 0.15172 0.73174 0.3398 0.0
C318 C 0.15905 0.76801 0.35044 0.0
H319 H 0.15636 0.77113 0.307 0.0
H320 H 0.17009 0.77032 0.35743 0.0
H321 H 0.15299 0.7741 0.38122 0.0
C322 C 0.18822 0.74542 0.14186 0.0
N323 N 0.17464 0.74575 0.15334 0.0
N324 N 0.17285 0.74557 0.20827 0.0
C325 C 0.18526 0.745 0.23344 0.0
C326 C 0.19538 0.745 0.19229 0.0
C327 C 0.19408 0.74626 0.08375 0.0
H328 H 0.19113 0.75625 0.06472 0.0
H329 H 0.20546 0.74544 0.08367 0.0
H330 H 0.18962 0.73795 0.05741 0.0
O331 O 0.14743 0.72973 0.11585 0.0
O332 O 0.14418 0.73011 0.20815 0.0
H333 H 0.19811 0.74048 0.30562 0.0
H334 H 0.18533 0.75369 0.31587 0.0
C335 C 0.18742 0.74365 0.29552 0.0
H336 H 0.18024 0.73589 0.31295 0.0
H337 H 0.14968 0.72284 0.31669 0.0
O338 O 0.16425 0.74753 0.02517 0.0
C339 C 0.14217 0.72463 0.16028 0.0
Co340 Co 0.16089 0.24722 0.89819 0.0
Co341 Co 0.15507 0.2484 0.76772 0.0
C342 C 0.14371 0.22583 0.83883 0.0
O343 O 0.14914 0.23113 0.88246 0.0
O344 O 0.14525 0.23128 0.79047 0.0
C345 C 0.1678 0.23437 0.00303 0.0
O346 O 0.16601 0.22301 0.97395 0.0
C347 C 0.15632 0.24166 0.64555 0.0
C348 C 0.15126 0.26197 0.60913 0.0
C349 C 0.15462 0.24858 0.59476 0.0
N350 N 0.15419 0.25066 0.6878 0.0
N351 N 0.15113 0.26275 0.66556 0.0
C352 C 0.15913 0.22665 0.65388 0.0
H353 H 0.15616 0.22336 0.69682 0.0
H354 H 0.17028 0.22462 0.64841 0.0
H355 H 0.15348 0.22047 0.62211 0.0
C356 C 0.18967 0.24785 0.85716 0.0
N357 N 0.176 0.2477 0.84799 0.0
N358 N 0.17364 0.24842 0.79349 0.0
C359 C 0.18579 0.24929 0.76633 0.0
C360 C 0.19632 0.2488 0.80566 0.0
C361 C 0.19609 0.24656 0.91412 0.0
H362 H 0.19291 0.25544 0.94046 0.0
H363 H 0.19224 0.23707 0.93471 0.0
H364 H 0.20748 0.24609 0.91187 0.0
O365 O 0.1497 0.26417 0.89095 0.0
O366 O 0.14521 0.26442 0.79949 0.0
H367 H 0.17964 0.25935 0.69006 0.0
H368 H 0.19776 0.25557 0.69385 0.0
C369 C 0.18733 0.25171 0.70446 0.0
H370 H 0.18559 0.24191 0.68174 0.0
H371 H 0.14901 0.27158 0.68897 0.0
O372 O 0.16676 0.24593 0.9782 0.0
C373 C 0.14398 0.26965 0.8483 0.0
Co374 Co 0.37485 0.75161 0.4087 0.0
Co375 Co 0.38053 0.74977 0.27901 0.0
C376 C 0.39063 0.77356 0.34453 0.0
O377 O 0.38574 0.76826 0.38932 0.0
O378 O 0.38918 0.76769 0.29695 0.0
C379 C 0.36821 0.76473 0.51381 0.0
O380 O 0.37055 0.77618 0.48606 0.0
C381 C 0.37969 0.75477 0.15619 0.0
C382 C 0.3815 0.73343 0.12475 0.0
C383 C 0.37974 0.74692 0.10718 0.0
N384 N 0.38117 0.74622 0.2003 0.0
N385 N 0.38243 0.73352 0.1811 0.0
C386 C 0.37704 0.76988 0.16196 0.0
H387 H 0.37336 0.77233 0.20499 0.0
H388 H 0.36933 0.77334 0.13056 0.0
H389 H 0.38678 0.77557 0.15455 0.0
C390 C 0.34613 0.74867 0.36974 0.0
N391 N 0.35973 0.74968 0.35988 0.0
N392 N 0.36201 0.74886 0.3054 0.0
C393 C 0.34986 0.74725 0.27879 0.0
C394 C 0.33941 0.74707 0.31869 0.0
C395 C 0.33986 0.74866 0.42724 0.0
H396 H 0.34572 0.74159 0.45498 0.0
H397 H 0.3406 0.75917 0.44531 0.0
H398 H 0.32891 0.74543 0.42623 0.0
O399 O 0.3867 0.73509 0.40441 0.0
O400 O 0.39183 0.73507 0.3134 0.0
H401 H 0.35375 0.7375 0.1997 0.0
H402 H 0.33731 0.74617 0.20316 0.0
C403 C 0.34824 0.74664 0.21622 0.0
H404 H 0.35287 0.75596 0.19732 0.0
H405 H 0.38353 0.72486 0.20665 0.0
O406 O 0.36895 0.75327 0.48812 0.0
C407 C 0.39311 0.73007 0.36254 0.0
Co408 Co 0.51703 0.10492 0.65078 0.0
Co409 Co 0.51733 0.11062 0.52036 0.0
C410 C 0.49488 0.12149 0.59289 0.0
O411 O 0.50058 0.11627 0.63607 0.0
O412 O 0.50007 0.12002 0.54402 0.0
C413 C 0.5045 0.09729 0.75511 0.0
O414 O 0.49313 0.09822 0.7255 0.0
C415 C 0.51045 0.1094 0.39823 0.0
C416 C 0.53079 0.11439 0.36182 0.0
C417 C 0.51738 0.11107 0.34746 0.0
N418 N 0.51945 0.11152 0.44047 0.0
N419 N 0.53155 0.11454 0.41822 0.0
C420 C 0.49544 0.10659 0.40659 0.0
H421 H 0.49211 0.1098 0.44917 0.0
H422 H 0.49346 0.09541 0.40221 0.0
H423 H 0.48928 0.11205 0.3742 0.0
C424 C 0.5182 0.07608 0.61005 0.0
N425 N 0.51765 0.08974 0.60081 0.0
N426 N 0.51794 0.09208 0.54622 0.0
C427 C 0.5189 0.07994 0.51906 0.0
C428 C 0.51895 0.06942 0.55848 0.0
C429 C 0.51745 0.06965 0.66717 0.0
H430 H 0.52612 0.07347 0.69326 0.0
H431 H 0.50774 0.07286 0.68787 0.0
H432 H 0.51775 0.05826 0.66521 0.0
O433 O 0.53369 0.11655 0.64251 0.0
O434 O 0.53321 0.12084 0.55094 0.0
H435 H 0.52843 0.08613 0.44174 0.0
H436 H 0.52465 0.06803 0.44564 0.0
C437 C 0.52088 0.07845 0.4569 0.0
H438 H 0.51093 0.08024 0.43537 0.0
H439 H 0.54039 0.11661 0.44161 0.0
O440 O 0.51603 0.09909 0.73075 0.0
C441 C 0.53873 0.12232 0.59906 0.0
Co442 Co 0.0216 0.89046 0.15299 0.0
Co443 Co 0.01882 0.88528 0.02321 0.0
C444 C 0.04234 0.87371 0.08802 0.0
O445 O 0.03768 0.879 0.13318 0.0
O446 O 0.03617 0.87532 0.04115 0.0
C447 C 0.03491 0.89631 0.25858 0.0
O448 O 0.04625 0.89334 0.2311 0.0
C449 C 0.02412 0.88697 0.90102 0.0
C450 C 0.00305 0.88406 0.86793 0.0
C451 C 0.01649 0.88666 0.85149 0.0
N452 N 0.01549 0.8848 0.94438 0.0
N453 N 0.00296 0.88291 0.92421 0.0
C454 C 0.03903 0.89038 0.90804 0.0
H455 H 0.04109 0.89402 0.9515 0.0
H456 H 0.04222 0.89836 0.87726 0.0
H457 H 0.04525 0.88097 0.90056 0.0
C458 C 0.02064 0.91946 0.11466 0.0
N459 N 0.02048 0.90583 0.10442 0.0
N460 N 0.01923 0.90374 0.04993 0.0
C461 C 0.01836 0.91603 0.02382 0.0
C462 C 0.01935 0.92637 0.06386 0.0
C463 C 0.02265 0.9256 0.17179 0.0
H464 H 0.01388 0.92265 0.19918 0.0
H465 H 0.03216 0.92132 0.19079 0.0
H466 H 0.02352 0.93697 0.17015 0.0
O467 O 0.00465 0.8791 0.14876 0.0
O468 O 0.00321 0.87536 0.05703 0.0
H469 H 0.00756 0.91062 0.94837 0.0
H470 H 0.01219 0.92851 0.95258 0.0
C471 C 0.01564 0.91789 0.9623 0.0
H472 H 0.02521 0.91577 0.93842 0.0
H473 H 0.99427 0.8812 0.94904 0.0
O474 O 0.02347 0.89621 0.23261 0.0
C475 C -0.00139 0.87372 0.10663 0.0
Co476 Co 0.51834 0.88838 0.35077 0.0
Co477 Co 0.51928 0.88539 0.48206 0.0
C478 C 0.49601 0.87385 0.4167 0.0
O479 O 0.50148 0.87814 0.37129 0.0
O480 O 0.50172 0.87587 0.46426 0.0
C481 C 0.50567 0.89542 0.2459 0.0
O482 O 0.4945 0.89646 0.27673 0.0
C483 C 0.5129 0.88723 0.60366 0.0
C484 C 0.5339 0.88931 0.63855 0.0
C485 C 0.52013 0.88903 0.65359 0.0
N486 N 0.52205 0.88659 0.56121 0.0
N487 N 0.53456 0.88768 0.5825 0.0
C488 C 0.49764 0.88741 0.59544 0.0
H489 H 0.49506 0.89133 0.5529 0.0
H490 H 0.49257 0.8939 0.62779 0.0
H491 H 0.49364 0.87675 0.59916 0.0
C492 C 0.52094 0.91794 0.38078 0.0
N493 N 0.51986 0.90453 0.39455 0.0
N494 N 0.51987 0.9033 0.4497 0.0
C495 C 0.52084 0.91593 0.47279 0.0
C496 C 0.52165 0.9256 0.42994 0.0
C497 C 0.52183 0.92317 0.32172 0.0
H498 H 0.52847 0.91627 0.2963 0.0
H499 H 0.51138 0.92315 0.30287 0.0
H500 H 0.52602 0.9338 0.32032 0.0
O501 O 0.53464 0.87647 0.3614 0.0
O502 O 0.53488 0.87423 0.45418 0.0
H503 H 0.52989 0.91534 0.55468 0.0
H504 H 0.51853 0.92981 0.54375 0.0
C505 C 0.52016 0.91874 0.53465 0.0
H506 H 0.51155 0.91286 0.55335 0.0
H507 H 0.54355 0.88765 0.55848 0.0
O508 O 0.51706 0.89257 0.26955 0.0
C509 C 0.53996 0.87158 0.40605 0.0
Co510 Co 0.01786 0.10688 0.85423 0.0
Co511 Co 0.01695 0.11168 0.98512 0.0
C512 C 0.03937 0.12362 0.91554 0.0
O513 O 0.034 0.11854 0.87134 0.0
O514 O 0.03401 0.12169 0.96382 0.0
C515 C 0.0309 0.09985 0.75018 0.0
O516 O 0.0422 0.1009 0.78017 0.0
C517 C 0.0232 0.11117 0.10821 0.0
C518 C 0.00202 0.11176 0.14215 0.0
C519 C 0.01571 0.11108 0.15804 0.0
N520 N 0.01427 0.11167 0.06487 0.0
N521 N 0.00166 0.1121 0.08568 0.0
C522 C 0.03854 0.1113 0.10203 0.0
H523 H 0.04159 0.11628 0.06212 0.0
H524 H 0.04243 0.10057 0.10155 0.0
H525 H 0.04338 0.11677 0.1379 0.0
C526 C 0.01686 0.07779 0.89137 0.0
N527 N 0.0173 0.09139 0.90217 0.0
N528 N 0.01708 0.09334 0.95696 0.0
C529 C 0.01651 0.08101 0.98281 0.0
C530 C 0.01632 0.07076 0.94213 0.0
C531 C 0.01626 0.07178 0.83347 0.0
H532 H 0.00905 0.07784 0.80711 0.0
H533 H 0.02663 0.07241 0.81404 0.0
H534 H 0.01289 0.06087 0.83428 0.0
O535 O 0.00095 0.11796 0.86257 0.0
O536 O 0.00087 0.12176 0.95453 0.0
H537 H 0.00716 0.08323 0.06373 0.0
H538 H 0.018 0.06816 0.05743 0.0
C539 C 0.0168 0.07911 0.04527 0.0
H540 H 0.02556 0.08496 0.06293 0.0
H541 H 0.99276 0.11251 0.06118 0.0
O542 O 0.0193 0.10151 0.77408 0.0
C543 C 0.99555 0.12336 0.90606 0.0
H544 H -0.00202 0.61754 0.79005 0.0
H545 H 0.99264 0.61425 0.69033 0.0
H546 H 0.03043 0.59153 0.66886 0.0
H547 H 0.0358 0.59474 0.76834 0.0
H548 H 0.02751 0.61381 0.59695 0.0
H549 H 0.9808 0.58077 0.59435 0.0
H550 H 0.97989 0.59548 0.64014 0.0
H551 H 0.99203 0.582 0.65474 0.0
C552 C 0.00492 0.61149 0.76449 0.0
C553 C 0.01724 0.60628 0.78695 0.0
C554 C 0.00186 0.60962 0.70755 0.0
C555 C 0.01106 0.60248 0.67258 0.0
C556 C 0.02317 0.59698 0.69536 0.0
H557 H 0.01237 0.58621 0.31364 0.0
H558 H 0.0122 0.58337 0.41614 0.0
C559 C 0.02624 0.59888 0.75203 0.0
C560 C 0.00896 0.60216 0.61115 0.0
H561 H 0.9873 0.59117 0.50733 0.0
C562 C 0.01877 0.60877 0.57735 0.0
C563 C 0.99755 0.59556 0.58595 0.0
C564 C 0.987 0.58794 0.62052 0.0
C565 C 0.01737 0.60916 0.51887 0.0
C566 C 0.00584 0.60283 0.49376 0.0
C567 C 0.99609 0.59603 0.5272 0.0
C568 C 0.0038 0.60358 0.43259 0.0
C569 C 0.02816 0.61641 0.48409 0.0
C570 C -0.00115 0.61577 0.40859 0.0
C571 C -0.00101 0.61746 0.3504 0.0
C572 C 0.00413 0.60699 0.3154 0.0
C573 C 0.00842 0.59449 0.33957 0.0
C574 C 0.00828 0.59281 0.39793 0.0
H575 H 0.03725 0.61948 0.50953 0.0
H576 H 0.03166 0.60966 0.4492 0.0
H577 H 0.02363 0.62582 0.46508 0.0
H578 H 0.99541 0.62418 0.43505 0.0
H579 H 0.9955 0.62717 0.33307 0.0
H580 H 0.67311 0.72955 0.05179 0.0
H581 H 0.67731 0.7238 0.953 0.0
H582 H 0.64349 0.74987 0.90357 0.0
H583 H 0.63899 0.75535 0.00216 0.0
H584 H 0.64444 0.72436 0.84614 0.0
H585 H 0.69475 0.75179 0.84295 0.0
H586 H 0.69275 0.73864 0.89558 0.0
H587 H 0.68243 0.75395 0.89913 0.0
C588 C 0.66631 0.73373 0.02013 0.0
C589 C 0.65558 0.74275 0.03488 0.0
C590 C 0.66887 0.73061 0.96357 0.0
C591 C 0.66081 0.73653 0.92099 0.0
C592 C 0.64985 0.7452 0.93579 0.0
H593 H 0.67082 0.75509 0.57341 0.0
H594 H 0.67022 0.7544 0.67613 0.0
C595 C 0.64731 0.74834 0.99211 0.0
C596 C 0.66394 0.73422 0.86073 0.0
H597 H 0.68728 0.74189 0.75788 0.0
C598 C 0.65387 0.72804 0.82685 0.0
C599 C 0.6762 0.73919 0.83576 0.0
C600 C 0.68714 0.74637 0.86995 0.0
C601 C 0.65558 0.72694 0.76839 0.0
C602 C 0.6678 0.73199 0.74334 0.0
C603 C 0.67799 0.73794 0.77735 0.0
C604 C 0.66965 0.73217 0.68145 0.0
C605 C 0.64404 0.72094 0.73367 0.0
C606 C 0.66998 0.71988 0.65048 0.0
C607 C 0.67029 0.72023 0.59168 0.0
C608 C 0.67033 0.73289 0.56287 0.0
C609 C 0.67072 0.74517 0.59421 0.0
C610 C 0.6704 0.7448 0.65295 0.0
H611 H 0.6343 0.72012 0.75799 0.0
H612 H 0.64211 0.72732 0.69572 0.0
H613 H 0.64696 0.71046 0.71953 0.0
H614 H 0.66967 0.71003 0.67175 0.0
H615 H 0.67009 0.71058 0.56886 0.0
H616 H 0.51143 0.36879 0.25104 0.0
H617 H 0.51716 0.37302 0.1525 0.0
H618 H 0.5417 0.40807 0.20092 0.0
H619 H 0.53578 0.40402 0.29978 0.0
H620 H 0.5223 0.4135 0.115 0.0
H621 H 0.55333 0.3672 0.06557 0.0
H622 H 0.5373 0.36325 0.09957 0.0
H623 H 0.55021 0.3729 0.13677 0.0
C624 C 0.51825 0.37726 0.24081 0.0
C625 C 0.52337 0.3859 0.28329 0.0
C626 C 0.52157 0.37962 0.18452 0.0
C627 C 0.53004 0.39072 0.16949 0.0
C628 C 0.5353 0.39933 0.21179 0.0
H629 H 0.55409 0.39949 0.81641 0.0
H630 H 0.55502 0.39956 0.91919 0.0
C631 C 0.53204 0.3969 0.26833 0.0
C632 C 0.53245 0.39383 0.10925 0.0
H633 H 0.54386 0.37942 0.98695 0.0
C634 C 0.5272 0.40615 0.08706 0.0
C635 C 0.53897 0.3843 0.07302 0.0
C636 C 0.5454 0.37123 0.09496 0.0
C637 C 0.52771 0.40889 0.02907 0.0
C638 C 0.53347 0.39897 0.99243 0.0
C639 C 0.53932 0.38696 0.01502 0.0
C640 C 0.53294 0.40045 0.93037 0.0
C641 C 0.52197 0.42232 0.00753 0.0
C642 C 0.52022 0.40106 0.90251 0.0
C643 C 0.51964 0.40102 0.84374 0.0
C644 C 0.53179 0.40028 0.81169 0.0
C645 C 0.54454 0.40008 0.83975 0.0
C646 C 0.5451 0.4001 0.89852 0.0
H647 H 0.52183 0.43031 0.04095 0.0
H648 H 0.52805 0.42622 0.97131 0.0
H649 H 0.51121 0.42068 0.99331 0.0
H650 H 0.51069 0.40105 0.9262 0.0
H651 H 0.50965 0.40113 0.82352 0.0
H652 H 0.89643 0.24111 0.50782 0.0
H653 H 0.89242 0.24708 0.40938 0.0
H654 H 0.85776 0.27214 0.45789 0.0
H655 H 0.86157 0.26599 0.55663 0.0
H656 H 0.8521 0.25305 0.3712 0.0
H657 H 0.89903 0.28331 0.32388 0.0
H658 H 0.90265 0.26715 0.35741 0.0
H659 H 0.89317 0.28015 0.39485 0.0
C660 C 0.88809 0.24809 0.49763 0.0
C661 C 0.87949 0.2533 0.5401 0.0
C662 C 0.88586 0.25154 0.44141 0.0
C663 C 0.87493 0.26024 0.42644 0.0
C664 C 0.86637 0.26557 0.46872 0.0
H665 H 0.86728 0.28472 0.07329 0.0
H666 H 0.86702 0.28566 0.17609 0.0
C667 C 0.86866 0.26217 0.52521 0.0
C668 C 0.87197 0.26283 0.36624 0.0
H669 H 0.88681 0.27414 0.24463 0.0
C670 C 0.85958 0.25785 0.34359 0.0
C671 C 0.88167 0.26923 0.33045 0.0
C672 C 0.89482 0.27539 0.35291 0.0
C673 C 0.85696 0.25849 0.28555 0.0
C674 C 0.86706 0.2641 0.24933 0.0
C675 C 0.87913 0.26971 0.27238 0.0
C676 C 0.86572 0.2636 0.18723 0.0
C677 C 0.84347 0.25302 0.26348 0.0
C678 C 0.86495 0.25088 0.15937 0.0
C679 C 0.8651 0.25029 0.10062 0.0
C680 C 0.86612 0.26242 0.06859 0.0
C681 C 0.86648 0.27518 0.09664 0.0
C682 C 0.86635 0.27575 0.1554 0.0
H683 H 0.83541 0.25303 0.29662 0.0
H684 H 0.83977 0.25919 0.22718 0.0
H685 H 0.84493 0.24224 0.24925 0.0
H686 H 0.86474 0.24136 0.18307 0.0
H687 H 0.86485 0.2403 0.08041 0.0
H688 H 0.03407 0.40112 0.23449 0.0
H689 H 0.02753 0.40352 0.33287 0.0
H690 H 0.98959 0.38189 0.3002 0.0
H691 H 0.99643 0.37873 0.20211 0.0
H692 H 0.00579 0.41593 0.38378 0.0
H693 H 0.00567 0.35967 0.42792 0.0
H694 H 0.01245 0.36673 0.36347 0.0
H695 H 0.99417 0.36508 0.37313 0.0
C696 C 0.02432 0.39684 0.2481 0.0
C697 C 0.01572 0.38985 0.21008 0.0
C698 C 0.02057 0.39831 0.30435 0.0
C699 C 0.00814 0.39278 0.32403 0.0
C700 C -0.00067 0.38608 0.28606 0.0
H701 H 0.98167 0.38967 0.67682 0.0
H702 H 0.98079 0.39043 0.57388 0.0
C703 C 0.00315 0.3845 0.22963 0.0
C704 C 0.00481 0.39376 0.38476 0.0
H705 H 0.00054 0.37443 0.50349 0.0
C706 C 0.00452 0.40686 0.40988 0.0
C707 C 0.00318 0.3819 0.41876 0.0
C708 C 0.00399 0.36754 0.39471 0.0
C709 C 0.003 0.40839 0.46822 0.0
C710 C 0.00175 0.39653 0.50216 0.0
C711 C 0.00147 0.38348 0.47703 0.0
C712 C 0.00181 0.39735 0.5642 0.0
C713 C 0.00296 0.42264 0.49342 0.0
C714 C 0.01391 0.40105 0.59254 0.0
C715 C 0.0145 0.40051 0.65119 0.0
C716 C 0.00297 0.3963 0.68246 0.0
C717 C 0.99071 0.39301 0.65393 0.0
C718 C 0.99018 0.39341 0.59519 0.0
H719 H 0.00094 0.43068 0.46122 0.0
H720 H 0.99507 0.42345 0.52709 0.0
H721 H 0.01316 0.42472 0.51258 0.0
H722 H 0.02304 0.40396 0.56916 0.0
H723 H 0.02408 0.40313 0.67194 0.0
H724 H 0.89302 0.73707 0.46501 0.0
H725 H 0.88965 0.73169 0.56485 0.0
H726 H 0.84708 0.74412 0.55185 0.0
H727 H 0.85074 0.75024 0.45317 0.0
H728 H 0.85801 0.7566 0.63413 0.0
H729 H 0.87264 0.70196 0.65536 0.0
H730 H 0.88625 0.71154 0.62296 0.0
H731 H 0.86991 0.70991 0.58768 0.0
C732 C 0.8829 0.73832 0.48348 0.0
C733 C 0.87213 0.74403 0.45203 0.0
C734 C 0.88093 0.73516 0.54033 0.0
C735 C 0.86804 0.73732 0.56592 0.0
C736 C 0.8571 0.74235 0.5332 0.0
H737 H 0.85609 0.71843 0.92465 0.0
H738 H 0.85427 0.71782 0.82177 0.0
C739 C 0.85917 0.74582 0.47692 0.0
C740 C 0.86641 0.73609 0.62783 0.0
H741 H 0.87344 0.71554 0.74078 0.0
C742 C 0.86118 0.7475 0.6572 0.0
C743 C 0.87033 0.72419 0.65824 0.0
C744 C 0.87494 0.71116 0.62927 0.0
C745 C 0.86025 0.74755 0.71595 0.0
C746 C 0.86521 0.7361 0.74654 0.0
C747 C 0.86987 0.72443 0.71731 0.0
C748 C 0.86622 0.73636 0.80872 0.0
C749 C 0.85394 0.75993 0.74451 0.0
C750 C 0.8737 0.74685 0.83537 0.0
C751 C 0.87458 0.74734 0.89384 0.0
C752 C 0.86826 0.73716 0.92692 0.0
C753 C 0.86103 0.72645 0.90023 0.0
C754 C 0.86 0.72607 0.84153 0.0
H755 H 0.84652 0.76524 0.71637 0.0
H756 H 0.84852 0.757 0.78385 0.0
H757 H 0.86219 0.7674 0.75508 0.0
H758 H 0.87895 0.75465 0.81088 0.0
H759 H 0.88041 0.75561 0.91305 0.0
H760 H 0.52955 0.62311 0.72238 0.0
H761 H 0.53486 0.61993 0.82237 0.0
H762 H 0.52157 0.57757 0.81143 0.0
H763 H 0.51553 0.58106 0.71259 0.0
H764 H 0.5093 0.58902 0.8931 0.0
H765 H 0.56423 0.60257 0.91373 0.0
H766 H 0.55493 0.61628 0.88064 0.0
H767 H 0.55624 0.59979 0.84617 0.0
C768 C 0.52809 0.61307 0.74133 0.0
C769 C 0.52217 0.60232 0.7104 0.0
C770 C 0.53122 0.6112 0.79827 0.0
C771 C 0.52879 0.59844 0.82447 0.0
C772 C 0.52355 0.5875 0.7923 0.0
H773 H 0.54732 0.58677 0.18355 0.0
H774 H 0.54797 0.58486 0.08068 0.0
C775 C 0.52012 0.58948 0.73593 0.0
C776 C 0.52998 0.59696 0.88646 0.0
H777 H 0.55067 0.60385 0.99909 0.0
C778 C 0.51846 0.59206 0.91604 0.0
C779 C 0.54196 0.60071 0.91669 0.0
C780 C 0.55508 0.60498 0.88752 0.0
C781 C 0.51839 0.59128 0.97482 0.0
C782 C 0.52995 0.59607 0.00519 0.0
C783 C 0.54171 0.60041 0.97577 0.0
C784 C 0.52972 0.59721 0.06733 0.0
C785 C 0.50588 0.58531 0.00363 0.0
C786 C 0.51939 0.60495 0.09378 0.0
C787 C 0.51887 0.60587 0.15223 0.0
C788 C 0.52887 0.59933 0.18548 0.0
C789 C 0.53945 0.59187 0.15899 0.0
C790 C 0.53985 0.5908 0.1003 0.0
H791 H 0.5004 0.57794 0.97576 0.0
H792 H 0.5087 0.5799 0.04312 0.0
H793 H 0.49861 0.59374 0.01397 0.0
H794 H 0.51171 0.61034 0.06915 0.0
H795 H 0.51072 0.61188 0.17131 0.0
H796 H 0.67198 0.24143 0.42527 0.0
H797 H 0.67202 0.24155 0.32259 0.0
H798 H 0.66034 0.28439 0.3227 0.0
H799 H 0.66051 0.28445 0.42564 0.0
H800 H 0.64876 0.24701 0.25967 0.0
H801 H 0.69098 0.28327 0.20443 0.0
H802 H 0.68932 0.27572 0.27352 0.0
H803 H 0.6784 0.28977 0.25311 0.0
C804 C 0.66963 0.25095 0.40351 0.0
C805 C 0.66617 0.26291 0.43355 0.0
C806 C 0.66966 0.25099 0.34485 0.0
C807 C 0.66625 0.26299 0.31509 0.0
C808 C 0.66324 0.27509 0.34486 0.0
H809 H 0.64592 0.26775 0.95548 0.0
H810 H 0.64837 0.27391 0.0551 0.0
C811 C 0.66328 0.27508 0.40368 0.0
C812 C 0.66469 0.26237 0.25324 0.0
H813 H 0.6775 0.27464 0.12911 0.0
C814 C 0.65502 0.2531 0.23117 0.0
C815 C 0.6728 0.2704 0.21624 0.0
C816 C 0.68355 0.28029 0.23781 0.0
C817 C 0.65341 0.25144 0.17307 0.0
C818 C 0.66172 0.25921 0.13618 0.0
C819 C 0.67114 0.26877 0.15789 0.0
C820 C 0.66143 0.25658 0.07517 0.0
C821 C 0.64305 0.24117 0.15124 0.0
C822 C 0.66813 0.24494 0.05389 0.0
C823 C 0.66684 0.24146 0.99731 0.0
C824 C 0.65888 0.2496 0.96087 0.0
C825 C 0.65242 0.26148 0.98206 0.0
C826 C 0.65373 0.26497 0.03896 0.0
H827 H 0.63603 0.23745 0.18487 0.0
H828 H 0.6368 0.24583 0.11706 0.0
H829 H 0.64857 0.23217 0.13332 0.0
H830 H 0.67408 0.23835 0.08148 0.0
H831 H 0.67196 0.23226 0.9822 0.0
H832 H 0.36546 0.25518 0.42142 0.0
H833 H 0.3654 0.25488 0.31877 0.0
H834 H 0.37412 0.21135 0.32015 0.0
H835 H 0.37403 0.21149 0.42315 0.0
H836 H 0.38844 0.24722 0.25502 0.0
H837 H 0.34284 0.21489 0.20366 0.0
H838 H 0.34522 0.22271 0.27189 0.0
H839 H 0.35489 0.20767 0.25288 0.0
C840 C 0.36717 0.24549 0.39998 0.0
C841 C 0.36982 0.23337 0.43041 0.0
C842 C 0.36713 0.24534 0.34134 0.0
C843 C 0.36969 0.23308 0.31196 0.0
C844 C 0.37191 0.22087 0.34207 0.0
H845 H 0.39032 0.22898 0.95239 0.0
H846 H 0.38813 0.2226 0.05192 0.0
C847 C 0.37191 0.22099 0.40091 0.0
C848 C 0.3711 0.23346 0.25005 0.0
H849 H 0.35644 0.22258 0.12724 0.0
C850 C 0.38151 0.24175 0.22709 0.0
C851 C 0.36204 0.22627 0.21388 0.0
C852 C 0.35054 0.21744 0.23658 0.0
C853 C 0.38294 0.24328 0.16884 0.0
C854 C 0.37373 0.23634 0.13278 0.0
C855 C 0.36351 0.22778 0.15539 0.0
C856 C 0.3739 0.239 0.0718 0.0
C857 C 0.39401 0.25262 0.14589 0.0
C858 C 0.3665 0.25021 0.05053 0.0
C859 C 0.3677 0.25385 0.99405 0.0
C860 C 0.37624 0.24627 0.95777 0.0
C861 C 0.3834 0.2348 0.97894 0.0
C862 C 0.38222 0.23119 0.03574 0.0
H863 H 0.40091 0.25659 0.17943 0.0
H864 H 0.4003 0.247 0.11435 0.0
H865 H 0.38917 0.2615 0.12418 0.0
H866 H 0.36011 0.25639 0.07808 0.0
H867 H 0.36207 0.26273 0.97889 0.0
H868 H 0.13955 0.73912 0.49998 0.0
H869 H 0.14322 0.74537 0.59835 0.0
H870 H 0.17799 0.77039 0.55068 0.0
H871 H 0.1745 0.76397 0.45195 0.0
H872 H 0.18326 0.75116 0.63835 0.0
H873 H 0.13649 0.78198 0.68211 0.0
H874 H 0.13287 0.76588 0.6481 0.0
H875 H 0.14269 0.77879 0.61162 0.0
C876 C 0.14784 0.74614 0.51033 0.0
C877 C 0.15658 0.75126 0.46816 0.0
C878 C 0.14987 0.74977 0.56648 0.0
C879 C 0.16073 0.75852 0.58163 0.0
C880 C 0.16943 0.76377 0.53964 0.0
H881 H 0.16735 0.78229 0.93622 0.0
H882 H 0.16808 0.7836 0.83349 0.0
C883 C 0.16733 0.76022 0.4832 0.0
C884 C 0.16351 0.7612 0.64185 0.0
H885 H 0.14822 0.77261 0.76232 0.0
C886 C 0.17572 0.75606 0.6654 0.0
C887 C 0.15373 0.76772 0.67687 0.0
C888 C 0.14076 0.77404 0.65336 0.0
C889 C 0.17805 0.75659 0.72363 0.0
C890 C 0.16783 0.76228 0.75906 0.0
C891 C 0.15598 0.76812 0.73513 0.0
C892 C 0.16879 0.76155 0.82118 0.0
C893 C 0.19133 0.75088 0.74681 0.0
C894 C 0.16901 0.74871 0.84827 0.0
C895 C 0.16857 0.74791 0.90692 0.0
C896 C 0.16782 0.75996 0.93959 0.0
C897 C 0.16795 0.77282 0.91234 0.0
C898 C 0.16835 0.77359 0.85364 0.0
H899 H 0.19957 0.75078 0.71439 0.0
H900 H 0.19493 0.75696 0.78352 0.0
H901 H 0.18961 0.74012 0.76078 0.0
H902 H 0.16907 0.73927 0.82398 0.0
H903 H 0.16846 0.73785 0.92654 0.0
H904 H 0.13947 0.25592 0.50408 0.0
H905 H 0.14343 0.24991 0.40565 0.0
H906 H 0.17781 0.22447 0.45417 0.0
H907 H 0.17407 0.23069 0.55287 0.0
H908 H 0.1837 0.24331 0.36723 0.0
H909 H 0.13629 0.21376 0.32072 0.0
H910 H 0.13291 0.23003 0.3538 0.0
H911 H 0.14218 0.21694 0.3916 0.0
C912 C 0.14774 0.24887 0.4939 0.0
C913 C 0.15627 0.24356 0.53638 0.0
C914 C 0.14994 0.24538 0.43768 0.0
C915 C 0.16076 0.23655 0.42272 0.0
C916 C 0.16928 0.23114 0.46499 0.0
H917 H 0.16797 0.21148 0.0701 0.0
H918 H 0.16823 0.21067 0.17293 0.0
C919 C 0.16702 0.23458 0.52146 0.0
C920 C 0.16367 0.23386 0.36253 0.0
H921 H 0.14864 0.22263 0.24123 0.0
C922 C 0.17613 0.23859 0.33974 0.0
C923 C 0.15386 0.22757 0.32691 0.0
C924 C 0.14061 0.22165 0.34954 0.0
C925 C 0.17875 0.23783 0.28172 0.0
C926 C 0.16856 0.23234 0.24565 0.0
C927 C 0.1564 0.22697 0.26886 0.0
C928 C 0.16991 0.23273 0.18355 0.0
C929 C 0.19233 0.24303 0.2595 0.0
C930 C 0.17088 0.24539 0.15539 0.0
C931 C 0.17073 0.2459 0.09664 0.0
C932 C 0.16951 0.23375 0.0649 0.0
C933 C 0.16893 0.22104 0.09323 0.0
C934 C 0.16907 0.22055 0.15201 0.0
H935 H 0.2004 0.24293 0.29263 0.0
H936 H 0.19592 0.23675 0.22335 0.0
H937 H 0.19107 0.25382 0.24501 0.0
H938 H 0.17127 0.25494 0.17888 0.0
H939 H 0.17115 0.25586 0.0762 0.0
H940 H 0.37261 0.78634 0.58551 0.0
H941 H 0.37351 0.78551 0.68841 0.0
H942 H 0.36122 0.74286 0.68475 0.0
H943 H 0.36053 0.74349 0.58208 0.0
H944 H 0.35452 0.77834 0.77386 0.0
H945 H 0.39858 0.74208 0.76487 0.0
H946 H 0.39261 0.75145 0.70405 0.0
H947 H 0.38377 0.73615 0.72679 0.0
C948 C 0.36991 0.77683 0.60664 0.0
C949 C 0.36671 0.76491 0.57567 0.0
C950 C 0.37044 0.77639 0.6654 0.0
C951 C 0.36775 0.76404 0.69396 0.0
C952 C 0.36366 0.7524 0.66332 0.0
H953 H 0.36697 0.73198 0.02658 0.0
H954 H 0.36393 0.73771 0.92746 0.0
C955 C 0.36322 0.7528 0.60469 0.0
C956 C 0.36993 0.76305 0.75541 0.0
H957 H 0.38811 0.74528 0.85448 0.0
C958 C 0.36195 0.77122 0.7916 0.0
C959 C 0.37977 0.75388 0.77827 0.0
C960 C 0.38928 0.74549 0.74151 0.0
C961 C 0.36314 0.76998 0.85031 0.0
C962 C 0.37257 0.76041 0.87289 0.0
C963 C 0.38082 0.75256 0.83676 0.0
C964 C 0.37355 0.75771 0.93385 0.0
C965 C 0.35403 0.77853 0.88795 0.0
C966 C 0.38 0.7671 0.9701 0.0
C967 C 0.38187 0.76381 0.02694 0.0
C968 C 0.37725 0.75111 0.04818 0.0
C969 C 0.37066 0.74185 0.01158 0.0
C970 C 0.36885 0.74511 0.95501 0.0
H971 H 0.34633 0.78457 0.86375 0.0
H972 H 0.34854 0.7718 0.9183 0.0
H973 H 0.36048 0.78578 0.91261 0.0
H974 H 0.38392 0.77678 0.95407 0.0
H975 H 0.38736 0.771 0.05344 0.0
H976 H 0.48153 0.09519 0.82122 0.0
H977 H 0.48047 0.09532 0.92407 0.0
H978 H 0.5248 0.09629 0.93193 0.0
H979 H 0.52599 0.096 0.82925 0.0
H980 H 0.51224 0.07832 0.01151 0.0
H981 H 0.48923 0.13081 0.01301 0.0
H982 H 0.4802 0.11802 0.97271 0.0
H983 H 0.49705 0.12347 0.95102 0.0
C984 C 0.49106 0.09527 0.84479 0.0
C985 C 0.50385 0.09574 0.81701 0.0
C986 C 0.49043 0.09541 0.90355 0.0
C987 C 0.50255 0.09606 0.93548 0.0
C988 C 0.51532 0.09585 0.90797 0.0
H989 H 0.52502 0.12597 0.25656 0.0
H990 H 0.51942 0.12165 0.15798 0.0
C991 C 0.51598 0.09571 0.84927 0.0
C992 C 0.50203 0.09767 0.99738 0.0
H993 H 0.49364 0.12059 0.1008 0.0
C994 C 0.50803 0.08747 0.03122 0.0
C995 C 0.49663 0.1097 0.02271 0.0
C996 C 0.4905 0.1212 0.98816 0.0
C997 C 0.50907 0.08913 0.08974 0.0
C998 C 0.50382 0.10123 0.11496 0.0
C999 C 0.49753 0.11127 0.08127 0.0
C1000 C 0.50609 0.10432 0.17523 0.0
C1001 C 0.51634 0.07822 0.12384 0.0
C1002 C 0.50019 0.09618 0.21767 0.0
C1003 C 0.50337 0.09865 0.27424 0.0
C1004 C 0.51244 0.10933 0.28904 0.0
C1005 C 0.51798 0.11769 0.24642 0.0
C1006 C 0.51477 0.11525 0.19013 0.0
H1007 H 0.52179 0.07065 0.0968 0.0
H1008 H 0.52391 0.08299 0.15289 0.0
H1009 H 0.50867 0.07257 0.14964 0.0
H1010 H 0.49338 0.08775 0.20697 0.0
H1011 H 0.49923 0.0918 0.30583 0.0
H1012 H 0.00152 0.89926 0.77064 0.0
H1013 H 0.00729 0.90218 0.67145 0.0
H1014 H 0.04672 0.88304 0.69952 0.0
H1015 H 0.04094 0.87983 0.79912 0.0
H1016 H 0.04539 0.90928 0.62611 0.0
H1017 H 0.00984 0.8669 0.56619 0.0
H1018 H 0.00281 0.87957 0.61327 0.0
H1019 H 0.01668 0.86875 0.63644 0.0
C1020 C 0.01148 0.89574 0.75591 0.0
C1021 C 0.02081 0.88939 0.79287 0.0
C1022 C 0.01475 0.89746 0.69931 0.0
C1023 C 0.02739 0.89277 0.67839 0.0
C1024 C 0.03695 0.88679 0.71521 0.0
H1025 H 0.0566 0.89239 0.3303 0.0
H1026 H 0.05601 0.89242 0.43319 0.0
C1027 C 0.03366 0.88505 0.77215 0.0
C1028 C 0.03007 0.89342 0.61734 0.0
H1029 H 0.01846 0.88079 0.49231 0.0
C1030 C 0.03964 0.90298 0.59666 0.0
C1031 C 0.02253 0.88516 0.57942 0.0
C1032 C 0.01245 0.87442 0.59974 0.0
C1033 C 0.04147 0.90486 0.53849 0.0
C1034 C 0.03364 0.89683 0.50056 0.0
C1035 C 0.02436 0.88702 0.52152 0.0
C1036 C 0.03461 0.89846 0.4388 0.0
C1037 C 0.05138 0.91573 0.51807 0.0
C1038 C 0.02281 0.90191 0.40791 0.0
C1039 C 0.02307 0.90179 0.34924 0.0
C1040 C 0.03516 0.89817 0.32031 0.0
C1041 C 0.04714 0.89527 0.35133 0.0
C1042 C 0.04685 0.89534 0.41015 0.0
H1043 H 0.05419 0.92307 0.55199 0.0
H1044 H 0.06094 0.91068 0.50309 0.0
H1045 H 0.04691 0.92158 0.48235 0.0
H1046 H 0.01326 0.90433 0.4293 0.0
H1047 H 0.01368 0.90414 0.32662 0.0
H1048 H 0.48289 0.90024 0.18078 0.0
H1049 H 0.48146 0.8997 0.07782 0.0
H1050 H 0.52509 0.89199 0.06808 0.0
H1051 H 0.52667 0.89249 0.17052 0.0
H1052 H 0.49668 0.91582 0.99411 0.0
H1053 H 0.5065 0.85964 0.98037 0.0
H1054 H 0.50106 0.86797 0.04459 0.0
H1055 H 0.51875 0.86886 0.02267 0.0
C1056 C 0.4922 0.89852 0.15671 0.0
C1057 C 0.50488 0.89629 0.18386 0.0
C1058 C 0.49135 0.89821 0.09797 0.0
C1059 C 0.50313 0.89557 0.06564 0.0
C1060 C 0.51585 0.89381 0.09249 0.0
H1061 H 0.53038 0.90623 0.7326 0.0
H1062 H 0.52342 0.90831 0.8309 0.0
C1063 C 0.51673 0.89416 0.15103 0.0
C1064 C 0.50225 0.89449 0.00374 0.0
H1065 H 0.50888 0.8725 0.89524 0.0
C1066 C 0.49915 0.90631 0.97236 0.0
C1067 C 0.50523 0.88201 0.97566 0.0
C1068 C 0.50795 0.86885 0.00747 0.0
C1069 C 0.49975 0.90616 0.91335 0.0
C1070 C 0.50366 0.89391 0.88544 0.0
C1071 C 0.50597 0.8819 0.91678 0.0
C1072 C 0.50674 0.89362 0.82451 0.0
C1073 C 0.49646 0.91917 0.88141 0.0
C1074 C 0.49976 0.88455 0.78845 0.0
C1075 C 0.50376 0.88332 0.7321 0.0
C1076 C 0.51488 0.89105 0.71132 0.0
C1077 C 0.52173 0.9002 0.74746 0.0
C1078 C 0.51768 0.9015 0.80347 0.0
H1079 H 0.48972 0.92611 0.90634 0.0
H1080 H 0.50617 0.92476 0.87229 0.0
H1081 H 0.49132 0.91681 0.84082 0.0
H1082 H 0.49143 0.87822 0.80423 0.0
H1083 H 0.49852 0.87593 0.70559 0.0
H1084 H 0.03674 0.09513 0.19982 0.0
H1085 H 0.04302 0.09195 0.29882 0.0
H1086 H 0.01124 0.12051 0.34795 0.0
H1087 H 0.00508 0.12393 0.24921 0.0
H1088 H 0.03768 0.12393 0.40407 0.0
H1089 H 0.01738 0.07029 0.40963 0.0
H1090 H 0.02963 0.07442 0.35538 0.0
H1091 H 0.01291 0.08225 0.35445 0.0
C1092 C 0.03135 0.10102 0.23156 0.0
C1093 C 0.02055 0.10995 0.21678 0.0
C1094 C 0.03482 0.09904 0.28811 0.0
C1095 C 0.02752 0.10593 0.33054 0.0
C1096 C 0.01699 0.11511 0.31574 0.0
H1097 H 0.00956 0.0964 0.6767 0.0
H1098 H 0.01057 0.09662 0.57401 0.0
C1099 C 0.01348 0.11703 0.25941 0.0
C1100 C 0.03035 0.10329 0.39068 0.0
H1101 H 0.02557 0.07952 0.4947 0.0
C1102 C 0.03524 0.11417 0.4239 0.0
C1103 C 0.02699 0.09057 0.41619 0.0
C1104 C 0.02135 0.0787 0.38239 0.0
C1105 C 0.03655 0.11278 0.48239 0.0
C1106 C 0.03297 0.10014 0.50805 0.0
C1107 C 0.02839 0.08915 0.47467 0.0
C1108 C 0.03273 0.0986 0.56993 0.0
C1109 C 0.04115 0.12503 0.51662 0.0
C1110 C 0.04491 0.09924 0.60148 0.0
C1111 C 0.04437 0.0991 0.66027 0.0
C1112 C 0.03164 0.09834 0.68833 0.0
C1113 C 0.01952 0.09708 0.65641 0.0
C1114 C 0.02008 0.09718 0.59774 0.0
H1115 H 0.04136 0.13466 0.49136 0.0
H1116 H 0.03422 0.12659 0.55324 0.0
H1117 H 0.05167 0.12313 0.53297 0.0
H1118 H 0.05478 0.10016 0.58065 0.0
H1119 H 0.0539 0.10002 0.68361 0.0
H1120 H 0.00058 0.5558 0.98327 0.0
H1121 H 0.00142 0.53111 0.96207 0.0
H1122 H 0.03419 0.52604 0.08281 0.0
H1123 H 0.03321 0.55073 0.10456 0.0
H1124 H 0.02325 0.51644 0.91991 0.0
H1125 H 0.00748 0.49578 0.12791 0.0
H1126 H 0.00534 0.51365 0.10904 0.0
H1127 H 0.02189 0.50733 0.13088 0.0
C1128 C 0.00787 0.54934 0.0055 0.0
C1129 C 0.01679 0.55503 0.04565 0.0
C1130 C 0.00835 0.5353 0.9934 0.0
C1131 C 0.01775 0.52673 0.02134 0.0
C1132 C 0.02666 0.53242 0.06168 0.0
H1133 H 0.03852 0.44027 0.99167 0.0
H1134 H 0.0386 0.46509 0.01078 0.0
C1135 C 0.02612 0.54647 0.074 0.0
C1136 C 0.01855 0.51196 0.00658 0.0
H1137 H 0.01559 0.47958 0.0609 0.0
C1138 C 0.02152 0.50837 0.95065 0.0
C1139 C 0.0163 0.50148 0.04685 0.0
C1140 C 0.01244 0.50472 0.10691 0.0
C1141 C 0.02245 0.49455 0.93403 0.0
C1142 C 0.02024 0.48411 0.97433 0.0
C1143 C 0.01733 0.48767 0.03025 0.0
C1144 C 0.02074 0.46937 0.95935 0.0
C1145 C 0.02599 0.4912 0.87377 0.0
C1146 C 0.01071 0.46365 0.92384 0.0
C1147 C 0.0106 0.4495 0.91324 0.0
C1148 C 0.02048 0.44092 0.93823 0.0
C1149 C 0.03072 0.44672 0.97247 0.0
C1150 C 0.0308 0.46084 0.98326 0.0
H1151 H 0.03027 0.50025 0.85118 0.0
H1152 H 0.03356 0.48265 0.87172 0.0
H1153 H 0.01654 0.48784 0.85148 0.0
H1154 H 0.00276 0.47007 0.90566 0.0
H1155 H 0.00256 0.4452 0.88703 0.0
H1156 H 0.82537 0.76791 0.23889 0.0
H1157 H 0.80051 0.76754 0.25606 0.0
H1158 H 0.79583 0.7355 0.13186 0.0
H1159 H 0.8208 0.73565 0.11546 0.0
H1160 H 0.77781 0.77121 0.18144 0.0
H1161 H 0.77917 0.71898 0.27727 0.0
H1162 H 0.79451 0.72911 0.26608 0.0
H1163 H 0.78654 0.72033 0.20814 0.0
C1164 C 0.819 0.76083 0.21519 0.0
C1165 C 0.82492 0.75171 0.17634 0.0
C1166 C 0.80484 0.76067 0.22483 0.0
C1167 C 0.79641 0.75134 0.19587 0.0
C1168 C 0.80223 0.74261 0.15524 0.0
H1169 H 0.70969 0.73164 0.22526 0.0
H1170 H 0.73404 0.73278 0.19867 0.0
C1171 C 0.81642 0.74279 0.14556 0.0
C1172 C 0.78161 0.75051 0.20974 0.0
H1173 H 0.75735 0.7294 0.26747 0.0
C1174 C 0.7733 0.76208 0.2002 0.0
C1175 C 0.77585 0.73858 0.23439 0.0
C1176 C 0.78446 0.72606 0.2476 0.0
C1177 C 0.75927 0.76199 0.21415 0.0
C1178 C 0.75353 0.7501 0.23917 0.0
C1179 C 0.76182 0.7385 0.24834 0.0
C1180 C 0.73889 0.74943 0.25582 0.0
C1181 C 0.75066 0.77453 0.20121 0.0
C1182 C 0.73366 0.75826 0.29742 0.0
C1183 C 0.71977 0.75763 0.31254 0.0
C1184 C 0.71099 0.7481 0.28646 0.0
C1185 C 0.71629 0.73911 0.24565 0.0
C1186 C 0.73016 0.73974 0.23056 0.0
H1187 H 0.75574 0.78135 0.16991 0.0
H1188 H 0.74039 0.77152 0.18486 0.0
H1189 H 0.74911 0.78054 0.24039 0.0
H1190 H 0.74031 0.76564 0.31808 0.0
H1191 H 0.71584 0.76471 0.34385 0.0
H1192 H 0.4985 0.55587 0.49553 0.0
H1193 H 0.49878 0.53094 0.51128 0.0
H1194 H 0.53066 0.52653 0.3862 0.0
H1195 H 0.53057 0.55156 0.37105 0.0
H1196 H 0.49505 0.50846 0.43365 0.0
H1197 H 0.54703 0.50939 0.53191 0.0
H1198 H 0.53687 0.52476 0.52207 0.0
H1199 H 0.54572 0.51716 0.46349 0.0
C1200 C 0.50553 0.54954 0.47133 0.0
C1201 C 0.51461 0.55555 0.43254 0.0
C1202 C 0.50564 0.53535 0.48017 0.0
C1203 C 0.51488 0.52698 0.45048 0.0
C1204 C 0.52359 0.53289 0.41004 0.0
H1205 H 0.53446 0.44015 0.47854 0.0
H1206 H 0.53353 0.46457 0.4527 0.0
C1207 C 0.52346 0.54711 0.4011 0.0
C1208 C 0.51564 0.51214 0.46346 0.0
H1209 H 0.53648 0.48767 0.52137 0.0
C1210 C 0.5041 0.50388 0.45274 0.0
C1211 C 0.52747 0.50627 0.48848 0.0
C1212 C 0.53996 0.51483 0.50267 0.0
C1213 C 0.50411 0.4898 0.46597 0.0
C1214 C 0.51588 0.48397 0.49158 0.0
C1215 C 0.52747 0.49222 0.50184 0.0
C1216 C 0.51644 0.4693 0.50782 0.0
C1217 C 0.49162 0.48126 0.45163 0.0
C1218 C 0.50729 0.46397 0.54808 0.0
C1219 C 0.50779 0.45005 0.56271 0.0
C1220 C 0.51752 0.44132 0.53756 0.0
C1221 C 0.52683 0.44672 0.4982 0.0
C1222 C 0.52632 0.46062 0.48354 0.0
H1223 H 0.48505 0.48639 0.41964 0.0
H1224 H 0.49467 0.47097 0.43556 0.0
H1225 H 0.48534 0.47974 0.49013 0.0
H1226 H 0.49976 0.47058 0.56805 0.0
H1227 H 0.50045 0.44605 0.59286 0.0
H1228 H 0.82033 0.23009 0.85253 0.0
H1229 H 0.79572 0.2289 0.82903 0.0
H1230 H 0.80052 0.26346 0.71665 0.0
H1231 H 0.82507 0.2646 0.7399 0.0
H1232 H 0.77531 0.249 0.8408 0.0
H1233 H 0.78228 0.23439 0.61695 0.0
H1234 H 0.79604 0.2334 0.6678 0.0
H1235 H 0.79146 0.24966 0.63692 0.0
C1236 C 0.81604 0.23747 0.8232 0.0
C1237 C 0.82447 0.24743 0.79791 0.0
C1238 C 0.80207 0.23675 0.80962 0.0
C1239 C 0.79639 0.24593 0.77034 0.0
C1240 C 0.80478 0.25608 0.74604 0.0
H1241 H 0.71491 0.26327 0.6429 0.0
H1242 H 0.73972 0.26263 0.6627 0.0
C1243 C 0.81873 0.25678 0.75953 0.0
C1244 C 0.78164 0.2451 0.7555 0.0
H1245 H 0.75962 0.24076 0.64502 0.0
C1246 C 0.77186 0.2471 0.79812 0.0
C1247 C 0.77722 0.24261 0.69972 0.0
C1248 C 0.78729 0.23976 0.65276 0.0
C1249 C 0.75773 0.24701 0.78617 0.0
C1250 C 0.75332 0.24467 0.73031 0.0
C1251 C 0.76309 0.24258 0.68774 0.0
C1252 C 0.73858 0.24449 0.71534 0.0
C1253 C 0.74763 0.24976 0.83311 0.0
C1254 C 0.72988 0.23428 0.73712 0.0
C1255 C 0.7158 0.2346 0.72568 0.0
C1256 C 0.71024 0.24514 0.69228 0.0
C1257 C 0.71902 0.25505 0.6687 0.0
C1258 C 0.73312 0.25471 0.68009 0.0
H1259 H 0.75272 0.25433 0.87054 0.0
H1260 H 0.73933 0.2568 0.81885 0.0
H1261 H 0.74279 0.23991 0.84613 0.0
H1262 H 0.73397 0.22616 0.76353 0.0
H1263 H 0.7092 0.22675 0.74358 0.0
H1264 H 0.21062 0.23211 0.73557 0.0
H1265 H 0.23525 0.23308 0.71332 0.0
H1266 H 0.23998 0.2675 0.82646 0.0
H1267 H 0.21534 0.26644 0.84909 0.0
H1268 H 0.24987 0.2548 0.6668 0.0
H1269 H 0.27021 0.24118 0.87794 0.0
H1270 H 0.25242 0.23863 0.85869 0.0
H1271 H 0.2585 0.25548 0.87768 0.0
C1272 C 0.21698 0.23981 0.75584 0.0
C1273 C 0.21123 0.24912 0.79432 0.0
C1274 C 0.23099 0.24037 0.74314 0.0
C1275 C 0.23945 0.25024 0.76882 0.0
C1276 C 0.23368 0.25961 0.80715 0.0
H1277 H 0.32637 0.26933 0.73976 0.0
H1278 H 0.30155 0.27005 0.75842 0.0
C1279 C 0.21966 0.25902 0.82 0.0
C1280 C 0.25423 0.25092 0.75422 0.0
H1281 H 0.28651 0.24823 0.80959 0.0
C1282 C 0.25789 0.25333 0.69794 0.0
C1283 C 0.26463 0.24901 0.79503 0.0
C1284 C 0.26129 0.24581 0.85563 0.0
C1285 C 0.27174 0.25402 0.68144 0.0
C1286 C 0.28212 0.25208 0.72223 0.0
C1287 C 0.27847 0.24975 0.77853 0.0
C1288 C 0.29689 0.2522 0.70744 0.0
C1289 C 0.27516 0.257 0.62074 0.0
C1290 C 0.30241 0.24196 0.6724 0.0
C1291 C 0.31656 0.2415 0.66198 0.0
C1292 C 0.32534 0.25124 0.68673 0.0
C1293 C 0.31976 0.26166 0.72067 0.0
C1294 C 0.30564 0.26209 0.73121 0.0
H1295 H 0.26624 0.26145 0.59784 0.0
H1296 H 0.28398 0.26423 0.61757 0.0
H1297 H 0.27811 0.24726 0.59951 0.0
H1298 H 0.29583 0.2341 0.65447 0.0
H1299 H 0.32069 0.23331 0.63606 0.0
H1300 H 0.20995 0.76334 0.25388 0.0
H1301 H 0.23474 0.76315 0.27306 0.0
H1302 H 0.23926 0.7268 0.1704 0.0
H1303 H 0.21436 0.72689 0.15174 0.0
H1304 H 0.25196 0.72549 0.27965 0.0
H1305 H 0.26626 0.77287 0.16267 0.0
H1306 H 0.25211 0.77493 0.21061 0.0
H1307 H 0.25029 0.76381 0.15068 0.0
C1308 C 0.21629 0.75538 0.23521 0.0
C1309 C 0.21039 0.74518 0.20111 0.0
C1310 C 0.23041 0.75532 0.24588 0.0
C1311 C 0.23881 0.74507 0.2225 0.0
C1312 C 0.23292 0.73485 0.18841 0.0
H1313 H 0.32608 0.72691 0.26109 0.0
H1314 H 0.30147 0.72584 0.23829 0.0
C1315 C 0.21878 0.73494 0.17758 0.0
C1316 C 0.25367 0.74478 0.23558 0.0
H1317 H 0.28324 0.76346 0.2234 0.0
C1318 C 0.25885 0.73371 0.26704 0.0
C1319 C 0.26255 0.75556 0.21911 0.0
C1320 C 0.25758 0.76742 0.18347 0.0
C1321 C 0.27269 0.73334 0.28386 0.0
C1322 C 0.28155 0.74421 0.26787 0.0
C1323 C 0.27638 0.75518 0.23583 0.0
C1324 C 0.29626 0.74443 0.28377 0.0
C1325 C 0.27761 0.72154 0.31986 0.0
C1326 C 0.30146 0.75531 0.31632 0.0
C1327 C 0.31548 0.75599 0.32884 0.0
C1328 C 0.32449 0.74586 0.30861 0.0
C1329 C 0.31927 0.73486 0.27685 0.0
C1330 C 0.30525 0.73419 0.26425 0.0
H1331 H 0.26891 0.71601 0.3401 0.0
H1332 H 0.28326 0.71407 0.29312 0.0
H1333 H 0.28474 0.72521 0.35315 0.0
H1334 H 0.29467 0.76334 0.33153 0.0
H1335 H 0.31934 0.7646 0.35315 0.0
H1336 H 0.50205 0.05477 0.49052 0.0
H1337 H 0.50352 0.03021 0.46732 0.0
H1338 H 0.53882 0.02617 0.57618 0.0
H1339 H 0.53732 0.05076 0.59953 0.0
H1340 H 0.52585 0.01632 0.41802 0.0
H1341 H 0.51311 0.99517 0.62896 0.0
H1342 H 0.50986 0.01287 0.61006 0.0
H1343 H 0.52697 0.00741 0.62807 0.0
C1344 C 0.51005 0.04857 0.50967 0.0
C1345 C 0.5195 0.05451 0.54709 0.0
C1346 C 0.51089 0.03461 0.4964 0.0
C1347 C 0.52117 0.02638 0.52054 0.0
C1348 C 0.53065 0.03231 0.55799 0.0
H1349 H 0.5406 0.93952 0.49145 0.0
H1350 H 0.54139 0.96434 0.50978 0.0
C1351 C 0.52979 0.04629 0.57131 0.0
C1352 C 0.52214 0.01166 0.50529 0.0
H1353 H 0.52 0.9792 0.55932 0.0
C1354 C 0.52456 0.00818 0.44883 0.0
C1355 C 0.52047 0.00112 0.54569 0.0
C1356 C 0.51734 0.00427 0.60653 0.0
C1357 C 0.52547 0.99439 0.43171 0.0
C1358 C 0.5237 0.98386 0.47205 0.0
C1359 C 0.52138 0.98733 0.52857 0.0
C1360 C 0.52395 0.96911 0.45666 0.0
C1361 C 0.5285 0.99121 0.37084 0.0
C1362 C 0.51396 0.96364 0.42033 0.0
C1363 C 0.51349 0.94948 0.40991 0.0
C1364 C 0.52294 0.94065 0.43611 0.0
C1365 C 0.53316 0.94618 0.47117 0.0
C1366 C 0.53362 0.9603 0.48156 0.0
H1367 H 0.53312 0.00018 0.34882 0.0
H1368 H 0.53562 0.98231 0.36708 0.0
H1369 H 0.51876 0.98853 0.3491 0.0
H1370 H 0.50624 0.97024 0.40155 0.0
H1371 H 0.50546 0.94539 0.38313 0.0
H1372 H 0.00246 0.94545 0.1116 0.0
H1373 H 0.00132 0.97016 0.08983 0.0
H1374 H 0.03469 0.96544 0.97153 0.0
H1375 H 0.03576 0.94078 0.99296 0.0
H1376 H 0.02152 0.99051 0.09878 0.0
H1377 H 0.00474 0.98391 0.87732 0.0
H1378 H 0.00425 0.97006 0.92791 0.0
H1379 H 0.02019 0.9747 0.89447 0.0
C1380 C 0.00959 0.94977 0.08132 0.0
C1381 C 0.01916 0.94133 0.05371 0.0
C1382 C 0.00891 0.96381 0.06877 0.0
C1383 C 0.01774 0.96953 0.02829 0.0
C1384 C 0.02756 0.96114 0.00188 0.0
H1385 H 0.03352 0.05127 0.89955 0.0
H1386 H 0.03339 0.02648 0.91998 0.0
C1387 C 0.02822 0.94713 0.01431 0.0
C1388 C 0.01681 0.98432 0.01401 0.0
H1389 H 0.01135 0.00652 0.90492 0.0
C1390 C 0.01921 0.99403 0.05653 0.0
C1391 C 0.01377 0.98883 0.95879 0.0
C1392 C 0.01046 0.97884 0.91207 0.0
C1393 C 0.01897 0.00819 0.04499 0.0
C1394 C 0.01608 0.01268 0.98967 0.0
C1395 C 0.0136 0.00298 0.94722 0.0
C1396 C 0.01569 0.02745 0.97509 0.0
C1397 C 0.02211 0.01823 0.0917 0.0
C1398 C 0.00556 0.03603 0.99821 0.0
C1399 C 0.00557 0.0501 0.98634 0.0
C1400 C 0.01573 0.05576 0.95126 0.0
C1401 C 0.02559 0.04709 0.92666 0.0
C1402 C 0.02555 0.033 0.93841 0.0
H1403 H 0.02699 0.01309 0.12837 0.0
H1404 H 0.02903 0.02654 0.07658 0.0
H1405 H 0.01238 0.02306 0.10615 0.0
H1406 H 0.99771 0.03186 0.02576 0.0
H1407 H 0.99775 0.0566 0.00503 0.0
H1408 H 0.13276 0.71154 0.06543 0.0
H1409 H 0.11634 0.69244 0.0607 0.0
H1410 H 0.11486 0.69084 0.24183 0.0
H1411 H 0.13108 0.70997 0.24719 0.0
H1412 H 0.11728 0.66523 0.10764 0.0
H1413 H 0.07444 0.69658 0.1952 0.0
H1414 H 0.09016 0.70418 0.16922 0.0
H1415 H 0.08978 0.69617 0.23732 0.0
C1416 C 0.12901 0.70708 0.10426 0.0
C1417 C 0.13311 0.7124 0.15666 0.0
C1418 C 0.11965 0.69616 0.10146 0.0
C1419 C 0.11424 0.69042 0.15092 0.0
C1420 C 0.11873 0.69533 0.2032 0.0
H1421 H 0.04812 0.6308 0.20293 0.0
H1422 H 0.06789 0.64602 0.21812 0.0
C1423 C 0.12803 0.70624 0.20609 0.0
C1424 C 0.10357 0.67959 0.1479 0.0
H1425 H 0.06988 0.67308 0.17869 0.0
C1426 C 0.10692 0.66691 0.12321 0.0
C1427 C 0.0901 0.68184 0.16851 0.0
C1428 C 0.08581 0.69546 0.19366 0.0
C1429 C 0.0971 0.65637 0.11856 0.0
C1430 C 0.08356 0.65872 0.13832 0.0
C1431 C 0.0803 0.67131 0.16388 0.0
C1432 C 0.07236 0.64863 0.12959 0.0
C1433 C 0.1013 0.64281 0.09285 0.0
C1434 C 0.06833 0.64513 0.07484 0.0
C1435 C 0.05706 0.6365 0.06601 0.0
C1436 C 0.04953 0.63126 0.11182 0.0
C1437 C 0.05371 0.63464 0.16676 0.0
C1438 C 0.06499 0.64332 0.17553 0.0
H1439 H 0.11261 0.64122 0.09538 0.0
H1440 H 0.09606 0.63406 0.11397 0.0
H1441 H 0.09835 0.64273 0.04776 0.0
H1442 H 0.07368 0.64937 0.03881 0.0
H1443 H 0.05414 0.63414 0.02312 0.0
H1444 H 0.55225 0.86139 0.31097 0.0
H1445 H 0.57149 0.84519 0.30556 0.0
H1446 H 0.5745 0.84498 0.48649 0.0
H1447 H 0.55518 0.86098 0.49255 0.0
H1448 H 0.59872 0.84709 0.34639 0.0
H1449 H 0.56993 0.80418 0.44695 0.0
H1450 H 0.56153 0.81949 0.42106 0.0
H1451 H 0.57047 0.81981 0.48723 0.0
C1452 C 0.55702 0.85793 0.34964 0.0
C1453 C 0.55207 0.86237 0.40222 0.0
C1454 C 0.56802 0.8487 0.34644 0.0
C1455 C 0.57424 0.84374 0.39565 0.0
C1456 C 0.56964 0.84848 0.44808 0.0
H1457 H 0.63685 0.7807 0.44775 0.0
H1458 H 0.62112 0.80011 0.46128 0.0
C1459 C 0.55862 0.85767 0.45138 0.0
C1460 C 0.58536 0.83338 0.39211 0.0
H1461 H 0.59339 0.80024 0.42676 0.0
C1462 C 0.59758 0.83685 0.36398 0.0
C1463 C 0.58382 0.82004 0.41523 0.0
C1464 C 0.5707 0.81557 0.44391 0.0
C1465 C 0.60835 0.82731 0.35844 0.0
C1466 C 0.60673 0.81394 0.38098 0.0
C1467 C 0.5946 0.81054 0.40982 0.0
C1468 C 0.61714 0.80303 0.37256 0.0
C1469 C 0.62139 0.83163 0.32886 0.0
C1470 C 0.62009 0.79827 0.31821 0.0
C1471 C 0.62901 0.78719 0.31029 0.0
C1472 C 0.63512 0.78059 0.35668 0.0
C1473 C 0.63234 0.78555 0.41111 0.0
C1474 C 0.62336 0.79663 0.41896 0.0
H1475 H 0.62254 0.84301 0.32807 0.0
H1476 H 0.63059 0.82709 0.34947 0.0
H1477 H 0.62108 0.82795 0.2847 0.0
H1478 H 0.61517 0.8029 0.28193 0.0
H1479 H 0.6309 0.78364 0.26779 0.0
H1480 H 0.48142 0.36234 0.51022 0.0
H1481 H 0.46211 0.34647 0.51972 0.0
H1482 H 0.46422 0.35014 0.70028 0.0
H1483 H 0.48347 0.36623 0.69129 0.0
H1484 H 0.46361 0.32149 0.57414 0.0
H1485 H 0.42299 0.35429 0.66926 0.0
H1486 H 0.43811 0.36137 0.63577 0.0
H1487 H 0.43915 0.35459 0.70597 0.0
C1488 C 0.4777 0.35993 0.55202 0.0
C1489 C 0.48404 0.36552 0.60006 0.0
C1490 C 0.46664 0.35087 0.5573 0.0
C1491 C 0.46166 0.34724 0.61062 0.0
C1492 C 0.46773 0.35302 0.65868 0.0
H1493 H 0.40599 0.2846 0.73174 0.0
H1494 H 0.42193 0.30389 0.72127 0.0
C1495 C 0.47879 0.36215 0.65347 0.0
C1496 C 0.4509 0.33653 0.61574 0.0
H1497 H 0.41863 0.33017 0.66643 0.0
C1498 C 0.45373 0.32341 0.59393 0.0
C1499 C 0.43807 0.33908 0.64184 0.0
C1500 C 0.4343 0.35312 0.66414 0.0
C1501 C 0.44416 0.31267 0.59829 0.0
C1502 C 0.43134 0.3152 0.62442 0.0
C1503 C 0.42848 0.32832 0.64628 0.0
C1504 C 0.42094 0.30421 0.63043 0.0
C1505 C 0.44799 0.29862 0.57614 0.0
C1506 C 0.41489 0.29823 0.58275 0.0
C1507 C 0.40581 0.28717 0.58847 0.0
C1508 C 0.40258 0.28194 0.64206 0.0
C1509 C 0.40832 0.2883 0.68982 0.0
C1510 C 0.41739 0.29935 0.684 0.0
H1511 H 0.45924 0.29764 0.56891 0.0
H1512 H 0.44469 0.29042 0.60581 0.0
H1513 H 0.44268 0.29686 0.53545 0.0
H1514 H 0.41737 0.302 0.54107 0.0
H1515 H 0.4015 0.28259 0.55084 0.0
H1516 H 0.98203 0.13042 0.80914 0.0
H1517 H 0.96259 0.14622 0.79929 0.0
H1518 H 0.96161 0.152 0.97903 0.0
H1519 H 0.98096 0.13613 0.9896 0.0
H1520 H 0.93496 0.14852 0.9259 0.0
H1521 H 0.96759 0.18829 0.82309 0.0
H1522 H 0.96813 0.1715 0.79139 0.0
H1523 H 0.97477 0.17391 0.86119 0.0
C1524 C 0.97764 0.13496 0.84667 0.0
C1525 C 0.98316 0.13212 0.90012 0.0
C1526 C 0.96655 0.14401 0.8409 0.0
C1527 C 0.96083 0.15039 0.88838 0.0
C1528 C 0.96595 0.1472 0.94191 0.0
H1529 H 0.89974 0.21381 0.94839 0.0
H1530 H 0.91562 0.19439 0.95754 0.0
C1531 C 0.97703 0.13816 0.94777 0.0
C1532 C 0.94992 0.16087 0.88209 0.0
H1533 H 0.94384 0.19297 0.82967 0.0
C1534 C 0.93685 0.15825 0.90487 0.0
C1535 C 0.9525 0.17354 0.85481 0.0
C1536 C 0.96653 0.17709 0.83157 0.0
C1537 C 0.92618 0.16794 0.90025 0.0
C1538 C 0.92879 0.18063 0.87305 0.0
C1539 C 0.94186 0.18321 0.85029 0.0
C1540 C 0.91821 0.19151 0.86788 0.0
C1541 C 0.91217 0.16443 0.92359 0.0
C1542 C 0.91449 0.19638 0.8145 0.0
C1543 C 0.90555 0.20754 0.80911 0.0
C1544 C 0.90018 0.21409 0.85709 0.0
C1545 C 0.90365 0.20897 0.91059 0.0
C1546 C 0.91265 0.19781 0.91591 0.0
H1547 H 0.91088 0.15315 0.92934 0.0
H1548 H 0.91092 0.16942 0.96526 0.0
H1549 H 0.90387 0.16826 0.89553 0.0
H1550 H 0.91871 0.19168 0.77692 0.0
H1551 H 0.90307 0.21116 0.76725 0.0
H1552 H 0.13771 0.2832 0.94623 0.0
H1553 H 0.12195 0.30263 0.95814 0.0
H1554 H 0.11465 0.30344 0.77931 0.0
H1555 H 0.13046 0.28416 0.7667 0.0
H1556 H 0.11841 0.32998 0.82984 0.0
H1557 H 0.07984 0.29776 0.9422 0.0
H1558 H 0.09691 0.29761 0.97128 0.0
H1559 H 0.09392 0.29041 0.90279 0.0
C1560 C 0.13284 0.28756 0.90935 0.0
C1561 C 0.13525 0.28202 0.85557 0.0
C1562 C 0.12381 0.29863 0.91629 0.0
C1563 C 0.11701 0.3043 0.86968 0.0
C1564 C 0.11977 0.29915 0.8158 0.0
H1565 H 0.05273 0.36361 0.80481 0.0
H1566 H 0.07236 0.34793 0.79843 0.0
C1567 C 0.12879 0.2881 0.80876 0.0
C1568 C 0.10657 0.31522 0.87704 0.0
H1569 H 0.07472 0.32131 0.93201 0.0
C1570 C 0.10886 0.32814 0.8523 0.0
C1571 C 0.09415 0.31272 0.90627 0.0
C1572 C 0.09094 0.29885 0.93183 0.0
C1573 C 0.09904 0.33869 0.85634 0.0
C1574 C 0.08654 0.33612 0.88496 0.0
C1575 C 0.08434 0.32325 0.91019 0.0
C1576 C 0.0754 0.34648 0.88843 0.0
C1577 C 0.10219 0.35253 0.83053 0.0
C1578 C 0.07051 0.35072 0.94112 0.0
C1579 C 0.05922 0.35955 0.94496 0.0
C1580 C 0.05255 0.36427 0.89608 0.0
C1581 C 0.05765 0.36021 0.84325 0.0
C1582 C 0.06893 0.35133 0.8395 0.0
H1583 H 0.11343 0.35402 0.82443 0.0
H1584 H 0.09717 0.3532 0.78871 0.0
H1585 H 0.09818 0.36103 0.85713 0.0
H1586 H 0.07532 0.34704 0.97938 0.0
H1587 H 0.05561 0.36251 0.98634 0.0
H1588 H 0.98777 0.86424 0.20608 0.0
H1589 H 0.96871 0.84793 0.21783 0.0
H1590 H 0.96263 0.84718 0.03824 0.0
H1591 H 0.98165 0.86326 0.02587 0.0
H1592 H 0.94031 0.84884 0.18173 0.0
H1593 H 0.96986 0.80661 0.08075 0.0
H1594 H 0.97788 0.82227 0.10516 0.0
H1595 H 0.96878 0.82203 0.03932 0.0
C1596 C 0.9823 0.86068 0.16913 0.0
C1597 C 0.98636 0.86491 0.11498 0.0
C1598 C 0.97142 0.85139 0.17595 0.0
C1599 C 0.96447 0.84619 0.1288 0.0
C1600 C 0.96807 0.85088 0.07503 0.0
H1601 H 0.90273 0.78489 0.05992 0.0
H1602 H 0.91904 0.80402 0.05663 0.0
C1603 C 0.97894 0.8601 0.06812 0.0
C1604 C 0.95381 0.83546 0.13516 0.0
H1605 H 0.94618 0.80242 0.09788 0.0
C1606 C 0.94158 0.83865 0.16377 0.0
C1607 C 0.95558 0.82219 0.1118 0.0
C1608 C 0.96878 0.81798 0.08297 0.0
C1609 C 0.93087 0.82899 0.16815 0.0
C1610 C 0.93258 0.81581 0.14387 0.0
C1611 C 0.94488 0.81259 0.11601 0.0
C1612 C 0.9218 0.8051 0.14681 0.0
C1613 C 0.9177 0.83306 0.19741 0.0
C1614 C 0.91793 0.79943 0.19868 0.0
C1615 C 0.90862 0.78847 0.20077 0.0
C1616 C 0.90308 0.78295 0.15092 0.0
C1617 C 0.9068 0.78886 0.09909 0.0
C1618 C 0.91611 0.7998 0.0971 0.0
H1619 H 0.9168 0.8444 0.20203 0.0
H1620 H 0.9086 0.82918 0.17399 0.0
H1621 H 0.91753 0.82843 0.24007 0.0
H1622 H 0.9224 0.80321 0.23744 0.0
H1623 H 0.90599 0.78416 0.2414 0.0
H1624 H 0.47189 0.62198 0.35098 0.0
H1625 H 0.45252 0.6381 0.34726 0.0
H1626 H 0.4734 0.66474 0.465 0.0
H1627 H 0.49218 0.6481 0.47212 0.0
H1628 H 0.44802 0.66512 0.48826 0.0
H1629 H 0.452 0.67195 0.25757 0.0
H1630 H 0.44811 0.65451 0.27606 0.0
H1631 H 0.46433 0.662 0.29674 0.0
C1632 C 0.47223 0.63125 0.37625 0.0
C1633 C 0.48351 0.63391 0.41149 0.0
C1634 C 0.46125 0.64052 0.37374 0.0
C1635 C 0.46166 0.65288 0.40444 0.0
C1636 C 0.47283 0.65533 0.44067 0.0
H1637 H 0.41805 0.72656 0.31418 0.0
H1638 H 0.43414 0.70757 0.32804 0.0
C1639 C 0.48358 0.64585 0.44465 0.0
C1640 C 0.45066 0.66342 0.39854 0.0
H1641 H 0.43303 0.68256 0.30223 0.0
C1642 C 0.4448 0.66899 0.44755 0.0
C1643 C 0.44654 0.66861 0.34546 0.0
C1644 C 0.45318 0.66406 0.29108 0.0
C1645 C 0.43521 0.67979 0.44514 0.0
C1646 C 0.43076 0.68465 0.39199 0.0
C1647 C 0.43636 0.67882 0.343 0.0
C1648 C 0.42098 0.69632 0.38568 0.0
C1649 C 0.4305 0.68622 0.49967 0.0
C1650 C 0.40819 0.69642 0.41346 0.0
C1651 C 0.3992 0.70756 0.40707 0.0
C1652 C 0.40261 0.71847 0.37098 0.0
C1653 C 0.41519 0.71822 0.34211 0.0
C1654 C 0.42436 0.70735 0.34995 0.0
H1655 H 0.43798 0.68433 0.53416 0.0
H1656 H 0.42908 0.6975 0.49527 0.0
H1657 H 0.42055 0.68156 0.51242 0.0
H1658 H 0.40509 0.68785 0.43963 0.0
H1659 H 0.38944 0.70749 0.42913 0.0
H1660 H 0.63034 0.21119 0.73395 0.0
H1661 H 0.61451 0.19184 0.7238 0.0
H1662 H 0.61771 0.1947 0.54329 0.0
H1663 H 0.6335 0.21419 0.55282 0.0
H1664 H 0.59053 0.19445 0.58531 0.0
H1665 H 0.62151 0.15174 0.67517 0.0
H1666 H 0.62051 0.16683 0.71869 0.0
H1667 H 0.6291 0.16774 0.65184 0.0
C1668 C 0.62781 0.20764 0.69201 0.0
C1669 C 0.63317 0.21428 0.64415 0.0
C1670 C 0.61883 0.19651 0.68637 0.0
C1671 C 0.6151 0.19175 0.63285 0.0
C1672 C 0.62056 0.19819 0.58498 0.0
H1673 H 0.55376 0.13382 0.51414 0.0
H1674 H 0.57283 0.15001 0.52218 0.0
C1675 C 0.62958 0.20932 0.59054 0.0
C1676 C 0.60467 0.18076 0.62689 0.0
H1677 H 0.59773 0.14723 0.65947 0.0
C1678 C 0.59214 0.18409 0.60105 0.0
C1679 C 0.60679 0.16732 0.64798 0.0
C1680 C 0.62025 0.16311 0.67457 0.0
C1681 C 0.58151 0.17439 0.59666 0.0
C1682 C 0.58362 0.16093 0.61767 0.0
C1683 C 0.59618 0.15757 0.64341 0.0
C1684 C 0.57284 0.15024 0.61315 0.0
C1685 C 0.568 0.17875 0.57089 0.0
C1686 C 0.56691 0.14457 0.66174 0.0
C1687 C 0.55603 0.1352 0.65738 0.0
C1688 C 0.55094 0.13135 0.60428 0.0
C1689 C 0.5573 0.13667 0.55573 0.0
C1690 C 0.56818 0.14597 0.56017 0.0
H1691 H 0.56685 0.19013 0.57029 0.0
H1692 H 0.56752 0.17504 0.5268 0.0
H1693 H 0.55917 0.17426 0.59422 0.0
H1694 H 0.57045 0.1477 0.70303 0.0
H1695 H 0.5514 0.13126 0.69557 0.0
H1696 H 0.98276 0.36508 0.81844 0.0
H1697 H 0.96323 0.34954 0.81034 0.0
H1698 H 0.9616 0.34563 0.99091 0.0
H1699 H 0.98143 0.36107 0.99962 0.0
H1700 H 0.96146 0.32078 0.93692 0.0
H1701 H 0.92261 0.35516 0.84042 0.0
H1702 H 0.93857 0.35503 0.80245 0.0
H1703 H 0.93808 0.36161 0.87319 0.0
C1704 C 0.97819 0.36107 0.85664 0.0
C1705 C 0.9837 0.36432 0.90976 0.0
C1706 C 0.96692 0.35226 0.85185 0.0
C1707 C 0.96081 0.34662 0.90002 0.0
C1708 C 0.96612 0.34997 0.95322 0.0
H1709 H 0.89778 0.28402 0.94132 0.0
H1710 H 0.91375 0.30307 0.9555 0.0
C1711 C 0.97745 0.35879 0.9581 0.0
C1712 C 0.94963 0.33635 0.89428 0.0
H1713 H 0.91806 0.33093 0.83491 0.0
C1714 C 0.95189 0.32304 0.91527 0.0
C1715 C 0.93719 0.33932 0.86571 0.0
C1716 C 0.93389 0.3536 0.84464 0.0
C1717 C 0.94224 0.31251 0.90706 0.0
C1718 C 0.92994 0.31542 0.87759 0.0
C1719 C 0.92756 0.32875 0.85719 0.0
C1720 C 0.91946 0.30467 0.86787 0.0
C1721 C 0.9454 0.29825 0.92866 0.0
C1722 C 0.9171 0.29958 0.8135 0.0
C1723 C 0.90794 0.28865 0.80505 0.0
C1724 C 0.90098 0.28271 0.85093 0.0
C1725 C 0.90303 0.28825 0.90503 0.0
C1726 C 0.91217 0.29913 0.91335 0.0
H1727 H 0.95641 0.29707 0.94036 0.0
H1728 H 0.93907 0.29618 0.96659 0.0
H1729 H 0.94279 0.29036 0.89656 0.0
H1730 H 0.92262 0.30381 0.77788 0.0
H1731 H 0.90656 0.28468 0.76286 0.0
H1732 H 0.48176 0.12735 0.69159 0.0
H1733 H 0.46242 0.14293 0.70633 0.0
H1734 H 0.46034 0.1507 0.52801 0.0
H1735 H 0.47975 0.13505 0.5125 0.0
H1736 H 0.46319 0.17128 0.67414 0.0
H1737 H 0.41973 0.14307 0.57521 0.0
H1738 H 0.43542 0.13463 0.59706 0.0
H1739 H 0.43505 0.14448 0.53316 0.0
C1740 C 0.47712 0.13222 0.65525 0.0
C1741 C 0.48237 0.12999 0.60079 0.0
C1742 C 0.46605 0.14111 0.66387 0.0
C1743 C 0.45992 0.14786 0.61827 0.0
C1744 C 0.46483 0.14541 0.56366 0.0
H1745 H 0.40136 0.21245 0.56882 0.0
H1746 H 0.41694 0.19289 0.56221 0.0
C1747 C 0.47597 0.13653 0.55493 0.0
C1748 C 0.44914 0.1583 0.62851 0.0
H1749 H 0.41561 0.16632 0.60132 0.0
C1750 C 0.45274 0.17017 0.65871 0.0
C1751 C 0.43557 0.15678 0.60813 0.0
C1752 C 0.43112 0.14401 0.57694 0.0
C1753 C 0.44324 0.18081 0.6676 0.0
C1754 C 0.42966 0.17936 0.64687 0.0
C1755 C 0.426 0.16737 0.61739 0.0
C1756 C 0.41941 0.19056 0.65213 0.0
C1757 C 0.44799 0.19373 0.6971 0.0
C1758 C 0.41535 0.19555 0.70504 0.0
C1759 C 0.4065 0.20687 0.70909 0.0
C1760 C 0.40145 0.21327 0.66021 0.0
C1761 C 0.4051 0.20784 0.60739 0.0
C1762 C 0.41399 0.19661 0.60344 0.0
H1763 H 0.4594 0.19451 0.69824 0.0
H1764 H 0.44384 0.20305 0.67611 0.0
H1765 H 0.44421 0.19362 0.74115 0.0
H1766 H 0.41918 0.19081 0.74318 0.0
H1767 H 0.40377 0.2107 0.75041 0.0
H1768 H 0.63927 0.71024 0.43549 0.0
H1769 H 0.62357 0.69099 0.44993 0.0
H1770 H 0.6134 0.69115 0.27343 0.0
H1771 H 0.6292 0.71045 0.25819 0.0
H1772 H 0.59502 0.69252 0.42544 0.0
H1773 H 0.62068 0.64996 0.30973 0.0
H1774 H 0.62973 0.66527 0.33207 0.0
H1775 H 0.61882 0.66578 0.27116 0.0
C1776 C 0.63385 0.70611 0.39943 0.0
C1777 C 0.63545 0.71196 0.34563 0.0
C1778 C 0.62488 0.69509 0.40788 0.0
C1779 C 0.61743 0.6896 0.36272 0.0
C1780 C 0.61924 0.69512 0.30866 0.0
H1781 H 0.55091 0.63269 0.32006 0.0
H1782 H 0.57053 0.64813 0.31052 0.0
C1783 C 0.62821 0.7062 0.30011 0.0
C1784 C 0.60693 0.67889 0.37325 0.0
H1785 H 0.5978 0.6459 0.34106 0.0
C1786 C 0.59566 0.68228 0.40744 0.0
C1787 C 0.60784 0.66559 0.3495 0.0
C1788 C 0.61996 0.66133 0.31391 0.0
C1789 C 0.58501 0.67284 0.41725 0.0
C1790 C 0.58585 0.65954 0.39325 0.0
C1791 C 0.59723 0.65609 0.35961 0.0
C1792 C 0.57461 0.64937 0.39981 0.0
C1793 C 0.57273 0.67739 0.45144 0.0
C1794 C 0.57059 0.64468 0.45322 0.0
C1795 C 0.55925 0.63591 0.45899 0.0
C1796 C 0.55185 0.63158 0.41131 0.0
C1797 C 0.5563 0.63587 0.35776 0.0
C1798 C 0.56756 0.64468 0.35213 0.0
H1799 H 0.57217 0.68877 0.45521 0.0
H1800 H 0.56299 0.67363 0.43238 0.0
H1801 H 0.57353 0.67304 0.49448 0.0
H1802 H 0.5761 0.64795 0.49048 0.0
H1803 H 0.55619 0.63269 0.50077 0.0
H1804 H 0.05206 0.85556 0.00909 0.0
H1805 H 0.07094 0.83903 0.0205 0.0
H1806 H 0.07932 0.85523 0.18573 0.0
H1807 H 0.0605 0.87169 0.17514 0.0
H1808 H 0.10372 0.8491 0.10438 0.0
H1809 H 0.0663 0.80675 0.14536 0.0
H1810 H 0.06329 0.81775 0.08558 0.0
H1811 H 0.06188 0.82465 0.15527 0.0
C1812 C 0.05805 0.85574 0.04751 0.0
C1813 C 0.05469 0.86485 0.09142 0.0
C1814 C 0.06879 0.84629 0.05395 0.0
C1815 C 0.07639 0.84591 0.10408 0.0
C1816 C 0.07352 0.8554 0.14681 0.0
H1817 H 0.12674 0.78094 0.24617 0.0
H1818 H 0.11134 0.80065 0.23254 0.0
C1819 C 0.06273 0.86475 0.14067 0.0
C1820 C 0.08674 0.83506 0.11377 0.0
H1821 H 0.08984 0.80098 0.14597 0.0
C1822 C 0.10074 0.83856 0.11328 0.0
C1823 C 0.08271 0.82142 0.12617 0.0
C1824 C 0.06774 0.81732 0.12854 0.0
C1825 C 0.1109 0.82863 0.12423 0.0
C1826 C 0.10687 0.81494 0.13591 0.0
C1827 C 0.09285 0.81151 0.13703 0.0
C1828 C 0.11702 0.80388 0.14557 0.0
C1829 C 0.12584 0.83284 0.12388 0.0
C1830 C 0.12531 0.79928 0.10119 0.0
C1831 C 0.13402 0.78801 0.10863 0.0
C1832 C 0.13461 0.78113 0.16071 0.0
C1833 C 0.12655 0.78602 0.20561 0.0
C1834 C 0.11774 0.79725 0.19792 0.0
H1835 H 0.12708 0.8442 0.12579 0.0
H1836 H 0.1314 0.82814 0.1599 0.0
H1837 H 0.13074 0.8291 0.08457 0.0
H1838 H 0.12474 0.80416 0.06028 0.0
H1839 H 0.1401 0.78454 0.07317 0.0
H1840 H 0.89498 0.71061 0.06517 0.0
H1841 H 0.91035 0.69101 0.05218 0.0
H1842 H 0.92375 0.69449 0.22444 0.0
H1843 H 0.90833 0.71421 0.23811 0.0
H1844 H 0.94524 0.69435 0.13903 0.0
H1845 H 0.90841 0.65094 0.11524 0.0
H1846 H 0.90466 0.66601 0.07405 0.0
H1847 H 0.90385 0.66693 0.1494 0.0
C1848 C 0.90105 0.70713 0.10063 0.0
C1849 C 0.90049 0.71402 0.15266 0.0
C1850 C 0.90976 0.69586 0.09314 0.0
C1851 C 0.91807 0.69127 0.13744 0.0
C1852 C 0.91732 0.69788 0.18987 0.0
H1853 H 0.97423 0.623 0.15931 0.0
H1854 H 0.95528 0.63926 0.17055 0.0
C1855 C 0.9085 0.70911 0.19761 0.0
C1856 C 0.92833 0.68031 0.12738 0.0
H1857 H 0.93178 0.64642 0.09193 0.0
C1858 C 0.94232 0.68385 0.12895 0.0
C1859 C 0.92443 0.66667 0.11422 0.0
C1860 C 0.90953 0.66232 0.11348 0.0
C1861 C 0.95255 0.67411 0.11698 0.0
C1862 C 0.94865 0.66053 0.10281 0.0
C1863 C 0.93467 0.65692 0.10204 0.0
C1864 C 0.95908 0.6498 0.09202 0.0
C1865 C 0.96748 0.67832 0.12019 0.0
C1866 C 0.96721 0.65014 0.04322 0.0
C1867 C 0.97804 0.64079 0.03638 0.0
C1868 C 0.98094 0.63108 0.07858 0.0
C1869 C 0.97235 0.63043 0.12621 0.0
C1870 C 0.96149 0.63967 0.13271 0.0
H1871 H 0.96881 0.68863 0.13966 0.0
H1872 H 0.97346 0.67067 0.14489 0.0
H1873 H 0.97188 0.67863 0.07713 0.0
H1874 H 0.9654 0.65788 0.01125 0.0
H1875 H 0.98446 0.64155 0.99926 0.0
H1876 H 0.13756 0.21233 0.93634 0.0
H1877 H 0.1216 0.19323 0.94938 0.0
H1878 H 0.11376 0.19227 0.77097 0.0
H1879 H 0.1298 0.21145 0.75714 0.0
H1880 H 0.0931 0.19477 0.91618 0.0
H1881 H 0.12096 0.15121 0.81567 0.0
H1882 H 0.1296 0.16663 0.83936 0.0
H1883 H 0.11984 0.16683 0.77529 0.0
C1884 C 0.1326 0.20799 0.89961 0.0
C1885 C 0.13492 0.21348 0.84563 0.0
C1886 C 0.12348 0.19706 0.90726 0.0
C1887 C 0.11661 0.19131 0.86114 0.0
C1888 C 0.11914 0.19647 0.80698 0.0
H1889 H 0.05194 0.13177 0.81835 0.0
H1890 H 0.07114 0.14771 0.80792 0.0
C1891 C 0.12824 0.20747 0.79922 0.0
C1892 C 0.10601 0.18064 0.87056 0.0
H1893 H 0.09795 0.14708 0.84418 0.0
C1894 C 0.09417 0.1843 0.90078 0.0
C1895 C 0.10747 0.16707 0.85012 0.0
C1896 C 0.12019 0.1626 0.81862 0.0
C1897 C 0.08355 0.17481 0.91015 0.0
C1898 C 0.085 0.16118 0.88993 0.0
C1899 C 0.09691 0.1575 0.85991 0.0
C1900 C 0.07398 0.15081 0.89726 0.0
C1901 C 0.07068 0.1796 0.93995 0.0
C1902 C 0.06942 0.147 0.95111 0.0
C1903 C 0.05832 0.13795 0.95734 0.0
C1904 C 0.05172 0.13244 0.90975 0.0
C1905 C 0.05672 0.13586 0.85596 0.0
C1906 C 0.06773 0.14496 0.84983 0.0
H1907 H 0.06977 0.191 0.9398 0.0
H1908 H 0.06133 0.17518 0.9201 0.0
H1909 H 0.07102 0.17615 0.98441 0.0
H1910 H 0.07432 0.15116 0.9883 0.0
H1911 H 0.05482 0.13543 0.99934 0.0
H1912 H 0.63569 0.28442 0.5706 0.0
H1913 H 0.62025 0.30401 0.56233 0.0
H1914 H 0.61515 0.3048 0.74251 0.0
H1915 H 0.63049 0.28489 0.75135 0.0
H1916 H 0.5907 0.30512 0.68626 0.0
H1917 H 0.6254 0.34449 0.59544 0.0
H1918 H 0.62562 0.32871 0.55626 0.0
H1919 H 0.63175 0.32891 0.62771 0.0
C1920 C 0.63145 0.28882 0.60871 0.0
C1921 C 0.63432 0.28304 0.66172 0.0
C1922 C 0.6227 0.30013 0.60385 0.0
C1923 C 0.61674 0.30602 0.65183 0.0
C1924 C 0.61974 0.30046 0.70497 0.0
H1925 H 0.55348 0.36864 0.68727 0.0
H1926 H 0.57259 0.35288 0.70346 0.0
C1927 C 0.6285 0.28908 0.70993 0.0
C1928 C 0.60645 0.31717 0.64572 0.0
H1929 H 0.60114 0.34879 0.58658 0.0
C1930 C 0.59303 0.31475 0.66518 0.0
C1931 C 0.60951 0.32969 0.61791 0.0
C1932 C 0.62389 0.33318 0.59863 0.0
C1933 C 0.58247 0.32432 0.65602 0.0
C1934 C 0.58546 0.33667 0.62709 0.0
C1935 C 0.59891 0.33923 0.60838 0.0
C1936 C 0.57467 0.34703 0.61616 0.0
C1937 C 0.5681 0.32101 0.67598 0.0
C1938 C 0.56981 0.34923 0.56133 0.0
C1939 C 0.55883 0.35825 0.55173 0.0
C1940 C 0.55261 0.36525 0.5969 0.0
C1941 C 0.55792 0.36337 0.65148 0.0
C1942 C 0.56884 0.35435 0.66096 0.0
H1943 H 0.56698 0.31001 0.68795 0.0
H1944 H 0.56566 0.3274 0.71337 0.0
H1945 H 0.56043 0.32345 0.64281 0.0
H1946 H 0.57426 0.34367 0.52625 0.0
H1947 H 0.55504 0.35951 0.5092 0.0
H1948 H 0.48398 0.85799 0.4986 0.0
H1949 H 0.46401 0.84274 0.48805 0.0
H1950 H 0.459 0.8562 0.31654 0.0
H1951 H 0.47891 0.87137 0.32625 0.0
H1952 H 0.43312 0.85337 0.3953 0.0
H1953 H 0.46786 0.80799 0.37316 0.0
H1954 H 0.47105 0.81988 0.42988 0.0
H1955 H 0.47361 0.82532 0.3586 0.0
C1956 C 0.47852 0.85785 0.45889 0.0
C1957 C 0.48312 0.86578 0.41309 0.0
C1958 C 0.46714 0.84914 0.45298 0.0
C1959 C 0.46015 0.84836 0.40146 0.0
C1960 C 0.4643 0.85671 0.35658 0.0
H1961 H 0.40737 0.78501 0.26447 0.0
H1962 H 0.42329 0.80433 0.27661 0.0
C1963 C 0.47572 0.86531 0.36223 0.0
C1964 C 0.44916 0.8381 0.39276 0.0
H1965 H 0.44402 0.80387 0.36859 0.0
C1966 C 0.43544 0.84253 0.38969 0.0
C1967 C 0.45234 0.82405 0.38472 0.0
C1968 C 0.467 0.81893 0.3864 0.0
C1969 C 0.42473 0.83315 0.37933 0.0
C1970 C 0.42793 0.81908 0.37177 0.0
C1971 C 0.44166 0.8147 0.37435 0.0
C1972 C 0.41718 0.80858 0.36233 0.0
C1973 C 0.41012 0.83829 0.3758 0.0
C1974 C 0.4084 0.80475 0.40638 0.0
C1975 C 0.39938 0.79367 0.39982 0.0
C1976 C 0.39897 0.78626 0.34897 0.0
C1977 C 0.4074 0.79051 0.30411 0.0
C1978 C 0.41652 0.80152 0.31094 0.0
H1979 H 0.40963 0.84969 0.37269 0.0
H1980 H 0.40481 0.83374 0.33885 0.0
H1981 H 0.40443 0.83506 0.41408 0.0
H1982 H 0.4089 0.80999 0.44654 0.0
H1983 H 0.39301 0.7907 0.43517 0.0
loop_
_geom_bond_atom_site_label_1
_geom_bond_atom_site_label_2
_geom_bond_distance
_geom_bond_site_symmetry_2
_ccdc_geom_bond_type
Co0 O3 1.970 . S
Co0 N17 1.989 . S
Co0 O25 1.967 . S
Co0 O32 1.920 . S
Co1 O4 1.966 1_556 S
Co1 N10 2.023 . S
Co1 N18 1.993 1_556 S
Co1 O26 1.941 1_556 S
C2 O3 1.258 . S
C2 O4 1.263 . S
O3 Co0 1.970 . S
O3 C2 1.258 . S
O4 Co1 1.966 1_554 S
O4 C2 1.263 . S
C5 O6 1.235 . S
C5 O32 1.289 . S
O6 C5 1.235 . S
C7 C9 1.400 . S
C7 N10 1.351 . S
C7 C12 1.501 . S
C8 C9 1.387 . S
C8 N11 1.341 . S
C9 C7 1.400 . S
C9 C8 1.387 . S
N10 Co1 2.023 . S
N10 C7 1.351 . S
N10 N11 1.365 . S
N11 C8 1.341 . S
N11 N10 1.365 . S
N11 H31 0.862 . S
C12 C7 1.501 . S
C12 H13 0.961 . S
C12 H14 0.961 1_455 S
C12 H15 0.960 1_455 S
H13 C12 0.961 . S
H14 C12 0.961 1_655 S
H15 C12 0.960 1_655 S
C16 N17 1.342 . S
C16 C20 1.401 . S
C16 C21 1.499 . S
N17 Co0 1.989 . S
N17 C16 1.342 . S
N17 N18 1.388 . S
N18 Co1 1.993 1_554 S
N18 N17 1.388 . S
N18 C19 1.346 . S
C19 N18 1.346 . S
C19 C20 1.396 . S
C19 C29 1.510 1_554 S
C20 C16 1.401 . S
C20 C19 1.396 . S
C21 C16 1.499 . S
C21 H22 0.959 . S
C21 H23 0.960 . S
C21 H24 0.961 . S
H22 C21 0.959 . S
H23 C21 0.960 . S
H24 C21 0.961 . S
O25 Co0 1.967 . S
O25 C33 1.258 . S
O26 Co1 1.941 1_554 S
O26 C33 1.266 . S
H27 C29 0.959 . S
H28 C29 0.961 . S
C29 C19 1.510 1_556 S
C29 H27 0.959 . S
C29 H28 0.961 . S
C29 H30 0.960 . S
H30 C29 0.960 . S
H31 N11 0.862 . S
O32 Co0 1.920 . S
O32 C5 1.289 . S
C33 O25 1.258 . S
C33 O26 1.266 . S
Co34 O37 1.970 . S
Co34 N51 1.989 . S
Co34 O59 1.967 . S
Co34 O66 1.920 . S
Co35 O38 1.966 . S
Co35 N44 2.022 . S
Co35 N52 1.993 . S
Co35 O60 1.941 . S
C36 O37 1.258 . S
C36 O38 1.263 . S
O37 Co34 1.970 . S
O37 C36 1.258 . S
O38 Co35 1.966 . S
O38 C36 1.263 . S
C39 O40 1.235 . S
C39 O66 1.289 . S
O40 C39 1.235 . S
C41 C43 1.400 . S
C41 N44 1.351 . S
C41 C46 1.501 . S
C42 C43 1.387 . S
C42 N45 1.341 . S
C43 C41 1.400 . S
C43 C42 1.387 . S
N44 Co35 2.022 . S
N44 C41 1.351 . S
N44 N45 1.365 . S
N45 C42 1.341 . S
N45 N44 1.365 . S
N45 H65 0.862 . S
C46 C41 1.501 . S
C46 H47 0.961 . S
C46 H48 0.961 . S
C46 H49 0.960 . S
H47 C46 0.961 . S
H48 C46 0.961 . S
H49 C46 0.960 . S
C50 N51 1.342 . S
C50 C54 1.401 . S
C50 C55 1.499 . S
N51 Co34 1.989 . S
N51 C50 1.342 . S
N51 N52 1.388 . S
N52 Co35 1.993 . S
N52 N51 1.388 . S
N52 C53 1.346 . S
C53 N52 1.346 . S
C53 C54 1.396 . S
C53 C63 1.510 . S
C54 C50 1.401 . S
C54 C53 1.396 . S
C55 C50 1.499 . S
C55 H56 0.959 . S
C55 H57 0.960 . S
C55 H58 0.961 . S
H56 C55 0.959 . S
H57 C55 0.960 . S
H58 C55 0.961 . S
O59 Co34 1.967 . S
O59 C67 1.258 . S
O60 Co35 1.941 . S
O60 C67 1.266 . S
H61 C63 0.959 . S
H62 C63 0.961 . S
C63 C53 1.510 . S
C63 H61 0.959 . S
C63 H62 0.961 . S
C63 H64 0.960 . S
H64 C63 0.960 . S
H65 N45 0.862 . S
O66 Co34 1.920 . S
O66 C39 1.289 . S
C67 O59 1.258 . S
C67 O60 1.266 . S
Co68 O71 1.970 . S
Co68 N85 1.989 . S
Co68 O93 1.967 . S
Co68 O100 1.920 . S
Co69 O72 1.966 . S
Co69 N78 2.022 . S
Co69 N86 1.993 . S
Co69 O94 1.941 . S
C70 O71 1.258 . S
C70 O72 1.263 . S
O71 Co68 1.970 . S
O71 C70 1.258 . S
O72 Co69 1.966 . S
O72 C70 1.263 . S
C73 O74 1.235 . S
C73 O100 1.289 . S
O74 C73 1.235 . S
C75 C77 1.400 . S
C75 N78 1.351 . S
C75 C80 1.501 . S
C76 C77 1.387 . S
C76 N79 1.341 . S
C77 C75 1.400 . S
C77 C76 1.387 . S
N78 Co69 2.022 . S
N78 C75 1.351 . S
N78 N79 1.365 . S
N79 C76 1.341 . S
N79 N78 1.365 . S
N79 H99 0.862 . S
C80 C75 1.501 . S
C80 H81 0.961 . S
C80 H82 0.961 . S
C80 H83 0.960 . S
H81 C80 0.961 . S
H82 C80 0.961 . S
H83 C80 0.960 . S
C84 N85 1.342 . S
C84 C88 1.401 . S
C84 C89 1.499 . S
N85 Co68 1.989 . S
N85 C84 1.342 . S
N85 N86 1.388 . S
N86 Co69 1.993 . S
N86 N85 1.388 . S
N86 C87 1.346 . S
C87 N86 1.346 . S
C87 C88 1.396 . S
C87 C97 1.510 . S
C88 C84 1.401 . S
C88 C87 1.396 . S
C89 C84 1.499 . S
C89 H90 0.959 . S
C89 H91 0.960 . S
C89 H92 0.961 . S
H90 C89 0.959 . S
H91 C89 0.960 . S
H92 C89 0.961 . S
O93 Co68 1.967 . S
O93 C101 1.258 . S
O94 Co69 1.941 . S
O94 C101 1.266 . S
H95 C97 0.959 . S
H96 C97 0.961 . S
C97 C87 1.510 . S
C97 H95 0.959 . S
C97 H96 0.961 . S
C97 H98 0.960 . S
H98 C97 0.960 . S
H99 N79 0.862 . S
O100 Co68 1.920 . S
O100 C73 1.289 . S
C101 O93 1.258 . S
C101 O94 1.266 . S
Co102 O105 1.970 . S
Co102 N119 1.989 . S
Co102 O127 1.967 . S
Co102 O134 1.920 . S
Co103 O106 1.966 . S
Co103 N112 2.022 . S
Co103 N120 1.993 . S
Co103 O128 1.941 . S
C104 O105 1.258 . S
C104 O106 1.263 . S
O105 Co102 1.970 . S
O105 C104 1.258 . S
O106 Co103 1.966 . S
O106 C104 1.263 . S
C107 O108 1.235 . S
C107 O134 1.289 . S
O108 C107 1.235 . S
C109 C111 1.400 . S
C109 N112 1.351 . S
C109 C114 1.501 . S
C110 C111 1.387 . S
C110 N113 1.341 . S
C111 C109 1.400 . S
C111 C110 1.387 . S
N112 Co103 2.022 . S
N112 C109 1.351 . S
N112 N113 1.365 . S
N113 C110 1.341 . S
N113 N112 1.365 . S
N113 H133 0.862 . S
C114 C109 1.501 . S
C114 H115 0.961 . S
C114 H116 0.961 . S
C114 H117 0.960 . S
H115 C114 0.961 . S
H116 C114 0.961 . S
H117 C114 0.960 . S
C118 N119 1.342 . S
C118 C122 1.401 . S
C118 C123 1.499 . S
N119 Co102 1.989 . S
N119 C118 1.342 . S
N119 N120 1.388 . S
N120 Co103 1.993 . S
N120 N119 1.388 . S
N120 C121 1.346 . S
C121 N120 1.346 . S
C121 C122 1.396 . S
C121 C131 1.510 . S
C122 C118 1.401 . S
C122 C121 1.396 . S
C123 C118 1.499 . S
C123 H124 0.959 . S
C123 H125 0.960 . S
C123 H126 0.961 . S
H124 C123 0.959 . S
H125 C123 0.960 . S
H126 C123 0.961 . S
O127 Co102 1.967 . S
O127 C135 1.258 . S
O128 Co103 1.941 . S
O128 C135 1.266 . S
H129 C131 0.959 . S
H130 C131 0.961 . S
C131 C121 1.510 . S
C131 H129 0.959 . S
C131 H130 0.961 . S
C131 H132 0.960 . S
H132 C131 0.960 . S
H133 N113 0.862 . S
O134 Co102 1.920 . S
O134 C107 1.289 . S
C135 O127 1.258 . S
C135 O128 1.266 . S
Co136 O139 1.970 . S
Co136 N153 1.989 . S
Co136 O161 1.967 . S
Co136 O168 1.920 . S
Co137 O140 1.966 1_554 S
Co137 N146 2.023 . S
Co137 N154 1.993 1_554 S
Co137 O162 1.941 1_554 S
C138 O139 1.258 . S
C138 O140 1.263 . S
O139 Co136 1.970 . S
O139 C138 1.258 . S
O140 Co137 1.966 1_556 S
O140 C138 1.263 . S
C141 O142 1.235 . S
C141 O168 1.289 . S
O142 C141 1.235 . S
C143 C145 1.400 . S
C143 N146 1.351 . S
C143 C148 1.501 . S
C144 C145 1.387 . S
C144 N147 1.341 . S
C145 C143 1.400 . S
C145 C144 1.387 . S
N146 Co137 2.023 . S
N146 C143 1.351 . S
N146 N147 1.365 . S
N147 C144 1.341 . S
N147 N146 1.365 . S
N147 H167 0.862 . S
C148 C143 1.501 . S
C148 H149 0.961 . S
C148 H150 0.961 1_455 S
C148 H151 0.960 1_455 S
H149 C148 0.961 . S
H150 C148 0.961 1_655 S
H151 C148 0.960 1_655 S
C152 N153 1.342 . S
C152 C156 1.401 . S
C152 C157 1.499 . S
N153 Co136 1.989 . S
N153 C152 1.342 . S
N153 N154 1.388 . S
N154 Co137 1.993 1_556 S
N154 N153 1.388 . S
N154 C155 1.346 . S
C155 N154 1.346 . S
C155 C156 1.396 . S
C155 C165 1.510 1_556 S
C156 C152 1.401 . S
C156 C155 1.396 . S
C157 C152 1.499 . S
C157 H158 0.959 . S
C157 H159 0.960 . S
C157 H160 0.961 . S
H158 C157 0.959 . S
H159 C157 0.960 . S
H160 C157 0.961 . S
O161 Co136 1.967 . S
O161 C169 1.258 . S
O162 Co137 1.941 1_556 S
O162 C169 1.266 . S
H163 C165 0.959 . S
H164 C165 0.961 . S
C165 C155 1.510 1_554 S
C165 H163 0.959 . S
C165 H164 0.961 . S
C165 H166 0.960 . S
H166 C165 0.960 . S
H167 N147 0.862 . S
O168 Co136 1.920 . S
O168 C141 1.289 . S
C169 O161 1.258 . S
C169 O162 1.266 . S
Co170 O173 1.970 . S
Co170 N187 1.989 . S
Co170 O195 1.967 . S
Co170 O202 1.920 . S
Co171 O174 1.966 . S
Co171 N180 2.022 . S
Co171 N188 1.993 . S
Co171 O196 1.941 . S
C172 O173 1.258 . S
C172 O174 1.263 . S
O173 Co170 1.970 . S
O173 C172 1.258 . S
O174 Co171 1.966 . S
O174 C172 1.263 . S
C175 O176 1.235 . S
C175 O202 1.289 . S
O176 C175 1.235 . S
C177 C179 1.400 . S
C177 N180 1.351 . S
C177 C182 1.501 . S
C178 C179 1.387 . S
C178 N181 1.341 . S
C179 C177 1.400 . S
C179 C178 1.387 . S
N180 Co171 2.022 . S
N180 C177 1.351 . S
N180 N181 1.365 . S
N181 C178 1.341 . S
N181 N180 1.365 . S
N181 H201 0.862 . S
C182 C177 1.501 . S
C182 H183 0.961 . S
C182 H184 0.961 . S
C182 H185 0.960 . S
H183 C182 0.961 . S
H184 C182 0.961 . S
H185 C182 0.960 . S
C186 N187 1.342 . S
C186 C190 1.401 . S
C186 C191 1.499 . S
N187 Co170 1.989 . S
N187 C186 1.342 . S
N187 N188 1.388 . S
N188 Co171 1.993 . S
N188 N187 1.388 . S
N188 C189 1.346 . S
C189 N188 1.346 . S
C189 C190 1.396 . S
C189 C199 1.510 . S
C190 C186 1.401 . S
C190 C189 1.396 . S
C191 C186 1.499 . S
C191 H192 0.959 . S
C191 H193 0.960 . S
C191 H194 0.961 . S
H192 C191 0.959 . S
H193 C191 0.960 . S
H194 C191 0.961 . S
O195 Co170 1.967 . S
O195 C203 1.258 . S
O196 Co171 1.941 . S
O196 C203 1.266 . S
H197 C199 0.959 . S
H198 C199 0.961 . S
C199 C189 1.510 . S
C199 H197 0.959 . S
C199 H198 0.961 . S
C199 H200 0.960 . S
H200 C199 0.960 . S
H201 N181 0.862 . S
O202 Co170 1.920 . S
O202 C175 1.289 . S
C203 O195 1.258 . S
C203 O196 1.266 . S
Co204 O207 1.970 . S
Co204 N221 1.989 . S
Co204 O229 1.967 . S
Co204 O236 1.920 . S
Co205 O208 1.966 . S
Co205 N214 2.022 . S
Co205 N222 1.993 . S
Co205 O230 1.941 . S
C206 O207 1.258 . S
C206 O208 1.263 . S
O207 Co204 1.970 . S
O207 C206 1.258 . S
O208 Co205 1.966 . S
O208 C206 1.263 . S
C209 O210 1.235 . S
C209 O236 1.289 . S
O210 C209 1.235 . S
C211 C213 1.400 . S
C211 N214 1.351 . S
C211 C216 1.501 . S
C212 C213 1.387 . S
C212 N215 1.341 . S
C213 C211 1.400 . S
C213 C212 1.387 . S
N214 Co205 2.022 . S
N214 C211 1.351 . S
N214 N215 1.365 . S
N215 C212 1.341 . S
N215 N214 1.365 . S
N215 H235 0.862 . S
C216 C211 1.501 . S
C216 H217 0.961 . S
C216 H218 0.961 . S
C216 H219 0.960 . S
H217 C216 0.961 . S
H218 C216 0.961 . S
H219 C216 0.960 . S
C220 N221 1.342 . S
C220 C224 1.401 . S
C220 C225 1.499 . S
N221 Co204 1.989 . S
N221 C220 1.342 . S
N221 N222 1.388 . S
N222 Co205 1.993 . S
N222 N221 1.388 . S
N222 C223 1.346 . S
C223 N222 1.346 . S
C223 C224 1.396 . S
C223 C233 1.510 . S
C224 C220 1.401 . S
C224 C223 1.396 . S
C225 C220 1.499 . S
C225 H226 0.959 . S
C225 H227 0.960 . S
C225 H228 0.961 . S
H226 C225 0.959 . S
H227 C225 0.960 . S
H228 C225 0.961 . S
O229 Co204 1.967 . S
O229 C237 1.258 . S
O230 Co205 1.941 . S
O230 C237 1.266 . S
H231 C233 0.959 . S
H232 C233 0.961 . S
C233 C223 1.510 . S
C233 H231 0.959 . S
C233 H232 0.961 . S
C233 H234 0.960 . S
H234 C233 0.960 . S
H235 N215 0.862 . S
O236 Co204 1.920 . S
O236 C209 1.289 . S
C237 O229 1.258 . S
C237 O230 1.266 . S
Co238 O241 1.970 . S
Co238 N255 1.989 . S
Co238 O263 1.967 . S
Co238 O270 1.920 . S
Co239 O242 1.966 . S
Co239 N248 2.022 . S
Co239 N256 1.993 . S
Co239 O264 1.941 . S
C240 O241 1.258 . S
C240 O242 1.263 . S
O241 Co238 1.970 . S
O241 C240 1.258 . S
O242 Co239 1.966 . S
O242 C240 1.263 . S
C243 O244 1.235 . S
C243 O270 1.289 . S
O244 C243 1.235 . S
C245 C247 1.400 . S
C245 N248 1.351 . S
C245 C250 1.501 . S
C246 C247 1.387 . S
C246 N249 1.341 . S
C247 C245 1.400 . S
C247 C246 1.387 . S
N248 Co239 2.022 . S
N248 C245 1.351 . S
N248 N249 1.365 . S
N249 C246 1.341 . S
N249 N248 1.365 . S
N249 H269 0.862 . S
C250 C245 1.501 . S
C250 H251 0.961 . S
C250 H252 0.961 . S
C250 H253 0.960 . S
H251 C250 0.961 . S
H252 C250 0.961 . S
H253 C250 0.960 . S
C254 N255 1.342 . S
C254 C258 1.401 . S
C254 C259 1.499 . S
N255 Co238 1.989 . S
N255 C254 1.342 . S
N255 N256 1.388 . S
N256 Co239 1.993 . S
N256 N255 1.388 . S
N256 C257 1.346 . S
C257 N256 1.346 . S
C257 C258 1.396 . S
C257 C267 1.510 . S
C258 C254 1.401 . S
C258 C257 1.396 . S
C259 C254 1.499 . S
C259 H260 0.959 . S
C259 H261 0.960 . S
C259 H262 0.961 . S
H260 C259 0.959 . S
H261 C259 0.960 . S
H262 C259 0.961 . S
O263 Co238 1.967 . S
O263 C271 1.258 . S
O264 Co239 1.941 . S
O264 C271 1.266 . S
H265 C267 0.959 . S
H266 C267 0.961 . S
C267 C257 1.510 . S
C267 H265 0.959 . S
C267 H266 0.961 . S
C267 H268 0.960 . S
H268 C267 0.960 . S
H269 N249 0.862 . S
O270 Co238 1.920 . S
O270 C243 1.289 . S
C271 O263 1.258 . S
C271 O264 1.266 . S
Co272 O275 1.970 . S
Co272 N289 1.989 . S
Co272 O297 1.967 . S
Co272 O304 1.920 . S
Co273 O276 1.966 . S
Co273 N282 2.022 . S
Co273 N290 1.993 . S
Co273 O298 1.941 . S
C274 O275 1.258 . S
C274 O276 1.263 . S
O275 Co272 1.970 . S
O275 C274 1.258 . S
O276 Co273 1.966 . S
O276 C274 1.263 . S
C277 O278 1.235 . S
C277 O304 1.289 . S
O278 C277 1.235 . S
C279 C281 1.400 . S
C279 N282 1.351 . S
C279 C284 1.501 . S
C280 C281 1.387 . S
C280 N283 1.341 . S
C281 C279 1.400 . S
C281 C280 1.387 . S
N282 Co273 2.022 . S
N282 C279 1.351 . S
N282 N283 1.365 . S
N283 C280 1.341 . S
N283 N282 1.365 . S
N283 H303 0.862 . S
C284 C279 1.501 . S
C284 H285 0.961 . S
C284 H286 0.961 . S
C284 H287 0.960 . S
H285 C284 0.961 . S
H286 C284 0.961 . S
H287 C284 0.960 . S
C288 N289 1.342 . S
C288 C292 1.401 . S
C288 C293 1.499 . S
N289 Co272 1.989 . S
N289 C288 1.342 . S
N289 N290 1.388 . S
N290 Co273 1.993 . S
N290 N289 1.388 . S
N290 C291 1.346 . S
C291 N290 1.346 . S
C291 C292 1.396 . S
C291 C301 1.510 . S
C292 C288 1.401 . S
C292 C291 1.396 . S
C293 C288 1.499 . S
C293 H294 0.959 . S
C293 H295 0.960 . S
C293 H296 0.961 . S
H294 C293 0.959 . S
H295 C293 0.960 . S
H296 C293 0.961 . S
O297 Co272 1.967 . S
O297 C305 1.258 . S
O298 Co273 1.941 . S
O298 C305 1.266 . S
H299 C301 0.959 . S
H300 C301 0.961 . S
C301 C291 1.510 . S
C301 H299 0.959 . S
C301 H300 0.961 . S
C301 H302 0.960 . S
H302 C301 0.960 . S
H303 N283 0.862 . S
O304 Co272 1.920 . S
O304 C277 1.289 . S
C305 O297 1.258 . S
C305 O298 1.266 . S
Co306 O309 1.970 . S
Co306 N323 1.989 . S
Co306 O331 1.967 . S
Co306 O338 1.920 . S
Co307 O310 1.966 . S
Co307 N316 2.022 . S
Co307 N324 1.993 . S
Co307 O332 1.941 . S
C308 O309 1.258 . S
C308 O310 1.263 . S
O309 Co306 1.970 . S
O309 C308 1.258 . S
O310 Co307 1.966 . S
O310 C308 1.263 . S
C311 O312 1.235 . S
C311 O338 1.289 . S
O312 C311 1.235 . S
C313 C315 1.400 . S
C313 N316 1.351 . S
C313 C318 1.501 . S
C314 C315 1.387 . S
C314 N317 1.341 . S
C315 C313 1.400 . S
C315 C314 1.387 . S
N316 Co307 2.022 . S
N316 C313 1.351 . S
N316 N317 1.365 . S
N317 C314 1.341 . S
N317 N316 1.365 . S
N317 H337 0.862 . S
C318 C313 1.501 . S
C318 H319 0.961 . S
C318 H320 0.961 . S
C318 H321 0.960 . S
H319 C318 0.961 . S
H320 C318 0.961 . S
H321 C318 0.960 . S
C322 N323 1.342 . S
C322 C326 1.401 . S
C322 C327 1.499 . S
N323 Co306 1.989 . S
N323 C322 1.342 . S
N323 N324 1.388 . S
N324 Co307 1.993 . S
N324 N323 1.388 . S
N324 C325 1.346 . S
C325 N324 1.346 . S
C325 C326 1.396 . S
C325 C335 1.510 . S
C326 C322 1.401 . S
C326 C325 1.396 . S
C327 C322 1.499 . S
C327 H328 0.959 . S
C327 H329 0.960 . S
C327 H330 0.961 . S
H328 C327 0.959 . S
H329 C327 0.960 . S
H330 C327 0.961 . S
O331 Co306 1.967 . S
O331 C339 1.258 . S
O332 Co307 1.941 . S
O332 C339 1.266 . S
H333 C335 0.959 . S
H334 C335 0.961 . S
C335 C325 1.510 . S
C335 H333 0.959 . S
C335 H334 0.961 . S
C335 H336 0.960 . S
H336 C335 0.960 . S
H337 N317 0.862 . S
O338 Co306 1.920 . S
O338 C311 1.289 . S
C339 O331 1.258 . S
C339 O332 1.266 . S
Co340 O343 1.970 . S
Co340 N357 1.989 . S
Co340 O365 1.967 . S
Co340 O372 1.920 . S
Co341 O344 1.966 . S
Co341 N350 2.022 . S
Co341 N358 1.993 . S
Co341 O366 1.941 . S
C342 O343 1.258 . S
C342 O344 1.263 . S
O343 Co340 1.970 . S
O343 C342 1.258 . S
O344 Co341 1.966 . S
O344 C342 1.263 . S
C345 O346 1.235 . S
C345 O372 1.289 . S
O346 C345 1.235 . S
C347 C349 1.400 . S
C347 N350 1.351 . S
C347 C352 1.501 . S
C348 C349 1.387 . S
C348 N351 1.341 . S
C349 C347 1.400 . S
C349 C348 1.387 . S
N350 Co341 2.022 . S
N350 C347 1.351 . S
N350 N351 1.365 . S
N351 C348 1.341 . S
N351 N350 1.365 . S
N351 H371 0.862 . S
C352 C347 1.501 . S
C352 H353 0.961 . S
C352 H354 0.961 . S
C352 H355 0.960 . S
H353 C352 0.961 . S
H354 C352 0.961 . S
H355 C352 0.960 . S
C356 N357 1.342 . S
C356 C360 1.401 . S
C356 C361 1.499 . S
N357 Co340 1.989 . S
N357 C356 1.342 . S
N357 N358 1.388 . S
N358 Co341 1.993 . S
N358 N357 1.388 . S
N358 C359 1.346 . S
C359 N358 1.346 . S
C359 C360 1.396 . S
C359 C369 1.510 . S
C360 C356 1.401 . S
C360 C359 1.396 . S
C361 C356 1.499 . S
C361 H362 0.959 . S
C361 H363 0.960 . S
C361 H364 0.961 . S
H362 C361 0.959 . S
H363 C361 0.960 . S
H364 C361 0.961 . S
O365 Co340 1.967 . S
O365 C373 1.258 . S
O366 Co341 1.941 . S
O366 C373 1.266 . S
H367 C369 0.959 . S
H368 C369 0.961 . S
C369 C359 1.510 . S
C369 H367 0.959 . S
C369 H368 0.961 . S
C369 H370 0.960 . S
H370 C369 0.960 . S
H371 N351 0.862 . S
O372 Co340 1.920 . S
O372 C345 1.289 . S
C373 O365 1.258 . S
C373 O366 1.266 . S
Co374 O377 1.970 . S
Co374 N391 1.989 . S
Co374 O399 1.967 . S
Co374 O406 1.920 . S
Co375 O378 1.966 . S
Co375 N384 2.022 . S
Co375 N392 1.993 . S
Co375 O400 1.941 . S
C376 O377 1.258 . S
C376 O378 1.263 . S
O377 Co374 1.970 . S
O377 C376 1.258 . S
O378 Co375 1.966 . S
O378 C376 1.263 . S
C379 O380 1.235 . S
C379 O406 1.289 . S
O380 C379 1.235 . S
C381 C383 1.400 . S
C381 N384 1.351 . S
C381 C386 1.501 . S
C382 C383 1.387 . S
C382 N385 1.341 . S
C383 C381 1.400 . S
C383 C382 1.387 . S
N384 Co375 2.022 . S
N384 C381 1.351 . S
N384 N385 1.365 . S
N385 C382 1.341 . S
N385 N384 1.365 . S
N385 H405 0.862 . S
C386 C381 1.501 . S
C386 H387 0.961 . S
C386 H388 0.961 . S
C386 H389 0.960 . S
H387 C386 0.961 . S
H388 C386 0.961 . S
H389 C386 0.960 . S
C390 N391 1.342 . S
C390 C394 1.401 . S
C390 C395 1.499 . S
N391 Co374 1.989 . S
N391 C390 1.342 . S
N391 N392 1.388 . S
N392 Co375 1.993 . S
N392 N391 1.388 . S
N392 C393 1.346 . S
C393 N392 1.346 . S
C393 C394 1.396 . S
C393 C403 1.510 . S
C394 C390 1.401 . S
C394 C393 1.396 . S
C395 C390 1.499 . S
C395 H396 0.959 . S
C395 H397 0.960 . S
C395 H398 0.961 . S
H396 C395 0.959 . S
H397 C395 0.960 . S
H398 C395 0.961 . S
O399 Co374 1.967 . S
O399 C407 1.258 . S
O400 Co375 1.941 . S
O400 C407 1.266 . S
H401 C403 0.959 . S
H402 C403 0.961 . S
C403 C393 1.510 . S
C403 H401 0.959 . S
C403 H402 0.961 . S
C403 H404 0.960 . S
H404 C403 0.960 . S
H405 N385 0.862 . S
O406 Co374 1.920 . S
O406 C379 1.289 . S
C407 O399 1.258 . S
C407 O400 1.266 . S
Co408 O411 1.970 . S
Co408 N425 1.989 . S
Co408 O433 1.967 . S
Co408 O440 1.920 . S
Co409 O412 1.966 . S
Co409 N418 2.022 . S
Co409 N426 1.993 . S
Co409 O434 1.941 . S
C410 O411 1.258 . S
C410 O412 1.263 . S
O411 Co408 1.970 . S
O411 C410 1.258 . S
O412 Co409 1.966 . S
O412 C410 1.263 . S
C413 O414 1.235 . S
C413 O440 1.289 . S
O414 C413 1.235 . S
C415 C417 1.400 . S
C415 N418 1.351 . S
C415 C420 1.501 . S
C416 C417 1.387 . S
C416 N419 1.341 . S
C417 C415 1.400 . S
C417 C416 1.387 . S
N418 Co409 2.022 . S
N418 C415 1.351 . S
N418 N419 1.365 . S
N419 C416 1.341 . S
N419 N418 1.365 . S
N419 H439 0.862 . S
C420 C415 1.501 . S
C420 H421 0.961 . S
C420 H422 0.961 . S
C420 H423 0.960 . S
H421 C420 0.961 . S
H422 C420 0.961 . S
H423 C420 0.960 . S
C424 N425 1.342 . S
C424 C428 1.401 . S
C424 C429 1.499 . S
N425 Co408 1.989 . S
N425 C424 1.342 . S
N425 N426 1.388 . S
N426 Co409 1.993 . S
N426 N425 1.388 . S
N426 C427 1.346 . S
C427 N426 1.346 . S
C427 C428 1.396 . S
C427 C437 1.510 . S
C428 C424 1.401 . S
C428 C427 1.396 . S
C429 C424 1.499 . S
C429 H430 0.959 . S
C429 H431 0.960 . S
C429 H432 0.961 . S
H430 C429 0.959 . S
H431 C429 0.960 . S
H432 C429 0.961 . S
O433 Co408 1.967 . S
O433 C441 1.258 . S
O434 Co409 1.941 . S
O434 C441 1.266 . S
H435 C437 0.959 . S
H436 C437 0.961 . S
C437 C427 1.510 . S
C437 H435 0.959 . S
C437 H436 0.961 . S
C437 H438 0.960 . S
H438 C437 0.960 . S
H439 N419 0.862 . S
O440 Co408 1.920 . S
O440 C413 1.289 . S
C441 O433 1.258 . S
C441 O434 1.266 . S
Co442 O445 1.970 . S
Co442 N459 1.989 . S
Co442 O467 1.967 . S
Co442 O474 1.920 . S
Co443 O446 1.966 1_556 S
Co443 N452 2.023 . S
Co443 N460 1.993 1_556 S
Co443 O468 1.941 1_456 S
C444 O445 1.258 . S
C444 O446 1.263 . S
O445 Co442 1.970 . S
O445 C444 1.258 . S
O446 Co443 1.966 1_554 S
O446 C444 1.263 . S
C447 O448 1.235 . S
C447 O474 1.289 . S
O448 C447 1.235 . S
C449 C451 1.400 . S
C449 N452 1.351 . S
C449 C454 1.501 . S
C450 C451 1.387 . S
C450 N453 1.341 . S
C451 C449 1.400 . S
C451 C450 1.387 . S
N452 Co443 2.023 . S
N452 C449 1.351 . S
N452 N453 1.365 . S
N453 C450 1.341 . S
N453 N452 1.365 . S
N453 H473 0.862 1_455 S
C454 C449 1.501 . S
C454 H455 0.961 . S
C454 H456 0.961 . S
C454 H457 0.960 . S
H455 C454 0.961 . S
H456 C454 0.961 . S
H457 C454 0.960 . S
C458 N459 1.342 . S
C458 C462 1.401 . S
C458 C463 1.499 . S
N459 Co442 1.989 . S
N459 C458 1.342 . S
N459 N460 1.388 . S
N460 Co443 1.993 1_554 S
N460 N459 1.388 . S
N460 C461 1.346 . S
C461 N460 1.346 . S
C461 C462 1.396 . S
C461 C471 1.510 1_554 S
C462 C458 1.401 . S
C462 C461 1.396 . S
C463 C458 1.499 . S
C463 H464 0.959 . S
C463 H465 0.960 . S
C463 H466 0.961 . S
H464 C463 0.959 . S
H465 C463 0.960 . S
H466 C463 0.961 . S
O467 Co442 1.967 . S
O467 C475 1.258 1_455 S
O468 Co443 1.941 1_654 S
O468 C475 1.266 . S
H469 C471 0.959 . S
H470 C471 0.961 . S
C471 C461 1.510 1_556 S
C471 H469 0.959 . S
C471 H470 0.961 . S
C471 H472 0.960 . S
H472 C471 0.960 . S
H473 N453 0.862 1_655 S
O474 Co442 1.920 . S
O474 C447 1.289 . S
C475 O467 1.258 1_655 S
C475 O468 1.266 . S
Co476 O479 1.970 . S
Co476 N493 1.989 . S
Co476 O501 1.967 . S
Co476 O508 1.920 . S
Co477 O480 1.966 . S
Co477 N486 2.022 . S
Co477 N494 1.993 . S
Co477 O502 1.941 . S
C478 O479 1.258 . S
C478 O480 1.263 . S
O479 Co476 1.970 . S
O479 C478 1.258 . S
O480 Co477 1.966 . S
O480 C478 1.263 . S
C481 O482 1.235 . S
C481 O508 1.289 . S
O482 C481 1.235 . S
C483 C485 1.400 . S
C483 N486 1.351 . S
C483 C488 1.501 . S
C484 C485 1.387 . S
C484 N487 1.341 . S
C485 C483 1.400 . S
C485 C484 1.387 . S
N486 Co477 2.022 . S
N486 C483 1.351 . S
N486 N487 1.365 . S
N487 C484 1.341 . S
N487 N486 1.365 . S
N487 H507 0.862 . S
C488 C483 1.501 . S
C488 H489 0.961 . S
C488 H490 0.961 . S
C488 H491 0.960 . S
H489 C488 0.961 . S
H490 C488 0.961 . S
H491 C488 0.960 . S
C492 N493 1.342 . S
C492 C496 1.401 . S
C492 C497 1.499 . S
N493 Co476 1.989 . S
N493 C492 1.342 . S
N493 N494 1.388 . S
N494 Co477 1.993 . S
N494 N493 1.388 . S
N494 C495 1.346 . S
C495 N494 1.346 . S
C495 C496 1.396 . S
C495 C505 1.510 . S
C496 C492 1.401 . S
C496 C495 1.396 . S
C497 C492 1.499 . S
C497 H498 0.959 . S
C497 H499 0.960 . S
C497 H500 0.961 . S
H498 C497 0.959 . S
H499 C497 0.960 . S
H500 C497 0.961 . S
O501 Co476 1.967 . S
O501 C509 1.258 . S
O502 Co477 1.941 . S
O502 C509 1.266 . S
H503 C505 0.959 . S
H504 C505 0.961 . S
C505 C495 1.510 . S
C505 H503 0.959 . S
C505 H504 0.961 . S
C505 H506 0.960 . S
H506 C505 0.960 . S
H507 N487 0.862 . S
O508 Co476 1.920 . S
O508 C481 1.289 . S
C509 O501 1.258 . S
C509 O502 1.266 . S
Co510 O513 1.970 . S
Co510 N527 1.989 . S
Co510 O535 1.967 . S
Co510 O542 1.920 . S
Co511 O514 1.966 1_554 S
Co511 N520 2.023 . S
Co511 N528 1.993 1_554 S
Co511 O536 1.941 1_454 S
C512 O513 1.258 . S
C512 O514 1.263 . S
O513 Co510 1.970 . S
O513 C512 1.258 . S
O514 Co511 1.966 1_556 S
O514 C512 1.263 . S
C515 O516 1.235 . S
C515 O542 1.289 . S
O516 C515 1.235 . S
C517 C519 1.400 . S
C517 N520 1.351 . S
C517 C522 1.501 . S
C518 C519 1.387 . S
C518 N521 1.341 . S
C519 C517 1.400 . S
C519 C518 1.387 . S
N520 Co511 2.023 . S
N520 C517 1.351 . S
N520 N521 1.365 . S
N521 C518 1.341 . S
N521 N520 1.365 . S
N521 H541 0.862 1_455 S
C522 C517 1.501 . S
C522 H523 0.961 . S
C522 H524 0.961 . S
C522 H525 0.960 . S
H523 C522 0.961 . S
H524 C522 0.961 . S
H525 C522 0.960 . S
C526 N527 1.342 . S
C526 C530 1.401 . S
C526 C531 1.499 . S
N527 Co510 1.989 . S
N527 C526 1.342 . S
N527 N528 1.388 . S
N528 Co511 1.993 1_556 S
N528 N527 1.388 . S
N528 C529 1.346 . S
C529 N528 1.346 . S
C529 C530 1.396 . S
C529 C539 1.510 1_556 S
C530 C526 1.401 . S
C530 C529 1.396 . S
C531 C526 1.499 . S
C531 H532 0.959 . S
C531 H533 0.960 . S
C531 H534 0.961 . S
H532 C531 0.959 . S
H533 C531 0.960 . S
H534 C531 0.961 . S
O535 Co510 1.967 . S
O535 C543 1.258 1_455 S
O536 Co511 1.941 1_656 S
O536 C543 1.266 . S
H537 C539 0.959 . S
H538 C539 0.961 . S
C539 C529 1.510 1_554 S
C539 H537 0.959 . S
C539 H538 0.961 . S
C539 H540 0.960 . S
H540 C539 0.960 . S
H541 N521 0.862 1_655 S
O542 Co510 1.920 . S
O542 C515 1.289 . S
C543 O535 1.258 1_655 S
C543 O536 1.266 . S
H544 C552 0.929 . S
H545 C554 0.930 . S
H546 C556 0.930 . S
H547 C559 0.929 . S
H548 C562 0.930 . S
H549 C564 0.960 . S
H550 C564 0.960 . S
H551 C564 0.960 . S
C552 H544 0.929 . S
C552 C553 1.377 . S
C552 C554 1.384 . S
C553 C552 1.377 . S
C553 C559 1.390 . S
C554 H545 0.930 . S
C554 C552 1.384 . S
C554 C555 1.372 . S
C555 C554 1.372 . S
C555 C556 1.400 . S
C555 C560 1.490 . S
C556 H546 0.930 . S
C556 C555 1.400 . S
C556 C559 1.386 . S
H557 C573 0.930 . S
H558 C574 0.931 . S
C559 H547 0.929 . S
C559 C553 1.390 . S
C559 C556 1.386 . S
C560 C555 1.490 . S
C560 C562 1.395 . S
C560 C563 1.403 . S
H561 C567 0.930 . S
C562 H548 0.930 . S
C562 C560 1.395 . S
C562 C565 1.403 . S
C563 C560 1.403 . S
C563 C564 1.524 1_455 S
C563 C567 1.400 . S
C564 H549 0.960 . S
C564 H550 0.960 . S
C564 H551 0.960 . S
C564 C563 1.524 1_655 S
C565 C562 1.403 . S
C565 C566 1.392 . S
C565 C569 1.495 . S
C566 C565 1.392 . S
C566 C567 1.385 . S
C566 C568 1.478 . S
C567 H561 0.930 . S
C567 C563 1.400 . S
C567 C566 1.385 . S
C568 C566 1.478 . S
C568 C570 1.381 . S
C568 C574 1.383 . S
C569 C565 1.495 . S
C569 H575 0.959 . S
C569 H576 0.961 . S
C569 H577 0.960 . S
C570 C568 1.381 . S
C570 C571 1.394 . S
C570 H578 0.930 . S
C571 C570 1.394 . S
C571 C572 1.383 . S
C571 H579 0.929 . S
C572 C571 1.383 . S
C572 C573 1.377 . S
C573 H557 0.930 . S
C573 C572 1.377 . S
C573 C574 1.379 . S
C574 H558 0.931 . S
C574 C568 1.383 . S
C574 C573 1.379 . S
H575 C569 0.959 . S
H576 C569 0.961 . S
H577 C569 0.960 . S
H578 C570 0.930 . S
H579 C571 0.929 . S
H580 C588 0.929 1_554 S
H581 C590 0.930 . S
H582 C592 0.930 . S
H583 C595 0.929 1_554 S
H584 C598 0.930 . S
H585 C600 0.960 . S
H586 C600 0.960 . S
H587 C600 0.960 . S
C588 H580 0.929 1_556 S
C588 C589 1.377 1_556 S
C588 C590 1.384 . S
C589 C588 1.377 1_554 S
C589 C595 1.390 1_554 S
C590 H581 0.930 . S
C590 C588 1.384 . S
C590 C591 1.372 . S
C591 C590 1.372 . S
C591 C592 1.400 . S
C591 C596 1.490 . S
C592 H582 0.930 . S
C592 C591 1.400 . S
C592 C595 1.386 . S
H593 C609 0.930 . S
H594 C610 0.931 . S
C595 H583 0.929 1_556 S
C595 C589 1.390 1_556 S
C595 C592 1.386 . S
C596 C591 1.490 . S
C596 C598 1.395 . S
C596 C599 1.403 . S
H597 C603 0.930 . S
C598 H584 0.930 . S
C598 C596 1.395 . S
C598 C601 1.403 . S
C599 C596 1.403 . S
C599 C600 1.524 . S
C599 C603 1.400 . S
C600 H585 0.960 . S
C600 H586 0.960 . S
C600 H587 0.960 . S
C600 C599 1.524 . S
C601 C598 1.403 . S
C601 C602 1.392 . S
C601 C605 1.495 . S
C602 C601 1.392 . S
C602 C603 1.385 . S
C602 C604 1.478 . S
C603 H597 0.930 . S
C603 C599 1.400 . S
C603 C602 1.385 . S
C604 C602 1.478 . S
C604 C606 1.381 . S
C604 C610 1.383 . S
C605 C601 1.495 . S
C605 H611 0.959 . S
C605 H612 0.961 . S
C605 H613 0.960 . S
C606 C604 1.381 . S
C606 C607 1.394 . S
C606 H614 0.930 . S
C607 C606 1.394 . S
C607 C608 1.383 . S
C607 H615 0.929 . S
C608 C607 1.383 . S
C608 C609 1.377 . S
C609 H593 0.930 . S
C609 C608 1.377 . S
C609 C610 1.379 . S
C610 H594 0.931 . S
C610 C604 1.383 . S
C610 C609 1.379 . S
H611 C605 0.959 . S
H612 C605 0.961 . S
H613 C605 0.960 . S
H614 C606 0.930 . S
H615 C607 0.929 . S
H616 C624 0.929 . S
H617 C626 0.930 . S
H618 C628 0.930 . S
H619 C631 0.929 . S
H620 C634 0.930 . S
H621 C636 0.960 . S
H622 C636 0.960 . S
H623 C636 0.960 . S
C624 H616 0.929 . S
C624 C625 1.377 . S
C624 C626 1.384 . S
C625 C624 1.377 . S
C625 C631 1.390 . S
C626 H617 0.930 . S
C626 C624 1.384 . S
C626 C627 1.372 . S
C627 C626 1.372 . S
C627 C628 1.400 . S
C627 C632 1.490 . S
C628 H618 0.930 . S
C628 C627 1.400 . S
C628 C631 1.386 . S
H629 C645 0.930 . S
H630 C646 0.931 . S
C631 H619 0.929 . S
C631 C625 1.390 . S
C631 C628 1.386 . S
C632 C627 1.490 . S
C632 C634 1.395 . S
C632 C635 1.403 . S
H633 C639 0.930 1_556 S
C634 H620 0.930 . S
C634 C632 1.395 . S
C634 C637 1.403 . S
C635 C632 1.403 . S
C635 C636 1.524 . S
C635 C639 1.400 . S
C636 H621 0.960 . S
C636 H622 0.960 . S
C636 H623 0.960 . S
C636 C635 1.524 . S
C637 C634 1.403 . S
C637 C638 1.392 1_554 S
C637 C641 1.495 1_554 S
C638 C637 1.392 1_556 S
C638 C639 1.385 1_556 S
C638 C640 1.478 . S
C639 H633 0.930 1_554 S
C639 C635 1.400 . S
C639 C638 1.385 1_554 S
C640 C638 1.478 . S
C640 C642 1.381 . S
C640 C646 1.383 . S
C641 C637 1.495 1_556 S
C641 H647 0.959 1_556 S
C641 H648 0.961 . S
C641 H649 0.960 . S
C642 C640 1.381 . S
C642 C643 1.394 . S
C642 H650 0.930 . S
C643 C642 1.394 . S
C643 C644 1.383 . S
C643 H651 0.929 . S
C644 C643 1.383 . S
C644 C645 1.377 . S
C645 H629 0.930 . S
C645 C644 1.377 . S
C645 C646 1.379 . S
C646 H630 0.931 . S
C646 C640 1.383 . S
C646 C645 1.379 . S
H647 C641 0.959 1_554 S
H648 C641 0.961 . S
H649 C641 0.960 . S
H650 C642 0.930 . S
H651 C643 0.929 . S
H652 C660 0.929 . S
H653 C662 0.930 . S
H654 C664 0.930 . S
H655 C667 0.929 . S
H656 C670 0.930 . S
H657 C672 0.960 . S
H658 C672 0.960 . S
H659 C672 0.960 . S
C660 H652 0.929 . S
C660 C661 1.377 . S
C660 C662 1.384 . S
C661 C660 1.377 . S
C661 C667 1.390 . S
C662 H653 0.930 . S
C662 C660 1.384 . S
C662 C663 1.372 . S
C663 C662 1.372 . S
C663 C664 1.400 . S
C663 C668 1.490 . S
C664 H654 0.930 . S
C664 C663 1.400 . S
C664 C667 1.386 . S
H665 C681 0.930 . S
H666 C682 0.931 . S
C667 H655 0.929 . S
C667 C661 1.390 . S
C667 C664 1.386 . S
C668 C663 1.490 . S
C668 C670 1.395 . S
C668 C671 1.403 . S
H669 C675 0.930 . S
C670 H656 0.930 . S
C670 C668 1.395 . S
C670 C673 1.403 . S
C671 C668 1.403 . S
C671 C672 1.524 . S
C671 C675 1.400 . S
C672 H657 0.960 . S
C672 H658 0.960 . S
C672 H659 0.960 . S
C672 C671 1.524 . S
C673 C670 1.403 . S
C673 C674 1.392 . S
C673 C677 1.495 . S
C674 C673 1.392 . S
C674 C675 1.385 . S
C674 C676 1.478 . S
C675 H669 0.930 . S
C675 C671 1.400 . S
C675 C674 1.385 . S
C676 C674 1.478 . S
C676 C678 1.381 . S
C676 C682 1.383 . S
C677 C673 1.495 . S
C677 H683 0.959 . S
C677 H684 0.961 . S
C677 H685 0.960 . S
C678 C676 1.381 . S
C678 C679 1.394 . S
C678 H686 0.930 . S
C679 C678 1.394 . S
C679 C680 1.383 . S
C679 H687 0.929 . S
C680 C679 1.383 . S
C680 C681 1.377 . S
C681 H665 0.930 . S
C681 C680 1.377 . S
C681 C682 1.379 . S
C682 H666 0.931 . S
C682 C676 1.383 . S
C682 C681 1.379 . S
H683 C677 0.959 . S
H684 C677 0.961 . S
H685 C677 0.960 . S
H686 C678 0.930 . S
H687 C679 0.929 . S
H688 C696 0.929 . S
H689 C698 0.930 . S
H690 C700 0.930 1_655 S
H691 C703 0.929 1_655 S
H692 C706 0.930 . S
H693 C708 0.960 . S
H694 C708 0.960 . S
H695 C708 0.960 . S
C696 H688 0.929 . S
C696 C697 1.377 . S
C696 C698 1.384 . S
C697 C696 1.377 . S
C697 C703 1.390 . S
C698 H689 0.930 . S
C698 C696 1.384 . S
C698 C699 1.372 . S
C699 C698 1.372 . S
C699 C700 1.400 . S
C699 C704 1.490 . S
C700 H690 0.930 1_455 S
C700 C699 1.400 . S
C700 C703 1.386 . S
H701 C717 0.930 1_655 S
H702 C718 0.931 1_655 S
C703 H691 0.929 1_455 S
C703 C697 1.390 . S
C703 C700 1.386 . S
C704 C699 1.490 . S
C704 C706 1.395 . S
C704 C707 1.403 . S
H705 C711 0.930 . S
C706 H692 0.930 . S
C706 C704 1.395 . S
C706 C709 1.403 . S
C707 C704 1.403 . S
C707 C708 1.524 . S
C707 C711 1.400 . S
C708 H693 0.960 . S
C708 H694 0.960 . S
C708 H695 0.960 . S
C708 C707 1.524 . S
C709 C706 1.403 . S
C709 C710 1.392 . S
C709 C713 1.495 . S
C710 C709 1.392 . S
C710 C711 1.385 . S
C710 C712 1.478 . S
C711 H705 0.930 . S
C711 C707 1.400 . S
C711 C710 1.385 . S
C712 C710 1.478 . S
C712 C714 1.381 . S
C712 C718 1.383 . S
C713 C709 1.495 . S
C713 H719 0.959 . S
C713 H720 0.961 . S
C713 H721 0.960 . S
C714 C712 1.381 . S
C714 C715 1.394 . S
C714 H722 0.930 . S
C715 C714 1.394 . S
C715 C716 1.383 . S
C715 H723 0.929 . S
C716 C715 1.383 . S
C716 C717 1.377 . S
C717 H701 0.930 1_455 S
C717 C716 1.377 . S
C717 C718 1.379 . S
C718 H702 0.931 1_455 S
C718 C712 1.383 . S
C718 C717 1.379 . S
H719 C713 0.959 . S
H720 C713 0.961 . S
H721 C713 0.960 . S
H722 C714 0.930 . S
H723 C715 0.929 . S
H724 C732 0.929 . S
H725 C734 0.930 . S
H726 C736 0.930 . S
H727 C739 0.929 . S
H728 C742 0.930 . S
H729 C744 0.960 . S
H730 C744 0.960 . S
H731 C744 0.960 . S
C732 H724 0.929 . S
C732 C733 1.377 . S
C732 C734 1.384 . S
C733 C732 1.377 . S
C733 C739 1.390 . S
C734 H725 0.930 . S
C734 C732 1.384 . S
C734 C735 1.372 . S
C735 C734 1.372 . S
C735 C736 1.400 . S
C735 C740 1.490 . S
C736 H726 0.930 . S
C736 C735 1.400 . S
C736 C739 1.386 . S
H737 C753 0.930 . S
H738 C754 0.931 . S
C739 H727 0.929 . S
C739 C733 1.390 . S
C739 C736 1.386 . S
C740 C735 1.490 . S
C740 C742 1.395 . S
C740 C743 1.403 . S
H741 C747 0.930 . S
C742 H728 0.930 . S
C742 C740 1.395 . S
C742 C745 1.403 . S
C743 C740 1.403 . S
C743 C744 1.524 . S
C743 C747 1.400 . S
C744 H729 0.960 . S
C744 H730 0.960 . S
C744 H731 0.960 . S
C744 C743 1.524 . S
C745 C742 1.403 . S
C745 C746 1.392 . S
C745 C749 1.495 . S
C746 C745 1.392 . S
C746 C747 1.385 . S
C746 C748 1.478 . S
C747 H741 0.930 . S
C747 C743 1.400 . S
C747 C746 1.385 . S
C748 C746 1.478 . S
C748 C750 1.381 . S
C748 C754 1.383 . S
C749 C745 1.495 . S
C749 H755 0.959 . S
C749 H756 0.961 . S
C749 H757 0.960 . S
C750 C748 1.381 . S
C750 C751 1.394 . S
C750 H758 0.930 . S
C751 C750 1.394 . S
C751 C752 1.383 . S
C751 H759 0.929 . S
C752 C751 1.383 . S
C752 C753 1.377 . S
C753 H737 0.930 . S
C753 C752 1.377 . S
C753 C754 1.379 . S
C754 H738 0.931 . S
C754 C748 1.383 . S
C754 C753 1.379 . S
H755 C749 0.959 . S
H756 C749 0.961 . S
H757 C749 0.960 . S
H758 C750 0.930 . S
H759 C751 0.929 . S
H760 C768 0.929 . S
H761 C770 0.930 . S
H762 C772 0.930 . S
H763 C775 0.929 . S
H764 C778 0.930 . S
H765 C780 0.960 . S
H766 C780 0.960 . S
H767 C780 0.960 . S
C768 H760 0.929 . S
C768 C769 1.377 . S
C768 C770 1.384 . S
C769 C768 1.377 . S
C769 C775 1.390 . S
C770 H761 0.930 . S
C770 C768 1.384 . S
C770 C771 1.372 . S
C771 C770 1.372 . S
C771 C772 1.400 . S
C771 C776 1.490 . S
C772 H762 0.930 . S
C772 C771 1.400 . S
C772 C775 1.386 . S
H773 C789 0.930 . S
H774 C790 0.931 . S
C775 H763 0.929 . S
C775 C769 1.390 . S
C775 C772 1.386 . S
C776 C771 1.490 . S
C776 C778 1.395 . S
C776 C779 1.403 . S
H777 C783 0.930 1_554 S
C778 H764 0.930 . S
C778 C776 1.395 . S
C778 C781 1.403 . S
C779 C776 1.403 . S
C779 C780 1.524 . S
C779 C783 1.400 . S
C780 H765 0.960 . S
C780 H766 0.960 . S
C780 H767 0.960 . S
C780 C779 1.524 . S
C781 C778 1.403 . S
C781 C782 1.392 1_556 S
C781 C785 1.495 1_556 S
C782 C781 1.392 1_554 S
C782 C783 1.385 1_554 S
C782 C784 1.478 . S
C783 H777 0.930 1_556 S
C783 C779 1.400 . S
C783 C782 1.385 1_556 S
C784 C782 1.478 . S
C784 C786 1.381 . S
C784 C790 1.383 . S
C785 C781 1.495 1_554 S
C785 H791 0.959 1_554 S
C785 H792 0.961 . S
C785 H793 0.960 . S
C786 C784 1.381 . S
C786 C787 1.394 . S
C786 H794 0.930 . S
C787 C786 1.394 . S
C787 C788 1.383 . S
C787 H795 0.929 . S
C788 C787 1.383 . S
C788 C789 1.377 . S
C789 H773 0.930 . S
C789 C788 1.377 . S
C789 C790 1.379 . S
C790 H774 0.931 . S
C790 C784 1.383 . S
C790 C789 1.379 . S
H791 C785 0.959 1_556 S
H792 C785 0.961 . S
H793 C785 0.960 . S
H794 C786 0.930 . S
H795 C787 0.929 . S
H796 C804 0.929 . S
H797 C806 0.930 . S
H798 C808 0.930 . S
H799 C811 0.929 . S
H800 C814 0.930 . S
H801 C816 0.960 . S
H802 C816 0.960 . S
H803 C816 0.960 . S
C804 H796 0.929 . S
C804 C805 1.377 . S
C804 C806 1.384 . S
C805 C804 1.377 . S
C805 C811 1.390 . S
C806 H797 0.930 . S
C806 C804 1.384 . S
C806 C807 1.372 . S
C807 C806 1.372 . S
C807 C808 1.400 . S
C807 C812 1.490 . S
C808 H798 0.930 . S
C808 C807 1.400 . S
C808 C811 1.386 . S
H809 C825 0.930 1_556 S
H810 C826 0.931 . S
C811 H799 0.929 . S
C811 C805 1.390 . S
C811 C808 1.386 . S
C812 C807 1.490 . S
C812 C814 1.395 . S
C812 C815 1.403 . S
H813 C819 0.930 . S
C814 H800 0.930 . S
C814 C812 1.395 . S
C814 C817 1.403 . S
C815 C812 1.403 . S
C815 C816 1.524 . S
C815 C819 1.400 . S
C816 H801 0.960 . S
C816 H802 0.960 . S
C816 H803 0.960 . S
C816 C815 1.524 . S
C817 C814 1.403 . S
C817 C818 1.392 . S
C817 C821 1.495 . S
C818 C817 1.392 . S
C818 C819 1.385 . S
C818 C820 1.478 . S
C819 H813 0.930 . S
C819 C815 1.400 . S
C819 C818 1.385 . S
C820 C818 1.478 . S
C820 C822 1.381 . S
C820 C826 1.383 . S
C821 C817 1.495 . S
C821 H827 0.959 . S
C821 H828 0.961 . S
C821 H829 0.960 . S
C822 C820 1.381 . S
C822 C823 1.394 1_554 S
C822 H830 0.930 . S
C823 C822 1.394 1_556 S
C823 C824 1.383 . S
C823 H831 0.929 . S
C824 C823 1.383 . S
C824 C825 1.377 1_556 S
C825 H809 0.930 1_554 S
C825 C824 1.377 1_554 S
C825 C826 1.379 . S
C826 H810 0.931 . S
C826 C820 1.383 . S
C826 C825 1.379 . S
H827 C821 0.959 . S
H828 C821 0.961 . S
H829 C821 0.960 . S
H830 C822 0.930 . S
H831 C823 0.929 . S
H832 C840 0.929 . S
H833 C842 0.930 . S
H834 C844 0.930 . S
H835 C847 0.929 . S
H836 C850 0.930 . S
H837 C852 0.960 . S
H838 C852 0.960 . S
H839 C852 0.960 . S
C840 H832 0.929 . S
C840 C841 1.377 . S
C840 C842 1.384 . S
C841 C840 1.377 . S
C841 C847 1.390 . S
C842 H833 0.930 . S
C842 C840 1.384 . S
C842 C843 1.372 . S
C843 C842 1.372 . S
C843 C844 1.400 . S
C843 C848 1.490 . S
C844 H834 0.930 . S
C844 C843 1.400 . S
C844 C847 1.386 . S
H845 C861 0.930 1_556 S
H846 C862 0.931 . S
C847 H835 0.929 . S
C847 C841 1.390 . S
C847 C844 1.386 . S
C848 C843 1.490 . S
C848 C850 1.395 . S
C848 C851 1.403 . S
H849 C855 0.930 . S
C850 H836 0.930 . S
C850 C848 1.395 . S
C850 C853 1.403 . S
C851 C848 1.403 . S
C851 C852 1.524 . S
C851 C855 1.400 . S
C852 H837 0.960 . S
C852 H838 0.960 . S
C852 H839 0.960 . S
C852 C851 1.524 . S
C853 C850 1.403 . S
C853 C854 1.392 . S
C853 C857 1.495 . S
C854 C853 1.392 . S
C854 C855 1.385 . S
C854 C856 1.478 . S
C855 H849 0.930 . S
C855 C851 1.400 . S
C855 C854 1.385 . S
C856 C854 1.478 . S
C856 C858 1.381 . S
C856 C862 1.383 . S
C857 C853 1.495 . S
C857 H863 0.959 . S
C857 H864 0.961 . S
C857 H865 0.960 . S
C858 C856 1.381 . S
C858 C859 1.394 1_554 S
C858 H866 0.930 . S
C859 C858 1.394 1_556 S
C859 C860 1.383 . S
C859 H867 0.929 . S
C860 C859 1.383 . S
C860 C861 1.377 1_556 S
C861 H845 0.930 1_554 S
C861 C860 1.377 1_554 S
C861 C862 1.379 . S
C862 H846 0.931 . S
C862 C856 1.383 . S
C862 C861 1.379 . S
H863 C857 0.959 . S
H864 C857 0.961 . S
H865 C857 0.960 . S
H866 C858 0.930 . S
H867 C859 0.929 . S
H868 C876 0.929 . S
H869 C878 0.930 . S
H870 C880 0.930 . S
H871 C883 0.929 . S
H872 C886 0.930 . S
H873 C888 0.960 . S
H874 C888 0.960 . S
H875 C888 0.960 . S
C876 H868 0.929 . S
C876 C877 1.377 . S
C876 C878 1.384 . S
C877 C876 1.377 . S
C877 C883 1.390 . S
C878 H869 0.930 . S
C878 C876 1.384 . S
C878 C879 1.372 . S
C879 C878 1.372 . S
C879 C880 1.400 . S
C879 C884 1.490 . S
C880 H870 0.930 . S
C880 C879 1.400 . S
C880 C883 1.386 . S
H881 C897 0.930 . S
H882 C898 0.931 . S
C883 H871 0.929 . S
C883 C877 1.390 . S
C883 C880 1.386 . S
C884 C879 1.490 . S
C884 C886 1.395 . S
C884 C887 1.403 . S
H885 C891 0.930 . S
C886 H872 0.930 . S
C886 C884 1.395 . S
C886 C889 1.403 . S
C887 C884 1.403 . S
C887 C888 1.524 . S
C887 C891 1.400 . S
C888 H873 0.960 . S
C888 H874 0.960 . S
C888 H875 0.960 . S
C888 C887 1.524 . S
C889 C886 1.403 . S
C889 C890 1.392 . S
C889 C893 1.495 . S
C890 C889 1.392 . S
C890 C891 1.385 . S
C890 C892 1.478 . S
C891 H885 0.930 . S
C891 C887 1.400 . S
C891 C890 1.385 . S
C892 C890 1.478 . S
C892 C894 1.381 . S
C892 C898 1.383 . S
C893 C889 1.495 . S
C893 H899 0.959 . S
C893 H900 0.961 . S
C893 H901 0.960 . S
C894 C892 1.381 . S
C894 C895 1.394 . S
C894 H902 0.930 . S
C895 C894 1.394 . S
C895 C896 1.383 . S
C895 H903 0.929 . S
C896 C895 1.383 . S
C896 C897 1.377 . S
C897 H881 0.930 . S
C897 C896 1.377 . S
C897 C898 1.379 . S
C898 H882 0.931 . S
C898 C892 1.383 . S
C898 C897 1.379 . S
H899 C893 0.959 . S
H900 C893 0.961 . S
H901 C893 0.960 . S
H902 C894 0.930 . S
H903 C895 0.929 . S
H904 C912 0.929 . S
H905 C914 0.930 . S
H906 C916 0.930 . S
H907 C919 0.929 . S
H908 C922 0.930 . S
H909 C924 0.960 . S
H910 C924 0.960 . S
H911 C924 0.960 . S
C912 H904 0.929 . S
C912 C913 1.377 . S
C912 C914 1.384 . S
C913 C912 1.377 . S
C913 C919 1.390 . S
C914 H905 0.930 . S
C914 C912 1.384 . S
C914 C915 1.372 . S
C915 C914 1.372 . S
C915 C916 1.400 . S
C915 C920 1.490 . S
C916 H906 0.930 . S
C916 C915 1.400 . S
C916 C919 1.386 . S
H917 C933 0.930 . S
H918 C934 0.931 . S
C919 H907 0.929 . S
C919 C913 1.390 . S
C919 C916 1.386 . S
C920 C915 1.490 . S
C920 C922 1.395 . S
C920 C923 1.403 . S
H921 C927 0.930 . S
C922 H908 0.930 . S
C922 C920 1.395 . S
C922 C925 1.403 . S
C923 C920 1.403 . S
C923 C924 1.524 . S
C923 C927 1.400 . S
C924 H909 0.960 . S
C924 H910 0.960 . S
C924 H911 0.960 . S
C924 C923 1.524 . S
C925 C922 1.403 . S
C925 C926 1.392 . S
C925 C929 1.495 . S
C926 C925 1.392 . S
C926 C927 1.385 . S
C926 C928 1.478 . S
C927 H921 0.930 . S
C927 C923 1.400 . S
C927 C926 1.385 . S
C928 C926 1.478 . S
C928 C930 1.381 . S
C928 C934 1.383 . S
C929 C925 1.495 . S
C929 H935 0.959 . S
C929 H936 0.961 . S
C929 H937 0.960 . S
C930 C928 1.381 . S
C930 C931 1.394 . S
C930 H938 0.930 . S
C931 C930 1.394 . S
C931 C932 1.383 . S
C931 H939 0.929 . S
C932 C931 1.383 . S
C932 C933 1.377 . S
C933 H917 0.930 . S
C933 C932 1.377 . S
C933 C934 1.379 . S
C934 H918 0.931 . S
C934 C928 1.383 . S
C934 C933 1.379 . S
H935 C929 0.959 . S
H936 C929 0.961 . S
H937 C929 0.960 . S
H938 C930 0.930 . S
H939 C931 0.929 . S
H940 C948 0.929 . S
H941 C950 0.930 . S
H942 C952 0.930 . S
H943 C955 0.929 . S
H944 C958 0.930 . S
H945 C960 0.960 . S
H946 C960 0.960 . S
H947 C960 0.960 . S
C948 H940 0.929 . S
C948 C949 1.377 . S
C948 C950 1.384 . S
C949 C948 1.377 . S
C949 C955 1.390 . S
C950 H941 0.930 . S
C950 C948 1.384 . S
C950 C951 1.372 . S
C951 C950 1.372 . S
C951 C952 1.400 . S
C951 C956 1.490 . S
C952 H942 0.930 . S
C952 C951 1.400 . S
C952 C955 1.386 . S
H953 C969 0.930 1_554 S
H954 C970 0.931 . S
C955 H943 0.929 . S
C955 C949 1.390 . S
C955 C952 1.386 . S
C956 C951 1.490 . S
C956 C958 1.395 . S
C956 C959 1.403 . S
H957 C963 0.930 . S
C958 H944 0.930 . S
C958 C956 1.395 . S
C958 C961 1.403 . S
C959 C956 1.403 . S
C959 C960 1.524 . S
C959 C963 1.400 . S
C960 H945 0.960 . S
C960 H946 0.960 . S
C960 H947 0.960 . S
C960 C959 1.524 . S
C961 C958 1.403 . S
C961 C962 1.392 . S
C961 C965 1.495 . S
C962 C961 1.392 . S
C962 C963 1.385 . S
C962 C964 1.478 . S
C963 H957 0.930 . S
C963 C959 1.400 . S
C963 C962 1.385 . S
C964 C962 1.478 . S
C964 C966 1.381 . S
C964 C970 1.383 . S
C965 C961 1.495 . S
C965 H971 0.959 . S
C965 H972 0.961 . S
C965 H973 0.960 . S
C966 C964 1.381 . S
C966 C967 1.394 . S
C966 H974 0.930 . S
C967 C966 1.394 . S
C967 C968 1.383 1_556 S
C967 H975 0.929 1_556 S
C968 C967 1.383 1_554 S
C968 C969 1.377 1_554 S
C969 H953 0.930 1_556 S
C969 C968 1.377 1_556 S
C969 C970 1.379 . S
C970 H954 0.931 . S
C970 C964 1.383 . S
C970 C969 1.379 . S
H971 C965 0.959 . S
H972 C965 0.961 . S
H973 C965 0.960 . S
H974 C966 0.930 . S
H975 C967 0.929 1_554 S
H976 C984 0.929 . S
H977 C986 0.930 . S
H978 C988 0.930 . S
H979 C991 0.929 . S
H980 C994 0.930 1_556 S
H981 C996 0.960 1_554 S
H982 C996 0.960 . S
H983 C996 0.960 . S
C984 H976 0.929 . S
C984 C985 1.377 . S
C984 C986 1.384 . S
C985 C984 1.377 . S
C985 C991 1.390 . S
C986 H977 0.930 . S
C986 C984 1.384 . S
C986 C987 1.372 . S
C987 C986 1.372 . S
C987 C988 1.400 . S
C987 C992 1.490 . S
C988 H978 0.930 . S
C988 C987 1.400 . S
C988 C991 1.386 . S
H989 C1005 0.930 . S
H990 C1006 0.931 . S
C991 H979 0.929 . S
C991 C985 1.390 . S
C991 C988 1.386 . S
C992 C987 1.490 . S
C992 C994 1.395 1_556 S
C992 C995 1.403 1_556 S
H993 C999 0.930 . S
C994 H980 0.930 1_554 S
C994 C992 1.395 1_554 S
C994 C997 1.403 . S
C995 C992 1.403 1_554 S
C995 C996 1.524 1_554 S
C995 C999 1.400 . S
C996 H981 0.960 1_556 S
C996 H982 0.960 . S
C996 H983 0.960 . S
C996 C995 1.524 1_556 S
C997 C994 1.403 . S
C997 C998 1.392 . S
C997 C1001 1.495 . S
C998 C997 1.392 . S
C998 C999 1.385 . S
C998 C1000 1.478 . S
C999 H993 0.930 . S
C999 C995 1.400 . S
C999 C998 1.385 . S
C1000 C998 1.478 . S
C1000 C1002 1.381 . S
C1000 C1006 1.383 . S
C1001 C997 1.495 . S
C1001 H1007 0.959 . S
C1001 H1008 0.961 . S
C1001 H1009 0.960 . S
C1002 C1000 1.381 . S
C1002 C1003 1.394 . S
C1002 H1010 0.930 . S
C1003 C1002 1.394 . S
C1003 C1004 1.383 . S
C1003 H1011 0.929 . S
C1004 C1003 1.383 . S
C1004 C1005 1.377 . S
C1005 H989 0.930 . S
C1005 C1004 1.377 . S
C1005 C1006 1.379 . S
C1006 H990 0.931 . S
C1006 C1000 1.383 . S
C1006 C1005 1.379 . S
H1007 C1001 0.959 . S
H1008 C1001 0.961 . S
H1009 C1001 0.960 . S
H1010 C1002 0.930 . S
H1011 C1003 0.929 . S
H1012 C1020 0.929 . S
H1013 C1022 0.930 . S
H1014 C1024 0.930 . S
H1015 C1027 0.929 . S
H1016 C1030 0.930 . S
H1017 C1032 0.959 1_655 S
H1018 C1032 0.960 1_655 S
H1019 C1032 0.960 . S
C1020 H1012 0.929 . S
C1020 C1021 1.377 . S
C1020 C1022 1.384 . S
C1021 C1020 1.377 . S
C1021 C1027 1.390 . S
C1022 H1013 0.930 . S
C1022 C1020 1.384 . S
C1022 C1023 1.372 . S
C1023 C1022 1.372 . S
C1023 C1024 1.400 . S
C1023 C1028 1.490 . S
C1024 H1014 0.930 . S
C1024 C1023 1.400 . S
C1024 C1027 1.386 . S
H1025 C1041 0.930 . S
H1026 C1042 0.931 . S
C1027 H1015 0.929 . S
C1027 C1021 1.390 . S
C1027 C1024 1.386 . S
C1028 C1023 1.490 . S
C1028 C1030 1.395 . S
C1028 C1031 1.403 . S
H1029 C1035 0.930 . S
C1030 H1016 0.930 . S
C1030 C1028 1.395 . S
C1030 C1033 1.403 . S
C1031 C1028 1.403 . S
C1031 C1032 1.524 . S
C1031 C1035 1.400 . S
C1032 H1017 0.959 1_455 S
C1032 H1018 0.960 1_455 S
C1032 H1019 0.960 . S
C1032 C1031 1.524 . S
C1033 C1030 1.403 . S
C1033 C1034 1.392 . S
C1033 C1037 1.495 . S
C1034 C1033 1.392 . S
C1034 C1035 1.385 . S
C1034 C1036 1.478 . S
C1035 H1029 0.930 . S
C1035 C1031 1.400 . S
C1035 C1034 1.385 . S
C1036 C1034 1.478 . S
C1036 C1038 1.381 . S
C1036 C1042 1.383 . S
C1037 C1033 1.495 . S
C1037 H1043 0.959 . S
C1037 H1044 0.961 . S
C1037 H1045 0.960 . S
C1038 C1036 1.381 . S
C1038 C1039 1.394 . S
C1038 H1046 0.930 . S
C1039 C1038 1.394 . S
C1039 C1040 1.383 . S
C1039 H1047 0.929 . S
C1040 C1039 1.383 . S
C1040 C1041 1.377 . S
C1041 H1025 0.930 . S
C1041 C1040 1.377 . S
C1041 C1042 1.379 . S
C1042 H1026 0.931 . S
C1042 C1036 1.383 . S
C1042 C1041 1.379 . S
H1043 C1037 0.959 . S
H1044 C1037 0.961 . S
H1045 C1037 0.960 . S
H1046 C1038 0.930 . S
H1047 C1039 0.929 . S
H1048 C1056 0.929 . S
H1049 C1058 0.930 . S
H1050 C1060 0.930 . S
H1051 C1063 0.929 . S
H1052 C1066 0.930 1_554 S
H1053 C1068 0.960 1_556 S
H1054 C1068 0.960 . S
H1055 C1068 0.960 . S
C1056 H1048 0.929 . S
C1056 C1057 1.377 . S
C1056 C1058 1.384 . S
C1057 C1056 1.377 . S
C1057 C1063 1.390 . S
C1058 H1049 0.930 . S
C1058 C1056 1.384 . S
C1058 C1059 1.372 . S
C1059 C1058 1.372 . S
C1059 C1060 1.400 . S
C1059 C1064 1.490 . S
C1060 H1050 0.930 . S
C1060 C1059 1.400 . S
C1060 C1063 1.386 . S
H1061 C1077 0.930 . S
H1062 C1078 0.931 . S
C1063 H1051 0.929 . S
C1063 C1057 1.390 . S
C1063 C1060 1.386 . S
C1064 C1059 1.490 . S
C1064 C1066 1.395 1_554 S
C1064 C1067 1.403 1_554 S
H1065 C1071 0.930 . S
C1066 H1052 0.930 1_556 S
C1066 C1064 1.395 1_556 S
C1066 C1069 1.403 . S
C1067 C1064 1.403 1_556 S
C1067 C1068 1.524 1_556 S
C1067 C1071 1.400 . S
C1068 H1053 0.960 1_554 S
C1068 H1054 0.960 . S
C1068 H1055 0.960 . S
C1068 C1067 1.524 1_554 S
C1069 C1066 1.403 . S
C1069 C1070 1.392 . S
C1069 C1073 1.495 . S
C1070 C1069 1.392 . S
C1070 C1071 1.385 . S
C1070 C1072 1.478 . S
C1071 H1065 0.930 . S
C1071 C1067 1.400 . S
C1071 C1070 1.385 . S
C1072 C1070 1.478 . S
C1072 C1074 1.381 . S
C1072 C1078 1.383 . S
C1073 C1069 1.495 . S
C1073 H1079 0.959 . S
C1073 H1080 0.961 . S
C1073 H1081 0.960 . S
C1074 C1072 1.381 . S
C1074 C1075 1.394 . S
C1074 H1082 0.930 . S
C1075 C1074 1.394 . S
C1075 C1076 1.383 . S
C1075 H1083 0.929 . S
C1076 C1075 1.383 . S
C1076 C1077 1.377 . S
C1077 H1061 0.930 . S
C1077 C1076 1.377 . S
C1077 C1078 1.379 . S
C1078 H1062 0.931 . S
C1078 C1072 1.383 . S
C1078 C1077 1.379 . S
H1079 C1073 0.959 . S
H1080 C1073 0.961 . S
H1081 C1073 0.960 . S
H1082 C1074 0.930 . S
H1083 C1075 0.929 . S
H1084 C1092 0.929 . S
H1085 C1094 0.930 . S
H1086 C1096 0.930 . S
H1087 C1099 0.929 . S
H1088 C1102 0.930 . S
H1089 C1104 0.960 . S
H1090 C1104 0.960 . S
H1091 C1104 0.960 . S
C1092 H1084 0.929 . S
C1092 C1093 1.377 . S
C1092 C1094 1.384 . S
C1093 C1092 1.377 . S
C1093 C1099 1.390 . S
C1094 H1085 0.930 . S
C1094 C1092 1.384 . S
C1094 C1095 1.372 . S
C1095 C1094 1.372 . S
C1095 C1096 1.400 . S
C1095 C1100 1.490 . S
C1096 H1086 0.930 . S
C1096 C1095 1.400 . S
C1096 C1099 1.386 . S
H1097 C1113 0.930 . S
H1098 C1114 0.931 . S
C1099 H1087 0.929 . S
C1099 C1093 1.390 . S
C1099 C1096 1.386 . S
C1100 C1095 1.490 . S
C1100 C1102 1.395 . S
C1100 C1103 1.403 . S
H1101 C1107 0.930 . S
C1102 H1088 0.930 . S
C1102 C1100 1.395 . S
C1102 C1105 1.403 . S
C1103 C1100 1.403 . S
C1103 C1104 1.524 . S
C1103 C1107 1.400 . S
C1104 H1089 0.960 . S
C1104 H1090 0.960 . S
C1104 H1091 0.960 . S
C1104 C1103 1.524 . S
C1105 C1102 1.403 . S
C1105 C1106 1.392 . S
C1105 C1109 1.495 . S
C1106 C1105 1.392 . S
C1106 C1107 1.385 . S
C1106 C1108 1.478 . S
C1107 H1101 0.930 . S
C1107 C1103 1.400 . S
C1107 C1106 1.385 . S
C1108 C1106 1.478 . S
C1108 C1110 1.381 . S
C1108 C1114 1.383 . S
C1109 C1105 1.495 . S
C1109 H1115 0.959 . S
C1109 H1116 0.961 . S
C1109 H1117 0.960 . S
C1110 C1108 1.381 . S
C1110 C1111 1.394 . S
C1110 H1118 0.930 . S
C1111 C1110 1.394 . S
C1111 C1112 1.383 . S
C1111 H1119 0.929 . S
C1112 C1111 1.383 . S
C1112 C1113 1.377 . S
C1113 H1097 0.930 . S
C1113 C1112 1.377 . S
C1113 C1114 1.379 . S
C1114 H1098 0.931 . S
C1114 C1108 1.383 . S
C1114 C1113 1.379 . S
H1115 C1109 0.959 . S
H1116 C1109 0.961 . S
H1117 C1109 0.960 . S
H1118 C1110 0.930 . S
H1119 C1111 0.929 . S
H1120 C1128 0.929 1_556 S
H1121 C1130 0.930 . S
H1122 C1132 0.930 . S
H1123 C1135 0.929 . S
H1124 C1138 0.930 . S
H1125 C1140 0.960 . S
H1126 C1140 0.960 . S
H1127 C1140 0.960 . S
C1128 H1120 0.929 1_554 S
C1128 C1129 1.377 . S
C1128 C1130 1.384 1_554 S
C1129 C1128 1.377 . S
C1129 C1135 1.390 . S
C1130 H1121 0.930 . S
C1130 C1128 1.384 1_556 S
C1130 C1131 1.372 1_556 S
C1131 C1130 1.372 1_554 S
C1131 C1132 1.400 . S
C1131 C1136 1.490 . S
C1132 H1122 0.930 . S
C1132 C1131 1.400 . S
C1132 C1135 1.386 . S
H1133 C1149 0.930 1_554 S
H1134 C1150 0.931 1_554 S
C1135 H1123 0.929 . S
C1135 C1129 1.390 . S
C1135 C1132 1.386 . S
C1136 C1131 1.490 . S
C1136 C1138 1.395 1_554 S
C1136 C1139 1.403 . S
H1137 C1143 0.930 . S
C1138 H1124 0.930 . S
C1138 C1136 1.395 1_556 S
C1138 C1141 1.403 . S
C1139 C1136 1.403 . S
C1139 C1140 1.524 . S
C1139 C1143 1.400 . S
C1140 H1125 0.960 . S
C1140 H1126 0.960 . S
C1140 H1127 0.960 . S
C1140 C1139 1.524 . S
C1141 C1138 1.403 . S
C1141 C1142 1.392 . S
C1141 C1145 1.495 . S
C1142 C1141 1.392 . S
C1142 C1143 1.385 1_556 S
C1142 C1144 1.478 . S
C1143 H1137 0.930 . S
C1143 C1139 1.400 . S
C1143 C1142 1.385 1_554 S
C1144 C1142 1.478 . S
C1144 C1146 1.381 . S
C1144 C1150 1.383 . S
C1145 C1141 1.495 . S
C1145 H1151 0.959 . S
C1145 H1152 0.961 . S
C1145 H1153 0.960 . S
C1146 C1144 1.381 . S
C1146 C1147 1.394 . S
C1146 H1154 0.930 . S
C1147 C1146 1.394 . S
C1147 C1148 1.383 . S
C1147 H1155 0.929 . S
C1148 C1147 1.383 . S
C1148 C1149 1.377 . S
C1149 H1133 0.930 1_556 S
C1149 C1148 1.377 . S
C1149 C1150 1.379 . S
C1150 H1134 0.931 1_556 S
C1150 C1144 1.383 . S
C1150 C1149 1.379 . S
H1151 C1145 0.959 . S
H1152 C1145 0.961 . S
H1153 C1145 0.960 . S
H1154 C1146 0.930 . S
H1155 C1147 0.929 . S
H1156 C1164 0.929 . S
H1157 C1166 0.930 . S
H1158 C1168 0.930 . S
H1159 C1171 0.929 . S
H1160 C1174 0.930 . S
H1161 C1176 0.960 . S
H1162 C1176 0.960 . S
H1163 C1176 0.960 . S
C1164 H1156 0.929 . S
C1164 C1165 1.377 . S
C1164 C1166 1.384 . S
C1165 C1164 1.377 . S
C1165 C1171 1.390 . S
C1166 H1157 0.930 . S
C1166 C1164 1.384 . S
C1166 C1167 1.372 . S
C1167 C1166 1.372 . S
C1167 C1168 1.400 . S
C1167 C1172 1.490 . S
C1168 H1158 0.930 . S
C1168 C1167 1.400 . S
C1168 C1171 1.386 . S
H1169 C1185 0.930 . S
H1170 C1186 0.931 . S
C1171 H1159 0.929 . S
C1171 C1165 1.390 . S
C1171 C1168 1.386 . S
C1172 C1167 1.490 . S
C1172 C1174 1.395 . S
C1172 C1175 1.403 . S
H1173 C1179 0.930 . S
C1174 H1160 0.930 . S
C1174 C1172 1.395 . S
C1174 C1177 1.403 . S
C1175 C1172 1.403 . S
C1175 C1176 1.524 . S
C1175 C1179 1.400 . S
C1176 H1161 0.960 . S
C1176 H1162 0.960 . S
C1176 H1163 0.960 . S
C1176 C1175 1.524 . S
C1177 C1174 1.403 . S
C1177 C1178 1.392 . S
C1177 C1181 1.495 . S
C1178 C1177 1.392 . S
C1178 C1179 1.385 . S
C1178 C1180 1.478 . S
C1179 H1173 0.930 . S
C1179 C1175 1.400 . S
C1179 C1178 1.385 . S
C1180 C1178 1.478 . S
C1180 C1182 1.381 . S
C1180 C1186 1.383 . S
C1181 C1177 1.495 . S
C1181 H1187 0.959 . S
C1181 H1188 0.961 . S
C1181 H1189 0.960 . S
C1182 C1180 1.381 . S
C1182 C1183 1.394 . S
C1182 H1190 0.930 . S
C1183 C1182 1.394 . S
C1183 C1184 1.383 . S
C1183 H1191 0.929 . S
C1184 C1183 1.383 . S
C1184 C1185 1.377 . S
C1185 H1169 0.930 . S
C1185 C1184 1.377 . S
C1185 C1186 1.379 . S
C1186 H1170 0.931 . S
C1186 C1180 1.383 . S
C1186 C1185 1.379 . S
H1187 C1181 0.959 . S
H1188 C1181 0.961 . S
H1189 C1181 0.960 . S
H1190 C1182 0.930 . S
H1191 C1183 0.929 . S
H1192 C1200 0.929 . S
H1193 C1202 0.930 . S
H1194 C1204 0.930 . S
H1195 C1207 0.929 . S
H1196 C1210 0.930 . S
H1197 C1212 0.960 . S
H1198 C1212 0.960 . S
H1199 C1212 0.960 . S
C1200 H1192 0.929 . S
C1200 C1201 1.377 . S
C1200 C1202 1.384 . S
C1201 C1200 1.377 . S
C1201 C1207 1.390 . S
C1202 H1193 0.930 . S
C1202 C1200 1.384 . S
C1202 C1203 1.372 . S
C1203 C1202 1.372 . S
C1203 C1204 1.400 . S
C1203 C1208 1.490 . S
C1204 H1194 0.930 . S
C1204 C1203 1.400 . S
C1204 C1207 1.386 . S
H1205 C1221 0.930 . S
H1206 C1222 0.931 . S
C1207 H1195 0.929 . S
C1207 C1201 1.390 . S
C1207 C1204 1.386 . S
C1208 C1203 1.490 . S
C1208 C1210 1.395 . S
C1208 C1211 1.403 . S
H1209 C1215 0.930 . S
C1210 H1196 0.930 . S
C1210 C1208 1.395 . S
C1210 C1213 1.403 . S
C1211 C1208 1.403 . S
C1211 C1212 1.524 . S
C1211 C1215 1.400 . S
C1212 H1197 0.960 . S
C1212 H1198 0.960 . S
C1212 H1199 0.960 . S
C1212 C1211 1.524 . S
C1213 C1210 1.403 . S
C1213 C1214 1.392 . S
C1213 C1217 1.495 . S
C1214 C1213 1.392 . S
C1214 C1215 1.385 . S
C1214 C1216 1.478 . S
C1215 H1209 0.930 . S
C1215 C1211 1.400 . S
C1215 C1214 1.385 . S
C1216 C1214 1.478 . S
C1216 C1218 1.381 . S
C1216 C1222 1.383 . S
C1217 C1213 1.495 . S
C1217 H1223 0.959 . S
C1217 H1224 0.961 . S
C1217 H1225 0.960 . S
C1218 C1216 1.381 . S
C1218 C1219 1.394 . S
C1218 H1226 0.930 . S
C1219 C1218 1.394 . S
C1219 C1220 1.383 . S
C1219 H1227 0.929 . S
C1220 C1219 1.383 . S
C1220 C1221 1.377 . S
C1221 H1205 0.930 . S
C1221 C1220 1.377 . S
C1221 C1222 1.379 . S
C1222 H1206 0.931 . S
C1222 C1216 1.383 . S
C1222 C1221 1.379 . S
H1223 C1217 0.959 . S
H1224 C1217 0.961 . S
H1225 C1217 0.960 . S
H1226 C1218 0.930 . S
H1227 C1219 0.929 . S
H1228 C1236 0.929 . S
H1229 C1238 0.930 . S
H1230 C1240 0.930 . S
H1231 C1243 0.929 . S
H1232 C1246 0.930 . S
H1233 C1248 0.960 . S
H1234 C1248 0.960 . S
H1235 C1248 0.960 . S
C1236 H1228 0.929 . S
C1236 C1237 1.377 . S
C1236 C1238 1.384 . S
C1237 C1236 1.377 . S
C1237 C1243 1.390 . S
C1238 H1229 0.930 . S
C1238 C1236 1.384 . S
C1238 C1239 1.372 . S
C1239 C1238 1.372 . S
C1239 C1240 1.400 . S
C1239 C1244 1.490 . S
C1240 H1230 0.930 . S
C1240 C1239 1.400 . S
C1240 C1243 1.386 . S
H1241 C1257 0.930 . S
H1242 C1258 0.931 . S
C1243 H1231 0.929 . S
C1243 C1237 1.390 . S
C1243 C1240 1.386 . S
C1244 C1239 1.490 . S
C1244 C1246 1.395 . S
C1244 C1247 1.403 . S
H1245 C1251 0.930 . S
C1246 H1232 0.930 . S
C1246 C1244 1.395 . S
C1246 C1249 1.403 . S
C1247 C1244 1.403 . S
C1247 C1248 1.524 . S
C1247 C1251 1.400 . S
C1248 H1233 0.960 . S
C1248 H1234 0.960 . S
C1248 H1235 0.960 . S
C1248 C1247 1.524 . S
C1249 C1246 1.403 . S
C1249 C1250 1.392 . S
C1249 C1253 1.495 . S
C1250 C1249 1.392 . S
C1250 C1251 1.385 . S
C1250 C1252 1.478 . S
C1251 H1245 0.930 . S
C1251 C1247 1.400 . S
C1251 C1250 1.385 . S
C1252 C1250 1.478 . S
C1252 C1254 1.381 . S
C1252 C1258 1.383 . S
C1253 C1249 1.495 . S
C1253 H1259 0.959 . S
C1253 H1260 0.961 . S
C1253 H1261 0.960 . S
C1254 C1252 1.381 . S
C1254 C1255 1.394 . S
C1254 H1262 0.930 . S
C1255 C1254 1.394 . S
C1255 C1256 1.383 . S
C1255 H1263 0.929 . S
C1256 C1255 1.383 . S
C1256 C1257 1.377 . S
C1257 H1241 0.930 . S
C1257 C1256 1.377 . S
C1257 C1258 1.379 . S
C1258 H1242 0.931 . S
C1258 C1252 1.383 . S
C1258 C1257 1.379 . S
H1259 C1253 0.959 . S
H1260 C1253 0.961 . S
H1261 C1253 0.960 . S
H1262 C1254 0.930 . S
H1263 C1255 0.929 . S
H1264 C1272 0.929 . S
H1265 C1274 0.930 . S
H1266 C1276 0.930 . S
H1267 C1279 0.929 . S
H1268 C1282 0.930 . S
H1269 C1284 0.960 . S
H1270 C1284 0.960 . S
H1271 C1284 0.960 . S
C1272 H1264 0.929 . S
C1272 C1273 1.377 . S
C1272 C1274 1.384 . S
C1273 C1272 1.377 . S
C1273 C1279 1.390 . S
C1274 H1265 0.930 . S
C1274 C1272 1.384 . S
C1274 C1275 1.372 . S
C1275 C1274 1.372 . S
C1275 C1276 1.400 . S
C1275 C1280 1.490 . S
C1276 H1266 0.930 . S
C1276 C1275 1.400 . S
C1276 C1279 1.386 . S
H1277 C1293 0.930 . S
H1278 C1294 0.931 . S
C1279 H1267 0.929 . S
C1279 C1273 1.390 . S
C1279 C1276 1.386 . S
C1280 C1275 1.490 . S
C1280 C1282 1.395 . S
C1280 C1283 1.403 . S
H1281 C1287 0.930 . S
C1282 H1268 0.930 . S
C1282 C1280 1.395 . S
C1282 C1285 1.403 . S
C1283 C1280 1.403 . S
C1283 C1284 1.524 . S
C1283 C1287 1.400 . S
C1284 H1269 0.960 . S
C1284 H1270 0.960 . S
C1284 H1271 0.960 . S
C1284 C1283 1.524 . S
C1285 C1282 1.403 . S
C1285 C1286 1.392 . S
C1285 C1289 1.495 . S
C1286 C1285 1.392 . S
C1286 C1287 1.385 . S
C1286 C1288 1.478 . S
C1287 H1281 0.930 . S
C1287 C1283 1.400 . S
C1287 C1286 1.385 . S
C1288 C1286 1.478 . S
C1288 C1290 1.381 . S
C1288 C1294 1.383 . S
C1289 C1285 1.495 . S
C1289 H1295 0.959 . S
C1289 H1296 0.961 . S
C1289 H1297 0.960 . S
C1290 C1288 1.381 . S
C1290 C1291 1.394 . S
C1290 H1298 0.930 . S
C1291 C1290 1.394 . S
C1291 C1292 1.383 . S
C1291 H1299 0.929 . S
C1292 C1291 1.383 . S
C1292 C1293 1.377 . S
C1293 H1277 0.930 . S
C1293 C1292 1.377 . S
C1293 C1294 1.379 . S
C1294 H1278 0.931 . S
C1294 C1288 1.383 . S
C1294 C1293 1.379 . S
H1295 C1289 0.959 . S
H1296 C1289 0.961 . S
H1297 C1289 0.960 . S
H1298 C1290 0.930 . S
H1299 C1291 0.929 . S
H1300 C1308 0.929 . S
H1301 C1310 0.930 . S
H1302 C1312 0.930 . S
H1303 C1315 0.929 . S
H1304 C1318 0.930 . S
H1305 C1320 0.960 . S
H1306 C1320 0.960 . S
H1307 C1320 0.960 . S
C1308 H1300 0.929 . S
C1308 C1309 1.377 . S
C1308 C1310 1.384 . S
C1309 C1308 1.377 . S
C1309 C1315 1.390 . S
C1310 H1301 0.930 . S
C1310 C1308 1.384 . S
C1310 C1311 1.372 . S
C1311 C1310 1.372 . S
C1311 C1312 1.400 . S
C1311 C1316 1.490 . S
C1312 H1302 0.930 . S
C1312 C1311 1.400 . S
C1312 C1315 1.386 . S
H1313 C1329 0.930 . S
H1314 C1330 0.931 . S
C1315 H1303 0.929 . S
C1315 C1309 1.390 . S
C1315 C1312 1.386 . S
C1316 C1311 1.490 . S
C1316 C1318 1.395 . S
C1316 C1319 1.403 . S
H1317 C1323 0.930 . S
C1318 H1304 0.930 . S
C1318 C1316 1.395 . S
C1318 C1321 1.403 . S
C1319 C1316 1.403 . S
C1319 C1320 1.524 . S
C1319 C1323 1.400 . S
C1320 H1305 0.960 . S
C1320 H1306 0.960 . S
C1320 H1307 0.960 . S
C1320 C1319 1.524 . S
C1321 C1318 1.403 . S
C1321 C1322 1.392 . S
C1321 C1325 1.495 . S
C1322 C1321 1.392 . S
C1322 C1323 1.385 . S
C1322 C1324 1.478 . S
C1323 H1317 0.930 . S
C1323 C1319 1.400 . S
C1323 C1322 1.385 . S
C1324 C1322 1.478 . S
C1324 C1326 1.381 . S
C1324 C1330 1.383 . S
C1325 C1321 1.495 . S
C1325 H1331 0.959 . S
C1325 H1332 0.961 . S
C1325 H1333 0.960 . S
C1326 C1324 1.381 . S
C1326 C1327 1.394 . S
C1326 H1334 0.930 . S
C1327 C1326 1.394 . S
C1327 C1328 1.383 . S
C1327 H1335 0.929 . S
C1328 C1327 1.383 . S
C1328 C1329 1.377 . S
C1329 H1313 0.930 . S
C1329 C1328 1.377 . S
C1329 C1330 1.379 . S
C1330 H1314 0.931 . S
C1330 C1324 1.383 . S
C1330 C1329 1.379 . S
H1331 C1325 0.959 . S
H1332 C1325 0.961 . S
H1333 C1325 0.960 . S
H1334 C1326 0.930 . S
H1335 C1327 0.929 . S
H1336 C1344 0.929 . S
H1337 C1346 0.930 . S
H1338 C1348 0.930 . S
H1339 C1351 0.929 . S
H1340 C1354 0.930 . S
H1341 C1356 0.954 1_565 S
H1342 C1356 0.960 . S
H1343 C1356 0.960 . S
C1344 H1336 0.929 . S
C1344 C1345 1.377 . S
C1344 C1346 1.384 . S
C1345 C1344 1.377 . S
C1345 C1351 1.390 . S
C1346 H1337 0.930 . S
C1346 C1344 1.384 . S
C1346 C1347 1.372 . S
C1347 C1346 1.372 . S
C1347 C1348 1.400 . S
C1347 C1352 1.490 . S
C1348 H1338 0.930 . S
C1348 C1347 1.400 . S
C1348 C1351 1.386 . S
H1349 C1365 0.930 . S
H1350 C1366 0.931 . S
C1351 H1339 0.929 . S
C1351 C1345 1.390 . S
C1351 C1348 1.386 . S
C1352 C1347 1.490 . S
C1352 C1354 1.395 . S
C1352 C1355 1.403 . S
H1353 C1359 0.930 . S
C1354 H1340 0.930 . S
C1354 C1352 1.395 . S
C1354 C1357 1.403 1_545 S
C1355 C1352 1.403 . S
C1355 C1356 1.524 . S
C1355 C1359 1.400 1_545 S
C1356 H1341 0.954 1_545 S
C1356 H1342 0.960 . S
C1356 H1343 0.960 . S
C1356 C1355 1.524 . S
C1357 C1354 1.403 1_565 S
C1357 C1358 1.392 . S
C1357 C1361 1.495 . S
C1358 C1357 1.392 . S
C1358 C1359 1.385 . S
C1358 C1360 1.478 . S
C1359 H1353 0.930 . S
C1359 C1355 1.400 1_565 S
C1359 C1358 1.385 . S
C1360 C1358 1.478 . S
C1360 C1362 1.381 . S
C1360 C1366 1.383 . S
C1361 C1357 1.495 . S
C1361 H1367 0.959 1_565 S
C1361 H1368 0.961 . S
C1361 H1369 0.960 . S
C1362 C1360 1.381 . S
C1362 C1363 1.394 . S
C1362 H1370 0.930 . S
C1363 C1362 1.394 . S
C1363 C1364 1.383 . S
C1363 H1371 0.929 . S
C1364 C1363 1.383 . S
C1364 C1365 1.377 . S
C1365 H1349 0.930 . S
C1365 C1364 1.377 . S
C1365 C1366 1.379 . S
C1366 H1350 0.931 . S
C1366 C1360 1.383 . S
C1366 C1365 1.379 . S
H1367 C1361 0.959 1_545 S
H1368 C1361 0.961 . S
H1369 C1361 0.960 . S
H1370 C1362 0.930 . S
H1371 C1363 0.929 . S
H1372 C1380 0.929 . S
H1373 C1382 0.930 . S
H1374 C1384 0.930 1_556 S
H1375 C1387 0.929 . S
H1376 C1390 0.930 . S
H1377 C1392 0.960 . S
H1378 C1392 0.960 . S
H1379 C1392 0.960 . S
C1380 H1372 0.929 . S
C1380 C1381 1.377 1_655 S
C1380 C1382 1.384 . S
C1381 C1380 1.377 1_455 S
C1381 C1387 1.390 . S
C1382 H1373 0.930 . S
C1382 C1380 1.384 . S
C1382 C1383 1.372 1_655 S
C1383 C1382 1.372 1_455 S
C1383 C1384 1.400 . S
C1383 C1388 1.490 . S
C1384 H1374 0.930 1_554 S
C1384 C1383 1.400 . S
C1384 C1387 1.386 . S
H1385 C1401 0.930 . S
H1386 C1402 0.931 . S
C1387 H1375 0.929 . S
C1387 C1381 1.390 . S
C1387 C1384 1.386 . S
C1388 C1383 1.490 . S
C1388 C1390 1.395 . S
C1388 C1391 1.403 1_554 S
H1389 C1395 0.930 . S
C1390 H1376 0.930 . S
C1390 C1388 1.395 . S
C1390 C1393 1.403 1_565 S
C1391 C1388 1.403 1_556 S
C1391 C1392 1.524 . S
C1391 C1395 1.400 1_565 S
C1392 H1377 0.960 . S
C1392 H1378 0.960 . S
C1392 H1379 0.960 . S
C1392 C1391 1.524 . S
C1393 C1390 1.403 1_545 S
C1393 C1394 1.409 . S
C1393 C1397 1.495 . S
C1394 C1393 1.409 . S
C1394 C1395 1.371 1_554 S
C1394 C1396 1.475 1_554 S
C1395 H1389 0.930 . S
C1395 C1391 1.400 1_545 S
C1395 C1394 1.371 1_556 S
C1396 C1394 1.475 1_556 S
C1396 C1398 1.381 1_455 S
C1396 C1402 1.383 . S
C1397 C1393 1.495 . S
C1397 H1403 0.959 . S
C1397 H1404 0.961 . S
C1397 H1405 0.905 1_455 S
C1398 C1396 1.381 1_655 S
C1398 C1399 1.394 . S
C1398 H1406 0.930 1_556 S
C1399 C1398 1.394 . S
C1399 C1400 1.383 1_655 S
C1399 H1407 0.929 . S
C1400 C1399 1.383 1_455 S
C1400 C1401 1.377 . S
C1401 H1385 0.930 . S
C1401 C1400 1.377 . S
C1401 C1402 1.379 . S
C1402 H1386 0.931 . S
C1402 C1396 1.383 . S
C1402 C1401 1.379 . S
H1403 C1397 0.959 . S
H1404 C1397 0.961 . S
H1405 C1397 0.905 1_655 S
H1406 C1398 0.930 1_554 S
H1407 C1399 0.929 . S
H1408 C1416 0.929 . S
H1409 C1418 0.930 . S
H1410 C1420 0.930 . S
H1411 C1423 0.929 . S
H1412 C1426 0.930 . S
H1413 C1428 0.960 . S
H1414 C1428 0.960 . S
H1415 C1428 0.960 . S
C1416 H1408 0.929 . S
C1416 C1417 1.377 . S
C1416 C1418 1.384 . S
C1417 C1416 1.377 . S
C1417 C1423 1.390 . S
C1418 H1409 0.930 . S
C1418 C1416 1.384 . S
C1418 C1419 1.372 . S
C1419 C1418 1.372 . S
C1419 C1420 1.400 . S
C1419 C1424 1.490 . S
C1420 H1410 0.930 . S
C1420 C1419 1.400 . S
C1420 C1423 1.386 . S
H1421 C1437 0.930 . S
H1422 C1438 0.931 . S
C1423 H1411 0.929 . S
C1423 C1417 1.390 . S
C1423 C1420 1.386 . S
C1424 C1419 1.490 . S
C1424 C1426 1.395 . S
C1424 C1427 1.403 . S
H1425 C1431 0.930 . S
C1426 H1412 0.930 . S
C1426 C1424 1.395 . S
C1426 C1429 1.403 . S
C1427 C1424 1.403 . S
C1427 C1428 1.524 . S
C1427 C1431 1.400 . S
C1428 H1413 0.960 . S
C1428 H1414 0.960 . S
C1428 H1415 0.960 . S
C1428 C1427 1.524 . S
C1429 C1426 1.403 . S
C1429 C1430 1.392 . S
C1429 C1433 1.495 . S
C1430 C1429 1.392 . S
C1430 C1431 1.385 . S
C1430 C1432 1.478 . S
C1431 H1425 0.930 . S
C1431 C1427 1.400 . S
C1431 C1430 1.385 . S
C1432 C1430 1.478 . S
C1432 C1434 1.381 . S
C1432 C1438 1.383 . S
C1433 C1429 1.495 . S
C1433 H1439 0.959 . S
C1433 H1440 0.961 . S
C1433 H1441 0.960 . S
C1434 C1432 1.381 . S
C1434 C1435 1.394 . S
C1434 H1442 0.930 . S
C1435 C1434 1.394 . S
C1435 C1436 1.383 . S
C1435 H1443 0.916 1_554 S
C1436 C1435 1.383 . S
C1436 C1437 1.377 . S
C1437 H1421 0.930 . S
C1437 C1436 1.377 . S
C1437 C1438 1.379 . S
C1438 H1422 0.931 . S
C1438 C1432 1.383 . S
C1438 C1437 1.379 . S
H1439 C1433 0.959 . S
H1440 C1433 0.961 . S
H1441 C1433 0.960 . S
H1442 C1434 0.930 . S
H1443 C1435 0.916 1_556 S
H1444 C1452 0.929 . S
H1445 C1454 0.930 . S
H1446 C1456 0.930 . S
H1447 C1459 0.929 . S
H1448 C1462 0.930 . S
H1449 C1464 0.960 . S
H1450 C1464 0.960 . S
H1451 C1464 0.960 . S
C1452 H1444 0.929 . S
C1452 C1453 1.377 . S
C1452 C1454 1.384 . S
C1453 C1452 1.377 . S
C1453 C1459 1.390 . S
C1454 H1445 0.930 . S
C1454 C1452 1.384 . S
C1454 C1455 1.372 . S
C1455 C1454 1.372 . S
C1455 C1456 1.400 . S
C1455 C1460 1.490 . S
C1456 H1446 0.930 . S
C1456 C1455 1.400 . S
C1456 C1459 1.386 . S
H1457 C1473 0.930 . S
H1458 C1474 0.931 . S
C1459 H1447 0.929 . S
C1459 C1453 1.390 . S
C1459 C1456 1.386 . S
C1460 C1455 1.490 . S
C1460 C1462 1.395 . S
C1460 C1463 1.403 . S
H1461 C1467 0.930 . S
C1462 H1448 0.930 . S
C1462 C1460 1.395 . S
C1462 C1465 1.403 . S
C1463 C1460 1.403 . S
C1463 C1464 1.524 . S
C1463 C1467 1.400 . S
C1464 H1449 0.960 . S
C1464 H1450 0.960 . S
C1464 H1451 0.960 . S
C1464 C1463 1.524 . S
C1465 C1462 1.403 . S
C1465 C1466 1.392 . S
C1465 C1469 1.495 . S
C1466 C1465 1.392 . S
C1466 C1467 1.385 . S
C1466 C1468 1.478 . S
C1467 H1461 0.930 . S
C1467 C1463 1.400 . S
C1467 C1466 1.385 . S
C1468 C1466 1.478 . S
C1468 C1470 1.381 . S
C1468 C1474 1.383 . S
C1469 C1465 1.495 . S
C1469 H1475 0.959 . S
C1469 H1476 0.961 . S
C1469 H1477 0.960 . S
C1470 C1468 1.381 . S
C1470 C1471 1.394 . S
C1470 H1478 0.930 . S
C1471 C1470 1.394 . S
C1471 C1472 1.383 . S
C1471 H1479 0.929 . S
C1472 C1471 1.383 . S
C1472 C1473 1.377 . S
C1473 H1457 0.930 . S
C1473 C1472 1.377 . S
C1473 C1474 1.379 . S
C1474 H1458 0.931 . S
C1474 C1468 1.383 . S
C1474 C1473 1.379 . S
H1475 C1469 0.959 . S
H1476 C1469 0.961 . S
H1477 C1469 0.960 . S
H1478 C1470 0.930 . S
H1479 C1471 0.929 . S
H1480 C1488 0.929 . S
H1481 C1490 0.930 . S
H1482 C1492 0.930 . S
H1483 C1495 0.929 . S
H1484 C1498 0.930 . S
H1485 C1500 0.960 . S
H1486 C1500 0.960 . S
H1487 C1500 0.960 . S
C1488 H1480 0.929 . S
C1488 C1489 1.377 . S
C1488 C1490 1.384 . S
C1489 C1488 1.377 . S
C1489 C1495 1.390 . S
C1490 H1481 0.930 . S
C1490 C1488 1.384 . S
C1490 C1491 1.372 . S
C1491 C1490 1.372 . S
C1491 C1492 1.400 . S
C1491 C1496 1.490 . S
C1492 H1482 0.930 . S
C1492 C1491 1.400 . S
C1492 C1495 1.386 . S
H1493 C1509 0.930 . S
H1494 C1510 0.931 . S
C1495 H1483 0.929 . S
C1495 C1489 1.390 . S
C1495 C1492 1.386 . S
C1496 C1491 1.490 . S
C1496 C1498 1.395 . S
C1496 C1499 1.403 . S
H1497 C1503 0.930 . S
C1498 H1484 0.930 . S
C1498 C1496 1.395 . S
C1498 C1501 1.403 . S
C1499 C1496 1.403 . S
C1499 C1500 1.524 . S
C1499 C1503 1.400 . S
C1500 H1485 0.960 . S
C1500 H1486 0.960 . S
C1500 H1487 0.960 . S
C1500 C1499 1.524 . S
C1501 C1498 1.403 . S
C1501 C1502 1.392 . S
C1501 C1505 1.495 . S
C1502 C1501 1.392 . S
C1502 C1503 1.385 . S
C1502 C1504 1.478 . S
C1503 H1497 0.930 . S
C1503 C1499 1.400 . S
C1503 C1502 1.385 . S
C1504 C1502 1.478 . S
C1504 C1506 1.381 . S
C1504 C1510 1.383 . S
C1505 C1501 1.495 . S
C1505 H1511 0.959 . S
C1505 H1512 0.961 . S
C1505 H1513 0.960 . S
C1506 C1504 1.381 . S
C1506 C1507 1.394 . S
C1506 H1514 0.930 . S
C1507 C1506 1.394 . S
C1507 C1508 1.383 . S
C1507 H1515 0.929 . S
C1508 C1507 1.383 . S
C1508 C1509 1.377 . S
C1509 H1493 0.930 . S
C1509 C1508 1.377 . S
C1509 C1510 1.379 . S
C1510 H1494 0.931 . S
C1510 C1504 1.383 . S
C1510 C1509 1.379 . S
H1511 C1505 0.959 . S
H1512 C1505 0.961 . S
H1513 C1505 0.960 . S
H1514 C1506 0.930 . S
H1515 C1507 0.929 . S
H1516 C1524 0.929 . S
H1517 C1526 0.930 . S
H1518 C1528 0.930 . S
H1519 C1531 0.929 . S
H1520 C1534 0.930 . S
H1521 C1536 0.960 . S
H1522 C1536 0.960 . S
H1523 C1536 0.960 . S
C1524 H1516 0.929 . S
C1524 C1525 1.377 . S
C1524 C1526 1.384 . S
C1525 C1524 1.377 . S
C1525 C1531 1.390 . S
C1526 H1517 0.930 . S
C1526 C1524 1.384 . S
C1526 C1527 1.372 . S
C1527 C1526 1.372 . S
C1527 C1528 1.400 . S
C1527 C1532 1.490 . S
C1528 H1518 0.930 . S
C1528 C1527 1.400 . S
C1528 C1531 1.386 . S
H1529 C1545 0.930 . S
H1530 C1546 0.931 . S
C1531 H1519 0.929 . S
C1531 C1525 1.390 . S
C1531 C1528 1.386 . S
C1532 C1527 1.490 . S
C1532 C1534 1.395 . S
C1532 C1535 1.403 . S
H1533 C1539 0.930 . S
C1534 H1520 0.930 . S
C1534 C1532 1.395 . S
C1534 C1537 1.403 . S
C1535 C1532 1.403 . S
C1535 C1536 1.524 . S
C1535 C1539 1.400 . S
C1536 H1521 0.960 . S
C1536 H1522 0.960 . S
C1536 H1523 0.960 . S
C1536 C1535 1.524 . S
C1537 C1534 1.403 . S
C1537 C1538 1.392 . S
C1537 C1541 1.495 . S
C1538 C1537 1.392 . S
C1538 C1539 1.385 . S
C1538 C1540 1.478 . S
C1539 H1533 0.930 . S
C1539 C1535 1.400 . S
C1539 C1538 1.385 . S
C1540 C1538 1.478 . S
C1540 C1542 1.381 . S
C1540 C1546 1.383 . S
C1541 C1537 1.495 . S
C1541 H1547 0.959 . S
C1541 H1548 0.961 . S
C1541 H1549 0.960 . S
C1542 C1540 1.381 . S
C1542 C1543 1.394 . S
C1542 H1550 0.930 . S
C1543 C1542 1.394 . S
C1543 C1544 1.383 . S
C1543 H1551 0.929 . S
C1544 C1543 1.383 . S
C1544 C1545 1.377 . S
C1545 H1529 0.930 . S
C1545 C1544 1.377 . S
C1545 C1546 1.379 . S
C1546 H1530 0.931 . S
C1546 C1540 1.383 . S
C1546 C1545 1.379 . S
H1547 C1541 0.959 . S
H1548 C1541 0.961 . S
H1549 C1541 0.960 . S
H1550 C1542 0.930 . S
H1551 C1543 0.929 . S
H1552 C1560 0.929 . S
H1553 C1562 0.930 . S
H1554 C1564 0.930 . S
H1555 C1567 0.929 . S
H1556 C1570 0.930 . S
H1557 C1572 0.960 . S
H1558 C1572 0.960 . S
H1559 C1572 0.960 . S
C1560 H1552 0.929 . S
C1560 C1561 1.377 . S
C1560 C1562 1.384 . S
C1561 C1560 1.377 . S
C1561 C1567 1.390 . S
C1562 H1553 0.930 . S
C1562 C1560 1.384 . S
C1562 C1563 1.372 . S
C1563 C1562 1.372 . S
C1563 C1564 1.400 . S
C1563 C1568 1.490 . S
C1564 H1554 0.930 . S
C1564 C1563 1.400 . S
C1564 C1567 1.386 . S
H1565 C1581 0.930 . S
H1566 C1582 0.931 . S
C1567 H1555 0.929 . S
C1567 C1561 1.390 . S
C1567 C1564 1.386 . S
C1568 C1563 1.490 . S
C1568 C1570 1.395 . S
C1568 C1571 1.403 . S
H1569 C1575 0.930 . S
C1570 H1556 0.930 . S
C1570 C1568 1.395 . S
C1570 C1573 1.403 . S
C1571 C1568 1.403 . S
C1571 C1572 1.524 . S
C1571 C1575 1.400 . S
C1572 H1557 0.960 . S
C1572 H1558 0.960 . S
C1572 H1559 0.960 . S
C1572 C1571 1.524 . S
C1573 C1570 1.403 . S
C1573 C1574 1.392 . S
C1573 C1577 1.495 . S
C1574 C1573 1.392 . S
C1574 C1575 1.385 . S
C1574 C1576 1.478 . S
C1575 H1569 0.930 . S
C1575 C1571 1.400 . S
C1575 C1574 1.385 . S
C1576 C1574 1.478 . S
C1576 C1578 1.381 . S
C1576 C1582 1.383 . S
C1577 C1573 1.495 . S
C1577 H1583 0.959 . S
C1577 H1584 0.961 . S
C1577 H1585 0.960 . S
C1578 C1576 1.381 . S
C1578 C1579 1.394 . S
C1578 H1586 0.930 . S
C1579 C1578 1.394 . S
C1579 C1580 1.383 . S
C1579 H1587 0.929 . S
C1580 C1579 1.383 . S
C1580 C1581 1.377 . S
C1581 H1565 0.930 . S
C1581 C1580 1.377 . S
C1581 C1582 1.379 . S
C1582 H1566 0.931 . S
C1582 C1576 1.383 . S
C1582 C1581 1.379 . S
H1583 C1577 0.959 . S
H1584 C1577 0.961 . S
H1585 C1577 0.960 . S
H1586 C1578 0.930 . S
H1587 C1579 0.929 . S
H1588 C1596 0.929 . S
H1589 C1598 0.930 . S
H1590 C1600 0.930 . S
H1591 C1603 0.929 . S
H1592 C1606 0.930 . S
H1593 C1608 0.960 . S
H1594 C1608 0.960 . S
H1595 C1608 0.960 . S
C1596 H1588 0.929 . S
C1596 C1597 1.377 . S
C1596 C1598 1.384 . S
C1597 C1596 1.377 . S
C1597 C1603 1.390 . S
C1598 H1589 0.930 . S
C1598 C1596 1.384 . S
C1598 C1599 1.372 . S
C1599 C1598 1.372 . S
C1599 C1600 1.400 . S
C1599 C1604 1.490 . S
C1600 H1590 0.930 . S
C1600 C1599 1.400 . S
C1600 C1603 1.386 . S
H1601 C1617 0.930 . S
H1602 C1618 0.931 . S
C1603 H1591 0.929 . S
C1603 C1597 1.390 . S
C1603 C1600 1.386 . S
C1604 C1599 1.490 . S
C1604 C1606 1.395 . S
C1604 C1607 1.403 . S
H1605 C1611 0.930 . S
C1606 H1592 0.930 . S
C1606 C1604 1.395 . S
C1606 C1609 1.403 . S
C1607 C1604 1.403 . S
C1607 C1608 1.524 . S
C1607 C1611 1.400 . S
C1608 H1593 0.960 . S
C1608 H1594 0.960 . S
C1608 H1595 0.960 . S
C1608 C1607 1.524 . S
C1609 C1606 1.403 . S
C1609 C1610 1.392 . S
C1609 C1613 1.495 . S
C1610 C1609 1.392 . S
C1610 C1611 1.385 . S
C1610 C1612 1.478 . S
C1611 H1605 0.930 . S
C1611 C1607 1.400 . S
C1611 C1610 1.385 . S
C1612 C1610 1.478 . S
C1612 C1614 1.381 . S
C1612 C1618 1.383 . S
C1613 C1609 1.495 . S
C1613 H1619 0.959 . S
C1613 H1620 0.961 . S
C1613 H1621 0.960 . S
C1614 C1612 1.381 . S
C1614 C1615 1.394 . S
C1614 H1622 0.930 . S
C1615 C1614 1.394 . S
C1615 C1616 1.383 . S
C1615 H1623 0.929 . S
C1616 C1615 1.383 . S
C1616 C1617 1.377 . S
C1617 H1601 0.930 . S
C1617 C1616 1.377 . S
C1617 C1618 1.379 . S
C1618 H1602 0.931 . S
C1618 C1612 1.383 . S
C1618 C1617 1.379 . S
H1619 C1613 0.959 . S
H1620 C1613 0.961 . S
H1621 C1613 0.960 . S
H1622 C1614 0.930 . S
H1623 C1615 0.929 . S
H1624 C1632 0.929 . S
H1625 C1634 0.930 . S
H1626 C1636 0.930 . S
H1627 C1639 0.929 . S
H1628 C1642 0.930 . S
H1629 C1644 0.960 . S
H1630 C1644 0.960 . S
H1631 C1644 0.960 . S
C1632 H1624 0.929 . S
C1632 C1633 1.377 . S
C1632 C1634 1.384 . S
C1633 C1632 1.377 . S
C1633 C1639 1.390 . S
C1634 H1625 0.930 . S
C1634 C1632 1.384 . S
C1634 C1635 1.372 . S
C1635 C1634 1.372 . S
C1635 C1636 1.400 . S
C1635 C1640 1.490 . S
C1636 H1626 0.930 . S
C1636 C1635 1.400 . S
C1636 C1639 1.386 . S
H1637 C1653 0.930 . S
H1638 C1654 0.931 . S
C1639 H1627 0.929 . S
C1639 C1633 1.390 . S
C1639 C1636 1.386 . S
C1640 C1635 1.490 . S
C1640 C1642 1.395 . S
C1640 C1643 1.403 . S
H1641 C1647 0.930 . S
C1642 H1628 0.930 . S
C1642 C1640 1.395 . S
C1642 C1645 1.403 . S
C1643 C1640 1.403 . S
C1643 C1644 1.524 . S
C1643 C1647 1.400 . S
C1644 H1629 0.960 . S
C1644 H1630 0.960 . S
C1644 H1631 0.960 . S
C1644 C1643 1.524 . S
C1645 C1642 1.403 . S
C1645 C1646 1.392 . S
C1645 C1649 1.495 . S
C1646 C1645 1.392 . S
C1646 C1647 1.385 . S
C1646 C1648 1.478 . S
C1647 H1641 0.930 . S
C1647 C1643 1.400 . S
C1647 C1646 1.385 . S
C1648 C1646 1.478 . S
C1648 C1650 1.381 . S
C1648 C1654 1.383 . S
C1649 C1645 1.495 . S
C1649 H1655 0.959 . S
C1649 H1656 0.961 . S
C1649 H1657 0.960 . S
C1650 C1648 1.381 . S
C1650 C1651 1.394 . S
C1650 H1658 0.930 . S
C1651 C1650 1.394 . S
C1651 C1652 1.383 . S
C1651 H1659 0.929 . S
C1652 C1651 1.383 . S
C1652 C1653 1.377 . S
C1653 H1637 0.930 . S
C1653 C1652 1.377 . S
C1653 C1654 1.379 . S
C1654 H1638 0.931 . S
C1654 C1648 1.383 . S
C1654 C1653 1.379 . S
H1655 C1649 0.959 . S
H1656 C1649 0.961 . S
H1657 C1649 0.960 . S
H1658 C1650 0.930 . S
H1659 C1651 0.929 . S
H1660 C1668 0.929 . S
H1661 C1670 0.930 . S
H1662 C1672 0.930 . S
H1663 C1675 0.929 . S
H1664 C1678 0.930 . S
H1665 C1680 0.960 . S
H1666 C1680 0.960 . S
H1667 C1680 0.960 . S
C1668 H1660 0.929 . S
C1668 C1669 1.377 . S
C1668 C1670 1.384 . S
C1669 C1668 1.377 . S
C1669 C1675 1.390 . S
C1670 H1661 0.930 . S
C1670 C1668 1.384 . S
C1670 C1671 1.372 . S
C1671 C1670 1.372 . S
C1671 C1672 1.400 . S
C1671 C1676 1.490 . S
C1672 H1662 0.930 . S
C1672 C1671 1.400 . S
C1672 C1675 1.386 . S
H1673 C1689 0.930 . S
H1674 C1690 0.931 . S
C1675 H1663 0.929 . S
C1675 C1669 1.390 . S
C1675 C1672 1.386 . S
C1676 C1671 1.490 . S
C1676 C1678 1.395 . S
C1676 C1679 1.403 . S
H1677 C1683 0.930 . S
C1678 H1664 0.930 . S
C1678 C1676 1.395 . S
C1678 C1681 1.403 . S
C1679 C1676 1.403 . S
C1679 C1680 1.524 . S
C1679 C1683 1.400 . S
C1680 H1665 0.960 . S
C1680 H1666 0.960 . S
C1680 H1667 0.960 . S
C1680 C1679 1.524 . S
C1681 C1678 1.403 . S
C1681 C1682 1.392 . S
C1681 C1685 1.495 . S
C1682 C1681 1.392 . S
C1682 C1683 1.385 . S
C1682 C1684 1.478 . S
C1683 H1677 0.930 . S
C1683 C1679 1.400 . S
C1683 C1682 1.385 . S
C1684 C1682 1.478 . S
C1684 C1686 1.381 . S
C1684 C1690 1.383 . S
C1685 C1681 1.495 . S
C1685 H1691 0.959 . S
C1685 H1692 0.961 . S
C1685 H1693 0.960 . S
C1686 C1684 1.381 . S
C1686 C1687 1.394 . S
C1686 H1694 0.930 . S
C1687 C1686 1.394 . S
C1687 C1688 1.383 . S
C1687 H1695 0.929 . S
C1688 C1687 1.383 . S
C1688 C1689 1.377 . S
C1689 H1673 0.930 . S
C1689 C1688 1.377 . S
C1689 C1690 1.379 . S
C1690 H1674 0.931 . S
C1690 C1684 1.383 . S
C1690 C1689 1.379 . S
H1691 C1685 0.959 . S
H1692 C1685 0.961 . S
H1693 C1685 0.960 . S
H1694 C1686 0.930 . S
H1695 C1687 0.929 . S
H1696 C1704 0.929 1_455 S
H1697 C1706 0.930 . S
H1698 C1708 0.930 . S
H1699 C1711 0.929 . S
H1700 C1714 0.930 . S
H1701 C1716 0.960 . S
H1702 C1716 0.960 . S
H1703 C1716 0.960 . S
C1704 H1696 0.929 1_655 S
C1704 C1705 1.377 . S
C1704 C1706 1.384 . S
C1705 C1704 1.377 . S
C1705 C1711 1.390 . S
C1706 H1697 0.930 . S
C1706 C1704 1.384 . S
C1706 C1707 1.372 . S
C1707 C1706 1.372 . S
C1707 C1708 1.400 . S
C1707 C1712 1.490 . S
C1708 H1698 0.930 . S
C1708 C1707 1.400 . S
C1708 C1711 1.386 . S
H1709 C1725 0.930 . S
H1710 C1726 0.931 . S
C1711 H1699 0.929 . S
C1711 C1705 1.390 . S
C1711 C1708 1.386 . S
C1712 C1707 1.490 . S
C1712 C1714 1.395 . S
C1712 C1715 1.403 . S
H1713 C1719 0.930 . S
C1714 H1700 0.930 . S
C1714 C1712 1.395 . S
C1714 C1717 1.403 . S
C1715 C1712 1.403 . S
C1715 C1716 1.524 . S
C1715 C1719 1.400 . S
C1716 H1701 0.960 . S
C1716 H1702 0.960 . S
C1716 H1703 0.960 . S
C1716 C1715 1.524 . S
C1717 C1714 1.403 . S
C1717 C1718 1.392 . S
C1717 C1721 1.495 . S
C1718 C1717 1.392 . S
C1718 C1719 1.385 . S
C1718 C1720 1.478 . S
C1719 H1713 0.930 . S
C1719 C1715 1.400 . S
C1719 C1718 1.385 . S
C1720 C1718 1.478 . S
C1720 C1722 1.381 . S
C1720 C1726 1.383 . S
C1721 C1717 1.495 . S
C1721 H1727 0.959 . S
C1721 H1728 0.961 . S
C1721 H1729 0.960 . S
C1722 C1720 1.381 . S
C1722 C1723 1.394 . S
C1722 H1730 0.930 . S
C1723 C1722 1.394 . S
C1723 C1724 1.383 . S
C1723 H1731 0.929 . S
C1724 C1723 1.383 . S
C1724 C1725 1.377 . S
C1725 H1709 0.930 . S
C1725 C1724 1.377 . S
C1725 C1726 1.379 . S
C1726 H1710 0.931 . S
C1726 C1720 1.383 . S
C1726 C1725 1.379 . S
H1727 C1721 0.959 . S
H1728 C1721 0.961 . S
H1729 C1721 0.960 . S
H1730 C1722 0.930 . S
H1731 C1723 0.929 . S
H1732 C1740 0.929 . S
H1733 C1742 0.930 . S
H1734 C1744 0.930 . S
H1735 C1747 0.929 . S
H1736 C1750 0.930 . S
H1737 C1752 0.960 . S
H1738 C1752 0.960 . S
H1739 C1752 0.960 . S
C1740 H1732 0.929 . S
C1740 C1741 1.377 . S
C1740 C1742 1.384 . S
C1741 C1740 1.377 . S
C1741 C1747 1.390 . S
C1742 H1733 0.930 . S
C1742 C1740 1.384 . S
C1742 C1743 1.372 . S
C1743 C1742 1.372 . S
C1743 C1744 1.400 . S
C1743 C1748 1.490 . S
C1744 H1734 0.930 . S
C1744 C1743 1.400 . S
C1744 C1747 1.386 . S
H1745 C1761 0.930 . S
H1746 C1762 0.931 . S
C1747 H1735 0.929 . S
C1747 C1741 1.390 . S
C1747 C1744 1.386 . S
C1748 C1743 1.490 . S
C1748 C1750 1.395 . S
C1748 C1751 1.403 . S
H1749 C1755 0.930 . S
C1750 H1736 0.930 . S
C1750 C1748 1.395 . S
C1750 C1753 1.403 . S
C1751 C1748 1.403 . S
C1751 C1752 1.524 . S
C1751 C1755 1.400 . S
C1752 H1737 0.960 . S
C1752 H1738 0.960 . S
C1752 H1739 0.960 . S
C1752 C1751 1.524 . S
C1753 C1750 1.403 . S
C1753 C1754 1.392 . S
C1753 C1757 1.495 . S
C1754 C1753 1.392 . S
C1754 C1755 1.385 . S
C1754 C1756 1.478 . S
C1755 H1749 0.930 . S
C1755 C1751 1.400 . S
C1755 C1754 1.385 . S
C1756 C1754 1.478 . S
C1756 C1758 1.381 . S
C1756 C1762 1.383 . S
C1757 C1753 1.495 . S
C1757 H1763 0.959 . S
C1757 H1764 0.961 . S
C1757 H1765 0.960 . S
C1758 C1756 1.381 . S
C1758 C1759 1.394 . S
C1758 H1766 0.930 . S
C1759 C1758 1.394 . S
C1759 C1760 1.383 . S
C1759 H1767 0.929 . S
C1760 C1759 1.383 . S
C1760 C1761 1.377 . S
C1761 H1745 0.930 . S
C1761 C1760 1.377 . S
C1761 C1762 1.379 . S
C1762 H1746 0.931 . S
C1762 C1756 1.383 . S
C1762 C1761 1.379 . S
H1763 C1757 0.959 . S
H1764 C1757 0.961 . S
H1765 C1757 0.960 . S
H1766 C1758 0.930 . S
H1767 C1759 0.929 . S
H1768 C1776 0.929 . S
H1769 C1778 0.930 . S
H1770 C1780 0.930 . S
H1771 C1783 0.929 . S
H1772 C1786 0.930 . S
H1773 C1788 0.960 . S
H1774 C1788 0.960 . S
H1775 C1788 0.960 . S
C1776 H1768 0.929 . S
C1776 C1777 1.377 . S
C1776 C1778 1.384 . S
C1777 C1776 1.377 . S
C1777 C1783 1.390 . S
C1778 H1769 0.930 . S
C1778 C1776 1.384 . S
C1778 C1779 1.372 . S
C1779 C1778 1.372 . S
C1779 C1780 1.400 . S
C1779 C1784 1.490 . S
C1780 H1770 0.930 . S
C1780 C1779 1.400 . S
C1780 C1783 1.386 . S
H1781 C1797 0.930 . S
H1782 C1798 0.931 . S
C1783 H1771 0.929 . S
C1783 C1777 1.390 . S
C1783 C1780 1.386 . S
C1784 C1779 1.490 . S
C1784 C1786 1.395 . S
C1784 C1787 1.403 . S
H1785 C1791 0.930 . S
C1786 H1772 0.930 . S
C1786 C1784 1.395 . S
C1786 C1789 1.403 . S
C1787 C1784 1.403 . S
C1787 C1788 1.524 . S
C1787 C1791 1.400 . S
C1788 H1773 0.960 . S
C1788 H1774 0.960 . S
C1788 H1775 0.960 . S
C1788 C1787 1.524 . S
C1789 C1786 1.403 . S
C1789 C1790 1.392 . S
C1789 C1793 1.495 . S
C1790 C1789 1.392 . S
C1790 C1791 1.385 . S
C1790 C1792 1.478 . S
C1791 H1785 0.930 . S
C1791 C1787 1.400 . S
C1791 C1790 1.385 . S
C1792 C1790 1.478 . S
C1792 C1794 1.381 . S
C1792 C1798 1.383 . S
C1793 C1789 1.495 . S
C1793 H1799 0.959 . S
C1793 H1800 0.961 . S
C1793 H1801 0.960 . S
C1794 C1792 1.381 . S
C1794 C1795 1.394 . S
C1794 H1802 0.930 . S
C1795 C1794 1.394 . S
C1795 C1796 1.383 . S
C1795 H1803 0.929 . S
C1796 C1795 1.383 . S
C1796 C1797 1.377 . S
C1797 H1781 0.930 . S
C1797 C1796 1.377 . S
C1797 C1798 1.379 . S
C1798 H1782 0.931 . S
C1798 C1792 1.383 . S
C1798 C1797 1.379 . S
H1799 C1793 0.959 . S
H1800 C1793 0.961 . S
H1801 C1793 0.960 . S
H1802 C1794 0.930 . S
H1803 C1795 0.929 . S
H1804 C1812 0.929 . S
H1805 C1814 0.930 . S
H1806 C1816 0.930 . S
H1807 C1819 0.929 . S
H1808 C1822 0.930 . S
H1809 C1824 0.960 . S
H1810 C1824 0.960 . S
H1811 C1824 0.960 . S
C1812 H1804 0.929 . S
C1812 C1813 1.377 . S
C1812 C1814 1.384 . S
C1813 C1812 1.377 . S
C1813 C1819 1.390 . S
C1814 H1805 0.930 . S
C1814 C1812 1.384 . S
C1814 C1815 1.372 . S
C1815 C1814 1.372 . S
C1815 C1816 1.400 . S
C1815 C1820 1.490 . S
C1816 H1806 0.930 . S
C1816 C1815 1.400 . S
C1816 C1819 1.386 . S
H1817 C1833 0.930 . S
H1818 C1834 0.931 . S
C1819 H1807 0.929 . S
C1819 C1813 1.390 . S
C1819 C1816 1.386 . S
C1820 C1815 1.490 . S
C1820 C1822 1.395 . S
C1820 C1823 1.403 . S
H1821 C1827 0.930 . S
C1822 H1808 0.930 . S
C1822 C1820 1.395 . S
C1822 C1825 1.403 . S
C1823 C1820 1.403 . S
C1823 C1824 1.524 . S
C1823 C1827 1.400 . S
C1824 H1809 0.960 . S
C1824 H1810 0.960 . S
C1824 H1811 0.960 . S
C1824 C1823 1.524 . S
C1825 C1822 1.403 . S
C1825 C1826 1.392 . S
C1825 C1829 1.495 . S
C1826 C1825 1.392 . S
C1826 C1827 1.385 . S
C1826 C1828 1.478 . S
C1827 H1821 0.930 . S
C1827 C1823 1.400 . S
C1827 C1826 1.385 . S
C1828 C1826 1.478 . S
C1828 C1830 1.381 . S
C1828 C1834 1.383 . S
C1829 C1825 1.495 . S
C1829 H1835 0.959 . S
C1829 H1836 0.961 . S
C1829 H1837 0.960 . S
C1830 C1828 1.381 . S
C1830 C1831 1.394 . S
C1830 H1838 0.930 . S
C1831 C1830 1.394 . S
C1831 C1832 1.383 . S
C1831 H1839 0.929 . S
C1832 C1831 1.383 . S
C1832 C1833 1.377 . S
C1833 H1817 0.930 . S
C1833 C1832 1.377 . S
C1833 C1834 1.379 . S
C1834 H1818 0.931 . S
C1834 C1828 1.383 . S
C1834 C1833 1.379 . S
H1835 C1829 0.959 . S
H1836 C1829 0.961 . S
H1837 C1829 0.960 . S
H1838 C1830 0.930 . S
H1839 C1831 0.929 . S
H1840 C1848 0.929 . S
H1841 C1850 0.930 . S
H1842 C1852 0.930 . S
H1843 C1855 0.929 . S
H1844 C1858 0.930 . S
H1845 C1860 0.960 . S
H1846 C1860 0.960 . S
H1847 C1860 0.960 . S
C1848 H1840 0.929 . S
C1848 C1849 1.377 . S
C1848 C1850 1.384 . S
C1849 C1848 1.377 . S
C1849 C1855 1.390 . S
C1850 H1841 0.930 . S
C1850 C1848 1.384 . S
C1850 C1851 1.372 . S
C1851 C1850 1.372 . S
C1851 C1852 1.400 . S
C1851 C1856 1.490 . S
C1852 H1842 0.930 . S
C1852 C1851 1.400 . S
C1852 C1855 1.386 . S
H1853 C1869 0.930 . S
H1854 C1870 0.931 . S
C1855 H1843 0.929 . S
C1855 C1849 1.390 . S
C1855 C1852 1.386 . S
C1856 C1851 1.490 . S
C1856 C1858 1.395 . S
C1856 C1859 1.403 . S
H1857 C1863 0.930 . S
C1858 H1844 0.930 . S
C1858 C1856 1.395 . S
C1858 C1861 1.403 . S
C1859 C1856 1.403 . S
C1859 C1860 1.524 . S
C1859 C1863 1.400 . S
C1860 H1845 0.960 . S
C1860 H1846 0.960 . S
C1860 H1847 0.960 . S
C1860 C1859 1.524 . S
C1861 C1858 1.403 . S
C1861 C1862 1.392 . S
C1861 C1865 1.495 . S
C1862 C1861 1.392 . S
C1862 C1863 1.385 . S
C1862 C1864 1.478 . S
C1863 H1857 0.930 . S
C1863 C1859 1.400 . S
C1863 C1862 1.385 . S
C1864 C1862 1.478 . S
C1864 C1866 1.381 . S
C1864 C1870 1.383 . S
C1865 C1861 1.495 . S
C1865 H1871 0.959 . S
C1865 H1872 0.961 . S
C1865 H1873 0.960 . S
C1866 C1864 1.381 . S
C1866 C1867 1.394 . S
C1866 H1874 0.930 . S
C1867 C1866 1.394 . S
C1867 C1868 1.383 . S
C1867 H1875 0.929 1_655 S
C1868 C1867 1.383 . S
C1868 C1869 1.377 . S
C1869 H1853 0.930 . S
C1869 C1868 1.377 . S
C1869 C1870 1.379 . S
C1870 H1854 0.931 . S
C1870 C1864 1.383 . S
C1870 C1869 1.379 . S
H1871 C1865 0.959 . S
H1872 C1865 0.961 . S
H1873 C1865 0.960 . S
H1874 C1866 0.930 . S
H1875 C1867 0.929 1_455 S
H1876 C1884 0.929 . S
H1877 C1886 0.930 . S
H1878 C1888 0.930 . S
H1879 C1891 0.929 . S
H1880 C1894 0.930 . S
H1881 C1896 0.960 . S
H1882 C1896 0.960 . S
H1883 C1896 0.960 . S
C1884 H1876 0.929 . S
C1884 C1885 1.377 . S
C1884 C1886 1.384 . S
C1885 C1884 1.377 . S
C1885 C1891 1.390 . S
C1886 H1877 0.930 . S
C1886 C1884 1.384 . S
C1886 C1887 1.372 . S
C1887 C1886 1.372 . S
C1887 C1888 1.400 . S
C1887 C1892 1.490 . S
C1888 H1878 0.930 . S
C1888 C1887 1.400 . S
C1888 C1891 1.386 . S
H1889 C1905 0.930 . S
H1890 C1906 0.931 . S
C1891 H1879 0.929 . S
C1891 C1885 1.390 . S
C1891 C1888 1.386 . S
C1892 C1887 1.490 . S
C1892 C1894 1.395 . S
C1892 C1895 1.403 . S
H1893 C1899 0.930 . S
C1894 H1880 0.930 . S
C1894 C1892 1.395 . S
C1894 C1897 1.403 . S
C1895 C1892 1.403 . S
C1895 C1896 1.524 . S
C1895 C1899 1.400 . S
C1896 H1881 0.960 . S
C1896 H1882 0.960 . S
C1896 H1883 0.960 . S
C1896 C1895 1.524 . S
C1897 C1894 1.403 . S
C1897 C1898 1.392 . S
C1897 C1901 1.495 . S
C1898 C1897 1.392 . S
C1898 C1899 1.385 . S
C1898 C1900 1.478 . S
C1899 H1893 0.930 . S
C1899 C1895 1.400 . S
C1899 C1898 1.385 . S
C1900 C1898 1.478 . S
C1900 C1902 1.381 . S
C1900 C1906 1.383 . S
C1901 C1897 1.495 . S
C1901 H1907 0.959 1_556 S
C1901 H1908 0.961 . S
C1901 H1909 0.960 1_556 S
C1902 C1900 1.381 . S
C1902 C1903 1.394 . S
C1902 H1910 0.930 . S
C1903 C1902 1.394 . S
C1903 C1904 1.383 . S
C1903 H1911 0.929 . S
C1904 C1903 1.383 . S
C1904 C1905 1.377 . S
C1905 H1889 0.930 . S
C1905 C1904 1.377 . S
C1905 C1906 1.379 . S
C1906 H1890 0.931 . S
C1906 C1900 1.383 . S
C1906 C1905 1.379 . S
H1907 C1901 0.959 1_554 S
H1908 C1901 0.961 . S
H1909 C1901 0.960 1_554 S
H1910 C1902 0.930 . S
H1911 C1903 0.929 . S
H1912 C1920 0.929 . S
H1913 C1922 0.930 . S
H1914 C1924 0.930 . S
H1915 C1927 0.929 . S
H1916 C1930 0.930 . S
H1917 C1932 0.960 . S
H1918 C1932 0.960 . S
H1919 C1932 0.960 . S
C1920 H1912 0.929 . S
C1920 C1921 1.377 . S
C1920 C1922 1.384 . S
C1921 C1920 1.377 . S
C1921 C1927 1.390 . S
C1922 H1913 0.930 . S
C1922 C1920 1.384 . S
C1922 C1923 1.372 . S
C1923 C1922 1.372 . S
C1923 C1924 1.400 . S
C1923 C1928 1.490 . S
C1924 H1914 0.930 . S
C1924 C1923 1.400 . S
C1924 C1927 1.386 . S
H1925 C1941 0.930 . S
H1926 C1942 0.931 . S
C1927 H1915 0.929 . S
C1927 C1921 1.390 . S
C1927 C1924 1.386 . S
C1928 C1923 1.490 . S
C1928 C1930 1.395 . S
C1928 C1931 1.403 . S
H1929 C1935 0.930 . S
C1930 H1916 0.930 . S
C1930 C1928 1.395 . S
C1930 C1933 1.403 . S
C1931 C1928 1.403 . S
C1931 C1932 1.524 . S
C1931 C1935 1.400 . S
C1932 H1917 0.960 . S
C1932 H1918 0.960 . S
C1932 H1919 0.960 . S
C1932 C1931 1.524 . S
C1933 C1930 1.403 . S
C1933 C1934 1.392 . S
C1933 C1937 1.495 . S
C1934 C1933 1.392 . S
C1934 C1935 1.385 . S
C1934 C1936 1.478 . S
C1935 H1929 0.930 . S
C1935 C1931 1.400 . S
C1935 C1934 1.385 . S
C1936 C1934 1.478 . S
C1936 C1938 1.381 . S
C1936 C1942 1.383 . S
C1937 C1933 1.495 . S
C1937 H1943 0.959 . S
C1937 H1944 0.961 . S
C1937 H1945 0.960 . S
C1938 C1936 1.381 . S
C1938 C1939 1.394 . S
C1938 H1946 0.930 . S
C1939 C1938 1.394 . S
C1939 C1940 1.383 . S
C1939 H1947 0.929 . S
C1940 C1939 1.383 . S
C1940 C1941 1.377 . S
C1941 H1925 0.930 . S
C1941 C1940 1.377 . S
C1941 C1942 1.379 . S
C1942 H1926 0.931 . S
C1942 C1936 1.383 . S
C1942 C1941 1.379 . S
H1943 C1937 0.959 . S
H1944 C1937 0.961 . S
H1945 C1937 0.960 . S
H1946 C1938 0.930 . S
H1947 C1939 0.929 . S
H1948 C1956 0.929 . S
H1949 C1958 0.930 . S
H1950 C1960 0.930 . S
H1951 C1963 0.929 . S
H1952 C1966 0.930 . S
H1953 C1968 0.960 . S
H1954 C1968 0.960 . S
H1955 C1968 0.960 . S
C1956 H1948 0.929 . S
C1956 C1957 1.377 . S
C1956 C1958 1.384 . S
C1957 C1956 1.377 . S
C1957 C1963 1.390 . S
C1958 H1949 0.930 . S
C1958 C1956 1.384 . S
C1958 C1959 1.372 . S
C1959 C1958 1.372 . S
C1959 C1960 1.400 . S
C1959 C1964 1.490 . S
C1960 H1950 0.930 . S
C1960 C1959 1.400 . S
C1960 C1963 1.386 . S
H1961 C1977 0.930 . S
H1962 C1978 0.931 . S
C1963 H1951 0.929 . S
C1963 C1957 1.390 . S
C1963 C1960 1.386 . S
C1964 C1959 1.490 . S
C1964 C1966 1.395 . S
C1964 C1967 1.403 . S
H1965 C1971 0.930 . S
C1966 H1952 0.930 . S
C1966 C1964 1.395 . S
C1966 C1969 1.403 . S
C1967 C1964 1.403 . S
C1967 C1968 1.524 . S
C1967 C1971 1.400 . S
C1968 H1953 0.960 . S
C1968 H1954 0.960 . S
C1968 H1955 0.960 . S
C1968 C1967 1.524 . S
C1969 C1966 1.403 . S
C1969 C1970 1.392 . S
C1969 C1973 1.495 . S
C1970 C1969 1.392 . S
C1970 C1971 1.385 . S
C1970 C1972 1.478 . S
C1971 H1965 0.930 . S
C1971 C1967 1.400 . S
C1971 C1970 1.385 . S
C1972 C1970 1.478 . S
C1972 C1974 1.381 . S
C1972 C1978 1.383 . S
C1973 C1969 1.495 . S
C1973 H1979 0.959 . S
C1973 H1980 0.961 . S
C1973 H1981 0.960 . S
C1974 C1972 1.381 . S
C1974 C1975 1.394 . S
C1974 H1982 0.930 . S
C1975 C1974 1.394 . S
C1975 C1976 1.383 . S
C1975 H1983 0.929 . S
C1976 C1975 1.383 . S
C1976 C1977 1.377 . S
C1977 H1961 0.930 . S
C1977 C1976 1.377 . S
C1977 C1978 1.379 . S
C1978 H1962 0.931 . S
C1978 C1972 1.383 . S
C1978 C1977 1.379 . S
H1979 C1973 0.959 . S
H1980 C1973 0.961 . S
H1981 C1973 0.960 . S
H1982 C1974 0.930 . S
H1983 C1975 0.929 . S
C553 C9 1.305 . S
C572 C5 1.378 . S
C589 C43 1.297 . S
C608 C39 1.361 . S
C625 C77 1.297 . S
C644 C73 1.384 . S
C661 C111 1.298 . S
C680 C107 1.384 1_554 S
C697 C145 1.291 . S
C716 C141 1.377 . S
C733 C179 1.304 . S
C752 C175 1.381 1_556 S
C769 C213 1.304 . S
C788 C209 1.380 . S
C805 C243 1.376 . S
C824 C247 1.257 . S
C841 C277 1.377 . S
C860 C281 1.262 . S
C877 C315 1.296 . S
C896 C311 1.384 1_556 S
C913 C349 1.293 . S
C932 C345 1.382 1_554 S
C949 C379 1.375 . S
C968 C383 1.330 . S
C985 C413 1.374 . S
C1004 C417 1.264 . S
C1021 C451 1.291 . S
C1040 C447 1.367 . S
C1057 C481 1.374 . S
C1076 C485 1.325 . S
C1093 C519 1.303 . S
C1112 C515 1.363 . S
C1129 C20 1.450 . S
C1148 C156 1.456 . S
C1165 C190 1.453 . S
C1184 C54 1.457 . S
C1201 C224 1.452 . S
C1220 C88 1.458 . S
C1237 C122 1.455 . S
C1256 C258 1.442 . S
C1273 C360 1.451 . S
C1292 C292 1.454 . S
C1309 C326 1.451 . S
C1328 C394 1.460 . S
C1345 C428 1.450 . S
C1364 C496 1.453 . S
C1381 C462 1.455 . S
C1400 C530 1.447 . S
C1417 C339 1.112 . S
C1436 C33 1.123 . S
C1453 C509 1.113 . S
C1472 C67 1.123 . S
C1489 C101 1.114 . S
C1508 C305 1.099 . S
C1525 C543 1.113 . S
C1544 C135 1.123 . S
C1561 C373 1.114 . S
C1580 C169 1.121 . S
C1597 C475 1.111 . S
C1616 C203 1.119 . S
C1633 C237 1.115 . S
C1652 C407 1.116 . S
C1669 C271 1.114 . S
C1688 C441 1.100 . S
C1705 C138 1.741 1_655 S
C1724 C104 1.733 . S
C1741 C410 1.741 . S
C1760 C274 1.741 . S
C1777 C36 1.743 . S
C1796 C206 1.747 . S
C1813 C444 1.744 . S
C1832 C308 1.739 . S
C1849 C172 1.741 . S
C1868 C2 1.734 1_655 S
C1885 C342 1.743 . S
C1904 C512 1.747 . S
C1921 C240 1.741 . S
C1940 C70 1.733 . S
C1957 C478 1.744 . S
C1976 C376 1.742 . S
