# Generated by pormake.
# Topology ums, (4)-cn, num edge types: 1
# Building blocks:
#     Node 0, Type 0, BuildingBlock: CEKHIL_clean_sbu_0, # of connection points: 4
#     Node 1, Type 0, BuildingBlock: CEKHIL_clean_sbu_0, # of connection points: 4
#     Node 2, Type 0, BuildingBlock: CEKHIL_clean_sbu_0, # of connection points: 4
#     Node 3, Type 0, BuildingBlock: CEKHIL_clean_sbu_0, # of connection points: 4
#     Node 4, Type 0, BuildingBlock: CEKHIL_clean_sbu_0, # of connection points: 4
#     Node 5, Type 0, BuildingBlock: CEKHIL_clean_sbu_0, # of connection points: 4
#     Node 6, Type 0, BuildingBlock: CEKHIL_clean_sbu_0, # of connection points: 4
#     Node 7, Type 0, BuildingBlock: CEKHIL_clean_sbu_0, # of connection points: 4
#     Node 8, Type 0, BuildingBlock: CEKHIL_clean_sbu_0, # of connection points: 4
#     Node 9, Type 0, BuildingBlock: CEKHIL_clean_sbu_0, # of connection points: 4
#     Node 10, Type 0, BuildingBlock: CEKHIL_clean_sbu_0, # of connection points: 4
#     Node 11, Type 0, BuildingBlock: CEKHIL_clean_sbu_0, # of connection points: 4
#     Node 12, Type 0, BuildingBlock: CEKHIL_clean_sbu_0, # of connection points: 4
#     Node 13, Type 0, BuildingBlock: CEKHIL_clean_sbu_0, # of connection points: 4
#     Node 14, Type 0, BuildingBlock: CEKHIL_clean_sbu_0, # of connection points: 4
#     Node 15, Type 0, BuildingBlock: CEKHIL_clean_sbu_0, # of connection points: 4
#     Node 16, Type 0, BuildingBlock: CEKHIL_clean_sbu_0, # of connection points: 4
#     Node 17, Type 0, BuildingBlock: CEKHIL_clean_sbu_0, # of connection points: 4
#     Node 18, Type 0, BuildingBlock: CEKHIL_clean_sbu_0, # of connection points: 4
#     Node 19, Type 0, BuildingBlock: CEKHIL_clean_sbu_0, # of connection points: 4
#     Node 20, Type 0, BuildingBlock: CEKHIL_clean_sbu_0, # of connection points: 4
#     Node 21, Type 0, BuildingBlock: CEKHIL_clean_sbu_0, # of connection points: 4
#     Node 22, Type 0, BuildingBlock: CEKHIL_clean_sbu_0, # of connection points: 4
#     Node 23, Type 0, BuildingBlock: CEKHIL_clean_sbu_0, # of connection points: 4
#     Node 24, Type 0, BuildingBlock: CEKHIL_clean_sbu_0, # of connection points: 4
#     Node 25, Type 0, BuildingBlock: CEKHIL_clean_sbu_0, # of connection points: 4
#     Node 26, Type 0, BuildingBlock: CEKHIL_clean_sbu_0, # of connection points: 4
#     Node 27, Type 0, BuildingBlock: CEKHIL_clean_sbu_0, # of connection points: 4
#     Node 28, Type 0, BuildingBlock: CEKHIL_clean_sbu_0, # of connection points: 4
#     Node 29, Type 0, BuildingBlock: CEKHIL_clean_sbu_0, # of connection points: 4
#     Node 30, Type 0, BuildingBlock: CEKHIL_clean_sbu_0, # of connection points: 4
#     Node 31, Type 0, BuildingBlock: CEKHIL_clean_sbu_0, # of connection points: 4
#     Node 32, Type 0, BuildingBlock: CEKHIL_clean_sbu_0, # of connection points: 4
#     Node 33, Type 0, BuildingBlock: CEKHIL_clean_sbu_0, # of connection points: 4
#     Node 34, Type 0, BuildingBlock: CEKHIL_clean_sbu_0, # of connection points: 4
#     Node 35, Type 0, BuildingBlock: CEKHIL_clean_sbu_0, # of connection points: 4
#     Edge 36, Type (0, 0), BuildingBlock: ZUJKAS_clean_linker_0, # of connection points: 2
#     Edge 37, Type (0, 0), BuildingBlock: ZUJKAS_clean_linker_0, # of connection points: 2
#     Edge 38, Type (0, 0), BuildingBlock: ZUJKAS_clean_linker_0, # of connection points: 2
#     Edge 39, Type (0, 0), BuildingBlock: ZUJKAS_clean_linker_0, # of connection points: 2
#     Edge 40, Type (0, 0), BuildingBlock: ZUJKAS_clean_linker_0, # of connection points: 2
#     Edge 41, Type (0, 0), BuildingBlock: ZUJKAS_clean_linker_0, # of connection points: 2
#     Edge 42, Type (0, 0), BuildingBlock: ZUJKAS_clean_linker_0, # of connection points: 2
#     Edge 43, Type (0, 0), BuildingBlock: ZUJKAS_clean_linker_0, # of connection points: 2
#     Edge 44, Type (0, 0), BuildingBlock: ZUJKAS_clean_linker_0, # of connection points: 2
#     Edge 45, Type (0, 0), BuildingBlock: ZUJKAS_clean_linker_0, # of connection points: 2
#     Edge 46, Type (0, 0), BuildingBlock: ZUJKAS_clean_linker_0, # of connection points: 2
#     Edge 47, Type (0, 0), BuildingBlock: ZUJKAS_clean_linker_0, # of connection points: 2
#     Edge 48, Type (0, 0), BuildingBlock: ZUJKAS_clean_linker_0, # of connection points: 2
#     Edge 49, Type (0, 0), BuildingBlock: ZUJKAS_clean_linker_0, # of connection points: 2
#     Edge 50, Type (0, 0), BuildingBlock: ZUJKAS_clean_linker_0, # of connection points: 2
#     Edge 51, Type (0, 0), BuildingBlock: ZUJKAS_clean_linker_0, # of connection points: 2
#     Edge 52, Type (0, 0), BuildingBlock: ZUJKAS_clean_linker_0, # of connection points: 2
#     Edge 53, Type (0, 0), BuildingBlock: ZUJKAS_clean_linker_0, # of connection points: 2
#     Edge 54, Type (0, 0), BuildingBlock: ZUJKAS_clean_linker_0, # of connection points: 2
#     Edge 55, Type (0, 0), BuildingBlock: ZUJKAS_clean_linker_0, # of connection points: 2
#     Edge 56, Type (0, 0), BuildingBlock: ZUJKAS_clean_linker_0, # of connection points: 2
#     Edge 57, Type (0, 0), BuildingBlock: ZUJKAS_clean_linker_0, # of connection points: 2
#     Edge 58, Type (0, 0), BuildingBlock: ZUJKAS_clean_linker_0, # of connection points: 2
#     Edge 59, Type (0, 0), BuildingBlock: ZUJKAS_clean_linker_0, # of connection points: 2
#     Edge 60, Type (0, 0), BuildingBlock: ZUJKAS_clean_linker_0, # of connection points: 2
#     Edge 61, Type (0, 0), BuildingBlock: ZUJKAS_clean_linker_0, # of connection points: 2
#     Edge 62, Type (0, 0), BuildingBlock: ZUJKAS_clean_linker_0, # of connection points: 2
#     Edge 63, Type (0, 0), BuildingBlock: ZUJKAS_clean_linker_0, # of connection points: 2
#     Edge 64, Type (0, 0), BuildingBlock: ZUJKAS_clean_linker_0, # of connection points: 2
#     Edge 65, Type (0, 0), BuildingBlock: ZUJKAS_clean_linker_0, # of connection points: 2
#     Edge 66, Type (0, 0), BuildingBlock: ZUJKAS_clean_linker_0, # of connection points: 2
#     Edge 67, Type (0, 0), BuildingBlock: ZUJKAS_clean_linker_0, # of connection points: 2
#     Edge 68, Type (0, 0), BuildingBlock: ZUJKAS_clean_linker_0, # of connection points: 2
#     Edge 69, Type (0, 0), BuildingBlock: ZUJKAS_clean_linker_0, # of connection points: 2
#     Edge 70, Type (0, 0), BuildingBlock: ZUJKAS_clean_linker_0, # of connection points: 2
#     Edge 71, Type (0, 0), BuildingBlock: ZUJKAS_clean_linker_0, # of connection points: 2
#     Edge 72, Type (0, 0), BuildingBlock: ZUJKAS_clean_linker_0, # of connection points: 2
#     Edge 73, Type (0, 0), BuildingBlock: ZUJKAS_clean_linker_0, # of connection points: 2
#     Edge 74, Type (0, 0), BuildingBlock: ZUJKAS_clean_linker_0, # of connection points: 2
#     Edge 75, Type (0, 0), BuildingBlock: ZUJKAS_clean_linker_0, # of connection points: 2
#     Edge 76, Type (0, 0), BuildingBlock: ZUJKAS_clean_linker_0, # of connection points: 2
#     Edge 77, Type (0, 0), BuildingBlock: ZUJKAS_clean_linker_0, # of connection points: 2
#     Edge 78, Type (0, 0), BuildingBlock: ZUJKAS_clean_linker_0, # of connection points: 2
#     Edge 79, Type (0, 0), BuildingBlock: ZUJKAS_clean_linker_0, # of connection points: 2
#     Edge 80, Type (0, 0), BuildingBlock: ZUJKAS_clean_linker_0, # of connection points: 2
#     Edge 81, Type (0, 0), BuildingBlock: ZUJKAS_clean_linker_0, # of connection points: 2
#     Edge 82, Type (0, 0), BuildingBlock: ZUJKAS_clean_linker_0, # of connection points: 2
#     Edge 83, Type (0, 0), BuildingBlock: ZUJKAS_clean_linker_0, # of connection points: 2
#     Edge 84, Type (0, 0), BuildingBlock: ZUJKAS_clean_linker_0, # of connection points: 2
#     Edge 85, Type (0, 0), BuildingBlock: ZUJKAS_clean_linker_0, # of connection points: 2
#     Edge 86, Type (0, 0), BuildingBlock: ZUJKAS_clean_linker_0, # of connection points: 2
#     Edge 87, Type (0, 0), BuildingBlock: ZUJKAS_clean_linker_0, # of connection points: 2
#     Edge 88, Type (0, 0), BuildingBlock: ZUJKAS_clean_linker_0, # of connection points: 2
#     Edge 89, Type (0, 0), BuildingBlock: ZUJKAS_clean_linker_0, # of connection points: 2
#     Edge 90, Type (0, 0), BuildingBlock: ZUJKAS_clean_linker_0, # of connection points: 2
#     Edge 91, Type (0, 0), BuildingBlock: ZUJKAS_clean_linker_0, # of connection points: 2
#     Edge 92, Type (0, 0), BuildingBlock: ZUJKAS_clean_linker_0, # of connection points: 2
#     Edge 93, Type (0, 0), BuildingBlock: ZUJKAS_clean_linker_0, # of connection points: 2
#     Edge 94, Type (0, 0), BuildingBlock: ZUJKAS_clean_linker_0, # of connection points: 2
#     Edge 95, Type (0, 0), BuildingBlock: ZUJKAS_clean_linker_0, # of connection points: 2
#     Edge 96, Type (0, 0), BuildingBlock: ZUJKAS_clean_linker_0, # of connection points: 2
#     Edge 97, Type (0, 0), BuildingBlock: ZUJKAS_clean_linker_0, # of connection points: 2
#     Edge 98, Type (0, 0), BuildingBlock: ZUJKAS_clean_linker_0, # of connection points: 2
#     Edge 99, Type (0, 0), BuildingBlock: ZUJKAS_clean_linker_0, # of connection points: 2
#     Edge 100, Type (0, 0), BuildingBlock: ZUJKAS_clean_linker_0, # of connection points: 2
#     Edge 101, Type (0, 0), BuildingBlock: ZUJKAS_clean_linker_0, # of connection points: 2
#     Edge 102, Type (0, 0), BuildingBlock: ZUJKAS_clean_linker_0, # of connection points: 2
#     Edge 103, Type (0, 0), BuildingBlock: ZUJKAS_clean_linker_0, # of connection points: 2
#     Edge 104, Type (0, 0), BuildingBlock: ZUJKAS_clean_linker_0, # of connection points: 2
#     Edge 105, Type (0, 0), BuildingBlock: ZUJKAS_clean_linker_0, # of connection points: 2
#     Edge 106, Type (0, 0), BuildingBlock: ZUJKAS_clean_linker_0, # of connection points: 2
#     Edge 107, Type (0, 0), BuildingBlock: ZUJKAS_clean_linker_0, # of connection points: 2
# Relax obj value: 0.199
# Max RMSD: 0.148
# Mean RMSD: 0.147
data_MOF--net-ums--node1-CEKHIL_clean_sbu_0--edge1-ZUJKAS_clean_linker_0
_symmetry_space_group_name_H-M    P1
_symmetry_Int_Tables_number       1
_symmetry_cell_setting            triclinic
loop_
_symmetry_equiv_pos_as_xyz
'x, y, z'
_cell_length_a     129.79577
_cell_length_b     129.79705
_cell_length_c     30.81673
_cell_angle_alpha  90.003781
_cell_angle_beta   90.012443
_cell_angle_gamma 119.99464
loop_
_atom_site_label
_atom_site_type_symbol
_atom_site_fract_x
_atom_site_fract_y
_atom_site_fract_z
_atom_type_partial_charge
Co0 Co 0.17386 0.2546 0.17331 0.0
O1 O 0.18373 0.25295 0.2165 0.0
O2 O 0.17205 0.23898 0.16982 0.0
C3 C 0.18797 0.27276 0.15006 0.0
O4 O 0.16294 0.25273 0.12265 0.0
Co5 Co 0.16747 0.27466 0.17199 0.0
O6 O 0.16276 0.26969 0.11113 0.0
C7 C 0.15486 0.25414 0.23189 0.0
C8 C 0.17981 0.24232 0.20094 0.0
C9 C 0.16026 0.25929 0.09944 0.0
O10 O 0.16031 0.24895 0.21627 0.0
O11 O 0.15687 0.26441 0.2198 0.0
O12 O 0.18781 0.26326 0.13572 0.0
O13 O 0.18013 0.27103 0.17916 0.0
Co14 Co 0.74547 0.91921 0.18408 0.0
O15 O 0.74822 0.93121 0.22663 0.0
O16 O 0.76149 0.93235 0.17875 0.0
C17 C 0.72762 0.91626 0.16167 0.0
O18 O 0.74612 0.90924 0.13429 0.0
Co19 Co 0.72393 0.89341 0.1873 0.0
O20 O 0.72875 0.89219 0.12745 0.0
C21 C 0.74493 0.90044 0.24417 0.0
C22 C 0.75882 0.9373 0.2101 0.0
C23 C 0.73914 0.89957 0.11384 0.0
O24 O 0.75064 0.91086 0.22681 0.0
O25 O 0.73417 0.89275 0.23446 0.0
O26 O 0.73737 0.92508 0.14623 0.0
O27 O 0.72898 0.91012 0.19163 0.0
Co28 Co 0.08093 0.82682 0.17965 0.0
O29 O 0.0691 0.81704 0.22195 0.0
O30 O 0.06726 0.82885 0.17459 0.0
C31 C 0.08485 0.81253 0.15749 0.0
O32 O 0.09051 0.83773 0.12973 0.0
Co33 Co 0.10722 0.83267 0.18193 0.0
O34 O 0.10755 0.83752 0.12081 0.0
C35 C 0.09921 0.84572 0.23917 0.0
C36 C 0.06259 0.82111 0.20571 0.0
C37 C 0.09992 0.84026 0.10782 0.0
O38 O 0.08867 0.84033 0.22277 0.0
O39 O 0.10747 0.84356 0.22848 0.0
O40 O 0.07576 0.81294 0.14179 0.0
O41 O 0.09078 0.82025 0.18718 0.0
Co42 Co 0.25478 0.17394 0.32154 0.0
O43 O 0.25282 0.18395 0.28004 0.0
O44 O 0.23915 0.17206 0.3272 0.0
C45 C 0.27305 0.18805 0.34396 0.0
O46 O 0.25336 0.16277 0.37062 0.0
Co47 Co 0.27508 0.16786 0.31734 0.0
O48 O 0.26999 0.16164 0.37675 0.0
C49 C 0.25391 0.15521 0.26048 0.0
C50 C 0.24229 0.17996 0.29662 0.0
C51 C 0.25979 0.15928 0.39052 0.0
O52 O 0.24882 0.16054 0.27791 0.0
O53 O 0.26438 0.15734 0.27025 0.0
O54 O 0.2636 0.18771 0.35974 0.0
O55 O 0.27121 0.18041 0.31388 0.0
Co56 Co 0.82601 0.08104 0.3148 0.0
O57 O 0.81606 0.06789 0.27738 0.0
O58 O 0.82881 0.06799 0.32548 0.0
C59 C 0.81158 0.08489 0.33558 0.0
O60 O 0.83736 0.09246 0.36014 0.0
Co61 Co 0.83043 0.1066 0.29881 0.0
O62 O 0.83831 0.1102 0.35647 0.0
C63 C 0.8412 0.09632 0.24145 0.0
C64 C 0.82076 0.06224 0.29606 0.0
C65 C 0.84095 0.10301 0.37473 0.0
O66 O 0.83877 0.08788 0.26865 0.0
O67 O 0.83749 0.10374 0.24547 0.0
O68 O 0.81265 0.07655 0.35481 0.0
O69 O 0.81863 0.08994 0.30327 0.0
Co70 Co 0.91851 0.74525 0.31558 0.0
O71 O 0.93183 0.74707 0.28198 0.0
O72 O 0.93202 0.76093 0.32444 0.0
C73 C 0.91332 0.72702 0.34176 0.0
O74 O 0.90702 0.74667 0.35675 0.0
Co75 Co 0.89261 0.7249 0.29843 0.0
O76 O 0.88874 0.73062 0.35232 0.0
C77 C 0.90467 0.74484 0.23677 0.0
C78 C 0.93775 0.7577 0.29827 0.0
C79 C 0.89617 0.74051 0.3697 0.0
O80 O 0.91283 0.75098 0.2648 0.0
O81 O 0.89673 0.73393 0.24239 0.0
O82 O 0.92179 0.73647 0.36032 0.0
O83 O 0.90893 0.72889 0.30717 0.0
Co84 Co 0.8254 0.74506 0.81543 0.0
O85 O 0.81428 0.74717 0.78048 0.0
O86 O 0.82794 0.7609 0.82343 0.0
C87 C 0.81196 0.72706 0.84222 0.0
O88 O 0.83801 0.74625 0.85772 0.0
Co89 Co 0.8303 0.72417 0.80102 0.0
O90 O 0.83954 0.72977 0.85571 0.0
C91 C 0.83896 0.74397 0.73814 0.0
C92 C 0.81913 0.75783 0.79666 0.0
C93 C 0.84226 0.73984 0.87213 0.0
O94 O 0.83698 0.75036 0.76519 0.0
O95 O 0.83573 0.73303 0.74479 0.0
O96 O 0.81313 0.7367 0.85985 0.0
O97 O 0.81825 0.72863 0.80796 0.0
Co98 Co 0.25621 0.08168 0.81426 0.0
O99 O 0.25296 0.06955 0.77168 0.0
O100 O 0.24048 0.06826 0.82328 0.0
C101 C 0.27461 0.08522 0.8317 0.0
O102 O 0.25634 0.09183 0.86498 0.0
Co103 Co 0.27721 0.10767 0.80543 0.0
O104 O 0.27336 0.10939 0.86615 0.0
C105 C 0.255 0.09971 0.75495 0.0
C106 C 0.24273 0.06332 0.79073 0.0
C107 C 0.26347 0.10185 0.88311 0.0
O108 O 0.24987 0.08948 0.77375 0.0
O109 O 0.26587 0.10765 0.76146 0.0
O110 O 0.26529 0.07634 0.84918 0.0
O111 O 0.2725 0.09103 0.80247 0.0
Co112 Co 0.91955 0.17541 0.81648 0.0
O113 O 0.93111 0.18411 0.77198 0.0
O114 O 0.93214 0.17162 0.81845 0.0
C115 C 0.91814 0.19108 0.83996 0.0
O116 O 0.91004 0.1652 0.86777 0.0
Co117 Co 0.89443 0.17258 0.8202 0.0
O118 O 0.89396 0.16694 0.88031 0.0
C119 C 0.89959 0.15823 0.75792 0.0
C120 C 0.93694 0.17911 0.78664 0.0
C121 C 0.90109 0.16334 0.8913 0.0
O122 O 0.91002 0.16204 0.77429 0.0
O123 O 0.89257 0.16195 0.77009 0.0
O124 O 0.92665 0.18946 0.85418 0.0
O125 O 0.91118 0.18363 0.81129 0.0
Co126 Co 0.74343 0.82533 0.68267 0.0
O127 O 0.74606 0.81598 0.72515 0.0
O128 O 0.7593 0.82784 0.67671 0.0
C129 C 0.72535 0.81059 0.66129 0.0
O130 O 0.7442 0.83601 0.63292 0.0
Co131 Co 0.72223 0.83012 0.68629 0.0
O132 O 0.72722 0.83649 0.6269 0.0
C133 C 0.74335 0.84368 0.74317 0.0
C134 C 0.75659 0.82028 0.70827 0.0
C135 C 0.73749 0.83914 0.613 0.0
O136 O 0.74896 0.83893 0.72526 0.0
O137 O 0.7326 0.84073 0.73384 0.0
O138 O 0.73494 0.81131 0.64516 0.0
O139 O 0.72699 0.81825 0.69098 0.0
Co140 Co 0.1762 0.91963 0.68151 0.0
O141 O 0.18634 0.9325 0.71978 0.0
O142 O 0.17367 0.9329 0.67261 0.0
C143 C 0.19028 0.91549 0.65869 0.0
O144 O 0.16474 0.90861 0.6355 0.0
Co145 Co 0.17117 0.89379 0.69588 0.0
O146 O 0.16316 0.89058 0.6386 0.0
C147 C 0.16088 0.9042 0.75458 0.0
C148 C 0.18178 0.9384 0.70204 0.0
C149 C 0.16084 0.89803 0.62062 0.0
O150 O 0.16343 0.91272 0.72765 0.0
O151 O 0.16439 0.89664 0.75001 0.0
O152 O 0.18951 0.9242 0.64126 0.0
O153 O 0.1833 0.91035 0.69113 0.0
Co154 Co 0.08006 0.25434 0.67838 0.0
O155 O 0.06676 0.25093 0.71525 0.0
O156 O 0.06702 0.23859 0.66616 0.0
C157 C 0.0841 0.27276 0.65875 0.0
O158 O 0.09171 0.25474 0.6333 0.0
Co159 Co 0.10553 0.27525 0.69796 0.0
O160 O 0.10963 0.27117 0.64092 0.0
C161 C 0.09484 0.25369 0.75238 0.0
C162 C 0.06116 0.24073 0.69561 0.0
C163 C 0.10249 0.26165 0.62076 0.0
O164 O 0.08663 0.248 0.72403 0.0
O165 O 0.10227 0.26486 0.75017 0.0
O166 O 0.07575 0.26347 0.63905 0.0
O167 O 0.08895 0.27057 0.69126 0.0
Co168 Co 0.84133 0.58902 0.52693 0.0
O169 O 0.85244 0.58658 0.56049 0.0
O170 O 0.83878 0.57323 0.51654 0.0
C171 C 0.85473 0.60732 0.50242 0.0
O172 O 0.82876 0.58832 0.48559 0.0
Co173 Co 0.83641 0.60969 0.54693 0.0
O174 O 0.82648 0.60428 0.49376 0.0
C175 C 0.82762 0.58905 0.60558 0.0
C176 C 0.84755 0.57604 0.54324 0.0
C177 C 0.82407 0.59462 0.47459 0.0
O178 O 0.82965 0.58308 0.57683 0.0
O179 O 0.83097 0.6001 0.60158 0.0
O180 O 0.85364 0.59792 0.48313 0.0
O181 O 0.84844 0.60534 0.53697 0.0
Co182 Co 0.40959 0.25142 0.52244 0.0
O183 O 0.41166 0.26423 0.55974 0.0
O184 O 0.42566 0.26453 0.51777 0.0
C185 C 0.39198 0.24771 0.49428 0.0
O186 O 0.41093 0.24047 0.47833 0.0
Co187 Co 0.38822 0.22564 0.5312 0.0
O188 O 0.39412 0.22273 0.47587 0.0
C189 C 0.40761 0.23526 0.59606 0.0
C190 C 0.42252 0.27003 0.54533 0.0
C191 C 0.40446 0.23009 0.46159 0.0
O192 O 0.41421 0.24417 0.5714 0.0
O193 O 0.39672 0.22773 0.5876 0.0
O194 O 0.40186 0.25631 0.47869 0.0
O195 O 0.39307 0.24232 0.52752 0.0
Co196 Co 0.74817 0.15841 0.52548 0.0
O197 O 0.73482 0.14746 0.5603 0.0
O198 O 0.73505 0.16122 0.51707 0.0
C199 C 0.75241 0.14472 0.49901 0.0
O200 O 0.75976 0.17087 0.48321 0.0
Co201 Co 0.77378 0.1628 0.54038 0.0
O202 O 0.77763 0.17209 0.4858 0.0
C203 C 0.76292 0.17191 0.6027 0.0
C204 C 0.72916 0.15243 0.54373 0.0
C205 C 0.77044 0.17498 0.46912 0.0
O206 O 0.7546 0.17003 0.5756 0.0
O207 O 0.77048 0.16846 0.59632 0.0
O208 O 0.74407 0.14605 0.48123 0.0
O209 O 0.7572 0.151 0.53325 0.0
Co210 Co 0.92322 0.50853 0.65254 0.0
O211 O 0.92013 0.51785 0.61148 0.0
O212 O 0.90717 0.50553 0.65967 0.0
C213 C 0.94119 0.52351 0.67343 0.0
O214 O 0.92307 0.4979 0.7015 0.0
Co215 Co 0.94487 0.50452 0.64538 0.0
O216 O 0.94041 0.49803 0.70485 0.0
C217 C 0.92356 0.49069 0.58987 0.0
C218 C 0.90962 0.51324 0.62882 0.0
C219 C 0.93019 0.4951 0.7202 0.0
O220 O 0.91782 0.4951 0.60911 0.0
O221 O 0.93444 0.49392 0.59802 0.0
O222 O 0.93156 0.52245 0.69061 0.0
O223 O 0.93963 0.51605 0.64307 0.0
Co224 Co 0.49189 0.41366 0.6551 0.0
O225 O 0.48143 0.40063 0.6182 0.0
O226 O 0.49421 0.40027 0.66495 0.0
C227 C 0.47807 0.41823 0.67736 0.0
O228 O 0.50366 0.42495 0.69987 0.0
Co229 Co 0.4972 0.43948 0.63741 0.0
O230 O 0.506 0.44326 0.69311 0.0
C231 C 0.50702 0.42834 0.58029 0.0
C232 C 0.48592 0.3947 0.63612 0.0
C233 C 0.5081 0.43581 0.71246 0.0
O234 O 0.50449 0.42006 0.60832 0.0
O235 O 0.50359 0.43599 0.58367 0.0
O236 O 0.47877 0.40959 0.69582 0.0
O237 O 0.48497 0.42305 0.64449 0.0
Co238 Co 0.58589 0.07832 0.65649 0.0
O239 O 0.59733 0.08062 0.61201 0.0
O240 O 0.59972 0.09385 0.66225 0.0
C241 C 0.58188 0.05987 0.67568 0.0
O242 O 0.57684 0.07945 0.70868 0.0
Co243 Co 0.55945 0.05823 0.6559 0.0
O244 O 0.55951 0.0625 0.71757 0.0
C245 C 0.56737 0.07961 0.60046 0.0
C246 C 0.60407 0.091 0.62945 0.0
C247 C 0.56747 0.07269 0.73093 0.0
O248 O 0.57798 0.08458 0.61623 0.0
O249 O 0.5591 0.06915 0.61072 0.0
O250 O 0.59122 0.06918 0.69108 0.0
O251 O 0.57574 0.06197 0.6478 0.0
Co252 Co 0.49216 0.07835 0.15542 0.0
O253 O 0.48209 0.08114 0.11711 0.0
O254 O 0.49481 0.09422 0.16418 0.0
C255 C 0.47791 0.06015 0.17769 0.0
O256 O 0.50352 0.07868 0.20166 0.0
Co257 Co 0.49701 0.05742 0.14118 0.0
O258 O 0.50495 0.06215 0.19859 0.0
C259 C 0.50759 0.07818 0.08284 0.0
C260 C 0.48669 0.09161 0.13478 0.0
C261 C 0.50733 0.07193 0.21661 0.0
O262 O 0.505 0.08417 0.10957 0.0
O263 O 0.50401 0.0671 0.08732 0.0
O264 O 0.47876 0.06964 0.19538 0.0
O265 O 0.48498 0.06199 0.14554 0.0
Co266 Co 0.92147 0.41374 0.15396 0.0
O267 O 0.91897 0.40134 0.1136 0.0
O268 O 0.90587 0.40014 0.16239 0.0
C269 C 0.93989 0.418 0.17475 0.0
O270 O 0.92065 0.42406 0.20209 0.0
Co271 Co 0.94194 0.43996 0.14531 0.0
O272 O 0.93748 0.44174 0.20513 0.0
C273 C 0.92022 0.43101 0.09106 0.0
C274 C 0.9086 0.39506 0.13172 0.0
C275 C 0.92739 0.43414 0.22049 0.0
O276 O 0.91518 0.42083 0.1102 0.0
O277 O 0.93084 0.43934 0.09893 0.0
O278 O 0.93055 0.4091 0.19214 0.0
O279 O 0.93782 0.42345 0.144 0.0
Co280 Co 0.58581 0.50672 0.1582 0.0
O281 O 0.59738 0.51617 0.11449 0.0
O282 O 0.59961 0.50497 0.16361 0.0
C283 C 0.58181 0.52109 0.17859 0.0
O284 O 0.57667 0.49623 0.20958 0.0
Co285 Co 0.5594 0.50045 0.15821 0.0
O286 O 0.55943 0.49595 0.21952 0.0
C287 C 0.56734 0.48733 0.10084 0.0
C288 C 0.60409 0.51244 0.13163 0.0
C289 C 0.56734 0.49356 0.23216 0.0
O290 O 0.57795 0.49283 0.1167 0.0
O291 O 0.5591 0.4895 0.11183 0.0
O292 O 0.59109 0.52099 0.194 0.0
O293 O 0.5757 0.51299 0.15025 0.0
Co294 Co 0.41088 0.15915 0.02526 0.0
O295 O 0.41351 0.14917 0.06465 0.0
O296 O 0.42689 0.16205 0.01879 0.0
C297 C 0.39296 0.14466 0.00146 0.0
O298 O 0.41157 0.17054 0.97834 0.0
Co299 Co 0.38943 0.16346 0.03332 0.0
O300 O 0.39447 0.1709 0.9754 0.0
C301 C 0.41046 0.1764 0.0908 0.0
C302 C 0.42414 0.15392 0.04827 0.0
C303 C 0.40474 0.17386 0.96051 0.0
O304 O 0.41613 0.172 0.07101 0.0
O305 O 0.39969 0.1735 0.08211 0.0
O306 O 0.40267 0.14578 0.98475 0.0
O307 O 0.3944 0.15172 0.03319 0.0
Co308 Co 0.84257 0.25126 0.02541 0.0
O309 O 0.85299 0.2642 0.06283 0.0
O310 O 0.83937 0.26418 0.01944 0.0
C311 C 0.85688 0.24797 -0.00131 0.0
O312 O 0.83055 0.24011 0.98097 0.0
Co313 Co 0.83872 0.22576 0.03504 0.0
O314 O 0.82952 0.22233 0.98037 0.0
C315 C 0.82869 0.23523 0.0995 0.0
C316 C 0.84787 0.26983 0.04741 0.0
C317 C 0.8266 0.22963 0.96511 0.0
O318 O 0.83065 0.24392 0.07419 0.0
O319 O 0.83236 0.22791 0.09146 0.0
O320 O 0.85529 0.25629 0.98215 0.0
O321 O 0.85036 0.24251 0.03176 0.0
Co322 Co 0.74836 0.58913 0.0247 0.0
O323 O 0.73565 0.58678 0.06322 0.0
O324 O 0.73468 0.57367 0.01497 0.0
C325 C 0.75313 0.6077 0.00396 0.0
O326 O 0.75894 0.5881 0.97808 0.0
Co327 Co 0.77465 0.60918 0.03552 0.0
O328 O 0.77711 0.60432 0.97742 0.0
C329 C 0.76486 0.5875 0.09043 0.0
C330 C 0.72941 0.57646 0.0447 0.0
C331 C 0.76934 0.5944 0.96133 0.0
O332 O 0.75483 0.5826 0.07019 0.0
O333 O 0.77338 0.59803 0.0827 0.0
O334 O 0.74436 0.59849 0.9854 0.0
O335 O 0.75823 0.60542 0.0354 0.0
Co336 Co 0.5085 0.92154 0.83899 0.0
O337 O 0.51883 0.9192 0.87762 0.0
O338 O 0.50606 0.90571 0.83172 0.0
C339 C 0.52251 0.93963 0.8148 0.0
O340 O 0.49677 0.92057 0.7931 0.0
Co341 Co 0.50341 0.94243 0.8498 0.0
O342 O 0.49547 0.93719 0.79256 0.0
C343 C 0.49328 0.92223 0.91119 0.0
C344 C 0.51429 0.90862 0.86089 0.0
C345 C 0.49293 0.92713 0.77665 0.0
O346 O 0.49589 0.91601 0.88565 0.0
O347 O 0.49666 0.93321 0.90473 0.0
O348 O 0.5217 0.93006 0.798 0.0
O349 O 0.51552 0.93795 0.84702 0.0
Co350 Co 0.07955 0.58691 0.847 0.0
O351 O 0.08265 0.59993 0.88499 0.0
O352 O 0.09516 0.60026 0.83535 0.0
C353 C 0.06101 0.58257 0.82781 0.0
O354 O 0.07947 0.57568 0.80071 0.0
Co355 Co 0.05897 0.56109 0.86421 0.0
O356 O 0.06307 0.55766 0.806 0.0
C357 C 0.08054 0.5717 0.91879 0.0
C358 C 0.09283 0.60584 0.86535 0.0
C359 C 0.07264 0.56504 0.78665 0.0
O360 O 0.0861 0.58032 0.89181 0.0
O361 O 0.06947 0.56399 0.91581 0.0
O362 O 0.07021 0.59114 0.80848 0.0
O363 O 0.06334 0.57763 0.85966 0.0
Co364 Co 0.41399 0.49276 0.84133 0.0
O365 O 0.40119 0.48205 0.87872 0.0
O366 O 0.40052 0.49505 0.83388 0.0
C367 C 0.41842 0.47908 0.81614 0.0
O368 O 0.42493 0.50488 0.79666 0.0
Co369 Co 0.43999 0.49805 0.85396 0.0
O370 O 0.44315 0.50687 0.79856 0.0
C371 C 0.4292 0.50723 0.91609 0.0
C372 C 0.39513 0.4866 0.86224 0.0
C373 C 0.43558 0.50923 0.78184 0.0
O374 O 0.42068 0.50499 0.88945 0.0
O375 O 0.43687 0.50393 0.90973 0.0
O376 O 0.40968 0.47989 0.79912 0.0
O377 O 0.42349 0.48585 0.84911 0.0
Co378 Co 0.59172 0.8425 0.96914 0.0
O379 O 0.58846 0.85147 0.92684 0.0
O380 O 0.57589 0.83992 0.97757 0.0
C381 C 0.60996 0.85746 0.9876 0.0
O382 O 0.59167 0.83235 0.01956 0.0
Co383 Co 0.61285 0.83774 0.96264 0.0
O384 O 0.6088 0.83211 0.02329 0.0
C385 C 0.59113 0.82367 0.90932 0.0
C386 C 0.57816 0.84727 0.94559 0.0
C387 C 0.59872 0.82958 0.03891 0.0
O388 O 0.58575 0.82857 0.92782 0.0
O389 O 0.60196 0.82666 0.91708 0.0
O390 O 0.60052 0.8568 0.00487 0.0
O391 O 0.60807 0.84962 0.95831 0.0
Co392 Co 0.15862 0.74931 0.97375 0.0
O393 O 0.14939 0.73735 0.93094 0.0
O394 O 0.1612 0.736 0.97972 0.0
C395 C 0.14375 0.75253 0.99433 0.0
O396 O 0.16912 0.75907 0.02418 0.0
Co397 Co 0.16345 0.77526 0.9717 0.0
O398 O 0.16889 0.77612 0.03234 0.0
C399 C 0.17686 0.76784 0.91341 0.0
C400 C 0.15368 0.73113 0.94804 0.0
C401 C 0.1717 0.76856 0.0456 0.0
O402 O 0.17229 0.75751 0.93144 0.0
O403 O 0.17388 0.77558 0.92329 0.0
O404 O 0.14447 0.74367 0.01065 0.0
O405 O 0.15156 0.75868 0.96525 0.0
Co406 Co 0.25141 0.41019 0.97471 0.0
O407 O 0.2641 0.41225 0.93676 0.0
O408 O 0.26471 0.42613 0.98034 0.0
C409 C 0.24745 0.39238 0.00166 0.0
O410 O 0.24056 0.41148 0.01951 0.0
Co411 Co 0.22551 0.38909 0.96485 0.0
O412 O 0.22252 0.39503 0.01993 0.0
C413 C 0.23562 0.40857 0.90059 0.0
C414 C 0.27006 0.423 0.95201 0.0
C415 C 0.23004 0.40516 0.03536 0.0
O416 O 0.24428 0.41514 0.92629 0.0
O417 O 0.22811 0.39763 0.90828 0.0
O418 O 0.25617 0.40214 0.01757 0.0
O419 O 0.24212 0.39371 0.9687 0.0
Co420 Co 0.1576 0.40926 0.4737 0.0
O421 O 0.14798 0.41228 0.43383 0.0
O422 O 0.16105 0.42546 0.4798 0.0
C423 C 0.14262 0.39168 0.49779 0.0
O424 O 0.16878 0.40966 0.52085 0.0
Co425 Co 0.16087 0.38716 0.46759 0.0
O426 O 0.1688 0.39241 0.52473 0.0
C427 C 0.17409 0.40765 0.40788 0.0
C428 C 0.15299 0.42293 0.45021 0.0
C429 C 0.172 0.4028 0.53898 0.0
O430 O 0.17038 0.4139 0.42798 0.0
O431 O 0.17058 0.39676 0.41705 0.0
O432 O 0.14419 0.40158 0.51434 0.0
O433 O 0.1496 0.39274 0.46631 0.0
Co434 Co 0.58835 0.74774 0.47263 0.0
O435 O 0.58589 0.73534 0.43239 0.0
O436 O 0.57271 0.73415 0.48081 0.0
C437 C 0.60671 0.75195 0.49389 0.0
O438 O 0.58754 0.75813 0.52049 0.0
Co439 Co 0.6089 0.77392 0.46336 0.0
O440 O 0.60425 0.77593 0.52258 0.0
C441 C 0.58739 0.76482 0.40807 0.0
C442 C 0.57548 0.72908 0.45019 0.0
C443 C 0.59421 0.76832 0.53831 0.0
O444 O 0.58217 0.75483 0.42848 0.0
O445 O 0.59809 0.77306 0.4154 0.0
O446 O 0.59734 0.74309 0.51122 0.0
O447 O 0.60471 0.75738 0.46289 0.0
Co448 Co 0.25363 0.84177 0.47499 0.0
O449 O 0.26669 0.8523 0.43811 0.0
O450 O 0.26685 0.83915 0.48354 0.0
C451 C 0.24946 0.85568 0.4996 0.0
O452 O 0.24241 0.82982 0.51937 0.0
Co453 Co 0.22784 0.83696 0.46107 0.0
O454 O 0.22459 0.82873 0.51792 0.0
C455 C 0.23829 0.82702 0.40071 0.0
C456 C 0.27251 0.8476 0.4554 0.0
C457 C 0.2319 0.82601 0.53464 0.0
O458 O 0.24688 0.82946 0.42721 0.0
O459 O 0.23067 0.83043 0.40626 0.0
O460 O 0.25804 0.85469 0.51698 0.0
O461 O 0.2444 0.84898 0.46644 0.0
Co462 Co 0.07848 0.49221 0.34501 0.0
O463 O 0.08133 0.48289 0.38709 0.0
O464 O 0.09411 0.49431 0.33668 0.0
C465 C 0.06005 0.47761 0.3266 0.0
O466 O 0.07903 0.50265 0.29469 0.0
Co467 Co 0.05796 0.49786 0.34996 0.0
O468 O 0.06194 0.50288 0.28869 0.0
C469 C 0.07962 0.51138 0.40415 0.0
C470 C 0.09161 0.48685 0.36844 0.0
C471 C 0.0721 0.50536 0.2741 0.0
O472 O 0.08472 0.50605 0.38685 0.0
O473 O 0.06902 0.50899 0.39512 0.0
O474 O 0.06935 0.47802 0.30901 0.0
O475 O 0.06216 0.48557 0.35567 0.0
Co476 Co 0.50777 0.58518 0.34061 0.0
O477 O 0.51841 0.59792 0.37846 0.0
O478 O 0.50531 0.59855 0.33405 0.0
C479 C 0.5216 0.58103 0.31483 0.0
O480 O 0.49571 0.5744 0.29557 0.0
Co481 Co 0.50261 0.55919 0.3509 0.0
O482 O 0.49365 0.55616 0.29587 0.0
C483 C 0.49322 0.5695 0.41436 0.0
C484 C 0.51376 0.60393 0.36241 0.0
C485 C 0.4913 0.56383 0.28002 0.0
O486 O 0.49555 0.57822 0.38863 0.0
O487 O 0.49651 0.56187 0.40702 0.0
O488 O 0.52067 0.58975 0.29835 0.0
O489 O 0.5148 0.57575 0.34754 0.0
Co490 Co 0.41555 0.92212 0.33969 0.0
O491 O 0.40404 0.91978 0.38392 0.0
O492 O 0.40198 0.90636 0.33504 0.0
C493 C 0.41903 0.94027 0.31871 0.0
O494 O 0.42476 0.92099 0.28808 0.0
Co495 Co 0.44175 0.94285 0.33974 0.0
O496 O 0.4421 0.93794 0.27924 0.0
C497 C 0.43427 0.92211 0.39836 0.0
C498 C 0.3975 0.90925 0.36732 0.0
C499 C 0.43425 0.92765 0.26624 0.0
O500 O 0.42385 0.91649 0.38091 0.0
O501 O 0.4421 0.93277 0.38816 0.0
O502 O 0.40982 0.93074 0.30387 0.0
O503 O 0.4253 0.93855 0.34709 0.0
H504 H 0.24805 0.19902 0.2442 0.0
H505 H 0.2361 0.20838 0.22922 0.0
H506 H 0.2072 0.18125 0.30422 0.0
H507 H 0.21923 0.17203 0.3204 0.0
H508 H 0.21497 0.20072 0.18962 0.0
H509 H 0.21188 0.21126 0.36198 0.0
H510 H 0.22177 0.20612 0.34405 0.0
H511 H 0.2062 0.19572 0.35194 0.0
C512 C 0.23912 0.195 0.25729 0.0
C513 C 0.23461 0.18485 0.28379 0.0
C514 C 0.23231 0.20037 0.24874 0.0
C515 C 0.22086 0.19567 0.26639 0.0
C516 C 0.21613 0.18522 0.29126 0.0
H517 H 0.17171 0.21908 0.17996 0.0
H518 H 0.18092 0.20713 0.19752 0.0
C519 C 0.22299 0.17991 0.30017 0.0
C520 C 0.21397 0.20183 0.25904 0.0
H521 H 0.20067 0.21534 0.31123 0.0
C522 C 0.21183 0.2039 0.21619 0.0
C523 C 0.21004 0.20613 0.29379 0.0
C524 C 0.21268 0.20481 0.34052 0.0
C525 C 0.20586 0.21016 0.20707 0.0
C526 C 0.20164 0.21419 0.24182 0.0
C527 C 0.20379 0.21212 0.28467 0.0
C528 C 0.19543 0.22101 0.23432 0.0
C529 C 0.20447 0.21273 0.16031 0.0
C530 C 0.20017 0.23257 0.25106 0.0
C531 C 0.19482 0.23936 0.24167 0.0
C532 C 0.18464 0.2347 0.21527 0.0
C533 C 0.17962 0.22295 0.20006 0.0
C534 C 0.18492 0.21614 0.20978 0.0
H535 H 0.21089 0.21189 0.1388 0.0
H536 H 0.19536 0.20624 0.14908 0.0
H537 H 0.20579 0.22182 0.15662 0.0
H538 H 0.20823 0.23647 0.27034 0.0
H539 H 0.19889 0.24838 0.25388 0.0
H540 H 0.8241 0.04635 0.3435 0.0
H541 H 0.81524 0.02498 0.3304 0.0
H542 H 0.7993 0.02839 0.21235 0.0
H543 H 0.80775 0.04964 0.22615 0.0
H544 H 0.78339 0.01099 0.2605 0.0
H545 H 0.82324 0.00594 0.24865 0.0
H546 H 0.82269 0.01287 0.29829 0.0
H547 H 0.82415 0.02027 0.24737 0.0
C548 C 0.81885 0.04256 0.31442 0.0
C549 C 0.81659 0.04965 0.28588 0.0
C550 C 0.81386 0.03036 0.30682 0.0
C551 C 0.80672 0.02509 0.27009 0.0
C552 C 0.80478 0.03225 0.24089 0.0
H553 H 0.77901 0.95383 0.16909 0.0
H554 H 0.79104 0.97501 0.18639 0.0
C555 C 0.80962 0.0444 0.24878 0.0
C556 C 0.80045 0.012 0.26368 0.0
H557 H 0.80451 0.98803 0.25449 0.0
C558 C 0.78803 0.00599 0.25901 0.0
C559 C 0.80651 0.00548 0.26141 0.0
C560 C 0.81989 0.01148 0.26376 0.0
C561 C 0.78149 0.99368 0.25208 0.0
C562 C 0.78748 0.98708 0.25128 0.0
C563 C 0.79992 0.99307 0.25576 0.0
C564 C 0.781 0.97405 0.24383 0.0
C565 C 0.76826 0.98794 0.24437 0.0
C566 C 0.77163 0.96639 0.27125 0.0
C567 C 0.76464 0.95433 0.2611 0.0
C568 C 0.76705 0.94966 0.22383 0.0
C569 C 0.77691 0.95718 0.19798 0.0
C570 C 0.7838 0.96928 0.20784 0.0
H571 H 0.76569 0.99455 0.2341 0.0
H572 H 0.76525 0.98092 0.21912 0.0
H573 H 0.76346 0.98379 0.27496 0.0
H574 H 0.76952 0.96982 0.29987 0.0
H575 H 0.75719 0.94872 0.28192 0.0
H576 H 0.95224 0.75221 0.252 0.0
H577 H 0.97354 0.76476 0.23884 0.0
H578 H 0.97345 0.79356 0.30838 0.0
H579 H 0.95213 0.78092 0.32268 0.0
H580 H 0.98586 0.78568 0.19622 0.0
H581 H 0.99999 0.79128 0.36883 0.0
H582 H 0.98513 0.78053 0.35167 0.0
H583 H 0.98944 0.79597 0.35667 0.0
C584 C 0.95673 0.76121 0.26451 0.0
C585 C 0.95052 0.76555 0.28861 0.0
C586 C 0.96891 0.76838 0.25694 0.0
C587 C 0.97513 0.78003 0.27323 0.0
C588 C 0.96889 0.7845 0.29638 0.0
H589 H 0.04755 0.82919 0.18233 0.0
H590 H 0.02645 0.82038 0.20053 0.0
C591 C 0.9567 0.7773 0.30426 0.0
C592 C 0.98811 0.78741 0.26553 0.0
H593 H 0.01503 0.8019 0.31684 0.0
C594 C 0.99225 0.78928 0.22257 0.0
C595 C 0.99642 0.79197 0.30002 0.0
C596 C 0.99256 0.78977 0.34691 0.0
C597 C 0.00445 0.79543 0.21308 0.0
C598 C 0.01277 0.80013 0.24753 0.0
C599 C 0.00864 0.79839 0.2905 0.0
C600 C 0.02578 0.80622 0.2397 0.0
C601 C 0.00832 0.79643 0.16632 0.0
C602 C 0.03253 0.80152 0.25739 0.0
C603 C 0.04462 0.80664 0.24759 0.0
C604 C 0.05017 0.81652 0.2198 0.0
C605 C 0.0435 0.8215 0.20352 0.0
C606 C 0.03143 0.81644 0.21365 0.0
H607 H 0.00103 0.78986 0.14529 0.0
H608 H 0.01095 0.80545 0.15407 0.0
H609 H 0.01607 0.79506 0.16316 0.0
H610 H 0.02837 0.79367 0.27776 0.0
H611 H 0.04952 0.80261 0.2607 0.0
H612 H 0.82355 0.77803 0.83984 0.0
H613 H 0.81403 0.79002 0.82804 0.0
H614 H 0.79477 0.76786 0.71903 0.0
H615 H 0.80392 0.7556 0.73162 0.0
H616 H 0.8134 0.80319 0.76208 0.0
H617 H 0.76802 0.76554 0.79181 0.0
H618 H 0.78118 0.76462 0.80288 0.0
H619 H 0.77533 0.76247 0.74854 0.0
C620 C 0.81733 0.77576 0.81323 0.0
C621 C 0.81436 0.7658 0.78696 0.0
C622 C 0.8119 0.78261 0.80653 0.0
C623 C 0.80347 0.77965 0.77333 0.0
C624 C 0.80097 0.77008 0.74569 0.0
H625 H 0.77607 0.8227 0.66542 0.0
H626 H 0.78813 0.81374 0.68437 0.0
C627 C 0.80626 0.76314 0.75273 0.0
C628 C 0.79711 0.78642 0.76805 0.0
H629 H 0.76933 0.78298 0.76095 0.0
C630 C 0.80376 0.7988 0.76214 0.0
C631 C 0.78454 0.78073 0.76916 0.0
C632 C 0.77686 0.76763 0.77892 0.0
C633 C 0.79817 0.80558 0.75603 0.0
C634 C 0.78559 0.79977 0.75457 0.0
C635 C 0.77897 0.78744 0.76164 0.0
C636 C 0.77902 0.80615 0.74496 0.0
C637 C 0.80582 0.81891 0.75186 0.0
C638 C 0.76973 0.80474 0.77229 0.0
C639 C 0.76265 0.80963 0.76099 0.0
C640 C 0.76477 0.81611 0.72232 0.0
C641 C 0.7743 0.81785 0.69568 0.0
C642 C 0.78127 0.8128 0.70665 0.0
H643 H 0.81455 0.82221 0.76818 0.0
H644 H 0.80758 0.8213 0.71701 0.0
H645 H 0.80138 0.82355 0.76599 0.0
H646 H 0.7678 0.79963 0.80197 0.0
H647 H 0.75537 0.80815 0.78219 0.0
H648 H 0.24323 0.05213 0.7166 0.0
H649 H 0.2309 0.03105 0.69871 0.0
H650 H 0.21174 0.02519 0.819 0.0
H651 H 0.22377 0.04635 0.83629 0.0
H652 H 0.23027 0.0133 0.74172 0.0
H653 H 0.18463 0.00645 0.73745 0.0
H654 H 0.19768 0.02107 0.73759 0.0
H655 H 0.19208 0.01296 0.78755 0.0
C656 C 0.23624 0.04639 0.73884 0.0
C657 C 0.23446 0.05089 0.77783 0.0
C658 C 0.2292 0.03434 0.72861 0.0
C659 C 0.22029 0.02653 0.75727 0.0
C660 C 0.21833 0.03107 0.79582 0.0
H661 H 0.19625 0.95109 0.7693 0.0
H662 H 0.20492 0.97236 0.78369 0.0
C663 C 0.22527 0.04316 0.80581 0.0
C664 C 0.21386 0.01353 0.7486 0.0
H665 H 0.18624 0.98886 0.74161 0.0
C666 C 0.22063 0.00799 0.74136 0.0
C667 C 0.20129 0.00659 0.7477 0.0
C668 C 0.1935 0.01209 0.75254 0.0
C669 C 0.21522 0.99572 0.73388 0.0
C670 C 0.20267 0.98869 0.73504 0.0
C671 C 0.19586 0.99424 0.74143 0.0
C672 C 0.19649 0.97561 0.72889 0.0
C673 C 0.22304 0.99046 0.724 0.0
C674 C 0.18838 0.97025 0.69468 0.0
C675 C 0.18325 0.95805 0.68682 0.0
C676 C 0.18619 0.95101 0.71298 0.0
C677 C 0.19392 0.95631 0.74828 0.0
C678 C 0.19894 0.96847 0.75638 0.0
H679 H 0.23192 0.99732 0.7119 0.0
H680 H 0.22442 0.98663 0.75414 0.0
H681 H 0.21888 0.98328 0.69938 0.0
H682 H 0.1863 0.97558 0.67325 0.0
H683 H 0.1773 0.95421 0.65942 0.0
H684 H 0.04562 0.2214 0.6476 0.0
H685 H 0.02409 0.20902 0.65838 0.0
H686 H 0.02665 0.22852 0.77506 0.0
H687 H 0.04804 0.24113 0.76383 0.0
H688 H 0.00988 0.19437 0.72325 0.0
H689 H 0.00286 0.23284 0.70406 0.0
H690 H 0.01683 0.23368 0.69139 0.0
H691 H 0.01319 0.23507 0.74667 0.0
C692 C 0.04159 0.22298 0.67573 0.0
C693 C 0.04847 0.23233 0.70457 0.0
C694 C 0.0293 0.2159 0.68183 0.0
C695 C 0.02373 0.21805 0.71693 0.0
C696 C 0.03071 0.22694 0.74708 0.0
H697 H 0.95364 0.1752 0.82491 0.0
H698 H 0.97441 0.1835 0.80342 0.0
C699 C 0.04295 0.23409 0.74075 0.0
C700 C 0.0106 0.21131 0.72139 0.0
H701 H 0.98653 0.21506 0.73208 0.0
C702 C 0.00474 0.19886 0.72483 0.0
C703 C 0.00387 0.21716 0.72238 0.0
C704 C 0.00949 0.23041 0.71546 0.0
C705 C 0.99235 0.19214 0.73083 0.0
C706 C 0.98574 0.19808 0.7345 0.0
C707 C 0.99159 0.21049 0.72964 0.0
C708 C 0.97283 0.19178 0.74469 0.0
C709 C 0.98651 0.17877 0.73272 0.0
C710 C 0.96499 0.19371 0.7191 0.0
C711 C 0.95318 0.1892 0.73187 0.0
C712 C 0.94894 0.18257 0.7703 0.0
C713 C 0.95663 0.18019 0.79491 0.0
C714 C 0.9685 0.18486 0.78247 0.0
H715 H 0.9918 0.17556 0.71486 0.0
H716 H 0.98591 0.17595 0.76705 0.0
H717 H 0.97739 0.17442 0.71888 0.0
H718 H 0.96812 0.19904 0.68988 0.0
H719 H 0.94745 0.19116 0.71221 0.0
H720 H 0.86726 0.58075 0.58985 0.0
H721 H 0.87537 0.56764 0.6026 0.0
H722 H 0.84609 0.53956 0.53195 0.0
H723 H 0.83807 0.55279 0.51798 0.0
H724 H 0.86635 0.54655 0.64417 0.0
H725 H 0.87446 0.54117 0.47079 0.0
H726 H 0.87067 0.5521 0.48869 0.0
H727 H 0.85931 0.53674 0.48365 0.0
C728 C 0.86253 0.57178 0.57701 0.0
C729 C 0.85207 0.56783 0.55263 0.0
C730 C 0.86717 0.56429 0.58439 0.0
C731 C 0.86145 0.55268 0.56766 0.0
C732 C 0.85081 0.54857 0.54431 0.0
H733 H 0.88652 0.50429 0.65499 0.0
H734 H 0.87337 0.51227 0.63863 0.0
C735 C 0.8462 0.55612 0.53659 0.0
C736 C 0.86678 0.54501 0.57474 0.0
H737 H 0.87914 0.53066 0.52206 0.0
C738 C 0.86908 0.543 0.6175 0.0
C739 C 0.87042 0.54048 0.53984 0.0
C740 C 0.8687 0.5428 0.49314 0.0
C741 C 0.87519 0.53687 0.62637 0.0
C742 C 0.87882 0.53232 0.59148 0.0
C743 C 0.87626 0.53407 0.54874 0.0
C744 C 0.8862 0.52666 0.59842 0.0
C745 C 0.87818 0.53582 0.67292 0.0
C746 C 0.89754 0.53174 0.5796 0.0
C747 C 0.90498 0.5271 0.58829 0.0
C748 C 0.90123 0.51729 0.61615 0.0
C749 C 0.8897 0.51192 0.6337 0.0
C750 C 0.88221 0.51652 0.62462 0.0
H751 H 0.87726 0.54217 0.69448 0.0
H752 H 0.87201 0.52669 0.68482 0.0
H753 H 0.88741 0.53746 0.67573 0.0
H754 H 0.9008 0.53955 0.55914 0.0
H755 H 0.91381 0.53143 0.57422 0.0
H756 H 0.41738 0.28441 0.59402 0.0
H757 H 0.43038 0.3055 0.61005 0.0
H758 H 0.45919 0.30494 0.54244 0.0
H759 H 0.44611 0.28387 0.52523 0.0
H760 H 0.45134 0.31763 0.65388 0.0
H761 H 0.45741 0.33162 0.48097 0.0
H762 H 0.44648 0.31684 0.4981 0.0
H763 H 0.46187 0.32092 0.49385 0.0
C764 C 0.42649 0.28875 0.5827 0.0
C765 C 0.43069 0.28251 0.55801 0.0
C766 C 0.43392 0.30081 0.59194 0.0
C767 C 0.44569 0.30684 0.57678 0.0
C768 C 0.45006 0.30052 0.55358 0.0
H769 H 0.49426 0.38021 0.66449 0.0
H770 H 0.48582 0.35893 0.64965 0.0
C771 C 0.4426 0.28847 0.54401 0.0
C772 C 0.45321 0.31981 0.58457 0.0
H773 H 0.46773 0.34665 0.53294 0.0
C774 C 0.45499 0.32399 0.62749 0.0
C775 C 0.45786 0.32808 0.55 0.0
C776 C 0.45574 0.32418 0.50312 0.0
C777 C 0.46109 0.33621 0.6368 0.0
C778 C 0.46578 0.34448 0.60223 0.0
C779 C 0.46421 0.34029 0.55937 0.0
C780 C 0.47146 0.35749 0.60951 0.0
C781 C 0.462 0.34015 0.68342 0.0
C782 C 0.46648 0.36383 0.59055 0.0
C783 C 0.47137 0.37597 0.59845 0.0
C784 C 0.48134 0.38203 0.62559 0.0
C785 C 0.48652 0.37575 0.6437 0.0
C786 C 0.48167 0.36359 0.63549 0.0
H787 H 0.45561 0.33282 0.7047 0.0
H788 H 0.47111 0.34312 0.69563 0.0
H789 H 0.46033 0.34772 0.68624 0.0
H790 H 0.45863 0.35931 0.57028 0.0
H791 H 0.46716 0.38055 0.58397 0.0
H792 H 0.71577 0.13709 0.60786 0.0
H793 H 0.69431 0.12797 0.61867 0.0
H794 H 0.69214 0.14759 0.50944 0.0
H795 H 0.7137 0.15708 0.49941 0.0
H796 H 0.67805 0.1469 0.57401 0.0
H797 H 0.67011 0.10145 0.54454 0.0
H798 H 0.68029 0.1086 0.58848 0.0
H799 H 0.6843 0.11455 0.53438 0.0
C800 C 0.71074 0.13953 0.58634 0.0
C801 C 0.71639 0.14772 0.55256 0.0
C802 C 0.69846 0.13424 0.59233 0.0
C803 C 0.69157 0.13684 0.5641 0.0
C804 C 0.69727 0.14537 0.53137 0.0
H805 H 0.61464 0.08922 0.55527 0.0
H806 H 0.6356 0.1013 0.53465 0.0
C807 C 0.70958 0.15079 0.52571 0.0
C808 C 0.67842 0.13055 0.56846 0.0
H809 H 0.65394 0.10285 0.57497 0.0
C810 C 0.67275 0.13727 0.57386 0.0
C811 C 0.67147 0.11798 0.56717 0.0
C812 C 0.67684 0.11023 0.55784 0.0
C813 C 0.66038 0.13176 0.57954 0.0
C814 C 0.65354 0.11918 0.58109 0.0
C815 C 0.65917 0.11248 0.57425 0.0
C816 C 0.64061 0.11272 0.59119 0.0
C817 C 0.65478 0.13949 0.58328 0.0
C818 C 0.63641 0.11517 0.6296 0.0
C819 C 0.62443 0.1084 0.64105 0.0
C820 C 0.61644 0.09887 0.61481 0.0
C821 C 0.62059 0.09651 0.57611 0.0
C822 C 0.63256 0.1034 0.56435 0.0
H823 H 0.66023 0.14814 0.56652 0.0
H824 H 0.64567 0.13505 0.56935 0.0
H825 H 0.65424 0.1414 0.61803 0.0
H826 H 0.64248 0.12205 0.65155 0.0
H827 H 0.62152 0.11036 0.67133 0.0
H828 H 0.49566 0.11469 0.16119 0.0
H829 H 0.48747 0.12774 0.14641 0.0
H830 H 0.45948 0.10002 0.07003 0.0
H831 H 0.46779 0.08711 0.08352 0.0
H832 H 0.46827 0.12144 0.03162 0.0
H833 H 0.45809 0.12451 0.20467 0.0
H834 H 0.47348 0.12954 0.1938 0.0
H835 H 0.46253 0.11414 0.18598 0.0
C836 C 0.48781 0.11142 0.141 0.0
C837 C 0.48232 0.09985 0.12373 0.0
C838 C 0.48309 0.11885 0.13285 0.0
C839 C 0.47272 0.11477 0.10786 0.0
C840 C 0.46746 0.10334 0.08955 0.0
H841 H 0.41946 0.135 0.09974 0.0
H842 H 0.43241 0.12679 0.11448 0.0
C843 C 0.47222 0.09597 0.09733 0.0
C844 C 0.46713 0.1222 0.10111 0.0
H845 H 0.45371 0.13545 0.15428 0.0
C846 C 0.46514 0.12457 0.05842 0.0
C847 C 0.46295 0.12616 0.13617 0.0
C848 C 0.46425 0.12338 0.18273 0.0
C849 C 0.45888 0.13056 0.04973 0.0
C850 C 0.45476 0.13459 0.08479 0.0
C851 C 0.45696 0.13244 0.12749 0.0
C852 C 0.44735 0.1402 0.07789 0.0
C853 C 0.45626 0.13203 0.00311 0.0
C854 C 0.45154 0.15065 0.05331 0.0
C855 C 0.44409 0.15531 0.04445 0.0
C856 C 0.4324 0.14968 0.06059 0.0
C857 C 0.42842 0.13953 0.08678 0.0
C858 C 0.43582 0.13483 0.09526 0.0
H859 H 0.45748 0.12596 0.98102 0.0
H860 H 0.44702 0.1303 -0.00053 0.0
H861 H 0.46245 0.14129 0.99256 0.0
H862 H 0.4605 0.15511 0.04048 0.0
H863 H 0.44744 0.1632 0.02447 0.0
H864 H 0.86163 0.28209 0.11654 0.0
H865 H 0.87002 0.30322 0.13271 0.0
H866 H 0.85264 0.30709 0.01958 0.0
H867 H 0.84382 0.28585 0.00435 0.0
H868 H 0.88523 0.32107 0.08578 0.0
H869 H 0.84518 0.32538 0.10583 0.0
H870 H 0.84443 0.31112 0.10423 0.0
H871 H 0.8453 0.31887 0.05465 0.0
C872 C 0.85943 0.28741 0.09557 0.0
C873 C 0.85205 0.28233 0.05926 0.0
C874 C 0.86424 0.29949 0.1048 0.0
C875 C 0.86186 0.30675 0.07767 0.0
C876 C 0.85435 0.30164 0.04169 0.0
H877 H 0.91018 0.38312 0.0614 0.0
H878 H 0.89823 0.36181 0.04637 0.0
C879 C 0.84937 0.2895 0.03284 0.0
C880 C 0.86803 0.3198 0.08517 0.0
H881 H 0.86366 0.34351 0.09679 0.0
C882 C 0.88049 0.32595 0.08849 0.0
C883 C 0.86185 0.32617 0.08914 0.0
C884 C 0.84845 0.32003 0.08874 0.0
C885 C 0.88695 0.33827 0.09531 0.0
C886 C 0.88083 0.34473 0.09729 0.0
C887 C 0.86836 0.33858 0.09454 0.0
C888 C 0.88722 0.35781 0.10368 0.0
C889 C 0.90025 0.34417 0.10142 0.0
C890 C 0.88456 0.36275 0.1395 0.0
C891 C 0.89121 0.37496 0.14765 0.0
C892 C 0.9007 0.38243 0.12025 0.0
C893 C 0.90301 0.37756 0.08337 0.0
C894 C 0.89625 0.36537 0.07492 0.0
H895 H 0.90299 0.33768 0.11165 0.0
H896 H 0.90474 0.34812 0.07018 0.0
H897 H 0.90344 0.35136 0.12608 0.0
H898 H 0.87758 0.35709 0.16196 0.0
H899 H 0.8892 0.37847 0.17631 0.0
H900 H 0.62115 0.50966 0.17257 0.0
H901 H 0.64236 0.51961 0.1559 0.0
H902 H 0.63657 0.53583 0.04333 0.0
H903 H 0.61534 0.52623 0.06078 0.0
H904 H 0.65533 0.51945 0.08911 0.0
H905 H 0.66127 0.56461 0.10737 0.0
H906 H 0.64769 0.55136 0.12239 0.0
H907 H 0.6506 0.55593 0.06646 0.0
C908 C 0.62436 0.51528 0.14406 0.0
C909 C 0.6166 0.51728 0.11823 0.0
C910 C 0.6365 0.52096 0.13458 0.0
C911 C 0.64111 0.52869 0.09897 0.0
C912 C 0.63327 0.53018 0.07172 0.0
H913 H 0.71305 0.55728 -0.00137 0.0
H914 H 0.69171 0.54528 0.01234 0.0
C915 C 0.62113 0.52461 0.08151 0.0
C916 C 0.65414 0.53541 0.09134 0.0
H917 H 0.67785 0.56351 0.08118 0.0
C918 C 0.66027 0.52909 0.08744 0.0
C919 C 0.66062 0.548 0.09008 0.0
C920 C 0.65474 0.55539 0.09724 0.0
C921 C 0.67266 0.535 0.08191 0.0
C922 C 0.67907 0.54756 0.07894 0.0
C923 C 0.67294 0.55388 0.08315 0.0
C924 C 0.69212 0.55442 0.07169 0.0
C925 C 0.67878 0.52771 0.0805 0.0
C926 C 0.69946 0.56373 0.09993 0.0
C927 C 0.71164 0.57076 0.09167 0.0
C928 C 0.71672 0.56856 0.05514 0.0
C929 C 0.70941 0.5591 0.02733 0.0
C930 C 0.69721 0.55218 0.03527 0.0
H931 H 0.67338 0.51896 0.09673 0.0
H932 H 0.68001 0.52597 0.04617 0.0
H933 H 0.68765 0.53245 0.09631 0.0
H934 H 0.69573 0.56565 0.12817 0.0
H935 H 0.71704 0.57799 0.11366 0.0
H936 H 0.51079 0.88874 0.81776 0.0
H937 H 0.52012 0.87678 0.83276 0.0
H938 H 0.53728 0.89828 0.94559 0.0
H939 H 0.52833 0.91055 0.92978 0.0
H940 H 0.55274 0.89607 0.89756 0.0
H941 H 0.51341 0.8513 0.91983 0.0
H942 H 0.51319 0.8578 0.86874 0.0
H943 H 0.51231 0.86462 0.91844 0.0
C944 C 0.51641 0.8908 0.84614 0.0
C945 C 0.51884 0.90059 0.87259 0.0
C946 C 0.52168 0.8839 0.85484 0.0
C947 C 0.52928 0.88651 0.89067 0.0
C948 C 0.53143 0.89608 0.91781 0.0
H949 H 0.55864 0.84407 0.99039 0.0
H950 H 0.54647 0.85318 0.97549 0.0
C951 C 0.5263 0.90308 0.90878 0.0
C952 C 0.53574 0.87991 0.898 0.0
H953 H 0.5321 0.85213 0.91045 0.0
C954 C 0.54821 0.88647 0.90065 0.0
C955 C 0.52984 0.86738 0.90245 0.0
C956 C 0.51645 0.85988 0.90267 0.0
C957 C 0.55493 0.88087 0.90729 0.0
C958 C 0.54907 0.86831 0.90986 0.0
C959 C 0.5366 0.86174 0.90775 0.0
C960 C 0.55575 0.86191 0.91641 0.0
C961 C 0.56824 0.88854 0.91259 0.0
C962 C 0.56474 0.86344 0.88735 0.0
C963 C 0.57181 0.85836 0.89608 0.0
C964 C 0.56985 0.85147 0.93359 0.0
C965 C 0.56039 0.84935 0.96126 0.0
C966 C 0.55342 0.85456 0.95279 0.0
H967 H 0.57083 0.89777 0.9222 0.0
H968 H 0.57166 0.8848 0.93739 0.0
H969 H 0.57264 0.889 0.88121 0.0
H970 H 0.56647 0.86878 0.8584 0.0
H971 H 0.57896 0.86003 0.87391 0.0
H972 H 0.11158 0.62201 0.81667 0.0
H973 H 0.12354 0.64348 0.82866 0.0
H974 H 0.10448 0.63981 0.94767 0.0
H975 H 0.09224 0.61844 0.93504 0.0
H976 H 0.10523 0.65688 0.89898 0.0
H977 H 0.1507 0.66328 0.90907 0.0
H978 H 0.14312 0.65607 0.85991 0.0
H979 H 0.13753 0.64877 0.91123 0.0
C980 C 0.11008 0.62576 0.84572 0.0
C981 C 0.10097 0.61855 0.87491 0.0
C982 C 0.11696 0.63804 0.85267 0.0
C983 C 0.11502 0.64326 0.88936 0.0
C984 C 0.10616 0.63599 0.91915 0.0
H985 H 0.15758 0.71472 0.98873 0.0
H986 H 0.14862 0.69357 0.9716 0.0
C987 C 0.09918 0.62377 0.91194 0.0
C988 C 0.12154 0.65638 0.89527 0.0
H989 H 0.14927 0.68084 0.90334 0.0
C990 C 0.11487 0.66211 0.90008 0.0
C991 C 0.13411 0.66319 0.89702 0.0
C992 C 0.14179 0.65751 0.89447 0.0
C993 C 0.12037 0.67442 0.90673 0.0
C994 C 0.13294 0.6813 0.90714 0.0
C995 C 0.13964 0.67558 0.9024 0.0
C996 C 0.13924 0.69433 0.91471 0.0
C997 C 0.11261 0.67986 0.91461 0.0
C998 C 0.13726 0.70188 0.88761 0.0
C999 C 0.14225 0.71395 0.89766 0.0
C1000 C 0.14949 0.71872 0.93453 0.0
C1001 C 0.15201 0.7113 0.96015 0.0
C1002 C 0.14691 0.69921 0.95038 0.0
H1003 H 0.1035 0.67308 0.92501 0.0
H1004 H 0.11651 0.6869 0.93983 0.0
H1005 H 0.1118 0.68392 0.88406 0.0
H1006 H 0.13164 0.69838 0.85922 0.0
H1007 H 0.14025 0.71948 0.87703 0.0
H1008 H 0.28663 0.44297 0.9941 0.0
H1009 H 0.30778 0.45511 0.97696 0.0
H1010 H 0.30279 0.43353 0.86372 0.0
H1011 H 0.28174 0.42105 0.88184 0.0
H1012 H 0.32094 0.4361 0.90783 0.0
H1013 H 0.3256 0.48064 0.88988 0.0
H1014 H 0.31948 0.47416 0.94162 0.0
H1015 H 0.31128 0.46724 0.89279 0.0
C1016 C 0.29002 0.44092 0.96522 0.0
C1017 C 0.28255 0.43106 0.9393 0.0
C1018 C 0.3021 0.44793 0.95526 0.0
C1019 C 0.30687 0.44537 0.91862 0.0
C1020 C 0.29932 0.4357 0.8921 0.0
H1021 H 0.37868 0.48984 0.81838 0.0
H1022 H 0.35727 0.48009 0.83235 0.0
C1023 C 0.28729 0.42858 0.90245 0.0
C1024 C 0.31987 0.45214 0.90978 0.0
H1025 H 0.34371 0.48012 0.89764 0.0
C1026 C 0.32589 0.44573 0.90525 0.0
C1027 C 0.32633 0.46469 0.90588 0.0
C1028 C 0.32031 0.47207 0.90733 0.0
C1029 C 0.33817 0.45148 0.89753 0.0
C1030 C 0.34473 0.46407 0.8959 0.0
C1031 C 0.33871 0.47049 0.89963 0.0
C1032 C 0.35782 0.47066 0.88945 0.0
C1033 C 0.3439 0.44397 0.89024 0.0
C1034 C 0.3653 0.46891 0.91767 0.0
C1035 C 0.3775 0.47432 0.90938 0.0
C1036 C 0.38247 0.48181 0.87328 0.0
C1037 C 0.37509 0.48409 0.84642 0.0
C1038 C 0.36285 0.47853 0.85437 0.0
H1039 H 0.3373 0.43484 0.87936 0.0
H1040 H 0.35109 0.44803 0.86562 0.0
H1041 H 0.3478 0.44316 0.92119 0.0
H1042 H 0.36168 0.46318 0.94572 0.0
H1043 H 0.383 0.47252 0.93096 0.0
H1044 H 0.11099 0.48971 0.32369 0.0
H1045 H 0.1228 0.48019 0.33817 0.0
H1046 H 0.10254 0.46454 0.45473 0.0
H1047 H 0.09039 0.4737 0.43957 0.0
H1048 H 0.13698 0.48082 0.4028 0.0
H1049 H 0.09774 0.4355 0.39039 0.0
H1050 H 0.09715 0.44864 0.37571 0.0
H1051 H 0.09615 0.44433 0.43177 0.0
C1052 C 0.10911 0.48432 0.35261 0.0
C1053 C 0.09966 0.48232 0.38023 0.0
C1054 C 0.11587 0.47888 0.36085 0.0
C1055 C 0.11337 0.47142 0.39697 0.0
C1056 C 0.1044 0.46998 0.42597 0.0
H1057 H 0.15727 0.44307 0.49326 0.0
H1058 H 0.14846 0.45553 0.4787 0.0
C1059 C 0.09752 0.47528 0.41745 0.0
C1060 C 0.11986 0.46481 0.40324 0.0
H1061 H 0.11571 0.43683 0.41433 0.0
C1062 C 0.13234 0.4712 0.40521 0.0
C1063 C 0.11382 0.45223 0.40544 0.0
C1064 C 0.10049 0.44476 0.40027 0.0
C1065 C 0.13894 0.46536 0.40995 0.0
C1066 C 0.13285 0.45282 0.41396 0.0
C1067 C 0.12038 0.44645 0.41153 0.0
C1068 C 0.13913 0.44602 0.42069 0.0
C1069 C 0.15234 0.47269 0.40957 0.0
C1070 C 0.13675 0.43643 0.39325 0.0
C1071 C 0.14159 0.42916 0.40201 0.0
C1072 C 0.14898 0.43138 0.43824 0.0
C1073 C 0.1517 0.44122 0.46484 0.0
C1074 C 0.14672 0.4484 0.4564 0.0
H1075 H 0.15549 0.48132 0.3927 0.0
H1076 H 0.15564 0.47465 0.44348 0.0
H1077 H 0.15633 0.46786 0.39343 0.0
H1078 H 0.13091 0.43441 0.36553 0.0
H1079 H 0.13934 0.42165 0.38091 0.0
H1080 H 0.50964 0.62006 0.32062 0.0
H1081 H 0.51906 0.64143 0.33477 0.0
H1082 H 0.5375 0.6376 0.4446 0.0
H1083 H 0.52845 0.61631 0.42965 0.0
H1084 H 0.51923 0.6547 0.40166 0.0
H1085 H 0.56479 0.66249 0.37508 0.0
H1086 H 0.55169 0.64851 0.36245 0.0
H1087 H 0.5571 0.6519 0.41738 0.0
C1088 C 0.51565 0.62377 0.34794 0.0
C1089 C 0.51843 0.61655 0.37374 0.0
C1090 C 0.52103 0.63598 0.35598 0.0
C1091 C 0.52921 0.64116 0.3901 0.0
C1092 C 0.53149 0.63386 0.41729 0.0
H1093 H 0.55638 0.7122 0.49523 0.0
H1094 H 0.54453 0.69098 0.47882 0.0
C1095 C 0.52625 0.62168 0.40891 0.0
C1096 C 0.53555 0.65424 0.39654 0.0
H1097 H 0.56329 0.67861 0.40452 0.0
C1098 C 0.52886 0.65995 0.40208 0.0
C1099 C 0.54812 0.66113 0.39614 0.0
C1100 C 0.55585 0.65572 0.38698 0.0
C1101 C 0.53441 0.67232 0.4081 0.0
C1102 C 0.54699 0.67911 0.40983 0.0
C1103 C 0.55365 0.67341 0.40356 0.0
C1104 C 0.55351 0.69211 0.41827 0.0
C1105 C 0.52674 0.67798 0.41164 0.0
C1106 C 0.56266 0.69982 0.39015 0.0
C1107 C 0.56961 0.71191 0.39997 0.0
C1108 C 0.56749 0.71654 0.43795 0.0
C1109 C 0.55813 0.7089 0.46548 0.0
C1110 C 0.55129 0.69677 0.45598 0.0
H1111 H 0.51796 0.67243 0.39575 0.0
H1112 H 0.52508 0.67885 0.4464 0.0
H1113 H 0.53112 0.68697 0.39669 0.0
H1114 H 0.56456 0.69644 0.36092 0.0
H1115 H 0.57675 0.71759 0.37813 0.0
H1116 H 0.38678 0.91125 0.44063 0.0
H1117 H 0.36582 0.89912 0.46106 0.0
H1118 H 0.3593 0.87771 0.34617 0.0
H1119 H 0.38027 0.88947 0.3266 0.0
H1120 H 0.34751 0.89722 0.41914 0.0
H1121 H 0.34153 0.85211 0.43305 0.0
H1122 H 0.35604 0.86525 0.42982 0.0
H1123 H 0.34757 0.85856 0.38123 0.0
C1124 C 0.38091 0.9038 0.42022 0.0
C1125 C 0.38517 0.90129 0.3821 0.0
C1126 C 0.36894 0.89689 0.43187 0.0
C1127 C 0.36099 0.88738 0.4055 0.0
C1128 C 0.36529 0.88475 0.36776 0.0
H1129 H 0.28553 0.86231 0.38918 0.0
H1130 H 0.30695 0.87144 0.37723 0.0
C1131 C 0.37729 0.89155 0.35642 0.0
C1132 C 0.34804 0.88091 0.41531 0.0
H1133 H 0.32366 0.85317 0.42466 0.0
C1134 C 0.34233 0.88759 0.42082 0.0
C1135 C 0.34127 0.86835 0.41808 0.0
C1136 C 0.34695 0.86067 0.4157 0.0
C1137 C 0.33003 0.88207 0.42792 0.0
C1138 C 0.32316 0.86949 0.428 0.0
C1139 C 0.3289 0.86281 0.42377 0.0
C1140 C 0.31002 0.86316 0.43296 0.0
C1141 C 0.32459 0.88982 0.4359 0.0
C1142 C 0.30451 0.85495 0.46677 0.0
C1143 C 0.29222 0.84952 0.4731 0.0
C1144 C 0.28524 0.85227 0.44585 0.0
C1145 C 0.2907 0.86013 0.41101 0.0
C1146 C 0.30296 0.86542 0.40436 0.0
H1147 H 0.3313 0.89875 0.44812 0.0
H1148 H 0.32102 0.8911 0.40492 0.0
H1149 H 0.31721 0.88568 0.45973 0.0
H1150 H 0.30977 0.85299 0.48903 0.0
H1151 H 0.28826 0.84349 0.50022 0.0
H1152 H 0.09702 0.23386 0.74809 0.0
H1153 H 0.10506 0.22671 0.80567 0.0
H1154 H 0.10487 0.25236 0.89419 0.0
H1155 H 0.09714 0.25961 0.83694 0.0
H1156 H 0.12758 0.24338 0.84167 0.0
H1157 H 0.09389 0.22263 0.97104 0.0
H1158 H 0.09002 0.22345 0.91523 0.0
H1159 H 0.09473 0.23601 0.9509 0.0
C1160 C 0.09828 0.23761 0.78039 0.0
C1161 C 0.09647 0.24724 0.78841 0.0
C1162 C 0.10289 0.23356 0.8131 0.0
C1163 C 0.10543 0.23892 0.85429 0.0
C1164 C 0.10275 0.24793 0.86296 0.0
H1165 H 0.15784 0.27148 0.03196 0.0
H1166 H 0.14479 0.26331 0.96904 0.0
C1167 C 0.09839 0.25211 0.83023 0.0
C1168 C 0.11278 0.23687 0.88597 0.0
H1169 H 0.11463 0.23333 0.99479 0.0
C1170 C 0.12466 0.24078 0.87488 0.0
C1171 C 0.10895 0.23339 0.92914 0.0
C1172 C 0.09615 0.22852 0.9422 0.0
C1173 C 0.13308 0.2425 0.9068 0.0
C1174 C 0.12949 0.24028 0.95067 0.0
C1175 C 0.11739 0.23517 0.96112 0.0
C1176 C 0.13827 0.24492 0.98637 0.0
C1177 C 0.14589 0.24739 0.89374 0.0
C1178 C 0.13892 0.23726 0.0169 0.0
C1179 C 0.14646 0.24191 0.0529 0.0
C1180 C 0.15324 0.2543 0.0593 0.0
C1181 C 0.1527 0.26191 0.02809 0.0
C1182 C 0.14532 0.25726 0.99196 0.0
H1183 H 0.14662 0.24525 0.85936 0.0
H1184 H 0.15071 0.25721 0.8972 0.0
H1185 H 0.15031 0.2438 0.91479 0.0
H1186 H 0.13345 0.2277 0.01327 0.0
H1187 H 0.14663 0.23582 0.07649 0.0
H1188 H 0.76212 0.91003 0.08388 0.0
H1189 H 0.76955 0.90367 0.02232 0.0
H1190 H 0.73379 0.87585 0.99377 0.0
H1191 H 0.72632 0.88195 0.05533 0.0
H1192 H 0.75044 0.86809 0.9977 0.0
H1193 H 0.76609 0.90799 0.8919 0.0
H1194 H 0.77168 0.91024 0.94656 0.0
H1195 H 0.75624 0.90526 0.93723 0.0
C1196 C 0.75582 0.90263 0.06421 0.0
C1197 C 0.74362 0.89648 0.07461 0.0
C1198 C 0.7601 0.89903 0.02903 0.0
C1199 C 0.75222 0.88931 0.00348 0.0
C1200 C 0.74003 0.88333 0.01328 0.0
H1201 H 0.73786 0.86048 0.76604 0.0
H1202 H 0.74465 0.87333 0.82917 0.0
C1203 C 0.73577 0.88686 0.04844 0.0
C1204 C 0.75644 0.88501 0.96687 0.0
H1205 H 0.76575 0.89126 0.86177 0.0
C1206 C 0.75404 0.87321 0.96818 0.0
C1207 C 0.76126 0.89181 0.92875 0.0
C1208 C 0.76394 0.90451 0.9256 0.0
C1209 C 0.75528 0.86764 0.93117 0.0
C1210 C 0.75929 0.87418 0.89204 0.0
C1211 C 0.76273 0.88631 0.89188 0.0
C1212 C 0.75726 0.86801 0.84978 0.0
C1213 C 0.75126 0.85454 0.93331 0.0
C1214 C 0.76245 0.86107 0.83924 0.0
C1215 C 0.75845 0.85353 0.80294 0.0
C1216 C 0.74923 0.85289 0.77698 0.0
C1217 C 0.74479 0.86057 0.78589 0.0
C1218 C 0.74876 0.86803 0.82183 0.0
H1219 H 0.74719 0.85055 0.96511 0.0
H1220 H 0.74465 0.84963 0.90739 0.0
H1221 H 0.759 0.85327 0.9282 0.0
H1222 H 0.76919 0.8611 0.86003 0.0
H1223 H 0.76211 0.84779 0.79659 0.0
H1224 H 0.09128 0.85486 0.08379 0.0
H1225 H 0.09722 0.86812 0.02053 0.0
H1226 H 0.12023 0.85502 0.97829 0.0
H1227 H 0.11452 0.84192 0.04139 0.0
H1228 H 0.12302 0.88595 0.0025 0.0
H1229 H 0.10004 0.85415 0.86822 0.0
H1230 H 0.09482 0.85117 0.92373 0.0
H1231 H 0.10701 0.84923 0.907 0.0
C1232 C 0.09747 0.85468 0.06065 0.0
C1233 C 0.10247 0.84737 0.06764 0.0
C1234 C 0.10085 0.86226 0.02465 0.0
C1235 C 0.10906 0.86244 0.9947 0.0
C1236 C 0.11376 0.85489 0.00085 0.0
H1237 H 0.16463 0.90014 0.83715 0.0
H1238 H 0.15022 0.89288 0.89631 0.0
C1239 C 0.11054 0.84746 0.03704 0.0
C1240 C 0.11366 0.87116 0.95883 0.0
H1241 H 0.11763 0.87253 0.84923 0.0
C1242 C 0.12159 0.88312 0.96884 0.0
C1243 C 0.11165 0.86747 0.91503 0.0
C1244 C 0.10283 0.85482 0.90267 0.0
C1245 C 0.12844 0.89124 0.93631 0.0
C1246 C 0.1273 0.88724 0.893 0.0
C1247 C 0.11852 0.87558 0.88253 0.0
C1248 C 0.13654 0.89406 0.86015 0.0
C1249 C 0.13736 0.90385 0.94881 0.0
C1250 C 0.13371 0.89737 0.82045 0.0
C1251 C 0.14207 0.90172 0.78666 0.0
C1252 C 0.15317 0.90247 0.79204 0.0
C1253 C 0.15614 0.89968 0.83242 0.0
C1254 C 0.14793 0.8956 0.86625 0.0
H1255 H 0.13463 0.90655 0.97893 0.0
H1256 H 0.1461 0.90451 0.95499 0.0
H1257 H 0.13851 0.91016 0.92239 0.0
H1258 H 0.1249 0.89609 0.81503 0.0
H1259 H 0.13956 0.90368 0.75554 0.0
H1260 H 0.25872 0.12165 0.73629 0.0
H1261 H 0.251 0.12746 0.67531 0.0
H1262 H 0.22848 0.09058 0.64028 0.0
H1263 H 0.23649 0.08466 0.70172 0.0
H1264 H 0.24202 0.1028 0.57467 0.0
H1265 H 0.22229 0.12856 0.6373 0.0
H1266 H 0.23628 0.13379 0.66398 0.0
H1267 H 0.22458 0.11858 0.67157 0.0
C1268 C 0.25192 0.11473 0.71627 0.0
C1269 C 0.24834 0.10271 0.72335 0.0
C1270 C 0.24735 0.11806 0.68169 0.0
C1271 C 0.23901 0.10947 0.65343 0.0
C1272 C 0.23482 0.09736 0.66196 0.0
H1273 H 0.23695 0.14867 0.4224 0.0
H1274 H 0.22862 0.13444 0.48252 0.0
C1275 C 0.23939 0.09399 0.69699 0.0
C1276 C 0.23665 0.11348 0.61141 0.0
H1277 H 0.23426 0.13653 0.56947 0.0
C1278 C 0.2399 0.10989 0.57332 0.0
C1279 C 0.23362 0.12254 0.60908 0.0
C1280 C 0.22887 0.12596 0.64775 0.0
C1281 C 0.24162 0.11609 0.53431 0.0
C1282 C 0.2403 0.12626 0.53373 0.0
C1283 C 0.23563 0.12895 0.57029 0.0
C1284 C 0.24515 0.13498 0.49774 0.0
C1285 C 0.24544 0.11204 0.49466 0.0
C1286 C 0.25728 0.14029 0.48746 0.0
C1287 C 0.26206 0.14839 0.45336 0.0
C1288 C 0.25484 0.15147 0.429 0.0
C1289 C 0.24276 0.14648 0.44043 0.0
C1290 C 0.23796 0.13831 0.47463 0.0
H1291 H 0.24187 0.10228 0.49539 0.0
H1292 H 0.24243 0.11435 0.46433 0.0
H1293 H 0.25529 0.11643 0.49411 0.0
H1294 H 0.26307 0.13814 0.50582 0.0
H1295 H 0.27141 0.15214 0.4459 0.0
H1296 H 0.84918 0.12398 0.41891 0.0
H1297 H 0.86195 0.13065 0.48282 0.0
H1298 H 0.86324 0.09809 0.48294 0.0
H1299 H 0.85025 0.09119 0.41923 0.0
H1300 H 0.85906 0.10354 0.56304 0.0
H1301 H 0.89733 0.1432 0.49178 0.0
H1302 H 0.88382 0.14345 0.48258 0.0
H1303 H 0.8857 0.1318 0.45889 0.0
C1304 C 0.85221 0.11823 0.43226 0.0
C1305 C 0.84871 0.10706 0.4137 0.0
C1306 C 0.85961 0.12212 0.46863 0.0
C1307 C 0.86379 0.115 0.487 0.0
C1308 C 0.86023 0.10378 0.46895 0.0
H1309 H 0.91275 0.15235 0.70368 0.0
H1310 H 0.9055 0.13946 0.63928 0.0
C1311 C 0.85278 0.09986 0.43258 0.0
C1312 C 0.87129 0.11907 0.52657 0.0
H1313 H 0.89522 0.14347 0.57005 0.0
C1314 C 0.86712 0.11216 0.56438 0.0
C1315 C 0.882 0.13014 0.52819 0.0
C1316 C 0.88754 0.1375 0.48801 0.0
C1317 C 0.87278 0.11651 0.60446 0.0
C1318 C 0.88271 0.12816 0.60682 0.0
C1319 C 0.8875 0.13461 0.56841 0.0
C1320 C 0.88705 0.13447 0.64876 0.0
C1321 C 0.86783 0.10874 0.64409 0.0
C1322 C 0.8791 0.13586 0.6755 0.0
C1323 C 0.88318 0.14316 0.71191 0.0
C1324 C 0.89536 0.14938 0.72235 0.0
C1325 C 0.90331 0.14765 0.69656 0.0
C1326 C 0.89919 0.14032 0.65978 0.0
H1327 H 0.86379 0.09918 0.63539 0.0
H1328 H 0.8748 0.11094 0.66905 0.0
H1329 H 0.8607 0.11003 0.65836 0.0
H1330 H 0.86976 0.13172 0.66714 0.0
H1331 H 0.87678 0.14421 0.73113 0.0
H1332 H 0.83454 0.73328 0.66007 0.0
H1333 H 0.84716 0.74 0.59588 0.0
H1334 H 0.87105 0.77301 0.66005 0.0
H1335 H 0.85824 0.76629 0.72506 0.0
H1336 H 0.85692 0.76205 0.54229 0.0
H1337 H 0.89063 0.75559 0.63209 0.0
H1338 H 0.87554 0.74909 0.65164 0.0
H1339 H 0.8853 0.76487 0.65482 0.0
C1340 C 0.84235 0.74208 0.66025 0.0
C1341 C 0.84549 0.74923 0.69754 0.0
C1342 C 0.84953 0.74592 0.62353 0.0
C1343 C 0.86008 0.75693 0.62344 0.0
C1344 C 0.86295 0.76445 0.65969 0.0
H1345 H 0.90946 0.7603 0.42022 0.0
H1346 H 0.90249 0.76771 0.48 0.0
C1347 C 0.85562 0.76064 0.69658 0.0
C1348 C 0.86836 0.75966 0.58667 0.0
H1349 H 0.89146 0.75575 0.55616 0.0
C1350 C 0.86469 0.76104 0.54533 0.0
C1351 C 0.87853 0.75839 0.59081 0.0
C1352 C 0.8828 0.75688 0.63461 0.0
C1353 C 0.87039 0.76028 0.50779 0.0
C1354 C 0.8798 0.75781 0.51181 0.0
C1355 C 0.88416 0.75752 0.5532 0.0
C1356 C 0.88407 0.75388 0.47417 0.0
C1357 C 0.86593 0.76158 0.46411 0.0
C1358 C 0.87607 0.74354 0.45163 0.0
C1359 C 0.88 0.73924 0.41777 0.0
C1360 C 0.89207 0.74516 0.40573 0.0
C1361 C 0.9001 0.75553 0.42847 0.0
C1362 C 0.89614 0.75981 0.46259 0.0
H1363 H 0.86192 0.76739 0.46623 0.0
H1364 H 0.8732 0.76535 0.43972 0.0
H1365 H 0.85892 0.75271 0.45266 0.0
H1366 H 0.86677 0.73864 0.4608 0.0
H1367 H 0.87356 0.73122 0.4012 0.0
H1368 H 0.85413 0.72955 0.90865 0.0
H1369 H 0.8683 0.73702 0.96851 0.0
H1370 H 0.86432 0.76798 0.97834 0.0
H1371 H 0.85001 0.76056 0.91834 0.0
H1372 H 0.89041 0.75991 0.97439 0.0
H1373 H 0.85734 0.75323 0.10284 0.0
H1374 H 0.85279 0.74588 0.05087 0.0
H1375 H 0.85804 0.76152 0.05499 0.0
C1376 C 0.85622 0.73795 0.92342 0.0
C1377 C 0.85087 0.74442 0.90866 0.0
C1378 C 0.86437 0.74223 0.95756 0.0
C1379 C 0.86731 0.75302 0.97788 0.0
C1380 C 0.86208 0.75958 0.96326 0.0
H1381 H 0.90528 0.76611 0.22665 0.0
H1382 H 0.89905 0.77256 0.16136 0.0
C1383 C 0.85392 0.75532 0.92892 0.0
C1384 C 0.87571 0.7571 0.01489 0.0
H1385 H 0.8763 0.75757 0.12555 0.0
C1386 C 0.88742 0.75967 0.00744 0.0
C1387 C 0.87183 0.75695 0.05787 0.0
C1388 C 0.85931 0.75421 0.06751 0.0
C1389 C 0.8951 0.76126 0.04204 0.0
C1390 C 0.89087 0.76004 0.08505 0.0
C1391 C 0.87951 0.7585 0.0925 0.0
C1392 C 0.89694 0.75787 0.12163 0.0
C1393 C 0.90749 0.76365 0.03228 0.0
C1394 C 0.89801 0.74764 0.12055 0.0
C1395 C 0.90138 0.74392 0.15755 0.0
C1396 C 0.90386 0.7504 0.19631 0.0
C1397 C 0.90357 0.76108 0.19686 0.0
C1398 C 0.89998 0.76472 0.15976 0.0
H1399 H 0.91081 0.76853 0.00116 0.0
H1400 H 0.9138 0.76887 0.05862 0.0
H1401 H 0.90732 0.75505 0.02908 0.0
H1402 H 0.89547 0.74208 0.09186 0.0
H1403 H 0.90148 0.73563 0.15651 0.0
H1404 H 0.24345 0.08824 0.93221 0.0
H1405 H 0.23748 0.09405 -0.00085 0.0
H1406 H 0.26911 0.1286 0.99312 0.0
H1407 H 0.27526 0.12288 0.92713 0.0
H1408 H 0.26536 0.11813 0.07328 0.0
H1409 H 0.22437 0.11692 0.01269 0.0
H1410 H 0.22514 0.10357 0.00548 0.0
H1411 H 0.2353 0.11683 0.97669 0.0
C1412 C 0.24914 0.09708 0.94514 0.0
C1413 C 0.25984 0.10509 0.9242 0.0
C1414 C 0.24565 0.10041 0.9832 0.0
C1415 C 0.25277 0.11182 0.00069 0.0
C1416 C 0.26347 0.11977 0.98003 0.0
H1417 H 0.24863 0.15905 0.17907 0.0
H1418 H 0.24533 0.14604 0.11653 0.0
C1419 C 0.26698 0.11645 0.94228 0.0
C1420 C 0.24948 0.11552 0.04142 0.0
H1421 H 0.22967 0.1226 0.08573 0.0
C1422 C 0.25749 0.11899 0.07621 0.0
C1423 C 0.23924 0.11669 0.04489 0.0
C1424 C 0.23053 0.1134 0.00792 0.0
C1425 C 0.2558 0.124 0.11386 0.0
C1426 C 0.24559 0.12525 0.11739 0.0
C1427 C 0.23739 0.12149 0.08306 0.0
C1428 C 0.24405 0.13148 0.15492 0.0
C1429 C 0.2653 0.12847 0.14852 0.0
C1430 C 0.24361 0.12727 0.1972 0.0
C1431 C 0.24567 0.13474 0.23268 0.0
C1432 C 0.2478 0.14635 0.22635 0.0
C1433 C 0.24684 0.15006 0.18458 0.0
C1434 C 0.245 0.14265 0.14893 0.0
H1435 H 0.27371 0.12919 0.1365 0.0
H1436 H 0.26729 0.13734 0.16061 0.0
H1437 H 0.26214 0.12218 0.17626 0.0
H1438 H 0.24268 0.11859 0.20251 0.0
H1439 H 0.24646 0.13177 0.26473 0.0
H1440 H 0.83672 0.09864 0.15792 0.0
H1441 H 0.85118 0.10681 0.09906 0.0
H1442 H 0.87811 0.10747 0.18296 0.0
H1443 H 0.86345 0.09901 0.24219 0.0
H1444 H 0.88325 0.1299 0.14845 0.0
H1445 H 0.86954 0.09641 0.01781 0.0
H1446 H 0.85713 0.09715 0.03996 0.0
H1447 H 0.86531 0.09244 0.0739 0.0
C1448 C 0.8456 0.10008 0.16323 0.0
C1449 C 0.84901 0.09816 0.20426 0.0
C1450 C 0.85385 0.1047 0.12958 0.0
C1451 C 0.86569 0.10764 0.13651 0.0
C1452 C 0.86897 0.10512 0.17687 0.0
H1453 H 0.90979 0.14871 0.91402 0.0
H1454 H 0.90406 0.13533 0.97668 0.0
C1455 C 0.86062 0.10025 0.21051 0.0
C1456 C 0.87473 0.11515 0.104 0.0
H1457 H 0.87955 0.11715 0.99475 0.0
C1458 C 0.88273 0.12703 0.11505 0.0
C1459 C 0.87411 0.1114 0.06056 0.0
C1460 C 0.86613 0.09861 0.04741 0.0
C1461 C 0.88927 0.13549 0.08305 0.0
C1462 C 0.88772 0.13195 0.03908 0.0
C1463 C 0.8806 0.11987 0.0285 0.0
C1464 C 0.89212 0.14077 0.00346 0.0
C1465 C 0.89733 0.14826 0.09623 0.0
C1466 C 0.8873 0.14823 0.99792 0.0
C1467 C 0.89043 0.15578 0.96205 0.0
C1468 C 0.8985 0.15603 0.93106 0.0
C1469 C 0.90358 0.14877 0.93738 0.0
C1470 C 0.90032 0.14111 0.97309 0.0
H1471 H 0.90022 0.14895 0.13057 0.0
H1472 H 0.90533 0.15261 0.07511 0.0
H1473 H 0.89244 0.15321 0.09294 0.0
H1474 H 0.88081 0.14796 0.02072 0.0
H1475 H 0.88637 0.16127 0.95826 0.0
H1476 H 0.76279 0.91476 0.30098 0.0
H1477 H 0.76956 0.90809 0.36403 0.0
H1478 H 0.74646 0.87157 0.32594 0.0
H1479 H 0.73992 0.87809 0.26342 0.0
H1480 H 0.75492 0.89556 0.42786 0.0
H1481 H 0.77459 0.86954 0.36646 0.0
H1482 H 0.77292 0.87997 0.33254 0.0
H1483 H 0.76088 0.86485 0.33833 0.0
C1484 C 0.75947 0.90534 0.3055 0.0
C1485 C 0.75072 0.89693 0.27767 0.0
C1486 C 0.76333 0.90154 0.34145 0.0
C1487 C 0.75865 0.88933 0.34943 0.0
C1488 C 0.75046 0.88103 0.32001 0.0
H1489 H 0.72553 0.84603 0.55802 0.0
H1490 H 0.7336 0.85994 0.49764 0.0
C1491 C 0.74658 0.88478 0.28452 0.0
C1492 C 0.76047 0.88496 0.39156 0.0
H1493 H 0.7625 0.86171 0.43354 0.0
C1494 C 0.75697 0.88842 0.42936 0.0
C1495 C 0.76336 0.87581 0.39399 0.0
C1496 C 0.76828 0.87245 0.35561 0.0
C1497 C 0.75502 0.8821 0.46823 0.0
C1498 C 0.75635 0.87193 0.46894 0.0
C1499 C 0.76113 0.8693 0.43262 0.0
C1500 C 0.75161 0.86329 0.50514 0.0
C1501 C 0.75102 0.88608 0.50763 0.0
C1502 C 0.75893 0.8601 0.52807 0.0
C1503 C 0.75429 0.85199 0.56245 0.0
C1504 C 0.74223 0.84691 0.57431 0.0
C1505 C 0.73487 0.84985 0.55018 0.0
C1506 C 0.7395 0.85789 0.51585 0.0
H1507 H 0.75451 0.89583 0.5069 0.0
H1508 H 0.74116 0.8816 0.50784 0.0
H1509 H 0.754 0.8838 0.53813 0.0
H1510 H 0.76826 0.86403 0.51987 0.0
H1511 H 0.76021 0.84991 0.58027 0.0
H1512 H 0.08857 0.84245 0.31785 0.0
H1513 H 0.09758 0.85496 0.38192 0.0
H1514 H 0.12575 0.8813 0.30194 0.0
H1515 H 0.11704 0.86851 0.23851 0.0
H1516 H 0.13438 0.87373 0.36197 0.0
H1517 H 0.10292 0.88479 0.44107 0.0
H1518 H 0.09614 0.86916 0.43034 0.0
H1519 H 0.101 0.87951 0.38577 0.0
C1520 C 0.09639 0.85114 0.31385 0.0
C1521 C 0.10215 0.85458 0.27356 0.0
C1522 C 0.10154 0.85832 0.35042 0.0
C1523 C 0.11235 0.86911 0.34681 0.0
C1524 C 0.11742 0.87302 0.30557 0.0
H1525 H 0.1541 0.91129 0.57109 0.0
H1526 H 0.14222 0.90519 0.50441 0.0
C1527 C 0.11243 0.86575 0.26933 0.0
C1528 C 0.11949 0.87507 0.38609 0.0
H1529 H 0.11841 0.88542 0.48698 0.0
C1530 C 0.13093 0.87647 0.38892 0.0
C1531 C 0.11506 0.87871 0.4213 0.0
C1532 C 0.10315 0.87808 0.41931 0.0
C1533 C 0.13786 0.88097 0.42639 0.0
C1534 C 0.13313 0.88388 0.46256 0.0
C1535 C 0.12192 0.883 0.45933 0.0
C1536 C 0.1396 0.88738 0.50436 0.0
C1537 C 0.15015 0.88243 0.42708 0.0
C1538 C 0.14186 0.8793 0.52668 0.0
C1539 C 0.14866 0.88273 0.56454 0.0
C1540 C 0.15331 0.89433 0.58106 0.0
C1541 C 0.15073 0.90231 0.55921 0.0
C1542 C 0.14391 0.89885 0.5212 0.0
H1543 H 0.15366 0.88297 0.39376 0.0
H1544 H 0.15648 0.89056 0.44522 0.0
H1545 H 0.14977 0.87463 0.44345 0.0
H1546 H 0.13846 0.87035 0.51444 0.0
H1547 H 0.15036 0.87631 0.58061 0.0
H1548 H 0.08958 0.24375 0.56237 0.0
H1549 H 0.09685 0.23887 0.49669 0.0
H1550 H 0.13248 0.26697 0.5253 0.0
H1551 H 0.12531 0.27208 0.59032 0.0
H1552 H 0.12594 0.26809 0.44338 0.0
H1553 H 0.11599 0.2221 0.47924 0.0
H1554 H 0.10344 0.22431 0.48425 0.0
H1555 H 0.11586 0.23192 0.52051 0.0
C1556 C 0.09899 0.24884 0.55489 0.0
C1557 C 0.10685 0.25835 0.58162 0.0
C1558 C 0.10314 0.24596 0.51751 0.0
C1559 C 0.11524 0.25243 0.50645 0.0
C1560 C 0.12311 0.26181 0.53334 0.0
H1561 H 0.1581 0.24526 0.30761 0.0
H1562 H 0.14683 0.24252 0.37486 0.0
C1563 C 0.11898 0.26475 0.57048 0.0
C1564 C 0.11963 0.25016 0.46516 0.0
H1565 H 0.12244 0.22919 0.40739 0.0
C1566 C 0.12518 0.25958 0.4356 0.0
C1567 C 0.1187 0.23907 0.4552 0.0
C1568 C 0.11328 0.22879 0.4866 0.0
C1569 C 0.12985 0.25828 0.3964 0.0
C1570 C 0.12865 0.24711 0.3858 0.0
C1571 C 0.12318 0.23767 0.41539 0.0
C1572 C 0.13346 0.24544 0.3445 0.0
C1573 C 0.13627 0.26898 0.36708 0.0
C1574 C 0.12922 0.24721 0.30496 0.0
C1575 C 0.13571 0.24894 0.26694 0.0
C1576 C 0.14636 0.24862 0.26773 0.0
C1577 C 0.14986 0.24545 0.30626 0.0
C1578 C 0.14345 0.24393 0.34462 0.0
H1579 H 0.13892 0.27742 0.3846 0.0
H1580 H 0.14437 0.26946 0.35291 0.0
H1581 H 0.13029 0.26825 0.34007 0.0
H1582 H 0.12142 0.2482 0.30413 0.0
H1583 H 0.13285 0.25134 0.2375 0.0
H1584 H 0.80749 0.6011 0.4568 0.0
H1585 H 0.79392 0.5951 0.3951 0.0
H1586 H 0.80784 0.57323 0.34742 0.0
H1587 H 0.82118 0.57888 0.41001 0.0
H1588 H 0.80052 0.60006 0.31398 0.0
H1589 H 0.77283 0.5511 0.32902 0.0
H1590 H 0.78205 0.56039 0.37281 0.0
H1591 H 0.78847 0.55616 0.32944 0.0
C1592 C 0.80758 0.5949 0.43348 0.0
C1593 C 0.81546 0.59051 0.43821 0.0
C1594 C 0.79977 0.59143 0.39831 0.0
C1595 C 0.79972 0.58358 0.36687 0.0
C1596 C 0.80746 0.57903 0.37182 0.0
H1597 H 0.78385 0.58459 0.10108 0.0
H1598 H 0.79057 0.58052 0.16968 0.0
C1599 C 0.81517 0.58237 0.40742 0.0
C1600 C 0.79256 0.58129 0.32675 0.0
H1601 H 0.77233 0.55948 0.25988 0.0
C1602 C 0.79424 0.59118 0.3026 0.0
C1603 C 0.78436 0.56969 0.31179 0.0
C1604 C 0.78172 0.55873 0.33735 0.0
C1605 C 0.78818 0.58982 0.26361 0.0
C1606 C 0.78035 0.57826 0.24781 0.0
C1607 C 0.77841 0.56832 0.27212 0.0
C1608 C 0.77466 0.57668 0.20498 0.0
C1609 C 0.79033 0.60079 0.23906 0.0
C1610 C 0.76317 0.57512 0.20172 0.0
C1611 C 0.75923 0.5773 0.16225 0.0
C1612 C 0.76685 0.58119 0.12615 0.0
C1613 C 0.77783 0.58157 0.12856 0.0
C1614 C 0.78167 0.57925 0.16764 0.0
H1615 H 0.79504 0.60897 0.25912 0.0
H1616 H 0.79584 0.60191 0.21 0.0
H1617 H 0.78178 0.59987 0.22777 0.0
H1618 H 0.75769 0.57323 0.23041 0.0
H1619 H 0.75079 0.57709 0.16117 0.0
H1620 H 0.40575 0.19366 0.11441 0.0
H1621 H 0.4126 0.20611 0.1785 0.0
H1622 H 0.43534 0.19184 0.21111 0.0
H1623 H 0.42826 0.17902 0.14634 0.0
H1624 H 0.42109 0.18972 0.27708 0.0
H1625 H 0.44144 0.23575 0.21887 0.0
H1626 H 0.42758 0.2271 0.19118 0.0
H1627 H 0.43936 0.2237 0.18376 0.0
C1628 C 0.41239 0.1933 0.13467 0.0
C1629 C 0.41636 0.18525 0.12568 0.0
C1630 C 0.41644 0.20059 0.17108 0.0
C1631 C 0.42464 0.20008 0.19934 0.0
C1632 C 0.42911 0.19246 0.18943 0.0
H1633 H 0.42727 0.24149 0.42963 0.0
H1634 H 0.43529 0.23489 0.37077 0.0
C1635 C 0.42507 0.18516 0.15251 0.0
C1636 C 0.42681 0.20608 0.24205 0.0
H1637 H 0.42961 0.23141 0.28659 0.0
C1638 C 0.42334 0.19896 0.27943 0.0
C1639 C 0.43002 0.2182 0.24558 0.0
C1640 C 0.43494 0.22662 0.20764 0.0
C1641 C 0.42169 0.20325 0.31904 0.0
C1642 C 0.42326 0.21484 0.3209 0.0
C1643 C 0.42806 0.2224 0.2849 0.0
C1644 C 0.41869 0.21875 0.35774 0.0
C1645 C 0.41776 0.19512 0.35797 0.0
C1646 C 0.40664 0.21201 0.36928 0.0
C1647 C 0.40203 0.21572 0.40284 0.0
C1648 C 0.40935 0.22636 0.42527 0.0
C1649 C 0.42139 0.23324 0.41309 0.0
C1650 C 0.42601 0.22947 0.37956 0.0
H1651 H 0.42134 0.18893 0.35653 0.0
H1652 H 0.4207 0.20022 0.38878 0.0
H1653 H 0.40791 0.18964 0.35811 0.0
H1654 H 0.40071 0.20392 0.3519 0.0
H1655 H 0.39271 0.21025 0.41094 0.0
H1656 H 0.83118 0.22575 0.17399 0.0
H1657 H 0.81844 0.21981 0.23777 0.0
H1658 H 0.79761 0.23376 0.18052 0.0
H1659 H 0.81055 0.23991 0.11583 0.0
H1660 H 0.81113 0.23472 0.29455 0.0
H1661 H 0.77493 0.19602 0.2061 0.0
H1662 H 0.79007 0.20285 0.18684 0.0
H1663 H 0.78205 0.21074 0.18276 0.0
C1664 C 0.82399 0.22771 0.17504 0.0
C1665 C 0.82178 0.2332 0.13979 0.0
C1666 C 0.81675 0.22434 0.21159 0.0
C1667 C 0.80708 0.22628 0.21362 0.0
C1668 C 0.80505 0.23218 0.17934 0.0
H1669 H 0.75763 0.18246 0.42045 0.0
H1670 H 0.76484 0.19672 0.36024 0.0
C1671 C 0.81245 0.23572 0.14263 0.0
C1672 C 0.79886 0.22123 0.25078 0.0
H1673 H 0.77488 0.19498 0.28231 0.0
C1674 C 0.80298 0.22621 0.29192 0.0
C1675 C 0.78823 0.21017 0.24711 0.0
C1676 C 0.78346 0.20455 0.20343 0.0
C1677 C 0.79724 0.21995 0.32972 0.0
C1678 C 0.78733 0.20834 0.32611 0.0
C1679 C 0.78256 0.20384 0.28497 0.0
C1680 C 0.78293 0.20016 0.36376 0.0
C1681 C 0.8022 0.2256 0.37319 0.0
C1682 C 0.79066 0.19721 0.38508 0.0
C1683 C 0.78659 0.18906 0.41917 0.0
C1684 C 0.77466 0.1836 0.43267 0.0
C1685 C 0.76689 0.18652 0.41106 0.0
C1686 C 0.77098 0.19468 0.3767 0.0
H1687 H 0.80672 0.23546 0.37112 0.0
H1688 H 0.7951 0.22248 0.39818 0.0
H1689 H 0.8089 0.22319 0.3838 0.0
H1690 H 0.79984 0.20109 0.37483 0.0
H1691 H 0.79283 0.18702 0.43482 0.0
H1692 H 0.90919 0.48711 0.76468 0.0
H1693 H 0.90285 0.475 0.83083 0.0
H1694 H 0.93568 0.47426 0.8318 0.0
H1695 H 0.94217 0.48639 0.76636 0.0
H1696 H 0.90018 0.45193 0.84742 0.0
H1697 H 0.93423 0.48705 0.95267 0.0
H1698 H 0.93043 0.49019 0.89984 0.0
H1699 H 0.94043 0.48443 0.90471 0.0
C1700 C 0.91509 0.4844 0.77903 0.0
C1701 C 0.92625 0.48783 0.76033 0.0
C1702 C 0.91141 0.47745 0.81671 0.0
C1703 C 0.91886 0.47388 0.83639 0.0
C1704 C 0.92989 0.47711 0.81746 0.0
H1705 H 0.91469 0.42192 0.00971 0.0
H1706 H 0.91066 0.43134 0.94821 0.0
C1707 C 0.93357 0.48404 0.77996 0.0
C1708 C 0.91531 0.46688 0.87702 0.0
H1709 H 0.92508 0.46716 0.97974 0.0
C1710 C 0.90547 0.45529 0.87668 0.0
C1711 C 0.92209 0.47137 0.91531 0.0
C1712 C 0.93231 0.48399 0.91842 0.0
C1713 C 0.90268 0.44782 0.91309 0.0
C1714 C 0.91003 0.45204 0.95029 0.0
C1715 C 0.91945 0.46386 0.95123 0.0
C1716 C 0.90894 0.44427 0.98737 0.0
C1717 C 0.892 0.43547 0.91115 0.0
C1718 C 0.90893 0.44813 0.02995 0.0
C1719 C 0.91144 0.44288 0.06484 0.0
C1720 C 0.91377 0.43357 0.05774 0.0
C1721 C 0.91265 0.42893 0.01584 0.0
C1722 C 0.91033 0.43431 0.98074 0.0
H1723 H 0.88516 0.4351 0.88852 0.0
H1724 H 0.89481 0.42921 0.89893 0.0
H1725 H 0.88792 0.43241 0.94368 0.0
H1726 H 0.90794 0.45581 0.03584 0.0
H1727 H 0.91243 0.44667 0.09695 0.0
H1728 H 0.58024 0.48957 0.02796 0.0
H1729 H 0.57213 0.47824 0.96048 0.0
H1730 H 0.53954 0.4544 0.027 0.0
H1731 H 0.54745 0.46583 0.09384 0.0
H1732 H 0.55901 0.45253 0.93013 0.0
H1733 H 0.53199 0.47481 0.94041 0.0
H1734 H 0.54501 0.47922 0.97349 0.0
H1735 H 0.53117 0.4662 0.98726 0.0
C1736 C 0.57155 0.48162 0.02848 0.0
C1737 C 0.56439 0.47861 0.06573 0.0
C1738 C 0.56692 0.47518 0.98999 0.0
C1739 C 0.55517 0.46564 0.98876 0.0
C1740 C 0.54858 0.46181 0.02729 0.0
H1741 H 0.51125 0.42226 0.7737 0.0
H1742 H 0.52362 0.42924 0.83903 0.0
C1743 C 0.55311 0.46833 0.0654 0.0
C1744 C 0.54904 0.46113 0.94673 0.0
H1745 H 0.52734 0.46098 0.88386 0.0
C1746 C 0.5521 0.45436 0.9198 0.0
C1747 C 0.54018 0.46374 0.93319 0.0
C1748 C 0.53693 0.47147 0.95983 0.0
C1749 C 0.54633 0.44995 0.87974 0.0
C1750 C 0.53722 0.45228 0.86689 0.0
C1751 C 0.5343 0.45916 0.89379 0.0
C1752 C 0.53062 0.44794 0.82542 0.0
C1753 C 0.55019 0.44303 0.85128 0.0
C1754 C 0.53031 0.45611 0.79636 0.0
C1755 C 0.5231 0.45215 0.75955 0.0
C1756 C 0.51606 0.43992 0.75081 0.0
C1757 C 0.5166 0.43174 0.77938 0.0
C1758 C 0.52375 0.43572 0.81655 0.0
H1759 H 0.55922 0.44477 0.86001 0.0
H1760 H 0.54389 0.43338 0.85546 0.0
H1761 H 0.55016 0.44528 0.81653 0.0
H1762 H 0.53551 0.46558 0.80264 0.0
H1763 H 0.523 0.45871 0.73811 0.0
H1764 H 0.57729 0.09591 0.75703 0.0
H1765 H 0.57183 0.10344 0.82089 0.0
H1766 H 0.54725 0.06746 0.8605 0.0
H1767 H 0.55251 0.05986 0.79683 0.0
H1768 H 0.54683 0.09723 0.83769 0.0
H1769 H 0.5669 0.08498 0.97249 0.0
H1770 H 0.57235 0.08703 0.91733 0.0
H1771 H 0.55935 0.07337 0.93303 0.0
C1772 C 0.57087 0.0896 0.77976 0.0
C1773 C 0.56529 0.07728 0.77182 0.0
C1774 C 0.56776 0.09393 0.81611 0.0
C1775 C 0.55923 0.086 0.84548 0.0
C1776 C 0.55398 0.07371 0.83845 0.0
H1777 H 0.50355 0.07125 -0.00069 0.0
H1778 H 0.5182 0.0779 0.94093 0.0
C1779 C 0.55694 0.06939 0.80192 0.0
C1780 C 0.55487 0.09034 0.88144 0.0
H1781 H 0.54998 0.08712 0.99051 0.0
C1782 C 0.54778 0.09535 0.87129 0.0
C1783 C 0.55626 0.08803 0.92519 0.0
C1784 C 0.56423 0.08316 0.93783 0.0
C1785 C 0.54113 0.09705 0.90349 0.0
C1786 C 0.54161 0.09363 0.94661 0.0
C1787 C 0.54959 0.0897 0.95735 0.0
C1788 C 0.5324 0.09178 0.97884 0.0
C1789 C 0.5331 0.10185 0.89078 0.0
C1790 C 0.53545 0.09759 0.01921 0.0
C1791 C 0.52698 0.0939 0.0525 0.0
C1792 C 0.5155 0.08418 0.04592 0.0
C1793 C 0.51233 0.07882 0.00488 0.0
C1794 C 0.52068 0.08265 0.97154 0.0
H1795 H 0.53644 0.10748 0.86124 0.0
H1796 H 0.5241 0.0943 0.88352 0.0
H1797 H 0.53231 0.10715 0.91752 0.0
H1798 H 0.54451 0.10455 0.02556 0.0
H1799 H 0.52964 0.09801 0.08419 0.0
H1800 H 0.5181 0.06083 0.25557 0.0
H1801 H 0.52972 0.06651 0.32236 0.0
H1802 H 0.52516 0.09707 0.33504 0.0
H1803 H 0.51357 0.09155 0.26771 0.0
H1804 H 0.54898 0.1015 0.35398 0.0
H1805 H 0.51372 0.06256 0.44203 0.0
H1806 H 0.51813 0.05869 0.39222 0.0
H1807 H 0.51107 0.06759 0.39085 0.0
C1808 C 0.51956 0.06879 0.27235 0.0
C1809 C 0.51477 0.07566 0.2564 0.0
C1810 C 0.52622 0.07201 0.31056 0.0
C1811 C 0.52816 0.08211 0.33385 0.0
C1812 C 0.52373 0.08922 0.31752 0.0
H1813 H 0.54904 0.08387 0.60083 0.0
H1814 H 0.54054 0.08823 0.53748 0.0
C1815 C 0.51706 0.08601 0.27914 0.0
C1816 C 0.53437 0.08485 0.37616 0.0
H1817 H 0.53276 0.07268 0.47553 0.0
C1818 C 0.54541 0.09531 0.38088 0.0
C1819 C 0.52956 0.07686 0.41138 0.0
C1820 C 0.51741 0.06585 0.40915 0.0
C1821 C 0.55203 0.09771 0.41946 0.0
C1822 C 0.54754 0.08932 0.45369 0.0
C1823 C 0.53626 0.07913 0.44936 0.0
C1824 C 0.55447 0.09035 0.49344 0.0
C1825 C 0.56375 0.10915 0.42306 0.0
C1826 C 0.5655 0.0908 0.4904 0.0
C1827 C 0.57053 0.08862 0.52698 0.0
C1828 C 0.56443 0.0857 0.56669 0.0
C1829 C 0.55391 0.08617 0.57048 0.0
C1830 C 0.54904 0.08861 0.53428 0.0
H1831 H 0.56389 0.11619 0.40209 0.0
H1832 H 0.56561 0.11243 0.45704 0.0
H1833 H 0.571 0.1076 0.41203 0.0
H1834 H 0.56975 0.09186 0.4592 0.0
H1835 H 0.57856 0.0881 0.52327 0.0
H1836 H 0.94013 0.45244 0.27663 0.0
H1837 H 0.93269 0.4587 0.33784 0.0
H1838 H 0.89712 0.42993 0.31297 0.0
H1839 H 0.90455 0.4234 0.25193 0.0
H1840 H 0.91579 0.46586 0.33523 0.0
H1841 H 0.90122 0.42645 0.44273 0.0
H1842 H 0.91072 0.42906 0.39641 0.0
H1843 H 0.89517 0.42385 0.38874 0.0
C1844 C 0.93074 0.44737 0.28427 0.0
C1845 C 0.92295 0.43741 0.25937 0.0
C1846 C 0.92649 0.45098 0.31922 0.0
C1847 C 0.91436 0.44477 0.33001 0.0
C1848 C 0.90654 0.43475 0.30557 0.0
H1849 H 0.90455 0.48634 0.53735 0.0
H1850 H 0.89739 0.47298 0.474 0.0
C1851 C 0.91081 0.43105 0.27068 0.0
C1852 C 0.91014 0.44908 0.36665 0.0
H1853 H 0.90121 0.44305 0.47221 0.0
C1854 C 0.91236 0.46082 0.36499 0.0
C1855 C 0.90553 0.44238 0.40511 0.0
C1856 C 0.90305 0.42975 0.40877 0.0
C1857 C 0.91115 0.46644 0.40193 0.0
C1858 C 0.90736 0.46001 0.44135 0.0
C1859 C 0.90407 0.44792 0.44188 0.0
C1860 C 0.90953 0.46629 0.48344 0.0
C1861 C 0.91497 0.47948 0.39938 0.0
C1862 C 0.91821 0.46644 0.51087 0.0
C1863 C 0.92222 0.47392 0.54672 0.0
C1864 C 0.91765 0.48147 0.55609 0.0
C1865 C 0.90829 0.48069 0.53064 0.0
C1866 C 0.90425 0.47313 0.49439 0.0
H1867 H 0.91883 0.4834 0.36727 0.0
H1868 H 0.90717 0.48064 0.40502 0.0
H1869 H 0.92169 0.48455 0.4248 0.0
H1870 H 0.9224 0.46123 0.50321 0.0
H1871 H 0.92927 0.47413 0.56617 0.0
H1872 H 0.50319 0.43126 0.49651 0.0
H1873 H 0.51791 0.4388 0.43838 0.0
H1874 H 0.54359 0.43746 0.52359 0.0
H1875 H 0.52865 0.4296 0.58201 0.0
H1876 H 0.54995 0.46046 0.4895 0.0
H1877 H 0.53551 0.42707 0.3582 0.0
H1878 H 0.52337 0.42832 0.38012 0.0
H1879 H 0.53109 0.42311 0.41417 0.0
C1880 C 0.51183 0.43212 0.50226 0.0
C1881 C 0.51482 0.42983 0.54344 0.0
C1882 C 0.52021 0.43638 0.46903 0.0
C1883 C 0.5318 0.43858 0.47657 0.0
C1884 C 0.53464 0.43567 0.51704 0.0
H1885 H 0.57687 0.47973 0.25581 0.0
H1886 H 0.57139 0.46641 0.31871 0.0
C1887 C 0.52612 0.43115 0.55022 0.0
C1888 C 0.54116 0.44584 0.44467 0.0
H1889 H 0.54624 0.44786 0.33562 0.0
C1890 C 0.54944 0.45761 0.45609 0.0
C1891 C 0.54053 0.4421 0.40123 0.0
C1892 C 0.53222 0.42941 0.38775 0.0
C1893 C 0.55624 0.46603 0.42433 0.0
C1894 C 0.55468 0.46255 0.38032 0.0
C1895 C 0.54731 0.45053 0.36943 0.0
C1896 C 0.55909 0.47143 0.34499 0.0
C1897 C 0.56451 0.47874 0.43771 0.0
C1898 C 0.55399 0.47865 0.33925 0.0
C1899 C 0.55696 0.48612 0.30325 0.0
C1900 C 0.56515 0.48657 0.27244 0.0
C1901 C 0.57058 0.47964 0.27912 0.0
C1902 C 0.56746 0.47201 0.31492 0.0
H1903 H 0.56724 0.47934 0.47222 0.0
H1904 H 0.57258 0.48291 0.41698 0.0
H1905 H 0.55986 0.4839 0.43389 0.0
H1906 H 0.54739 0.4782 0.36188 0.0
H1907 H 0.55265 0.49137 0.29912 0.0
H1908 H 0.43058 0.24032 0.61133 0.0
H1909 H 0.43762 0.23391 0.67463 0.0
H1910 H 0.40285 0.21903 0.73272 0.0
H1911 H 0.3958 0.22523 0.67027 0.0
H1912 H 0.42519 0.23387 0.78954 0.0
H1913 H 0.42296 0.19596 0.69628 0.0
H1914 H 0.4303 0.21084 0.67428 0.0
H1915 H 0.41441 0.20268 0.6786 0.0
C1916 C 0.42455 0.23588 0.63807 0.0
C1917 C 0.41263 0.23316 0.63583 0.0
C1918 C 0.42856 0.2322 0.67397 0.0
C1919 C 0.4207 0.22596 0.70801 0.0
C1920 C 0.40902 0.22384 0.70668 0.0
H1921 H 0.39406 0.18484 0.92047 0.0
H1922 H 0.40169 0.199 0.86085 0.0
C1923 C 0.405 0.22735 0.67092 0.0
C1924 C 0.42401 0.22072 0.74414 0.0
H1925 H 0.42152 0.19416 0.77243 0.0
C1926 C 0.42483 0.22539 0.78584 0.0
C1927 C 0.42358 0.20969 0.73908 0.0
C1928 C 0.42278 0.20442 0.69473 0.0
C1929 C 0.42415 0.21878 0.82281 0.0
C1930 C 0.42237 0.20718 0.81774 0.0
C1931 C 0.42278 0.20302 0.77612 0.0
C1932 C 0.4181 0.19863 0.85419 0.0
C1933 C 0.42457 0.22397 0.867 0.0
C1934 C 0.42464 0.19343 0.86927 0.0
C1935 C 0.42028 0.18525 0.90356 0.0
C1936 C 0.40922 0.18205 0.92281 0.0
C1937 C 0.40261 0.1871 0.90666 0.0
C1938 C 0.407 0.19529 0.87277 0.0
H1939 H 0.42973 0.23385 0.86621 0.0
H1940 H 0.41538 0.22124 0.87754 0.0
H1941 H 0.4286 0.22074 0.8914 0.0
H1942 H 0.43315 0.1958 0.85485 0.0
H1943 H 0.42558 0.1815 0.91507 0.0
H1944 H 0.76089 0.19183 0.61426 0.0
H1945 H 0.76768 0.20503 0.67822 0.0
H1946 H 0.77541 0.18039 0.74442 0.0
H1947 H 0.76875 0.16735 0.68132 0.0
H1948 H 0.76477 0.19123 0.79791 0.0
H1949 H 0.80449 0.22361 0.70284 0.0
H1950 H 0.78981 0.2189 0.68223 0.0
H1951 H 0.79513 0.20855 0.68409 0.0
C1952 C 0.76373 0.18913 0.64302 0.0
C1953 C 0.76441 0.17865 0.64291 0.0
C1954 C 0.76768 0.19669 0.67929 0.0
C1955 C 0.77218 0.19372 0.71575 0.0
C1956 C 0.77199 0.18284 0.71661 0.0
H1957 H 0.81374 0.20729 0.93087 0.0
H1958 H 0.79927 0.2007 0.87208 0.0
C1959 C 0.76821 0.17542 0.68051 0.0
C1960 C 0.77827 0.20219 0.75166 0.0
H1961 H 0.80585 0.22497 0.77859 0.0
C1962 C 0.77362 0.19884 0.79367 0.0
C1963 C 0.78979 0.21214 0.74599 0.0
C1964 C 0.79519 0.21608 0.70147 0.0
C1965 C 0.78054 0.20459 0.83029 0.0
C1966 C 0.79245 0.21376 0.82466 0.0
C1967 C 0.79673 0.21785 0.78271 0.0
C1968 C 0.80102 0.21797 0.86116 0.0
C1969 C 0.77524 0.20039 0.87477 0.0
C1970 C 0.80705 0.22996 0.87373 0.0
C1971 C 0.8154 0.2338 0.90747 0.0
C1972 C 0.81796 0.22572 0.92873 0.0
C1973 C 0.812 0.21376 0.9154 0.0
C1974 C 0.80363 0.20994 0.88201 0.0
H1975 H 0.76541 0.1963 0.87407 0.0
H1976 H 0.77733 0.19352 0.88618 0.0
H1977 H 0.77897 0.20783 0.89848 0.0
H1978 H 0.80526 0.23632 0.85759 0.0
H1979 H 0.81986 0.24309 0.91676 0.0
H1980 H 0.75505 0.57458 0.91226 0.0
H1981 H 0.76117 0.56625 0.8527 0.0
H1982 H 0.79733 0.59488 0.86643 0.0
H1983 H 0.79139 0.60329 0.92537 0.0
H1984 H 0.77361 0.57853 0.77267 0.0
H1985 H 0.79934 0.56367 0.87143 0.0
H1986 H 0.78791 0.56617 0.89411 0.0
H1987 H 0.80263 0.57849 0.88466 0.0
C1988 C 0.7643 0.57911 0.90256 0.0
C1989 C 0.77274 0.5896 0.92376 0.0
C1990 C 0.76777 0.57431 0.86865 0.0
C1991 C 0.77973 0.57982 0.85596 0.0
C1992 C 0.7881 0.59036 0.87647 0.0
H1993 H 0.83174 0.5978 0.68685 0.0
H1994 H 0.81792 0.59063 0.74767 0.0
C1995 C 0.78465 0.59521 0.90995 0.0
C1996 C 0.78367 0.57506 0.82 0.0
H1997 H 0.80538 0.56848 0.7962 0.0
C1998 C 0.78026 0.57592 0.7776 0.0
C1999 C 0.79222 0.57152 0.82678 0.0
C2000 C 0.79566 0.56978 0.87177 0.0
C2001 C 0.78618 0.57464 0.74166 0.0
C2002 C 0.79562 0.57233 0.74865 0.0
C2003 C 0.79816 0.57027 0.79095 0.0
C2004 C 0.80458 0.57488 0.71449 0.0
C2005 C 0.7831 0.57691 0.69678 0.0
C2006 C 0.80188 0.56808 0.67634 0.0
C2007 C 0.80989 0.57214 0.64143 0.0
C2008 C 0.82056 0.58308 0.64442 0.0
C2009 C 0.82355 0.58936 0.68375 0.0
C2010 C 0.81567 0.58526 0.71851 0.0
H2011 H 0.77587 0.57914 0.69723 0.0
H2012 H 0.79107 0.58435 0.68124 0.0
H2013 H 0.78017 0.56888 0.67637 0.0
H2014 H 0.79339 0.55998 0.67284 0.0
H2015 H 0.80738 0.56719 0.61126 0.0
H2016 H 0.4195 0.90349 0.45209 0.0
H2017 H 0.42549 0.89692 0.51748 0.0
H2018 H 0.46233 0.92172 0.48888 0.0
H2019 H 0.45653 0.92798 0.42373 0.0
H2020 H 0.45952 0.90121 0.52343 0.0
H2021 H 0.4357 0.91886 0.62208 0.0
H2022 H 0.42701 0.90684 0.58532 0.0
H2023 H 0.4376 0.92122 0.56433 0.0
C2024 C 0.42887 0.90731 0.45934 0.0
C2025 C 0.43753 0.91644 0.4333 0.0
C2026 C 0.43228 0.90362 0.49683 0.0
C2027 C 0.44435 0.90904 0.50859 0.0
C2028 C 0.45297 0.91745 0.48067 0.0
H2029 H 0.48664 0.93975 0.72272 0.0
H2030 H 0.47323 0.93243 0.66063 0.0
C2031 C 0.44961 0.9211 0.4435 0.0
C2032 C 0.44828 0.90722 0.55167 0.0
H2033 H 0.44966 0.9156 0.65747 0.0
C2034 C 0.45718 0.90407 0.55307 0.0
C2035 C 0.44522 0.911 0.5902 0.0
C2036 C 0.43592 0.91474 0.59072 0.0
C2037 C 0.46382 0.9056 0.59094 0.0
C2038 C 0.46124 0.9101 0.6287 0.0
C2039 C 0.45166 0.91224 0.62831 0.0
C2040 C 0.46928 0.9142 0.66685 0.0
C2041 C 0.47411 0.90329 0.58918 0.0
C2042 C 0.47155 0.90638 0.69103 0.0
C2043 C 0.47937 0.91059 0.72636 0.0
C2044 C 0.48492 0.92266 0.7385 0.0
C2045 C 0.48252 0.93041 0.71439 0.0
C2046 C 0.47482 0.92623 0.67893 0.0
H2047 H 0.47618 0.90188 0.55546 0.0
H2048 H 0.48222 0.91084 0.60357 0.0
H2049 H 0.47187 0.89519 0.60823 0.0
H2050 H 0.46721 0.89702 0.68281 0.0
H2051 H 0.48093 0.90436 0.74453 0.0
H2052 H 0.09178 0.5782 0.73325 0.0
H2053 H 0.09692 0.57172 0.66605 0.0
H2054 H 0.06663 0.5366 0.68267 0.0
H2055 H 0.06131 0.54295 0.74934 0.0
H2056 H 0.10157 0.55251 0.64906 0.0
H2057 H 0.06185 0.54728 0.56187 0.0
H2058 H 0.06699 0.55539 0.61224 0.0
H2059 H 0.05838 0.5394 0.61249 0.0
C2060 C 0.0862 0.56909 0.72268 0.0
C2061 C 0.07605 0.56113 0.74656 0.0
C2062 C 0.0892 0.5654 0.68436 0.0
C2063 C 0.08207 0.55373 0.66922 0.0
C2064 C 0.07214 0.5457 0.69352 0.0
H2065 H 0.08811 0.50875 0.48152 0.0
H2066 H 0.09177 0.52136 0.54547 0.0
C2067 C 0.06912 0.54936 0.73168 0.0
C2068 C 0.08468 0.54996 0.62726 0.0
H2069 H 0.07223 0.53858 0.52888 0.0
C2070 C 0.09525 0.54958 0.62248 0.0
C2071 C 0.07652 0.54636 0.59246 0.0
C2072 C 0.06535 0.54723 0.59473 0.0
C2073 C 0.09761 0.5452 0.58425 0.0
C2074 C 0.08911 0.54097 0.55041 0.0
C2075 C 0.07877 0.54179 0.55479 0.0
C2076 C 0.09022 0.53506 0.51086 0.0
C2077 C 0.10916 0.54514 0.58051 0.0
C2078 C 0.08853 0.53872 0.46991 0.0
C2079 C 0.08621 0.53142 0.43376 0.0
C2080 C 0.08578 0.52045 0.43776 0.0
C2081 C 0.08863 0.51729 0.47764 0.0
C2082 C 0.09074 0.52451 0.51415 0.0
H2083 H 0.11615 0.55205 0.60157 0.0
H2084 H 0.10774 0.53636 0.59121 0.0
H2085 H 0.11243 0.54665 0.54651 0.0
H2086 H 0.08809 0.5468 0.46655 0.0
H2087 H 0.08393 0.53395 0.4033 0.0
H2088 H 0.45784 0.52192 0.74702 0.0
H2089 H 0.46429 0.53593 0.68692 0.0
H2090 H 0.42865 0.52983 0.67199 0.0
H2091 H 0.42199 0.51564 0.73249 0.0
H2092 H 0.4394 0.52871 0.59386 0.0
H2093 H 0.4693 0.56974 0.68394 0.0
H2094 H 0.47212 0.55792 0.69734 0.0
H2095 H 0.45792 0.55647 0.71039 0.0
C2096 C 0.45133 0.52355 0.73124 0.0
C2097 C 0.43938 0.51765 0.7448 0.0
C2098 C 0.45508 0.53166 0.69708 0.0
C2099 C 0.44701 0.53413 0.67571 0.0
C2100 C 0.43504 0.52817 0.68854 0.0
H2101 H 0.47452 0.5735 0.42739 0.0
H2102 H 0.46127 0.56732 0.49125 0.0
C2103 C 0.43126 0.52005 0.72303 0.0
C2104 C 0.45116 0.54236 0.63821 0.0
H2105 H 0.47432 0.56931 0.60784 0.0
C2106 C 0.44676 0.53775 0.59684 0.0
C2107 C 0.46066 0.55419 0.64227 0.0
C2108 C 0.46519 0.55991 0.68598 0.0
C2109 C 0.45247 0.54421 0.55926 0.0
C2110 C 0.46277 0.55554 0.56348 0.0
C2111 C 0.46644 0.5606 0.60477 0.0
C2112 C 0.47122 0.56083 0.52707 0.0
C2113 C 0.44818 0.53848 0.51541 0.0
C2114 C 0.48128 0.55951 0.52689 0.0
C2115 C 0.4887 0.56289 0.49081 0.0
C2116 C 0.48628 0.56779 0.45426 0.0
C2117 C 0.47658 0.56979 0.45529 0.0
C2118 C 0.46901 0.56623 0.49151 0.0
H2119 H 0.43991 0.52969 0.51766 0.0
H2120 H 0.44645 0.54438 0.49428 0.0
H2121 H 0.45518 0.53726 0.49957 0.0
H2122 H 0.48312 0.55537 0.55405 0.0
H2123 H 0.49616 0.56134 0.49102 0.0
H2124 H 0.57709 0.82068 0.07952 0.0
H2125 H 0.57043 0.8087 0.14584 0.0
H2126 H 0.60447 0.81063 0.15661 0.0
H2127 H 0.61126 0.82264 0.09083 0.0
H2128 H 0.56913 0.7864 0.16283 0.0
H2129 H 0.5995 0.82165 0.27629 0.0
H2130 H 0.5964 0.82487 0.2224 0.0
H2131 H 0.60711 0.82009 0.23034 0.0
C2132 C 0.58321 0.81864 0.09614 0.0
C2133 C 0.59475 0.82268 0.07987 0.0
C2134 C 0.57936 0.81176 0.13393 0.0
C2135 C 0.58701 0.80891 0.15628 0.0
C2136 C 0.5985 0.81291 0.14016 0.0
H2137 H 0.58398 0.75709 0.32504 0.0
H2138 H 0.58005 0.76668 0.26397 0.0
C2139 C 0.60235 0.81974 0.10243 0.0
C2140 C 0.58305 0.80159 0.19614 0.0
H2141 H 0.59117 0.80156 0.30115 0.0
C2142 C 0.57379 0.78973 0.19338 0.0
C2143 C 0.58896 0.80604 0.23609 0.0
C2144 C 0.59846 0.8189 0.24169 0.0
C2145 C 0.57081 0.78198 0.22897 0.0
C2146 C 0.57739 0.7862 0.26789 0.0
C2147 C 0.58614 0.79827 0.27129 0.0
C2148 C 0.57639 0.7782 0.30405 0.0
C2149 C 0.56079 0.76933 0.22429 0.0
C2150 C 0.57529 0.78121 0.34693 0.0
C2151 C 0.57769 0.77583 0.38168 0.0
C2152 C 0.58104 0.76726 0.37404 0.0
C2153 C 0.58112 0.76348 0.33151 0.0
C2154 C 0.57885 0.76896 0.29666 0.0
H2155 H 0.55408 0.76872 0.20047 0.0
H2156 H 0.56441 0.76374 0.21208 0.0
H2157 H 0.5563 0.76565 0.25581 0.0
H2158 H 0.57348 0.78835 0.3534 0.0
H2159 H 0.57782 0.779 0.41432 0.0
H2160 H 0.23534 0.8047 0.39904 0.0
H2161 H 0.22683 0.79046 0.33854 0.0
H2162 H 0.22803 0.81814 0.2575 0.0
H2163 H 0.23623 0.83218 0.31774 0.0
H2164 H 0.20442 0.78618 0.30386 0.0
H2165 H 0.23834 0.79974 0.17467 0.0
H2166 H 0.24215 0.80341 0.23123 0.0
H2167 H 0.23789 0.81214 0.19843 0.0
C2168 C 0.23421 0.80779 0.36771 0.0
C2169 C 0.23647 0.81949 0.36266 0.0
C2170 C 0.22932 0.79967 0.33335 0.0
C2171 C 0.22692 0.80329 0.29346 0.0
C2172 C 0.23002 0.81522 0.28768 0.0
H2173 H 0.17469 0.78439 0.10959 0.0
H2174 H 0.18786 0.78994 0.17252 0.0
C2175 C 0.23467 0.82323 0.32209 0.0
C2176 C 0.21938 0.7945 0.26029 0.0
H2177 H 0.21774 0.78991 0.1509 0.0
C2178 C 0.20739 0.78671 0.27062 0.0
C2179 C 0.22328 0.79517 0.21705 0.0
C2180 C 0.23616 0.80299 0.2047 0.0
C2181 C 0.19902 0.78037 0.23811 0.0
C2182 C 0.20275 0.78191 0.19439 0.0
C2183 C 0.21489 0.78886 0.1845 0.0
C2184 C 0.19408 0.77764 0.15833 0.0
C2185 C 0.18613 0.77257 0.25041 0.0
C2186 C 0.19322 0.76887 0.12967 0.0
C2187 C 0.18561 0.76559 0.09379 0.0
C2188 C 0.17893 0.77123 0.0856 0.0
C2189 C 0.17972 0.7799 0.11486 0.0
C2190 C 0.1872 0.78305 0.15094 0.0
H2191 H 0.18515 0.7699 0.28509 0.0
H2192 H 0.18134 0.77755 0.24516 0.0
H2193 H 0.18184 0.76444 0.22993 0.0
H2194 H 0.19854 0.76467 0.13477 0.0
H2195 H 0.18525 0.75892 0.07175 0.0
H2196 H 0.20861 0.39454 0.07715 0.0
H2197 H 0.20249 0.40216 0.13797 0.0
H2198 H 0.23677 0.43422 0.13851 0.0
H2199 H 0.24311 0.42656 0.07761 0.0
H2200 H 0.23021 0.42516 0.21879 0.0
H2201 H 0.19282 0.42724 0.14377 0.0
H2202 H 0.19119 0.41288 0.13429 0.0
H2203 H 0.20381 0.42594 0.11195 0.0
C2204 C 0.21486 0.40325 0.08984 0.0
C2205 C 0.22636 0.40993 0.0723 0.0
C2206 C 0.21129 0.40767 0.1244 0.0
C2207 C 0.21905 0.4189 0.14205 0.0
C2208 C 0.23057 0.4256 0.12493 0.0
H2209 H 0.1803 0.42798 0.3601 0.0
H2210 H 0.19388 0.43533 0.29738 0.0
C2211 C 0.23418 0.42118 0.09023 0.0
C2212 C 0.21531 0.423 0.18076 0.0
H2213 H 0.19107 0.42325 0.22216 0.0
C2214 C 0.22182 0.4251 0.2193 0.0
C2215 C 0.20458 0.42334 0.18139 0.0
C2216 C 0.19779 0.42237 0.14043 0.0
C2217 C 0.21719 0.42613 0.25914 0.0
C2218 C 0.20566 0.42475 0.26044 0.0
C2219 C 0.19981 0.42407 0.22136 0.0
C2220 C 0.19868 0.4216 0.30121 0.0
C2221 C 0.22441 0.42803 0.29975 0.0
C2222 C 0.19686 0.41147 0.32389 0.0
C2223 C 0.18917 0.40728 0.35913 0.0
C2224 C 0.18295 0.41302 0.37253 0.0
C2225 C 0.18498 0.42338 0.35061 0.0
C2226 C 0.19272 0.42758 0.31487 0.0
H2227 H 0.23407 0.43365 0.29287 0.0
H2228 H 0.22193 0.43229 0.3258 0.0
H2229 H 0.2229 0.41931 0.31168 0.0
H2230 H 0.20104 0.40648 0.31329 0.0
H2231 H 0.18792 0.39932 0.37529 0.0
H2232 H 0.23912 0.43105 0.8866 0.0
H2233 H 0.23249 0.43762 0.82259 0.0
H2234 H 0.22126 0.40377 0.76113 0.0
H2235 H 0.22773 0.39723 0.82421 0.0
H2236 H 0.23342 0.42497 0.7049 0.0
H2237 H 0.1954 0.42166 0.80092 0.0
H2238 H 0.21042 0.43068 0.82041 0.0
H2239 H 0.2037 0.41479 0.82004 0.0
C2240 C 0.23548 0.42517 0.85891 0.0
C2241 C 0.2338 0.4136 0.86038 0.0
C2242 C 0.23166 0.42889 0.82261 0.0
C2243 C 0.22629 0.42111 0.78745 0.0
C2244 C 0.22537 0.40989 0.78795 0.0
H2245 H 0.1833 0.39234 0.57848 0.0
H2246 H 0.19787 0.40032 0.63689 0.0
C2247 C 0.22903 0.40615 0.82408 0.0
C2248 C 0.22051 0.42382 0.75141 0.0
H2249 H 0.19344 0.42045 0.72517 0.0
C2250 C 0.22485 0.42439 0.70929 0.0
C2251 C 0.20936 0.4231 0.7573 0.0
C2252 C 0.20435 0.42251 0.80201 0.0
C2253 C 0.21787 0.4232 0.67287 0.0
C2254 C 0.20622 0.42122 0.67892 0.0
C2255 C 0.20234 0.42185 0.72079 0.0
C2256 C 0.19742 0.41669 0.64326 0.0
C2257 C 0.22273 0.42338 0.62828 0.0
C2258 C 0.19205 0.4231 0.62847 0.0
C2259 C 0.18365 0.41854 0.59492 0.0
C2260 C 0.18038 0.40742 0.57612 0.0
C2261 C 0.18559 0.40093 0.592 0.0
C2262 C 0.19401 0.40552 0.62518 0.0
H2263 H 0.23261 0.42861 0.62802 0.0
H2264 H 0.22 0.41414 0.61841 0.0
H2265 H 0.21925 0.42718 0.60395 0.0
H2266 H 0.19446 0.43167 0.6425 0.0
H2267 H 0.17978 0.42376 0.58361 0.0
H2268 H 0.57261 0.82006 0.85581 0.0
H2269 H 0.56501 0.80647 0.7933 0.0
H2270 H 0.58836 0.79293 0.82616 0.0
H2271 H 0.59569 0.80612 0.8882 0.0
H2272 H 0.57865 0.80823 0.72672 0.0
H2273 H 0.55974 0.76276 0.78929 0.0
H2274 H 0.56193 0.77498 0.82365 0.0
H2275 H 0.57382 0.77179 0.8151 0.0
C2276 C 0.5758 0.8139 0.85032 0.0
C2277 C 0.58484 0.81425 0.87653 0.0
C2278 C 0.57147 0.80615 0.81466 0.0
C2279 C 0.57598 0.79854 0.80532 0.0
C2280 C 0.58447 0.79844 0.83317 0.0
H2281 H 0.6065 0.78779 0.59024 0.0
H2282 H 0.59901 0.79393 0.65152 0.0
C2283 C 0.58881 0.80615 0.86839 0.0
C2284 C 0.57361 0.79222 0.7632 0.0
H2285 H 0.57102 0.7668 0.72021 0.0
C2286 C 0.57659 0.79904 0.72512 0.0
C2287 C 0.57066 0.78016 0.76062 0.0
C2288 C 0.56622 0.772 0.79943 0.0
C2289 C 0.57801 0.79454 0.68561 0.0
C2290 C 0.5767 0.78305 0.6845 0.0
C2291 C 0.57239 0.77575 0.72134 0.0
C2292 C 0.58103 0.77904 0.64728 0.0
C2293 C 0.58144 0.80236 0.64589 0.0
C2294 C 0.57356 0.76832 0.62575 0.0
C2295 C 0.57788 0.76466 0.59085 0.0
C2296 C 0.58976 0.77167 0.57704 0.0
C2297 C 0.59728 0.78223 0.59958 0.0
C2298 C 0.59297 0.78583 0.63444 0.0
H2299 H 0.57782 0.80852 0.64755 0.0
H2300 H 0.59127 0.80787 0.64417 0.0
H2301 H 0.57817 0.79701 0.6157 0.0
H2302 H 0.56436 0.76286 0.63557 0.0
H2303 H 0.57185 0.75646 0.57428 0.0
H2304 H 0.19287 0.7901 0.8869 0.0
H2305 H 0.20501 0.79587 0.82195 0.0
H2306 H 0.19363 0.75907 0.79527 0.0
H2307 H 0.18101 0.75311 0.8605 0.0
H2308 H 0.22306 0.79322 0.78938 0.0
H2309 H 0.18204 0.76884 0.68879 0.0
H2310 H 0.18133 0.7709 0.74632 0.0
H2311 H 0.18531 0.76033 0.72662 0.0
C2312 C 0.19299 0.78319 0.86758 0.0
C2313 C 0.18575 0.77112 0.87833 0.0
C2314 C 0.20003 0.78653 0.83053 0.0
C2315 C 0.20006 0.77791 0.80325 0.0
C2316 C 0.19355 0.76586 0.81545 0.0
H2317 H 0.2424 0.81397 0.56884 0.0
H2318 H 0.23563 0.80035 0.63084 0.0
C2319 C 0.18642 0.76247 0.85284 0.0
C2320 C 0.20596 0.78179 0.76041 0.0
H2321 H 0.19937 0.78277 0.6538 0.0
C2322 C 0.21798 0.79075 0.75944 0.0
C2323 C 0.19927 0.77857 0.72149 0.0
C2324 C 0.18626 0.76919 0.72053 0.0
C2325 C 0.22322 0.79728 0.72148 0.0
C2326 C 0.2163 0.79452 0.68321 0.0
C2327 C 0.2046 0.78489 0.68331 0.0
C2328 C 0.2204 0.8024 0.64463 0.0
C2329 C 0.23578 0.80764 0.72361 0.0
C2330 C 0.21395 0.80786 0.63115 0.0
C2331 C 0.21768 0.81551 0.59551 0.0
C2332 C 0.22802 0.81792 0.57262 0.0
C2333 C 0.23446 0.8124 0.58604 0.0
C2334 C 0.23063 0.80463 0.62155 0.0
H2335 H 0.23908 0.80987 0.75751 0.0
H2336 H 0.24178 0.80537 0.70561 0.0
H2337 H 0.23635 0.81566 0.70833 0.0
H2338 H 0.20604 0.80629 0.64857 0.0
H2339 H 0.21251 0.8196 0.58618 0.0
H2340 H 0.07732 0.57342 0.00407 0.0
H2341 H 0.08298 0.5646 0.06273 0.0
H2342 H 0.10284 0.55595 0.97199 0.0
H2343 H 0.09724 0.56499 0.91307 0.0
H2344 H 0.08428 0.53634 0.01361 0.0
H2345 H 0.11199 0.57041 0.13476 0.0
H2346 H 0.09967 0.57199 0.11723 0.0
H2347 H 0.11099 0.57403 0.07882 0.0
C2348 C 0.08337 0.57016 0.99716 0.0
C2349 C 0.087 0.56999 0.95447 0.0
C2350 C 0.08662 0.56513 0.03063 0.0
C2351 C 0.09343 0.55971 0.02181 0.0
C2352 C 0.09771 0.56023 0.97953 0.0
H2353 H 0.09488 0.5171 0.24228 0.0
H2354 H 0.10213 0.52979 0.17776 0.0
C2355 C 0.09459 0.56544 0.94603 0.0
C2356 C 0.09394 0.55168 0.05475 0.0
H2357 H 0.09914 0.55039 0.16258 0.0
C2358 C 0.08783 0.53943 0.04587 0.0
C2359 C 0.09862 0.5557 0.09671 0.0
C2360 C 0.1058 0.56877 0.10735 0.0
C2361 C 0.08543 0.53107 0.0788 0.0
C2362 C 0.08916 0.53509 0.12161 0.0
C2363 C 0.09615 0.54734 0.12977 0.0
C2364 C 0.08481 0.52682 0.1589 0.0
C2365 C 0.07843 0.518 0.06798 0.0
C2366 C 0.07268 0.52097 0.16952 0.0
C2367 C 0.06851 0.5138 0.20642 0.0
C2368 C 0.07641 0.51232 0.2334 0.0
C2369 C 0.08854 0.518 0.22212 0.0
C2370 C 0.09272 0.52528 0.18535 0.0
H2371 H 0.07917 0.51638 0.033 0.0
H2372 H 0.08152 0.51288 0.08758 0.0
H2373 H 0.0689 0.51457 0.07543 0.0
H2374 H 0.06646 0.52219 0.14978 0.0
H2375 H 0.05912 0.50956 0.21407 0.0
H2376 H 0.4268 0.52697 0.92655 0.0
H2377 H 0.43331 0.5403 0.9902 0.0
H2378 H 0.44164 0.51626 0.05772 0.0
H2379 H 0.43532 0.50313 0.99488 0.0
H2380 H 0.43002 0.52702 0.10958 0.0
H2381 H 0.47039 0.55917 0.01692 0.0
H2382 H 0.45578 0.55407 0.99462 0.0
H2383 H 0.46141 0.54399 -0.00123 0.0
C2384 C 0.42973 0.52444 0.95551 0.0
C2385 C 0.43067 0.51411 0.95589 0.0
C2386 C 0.4335 0.53206 0.9916 0.0
C2387 C 0.43804 0.52928 0.02837 0.0
C2388 C 0.43816 0.51856 0.02964 0.0
H2389 H 0.47777 0.54159 0.24579 0.0
H2390 H 0.46354 0.53553 0.18642 0.0
C2391 C 0.43458 0.51108 0.99371 0.0
C2392 C 0.44389 0.53781 0.06426 0.0
H2393 H 0.47147 0.56025 0.09285 0.0
C2394 C 0.43894 0.53455 0.10589 0.0
C2395 C 0.4555 0.54765 0.05926 0.0
C2396 C 0.46117 0.5515 0.0151 0.0
C2397 C 0.44569 0.54022 0.14293 0.0
C2398 C 0.45771 0.5492 0.13807 0.0
C2399 C 0.46228 0.55326 0.09639 0.0
C2400 C 0.4661 0.55311 0.1751 0.0
C2401 C 0.44008 0.5361 0.18704 0.0
C2402 C 0.47252 0.56509 0.18762 0.0
C2403 C 0.48075 0.56863 0.22168 0.0
C2404 C 0.4828 0.56025 0.2433 0.0
C2405 C 0.47644 0.54829 0.23004 0.0
C2406 C 0.46819 0.54477 0.19633 0.0
H2407 H 0.4303 0.53237 0.18554 0.0
H2408 H 0.44174 0.52897 0.19874 0.0
H2409 H 0.44392 0.5435 0.21093 0.0
H2410 H 0.47114 0.57168 0.17116 0.0
H2411 H 0.48553 0.57792 0.23092 0.0
H2412 H 0.47297 0.90042 0.9169 0.0
H2413 H 0.45836 0.89365 0.97659 0.0
H2414 H 0.48197 0.92502 0.04999 0.0
H2415 H 0.49636 0.93181 0.99086 0.0
H2416 H 0.46862 0.90187 0.09916 0.0
H2417 H 0.44134 0.91432 0.99501 0.0
H2418 H 0.44612 0.90436 0.97466 0.0
H2419 H 0.45682 0.91976 0.98284 0.0
C2420 C 0.47513 0.90564 0.94639 0.0
C2421 C 0.48571 0.91666 0.94939 0.0
C2422 C 0.46679 0.90181 0.98024 0.0
C2423 C 0.46909 0.9089 0.01742 0.0
C2424 C 0.48005 0.91942 0.02157 0.0
H2425 H 0.45096 0.93999 0.20426 0.0
H2426 H 0.45633 0.93195 0.14225 0.0
C2427 C 0.48824 0.92331 0.98777 0.0
C2428 C 0.45982 0.90647 0.05009 0.0
H2429 H 0.4383 0.91363 0.07027 0.0
C2430 C 0.46165 0.90397 0.09274 0.0
C2431 C 0.45084 0.90934 0.04147 0.0
C2432 C 0.44858 0.91212 0.9961 0.0
C2433 C 0.45536 0.90519 0.1275 0.0
C2434 C 0.44715 0.90908 0.11918 0.0
C2435 C 0.44461 0.91063 0.07629 0.0
C2436 C 0.4429 0.91367 0.15457 0.0
C2437 C 0.45823 0.90333 0.17325 0.0
C2438 C 0.43341 0.90603 0.18137 0.0
C2439 C 0.43026 0.91061 0.21688 0.0
C2440 C 0.43665 0.92288 0.2262 0.0
C2441 C 0.44591 0.9305 0.19826 0.0
C2442 C 0.44897 0.92593 0.16274 0.0
H2443 H 0.46438 0.89971 0.17415 0.0
H2444 H 0.46241 0.91194 0.19095 0.0
H2445 H 0.44992 0.89712 0.19066 0.0
H2446 H 0.42865 0.89653 0.17539 0.0
H2447 H 0.42309 0.90449 0.23779 0.0
H2448 H 0.22672 0.37212 0.98518 0.0
H2449 H 0.22016 0.35221 0.01226 0.0
H2450 H 0.25288 0.36538 0.08432 0.0
H2451 H 0.25934 0.38563 0.05839 0.0
H2452 H 0.22956 0.33827 0.00056 0.0
H2453 H 0.22867 0.34707 0.17683 0.0
H2454 H 0.23048 0.35777 0.13591 0.0
H2455 H 0.24279 0.3558 0.15056 0.0
C2456 C 0.23251 0.37085 0.00711 0.0
C2457 C 0.24352 0.38046 0.0199 0.0
C2458 C 0.22876 0.35942 0.02241 0.0
C2459 C 0.23598 0.35727 0.05054 0.0
C2460 C 0.24705 0.36685 0.06331 0.0
H2461 H 0.20829 0.28043 0.10147 0.0
H2462 H 0.22208 0.30091 0.07776 0.0
C2463 C 0.25075 0.37839 0.04841 0.0
C2464 C 0.23167 0.34493 0.06587 0.0
H2465 H 0.22229 0.32739 0.15619 0.0
C2466 C 0.22807 0.33588 0.03464 0.0
C2467 C 0.22975 0.34185 0.11034 0.0
C2468 C 0.23302 0.35109 0.14542 0.0
C2469 C 0.22197 0.32381 0.04637 0.0
C2470 C 0.21975 0.32072 0.09077 0.0
C2471 C 0.224 0.32979 0.12216 0.0
C2472 C 0.21179 0.30828 0.10522 0.0
C2473 C 0.21731 0.31453 0.01096 0.0
C2474 C 0.20158 0.30565 0.1292 0.0
C2475 C 0.19388 0.2941 0.14329 0.0
C2476 C 0.19611 0.28483 0.13339 0.0
C2477 C 0.20629 0.28739 0.10914 0.0
C2478 C 0.21414 0.29906 0.09549 0.0
H2479 H 0.21761 0.31845 0.9786 0.0
H2480 H 0.22285 0.31025 0.00941 0.0
H2481 H 0.20799 0.30753 0.01768 0.0
H2482 H 0.19953 0.31258 0.13696 0.0
H2483 H 0.18614 0.29246 0.16195 0.0
H2484 H 0.70639 0.89966 0.1947 0.0
H2485 H 0.68672 0.89192 0.16268 0.0
H2486 H 0.70204 0.9162 0.05522 0.0
H2487 H 0.72193 0.92418 0.08758 0.0
H2488 H 0.67971 0.91344 0.08941 0.0
H2489 H 0.67741 0.87044 0.05365 0.0
H2490 H 0.68087 0.87508 0.1092 0.0
H2491 H 0.69116 0.88375 0.06708 0.0
C2492 C 0.70561 0.90343 0.16438 0.0
C2493 C 0.71572 0.91244 0.14335 0.0
C2494 C 0.69435 0.89898 0.14615 0.0
C2495 C 0.69297 0.90335 0.10631 0.0
C2496 C 0.70296 0.91269 0.08596 0.0
H2497 H 0.63056 0.86252 0.94775 0.0
H2498 H 0.65081 0.87502 0.97416 0.0
C2499 C 0.71429 0.91722 0.10439 0.0
C2500 C 0.68114 0.89765 0.08527 0.0
H2501 H 0.65944 0.87091 0.04659 0.0
C2502 C 0.67528 0.90417 0.07965 0.0
C2503 C 0.67547 0.8856 0.07219 0.0
C2504 C 0.68158 0.87832 0.07541 0.0
C2505 C 0.66372 0.89883 0.06224 0.0
C2506 C 0.65787 0.88664 0.05086 0.0
C2507 C 0.66388 0.88023 0.05565 0.0
C2508 C 0.6456 0.88025 0.03318 0.0
C2509 C 0.65793 0.90631 0.05577 0.0
C2510 C 0.63591 0.87913 0.05735 0.0
C2511 C 0.62425 0.87202 0.04206 0.0
C2512 C 0.62215 0.8658 0.00275 0.0
C2513 C 0.63189 0.86715 0.9783 0.0
C2514 C 0.64348 0.87431 0.99331 0.0
H2515 H 0.66462 0.91595 0.05471 0.0
H2516 H 0.65266 0.90384 0.0253 0.0
H2517 H 0.65183 0.90481 0.08328 0.0
H2518 H 0.63731 0.88341 0.08866 0.0
H2519 H 0.6169 0.87108 0.06165 0.0
H2520 H 0.13082 0.74644 0.07022 0.0
H2521 H 0.11851 0.7546 0.09719 0.0
H2522 H 0.12534 0.77492 0.97928 0.0
H2523 H 0.13777 0.76712 0.95294 0.0
H2524 H 0.13035 0.7886 0.05002 0.0
H2525 H 0.08544 0.74879 0.06628 0.0
H2526 H 0.09703 0.74765 0.09386 0.0
H2527 H 0.09723 0.74864 0.03567 0.0
C2528 C 0.12952 0.75251 0.04992 0.0
C2529 C 0.13531 0.75622 0.00967 0.0
C2530 C 0.12244 0.75711 0.06519 0.0
C2531 C 0.12093 0.7653 0.04006 0.0
C2532 C 0.12637 0.76862 -0.00078 0.0
H2533 H 0.07687 0.79788 0.08596 0.0
H2534 H 0.08495 0.78569 0.057 0.0
C2535 C 0.1335 0.76417 0.98426 0.0
C2536 C 0.11468 0.77137 0.05739 0.0
H2537 H 0.08807 0.76692 0.09604 0.0
C2538 C 0.12109 0.78384 0.05989 0.0
C2539 C 0.10256 0.76517 0.06982 0.0
C2540 C 0.09511 0.75183 0.06596 0.0
C2541 C 0.11578 0.79028 0.07482 0.0
C2542 C 0.1038 0.78408 0.08867 0.0
C2543 C 0.09729 0.77162 0.08564 0.0
C2544 C 0.09813 0.7905 0.10767 0.0
C2545 C 0.12305 0.8037 0.07528 0.0
C2546 C 0.10268 0.79697 0.14612 0.0
C2547 C 0.09819 0.80395 0.16237 0.0
C2548 C 0.08894 0.80451 0.14076 0.0
C2549 C 0.08403 0.79765 0.10315 0.0
C2550 C 0.0886 0.79067 0.08669 0.0
H2551 H 0.13082 0.80708 0.05308 0.0
H2552 H 0.11756 0.80769 0.06573 0.0
H2553 H 0.12646 0.80676 0.10858 0.0
H2554 H 0.1099 0.7968 0.16315 0.0
H2555 H 0.10208 0.80902 0.19172 0.0
H2556 H 0.2806 0.2082 0.39318 0.0
H2557 H 0.30114 0.22245 0.41484 0.0
H2558 H 0.31322 0.20066 0.35223 0.0
H2559 H 0.29299 0.18679 0.32923 0.0
H2560 H 0.31614 0.22035 0.46508 0.0
H2561 H 0.33653 0.23214 0.30296 0.0
H2562 H 0.32061 0.22406 0.31045 0.0
H2563 H 0.32891 0.21631 0.30905 0.0
C2564 C 0.28768 0.20652 0.38394 0.0
C2565 C 0.28521 0.19644 0.35927 0.0
C2566 C 0.2994 0.21468 0.39616 0.0
C2567 C 0.3088 0.21283 0.38402 0.0
C2568 C 0.30623 0.20256 0.3605 0.0
H2569 H 0.37132 0.22758 0.5127 0.0
H2570 H 0.35155 0.22141 0.48522 0.0
C2571 C 0.29461 0.19454 0.34783 0.0
C2572 C 0.32122 0.22111 0.39806 0.0
H2573 H 0.34994 0.23428 0.36233 0.0
C2574 C 0.32351 0.2236 0.44246 0.0
C2575 C 0.33089 0.22573 0.36858 0.0
C2576 C 0.32908 0.22453 0.32008 0.0
C2577 C 0.33519 0.22971 0.45846 0.0
C2578 C 0.34482 0.23305 0.42947 0.0
C2579 C 0.34257 0.23146 0.38474 0.0
C2580 C 0.35705 0.23703 0.4453 0.0
C2581 C 0.33706 0.23228 0.50645 0.0
C2582 C 0.3669 0.2476 0.43025 0.0
C2583 C 0.37838 0.25106 0.44533 0.0
C2584 C 0.38014 0.24399 0.47565 0.0
C2585 C 0.37028 0.23331 0.48972 0.0
C2586 C 0.35891 0.22982 0.47439 0.0
H2587 H 0.32984 0.2335 0.52041 0.0
H2588 H 0.33683 0.22461 0.52328 0.0
H2589 H 0.34573 0.24038 0.51324 0.0
H2590 H 0.36569 0.25322 0.40726 0.0
H2591 H 0.38582 0.25933 0.4339 0.0
H2592 H 0.7697 0.14109 0.5321 0.0
H2593 H 0.77779 0.12932 0.50147 0.0
H2594 H 0.75344 0.11939 0.39376 0.0
H2595 H 0.74516 0.13123 0.42449 0.0
H2596 H 0.7564 0.10001 0.4354 0.0
H2597 H 0.79874 0.14026 0.38885 0.0
H2598 H 0.79416 0.14015 0.44397 0.0
H2599 H 0.7853 0.14066 0.40015 0.0
C2600 C 0.76601 0.1364 0.50192 0.0
C2601 C 0.75686 0.13718 0.48045 0.0
C2602 C 0.77065 0.12967 0.48452 0.0
C2603 C 0.76628 0.1236 0.44524 0.0
C2604 C 0.75693 0.12405 0.42413 0.0
H2605 H 0.8056 0.09925 0.29211 0.0
H2606 H 0.79333 0.10738 0.31718 0.0
C2607 C 0.75225 0.13083 0.44159 0.0
C2608 C 0.77192 0.11721 0.42587 0.0
H2609 H 0.79839 0.12184 0.38598 0.0
C2610 C 0.76554 0.10474 0.42417 0.0
C2611 C 0.78381 0.12345 0.41111 0.0
C2612 C 0.7909 0.13688 0.41068 0.0
C2613 C 0.77088 0.09831 0.40887 0.0
C2614 C 0.78293 0.10456 0.39555 0.0
C2615 C 0.78918 0.11705 0.3965 0.0
C2616 C 0.78927 0.09848 0.3794 0.0
C2617 C 0.76357 0.08493 0.40669 0.0
C2618 C 0.79098 0.09065 0.40593 0.0
C2619 C 0.79798 0.08589 0.39147 0.0
C2620 C 0.80348 0.08905 0.35057 0.0
C2621 C 0.80155 0.09671 0.32392 0.0
C2622 C 0.79451 0.10135 0.33815 0.0
H2623 H 0.75388 0.08176 0.40711 0.0
H2624 H 0.76569 0.0815 0.37698 0.0
H2625 H 0.76565 0.08109 0.43529 0.0
H2626 H 0.78723 0.08851 0.43827 0.0
H2627 H 0.79937 0.08005 0.41273 0.0
H2628 H 0.91899 0.71993 0.41802 0.0
H2629 H 0.9104 0.69946 0.4454 0.0
H2630 H 0.88861 0.68629 0.33056 0.0
H2631 H 0.89691 0.70652 0.3036 0.0
H2632 H 0.87588 0.67746 0.40499 0.0
H2633 H 0.91592 0.67238 0.40586 0.0
H2634 H 0.91749 0.68508 0.43499 0.0
H2635 H 0.91542 0.68425 0.37719 0.0
C2636 C 0.91242 0.71264 0.39862 0.0
C2637 C 0.9086 0.71483 0.35877 0.0
C2638 C 0.90758 0.70096 0.4141 0.0
C2639 C 0.89897 0.69135 0.38972 0.0
C2640 C 0.89526 0.69356 0.34983 0.0
H2641 H 0.86734 0.61454 0.42596 0.0
H2642 H 0.87863 0.635 0.39782 0.0
C2643 C 0.90002 0.70516 0.33452 0.0
C2644 C 0.89318 0.67898 0.4064 0.0
H2645 H 0.89828 0.65659 0.43671 0.0
C2646 C 0.88079 0.6729 0.41187 0.0
C2647 C 0.89958 0.67301 0.41476 0.0
C2648 C 0.91283 0.67895 0.40758 0.0
C2649 C 0.87462 0.66105 0.42587 0.0
C2650 C 0.88104 0.65518 0.43545 0.0
C2651 C 0.89341 0.66117 0.42949 0.0
C2652 C 0.87499 0.64294 0.45316 0.0
C2653 C 0.86125 0.65487 0.42989 0.0
C2654 C 0.86945 0.64073 0.49378 0.0
C2655 C 0.86301 0.62916 0.50968 0.0
C2656 C 0.86203 0.61953 0.4854 0.0
C2657 C 0.8679 0.62177 0.44524 0.0
C2658 C 0.87436 0.63343 0.42923 0.0
H2659 H 0.85746 0.65948 0.41091 0.0
H2660 H 0.85707 0.6455 0.41865 0.0
H2661 H 0.85883 0.65482 0.46445 0.0
H2662 H 0.86998 0.64797 0.513 0.0
H2663 H 0.8587 0.62776 0.54095 0.0
H2664 H 0.79944 0.72076 0.91903 0.0
H2665 H 0.78805 0.70062 0.94998 0.0
H2666 H 0.79637 0.6863 0.83777 0.0
H2667 H 0.80775 0.70618 0.80707 0.0
H2668 H 0.76824 0.67872 0.9137 0.0
H2669 H 0.80882 0.67566 0.94253 0.0
H2670 H 0.80934 0.68961 0.93248 0.0
H2671 H 0.80754 0.67985 0.88813 0.0
C2672 C 0.79879 0.71329 0.90101 0.0
C2673 C 0.80459 0.71506 0.86089 0.0
C2674 C 0.79227 0.70182 0.91861 0.0
C2675 C 0.79153 0.69203 0.89634 0.0
C2676 C 0.797 0.69377 0.85574 0.0
H2677 H 0.74709 0.6155 0.93044 0.0
H2678 H 0.75563 0.63618 0.90576 0.0
C2679 C 0.8035 0.70515 0.83827 0.0
C2680 C 0.78541 0.67998 0.91565 0.0
H2681 H 0.79031 0.65767 0.94799 0.0
C2682 C 0.77304 0.67412 0.92162 0.0
C2683 C 0.79174 0.67408 0.92624 0.0
C2684 C 0.80511 0.68014 0.92244 0.0
C2685 C 0.76678 0.66234 0.93694 0.0
C2686 C 0.77307 0.65628 0.94584 0.0
C2687 C 0.78548 0.66228 0.94076 0.0
C2688 C 0.76713 0.64381 0.9616 0.0
C2689 C 0.75353 0.65654 0.94391 0.0
C2690 C 0.77087 0.64124 0.00076 0.0
C2691 C 0.76617 0.6295 0.01445 0.0
C2692 C 0.7576 0.62006 0.98935 0.0
C2693 C 0.75366 0.62261 0.95049 0.0
C2694 C 0.75846 0.63442 0.93657 0.0
H2695 H 0.75062 0.66324 0.94665 0.0
H2696 H 0.74885 0.65071 0.91581 0.0
H2697 H 0.75077 0.65097 0.97365 0.0
H2698 H 0.77757 0.64833 0.02053 0.0
H2699 H 0.76935 0.62784 0.04468 0.0
H2700 H 0.37193 0.13902 0.0388 0.0
H2701 H 0.35202 0.12689 0.00916 0.0
H2702 H 0.36677 0.1202 0.89431 0.0
H2703 H 0.3869 0.13224 0.92448 0.0
H2704 H 0.34411 0.13191 0.93534 0.0
H2705 H 0.33934 0.08701 0.92474 0.0
H2706 H 0.35084 0.09888 0.95652 0.0
H2707 H 0.35235 0.09864 0.89863 0.0
C2708 C 0.37096 0.13487 0.00741 0.0
C2709 C 0.38098 0.13661 0.98385 0.0
C2710 C 0.35956 0.12792 0.99056 0.0
C2711 C 0.35789 0.12257 0.94971 0.0
C2712 C 0.36784 0.12407 0.92629 0.0
H2713 H 0.2951 0.10209 0.79457 0.0
H2714 H 0.31534 0.11034 0.82205 0.0
C2715 C 0.37933 0.131 0.94339 0.0
C2716 C 0.34576 0.11625 0.93077 0.0
H2717 H 0.32391 0.08934 0.8931 0.0
C2718 C 0.3397 0.1226 0.92615 0.0
C2719 C 0.33998 0.10407 0.91928 0.0
C2720 C 0.34589 0.09669 0.92534 0.0
C2721 C 0.32804 0.11715 0.91023 0.0
C2722 C 0.32236 0.10506 0.89761 0.0
C2723 C 0.32835 0.09864 0.90253 0.0
C2724 C 0.31023 0.09909 0.87894 0.0
C2725 C 0.32183 0.12434 0.90779 0.0
C2726 C 0.30069 0.08969 0.90099 0.0
C2727 C 0.28906 0.08487 0.88516 0.0
C2728 C 0.28685 0.08942 0.8471 0.0
C2729 C 0.2965 0.09849 0.82428 0.0
C2730 C 0.30807 0.10323 0.83992 0.0
H2731 H 0.32615 0.13234 0.92896 0.0
H2732 H 0.32217 0.1274 0.87392 0.0
H2733 H 0.31234 0.11891 0.91739 0.0
H2734 H 0.30221 0.08635 0.93112 0.0
H2735 H 0.2818 0.07786 0.90332 0.0
H2736 H 0.91638 0.19646 0.9244 0.0
H2737 H 0.90845 0.2091 0.9498 0.0
H2738 H 0.90711 0.2193 0.81754 0.0
H2739 H 0.91432 0.20618 0.7922 0.0
H2740 H 0.9142 0.23218 0.94508 0.0
H2741 H 0.8729 0.20458 0.85095 0.0
H2742 H 0.8842 0.20051 0.85745 0.0
H2743 H 0.88591 0.21137 0.81743 0.0
C2744 C 0.91458 0.20159 0.90104 0.0
C2745 C 0.91583 0.20035 0.85646 0.0
C2746 C 0.91003 0.20877 0.91545 0.0
C2747 C 0.90684 0.21487 0.88541 0.0
C2748 C 0.9091 0.21437 0.84116 0.0
H2749 H 0.86878 0.25441 0.92081 0.0
H2750 H 0.88232 0.24793 0.8919 0.0
C2751 C 0.91332 0.20698 0.82675 0.0
C2752 C 0.90043 0.22106 0.89982 0.0
H2753 H 0.87463 0.22166 0.88518 0.0
C2754 C 0.90557 0.2299 0.93191 0.0
C2755 C 0.8891 0.21801 0.88283 0.0
C2756 C 0.88264 0.20802 0.85061 0.0
C2757 C 0.89967 0.23576 0.94739 0.0
C2758 C 0.88841 0.23273 0.93019 0.0
C2759 C 0.88337 0.22407 0.8977 0.0
C2760 C 0.88114 0.23752 0.94847 0.0
C2761 C 0.90543 0.24507 0.98229 0.0
C2762 C 0.87598 0.2337 0.98948 0.0
C2763 C 0.86817 0.23721 0.00564 0.0
C2764 C 0.86543 0.24467 0.98118 0.0
C2765 C 0.87077 0.24868 0.94034 0.0
C2766 C 0.87849 0.24502 0.9239 0.0
H2767 H 0.91506 0.24815 0.98572 0.0
H2768 H 0.90432 0.25286 0.97521 0.0
H2769 H 0.90102 0.24126 0.0138 0.0
H2770 H 0.87776 0.22776 0.00857 0.0
H2771 H 0.86423 0.234 0.03727 0.0
H2772 H 0.70456 0.80519 0.69998 0.0
H2773 H 0.68449 0.7931 0.6716 0.0
H2774 H 0.69856 0.78571 0.55641 0.0
H2775 H 0.71884 0.79768 0.58537 0.0
H2776 H 0.67655 0.79818 0.59837 0.0
H2777 H 0.67078 0.75287 0.58766 0.0
H2778 H 0.68255 0.76467 0.61882 0.0
H2779 H 0.6838 0.76428 0.56085 0.0
C2780 C 0.70341 0.80087 0.66882 0.0
C2781 C 0.71327 0.80241 0.64476 0.0
C2782 C 0.69192 0.79395 0.65268 0.0
C2783 C 0.69001 0.78844 0.61204 0.0
C2784 C 0.69982 0.7897 0.58823 0.0
H2785 H 0.62732 0.769 0.45796 0.0
H2786 H 0.64748 0.77708 0.48587 0.0
C2787 C 0.71139 0.79659 0.60465 0.0
C2788 C 0.67782 0.78229 0.59361 0.0
H2789 H 0.65553 0.75557 0.55637 0.0
C2790 C 0.67195 0.78885 0.58927 0.0
C2791 C 0.6718 0.7701 0.58219 0.0
C2792 C 0.67749 0.76251 0.58792 0.0
C2793 C 0.66027 0.7836 0.57372 0.0
C2794 C 0.65435 0.7715 0.56114 0.0
C2795 C 0.66014 0.76487 0.56578 0.0
C2796 C 0.64221 0.76575 0.54257 0.0
C2797 C 0.65429 0.79102 0.57156 0.0
C2798 C 0.6326 0.75639 0.56446 0.0
C2799 C 0.621 0.75167 0.54839 0.0
C2800 C 0.6189 0.75627 0.51023 0.0
C2801 C 0.62862 0.76536 0.48773 0.0
C2802 C 0.64016 0.77 0.50363 0.0
H2803 H 0.65876 0.79898 0.59283 0.0
H2804 H 0.65469 0.79414 0.53775 0.0
H2805 H 0.64479 0.78573 0.5812 0.0
H2806 H 0.63403 0.75297 0.59454 0.0
H2807 H 0.61368 0.74464 0.56628 0.0
H2808 H 0.1893 0.89455 0.67692 0.0
H2809 H 0.20221 0.88739 0.65017 0.0
H2810 H 0.22239 0.91979 0.57697 0.0
H2811 H 0.20903 0.92681 0.60232 0.0
H2812 H 0.21878 0.90168 0.52969 0.0
H2813 H 0.23475 0.89609 0.68861 0.0
H2814 H 0.21883 0.88783 0.68769 0.0
H2815 H 0.22652 0.90382 0.68268 0.0
C2816 C 0.19649 0.90019 0.65521 0.0
C2817 C 0.19819 0.91128 0.64187 0.0
C2818 C 0.20398 0.89613 0.64031 0.0
C2819 C 0.21353 0.90319 0.61264 0.0
C2820 C 0.21517 0.91424 0.59875 0.0
H2821 H 0.26082 0.8742 0.55695 0.0
H2822 H 0.25393 0.88765 0.58279 0.0
C2823 C 0.20753 0.91823 0.61316 0.0
C2824 C 0.22132 0.89865 0.5966 0.0
H2825 H 0.23582 0.88417 0.62984 0.0
C2826 C 0.22268 0.89805 0.55165 0.0
C2827 C 0.22675 0.8942 0.62509 0.0
C2828 C 0.22675 0.89566 0.67368 0.0
C2829 C 0.22863 0.89244 0.53446 0.0
C2830 C 0.23293 0.88687 0.56294 0.0
C2831 C 0.23229 0.88818 0.60789 0.0
C2832 C 0.23737 0.879 0.54682 0.0
C2833 C 0.23015 0.8925 0.48589 0.0
C2834 C 0.23027 0.86953 0.51888 0.0
C2835 C 0.23425 0.86201 0.50372 0.0
C2836 C 0.24529 0.86357 0.51706 0.0
C2837 C 0.25227 0.8728 0.54612 0.0
C2838 C 0.24835 0.88049 0.5608 0.0
H2839 H 0.2307 0.90057 0.47109 0.0
H2840 H 0.23828 0.89218 0.477 0.0
H2841 H 0.2223 0.88465 0.47163 0.0
H2842 H 0.22157 0.86788 0.50895 0.0
H2843 H 0.22859 0.85489 0.48173 0.0
H2844 H 0.13314 0.37085 0.45466 0.0
H2845 H 0.12084 0.35086 0.48356 0.0
H2846 H 0.1211 0.36555 0.60945 0.0
H2847 H 0.13318 0.38576 0.57999 0.0
H2848 H 0.1282 0.34164 0.54553 0.0
H2849 H 0.08639 0.33983 0.59811 0.0
H2850 H 0.09702 0.35135 0.5628 0.0
H2851 H 0.09971 0.35204 0.62023 0.0
C2852 C 0.13041 0.36984 0.48835 0.0
C2853 C 0.13413 0.37983 0.51518 0.0
C2854 C 0.12337 0.35841 0.50481 0.0
C2855 C 0.11999 0.35669 0.54859 0.0
C2856 C 0.1234 0.36667 0.57534 0.0
H2857 H 0.10189 0.2931 0.69401 0.0
H2858 H 0.10981 0.31345 0.66808 0.0
C2859 C 0.13034 0.37819 0.55859 0.0
C2860 C 0.11394 0.34443 0.56647 0.0
H2861 H 0.08885 0.32345 0.61812 0.0
C2862 C 0.11957 0.33767 0.56125 0.0
C2863 C 0.10266 0.33924 0.58684 0.0
C2864 C 0.09602 0.34594 0.59206 0.0
C2865 C 0.11429 0.3259 0.57585 0.0
C2866 C 0.10314 0.32079 0.59683 0.0
C2867 C 0.09742 0.32746 0.60202 0.0
C2868 C 0.09754 0.30857 0.61431 0.0
C2869 C 0.1206 0.31895 0.56853 0.0
C2870 C 0.08791 0.29914 0.59285 0.0
C2871 C 0.08338 0.28743 0.60743 0.0
C2872 C 0.08842 0.28506 0.64376 0.0
C2873 C 0.09786 0.29461 0.66576 0.0
C2874 C 0.10237 0.30625 0.65113 0.0
H2875 H 0.12814 0.32348 0.54544 0.0
H2876 H 0.12415 0.31785 0.59989 0.0
H2877 H 0.11431 0.30993 0.55582 0.0
H2878 H 0.08411 0.3008 0.56423 0.0
H2879 H 0.07608 0.28026 0.58996 0.0
H2880 H 0.04086 0.56474 0.86377 0.0
H2881 H 0.02043 0.55656 0.83843 0.0
H2882 H 0.03261 0.5819 0.73343 0.0
H2883 H 0.05322 0.59026 0.75883 0.0
H2884 H 0.01095 0.57814 0.78046 0.0
H2885 H 0.00898 0.53649 0.7245 0.0
H2886 H 0.01393 0.54068 0.77948 0.0
H2887 H 0.02284 0.54994 0.73553 0.0
C2888 C 0.03922 0.56863 0.83535 0.0
C2889 C 0.04866 0.57808 0.813 0.0
C2890 C 0.02754 0.56394 0.82097 0.0
C2891 C 0.02506 0.56856 0.7839 0.0
C2892 C 0.03439 0.57822 0.76213 0.0
H2893 H 0.96178 0.53083 0.6302 0.0
H2894 H 0.98199 0.54303 0.65718 0.0
C2895 C 0.04613 0.58294 0.77654 0.0
C2896 C 0.01276 0.56285 0.76693 0.0
H2897 H 0.99093 0.53679 0.72426 0.0
C2898 C 0.00655 0.56912 0.76794 0.0
C2899 C 0.00713 0.55113 0.75045 0.0
C2900 C 0.01356 0.54417 0.74698 0.0
C2901 C 0.99473 0.56388 0.75321 0.0
C2902 C 0.98901 0.55204 0.73763 0.0
C2903 C 0.9953 0.54585 0.73644 0.0
C2904 C 0.97668 0.54593 0.72049 0.0
C2905 C 0.98855 0.5711 0.75372 0.0
C2906 C 0.96694 0.54368 0.74688 0.0
C2907 C 0.95528 0.53677 0.73124 0.0
C2908 C 0.95327 0.53187 0.68934 0.0
C2909 C 0.96305 0.53442 0.66277 0.0
C2910 C 0.97462 0.5414 0.67811 0.0
H2911 H 0.99499 0.58078 0.75644 0.0
H2912 H 0.98314 0.56949 0.72392 0.0
H2913 H 0.98249 0.56843 0.7821 0.0
H2914 H 0.96831 0.54689 0.77999 0.0
H2915 H 0.94788 0.53486 0.75245 0.0
H2916 H 0.40687 0.46009 0.76062 0.0
H2917 H 0.41355 0.44622 0.73771 0.0
H2918 H 0.44608 0.4666 0.80999 0.0
H2919 H 0.43933 0.48005 0.83409 0.0
H2920 H 0.43189 0.449 0.69175 0.0
H2921 H 0.43606 0.43413 0.8548 0.0
H2922 H 0.42861 0.44253 0.84561 0.0
H2923 H 0.44455 0.45003 0.85219 0.0
C2924 C 0.41543 0.46156 0.7716 0.0
C2925 C 0.42253 0.47108 0.79944 0.0
C2926 C 0.41922 0.45362 0.75865 0.0
C2927 C 0.43016 0.45515 0.77326 0.0
C2928 C 0.43741 0.46494 0.79968 0.0
H2929 H 0.47905 0.43899 0.65633 0.0
H2930 H 0.46571 0.44604 0.67917 0.0
C2931 C 0.43358 0.47273 0.81304 0.0
C2932 C 0.43442 0.44694 0.75964 0.0
H2933 H 0.44833 0.43244 0.7987 0.0
C2934 C 0.43528 0.44518 0.71517 0.0
C2935 C 0.43851 0.44162 0.79008 0.0
C2936 C 0.43675 0.44206 0.8383 0.0
C2937 C 0.44092 0.43902 0.70034 0.0
C2938 C 0.44621 0.43488 0.73078 0.0
C2939 C 0.44454 0.43585 0.77526 0.0
C2940 C 0.45424 0.4304 0.71723 0.0
C2941 C 0.44124 0.43714 0.65215 0.0
C2942 C 0.45265 0.41952 0.73286 0.0
C2943 C 0.46052 0.41559 0.72069 0.0
C2944 C 0.47005 0.42247 0.69255 0.0
C2945 C 0.47171 0.43342 0.67764 0.0
C2946 C 0.46399 0.43741 0.69027 0.0
H2947 H 0.4333 0.4365 0.63582 0.0
H2948 H 0.44921 0.44489 0.63799 0.0
H2949 H 0.44161 0.42895 0.64496 0.0
H2950 H 0.44528 0.41403 0.75418 0.0
H2951 H 0.45904 0.40711 0.73267 0.0
H2952 H 0.54098 0.94681 0.75693 0.0
H2953 H 0.55481 0.96727 0.73302 0.0
H2954 H 0.53571 0.97996 0.81024 0.0
H2955 H 0.52228 0.95984 0.83516 0.0
H2956 H 0.55144 0.98287 0.6887 0.0
H2957 H 0.56893 0.00222 0.84957 0.0
H2958 H 0.56031 0.98636 0.84094 0.0
H2959 H 0.55302 0.9949 0.85007 0.0
C2960 C 0.5398 0.954 0.76884 0.0
C2961 C 0.53061 0.95174 0.79818 0.0
C2962 C 0.54771 0.96567 0.75529 0.0
C2963 C 0.54652 0.97521 0.77087 0.0
C2964 C 0.5371 0.97284 0.79905 0.0
H2965 H 0.56079 0.04 0.65859 0.0
H2966 H 0.55427 0.01965 0.68039 0.0
C2967 C 0.52933 0.96128 0.81291 0.0
C2968 C 0.55463 0.98761 0.75636 0.0
H2969 H 0.56998 0.01612 0.79436 0.0
C2970 C 0.55569 0.99013 0.71178 0.0
C2971 C 0.5605 0.99709 0.78629 0.0
C2972 C 0.56075 0.99498 0.83433 0.0
C2973 C 0.56168 0.00189 0.69655 0.0
C2974 C 0.56639 0.01139 0.72677 0.0
C2975 C 0.56614 0.00886 0.77115 0.0
C2976 C 0.57065 0.02388 0.71337 0.0
C2977 C 0.56271 0.00399 0.64819 0.0
C2978 C 0.58185 0.03319 0.72638 0.0
C2979 C 0.58554 0.04497 0.7147 0.0
C2980 C 0.57806 0.0476 0.68981 0.0
C2981 C 0.56682 0.03828 0.67742 0.0
C2982 C 0.56311 0.02659 0.68945 0.0
H2983 H 0.56297 0.99662 0.63082 0.0
H2984 H 0.5548 0.0043 0.63639 0.0
H2985 H 0.57082 0.01249 0.63965 0.0
H2986 H 0.58776 0.03133 0.74538 0.0
H2987 H 0.59425 0.05198 0.72473 0.0
H2988 H 0.47796 0.03992 0.15586 0.0
H2989 H 0.46438 0.01972 0.17992 0.0
H2990 H 0.44532 0.03237 0.25766 0.0
H2991 H 0.4593 0.05286 0.23475 0.0
H2992 H 0.44852 0.01689 0.30171 0.0
H2993 H 0.43128 0.99728 0.14103 0.0
H2994 H 0.44719 0.00454 0.14068 0.0
H2995 H 0.43994 0.01315 0.14923 0.0
C2996 C 0.47087 0.03844 0.178 0.0
C2997 C 0.46966 0.04798 0.19328 0.0
C2998 C 0.46301 0.02684 0.19134 0.0
C2999 C 0.45358 0.02445 0.2195 0.0
C3000 C 0.45243 0.03398 0.23541 0.0
H3001 H 0.40635 0.94759 0.26841 0.0
H3002 H 0.41254 0.96809 0.24623 0.0
C3003 C 0.46043 0.04567 0.22243 0.0
C3004 C 0.44547 0.01205 0.23409 0.0
H3005 H 0.4303 0.98347 0.19671 0.0
C3006 C 0.44433 0.00961 0.27874 0.0
C3007 C 0.43967 0.00251 0.20433 0.0
C3008 C 0.43947 0.00454 0.1562 0.0
C3009 C 0.43837 0.99787 0.29422 0.0
C3010 C 0.43376 0.98832 0.26422 0.0
C3011 C 0.43406 0.99076 0.21974 0.0
C3012 C 0.4297 0.97591 0.27805 0.0
C3013 C 0.43726 0.99586 0.34263 0.0
C3014 C 0.43738 0.97347 0.30225 0.0
C3015 C 0.43385 0.96189 0.31514 0.0
C3016 C 0.42264 0.9524 0.30333 0.0
C3017 C 0.41504 0.95474 0.27801 0.0
C3018 C 0.41855 0.96643 0.26546 0.0
H3019 H 0.43687 0.0032 0.35961 0.0
H3020 H 0.42921 0.98732 0.3512 0.0
H3021 H 0.44522 0.99569 0.35484 0.0
H3022 H 0.44619 0.98053 0.31098 0.0
H3023 H 0.43998 0.96039 0.33427 0.0
H3024 H 0.03994 0.47178 0.37119 0.0
H3025 H 0.01941 0.45929 0.34763 0.0
H3026 H 0.03165 0.45243 0.22667 0.0
H3027 H 0.05235 0.46471 0.25093 0.0
H3028 H 0.00966 0.46392 0.28065 0.0
H3029 H 0.00509 0.41943 0.25796 0.0
H3030 H 0.01743 0.43129 0.28683 0.0
H3031 H 0.0173 0.43105 0.22848 0.0
C3032 C 0.03827 0.46749 0.33978 0.0
C3033 C 0.04773 0.46925 0.31278 0.0
C3034 C 0.02653 0.46033 0.3264 0.0
C3035 C 0.02396 0.45483 0.28554 0.0
C3036 C 0.03339 0.45636 0.25874 0.0
H3037 H 0.96033 0.43587 0.14088 0.0
H3038 H 0.98052 0.44396 0.16839 0.0
C3039 C 0.04522 0.46344 0.27245 0.0
C3040 C 0.01146 0.44849 0.26997 0.0
H3041 H 0.98932 0.42202 0.23022 0.0
C3042 C 0.00521 0.45473 0.2699 0.0
C3043 C 0.0056 0.43646 0.25636 0.0
C3044 C 0.01165 0.42911 0.25775 0.0
C3045 C 0.99336 0.44937 0.25607 0.0
C3046 C 0.98766 0.43751 0.24086 0.0
C3047 C 0.99377 0.43114 0.24162 0.0
C3048 C 0.97547 0.43183 0.22271 0.0
C3049 C 0.98702 0.45644 0.25813 0.0
C3050 C 0.96597 0.42208 0.24345 0.0
C3051 C 0.95434 0.41738 0.22768 0.0
C3052 C 0.95211 0.42238 0.1909 0.0
C3053 C 0.96173 0.4319 0.16955 0.0
C3054 C 0.97328 0.43654 0.18521 0.0
H3055 H 0.99145 0.46406 0.28096 0.0
H3056 H 0.98706 0.46005 0.22544 0.0
H3057 H 0.97762 0.45074 0.26839 0.0
H3058 H 0.96751 0.41831 0.27241 0.0
H3059 H 0.94711 0.41001 0.24465 0.0
H3060 H 0.56084 0.52006 0.16123 0.0
H3061 H 0.55446 0.53401 0.18266 0.0
H3062 H 0.58786 0.55554 0.24865 0.0
H3063 H 0.59421 0.54124 0.22827 0.0
H3064 H 0.5699 0.55308 0.29691 0.0
H3065 H 0.56371 0.5659 0.13289 0.0
H3066 H 0.55547 0.55003 0.13789 0.0
H3067 H 0.57147 0.55781 0.14231 0.0
C3068 C 0.56688 0.52777 0.18022 0.0
C3069 C 0.57806 0.52958 0.19291 0.0
C3070 C 0.56326 0.53583 0.19203 0.0
C3071 C 0.57082 0.54604 0.21606 0.0
C3072 C 0.58194 0.54781 0.22952 0.0
H3073 H 0.54022 0.59273 0.25788 0.0
H3074 H 0.55445 0.58653 0.23468 0.0
C3075 C 0.58555 0.53963 0.21801 0.0
C3076 C 0.56662 0.55434 0.2291 0.0
H3077 H 0.55172 0.56784 0.18987 0.0
C3078 C 0.56615 0.55653 0.27342 0.0
C3079 C 0.56204 0.55917 0.19851 0.0
C3080 C 0.56333 0.55821 0.15024 0.0
C3081 C 0.56036 0.56255 0.28812 0.0
C3082 C 0.55457 0.56613 0.25776 0.0
C3083 C 0.55591 0.56484 0.21327 0.0
C3084 C 0.54619 0.57015 0.27167 0.0
C3085 C 0.56032 0.56478 0.33615 0.0
C3086 C 0.53665 0.56286 0.29901 0.0
C3087 C 0.52864 0.5664 0.31242 0.0
C3088 C 0.52982 0.57721 0.29808 0.0
C3089 C 0.53911 0.58435 0.26945 0.0
C3090 C 0.54725 0.58084 0.25634 0.0
H3091 H 0.56849 0.56582 0.35194 0.0
H3092 H 0.55971 0.57287 0.34269 0.0
H3093 H 0.55259 0.55703 0.35139 0.0
H3094 H 0.53535 0.55436 0.30994 0.0
H3095 H 0.52151 0.56062 0.33411 0.0
loop_
_geom_bond_atom_site_label_1
_geom_bond_atom_site_label_2
_geom_bond_distance
_geom_bond_site_symmetry_2
_ccdc_geom_bond_type
Co0 O1 2.216 . S
Co0 O2 2.091 . S
Co0 O4 2.004 . S
Co0 O10 2.021 . S
Co0 O12 2.137 . S
Co0 O13 2.244 . S
O1 Co0 2.216 . S
O1 C8 1.247 . S
O2 Co0 2.091 . S
O2 C8 1.261 . S
C3 O12 1.247 . S
C3 O13 1.272 . S
O4 Co0 2.004 . S
O4 C9 1.259 . S
Co5 O6 2.061 . S
Co5 O11 2.052 . S
Co5 O13 2.135 . S
O6 Co5 2.061 . S
O6 C9 1.235 . S
C7 O10 1.238 . S
C7 O11 1.241 . S
C8 O1 1.247 . S
C8 O2 1.261 . S
C9 O4 1.259 . S
C9 O6 1.235 . S
O10 Co0 2.021 . S
O10 C7 1.238 . S
O11 Co5 2.052 . S
O11 C7 1.241 . S
O12 Co0 2.137 . S
O12 C3 1.247 . S
O13 Co0 2.244 . S
O13 C3 1.272 . S
O13 Co5 2.135 . S
Co14 O15 2.216 . S
Co14 O16 2.091 . S
Co14 O18 2.004 . S
Co14 O24 2.021 . S
Co14 O26 2.137 . S
Co14 O27 2.244 . S
O15 Co14 2.216 . S
O15 C22 1.247 . S
O16 Co14 2.091 . S
O16 C22 1.261 . S
C17 O26 1.247 . S
C17 O27 1.272 . S
O18 Co14 2.004 . S
O18 C23 1.259 . S
Co19 O20 2.061 . S
Co19 O25 2.052 . S
Co19 O27 2.135 . S
O20 Co19 2.061 . S
O20 C23 1.235 . S
C21 O24 1.238 . S
C21 O25 1.241 . S
C22 O15 1.247 . S
C22 O16 1.261 . S
C23 O18 1.259 . S
C23 O20 1.235 . S
O24 Co14 2.021 . S
O24 C21 1.238 . S
O25 Co19 2.052 . S
O25 C21 1.241 . S
O26 Co14 2.137 . S
O26 C17 1.247 . S
O27 Co14 2.244 . S
O27 C17 1.272 . S
O27 Co19 2.135 . S
Co28 O29 2.216 . S
Co28 O30 2.091 . S
Co28 O32 2.004 . S
Co28 O38 2.021 . S
Co28 O40 2.137 . S
Co28 O41 2.244 . S
O29 Co28 2.216 . S
O29 C36 1.247 . S
O30 Co28 2.091 . S
O30 C36 1.261 . S
C31 O40 1.247 . S
C31 O41 1.272 . S
O32 Co28 2.004 . S
O32 C37 1.259 . S
Co33 O34 2.061 . S
Co33 O39 2.052 . S
Co33 O41 2.135 . S
O34 Co33 2.061 . S
O34 C37 1.235 . S
C35 O38 1.238 . S
C35 O39 1.241 . S
C36 O29 1.247 . S
C36 O30 1.261 . S
C37 O32 1.259 . S
C37 O34 1.235 . S
O38 Co28 2.021 . S
O38 C35 1.238 . S
O39 Co33 2.052 . S
O39 C35 1.241 . S
O40 Co28 2.137 . S
O40 C31 1.247 . S
O41 Co28 2.244 . S
O41 C31 1.272 . S
O41 Co33 2.135 . S
Co42 O43 2.216 . S
Co42 O44 2.091 . S
Co42 O46 2.004 . S
Co42 O52 2.021 . S
Co42 O54 2.137 . S
Co42 O55 2.244 . S
O43 Co42 2.216 . S
O43 C50 1.247 . S
O44 Co42 2.091 . S
O44 C50 1.261 . S
C45 O54 1.247 . S
C45 O55 1.272 . S
O46 Co42 2.004 . S
O46 C51 1.259 . S
Co47 O48 2.061 . S
Co47 O53 2.052 . S
Co47 O55 2.135 . S
O48 Co47 2.061 . S
O48 C51 1.235 . S
C49 O52 1.238 . S
C49 O53 1.241 . S
C50 O43 1.247 . S
C50 O44 1.261 . S
C51 O46 1.259 . S
C51 O48 1.235 . S
O52 Co42 2.021 . S
O52 C49 1.238 . S
O53 Co47 2.052 . S
O53 C49 1.241 . S
O54 Co42 2.137 . S
O54 C45 1.247 . S
O55 Co42 2.244 . S
O55 C45 1.272 . S
O55 Co47 2.135 . S
Co56 O57 2.216 . S
Co56 O58 2.091 . S
Co56 O60 2.004 . S
Co56 O66 2.021 . S
Co56 O68 2.137 . S
Co56 O69 2.244 . S
O57 Co56 2.216 . S
O57 C64 1.247 . S
O58 Co56 2.091 . S
O58 C64 1.261 . S
C59 O68 1.247 . S
C59 O69 1.272 . S
O60 Co56 2.004 . S
O60 C65 1.259 . S
Co61 O62 2.061 . S
Co61 O67 2.052 . S
Co61 O69 2.135 . S
O62 Co61 2.061 . S
O62 C65 1.235 . S
C63 O66 1.238 . S
C63 O67 1.241 . S
C64 O57 1.247 . S
C64 O58 1.261 . S
C65 O60 1.259 . S
C65 O62 1.235 . S
O66 Co56 2.021 . S
O66 C63 1.238 . S
O67 Co61 2.052 . S
O67 C63 1.241 . S
O68 Co56 2.137 . S
O68 C59 1.247 . S
O69 Co56 2.244 . S
O69 C59 1.272 . S
O69 Co61 2.135 . S
Co70 O71 2.216 . S
Co70 O72 2.091 . S
Co70 O74 2.004 . S
Co70 O80 2.021 . S
Co70 O82 2.137 . S
Co70 O83 2.244 . S
O71 Co70 2.216 . S
O71 C78 1.247 . S
O72 Co70 2.091 . S
O72 C78 1.261 . S
C73 O82 1.247 . S
C73 O83 1.272 . S
O74 Co70 2.004 . S
O74 C79 1.259 . S
Co75 O76 2.061 . S
Co75 O81 2.052 . S
Co75 O83 2.135 . S
O76 Co75 2.061 . S
O76 C79 1.235 . S
C77 O80 1.238 . S
C77 O81 1.241 . S
C78 O71 1.247 . S
C78 O72 1.261 . S
C79 O74 1.259 . S
C79 O76 1.235 . S
O80 Co70 2.021 . S
O80 C77 1.238 . S
O81 Co75 2.052 . S
O81 C77 1.241 . S
O82 Co70 2.137 . S
O82 C73 1.247 . S
O83 Co70 2.244 . S
O83 C73 1.272 . S
O83 Co75 2.135 . S
Co84 O85 2.216 . S
Co84 O86 2.091 . S
Co84 O88 2.004 . S
Co84 O94 2.021 . S
Co84 O96 2.137 . S
Co84 O97 2.244 . S
O85 Co84 2.216 . S
O85 C92 1.247 . S
O86 Co84 2.091 . S
O86 C92 1.261 . S
C87 O96 1.247 . S
C87 O97 1.272 . S
O88 Co84 2.004 . S
O88 C93 1.259 . S
Co89 O90 2.061 . S
Co89 O95 2.052 . S
Co89 O97 2.135 . S
O90 Co89 2.061 . S
O90 C93 1.235 . S
C91 O94 1.238 . S
C91 O95 1.241 . S
C92 O85 1.247 . S
C92 O86 1.261 . S
C93 O88 1.259 . S
C93 O90 1.235 . S
O94 Co84 2.021 . S
O94 C91 1.238 . S
O95 Co89 2.052 . S
O95 C91 1.241 . S
O96 Co84 2.137 . S
O96 C87 1.247 . S
O97 Co84 2.244 . S
O97 C87 1.272 . S
O97 Co89 2.135 . S
Co98 O99 2.216 . S
Co98 O100 2.091 . S
Co98 O102 2.004 . S
Co98 O108 2.021 . S
Co98 O110 2.137 . S
Co98 O111 2.244 . S
O99 Co98 2.216 . S
O99 C106 1.247 . S
O100 Co98 2.091 . S
O100 C106 1.261 . S
C101 O110 1.247 . S
C101 O111 1.272 . S
O102 Co98 2.004 . S
O102 C107 1.259 . S
Co103 O104 2.061 . S
Co103 O109 2.052 . S
Co103 O111 2.135 . S
O104 Co103 2.061 . S
O104 C107 1.235 . S
C105 O108 1.238 . S
C105 O109 1.241 . S
C106 O99 1.247 . S
C106 O100 1.261 . S
C107 O102 1.259 . S
C107 O104 1.235 . S
O108 Co98 2.021 . S
O108 C105 1.238 . S
O109 Co103 2.052 . S
O109 C105 1.241 . S
O110 Co98 2.137 . S
O110 C101 1.247 . S
O111 Co98 2.244 . S
O111 C101 1.272 . S
O111 Co103 2.135 . S
Co112 O113 2.216 . S
Co112 O114 2.091 . S
Co112 O116 2.004 . S
Co112 O122 2.021 . S
Co112 O124 2.137 . S
Co112 O125 2.244 . S
O113 Co112 2.216 . S
O113 C120 1.247 . S
O114 Co112 2.091 . S
O114 C120 1.261 . S
C115 O124 1.247 . S
C115 O125 1.272 . S
O116 Co112 2.004 . S
O116 C121 1.259 . S
Co117 O118 2.061 . S
Co117 O123 2.052 . S
Co117 O125 2.135 . S
O118 Co117 2.061 . S
O118 C121 1.235 . S
C119 O122 1.238 . S
C119 O123 1.241 . S
C120 O113 1.247 . S
C120 O114 1.261 . S
C121 O116 1.259 . S
C121 O118 1.235 . S
O122 Co112 2.021 . S
O122 C119 1.238 . S
O123 Co117 2.052 . S
O123 C119 1.241 . S
O124 Co112 2.137 . S
O124 C115 1.247 . S
O125 Co112 2.244 . S
O125 C115 1.272 . S
O125 Co117 2.135 . S
Co126 O127 2.216 . S
Co126 O128 2.091 . S
Co126 O130 2.004 . S
Co126 O136 2.021 . S
Co126 O138 2.137 . S
Co126 O139 2.244 . S
O127 Co126 2.216 . S
O127 C134 1.247 . S
O128 Co126 2.091 . S
O128 C134 1.261 . S
C129 O138 1.247 . S
C129 O139 1.272 . S
O130 Co126 2.004 . S
O130 C135 1.259 . S
Co131 O132 2.061 . S
Co131 O137 2.052 . S
Co131 O139 2.135 . S
O132 Co131 2.061 . S
O132 C135 1.235 . S
C133 O136 1.238 . S
C133 O137 1.241 . S
C134 O127 1.247 . S
C134 O128 1.261 . S
C135 O130 1.259 . S
C135 O132 1.235 . S
O136 Co126 2.021 . S
O136 C133 1.238 . S
O137 Co131 2.052 . S
O137 C133 1.241 . S
O138 Co126 2.137 . S
O138 C129 1.247 . S
O139 Co126 2.244 . S
O139 C129 1.272 . S
O139 Co131 2.135 . S
Co140 O141 2.216 . S
Co140 O142 2.091 . S
Co140 O144 2.004 . S
Co140 O150 2.021 . S
Co140 O152 2.137 . S
Co140 O153 2.244 . S
O141 Co140 2.216 . S
O141 C148 1.247 . S
O142 Co140 2.091 . S
O142 C148 1.261 . S
C143 O152 1.247 . S
C143 O153 1.272 . S
O144 Co140 2.004 . S
O144 C149 1.259 . S
Co145 O146 2.061 . S
Co145 O151 2.052 . S
Co145 O153 2.135 . S
O146 Co145 2.061 . S
O146 C149 1.235 . S
C147 O150 1.238 . S
C147 O151 1.241 . S
C148 O141 1.247 . S
C148 O142 1.261 . S
C149 O144 1.259 . S
C149 O146 1.235 . S
O150 Co140 2.021 . S
O150 C147 1.238 . S
O151 Co145 2.052 . S
O151 C147 1.241 . S
O152 Co140 2.137 . S
O152 C143 1.247 . S
O153 Co140 2.244 . S
O153 C143 1.272 . S
O153 Co145 2.135 . S
Co154 O155 2.216 . S
Co154 O156 2.091 . S
Co154 O158 2.004 . S
Co154 O164 2.021 . S
Co154 O166 2.137 . S
Co154 O167 2.244 . S
O155 Co154 2.216 . S
O155 C162 1.247 . S
O156 Co154 2.091 . S
O156 C162 1.261 . S
C157 O166 1.247 . S
C157 O167 1.272 . S
O158 Co154 2.004 . S
O158 C163 1.259 . S
Co159 O160 2.061 . S
Co159 O165 2.052 . S
Co159 O167 2.135 . S
O160 Co159 2.061 . S
O160 C163 1.235 . S
C161 O164 1.238 . S
C161 O165 1.241 . S
C162 O155 1.247 . S
C162 O156 1.261 . S
C163 O158 1.259 . S
C163 O160 1.235 . S
O164 Co154 2.021 . S
O164 C161 1.238 . S
O165 Co159 2.052 . S
O165 C161 1.241 . S
O166 Co154 2.137 . S
O166 C157 1.247 . S
O167 Co154 2.244 . S
O167 C157 1.272 . S
O167 Co159 2.135 . S
Co168 O169 2.216 . S
Co168 O170 2.091 . S
Co168 O172 2.004 . S
Co168 O178 2.021 . S
Co168 O180 2.137 . S
Co168 O181 2.244 . S
O169 Co168 2.216 . S
O169 C176 1.247 . S
O170 Co168 2.091 . S
O170 C176 1.261 . S
C171 O180 1.247 . S
C171 O181 1.272 . S
O172 Co168 2.004 . S
O172 C177 1.259 . S
Co173 O174 2.061 . S
Co173 O179 2.052 . S
Co173 O181 2.135 . S
O174 Co173 2.061 . S
O174 C177 1.235 . S
C175 O178 1.238 . S
C175 O179 1.241 . S
C176 O169 1.247 . S
C176 O170 1.261 . S
C177 O172 1.259 . S
C177 O174 1.235 . S
O178 Co168 2.021 . S
O178 C175 1.238 . S
O179 Co173 2.052 . S
O179 C175 1.241 . S
O180 Co168 2.137 . S
O180 C171 1.247 . S
O181 Co168 2.244 . S
O181 C171 1.272 . S
O181 Co173 2.135 . S
Co182 O183 2.216 . S
Co182 O184 2.091 . S
Co182 O186 2.004 . S
Co182 O192 2.021 . S
Co182 O194 2.137 . S
Co182 O195 2.244 . S
O183 Co182 2.216 . S
O183 C190 1.247 . S
O184 Co182 2.091 . S
O184 C190 1.261 . S
C185 O194 1.247 . S
C185 O195 1.272 . S
O186 Co182 2.004 . S
O186 C191 1.259 . S
Co187 O188 2.061 . S
Co187 O193 2.052 . S
Co187 O195 2.135 . S
O188 Co187 2.061 . S
O188 C191 1.235 . S
C189 O192 1.238 . S
C189 O193 1.241 . S
C190 O183 1.247 . S
C190 O184 1.261 . S
C191 O186 1.259 . S
C191 O188 1.235 . S
O192 Co182 2.021 . S
O192 C189 1.238 . S
O193 Co187 2.052 . S
O193 C189 1.241 . S
O194 Co182 2.137 . S
O194 C185 1.247 . S
O195 Co182 2.244 . S
O195 C185 1.272 . S
O195 Co187 2.135 . S
Co196 O197 2.216 . S
Co196 O198 2.091 . S
Co196 O200 2.004 . S
Co196 O206 2.021 . S
Co196 O208 2.137 . S
Co196 O209 2.244 . S
O197 Co196 2.216 . S
O197 C204 1.247 . S
O198 Co196 2.091 . S
O198 C204 1.261 . S
C199 O208 1.247 . S
C199 O209 1.272 . S
O200 Co196 2.004 . S
O200 C205 1.259 . S
Co201 O202 2.061 . S
Co201 O207 2.052 . S
Co201 O209 2.135 . S
O202 Co201 2.061 . S
O202 C205 1.235 . S
C203 O206 1.238 . S
C203 O207 1.241 . S
C204 O197 1.247 . S
C204 O198 1.261 . S
C205 O200 1.259 . S
C205 O202 1.235 . S
O206 Co196 2.021 . S
O206 C203 1.238 . S
O207 Co201 2.052 . S
O207 C203 1.241 . S
O208 Co196 2.137 . S
O208 C199 1.247 . S
O209 Co196 2.244 . S
O209 C199 1.272 . S
O209 Co201 2.135 . S
Co210 O211 2.216 . S
Co210 O212 2.091 . S
Co210 O214 2.004 . S
Co210 O220 2.021 . S
Co210 O222 2.137 . S
Co210 O223 2.244 . S
O211 Co210 2.216 . S
O211 C218 1.247 . S
O212 Co210 2.091 . S
O212 C218 1.261 . S
C213 O222 1.247 . S
C213 O223 1.272 . S
O214 Co210 2.004 . S
O214 C219 1.259 . S
Co215 O216 2.061 . S
Co215 O221 2.052 . S
Co215 O223 2.135 . S
O216 Co215 2.061 . S
O216 C219 1.235 . S
C217 O220 1.238 . S
C217 O221 1.241 . S
C218 O211 1.247 . S
C218 O212 1.261 . S
C219 O214 1.259 . S
C219 O216 1.235 . S
O220 Co210 2.021 . S
O220 C217 1.238 . S
O221 Co215 2.052 . S
O221 C217 1.241 . S
O222 Co210 2.137 . S
O222 C213 1.247 . S
O223 Co210 2.244 . S
O223 C213 1.272 . S
O223 Co215 2.135 . S
Co224 O225 2.216 . S
Co224 O226 2.091 . S
Co224 O228 2.004 . S
Co224 O234 2.021 . S
Co224 O236 2.137 . S
Co224 O237 2.244 . S
O225 Co224 2.216 . S
O225 C232 1.247 . S
O226 Co224 2.091 . S
O226 C232 1.261 . S
C227 O236 1.247 . S
C227 O237 1.272 . S
O228 Co224 2.004 . S
O228 C233 1.259 . S
Co229 O230 2.061 . S
Co229 O235 2.052 . S
Co229 O237 2.135 . S
O230 Co229 2.061 . S
O230 C233 1.235 . S
C231 O234 1.238 . S
C231 O235 1.241 . S
C232 O225 1.247 . S
C232 O226 1.261 . S
C233 O228 1.259 . S
C233 O230 1.235 . S
O234 Co224 2.021 . S
O234 C231 1.238 . S
O235 Co229 2.052 . S
O235 C231 1.241 . S
O236 Co224 2.137 . S
O236 C227 1.247 . S
O237 Co224 2.244 . S
O237 C227 1.272 . S
O237 Co229 2.135 . S
Co238 O239 2.216 . S
Co238 O240 2.091 . S
Co238 O242 2.004 . S
Co238 O248 2.021 . S
Co238 O250 2.137 . S
Co238 O251 2.244 . S
O239 Co238 2.216 . S
O239 C246 1.247 . S
O240 Co238 2.091 . S
O240 C246 1.261 . S
C241 O250 1.247 . S
C241 O251 1.272 . S
O242 Co238 2.004 . S
O242 C247 1.259 . S
Co243 O244 2.061 . S
Co243 O249 2.052 . S
Co243 O251 2.135 . S
O244 Co243 2.061 . S
O244 C247 1.235 . S
C245 O248 1.238 . S
C245 O249 1.241 . S
C246 O239 1.247 . S
C246 O240 1.261 . S
C247 O242 1.259 . S
C247 O244 1.235 . S
O248 Co238 2.021 . S
O248 C245 1.238 . S
O249 Co243 2.052 . S
O249 C245 1.241 . S
O250 Co238 2.137 . S
O250 C241 1.247 . S
O251 Co238 2.244 . S
O251 C241 1.272 . S
O251 Co243 2.135 . S
Co252 O253 2.216 . S
Co252 O254 2.091 . S
Co252 O256 2.004 . S
Co252 O262 2.021 . S
Co252 O264 2.137 . S
Co252 O265 2.244 . S
O253 Co252 2.216 . S
O253 C260 1.247 . S
O254 Co252 2.091 . S
O254 C260 1.261 . S
C255 O264 1.247 . S
C255 O265 1.272 . S
O256 Co252 2.004 . S
O256 C261 1.259 . S
Co257 O258 2.061 . S
Co257 O263 2.052 . S
Co257 O265 2.135 . S
O258 Co257 2.061 . S
O258 C261 1.235 . S
C259 O262 1.238 . S
C259 O263 1.241 . S
C260 O253 1.247 . S
C260 O254 1.261 . S
C261 O256 1.259 . S
C261 O258 1.235 . S
O262 Co252 2.021 . S
O262 C259 1.238 . S
O263 Co257 2.052 . S
O263 C259 1.241 . S
O264 Co252 2.137 . S
O264 C255 1.247 . S
O265 Co252 2.244 . S
O265 C255 1.272 . S
O265 Co257 2.135 . S
Co266 O267 2.216 . S
Co266 O268 2.091 . S
Co266 O270 2.004 . S
Co266 O276 2.021 . S
Co266 O278 2.137 . S
Co266 O279 2.244 . S
O267 Co266 2.216 . S
O267 C274 1.247 . S
O268 Co266 2.091 . S
O268 C274 1.261 . S
C269 O278 1.247 . S
C269 O279 1.272 . S
O270 Co266 2.004 . S
O270 C275 1.259 . S
Co271 O272 2.061 . S
Co271 O277 2.052 . S
Co271 O279 2.135 . S
O272 Co271 2.061 . S
O272 C275 1.235 . S
C273 O276 1.238 . S
C273 O277 1.241 . S
C274 O267 1.247 . S
C274 O268 1.261 . S
C275 O270 1.259 . S
C275 O272 1.235 . S
O276 Co266 2.021 . S
O276 C273 1.238 . S
O277 Co271 2.052 . S
O277 C273 1.241 . S
O278 Co266 2.137 . S
O278 C269 1.247 . S
O279 Co266 2.244 . S
O279 C269 1.272 . S
O279 Co271 2.135 . S
Co280 O281 2.216 . S
Co280 O282 2.091 . S
Co280 O284 2.004 . S
Co280 O290 2.021 . S
Co280 O292 2.137 . S
Co280 O293 2.244 . S
O281 Co280 2.216 . S
O281 C288 1.247 . S
O282 Co280 2.091 . S
O282 C288 1.261 . S
C283 O292 1.247 . S
C283 O293 1.272 . S
O284 Co280 2.004 . S
O284 C289 1.259 . S
Co285 O286 2.061 . S
Co285 O291 2.052 . S
Co285 O293 2.135 . S
O286 Co285 2.061 . S
O286 C289 1.235 . S
C287 O290 1.238 . S
C287 O291 1.241 . S
C288 O281 1.247 . S
C288 O282 1.261 . S
C289 O284 1.259 . S
C289 O286 1.235 . S
O290 Co280 2.021 . S
O290 C287 1.238 . S
O291 Co285 2.052 . S
O291 C287 1.241 . S
O292 Co280 2.137 . S
O292 C283 1.247 . S
O293 Co280 2.244 . S
O293 C283 1.272 . S
O293 Co285 2.135 . S
Co294 O295 2.216 1_556 S
Co294 O296 2.091 . S
Co294 O298 2.004 . S
Co294 O304 2.021 1_556 S
Co294 O306 2.137 . S
Co294 O307 2.245 . S
O295 Co294 2.216 1_554 S
O295 C302 1.247 . S
O296 Co294 2.091 . S
O296 C302 1.261 1_556 S
C297 O306 1.247 . S
C297 O307 1.281 . S
O298 Co294 2.004 . S
O298 C303 1.259 . S
Co299 O300 2.061 1_554 S
Co299 O305 2.052 . S
Co299 O307 2.134 1_554 S
O300 Co299 2.061 1_556 S
O300 C303 1.235 . S
C301 O304 1.238 . S
C301 O305 1.241 . S
C302 O295 1.247 . S
C302 O296 1.261 1_554 S
C303 O298 1.259 . S
C303 O300 1.235 . S
O304 Co294 2.021 1_554 S
O304 C301 1.238 . S
O305 Co299 2.052 . S
O305 C301 1.241 . S
O306 Co294 2.137 . S
O306 C297 1.247 . S
O307 Co294 2.245 . S
O307 C297 1.281 . S
O307 Co299 2.134 1_556 S
Co308 O309 2.216 1_556 S
Co308 O310 2.091 . S
Co308 O312 2.004 . S
Co308 O318 2.021 1_556 S
Co308 O320 2.137 . S
Co308 O321 2.245 . S
O309 Co308 2.216 1_554 S
O309 C316 1.247 . S
O310 Co308 2.091 . S
O310 C316 1.261 1_556 S
C311 O320 1.247 . S
C311 O321 1.281 . S
O312 Co308 2.004 . S
O312 C317 1.259 . S
Co313 O314 2.061 1_554 S
Co313 O319 2.052 . S
Co313 O321 2.134 1_554 S
O314 Co313 2.061 1_556 S
O314 C317 1.235 . S
C315 O318 1.238 . S
C315 O319 1.241 . S
C316 O309 1.247 . S
C316 O310 1.261 1_554 S
C317 O312 1.259 . S
C317 O314 1.235 . S
O318 Co308 2.021 1_554 S
O318 C315 1.238 . S
O319 Co313 2.052 . S
O319 C315 1.241 . S
O320 Co308 2.137 . S
O320 C311 1.247 . S
O321 Co308 2.245 . S
O321 C311 1.281 . S
O321 Co313 2.134 1_556 S
Co322 O323 2.216 1_556 S
Co322 O324 2.091 . S
Co322 O326 2.004 . S
Co322 O332 2.021 1_556 S
Co322 O334 2.137 . S
Co322 O335 2.245 . S
O323 Co322 2.216 1_554 S
O323 C330 1.247 . S
O324 Co322 2.091 . S
O324 C330 1.261 1_556 S
C325 O334 1.247 . S
C325 O335 1.281 . S
O326 Co322 2.004 . S
O326 C331 1.259 . S
Co327 O328 2.061 1_554 S
Co327 O333 2.052 . S
Co327 O335 2.134 1_554 S
O328 Co327 2.061 1_556 S
O328 C331 1.235 . S
C329 O332 1.238 . S
C329 O333 1.241 . S
C330 O323 1.247 . S
C330 O324 1.261 1_554 S
C331 O326 1.259 . S
C331 O328 1.235 . S
O332 Co322 2.021 1_554 S
O332 C329 1.238 . S
O333 Co327 2.052 . S
O333 C329 1.241 . S
O334 Co322 2.137 . S
O334 C325 1.247 . S
O335 Co322 2.245 . S
O335 C325 1.281 . S
O335 Co327 2.134 1_556 S
Co336 O337 2.216 . S
Co336 O338 2.091 . S
Co336 O340 2.004 . S
Co336 O346 2.021 . S
Co336 O348 2.137 . S
Co336 O349 2.244 . S
O337 Co336 2.216 . S
O337 C344 1.247 . S
O338 Co336 2.091 . S
O338 C344 1.261 . S
C339 O348 1.247 . S
C339 O349 1.272 . S
O340 Co336 2.004 . S
O340 C345 1.259 . S
Co341 O342 2.061 . S
Co341 O347 2.052 . S
Co341 O349 2.135 . S
O342 Co341 2.061 . S
O342 C345 1.235 . S
C343 O346 1.238 . S
C343 O347 1.241 . S
C344 O337 1.247 . S
C344 O338 1.261 . S
C345 O340 1.259 . S
C345 O342 1.235 . S
O346 Co336 2.021 . S
O346 C343 1.238 . S
O347 Co341 2.052 . S
O347 C343 1.241 . S
O348 Co336 2.137 . S
O348 C339 1.247 . S
O349 Co336 2.244 . S
O349 C339 1.272 . S
O349 Co341 2.135 . S
Co350 O351 2.216 . S
Co350 O352 2.091 . S
Co350 O354 2.004 . S
Co350 O360 2.021 . S
Co350 O362 2.137 . S
Co350 O363 2.244 . S
O351 Co350 2.216 . S
O351 C358 1.247 . S
O352 Co350 2.091 . S
O352 C358 1.261 . S
C353 O362 1.247 . S
C353 O363 1.272 . S
O354 Co350 2.004 . S
O354 C359 1.259 . S
Co355 O356 2.061 . S
Co355 O361 2.052 . S
Co355 O363 2.135 . S
O356 Co355 2.061 . S
O356 C359 1.235 . S
C357 O360 1.238 . S
C357 O361 1.241 . S
C358 O351 1.247 . S
C358 O352 1.261 . S
C359 O354 1.259 . S
C359 O356 1.235 . S
O360 Co350 2.021 . S
O360 C357 1.238 . S
O361 Co355 2.052 . S
O361 C357 1.241 . S
O362 Co350 2.137 . S
O362 C353 1.247 . S
O363 Co350 2.244 . S
O363 C353 1.272 . S
O363 Co355 2.135 . S
Co364 O365 2.216 . S
Co364 O366 2.091 . S
Co364 O368 2.004 . S
Co364 O374 2.021 . S
Co364 O376 2.137 . S
Co364 O377 2.244 . S
O365 Co364 2.216 . S
O365 C372 1.247 . S
O366 Co364 2.091 . S
O366 C372 1.261 . S
C367 O376 1.247 . S
C367 O377 1.272 . S
O368 Co364 2.004 . S
O368 C373 1.259 . S
Co369 O370 2.061 . S
Co369 O375 2.052 . S
Co369 O377 2.135 . S
O370 Co369 2.061 . S
O370 C373 1.235 . S
C371 O374 1.238 . S
C371 O375 1.241 . S
C372 O365 1.247 . S
C372 O366 1.261 . S
C373 O368 1.259 . S
C373 O370 1.235 . S
O374 Co364 2.021 . S
O374 C371 1.238 . S
O375 Co369 2.052 . S
O375 C371 1.241 . S
O376 Co364 2.137 . S
O376 C367 1.247 . S
O377 Co364 2.244 . S
O377 C367 1.272 . S
O377 Co369 2.135 . S
Co378 O379 2.216 1_554 S
Co378 O380 2.091 . S
Co378 O382 2.004 . S
Co378 O388 2.021 1_554 S
Co378 O390 2.137 . S
Co378 O391 2.245 . S
O379 Co378 2.216 1_556 S
O379 C386 1.247 . S
O380 Co378 2.091 . S
O380 C386 1.261 1_554 S
C381 O390 1.247 . S
C381 O391 1.281 . S
O382 Co378 2.004 . S
O382 C387 1.259 . S
Co383 O384 2.061 1_556 S
Co383 O389 2.052 . S
Co383 O391 2.134 1_556 S
O384 Co383 2.061 1_554 S
O384 C387 1.235 . S
C385 O388 1.238 . S
C385 O389 1.241 . S
C386 O379 1.247 . S
C386 O380 1.261 1_556 S
C387 O382 1.259 . S
C387 O384 1.235 . S
O388 Co378 2.021 1_556 S
O388 C385 1.238 . S
O389 Co383 2.052 . S
O389 C385 1.241 . S
O390 Co378 2.137 . S
O390 C381 1.247 . S
O391 Co378 2.245 . S
O391 C381 1.281 . S
O391 Co383 2.134 1_554 S
Co392 O393 2.216 1_554 S
Co392 O394 2.091 . S
Co392 O396 2.004 . S
Co392 O402 2.021 1_554 S
Co392 O404 2.137 . S
Co392 O405 2.245 . S
O393 Co392 2.216 1_556 S
O393 C400 1.247 . S
O394 Co392 2.091 . S
O394 C400 1.261 1_554 S
C395 O404 1.247 . S
C395 O405 1.281 . S
O396 Co392 2.004 . S
O396 C401 1.259 . S
Co397 O398 2.061 1_556 S
Co397 O403 2.052 . S
Co397 O405 2.134 1_556 S
O398 Co397 2.061 1_554 S
O398 C401 1.235 . S
C399 O402 1.238 . S
C399 O403 1.241 . S
C400 O393 1.247 . S
C400 O394 1.261 1_556 S
C401 O396 1.259 . S
C401 O398 1.235 . S
O402 Co392 2.021 1_556 S
O402 C399 1.238 . S
O403 Co397 2.052 . S
O403 C399 1.241 . S
O404 Co392 2.137 . S
O404 C395 1.247 . S
O405 Co392 2.245 . S
O405 C395 1.281 . S
O405 Co397 2.134 1_554 S
Co406 O407 2.216 1_554 S
Co406 O408 2.091 . S
Co406 O410 2.004 . S
Co406 O416 2.021 1_554 S
Co406 O418 2.137 . S
Co406 O419 2.245 . S
O407 Co406 2.216 1_556 S
O407 C414 1.247 . S
O408 Co406 2.091 . S
O408 C414 1.261 1_554 S
C409 O418 1.247 . S
C409 O419 1.281 . S
O410 Co406 2.004 . S
O410 C415 1.259 . S
Co411 O412 2.061 1_556 S
Co411 O417 2.052 . S
Co411 O419 2.134 1_556 S
O412 Co411 2.061 1_554 S
O412 C415 1.235 . S
C413 O416 1.238 . S
C413 O417 1.241 . S
C414 O407 1.247 . S
C414 O408 1.261 1_556 S
C415 O410 1.259 . S
C415 O412 1.235 . S
O416 Co406 2.021 1_556 S
O416 C413 1.238 . S
O417 Co411 2.052 . S
O417 C413 1.241 . S
O418 Co406 2.137 . S
O418 C409 1.247 . S
O419 Co406 2.245 . S
O419 C409 1.281 . S
O419 Co411 2.134 1_554 S
Co420 O421 2.216 . S
Co420 O422 2.091 . S
Co420 O424 2.004 . S
Co420 O430 2.021 . S
Co420 O432 2.137 . S
Co420 O433 2.244 . S
O421 Co420 2.216 . S
O421 C428 1.247 . S
O422 Co420 2.091 . S
O422 C428 1.261 . S
C423 O432 1.247 . S
C423 O433 1.272 . S
O424 Co420 2.004 . S
O424 C429 1.259 . S
Co425 O426 2.061 . S
Co425 O431 2.052 . S
Co425 O433 2.135 . S
O426 Co425 2.061 . S
O426 C429 1.235 . S
C427 O430 1.238 . S
C427 O431 1.241 . S
C428 O421 1.247 . S
C428 O422 1.261 . S
C429 O424 1.259 . S
C429 O426 1.235 . S
O430 Co420 2.021 . S
O430 C427 1.238 . S
O431 Co425 2.052 . S
O431 C427 1.241 . S
O432 Co420 2.137 . S
O432 C423 1.247 . S
O433 Co420 2.244 . S
O433 C423 1.272 . S
O433 Co425 2.135 . S
Co434 O435 2.216 . S
Co434 O436 2.091 . S
Co434 O438 2.004 . S
Co434 O444 2.021 . S
Co434 O446 2.137 . S
Co434 O447 2.244 . S
O435 Co434 2.216 . S
O435 C442 1.247 . S
O436 Co434 2.091 . S
O436 C442 1.261 . S
C437 O446 1.247 . S
C437 O447 1.272 . S
O438 Co434 2.004 . S
O438 C443 1.259 . S
Co439 O440 2.061 . S
Co439 O445 2.052 . S
Co439 O447 2.135 . S
O440 Co439 2.061 . S
O440 C443 1.235 . S
C441 O444 1.238 . S
C441 O445 1.241 . S
C442 O435 1.247 . S
C442 O436 1.261 . S
C443 O438 1.259 . S
C443 O440 1.235 . S
O444 Co434 2.021 . S
O444 C441 1.238 . S
O445 Co439 2.052 . S
O445 C441 1.241 . S
O446 Co434 2.137 . S
O446 C437 1.247 . S
O447 Co434 2.244 . S
O447 C437 1.272 . S
O447 Co439 2.135 . S
Co448 O449 2.216 . S
Co448 O450 2.091 . S
Co448 O452 2.004 . S
Co448 O458 2.021 . S
Co448 O460 2.137 . S
Co448 O461 2.244 . S
O449 Co448 2.216 . S
O449 C456 1.247 . S
O450 Co448 2.091 . S
O450 C456 1.261 . S
C451 O460 1.247 . S
C451 O461 1.272 . S
O452 Co448 2.004 . S
O452 C457 1.259 . S
Co453 O454 2.061 . S
Co453 O459 2.052 . S
Co453 O461 2.135 . S
O454 Co453 2.061 . S
O454 C457 1.235 . S
C455 O458 1.238 . S
C455 O459 1.241 . S
C456 O449 1.247 . S
C456 O450 1.261 . S
C457 O452 1.259 . S
C457 O454 1.235 . S
O458 Co448 2.021 . S
O458 C455 1.238 . S
O459 Co453 2.052 . S
O459 C455 1.241 . S
O460 Co448 2.137 . S
O460 C451 1.247 . S
O461 Co448 2.244 . S
O461 C451 1.272 . S
O461 Co453 2.135 . S
Co462 O463 2.216 . S
Co462 O464 2.091 . S
Co462 O466 2.004 . S
Co462 O472 2.021 . S
Co462 O474 2.137 . S
Co462 O475 2.244 . S
O463 Co462 2.216 . S
O463 C470 1.247 . S
O464 Co462 2.091 . S
O464 C470 1.261 . S
C465 O474 1.247 . S
C465 O475 1.272 . S
O466 Co462 2.004 . S
O466 C471 1.259 . S
Co467 O468 2.061 . S
Co467 O473 2.052 . S
Co467 O475 2.135 . S
O468 Co467 2.061 . S
O468 C471 1.235 . S
C469 O472 1.238 . S
C469 O473 1.241 . S
C470 O463 1.247 . S
C470 O464 1.261 . S
C471 O466 1.259 . S
C471 O468 1.235 . S
O472 Co462 2.021 . S
O472 C469 1.238 . S
O473 Co467 2.052 . S
O473 C469 1.241 . S
O474 Co462 2.137 . S
O474 C465 1.247 . S
O475 Co462 2.244 . S
O475 C465 1.272 . S
O475 Co467 2.135 . S
Co476 O477 2.216 . S
Co476 O478 2.091 . S
Co476 O480 2.004 . S
Co476 O486 2.021 . S
Co476 O488 2.137 . S
Co476 O489 2.244 . S
O477 Co476 2.216 . S
O477 C484 1.247 . S
O478 Co476 2.091 . S
O478 C484 1.261 . S
C479 O488 1.247 . S
C479 O489 1.272 . S
O480 Co476 2.004 . S
O480 C485 1.259 . S
Co481 O482 2.061 . S
Co481 O487 2.052 . S
Co481 O489 2.135 . S
O482 Co481 2.061 . S
O482 C485 1.235 . S
C483 O486 1.238 . S
C483 O487 1.241 . S
C484 O477 1.247 . S
C484 O478 1.261 . S
C485 O480 1.259 . S
C485 O482 1.235 . S
O486 Co476 2.021 . S
O486 C483 1.238 . S
O487 Co481 2.052 . S
O487 C483 1.241 . S
O488 Co476 2.137 . S
O488 C479 1.247 . S
O489 Co476 2.244 . S
O489 C479 1.272 . S
O489 Co481 2.135 . S
Co490 O491 2.216 . S
Co490 O492 2.091 . S
Co490 O494 2.004 . S
Co490 O500 2.021 . S
Co490 O502 2.137 . S
Co490 O503 2.244 . S
O491 Co490 2.216 . S
O491 C498 1.247 . S
O492 Co490 2.091 . S
O492 C498 1.261 . S
C493 O502 1.247 . S
C493 O503 1.272 . S
O494 Co490 2.004 . S
O494 C499 1.259 . S
Co495 O496 2.061 . S
Co495 O501 2.052 . S
Co495 O503 2.135 . S
O496 Co495 2.061 . S
O496 C499 1.235 . S
C497 O500 1.238 . S
C497 O501 1.241 . S
C498 O491 1.247 . S
C498 O492 1.261 . S
C499 O494 1.259 . S
C499 O496 1.235 . S
O500 Co490 2.021 . S
O500 C497 1.238 . S
O501 Co495 2.052 . S
O501 C497 1.241 . S
O502 Co490 2.137 . S
O502 C493 1.247 . S
O503 Co490 2.244 . S
O503 C493 1.272 . S
O503 Co495 2.135 . S
H504 C512 0.929 . S
H505 C514 0.930 . S
H506 C516 0.930 . S
H507 C519 0.929 . S
H508 C522 0.930 . S
H509 C524 0.960 . S
H510 C524 0.960 . S
H511 C524 0.960 . S
C512 H504 0.929 . S
C512 C513 1.377 . S
C512 C514 1.384 . S
C513 C512 1.377 . S
C513 C519 1.390 . S
C514 H505 0.930 . S
C514 C512 1.384 . S
C514 C515 1.372 . S
C515 C514 1.372 . S
C515 C516 1.400 . S
C515 C520 1.490 . S
C516 H506 0.930 . S
C516 C515 1.400 . S
C516 C519 1.386 . S
H517 C533 0.930 . S
H518 C534 0.931 . S
C519 H507 0.929 . S
C519 C513 1.390 . S
C519 C516 1.386 . S
C520 C515 1.490 . S
C520 C522 1.395 . S
C520 C523 1.403 . S
H521 C527 0.930 . S
C522 H508 0.930 . S
C522 C520 1.395 . S
C522 C525 1.403 . S
C523 C520 1.403 . S
C523 C524 1.524 . S
C523 C527 1.400 . S
C524 H509 0.960 . S
C524 H510 0.960 . S
C524 H511 0.960 . S
C524 C523 1.524 . S
C525 C522 1.403 . S
C525 C526 1.392 . S
C525 C529 1.495 . S
C526 C525 1.392 . S
C526 C527 1.385 . S
C526 C528 1.478 . S
C527 H521 0.930 . S
C527 C523 1.400 . S
C527 C526 1.385 . S
C528 C526 1.478 . S
C528 C530 1.381 . S
C528 C534 1.383 . S
C529 C525 1.495 . S
C529 H535 0.959 . S
C529 H536 0.961 . S
C529 H537 0.960 . S
C530 C528 1.381 . S
C530 C531 1.394 . S
C530 H538 0.930 . S
C531 C530 1.394 . S
C531 C532 1.383 . S
C531 H539 0.929 . S
C532 C531 1.383 . S
C532 C533 1.377 . S
C533 H517 0.930 . S
C533 C532 1.377 . S
C533 C534 1.379 . S
C534 H518 0.931 . S
C534 C528 1.383 . S
C534 C533 1.379 . S
H535 C529 0.959 . S
H536 C529 0.961 . S
H537 C529 0.960 . S
H538 C530 0.930 . S
H539 C531 0.929 . S
H540 C548 0.929 . S
H541 C550 0.930 . S
H542 C552 0.930 . S
H543 C555 0.929 . S
H544 C558 0.930 . S
H545 C560 0.960 . S
H546 C560 0.960 . S
H547 C560 0.960 . S
C548 H540 0.929 . S
C548 C549 1.377 . S
C548 C550 1.384 . S
C549 C548 1.377 . S
C549 C555 1.390 . S
C550 H541 0.930 . S
C550 C548 1.384 . S
C550 C551 1.372 . S
C551 C550 1.372 . S
C551 C552 1.400 . S
C551 C556 1.490 . S
C552 H542 0.930 . S
C552 C551 1.400 . S
C552 C555 1.386 . S
H553 C569 0.930 . S
H554 C570 0.931 . S
C555 H543 0.929 . S
C555 C549 1.390 . S
C555 C552 1.386 . S
C556 C551 1.490 . S
C556 C558 1.395 . S
C556 C559 1.403 . S
H557 C563 0.930 . S
C558 H544 0.930 . S
C558 C556 1.395 . S
C558 C561 1.403 1_545 S
C559 C556 1.403 . S
C559 C560 1.524 . S
C559 C563 1.400 1_545 S
C560 H545 0.960 . S
C560 H546 0.960 . S
C560 H547 0.960 . S
C560 C559 1.524 . S
C561 C558 1.403 1_565 S
C561 C562 1.392 . S
C561 C565 1.495 . S
C562 C561 1.392 . S
C562 C563 1.385 . S
C562 C564 1.478 . S
C563 H557 0.930 . S
C563 C559 1.400 1_565 S
C563 C562 1.385 . S
C564 C562 1.478 . S
C564 C566 1.381 . S
C564 C570 1.383 . S
C565 C561 1.495 . S
C565 H571 0.959 . S
C565 H572 0.961 . S
C565 H573 0.960 . S
C566 C564 1.381 . S
C566 C567 1.394 . S
C566 H574 0.930 . S
C567 C566 1.394 . S
C567 C568 1.383 . S
C567 H575 0.929 . S
C568 C567 1.383 . S
C568 C569 1.377 . S
C569 H553 0.930 . S
C569 C568 1.377 . S
C569 C570 1.379 . S
C570 H554 0.931 . S
C570 C564 1.383 . S
C570 C569 1.379 . S
H571 C565 0.959 . S
H572 C565 0.961 . S
H573 C565 0.960 . S
H574 C566 0.930 . S
H575 C567 0.929 . S
H576 C584 0.929 . S
H577 C586 0.930 . S
H578 C588 0.930 . S
H579 C591 0.929 . S
H580 C594 0.930 . S
H581 C596 0.960 1_455 S
H582 C596 0.960 . S
H583 C596 0.960 . S
C584 H576 0.929 . S
C584 C585 1.377 . S
C584 C586 1.384 . S
C585 C584 1.377 . S
C585 C591 1.390 . S
C586 H577 0.930 . S
C586 C584 1.384 . S
C586 C587 1.372 . S
C587 C586 1.372 . S
C587 C588 1.400 . S
C587 C592 1.490 . S
C588 H578 0.930 . S
C588 C587 1.400 . S
C588 C591 1.386 . S
H589 C605 0.930 . S
H590 C606 0.931 . S
C591 H579 0.929 . S
C591 C585 1.390 . S
C591 C588 1.386 . S
C592 C587 1.490 . S
C592 C594 1.395 . S
C592 C595 1.403 . S
H593 C599 0.930 . S
C594 H580 0.930 . S
C594 C592 1.395 . S
C594 C597 1.403 1_655 S
C595 C592 1.403 . S
C595 C596 1.524 . S
C595 C599 1.400 1_655 S
C596 H581 0.960 1_655 S
C596 H582 0.960 . S
C596 H583 0.960 . S
C596 C595 1.524 . S
C597 C594 1.403 1_455 S
C597 C598 1.392 . S
C597 C601 1.495 . S
C598 C597 1.392 . S
C598 C599 1.385 . S
C598 C600 1.478 . S
C599 H593 0.930 . S
C599 C595 1.400 1_455 S
C599 C598 1.385 . S
C600 C598 1.478 . S
C600 C602 1.381 . S
C600 C606 1.383 . S
C601 C597 1.495 . S
C601 H607 0.959 1_455 S
C601 H608 0.961 . S
C601 H609 0.960 . S
C602 C600 1.381 . S
C602 C603 1.394 . S
C602 H610 0.930 . S
C603 C602 1.394 . S
C603 C604 1.383 . S
C603 H611 0.929 . S
C604 C603 1.383 . S
C604 C605 1.377 . S
C605 H589 0.930 . S
C605 C604 1.377 . S
C605 C606 1.379 . S
C606 H590 0.931 . S
C606 C600 1.383 . S
C606 C605 1.379 . S
H607 C601 0.959 1_655 S
H608 C601 0.961 . S
H609 C601 0.960 . S
H610 C602 0.930 . S
H611 C603 0.929 . S
H612 C620 0.929 . S
H613 C622 0.930 . S
H614 C624 0.930 . S
H615 C627 0.929 . S
H616 C630 0.930 . S
H617 C632 0.960 . S
H618 C632 0.960 . S
H619 C632 0.960 . S
C620 H612 0.929 . S
C620 C621 1.377 . S
C620 C622 1.384 . S
C621 C620 1.377 . S
C621 C627 1.390 . S
C622 H613 0.930 . S
C622 C620 1.384 . S
C622 C623 1.372 . S
C623 C622 1.372 . S
C623 C624 1.400 . S
C623 C628 1.490 . S
C624 H614 0.930 . S
C624 C623 1.400 . S
C624 C627 1.386 . S
H625 C641 0.930 . S
H626 C642 0.931 . S
C627 H615 0.929 . S
C627 C621 1.390 . S
C627 C624 1.386 . S
C628 C623 1.490 . S
C628 C630 1.395 . S
C628 C631 1.403 . S
H629 C635 0.930 . S
C630 H616 0.930 . S
C630 C628 1.395 . S
C630 C633 1.403 . S
C631 C628 1.403 . S
C631 C632 1.524 . S
C631 C635 1.400 . S
C632 H617 0.960 . S
C632 H618 0.960 . S
C632 H619 0.960 . S
C632 C631 1.524 . S
C633 C630 1.403 . S
C633 C634 1.392 . S
C633 C637 1.495 . S
C634 C633 1.392 . S
C634 C635 1.385 . S
C634 C636 1.478 . S
C635 H629 0.930 . S
C635 C631 1.400 . S
C635 C634 1.385 . S
C636 C634 1.478 . S
C636 C638 1.381 . S
C636 C642 1.383 . S
C637 C633 1.495 . S
C637 H643 0.959 . S
C637 H644 0.961 . S
C637 H645 0.960 . S
C638 C636 1.381 . S
C638 C639 1.394 . S
C638 H646 0.930 . S
C639 C638 1.394 . S
C639 C640 1.383 . S
C639 H647 0.929 . S
C640 C639 1.383 . S
C640 C641 1.377 . S
C641 H625 0.930 . S
C641 C640 1.377 . S
C641 C642 1.379 . S
C642 H626 0.931 . S
C642 C636 1.383 . S
C642 C641 1.379 . S
H643 C637 0.959 . S
H644 C637 0.961 . S
H645 C637 0.960 . S
H646 C638 0.930 . S
H647 C639 0.929 . S
H648 C656 0.929 . S
H649 C658 0.930 . S
H650 C660 0.930 . S
H651 C663 0.929 . S
H652 C666 0.930 . S
H653 C668 0.960 . S
H654 C668 0.960 . S
H655 C668 0.960 . S
C656 H648 0.929 . S
C656 C657 1.377 . S
C656 C658 1.384 . S
C657 C656 1.377 . S
C657 C663 1.390 . S
C658 H649 0.930 . S
C658 C656 1.384 . S
C658 C659 1.372 . S
C659 C658 1.372 . S
C659 C660 1.400 . S
C659 C664 1.490 . S
C660 H650 0.930 . S
C660 C659 1.400 . S
C660 C663 1.386 . S
H661 C677 0.930 . S
H662 C678 0.931 . S
C663 H651 0.929 . S
C663 C657 1.390 . S
C663 C660 1.386 . S
C664 C659 1.490 . S
C664 C666 1.395 . S
C664 C667 1.403 . S
H665 C671 0.930 . S
C666 H652 0.930 . S
C666 C664 1.395 . S
C666 C669 1.403 1_545 S
C667 C664 1.403 . S
C667 C668 1.524 . S
C667 C671 1.400 1_545 S
C668 H653 0.960 . S
C668 H654 0.960 . S
C668 H655 0.960 . S
C668 C667 1.524 . S
C669 C666 1.403 1_565 S
C669 C670 1.392 . S
C669 C673 1.495 . S
C670 C669 1.392 . S
C670 C671 1.385 . S
C670 C672 1.478 . S
C671 H665 0.930 . S
C671 C667 1.400 1_565 S
C671 C670 1.385 . S
C672 C670 1.478 . S
C672 C674 1.381 . S
C672 C678 1.383 . S
C673 C669 1.495 . S
C673 H679 0.959 . S
C673 H680 0.961 . S
C673 H681 0.960 . S
C674 C672 1.381 . S
C674 C675 1.394 . S
C674 H682 0.930 . S
C675 C674 1.394 . S
C675 C676 1.383 . S
C675 H683 0.929 . S
C676 C675 1.383 . S
C676 C677 1.377 . S
C677 H661 0.930 . S
C677 C676 1.377 . S
C677 C678 1.379 . S
C678 H662 0.931 . S
C678 C672 1.383 . S
C678 C677 1.379 . S
H679 C673 0.959 . S
H680 C673 0.961 . S
H681 C673 0.960 . S
H682 C674 0.930 . S
H683 C675 0.929 . S
H684 C692 0.929 . S
H685 C694 0.930 . S
H686 C696 0.930 . S
H687 C699 0.929 . S
H688 C702 0.930 . S
H689 C704 0.960 . S
H690 C704 0.960 . S
H691 C704 0.960 . S
C692 H684 0.929 . S
C692 C693 1.377 . S
C692 C694 1.384 . S
C693 C692 1.377 . S
C693 C699 1.390 . S
C694 H685 0.930 . S
C694 C692 1.384 . S
C694 C695 1.372 . S
C695 C694 1.372 . S
C695 C696 1.400 . S
C695 C700 1.490 . S
C696 H686 0.930 . S
C696 C695 1.400 . S
C696 C699 1.386 . S
H697 C713 0.930 . S
H698 C714 0.931 . S
C699 H687 0.929 . S
C699 C693 1.390 . S
C699 C696 1.386 . S
C700 C695 1.490 . S
C700 C702 1.395 . S
C700 C703 1.403 . S
H701 C707 0.930 . S
C702 H688 0.930 . S
C702 C700 1.395 . S
C702 C705 1.403 1_455 S
C703 C700 1.403 . S
C703 C704 1.524 . S
C703 C707 1.400 1_455 S
C704 H689 0.960 . S
C704 H690 0.960 . S
C704 H691 0.960 . S
C704 C703 1.524 . S
C705 C702 1.403 1_655 S
C705 C706 1.392 . S
C705 C709 1.495 . S
C706 C705 1.392 . S
C706 C707 1.385 . S
C706 C708 1.478 . S
C707 H701 0.930 . S
C707 C703 1.400 1_655 S
C707 C706 1.385 . S
C708 C706 1.478 . S
C708 C710 1.381 . S
C708 C714 1.383 . S
C709 C705 1.495 . S
C709 H715 0.959 . S
C709 H716 0.961 . S
C709 H717 0.960 . S
C710 C708 1.381 . S
C710 C711 1.394 . S
C710 H718 0.930 . S
C711 C710 1.394 . S
C711 C712 1.383 . S
C711 H719 0.929 . S
C712 C711 1.383 . S
C712 C713 1.377 . S
C713 H697 0.930 . S
C713 C712 1.377 . S
C713 C714 1.379 . S
C714 H698 0.931 . S
C714 C708 1.383 . S
C714 C713 1.379 . S
H715 C709 0.959 . S
H716 C709 0.961 . S
H717 C709 0.960 . S
H718 C710 0.930 . S
H719 C711 0.929 . S
H720 C728 0.929 . S
H721 C730 0.930 . S
H722 C732 0.930 . S
H723 C735 0.929 . S
H724 C738 0.930 . S
H725 C740 0.960 . S
H726 C740 0.960 . S
H727 C740 0.960 . S
C728 H720 0.929 . S
C728 C729 1.377 . S
C728 C730 1.384 . S
C729 C728 1.377 . S
C729 C735 1.390 . S
C730 H721 0.930 . S
C730 C728 1.384 . S
C730 C731 1.372 . S
C731 C730 1.372 . S
C731 C732 1.400 . S
C731 C736 1.490 . S
C732 H722 0.930 . S
C732 C731 1.400 . S
C732 C735 1.386 . S
H733 C749 0.930 . S
H734 C750 0.931 . S
C735 H723 0.929 . S
C735 C729 1.390 . S
C735 C732 1.386 . S
C736 C731 1.490 . S
C736 C738 1.395 . S
C736 C739 1.403 . S
H737 C743 0.930 . S
C738 H724 0.930 . S
C738 C736 1.395 . S
C738 C741 1.403 . S
C739 C736 1.403 . S
C739 C740 1.524 . S
C739 C743 1.400 . S
C740 H725 0.960 . S
C740 H726 0.960 . S
C740 H727 0.960 . S
C740 C739 1.524 . S
C741 C738 1.403 . S
C741 C742 1.392 . S
C741 C745 1.495 . S
C742 C741 1.392 . S
C742 C743 1.385 . S
C742 C744 1.478 . S
C743 H737 0.930 . S
C743 C739 1.400 . S
C743 C742 1.385 . S
C744 C742 1.478 . S
C744 C746 1.381 . S
C744 C750 1.383 . S
C745 C741 1.495 . S
C745 H751 0.959 . S
C745 H752 0.961 . S
C745 H753 0.960 . S
C746 C744 1.381 . S
C746 C747 1.394 . S
C746 H754 0.930 . S
C747 C746 1.394 . S
C747 C748 1.383 . S
C747 H755 0.929 . S
C748 C747 1.383 . S
C748 C749 1.377 . S
C749 H733 0.930 . S
C749 C748 1.377 . S
C749 C750 1.379 . S
C750 H734 0.931 . S
C750 C744 1.383 . S
C750 C749 1.379 . S
H751 C745 0.959 . S
H752 C745 0.961 . S
H753 C745 0.960 . S
H754 C746 0.930 . S
H755 C747 0.929 . S
H756 C764 0.929 . S
H757 C766 0.930 . S
H758 C768 0.930 . S
H759 C771 0.929 . S
H760 C774 0.930 . S
H761 C776 0.960 . S
H762 C776 0.960 . S
H763 C776 0.960 . S
C764 H756 0.929 . S
C764 C765 1.377 . S
C764 C766 1.384 . S
C765 C764 1.377 . S
C765 C771 1.390 . S
C766 H757 0.930 . S
C766 C764 1.384 . S
C766 C767 1.372 . S
C767 C766 1.372 . S
C767 C768 1.400 . S
C767 C772 1.490 . S
C768 H758 0.930 . S
C768 C767 1.400 . S
C768 C771 1.386 . S
H769 C785 0.930 . S
H770 C786 0.931 . S
C771 H759 0.929 . S
C771 C765 1.390 . S
C771 C768 1.386 . S
C772 C767 1.490 . S
C772 C774 1.395 . S
C772 C775 1.403 . S
H773 C779 0.930 . S
C774 H760 0.930 . S
C774 C772 1.395 . S
C774 C777 1.403 . S
C775 C772 1.403 . S
C775 C776 1.524 . S
C775 C779 1.400 . S
C776 H761 0.960 . S
C776 H762 0.960 . S
C776 H763 0.960 . S
C776 C775 1.524 . S
C777 C774 1.403 . S
C777 C778 1.392 . S
C777 C781 1.495 . S
C778 C777 1.392 . S
C778 C779 1.385 . S
C778 C780 1.478 . S
C779 H773 0.930 . S
C779 C775 1.400 . S
C779 C778 1.385 . S
C780 C778 1.478 . S
C780 C782 1.381 . S
C780 C786 1.383 . S
C781 C777 1.495 . S
C781 H787 0.959 . S
C781 H788 0.961 . S
C781 H789 0.960 . S
C782 C780 1.381 . S
C782 C783 1.394 . S
C782 H790 0.930 . S
C783 C782 1.394 . S
C783 C784 1.383 . S
C783 H791 0.929 . S
C784 C783 1.383 . S
C784 C785 1.377 . S
C785 H769 0.930 . S
C785 C784 1.377 . S
C785 C786 1.379 . S
C786 H770 0.931 . S
C786 C780 1.383 . S
C786 C785 1.379 . S
H787 C781 0.959 . S
H788 C781 0.961 . S
H789 C781 0.960 . S
H790 C782 0.930 . S
H791 C783 0.929 . S
H792 C800 0.929 . S
H793 C802 0.930 . S
H794 C804 0.930 . S
H795 C807 0.929 . S
H796 C810 0.930 . S
H797 C812 0.960 . S
H798 C812 0.960 . S
H799 C812 0.960 . S
C800 H792 0.929 . S
C800 C801 1.377 . S
C800 C802 1.384 . S
C801 C800 1.377 . S
C801 C807 1.390 . S
C802 H793 0.930 . S
C802 C800 1.384 . S
C802 C803 1.372 . S
C803 C802 1.372 . S
C803 C804 1.400 . S
C803 C808 1.490 . S
C804 H794 0.930 . S
C804 C803 1.400 . S
C804 C807 1.386 . S
H805 C821 0.930 . S
H806 C822 0.931 . S
C807 H795 0.929 . S
C807 C801 1.390 . S
C807 C804 1.386 . S
C808 C803 1.490 . S
C808 C810 1.395 . S
C808 C811 1.403 . S
H809 C815 0.930 . S
C810 H796 0.930 . S
C810 C808 1.395 . S
C810 C813 1.403 . S
C811 C808 1.403 . S
C811 C812 1.524 . S
C811 C815 1.400 . S
C812 H797 0.960 . S
C812 H798 0.960 . S
C812 H799 0.960 . S
C812 C811 1.524 . S
C813 C810 1.403 . S
C813 C814 1.392 . S
C813 C817 1.495 . S
C814 C813 1.392 . S
C814 C815 1.385 . S
C814 C816 1.478 . S
C815 H809 0.930 . S
C815 C811 1.400 . S
C815 C814 1.385 . S
C816 C814 1.478 . S
C816 C818 1.381 . S
C816 C822 1.383 . S
C817 C813 1.495 . S
C817 H823 0.959 . S
C817 H824 0.961 . S
C817 H825 0.960 . S
C818 C816 1.381 . S
C818 C819 1.394 . S
C818 H826 0.930 . S
C819 C818 1.394 . S
C819 C820 1.383 . S
C819 H827 0.929 . S
C820 C819 1.383 . S
C820 C821 1.377 . S
C821 H805 0.930 . S
C821 C820 1.377 . S
C821 C822 1.379 . S
C822 H806 0.931 . S
C822 C816 1.383 . S
C822 C821 1.379 . S
H823 C817 0.959 . S
H824 C817 0.961 . S
H825 C817 0.960 . S
H826 C818 0.930 . S
H827 C819 0.929 . S
H828 C836 0.929 . S
H829 C838 0.930 . S
H830 C840 0.930 . S
H831 C843 0.929 . S
H832 C846 0.930 . S
H833 C848 0.960 . S
H834 C848 0.960 . S
H835 C848 0.960 . S
C836 H828 0.929 . S
C836 C837 1.377 . S
C836 C838 1.384 . S
C837 C836 1.377 . S
C837 C843 1.390 . S
C838 H829 0.930 . S
C838 C836 1.384 . S
C838 C839 1.372 . S
C839 C838 1.372 . S
C839 C840 1.400 . S
C839 C844 1.490 . S
C840 H830 0.930 . S
C840 C839 1.400 . S
C840 C843 1.386 . S
H841 C857 0.930 . S
H842 C858 0.931 . S
C843 H831 0.929 . S
C843 C837 1.390 . S
C843 C840 1.386 . S
C844 C839 1.490 . S
C844 C846 1.395 . S
C844 C847 1.403 . S
H845 C851 0.930 . S
C846 H832 0.930 . S
C846 C844 1.395 . S
C846 C849 1.403 . S
C847 C844 1.403 . S
C847 C848 1.524 . S
C847 C851 1.400 . S
C848 H833 0.960 . S
C848 H834 0.960 . S
C848 H835 0.960 . S
C848 C847 1.524 . S
C849 C846 1.403 . S
C849 C850 1.392 . S
C849 C853 1.495 1_554 S
C850 C849 1.392 . S
C850 C851 1.385 . S
C850 C852 1.478 . S
C851 H845 0.930 . S
C851 C847 1.400 . S
C851 C850 1.385 . S
C852 C850 1.478 . S
C852 C854 1.381 . S
C852 C858 1.383 . S
C853 C849 1.495 1_556 S
C853 H859 0.959 . S
C853 H860 0.961 . S
C853 H861 0.960 . S
C854 C852 1.381 . S
C854 C855 1.394 . S
C854 H862 0.930 . S
C855 C854 1.394 . S
C855 C856 1.383 . S
C855 H863 0.929 . S
C856 C855 1.383 . S
C856 C857 1.377 . S
C857 H841 0.930 . S
C857 C856 1.377 . S
C857 C858 1.379 . S
C858 H842 0.931 . S
C858 C852 1.383 . S
C858 C857 1.379 . S
H859 C853 0.959 . S
H860 C853 0.961 . S
H861 C853 0.960 . S
H862 C854 0.930 . S
H863 C855 0.929 . S
H864 C872 0.929 . S
H865 C874 0.930 . S
H866 C876 0.930 . S
H867 C879 0.929 1_556 S
H868 C882 0.930 . S
H869 C884 0.960 . S
H870 C884 0.960 . S
H871 C884 0.960 1_556 S
C872 H864 0.929 . S
C872 C873 1.377 . S
C872 C874 1.384 . S
C873 C872 1.377 . S
C873 C879 1.390 . S
C874 H865 0.930 . S
C874 C872 1.384 . S
C874 C875 1.372 . S
C875 C874 1.372 . S
C875 C876 1.400 . S
C875 C880 1.490 . S
C876 H866 0.930 . S
C876 C875 1.400 . S
C876 C879 1.386 . S
H877 C893 0.930 . S
H878 C894 0.931 . S
C879 H867 0.929 1_554 S
C879 C873 1.390 . S
C879 C876 1.386 . S
C880 C875 1.490 . S
C880 C882 1.395 . S
C880 C883 1.403 . S
H881 C887 0.930 . S
C882 H868 0.930 . S
C882 C880 1.395 . S
C882 C885 1.403 . S
C883 C880 1.403 . S
C883 C884 1.524 . S
C883 C887 1.400 . S
C884 H869 0.960 . S
C884 H870 0.960 . S
C884 H871 0.960 1_554 S
C884 C883 1.524 . S
C885 C882 1.403 . S
C885 C886 1.392 . S
C885 C889 1.495 . S
C886 C885 1.392 . S
C886 C887 1.385 . S
C886 C888 1.478 . S
C887 H881 0.930 . S
C887 C883 1.400 . S
C887 C886 1.385 . S
C888 C886 1.478 . S
C888 C890 1.381 . S
C888 C894 1.383 . S
C889 C885 1.495 . S
C889 H895 0.959 . S
C889 H896 0.961 . S
C889 H897 0.960 . S
C890 C888 1.381 . S
C890 C891 1.394 . S
C890 H898 0.930 . S
C891 C890 1.394 . S
C891 C892 1.383 . S
C891 H899 0.929 . S
C892 C891 1.383 . S
C892 C893 1.377 . S
C893 H877 0.930 . S
C893 C892 1.377 . S
C893 C894 1.379 . S
C894 H878 0.931 . S
C894 C888 1.383 . S
C894 C893 1.379 . S
H895 C889 0.959 . S
H896 C889 0.961 . S
H897 C889 0.960 . S
H898 C890 0.930 . S
H899 C891 0.929 . S
H900 C908 0.929 . S
H901 C910 0.930 . S
H902 C912 0.930 . S
H903 C915 0.929 . S
H904 C918 0.930 . S
H905 C920 0.960 . S
H906 C920 0.960 . S
H907 C920 0.960 . S
C908 H900 0.929 . S
C908 C909 1.377 . S
C908 C910 1.384 . S
C909 C908 1.377 . S
C909 C915 1.390 . S
C910 H901 0.930 . S
C910 C908 1.384 . S
C910 C911 1.372 . S
C911 C910 1.372 . S
C911 C912 1.400 . S
C911 C916 1.490 . S
C912 H902 0.930 . S
C912 C911 1.400 . S
C912 C915 1.386 . S
H913 C929 0.930 1_556 S
H914 C930 0.931 . S
C915 H903 0.929 . S
C915 C909 1.390 . S
C915 C912 1.386 . S
C916 C911 1.490 . S
C916 C918 1.395 . S
C916 C919 1.403 . S
H917 C923 0.930 . S
C918 H904 0.930 . S
C918 C916 1.395 . S
C918 C921 1.403 . S
C919 C916 1.403 . S
C919 C920 1.524 . S
C919 C923 1.400 . S
C920 H905 0.960 . S
C920 H906 0.960 . S
C920 H907 0.960 . S
C920 C919 1.524 . S
C921 C918 1.403 . S
C921 C922 1.392 . S
C921 C925 1.495 . S
C922 C921 1.392 . S
C922 C923 1.385 . S
C922 C924 1.478 . S
C923 H917 0.930 . S
C923 C919 1.400 . S
C923 C922 1.385 . S
C924 C922 1.478 . S
C924 C926 1.381 . S
C924 C930 1.383 . S
C925 C921 1.495 . S
C925 H931 0.959 . S
C925 H932 0.961 . S
C925 H933 0.960 . S
C926 C924 1.381 . S
C926 C927 1.394 . S
C926 H934 0.930 . S
C927 C926 1.394 . S
C927 C928 1.383 . S
C927 H935 0.929 . S
C928 C927 1.383 . S
C928 C929 1.377 . S
C929 H913 0.930 1_554 S
C929 C928 1.377 . S
C929 C930 1.379 . S
C930 H914 0.931 . S
C930 C924 1.383 . S
C930 C929 1.379 . S
H931 C925 0.959 . S
H932 C925 0.961 . S
H933 C925 0.960 . S
H934 C926 0.930 . S
H935 C927 0.929 . S
H936 C944 0.929 . S
H937 C946 0.930 . S
H938 C948 0.930 . S
H939 C951 0.929 . S
H940 C954 0.930 . S
H941 C956 0.960 . S
H942 C956 0.960 . S
H943 C956 0.960 . S
C944 H936 0.929 . S
C944 C945 1.377 . S
C944 C946 1.384 . S
C945 C944 1.377 . S
C945 C951 1.390 . S
C946 H937 0.930 . S
C946 C944 1.384 . S
C946 C947 1.372 . S
C947 C946 1.372 . S
C947 C948 1.400 . S
C947 C952 1.490 . S
C948 H938 0.930 . S
C948 C947 1.400 . S
C948 C951 1.386 . S
H949 C965 0.930 1_554 S
H950 C966 0.931 . S
C951 H939 0.929 . S
C951 C945 1.390 . S
C951 C948 1.386 . S
C952 C947 1.490 . S
C952 C954 1.395 . S
C952 C955 1.403 . S
H953 C959 0.930 . S
C954 H940 0.930 . S
C954 C952 1.395 . S
C954 C957 1.403 . S
C955 C952 1.403 . S
C955 C956 1.524 . S
C955 C959 1.400 . S
C956 H941 0.960 . S
C956 H942 0.960 . S
C956 H943 0.960 . S
C956 C955 1.524 . S
C957 C954 1.403 . S
C957 C958 1.392 . S
C957 C961 1.495 . S
C958 C957 1.392 . S
C958 C959 1.385 . S
C958 C960 1.478 . S
C959 H953 0.930 . S
C959 C955 1.400 . S
C959 C958 1.385 . S
C960 C958 1.478 . S
C960 C962 1.381 . S
C960 C966 1.383 . S
C961 C957 1.495 . S
C961 H967 0.959 . S
C961 H968 0.961 . S
C961 H969 0.960 . S
C962 C960 1.381 . S
C962 C963 1.394 . S
C962 H970 0.930 . S
C963 C962 1.394 . S
C963 C964 1.383 . S
C963 H971 0.929 . S
C964 C963 1.383 . S
C964 C965 1.377 . S
C965 H949 0.930 1_556 S
C965 C964 1.377 . S
C965 C966 1.379 . S
C966 H950 0.931 . S
C966 C960 1.383 . S
C966 C965 1.379 . S
H967 C961 0.959 . S
H968 C961 0.961 . S
H969 C961 0.960 . S
H970 C962 0.930 . S
H971 C963 0.929 . S
H972 C980 0.929 . S
H973 C982 0.930 . S
H974 C984 0.930 . S
H975 C987 0.929 . S
H976 C990 0.930 . S
H977 C992 0.960 . S
H978 C992 0.960 . S
H979 C992 0.960 . S
C980 H972 0.929 . S
C980 C981 1.377 . S
C980 C982 1.384 . S
C981 C980 1.377 . S
C981 C987 1.390 . S
C982 H973 0.930 . S
C982 C980 1.384 . S
C982 C983 1.372 . S
C983 C982 1.372 . S
C983 C984 1.400 . S
C983 C988 1.490 . S
C984 H974 0.930 . S
C984 C983 1.400 . S
C984 C987 1.386 . S
H985 C1001 0.930 1_554 S
H986 C1002 0.931 . S
C987 H975 0.929 . S
C987 C981 1.390 . S
C987 C984 1.386 . S
C988 C983 1.490 . S
C988 C990 1.395 . S
C988 C991 1.403 . S
H989 C995 0.930 . S
C990 H976 0.930 . S
C990 C988 1.395 . S
C990 C993 1.403 . S
C991 C988 1.403 . S
C991 C992 1.524 . S
C991 C995 1.400 . S
C992 H977 0.960 . S
C992 H978 0.960 . S
C992 H979 0.960 . S
C992 C991 1.524 . S
C993 C990 1.403 . S
C993 C994 1.392 . S
C993 C997 1.495 . S
C994 C993 1.392 . S
C994 C995 1.385 . S
C994 C996 1.478 . S
C995 H989 0.930 . S
C995 C991 1.400 . S
C995 C994 1.385 . S
C996 C994 1.478 . S
C996 C998 1.381 . S
C996 C1002 1.383 . S
C997 C993 1.495 . S
C997 H1003 0.959 . S
C997 H1004 0.961 . S
C997 H1005 0.960 . S
C998 C996 1.381 . S
C998 C999 1.394 . S
C998 H1006 0.930 . S
C999 C998 1.394 . S
C999 C1000 1.383 . S
C999 H1007 0.929 . S
C1000 C999 1.383 . S
C1000 C1001 1.377 . S
C1001 H985 0.930 1_556 S
C1001 C1000 1.377 . S
C1001 C1002 1.379 . S
C1002 H986 0.931 . S
C1002 C996 1.383 . S
C1002 C1001 1.379 . S
H1003 C997 0.959 . S
H1004 C997 0.961 . S
H1005 C997 0.960 . S
H1006 C998 0.930 . S
H1007 C999 0.929 . S
H1008 C1016 0.929 1_554 S
H1009 C1018 0.930 . S
H1010 C1020 0.930 . S
H1011 C1023 0.929 . S
H1012 C1026 0.930 . S
H1013 C1028 0.960 . S
H1014 C1028 0.960 . S
H1015 C1028 0.960 . S
C1016 H1008 0.929 1_556 S
C1016 C1017 1.377 . S
C1016 C1018 1.384 . S
C1017 C1016 1.377 . S
C1017 C1023 1.390 . S
C1018 H1009 0.930 . S
C1018 C1016 1.384 . S
C1018 C1019 1.372 . S
C1019 C1018 1.372 . S
C1019 C1020 1.400 . S
C1019 C1024 1.490 . S
C1020 H1010 0.930 . S
C1020 C1019 1.400 . S
C1020 C1023 1.386 . S
H1021 C1037 0.930 . S
H1022 C1038 0.931 . S
C1023 H1011 0.929 . S
C1023 C1017 1.390 . S
C1023 C1020 1.386 . S
C1024 C1019 1.490 . S
C1024 C1026 1.395 . S
C1024 C1027 1.403 . S
H1025 C1031 0.930 . S
C1026 H1012 0.930 . S
C1026 C1024 1.395 . S
C1026 C1029 1.403 . S
C1027 C1024 1.403 . S
C1027 C1028 1.524 . S
C1027 C1031 1.400 . S
C1028 H1013 0.960 . S
C1028 H1014 0.960 . S
C1028 H1015 0.960 . S
C1028 C1027 1.524 . S
C1029 C1026 1.403 . S
C1029 C1030 1.392 . S
C1029 C1033 1.495 . S
C1030 C1029 1.392 . S
C1030 C1031 1.385 . S
C1030 C1032 1.478 . S
C1031 H1025 0.930 . S
C1031 C1027 1.400 . S
C1031 C1030 1.385 . S
C1032 C1030 1.478 . S
C1032 C1034 1.381 . S
C1032 C1038 1.383 . S
C1033 C1029 1.495 . S
C1033 H1039 0.959 . S
C1033 H1040 0.961 . S
C1033 H1041 0.960 . S
C1034 C1032 1.381 . S
C1034 C1035 1.394 . S
C1034 H1042 0.930 . S
C1035 C1034 1.394 . S
C1035 C1036 1.383 . S
C1035 H1043 0.929 . S
C1036 C1035 1.383 . S
C1036 C1037 1.377 . S
C1037 H1021 0.930 . S
C1037 C1036 1.377 . S
C1037 C1038 1.379 . S
C1038 H1022 0.931 . S
C1038 C1032 1.383 . S
C1038 C1037 1.379 . S
H1039 C1033 0.959 . S
H1040 C1033 0.961 . S
H1041 C1033 0.960 . S
H1042 C1034 0.930 . S
H1043 C1035 0.929 . S
H1044 C1052 0.929 . S
H1045 C1054 0.930 . S
H1046 C1056 0.930 . S
H1047 C1059 0.929 . S
H1048 C1062 0.930 . S
H1049 C1064 0.960 . S
H1050 C1064 0.960 . S
H1051 C1064 0.960 . S
C1052 H1044 0.929 . S
C1052 C1053 1.377 . S
C1052 C1054 1.384 . S
C1053 C1052 1.377 . S
C1053 C1059 1.390 . S
C1054 H1045 0.930 . S
C1054 C1052 1.384 . S
C1054 C1055 1.372 . S
C1055 C1054 1.372 . S
C1055 C1056 1.400 . S
C1055 C1060 1.490 . S
C1056 H1046 0.930 . S
C1056 C1055 1.400 . S
C1056 C1059 1.386 . S
H1057 C1073 0.930 . S
H1058 C1074 0.931 . S
C1059 H1047 0.929 . S
C1059 C1053 1.390 . S
C1059 C1056 1.386 . S
C1060 C1055 1.490 . S
C1060 C1062 1.395 . S
C1060 C1063 1.403 . S
H1061 C1067 0.930 . S
C1062 H1048 0.930 . S
C1062 C1060 1.395 . S
C1062 C1065 1.403 . S
C1063 C1060 1.403 . S
C1063 C1064 1.524 . S
C1063 C1067 1.400 . S
C1064 H1049 0.960 . S
C1064 H1050 0.960 . S
C1064 H1051 0.960 . S
C1064 C1063 1.524 . S
C1065 C1062 1.403 . S
C1065 C1066 1.392 . S
C1065 C1069 1.495 . S
C1066 C1065 1.392 . S
C1066 C1067 1.385 . S
C1066 C1068 1.478 . S
C1067 H1061 0.930 . S
C1067 C1063 1.400 . S
C1067 C1066 1.385 . S
C1068 C1066 1.478 . S
C1068 C1070 1.381 . S
C1068 C1074 1.383 . S
C1069 C1065 1.495 . S
C1069 H1075 0.959 . S
C1069 H1076 0.961 . S
C1069 H1077 0.960 . S
C1070 C1068 1.381 . S
C1070 C1071 1.394 . S
C1070 H1078 0.930 . S
C1071 C1070 1.394 . S
C1071 C1072 1.383 . S
C1071 H1079 0.929 . S
C1072 C1071 1.383 . S
C1072 C1073 1.377 . S
C1073 H1057 0.930 . S
C1073 C1072 1.377 . S
C1073 C1074 1.379 . S
C1074 H1058 0.931 . S
C1074 C1068 1.383 . S
C1074 C1073 1.379 . S
H1075 C1069 0.959 . S
H1076 C1069 0.961 . S
H1077 C1069 0.960 . S
H1078 C1070 0.930 . S
H1079 C1071 0.929 . S
H1080 C1088 0.929 . S
H1081 C1090 0.930 . S
H1082 C1092 0.930 . S
H1083 C1095 0.929 . S
H1084 C1098 0.930 . S
H1085 C1100 0.960 . S
H1086 C1100 0.960 . S
H1087 C1100 0.960 . S
C1088 H1080 0.929 . S
C1088 C1089 1.377 . S
C1088 C1090 1.384 . S
C1089 C1088 1.377 . S
C1089 C1095 1.390 . S
C1090 H1081 0.930 . S
C1090 C1088 1.384 . S
C1090 C1091 1.372 . S
C1091 C1090 1.372 . S
C1091 C1092 1.400 . S
C1091 C1096 1.490 . S
C1092 H1082 0.930 . S
C1092 C1091 1.400 . S
C1092 C1095 1.386 . S
H1093 C1109 0.930 . S
H1094 C1110 0.931 . S
C1095 H1083 0.929 . S
C1095 C1089 1.390 . S
C1095 C1092 1.386 . S
C1096 C1091 1.490 . S
C1096 C1098 1.395 . S
C1096 C1099 1.403 . S
H1097 C1103 0.930 . S
C1098 H1084 0.930 . S
C1098 C1096 1.395 . S
C1098 C1101 1.403 . S
C1099 C1096 1.403 . S
C1099 C1100 1.524 . S
C1099 C1103 1.400 . S
C1100 H1085 0.960 . S
C1100 H1086 0.960 . S
C1100 H1087 0.960 . S
C1100 C1099 1.524 . S
C1101 C1098 1.403 . S
C1101 C1102 1.392 . S
C1101 C1105 1.495 . S
C1102 C1101 1.392 . S
C1102 C1103 1.385 . S
C1102 C1104 1.478 . S
C1103 H1097 0.930 . S
C1103 C1099 1.400 . S
C1103 C1102 1.385 . S
C1104 C1102 1.478 . S
C1104 C1106 1.381 . S
C1104 C1110 1.383 . S
C1105 C1101 1.495 . S
C1105 H1111 0.959 . S
C1105 H1112 0.961 . S
C1105 H1113 0.960 . S
C1106 C1104 1.381 . S
C1106 C1107 1.394 . S
C1106 H1114 0.930 . S
C1107 C1106 1.394 . S
C1107 C1108 1.383 . S
C1107 H1115 0.929 . S
C1108 C1107 1.383 . S
C1108 C1109 1.377 . S
C1109 H1093 0.930 . S
C1109 C1108 1.377 . S
C1109 C1110 1.379 . S
C1110 H1094 0.931 . S
C1110 C1104 1.383 . S
C1110 C1109 1.379 . S
H1111 C1105 0.959 . S
H1112 C1105 0.961 . S
H1113 C1105 0.960 . S
H1114 C1106 0.930 . S
H1115 C1107 0.929 . S
H1116 C1124 0.929 . S
H1117 C1126 0.930 . S
H1118 C1128 0.930 . S
H1119 C1131 0.929 . S
H1120 C1134 0.930 . S
H1121 C1136 0.960 . S
H1122 C1136 0.960 . S
H1123 C1136 0.960 . S
C1124 H1116 0.929 . S
C1124 C1125 1.377 . S
C1124 C1126 1.384 . S
C1125 C1124 1.377 . S
C1125 C1131 1.390 . S
C1126 H1117 0.930 . S
C1126 C1124 1.384 . S
C1126 C1127 1.372 . S
C1127 C1126 1.372 . S
C1127 C1128 1.400 . S
C1127 C1132 1.490 . S
C1128 H1118 0.930 . S
C1128 C1127 1.400 . S
C1128 C1131 1.386 . S
H1129 C1145 0.930 . S
H1130 C1146 0.931 . S
C1131 H1119 0.929 . S
C1131 C1125 1.390 . S
C1131 C1128 1.386 . S
C1132 C1127 1.490 . S
C1132 C1134 1.395 . S
C1132 C1135 1.403 . S
H1133 C1139 0.930 . S
C1134 H1120 0.930 . S
C1134 C1132 1.395 . S
C1134 C1137 1.403 . S
C1135 C1132 1.403 . S
C1135 C1136 1.524 . S
C1135 C1139 1.400 . S
C1136 H1121 0.960 . S
C1136 H1122 0.960 . S
C1136 H1123 0.960 . S
C1136 C1135 1.524 . S
C1137 C1134 1.403 . S
C1137 C1138 1.392 . S
C1137 C1141 1.495 . S
C1138 C1137 1.392 . S
C1138 C1139 1.385 . S
C1138 C1140 1.478 . S
C1139 H1133 0.930 . S
C1139 C1135 1.400 . S
C1139 C1138 1.385 . S
C1140 C1138 1.478 . S
C1140 C1142 1.381 . S
C1140 C1146 1.383 . S
C1141 C1137 1.495 . S
C1141 H1147 0.959 . S
C1141 H1148 0.961 . S
C1141 H1149 0.960 . S
C1142 C1140 1.381 . S
C1142 C1143 1.394 . S
C1142 H1150 0.930 . S
C1143 C1142 1.394 . S
C1143 C1144 1.383 . S
C1143 H1151 0.929 . S
C1144 C1143 1.383 . S
C1144 C1145 1.377 . S
C1145 H1129 0.930 . S
C1145 C1144 1.377 . S
C1145 C1146 1.379 . S
C1146 H1130 0.931 . S
C1146 C1140 1.383 . S
C1146 C1145 1.379 . S
H1147 C1141 0.959 . S
H1148 C1141 0.961 . S
H1149 C1141 0.960 . S
H1150 C1142 0.930 . S
H1151 C1143 0.929 . S
H1152 C1160 0.929 . S
H1153 C1162 0.930 . S
H1154 C1164 0.930 . S
H1155 C1167 0.929 . S
H1156 C1170 0.930 . S
H1157 C1172 0.960 . S
H1158 C1172 0.960 . S
H1159 C1172 0.960 . S
C1160 H1152 0.929 . S
C1160 C1161 1.377 . S
C1160 C1162 1.384 . S
C1161 C1160 1.377 . S
C1161 C1167 1.390 . S
C1162 H1153 0.930 . S
C1162 C1160 1.384 . S
C1162 C1163 1.372 . S
C1163 C1162 1.372 . S
C1163 C1164 1.400 . S
C1163 C1168 1.490 . S
C1164 H1154 0.930 . S
C1164 C1163 1.400 . S
C1164 C1167 1.386 . S
H1165 C1181 0.930 . S
H1166 C1182 0.931 . S
C1167 H1155 0.929 . S
C1167 C1161 1.390 . S
C1167 C1164 1.386 . S
C1168 C1163 1.490 . S
C1168 C1170 1.395 . S
C1168 C1171 1.403 . S
H1169 C1175 0.930 . S
C1170 H1156 0.930 . S
C1170 C1168 1.395 . S
C1170 C1173 1.403 . S
C1171 C1168 1.403 . S
C1171 C1172 1.524 . S
C1171 C1175 1.400 . S
C1172 H1157 0.960 . S
C1172 H1158 0.960 . S
C1172 H1159 0.960 . S
C1172 C1171 1.524 . S
C1173 C1170 1.403 . S
C1173 C1174 1.392 . S
C1173 C1177 1.495 . S
C1174 C1173 1.392 . S
C1174 C1175 1.385 . S
C1174 C1176 1.478 . S
C1175 H1169 0.930 . S
C1175 C1171 1.400 . S
C1175 C1174 1.385 . S
C1176 C1174 1.478 . S
C1176 C1178 1.381 . S
C1176 C1182 1.383 1_556 S
C1177 C1173 1.495 . S
C1177 H1183 0.959 . S
C1177 H1184 0.961 . S
C1177 H1185 0.960 . S
C1178 C1176 1.381 . S
C1178 C1179 1.394 1_556 S
C1178 H1186 0.930 . S
C1179 C1178 1.394 1_554 S
C1179 C1180 1.383 . S
C1179 H1187 0.929 . S
C1180 C1179 1.383 . S
C1180 C1181 1.377 . S
C1181 H1165 0.930 . S
C1181 C1180 1.377 . S
C1181 C1182 1.379 . S
C1182 H1166 0.931 . S
C1182 C1176 1.383 1_554 S
C1182 C1181 1.379 . S
H1183 C1177 0.959 . S
H1184 C1177 0.961 . S
H1185 C1177 0.960 . S
H1186 C1178 0.930 . S
H1187 C1179 0.929 . S
H1188 C1196 0.929 . S
H1189 C1198 0.930 . S
H1190 C1200 0.930 . S
H1191 C1203 0.929 . S
H1192 C1206 0.930 . S
H1193 C1208 0.960 . S
H1194 C1208 0.960 . S
H1195 C1208 0.960 . S
C1196 H1188 0.929 . S
C1196 C1197 1.377 . S
C1196 C1198 1.384 . S
C1197 C1196 1.377 . S
C1197 C1203 1.390 . S
C1198 H1189 0.930 . S
C1198 C1196 1.384 . S
C1198 C1199 1.372 1_554 S
C1199 C1198 1.372 1_556 S
C1199 C1200 1.400 . S
C1199 C1204 1.490 . S
C1200 H1190 0.930 . S
C1200 C1199 1.400 . S
C1200 C1203 1.386 1_556 S
H1201 C1217 0.930 . S
H1202 C1218 0.931 . S
C1203 H1191 0.929 . S
C1203 C1197 1.390 . S
C1203 C1200 1.386 1_554 S
C1204 C1199 1.490 . S
C1204 C1206 1.395 . S
C1204 C1207 1.403 . S
H1205 C1211 0.930 . S
C1206 H1192 0.930 . S
C1206 C1204 1.395 . S
C1206 C1209 1.403 . S
C1207 C1204 1.403 . S
C1207 C1208 1.524 . S
C1207 C1211 1.400 . S
C1208 H1193 0.960 . S
C1208 H1194 0.960 . S
C1208 H1195 0.960 . S
C1208 C1207 1.524 . S
C1209 C1206 1.403 . S
C1209 C1210 1.392 . S
C1209 C1213 1.495 . S
C1210 C1209 1.392 . S
C1210 C1211 1.385 . S
C1210 C1212 1.478 . S
C1211 H1205 0.930 . S
C1211 C1207 1.400 . S
C1211 C1210 1.385 . S
C1212 C1210 1.478 . S
C1212 C1214 1.381 . S
C1212 C1218 1.383 . S
C1213 C1209 1.495 . S
C1213 H1219 0.959 . S
C1213 H1220 0.961 . S
C1213 H1221 0.960 . S
C1214 C1212 1.381 . S
C1214 C1215 1.394 . S
C1214 H1222 0.930 . S
C1215 C1214 1.394 . S
C1215 C1216 1.383 . S
C1215 H1223 0.929 . S
C1216 C1215 1.383 . S
C1216 C1217 1.377 . S
C1217 H1201 0.930 . S
C1217 C1216 1.377 . S
C1217 C1218 1.379 . S
C1218 H1202 0.931 . S
C1218 C1212 1.383 . S
C1218 C1217 1.379 . S
H1219 C1213 0.959 . S
H1220 C1213 0.961 . S
H1221 C1213 0.960 . S
H1222 C1214 0.930 . S
H1223 C1215 0.929 . S
H1224 C1232 0.929 . S
H1225 C1234 0.930 1_556 S
H1226 C1236 0.930 . S
H1227 C1239 0.929 . S
H1228 C1242 0.930 . S
H1229 C1244 0.960 . S
H1230 C1244 0.960 . S
H1231 C1244 0.960 . S
C1232 H1224 0.929 . S
C1232 C1233 1.377 . S
C1232 C1234 1.384 . S
C1233 C1232 1.377 . S
C1233 C1239 1.390 . S
C1234 H1225 0.930 1_554 S
C1234 C1232 1.384 . S
C1234 C1235 1.372 1_554 S
C1235 C1234 1.372 1_556 S
C1235 C1236 1.400 . S
C1235 C1240 1.490 . S
C1236 H1226 0.930 . S
C1236 C1235 1.400 . S
C1236 C1239 1.386 1_556 S
H1237 C1253 0.930 . S
H1238 C1254 0.931 . S
C1239 H1227 0.929 . S
C1239 C1233 1.390 . S
C1239 C1236 1.386 1_554 S
C1240 C1235 1.490 . S
C1240 C1242 1.395 . S
C1240 C1243 1.403 . S
H1241 C1247 0.930 . S
C1242 H1228 0.930 . S
C1242 C1240 1.395 . S
C1242 C1245 1.403 . S
C1243 C1240 1.403 . S
C1243 C1244 1.524 . S
C1243 C1247 1.400 . S
C1244 H1229 0.960 . S
C1244 H1230 0.960 . S
C1244 H1231 0.960 . S
C1244 C1243 1.524 . S
C1245 C1242 1.403 . S
C1245 C1246 1.392 . S
C1245 C1249 1.495 . S
C1246 C1245 1.392 . S
C1246 C1247 1.385 . S
C1246 C1248 1.478 . S
C1247 H1241 0.930 . S
C1247 C1243 1.400 . S
C1247 C1246 1.385 . S
C1248 C1246 1.478 . S
C1248 C1250 1.381 . S
C1248 C1254 1.383 . S
C1249 C1245 1.495 . S
C1249 H1255 0.959 . S
C1249 H1256 0.961 . S
C1249 H1257 0.960 . S
C1250 C1248 1.381 . S
C1250 C1251 1.394 . S
C1250 H1258 0.930 . S
C1251 C1250 1.394 . S
C1251 C1252 1.383 . S
C1251 H1259 0.929 . S
C1252 C1251 1.383 . S
C1252 C1253 1.377 . S
C1253 H1237 0.930 . S
C1253 C1252 1.377 . S
C1253 C1254 1.379 . S
C1254 H1238 0.931 . S
C1254 C1248 1.383 . S
C1254 C1253 1.379 . S
H1255 C1249 0.959 . S
H1256 C1249 0.961 . S
H1257 C1249 0.960 . S
H1258 C1250 0.930 . S
H1259 C1251 0.929 . S
H1260 C1268 0.929 . S
H1261 C1270 0.930 . S
H1262 C1272 0.930 . S
H1263 C1275 0.929 . S
H1264 C1278 0.930 . S
H1265 C1280 0.960 . S
H1266 C1280 0.960 . S
H1267 C1280 0.960 . S
C1268 H1260 0.929 . S
C1268 C1269 1.377 . S
C1268 C1270 1.384 . S
C1269 C1268 1.377 . S
C1269 C1275 1.390 . S
C1270 H1261 0.930 . S
C1270 C1268 1.384 . S
C1270 C1271 1.372 . S
C1271 C1270 1.372 . S
C1271 C1272 1.400 . S
C1271 C1276 1.490 . S
C1272 H1262 0.930 . S
C1272 C1271 1.400 . S
C1272 C1275 1.386 . S
H1273 C1289 0.930 . S
H1274 C1290 0.931 . S
C1275 H1263 0.929 . S
C1275 C1269 1.390 . S
C1275 C1272 1.386 . S
C1276 C1271 1.490 . S
C1276 C1278 1.395 . S
C1276 C1279 1.403 . S
H1277 C1283 0.930 . S
C1278 H1264 0.930 . S
C1278 C1276 1.395 . S
C1278 C1281 1.403 . S
C1279 C1276 1.403 . S
C1279 C1280 1.524 . S
C1279 C1283 1.400 . S
C1280 H1265 0.960 . S
C1280 H1266 0.960 . S
C1280 H1267 0.960 . S
C1280 C1279 1.524 . S
C1281 C1278 1.403 . S
C1281 C1282 1.392 . S
C1281 C1285 1.495 . S
C1282 C1281 1.392 . S
C1282 C1283 1.385 . S
C1282 C1284 1.478 . S
C1283 H1277 0.930 . S
C1283 C1279 1.400 . S
C1283 C1282 1.385 . S
C1284 C1282 1.478 . S
C1284 C1286 1.381 . S
C1284 C1290 1.383 . S
C1285 C1281 1.495 . S
C1285 H1291 0.959 . S
C1285 H1292 0.961 . S
C1285 H1293 0.960 . S
C1286 C1284 1.381 . S
C1286 C1287 1.394 . S
C1286 H1294 0.930 . S
C1287 C1286 1.394 . S
C1287 C1288 1.383 . S
C1287 H1295 0.929 . S
C1288 C1287 1.383 . S
C1288 C1289 1.377 . S
C1289 H1273 0.930 . S
C1289 C1288 1.377 . S
C1289 C1290 1.379 . S
C1290 H1274 0.931 . S
C1290 C1284 1.383 . S
C1290 C1289 1.379 . S
H1291 C1285 0.959 . S
H1292 C1285 0.961 . S
H1293 C1285 0.960 . S
H1294 C1286 0.930 . S
H1295 C1287 0.929 . S
H1296 C1304 0.929 . S
H1297 C1306 0.930 . S
H1298 C1308 0.930 . S
H1299 C1311 0.929 . S
H1300 C1314 0.930 . S
H1301 C1316 0.960 . S
H1302 C1316 0.960 . S
H1303 C1316 0.960 . S
C1304 H1296 0.929 . S
C1304 C1305 1.377 . S
C1304 C1306 1.384 . S
C1305 C1304 1.377 . S
C1305 C1311 1.390 . S
C1306 H1297 0.930 . S
C1306 C1304 1.384 . S
C1306 C1307 1.372 . S
C1307 C1306 1.372 . S
C1307 C1308 1.400 . S
C1307 C1312 1.490 . S
C1308 H1298 0.930 . S
C1308 C1307 1.400 . S
C1308 C1311 1.386 . S
H1309 C1325 0.930 . S
H1310 C1326 0.931 . S
C1311 H1299 0.929 . S
C1311 C1305 1.390 . S
C1311 C1308 1.386 . S
C1312 C1307 1.490 . S
C1312 C1314 1.395 . S
C1312 C1315 1.403 . S
H1313 C1319 0.930 . S
C1314 H1300 0.930 . S
C1314 C1312 1.395 . S
C1314 C1317 1.403 . S
C1315 C1312 1.403 . S
C1315 C1316 1.524 . S
C1315 C1319 1.400 . S
C1316 H1301 0.960 . S
C1316 H1302 0.960 . S
C1316 H1303 0.960 . S
C1316 C1315 1.524 . S
C1317 C1314 1.403 . S
C1317 C1318 1.392 . S
C1317 C1321 1.495 . S
C1318 C1317 1.392 . S
C1318 C1319 1.385 . S
C1318 C1320 1.478 . S
C1319 H1313 0.930 . S
C1319 C1315 1.400 . S
C1319 C1318 1.385 . S
C1320 C1318 1.478 . S
C1320 C1322 1.381 . S
C1320 C1326 1.383 . S
C1321 C1317 1.495 . S
C1321 H1327 0.959 . S
C1321 H1328 0.961 . S
C1321 H1329 0.960 . S
C1322 C1320 1.381 . S
C1322 C1323 1.394 . S
C1322 H1330 0.930 . S
C1323 C1322 1.394 . S
C1323 C1324 1.383 . S
C1323 H1331 0.929 . S
C1324 C1323 1.383 . S
C1324 C1325 1.377 . S
C1325 H1309 0.930 . S
C1325 C1324 1.377 . S
C1325 C1326 1.379 . S
C1326 H1310 0.931 . S
C1326 C1320 1.383 . S
C1326 C1325 1.379 . S
H1327 C1321 0.959 . S
H1328 C1321 0.961 . S
H1329 C1321 0.960 . S
H1330 C1322 0.930 . S
H1331 C1323 0.929 . S
H1332 C1340 0.929 . S
H1333 C1342 0.930 . S
H1334 C1344 0.930 . S
H1335 C1347 0.929 . S
H1336 C1350 0.930 . S
H1337 C1352 0.960 . S
H1338 C1352 0.960 . S
H1339 C1352 0.960 . S
C1340 H1332 0.929 . S
C1340 C1341 1.377 . S
C1340 C1342 1.384 . S
C1341 C1340 1.377 . S
C1341 C1347 1.390 . S
C1342 H1333 0.930 . S
C1342 C1340 1.384 . S
C1342 C1343 1.372 . S
C1343 C1342 1.372 . S
C1343 C1344 1.400 . S
C1343 C1348 1.490 . S
C1344 H1334 0.930 . S
C1344 C1343 1.400 . S
C1344 C1347 1.386 . S
H1345 C1361 0.930 . S
H1346 C1362 0.931 . S
C1347 H1335 0.929 . S
C1347 C1341 1.390 . S
C1347 C1344 1.386 . S
C1348 C1343 1.490 . S
C1348 C1350 1.395 . S
C1348 C1351 1.403 . S
H1349 C1355 0.930 . S
C1350 H1336 0.930 . S
C1350 C1348 1.395 . S
C1350 C1353 1.403 . S
C1351 C1348 1.403 . S
C1351 C1352 1.524 . S
C1351 C1355 1.400 . S
C1352 H1337 0.960 . S
C1352 H1338 0.960 . S
C1352 H1339 0.960 . S
C1352 C1351 1.524 . S
C1353 C1350 1.403 . S
C1353 C1354 1.392 . S
C1353 C1357 1.495 . S
C1354 C1353 1.392 . S
C1354 C1355 1.385 . S
C1354 C1356 1.478 . S
C1355 H1349 0.930 . S
C1355 C1351 1.400 . S
C1355 C1354 1.385 . S
C1356 C1354 1.478 . S
C1356 C1358 1.381 . S
C1356 C1362 1.383 . S
C1357 C1353 1.495 . S
C1357 H1363 0.959 . S
C1357 H1364 0.961 . S
C1357 H1365 0.960 . S
C1358 C1356 1.381 . S
C1358 C1359 1.394 . S
C1358 H1366 0.930 . S
C1359 C1358 1.394 . S
C1359 C1360 1.383 . S
C1359 H1367 0.929 . S
C1360 C1359 1.383 . S
C1360 C1361 1.377 . S
C1361 H1345 0.930 . S
C1361 C1360 1.377 . S
C1361 C1362 1.379 . S
C1362 H1346 0.931 . S
C1362 C1356 1.383 . S
C1362 C1361 1.379 . S
H1363 C1357 0.959 . S
H1364 C1357 0.961 . S
H1365 C1357 0.960 . S
H1366 C1358 0.930 . S
H1367 C1359 0.929 . S
H1368 C1376 0.929 . S
H1369 C1378 0.930 . S
H1370 C1380 0.930 . S
H1371 C1383 0.929 . S
H1372 C1386 0.930 . S
H1373 C1388 0.960 . S
H1374 C1388 0.960 . S
H1375 C1388 0.960 . S
C1376 H1368 0.929 . S
C1376 C1377 1.377 . S
C1376 C1378 1.384 . S
C1377 C1376 1.377 . S
C1377 C1383 1.390 . S
C1378 H1369 0.930 . S
C1378 C1376 1.384 . S
C1378 C1379 1.372 1_556 S
C1379 C1378 1.372 1_554 S
C1379 C1380 1.400 . S
C1379 C1384 1.490 . S
C1380 H1370 0.930 . S
C1380 C1379 1.400 . S
C1380 C1383 1.386 1_554 S
H1381 C1397 0.930 . S
H1382 C1398 0.931 . S
C1383 H1371 0.929 . S
C1383 C1377 1.390 . S
C1383 C1380 1.386 1_556 S
C1384 C1379 1.490 . S
C1384 C1386 1.395 . S
C1384 C1387 1.403 . S
H1385 C1391 0.930 . S
C1386 H1372 0.930 . S
C1386 C1384 1.395 . S
C1386 C1389 1.403 . S
C1387 C1384 1.403 . S
C1387 C1388 1.524 . S
C1387 C1391 1.400 . S
C1388 H1373 0.960 . S
C1388 H1374 0.960 . S
C1388 H1375 0.960 . S
C1388 C1387 1.524 . S
C1389 C1386 1.403 . S
C1389 C1390 1.392 . S
C1389 C1393 1.495 . S
C1390 C1389 1.392 . S
C1390 C1391 1.385 . S
C1390 C1392 1.478 . S
C1391 H1385 0.930 . S
C1391 C1387 1.400 . S
C1391 C1390 1.385 . S
C1392 C1390 1.478 . S
C1392 C1394 1.381 . S
C1392 C1398 1.383 . S
C1393 C1389 1.495 . S
C1393 H1399 0.959 . S
C1393 H1400 0.961 . S
C1393 H1401 0.960 . S
C1394 C1392 1.381 . S
C1394 C1395 1.394 . S
C1394 H1402 0.930 . S
C1395 C1394 1.394 . S
C1395 C1396 1.383 . S
C1395 H1403 0.929 . S
C1396 C1395 1.383 . S
C1396 C1397 1.377 . S
C1397 H1381 0.930 . S
C1397 C1396 1.377 . S
C1397 C1398 1.379 . S
C1398 H1382 0.931 . S
C1398 C1392 1.383 . S
C1398 C1397 1.379 . S
H1399 C1393 0.959 . S
H1400 C1393 0.961 . S
H1401 C1393 0.960 . S
H1402 C1394 0.930 . S
H1403 C1395 0.929 . S
H1404 C1412 0.931 . S
H1405 C1414 0.930 . S
H1406 C1416 0.930 . S
H1407 C1419 0.929 . S
H1408 C1422 0.930 . S
H1409 C1424 0.960 . S
H1410 C1424 0.960 . S
H1411 C1424 0.960 . S
C1412 H1404 0.931 . S
C1412 C1413 1.377 . S
C1412 C1414 1.384 1_556 S
C1413 C1412 1.377 . S
C1413 C1419 1.390 . S
C1414 H1405 0.930 . S
C1414 C1412 1.384 1_554 S
C1414 C1415 1.372 . S
C1415 C1414 1.372 . S
C1415 C1416 1.400 1_554 S
C1415 C1420 1.490 . S
C1416 H1406 0.930 . S
C1416 C1415 1.400 1_556 S
C1416 C1419 1.386 . S
H1417 C1433 0.930 . S
H1418 C1434 0.931 . S
C1419 H1407 0.929 . S
C1419 C1413 1.390 . S
C1419 C1416 1.386 . S
C1420 C1415 1.490 . S
C1420 C1422 1.395 . S
C1420 C1423 1.403 . S
H1421 C1427 0.930 . S
C1422 H1408 0.930 . S
C1422 C1420 1.395 . S
C1422 C1425 1.403 . S
C1423 C1420 1.403 . S
C1423 C1424 1.524 . S
C1423 C1427 1.400 . S
C1424 H1409 0.960 . S
C1424 H1410 0.960 . S
C1424 H1411 0.960 . S
C1424 C1423 1.524 . S
C1425 C1422 1.403 . S
C1425 C1426 1.392 . S
C1425 C1429 1.495 . S
C1426 C1425 1.392 . S
C1426 C1427 1.385 . S
C1426 C1428 1.478 . S
C1427 H1421 0.930 . S
C1427 C1423 1.400 . S
C1427 C1426 1.385 . S
C1428 C1426 1.478 . S
C1428 C1430 1.381 . S
C1428 C1434 1.383 . S
C1429 C1425 1.495 . S
C1429 H1435 0.959 . S
C1429 H1436 0.961 . S
C1429 H1437 0.960 . S
C1430 C1428 1.381 . S
C1430 C1431 1.394 . S
C1430 H1438 0.930 . S
C1431 C1430 1.394 . S
C1431 C1432 1.383 . S
C1431 H1439 0.929 . S
C1432 C1431 1.383 . S
C1432 C1433 1.377 . S
C1433 H1417 0.930 . S
C1433 C1432 1.377 . S
C1433 C1434 1.379 . S
C1434 H1418 0.931 . S
C1434 C1428 1.383 . S
C1434 C1433 1.379 . S
H1435 C1429 0.959 . S
H1436 C1429 0.961 . S
H1437 C1429 0.960 . S
H1438 C1430 0.930 . S
H1439 C1431 0.929 . S
H1440 C1448 0.929 . S
H1441 C1450 0.930 . S
H1442 C1452 0.930 . S
H1443 C1455 0.929 . S
H1444 C1458 0.930 . S
H1445 C1460 0.960 . S
H1446 C1460 0.960 . S
H1447 C1460 0.960 . S
C1448 H1440 0.929 . S
C1448 C1449 1.377 . S
C1448 C1450 1.384 . S
C1449 C1448 1.377 . S
C1449 C1455 1.390 . S
C1450 H1441 0.930 . S
C1450 C1448 1.384 . S
C1450 C1451 1.372 . S
C1451 C1450 1.372 . S
C1451 C1452 1.400 . S
C1451 C1456 1.490 . S
C1452 H1442 0.930 . S
C1452 C1451 1.400 . S
C1452 C1455 1.386 . S
H1453 C1469 0.930 . S
H1454 C1470 0.931 . S
C1455 H1443 0.929 . S
C1455 C1449 1.390 . S
C1455 C1452 1.386 . S
C1456 C1451 1.490 . S
C1456 C1458 1.395 . S
C1456 C1459 1.403 . S
H1457 C1463 0.930 . S
C1458 H1444 0.930 . S
C1458 C1456 1.395 . S
C1458 C1461 1.403 . S
C1459 C1456 1.403 . S
C1459 C1460 1.524 . S
C1459 C1463 1.400 . S
C1460 H1445 0.960 . S
C1460 H1446 0.960 . S
C1460 H1447 0.960 . S
C1460 C1459 1.524 . S
C1461 C1458 1.403 . S
C1461 C1462 1.392 . S
C1461 C1465 1.495 . S
C1462 C1461 1.392 . S
C1462 C1463 1.385 . S
C1462 C1464 1.478 . S
C1463 H1457 0.930 . S
C1463 C1459 1.400 . S
C1463 C1462 1.385 . S
C1464 C1462 1.478 . S
C1464 C1466 1.381 . S
C1464 C1470 1.383 . S
C1465 C1461 1.495 . S
C1465 H1471 0.959 . S
C1465 H1472 0.961 . S
C1465 H1473 0.960 . S
C1466 C1464 1.381 . S
C1466 C1467 1.394 1_554 S
C1466 H1474 0.930 . S
C1467 C1466 1.394 1_556 S
C1467 C1468 1.383 . S
C1467 H1475 0.929 . S
C1468 C1467 1.383 . S
C1468 C1469 1.377 . S
C1469 H1453 0.930 . S
C1469 C1468 1.377 . S
C1469 C1470 1.379 1_556 S
C1470 H1454 0.931 . S
C1470 C1464 1.383 . S
C1470 C1469 1.379 1_554 S
H1471 C1465 0.959 . S
H1472 C1465 0.961 . S
H1473 C1465 0.960 . S
H1474 C1466 0.930 . S
H1475 C1467 0.929 . S
H1476 C1484 0.929 . S
H1477 C1486 0.930 . S
H1478 C1488 0.930 . S
H1479 C1491 0.929 . S
H1480 C1494 0.930 . S
H1481 C1496 0.960 . S
H1482 C1496 0.960 . S
H1483 C1496 0.960 . S
C1484 H1476 0.929 . S
C1484 C1485 1.377 . S
C1484 C1486 1.384 . S
C1485 C1484 1.377 . S
C1485 C1491 1.390 . S
C1486 H1477 0.930 . S
C1486 C1484 1.384 . S
C1486 C1487 1.372 . S
C1487 C1486 1.372 . S
C1487 C1488 1.400 . S
C1487 C1492 1.490 . S
C1488 H1478 0.930 . S
C1488 C1487 1.400 . S
C1488 C1491 1.386 . S
H1489 C1505 0.930 . S
H1490 C1506 0.931 . S
C1491 H1479 0.929 . S
C1491 C1485 1.390 . S
C1491 C1488 1.386 . S
C1492 C1487 1.490 . S
C1492 C1494 1.395 . S
C1492 C1495 1.403 . S
H1493 C1499 0.930 . S
C1494 H1480 0.930 . S
C1494 C1492 1.395 . S
C1494 C1497 1.403 . S
C1495 C1492 1.403 . S
C1495 C1496 1.524 . S
C1495 C1499 1.400 . S
C1496 H1481 0.960 . S
C1496 H1482 0.960 . S
C1496 H1483 0.960 . S
C1496 C1495 1.524 . S
C1497 C1494 1.403 . S
C1497 C1498 1.392 . S
C1497 C1501 1.495 . S
C1498 C1497 1.392 . S
C1498 C1499 1.385 . S
C1498 C1500 1.478 . S
C1499 H1493 0.930 . S
C1499 C1495 1.400 . S
C1499 C1498 1.385 . S
C1500 C1498 1.478 . S
C1500 C1502 1.381 . S
C1500 C1506 1.383 . S
C1501 C1497 1.495 . S
C1501 H1507 0.959 . S
C1501 H1508 0.961 . S
C1501 H1509 0.960 . S
C1502 C1500 1.381 . S
C1502 C1503 1.394 . S
C1502 H1510 0.930 . S
C1503 C1502 1.394 . S
C1503 C1504 1.383 . S
C1503 H1511 0.929 . S
C1504 C1503 1.383 . S
C1504 C1505 1.377 . S
C1505 H1489 0.930 . S
C1505 C1504 1.377 . S
C1505 C1506 1.379 . S
C1506 H1490 0.931 . S
C1506 C1500 1.383 . S
C1506 C1505 1.379 . S
H1507 C1501 0.959 . S
H1508 C1501 0.961 . S
H1509 C1501 0.960 . S
H1510 C1502 0.930 . S
H1511 C1503 0.929 . S
H1512 C1520 0.929 . S
H1513 C1522 0.930 . S
H1514 C1524 0.930 . S
H1515 C1527 0.929 . S
H1516 C1530 0.930 . S
H1517 C1532 0.960 . S
H1518 C1532 0.960 . S
H1519 C1532 0.960 . S
C1520 H1512 0.929 . S
C1520 C1521 1.377 . S
C1520 C1522 1.384 . S
C1521 C1520 1.377 . S
C1521 C1527 1.390 . S
C1522 H1513 0.930 . S
C1522 C1520 1.384 . S
C1522 C1523 1.372 . S
C1523 C1522 1.372 . S
C1523 C1524 1.400 . S
C1523 C1528 1.490 . S
C1524 H1514 0.930 . S
C1524 C1523 1.400 . S
C1524 C1527 1.386 . S
H1525 C1541 0.930 . S
H1526 C1542 0.931 . S
C1527 H1515 0.929 . S
C1527 C1521 1.390 . S
C1527 C1524 1.386 . S
C1528 C1523 1.490 . S
C1528 C1530 1.395 . S
C1528 C1531 1.403 . S
H1529 C1535 0.930 . S
C1530 H1516 0.930 . S
C1530 C1528 1.395 . S
C1530 C1533 1.403 . S
C1531 C1528 1.403 . S
C1531 C1532 1.524 . S
C1531 C1535 1.400 . S
C1532 H1517 0.960 . S
C1532 H1518 0.960 . S
C1532 H1519 0.960 . S
C1532 C1531 1.524 . S
C1533 C1530 1.403 . S
C1533 C1534 1.392 . S
C1533 C1537 1.495 . S
C1534 C1533 1.392 . S
C1534 C1535 1.385 . S
C1534 C1536 1.478 . S
C1535 H1529 0.930 . S
C1535 C1531 1.400 . S
C1535 C1534 1.385 . S
C1536 C1534 1.478 . S
C1536 C1538 1.381 . S
C1536 C1542 1.383 . S
C1537 C1533 1.495 . S
C1537 H1543 0.959 . S
C1537 H1544 0.961 . S
C1537 H1545 0.960 . S
C1538 C1536 1.381 . S
C1538 C1539 1.394 . S
C1538 H1546 0.930 . S
C1539 C1538 1.394 . S
C1539 C1540 1.383 . S
C1539 H1547 0.929 . S
C1540 C1539 1.383 . S
C1540 C1541 1.377 . S
C1541 H1525 0.930 . S
C1541 C1540 1.377 . S
C1541 C1542 1.379 . S
C1542 H1526 0.931 . S
C1542 C1536 1.383 . S
C1542 C1541 1.379 . S
H1543 C1537 0.959 . S
H1544 C1537 0.961 . S
H1545 C1537 0.960 . S
H1546 C1538 0.930 . S
H1547 C1539 0.929 . S
H1548 C1556 0.929 . S
H1549 C1558 0.930 . S
H1550 C1560 0.930 . S
H1551 C1563 0.929 . S
H1552 C1566 0.930 . S
H1553 C1568 0.960 . S
H1554 C1568 0.960 . S
H1555 C1568 0.960 . S
C1556 H1548 0.929 . S
C1556 C1557 1.377 . S
C1556 C1558 1.384 . S
C1557 C1556 1.377 . S
C1557 C1563 1.390 . S
C1558 H1549 0.930 . S
C1558 C1556 1.384 . S
C1558 C1559 1.372 . S
C1559 C1558 1.372 . S
C1559 C1560 1.400 . S
C1559 C1564 1.490 . S
C1560 H1550 0.930 . S
C1560 C1559 1.400 . S
C1560 C1563 1.386 . S
H1561 C1577 0.930 . S
H1562 C1578 0.931 . S
C1563 H1551 0.929 . S
C1563 C1557 1.390 . S
C1563 C1560 1.386 . S
C1564 C1559 1.490 . S
C1564 C1566 1.395 . S
C1564 C1567 1.403 . S
H1565 C1571 0.930 . S
C1566 H1552 0.930 . S
C1566 C1564 1.395 . S
C1566 C1569 1.403 . S
C1567 C1564 1.403 . S
C1567 C1568 1.524 . S
C1567 C1571 1.400 . S
C1568 H1553 0.960 . S
C1568 H1554 0.960 . S
C1568 H1555 0.960 . S
C1568 C1567 1.524 . S
C1569 C1566 1.403 . S
C1569 C1570 1.392 . S
C1569 C1573 1.495 . S
C1570 C1569 1.392 . S
C1570 C1571 1.385 . S
C1570 C1572 1.478 . S
C1571 H1565 0.930 . S
C1571 C1567 1.400 . S
C1571 C1570 1.385 . S
C1572 C1570 1.478 . S
C1572 C1574 1.381 . S
C1572 C1578 1.383 . S
C1573 C1569 1.495 . S
C1573 H1579 0.959 . S
C1573 H1580 0.961 . S
C1573 H1581 0.960 . S
C1574 C1572 1.381 . S
C1574 C1575 1.394 . S
C1574 H1582 0.930 . S
C1575 C1574 1.394 . S
C1575 C1576 1.383 . S
C1575 H1583 0.929 . S
C1576 C1575 1.383 . S
C1576 C1577 1.377 . S
C1577 H1561 0.930 . S
C1577 C1576 1.377 . S
C1577 C1578 1.379 . S
C1578 H1562 0.931 . S
C1578 C1572 1.383 . S
C1578 C1577 1.379 . S
H1579 C1573 0.959 . S
H1580 C1573 0.961 . S
H1581 C1573 0.960 . S
H1582 C1574 0.930 . S
H1583 C1575 0.929 . S
H1584 C1592 0.929 . S
H1585 C1594 0.930 . S
H1586 C1596 0.930 . S
H1587 C1599 0.929 . S
H1588 C1602 0.930 . S
H1589 C1604 0.960 . S
H1590 C1604 0.960 . S
H1591 C1604 0.960 . S
C1592 H1584 0.929 . S
C1592 C1593 1.377 . S
C1592 C1594 1.384 . S
C1593 C1592 1.377 . S
C1593 C1599 1.390 . S
C1594 H1585 0.930 . S
C1594 C1592 1.384 . S
C1594 C1595 1.372 . S
C1595 C1594 1.372 . S
C1595 C1596 1.400 . S
C1595 C1600 1.490 . S
C1596 H1586 0.930 . S
C1596 C1595 1.400 . S
C1596 C1599 1.386 . S
H1597 C1613 0.930 . S
H1598 C1614 0.931 . S
C1599 H1587 0.929 . S
C1599 C1593 1.390 . S
C1599 C1596 1.386 . S
C1600 C1595 1.490 . S
C1600 C1602 1.395 . S
C1600 C1603 1.403 . S
H1601 C1607 0.930 . S
C1602 H1588 0.930 . S
C1602 C1600 1.395 . S
C1602 C1605 1.403 . S
C1603 C1600 1.403 . S
C1603 C1604 1.524 . S
C1603 C1607 1.400 . S
C1604 H1589 0.960 . S
C1604 H1590 0.960 . S
C1604 H1591 0.960 . S
C1604 C1603 1.524 . S
C1605 C1602 1.403 . S
C1605 C1606 1.392 . S
C1605 C1609 1.495 . S
C1606 C1605 1.392 . S
C1606 C1607 1.385 . S
C1606 C1608 1.478 . S
C1607 H1601 0.930 . S
C1607 C1603 1.400 . S
C1607 C1606 1.385 . S
C1608 C1606 1.478 . S
C1608 C1610 1.381 . S
C1608 C1614 1.383 . S
C1609 C1605 1.495 . S
C1609 H1615 0.959 . S
C1609 H1616 0.961 . S
C1609 H1617 0.960 . S
C1610 C1608 1.381 . S
C1610 C1611 1.394 . S
C1610 H1618 0.930 . S
C1611 C1610 1.394 . S
C1611 C1612 1.383 . S
C1611 H1619 0.929 . S
C1612 C1611 1.383 . S
C1612 C1613 1.377 . S
C1613 H1597 0.930 . S
C1613 C1612 1.377 . S
C1613 C1614 1.379 . S
C1614 H1598 0.931 . S
C1614 C1608 1.383 . S
C1614 C1613 1.379 . S
H1615 C1609 0.959 . S
H1616 C1609 0.961 . S
H1617 C1609 0.960 . S
H1618 C1610 0.930 . S
H1619 C1611 0.929 . S
H1620 C1628 0.929 . S
H1621 C1630 0.930 . S
H1622 C1632 0.930 . S
H1623 C1635 0.929 . S
H1624 C1638 0.930 . S
H1625 C1640 0.960 . S
H1626 C1640 0.960 . S
H1627 C1640 0.960 . S
C1628 H1620 0.929 . S
C1628 C1629 1.377 . S
C1628 C1630 1.384 . S
C1629 C1628 1.377 . S
C1629 C1635 1.390 . S
C1630 H1621 0.930 . S
C1630 C1628 1.384 . S
C1630 C1631 1.372 . S
C1631 C1630 1.372 . S
C1631 C1632 1.400 . S
C1631 C1636 1.490 . S
C1632 H1622 0.930 . S
C1632 C1631 1.400 . S
C1632 C1635 1.386 . S
H1633 C1649 0.930 . S
H1634 C1650 0.931 . S
C1635 H1623 0.929 . S
C1635 C1629 1.390 . S
C1635 C1632 1.386 . S
C1636 C1631 1.490 . S
C1636 C1638 1.395 . S
C1636 C1639 1.403 . S
H1637 C1643 0.930 . S
C1638 H1624 0.930 . S
C1638 C1636 1.395 . S
C1638 C1641 1.403 . S
C1639 C1636 1.403 . S
C1639 C1640 1.524 . S
C1639 C1643 1.400 . S
C1640 H1625 0.960 . S
C1640 H1626 0.960 . S
C1640 H1627 0.960 . S
C1640 C1639 1.524 . S
C1641 C1638 1.403 . S
C1641 C1642 1.392 . S
C1641 C1645 1.495 . S
C1642 C1641 1.392 . S
C1642 C1643 1.385 . S
C1642 C1644 1.478 . S
C1643 H1637 0.930 . S
C1643 C1639 1.400 . S
C1643 C1642 1.385 . S
C1644 C1642 1.478 . S
C1644 C1646 1.381 . S
C1644 C1650 1.383 . S
C1645 C1641 1.495 . S
C1645 H1651 0.959 . S
C1645 H1652 0.961 . S
C1645 H1653 0.960 . S
C1646 C1644 1.381 . S
C1646 C1647 1.394 . S
C1646 H1654 0.930 . S
C1647 C1646 1.394 . S
C1647 C1648 1.383 . S
C1647 H1655 0.929 . S
C1648 C1647 1.383 . S
C1648 C1649 1.377 . S
C1649 H1633 0.930 . S
C1649 C1648 1.377 . S
C1649 C1650 1.379 . S
C1650 H1634 0.931 . S
C1650 C1644 1.383 . S
C1650 C1649 1.379 . S
H1651 C1645 0.959 . S
H1652 C1645 0.961 . S
H1653 C1645 0.960 . S
H1654 C1646 0.930 . S
H1655 C1647 0.929 . S
H1656 C1664 0.929 . S
H1657 C1666 0.930 . S
H1658 C1668 0.930 . S
H1659 C1671 0.929 . S
H1660 C1674 0.930 . S
H1661 C1676 0.960 . S
H1662 C1676 0.960 . S
H1663 C1676 0.960 . S
C1664 H1656 0.929 . S
C1664 C1665 1.377 . S
C1664 C1666 1.384 . S
C1665 C1664 1.377 . S
C1665 C1671 1.390 . S
C1666 H1657 0.930 . S
C1666 C1664 1.384 . S
C1666 C1667 1.372 . S
C1667 C1666 1.372 . S
C1667 C1668 1.400 . S
C1667 C1672 1.490 . S
C1668 H1658 0.930 . S
C1668 C1667 1.400 . S
C1668 C1671 1.386 . S
H1669 C1685 0.930 . S
H1670 C1686 0.931 . S
C1671 H1659 0.929 . S
C1671 C1665 1.390 . S
C1671 C1668 1.386 . S
C1672 C1667 1.490 . S
C1672 C1674 1.395 . S
C1672 C1675 1.403 . S
H1673 C1679 0.930 . S
C1674 H1660 0.930 . S
C1674 C1672 1.395 . S
C1674 C1677 1.403 . S
C1675 C1672 1.403 . S
C1675 C1676 1.524 . S
C1675 C1679 1.400 . S
C1676 H1661 0.960 . S
C1676 H1662 0.960 . S
C1676 H1663 0.960 . S
C1676 C1675 1.524 . S
C1677 C1674 1.403 . S
C1677 C1678 1.392 . S
C1677 C1681 1.495 . S
C1678 C1677 1.392 . S
C1678 C1679 1.385 . S
C1678 C1680 1.478 . S
C1679 H1673 0.930 . S
C1679 C1675 1.400 . S
C1679 C1678 1.385 . S
C1680 C1678 1.478 . S
C1680 C1682 1.381 . S
C1680 C1686 1.383 . S
C1681 C1677 1.495 . S
C1681 H1687 0.959 . S
C1681 H1688 0.961 . S
C1681 H1689 0.960 . S
C1682 C1680 1.381 . S
C1682 C1683 1.394 . S
C1682 H1690 0.930 . S
C1683 C1682 1.394 . S
C1683 C1684 1.383 . S
C1683 H1691 0.929 . S
C1684 C1683 1.383 . S
C1684 C1685 1.377 . S
C1685 H1669 0.930 . S
C1685 C1684 1.377 . S
C1685 C1686 1.379 . S
C1686 H1670 0.931 . S
C1686 C1680 1.383 . S
C1686 C1685 1.379 . S
H1687 C1681 0.959 . S
H1688 C1681 0.961 . S
H1689 C1681 0.960 . S
H1690 C1682 0.930 . S
H1691 C1683 0.929 . S
H1692 C1700 0.929 . S
H1693 C1702 0.930 . S
H1694 C1704 0.930 . S
H1695 C1707 0.929 . S
H1696 C1710 0.930 . S
H1697 C1712 0.960 . S
H1698 C1712 0.960 . S
H1699 C1712 0.960 . S
C1700 H1692 0.929 . S
C1700 C1701 1.377 . S
C1700 C1702 1.384 . S
C1701 C1700 1.377 . S
C1701 C1707 1.390 . S
C1702 H1693 0.930 . S
C1702 C1700 1.384 . S
C1702 C1703 1.372 . S
C1703 C1702 1.372 . S
C1703 C1704 1.400 . S
C1703 C1708 1.490 . S
C1704 H1694 0.930 . S
C1704 C1703 1.400 . S
C1704 C1707 1.386 . S
H1705 C1721 0.930 . S
H1706 C1722 0.931 1_556 S
C1707 H1695 0.929 . S
C1707 C1701 1.390 . S
C1707 C1704 1.386 . S
C1708 C1703 1.490 . S
C1708 C1710 1.395 . S
C1708 C1711 1.403 . S
H1709 C1715 0.930 . S
C1710 H1696 0.930 . S
C1710 C1708 1.395 . S
C1710 C1713 1.403 . S
C1711 C1708 1.403 . S
C1711 C1712 1.524 . S
C1711 C1715 1.400 . S
C1712 H1697 0.960 . S
C1712 H1698 0.960 . S
C1712 H1699 0.960 . S
C1712 C1711 1.524 . S
C1713 C1710 1.403 . S
C1713 C1714 1.392 . S
C1713 C1717 1.495 . S
C1714 C1713 1.392 . S
C1714 C1715 1.385 . S
C1714 C1716 1.478 1_556 S
C1715 H1709 0.930 . S
C1715 C1711 1.400 . S
C1715 C1714 1.385 . S
C1716 C1714 1.478 1_554 S
C1716 C1718 1.381 . S
C1716 C1722 1.383 . S
C1717 C1713 1.495 . S
C1717 H1723 0.959 . S
C1717 H1724 0.961 . S
C1717 H1725 0.960 1_556 S
C1718 C1716 1.381 . S
C1718 C1719 1.394 . S
C1718 H1726 0.930 . S
C1719 C1718 1.394 . S
C1719 C1720 1.383 . S
C1719 H1727 0.929 . S
C1720 C1719 1.383 . S
C1720 C1721 1.377 . S
C1721 H1705 0.930 . S
C1721 C1720 1.377 . S
C1721 C1722 1.379 . S
C1722 H1706 0.931 1_554 S
C1722 C1716 1.383 . S
C1722 C1721 1.379 . S
H1723 C1717 0.959 . S
H1724 C1717 0.961 . S
H1725 C1717 0.960 1_554 S
H1726 C1718 0.930 . S
H1727 C1719 0.929 . S
H1728 C1736 0.929 . S
H1729 C1738 0.930 1_556 S
H1730 C1740 0.930 . S
H1731 C1743 0.929 . S
H1732 C1746 0.930 . S
H1733 C1748 0.960 . S
H1734 C1748 0.960 . S
H1735 C1748 0.959 . S
C1736 H1728 0.929 . S
C1736 C1737 1.377 . S
C1736 C1738 1.384 . S
C1737 C1736 1.377 . S
C1737 C1743 1.390 . S
C1738 H1729 0.930 1_554 S
C1738 C1736 1.384 . S
C1738 C1739 1.372 . S
C1739 C1738 1.372 . S
C1739 C1740 1.400 . S
C1739 C1744 1.490 1_554 S
C1740 H1730 0.930 . S
C1740 C1739 1.400 . S
C1740 C1743 1.386 . S
H1741 C1757 0.930 . S
H1742 C1758 0.931 . S
C1743 H1731 0.929 . S
C1743 C1737 1.390 . S
C1743 C1740 1.386 . S
C1744 C1739 1.490 1_556 S
C1744 C1746 1.395 . S
C1744 C1747 1.403 . S
H1745 C1751 0.930 . S
C1746 H1732 0.930 . S
C1746 C1744 1.395 . S
C1746 C1749 1.403 . S
C1747 C1744 1.403 . S
C1747 C1748 1.524 . S
C1747 C1751 1.400 . S
C1748 H1733 0.960 . S
C1748 H1734 0.960 . S
C1748 H1735 0.959 . S
C1748 C1747 1.524 . S
C1749 C1746 1.403 . S
C1749 C1750 1.392 . S
C1749 C1753 1.495 . S
C1750 C1749 1.392 . S
C1750 C1751 1.385 . S
C1750 C1752 1.478 . S
C1751 H1745 0.930 . S
C1751 C1747 1.400 . S
C1751 C1750 1.385 . S
C1752 C1750 1.478 . S
C1752 C1754 1.381 . S
C1752 C1758 1.383 . S
C1753 C1749 1.495 . S
C1753 H1759 0.959 . S
C1753 H1760 0.961 . S
C1753 H1761 0.960 . S
C1754 C1752 1.381 . S
C1754 C1755 1.394 . S
C1754 H1762 0.930 . S
C1755 C1754 1.394 . S
C1755 C1756 1.383 . S
C1755 H1763 0.929 . S
C1756 C1755 1.383 . S
C1756 C1757 1.377 . S
C1757 H1741 0.930 . S
C1757 C1756 1.377 . S
C1757 C1758 1.379 . S
C1758 H1742 0.931 . S
C1758 C1752 1.383 . S
C1758 C1757 1.379 . S
H1759 C1753 0.959 . S
H1760 C1753 0.961 . S
H1761 C1753 0.960 . S
H1762 C1754 0.930 . S
H1763 C1755 0.929 . S
H1764 C1772 0.929 . S
H1765 C1774 0.930 . S
H1766 C1776 0.930 . S
H1767 C1779 0.929 . S
H1768 C1782 0.930 . S
H1769 C1784 0.960 . S
H1770 C1784 0.960 . S
H1771 C1784 0.960 . S
C1772 H1764 0.929 . S
C1772 C1773 1.377 . S
C1772 C1774 1.384 . S
C1773 C1772 1.377 . S
C1773 C1779 1.390 . S
C1774 H1765 0.930 . S
C1774 C1772 1.384 . S
C1774 C1775 1.372 . S
C1775 C1774 1.372 . S
C1775 C1776 1.400 . S
C1775 C1780 1.490 . S
C1776 H1766 0.930 . S
C1776 C1775 1.400 . S
C1776 C1779 1.386 . S
H1777 C1793 0.930 . S
H1778 C1794 0.931 1_556 S
C1779 H1767 0.929 . S
C1779 C1773 1.390 . S
C1779 C1776 1.386 . S
C1780 C1775 1.490 . S
C1780 C1782 1.395 . S
C1780 C1783 1.403 . S
H1781 C1787 0.930 . S
C1782 H1768 0.930 . S
C1782 C1780 1.395 . S
C1782 C1785 1.403 . S
C1783 C1780 1.403 . S
C1783 C1784 1.524 . S
C1783 C1787 1.400 . S
C1784 H1769 0.960 . S
C1784 H1770 0.960 . S
C1784 H1771 0.960 . S
C1784 C1783 1.524 . S
C1785 C1782 1.403 . S
C1785 C1786 1.392 . S
C1785 C1789 1.495 . S
C1786 C1785 1.392 . S
C1786 C1787 1.385 . S
C1786 C1788 1.478 1_556 S
C1787 H1781 0.930 . S
C1787 C1783 1.400 . S
C1787 C1786 1.385 . S
C1788 C1786 1.478 1_554 S
C1788 C1790 1.381 . S
C1788 C1794 1.383 . S
C1789 C1785 1.495 . S
C1789 H1795 0.959 . S
C1789 H1796 0.961 . S
C1789 H1797 0.960 . S
C1790 C1788 1.381 . S
C1790 C1791 1.394 . S
C1790 H1798 0.930 . S
C1791 C1790 1.394 . S
C1791 C1792 1.383 . S
C1791 H1799 0.929 . S
C1792 C1791 1.383 . S
C1792 C1793 1.377 . S
C1793 H1777 0.930 . S
C1793 C1792 1.377 . S
C1793 C1794 1.379 . S
C1794 H1778 0.931 1_554 S
C1794 C1788 1.383 . S
C1794 C1793 1.379 . S
H1795 C1789 0.959 . S
H1796 C1789 0.961 . S
H1797 C1789 0.960 . S
H1798 C1790 0.930 . S
H1799 C1791 0.929 . S
H1800 C1808 0.929 . S
H1801 C1810 0.930 . S
H1802 C1812 0.930 . S
H1803 C1815 0.929 . S
H1804 C1818 0.930 . S
H1805 C1820 0.960 . S
H1806 C1820 0.960 . S
H1807 C1820 0.960 . S
C1808 H1800 0.929 . S
C1808 C1809 1.377 . S
C1808 C1810 1.384 . S
C1809 C1808 1.377 . S
C1809 C1815 1.390 . S
C1810 H1801 0.930 . S
C1810 C1808 1.384 . S
C1810 C1811 1.372 . S
C1811 C1810 1.372 . S
C1811 C1812 1.400 . S
C1811 C1816 1.490 . S
C1812 H1802 0.930 . S
C1812 C1811 1.400 . S
C1812 C1815 1.386 . S
H1813 C1829 0.930 . S
H1814 C1830 0.931 . S
C1815 H1803 0.929 . S
C1815 C1809 1.390 . S
C1815 C1812 1.386 . S
C1816 C1811 1.490 . S
C1816 C1818 1.395 . S
C1816 C1819 1.403 . S
H1817 C1823 0.930 . S
C1818 H1804 0.930 . S
C1818 C1816 1.395 . S
C1818 C1821 1.403 . S
C1819 C1816 1.403 . S
C1819 C1820 1.524 . S
C1819 C1823 1.400 . S
C1820 H1805 0.960 . S
C1820 H1806 0.960 . S
C1820 H1807 0.960 . S
C1820 C1819 1.524 . S
C1821 C1818 1.403 . S
C1821 C1822 1.392 . S
C1821 C1825 1.495 . S
C1822 C1821 1.392 . S
C1822 C1823 1.385 . S
C1822 C1824 1.478 . S
C1823 H1817 0.930 . S
C1823 C1819 1.400 . S
C1823 C1822 1.385 . S
C1824 C1822 1.478 . S
C1824 C1826 1.381 . S
C1824 C1830 1.383 . S
C1825 C1821 1.495 . S
C1825 H1831 0.959 . S
C1825 H1832 0.961 . S
C1825 H1833 0.960 . S
C1826 C1824 1.381 . S
C1826 C1827 1.394 . S
C1826 H1834 0.930 . S
C1827 C1826 1.394 . S
C1827 C1828 1.383 . S
C1827 H1835 0.929 . S
C1828 C1827 1.383 . S
C1828 C1829 1.377 . S
C1829 H1813 0.930 . S
C1829 C1828 1.377 . S
C1829 C1830 1.379 . S
C1830 H1814 0.931 . S
C1830 C1824 1.383 . S
C1830 C1829 1.379 . S
H1831 C1825 0.959 . S
H1832 C1825 0.961 . S
H1833 C1825 0.960 . S
H1834 C1826 0.930 . S
H1835 C1827 0.929 . S
H1836 C1844 0.929 . S
H1837 C1846 0.930 . S
H1838 C1848 0.930 . S
H1839 C1851 0.929 . S
H1840 C1854 0.930 . S
H1841 C1856 0.960 . S
H1842 C1856 0.960 . S
H1843 C1856 0.960 . S
C1844 H1836 0.929 . S
C1844 C1845 1.377 . S
C1844 C1846 1.384 . S
C1845 C1844 1.377 . S
C1845 C1851 1.390 . S
C1846 H1837 0.930 . S
C1846 C1844 1.384 . S
C1846 C1847 1.372 . S
C1847 C1846 1.372 . S
C1847 C1848 1.400 . S
C1847 C1852 1.490 . S
C1848 H1838 0.930 . S
C1848 C1847 1.400 . S
C1848 C1851 1.386 . S
H1849 C1865 0.930 . S
H1850 C1866 0.931 . S
C1851 H1839 0.929 . S
C1851 C1845 1.390 . S
C1851 C1848 1.386 . S
C1852 C1847 1.490 . S
C1852 C1854 1.395 . S
C1852 C1855 1.403 . S
H1853 C1859 0.930 . S
C1854 H1840 0.930 . S
C1854 C1852 1.395 . S
C1854 C1857 1.403 . S
C1855 C1852 1.403 . S
C1855 C1856 1.524 . S
C1855 C1859 1.400 . S
C1856 H1841 0.960 . S
C1856 H1842 0.960 . S
C1856 H1843 0.960 . S
C1856 C1855 1.524 . S
C1857 C1854 1.403 . S
C1857 C1858 1.392 . S
C1857 C1861 1.495 . S
C1858 C1857 1.392 . S
C1858 C1859 1.385 . S
C1858 C1860 1.478 . S
C1859 H1853 0.930 . S
C1859 C1855 1.400 . S
C1859 C1858 1.385 . S
C1860 C1858 1.478 . S
C1860 C1862 1.381 . S
C1860 C1866 1.383 . S
C1861 C1857 1.495 . S
C1861 H1867 0.959 . S
C1861 H1868 0.961 . S
C1861 H1869 0.960 . S
C1862 C1860 1.381 . S
C1862 C1863 1.394 . S
C1862 H1870 0.930 . S
C1863 C1862 1.394 . S
C1863 C1864 1.383 . S
C1863 H1871 0.929 . S
C1864 C1863 1.383 . S
C1864 C1865 1.377 . S
C1865 H1849 0.930 . S
C1865 C1864 1.377 . S
C1865 C1866 1.379 . S
C1866 H1850 0.931 . S
C1866 C1860 1.383 . S
C1866 C1865 1.379 . S
H1867 C1861 0.959 . S
H1868 C1861 0.961 . S
H1869 C1861 0.960 . S
H1870 C1862 0.930 . S
H1871 C1863 0.929 . S
H1872 C1880 0.929 . S
H1873 C1882 0.930 . S
H1874 C1884 0.930 . S
H1875 C1887 0.929 . S
H1876 C1890 0.930 . S
H1877 C1892 0.960 . S
H1878 C1892 0.960 . S
H1879 C1892 0.960 . S
C1880 H1872 0.929 . S
C1880 C1881 1.377 . S
C1880 C1882 1.384 . S
C1881 C1880 1.377 . S
C1881 C1887 1.390 . S
C1882 H1873 0.930 . S
C1882 C1880 1.384 . S
C1882 C1883 1.372 . S
C1883 C1882 1.372 . S
C1883 C1884 1.400 . S
C1883 C1888 1.490 . S
C1884 H1874 0.930 . S
C1884 C1883 1.400 . S
C1884 C1887 1.386 . S
H1885 C1901 0.930 . S
H1886 C1902 0.931 . S
C1887 H1875 0.929 . S
C1887 C1881 1.390 . S
C1887 C1884 1.386 . S
C1888 C1883 1.490 . S
C1888 C1890 1.395 . S
C1888 C1891 1.403 . S
H1889 C1895 0.930 . S
C1890 H1876 0.930 . S
C1890 C1888 1.395 . S
C1890 C1893 1.403 . S
C1891 C1888 1.403 . S
C1891 C1892 1.524 . S
C1891 C1895 1.400 . S
C1892 H1877 0.960 . S
C1892 H1878 0.960 . S
C1892 H1879 0.960 . S
C1892 C1891 1.524 . S
C1893 C1890 1.403 . S
C1893 C1894 1.392 . S
C1893 C1897 1.495 . S
C1894 C1893 1.392 . S
C1894 C1895 1.385 . S
C1894 C1896 1.478 . S
C1895 H1889 0.930 . S
C1895 C1891 1.400 . S
C1895 C1894 1.385 . S
C1896 C1894 1.478 . S
C1896 C1898 1.381 . S
C1896 C1902 1.383 . S
C1897 C1893 1.495 . S
C1897 H1903 0.959 . S
C1897 H1904 0.961 . S
C1897 H1905 0.960 . S
C1898 C1896 1.381 . S
C1898 C1899 1.394 . S
C1898 H1906 0.930 . S
C1899 C1898 1.394 . S
C1899 C1900 1.383 . S
C1899 H1907 0.929 . S
C1900 C1899 1.383 . S
C1900 C1901 1.377 . S
C1901 H1885 0.930 . S
C1901 C1900 1.377 . S
C1901 C1902 1.379 . S
C1902 H1886 0.931 . S
C1902 C1896 1.383 . S
C1902 C1901 1.379 . S
H1903 C1897 0.959 . S
H1904 C1897 0.961 . S
H1905 C1897 0.960 . S
H1906 C1898 0.930 . S
H1907 C1899 0.929 . S
H1908 C1916 0.929 . S
H1909 C1918 0.930 . S
H1910 C1920 0.930 . S
H1911 C1923 0.929 . S
H1912 C1926 0.930 . S
H1913 C1928 0.960 . S
H1914 C1928 0.960 . S
H1915 C1928 0.960 . S
C1916 H1908 0.929 . S
C1916 C1917 1.377 . S
C1916 C1918 1.384 . S
C1917 C1916 1.377 . S
C1917 C1923 1.390 . S
C1918 H1909 0.930 . S
C1918 C1916 1.384 . S
C1918 C1919 1.372 . S
C1919 C1918 1.372 . S
C1919 C1920 1.400 . S
C1919 C1924 1.490 . S
C1920 H1910 0.930 . S
C1920 C1919 1.400 . S
C1920 C1923 1.386 . S
H1921 C1937 0.930 . S
H1922 C1938 0.931 . S
C1923 H1911 0.929 . S
C1923 C1917 1.390 . S
C1923 C1920 1.386 . S
C1924 C1919 1.490 . S
C1924 C1926 1.395 . S
C1924 C1927 1.403 . S
H1925 C1931 0.930 . S
C1926 H1912 0.930 . S
C1926 C1924 1.395 . S
C1926 C1929 1.403 . S
C1927 C1924 1.403 . S
C1927 C1928 1.524 . S
C1927 C1931 1.400 . S
C1928 H1913 0.960 . S
C1928 H1914 0.960 . S
C1928 H1915 0.960 . S
C1928 C1927 1.524 . S
C1929 C1926 1.403 . S
C1929 C1930 1.392 . S
C1929 C1933 1.495 . S
C1930 C1929 1.392 . S
C1930 C1931 1.385 . S
C1930 C1932 1.478 . S
C1931 H1925 0.930 . S
C1931 C1927 1.400 . S
C1931 C1930 1.385 . S
C1932 C1930 1.478 . S
C1932 C1934 1.381 . S
C1932 C1938 1.383 . S
C1933 C1929 1.495 . S
C1933 H1939 0.959 . S
C1933 H1940 0.961 . S
C1933 H1941 0.960 . S
C1934 C1932 1.381 . S
C1934 C1935 1.394 . S
C1934 H1942 0.930 . S
C1935 C1934 1.394 . S
C1935 C1936 1.383 . S
C1935 H1943 0.929 . S
C1936 C1935 1.383 . S
C1936 C1937 1.377 . S
C1937 H1921 0.930 . S
C1937 C1936 1.377 . S
C1937 C1938 1.379 . S
C1938 H1922 0.931 . S
C1938 C1932 1.383 . S
C1938 C1937 1.379 . S
H1939 C1933 0.959 . S
H1940 C1933 0.961 . S
H1941 C1933 0.960 . S
H1942 C1934 0.930 . S
H1943 C1935 0.929 . S
H1944 C1952 0.929 . S
H1945 C1954 0.930 . S
H1946 C1956 0.930 . S
H1947 C1959 0.929 . S
H1948 C1962 0.930 . S
H1949 C1964 0.960 . S
H1950 C1964 0.960 . S
H1951 C1964 0.960 . S
C1952 H1944 0.929 . S
C1952 C1953 1.377 . S
C1952 C1954 1.384 . S
C1953 C1952 1.377 . S
C1953 C1959 1.390 . S
C1954 H1945 0.930 . S
C1954 C1952 1.384 . S
C1954 C1955 1.372 . S
C1955 C1954 1.372 . S
C1955 C1956 1.400 . S
C1955 C1960 1.490 . S
C1956 H1946 0.930 . S
C1956 C1955 1.400 . S
C1956 C1959 1.386 . S
H1957 C1973 0.930 . S
H1958 C1974 0.931 . S
C1959 H1947 0.929 . S
C1959 C1953 1.390 . S
C1959 C1956 1.386 . S
C1960 C1955 1.490 . S
C1960 C1962 1.395 . S
C1960 C1963 1.403 . S
H1961 C1967 0.930 . S
C1962 H1948 0.930 . S
C1962 C1960 1.395 . S
C1962 C1965 1.403 . S
C1963 C1960 1.403 . S
C1963 C1964 1.524 . S
C1963 C1967 1.400 . S
C1964 H1949 0.960 . S
C1964 H1950 0.960 . S
C1964 H1951 0.960 . S
C1964 C1963 1.524 . S
C1965 C1962 1.403 . S
C1965 C1966 1.392 . S
C1965 C1969 1.495 . S
C1966 C1965 1.392 . S
C1966 C1967 1.385 . S
C1966 C1968 1.478 . S
C1967 H1961 0.930 . S
C1967 C1963 1.400 . S
C1967 C1966 1.385 . S
C1968 C1966 1.478 . S
C1968 C1970 1.381 . S
C1968 C1974 1.383 . S
C1969 C1965 1.495 . S
C1969 H1975 0.959 . S
C1969 H1976 0.961 . S
C1969 H1977 0.960 . S
C1970 C1968 1.381 . S
C1970 C1971 1.394 . S
C1970 H1978 0.930 . S
C1971 C1970 1.394 . S
C1971 C1972 1.383 . S
C1971 H1979 0.929 . S
C1972 C1971 1.383 . S
C1972 C1973 1.377 . S
C1973 H1957 0.930 . S
C1973 C1972 1.377 . S
C1973 C1974 1.379 . S
C1974 H1958 0.931 . S
C1974 C1968 1.383 . S
C1974 C1973 1.379 . S
H1975 C1969 0.959 . S
H1976 C1969 0.961 . S
H1977 C1969 0.960 . S
H1978 C1970 0.930 . S
H1979 C1971 0.929 . S
H1980 C1988 0.929 . S
H1981 C1990 0.930 . S
H1982 C1992 0.930 . S
H1983 C1995 0.929 . S
H1984 C1998 0.930 . S
H1985 C2000 0.960 . S
H1986 C2000 0.960 . S
H1987 C2000 0.960 . S
C1988 H1980 0.929 . S
C1988 C1989 1.377 . S
C1988 C1990 1.384 . S
C1989 C1988 1.377 . S
C1989 C1995 1.390 . S
C1990 H1981 0.930 . S
C1990 C1988 1.384 . S
C1990 C1991 1.372 . S
C1991 C1990 1.372 . S
C1991 C1992 1.400 . S
C1991 C1996 1.490 . S
C1992 H1982 0.930 . S
C1992 C1991 1.400 . S
C1992 C1995 1.386 . S
H1993 C2009 0.930 . S
H1994 C2010 0.931 . S
C1995 H1983 0.929 . S
C1995 C1989 1.390 . S
C1995 C1992 1.386 . S
C1996 C1991 1.490 . S
C1996 C1998 1.395 . S
C1996 C1999 1.403 . S
H1997 C2003 0.930 . S
C1998 H1984 0.930 . S
C1998 C1996 1.395 . S
C1998 C2001 1.403 . S
C1999 C1996 1.403 . S
C1999 C2000 1.524 . S
C1999 C2003 1.400 . S
C2000 H1985 0.960 . S
C2000 H1986 0.960 . S
C2000 H1987 0.960 . S
C2000 C1999 1.524 . S
C2001 C1998 1.403 . S
C2001 C2002 1.392 . S
C2001 C2005 1.495 . S
C2002 C2001 1.392 . S
C2002 C2003 1.385 . S
C2002 C2004 1.478 . S
C2003 H1997 0.930 . S
C2003 C1999 1.400 . S
C2003 C2002 1.385 . S
C2004 C2002 1.478 . S
C2004 C2006 1.381 . S
C2004 C2010 1.383 . S
C2005 C2001 1.495 . S
C2005 H2011 0.959 . S
C2005 H2012 0.961 . S
C2005 H2013 0.960 . S
C2006 C2004 1.381 . S
C2006 C2007 1.394 . S
C2006 H2014 0.930 . S
C2007 C2006 1.394 . S
C2007 C2008 1.383 . S
C2007 H2015 0.929 . S
C2008 C2007 1.383 . S
C2008 C2009 1.377 . S
C2009 H1993 0.930 . S
C2009 C2008 1.377 . S
C2009 C2010 1.379 . S
C2010 H1994 0.931 . S
C2010 C2004 1.383 . S
C2010 C2009 1.379 . S
H2011 C2005 0.959 . S
H2012 C2005 0.961 . S
H2013 C2005 0.960 . S
H2014 C2006 0.930 . S
H2015 C2007 0.929 . S
H2016 C2024 0.929 . S
H2017 C2026 0.930 . S
H2018 C2028 0.930 . S
H2019 C2031 0.929 . S
H2020 C2034 0.930 . S
H2021 C2036 0.960 . S
H2022 C2036 0.960 . S
H2023 C2036 0.960 . S
C2024 H2016 0.929 . S
C2024 C2025 1.377 . S
C2024 C2026 1.384 . S
C2025 C2024 1.377 . S
C2025 C2031 1.390 . S
C2026 H2017 0.930 . S
C2026 C2024 1.384 . S
C2026 C2027 1.372 . S
C2027 C2026 1.372 . S
C2027 C2028 1.400 . S
C2027 C2032 1.490 . S
C2028 H2018 0.930 . S
C2028 C2027 1.400 . S
C2028 C2031 1.386 . S
H2029 C2045 0.930 . S
H2030 C2046 0.931 . S
C2031 H2019 0.929 . S
C2031 C2025 1.390 . S
C2031 C2028 1.386 . S
C2032 C2027 1.490 . S
C2032 C2034 1.395 . S
C2032 C2035 1.403 . S
H2033 C2039 0.930 . S
C2034 H2020 0.930 . S
C2034 C2032 1.395 . S
C2034 C2037 1.403 . S
C2035 C2032 1.403 . S
C2035 C2036 1.524 . S
C2035 C2039 1.400 . S
C2036 H2021 0.960 . S
C2036 H2022 0.960 . S
C2036 H2023 0.960 . S
C2036 C2035 1.524 . S
C2037 C2034 1.403 . S
C2037 C2038 1.392 . S
C2037 C2041 1.495 . S
C2038 C2037 1.392 . S
C2038 C2039 1.385 . S
C2038 C2040 1.478 . S
C2039 H2033 0.930 . S
C2039 C2035 1.400 . S
C2039 C2038 1.385 . S
C2040 C2038 1.478 . S
C2040 C2042 1.381 . S
C2040 C2046 1.383 . S
C2041 C2037 1.495 . S
C2041 H2047 0.959 . S
C2041 H2048 0.961 . S
C2041 H2049 0.960 . S
C2042 C2040 1.381 . S
C2042 C2043 1.394 . S
C2042 H2050 0.930 . S
C2043 C2042 1.394 . S
C2043 C2044 1.383 . S
C2043 H2051 0.929 . S
C2044 C2043 1.383 . S
C2044 C2045 1.377 . S
C2045 H2029 0.930 . S
C2045 C2044 1.377 . S
C2045 C2046 1.379 . S
C2046 H2030 0.931 . S
C2046 C2040 1.383 . S
C2046 C2045 1.379 . S
H2047 C2041 0.959 . S
H2048 C2041 0.961 . S
H2049 C2041 0.960 . S
H2050 C2042 0.930 . S
H2051 C2043 0.929 . S
H2052 C2060 0.929 . S
H2053 C2062 0.930 . S
H2054 C2064 0.930 . S
H2055 C2067 0.929 . S
H2056 C2070 0.930 . S
H2057 C2072 0.960 . S
H2058 C2072 0.960 . S
H2059 C2072 0.960 . S
C2060 H2052 0.929 . S
C2060 C2061 1.377 . S
C2060 C2062 1.384 . S
C2061 C2060 1.377 . S
C2061 C2067 1.390 . S
C2062 H2053 0.930 . S
C2062 C2060 1.384 . S
C2062 C2063 1.372 . S
C2063 C2062 1.372 . S
C2063 C2064 1.400 . S
C2063 C2068 1.490 . S
C2064 H2054 0.930 . S
C2064 C2063 1.400 . S
C2064 C2067 1.386 . S
H2065 C2081 0.930 . S
H2066 C2082 0.931 . S
C2067 H2055 0.929 . S
C2067 C2061 1.390 . S
C2067 C2064 1.386 . S
C2068 C2063 1.490 . S
C2068 C2070 1.395 . S
C2068 C2071 1.403 . S
H2069 C2075 0.930 . S
C2070 H2056 0.930 . S
C2070 C2068 1.395 . S
C2070 C2073 1.403 . S
C2071 C2068 1.403 . S
C2071 C2072 1.524 . S
C2071 C2075 1.400 . S
C2072 H2057 0.960 . S
C2072 H2058 0.960 . S
C2072 H2059 0.960 . S
C2072 C2071 1.524 . S
C2073 C2070 1.403 . S
C2073 C2074 1.392 . S
C2073 C2077 1.495 . S
C2074 C2073 1.392 . S
C2074 C2075 1.385 . S
C2074 C2076 1.478 . S
C2075 H2069 0.930 . S
C2075 C2071 1.400 . S
C2075 C2074 1.385 . S
C2076 C2074 1.478 . S
C2076 C2078 1.381 . S
C2076 C2082 1.383 . S
C2077 C2073 1.495 . S
C2077 H2083 0.959 . S
C2077 H2084 0.961 . S
C2077 H2085 0.960 . S
C2078 C2076 1.381 . S
C2078 C2079 1.394 . S
C2078 H2086 0.930 . S
C2079 C2078 1.394 . S
C2079 C2080 1.383 . S
C2079 H2087 0.929 . S
C2080 C2079 1.383 . S
C2080 C2081 1.377 . S
C2081 H2065 0.930 . S
C2081 C2080 1.377 . S
C2081 C2082 1.379 . S
C2082 H2066 0.931 . S
C2082 C2076 1.383 . S
C2082 C2081 1.379 . S
H2083 C2077 0.959 . S
H2084 C2077 0.961 . S
H2085 C2077 0.960 . S
H2086 C2078 0.930 . S
H2087 C2079 0.929 . S
H2088 C2096 0.929 . S
H2089 C2098 0.930 . S
H2090 C2100 0.930 . S
H2091 C2103 0.929 . S
H2092 C2106 0.930 . S
H2093 C2108 0.960 . S
H2094 C2108 0.960 . S
H2095 C2108 0.960 . S
C2096 H2088 0.929 . S
C2096 C2097 1.377 . S
C2096 C2098 1.384 . S
C2097 C2096 1.377 . S
C2097 C2103 1.390 . S
C2098 H2089 0.930 . S
C2098 C2096 1.384 . S
C2098 C2099 1.372 . S
C2099 C2098 1.372 . S
C2099 C2100 1.400 . S
C2099 C2104 1.490 . S
C2100 H2090 0.930 . S
C2100 C2099 1.400 . S
C2100 C2103 1.386 . S
H2101 C2117 0.930 . S
H2102 C2118 0.931 . S
C2103 H2091 0.929 . S
C2103 C2097 1.390 . S
C2103 C2100 1.386 . S
C2104 C2099 1.490 . S
C2104 C2106 1.395 . S
C2104 C2107 1.403 . S
H2105 C2111 0.930 . S
C2106 H2092 0.930 . S
C2106 C2104 1.395 . S
C2106 C2109 1.403 . S
C2107 C2104 1.403 . S
C2107 C2108 1.524 . S
C2107 C2111 1.400 . S
C2108 H2093 0.960 . S
C2108 H2094 0.960 . S
C2108 H2095 0.960 . S
C2108 C2107 1.524 . S
C2109 C2106 1.403 . S
C2109 C2110 1.392 . S
C2109 C2113 1.495 . S
C2110 C2109 1.392 . S
C2110 C2111 1.385 . S
C2110 C2112 1.478 . S
C2111 H2105 0.930 . S
C2111 C2107 1.400 . S
C2111 C2110 1.385 . S
C2112 C2110 1.478 . S
C2112 C2114 1.381 . S
C2112 C2118 1.383 . S
C2113 C2109 1.495 . S
C2113 H2119 0.959 . S
C2113 H2120 0.961 . S
C2113 H2121 0.960 . S
C2114 C2112 1.381 . S
C2114 C2115 1.394 . S
C2114 H2122 0.930 . S
C2115 C2114 1.394 . S
C2115 C2116 1.383 . S
C2115 H2123 0.929 . S
C2116 C2115 1.383 . S
C2116 C2117 1.377 . S
C2117 H2101 0.930 . S
C2117 C2116 1.377 . S
C2117 C2118 1.379 . S
C2118 H2102 0.931 . S
C2118 C2112 1.383 . S
C2118 C2117 1.379 . S
H2119 C2113 0.959 . S
H2120 C2113 0.961 . S
H2121 C2113 0.960 . S
H2122 C2114 0.930 . S
H2123 C2115 0.929 . S
H2124 C2132 0.929 . S
H2125 C2134 0.930 . S
H2126 C2136 0.930 . S
H2127 C2139 0.929 . S
H2128 C2142 0.930 . S
H2129 C2144 0.960 . S
H2130 C2144 0.960 . S
H2131 C2144 0.960 . S
C2132 H2124 0.929 . S
C2132 C2133 1.377 . S
C2132 C2134 1.384 . S
C2133 C2132 1.377 . S
C2133 C2139 1.390 . S
C2134 H2125 0.930 . S
C2134 C2132 1.384 . S
C2134 C2135 1.372 . S
C2135 C2134 1.372 . S
C2135 C2136 1.400 . S
C2135 C2140 1.490 . S
C2136 H2126 0.930 . S
C2136 C2135 1.400 . S
C2136 C2139 1.386 . S
H2137 C2153 0.930 . S
H2138 C2154 0.931 . S
C2139 H2127 0.929 . S
C2139 C2133 1.390 . S
C2139 C2136 1.386 . S
C2140 C2135 1.490 . S
C2140 C2142 1.395 . S
C2140 C2143 1.403 . S
H2141 C2147 0.930 . S
C2142 H2128 0.930 . S
C2142 C2140 1.395 . S
C2142 C2145 1.403 . S
C2143 C2140 1.403 . S
C2143 C2144 1.524 . S
C2143 C2147 1.400 . S
C2144 H2129 0.960 . S
C2144 H2130 0.960 . S
C2144 H2131 0.960 . S
C2144 C2143 1.524 . S
C2145 C2142 1.403 . S
C2145 C2146 1.392 . S
C2145 C2149 1.495 . S
C2146 C2145 1.392 . S
C2146 C2147 1.385 . S
C2146 C2148 1.478 . S
C2147 H2141 0.930 . S
C2147 C2143 1.400 . S
C2147 C2146 1.385 . S
C2148 C2146 1.478 . S
C2148 C2150 1.381 . S
C2148 C2154 1.383 . S
C2149 C2145 1.495 . S
C2149 H2155 0.959 . S
C2149 H2156 0.961 . S
C2149 H2157 0.960 . S
C2150 C2148 1.381 . S
C2150 C2151 1.394 . S
C2150 H2158 0.930 . S
C2151 C2150 1.394 . S
C2151 C2152 1.383 . S
C2151 H2159 0.929 . S
C2152 C2151 1.383 . S
C2152 C2153 1.377 . S
C2153 H2137 0.930 . S
C2153 C2152 1.377 . S
C2153 C2154 1.379 . S
C2154 H2138 0.931 . S
C2154 C2148 1.383 . S
C2154 C2153 1.379 . S
H2155 C2149 0.959 . S
H2156 C2149 0.961 . S
H2157 C2149 0.960 . S
H2158 C2150 0.930 . S
H2159 C2151 0.929 . S
H2160 C2168 0.929 . S
H2161 C2170 0.930 . S
H2162 C2172 0.930 . S
H2163 C2175 0.929 . S
H2164 C2178 0.930 . S
H2165 C2180 0.960 . S
H2166 C2180 0.960 . S
H2167 C2180 0.960 . S
C2168 H2160 0.929 . S
C2168 C2169 1.377 . S
C2168 C2170 1.384 . S
C2169 C2168 1.377 . S
C2169 C2175 1.390 . S
C2170 H2161 0.930 . S
C2170 C2168 1.384 . S
C2170 C2171 1.372 . S
C2171 C2170 1.372 . S
C2171 C2172 1.400 . S
C2171 C2176 1.490 . S
C2172 H2162 0.930 . S
C2172 C2171 1.400 . S
C2172 C2175 1.386 . S
H2173 C2189 0.930 . S
H2174 C2190 0.931 . S
C2175 H2163 0.929 . S
C2175 C2169 1.390 . S
C2175 C2172 1.386 . S
C2176 C2171 1.490 . S
C2176 C2178 1.395 . S
C2176 C2179 1.403 . S
H2177 C2183 0.930 . S
C2178 H2164 0.930 . S
C2178 C2176 1.395 . S
C2178 C2181 1.403 . S
C2179 C2176 1.403 . S
C2179 C2180 1.524 . S
C2179 C2183 1.400 . S
C2180 H2165 0.960 . S
C2180 H2166 0.960 . S
C2180 H2167 0.960 . S
C2180 C2179 1.524 . S
C2181 C2178 1.403 . S
C2181 C2182 1.392 . S
C2181 C2185 1.495 . S
C2182 C2181 1.392 . S
C2182 C2183 1.385 . S
C2182 C2184 1.478 . S
C2183 H2177 0.930 . S
C2183 C2179 1.400 . S
C2183 C2182 1.385 . S
C2184 C2182 1.478 . S
C2184 C2186 1.381 . S
C2184 C2190 1.383 . S
C2185 C2181 1.495 . S
C2185 H2191 0.959 . S
C2185 H2192 0.961 . S
C2185 H2193 0.960 . S
C2186 C2184 1.381 . S
C2186 C2187 1.394 . S
C2186 H2194 0.930 . S
C2187 C2186 1.394 . S
C2187 C2188 1.383 . S
C2187 H2195 0.929 . S
C2188 C2187 1.383 . S
C2188 C2189 1.377 . S
C2189 H2173 0.930 . S
C2189 C2188 1.377 . S
C2189 C2190 1.379 . S
C2190 H2174 0.931 . S
C2190 C2184 1.383 . S
C2190 C2189 1.379 . S
H2191 C2185 0.959 . S
H2192 C2185 0.961 . S
H2193 C2185 0.960 . S
H2194 C2186 0.930 . S
H2195 C2187 0.929 . S
H2196 C2204 0.929 . S
H2197 C2206 0.930 . S
H2198 C2208 0.930 . S
H2199 C2211 0.929 . S
H2200 C2214 0.930 . S
H2201 C2216 0.960 . S
H2202 C2216 0.960 . S
H2203 C2216 0.960 . S
C2204 H2196 0.929 . S
C2204 C2205 1.377 . S
C2204 C2206 1.384 . S
C2205 C2204 1.377 . S
C2205 C2211 1.390 . S
C2206 H2197 0.930 . S
C2206 C2204 1.384 . S
C2206 C2207 1.372 . S
C2207 C2206 1.372 . S
C2207 C2208 1.400 . S
C2207 C2212 1.490 . S
C2208 H2198 0.930 . S
C2208 C2207 1.400 . S
C2208 C2211 1.386 . S
H2209 C2225 0.930 . S
H2210 C2226 0.931 . S
C2211 H2199 0.929 . S
C2211 C2205 1.390 . S
C2211 C2208 1.386 . S
C2212 C2207 1.490 . S
C2212 C2214 1.395 . S
C2212 C2215 1.403 . S
H2213 C2219 0.930 . S
C2214 H2200 0.930 . S
C2214 C2212 1.395 . S
C2214 C2217 1.403 . S
C2215 C2212 1.403 . S
C2215 C2216 1.524 . S
C2215 C2219 1.400 . S
C2216 H2201 0.960 . S
C2216 H2202 0.960 . S
C2216 H2203 0.960 . S
C2216 C2215 1.524 . S
C2217 C2214 1.403 . S
C2217 C2218 1.392 . S
C2217 C2221 1.495 . S
C2218 C2217 1.392 . S
C2218 C2219 1.385 . S
C2218 C2220 1.478 . S
C2219 H2213 0.930 . S
C2219 C2215 1.400 . S
C2219 C2218 1.385 . S
C2220 C2218 1.478 . S
C2220 C2222 1.381 . S
C2220 C2226 1.383 . S
C2221 C2217 1.495 . S
C2221 H2227 0.959 . S
C2221 H2228 0.961 . S
C2221 H2229 0.960 . S
C2222 C2220 1.381 . S
C2222 C2223 1.394 . S
C2222 H2230 0.930 . S
C2223 C2222 1.394 . S
C2223 C2224 1.383 . S
C2223 H2231 0.929 . S
C2224 C2223 1.383 . S
C2224 C2225 1.377 . S
C2225 H2209 0.930 . S
C2225 C2224 1.377 . S
C2225 C2226 1.379 . S
C2226 H2210 0.931 . S
C2226 C2220 1.383 . S
C2226 C2225 1.379 . S
H2227 C2221 0.959 . S
H2228 C2221 0.961 . S
H2229 C2221 0.960 . S
H2230 C2222 0.930 . S
H2231 C2223 0.929 . S
H2232 C2240 0.929 . S
H2233 C2242 0.930 . S
H2234 C2244 0.930 . S
H2235 C2247 0.929 . S
H2236 C2250 0.930 . S
H2237 C2252 0.960 . S
H2238 C2252 0.960 . S
H2239 C2252 0.960 . S
C2240 H2232 0.929 . S
C2240 C2241 1.377 . S
C2240 C2242 1.384 . S
C2241 C2240 1.377 . S
C2241 C2247 1.390 . S
C2242 H2233 0.930 . S
C2242 C2240 1.384 . S
C2242 C2243 1.372 . S
C2243 C2242 1.372 . S
C2243 C2244 1.400 . S
C2243 C2248 1.490 . S
C2244 H2234 0.930 . S
C2244 C2243 1.400 . S
C2244 C2247 1.386 . S
H2245 C2261 0.930 . S
H2246 C2262 0.931 . S
C2247 H2235 0.929 . S
C2247 C2241 1.390 . S
C2247 C2244 1.386 . S
C2248 C2243 1.490 . S
C2248 C2250 1.395 . S
C2248 C2251 1.403 . S
H2249 C2255 0.930 . S
C2250 H2236 0.930 . S
C2250 C2248 1.395 . S
C2250 C2253 1.403 . S
C2251 C2248 1.403 . S
C2251 C2252 1.524 . S
C2251 C2255 1.400 . S
C2252 H2237 0.960 . S
C2252 H2238 0.960 . S
C2252 H2239 0.960 . S
C2252 C2251 1.524 . S
C2253 C2250 1.403 . S
C2253 C2254 1.392 . S
C2253 C2257 1.495 . S
C2254 C2253 1.392 . S
C2254 C2255 1.385 . S
C2254 C2256 1.478 . S
C2255 H2249 0.930 . S
C2255 C2251 1.400 . S
C2255 C2254 1.385 . S
C2256 C2254 1.478 . S
C2256 C2258 1.381 . S
C2256 C2262 1.383 . S
C2257 C2253 1.495 . S
C2257 H2263 0.959 . S
C2257 H2264 0.961 . S
C2257 H2265 0.960 . S
C2258 C2256 1.381 . S
C2258 C2259 1.394 . S
C2258 H2266 0.930 . S
C2259 C2258 1.394 . S
C2259 C2260 1.383 . S
C2259 H2267 0.929 . S
C2260 C2259 1.383 . S
C2260 C2261 1.377 . S
C2261 H2245 0.930 . S
C2261 C2260 1.377 . S
C2261 C2262 1.379 . S
C2262 H2246 0.931 . S
C2262 C2256 1.383 . S
C2262 C2261 1.379 . S
H2263 C2257 0.959 . S
H2264 C2257 0.961 . S
H2265 C2257 0.960 . S
H2266 C2258 0.930 . S
H2267 C2259 0.929 . S
H2268 C2276 0.929 . S
H2269 C2278 0.930 . S
H2270 C2280 0.930 . S
H2271 C2283 0.929 . S
H2272 C2286 0.930 . S
H2273 C2288 0.960 . S
H2274 C2288 0.960 . S
H2275 C2288 0.960 . S
C2276 H2268 0.929 . S
C2276 C2277 1.377 . S
C2276 C2278 1.384 . S
C2277 C2276 1.377 . S
C2277 C2283 1.390 . S
C2278 H2269 0.930 . S
C2278 C2276 1.384 . S
C2278 C2279 1.372 . S
C2279 C2278 1.372 . S
C2279 C2280 1.400 . S
C2279 C2284 1.490 . S
C2280 H2270 0.930 . S
C2280 C2279 1.400 . S
C2280 C2283 1.386 . S
H2281 C2297 0.930 . S
H2282 C2298 0.931 . S
C2283 H2271 0.929 . S
C2283 C2277 1.390 . S
C2283 C2280 1.386 . S
C2284 C2279 1.490 . S
C2284 C2286 1.395 . S
C2284 C2287 1.403 . S
H2285 C2291 0.930 . S
C2286 H2272 0.930 . S
C2286 C2284 1.395 . S
C2286 C2289 1.403 . S
C2287 C2284 1.403 . S
C2287 C2288 1.524 . S
C2287 C2291 1.400 . S
C2288 H2273 0.960 . S
C2288 H2274 0.960 . S
C2288 H2275 0.960 . S
C2288 C2287 1.524 . S
C2289 C2286 1.403 . S
C2289 C2290 1.392 . S
C2289 C2293 1.495 . S
C2290 C2289 1.392 . S
C2290 C2291 1.385 . S
C2290 C2292 1.478 . S
C2291 H2285 0.930 . S
C2291 C2287 1.400 . S
C2291 C2290 1.385 . S
C2292 C2290 1.478 . S
C2292 C2294 1.381 . S
C2292 C2298 1.383 . S
C2293 C2289 1.495 . S
C2293 H2299 0.959 . S
C2293 H2300 0.961 . S
C2293 H2301 0.960 . S
C2294 C2292 1.381 . S
C2294 C2295 1.394 . S
C2294 H2302 0.930 . S
C2295 C2294 1.394 . S
C2295 C2296 1.383 . S
C2295 H2303 0.929 . S
C2296 C2295 1.383 . S
C2296 C2297 1.377 . S
C2297 H2281 0.930 . S
C2297 C2296 1.377 . S
C2297 C2298 1.379 . S
C2298 H2282 0.931 . S
C2298 C2292 1.383 . S
C2298 C2297 1.379 . S
H2299 C2293 0.959 . S
H2300 C2293 0.961 . S
H2301 C2293 0.960 . S
H2302 C2294 0.930 . S
H2303 C2295 0.929 . S
H2304 C2312 0.929 . S
H2305 C2314 0.930 . S
H2306 C2316 0.930 . S
H2307 C2319 0.929 . S
H2308 C2322 0.930 . S
H2309 C2324 0.960 . S
H2310 C2324 0.960 . S
H2311 C2324 0.960 . S
C2312 H2304 0.929 . S
C2312 C2313 1.377 . S
C2312 C2314 1.384 . S
C2313 C2312 1.377 . S
C2313 C2319 1.390 . S
C2314 H2305 0.930 . S
C2314 C2312 1.384 . S
C2314 C2315 1.372 . S
C2315 C2314 1.372 . S
C2315 C2316 1.400 . S
C2315 C2320 1.490 . S
C2316 H2306 0.930 . S
C2316 C2315 1.400 . S
C2316 C2319 1.386 . S
H2317 C2333 0.930 . S
H2318 C2334 0.931 . S
C2319 H2307 0.929 . S
C2319 C2313 1.390 . S
C2319 C2316 1.386 . S
C2320 C2315 1.490 . S
C2320 C2322 1.395 . S
C2320 C2323 1.403 . S
H2321 C2327 0.930 . S
C2322 H2308 0.930 . S
C2322 C2320 1.395 . S
C2322 C2325 1.403 . S
C2323 C2320 1.403 . S
C2323 C2324 1.524 . S
C2323 C2327 1.400 . S
C2324 H2309 0.960 . S
C2324 H2310 0.960 . S
C2324 H2311 0.960 . S
C2324 C2323 1.524 . S
C2325 C2322 1.403 . S
C2325 C2326 1.392 . S
C2325 C2329 1.495 . S
C2326 C2325 1.392 . S
C2326 C2327 1.385 . S
C2326 C2328 1.478 . S
C2327 H2321 0.930 . S
C2327 C2323 1.400 . S
C2327 C2326 1.385 . S
C2328 C2326 1.478 . S
C2328 C2330 1.381 . S
C2328 C2334 1.383 . S
C2329 C2325 1.495 . S
C2329 H2335 0.959 . S
C2329 H2336 0.961 . S
C2329 H2337 0.960 . S
C2330 C2328 1.381 . S
C2330 C2331 1.394 . S
C2330 H2338 0.930 . S
C2331 C2330 1.394 . S
C2331 C2332 1.383 . S
C2331 H2339 0.929 . S
C2332 C2331 1.383 . S
C2332 C2333 1.377 . S
C2333 H2317 0.930 . S
C2333 C2332 1.377 . S
C2333 C2334 1.379 . S
C2334 H2318 0.931 . S
C2334 C2328 1.383 . S
C2334 C2333 1.379 . S
H2335 C2329 0.959 . S
H2336 C2329 0.961 . S
H2337 C2329 0.960 . S
H2338 C2330 0.930 . S
H2339 C2331 0.929 . S
H2340 C2348 0.929 . S
H2341 C2350 0.930 1_554 S
H2342 C2352 0.930 . S
H2343 C2355 0.929 . S
H2344 C2358 0.930 . S
H2345 C2360 0.960 . S
H2346 C2360 0.960 . S
H2347 C2360 0.960 . S
C2348 H2340 0.929 . S
C2348 C2349 1.377 . S
C2348 C2350 1.384 . S
C2349 C2348 1.377 . S
C2349 C2355 1.390 . S
C2350 H2341 0.930 1_556 S
C2350 C2348 1.384 . S
C2350 C2351 1.372 . S
C2351 C2350 1.372 . S
C2351 C2352 1.400 . S
C2351 C2356 1.490 1_556 S
C2352 H2342 0.930 . S
C2352 C2351 1.400 . S
C2352 C2355 1.386 . S
H2353 C2369 0.930 . S
H2354 C2370 0.931 . S
C2355 H2343 0.929 . S
C2355 C2349 1.390 . S
C2355 C2352 1.386 . S
C2356 C2351 1.490 1_554 S
C2356 C2358 1.395 . S
C2356 C2359 1.403 . S
H2357 C2363 0.930 . S
C2358 H2344 0.930 . S
C2358 C2356 1.395 . S
C2358 C2361 1.403 . S
C2359 C2356 1.403 . S
C2359 C2360 1.524 . S
C2359 C2363 1.400 . S
C2360 H2345 0.960 . S
C2360 H2346 0.960 . S
C2360 H2347 0.960 . S
C2360 C2359 1.524 . S
C2361 C2358 1.403 . S
C2361 C2362 1.392 . S
C2361 C2365 1.495 . S
C2362 C2361 1.392 . S
C2362 C2363 1.385 . S
C2362 C2364 1.478 . S
C2363 H2357 0.930 . S
C2363 C2359 1.400 . S
C2363 C2362 1.385 . S
C2364 C2362 1.478 . S
C2364 C2366 1.381 . S
C2364 C2370 1.383 . S
C2365 C2361 1.495 . S
C2365 H2371 0.959 . S
C2365 H2372 0.961 . S
C2365 H2373 0.960 . S
C2366 C2364 1.381 . S
C2366 C2367 1.394 . S
C2366 H2374 0.930 . S
C2367 C2366 1.394 . S
C2367 C2368 1.383 . S
C2367 H2375 0.929 . S
C2368 C2367 1.383 . S
C2368 C2369 1.377 . S
C2369 H2353 0.930 . S
C2369 C2368 1.377 . S
C2369 C2370 1.379 . S
C2370 H2354 0.931 . S
C2370 C2364 1.383 . S
C2370 C2369 1.379 . S
H2371 C2365 0.959 . S
H2372 C2365 0.961 . S
H2373 C2365 0.960 . S
H2374 C2366 0.930 . S
H2375 C2367 0.929 . S
H2376 C2384 0.929 . S
H2377 C2386 0.930 . S
H2378 C2388 0.930 1_554 S
H2379 C2391 0.929 . S
H2380 C2394 0.930 . S
H2381 C2396 0.960 . S
H2382 C2396 0.960 1_556 S
H2383 C2396 0.960 . S
C2384 H2376 0.929 . S
C2384 C2385 1.377 . S
C2384 C2386 1.384 . S
C2385 C2384 1.377 . S
C2385 C2391 1.390 . S
C2386 H2377 0.930 . S
C2386 C2384 1.384 . S
C2386 C2387 1.372 . S
C2387 C2386 1.372 . S
C2387 C2388 1.400 . S
C2387 C2392 1.490 1_556 S
C2388 H2378 0.930 1_556 S
C2388 C2387 1.400 . S
C2388 C2391 1.386 . S
H2389 C2405 0.930 . S
H2390 C2406 0.931 . S
C2391 H2379 0.929 . S
C2391 C2385 1.390 . S
C2391 C2388 1.386 . S
C2392 C2387 1.490 1_554 S
C2392 C2394 1.395 . S
C2392 C2395 1.403 . S
H2393 C2399 0.930 . S
C2394 H2380 0.930 . S
C2394 C2392 1.395 . S
C2394 C2397 1.403 . S
C2395 C2392 1.403 . S
C2395 C2396 1.524 . S
C2395 C2399 1.400 . S
C2396 H2381 0.960 . S
C2396 H2382 0.960 1_554 S
C2396 H2383 0.960 . S
C2396 C2395 1.524 . S
C2397 C2394 1.403 . S
C2397 C2398 1.392 . S
C2397 C2401 1.495 . S
C2398 C2397 1.392 . S
C2398 C2399 1.385 . S
C2398 C2400 1.478 . S
C2399 H2393 0.930 . S
C2399 C2395 1.400 . S
C2399 C2398 1.385 . S
C2400 C2398 1.478 . S
C2400 C2402 1.381 . S
C2400 C2406 1.383 . S
C2401 C2397 1.495 . S
C2401 H2407 0.959 . S
C2401 H2408 0.961 . S
C2401 H2409 0.960 . S
C2402 C2400 1.381 . S
C2402 C2403 1.394 . S
C2402 H2410 0.930 . S
C2403 C2402 1.394 . S
C2403 C2404 1.383 . S
C2403 H2411 0.929 . S
C2404 C2403 1.383 . S
C2404 C2405 1.377 . S
C2405 H2389 0.930 . S
C2405 C2404 1.377 . S
C2405 C2406 1.379 . S
C2406 H2390 0.931 . S
C2406 C2400 1.383 . S
C2406 C2405 1.379 . S
H2407 C2401 0.959 . S
H2408 C2401 0.961 . S
H2409 C2401 0.960 . S
H2410 C2402 0.930 . S
H2411 C2403 0.929 . S
H2412 C2420 0.929 . S
H2413 C2422 0.930 . S
H2414 C2424 0.930 . S
H2415 C2427 0.929 . S
H2416 C2430 0.930 . S
H2417 C2432 0.957 1_554 S
H2418 C2432 0.960 . S
H2419 C2432 0.960 . S
C2420 H2412 0.929 . S
C2420 C2421 1.377 . S
C2420 C2422 1.384 . S
C2421 C2420 1.377 . S
C2421 C2427 1.390 . S
C2422 H2413 0.930 . S
C2422 C2420 1.384 . S
C2422 C2423 1.372 . S
C2423 C2422 1.372 . S
C2423 C2424 1.400 . S
C2423 C2428 1.490 1_556 S
C2424 H2414 0.930 . S
C2424 C2423 1.400 . S
C2424 C2427 1.386 . S
H2425 C2441 0.930 . S
H2426 C2442 0.931 . S
C2427 H2415 0.929 . S
C2427 C2421 1.390 . S
C2427 C2424 1.386 . S
C2428 C2423 1.490 1_554 S
C2428 C2430 1.395 . S
C2428 C2431 1.403 . S
H2429 C2435 0.930 . S
C2430 H2416 0.930 . S
C2430 C2428 1.395 . S
C2430 C2433 1.403 . S
C2431 C2428 1.403 . S
C2431 C2432 1.524 1_554 S
C2431 C2435 1.400 . S
C2432 H2417 0.957 1_556 S
C2432 H2418 0.960 . S
C2432 H2419 0.960 . S
C2432 C2431 1.524 1_556 S
C2433 C2430 1.403 . S
C2433 C2434 1.392 . S
C2433 C2437 1.495 . S
C2434 C2433 1.392 . S
C2434 C2435 1.385 . S
C2434 C2436 1.478 . S
C2435 H2429 0.930 . S
C2435 C2431 1.400 . S
C2435 C2434 1.385 . S
C2436 C2434 1.478 . S
C2436 C2438 1.381 . S
C2436 C2442 1.383 . S
C2437 C2433 1.495 . S
C2437 H2443 0.959 . S
C2437 H2444 0.961 . S
C2437 H2445 0.960 . S
C2438 C2436 1.381 . S
C2438 C2439 1.394 . S
C2438 H2446 0.930 . S
C2439 C2438 1.394 . S
C2439 C2440 1.383 . S
C2439 H2447 0.929 . S
C2440 C2439 1.383 . S
C2440 C2441 1.377 . S
C2441 H2425 0.930 . S
C2441 C2440 1.377 . S
C2441 C2442 1.379 . S
C2442 H2426 0.931 . S
C2442 C2436 1.383 . S
C2442 C2441 1.379 . S
H2443 C2437 0.959 . S
H2444 C2437 0.961 . S
H2445 C2437 0.960 . S
H2446 C2438 0.930 . S
H2447 C2439 0.929 . S
H2448 C2456 0.929 1_556 S
H2449 C2458 0.930 . S
H2450 C2460 0.930 . S
H2451 C2463 0.929 . S
H2452 C2466 0.930 . S
H2453 C2468 0.960 . S
H2454 C2468 0.960 . S
H2455 C2468 0.960 . S
C2456 H2448 0.929 1_554 S
C2456 C2457 1.377 . S
C2456 C2458 1.384 . S
C2457 C2456 1.377 . S
C2457 C2463 1.390 . S
C2458 H2449 0.930 . S
C2458 C2456 1.384 . S
C2458 C2459 1.372 . S
C2459 C2458 1.372 . S
C2459 C2460 1.400 . S
C2459 C2464 1.490 . S
C2460 H2450 0.930 . S
C2460 C2459 1.400 . S
C2460 C2463 1.386 . S
H2461 C2477 0.930 . S
H2462 C2478 0.931 . S
C2463 H2451 0.929 . S
C2463 C2457 1.390 . S
C2463 C2460 1.386 . S
C2464 C2459 1.490 . S
C2464 C2466 1.395 . S
C2464 C2467 1.403 . S
H2465 C2471 0.930 . S
C2466 H2452 0.930 . S
C2466 C2464 1.395 . S
C2466 C2469 1.403 . S
C2467 C2464 1.403 . S
C2467 C2468 1.524 . S
C2467 C2471 1.400 . S
C2468 H2453 0.960 . S
C2468 H2454 0.960 . S
C2468 H2455 0.960 . S
C2468 C2467 1.524 . S
C2469 C2466 1.403 . S
C2469 C2470 1.392 . S
C2469 C2473 1.491 1_554 S
C2470 C2469 1.392 . S
C2470 C2471 1.385 . S
C2470 C2472 1.478 . S
C2471 H2465 0.930 . S
C2471 C2467 1.400 . S
C2471 C2470 1.385 . S
C2472 C2470 1.478 . S
C2472 C2474 1.381 . S
C2472 C2478 1.383 . S
C2473 C2469 1.491 1_556 S
C2473 H2479 0.963 . S
C2473 H2480 0.960 1_556 S
C2473 H2481 0.961 . S
C2474 C2472 1.381 . S
C2474 C2475 1.394 . S
C2474 H2482 0.930 . S
C2475 C2474 1.394 . S
C2475 C2476 1.383 . S
C2475 H2483 0.929 . S
C2476 C2475 1.383 . S
C2476 C2477 1.377 . S
C2477 H2461 0.930 . S
C2477 C2476 1.377 . S
C2477 C2478 1.379 . S
C2478 H2462 0.931 . S
C2478 C2472 1.383 . S
C2478 C2477 1.379 . S
H2479 C2473 0.963 . S
H2480 C2473 0.960 1_554 S
H2481 C2473 0.961 . S
H2482 C2474 0.930 . S
H2483 C2475 0.929 . S
H2484 C2492 0.929 . S
H2485 C2494 0.930 . S
H2486 C2496 0.930 . S
H2487 C2499 0.929 . S
H2488 C2502 0.930 . S
H2489 C2504 0.960 . S
H2490 C2504 0.960 . S
H2491 C2504 0.960 . S
C2492 H2484 0.929 . S
C2492 C2493 1.377 . S
C2492 C2494 1.384 . S
C2493 C2492 1.377 . S
C2493 C2499 1.390 . S
C2494 H2485 0.930 . S
C2494 C2492 1.384 . S
C2494 C2495 1.372 . S
C2495 C2494 1.372 . S
C2495 C2496 1.400 . S
C2495 C2500 1.490 . S
C2496 H2486 0.930 . S
C2496 C2495 1.400 . S
C2496 C2499 1.386 . S
H2497 C2513 0.930 1_556 S
H2498 C2514 0.931 1_556 S
C2499 H2487 0.929 . S
C2499 C2493 1.390 . S
C2499 C2496 1.386 . S
C2500 C2495 1.490 . S
C2500 C2502 1.395 . S
C2500 C2503 1.403 . S
H2501 C2507 0.930 . S
C2502 H2488 0.930 . S
C2502 C2500 1.395 . S
C2502 C2505 1.403 . S
C2503 C2500 1.403 . S
C2503 C2504 1.524 . S
C2503 C2507 1.400 . S
C2504 H2489 0.960 . S
C2504 H2490 0.960 . S
C2504 H2491 0.960 . S
C2504 C2503 1.524 . S
C2505 C2502 1.403 . S
C2505 C2506 1.392 . S
C2505 C2509 1.495 . S
C2506 C2505 1.392 . S
C2506 C2507 1.385 . S
C2506 C2508 1.478 . S
C2507 H2501 0.930 . S
C2507 C2503 1.400 . S
C2507 C2506 1.385 . S
C2508 C2506 1.478 . S
C2508 C2510 1.381 . S
C2508 C2514 1.383 . S
C2509 C2505 1.495 . S
C2509 H2515 0.959 . S
C2509 H2516 0.961 . S
C2509 H2517 0.960 . S
C2510 C2508 1.381 . S
C2510 C2511 1.394 . S
C2510 H2518 0.930 . S
C2511 C2510 1.394 . S
C2511 C2512 1.383 . S
C2511 H2519 0.929 . S
C2512 C2511 1.383 . S
C2512 C2513 1.377 . S
C2513 H2497 0.930 1_554 S
C2513 C2512 1.377 . S
C2513 C2514 1.379 . S
C2514 H2498 0.931 1_554 S
C2514 C2508 1.383 . S
C2514 C2513 1.379 . S
H2515 C2509 0.959 . S
H2516 C2509 0.961 . S
H2517 C2509 0.960 . S
H2518 C2510 0.930 . S
H2519 C2511 0.929 . S
H2520 C2528 0.929 . S
H2521 C2530 0.930 . S
H2522 C2532 0.930 1_556 S
H2523 C2535 0.929 1_556 S
H2524 C2538 0.930 . S
H2525 C2540 0.960 . S
H2526 C2540 0.960 . S
H2527 C2540 0.960 . S
C2528 H2520 0.929 . S
C2528 C2529 1.377 . S
C2528 C2530 1.384 . S
C2529 C2528 1.377 . S
C2529 C2535 1.390 . S
C2530 H2521 0.930 . S
C2530 C2528 1.384 . S
C2530 C2531 1.372 . S
C2531 C2530 1.372 . S
C2531 C2532 1.400 . S
C2531 C2536 1.490 . S
C2532 H2522 0.930 1_554 S
C2532 C2531 1.400 . S
C2532 C2535 1.386 . S
H2533 C2549 0.930 . S
H2534 C2550 0.931 . S
C2535 H2523 0.929 1_554 S
C2535 C2529 1.390 . S
C2535 C2532 1.386 . S
C2536 C2531 1.490 . S
C2536 C2538 1.395 . S
C2536 C2539 1.403 . S
H2537 C2543 0.930 . S
C2538 H2524 0.930 . S
C2538 C2536 1.395 . S
C2538 C2541 1.403 . S
C2539 C2536 1.403 . S
C2539 C2540 1.524 . S
C2539 C2543 1.400 . S
C2540 H2525 0.960 . S
C2540 H2526 0.960 . S
C2540 H2527 0.960 . S
C2540 C2539 1.524 . S
C2541 C2538 1.403 . S
C2541 C2542 1.392 . S
C2541 C2545 1.495 . S
C2542 C2541 1.392 . S
C2542 C2543 1.385 . S
C2542 C2544 1.478 . S
C2543 H2537 0.930 . S
C2543 C2539 1.400 . S
C2543 C2542 1.385 . S
C2544 C2542 1.478 . S
C2544 C2546 1.381 . S
C2544 C2550 1.383 . S
C2545 C2541 1.495 . S
C2545 H2551 0.959 . S
C2545 H2552 0.961 . S
C2545 H2553 0.960 . S
C2546 C2544 1.381 . S
C2546 C2547 1.394 . S
C2546 H2554 0.930 . S
C2547 C2546 1.394 . S
C2547 C2548 1.383 . S
C2547 H2555 0.929 . S
C2548 C2547 1.383 . S
C2548 C2549 1.377 . S
C2549 H2533 0.930 . S
C2549 C2548 1.377 . S
C2549 C2550 1.379 . S
C2550 H2534 0.931 . S
C2550 C2544 1.383 . S
C2550 C2549 1.379 . S
H2551 C2545 0.959 . S
H2552 C2545 0.961 . S
H2553 C2545 0.960 . S
H2554 C2546 0.930 . S
H2555 C2547 0.929 . S
H2556 C2564 0.929 . S
H2557 C2566 0.930 . S
H2558 C2568 0.930 . S
H2559 C2571 0.929 . S
H2560 C2574 0.930 . S
H2561 C2576 0.960 . S
H2562 C2576 0.960 . S
H2563 C2576 0.960 . S
C2564 H2556 0.929 . S
C2564 C2565 1.377 . S
C2564 C2566 1.384 . S
C2565 C2564 1.377 . S
C2565 C2571 1.390 . S
C2566 H2557 0.930 . S
C2566 C2564 1.384 . S
C2566 C2567 1.372 . S
C2567 C2566 1.372 . S
C2567 C2568 1.400 . S
C2567 C2572 1.490 . S
C2568 H2558 0.930 . S
C2568 C2567 1.400 . S
C2568 C2571 1.386 . S
H2569 C2585 0.930 . S
H2570 C2586 0.931 . S
C2571 H2559 0.929 . S
C2571 C2565 1.390 . S
C2571 C2568 1.386 . S
C2572 C2567 1.490 . S
C2572 C2574 1.395 . S
C2572 C2575 1.403 . S
H2573 C2579 0.930 . S
C2574 H2560 0.930 . S
C2574 C2572 1.395 . S
C2574 C2577 1.403 . S
C2575 C2572 1.403 . S
C2575 C2576 1.524 . S
C2575 C2579 1.400 . S
C2576 H2561 0.960 . S
C2576 H2562 0.960 . S
C2576 H2563 0.960 . S
C2576 C2575 1.524 . S
C2577 C2574 1.403 . S
C2577 C2578 1.392 . S
C2577 C2581 1.495 . S
C2578 C2577 1.392 . S
C2578 C2579 1.385 . S
C2578 C2580 1.478 . S
C2579 H2573 0.930 . S
C2579 C2575 1.400 . S
C2579 C2578 1.385 . S
C2580 C2578 1.478 . S
C2580 C2582 1.381 . S
C2580 C2586 1.383 . S
C2581 C2577 1.495 . S
C2581 H2587 0.959 . S
C2581 H2588 0.961 . S
C2581 H2589 0.960 . S
C2582 C2580 1.381 . S
C2582 C2583 1.394 . S
C2582 H2590 0.930 . S
C2583 C2582 1.394 . S
C2583 C2584 1.383 . S
C2583 H2591 0.929 . S
C2584 C2583 1.383 . S
C2584 C2585 1.377 . S
C2585 H2569 0.930 . S
C2585 C2584 1.377 . S
C2585 C2586 1.379 . S
C2586 H2570 0.931 . S
C2586 C2580 1.383 . S
C2586 C2585 1.379 . S
H2587 C2581 0.959 . S
H2588 C2581 0.961 . S
H2589 C2581 0.960 . S
H2590 C2582 0.930 . S
H2591 C2583 0.929 . S
H2592 C2600 0.929 . S
H2593 C2602 0.930 . S
H2594 C2604 0.930 . S
H2595 C2607 0.929 . S
H2596 C2610 0.930 . S
H2597 C2612 0.960 . S
H2598 C2612 0.960 . S
H2599 C2612 0.960 . S
C2600 H2592 0.929 . S
C2600 C2601 1.377 . S
C2600 C2602 1.384 . S
C2601 C2600 1.377 . S
C2601 C2607 1.390 . S
C2602 H2593 0.930 . S
C2602 C2600 1.384 . S
C2602 C2603 1.372 . S
C2603 C2602 1.372 . S
C2603 C2604 1.400 . S
C2603 C2608 1.490 . S
C2604 H2594 0.930 . S
C2604 C2603 1.400 . S
C2604 C2607 1.386 . S
H2605 C2621 0.930 . S
H2606 C2622 0.931 . S
C2607 H2595 0.929 . S
C2607 C2601 1.390 . S
C2607 C2604 1.386 . S
C2608 C2603 1.490 . S
C2608 C2610 1.395 . S
C2608 C2611 1.403 . S
H2609 C2615 0.930 . S
C2610 H2596 0.930 . S
C2610 C2608 1.395 . S
C2610 C2613 1.403 . S
C2611 C2608 1.403 . S
C2611 C2612 1.524 . S
C2611 C2615 1.400 . S
C2612 H2597 0.960 . S
C2612 H2598 0.960 . S
C2612 H2599 0.960 . S
C2612 C2611 1.524 . S
C2613 C2610 1.403 . S
C2613 C2614 1.392 . S
C2613 C2617 1.495 . S
C2614 C2613 1.392 . S
C2614 C2615 1.385 . S
C2614 C2616 1.478 . S
C2615 H2609 0.930 . S
C2615 C2611 1.400 . S
C2615 C2614 1.385 . S
C2616 C2614 1.478 . S
C2616 C2618 1.381 . S
C2616 C2622 1.383 . S
C2617 C2613 1.495 . S
C2617 H2623 0.959 . S
C2617 H2624 0.961 . S
C2617 H2625 0.960 . S
C2618 C2616 1.381 . S
C2618 C2619 1.394 . S
C2618 H2626 0.930 . S
C2619 C2618 1.394 . S
C2619 C2620 1.383 . S
C2619 H2627 0.929 . S
C2620 C2619 1.383 . S
C2620 C2621 1.377 . S
C2621 H2605 0.930 . S
C2621 C2620 1.377 . S
C2621 C2622 1.379 . S
C2622 H2606 0.931 . S
C2622 C2616 1.383 . S
C2622 C2621 1.379 . S
H2623 C2617 0.959 . S
H2624 C2617 0.961 . S
H2625 C2617 0.960 . S
H2626 C2618 0.930 . S
H2627 C2619 0.929 . S
H2628 C2636 0.929 . S
H2629 C2638 0.930 . S
H2630 C2640 0.930 . S
H2631 C2643 0.929 . S
H2632 C2646 0.930 . S
H2633 C2648 0.960 . S
H2634 C2648 0.960 . S
H2635 C2648 0.960 . S
C2636 H2628 0.929 . S
C2636 C2637 1.377 . S
C2636 C2638 1.384 . S
C2637 C2636 1.377 . S
C2637 C2643 1.390 . S
C2638 H2629 0.930 . S
C2638 C2636 1.384 . S
C2638 C2639 1.372 . S
C2639 C2638 1.372 . S
C2639 C2640 1.400 . S
C2639 C2644 1.490 . S
C2640 H2630 0.930 . S
C2640 C2639 1.400 . S
C2640 C2643 1.386 . S
H2641 C2657 0.930 . S
H2642 C2658 0.931 . S
C2643 H2631 0.929 . S
C2643 C2637 1.390 . S
C2643 C2640 1.386 . S
C2644 C2639 1.490 . S
C2644 C2646 1.395 . S
C2644 C2647 1.403 . S
H2645 C2651 0.930 . S
C2646 H2632 0.930 . S
C2646 C2644 1.395 . S
C2646 C2649 1.403 . S
C2647 C2644 1.403 . S
C2647 C2648 1.524 . S
C2647 C2651 1.400 . S
C2648 H2633 0.960 . S
C2648 H2634 0.960 . S
C2648 H2635 0.960 . S
C2648 C2647 1.524 . S
C2649 C2646 1.403 . S
C2649 C2650 1.392 . S
C2649 C2653 1.495 . S
C2650 C2649 1.392 . S
C2650 C2651 1.385 . S
C2650 C2652 1.478 . S
C2651 H2645 0.930 . S
C2651 C2647 1.400 . S
C2651 C2650 1.385 . S
C2652 C2650 1.478 . S
C2652 C2654 1.381 . S
C2652 C2658 1.383 . S
C2653 C2649 1.495 . S
C2653 H2659 0.959 . S
C2653 H2660 0.961 . S
C2653 H2661 0.960 . S
C2654 C2652 1.381 . S
C2654 C2655 1.394 . S
C2654 H2662 0.930 . S
C2655 C2654 1.394 . S
C2655 C2656 1.383 . S
C2655 H2663 0.929 . S
C2656 C2655 1.383 . S
C2656 C2657 1.377 . S
C2657 H2641 0.930 . S
C2657 C2656 1.377 . S
C2657 C2658 1.379 . S
C2658 H2642 0.931 . S
C2658 C2652 1.383 . S
C2658 C2657 1.379 . S
H2659 C2653 0.959 . S
H2660 C2653 0.961 . S
H2661 C2653 0.960 . S
H2662 C2654 0.930 . S
H2663 C2655 0.929 . S
H2664 C2672 0.929 . S
H2665 C2674 0.930 . S
H2666 C2676 0.930 . S
H2667 C2679 0.929 . S
H2668 C2682 0.930 . S
H2669 C2684 0.960 . S
H2670 C2684 0.960 . S
H2671 C2684 0.960 . S
C2672 H2664 0.929 . S
C2672 C2673 1.377 . S
C2672 C2674 1.384 . S
C2673 C2672 1.377 . S
C2673 C2679 1.390 . S
C2674 H2665 0.930 . S
C2674 C2672 1.384 . S
C2674 C2675 1.372 . S
C2675 C2674 1.372 . S
C2675 C2676 1.400 . S
C2675 C2680 1.490 . S
C2676 H2666 0.930 . S
C2676 C2675 1.400 . S
C2676 C2679 1.386 . S
H2677 C2693 0.930 . S
H2678 C2694 0.931 . S
C2679 H2667 0.929 . S
C2679 C2673 1.390 . S
C2679 C2676 1.386 . S
C2680 C2675 1.490 . S
C2680 C2682 1.395 . S
C2680 C2683 1.403 . S
H2681 C2687 0.930 . S
C2682 H2668 0.930 . S
C2682 C2680 1.395 . S
C2682 C2685 1.403 . S
C2683 C2680 1.403 . S
C2683 C2684 1.524 . S
C2683 C2687 1.400 . S
C2684 H2669 0.960 . S
C2684 H2670 0.960 . S
C2684 H2671 0.960 . S
C2684 C2683 1.524 . S
C2685 C2682 1.403 . S
C2685 C2686 1.392 . S
C2685 C2689 1.495 . S
C2686 C2685 1.392 . S
C2686 C2687 1.385 . S
C2686 C2688 1.478 . S
C2687 H2681 0.930 . S
C2687 C2683 1.400 . S
C2687 C2686 1.385 . S
C2688 C2686 1.478 . S
C2688 C2690 1.381 . S
C2688 C2694 1.383 . S
C2689 C2685 1.495 . S
C2689 H2695 0.959 . S
C2689 H2696 0.961 . S
C2689 H2697 0.960 . S
C2690 C2688 1.381 . S
C2690 C2691 1.398 . S
C2690 H2698 0.930 1_556 S
C2691 C2690 1.398 . S
C2691 C2692 1.397 . S
C2691 H2699 0.912 1_556 S
C2692 C2691 1.397 . S
C2692 C2693 1.377 . S
C2693 H2677 0.930 . S
C2693 C2692 1.377 . S
C2693 C2694 1.379 . S
C2694 H2678 0.931 . S
C2694 C2688 1.383 . S
C2694 C2693 1.379 . S
H2695 C2689 0.959 . S
H2696 C2689 0.961 . S
H2697 C2689 0.960 . S
H2698 C2690 0.930 1_554 S
H2699 C2691 0.912 1_554 S
H2700 C2708 0.929 1_554 S
H2701 C2710 0.930 1_554 S
H2702 C2712 0.930 . S
H2703 C2715 0.929 . S
H2704 C2718 0.930 . S
H2705 C2720 0.960 . S
H2706 C2720 0.960 . S
H2707 C2720 0.960 . S
C2708 H2700 0.929 1_556 S
C2708 C2709 1.377 . S
C2708 C2710 1.384 . S
C2709 C2708 1.377 . S
C2709 C2715 1.390 . S
C2710 H2701 0.930 1_556 S
C2710 C2708 1.384 . S
C2710 C2711 1.372 . S
C2711 C2710 1.372 . S
C2711 C2712 1.400 . S
C2711 C2716 1.490 . S
C2712 H2702 0.930 . S
C2712 C2711 1.400 . S
C2712 C2715 1.386 . S
H2713 C2729 0.930 . S
H2714 C2730 0.931 . S
C2715 H2703 0.929 . S
C2715 C2709 1.390 . S
C2715 C2712 1.386 . S
C2716 C2711 1.490 . S
C2716 C2718 1.395 . S
C2716 C2719 1.403 . S
H2717 C2723 0.930 . S
C2718 H2704 0.930 . S
C2718 C2716 1.395 . S
C2718 C2721 1.403 . S
C2719 C2716 1.403 . S
C2719 C2720 1.524 . S
C2719 C2723 1.400 . S
C2720 H2705 0.960 . S
C2720 H2706 0.960 . S
C2720 H2707 0.960 . S
C2720 C2719 1.524 . S
C2721 C2718 1.403 . S
C2721 C2722 1.392 . S
C2721 C2725 1.495 . S
C2722 C2721 1.392 . S
C2722 C2723 1.385 . S
C2722 C2724 1.478 . S
C2723 H2717 0.930 . S
C2723 C2719 1.400 . S
C2723 C2722 1.385 . S
C2724 C2722 1.478 . S
C2724 C2726 1.381 . S
C2724 C2730 1.383 . S
C2725 C2721 1.495 . S
C2725 H2731 0.959 . S
C2725 H2732 0.961 . S
C2725 H2733 0.960 . S
C2726 C2724 1.381 . S
C2726 C2727 1.394 . S
C2726 H2734 0.930 . S
C2727 C2726 1.394 . S
C2727 C2728 1.383 . S
C2727 H2735 0.929 . S
C2728 C2727 1.383 . S
C2728 C2729 1.377 . S
C2729 H2713 0.930 . S
C2729 C2728 1.377 . S
C2729 C2730 1.379 . S
C2730 H2714 0.931 . S
C2730 C2724 1.383 . S
C2730 C2729 1.379 . S
H2731 C2725 0.959 . S
H2732 C2725 0.961 . S
H2733 C2725 0.960 . S
H2734 C2726 0.930 . S
H2735 C2727 0.929 . S
H2736 C2744 0.929 . S
H2737 C2746 0.930 . S
H2738 C2748 0.930 . S
H2739 C2751 0.929 . S
H2740 C2754 0.930 . S
H2741 C2756 0.960 . S
H2742 C2756 0.960 . S
H2743 C2756 0.960 . S
C2744 H2736 0.929 . S
C2744 C2745 1.377 . S
C2744 C2746 1.384 . S
C2745 C2744 1.377 . S
C2745 C2751 1.390 . S
C2746 H2737 0.930 . S
C2746 C2744 1.384 . S
C2746 C2747 1.372 . S
C2747 C2746 1.372 . S
C2747 C2748 1.400 . S
C2747 C2752 1.490 . S
C2748 H2738 0.930 . S
C2748 C2747 1.400 . S
C2748 C2751 1.386 . S
H2749 C2765 0.930 . S
H2750 C2766 0.931 . S
C2751 H2739 0.929 . S
C2751 C2745 1.390 . S
C2751 C2748 1.386 . S
C2752 C2747 1.490 . S
C2752 C2754 1.395 . S
C2752 C2755 1.403 . S
H2753 C2759 0.930 . S
C2754 H2740 0.930 . S
C2754 C2752 1.395 . S
C2754 C2757 1.403 . S
C2755 C2752 1.403 . S
C2755 C2756 1.524 . S
C2755 C2759 1.400 . S
C2756 H2741 0.960 . S
C2756 H2742 0.960 . S
C2756 H2743 0.960 . S
C2756 C2755 1.524 . S
C2757 C2754 1.403 . S
C2757 C2758 1.392 . S
C2757 C2761 1.495 1_556 S
C2758 C2757 1.392 . S
C2758 C2759 1.385 . S
C2758 C2760 1.478 . S
C2759 H2753 0.930 . S
C2759 C2755 1.400 . S
C2759 C2758 1.385 . S
C2760 C2758 1.478 . S
C2760 C2762 1.381 . S
C2760 C2766 1.383 . S
C2761 C2757 1.495 1_554 S
C2761 H2767 0.959 . S
C2761 H2768 0.961 . S
C2761 H2769 0.960 . S
C2762 C2760 1.381 . S
C2762 C2763 1.394 . S
C2762 H2770 0.930 . S
C2763 C2762 1.394 . S
C2763 C2764 1.383 . S
C2763 H2771 0.929 1_556 S
C2764 C2763 1.383 . S
C2764 C2765 1.377 . S
C2765 H2749 0.930 . S
C2765 C2764 1.377 . S
C2765 C2766 1.379 . S
C2766 H2750 0.931 . S
C2766 C2760 1.383 . S
C2766 C2765 1.379 . S
H2767 C2761 0.959 . S
H2768 C2761 0.961 . S
H2769 C2761 0.960 . S
H2770 C2762 0.930 . S
H2771 C2763 0.929 1_554 S
H2772 C2780 0.929 . S
H2773 C2782 0.930 . S
H2774 C2784 0.930 . S
H2775 C2787 0.929 . S
H2776 C2790 0.930 . S
H2777 C2792 0.960 . S
H2778 C2792 0.960 . S
H2779 C2792 0.960 . S
C2780 H2772 0.929 . S
C2780 C2781 1.377 . S
C2780 C2782 1.384 . S
C2781 C2780 1.377 . S
C2781 C2787 1.390 . S
C2782 H2773 0.930 . S
C2782 C2780 1.384 . S
C2782 C2783 1.372 . S
C2783 C2782 1.372 . S
C2783 C2784 1.400 . S
C2783 C2788 1.490 . S
C2784 H2774 0.930 . S
C2784 C2783 1.400 . S
C2784 C2787 1.386 . S
H2785 C2801 0.930 . S
H2786 C2802 0.931 . S
C2787 H2775 0.929 . S
C2787 C2781 1.390 . S
C2787 C2784 1.386 . S
C2788 C2783 1.490 . S
C2788 C2790 1.395 . S
C2788 C2791 1.403 . S
H2789 C2795 0.930 . S
C2790 H2776 0.930 . S
C2790 C2788 1.395 . S
C2790 C2793 1.403 . S
C2791 C2788 1.403 . S
C2791 C2792 1.524 . S
C2791 C2795 1.400 . S
C2792 H2777 0.960 . S
C2792 H2778 0.960 . S
C2792 H2779 0.960 . S
C2792 C2791 1.524 . S
C2793 C2790 1.403 . S
C2793 C2794 1.392 . S
C2793 C2797 1.495 . S
C2794 C2793 1.392 . S
C2794 C2795 1.385 . S
C2794 C2796 1.478 . S
C2795 H2789 0.930 . S
C2795 C2791 1.400 . S
C2795 C2794 1.385 . S
C2796 C2794 1.478 . S
C2796 C2798 1.381 . S
C2796 C2802 1.383 . S
C2797 C2793 1.495 . S
C2797 H2803 0.959 . S
C2797 H2804 0.961 . S
C2797 H2805 0.960 . S
C2798 C2796 1.381 . S
C2798 C2799 1.394 . S
C2798 H2806 0.930 . S
C2799 C2798 1.394 . S
C2799 C2800 1.383 . S
C2799 H2807 0.929 . S
C2800 C2799 1.383 . S
C2800 C2801 1.377 . S
C2801 H2785 0.930 . S
C2801 C2800 1.377 . S
C2801 C2802 1.379 . S
C2802 H2786 0.931 . S
C2802 C2796 1.383 . S
C2802 C2801 1.379 . S
H2803 C2797 0.959 . S
H2804 C2797 0.961 . S
H2805 C2797 0.960 . S
H2806 C2798 0.930 . S
H2807 C2799 0.929 . S
H2808 C2816 0.929 . S
H2809 C2818 0.930 . S
H2810 C2820 0.930 . S
H2811 C2823 0.929 . S
H2812 C2826 0.930 . S
H2813 C2828 0.960 . S
H2814 C2828 0.960 . S
H2815 C2828 0.960 . S
C2816 H2808 0.929 . S
C2816 C2817 1.377 . S
C2816 C2818 1.384 . S
C2817 C2816 1.377 . S
C2817 C2823 1.390 . S
C2818 H2809 0.930 . S
C2818 C2816 1.384 . S
C2818 C2819 1.372 . S
C2819 C2818 1.372 . S
C2819 C2820 1.400 . S
C2819 C2824 1.490 . S
C2820 H2810 0.930 . S
C2820 C2819 1.400 . S
C2820 C2823 1.386 . S
H2821 C2837 0.930 . S
H2822 C2838 0.931 . S
C2823 H2811 0.929 . S
C2823 C2817 1.390 . S
C2823 C2820 1.386 . S
C2824 C2819 1.490 . S
C2824 C2826 1.395 . S
C2824 C2827 1.403 . S
H2825 C2831 0.930 . S
C2826 H2812 0.930 . S
C2826 C2824 1.395 . S
C2826 C2829 1.403 . S
C2827 C2824 1.403 . S
C2827 C2828 1.524 . S
C2827 C2831 1.400 . S
C2828 H2813 0.960 . S
C2828 H2814 0.960 . S
C2828 H2815 0.960 . S
C2828 C2827 1.524 . S
C2829 C2826 1.403 . S
C2829 C2830 1.392 . S
C2829 C2833 1.495 . S
C2830 C2829 1.392 . S
C2830 C2831 1.385 . S
C2830 C2832 1.478 . S
C2831 H2825 0.930 . S
C2831 C2827 1.400 . S
C2831 C2830 1.385 . S
C2832 C2830 1.478 . S
C2832 C2834 1.381 . S
C2832 C2838 1.383 . S
C2833 C2829 1.495 . S
C2833 H2839 0.959 . S
C2833 H2840 0.961 . S
C2833 H2841 0.960 . S
C2834 C2832 1.381 . S
C2834 C2835 1.394 . S
C2834 H2842 0.930 . S
C2835 C2834 1.394 . S
C2835 C2836 1.383 . S
C2835 H2843 0.929 . S
C2836 C2835 1.383 . S
C2836 C2837 1.377 . S
C2837 H2821 0.930 . S
C2837 C2836 1.377 . S
C2837 C2838 1.379 . S
C2838 H2822 0.931 . S
C2838 C2832 1.383 . S
C2838 C2837 1.379 . S
H2839 C2833 0.959 . S
H2840 C2833 0.961 . S
H2841 C2833 0.960 . S
H2842 C2834 0.930 . S
H2843 C2835 0.929 . S
H2844 C2852 0.929 . S
H2845 C2854 0.930 . S
H2846 C2856 0.930 . S
H2847 C2859 0.929 . S
H2848 C2862 0.930 . S
H2849 C2864 0.960 . S
H2850 C2864 0.960 . S
H2851 C2864 0.960 . S
C2852 H2844 0.929 . S
C2852 C2853 1.377 . S
C2852 C2854 1.384 . S
C2853 C2852 1.377 . S
C2853 C2859 1.390 . S
C2854 H2845 0.930 . S
C2854 C2852 1.384 . S
C2854 C2855 1.372 . S
C2855 C2854 1.372 . S
C2855 C2856 1.400 . S
C2855 C2860 1.490 . S
C2856 H2846 0.930 . S
C2856 C2855 1.400 . S
C2856 C2859 1.386 . S
H2857 C2873 0.930 . S
H2858 C2874 0.931 . S
C2859 H2847 0.929 . S
C2859 C2853 1.390 . S
C2859 C2856 1.386 . S
C2860 C2855 1.490 . S
C2860 C2862 1.395 . S
C2860 C2863 1.403 . S
H2861 C2867 0.930 . S
C2862 H2848 0.930 . S
C2862 C2860 1.395 . S
C2862 C2865 1.403 . S
C2863 C2860 1.403 . S
C2863 C2864 1.524 . S
C2863 C2867 1.400 . S
C2864 H2849 0.960 . S
C2864 H2850 0.960 . S
C2864 H2851 0.960 . S
C2864 C2863 1.524 . S
C2865 C2862 1.403 . S
C2865 C2866 1.392 . S
C2865 C2869 1.495 . S
C2866 C2865 1.392 . S
C2866 C2867 1.385 . S
C2866 C2868 1.478 . S
C2867 H2861 0.930 . S
C2867 C2863 1.400 . S
C2867 C2866 1.385 . S
C2868 C2866 1.478 . S
C2868 C2870 1.381 . S
C2868 C2874 1.383 . S
C2869 C2865 1.495 . S
C2869 H2875 0.959 . S
C2869 H2876 0.961 . S
C2869 H2877 0.960 . S
C2870 C2868 1.381 . S
C2870 C2871 1.394 . S
C2870 H2878 0.930 . S
C2871 C2870 1.394 . S
C2871 C2872 1.383 . S
C2871 H2879 0.929 . S
C2872 C2871 1.383 . S
C2872 C2873 1.377 . S
C2873 H2857 0.930 . S
C2873 C2872 1.377 . S
C2873 C2874 1.379 . S
C2874 H2858 0.931 . S
C2874 C2868 1.383 . S
C2874 C2873 1.379 . S
H2875 C2869 0.959 . S
H2876 C2869 0.961 . S
H2877 C2869 0.960 . S
H2878 C2870 0.930 . S
H2879 C2871 0.929 . S
H2880 C2888 0.929 . S
H2881 C2890 0.930 . S
H2882 C2892 0.930 . S
H2883 C2895 0.929 . S
H2884 C2898 0.930 . S
H2885 C2900 0.960 . S
H2886 C2900 0.960 . S
H2887 C2900 0.960 . S
C2888 H2880 0.929 . S
C2888 C2889 1.377 . S
C2888 C2890 1.384 . S
C2889 C2888 1.377 . S
C2889 C2895 1.390 . S
C2890 H2881 0.930 . S
C2890 C2888 1.384 . S
C2890 C2891 1.372 . S
C2891 C2890 1.372 . S
C2891 C2892 1.400 . S
C2891 C2896 1.490 . S
C2892 H2882 0.930 . S
C2892 C2891 1.400 . S
C2892 C2895 1.386 . S
H2893 C2909 0.930 . S
H2894 C2910 0.931 . S
C2895 H2883 0.929 . S
C2895 C2889 1.390 . S
C2895 C2892 1.386 . S
C2896 C2891 1.490 . S
C2896 C2898 1.395 . S
C2896 C2899 1.403 . S
H2897 C2903 0.930 . S
C2898 H2884 0.930 . S
C2898 C2896 1.395 . S
C2898 C2901 1.403 1_455 S
C2899 C2896 1.403 . S
C2899 C2900 1.524 . S
C2899 C2903 1.400 1_455 S
C2900 H2885 0.960 . S
C2900 H2886 0.960 . S
C2900 H2887 0.960 . S
C2900 C2899 1.524 . S
C2901 C2898 1.403 1_655 S
C2901 C2902 1.392 . S
C2901 C2905 1.495 . S
C2902 C2901 1.392 . S
C2902 C2903 1.385 . S
C2902 C2904 1.478 . S
C2903 H2897 0.930 . S
C2903 C2899 1.400 1_655 S
C2903 C2902 1.385 . S
C2904 C2902 1.478 . S
C2904 C2906 1.381 . S
C2904 C2910 1.383 . S
C2905 C2901 1.495 . S
C2905 H2911 0.959 . S
C2905 H2912 0.961 . S
C2905 H2913 0.960 . S
C2906 C2904 1.381 . S
C2906 C2907 1.394 . S
C2906 H2914 0.930 . S
C2907 C2906 1.394 . S
C2907 C2908 1.383 . S
C2907 H2915 0.929 . S
C2908 C2907 1.383 . S
C2908 C2909 1.377 . S
C2909 H2893 0.930 . S
C2909 C2908 1.377 . S
C2909 C2910 1.379 . S
C2910 H2894 0.931 . S
C2910 C2904 1.383 . S
C2910 C2909 1.379 . S
H2911 C2905 0.959 . S
H2912 C2905 0.961 . S
H2913 C2905 0.960 . S
H2914 C2906 0.930 . S
H2915 C2907 0.929 . S
H2916 C2924 0.929 . S
H2917 C2926 0.930 . S
H2918 C2928 0.930 . S
H2919 C2931 0.929 . S
H2920 C2934 0.930 . S
H2921 C2936 0.960 . S
H2922 C2936 0.960 . S
H2923 C2936 0.960 . S
C2924 H2916 0.929 . S
C2924 C2925 1.377 . S
C2924 C2926 1.384 . S
C2925 C2924 1.377 . S
C2925 C2931 1.390 . S
C2926 H2917 0.930 . S
C2926 C2924 1.384 . S
C2926 C2927 1.372 . S
C2927 C2926 1.372 . S
C2927 C2928 1.400 . S
C2927 C2932 1.490 . S
C2928 H2918 0.930 . S
C2928 C2927 1.400 . S
C2928 C2931 1.386 . S
H2929 C2945 0.930 . S
H2930 C2946 0.931 . S
C2931 H2919 0.929 . S
C2931 C2925 1.390 . S
C2931 C2928 1.386 . S
C2932 C2927 1.490 . S
C2932 C2934 1.395 . S
C2932 C2935 1.403 . S
H2933 C2939 0.930 . S
C2934 H2920 0.930 . S
C2934 C2932 1.395 . S
C2934 C2937 1.403 . S
C2935 C2932 1.403 . S
C2935 C2936 1.524 . S
C2935 C2939 1.400 . S
C2936 H2921 0.960 . S
C2936 H2922 0.960 . S
C2936 H2923 0.960 . S
C2936 C2935 1.524 . S
C2937 C2934 1.403 . S
C2937 C2938 1.392 . S
C2937 C2941 1.495 . S
C2938 C2937 1.392 . S
C2938 C2939 1.385 . S
C2938 C2940 1.478 . S
C2939 H2933 0.930 . S
C2939 C2935 1.400 . S
C2939 C2938 1.385 . S
C2940 C2938 1.478 . S
C2940 C2942 1.381 . S
C2940 C2946 1.383 . S
C2941 C2937 1.495 . S
C2941 H2947 0.959 . S
C2941 H2948 0.961 . S
C2941 H2949 0.960 . S
C2942 C2940 1.381 . S
C2942 C2943 1.394 . S
C2942 H2950 0.930 . S
C2943 C2942 1.394 . S
C2943 C2944 1.383 . S
C2943 H2951 0.929 . S
C2944 C2943 1.383 . S
C2944 C2945 1.377 . S
C2945 H2929 0.930 . S
C2945 C2944 1.377 . S
C2945 C2946 1.379 . S
C2946 H2930 0.931 . S
C2946 C2940 1.383 . S
C2946 C2945 1.379 . S
H2947 C2941 0.959 . S
H2948 C2941 0.961 . S
H2949 C2941 0.960 . S
H2950 C2942 0.930 . S
H2951 C2943 0.929 . S
H2952 C2960 0.929 . S
H2953 C2962 0.930 . S
H2954 C2964 0.930 . S
H2955 C2967 0.929 . S
H2956 C2970 0.930 . S
H2957 C2972 0.979 . S
H2958 C2972 0.960 . S
H2959 C2972 0.960 . S
C2960 H2952 0.929 . S
C2960 C2961 1.377 . S
C2960 C2962 1.384 . S
C2961 C2960 1.377 . S
C2961 C2967 1.390 . S
C2962 H2953 0.930 . S
C2962 C2960 1.384 . S
C2962 C2963 1.372 . S
C2963 C2962 1.372 . S
C2963 C2964 1.400 . S
C2963 C2968 1.490 . S
C2964 H2954 0.930 . S
C2964 C2963 1.400 . S
C2964 C2967 1.386 . S
H2965 C2981 0.930 . S
H2966 C2982 0.931 . S
C2967 H2955 0.929 . S
C2967 C2961 1.390 . S
C2967 C2964 1.386 . S
C2968 C2963 1.490 . S
C2968 C2970 1.395 . S
C2968 C2971 1.403 . S
H2969 C2975 0.930 . S
C2970 H2956 0.930 . S
C2970 C2968 1.395 . S
C2970 C2973 1.403 1_565 S
C2971 C2968 1.403 . S
C2971 C2972 1.524 . S
C2971 C2975 1.400 1_565 S
C2972 H2957 0.979 . S
C2972 H2958 0.960 . S
C2972 H2959 0.960 . S
C2972 C2971 1.524 . S
C2973 C2970 1.403 1_545 S
C2973 C2974 1.392 . S
C2973 C2977 1.495 . S
C2974 C2973 1.392 . S
C2974 C2975 1.385 . S
C2974 C2976 1.478 . S
C2975 H2969 0.930 . S
C2975 C2971 1.400 1_545 S
C2975 C2974 1.385 . S
C2976 C2974 1.478 . S
C2976 C2978 1.381 . S
C2976 C2982 1.383 . S
C2977 C2973 1.495 . S
C2977 H2983 1.025 . S
C2977 H2984 0.961 . S
C2977 H2985 0.960 . S
C2978 C2976 1.381 . S
C2978 C2979 1.394 . S
C2978 H2986 0.930 . S
C2979 C2978 1.394 . S
C2979 C2980 1.383 . S
C2979 H2987 0.929 . S
C2980 C2979 1.383 . S
C2980 C2981 1.377 . S
C2981 H2965 0.930 . S
C2981 C2980 1.377 . S
C2981 C2982 1.379 . S
C2982 H2966 0.931 . S
C2982 C2976 1.383 . S
C2982 C2981 1.379 . S
H2983 C2977 1.025 . S
H2984 C2977 0.961 . S
H2985 C2977 0.960 . S
H2986 C2978 0.930 . S
H2987 C2979 0.929 . S
H2988 C2996 0.929 . S
H2989 C2998 0.930 . S
H2990 C3000 0.930 . S
H2991 C3003 0.929 . S
H2992 C3006 0.930 . S
H2993 C3008 0.910 1_565 S
H2994 C3008 0.960 . S
H2995 C3008 0.960 . S
C2996 H2988 0.929 . S
C2996 C2997 1.377 . S
C2996 C2998 1.384 . S
C2997 C2996 1.377 . S
C2997 C3003 1.390 . S
C2998 H2989 0.930 . S
C2998 C2996 1.384 . S
C2998 C2999 1.372 . S
C2999 C2998 1.372 . S
C2999 C3000 1.400 . S
C2999 C3004 1.490 . S
C3000 H2990 0.930 . S
C3000 C2999 1.400 . S
C3000 C3003 1.386 . S
H3001 C3017 0.930 . S
H3002 C3018 0.931 . S
C3003 H2991 0.929 . S
C3003 C2997 1.390 . S
C3003 C3000 1.386 . S
C3004 C2999 1.490 . S
C3004 C3006 1.395 . S
C3004 C3007 1.403 . S
H3005 C3011 0.930 . S
C3006 H2992 0.930 . S
C3006 C3004 1.395 . S
C3006 C3009 1.403 1_545 S
C3007 C3004 1.403 . S
C3007 C3008 1.524 . S
C3007 C3011 1.400 1_545 S
C3008 H2993 0.910 1_545 S
C3008 H2994 0.960 . S
C3008 H2995 0.960 . S
C3008 C3007 1.524 . S
C3009 C3006 1.403 1_565 S
C3009 C3010 1.392 . S
C3009 C3013 1.495 . S
C3010 C3009 1.392 . S
C3010 C3011 1.385 . S
C3010 C3012 1.478 . S
C3011 H3005 0.930 . S
C3011 C3007 1.400 1_565 S
C3011 C3010 1.385 . S
C3012 C3010 1.478 . S
C3012 C3014 1.381 . S
C3012 C3018 1.383 . S
C3013 C3009 1.495 . S
C3013 H3019 0.922 1_565 S
C3013 H3020 0.961 . S
C3013 H3021 0.960 . S
C3014 C3012 1.381 . S
C3014 C3015 1.394 . S
C3014 H3022 0.930 . S
C3015 C3014 1.394 . S
C3015 C3016 1.383 . S
C3015 H3023 0.929 . S
C3016 C3015 1.383 . S
C3016 C3017 1.377 . S
C3017 H3001 0.930 . S
C3017 C3016 1.377 . S
C3017 C3018 1.379 . S
C3018 H3002 0.931 . S
C3018 C3012 1.383 . S
C3018 C3017 1.379 . S
H3019 C3013 0.922 1_545 S
H3020 C3013 0.961 . S
H3021 C3013 0.960 . S
H3022 C3014 0.930 . S
H3023 C3015 0.929 . S
H3024 C3032 0.929 . S
H3025 C3034 0.930 . S
H3026 C3036 0.930 . S
H3027 C3039 0.929 . S
H3028 C3042 0.930 . S
H3029 C3044 0.960 . S
H3030 C3044 0.960 . S
H3031 C3044 0.960 . S
C3032 H3024 0.929 . S
C3032 C3033 1.377 . S
C3032 C3034 1.384 . S
C3033 C3032 1.377 . S
C3033 C3039 1.390 . S
C3034 H3025 0.930 . S
C3034 C3032 1.384 . S
C3034 C3035 1.372 . S
C3035 C3034 1.372 . S
C3035 C3036 1.400 . S
C3035 C3040 1.490 . S
C3036 H3026 0.930 . S
C3036 C3035 1.400 . S
C3036 C3039 1.386 . S
H3037 C3053 0.930 . S
H3038 C3054 0.931 . S
C3039 H3027 0.929 . S
C3039 C3033 1.390 . S
C3039 C3036 1.386 . S
C3040 C3035 1.490 . S
C3040 C3042 1.395 . S
C3040 C3043 1.403 . S
H3041 C3047 0.930 . S
C3042 H3028 0.930 . S
C3042 C3040 1.395 . S
C3042 C3045 1.403 1_455 S
C3043 C3040 1.403 . S
C3043 C3044 1.524 . S
C3043 C3047 1.400 1_455 S
C3044 H3029 0.960 . S
C3044 H3030 0.960 . S
C3044 H3031 0.960 . S
C3044 C3043 1.524 . S
C3045 C3042 1.403 1_655 S
C3045 C3046 1.392 . S
C3045 C3049 1.495 . S
C3046 C3045 1.392 . S
C3046 C3047 1.385 . S
C3046 C3048 1.478 . S
C3047 H3041 0.930 . S
C3047 C3043 1.400 1_655 S
C3047 C3046 1.385 . S
C3048 C3046 1.478 . S
C3048 C3050 1.381 . S
C3048 C3054 1.383 . S
C3049 C3045 1.495 . S
C3049 H3055 0.959 . S
C3049 H3056 0.961 . S
C3049 H3057 0.960 . S
C3050 C3048 1.381 . S
C3050 C3051 1.394 . S
C3050 H3058 0.930 . S
C3051 C3050 1.394 . S
C3051 C3052 1.383 . S
C3051 H3059 0.929 . S
C3052 C3051 1.383 . S
C3052 C3053 1.377 . S
C3053 H3037 0.930 . S
C3053 C3052 1.377 . S
C3053 C3054 1.379 . S
C3054 H3038 0.931 . S
C3054 C3048 1.383 . S
C3054 C3053 1.379 . S
H3055 C3049 0.959 . S
H3056 C3049 0.961 . S
H3057 C3049 0.960 . S
H3058 C3050 0.930 . S
H3059 C3051 0.929 . S
H3060 C3068 0.929 . S
H3061 C3070 0.930 . S
H3062 C3072 0.930 . S
H3063 C3075 0.929 . S
H3064 C3078 0.930 . S
H3065 C3080 0.960 . S
H3066 C3080 0.960 . S
H3067 C3080 0.960 . S
C3068 H3060 0.929 . S
C3068 C3069 1.377 . S
C3068 C3070 1.384 . S
C3069 C3068 1.377 . S
C3069 C3075 1.390 . S
C3070 H3061 0.930 . S
C3070 C3068 1.384 . S
C3070 C3071 1.372 . S
C3071 C3070 1.372 . S
C3071 C3072 1.400 . S
C3071 C3076 1.490 . S
C3072 H3062 0.930 . S
C3072 C3071 1.400 . S
C3072 C3075 1.386 . S
H3073 C3089 0.930 . S
H3074 C3090 0.931 . S
C3075 H3063 0.929 . S
C3075 C3069 1.390 . S
C3075 C3072 1.386 . S
C3076 C3071 1.490 . S
C3076 C3078 1.395 . S
C3076 C3079 1.403 . S
H3077 C3083 0.930 . S
C3078 H3064 0.930 . S
C3078 C3076 1.395 . S
C3078 C3081 1.403 . S
C3079 C3076 1.403 . S
C3079 C3080 1.524 . S
C3079 C3083 1.400 . S
C3080 H3065 0.960 . S
C3080 H3066 0.960 . S
C3080 H3067 0.960 . S
C3080 C3079 1.524 . S
C3081 C3078 1.403 . S
C3081 C3082 1.392 . S
C3081 C3085 1.495 . S
C3082 C3081 1.392 . S
C3082 C3083 1.385 . S
C3082 C3084 1.478 . S
C3083 H3077 0.930 . S
C3083 C3079 1.400 . S
C3083 C3082 1.385 . S
C3084 C3082 1.478 . S
C3084 C3086 1.381 . S
C3084 C3090 1.383 . S
C3085 C3081 1.495 . S
C3085 H3091 0.959 . S
C3085 H3092 0.961 . S
C3085 H3093 0.960 . S
C3086 C3084 1.381 . S
C3086 C3087 1.394 . S
C3086 H3094 0.930 . S
C3087 C3086 1.394 . S
C3087 C3088 1.383 . S
C3087 H3095 0.929 . S
C3088 C3087 1.383 . S
C3088 C3089 1.377 . S
C3089 H3073 0.930 . S
C3089 C3088 1.377 . S
C3089 C3090 1.379 . S
C3090 H3074 0.931 . S
C3090 C3084 1.383 . S
C3090 C3089 1.379 . S
H3091 C3085 0.959 . S
H3092 C3085 0.961 . S
H3093 C3085 0.960 . S
H3094 C3086 0.930 . S
H3095 C3087 0.929 . S
C513 C50 1.004 . S
C532 C8 1.004 . S
C549 C64 1.004 . S
C568 C22 1.007 . S
C585 C78 1.005 . S
C604 C36 1.000 . S
C621 C92 1.004 . S
C640 C134 1.000 . S
C657 C106 1.005 . S
C676 C148 1.006 . S
C693 C162 1.004 . S
C712 C120 1.000 . S
C729 C176 0.992 . S
C748 C218 0.985 . S
C765 C190 0.992 . S
C784 C232 0.988 . S
C801 C204 0.993 . S
C820 C246 0.986 . S
C837 C260 0.989 . S
C856 C302 0.981 . S
C873 C316 0.989 . S
C892 C274 0.984 . S
C909 C288 0.988 . S
C928 C330 0.982 . S
C945 C344 0.988 . S
C964 C386 0.992 . S
C981 C358 0.988 . S
C1000 C400 0.989 . S
C1017 C414 0.988 . S
C1036 C372 0.988 . S
C1053 C470 0.993 . S
C1072 C428 0.992 . S
C1089 C484 0.991 . S
C1108 C442 0.986 . S
C1125 C498 0.993 . S
C1144 C456 0.995 . S
C1161 C161 1.485 . S
C1180 C9 1.501 . S
C1197 C23 1.520 . S
C1216 C133 1.474 . S
C1233 C37 1.520 . S
C1252 C147 1.493 . S
C1269 C105 1.491 . S
C1288 C51 1.506 . S
C1305 C65 1.525 . S
C1324 C119 1.476 . S
C1341 C91 1.489 . S
C1360 C79 1.527 . S
C1377 C93 1.512 . S
C1396 C77 1.505 . S
C1413 C107 1.520 . S
C1432 C49 1.450 . S
C1449 C63 1.482 . S
C1468 C121 1.506 . S
C1485 C21 1.500 . S
C1504 C135 1.508 . S
C1521 C35 1.498 . S
C1540 C149 1.508 . S
C1557 C163 1.533 . S
C1576 C7 1.462 . S
C1593 C177 1.484 . S
C1612 C329 1.418 . S
C1629 C301 1.444 . S
C1648 C191 1.456 . S
C1665 C315 1.441 . S
C1684 C205 1.463 . S
C1701 C219 1.518 . S
C1720 C273 1.500 . S
C1737 C287 1.478 . S
C1756 C233 1.535 . S
C1773 C247 1.521 . S
C1792 C259 1.505 . S
C1809 C261 1.510 . S
C1828 C245 1.499 . S
C1845 C275 1.515 . S
C1864 C217 1.452 . S
C1881 C231 1.471 . S
C1900 C289 1.515 . S
C1917 C189 1.512 . S
C1936 C303 1.550 . S
C1953 C203 1.511 . S
C1972 C317 1.554 . S
C1989 C331 1.554 . S
C2008 C175 1.483 . S
C2025 C497 1.478 . S
C2044 C345 1.528 . S
C2061 C359 1.512 . S
C2080 C469 1.495 . S
C2097 C373 1.510 . S
C2116 C483 1.454 . S
C2133 C387 1.548 . S
C2152 C441 1.537 . S
C2169 C455 1.516 . S
C2188 C401 1.544 . S
C2205 C415 1.546 . S
C2224 C427 1.489 . S
C2241 C413 1.449 . S
C2260 C429 1.474 . S
C2277 C385 1.451 . S
C2296 C443 1.466 . S
C2313 C399 1.440 . S
C2332 C457 1.493 . S
C2349 C357 1.483 . S
C2368 C471 1.499 . S
C2385 C371 1.476 . S
C2404 C485 1.528 . S
C2421 C343 1.479 . S
C2440 C499 1.521 . S
C2457 C409 1.297 . S
C2476 C3 1.303 . S
C2493 C17 1.298 . S
C2512 C381 1.310 . S
C2529 C395 1.301 . S
C2548 C31 1.284 . S
C2565 C45 1.302 . S
C2584 C185 1.307 . S
C2601 C199 1.299 . S
C2620 C59 1.309 . S
C2637 C73 1.303 . S
C2656 C171 1.285 . S
C2673 C87 1.298 . S
C2692 C325 1.310 . S
C2709 C297 1.300 . S
C2728 C101 1.284 . S
C2745 C115 1.296 . S
C2764 C311 1.302 . S
C2781 C129 1.302 . S
C2800 C437 1.285 . S
C2817 C143 1.299 . S
C2836 C451 1.299 . S
C2853 C423 1.304 . S
C2872 C157 1.291 . S
C2889 C353 1.299 . S
C2908 C213 1.307 . S
C2925 C367 1.304 . S
C2944 C227 1.295 . S
C2961 C339 1.302 . S
C2980 C241 1.305 . S
C2997 C255 1.299 . S
C3016 C493 1.295 . S
C3033 C465 1.304 . S
C3052 C269 1.294 . S
C3069 C283 1.300 . S
C3088 C479 1.294 . S
