# Generated by pormake.
# Topology sma, (6)-cn, num edge types: 1
# Building blocks:
#     Node 0, Type 0, BuildingBlock: UKALOJ_clean_sbu_0, # of connection points: 6
#     Node 1, Type 0, BuildingBlock: UKALOJ_clean_sbu_0, # of connection points: 6
#     Node 2, Type 0, BuildingBlock: UKALOJ_clean_sbu_0, # of connection points: 6
#     Edge 3, Type (0, 0), BuildingBlock: FUNLAD_clean_linker_0, # of connection points: 2
#     Edge 4, Type (0, 0), BuildingBlock: FUNLAD_clean_linker_0, # of connection points: 2
#     Edge 5, Type (0, 0), BuildingBlock: FUNLAD_clean_linker_0, # of connection points: 2
#     Edge 6, Type (0, 0), BuildingBlock: FUNLAD_clean_linker_0, # of connection points: 2
#     Edge 7, Type (0, 0), BuildingBlock: FUNLAD_clean_linker_0, # of connection points: 2
#     Edge 8, Type (0, 0), BuildingBlock: FUNLAD_clean_linker_0, # of connection points: 2
#     Edge 9, Type (0, 0), BuildingBlock: FUNLAD_clean_linker_0, # of connection points: 2
#     Edge 10, Type (0, 0), BuildingBlock: FUNLAD_clean_linker_0, # of connection points: 2
#     Edge 11, Type (0, 0), BuildingBlock: FUNLAD_clean_linker_0, # of connection points: 2
# Relax obj value: 0.532
# Max RMSD: 0.340
# Mean RMSD: 0.340
data_MOF--net-sma--node1-UKALOJ_clean_sbu_0--edge1-FUNLAD_clean_linker_0
_symmetry_space_group_name_H-M    P1
_symmetry_Int_Tables_number       1
_symmetry_cell_setting            triclinic
loop_
_symmetry_equiv_pos_as_xyz
'x, y, z'
_cell_length_a     30.338207
_cell_length_b     30.749667
_cell_length_c     21.084383
_cell_angle_alpha  89.646675
_cell_angle_beta   90.919145
_cell_angle_gamma 120.12828
loop_
_atom_site_label
_atom_site_type_symbol
_atom_site_fract_x
_atom_site_fract_y
_atom_site_fract_z
_atom_type_partial_charge
Zn0 Zn 0.04845 0.54794 0.09314 0.0
O1 O 0.11385 0.62503 0.0826 0.0
C2 C 0.12659 0.51724 0.0918 0.0
Zn3 Zn 0.07106 0.54177 0.18801 0.0
C4 C 0.13514 0.64422 0.13607 0.0
O5 O 0.12076 0.61742 0.18533 0.0
C6 C 0.98385 0.44614 0.15856 0.0
O7 O 1.00887 0.5561 0.21964 0.0
O8 O 1.00743 0.57877 0.12144 0.0
N9 N 0.09731 0.5415 0.27648 0.0
C10 C 0.0742 0.5166 0.32962 0.0
C11 C 0.15425 0.55705 0.34877 0.0
N12 N 0.14698 0.56643 0.28832 0.0
N13 N 0.10928 0.52539 0.37567 0.0
C14 C 1.03997 0.54537 0.94786 0.0
C15 C 0.96047 0.51728 0.93332 0.0
N16 N 1.02017 0.54452 0.00466 0.0
N17 N 0.97087 0.52764 -0.00445 0.0
N18 N 1.00318 0.52767 0.90258 0.0
H19 H 0.11943 0.59249 0.97333 0.0
H20 H 0.10597 0.58303 0.88889 0.0
H21 H 0.10339 0.53362 0.93697 0.0
C22 C 0.09547 0.56502 0.93627 0.0
C23 C 1.01745 0.48535 0.33643 0.0
H24 H 0.99718 0.49504 0.30019 0.0
H25 H 1.00585 0.49052 0.38414 0.0
H26 H 1.00542 0.4451 0.32993 0.0
O27 O 1.02244 0.46545 0.19486 0.0
O28 O 0.98202 0.47202 0.11204 0.0
C29 C 0.99197 0.57439 0.17737 0.0
O30 O 0.09086 0.51662 0.05938 0.0
O31 O 0.13088 0.52925 0.15027 0.0
Zn32 Zn 0.5436 0.05244 0.53332 0.0
O33 O 0.6205 0.12229 0.53273 0.0
C34 C 0.52192 0.12429 0.48138 0.0
Zn35 Zn 0.55205 0.04841 0.43573 0.0
C36 C 0.64873 0.12589 0.48632 0.0
O37 O 0.62976 0.09345 0.44281 0.0
C38 C 0.44743 0.97698 0.46816 0.0
O39 O 0.55909 0.97987 0.4458 0.0
O40 O 0.57508 1.00742 0.54291 0.0
N41 N 0.55951 0.05076 0.34105 0.0
C42 C 0.58613 0.03725 0.30355 0.0
C43 C 0.55291 0.07006 0.24446 0.0
N44 N 0.53893 0.07118 0.3044 0.0
N45 N 0.58244 0.04892 0.24292 0.0
C46 C 0.57797 0.06259 0.67189 0.0
C47 C 0.50762 0.02589 0.72121 0.0
N48 N 0.54036 0.05121 0.62895 0.0
N49 N 0.49666 0.02856 0.65958 0.0
N50 N 0.55837 0.04732 0.72986 0.0
H51 H 0.63901 0.07248 0.61022 0.0
H52 H 0.6536 0.07459 0.693 0.0
H53 H 0.65163 0.12648 0.65629 0.0
C54 C 0.6335 0.08491 0.65687 0.0
C55 C 0.61814 1.01557 0.32641 0.0
H56 H 0.63518 0.03062 0.37367 0.0
H57 H 0.6492 1.024 0.2928 0.0
H58 H 0.59375 0.97414 0.33008 0.0
O59 O 0.47492 1.00381 0.42341 0.0
O60 O 0.46673 0.98419 0.52422 0.0
C61 C 0.57305 0.97666 0.50224 0.0
O62 O 0.51125 0.09622 0.52926 0.0
O63 O 0.54374 0.11706 0.43431 0.0
Zn64 Zn 0.53738 0.53315 0.86794 0.0
O65 O 0.5259 0.45645 0.87026 0.0
C66 C 0.64717 0.56316 0.87486 0.0
Zn67 Zn 0.57018 0.54825 0.7769 0.0
C68 C 0.52644 0.44116 0.8143 0.0
O69 O 0.54002 0.47189 0.769 0.0
C70 C 0.57965 0.64055 0.81462 0.0
O71 O 0.49583 0.54257 0.7471 0.0
O72 O 0.46466 0.50426 0.83678 0.0
N73 N 0.59328 0.55513 0.68589 0.0
C74 C 0.56784 0.52849 0.63399 0.0
C75 C 0.63871 0.58951 0.60326 0.0
N76 N 0.63752 0.59277 0.66687 0.0
N77 N 0.59568 0.54908 0.58173 0.0
C78 C 0.48282 0.49153 -0.00438 0.0
C79 C 0.50552 0.5596 0.04589 0.0
N80 N 0.51236 0.52987 0.95686 0.0
N81 N 0.52599 0.57213 -0.01207 0.0
N82 N 0.47806 0.50923 0.05187 0.0
H83 H 0.44218 0.43251 0.92731 0.0
H84 H 0.42352 0.41437 0.00854 0.0
H85 H 0.48339 0.42306 0.981 0.0
C86 C 0.4562 0.43714 0.97709 0.0
C87 C 0.51427 0.48455 0.63324 0.0
H88 H 0.49439 0.48014 0.67808 0.0
H89 H 0.51542 0.44956 0.62477 0.0
H90 H 0.49174 0.48862 0.59407 0.0
O91 O 0.6016 0.62403 0.78023 0.0
O92 O 0.54877 0.61116 0.85649 0.0
C93 C 0.45777 0.51896 0.78374 0.0
O94 O 0.61036 0.56096 0.90501 0.0
O95 O 0.64217 0.55598 0.81479 0.0
C96 C 0.15271 0.48539 -0.00084 0.0
C97 C 0.16569 0.51111 0.05759 0.0
C98 C 0.19032 0.48861 0.95856 0.0
C99 C 0.24231 0.51744 0.97552 0.0
C100 C 0.25505 0.54091 0.03561 0.0
C101 C 0.21725 0.53771 0.07626 0.0
C102 C 0.28435 0.52607 0.93137 0.0
C103 C 0.27798 0.50083 0.87637 0.0
C104 C 0.32158 0.50898 0.83605 0.0
C105 C 0.32024 0.46749 0.80646 0.0
C106 C 0.36391 0.47224 0.77802 0.0
C107 C 0.40936 0.51888 0.77691 0.0
H108 H 0.36716 0.5897 0.84951 0.0
C109 C 0.40863 0.56152 0.79919 0.0
C110 C 0.36535 0.55662 0.82907 0.0
H111 H 0.44341 0.59771 0.80048 0.0
H112 H 0.11326 0.46442 0.98336 0.0
H113 H 0.1781 0.47 0.91309 0.0
H114 H 0.29462 0.56325 0.05043 0.0
H115 H 0.22865 0.55847 0.12052 0.0
H116 H 0.32286 0.55392 0.94603 0.0
H117 H 0.24068 0.47009 0.8629 0.0
H118 H 0.28678 0.43046 0.81015 0.0
H119 H 0.36372 0.4385 0.76299 0.0
C120 C 0.73474 0.16357 0.43983 0.0
C121 C 0.69896 0.17069 0.47294 0.0
C122 C 0.77271 0.20236 0.40398 0.0
C123 C 0.77552 0.24944 0.39937 0.0
C124 C 0.74296 0.258 0.43775 0.0
C125 C 0.70513 0.21908 0.47426 0.0
C126 C 0.81019 0.28955 0.35387 0.0
C127 C 0.8337 0.28155 0.30493 0.0
C128 C 0.86844 0.32159 0.26016 0.0
C129 C 0.91095 0.32016 0.23732 0.0
C130 C 0.94649 0.35875 0.19885 0.0
C131 C 0.93939 0.39873 0.18009 0.0
H132 H 0.82697 0.36203 0.25457 0.0
C133 C 0.895 0.39842 0.19901 0.0
C134 C 0.86003 0.36046 0.2392 0.0
H135 H 0.88914 0.42934 0.1864 0.0
H136 H 0.73096 0.12663 0.43782 0.0
H137 H 0.79822 0.19421 0.37824 0.0
H138 H 0.74474 0.29407 0.43662 0.0
H139 H 0.67806 0.22576 0.49878 0.0
H140 H 0.81552 0.32695 0.36013 0.0
H141 H 0.82955 0.24478 0.29805 0.0
H142 H 0.91813 0.29042 0.25201 0.0
H143 H 0.98097 0.35869 0.18633 0.0
C144 C 0.6042 0.94189 0.58719 0.0
C145 C 0.58141 0.93567 0.52649 0.0
C146 C 0.60326 0.90168 0.61925 0.0
C147 C 0.58035 0.85389 0.59135 0.0
C148 C 0.56077 0.84802 0.52885 0.0
C149 C 0.56069 0.88845 0.49685 0.0
C150 C 0.579 0.81093 0.62645 0.0
C151 C 0.57118 0.80438 0.6898 0.0
C152 C 0.57566 0.76508 0.72647 0.0
C153 C 0.54269 0.73956 0.77702 0.0
C154 C 0.54575 0.7011 0.80997 0.0
C155 C 0.58276 0.68847 0.79385 0.0
H156 H 0.64157 0.77463 0.6762 0.0
C157 C 0.61815 0.71714 0.74665 0.0
C158 C 0.61432 0.75439 0.71307 0.0
H159 H 0.64765 0.70912 0.73312 0.0
H160 H 0.62127 0.97778 0.61151 0.0
H161 H 0.62049 0.90813 0.66618 0.0
H162 H 0.54381 0.81167 0.50572 0.0
H163 H 0.54262 0.88221 0.45049 0.0
H164 H 0.58434 0.78398 0.59946 0.0
H165 H 0.56073 0.82826 0.71564 0.0
H166 H 0.51321 0.74795 0.78929 0.0
H167 H 0.51778 0.67982 0.8457 0.0
C168 C 0.69088 0.57164 0.97956 0.0
C169 C 0.69257 0.57058 0.9127 0.0
C170 C 0.73129 0.57659 0.01756 0.0
C171 C 0.77509 0.58079 -0.00984 0.0
C172 C 0.77752 0.5807 0.92335 0.0
C173 C 0.73652 0.57519 0.88495 0.0
C174 C 0.81941 0.58761 0.03012 0.0
C175 C 0.81544 0.57083 0.09063 0.0
C176 C 0.86036 0.57757 0.12887 0.0
C177 C 0.85613 0.53865 0.16853 0.0
C178 C 0.89986 0.54099 0.19598 0.0
C179 C 0.94832 0.58258 0.18473 0.0
H180 H 0.91228 0.65317 0.09648 0.0
C181 C 0.95128 0.62434 0.15281 0.0
C182 C 0.90797 0.62168 0.12454 0.0
H183 H 0.98815 0.65682 0.14293 0.0
H184 H 0.65792 0.56837 0.00321 0.0
H185 H 0.72828 0.57801 0.06849 0.0
H186 H 0.81106 0.58444 0.90076 0.0
H187 H 0.73926 0.57455 0.83385 0.0
H188 H 0.85652 0.60554 0.00792 0.0
H189 H 0.77804 0.54828 0.11121 0.0
H190 H 0.81961 0.50465 0.17397 0.0
H191 H 0.89629 0.50806 0.21965 0.0
C192 C 0.36751 0.94413 0.40514 0.0
C193 C 0.39683 0.93464 0.44945 0.0
C194 C 0.33105 0.90573 0.36628 0.0
C195 C 0.32328 0.85664 0.37028 0.0
C196 C 0.34938 0.84636 0.41875 0.0
C197 C 0.38585 0.88493 0.45787 0.0
C198 C 0.29119 0.81602 0.32318 0.0
C199 C 0.27055 0.82248 0.26883 0.0
C200 C 0.24116 0.7809 0.22225 0.0
C201 C 0.19876 0.77769 0.18959 0.0
C202 C 0.16673 0.73532 0.15223 0.0
C203 C 0.17741 0.69613 0.14561 0.0
H204 H 0.28755 0.74586 0.23321 0.0
C205 C 0.22269 0.702 0.17291 0.0
C206 C 0.25417 0.74378 0.21082 0.0
H207 H 0.23125 0.67184 0.16981 0.0
H208 H 0.37567 0.9823 0.39708 0.0
H209 H 0.31114 0.91568 0.33146 0.0
H210 H 0.34394 0.8089 0.42382 0.0
H211 H 0.40869 0.87665 0.49037 0.0
H212 H 0.28562 0.77887 0.33308 0.0
H213 H 0.2734 0.85832 0.25836 0.0
H214 H 0.1883 0.80619 0.19666 0.0
H215 H 0.13131 0.73111 0.13358 0.0
C216 C 0.47449 0.3634 0.75311 0.0
C217 C 0.51399 0.3897 0.79774 0.0
C218 C 0.47465 0.32722 0.71322 0.0
C219 C 0.5149 0.31685 0.71652 0.0
C220 C 0.55177 0.33987 0.76531 0.0
C221 C 0.55151 0.37612 0.80528 0.0
C222 C 0.52164 0.28476 0.66869 0.0
C223 C 0.49584 0.26906 0.61269 0.0
C224 C 0.50485 0.2379 0.56634 0.0
C225 C 0.46327 0.1988 0.5335 0.0
C226 C 0.46975 0.16454 0.49679 0.0
C227 C 0.51822 0.16983 0.4903 0.0
H228 H 0.58698 0.27615 0.57879 0.0
C229 C 0.56043 0.21195 0.51778 0.0
C230 C 0.55389 0.24552 0.55571 0.0
H231 H 0.5979 0.21605 0.51541 0.0
H232 H 0.44579 0.37407 0.74521 0.0
H233 H 0.44436 0.30952 0.67821 0.0
H234 H 0.58295 0.33234 0.76985 0.0
H235 H 0.58335 0.3969 0.83774 0.0
H236 H 0.55058 0.27475 0.67953 0.0
H237 H 0.46568 0.27696 0.60091 0.0
H238 H 0.42514 0.19244 0.54011 0.0
H239 H 0.43631 0.13153 0.47804 0.0
C240 C 1.02849 0.48169 0.83103 0.0
C241 C 1.00498 0.51046 0.84034 0.0
C242 C 1.03226 0.46651 0.77036 0.0
C243 C 1.01183 0.47928 0.71816 0.0
C244 C 0.9849 0.50471 0.72798 0.0
C245 C 0.98158 0.52035 0.78888 0.0
C246 C 1.0219 0.47029 0.6529 0.0
C247 C 0.06842 0.47948 0.63657 0.0
C248 C 0.08311 0.48643 0.56975 0.0
C249 C 0.12587 0.53159 0.55166 0.0
C250 C 0.13523 0.54356 0.48766 0.0
C251 C 0.10242 0.51007 0.44094 0.0
H252 H 1.01994 0.41556 0.53686 0.0
C253 C 0.06272 0.46259 0.45935 0.0
C254 C 0.05242 0.45122 0.52344 0.0
H255 H 1.039 0.43461 0.42455 0.0
H256 H 0.04393 0.47089 0.8707 0.0
H257 H 0.05174 0.44545 0.76417 0.0
H258 H 0.96848 0.51446 0.68822 0.0
H259 H 0.96213 0.54136 0.79571 0.0
H260 H 0.99385 0.46439 0.61614 0.0
H261 H 0.09862 0.4916 0.67225 0.0
H262 H 0.15013 0.55901 0.587 0.0
H263 H 0.16674 0.57998 0.47474 0.0
C264 C 0.62941 0.08007 0.14454 0.0
C265 C 0.60379 0.04078 0.18752 0.0
C266 C 0.64352 0.0709 0.08592 0.0
C267 C 0.63159 1.02182 0.06906 0.0
C268 C 0.60857 0.98313 0.11391 0.0
C269 C 0.59495 0.9926 0.17297 0.0
C270 C 0.63154 1.00819 0.00191 0.0
C271 C 0.65892 0.04278 0.95794 0.0
C272 C 0.63753 0.04171 0.89399 0.0
C273 C 0.65084 0.08799 0.86534 0.0
C274 C 0.62444 0.08986 0.8117 0.0
C275 C 0.5845 0.04548 0.78578 0.0
H276 H 0.58897 0.96047 0.8847 0.0
C277 C 0.57258 0.99902 0.81214 0.0
C278 C 0.59923 0.99699 0.86551 0.0
H279 H 0.54284 0.96442 0.79104 0.0
H280 H 0.63636 0.11741 0.15538 0.0
H281 H 0.65979 0.10162 0.05243 0.0
H282 H 0.59821 0.94494 0.10176 0.0
H283 H 0.57458 0.96174 0.20558 0.0
H284 H 0.60037 0.9716 -0.01226 0.0
H285 H 0.69141 0.07825 0.97331 0.0
H286 H 0.68012 0.123 0.8862 0.0
H287 H 0.63449 0.12589 0.79085 0.0
C288 C 0.55415 0.48965 0.49349 0.0
C289 C 0.57786 0.53887 0.51732 0.0
C290 C 0.52902 0.47825 0.43468 0.0
C291 C 0.52766 0.51627 0.3986 0.0
C292 C 0.55361 0.56591 0.4216 0.0
C293 C 0.57855 0.57712 0.48033 0.0
C294 C 0.50076 0.50695 0.33653 0.0
C295 C 0.47518 0.46216 0.30678 0.0
C296 C 0.45921 0.46034 0.23996 0.0
C297 C 0.47478 0.43745 0.19532 0.0
C298 C 0.47611 0.44947 0.1312 0.0
C299 C 0.46098 0.48377 0.11124 0.0
H300 H 0.42456 0.50648 0.25278 0.0
C301 C 0.43907 0.50122 0.15501 0.0
C302 C 0.4379 0.48937 0.21905 0.0
H303 H 0.42696 0.52747 0.14033 0.0
H304 H 0.55396 0.45984 0.52126 0.0
H305 H 0.5104 0.43965 0.4188 0.0
H306 H 0.55375 0.5961 0.39464 0.0
H307 H 0.59637 0.61526 0.49826 0.0
H308 H 0.50477 0.53999 0.31206 0.0
H309 H 0.47265 0.42853 0.327 0.0
H310 H 0.49114 0.41479 0.21059 0.0
H311 H 0.494 0.43618 0.09868 0.0
loop_
_geom_bond_atom_site_label_1
_geom_bond_atom_site_label_2
_geom_bond_distance
_geom_bond_site_symmetry_2
_ccdc_geom_bond_type
Zn0 O1 2.055 . S
Zn0 O8 2.046 1_455 S
Zn0 N16 2.037 1_554 S
Zn0 O28 2.053 1_455 S
Zn0 O30 2.066 . S
O1 Zn0 2.055 . S
O1 C4 1.259 . S
C2 O30 1.256 . S
C2 O31 1.244 . S
Zn3 O5 2.046 . S
Zn3 O7 2.055 1_455 S
Zn3 N9 2.036 . S
Zn3 O27 2.066 1_455 S
Zn3 O31 2.053 . S
C4 O1 1.259 . S
C4 O5 1.254 . S
O5 Zn3 2.046 . S
O5 C4 1.254 . S
C6 O27 1.256 . S
C6 O28 1.244 . S
O7 Zn3 2.055 1_655 S
O7 C29 1.259 . S
O8 Zn0 2.046 1_655 S
O8 C29 1.254 . S
N9 Zn3 2.036 . S
N9 C10 1.298 1_455 S
N9 N12 1.398 . S
C10 N9 1.298 1_655 S
C10 N13 1.367 1_655 S
C10 C23 1.481 . S
C11 N12 1.299 . S
C11 N13 1.379 . S
N12 N9 1.398 . S
N12 C11 1.299 . S
N13 C10 1.367 1_455 S
N13 C11 1.379 . S
C14 N16 1.301 . S
C14 N18 1.367 . S
C14 C22 1.481 . S
C15 N17 1.299 . S
C15 N18 1.379 1_655 S
N16 Zn0 2.037 1_556 S
N16 C14 1.301 . S
N16 N17 1.396 1_455 S
N17 C15 1.299 . S
N17 N16 1.396 1_655 S
N18 C14 1.367 . S
N18 C15 1.379 1_455 S
H19 C22 0.980 . S
H20 C22 0.981 . S
H21 C22 0.981 . S
C22 C14 1.481 . S
C22 H19 0.980 . S
C22 H20 0.981 . S
C22 H21 0.981 . S
C23 C10 1.481 . S
C23 H24 0.980 . S
C23 H25 0.981 . S
C23 H26 0.981 . S
H24 C23 0.980 . S
H25 C23 0.981 . S
H26 C23 0.981 . S
O27 Zn3 2.066 1_655 S
O27 C6 1.256 . S
O28 Zn0 2.053 1_655 S
O28 C6 1.244 . S
C29 O7 1.259 . S
C29 O8 1.254 . S
O30 Zn0 2.066 . S
O30 C2 1.256 . S
O31 C2 1.244 . S
O31 Zn3 2.053 . S
Zn32 O33 2.055 . S
Zn32 O40 2.046 1_545 S
Zn32 N48 2.037 . S
Zn32 O60 2.053 1_545 S
Zn32 O62 2.066 . S
O33 Zn32 2.055 . S
O33 C36 1.259 . S
C34 O62 1.256 . S
C34 O63 1.244 . S
Zn35 O37 2.046 . S
Zn35 O39 2.055 1_545 S
Zn35 N41 2.036 . S
Zn35 O59 2.066 1_545 S
Zn35 O63 2.053 . S
C36 O33 1.259 . S
C36 O37 1.254 . S
O37 Zn35 2.046 . S
O37 C36 1.254 . S
C38 O59 1.256 . S
C38 O60 1.244 . S
O39 Zn35 2.055 1_565 S
O39 C61 1.259 . S
O40 Zn32 2.046 1_565 S
O40 C61 1.254 . S
N41 Zn35 2.036 . S
N41 C42 1.298 1_545 S
N41 N44 1.398 . S
C42 N41 1.298 1_565 S
C42 N45 1.367 1_565 S
C42 C55 1.481 . S
C43 N44 1.299 . S
C43 N45 1.379 . S
N44 N41 1.398 . S
N44 C43 1.299 . S
N45 C42 1.367 1_545 S
N45 C43 1.379 . S
C46 N48 1.301 . S
C46 N50 1.367 . S
C46 C54 1.481 . S
C47 N49 1.299 . S
C47 N50 1.379 1_565 S
N48 Zn32 2.037 . S
N48 C46 1.301 . S
N48 N49 1.396 1_545 S
N49 C47 1.299 . S
N49 N48 1.396 1_565 S
N50 C46 1.367 . S
N50 C47 1.379 1_545 S
H51 C54 0.980 . S
H52 C54 0.981 . S
H53 C54 0.981 . S
C54 C46 1.481 . S
C54 H51 0.980 . S
C54 H52 0.981 . S
C54 H53 0.981 . S
C55 C42 1.481 . S
C55 H56 0.980 . S
C55 H57 0.981 . S
C55 H58 0.981 . S
H56 C55 0.980 . S
H57 C55 0.981 . S
H58 C55 0.981 . S
O59 Zn35 2.066 1_565 S
O59 C38 1.256 . S
O60 Zn32 2.053 1_565 S
O60 C38 1.244 . S
C61 O39 1.259 . S
C61 O40 1.254 . S
O62 Zn32 2.066 . S
O62 C34 1.256 . S
O63 C34 1.244 . S
O63 Zn35 2.053 . S
Zn64 O65 2.055 . S
Zn64 O72 2.046 . S
Zn64 N80 2.036 1_556 S
Zn64 O92 2.053 . S
Zn64 O94 2.066 . S
O65 Zn64 2.055 . S
O65 C68 1.259 . S
C66 O94 1.256 . S
C66 O95 1.244 . S
Zn67 O69 2.046 . S
Zn67 O71 2.055 . S
Zn67 N73 2.036 . S
Zn67 O91 2.066 . S
Zn67 O95 2.053 . S
C68 O65 1.259 . S
C68 O69 1.254 . S
O69 Zn67 2.046 . S
O69 C68 1.254 . S
C70 O91 1.256 . S
C70 O92 1.244 . S
O71 Zn67 2.055 . S
O71 C93 1.259 . S
O72 Zn64 2.046 . S
O72 C93 1.254 . S
N73 Zn67 2.036 . S
N73 C74 1.298 . S
N73 N76 1.398 . S
C74 N73 1.298 . S
C74 N77 1.367 . S
C74 C87 1.481 . S
C75 N76 1.299 . S
C75 N77 1.379 . S
N76 N73 1.398 . S
N76 C75 1.299 . S
N77 C74 1.367 . S
N77 C75 1.379 . S
C78 N80 1.298 . S
C78 N82 1.367 . S
C78 C86 1.481 . S
C79 N81 1.299 . S
C79 N82 1.379 . S
N80 Zn64 2.036 1_554 S
N80 C78 1.298 . S
N80 N81 1.398 . S
N81 C79 1.299 . S
N81 N80 1.398 . S
N82 C78 1.367 . S
N82 C79 1.379 . S
H83 C86 0.980 . S
H84 C86 0.981 . S
H85 C86 0.981 . S
C86 C78 1.481 . S
C86 H83 0.980 . S
C86 H84 0.981 . S
C86 H85 0.981 . S
C87 C74 1.481 . S
C87 H88 0.980 . S
C87 H89 0.981 . S
C87 H90 0.981 . S
H88 C87 0.980 . S
H89 C87 0.981 . S
H90 C87 0.981 . S
O91 Zn67 2.066 . S
O91 C70 1.256 . S
O92 Zn64 2.053 . S
O92 C70 1.244 . S
C93 O71 1.259 . S
C93 O72 1.254 . S
O94 Zn64 2.066 . S
O94 C66 1.256 . S
O95 C66 1.244 . S
O95 Zn67 2.053 . S
C96 C97 1.386 . S
C96 C98 1.383 . S
C96 H112 0.951 . S
C97 C96 1.386 . S
C97 C101 1.383 . S
C98 C96 1.383 . S
C98 C99 1.402 . S
C98 H113 0.951 . S
C99 C98 1.402 . S
C99 C100 1.375 . S
C99 C102 1.481 1_554 S
C100 C99 1.375 . S
C100 C101 1.367 . S
C100 H114 0.951 . S
C101 C97 1.383 . S
C101 C100 1.367 . S
C101 H115 0.950 . S
C102 C99 1.481 1_556 S
C102 C103 1.297 . S
C102 H116 0.950 . S
C103 C102 1.297 . S
C103 C104 1.479 . S
C103 H117 0.950 . S
C104 C103 1.479 . S
C104 C105 1.375 . S
C104 C110 1.404 . S
C105 C104 1.375 . S
C105 C106 1.369 . S
C105 H118 0.950 . S
C106 C105 1.369 . S
C106 C107 1.392 . S
C106 H119 0.951 . S
C107 C106 1.392 . S
C107 C109 1.384 . S
H108 C110 0.949 . S
C109 C107 1.384 . S
C109 C110 1.385 . S
C109 H111 0.950 . S
C110 C104 1.404 . S
C110 H108 0.949 . S
C110 C109 1.385 . S
H111 C109 0.950 . S
H112 C96 0.951 . S
H113 C98 0.951 . S
H114 C100 0.951 . S
H115 C101 0.950 . S
H116 C102 0.950 . S
H117 C103 0.950 . S
H118 C105 0.950 . S
H119 C106 0.951 . S
C120 C121 1.386 . S
C120 C122 1.383 . S
C120 H136 0.951 . S
C121 C120 1.386 . S
C121 C125 1.383 . S
C122 C120 1.383 . S
C122 C123 1.402 . S
C122 H137 0.951 . S
C123 C122 1.402 . S
C123 C124 1.375 . S
C123 C126 1.481 . S
C124 C123 1.375 . S
C124 C125 1.367 . S
C124 H138 0.951 . S
C125 C121 1.383 . S
C125 C124 1.367 . S
C125 H139 0.950 . S
C126 C123 1.481 . S
C126 C127 1.297 . S
C126 H140 0.950 . S
C127 C126 1.297 . S
C127 C128 1.479 . S
C127 H141 0.950 . S
C128 C127 1.479 . S
C128 C129 1.375 . S
C128 C134 1.404 . S
C129 C128 1.375 . S
C129 C130 1.369 . S
C129 H142 0.950 . S
C130 C129 1.369 . S
C130 C131 1.392 . S
C130 H143 0.951 . S
C131 C130 1.392 . S
C131 C133 1.384 . S
H132 C134 0.949 . S
C133 C131 1.384 . S
C133 C134 1.385 . S
C133 H135 0.950 . S
C134 C128 1.404 . S
C134 H132 0.949 . S
C134 C133 1.385 . S
H135 C133 0.950 . S
H136 C120 0.951 . S
H137 C122 0.951 . S
H138 C124 0.951 . S
H139 C125 0.950 . S
H140 C126 0.950 . S
H141 C127 0.950 . S
H142 C129 0.950 . S
H143 C130 0.951 . S
C144 C145 1.386 . S
C144 C146 1.383 . S
C144 H160 0.951 . S
C145 C144 1.386 . S
C145 C149 1.383 . S
C146 C144 1.383 . S
C146 C147 1.402 . S
C146 H161 0.951 . S
C147 C146 1.402 . S
C147 C148 1.375 . S
C147 C150 1.481 . S
C148 C147 1.375 . S
C148 C149 1.367 . S
C148 H162 0.951 . S
C149 C145 1.383 . S
C149 C148 1.367 . S
C149 H163 0.950 . S
C150 C147 1.481 . S
C150 C151 1.297 . S
C150 H164 0.950 . S
C151 C150 1.297 . S
C151 C152 1.479 . S
C151 H165 0.950 . S
C152 C151 1.479 . S
C152 C153 1.375 . S
C152 C158 1.404 . S
C153 C152 1.375 . S
C153 C154 1.369 . S
C153 H166 0.950 . S
C154 C153 1.369 . S
C154 C155 1.392 . S
C154 H167 0.951 . S
C155 C154 1.392 . S
C155 C157 1.384 . S
H156 C158 0.949 . S
C157 C155 1.384 . S
C157 C158 1.385 . S
C157 H159 0.950 . S
C158 C152 1.404 . S
C158 H156 0.949 . S
C158 C157 1.385 . S
H159 C157 0.950 . S
H160 C144 0.951 . S
H161 C146 0.951 . S
H162 C148 0.951 . S
H163 C149 0.950 . S
H164 C150 0.950 . S
H165 C151 0.950 . S
H166 C153 0.950 . S
H167 C154 0.951 . S
C168 C169 1.386 . S
C168 C170 1.383 . S
C168 H184 0.951 . S
C169 C168 1.386 . S
C169 C173 1.383 . S
C170 C168 1.383 . S
C170 C171 1.402 . S
C170 H185 0.951 . S
C171 C170 1.402 . S
C171 C172 1.375 . S
C171 C174 1.481 . S
C172 C171 1.375 . S
C172 C173 1.367 . S
C172 H186 0.951 . S
C173 C169 1.383 . S
C173 C172 1.367 . S
C173 H187 0.950 . S
C174 C171 1.481 . S
C174 C175 1.297 . S
C174 H188 0.950 1_556 S
C175 C174 1.297 . S
C175 C176 1.479 1_556 S
C175 H189 0.950 . S
C176 C175 1.479 1_554 S
C176 C177 1.375 . S
C176 C182 1.404 . S
C177 C176 1.375 . S
C177 C178 1.369 . S
C177 H190 0.950 . S
C178 C177 1.369 . S
C178 C179 1.392 . S
C178 H191 0.951 . S
C179 C178 1.392 . S
C179 C181 1.384 . S
H180 C182 0.949 . S
C181 C179 1.384 . S
C181 C182 1.385 . S
C181 H183 0.950 . S
C182 C176 1.404 . S
C182 H180 0.949 . S
C182 C181 1.385 . S
H183 C181 0.950 . S
H184 C168 0.951 . S
H185 C170 0.951 . S
H186 C172 0.951 . S
H187 C173 0.950 . S
H188 C174 0.950 1_554 S
H189 C175 0.950 . S
H190 C177 0.950 . S
H191 C178 0.951 . S
C192 C193 1.386 . S
C192 C194 1.383 . S
C192 H208 0.951 . S
C193 C192 1.386 . S
C193 C197 1.383 . S
C194 C192 1.383 . S
C194 C195 1.402 . S
C194 H209 0.951 . S
C195 C194 1.402 . S
C195 C196 1.375 . S
C195 C198 1.481 . S
C196 C195 1.375 . S
C196 C197 1.367 . S
C196 H210 0.951 . S
C197 C193 1.383 . S
C197 C196 1.367 . S
C197 H211 0.950 . S
C198 C195 1.481 . S
C198 C199 1.297 . S
C198 H212 0.950 . S
C199 C198 1.297 . S
C199 C200 1.479 . S
C199 H213 0.950 . S
C200 C199 1.479 . S
C200 C201 1.375 . S
C200 C206 1.404 . S
C201 C200 1.375 . S
C201 C202 1.369 . S
C201 H214 0.950 . S
C202 C201 1.369 . S
C202 C203 1.392 . S
C202 H215 0.951 . S
C203 C202 1.392 . S
C203 C205 1.384 . S
H204 C206 0.949 . S
C205 C203 1.384 . S
C205 C206 1.385 . S
C205 H207 0.950 . S
C206 C200 1.404 . S
C206 H204 0.949 . S
C206 C205 1.385 . S
H207 C205 0.950 . S
H208 C192 0.951 . S
H209 C194 0.951 . S
H210 C196 0.951 . S
H211 C197 0.950 . S
H212 C198 0.950 . S
H213 C199 0.950 . S
H214 C201 0.950 . S
H215 C202 0.951 . S
C216 C217 1.386 . S
C216 C218 1.383 . S
C216 H232 0.951 . S
C217 C216 1.386 . S
C217 C221 1.383 . S
C218 C216 1.383 . S
C218 C219 1.402 . S
C218 H233 0.951 . S
C219 C218 1.402 . S
C219 C220 1.375 . S
C219 C222 1.481 . S
C220 C219 1.375 . S
C220 C221 1.367 . S
C220 H234 0.951 . S
C221 C217 1.383 . S
C221 C220 1.367 . S
C221 H235 0.950 . S
C222 C219 1.481 . S
C222 C223 1.297 . S
C222 H236 0.950 . S
C223 C222 1.297 . S
C223 C224 1.479 . S
C223 H237 0.950 . S
C224 C223 1.479 . S
C224 C225 1.375 . S
C224 C230 1.404 . S
C225 C224 1.375 . S
C225 C226 1.369 . S
C225 H238 0.950 . S
C226 C225 1.369 . S
C226 C227 1.392 . S
C226 H239 0.951 . S
C227 C226 1.392 . S
C227 C229 1.384 . S
H228 C230 0.949 . S
C229 C227 1.384 . S
C229 C230 1.385 . S
C229 H231 0.950 . S
C230 C224 1.404 . S
C230 H228 0.949 . S
C230 C229 1.385 . S
H231 C229 0.950 . S
H232 C216 0.951 . S
H233 C218 0.951 . S
H234 C220 0.951 . S
H235 C221 0.950 . S
H236 C222 0.950 . S
H237 C223 0.950 . S
H238 C225 0.950 . S
H239 C226 0.951 . S
C240 C241 1.386 . S
C240 C242 1.383 . S
C240 H256 0.951 . S
C241 C240 1.386 . S
C241 C245 1.383 1_455 S
C242 C240 1.383 . S
C242 C243 1.402 . S
C242 H257 0.951 . S
C243 C242 1.402 . S
C243 C244 1.375 1_455 S
C243 C246 1.481 1_455 S
C244 C243 1.375 1_655 S
C244 C245 1.367 . S
C244 H258 0.951 . S
C245 C241 1.383 1_655 S
C245 C244 1.367 . S
C245 H259 0.950 . S
C246 C243 1.481 1_655 S
C246 C247 1.297 1_655 S
C246 H260 0.950 . S
C247 C246 1.297 1_455 S
C247 C248 1.479 . S
C247 H261 0.950 . S
C248 C247 1.479 . S
C248 C249 1.375 . S
C248 C254 1.404 1_455 S
C249 C248 1.375 . S
C249 C250 1.369 . S
C249 H262 0.950 . S
C250 C249 1.369 . S
C250 C251 1.392 1_455 S
C250 H263 0.951 . S
C251 C250 1.392 1_655 S
C251 C253 1.384 . S
H252 C254 0.949 . S
C253 C251 1.384 . S
C253 C254 1.385 . S
C253 H255 0.950 . S
C254 C248 1.404 1_655 S
C254 H252 0.949 . S
C254 C253 1.385 . S
H255 C253 0.950 . S
H256 C240 0.951 . S
H257 C242 0.951 . S
H258 C244 0.951 . S
H259 C245 0.950 . S
H260 C246 0.950 . S
H261 C247 0.950 . S
H262 C249 0.950 . S
H263 C250 0.951 . S
C264 C265 1.386 1_545 S
C264 C266 1.383 . S
C264 H280 0.951 . S
C265 C264 1.386 1_565 S
C265 C269 1.383 . S
C266 C264 1.383 . S
C266 C267 1.402 1_545 S
C266 H281 0.951 . S
C267 C266 1.402 1_565 S
C267 C268 1.375 . S
C267 C270 1.481 . S
C268 C267 1.375 . S
C268 C269 1.367 . S
C268 H282 0.951 . S
C269 C265 1.383 . S
C269 C268 1.367 . S
C269 H283 0.950 . S
C270 C267 1.481 . S
C270 C271 1.297 1_564 S
C270 H284 0.950 1_554 S
C271 C270 1.297 1_546 S
C271 C272 1.479 . S
C271 H285 0.945 1_556 S
C272 C271 1.479 . S
C272 C273 1.375 . S
C272 C278 1.404 1_545 S
C273 C272 1.375 . S
C273 C274 1.369 . S
C273 H286 0.950 . S
C274 C273 1.369 . S
C274 C275 1.392 . S
C274 H287 0.951 . S
C275 C274 1.392 . S
C275 C277 1.384 1_545 S
H276 C278 0.949 . S
C277 C275 1.384 1_565 S
C277 C278 1.385 . S
C277 H279 0.950 . S
C278 C272 1.404 1_565 S
C278 H276 0.949 . S
C278 C277 1.385 . S
H279 C277 0.950 . S
H280 C264 0.951 . S
H281 C266 0.951 . S
H282 C268 0.951 . S
H283 C269 0.950 . S
H284 C270 0.950 1_556 S
H285 C271 0.945 1_554 S
H286 C273 0.950 . S
H287 C274 0.951 . S
C288 C289 1.386 . S
C288 C290 1.383 . S
C288 H304 0.951 . S
C289 C288 1.386 . S
C289 C293 1.383 . S
C290 C288 1.383 . S
C290 C291 1.402 . S
C290 H305 0.951 . S
C291 C290 1.402 . S
C291 C292 1.375 . S
C291 C294 1.481 . S
C292 C291 1.375 . S
C292 C293 1.367 . S
C292 H306 0.951 . S
C293 C289 1.383 . S
C293 C292 1.367 . S
C293 H307 0.950 . S
C294 C291 1.481 . S
C294 C295 1.297 . S
C294 H308 0.950 . S
C295 C294 1.297 . S
C295 C296 1.479 . S
C295 H309 0.950 . S
C296 C295 1.479 . S
C296 C297 1.375 . S
C296 C302 1.404 . S
C297 C296 1.375 . S
C297 C298 1.369 . S
C297 H310 0.950 . S
C298 C297 1.369 . S
C298 C299 1.392 . S
C298 H311 0.951 . S
C299 C298 1.392 . S
C299 C301 1.384 . S
H300 C302 0.949 . S
C301 C299 1.384 . S
C301 C302 1.385 . S
C301 H303 0.950 . S
C302 C296 1.404 . S
C302 H300 0.949 . S
C302 C301 1.385 . S
H303 C301 0.950 . S
H304 C288 0.951 . S
H305 C290 0.951 . S
H306 C292 0.951 . S
H307 C293 0.950 . S
H308 C294 0.950 . S
H309 C295 0.950 . S
H310 C297 0.950 . S
H311 C298 0.951 . S
C97 C2 1.845 . S
C107 C93 1.885 . S
C121 C36 1.859 . S
C131 C6 1.878 . S
C145 C61 1.870 . S
C155 C70 1.858 . S
C169 C66 1.887 . S
C179 C29 1.796 . S
C193 C38 1.844 . S
C203 C4 1.874 . S
C217 C68 1.833 . S
C227 C34 1.902 . S
C241 N18 0.409 . S
C251 N13 0.520 1_655 S
C265 N45 0.569 1_565 S
C275 N50 0.450 . S
C289 N77 0.538 . S
C299 N82 0.531 . S
