# Generated by pormake.
# Topology umz, (4)-cn, num edge types: 1
# Building blocks:
#     Node 0, Type 0, BuildingBlock: AZAVOO_clean_sbu_0, # of connection points: 4
#     Node 1, Type 0, BuildingBlock: AZAVOO_clean_sbu_0, # of connection points: 4
#     Node 2, Type 0, BuildingBlock: AZAVOO_clean_sbu_0, # of connection points: 4
#     Node 3, Type 0, BuildingBlock: AZAVOO_clean_sbu_0, # of connection points: 4
#     Node 4, Type 0, BuildingBlock: AZAVOO_clean_sbu_0, # of connection points: 4
#     Node 5, Type 0, BuildingBlock: AZAVOO_clean_sbu_0, # of connection points: 4
#     Node 6, Type 0, BuildingBlock: AZAVOO_clean_sbu_0, # of connection points: 4
#     Node 7, Type 0, BuildingBlock: AZAVOO_clean_sbu_0, # of connection points: 4
#     Node 8, Type 0, BuildingBlock: AZAVOO_clean_sbu_0, # of connection points: 4
#     Node 9, Type 0, BuildingBlock: AZAVOO_clean_sbu_0, # of connection points: 4
#     Node 10, Type 0, BuildingBlock: AZAVOO_clean_sbu_0, # of connection points: 4
#     Node 11, Type 0, BuildingBlock: AZAVOO_clean_sbu_0, # of connection points: 4
#     Node 12, Type 0, BuildingBlock: AZAVOO_clean_sbu_0, # of connection points: 4
#     Node 13, Type 0, BuildingBlock: AZAVOO_clean_sbu_0, # of connection points: 4
#     Node 14, Type 0, BuildingBlock: AZAVOO_clean_sbu_0, # of connection points: 4
#     Node 15, Type 0, BuildingBlock: AZAVOO_clean_sbu_0, # of connection points: 4
#     Edge 16, Type (0, 0), BuildingBlock: ZUJKAS_clean_linker_0, # of connection points: 2
#     Edge 17, Type (0, 0), BuildingBlock: ZUJKAS_clean_linker_0, # of connection points: 2
#     Edge 18, Type (0, 0), BuildingBlock: ZUJKAS_clean_linker_0, # of connection points: 2
#     Edge 19, Type (0, 0), BuildingBlock: ZUJKAS_clean_linker_0, # of connection points: 2
#     Edge 20, Type (0, 0), BuildingBlock: ZUJKAS_clean_linker_0, # of connection points: 2
#     Edge 21, Type (0, 0), BuildingBlock: ZUJKAS_clean_linker_0, # of connection points: 2
#     Edge 22, Type (0, 0), BuildingBlock: ZUJKAS_clean_linker_0, # of connection points: 2
#     Edge 23, Type (0, 0), BuildingBlock: ZUJKAS_clean_linker_0, # of connection points: 2
#     Edge 24, Type (0, 0), BuildingBlock: ZUJKAS_clean_linker_0, # of connection points: 2
#     Edge 25, Type (0, 0), BuildingBlock: ZUJKAS_clean_linker_0, # of connection points: 2
#     Edge 26, Type (0, 0), BuildingBlock: ZUJKAS_clean_linker_0, # of connection points: 2
#     Edge 27, Type (0, 0), BuildingBlock: ZUJKAS_clean_linker_0, # of connection points: 2
#     Edge 28, Type (0, 0), BuildingBlock: ZUJKAS_clean_linker_0, # of connection points: 2
#     Edge 29, Type (0, 0), BuildingBlock: ZUJKAS_clean_linker_0, # of connection points: 2
#     Edge 30, Type (0, 0), BuildingBlock: ZUJKAS_clean_linker_0, # of connection points: 2
#     Edge 31, Type (0, 0), BuildingBlock: ZUJKAS_clean_linker_0, # of connection points: 2
#     Edge 32, Type (0, 0), BuildingBlock: ZUJKAS_clean_linker_0, # of connection points: 2
#     Edge 33, Type (0, 0), BuildingBlock: ZUJKAS_clean_linker_0, # of connection points: 2
#     Edge 34, Type (0, 0), BuildingBlock: ZUJKAS_clean_linker_0, # of connection points: 2
#     Edge 35, Type (0, 0), BuildingBlock: ZUJKAS_clean_linker_0, # of connection points: 2
#     Edge 36, Type (0, 0), BuildingBlock: ZUJKAS_clean_linker_0, # of connection points: 2
#     Edge 37, Type (0, 0), BuildingBlock: ZUJKAS_clean_linker_0, # of connection points: 2
#     Edge 38, Type (0, 0), BuildingBlock: ZUJKAS_clean_linker_0, # of connection points: 2
#     Edge 39, Type (0, 0), BuildingBlock: ZUJKAS_clean_linker_0, # of connection points: 2
#     Edge 40, Type (0, 0), BuildingBlock: ZUJKAS_clean_linker_0, # of connection points: 2
#     Edge 41, Type (0, 0), BuildingBlock: ZUJKAS_clean_linker_0, # of connection points: 2
#     Edge 42, Type (0, 0), BuildingBlock: ZUJKAS_clean_linker_0, # of connection points: 2
#     Edge 43, Type (0, 0), BuildingBlock: ZUJKAS_clean_linker_0, # of connection points: 2
#     Edge 44, Type (0, 0), BuildingBlock: ZUJKAS_clean_linker_0, # of connection points: 2
#     Edge 45, Type (0, 0), BuildingBlock: ZUJKAS_clean_linker_0, # of connection points: 2
#     Edge 46, Type (0, 0), BuildingBlock: ZUJKAS_clean_linker_0, # of connection points: 2
#     Edge 47, Type (0, 0), BuildingBlock: ZUJKAS_clean_linker_0, # of connection points: 2
# Relax obj value: 0.271
# Max RMSD: 0.181
# Mean RMSD: 0.181
data_MOF--net-umz--node1-AZAVOO_clean_sbu_0--edge1-ZUJKAS_clean_linker_0
_symmetry_space_group_name_H-M    P1
_symmetry_Int_Tables_number       1
_symmetry_cell_setting            triclinic
loop_
_symmetry_equiv_pos_as_xyz
'x, y, z'
_cell_length_a     78.445066
_cell_length_b     78.443797
_cell_length_c     26.601672
_cell_angle_alpha  89.971855
_cell_angle_beta   90.027142
_cell_angle_gamma 90.035002
loop_
_atom_site_label
_atom_site_type_symbol
_atom_site_fract_x
_atom_site_fract_y
_atom_site_fract_z
_atom_type_partial_charge
Mg0 Mg 0.98722 0.61966 0.95832 0.0
O1 O 0.00809 0.61166 0.01292 0.0
O2 O 0.03371 0.61786 0.98173 0.0
Mg3 Mg 0.02893 0.63067 0.9053 0.0
C4 C 0.02429 0.61162 0.01628 0.0
C5 C 0.95881 0.60265 0.02539 0.0
O6 O 0.9586 0.59184 0.9877 0.0
O7 O 0.99061 0.64783 0.97865 0.0
O8 O 0.01563 0.65353 0.94217 0.0
O9 O 0.99006 0.59429 0.91982 0.0
O10 O 0.00418 0.61748 0.89812 0.0
C11 C 0.00247 0.65827 0.96677 0.0
C12 C 0.00163 0.60142 0.89219 0.0
O13 O 0.96849 0.61563 0.02298 0.0
Mg14 Mg 0.8773 0.98707 0.44541 0.0
O15 O 0.88772 0.00792 0.49676 0.0
O16 O 0.8827 0.03357 0.46366 0.0
Mg17 Mg 0.86668 0.02898 0.39282 0.0
C18 C 0.88907 0.0241 0.49785 0.0
C19 C 0.89818 0.96618 0.52203 0.0
O20 O 0.91011 0.97399 0.49613 0.0
O21 O 0.85016 0.99184 0.47309 0.0
O22 O 0.84471 0.0173 0.43879 0.0
O23 O 0.90142 0.98853 0.40013 0.0
O24 O 0.87834 0.0036 0.3837 0.0
C25 C 0.84017 0.0044 0.46498 0.0
C26 C 0.89403 0.0003 0.37387 0.0
O27 O 0.88268 0.96831 0.50943 0.0
Mg28 Mg 0.51393 0.87873 0.95318 0.0
O29 O 0.4926 0.88561 0.00746 0.0
O30 O 0.46734 0.87857 0.97522 0.0
Mg31 Mg 0.47283 0.86638 0.8984 0.0
C32 C 0.4764 0.88498 0.01033 0.0
C33 C 0.54104 0.89676 0.02255 0.0
O34 O 0.54035 0.90813 0.98633 0.0
O35 O 0.51157 0.85035 0.97241 0.0
O36 O 0.48689 0.84393 0.93496 0.0
O37 O 0.51015 0.90417 0.91554 0.0
O38 O 0.49708 0.88051 0.89259 0.0
C39 C 0.50012 0.83955 0.95981 0.0
C40 C 0.49896 0.89669 0.88735 0.0
O41 O 0.53236 0.88314 0.01847 0.0
Mg42 Mg 0.61838 0.50564 0.45773 0.0
O43 O 0.60881 0.48624 0.51493 0.0
O44 O 0.61519 0.45985 0.49051 0.0
Mg45 Mg 0.62997 0.46261 0.41648 0.0
C46 C 0.60838 0.47017 0.52166 0.0
C47 C 0.59983 0.53516 0.51603 0.0
O48 O 0.58953 0.53401 0.47723 0.0
O49 O 0.6459 0.50253 0.4845 0.0
O50 O 0.65206 0.4764 0.4563 0.0
O51 O 0.59401 0.50218 0.41466 0.0
O52 O 0.61741 0.48727 0.40093 0.0
C53 C 0.65633 0.49019 0.47859 0.0
C54 C 0.60159 0.48992 0.39095 0.0
O55 O 0.61313 0.52592 0.51728 0.0
Mg56 Mg 0.98996 0.87752 0.04369 0.0
O57 O 0.01039 0.88596 0.98809 0.0
O58 O 0.03619 0.87911 0.01669 0.0
Mg59 Mg 0.03201 0.86546 0.09212 0.0
C60 C 0.02656 0.88585 0.98351 0.0
C61 C 0.96064 0.89539 0.98277 0.0
O62 O 0.96058 0.90514 0.02291 0.0
O63 O 0.99276 0.84957 0.02019 0.0
O64 O 0.01804 0.84319 0.05408 0.0
O65 O 0.99344 0.90236 0.08451 0.0
O66 O 0.00752 0.8788 0.10268 0.0
C67 C 0.00459 0.83888 0.03007 0.0
C68 C 0.00518 0.8948 0.11049 0.0
O69 O 0.97059 0.88262 0.98138 0.0
Mg70 Mg 0.62136 0.99318 0.54646 0.0
O71 O 0.61227 0.01321 0.49068 0.0
O72 O 0.61806 0.03937 0.5184 0.0
Mg73 Mg 0.63203 0.03574 0.59358 0.0
C74 C 0.61172 0.02934 0.48556 0.0
C75 C 0.60616 0.96178 0.48587 0.0
O76 O 0.59746 0.95944 0.5275 0.0
O77 O 0.64914 0.99693 0.52309 0.0
O78 O 0.65477 0.02271 0.55481 0.0
O79 O 0.59644 0.99581 0.58716 0.0
O80 O 0.61951 0.01077 0.60511 0.0
C81 C 0.65942 0.00925 0.5315 0.0
C82 C 0.6036 0.00784 0.61301 0.0
O83 O 0.61708 0.97374 0.48387 0.0
Mg84 Mg 0.50946 0.62111 0.04983 0.0
O85 O 0.48903 0.61277 0.99425 0.0
O86 O 0.46331 0.6208 0.02063 0.0
Mg87 Mg 0.46758 0.63513 0.09492 0.0
C88 C 0.47291 0.61337 0.98869 0.0
C89 C 0.53038 0.59916 0.97552 0.0
O90 O 0.52173 0.58749 0.00012 0.0
O91 O 0.50773 0.64883 0.0234 0.0
O92 O 0.48252 0.65644 0.05542 0.0
O93 O 0.50494 0.59695 0.09341 0.0
O94 O 0.49158 0.62117 0.10814 0.0
C95 C 0.49623 0.66003 0.03167 0.0
C96 C 0.49335 0.60523 0.11796 0.0
O97 O 0.52888 0.61468 0.98864 0.0
Mg98 Mg 0.87556 0.5043 0.54233 0.0
O99 O 0.88438 0.48464 0.48501 0.0
O100 O 0.87813 0.45837 0.51091 0.0
Mg101 Mg 0.8642 0.46148 0.58624 0.0
C102 C 0.88466 0.46854 0.4788 0.0
C103 C 0.89211 0.53531 0.4838 0.0
O104 O 0.90146 0.53626 0.52469 0.0
O105 O 0.8477 0.50125 0.51844 0.0
O106 O 0.84176 0.47529 0.54846 0.0
O107 O 0.9004 0.50081 0.58323 0.0
O108 O 0.87702 0.48615 0.59965 0.0
C109 C 0.83727 0.48899 0.52609 0.0
C110 C 0.89296 0.48869 0.60804 0.0
O111 O 0.88026 0.52428 0.48145 0.0
Mg112 Mg 0.00743 0.37335 0.04249 0.0
O113 O 0.98749 0.38193 0.98571 0.0
O114 O 0.96137 0.37544 0.0124 0.0
Mg115 Mg 0.96489 0.36178 0.08818 0.0
C116 C 0.97137 0.38203 0.97991 0.0
C117 C 0.03801 0.39024 0.98403 0.0
O118 O 0.03893 0.39925 0.02558 0.0
O119 O 0.00446 0.34543 0.01894 0.0
O120 O 0.97887 0.33933 0.05121 0.0
O121 O 0.00394 0.39824 0.08299 0.0
O122 O 0.9895 0.37482 0.10038 0.0
C123 C 0.99244 0.33486 0.02813 0.0
C124 C 0.99196 0.39079 0.1083 0.0
O125 O 0.02713 0.37827 0.98107 0.0
Mg126 Mg 0.12177 0.00879 0.54458 0.0
O127 O 0.11243 0.98895 0.48843 0.0
O128 O 0.11914 0.96277 0.51404 0.0
Mg129 Mg 0.13392 0.96612 0.58792 0.0
C130 C 0.1122 0.97285 0.48243 0.0
C131 C 0.10314 0.03819 0.48521 0.0
O132 O 0.09314 0.03766 0.52479 0.0
O133 O 0.14933 0.00587 0.51783 0.0
O134 O 0.15578 0.97996 0.54728 0.0
O135 O 0.09747 0.0052 0.58806 0.0
O136 O 0.12109 0.99071 0.60232 0.0
C137 C 0.15989 0.99367 0.52428 0.0
C138 C 0.10526 0.99319 0.61233 0.0
O139 O 0.11622 0.02865 0.4839 0.0
Mg140 Mg 0.48487 0.11908 0.04752 0.0
O141 O 0.50523 0.1111 0.99091 0.0
O142 O 0.53099 0.11906 0.01741 0.0
Mg143 Mg 0.52686 0.13338 0.09154 0.0
C144 C 0.52135 0.11174 0.98529 0.0
C145 C 0.4654 0.11894 0.94406 0.0
O146 O 0.47671 0.13086 0.93459 0.0
O147 O 0.48626 0.14699 0.02252 0.0
O148 O 0.512 0.15455 0.0511 0.0
O149 O 0.48979 0.09484 0.0898 0.0
O150 O 0.503 0.11916 0.10509 0.0
C151 C 0.49803 0.15807 0.02863 0.0
C152 C 0.50141 0.10314 0.11428 0.0
O153 O 0.46501 0.11216 0.98753 0.0
Mg154 Mg 0.37568 0.49274 0.54847 0.0
O155 O 0.38404 0.51341 0.49364 0.0
O156 O 0.37733 0.53915 0.52285 0.0
Mg157 Mg 0.3636 0.53462 0.5979 0.0
C158 C 0.38401 0.52959 0.48944 0.0
C159 C 0.39087 0.46135 0.48757 0.0
O160 O 0.39872 0.4582 0.53022 0.0
O161 O 0.34774 0.49559 0.52542 0.0
O162 O 0.34133 0.52094 0.55877 0.0
O163 O 0.40054 0.49606 0.58926 0.0
O164 O 0.37697 0.51004 0.60798 0.0
C165 C 0.33708 0.50748 0.53475 0.0
C166 C 0.39297 0.50767 0.6157 0.0
O167 O 0.38055 0.4738 0.48502 0.0
Mg168 Mg 0.01079 0.11652 0.94375 0.0
O169 O 0.99054 0.10652 0.99788 0.0
O170 O 0.9646 0.11312 0.96963 0.0
Mg171 Mg 0.9683 0.12731 0.89492 0.0
C172 C 0.97436 0.10622 0.00222 0.0
C173 C 0.03207 0.09655 0.02148 0.0
O174 O 0.02361 0.08438 0.99846 0.0
O175 O 0.0065 0.14403 0.96974 0.0
O176 O 0.98131 0.14983 0.93447 0.0
O177 O 0.00918 0.0921 0.89953 0.0
O178 O 0.99318 0.11475 0.88509 0.0
C179 C 0.99441 0.1544 0.95964 0.0
C180 C 0.99667 0.09909 0.87544 0.0
O181 O 0.03035 0.11182 0.00612 0.0
Mg182 Mg 0.37882 0.00485 0.45137 0.0
O183 O 0.38754 0.98607 0.51159 0.0
O184 O 0.38064 0.95945 0.49086 0.0
Mg185 Mg 0.36614 0.96144 0.41609 0.0
C186 C 0.38758 0.97014 0.52071 0.0
C187 C 0.39985 0.02586 0.52639 0.0
O188 O 0.41063 0.01412 0.51122 0.0
O189 O 0.35114 0.00303 0.47804 0.0
O190 O 0.34445 0.97665 0.45295 0.0
O191 O 0.40308 8e-05 0.40904 0.0
O192 O 0.37936 0.98547 0.39735 0.0
C193 C 0.34041 0.99086 0.47322 0.0
C194 C 0.39522 0.98764 0.38698 0.0
O195 O 0.38501 0.02623 0.50708 0.0
Mg196 Mg 0.48415 0.37691 0.95879 0.0
O197 O 0.50486 0.38494 0.01408 0.0
O198 O 0.5305 0.37786 0.98478 0.0
Mg199 Mg 0.52592 0.36431 0.90954 0.0
C200 C 0.52104 0.38464 0.01827 0.0
C201 C 0.45758 0.39615 0.02676 0.0
O202 O 0.45988 0.40793 0.99231 0.0
O203 O 0.48659 0.3489 0.98158 0.0
O204 O 0.51191 0.34224 0.94844 0.0
O205 O 0.48793 0.4018 0.91832 0.0
O206 O 0.50159 0.37806 0.89952 0.0
C207 C 0.49838 0.33812 0.97231 0.0
C208 C 0.49951 0.39411 0.89207 0.0
O209 O 0.46505 0.38187 0.02195 0.0
Mg210 Mg 0.11882 0.48859 0.45614 0.0
O211 O 0.10893 0.5077 0.51363 0.0
O212 O 0.11561 0.53423 0.49118 0.0
Mg213 Mg 0.13094 0.53186 0.41803 0.0
C214 C 0.10853 0.52372 0.52128 0.0
C215 C 0.09758 0.46673 0.52956 0.0
O216 O 0.08588 0.47636 0.50852 0.0
O217 O 0.14611 0.49143 0.48518 0.0
O218 O 0.15257 0.51774 0.45887 0.0
O219 O 0.0949 0.49243 0.41103 0.0
O220 O 0.11848 0.50733 0.40025 0.0
C221 C 0.15661 0.50381 0.48077 0.0
C222 C 0.10278 0.50479 0.38863 0.0
O223 O 0.1129 0.46794 0.51425 0.0
H224 H 0.97559 0.67464 0.01284 0.0
H225 H 0.97161 0.70552 0.02261 0.0
H226 H 0.02065 0.71443 0.95446 0.0
H227 H 0.02481 0.68388 0.94465 0.0
H228 H 0.99363 0.73026 0.07308 0.0
H229 H 0.98645 0.74321 0.86925 0.0
H230 H 0.98371 0.72222 0.89609 0.0
H231 H 0.00474 0.73045 0.88453 0.0
C232 C 0.98558 0.68316 0.00029 0.0
C233 C 0.00047 0.67673 0.97764 0.0
C234 C 0.98325 0.70079 0.00574 0.0
C235 C 0.99568 0.71221 0.98821 0.0
C236 C 0.01075 0.70582 0.96721 0.0
H237 H 0.02704 0.81288 0.04627 0.0
H238 H 0.0222 0.78245 0.03559 0.0
C239 C 0.01313 0.6883 0.96198 0.0
C240 C 0.99327 0.73087 0.9922 0.0
H241 H 0.99294 0.76726 0.92158 0.0
C242 C 0.99318 0.73836 0.04003 0.0
C243 C 0.99247 0.74137 0.94899 0.0
C244 C 0.99168 0.73393 0.89677 0.0
C245 C 0.99336 0.75615 0.0457 0.0
C246 C 0.99377 0.76663 0.00242 0.0
C247 C 0.9928 0.75916 0.95465 0.0
C248 C 0.99666 0.78523 0.00619 0.0
C249 C 0.99355 0.76361 0.09795 0.0
C250 C 0.9841 0.79693 0.99127 0.0
C251 C 0.98681 0.81448 0.99726 0.0
C252 C 0.0022 0.82056 0.01788 0.0
C253 C 0.01498 0.80873 0.03063 0.0
C254 C 0.01223 0.79128 0.02485 0.0
H255 H 0.98865 0.7544 0.12623 0.0
H256 H 0.00685 0.76692 0.10831 0.0
H257 H 0.98578 0.77542 0.0997 0.0
H258 H 0.97207 0.79246 0.97625 0.0
H259 H 0.97671 0.82321 0.98697 0.0
H260 H 0.68338 0.03439 0.52551 0.0
H261 H 0.7141 0.03111 0.51531 0.0
H262 H 0.70786 0.9767 0.50092 0.0
H263 H 0.67697 0.97991 0.50985 0.0
H264 H 0.73494 0.01378 0.57837 0.0
H265 H 0.73992 0.98688 0.38577 0.0
H266 H 0.72058 0.99648 0.40913 0.0
H267 H 0.7262 0.97512 0.42718 0.0
C268 C 0.68848 0.02174 0.51929 0.0
C269 C 0.6777 0.0074 0.5185 0.0
C270 C 0.70607 0.01988 0.51362 0.0
C271 C 0.7133 0.00368 0.50713 0.0
C272 C 0.70255 0.98937 0.50492 0.0
H273 H 0.8217 0.97599 0.49063 0.0
H274 H 0.79091 0.97442 0.50645 0.0
C275 C 0.68489 0.99122 0.51013 0.0
C276 C 0.73213 0.00185 0.50586 0.0
H277 H 0.76543 0.98852 0.4331 0.0
C278 C 0.74159 0.00823 0.54661 0.0
C279 C 0.74079 0.99448 0.46458 0.0
C280 C 0.73139 0.98797 0.41896 0.0
C281 C 0.75947 0.00771 0.54681 0.0
C282 C 0.7681 0.00068 0.50517 0.0
C283 C 0.7587 0.99383 0.46509 0.0
C284 C 0.78687 0.00161 0.50058 0.0
C285 C 0.76903 0.01482 0.59132 0.0
C286 C 0.79474 0.01744 0.49273 0.0
C287 C 0.81222 0.01838 0.48339 0.0
C288 C 0.82221 0.0035 0.48195 0.0
C289 C 0.81439 0.9877 0.49186 0.0
C290 C 0.79681 0.98675 0.50063 0.0
H291 H 0.76069 0.01616 0.62482 0.0
H292 H 0.78001 0.00653 0.60115 0.0
H293 H 0.77409 0.02761 0.58155 0.0
H294 H 0.78723 0.02903 0.49212 0.0
H295 H 0.81783 0.03075 0.47598 0.0
H296 H 0.52707 0.82392 0.00799 0.0
H297 H 0.5317 0.79316 0.01872 0.0
H298 H 0.48365 0.78294 0.94606 0.0
H299 H 0.47885 0.81333 0.93529 0.0
H300 H 0.50973 0.76838 0.06822 0.0
H301 H 0.51898 0.75409 0.86612 0.0
H302 H 0.52114 0.77532 0.89176 0.0
H303 H 0.50036 0.76673 0.87848 0.0
C304 C 0.51745 0.81513 0.99454 0.0
C305 C 0.50263 0.82115 0.9705 0.0
C306 C 0.52016 0.79757 0.00054 0.0
C307 C 0.50819 0.78582 0.98212 0.0
C308 C 0.49322 0.79181 0.95948 0.0
H309 H 0.47447 0.68685 0.0432 0.0
H310 H 0.48046 0.71699 0.03084 0.0
C311 C 0.49046 0.80924 0.95372 0.0
C312 C 0.51082 0.76723 0.98744 0.0
H313 H 0.51136 0.73039 0.91906 0.0
C314 C 0.51044 0.76007 0.03571 0.0
C315 C 0.51196 0.75644 0.94496 0.0
C316 C 0.51331 0.76352 0.89239 0.0
C317 C 0.50999 0.74233 0.04242 0.0
C318 C 0.50976 0.73157 0.99975 0.0
C319 C 0.51134 0.73869 0.95165 0.0
C320 C 0.50622 0.71312 0.00437 0.0
C321 C 0.50919 0.73522 0.09506 0.0
C322 C 0.51853 0.7009 0.99158 0.0
C323 C 0.51515 0.6835 0.99855 0.0
C324 C 0.49934 0.67811 0.01804 0.0
C325 C 0.48683 0.69046 0.02852 0.0
C326 C 0.49024 0.70775 0.02177 0.0
H327 H 0.5141 0.7445 0.12313 0.0
H328 H 0.49572 0.73233 0.10463 0.0
H329 H 0.51663 0.72323 0.09809 0.0
H330 H 0.53088 0.70484 0.97752 0.0
H331 H 0.52506 0.67435 0.99001 0.0
H332 H 0.67992 0.46516 0.49294 0.0
H333 H 0.71054 0.46853 0.50553 0.0
H334 H 0.70465 0.52316 0.50862 0.0
H335 H 0.67381 0.51993 0.49611 0.0
H336 H 0.73 0.50956 0.43793 0.0
H337 H 0.73791 0.48442 0.63146 0.0
H338 H 0.72501 0.47127 0.59127 0.0
H339 H 0.71776 0.49225 0.60789 0.0
C340 C 0.68505 0.47791 0.49712 0.0
C341 C 0.67441 0.49228 0.49348 0.0
C342 C 0.70256 0.4798 0.50448 0.0
C343 C 0.70981 0.49608 0.50824 0.0
C344 C 0.69924 0.51048 0.50601 0.0
H345 H 0.81993 0.51871 0.50675 0.0
H346 H 0.78897 0.52231 0.50056 0.0
C347 C 0.68163 0.5086 0.49915 0.0
C348 C 0.72858 0.49785 0.51101 0.0
H349 H 0.763 0.48593 0.58095 0.0
C350 C 0.73727 0.50466 0.46948 0.0
C351 C 0.73794 0.49142 0.55219 0.0
C352 C 0.72921 0.48456 0.59849 0.0
C353 C 0.75517 0.50437 0.46692 0.0
C354 C 0.76453 0.49735 0.50738 0.0
C355 C 0.7558 0.49119 0.54977 0.0
C356 C 0.78333 0.49535 0.50587 0.0
C357 C 0.76387 0.51081 0.42003 0.0
C358 C 0.79043 0.47903 0.51043 0.0
C359 C 0.80804 0.47694 0.51432 0.0
C360 C 0.81897 0.49116 0.51376 0.0
C361 C 0.81189 0.50748 0.50689 0.0
C362 C 0.79419 0.50957 0.50332 0.0
H363 H 0.75478 0.51233 0.38829 0.0
H364 H 0.76968 0.52344 0.42784 0.0
H365 H 0.7742 0.502 0.40828 0.0
H366 H 0.78229 0.46788 0.51226 0.0
H367 H 0.81304 0.46418 0.51931 0.0
H368 H 0.96983 0.30899 0.04455 0.0
H369 H 0.97444 0.27853 0.03404 0.0
H370 H 0.02466 0.2882 0.97488 0.0
H371 H 0.02024 0.31899 0.98545 0.0
H372 H 0.00346 0.26325 0.91994 0.0
H373 H 0.00781 0.25011 0.12449 0.0
H374 H 0.98973 0.26281 0.10662 0.0
H375 H 0.01089 0.27113 0.09815 0.0
C376 C 0.98186 0.30476 0.029 0.0
C377 C 0.99472 0.31651 0.01621 0.0
C378 C 0.98449 0.28729 0.02333 0.0
C379 C 1e-05 0.28114 0.00473 0.0
C380 C 0.01266 0.29275 0.98986 0.0
H381 H 0.02144 0.17063 0.00559 0.0
H382 H 0.02517 0.20145 0.01751 0.0
C383 C 0.01008 0.31032 0.99577 0.0
C384 C 0.00273 0.26253 0.00079 0.0
H385 H 0.00278 0.22606 0.07104 0.0
C386 C 0.0036 0.25511 0.95293 0.0
C387 C 0.00312 0.25199 0.04396 0.0
C388 C 0.003 0.25939 0.09628 0.0
C389 C 0.00383 0.23733 0.94708 0.0
C390 C 0.00306 0.22678 0.99018 0.0
C391 C 0.00321 0.2342 0.03809 0.0
C392 C 0.00066 0.20813 0.98589 0.0
C393 C 0.00446 0.22993 0.89479 0.0
C394 C 0.98543 0.20174 0.9659 0.0
C395 C 0.98318 0.18425 0.95946 0.0
C396 C 0.99616 0.17271 0.97282 0.0
C397 C 0.01119 0.17913 0.9948 0.0
C398 C 0.01339 0.19672 0.00147 0.0
H399 H 0.0094 0.23931 0.86705 0.0
H400 H 0.01261 0.21836 0.89377 0.0
H401 H 0.9914 0.22621 0.88312 0.0
H402 H 0.97533 0.21035 0.95458 0.0
H403 H 0.97138 0.17984 0.94274 0.0
H404 H 0.32375 0.02126 0.4882 0.0
H405 H 0.29287 0.02557 0.49476 0.0
H406 H 0.28515 0.97114 0.49293 0.0
H407 H 0.3158 0.96672 0.48572 0.0
H408 H 0.26622 0.98865 0.42041 0.0
H409 H 0.25859 0.01798 0.60958 0.0
H410 H 0.27386 0.02786 0.5684 0.0
H411 H 0.27767 0.00669 0.5914 0.0
C412 C 0.3155 0.01021 0.49036 0.0
C413 C 0.32224 0.99365 0.48614 0.0
C414 C 0.29785 0.0127 0.49412 0.0
C415 C 0.28673 -0.00133 0.49434 0.0
C416 C 0.29351 0.98215 0.49259 0.0
H417 H 0.18364 0.96874 0.51113 0.0
H418 H 0.21418 0.97223 0.49764 0.0
C419 C 0.31105 0.97965 0.48858 0.0
C420 C 0.26797 0.00096 0.49261 0.0
H421 H 0.23367 0.01421 0.56124 0.0
C422 C 0.25911 0.99435 0.45106 0.0
C423 C 0.25875 0.00858 0.53234 0.0
C424 C 0.26763 0.0156 0.57821 0.0
C425 C 0.24126 0.99466 0.44889 0.0
C426 C 0.23201 0.0016 0.48956 0.0
C427 C 0.24085 0.00892 0.53011 0.0
C428 C 0.21327 -0.00025 0.49311 0.0
C429 C 0.2324 0.9873 0.40347 0.0
C430 C 0.2026 0.01409 0.49473 0.0
C431 C 0.18502 0.01214 0.50215 0.0
C432 C 0.17793 0.99581 0.509 0.0
C433 C 0.18866 0.98149 0.50604 0.0
C434 C 0.20613 0.98345 0.49815 0.0
H435 H 0.24096 0.98699 0.37022 0.0
H436 H 0.22843 0.97401 0.41184 0.0
H437 H 0.22081 0.99475 0.39386 0.0
H438 H 0.20791 0.02679 0.49113 0.0
H439 H 0.17712 0.02343 0.50464 0.0
H440 H 0.46752 0.17437 0.01288 0.0
H441 H 0.46315 0.20502 0.99859 0.0
H442 H 0.51756 0.21271 0.99624 0.0
H443 H 0.52206 0.18234 0.01079 0.0
H444 H 0.47756 0.23162 0.067 0.0
H445 H 0.49864 0.23813 0.8689 0.0
H446 H 0.49131 0.21817 0.89513 0.0
H447 H 0.51257 0.22556 0.90772 0.0
C448 C 0.47854 0.18256 0.00835 0.0
C449 C 0.49514 0.17595 0.01307 0.0
C450 C 0.47601 0.20004 0.00046 0.0
C451 C 0.49004 0.21105 0.99616 0.0
C452 C 0.50658 0.20438 0.99898 0.0
H453 H 0.52253 0.31321 0.97585 0.0
H454 H 0.51808 0.28259 0.98393 0.0
C455 C 0.50911 0.18702 0.00745 0.0
C456 C 0.48771 0.22971 0.99208 0.0
H457 H 0.49811 0.26362 0.918 0.0
C458 C 0.48172 0.23868 0.03415 0.0
C459 C 0.49319 0.23878 0.94918 0.0
C460 C 0.49916 0.22969 0.90243 0.0
C461 C 0.48206 0.2566 0.03554 0.0
C462 C 0.48829 0.26566 0.99341 0.0
C463 C 0.49347 0.25664 0.95044 0.0
C464 C 0.49077 0.28439 0.99395 0.0
C465 C 0.47663 0.26564 0.08294 0.0
C466 C 0.47692 0.29563 0.99816 0.0
C467 C 0.47945 0.31327 0.99397 0.0
C468 C 0.49585 0.31988 0.98486 0.0
C469 C 0.50972 0.30857 0.98256 0.0
C470 C 0.5072 0.29104 0.98705 0.0
H471 H 0.47533 0.25672 0.11519 0.0
H472 H 0.48594 0.27573 0.0931 0.0
H473 H 0.4641 0.27182 0.0766 0.0
H474 H 0.4641 0.29076 0.0028 0.0
H475 H 0.46847 0.32162 0.99552 0.0
H476 H 0.32046 0.47774 0.5107 0.0
H477 H 0.2896 0.47346 0.50376 0.0
H478 H 0.28156 0.52738 0.52455 0.0
H479 H 0.31222 0.53173 0.53238 0.0
H480 H 0.26256 0.50749 0.58962 0.0
H481 H 0.25547 0.4848 0.39255 0.0
H482 H 0.27051 0.4733 0.43059 0.0
H483 H 0.27458 0.49518 0.41476 0.0
C484 C 0.31214 0.48873 0.51274 0.0
C485 C 0.31881 0.50507 0.52232 0.0
C486 C 0.2945 0.48626 0.50872 0.0
C487 C 0.28329 0.50011 0.51354 0.0
C488 C 0.28998 0.5165 0.52093 0.0
H489 H 0.17977 0.52877 0.50078 0.0
H490 H 0.21032 0.52548 0.5149 0.0
C491 C 0.30753 0.51897 0.52527 0.0
C492 C 0.26455 0.49762 0.51427 0.0
H493 H 0.23049 0.48613 0.44176 0.0
C494 C 0.25556 0.50272 0.55738 0.0
C495 C 0.25546 0.49121 0.47239 0.0
C496 C 0.26443 0.48591 0.42474 0.0
C497 C 0.23771 0.50208 0.55918 0.0
C498 C 0.22861 0.49632 0.51666 0.0
C499 C 0.23757 0.49051 0.47433 0.0
C500 C 0.20985 0.49792 0.5134 0.0
C501 C 0.22868 0.50785 0.60624 0.0
C502 C 0.19943 0.48347 0.50839 0.0
C503 C 0.18186 0.4853 0.5007 0.0
C504 C 0.17454 0.50162 0.49691 0.0
C505 C 0.185 0.51602 0.50345 0.0
C506 C 0.20246 0.51417 0.51168 0.0
H507 H 0.23726 0.50749 0.63949 0.0
H508 H 0.22428 0.52118 0.60114 0.0
H509 H 0.21735 0.49977 0.61392 0.0
H510 H 0.20496 0.47082 0.50939 0.0
H511 H 0.17417 0.47397 0.4954 0.0
H512 H 0.00398 0.56659 0.88223 0.0
H513 H 0.02306 0.55069 0.82591 0.0
H514 H 0.04282 0.59806 0.76777 0.0
H515 H 0.024 0.61391 0.82337 0.0
H516 H 0.02525 0.55207 0.71993 0.0
H517 H 0.08607 0.57214 0.8076 0.0
H518 H 0.06575 0.57444 0.83876 0.0
H519 H 0.07244 0.58979 0.7925 0.0
C520 C 0.01243 0.57358 0.85748 0.0
C521 C 0.01264 0.59151 0.85777 0.0
C522 C 0.02332 0.56449 0.82545 0.0
C523 C 0.03463 0.57321 0.79355 0.0
C524 C 0.03455 0.59108 0.79309 0.0
H525 H 0.10352 0.55697 0.5497 0.0
H526 H 0.08582 0.56748 0.61873 0.0
C527 C 0.02372 0.60012 0.82488 0.0
C528 C 0.04616 0.56386 0.75915 0.0
H529 H 0.08793 0.56061 0.72432 0.0
C530 C 0.03898 0.55369 0.72129 0.0
C531 C 0.06406 0.56601 0.7611 0.0
C532 C 0.07256 0.57605 0.80249 0.0
C533 C 0.04917 0.54629 0.68378 0.0
C534 C 0.06701 0.54898 0.68471 0.0
C535 C 0.07424 0.55868 0.72354 0.0
C536 C 0.07831 0.54242 0.64452 0.0
C537 C 0.04071 0.53627 0.64225 0.0
C538 C 0.08023 0.52484 0.63693 0.0
C539 C 0.09033 0.51878 0.59755 0.0
C540 C 0.09877 0.5302 0.56507 0.0
C541 C 0.09719 0.54782 0.5738 0.0
C542 C 0.08708 0.55385 0.61324 0.0
H543 H 0.0267 0.53833 0.64132 0.0
H544 H 0.0461 0.53983 0.60509 0.0
H545 H 0.04308 0.52248 0.64823 0.0
H546 H 0.07382 0.51581 0.66125 0.0
H547 H 0.09132 0.50513 0.59223 0.0
H548 H 0.991 0.08787 0.07489 0.0
H549 H 0.9784 0.06975 0.13969 0.0
H550 H 0.92808 0.08451 0.09107 0.0
H551 H 0.9405 0.10246 0.0255 0.0
H552 H 0.95641 0.07672 0.21923 0.0
H553 H 0.92652 0.03255 0.08226 0.0
H554 H 0.94241 0.04804 0.06425 0.0
H555 H 0.92061 0.05444 0.07322 0.0
C556 C 0.97724 0.08736 0.07803 0.0
C557 C 0.96676 0.09652 0.04453 0.0
C558 C 0.97007 0.07698 0.11517 0.0
C559 C 0.95232 0.07551 0.11948 0.0
C560 C 0.94183 0.08516 0.08757 0.0
H561 H 0.88074 0.0225 0.30578 0.0
H562 H 0.89602 0.0404 0.24583 0.0
C563 C 0.94896 0.0955 0.0503 0.0
C564 C 0.94477 0.06368 0.15682 0.0
H565 H 0.91847 0.02919 0.16785 0.0
C566 C 0.94822 0.06624 0.20806 0.0
C567 C 0.93421 0.04994 0.14203 0.0
C568 C 0.93083 0.04593 0.08743 0.0
C569 C 0.94086 0.05578 0.24507 0.0
C570 C 0.92998 0.04232 0.23026 0.0
C571 C 0.9268 0.03956 0.17902 0.0
C572 C 0.92104 0.03143 0.26733 0.0
C573 C 0.94434 0.05951 0.29976 0.0
C574 C 0.93007 0.0203 0.29895 0.0
C575 C 0.92135 0.00999 0.33344 0.0
C576 C 0.90347 0.01072 0.33679 0.0
C577 C 0.89452 0.02176 0.3046 0.0
C578 C 0.90321 0.03197 0.27016 0.0
H579 H 0.95043 0.07217 0.30514 0.0
H580 H 0.93234 0.05909 0.32185 0.0
H581 H 0.95304 0.04963 0.31509 0.0
H582 H 0.94384 0.01951 0.29674 0.0
H583 H 0.92859 0.00157 0.35765 0.0
H584 H 0.47776 0.88357 0.81643 0.0
H585 H 0.45818 0.8988 0.76142 0.0
H586 H 0.47452 0.94665 0.82508 0.0
H587 H 0.49438 0.93139 0.88063 0.0
H588 H 0.43115 0.92034 0.78925 0.0
H589 H 0.47943 0.95407 0.67238 0.0
H590 H 0.48489 0.93632 0.71247 0.0
H591 H 0.48107 0.95697 0.73925 0.0
C592 C 0.47722 0.89734 0.81896 0.0
C593 C 0.48759 0.90628 0.85311 0.0
C594 C 0.46601 0.90602 0.78738 0.0
C595 C 0.46495 0.92384 0.78896 0.0
C596 C 0.47531 0.93289 0.82281 0.0
H597 H 0.40415 0.98918 0.59187 0.0
H598 H 0.42173 0.97898 0.66137 0.0
C599 C 0.48662 0.92417 0.85456 0.0
C600 C 0.4528 0.93268 0.75517 0.0
H601 H 0.45058 0.95864 0.65237 0.0
C602 C 0.43537 0.92882 0.75951 0.0
C603 C 0.45834 0.94377 0.71658 0.0
C604 C 0.47695 0.94799 0.7094 0.0
C605 C 0.42337 0.93551 0.72573 0.0
C606 C 0.42899 0.94612 0.68609 0.0
C607 C 0.44633 0.95045 0.68275 0.0
C608 C 0.41725 0.95226 0.64631 0.0
C609 C 0.40479 0.93115 0.73274 0.0
C610 C 0.40883 0.9406 0.61484 0.0
C611 C 0.39875 0.94637 0.57495 0.0
C612 C 0.39698 0.96393 0.56555 0.0
C613 C 0.4052 0.97557 0.59785 0.0
C614 C 0.41528 0.96978 0.63765 0.0
H615 H 0.40203 0.92724 0.77206 0.0
H616 H 0.3965 0.94213 0.7229 0.0
H617 H 0.40143 0.92034 0.70775 0.0
H618 H 0.41045 0.92702 0.62027 0.0
H619 H 0.3927 0.93706 0.55077 0.0
H620 H 0.50509 0.40297 0.09209 0.0
H621 H 0.51829 0.42012 0.15799 0.0
H622 H 0.56805 0.40369 0.10926 0.0
H623 H 0.55501 0.38673 0.04238 0.0
H624 H 0.53957 0.4123 0.23743 0.0
H625 H 0.57188 0.45538 0.10208 0.0
H626 H 0.55555 0.44049 0.08316 0.0
H627 H 0.57704 0.43329 0.09348 0.0
C628 C 0.51885 0.40289 0.09543 0.0
C629 C 0.529 0.3936 0.06144 0.0
C630 C 0.52637 0.41271 0.13323 0.0
C631 C 0.54416 0.41347 0.13784 0.0
C632 C 0.55431 0.40361 0.10555 0.0
H633 H 0.61532 0.46611 0.3286 0.0
H634 H 0.60053 0.44749 0.26956 0.0
C635 C 0.54682 0.39383 0.06753 0.0
C636 C 0.55206 0.4249 0.17564 0.0
H637 H 0.57919 0.4587 0.18809 0.0
C638 C 0.54817 0.4225 0.22669 0.0
C639 C 0.56315 0.4383 0.16144 0.0
C640 C 0.56705 0.44217 0.10704 0.0
C641 C 0.55546 0.43286 0.26405 0.0
C642 C 0.56678 0.44603 0.24981 0.0
C643 C 0.57052 0.44854 0.1988 0.0
C644 C 0.57538 0.45702 0.28726 0.0
C645 C 0.55137 0.42941 0.31851 0.0
C646 C 0.56612 0.46865 0.31662 0.0
C647 C 0.57456 0.47939 0.35055 0.0
C648 C 0.59239 0.47862 0.35562 0.0
C649 C 0.60157 0.46693 0.32605 0.0
C650 C 0.59315 0.4563 0.29214 0.0
H651 H 0.54497 0.4169 0.32376 0.0
H652 H 0.56315 0.42967 0.34164 0.0
H653 H 0.54274 0.43952 0.33272 0.0
H654 H 0.5524 0.46957 0.31279 0.0
H655 H 0.56716 0.48829 0.37269 0.0
H656 H 0.09511 0.99044 0.40919 0.0
H657 H 0.07775 0.97884 0.34112 0.0
H658 H 0.09009 0.92778 0.38871 0.0
H659 H 0.10762 0.93922 0.457 0.0
H660 H 0.09207 0.93394 0.28136 0.0
H661 H 0.03082 0.95573 0.36484 0.0
H662 H 0.047 0.97178 0.35744 0.0
H663 H 0.05032 0.95453 0.40074 0.0
C664 C 0.09424 0.97673 0.40518 0.0
C665 C 0.10269 0.96576 0.43894 0.0
C666 C 0.08423 0.97014 0.36633 0.0
C667 C 0.08243 0.95248 0.36046 0.0
C668 C 0.09126 0.94147 0.39289 0.0
H669 H 0.02795 0.88135 0.17665 0.0
H670 H 0.04698 0.89645 0.23365 0.0
C671 C 0.10127 0.94804 0.43189 0.0
C672 C 0.07112 0.94546 0.32097 0.0
H673 H 0.02936 0.94219 0.28584 0.0
C674 C 0.07836 0.93576 0.28221 0.0
C675 C 0.05327 0.94799 0.32207 0.0
C676 C 0.0448 0.95796 0.36364 0.0
C677 C 0.0682 0.92844 0.24452 0.0
C678 C 0.05029 0.93057 0.24636 0.0
C679 C 0.04309 0.9406 0.28451 0.0
C680 C 0.03875 0.92162 0.21098 0.0
C681 C 0.07675 0.91856 0.20291 0.0
C682 C 0.02737 0.93076 0.18035 0.0
C683 C 0.01633 0.92212 0.14767 0.0
C684 C 0.01649 0.90421 0.14534 0.0
C685 C 0.02771 0.89515 0.17677 0.0
C686 C 0.03866 0.90377 0.20932 0.0
H687 H 0.09025 0.92251 0.19806 0.0
H688 H 0.07662 0.90479 0.21246 0.0
H689 H 0.06997 0.9203 0.1666 0.0
H690 H 0.02711 0.94456 0.18151 0.0
H691 H 0.00778 0.92944 0.12407 0.0
H692 H 0.50502 0.09354 0.91173 0.0
H693 H 0.51791 0.07615 0.84578 0.0
H694 H 0.56794 0.092 0.89403 0.0
H695 H 0.55523 0.10921 0.96078 0.0
H696 H 0.53961 0.08386 0.76596 0.0
H697 H 0.57065 0.04005 0.90176 0.0
H698 H 0.55444 0.05511 0.92023 0.0
H699 H 0.57608 0.06205 0.91116 0.0
C700 C 0.51877 0.09343 0.90827 0.0
C701 C 0.5291 0.10263 0.94209 0.0
C702 C 0.52611 0.08348 0.87045 0.0
C703 C 0.54388 0.0825 0.86572 0.0
C704 C 0.5542 0.09226 0.89783 0.0
H705 H 0.61633 0.03106 0.67904 0.0
H706 H 0.60069 0.04898 0.73789 0.0
C707 C 0.54689 0.10218 0.93578 0.0
C708 C 0.55164 0.07095 0.828 0.0
H709 H 0.57861 0.03706 0.81604 0.0
C710 C 0.54805 0.07355 0.77683 0.0
C711 C 0.5625 0.05741 0.8424 0.0
C712 C 0.56604 0.05334 0.89689 0.0
C713 C 0.55555 0.06331 0.73955 0.0
C714 C 0.56674 0.05006 0.75399 0.0
C715 C 0.57006 0.04728 0.80515 0.0
C716 C 0.57585 0.03943 0.71667 0.0
C717 C 0.55188 0.06704 0.68497 0.0
C718 C 0.56704 0.02801 0.68536 0.0
C719 C 0.57599 0.01768 0.65145 0.0
C720 C 0.59386 0.01865 0.6484 0.0
C721 C 0.60257 0.0301 0.67998 0.0
C722 C 0.59366 0.04033 0.71382 0.0
H723 H 0.54544 0.07953 0.67984 0.0
H724 H 0.56386 0.067 0.66274 0.0
H725 H 0.54344 0.05694 0.66961 0.0
H726 H 0.5533 0.02695 0.6876 0.0
H727 H 0.56893 0.00895 0.62774 0.0
H728 H 0.40123 0.51319 0.41423 0.0
H729 H 0.4189 0.52587 0.34869 0.0
H730 H 0.40526 0.57613 0.40044 0.0
H731 H 0.38776 0.56358 0.467 0.0
H732 H 0.41203 0.54813 0.27056 0.0
H733 H 0.45719 0.57691 0.40708 0.0
H734 H 0.44145 0.56131 0.42525 0.0
H735 H 0.43541 0.58321 0.41619 0.0
C736 C 0.40187 0.52696 0.41164 0.0
C737 C 0.39321 0.53737 0.4464 0.0
C738 C 0.41198 0.53417 0.37403 0.0
C739 C 0.41368 0.55192 0.37036 0.0
C740 C 0.40444 0.56238 0.40339 0.0
H741 H 0.4711 0.62035 0.18239 0.0
H742 H 0.45163 0.60668 0.24137 0.0
C743 C 0.39435 0.55518 0.44122 0.0
C744 C 0.42549 0.5594 0.33282 0.0
H745 H 0.46105 0.58422 0.32138 0.0
C746 C 0.42279 0.55597 0.28161 0.0
C747 C 0.4396 0.5695 0.34744 0.0
C748 C 0.44373 0.57284 0.40198 0.0
C749 C 0.4336 0.56274 0.24452 0.0
C750 C 0.44755 0.57302 0.25918 0.0
C751 C 0.45031 0.57634 0.31034 0.0
C752 C 0.45913 0.58099 0.22204 0.0
C753 C 0.42982 0.5592 0.18991 0.0
C754 C 0.46992 0.57104 0.19185 0.0
C755 C 0.48114 0.57884 0.15792 0.0
C756 C 0.48169 0.5967 0.15371 0.0
C757 C 0.47089 0.60656 0.18425 0.0
C758 C 0.45977 0.59878 0.21814 0.0
H759 H 0.41683 0.55386 0.18446 0.0
H760 H 0.43104 0.57103 0.16723 0.0
H761 H 0.43919 0.54983 0.17532 0.0
H762 H 0.46979 0.55727 0.19493 0.0
H763 H 0.48934 0.57091 0.13501 0.0
H764 H 0.98882 0.39851 0.90521 0.0
H765 H 0.97711 0.41563 0.8368 0.0
H766 H 0.92613 0.40366 0.88588 0.0
H767 H 0.93768 0.38639 0.95465 0.0
H768 H 0.93242 0.40147 0.77729 0.0
H769 H 0.95391 0.46272 0.86178 0.0
H770 H 0.96989 0.44646 0.85491 0.0
H771 H 0.95248 0.44322 0.89766 0.0
C772 C 0.9751 0.39938 0.90143 0.0
C773 C 0.96419 0.39115 0.93582 0.0
C774 C 0.96845 0.40925 0.86236 0.0
C775 C 0.95079 0.41111 0.85685 0.0
C776 C 0.93982 0.40244 0.88978 0.0
H777 H 0.87962 0.46526 0.6723 0.0
H778 H 0.89476 0.44614 0.7289 0.0
C779 C 0.94645 0.39258 0.92904 0.0
C780 C 0.94374 0.42242 0.81743 0.0
H781 H 0.9403 0.46422 0.78293 0.0
C782 C 0.93416 0.41518 0.77838 0.0
C783 C 0.94618 0.44029 0.81883 0.0
C784 C 0.95607 0.44873 0.86066 0.0
C785 C 0.92686 0.42537 0.74067 0.0
C786 C 0.92888 0.44329 0.74285 0.0
C787 C 0.93879 0.45049 0.78132 0.0
C788 C 0.91991 0.45486 0.70753 0.0
C789 C 0.91715 0.41681 0.69868 0.0
C790 C 0.92899 0.46655 0.67778 0.0
C791 C 0.92032 0.47766 0.64537 0.0
C792 C 0.90243 0.47726 0.64243 0.0
C793 C 0.89342 0.4657 0.67291 0.0
C794 C 0.90206 0.45469 0.70521 0.0
H795 H 0.92131 0.40339 0.69348 0.0
H796 H 0.90338 0.41667 0.70809 0.0
H797 H 0.91882 0.42374 0.66259 0.0
H798 H 0.94278 0.46701 0.67945 0.0
H799 H 0.92761 0.48647 0.62252 0.0
H800 H 0.96876 0.37752 0.17336 0.0
H801 H 0.94955 0.39273 0.22943 0.0
H802 H 0.96999 0.44071 0.17807 0.0
H803 H 0.98951 0.42547 0.1216 0.0
H804 H 0.96724 0.4385 0.282 0.0
H805 H 0.9066 0.4189 0.19242 0.0
H806 H 0.92003 0.40111 0.20742 0.0
H807 H 0.92698 0.41654 0.16171 0.0
C808 C 0.96909 0.39131 0.17344 0.0
C809 C 0.98053 0.4003 0.14253 0.0
C810 C 0.95803 0.39999 0.20545 0.0
C811 C 0.95804 0.41785 0.20705 0.0
C812 C 0.96964 0.42691 0.17693 0.0
H813 H 0.90111 0.48635 0.40475 0.0
H814 H 0.91837 0.47496 0.33622 0.0
C815 C 0.9808 0.4182 0.1448 0.0
C816 C 0.94641 0.42686 0.24198 0.0
H817 H 0.90454 0.43015 0.27601 0.0
C818 C 0.95351 0.43689 0.28031 0.0
C819 C 0.9285 0.42473 0.23966 0.0
C820 C 0.92005 0.41487 0.19778 0.0
C821 C 0.94324 0.44425 0.31765 0.0
C822 C 0.9254 0.44167 0.31617 0.0
C823 C 0.91824 0.432 0.27716 0.0
C824 C 0.91402 0.44855 0.35563 0.0
C825 C 0.95159 0.45423 0.35945 0.0
C826 C 0.9054 0.43743 0.38822 0.0
C827 C 0.89546 0.44388 0.42751 0.0
C828 C 0.8939 0.46158 0.43468 0.0
C829 C 0.90209 0.47265 0.40065 0.0
C830 C 0.91204 0.46619 0.36152 0.0
H831 H 0.9656 0.45219 0.36065 0.0
H832 H 0.94922 0.46803 0.35358 0.0
H833 H 0.94611 0.45062 0.39644 0.0
H834 H 0.90671 0.42376 0.38402 0.0
H835 H 0.88931 0.43498 0.45283 0.0
H836 H 0.0101 0.9033 0.90873 0.0
H837 H 0.02274 0.92061 0.84237 0.0
H838 H 0.07302 0.90656 0.89313 0.0
H839 H 0.0605 0.8894 0.96049 0.0
H840 H 0.06916 0.94111 0.88137 0.0
H841 H 0.04571 0.90751 0.71135 0.0
H842 H 0.02914 0.91328 0.75463 0.0
H843 H 0.04506 0.89802 0.77316 0.0
C844 C 0.02386 0.90366 0.90552 0.0
C845 C 0.03428 0.89493 0.94014 0.0
C846 C 0.03106 0.91351 0.86724 0.0
C847 C 0.04882 0.91471 0.86236 0.0
C848 C 0.05927 0.90575 0.8961 0.0
H849 H 0.11947 0.96996 0.67569 0.0
H850 H 0.10509 0.95129 0.73546 0.0
C851 C 0.05208 0.89591 0.93454 0.0
C852 C 0.05649 0.92627 0.8244 0.0
H853 H 0.05858 0.93466 0.69845 0.0
C854 C 0.06691 0.93963 0.84137 0.0
C855 C 0.05342 0.92442 0.77223 0.0
C856 C 0.04285 0.90995 0.75161 0.0
C857 C 0.07429 0.95125 0.80767 0.0
C858 C 0.07131 0.94934 0.75556 0.0
C859 C 0.06076 0.93611 0.73849 0.0
C860 C 0.07977 0.96049 0.71821 0.0
C861 C 0.08509 0.96559 0.82809 0.0
C862 C 0.07024 0.97164 0.68793 0.0
C863 C 0.07845 0.98237 0.65342 0.0
C864 C 0.09629 0.98194 0.64837 0.0
C865 C 0.10571 0.97057 0.6784 0.0
C866 C 0.09753 0.95995 0.71286 0.0
H867 H 0.08271 0.96778 0.86875 0.0
H868 H 0.09875 0.96232 0.82333 0.0
H869 H 0.0826 0.97763 0.80736 0.0
H870 H 0.05649 0.97216 0.69144 0.0
H871 H 0.07084 0.99094 0.63071 0.0
H872 H 0.60603 0.06301 0.46233 0.0
H873 H 0.58828 0.07433 0.39426 0.0
H874 H 0.57841 0.02326 0.34207 0.0
H875 H 0.59601 0.01178 0.40972 0.0
H876 H 0.59058 0.06886 0.28509 0.0
H877 H 0.53044 0.04433 0.3693 0.0
H878 H 0.54994 0.04636 0.40492 0.0
H879 H 0.54731 0.02904 0.36152 0.0
C880 C 0.60021 0.05417 0.43616 0.0
C881 C 0.60235 0.03647 0.44186 0.0
C882 C 0.59008 0.06067 0.39731 0.0
C883 C 0.58185 0.04959 0.36375 0.0
C884 C 0.58444 0.03199 0.36814 0.0
H885 H 0.5057 0.06878 0.12979 0.0
H886 H 0.52592 0.05498 0.18731 0.0
C887 C 0.59458 0.02548 0.40679 0.0
C888 C 0.57019 0.05641 0.32488 0.0
H889 H 0.52828 0.0579 0.29044 0.0
C890 C 0.57696 0.06647 0.28615 0.0
C891 C 0.55246 0.05314 0.32629 0.0
C892 C 0.54451 0.04274 0.36788 0.0
C893 C 0.56643 0.07336 0.24859 0.0
C894 C 0.54863 0.07041 0.25061 0.0
C895 C 0.54192 0.06011 0.28893 0.0
C896 C 0.53665 0.07862 0.2149 0.0
C897 C 0.5745 0.08357 0.2068 0.0
C898 C 0.53578 0.09645 0.21207 0.0
C899 C 0.52432 0.10432 0.17937 0.0
C900 C 0.51336 0.09453 0.14906 0.0
C901 C 0.51402 0.07666 0.15252 0.0
C902 C 0.52557 0.06877 0.18527 0.0
H903 H 0.58816 0.08023 0.20186 0.0
H904 H 0.56777 0.08151 0.17057 0.0
H905 H 0.5738 0.09733 0.21623 0.0
H906 H 0.54384 0.10431 0.23564 0.0
H907 H 0.52395 0.11811 0.17832 0.0
H908 H 0.37945 0.53013 0.68252 0.0
H909 H 0.39446 0.54853 0.74158 0.0
H910 H 0.4426 0.52844 0.69066 0.0
H911 H 0.4276 0.51001 0.63045 0.0
H912 H 0.41659 0.53778 0.8194 0.0
H913 H 0.44895 0.58095 0.68351 0.0
H914 H 0.43114 0.56761 0.66592 0.0
H915 H 0.45194 0.55846 0.67373 0.0
C916 C 0.39324 0.52971 0.68335 0.0
C917 C 0.40234 0.5187 0.65144 0.0
C918 C 0.40179 0.54021 0.71732 0.0
C919 C 0.41963 0.54 0.72006 0.0
C920 C 0.42882 0.52899 0.6885 0.0
H921 H 0.48933 0.59503 0.91577 0.0
H922 H 0.47657 0.57753 0.84989 0.0
C923 C 0.42024 0.5184 0.6544 0.0
C924 C 0.42837 0.55093 0.75745 0.0
H925 H 0.45485 0.58527 0.76969 0.0
C926 C 0.42497 0.54816 0.80858 0.0
C927 C 0.43932 0.56441 0.74312 0.0
C928 C 0.44302 0.5682 0.68861 0.0
C929 C 0.43224 0.55849 0.84589 0.0
C930 C 0.44292 0.5722 0.8316 0.0
C931 C 0.44655 0.57482 0.78048 0.0
C932 C 0.45056 0.58381 0.86938 0.0
C933 C 0.42863 0.55445 0.90035 0.0
C934 C 0.44016 0.59355 0.9013 0.0
C935 C 0.4474 0.60357 0.93923 0.0
C936 C 0.46519 0.60411 0.94569 0.0
C937 C 0.47557 0.59488 0.91215 0.0
C938 C 0.46832 0.58486 0.87436 0.0
H939 H 0.42405 0.54115 0.90527 0.0
H940 H 0.44019 0.55629 0.92383 0.0
H941 H 0.41855 0.56314 0.91442 0.0
H942 H 0.42643 0.59321 0.89735 0.0
H943 H 0.43902 0.6106 0.96406 0.0
H944 H 0.90667 0.05412 0.49522 0.0
H945 H 0.92558 0.06567 0.55986 0.0
H946 H 0.91282 0.02366 0.65775 0.0
H947 H 0.89467 0.01157 0.59212 0.0
H948 H 0.92094 0.07717 0.64866 0.0
H949 H 0.96305 0.021 0.6666 0.0
H950 H 0.94725 0.02271 0.61767 0.0
H951 H 0.94132 0.01558 0.67969 0.0
C952 C 0.90789 0.04737 0.53057 0.0
C953 C 0.89928 0.0319 0.53852 0.0
C954 C 0.91874 0.05396 0.56748 0.0
C955 C 0.92101 0.04533 0.61334 0.0
C956 C 0.91183 0.03024 0.62209 0.0
H957 H 0.9622 0.09668 0.87601 0.0
H958 H 0.94401 0.0828 0.8137 0.0
C959 C 0.90129 0.02344 0.58475 0.0
C960 C 0.93269 0.05238 0.65224 0.0
H961 H 0.96566 0.04218 0.73068 0.0
C962 C 0.93079 0.06952 0.66628 0.0
C963 C 0.9458 0.04255 0.6747 0.0
C964 C 0.94961 0.02451 0.65847 0.0
C965 C 0.94144 0.07704 0.70241 0.0
C966 C 0.95387 0.06694 0.72704 0.0
C967 C 0.95596 0.04987 0.71248 0.0
C968 C 0.96494 0.07394 0.76748 0.0
C969 C 0.93949 0.09588 0.71258 0.0
C970 C 0.98279 0.07256 0.76434 0.0
C971 C 0.99321 0.08008 0.80091 0.0
C972 C 0.98591 0.08929 0.8406 0.0
C973 C 0.96811 0.09003 0.84495 0.0
C974 C 0.95772 0.08218 0.80919 0.0
H975 H 0.93377 0.10261 0.6799 0.0
H976 H 0.93084 0.09773 0.74511 0.0
H977 H 0.95194 0.10193 0.72128 0.0
H978 H 0.98868 0.06609 0.73285 0.0
H979 H 0.00693 0.07934 0.797 0.0
H980 H 0.38093 0.96321 0.32767 0.0
H981 H 0.39521 0.94422 0.26851 0.0
H982 H 0.44372 0.96643 0.30759 0.0
H983 H 0.42951 0.98552 0.36743 0.0
H984 H 0.41599 0.95565 0.18527 0.0
H985 H 0.45113 0.91363 0.31815 0.0
H986 H 0.433 0.92627 0.33718 0.0
H987 H 0.45335 0.93623 0.32773 0.0
C988 C 0.39466 0.96395 0.32425 0.0
C989 C 0.4041 0.97583 0.35246 0.0
C990 C 0.40278 0.95311 0.29029 0.0
C991 C 0.42051 0.95381 0.28413 0.0
C992 C 0.43004 0.96554 0.31243 0.0
H993 H 0.49147 0.90277 0.08683 0.0
H994 H 0.47753 0.91871 0.15385 0.0
C995 C 0.4219 0.97649 0.34634 0.0
C996 C 0.4288 0.94285 0.24604 0.0
H997 H 0.45646 0.90965 0.23142 0.0
C998 C 0.4248 0.94554 0.19527 0.0
C999 C 0.44031 0.92976 0.25938 0.0
C1000 C 0.44467 0.92614 0.31357 0.0
C1001 C 0.43223 0.93565 0.15722 0.0
C1002 C 0.44362 0.9224 0.17049 0.0
C1003 C 0.44764 0.91973 0.22137 0.0
C1004 C 0.45195 0.9116 0.13189 0.0
C1005 C 0.42817 0.93983 0.10312 0.0
C1006 C 0.44221 0.90187 0.09812 0.0
C1007 C 0.45013 0.8928 0.05935 0.0
C1008 C 0.46797 0.89314 0.05404 0.0
C1009 C 0.4777 0.90225 0.08951 0.0
C1010 C 0.46977 0.91139 0.12798 0.0
H1011 H 0.42298 0.95294 0.09904 0.0
H1012 H 0.43968 0.93867 0.07908 0.0
H1013 H 0.41841 0.93078 0.089 0.0
H1014 H 0.42845 0.90151 0.10124 0.0
H1015 H 0.44225 0.88579 0.03305 0.0
H1016 H 0.52199 0.38048 0.82553 0.0
H1017 H 0.54137 0.3954 0.76918 0.0
H1018 H 0.5224 0.4437 0.8225 0.0
H1019 H 0.50274 0.42875 0.87936 0.0
H1020 H 0.52477 0.44155 0.71776 0.0
H1021 H 0.58509 0.42057 0.8066 0.0
H1022 H 0.57113 0.40315 0.79179 0.0
H1023 H 0.5647 0.41873 0.83764 0.0
C1024 C 0.52202 0.39428 0.8258 0.0
C1025 C 0.51096 0.40343 0.85743 0.0
C1026 C 0.53317 0.40279 0.79362 0.0
C1027 C 0.53361 0.42065 0.7925 0.0
C1028 C 0.52238 0.42989 0.82325 0.0
H1029 H 0.5916 0.4883 0.59431 0.0
H1030 H 0.57397 0.47722 0.66252 0.0
C1031 C 0.51115 0.42135 0.8556 0.0
C1032 C 0.54539 0.42948 0.75755 0.0
H1033 H 0.58729 0.43205 0.72339 0.0
C1034 C 0.53846 0.43969 0.71935 0.0
C1035 C 0.56325 0.42701 0.75976 0.0
C1036 C 0.57151 0.41691 0.80146 0.0
C1037 C 0.54886 0.44691 0.682 0.0
C1038 C 0.56665 0.44401 0.6834 0.0
C1039 C 0.57363 0.43416 0.7223 0.0
C1040 C 0.57816 0.45072 0.64395 0.0
C1041 C 0.54066 0.45705 0.64028 0.0
C1042 C 0.58683 0.43946 0.61196 0.0
C1043 C 0.597 0.44573 0.57291 0.0
C1044 C 0.59875 0.4634 0.56535 0.0
C1045 C 0.59048 0.47462 0.59871 0.0
C1046 C 0.58031 0.46833 0.63764 0.0
H1047 H 0.52664 0.45511 0.63885 0.0
H1048 H 0.54312 0.47082 0.64649 0.0
H1049 H 0.54616 0.45351 0.60327 0.0
H1050 H 0.5854 0.42581 0.61648 0.0
H1051 H 0.60321 0.43672 0.54811 0.0
H1052 H 0.06854 0.50688 0.3677 0.0
H1053 H 0.05458 0.52598 0.30706 0.0
H1054 H 0.10335 0.54767 0.26845 0.0
H1055 H 0.11736 0.52872 0.32829 0.0
H1056 H 0.05698 0.56406 0.30246 0.0
H1057 H 0.0818 0.53114 0.13258 0.0
H1058 H 0.08094 0.52101 0.19353 0.0
H1059 H 0.0974 0.53624 0.1798 0.0
C1060 C 0.07627 0.51572 0.34624 0.0
C1061 C 0.09405 0.51629 0.3528 0.0
C1062 C 0.06828 0.52663 0.3118 0.0
C1063 C 0.07799 0.53809 0.28308 0.0
C1064 C 0.09568 0.53878 0.28993 0.0
H1065 H 0.05837 0.60834 0.03809 0.0
H1066 H 0.07124 0.59167 0.10598 0.0
C1067 C 0.10364 0.52799 0.32438 0.0
C1068 C 0.06977 0.54935 0.24561 0.0
H1069 H 0.0678 0.55747 0.11973 0.0
C1070 C 0.05922 0.5626 0.26246 0.0
C1071 C 0.07287 0.54744 0.19359 0.0
C1072 C 0.08376 0.53312 0.17353 0.0
C1073 C 0.05195 0.57426 0.22854 0.0
C1074 C 0.05503 0.57234 0.17641 0.0
C1075 C 0.06552 0.559 0.15969 0.0
C1076 C 0.0472 0.58368 0.1382 0.0
C1077 C 0.0414 0.58876 0.24899 0.0
C1078 C 0.02942 0.58482 0.13397 0.0
C1079 C 0.02202 0.59441 0.09547 0.0
C1080 C 0.03226 0.6029 0.05989 0.0
C1081 C 0.05009 0.60199 0.06479 0.0
C1082 C 0.05748 0.59245 0.10353 0.0
H1083 H 0.04448 0.59142 0.289 0.0
H1084 H 0.04338 0.6006 0.22684 0.0
H1085 H 0.0277 0.58529 0.24686 0.0
H1086 H 0.02122 0.57786 0.15951 0.0
H1087 H 0.00824 0.59472 0.0928 0.0
H1088 H 0.91501 0.56158 0.47693 0.0
H1089 H 0.92406 0.57667 0.40092 0.0
H1090 H 0.88895 0.5467 0.31273 0.0
H1091 H 0.87952 0.53195 0.38847 0.0
H1092 H 0.93946 0.56308 0.32132 0.0
H1093 H 0.87955 0.59329 0.25729 0.0
H1094 H 0.88189 0.58432 0.31941 0.0
H1095 H 0.87709 0.57078 0.26657 0.0
C1096 C 0.909 0.55841 0.44147 0.0
C1097 C 0.89651 0.54559 0.43883 0.0
C1098 C 0.9142 0.56704 0.39804 0.0
C1099 C 0.90702 0.56302 0.35113 0.0
C1100 C 0.89436 0.55039 0.34857 0.0
H1101 H 0.93577 0.57704 0.04187 0.0
H1102 H 0.9226 0.56892 0.12185 0.0
C1103 C 0.88905 0.54187 0.39199 0.0
C1104 C 0.91377 0.57094 0.3044 0.0
H1105 H 0.90197 0.5912 0.19598 0.0
C1106 C 0.93128 0.56944 0.2943 0.0
C1107 C 0.90311 0.57923 0.26901 0.0
C1108 C 0.8844 0.58216 0.27883 0.0
C1109 C 0.93831 0.57552 0.24922 0.0
C1110 C 0.92757 0.58333 0.21335 0.0
C1111 C 0.91013 0.58511 0.22359 0.0
C1112 C 0.93429 0.58928 0.16441 0.0
C1113 C 0.95711 0.57312 0.23946 0.0
C1114 C 0.94488 0.60365 0.16184 0.0
C1115 C 0.95237 0.60839 0.11622 0.0
C1116 C 0.94944 0.59876 0.07241 0.0
C1117 C 0.93834 0.58469 0.0749 0.0
C1118 C 0.93077 0.58004 0.1205 0.0
H1119 H 0.96322 0.56473 0.26791 0.0
H1120 H 0.95916 0.56754 0.20157 0.0
H1121 H 0.96357 0.5857 0.24037 0.0
H1122 H 0.94765 0.61098 0.19538 0.0
H1123 H 0.96084 0.61929 0.11567 0.0
H1124 H 0.93002 0.95714 0.55301 0.0
H1125 H 0.93808 0.943 0.63117 0.0
H1126 H 0.88513 0.93933 0.67345 0.0
H1127 H 0.87689 0.95321 0.59457 0.0
H1128 H 0.93224 0.95509 0.72519 0.0
H1129 H 0.90239 0.89135 0.70277 0.0
H1130 H 0.90514 0.90592 0.65085 0.0
H1131 H 0.888 0.90895 0.69477 0.0
C1132 C 0.92004 0.95313 0.57855 0.0
C1133 C 0.9028 0.95631 0.56752 0.0
C1134 C 0.92468 0.94506 0.62328 0.0
C1135 C 0.91222 0.93997 0.658 0.0
C1136 C 0.89496 0.94283 0.64679 0.0
H1137 H 0.93789 0.92163 0.97304 0.0
H1138 H 0.92446 0.93192 0.89576 0.0
C1139 C 0.89027 0.95084 0.60178 0.0
C1140 C 0.91751 0.93274 0.70717 0.0
H1141 H 0.91456 0.89754 0.78244 0.0
C1142 C 0.92836 0.94251 0.73772 0.0
C1143 C 0.91254 0.91628 0.72326 0.0
C1144 C 0.9015 0.90492 0.69108 0.0
C1145 C 0.93444 0.93627 0.78376 0.0
C1146 C 0.92922 0.91994 0.80036 0.0
C1147 C 0.91837 0.91014 0.76988 0.0
C1148 C 0.93564 0.91257 0.84814 0.0
C1149 C 0.94683 0.94703 0.81347 0.0
C1150 C 0.94571 0.89781 0.84739 0.0
C1151 C 0.95329 0.89179 0.89156 0.0
C1152 C 0.95091 0.90045 0.93735 0.0
C1153 C 0.94012 0.91476 0.93836 0.0
C1154 C 0.93249 0.92071 0.89419 0.0
H1155 H 0.95267 0.9572 0.79002 0.0
H1156 H 0.93997 0.95326 0.84496 0.0
H1157 H 0.95718 0.93908 0.82957 0.0
H1158 H 0.94824 0.89129 0.81228 0.0
H1159 H 0.96148 0.88071 0.88943 0.0
H1160 H 0.54074 0.87852 0.11037 0.0
H1161 H 0.55377 0.88641 0.19072 0.0
H1162 H 0.57512 0.93148 0.12266 0.0
H1163 H 0.56211 0.92377 0.04211 0.0
H1164 H 0.59791 0.90996 0.19148 0.0
H1165 H 0.53535 0.92947 0.27209 0.0
H1166 H 0.53654 0.90902 0.24163 0.0
H1167 H 0.5389 0.9281 0.20513 0.0
C1168 C 0.54836 0.89001 0.11226 0.0
C1169 C 0.5503 0.90057 0.06984 0.0
C1170 C 0.55574 0.89451 0.15825 0.0
C1171 C 0.56526 0.90958 0.16257 0.0
C1172 C 0.56778 0.9198 0.11998 0.0
H1173 H 0.61716 0.96772 0.39 0.0
H1174 H 0.60813 0.95337 0.31323 0.0
C1175 C 0.56032 0.91539 0.07403 0.0
C1176 C 0.5719 0.91514 0.21201 0.0
H1177 H 0.55941 0.93228 0.32392 0.0
C1178 C 0.58953 0.91478 0.22063 0.0
C1179 C 0.56089 0.92128 0.2499 0.0
C1180 C 0.54185 0.92213 0.24199 0.0
C1181 C 0.59648 0.92047 0.26636 0.0
C1182 C 0.58551 0.92714 0.30379 0.0
C1183 C 0.56783 0.92717 0.29533 0.0
C1184 C 0.59204 0.93494 0.35095 0.0
C1185 C 0.61548 0.91909 0.27423 0.0
C1186 C 0.58579 0.9296 0.39789 0.0
C1187 C 0.59074 0.93799 0.44198 0.0
C1188 C 0.60205 0.95189 0.43997 0.0
C1189 C 0.60857 0.95696 0.39302 0.0
C1190 C 0.6035 0.94867 0.34899 0.0
H1191 H 0.62105 0.90877 0.25083 0.0
H1192 H 0.62161 0.93124 0.26288 0.0
H1193 H 0.61863 0.91657 0.31425 0.0
H1194 H 0.57685 0.91909 0.40033 0.0
H1195 H 0.58547 0.93377 0.4775 0.0
H1196 H 0.57311 0.55736 0.52476 0.0
H1197 H 0.56319 0.57175 0.60082 0.0
H1198 H 0.60489 0.54985 0.68452 0.0
H1199 H 0.61512 0.53577 0.60851 0.0
H1200 H 0.5522 0.5563 0.68394 0.0
H1201 H 0.60623 0.59836 0.73408 0.0
H1202 H 0.60435 0.58841 0.67315 0.0
H1203 H 0.61275 0.57664 0.72573 0.0
C1204 C 0.58036 0.55586 0.55913 0.0
C1205 C 0.59491 0.54541 0.56052 0.0
C1206 C 0.57466 0.56409 0.60261 0.0
C1207 C 0.58339 0.56206 0.64833 0.0
C1208 C 0.59816 0.55197 0.64952 0.0
H1209 H 0.53849 0.56717 0.94348 0.0
H1210 H 0.55194 0.55905 0.86429 0.0
C1211 C 0.60394 0.54383 0.60599 0.0
C1212 C 0.57617 0.56913 0.69553 0.0
H1213 H 0.58578 0.59293 0.79936 0.0
C1214 C 0.5595 0.56446 0.70889 0.0
C1215 C 0.5856 0.57993 0.72788 0.0
C1216 C 0.60316 0.58628 0.71426 0.0
C1217 C 0.55218 0.56985 0.75425 0.0
C1218 C 0.56194 0.57986 0.78788 0.0
C1219 C 0.57841 0.58502 0.77389 0.0
C1220 C 0.55523 0.58493 0.83782 0.0
C1221 C 0.53398 0.56486 0.76549 0.0
C1222 C 0.55339 0.60221 0.85038 0.0
C1223 C 0.54588 0.60692 0.89606 0.0
C1224 C 0.54009 0.5944 0.92989 0.0
C1225 C 0.54264 0.57713 0.91806 0.0
C1226 C 0.55023 0.57245 0.87265 0.0
H1227 H 0.52686 0.56168 0.73062 0.0
H1228 H 0.53393 0.5534 0.78994 0.0
H1229 H 0.52713 0.57525 0.78534 0.0
H1230 H 0.55728 0.61205 0.82419 0.0
H1231 H 0.54412 0.62034 0.90408 0.0
H1232 H 0.066 0.4608 0.56866 0.0
H1233 H 0.05892 0.44594 0.64653 0.0
H1234 H 0.11205 0.43438 0.67016 0.0
H1235 H 0.11929 0.44905 0.59159 0.0
H1236 H 0.0903 0.40701 0.69278 0.0
H1237 H 0.06868 0.46656 0.78477 0.0
H1238 H 0.05805 0.46249 0.72625 0.0
H1239 H 0.08062 0.46654 0.7268 0.0
C1240 C 0.0762 0.45499 0.59011 0.0
C1241 C 0.09324 0.45624 0.57409 0.0
C1242 C 0.07213 0.44658 0.6348 0.0
C1243 C 0.085 0.4394 0.66467 0.0
C1244 C 0.10194 0.43997 0.64782 0.0
H1245 H 0.06332 0.41419 0.97784 0.0
H1246 H 0.07722 0.42488 0.90181 0.0
C1247 C 0.10605 0.44834 0.60291 0.0
C1248 C 0.08071 0.43169 0.71401 0.0
H1249 H 0.06152 0.44055 0.82606 0.0
C1250 C 0.08413 0.41435 0.72215 0.0
C1251 C 0.073 0.44138 0.75267 0.0
C1252 C 0.07002 0.46031 0.74751 0.0
C1253 C 0.07943 0.40627 0.76726 0.0
C1254 C 0.07081 0.41574 0.80474 0.0
C1255 C 0.06799 0.43323 0.79722 0.0
C1256 C 0.06398 0.40778 0.85127 0.0
C1257 C 0.0838 0.3877 0.77435 0.0
C1258 C 0.05206 0.39447 0.8483 0.0
C1259 C 0.04419 0.38824 0.89173 0.0
C1260 C 0.04789 0.39538 0.93901 0.0
C1261 C 0.06016 0.40841 0.94206 0.0
C1262 C 0.06812 0.41455 0.89861 0.0
H1263 H 0.09492 0.38396 0.75094 0.0
H1264 H 0.08672 0.3848 0.8143 0.0
H1265 H 0.07279 0.37977 0.76255 0.0
H1266 H 0.04831 0.38932 0.81218 0.0
H1267 H 0.03471 0.37828 0.88794 0.0
H1268 H 0.03993 0.06518 0.05894 0.0
H1269 H 0.05353 0.05847 0.13904 0.0
H1270 H 0.05962 0.11209 0.1698 0.0
H1271 H 0.04623 0.11897 0.08895 0.0
H1272 H 0.08818 0.09278 0.19659 0.0
H1273 H 0.02899 0.0643 0.27318 0.0
H1274 H 0.03544 0.05483 0.21483 0.0
H1275 H 0.02924 0.07691 0.21642 0.0
C1276 C 0.04426 0.07558 0.08248 0.0
C1277 C 0.04185 0.09263 0.06773 0.0
C1278 C 0.05195 0.07171 0.12843 0.0
C1279 C 0.05722 0.08478 0.16089 0.0
C1280 C 0.05551 0.10181 0.14545 0.0
H1281 H 0.07693 0.06102 0.47627 0.0
H1282 H 0.06673 0.07488 0.39958 0.0
C1283 C 0.04788 0.10572 0.09924 0.0
C1284 C 0.06411 0.08056 0.21135 0.0
H1285 H 0.05456 0.05893 0.31905 0.0
C1286 C 0.0808 0.0855 0.22361 0.0
C1287 C 0.05434 0.07138 0.24698 0.0
C1288 C 0.03595 0.0667 0.23749 0.0
C1289 C 0.08822 0.08092 0.26982 0.0
C1290 C 0.07878 0.07087 0.30419 0.0
C1291 C 0.06187 0.06649 0.29259 0.0
C1292 C 0.08625 0.06415 0.35159 0.0
C1293 C 0.10605 0.08697 0.28141 0.0
C1294 C 0.10074 0.05366 0.35035 0.0
C1295 C 0.10668 0.04583 0.39421 0.0
C1296 C 0.09809 0.04812 0.44014 0.0
C1297 C 0.08384 0.05897 0.44155 0.0
C1298 C 0.07798 0.0669 0.39771 0.0
H1299 H 0.10922 0.09874 0.26008 0.0
H1300 H 0.1077 0.08955 0.32216 0.0
H1301 H 0.11529 0.07697 0.2702 0.0
H1302 H 0.10709 0.05098 0.3151 0.0
H1303 H 0.11761 0.03745 0.39166 0.0
H1304 H 0.38228 0.05365 0.56215 0.0
H1305 H 0.39077 0.07276 0.63082 0.0
H1306 H 0.43659 0.04333 0.65287 0.0
H1307 H 0.42847 0.02455 0.58407 0.0
H1308 H 0.39669 0.06624 0.73004 0.0
H1309 H 0.45553 0.091 0.64215 0.0
H1310 H 0.43972 0.07925 0.60712 0.0
H1311 H 0.45544 0.06816 0.6441 0.0
C1312 C 0.39423 0.05136 0.58141 0.0
C1313 C 0.40479 0.0377 0.56725 0.0
C1314 C 0.39904 0.06226 0.62066 0.0
C1315 C 0.41449 0.05969 0.6463 0.0
C1316 C 0.42486 0.04588 0.63273 0.0
H1317 H 0.44808 0.08867 0.94089 0.0
H1318 H 0.43367 0.07603 0.8685 0.0
C1319 C 0.42014 0.03509 0.59344 0.0
C1320 C 0.4197 0.07105 0.6882 0.0
H1321 H 0.4533 0.09443 0.73158 0.0
C1322 C 0.40896 0.07261 0.73017 0.0
C1323 C 0.43556 0.07965 0.68799 0.0
C1324 C 0.44713 0.07959 0.64266 0.0
C1325 C 0.41402 0.08189 0.77287 0.0
C1326 C 0.43042 0.08943 0.77403 0.0
C1327 C 0.4408 0.08849 0.73111 0.0
C1328 C 0.43747 0.09782 0.81967 0.0
C1329 C 0.40171 0.08351 0.81614 0.0
C1330 C 0.4446 0.11421 0.81641 0.0
C1331 C 0.45315 0.12131 0.85747 0.0
C1332 C 0.45466 0.11222 0.90279 0.0
C1333 C 0.44698 0.09607 0.90667 0.0
C1334 C 0.43862 0.08887 0.86533 0.0
H1335 H 0.38829 0.08246 0.80309 0.0
H1336 H 0.40402 0.073 0.84325 0.0
H1337 H 0.40331 0.09584 0.83608 0.0
H1338 H 0.44392 0.12135 0.78159 0.0
H1339 H 0.45889 0.1338 0.85332 0.0
H1340 H 0.43842 0.42447 0.04674 0.0
H1341 H 0.425 0.43228 0.12658 0.0
H1342 H 0.44187 0.38497 0.19222 0.0
H1343 H 0.45527 0.37696 0.11252 0.0
H1344 H 0.39975 0.41081 0.19173 0.0
H1345 H 0.46248 0.42676 0.27834 0.0
H1346 H 0.45936 0.42663 0.21105 0.0
H1347 H 0.46049 0.4069 0.24488 0.0
C1348 C 0.43912 0.41563 0.07794 0.0
C1349 C 0.44799 0.40013 0.07331 0.0
C1350 C 0.43142 0.4201 0.12346 0.0
C1351 C 0.43258 0.40924 0.16519 0.0
C1352 C 0.44094 0.39354 0.16038 0.0
H1353 H 0.41056 0.43261 0.47965 0.0
H1354 H 0.41935 0.41801 0.40256 0.0
C1355 C 0.44854 0.38898 0.11477 0.0
C1356 C 0.42577 0.41477 0.2144 0.0
H1357 H 0.43808 0.43079 0.32796 0.0
C1358 C 0.40808 0.4151 0.22172 0.0
C1359 C 0.43673 0.42022 0.25337 0.0
C1360 C 0.45584 0.42024 0.24684 0.0
C1361 C 0.40102 0.42086 0.26719 0.0
C1362 C 0.41196 0.42688 0.30569 0.0
C1363 C 0.42969 0.42618 0.29854 0.0
C1364 C 0.40538 0.43475 0.35264 0.0
C1365 C 0.38192 0.42024 0.27363 0.0
C1366 C 0.39457 0.44898 0.35032 0.0
C1367 C 0.38941 0.45724 0.39427 0.0
C1368 C 0.39519 0.45162 0.44153 0.0
C1369 C 0.40587 0.43726 0.44388 0.0
C1370 C 0.41091 0.4289 0.39984 0.0
H1371 H 0.3761 0.41028 0.24937 0.0
H1372 H 0.37833 0.41766 0.31329 0.0
H1373 H 0.37641 0.4327 0.26239 0.0
H1374 H 0.39052 0.45405 0.31439 0.0
H1375 H 0.38131 0.46836 0.39099 0.0
loop_
_geom_bond_atom_site_label_1
_geom_bond_atom_site_label_2
_geom_bond_distance
_geom_bond_site_symmetry_2
_ccdc_geom_bond_type
Mg0 O1 2.028 . S
Mg0 O7 1.986 . S
Mg0 O9 2.114 . S
Mg0 O10 2.251 . S
Mg0 O13 2.010 1_455 S
O1 Mg0 2.028 . S
O1 C4 1.250 . S
O2 Mg3 2.028 . S
O2 C4 1.248 . S
Mg3 O2 2.028 . S
Mg3 O8 2.032 . S
Mg3 O10 2.079 . S
C4 O1 1.250 . S
C4 O2 1.248 . S
C5 O6 1.264 . S
C5 O13 1.249 . S
O6 C5 1.264 . S
O7 Mg0 1.986 . S
O7 C11 1.246 . S
O8 Mg3 2.032 . S
O8 C11 1.259 . S
O9 Mg0 2.114 . S
O9 C12 1.252 . S
O10 Mg0 2.251 . S
O10 Mg3 2.079 . S
O10 C12 1.273 . S
C11 O7 1.246 . S
C11 O8 1.259 . S
C12 O9 1.252 . S
C12 O10 1.273 . S
O13 Mg0 2.010 1_655 S
O13 C5 1.249 . S
Mg14 O15 2.028 . S
Mg14 O21 1.986 . S
Mg14 O23 2.114 . S
Mg14 O24 2.251 . S
Mg14 O27 2.010 1_545 S
O15 Mg14 2.028 . S
O15 C18 1.250 . S
O16 Mg17 2.028 . S
O16 C18 1.248 . S
Mg17 O16 2.028 . S
Mg17 O22 2.032 . S
Mg17 O24 2.079 . S
C18 O15 1.250 . S
C18 O16 1.248 . S
C19 O20 1.264 . S
C19 O27 1.249 . S
O20 C19 1.264 . S
O21 Mg14 1.986 . S
O21 C25 1.246 . S
O22 Mg17 2.032 . S
O22 C25 1.259 . S
O23 Mg14 2.114 . S
O23 C26 1.252 . S
O24 Mg14 2.251 . S
O24 Mg17 2.079 . S
O24 C26 1.273 . S
C25 O21 1.246 . S
C25 O22 1.259 . S
C26 O23 1.252 . S
C26 O24 1.273 . S
O27 Mg14 2.010 1_565 S
O27 C19 1.249 . S
Mg28 O29 2.028 . S
Mg28 O35 1.986 . S
Mg28 O37 2.114 . S
Mg28 O38 2.251 . S
Mg28 O41 2.010 . S
O29 Mg28 2.028 . S
O29 C32 1.250 . S
O30 Mg31 2.028 . S
O30 C32 1.248 . S
Mg31 O30 2.028 . S
Mg31 O36 2.032 . S
Mg31 O38 2.079 . S
C32 O29 1.250 . S
C32 O30 1.248 . S
C33 O34 1.264 . S
C33 O41 1.249 . S
O34 C33 1.264 . S
O35 Mg28 1.986 . S
O35 C39 1.246 . S
O36 Mg31 2.032 . S
O36 C39 1.259 . S
O37 Mg28 2.114 . S
O37 C40 1.252 . S
O38 Mg28 2.251 . S
O38 Mg31 2.079 . S
O38 C40 1.273 . S
C39 O35 1.246 . S
C39 O36 1.259 . S
C40 O37 1.252 . S
C40 O38 1.273 . S
O41 Mg28 2.010 . S
O41 C33 1.249 . S
Mg42 O43 2.028 . S
Mg42 O49 1.986 . S
Mg42 O51 2.114 . S
Mg42 O52 2.251 . S
Mg42 O55 2.010 . S
O43 Mg42 2.028 . S
O43 C46 1.250 . S
O44 Mg45 2.028 . S
O44 C46 1.248 . S
Mg45 O44 2.028 . S
Mg45 O50 2.032 . S
Mg45 O52 2.079 . S
C46 O43 1.250 . S
C46 O44 1.248 . S
C47 O48 1.264 . S
C47 O55 1.249 . S
O48 C47 1.264 . S
O49 Mg42 1.986 . S
O49 C53 1.246 . S
O50 Mg45 2.032 . S
O50 C53 1.259 . S
O51 Mg42 2.114 . S
O51 C54 1.252 . S
O52 Mg42 2.251 . S
O52 Mg45 2.079 . S
O52 C54 1.273 . S
C53 O49 1.246 . S
C53 O50 1.259 . S
C54 O51 1.252 . S
C54 O52 1.273 . S
O55 Mg42 2.010 . S
O55 C47 1.249 . S
Mg56 O57 2.028 . S
Mg56 O63 1.986 . S
Mg56 O65 2.114 . S
Mg56 O66 2.251 . S
Mg56 O69 2.010 1_455 S
O57 Mg56 2.028 . S
O57 C60 1.250 . S
O58 Mg59 2.028 . S
O58 C60 1.248 . S
Mg59 O58 2.028 . S
Mg59 O64 2.032 . S
Mg59 O66 2.079 . S
C60 O57 1.250 . S
C60 O58 1.248 . S
C61 O62 1.264 . S
C61 O69 1.249 . S
O62 C61 1.264 . S
O63 Mg56 1.986 . S
O63 C67 1.246 . S
O64 Mg59 2.032 . S
O64 C67 1.259 . S
O65 Mg56 2.114 . S
O65 C68 1.252 . S
O66 Mg56 2.251 . S
O66 Mg59 2.079 . S
O66 C68 1.273 . S
C67 O63 1.246 . S
C67 O64 1.259 . S
C68 O65 1.252 . S
C68 O66 1.273 . S
O69 Mg56 2.010 1_655 S
O69 C61 1.249 . S
Mg70 O71 2.028 . S
Mg70 O77 1.986 . S
Mg70 O79 2.114 . S
Mg70 O80 2.251 . S
Mg70 O83 2.010 1_545 S
O71 Mg70 2.028 . S
O71 C74 1.250 . S
O72 Mg73 2.028 . S
O72 C74 1.248 . S
Mg73 O72 2.028 . S
Mg73 O78 2.032 . S
Mg73 O80 2.079 . S
C74 O71 1.250 . S
C74 O72 1.248 . S
C75 O76 1.264 . S
C75 O83 1.249 . S
O76 C75 1.264 . S
O77 Mg70 1.986 . S
O77 C81 1.246 . S
O78 Mg73 2.032 . S
O78 C81 1.259 . S
O79 Mg70 2.114 . S
O79 C82 1.252 . S
O80 Mg70 2.251 . S
O80 Mg73 2.079 . S
O80 C82 1.273 . S
C81 O77 1.246 . S
C81 O78 1.259 . S
C82 O79 1.252 . S
C82 O80 1.273 . S
O83 Mg70 2.010 1_565 S
O83 C75 1.249 . S
Mg84 O85 2.028 . S
Mg84 O91 1.986 . S
Mg84 O93 2.114 . S
Mg84 O94 2.251 . S
Mg84 O97 2.010 . S
O85 Mg84 2.028 . S
O85 C88 1.250 . S
O86 Mg87 2.028 . S
O86 C88 1.248 . S
Mg87 O86 2.028 . S
Mg87 O92 2.032 . S
Mg87 O94 2.079 . S
C88 O85 1.250 . S
C88 O86 1.248 . S
C89 O90 1.264 . S
C89 O97 1.249 . S
O90 C89 1.264 . S
O91 Mg84 1.986 . S
O91 C95 1.246 . S
O92 Mg87 2.032 . S
O92 C95 1.259 . S
O93 Mg84 2.114 . S
O93 C96 1.252 . S
O94 Mg84 2.251 . S
O94 Mg87 2.079 . S
O94 C96 1.273 . S
C95 O91 1.246 . S
C95 O92 1.259 . S
C96 O93 1.252 . S
C96 O94 1.273 . S
O97 Mg84 2.010 . S
O97 C89 1.249 . S
Mg98 O99 2.028 . S
Mg98 O105 1.986 . S
Mg98 O107 2.114 . S
Mg98 O108 2.251 . S
Mg98 O111 2.010 . S
O99 Mg98 2.028 . S
O99 C102 1.250 . S
O100 Mg101 2.028 . S
O100 C102 1.248 . S
Mg101 O100 2.028 . S
Mg101 O106 2.032 . S
Mg101 O108 2.079 . S
C102 O99 1.250 . S
C102 O100 1.248 . S
C103 O104 1.264 . S
C103 O111 1.249 . S
O104 C103 1.264 . S
O105 Mg98 1.986 . S
O105 C109 1.246 . S
O106 Mg101 2.032 . S
O106 C109 1.259 . S
O107 Mg98 2.114 . S
O107 C110 1.252 . S
O108 Mg98 2.251 . S
O108 Mg101 2.079 . S
O108 C110 1.273 . S
C109 O105 1.246 . S
C109 O106 1.259 . S
C110 O107 1.252 . S
C110 O108 1.273 . S
O111 Mg98 2.010 . S
O111 C103 1.249 . S
Mg112 O113 2.028 . S
Mg112 O119 1.986 . S
Mg112 O121 2.114 . S
Mg112 O122 2.251 . S
Mg112 O125 2.010 1_655 S
O113 Mg112 2.028 . S
O113 C116 1.250 . S
O114 Mg115 2.028 . S
O114 C116 1.248 . S
Mg115 O114 2.028 . S
Mg115 O120 2.032 . S
Mg115 O122 2.079 . S
C116 O113 1.250 . S
C116 O114 1.248 . S
C117 O118 1.264 . S
C117 O125 1.249 . S
O118 C117 1.264 . S
O119 Mg112 1.986 . S
O119 C123 1.246 . S
O120 Mg115 2.032 . S
O120 C123 1.259 . S
O121 Mg112 2.114 . S
O121 C124 1.252 . S
O122 Mg112 2.251 . S
O122 Mg115 2.079 . S
O122 C124 1.273 . S
C123 O119 1.246 . S
C123 O120 1.259 . S
C124 O121 1.252 . S
C124 O122 1.273 . S
O125 Mg112 2.010 1_455 S
O125 C117 1.249 . S
Mg126 O127 2.028 . S
Mg126 O133 1.986 . S
Mg126 O135 2.114 . S
Mg126 O136 2.251 . S
Mg126 O139 2.010 1_565 S
O127 Mg126 2.028 . S
O127 C130 1.250 . S
O128 Mg129 2.028 . S
O128 C130 1.248 . S
Mg129 O128 2.028 . S
Mg129 O134 2.032 . S
Mg129 O136 2.079 . S
C130 O127 1.250 . S
C130 O128 1.248 . S
C131 O132 1.264 . S
C131 O139 1.249 . S
O132 C131 1.264 . S
O133 Mg126 1.986 . S
O133 C137 1.246 . S
O134 Mg129 2.032 . S
O134 C137 1.259 . S
O135 Mg126 2.114 . S
O135 C138 1.252 . S
O136 Mg126 2.251 . S
O136 Mg129 2.079 . S
O136 C138 1.273 . S
C137 O133 1.246 . S
C137 O134 1.259 . S
C138 O135 1.252 . S
C138 O136 1.273 . S
O139 Mg126 2.010 1_545 S
O139 C131 1.249 . S
Mg140 O141 2.028 . S
Mg140 O147 1.986 . S
Mg140 O149 2.114 . S
Mg140 O150 2.251 . S
Mg140 O153 2.010 . S
O141 Mg140 2.028 . S
O141 C144 1.250 . S
O142 Mg143 2.028 . S
O142 C144 1.248 . S
Mg143 O142 2.028 . S
Mg143 O148 2.032 . S
Mg143 O150 2.079 . S
C144 O141 1.250 . S
C144 O142 1.248 . S
C145 O146 1.264 . S
C145 O153 1.249 . S
O146 C145 1.264 . S
O147 Mg140 1.986 . S
O147 C151 1.246 . S
O148 Mg143 2.032 . S
O148 C151 1.259 . S
O149 Mg140 2.114 . S
O149 C152 1.252 . S
O150 Mg140 2.251 . S
O150 Mg143 2.079 . S
O150 C152 1.273 . S
C151 O147 1.246 . S
C151 O148 1.259 . S
C152 O149 1.252 . S
C152 O150 1.273 . S
O153 Mg140 2.010 . S
O153 C145 1.249 . S
Mg154 O155 2.028 . S
Mg154 O161 1.986 . S
Mg154 O163 2.114 . S
Mg154 O164 2.251 . S
Mg154 O167 2.010 . S
O155 Mg154 2.028 . S
O155 C158 1.250 . S
O156 Mg157 2.028 . S
O156 C158 1.248 . S
Mg157 O156 2.028 . S
Mg157 O162 2.032 . S
Mg157 O164 2.079 . S
C158 O155 1.250 . S
C158 O156 1.248 . S
C159 O160 1.264 . S
C159 O167 1.249 . S
O160 C159 1.264 . S
O161 Mg154 1.986 . S
O161 C165 1.246 . S
O162 Mg157 2.032 . S
O162 C165 1.259 . S
O163 Mg154 2.114 . S
O163 C166 1.252 . S
O164 Mg154 2.251 . S
O164 Mg157 2.079 . S
O164 C166 1.273 . S
C165 O161 1.246 . S
C165 O162 1.259 . S
C166 O163 1.252 . S
C166 O164 1.273 . S
O167 Mg154 2.010 . S
O167 C159 1.249 . S
Mg168 O169 2.028 . S
Mg168 O175 1.986 . S
Mg168 O177 2.114 . S
Mg168 O178 2.251 . S
Mg168 O181 2.010 1_655 S
O169 Mg168 2.028 . S
O169 C172 1.250 . S
O170 Mg171 2.028 . S
O170 C172 1.248 . S
Mg171 O170 2.028 . S
Mg171 O176 2.032 . S
Mg171 O178 2.079 . S
C172 O169 1.250 . S
C172 O170 1.248 . S
C173 O174 1.264 . S
C173 O181 1.249 . S
O174 C173 1.264 . S
O175 Mg168 1.986 . S
O175 C179 1.246 . S
O176 Mg171 2.032 . S
O176 C179 1.259 . S
O177 Mg168 2.114 . S
O177 C180 1.252 . S
O178 Mg168 2.251 . S
O178 Mg171 2.079 . S
O178 C180 1.273 . S
C179 O175 1.246 . S
C179 O176 1.259 . S
C180 O177 1.252 . S
C180 O178 1.273 . S
O181 Mg168 2.010 1_455 S
O181 C173 1.249 . S
Mg182 O183 2.028 . S
Mg182 O189 1.986 . S
Mg182 O191 2.114 . S
Mg182 O192 2.251 . S
Mg182 O195 2.010 1_565 S
O183 Mg182 2.028 . S
O183 C186 1.250 . S
O184 Mg185 2.028 . S
O184 C186 1.248 . S
Mg185 O184 2.028 . S
Mg185 O190 2.032 . S
Mg185 O192 2.079 . S
C186 O183 1.250 . S
C186 O184 1.248 . S
C187 O188 1.264 . S
C187 O195 1.249 . S
O188 C187 1.264 . S
O189 Mg182 1.986 . S
O189 C193 1.246 . S
O190 Mg185 2.032 . S
O190 C193 1.259 . S
O191 Mg182 2.114 . S
O191 C194 1.252 . S
O192 Mg182 2.251 . S
O192 Mg185 2.079 . S
O192 C194 1.273 . S
C193 O189 1.246 . S
C193 O190 1.259 . S
C194 O191 1.252 . S
C194 O192 1.273 . S
O195 Mg182 2.010 1_545 S
O195 C187 1.249 . S
Mg196 O197 2.028 . S
Mg196 O203 1.986 . S
Mg196 O205 2.114 . S
Mg196 O206 2.251 . S
Mg196 O209 2.010 . S
O197 Mg196 2.028 . S
O197 C200 1.250 . S
O198 Mg199 2.028 . S
O198 C200 1.248 . S
Mg199 O198 2.028 . S
Mg199 O204 2.032 . S
Mg199 O206 2.079 . S
C200 O197 1.250 . S
C200 O198 1.248 . S
C201 O202 1.264 . S
C201 O209 1.249 . S
O202 C201 1.264 . S
O203 Mg196 1.986 . S
O203 C207 1.246 . S
O204 Mg199 2.032 . S
O204 C207 1.259 . S
O205 Mg196 2.114 . S
O205 C208 1.252 . S
O206 Mg196 2.251 . S
O206 Mg199 2.079 . S
O206 C208 1.273 . S
C207 O203 1.246 . S
C207 O204 1.259 . S
C208 O205 1.252 . S
C208 O206 1.273 . S
O209 Mg196 2.010 . S
O209 C201 1.249 . S
Mg210 O211 2.028 . S
Mg210 O217 1.986 . S
Mg210 O219 2.114 . S
Mg210 O220 2.251 . S
Mg210 O223 2.010 . S
O211 Mg210 2.028 . S
O211 C214 1.250 . S
O212 Mg213 2.028 . S
O212 C214 1.248 . S
Mg213 O212 2.028 . S
Mg213 O218 2.032 . S
Mg213 O220 2.079 . S
C214 O211 1.250 . S
C214 O212 1.248 . S
C215 O216 1.264 . S
C215 O223 1.249 . S
O216 C215 1.264 . S
O217 Mg210 1.986 . S
O217 C221 1.246 . S
O218 Mg213 2.032 . S
O218 C221 1.259 . S
O219 Mg210 2.114 . S
O219 C222 1.252 . S
O220 Mg210 2.251 . S
O220 Mg213 2.079 . S
O220 C222 1.273 . S
C221 O217 1.246 . S
C221 O218 1.259 . S
C222 O219 1.252 . S
C222 O220 1.273 . S
O223 Mg210 2.010 . S
O223 C215 1.249 . S
H224 C232 0.929 1_556 S
H225 C234 0.930 1_556 S
H226 C236 0.930 . S
H227 C239 0.929 . S
H228 C242 0.930 1_655 S
H229 C244 0.960 . S
H230 C244 0.960 . S
H231 C244 0.960 . S
C232 H224 0.929 1_554 S
C232 C233 1.377 . S
C232 C234 1.384 . S
C233 C232 1.377 . S
C233 C239 1.390 . S
C234 H225 0.930 1_554 S
C234 C232 1.384 . S
C234 C235 1.372 . S
C235 C234 1.372 . S
C235 C236 1.400 . S
C235 C240 1.490 . S
C236 H226 0.930 . S
C236 C235 1.400 . S
C236 C239 1.386 . S
H237 C253 0.930 1_554 S
H238 C254 0.931 1_554 S
C239 H227 0.929 . S
C239 C233 1.390 . S
C239 C236 1.386 . S
C240 C235 1.490 . S
C240 C242 1.395 1_554 S
C240 C243 1.403 . S
H241 C247 0.930 1_554 S
C242 H228 0.930 1_455 S
C242 C240 1.395 1_556 S
C242 C245 1.403 . S
C243 C240 1.403 . S
C243 C244 1.524 . S
C243 C247 1.397 1_554 S
C244 H229 0.960 . S
C244 H230 0.960 . S
C244 H231 0.960 . S
C244 C243 1.524 . S
C245 C242 1.403 . S
C245 C246 1.392 . S
C245 C249 1.495 1_455 S
C246 C245 1.392 . S
C246 C247 1.389 . S
C246 C248 1.478 . S
C247 H241 0.930 1_556 S
C247 C243 1.397 1_556 S
C247 C246 1.389 . S
C248 C246 1.478 . S
C248 C250 1.381 . S
C248 C254 1.383 . S
C249 C245 1.495 1_655 S
C249 H255 0.959 . S
C249 H256 0.961 . S
C249 H257 0.960 . S
C250 C248 1.381 . S
C250 C251 1.394 . S
C250 H258 0.930 . S
C251 C250 1.394 . S
C251 C252 1.383 . S
C251 H259 0.929 . S
C252 C251 1.383 . S
C252 C253 1.377 . S
C253 H237 0.930 1_556 S
C253 C252 1.377 . S
C253 C254 1.379 . S
C254 H238 0.931 1_556 S
C254 C248 1.383 . S
C254 C253 1.379 . S
H255 C249 0.959 . S
H256 C249 0.961 . S
H257 C249 0.960 . S
H258 C250 0.930 . S
H259 C251 0.929 . S
H260 C268 0.929 . S
H261 C270 0.930 . S
H262 C272 0.930 . S
H263 C275 0.929 . S
H264 C278 0.930 . S
H265 C280 0.960 . S
H266 C280 0.960 . S
H267 C280 0.960 . S
C268 H260 0.929 . S
C268 C269 1.377 . S
C268 C270 1.384 . S
C269 C268 1.377 . S
C269 C275 1.390 . S
C270 H261 0.930 . S
C270 C268 1.384 . S
C270 C271 1.372 . S
C271 C270 1.372 . S
C271 C272 1.400 . S
C271 C276 1.490 . S
C272 H262 0.930 . S
C272 C271 1.400 . S
C272 C275 1.386 . S
H273 C289 0.930 . S
H274 C290 0.931 . S
C275 H263 0.929 . S
C275 C269 1.390 . S
C275 C272 1.386 . S
C276 C271 1.490 . S
C276 C278 1.395 . S
C276 C279 1.403 . S
H277 C283 0.930 . S
C278 H264 0.930 . S
C278 C276 1.395 . S
C278 C281 1.403 . S
C279 C276 1.403 . S
C279 C280 1.524 . S
C279 C283 1.400 . S
C280 H265 0.960 . S
C280 H266 0.960 . S
C280 H267 0.960 . S
C280 C279 1.524 . S
C281 C278 1.403 . S
C281 C282 1.392 . S
C281 C285 1.495 1_545 S
C282 C281 1.392 . S
C282 C283 1.385 . S
C282 C284 1.478 . S
C283 H277 0.930 . S
C283 C279 1.400 . S
C283 C282 1.385 . S
C284 C282 1.478 . S
C284 C286 1.381 . S
C284 C290 1.383 . S
C285 C281 1.495 1_565 S
C285 H291 0.959 . S
C285 H292 0.961 . S
C285 H293 0.960 . S
C286 C284 1.381 . S
C286 C287 1.394 . S
C286 H294 0.930 . S
C287 C286 1.394 . S
C287 C288 1.383 . S
C287 H295 0.929 . S
C288 C287 1.383 . S
C288 C289 1.377 . S
C289 H273 0.930 . S
C289 C288 1.377 . S
C289 C290 1.379 . S
C290 H274 0.931 . S
C290 C284 1.383 . S
C290 C289 1.379 . S
H291 C285 0.959 . S
H292 C285 0.961 . S
H293 C285 0.960 . S
H294 C286 0.930 . S
H295 C287 0.929 . S
H296 C304 0.929 . S
H297 C306 0.930 . S
H298 C308 0.930 . S
H299 C311 0.929 . S
H300 C314 0.930 . S
H301 C316 0.960 . S
H302 C316 0.960 . S
H303 C316 0.960 . S
C304 H296 0.929 . S
C304 C305 1.377 . S
C304 C306 1.384 . S
C305 C304 1.377 . S
C305 C311 1.390 . S
C306 H297 0.930 . S
C306 C304 1.384 . S
C306 C307 1.372 . S
C307 C306 1.372 . S
C307 C308 1.400 . S
C307 C312 1.490 . S
C308 H298 0.930 . S
C308 C307 1.400 . S
C308 C311 1.386 . S
H309 C325 0.930 . S
H310 C326 0.931 . S
C311 H299 0.929 . S
C311 C305 1.390 . S
C311 C308 1.386 . S
C312 C307 1.490 . S
C312 C314 1.395 . S
C312 C315 1.403 1_554 S
H313 C319 0.930 . S
C314 H300 0.930 . S
C314 C312 1.395 . S
C314 C317 1.403 . S
C315 C312 1.403 1_556 S
C315 C316 1.524 . S
C315 C319 1.400 . S
C316 H301 0.960 . S
C316 H302 0.960 . S
C316 H303 0.960 . S
C316 C315 1.524 . S
C317 C314 1.403 . S
C317 C318 1.392 1_554 S
C317 C321 1.495 . S
C318 C317 1.392 1_556 S
C318 C319 1.385 . S
C318 C320 1.478 . S
C319 H313 0.930 . S
C319 C315 1.400 . S
C319 C318 1.385 . S
C320 C318 1.478 . S
C320 C322 1.381 . S
C320 C326 1.383 . S
C321 C317 1.495 . S
C321 H327 0.959 . S
C321 H328 0.961 . S
C321 H329 0.960 . S
C322 C320 1.381 . S
C322 C323 1.394 . S
C322 H330 0.930 . S
C323 C322 1.394 . S
C323 C324 1.383 . S
C323 H331 0.929 . S
C324 C323 1.383 . S
C324 C325 1.377 . S
C325 H309 0.930 . S
C325 C324 1.377 . S
C325 C326 1.379 . S
C326 H310 0.931 . S
C326 C320 1.383 . S
C326 C325 1.379 . S
H327 C321 0.959 . S
H328 C321 0.961 . S
H329 C321 0.960 . S
H330 C322 0.930 . S
H331 C323 0.929 . S
H332 C340 0.929 . S
H333 C342 0.930 . S
H334 C344 0.930 . S
H335 C347 0.929 . S
H336 C350 0.930 . S
H337 C352 0.960 . S
H338 C352 0.960 . S
H339 C352 0.960 . S
C340 H332 0.929 . S
C340 C341 1.377 . S
C340 C342 1.384 . S
C341 C340 1.377 . S
C341 C347 1.390 . S
C342 H333 0.930 . S
C342 C340 1.384 . S
C342 C343 1.372 . S
C343 C342 1.372 . S
C343 C344 1.400 . S
C343 C348 1.490 . S
C344 H334 0.930 . S
C344 C343 1.400 . S
C344 C347 1.386 . S
H345 C361 0.930 . S
H346 C362 0.931 . S
C347 H335 0.929 . S
C347 C341 1.390 . S
C347 C344 1.386 . S
C348 C343 1.490 . S
C348 C350 1.395 . S
C348 C351 1.403 . S
H349 C355 0.930 . S
C350 H336 0.930 . S
C350 C348 1.395 . S
C350 C353 1.403 . S
C351 C348 1.403 . S
C351 C352 1.524 . S
C351 C355 1.400 . S
C352 H337 0.960 . S
C352 H338 0.960 . S
C352 H339 0.960 . S
C352 C351 1.524 . S
C353 C350 1.403 . S
C353 C354 1.392 . S
C353 C357 1.495 . S
C354 C353 1.392 . S
C354 C355 1.385 . S
C354 C356 1.478 . S
C355 H349 0.930 . S
C355 C351 1.400 . S
C355 C354 1.385 . S
C356 C354 1.478 . S
C356 C358 1.381 . S
C356 C362 1.383 . S
C357 C353 1.495 . S
C357 H363 0.959 . S
C357 H364 0.961 . S
C357 H365 0.960 . S
C358 C356 1.381 . S
C358 C359 1.394 . S
C358 H366 0.930 . S
C359 C358 1.394 . S
C359 C360 1.383 . S
C359 H367 0.929 . S
C360 C359 1.383 . S
C360 C361 1.377 . S
C361 H345 0.930 . S
C361 C360 1.377 . S
C361 C362 1.379 . S
C362 H346 0.931 . S
C362 C356 1.383 . S
C362 C361 1.379 . S
H363 C357 0.959 . S
H364 C357 0.961 . S
H365 C357 0.960 . S
H366 C358 0.930 . S
H367 C359 0.929 . S
H368 C376 0.929 1_554 S
H369 C378 0.930 1_554 S
H370 C380 0.930 . S
H371 C383 0.929 . S
H372 C386 0.930 . S
H373 C388 0.960 . S
H374 C388 0.960 . S
H375 C388 0.960 . S
C376 H368 0.929 1_556 S
C376 C377 1.377 . S
C376 C378 1.384 . S
C377 C376 1.377 . S
C377 C383 1.390 . S
C378 H369 0.930 1_556 S
C378 C376 1.384 . S
C378 C379 1.372 . S
C379 C378 1.372 . S
C379 C380 1.400 . S
C379 C384 1.490 . S
C380 H370 0.930 . S
C380 C379 1.400 . S
C380 C383 1.386 . S
H381 C397 0.930 1_556 S
H382 C398 0.931 1_556 S
C383 H371 0.929 . S
C383 C377 1.390 . S
C383 C380 1.386 . S
C384 C379 1.490 . S
C384 C386 1.395 1_556 S
C384 C387 1.403 . S
H385 C391 0.930 . S
C386 H372 0.930 . S
C386 C384 1.395 1_554 S
C386 C389 1.403 . S
C387 C384 1.403 . S
C387 C388 1.524 1_655 S
C387 C391 1.400 . S
C388 H373 0.960 . S
C388 H374 0.960 . S
C388 H375 0.960 . S
C388 C387 1.524 1_455 S
C389 C386 1.403 . S
C389 C390 1.392 . S
C389 C393 1.495 . S
C390 C389 1.392 . S
C390 C391 1.385 1_554 S
C390 C392 1.478 . S
C391 H385 0.930 . S
C391 C387 1.400 . S
C391 C390 1.385 1_556 S
C392 C390 1.478 . S
C392 C394 1.381 . S
C392 C398 1.383 . S
C393 C389 1.495 . S
C393 H399 0.959 . S
C393 H400 0.961 . S
C393 H401 0.960 . S
C394 C392 1.381 . S
C394 C395 1.394 . S
C394 H402 0.930 . S
C395 C394 1.394 . S
C395 C396 1.383 . S
C395 H403 0.929 . S
C396 C395 1.383 . S
C396 C397 1.377 . S
C397 H381 0.930 1_554 S
C397 C396 1.377 . S
C397 C398 1.379 . S
C398 H382 0.931 1_554 S
C398 C392 1.383 . S
C398 C397 1.379 . S
H399 C393 0.959 . S
H400 C393 0.961 . S
H401 C393 0.960 . S
H402 C394 0.930 . S
H403 C395 0.929 . S
H404 C412 0.929 . S
H405 C414 0.930 . S
H406 C416 0.930 . S
H407 C419 0.929 . S
H408 C422 0.930 . S
H409 C424 0.965 . S
H410 C424 0.960 1_545 S
H411 C424 0.960 . S
C412 H404 0.929 . S
C412 C413 1.377 . S
C412 C414 1.384 . S
C413 C412 1.377 . S
C413 C419 1.390 . S
C414 H405 0.930 . S
C414 C412 1.384 . S
C414 C415 1.372 . S
C415 C414 1.372 . S
C415 C416 1.400 . S
C415 C420 1.490 . S
C416 H406 0.930 . S
C416 C415 1.400 . S
C416 C419 1.386 . S
H417 C433 0.930 . S
H418 C434 0.931 . S
C419 H407 0.929 . S
C419 C413 1.390 . S
C419 C416 1.386 . S
C420 C415 1.490 . S
C420 C422 1.395 . S
C420 C423 1.403 . S
H421 C427 0.930 . S
C422 H408 0.930 . S
C422 C420 1.395 . S
C422 C425 1.403 . S
C423 C420 1.403 . S
C423 C424 1.524 . S
C423 C427 1.400 . S
C424 H409 0.965 . S
C424 H410 0.960 1_565 S
C424 H411 0.960 . S
C424 C423 1.524 . S
C425 C422 1.403 . S
C425 C426 1.392 . S
C425 C429 1.495 . S
C426 C425 1.392 . S
C426 C427 1.385 . S
C426 C428 1.478 . S
C427 H421 0.930 . S
C427 C423 1.400 . S
C427 C426 1.385 . S
C428 C426 1.478 . S
C428 C430 1.381 . S
C428 C434 1.383 . S
C429 C425 1.495 . S
C429 H435 0.959 . S
C429 H436 0.961 . S
C429 H437 0.960 . S
C430 C428 1.381 . S
C430 C431 1.394 . S
C430 H438 0.930 . S
C431 C430 1.394 . S
C431 C432 1.383 . S
C431 H439 0.929 . S
C432 C431 1.383 . S
C432 C433 1.377 . S
C433 H417 0.930 . S
C433 C432 1.377 . S
C433 C434 1.379 . S
C434 H418 0.931 . S
C434 C428 1.383 . S
C434 C433 1.379 . S
H435 C429 0.959 . S
H436 C429 0.961 . S
H437 C429 0.960 . S
H438 C430 0.930 . S
H439 C431 0.929 . S
H440 C448 0.929 1_554 S
H441 C450 0.930 1_554 S
H442 C452 0.930 . S
H443 C455 0.929 . S
H444 C458 0.930 . S
H445 C460 0.960 . S
H446 C460 0.960 . S
H447 C460 0.960 . S
C448 H440 0.929 1_556 S
C448 C449 1.377 . S
C448 C450 1.384 . S
C449 C448 1.377 . S
C449 C455 1.390 . S
C450 H441 0.930 1_556 S
C450 C448 1.384 . S
C450 C451 1.372 . S
C451 C450 1.372 . S
C451 C452 1.400 . S
C451 C456 1.490 . S
C452 H442 0.930 . S
C452 C451 1.400 . S
C452 C455 1.386 . S
H453 C469 0.927 1_556 S
H454 C470 0.931 1_556 S
C455 H443 0.929 . S
C455 C449 1.390 . S
C455 C452 1.386 . S
C456 C451 1.490 . S
C456 C458 1.395 1_556 S
C456 C459 1.403 . S
H457 C463 0.930 . S
C458 H444 0.930 . S
C458 C456 1.395 1_554 S
C458 C461 1.403 . S
C459 C456 1.403 . S
C459 C460 1.524 . S
C459 C463 1.400 . S
C460 H445 0.960 . S
C460 H446 0.960 . S
C460 H447 0.960 . S
C460 C459 1.524 . S
C461 C458 1.403 . S
C461 C462 1.392 . S
C461 C465 1.495 . S
C462 C461 1.392 . S
C462 C463 1.385 1_554 S
C462 C464 1.478 . S
C463 H457 0.930 . S
C463 C459 1.400 . S
C463 C462 1.385 1_556 S
C464 C462 1.478 . S
C464 C466 1.381 . S
C464 C470 1.383 . S
C465 C461 1.495 . S
C465 H471 0.959 . S
C465 H472 0.961 . S
C465 H473 0.960 . S
C466 C464 1.381 . S
C466 C467 1.394 . S
C466 H474 0.930 . S
C467 C466 1.394 . S
C467 C468 1.383 . S
C467 H475 0.929 . S
C468 C467 1.383 . S
C468 C469 1.377 . S
C469 H453 0.927 1_554 S
C469 C468 1.377 . S
C469 C470 1.379 . S
C470 H454 0.931 1_554 S
C470 C464 1.383 . S
C470 C469 1.379 . S
H471 C465 0.959 . S
H472 C465 0.961 . S
H473 C465 0.960 . S
H474 C466 0.930 . S
H475 C467 0.929 . S
H476 C484 0.929 . S
H477 C486 0.930 . S
H478 C488 0.930 . S
H479 C491 0.929 . S
H480 C494 0.930 . S
H481 C496 0.960 . S
H482 C496 0.960 . S
H483 C496 0.960 . S
C484 H476 0.929 . S
C484 C485 1.377 . S
C484 C486 1.384 . S
C485 C484 1.377 . S
C485 C491 1.390 . S
C486 H477 0.930 . S
C486 C484 1.384 . S
C486 C487 1.372 . S
C487 C486 1.372 . S
C487 C488 1.400 . S
C487 C492 1.490 . S
C488 H478 0.930 . S
C488 C487 1.400 . S
C488 C491 1.386 . S
H489 C505 0.930 . S
H490 C506 0.931 . S
C491 H479 0.929 . S
C491 C485 1.390 . S
C491 C488 1.386 . S
C492 C487 1.490 . S
C492 C494 1.395 . S
C492 C495 1.403 . S
H493 C499 0.930 . S
C494 H480 0.930 . S
C494 C492 1.395 . S
C494 C497 1.403 . S
C495 C492 1.403 . S
C495 C496 1.524 . S
C495 C499 1.400 . S
C496 H481 0.960 . S
C496 H482 0.960 . S
C496 H483 0.960 . S
C496 C495 1.524 . S
C497 C494 1.403 . S
C497 C498 1.392 . S
C497 C501 1.495 . S
C498 C497 1.392 . S
C498 C499 1.385 . S
C498 C500 1.478 . S
C499 H493 0.930 . S
C499 C495 1.400 . S
C499 C498 1.385 . S
C500 C498 1.478 . S
C500 C502 1.381 . S
C500 C506 1.383 . S
C501 C497 1.495 . S
C501 H507 0.959 . S
C501 H508 0.961 . S
C501 H509 0.960 . S
C502 C500 1.381 . S
C502 C503 1.394 . S
C502 H510 0.930 . S
C503 C502 1.394 . S
C503 C504 1.383 . S
C503 H511 0.929 . S
C504 C503 1.383 . S
C504 C505 1.377 . S
C505 H489 0.930 . S
C505 C504 1.377 . S
C505 C506 1.379 . S
C506 H490 0.931 . S
C506 C500 1.383 . S
C506 C505 1.379 . S
H507 C501 0.959 . S
H508 C501 0.961 . S
H509 C501 0.960 . S
H510 C502 0.930 . S
H511 C503 0.929 . S
H512 C520 0.929 . S
H513 C522 0.930 . S
H514 C524 0.930 . S
H515 C527 0.929 . S
H516 C530 0.930 . S
H517 C532 0.960 . S
H518 C532 0.960 . S
H519 C532 0.960 . S
C520 H512 0.929 . S
C520 C521 1.377 . S
C520 C522 1.384 . S
C521 C520 1.377 . S
C521 C527 1.390 . S
C522 H513 0.930 . S
C522 C520 1.384 . S
C522 C523 1.372 . S
C523 C522 1.372 . S
C523 C524 1.400 . S
C523 C528 1.490 . S
C524 H514 0.930 . S
C524 C523 1.400 . S
C524 C527 1.386 . S
H525 C541 0.930 . S
H526 C542 0.931 . S
C527 H515 0.929 . S
C527 C521 1.390 . S
C527 C524 1.386 . S
C528 C523 1.490 . S
C528 C530 1.395 . S
C528 C531 1.403 . S
H529 C535 0.930 . S
C530 H516 0.930 . S
C530 C528 1.395 . S
C530 C533 1.403 . S
C531 C528 1.403 . S
C531 C532 1.524 . S
C531 C535 1.400 . S
C532 H517 0.960 . S
C532 H518 0.960 . S
C532 H519 0.960 . S
C532 C531 1.524 . S
C533 C530 1.403 . S
C533 C534 1.392 . S
C533 C537 1.495 . S
C534 C533 1.392 . S
C534 C535 1.385 . S
C534 C536 1.478 . S
C535 H529 0.930 . S
C535 C531 1.400 . S
C535 C534 1.385 . S
C536 C534 1.478 . S
C536 C538 1.381 . S
C536 C542 1.383 . S
C537 C533 1.495 . S
C537 H543 0.959 . S
C537 H544 0.961 . S
C537 H545 0.960 . S
C538 C536 1.381 . S
C538 C539 1.394 . S
C538 H546 0.930 . S
C539 C538 1.394 . S
C539 C540 1.383 . S
C539 H547 0.929 . S
C540 C539 1.383 . S
C540 C541 1.377 . S
C541 H525 0.930 . S
C541 C540 1.377 . S
C541 C542 1.379 . S
C542 H526 0.931 . S
C542 C536 1.383 . S
C542 C541 1.379 . S
H543 C537 0.959 . S
H544 C537 0.961 . S
H545 C537 0.960 . S
H546 C538 0.930 . S
H547 C539 0.929 . S
H548 C556 0.929 . S
H549 C558 0.930 . S
H550 C560 0.930 . S
H551 C563 0.929 . S
H552 C566 0.930 . S
H553 C568 0.960 . S
H554 C568 0.960 . S
H555 C568 0.960 . S
C556 H548 0.929 . S
C556 C557 1.377 . S
C556 C558 1.384 . S
C557 C556 1.377 . S
C557 C563 1.390 . S
C558 H549 0.930 . S
C558 C556 1.384 . S
C558 C559 1.372 . S
C559 C558 1.372 . S
C559 C560 1.400 . S
C559 C564 1.490 . S
C560 H550 0.930 . S
C560 C559 1.400 . S
C560 C563 1.386 . S
H561 C577 0.930 . S
H562 C578 0.931 . S
C563 H551 0.929 . S
C563 C557 1.390 . S
C563 C560 1.386 . S
C564 C559 1.490 . S
C564 C566 1.395 . S
C564 C567 1.403 . S
H565 C571 0.930 . S
C566 H552 0.930 . S
C566 C564 1.395 . S
C566 C569 1.403 . S
C567 C564 1.403 . S
C567 C568 1.524 . S
C567 C571 1.400 . S
C568 H553 0.960 . S
C568 H554 0.960 . S
C568 H555 0.960 . S
C568 C567 1.524 . S
C569 C566 1.403 . S
C569 C570 1.392 . S
C569 C573 1.495 . S
C570 C569 1.392 . S
C570 C571 1.385 . S
C570 C572 1.478 . S
C571 H565 0.930 . S
C571 C567 1.400 . S
C571 C570 1.385 . S
C572 C570 1.478 . S
C572 C574 1.381 . S
C572 C578 1.383 . S
C573 C569 1.495 . S
C573 H579 0.959 . S
C573 H580 0.961 . S
C573 H581 0.960 . S
C574 C572 1.381 . S
C574 C575 1.394 . S
C574 H582 0.930 . S
C575 C574 1.394 . S
C575 C576 1.383 . S
C575 H583 0.929 . S
C576 C575 1.383 . S
C576 C577 1.377 . S
C577 H561 0.930 . S
C577 C576 1.377 . S
C577 C578 1.379 . S
C578 H562 0.931 . S
C578 C572 1.383 . S
C578 C577 1.379 . S
H579 C573 0.959 . S
H580 C573 0.961 . S
H581 C573 0.960 . S
H582 C574 0.930 . S
H583 C575 0.929 . S
H584 C592 0.929 . S
H585 C594 0.930 . S
H586 C596 0.930 . S
H587 C599 0.929 . S
H588 C602 0.930 . S
H589 C604 0.960 . S
H590 C604 0.960 . S
H591 C604 0.960 . S
C592 H584 0.929 . S
C592 C593 1.377 . S
C592 C594 1.384 . S
C593 C592 1.377 . S
C593 C599 1.390 . S
C594 H585 0.930 . S
C594 C592 1.384 . S
C594 C595 1.372 . S
C595 C594 1.372 . S
C595 C596 1.400 . S
C595 C600 1.490 . S
C596 H586 0.930 . S
C596 C595 1.400 . S
C596 C599 1.386 . S
H597 C613 0.930 . S
H598 C614 0.931 . S
C599 H587 0.929 . S
C599 C593 1.390 . S
C599 C596 1.386 . S
C600 C595 1.490 . S
C600 C602 1.395 . S
C600 C603 1.403 . S
H601 C607 0.930 . S
C602 H588 0.930 . S
C602 C600 1.395 . S
C602 C605 1.403 . S
C603 C600 1.403 . S
C603 C604 1.524 . S
C603 C607 1.400 . S
C604 H589 0.960 . S
C604 H590 0.960 . S
C604 H591 0.960 . S
C604 C603 1.524 . S
C605 C602 1.403 . S
C605 C606 1.392 . S
C605 C609 1.495 . S
C606 C605 1.392 . S
C606 C607 1.385 . S
C606 C608 1.478 . S
C607 H601 0.930 . S
C607 C603 1.400 . S
C607 C606 1.385 . S
C608 C606 1.478 . S
C608 C610 1.381 . S
C608 C614 1.383 . S
C609 C605 1.495 . S
C609 H615 0.959 . S
C609 H616 0.961 . S
C609 H617 0.960 . S
C610 C608 1.381 . S
C610 C611 1.394 . S
C610 H618 0.930 . S
C611 C610 1.394 . S
C611 C612 1.383 . S
C611 H619 0.929 . S
C612 C611 1.383 . S
C612 C613 1.377 . S
C613 H597 0.930 . S
C613 C612 1.377 . S
C613 C614 1.379 . S
C614 H598 0.931 . S
C614 C608 1.383 . S
C614 C613 1.379 . S
H615 C609 0.959 . S
H616 C609 0.961 . S
H617 C609 0.960 . S
H618 C610 0.930 . S
H619 C611 0.929 . S
H620 C628 0.929 . S
H621 C630 0.930 . S
H622 C632 0.930 . S
H623 C635 0.929 . S
H624 C638 0.930 . S
H625 C640 0.960 . S
H626 C640 0.960 . S
H627 C640 0.960 . S
C628 H620 0.929 . S
C628 C629 1.377 . S
C628 C630 1.384 . S
C629 C628 1.377 . S
C629 C635 1.390 . S
C630 H621 0.930 . S
C630 C628 1.384 . S
C630 C631 1.372 . S
C631 C630 1.372 . S
C631 C632 1.400 . S
C631 C636 1.490 . S
C632 H622 0.930 . S
C632 C631 1.400 . S
C632 C635 1.386 . S
H633 C649 0.930 . S
H634 C650 0.931 . S
C635 H623 0.929 . S
C635 C629 1.390 . S
C635 C632 1.386 . S
C636 C631 1.490 . S
C636 C638 1.395 . S
C636 C639 1.403 . S
H637 C643 0.930 . S
C638 H624 0.930 . S
C638 C636 1.395 . S
C638 C641 1.403 . S
C639 C636 1.403 . S
C639 C640 1.524 . S
C639 C643 1.400 . S
C640 H625 0.960 . S
C640 H626 0.960 . S
C640 H627 0.960 . S
C640 C639 1.524 . S
C641 C638 1.403 . S
C641 C642 1.392 . S
C641 C645 1.495 . S
C642 C641 1.392 . S
C642 C643 1.385 . S
C642 C644 1.478 . S
C643 H637 0.930 . S
C643 C639 1.400 . S
C643 C642 1.385 . S
C644 C642 1.478 . S
C644 C646 1.381 . S
C644 C650 1.383 . S
C645 C641 1.495 . S
C645 H651 0.959 . S
C645 H652 0.961 . S
C645 H653 0.960 . S
C646 C644 1.381 . S
C646 C647 1.394 . S
C646 H654 0.930 . S
C647 C646 1.394 . S
C647 C648 1.383 . S
C647 H655 0.929 . S
C648 C647 1.383 . S
C648 C649 1.377 . S
C649 H633 0.930 . S
C649 C648 1.377 . S
C649 C650 1.379 . S
C650 H634 0.931 . S
C650 C644 1.383 . S
C650 C649 1.379 . S
H651 C645 0.959 . S
H652 C645 0.961 . S
H653 C645 0.960 . S
H654 C646 0.930 . S
H655 C647 0.929 . S
H656 C664 0.929 . S
H657 C666 0.930 . S
H658 C668 0.930 . S
H659 C671 0.929 . S
H660 C674 0.930 . S
H661 C676 0.960 . S
H662 C676 0.960 . S
H663 C676 0.960 . S
C664 H656 0.929 . S
C664 C665 1.377 . S
C664 C666 1.384 . S
C665 C664 1.377 . S
C665 C671 1.390 . S
C666 H657 0.930 . S
C666 C664 1.384 . S
C666 C667 1.372 . S
C667 C666 1.372 . S
C667 C668 1.400 . S
C667 C672 1.490 . S
C668 H658 0.930 . S
C668 C667 1.400 . S
C668 C671 1.386 . S
H669 C685 0.930 . S
H670 C686 0.931 . S
C671 H659 0.929 . S
C671 C665 1.390 . S
C671 C668 1.386 . S
C672 C667 1.490 . S
C672 C674 1.395 . S
C672 C675 1.403 . S
H673 C679 0.930 . S
C674 H660 0.930 . S
C674 C672 1.395 . S
C674 C677 1.403 . S
C675 C672 1.403 . S
C675 C676 1.524 . S
C675 C679 1.400 . S
C676 H661 0.960 . S
C676 H662 0.960 . S
C676 H663 0.960 . S
C676 C675 1.524 . S
C677 C674 1.403 . S
C677 C678 1.392 . S
C677 C681 1.495 . S
C678 C677 1.392 . S
C678 C679 1.385 . S
C678 C680 1.478 . S
C679 H673 0.930 . S
C679 C675 1.400 . S
C679 C678 1.385 . S
C680 C678 1.478 . S
C680 C682 1.381 . S
C680 C686 1.383 . S
C681 C677 1.495 . S
C681 H687 0.959 . S
C681 H688 0.961 . S
C681 H689 0.960 . S
C682 C680 1.381 . S
C682 C683 1.394 . S
C682 H690 0.930 . S
C683 C682 1.394 . S
C683 C684 1.383 . S
C683 H691 0.929 1_554 S
C684 C683 1.383 . S
C684 C685 1.377 . S
C685 H669 0.930 . S
C685 C684 1.377 . S
C685 C686 1.379 . S
C686 H670 0.931 . S
C686 C680 1.383 . S
C686 C685 1.379 . S
H687 C681 0.959 . S
H688 C681 0.961 . S
H689 C681 0.960 . S
H690 C682 0.930 . S
H691 C683 0.929 1_556 S
H692 C700 0.929 . S
H693 C702 0.930 . S
H694 C704 0.930 . S
H695 C707 0.929 . S
H696 C710 0.930 . S
H697 C712 0.960 . S
H698 C712 0.960 . S
H699 C712 0.960 . S
C700 H692 0.929 . S
C700 C701 1.377 . S
C700 C702 1.384 . S
C701 C700 1.377 . S
C701 C707 1.390 . S
C702 H693 0.930 . S
C702 C700 1.384 . S
C702 C703 1.372 . S
C703 C702 1.372 . S
C703 C704 1.400 . S
C703 C708 1.490 . S
C704 H694 0.930 . S
C704 C703 1.400 . S
C704 C707 1.386 . S
H705 C721 0.930 . S
H706 C722 0.931 . S
C707 H695 0.929 . S
C707 C701 1.390 . S
C707 C704 1.386 . S
C708 C703 1.490 . S
C708 C710 1.395 . S
C708 C711 1.403 . S
H709 C715 0.930 . S
C710 H696 0.930 . S
C710 C708 1.395 . S
C710 C713 1.403 . S
C711 C708 1.403 . S
C711 C712 1.524 . S
C711 C715 1.400 . S
C712 H697 0.960 . S
C712 H698 0.960 . S
C712 H699 0.960 . S
C712 C711 1.524 . S
C713 C710 1.403 . S
C713 C714 1.392 . S
C713 C717 1.495 . S
C714 C713 1.392 . S
C714 C715 1.385 . S
C714 C716 1.478 . S
C715 H709 0.930 . S
C715 C711 1.400 . S
C715 C714 1.385 . S
C716 C714 1.478 . S
C716 C718 1.381 . S
C716 C722 1.383 . S
C717 C713 1.495 . S
C717 H723 0.959 . S
C717 H724 0.961 . S
C717 H725 0.960 . S
C718 C716 1.381 . S
C718 C719 1.394 . S
C718 H726 0.930 . S
C719 C718 1.394 . S
C719 C720 1.383 . S
C719 H727 0.929 . S
C720 C719 1.383 . S
C720 C721 1.377 . S
C721 H705 0.930 . S
C721 C720 1.377 . S
C721 C722 1.379 . S
C722 H706 0.931 . S
C722 C716 1.383 . S
C722 C721 1.379 . S
H723 C717 0.959 . S
H724 C717 0.961 . S
H725 C717 0.960 . S
H726 C718 0.930 . S
H727 C719 0.929 . S
H728 C736 0.929 . S
H729 C738 0.930 . S
H730 C740 0.930 . S
H731 C743 0.929 . S
H732 C746 0.930 . S
H733 C748 0.960 . S
H734 C748 0.960 . S
H735 C748 0.960 . S
C736 H728 0.929 . S
C736 C737 1.377 . S
C736 C738 1.384 . S
C737 C736 1.377 . S
C737 C743 1.390 . S
C738 H729 0.930 . S
C738 C736 1.384 . S
C738 C739 1.372 . S
C739 C738 1.372 . S
C739 C740 1.400 . S
C739 C744 1.490 . S
C740 H730 0.930 . S
C740 C739 1.400 . S
C740 C743 1.386 . S
H741 C757 0.930 . S
H742 C758 0.931 . S
C743 H731 0.929 . S
C743 C737 1.390 . S
C743 C740 1.386 . S
C744 C739 1.490 . S
C744 C746 1.395 . S
C744 C747 1.403 . S
H745 C751 0.930 . S
C746 H732 0.930 . S
C746 C744 1.395 . S
C746 C749 1.403 . S
C747 C744 1.403 . S
C747 C748 1.524 . S
C747 C751 1.400 . S
C748 H733 0.960 . S
C748 H734 0.960 . S
C748 H735 0.960 . S
C748 C747 1.524 . S
C749 C746 1.403 . S
C749 C750 1.392 . S
C749 C753 1.495 . S
C750 C749 1.392 . S
C750 C751 1.385 . S
C750 C752 1.478 . S
C751 H745 0.930 . S
C751 C747 1.400 . S
C751 C750 1.385 . S
C752 C750 1.478 . S
C752 C754 1.381 . S
C752 C758 1.383 . S
C753 C749 1.495 . S
C753 H759 0.959 . S
C753 H760 0.961 . S
C753 H761 0.960 . S
C754 C752 1.381 . S
C754 C755 1.394 . S
C754 H762 0.930 . S
C755 C754 1.394 . S
C755 C756 1.383 . S
C755 H763 0.929 . S
C756 C755 1.383 . S
C756 C757 1.377 . S
C757 H741 0.930 . S
C757 C756 1.377 . S
C757 C758 1.379 . S
C758 H742 0.931 . S
C758 C752 1.383 . S
C758 C757 1.379 . S
H759 C753 0.959 . S
H760 C753 0.961 . S
H761 C753 0.960 . S
H762 C754 0.930 . S
H763 C755 0.929 . S
H764 C772 0.929 . S
H765 C774 0.930 . S
H766 C776 0.930 . S
H767 C779 0.929 . S
H768 C782 0.930 . S
H769 C784 0.960 . S
H770 C784 0.960 . S
H771 C784 0.960 . S
C772 H764 0.929 . S
C772 C773 1.377 . S
C772 C774 1.384 . S
C773 C772 1.377 . S
C773 C779 1.390 . S
C774 H765 0.930 . S
C774 C772 1.384 . S
C774 C775 1.372 . S
C775 C774 1.372 . S
C775 C776 1.400 . S
C775 C780 1.490 . S
C776 H766 0.930 . S
C776 C775 1.400 . S
C776 C779 1.386 . S
H777 C793 0.930 . S
H778 C794 0.931 . S
C779 H767 0.929 . S
C779 C773 1.390 . S
C779 C776 1.386 . S
C780 C775 1.490 . S
C780 C782 1.395 . S
C780 C783 1.403 . S
H781 C787 0.930 . S
C782 H768 0.930 . S
C782 C780 1.395 . S
C782 C785 1.403 . S
C783 C780 1.403 . S
C783 C784 1.524 . S
C783 C787 1.400 . S
C784 H769 0.960 . S
C784 H770 0.960 . S
C784 H771 0.960 . S
C784 C783 1.524 . S
C785 C782 1.403 . S
C785 C786 1.392 . S
C785 C789 1.495 . S
C786 C785 1.392 . S
C786 C787 1.385 . S
C786 C788 1.478 . S
C787 H781 0.930 . S
C787 C783 1.400 . S
C787 C786 1.385 . S
C788 C786 1.478 . S
C788 C790 1.381 . S
C788 C794 1.383 . S
C789 C785 1.495 . S
C789 H795 0.959 . S
C789 H796 0.961 . S
C789 H797 0.960 . S
C790 C788 1.381 . S
C790 C791 1.394 . S
C790 H798 0.930 . S
C791 C790 1.394 . S
C791 C792 1.383 . S
C791 H799 0.929 . S
C792 C791 1.383 . S
C792 C793 1.377 . S
C793 H777 0.930 . S
C793 C792 1.377 . S
C793 C794 1.379 . S
C794 H778 0.931 . S
C794 C788 1.383 . S
C794 C793 1.379 . S
H795 C789 0.959 . S
H796 C789 0.961 . S
H797 C789 0.960 . S
H798 C790 0.930 . S
H799 C791 0.929 . S
H800 C808 0.929 . S
H801 C810 0.930 . S
H802 C812 0.930 . S
H803 C815 0.929 1_556 S
H804 C818 0.930 . S
H805 C820 0.960 . S
H806 C820 0.960 . S
H807 C820 0.960 . S
C808 H800 0.929 . S
C808 C809 1.377 . S
C808 C810 1.384 . S
C809 C808 1.377 . S
C809 C815 1.390 . S
C810 H801 0.930 . S
C810 C808 1.384 . S
C810 C811 1.372 . S
C811 C810 1.372 . S
C811 C812 1.400 . S
C811 C816 1.490 . S
C812 H802 0.930 . S
C812 C811 1.400 . S
C812 C815 1.386 . S
H813 C829 0.930 . S
H814 C830 0.931 . S
C815 H803 0.929 1_554 S
C815 C809 1.390 . S
C815 C812 1.386 . S
C816 C811 1.490 . S
C816 C818 1.395 . S
C816 C819 1.403 . S
H817 C823 0.930 . S
C818 H804 0.930 . S
C818 C816 1.395 . S
C818 C821 1.403 . S
C819 C816 1.403 . S
C819 C820 1.524 . S
C819 C823 1.400 . S
C820 H805 0.960 . S
C820 H806 0.960 . S
C820 H807 0.960 . S
C820 C819 1.524 . S
C821 C818 1.403 . S
C821 C822 1.392 . S
C821 C825 1.495 . S
C822 C821 1.392 . S
C822 C823 1.385 . S
C822 C824 1.478 . S
C823 H817 0.930 . S
C823 C819 1.400 . S
C823 C822 1.385 . S
C824 C822 1.478 . S
C824 C826 1.381 . S
C824 C830 1.383 . S
C825 C821 1.495 . S
C825 H831 0.959 . S
C825 H832 0.961 . S
C825 H833 0.960 . S
C826 C824 1.381 . S
C826 C827 1.394 . S
C826 H834 0.930 . S
C827 C826 1.394 . S
C827 C828 1.383 . S
C827 H835 0.929 . S
C828 C827 1.383 . S
C828 C829 1.377 . S
C829 H813 0.930 . S
C829 C828 1.377 . S
C829 C830 1.379 . S
C830 H814 0.931 . S
C830 C824 1.383 . S
C830 C829 1.379 . S
H831 C825 0.959 . S
H832 C825 0.961 . S
H833 C825 0.960 . S
H834 C826 0.930 . S
H835 C827 0.929 . S
H836 C844 0.929 . S
H837 C846 0.930 . S
H838 C848 0.930 . S
H839 C851 0.929 . S
H840 C854 0.930 . S
H841 C856 0.960 . S
H842 C856 0.960 . S
H843 C856 0.960 . S
C844 H836 0.929 . S
C844 C845 1.377 . S
C844 C846 1.384 . S
C845 C844 1.377 . S
C845 C851 1.390 . S
C846 H837 0.930 . S
C846 C844 1.384 . S
C846 C847 1.372 . S
C847 C846 1.372 . S
C847 C848 1.400 . S
C847 C852 1.490 . S
C848 H838 0.930 . S
C848 C847 1.400 . S
C848 C851 1.386 . S
H849 C865 0.930 . S
H850 C866 0.931 . S
C851 H839 0.929 . S
C851 C845 1.390 . S
C851 C848 1.386 . S
C852 C847 1.490 . S
C852 C854 1.395 . S
C852 C855 1.403 . S
H853 C859 0.930 . S
C854 H840 0.930 . S
C854 C852 1.395 . S
C854 C857 1.403 . S
C855 C852 1.403 . S
C855 C856 1.524 . S
C855 C859 1.400 . S
C856 H841 0.960 . S
C856 H842 0.960 . S
C856 H843 0.960 . S
C856 C855 1.524 . S
C857 C854 1.403 . S
C857 C858 1.392 . S
C857 C861 1.495 . S
C858 C857 1.392 . S
C858 C859 1.385 . S
C858 C860 1.478 . S
C859 H853 0.930 . S
C859 C855 1.400 . S
C859 C858 1.385 . S
C860 C858 1.478 . S
C860 C862 1.381 . S
C860 C866 1.383 . S
C861 C857 1.495 . S
C861 H867 0.959 . S
C861 H868 0.961 . S
C861 H869 0.960 . S
C862 C860 1.381 . S
C862 C863 1.394 . S
C862 H870 0.930 . S
C863 C862 1.394 . S
C863 C864 1.383 . S
C863 H871 0.929 . S
C864 C863 1.383 . S
C864 C865 1.377 . S
C865 H849 0.930 . S
C865 C864 1.377 . S
C865 C866 1.379 . S
C866 H850 0.931 . S
C866 C860 1.383 . S
C866 C865 1.379 . S
H867 C861 0.959 . S
H868 C861 0.961 . S
H869 C861 0.960 . S
H870 C862 0.930 . S
H871 C863 0.929 . S
H872 C880 0.929 . S
H873 C882 0.930 . S
H874 C884 0.930 . S
H875 C887 0.929 . S
H876 C890 0.930 . S
H877 C892 0.960 . S
H878 C892 0.960 . S
H879 C892 0.960 . S
C880 H872 0.929 . S
C880 C881 1.377 . S
C880 C882 1.384 . S
C881 C880 1.377 . S
C881 C887 1.390 . S
C882 H873 0.930 . S
C882 C880 1.384 . S
C882 C883 1.372 . S
C883 C882 1.372 . S
C883 C884 1.400 . S
C883 C888 1.490 . S
C884 H874 0.930 . S
C884 C883 1.400 . S
C884 C887 1.386 . S
H885 C901 0.930 1_556 S
H886 C902 0.931 . S
C887 H875 0.929 . S
C887 C881 1.390 . S
C887 C884 1.386 . S
C888 C883 1.490 . S
C888 C890 1.395 . S
C888 C891 1.403 . S
H889 C895 0.930 . S
C890 H876 0.930 . S
C890 C888 1.395 . S
C890 C893 1.403 . S
C891 C888 1.403 . S
C891 C892 1.524 . S
C891 C895 1.400 . S
C892 H877 0.960 . S
C892 H878 0.960 . S
C892 H879 0.960 . S
C892 C891 1.524 . S
C893 C890 1.403 . S
C893 C894 1.392 . S
C893 C897 1.495 . S
C894 C893 1.392 . S
C894 C895 1.385 . S
C894 C896 1.478 . S
C895 H889 0.930 . S
C895 C891 1.400 . S
C895 C894 1.385 . S
C896 C894 1.478 . S
C896 C898 1.381 . S
C896 C902 1.383 . S
C897 C893 1.495 . S
C897 H903 0.959 . S
C897 H904 0.961 . S
C897 H905 0.960 . S
C898 C896 1.381 . S
C898 C899 1.394 . S
C898 H906 0.930 . S
C899 C898 1.394 . S
C899 C900 1.383 . S
C899 H907 0.929 . S
C900 C899 1.383 . S
C900 C901 1.377 . S
C901 H885 0.930 1_554 S
C901 C900 1.377 . S
C901 C902 1.379 . S
C902 H886 0.931 . S
C902 C896 1.383 . S
C902 C901 1.379 . S
H903 C897 0.959 . S
H904 C897 0.961 . S
H905 C897 0.960 . S
H906 C898 0.930 . S
H907 C899 0.929 . S
H908 C916 0.929 . S
H909 C918 0.930 . S
H910 C920 0.930 . S
H911 C923 0.929 . S
H912 C926 0.930 . S
H913 C928 0.960 . S
H914 C928 0.960 . S
H915 C928 0.960 . S
C916 H908 0.929 . S
C916 C917 1.377 . S
C916 C918 1.384 . S
C917 C916 1.377 . S
C917 C923 1.390 . S
C918 H909 0.930 . S
C918 C916 1.384 . S
C918 C919 1.372 . S
C919 C918 1.372 . S
C919 C920 1.400 . S
C919 C924 1.490 . S
C920 H910 0.930 . S
C920 C919 1.400 . S
C920 C923 1.386 . S
H921 C937 0.930 . S
H922 C938 0.931 . S
C923 H911 0.929 . S
C923 C917 1.390 . S
C923 C920 1.386 . S
C924 C919 1.490 . S
C924 C926 1.395 . S
C924 C927 1.403 . S
H925 C931 0.930 . S
C926 H912 0.930 . S
C926 C924 1.395 . S
C926 C929 1.403 . S
C927 C924 1.403 . S
C927 C928 1.524 . S
C927 C931 1.400 . S
C928 H913 0.960 . S
C928 H914 0.960 . S
C928 H915 0.960 . S
C928 C927 1.524 . S
C929 C926 1.403 . S
C929 C930 1.392 . S
C929 C933 1.495 . S
C930 C929 1.392 . S
C930 C931 1.385 . S
C930 C932 1.478 . S
C931 H925 0.930 . S
C931 C927 1.400 . S
C931 C930 1.385 . S
C932 C930 1.478 . S
C932 C934 1.381 . S
C932 C938 1.383 . S
C933 C929 1.495 . S
C933 H939 0.959 . S
C933 H940 0.961 . S
C933 H941 0.960 . S
C934 C932 1.381 . S
C934 C935 1.394 . S
C934 H942 0.930 . S
C935 C934 1.394 . S
C935 C936 1.383 . S
C935 H943 0.929 . S
C936 C935 1.383 . S
C936 C937 1.377 . S
C937 H921 0.930 . S
C937 C936 1.377 . S
C937 C938 1.379 . S
C938 H922 0.931 . S
C938 C932 1.383 . S
C938 C937 1.379 . S
H939 C933 0.959 . S
H940 C933 0.961 . S
H941 C933 0.960 . S
H942 C934 0.930 . S
H943 C935 0.929 . S
H944 C952 0.929 . S
H945 C954 0.930 . S
H946 C956 0.930 . S
H947 C959 0.929 . S
H948 C962 0.930 . S
H949 C964 0.960 . S
H950 C964 0.960 . S
H951 C964 0.960 . S
C952 H944 0.929 . S
C952 C953 1.377 . S
C952 C954 1.384 . S
C953 C952 1.377 . S
C953 C959 1.390 . S
C954 H945 0.930 . S
C954 C952 1.384 . S
C954 C955 1.372 . S
C955 C954 1.372 . S
C955 C956 1.400 . S
C955 C960 1.490 . S
C956 H946 0.930 . S
C956 C955 1.400 . S
C956 C959 1.386 . S
H957 C973 0.930 1_554 S
H958 C974 0.931 . S
C959 H947 0.929 . S
C959 C953 1.390 . S
C959 C956 1.386 . S
C960 C955 1.490 . S
C960 C962 1.395 . S
C960 C963 1.403 . S
H961 C967 0.930 . S
C962 H948 0.930 . S
C962 C960 1.395 . S
C962 C965 1.403 . S
C963 C960 1.403 . S
C963 C964 1.524 . S
C963 C967 1.400 . S
C964 H949 0.960 . S
C964 H950 0.960 . S
C964 H951 0.960 . S
C964 C963 1.524 . S
C965 C962 1.403 . S
C965 C966 1.392 . S
C965 C969 1.495 . S
C966 C965 1.392 . S
C966 C967 1.385 . S
C966 C968 1.478 . S
C967 H961 0.930 . S
C967 C963 1.400 . S
C967 C966 1.385 . S
C968 C966 1.478 . S
C968 C970 1.381 . S
C968 C974 1.383 . S
C969 C965 1.495 . S
C969 H975 0.959 . S
C969 H976 0.961 . S
C969 H977 0.960 . S
C970 C968 1.381 . S
C970 C971 1.394 . S
C970 H978 0.930 . S
C971 C970 1.394 . S
C971 C972 1.383 . S
C971 H979 0.929 . S
C972 C971 1.383 . S
C972 C973 1.377 . S
C973 H957 0.930 1_556 S
C973 C972 1.377 . S
C973 C974 1.379 . S
C974 H958 0.931 . S
C974 C968 1.383 . S
C974 C973 1.379 . S
H975 C969 0.959 . S
H976 C969 0.961 . S
H977 C969 0.960 . S
H978 C970 0.930 . S
H979 C971 0.929 . S
H980 C988 0.929 . S
H981 C990 0.930 . S
H982 C992 0.930 . S
H983 C995 0.929 . S
H984 C998 0.930 . S
H985 C1000 0.960 . S
H986 C1000 0.960 . S
H987 C1000 0.960 . S
C988 H980 0.929 . S
C988 C989 1.377 . S
C988 C990 1.384 . S
C989 C988 1.377 . S
C989 C995 1.390 . S
C990 H981 0.930 . S
C990 C988 1.384 . S
C990 C991 1.372 . S
C991 C990 1.372 . S
C991 C992 1.400 . S
C991 C996 1.490 . S
C992 H982 0.930 . S
C992 C991 1.400 . S
C992 C995 1.386 . S
H993 C1009 0.930 . S
H994 C1010 0.931 . S
C995 H983 0.929 . S
C995 C989 1.390 . S
C995 C992 1.386 . S
C996 C991 1.490 . S
C996 C998 1.395 . S
C996 C999 1.403 . S
H997 C1003 0.930 . S
C998 H984 0.930 . S
C998 C996 1.395 . S
C998 C1001 1.403 . S
C999 C996 1.403 . S
C999 C1000 1.524 . S
C999 C1003 1.400 . S
C1000 H985 0.960 . S
C1000 H986 0.960 . S
C1000 H987 0.960 . S
C1000 C999 1.524 . S
C1001 C998 1.403 . S
C1001 C1002 1.392 . S
C1001 C1005 1.495 . S
C1002 C1001 1.392 . S
C1002 C1003 1.385 . S
C1002 C1004 1.478 . S
C1003 H997 0.930 . S
C1003 C999 1.400 . S
C1003 C1002 1.385 . S
C1004 C1002 1.478 . S
C1004 C1006 1.381 . S
C1004 C1010 1.383 . S
C1005 C1001 1.495 . S
C1005 H1011 0.959 . S
C1005 H1012 0.961 . S
C1005 H1013 0.960 . S
C1006 C1004 1.381 . S
C1006 C1007 1.394 . S
C1006 H1014 0.930 . S
C1007 C1006 1.394 . S
C1007 C1008 1.383 . S
C1007 H1015 0.929 . S
C1008 C1007 1.383 . S
C1008 C1009 1.377 . S
C1009 H993 0.930 . S
C1009 C1008 1.377 . S
C1009 C1010 1.379 . S
C1010 H994 0.931 . S
C1010 C1004 1.383 . S
C1010 C1009 1.379 . S
H1011 C1005 0.959 . S
H1012 C1005 0.961 . S
H1013 C1005 0.960 . S
H1014 C1006 0.930 . S
H1015 C1007 0.929 . S
H1016 C1024 0.929 . S
H1017 C1026 0.930 . S
H1018 C1028 0.930 . S
H1019 C1031 0.929 1_554 S
H1020 C1034 0.930 . S
H1021 C1036 0.960 . S
H1022 C1036 0.960 . S
H1023 C1036 0.960 . S
C1024 H1016 0.929 . S
C1024 C1025 1.377 . S
C1024 C1026 1.384 . S
C1025 C1024 1.377 . S
C1025 C1031 1.390 . S
C1026 H1017 0.930 . S
C1026 C1024 1.384 . S
C1026 C1027 1.372 . S
C1027 C1026 1.372 . S
C1027 C1028 1.400 . S
C1027 C1032 1.490 . S
C1028 H1018 0.930 . S
C1028 C1027 1.400 . S
C1028 C1031 1.386 . S
H1029 C1045 0.930 . S
H1030 C1046 0.931 . S
C1031 H1019 0.929 1_556 S
C1031 C1025 1.390 . S
C1031 C1028 1.386 . S
C1032 C1027 1.490 . S
C1032 C1034 1.395 . S
C1032 C1035 1.403 . S
H1033 C1039 0.930 . S
C1034 H1020 0.930 . S
C1034 C1032 1.395 . S
C1034 C1037 1.403 . S
C1035 C1032 1.403 . S
C1035 C1036 1.524 . S
C1035 C1039 1.400 . S
C1036 H1021 0.960 . S
C1036 H1022 0.960 . S
C1036 H1023 0.960 . S
C1036 C1035 1.524 . S
C1037 C1034 1.403 . S
C1037 C1038 1.392 . S
C1037 C1041 1.495 . S
C1038 C1037 1.392 . S
C1038 C1039 1.385 . S
C1038 C1040 1.478 . S
C1039 H1033 0.930 . S
C1039 C1035 1.400 . S
C1039 C1038 1.385 . S
C1040 C1038 1.478 . S
C1040 C1042 1.381 . S
C1040 C1046 1.383 . S
C1041 C1037 1.495 . S
C1041 H1047 0.959 . S
C1041 H1048 0.961 . S
C1041 H1049 0.960 . S
C1042 C1040 1.381 . S
C1042 C1043 1.394 . S
C1042 H1050 0.930 . S
C1043 C1042 1.394 . S
C1043 C1044 1.383 . S
C1043 H1051 0.929 . S
C1044 C1043 1.383 . S
C1044 C1045 1.377 . S
C1045 H1029 0.930 . S
C1045 C1044 1.377 . S
C1045 C1046 1.379 . S
C1046 H1030 0.931 . S
C1046 C1040 1.383 . S
C1046 C1045 1.379 . S
H1047 C1041 0.959 . S
H1048 C1041 0.961 . S
H1049 C1041 0.960 . S
H1050 C1042 0.930 . S
H1051 C1043 0.929 . S
H1052 C1060 0.929 . S
H1053 C1062 0.930 . S
H1054 C1064 0.930 . S
H1055 C1067 0.929 . S
H1056 C1070 0.930 . S
H1057 C1072 0.960 . S
H1058 C1072 0.960 . S
H1059 C1072 0.960 . S
C1060 H1052 0.929 . S
C1060 C1061 1.377 . S
C1060 C1062 1.384 . S
C1061 C1060 1.377 . S
C1061 C1067 1.390 . S
C1062 H1053 0.930 . S
C1062 C1060 1.384 . S
C1062 C1063 1.372 . S
C1063 C1062 1.372 . S
C1063 C1064 1.400 . S
C1063 C1068 1.490 . S
C1064 H1054 0.930 . S
C1064 C1063 1.400 . S
C1064 C1067 1.386 . S
H1065 C1081 0.930 . S
H1066 C1082 0.931 . S
C1067 H1055 0.929 . S
C1067 C1061 1.390 . S
C1067 C1064 1.386 . S
C1068 C1063 1.490 . S
C1068 C1070 1.395 . S
C1068 C1071 1.403 . S
H1069 C1075 0.930 . S
C1070 H1056 0.930 . S
C1070 C1068 1.395 . S
C1070 C1073 1.403 . S
C1071 C1068 1.403 . S
C1071 C1072 1.524 . S
C1071 C1075 1.400 . S
C1072 H1057 0.960 . S
C1072 H1058 0.960 . S
C1072 H1059 0.960 . S
C1072 C1071 1.524 . S
C1073 C1070 1.403 . S
C1073 C1074 1.392 . S
C1073 C1077 1.495 . S
C1074 C1073 1.392 . S
C1074 C1075 1.385 . S
C1074 C1076 1.478 . S
C1075 H1069 0.930 . S
C1075 C1071 1.400 . S
C1075 C1074 1.385 . S
C1076 C1074 1.478 . S
C1076 C1078 1.381 . S
C1076 C1082 1.383 . S
C1077 C1073 1.495 . S
C1077 H1083 0.959 . S
C1077 H1084 0.961 . S
C1077 H1085 0.960 . S
C1078 C1076 1.381 . S
C1078 C1079 1.394 . S
C1078 H1086 0.930 . S
C1079 C1078 1.394 . S
C1079 C1080 1.383 . S
C1079 H1087 0.929 . S
C1080 C1079 1.383 . S
C1080 C1081 1.377 . S
C1081 H1065 0.930 . S
C1081 C1080 1.377 . S
C1081 C1082 1.379 . S
C1082 H1066 0.931 . S
C1082 C1076 1.383 . S
C1082 C1081 1.379 . S
H1083 C1077 0.959 . S
H1084 C1077 0.961 . S
H1085 C1077 0.960 . S
H1086 C1078 0.930 . S
H1087 C1079 0.929 . S
H1088 C1096 0.929 . S
H1089 C1098 0.930 . S
H1090 C1100 0.930 . S
H1091 C1103 0.929 . S
H1092 C1106 0.930 . S
H1093 C1108 0.960 . S
H1094 C1108 0.960 . S
H1095 C1108 0.960 . S
C1096 H1088 0.929 . S
C1096 C1097 1.377 . S
C1096 C1098 1.384 . S
C1097 C1096 1.377 . S
C1097 C1103 1.390 . S
C1098 H1089 0.930 . S
C1098 C1096 1.384 . S
C1098 C1099 1.372 . S
C1099 C1098 1.372 . S
C1099 C1100 1.400 . S
C1099 C1104 1.490 . S
C1100 H1090 0.930 . S
C1100 C1099 1.400 . S
C1100 C1103 1.386 . S
H1101 C1117 0.930 . S
H1102 C1118 0.931 . S
C1103 H1091 0.929 . S
C1103 C1097 1.390 . S
C1103 C1100 1.386 . S
C1104 C1099 1.490 . S
C1104 C1106 1.395 . S
C1104 C1107 1.403 . S
H1105 C1111 0.930 . S
C1106 H1092 0.930 . S
C1106 C1104 1.395 . S
C1106 C1109 1.403 . S
C1107 C1104 1.403 . S
C1107 C1108 1.524 . S
C1107 C1111 1.400 . S
C1108 H1093 0.960 . S
C1108 H1094 0.960 . S
C1108 H1095 0.960 . S
C1108 C1107 1.524 . S
C1109 C1106 1.403 . S
C1109 C1110 1.392 . S
C1109 C1113 1.495 . S
C1110 C1109 1.392 . S
C1110 C1111 1.385 . S
C1110 C1112 1.478 . S
C1111 H1105 0.930 . S
C1111 C1107 1.400 . S
C1111 C1110 1.385 . S
C1112 C1110 1.478 . S
C1112 C1114 1.381 . S
C1112 C1118 1.383 . S
C1113 C1109 1.495 . S
C1113 H1119 0.959 . S
C1113 H1120 0.961 . S
C1113 H1121 0.960 . S
C1114 C1112 1.381 . S
C1114 C1115 1.394 . S
C1114 H1122 0.930 . S
C1115 C1114 1.394 . S
C1115 C1116 1.383 . S
C1115 H1123 0.929 . S
C1116 C1115 1.383 . S
C1116 C1117 1.377 . S
C1117 H1101 0.930 . S
C1117 C1116 1.377 . S
C1117 C1118 1.379 . S
C1118 H1102 0.931 . S
C1118 C1112 1.383 . S
C1118 C1117 1.379 . S
H1119 C1113 0.959 . S
H1120 C1113 0.961 . S
H1121 C1113 0.960 . S
H1122 C1114 0.930 . S
H1123 C1115 0.929 . S
H1124 C1132 0.929 . S
H1125 C1134 0.930 . S
H1126 C1136 0.930 . S
H1127 C1139 0.929 . S
H1128 C1142 0.930 . S
H1129 C1144 0.960 . S
H1130 C1144 0.960 . S
H1131 C1144 0.960 . S
C1132 H1124 0.929 . S
C1132 C1133 1.377 . S
C1132 C1134 1.384 . S
C1133 C1132 1.377 . S
C1133 C1139 1.390 . S
C1134 H1125 0.930 . S
C1134 C1132 1.384 . S
C1134 C1135 1.372 . S
C1135 C1134 1.372 . S
C1135 C1136 1.400 . S
C1135 C1140 1.490 . S
C1136 H1126 0.930 . S
C1136 C1135 1.400 . S
C1136 C1139 1.386 . S
H1137 C1153 0.930 . S
H1138 C1154 0.931 . S
C1139 H1127 0.929 . S
C1139 C1133 1.390 . S
C1139 C1136 1.386 . S
C1140 C1135 1.490 . S
C1140 C1142 1.395 . S
C1140 C1143 1.403 . S
H1141 C1147 0.930 . S
C1142 H1128 0.930 . S
C1142 C1140 1.395 . S
C1142 C1145 1.403 . S
C1143 C1140 1.403 . S
C1143 C1144 1.524 . S
C1143 C1147 1.400 . S
C1144 H1129 0.960 . S
C1144 H1130 0.960 . S
C1144 H1131 0.960 . S
C1144 C1143 1.524 . S
C1145 C1142 1.403 . S
C1145 C1146 1.392 . S
C1145 C1149 1.495 . S
C1146 C1145 1.392 . S
C1146 C1147 1.385 . S
C1146 C1148 1.478 . S
C1147 H1141 0.930 . S
C1147 C1143 1.400 . S
C1147 C1146 1.385 . S
C1148 C1146 1.478 . S
C1148 C1150 1.381 . S
C1148 C1154 1.383 . S
C1149 C1145 1.495 . S
C1149 H1155 0.959 . S
C1149 H1156 0.961 . S
C1149 H1157 0.960 . S
C1150 C1148 1.381 . S
C1150 C1151 1.394 . S
C1150 H1158 0.930 . S
C1151 C1150 1.394 . S
C1151 C1152 1.383 . S
C1151 H1159 0.929 . S
C1152 C1151 1.383 . S
C1152 C1153 1.377 . S
C1153 H1137 0.930 . S
C1153 C1152 1.377 . S
C1153 C1154 1.379 . S
C1154 H1138 0.931 . S
C1154 C1148 1.383 . S
C1154 C1153 1.379 . S
H1155 C1149 0.959 . S
H1156 C1149 0.961 . S
H1157 C1149 0.960 . S
H1158 C1150 0.930 . S
H1159 C1151 0.929 . S
H1160 C1168 0.929 . S
H1161 C1170 0.930 . S
H1162 C1172 0.930 . S
H1163 C1175 0.929 . S
H1164 C1178 0.930 . S
H1165 C1180 0.960 . S
H1166 C1180 0.960 . S
H1167 C1180 0.960 . S
C1168 H1160 0.929 . S
C1168 C1169 1.377 . S
C1168 C1170 1.384 . S
C1169 C1168 1.377 . S
C1169 C1175 1.390 . S
C1170 H1161 0.930 . S
C1170 C1168 1.384 . S
C1170 C1171 1.372 . S
C1171 C1170 1.372 . S
C1171 C1172 1.400 . S
C1171 C1176 1.490 . S
C1172 H1162 0.930 . S
C1172 C1171 1.400 . S
C1172 C1175 1.386 . S
H1173 C1189 0.930 . S
H1174 C1190 0.931 . S
C1175 H1163 0.929 . S
C1175 C1169 1.390 . S
C1175 C1172 1.386 . S
C1176 C1171 1.490 . S
C1176 C1178 1.395 . S
C1176 C1179 1.403 . S
H1177 C1183 0.930 . S
C1178 H1164 0.930 . S
C1178 C1176 1.395 . S
C1178 C1181 1.403 . S
C1179 C1176 1.403 . S
C1179 C1180 1.524 . S
C1179 C1183 1.400 . S
C1180 H1165 0.960 . S
C1180 H1166 0.960 . S
C1180 H1167 0.960 . S
C1180 C1179 1.524 . S
C1181 C1178 1.403 . S
C1181 C1182 1.392 . S
C1181 C1185 1.495 . S
C1182 C1181 1.392 . S
C1182 C1183 1.385 . S
C1182 C1184 1.478 . S
C1183 H1177 0.930 . S
C1183 C1179 1.400 . S
C1183 C1182 1.385 . S
C1184 C1182 1.478 . S
C1184 C1186 1.381 . S
C1184 C1190 1.383 . S
C1185 C1181 1.495 . S
C1185 H1191 0.959 . S
C1185 H1192 0.961 . S
C1185 H1193 0.960 . S
C1186 C1184 1.381 . S
C1186 C1187 1.394 . S
C1186 H1194 0.930 . S
C1187 C1186 1.394 . S
C1187 C1188 1.383 . S
C1187 H1195 0.929 . S
C1188 C1187 1.383 . S
C1188 C1189 1.377 . S
C1189 H1173 0.930 . S
C1189 C1188 1.377 . S
C1189 C1190 1.379 . S
C1190 H1174 0.931 . S
C1190 C1184 1.383 . S
C1190 C1189 1.379 . S
H1191 C1185 0.959 . S
H1192 C1185 0.961 . S
H1193 C1185 0.960 . S
H1194 C1186 0.930 . S
H1195 C1187 0.929 . S
H1196 C1204 0.929 . S
H1197 C1206 0.930 . S
H1198 C1208 0.930 . S
H1199 C1211 0.929 . S
H1200 C1214 0.930 . S
H1201 C1216 0.960 . S
H1202 C1216 0.960 . S
H1203 C1216 0.960 . S
C1204 H1196 0.929 . S
C1204 C1205 1.377 . S
C1204 C1206 1.384 . S
C1205 C1204 1.377 . S
C1205 C1211 1.390 . S
C1206 H1197 0.930 . S
C1206 C1204 1.384 . S
C1206 C1207 1.372 . S
C1207 C1206 1.372 . S
C1207 C1208 1.400 . S
C1207 C1212 1.490 . S
C1208 H1198 0.930 . S
C1208 C1207 1.400 . S
C1208 C1211 1.386 . S
H1209 C1225 0.930 . S
H1210 C1226 0.931 . S
C1211 H1199 0.929 . S
C1211 C1205 1.390 . S
C1211 C1208 1.386 . S
C1212 C1207 1.490 . S
C1212 C1214 1.395 . S
C1212 C1215 1.403 . S
H1213 C1219 0.930 . S
C1214 H1200 0.930 . S
C1214 C1212 1.395 . S
C1214 C1217 1.403 . S
C1215 C1212 1.403 . S
C1215 C1216 1.524 . S
C1215 C1219 1.400 . S
C1216 H1201 0.960 . S
C1216 H1202 0.960 . S
C1216 H1203 0.960 . S
C1216 C1215 1.524 . S
C1217 C1214 1.403 . S
C1217 C1218 1.392 . S
C1217 C1221 1.495 . S
C1218 C1217 1.392 . S
C1218 C1219 1.385 . S
C1218 C1220 1.478 . S
C1219 H1213 0.930 . S
C1219 C1215 1.400 . S
C1219 C1218 1.385 . S
C1220 C1218 1.478 . S
C1220 C1222 1.381 . S
C1220 C1226 1.383 . S
C1221 C1217 1.495 . S
C1221 H1227 0.959 . S
C1221 H1228 0.961 . S
C1221 H1229 0.960 . S
C1222 C1220 1.381 . S
C1222 C1223 1.394 . S
C1222 H1230 0.930 . S
C1223 C1222 1.394 . S
C1223 C1224 1.383 . S
C1223 H1231 0.929 . S
C1224 C1223 1.383 . S
C1224 C1225 1.377 . S
C1225 H1209 0.930 . S
C1225 C1224 1.377 . S
C1225 C1226 1.379 . S
C1226 H1210 0.931 . S
C1226 C1220 1.383 . S
C1226 C1225 1.379 . S
H1227 C1221 0.959 . S
H1228 C1221 0.961 . S
H1229 C1221 0.960 . S
H1230 C1222 0.930 . S
H1231 C1223 0.929 . S
H1232 C1240 0.929 . S
H1233 C1242 0.930 . S
H1234 C1244 0.930 . S
H1235 C1247 0.929 . S
H1236 C1250 0.930 . S
H1237 C1252 0.960 . S
H1238 C1252 0.960 . S
H1239 C1252 0.960 . S
C1240 H1232 0.929 . S
C1240 C1241 1.377 . S
C1240 C1242 1.384 . S
C1241 C1240 1.377 . S
C1241 C1247 1.390 . S
C1242 H1233 0.930 . S
C1242 C1240 1.384 . S
C1242 C1243 1.372 . S
C1243 C1242 1.372 . S
C1243 C1244 1.400 . S
C1243 C1248 1.490 . S
C1244 H1234 0.930 . S
C1244 C1243 1.400 . S
C1244 C1247 1.386 . S
H1245 C1261 0.930 . S
H1246 C1262 0.931 . S
C1247 H1235 0.929 . S
C1247 C1241 1.390 . S
C1247 C1244 1.386 . S
C1248 C1243 1.490 . S
C1248 C1250 1.395 . S
C1248 C1251 1.403 . S
H1249 C1255 0.930 . S
C1250 H1236 0.930 . S
C1250 C1248 1.395 . S
C1250 C1253 1.403 . S
C1251 C1248 1.403 . S
C1251 C1252 1.524 . S
C1251 C1255 1.400 . S
C1252 H1237 0.960 . S
C1252 H1238 0.960 . S
C1252 H1239 0.960 . S
C1252 C1251 1.524 . S
C1253 C1250 1.403 . S
C1253 C1254 1.392 . S
C1253 C1257 1.495 . S
C1254 C1253 1.392 . S
C1254 C1255 1.385 . S
C1254 C1256 1.478 . S
C1255 H1249 0.930 . S
C1255 C1251 1.400 . S
C1255 C1254 1.385 . S
C1256 C1254 1.478 . S
C1256 C1258 1.381 . S
C1256 C1262 1.383 . S
C1257 C1253 1.495 . S
C1257 H1263 0.959 . S
C1257 H1264 0.961 . S
C1257 H1265 0.960 . S
C1258 C1256 1.381 . S
C1258 C1259 1.394 . S
C1258 H1266 0.930 . S
C1259 C1258 1.394 . S
C1259 C1260 1.383 . S
C1259 H1267 0.929 . S
C1260 C1259 1.383 . S
C1260 C1261 1.377 . S
C1261 H1245 0.930 . S
C1261 C1260 1.377 . S
C1261 C1262 1.379 . S
C1262 H1246 0.931 . S
C1262 C1256 1.383 . S
C1262 C1261 1.379 . S
H1263 C1257 0.959 . S
H1264 C1257 0.961 . S
H1265 C1257 0.960 . S
H1266 C1258 0.930 . S
H1267 C1259 0.929 . S
H1268 C1276 0.929 . S
H1269 C1278 0.930 . S
H1270 C1280 0.930 . S
H1271 C1283 0.929 . S
H1272 C1286 0.930 . S
H1273 C1288 0.960 . S
H1274 C1288 0.960 . S
H1275 C1288 0.960 . S
C1276 H1268 0.929 . S
C1276 C1277 1.377 . S
C1276 C1278 1.384 . S
C1277 C1276 1.377 . S
C1277 C1283 1.390 . S
C1278 H1269 0.930 . S
C1278 C1276 1.384 . S
C1278 C1279 1.372 . S
C1279 C1278 1.372 . S
C1279 C1280 1.400 . S
C1279 C1284 1.490 . S
C1280 H1270 0.930 . S
C1280 C1279 1.400 . S
C1280 C1283 1.386 . S
H1281 C1297 0.930 . S
H1282 C1298 0.931 . S
C1283 H1271 0.929 . S
C1283 C1277 1.390 . S
C1283 C1280 1.386 . S
C1284 C1279 1.490 . S
C1284 C1286 1.395 . S
C1284 C1287 1.403 . S
H1285 C1291 0.930 . S
C1286 H1272 0.930 . S
C1286 C1284 1.395 . S
C1286 C1289 1.403 . S
C1287 C1284 1.403 . S
C1287 C1288 1.524 . S
C1287 C1291 1.400 . S
C1288 H1273 0.960 . S
C1288 H1274 0.960 . S
C1288 H1275 0.960 . S
C1288 C1287 1.524 . S
C1289 C1286 1.403 . S
C1289 C1290 1.392 . S
C1289 C1293 1.495 . S
C1290 C1289 1.392 . S
C1290 C1291 1.385 . S
C1290 C1292 1.478 . S
C1291 H1285 0.930 . S
C1291 C1287 1.400 . S
C1291 C1290 1.385 . S
C1292 C1290 1.478 . S
C1292 C1294 1.381 . S
C1292 C1298 1.383 . S
C1293 C1289 1.495 . S
C1293 H1299 0.959 . S
C1293 H1300 0.961 . S
C1293 H1301 0.960 . S
C1294 C1292 1.381 . S
C1294 C1295 1.394 . S
C1294 H1302 0.930 . S
C1295 C1294 1.394 . S
C1295 C1296 1.383 . S
C1295 H1303 0.929 . S
C1296 C1295 1.383 . S
C1296 C1297 1.377 . S
C1297 H1281 0.930 . S
C1297 C1296 1.377 . S
C1297 C1298 1.379 . S
C1298 H1282 0.931 . S
C1298 C1292 1.383 . S
C1298 C1297 1.379 . S
H1299 C1293 0.959 . S
H1300 C1293 0.961 . S
H1301 C1293 0.960 . S
H1302 C1294 0.930 . S
H1303 C1295 0.929 . S
H1304 C1312 0.929 . S
H1305 C1314 0.930 . S
H1306 C1316 0.930 . S
H1307 C1319 0.929 . S
H1308 C1322 0.930 . S
H1309 C1324 0.960 . S
H1310 C1324 0.960 . S
H1311 C1324 0.960 . S
C1312 H1304 0.929 . S
C1312 C1313 1.377 . S
C1312 C1314 1.384 . S
C1313 C1312 1.377 . S
C1313 C1319 1.390 . S
C1314 H1305 0.930 . S
C1314 C1312 1.384 . S
C1314 C1315 1.372 . S
C1315 C1314 1.372 . S
C1315 C1316 1.400 . S
C1315 C1320 1.490 . S
C1316 H1306 0.930 . S
C1316 C1315 1.400 . S
C1316 C1319 1.386 . S
H1317 C1333 0.930 . S
H1318 C1334 0.931 . S
C1319 H1307 0.929 . S
C1319 C1313 1.390 . S
C1319 C1316 1.386 . S
C1320 C1315 1.490 . S
C1320 C1322 1.395 . S
C1320 C1323 1.403 . S
H1321 C1327 0.930 . S
C1322 H1308 0.930 . S
C1322 C1320 1.395 . S
C1322 C1325 1.403 . S
C1323 C1320 1.403 . S
C1323 C1324 1.524 . S
C1323 C1327 1.400 . S
C1324 H1309 0.960 . S
C1324 H1310 0.960 . S
C1324 H1311 0.960 . S
C1324 C1323 1.524 . S
C1325 C1322 1.403 . S
C1325 C1326 1.392 . S
C1325 C1329 1.495 . S
C1326 C1325 1.392 . S
C1326 C1327 1.385 . S
C1326 C1328 1.478 . S
C1327 H1321 0.930 . S
C1327 C1323 1.400 . S
C1327 C1326 1.385 . S
C1328 C1326 1.478 . S
C1328 C1330 1.381 . S
C1328 C1334 1.383 . S
C1329 C1325 1.495 . S
C1329 H1335 0.959 . S
C1329 H1336 0.961 . S
C1329 H1337 0.960 . S
C1330 C1328 1.381 . S
C1330 C1331 1.394 . S
C1330 H1338 0.930 . S
C1331 C1330 1.394 . S
C1331 C1332 1.383 . S
C1331 H1339 0.929 . S
C1332 C1331 1.383 . S
C1332 C1333 1.377 . S
C1333 H1317 0.930 . S
C1333 C1332 1.377 . S
C1333 C1334 1.379 . S
C1334 H1318 0.931 . S
C1334 C1328 1.383 . S
C1334 C1333 1.379 . S
H1335 C1329 0.959 . S
H1336 C1329 0.961 . S
H1337 C1329 0.960 . S
H1338 C1330 0.930 . S
H1339 C1331 0.929 . S
H1340 C1348 0.929 . S
H1341 C1350 0.930 . S
H1342 C1352 0.930 . S
H1343 C1355 0.929 . S
H1344 C1358 0.930 . S
H1345 C1360 0.960 . S
H1346 C1360 0.960 . S
H1347 C1360 0.960 . S
C1348 H1340 0.929 . S
C1348 C1349 1.377 . S
C1348 C1350 1.384 . S
C1349 C1348 1.377 . S
C1349 C1355 1.390 . S
C1350 H1341 0.930 . S
C1350 C1348 1.384 . S
C1350 C1351 1.372 . S
C1351 C1350 1.372 . S
C1351 C1352 1.400 . S
C1351 C1356 1.490 . S
C1352 H1342 0.930 . S
C1352 C1351 1.400 . S
C1352 C1355 1.386 . S
H1353 C1369 0.930 . S
H1354 C1370 0.931 . S
C1355 H1343 0.929 . S
C1355 C1349 1.390 . S
C1355 C1352 1.386 . S
C1356 C1351 1.490 . S
C1356 C1358 1.395 . S
C1356 C1359 1.403 . S
H1357 C1363 0.930 . S
C1358 H1344 0.930 . S
C1358 C1356 1.395 . S
C1358 C1361 1.403 . S
C1359 C1356 1.403 . S
C1359 C1360 1.524 . S
C1359 C1363 1.400 . S
C1360 H1345 0.960 . S
C1360 H1346 0.960 . S
C1360 H1347 0.960 . S
C1360 C1359 1.524 . S
C1361 C1358 1.403 . S
C1361 C1362 1.392 . S
C1361 C1365 1.495 . S
C1362 C1361 1.392 . S
C1362 C1363 1.385 . S
C1362 C1364 1.478 . S
C1363 H1357 0.930 . S
C1363 C1359 1.400 . S
C1363 C1362 1.385 . S
C1364 C1362 1.478 . S
C1364 C1366 1.381 . S
C1364 C1370 1.383 . S
C1365 C1361 1.495 . S
C1365 H1371 0.959 . S
C1365 H1372 0.961 . S
C1365 H1373 0.960 . S
C1366 C1364 1.381 . S
C1366 C1367 1.394 . S
C1366 H1374 0.930 . S
C1367 C1366 1.394 . S
C1367 C1368 1.383 . S
C1367 H1375 0.929 . S
C1368 C1367 1.383 . S
C1368 C1369 1.377 . S
C1369 H1353 0.930 . S
C1369 C1368 1.377 . S
C1369 C1370 1.379 . S
C1370 H1354 0.931 . S
C1370 C1364 1.383 . S
C1370 C1369 1.379 . S
H1371 C1365 0.959 . S
H1372 C1365 0.961 . S
H1373 C1365 0.960 . S
H1374 C1366 0.930 . S
H1375 C1367 0.929 . S
C233 C11 0.916 . S
C252 C67 0.959 . S
C269 C81 0.916 . S
C288 C25 0.961 . S
C305 C39 0.928 . S
C324 C95 0.902 . S
C341 C53 0.918 . S
C360 C109 0.951 . S
C377 C123 0.926 . S
C396 C179 0.898 . S
C413 C193 0.930 . S
C432 C137 0.921 . S
C449 C151 0.927 . S
C468 C207 0.904 . S
C485 C165 0.928 . S
C504 C221 0.910 . S
C521 C12 0.963 1_556 S
C540 C214 0.940 . S
C557 C172 0.954 . S
C576 C26 0.964 . S
C593 C40 0.967 1_556 S
C612 C186 0.980 . S
C629 C200 0.956 . S
C648 C54 0.953 . S
C665 C130 0.962 . S
C684 C68 0.957 1_554 S
C701 C144 0.954 . S
C720 C82 0.958 . S
C737 C158 0.954 . S
C756 C96 0.955 1_554 S
C773 C116 0.959 . S
C792 C110 0.953 . S
C809 C124 0.967 1_554 S
C828 C102 0.951 . S
C845 C60 0.959 . S
C864 C138 0.973 . S
C881 C74 0.954 . S
C900 C152 0.959 1_554 S
C917 C166 0.963 . S
C936 C88 0.948 . S
C953 C18 0.957 . S
C972 C180 0.969 1_556 S
C989 C194 0.964 . S
C1008 C32 0.932 . S
C1025 C208 0.967 1_556 S
C1044 C46 0.955 . S
C1061 C222 0.968 . S
C1080 C4 0.978 . S
C1097 C103 1.214 . S
C1116 C5 1.259 . S
C1133 C19 1.211 . S
C1152 C61 1.217 . S
C1169 C33 1.223 . S
C1188 C75 1.246 . S
C1205 C47 1.211 . S
C1224 C89 1.226 . S
C1241 C215 1.223 . S
C1260 C117 1.238 . S
C1277 C173 1.216 . S
C1296 C131 1.208 . S
C1313 C187 1.212 . S
C1332 C145 1.179 . S
C1349 C201 1.221 . S
C1368 C159 1.230 . S
