# Generated by pormake.
# Topology umr, (4)-cn, num edge types: 1
# Building blocks:
#     Node 0, Type 0, BuildingBlock: GALJAG_clean_sbu_0, # of connection points: 4
#     Node 1, Type 0, BuildingBlock: GALJAG_clean_sbu_0, # of connection points: 4
#     Node 2, Type 0, BuildingBlock: GALJAG_clean_sbu_0, # of connection points: 4
#     Node 3, Type 0, BuildingBlock: GALJAG_clean_sbu_0, # of connection points: 4
#     Node 4, Type 0, BuildingBlock: GALJAG_clean_sbu_0, # of connection points: 4
#     Node 5, Type 0, BuildingBlock: GALJAG_clean_sbu_0, # of connection points: 4
#     Node 6, Type 0, BuildingBlock: GALJAG_clean_sbu_0, # of connection points: 4
#     Node 7, Type 0, BuildingBlock: GALJAG_clean_sbu_0, # of connection points: 4
#     Node 8, Type 0, BuildingBlock: GALJAG_clean_sbu_0, # of connection points: 4
#     Node 9, Type 0, BuildingBlock: GALJAG_clean_sbu_0, # of connection points: 4
#     Node 10, Type 0, BuildingBlock: GALJAG_clean_sbu_0, # of connection points: 4
#     Node 11, Type 0, BuildingBlock: GALJAG_clean_sbu_0, # of connection points: 4
#     Node 12, Type 0, BuildingBlock: GALJAG_clean_sbu_0, # of connection points: 4
#     Node 13, Type 0, BuildingBlock: GALJAG_clean_sbu_0, # of connection points: 4
#     Node 14, Type 0, BuildingBlock: GALJAG_clean_sbu_0, # of connection points: 4
#     Node 15, Type 0, BuildingBlock: GALJAG_clean_sbu_0, # of connection points: 4
#     Node 16, Type 0, BuildingBlock: GALJAG_clean_sbu_0, # of connection points: 4
#     Node 17, Type 0, BuildingBlock: GALJAG_clean_sbu_0, # of connection points: 4
#     Node 18, Type 0, BuildingBlock: GALJAG_clean_sbu_0, # of connection points: 4
#     Node 19, Type 0, BuildingBlock: GALJAG_clean_sbu_0, # of connection points: 4
#     Node 20, Type 0, BuildingBlock: GALJAG_clean_sbu_0, # of connection points: 4
#     Node 21, Type 0, BuildingBlock: GALJAG_clean_sbu_0, # of connection points: 4
#     Node 22, Type 0, BuildingBlock: GALJAG_clean_sbu_0, # of connection points: 4
#     Node 23, Type 0, BuildingBlock: GALJAG_clean_sbu_0, # of connection points: 4
#     Node 24, Type 0, BuildingBlock: GALJAG_clean_sbu_0, # of connection points: 4
#     Node 25, Type 0, BuildingBlock: GALJAG_clean_sbu_0, # of connection points: 4
#     Node 26, Type 0, BuildingBlock: GALJAG_clean_sbu_0, # of connection points: 4
#     Node 27, Type 0, BuildingBlock: GALJAG_clean_sbu_0, # of connection points: 4
#     Node 28, Type 0, BuildingBlock: GALJAG_clean_sbu_0, # of connection points: 4
#     Node 29, Type 0, BuildingBlock: GALJAG_clean_sbu_0, # of connection points: 4
#     Node 30, Type 0, BuildingBlock: GALJAG_clean_sbu_0, # of connection points: 4
#     Node 31, Type 0, BuildingBlock: GALJAG_clean_sbu_0, # of connection points: 4
#     Edge 32, Type (0, 0), BuildingBlock: XUDNAN_clean_linker_2, # of connection points: 2
#     Edge 33, Type (0, 0), BuildingBlock: XUDNAN_clean_linker_2, # of connection points: 2
#     Edge 34, Type (0, 0), BuildingBlock: XUDNAN_clean_linker_2, # of connection points: 2
#     Edge 35, Type (0, 0), BuildingBlock: XUDNAN_clean_linker_2, # of connection points: 2
#     Edge 36, Type (0, 0), BuildingBlock: XUDNAN_clean_linker_2, # of connection points: 2
#     Edge 37, Type (0, 0), BuildingBlock: XUDNAN_clean_linker_2, # of connection points: 2
#     Edge 38, Type (0, 0), BuildingBlock: XUDNAN_clean_linker_2, # of connection points: 2
#     Edge 39, Type (0, 0), BuildingBlock: XUDNAN_clean_linker_2, # of connection points: 2
#     Edge 40, Type (0, 0), BuildingBlock: XUDNAN_clean_linker_2, # of connection points: 2
#     Edge 41, Type (0, 0), BuildingBlock: XUDNAN_clean_linker_2, # of connection points: 2
#     Edge 42, Type (0, 0), BuildingBlock: XUDNAN_clean_linker_2, # of connection points: 2
#     Edge 43, Type (0, 0), BuildingBlock: XUDNAN_clean_linker_2, # of connection points: 2
#     Edge 44, Type (0, 0), BuildingBlock: XUDNAN_clean_linker_2, # of connection points: 2
#     Edge 45, Type (0, 0), BuildingBlock: XUDNAN_clean_linker_2, # of connection points: 2
#     Edge 46, Type (0, 0), BuildingBlock: XUDNAN_clean_linker_2, # of connection points: 2
#     Edge 47, Type (0, 0), BuildingBlock: XUDNAN_clean_linker_2, # of connection points: 2
#     Edge 48, Type (0, 0), BuildingBlock: XUDNAN_clean_linker_2, # of connection points: 2
#     Edge 49, Type (0, 0), BuildingBlock: XUDNAN_clean_linker_2, # of connection points: 2
#     Edge 50, Type (0, 0), BuildingBlock: XUDNAN_clean_linker_2, # of connection points: 2
#     Edge 51, Type (0, 0), BuildingBlock: XUDNAN_clean_linker_2, # of connection points: 2
#     Edge 52, Type (0, 0), BuildingBlock: XUDNAN_clean_linker_2, # of connection points: 2
#     Edge 53, Type (0, 0), BuildingBlock: XUDNAN_clean_linker_2, # of connection points: 2
#     Edge 54, Type (0, 0), BuildingBlock: XUDNAN_clean_linker_2, # of connection points: 2
#     Edge 55, Type (0, 0), BuildingBlock: XUDNAN_clean_linker_2, # of connection points: 2
#     Edge 56, Type (0, 0), BuildingBlock: XUDNAN_clean_linker_2, # of connection points: 2
#     Edge 57, Type (0, 0), BuildingBlock: XUDNAN_clean_linker_2, # of connection points: 2
#     Edge 58, Type (0, 0), BuildingBlock: XUDNAN_clean_linker_2, # of connection points: 2
#     Edge 59, Type (0, 0), BuildingBlock: XUDNAN_clean_linker_2, # of connection points: 2
#     Edge 60, Type (0, 0), BuildingBlock: XUDNAN_clean_linker_2, # of connection points: 2
#     Edge 61, Type (0, 0), BuildingBlock: XUDNAN_clean_linker_2, # of connection points: 2
#     Edge 62, Type (0, 0), BuildingBlock: XUDNAN_clean_linker_2, # of connection points: 2
#     Edge 63, Type (0, 0), BuildingBlock: XUDNAN_clean_linker_2, # of connection points: 2
#     Edge 64, Type (0, 0), BuildingBlock: XUDNAN_clean_linker_2, # of connection points: 2
#     Edge 65, Type (0, 0), BuildingBlock: XUDNAN_clean_linker_2, # of connection points: 2
#     Edge 66, Type (0, 0), BuildingBlock: XUDNAN_clean_linker_2, # of connection points: 2
#     Edge 67, Type (0, 0), BuildingBlock: XUDNAN_clean_linker_2, # of connection points: 2
#     Edge 68, Type (0, 0), BuildingBlock: XUDNAN_clean_linker_2, # of connection points: 2
#     Edge 69, Type (0, 0), BuildingBlock: XUDNAN_clean_linker_2, # of connection points: 2
#     Edge 70, Type (0, 0), BuildingBlock: XUDNAN_clean_linker_2, # of connection points: 2
#     Edge 71, Type (0, 0), BuildingBlock: XUDNAN_clean_linker_2, # of connection points: 2
#     Edge 72, Type (0, 0), BuildingBlock: XUDNAN_clean_linker_2, # of connection points: 2
#     Edge 73, Type (0, 0), BuildingBlock: XUDNAN_clean_linker_2, # of connection points: 2
#     Edge 74, Type (0, 0), BuildingBlock: XUDNAN_clean_linker_2, # of connection points: 2
#     Edge 75, Type (0, 0), BuildingBlock: XUDNAN_clean_linker_2, # of connection points: 2
#     Edge 76, Type (0, 0), BuildingBlock: XUDNAN_clean_linker_2, # of connection points: 2
#     Edge 77, Type (0, 0), BuildingBlock: XUDNAN_clean_linker_2, # of connection points: 2
#     Edge 78, Type (0, 0), BuildingBlock: XUDNAN_clean_linker_2, # of connection points: 2
#     Edge 79, Type (0, 0), BuildingBlock: XUDNAN_clean_linker_2, # of connection points: 2
#     Edge 80, Type (0, 0), BuildingBlock: XUDNAN_clean_linker_2, # of connection points: 2
#     Edge 81, Type (0, 0), BuildingBlock: XUDNAN_clean_linker_2, # of connection points: 2
#     Edge 82, Type (0, 0), BuildingBlock: XUDNAN_clean_linker_2, # of connection points: 2
#     Edge 83, Type (0, 0), BuildingBlock: XUDNAN_clean_linker_2, # of connection points: 2
#     Edge 84, Type (0, 0), BuildingBlock: XUDNAN_clean_linker_2, # of connection points: 2
#     Edge 85, Type (0, 0), BuildingBlock: XUDNAN_clean_linker_2, # of connection points: 2
#     Edge 86, Type (0, 0), BuildingBlock: XUDNAN_clean_linker_2, # of connection points: 2
#     Edge 87, Type (0, 0), BuildingBlock: XUDNAN_clean_linker_2, # of connection points: 2
#     Edge 88, Type (0, 0), BuildingBlock: XUDNAN_clean_linker_2, # of connection points: 2
#     Edge 89, Type (0, 0), BuildingBlock: XUDNAN_clean_linker_2, # of connection points: 2
#     Edge 90, Type (0, 0), BuildingBlock: XUDNAN_clean_linker_2, # of connection points: 2
#     Edge 91, Type (0, 0), BuildingBlock: XUDNAN_clean_linker_2, # of connection points: 2
#     Edge 92, Type (0, 0), BuildingBlock: XUDNAN_clean_linker_2, # of connection points: 2
#     Edge 93, Type (0, 0), BuildingBlock: XUDNAN_clean_linker_2, # of connection points: 2
#     Edge 94, Type (0, 0), BuildingBlock: XUDNAN_clean_linker_2, # of connection points: 2
#     Edge 95, Type (0, 0), BuildingBlock: XUDNAN_clean_linker_2, # of connection points: 2
# Relax obj value: 0.027
# Max RMSD: 0.060
# Mean RMSD: 0.060
data_MOF--net-umr--node1-GALJAG_clean_sbu_0--edge1-XUDNAN_clean_linker_2
_symmetry_space_group_name_H-M    P1
_symmetry_Int_Tables_number       1
_symmetry_cell_setting            triclinic
loop_
_symmetry_equiv_pos_as_xyz
'x, y, z'
_cell_length_a     80.468175
_cell_length_b     80.512563
_cell_length_c     28.127262
_cell_angle_alpha  90.01718
_cell_angle_beta   89.968144
_cell_angle_gamma 90.018253
loop_
_atom_site_label
_atom_site_type_symbol
_atom_site_fract_x
_atom_site_fract_y
_atom_site_fract_z
_atom_type_partial_charge
In0 In 0.1581 0.27904 0.06671 0.0
O1 O 0.15519 0.26159 0.13031 0.0
O2 O 0.16463 0.28597 0.14231 0.0
C3 C 0.14735 0.26269 0.98971 0.0
C4 C 0.13279 0.30035 0.07361 0.0
C5 C 0.18968 0.27991 0.03653 0.0
O6 O 0.14885 0.25557 0.02969 0.0
O7 O 0.15082 0.27799 0.98942 0.0
O8 O 0.18141 0.29316 0.0419 0.0
O9 O 0.1823 0.26677 0.04871 0.0
C10 C 0.16013 0.2723 0.16005 0.0
O11 O 0.14751 0.30535 0.06616 0.0
O12 O 0.13107 0.28481 0.0766 0.0
In13 In 0.96359 0.90499 0.28296 0.0
O14 O 0.93611 0.90216 0.29902 0.0
O15 O 0.95157 0.88082 0.30631 0.0
C16 C 0.95866 0.93773 0.27087 0.0
C17 C 0.98137 0.90083 0.36373 0.0
C18 C 0.97278 0.89606 0.1937 0.0
O19 O 0.94689 0.92746 0.27401 0.0
O20 O 0.97301 0.9315 0.27382 0.0
O21 O 0.98265 0.90291 0.22245 0.0
O22 O 0.95858 0.89314 0.21053 0.0
C23 C 0.93721 0.88703 0.31026 0.0
O24 O 0.98432 0.89253 0.32655 0.0
O25 O 0.96999 0.91146 0.35936 0.0
In26 In 0.33768 0.71064 0.54475 0.0
O27 O 0.35126 0.68606 0.5523 0.0
O28 O 0.36528 0.70864 0.55596 0.0
C29 C 0.30552 0.70382 0.5306 0.0
C30 C 0.33682 0.72063 0.63555 0.0
C31 C 0.34486 0.72153 0.45723 0.0
O32 O 0.31629 0.69244 0.53431 0.0
O33 O 0.31106 0.71845 0.53415 0.0
O34 O 0.34222 0.73167 0.49098 0.0
O35 O 0.34386 0.70637 0.46822 0.0
C36 C 0.3653 0.69295 0.55798 0.0
O37 O 0.34024 0.73082 0.60251 0.0
O38 O 0.33338 0.7061 0.62198 0.0
In39 In 0.52675 0.09105 0.81309 0.0
O40 O 0.55244 0.09448 0.84384 0.0
O41 O 0.53826 0.11627 0.82957 0.0
C42 C 0.53491 0.0597 0.78991 0.0
C43 C 0.5079 0.09265 0.89266 0.0
C44 C 0.5171 0.10016 0.72479 0.0
O45 O 0.5456 0.07098 0.79556 0.0
O46 O 0.52006 0.06415 0.7968 0.0
O47 O 0.50755 0.09273 0.75334 0.0
O48 O 0.53116 0.10376 0.74167 0.0
C49 C 0.5516 0.11011 0.84543 0.0
O50 O 0.50514 0.1018 0.85706 0.0
O51 O 0.51952 0.08237 0.88705 0.0
In52 In 0.15352 0.71381 0.4553 0.0
O53 O 0.14194 0.73536 0.41282 0.0
O54 O 0.16069 0.72085 0.3799 0.0
C55 C 0.14509 0.72346 0.54452 0.0
C56 C 0.13459 0.68863 0.42396 0.0
C57 C 0.18559 0.70648 0.4721 0.0
O58 O 0.15256 0.73293 0.51583 0.0
O59 O 0.14128 0.70949 0.52756 0.0
O60 O 0.17428 0.69563 0.47272 0.0
O61 O 0.18072 0.72103 0.4629 0.0
C62 C 0.15039 0.73252 0.37582 0.0
O63 O 0.1502 0.68767 0.4271 0.0
O64 O 0.12841 0.70221 0.43797 0.0
In65 In 0.5367 0.91174 0.66839 0.0
O66 O 0.51933 0.89655 0.62118 0.0
O67 O 0.53214 0.91677 0.58951 0.0
C68 C 0.52026 0.90646 0.75087 0.0
C69 C 0.56381 0.89297 0.65439 0.0
C70 C 0.54218 0.94424 0.6834 0.0
O71 O 0.51311 0.91048 0.71269 0.0
O72 O 0.53573 0.90433 0.74715 0.0
O73 O 0.5531 0.93331 0.69078 0.0
O74 O 0.52858 0.93883 0.66723 0.0
C75 C 0.52235 0.9047 0.58386 0.0
O76 O 0.5638 0.90849 0.64846 0.0
O77 O 0.55025 0.88694 0.66905 0.0
In78 In 0.33833 0.27753 0.92956 0.0
O79 O 0.34828 0.30407 0.9303 0.0
O80 O 0.36531 0.28392 0.93861 0.0
C81 C 0.30499 0.28001 0.92967 0.0
C82 C 0.34502 0.27007 0.83832 0.0
C83 C 0.34203 0.26054 0.01125 0.0
O84 O 0.31406 0.29167 0.94511 0.0
O85 O 0.3128 0.26763 0.91377 0.0
O86 O 0.34327 0.2536 0.97101 0.0
O87 O 0.33917 0.27595 0.00995 0.0
C88 C 0.36324 0.29941 0.93481 0.0
O89 O 0.34608 0.25928 0.87093 0.0
O90 O 0.34029 0.28425 0.85183 0.0
In91 In 0.96816 0.09048 0.20683 0.0
O92 O 0.99011 0.10218 0.16602 0.0
O93 O 0.97452 0.08497 0.13025 0.0
C94 C 0.97708 0.09909 0.29612 0.0
C95 C 0.94184 0.10793 0.17713 0.0
C96 C 0.9618 0.05816 0.22248 0.0
O97 O 0.96351 0.10343 0.27764 0.0
O98 O 0.98659 0.0911 0.26873 0.0
O99 O 0.95079 0.06926 0.22505 0.0
O100 O 0.97615 0.06335 0.21201 0.0
C101 C 0.98668 0.09476 0.12768 0.0
O102 O 0.94178 0.09231 0.18053 0.0
O103 O 0.9552 0.11493 0.18975 0.0
In104 In 0.8453 0.72276 0.97132 0.0
O105 O 0.84213 0.69563 0.94881 0.0
O106 O 0.86619 0.70658 0.94478 0.0
C107 C 0.81285 0.72743 0.98914 0.0
C108 C 0.85279 0.74129 0.89443 0.0
C109 C 0.85703 0.72695 0.06037 0.0
O110 O 0.81852 0.7136 0.97539 0.0
O111 O 0.82352 0.73885 0.9931 0.0
O112 O 0.8556 0.73882 0.03138 0.0
O113 O 0.85307 0.71295 0.04394 0.0
C114 C 0.85728 0.69392 0.93795 0.0
O115 O 0.86312 0.73871 0.92732 0.0
O116 O 0.83861 0.73506 0.90121 0.0
In117 In 0.03148 0.09037 0.70673 0.0
O118 O 0.00774 0.09769 0.66696 0.0
O119 O 0.0258 0.08306 0.63084 0.0
C120 C 0.0246 0.09899 0.79731 0.0
C121 C 0.05143 0.11417 0.67276 0.0
C122 C 0.03841 0.05801 0.71862 0.0
O123 O 0.01348 0.09445 0.76842 0.0
O124 O 0.03906 0.09961 0.78015 0.0
O125 O 0.04957 0.06853 0.70892 0.0
O126 O 0.02392 0.06386 0.72212 0.0
C127 C 0.01218 0.09076 0.62863 0.0
O128 O 0.05695 0.09995 0.68358 0.0
O129 O 0.03621 0.11645 0.68135 0.0
In130 In 0.66152 0.28458 0.44372 0.0
O131 O 0.6545 0.26616 0.38374 0.0
O132 O 0.67166 0.28554 0.36923 0.0
C133 C 0.64865 0.27091 0.52325 0.0
C134 C 0.64139 0.3099 0.42257 0.0
C135 C 0.69268 0.29004 0.47461 0.0
O136 O 0.65692 0.26242 0.49375 0.0
O137 O 0.6465 0.28585 0.51163 0.0
O138 O 0.68218 0.30156 0.47005 0.0
O139 O 0.68746 0.27576 0.4636 0.0
C140 C 0.6633 0.27359 0.35313 0.0
O141 O 0.65644 0.31197 0.434 0.0
O142 O 0.63634 0.29503 0.42318 0.0
In143 In 0.47141 0.90413 0.17255 0.0
O144 O 0.49088 0.9021 0.1124 0.0
O145 O 0.46782 0.91416 0.09883 0.0
C146 C 0.48561 0.89407 0.25426 0.0
C147 C 0.45208 0.87839 0.14932 0.0
C148 C 0.46251 0.93455 0.202 0.0
O149 O 0.49393 0.90138 0.22228 0.0
O150 O 0.47062 0.89138 0.24394 0.0
O151 O 0.45194 0.92316 0.19539 0.0
O152 O 0.47737 0.93057 0.19329 0.0
C153 C 0.4815 0.90917 0.08238 0.0
O154 O 0.44609 0.89201 0.16393 0.0
O155 O 0.46777 0.87772 0.1479 0.0
In156 In 0.84175 0.27691 0.57986 0.0
O157 O 0.84595 0.25908 0.64272 0.0
O158 O 0.83829 0.28387 0.65701 0.0
C159 C 0.84485 0.25844 0.50042 0.0
C160 C 0.86925 0.29569 0.57919 0.0
C161 C 0.80994 0.28583 0.56589 0.0
O162 O 0.84286 0.25193 0.54099 0.0
O163 O 0.84585 0.27408 0.50052 0.0
O164 O 0.82175 0.29613 0.56287 0.0
O165 O 0.81422 0.27123 0.57662 0.0
C166 C 0.84244 0.26995 0.67365 0.0
O167 O 0.85486 0.30178 0.57475 0.0
O168 O 0.86977 0.28005 0.58246 0.0
In169 In 0.46235 0.08377 0.31446 0.0
O170 O 0.43561 0.08635 0.33882 0.0
O171 O 0.45003 0.10842 0.33107 0.0
C172 C 0.45722 0.05118 0.29898 0.0
C173 C 0.4806 0.08867 0.39403 0.0
C174 C 0.47085 0.09295 0.22502 0.0
O175 O 0.44552 0.06157 0.30078 0.0
O176 O 0.47152 0.05719 0.30551 0.0
O177 O 0.48089 0.08577 0.25267 0.0
O178 O 0.45684 0.09596 0.24298 0.0
C179 C 0.43627 0.10197 0.34247 0.0
O180 O 0.46877 0.07846 0.39155 0.0
O181 O 0.48384 0.09604 0.35549 0.0
In182 In 0.66002 0.71891 0.05819 0.0
O183 O 0.64925 0.73569 0.11643 0.0
O184 O 0.65992 0.71249 0.13638 0.0
C185 C 0.65045 0.73363 0.97687 0.0
C186 C 0.64246 0.69074 0.05611 0.0
C187 C 0.6931 0.72388 0.05372 0.0
O188 O 0.64845 0.74046 0.01693 0.0
O189 O 0.65696 0.7194 0.9782 0.0
O190 O 0.68659 0.71004 0.04376 0.0
O191 O 0.68298 0.73494 0.06655 0.0
C192 C 0.65257 0.72554 0.14941 0.0
O193 O 0.65819 0.69075 0.05525 0.0
O194 O 0.63575 0.70493 0.05624 0.0
In195 In 0.02988 0.90525 0.78293 0.0
O196 O 0.05712 0.90258 0.80153 0.0
O197 O 0.04217 0.88072 0.80244 0.0
C198 C 0.03667 0.93758 0.76803 0.0
C199 C 0.01202 0.90115 0.86372 0.0
C200 C 0.01926 0.89634 0.695 0.0
O201 O 0.04731 0.92627 0.76224 0.0
O202 O 0.02254 0.9326 0.78137 0.0
O203 O 0.03249 0.89093 0.71317 0.0
O204 O 0.01096 0.90574 0.72186 0.0
C205 C 0.05632 0.88715 0.80895 0.0
O206 O 0.008 0.89417 0.82517 0.0
O207 O 0.02457 0.91043 0.86084 0.0
In208 In 0.65933 0.778 0.55614 0.0
O209 O 0.64972 0.76121 0.61603 0.0
O210 O 0.66153 0.78403 0.63428 0.0
C211 C 0.64793 0.76371 0.47606 0.0
C212 C 0.64197 0.80629 0.55824 0.0
C213 C 0.69218 0.77292 0.54481 0.0
O214 O 0.64671 0.75672 0.51614 0.0
O215 O 0.65448 0.77794 0.47687 0.0
O216 O 0.68564 0.78705 0.53944 0.0
O217 O 0.68222 0.76158 0.55672 0.0
C218 C 0.65415 0.77115 0.64846 0.0
O219 O 0.65756 0.80614 0.55236 0.0
O220 O 0.6352 0.79216 0.5611 0.0
In221 In 0.46346 0.41101 0.8327 0.0
O222 O 0.48126 0.40764 0.89581 0.0
O223 O 0.45722 0.41771 0.90873 0.0
C224 C 0.48159 0.40461 0.75425 0.0
C225 C 0.44474 0.3838 0.84347 0.0
C226 C 0.45604 0.44246 0.80917 0.0
O227 O 0.48824 0.40796 0.7939 0.0
O228 O 0.46592 0.40393 0.75487 0.0
O229 O 0.44528 0.43101 0.80726 0.0
O230 O 0.47015 0.43803 0.82408 0.0
C231 C 0.47082 0.41284 0.92606 0.0
O232 O 0.43834 0.39785 0.83497 0.0
O233 O 0.46042 0.38353 0.84413 0.0
In234 In 0.83348 0.21143 0.07818 0.0
O235 O 0.84057 0.22819 0.14131 0.0
O236 O 0.8263 0.20651 0.15492 0.0
C237 C 0.84267 0.22958 1.00184 0.0
C238 C 0.85545 0.18649 0.08224 0.0
C239 C 0.80155 0.20679 0.05305 0.0
O240 O 0.83881 0.23623 0.04102 0.0
O241 O 0.84255 0.21394 0.00213 0.0
O242 O 0.81215 0.19527 0.0527 0.0
O243 O 0.80693 0.22063 0.06746 0.0
C244 C 0.83364 0.219 0.17188 0.0
O245 O 0.84027 0.18429 0.07299 0.0
O246 O 0.8597 0.20144 0.08861 0.0
In247 In 0.02328 0.58916 0.32645 0.0
O248 O 0.00313 0.59028 0.38614 0.0
O249 O 0.02861 0.59105 0.40488 0.0
C250 C 0.00216 0.59726 0.2551 0.0
C251 C 0.04984 0.60941 0.32223 0.0
C252 C 0.03369 0.55825 0.30488 0.0
O253 O 0.01222 0.60745 0.27327 0.0
O254 O 0.00159 0.58338 0.27593 0.0
O255 O 0.03343 0.5699 0.27503 0.0
O256 O 0.02865 0.56207 0.34591 0.0
C257 C 0.0138 0.59132 0.41907 0.0
O258 O 0.05073 0.5941 0.31317 0.0
O259 O 0.03543 0.61462 0.33184 0.0
In260 In 0.65338 0.22016 0.94012 0.0
O261 O 0.64749 0.19296 0.95194 0.0
O262 O 0.62758 0.20882 0.93167 0.0
C263 C 0.68608 0.21348 0.94587 0.0
C264 C 0.64766 0.23309 0.85284 0.0
C265 C 0.64959 0.23718 0.02232 0.0
O266 O 0.67541 0.20249 0.93639 0.0
O267 O 0.6803 0.22794 0.95089 0.0
O268 O 0.6531 0.2441 0.98335 0.0
O269 O 0.64721 0.22175 0.01949 0.0
C270 C 0.63231 0.19428 0.9416 0.0
O271 O 0.63993 0.23783 0.88944 0.0
O272 O 0.65847 0.22208 0.86041 0.0
In273 In 0.03535 0.41731 0.14811 0.0
O274 O 0.0173 0.41432 0.08552 0.0
O275 O 0.04188 0.42287 0.07153 0.0
C276 C 0.01568 0.41296 0.22479 0.0
C277 C 0.0532 0.3894 0.14019 0.0
C278 C 0.04626 0.4474 0.17511 0.0
O279 O 0.00993 0.41805 0.18553 0.0
O280 O 0.03095 0.4095 0.22421 0.0
O281 O 0.05391 0.43422 0.18563 0.0
O282 O 0.03362 0.44543 0.14922 0.0
C283 C 0.02796 0.41866 0.05477 0.0
O284 O 0.05998 0.40352 0.14322 0.0
O285 O 0.03753 0.38944 0.14227 0.0
In286 In 0.84449 0.7787 0.47103 0.0
O287 O 0.85494 0.75619 0.43071 0.0
O288 O 0.84486 0.77635 0.39116 0.0
C289 C 0.85383 0.77331 0.56151 0.0
C290 C 0.85995 0.80744 0.45165 0.0
C291 C 0.81176 0.77263 0.47787 0.0
O292 O 0.86129 0.76659 0.52696 0.0
O293 O 0.84196 0.78272 0.55024 0.0
O294 O 0.8175 0.78717 0.47346 0.0
O295 O 0.82252 0.76122 0.47786 0.0
C296 C 0.85184 0.76235 0.3903 0.0
O297 O 0.84429 0.80628 0.45218 0.0
O298 O 0.8676 0.79432 0.46258 0.0
In299 In 0.47084 0.59008 0.68994 0.0
O300 O 0.49482 0.59637 0.6497 0.0
O301 O 0.47528 0.58453 0.61184 0.0
C302 C 0.47895 0.59747 0.7806 0.0
C303 C 0.45108 0.61526 0.66423 0.0
C304 C 0.46195 0.55819 0.70364 0.0
O305 O 0.48955 0.59228 0.75095 0.0
O306 O 0.46449 0.59926 0.76419 0.0
O307 O 0.4514 0.56938 0.69485 0.0
O308 O 0.47684 0.56307 0.70428 0.0
C309 C 0.48956 0.59094 0.61031 0.0
O310 O 0.4458 0.6005 0.66722 0.0
O311 O 0.46616 0.61726 0.67523 0.0
In312 In 0.33697 0.21442 0.43496 0.0
O313 O 0.3444 0.23105 0.3719 0.0
O314 O 0.33095 0.20881 0.35806 0.0
C315 C 0.34944 0.22916 0.51308 0.0
C316 C 0.35548 0.18686 0.43237 0.0
C317 C 0.30488 0.21842 0.4584 0.0
O318 O 0.34977 0.23615 0.47277 0.0
O319 O 0.34349 0.21467 0.51313 0.0
O320 O 0.31138 0.2042 0.45483 0.0
O321 O 0.31435 0.23037 0.44824 0.0
C322 C 0.33806 0.22145 0.34124 0.0
O323 O 0.34004 0.18647 0.44066 0.0
O324 O 0.36156 0.20119 0.42644 0.0
In325 In 0.53611 0.58975 0.19035 0.0
O326 O 0.51478 0.60166 0.14794 0.0
O327 O 0.52953 0.5832 0.11434 0.0
C328 C 0.5284 0.5986 0.28053 0.0
C329 C 0.56225 0.60787 0.16221 0.0
C330 C 0.53995 0.55705 0.2053 0.0
O331 O 0.51757 0.59387 0.25108 0.0
O332 O 0.54289 0.59965 0.26381 0.0
O333 O 0.55197 0.56657 0.19618 0.0
O334 O 0.52589 0.56397 0.20615 0.0
C335 C 0.51781 0.59346 0.1106 0.0
O336 O 0.56317 0.59246 0.16988 0.0
O337 O 0.54817 0.61429 0.17009 0.0
In338 In 0.15548 0.7804 0.95576 0.0
O339 O 0.14384 0.75896 0.91295 0.0
O340 O 0.16146 0.77439 0.87848 0.0
C341 C 0.14656 0.77069 0.04461 0.0
C342 C 0.13716 0.8067 0.93004 0.0
C343 C 0.18786 0.78689 0.97151 0.0
O344 O 0.15494 0.76159 0.0171 0.0
O345 O 0.14213 0.78431 0.02668 0.0
O346 O 0.17699 0.79812 0.96912 0.0
O347 O 0.18245 0.77232 0.96544 0.0
C348 C 0.1515 0.76239 0.875 0.0
O349 O 0.15263 0.80757 0.93709 0.0
O350 O 0.13081 0.79253 0.93677 0.0
In351 In 0.96956 0.41032 0.64868 0.0
O352 O 0.98712 0.40826 0.58443 0.0
O353 O 0.96298 0.41832 0.57383 0.0
C354 C 0.98867 0.4061 0.7264 0.0
C355 C 0.95203 0.38212 0.64077 0.0
C356 C 0.95908 0.44036 0.67694 0.0
O357 O 0.99483 0.40968 0.68625 0.0
O358 O 0.97316 0.4038 0.72632 0.0
O359 O 0.94949 0.42791 0.67607 0.0
O360 O 0.9736 0.4377 0.6618 0.0
C361 C 0.97661 0.41405 0.55541 0.0
O362 O 0.94522 0.39611 0.64685 0.0
O363 O 0.96771 0.38234 0.63993 0.0
In364 In 0.33952 0.77914 0.0465 0.0
O365 O 0.35147 0.80436 0.06164 0.0
O366 O 0.36692 0.78464 0.03769 0.0
C367 C 0.30719 0.7873 0.03953 0.0
C368 C 0.34349 0.76393 0.13118 0.0
C369 C 0.34187 0.76332 0.96246 0.0
O370 O 0.3186 0.79795 0.0346 0.0
O371 O 0.31214 0.77283 0.04902 0.0
O372 O 0.34169 0.75584 0.00189 0.0
O373 O 0.34111 0.77896 0.96526 0.0
C374 C 0.36597 0.79949 0.05152 0.0
O375 O 0.34743 0.75728 0.09219 0.0
O376 O 0.33725 0.77825 0.12757 0.0
In377 In 0.95652 0.58403 0.83185 0.0
O378 O 0.92883 0.58815 0.84462 0.0
O379 O 0.94371 0.60906 0.82682 0.0
C380 C 0.95222 0.55143 0.81635 0.0
C381 C 0.96936 0.5899 0.91988 0.0
C382 C 0.97236 0.59038 0.74866 0.0
O383 O 0.94018 0.56134 0.82112 0.0
O384 O 0.96644 0.55788 0.82111 0.0
O385 O 0.9799 0.58951 0.78799 0.0
O386 O 0.95684 0.58846 0.75148 0.0
C387 C 0.92951 0.6036 0.83764 0.0
O388 O 0.97144 0.59958 0.88517 0.0
O389 O 0.96143 0.57686 0.90985 0.0
In390 In 0.15633 0.21728 0.57138 0.0
O391 O 0.14708 0.23413 0.63143 0.0
O392 O 0.15559 0.20974 0.64852 0.0
C393 C 0.15237 0.23403 0.48989 0.0
C394 C 0.13285 0.19417 0.56136 0.0
C395 C 0.18961 0.21799 0.56935 0.0
O396 O 0.14998 0.24085 0.52994 0.0
O397 O 0.1563 0.21887 0.49141 0.0
O398 O 0.18162 0.20507 0.55764 0.0
O399 O 0.18079 0.22994 0.5835 0.0
C400 C 0.14956 0.22326 0.66322 0.0
O401 O 0.14793 0.19027 0.56801 0.0
O402 O 0.12994 0.20955 0.55856 0.0
In403 In 0.5283 0.40933 0.33086 0.0
O404 O 0.51246 0.40034 0.39436 0.0
O405 O 0.53239 0.417 0.40741 0.0
C406 C 0.50849 0.40219 0.25585 0.0
C407 C 0.55466 0.38904 0.33334 0.0
C408 C 0.53522 0.44082 0.30605 0.0
O409 O 0.50296 0.40851 0.29375 0.0
O410 O 0.52368 0.39845 0.25719 0.0
O411 O 0.54533 0.42903 0.30096 0.0
O412 O 0.52148 0.43684 0.32452 0.0
C413 C 0.52086 0.40833 0.42467 0.0
O414 O 0.55565 0.40439 0.32515 0.0
O415 O 0.54005 0.38356 0.33919 0.0
H416 H 0.28454 0.30168 0.97855 0.0
H417 H 0.28422 0.25765 0.88929 0.0
H418 H 0.25421 0.25455 0.90242 0.0
H419 H 0.2572 0.28694 0.06435 0.0
H420 H 0.24626 0.30617 0.07422 0.0
H421 H 0.26741 0.30651 0.05346 0.0
H422 H 0.25867 0.32418 0.98073 0.0
H423 H 0.23747 0.32405 1.00153 0.0
H424 H 0.24228 0.31687 0.94239 0.0
H425 H 0.22585 0.25356 0.93321 0.0
H426 H 0.19915 0.25621 0.97515 0.0
H427 H 0.21626 0.30164 0.04222 0.0
C428 C 0.27803 0.29167 0.96082 0.0
C429 C 0.28669 0.27991 0.93285 0.0
C430 C 0.27784 0.2668 0.91085 0.0
C431 C 0.26077 0.26494 0.918 0.0
C432 C 0.25267 0.27638 0.94687 0.0
C433 C 0.26085 0.28965 0.96745 0.0
C434 C 0.24917 0.29953 0.99913 0.0
C435 C 0.25539 0.29979 0.05085 0.0
C436 C 0.24675 0.31721 0.97977 0.0
C437 C 0.23337 0.28935 0.9943 0.0
C438 C 0.23578 0.27609 0.96382 0.0
C439 C 0.22365 0.26406 0.95637 0.0
C440 C 0.2086 0.26561 0.98062 0.0
C441 C 0.20571 0.27916 0.01155 0.0
C442 C 0.21815 0.29132 0.01809 0.0
H443 H 0.98196 0.96195 0.25605 0.0
H444 H 0.92888 0.95388 0.27131 0.0
H445 H 0.92396 0.98393 0.26101 0.0
H446 H 0.9837 0.00087 0.31867 0.0
H447 H -0.00098 0.00981 0.27953 0.0
H448 H 0.99839 0.98766 0.28845 0.0
H449 H 0.99567 0.98318 0.19751 0.0
H450 H 0.9963 0.00531 0.18831 0.0
H451 H 0.97912 0.99333 0.16559 0.0
H452 H 0.92481 0.01468 0.24988 0.0
H453 H 0.9313 0.04428 0.23657 0.0
H454 H 0.9838 0.03227 0.22707 0.0
C455 C 0.96931 0.96652 0.25728 0.0
C456 C 0.95579 0.95565 0.26455 0.0
C457 C 0.9394 0.96204 0.26576 0.0
C458 C 0.93649 0.97906 0.26 0.0
C459 C 0.95009 0.98946 0.25292 0.0
C460 C 0.96617 0.98346 0.25137 0.0
C461 C 0.97856 0.99729 0.24276 0.0
C462 C 0.99063 -0.001 0.28487 0.0
C463 C 0.98796 0.99462 0.19574 0.0
C464 C 0.96692 0.012 0.23972 0.0
C465 C 0.95056 0.00721 0.24585 0.0
C466 C 0.93756 0.0186 0.24492 0.0
C467 C 0.94137 0.03536 0.2374 0.0
C468 C 0.95804 0.04051 0.23072 0.0
C469 C 0.97094 0.02865 0.23192 0.0
H470 H 0.21146 0.72821 0.48023 0.0
H471 H 0.19929 0.67573 0.48519 0.0
H472 H 0.22882 0.66911 0.50064 0.0
H473 H 0.2508 0.72408 0.42165 0.0
H474 H 0.26049 0.74049 0.45529 0.0
H475 H 0.23844 0.74097 0.44449 0.0
H476 H 0.23297 0.74301 0.53517 0.0
H477 H 0.255 0.74253 0.54624 0.0
H478 H 0.24159 0.72751 0.57428 0.0
H479 H 0.25985 0.66833 0.51473 0.0
H480 H 0.28983 0.67358 0.52803 0.0
H481 H 0.28111 0.72657 0.51493 0.0
C482 C 0.21501 0.71532 0.48449 0.0
C483 C 0.20315 0.70247 0.48143 0.0
C484 C 0.20823 0.68576 0.48742 0.0
C485 C 0.22495 0.68188 0.49616 0.0
C486 C 0.23635 0.69487 0.49896 0.0
C487 C 0.23157 0.71125 0.49344 0.0
C488 C 0.24617 0.72293 0.49848 0.0
C489 C 0.24915 0.73269 0.45222 0.0
C490 C 0.24379 0.73468 0.54108 0.0
C491 C 0.25993 0.71057 0.50752 0.0
C492 C 0.25407 0.69444 0.50759 0.0
C493 C 0.26459 0.68091 0.51486 0.0
C494 C 0.28156 0.684 0.52233 0.0
C495 C 0.28774 0.70046 0.52258 0.0
C496 C 0.27674 0.71385 0.51508 0.0
H497 H 0.51407 0.03525 0.75851 0.0
H498 H 0.56597 0.04615 0.78668 0.0
H499 H 0.57366 0.01796 0.75971 0.0
H500 H 0.51466 0.99282 0.79631 0.0
H501 H 0.50076 0.98582 0.75024 0.0
H502 H 0.49944 0.00683 0.7718 0.0
H503 H 0.50323 0.01783 0.68583 0.0
H504 H 0.50466 0.99683 0.66405 0.0
H505 H 0.5211 0.01143 0.65176 0.0
H506 H 0.57555 0.9884 0.73212 0.0
H507 H 0.57152 0.95947 0.70499 0.0
H508 H 0.51853 0.96838 0.69183 0.0
C509 C 0.52705 0.03167 0.75916 0.0
C510 C 0.53944 0.04279 0.77484 0.0
C511 C 0.5563 0.03776 0.7748 0.0
C512 C 0.56078 0.02181 0.75952 0.0
C513 C 0.54826 0.01117 0.74401 0.0
C514 C 0.53175 0.01589 0.74356 0.0
C515 C 0.52073 0.00211 0.72504 0.0
C516 C 0.50816 0.99657 0.76313 0.0
C517 C 0.51192 0.00737 0.67893 0.0
C518 C 0.5336 0.98882 0.71567 0.0
C519 C 0.54941 0.99429 0.72686 0.0
C520 C 0.56326 0.98401 0.72285 0.0
C521 C 0.56085 0.96763 0.70743 0.0
C522 C 0.54475 0.96179 0.69599 0.0
C523 C 0.53101 0.9726 0.69969 0.0
H524 H 0.71745 0.70262 0.02252 0.0
H525 H 0.70916 0.75284 0.07352 0.0
H526 H 0.7389 0.75914 0.06235 0.0
H527 H 0.75789 0.69703 0.07689 0.0
H528 H 0.76614 0.68538 0.0275 0.0
H529 H 0.74422 0.6847 0.04036 0.0
H530 H 0.73777 0.69424 0.95433 0.0
H531 H 0.75967 0.69503 0.94128 0.0
H532 H 0.74692 0.71316 0.93219 0.0
H533 H 0.7692 0.76026 0.04418 0.0
H534 H 0.79856 0.75587 0.02217 0.0
H535 H 0.78733 0.70491 0.9831 0.0
C536 C 0.72193 0.71489 0.03162 0.0
C537 C 0.71103 0.72724 0.04894 0.0
C538 C 0.71732 0.74319 0.06026 0.0
C539 C 0.73418 0.7469 0.054 0.0
C540 C 0.74457 0.73452 0.03645 0.0
C541 C 0.73874 0.71882 0.02559 0.0
C542 C 0.75256 0.70783 0.00694 0.0
C543 C 0.75537 0.69285 0.0399 0.0
C544 C 0.74901 0.70224 0.95564 0.0
C545 C 0.76704 0.71983 0.00894 0.0
C546 C 0.76212 0.73516 0.02602 0.0
C547 C 0.77323 0.74831 0.03087 0.0
C548 C 0.78985 0.7457 0.0182 0.0
C549 C 0.79519 0.73006 1.00096 0.0
C550 C 0.7836 0.717 0.99618 0.0
H551 H 0.01526 0.96387 0.7733 0.0
H552 H 0.06664 0.95113 0.74373 0.0
H553 H 0.07296 0.98074 0.7291 0.0
H554 H 0.01142 0.99513 0.68388 0.0
H555 H -0.0016 0.00843 0.71956 0.0
H556 H 0.9981 0.98631 0.72883 0.0
H557 H 0.00526 0.9907 0.81782 0.0
H558 H 0.00559 0.01284 0.80881 0.0
H559 H 0.02346 0.00254 0.83367 0.0
H560 H 0.07354 0.01179 0.71711 0.0
H561 H 0.06816 0.04188 0.70749 0.0
H562 H 0.01637 0.03391 0.74419 0.0
C563 C 0.02786 0.96731 0.76391 0.0
C564 C 0.04048 0.95525 0.7597 0.0
C565 C 0.05679 0.96021 0.74714 0.0
C566 C 0.0605 0.97698 0.73882 0.0
C567 C 0.04775 0.98858 0.74318 0.0
C568 C 0.03176 0.98395 0.75537 0.0
C569 C 0.02024 -0.00122 0.75696 0.0
C570 C 0.00622 0.99705 0.7201 0.0
C571 C 0.01323 0.00136 0.80732 0.0
C572 C 0.03223 0.01245 0.74356 0.0
C573 C 0.04806 0.00636 0.73592 0.0
C574 C 0.0612 0.01672 0.72303 0.0
C575 C 0.05804 0.03375 0.71766 0.0
C576 C 0.04187 0.04017 0.72504 0.0
C577 C 0.02887 0.02935 0.73825 0.0
H578 H 0.71597 0.26685 0.49838 0.0
H579 H 0.70806 0.32001 0.48725 0.0
H580 H 0.73714 0.32495 0.512 0.0
H581 H 0.74247 0.26839 0.60262 0.0
H582 H 0.7555 0.25159 0.58245 0.0
H583 H 0.73399 0.25238 0.56494 0.0
H584 H 0.74272 0.25107 0.47626 0.0
H585 H 0.76424 0.2503 0.49349 0.0
H586 H 0.75714 0.26623 0.45334 0.0
H587 H 0.76758 0.3239 0.53391 0.0
H588 H 0.7967 0.31691 0.55416 0.0
H589 H 0.78403 0.26452 0.55343 0.0
C590 C 0.72033 0.27953 0.50135 0.0
C591 C 0.70983 0.29306 0.49083 0.0
C592 C 0.71595 0.30948 0.49524 0.0
C593 C 0.73242 0.3124 0.50924 0.0
C594 C 0.7425 0.29877 0.51908 0.0
C595 C 0.73665 0.28266 0.51565 0.0
C596 C 0.75 0.27017 0.52781 0.0
C597 C 0.7452 0.26004 0.5721 0.0
C598 C 0.75375 0.25878 0.48518 0.0
C599 C 0.76436 0.28174 0.53803 0.0
C600 C 0.75983 0.29819 0.53277 0.0
C601 C 0.77123 0.31107 0.5386 0.0
C602 C 0.78772 0.307 0.55 0.0
C603 C 0.79253 0.29021 0.55567 0.0
C604 C 0.78065 0.27749 0.54988 0.0
H605 H 0.48368 0.95976 0.22432 0.0
H606 H 0.4313 0.94714 0.21741 0.0
H607 H 0.42411 0.97553 0.24436 0.0
H608 H 0.48123 0.98539 0.32966 0.0
H609 H 0.49652 -1e-05 0.30844 0.0
H610 H 0.49741 0.9786 0.28979 0.0
H611 H 0.49671 0.98788 0.20154 0.0
H612 H 0.49583 0.00928 0.21991 0.0
H613 H 0.48003 0.00102 0.18112 0.0
H614 H 0.4228 0.00567 0.26914 0.0
H615 H 0.42742 0.0351 0.29062 0.0
H616 H 0.48073 0.02743 0.28237 0.0
C617 C 0.47069 0.96293 0.2286 0.0
C618 C 0.45802 0.95131 0.21874 0.0
C619 C 0.44118 0.95591 0.22482 0.0
C620 C 0.43699 0.97197 0.24012 0.0
C621 C 0.44982 0.98316 0.24938 0.0
C622 C 0.46632 0.97881 0.24398 0.0
C623 C 0.47776 0.99315 0.25555 0.0
C624 C 0.48888 0.98903 0.29841 0.0
C625 C 0.48819 0.99813 0.21193 0.0
C626 C 0.46513 0.00635 0.26783 0.0
C627 C 0.44907 0.00036 0.26415 0.0
C628 C 0.43531 0.01046 0.27245 0.0
C629 C 0.43806 0.02713 0.28457 0.0
C630 C 0.45443 0.03348 0.28832 0.0
C631 C 0.46808 0.02288 0.28015 0.0
H632 H 0.71648 0.79542 0.52167 0.0
H633 H 0.70791 0.74298 0.54796 0.0
H634 H 0.73742 0.73713 0.531 0.0
H635 H 0.74551 0.79028 0.42523 0.0
H636 H 0.75843 0.80748 0.44301 0.0
H637 H 0.73657 0.8076 0.45676 0.0
H638 H 0.74329 0.8117 0.54612 0.0
H639 H 0.76517 0.81168 0.53261 0.0
H640 H 0.75695 0.79723 0.57555 0.0
H641 H 0.76768 0.7369 0.51111 0.0
H642 H 0.79717 0.74251 0.49313 0.0
H643 H 0.78621 0.79513 0.48058 0.0
C644 C 0.72083 0.78272 0.5239 0.0
C645 C 0.70994 0.76964 0.53608 0.0
C646 C 0.71607 0.75318 0.53874 0.0
C647 C 0.73279 0.74972 0.52904 0.0
C648 C 0.74319 0.76287 0.51685 0.0
C649 C 0.7375 0.77905 0.51449 0.0
C650 C 0.75137 0.79092 0.50137 0.0
C651 C 0.74775 0.79958 0.45376 0.0
C652 C 0.75437 0.80363 0.5413 0.0
C653 C 0.76574 0.77888 0.49694 0.0
C654 C 0.76072 0.76276 0.50573 0.0
C655 C 0.77177 0.74947 0.50412 0.0
C656 C 0.78848 0.75278 0.4938 0.0
C657 C 0.79395 0.76924 0.48544 0.0
C658 C 0.78237 0.78241 0.48668 0.0
H659 H 0.47881 0.46711 0.7993 0.0
H660 H 0.42637 0.45633 0.78115 0.0
H661 H 0.42189 0.48493 0.7509 0.0
H662 H 0.47447 0.50933 0.83773 0.0
H663 H 0.49271 0.51625 0.80619 0.0
H664 H 0.49141 0.49516 0.82712 0.0
H665 H 0.49685 0.48445 0.74154 0.0
H666 H 0.49806 0.50551 0.72028 0.0
H667 H 0.48354 0.4912 0.69377 0.0
H668 H 0.42349 0.51508 0.72295 0.0
H669 H 0.43099 0.54383 0.6997 0.0
H670 H 0.48252 0.53369 0.73453 0.0
C671 C 0.46634 0.47076 0.7893 0.0
C672 C 0.4529 0.45958 0.79279 0.0
C673 C 0.43682 0.46478 0.77888 0.0
C674 C 0.43418 0.48096 0.76163 0.0
C675 C 0.44778 0.49165 0.75833 0.0
C676 C 0.46354 0.48671 0.77177 0.0
C677 C 0.47618 0.50033 0.76423 0.0
C678 C 0.48415 0.50558 0.81164 0.0
C679 C 0.48944 0.49505 0.72778 0.0
C680 C 0.4651 0.51381 0.74463 0.0
C681 C 0.44875 0.50865 0.74149 0.0
C682 C 0.43627 0.51921 0.7251 0.0
C683 C 0.44063 0.53548 0.71195 0.0
C684 C 0.45734 0.54092 0.7151 0.0
C685 C 0.46966 0.52985 0.73136 0.0
H686 H 0.71027 0.23446 0.97798 0.0
H687 H 0.70141 0.18345 0.93486 0.0
H688 H 0.73025 0.17622 0.95679 0.0
H689 H 0.75338 0.23689 0.93794 0.0
H690 H 0.75967 0.24945 0.98786 0.0
H691 H 0.7387 0.25073 0.96579 0.0
H692 H 0.72751 0.24385 0.04996 0.0
H693 H 0.74844 0.24236 0.07217 0.0
H694 H 0.73433 0.22515 0.07929 0.0
H695 H 0.7595 0.17431 0.98697 0.0
H696 H 0.78762 0.17804 0.0205 0.0
H697 H 0.77713 0.23025 0.04478 0.0
C698 C 0.71448 0.22183 0.97244 0.0
C699 C 0.70368 0.20951 0.95454 0.0
C700 C 0.70954 0.19308 0.94835 0.0
C701 C 0.72587 0.18885 0.96077 0.0
C702 C 0.73611 0.20122 0.97926 0.0
C703 C 0.73069 0.2174 0.9848 0.0
C704 C 0.74398 0.22822 0.00685 0.0
C705 C 0.74925 0.24214 0.97255 0.0
C706 C 0.73822 0.23531 0.05492 0.0
C707 C 0.75769 0.21558 0.01325 0.0
C708 C 0.75291 0.20009 0.99702 0.0
C709 C 0.76342 0.18639 0.99961 0.0
C710 C 0.77932 0.18862 0.01884 0.0
C711 C 0.7845 0.20442 0.03528 0.0
C712 C 0.77348 0.21802 0.03261 0.0
H713 H 0.03799 0.47812 0.14216 0.0
H714 H 0.06236 0.45279 0.25888 0.0
H715 H 0.06373 0.4792 0.30355 0.0
H716 H 0.06156 0.51815 0.15534 0.0
H717 H 0.04357 0.53023 0.13917 0.0
H718 H 0.04647 0.50977 0.1145 0.0
H719 H 0.01736 0.50125 0.14557 0.0
H720 H 0.01449 0.52155 0.17095 0.0
H721 H 0.01272 0.50337 0.20801 0.0
H722 H 0.05773 0.50703 0.34055 0.0
H723 H 0.04874 0.53548 0.36245 0.0
H724 H 0.03054 0.54314 0.21912 0.0
C725 C 0.04406 0.47827 0.17652 0.0
C726 C 0.05012 0.46352 0.19715 0.0
C727 C 0.05784 0.46406 0.24232 0.0
C728 C 0.05859 0.47897 0.26801 0.0
C729 C 0.05193 0.49323 0.24739 0.0
C730 C 0.04523 0.4931 0.20212 0.0
C731 C 0.03833 0.50995 0.18879 0.0
C732 C 0.04807 0.51747 0.14698 0.0
C733 C 0.01962 0.50895 0.1777 0.0
C734 C 0.04155 0.51937 0.23436 0.0
C735 C 0.04934 0.50952 0.26785 0.0
C736 C 0.05205 0.51502 0.31423 0.0
C737 C 0.04682 0.53109 0.32646 0.0
C738 C 0.03922 0.54144 0.2922 0.0
C739 C 0.03669 0.53554 0.24559 0.0
H740 H 0.27943 0.19577 0.46601 0.0
H741 H 0.29256 0.24715 0.49427 0.0
H742 H 0.26517 0.25171 0.53117 0.0
H743 H 0.23693 0.20425 0.43412 0.0
H744 H 0.22888 0.18552 0.46063 0.0
H745 H 0.24985 0.18602 0.43832 0.0
H746 H 0.26071 0.17665 0.5208 0.0
H747 H 0.23977 0.17631 0.54351 0.0
H748 H 0.25542 0.18861 0.57285 0.0
H749 H 0.237 0.25081 0.56561 0.0
H750 H 0.20787 0.2456 0.58731 0.0
H751 H 0.21191 0.19515 0.53372 0.0
C752 C 0.27649 0.20796 0.47998 0.0
C753 C 0.28807 0.22111 0.47748 0.0
C754 C 0.28381 0.23693 0.49569 0.0
C755 C 0.26835 0.23961 0.51703 0.0
C756 C 0.25726 0.22638 0.51942 0.0
C757 C 0.26096 0.21094 0.5008 0.0
C758 C 0.24635 0.19917 0.50583 0.0
C759 C 0.24014 0.19341 0.45681 0.0
C760 C 0.25084 0.18431 0.53765 0.0
C761 C 0.23387 0.21048 0.52995 0.0
C762 C 0.24059 0.22602 0.53805 0.0
C763 C 0.23156 0.23871 0.55943 0.0
C764 C 0.21503 0.23559 0.57173 0.0
C765 C 0.20764 0.21998 0.56213 0.0
C766 C 0.21728 0.20717 0.5417 0.0
H767 H 0.51429 0.46762 0.30193 0.0
H768 H 0.56499 0.45208 0.27338 0.0
H769 H 0.57159 0.48011 0.24353 0.0
H770 H 0.50979 0.49321 0.19842 0.0
H771 H 0.49763 0.50889 0.22816 0.0
H772 H 0.4969 0.48768 0.24842 0.0
H773 H 0.50544 0.49712 0.33308 0.0
H774 H 0.50611 0.51837 0.31316 0.0
H775 H 0.5241 0.50922 0.3409 0.0
H776 H 0.57276 0.50959 0.21708 0.0
H777 H 0.56843 0.53903 0.19581 0.0
H778 H 0.51683 0.53526 0.23979 0.0
C779 C 0.52679 0.47017 0.28967 0.0
C780 C 0.53915 0.45775 0.29005 0.0
C781 C 0.55535 0.46146 0.27341 0.0
C782 C 0.55922 0.47732 0.25637 0.0
C783 C 0.54673 0.48926 0.25608 0.0
C784 C 0.53085 0.48592 0.27228 0.0
C785 C 0.51971 0.50097 0.26761 0.0
C786 C 0.50515 0.49747 0.23362 0.0
C787 C 0.51348 0.50676 0.3166 0.0
C788 C 0.53183 0.51327 0.24635 0.0
C789 C 0.54734 0.50626 0.24007 0.0
C790 C 0.56067 0.51524 0.22169 0.0
C791 C 0.55809 0.53191 0.20972 0.0
C792 C 0.5423 0.53934 0.21602 0.0
C793 C 0.529 0.52984 0.23427 0.0
H794 H 0.28177 0.76511 0.03335 0.0
H795 H 0.29272 0.81785 0.02736 0.0
H796 H 0.26306 0.82366 0.01059 0.0
H797 H 0.25317 0.7647 0.93744 0.0
H798 H 0.23971 0.74939 0.96393 0.0
H799 H 0.26152 0.74955 0.97809 0.0
H800 H 0.25452 0.75173 0.06787 0.0
H801 H 0.23267 0.75149 0.05401 0.0
H802 H 0.24127 0.76829 0.0885 0.0
H803 H 0.23224 0.82347 0.99324 0.0
H804 H 0.20276 0.81736 0.97555 0.0
H805 H 0.21261 0.76463 0.99051 0.0
C806 C 0.27792 0.77791 0.02905 0.0
C807 C 0.28947 0.79106 0.03195 0.0
C808 C 0.284 0.80761 0.02545 0.0
C809 C 0.26722 0.81102 0.01593 0.0
C810 C 0.25617 0.79771 0.01281 0.0
C811 C 0.26132 0.78149 0.01914 0.0
C812 C 0.24716 0.76936 0.01238 0.0
C813 C 0.2506 0.75756 0.97046 0.0
C814 C 0.2437 0.75965 0.05844 0.0
C815 C 0.2332 0.78127 1.00113 0.0
C816 C 0.2386 0.79757 1.00179 0.0
C817 C 0.22788 0.81076 0.99261 0.0
C818 C 0.21118 0.80717 0.98259 0.0
C819 C 0.20546 0.79053 0.98152 0.0
C820 C 0.21666 0.77746 0.99085 0.0
H821 H 0.97945 0.46637 0.6971 0.0
H822 H 0.92801 0.45041 0.70503 0.0
H823 H 0.9206 0.47692 0.74442 0.0
H824 H 0.98068 0.48605 0.81096 0.0
H825 H 0.99407 0.50268 0.79158 0.0
H826 H 0.99515 0.48269 0.76296 0.0
H827 H 0.98972 0.49648 0.6811 0.0
H828 H 0.9888 0.51652 0.70939 0.0
H829 H 0.97167 0.50946 0.67342 0.0
H830 H 0.91898 0.50546 0.78199 0.0
H831 H 0.92316 0.53379 0.81397 0.0
H832 H 0.97593 0.53008 0.78391 0.0
C833 C 0.96659 0.4685 0.70671 0.0
C834 C 0.95425 0.45644 0.69776 0.0
C835 C 0.93761 0.45957 0.71141 0.0
C836 C 0.93332 0.47454 0.73388 0.0
C837 C 0.94585 0.4861 0.74269 0.0
C838 C 0.96215 0.48322 0.7295 0.0
C839 C 0.97335 0.4975 0.74336 0.0
C840 C 0.98659 0.49189 0.77936 0.0
C841 C 0.98135 0.50546 0.69919 0.0
C842 C 0.9608 0.50897 0.76611 0.0
C843 C 0.945 0.50221 0.7654 0.0
C844 C 0.9313 0.51082 0.78302 0.0
C845 C 0.9338 0.52687 0.80115 0.0
C846 C 0.94988 0.53402 0.80172 0.0
C847 C 0.96353 0.52483 0.78455 0.0
H848 H 0.14361 0.27585 0.9011 0.0
H849 H 0.14316 0.22915 0.97807 0.0
H850 H 0.14074 0.21396 0.90195 0.0
H851 H 0.11474 0.26303 0.80418 0.0
H852 H 0.12625 0.27459 0.76026 0.0
H853 H 0.12555 0.28175 0.82096 0.0
H854 H 0.15774 0.28187 0.82366 0.0
H855 H 0.15856 0.27457 0.76329 0.0
H856 H 0.16894 0.2631 0.80961 0.0
H857 H 0.1423 0.20392 0.81785 0.0
H858 H 0.14633 0.19965 0.73173 0.0
H859 H 0.1452 0.25295 0.7094 0.0
C860 C 0.14257 0.26244 0.90206 0.0
C861 C 0.1435 0.25365 0.94543 0.0
C862 C 0.14235 0.23612 0.94521 0.0
C863 C 0.14097 0.2274 0.90218 0.0
C864 C 0.1406 0.23644 0.85991 0.0
C865 C 0.14116 0.25359 0.85954 0.0
C866 C 0.1418 0.26033 0.80929 0.0
C867 C 0.12615 0.27053 0.79802 0.0
C868 C 0.15771 0.27056 0.801 0.0
C869 C 0.1421 0.24427 0.78139 0.0
C870 C 0.14127 0.23064 0.81125 0.0
C871 C 0.14264 0.21448 0.79407 0.0
C872 C 0.14501 0.21219 0.74517 0.0
C873 C 0.14596 0.22598 0.71402 0.0
C874 C 0.14424 0.24219 0.73235 0.0
H875 H 0.02128 0.91226 0.95142 0.0
H876 H 0.98362 0.88301 0.87942 0.0
H877 H 0.97002 0.87742 0.95684 0.0
H878 H 0.02468 0.88628 0.05505 0.0
H879 H 0.02764 0.90348 0.09521 0.0
H880 H 0.03431 0.90515 0.03425 0.0
H881 H 0.01639 0.93165 0.02374 0.0
H882 H 0.00978 0.93013 0.08473 0.0
H883 H 0.99454 0.93093 0.03784 0.0
H884 H 0.96024 0.87572 0.04239 0.0
H885 H 0.95487 0.87826 0.12868 0.0
H886 H -0.00043 0.9079 0.14419 0.0
C887 C 0.01013 0.90471 0.95184 0.0
C888 C 0.00344 0.89811 0.90941 0.0
C889 C 0.98892 0.88822 0.91153 0.0
C890 C 0.98115 0.88495 0.95531 0.0
C891 C 0.98815 0.89158 0.99655 0.0
C892 C 0.00233 0.90125 0.99511 0.0
C893 C 0.00736 0.90698 0.04432 0.0
C894 C 0.02451 0.90005 0.058 0.0
C895 C 0.00699 0.92605 0.04785 0.0
C896 C 0.99371 0.89916 0.07379 0.0
C897 C 0.98275 0.89032 0.04563 0.0
C898 C 0.96881 0.88251 0.06477 0.0
C899 C 0.96588 0.884 0.1138 0.0
C900 C 0.97688 0.89315 0.14313 0.0
C901 C 0.99107 0.90062 0.12279 0.0
H902 H 0.33738 0.75116 0.41286 0.0
H903 H 0.35978 0.70278 0.38988 0.0
H904 H 0.3632 0.70917 0.30489 0.0
H905 H 0.3139 0.75151 0.30762 0.0
H906 H 0.3165 0.77332 0.29523 0.0
H907 H 0.31742 0.76595 0.35559 0.0
H908 H 0.34655 0.7792 0.36581 0.0
H909 H 0.34566 0.78676 0.30554 0.0
H910 H 0.36286 0.77404 0.32442 0.0
H911 H 0.36229 0.71949 0.22232 0.0
H912 H 0.35765 0.73368 0.14586 0.0
H913 H 0.33549 0.77541 0.22043 0.0
C914 C 0.34335 0.74212 0.39003 0.0
C915 C 0.3484 0.72652 0.40785 0.0
C916 C 0.35583 0.71482 0.37686 0.0
C917 C 0.35787 0.71832 0.32856 0.0
C918 C 0.35238 0.7336 0.31173 0.0
C919 C 0.34535 0.74538 0.34135 0.0
C920 C 0.33961 0.76038 0.31321 0.0
C921 C 0.32074 0.76293 0.31822 0.0
C922 C 0.34925 0.77602 0.32813 0.0
C923 C 0.34423 0.755 0.26324 0.0
C924 C 0.3517 0.73956 0.2634 0.0
C925 C 0.3566 0.73166 0.22166 0.0
C926 C 0.35386 0.73979 0.17841 0.0
C927 C 0.34624 0.75563 0.17725 0.0
C928 C 0.34141 0.76333 0.22029 0.0
H929 H 0.49149 0.08617 0.67523 0.0
H930 H 0.53408 0.11875 0.65932 0.0
H931 H 0.52925 0.11984 0.57249 0.0
H932 H 0.49921 0.06223 0.57299 0.0
H933 H 0.47764 0.0596 0.55741 0.0
H934 H 0.48345 0.06265 0.61858 0.0
H935 H 0.46368 0.08799 0.62445 0.0
H936 H 0.45763 0.08488 0.56345 0.0
H937 H 0.46568 0.10471 0.58223 0.0
H938 H 0.52033 0.11629 0.48645 0.0
H939 H 0.50771 0.10877 0.409 0.0
H940 H 0.47185 0.07766 0.48217 0.0
C941 C 0.49959 0.09383 0.65363 0.0
C942 C 0.51305 0.10252 0.674 0.0
C943 C 0.5236 0.1121 0.64441 0.0
C944 C 0.52098 0.11276 0.59508 0.0
C945 C 0.50782 0.1037 0.57595 0.0
C946 C 0.49726 0.09447 0.60439 0.0
C947 C 0.48454 0.0852 0.57499 0.0
C948 C 0.48633 0.0663 0.58139 0.0
C949 C 0.46683 0.09105 0.58699 0.0
C950 C 0.48963 0.09056 0.52554 0.0
C951 C 0.50302 0.1013 0.5267 0.0
C952 C 0.50983 0.1079 0.48515 0.0
C953 C 0.50264 0.10352 0.44136 0.0
C954 C 0.48889 0.09256 0.43958 0.0
C955 C 0.48244 0.08596 0.48231 0.0
H956 H 0.16378 0.77077 0.78766 0.0
H957 H 0.13192 0.73505 0.85869 0.0
H958 H 0.12591 0.72174 0.78118 0.0
H959 H 0.13849 0.7757 0.68338 0.0
H960 H 0.15596 0.77758 0.64358 0.0
H961 H 0.15789 0.78411 0.70459 0.0
H962 H 0.18318 0.76457 0.71566 0.0
H963 H 0.18142 0.75809 0.6546 0.0
H964 H 0.18113 0.74283 0.70146 0.0
H965 H 0.12384 0.7121 0.69564 0.0
H966 H 0.12613 0.70668 0.60933 0.0
H967 H 0.15864 0.74936 0.59448 0.0
C968 C 0.1556 0.76009 0.787 0.0
C969 C 0.14837 0.75388 0.82922 0.0
C970 C 0.13764 0.73997 0.82678 0.0
C971 C 0.13412 0.73236 0.78293 0.0
C972 C 0.14136 0.7389 0.7419 0.0
C973 C 0.15188 0.75246 0.74362 0.0
C974 C 0.15805 0.75712 0.69451 0.0
C975 C 0.15224 0.77467 0.68072 0.0
C976 C 0.17707 0.75555 0.69139 0.0
C977 C 0.14946 0.744 0.6648 0.0
C978 C 0.13989 0.73361 0.69276 0.0
C979 C 0.13122 0.72023 0.6734 0.0
C980 C 0.13257 0.71727 0.62436 0.0
C981 C 0.14244 0.72768 0.59517 0.0
C982 C 0.15081 0.74133 0.61575 0.0
H983 H 0.51041 0.90066 0.03436 0.0
H984 H 0.46046 0.9198 0.01376 0.0
H985 H 0.46472 0.91978 0.92733 0.0
H986 H 0.52925 0.92494 0.93946 0.0
H987 H 0.54333 0.90868 0.92163 0.0
H988 H 0.5364 0.90995 0.98243 0.0
H989 H 0.52582 0.87961 0.97756 0.0
H990 H 0.53255 0.87831 0.91656 0.0
H991 H 0.51123 0.87391 0.93173 0.0
H992 H 0.4736 0.91701 0.84377 0.0
H993 H 0.48791 0.91445 0.76673 0.0
H994 H 0.53268 0.89815 0.83914 0.0
C995 C 0.50045 0.90494 0.01158 0.0
C996 C 0.48509 0.91021 0.03088 0.0
C997 C 0.47235 0.91574 0.99993 0.0
C998 C 0.47459 0.9157 0.95067 0.0
C999 C 0.48972 0.91023 0.9327 0.0
C1000 C 0.50255 0.90517 0.96198 0.0
C1001 C 0.51771 0.90037 0.9329 0.0
C1002 C 0.53255 0.91166 0.94481 0.0
C1003 C 0.52208 0.88195 0.94013 0.0
C1004 C 0.51132 0.90354 0.88291 0.0
C1005 C 0.49507 0.90904 0.88383 0.0
C1006 C 0.48636 0.91278 0.84247 0.0
C1007 C 0.49457 0.91121 0.79886 0.0
C1008 C 0.51139 0.9061 0.79691 0.0
C1009 C 0.5198 0.90203 0.83954 0.0
H1010 H 0.34537 0.27354 0.10055 0.0
H1011 H 0.34065 0.22691 0.02433 0.0
H1012 H 0.34001 0.21179 0.10085 0.0
H1013 H 0.3722 0.25755 0.19542 0.0
H1014 H 0.36269 0.2704 0.24031 0.0
H1015 H 0.36349 0.27741 0.17952 0.0
H1016 H 0.33152 0.28126 0.17982 0.0
H1017 H 0.3306 0.27417 0.24044 0.0
H1018 H 0.31836 0.26397 0.1954 0.0
H1019 H 0.33742 0.20212 0.18521 0.0
H1020 H 0.33544 0.19812 0.272 0.0
H1021 H 0.34342 0.25087 0.2938 0.0
C1022 C 0.34438 0.26013 0.09997 0.0
C1023 C 0.34302 0.25136 0.05659 0.0
C1024 C 0.34176 0.23384 0.0572 0.0
C1025 C 0.34135 0.22516 0.10044 0.0
C1026 C 0.34245 0.23421 0.14262 0.0
C1027 C 0.34418 0.25128 0.14275 0.0
C1028 C 0.34496 0.25804 0.19302 0.0
C1029 C 0.36184 0.26634 0.20262 0.0
C1030 C 0.3305 0.27006 0.20272 0.0
C1031 C 0.34308 0.24212 0.22122 0.0
C1032 C 0.34157 0.22855 0.19138 0.0
C1033 C 0.33881 0.21262 0.20891 0.0
C1034 C 0.33763 0.21049 0.25822 0.0
C1035 C 0.33938 0.22417 0.28949 0.0
C1036 C 0.34224 0.24017 0.27068 0.0
H1037 H 0.02109 0.07844 0.54207 0.0
H1038 H 0.98381 0.10878 0.61203 0.0
H1039 H 0.97111 0.115 0.53384 0.0
H1040 H 0.02692 0.10443 0.44191 0.0
H1041 H 0.02959 0.08757 0.40042 0.0
H1042 H 0.0352 0.08484 0.46189 0.0
H1043 H 0.01571 0.05927 0.46796 0.0
H1044 H 0.01025 0.06176 0.4063 0.0
H1045 H 0.99421 0.0613 0.45101 0.0
H1046 H 0.96303 0.11837 0.44737 0.0
H1047 H 0.9592 0.11735 0.36019 0.0
H1048 H 0.00234 0.08532 0.34774 0.0
C1049 C 0.01012 0.08622 0.5411 0.0
C1050 C 0.00336 0.09307 0.58309 0.0
C1051 C 0.9891 0.10331 0.58026 0.0
C1052 C 0.98187 0.10697 0.53603 0.0
C1053 C 0.9891 0.1003 0.49518 0.0
C1054 C 0.00283 0.09004 0.49742 0.0
C1055 C 0.00837 0.08458 0.44844 0.0
C1056 C 0.02607 0.09073 0.43754 0.0
C1057 C 0.00705 0.06561 0.44312 0.0
C1058 C 0.99564 0.09341 0.4181 0.0
C1059 C 0.98463 0.10243 0.44565 0.0
C1060 C 0.97159 0.11137 0.42548 0.0
C1061 C 0.96956 0.11077 0.37596 0.0
C1062 C 0.98054 0.10135 0.34725 0.0
C1063 C 0.99387 0.09279 0.3687 0.0
H1064 H 0.85613 0.75604 0.10958 0.0
H1065 H 0.86577 0.70336 0.12566 0.0
H1066 H 0.86828 0.70708 0.21268 0.0
H1067 H 0.88287 0.77096 0.20851 0.0
H1068 H 0.86805 0.78672 0.22504 0.0
H1069 H 0.86979 0.78028 0.16387 0.0
H1070 H 0.8383 0.77351 0.16264 0.0
H1071 H 0.83648 0.77974 0.2238 0.0
H1072 H 0.82991 0.75927 0.2059 0.0
H1073 H 0.867 0.71623 0.29875 0.0
H1074 H 0.86153 0.72998 0.3761 0.0
H1075 H 0.85148 0.77621 0.30234 0.0
C1076 C 0.85929 0.74538 0.13127 0.0
C1077 C 0.86097 0.72946 0.11102 0.0
C1078 C 0.86459 0.7157 0.1406 0.0
C1079 C 0.86605 0.7177 0.18999 0.0
C1080 C 0.86381 0.73352 0.20908 0.0
C1081 C 0.86056 0.74713 0.18053 0.0
C1082 C 0.85697 0.76245 0.20985 0.0
C1083 C 0.87022 0.77589 0.20131 0.0
C1084 C 0.83937 0.76912 0.19995 0.0
C1085 C 0.85831 0.75527 0.25933 0.0
C1086 C 0.86252 0.73864 0.25834 0.0
C1087 C 0.86385 0.72929 0.29995 0.0
C1088 C 0.8607 0.73716 0.34365 0.0
C1089 C 0.85604 0.7541 0.34506 0.0
C1090 C 0.855 0.76322 0.30234 0.0
H1091 H 0.97593 0.08611 0.03972 0.0
H1092 H 0.01658 0.11059 0.11286 0.0
H1093 H 0.03043 0.11563 0.03529 0.0
H1094 H -0.00026 0.06576 0.95111 0.0
H1095 H 0.98451 0.06879 0.90496 0.0
H1096 H 0.97801 0.06742 0.96607 0.0
H1097 H 0.96326 0.09593 0.95853 0.0
H1098 H 0.96979 0.09743 0.89741 0.0
H1099 H 0.97492 0.11376 0.93872 0.0
H1100 H 0.04029 0.11652 0.94918 0.0
H1101 H 0.045 0.11388 0.8625 0.0
H1102 H 0.99692 0.09012 0.84717 0.0
C1103 C 0.98777 0.09251 0.03954 0.0
C1104 C 0.99529 0.09785 0.08221 0.0
C1105 C 0.01067 0.10636 0.08046 0.0
C1106 C 0.01858 0.10928 0.03663 0.0
C1107 C 0.01078 0.10382 0.99513 0.0
C1108 C 0.99565 0.09572 0.99634 0.0
C1109 C 0.98976 0.09109 0.94705 0.0
C1110 C 0.98791 0.07214 0.94202 0.0
C1111 C 0.97347 0.10009 0.93471 0.0
C1112 C 0.00408 0.09758 0.91769 0.0
C1113 C 0.01611 0.10488 0.94594 0.0
C1114 C 0.03086 0.11101 0.92674 0.0
C1115 C 0.03343 0.10946 0.87754 0.0
C1116 C 0.02124 0.10195 0.8482 0.0
C1117 C 0.00632 0.09617 0.86861 0.0
H1118 H 0.6621 0.24522 0.57427 0.0
H1119 H 0.6242 0.28346 0.57933 0.0
H1120 H 0.6184 0.27647 0.66313 0.0
H1121 H 0.64146 0.21532 0.65682 0.0
H1122 H 0.66092 0.20949 0.68376 0.0
H1123 H 0.66033 0.2158 0.6223 0.0
H1124 H 0.68251 0.23832 0.63981 0.0
H1125 H 0.683 0.23226 0.70135 0.0
H1126 H 0.6786 0.25351 0.68558 0.0
H1127 H 0.6187 0.26747 0.74806 0.0
H1128 H 0.62457 0.25643 0.82825 0.0
H1129 H 0.66277 0.22448 0.76901 0.0
C1130 C 0.65221 0.25171 0.59264 0.0
C1131 C 0.64343 0.26472 0.5703 0.0
C1132 C 0.63096 0.27335 0.5958 0.0
C1133 C 0.62758 0.26947 0.64337 0.0
C1134 C 0.63683 0.25696 0.66497 0.0
C1135 C 0.64881 0.24811 0.64042 0.0
C1136 C 0.65794 0.23626 0.67313 0.0
C1137 C 0.65498 0.21814 0.6581 0.0
C1138 C 0.67661 0.24034 0.67507 0.0
C1139 C 0.64946 0.24011 0.71997 0.0
C1140 C 0.63722 0.25197 0.71437 0.0
C1141 C 0.62813 0.25803 0.75284 0.0
C1142 C 0.63159 0.25175 0.79825 0.0
C1143 C 0.6441 0.23961 0.80482 0.0
C1144 C 0.65309 0.23371 0.76505 0.0
H1145 H 0.50989 0.91092 0.30262 0.0
H1146 H 0.47465 0.87041 0.31538 0.0
H1147 H 0.48141 0.86773 0.40064 0.0
H1148 H 0.54065 0.89541 0.39113 0.0
H1149 H 0.5447 0.916 0.41346 0.0
H1150 H 0.5389 0.91309 0.35214 0.0
H1151 H 0.51454 0.93377 0.36346 0.0
H1152 H 0.52008 0.93654 0.42492 0.0
H1153 H 0.49937 0.92996 0.40938 0.0
H1154 H 0.48993 0.8711 0.48545 0.0
H1155 H 0.50042 0.87973 0.56419 0.0
H1156 H 0.5294 0.91876 0.49734 0.0
C1157 C 0.50406 0.90112 0.32309 0.0
C1158 C 0.49195 0.89068 0.30244 0.0
C1159 C 0.48409 0.8784 0.33058 0.0
C1160 C 0.48783 0.8768 0.37899 0.0
C1161 C 0.49938 0.88766 0.39878 0.0
C1162 C 0.50748 0.89952 0.37174 0.0
C1163 C 0.51833 0.91051 0.40261 0.0
C1164 C 0.53674 0.90864 0.38903 0.0
C1165 C 0.51274 0.92877 0.39992 0.0
C1166 C 0.51483 0.90315 0.45118 0.0
C1167 C 0.50398 0.8899 0.44809 0.0
C1168 C 0.49855 0.88137 0.48831 0.0
C1169 C 0.50452 0.8864 0.53287 0.0
C1170 C 0.51569 0.89992 0.53686 0.0
C1171 C 0.52085 0.90839 0.4954 0.0
H1172 H 0.84438 0.24709 0.21852 0.0
H1173 H 0.82554 0.19726 0.24228 0.0
H1174 H 0.82815 0.20128 0.32891 0.0
H1175 H 0.874 0.2477 0.31556 0.0
H1176 H 0.86998 0.26907 0.3308 0.0
H1177 H 0.86733 0.26211 0.27039 0.0
H1178 H 0.83694 0.27279 0.27077 0.0
H1179 H 0.83955 0.2799 0.331 0.0
H1180 H 0.82289 0.2658 0.31655 0.0
H1181 H 0.83272 0.21065 0.41305 0.0
H1182 H 0.83662 0.2257 0.4889 0.0
H1183 H 0.85157 0.26969 0.41068 0.0
C1184 C 0.84085 0.23703 0.242 0.0
C1185 C 0.8348 0.22185 0.22371 0.0
C1186 C 0.83017 0.20902 0.25554 0.0
C1187 C 0.83169 0.21114 0.3048 0.0
C1188 C 0.83776 0.22621 0.32175 0.0
C1189 C 0.84211 0.239 0.29139 0.0
C1190 C 0.84756 0.25422 0.31898 0.0
C1191 C 0.8658 0.25852 0.30829 0.0
C1192 C 0.83605 0.26905 0.30872 0.0
C1193 C 0.84547 0.24801 0.36949 0.0
C1194 C 0.84002 0.23175 0.37032 0.0
C1195 C 0.83701 0.22339 0.41289 0.0
C1196 C 0.83932 0.232 0.45578 0.0
C1197 C 0.84441 0.24883 0.45567 0.0
C1198 C 0.84772 0.25681 0.4119 0.0
H1199 H 0.49631 0.08022 0.17173 0.0
H1200 H 0.4534 0.11271 0.16391 0.0
H1201 H 0.45815 0.11642 0.07768 0.0
H1202 H 0.52187 0.10183 0.08456 0.0
H1203 H 0.53023 0.08285 0.06039 0.0
H1204 H 0.52399 0.08375 0.12185 0.0
H1205 H 0.50453 0.05851 0.10849 0.0
H1206 H 0.51057 0.05765 0.04689 0.0
H1207 H 0.48893 0.05946 0.0626 0.0
H1208 H 0.4674 0.11609 0.99153 0.0
H1209 H 0.48047 0.1117 0.91271 0.0
H1210 H 0.5164 0.07845 0.97717 0.0
C1211 C 0.48808 0.08833 0.15201 0.0
C1212 C 0.47457 0.0963 0.17448 0.0
C1213 C 0.46388 0.10656 0.14734 0.0
C1214 C 0.46647 0.10872 0.09838 0.0
C1215 C 0.47973 0.10044 0.07708 0.0
C1216 C 0.49036 0.09046 0.10306 0.0
C1217 C 0.50328 0.08243 0.07143 0.0
C1218 C 0.52088 0.08806 0.08539 0.0
C1219 C 0.50173 0.06338 0.07242 0.0
C1220 C 0.49824 0.0894 0.02361 0.0
C1221 C 0.4847 0.09984 0.02753 0.0
C1222 C 0.47799 0.1079 0.98803 0.0
C1223 C 0.48545 0.10531 0.94343 0.0
C1224 C 0.49934 0.09465 0.9388 0.0
C1225 C 0.50568 0.08654 0.97947 0.0
H1226 H 0.64926 0.71962 0.88864 0.0
H1227 H 0.64414 0.76661 0.96275 0.0
H1228 H 0.64205 0.78116 0.88559 0.0
H1229 H 0.67472 0.73335 0.79833 0.0
H1230 H 0.66556 0.72099 0.75176 0.0
H1231 H 0.66455 0.71401 0.81242 0.0
H1232 H 0.63246 0.71211 0.80706 0.0
H1233 H 0.63336 0.71894 0.74608 0.0
H1234 H 0.62071 0.73002 0.78841 0.0
H1235 H 0.6448 0.79081 0.8016 0.0
H1236 H 0.64954 0.79484 0.71562 0.0
H1237 H 0.65123 0.74147 0.69545 0.0
C1238 C 0.64732 0.73293 0.8886 0.0
C1239 C 0.64686 0.74204 0.93151 0.0
C1240 C 0.64442 0.75943 0.9302 0.0
C1241 C 0.64324 0.76778 0.88659 0.0
C1242 C 0.64423 0.75848 0.84485 0.0
C1243 C 0.6459 0.74141 0.84546 0.0
C1244 C 0.64749 0.73444 0.79563 0.0
C1245 C 0.66406 0.72516 0.78919 0.0
C1246 C 0.63261 0.72321 0.78359 0.0
C1247 C 0.6471 0.75032 0.76694 0.0
C1248 C 0.64518 0.76404 0.79606 0.0
C1249 C 0.64594 0.78017 0.77833 0.0
C1250 C 0.64874 0.78233 0.72959 0.0
C1251 C 0.65058 0.76844 0.69916 0.0
C1252 C 0.64952 0.75225 0.71796 0.0
H1253 H 0.9744 0.91552 0.44886 0.0
H1254 H 0.0066 0.8789 0.38307 0.0
H1255 H 0.01918 0.87289 0.46158 0.0
H1256 H 0.00407 0.93133 0.53273 0.0
H1257 H 0.98888 0.93412 0.57918 0.0
H1258 H 0.98268 0.93546 0.51781 0.0
H1259 H 0.96048 0.91267 0.53225 0.0
H1260 H 0.96673 0.91114 0.59358 0.0
H1261 H 0.96673 0.89289 0.55642 0.0
H1262 H 0.02835 0.87122 0.5476 0.0
H1263 H 0.03389 0.87445 0.63357 0.0
H1264 H 0.99505 0.91168 0.64263 0.0
C1265 C 0.98417 0.90629 0.45084 0.0
C1266 C 0.9896 0.89771 0.40986 0.0
C1267 C 0.00232 0.88566 0.41403 0.0
C1268 C 0.00948 0.88214 0.45846 0.0
C1269 C 0.0037 0.89073 0.49826 0.0
C1270 C 0.99136 0.90258 0.49479 0.0
C1271 C 0.98734 0.91009 0.5428 0.0
C1272 C 0.99096 0.92886 0.54313 0.0
C1273 C 0.96924 0.90647 0.55709 0.0
C1274 C -0.00057 0.9007 0.57394 0.0
C1275 C 0.00876 0.88957 0.54764 0.0
C1276 C 0.02106 0.87983 0.56853 0.0
C1277 C 0.0241 0.88173 0.61738 0.0
C1278 C 0.01482 0.89322 0.64479 0.0
C1279 C 0.00219 0.90264 0.62274 0.0
H1280 H 0.6466 0.77764 0.38778 0.0
H1281 H 0.64055 0.73089 0.4625 0.0
H1282 H 0.63805 0.71627 0.38555 0.0
H1283 H 0.61803 0.76754 0.28645 0.0
H1284 H 0.63112 0.7783 0.24454 0.0
H1285 H 0.62998 0.78529 0.30535 0.0
H1286 H 0.662 0.78288 0.31223 0.0
H1287 H 0.66324 0.77572 0.25179 0.0
H1288 H 0.67192 0.76333 0.29903 0.0
H1289 H 0.64093 0.70639 0.30182 0.0
H1290 H 0.64653 0.70206 0.21637 0.0
H1291 H 0.64929 0.75534 0.19542 0.0
C1292 C 0.64429 0.76439 0.38795 0.0
C1293 C 0.64374 0.75536 0.43097 0.0
C1294 C 0.64089 0.73803 0.42988 0.0
C1295 C 0.63947 0.72964 0.38637 0.0
C1296 C 0.64064 0.73883 0.3445 0.0
C1297 C 0.64268 0.75587 0.34491 0.0
C1298 C 0.64468 0.76269 0.29504 0.0
C1299 C 0.63008 0.77413 0.28208 0.0
C1300 C 0.66146 0.77168 0.28922 0.0
C1301 C 0.64418 0.74675 0.2666 0.0
C1302 C 0.64175 0.73314 0.29582 0.0
C1303 C 0.64243 0.71696 0.27845 0.0
C1304 C 0.64572 0.71462 0.23001 0.0
C1305 C 0.64816 0.72839 0.19951 0.0
C1306 C 0.64711 0.74465 0.21791 0.0
H1307 H 0.46995 0.39597 0.66611 0.0
H1308 H 0.51468 0.41076 0.74114 0.0
H1309 H 0.52987 0.4119 0.66486 0.0
H1310 H 0.49098 0.37023 0.57509 0.0
H1311 H 0.47677 0.3765 0.52896 0.0
H1312 H 0.46982 0.37549 0.58982 0.0
H1313 H 0.46026 0.40616 0.58491 0.0
H1314 H 0.46732 0.40733 0.52428 0.0
H1315 H 0.47498 0.42193 0.56763 0.0
H1316 H 0.53927 0.41443 0.58057 0.0
H1317 H 0.54311 0.41593 0.49373 0.0
H1318 H 0.49266 0.39835 0.47266 0.0
C1319 C 0.48303 0.39913 0.66657 0.0
C1320 C 0.49117 0.40325 0.70955 0.0
C1321 C 0.50824 0.40747 0.70868 0.0
C1322 C 0.51695 0.40818 0.66553 0.0
C1323 C 0.50845 0.40445 0.62368 0.0
C1324 C 0.49194 0.39976 0.62385 0.0
C1325 C 0.4856 0.39693 0.57369 0.0
C1326 C 0.4805 0.3787 0.56647 0.0
C1327 C 0.47119 0.4088 0.56196 0.0
C1328 C 0.50102 0.40115 0.54522 0.0
C1329 C 0.51404 0.40547 0.57485 0.0
C1330 C 0.52926 0.41082 0.55704 0.0
C1331 C 0.53128 0.41172 0.50766 0.0
C1332 C 0.51821 0.40717 0.47655 0.0
C1333 C 0.50292 0.4017 0.49565 0.0
H1334 H 0.84778 0.24043 0.72078 0.0
H1335 H 0.8394 0.29309 0.74359 0.0
H1336 H 0.84096 0.28883 0.83022 0.0
H1337 H 0.82286 0.22659 0.81716 0.0
H1338 H 0.83625 0.2095 0.83279 0.0
H1339 H 0.83563 0.21687 0.77242 0.0
H1340 H 0.86753 0.22135 0.77423 0.0
H1341 H 0.86821 0.21409 0.83479 0.0
H1342 H 0.87654 0.23422 0.81994 0.0
H1343 H 0.84217 0.27882 0.91438 0.0
H1344 H 0.84149 0.26333 0.99027 0.0
H1345 H 0.84894 0.21723 0.91313 0.0
C1346 C 0.84642 0.25106 0.74405 0.0
C1347 C 0.84351 0.26708 0.72547 0.0
C1348 C 0.84162 0.28068 0.75703 0.0
C1349 C 0.84257 0.27842 0.80632 0.0
C1350 C 0.84541 0.26248 0.82358 0.0
C1351 C 0.84725 0.24901 0.79349 0.0
C1352 C 0.84931 0.23306 0.82141 0.0
C1353 C 0.83517 0.22079 0.81029 0.0
C1354 C 0.86642 0.22522 0.81203 0.0
C1355 C 0.84807 0.23966 0.87176 0.0
C1356 C 0.84601 0.25668 0.87225 0.0
C1357 C 0.84391 0.2655 0.91453 0.0
C1358 C 0.84358 0.25661 0.95744 0.0
C1359 C 0.84525 0.23912 0.9576 0.0
C1360 C 0.84781 0.23063 0.91419 0.0
H1361 H 0.98674 0.57458 0.19681 0.0
H1362 H 0.00126 0.62639 0.20565 0.0
H1363 H 0.99371 0.63024 0.12135 0.0
H1364 H 0.00306 0.56714 0.0841 0.0
H1365 H 0.98665 0.55361 0.06402 0.0
H1366 H 0.99125 0.55518 0.12648 0.0
H1367 H 0.96073 0.56336 0.14418 0.0
H1368 H 0.95594 0.56152 0.08182 0.0
H1369 H 0.95151 0.5806 0.11292 0.0
H1370 H 0.98765 0.62776 0.03423 0.0
H1371 H 0.98064 0.61984 0.95183 0.0
H1372 H 0.96956 0.56973 0.99899 0.0
C1373 C 0.98783 0.58686 0.18142 0.0
C1374 C 0.99446 0.60024 0.20799 0.0
C1375 C 0.99608 0.61601 0.18617 0.0
C1376 C 0.99189 0.6183 0.1382 0.0
C1377 C 0.98601 0.60471 0.1125 0.0
C1378 C 0.98371 0.58936 0.13347 0.0
C1379 C 0.97792 0.57663 0.09723 0.0
C1380 C 0.99047 0.5623 0.09271 0.0
C1381 C 0.96049 0.57015 0.10979 0.0
C1382 C 0.97759 0.58718 0.05253 0.0
C1383 C 0.98234 0.60332 0.06217 0.0
C1384 C 0.98369 0.61521 0.02636 0.0
C1385 C 0.97979 0.61056 0.97959 0.0
C1386 C 0.97452 0.59419 0.96896 0.0
C1387 C 0.97348 0.58236 0.00604 0.0
H1388 H 0.65055 0.24612 0.30607 0.0
H1389 H 0.67398 0.29408 0.28333 0.0
H1390 H 0.67111 0.2906 0.19698 0.0
H1391 H 0.67062 0.22599 0.20597 0.0
H1392 H 0.6528 0.21346 0.19101 0.0
H1393 H 0.6561 0.21989 0.25161 0.0
H1394 H 0.62672 0.23304 0.25308 0.0
H1395 H 0.62342 0.22682 0.19225 0.0
H1396 H 0.62124 0.24833 0.20896 0.0
H1397 H 0.66526 0.28267 0.11382 0.0
H1398 H 0.66002 0.26892 0.03702 0.0
H1399 H 0.64172 0.22531 0.1113 0.0
C1400 C 0.65511 0.25582 0.2828 0.0
C1401 C 0.66246 0.27038 0.30145 0.0
C1402 C 0.66837 0.28278 0.26992 0.0
C1403 C 0.66669 0.281 0.22075 0.0
C1404 C 0.65924 0.26665 0.20343 0.0
C1405 C 0.65379 0.25412 0.23323 0.0
C1406 C 0.64702 0.23962 0.2047 0.0
C1407 C 0.65725 0.22381 0.21386 0.0
C1408 C 0.6285 0.23679 0.2154 0.0
C1409 C 0.64956 0.24602 0.15444 0.0
C1410 C 0.6564 0.26175 0.15475 0.0
C1411 C 0.65995 0.27033 0.11298 0.0
C1412 C 0.65686 0.26244 0.06953 0.0
C1413 C 0.65047 0.24607 0.0682 0.0
C1414 C 0.64655 0.23786 0.11127 0.0
H1415 H 0.00451 0.40482 0.50539 0.0
H1416 H 0.955 0.42533 0.4881 0.0
H1417 H 0.95897 0.42601 0.40114 0.0
H1418 H 0.02389 0.42891 0.41318 0.0
H1419 H 0.03733 0.41228 0.39409 0.0
H1420 H 0.03041 0.41322 0.45491 0.0
H1421 H 0.0186 0.38337 0.44754 0.0
H1422 H 0.02535 0.38241 0.38652 0.0
H1423 H 0.00386 0.37871 0.40117 0.0
H1424 H 0.96842 0.42464 0.31567 0.0
H1425 H 0.98331 0.42261 0.23879 0.0
H1426 H 0.02646 0.40294 0.31213 0.0
C1427 C 0.99453 0.40949 0.48329 0.0
C1428 C 0.97946 0.41503 0.50352 0.0
C1429 C 0.96668 0.42104 0.4734 0.0
C1430 C 0.96878 0.42142 0.42392 0.0
C1431 C 0.98373 0.41575 0.40504 0.0
C1432 C 0.99642 0.40997 0.43378 0.0
C1433 C 0.01138 0.40488 0.40455 0.0
C1434 C 0.02665 0.41546 0.41745 0.0
C1435 C 0.015 0.38623 0.4103 0.0
C1436 C 0.00516 0.4088 0.355 0.0
C1437 C 0.98915 0.41496 0.35593 0.0
C1438 C 0.98094 0.41977 0.31446 0.0
C1439 C 0.98945 0.41852 0.27097 0.0
C1440 C 0.00599 0.41256 0.26945 0.0
C1441 C 0.01378 0.40745 0.31205 0.0
H1442 H 0.83206 0.75641 0.83158 0.0
H1443 H 0.8836 0.74288 0.854 0.0
H1444 H 0.89023 0.75142 0.77159 0.0
H1445 H 0.82822 0.74194 0.71714 0.0
H1446 H 0.81533 0.75861 0.69559 0.0
H1447 H 0.81504 0.75326 0.75764 0.0
H1448 H 0.82268 0.78353 0.78019 0.0
H1449 H 0.82276 0.78906 0.7181 0.0
H1450 H 0.84082 0.79306 0.75424 0.0
H1451 H 0.89003 0.75721 0.68299 0.0
H1452 H 0.88376 0.76339 0.59845 0.0
H1453 H 0.83292 0.77511 0.6368 0.0
C1454 C 0.84481 0.75566 0.81946 0.0
C1455 C 0.85734 0.74905 0.84889 0.0
C1456 C 0.87388 0.74811 0.83197 0.0
C1457 C 0.87773 0.75285 0.78522 0.0
C1458 C 0.86496 0.75885 0.75649 0.0
C1459 C 0.84892 0.76066 0.77338 0.0
C1460 C 0.83732 0.76688 0.73507 0.0
C1461 C 0.82315 0.75443 0.72583 0.0
C1462 C 0.8305 0.78416 0.74766 0.0
C1463 C 0.84919 0.7677 0.69349 0.0
C1464 C 0.86507 0.76298 0.70634 0.0
C1465 C 0.87775 0.76134 0.67276 0.0
C1466 C 0.87408 0.76476 0.62492 0.0
C1467 C 0.85796 0.76994 0.61153 0.0
C1468 C 0.84545 0.77153 0.64635 0.0
H1469 H 0.52703 0.58194 0.02353 0.0
H1470 H 0.48939 0.6115 0.09456 0.0
H1471 H 0.47565 0.61655 0.01703 0.0
H1472 H 0.53033 0.60759 0.91943 0.0
H1473 H 0.53347 0.5903 0.8797 0.0
H1474 H 0.54007 0.58886 0.94074 0.0
H1475 H 0.52234 0.56225 0.95175 0.0
H1476 H 0.51577 0.56354 0.89069 0.0
H1477 H 0.5005 0.56276 0.93754 0.0
H1478 H 0.46568 0.61749 0.93166 0.0
H1479 H 0.46049 0.61474 0.84533 0.0
H1480 H 0.50562 0.58573 0.83057 0.0
C1481 C 0.51584 0.58941 0.02287 0.0
C1482 C 0.50917 0.59625 0.06501 0.0
C1483 C 0.49464 0.60611 0.06263 0.0
C1484 C 0.4868 0.60905 0.01881 0.0
C1485 C 0.49378 0.60218 0.97785 0.0
C1486 C 0.50801 0.59262 0.97956 0.0
C1487 C 0.51315 0.58679 0.93055 0.0
C1488 C 0.53027 0.59381 0.91681 0.0
C1489 C 0.51292 0.56771 0.92747 0.0
C1490 C 0.49948 0.59441 0.90087 0.0
C1491 C 0.48839 0.6032 0.92877 0.0
C1492 C 0.47436 0.61076 0.90945 0.0
C1493 C 0.47153 0.60914 0.86045 0.0
C1494 C 0.48275 0.60017 0.83134 0.0
C1495 C 0.49698 0.59289 0.85185 0.0
H1496 H 0.34988 0.21598 0.60241 0.0
H1497 H 0.3576 0.26194 0.52499 0.0
H1498 H 0.35996 0.2771 0.60116 0.0
H1499 H 0.32417 0.2319 0.68861 0.0
H1500 H 0.33206 0.21959 0.73712 0.0
H1501 H 0.33348 0.21193 0.6772 0.0
H1502 H 0.36534 0.20847 0.68615 0.0
H1503 H 0.36401 0.21594 0.74645 0.0
H1504 H 0.37777 0.22593 0.70472 0.0
H1505 H 0.3574 0.28769 0.68458 0.0
H1506 H 0.35203 0.2928 0.76972 0.0
H1507 H 0.34667 0.23983 0.79332 0.0
C1508 C 0.35253 0.22916 0.60146 0.0
C1509 C 0.35364 0.2378 0.55783 0.0
C1510 C 0.35686 0.25508 0.55802 0.0
C1511 C 0.35819 0.26378 0.6011 0.0
C1512 C 0.35647 0.25497 0.64352 0.0
C1513 C 0.35396 0.23799 0.64405 0.0
C1514 C 0.35137 0.23163 0.69422 0.0
C1515 C 0.33425 0.22328 0.69957 0.0
C1516 C 0.36546 0.21979 0.70874 0.0
C1517 C 0.35222 0.24776 0.72176 0.0
C1518 C 0.35527 0.26105 0.69185 0.0
C1519 C 0.35533 0.27735 0.70844 0.0
C1520 C 0.35217 0.28013 0.75678 0.0
C1521 C 0.34905 0.26669 0.78804 0.0
C1522 C 0.34929 0.2503 0.77033 0.0
H1523 H 0.47858 0.58342 0.52108 0.0
H1524 H 0.52078 0.60388 0.59716 0.0
H1525 H 0.53497 0.60921 0.52052 0.0
H1526 H 0.50178 0.56313 0.42836 0.0
H1527 H 0.48667 0.56782 0.38304 0.0
H1528 H 0.48017 0.56547 0.44393 0.0
H1529 H 0.46671 0.59471 0.44124 0.0
H1530 H 0.47334 0.59723 0.3805 0.0
H1531 H 0.47919 0.61238 0.42463 0.0
H1532 H 0.54451 0.61211 0.43518 0.0
H1533 H 0.54907 0.61151 0.34824 0.0
H1534 H 0.50014 0.58991 0.32863 0.0
C1535 C 0.49087 0.5889 0.5217 0.0
C1536 C 0.49864 0.59317 0.56505 0.0
C1537 C 0.51465 0.60045 0.56432 0.0
C1538 C 0.52276 0.60358 0.521 0.0
C1539 C 0.51463 0.59942 0.47884 0.0
C1540 C 0.49906 0.59219 0.47891 0.0
C1541 C 0.49297 0.58892 0.42885 0.0
C1542 C 0.49024 0.57023 0.42057 0.0
C1543 C 0.47711 0.59891 0.4182 0.0
C1544 C 0.50759 0.59535 0.40047 0.0
C1545 C 0.51996 0.60138 0.42991 0.0
C1546 C 0.53488 0.6075 0.41181 0.0
C1547 C 0.53733 0.60716 0.36241 0.0
C1548 C 0.5249 0.6008 0.33173 0.0
C1549 C 0.50977 0.59507 0.35113 0.0
H1550 H 0.16464 0.72516 0.29042 0.0
H1551 H 0.12971 0.75891 0.35737 0.0
H1552 H 0.1242 0.77195 0.27914 0.0
H1553 H 0.18165 0.75413 0.20601 0.0
H1554 H 0.18351 0.73883 0.15954 0.0
H1555 H 0.18481 0.73259 0.22089 0.0
H1556 H 0.16093 0.7115 0.20733 0.0
H1557 H 0.15944 0.71779 0.14604 0.0
H1558 H 0.14136 0.71867 0.18383 0.0
H1559 H 0.12277 0.78132 0.19308 0.0
H1560 H 0.12583 0.78658 0.10686 0.0
H1561 H 0.161 0.7459 0.09676 0.0
C1562 C 0.15592 0.73539 0.28878 0.0
C1563 C 0.14766 0.74111 0.33 0.0
C1564 C 0.13623 0.7544 0.32623 0.0
C1565 C 0.13299 0.76183 0.28197 0.0
C1566 C 0.14122 0.75573 0.24191 0.0
C1567 C 0.15247 0.74282 0.245 0.0
C1568 C 0.15958 0.73844 0.19676 0.0
C1569 C 0.17851 0.74117 0.19576 0.0
C1570 C 0.15505 0.72054 0.18267 0.0
C1571 C 0.15065 0.75095 0.16588 0.0
C1572 C 0.14012 0.76084 0.19253 0.0
C1573 C 0.13091 0.77359 0.17188 0.0
C1574 C 0.13271 0.77646 0.1229 0.0
C1575 C 0.14354 0.76656 0.0951 0.0
C1576 C 0.15245 0.75352 0.11695 0.0
H1577 H 0.97718 0.4004 0.8164 0.0
H1578 H 0.02165 0.41366 0.73772 0.0
H1579 H 0.03661 0.41803 0.81352 0.0
H1580 H 0.98144 0.4303 0.90669 0.0
H1581 H 0.97386 0.41718 0.95387 0.0
H1582 H 0.96698 0.4138 0.89375 0.0
H1583 H 0.97697 0.38323 0.89762 0.0
H1584 H 0.98367 0.38644 0.95803 0.0
H1585 H 0.99815 0.37882 0.91424 0.0
H1586 H 0.04606 0.42277 0.89764 0.0
H1587 H 0.05005 0.42575 0.98415 0.0
H1588 H -0.00066 0.40934 0.00814 0.0
C1589 C 0.99016 0.40392 0.81505 0.0
C1590 C 0.9983 0.40661 0.77115 0.0
C1591 C 0.01522 0.41141 0.77094 0.0
C1592 C 0.02378 0.41399 0.8138 0.0
C1593 C 0.01525 0.41164 0.85645 0.0
C1594 C -0.00113 0.40654 0.85742 0.0
C1595 C 0.9924 0.40536 0.90795 0.0
C1596 C 0.97781 0.41738 0.91602 0.0
C1597 C 0.98751 0.38739 0.92017 0.0
C1598 C 0.00767 0.41078 0.93534 0.0
C1599 C 0.0207 0.41435 0.90493 0.0
C1600 C 0.03598 0.4199 0.92177 0.0
C1601 C 0.03809 0.42162 0.97099 0.0
C1602 C 0.025 0.41779 0.0029 0.0
C1603 C 0.00957 0.41238 0.98466 0.0
H1604 H 0.34197 0.77635 0.87184 0.0
H1605 H 0.34245 0.72986 0.95017 0.0
H1606 H 0.34162 0.71434 0.87482 0.0
H1607 H 0.31387 0.76336 0.78092 0.0
H1608 H 0.32429 0.77424 0.73348 0.0
H1609 H 0.32553 0.78198 0.79346 0.0
H1610 H 0.35768 0.78123 0.78922 0.0
H1611 H 0.35655 0.77356 0.72911 0.0
H1612 H 0.36801 0.76214 0.77339 0.0
H1613 H 0.3393 0.70382 0.79317 0.0
H1614 H 0.33711 0.69844 0.70756 0.0
H1615 H 0.33888 0.75147 0.67931 0.0
C1616 C 0.34204 0.7629 0.87301 0.0
C1617 C 0.34227 0.75429 0.91684 0.0
C1618 C 0.34229 0.73671 0.91703 0.0
C1619 C 0.3418 0.72778 0.87444 0.0
C1620 C 0.34139 0.73661 0.83194 0.0
C1621 C 0.34163 0.75375 0.83064 0.0
C1622 C 0.34092 0.76004 0.77977 0.0
C1623 C 0.32522 0.77052 0.77144 0.0
C1624 C 0.35673 0.76982 0.76714 0.0
C1625 C 0.3401 0.74372 0.75286 0.0
C1626 C 0.34034 0.73043 0.78395 0.0
C1627 C 0.33922 0.7141 0.76837 0.0
C1628 C 0.33791 0.7112 0.7196 0.0
C1629 C 0.33782 0.72455 0.68675 0.0
C1630 C 0.33899 0.74105 0.70362 0.0
H1631 H 0.95927 0.5882 0.65848 0.0
H1632 H 0.00523 0.59722 0.735 0.0
H1633 H 0.02025 0.59947 0.65874 0.0
H1634 H 0.97689 0.56278 0.56798 0.0
H1635 H 0.96394 0.57064 0.52082 0.0
H1636 H 0.95646 0.57073 0.58117 0.0
H1637 H 0.95104 0.60238 0.57572 0.0
H1638 H 0.95846 0.60239 0.51525 0.0
H1639 H 0.96772 0.61607 0.55852 0.0
H1640 H 0.03051 0.59957 0.57561 0.0
H1641 H 0.03573 0.59763 0.48977 0.0
H1642 H 0.98326 0.58841 0.46487 0.0
C1643 C 0.97246 0.59085 0.65912 0.0
C1644 C 0.98109 0.59263 0.70272 0.0
C1645 C 0.99837 0.59587 0.7021 0.0
C1646 C 0.007 0.59718 0.65896 0.0
C1647 C 0.99818 0.5952 0.61669 0.0
C1648 C 0.9813 0.59214 0.61626 0.0
C1649 C 0.97499 0.58994 0.5657 0.0
C1650 C 0.96764 0.57248 0.55851 0.0
C1651 C 0.9623 0.6035 0.55306 0.0
C1652 C 0.99101 0.59211 0.53783 0.0
C1653 C 0.00418 0.59519 0.56817 0.0
C1654 C 0.0203 0.59725 0.55148 0.0
C1655 C 0.02312 0.59608 0.50253 0.0
C1656 C 0.00991 0.59287 0.47045 0.0
C1657 C 0.99359 0.59096 0.48843 0.0
H1658 H 0.15629 0.24288 0.20809 0.0
H1659 H 0.16215 0.29597 0.22896 0.0
H1660 H 0.15927 0.29218 0.31565 0.0
H1661 H 0.12624 0.23589 0.30058 0.0
H1662 H 0.13499 0.21628 0.31865 0.0
H1663 H 0.13712 0.22315 0.25801 0.0
H1664 H 0.16914 0.22023 0.26388 0.0
H1665 H 0.16709 0.21319 0.32435 0.0
H1666 H 0.18011 0.23079 0.31089 0.0
H1667 H 0.15508 0.28269 0.40003 0.0
H1668 H 0.15291 0.26772 0.47668 0.0
H1669 H 0.15103 0.22084 0.40076 0.0
C1670 C 0.157 0.25368 0.23096 0.0
C1671 C 0.15941 0.26971 0.21192 0.0
C1672 C 0.16038 0.28355 0.2429 0.0
C1673 C 0.15865 0.28155 0.29214 0.0
C1674 C 0.15612 0.2656 0.30982 0.0
C1675 C 0.15553 0.25188 0.28027 0.0
C1676 C 0.15336 0.23603 0.30851 0.0
C1677 C 0.13695 0.22733 0.29567 0.0
C1678 C 0.16832 0.22438 0.30149 0.0
C1679 C 0.15285 0.243 0.35848 0.0
C1680 C 0.15424 0.2601 0.35848 0.0
C1681 C 0.15403 0.26929 0.40052 0.0
C1682 C 0.15271 0.26072 0.44381 0.0
C1683 C 0.15184 0.24317 0.44452 0.0
C1684 C 0.15171 0.23427 0.40124 0.0
H1685 H 0.51952 0.3934 0.16727 0.0
H1686 H 0.47598 0.41104 0.24311 0.0
H1687 H 0.46139 0.41494 0.16666 0.0
H1688 H 0.51762 0.4219 0.07428 0.0
H1689 H 0.52425 0.40775 0.02835 0.0
H1690 H 0.53072 0.40447 0.08886 0.0
H1691 H 0.51836 0.37475 0.08743 0.0
H1692 H 0.51209 0.37783 0.02656 0.0
H1693 H 0.49695 0.37181 0.07055 0.0
H1694 H 0.45255 0.4194 0.08226 0.0
H1695 H 0.44913 0.4221 0.99553 0.0
H1696 H 0.49848 0.40165 0.97408 0.0
C1697 C 0.50676 0.39767 0.16789 0.0
C1698 C 0.49882 0.40181 0.21117 0.0
C1699 C 0.48224 0.40766 0.21041 0.0
C1700 C 0.47388 0.40997 0.16716 0.0
C1701 C 0.48227 0.40632 0.12505 0.0
C1702 C 0.49826 0.40008 0.12504 0.0
C1703 C 0.50474 0.39788 0.07478 0.0
C1704 C 0.52025 0.40864 0.06609 0.0
C1705 C 0.50824 0.37947 0.06421 0.0
C1706 C 0.49001 0.40416 0.04652 0.0
C1707 C 0.47717 0.40892 0.07626 0.0
C1708 C 0.46245 0.41556 0.05863 0.0
C1709 C 0.46067 0.41713 0.00928 0.0
C1710 C 0.47354 0.4121 0.97803 0.0
C1711 C 0.48843 0.40561 0.99706 0.0
H1712 H 0.13331 0.33431 0.08368 0.0
H1713 H 0.10027 0.29166 0.08045 0.0
H1714 H 0.07644 0.30988 0.09767 0.0
H1715 H 0.11337 0.35506 0.18026 0.0
H1716 H 0.11618 0.37563 0.15627 0.0
H1717 H 0.13074 0.35942 0.14172 0.0
H1718 H 0.12557 0.36434 0.05187 0.0
H1719 H 0.11111 0.38067 0.06614 0.0
H1720 H 0.10464 0.36357 0.02912 0.0
H1721 H 0.05639 0.33225 0.11707 0.0
H1722 H 0.04093 0.35794 0.13496 0.0
H1723 H 0.0868 0.38622 0.12652 0.0
C1724 C 0.12103 0.32887 0.0861 0.0
C1725 C 0.1186 0.31161 0.08066 0.0
C1726 C 0.10239 0.30488 0.0845 0.0
C1727 C 0.08878 0.3151 0.09431 0.0
C1728 C 0.0916 0.33201 0.10023 0.0
C1729 C 0.10727 0.3389 0.09608 0.0
C1730 C 0.10683 0.35746 0.10486 0.0
C1731 C 0.11741 0.36216 0.14837 0.0
C1732 C 0.11236 0.36707 0.06034 0.0
C1733 C 0.08848 0.35986 0.11464 0.0
C1734 C 0.07995 0.345 0.11179 0.0
C1735 C 0.06289 0.34399 0.11935 0.0
C1736 C 0.05424 0.35862 0.12958 0.0
C1737 C 0.06269 0.37402 0.13218 0.0
C1738 C 0.08004 0.3746 0.12493 0.0
H1739 H 0.89307 0.81039 0.435 0.0
H1740 H 0.84667 0.83772 0.42805 0.0
H1741 H 0.86148 0.86151 0.39165 0.0
H1742 H 0.92009 0.84544 0.46104 0.0
H1743 H 0.9367 0.83752 0.42449 0.0
H1744 H 0.92253 0.82336 0.45305 0.0
H1745 H 0.91573 0.81015 0.37125 0.0
H1746 H 0.9297 0.82439 0.34234 0.0
H1747 H 0.90832 0.82317 0.32362 0.0
H1748 H 0.88139 0.88178 0.35308 0.0
H1749 H 0.90484 0.89717 0.31703 0.0
H1750 H 0.93769 0.85579 0.34757 0.0
C1751 C 0.88605 0.82148 0.4266 0.0
C1752 C 0.86877 0.82231 0.4346 0.0
C1753 C 0.85996 0.83692 0.42244 0.0
C1754 C 0.86825 0.85044 0.4017 0.0
C1755 C 0.88528 0.84906 0.39335 0.0
C1756 C 0.89407 0.83496 0.40562 0.0
C1757 C 0.91212 0.83623 0.39125 0.0
C1758 C 0.92353 0.83561 0.43507 0.0
C1759 C 0.91673 0.82268 0.35496 0.0
C1760 C 0.91214 0.85324 0.36871 0.0
C1761 C 0.89658 0.8605 0.37038 0.0
C1762 C 0.89362 0.87624 0.35166 0.0
C1763 C 0.90699 0.88484 0.33116 0.0
C1764 C 0.92302 0.87761 0.32939 0.0
C1765 C 0.92554 0.86158 0.34817 0.0
H1766 H 0.36816 0.65956 0.57502 0.0
H1767 H 0.39665 0.70529 0.567 0.0
H1768 H 0.42185 0.69015 0.59171 0.0
H1769 H 0.38749 0.64385 0.67849 0.0
H1770 H 0.38736 0.62248 0.65938 0.0
H1771 H 0.37171 0.6366 0.63802 0.0
H1772 H 0.37973 0.62968 0.55096 0.0
H1773 H 0.39532 0.61542 0.57206 0.0
H1774 H 0.40102 0.63198 0.53212 0.0
H1775 H 0.44347 0.67059 0.62112 0.0
H1776 H 0.4606 0.6474 0.65082 0.0
H1777 H 0.41812 0.61434 0.63988 0.0
C1778 C 0.37976 0.66633 0.57782 0.0
C1779 C 0.38051 0.68356 0.56901 0.0
C1780 C 0.39584 0.69205 0.57353 0.0
C1781 C 0.41021 0.68358 0.58754 0.0
C1782 C 0.409 0.66665 0.59678 0.0
C1783 C 0.39422 0.65807 0.59187 0.0
C1784 C 0.39623 0.63998 0.60542 0.0
C1785 C 0.38503 0.63547 0.64785 0.0
C1786 C 0.39288 0.6286 0.56258 0.0
C1787 C 0.41441 0.63981 0.61919 0.0
C1788 C 0.42153 0.65531 0.61385 0.0
C1789 C 0.43809 0.65835 0.62519 0.0
C1790 C 0.44768 0.64513 0.64217 0.0
C1791 C 0.44066 0.62911 0.6476 0.0
C1792 C 0.42381 0.62646 0.636 0.0
H1793 H 0.60045 0.19338 0.90779 0.0
H1794 H 0.63975 0.16226 0.9646 0.0
H1795 H 0.62266 0.13735 0.9495 0.0
H1796 H 0.56532 0.16842 0.95272 0.0
H1797 H 0.55309 0.17196 0.90003 0.0
H1798 H 0.56776 0.18743 0.91958 0.0
H1799 H 0.58193 0.18667 0.83684 0.0
H1800 H 0.56744 0.1711 0.81719 0.0
H1801 H 0.58946 0.16718 0.8138 0.0
H1802 H 0.60254 0.11587 0.92229 0.0
H1803 H 0.57995 0.09903 0.88775 0.0
H1804 H 0.55366 0.14408 0.84858 0.0
C1805 C 0.6053 0.18135 0.91795 0.0
C1806 C 0.62136 0.1797 0.93753 0.0
C1807 C 0.62743 0.16376 0.94972 0.0
C1808 C 0.61783 0.14956 0.94128 0.0
C1809 C 0.60221 0.15156 0.92084 0.0
C1810 C 0.5959 0.16704 0.90969 0.0
C1811 C 0.57909 0.16568 0.88585 0.0
C1812 C 0.56551 0.17386 0.91638 0.0
C1813 C 0.57952 0.17309 0.83543 0.0
C1814 C 0.5771 0.147 0.88451 0.0
C1815 C 0.59054 0.13911 0.90508 0.0
C1816 C 0.59185 0.12188 0.90654 0.0
C1817 C 0.579 0.11244 0.88665 0.0
C1818 C 0.56508 0.12028 0.86561 0.0
C1819 C 0.56413 0.13777 0.86466 0.0
H1820 H 0.05124 0.64166 0.35218 0.0
H1821 H 0.08202 0.60072 0.304 0.0
H1822 H 0.1072 0.61717 0.32144 0.0
H1823 H 0.07833 0.67545 0.30835 0.0
H1824 H 0.07407 0.68834 0.35932 0.0
H1825 H 0.05855 0.67398 0.33821 0.0
H1826 H 0.05703 0.66073 0.42207 0.0
H1827 H 0.07268 0.67487 0.44328 0.0
H1828 H 0.07572 0.65279 0.44908 0.0
H1829 H 0.12887 0.63696 0.35087 0.0
H1830 H 0.14568 0.65941 0.38642 0.0
H1831 H 0.10071 0.68741 0.41553 0.0
C1832 C 0.06327 0.63631 0.34428 0.0
C1833 C 0.06472 0.61997 0.32655 0.0
C1834 C 0.08066 0.61327 0.31736 0.0
C1835 C 0.09502 0.6225 0.32719 0.0
C1836 C 0.09317 0.6384 0.34595 0.0
C1837 C 0.07771 0.64533 0.35395 0.0
C1838 C 0.07914 0.66232 0.37665 0.0
C1839 C 0.07211 0.67582 0.34365 0.0
C1840 C 0.07064 0.66268 0.42567 0.0
C1841 C 0.09781 0.66371 0.38112 0.0
C1842 C 0.10568 0.64982 0.36299 0.0
C1843 C 0.12287 0.64798 0.36471 0.0
C1844 C 0.13229 0.66075 0.38516 0.0
C1845 C 0.12448 0.67512 0.40365 0.0
C1846 C 0.10702 0.67658 0.40152 0.0
H1847 H 0.60967 0.80894 0.586 0.0
H1848 H 0.65321 0.8383 0.55077 0.0
H1849 H 0.63798 0.8639 0.57249 0.0
H1850 H 0.57871 0.83819 0.54386 0.0
H1851 H 0.56451 0.83357 0.59165 0.0
H1852 H 0.57864 0.81785 0.57068 0.0
H1853 H 0.58992 0.8142 0.65638 0.0
H1854 H 0.57598 0.83007 0.67751 0.0
H1855 H 0.59801 0.83197 0.68775 0.0
H1856 H 0.61814 0.88611 0.60011 0.0
H1857 H 0.59487 0.90343 0.62903 0.0
H1858 H 0.56484 0.85915 0.64835 0.0
C1859 C 0.61593 0.82077 0.58214 0.0
C1860 C 0.63256 0.8217 0.56643 0.0
C1861 C 0.64042 0.83737 0.5625 0.0
C1862 C 0.6319 0.85194 0.57487 0.0
C1863 C 0.6156 0.85054 0.59122 0.0
C1864 C 0.60768 0.83536 0.59466 0.0
C1865 C 0.5903 0.83714 0.61441 0.0
C1866 C 0.57727 0.83135 0.57797 0.0
C1867 C 0.58846 0.82779 0.66183 0.0
C1868 C 0.58965 0.85572 0.62165 0.0
C1869 C 0.60434 0.86324 0.60801 0.0
C1870 C 0.60658 0.88036 0.61092 0.0
C1871 C 0.59333 0.89007 0.6275 0.0
C1872 C 0.57813 0.88258 0.64112 0.0
C1873 C 0.57638 0.86518 0.63861 0.0
H1874 H 0.41071 0.38101 0.84842 0.0
H1875 H 0.45656 0.35356 0.86984 0.0
H1876 H 0.44057 0.32973 0.9001 0.0
H1877 H 0.38952 0.36625 0.95219 0.0
H1878 H 0.3695 0.36467 0.92383 0.0
H1879 H 0.3844 0.37975 0.90322 0.0
H1880 H 0.38269 0.36761 0.81799 0.0
H1881 H 0.3676 0.35268 0.83818 0.0
H1882 H 0.38628 0.34574 0.80889 0.0
H1883 H 0.42007 0.30924 0.92947 0.0
H1884 H 0.39578 0.29191 0.94887 0.0
H1885 H 0.36293 0.33222 0.90792 0.0
C1886 C 0.41734 0.36992 0.85908 0.0
C1887 C 0.43486 0.36912 0.85682 0.0
C1888 C 0.44313 0.35443 0.87116 0.0
C1889 C 0.43418 0.34086 0.88867 0.0
C1890 C 0.41697 0.34216 0.89142 0.0
C1891 C 0.40858 0.35619 0.87649 0.0
C1892 C 0.38997 0.35413 0.88236 0.0
C1893 C 0.38294 0.36696 0.9175 0.0
C1894 C 0.38112 0.35509 0.83398 0.0
C1895 C 0.38927 0.33674 0.90284 0.0
C1896 C 0.40502 0.33016 0.90811 0.0
C1897 C 0.40766 0.31422 0.92552 0.0
C1898 C 0.39378 0.3045 0.93658 0.0
C1899 C 0.3775 0.31075 0.92999 0.0
C1900 C 0.37524 0.3272 0.91379 0.0
H1901 H 0.88788 0.18768 0.11153 0.0
H1902 H 0.84888 0.15371 0.06759 0.0
H1903 H 0.86728 0.12994 0.08434 0.0
H1904 H 0.92287 0.16329 0.06455 0.0
H1905 H 0.93618 0.16846 0.11392 0.0
H1906 H 0.92038 0.18286 0.09492 0.0
H1907 H 0.90827 0.18328 0.18032 0.0
H1908 H 0.92391 0.16878 0.19948 0.0
H1909 H 0.90223 0.16401 0.20804 0.0
H1910 H 0.8889 0.11 0.11086 0.0
H1911 H 0.91305 0.09486 0.14285 0.0
H1912 H 0.93817 0.14169 0.16949 0.0
C1913 C 0.88333 0.17525 0.1047 0.0
C1914 C 0.86701 0.17249 0.08817 0.0
C1915 C 0.86138 0.15607 0.08015 0.0
C1916 C 0.87173 0.1425 0.08953 0.0
C1917 C 0.88764 0.14561 0.10671 0.0
C1918 C 0.89349 0.16156 0.11391 0.0
C1919 C 0.91089 0.16141 0.13442 0.0
C1920 C 0.92331 0.16948 0.09988 0.0
C1921 C 0.91134 0.16987 0.18347 0.0
C1922 C 0.91375 0.14289 0.13841 0.0
C1923 C 0.9002 0.13403 0.12204 0.0
C1924 C 0.89966 0.11677 0.1234 0.0
C1925 C 0.9134 0.1083 0.14178 0.0
C1926 C 0.92745 0.11713 0.15854 0.0
C1927 C 0.92761 0.13464 0.15674 0.0
H1928 H 0.88795 0.68975 0.8998 0.0
H1929 H 0.84245 0.66324 0.93285 0.0
H1930 H 0.85522 0.63712 0.90378 0.0
H1931 H 0.89831 0.66643 0.79179 0.0
H1932 H 0.92027 0.66711 0.80413 0.0
H1933 H 0.90699 0.68373 0.82401 0.0
H1934 H 0.91731 0.67945 0.91048 0.0
H1935 H 0.9306 0.66285 0.8909 0.0
H1936 H 0.91561 0.65919 0.93738 0.0
H1937 H 0.8741 0.61359 0.87785 0.0
H1938 H 0.89726 0.59479 0.85636 0.0
H1939 H 0.92973 0.63736 0.83847 0.0
C1940 C 0.88059 0.67849 0.9005 0.0
C1941 C 0.86426 0.67843 0.91865 0.0
C1942 C 0.855 0.66349 0.91897 0.0
C1943 C 0.86213 0.64864 0.90247 0.0
C1944 C 0.87839 0.6491 0.88528 0.0
C1945 C 0.88743 0.66369 0.88388 0.0
C1946 C 0.90488 0.66087 0.8658 0.0
C1947 C 0.90777 0.67008 0.81862 0.0
C1948 C 0.91786 0.66588 0.90339 0.0
C1949 C 0.90446 0.64231 0.8585 0.0
C1950 C 0.88907 0.63571 0.86956 0.0
C1951 C 0.88612 0.61865 0.8684 0.0
C1952 C 0.89932 0.60808 0.85623 0.0
C1953 C 0.9152 0.61466 0.84546 0.0
C1954 C 0.91765 0.63199 0.84586 0.0
H1955 H 0.13362 0.1624 0.59616 0.0
H1956 H 0.10114 0.19908 0.53192 0.0
H1957 H 0.07696 0.18116 0.54782 0.0
H1958 H 0.10936 0.1247 0.55714 0.0
H1959 H 0.11337 0.11415 0.61246 0.0
H1960 H 0.12845 0.12851 0.58883 0.0
H1961 H 0.12772 0.14491 0.66805 0.0
H1962 H 0.11244 0.13083 0.69163 0.0
H1963 H 0.10817 0.1528 0.68978 0.0
H1964 H 0.05624 0.16194 0.58124 0.0
H1965 H 0.03992 0.14085 0.62412 0.0
H1966 H 0.08546 0.11597 0.66616 0.0
C1967 C 0.12148 0.16634 0.58392 0.0
C1968 C 0.11919 0.18204 0.5626 0.0
C1969 C 0.10312 0.18705 0.54817 0.0
C1970 C 0.08932 0.17696 0.557 0.0
C1971 C 0.09186 0.16188 0.57999 0.0
C1972 C 0.10753 0.15641 0.59264 0.0
C1973 C 0.10659 0.14032 0.62055 0.0
C1974 C 0.11493 0.12608 0.59309 0.0
C1975 C 0.11418 0.14235 0.67045 0.0
C1976 C 0.08794 0.13799 0.62303 0.0
C1977 C 0.07973 0.15054 0.59914 0.0
C1978 C 0.06249 0.15185 0.59928 0.0
C1979 C 0.05335 0.13991 0.6241 0.0
C1980 C 0.06147 0.1268 0.64827 0.0
C1981 C 0.07898 0.12579 0.64751 0.0
H1982 H 0.55668 0.35584 0.3559 0.0
H1983 H 0.58662 0.39947 0.32549 0.0
H1984 H 0.61201 0.38369 0.34359 0.0
H1985 H 0.58008 0.34156 0.45341 0.0
H1986 H 0.57828 0.31979 0.43923 0.0
H1987 H 0.5623 0.33406 0.42081 0.0
H1988 H 0.56595 0.32468 0.33328 0.0
H1989 H 0.58182 0.31024 0.35149 0.0
H1990 H 0.58627 0.32548 0.3063 0.0
H1991 H 0.63381 0.36429 0.37114 0.0
H1992 H 0.65128 0.34125 0.4001 0.0
H1993 H 0.60762 0.30975 0.41034 0.0
C1994 C 0.5686 0.36196 0.35233 0.0
C1995 C 0.5697 0.37886 0.33935 0.0
C1996 C 0.5855 0.38651 0.33534 0.0
C1997 C 0.6 0.37768 0.3456 0.0
C1998 C 0.5985 0.36117 0.35938 0.0
C1999 C 0.58327 0.35327 0.36216 0.0
C2000 C 0.58521 0.33549 0.37878 0.0
C2001 C 0.57592 0.33256 0.42585 0.0
C2002 C 0.57948 0.32325 0.34015 0.0
C2003 C 0.60386 0.33479 0.3857 0.0
C2004 C 0.61124 0.34976 0.3744 0.0
C2005 C 0.62824 0.35242 0.37961 0.0
C2006 C 0.63803 0.33931 0.39632 0.0
C2007 C 0.63078 0.32376 0.40725 0.0
C2008 C 0.61348 0.3215 0.40192 0.0
H2009 H 0.36762 0.83094 0.08876 0.0
H2010 H 0.398 0.79104 0.03196 0.0
H2011 H 0.42331 0.80701 0.05071 0.0
H2012 H 0.39378 0.86504 0.04685 0.0
H2013 H 0.39033 0.87739 0.0994 0.0
H2014 H 0.37456 0.86313 0.07937 0.0
H2015 H 0.37461 0.84898 0.16214 0.0
H2016 H 0.3905 0.86308 0.18226 0.0
H2017 H 0.39382 0.84097 0.18583 0.0
H2018 H 0.44523 0.82646 0.079 0.0
H2019 H 0.46256 0.84911 0.11108 0.0
H2020 H 0.41805 0.87655 0.1492 0.0
C2021 C 0.37959 0.82569 0.07969 0.0
C2022 C 0.38088 0.80979 0.05884 0.0
C2023 C 0.39675 0.80323 0.04784 0.0
C2024 C 0.41119 0.81218 0.05843 0.0
C2025 C 0.40952 0.82767 0.07983 0.0
C2026 C 0.39415 0.83446 0.09 0.0
C2027 C 0.39588 0.85125 0.11383 0.0
C2028 C 0.38818 0.86502 0.08301 0.0
C2029 C 0.38825 0.85105 0.16399 0.0
C2030 C 0.41462 0.85273 0.11579 0.0
C2031 C 0.42223 0.83898 0.09604 0.0
C2032 C 0.43943 0.83735 0.09433 0.0
C2033 C 0.44916 0.85024 0.11279 0.0
C2034 C 0.44163 0.86456 0.13258 0.0
C2035 C 0.42413 0.86575 0.13427 0.0
H2036 H 0.91845 0.37948 0.62947 0.0
H2037 H 0.96384 0.35041 0.63255 0.0
H2038 H 0.94768 0.32503 0.61478 0.0
H2039 H 0.89192 0.34895 0.68386 0.0
H2040 H 0.87429 0.354 0.64709 0.0
H2041 H 0.88951 0.36969 0.66074 0.0
H2042 H 0.89385 0.375 0.57066 0.0
H2043 H 0.87875 0.35922 0.55672 0.0
H2044 H 0.89944 0.35794 0.53236 0.0
H2045 H 0.92645 0.30286 0.59713 0.0
H2046 H 0.90164 0.28547 0.5823 0.0
H2047 H 0.87045 0.32939 0.5887 0.0
C2048 C 0.92498 0.36776 0.62672 0.0
C2049 C 0.94236 0.36685 0.63253 0.0
C2050 C 0.9505 0.35133 0.62831 0.0
C2051 C 0.94144 0.33688 0.61814 0.0
C2052 C 0.92431 0.33823 0.61209 0.0
C2053 C 0.91616 0.35327 0.6163 0.0
C2054 C 0.8977 0.35142 0.60793 0.0
C2055 C 0.88777 0.3563 0.65257 0.0
C2056 C 0.89211 0.36149 0.56432 0.0
C2057 C 0.8967 0.33296 0.59856 0.0
C2058 C 0.91217 0.32556 0.60111 0.0
C2059 C 0.91428 0.30852 0.59484 0.0
C2060 C 0.90015 0.29877 0.58637 0.0
C2061 C 0.88419 0.30612 0.58409 0.0
C2062 C 0.88252 0.32345 0.58975 0.0
H2063 H 0.3883 0.18497 0.40914 0.0
H2064 H 0.34514 0.15464 0.44137 0.0
H2065 H 0.3615 0.1293 0.42466 0.0
H2066 H 0.40233 0.1615 0.31211 0.0
H2067 H 0.42412 0.16408 0.32504 0.0
H2068 H 0.40946 0.1797 0.3434 0.0
H2069 H 0.41951 0.17692 0.4306 0.0
H2070 H 0.43432 0.16139 0.41245 0.0
H2071 H 0.41949 0.1568 0.45867 0.0
H2072 H 0.3821 0.1075 0.39953 0.0
H2073 H 0.40568 0.09074 0.37 0.0
H2074 H 0.43509 0.1356 0.35394 0.0
C2075 C 0.38235 0.17299 0.41341 0.0
C2076 C 0.36549 0.17171 0.42667 0.0
C2077 C 0.35808 0.15584 0.43141 0.0
C2078 C 0.36726 0.14141 0.42199 0.0
C2079 C 0.38379 0.14313 0.40807 0.0
C2080 C 0.3913 0.15851 0.4041 0.0
C2081 C 0.40901 0.15705 0.38668 0.0
C2082 C 0.41136 0.16612 0.33898 0.0
C2083 C 0.4213 0.16341 0.42436 0.0
C2084 C 0.41023 0.13844 0.3807 0.0
C2085 C 0.3956 0.13062 0.39343 0.0
C2086 C 0.39366 0.11347 0.38979 0.0
C2087 C 0.40708 0.10408 0.37287 0.0
C2088 C 0.42216 0.1119 0.35973 0.0
C2089 C 0.42371 0.12929 0.36379 0.0
H2090 H 0.6091 0.68854 0.07056 0.0
H2091 H 0.65379 0.65867 0.05859 0.0
H2092 H 0.63769 0.63367 0.08082 0.0
H2093 H 0.59386 0.66962 0.1724 0.0
H2094 H 0.57227 0.67067 0.15564 0.0
H2095 H 0.58673 0.68577 0.13299 0.0
H2096 H 0.57848 0.67826 0.04653 0.0
H2097 H 0.56379 0.66328 0.0689 0.0
H2098 H 0.57957 0.65694 0.02718 0.0
H2099 H 0.61721 0.61256 0.11109 0.0
H2100 H 0.59365 0.59661 0.1442 0.0
H2101 H 0.56269 0.64069 0.13769 0.0
C2102 C 0.61544 0.67668 0.07147 0.0
C2103 C 0.63265 0.67547 0.06259 0.0
C2104 C 0.64057 0.6598 0.06496 0.0
C2105 C 0.63153 0.64556 0.0776 0.0
C2106 C 0.61465 0.64729 0.08758 0.0
C2107 C 0.60666 0.66243 0.08425 0.0
C2108 C 0.58869 0.66121 0.09966 0.0
C2109 C 0.5852 0.67248 0.14273 0.0
C2110 C 0.57694 0.66515 0.05808 0.0
C2111 C 0.58789 0.64307 0.11312 0.0
C2112 C 0.60294 0.63521 0.10559 0.0
C2113 C 0.60532 0.61853 0.11672 0.0
C2114 C 0.59191 0.60961 0.13568 0.0
C2115 C 0.57639 0.61746 0.14351 0.0
C2116 C 0.57442 0.63439 0.13208 0.0
H2117 H 0.05717 0.85426 0.8334 0.0
H2118 H 0.08793 0.89841 0.82259 0.0
H2119 H 0.11193 0.88262 0.85324 0.0
H2120 H 0.07467 0.8391 0.9421 0.0
H2121 H 0.07356 0.81756 0.92492 0.0
H2122 H 0.05884 0.83222 0.90126 0.0
H2123 H 0.06712 0.82383 0.81547 0.0
H2124 H 0.08181 0.80908 0.83886 0.0
H2125 H 0.08864 0.82486 0.7978 0.0
H2126 H 0.13241 0.86223 0.88544 0.0
H2127 H 0.14832 0.8383 0.91596 0.0
H2128 H 0.10416 0.80748 0.90644 0.0
C2129 C 0.06898 0.86057 0.83725 0.0
C2130 C 0.07074 0.87752 0.82558 0.0
C2131 C 0.08635 0.8854 0.83129 0.0
C2132 C 0.10003 0.87656 0.84871 0.0
C2133 C 0.09785 0.85988 0.86024 0.0
C2134 C 0.08275 0.85194 0.85469 0.0
C2135 C 0.08373 0.83395 0.87 0.0
C2136 C 0.072 0.83051 0.91207 0.0
C2137 C 0.08012 0.82224 0.82802 0.0
C2138 C 0.10176 0.83303 0.88499 0.0
C2139 C 0.10967 0.84812 0.8791 0.0
C2140 C 0.12637 0.85033 0.89025 0.0
C2141 C 0.13529 0.83669 0.90758 0.0
C2142 C 0.12744 0.82108 0.9136 0.0
C2143 C 0.11045 0.81929 0.90236 0.0
loop_
_geom_bond_atom_site_label_1
_geom_bond_atom_site_label_2
_geom_bond_distance
_geom_bond_site_symmetry_2
_ccdc_geom_bond_type
In0 O1 2.294 . S
In0 O2 2.326 . S
In0 O6 2.266 . S
In0 O7 2.326 1_554 S
In0 O8 2.266 . S
In0 O9 2.326 . S
In0 O11 2.294 . S
In0 O12 2.326 . S
O1 In0 2.294 . S
O1 C10 1.240 . S
O2 In0 2.326 . S
O2 C10 1.252 . S
C3 O6 1.252 1_556 S
C3 O7 1.260 . S
C4 O11 1.240 . S
C4 O12 1.252 . S
C5 O8 1.252 . S
C5 O9 1.260 . S
O6 In0 2.266 . S
O6 C3 1.252 1_554 S
O7 In0 2.326 1_556 S
O7 C3 1.260 . S
O8 In0 2.266 . S
O8 C5 1.252 . S
O9 In0 2.326 . S
O9 C5 1.260 . S
C10 O1 1.240 . S
C10 O2 1.252 . S
O11 In0 2.294 . S
O11 C4 1.240 . S
O12 In0 2.326 . S
O12 C4 1.252 . S
In13 O14 2.294 . S
In13 O15 2.326 . S
In13 O19 2.266 . S
In13 O20 2.326 . S
In13 O21 2.266 . S
In13 O22 2.326 . S
In13 O24 2.294 . S
In13 O25 2.326 . S
O14 In13 2.294 . S
O14 C23 1.240 . S
O15 In13 2.326 . S
O15 C23 1.252 . S
C16 O19 1.252 . S
C16 O20 1.260 . S
C17 O24 1.240 . S
C17 O25 1.252 . S
C18 O21 1.252 . S
C18 O22 1.260 . S
O19 In13 2.266 . S
O19 C16 1.252 . S
O20 In13 2.326 . S
O20 C16 1.260 . S
O21 In13 2.266 . S
O21 C18 1.252 . S
O22 In13 2.326 . S
O22 C18 1.260 . S
C23 O14 1.240 . S
C23 O15 1.252 . S
O24 In13 2.294 . S
O24 C17 1.240 . S
O25 In13 2.326 . S
O25 C17 1.252 . S
In26 O27 2.294 . S
In26 O28 2.326 . S
In26 O32 2.266 . S
In26 O33 2.326 . S
In26 O34 2.266 . S
In26 O35 2.326 . S
In26 O37 2.294 . S
In26 O38 2.326 . S
O27 In26 2.294 . S
O27 C36 1.240 . S
O28 In26 2.326 . S
O28 C36 1.252 . S
C29 O32 1.252 . S
C29 O33 1.260 . S
C30 O37 1.240 . S
C30 O38 1.252 . S
C31 O34 1.252 . S
C31 O35 1.260 . S
O32 In26 2.266 . S
O32 C29 1.252 . S
O33 In26 2.326 . S
O33 C29 1.260 . S
O34 In26 2.266 . S
O34 C31 1.252 . S
O35 In26 2.326 . S
O35 C31 1.260 . S
C36 O27 1.240 . S
C36 O28 1.252 . S
O37 In26 2.294 . S
O37 C30 1.240 . S
O38 In26 2.326 . S
O38 C30 1.252 . S
In39 O40 2.294 . S
In39 O41 2.326 . S
In39 O45 2.266 . S
In39 O46 2.326 . S
In39 O47 2.266 . S
In39 O48 2.326 . S
In39 O50 2.294 . S
In39 O51 2.326 . S
O40 In39 2.294 . S
O40 C49 1.240 . S
O41 In39 2.326 . S
O41 C49 1.252 . S
C42 O45 1.252 . S
C42 O46 1.260 . S
C43 O50 1.240 . S
C43 O51 1.252 . S
C44 O47 1.252 . S
C44 O48 1.260 . S
O45 In39 2.266 . S
O45 C42 1.252 . S
O46 In39 2.326 . S
O46 C42 1.260 . S
O47 In39 2.266 . S
O47 C44 1.252 . S
O48 In39 2.326 . S
O48 C44 1.260 . S
C49 O40 1.240 . S
C49 O41 1.252 . S
O50 In39 2.294 . S
O50 C43 1.240 . S
O51 In39 2.326 . S
O51 C43 1.252 . S
In52 O53 2.294 . S
In52 O54 2.326 . S
In52 O58 2.266 . S
In52 O59 2.326 . S
In52 O60 2.266 . S
In52 O61 2.326 . S
In52 O63 2.294 . S
In52 O64 2.326 . S
O53 In52 2.294 . S
O53 C62 1.240 . S
O54 In52 2.326 . S
O54 C62 1.252 . S
C55 O58 1.252 . S
C55 O59 1.260 . S
C56 O63 1.240 . S
C56 O64 1.252 . S
C57 O60 1.252 . S
C57 O61 1.260 . S
O58 In52 2.266 . S
O58 C55 1.252 . S
O59 In52 2.326 . S
O59 C55 1.260 . S
O60 In52 2.266 . S
O60 C57 1.252 . S
O61 In52 2.326 . S
O61 C57 1.260 . S
C62 O53 1.240 . S
C62 O54 1.252 . S
O63 In52 2.294 . S
O63 C56 1.240 . S
O64 In52 2.326 . S
O64 C56 1.252 . S
In65 O66 2.294 . S
In65 O67 2.326 . S
In65 O71 2.266 . S
In65 O72 2.326 . S
In65 O73 2.266 . S
In65 O74 2.326 . S
In65 O76 2.294 . S
In65 O77 2.326 . S
O66 In65 2.294 . S
O66 C75 1.240 . S
O67 In65 2.326 . S
O67 C75 1.252 . S
C68 O71 1.252 . S
C68 O72 1.260 . S
C69 O76 1.240 . S
C69 O77 1.252 . S
C70 O73 1.252 . S
C70 O74 1.260 . S
O71 In65 2.266 . S
O71 C68 1.252 . S
O72 In65 2.326 . S
O72 C68 1.260 . S
O73 In65 2.266 . S
O73 C70 1.252 . S
O74 In65 2.326 . S
O74 C70 1.260 . S
C75 O66 1.240 . S
C75 O67 1.252 . S
O76 In65 2.294 . S
O76 C69 1.240 . S
O77 In65 2.326 . S
O77 C69 1.252 . S
In78 O79 2.294 . S
In78 O80 2.326 . S
In78 O84 2.266 . S
In78 O85 2.326 . S
In78 O86 2.266 . S
In78 O87 2.326 1_556 S
In78 O89 2.294 . S
In78 O90 2.326 . S
O79 In78 2.294 . S
O79 C88 1.240 . S
O80 In78 2.326 . S
O80 C88 1.252 . S
C81 O84 1.252 . S
C81 O85 1.260 . S
C82 O89 1.240 . S
C82 O90 1.252 . S
C83 O86 1.252 1_554 S
C83 O87 1.260 . S
O84 In78 2.266 . S
O84 C81 1.252 . S
O85 In78 2.326 . S
O85 C81 1.260 . S
O86 In78 2.266 . S
O86 C83 1.252 1_556 S
O87 In78 2.326 1_554 S
O87 C83 1.260 . S
C88 O79 1.240 . S
C88 O80 1.252 . S
O89 In78 2.294 . S
O89 C82 1.240 . S
O90 In78 2.326 . S
O90 C82 1.252 . S
In91 O92 2.294 . S
In91 O93 2.326 . S
In91 O97 2.266 . S
In91 O98 2.326 . S
In91 O99 2.266 . S
In91 O100 2.326 . S
In91 O102 2.294 . S
In91 O103 2.326 . S
O92 In91 2.294 . S
O92 C101 1.240 . S
O93 In91 2.326 . S
O93 C101 1.252 . S
C94 O97 1.252 . S
C94 O98 1.260 . S
C95 O102 1.240 . S
C95 O103 1.252 . S
C96 O99 1.252 . S
C96 O100 1.260 . S
O97 In91 2.266 . S
O97 C94 1.252 . S
O98 In91 2.326 . S
O98 C94 1.260 . S
O99 In91 2.266 . S
O99 C96 1.252 . S
O100 In91 2.326 . S
O100 C96 1.260 . S
C101 O92 1.240 . S
C101 O93 1.252 . S
O102 In91 2.294 . S
O102 C95 1.240 . S
O103 In91 2.326 . S
O103 C95 1.252 . S
In104 O105 2.294 . S
In104 O106 2.326 . S
In104 O110 2.266 . S
In104 O111 2.326 . S
In104 O112 2.266 . S
In104 O113 2.326 1_556 S
In104 O115 2.294 . S
In104 O116 2.326 . S
O105 In104 2.294 . S
O105 C114 1.240 . S
O106 In104 2.326 . S
O106 C114 1.252 . S
C107 O110 1.252 . S
C107 O111 1.260 . S
C108 O115 1.240 . S
C108 O116 1.252 . S
C109 O112 1.252 1_554 S
C109 O113 1.260 . S
O110 In104 2.266 . S
O110 C107 1.252 . S
O111 In104 2.326 . S
O111 C107 1.260 . S
O112 In104 2.266 . S
O112 C109 1.252 1_556 S
O113 In104 2.326 1_554 S
O113 C109 1.260 . S
C114 O105 1.240 . S
C114 O106 1.252 . S
O115 In104 2.294 . S
O115 C108 1.240 . S
O116 In104 2.326 . S
O116 C108 1.252 . S
In117 O118 2.294 . S
In117 O119 2.326 . S
In117 O123 2.266 . S
In117 O124 2.326 . S
In117 O125 2.266 . S
In117 O126 2.326 . S
In117 O128 2.294 . S
In117 O129 2.326 . S
O118 In117 2.294 . S
O118 C127 1.240 . S
O119 In117 2.326 . S
O119 C127 1.252 . S
C120 O123 1.252 . S
C120 O124 1.260 . S
C121 O128 1.240 . S
C121 O129 1.252 . S
C122 O125 1.252 . S
C122 O126 1.260 . S
O123 In117 2.266 . S
O123 C120 1.252 . S
O124 In117 2.326 . S
O124 C120 1.260 . S
O125 In117 2.266 . S
O125 C122 1.252 . S
O126 In117 2.326 . S
O126 C122 1.260 . S
C127 O118 1.240 . S
C127 O119 1.252 . S
O128 In117 2.294 . S
O128 C121 1.240 . S
O129 In117 2.326 . S
O129 C121 1.252 . S
In130 O131 2.294 . S
In130 O132 2.326 . S
In130 O136 2.266 . S
In130 O137 2.326 . S
In130 O138 2.266 . S
In130 O139 2.326 . S
In130 O141 2.294 . S
In130 O142 2.326 . S
O131 In130 2.294 . S
O131 C140 1.240 . S
O132 In130 2.326 . S
O132 C140 1.252 . S
C133 O136 1.252 . S
C133 O137 1.260 . S
C134 O141 1.240 . S
C134 O142 1.252 . S
C135 O138 1.252 . S
C135 O139 1.260 . S
O136 In130 2.266 . S
O136 C133 1.252 . S
O137 In130 2.326 . S
O137 C133 1.260 . S
O138 In130 2.266 . S
O138 C135 1.252 . S
O139 In130 2.326 . S
O139 C135 1.260 . S
C140 O131 1.240 . S
C140 O132 1.252 . S
O141 In130 2.294 . S
O141 C134 1.240 . S
O142 In130 2.326 . S
O142 C134 1.252 . S
In143 O144 2.294 . S
In143 O145 2.326 . S
In143 O149 2.266 . S
In143 O150 2.326 . S
In143 O151 2.266 . S
In143 O152 2.326 . S
In143 O154 2.294 . S
In143 O155 2.326 . S
O144 In143 2.294 . S
O144 C153 1.240 . S
O145 In143 2.326 . S
O145 C153 1.252 . S
C146 O149 1.252 . S
C146 O150 1.260 . S
C147 O154 1.240 . S
C147 O155 1.252 . S
C148 O151 1.252 . S
C148 O152 1.260 . S
O149 In143 2.266 . S
O149 C146 1.252 . S
O150 In143 2.326 . S
O150 C146 1.260 . S
O151 In143 2.266 . S
O151 C148 1.252 . S
O152 In143 2.326 . S
O152 C148 1.260 . S
C153 O144 1.240 . S
C153 O145 1.252 . S
O154 In143 2.294 . S
O154 C147 1.240 . S
O155 In143 2.326 . S
O155 C147 1.252 . S
In156 O157 2.294 . S
In156 O158 2.326 . S
In156 O162 2.266 . S
In156 O163 2.326 . S
In156 O164 2.266 . S
In156 O165 2.326 . S
In156 O167 2.294 . S
In156 O168 2.326 . S
O157 In156 2.294 . S
O157 C166 1.240 . S
O158 In156 2.326 . S
O158 C166 1.252 . S
C159 O162 1.252 . S
C159 O163 1.260 . S
C160 O167 1.240 . S
C160 O168 1.252 . S
C161 O164 1.252 . S
C161 O165 1.260 . S
O162 In156 2.266 . S
O162 C159 1.252 . S
O163 In156 2.326 . S
O163 C159 1.260 . S
O164 In156 2.266 . S
O164 C161 1.252 . S
O165 In156 2.326 . S
O165 C161 1.260 . S
C166 O157 1.240 . S
C166 O158 1.252 . S
O167 In156 2.294 . S
O167 C160 1.240 . S
O168 In156 2.326 . S
O168 C160 1.252 . S
In169 O170 2.294 . S
In169 O171 2.326 . S
In169 O175 2.266 . S
In169 O176 2.326 . S
In169 O177 2.266 . S
In169 O178 2.326 . S
In169 O180 2.294 . S
In169 O181 2.326 . S
O170 In169 2.294 . S
O170 C179 1.240 . S
O171 In169 2.326 . S
O171 C179 1.252 . S
C172 O175 1.252 . S
C172 O176 1.260 . S
C173 O180 1.240 . S
C173 O181 1.252 . S
C174 O177 1.252 . S
C174 O178 1.260 . S
O175 In169 2.266 . S
O175 C172 1.252 . S
O176 In169 2.326 . S
O176 C172 1.260 . S
O177 In169 2.266 . S
O177 C174 1.252 . S
O178 In169 2.326 . S
O178 C174 1.260 . S
C179 O170 1.240 . S
C179 O171 1.252 . S
O180 In169 2.294 . S
O180 C173 1.240 . S
O181 In169 2.326 . S
O181 C173 1.252 . S
In182 O183 2.294 . S
In182 O184 2.326 . S
In182 O188 2.266 . S
In182 O189 2.326 1_554 S
In182 O190 2.266 . S
In182 O191 2.326 . S
In182 O193 2.294 . S
In182 O194 2.326 . S
O183 In182 2.294 . S
O183 C192 1.240 . S
O184 In182 2.326 . S
O184 C192 1.252 . S
C185 O188 1.252 1_556 S
C185 O189 1.260 . S
C186 O193 1.240 . S
C186 O194 1.252 . S
C187 O190 1.252 . S
C187 O191 1.260 . S
O188 In182 2.266 . S
O188 C185 1.252 1_554 S
O189 In182 2.326 1_556 S
O189 C185 1.260 . S
O190 In182 2.266 . S
O190 C187 1.252 . S
O191 In182 2.326 . S
O191 C187 1.260 . S
C192 O183 1.240 . S
C192 O184 1.252 . S
O193 In182 2.294 . S
O193 C186 1.240 . S
O194 In182 2.326 . S
O194 C186 1.252 . S
In195 O196 2.294 . S
In195 O197 2.326 . S
In195 O201 2.266 . S
In195 O202 2.326 . S
In195 O203 2.266 . S
In195 O204 2.326 . S
In195 O206 2.294 . S
In195 O207 2.326 . S
O196 In195 2.294 . S
O196 C205 1.240 . S
O197 In195 2.326 . S
O197 C205 1.252 . S
C198 O201 1.252 . S
C198 O202 1.260 . S
C199 O206 1.240 . S
C199 O207 1.252 . S
C200 O203 1.252 . S
C200 O204 1.260 . S
O201 In195 2.266 . S
O201 C198 1.252 . S
O202 In195 2.326 . S
O202 C198 1.260 . S
O203 In195 2.266 . S
O203 C200 1.252 . S
O204 In195 2.326 . S
O204 C200 1.260 . S
C205 O196 1.240 . S
C205 O197 1.252 . S
O206 In195 2.294 . S
O206 C199 1.240 . S
O207 In195 2.326 . S
O207 C199 1.252 . S
In208 O209 2.294 . S
In208 O210 2.326 . S
In208 O214 2.266 . S
In208 O215 2.326 . S
In208 O216 2.266 . S
In208 O217 2.326 . S
In208 O219 2.294 . S
In208 O220 2.326 . S
O209 In208 2.294 . S
O209 C218 1.240 . S
O210 In208 2.326 . S
O210 C218 1.252 . S
C211 O214 1.252 . S
C211 O215 1.260 . S
C212 O219 1.240 . S
C212 O220 1.252 . S
C213 O216 1.252 . S
C213 O217 1.260 . S
O214 In208 2.266 . S
O214 C211 1.252 . S
O215 In208 2.326 . S
O215 C211 1.260 . S
O216 In208 2.266 . S
O216 C213 1.252 . S
O217 In208 2.326 . S
O217 C213 1.260 . S
C218 O209 1.240 . S
C218 O210 1.252 . S
O219 In208 2.294 . S
O219 C212 1.240 . S
O220 In208 2.326 . S
O220 C212 1.252 . S
In221 O222 2.294 . S
In221 O223 2.326 . S
In221 O227 2.266 . S
In221 O228 2.326 . S
In221 O229 2.266 . S
In221 O230 2.326 . S
In221 O232 2.294 . S
In221 O233 2.326 . S
O222 In221 2.294 . S
O222 C231 1.240 . S
O223 In221 2.326 . S
O223 C231 1.252 . S
C224 O227 1.252 . S
C224 O228 1.260 . S
C225 O232 1.240 . S
C225 O233 1.252 . S
C226 O229 1.252 . S
C226 O230 1.260 . S
O227 In221 2.266 . S
O227 C224 1.252 . S
O228 In221 2.326 . S
O228 C224 1.260 . S
O229 In221 2.266 . S
O229 C226 1.252 . S
O230 In221 2.326 . S
O230 C226 1.260 . S
C231 O222 1.240 . S
C231 O223 1.252 . S
O232 In221 2.294 . S
O232 C225 1.240 . S
O233 In221 2.326 . S
O233 C225 1.252 . S
In234 O235 2.294 . S
In234 O236 2.326 . S
In234 O240 2.266 . S
In234 O241 2.326 1_554 S
In234 O242 2.266 . S
In234 O243 2.326 . S
In234 O245 2.294 . S
In234 O246 2.326 . S
O235 In234 2.294 . S
O235 C244 1.240 . S
O236 In234 2.326 . S
O236 C244 1.252 . S
C237 O240 1.252 1_556 S
C237 O241 1.260 . S
C238 O245 1.240 . S
C238 O246 1.252 . S
C239 O242 1.252 . S
C239 O243 1.260 . S
O240 In234 2.266 . S
O240 C237 1.252 1_554 S
O241 In234 2.326 1_556 S
O241 C237 1.260 . S
O242 In234 2.266 . S
O242 C239 1.252 . S
O243 In234 2.326 . S
O243 C239 1.260 . S
C244 O235 1.240 . S
C244 O236 1.252 . S
O245 In234 2.294 . S
O245 C238 1.240 . S
O246 In234 2.326 . S
O246 C238 1.252 . S
In247 O248 2.294 . S
In247 O249 2.326 . S
In247 O253 2.266 . S
In247 O254 2.326 . S
In247 O255 2.266 . S
In247 O256 2.326 . S
In247 O258 2.294 . S
In247 O259 2.326 . S
O248 In247 2.294 . S
O248 C257 1.240 . S
O249 In247 2.326 . S
O249 C257 1.252 . S
C250 O253 1.252 . S
C250 O254 1.260 . S
C251 O258 1.240 . S
C251 O259 1.252 . S
C252 O255 1.252 . S
C252 O256 1.260 . S
O253 In247 2.266 . S
O253 C250 1.252 . S
O254 In247 2.326 . S
O254 C250 1.260 . S
O255 In247 2.266 . S
O255 C252 1.252 . S
O256 In247 2.326 . S
O256 C252 1.260 . S
C257 O248 1.240 . S
C257 O249 1.252 . S
O258 In247 2.294 . S
O258 C251 1.240 . S
O259 In247 2.326 . S
O259 C251 1.252 . S
In260 O261 2.294 . S
In260 O262 2.326 . S
In260 O266 2.266 . S
In260 O267 2.326 . S
In260 O268 2.266 . S
In260 O269 2.326 1_556 S
In260 O271 2.294 . S
In260 O272 2.326 . S
O261 In260 2.294 . S
O261 C270 1.240 . S
O262 In260 2.326 . S
O262 C270 1.252 . S
C263 O266 1.252 . S
C263 O267 1.260 . S
C264 O271 1.240 . S
C264 O272 1.252 . S
C265 O268 1.252 1_554 S
C265 O269 1.260 . S
O266 In260 2.266 . S
O266 C263 1.252 . S
O267 In260 2.326 . S
O267 C263 1.260 . S
O268 In260 2.266 . S
O268 C265 1.252 1_556 S
O269 In260 2.326 1_554 S
O269 C265 1.260 . S
C270 O261 1.240 . S
C270 O262 1.252 . S
O271 In260 2.294 . S
O271 C264 1.240 . S
O272 In260 2.326 . S
O272 C264 1.252 . S
In273 O274 2.294 . S
In273 O275 2.326 . S
In273 O279 2.266 . S
In273 O280 2.326 . S
In273 O281 2.266 . S
In273 O282 2.326 . S
In273 O284 2.294 . S
In273 O285 2.326 . S
O274 In273 2.294 . S
O274 C283 1.240 . S
O275 In273 2.326 . S
O275 C283 1.252 . S
C276 O279 1.252 . S
C276 O280 1.260 . S
C277 O284 1.240 . S
C277 O285 1.252 . S
C278 O281 1.252 . S
C278 O282 1.260 . S
O279 In273 2.266 . S
O279 C276 1.252 . S
O280 In273 2.326 . S
O280 C276 1.260 . S
O281 In273 2.266 . S
O281 C278 1.252 . S
O282 In273 2.326 . S
O282 C278 1.260 . S
C283 O274 1.240 . S
C283 O275 1.252 . S
O284 In273 2.294 . S
O284 C277 1.240 . S
O285 In273 2.326 . S
O285 C277 1.252 . S
In286 O287 2.294 . S
In286 O288 2.326 . S
In286 O292 2.266 . S
In286 O293 2.326 . S
In286 O294 2.266 . S
In286 O295 2.326 . S
In286 O297 2.294 . S
In286 O298 2.326 . S
O287 In286 2.294 . S
O287 C296 1.240 . S
O288 In286 2.326 . S
O288 C296 1.252 . S
C289 O292 1.252 . S
C289 O293 1.260 . S
C290 O297 1.240 . S
C290 O298 1.252 . S
C291 O294 1.252 . S
C291 O295 1.260 . S
O292 In286 2.266 . S
O292 C289 1.252 . S
O293 In286 2.326 . S
O293 C289 1.260 . S
O294 In286 2.266 . S
O294 C291 1.252 . S
O295 In286 2.326 . S
O295 C291 1.260 . S
C296 O287 1.240 . S
C296 O288 1.252 . S
O297 In286 2.294 . S
O297 C290 1.240 . S
O298 In286 2.326 . S
O298 C290 1.252 . S
In299 O300 2.294 . S
In299 O301 2.326 . S
In299 O305 2.266 . S
In299 O306 2.326 . S
In299 O307 2.266 . S
In299 O308 2.326 . S
In299 O310 2.294 . S
In299 O311 2.326 . S
O300 In299 2.294 . S
O300 C309 1.240 . S
O301 In299 2.326 . S
O301 C309 1.252 . S
C302 O305 1.252 . S
C302 O306 1.260 . S
C303 O310 1.240 . S
C303 O311 1.252 . S
C304 O307 1.252 . S
C304 O308 1.260 . S
O305 In299 2.266 . S
O305 C302 1.252 . S
O306 In299 2.326 . S
O306 C302 1.260 . S
O307 In299 2.266 . S
O307 C304 1.252 . S
O308 In299 2.326 . S
O308 C304 1.260 . S
C309 O300 1.240 . S
C309 O301 1.252 . S
O310 In299 2.294 . S
O310 C303 1.240 . S
O311 In299 2.326 . S
O311 C303 1.252 . S
In312 O313 2.294 . S
In312 O314 2.326 . S
In312 O318 2.266 . S
In312 O319 2.326 . S
In312 O320 2.266 . S
In312 O321 2.326 . S
In312 O323 2.294 . S
In312 O324 2.326 . S
O313 In312 2.294 . S
O313 C322 1.240 . S
O314 In312 2.326 . S
O314 C322 1.252 . S
C315 O318 1.252 . S
C315 O319 1.260 . S
C316 O323 1.240 . S
C316 O324 1.252 . S
C317 O320 1.252 . S
C317 O321 1.260 . S
O318 In312 2.266 . S
O318 C315 1.252 . S
O319 In312 2.326 . S
O319 C315 1.260 . S
O320 In312 2.266 . S
O320 C317 1.252 . S
O321 In312 2.326 . S
O321 C317 1.260 . S
C322 O313 1.240 . S
C322 O314 1.252 . S
O323 In312 2.294 . S
O323 C316 1.240 . S
O324 In312 2.326 . S
O324 C316 1.252 . S
In325 O326 2.294 . S
In325 O327 2.326 . S
In325 O331 2.266 . S
In325 O332 2.326 . S
In325 O333 2.266 . S
In325 O334 2.326 . S
In325 O336 2.294 . S
In325 O337 2.326 . S
O326 In325 2.294 . S
O326 C335 1.240 . S
O327 In325 2.326 . S
O327 C335 1.252 . S
C328 O331 1.252 . S
C328 O332 1.260 . S
C329 O336 1.240 . S
C329 O337 1.252 . S
C330 O333 1.252 . S
C330 O334 1.260 . S
O331 In325 2.266 . S
O331 C328 1.252 . S
O332 In325 2.326 . S
O332 C328 1.260 . S
O333 In325 2.266 . S
O333 C330 1.252 . S
O334 In325 2.326 . S
O334 C330 1.260 . S
C335 O326 1.240 . S
C335 O327 1.252 . S
O336 In325 2.294 . S
O336 C329 1.240 . S
O337 In325 2.326 . S
O337 C329 1.252 . S
In338 O339 2.294 . S
In338 O340 2.326 . S
In338 O344 2.266 . S
In338 O345 2.326 1_556 S
In338 O346 2.266 . S
In338 O347 2.326 . S
In338 O349 2.294 . S
In338 O350 2.326 . S
O339 In338 2.294 . S
O339 C348 1.240 . S
O340 In338 2.326 . S
O340 C348 1.252 . S
C341 O344 1.252 1_554 S
C341 O345 1.260 . S
C342 O349 1.240 . S
C342 O350 1.252 . S
C343 O346 1.252 . S
C343 O347 1.260 . S
O344 In338 2.266 . S
O344 C341 1.252 1_556 S
O345 In338 2.326 1_554 S
O345 C341 1.260 . S
O346 In338 2.266 . S
O346 C343 1.252 . S
O347 In338 2.326 . S
O347 C343 1.260 . S
C348 O339 1.240 . S
C348 O340 1.252 . S
O349 In338 2.294 . S
O349 C342 1.240 . S
O350 In338 2.326 . S
O350 C342 1.252 . S
In351 O352 2.294 . S
In351 O353 2.326 . S
In351 O357 2.266 . S
In351 O358 2.326 . S
In351 O359 2.266 . S
In351 O360 2.326 . S
In351 O362 2.294 . S
In351 O363 2.326 . S
O352 In351 2.294 . S
O352 C361 1.240 . S
O353 In351 2.326 . S
O353 C361 1.252 . S
C354 O357 1.252 . S
C354 O358 1.260 . S
C355 O362 1.240 . S
C355 O363 1.252 . S
C356 O359 1.252 . S
C356 O360 1.260 . S
O357 In351 2.266 . S
O357 C354 1.252 . S
O358 In351 2.326 . S
O358 C354 1.260 . S
O359 In351 2.266 . S
O359 C356 1.252 . S
O360 In351 2.326 . S
O360 C356 1.260 . S
C361 O352 1.240 . S
C361 O353 1.252 . S
O362 In351 2.294 . S
O362 C355 1.240 . S
O363 In351 2.326 . S
O363 C355 1.252 . S
In364 O365 2.294 . S
In364 O366 2.326 . S
In364 O370 2.266 . S
In364 O371 2.326 . S
In364 O372 2.266 . S
In364 O373 2.326 1_554 S
In364 O375 2.294 . S
In364 O376 2.326 . S
O365 In364 2.294 . S
O365 C374 1.240 . S
O366 In364 2.326 . S
O366 C374 1.252 . S
C367 O370 1.252 . S
C367 O371 1.260 . S
C368 O375 1.240 . S
C368 O376 1.252 . S
C369 O372 1.252 1_556 S
C369 O373 1.260 . S
O370 In364 2.266 . S
O370 C367 1.252 . S
O371 In364 2.326 . S
O371 C367 1.260 . S
O372 In364 2.266 . S
O372 C369 1.252 1_554 S
O373 In364 2.326 1_556 S
O373 C369 1.260 . S
C374 O365 1.240 . S
C374 O366 1.252 . S
O375 In364 2.294 . S
O375 C368 1.240 . S
O376 In364 2.326 . S
O376 C368 1.252 . S
In377 O378 2.294 . S
In377 O379 2.326 . S
In377 O383 2.266 . S
In377 O384 2.326 . S
In377 O385 2.266 . S
In377 O386 2.326 . S
In377 O388 2.294 . S
In377 O389 2.326 . S
O378 In377 2.294 . S
O378 C387 1.240 . S
O379 In377 2.326 . S
O379 C387 1.252 . S
C380 O383 1.252 . S
C380 O384 1.260 . S
C381 O388 1.240 . S
C381 O389 1.252 . S
C382 O385 1.252 . S
C382 O386 1.260 . S
O383 In377 2.266 . S
O383 C380 1.252 . S
O384 In377 2.326 . S
O384 C380 1.260 . S
O385 In377 2.266 . S
O385 C382 1.252 . S
O386 In377 2.326 . S
O386 C382 1.260 . S
C387 O378 1.240 . S
C387 O379 1.252 . S
O388 In377 2.294 . S
O388 C381 1.240 . S
O389 In377 2.326 . S
O389 C381 1.252 . S
In390 O391 2.294 . S
In390 O392 2.326 . S
In390 O396 2.266 . S
In390 O397 2.326 . S
In390 O398 2.266 . S
In390 O399 2.326 . S
In390 O401 2.294 . S
In390 O402 2.326 . S
O391 In390 2.294 . S
O391 C400 1.240 . S
O392 In390 2.326 . S
O392 C400 1.252 . S
C393 O396 1.252 . S
C393 O397 1.260 . S
C394 O401 1.240 . S
C394 O402 1.252 . S
C395 O398 1.252 . S
C395 O399 1.260 . S
O396 In390 2.266 . S
O396 C393 1.252 . S
O397 In390 2.326 . S
O397 C393 1.260 . S
O398 In390 2.266 . S
O398 C395 1.252 . S
O399 In390 2.326 . S
O399 C395 1.260 . S
C400 O391 1.240 . S
C400 O392 1.252 . S
O401 In390 2.294 . S
O401 C394 1.240 . S
O402 In390 2.326 . S
O402 C394 1.252 . S
In403 O404 2.294 . S
In403 O405 2.326 . S
In403 O409 2.266 . S
In403 O410 2.326 . S
In403 O411 2.266 . S
In403 O412 2.326 . S
In403 O414 2.294 . S
In403 O415 2.326 . S
O404 In403 2.294 . S
O404 C413 1.240 . S
O405 In403 2.326 . S
O405 C413 1.252 . S
C406 O409 1.252 . S
C406 O410 1.260 . S
C407 O414 1.240 . S
C407 O415 1.252 . S
C408 O411 1.252 . S
C408 O412 1.260 . S
O409 In403 2.266 . S
O409 C406 1.252 . S
O410 In403 2.326 . S
O410 C406 1.260 . S
O411 In403 2.266 . S
O411 C408 1.252 . S
O412 In403 2.326 . S
O412 C408 1.260 . S
C413 O404 1.240 . S
C413 O405 1.252 . S
O414 In403 2.294 . S
O414 C407 1.240 . S
O415 In403 2.326 . S
O415 C407 1.252 . S
H416 C428 0.930 . S
H417 C430 0.930 . S
H418 C431 0.930 . S
H419 C435 0.959 . S
H420 C435 0.959 . S
H421 C435 0.968 . S
H422 C436 0.960 . S
H423 C436 0.961 . S
H424 C436 0.959 . S
H425 C439 0.929 . S
H426 C440 0.931 . S
H427 C442 0.930 . S
C428 H416 0.930 . S
C428 C429 1.399 . S
C428 C433 1.399 . S
C429 C428 1.399 . S
C429 C430 1.376 . S
C430 H417 0.930 . S
C430 C429 1.376 . S
C430 C431 1.388 . S
C431 H418 0.930 . S
C431 C430 1.388 . S
C431 C432 1.390 . S
C432 C431 1.390 . S
C432 C433 1.394 . S
C432 C438 1.465 1_556 S
C433 C428 1.399 . S
C433 C432 1.394 . S
C433 C434 1.516 . S
C434 C433 1.516 . S
C434 C435 1.502 1_556 S
C434 C436 1.561 . S
C434 C437 1.526 1_556 S
C435 H419 0.959 . S
C435 H420 0.959 . S
C435 H421 0.968 . S
C435 C434 1.502 1_554 S
C436 H422 0.960 . S
C436 H423 0.961 . S
C436 H424 0.959 . S
C436 C434 1.561 . S
C437 C434 1.526 1_554 S
C437 C438 1.396 . S
C437 C442 1.390 . S
C438 C432 1.465 1_554 S
C438 C437 1.396 . S
C438 C439 1.399 . S
C439 H425 0.929 . S
C439 C438 1.399 . S
C439 C440 1.385 . S
C440 H426 0.931 . S
C440 C439 1.385 . S
C440 C441 1.389 . S
C441 C440 1.389 . S
C441 C442 1.387 . S
C442 H427 0.930 . S
C442 C437 1.390 . S
C442 C441 1.387 . S
H443 C455 0.930 . S
H444 C457 0.930 . S
H445 C458 0.930 . S
H446 C462 0.959 . S
H447 C462 0.959 . S
H448 C462 0.983 . S
H449 C463 0.960 1_565 S
H450 C463 0.961 . S
H451 C463 0.941 1_455 S
H452 C466 0.929 . S
H453 C467 0.931 . S
H454 C469 0.930 . S
C455 H443 0.930 . S
C455 C456 1.399 . S
C455 C460 1.399 . S
C456 C455 1.399 . S
C456 C457 1.376 . S
C457 H444 0.930 . S
C457 C456 1.376 . S
C457 C458 1.388 . S
C458 H445 0.930 . S
C458 C457 1.388 . S
C458 C459 1.390 . S
C459 C458 1.390 . S
C459 C460 1.394 . S
C459 C465 1.465 1_565 S
C460 C455 1.399 . S
C460 C459 1.394 . S
C460 C461 1.516 1_565 S
C461 C460 1.516 1_545 S
C461 C462 1.502 . S
C461 C463 1.561 . S
C461 C464 1.526 . S
C462 H446 0.959 . S
C462 H447 0.959 . S
C462 H448 0.983 . S
C462 C461 1.502 . S
C463 H449 0.960 1_545 S
C463 H450 0.961 . S
C463 H451 0.941 1_655 S
C463 C461 1.561 . S
C464 C461 1.526 . S
C464 C465 1.396 . S
C464 C469 1.390 . S
C465 C459 1.465 1_545 S
C465 C464 1.396 . S
C465 C466 1.399 . S
C466 H452 0.929 . S
C466 C465 1.399 . S
C466 C467 1.385 . S
C467 H453 0.931 . S
C467 C466 1.385 . S
C467 C468 1.389 . S
C468 C467 1.389 . S
C468 C469 1.387 . S
C469 H454 0.930 . S
C469 C464 1.390 . S
C469 C468 1.387 . S
H470 C482 0.930 . S
H471 C484 0.930 . S
H472 C485 0.930 . S
H473 C489 0.959 . S
H474 C489 0.959 . S
H475 C489 0.961 . S
H476 C490 0.960 . S
H477 C490 0.961 . S
H478 C490 0.959 . S
H479 C493 0.929 . S
H480 C494 0.931 . S
H481 C496 0.930 . S
C482 H470 0.930 . S
C482 C483 1.399 . S
C482 C487 1.399 . S
C483 C482 1.399 . S
C483 C484 1.376 . S
C484 H471 0.930 . S
C484 C483 1.376 . S
C484 C485 1.388 . S
C485 H472 0.930 . S
C485 C484 1.388 . S
C485 C486 1.390 . S
C486 C485 1.390 . S
C486 C487 1.394 . S
C486 C492 1.465 . S
C487 C482 1.399 . S
C487 C486 1.394 . S
C487 C488 1.516 . S
C488 C487 1.516 . S
C488 C489 1.502 . S
C488 C490 1.561 . S
C488 C491 1.526 . S
C489 H473 0.959 . S
C489 H474 0.959 . S
C489 H475 0.961 . S
C489 C488 1.502 . S
C490 H476 0.960 . S
C490 H477 0.961 . S
C490 H478 0.959 . S
C490 C488 1.561 . S
C491 C488 1.526 . S
C491 C492 1.396 . S
C491 C496 1.390 . S
C492 C486 1.465 . S
C492 C491 1.396 . S
C492 C493 1.399 . S
C493 H479 0.929 . S
C493 C492 1.399 . S
C493 C494 1.385 . S
C494 H480 0.931 . S
C494 C493 1.385 . S
C494 C495 1.389 . S
C495 C494 1.389 . S
C495 C496 1.387 . S
C496 H481 0.930 . S
C496 C491 1.390 . S
C496 C495 1.387 . S
H497 C509 0.930 . S
H498 C511 0.930 . S
H499 C512 0.930 . S
H500 C516 0.959 . S
H501 C516 0.949 1_565 S
H502 C516 0.961 . S
H503 C517 0.960 . S
H504 C517 0.998 . S
H505 C517 0.959 . S
H506 C520 0.929 . S
H507 C521 0.931 . S
H508 C523 0.930 . S
C509 H497 0.930 . S
C509 C510 1.399 . S
C509 C514 1.399 . S
C510 C509 1.399 . S
C510 C511 1.376 . S
C511 H498 0.930 . S
C511 C510 1.376 . S
C511 C512 1.388 . S
C512 H499 0.930 . S
C512 C511 1.388 . S
C512 C513 1.390 . S
C513 C512 1.390 . S
C513 C514 1.394 . S
C513 C519 1.465 1_545 S
C514 C509 1.399 . S
C514 C513 1.394 . S
C514 C515 1.516 . S
C515 C514 1.516 . S
C515 C516 1.502 . S
C515 C517 1.561 . S
C515 C518 1.526 1_545 S
C516 H500 0.959 . S
C516 H501 0.949 1_545 S
C516 H502 0.961 . S
C516 C515 1.502 . S
C517 H503 0.960 . S
C517 H504 0.998 . S
C517 H505 0.959 . S
C517 C515 1.561 . S
C518 C515 1.526 1_565 S
C518 C519 1.396 . S
C518 C523 1.390 . S
C519 C513 1.465 1_565 S
C519 C518 1.396 . S
C519 C520 1.399 . S
C520 H506 0.929 . S
C520 C519 1.399 . S
C520 C521 1.385 . S
C521 H507 0.931 . S
C521 C520 1.385 . S
C521 C522 1.389 . S
C522 C521 1.389 . S
C522 C523 1.387 . S
C523 H508 0.930 . S
C523 C518 1.390 . S
C523 C522 1.387 . S
H524 C536 0.930 . S
H525 C538 0.930 . S
H526 C539 0.930 . S
H527 C543 0.959 . S
H528 C543 0.959 . S
H529 C543 0.961 . S
H530 C544 0.960 . S
H531 C544 0.961 . S
H532 C544 0.959 . S
H533 C547 0.929 . S
H534 C548 0.931 . S
H535 C550 0.930 . S
C536 H524 0.930 . S
C536 C537 1.399 . S
C536 C541 1.399 . S
C537 C536 1.399 . S
C537 C538 1.376 . S
C538 H525 0.930 . S
C538 C537 1.376 . S
C538 C539 1.388 1_554 S
C539 H526 0.930 . S
C539 C538 1.388 1_556 S
C539 C540 1.390 . S
C540 C539 1.390 . S
C540 C541 1.394 1_556 S
C540 C546 1.465 . S
C541 C536 1.399 . S
C541 C540 1.394 1_554 S
C541 C542 1.516 . S
C542 C541 1.516 . S
C542 C543 1.502 . S
C542 C544 1.561 1_554 S
C542 C545 1.526 1_554 S
C543 H527 0.959 . S
C543 H528 0.959 . S
C543 H529 0.961 . S
C543 C542 1.502 . S
C544 H530 0.960 . S
C544 H531 0.961 . S
C544 H532 0.959 . S
C544 C542 1.561 1_556 S
C545 C542 1.526 1_556 S
C545 C546 1.396 . S
C545 C550 1.390 . S
C546 C540 1.465 . S
C546 C545 1.396 . S
C546 C547 1.399 . S
C547 H533 0.929 . S
C547 C546 1.399 . S
C547 C548 1.385 . S
C548 H534 0.931 . S
C548 C547 1.385 . S
C548 C549 1.389 . S
C549 C548 1.389 . S
C549 C550 1.387 . S
C550 H535 0.930 . S
C550 C545 1.390 . S
C550 C549 1.387 . S
H551 C563 0.930 . S
H552 C565 0.930 . S
H553 C566 0.930 . S
H554 C570 0.959 . S
H555 C570 0.959 . S
H556 C570 0.959 . S
H557 C571 0.918 1_565 S
H558 C571 0.961 . S
H559 C571 0.959 . S
H560 C574 0.929 . S
H561 C575 0.931 . S
H562 C577 0.930 . S
C563 H551 0.930 . S
C563 C564 1.399 . S
C563 C568 1.399 . S
C564 C563 1.399 . S
C564 C565 1.376 . S
C565 H552 0.930 . S
C565 C564 1.376 . S
C565 C566 1.388 . S
C566 H553 0.930 . S
C566 C565 1.388 . S
C566 C567 1.390 . S
C567 C566 1.390 . S
C567 C568 1.394 . S
C567 C573 1.465 1_565 S
C568 C563 1.399 . S
C568 C567 1.394 . S
C568 C569 1.516 1_565 S
C569 C568 1.516 1_545 S
C569 C570 1.502 . S
C569 C571 1.561 . S
C569 C572 1.526 . S
C570 H554 0.959 . S
C570 H555 0.959 . S
C570 H556 0.959 . S
C570 C569 1.502 . S
C571 H557 0.918 1_545 S
C571 H558 0.961 . S
C571 H559 0.959 . S
C571 C569 1.561 . S
C572 C569 1.526 . S
C572 C573 1.396 . S
C572 C577 1.390 . S
C573 C567 1.465 1_545 S
C573 C572 1.396 . S
C573 C574 1.399 . S
C574 H560 0.929 . S
C574 C573 1.399 . S
C574 C575 1.385 . S
C575 H561 0.931 . S
C575 C574 1.385 . S
C575 C576 1.389 . S
C576 C575 1.389 . S
C576 C577 1.387 . S
C577 H562 0.930 . S
C577 C572 1.390 . S
C577 C576 1.387 . S
H578 C590 0.930 . S
H579 C592 0.930 . S
H580 C593 0.930 . S
H581 C597 0.959 . S
H582 C597 0.959 . S
H583 C597 0.961 . S
H584 C598 0.960 . S
H585 C598 0.961 . S
H586 C598 0.959 . S
H587 C601 0.929 . S
H588 C602 0.931 . S
H589 C604 0.930 . S
C590 H578 0.930 . S
C590 C591 1.399 . S
C590 C595 1.399 . S
C591 C590 1.399 . S
C591 C592 1.376 . S
C592 H579 0.930 . S
C592 C591 1.376 . S
C592 C593 1.388 . S
C593 H580 0.930 . S
C593 C592 1.388 . S
C593 C594 1.390 . S
C594 C593 1.390 . S
C594 C595 1.394 . S
C594 C600 1.465 . S
C595 C590 1.399 . S
C595 C594 1.394 . S
C595 C596 1.516 . S
C596 C595 1.516 . S
C596 C597 1.502 . S
C596 C598 1.561 . S
C596 C599 1.526 . S
C597 H581 0.959 . S
C597 H582 0.959 . S
C597 H583 0.961 . S
C597 C596 1.502 . S
C598 H584 0.960 . S
C598 H585 0.961 . S
C598 H586 0.959 . S
C598 C596 1.561 . S
C599 C596 1.526 . S
C599 C600 1.396 . S
C599 C604 1.390 . S
C600 C594 1.465 . S
C600 C599 1.396 . S
C600 C601 1.399 . S
C601 H587 0.929 . S
C601 C600 1.399 . S
C601 C602 1.385 . S
C602 H588 0.931 . S
C602 C601 1.385 . S
C602 C603 1.389 . S
C603 C602 1.389 . S
C603 C604 1.387 . S
C604 H589 0.930 . S
C604 C599 1.390 . S
C604 C603 1.387 . S
H605 C617 0.930 . S
H606 C619 0.930 . S
H607 C620 0.930 . S
H608 C624 0.959 . S
H609 C624 0.959 . S
H610 C624 0.961 1_565 S
H611 C625 0.969 . S
H612 C625 0.961 . S
H613 C625 0.959 . S
H614 C628 0.929 . S
H615 C629 0.931 . S
H616 C631 0.930 . S
C617 H605 0.930 . S
C617 C618 1.399 . S
C617 C622 1.399 . S
C618 C617 1.399 . S
C618 C619 1.376 . S
C619 H606 0.930 . S
C619 C618 1.376 . S
C619 C620 1.388 . S
C620 H607 0.930 . S
C620 C619 1.388 . S
C620 C621 1.390 . S
C621 C620 1.390 . S
C621 C622 1.394 . S
C621 C627 1.465 1_565 S
C622 C617 1.399 . S
C622 C621 1.394 . S
C622 C623 1.516 1_565 S
C623 C622 1.516 1_545 S
C623 C624 1.502 . S
C623 C625 1.561 . S
C623 C626 1.526 . S
C624 H608 0.959 . S
C624 H609 0.959 . S
C624 H610 0.961 1_545 S
C624 C623 1.502 . S
C625 H611 0.969 . S
C625 H612 0.961 . S
C625 H613 0.959 . S
C625 C623 1.561 . S
C626 C623 1.526 . S
C626 C627 1.396 . S
C626 C631 1.390 . S
C627 C621 1.465 1_545 S
C627 C626 1.396 . S
C627 C628 1.399 . S
C628 H614 0.929 . S
C628 C627 1.399 . S
C628 C629 1.385 . S
C629 H615 0.931 . S
C629 C628 1.385 . S
C629 C630 1.389 . S
C630 C629 1.389 . S
C630 C631 1.387 . S
C631 H616 0.930 . S
C631 C626 1.390 . S
C631 C630 1.387 . S
H632 C644 0.930 . S
H633 C646 0.930 . S
H634 C647 0.930 . S
H635 C651 0.959 . S
H636 C651 0.959 . S
H637 C651 0.961 . S
H638 C652 0.960 . S
H639 C652 0.961 . S
H640 C652 0.959 . S
H641 C655 0.929 . S
H642 C656 0.931 . S
H643 C658 0.930 . S
C644 H632 0.930 . S
C644 C645 1.399 . S
C644 C649 1.399 . S
C645 C644 1.399 . S
C645 C646 1.376 . S
C646 H633 0.930 . S
C646 C645 1.376 . S
C646 C647 1.388 . S
C647 H634 0.930 . S
C647 C646 1.388 . S
C647 C648 1.390 . S
C648 C647 1.390 . S
C648 C649 1.394 . S
C648 C654 1.465 . S
C649 C644 1.399 . S
C649 C648 1.394 . S
C649 C650 1.516 . S
C650 C649 1.516 . S
C650 C651 1.502 . S
C650 C652 1.561 . S
C650 C653 1.526 . S
C651 H635 0.959 . S
C651 H636 0.959 . S
C651 H637 0.961 . S
C651 C650 1.502 . S
C652 H638 0.960 . S
C652 H639 0.961 . S
C652 H640 0.959 . S
C652 C650 1.561 . S
C653 C650 1.526 . S
C653 C654 1.396 . S
C653 C658 1.390 . S
C654 C648 1.465 . S
C654 C653 1.396 . S
C654 C655 1.399 . S
C655 H641 0.929 . S
C655 C654 1.399 . S
C655 C656 1.385 . S
C656 H642 0.931 . S
C656 C655 1.385 . S
C656 C657 1.389 . S
C657 C656 1.389 . S
C657 C658 1.387 . S
C658 H643 0.930 . S
C658 C653 1.390 . S
C658 C657 1.387 . S
H659 C671 0.930 . S
H660 C673 0.930 . S
H661 C674 0.930 . S
H662 C678 0.959 . S
H663 C678 0.959 . S
H664 C678 0.961 . S
H665 C679 0.960 . S
H666 C679 0.961 . S
H667 C679 0.959 . S
H668 C682 0.929 . S
H669 C683 0.931 . S
H670 C685 0.930 . S
C671 H659 0.930 . S
C671 C672 1.399 . S
C671 C676 1.399 . S
C672 C671 1.399 . S
C672 C673 1.376 . S
C673 H660 0.930 . S
C673 C672 1.376 . S
C673 C674 1.388 . S
C674 H661 0.930 . S
C674 C673 1.388 . S
C674 C675 1.390 . S
C675 C674 1.390 . S
C675 C676 1.394 . S
C675 C681 1.465 . S
C676 C671 1.399 . S
C676 C675 1.394 . S
C676 C677 1.516 . S
C677 C676 1.516 . S
C677 C678 1.502 . S
C677 C679 1.561 . S
C677 C680 1.526 . S
C678 H662 0.959 . S
C678 H663 0.959 . S
C678 H664 0.961 . S
C678 C677 1.502 . S
C679 H665 0.960 . S
C679 H666 0.961 . S
C679 H667 0.959 . S
C679 C677 1.561 . S
C680 C677 1.526 . S
C680 C681 1.396 . S
C680 C685 1.390 . S
C681 C675 1.465 . S
C681 C680 1.396 . S
C681 C682 1.399 . S
C682 H668 0.929 . S
C682 C681 1.399 . S
C682 C683 1.385 . S
C683 H669 0.931 . S
C683 C682 1.385 . S
C683 C684 1.389 . S
C684 C683 1.389 . S
C684 C685 1.387 . S
C685 H670 0.930 . S
C685 C680 1.390 . S
C685 C684 1.387 . S
H686 C698 0.930 . S
H687 C700 0.930 . S
H688 C701 0.930 1_554 S
H689 C705 0.959 . S
H690 C705 0.959 . S
H691 C705 0.961 . S
H692 C706 0.960 . S
H693 C706 0.961 . S
H694 C706 0.959 . S
H695 C709 0.929 . S
H696 C710 0.931 . S
H697 C712 0.930 . S
C698 H686 0.930 . S
C698 C699 1.399 . S
C698 C703 1.399 . S
C699 C698 1.399 . S
C699 C700 1.376 . S
C700 H687 0.930 . S
C700 C699 1.376 . S
C700 C701 1.388 . S
C701 H688 0.930 1_556 S
C701 C700 1.388 . S
C701 C702 1.390 1_556 S
C702 C701 1.390 1_554 S
C702 C703 1.394 1_554 S
C702 C708 1.465 . S
C703 C698 1.399 . S
C703 C702 1.394 1_556 S
C703 C704 1.516 . S
C704 C703 1.516 . S
C704 C705 1.502 . S
C704 C706 1.561 1_556 S
C704 C707 1.526 1_556 S
C705 H689 0.959 . S
C705 H690 0.959 . S
C705 H691 0.961 . S
C705 C704 1.502 . S
C706 H692 0.960 . S
C706 H693 0.961 . S
C706 H694 0.959 . S
C706 C704 1.561 1_554 S
C707 C704 1.526 1_554 S
C707 C708 1.396 . S
C707 C712 1.390 . S
C708 C702 1.465 . S
C708 C707 1.396 . S
C708 C709 1.399 . S
C709 H695 0.929 . S
C709 C708 1.399 . S
C709 C710 1.385 . S
C710 H696 0.931 . S
C710 C709 1.385 . S
C710 C711 1.389 . S
C711 C710 1.389 . S
C711 C712 1.387 . S
C712 H697 0.930 . S
C712 C707 1.390 . S
C712 C711 1.387 . S
H713 C725 0.930 . S
H714 C727 0.930 . S
H715 C728 0.930 . S
H716 C732 0.959 . S
H717 C732 0.959 . S
H718 C732 0.961 . S
H719 C733 0.960 . S
H720 C733 0.961 . S
H721 C733 0.959 . S
H722 C736 0.929 . S
H723 C737 0.931 . S
H724 C739 0.930 . S
C725 H713 0.930 . S
C725 C726 1.399 . S
C725 C730 1.399 . S
C726 C725 1.399 . S
C726 C727 1.376 . S
C727 H714 0.930 . S
C727 C726 1.376 . S
C727 C728 1.388 . S
C728 H715 0.930 . S
C728 C727 1.388 . S
C728 C729 1.390 . S
C729 C728 1.390 . S
C729 C730 1.394 . S
C729 C735 1.465 . S
C730 C725 1.399 . S
C730 C729 1.394 . S
C730 C731 1.516 . S
C731 C730 1.516 . S
C731 C732 1.502 . S
C731 C733 1.561 . S
C731 C734 1.526 . S
C732 H716 0.959 . S
C732 H717 0.959 . S
C732 H718 0.961 . S
C732 C731 1.502 . S
C733 H719 0.960 . S
C733 H720 0.961 . S
C733 H721 0.959 . S
C733 C731 1.561 . S
C734 C731 1.526 . S
C734 C735 1.396 . S
C734 C739 1.390 . S
C735 C729 1.465 . S
C735 C734 1.396 . S
C735 C736 1.399 . S
C736 H722 0.929 . S
C736 C735 1.399 . S
C736 C737 1.385 . S
C737 H723 0.931 . S
C737 C736 1.385 . S
C737 C738 1.389 . S
C738 C737 1.389 . S
C738 C739 1.387 . S
C739 H724 0.930 . S
C739 C734 1.390 . S
C739 C738 1.387 . S
H740 C752 0.930 . S
H741 C754 0.930 . S
H742 C755 0.930 . S
H743 C759 0.959 . S
H744 C759 0.959 . S
H745 C759 0.961 . S
H746 C760 0.960 . S
H747 C760 0.961 . S
H748 C760 0.959 . S
H749 C763 0.929 . S
H750 C764 0.931 . S
H751 C766 0.930 . S
C752 H740 0.930 . S
C752 C753 1.399 . S
C752 C757 1.399 . S
C753 C752 1.399 . S
C753 C754 1.376 . S
C754 H741 0.930 . S
C754 C753 1.376 . S
C754 C755 1.388 . S
C755 H742 0.930 . S
C755 C754 1.388 . S
C755 C756 1.390 . S
C756 C755 1.390 . S
C756 C757 1.394 . S
C756 C762 1.465 . S
C757 C752 1.399 . S
C757 C756 1.394 . S
C757 C758 1.516 . S
C758 C757 1.516 . S
C758 C759 1.502 . S
C758 C760 1.561 . S
C758 C761 1.526 . S
C759 H743 0.959 . S
C759 H744 0.959 . S
C759 H745 0.961 . S
C759 C758 1.502 . S
C760 H746 0.960 . S
C760 H747 0.961 . S
C760 H748 0.959 . S
C760 C758 1.561 . S
C761 C758 1.526 . S
C761 C762 1.396 . S
C761 C766 1.390 . S
C762 C756 1.465 . S
C762 C761 1.396 . S
C762 C763 1.399 . S
C763 H749 0.929 . S
C763 C762 1.399 . S
C763 C764 1.385 . S
C764 H750 0.931 . S
C764 C763 1.385 . S
C764 C765 1.389 . S
C765 C764 1.389 . S
C765 C766 1.387 . S
C766 H751 0.930 . S
C766 C761 1.390 . S
C766 C765 1.387 . S
H767 C779 0.930 . S
H768 C781 0.930 . S
H769 C782 0.930 . S
H770 C786 0.959 . S
H771 C786 0.959 . S
H772 C786 0.961 . S
H773 C787 0.960 . S
H774 C787 0.961 . S
H775 C787 0.959 . S
H776 C790 0.929 . S
H777 C791 0.931 . S
H778 C793 0.930 . S
C779 H767 0.930 . S
C779 C780 1.399 . S
C779 C784 1.399 . S
C780 C779 1.399 . S
C780 C781 1.376 . S
C781 H768 0.930 . S
C781 C780 1.376 . S
C781 C782 1.388 . S
C782 H769 0.930 . S
C782 C781 1.388 . S
C782 C783 1.390 . S
C783 C782 1.390 . S
C783 C784 1.394 . S
C783 C789 1.465 . S
C784 C779 1.399 . S
C784 C783 1.394 . S
C784 C785 1.516 . S
C785 C784 1.516 . S
C785 C786 1.502 . S
C785 C787 1.561 . S
C785 C788 1.526 . S
C786 H770 0.959 . S
C786 H771 0.959 . S
C786 H772 0.961 . S
C786 C785 1.502 . S
C787 H773 0.960 . S
C787 H774 0.961 . S
C787 H775 0.959 . S
C787 C785 1.561 . S
C788 C785 1.526 . S
C788 C789 1.396 . S
C788 C793 1.390 . S
C789 C783 1.465 . S
C789 C788 1.396 . S
C789 C790 1.399 . S
C790 H776 0.929 . S
C790 C789 1.399 . S
C790 C791 1.385 . S
C791 H777 0.931 . S
C791 C790 1.385 . S
C791 C792 1.389 . S
C792 C791 1.389 . S
C792 C793 1.387 . S
C793 H778 0.930 . S
C793 C788 1.390 . S
C793 C792 1.387 . S
H794 C806 0.930 . S
H795 C808 0.930 . S
H796 C809 0.930 . S
H797 C813 0.959 . S
H798 C813 0.959 . S
H799 C813 0.961 . S
H800 C814 0.960 . S
H801 C814 0.961 . S
H802 C814 0.959 . S
H803 C817 0.929 . S
H804 C818 0.931 . S
H805 C820 0.930 . S
C806 H794 0.930 . S
C806 C807 1.399 . S
C806 C811 1.399 . S
C807 C806 1.399 . S
C807 C808 1.376 . S
C808 H795 0.930 . S
C808 C807 1.376 . S
C808 C809 1.388 . S
C809 H796 0.930 . S
C809 C808 1.388 . S
C809 C810 1.390 . S
C810 C809 1.390 . S
C810 C811 1.394 . S
C810 C816 1.465 . S
C811 C806 1.399 . S
C811 C810 1.394 . S
C811 C812 1.516 1_554 S
C812 C811 1.516 1_556 S
C812 C813 1.502 . S
C812 C814 1.561 1_556 S
C812 C815 1.526 . S
C813 H797 0.959 . S
C813 H798 0.959 . S
C813 H799 0.961 . S
C813 C812 1.502 . S
C814 H800 0.960 . S
C814 H801 0.961 . S
C814 H802 0.959 . S
C814 C812 1.561 1_554 S
C815 C812 1.526 . S
C815 C816 1.396 1_556 S
C815 C820 1.390 . S
C816 C810 1.465 . S
C816 C815 1.396 1_554 S
C816 C817 1.399 . S
C817 H803 0.929 . S
C817 C816 1.399 . S
C817 C818 1.385 1_554 S
C818 H804 0.931 . S
C818 C817 1.385 1_556 S
C818 C819 1.389 . S
C819 C818 1.389 . S
C819 C820 1.387 . S
C820 H805 0.930 . S
C820 C815 1.390 . S
C820 C819 1.387 . S
H821 C833 0.930 . S
H822 C835 0.930 . S
H823 C836 0.930 . S
H824 C840 0.955 1_455 S
H825 C840 0.959 . S
H826 C840 0.961 . S
H827 C841 0.960 . S
H828 C841 0.961 . S
H829 C841 0.959 . S
H830 C844 0.929 . S
H831 C845 0.931 . S
H832 C847 0.930 . S
C833 H821 0.930 . S
C833 C834 1.399 . S
C833 C838 1.399 . S
C834 C833 1.399 . S
C834 C835 1.376 . S
C835 H822 0.930 . S
C835 C834 1.376 . S
C835 C836 1.388 . S
C836 H823 0.930 . S
C836 C835 1.388 . S
C836 C837 1.390 . S
C837 C836 1.390 . S
C837 C838 1.394 . S
C837 C843 1.465 . S
C838 C833 1.399 . S
C838 C837 1.394 . S
C838 C839 1.516 . S
C839 C838 1.516 . S
C839 C840 1.502 . S
C839 C841 1.561 . S
C839 C842 1.526 . S
C840 H824 0.955 1_655 S
C840 H825 0.959 . S
C840 H826 0.961 . S
C840 C839 1.502 . S
C841 H827 0.960 . S
C841 H828 0.961 . S
C841 H829 0.959 . S
C841 C839 1.561 . S
C842 C839 1.526 . S
C842 C843 1.396 . S
C842 C847 1.390 . S
C843 C837 1.465 . S
C843 C842 1.396 . S
C843 C844 1.399 . S
C844 H830 0.929 . S
C844 C843 1.399 . S
C844 C845 1.385 . S
C845 H831 0.931 . S
C845 C844 1.385 . S
C845 C846 1.389 . S
C846 C845 1.389 . S
C846 C847 1.387 . S
C847 H832 0.930 . S
C847 C842 1.390 . S
C847 C846 1.387 . S
H848 C860 0.930 . S
H849 C862 0.930 . S
H850 C863 0.930 . S
H851 C867 0.959 . S
H852 C867 0.959 . S
H853 C867 0.961 . S
H854 C868 0.960 . S
H855 C868 0.961 . S
H856 C868 0.959 . S
H857 C871 0.929 . S
H858 C872 0.931 . S
H859 C874 0.930 . S
C860 H848 0.930 . S
C860 C861 1.399 . S
C860 C865 1.399 . S
C861 C860 1.399 . S
C861 C862 1.376 . S
C862 H849 0.930 . S
C862 C861 1.376 . S
C862 C863 1.388 . S
C863 H850 0.930 . S
C863 C862 1.388 . S
C863 C864 1.390 . S
C864 C863 1.390 . S
C864 C865 1.394 . S
C864 C870 1.465 . S
C865 C860 1.399 . S
C865 C864 1.394 . S
C865 C866 1.516 . S
C866 C865 1.516 . S
C866 C867 1.502 . S
C866 C868 1.561 . S
C866 C869 1.526 . S
C867 H851 0.959 . S
C867 H852 0.959 . S
C867 H853 0.961 . S
C867 C866 1.502 . S
C868 H854 0.960 . S
C868 H855 0.961 . S
C868 H856 0.959 . S
C868 C866 1.561 . S
C869 C866 1.526 . S
C869 C870 1.396 . S
C869 C874 1.390 . S
C870 C864 1.465 . S
C870 C869 1.396 . S
C870 C871 1.399 . S
C871 H857 0.929 . S
C871 C870 1.399 . S
C871 C872 1.385 . S
C872 H858 0.931 . S
C872 C871 1.385 . S
C872 C873 1.389 . S
C873 C872 1.389 . S
C873 C874 1.387 . S
C874 H859 0.930 . S
C874 C869 1.390 . S
C874 C873 1.387 . S
H875 C887 0.930 . S
H876 C889 0.938 . S
H877 C890 0.930 1_554 S
H878 C894 0.959 . S
H879 C894 0.959 . S
H880 C894 0.961 . S
H881 C895 0.960 . S
H882 C895 0.961 . S
H883 C895 0.959 . S
H884 C898 0.929 . S
H885 C899 0.931 . S
H886 C901 0.930 . S
C887 H875 0.930 . S
C887 C888 1.399 . S
C887 C892 1.399 1_556 S
C888 C887 1.399 . S
C888 C889 1.376 . S
C889 H876 0.938 . S
C889 C888 1.376 . S
C889 C890 1.388 1_455 S
C890 H877 0.930 1_556 S
C890 C889 1.388 1_655 S
C890 C891 1.390 1_556 S
C891 C890 1.390 1_554 S
C891 C892 1.394 1_655 S
C891 C897 1.465 . S
C892 C887 1.399 1_554 S
C892 C891 1.394 1_455 S
C892 C893 1.516 . S
C893 C892 1.516 . S
C893 C894 1.502 . S
C893 C895 1.561 1_455 S
C893 C896 1.526 1_455 S
C894 H878 0.959 . S
C894 H879 0.959 . S
C894 H880 0.961 . S
C894 C893 1.502 . S
C895 H881 0.960 . S
C895 H882 0.961 . S
C895 H883 0.959 . S
C895 C893 1.561 1_655 S
C896 C893 1.526 1_655 S
C896 C897 1.396 . S
C896 C901 1.390 . S
C897 C891 1.465 . S
C897 C896 1.396 . S
C897 C898 1.399 . S
C898 H884 0.929 . S
C898 C897 1.399 . S
C898 C899 1.385 . S
C899 H885 0.931 . S
C899 C898 1.385 . S
C899 C900 1.389 . S
C900 C899 1.389 . S
C900 C901 1.387 . S
C901 H886 0.930 . S
C901 C896 1.390 . S
C901 C900 1.387 . S
H902 C914 0.930 . S
H903 C916 0.930 . S
H904 C917 0.930 . S
H905 C921 0.959 . S
H906 C921 0.959 . S
H907 C921 0.961 . S
H908 C922 0.960 . S
H909 C922 0.961 . S
H910 C922 0.959 . S
H911 C925 0.929 . S
H912 C926 0.931 . S
H913 C928 0.930 . S
C914 H902 0.930 . S
C914 C915 1.399 . S
C914 C919 1.399 . S
C915 C914 1.399 . S
C915 C916 1.376 . S
C916 H903 0.930 . S
C916 C915 1.376 . S
C916 C917 1.388 . S
C917 H904 0.930 . S
C917 C916 1.388 . S
C917 C918 1.390 . S
C918 C917 1.390 . S
C918 C919 1.394 . S
C918 C924 1.465 . S
C919 C914 1.399 . S
C919 C918 1.394 . S
C919 C920 1.516 . S
C920 C919 1.516 . S
C920 C921 1.502 . S
C920 C922 1.561 . S
C920 C923 1.526 . S
C921 H905 0.959 . S
C921 H906 0.959 . S
C921 H907 0.961 . S
C921 C920 1.502 . S
C922 H908 0.960 . S
C922 H909 0.961 . S
C922 H910 0.959 . S
C922 C920 1.561 . S
C923 C920 1.526 . S
C923 C924 1.396 . S
C923 C928 1.390 . S
C924 C918 1.465 . S
C924 C923 1.396 . S
C924 C925 1.399 . S
C925 H911 0.929 . S
C925 C924 1.399 . S
C925 C926 1.385 . S
C926 H912 0.931 . S
C926 C925 1.385 . S
C926 C927 1.389 . S
C927 C926 1.389 . S
C927 C928 1.387 . S
C928 H913 0.930 . S
C928 C923 1.390 . S
C928 C927 1.387 . S
H929 C941 0.930 . S
H930 C943 0.930 . S
H931 C944 0.930 . S
H932 C948 0.959 . S
H933 C948 0.959 . S
H934 C948 0.961 . S
H935 C949 0.960 . S
H936 C949 0.961 . S
H937 C949 0.959 . S
H938 C952 0.929 . S
H939 C953 0.931 . S
H940 C955 0.930 . S
C941 H929 0.930 . S
C941 C942 1.399 . S
C941 C946 1.399 . S
C942 C941 1.399 . S
C942 C943 1.376 . S
C943 H930 0.930 . S
C943 C942 1.376 . S
C943 C944 1.388 . S
C944 H931 0.930 . S
C944 C943 1.388 . S
C944 C945 1.390 . S
C945 C944 1.390 . S
C945 C946 1.394 . S
C945 C951 1.465 . S
C946 C941 1.399 . S
C946 C945 1.394 . S
C946 C947 1.516 . S
C947 C946 1.516 . S
C947 C948 1.502 . S
C947 C949 1.561 . S
C947 C950 1.526 . S
C948 H932 0.959 . S
C948 H933 0.959 . S
C948 H934 0.961 . S
C948 C947 1.502 . S
C949 H935 0.960 . S
C949 H936 0.961 . S
C949 H937 0.959 . S
C949 C947 1.561 . S
C950 C947 1.526 . S
C950 C951 1.396 . S
C950 C955 1.390 . S
C951 C945 1.465 . S
C951 C950 1.396 . S
C951 C952 1.399 . S
C952 H938 0.929 . S
C952 C951 1.399 . S
C952 C953 1.385 . S
C953 H939 0.931 . S
C953 C952 1.385 . S
C953 C954 1.389 . S
C954 C953 1.389 . S
C954 C955 1.387 . S
C955 H940 0.930 . S
C955 C950 1.390 . S
C955 C954 1.387 . S
H956 C968 0.930 . S
H957 C970 0.930 . S
H958 C971 0.930 . S
H959 C975 0.959 . S
H960 C975 0.959 . S
H961 C975 0.961 . S
H962 C976 0.960 . S
H963 C976 0.961 . S
H964 C976 0.959 . S
H965 C979 0.929 . S
H966 C980 0.931 . S
H967 C982 0.930 . S
C968 H956 0.930 . S
C968 C969 1.399 . S
C968 C973 1.399 . S
C969 C968 1.399 . S
C969 C970 1.376 . S
C970 H957 0.930 . S
C970 C969 1.376 . S
C970 C971 1.388 . S
C971 H958 0.930 . S
C971 C970 1.388 . S
C971 C972 1.390 . S
C972 C971 1.390 . S
C972 C973 1.394 . S
C972 C978 1.465 . S
C973 C968 1.399 . S
C973 C972 1.394 . S
C973 C974 1.516 . S
C974 C973 1.516 . S
C974 C975 1.502 . S
C974 C976 1.561 . S
C974 C977 1.526 . S
C975 H959 0.959 . S
C975 H960 0.959 . S
C975 H961 0.961 . S
C975 C974 1.502 . S
C976 H962 0.960 . S
C976 H963 0.961 . S
C976 H964 0.959 . S
C976 C974 1.561 . S
C977 C974 1.526 . S
C977 C978 1.396 . S
C977 C982 1.390 . S
C978 C972 1.465 . S
C978 C977 1.396 . S
C978 C979 1.399 . S
C979 H965 0.929 . S
C979 C978 1.399 . S
C979 C980 1.385 . S
C980 H966 0.931 . S
C980 C979 1.385 . S
C980 C981 1.389 . S
C981 C980 1.389 . S
C981 C982 1.387 . S
C982 H967 0.930 . S
C982 C977 1.390 . S
C982 C981 1.387 . S
H983 C995 0.930 . S
H984 C997 0.930 . S
H985 C998 0.930 . S
H986 C1002 0.959 . S
H987 C1002 0.959 . S
H988 C1002 0.961 . S
H989 C1003 0.960 . S
H990 C1003 0.961 . S
H991 C1003 0.959 . S
H992 C1006 0.929 . S
H993 C1007 0.931 . S
H994 C1009 0.930 . S
C995 H983 0.930 . S
C995 C996 1.399 . S
C995 C1000 1.399 1_554 S
C996 C995 1.399 . S
C996 C997 1.376 . S
C997 H984 0.930 . S
C997 C996 1.376 . S
C997 C998 1.388 1_554 S
C998 H985 0.930 . S
C998 C997 1.388 1_556 S
C998 C999 1.390 . S
C999 C998 1.390 . S
C999 C1000 1.394 . S
C999 C1005 1.465 . S
C1000 C995 1.399 1_556 S
C1000 C999 1.394 . S
C1000 C1001 1.516 . S
C1001 C1000 1.516 . S
C1001 C1002 1.502 . S
C1001 C1003 1.561 . S
C1001 C1004 1.526 . S
C1002 H986 0.959 . S
C1002 H987 0.959 . S
C1002 H988 0.961 . S
C1002 C1001 1.502 . S
C1003 H989 0.960 . S
C1003 H990 0.961 . S
C1003 H991 0.959 . S
C1003 C1001 1.561 . S
C1004 C1001 1.526 . S
C1004 C1005 1.396 . S
C1004 C1009 1.390 . S
C1005 C999 1.465 . S
C1005 C1004 1.396 . S
C1005 C1006 1.399 . S
C1006 H992 0.929 . S
C1006 C1005 1.399 . S
C1006 C1007 1.385 . S
C1007 H993 0.931 . S
C1007 C1006 1.385 . S
C1007 C1008 1.389 . S
C1008 C1007 1.389 . S
C1008 C1009 1.387 . S
C1009 H994 0.930 . S
C1009 C1004 1.390 . S
C1009 C1008 1.387 . S
H1010 C1022 0.930 . S
H1011 C1024 0.930 . S
H1012 C1025 0.930 . S
H1013 C1029 0.959 . S
H1014 C1029 0.959 . S
H1015 C1029 0.961 . S
H1016 C1030 0.960 . S
H1017 C1030 0.961 . S
H1018 C1030 0.959 . S
H1019 C1033 0.929 . S
H1020 C1034 0.931 . S
H1021 C1036 0.930 . S
C1022 H1010 0.930 . S
C1022 C1023 1.399 . S
C1022 C1027 1.399 . S
C1023 C1022 1.399 . S
C1023 C1024 1.376 . S
C1024 H1011 0.930 . S
C1024 C1023 1.376 . S
C1024 C1025 1.388 . S
C1025 H1012 0.930 . S
C1025 C1024 1.388 . S
C1025 C1026 1.390 . S
C1026 C1025 1.390 . S
C1026 C1027 1.394 . S
C1026 C1032 1.465 . S
C1027 C1022 1.399 . S
C1027 C1026 1.394 . S
C1027 C1028 1.516 . S
C1028 C1027 1.516 . S
C1028 C1029 1.502 . S
C1028 C1030 1.561 . S
C1028 C1031 1.526 . S
C1029 H1013 0.959 . S
C1029 H1014 0.959 . S
C1029 H1015 0.961 . S
C1029 C1028 1.502 . S
C1030 H1016 0.960 . S
C1030 H1017 0.961 . S
C1030 H1018 0.959 . S
C1030 C1028 1.561 . S
C1031 C1028 1.526 . S
C1031 C1032 1.396 . S
C1031 C1036 1.390 . S
C1032 C1026 1.465 . S
C1032 C1031 1.396 . S
C1032 C1033 1.399 . S
C1033 H1019 0.929 . S
C1033 C1032 1.399 . S
C1033 C1034 1.385 . S
C1034 H1020 0.931 . S
C1034 C1033 1.385 . S
C1034 C1035 1.389 . S
C1035 C1034 1.389 . S
C1035 C1036 1.387 . S
C1036 H1021 0.930 . S
C1036 C1031 1.390 . S
C1036 C1035 1.387 . S
H1037 C1049 0.930 . S
H1038 C1051 0.930 . S
H1039 C1052 0.930 . S
H1040 C1056 0.959 . S
H1041 C1056 0.959 . S
H1042 C1056 0.961 . S
H1043 C1057 0.960 . S
H1044 C1057 0.961 . S
H1045 C1057 0.959 . S
H1046 C1060 0.929 . S
H1047 C1061 0.931 . S
H1048 C1063 0.930 . S
C1049 H1037 0.930 . S
C1049 C1050 1.399 . S
C1049 C1054 1.399 . S
C1050 C1049 1.399 . S
C1050 C1051 1.376 . S
C1051 H1038 0.930 . S
C1051 C1050 1.376 . S
C1051 C1052 1.388 . S
C1052 H1039 0.930 . S
C1052 C1051 1.388 . S
C1052 C1053 1.390 . S
C1053 C1052 1.390 . S
C1053 C1054 1.394 . S
C1053 C1059 1.465 1_455 S
C1054 C1049 1.399 . S
C1054 C1053 1.394 . S
C1054 C1055 1.516 1_455 S
C1055 C1054 1.516 1_655 S
C1055 C1056 1.502 1_655 S
C1055 C1057 1.561 . S
C1055 C1058 1.526 . S
C1056 H1040 0.959 . S
C1056 H1041 0.959 . S
C1056 H1042 0.961 . S
C1056 C1055 1.502 1_455 S
C1057 H1043 0.960 . S
C1057 H1044 0.961 . S
C1057 H1045 0.959 . S
C1057 C1055 1.561 . S
C1058 C1055 1.526 . S
C1058 C1059 1.396 . S
C1058 C1063 1.390 . S
C1059 C1053 1.465 1_655 S
C1059 C1058 1.396 . S
C1059 C1060 1.399 . S
C1060 H1046 0.929 . S
C1060 C1059 1.399 . S
C1060 C1061 1.385 . S
C1061 H1047 0.931 . S
C1061 C1060 1.385 . S
C1061 C1062 1.389 . S
C1062 C1061 1.389 . S
C1062 C1063 1.387 . S
C1063 H1048 0.930 . S
C1063 C1058 1.390 . S
C1063 C1062 1.387 . S
H1064 C1076 0.930 . S
H1065 C1078 0.930 . S
H1066 C1079 0.930 . S
H1067 C1083 0.959 . S
H1068 C1083 0.959 . S
H1069 C1083 0.961 . S
H1070 C1084 0.960 . S
H1071 C1084 0.961 . S
H1072 C1084 0.959 . S
H1073 C1087 0.929 . S
H1074 C1088 0.931 . S
H1075 C1090 0.930 . S
C1076 H1064 0.930 . S
C1076 C1077 1.399 . S
C1076 C1081 1.399 . S
C1077 C1076 1.399 . S
C1077 C1078 1.376 . S
C1078 H1065 0.930 . S
C1078 C1077 1.376 . S
C1078 C1079 1.388 . S
C1079 H1066 0.930 . S
C1079 C1078 1.388 . S
C1079 C1080 1.390 . S
C1080 C1079 1.390 . S
C1080 C1081 1.394 . S
C1080 C1086 1.465 . S
C1081 C1076 1.399 . S
C1081 C1080 1.394 . S
C1081 C1082 1.516 . S
C1082 C1081 1.516 . S
C1082 C1083 1.502 . S
C1082 C1084 1.561 . S
C1082 C1085 1.526 . S
C1083 H1067 0.959 . S
C1083 H1068 0.959 . S
C1083 H1069 0.961 . S
C1083 C1082 1.502 . S
C1084 H1070 0.960 . S
C1084 H1071 0.961 . S
C1084 H1072 0.959 . S
C1084 C1082 1.561 . S
C1085 C1082 1.526 . S
C1085 C1086 1.396 . S
C1085 C1090 1.390 . S
C1086 C1080 1.465 . S
C1086 C1085 1.396 . S
C1086 C1087 1.399 . S
C1087 H1073 0.929 . S
C1087 C1086 1.399 . S
C1087 C1088 1.385 . S
C1088 H1074 0.931 . S
C1088 C1087 1.385 . S
C1088 C1089 1.389 . S
C1089 C1088 1.389 . S
C1089 C1090 1.387 . S
C1090 H1075 0.930 . S
C1090 C1085 1.390 . S
C1090 C1089 1.387 . S
H1091 C1103 0.930 . S
H1092 C1105 0.936 . S
H1093 C1106 0.933 . S
H1094 C1110 0.959 . S
H1095 C1110 0.959 . S
H1096 C1110 0.961 . S
H1097 C1111 0.960 . S
H1098 C1111 0.961 . S
H1099 C1111 0.959 . S
H1100 C1114 0.929 . S
H1101 C1115 0.931 . S
H1102 C1117 0.930 . S
C1103 H1091 0.930 . S
C1103 C1104 1.399 . S
C1103 C1108 1.399 1_554 S
C1104 C1103 1.399 . S
C1104 C1105 1.376 . S
C1105 H1092 0.936 . S
C1105 C1104 1.376 . S
C1105 C1106 1.374 1_654 S
C1106 H1093 0.933 . S
C1106 C1105 1.374 1_456 S
C1106 C1107 1.401 . S
C1107 C1106 1.401 . S
C1107 C1108 1.394 1_455 S
C1107 C1113 1.465 . S
C1108 C1103 1.399 1_556 S
C1108 C1107 1.394 1_655 S
C1108 C1109 1.516 . S
C1109 C1108 1.516 . S
C1109 C1110 1.502 . S
C1109 C1111 1.561 1_655 S
C1109 C1112 1.526 1_655 S
C1110 H1094 0.959 . S
C1110 H1095 0.959 . S
C1110 H1096 0.961 . S
C1110 C1109 1.502 . S
C1111 H1097 0.960 . S
C1111 H1098 0.961 . S
C1111 H1099 0.959 . S
C1111 C1109 1.561 1_455 S
C1112 C1109 1.526 1_455 S
C1112 C1113 1.396 . S
C1112 C1117 1.390 . S
C1113 C1107 1.465 . S
C1113 C1112 1.396 . S
C1113 C1114 1.399 . S
C1114 H1100 0.929 . S
C1114 C1113 1.399 . S
C1114 C1115 1.385 . S
C1115 H1101 0.931 . S
C1115 C1114 1.385 . S
C1115 C1116 1.389 . S
C1116 C1115 1.389 . S
C1116 C1117 1.387 . S
C1117 H1102 0.930 . S
C1117 C1112 1.390 . S
C1117 C1116 1.387 . S
H1118 C1130 0.930 . S
H1119 C1132 0.930 . S
H1120 C1133 0.930 . S
H1121 C1137 0.959 . S
H1122 C1137 0.959 . S
H1123 C1137 0.961 . S
H1124 C1138 0.960 . S
H1125 C1138 0.961 . S
H1126 C1138 0.959 . S
H1127 C1141 0.929 . S
H1128 C1142 0.931 . S
H1129 C1144 0.930 . S
C1130 H1118 0.930 . S
C1130 C1131 1.399 . S
C1130 C1135 1.399 . S
C1131 C1130 1.399 . S
C1131 C1132 1.376 . S
C1132 H1119 0.930 . S
C1132 C1131 1.376 . S
C1132 C1133 1.388 . S
C1133 H1120 0.930 . S
C1133 C1132 1.388 . S
C1133 C1134 1.390 . S
C1134 C1133 1.390 . S
C1134 C1135 1.394 . S
C1134 C1140 1.465 . S
C1135 C1130 1.399 . S
C1135 C1134 1.394 . S
C1135 C1136 1.516 . S
C1136 C1135 1.516 . S
C1136 C1137 1.502 . S
C1136 C1138 1.561 . S
C1136 C1139 1.526 . S
C1137 H1121 0.959 . S
C1137 H1122 0.959 . S
C1137 H1123 0.961 . S
C1137 C1136 1.502 . S
C1138 H1124 0.960 . S
C1138 H1125 0.961 . S
C1138 H1126 0.959 . S
C1138 C1136 1.561 . S
C1139 C1136 1.526 . S
C1139 C1140 1.396 . S
C1139 C1144 1.390 . S
C1140 C1134 1.465 . S
C1140 C1139 1.396 . S
C1140 C1141 1.399 . S
C1141 H1127 0.929 . S
C1141 C1140 1.399 . S
C1141 C1142 1.385 . S
C1142 H1128 0.931 . S
C1142 C1141 1.385 . S
C1142 C1143 1.389 . S
C1143 C1142 1.389 . S
C1143 C1144 1.387 . S
C1144 H1129 0.930 . S
C1144 C1139 1.390 . S
C1144 C1143 1.387 . S
H1145 C1157 0.930 . S
H1146 C1159 0.930 . S
H1147 C1160 0.930 . S
H1148 C1164 0.959 . S
H1149 C1164 0.959 . S
H1150 C1164 0.961 . S
H1151 C1165 0.960 . S
H1152 C1165 0.961 . S
H1153 C1165 0.959 . S
H1154 C1168 0.929 . S
H1155 C1169 0.931 . S
H1156 C1171 0.930 . S
C1157 H1145 0.930 . S
C1157 C1158 1.399 . S
C1157 C1162 1.399 . S
C1158 C1157 1.399 . S
C1158 C1159 1.376 . S
C1159 H1146 0.930 . S
C1159 C1158 1.376 . S
C1159 C1160 1.388 . S
C1160 H1147 0.930 . S
C1160 C1159 1.388 . S
C1160 C1161 1.390 . S
C1161 C1160 1.390 . S
C1161 C1162 1.394 . S
C1161 C1167 1.465 . S
C1162 C1157 1.399 . S
C1162 C1161 1.394 . S
C1162 C1163 1.516 . S
C1163 C1162 1.516 . S
C1163 C1164 1.502 . S
C1163 C1165 1.561 . S
C1163 C1166 1.526 . S
C1164 H1148 0.959 . S
C1164 H1149 0.959 . S
C1164 H1150 0.961 . S
C1164 C1163 1.502 . S
C1165 H1151 0.960 . S
C1165 H1152 0.961 . S
C1165 H1153 0.959 . S
C1165 C1163 1.561 . S
C1166 C1163 1.526 . S
C1166 C1167 1.396 . S
C1166 C1171 1.390 . S
C1167 C1161 1.465 . S
C1167 C1166 1.396 . S
C1167 C1168 1.399 . S
C1168 H1154 0.929 . S
C1168 C1167 1.399 . S
C1168 C1169 1.385 . S
C1169 H1155 0.931 . S
C1169 C1168 1.385 . S
C1169 C1170 1.389 . S
C1170 C1169 1.389 . S
C1170 C1171 1.387 . S
C1171 H1156 0.930 . S
C1171 C1166 1.390 . S
C1171 C1170 1.387 . S
H1172 C1184 0.930 . S
H1173 C1186 0.930 . S
H1174 C1187 0.930 . S
H1175 C1191 0.959 . S
H1176 C1191 0.959 . S
H1177 C1191 0.961 . S
H1178 C1192 0.960 . S
H1179 C1192 0.961 . S
H1180 C1192 0.959 . S
H1181 C1195 0.929 . S
H1182 C1196 0.931 . S
H1183 C1198 0.930 . S
C1184 H1172 0.930 . S
C1184 C1185 1.399 . S
C1184 C1189 1.399 . S
C1185 C1184 1.399 . S
C1185 C1186 1.376 . S
C1186 H1173 0.930 . S
C1186 C1185 1.376 . S
C1186 C1187 1.388 . S
C1187 H1174 0.930 . S
C1187 C1186 1.388 . S
C1187 C1188 1.390 . S
C1188 C1187 1.390 . S
C1188 C1189 1.394 . S
C1188 C1194 1.465 . S
C1189 C1184 1.399 . S
C1189 C1188 1.394 . S
C1189 C1190 1.516 . S
C1190 C1189 1.516 . S
C1190 C1191 1.502 . S
C1190 C1192 1.561 . S
C1190 C1193 1.526 . S
C1191 H1175 0.959 . S
C1191 H1176 0.959 . S
C1191 H1177 0.961 . S
C1191 C1190 1.502 . S
C1192 H1178 0.960 . S
C1192 H1179 0.961 . S
C1192 H1180 0.959 . S
C1192 C1190 1.561 . S
C1193 C1190 1.526 . S
C1193 C1194 1.396 . S
C1193 C1198 1.390 . S
C1194 C1188 1.465 . S
C1194 C1193 1.396 . S
C1194 C1195 1.399 . S
C1195 H1181 0.929 . S
C1195 C1194 1.399 . S
C1195 C1196 1.385 . S
C1196 H1182 0.931 . S
C1196 C1195 1.385 . S
C1196 C1197 1.389 . S
C1197 C1196 1.389 . S
C1197 C1198 1.387 . S
C1198 H1183 0.930 . S
C1198 C1193 1.390 . S
C1198 C1197 1.387 . S
H1199 C1211 0.930 . S
H1200 C1213 0.930 . S
H1201 C1214 0.930 . S
H1202 C1218 0.959 . S
H1203 C1218 0.959 . S
H1204 C1218 0.961 . S
H1205 C1219 0.960 . S
H1206 C1219 0.961 . S
H1207 C1219 0.959 . S
H1208 C1222 0.929 . S
H1209 C1223 0.931 . S
H1210 C1225 0.930 . S
C1211 H1199 0.930 . S
C1211 C1212 1.399 . S
C1211 C1216 1.399 . S
C1212 C1211 1.399 . S
C1212 C1213 1.376 . S
C1213 H1200 0.930 . S
C1213 C1212 1.376 . S
C1213 C1214 1.388 . S
C1214 H1201 0.930 . S
C1214 C1213 1.388 . S
C1214 C1215 1.390 . S
C1215 C1214 1.390 . S
C1215 C1216 1.394 . S
C1215 C1221 1.465 . S
C1216 C1211 1.399 . S
C1216 C1215 1.394 . S
C1216 C1217 1.516 . S
C1217 C1216 1.516 . S
C1217 C1218 1.502 . S
C1217 C1219 1.561 . S
C1217 C1220 1.526 . S
C1218 H1202 0.959 . S
C1218 H1203 0.959 . S
C1218 H1204 0.961 . S
C1218 C1217 1.502 . S
C1219 H1205 0.960 . S
C1219 H1206 0.961 . S
C1219 H1207 0.959 . S
C1219 C1217 1.561 . S
C1220 C1217 1.526 . S
C1220 C1221 1.396 . S
C1220 C1225 1.390 1_554 S
C1221 C1215 1.465 . S
C1221 C1220 1.396 . S
C1221 C1222 1.398 . S
C1222 H1208 0.929 . S
C1222 C1221 1.398 . S
C1222 C1223 1.386 1_554 S
C1223 H1209 0.931 . S
C1223 C1222 1.386 1_556 S
C1223 C1224 1.389 . S
C1224 C1223 1.389 . S
C1224 C1225 1.387 . S
C1225 H1210 0.930 . S
C1225 C1220 1.390 1_556 S
C1225 C1224 1.387 . S
H1226 C1238 0.930 . S
H1227 C1240 0.930 . S
H1228 C1241 0.930 . S
H1229 C1245 0.959 . S
H1230 C1245 0.959 . S
H1231 C1245 0.961 . S
H1232 C1246 0.960 . S
H1233 C1246 0.961 . S
H1234 C1246 0.959 . S
H1235 C1249 0.929 . S
H1236 C1250 0.931 . S
H1237 C1252 0.930 . S
C1238 H1226 0.930 . S
C1238 C1239 1.399 . S
C1238 C1243 1.399 . S
C1239 C1238 1.399 . S
C1239 C1240 1.376 . S
C1240 H1227 0.930 . S
C1240 C1239 1.376 . S
C1240 C1241 1.388 . S
C1241 H1228 0.930 . S
C1241 C1240 1.388 . S
C1241 C1242 1.390 . S
C1242 C1241 1.390 . S
C1242 C1243 1.394 . S
C1242 C1248 1.465 . S
C1243 C1238 1.399 . S
C1243 C1242 1.394 . S
C1243 C1244 1.516 . S
C1244 C1243 1.516 . S
C1244 C1245 1.502 . S
C1244 C1246 1.561 . S
C1244 C1247 1.526 . S
C1245 H1229 0.959 . S
C1245 H1230 0.959 . S
C1245 H1231 0.961 . S
C1245 C1244 1.502 . S
C1246 H1232 0.960 . S
C1246 H1233 0.961 . S
C1246 H1234 0.959 . S
C1246 C1244 1.561 . S
C1247 C1244 1.526 . S
C1247 C1248 1.396 . S
C1247 C1252 1.390 . S
C1248 C1242 1.465 . S
C1248 C1247 1.396 . S
C1248 C1249 1.399 . S
C1249 H1235 0.929 . S
C1249 C1248 1.399 . S
C1249 C1250 1.385 . S
C1250 H1236 0.931 . S
C1250 C1249 1.385 . S
C1250 C1251 1.389 . S
C1251 C1250 1.389 . S
C1251 C1252 1.387 . S
C1252 H1237 0.930 . S
C1252 C1247 1.390 . S
C1252 C1251 1.387 . S
H1253 C1265 0.930 . S
H1254 C1267 0.930 . S
H1255 C1268 0.930 . S
H1256 C1272 0.959 . S
H1257 C1272 0.959 . S
H1258 C1272 0.961 . S
H1259 C1273 0.960 . S
H1260 C1273 0.961 . S
H1261 C1273 0.959 . S
H1262 C1276 0.914 1_655 S
H1263 C1277 0.931 . S
H1264 C1279 0.930 . S
C1265 H1253 0.930 . S
C1265 C1266 1.399 . S
C1265 C1270 1.399 . S
C1266 C1265 1.399 . S
C1266 C1267 1.376 . S
C1267 H1254 0.930 . S
C1267 C1266 1.376 . S
C1267 C1268 1.388 . S
C1268 H1255 0.930 . S
C1268 C1267 1.388 . S
C1268 C1269 1.390 . S
C1269 C1268 1.390 . S
C1269 C1270 1.394 . S
C1269 C1275 1.468 . S
C1270 C1265 1.399 . S
C1270 C1269 1.394 . S
C1270 C1271 1.516 1_655 S
C1271 C1270 1.516 1_455 S
C1271 C1272 1.502 . S
C1271 C1273 1.561 1_455 S
C1271 C1274 1.526 . S
C1272 H1256 0.959 . S
C1272 H1257 0.959 . S
C1272 H1258 0.961 . S
C1272 C1271 1.502 . S
C1273 H1259 0.960 . S
C1273 H1260 0.961 . S
C1273 H1261 0.959 . S
C1273 C1271 1.561 1_655 S
C1274 C1271 1.526 . S
C1274 C1275 1.393 1_455 S
C1274 C1279 1.390 . S
C1275 C1269 1.468 . S
C1275 C1274 1.393 1_655 S
C1275 C1276 1.396 1_655 S
C1276 H1262 0.914 1_455 S
C1276 C1275 1.396 1_455 S
C1276 C1277 1.408 . S
C1277 H1263 0.931 . S
C1277 C1276 1.408 . S
C1277 C1278 1.389 . S
C1278 C1277 1.389 . S
C1278 C1279 1.387 . S
C1279 H1264 0.930 . S
C1279 C1274 1.390 . S
C1279 C1278 1.387 . S
H1280 C1292 0.930 . S
H1281 C1294 0.930 . S
H1282 C1295 0.930 . S
H1283 C1299 0.959 . S
H1284 C1299 0.959 . S
H1285 C1299 0.961 . S
H1286 C1300 0.960 . S
H1287 C1300 0.961 . S
H1288 C1300 0.959 . S
H1289 C1303 0.929 . S
H1290 C1304 0.931 . S
H1291 C1306 0.930 . S
C1292 H1280 0.930 . S
C1292 C1293 1.399 . S
C1292 C1297 1.399 . S
C1293 C1292 1.399 . S
C1293 C1294 1.376 . S
C1294 H1281 0.930 . S
C1294 C1293 1.376 . S
C1294 C1295 1.388 . S
C1295 H1282 0.930 . S
C1295 C1294 1.388 . S
C1295 C1296 1.390 . S
C1296 C1295 1.390 . S
C1296 C1297 1.394 . S
C1296 C1302 1.465 . S
C1297 C1292 1.399 . S
C1297 C1296 1.394 . S
C1297 C1298 1.516 . S
C1298 C1297 1.516 . S
C1298 C1299 1.502 . S
C1298 C1300 1.561 . S
C1298 C1301 1.526 . S
C1299 H1283 0.959 . S
C1299 H1284 0.959 . S
C1299 H1285 0.961 . S
C1299 C1298 1.502 . S
C1300 H1286 0.960 . S
C1300 H1287 0.961 . S
C1300 H1288 0.959 . S
C1300 C1298 1.561 . S
C1301 C1298 1.526 . S
C1301 C1302 1.396 . S
C1301 C1306 1.390 . S
C1302 C1296 1.465 . S
C1302 C1301 1.396 . S
C1302 C1303 1.399 . S
C1303 H1289 0.929 . S
C1303 C1302 1.399 . S
C1303 C1304 1.385 . S
C1304 H1290 0.931 . S
C1304 C1303 1.385 . S
C1304 C1305 1.389 . S
C1305 C1304 1.389 . S
C1305 C1306 1.387 . S
C1306 H1291 0.930 . S
C1306 C1301 1.390 . S
C1306 C1305 1.387 . S
H1307 C1319 0.930 . S
H1308 C1321 0.930 . S
H1309 C1322 0.930 . S
H1310 C1326 0.959 . S
H1311 C1326 0.959 . S
H1312 C1326 0.961 . S
H1313 C1327 0.960 . S
H1314 C1327 0.961 . S
H1315 C1327 0.959 . S
H1316 C1330 0.929 . S
H1317 C1331 0.931 . S
H1318 C1333 0.930 . S
C1319 H1307 0.930 . S
C1319 C1320 1.399 . S
C1319 C1324 1.399 . S
C1320 C1319 1.399 . S
C1320 C1321 1.376 . S
C1321 H1308 0.930 . S
C1321 C1320 1.376 . S
C1321 C1322 1.388 . S
C1322 H1309 0.930 . S
C1322 C1321 1.388 . S
C1322 C1323 1.390 . S
C1323 C1322 1.390 . S
C1323 C1324 1.394 . S
C1323 C1329 1.465 . S
C1324 C1319 1.399 . S
C1324 C1323 1.394 . S
C1324 C1325 1.516 . S
C1325 C1324 1.516 . S
C1325 C1326 1.502 . S
C1325 C1327 1.561 . S
C1325 C1328 1.526 . S
C1326 H1310 0.959 . S
C1326 H1311 0.959 . S
C1326 H1312 0.961 . S
C1326 C1325 1.502 . S
C1327 H1313 0.960 . S
C1327 H1314 0.961 . S
C1327 H1315 0.959 . S
C1327 C1325 1.561 . S
C1328 C1325 1.526 . S
C1328 C1329 1.396 . S
C1328 C1333 1.390 . S
C1329 C1323 1.465 . S
C1329 C1328 1.396 . S
C1329 C1330 1.399 . S
C1330 H1316 0.929 . S
C1330 C1329 1.399 . S
C1330 C1331 1.385 . S
C1331 H1317 0.931 . S
C1331 C1330 1.385 . S
C1331 C1332 1.389 . S
C1332 C1331 1.389 . S
C1332 C1333 1.387 . S
C1333 H1318 0.930 . S
C1333 C1328 1.390 . S
C1333 C1332 1.387 . S
H1334 C1346 0.930 . S
H1335 C1348 0.930 . S
H1336 C1349 0.930 . S
H1337 C1353 0.959 . S
H1338 C1353 0.959 . S
H1339 C1353 0.961 . S
H1340 C1354 0.960 . S
H1341 C1354 0.961 . S
H1342 C1354 0.959 . S
H1343 C1357 0.929 . S
H1344 C1358 0.931 . S
H1345 C1360 0.930 . S
C1346 H1334 0.930 . S
C1346 C1347 1.399 . S
C1346 C1351 1.399 . S
C1347 C1346 1.399 . S
C1347 C1348 1.376 . S
C1348 H1335 0.930 . S
C1348 C1347 1.376 . S
C1348 C1349 1.388 . S
C1349 H1336 0.930 . S
C1349 C1348 1.388 . S
C1349 C1350 1.390 . S
C1350 C1349 1.390 . S
C1350 C1351 1.394 . S
C1350 C1356 1.465 . S
C1351 C1346 1.399 . S
C1351 C1350 1.394 . S
C1351 C1352 1.516 . S
C1352 C1351 1.516 . S
C1352 C1353 1.502 . S
C1352 C1354 1.561 . S
C1352 C1355 1.526 . S
C1353 H1337 0.959 . S
C1353 H1338 0.959 . S
C1353 H1339 0.961 . S
C1353 C1352 1.502 . S
C1354 H1340 0.960 . S
C1354 H1341 0.961 . S
C1354 H1342 0.959 . S
C1354 C1352 1.561 . S
C1355 C1352 1.526 . S
C1355 C1356 1.396 . S
C1355 C1360 1.390 . S
C1356 C1350 1.465 . S
C1356 C1355 1.396 . S
C1356 C1357 1.399 . S
C1357 H1343 0.929 . S
C1357 C1356 1.399 . S
C1357 C1358 1.385 . S
C1358 H1344 0.931 . S
C1358 C1357 1.385 . S
C1358 C1359 1.389 . S
C1359 C1358 1.389 . S
C1359 C1360 1.387 . S
C1360 H1345 0.930 . S
C1360 C1355 1.390 . S
C1360 C1359 1.387 . S
H1361 C1373 0.930 . S
H1362 C1375 0.930 . S
H1363 C1376 0.930 . S
H1364 C1380 0.959 . S
H1365 C1380 0.959 . S
H1366 C1380 0.961 . S
H1367 C1381 0.960 . S
H1368 C1381 0.961 . S
H1369 C1381 0.959 . S
H1370 C1384 0.929 . S
H1371 C1385 0.931 . S
H1372 C1387 0.930 . S
C1373 H1361 0.930 . S
C1373 C1374 1.399 . S
C1373 C1378 1.399 . S
C1374 C1373 1.399 . S
C1374 C1375 1.376 . S
C1375 H1362 0.930 . S
C1375 C1374 1.376 . S
C1375 C1376 1.388 . S
C1376 H1363 0.930 . S
C1376 C1375 1.388 . S
C1376 C1377 1.390 . S
C1377 C1376 1.390 . S
C1377 C1378 1.394 . S
C1377 C1383 1.465 1_455 S
C1378 C1373 1.399 . S
C1378 C1377 1.394 . S
C1378 C1379 1.516 1_455 S
C1379 C1378 1.516 1_655 S
C1379 C1380 1.502 1_655 S
C1379 C1381 1.561 . S
C1379 C1382 1.526 . S
C1380 H1364 0.959 . S
C1380 H1365 0.959 . S
C1380 H1366 0.961 . S
C1380 C1379 1.502 1_455 S
C1381 H1367 0.960 . S
C1381 H1368 0.961 . S
C1381 H1369 0.959 . S
C1381 C1379 1.561 . S
C1382 C1379 1.526 . S
C1382 C1383 1.396 . S
C1382 C1387 1.390 1_554 S
C1383 C1377 1.465 1_655 S
C1383 C1382 1.396 . S
C1383 C1384 1.399 . S
C1384 H1370 0.929 . S
C1384 C1383 1.399 . S
C1384 C1385 1.385 1_554 S
C1385 H1371 0.931 . S
C1385 C1384 1.385 1_556 S
C1385 C1386 1.389 . S
C1386 C1385 1.389 . S
C1386 C1387 1.387 . S
C1387 H1372 0.930 . S
C1387 C1382 1.390 1_556 S
C1387 C1386 1.387 . S
H1388 C1400 0.930 . S
H1389 C1402 0.930 . S
H1390 C1403 0.930 . S
H1391 C1407 0.959 . S
H1392 C1407 0.959 . S
H1393 C1407 0.961 . S
H1394 C1408 0.960 . S
H1395 C1408 0.961 . S
H1396 C1408 0.959 . S
H1397 C1411 0.929 . S
H1398 C1412 0.931 . S
H1399 C1414 0.930 . S
C1400 H1388 0.930 . S
C1400 C1401 1.399 . S
C1400 C1405 1.399 . S
C1401 C1400 1.399 . S
C1401 C1402 1.376 . S
C1402 H1389 0.930 . S
C1402 C1401 1.376 . S
C1402 C1403 1.388 . S
C1403 H1390 0.930 . S
C1403 C1402 1.388 . S
C1403 C1404 1.390 . S
C1404 C1403 1.390 . S
C1404 C1405 1.394 . S
C1404 C1410 1.465 . S
C1405 C1400 1.399 . S
C1405 C1404 1.394 . S
C1405 C1406 1.516 . S
C1406 C1405 1.516 . S
C1406 C1407 1.502 . S
C1406 C1408 1.561 . S
C1406 C1409 1.526 . S
C1407 H1391 0.959 . S
C1407 H1392 0.959 . S
C1407 H1393 0.961 . S
C1407 C1406 1.502 . S
C1408 H1394 0.960 . S
C1408 H1395 0.961 . S
C1408 H1396 0.959 . S
C1408 C1406 1.561 . S
C1409 C1406 1.526 . S
C1409 C1410 1.396 . S
C1409 C1414 1.390 . S
C1410 C1404 1.465 . S
C1410 C1409 1.396 . S
C1410 C1411 1.399 . S
C1411 H1397 0.929 . S
C1411 C1410 1.399 . S
C1411 C1412 1.385 . S
C1412 H1398 0.931 . S
C1412 C1411 1.385 . S
C1412 C1413 1.389 . S
C1413 C1412 1.389 . S
C1413 C1414 1.387 . S
C1414 H1399 0.930 . S
C1414 C1409 1.390 . S
C1414 C1413 1.387 . S
H1415 C1427 0.930 . S
H1416 C1429 0.930 . S
H1417 C1430 0.930 . S
H1418 C1434 0.959 . S
H1419 C1434 0.959 . S
H1420 C1434 0.961 . S
H1421 C1435 0.960 . S
H1422 C1435 0.961 . S
H1423 C1435 0.959 . S
H1424 C1438 0.929 . S
H1425 C1439 0.931 . S
H1426 C1441 0.930 . S
C1427 H1415 0.930 . S
C1427 C1428 1.399 . S
C1427 C1432 1.399 . S
C1428 C1427 1.399 . S
C1428 C1429 1.376 . S
C1429 H1416 0.930 . S
C1429 C1428 1.376 . S
C1429 C1430 1.388 . S
C1430 H1417 0.930 . S
C1430 C1429 1.388 . S
C1430 C1431 1.390 . S
C1431 C1430 1.390 . S
C1431 C1432 1.394 . S
C1431 C1437 1.465 . S
C1432 C1427 1.399 . S
C1432 C1431 1.394 . S
C1432 C1433 1.516 1_655 S
C1433 C1432 1.516 1_455 S
C1433 C1434 1.502 . S
C1433 C1435 1.561 1_455 S
C1433 C1436 1.526 . S
C1434 H1418 0.959 . S
C1434 H1419 0.959 . S
C1434 H1420 0.961 . S
C1434 C1433 1.502 . S
C1435 H1421 0.960 . S
C1435 H1422 0.961 . S
C1435 H1423 0.959 . S
C1435 C1433 1.561 1_655 S
C1436 C1433 1.526 . S
C1436 C1437 1.396 1_455 S
C1436 C1441 1.390 . S
C1437 C1431 1.465 . S
C1437 C1436 1.396 1_655 S
C1437 C1438 1.399 . S
C1438 H1424 0.929 . S
C1438 C1437 1.399 . S
C1438 C1439 1.385 1_655 S
C1439 H1425 0.931 . S
C1439 C1438 1.385 1_455 S
C1439 C1440 1.389 . S
C1440 C1439 1.389 . S
C1440 C1441 1.387 . S
C1441 H1426 0.930 . S
C1441 C1436 1.390 . S
C1441 C1440 1.387 . S
H1442 C1454 0.930 . S
H1443 C1456 0.930 . S
H1444 C1457 0.930 . S
H1445 C1461 0.959 . S
H1446 C1461 0.959 . S
H1447 C1461 0.961 . S
H1448 C1462 0.960 . S
H1449 C1462 0.961 . S
H1450 C1462 0.959 . S
H1451 C1465 0.929 . S
H1452 C1466 0.931 . S
H1453 C1468 0.930 . S
C1454 H1442 0.930 . S
C1454 C1455 1.399 . S
C1454 C1459 1.399 . S
C1455 C1454 1.399 . S
C1455 C1456 1.376 . S
C1456 H1443 0.930 . S
C1456 C1455 1.376 . S
C1456 C1457 1.388 . S
C1457 H1444 0.930 . S
C1457 C1456 1.388 . S
C1457 C1458 1.390 . S
C1458 C1457 1.390 . S
C1458 C1459 1.394 . S
C1458 C1464 1.465 . S
C1459 C1454 1.399 . S
C1459 C1458 1.394 . S
C1459 C1460 1.516 . S
C1460 C1459 1.516 . S
C1460 C1461 1.502 . S
C1460 C1462 1.561 . S
C1460 C1463 1.526 . S
C1461 H1445 0.959 . S
C1461 H1446 0.959 . S
C1461 H1447 0.961 . S
C1461 C1460 1.502 . S
C1462 H1448 0.960 . S
C1462 H1449 0.961 . S
C1462 H1450 0.959 . S
C1462 C1460 1.561 . S
C1463 C1460 1.526 . S
C1463 C1464 1.396 . S
C1463 C1468 1.390 . S
C1464 C1458 1.465 . S
C1464 C1463 1.396 . S
C1464 C1465 1.399 . S
C1465 H1451 0.929 . S
C1465 C1464 1.399 . S
C1465 C1466 1.385 . S
C1466 H1452 0.931 . S
C1466 C1465 1.385 . S
C1466 C1467 1.389 . S
C1467 C1466 1.389 . S
C1467 C1468 1.387 . S
C1468 H1453 0.930 . S
C1468 C1463 1.390 . S
C1468 C1467 1.387 . S
H1469 C1481 0.930 . S
H1470 C1483 0.930 . S
H1471 C1484 0.930 1_556 S
H1472 C1488 0.959 . S
H1473 C1488 0.959 . S
H1474 C1488 0.961 . S
H1475 C1489 0.960 . S
H1476 C1489 0.961 . S
H1477 C1489 0.959 . S
H1478 C1492 0.929 . S
H1479 C1493 0.931 . S
H1480 C1495 0.930 . S
C1481 H1469 0.930 . S
C1481 C1482 1.399 . S
C1481 C1486 1.399 1_554 S
C1482 C1481 1.399 . S
C1482 C1483 1.376 . S
C1483 H1470 0.930 . S
C1483 C1482 1.376 . S
C1483 C1484 1.388 . S
C1484 H1471 0.930 1_554 S
C1484 C1483 1.388 . S
C1484 C1485 1.390 1_554 S
C1485 C1484 1.390 1_556 S
C1485 C1486 1.394 . S
C1485 C1491 1.465 . S
C1486 C1481 1.399 1_556 S
C1486 C1485 1.394 . S
C1486 C1487 1.516 . S
C1487 C1486 1.516 . S
C1487 C1488 1.502 . S
C1487 C1489 1.561 . S
C1487 C1490 1.526 . S
C1488 H1472 0.959 . S
C1488 H1473 0.959 . S
C1488 H1474 0.961 . S
C1488 C1487 1.502 . S
C1489 H1475 0.960 . S
C1489 H1476 0.961 . S
C1489 H1477 0.959 . S
C1489 C1487 1.561 . S
C1490 C1487 1.526 . S
C1490 C1491 1.396 . S
C1490 C1495 1.390 . S
C1491 C1485 1.465 . S
C1491 C1490 1.396 . S
C1491 C1492 1.399 . S
C1492 H1478 0.929 . S
C1492 C1491 1.399 . S
C1492 C1493 1.385 . S
C1493 H1479 0.931 . S
C1493 C1492 1.385 . S
C1493 C1494 1.389 . S
C1494 C1493 1.389 . S
C1494 C1495 1.387 . S
C1495 H1480 0.930 . S
C1495 C1490 1.390 . S
C1495 C1494 1.387 . S
H1496 C1508 0.930 . S
H1497 C1510 0.930 . S
H1498 C1511 0.930 . S
H1499 C1515 0.959 . S
H1500 C1515 0.959 . S
H1501 C1515 0.961 . S
H1502 C1516 0.960 . S
H1503 C1516 0.961 . S
H1504 C1516 0.959 . S
H1505 C1519 0.929 . S
H1506 C1520 0.931 . S
H1507 C1522 0.930 . S
C1508 H1496 0.930 . S
C1508 C1509 1.399 . S
C1508 C1513 1.399 . S
C1509 C1508 1.399 . S
C1509 C1510 1.376 . S
C1510 H1497 0.930 . S
C1510 C1509 1.376 . S
C1510 C1511 1.388 . S
C1511 H1498 0.930 . S
C1511 C1510 1.388 . S
C1511 C1512 1.390 . S
C1512 C1511 1.390 . S
C1512 C1513 1.394 . S
C1512 C1518 1.465 . S
C1513 C1508 1.399 . S
C1513 C1512 1.394 . S
C1513 C1514 1.516 . S
C1514 C1513 1.516 . S
C1514 C1515 1.502 . S
C1514 C1516 1.561 . S
C1514 C1517 1.526 . S
C1515 H1499 0.959 . S
C1515 H1500 0.959 . S
C1515 H1501 0.961 . S
C1515 C1514 1.502 . S
C1516 H1502 0.960 . S
C1516 H1503 0.961 . S
C1516 H1504 0.959 . S
C1516 C1514 1.561 . S
C1517 C1514 1.526 . S
C1517 C1518 1.396 . S
C1517 C1522 1.390 . S
C1518 C1512 1.465 . S
C1518 C1517 1.396 . S
C1518 C1519 1.399 . S
C1519 H1505 0.929 . S
C1519 C1518 1.399 . S
C1519 C1520 1.385 . S
C1520 H1506 0.931 . S
C1520 C1519 1.385 . S
C1520 C1521 1.389 . S
C1521 C1520 1.389 . S
C1521 C1522 1.387 . S
C1522 H1507 0.930 . S
C1522 C1517 1.390 . S
C1522 C1521 1.387 . S
H1523 C1535 0.930 . S
H1524 C1537 0.930 . S
H1525 C1538 0.930 . S
H1526 C1542 0.959 . S
H1527 C1542 0.959 . S
H1528 C1542 0.961 . S
H1529 C1543 0.960 . S
H1530 C1543 0.961 . S
H1531 C1543 0.959 . S
H1532 C1546 0.929 . S
H1533 C1547 0.931 . S
H1534 C1549 0.930 . S
C1535 H1523 0.930 . S
C1535 C1536 1.399 . S
C1535 C1540 1.399 . S
C1536 C1535 1.399 . S
C1536 C1537 1.376 . S
C1537 H1524 0.930 . S
C1537 C1536 1.376 . S
C1537 C1538 1.388 . S
C1538 H1525 0.930 . S
C1538 C1537 1.388 . S
C1538 C1539 1.390 . S
C1539 C1538 1.390 . S
C1539 C1540 1.394 . S
C1539 C1545 1.465 . S
C1540 C1535 1.399 . S
C1540 C1539 1.394 . S
C1540 C1541 1.516 . S
C1541 C1540 1.516 . S
C1541 C1542 1.502 . S
C1541 C1543 1.561 . S
C1541 C1544 1.526 . S
C1542 H1526 0.959 . S
C1542 H1527 0.959 . S
C1542 H1528 0.961 . S
C1542 C1541 1.502 . S
C1543 H1529 0.960 . S
C1543 H1530 0.961 . S
C1543 H1531 0.959 . S
C1543 C1541 1.561 . S
C1544 C1541 1.526 . S
C1544 C1545 1.396 . S
C1544 C1549 1.390 . S
C1545 C1539 1.465 . S
C1545 C1544 1.396 . S
C1545 C1546 1.399 . S
C1546 H1532 0.929 . S
C1546 C1545 1.399 . S
C1546 C1547 1.385 . S
C1547 H1533 0.931 . S
C1547 C1546 1.385 . S
C1547 C1548 1.389 . S
C1548 C1547 1.389 . S
C1548 C1549 1.387 . S
C1549 H1534 0.930 . S
C1549 C1544 1.390 . S
C1549 C1548 1.387 . S
H1550 C1562 0.930 . S
H1551 C1564 0.930 . S
H1552 C1565 0.930 . S
H1553 C1569 0.959 . S
H1554 C1569 0.959 . S
H1555 C1569 0.961 . S
H1556 C1570 0.960 . S
H1557 C1570 0.961 . S
H1558 C1570 0.959 . S
H1559 C1573 0.929 . S
H1560 C1574 0.931 . S
H1561 C1576 0.930 . S
C1562 H1550 0.930 . S
C1562 C1563 1.399 . S
C1562 C1567 1.399 . S
C1563 C1562 1.399 . S
C1563 C1564 1.376 . S
C1564 H1551 0.930 . S
C1564 C1563 1.376 . S
C1564 C1565 1.388 . S
C1565 H1552 0.930 . S
C1565 C1564 1.388 . S
C1565 C1566 1.390 . S
C1566 C1565 1.390 . S
C1566 C1567 1.394 . S
C1566 C1572 1.465 . S
C1567 C1562 1.399 . S
C1567 C1566 1.394 . S
C1567 C1568 1.516 . S
C1568 C1567 1.516 . S
C1568 C1569 1.502 . S
C1568 C1570 1.561 . S
C1568 C1571 1.526 . S
C1569 H1553 0.959 . S
C1569 H1554 0.959 . S
C1569 H1555 0.961 . S
C1569 C1568 1.502 . S
C1570 H1556 0.960 . S
C1570 H1557 0.961 . S
C1570 H1558 0.959 . S
C1570 C1568 1.561 . S
C1571 C1568 1.526 . S
C1571 C1572 1.396 . S
C1571 C1576 1.390 . S
C1572 C1566 1.465 . S
C1572 C1571 1.396 . S
C1572 C1573 1.399 . S
C1573 H1559 0.929 . S
C1573 C1572 1.399 . S
C1573 C1574 1.385 . S
C1574 H1560 0.931 . S
C1574 C1573 1.385 . S
C1574 C1575 1.389 . S
C1575 C1574 1.389 . S
C1575 C1576 1.387 . S
C1576 H1561 0.930 . S
C1576 C1571 1.390 . S
C1576 C1575 1.387 . S
H1577 C1589 0.930 . S
H1578 C1591 0.930 . S
H1579 C1592 0.930 . S
H1580 C1596 0.959 . S
H1581 C1596 0.959 . S
H1582 C1596 0.961 . S
H1583 C1597 0.960 . S
H1584 C1597 0.961 . S
H1585 C1597 0.959 1_455 S
H1586 C1600 0.929 . S
H1587 C1601 0.931 . S
H1588 C1603 0.930 1_655 S
C1589 H1577 0.930 . S
C1589 C1590 1.399 . S
C1589 C1594 1.399 . S
C1590 C1589 1.399 . S
C1590 C1591 1.376 1_655 S
C1591 H1578 0.930 . S
C1591 C1590 1.376 1_455 S
C1591 C1592 1.388 . S
C1592 H1579 0.930 . S
C1592 C1591 1.388 . S
C1592 C1593 1.390 . S
C1593 C1592 1.390 . S
C1593 C1594 1.394 1_455 S
C1593 C1599 1.465 . S
C1594 C1589 1.399 . S
C1594 C1593 1.394 1_655 S
C1594 C1595 1.516 . S
C1595 C1594 1.516 . S
C1595 C1596 1.502 . S
C1595 C1597 1.561 . S
C1595 C1598 1.513 1_655 S
C1596 H1580 0.959 . S
C1596 H1581 0.959 . S
C1596 H1582 0.961 . S
C1596 C1595 1.502 . S
C1597 H1583 0.960 . S
C1597 H1584 0.961 . S
C1597 H1585 0.959 1_655 S
C1597 C1595 1.561 . S
C1598 C1595 1.513 1_455 S
C1598 C1599 1.407 . S
C1598 C1603 1.393 1_556 S
C1599 C1593 1.465 . S
C1599 C1598 1.407 . S
C1599 C1600 1.399 . S
C1600 H1586 0.929 . S
C1600 C1599 1.399 . S
C1600 C1601 1.385 1_556 S
C1601 H1587 0.931 . S
C1601 C1600 1.385 1_554 S
C1601 C1602 1.389 . S
C1602 C1601 1.389 . S
C1602 C1603 1.387 . S
C1603 H1588 0.930 1_455 S
C1603 C1598 1.393 1_554 S
C1603 C1602 1.387 . S
H1604 C1616 0.930 . S
H1605 C1618 0.930 . S
H1606 C1619 0.930 . S
H1607 C1623 0.959 . S
H1608 C1623 0.959 . S
H1609 C1623 0.961 . S
H1610 C1624 0.960 . S
H1611 C1624 0.961 . S
H1612 C1624 0.959 . S
H1613 C1627 0.929 . S
H1614 C1628 0.931 . S
H1615 C1630 0.930 . S
C1616 H1604 0.930 . S
C1616 C1617 1.399 . S
C1616 C1621 1.399 . S
C1617 C1616 1.399 . S
C1617 C1618 1.376 . S
C1618 H1605 0.930 . S
C1618 C1617 1.376 . S
C1618 C1619 1.388 . S
C1619 H1606 0.930 . S
C1619 C1618 1.388 . S
C1619 C1620 1.390 . S
C1620 C1619 1.390 . S
C1620 C1621 1.394 . S
C1620 C1626 1.465 . S
C1621 C1616 1.399 . S
C1621 C1620 1.394 . S
C1621 C1622 1.516 . S
C1622 C1621 1.516 . S
C1622 C1623 1.502 . S
C1622 C1624 1.561 . S
C1622 C1625 1.526 . S
C1623 H1607 0.959 . S
C1623 H1608 0.959 . S
C1623 H1609 0.961 . S
C1623 C1622 1.502 . S
C1624 H1610 0.960 . S
C1624 H1611 0.961 . S
C1624 H1612 0.959 . S
C1624 C1622 1.561 . S
C1625 C1622 1.526 . S
C1625 C1626 1.396 . S
C1625 C1630 1.390 . S
C1626 C1620 1.465 . S
C1626 C1625 1.396 . S
C1626 C1627 1.399 . S
C1627 H1613 0.929 . S
C1627 C1626 1.399 . S
C1627 C1628 1.385 . S
C1628 H1614 0.931 . S
C1628 C1627 1.385 . S
C1628 C1629 1.389 . S
C1629 C1628 1.389 . S
C1629 C1630 1.387 . S
C1630 H1615 0.930 . S
C1630 C1625 1.390 . S
C1630 C1629 1.387 . S
H1631 C1643 0.930 . S
H1632 C1645 0.930 . S
H1633 C1646 0.930 . S
H1634 C1650 0.959 . S
H1635 C1650 0.959 . S
H1636 C1650 0.961 . S
H1637 C1651 0.960 . S
H1638 C1651 0.961 . S
H1639 C1651 0.959 . S
H1640 C1654 0.929 . S
H1641 C1655 0.931 . S
H1642 C1657 0.930 . S
C1643 H1631 0.930 . S
C1643 C1644 1.399 . S
C1643 C1648 1.399 . S
C1644 C1643 1.399 . S
C1644 C1645 1.376 . S
C1645 H1632 0.930 . S
C1645 C1644 1.376 . S
C1645 C1646 1.388 1_655 S
C1646 H1633 0.930 . S
C1646 C1645 1.388 1_455 S
C1646 C1647 1.390 . S
C1647 C1646 1.390 . S
C1647 C1648 1.394 1_455 S
C1647 C1653 1.465 . S
C1648 C1643 1.399 . S
C1648 C1647 1.394 1_655 S
C1648 C1649 1.516 . S
C1649 C1648 1.516 . S
C1649 C1650 1.502 . S
C1649 C1651 1.561 1_655 S
C1649 C1652 1.526 1_655 S
C1650 H1634 0.959 . S
C1650 H1635 0.959 . S
C1650 H1636 0.961 . S
C1650 C1649 1.502 . S
C1651 H1637 0.960 . S
C1651 H1638 0.961 . S
C1651 H1639 0.959 . S
C1651 C1649 1.561 1_455 S
C1652 C1649 1.526 1_455 S
C1652 C1653 1.396 . S
C1652 C1657 1.390 . S
C1653 C1647 1.465 . S
C1653 C1652 1.396 . S
C1653 C1654 1.399 . S
C1654 H1640 0.929 . S
C1654 C1653 1.399 . S
C1654 C1655 1.385 . S
C1655 H1641 0.931 . S
C1655 C1654 1.385 . S
C1655 C1656 1.389 . S
C1656 C1655 1.389 . S
C1656 C1657 1.387 . S
C1657 H1642 0.930 . S
C1657 C1652 1.390 . S
C1657 C1656 1.387 . S
H1658 C1670 0.930 . S
H1659 C1672 0.930 . S
H1660 C1673 0.930 . S
H1661 C1677 0.959 . S
H1662 C1677 0.959 . S
H1663 C1677 0.961 . S
H1664 C1678 0.960 . S
H1665 C1678 0.961 . S
H1666 C1678 0.959 . S
H1667 C1681 0.929 . S
H1668 C1682 0.931 . S
H1669 C1684 0.930 . S
C1670 H1658 0.930 . S
C1670 C1671 1.399 . S
C1670 C1675 1.399 . S
C1671 C1670 1.399 . S
C1671 C1672 1.376 . S
C1672 H1659 0.930 . S
C1672 C1671 1.376 . S
C1672 C1673 1.388 . S
C1673 H1660 0.930 . S
C1673 C1672 1.388 . S
C1673 C1674 1.390 . S
C1674 C1673 1.390 . S
C1674 C1675 1.394 . S
C1674 C1680 1.465 . S
C1675 C1670 1.399 . S
C1675 C1674 1.394 . S
C1675 C1676 1.516 . S
C1676 C1675 1.516 . S
C1676 C1677 1.502 . S
C1676 C1678 1.561 . S
C1676 C1679 1.526 . S
C1677 H1661 0.959 . S
C1677 H1662 0.959 . S
C1677 H1663 0.961 . S
C1677 C1676 1.502 . S
C1678 H1664 0.960 . S
C1678 H1665 0.961 . S
C1678 H1666 0.959 . S
C1678 C1676 1.561 . S
C1679 C1676 1.526 . S
C1679 C1680 1.396 . S
C1679 C1684 1.390 . S
C1680 C1674 1.465 . S
C1680 C1679 1.396 . S
C1680 C1681 1.399 . S
C1681 H1667 0.929 . S
C1681 C1680 1.399 . S
C1681 C1682 1.385 . S
C1682 H1668 0.931 . S
C1682 C1681 1.385 . S
C1682 C1683 1.389 . S
C1683 C1682 1.389 . S
C1683 C1684 1.387 . S
C1684 H1669 0.930 . S
C1684 C1679 1.390 . S
C1684 C1683 1.387 . S
H1685 C1697 0.930 . S
H1686 C1699 0.930 . S
H1687 C1700 0.930 . S
H1688 C1704 0.959 . S
H1689 C1704 0.959 . S
H1690 C1704 0.961 . S
H1691 C1705 0.960 . S
H1692 C1705 0.961 . S
H1693 C1705 0.959 . S
H1694 C1708 0.929 . S
H1695 C1709 0.931 . S
H1696 C1711 0.930 . S
C1697 H1685 0.930 . S
C1697 C1698 1.399 . S
C1697 C1702 1.399 . S
C1698 C1697 1.399 . S
C1698 C1699 1.376 . S
C1699 H1686 0.930 . S
C1699 C1698 1.376 . S
C1699 C1700 1.388 . S
C1700 H1687 0.930 . S
C1700 C1699 1.388 . S
C1700 C1701 1.390 . S
C1701 C1700 1.390 . S
C1701 C1702 1.394 . S
C1701 C1707 1.465 . S
C1702 C1697 1.399 . S
C1702 C1701 1.394 . S
C1702 C1703 1.516 . S
C1703 C1702 1.516 . S
C1703 C1704 1.502 . S
C1703 C1705 1.561 . S
C1703 C1706 1.526 . S
C1704 H1688 0.959 . S
C1704 H1689 0.959 . S
C1704 H1690 0.961 . S
C1704 C1703 1.502 . S
C1705 H1691 0.960 . S
C1705 H1692 0.961 . S
C1705 H1693 0.959 . S
C1705 C1703 1.561 . S
C1706 C1703 1.526 . S
C1706 C1707 1.396 . S
C1706 C1711 1.390 1_554 S
C1707 C1701 1.465 . S
C1707 C1706 1.396 . S
C1707 C1708 1.399 . S
C1708 H1694 0.929 . S
C1708 C1707 1.399 . S
C1708 C1709 1.385 1_554 S
C1709 H1695 0.931 . S
C1709 C1708 1.385 1_556 S
C1709 C1710 1.389 . S
C1710 C1709 1.389 . S
C1710 C1711 1.387 . S
C1711 H1696 0.930 . S
C1711 C1706 1.390 1_556 S
C1711 C1710 1.387 . S
H1712 C1724 0.930 . S
H1713 C1726 0.930 . S
H1714 C1727 0.930 . S
H1715 C1731 0.959 . S
H1716 C1731 0.959 . S
H1717 C1731 0.961 . S
H1718 C1732 0.960 . S
H1719 C1732 0.961 . S
H1720 C1732 0.959 . S
H1721 C1735 0.929 . S
H1722 C1736 0.931 . S
H1723 C1738 0.930 . S
C1724 H1712 0.930 . S
C1724 C1725 1.399 . S
C1724 C1729 1.399 . S
C1725 C1724 1.399 . S
C1725 C1726 1.376 . S
C1726 H1713 0.930 . S
C1726 C1725 1.376 . S
C1726 C1727 1.388 . S
C1727 H1714 0.930 . S
C1727 C1726 1.388 . S
C1727 C1728 1.390 . S
C1728 C1727 1.390 . S
C1728 C1729 1.394 . S
C1728 C1734 1.465 . S
C1729 C1724 1.399 . S
C1729 C1728 1.394 . S
C1729 C1730 1.516 . S
C1730 C1729 1.516 . S
C1730 C1731 1.502 . S
C1730 C1732 1.561 . S
C1730 C1733 1.526 . S
C1731 H1715 0.959 . S
C1731 H1716 0.959 . S
C1731 H1717 0.961 . S
C1731 C1730 1.502 . S
C1732 H1718 0.960 . S
C1732 H1719 0.961 . S
C1732 H1720 0.959 . S
C1732 C1730 1.561 . S
C1733 C1730 1.526 . S
C1733 C1734 1.396 . S
C1733 C1738 1.390 . S
C1734 C1728 1.465 . S
C1734 C1733 1.396 . S
C1734 C1735 1.399 . S
C1735 H1721 0.929 . S
C1735 C1734 1.399 . S
C1735 C1736 1.385 . S
C1736 H1722 0.931 . S
C1736 C1735 1.385 . S
C1736 C1737 1.389 . S
C1737 C1736 1.389 . S
C1737 C1738 1.387 . S
C1738 H1723 0.930 . S
C1738 C1733 1.390 . S
C1738 C1737 1.387 . S
H1739 C1751 0.930 . S
H1740 C1753 0.930 . S
H1741 C1754 0.930 . S
H1742 C1758 0.959 . S
H1743 C1758 0.959 . S
H1744 C1758 0.961 . S
H1745 C1759 0.960 . S
H1746 C1759 0.961 . S
H1747 C1759 0.959 . S
H1748 C1762 0.929 . S
H1749 C1763 0.931 . S
H1750 C1765 0.930 . S
C1751 H1739 0.930 . S
C1751 C1752 1.399 . S
C1751 C1756 1.399 . S
C1752 C1751 1.399 . S
C1752 C1753 1.376 . S
C1753 H1740 0.930 . S
C1753 C1752 1.376 . S
C1753 C1754 1.388 . S
C1754 H1741 0.930 . S
C1754 C1753 1.388 . S
C1754 C1755 1.390 . S
C1755 C1754 1.390 . S
C1755 C1756 1.394 . S
C1755 C1761 1.465 . S
C1756 C1751 1.399 . S
C1756 C1755 1.394 . S
C1756 C1757 1.516 . S
C1757 C1756 1.516 . S
C1757 C1758 1.502 . S
C1757 C1759 1.561 . S
C1757 C1760 1.526 . S
C1758 H1742 0.959 . S
C1758 H1743 0.959 . S
C1758 H1744 0.961 . S
C1758 C1757 1.502 . S
C1759 H1745 0.960 . S
C1759 H1746 0.961 . S
C1759 H1747 0.959 . S
C1759 C1757 1.561 . S
C1760 C1757 1.526 . S
C1760 C1761 1.396 . S
C1760 C1765 1.390 . S
C1761 C1755 1.465 . S
C1761 C1760 1.396 . S
C1761 C1762 1.399 . S
C1762 H1748 0.929 . S
C1762 C1761 1.399 . S
C1762 C1763 1.385 . S
C1763 H1749 0.931 . S
C1763 C1762 1.385 . S
C1763 C1764 1.389 . S
C1764 C1763 1.389 . S
C1764 C1765 1.387 . S
C1765 H1750 0.930 . S
C1765 C1760 1.390 . S
C1765 C1764 1.387 . S
H1766 C1778 0.930 . S
H1767 C1780 0.930 . S
H1768 C1781 0.930 . S
H1769 C1785 0.959 . S
H1770 C1785 0.959 . S
H1771 C1785 0.961 . S
H1772 C1786 0.960 . S
H1773 C1786 0.961 . S
H1774 C1786 0.959 . S
H1775 C1789 0.929 . S
H1776 C1790 0.931 . S
H1777 C1792 0.930 . S
C1778 H1766 0.930 . S
C1778 C1779 1.399 . S
C1778 C1783 1.399 . S
C1779 C1778 1.399 . S
C1779 C1780 1.376 . S
C1780 H1767 0.930 . S
C1780 C1779 1.376 . S
C1780 C1781 1.388 . S
C1781 H1768 0.930 . S
C1781 C1780 1.388 . S
C1781 C1782 1.390 . S
C1782 C1781 1.390 . S
C1782 C1783 1.394 . S
C1782 C1788 1.465 . S
C1783 C1778 1.399 . S
C1783 C1782 1.394 . S
C1783 C1784 1.516 . S
C1784 C1783 1.516 . S
C1784 C1785 1.502 . S
C1784 C1786 1.561 . S
C1784 C1787 1.526 . S
C1785 H1769 0.959 . S
C1785 H1770 0.959 . S
C1785 H1771 0.961 . S
C1785 C1784 1.502 . S
C1786 H1772 0.960 . S
C1786 H1773 0.961 . S
C1786 H1774 0.959 . S
C1786 C1784 1.561 . S
C1787 C1784 1.526 . S
C1787 C1788 1.396 . S
C1787 C1792 1.390 . S
C1788 C1782 1.465 . S
C1788 C1787 1.396 . S
C1788 C1789 1.399 . S
C1789 H1775 0.929 . S
C1789 C1788 1.399 . S
C1789 C1790 1.385 . S
C1790 H1776 0.931 . S
C1790 C1789 1.385 . S
C1790 C1791 1.389 . S
C1791 C1790 1.389 . S
C1791 C1792 1.387 . S
C1792 H1777 0.930 . S
C1792 C1787 1.390 . S
C1792 C1791 1.387 . S
H1793 C1805 0.930 . S
H1794 C1807 0.930 . S
H1795 C1808 0.930 . S
H1796 C1812 0.959 . S
H1797 C1812 0.959 . S
H1798 C1812 0.961 . S
H1799 C1813 0.960 . S
H1800 C1813 0.961 . S
H1801 C1813 0.959 . S
H1802 C1816 0.929 . S
H1803 C1817 0.931 . S
H1804 C1819 0.930 . S
C1805 H1793 0.930 . S
C1805 C1806 1.399 . S
C1805 C1810 1.399 . S
C1806 C1805 1.399 . S
C1806 C1807 1.376 . S
C1807 H1794 0.930 . S
C1807 C1806 1.376 . S
C1807 C1808 1.388 . S
C1808 H1795 0.930 . S
C1808 C1807 1.388 . S
C1808 C1809 1.390 . S
C1809 C1808 1.390 . S
C1809 C1810 1.394 . S
C1809 C1815 1.465 . S
C1810 C1805 1.399 . S
C1810 C1809 1.394 . S
C1810 C1811 1.516 . S
C1811 C1810 1.516 . S
C1811 C1812 1.502 . S
C1811 C1813 1.561 . S
C1811 C1814 1.526 . S
C1812 H1796 0.959 . S
C1812 H1797 0.959 . S
C1812 H1798 0.961 . S
C1812 C1811 1.502 . S
C1813 H1799 0.960 . S
C1813 H1800 0.961 . S
C1813 H1801 0.959 . S
C1813 C1811 1.561 . S
C1814 C1811 1.526 . S
C1814 C1815 1.396 . S
C1814 C1819 1.390 . S
C1815 C1809 1.465 . S
C1815 C1814 1.396 . S
C1815 C1816 1.399 . S
C1816 H1802 0.929 . S
C1816 C1815 1.399 . S
C1816 C1817 1.385 . S
C1817 H1803 0.931 . S
C1817 C1816 1.385 . S
C1817 C1818 1.389 . S
C1818 C1817 1.389 . S
C1818 C1819 1.387 . S
C1819 H1804 0.930 . S
C1819 C1814 1.390 . S
C1819 C1818 1.387 . S
H1820 C1832 0.930 . S
H1821 C1834 0.930 . S
H1822 C1835 0.930 . S
H1823 C1839 0.959 . S
H1824 C1839 0.959 . S
H1825 C1839 0.961 . S
H1826 C1840 0.960 . S
H1827 C1840 0.961 . S
H1828 C1840 0.959 . S
H1829 C1843 0.929 . S
H1830 C1844 0.931 . S
H1831 C1846 0.930 . S
C1832 H1820 0.930 . S
C1832 C1833 1.399 . S
C1832 C1837 1.399 . S
C1833 C1832 1.399 . S
C1833 C1834 1.376 . S
C1834 H1821 0.930 . S
C1834 C1833 1.376 . S
C1834 C1835 1.388 . S
C1835 H1822 0.930 . S
C1835 C1834 1.388 . S
C1835 C1836 1.390 . S
C1836 C1835 1.390 . S
C1836 C1837 1.394 . S
C1836 C1842 1.465 . S
C1837 C1832 1.399 . S
C1837 C1836 1.394 . S
C1837 C1838 1.516 . S
C1838 C1837 1.516 . S
C1838 C1839 1.502 . S
C1838 C1840 1.561 . S
C1838 C1841 1.526 . S
C1839 H1823 0.959 . S
C1839 H1824 0.959 . S
C1839 H1825 0.961 . S
C1839 C1838 1.502 . S
C1840 H1826 0.960 . S
C1840 H1827 0.961 . S
C1840 H1828 0.959 . S
C1840 C1838 1.561 . S
C1841 C1838 1.526 . S
C1841 C1842 1.396 . S
C1841 C1846 1.390 . S
C1842 C1836 1.465 . S
C1842 C1841 1.396 . S
C1842 C1843 1.399 . S
C1843 H1829 0.929 . S
C1843 C1842 1.399 . S
C1843 C1844 1.385 . S
C1844 H1830 0.931 . S
C1844 C1843 1.385 . S
C1844 C1845 1.389 . S
C1845 C1844 1.389 . S
C1845 C1846 1.387 . S
C1846 H1831 0.930 . S
C1846 C1841 1.390 . S
C1846 C1845 1.387 . S
H1847 C1859 0.930 . S
H1848 C1861 0.930 . S
H1849 C1862 0.930 . S
H1850 C1866 0.959 . S
H1851 C1866 0.959 . S
H1852 C1866 0.961 . S
H1853 C1867 0.960 . S
H1854 C1867 0.961 . S
H1855 C1867 0.959 . S
H1856 C1870 0.929 . S
H1857 C1871 0.931 . S
H1858 C1873 0.930 . S
C1859 H1847 0.930 . S
C1859 C1860 1.399 . S
C1859 C1864 1.399 . S
C1860 C1859 1.399 . S
C1860 C1861 1.376 . S
C1861 H1848 0.930 . S
C1861 C1860 1.376 . S
C1861 C1862 1.388 . S
C1862 H1849 0.930 . S
C1862 C1861 1.388 . S
C1862 C1863 1.390 . S
C1863 C1862 1.390 . S
C1863 C1864 1.394 . S
C1863 C1869 1.465 . S
C1864 C1859 1.399 . S
C1864 C1863 1.394 . S
C1864 C1865 1.516 . S
C1865 C1864 1.516 . S
C1865 C1866 1.502 . S
C1865 C1867 1.561 . S
C1865 C1868 1.526 . S
C1866 H1850 0.959 . S
C1866 H1851 0.959 . S
C1866 H1852 0.961 . S
C1866 C1865 1.502 . S
C1867 H1853 0.960 . S
C1867 H1854 0.961 . S
C1867 H1855 0.959 . S
C1867 C1865 1.561 . S
C1868 C1865 1.526 . S
C1868 C1869 1.396 . S
C1868 C1873 1.390 . S
C1869 C1863 1.465 . S
C1869 C1868 1.396 . S
C1869 C1870 1.399 . S
C1870 H1856 0.929 . S
C1870 C1869 1.399 . S
C1870 C1871 1.385 . S
C1871 H1857 0.931 . S
C1871 C1870 1.385 . S
C1871 C1872 1.389 . S
C1872 C1871 1.389 . S
C1872 C1873 1.387 . S
C1873 H1858 0.930 . S
C1873 C1868 1.390 . S
C1873 C1872 1.387 . S
H1874 C1886 0.930 . S
H1875 C1888 0.930 . S
H1876 C1889 0.930 . S
H1877 C1893 0.959 . S
H1878 C1893 0.959 . S
H1879 C1893 0.961 . S
H1880 C1894 0.960 . S
H1881 C1894 0.961 . S
H1882 C1894 0.959 . S
H1883 C1897 0.929 . S
H1884 C1898 0.931 . S
H1885 C1900 0.930 . S
C1886 H1874 0.930 . S
C1886 C1887 1.399 . S
C1886 C1891 1.399 . S
C1887 C1886 1.399 . S
C1887 C1888 1.376 . S
C1888 H1875 0.930 . S
C1888 C1887 1.376 . S
C1888 C1889 1.388 . S
C1889 H1876 0.930 . S
C1889 C1888 1.388 . S
C1889 C1890 1.390 . S
C1890 C1889 1.390 . S
C1890 C1891 1.394 . S
C1890 C1896 1.465 . S
C1891 C1886 1.399 . S
C1891 C1890 1.394 . S
C1891 C1892 1.516 . S
C1892 C1891 1.516 . S
C1892 C1893 1.502 . S
C1892 C1894 1.561 . S
C1892 C1895 1.526 . S
C1893 H1877 0.959 . S
C1893 H1878 0.959 . S
C1893 H1879 0.961 . S
C1893 C1892 1.502 . S
C1894 H1880 0.960 . S
C1894 H1881 0.961 . S
C1894 H1882 0.959 . S
C1894 C1892 1.561 . S
C1895 C1892 1.526 . S
C1895 C1896 1.396 . S
C1895 C1900 1.390 . S
C1896 C1890 1.465 . S
C1896 C1895 1.396 . S
C1896 C1897 1.399 . S
C1897 H1883 0.929 . S
C1897 C1896 1.399 . S
C1897 C1898 1.385 . S
C1898 H1884 0.931 . S
C1898 C1897 1.385 . S
C1898 C1899 1.389 . S
C1899 C1898 1.389 . S
C1899 C1900 1.387 . S
C1900 H1885 0.930 . S
C1900 C1895 1.390 . S
C1900 C1899 1.387 . S
H1901 C1913 0.930 . S
H1902 C1915 0.930 . S
H1903 C1916 0.930 . S
H1904 C1920 0.959 . S
H1905 C1920 0.959 . S
H1906 C1920 0.961 . S
H1907 C1921 0.960 . S
H1908 C1921 0.961 . S
H1909 C1921 0.959 . S
H1910 C1924 0.929 . S
H1911 C1925 0.931 . S
H1912 C1927 0.930 . S
C1913 H1901 0.930 . S
C1913 C1914 1.399 . S
C1913 C1918 1.399 . S
C1914 C1913 1.399 . S
C1914 C1915 1.376 . S
C1915 H1902 0.930 . S
C1915 C1914 1.376 . S
C1915 C1916 1.388 . S
C1916 H1903 0.930 . S
C1916 C1915 1.388 . S
C1916 C1917 1.390 . S
C1917 C1916 1.390 . S
C1917 C1918 1.394 . S
C1917 C1923 1.465 . S
C1918 C1913 1.399 . S
C1918 C1917 1.394 . S
C1918 C1919 1.516 . S
C1919 C1918 1.516 . S
C1919 C1920 1.502 . S
C1919 C1921 1.561 . S
C1919 C1922 1.526 . S
C1920 H1904 0.959 . S
C1920 H1905 0.959 . S
C1920 H1906 0.961 . S
C1920 C1919 1.502 . S
C1921 H1907 0.960 . S
C1921 H1908 0.961 . S
C1921 H1909 0.959 . S
C1921 C1919 1.561 . S
C1922 C1919 1.526 . S
C1922 C1923 1.396 . S
C1922 C1927 1.390 . S
C1923 C1917 1.465 . S
C1923 C1922 1.396 . S
C1923 C1924 1.399 . S
C1924 H1910 0.929 . S
C1924 C1923 1.399 . S
C1924 C1925 1.385 . S
C1925 H1911 0.931 . S
C1925 C1924 1.385 . S
C1925 C1926 1.389 . S
C1926 C1925 1.389 . S
C1926 C1927 1.387 . S
C1927 H1912 0.930 . S
C1927 C1922 1.390 . S
C1927 C1926 1.387 . S
H1928 C1940 0.930 . S
H1929 C1942 0.930 . S
H1930 C1943 0.930 . S
H1931 C1947 0.959 . S
H1932 C1947 0.959 . S
H1933 C1947 0.961 . S
H1934 C1948 0.960 . S
H1935 C1948 0.961 . S
H1936 C1948 0.959 . S
H1937 C1951 0.929 . S
H1938 C1952 0.931 . S
H1939 C1954 0.930 . S
C1940 H1928 0.930 . S
C1940 C1941 1.399 . S
C1940 C1945 1.399 . S
C1941 C1940 1.399 . S
C1941 C1942 1.376 . S
C1942 H1929 0.930 . S
C1942 C1941 1.376 . S
C1942 C1943 1.388 . S
C1943 H1930 0.930 . S
C1943 C1942 1.388 . S
C1943 C1944 1.390 . S
C1944 C1943 1.390 . S
C1944 C1945 1.394 . S
C1944 C1950 1.465 . S
C1945 C1940 1.399 . S
C1945 C1944 1.394 . S
C1945 C1946 1.516 . S
C1946 C1945 1.516 . S
C1946 C1947 1.502 . S
C1946 C1948 1.561 . S
C1946 C1949 1.526 . S
C1947 H1931 0.959 . S
C1947 H1932 0.959 . S
C1947 H1933 0.961 . S
C1947 C1946 1.502 . S
C1948 H1934 0.960 . S
C1948 H1935 0.961 . S
C1948 H1936 0.959 . S
C1948 C1946 1.561 . S
C1949 C1946 1.526 . S
C1949 C1950 1.396 . S
C1949 C1954 1.390 . S
C1950 C1944 1.465 . S
C1950 C1949 1.396 . S
C1950 C1951 1.399 . S
C1951 H1937 0.929 . S
C1951 C1950 1.399 . S
C1951 C1952 1.385 . S
C1952 H1938 0.931 . S
C1952 C1951 1.385 . S
C1952 C1953 1.389 . S
C1953 C1952 1.389 . S
C1953 C1954 1.387 . S
C1954 H1939 0.930 . S
C1954 C1949 1.390 . S
C1954 C1953 1.387 . S
H1955 C1967 0.930 . S
H1956 C1969 0.930 . S
H1957 C1970 0.930 . S
H1958 C1974 0.959 . S
H1959 C1974 0.959 . S
H1960 C1974 0.961 . S
H1961 C1975 0.960 . S
H1962 C1975 0.961 . S
H1963 C1975 0.959 . S
H1964 C1978 0.929 . S
H1965 C1979 0.931 . S
H1966 C1981 0.930 . S
C1967 H1955 0.930 . S
C1967 C1968 1.399 . S
C1967 C1972 1.399 . S
C1968 C1967 1.399 . S
C1968 C1969 1.376 . S
C1969 H1956 0.930 . S
C1969 C1968 1.376 . S
C1969 C1970 1.388 . S
C1970 H1957 0.930 . S
C1970 C1969 1.388 . S
C1970 C1971 1.390 . S
C1971 C1970 1.390 . S
C1971 C1972 1.394 . S
C1971 C1977 1.465 . S
C1972 C1967 1.399 . S
C1972 C1971 1.394 . S
C1972 C1973 1.516 . S
C1973 C1972 1.516 . S
C1973 C1974 1.502 . S
C1973 C1975 1.561 . S
C1973 C1976 1.526 . S
C1974 H1958 0.959 . S
C1974 H1959 0.959 . S
C1974 H1960 0.961 . S
C1974 C1973 1.502 . S
C1975 H1961 0.960 . S
C1975 H1962 0.961 . S
C1975 H1963 0.959 . S
C1975 C1973 1.561 . S
C1976 C1973 1.526 . S
C1976 C1977 1.396 . S
C1976 C1981 1.390 . S
C1977 C1971 1.465 . S
C1977 C1976 1.396 . S
C1977 C1978 1.399 . S
C1978 H1964 0.929 . S
C1978 C1977 1.399 . S
C1978 C1979 1.385 . S
C1979 H1965 0.931 . S
C1979 C1978 1.385 . S
C1979 C1980 1.389 . S
C1980 C1979 1.389 . S
C1980 C1981 1.387 . S
C1981 H1966 0.930 . S
C1981 C1976 1.390 . S
C1981 C1980 1.387 . S
H1982 C1994 0.930 . S
H1983 C1996 0.930 . S
H1984 C1997 0.930 . S
H1985 C2001 0.959 . S
H1986 C2001 0.959 . S
H1987 C2001 0.961 . S
H1988 C2002 0.960 . S
H1989 C2002 0.961 . S
H1990 C2002 0.959 . S
H1991 C2005 0.929 . S
H1992 C2006 0.931 . S
H1993 C2008 0.930 . S
C1994 H1982 0.930 . S
C1994 C1995 1.399 . S
C1994 C1999 1.399 . S
C1995 C1994 1.399 . S
C1995 C1996 1.376 . S
C1996 H1983 0.930 . S
C1996 C1995 1.376 . S
C1996 C1997 1.388 . S
C1997 H1984 0.930 . S
C1997 C1996 1.388 . S
C1997 C1998 1.390 . S
C1998 C1997 1.390 . S
C1998 C1999 1.394 . S
C1998 C2004 1.465 . S
C1999 C1994 1.399 . S
C1999 C1998 1.394 . S
C1999 C2000 1.516 . S
C2000 C1999 1.516 . S
C2000 C2001 1.502 . S
C2000 C2002 1.561 . S
C2000 C2003 1.526 . S
C2001 H1985 0.959 . S
C2001 H1986 0.959 . S
C2001 H1987 0.961 . S
C2001 C2000 1.502 . S
C2002 H1988 0.960 . S
C2002 H1989 0.961 . S
C2002 H1990 0.959 . S
C2002 C2000 1.561 . S
C2003 C2000 1.526 . S
C2003 C2004 1.396 . S
C2003 C2008 1.390 . S
C2004 C1998 1.465 . S
C2004 C2003 1.396 . S
C2004 C2005 1.399 . S
C2005 H1991 0.929 . S
C2005 C2004 1.399 . S
C2005 C2006 1.385 . S
C2006 H1992 0.931 . S
C2006 C2005 1.385 . S
C2006 C2007 1.389 . S
C2007 C2006 1.389 . S
C2007 C2008 1.387 . S
C2008 H1993 0.930 . S
C2008 C2003 1.390 . S
C2008 C2007 1.387 . S
H2009 C2021 0.930 . S
H2010 C2023 0.930 . S
H2011 C2024 0.930 . S
H2012 C2028 0.959 . S
H2013 C2028 0.959 . S
H2014 C2028 0.961 . S
H2015 C2029 0.960 . S
H2016 C2029 0.961 . S
H2017 C2029 0.959 . S
H2018 C2032 0.929 . S
H2019 C2033 0.931 . S
H2020 C2035 0.930 . S
C2021 H2009 0.930 . S
C2021 C2022 1.399 . S
C2021 C2026 1.399 . S
C2022 C2021 1.399 . S
C2022 C2023 1.376 . S
C2023 H2010 0.930 . S
C2023 C2022 1.376 . S
C2023 C2024 1.388 . S
C2024 H2011 0.930 . S
C2024 C2023 1.388 . S
C2024 C2025 1.390 . S
C2025 C2024 1.390 . S
C2025 C2026 1.394 . S
C2025 C2031 1.465 . S
C2026 C2021 1.399 . S
C2026 C2025 1.394 . S
C2026 C2027 1.516 . S
C2027 C2026 1.516 . S
C2027 C2028 1.502 . S
C2027 C2029 1.561 . S
C2027 C2030 1.526 . S
C2028 H2012 0.959 . S
C2028 H2013 0.959 . S
C2028 H2014 0.961 . S
C2028 C2027 1.502 . S
C2029 H2015 0.960 . S
C2029 H2016 0.961 . S
C2029 H2017 0.959 . S
C2029 C2027 1.561 . S
C2030 C2027 1.526 . S
C2030 C2031 1.396 . S
C2030 C2035 1.390 . S
C2031 C2025 1.465 . S
C2031 C2030 1.396 . S
C2031 C2032 1.399 . S
C2032 H2018 0.929 . S
C2032 C2031 1.399 . S
C2032 C2033 1.385 . S
C2033 H2019 0.931 . S
C2033 C2032 1.385 . S
C2033 C2034 1.389 . S
C2034 C2033 1.389 . S
C2034 C2035 1.387 . S
C2035 H2020 0.930 . S
C2035 C2030 1.390 . S
C2035 C2034 1.387 . S
H2036 C2048 0.930 . S
H2037 C2050 0.930 . S
H2038 C2051 0.930 . S
H2039 C2055 0.959 . S
H2040 C2055 0.959 . S
H2041 C2055 0.961 . S
H2042 C2056 0.960 . S
H2043 C2056 0.961 . S
H2044 C2056 0.959 . S
H2045 C2059 0.929 . S
H2046 C2060 0.931 . S
H2047 C2062 0.930 . S
C2048 H2036 0.930 . S
C2048 C2049 1.399 . S
C2048 C2053 1.399 . S
C2049 C2048 1.399 . S
C2049 C2050 1.376 . S
C2050 H2037 0.930 . S
C2050 C2049 1.376 . S
C2050 C2051 1.388 . S
C2051 H2038 0.930 . S
C2051 C2050 1.388 . S
C2051 C2052 1.390 . S
C2052 C2051 1.390 . S
C2052 C2053 1.394 . S
C2052 C2058 1.465 . S
C2053 C2048 1.399 . S
C2053 C2052 1.394 . S
C2053 C2054 1.516 . S
C2054 C2053 1.516 . S
C2054 C2055 1.502 . S
C2054 C2056 1.561 . S
C2054 C2057 1.526 . S
C2055 H2039 0.959 . S
C2055 H2040 0.959 . S
C2055 H2041 0.961 . S
C2055 C2054 1.502 . S
C2056 H2042 0.960 . S
C2056 H2043 0.961 . S
C2056 H2044 0.959 . S
C2056 C2054 1.561 . S
C2057 C2054 1.526 . S
C2057 C2058 1.396 . S
C2057 C2062 1.390 . S
C2058 C2052 1.465 . S
C2058 C2057 1.396 . S
C2058 C2059 1.399 . S
C2059 H2045 0.929 . S
C2059 C2058 1.399 . S
C2059 C2060 1.385 . S
C2060 H2046 0.931 . S
C2060 C2059 1.385 . S
C2060 C2061 1.389 . S
C2061 C2060 1.389 . S
C2061 C2062 1.387 . S
C2062 H2047 0.930 . S
C2062 C2057 1.390 . S
C2062 C2061 1.387 . S
H2063 C2075 0.930 . S
H2064 C2077 0.930 . S
H2065 C2078 0.930 . S
H2066 C2082 0.959 . S
H2067 C2082 0.959 . S
H2068 C2082 0.961 . S
H2069 C2083 0.960 . S
H2070 C2083 0.961 . S
H2071 C2083 0.959 . S
H2072 C2086 0.929 . S
H2073 C2087 0.931 . S
H2074 C2089 0.930 . S
C2075 H2063 0.930 . S
C2075 C2076 1.399 . S
C2075 C2080 1.399 . S
C2076 C2075 1.399 . S
C2076 C2077 1.376 . S
C2077 H2064 0.930 . S
C2077 C2076 1.376 . S
C2077 C2078 1.388 . S
C2078 H2065 0.930 . S
C2078 C2077 1.388 . S
C2078 C2079 1.390 . S
C2079 C2078 1.390 . S
C2079 C2080 1.394 . S
C2079 C2085 1.465 . S
C2080 C2075 1.399 . S
C2080 C2079 1.394 . S
C2080 C2081 1.516 . S
C2081 C2080 1.516 . S
C2081 C2082 1.502 . S
C2081 C2083 1.561 . S
C2081 C2084 1.526 . S
C2082 H2066 0.959 . S
C2082 H2067 0.959 . S
C2082 H2068 0.961 . S
C2082 C2081 1.502 . S
C2083 H2069 0.960 . S
C2083 H2070 0.961 . S
C2083 H2071 0.959 . S
C2083 C2081 1.561 . S
C2084 C2081 1.526 . S
C2084 C2085 1.396 . S
C2084 C2089 1.390 . S
C2085 C2079 1.465 . S
C2085 C2084 1.396 . S
C2085 C2086 1.399 . S
C2086 H2072 0.929 . S
C2086 C2085 1.399 . S
C2086 C2087 1.385 . S
C2087 H2073 0.931 . S
C2087 C2086 1.385 . S
C2087 C2088 1.389 . S
C2088 C2087 1.389 . S
C2088 C2089 1.387 . S
C2089 H2074 0.930 . S
C2089 C2084 1.390 . S
C2089 C2088 1.387 . S
H2090 C2102 0.930 . S
H2091 C2104 0.930 . S
H2092 C2105 0.930 . S
H2093 C2109 0.959 . S
H2094 C2109 0.959 . S
H2095 C2109 0.961 . S
H2096 C2110 0.960 . S
H2097 C2110 0.961 . S
H2098 C2110 0.959 . S
H2099 C2113 0.929 . S
H2100 C2114 0.931 . S
H2101 C2116 0.930 . S
C2102 H2090 0.930 . S
C2102 C2103 1.399 . S
C2102 C2107 1.399 . S
C2103 C2102 1.399 . S
C2103 C2104 1.376 . S
C2104 H2091 0.930 . S
C2104 C2103 1.376 . S
C2104 C2105 1.388 . S
C2105 H2092 0.930 . S
C2105 C2104 1.388 . S
C2105 C2106 1.390 . S
C2106 C2105 1.390 . S
C2106 C2107 1.394 . S
C2106 C2112 1.465 . S
C2107 C2102 1.399 . S
C2107 C2106 1.394 . S
C2107 C2108 1.516 . S
C2108 C2107 1.516 . S
C2108 C2109 1.502 . S
C2108 C2110 1.561 . S
C2108 C2111 1.526 . S
C2109 H2093 0.959 . S
C2109 H2094 0.959 . S
C2109 H2095 0.961 . S
C2109 C2108 1.502 . S
C2110 H2096 0.960 . S
C2110 H2097 0.961 . S
C2110 H2098 0.959 . S
C2110 C2108 1.561 . S
C2111 C2108 1.526 . S
C2111 C2112 1.396 . S
C2111 C2116 1.390 . S
C2112 C2106 1.465 . S
C2112 C2111 1.396 . S
C2112 C2113 1.399 . S
C2113 H2099 0.929 . S
C2113 C2112 1.399 . S
C2113 C2114 1.385 . S
C2114 H2100 0.931 . S
C2114 C2113 1.385 . S
C2114 C2115 1.389 . S
C2115 C2114 1.389 . S
C2115 C2116 1.387 . S
C2116 H2101 0.930 . S
C2116 C2111 1.390 . S
C2116 C2115 1.387 . S
H2117 C2129 0.930 . S
H2118 C2131 0.930 . S
H2119 C2132 0.930 . S
H2120 C2136 0.959 . S
H2121 C2136 0.959 . S
H2122 C2136 0.961 . S
H2123 C2137 0.960 . S
H2124 C2137 0.961 . S
H2125 C2137 0.959 . S
H2126 C2140 0.929 . S
H2127 C2141 0.931 . S
H2128 C2143 0.930 . S
C2129 H2117 0.930 . S
C2129 C2130 1.399 . S
C2129 C2134 1.399 . S
C2130 C2129 1.399 . S
C2130 C2131 1.376 . S
C2131 H2118 0.930 . S
C2131 C2130 1.376 . S
C2131 C2132 1.388 . S
C2132 H2119 0.930 . S
C2132 C2131 1.388 . S
C2132 C2133 1.390 . S
C2133 C2132 1.390 . S
C2133 C2134 1.394 . S
C2133 C2139 1.465 . S
C2134 C2129 1.399 . S
C2134 C2133 1.394 . S
C2134 C2135 1.516 . S
C2135 C2134 1.516 . S
C2135 C2136 1.502 . S
C2135 C2137 1.561 . S
C2135 C2138 1.526 . S
C2136 H2120 0.959 . S
C2136 H2121 0.959 . S
C2136 H2122 0.961 . S
C2136 C2135 1.502 . S
C2137 H2123 0.960 . S
C2137 H2124 0.961 . S
C2137 H2125 0.959 . S
C2137 C2135 1.561 . S
C2138 C2135 1.526 . S
C2138 C2139 1.396 . S
C2138 C2143 1.390 . S
C2139 C2133 1.465 . S
C2139 C2138 1.396 . S
C2139 C2140 1.399 . S
C2140 H2126 0.929 . S
C2140 C2139 1.399 . S
C2140 C2141 1.385 . S
C2141 H2127 0.931 . S
C2141 C2140 1.385 . S
C2141 C2142 1.389 . S
C2142 C2141 1.389 . S
C2142 C2143 1.387 . S
C2143 H2128 0.930 . S
C2143 C2138 1.390 . S
C2143 C2142 1.387 . S
C429 C81 1.492 . S
C441 C5 1.492 . S
C456 C16 1.492 . S
C468 C96 1.501 . S
C483 C57 1.501 . S
C495 C29 1.503 . S
C510 C42 1.503 . S
C522 C70 1.496 . S
C537 C187 1.490 . S
C549 C107 1.494 . S
C564 C198 1.496 . S
C576 C122 1.502 . S
C591 C135 1.504 . S
C603 C161 1.501 . S
C618 C148 1.499 . S
C630 C172 1.503 . S
C645 C213 1.495 . S
C657 C291 1.491 . S
C672 C226 1.503 . S
C684 C304 1.496 . S
C699 C263 1.500 . S
C711 C239 1.504 . S
C726 C278 1.490 . S
C738 C252 1.497 . S
C753 C317 1.490 . S
C765 C395 1.493 . S
C780 C408 1.499 . S
C792 C330 1.503 . S
C807 C367 1.503 . S
C819 C343 1.501 . S
C834 C356 1.499 . S
C846 C380 1.503 . S
C861 C3 1.336 . S
C873 C400 1.342 . S
C888 C199 1.361 . S
C900 C18 1.355 . S
C915 C31 1.330 . S
C927 C368 1.357 . S
C942 C44 1.327 . S
C954 C173 1.354 . S
C969 C348 1.352 . S
C981 C55 1.327 . S
C996 C153 1.342 . S
C1008 C68 1.337 . S
C1023 C83 1.346 . S
C1035 C322 1.341 . S
C1050 C127 1.358 . S
C1062 C94 1.362 . S
C1077 C109 1.328 . S
C1089 C296 1.354 . S
C1104 C101 1.357 . S
C1116 C120 1.327 . S
C1131 C133 1.329 . S
C1143 C264 1.361 . S
C1158 C146 1.349 . S
C1170 C75 1.360 . S
C1185 C244 1.341 . S
C1197 C159 1.350 . S
C1212 C174 1.351 . S
C1224 C43 1.359 . S
C1239 C185 1.364 . S
C1251 C218 1.344 . S
C1266 C17 1.348 . S
C1278 C200 1.364 . S
C1293 C211 1.339 . S
C1305 C192 1.342 . S
C1320 C224 1.348 . S
C1332 C413 1.341 . S
C1347 C166 1.349 . S
C1359 C237 1.364 . S
C1374 C250 1.364 . S
C1386 C381 1.354 . S
C1401 C140 1.346 . S
C1413 C265 1.361 . S
C1428 C361 1.342 . S
C1440 C276 1.336 . S
C1455 C108 1.349 . S
C1467 C289 1.363 . S
C1482 C335 1.362 . S
C1494 C302 1.354 . S
C1509 C315 1.364 . S
C1521 C82 1.345 . S
C1536 C309 1.357 . S
C1548 C328 1.328 . S
C1563 C62 1.360 . S
C1575 C341 1.347 . S
C1590 C354 1.347 . S
C1602 C283 1.342 . S
C1617 C369 1.364 . S
C1629 C30 1.345 . S
C1644 C382 1.341 . S
C1656 C257 1.345 . S
C1671 C10 1.341 . S
C1683 C393 1.361 . S
C1698 C406 1.340 . S
C1710 C231 1.345 . S
C1725 C4 1.442 . S
C1737 C277 1.453 . S
C1752 C290 1.449 . S
C1764 C23 1.438 . S
C1779 C36 1.442 . S
C1791 C303 1.453 . S
C1806 C270 1.450 . S
C1818 C49 1.438 . S
C1833 C251 1.442 . S
C1845 C56 1.443 . S
C1860 C212 1.446 . S
C1872 C69 1.440 . S
C1887 C225 1.440 . S
C1899 C88 1.454 . S
C1914 C238 1.448 . S
C1926 C95 1.439 . S
C1941 C114 1.453 . S
C1953 C387 1.438 . S
C1968 C394 1.451 . S
C1980 C121 1.440 . S
C1995 C407 1.439 . S
C2007 C134 1.451 . S
C2022 C374 1.453 . S
C2034 C147 1.438 . S
C2049 C355 1.452 . S
C2061 C160 1.439 . S
C2076 C316 1.448 . S
C2088 C179 1.442 . S
C2103 C186 1.438 . S
C2115 C329 1.452 . S
C2130 C205 1.453 . S
C2142 C342 1.437 . S
