# Generated by pormake.
# Topology lcs, (4)-cn, num edge types: 1
# Building blocks:
#     Node 0, Type 0, BuildingBlock: CEKHIL_clean_sbu_0, # of connection points: 4
#     Node 1, Type 0, BuildingBlock: CEKHIL_clean_sbu_0, # of connection points: 4
#     Node 2, Type 0, BuildingBlock: CEKHIL_clean_sbu_0, # of connection points: 4
#     Node 3, Type 0, BuildingBlock: CEKHIL_clean_sbu_0, # of connection points: 4
#     Node 4, Type 0, BuildingBlock: CEKHIL_clean_sbu_0, # of connection points: 4
#     Node 5, Type 0, BuildingBlock: CEKHIL_clean_sbu_0, # of connection points: 4
#     Node 6, Type 0, BuildingBlock: CEKHIL_clean_sbu_0, # of connection points: 4
#     Node 7, Type 0, BuildingBlock: CEKHIL_clean_sbu_0, # of connection points: 4
#     Node 8, Type 0, BuildingBlock: CEKHIL_clean_sbu_0, # of connection points: 4
#     Node 9, Type 0, BuildingBlock: CEKHIL_clean_sbu_0, # of connection points: 4
#     Node 10, Type 0, BuildingBlock: CEKHIL_clean_sbu_0, # of connection points: 4
#     Node 11, Type 0, BuildingBlock: CEKHIL_clean_sbu_0, # of connection points: 4
#     Node 12, Type 0, BuildingBlock: CEKHIL_clean_sbu_0, # of connection points: 4
#     Node 13, Type 0, BuildingBlock: CEKHIL_clean_sbu_0, # of connection points: 4
#     Node 14, Type 0, BuildingBlock: CEKHIL_clean_sbu_0, # of connection points: 4
#     Node 15, Type 0, BuildingBlock: CEKHIL_clean_sbu_0, # of connection points: 4
#     Node 16, Type 0, BuildingBlock: CEKHIL_clean_sbu_0, # of connection points: 4
#     Node 17, Type 0, BuildingBlock: CEKHIL_clean_sbu_0, # of connection points: 4
#     Node 18, Type 0, BuildingBlock: CEKHIL_clean_sbu_0, # of connection points: 4
#     Node 19, Type 0, BuildingBlock: CEKHIL_clean_sbu_0, # of connection points: 4
#     Node 20, Type 0, BuildingBlock: CEKHIL_clean_sbu_0, # of connection points: 4
#     Node 21, Type 0, BuildingBlock: CEKHIL_clean_sbu_0, # of connection points: 4
#     Node 22, Type 0, BuildingBlock: CEKHIL_clean_sbu_0, # of connection points: 4
#     Node 23, Type 0, BuildingBlock: CEKHIL_clean_sbu_0, # of connection points: 4
#     Edge 24, Type (0, 0), BuildingBlock: KIFKEQ_clean_linker_1, # of connection points: 2
#     Edge 25, Type (0, 0), BuildingBlock: KIFKEQ_clean_linker_1, # of connection points: 2
#     Edge 26, Type (0, 0), BuildingBlock: KIFKEQ_clean_linker_1, # of connection points: 2
#     Edge 27, Type (0, 0), BuildingBlock: KIFKEQ_clean_linker_1, # of connection points: 2
#     Edge 28, Type (0, 0), BuildingBlock: KIFKEQ_clean_linker_1, # of connection points: 2
#     Edge 29, Type (0, 0), BuildingBlock: KIFKEQ_clean_linker_1, # of connection points: 2
#     Edge 30, Type (0, 0), BuildingBlock: KIFKEQ_clean_linker_1, # of connection points: 2
#     Edge 31, Type (0, 0), BuildingBlock: KIFKEQ_clean_linker_1, # of connection points: 2
#     Edge 32, Type (0, 0), BuildingBlock: KIFKEQ_clean_linker_1, # of connection points: 2
#     Edge 33, Type (0, 0), BuildingBlock: KIFKEQ_clean_linker_1, # of connection points: 2
#     Edge 34, Type (0, 0), BuildingBlock: KIFKEQ_clean_linker_1, # of connection points: 2
#     Edge 35, Type (0, 0), BuildingBlock: KIFKEQ_clean_linker_1, # of connection points: 2
#     Edge 36, Type (0, 0), BuildingBlock: KIFKEQ_clean_linker_1, # of connection points: 2
#     Edge 37, Type (0, 0), BuildingBlock: KIFKEQ_clean_linker_1, # of connection points: 2
#     Edge 38, Type (0, 0), BuildingBlock: KIFKEQ_clean_linker_1, # of connection points: 2
#     Edge 39, Type (0, 0), BuildingBlock: KIFKEQ_clean_linker_1, # of connection points: 2
#     Edge 40, Type (0, 0), BuildingBlock: KIFKEQ_clean_linker_1, # of connection points: 2
#     Edge 41, Type (0, 0), BuildingBlock: KIFKEQ_clean_linker_1, # of connection points: 2
#     Edge 42, Type (0, 0), BuildingBlock: KIFKEQ_clean_linker_1, # of connection points: 2
#     Edge 43, Type (0, 0), BuildingBlock: KIFKEQ_clean_linker_1, # of connection points: 2
#     Edge 44, Type (0, 0), BuildingBlock: KIFKEQ_clean_linker_1, # of connection points: 2
#     Edge 45, Type (0, 0), BuildingBlock: KIFKEQ_clean_linker_1, # of connection points: 2
#     Edge 46, Type (0, 0), BuildingBlock: KIFKEQ_clean_linker_1, # of connection points: 2
#     Edge 47, Type (0, 0), BuildingBlock: KIFKEQ_clean_linker_1, # of connection points: 2
#     Edge 48, Type (0, 0), BuildingBlock: KIFKEQ_clean_linker_1, # of connection points: 2
#     Edge 49, Type (0, 0), BuildingBlock: KIFKEQ_clean_linker_1, # of connection points: 2
#     Edge 50, Type (0, 0), BuildingBlock: KIFKEQ_clean_linker_1, # of connection points: 2
#     Edge 51, Type (0, 0), BuildingBlock: KIFKEQ_clean_linker_1, # of connection points: 2
#     Edge 52, Type (0, 0), BuildingBlock: KIFKEQ_clean_linker_1, # of connection points: 2
#     Edge 53, Type (0, 0), BuildingBlock: KIFKEQ_clean_linker_1, # of connection points: 2
#     Edge 54, Type (0, 0), BuildingBlock: KIFKEQ_clean_linker_1, # of connection points: 2
#     Edge 55, Type (0, 0), BuildingBlock: KIFKEQ_clean_linker_1, # of connection points: 2
#     Edge 56, Type (0, 0), BuildingBlock: KIFKEQ_clean_linker_1, # of connection points: 2
#     Edge 57, Type (0, 0), BuildingBlock: KIFKEQ_clean_linker_1, # of connection points: 2
#     Edge 58, Type (0, 0), BuildingBlock: KIFKEQ_clean_linker_1, # of connection points: 2
#     Edge 59, Type (0, 0), BuildingBlock: KIFKEQ_clean_linker_1, # of connection points: 2
#     Edge 60, Type (0, 0), BuildingBlock: KIFKEQ_clean_linker_1, # of connection points: 2
#     Edge 61, Type (0, 0), BuildingBlock: KIFKEQ_clean_linker_1, # of connection points: 2
#     Edge 62, Type (0, 0), BuildingBlock: KIFKEQ_clean_linker_1, # of connection points: 2
#     Edge 63, Type (0, 0), BuildingBlock: KIFKEQ_clean_linker_1, # of connection points: 2
#     Edge 64, Type (0, 0), BuildingBlock: KIFKEQ_clean_linker_1, # of connection points: 2
#     Edge 65, Type (0, 0), BuildingBlock: KIFKEQ_clean_linker_1, # of connection points: 2
#     Edge 66, Type (0, 0), BuildingBlock: KIFKEQ_clean_linker_1, # of connection points: 2
#     Edge 67, Type (0, 0), BuildingBlock: KIFKEQ_clean_linker_1, # of connection points: 2
#     Edge 68, Type (0, 0), BuildingBlock: KIFKEQ_clean_linker_1, # of connection points: 2
#     Edge 69, Type (0, 0), BuildingBlock: KIFKEQ_clean_linker_1, # of connection points: 2
#     Edge 70, Type (0, 0), BuildingBlock: KIFKEQ_clean_linker_1, # of connection points: 2
#     Edge 71, Type (0, 0), BuildingBlock: KIFKEQ_clean_linker_1, # of connection points: 2
# Relax obj value: 0.002
# Max RMSD: 0.026
# Mean RMSD: 0.021
data_MOF--net-lcs--node1-CEKHIL_clean_sbu_0--edge1-KIFKEQ_clean_linker_1
_symmetry_space_group_name_H-M    P1
_symmetry_Int_Tables_number       1
_symmetry_cell_setting            triclinic
loop_
_symmetry_equiv_pos_as_xyz
'x, y, z'
_cell_length_a     50.023183
_cell_length_b     49.116746
_cell_length_c     49.103355
_cell_angle_alpha  90.80596
_cell_angle_beta   90.353674
_cell_angle_gamma 90.687698
loop_
_atom_site_label
_atom_site_type_symbol
_atom_site_fract_x
_atom_site_fract_y
_atom_site_fract_z
_atom_type_partial_charge
Co0 Co 0.01226 0.271 0.39299 0.0
O1 O 0.97738 0.28626 0.3878 0.0
O2 O 0.99016 0.26492 0.42488 0.0
C3 C 0.03498 0.30827 0.37813 0.0
O4 O 0.04699 0.25361 0.40629 0.0
Co5 Co 0.05011 0.2621 0.34403 0.0
O6 O 0.07685 0.25287 0.37223 0.0
C7 C 1.00448 0.22415 0.35216 0.0
C8 C 0.97166 0.27824 0.41214 0.0
C9 C 0.07053 0.24869 0.39694 0.0
O10 O 0.99971 0.23521 0.37559 0.0
O11 O 0.02209 0.23357 0.33583 0.0
O12 O 0.0267 0.30706 0.4031 0.0
O13 O 0.02774 0.28801 0.36265 0.0
Co14 Co 0.02214 0.75709 0.64227 0.0
O15 O 0.05633 0.74047 0.64832 0.0
O16 O 0.03377 0.73756 0.60959 0.0
C17 C 0.0346 0.7981 0.66006 0.0
O18 O 0.98638 0.77266 0.62872 0.0
Co19 Co 0.98989 0.7775 0.69234 0.0
O20 O 0.96458 0.7909 0.66454 0.0
C21 C 0.99383 0.71872 0.68083 0.0
C22 C 0.05536 0.73193 0.62328 0.0
C23 C 0.96631 0.78545 0.63915 0.0
O24 O 1.00325 0.72363 0.65697 0.0
O25 O 0.99025 0.7373 0.69894 0.0
O26 O 0.03995 0.79186 0.63492 0.0
O27 O 0.02382 0.77883 0.67397 0.0
Co28 Co 0.51269 0.7684 0.8931 0.0
O29 O 0.47739 0.78154 0.88492 0.0
O30 O 0.48917 0.7629 0.92383 0.0
C31 C 0.53458 0.80579 0.87744 0.0
O32 O 0.5471 0.75359 0.90997 0.0
Co33 Co 0.55564 0.75875 0.84894 0.0
O34 O 0.58077 0.75773 0.88021 0.0
C35 C 0.51219 0.71772 0.85649 0.0
C36 C 0.47082 0.77464 0.90944 0.0
C37 C 0.57214 0.75265 0.90397 0.0
O38 O 0.50303 0.73117 0.87711 0.0
O39 O 0.53184 0.72615 0.84212 0.0
O40 O 0.52454 0.80575 0.90176 0.0
O41 O 0.52973 0.78416 0.8629 0.0
Co42 Co 0.5212 0.25521 0.14325 0.0
O43 O 0.55538 0.23863 0.14967 0.0
O44 O 0.53195 0.23342 0.11168 0.0
C45 C 0.53485 0.29706 0.15795 0.0
O46 O 0.48539 0.27029 0.12913 0.0
Co47 Co 0.49006 0.28058 0.19164 0.0
O48 O 0.46469 0.29254 0.16332 0.0
C49 C 0.49206 0.2207 0.1848 0.0
C50 C 0.55384 0.22858 0.1252 0.0
C51 C 0.46587 0.28464 0.13853 0.0
O52 O 0.50229 0.22312 0.16085 0.0
O53 O 0.48848 0.24105 0.2009 0.0
O54 O 0.53917 0.28914 0.13306 0.0
O55 O 0.524 0.27908 0.17339 0.0
Co56 Co 0.02241 0.76012 0.1382 0.0
O57 O 0.0572 0.7767 0.14327 0.0
O58 O 0.04362 0.75601 0.10534 0.0
C59 C 0.99971 0.796 0.15564 0.0
O60 O 0.98758 0.74204 0.12467 0.0
Co61 Co 0.98554 0.74788 0.18664 0.0
O62 O 0.95741 0.74355 0.15828 0.0
C63 C 0.03022 0.71066 0.17455 0.0
C64 C 0.06218 0.76994 0.1182 0.0
C65 C 0.9635 0.73907 0.13349 0.0
O66 O 0.03585 0.72428 0.153 0.0
O67 O 0.01195 0.71781 0.19128 0.0
O68 O 1.00729 0.79569 0.13042 0.0
O69 O 1.00752 0.77567 0.17001 0.0
Co70 Co 0.50386 0.76418 0.39151 0.0
O71 O 0.46915 0.74755 0.38573 0.0
O72 O 0.49216 0.74491 0.42402 0.0
C73 C 0.49211 0.80492 0.37403 0.0
O74 O 0.54006 0.77971 0.40507 0.0
Co75 Co 0.53646 0.78417 0.34175 0.0
O76 O 0.56282 0.79674 0.36951 0.0
C77 C 0.53169 0.72545 0.35251 0.0
C78 C 0.47027 0.73904 0.41054 0.0
C79 C 0.56076 0.79168 0.3948 0.0
O80 O 0.52179 0.73049 0.37623 0.0
O81 O 0.53595 0.74389 0.33484 0.0
O82 O 0.487 0.79922 0.39924 0.0
O83 O 0.50246 0.78539 0.35999 0.0
Co84 Co 0.52037 0.2572 0.63711 0.0
O85 O 0.55529 0.27322 0.64307 0.0
O86 O 0.54249 0.25228 0.60501 0.0
C87 C 0.4977 0.29371 0.65324 0.0
O88 O 0.48552 0.23961 0.62278 0.0
Co89 Co 0.4821 0.24608 0.68482 0.0
O90 O 0.45468 0.24208 0.65573 0.0
C91 C 0.52675 0.20834 0.67463 0.0
C92 C 0.56087 0.26611 0.61824 0.0
C93 C 0.46119 0.23723 0.63112 0.0
O94 O 0.53276 0.22139 0.65282 0.0
O95 O 0.50827 0.216 0.69087 0.0
O96 O 0.50636 0.29298 0.62839 0.0
O97 O 0.50462 0.27342 0.66815 0.0
Co98 Co 1.00199 0.26768 0.89245 0.0
O99 O 0.96677 0.25146 0.8888 0.0
O100 O 0.99208 0.24858 0.92557 0.0
C101 C 0.98962 0.30835 0.8753 0.0
O102 O 0.03891 0.28292 0.90413 0.0
Co103 Co 0.03251 0.28735 0.84129 0.0
O104 O 0.06014 0.30005 0.8677 0.0
C105 C 0.028 0.22867 0.85236 0.0
C106 C 0.96931 0.24308 0.91357 0.0
C107 C 0.05917 0.29491 0.89304 0.0
O108 O 0.01892 0.23378 0.87641 0.0
O109 O 0.03171 0.24705 0.83451 0.0
O110 O 0.98577 0.30293 0.90081 0.0
O111 O 0.99924 0.28868 0.86091 0.0
Co112 Co 0.3814 1.00137 0.27284 0.0
O113 O 0.37721 0.96652 0.28982 0.0
O114 O 0.41363 0.98027 0.26843 0.0
C115 C 0.36528 0.0255 0.30884 0.0
O116 O 0.39396 0.03622 0.25421 0.0
Co117 Co 0.33304 0.03796 0.26103 0.0
O118 O 0.36057 0.06638 0.25434 0.0
C119 C 0.34292 0.98982 0.22561 0.0
C120 C 0.4017 0.96176 0.28283 0.0
C121 C 0.38489 0.06027 0.25009 0.0
O122 O 0.36571 0.98622 0.23738 0.0
O123 O 0.32634 0.00787 0.23366 0.0
O124 O 0.39003 0.0179 0.30834 0.0
O125 O 0.35068 0.01687 0.28862 0.0
Co126 Co 0.25609 0.13294 0.50769 0.0
O127 O 0.22105 0.12811 0.49173 0.0
O128 O 0.23535 0.16594 0.51217 0.0
C129 C 0.27843 0.11529 0.47159 0.0
O130 O 0.29134 0.14612 0.52518 0.0
Co131 Co 0.2917 0.08377 0.52007 0.0
O132 O 0.32043 0.11165 0.52456 0.0
C133 C 0.24683 0.09628 0.55683 0.0
C134 C 0.21644 0.15319 0.49866 0.0
C135 C 0.31509 0.13668 0.52851 0.0
O136 O 0.24272 0.11844 0.54372 0.0
O137 O 0.26423 0.0788 0.54941 0.0
O138 O 0.27078 0.14045 0.47181 0.0
O139 O 0.27061 0.10102 0.49209 0.0
Co140 Co 0.13081 0.01463 0.77481 0.0
O141 O 0.12633 0.99461 0.80812 0.0
O142 O 0.16335 0.99552 0.78376 0.0
C143 C 0.11266 0.05359 0.79098 0.0
O144 O 0.14352 0.03335 0.73998 0.0
Co145 Co 0.08229 0.03714 0.74282 0.0
O146 O 0.10956 0.05501 0.7198 0.0
C147 C 0.09275 0.97807 0.74281 0.0
C148 C 0.15092 0.98702 0.80529 0.0
C149 C 0.1342 0.04881 0.72119 0.0
O150 O 0.11622 0.98241 0.75309 0.0
O151 O 0.07548 0.99686 0.73986 0.0
O152 O 0.13759 0.04822 0.79594 0.0
O153 O 0.0994 0.03477 0.77806 0.0
Co154 Co 0.26507 0.87803 0.99838 0.0
O155 O 0.29944 0.88228 0.98148 0.0
O156 O 0.28591 0.84514 1.00248 0.0
C157 C 0.24178 0.89497 0.96262 0.0
O158 O 0.23064 0.86539 0.01706 0.0
Co159 Co 0.22946 0.92763 0.01063 0.0
O160 O 0.20203 0.90018 0.02063 0.0
C161 C 0.27687 0.91765 0.04527 0.0
C162 C 0.30437 0.8575 0.98855 0.0
C163 C 0.20768 0.87515 0.02354 0.0
O164 O 0.27985 0.894 0.03396 0.0
O165 O 0.25961 0.93476 0.03696 0.0
O166 O 0.2487 0.86957 0.96279 0.0
O167 O 0.25036 0.90951 0.98302 0.0
Co168 Co 0.27882 0.38253 0.00701 0.0
O169 O 0.31397 0.38629 0.02325 0.0
O170 O 0.28835 0.34962 0.02648 0.0
C171 C 0.29156 0.39924 0.96615 0.0
O172 O 0.24193 0.3706 0.99182 0.0
Co173 Co 0.24849 0.43318 0.9865 0.0
O174 O 0.22114 0.40656 0.9736 0.0
C175 C 0.25116 0.42232 0.04549 0.0
C176 C 0.31116 0.36162 0.0319 0.0
C177 C 0.22192 0.38136 0.97932 0.0
O178 O 0.26178 0.39891 0.04078 0.0
O179 O 0.24676 0.43962 0.02677 0.0
O180 O 0.29522 0.3738 0.97187 0.0
O181 O 0.28186 0.41388 0.98562 0.0
Co182 Co 0.75722 0.13429 0.02057 0.0
O183 O 0.72305 0.12781 0.03738 0.0
O184 O 0.74581 0.16648 0.04104 0.0
C185 C 0.74435 0.11754 0.97926 0.0
O186 O 0.793 0.14823 1.00501 0.0
Co187 Co 0.789 0.08483 0.99845 0.0
O188 O 0.81459 0.1129 0.98573 0.0
C189 C 0.78551 0.09477 0.05755 0.0
C190 C 0.72417 0.15262 0.04654 0.0
C191 C 0.81301 0.13814 0.99185 0.0
O192 O 0.77615 0.11873 0.05343 0.0
O193 O 0.78887 0.07716 0.03845 0.0
O194 O 0.73939 0.14256 0.98618 0.0
O195 O 0.75512 0.10312 0.99804 0.0
Co196 Co 0.14867 0.51494 0.26555 0.0
O197 O 0.15313 0.54809 0.24527 0.0
O198 O 0.11663 0.52234 0.2445 0.0
C199 C 0.16475 0.53275 0.3051 0.0
O200 O 0.13595 0.48025 0.28473 0.0
Co201 Co 0.19671 0.48549 0.29159 0.0
O202 O 0.16883 0.46558 0.31202 0.0
C203 C 0.18724 0.48071 0.23213 0.0
C204 C 0.12873 0.54449 0.23674 0.0
C205 C 0.14468 0.46462 0.30366 0.0
O206 O 0.16473 0.49305 0.2346 0.0
O207 O 0.20346 0.47746 0.25208 0.0
O208 O 0.13999 0.53635 0.29804 0.0
O209 O 0.17927 0.52012 0.28746 0.0
Co210 Co 0.77749 0.88365 0.5099 0.0
O211 O 0.81271 0.88799 0.52587 0.0
O212 O 0.78741 0.8512 0.5299 0.0
C213 C 0.78979 0.89959 0.46862 0.0
O214 O 0.74065 0.87114 0.49514 0.0
Co215 Co 0.74664 0.93364 0.48863 0.0
O216 O 0.71959 0.90651 0.47613 0.0
C217 C 0.74945 0.92378 0.54779 0.0
C218 C 0.81017 0.86345 0.53494 0.0
C219 C 0.72056 0.88146 0.48239 0.0
O220 O 0.76048 0.9005 0.54345 0.0
O221 O 0.74471 0.94069 0.5288 0.0
O222 O 0.79372 0.87433 0.47485 0.0
O223 O 0.78015 0.91458 0.48787 0.0
Co224 Co 0.89963 0.99626 0.26752 0.0
O225 O 0.90395 0.97791 0.30165 0.0
O226 O 0.86765 0.99991 0.2892 0.0
C227 C 0.91555 0.96128 0.24185 0.0
O228 O 0.88666 0.01625 0.23387 0.0
Co229 Co 0.94709 0.00993 0.23033 0.0
O230 O 0.91988 0.02247 0.20398 0.0
C231 C 0.93861 0.04276 0.28039 0.0
C232 C 0.87961 0.98495 0.30708 0.0
C233 C 0.89546 0.02452 0.2108 0.0
O234 O 0.91562 0.03115 0.2838 0.0
O235 O 0.95494 0.03522 0.26185 0.0
O236 O 0.89075 0.96152 0.24949 0.0
O237 O 0.93025 0.98123 0.25104 0.0
Co238 Co 0.25635 0.63379 0.51772 0.0
O239 O 0.2224 0.62827 0.53522 0.0
O240 O 0.24613 0.6664 0.53821 0.0
C241 C 0.2423 0.61714 0.47681 0.0
O242 O 0.29212 0.64671 0.50127 0.0
Co243 Co 0.28651 0.58354 0.49482 0.0
O244 O 0.30928 0.61157 0.47743 0.0
C245 C 0.28457 0.59373 0.55413 0.0
C246 C 0.22426 0.65312 0.54417 0.0
C247 C 0.30963 0.63657 0.48481 0.0
O248 O 0.27545 0.61784 0.55024 0.0
O249 O 0.28754 0.57616 0.5349 0.0
O250 O 0.23803 0.64233 0.48363 0.0
O251 O 0.2531 0.60259 0.49546 0.0
Co252 Co 0.39981 0.49571 0.76452 0.0
O253 O 0.40541 0.47882 0.79926 0.0
O254 O 0.36889 0.50079 0.78745 0.0
C255 C 0.41397 0.45937 0.73963 0.0
O256 O 0.38557 0.51444 0.73054 0.0
Co257 Co 0.44579 0.50668 0.72426 0.0
O258 O 0.41751 0.51834 0.69881 0.0
C259 C 0.43865 0.54368 0.77185 0.0
C260 C 0.38135 0.4863 0.80536 0.0
C261 C 0.39353 0.52142 0.70671 0.0
O262 O 0.41689 0.53109 0.77843 0.0
O263 O 0.45365 0.53572 0.75232 0.0
O264 O 0.3897 0.46027 0.74874 0.0
O265 O 0.42935 0.47949 0.74708 0.0
Co266 Co 0.64766 0.01491 0.76961 0.0
O267 O 0.65136 0.04854 0.74994 0.0
O268 O 0.61525 0.02224 0.74912 0.0
C269 C 0.66406 0.03206 0.80937 0.0
O270 O 0.63565 0.97962 0.78821 0.0
Co271 Co 0.69682 0.98581 0.79411 0.0
O272 O 0.67008 0.96162 0.81122 0.0
C273 C 0.68663 0.9826 0.73478 0.0
C274 C 0.62695 0.04468 0.74157 0.0
C275 C 0.64549 0.96169 0.80431 0.0
O276 O 0.66367 0.9939 0.73794 0.0
O277 O 0.70337 0.9797 0.75432 0.0
O278 O 0.63917 0.0355 0.80273 0.0
O279 O 0.67848 0.02007 0.79121 0.0
Co280 Co 0.75762 0.63706 0.01076 0.0
O281 O 0.72183 0.63386 0.99592 0.0
O282 O 0.73846 0.67063 0.01661 0.0
C283 C 0.77846 0.61939 0.97379 0.0
O284 O 0.79356 0.64906 0.02746 0.0
Co285 Co 0.79303 0.58736 0.02131 0.0
O286 O 0.82243 0.61451 0.02538 0.0
C287 C 0.75019 0.60066 0.06036 0.0
C288 C 0.71857 0.65898 1.00367 0.0
C289 C 0.81731 0.63947 0.03004 0.0
O290 O 0.74486 0.62228 0.04685 0.0
O291 O 0.76783 0.58348 0.05282 0.0
O292 O 0.77147 0.64476 0.97462 0.0
O293 O 0.77093 0.60495 0.99429 0.0
Co294 Co 0.87908 0.50532 0.77415 0.0
O295 O 0.87405 0.4709 0.79191 0.0
O296 O 0.91062 0.48326 0.76995 0.0
C297 C 0.8638 0.53072 0.80967 0.0
O298 O 0.8928 0.53922 0.75478 0.0
Co299 Co 0.83225 0.54341 0.76134 0.0
O300 O 0.86004 0.56959 0.74935 0.0
C301 C 0.84008 0.49399 0.72732 0.0
C302 C 0.89836 0.46536 0.78479 0.0
C303 C 0.88435 0.56256 0.74704 0.0
O304 O 0.86283 0.48994 0.73902 0.0
O305 O 0.82412 0.51269 0.73514 0.0
O306 O 0.8883 0.52231 0.80924 0.0
O307 O 0.84887 0.52223 0.78964 0.0
Co308 Co 0.76418 0.37701 0.50147 0.0
O309 O 0.79882 0.38226 0.4854 0.0
O310 O 0.78611 0.34501 0.50668 0.0
C311 C 0.74114 0.39251 0.46484 0.0
O312 O 0.72974 0.36344 0.51952 0.0
Co313 Co 0.72656 0.42549 0.51189 0.0
O314 O 0.69989 0.39723 0.52173 0.0
C315 C 0.77347 0.41785 0.5479 0.0
C316 C 0.80449 0.35783 0.49307 0.0
C317 C 0.70631 0.37249 0.52526 0.0
O318 O 0.77754 0.39414 0.53711 0.0
O319 O 0.7558 0.43414 0.53886 0.0
O320 O 0.74895 0.3674 0.46559 0.0
O321 O 0.74874 0.40763 0.4852 0.0
Co322 Co 0.63325 0.51081 0.27498 0.0
O323 O 0.62733 0.48934 0.3072 0.0
O324 O 0.6652 0.49097 0.28428 0.0
C325 C 0.61491 0.54919 0.29226 0.0
O326 O 0.64779 0.53078 0.24162 0.0
Co327 Co 0.58752 0.53678 0.24162 0.0
O328 O 0.61642 0.55758 0.22359 0.0
C329 C 0.5981 0.47756 0.23606 0.0
C330 C 0.65201 0.48176 0.30501 0.0
C331 C 0.64038 0.5492 0.22478 0.0
O332 O 0.61922 0.47987 0.25116 0.0
O333 O 0.58234 0.49736 0.23139 0.0
O334 O 0.63957 0.54327 0.2979 0.0
O335 O 0.60195 0.53134 0.27772 0.0
H336 H 0.09672 0.44464 0.28348 0.0
H337 H 0.15209 0.43664 0.35071 0.0
H338 H 0.0693 0.40761 0.30182 0.0
H339 H 0.12486 0.39982 0.3688 0.0
H340 H 0.05591 0.35161 0.40707 0.0
H341 H 0.08068 0.39078 0.38955 0.0
H342 H 0.07378 0.35731 0.30799 0.0
H343 H 0.04899 0.3182 0.32548 0.0
C344 C 0.10293 0.43519 0.30225 0.0
C345 C 0.12669 0.44359 0.31551 0.0
C346 C 0.08733 0.41385 0.31265 0.0
C347 C 0.09494 0.40069 0.33674 0.0
C348 C 0.11828 0.40963 0.35035 0.0
C349 C 0.13399 0.43068 0.33984 0.0
C350 C 0.05973 0.3526 0.38541 0.0
C351 C 0.05057 0.33175 0.36769 0.0
C352 C 0.07395 0.37502 0.37537 0.0
C353 C 0.07914 0.37723 0.34734 0.0
C354 C 0.06983 0.35642 0.32962 0.0
C355 C 0.05582 0.33389 0.33969 0.0
H356 H 0.96598 0.79838 0.58449 0.0
H357 H 0.91461 0.79156 0.65447 0.0
H358 H 0.92808 0.81536 0.55773 0.0
H359 H 0.8771 0.80806 0.62789 0.0
H360 H 0.80954 0.81632 0.56464 0.0
H361 H 0.84735 0.79495 0.58776 0.0
H362 H 0.89998 0.85864 0.55943 0.0
H363 H 0.86234 0.8801 0.53671 0.0
C364 C 0.94662 0.80018 0.59406 0.0
C365 C 0.94343 0.79379 0.62168 0.0
C366 C 0.92495 0.81002 0.57881 0.0
C367 C 0.89954 0.81306 0.59069 0.0
C368 C 0.89627 0.80577 0.61801 0.0
C369 C 0.9179 0.79648 0.63331 0.0
C370 C 0.82918 0.82572 0.56335 0.0
C371 C 0.83283 0.85003 0.54901 0.0
C372 C 0.85084 0.8135 0.57658 0.0
C373 C 0.87674 0.82504 0.57534 0.0
C374 C 0.88041 0.84904 0.56054 0.0
C375 C 0.85873 0.86148 0.54773 0.0
H376 H 0.47286 0.58251 0.75376 0.0
H377 H 0.42281 0.56335 0.82247 0.0
H378 H 0.48848 0.62349 0.7767 0.0
H379 H 0.43933 0.60482 0.84615 0.0
H380 H 0.46042 0.69879 0.86393 0.0
H381 H 0.44066 0.65616 0.84555 0.0
H382 H 0.51785 0.63342 0.8142 0.0
H383 H 0.53707 0.67573 0.83151 0.0
C384 C 0.46531 0.58689 0.77397 0.0
C385 C 0.44689 0.56925 0.78642 0.0
C386 C 0.47441 0.61048 0.78722 0.0
C387 C 0.4657 0.61722 0.81359 0.0
C388 C 0.44652 0.60018 0.82588 0.0
C389 C 0.43714 0.5764 0.81237 0.0
C390 C 0.4731 0.68448 0.85329 0.0
C391 C 0.50018 0.6909 0.84867 0.0
C392 C 0.46182 0.66006 0.84285 0.0
C393 C 0.47752 0.64163 0.82782 0.0
C394 C 0.50492 0.64747 0.82486 0.0
C395 C 0.516 0.67177 0.83491 0.0
H396 H 0.59162 0.19953 0.15166 0.0
H397 H 0.56967 0.22755 0.07177 0.0
H398 H 0.63333 0.18152 0.13339 0.0
H399 H 0.612 0.21014 0.05361 0.0
H400 H 0.707 0.20554 0.0463 0.0
H401 H 0.66465 0.22294 0.06445 0.0
H402 H 0.64595 0.14354 0.09609 0.0
H403 H 0.68765 0.126 0.07737 0.0
C404 C 0.5956 0.20159 0.13011 0.0
C405 C 0.57725 0.21474 0.11309 0.0
C406 C 0.61952 0.19136 0.11971 0.0
C407 C 0.62602 0.19467 0.09216 0.0
C408 C 0.60757 0.20754 0.07499 0.0
C409 C 0.58325 0.21719 0.08529 0.0
C410 C 0.69399 0.19195 0.05745 0.0
C411 C 0.70071 0.16446 0.06056 0.0
C412 C 0.66965 0.20181 0.06755 0.0
C413 C 0.65194 0.18452 0.08151 0.0
C414 C 0.65918 0.15731 0.08542 0.0
C415 C 0.68309 0.14732 0.07477 0.0
H416 H 0.15014 0.59146 0.21655 0.0
H417 H 0.07551 0.54706 0.22344 0.0
H418 H 0.12633 0.63029 0.19827 0.0
H419 H 0.0517 0.58585 0.20485 0.0
H420 H 0.01803 0.67254 0.21264 0.0
H421 H 0.04162 0.63114 0.22325 0.0
H422 H 0.09913 0.64849 0.16044 0.0
H423 H 0.07546 0.69048 0.14977 0.0
C424 C 0.12869 0.58978 0.21369 0.0
C425 C 0.11471 0.56619 0.22168 0.0
C426 C 0.11505 0.61204 0.20308 0.0
C427 C 0.08706 0.61135 0.20035 0.0
C428 C 0.07323 0.58724 0.20709 0.0
C429 C 0.0869 0.5649 0.21757 0.0
C430 C 0.03568 0.66766 0.20095 0.0
C431 C 0.04485 0.68508 0.18038 0.0
C432 C 0.04908 0.64366 0.20691 0.0
C433 C 0.0722 0.63631 0.19261 0.0
C434 C 0.08143 0.6536 0.17193 0.0
C435 C 0.06782 0.67763 0.16577 0.0
H436 H 0.61312 0.79 0.38126 0.0
H437 H 0.56093 0.8113 0.44769 0.0
H438 H 0.65154 0.80745 0.40709 0.0
H439 H 0.59968 0.8294 0.47358 0.0
H440 H 0.66878 0.89714 0.48018 0.0
H441 H 0.63 0.87113 0.4638 0.0
H442 H 0.67967 0.80096 0.45079 0.0
H443 H 0.71875 0.82705 0.46779 0.0
C444 C 0.60991 0.79817 0.40157 0.0
C445 C 0.58395 0.79949 0.41236 0.0
C446 C 0.63199 0.80795 0.41646 0.0
C447 C 0.62868 0.81982 0.44236 0.0
C448 C 0.60282 0.82038 0.45362 0.0
C449 C 0.58068 0.80998 0.43889 0.0
C450 C 0.67143 0.87603 0.47418 0.0
C451 C 0.69692 0.86422 0.47504 0.0
C452 C 0.64911 0.86107 0.46503 0.0
C453 C 0.65173 0.834 0.456 0.0
C454 C 0.67706 0.82183 0.4576 0.0
C455 C 0.6994 0.8367 0.46737 0.0
H456 H 0.47111 0.29782 0.7017 0.0
H457 H 0.49104 0.34315 0.62974 0.0
H458 H 0.44907 0.33798 0.72082 0.0
H459 H 0.46929 0.38327 0.64897 0.0
H460 H 0.46088 0.45546 0.71173 0.0
H461 H 0.47929 0.41504 0.68944 0.0
H462 H 0.40899 0.36868 0.7113 0.0
H463 H 0.39039 0.40918 0.73335 0.0
C464 C 0.47064 0.31628 0.68991 0.0
C465 C 0.48286 0.31733 0.66425 0.0
C466 C 0.45794 0.33923 0.7008 0.0
C467 C 0.45756 0.3638 0.68642 0.0
C468 C 0.46947 0.3647 0.66061 0.0
C469 C 0.48179 0.34167 0.64956 0.0
C470 C 0.44923 0.43672 0.71153 0.0
C471 C 0.42419 0.43551 0.7243 0.0
C472 C 0.45974 0.4136 0.69871 0.0
C473 C 0.44562 0.38867 0.69872 0.0
C474 C 0.42041 0.38755 0.71117 0.0
C475 C 0.40971 0.41079 0.72362 0.0
H476 H 0.91712 0.24119 0.89748 0.0
H477 H 0.96998 0.21382 0.96103 0.0
H478 H 0.8795 0.21841 0.9193 0.0
H479 H 0.93215 0.19061 0.98277 0.0
H480 H 0.86476 0.12319 0.98581 0.0
H481 H 0.90239 0.15016 0.96957 0.0
H482 H 0.85144 0.22005 0.96287 0.0
H483 H 0.81345 0.19292 0.97961 0.0
C484 C 0.92074 0.2303 0.91615 0.0
C485 C 0.94665 0.22918 0.9274 0.0
C486 C 0.89907 0.21746 0.92879 0.0
C487 C 0.90276 0.20276 0.95282 0.0
C488 C 0.92866 0.20172 0.96421 0.0
C489 C 0.95032 0.215 0.95178 0.0
C490 C 0.86152 0.14438 0.98109 0.0
C491 C 0.83597 0.15584 0.98385 0.0
C492 C 0.88321 0.15989 0.97197 0.0
C493 C 0.87997 0.18724 0.96488 0.0
C494 C 0.85455 0.19896 0.96805 0.0
C495 C 0.83283 0.1835 0.97774 0.0
H496 H 0.30457 0.06662 0.46903 0.0
H497 H 0.28507 0.13686 0.42121 0.0
H498 H 0.32683 0.04623 0.4295 0.0
H499 H 0.30693 0.1163 0.38171 0.0
H500 H 0.31723 0.05134 0.31156 0.0
H501 H 0.2975 0.07409 0.35118 0.0
H502 H 0.36769 0.05614 0.39889 0.0
H503 H 0.38761 0.03374 0.35921 0.0
C504 C 0.30513 0.07773 0.45013 0.0
C505 C 0.29307 0.10333 0.44823 0.0
C506 C 0.31794 0.06612 0.42755 0.0
C507 C 0.31854 0.07965 0.40249 0.0
C508 C 0.30661 0.10532 0.40068 0.0
C509 C 0.29423 0.11713 0.42336 0.0
C510 C 0.32853 0.05246 0.33044 0.0
C511 C 0.35397 0.04077 0.33226 0.0
C512 C 0.31727 0.06554 0.35309 0.0
C513 C 0.33102 0.06679 0.37816 0.0
C514 C 0.35655 0.05528 0.3799 0.0
C515 C 0.368 0.04263 0.35713 0.0
H516 H 0.12125 0.08043 0.67765 0.0
H517 H 0.18786 0.03882 0.7141 0.0
H518 H 0.14895 0.09276 0.63927 0.0
H519 H 0.21594 0.05192 0.67582 0.0
H520 H 0.24728 0.05042 0.58805 0.0
H521 H 0.22144 0.04086 0.62862 0.0
H522 H 0.18529 0.1201 0.62388 0.0
H523 H 0.21066 0.12944 0.58273 0.0
C524 C 0.14193 0.07418 0.67773 0.0
C525 C 0.15218 0.05844 0.69907 0.0
C526 C 0.15794 0.08145 0.65566 0.0
C527 C 0.18475 0.0733 0.65423 0.0
C528 C 0.19526 0.0582 0.67594 0.0
C529 C 0.17919 0.05085 0.69805 0.0
C530 C 0.23385 0.06589 0.59559 0.0
C531 C 0.23106 0.09071 0.58189 0.0
C532 C 0.21914 0.06045 0.61911 0.0
C533 C 0.20123 0.07968 0.62973 0.0
C534 C 0.19859 0.10461 0.61616 0.0
C535 C 0.21326 0.11003 0.59255 0.0
H536 H 0.20443 0.9843 0.81633 0.0
H537 H 0.12768 0.95362 0.84252 0.0
H538 H 0.22609 0.961 0.85426 0.0
H539 H 0.14951 0.92968 0.8799 0.0
H540 H 0.21056 0.86928 0.92376 0.0
H541 H 0.18828 0.89 0.88452 0.0
H542 H 0.21944 0.96881 0.90936 0.0
H543 H 0.24092 0.94843 0.9489 0.0
C544 C 0.19226 0.97222 0.8299 0.0
C545 C 0.16436 0.97081 0.82649 0.0
C546 C 0.20463 0.95903 0.85164 0.0
C547 C 0.18943 0.9436 0.86996 0.0
C548 C 0.16167 0.94135 0.86598 0.0
C549 C 0.14922 0.95509 0.84465 0.0
C550 C 0.21247 0.89104 0.9209 0.0
C551 C 0.22742 0.90724 0.93943 0.0
C552 C 0.19975 0.90285 0.8985 0.0
C553 C 0.20236 0.93093 0.89387 0.0
C554 C 0.21732 0.94708 0.91237 0.0
C555 C 0.22945 0.93542 0.93507 0.0
H556 H 0.30448 0.88483 0.08105 0.0
H557 H 0.28469 0.96872 0.06592 0.0
H558 H 0.32365 0.89863 0.1256 0.0
H559 H 0.30338 0.98205 0.10988 0.0
H560 H 0.37495 0.95745 0.19289 0.0
H561 H 0.36279 0.93665 0.14848 0.0
H562 H 0.28223 0.96548 0.15767 0.0
H563 H 0.2939 0.98583 0.20149 0.0
C564 C 0.30467 0.90617 0.0869 0.0
C565 C 0.29259 0.92558 0.07006 0.0
C566 C 0.31564 0.91403 0.11235 0.0
C567 C 0.31458 0.94134 0.12126 0.0
C568 C 0.30409 0.96081 0.10367 0.0
C569 C 0.29333 0.95309 0.07845 0.0
C570 C 0.35453 0.9589 0.18562 0.0
C571 C 0.33554 0.97376 0.20064 0.0
C572 C 0.34762 0.94696 0.16026 0.0
C573 C 0.32168 0.94982 0.14957 0.0
C574 C 0.30247 0.9633 0.16528 0.0
C575 C 0.30924 0.97501 0.19043 0.0
H576 H 0.36363 0.37715 0.0333 0.0
H577 H 0.30963 0.31487 0.0622 0.0
H578 H 0.40082 0.35538 0.05648 0.0
H579 H 0.347 0.29324 0.08585 0.0
H580 H 0.41421 0.29158 0.15343 0.0
H581 H 0.37689 0.30739 0.12606 0.0
H582 H 0.42805 0.31113 0.05574 0.0
H583 H 0.46569 0.29476 0.08329 0.0
C584 C 0.35967 0.35878 0.04461 0.0
C585 C 0.33357 0.34786 0.04604 0.0
C586 C 0.38108 0.34617 0.05769 0.0
C587 C 0.37694 0.32253 0.07294 0.0
C588 C 0.35085 0.31148 0.0743 0.0
C589 C 0.32944 0.32385 0.06077 0.0
C590 C 0.41753 0.2955 0.13206 0.0
C591 C 0.44303 0.29204 0.12059 0.0
C592 C 0.39603 0.3044 0.11632 0.0
C593 C 0.39945 0.31057 0.08873 0.0
C594 C 0.42481 0.30665 0.07701 0.0
C595 C 0.44633 0.29716 0.09271 0.0
H596 H 0.99689 0.81091 0.20922 0.0
H597 H 0.96977 0.8337 0.12916 0.0
H598 H 0.97588 0.85146 0.22875 0.0
H599 H 0.94802 0.87387 0.14895 0.0
H600 H 0.88928 0.92265 0.21069 0.0
H601 H 0.90843 0.88212 0.18872 0.0
H602 H 0.98667 0.90596 0.21847 0.0
H603 H 0.96786 0.94678 0.23966 0.0
C604 C 0.98613 0.82436 0.19586 0.0
C605 C 0.98503 0.8192 0.16766 0.0
C606 C 0.97423 0.84759 0.20702 0.0
C607 C 0.96046 0.86575 0.1903 0.0
C608 C 0.95851 0.86012 0.16224 0.0
C609 C 0.97098 0.83722 0.15096 0.0
C610 C 0.91061 0.91936 0.21225 0.0
C611 C 0.92708 0.93788 0.22686 0.0
C612 C 0.92151 0.89624 0.19969 0.0
C613 C 0.94895 0.89092 0.20213 0.0
C614 C 0.96543 0.90956 0.21648 0.0
C615 C 0.95467 0.93296 0.22844 0.0
H616 H 0.20842 0.7065 0.54378 0.0
H617 H 0.18741 0.62763 0.57546 0.0
H618 H 0.16658 0.72503 0.56205 0.0
H619 H 0.14622 0.64624 0.59421 0.0
H620 H 0.09268 0.70208 0.6494 0.0
H621 H 0.13418 0.68374 0.63112 0.0
H622 H 0.11396 0.71427 0.55177 0.0
H623 H 0.07184 0.73214 0.56998 0.0
C624 C 0.19516 0.6933 0.5551 0.0
C625 C 0.20126 0.66567 0.55835 0.0
C626 C 0.17111 0.7038 0.56525 0.0
C627 C 0.15308 0.68701 0.57939 0.0
C628 C 0.15971 0.65965 0.58343 0.0
C629 C 0.18334 0.64905 0.57276 0.0
C630 C 0.09688 0.70457 0.62796 0.0
C631 C 0.07888 0.71837 0.61108 0.0
C632 C 0.12069 0.69413 0.61753 0.0
C633 C 0.12742 0.69778 0.59009 0.0
C634 C 0.10937 0.71139 0.57307 0.0
C635 C 0.08516 0.72132 0.5834 0.0
H636 H 0.96933 0.68129 0.64692 0.0
H637 H 0.99571 0.6942 0.73002 0.0
H638 H 0.9454 0.63979 0.66053 0.0
H639 H 0.97234 0.65262 0.74343 0.0
H640 H 0.93875 0.56585 0.75406 0.0
H641 H 0.96955 0.59987 0.73522 0.0
H642 H 0.90382 0.63673 0.69265 0.0
H643 H 0.87304 0.60324 0.71173 0.0
C644 C 0.97069 0.67482 0.66787 0.0
C645 C 0.98425 0.691 0.68744 0.0
C646 C 0.95686 0.65122 0.67569 0.0
C647 C 0.95692 0.64311 0.70306 0.0
C648 C 0.97208 0.65828 0.72219 0.0
C649 C 0.98537 0.68212 0.71452 0.0
C650 C 0.93095 0.58108 0.74049 0.0
C651 C 0.90343 0.58201 0.73458 0.0
C652 C 0.94855 0.60051 0.72974 0.0
C653 C 0.93907 0.6208 0.71237 0.0
C654 C 0.91173 0.62112 0.70572 0.0
C655 C 0.89408 0.6021 0.71688 0.0
H656 H 0.17791 0.13218 0.4649 0.0
H657 H 0.19988 0.20555 0.50965 0.0
H658 H 0.14134 0.15608 0.44317 0.0
H659 H 0.1626 0.22941 0.48794 0.0
H660 H 0.07303 0.24773 0.45321 0.0
H661 H 0.10675 0.22511 0.48153 0.0
H662 H 0.14711 0.19779 0.40895 0.0
H663 H 0.11426 0.22048 0.38087 0.0
C664 C 0.17467 0.15329 0.47052 0.0
C665 C 0.19201 0.16701 0.48887 0.0
C666 C 0.15371 0.16696 0.458 0.0
C667 C 0.14928 0.1946 0.46375 0.0
C668 C 0.16556 0.20805 0.48325 0.0
C669 C 0.1869 0.19441 0.49558 0.0
C670 C 0.0892 0.237 0.44337 0.0
C671 C 0.09091 0.23596 0.41475 0.0
C672 C 0.10848 0.22418 0.45956 0.0
C673 C 0.12938 0.2096 0.44737 0.0
C674 C 0.13109 0.20872 0.41887 0.0
C675 C 0.11228 0.22187 0.4028 0.0
H676 H 0.61366 0.42674 0.252 0.0
H677 H 0.5665 0.468 0.19154 0.0
H678 H 0.59913 0.38276 0.23248 0.0
H679 H 0.55219 0.42428 0.17219 0.0
H680 H 0.5543 0.34019 0.1293 0.0
H681 H 0.57163 0.38357 0.14756 0.0
H682 H 0.55429 0.35729 0.22918 0.0
H683 H 0.53685 0.31404 0.211 0.0
C684 C 0.60045 0.42644 0.23444 0.0
C685 C 0.59112 0.45084 0.22343 0.0
C686 C 0.59201 0.4013 0.2234 0.0
C687 C 0.57447 0.40016 0.20088 0.0
C688 C 0.56583 0.42455 0.18942 0.0
C689 C 0.57393 0.44958 0.20064 0.0
C690 C 0.55409 0.34375 0.15112 0.0
C691 C 0.54414 0.32379 0.16871 0.0
C692 C 0.564 0.36854 0.16156 0.0
C693 C 0.56446 0.37369 0.1898 0.0
C694 C 0.55451 0.35371 0.20736 0.0
C695 C 0.5443 0.32908 0.19692 0.0
H696 H 0.34362 0.87877 0.95701 0.0
H697 H 0.32094 0.80524 0.99874 0.0
H698 H 0.38251 0.85611 0.93848 0.0
H699 H 0.36028 0.78237 0.97992 0.0
H700 H 0.4521 0.766 0.96118 0.0
H701 H 0.41132 0.78428 0.98153 0.0
H702 H 0.38988 0.81927 0.90437 0.0
H703 H 0.4304 0.80126 0.88415 0.0
C704 C 0.34699 0.85776 0.96237 0.0
C705 C 0.32906 0.84379 0.97929 0.0
C706 C 0.36923 0.8447 0.95154 0.0
C707 C 0.3743 0.81732 0.9574 0.0
C708 C 0.3569 0.80349 0.97504 0.0
C709 C 0.33438 0.81657 0.98578 0.0
C710 C 0.43846 0.77727 0.94849 0.0
C711 C 0.44463 0.78237 0.92109 0.0
C712 C 0.41509 0.78768 0.96015 0.0
C713 C 0.39758 0.80356 0.94467 0.0
C714 C 0.40322 0.80756 0.91699 0.0
C715 C 0.4264 0.79707 0.90534 0.0
H716 H 0.87853 0.42762 0.81972 0.0
H717 H 0.94979 0.44921 0.77525 0.0
H718 H 0.90248 0.39096 0.84168 0.0
H719 H 0.97387 0.4125 0.79749 0.0
H720 H 0.9963 0.32424 0.82274 0.0
H721 H 0.97496 0.36214 0.79989 0.0
H722 H 0.93867 0.38672 0.87579 0.0
H723 H 0.95982 0.34863 0.89861 0.0
C724 C 0.89926 0.42441 0.81445 0.0
C725 C 0.91225 0.44135 0.79573 0.0
C726 C 0.91307 0.40356 0.82727 0.0
C727 C 0.94018 0.39904 0.82162 0.0
C728 C 0.95298 0.41543 0.80224 0.0
C729 C 0.93918 0.43643 0.7895 0.0
C730 C 0.98403 0.33794 0.83463 0.0
C731 C 0.97961 0.33336 0.86246 0.0
C732 C 0.97186 0.35969 0.82153 0.0
C733 C 0.95487 0.37725 0.83594 0.0
C734 C 0.95127 0.37325 0.86401 0.0
C735 C 0.96358 0.35159 0.87715 0.0
H736 H 0.36835 0.12536 0.53264 0.0
H737 H 0.31159 0.18931 0.54814 0.0
H738 H 0.40353 0.15288 0.5539 0.0
H739 H 0.34715 0.21717 0.5691 0.0
H740 H 0.40727 0.23636 0.63957 0.0
H741 H 0.3726 0.21528 0.61133 0.0
H742 H 0.43164 0.19359 0.55125 0.0
H743 H 0.46669 0.21441 0.5799 0.0
C744 C 0.36338 0.14545 0.54028 0.0
C745 C 0.33695 0.15493 0.53892 0.0
C746 C 0.38371 0.16137 0.55229 0.0
C747 C 0.37822 0.18723 0.56335 0.0
C748 C 0.35202 0.19719 0.56109 0.0
C749 C 0.33164 0.18127 0.54894 0.0
C750 C 0.41296 0.22732 0.62024 0.0
C751 C 0.43992 0.22685 0.6122 0.0
C752 C 0.39294 0.21541 0.60389 0.0
C753 C 0.39927 0.20261 0.57903 0.0
C754 C 0.4261 0.20299 0.57045 0.0
C755 C 0.44619 0.21506 0.5868 0.0
H756 H 0.54934 0.68545 0.38656 0.0
H757 H 0.53423 0.70283 0.3019 0.0
H758 H 0.56901 0.64172 0.37311 0.0
H759 H 0.55361 0.65947 0.28863 0.0
H760 H 0.56651 0.5685 0.27688 0.0
H761 H 0.54428 0.60938 0.29324 0.0
H762 H 0.61133 0.62768 0.34645 0.0
H763 H 0.63379 0.58655 0.32996 0.0
C764 C 0.54979 0.67974 0.36518 0.0
C765 C 0.54027 0.69756 0.34528 0.0
C766 C 0.56127 0.6549 0.35748 0.0
C767 C 0.56294 0.64729 0.32982 0.0
C768 C 0.55247 0.66469 0.3101 0.0
C769 C 0.54143 0.68957 0.31772 0.0
C770 C 0.57658 0.58122 0.29204 0.0
C771 C 0.602 0.57441 0.302 0.0
C772 C 0.56382 0.60463 0.3014 0.0
C773 C 0.57604 0.62167 0.32115 0.0
C774 C 0.60133 0.61473 0.33142 0.0
C775 C 0.61428 0.59138 0.3218 0.0
H776 H 0.10017 0.8041 0.1397 0.0
H777 H 0.07897 0.76033 0.06558 0.0
H778 H 0.13644 0.82708 0.11611 0.0
H779 H 0.11591 0.78334 0.04198 0.0
H780 H 0.20383 0.81902 0.02207 0.0
H781 H 0.17016 0.79026 0.04452 0.0
H782 H 0.13229 0.8622 0.07666 0.0
H783 H 0.16522 0.89077 0.05418 0.0
C784 C 0.1035 0.79899 0.11847 0.0
C785 C 0.08648 0.78051 0.10448 0.0
C786 C 0.12427 0.81227 0.10496 0.0
C787 C 0.12882 0.80718 0.07718 0.0
C788 C 0.11284 0.78757 0.06343 0.0
C789 C 0.09171 0.77447 0.07693 0.0
C790 C 0.18824 0.82864 0.03386 0.0
C791 C 0.18726 0.85722 0.03631 0.0
C792 C 0.16896 0.81219 0.04658 0.0
C793 C 0.14877 0.82403 0.06246 0.0
C794 C 0.14778 0.85252 0.06476 0.0
C795 C 0.16661 0.86888 0.05172 0.0
H796 H 0.75234 0.89379 0.59475 0.0
H797 H 0.72588 0.97113 0.56405 0.0
H798 H 0.73557 0.90632 0.63984 0.0
H799 H 0.70965 0.98358 0.60885 0.0
H800 H 0.66008 0.98786 0.68586 0.0
H801 H 0.67449 0.97196 0.64098 0.0
H802 H 0.74572 0.93854 0.67693 0.0
H803 H 0.73128 0.95383 0.72161 0.0
C804 C 0.74313 0.91346 0.59758 0.0
C805 C 0.74052 0.93138 0.57567 0.0
C806 C 0.73353 0.92067 0.62343 0.0
C807 C 0.72107 0.94589 0.6279 0.0
C808 C 0.71865 0.9638 0.60603 0.0
C809 C 0.72824 0.95668 0.58032 0.0
C810 C 0.67872 0.97697 0.68422 0.0
C811 C 0.69453 0.97231 0.70741 0.0
C812 C 0.68705 0.96797 0.65848 0.0
C813 C 0.71132 0.95404 0.65536 0.0
C814 C 0.7268 0.94891 0.67861 0.0
C815 C 0.71855 0.95793 0.70426 0.0
H816 H 0.82825 0.9948 0.3235 0.0
H817 H 0.89916 0.95035 0.34499 0.0
H818 H 0.8043 0.97367 0.36121 0.0
H819 H 0.87538 0.9295 0.38259 0.0
H820 H 0.81841 0.87471 0.42833 0.0
H821 H 0.83889 0.89597 0.38879 0.0
H822 H 0.80407 0.97293 0.41174 0.0
H823 H 0.78338 0.95162 0.45111 0.0
C824 C 0.83879 0.98075 0.33641 0.0
C825 C 0.8656 0.97425 0.33124 0.0
C826 C 0.82508 0.96865 0.35799 0.0
C827 C 0.83785 0.94966 0.37469 0.0
C828 C 0.8648 0.94363 0.36979 0.0
C829 C 0.87852 0.95581 0.34838 0.0
C830 C 0.81483 0.89607 0.42472 0.0
C831 C 0.79942 0.91151 0.44291 0.0
C832 C 0.82674 0.90831 0.40221 0.0
C833 C 0.82337 0.93623 0.39732 0.0
C834 C 0.80697 0.95138 0.41487 0.0
C835 C 0.79518 0.93917 0.43747 0.0
H836 H 0.78313 0.04509 0.08101 0.0
H837 H 0.81113 0.12759 0.09512 0.0
H838 H 0.80695 0.03049 0.12173 0.0
H839 H 0.83551 0.11279 0.13575 0.0
H840 H 0.90726 0.06004 0.17022 0.0
H841 H 0.87659 0.07998 0.1374 0.0
H842 H 0.81038 0.03774 0.17455 0.0
H843 H 0.84102 0.01803 0.20784 0.0
C844 C 0.79393 0.0602 0.0932 0.0
C845 C 0.79535 0.08745 0.08491 0.0
C846 C 0.80749 0.05185 0.11653 0.0
C847 C 0.8232 0.07048 0.13175 0.0
C848 C 0.82361 0.09802 0.12425 0.0
C849 C 0.80952 0.10651 0.10118 0.0
C850 C 0.88614 0.05512 0.17154 0.0
C851 C 0.8766 0.03729 0.19153 0.0
C852 C 0.86857 0.06677 0.15292 0.0
C853 C 0.84112 0.0605 0.15354 0.0
C854 C 0.83146 0.04293 0.17368 0.0
C855 C 0.84899 0.03168 0.19269 0.0
H856 H 0.64009 0.06409 0.84777 0.0
H857 H 0.71474 0.02511 0.82859 0.0
H858 H 0.66061 0.08479 0.88845 0.0
H859 H 0.73529 0.04597 0.86909 0.0
H860 H 0.75234 0.06583 0.96017 0.0
H861 H 0.73291 0.04436 0.91937 0.0
H862 H 0.69522 0.12012 0.89893 0.0
H863 H 0.71446 0.14153 0.93983 0.0
C864 C 0.66082 0.05982 0.85233 0.0
C865 C 0.67581 0.04302 0.83499 0.0
C866 C 0.67264 0.07185 0.87548 0.0
C867 C 0.69963 0.06717 0.88185 0.0
C868 C 0.71442 0.04983 0.86482 0.0
C869 C 0.70266 0.03795 0.84159 0.0
C870 C 0.74011 0.07796 0.94683 0.0
C871 C 0.73486 0.10534 0.95323 0.0
C872 C 0.72902 0.06567 0.92344 0.0
C873 C 0.71234 0.08048 0.90607 0.0
C874 C 0.70764 0.10806 0.91216 0.0
C875 C 0.71885 0.12038 0.93545 0.0
H876 H 0.62558 0.76384 0.90662 0.0
H877 H 0.56304 0.7187 0.94692 0.0
H878 H 0.65892 0.74298 0.93586 0.0
H879 H 0.59664 0.69751 0.9761 0.0
H880 H 0.67119 0.63835 0.98397 0.0
H881 H 0.63389 0.66361 0.96483 0.0
H882 H 0.67432 0.73936 0.98524 0.0
H883 H 0.71158 0.71412 1.00465 0.0
C884 C 0.61891 0.74975 0.92201 0.0
C885 C 0.59167 0.74285 0.92437 0.0
C886 C 0.63802 0.7379 0.93887 0.0
C887 C 0.63041 0.71853 0.95822 0.0
C888 C 0.60308 0.71228 0.96126 0.0
C889 C 0.58386 0.72454 0.94469 0.0
C890 C 0.67191 0.6604 0.98483 0.0
C891 C 0.69441 0.67423 0.99568 0.0
C892 C 0.65047 0.67486 0.97399 0.0
C893 C 0.65124 0.70347 0.97341 0.0
C894 C 0.67327 0.71732 0.98525 0.0
C895 C 0.69453 0.70286 0.99647 0.0
H896 H 0.06347 0.07167 0.77666 0.0
H897 H 0.13204 0.09215 0.82712 0.0
H898 H 0.0408 0.11224 0.79322 0.0
H899 H 0.10915 0.13292 0.84382 0.0
H900 H 0.04746 0.1892 0.88593 0.0
H901 H 0.06752 0.14584 0.87196 0.0
H902 H 0.04841 0.16259 0.78804 0.0
H903 H 0.02864 0.20563 0.80183 0.0
C904 C 0.07374 0.08488 0.79126 0.0
C905 C 0.09962 0.07882 0.80047 0.0
C906 C 0.06073 0.1081 0.80074 0.0
C907 C 0.07316 0.12567 0.81988 0.0
C908 C 0.09898 0.11955 0.8293 0.0
C909 C 0.11217 0.0964 0.81955 0.0
C910 C 0.04714 0.18332 0.86459 0.0
C911 C 0.03651 0.2008 0.84497 0.0
C912 C 0.05886 0.1587 0.85658 0.0
C913 C 0.05965 0.15096 0.8289 0.0
C914 C 0.04798 0.16793 0.80951 0.0
C915 C 0.03671 0.19262 0.81742 0.0
H916 H 0.95448 0.26873 0.46451 0.0
H917 H 0.93084 0.30574 0.38892 0.0
H918 H 0.91405 0.28654 0.4863 0.0
H919 H 0.8909 0.32325 0.4105 0.0
H920 H 0.82195 0.30577 0.50292 0.0
H921 H 0.86221 0.28408 0.48464 0.0
H922 H 0.88438 0.35936 0.44597 0.0
H923 H 0.84461 0.38083 0.46395 0.0
C924 C 0.94055 0.28033 0.45248 0.0
C925 C 0.94603 0.28602 0.42504 0.0
C926 C 0.91741 0.29048 0.46494 0.0
C927 C 0.89951 0.30666 0.45022 0.0
C928 C 0.90455 0.31132 0.42255 0.0
C929 C 0.92743 0.30112 0.41014 0.0
C930 C 0.83561 0.31771 0.49075 0.0
C931 C 0.82993 0.34497 0.48472 0.0
C932 C 0.85866 0.3053 0.48035 0.0
C933 C 0.87625 0.3199 0.46352 0.0
C934 C 0.87097 0.34739 0.45841 0.0
C935 C 0.84819 0.35976 0.46888 0.0
H936 H 0.66092 0.91121 0.81953 0.0
H937 H 0.59101 0.96147 0.81245 0.0
H938 H 0.63337 0.87415 0.83687 0.0
H939 H 0.56338 0.92417 0.83052 0.0
H940 H 0.53629 0.85842 0.8966 0.0
H941 H 0.56176 0.89692 0.8781 0.0
H942 H 0.59415 0.84394 0.81609 0.0
H943 H 0.56835 0.80569 0.83407 0.0
C944 C 0.63966 0.91442 0.82178 0.0
C945 C 0.62816 0.93936 0.81461 0.0
C946 C 0.62388 0.8931 0.83161 0.0
C947 C 0.59627 0.89629 0.83504 0.0
C948 C 0.58467 0.92125 0.82816 0.0
C949 C 0.60043 0.9425 0.8177 0.0
C950 C 0.54886 0.85503 0.87902 0.0
C951 C 0.5504 0.82901 0.86685 0.0
C952 C 0.56324 0.87709 0.86834 0.0
C953 C 0.57987 0.87339 0.84565 0.0
C954 C 0.58153 0.84734 0.83363 0.0
C955 C 0.56676 0.82546 0.84393 0.0
H956 H 0.9707 0.19107 0.3822 0.0
H957 H 1.00655 0.19855 0.30268 0.0
H958 H 0.95252 0.14605 0.36861 0.0
H959 H 0.98871 0.15424 0.2896 0.0
H960 H 0.98869 0.06365 0.28777 0.0
H961 H 1.00159 0.10732 0.30776 0.0
H962 H 0.91981 0.12177 0.33065 0.0
H963 H 0.90654 0.07747 0.31037 0.0
C964 C 0.97446 0.18338 0.36182 0.0
C965 C 0.99048 0.19839 0.34373 0.0
C966 C 0.96402 0.15764 0.35408 0.0
C967 C 0.96964 0.14647 0.32823 0.0
C968 C 0.98451 0.16207 0.30985 0.0
C969 C 0.9947 0.1876 0.31742 0.0
C970 C 0.97336 0.07585 0.29729 0.0
C971 C 0.94646 0.06719 0.29698 0.0
C972 C 0.98081 0.10095 0.30874 0.0
C973 C 0.96164 0.11818 0.32028 0.0
C974 C 0.93498 0.10889 0.32181 0.0
C975 C 0.92742 0.08355 0.31021 0.0
H976 H 0.64766 0.0919 0.72123 0.0
H977 H 0.57362 0.04656 0.72851 0.0
H978 H 0.6234 0.13006 0.70221 0.0
H979 H 0.54933 0.08471 0.7092 0.0
H980 H 0.51425 0.17116 0.7136 0.0
H981 H 0.53822 0.13041 0.72591 0.0
H982 H 0.59649 0.14663 0.66352 0.0
H983 H 0.57248 0.18789 0.65118 0.0
C984 C 0.62624 0.08988 0.71836 0.0
C985 C 0.61257 0.0662 0.72657 0.0
C986 C 0.61233 0.11177 0.70731 0.0
C987 C 0.58436 0.11061 0.70437 0.0
C988 C 0.57083 0.08646 0.71155 0.0
C989 C 0.58477 0.0645 0.72244 0.0
C990 C 0.53213 0.16614 0.70237 0.0
C991 C 0.54143 0.18303 0.68142 0.0
C992 C 0.54577 0.14252 0.70931 0.0
C993 C 0.56924 0.13509 0.69565 0.0
C994 C 0.57855 0.15183 0.67457 0.0
C995 C 0.56473 0.17544 0.66743 0.0
H996 H 0.17019 0.3972 0.97945 0.0
H997 H 0.2196 0.32779 0.9618 0.0
H998 H 0.13089 0.37214 0.96282 0.0
H999 H 0.18 0.30271 0.94446 0.0
H1000 H 0.11095 0.29533 0.87688 0.0
H1001 H 0.15025 0.31192 0.90192 0.0
H1002 H 0.10107 0.32943 0.97174 0.0
H1003 H 0.06148 0.31216 0.94669 0.0
C1004 C 0.1726 0.37643 0.97223 0.0
C1005 C 0.19806 0.36454 0.97174 0.0
C1006 C 0.15001 0.36201 0.96291 0.0
C1007 C 0.15231 0.33546 0.95232 0.0
C1008 C 0.17764 0.32318 0.9525 0.0
C1009 C 0.20027 0.33747 0.96246 0.0
C1010 C 0.10851 0.30238 0.89772 0.0
C1011 C 0.08304 0.30265 0.90974 0.0
C1012 C 0.13111 0.31167 0.91213 0.0
C1013 C 0.12879 0.32198 0.93879 0.0
C1014 C 0.10344 0.3216 0.95118 0.0
C1015 C 0.08082 0.31169 0.9369 0.0
H1016 H 0.46113 0.72604 0.46435 0.0
H1017 H 0.42627 0.71939 0.38383 0.0
H1018 H 0.42143 0.70317 0.48315 0.0
H1019 H 0.38706 0.6969 0.40244 0.0
H1020 H 0.33891 0.62731 0.43927 0.0
H1021 H 0.37755 0.65235 0.42294 0.0
H1022 H 0.37064 0.70976 0.48979 0.0
H1023 H 0.33146 0.68434 0.50648 0.0
C1024 C 0.44511 0.71963 0.45068 0.0
C1025 C 0.44701 0.72438 0.42255 0.0
C1026 C 0.42227 0.70679 0.46147 0.0
C1027 C 0.40106 0.69814 0.4443 0.0
C1028 C 0.40309 0.703 0.41624 0.0
C1029 C 0.42564 0.71596 0.40556 0.0
C1030 C 0.34542 0.64534 0.45055 0.0
C1031 C 0.33193 0.65378 0.47423 0.0
C1032 C 0.36761 0.65979 0.44106 0.0
C1033 C 0.37727 0.68309 0.45501 0.0
C1034 C 0.36382 0.69176 0.47869 0.0
C1035 C 0.34122 0.67738 0.48808 0.0
H1036 H 0.81637 0.55766 0.81262 0.0
H1037 H 0.88634 0.53808 0.86007 0.0
H1038 H 0.797 0.58021 0.85253 0.0
H1039 H 0.86677 0.56029 0.90003 0.0
H1040 H 0.80376 0.57033 0.9702 0.0
H1041 H 0.82576 0.55039 0.93031 0.0
H1042 H 0.80687 0.62168 0.8839 0.0
H1043 H 0.78524 0.64177 0.92377 0.0
C1044 C 0.82767 0.55833 0.83151 0.0
C1045 C 0.85287 0.54611 0.83319 0.0
C1046 C 0.81662 0.57129 0.85433 0.0
C1047 C 0.83033 0.57189 0.87943 0.0
C1048 C 0.85566 0.55993 0.88102 0.0
C1049 C 0.86692 0.54739 0.85809 0.0
C1050 C 0.80446 0.58179 0.95153 0.0
C1051 C 0.79275 0.6076 0.95013 0.0
C1052 C 0.81714 0.57044 0.92875 0.0
C1053 C 0.81796 0.58446 0.90397 0.0
C1054 C 0.80637 0.61032 0.90264 0.0
C1055 C 0.79411 0.62186 0.92553 0.0
H1056 H 0.68292 0.52238 0.2029 0.0
H1057 H 0.6403 0.59808 0.19886 0.0
H1058 H 0.70985 0.53575 0.16416 0.0
H1059 H 0.66828 0.61242 0.16118 0.0
H1060 H 0.6999 0.61712 0.07444 0.0
H1061 H 0.67497 0.60586 0.11531 0.0
H1062 H 0.74315 0.56197 0.1458 0.0
H1063 H 0.7672 0.57186 0.10417 0.0
C1064 C 0.6798 0.54223 0.19416 0.0
C1065 C 0.6594 0.5591 0.20392 0.0
C1066 C 0.69534 0.55004 0.17188 0.0
C1067 C 0.69131 0.57521 0.15907 0.0
C1068 C 0.67165 0.59258 0.1698 0.0
C1069 C 0.65574 0.58451 0.19169 0.0
C1070 C 0.70952 0.60511 0.08994 0.0
C1071 C 0.73544 0.59521 0.08593 0.0
C1072 C 0.6953 0.59877 0.11359 0.0
C1073 C 0.70685 0.58284 0.13418 0.0
C1074 C 0.73315 0.57366 0.13033 0.0
C1075 C 0.7471 0.5795 0.10645 0.0
H1076 H 0.71177 0.36524 0.42542 0.0
H1077 H 0.73855 0.44568 0.45057 0.0
H1078 H 0.68963 0.38478 0.38542 0.0
H1079 H 0.71727 0.46487 0.41033 0.0
H1080 H 0.70528 0.47846 0.31665 0.0
H1081 H 0.72629 0.4554 0.35502 0.0
H1082 H 0.64927 0.42461 0.37989 0.0
H1083 H 0.628 0.44838 0.34197 0.0
C1084 C 0.71292 0.38702 0.4224 0.0
C1085 C 0.72683 0.40394 0.44114 0.0
C1086 C 0.70027 0.39816 0.39959 0.0
C1087 C 0.70195 0.42627 0.39478 0.0
C1088 C 0.71585 0.44311 0.4135 0.0
C1089 C 0.72789 0.43212 0.43658 0.0
C1090 C 0.69285 0.46652 0.33009 0.0
C1091 C 0.66498 0.46528 0.32633 0.0
C1092 C 0.70487 0.45344 0.35208 0.0
C1093 C 0.68936 0.4383 0.37036 0.0
C1094 C 0.66165 0.43608 0.36599 0.0
C1095 C 0.64952 0.44972 0.34436 0.0
H1096 H 0.87069 0.45945 0.69536 0.0
H1097 H 0.79106 0.49185 0.70303 0.0
H1098 H 0.85776 0.4383 0.65137 0.0
H1099 H 0.77857 0.47108 0.65971 0.0
H1100 H 0.77767 0.4693 0.56864 0.0
H1101 H 0.79594 0.48407 0.61226 0.0
H1102 H 0.82174 0.40231 0.62821 0.0
H1103 H 0.80311 0.38708 0.5839 0.0
C1104 C 0.85041 0.46175 0.68797 0.0
C1105 C 0.83208 0.47779 0.70262 0.0
C1106 C 0.84304 0.44962 0.66282 0.0
C1107 C 0.81731 0.45348 0.65192 0.0
C1108 C 0.7987 0.46819 0.66733 0.0
C1109 C 0.80593 0.4801 0.69226 0.0
C1110 C 0.78737 0.45432 0.58118 0.0
C1111 C 0.78843 0.42683 0.57285 0.0
C1112 C 0.79784 0.46286 0.60627 0.0
C1113 C 0.8098 0.44426 0.62387 0.0
C1114 C 0.81252 0.41706 0.61504 0.0
C1115 C 0.80186 0.40837 0.58971 0.0
H1116 H 0.43383 0.05466 0.22514 0.0
H1117 H 0.37696 0.11498 0.2515 0.0
H1118 H 0.46317 0.09117 0.20825 0.0
H1119 H 0.40618 0.15094 0.235 0.0
H1120 H 0.47721 0.20751 0.2362 0.0
H1121 H 0.4538 0.16693 0.251 0.0
H1122 H 0.46008 0.13173 0.17037 0.0
H1123 H 0.4836 0.173 0.15501 0.0
C1124 C 0.42761 0.07561 0.2274 0.0
C1125 C 0.40307 0.08188 0.23979 0.0
C1126 C 0.44432 0.09642 0.21757 0.0
C1127 C 0.43696 0.12382 0.22047 0.0
C1128 C 0.41244 0.12999 0.23272 0.0
C1129 C 0.39567 0.10933 0.2421 0.0
C1130 C 0.47395 0.19114 0.2215 0.0
C1131 C 0.48193 0.19384 0.1942 0.0
C1132 C 0.46049 0.16785 0.23008 0.0
C1133 C 0.45478 0.14641 0.21175 0.0
C1134 C 0.46425 0.14806 0.18489 0.0
C1135 C 0.47768 0.17166 0.17613 0.0
H1136 H 0.06908 0.83604 0.63977 0.0
H1137 H 0.01902 0.81915 0.70904 0.0
H1138 H 0.08441 0.87849 0.66175 0.0
H1139 H 0.03414 0.86176 0.73082 0.0
H1140 H 0.04256 0.9566 0.73867 0.0
H1141 H 0.02896 0.91248 0.7196 0.0
H1142 H 0.11163 0.89285 0.70537 0.0
H1143 H 0.12544 0.93715 0.72486 0.0
C1144 C 0.06124 0.84149 0.65961 0.0
C1145 C 0.04278 0.82438 0.67267 0.0
C1146 C 0.07021 0.86561 0.67226 0.0
C1147 C 0.06056 0.87327 0.69802 0.0
C1148 C 0.04185 0.85632 0.71093 0.0
C1149 C 0.0332 0.83199 0.69847 0.0
C1150 C 0.0579 0.94283 0.73167 0.0
C1151 C 0.08508 0.95038 0.73316 0.0
C1152 C 0.05008 0.91753 0.72088 0.0
C1153 C 0.06924 0.89936 0.71093 0.0
C1154 C 0.09648 0.90664 0.71275 0.0
C1155 C 0.10436 0.93185 0.72404 0.0
H1156 H 0.46187 0.84511 0.39668 0.0
H1157 H 0.50062 0.82131 0.32183 0.0
H1158 H 0.4414 0.88334 0.37353 0.0
H1159 H 0.47999 0.8595 0.29862 0.0
H1160 H 0.45393 0.94719 0.27455 0.0
H1161 H 0.47824 0.91056 0.29685 0.0
H1162 H 0.40598 0.88629 0.3381 0.0
H1163 H 0.38183 0.92267 0.31606 0.0
C1164 C 0.46629 0.84824 0.37538 0.0
C1165 C 0.48269 0.83009 0.36104 0.0
C1166 C 0.4544 0.87001 0.36206 0.0
C1167 C 0.45878 0.8742 0.33414 0.0
C1168 C 0.47626 0.85683 0.32013 0.0
C1169 C 0.48802 0.83493 0.33342 0.0
C1170 C 0.44321 0.93381 0.28813 0.0
C1171 C 0.41597 0.93788 0.29356 0.0
C1172 C 0.45713 0.91288 0.30092 0.0
C1173 C 0.44411 0.8958 0.31955 0.0
C1174 C 0.41671 0.89945 0.3243 0.0
C1175 C 0.40281 0.92016 0.31143 0.0
H1176 H 0.81395 0.69164 0.05066 0.0
H1177 H 0.87059 0.6279 0.03376 0.0
H1178 H 0.84951 0.71899 0.07217 0.0
H1179 H 0.90585 0.65502 0.05555 0.0
H1180 H 0.96873 0.71718 0.08191 0.0
H1181 H 0.93368 0.69634 0.0533 0.0
H1182 H 0.87504 0.71573 0.11454 0.0
H1183 H 0.90973 0.73679 0.14284 0.0
C1184 C 0.83398 0.68354 0.05126 0.0
C1185 C 0.83927 0.65741 0.04068 0.0
C1186 C 0.85435 0.69918 0.06373 0.0
C1187 C 0.88052 0.68914 0.06576 0.0
C1188 C 0.88602 0.66352 0.05414 0.0
C1189 C 0.86568 0.64785 0.04181 0.0
C1190 C 0.94831 0.7173 0.08911 0.0
C1191 C 0.94216 0.72849 0.11482 0.0
C1192 C 0.92824 0.70522 0.07277 0.0
C1193 C 0.90154 0.70426 0.08166 0.0
C1194 C 0.8953 0.71636 0.10689 0.0
C1195 C 0.91531 0.72825 0.12325 0.0
H1196 H 0.59876 0.29995 0.64046 0.0
H1197 H 0.57864 0.25625 0.56601 0.0
H1198 H 0.63534 0.32301 0.61741 0.0
H1199 H 0.6159 0.2793 0.54297 0.0
H1200 H 0.7039 0.31626 0.52436 0.0
H1201 H 0.67056 0.28688 0.54658 0.0
H1202 H 0.63057 0.35813 0.57747 0.0
H1203 H 0.66313 0.38728 0.55519 0.0
C1204 C 0.60242 0.29483 0.6193 0.0
C1205 C 0.58558 0.2764 0.60503 0.0
C1206 C 0.62337 0.30814 0.6061 0.0
C1207 C 0.62828 0.30312 0.57837 0.0
C1208 C 0.61255 0.28348 0.5644 0.0
C1209 C 0.59124 0.27034 0.57757 0.0
C1210 C 0.68792 0.32559 0.53583 0.0
C1211 C 0.68621 0.35415 0.53796 0.0
C1212 C 0.66884 0.30879 0.54842 0.0
C1213 C 0.64813 0.32027 0.56387 0.0
C1214 C 0.64646 0.34873 0.5659 0.0
C1215 C 0.66508 0.36543 0.55297 0.0
H1216 H 0.25292 0.39139 0.09194 0.0
H1217 H 0.22891 0.47005 0.06249 0.0
H1218 H 0.236 0.40356 0.13712 0.0
H1219 H 0.21253 0.4821 0.1073 0.0
H1220 H 0.16163 0.48648 0.18287 0.0
H1221 H 0.17641 0.47049 0.13823 0.0
H1222 H 0.2461 0.43497 0.17522 0.0
H1223 H 0.23122 0.45041 0.21978 0.0
C1224 C 0.24422 0.41126 0.09506 0.0
C1225 C 0.24229 0.42965 0.07346 0.0
C1226 C 0.23454 0.41825 0.12095 0.0
C1227 C 0.22266 0.44372 0.12574 0.0
C1228 C 0.22103 0.46212 0.10421 0.0
C1229 C 0.2307 0.45522 0.07849 0.0
C1230 C 0.17999 0.4751 0.18154 0.0
C1231 C 0.19528 0.46995 0.20498 0.0
C1232 C 0.18855 0.46604 0.15592 0.0
C1233 C 0.21255 0.45158 0.15314 0.0
C1234 C 0.22742 0.44581 0.17664 0.0
C1235 C 0.21893 0.4549 0.20221 0.0
H1236 H 0.40163 0.45229 0.84349 0.0
H1237 H 0.33037 0.49647 0.82267 0.0
H1238 H 0.37821 0.43127 0.88127 0.0
H1239 H 0.30681 0.47518 0.86049 0.0
H1240 H 0.2853 0.45158 0.94956 0.0
H1241 H 0.30641 0.47373 0.9109 0.0
H1242 H 0.34192 0.39738 0.88705 0.0
H1243 H 0.321 0.37527 0.92588 0.0
C1244 C 0.38102 0.45772 0.84711 0.0
C1245 C 0.36786 0.47606 0.83004 0.0
C1246 C 0.36751 0.44543 0.86861 0.0
C1247 C 0.34053 0.45126 0.87367 0.0
C1248 C 0.3276 0.4703 0.85716 0.0
C1249 C 0.3411 0.48251 0.83551 0.0
C1250 C 0.29736 0.43945 0.93588 0.0
C1251 C 0.3016 0.41169 0.94085 0.0
C1252 C 0.30941 0.45214 0.91369 0.0
C1253 C 0.3261 0.4374 0.89608 0.0
C1254 C 0.32956 0.40941 0.90053 0.0
C1255 C 0.31738 0.39668 0.92263 0.0
H1256 H 0.30976 0.62606 0.59244 0.0
H1257 H 0.28193 0.54373 0.57693 0.0
H1258 H 0.33344 0.61077 0.63329 0.0
H1259 H 0.30504 0.52865 0.61789 0.0
H1260 H 0.33893 0.51531 0.70434 0.0
H1261 H 0.30817 0.5355 0.6713 0.0
H1262 H 0.37447 0.5776 0.63413 0.0
H1263 H 0.40515 0.55716 0.66653 0.0
C1264 C 0.30805 0.60491 0.59821 0.0
C1265 C 0.29418 0.58604 0.58146 0.0
C1266 C 0.32169 0.59614 0.62144 0.0
C1267 C 0.32113 0.56851 0.62862 0.0
C1268 C 0.30567 0.55007 0.61293 0.0
C1269 C 0.29255 0.55869 0.58944 0.0
C1270 C 0.34685 0.52903 0.68922 0.0
C1271 C 0.37448 0.53444 0.68785 0.0
C1272 C 0.32928 0.54056 0.67038 0.0
C1273 C 0.33896 0.55824 0.65033 0.0
C1274 C 0.36643 0.56432 0.64958 0.0
C1275 C 0.38401 0.55237 0.66796 0.0
H1276 H 0.14027 0.56513 0.34283 0.0
H1277 H 0.21506 0.52569 0.32526 0.0
H1278 H 0.16003 0.58565 0.38396 0.0
H1279 H 0.23488 0.5464 0.36621 0.0
H1280 H 0.25001 0.56546 0.45764 0.0
H1281 H 0.23128 0.54445 0.41631 0.0
H1282 H 0.19454 0.62064 0.39566 0.0
H1283 H 0.21308 0.6416 0.43714 0.0
C1284 C 0.16088 0.56075 0.34782 0.0
C1285 C 0.17612 0.54383 0.33083 0.0
C1286 C 0.17226 0.57268 0.37124 0.0
C1287 C 0.19907 0.56779 0.37821 0.0
C1288 C 0.21413 0.55042 0.36148 0.0
C1289 C 0.2028 0.53862 0.33799 0.0
C1290 C 0.23812 0.57778 0.44416 0.0
C1291 C 0.23295 0.60516 0.45064 0.0
C1292 C 0.22745 0.56576 0.42046 0.0
C1293 C 0.21127 0.58083 0.40284 0.0
C1294 C 0.20659 0.60839 0.40906 0.0
C1295 C 0.21739 0.62045 0.43269 0.0
loop_
_geom_bond_atom_site_label_1
_geom_bond_atom_site_label_2
_geom_bond_distance
_geom_bond_site_symmetry_2
_ccdc_geom_bond_type
Co0 O1 2.216 1_455 S
Co0 O2 2.091 1_455 S
Co0 O4 2.004 . S
Co0 O10 2.021 1_455 S
Co0 O12 2.137 . S
Co0 O13 2.244 . S
O1 Co0 2.216 1_655 S
O1 C8 1.247 . S
O2 Co0 2.091 1_655 S
O2 C8 1.261 . S
C3 O12 1.247 . S
C3 O13 1.272 . S
O4 Co0 2.004 . S
O4 C9 1.259 . S
Co5 O6 2.061 . S
Co5 O11 2.052 . S
Co5 O13 2.135 . S
O6 Co5 2.061 . S
O6 C9 1.235 . S
C7 O10 1.238 . S
C7 O11 1.241 1_655 S
C8 O1 1.247 . S
C8 O2 1.261 . S
C9 O4 1.259 . S
C9 O6 1.235 . S
O10 Co0 2.021 1_655 S
O10 C7 1.238 . S
O11 Co5 2.052 . S
O11 C7 1.241 1_455 S
O12 Co0 2.137 . S
O12 C3 1.247 . S
O13 Co0 2.244 . S
O13 C3 1.272 . S
O13 Co5 2.135 . S
Co14 O15 2.216 . S
Co14 O16 2.091 . S
Co14 O18 2.004 1_455 S
Co14 O24 2.021 1_455 S
Co14 O26 2.137 . S
Co14 O27 2.244 . S
O15 Co14 2.216 . S
O15 C22 1.247 . S
O16 Co14 2.091 . S
O16 C22 1.261 . S
C17 O26 1.247 . S
C17 O27 1.272 . S
O18 Co14 2.004 1_655 S
O18 C23 1.259 . S
Co19 O20 2.061 . S
Co19 O25 2.052 . S
Co19 O27 2.135 1_655 S
O20 Co19 2.061 . S
O20 C23 1.235 . S
C21 O24 1.238 . S
C21 O25 1.241 . S
C22 O15 1.247 . S
C22 O16 1.261 . S
C23 O18 1.259 . S
C23 O20 1.235 . S
O24 Co14 2.021 1_655 S
O24 C21 1.238 . S
O25 Co19 2.052 . S
O25 C21 1.241 . S
O26 Co14 2.137 . S
O26 C17 1.247 . S
O27 Co14 2.244 . S
O27 C17 1.272 . S
O27 Co19 2.135 1_455 S
Co28 O29 2.216 . S
Co28 O30 2.091 . S
Co28 O32 2.004 . S
Co28 O38 2.021 . S
Co28 O40 2.137 . S
Co28 O41 2.244 . S
O29 Co28 2.216 . S
O29 C36 1.247 . S
O30 Co28 2.091 . S
O30 C36 1.261 . S
C31 O40 1.247 . S
C31 O41 1.272 . S
O32 Co28 2.004 . S
O32 C37 1.259 . S
Co33 O34 2.061 . S
Co33 O39 2.052 . S
Co33 O41 2.135 . S
O34 Co33 2.061 . S
O34 C37 1.235 . S
C35 O38 1.238 . S
C35 O39 1.241 . S
C36 O29 1.247 . S
C36 O30 1.261 . S
C37 O32 1.259 . S
C37 O34 1.235 . S
O38 Co28 2.021 . S
O38 C35 1.238 . S
O39 Co33 2.052 . S
O39 C35 1.241 . S
O40 Co28 2.137 . S
O40 C31 1.247 . S
O41 Co28 2.244 . S
O41 C31 1.272 . S
O41 Co33 2.135 . S
Co42 O43 2.216 . S
Co42 O44 2.091 . S
Co42 O46 2.004 . S
Co42 O52 2.021 . S
Co42 O54 2.137 . S
Co42 O55 2.244 . S
O43 Co42 2.216 . S
O43 C50 1.247 . S
O44 Co42 2.091 . S
O44 C50 1.261 . S
C45 O54 1.247 . S
C45 O55 1.272 . S
O46 Co42 2.004 . S
O46 C51 1.259 . S
Co47 O48 2.061 . S
Co47 O53 2.052 . S
Co47 O55 2.135 . S
O48 Co47 2.061 . S
O48 C51 1.235 . S
C49 O52 1.238 . S
C49 O53 1.241 . S
C50 O43 1.247 . S
C50 O44 1.261 . S
C51 O46 1.259 . S
C51 O48 1.235 . S
O52 Co42 2.021 . S
O52 C49 1.238 . S
O53 Co47 2.052 . S
O53 C49 1.241 . S
O54 Co42 2.137 . S
O54 C45 1.247 . S
O55 Co42 2.244 . S
O55 C45 1.272 . S
O55 Co47 2.135 . S
Co56 O57 2.216 . S
Co56 O58 2.091 . S
Co56 O60 2.004 1_455 S
Co56 O66 2.021 . S
Co56 O68 2.137 1_455 S
Co56 O69 2.244 1_455 S
O57 Co56 2.216 . S
O57 C64 1.247 . S
O58 Co56 2.091 . S
O58 C64 1.261 . S
C59 O68 1.247 . S
C59 O69 1.272 . S
O60 Co56 2.004 1_655 S
O60 C65 1.259 . S
Co61 O62 2.061 . S
Co61 O67 2.052 1_655 S
Co61 O69 2.135 . S
O62 Co61 2.061 . S
O62 C65 1.235 . S
C63 O66 1.238 . S
C63 O67 1.241 . S
C64 O57 1.247 . S
C64 O58 1.261 . S
C65 O60 1.259 . S
C65 O62 1.235 . S
O66 Co56 2.021 . S
O66 C63 1.238 . S
O67 Co61 2.052 1_455 S
O67 C63 1.241 . S
O68 Co56 2.137 1_655 S
O68 C59 1.247 . S
O69 Co56 2.244 1_655 S
O69 C59 1.272 . S
O69 Co61 2.135 . S
Co70 O71 2.216 . S
Co70 O72 2.091 . S
Co70 O74 2.004 . S
Co70 O80 2.021 . S
Co70 O82 2.137 . S
Co70 O83 2.244 . S
O71 Co70 2.216 . S
O71 C78 1.247 . S
O72 Co70 2.091 . S
O72 C78 1.261 . S
C73 O82 1.247 . S
C73 O83 1.272 . S
O74 Co70 2.004 . S
O74 C79 1.259 . S
Co75 O76 2.061 . S
Co75 O81 2.052 . S
Co75 O83 2.135 . S
O76 Co75 2.061 . S
O76 C79 1.235 . S
C77 O80 1.238 . S
C77 O81 1.241 . S
C78 O71 1.247 . S
C78 O72 1.261 . S
C79 O74 1.259 . S
C79 O76 1.235 . S
O80 Co70 2.021 . S
O80 C77 1.238 . S
O81 Co75 2.052 . S
O81 C77 1.241 . S
O82 Co70 2.137 . S
O82 C73 1.247 . S
O83 Co70 2.244 . S
O83 C73 1.272 . S
O83 Co75 2.135 . S
Co84 O85 2.216 . S
Co84 O86 2.091 . S
Co84 O88 2.004 . S
Co84 O94 2.021 . S
Co84 O96 2.137 . S
Co84 O97 2.244 . S
O85 Co84 2.216 . S
O85 C92 1.247 . S
O86 Co84 2.091 . S
O86 C92 1.261 . S
C87 O96 1.247 . S
C87 O97 1.272 . S
O88 Co84 2.004 . S
O88 C93 1.259 . S
Co89 O90 2.061 . S
Co89 O95 2.052 . S
Co89 O97 2.135 . S
O90 Co89 2.061 . S
O90 C93 1.235 . S
C91 O94 1.238 . S
C91 O95 1.241 . S
C92 O85 1.247 . S
C92 O86 1.261 . S
C93 O88 1.259 . S
C93 O90 1.235 . S
O94 Co84 2.021 . S
O94 C91 1.238 . S
O95 Co89 2.052 . S
O95 C91 1.241 . S
O96 Co84 2.137 . S
O96 C87 1.247 . S
O97 Co84 2.244 . S
O97 C87 1.272 . S
O97 Co89 2.135 . S
Co98 O99 2.216 . S
Co98 O100 2.091 . S
Co98 O102 2.004 1_655 S
Co98 O108 2.021 1_655 S
Co98 O110 2.137 . S
Co98 O111 2.244 1_655 S
O99 Co98 2.216 . S
O99 C106 1.247 . S
O100 Co98 2.091 . S
O100 C106 1.261 . S
C101 O110 1.247 . S
C101 O111 1.272 1_655 S
O102 Co98 2.004 1_455 S
O102 C107 1.259 . S
Co103 O104 2.061 . S
Co103 O109 2.052 . S
Co103 O111 2.135 . S
O104 Co103 2.061 . S
O104 C107 1.235 . S
C105 O108 1.238 . S
C105 O109 1.241 . S
C106 O99 1.247 . S
C106 O100 1.261 . S
C107 O102 1.259 . S
C107 O104 1.235 . S
O108 Co98 2.021 1_455 S
O108 C105 1.238 . S
O109 Co103 2.052 . S
O109 C105 1.241 . S
O110 Co98 2.137 . S
O110 C101 1.247 . S
O111 Co98 2.244 1_455 S
O111 C101 1.272 1_455 S
O111 Co103 2.135 . S
Co112 O113 2.216 . S
Co112 O114 2.091 . S
Co112 O116 2.004 1_565 S
Co112 O122 2.021 . S
Co112 O124 2.137 1_565 S
Co112 O125 2.244 1_565 S
O113 Co112 2.216 . S
O113 C120 1.247 . S
O114 Co112 2.091 . S
O114 C120 1.261 . S
C115 O124 1.247 . S
C115 O125 1.272 . S
O116 Co112 2.004 1_545 S
O116 C121 1.259 . S
Co117 O118 2.061 . S
Co117 O123 2.052 . S
Co117 O125 2.135 . S
O118 Co117 2.061 . S
O118 C121 1.235 . S
C119 O122 1.238 . S
C119 O123 1.241 1_565 S
C120 O113 1.247 . S
C120 O114 1.261 . S
C121 O116 1.259 . S
C121 O118 1.235 . S
O122 Co112 2.021 . S
O122 C119 1.238 . S
O123 Co117 2.052 . S
O123 C119 1.241 1_545 S
O124 Co112 2.137 1_545 S
O124 C115 1.247 . S
O125 Co112 2.244 1_545 S
O125 C115 1.272 . S
O125 Co117 2.135 . S
Co126 O127 2.216 . S
Co126 O128 2.091 . S
Co126 O130 2.004 . S
Co126 O136 2.021 . S
Co126 O138 2.137 . S
Co126 O139 2.244 . S
O127 Co126 2.216 . S
O127 C134 1.247 . S
O128 Co126 2.091 . S
O128 C134 1.261 . S
C129 O138 1.247 . S
C129 O139 1.272 . S
O130 Co126 2.004 . S
O130 C135 1.259 . S
Co131 O132 2.061 . S
Co131 O137 2.052 . S
Co131 O139 2.135 . S
O132 Co131 2.061 . S
O132 C135 1.235 . S
C133 O136 1.238 . S
C133 O137 1.241 . S
C134 O127 1.247 . S
C134 O128 1.261 . S
C135 O130 1.259 . S
C135 O132 1.235 . S
O136 Co126 2.021 . S
O136 C133 1.238 . S
O137 Co131 2.052 . S
O137 C133 1.241 . S
O138 Co126 2.137 . S
O138 C129 1.247 . S
O139 Co126 2.244 . S
O139 C129 1.272 . S
O139 Co131 2.135 . S
Co140 O141 2.216 1_545 S
Co140 O142 2.091 1_545 S
Co140 O144 2.004 . S
Co140 O150 2.021 1_545 S
Co140 O152 2.137 . S
Co140 O153 2.244 . S
O141 Co140 2.216 1_565 S
O141 C148 1.247 . S
O142 Co140 2.091 1_565 S
O142 C148 1.261 . S
C143 O152 1.247 . S
C143 O153 1.272 . S
O144 Co140 2.004 . S
O144 C149 1.259 . S
Co145 O146 2.061 . S
Co145 O151 2.052 1_545 S
Co145 O153 2.135 . S
O146 Co145 2.061 . S
O146 C149 1.235 . S
C147 O150 1.238 . S
C147 O151 1.241 . S
C148 O141 1.247 . S
C148 O142 1.261 . S
C149 O144 1.259 . S
C149 O146 1.235 . S
O150 Co140 2.021 1_565 S
O150 C147 1.238 . S
O151 Co145 2.052 1_565 S
O151 C147 1.241 . S
O152 Co140 2.137 . S
O152 C143 1.247 . S
O153 Co140 2.244 . S
O153 C143 1.272 . S
O153 Co145 2.135 . S
Co154 O155 2.216 1_554 S
Co154 O156 2.091 1_554 S
Co154 O158 2.004 . S
Co154 O164 2.021 . S
Co154 O166 2.137 1_554 S
Co154 O167 2.244 1_554 S
O155 Co154 2.216 1_556 S
O155 C162 1.247 . S
O156 Co154 2.091 1_556 S
O156 C162 1.261 . S
C157 O166 1.247 . S
C157 O167 1.272 . S
O158 Co154 2.004 . S
O158 C163 1.259 . S
Co159 O160 2.061 . S
Co159 O165 2.052 . S
Co159 O167 2.135 1_554 S
O160 Co159 2.061 . S
O160 C163 1.235 . S
C161 O164 1.238 . S
C161 O165 1.241 . S
C162 O155 1.247 . S
C162 O156 1.261 . S
C163 O158 1.259 . S
C163 O160 1.235 . S
O164 Co154 2.021 . S
O164 C161 1.238 . S
O165 Co159 2.052 . S
O165 C161 1.241 . S
O166 Co154 2.137 1_556 S
O166 C157 1.247 . S
O167 Co154 2.244 1_556 S
O167 C157 1.272 . S
O167 Co159 2.135 1_556 S
Co168 O169 2.216 . S
Co168 O170 2.091 . S
Co168 O172 2.004 1_554 S
Co168 O178 2.021 . S
Co168 O180 2.137 1_554 S
Co168 O181 2.244 1_554 S
O169 Co168 2.216 . S
O169 C176 1.247 . S
O170 Co168 2.091 . S
O170 C176 1.261 . S
C171 O180 1.247 . S
C171 O181 1.272 . S
O172 Co168 2.004 1_556 S
O172 C177 1.259 . S
Co173 O174 2.061 . S
Co173 O179 2.052 1_556 S
Co173 O181 2.135 . S
O174 Co173 2.061 . S
O174 C177 1.235 . S
C175 O178 1.238 . S
C175 O179 1.241 . S
C176 O169 1.247 . S
C176 O170 1.261 . S
C177 O172 1.259 . S
C177 O174 1.235 . S
O178 Co168 2.021 . S
O178 C175 1.238 . S
O179 Co173 2.052 1_554 S
O179 C175 1.241 . S
O180 Co168 2.137 1_556 S
O180 C171 1.247 . S
O181 Co168 2.244 1_556 S
O181 C171 1.272 . S
O181 Co173 2.135 . S
Co182 O183 2.216 . S
Co182 O184 2.091 . S
Co182 O186 2.004 1_554 S
Co182 O192 2.021 . S
Co182 O194 2.137 1_554 S
Co182 O195 2.244 1_554 S
O183 Co182 2.216 . S
O183 C190 1.247 . S
O184 Co182 2.091 . S
O184 C190 1.261 . S
C185 O194 1.247 . S
C185 O195 1.272 . S
O186 Co182 2.004 1_556 S
O186 C191 1.259 . S
Co187 O188 2.061 . S
Co187 O193 2.052 1_556 S
Co187 O195 2.135 . S
O188 Co187 2.061 . S
O188 C191 1.235 . S
C189 O192 1.238 . S
C189 O193 1.241 . S
C190 O183 1.247 . S
C190 O184 1.261 . S
C191 O186 1.259 . S
C191 O188 1.235 . S
O192 Co182 2.021 . S
O192 C189 1.238 . S
O193 Co187 2.052 1_554 S
O193 C189 1.241 . S
O194 Co182 2.137 1_556 S
O194 C185 1.247 . S
O195 Co182 2.244 1_556 S
O195 C185 1.272 . S
O195 Co187 2.135 . S
Co196 O197 2.216 . S
Co196 O198 2.091 . S
Co196 O200 2.004 . S
Co196 O206 2.021 . S
Co196 O208 2.137 . S
Co196 O209 2.244 . S
O197 Co196 2.216 . S
O197 C204 1.247 . S
O198 Co196 2.091 . S
O198 C204 1.261 . S
C199 O208 1.247 . S
C199 O209 1.272 . S
O200 Co196 2.004 . S
O200 C205 1.259 . S
Co201 O202 2.061 . S
Co201 O207 2.052 . S
Co201 O209 2.135 . S
O202 Co201 2.061 . S
O202 C205 1.235 . S
C203 O206 1.238 . S
C203 O207 1.241 . S
C204 O197 1.247 . S
C204 O198 1.261 . S
C205 O200 1.259 . S
C205 O202 1.235 . S
O206 Co196 2.021 . S
O206 C203 1.238 . S
O207 Co201 2.052 . S
O207 C203 1.241 . S
O208 Co196 2.137 . S
O208 C199 1.247 . S
O209 Co196 2.244 . S
O209 C199 1.272 . S
O209 Co201 2.135 . S
Co210 O211 2.216 . S
Co210 O212 2.091 . S
Co210 O214 2.004 . S
Co210 O220 2.021 . S
Co210 O222 2.137 . S
Co210 O223 2.244 . S
O211 Co210 2.216 . S
O211 C218 1.247 . S
O212 Co210 2.091 . S
O212 C218 1.261 . S
C213 O222 1.247 . S
C213 O223 1.272 . S
O214 Co210 2.004 . S
O214 C219 1.259 . S
Co215 O216 2.061 . S
Co215 O221 2.052 . S
Co215 O223 2.135 . S
O216 Co215 2.061 . S
O216 C219 1.235 . S
C217 O220 1.238 . S
C217 O221 1.241 . S
C218 O211 1.247 . S
C218 O212 1.261 . S
C219 O214 1.259 . S
C219 O216 1.235 . S
O220 Co210 2.021 . S
O220 C217 1.238 . S
O221 Co215 2.052 . S
O221 C217 1.241 . S
O222 Co210 2.137 . S
O222 C213 1.247 . S
O223 Co210 2.244 . S
O223 C213 1.272 . S
O223 Co215 2.135 . S
Co224 O225 2.216 . S
Co224 O226 2.091 . S
Co224 O228 2.004 1_565 S
Co224 O234 2.021 1_565 S
Co224 O236 2.137 . S
Co224 O237 2.244 . S
O225 Co224 2.216 . S
O225 C232 1.247 . S
O226 Co224 2.091 . S
O226 C232 1.261 . S
C227 O236 1.247 . S
C227 O237 1.272 . S
O228 Co224 2.004 1_545 S
O228 C233 1.259 . S
Co229 O230 2.061 . S
Co229 O235 2.052 . S
Co229 O237 2.135 1_545 S
O230 Co229 2.061 . S
O230 C233 1.235 . S
C231 O234 1.238 . S
C231 O235 1.241 . S
C232 O225 1.247 . S
C232 O226 1.261 . S
C233 O228 1.259 . S
C233 O230 1.235 . S
O234 Co224 2.021 1_545 S
O234 C231 1.238 . S
O235 Co229 2.052 . S
O235 C231 1.241 . S
O236 Co224 2.137 . S
O236 C227 1.247 . S
O237 Co224 2.244 . S
O237 C227 1.272 . S
O237 Co229 2.135 1_565 S
Co238 O239 2.216 . S
Co238 O240 2.091 . S
Co238 O242 2.004 . S
Co238 O248 2.021 . S
Co238 O250 2.137 . S
Co238 O251 2.244 . S
O239 Co238 2.216 . S
O239 C246 1.247 . S
O240 Co238 2.091 . S
O240 C246 1.261 . S
C241 O250 1.247 . S
C241 O251 1.272 . S
O242 Co238 2.004 . S
O242 C247 1.259 . S
Co243 O244 2.061 . S
Co243 O249 2.052 . S
Co243 O251 2.135 . S
O244 Co243 2.061 . S
O244 C247 1.235 . S
C245 O248 1.238 . S
C245 O249 1.241 . S
C246 O239 1.247 . S
C246 O240 1.261 . S
C247 O242 1.259 . S
C247 O244 1.235 . S
O248 Co238 2.021 . S
O248 C245 1.238 . S
O249 Co243 2.052 . S
O249 C245 1.241 . S
O250 Co238 2.137 . S
O250 C241 1.247 . S
O251 Co238 2.244 . S
O251 C241 1.272 . S
O251 Co243 2.135 . S
Co252 O253 2.216 . S
Co252 O254 2.091 . S
Co252 O256 2.004 . S
Co252 O262 2.021 . S
Co252 O264 2.137 . S
Co252 O265 2.244 . S
O253 Co252 2.216 . S
O253 C260 1.247 . S
O254 Co252 2.091 . S
O254 C260 1.261 . S
C255 O264 1.247 . S
C255 O265 1.272 . S
O256 Co252 2.004 . S
O256 C261 1.259 . S
Co257 O258 2.061 . S
Co257 O263 2.052 . S
Co257 O265 2.135 . S
O258 Co257 2.061 . S
O258 C261 1.235 . S
C259 O262 1.238 . S
C259 O263 1.241 . S
C260 O253 1.247 . S
C260 O254 1.261 . S
C261 O256 1.259 . S
C261 O258 1.235 . S
O262 Co252 2.021 . S
O262 C259 1.238 . S
O263 Co257 2.052 . S
O263 C259 1.241 . S
O264 Co252 2.137 . S
O264 C255 1.247 . S
O265 Co252 2.244 . S
O265 C255 1.272 . S
O265 Co257 2.135 . S
Co266 O267 2.216 . S
Co266 O268 2.091 . S
Co266 O270 2.004 1_545 S
Co266 O276 2.021 1_545 S
Co266 O278 2.137 . S
Co266 O279 2.244 . S
O267 Co266 2.216 . S
O267 C274 1.247 . S
O268 Co266 2.091 . S
O268 C274 1.261 . S
C269 O278 1.247 . S
C269 O279 1.272 . S
O270 Co266 2.004 1_565 S
O270 C275 1.259 . S
Co271 O272 2.061 . S
Co271 O277 2.052 . S
Co271 O279 2.135 1_565 S
O272 Co271 2.061 . S
O272 C275 1.235 . S
C273 O276 1.238 . S
C273 O277 1.241 . S
C274 O267 1.247 . S
C274 O268 1.261 . S
C275 O270 1.259 . S
C275 O272 1.235 . S
O276 Co266 2.021 1_565 S
O276 C273 1.238 . S
O277 Co271 2.052 . S
O277 C273 1.241 . S
O278 Co266 2.137 . S
O278 C269 1.247 . S
O279 Co266 2.244 . S
O279 C269 1.272 . S
O279 Co271 2.135 1_545 S
Co280 O281 2.226 . S
Co280 O282 2.096 . S
Co280 O284 1.995 1_556 S
Co280 O290 1.998 1_556 S
Co280 O292 2.161 . S
Co280 O293 2.250 . S
O281 Co280 2.226 . S
O281 C288 1.247 . S
O282 Co280 2.096 . S
O282 C288 1.261 . S
C283 O292 1.247 . S
C283 O293 1.272 . S
O284 Co280 1.995 1_554 S
O284 C289 1.259 . S
Co285 O286 2.061 . S
Co285 O291 2.052 . S
Co285 O293 2.135 1_554 S
O286 Co285 2.061 . S
O286 C289 1.235 . S
C287 O290 1.238 . S
C287 O291 1.241 . S
C288 O281 1.247 . S
C288 O282 1.261 . S
C289 O284 1.259 . S
C289 O286 1.235 . S
O290 Co280 1.998 1_554 S
O290 C287 1.238 . S
O291 Co285 2.052 . S
O291 C287 1.241 . S
O292 Co280 2.161 . S
O292 C283 1.247 . S
O293 Co280 2.250 . S
O293 C283 1.272 . S
O293 Co285 2.135 1_556 S
Co294 O295 2.216 . S
Co294 O296 2.091 . S
Co294 O298 2.004 . S
Co294 O304 2.021 . S
Co294 O306 2.137 . S
Co294 O307 2.244 . S
O295 Co294 2.216 . S
O295 C302 1.247 . S
O296 Co294 2.091 . S
O296 C302 1.261 . S
C297 O306 1.247 . S
C297 O307 1.272 . S
O298 Co294 2.004 . S
O298 C303 1.259 . S
Co299 O300 2.061 . S
Co299 O305 2.052 . S
Co299 O307 2.135 . S
O300 Co299 2.061 . S
O300 C303 1.235 . S
C301 O304 1.238 . S
C301 O305 1.241 . S
C302 O295 1.247 . S
C302 O296 1.261 . S
C303 O298 1.259 . S
C303 O300 1.235 . S
O304 Co294 2.021 . S
O304 C301 1.238 . S
O305 Co299 2.052 . S
O305 C301 1.241 . S
O306 Co294 2.137 . S
O306 C297 1.247 . S
O307 Co294 2.244 . S
O307 C297 1.272 . S
O307 Co299 2.135 . S
Co308 O309 2.216 . S
Co308 O310 2.091 . S
Co308 O312 2.004 . S
Co308 O318 2.021 . S
Co308 O320 2.137 . S
Co308 O321 2.244 . S
O309 Co308 2.216 . S
O309 C316 1.247 . S
O310 Co308 2.091 . S
O310 C316 1.261 . S
C311 O320 1.247 . S
C311 O321 1.272 . S
O312 Co308 2.004 . S
O312 C317 1.259 . S
Co313 O314 2.061 . S
Co313 O319 2.052 . S
Co313 O321 2.135 . S
O314 Co313 2.061 . S
O314 C317 1.235 . S
C315 O318 1.238 . S
C315 O319 1.241 . S
C316 O309 1.247 . S
C316 O310 1.261 . S
C317 O312 1.259 . S
C317 O314 1.235 . S
O318 Co308 2.021 . S
O318 C315 1.238 . S
O319 Co313 2.052 . S
O319 C315 1.241 . S
O320 Co308 2.137 . S
O320 C311 1.247 . S
O321 Co308 2.244 . S
O321 C311 1.272 . S
O321 Co313 2.135 . S
Co322 O323 2.216 . S
Co322 O324 2.091 . S
Co322 O326 2.004 . S
Co322 O332 2.021 . S
Co322 O334 2.137 . S
Co322 O335 2.244 . S
O323 Co322 2.216 . S
O323 C330 1.247 . S
O324 Co322 2.091 . S
O324 C330 1.261 . S
C325 O334 1.247 . S
C325 O335 1.272 . S
O326 Co322 2.004 . S
O326 C331 1.259 . S
Co327 O328 2.061 . S
Co327 O333 2.052 . S
Co327 O335 2.135 . S
O328 Co327 2.061 . S
O328 C331 1.235 . S
C329 O332 1.238 . S
C329 O333 1.241 . S
C330 O323 1.247 . S
C330 O324 1.261 . S
C331 O326 1.259 . S
C331 O328 1.235 . S
O332 Co322 2.021 . S
O332 C329 1.238 . S
O333 Co327 2.052 . S
O333 C329 1.241 . S
O334 Co322 2.137 . S
O334 C325 1.247 . S
O335 Co322 2.244 . S
O335 C325 1.272 . S
O335 Co327 2.135 . S
H336 C344 0.950 . S
H337 C349 0.950 . S
H338 C346 0.950 . S
H339 C348 0.950 . S
H340 C350 0.950 . S
H341 C352 0.950 . S
H342 C354 0.950 . S
H343 C355 0.950 . S
C344 H336 0.950 . S
C344 C345 1.386 . S
C344 C346 1.391 . S
C345 C344 1.386 . S
C345 C349 1.393 . S
C346 H338 0.950 . S
C346 C344 1.391 . S
C346 C347 1.400 . S
C347 C346 1.400 . S
C347 C348 1.398 . S
C347 C353 1.491 . S
C348 H339 0.950 . S
C348 C347 1.398 . S
C348 C349 1.391 . S
C349 H337 0.950 . S
C349 C345 1.393 . S
C349 C348 1.391 . S
C350 H340 0.950 . S
C350 C351 1.386 . S
C350 C352 1.391 . S
C351 C350 1.386 . S
C351 C355 1.393 . S
C352 H341 0.950 . S
C352 C350 1.391 . S
C352 C353 1.400 . S
C353 C347 1.491 . S
C353 C352 1.400 . S
C353 C354 1.398 . S
C354 H342 0.950 . S
C354 C353 1.398 . S
C354 C355 1.391 . S
C355 H343 0.950 . S
C355 C351 1.393 . S
C355 C354 1.391 . S
H356 C364 0.950 . S
H357 C369 0.950 . S
H358 C366 0.950 . S
H359 C368 0.950 . S
H360 C370 0.950 . S
H361 C372 0.950 . S
H362 C374 0.950 . S
H363 C375 0.950 . S
C364 H356 0.950 . S
C364 C365 1.386 . S
C364 C366 1.391 . S
C365 C364 1.386 . S
C365 C369 1.393 . S
C366 H358 0.950 . S
C366 C364 1.391 . S
C366 C367 1.400 . S
C367 C366 1.400 . S
C367 C368 1.398 . S
C367 C373 1.491 . S
C368 H359 0.950 . S
C368 C367 1.398 . S
C368 C369 1.391 . S
C369 H357 0.950 . S
C369 C365 1.393 . S
C369 C368 1.391 . S
C370 H360 0.950 . S
C370 C371 1.386 . S
C370 C372 1.391 . S
C371 C370 1.386 . S
C371 C375 1.393 . S
C372 H361 0.950 . S
C372 C370 1.391 . S
C372 C373 1.400 . S
C373 C367 1.491 . S
C373 C372 1.400 . S
C373 C374 1.398 . S
C374 H362 0.950 . S
C374 C373 1.398 . S
C374 C375 1.391 . S
C375 H363 0.950 . S
C375 C371 1.393 . S
C375 C374 1.391 . S
H376 C384 0.950 . S
H377 C389 0.950 . S
H378 C386 0.950 . S
H379 C388 0.950 . S
H380 C390 0.950 . S
H381 C392 0.950 . S
H382 C394 0.950 . S
H383 C395 0.950 . S
C384 H376 0.950 . S
C384 C385 1.386 . S
C384 C386 1.391 . S
C385 C384 1.386 . S
C385 C389 1.393 . S
C386 H378 0.950 . S
C386 C384 1.391 . S
C386 C387 1.400 . S
C387 C386 1.400 . S
C387 C388 1.398 . S
C387 C393 1.491 . S
C388 H379 0.950 . S
C388 C387 1.398 . S
C388 C389 1.391 . S
C389 H377 0.950 . S
C389 C385 1.393 . S
C389 C388 1.391 . S
C390 H380 0.950 . S
C390 C391 1.386 . S
C390 C392 1.391 . S
C391 C390 1.386 . S
C391 C395 1.393 . S
C392 H381 0.950 . S
C392 C390 1.391 . S
C392 C393 1.400 . S
C393 C387 1.491 . S
C393 C392 1.400 . S
C393 C394 1.398 . S
C394 H382 0.950 . S
C394 C393 1.398 . S
C394 C395 1.391 . S
C395 H383 0.950 . S
C395 C391 1.393 . S
C395 C394 1.391 . S
H396 C404 0.950 . S
H397 C409 0.950 . S
H398 C406 0.950 . S
H399 C408 0.950 . S
H400 C410 0.950 . S
H401 C412 0.950 . S
H402 C414 0.950 . S
H403 C415 0.950 . S
C404 H396 0.950 . S
C404 C405 1.386 . S
C404 C406 1.391 . S
C405 C404 1.386 . S
C405 C409 1.393 . S
C406 H398 0.950 . S
C406 C404 1.391 . S
C406 C407 1.400 . S
C407 C406 1.400 . S
C407 C408 1.398 . S
C407 C413 1.491 . S
C408 H399 0.950 . S
C408 C407 1.398 . S
C408 C409 1.391 . S
C409 H397 0.950 . S
C409 C405 1.393 . S
C409 C408 1.391 . S
C410 H400 0.950 . S
C410 C411 1.386 . S
C410 C412 1.391 . S
C411 C410 1.386 . S
C411 C415 1.393 . S
C412 H401 0.950 . S
C412 C410 1.391 . S
C412 C413 1.400 . S
C413 C407 1.491 . S
C413 C412 1.400 . S
C413 C414 1.398 . S
C414 H402 0.950 . S
C414 C413 1.398 . S
C414 C415 1.391 . S
C415 H403 0.950 . S
C415 C411 1.393 . S
C415 C414 1.391 . S
H416 C424 0.950 . S
H417 C429 0.950 . S
H418 C426 0.950 . S
H419 C428 0.950 . S
H420 C430 0.950 . S
H421 C432 0.950 . S
H422 C434 0.950 . S
H423 C435 0.950 . S
C424 H416 0.950 . S
C424 C425 1.386 . S
C424 C426 1.391 . S
C425 C424 1.386 . S
C425 C429 1.393 . S
C426 H418 0.950 . S
C426 C424 1.391 . S
C426 C427 1.400 . S
C427 C426 1.400 . S
C427 C428 1.398 . S
C427 C433 1.491 . S
C428 H419 0.950 . S
C428 C427 1.398 . S
C428 C429 1.391 . S
C429 H417 0.950 . S
C429 C425 1.393 . S
C429 C428 1.391 . S
C430 H420 0.950 . S
C430 C431 1.386 . S
C430 C432 1.391 . S
C431 C430 1.386 . S
C431 C435 1.393 . S
C432 H421 0.950 . S
C432 C430 1.391 . S
C432 C433 1.400 . S
C433 C427 1.491 . S
C433 C432 1.400 . S
C433 C434 1.398 . S
C434 H422 0.950 . S
C434 C433 1.398 . S
C434 C435 1.391 . S
C435 H423 0.950 . S
C435 C431 1.393 . S
C435 C434 1.391 . S
H436 C444 0.950 . S
H437 C449 0.950 . S
H438 C446 0.950 . S
H439 C448 0.950 . S
H440 C450 0.950 . S
H441 C452 0.950 . S
H442 C454 0.950 . S
H443 C455 0.950 . S
C444 H436 0.950 . S
C444 C445 1.386 . S
C444 C446 1.391 . S
C445 C444 1.386 . S
C445 C449 1.393 . S
C446 H438 0.950 . S
C446 C444 1.391 . S
C446 C447 1.400 . S
C447 C446 1.400 . S
C447 C448 1.398 . S
C447 C453 1.491 . S
C448 H439 0.950 . S
C448 C447 1.398 . S
C448 C449 1.391 . S
C449 H437 0.950 . S
C449 C445 1.393 . S
C449 C448 1.391 . S
C450 H440 0.950 . S
C450 C451 1.386 . S
C450 C452 1.391 . S
C451 C450 1.386 . S
C451 C455 1.393 . S
C452 H441 0.950 . S
C452 C450 1.391 . S
C452 C453 1.400 . S
C453 C447 1.491 . S
C453 C452 1.400 . S
C453 C454 1.398 . S
C454 H442 0.950 . S
C454 C453 1.398 . S
C454 C455 1.391 . S
C455 H443 0.950 . S
C455 C451 1.393 . S
C455 C454 1.391 . S
H456 C464 0.950 . S
H457 C469 0.950 . S
H458 C466 0.950 . S
H459 C468 0.950 . S
H460 C470 0.950 . S
H461 C472 0.950 . S
H462 C474 0.950 . S
H463 C475 0.950 . S
C464 H456 0.950 . S
C464 C465 1.386 . S
C464 C466 1.391 . S
C465 C464 1.386 . S
C465 C469 1.393 . S
C466 H458 0.950 . S
C466 C464 1.391 . S
C466 C467 1.400 . S
C467 C466 1.400 . S
C467 C468 1.398 . S
C467 C473 1.491 . S
C468 H459 0.950 . S
C468 C467 1.398 . S
C468 C469 1.391 . S
C469 H457 0.950 . S
C469 C465 1.393 . S
C469 C468 1.391 . S
C470 H460 0.950 . S
C470 C471 1.386 . S
C470 C472 1.391 . S
C471 C470 1.386 . S
C471 C475 1.393 . S
C472 H461 0.950 . S
C472 C470 1.391 . S
C472 C473 1.400 . S
C473 C467 1.491 . S
C473 C472 1.400 . S
C473 C474 1.398 . S
C474 H462 0.950 . S
C474 C473 1.398 . S
C474 C475 1.391 . S
C475 H463 0.950 . S
C475 C471 1.393 . S
C475 C474 1.391 . S
H476 C484 0.950 . S
H477 C489 0.950 . S
H478 C486 0.950 . S
H479 C488 0.950 . S
H480 C490 0.950 1_554 S
H481 C492 0.950 . S
H482 C494 0.950 . S
H483 C495 0.950 . S
C484 H476 0.950 . S
C484 C485 1.386 . S
C484 C486 1.391 . S
C485 C484 1.386 . S
C485 C489 1.393 . S
C486 H478 0.950 . S
C486 C484 1.391 . S
C486 C487 1.400 . S
C487 C486 1.400 . S
C487 C488 1.398 . S
C487 C493 1.491 . S
C488 H479 0.950 . S
C488 C487 1.398 . S
C488 C489 1.391 . S
C489 H477 0.950 . S
C489 C485 1.393 . S
C489 C488 1.391 . S
C490 H480 0.950 1_556 S
C490 C491 1.386 . S
C490 C492 1.391 . S
C491 C490 1.386 . S
C491 C495 1.393 . S
C492 H481 0.950 . S
C492 C490 1.391 . S
C492 C493 1.400 . S
C493 C487 1.491 . S
C493 C492 1.400 . S
C493 C494 1.398 . S
C494 H482 0.950 . S
C494 C493 1.398 . S
C494 C495 1.391 . S
C495 H483 0.950 . S
C495 C491 1.393 . S
C495 C494 1.391 . S
H496 C504 0.950 . S
H497 C509 0.950 . S
H498 C506 0.950 . S
H499 C508 0.950 . S
H500 C510 0.950 . S
H501 C512 0.950 . S
H502 C514 0.950 . S
H503 C515 0.950 . S
C504 H496 0.950 . S
C504 C505 1.386 . S
C504 C506 1.391 . S
C505 C504 1.386 . S
C505 C509 1.393 . S
C506 H498 0.950 . S
C506 C504 1.391 . S
C506 C507 1.400 . S
C507 C506 1.400 . S
C507 C508 1.398 . S
C507 C513 1.491 . S
C508 H499 0.950 . S
C508 C507 1.398 . S
C508 C509 1.391 . S
C509 H497 0.950 . S
C509 C505 1.393 . S
C509 C508 1.391 . S
C510 H500 0.950 . S
C510 C511 1.386 . S
C510 C512 1.391 . S
C511 C510 1.386 . S
C511 C515 1.393 . S
C512 H501 0.950 . S
C512 C510 1.391 . S
C512 C513 1.400 . S
C513 C507 1.491 . S
C513 C512 1.400 . S
C513 C514 1.398 . S
C514 H502 0.950 . S
C514 C513 1.398 . S
C514 C515 1.391 . S
C515 H503 0.950 . S
C515 C511 1.393 . S
C515 C514 1.391 . S
H516 C524 0.950 . S
H517 C529 0.950 . S
H518 C526 0.950 . S
H519 C528 0.950 . S
H520 C530 0.950 . S
H521 C532 0.950 . S
H522 C534 0.950 . S
H523 C535 0.950 . S
C524 H516 0.950 . S
C524 C525 1.386 . S
C524 C526 1.391 . S
C525 C524 1.386 . S
C525 C529 1.393 . S
C526 H518 0.950 . S
C526 C524 1.391 . S
C526 C527 1.400 . S
C527 C526 1.400 . S
C527 C528 1.398 . S
C527 C533 1.491 . S
C528 H519 0.950 . S
C528 C527 1.398 . S
C528 C529 1.391 . S
C529 H517 0.950 . S
C529 C525 1.393 . S
C529 C528 1.391 . S
C530 H520 0.950 . S
C530 C531 1.386 . S
C530 C532 1.391 . S
C531 C530 1.386 . S
C531 C535 1.393 . S
C532 H521 0.950 . S
C532 C530 1.391 . S
C532 C533 1.400 . S
C533 C527 1.491 . S
C533 C532 1.400 . S
C533 C534 1.398 . S
C534 H522 0.950 . S
C534 C533 1.398 . S
C534 C535 1.391 . S
C535 H523 0.950 . S
C535 C531 1.393 . S
C535 C534 1.391 . S
H536 C544 0.950 . S
H537 C549 0.950 . S
H538 C546 0.950 . S
H539 C548 0.950 . S
H540 C550 0.950 . S
H541 C552 0.950 . S
H542 C554 0.950 . S
H543 C555 0.950 . S
C544 H536 0.950 . S
C544 C545 1.386 . S
C544 C546 1.391 . S
C545 C544 1.386 . S
C545 C549 1.393 . S
C546 H538 0.950 . S
C546 C544 1.391 . S
C546 C547 1.400 . S
C547 C546 1.400 . S
C547 C548 1.398 . S
C547 C553 1.491 . S
C548 H539 0.950 . S
C548 C547 1.398 . S
C548 C549 1.391 . S
C549 H537 0.950 . S
C549 C545 1.393 . S
C549 C548 1.391 . S
C550 H540 0.950 . S
C550 C551 1.386 . S
C550 C552 1.391 . S
C551 C550 1.386 . S
C551 C555 1.393 . S
C552 H541 0.950 . S
C552 C550 1.391 . S
C552 C553 1.400 . S
C553 C547 1.491 . S
C553 C552 1.400 . S
C553 C554 1.398 . S
C554 H542 0.950 . S
C554 C553 1.398 . S
C554 C555 1.391 . S
C555 H543 0.950 . S
C555 C551 1.393 . S
C555 C554 1.391 . S
H556 C564 0.950 . S
H557 C569 0.950 . S
H558 C566 0.950 . S
H559 C568 0.950 . S
H560 C570 0.959 . S
H561 C572 0.950 . S
H562 C574 0.950 . S
H563 C575 0.950 . S
C564 H556 0.950 . S
C564 C565 1.386 . S
C564 C566 1.391 . S
C565 C564 1.386 . S
C565 C569 1.393 . S
C566 H558 0.950 . S
C566 C564 1.391 . S
C566 C567 1.400 . S
C567 C566 1.400 . S
C567 C568 1.398 . S
C567 C573 1.491 . S
C568 H559 0.950 . S
C568 C567 1.398 . S
C568 C569 1.391 . S
C569 H557 0.950 . S
C569 C565 1.393 . S
C569 C568 1.391 . S
C570 H560 0.959 . S
C570 C571 1.386 . S
C570 C572 1.391 . S
C571 C570 1.386 . S
C571 C575 1.393 . S
C572 H561 0.950 . S
C572 C570 1.391 . S
C572 C573 1.400 . S
C573 C567 1.491 . S
C573 C572 1.400 . S
C573 C574 1.398 . S
C574 H562 0.950 . S
C574 C573 1.398 . S
C574 C575 1.391 . S
C575 H563 0.950 . S
C575 C571 1.393 . S
C575 C574 1.391 . S
H576 C584 0.950 . S
H577 C589 0.950 . S
H578 C586 0.950 . S
H579 C588 0.950 . S
H580 C590 0.950 . S
H581 C592 0.950 . S
H582 C594 0.950 . S
H583 C595 0.950 . S
C584 H576 0.950 . S
C584 C585 1.386 . S
C584 C586 1.391 . S
C585 C584 1.386 . S
C585 C589 1.393 . S
C586 H578 0.950 . S
C586 C584 1.391 . S
C586 C587 1.400 . S
C587 C586 1.400 . S
C587 C588 1.398 . S
C587 C593 1.491 . S
C588 H579 0.950 . S
C588 C587 1.398 . S
C588 C589 1.391 . S
C589 H577 0.950 . S
C589 C585 1.393 . S
C589 C588 1.391 . S
C590 H580 0.950 . S
C590 C591 1.386 . S
C590 C592 1.391 . S
C591 C590 1.386 . S
C591 C595 1.393 . S
C592 H581 0.950 . S
C592 C590 1.391 . S
C592 C593 1.400 . S
C593 C587 1.491 . S
C593 C592 1.400 . S
C593 C594 1.398 . S
C594 H582 0.950 . S
C594 C593 1.398 . S
C594 C595 1.391 . S
C595 H583 0.950 . S
C595 C591 1.393 . S
C595 C594 1.391 . S
H596 C604 0.950 . S
H597 C609 0.950 . S
H598 C606 0.950 . S
H599 C608 0.950 . S
H600 C610 0.950 . S
H601 C612 0.950 . S
H602 C614 0.950 . S
H603 C615 0.950 . S
C604 H596 0.950 . S
C604 C605 1.386 . S
C604 C606 1.391 . S
C605 C604 1.386 . S
C605 C609 1.393 . S
C606 H598 0.950 . S
C606 C604 1.391 . S
C606 C607 1.400 . S
C607 C606 1.400 . S
C607 C608 1.398 . S
C607 C613 1.491 . S
C608 H599 0.950 . S
C608 C607 1.398 . S
C608 C609 1.391 . S
C609 H597 0.950 . S
C609 C605 1.393 . S
C609 C608 1.391 . S
C610 H600 0.950 . S
C610 C611 1.386 . S
C610 C612 1.391 . S
C611 C610 1.386 . S
C611 C615 1.393 . S
C612 H601 0.950 . S
C612 C610 1.391 . S
C612 C613 1.400 . S
C613 C607 1.491 . S
C613 C612 1.400 . S
C613 C614 1.398 . S
C614 H602 0.950 . S
C614 C613 1.398 . S
C614 C615 1.391 . S
C615 H603 0.950 . S
C615 C611 1.393 . S
C615 C614 1.391 . S
H616 C624 0.950 . S
H617 C629 0.950 . S
H618 C626 0.950 . S
H619 C628 0.950 . S
H620 C630 0.950 . S
H621 C632 0.950 . S
H622 C634 0.950 . S
H623 C635 0.950 . S
C624 H616 0.950 . S
C624 C625 1.386 . S
C624 C626 1.391 . S
C625 C624 1.386 . S
C625 C629 1.393 . S
C626 H618 0.950 . S
C626 C624 1.391 . S
C626 C627 1.400 . S
C627 C626 1.400 . S
C627 C628 1.398 . S
C627 C633 1.491 . S
C628 H619 0.950 . S
C628 C627 1.398 . S
C628 C629 1.391 . S
C629 H617 0.950 . S
C629 C625 1.393 . S
C629 C628 1.391 . S
C630 H620 0.950 . S
C630 C631 1.386 . S
C630 C632 1.391 . S
C631 C630 1.386 . S
C631 C635 1.393 . S
C632 H621 0.950 . S
C632 C630 1.391 . S
C632 C633 1.400 . S
C633 C627 1.491 . S
C633 C632 1.400 . S
C633 C634 1.398 . S
C634 H622 0.950 . S
C634 C633 1.398 . S
C634 C635 1.391 . S
C635 H623 0.950 . S
C635 C631 1.393 . S
C635 C634 1.391 . S
H636 C644 0.950 . S
H637 C649 0.950 . S
H638 C646 0.950 . S
H639 C648 0.950 . S
H640 C650 0.950 . S
H641 C652 0.950 . S
H642 C654 0.950 . S
H643 C655 0.950 . S
C644 H636 0.950 . S
C644 C645 1.386 . S
C644 C646 1.391 . S
C645 C644 1.386 . S
C645 C649 1.393 . S
C646 H638 0.950 . S
C646 C644 1.391 . S
C646 C647 1.400 . S
C647 C646 1.400 . S
C647 C648 1.398 . S
C647 C653 1.491 . S
C648 H639 0.950 . S
C648 C647 1.398 . S
C648 C649 1.391 . S
C649 H637 0.950 . S
C649 C645 1.393 . S
C649 C648 1.391 . S
C650 H640 0.950 . S
C650 C651 1.386 . S
C650 C652 1.391 . S
C651 C650 1.386 . S
C651 C655 1.393 . S
C652 H641 0.950 . S
C652 C650 1.391 . S
C652 C653 1.400 . S
C653 C647 1.491 . S
C653 C652 1.400 . S
C653 C654 1.398 . S
C654 H642 0.950 . S
C654 C653 1.398 . S
C654 C655 1.391 . S
C655 H643 0.950 . S
C655 C651 1.393 . S
C655 C654 1.391 . S
H656 C664 0.950 . S
H657 C669 0.950 . S
H658 C666 0.950 . S
H659 C668 0.950 . S
H660 C670 0.950 . S
H661 C672 0.950 . S
H662 C674 0.950 . S
H663 C675 0.950 . S
C664 H656 0.950 . S
C664 C665 1.386 . S
C664 C666 1.391 . S
C665 C664 1.386 . S
C665 C669 1.393 . S
C666 H658 0.950 . S
C666 C664 1.391 . S
C666 C667 1.400 . S
C667 C666 1.400 . S
C667 C668 1.398 . S
C667 C673 1.491 . S
C668 H659 0.950 . S
C668 C667 1.398 . S
C668 C669 1.391 . S
C669 H657 0.950 . S
C669 C665 1.393 . S
C669 C668 1.391 . S
C670 H660 0.950 . S
C670 C671 1.386 . S
C670 C672 1.391 . S
C671 C670 1.386 . S
C671 C675 1.393 . S
C672 H661 0.950 . S
C672 C670 1.391 . S
C672 C673 1.400 . S
C673 C667 1.491 . S
C673 C672 1.400 . S
C673 C674 1.398 . S
C674 H662 0.950 . S
C674 C673 1.398 . S
C674 C675 1.391 . S
C675 H663 0.950 . S
C675 C671 1.393 . S
C675 C674 1.391 . S
H676 C684 0.950 . S
H677 C689 0.950 . S
H678 C686 0.950 . S
H679 C688 0.950 . S
H680 C690 0.950 . S
H681 C692 0.950 . S
H682 C694 0.950 . S
H683 C695 0.950 . S
C684 H676 0.950 . S
C684 C685 1.386 . S
C684 C686 1.391 . S
C685 C684 1.386 . S
C685 C689 1.393 . S
C686 H678 0.950 . S
C686 C684 1.391 . S
C686 C687 1.400 . S
C687 C686 1.400 . S
C687 C688 1.398 . S
C687 C693 1.491 . S
C688 H679 0.950 . S
C688 C687 1.398 . S
C688 C689 1.391 . S
C689 H677 0.950 . S
C689 C685 1.393 . S
C689 C688 1.391 . S
C690 H680 0.950 . S
C690 C691 1.386 . S
C690 C692 1.391 . S
C691 C690 1.386 . S
C691 C695 1.393 . S
C692 H681 0.950 . S
C692 C690 1.391 . S
C692 C693 1.400 . S
C693 C687 1.491 . S
C693 C692 1.400 . S
C693 C694 1.398 . S
C694 H682 0.950 . S
C694 C693 1.398 . S
C694 C695 1.391 . S
C695 H683 0.950 . S
C695 C691 1.393 . S
C695 C694 1.391 . S
H696 C704 0.950 . S
H697 C709 0.950 . S
H698 C706 0.950 . S
H699 C708 0.950 . S
H700 C710 0.950 . S
H701 C712 0.950 . S
H702 C714 0.950 . S
H703 C715 0.950 . S
C704 H696 0.950 . S
C704 C705 1.386 . S
C704 C706 1.391 . S
C705 C704 1.386 . S
C705 C709 1.393 . S
C706 H698 0.950 . S
C706 C704 1.391 . S
C706 C707 1.400 . S
C707 C706 1.400 . S
C707 C708 1.398 . S
C707 C713 1.491 . S
C708 H699 0.950 . S
C708 C707 1.398 . S
C708 C709 1.391 . S
C709 H697 0.950 . S
C709 C705 1.393 . S
C709 C708 1.391 . S
C710 H700 0.950 . S
C710 C711 1.386 . S
C710 C712 1.391 . S
C711 C710 1.386 . S
C711 C715 1.393 . S
C712 H701 0.950 . S
C712 C710 1.391 . S
C712 C713 1.400 . S
C713 C707 1.491 . S
C713 C712 1.400 . S
C713 C714 1.398 . S
C714 H702 0.950 . S
C714 C713 1.398 . S
C714 C715 1.391 . S
C715 H703 0.950 . S
C715 C711 1.393 . S
C715 C714 1.391 . S
H716 C724 0.950 . S
H717 C729 0.950 . S
H718 C726 0.950 . S
H719 C728 0.950 . S
H720 C730 0.950 1_455 S
H721 C732 0.950 . S
H722 C734 0.950 . S
H723 C735 0.950 . S
C724 H716 0.950 . S
C724 C725 1.386 . S
C724 C726 1.391 . S
C725 C724 1.386 . S
C725 C729 1.393 . S
C726 H718 0.950 . S
C726 C724 1.391 . S
C726 C727 1.400 . S
C727 C726 1.400 . S
C727 C728 1.398 . S
C727 C733 1.491 . S
C728 H719 0.950 . S
C728 C727 1.398 . S
C728 C729 1.391 . S
C729 H717 0.950 . S
C729 C725 1.393 . S
C729 C728 1.391 . S
C730 H720 0.950 1_655 S
C730 C731 1.386 . S
C730 C732 1.391 . S
C731 C730 1.386 . S
C731 C735 1.393 . S
C732 H721 0.950 . S
C732 C730 1.391 . S
C732 C733 1.400 . S
C733 C727 1.491 . S
C733 C732 1.400 . S
C733 C734 1.398 . S
C734 H722 0.950 . S
C734 C733 1.398 . S
C734 C735 1.391 . S
C735 H723 0.950 . S
C735 C731 1.393 . S
C735 C734 1.391 . S
H736 C744 0.950 . S
H737 C749 0.950 . S
H738 C746 0.950 . S
H739 C748 0.950 . S
H740 C750 0.950 . S
H741 C752 0.950 . S
H742 C754 0.950 . S
H743 C755 0.950 . S
C744 H736 0.950 . S
C744 C745 1.386 . S
C744 C746 1.391 . S
C745 C744 1.386 . S
C745 C749 1.393 . S
C746 H738 0.950 . S
C746 C744 1.391 . S
C746 C747 1.400 . S
C747 C746 1.400 . S
C747 C748 1.398 . S
C747 C753 1.491 . S
C748 H739 0.950 . S
C748 C747 1.398 . S
C748 C749 1.391 . S
C749 H737 0.950 . S
C749 C745 1.393 . S
C749 C748 1.391 . S
C750 H740 0.950 . S
C750 C751 1.386 . S
C750 C752 1.391 . S
C751 C750 1.386 . S
C751 C755 1.393 . S
C752 H741 0.950 . S
C752 C750 1.391 . S
C752 C753 1.400 . S
C753 C747 1.491 . S
C753 C752 1.400 . S
C753 C754 1.398 . S
C754 H742 0.950 . S
C754 C753 1.398 . S
C754 C755 1.391 . S
C755 H743 0.950 . S
C755 C751 1.393 . S
C755 C754 1.391 . S
H756 C764 0.950 . S
H757 C769 0.950 . S
H758 C766 0.950 . S
H759 C768 0.950 . S
H760 C770 0.950 . S
H761 C772 0.950 . S
H762 C774 0.950 . S
H763 C775 0.950 . S
C764 H756 0.950 . S
C764 C765 1.386 . S
C764 C766 1.391 . S
C765 C764 1.386 . S
C765 C769 1.393 . S
C766 H758 0.950 . S
C766 C764 1.391 . S
C766 C767 1.400 . S
C767 C766 1.400 . S
C767 C768 1.398 . S
C767 C773 1.491 . S
C768 H759 0.950 . S
C768 C767 1.398 . S
C768 C769 1.391 . S
C769 H757 0.950 . S
C769 C765 1.393 . S
C769 C768 1.391 . S
C770 H760 0.950 . S
C770 C771 1.386 . S
C770 C772 1.391 . S
C771 C770 1.386 . S
C771 C775 1.393 . S
C772 H761 0.950 . S
C772 C770 1.391 . S
C772 C773 1.400 . S
C773 C767 1.491 . S
C773 C772 1.400 . S
C773 C774 1.398 . S
C774 H762 0.950 . S
C774 C773 1.398 . S
C774 C775 1.391 . S
C775 H763 0.950 . S
C775 C771 1.393 . S
C775 C774 1.391 . S
H776 C784 0.950 . S
H777 C789 0.950 . S
H778 C786 0.950 . S
H779 C788 0.950 . S
H780 C790 0.950 . S
H781 C792 0.950 . S
H782 C794 0.950 . S
H783 C795 0.950 . S
C784 H776 0.950 . S
C784 C785 1.386 . S
C784 C786 1.391 . S
C785 C784 1.386 . S
C785 C789 1.393 . S
C786 H778 0.950 . S
C786 C784 1.391 . S
C786 C787 1.400 . S
C787 C786 1.400 . S
C787 C788 1.398 . S
C787 C793 1.491 . S
C788 H779 0.950 . S
C788 C787 1.398 . S
C788 C789 1.391 . S
C789 H777 0.950 . S
C789 C785 1.393 . S
C789 C788 1.391 . S
C790 H780 0.950 . S
C790 C791 1.386 . S
C790 C792 1.391 . S
C791 C790 1.386 . S
C791 C795 1.393 . S
C792 H781 0.950 . S
C792 C790 1.391 . S
C792 C793 1.400 . S
C793 C787 1.491 . S
C793 C792 1.400 . S
C793 C794 1.398 . S
C794 H782 0.950 . S
C794 C793 1.398 . S
C794 C795 1.391 . S
C795 H783 0.950 . S
C795 C791 1.393 . S
C795 C794 1.391 . S
H796 C804 0.950 . S
H797 C809 0.950 . S
H798 C806 0.950 . S
H799 C808 0.950 . S
H800 C810 0.950 . S
H801 C812 0.950 . S
H802 C814 0.950 . S
H803 C815 0.950 . S
C804 H796 0.950 . S
C804 C805 1.386 . S
C804 C806 1.391 . S
C805 C804 1.386 . S
C805 C809 1.393 . S
C806 H798 0.950 . S
C806 C804 1.391 . S
C806 C807 1.400 . S
C807 C806 1.400 . S
C807 C808 1.398 . S
C807 C813 1.491 . S
C808 H799 0.950 . S
C808 C807 1.398 . S
C808 C809 1.391 . S
C809 H797 0.950 . S
C809 C805 1.393 . S
C809 C808 1.391 . S
C810 H800 0.950 . S
C810 C811 1.386 . S
C810 C812 1.391 . S
C811 C810 1.386 . S
C811 C815 1.393 . S
C812 H801 0.950 . S
C812 C810 1.391 . S
C812 C813 1.400 . S
C813 C807 1.491 . S
C813 C812 1.400 . S
C813 C814 1.398 . S
C814 H802 0.950 . S
C814 C813 1.398 . S
C814 C815 1.391 . S
C815 H803 0.950 . S
C815 C811 1.393 . S
C815 C814 1.391 . S
H816 C824 0.950 . S
H817 C829 0.950 . S
H818 C826 0.950 . S
H819 C828 0.950 . S
H820 C830 0.950 . S
H821 C832 0.950 . S
H822 C834 0.950 . S
H823 C835 0.950 . S
C824 H816 0.950 . S
C824 C825 1.386 . S
C824 C826 1.391 . S
C825 C824 1.386 . S
C825 C829 1.393 . S
C826 H818 0.950 . S
C826 C824 1.391 . S
C826 C827 1.400 . S
C827 C826 1.400 . S
C827 C828 1.398 . S
C827 C833 1.491 . S
C828 H819 0.950 . S
C828 C827 1.398 . S
C828 C829 1.391 . S
C829 H817 0.950 . S
C829 C825 1.393 . S
C829 C828 1.391 . S
C830 H820 0.950 . S
C830 C831 1.386 . S
C830 C832 1.391 . S
C831 C830 1.386 . S
C831 C835 1.393 . S
C832 H821 0.950 . S
C832 C830 1.391 . S
C832 C833 1.400 . S
C833 C827 1.491 . S
C833 C832 1.400 . S
C833 C834 1.398 . S
C834 H822 0.950 . S
C834 C833 1.398 . S
C834 C835 1.391 . S
C835 H823 0.950 . S
C835 C831 1.393 . S
C835 C834 1.391 . S
H836 C844 0.950 . S
H837 C849 0.950 . S
H838 C846 0.950 . S
H839 C848 0.950 . S
H840 C850 0.950 . S
H841 C852 0.950 . S
H842 C854 0.950 . S
H843 C855 0.950 . S
C844 H836 0.950 . S
C844 C845 1.386 . S
C844 C846 1.391 . S
C845 C844 1.386 . S
C845 C849 1.393 . S
C846 H838 0.950 . S
C846 C844 1.391 . S
C846 C847 1.400 . S
C847 C846 1.400 . S
C847 C848 1.398 . S
C847 C853 1.491 . S
C848 H839 0.950 . S
C848 C847 1.398 . S
C848 C849 1.391 . S
C849 H837 0.950 . S
C849 C845 1.393 . S
C849 C848 1.391 . S
C850 H840 0.950 . S
C850 C851 1.386 . S
C850 C852 1.391 . S
C851 C850 1.386 . S
C851 C855 1.393 . S
C852 H841 0.950 . S
C852 C850 1.391 . S
C852 C853 1.400 . S
C853 C847 1.491 . S
C853 C852 1.400 . S
C853 C854 1.398 . S
C854 H842 0.950 . S
C854 C853 1.398 . S
C854 C855 1.391 . S
C855 H843 0.950 . S
C855 C851 1.393 . S
C855 C854 1.391 . S
H856 C864 0.950 . S
H857 C869 0.968 . S
H858 C866 0.950 . S
H859 C868 0.950 . S
H860 C870 0.950 . S
H861 C872 0.950 . S
H862 C874 0.950 . S
H863 C875 0.950 . S
C864 H856 0.950 . S
C864 C865 1.386 . S
C864 C866 1.391 . S
C865 C864 1.386 . S
C865 C869 1.393 . S
C866 H858 0.950 . S
C866 C864 1.391 . S
C866 C867 1.400 . S
C867 C866 1.400 . S
C867 C868 1.398 . S
C867 C873 1.491 . S
C868 H859 0.950 . S
C868 C867 1.398 . S
C868 C869 1.391 . S
C869 H857 0.968 . S
C869 C865 1.393 . S
C869 C868 1.391 . S
C870 H860 0.950 . S
C870 C871 1.386 . S
C870 C872 1.391 . S
C871 C870 1.386 . S
C871 C875 1.393 . S
C872 H861 0.950 . S
C872 C870 1.391 . S
C872 C873 1.400 . S
C873 C867 1.491 . S
C873 C872 1.400 . S
C873 C874 1.398 . S
C874 H862 0.950 . S
C874 C873 1.398 . S
C874 C875 1.391 . S
C875 H863 0.950 . S
C875 C871 1.393 . S
C875 C874 1.391 . S
H876 C884 0.950 . S
H877 C889 0.950 . S
H878 C886 0.950 . S
H879 C888 0.950 . S
H880 C890 0.950 . S
H881 C892 0.950 . S
H882 C894 0.950 . S
H883 C895 0.950 . S
C884 H876 0.950 . S
C884 C885 1.386 . S
C884 C886 1.391 . S
C885 C884 1.386 . S
C885 C889 1.393 . S
C886 H878 0.950 . S
C886 C884 1.391 . S
C886 C887 1.400 . S
C887 C886 1.400 . S
C887 C888 1.398 . S
C887 C893 1.491 . S
C888 H879 0.950 . S
C888 C887 1.398 . S
C888 C889 1.391 . S
C889 H877 0.950 . S
C889 C885 1.393 . S
C889 C888 1.391 . S
C890 H880 0.950 . S
C890 C891 1.386 . S
C890 C892 1.391 . S
C891 C890 1.386 . S
C891 C895 1.393 . S
C892 H881 0.950 . S
C892 C890 1.391 . S
C892 C893 1.400 . S
C893 C887 1.491 . S
C893 C892 1.400 . S
C893 C894 1.398 . S
C894 H882 0.950 . S
C894 C893 1.398 . S
C894 C895 1.391 . S
C895 H883 0.950 . S
C895 C891 1.393 . S
C895 C894 1.391 . S
H896 C904 0.950 . S
H897 C909 0.950 . S
H898 C906 0.950 . S
H899 C908 0.950 . S
H900 C910 0.950 . S
H901 C912 0.950 . S
H902 C914 0.950 . S
H903 C915 0.950 . S
C904 H896 0.950 . S
C904 C905 1.386 . S
C904 C906 1.391 . S
C905 C904 1.386 . S
C905 C909 1.393 . S
C906 H898 0.950 . S
C906 C904 1.391 . S
C906 C907 1.400 . S
C907 C906 1.400 . S
C907 C908 1.398 . S
C907 C913 1.491 . S
C908 H899 0.950 . S
C908 C907 1.398 . S
C908 C909 1.391 . S
C909 H897 0.950 . S
C909 C905 1.393 . S
C909 C908 1.391 . S
C910 H900 0.950 . S
C910 C911 1.386 . S
C910 C912 1.391 . S
C911 C910 1.386 . S
C911 C915 1.393 . S
C912 H901 0.950 . S
C912 C910 1.391 . S
C912 C913 1.400 . S
C913 C907 1.491 . S
C913 C912 1.400 . S
C913 C914 1.398 . S
C914 H902 0.950 . S
C914 C913 1.398 . S
C914 C915 1.391 . S
C915 H903 0.950 . S
C915 C911 1.393 . S
C915 C914 1.391 . S
H916 C924 0.950 . S
H917 C929 0.950 . S
H918 C926 0.950 . S
H919 C928 0.950 . S
H920 C930 0.950 . S
H921 C932 0.950 . S
H922 C934 0.950 . S
H923 C935 0.950 . S
C924 H916 0.950 . S
C924 C925 1.386 . S
C924 C926 1.391 . S
C925 C924 1.386 . S
C925 C929 1.393 . S
C926 H918 0.950 . S
C926 C924 1.391 . S
C926 C927 1.400 . S
C927 C926 1.400 . S
C927 C928 1.398 . S
C927 C933 1.491 . S
C928 H919 0.950 . S
C928 C927 1.398 . S
C928 C929 1.391 . S
C929 H917 0.950 . S
C929 C925 1.393 . S
C929 C928 1.391 . S
C930 H920 0.950 . S
C930 C931 1.386 . S
C930 C932 1.391 . S
C931 C930 1.386 . S
C931 C935 1.393 . S
C932 H921 0.950 . S
C932 C930 1.391 . S
C932 C933 1.400 . S
C933 C927 1.491 . S
C933 C932 1.400 . S
C933 C934 1.398 . S
C934 H922 0.950 . S
C934 C933 1.398 . S
C934 C935 1.391 . S
C935 H923 0.950 . S
C935 C931 1.393 . S
C935 C934 1.391 . S
H936 C944 0.950 . S
H937 C949 0.950 . S
H938 C946 0.950 . S
H939 C948 0.950 . S
H940 C950 0.950 . S
H941 C952 0.950 . S
H942 C954 0.950 . S
H943 C955 0.950 . S
C944 H936 0.950 . S
C944 C945 1.386 . S
C944 C946 1.391 . S
C945 C944 1.386 . S
C945 C949 1.393 . S
C946 H938 0.950 . S
C946 C944 1.391 . S
C946 C947 1.400 . S
C947 C946 1.400 . S
C947 C948 1.398 . S
C947 C953 1.491 . S
C948 H939 0.950 . S
C948 C947 1.398 . S
C948 C949 1.391 . S
C949 H937 0.950 . S
C949 C945 1.393 . S
C949 C948 1.391 . S
C950 H940 0.950 . S
C950 C951 1.386 . S
C950 C952 1.391 . S
C951 C950 1.386 . S
C951 C955 1.393 . S
C952 H941 0.950 . S
C952 C950 1.391 . S
C952 C953 1.400 . S
C953 C947 1.491 . S
C953 C952 1.400 . S
C953 C954 1.398 . S
C954 H942 0.950 . S
C954 C953 1.398 . S
C954 C955 1.391 . S
C955 H943 0.950 . S
C955 C951 1.393 . S
C955 C954 1.391 . S
H956 C964 0.950 . S
H957 C969 0.950 1_455 S
H958 C966 0.950 . S
H959 C968 0.950 . S
H960 C970 0.950 . S
H961 C972 0.950 . S
H962 C974 0.950 . S
H963 C975 0.950 . S
C964 H956 0.950 . S
C964 C965 1.386 . S
C964 C966 1.391 . S
C965 C964 1.386 . S
C965 C969 1.393 . S
C966 H958 0.950 . S
C966 C964 1.391 . S
C966 C967 1.400 . S
C967 C966 1.400 . S
C967 C968 1.398 . S
C967 C973 1.491 . S
C968 H959 0.950 . S
C968 C967 1.398 . S
C968 C969 1.391 . S
C969 H957 0.950 1_655 S
C969 C965 1.393 . S
C969 C968 1.391 . S
C970 H960 0.950 . S
C970 C971 1.386 . S
C970 C972 1.391 . S
C971 C970 1.386 . S
C971 C975 1.393 . S
C972 H961 0.950 . S
C972 C970 1.391 . S
C972 C973 1.400 . S
C973 C967 1.491 . S
C973 C972 1.400 . S
C973 C974 1.398 . S
C974 H962 0.950 . S
C974 C973 1.398 . S
C974 C975 1.391 . S
C975 H963 0.950 . S
C975 C971 1.393 . S
C975 C974 1.391 . S
H976 C984 0.950 . S
H977 C989 0.950 . S
H978 C986 0.950 . S
H979 C988 0.950 . S
H980 C990 0.950 . S
H981 C992 0.950 . S
H982 C994 0.950 . S
H983 C995 0.950 . S
C984 H976 0.950 . S
C984 C985 1.386 . S
C984 C986 1.391 . S
C985 C984 1.386 . S
C985 C989 1.393 . S
C986 H978 0.950 . S
C986 C984 1.391 . S
C986 C987 1.400 . S
C987 C986 1.400 . S
C987 C988 1.398 . S
C987 C993 1.491 . S
C988 H979 0.950 . S
C988 C987 1.398 . S
C988 C989 1.391 . S
C989 H977 0.950 . S
C989 C985 1.393 . S
C989 C988 1.391 . S
C990 H980 0.950 . S
C990 C991 1.386 . S
C990 C992 1.391 . S
C991 C990 1.386 . S
C991 C995 1.393 . S
C992 H981 0.950 . S
C992 C990 1.391 . S
C992 C993 1.400 . S
C993 C987 1.491 . S
C993 C992 1.400 . S
C993 C994 1.398 . S
C994 H982 0.950 . S
C994 C993 1.398 . S
C994 C995 1.391 . S
C995 H983 0.950 . S
C995 C991 1.393 . S
C995 C994 1.391 . S
H996 C1004 0.950 . S
H997 C1009 0.950 . S
H998 C1006 0.950 . S
H999 C1008 0.950 . S
H1000 C1010 0.950 . S
H1001 C1012 0.950 . S
H1002 C1014 0.950 . S
H1003 C1015 0.950 . S
C1004 H996 0.950 . S
C1004 C1005 1.386 . S
C1004 C1006 1.391 . S
C1005 C1004 1.386 . S
C1005 C1009 1.393 . S
C1006 H998 0.950 . S
C1006 C1004 1.391 . S
C1006 C1007 1.400 . S
C1007 C1006 1.400 . S
C1007 C1008 1.398 . S
C1007 C1013 1.491 . S
C1008 H999 0.950 . S
C1008 C1007 1.398 . S
C1008 C1009 1.391 . S
C1009 H997 0.950 . S
C1009 C1005 1.393 . S
C1009 C1008 1.391 . S
C1010 H1000 0.950 . S
C1010 C1011 1.386 . S
C1010 C1012 1.391 . S
C1011 C1010 1.386 . S
C1011 C1015 1.393 . S
C1012 H1001 0.950 . S
C1012 C1010 1.391 . S
C1012 C1013 1.400 . S
C1013 C1007 1.491 . S
C1013 C1012 1.400 . S
C1013 C1014 1.398 . S
C1014 H1002 0.950 . S
C1014 C1013 1.398 . S
C1014 C1015 1.391 . S
C1015 H1003 0.950 . S
C1015 C1011 1.393 . S
C1015 C1014 1.391 . S
H1016 C1024 0.950 . S
H1017 C1029 0.950 . S
H1018 C1026 0.950 . S
H1019 C1028 0.950 . S
H1020 C1030 0.950 . S
H1021 C1032 0.950 . S
H1022 C1034 0.950 . S
H1023 C1035 0.950 . S
C1024 H1016 0.950 . S
C1024 C1025 1.386 . S
C1024 C1026 1.391 . S
C1025 C1024 1.386 . S
C1025 C1029 1.393 . S
C1026 H1018 0.950 . S
C1026 C1024 1.391 . S
C1026 C1027 1.400 . S
C1027 C1026 1.400 . S
C1027 C1028 1.398 . S
C1027 C1033 1.491 . S
C1028 H1019 0.950 . S
C1028 C1027 1.398 . S
C1028 C1029 1.391 . S
C1029 H1017 0.950 . S
C1029 C1025 1.393 . S
C1029 C1028 1.391 . S
C1030 H1020 0.950 . S
C1030 C1031 1.386 . S
C1030 C1032 1.391 . S
C1031 C1030 1.386 . S
C1031 C1035 1.393 . S
C1032 H1021 0.950 . S
C1032 C1030 1.391 . S
C1032 C1033 1.400 . S
C1033 C1027 1.491 . S
C1033 C1032 1.400 . S
C1033 C1034 1.398 . S
C1034 H1022 0.950 . S
C1034 C1033 1.398 . S
C1034 C1035 1.391 . S
C1035 H1023 0.950 . S
C1035 C1031 1.393 . S
C1035 C1034 1.391 . S
H1036 C1044 0.950 . S
H1037 C1049 0.950 . S
H1038 C1046 0.950 . S
H1039 C1048 0.950 . S
H1040 C1050 0.950 . S
H1041 C1052 0.950 . S
H1042 C1054 0.950 . S
H1043 C1055 0.950 . S
C1044 H1036 0.950 . S
C1044 C1045 1.386 . S
C1044 C1046 1.391 . S
C1045 C1044 1.386 . S
C1045 C1049 1.393 . S
C1046 H1038 0.950 . S
C1046 C1044 1.391 . S
C1046 C1047 1.400 . S
C1047 C1046 1.400 . S
C1047 C1048 1.398 . S
C1047 C1053 1.491 . S
C1048 H1039 0.950 . S
C1048 C1047 1.398 . S
C1048 C1049 1.391 . S
C1049 H1037 0.950 . S
C1049 C1045 1.393 . S
C1049 C1048 1.391 . S
C1050 H1040 0.950 . S
C1050 C1051 1.386 . S
C1050 C1052 1.391 . S
C1051 C1050 1.386 . S
C1051 C1055 1.393 . S
C1052 H1041 0.950 . S
C1052 C1050 1.391 . S
C1052 C1053 1.400 . S
C1053 C1047 1.491 . S
C1053 C1052 1.400 . S
C1053 C1054 1.398 . S
C1054 H1042 0.950 . S
C1054 C1053 1.398 . S
C1054 C1055 1.391 . S
C1055 H1043 0.950 . S
C1055 C1051 1.393 . S
C1055 C1054 1.391 . S
H1056 C1064 0.950 . S
H1057 C1069 0.950 . S
H1058 C1066 0.950 . S
H1059 C1068 0.950 . S
H1060 C1070 0.950 . S
H1061 C1072 0.950 . S
H1062 C1074 0.950 . S
H1063 C1075 0.950 . S
C1064 H1056 0.950 . S
C1064 C1065 1.386 . S
C1064 C1066 1.391 . S
C1065 C1064 1.386 . S
C1065 C1069 1.393 . S
C1066 H1058 0.950 . S
C1066 C1064 1.391 . S
C1066 C1067 1.400 . S
C1067 C1066 1.400 . S
C1067 C1068 1.398 . S
C1067 C1073 1.491 . S
C1068 H1059 0.950 . S
C1068 C1067 1.398 . S
C1068 C1069 1.391 . S
C1069 H1057 0.950 . S
C1069 C1065 1.393 . S
C1069 C1068 1.391 . S
C1070 H1060 0.950 . S
C1070 C1071 1.386 . S
C1070 C1072 1.391 . S
C1071 C1070 1.386 . S
C1071 C1075 1.393 . S
C1072 H1061 0.950 . S
C1072 C1070 1.391 . S
C1072 C1073 1.400 . S
C1073 C1067 1.491 . S
C1073 C1072 1.400 . S
C1073 C1074 1.398 . S
C1074 H1062 0.950 . S
C1074 C1073 1.398 . S
C1074 C1075 1.391 . S
C1075 H1063 0.950 . S
C1075 C1071 1.393 . S
C1075 C1074 1.391 . S
H1076 C1084 0.950 . S
H1077 C1089 0.950 . S
H1078 C1086 0.950 . S
H1079 C1088 0.950 . S
H1080 C1090 0.950 . S
H1081 C1092 0.950 . S
H1082 C1094 0.950 . S
H1083 C1095 0.950 . S
C1084 H1076 0.950 . S
C1084 C1085 1.386 . S
C1084 C1086 1.391 . S
C1085 C1084 1.386 . S
C1085 C1089 1.393 . S
C1086 H1078 0.950 . S
C1086 C1084 1.391 . S
C1086 C1087 1.400 . S
C1087 C1086 1.400 . S
C1087 C1088 1.398 . S
C1087 C1093 1.491 . S
C1088 H1079 0.950 . S
C1088 C1087 1.398 . S
C1088 C1089 1.391 . S
C1089 H1077 0.950 . S
C1089 C1085 1.393 . S
C1089 C1088 1.391 . S
C1090 H1080 0.950 . S
C1090 C1091 1.386 . S
C1090 C1092 1.391 . S
C1091 C1090 1.386 . S
C1091 C1095 1.393 . S
C1092 H1081 0.950 . S
C1092 C1090 1.391 . S
C1092 C1093 1.400 . S
C1093 C1087 1.491 . S
C1093 C1092 1.400 . S
C1093 C1094 1.398 . S
C1094 H1082 0.950 . S
C1094 C1093 1.398 . S
C1094 C1095 1.391 . S
C1095 H1083 0.950 . S
C1095 C1091 1.393 . S
C1095 C1094 1.391 . S
H1096 C1104 0.950 . S
H1097 C1109 0.950 . S
H1098 C1106 0.950 . S
H1099 C1108 0.950 . S
H1100 C1110 0.950 . S
H1101 C1112 0.950 . S
H1102 C1114 0.950 . S
H1103 C1115 0.950 . S
C1104 H1096 0.950 . S
C1104 C1105 1.386 . S
C1104 C1106 1.391 . S
C1105 C1104 1.386 . S
C1105 C1109 1.393 . S
C1106 H1098 0.950 . S
C1106 C1104 1.391 . S
C1106 C1107 1.400 . S
C1107 C1106 1.400 . S
C1107 C1108 1.398 . S
C1107 C1113 1.491 . S
C1108 H1099 0.950 . S
C1108 C1107 1.398 . S
C1108 C1109 1.391 . S
C1109 H1097 0.950 . S
C1109 C1105 1.393 . S
C1109 C1108 1.391 . S
C1110 H1100 0.950 . S
C1110 C1111 1.386 . S
C1110 C1112 1.391 . S
C1111 C1110 1.386 . S
C1111 C1115 1.393 . S
C1112 H1101 0.950 . S
C1112 C1110 1.391 . S
C1112 C1113 1.400 . S
C1113 C1107 1.491 . S
C1113 C1112 1.400 . S
C1113 C1114 1.398 . S
C1114 H1102 0.950 . S
C1114 C1113 1.398 . S
C1114 C1115 1.391 . S
C1115 H1103 0.950 . S
C1115 C1111 1.393 . S
C1115 C1114 1.391 . S
H1116 C1124 0.950 . S
H1117 C1129 0.950 . S
H1118 C1126 0.950 . S
H1119 C1128 0.950 . S
H1120 C1130 0.950 . S
H1121 C1132 0.950 . S
H1122 C1134 0.950 . S
H1123 C1135 0.950 . S
C1124 H1116 0.950 . S
C1124 C1125 1.386 . S
C1124 C1126 1.391 . S
C1125 C1124 1.386 . S
C1125 C1129 1.393 . S
C1126 H1118 0.950 . S
C1126 C1124 1.391 . S
C1126 C1127 1.400 . S
C1127 C1126 1.400 . S
C1127 C1128 1.398 . S
C1127 C1133 1.491 . S
C1128 H1119 0.950 . S
C1128 C1127 1.398 . S
C1128 C1129 1.391 . S
C1129 H1117 0.950 . S
C1129 C1125 1.393 . S
C1129 C1128 1.391 . S
C1130 H1120 0.950 . S
C1130 C1131 1.386 . S
C1130 C1132 1.391 . S
C1131 C1130 1.386 . S
C1131 C1135 1.393 . S
C1132 H1121 0.950 . S
C1132 C1130 1.391 . S
C1132 C1133 1.400 . S
C1133 C1127 1.491 . S
C1133 C1132 1.400 . S
C1133 C1134 1.398 . S
C1134 H1122 0.950 . S
C1134 C1133 1.398 . S
C1134 C1135 1.391 . S
C1135 H1123 0.950 . S
C1135 C1131 1.393 . S
C1135 C1134 1.391 . S
H1136 C1144 0.950 . S
H1137 C1149 0.950 . S
H1138 C1146 0.950 . S
H1139 C1148 0.950 . S
H1140 C1150 0.950 . S
H1141 C1152 0.950 . S
H1142 C1154 0.950 . S
H1143 C1155 0.950 . S
C1144 H1136 0.950 . S
C1144 C1145 1.386 . S
C1144 C1146 1.391 . S
C1145 C1144 1.386 . S
C1145 C1149 1.393 . S
C1146 H1138 0.950 . S
C1146 C1144 1.391 . S
C1146 C1147 1.400 . S
C1147 C1146 1.400 . S
C1147 C1148 1.398 . S
C1147 C1153 1.491 . S
C1148 H1139 0.950 . S
C1148 C1147 1.398 . S
C1148 C1149 1.391 . S
C1149 H1137 0.950 . S
C1149 C1145 1.393 . S
C1149 C1148 1.391 . S
C1150 H1140 0.950 . S
C1150 C1151 1.386 . S
C1150 C1152 1.391 . S
C1151 C1150 1.386 . S
C1151 C1155 1.393 . S
C1152 H1141 0.950 . S
C1152 C1150 1.391 . S
C1152 C1153 1.400 . S
C1153 C1147 1.491 . S
C1153 C1152 1.400 . S
C1153 C1154 1.398 . S
C1154 H1142 0.950 . S
C1154 C1153 1.398 . S
C1154 C1155 1.391 . S
C1155 H1143 0.950 . S
C1155 C1151 1.393 . S
C1155 C1154 1.391 . S
H1156 C1164 0.950 . S
H1157 C1169 0.950 . S
H1158 C1166 0.950 . S
H1159 C1168 0.950 . S
H1160 C1170 0.950 . S
H1161 C1172 0.950 . S
H1162 C1174 0.950 . S
H1163 C1175 0.950 . S
C1164 H1156 0.950 . S
C1164 C1165 1.386 . S
C1164 C1166 1.391 . S
C1165 C1164 1.386 . S
C1165 C1169 1.393 . S
C1166 H1158 0.950 . S
C1166 C1164 1.391 . S
C1166 C1167 1.400 . S
C1167 C1166 1.400 . S
C1167 C1168 1.398 . S
C1167 C1173 1.491 . S
C1168 H1159 0.950 . S
C1168 C1167 1.398 . S
C1168 C1169 1.391 . S
C1169 H1157 0.950 . S
C1169 C1165 1.393 . S
C1169 C1168 1.391 . S
C1170 H1160 0.950 . S
C1170 C1171 1.386 . S
C1170 C1172 1.391 . S
C1171 C1170 1.386 . S
C1171 C1175 1.393 . S
C1172 H1161 0.950 . S
C1172 C1170 1.391 . S
C1172 C1173 1.400 . S
C1173 C1167 1.491 . S
C1173 C1172 1.400 . S
C1173 C1174 1.398 . S
C1174 H1162 0.950 . S
C1174 C1173 1.398 . S
C1174 C1175 1.391 . S
C1175 H1163 0.950 . S
C1175 C1171 1.393 . S
C1175 C1174 1.391 . S
H1176 C1184 0.950 . S
H1177 C1189 0.950 . S
H1178 C1186 0.950 . S
H1179 C1188 0.950 . S
H1180 C1190 0.950 . S
H1181 C1192 0.950 . S
H1182 C1194 0.950 . S
H1183 C1195 0.950 . S
C1184 H1176 0.950 . S
C1184 C1185 1.386 . S
C1184 C1186 1.391 . S
C1185 C1184 1.386 . S
C1185 C1189 1.393 . S
C1186 H1178 0.950 . S
C1186 C1184 1.391 . S
C1186 C1187 1.400 . S
C1187 C1186 1.400 . S
C1187 C1188 1.398 . S
C1187 C1193 1.491 . S
C1188 H1179 0.950 . S
C1188 C1187 1.398 . S
C1188 C1189 1.391 . S
C1189 H1177 0.950 . S
C1189 C1185 1.393 . S
C1189 C1188 1.391 . S
C1190 H1180 0.950 . S
C1190 C1191 1.386 . S
C1190 C1192 1.391 . S
C1191 C1190 1.386 . S
C1191 C1195 1.393 . S
C1192 H1181 0.950 . S
C1192 C1190 1.391 . S
C1192 C1193 1.400 . S
C1193 C1187 1.491 . S
C1193 C1192 1.400 . S
C1193 C1194 1.398 . S
C1194 H1182 0.950 . S
C1194 C1193 1.398 . S
C1194 C1195 1.391 . S
C1195 H1183 0.950 . S
C1195 C1191 1.393 . S
C1195 C1194 1.391 . S
H1196 C1204 0.950 . S
H1197 C1209 0.950 . S
H1198 C1206 0.950 . S
H1199 C1208 0.950 . S
H1200 C1210 0.950 . S
H1201 C1212 0.950 . S
H1202 C1214 0.950 . S
H1203 C1215 0.950 . S
C1204 H1196 0.950 . S
C1204 C1205 1.386 . S
C1204 C1206 1.391 . S
C1205 C1204 1.386 . S
C1205 C1209 1.393 . S
C1206 H1198 0.950 . S
C1206 C1204 1.391 . S
C1206 C1207 1.400 . S
C1207 C1206 1.400 . S
C1207 C1208 1.398 . S
C1207 C1213 1.491 . S
C1208 H1199 0.950 . S
C1208 C1207 1.398 . S
C1208 C1209 1.391 . S
C1209 H1197 0.950 . S
C1209 C1205 1.393 . S
C1209 C1208 1.391 . S
C1210 H1200 0.950 . S
C1210 C1211 1.386 . S
C1210 C1212 1.391 . S
C1211 C1210 1.386 . S
C1211 C1215 1.393 . S
C1212 H1201 0.950 . S
C1212 C1210 1.391 . S
C1212 C1213 1.400 . S
C1213 C1207 1.491 . S
C1213 C1212 1.400 . S
C1213 C1214 1.398 . S
C1214 H1202 0.950 . S
C1214 C1213 1.398 . S
C1214 C1215 1.391 . S
C1215 H1203 0.950 . S
C1215 C1211 1.393 . S
C1215 C1214 1.391 . S
H1216 C1224 0.950 . S
H1217 C1229 0.950 . S
H1218 C1226 0.950 . S
H1219 C1228 0.950 . S
H1220 C1230 0.950 . S
H1221 C1232 0.950 . S
H1222 C1234 0.950 . S
H1223 C1235 0.950 . S
C1224 H1216 0.950 . S
C1224 C1225 1.386 . S
C1224 C1226 1.391 . S
C1225 C1224 1.386 . S
C1225 C1229 1.393 . S
C1226 H1218 0.950 . S
C1226 C1224 1.391 . S
C1226 C1227 1.400 . S
C1227 C1226 1.400 . S
C1227 C1228 1.398 . S
C1227 C1233 1.491 . S
C1228 H1219 0.950 . S
C1228 C1227 1.398 . S
C1228 C1229 1.391 . S
C1229 H1217 0.950 . S
C1229 C1225 1.393 . S
C1229 C1228 1.391 . S
C1230 H1220 0.950 . S
C1230 C1231 1.386 . S
C1230 C1232 1.391 . S
C1231 C1230 1.386 . S
C1231 C1235 1.393 . S
C1232 H1221 0.950 . S
C1232 C1230 1.391 . S
C1232 C1233 1.400 . S
C1233 C1227 1.491 . S
C1233 C1232 1.400 . S
C1233 C1234 1.398 . S
C1234 H1222 0.950 . S
C1234 C1233 1.398 . S
C1234 C1235 1.391 . S
C1235 H1223 0.950 . S
C1235 C1231 1.393 . S
C1235 C1234 1.391 . S
H1236 C1244 0.950 . S
H1237 C1249 0.950 . S
H1238 C1246 0.950 . S
H1239 C1248 0.950 . S
H1240 C1250 0.950 . S
H1241 C1252 0.950 . S
H1242 C1254 0.950 . S
H1243 C1255 0.950 . S
C1244 H1236 0.950 . S
C1244 C1245 1.386 . S
C1244 C1246 1.391 . S
C1245 C1244 1.386 . S
C1245 C1249 1.393 . S
C1246 H1238 0.950 . S
C1246 C1244 1.391 . S
C1246 C1247 1.400 . S
C1247 C1246 1.400 . S
C1247 C1248 1.398 . S
C1247 C1253 1.491 . S
C1248 H1239 0.950 . S
C1248 C1247 1.398 . S
C1248 C1249 1.391 . S
C1249 H1237 0.950 . S
C1249 C1245 1.393 . S
C1249 C1248 1.391 . S
C1250 H1240 0.950 . S
C1250 C1251 1.386 . S
C1250 C1252 1.391 . S
C1251 C1250 1.386 . S
C1251 C1255 1.393 . S
C1252 H1241 0.950 . S
C1252 C1250 1.391 . S
C1252 C1253 1.400 . S
C1253 C1247 1.491 . S
C1253 C1252 1.400 . S
C1253 C1254 1.398 . S
C1254 H1242 0.950 . S
C1254 C1253 1.398 . S
C1254 C1255 1.391 . S
C1255 H1243 0.950 . S
C1255 C1251 1.393 . S
C1255 C1254 1.391 . S
H1256 C1264 0.950 . S
H1257 C1269 0.950 . S
H1258 C1266 0.950 . S
H1259 C1268 0.950 . S
H1260 C1270 0.950 . S
H1261 C1272 0.950 . S
H1262 C1274 0.950 . S
H1263 C1275 0.950 . S
C1264 H1256 0.950 . S
C1264 C1265 1.386 . S
C1264 C1266 1.391 . S
C1265 C1264 1.386 . S
C1265 C1269 1.393 . S
C1266 H1258 0.950 . S
C1266 C1264 1.391 . S
C1266 C1267 1.400 . S
C1267 C1266 1.400 . S
C1267 C1268 1.398 . S
C1267 C1273 1.491 . S
C1268 H1259 0.950 . S
C1268 C1267 1.398 . S
C1268 C1269 1.391 . S
C1269 H1257 0.950 . S
C1269 C1265 1.393 . S
C1269 C1268 1.391 . S
C1270 H1260 0.950 . S
C1270 C1271 1.386 . S
C1270 C1272 1.391 . S
C1271 C1270 1.386 . S
C1271 C1275 1.393 . S
C1272 H1261 0.950 . S
C1272 C1270 1.391 . S
C1272 C1273 1.400 . S
C1273 C1267 1.491 . S
C1273 C1272 1.400 . S
C1273 C1274 1.398 . S
C1274 H1262 0.950 . S
C1274 C1273 1.398 . S
C1274 C1275 1.391 . S
C1275 H1263 0.950 . S
C1275 C1271 1.393 . S
C1275 C1274 1.391 . S
H1276 C1284 0.950 . S
H1277 C1289 0.950 . S
H1278 C1286 0.950 . S
H1279 C1288 0.950 . S
H1280 C1290 0.950 . S
H1281 C1292 0.950 . S
H1282 C1294 0.950 . S
H1283 C1295 0.950 . S
C1284 H1276 0.950 . S
C1284 C1285 1.386 . S
C1284 C1286 1.391 . S
C1285 C1284 1.386 . S
C1285 C1289 1.393 . S
C1286 H1278 0.950 . S
C1286 C1284 1.391 . S
C1286 C1287 1.400 . S
C1287 C1286 1.400 . S
C1287 C1288 1.398 . S
C1287 C1293 1.491 . S
C1288 H1279 0.950 . S
C1288 C1287 1.398 . S
C1288 C1289 1.391 . S
C1289 H1277 0.950 . S
C1289 C1285 1.393 . S
C1289 C1288 1.391 . S
C1290 H1280 0.950 . S
C1290 C1291 1.386 . S
C1290 C1292 1.391 . S
C1291 C1290 1.386 . S
C1291 C1295 1.393 . S
C1292 H1281 0.950 . S
C1292 C1290 1.391 . S
C1292 C1293 1.400 . S
C1293 C1287 1.491 . S
C1293 C1292 1.400 . S
C1293 C1294 1.398 . S
C1294 H1282 0.950 . S
C1294 C1293 1.398 . S
C1294 C1295 1.391 . S
C1295 H1283 0.950 . S
C1295 C1291 1.393 . S
C1295 C1294 1.391 . S
C345 C205 1.521 . S
C351 C3 1.531 . S
C365 C23 1.508 . S
C371 C218 1.517 . S
C385 C259 1.509 . S
C391 C35 1.510 . S
C405 C50 1.518 . S
C411 C190 1.516 . S
C425 C204 1.570 . S
C431 C63 1.549 . S
C445 C79 1.516 . S
C451 C219 1.525 . S
C465 C87 1.532 . S
C471 C255 1.531 . S
C485 C106 1.516 . S
C491 C191 1.510 . S
C505 C129 1.535 . S
C511 C115 1.534 . S
C525 C149 1.578 . S
C531 C133 1.563 . S
C545 C148 1.515 . S
C551 C157 1.508 . S
C565 C161 1.518 . S
C571 C119 1.497 . S
C585 C176 1.518 . S
C591 C51 1.510 . S
C605 C59 1.528 . S
C611 C227 1.532 . S
C625 C246 1.518 . S
C631 C22 1.517 . S
C645 C21 1.453 . S
C651 C303 1.449 . S
C665 C134 1.432 . S
C671 C9 1.419 . S
C685 C329 1.432 . S
C691 C45 1.441 . S
C705 C162 1.419 . S
C711 C36 1.419 . S
C725 C302 1.466 . S
C731 C101 1.456 . S
C745 C135 1.445 . S
C751 C93 1.443 . S
C765 C77 1.423 . S
C771 C325 1.444 . S
C785 C64 1.422 . S
C791 C163 1.404 . S
C805 C217 1.420 . S
C811 C273 1.419 . S
C825 C232 1.462 . S
C831 C213 1.464 . S
C845 C189 1.444 . S
C851 C233 1.453 . S
C865 C269 1.440 . S
C871 C185 1.436 . S
C885 C37 1.427 . S
C891 C288 1.428 . S
C905 C143 1.444 . S
C911 C105 1.412 . S
C925 C8 1.418 . S
C931 C316 1.418 . S
C945 C275 1.525 . S
C951 C31 1.538 . S
C965 C7 1.508 . S
C971 C231 1.515 . S
C985 C274 1.569 . S
C991 C91 1.549 . S
C1005 C177 1.514 . S
C1011 C107 1.526 . S
C1025 C78 1.512 . S
C1031 C247 1.498 . S
C1045 C297 1.537 . S
C1051 C283 1.532 . S
C1065 C331 1.580 . S
C1071 C287 1.569 . S
C1085 C311 1.516 . S
C1091 C330 1.517 . S
C1105 C301 1.496 . S
C1111 C315 1.518 . S
C1125 C121 1.456 . S
C1131 C49 1.441 . S
C1145 C17 1.443 . S
C1151 C147 1.438 . S
C1165 C73 1.462 . S
C1171 C120 1.466 . S
C1185 C289 1.432 . S
C1191 C65 1.437 . S
C1205 C92 1.422 . S
C1211 C317 1.403 . S
C1225 C175 1.435 . S
C1231 C203 1.434 . S
C1245 C260 1.465 . S
C1251 C171 1.456 . S
C1265 C245 1.455 . S
C1271 C261 1.450 . S
C1285 C199 1.439 . S
C1291 C241 1.438 . S
