# Generated by pormake.
# Topology umm, (4)-cn, num edge types: 1
# Building blocks:
#     Node 0, Type 0, BuildingBlock: GALJAG_clean_sbu_0, # of connection points: 4
#     Node 1, Type 0, BuildingBlock: GALJAG_clean_sbu_0, # of connection points: 4
#     Node 2, Type 0, BuildingBlock: GALJAG_clean_sbu_0, # of connection points: 4
#     Node 3, Type 0, BuildingBlock: GALJAG_clean_sbu_0, # of connection points: 4
#     Node 4, Type 0, BuildingBlock: GALJAG_clean_sbu_0, # of connection points: 4
#     Node 5, Type 0, BuildingBlock: GALJAG_clean_sbu_0, # of connection points: 4
#     Node 6, Type 0, BuildingBlock: GALJAG_clean_sbu_0, # of connection points: 4
#     Node 7, Type 0, BuildingBlock: GALJAG_clean_sbu_0, # of connection points: 4
#     Node 8, Type 0, BuildingBlock: GALJAG_clean_sbu_0, # of connection points: 4
#     Node 9, Type 0, BuildingBlock: GALJAG_clean_sbu_0, # of connection points: 4
#     Node 10, Type 0, BuildingBlock: GALJAG_clean_sbu_0, # of connection points: 4
#     Node 11, Type 0, BuildingBlock: GALJAG_clean_sbu_0, # of connection points: 4
#     Edge 12, Type (0, 0), BuildingBlock: MIFKUJ_clean_linker_0, # of connection points: 2
#     Edge 13, Type (0, 0), BuildingBlock: MIFKUJ_clean_linker_0, # of connection points: 2
#     Edge 14, Type (0, 0), BuildingBlock: MIFKUJ_clean_linker_0, # of connection points: 2
#     Edge 15, Type (0, 0), BuildingBlock: MIFKUJ_clean_linker_0, # of connection points: 2
#     Edge 16, Type (0, 0), BuildingBlock: MIFKUJ_clean_linker_0, # of connection points: 2
#     Edge 17, Type (0, 0), BuildingBlock: MIFKUJ_clean_linker_0, # of connection points: 2
#     Edge 18, Type (0, 0), BuildingBlock: MIFKUJ_clean_linker_0, # of connection points: 2
#     Edge 19, Type (0, 0), BuildingBlock: MIFKUJ_clean_linker_0, # of connection points: 2
#     Edge 20, Type (0, 0), BuildingBlock: MIFKUJ_clean_linker_0, # of connection points: 2
#     Edge 21, Type (0, 0), BuildingBlock: MIFKUJ_clean_linker_0, # of connection points: 2
#     Edge 22, Type (0, 0), BuildingBlock: MIFKUJ_clean_linker_0, # of connection points: 2
#     Edge 23, Type (0, 0), BuildingBlock: MIFKUJ_clean_linker_0, # of connection points: 2
#     Edge 24, Type (0, 0), BuildingBlock: MIFKUJ_clean_linker_0, # of connection points: 2
#     Edge 25, Type (0, 0), BuildingBlock: MIFKUJ_clean_linker_0, # of connection points: 2
#     Edge 26, Type (0, 0), BuildingBlock: MIFKUJ_clean_linker_0, # of connection points: 2
#     Edge 27, Type (0, 0), BuildingBlock: MIFKUJ_clean_linker_0, # of connection points: 2
#     Edge 28, Type (0, 0), BuildingBlock: MIFKUJ_clean_linker_0, # of connection points: 2
#     Edge 29, Type (0, 0), BuildingBlock: MIFKUJ_clean_linker_0, # of connection points: 2
#     Edge 30, Type (0, 0), BuildingBlock: MIFKUJ_clean_linker_0, # of connection points: 2
#     Edge 31, Type (0, 0), BuildingBlock: MIFKUJ_clean_linker_0, # of connection points: 2
#     Edge 32, Type (0, 0), BuildingBlock: MIFKUJ_clean_linker_0, # of connection points: 2
#     Edge 33, Type (0, 0), BuildingBlock: MIFKUJ_clean_linker_0, # of connection points: 2
#     Edge 34, Type (0, 0), BuildingBlock: MIFKUJ_clean_linker_0, # of connection points: 2
#     Edge 35, Type (0, 0), BuildingBlock: MIFKUJ_clean_linker_0, # of connection points: 2
# Relax obj value: 0.093
# Max RMSD: 0.220
# Mean RMSD: 0.220
data_MOF--net-umm--node1-GALJAG_clean_sbu_0--edge1-MIFKUJ_clean_linker_0
_symmetry_space_group_name_H-M    P1
_symmetry_Int_Tables_number       1
_symmetry_cell_setting            triclinic
loop_
_symmetry_equiv_pos_as_xyz
'x, y, z'
_cell_length_a     72.413422
_cell_length_b     72.410199
_cell_length_c     36.922835
_cell_angle_alpha  90.003149
_cell_angle_beta   90.009564
_cell_angle_gamma 120.02069
loop_
_atom_site_label
_atom_site_type_symbol
_atom_site_fract_x
_atom_site_fract_y
_atom_site_fract_z
_atom_type_partial_charge
In0 In 0.39603 0.5471 0.07184 0.0
O1 O 0.40791 0.57527 0.11077 0.0
O2 O 0.38135 0.54571 0.12705 0.0
C3 C 0.41366 0.57002 0.01127 0.0
C4 C 0.42165 0.53095 0.0873 0.0
C5 C 0.35551 0.52398 0.04785 0.0
O6 O 0.40667 0.57676 0.03637 0.0
O7 O 0.4128 0.55251 0.01791 0.0
O8 O 0.36271 0.51657 0.07147 0.0
O9 O 0.36837 0.54266 0.0376 0.0
C10 C 0.39454 0.5648 0.13528 0.0
O11 O 0.4054 0.52119 0.06731 0.0
O12 O 0.42466 0.54845 0.09968 0.0
In13 In 0.8395 0.38007 0.4206 0.0
O14 O 0.82276 0.39116 0.4602 0.0
O15 O 0.83757 0.37428 0.48113 0.0
C16 C 0.82957 0.38814 0.3543 0.0
C17 C 0.88036 0.41163 0.42659 0.0
C18 C 0.82175 0.33765 0.41145 0.0
O19 O 0.81869 0.38707 0.38188 0.0
O20 O 0.84509 0.38534 0.36064 0.0
O21 O 0.84149 0.35024 0.40676 0.0
O22 O 0.81136 0.34642 0.42169 0.0
C23 C 0.82726 0.38373 0.48772 0.0
O24 O 0.8753 0.39216 0.42695 0.0
O25 O 0.86487 0.41489 0.42363 0.0
In26 In 0.46458 0.84205 0.7549 0.0
O27 O 0.43624 0.82745 0.79374 0.0
O28 O 0.46759 0.84106 0.81581 0.0
C29 C 0.44827 0.83414 0.68771 0.0
C30 C 0.47925 0.88439 0.75657 0.0
C31 C 0.48085 0.81597 0.7497 0.0
O32 O 0.43646 0.82947 0.71543 0.0
O33 O 0.46799 0.84279 0.69411 0.0
O34 O 0.49282 0.83606 0.75124 0.0
O35 O 0.46111 0.80943 0.75187 0.0
C36 C 0.44777 0.83186 0.82174 0.0
O37 O 0.49187 0.87705 0.7579 0.0
O38 O 0.45979 0.87046 0.75444 0.0
In39 In 0.61828 0.46839 0.08865 0.0
O40 O 0.60409 0.43885 0.12455 0.0
O41 O 0.6247 0.46915 0.14882 0.0
C42 C 0.60758 0.44976 0.02267 0.0
C43 C 0.59038 0.48196 0.1015 0.0
C44 C 0.66092 0.49197 0.07933 0.0
O45 O 0.61309 0.44192 0.04815 0.0
O46 O 0.60696 0.46628 0.03099 0.0
O47 O 0.64868 0.49913 0.07155 0.0
O48 O 0.65174 0.4735 0.09271 0.0
C49 C 0.61295 0.44924 0.15308 0.0
O50 O 0.60981 0.49491 0.09457 0.0
O51 O 0.58536 0.4626 0.10219 0.0
In52 In 0.13856 0.61546 0.41632 0.0
O53 O 0.15717 0.60645 0.45559 0.0
O54 O 0.13567 0.61569 0.47731 0.0
C55 C 0.14953 0.60927 0.34977 0.0
C56 C 0.09696 0.58537 0.41695 0.0
C57 C 0.16068 0.65825 0.41228 0.0
O58 O 0.15404 0.60222 0.37779 0.0
O59 O 0.13944 0.61897 0.35561 0.0
O60 O 0.14081 0.64779 0.40606 0.0
O61 O 0.16877 0.64716 0.4221 0.0
C62 C 0.14892 0.60956 0.48351 0.0
O63 O 0.10298 0.605 0.42049 0.0
O64 O 0.11185 0.58128 0.4129 0.0
In65 In 0.54442 0.14576 0.73419 0.0
O66 O 0.57296 0.16178 0.77269 0.0
O67 O 0.54165 0.15007 0.79413 0.0
C68 C 0.55983 0.15371 0.6662 0.0
C69 C 0.53334 0.10451 0.7423 0.0
C70 C 0.52357 0.16758 0.72792 0.0
O71 O 0.57153 0.16346 0.69309 0.0
O72 O 0.5409 0.13993 0.67401 0.0
O73 O 0.51366 0.14737 0.7271 0.0
O74 O 0.54348 0.17626 0.73229 0.0
C75 C 0.56147 0.15932 0.80016 0.0
O76 O 0.51949 0.1103 0.74119 0.0
O77 O 0.55239 0.11944 0.73935 0.0
In78 In 0.46272 0.60878 0.57633 0.0
O79 O 0.43554 0.59893 0.53528 0.0
O80 O 0.46754 0.61578 0.51618 0.0
C81 C 0.43817 0.59974 0.63624 0.0
C82 C 0.47424 0.57888 0.56945 0.0
C83 C 0.49074 0.64934 0.59577 0.0
O84 O 0.44877 0.59081 0.6287 0.0
O85 O 0.43883 0.61255 0.61241 0.0
O86 O 0.49188 0.63369 0.60823 0.0
O87 O 0.4765 0.64451 0.57211 0.0
C88 C 0.44796 0.60683 0.50848 0.0
O89 O 0.48796 0.59857 0.57068 0.0
O90 O 0.45511 0.5746 0.57141 0.0
In91 In 0.84628 0.45785 0.92384 0.0
O92 O 0.82767 0.42967 0.8851 0.0
O93 O 0.84173 0.46118 0.86394 0.0
C94 C 0.83091 0.43167 0.98189 0.0
C95 C 0.88832 0.47141 0.91619 0.0
C96 C 0.83464 0.4867 0.94292 0.0
O97 O 0.81873 0.43427 0.96061 0.0
O98 O 0.85021 0.44121 0.97255 0.0
O99 O 0.84603 0.48229 0.96292 0.0
O100 O 0.83007 0.47741 0.91266 0.0
C101 C 0.83112 0.44142 0.85767 0.0
O102 O 0.88174 0.48412 0.92411 0.0
O103 O 0.87379 0.45239 0.91155 0.0
In104 In 0.38362 0.85261 0.25452 0.0
O105 O 0.39718 0.83811 0.21507 0.0
O106 O 0.37876 0.85115 0.19376 0.0
C107 C 0.39099 0.8425 0.32081 0.0
C108 C 0.41242 0.89467 0.25325 0.0
C109 C 0.34107 0.82847 0.26084 0.0
O110 O 0.39681 0.83697 0.29242 0.0
O111 O 0.38181 0.85317 0.31547 0.0
O112 O 0.35041 0.84864 0.26305 0.0
O113 O 0.35316 0.82098 0.25433 0.0
C114 C 0.38941 0.84204 0.1874 0.0
O115 O 0.39272 0.88786 0.24841 0.0
O116 O 0.41716 0.88036 0.25867 0.0
In117 In 0.54282 0.38593 0.58794 0.0
O118 O 0.56954 0.39731 0.54613 0.0
O119 O 0.53788 0.37533 0.52915 0.0
C120 C 0.56374 0.40157 0.65063 0.0
C121 C 0.5284 0.41331 0.57763 0.0
C122 C 0.52386 0.34472 0.60812 0.0
O123 O 0.57236 0.39783 0.624 0.0
O124 O 0.54499 0.39788 0.64518 0.0
O125 O 0.51293 0.35309 0.5983 0.0
O126 O 0.54376 0.35688 0.60646 0.0
C127 C 0.55725 0.38673 0.52043 0.0
O128 O 0.5159 0.39393 0.58575 0.0
O129 O 0.54776 0.41848 0.57463 0.0
In130 In 0.14995 0.53741 0.91741 0.0
O131 O 0.11464 0.51128 0.91469 0.0
O132 O 0.12241 0.54338 0.92428 0.0
C133 C 0.17208 0.51668 0.91958 0.0
C134 C 0.15799 0.55271 0.84941 0.0
C135 C 0.16225 0.55667 0.98238 0.0
O136 O 0.15289 0.50797 0.93008 0.0
O137 O 0.17959 0.53529 0.90708 0.0
O138 O 0.16473 0.56728 0.95374 0.0
O139 O 0.15394 0.53684 0.9778 0.0
C140 C 0.10797 0.52423 0.92006 0.0
O141 O 0.16734 0.56447 0.87648 0.0
O142 O 0.1449 0.53346 0.85689 0.0
In143 In 0.61451 0.15311 0.23712 0.0
O144 O 0.6033 0.11728 0.24179 0.0
O145 O 0.58157 0.12638 0.22168 0.0
C146 C 0.65324 0.16207 0.26191 0.0
C147 C 0.61698 0.16925 0.17034 0.0
C148 C 0.60306 0.17053 0.29111 0.0
O149 O 0.63649 0.15229 0.28064 0.0
O150 O 0.65026 0.16616 0.22995 0.0
O151 O 0.62048 0.18099 0.27434 0.0
O152 O 0.5911 0.152 0.27907 0.0
C153 C 0.58473 0.11136 0.23027 0.0
O154 O 0.60947 0.1743 0.197 0.0
O155 O 0.62359 0.15654 0.17766 0.0
H156 H 0.42706 0.60137 0.16383 0.0
H157 H 0.43337 0.61111 0.22792 0.0
H158 H 0.37264 0.55651 0.25511 0.0
H159 H 0.36628 0.54647 0.191 0.0
H160 H 0.38492 0.59565 0.29771 0.0
H161 H 0.41072 0.54861 0.26053 0.0
H162 H 0.43075 0.53766 0.22035 0.0
H163 H 0.48884 0.59543 0.24534 0.0
H164 H 0.46906 0.60692 0.28512 0.0
H165 H 0.40719 0.58297 0.48247 0.0
H166 H 0.39573 0.57819 0.41901 0.0
H167 H 0.46037 0.6222 0.38605 0.0
H168 H 0.47193 0.62657 0.44907 0.0
H169 H 0.44486 0.5882 0.34586 0.0
H170 H 0.42002 0.63525 0.3843 0.0
H171 H 0.40032 0.64748 0.42258 0.0
H172 H 0.34129 0.59136 0.39502 0.0
H173 H 0.36068 0.57865 0.35694 0.0
C174 C 0.41479 0.59174 0.18331 0.0
C175 C 0.39627 0.57305 0.17247 0.0
C176 C 0.41844 0.59731 0.2199 0.0
C177 C 0.40355 0.5844 0.24618 0.0
C178 C 0.38429 0.56666 0.23519 0.0
C179 C 0.38073 0.56093 0.19859 0.0
C180 C 0.40926 0.58792 0.28506 0.0
C181 C 0.39787 0.59384 0.30846 0.0
C182 C 0.42636 0.58582 0.29875 0.0
C183 C 0.43837 0.57873 0.27549 0.0
C184 C 0.42774 0.55905 0.25723 0.0
C185 C 0.43904 0.55274 0.23455 0.0
C186 C 0.46104 0.56587 0.23022 0.0
C187 C 0.47179 0.5853 0.24867 0.0
C188 C 0.46054 0.59172 0.27129 0.0
C189 C 0.41888 0.59176 0.46167 0.0
C190 C 0.44046 0.60509 0.47071 0.0
C191 C 0.41231 0.58909 0.42543 0.0
C192 C 0.42717 0.59994 0.39768 0.0
C193 C 0.44862 0.61361 0.40689 0.0
C194 C 0.4552 0.61613 0.44297 0.0
C195 C 0.42073 0.59628 0.35891 0.0
C196 C 0.43194 0.59014 0.33538 0.0
C197 C 0.40353 0.5983 0.34519 0.0
C198 C 0.39183 0.60589 0.36807 0.0
C199 C 0.40286 0.62543 0.38664 0.0
C200 C 0.39175 0.63247 0.40826 0.0
C201 C 0.36958 0.62017 0.41131 0.0
C202 C 0.35847 0.60084 0.39267 0.0
C203 C 0.36951 0.59373 0.37105 0.0
H204 H 0.361 0.62565 0.42805 0.0
H205 H 0.46976 0.56096 0.21263 0.0
H206 H 0.81505 0.41181 0.51138 0.0
H207 H 0.81054 0.41961 0.57437 0.0
H208 H 0.82338 0.37065 0.61129 0.0
H209 H 0.8282 0.36297 0.54855 0.0
H210 H 0.78898 0.37208 0.64907 0.0
H211 H 0.86248 0.41796 0.61227 0.0
H212 H 0.89065 0.44425 0.57228 0.0
H213 H 0.86912 0.48882 0.59246 0.0
H214 H 0.84058 0.46264 0.63216 0.0
H215 H 0.82159 0.40224 0.83189 0.0
H216 H 0.81595 0.39055 0.76865 0.0
H217 H 0.82026 0.44994 0.73666 0.0
H218 H 0.82694 0.46202 0.79952 0.0
H219 H 0.84373 0.44311 0.69471 0.0
H220 H 0.7719 0.39928 0.73481 0.0
H221 H 0.74275 0.37327 0.77361 0.0
H222 H 0.75908 0.3255 0.74675 0.0
H223 H 0.78853 0.35131 0.70815 0.0
C224 C 0.8166 0.40251 0.53291 0.0
C225 C 0.82212 0.38688 0.52512 0.0
C226 C 0.81404 0.40699 0.56882 0.0
C227 C 0.81673 0.39576 0.59741 0.0
C228 C 0.82119 0.37944 0.58958 0.0
C229 C 0.82404 0.37516 0.55376 0.0
C230 C 0.81659 0.4021 0.63551 0.0
C231 C 0.80097 0.38754 0.65926 0.0
C232 C 0.83199 0.42245 0.6484 0.0
C233 C 0.84926 0.43826 0.62483 0.0
C234 C 0.86364 0.4333 0.60793 0.0
C235 C 0.87969 0.44819 0.58536 0.0
C236 C 0.88163 0.46817 0.57974 0.0
C237 C 0.86757 0.47332 0.59678 0.0
C238 C 0.85146 0.45847 0.61932 0.0
C239 C 0.82098 0.41262 0.81138 0.0
C240 C 0.82475 0.43304 0.82053 0.0
C241 C 0.81766 0.4059 0.77521 0.0
C242 C 0.81749 0.41927 0.7477 0.0
C243 C 0.82041 0.43934 0.75722 0.0
C244 C 0.82415 0.44621 0.79319 0.0
C245 C 0.81596 0.41313 0.70883 0.0
C246 C 0.83144 0.42771 0.68477 0.0
C247 C 0.80026 0.39288 0.69567 0.0
C248 C 0.78255 0.3773 0.71883 0.0
C249 C 0.76938 0.38327 0.73739 0.0
C250 C 0.75278 0.36856 0.75931 0.0
C251 C 0.74909 0.34776 0.76271 0.0
C252 C 0.76197 0.34162 0.74412 0.0
C253 C 0.7786 0.35628 0.72218 0.0
H254 H 0.73623 0.33639 0.77969 0.0
H255 H 0.89407 0.47968 0.56226 0.0
H256 H 0.40763 0.8217 0.843 0.0
H257 H 0.39468 0.81902 0.90525 0.0
H258 H 0.45525 0.83035 0.94625 0.0
H259 H 0.46836 0.83329 0.88424 0.0
H260 H 0.41867 0.79773 0.98418 0.0
H261 H 0.44843 0.87062 0.94194 0.0
H262 H 0.45143 0.89821 0.89932 0.0
H263 H 0.38555 0.87876 0.91688 0.0
H264 H 0.38209 0.85082 0.95921 0.0
H265 H 0.42008 0.83349 0.1637 0.0
H266 H 0.4272 0.8277 0.10118 0.0
H267 H 0.37309 0.83258 0.06501 0.0
H268 H 0.36661 0.83938 0.12719 0.0
H269 H 0.40406 0.85479 0.02299 0.0
H270 H 0.37385 0.78367 0.06798 0.0
H271 H 0.36947 0.75507 0.10949 0.0
H272 H 0.43329 0.7691 0.08615 0.0
H273 H 0.43816 0.79799 0.04486 0.0
C274 C 0.41806 0.82332 0.8653 0.0
C275 C 0.43904 0.82785 0.85885 0.0
C276 C 0.41066 0.82181 0.90077 0.0
C277 C 0.42408 0.82462 0.93024 0.0
C278 C 0.44467 0.82811 0.92383 0.0
C279 C 0.45215 0.82988 0.88843 0.0
C280 C 0.41732 0.82552 0.96769 0.0
C281 C 0.41557 0.81023 0.99288 0.0
C282 C 0.41282 0.84157 0.9786 0.0
C283 C 0.41494 0.85848 0.9534 0.0
C284 C 0.43454 0.87211 0.93647 0.0
C285 C 0.43633 0.88783 0.91241 0.0
C286 C 0.41867 0.89019 0.90531 0.0
C287 C 0.3992 0.87688 0.92235 0.0
C288 C 0.39732 0.86111 0.94639 0.0
C289 C 0.40963 0.83313 0.14239 0.0
C290 C 0.39283 0.83691 0.15021 0.0
C291 C 0.41361 0.82969 0.10668 0.0
C292 C 0.40051 0.82941 0.07829 0.0
C293 C 0.38345 0.83275 0.08634 0.0
C294 C 0.37972 0.83659 0.12189 0.0
C295 C 0.40529 0.82691 0.04 0.0
C296 C 0.40682 0.84202 0.01452 0.0
C297 C 0.40931 0.81052 0.02881 0.0
C298 C 0.40643 0.79312 0.05355 0.0
C299 C 0.387 0.78076 0.0719 0.0
C300 C 0.38442 0.76448 0.09536 0.0
C301 C 0.40111 0.76031 0.10052 0.0
C302 C 0.42039 0.77237 0.08216 0.0
C303 C 0.42306 0.78868 0.05869 0.0
H304 H 0.39908 0.7477 0.11869 0.0
H305 H 0.42009 0.90238 0.88668 0.0
H306 H 0.63637 0.46574 0.21444 0.0
H307 H 0.62772 0.45071 0.27561 0.0
H308 H 0.57115 0.39568 0.23479 0.0
H309 H 0.57995 0.41043 0.17329 0.0
H310 H 0.56507 0.41806 0.2949 0.0
H311 H 0.6079 0.38733 0.26063 0.0
H312 H 0.63997 0.38792 0.23667 0.0
H313 H 0.67779 0.43081 0.32148 0.0
H314 H 0.64599 0.43073 0.34565 0.0
H315 H 0.53384 0.36464 0.46168 0.0
H316 H 0.54431 0.37157 0.39803 0.0
H317 H 0.60705 0.42147 0.42946 0.0
H318 H 0.59678 0.41433 0.49332 0.0
H319 H 0.60942 0.39955 0.37256 0.0
H320 H 0.56973 0.43374 0.4041 0.0
H321 H 0.53942 0.43637 0.42845 0.0
H322 H 0.49779 0.391 0.34962 0.0
H323 H 0.52783 0.38789 0.32508 0.0
C324 C 0.62226 0.45029 0.21843 0.0
C325 C 0.60881 0.43924 0.1892 0.0
C326 C 0.61738 0.44172 0.25332 0.0
C327 C 0.59884 0.4221 0.25959 0.0
C328 C 0.58557 0.41083 0.23037 0.0
C329 C 0.59064 0.41922 0.19533 0.0
C330 C 0.59263 0.41416 0.29705 0.0
C331 C 0.57449 0.41357 0.31171 0.0
C332 C 0.60544 0.40913 0.31917 0.0
C333 C 0.62459 0.40917 0.30476 0.0
C334 C 0.62309 0.39704 0.27398 0.0
C335 C 0.64121 0.39725 0.2604 0.0
C336 C 0.66091 0.40944 0.27749 0.0
C337 C 0.66252 0.4214 0.30825 0.0
C338 C 0.64445 0.42126 0.32193 0.0
C339 C 0.54997 0.37688 0.45506 0.0
C340 C 0.56445 0.38908 0.48244 0.0
C341 C 0.55589 0.38087 0.41868 0.0
C342 C 0.57633 0.3973 0.40899 0.0
C343 C 0.59118 0.40876 0.43634 0.0
C344 C 0.58528 0.4047 0.47279 0.0
C345 C 0.58175 0.40332 0.37044 0.0
C346 C 0.59982 0.40374 0.35565 0.0
C347 C 0.5691 0.40861 0.34828 0.0
C348 C 0.55098 0.41039 0.36303 0.0
C349 C 0.55407 0.42418 0.39216 0.0
C350 C 0.53695 0.42579 0.40596 0.0
C351 C 0.51668 0.41381 0.39066 0.0
C352 C 0.5135 0.40024 0.36148 0.0
C353 C 0.53057 0.39855 0.3476 0.0
H354 H 0.50344 0.41507 0.40136 0.0
H355 H 0.67493 0.40957 0.26694 0.0
H356 H 0.12765 0.60764 0.54528 0.0
H357 H 0.1354 0.60133 0.60679 0.0
H358 H 0.1899 0.59804 0.56788 0.0
H359 H 0.18163 0.60353 0.50575 0.0
H360 H 0.17018 0.56817 0.61404 0.0
H361 H 0.19535 0.64221 0.61681 0.0
H362 H 0.19482 0.67564 0.6073 0.0
H363 H 0.14181 0.65418 0.68022 0.0
H364 H 0.14181 0.62048 0.68978 0.0
H365 H 0.18771 0.59229 0.8244 0.0
H366 H 0.19302 0.60512 0.76163 0.0
H367 H 0.14117 0.54408 0.72728 0.0
H368 H 0.13627 0.53109 0.78934 0.0
H369 H 0.1689 0.61126 0.71748 0.0
H370 H 0.14766 0.53144 0.644 0.0
H371 H 0.15281 0.5006 0.65337 0.0
H372 H 0.20687 0.53854 0.72148 0.0
H373 H 0.20226 0.56969 0.71211 0.0
C374 C 0.14135 0.60566 0.54982 0.0
C375 C 0.15408 0.60614 0.52074 0.0
C376 C 0.14587 0.60221 0.58508 0.0
C377 C 0.16351 0.59965 0.59221 0.0
C378 C 0.17625 0.60007 0.56313 0.0
C379 C 0.17154 0.60323 0.52767 0.0
C380 C 0.16795 0.59563 0.62986 0.0
C381 C 0.17006 0.5777 0.63661 0.0
C382 C 0.16855 0.60844 0.65936 0.0
C383 C 0.16851 0.62874 0.65386 0.0
C384 C 0.18349 0.64455 0.63065 0.0
C385 C 0.18329 0.66357 0.62527 0.0
C386 C 0.16827 0.66702 0.6431 0.0
C387 C 0.15344 0.65148 0.66642 0.0
C388 C 0.15355 0.63243 0.67188 0.0
C389 C 0.1776 0.5816 0.80334 0.0
C390 C 0.16165 0.56067 0.81174 0.0
C391 C 0.18061 0.58893 0.76753 0.0
C392 C 0.16772 0.57547 0.73957 0.0
C393 C 0.15169 0.55463 0.74812 0.0
C394 C 0.14881 0.54726 0.78372 0.0
C395 C 0.17016 0.58328 0.70166 0.0
C396 C 0.16935 0.60193 0.69487 0.0
C397 C 0.17148 0.57153 0.67209 0.0
C398 C 0.1745 0.55288 0.67752 0.0
C399 C 0.16072 0.53325 0.6608 0.0
C400 C 0.16353 0.5157 0.66616 0.0
C401 C 0.18013 0.51759 0.68807 0.0
C402 C 0.19399 0.53707 0.70461 0.0
C403 C 0.19126 0.55467 0.69931 0.0
H404 H 0.18227 0.50398 0.69221 0.0
H405 H 0.16815 0.68175 0.63889 0.0
H406 H 0.59373 0.18662 0.14432 0.0
H407 H 0.58773 0.19155 0.08059 0.0
H408 H 0.63204 0.17133 0.048 0.0
H409 H 0.63792 0.1661 0.11155 0.0
H410 H 0.63364 0.20631 0.00521 0.0
H411 H 0.58395 0.13519 0.05037 0.0
H412 H 0.5571 0.11024 0.09365 0.0
H413 H 0.51656 0.13611 0.06921 0.0
H414 H 0.54337 0.16148 0.02622 0.0
H415 H 0.59982 0.16654 0.82649 0.0
H416 H 0.61228 0.17422 0.8893 0.0
H417 H 0.55545 0.17588 0.91905 0.0
H418 H 0.54255 0.16714 0.85685 0.0
H419 H 0.5607 0.1531 0.96468 0.0
H420 H 0.60768 0.22198 0.91558 0.0
H421 H 0.63434 0.24834 0.87366 0.0
H422 H 0.67938 0.22926 0.90557 0.0
H423 H 0.65288 0.20258 0.94734 0.0
C424 C 0.60255 0.18369 0.12361 0.0
C425 C 0.61612 0.17577 0.1328 0.0
C426 C 0.59911 0.18651 0.08727 0.0
C427 C 0.60935 0.18165 0.0597 0.0
C428 C 0.62405 0.1752 0.06893 0.0
C429 C 0.62729 0.17212 0.1052 0.0
C430 C 0.60286 0.18075 0.02146 0.0
C431 C 0.61775 0.19466 0.99612 0.0
C432 C 0.58199 0.16583 0.00999 0.0
C433 C 0.56575 0.15038 0.03541 0.0
C434 C 0.56939 0.13567 0.05446 0.0
C435 C 0.55417 0.12144 0.0789 0.0
C436 C 0.53516 0.12163 0.08425 0.0
C437 C 0.53131 0.13601 0.06509 0.0
C438 C 0.5465 0.15031 0.04068 0.0
C439 C 0.59016 0.1688 0.84643 0.0
C440 C 0.5702 0.16614 0.83695 0.0
C441 C 0.59733 0.17333 0.88229 0.0
C442 C 0.58491 0.17585 0.90902 0.0
C443 C 0.5653 0.17393 0.89908 0.0
C444 C 0.55795 0.16896 0.8635 0.0
C445 C 0.59143 0.1788 0.94778 0.0
C446 C 0.57654 0.16507 0.97343 0.0
C447 C 0.61223 0.19411 0.95945 0.0
C448 C 0.62822 0.21014 0.93436 0.0
C449 C 0.62321 0.22329 0.91346 0.0
C450 C 0.63831 0.23831 0.88976 0.0
C451 C 0.65852 0.24044 0.88689 0.0
C452 C 0.6637 0.22758 0.90779 0.0
C453 C 0.64866 0.21252 0.93151 0.0
H454 H 0.67019 0.25208 0.86853 0.0
H455 H 0.5234 0.11061 0.10319 0.0
H456 H 0.34501 0.52182 0.97772 0.0
H457 H 0.3097 0.51068 0.95285 0.0
H458 H 0.28207 0.4904 0.05906 0.0
H459 H 0.31758 0.50089 0.08389 0.0
H460 H 0.25382 0.46585 8e-05 0.0
H461 H 0.29843 0.53944 0.03717 0.0
H462 H 0.33231 0.5737 0.0382 0.0
H463 H 0.32918 0.57907 0.92282 0.0
H464 H 0.29548 0.54463 0.92104 0.0
H465 H 0.16945 0.49021 0.97444 0.0
H466 H 0.19751 0.48276 0.99331 0.0
H467 H 0.23397 0.5151 0.89805 0.0
H468 H 0.20649 0.52345 0.88027 0.0
H469 H 0.25701 0.53171 0.95375 0.0
H470 H 0.21198 0.4594 0.91521 0.0
H471 H 0.17903 0.4244 0.91218 0.0
H472 H 0.1827 0.41591 0.02653 0.0
H473 H 0.21554 0.451 0.03034 0.0
C474 C 0.33127 0.51428 0.99547 0.0
C475 C 0.33388 0.51235 0.03264 0.0
C476 C 0.31115 0.50791 0.98128 0.0
C477 C 0.29338 0.50014 0.00425 0.0
C478 C 0.29561 0.49639 0.04092 0.0
C479 C 0.31584 0.50239 0.05507 0.0
C480 C 0.27376 0.49956 0.99105 0.0
C481 C 0.25435 0.48022 0.99023 0.0
C482 C 0.27462 0.51831 0.97774 0.0
C483 C 0.29451 0.53939 0.97896 0.0
C484 C 0.30501 0.54789 0.01201 0.0
C485 C 0.32419 0.56733 0.01272 0.0
C486 C 0.3329 0.57854 0.98059 0.0
C487 C 0.32239 0.57039 0.9477 0.0
C488 C 0.30326 0.5509 0.94682 0.0
C489 C 0.18318 0.49513 0.95705 0.0
C490 C 0.18593 0.5075 0.92605 0.0
C491 C 0.19921 0.49084 0.9678 0.0
C492 C 0.21796 0.49842 0.94719 0.0
C493 C 0.21978 0.50924 0.91461 0.0
C494 C 0.20404 0.51393 0.90435 0.0
C495 C 0.23684 0.49781 0.96164 0.0
C496 C 0.25626 0.51716 0.9632 0.0
C497 C 0.23586 0.47904 0.97532 0.0
C498 C 0.21612 0.45794 0.97311 0.0
C499 C 0.20567 0.45016 0.93977 0.0
C500 C 0.18703 0.43028 0.9379 0.0
C501 C 0.17874 0.41796 0.96916 0.0
C502 C 0.18912 0.42548 0.00234 0.0
C503 C 0.20776 0.44535 0.00437 0.0
H504 H 0.16431 0.40258 0.96765 0.0
H505 H 0.34778 0.59356 0.98117 0.0
H506 H 0.78466 0.3058 0.43886 0.0
H507 H 0.76296 0.2698 0.4143 0.0
H508 H 0.81173 0.28257 0.33519 0.0
H509 H 0.83386 0.31852 0.36046 0.0
H510 H 0.76949 0.27142 0.30799 0.0
H511 H 0.80252 0.24521 0.38855 0.0
H512 H 0.81576 0.2405 0.44734 0.0
H513 H 0.75217 0.21003 0.49037 0.0
H514 H 0.73856 0.21484 0.432 0.0
H515 H 0.69144 0.17779 0.22693 0.0
H516 H 0.72678 0.20138 0.25265 0.0
H517 H 0.69857 0.1936 0.35856 0.0
H518 H 0.66353 0.16915 0.33334 0.0
H519 H 0.73685 0.20044 0.36712 0.0
H520 H 0.70544 0.23418 0.29735 0.0
H521 H 0.69009 0.24099 0.24278 0.0
H522 H 0.74817 0.25979 0.18453 0.0
H523 H 0.76375 0.2528 0.23868 0.0
C524 C 0.79103 0.30069 0.41696 0.0
C525 C 0.81089 0.31488 0.40149 0.0
C526 C 0.77867 0.28013 0.40304 0.0
C527 C 0.78579 0.27355 0.37301 0.0
C528 C 0.80607 0.28734 0.35857 0.0
C529 C 0.81869 0.30779 0.37307 0.0
C530 C 0.77065 0.2537 0.35385 0.0
C531 C 0.76277 0.25576 0.32035 0.0
C532 C 0.76145 0.2335 0.37072 0.0
C533 C 0.76954 0.2305 0.40589 0.0
C534 C 0.79137 0.23766 0.41062 0.0
C535 C 0.79894 0.23493 0.44387 0.0
C536 C 0.78482 0.22499 0.47259 0.0
C537 C 0.76309 0.21772 0.46809 0.0
C538 C 0.75543 0.22041 0.43491 0.0
C539 C 0.69293 0.18058 0.25588 0.0
C540 C 0.67475 0.17186 0.27808 0.0
C541 C 0.7131 0.19417 0.27054 0.0
C542 C 0.71528 0.19984 0.30737 0.0
C543 C 0.69735 0.18962 0.33005 0.0
C544 C 0.67727 0.17563 0.31557 0.0
C545 C 0.73534 0.21821 0.32149 0.0
C546 C 0.74401 0.21594 0.35415 0.0
C547 C 0.74495 0.23846 0.3044 0.0
C548 C 0.73564 0.24269 0.27186 0.0
C549 C 0.71487 0.23963 0.27282 0.0
C550 C 0.70614 0.24353 0.24198 0.0
C551 C 0.71812 0.25074 0.21017 0.0
C552 C 0.73889 0.25413 0.20916 0.0
C553 C 0.74767 0.2502 0.2399 0.0
H554 H 0.71134 0.25377 0.18633 0.0
H555 H 0.79072 0.2229 0.4983 0.0
H556 H 0.45708 0.77343 0.73774 0.0
H557 H 0.46923 0.749 0.72009 0.0
H558 H 0.53468 0.79973 0.72847 0.0
H559 H 0.52242 0.82473 0.74494 0.0
H560 H 0.53001 0.77917 0.66899 0.0
H561 H 0.51245 0.75588 0.79076 0.0
H562 H 0.49103 0.74482 0.84679 0.0
H563 H 0.44045 0.69135 0.79113 0.0
H564 H 0.46145 0.7022 0.73469 0.0
H565 H 0.51378 0.66181 0.65886 0.0
H566 H 0.52463 0.695 0.69214 0.0
H567 H 0.50237 0.71783 0.60388 0.0
H568 H 0.49214 0.6852 0.57031 0.0
H569 H 0.49687 0.70517 0.71581 0.0
H570 H 0.52461 0.77017 0.6024 0.0
H571 H 0.5477 0.78121 0.54839 0.0
H572 H 0.58213 0.75219 0.59171 0.0
H573 H 0.55948 0.74125 0.64626 0.0
C574 C 0.4741 0.77941 0.73637 0.0
C575 C 0.4888 0.80103 0.74282 0.0
C576 C 0.48105 0.76532 0.72653 0.0
C577 C 0.50291 0.77233 0.72365 0.0
C578 C 0.51773 0.79388 0.73076 0.0
C579 C 0.51072 0.80813 0.74026 0.0
C580 C 0.50985 0.75736 0.71027 0.0
C581 C 0.52304 0.76308 0.67955 0.0
C582 C 0.5013 0.7365 0.72459 0.0
C583 C 0.48854 0.72989 0.75848 0.0
C584 C 0.49672 0.74182 0.79043 0.0
C585 C 0.48465 0.73558 0.82227 0.0
C586 C 0.46439 0.71741 0.82251 0.0
C587 C 0.45613 0.70544 0.7909 0.0
C588 C 0.46813 0.7116 0.75899 0.0
C589 C 0.51194 0.67426 0.64605 0.0
C590 C 0.50201 0.67087 0.61205 0.0
C591 C 0.51799 0.69314 0.66522 0.0
C592 C 0.51428 0.70892 0.65063 0.0
C593 C 0.50575 0.70611 0.61558 0.0
C594 C 0.49978 0.68734 0.59644 0.0
C595 C 0.51612 0.72668 0.67348 0.0
C596 C 0.50447 0.72144 0.70591 0.0
C597 C 0.52638 0.74803 0.66104 0.0
C598 C 0.54026 0.75482 0.62844 0.0
C599 C 0.5372 0.76628 0.60057 0.0
C600 C 0.5502 0.77248 0.56981 0.0
C601 C 0.56635 0.76738 0.5666 0.0
C602 C 0.56958 0.75609 0.59419 0.0
C603 C 0.55664 0.74985 0.62502 0.0
H604 H 0.57638 0.77219 0.54275 0.0
H605 H 0.45509 0.71259 0.8472 0.0
H606 H 0.69223 0.4877 0.11162 0.0
H607 H 0.72779 0.49903 0.08748 0.0
H608 H 0.71596 0.53026 0.99845 0.0
H609 H 0.68047 0.51946 0.02316 0.0
H610 H 0.72513 0.49629 0.98072 0.0
H611 H 0.7542 0.56101 0.04856 0.0
H612 H 0.76028 0.583 0.10306 0.0
H613 H 0.78944 0.55132 0.15633 0.0
H614 H 0.78325 0.5289 0.10234 0.0
H615 H 0.81717 0.50573 0.9027 0.0
H616 H 0.79362 0.5185 0.92449 0.0
H617 H 0.80364 0.50525 0.03449 0.0
H618 H 0.8281 0.49368 0.01292 0.0
H619 H 0.79706 0.53706 0.03595 0.0
H620 H 0.76149 0.46785 0.97932 0.0
H621 H 0.75332 0.44192 0.92996 0.0
H622 H 0.73381 0.47718 0.86187 0.0
H623 H 0.74216 0.50349 0.91073 0.0
C624 C 0.69749 0.49758 0.08755 0.0
C625 C 0.68366 0.50271 0.0692 0.0
C626 C 0.71781 0.50408 0.07385 0.0
C627 C 0.72448 0.5155 0.04124 0.0
C628 C 0.71112 0.52159 0.02381 0.0
C629 C 0.69093 0.51549 0.03799 0.0
C630 C 0.74385 0.51806 0.02306 0.0
C631 C 0.741 0.5057 0.99213 0.0
C632 C 0.76431 0.52967 0.0389 0.0
C633 C 0.76814 0.54318 0.07142 0.0
C634 C 0.76175 0.5586 0.07199 0.0
C635 C 0.76525 0.57117 0.10278 0.0
C636 C 0.77521 0.56854 0.13316 0.0
C637 C 0.78173 0.55335 0.13278 0.0
C638 C 0.77826 0.54073 0.10206 0.0
C639 C 0.81481 0.50616 0.93159 0.0
C640 C 0.82426 0.49852 0.95611 0.0
C641 C 0.80124 0.51332 0.94403 0.0
C642 C 0.79629 0.51222 0.98108 0.0
C643 C 0.80707 0.50617 0.00577 0.0
C644 C 0.82105 0.49952 0.99341 0.0
C645 C 0.77831 0.515 0.99379 0.0
C646 C 0.78134 0.52815 0.02385 0.0
C647 C 0.75777 0.50358 0.97784 0.0
C648 C 0.75272 0.48778 0.94846 0.0
C649 C 0.75561 0.47015 0.95372 0.0
C650 C 0.75093 0.45538 0.92586 0.0
C651 C 0.74313 0.45795 0.89275 0.0
C652 C 0.73992 0.47525 0.88749 0.0
C653 C 0.74462 0.4901 0.91525 0.0
H654 H 0.73951 0.44649 0.87122 0.0
H655 H 0.7779 0.57828 0.15697 0.0
H656 H 0.15153 0.68251 0.36686 0.0
H657 H 0.17746 0.71689 0.34008 0.0
H658 H 0.22677 0.71897 0.40849 0.0
H659 H 0.20106 0.68488 0.43527 0.0
H660 H 0.23328 0.75844 0.39795 0.0
H661 H 0.21802 0.69656 0.32681 0.0
H662 H 0.19526 0.66351 0.29266 0.0
H663 H 0.17759 0.69814 0.21949 0.0
H664 H 0.19996 0.73135 0.25364 0.0
H665 H 0.31874 0.78537 0.25558 0.0
H666 H 0.28325 0.7612 0.27877 0.0
H667 H 0.27583 0.81482 0.30815 0.0
H668 H 0.31195 0.83934 0.2857 0.0
H669 H 0.24411 0.75109 0.26721 0.0
H670 H 0.24852 0.80277 0.38891 0.0
H671 H 0.27548 0.83258 0.4257 0.0
H672 H 0.32145 0.81336 0.40163 0.0
H673 H 0.29468 0.7833 0.36514 0.0
C674 C 0.16774 0.69069 0.37701 0.0
C675 C 0.17436 0.68097 0.40289 0.0
C676 C 0.18255 0.71025 0.36155 0.0
C677 C 0.20411 0.72032 0.37191 0.0
C678 C 0.21025 0.7115 0.40005 0.0
C679 C 0.19554 0.69197 0.41527 0.0
C680 C 0.22086 0.73839 0.35081 0.0
C681 C 0.23543 0.75703 0.3692 0.0
C682 C 0.22398 0.73633 0.31349 0.0
C683 C 0.21036 0.71635 0.29313 0.0
C684 C 0.20907 0.69707 0.3037 0.0
C685 C 0.19625 0.67832 0.28435 0.0
C686 C 0.18488 0.67871 0.25408 0.0
C687 C 0.18633 0.69785 0.24306 0.0
C688 C 0.19905 0.71664 0.26243 0.0
C689 C 0.30949 0.79208 0.26646 0.0
C690 C 0.31824 0.81427 0.26921 0.0
C691 C 0.28909 0.7782 0.27957 0.0
C692 C 0.27693 0.78615 0.29568 0.0
C693 C 0.28505 0.80832 0.29632 0.0
C694 C 0.30563 0.82231 0.28332 0.0
C695 C 0.25675 0.77107 0.31442 0.0
C696 C 0.24155 0.75291 0.29562 0.0
C697 C 0.25356 0.77316 0.35172 0.0
C698 C 0.26969 0.79101 0.37392 0.0
C699 C 0.26437 0.80491 0.39155 0.0
C700 C 0.27962 0.82183 0.41235 0.0
C701 C 0.30019 0.82491 0.41587 0.0
C702 C 0.30554 0.81101 0.39876 0.0
C703 C 0.29034 0.79404 0.37802 0.0
H704 H 0.31197 0.83804 0.43194 0.0
H705 H 0.17506 0.66422 0.23899 0.0
H706 H 0.54033 0.20931 0.74403 0.0
H707 H 0.52639 0.23259 0.72864 0.0
H708 H 0.46998 0.17925 0.68326 0.0
H709 H 0.48414 0.15556 0.69865 0.0
H710 H 0.48793 0.21296 0.63692 0.0
H711 H 0.46441 0.20359 0.75762 0.0
H712 H 0.46557 0.1998 0.8238 0.0
H713 H 0.51814 0.26389 0.83145 0.0
H714 H 0.51756 0.26799 0.76529 0.0
H715 H 0.48327 0.31035 0.59891 0.0
H716 H 0.46952 0.27392 0.62289 0.0
H717 H 0.53005 0.29423 0.67484 0.0
H718 H 0.54384 0.32997 0.65067 0.0
H719 H 0.49274 0.26913 0.7198 0.0
H720 H 0.52221 0.27087 0.5978 0.0
H721 H 0.52192 0.27455 0.5314 0.0
H722 H 0.45663 0.22403 0.52771 0.0
H723 H 0.45651 0.22024 0.59421 0.0
C724 C 0.52478 0.20239 0.73133 0.0
C725 C 0.51334 0.18062 0.72247 0.0
C726 C 0.51673 0.21572 0.72277 0.0
C727 C 0.49698 0.20764 0.70524 0.0
C728 C 0.48517 0.18576 0.69709 0.0
C729 C 0.49322 0.17227 0.70597 0.0
C730 C 0.49026 0.22286 0.69262 0.0
C731 C 0.48818 0.22481 0.6552 0.0
C732 C 0.4905 0.23833 0.71639 0.0
C733 C 0.4909 0.23609 0.75637 0.0
C734 C 0.47629 0.21686 0.77337 0.0
C735 C 0.47684 0.21465 0.81091 0.0
C736 C 0.49191 0.23159 0.83181 0.0
C737 C 0.50645 0.25079 0.81523 0.0
C738 C 0.50597 0.25308 0.7777 0.0
C739 C 0.49351 0.30693 0.61558 0.0
C740 C 0.51465 0.3229 0.62275 0.0
C741 C 0.48566 0.28622 0.62925 0.0
C742 C 0.49877 0.28149 0.65079 0.0
C743 C 0.51964 0.2976 0.65851 0.0
C744 C 0.52755 0.31799 0.64443 0.0
C745 C 0.49177 0.25973 0.66428 0.0
C746 C 0.49135 0.25664 0.70182 0.0
C747 C 0.48912 0.24319 0.64072 0.0
C748 C 0.48926 0.24548 0.6009 0.0
C749 C 0.50775 0.26069 0.58283 0.0
C750 C 0.50767 0.26276 0.5452 0.0
C751 C 0.48924 0.24959 0.52536 0.0
C752 C 0.47088 0.23426 0.54311 0.0
C753 C 0.47087 0.23215 0.58076 0.0
H754 H 0.48921 0.25121 0.49622 0.0
H755 H 0.49232 0.22984 0.86087 0.0
H756 H 0.43001 0.50559 0.04383 0.0
H757 H 0.45848 0.49707 0.05112 0.0
H758 H 0.47596 0.5307 0.15325 0.0
H759 H 0.44836 0.54034 0.14474 0.0
H760 H 0.5098 0.54115 0.12053 0.0
H761 H 0.44911 0.47339 0.14461 0.0
H762 H 0.41362 0.44193 0.13435 0.0
H763 H 0.43608 0.4278 0.0364 0.0
H764 H 0.47165 0.45934 0.04582 0.0
H765 H 0.55351 0.46097 0.13943 0.0
H766 H 0.52499 0.46953 0.14377 0.0
H767 H 0.56138 0.52503 0.07656 0.0
H768 H 0.59051 0.5171 0.07409 0.0
H769 H 0.5 0.46933 0.09759 0.0
H770 H 0.54727 0.56207 0.08861 0.0
H771 H 0.58165 0.59218 0.10902 0.0
H772 H 0.58404 0.55385 0.19561 0.0
H773 H 0.54955 0.52361 0.17602 0.0
C774 C 0.43978 0.5109 0.06801 0.0
C775 C 0.43699 0.52355 0.09376 0.0
C776 C 0.45602 0.50597 0.07229 0.0
C777 C 0.46931 0.51298 0.10301 0.0
C778 C 0.46606 0.52515 0.12922 0.0
C779 C 0.4502 0.53055 0.12447 0.0
C780 C 0.48717 0.50847 0.10705 0.0
C781 C 0.50759 0.52539 0.11569 0.0
C782 C 0.48437 0.48786 0.10156 0.0
C783 C 0.463 0.46884 0.09578 0.0
C784 C 0.44644 0.46366 0.12075 0.0
C785 C 0.42632 0.44579 0.1151 0.0
C786 C 0.42258 0.4329 0.0847 0.0
C787 C 0.43899 0.43781 0.05992 0.0
C788 C 0.45914 0.45567 0.06542 0.0
C789 C 0.55555 0.47521 0.12613 0.0
C790 C 0.57422 0.48845 0.10657 0.0
C791 C 0.53919 0.48004 0.12844 0.0
C792 C 0.54094 0.49799 0.11064 0.0
C793 C 0.55974 0.51136 0.09128 0.0
C794 C 0.57638 0.5068 0.08974 0.0
C795 C 0.52266 0.50202 0.11093 0.0
C796 C 0.50217 0.48504 0.10281 0.0
C797 C 0.52524 0.52236 0.11846 0.0
C798 C 0.54593 0.54052 0.1306 0.0
C799 C 0.5551 0.5601 0.11208 0.0
C800 C 0.57461 0.57718 0.12349 0.0
C801 C 0.58506 0.5749 0.15352 0.0
C802 C 0.57598 0.55556 0.17227 0.0
C803 C 0.55646 0.53844 0.161 0.0
H804 H 0.60017 0.58814 0.16229 0.0
H805 H 0.40699 0.41908 0.08038 0.0
H806 H 0.89387 0.45406 0.42884 0.0
H807 H 0.93048 0.48379 0.42843 0.0
H808 H 0.95394 0.43952 0.42666 0.0
H809 H 0.91715 0.40954 0.42762 0.0
H810 H 0.97668 0.47201 0.47282 0.0
H811 H 0.95315 0.46494 0.34992 0.0
H812 H 0.92928 0.46214 0.29996 0.0
H813 H 0.93879 0.52406 0.32628 0.0
H814 H 0.96249 0.52711 0.37678 0.0
H815 H 0.08173 0.54266 0.41412 0.0
H816 H 0.04473 0.51394 0.41729 0.0
H817 H 0.02392 0.56014 0.42578 0.0
H818 H 0.06118 0.58919 0.4225 0.0
H819 H 0.99972 0.52734 0.37711 0.0
H820 H 0.02438 0.53429 0.49964 0.0
H821 H 0.04891 0.5367 0.54813 0.0
H822 H 0.03776 0.47431 0.52077 0.0
H823 H 0.0134 0.47165 0.47173 0.0
C824 C 0.90681 0.45061 0.4285 0.0
C825 C 0.90264 0.42945 0.42807 0.0
C826 C 0.92773 0.46765 0.4281 0.0
C827 C 0.94495 0.4639 0.42692 0.0
C828 C 0.94087 0.44278 0.42743 0.0
C829 C 0.91988 0.42567 0.42792 0.0
C830 C 0.96716 0.48207 0.42492 0.0
C831 C 0.98178 0.48395 0.45163 0.0
C832 C 0.97369 0.49794 0.39771 0.0
C833 C 0.95944 0.49616 0.36737 0.0
C834 C 0.95001 0.47788 0.34526 0.0
C835 C 0.93654 0.47626 0.31681 0.0
C836 C 0.93249 0.49289 0.31 0.0
C837 C 0.94192 0.51118 0.33162 0.0
C838 C 0.95539 0.51287 0.36015 0.0
C839 C 0.06932 0.54677 0.41663 0.0
C840 C 0.07437 0.56821 0.4182 0.0
C841 C 0.04817 0.53031 0.41857 0.0
C842 C 0.0316 0.53489 0.4222 0.0
C843 C 0.03651 0.55628 0.42311 0.0
C844 C 0.05776 0.57283 0.42132 0.0
C845 C 0.0092 0.51722 0.42497 0.0
C846 C 0.99455 0.51543 0.39838 0.0
C847 C 0.00268 0.50137 0.45213 0.0
C848 C 0.0172 0.50285 0.4818 0.0
C849 C 0.02728 0.52115 0.50377 0.0
C850 C 0.04114 0.52255 0.53139 0.0
C851 C 0.04493 0.50569 0.53747 0.0
C852 C 0.03483 0.48736 0.516 0.0
C853 C 0.02098 0.48589 0.48832 0.0
H854 H 0.05566 0.5068 0.55887 0.0
H855 H 0.9221 0.49162 0.2879 0.0
H856 H 0.49377 0.0685 0.74314 0.0
H857 H 0.48565 0.0314 0.74811 0.0
H858 H 0.55286 0.05288 0.75607 0.0
H859 H 0.56105 0.08979 0.75034 0.0
H860 H 0.5346 0.02062 0.71078 0.0
H861 H 0.51955 0.03477 0.83083 0.0
H862 H 0.50269 0.04618 0.87694 0.0
H863 H 0.44072 0.99698 0.84262 0.0
H864 H 0.45719 0.98545 0.79595 0.0
H865 H 0.52002 0.91867 0.76202 0.0
H866 H 0.53062 0.95665 0.76257 0.0
H867 H 0.46462 0.93973 0.75254 0.0
H868 H 0.45399 0.90209 0.75263 0.0
H869 H 0.48393 0.97023 0.80146 0.0
H870 H 0.49898 0.95738 0.67955 0.0
H871 H 0.51578 0.94601 0.63325 0.0
H872 H 0.57786 0.99289 0.6714 0.0
H873 H 0.5614 0.00435 0.71825 0.0
C874 C 0.50678 0.06528 0.74608 0.0
C875 C 0.52803 0.08205 0.74636 0.0
C876 C 0.50213 0.04409 0.74908 0.0
C877 C 0.51865 0.03934 0.75283 0.0
C878 C 0.53986 0.05612 0.75317 0.0
C879 C 0.5445 0.07722 0.74999 0.0
C880 C 0.51396 0.01691 0.75561 0.0
C881 C 0.52376 0.0097 0.73098 0.0
C882 C 0.49955 0.00252 0.78154 0.0
C883 C 0.4896 0.00937 0.80967 0.0
C884 C 0.50232 0.02648 0.83293 0.0
C885 C 0.49283 0.03296 0.8592 0.0
C886 C 0.47065 0.02235 0.86265 0.0
C887 C 0.4579 0.0052 0.83989 0.0
C888 C 0.4673 0.99868 0.81355 0.0
C889 C 0.50782 0.92311 0.76 0.0
C890 C 0.4862 0.9074 0.75718 0.0
C891 C 0.51388 0.94479 0.76019 0.0
C892 C 0.4984 0.95106 0.75731 0.0
C893 C 0.47683 0.93532 0.75489 0.0
C894 C 0.4708 0.91378 0.7548 0.0
C895 C 0.50443 0.97392 0.75644 0.0
C896 C 0.49488 0.98121 0.78143 0.0
C897 C 0.51906 0.98839 0.73085 0.0
C898 C 0.52896 0.98155 0.70264 0.0
C899 C 0.51621 0.96515 0.67824 0.0
C900 C 0.52567 0.95871 0.65187 0.0
C901 C 0.54787 0.96868 0.64946 0.0
C902 C 0.56066 0.98515 0.67334 0.0
C903 C 0.55128 0.99163 0.69979 0.0
H904 H 0.55517 0.96367 0.62902 0.0
H905 H 0.46334 0.02738 0.883 0.0
H906 H 0.44725 0.53618 0.57522 0.0
H907 H 0.45602 0.50775 0.57372 0.0
H908 H 0.52232 0.55422 0.55688 0.0
H909 H 0.51365 0.58298 0.55857 0.0
H910 H 0.50646 0.51722 0.5115 0.0
H911 H 0.50827 0.53506 0.63745 0.0
H912 H 0.49408 0.54172 0.69357 0.0
H913 H 0.44091 0.47778 0.69072 0.0
H914 H 0.45462 0.47083 0.63424 0.0
H915 H 0.55286 0.45484 0.55803 0.0
H916 H 0.54236 0.48189 0.55345 0.0
H917 H 0.47784 0.43513 0.58254 0.0
H918 H 0.4884 0.40784 0.58766 0.0
H919 H 0.49174 0.47166 0.6203 0.0
H920 H 0.48994 0.45288 0.49621 0.0
H921 H 0.50362 0.44555 0.44015 0.0
H922 H 0.55559 0.51015 0.43844 0.0
H923 H 0.54241 0.5178 0.49488 0.0
C924 C 0.46371 0.5404 0.57105 0.0
C925 C 0.47979 0.56184 0.56716 0.0
C926 C 0.46868 0.52412 0.57027 0.0
C927 C 0.48982 0.5289 0.56546 0.0
C928 C 0.5059 0.55023 0.56064 0.0
C929 C 0.50095 0.56662 0.56175 0.0
C930 C 0.49506 0.51156 0.56648 0.0
C931 C 0.50353 0.50742 0.53539 0.0
C932 C 0.49058 0.4984 0.59734 0.0
C933 C 0.48236 0.5025 0.63141 0.0
C934 C 0.49345 0.52248 0.64861 0.0
C935 C 0.48551 0.5263 0.68052 0.0
C936 C 0.46657 0.5102 0.69565 0.0
C937 C 0.45556 0.49024 0.67894 0.0
C938 C 0.46342 0.48635 0.64699 0.0
C939 C 0.53639 0.45023 0.56324 0.0
C940 C 0.52143 0.42919 0.57317 0.0
C941 C 0.53039 0.46571 0.56045 0.0
C942 C 0.50927 0.4605 0.56726 0.0
C943 C 0.49423 0.43948 0.57706 0.0
C944 C 0.50024 0.4239 0.57986 0.0
C945 C 0.50324 0.47729 0.56533 0.0
C946 C 0.49461 0.48136 0.59628 0.0
C947 C 0.50745 0.49028 0.53425 0.0
C948 C 0.51528 0.48586 0.49999 0.0
C949 C 0.50437 0.46549 0.48404 0.0
C950 C 0.51202 0.46128 0.45217 0.0
C951 C 0.53049 0.47735 0.43579 0.0
C952 C 0.5413 0.4977 0.45119 0.0
C953 C 0.53373 0.502 0.4831 0.0
H954 H 0.5364 0.47404 0.41113 0.0
H955 H 0.46045 0.51319 0.72036 0.0
H956 H 0.09129 0.54982 0.93329 0.0
H957 H 0.05391 0.54031 0.93249 0.0
H958 H 0.03551 0.47517 0.90718 0.0
H959 H 0.07319 0.48468 0.90753 0.0
H960 H 0.01485 0.4902 0.86473 0.0
H961 H 0.02825 0.48813 0.99112 0.0
H962 H 0.04808 0.50212 0.04826 0.0
H963 H 0.03626 0.55458 0.04476 0.0
H964 H 0.01668 0.54112 0.98724 0.0
H965 H 0.90476 0.44593 0.90008 0.0
H966 H 0.94206 0.45514 0.90036 0.0
H967 H 0.96093 0.52004 0.92858 0.0
H968 H 0.92333 0.51078 0.92893 0.0
H969 H 0.98137 0.50489 0.96976 0.0
H970 H 0.96844 0.50725 0.84298 0.0
H971 H 0.94935 0.49373 0.7851 0.0
H972 H 0.96054 0.44086 0.78919 0.0
H973 H 0.97944 0.45391 0.84737 0.0
C974 C 0.07931 0.53342 0.92768 0.0
C975 C 0.08516 0.51796 0.92058 0.0
C976 C 0.05794 0.52801 0.92736 0.0
C977 C 0.04191 0.50699 0.92017 0.0
C978 C 0.04766 0.49148 0.91288 0.0
C979 C 0.06914 0.4969 0.91323 0.0
C980 C 0.01922 0.50145 0.91976 0.0
C981 C 0.0074 0.49308 0.88788 0.0
C982 C 0.00974 0.50578 0.94968 0.0
C983 C 0.02114 0.5137 0.98467 0.0
C984 C 0.02999 0.50272 0.0024 0.0
C985 C 0.04118 0.51055 0.03487 0.0
C986 C 0.04347 0.52925 0.05008 0.0
C987 C 0.0345 0.54011 0.03292 0.0
C988 C 0.02334 0.53238 0.0004 0.0
C989 C 0.91683 0.46222 0.9061 0.0
C990 C 0.91112 0.47767 0.91436 0.0
C991 C 0.93817 0.46747 0.90614 0.0
C992 C 0.95432 0.48833 0.9141 0.0
C993 C 0.94871 0.50385 0.92228 0.0
C994 C 0.92727 0.49858 0.9223 0.0
C995 C 0.97697 0.49366 0.91467 0.0
C996 C 0.98879 0.50199 0.94662 0.0
C997 C 0.98646 0.48929 0.88481 0.0
C998 C 0.97519 0.48146 0.84971 0.0
C999 C 0.96669 0.49266 0.83168 0.0
C1000 C 0.95593 0.48509 0.79879 0.0
C1001 C 0.95369 0.46642 0.78352 0.0
C1002 C 0.96226 0.45531 0.80107 0.0
C1003 C 0.97302 0.46279 0.83398 0.0
H1004 H 0.94535 0.46059 0.75806 0.0
H1005 H 0.05216 0.5353 0.0752 0.0
H1006 H 0.40848 0.92895 0.23206 0.0
H1007 H 0.43712 0.96638 0.22774 0.0
H1008 H 0.48236 0.94893 0.26733 0.0
H1009 H 0.45405 0.91182 0.27177 0.0
H1010 H 0.48779 0.98516 0.29951 0.0
H1011 H 0.47933 0.95667 0.17844 0.0
H1012 H 0.45928 0.93916 0.12287 0.0
H1013 H 0.44419 0.98897 0.1082 0.0
H1014 H 0.46392 0.00662 0.164 0.0
H1015 H 0.58599 0.0759 0.25256 0.0
H1016 H 0.55611 0.03916 0.25533 0.0
H1017 H 0.5144 0.05953 0.20949 0.0
H1018 H 0.54417 0.09606 0.20603 0.0
H1019 H 0.50605 0.02239 0.18094 0.0
H1020 H 0.51508 0.05167 0.30013 0.0
H1021 H 0.53499 0.06964 0.3555 0.0
H1022 H 0.54824 0.0189 0.37442 0.0
H1023 H 0.5287 0.00079 0.31875 0.0
C1024 C 0.42452 0.93318 0.24002 0.0
C1025 C 0.42905 0.91746 0.25209 0.0
C1026 C 0.44086 0.9545 0.23742 0.0
C1027 C 0.46191 0.96039 0.24695 0.0
C1028 C 0.46627 0.94476 0.25985 0.0
C1029 C 0.45005 0.92353 0.26223 0.0
C1030 C 0.47963 0.98269 0.24293 0.0
C1031 C 0.49191 0.99324 0.27353 0.0
C1032 C 0.4847 0.99339 0.20919 0.0
C1033 C 0.47289 0.98283 0.17561 0.0
C1034 C 0.47159 0.96379 0.16353 0.0
C1035 C 0.46031 0.95386 0.13196 0.0
C1036 C 0.45041 0.96292 0.11208 0.0
C1037 C 0.45183 0.98196 0.12367 0.0
C1038 C 0.46306 0.99193 0.15525 0.0
C1039 C 0.5705 0.07247 0.24272 0.0
C1040 C 0.56739 0.08886 0.22928 0.0
C1041 C 0.55341 0.05152 0.2445 0.0
C1042 C 0.53292 0.04666 0.23314 0.0
C1043 C 0.53002 0.06289 0.2185 0.0
C1044 C 0.54707 0.08379 0.21664 0.0
C1045 C 0.51435 0.02482 0.23746 0.0
C1046 C 0.5019 0.01436 0.20696 0.0
C1047 C 0.50903 0.01425 0.27135 0.0
C1048 C 0.5206 0.02497 0.30507 0.0
C1049 C 0.52237 0.04441 0.31595 0.0
C1050 C 0.53358 0.05462 0.34742 0.0
C1051 C 0.54292 0.04544 0.36844 0.0
C1052 C 0.54102 0.026 0.35808 0.0
C1053 C 0.52987 0.01575 0.32658 0.0
H1054 H 0.55158 0.05336 0.39281 0.0
H1055 H 0.4417 0.95521 0.08764 0.0
H1056 H 0.43021 0.62833 0.6714 0.0
H1057 H 0.4225 0.62821 0.73627 0.0
H1058 H 0.4186 0.56707 0.74785 0.0
H1059 H 0.42638 0.56718 0.68356 0.0
H1060 H 0.38868 0.56944 0.7885 0.0
H1061 H 0.46362 0.61255 0.76075 0.0
H1062 H 0.49597 0.64247 0.73416 0.0
H1063 H 0.485 0.68704 0.79345 0.0
H1064 H 0.45188 0.65744 0.81898 0.0
H1065 H 0.42602 0.55598 0.95308 0.0
H1066 H 0.42723 0.56654 0.89005 0.0
H1067 H 0.41344 0.61555 0.92255 0.0
H1068 H 0.41182 0.6048 0.98621 0.0
H1069 H 0.44792 0.6249 0.86196 0.0
H1070 H 0.37428 0.57929 0.89556 0.0
H1071 H 0.34475 0.5477 0.92487 0.0
H1072 H 0.35648 0.5066 0.85679 0.0
H1073 H 0.38639 0.53793 0.82761 0.0
C1074 C 0.42707 0.61461 0.68767 0.0
C1075 C 0.42892 0.59777 0.67258 0.0
C1076 C 0.42285 0.61464 0.7247 0.0
C1077 C 0.42024 0.59775 0.74693 0.0
C1078 C 0.42057 0.58027 0.73123 0.0
C1079 C 0.42503 0.58035 0.69449 0.0
C1080 C 0.4189 0.59868 0.78691 0.0
C1081 C 0.40154 0.58171 0.80452 0.0
C1082 C 0.43557 0.61488 0.80788 0.0
C1083 C 0.45497 0.63274 0.7912 0.0
C1084 C 0.46777 0.62873 0.76747 0.0
C1085 C 0.48626 0.64565 0.75257 0.0
C1086 C 0.49239 0.66665 0.76184 0.0
C1087 C 0.48001 0.67078 0.78588 0.0
C1088 C 0.46133 0.65394 0.80043 0.0
C1089 C 0.42367 0.56931 0.94704 0.0
C1090 C 0.41869 0.57948 0.9746 0.0
C1091 C 0.42432 0.57527 0.91099 0.0
C1092 C 0.42019 0.59163 0.90177 0.0
C1093 C 0.41664 0.60286 0.92928 0.0
C1094 C 0.41577 0.59673 0.96555 0.0
C1095 C 0.41797 0.59548 0.86312 0.0
C1096 C 0.43469 0.61318 0.84586 0.0
C1097 C 0.40087 0.57987 0.84235 0.0
C1098 C 0.38267 0.56098 0.85953 0.0
C1099 C 0.37068 0.56353 0.88703 0.0
C1100 C 0.35384 0.54566 0.90358 0.0
C1101 C 0.34874 0.52517 0.89267 0.0
C1102 C 0.36045 0.52249 0.86519 0.0
C1103 C 0.37733 0.54029 0.84862 0.0
H1104 H 0.3357 0.51135 0.90548 0.0
H1105 H 0.50686 0.67972 0.75073 0.0
H1106 H 0.85478 0.39669 0.2955 0.0
H1107 H 0.84785 0.40295 0.23361 0.0
H1108 H 0.78703 0.39489 0.26599 0.0
H1109 H 0.79396 0.38859 0.32893 0.0
H1110 H 0.78673 0.37259 0.19921 0.0
H1111 H 0.8217 0.44241 0.249 0.0
H1112 H 0.84863 0.4725 0.28513 0.0
H1113 H 0.89837 0.47614 0.21697 0.0
H1114 H 0.87175 0.44587 0.18065 0.0
H1115 H 0.79283 0.41828 0.01719 0.0
H1116 H 0.78557 0.40866 0.08162 0.0
H1117 H 0.84715 0.41352 0.09224 0.0
H1118 H 0.85441 0.42289 0.02843 0.0
H1119 H 0.84001 0.43994 0.14003 0.0
H1120 H 0.80501 0.36676 0.09654 0.0
H1121 H 0.7781 0.33611 0.06138 0.0
H1122 H 0.72793 0.33916 0.1181 0.0
H1123 H 0.75459 0.37005 0.15327 0.0
C1124 C 0.83991 0.39626 0.28965 0.0
C1125 C 0.82494 0.39224 0.31713 0.0
C1126 C 0.83599 0.39986 0.25422 0.0
C1127 C 0.81701 0.39952 0.24531 0.0
C1128 C 0.80179 0.39524 0.27244 0.0
C1129 C 0.80581 0.39177 0.30829 0.0
C1130 C 0.81376 0.404 0.20742 0.0
C1131 C 0.79798 0.38751 0.18633 0.0
C1132 C 0.82857 0.42341 0.19071 0.0
C1133 C 0.8447 0.4418 0.21217 0.0
C1134 C 0.83839 0.44954 0.24182 0.0
C1135 C 0.8536 0.46664 0.26231 0.0
C1136 C 0.87519 0.47622 0.25335 0.0
C1137 C 0.88163 0.46872 0.22383 0.0
C1138 C 0.86647 0.45162 0.20323 0.0
C1139 C 0.80453 0.4167 0.03309 0.0
C1140 C 0.82425 0.42149 0.01786 0.0
C1141 C 0.8004 0.41129 0.06986 0.0
C1142 C 0.81595 0.41064 0.09169 0.0
C1143 C 0.83503 0.41413 0.0759 0.0
C1144 C 0.83911 0.4194 0.03937 0.0
C1145 C 0.81354 0.40824 0.13153 0.0
C1146 C 0.82834 0.42523 0.15298 0.0
C1147 C 0.79776 0.38936 0.14841 0.0
C1148 C 0.78178 0.3709 0.12714 0.0
C1149 C 0.78825 0.36105 0.10122 0.0
C1150 C 0.77304 0.3436 0.08136 0.0
C1151 C 0.75131 0.33575 0.0874 0.0
C1152 C 0.74476 0.3453 0.11338 0.0
C1153 C 0.75991 0.36277 0.13329 0.0
H1154 H 0.73956 0.32222 0.07202 0.0
H1155 H 0.88693 0.48947 0.26923 0.0
H1156 H 0.41108 0.83078 0.66323 0.0
H1157 H 0.39954 0.82799 0.60012 0.0
H1158 H 0.45505 0.82521 0.56537 0.0
H1159 H 0.46713 0.8292 0.62807 0.0
H1160 H 0.45169 0.85146 0.52535 0.0
H1161 H 0.4015 0.78061 0.56368 0.0
H1162 H 0.37361 0.75283 0.60217 0.0
H1163 H 0.33166 0.77708 0.57805 0.0
H1164 H 0.35941 0.80518 0.53978 0.0
H1165 H 0.41777 0.82799 0.34164 0.0
H1166 H 0.42566 0.822 0.40379 0.0
H1167 H 0.38055 0.8392 0.44495 0.0
H1168 H 0.37271 0.84533 0.38319 0.0
H1169 H 0.37842 0.80335 0.4799 0.0
H1170 H 0.43061 0.87556 0.44476 0.0
H1171 H 0.45867 0.90245 0.40532 0.0
H1172 H 0.49719 0.87352 0.42292 0.0
H1173 H 0.4692 0.84625 0.46207 0.0
C1174 C 0.42064 0.82934 0.64206 0.0
C1175 C 0.44001 0.83029 0.65037 0.0
C1176 C 0.41399 0.82761 0.60601 0.0
C1177 C 0.4263 0.82615 0.57784 0.0
C1178 C 0.44531 0.8264 0.58648 0.0
C1179 C 0.45218 0.82863 0.62232 0.0
C1180 C 0.42025 0.82586 0.53926 0.0
C1181 C 0.43576 0.84059 0.5154 0.0
C1182 C 0.39936 0.81203 0.52617 0.0
C1183 C 0.38261 0.79512 0.5491 0.0
C1184 C 0.38638 0.78011 0.56679 0.0
C1185 C 0.37059 0.76429 0.58853 0.0
C1186 C 0.35089 0.76322 0.59262 0.0
C1187 C 0.34693 0.77794 0.57489 0.0
C1188 C 0.36268 0.7938 0.55313 0.0
C1189 C 0.40942 0.83029 0.36396 0.0
C1190 C 0.3948 0.83732 0.35769 0.0
C1191 C 0.41393 0.82688 0.39936 0.0
C1192 C 0.40376 0.83029 0.42887 0.0
C1193 C 0.38853 0.83646 0.42252 0.0
C1194 C 0.38419 0.84009 0.38725 0.0
C1195 C 0.40988 0.82879 0.46651 0.0
C1196 C 0.3944 0.81389 0.49005 0.0
C1197 C 0.43084 0.84226 0.4793 0.0
C1198 C 0.44772 0.85874 0.45599 0.0
C1199 C 0.44499 0.87483 0.43997 0.0
C1200 C 0.46089 0.89016 0.41772 0.0
C1201 C 0.47967 0.88966 0.41153 0.0
C1202 C 0.48262 0.87386 0.42768 0.0
C1203 C 0.46675 0.85848 0.44991 0.0
H1204 H 0.49197 0.90154 0.3943 0.0
H1205 H 0.33868 0.75096 0.60947 0.0
H1206 H 0.55529 0.42288 0.70216 0.0
H1207 H 0.56908 0.43085 0.76404 0.0
H1208 H 0.60794 0.40236 0.74273 0.0
H1209 H 0.59452 0.39479 0.68006 0.0
H1210 H 0.57939 0.38717 0.80816 0.0
H1211 H 0.63478 0.45033 0.75363 0.0
H1212 H 0.65 0.48196 0.71399 0.0
H1213 H 0.61742 0.50765 0.77467 0.0
H1214 H 0.60173 0.47601 0.81436 0.0
H1215 H 0.61796 0.42167 0.99159 0.0
H1216 H 0.61552 0.4124 0.92704 0.0
H1217 H 0.5863 0.45058 0.90511 0.0
H1218 H 0.58909 0.46015 0.96887 0.0
H1219 H 0.61787 0.46028 0.85938 0.0
H1220 H 0.55781 0.39533 0.90605 0.0
H1221 H 0.54038 0.36323 0.94456 0.0
H1222 H 0.57984 0.34065 0.89825 0.0
H1223 H 0.5977 0.37278 0.85978 0.0
C1224 C 0.56701 0.41861 0.71048 0.0
C1225 C 0.57391 0.40829 0.68643 0.0
C1226 C 0.57486 0.42316 0.74576 0.0
C1227 C 0.58949 0.41717 0.7578 0.0
C1228 C 0.59667 0.40711 0.73377 0.0
C1229 C 0.58912 0.40294 0.69807 0.0
C1230 C 0.59627 0.42076 0.79611 0.0
C1231 C 0.5883 0.40312 0.81942 0.0
C1232 C 0.60753 0.44159 0.81057 0.0
C1233 C 0.61697 0.46071 0.78685 0.0
C1234 C 0.63072 0.46264 0.75836 0.0
C1235 C 0.63946 0.48059 0.73591 0.0
C1236 C 0.63466 0.49679 0.74178 0.0
C1237 C 0.62113 0.49509 0.77016 0.0
C1238 C 0.61233 0.47716 0.79267 0.0
C1239 C 0.61075 0.42779 0.97297 0.0
C1240 C 0.60378 0.44168 0.98515 0.0
C1241 C 0.60939 0.42253 0.93615 0.0
C1242 C 0.60082 0.4309 0.91121 0.0
C1243 C 0.59319 0.44413 0.92375 0.0
C1244 C 0.59469 0.44949 0.96026 0.0
C1245 C 0.60025 0.42669 0.87179 0.0
C1246 C 0.60943 0.44428 0.84822 0.0
C1247 C 0.58992 0.40581 0.85719 0.0
C1248 C 0.57928 0.38659 0.88043 0.0
C1249 C 0.56291 0.38362 0.90435 0.0
C1250 C 0.55292 0.3654 0.92611 0.0
C1251 C 0.55906 0.34995 0.92396 0.0
C1252 C 0.57515 0.35266 0.89996 0.0
C1253 C 0.5852 0.37086 0.87817 0.0
H1254 H 0.5513 0.33585 0.94081 0.0
H1255 H 0.64144 0.51068 0.72437 0.0
H1256 H 0.1674 0.53889 0.04318 0.0
H1257 H 0.16975 0.55112 0.10538 0.0
H1258 H 0.16926 0.60721 0.06731 0.0
H1259 H 0.16743 0.59519 0.00444 0.0
H1260 H 0.19496 0.61649 0.12604 0.0
H1261 H 0.12371 0.56577 0.09589 0.0
H1262 H 0.09389 0.53234 0.07186 0.0
H1263 H 0.10636 0.49637 0.15078 0.0
H1264 H 0.13643 0.52961 0.17504 0.0
H1265 H 0.1495 0.63058 0.28936 0.0
H1266 H 0.15632 0.62438 0.227 0.0
H1267 H 0.16861 0.57498 0.26351 0.0
H1268 H 0.16196 0.58123 0.32638 0.0
H1269 H 0.13747 0.56364 0.20552 0.0
H1270 H 0.20892 0.61899 0.23715 0.0
H1271 H 0.23508 0.65448 0.26072 0.0
H1272 H 0.21765 0.68428 0.17744 0.0
H1273 H 0.19111 0.64895 0.15371 0.0
C1274 C 0.16814 0.55401 0.04797 0.0
C1275 C 0.16697 0.56599 0.01906 0.0
C1276 C 0.16942 0.56095 0.08355 0.0
C1277 C 0.16917 0.57981 0.09103 0.0
C1278 C 0.16936 0.59253 0.06212 0.0
C1279 C 0.16831 0.58567 0.02628 0.0
C1280 C 0.16711 0.58518 0.12904 0.0
C1281 C 0.18229 0.60503 0.14334 0.0
C1282 C 0.15049 0.57026 0.15158 0.0
C1283 C 0.13247 0.55017 0.13704 0.0
C1284 C 0.12021 0.55072 0.10792 0.0
C1285 C 0.10324 0.53181 0.0943 0.0
C1286 C 0.09828 0.51224 0.10971 0.0
C1287 C 0.11025 0.51155 0.13883 0.0
C1288 C 0.12725 0.53042 0.15256 0.0
C1289 C 0.15383 0.61851 0.28419 0.0
C1290 C 0.15512 0.6063 0.31266 0.0
C1291 C 0.15784 0.6151 0.24859 0.0
C1292 C 0.16309 0.59935 0.24079 0.0
C1293 C 0.16466 0.58728 0.26915 0.0
C1294 C 0.16091 0.59088 0.30494 0.0
C1295 C 0.1656 0.59466 0.20272 0.0
C1296 C 0.15028 0.57499 0.18831 0.0
C1297 C 0.18166 0.61003 0.17995 0.0
C1298 C 0.19792 0.63129 0.19378 0.0
C1299 C 0.21057 0.6331 0.22398 0.0
C1300 C 0.22549 0.6532 0.23734 0.0
C1301 C 0.22805 0.67162 0.22055 0.0
C1302 C 0.21571 0.66999 0.19033 0.0
C1303 C 0.20072 0.64993 0.17692 0.0
H1304 H 0.23955 0.68717 0.23103 0.0
H1305 H 0.08512 0.49762 0.09914 0.0
H1306 H 0.59808 0.18574 0.63991 0.0
H1307 H 0.60862 0.1939 0.576 0.0
H1308 H 0.54812 0.14064 0.54333 0.0
H1309 H 0.53766 0.13236 0.60651 0.0
H1310 H 0.58036 0.1413 0.50684 0.0
H1311 H 0.55748 0.19148 0.53918 0.0
H1312 H 0.55846 0.2208 0.5747 0.0
H1313 H 0.6236 0.26217 0.54322 0.0
H1314 H 0.62308 0.23298 0.50787 0.0
H1315 H 0.56542 0.1529 0.32732 0.0
H1316 H 0.56081 0.15635 0.39196 0.0
H1317 H 0.62675 0.20568 0.40041 0.0
H1318 H 0.63148 0.20246 0.33538 0.0
H1319 H 0.5972 0.21012 0.44995 0.0
H1320 H 0.61834 0.15954 0.41316 0.0
H1321 H 0.61553 0.13005 0.3757 0.0
H1322 H 0.55223 0.08882 0.41598 0.0
H1323 H 0.55446 0.11823 0.45293 0.0
C1324 C 0.58714 0.17574 0.61902 0.0
C1325 C 0.56706 0.15841 0.62818 0.0
C1326 C 0.59311 0.18048 0.58259 0.0
C1327 C 0.57908 0.16795 0.55493 0.0
C1328 C 0.5592 0.1505 0.5642 0.0
C1329 C 0.55324 0.14581 0.60038 0.0
C1330 C 0.58479 0.17264 0.51612 0.0
C1331 C 0.58397 0.15634 0.49446 0.0
C1332 C 0.59001 0.19244 0.50007 0.0
C1333 C 0.59033 0.20998 0.52127 0.0
C1334 C 0.57207 0.20677 0.5401 0.0
C1335 C 0.57253 0.22338 0.56014 0.0
C1336 C 0.5911 0.24332 0.56131 0.0
C1337 C 0.60924 0.24671 0.54235 0.0
C1338 C 0.60887 0.23014 0.5223 0.0
C1339 C 0.57875 0.16503 0.34263 0.0
C1340 C 0.59888 0.1772 0.32647 0.0
C1341 C 0.5761 0.16696 0.37956 0.0
C1342 C 0.59357 0.18095 0.40097 0.0
C1343 C 0.61312 0.19476 0.38428 0.0
C1344 C 0.61577 0.1929 0.34714 0.0
C1345 C 0.5921 0.17855 0.44085 0.0
C1346 C 0.59386 0.19524 0.46257 0.0
C1347 C 0.58765 0.15905 0.45712 0.0
C1348 C 0.5865 0.14116 0.43559 0.0
C1349 C 0.60376 0.14423 0.41382 0.0
C1350 C 0.60227 0.12753 0.39264 0.0
C1351 C 0.58369 0.10758 0.39335 0.0
C1352 C 0.5666 0.10429 0.41534 0.0
C1353 C 0.56796 0.12097 0.43641 0.0
H1354 H 0.58255 0.09467 0.37692 0.0
H1355 H 0.59143 0.25616 0.57683 0.0
loop_
_geom_bond_atom_site_label_1
_geom_bond_atom_site_label_2
_geom_bond_distance
_geom_bond_site_symmetry_2
_ccdc_geom_bond_type
In0 O1 2.294 . S
In0 O2 2.326 . S
In0 O6 2.266 . S
In0 O7 2.326 . S
In0 O8 2.266 . S
In0 O9 2.326 . S
In0 O11 2.294 . S
In0 O12 2.326 . S
O1 In0 2.294 . S
O1 C10 1.240 . S
O2 In0 2.326 . S
O2 C10 1.252 . S
C3 O6 1.252 . S
C3 O7 1.260 . S
C4 O11 1.240 . S
C4 O12 1.252 . S
C5 O8 1.252 . S
C5 O9 1.260 . S
O6 In0 2.266 . S
O6 C3 1.252 . S
O7 In0 2.326 . S
O7 C3 1.260 . S
O8 In0 2.266 . S
O8 C5 1.252 . S
O9 In0 2.326 . S
O9 C5 1.260 . S
C10 O1 1.240 . S
C10 O2 1.252 . S
O11 In0 2.294 . S
O11 C4 1.240 . S
O12 In0 2.326 . S
O12 C4 1.252 . S
In13 O14 2.294 . S
In13 O15 2.326 . S
In13 O19 2.266 . S
In13 O20 2.326 . S
In13 O21 2.266 . S
In13 O22 2.326 . S
In13 O24 2.294 . S
In13 O25 2.326 . S
O14 In13 2.294 . S
O14 C23 1.240 . S
O15 In13 2.326 . S
O15 C23 1.252 . S
C16 O19 1.252 . S
C16 O20 1.260 . S
C17 O24 1.240 . S
C17 O25 1.252 . S
C18 O21 1.252 . S
C18 O22 1.260 . S
O19 In13 2.266 . S
O19 C16 1.252 . S
O20 In13 2.326 . S
O20 C16 1.260 . S
O21 In13 2.266 . S
O21 C18 1.252 . S
O22 In13 2.326 . S
O22 C18 1.260 . S
C23 O14 1.240 . S
C23 O15 1.252 . S
O24 In13 2.294 . S
O24 C17 1.240 . S
O25 In13 2.326 . S
O25 C17 1.252 . S
In26 O27 2.294 . S
In26 O28 2.326 . S
In26 O32 2.266 . S
In26 O33 2.326 . S
In26 O34 2.266 . S
In26 O35 2.326 . S
In26 O37 2.294 . S
In26 O38 2.326 . S
O27 In26 2.294 . S
O27 C36 1.240 . S
O28 In26 2.326 . S
O28 C36 1.252 . S
C29 O32 1.252 . S
C29 O33 1.260 . S
C30 O37 1.240 . S
C30 O38 1.252 . S
C31 O34 1.252 . S
C31 O35 1.260 . S
O32 In26 2.266 . S
O32 C29 1.252 . S
O33 In26 2.326 . S
O33 C29 1.260 . S
O34 In26 2.266 . S
O34 C31 1.252 . S
O35 In26 2.326 . S
O35 C31 1.260 . S
C36 O27 1.240 . S
C36 O28 1.252 . S
O37 In26 2.294 . S
O37 C30 1.240 . S
O38 In26 2.326 . S
O38 C30 1.252 . S
In39 O40 2.294 . S
In39 O41 2.326 . S
In39 O45 2.266 . S
In39 O46 2.326 . S
In39 O47 2.266 . S
In39 O48 2.326 . S
In39 O50 2.294 . S
In39 O51 2.326 . S
O40 In39 2.294 . S
O40 C49 1.240 . S
O41 In39 2.326 . S
O41 C49 1.252 . S
C42 O45 1.252 . S
C42 O46 1.260 . S
C43 O50 1.240 . S
C43 O51 1.252 . S
C44 O47 1.252 . S
C44 O48 1.260 . S
O45 In39 2.266 . S
O45 C42 1.252 . S
O46 In39 2.326 . S
O46 C42 1.260 . S
O47 In39 2.266 . S
O47 C44 1.252 . S
O48 In39 2.326 . S
O48 C44 1.260 . S
C49 O40 1.240 . S
C49 O41 1.252 . S
O50 In39 2.294 . S
O50 C43 1.240 . S
O51 In39 2.326 . S
O51 C43 1.252 . S
In52 O53 2.294 . S
In52 O54 2.326 . S
In52 O58 2.266 . S
In52 O59 2.326 . S
In52 O60 2.266 . S
In52 O61 2.326 . S
In52 O63 2.294 . S
In52 O64 2.326 . S
O53 In52 2.294 . S
O53 C62 1.240 . S
O54 In52 2.326 . S
O54 C62 1.252 . S
C55 O58 1.252 . S
C55 O59 1.260 . S
C56 O63 1.240 . S
C56 O64 1.252 . S
C57 O60 1.252 . S
C57 O61 1.260 . S
O58 In52 2.266 . S
O58 C55 1.252 . S
O59 In52 2.326 . S
O59 C55 1.260 . S
O60 In52 2.266 . S
O60 C57 1.252 . S
O61 In52 2.326 . S
O61 C57 1.260 . S
C62 O53 1.240 . S
C62 O54 1.252 . S
O63 In52 2.294 . S
O63 C56 1.240 . S
O64 In52 2.326 . S
O64 C56 1.252 . S
In65 O66 2.294 . S
In65 O67 2.326 . S
In65 O71 2.266 . S
In65 O72 2.326 . S
In65 O73 2.266 . S
In65 O74 2.326 . S
In65 O76 2.294 . S
In65 O77 2.326 . S
O66 In65 2.294 . S
O66 C75 1.240 . S
O67 In65 2.326 . S
O67 C75 1.252 . S
C68 O71 1.252 . S
C68 O72 1.260 . S
C69 O76 1.240 . S
C69 O77 1.252 . S
C70 O73 1.252 . S
C70 O74 1.260 . S
O71 In65 2.266 . S
O71 C68 1.252 . S
O72 In65 2.326 . S
O72 C68 1.260 . S
O73 In65 2.266 . S
O73 C70 1.252 . S
O74 In65 2.326 . S
O74 C70 1.260 . S
C75 O66 1.240 . S
C75 O67 1.252 . S
O76 In65 2.294 . S
O76 C69 1.240 . S
O77 In65 2.326 . S
O77 C69 1.252 . S
In78 O79 2.294 . S
In78 O80 2.326 . S
In78 O84 2.266 . S
In78 O85 2.326 . S
In78 O86 2.266 . S
In78 O87 2.326 . S
In78 O89 2.294 . S
In78 O90 2.326 . S
O79 In78 2.294 . S
O79 C88 1.240 . S
O80 In78 2.326 . S
O80 C88 1.252 . S
C81 O84 1.252 . S
C81 O85 1.260 . S
C82 O89 1.240 . S
C82 O90 1.252 . S
C83 O86 1.252 . S
C83 O87 1.260 . S
O84 In78 2.266 . S
O84 C81 1.252 . S
O85 In78 2.326 . S
O85 C81 1.260 . S
O86 In78 2.266 . S
O86 C83 1.252 . S
O87 In78 2.326 . S
O87 C83 1.260 . S
C88 O79 1.240 . S
C88 O80 1.252 . S
O89 In78 2.294 . S
O89 C82 1.240 . S
O90 In78 2.326 . S
O90 C82 1.252 . S
In91 O92 2.294 . S
In91 O93 2.326 . S
In91 O97 2.266 . S
In91 O98 2.326 . S
In91 O99 2.266 . S
In91 O100 2.326 . S
In91 O102 2.294 . S
In91 O103 2.326 . S
O92 In91 2.294 . S
O92 C101 1.240 . S
O93 In91 2.326 . S
O93 C101 1.252 . S
C94 O97 1.252 . S
C94 O98 1.260 . S
C95 O102 1.240 . S
C95 O103 1.252 . S
C96 O99 1.252 . S
C96 O100 1.260 . S
O97 In91 2.266 . S
O97 C94 1.252 . S
O98 In91 2.326 . S
O98 C94 1.260 . S
O99 In91 2.266 . S
O99 C96 1.252 . S
O100 In91 2.326 . S
O100 C96 1.260 . S
C101 O92 1.240 . S
C101 O93 1.252 . S
O102 In91 2.294 . S
O102 C95 1.240 . S
O103 In91 2.326 . S
O103 C95 1.252 . S
In104 O105 2.294 . S
In104 O106 2.326 . S
In104 O110 2.266 . S
In104 O111 2.326 . S
In104 O112 2.266 . S
In104 O113 2.326 . S
In104 O115 2.294 . S
In104 O116 2.326 . S
O105 In104 2.294 . S
O105 C114 1.240 . S
O106 In104 2.326 . S
O106 C114 1.252 . S
C107 O110 1.252 . S
C107 O111 1.260 . S
C108 O115 1.240 . S
C108 O116 1.252 . S
C109 O112 1.252 . S
C109 O113 1.260 . S
O110 In104 2.266 . S
O110 C107 1.252 . S
O111 In104 2.326 . S
O111 C107 1.260 . S
O112 In104 2.266 . S
O112 C109 1.252 . S
O113 In104 2.326 . S
O113 C109 1.260 . S
C114 O105 1.240 . S
C114 O106 1.252 . S
O115 In104 2.294 . S
O115 C108 1.240 . S
O116 In104 2.326 . S
O116 C108 1.252 . S
In117 O118 2.294 . S
In117 O119 2.326 . S
In117 O123 2.266 . S
In117 O124 2.326 . S
In117 O125 2.266 . S
In117 O126 2.326 . S
In117 O128 2.294 . S
In117 O129 2.326 . S
O118 In117 2.294 . S
O118 C127 1.240 . S
O119 In117 2.326 . S
O119 C127 1.252 . S
C120 O123 1.252 . S
C120 O124 1.260 . S
C121 O128 1.240 . S
C121 O129 1.252 . S
C122 O125 1.252 . S
C122 O126 1.260 . S
O123 In117 2.266 . S
O123 C120 1.252 . S
O124 In117 2.326 . S
O124 C120 1.260 . S
O125 In117 2.266 . S
O125 C122 1.252 . S
O126 In117 2.326 . S
O126 C122 1.260 . S
C127 O118 1.240 . S
C127 O119 1.252 . S
O128 In117 2.294 . S
O128 C121 1.240 . S
O129 In117 2.326 . S
O129 C121 1.252 . S
In130 O131 2.294 . S
In130 O132 2.326 . S
In130 O136 2.266 . S
In130 O137 2.326 . S
In130 O138 2.266 . S
In130 O139 2.326 . S
In130 O141 2.294 . S
In130 O142 2.326 . S
O131 In130 2.294 . S
O131 C140 1.240 . S
O132 In130 2.326 . S
O132 C140 1.252 . S
C133 O136 1.252 . S
C133 O137 1.260 . S
C134 O141 1.240 . S
C134 O142 1.252 . S
C135 O138 1.252 . S
C135 O139 1.260 . S
O136 In130 2.266 . S
O136 C133 1.252 . S
O137 In130 2.326 . S
O137 C133 1.260 . S
O138 In130 2.266 . S
O138 C135 1.252 . S
O139 In130 2.326 . S
O139 C135 1.260 . S
C140 O131 1.240 . S
C140 O132 1.252 . S
O141 In130 2.294 . S
O141 C134 1.240 . S
O142 In130 2.326 . S
O142 C134 1.252 . S
In143 O144 2.294 . S
In143 O145 2.326 . S
In143 O149 2.266 . S
In143 O150 2.326 . S
In143 O151 2.266 . S
In143 O152 2.326 . S
In143 O154 2.294 . S
In143 O155 2.326 . S
O144 In143 2.294 . S
O144 C153 1.240 . S
O145 In143 2.326 . S
O145 C153 1.252 . S
C146 O149 1.252 . S
C146 O150 1.260 . S
C147 O154 1.240 . S
C147 O155 1.252 . S
C148 O151 1.252 . S
C148 O152 1.260 . S
O149 In143 2.266 . S
O149 C146 1.252 . S
O150 In143 2.326 . S
O150 C146 1.260 . S
O151 In143 2.266 . S
O151 C148 1.252 . S
O152 In143 2.326 . S
O152 C148 1.260 . S
C153 O144 1.240 . S
C153 O145 1.252 . S
O154 In143 2.294 . S
O154 C147 1.240 . S
O155 In143 2.326 . S
O155 C147 1.252 . S
H156 C174 0.951 . S
H157 C176 0.951 . S
H158 C178 0.950 . S
H159 C179 0.950 . S
H160 C181 0.950 . S
H161 C184 0.950 . S
H162 C185 0.950 . S
H163 C187 0.950 . S
H164 C188 0.950 . S
H165 C189 0.951 . S
H166 C191 0.951 . S
H167 C193 0.950 . S
H168 C194 0.950 . S
H169 C196 0.950 . S
H170 C199 0.950 . S
H171 C200 0.950 . S
H172 C202 0.950 . S
H173 C203 0.950 . S
C174 H156 0.951 . S
C174 C175 1.366 . S
C174 C176 1.388 . S
C175 C174 1.366 . S
C175 C179 1.385 . S
C176 H157 0.951 . S
C176 C174 1.388 . S
C176 C177 1.366 . S
C177 C176 1.366 . S
C177 C178 1.414 . S
C177 C180 1.499 . S
C178 H158 0.950 . S
C178 C177 1.414 . S
C178 C179 1.374 . S
C179 H159 0.950 . S
C179 C175 1.385 . S
C179 C178 1.374 . S
C180 C177 1.499 . S
C180 C181 1.373 . S
C180 C182 1.389 . S
C181 H160 0.950 . S
C181 C180 1.373 . S
C181 C197 1.377 . S
C182 C180 1.389 . S
C182 C183 1.524 . S
C182 C196 1.377 . S
C183 C182 1.524 . S
C183 C184 1.397 . S
C183 C188 1.363 . S
C184 H161 0.950 . S
C184 C183 1.397 . S
C184 C185 1.334 . S
C185 H162 0.950 . S
C185 C184 1.334 . S
C185 C186 1.287 . S
C186 C185 1.287 . S
C186 C187 1.524 . S
C186 H205 0.913 . S
C187 H163 0.950 . S
C187 C186 1.524 . S
C187 C188 1.415 . S
C188 H164 0.950 . S
C188 C183 1.363 . S
C188 C187 1.415 . S
C189 H165 0.951 . S
C189 C190 1.366 . S
C189 C191 1.388 . S
C190 C189 1.366 . S
C190 C194 1.385 . S
C191 H166 0.951 . S
C191 C189 1.388 . S
C191 C192 1.366 . S
C192 C191 1.366 . S
C192 C193 1.414 . S
C192 C195 1.499 . S
C193 H167 0.950 . S
C193 C192 1.414 . S
C193 C194 1.374 . S
C194 H168 0.950 . S
C194 C190 1.385 . S
C194 C193 1.374 . S
C195 C192 1.499 . S
C195 C196 1.373 . S
C195 C197 1.389 . S
C196 H169 0.950 . S
C196 C182 1.377 . S
C196 C195 1.373 . S
C197 C181 1.377 . S
C197 C195 1.389 . S
C197 C198 1.524 . S
C198 C197 1.524 . S
C198 C199 1.397 . S
C198 C203 1.363 . S
C199 H170 0.950 . S
C199 C198 1.397 . S
C199 C200 1.334 . S
C200 H171 0.950 . S
C200 C199 1.334 . S
C200 C201 1.287 . S
C201 C200 1.287 . S
C201 C202 1.524 . S
C201 H204 0.999 . S
C202 H172 0.950 . S
C202 C201 1.524 . S
C202 C203 1.415 . S
C203 H173 0.950 . S
C203 C198 1.363 . S
C203 C202 1.415 . S
H204 C201 0.999 . S
H205 C186 0.913 . S
H206 C224 0.951 . S
H207 C226 0.951 . S
H208 C228 0.950 . S
H209 C229 0.950 . S
H210 C231 0.950 . S
H211 C234 0.950 . S
H212 C235 0.950 . S
H213 C237 0.950 . S
H214 C238 0.950 . S
H215 C239 0.951 . S
H216 C241 0.951 . S
H217 C243 0.950 . S
H218 C244 0.950 . S
H219 C246 0.950 . S
H220 C249 0.950 . S
H221 C250 0.950 . S
H222 C252 0.950 . S
H223 C253 0.950 . S
C224 H206 0.951 . S
C224 C225 1.366 . S
C224 C226 1.388 . S
C225 C224 1.366 . S
C225 C229 1.385 . S
C226 H207 0.951 . S
C226 C224 1.388 . S
C226 C227 1.366 . S
C227 C226 1.366 . S
C227 C228 1.414 . S
C227 C230 1.499 . S
C228 H208 0.950 . S
C228 C227 1.414 . S
C228 C229 1.374 . S
C229 H209 0.950 . S
C229 C225 1.385 . S
C229 C228 1.374 . S
C230 C227 1.499 . S
C230 C231 1.373 . S
C230 C232 1.389 . S
C231 H210 0.950 . S
C231 C230 1.373 . S
C231 C247 1.377 . S
C232 C230 1.389 . S
C232 C233 1.524 . S
C232 C246 1.377 . S
C233 C232 1.524 . S
C233 C234 1.397 . S
C233 C238 1.363 . S
C234 H211 0.950 . S
C234 C233 1.397 . S
C234 C235 1.334 . S
C235 H212 0.950 . S
C235 C234 1.334 . S
C235 C236 1.287 . S
C236 C235 1.287 . S
C236 C237 1.524 . S
C236 H255 0.913 . S
C237 H213 0.950 . S
C237 C236 1.524 . S
C237 C238 1.415 . S
C238 H214 0.950 . S
C238 C233 1.363 . S
C238 C237 1.415 . S
C239 H215 0.951 . S
C239 C240 1.366 . S
C239 C241 1.388 . S
C240 C239 1.366 . S
C240 C244 1.385 . S
C241 H216 0.951 . S
C241 C239 1.388 . S
C241 C242 1.366 . S
C242 C241 1.366 . S
C242 C243 1.414 . S
C242 C245 1.499 . S
C243 H217 0.950 . S
C243 C242 1.414 . S
C243 C244 1.374 . S
C244 H218 0.950 . S
C244 C240 1.385 . S
C244 C243 1.374 . S
C245 C242 1.499 . S
C245 C246 1.373 . S
C245 C247 1.389 . S
C246 H219 0.950 . S
C246 C232 1.377 . S
C246 C245 1.373 . S
C247 C231 1.377 . S
C247 C245 1.389 . S
C247 C248 1.524 . S
C248 C247 1.524 . S
C248 C249 1.397 . S
C248 C253 1.363 . S
C249 H220 0.950 . S
C249 C248 1.397 . S
C249 C250 1.334 . S
C250 H221 0.950 . S
C250 C249 1.334 . S
C250 C251 1.287 . S
C251 C250 1.287 . S
C251 C252 1.524 . S
C251 H254 0.999 . S
C252 H222 0.950 . S
C252 C251 1.524 . S
C252 C253 1.415 . S
C253 H223 0.950 . S
C253 C248 1.363 . S
C253 C252 1.415 . S
H254 C251 0.999 . S
H255 C236 0.913 . S
H256 C274 0.951 . S
H257 C276 0.951 . S
H258 C278 0.950 . S
H259 C279 0.950 . S
H260 C281 0.950 . S
H261 C284 0.950 . S
H262 C285 0.950 . S
H263 C287 0.950 . S
H264 C288 0.950 . S
H265 C289 0.951 . S
H266 C291 0.951 . S
H267 C293 0.950 . S
H268 C294 0.950 . S
H269 C296 0.950 . S
H270 C299 0.950 . S
H271 C300 0.950 . S
H272 C302 0.950 . S
H273 C303 0.950 . S
C274 H256 0.951 . S
C274 C275 1.366 . S
C274 C276 1.388 . S
C275 C274 1.366 . S
C275 C279 1.385 . S
C276 H257 0.951 . S
C276 C274 1.388 . S
C276 C277 1.366 . S
C277 C276 1.366 . S
C277 C278 1.414 . S
C277 C280 1.499 . S
C278 H258 0.950 . S
C278 C277 1.414 . S
C278 C279 1.374 . S
C279 H259 0.950 . S
C279 C275 1.385 . S
C279 C278 1.374 . S
C280 C277 1.499 . S
C280 C281 1.373 . S
C280 C282 1.389 . S
C281 H260 0.950 . S
C281 C280 1.373 . S
C281 C297 1.377 1_556 S
C282 C280 1.389 . S
C282 C283 1.524 . S
C282 C296 1.377 1_556 S
C283 C282 1.524 . S
C283 C284 1.397 . S
C283 C288 1.363 . S
C284 H261 0.950 . S
C284 C283 1.397 . S
C284 C285 1.334 . S
C285 H262 0.950 . S
C285 C284 1.334 . S
C285 C286 1.287 . S
C286 C285 1.287 . S
C286 C287 1.524 . S
C286 H305 0.913 . S
C287 H263 0.950 . S
C287 C286 1.524 . S
C287 C288 1.415 . S
C288 H264 0.950 . S
C288 C283 1.363 . S
C288 C287 1.415 . S
C289 H265 0.951 . S
C289 C290 1.366 . S
C289 C291 1.388 . S
C290 C289 1.366 . S
C290 C294 1.385 . S
C291 H266 0.951 . S
C291 C289 1.388 . S
C291 C292 1.366 . S
C292 C291 1.366 . S
C292 C293 1.414 . S
C292 C295 1.499 . S
C293 H267 0.950 . S
C293 C292 1.414 . S
C293 C294 1.374 . S
C294 H268 0.950 . S
C294 C290 1.385 . S
C294 C293 1.374 . S
C295 C292 1.499 . S
C295 C296 1.373 . S
C295 C297 1.389 . S
C296 H269 0.950 . S
C296 C282 1.377 1_554 S
C296 C295 1.373 . S
C297 C281 1.377 1_554 S
C297 C295 1.389 . S
C297 C298 1.524 . S
C298 C297 1.524 . S
C298 C299 1.397 . S
C298 C303 1.363 . S
C299 H270 0.950 . S
C299 C298 1.397 . S
C299 C300 1.334 . S
C300 H271 0.950 . S
C300 C299 1.334 . S
C300 C301 1.287 . S
C301 C300 1.287 . S
C301 C302 1.524 . S
C301 H304 0.999 . S
C302 H272 0.950 . S
C302 C301 1.524 . S
C302 C303 1.415 . S
C303 H273 0.950 . S
C303 C298 1.363 . S
C303 C302 1.415 . S
H304 C301 0.999 . S
H305 C286 0.913 . S
H306 C324 0.951 . S
H307 C326 0.951 . S
H308 C328 0.950 . S
H309 C329 0.950 . S
H310 C331 0.950 . S
H311 C334 0.950 . S
H312 C335 0.950 . S
H313 C337 0.950 . S
H314 C338 0.950 . S
H315 C339 0.951 . S
H316 C341 0.951 . S
H317 C343 0.950 . S
H318 C344 0.950 . S
H319 C346 0.950 . S
H320 C349 0.950 . S
H321 C350 0.950 . S
H322 C352 0.950 . S
H323 C353 0.950 . S
C324 H306 0.951 . S
C324 C325 1.366 . S
C324 C326 1.388 . S
C325 C324 1.366 . S
C325 C329 1.385 . S
C326 H307 0.951 . S
C326 C324 1.388 . S
C326 C327 1.366 . S
C327 C326 1.366 . S
C327 C328 1.414 . S
C327 C330 1.499 . S
C328 H308 0.950 . S
C328 C327 1.414 . S
C328 C329 1.374 . S
C329 H309 0.950 . S
C329 C325 1.385 . S
C329 C328 1.374 . S
C330 C327 1.499 . S
C330 C331 1.373 . S
C330 C332 1.389 . S
C331 H310 0.950 . S
C331 C330 1.373 . S
C331 C347 1.377 . S
C332 C330 1.389 . S
C332 C333 1.524 . S
C332 C346 1.377 . S
C333 C332 1.524 . S
C333 C334 1.397 . S
C333 C338 1.363 . S
C334 H311 0.950 . S
C334 C333 1.397 . S
C334 C335 1.334 . S
C335 H312 0.950 . S
C335 C334 1.334 . S
C335 C336 1.287 . S
C336 C335 1.287 . S
C336 C337 1.524 . S
C336 H355 0.913 . S
C337 H313 0.950 . S
C337 C336 1.524 . S
C337 C338 1.415 . S
C338 H314 0.950 . S
C338 C333 1.363 . S
C338 C337 1.415 . S
C339 H315 0.951 . S
C339 C340 1.366 . S
C339 C341 1.388 . S
C340 C339 1.366 . S
C340 C344 1.385 . S
C341 H316 0.951 . S
C341 C339 1.388 . S
C341 C342 1.366 . S
C342 C341 1.366 . S
C342 C343 1.414 . S
C342 C345 1.499 . S
C343 H317 0.950 . S
C343 C342 1.414 . S
C343 C344 1.374 . S
C344 H318 0.950 . S
C344 C340 1.385 . S
C344 C343 1.374 . S
C345 C342 1.499 . S
C345 C346 1.373 . S
C345 C347 1.389 . S
C346 H319 0.950 . S
C346 C332 1.377 . S
C346 C345 1.373 . S
C347 C331 1.377 . S
C347 C345 1.389 . S
C347 C348 1.524 . S
C348 C347 1.524 . S
C348 C349 1.397 . S
C348 C353 1.363 . S
C349 H320 0.950 . S
C349 C348 1.397 . S
C349 C350 1.334 . S
C350 H321 0.950 . S
C350 C349 1.334 . S
C350 C351 1.287 . S
C351 C350 1.287 . S
C351 C352 1.524 . S
C351 H354 0.999 . S
C352 H322 0.950 . S
C352 C351 1.524 . S
C352 C353 1.415 . S
C353 H323 0.950 . S
C353 C348 1.363 . S
C353 C352 1.415 . S
H354 C351 0.999 . S
H355 C336 0.913 . S
H356 C374 0.951 . S
H357 C376 0.951 . S
H358 C378 0.950 . S
H359 C379 0.950 . S
H360 C381 0.950 . S
H361 C384 0.950 . S
H362 C385 0.950 . S
H363 C387 0.950 . S
H364 C388 0.950 . S
H365 C389 0.951 . S
H366 C391 0.951 . S
H367 C393 0.950 . S
H368 C394 0.950 . S
H369 C396 0.950 . S
H370 C399 0.950 . S
H371 C400 0.950 . S
H372 C402 0.950 . S
H373 C403 0.950 . S
C374 H356 0.951 . S
C374 C375 1.366 . S
C374 C376 1.388 . S
C375 C374 1.366 . S
C375 C379 1.385 . S
C376 H357 0.951 . S
C376 C374 1.388 . S
C376 C377 1.366 . S
C377 C376 1.366 . S
C377 C378 1.414 . S
C377 C380 1.499 . S
C378 H358 0.950 . S
C378 C377 1.414 . S
C378 C379 1.374 . S
C379 H359 0.950 . S
C379 C375 1.385 . S
C379 C378 1.374 . S
C380 C377 1.499 . S
C380 C381 1.373 . S
C380 C382 1.389 . S
C381 H360 0.950 . S
C381 C380 1.373 . S
C381 C397 1.377 . S
C382 C380 1.389 . S
C382 C383 1.524 . S
C382 C396 1.377 . S
C383 C382 1.524 . S
C383 C384 1.397 . S
C383 C388 1.363 . S
C384 H361 0.950 . S
C384 C383 1.397 . S
C384 C385 1.334 . S
C385 H362 0.950 . S
C385 C384 1.334 . S
C385 C386 1.287 . S
C386 C385 1.287 . S
C386 C387 1.524 . S
C386 H405 0.913 . S
C387 H363 0.950 . S
C387 C386 1.524 . S
C387 C388 1.415 . S
C388 H364 0.950 . S
C388 C383 1.363 . S
C388 C387 1.415 . S
C389 H365 0.951 . S
C389 C390 1.366 . S
C389 C391 1.388 . S
C390 C389 1.366 . S
C390 C394 1.385 . S
C391 H366 0.951 . S
C391 C389 1.388 . S
C391 C392 1.366 . S
C392 C391 1.366 . S
C392 C393 1.414 . S
C392 C395 1.499 . S
C393 H367 0.950 . S
C393 C392 1.414 . S
C393 C394 1.374 . S
C394 H368 0.950 . S
C394 C390 1.385 . S
C394 C393 1.374 . S
C395 C392 1.499 . S
C395 C396 1.373 . S
C395 C397 1.389 . S
C396 H369 0.950 . S
C396 C382 1.377 . S
C396 C395 1.373 . S
C397 C381 1.377 . S
C397 C395 1.389 . S
C397 C398 1.524 . S
C398 C397 1.524 . S
C398 C399 1.397 . S
C398 C403 1.363 . S
C399 H370 0.950 . S
C399 C398 1.397 . S
C399 C400 1.334 . S
C400 H371 0.950 . S
C400 C399 1.334 . S
C400 C401 1.287 . S
C401 C400 1.287 . S
C401 C402 1.524 . S
C401 H404 0.999 . S
C402 H372 0.950 . S
C402 C401 1.524 . S
C402 C403 1.415 . S
C403 H373 0.950 . S
C403 C398 1.363 . S
C403 C402 1.415 . S
H404 C401 0.999 . S
H405 C386 0.913 . S
H406 C424 0.951 . S
H407 C426 0.951 . S
H408 C428 0.950 . S
H409 C429 0.950 . S
H410 C431 0.950 . S
H411 C434 0.950 . S
H412 C435 0.950 . S
H413 C437 0.950 . S
H414 C438 0.950 . S
H415 C439 0.951 . S
H416 C441 0.951 . S
H417 C443 0.950 . S
H418 C444 0.950 . S
H419 C446 0.950 . S
H420 C449 0.950 . S
H421 C450 0.950 . S
H422 C452 0.950 . S
H423 C453 0.950 . S
C424 H406 0.951 . S
C424 C425 1.366 . S
C424 C426 1.388 . S
C425 C424 1.366 . S
C425 C429 1.385 . S
C426 H407 0.951 . S
C426 C424 1.388 . S
C426 C427 1.366 . S
C427 C426 1.366 . S
C427 C428 1.414 . S
C427 C430 1.499 . S
C428 H408 0.950 . S
C428 C427 1.414 . S
C428 C429 1.374 . S
C429 H409 0.950 . S
C429 C425 1.385 . S
C429 C428 1.374 . S
C430 C427 1.499 . S
C430 C431 1.373 . S
C430 C432 1.389 . S
C431 H410 0.950 . S
C431 C430 1.373 . S
C431 C447 1.377 1_554 S
C432 C430 1.389 . S
C432 C433 1.524 . S
C432 C446 1.377 1_554 S
C433 C432 1.524 . S
C433 C434 1.397 . S
C433 C438 1.363 . S
C434 H411 0.950 . S
C434 C433 1.397 . S
C434 C435 1.334 . S
C435 H412 0.950 . S
C435 C434 1.334 . S
C435 C436 1.287 . S
C436 C435 1.287 . S
C436 C437 1.524 . S
C436 H455 0.913 . S
C437 H413 0.950 . S
C437 C436 1.524 . S
C437 C438 1.415 . S
C438 H414 0.950 . S
C438 C433 1.363 . S
C438 C437 1.415 . S
C439 H415 0.951 . S
C439 C440 1.366 . S
C439 C441 1.388 . S
C440 C439 1.366 . S
C440 C444 1.385 . S
C441 H416 0.951 . S
C441 C439 1.388 . S
C441 C442 1.366 . S
C442 C441 1.366 . S
C442 C443 1.414 . S
C442 C445 1.499 . S
C443 H417 0.950 . S
C443 C442 1.414 . S
C443 C444 1.374 . S
C444 H418 0.950 . S
C444 C440 1.385 . S
C444 C443 1.374 . S
C445 C442 1.499 . S
C445 C446 1.373 . S
C445 C447 1.389 . S
C446 H419 0.950 . S
C446 C432 1.377 1_556 S
C446 C445 1.373 . S
C447 C431 1.377 1_556 S
C447 C445 1.389 . S
C447 C448 1.524 . S
C448 C447 1.524 . S
C448 C449 1.397 . S
C448 C453 1.363 . S
C449 H420 0.950 . S
C449 C448 1.397 . S
C449 C450 1.334 . S
C450 H421 0.950 . S
C450 C449 1.334 . S
C450 C451 1.287 . S
C451 C450 1.287 . S
C451 C452 1.524 . S
C451 H454 0.999 . S
C452 H422 0.950 . S
C452 C451 1.524 . S
C452 C453 1.415 . S
C453 H423 0.950 . S
C453 C448 1.363 . S
C453 C452 1.415 . S
H454 C451 0.999 . S
H455 C436 0.913 . S
H456 C474 0.951 . S
H457 C476 0.951 1_556 S
H458 C478 0.950 . S
H459 C479 0.950 . S
H460 C481 0.950 . S
H461 C484 0.950 . S
H462 C485 0.950 1_554 S
H463 C487 0.950 . S
H464 C488 0.950 . S
H465 C489 0.951 . S
H466 C491 0.951 1_554 S
H467 C493 0.950 . S
H468 C494 0.950 . S
H469 C496 0.950 . S
H470 C499 0.950 . S
H471 C500 0.950 1_556 S
H472 C502 0.950 . S
H473 C503 0.950 . S
C474 H456 0.951 . S
C474 C475 1.366 . S
C474 C476 1.388 . S
C475 C474 1.366 . S
C475 C479 1.385 . S
C476 H457 0.951 1_554 S
C476 C474 1.388 . S
C476 C477 1.366 . S
C477 C476 1.366 . S
C477 C478 1.414 . S
C477 C480 1.499 . S
C478 H458 0.950 . S
C478 C477 1.414 . S
C478 C479 1.374 . S
C479 H459 0.950 . S
C479 C475 1.385 . S
C479 C478 1.374 . S
C480 C477 1.499 . S
C480 C481 1.373 . S
C480 C482 1.389 1_554 S
C481 H460 0.950 . S
C481 C480 1.373 . S
C481 C497 1.377 . S
C482 C480 1.389 1_556 S
C482 C483 1.524 . S
C482 C496 1.377 . S
C483 C482 1.524 . S
C483 C484 1.397 1_556 S
C483 C488 1.363 . S
C484 H461 0.950 . S
C484 C483 1.397 1_554 S
C484 C485 1.334 1_554 S
C485 H462 0.950 1_556 S
C485 C484 1.334 1_556 S
C485 C486 1.287 . S
C486 C485 1.287 . S
C486 C487 1.524 . S
C486 H505 0.913 . S
C487 H463 0.950 . S
C487 C486 1.524 . S
C487 C488 1.415 . S
C488 H464 0.950 . S
C488 C483 1.363 . S
C488 C487 1.415 . S
C489 H465 0.951 . S
C489 C490 1.366 . S
C489 C491 1.388 . S
C490 C489 1.366 . S
C490 C494 1.385 . S
C491 H466 0.951 1_556 S
C491 C489 1.388 . S
C491 C492 1.366 . S
C492 C491 1.366 . S
C492 C493 1.414 . S
C492 C495 1.499 . S
C493 H467 0.950 . S
C493 C492 1.414 . S
C493 C494 1.374 . S
C494 H468 0.950 . S
C494 C490 1.385 . S
C494 C493 1.374 . S
C495 C492 1.499 . S
C495 C496 1.373 . S
C495 C497 1.389 1_556 S
C496 H469 0.950 . S
C496 C482 1.377 . S
C496 C495 1.373 . S
C497 C481 1.377 . S
C497 C495 1.389 1_554 S
C497 C498 1.524 . S
C498 C497 1.524 . S
C498 C499 1.397 1_554 S
C498 C503 1.363 . S
C499 H470 0.950 . S
C499 C498 1.397 1_556 S
C499 C500 1.334 1_556 S
C500 H471 0.950 1_554 S
C500 C499 1.334 1_554 S
C500 C501 1.287 . S
C501 C500 1.287 . S
C501 C502 1.524 . S
C501 H504 0.999 . S
C502 H472 0.950 . S
C502 C501 1.524 . S
C502 C503 1.415 . S
C503 H473 0.950 . S
C503 C498 1.363 . S
C503 C502 1.415 . S
H504 C501 0.999 . S
H505 C486 0.913 . S
H506 C524 0.951 . S
H507 C526 0.951 . S
H508 C528 0.950 . S
H509 C529 0.950 . S
H510 C531 0.950 . S
H511 C534 0.950 . S
H512 C535 0.950 . S
H513 C537 0.950 . S
H514 C538 0.950 . S
H515 C539 0.951 . S
H516 C541 0.951 . S
H517 C543 0.950 . S
H518 C544 0.950 . S
H519 C546 0.950 . S
H520 C549 0.950 . S
H521 C550 0.950 . S
H522 C552 0.950 . S
H523 C553 0.950 . S
C524 H506 0.951 . S
C524 C525 1.366 . S
C524 C526 1.388 . S
C525 C524 1.366 . S
C525 C529 1.385 . S
C526 H507 0.951 . S
C526 C524 1.388 . S
C526 C527 1.366 . S
C527 C526 1.366 . S
C527 C528 1.414 . S
C527 C530 1.499 . S
C528 H508 0.950 . S
C528 C527 1.414 . S
C528 C529 1.374 . S
C529 H509 0.950 . S
C529 C525 1.385 . S
C529 C528 1.374 . S
C530 C527 1.499 . S
C530 C531 1.373 . S
C530 C532 1.389 . S
C531 H510 0.950 . S
C531 C530 1.373 . S
C531 C547 1.377 . S
C532 C530 1.389 . S
C532 C533 1.524 . S
C532 C546 1.377 . S
C533 C532 1.524 . S
C533 C534 1.397 . S
C533 C538 1.363 . S
C534 H511 0.950 . S
C534 C533 1.397 . S
C534 C535 1.334 . S
C535 H512 0.950 . S
C535 C534 1.334 . S
C535 C536 1.287 . S
C536 C535 1.287 . S
C536 C537 1.524 . S
C536 H555 0.913 . S
C537 H513 0.950 . S
C537 C536 1.524 . S
C537 C538 1.415 . S
C538 H514 0.950 . S
C538 C533 1.363 . S
C538 C537 1.415 . S
C539 H515 0.951 . S
C539 C540 1.366 . S
C539 C541 1.388 . S
C540 C539 1.366 . S
C540 C544 1.385 . S
C541 H516 0.951 . S
C541 C539 1.388 . S
C541 C542 1.366 . S
C542 C541 1.366 . S
C542 C543 1.414 . S
C542 C545 1.499 . S
C543 H517 0.950 . S
C543 C542 1.414 . S
C543 C544 1.374 . S
C544 H518 0.950 . S
C544 C540 1.385 . S
C544 C543 1.374 . S
C545 C542 1.499 . S
C545 C546 1.373 . S
C545 C547 1.389 . S
C546 H519 0.950 . S
C546 C532 1.377 . S
C546 C545 1.373 . S
C547 C531 1.377 . S
C547 C545 1.389 . S
C547 C548 1.524 . S
C548 C547 1.524 . S
C548 C549 1.397 . S
C548 C553 1.363 . S
C549 H520 0.950 . S
C549 C548 1.397 . S
C549 C550 1.334 . S
C550 H521 0.950 . S
C550 C549 1.334 . S
C550 C551 1.287 . S
C551 C550 1.287 . S
C551 C552 1.524 . S
C551 H554 0.999 . S
C552 H522 0.950 . S
C552 C551 1.524 . S
C552 C553 1.415 . S
C553 H523 0.950 . S
C553 C548 1.363 . S
C553 C552 1.415 . S
H554 C551 0.999 . S
H555 C536 0.913 . S
H556 C574 0.951 . S
H557 C576 0.951 . S
H558 C578 0.950 . S
H559 C579 0.950 . S
H560 C581 0.950 . S
H561 C584 0.950 . S
H562 C585 0.950 . S
H563 C587 0.950 . S
H564 C588 0.950 . S
H565 C589 0.951 . S
H566 C591 0.951 . S
H567 C593 0.950 . S
H568 C594 0.950 . S
H569 C596 0.950 . S
H570 C599 0.950 . S
H571 C600 0.950 . S
H572 C602 0.950 . S
H573 C603 0.950 . S
C574 H556 0.951 . S
C574 C575 1.366 . S
C574 C576 1.388 . S
C575 C574 1.366 . S
C575 C579 1.385 . S
C576 H557 0.951 . S
C576 C574 1.388 . S
C576 C577 1.366 . S
C577 C576 1.366 . S
C577 C578 1.414 . S
C577 C580 1.499 . S
C578 H558 0.950 . S
C578 C577 1.414 . S
C578 C579 1.374 . S
C579 H559 0.950 . S
C579 C575 1.385 . S
C579 C578 1.374 . S
C580 C577 1.499 . S
C580 C581 1.373 . S
C580 C582 1.389 . S
C581 H560 0.950 . S
C581 C580 1.373 . S
C581 C597 1.377 . S
C582 C580 1.389 . S
C582 C583 1.524 . S
C582 C596 1.377 . S
C583 C582 1.524 . S
C583 C584 1.397 . S
C583 C588 1.363 . S
C584 H561 0.950 . S
C584 C583 1.397 . S
C584 C585 1.334 . S
C585 H562 0.950 . S
C585 C584 1.334 . S
C585 C586 1.287 . S
C586 C585 1.287 . S
C586 C587 1.524 . S
C586 H605 0.913 . S
C587 H563 0.950 . S
C587 C586 1.524 . S
C587 C588 1.415 . S
C588 H564 0.950 . S
C588 C583 1.363 . S
C588 C587 1.415 . S
C589 H565 0.951 . S
C589 C590 1.366 . S
C589 C591 1.388 . S
C590 C589 1.366 . S
C590 C594 1.385 . S
C591 H566 0.951 . S
C591 C589 1.388 . S
C591 C592 1.366 . S
C592 C591 1.366 . S
C592 C593 1.414 . S
C592 C595 1.499 . S
C593 H567 0.950 . S
C593 C592 1.414 . S
C593 C594 1.374 . S
C594 H568 0.950 . S
C594 C590 1.385 . S
C594 C593 1.374 . S
C595 C592 1.499 . S
C595 C596 1.373 . S
C595 C597 1.389 . S
C596 H569 0.950 . S
C596 C582 1.377 . S
C596 C595 1.373 . S
C597 C581 1.377 . S
C597 C595 1.389 . S
C597 C598 1.524 . S
C598 C597 1.524 . S
C598 C599 1.397 . S
C598 C603 1.363 . S
C599 H570 0.950 . S
C599 C598 1.397 . S
C599 C600 1.334 . S
C600 H571 0.950 . S
C600 C599 1.334 . S
C600 C601 1.287 . S
C601 C600 1.287 . S
C601 C602 1.524 . S
C601 H604 0.999 . S
C602 H572 0.950 . S
C602 C601 1.524 . S
C602 C603 1.415 . S
C603 H573 0.950 . S
C603 C598 1.363 . S
C603 C602 1.415 . S
H604 C601 0.999 . S
H605 C586 0.913 . S
H606 C624 0.951 . S
H607 C626 0.951 . S
H608 C628 0.950 1_556 S
H609 C629 0.967 . S
H610 C631 0.950 . S
H611 C634 0.950 . S
H612 C635 0.950 . S
H613 C637 0.950 . S
H614 C638 0.950 . S
H615 C639 0.951 . S
H616 C641 0.951 . S
H617 C643 0.950 1_554 S
H618 C644 0.966 . S
H619 C646 0.950 . S
H620 C649 0.950 . S
H621 C650 0.950 . S
H622 C652 0.950 . S
H623 C653 0.950 . S
C624 H606 0.951 . S
C624 C625 1.366 . S
C624 C626 1.388 . S
C625 C624 1.366 . S
C625 C629 1.385 . S
C626 H607 0.951 . S
C626 C624 1.388 . S
C626 C627 1.366 . S
C627 C626 1.366 . S
C627 C628 1.414 . S
C627 C630 1.499 . S
C628 H608 0.950 1_554 S
C628 C627 1.414 . S
C628 C629 1.374 . S
C629 H609 0.967 . S
C629 C625 1.385 . S
C629 C628 1.374 . S
C630 C627 1.499 . S
C630 C631 1.373 1_554 S
C630 C632 1.389 . S
C631 H610 0.950 . S
C631 C630 1.373 1_556 S
C631 C647 1.377 . S
C632 C630 1.389 . S
C632 C633 1.524 . S
C632 C646 1.377 . S
C633 C632 1.524 . S
C633 C634 1.397 . S
C633 C638 1.363 . S
C634 H611 0.950 . S
C634 C633 1.397 . S
C634 C635 1.334 . S
C635 H612 0.950 . S
C635 C634 1.334 . S
C635 C636 1.287 . S
C636 C635 1.287 . S
C636 C637 1.524 . S
C636 H655 0.913 . S
C637 H613 0.950 . S
C637 C636 1.524 . S
C637 C638 1.415 . S
C638 H614 0.950 . S
C638 C633 1.363 . S
C638 C637 1.415 . S
C639 H615 0.951 . S
C639 C640 1.366 . S
C639 C641 1.388 . S
C640 C639 1.366 . S
C640 C644 1.385 . S
C641 H616 0.951 . S
C641 C639 1.388 . S
C641 C642 1.366 . S
C642 C641 1.366 . S
C642 C643 1.414 . S
C642 C645 1.499 . S
C643 H617 0.950 1_556 S
C643 C642 1.414 . S
C643 C644 1.374 . S
C644 H618 0.966 . S
C644 C640 1.385 . S
C644 C643 1.374 . S
C645 C642 1.499 . S
C645 C646 1.373 1_556 S
C645 C647 1.389 . S
C646 H619 0.950 . S
C646 C632 1.377 . S
C646 C645 1.373 1_554 S
C647 C631 1.377 . S
C647 C645 1.389 . S
C647 C648 1.524 . S
C648 C647 1.524 . S
C648 C649 1.397 . S
C648 C653 1.363 . S
C649 H620 0.950 . S
C649 C648 1.397 . S
C649 C650 1.334 . S
C650 H621 0.950 . S
C650 C649 1.334 . S
C650 C651 1.287 . S
C651 C650 1.287 . S
C651 C652 1.524 . S
C651 H654 0.999 . S
C652 H622 0.950 . S
C652 C651 1.524 . S
C652 C653 1.415 . S
C653 H623 0.950 . S
C653 C648 1.363 . S
C653 C652 1.415 . S
H654 C651 0.999 . S
H655 C636 0.913 . S
H656 C674 0.951 . S
H657 C676 0.951 . S
H658 C678 0.950 . S
H659 C679 0.950 . S
H660 C681 0.950 . S
H661 C684 0.950 . S
H662 C685 0.950 . S
H663 C687 0.950 . S
H664 C688 0.950 . S
H665 C689 0.951 . S
H666 C691 0.951 . S
H667 C693 0.950 . S
H668 C694 0.950 . S
H669 C696 0.950 . S
H670 C699 0.950 . S
H671 C700 0.950 . S
H672 C702 0.950 . S
H673 C703 0.950 . S
C674 H656 0.951 . S
C674 C675 1.366 . S
C674 C676 1.388 . S
C675 C674 1.366 . S
C675 C679 1.385 . S
C676 H657 0.951 . S
C676 C674 1.388 . S
C676 C677 1.366 . S
C677 C676 1.366 . S
C677 C678 1.414 . S
C677 C680 1.499 . S
C678 H658 0.950 . S
C678 C677 1.414 . S
C678 C679 1.374 . S
C679 H659 0.950 . S
C679 C675 1.385 . S
C679 C678 1.374 . S
C680 C677 1.499 . S
C680 C681 1.373 . S
C680 C682 1.389 . S
C681 H660 0.950 . S
C681 C680 1.373 . S
C681 C697 1.377 . S
C682 C680 1.389 . S
C682 C683 1.524 . S
C682 C696 1.377 . S
C683 C682 1.524 . S
C683 C684 1.397 . S
C683 C688 1.363 . S
C684 H661 0.950 . S
C684 C683 1.397 . S
C684 C685 1.334 . S
C685 H662 0.950 . S
C685 C684 1.334 . S
C685 C686 1.287 . S
C686 C685 1.287 . S
C686 C687 1.524 . S
C686 H705 0.913 . S
C687 H663 0.950 . S
C687 C686 1.524 . S
C687 C688 1.415 . S
C688 H664 0.950 . S
C688 C683 1.363 . S
C688 C687 1.415 . S
C689 H665 0.951 . S
C689 C690 1.366 . S
C689 C691 1.388 . S
C690 C689 1.366 . S
C690 C694 1.385 . S
C691 H666 0.951 . S
C691 C689 1.388 . S
C691 C692 1.366 . S
C692 C691 1.366 . S
C692 C693 1.414 . S
C692 C695 1.499 . S
C693 H667 0.950 . S
C693 C692 1.414 . S
C693 C694 1.374 . S
C694 H668 0.950 . S
C694 C690 1.385 . S
C694 C693 1.374 . S
C695 C692 1.499 . S
C695 C696 1.373 . S
C695 C697 1.389 . S
C696 H669 0.950 . S
C696 C682 1.377 . S
C696 C695 1.373 . S
C697 C681 1.377 . S
C697 C695 1.389 . S
C697 C698 1.524 . S
C698 C697 1.524 . S
C698 C699 1.397 . S
C698 C703 1.363 . S
C699 H670 0.950 . S
C699 C698 1.397 . S
C699 C700 1.334 . S
C700 H671 0.950 . S
C700 C699 1.334 . S
C700 C701 1.287 . S
C701 C700 1.287 . S
C701 C702 1.524 . S
C701 H704 0.999 . S
C702 H672 0.950 . S
C702 C701 1.524 . S
C702 C703 1.415 . S
C703 H673 0.950 . S
C703 C698 1.363 . S
C703 C702 1.415 . S
H704 C701 0.999 . S
H705 C686 0.913 . S
H706 C724 0.951 . S
H707 C726 0.951 . S
H708 C728 0.950 . S
H709 C729 0.950 . S
H710 C731 0.950 . S
H711 C734 0.950 . S
H712 C735 0.950 . S
H713 C737 0.950 . S
H714 C738 0.950 . S
H715 C739 0.951 . S
H716 C741 0.951 . S
H717 C743 0.950 . S
H718 C744 0.950 . S
H719 C746 0.950 . S
H720 C749 0.950 . S
H721 C750 0.950 . S
H722 C752 0.950 . S
H723 C753 0.950 . S
C724 H706 0.951 . S
C724 C725 1.366 . S
C724 C726 1.388 . S
C725 C724 1.366 . S
C725 C729 1.385 . S
C726 H707 0.951 . S
C726 C724 1.388 . S
C726 C727 1.366 . S
C727 C726 1.366 . S
C727 C728 1.414 . S
C727 C730 1.499 . S
C728 H708 0.950 . S
C728 C727 1.414 . S
C728 C729 1.374 . S
C729 H709 0.950 . S
C729 C725 1.385 . S
C729 C728 1.374 . S
C730 C727 1.499 . S
C730 C731 1.373 . S
C730 C732 1.389 . S
C731 H710 0.950 . S
C731 C730 1.373 . S
C731 C747 1.377 . S
C732 C730 1.389 . S
C732 C733 1.524 . S
C732 C746 1.377 . S
C733 C732 1.524 . S
C733 C734 1.397 . S
C733 C738 1.363 . S
C734 H711 0.950 . S
C734 C733 1.397 . S
C734 C735 1.334 . S
C735 H712 0.950 . S
C735 C734 1.334 . S
C735 C736 1.287 . S
C736 C735 1.287 . S
C736 C737 1.524 . S
C736 H755 0.913 . S
C737 H713 0.950 . S
C737 C736 1.524 . S
C737 C738 1.415 . S
C738 H714 0.950 . S
C738 C733 1.363 . S
C738 C737 1.415 . S
C739 H715 0.951 . S
C739 C740 1.366 . S
C739 C741 1.388 . S
C740 C739 1.366 . S
C740 C744 1.385 . S
C741 H716 0.951 . S
C741 C739 1.388 . S
C741 C742 1.366 . S
C742 C741 1.366 . S
C742 C743 1.414 . S
C742 C745 1.499 . S
C743 H717 0.950 . S
C743 C742 1.414 . S
C743 C744 1.374 . S
C744 H718 0.950 . S
C744 C740 1.385 . S
C744 C743 1.374 . S
C745 C742 1.499 . S
C745 C746 1.373 . S
C745 C747 1.389 . S
C746 H719 0.950 . S
C746 C732 1.377 . S
C746 C745 1.373 . S
C747 C731 1.377 . S
C747 C745 1.389 . S
C747 C748 1.524 . S
C748 C747 1.524 . S
C748 C749 1.397 . S
C748 C753 1.363 . S
C749 H720 0.950 . S
C749 C748 1.397 . S
C749 C750 1.334 . S
C750 H721 0.950 . S
C750 C749 1.334 . S
C750 C751 1.287 . S
C751 C750 1.287 . S
C751 C752 1.524 . S
C751 H754 0.999 . S
C752 H722 0.950 . S
C752 C751 1.524 . S
C752 C753 1.415 . S
C753 H723 0.950 . S
C753 C748 1.363 . S
C753 C752 1.415 . S
H754 C751 0.999 . S
H755 C736 0.913 . S
H756 C774 0.951 . S
H757 C776 0.951 . S
H758 C778 0.950 . S
H759 C779 0.950 . S
H760 C781 0.950 . S
H761 C784 0.950 . S
H762 C785 0.950 . S
H763 C787 0.950 1_556 S
H764 C788 0.950 . S
H765 C789 0.951 . S
H766 C791 0.951 . S
H767 C793 0.950 . S
H768 C794 0.950 . S
H769 C796 0.950 . S
H770 C799 0.950 . S
H771 C800 0.950 . S
H772 C802 0.950 . S
H773 C803 0.950 . S
C774 H756 0.951 . S
C774 C775 1.366 . S
C774 C776 1.388 . S
C775 C774 1.366 . S
C775 C779 1.385 . S
C776 H757 0.951 . S
C776 C774 1.388 . S
C776 C777 1.366 . S
C777 C776 1.366 . S
C777 C778 1.414 . S
C777 C780 1.499 . S
C778 H758 0.950 . S
C778 C777 1.414 . S
C778 C779 1.374 . S
C779 H759 0.950 . S
C779 C775 1.385 . S
C779 C778 1.374 . S
C780 C777 1.499 . S
C780 C781 1.373 . S
C780 C782 1.389 . S
C781 H760 0.950 . S
C781 C780 1.373 . S
C781 C797 1.377 . S
C782 C780 1.389 . S
C782 C783 1.524 . S
C782 C796 1.377 . S
C783 C782 1.524 . S
C783 C784 1.397 . S
C783 C788 1.363 . S
C784 H761 0.950 . S
C784 C783 1.397 . S
C784 C785 1.334 . S
C785 H762 0.950 . S
C785 C784 1.334 . S
C785 C786 1.287 . S
C786 C785 1.287 . S
C786 C787 1.524 . S
C786 H805 0.913 . S
C787 H763 0.950 1_554 S
C787 C786 1.524 . S
C787 C788 1.415 . S
C788 H764 0.950 . S
C788 C783 1.363 . S
C788 C787 1.415 . S
C789 H765 0.951 . S
C789 C790 1.366 . S
C789 C791 1.388 . S
C790 C789 1.366 . S
C790 C794 1.385 . S
C791 H766 0.951 . S
C791 C789 1.388 . S
C791 C792 1.366 . S
C792 C791 1.366 . S
C792 C793 1.414 . S
C792 C795 1.499 . S
C793 H767 0.950 . S
C793 C792 1.414 . S
C793 C794 1.374 . S
C794 H768 0.950 . S
C794 C790 1.385 . S
C794 C793 1.374 . S
C795 C792 1.499 . S
C795 C796 1.373 . S
C795 C797 1.389 . S
C796 H769 0.950 . S
C796 C782 1.377 . S
C796 C795 1.373 . S
C797 C781 1.377 . S
C797 C795 1.389 . S
C797 C798 1.524 . S
C798 C797 1.524 . S
C798 C799 1.397 . S
C798 C803 1.363 . S
C799 H770 0.950 . S
C799 C798 1.397 . S
C799 C800 1.334 . S
C800 H771 0.950 . S
C800 C799 1.334 . S
C800 C801 1.287 . S
C801 C800 1.287 . S
C801 C802 1.524 . S
C801 H804 0.999 . S
C802 H772 0.950 . S
C802 C801 1.524 . S
C802 C803 1.415 . S
C803 H773 0.950 . S
C803 C798 1.363 . S
C803 C802 1.415 . S
H804 C801 0.999 . S
H805 C786 0.913 . S
H806 C824 0.951 . S
H807 C826 0.951 . S
H808 C828 0.950 . S
H809 C829 0.950 . S
H810 C831 0.950 . S
H811 C834 0.950 . S
H812 C835 0.950 . S
H813 C837 0.950 . S
H814 C838 0.950 . S
H815 C839 0.951 . S
H816 C841 0.951 . S
H817 C843 0.950 . S
H818 C844 0.950 . S
H819 C846 0.950 . S
H820 C849 0.950 . S
H821 C850 0.950 . S
H822 C852 0.950 . S
H823 C853 0.950 . S
C824 H806 0.951 . S
C824 C825 1.366 . S
C824 C826 1.388 . S
C825 C824 1.366 . S
C825 C829 1.385 . S
C826 H807 0.951 . S
C826 C824 1.388 . S
C826 C827 1.366 . S
C827 C826 1.366 . S
C827 C828 1.414 . S
C827 C830 1.499 . S
C828 H808 0.950 . S
C828 C827 1.414 . S
C828 C829 1.374 . S
C829 H809 0.950 . S
C829 C825 1.385 . S
C829 C828 1.374 . S
C830 C827 1.499 . S
C830 C831 1.373 . S
C830 C832 1.389 . S
C831 H810 0.950 . S
C831 C830 1.373 . S
C831 C847 1.377 1_655 S
C832 C830 1.389 . S
C832 C833 1.524 . S
C832 C846 1.377 1_655 S
C833 C832 1.524 . S
C833 C834 1.397 . S
C833 C838 1.363 . S
C834 H811 0.950 . S
C834 C833 1.397 . S
C834 C835 1.334 . S
C835 H812 0.950 . S
C835 C834 1.334 . S
C835 C836 1.287 . S
C836 C835 1.287 . S
C836 C837 1.524 . S
C836 H855 0.913 . S
C837 H813 0.950 . S
C837 C836 1.524 . S
C837 C838 1.415 . S
C838 H814 0.950 . S
C838 C833 1.363 . S
C838 C837 1.415 . S
C839 H815 0.951 . S
C839 C840 1.366 . S
C839 C841 1.388 . S
C840 C839 1.366 . S
C840 C844 1.385 . S
C841 H816 0.951 . S
C841 C839 1.388 . S
C841 C842 1.366 . S
C842 C841 1.366 . S
C842 C843 1.414 . S
C842 C845 1.499 . S
C843 H817 0.950 . S
C843 C842 1.414 . S
C843 C844 1.374 . S
C844 H818 0.950 . S
C844 C840 1.385 . S
C844 C843 1.374 . S
C845 C842 1.499 . S
C845 C846 1.373 . S
C845 C847 1.389 . S
C846 H819 0.950 . S
C846 C832 1.377 1_455 S
C846 C845 1.373 . S
C847 C831 1.377 1_455 S
C847 C845 1.389 . S
C847 C848 1.524 . S
C848 C847 1.524 . S
C848 C849 1.397 . S
C848 C853 1.363 . S
C849 H820 0.950 . S
C849 C848 1.397 . S
C849 C850 1.334 . S
C850 H821 0.950 . S
C850 C849 1.334 . S
C850 C851 1.287 . S
C851 C850 1.287 . S
C851 C852 1.524 . S
C851 H854 0.999 . S
C852 H822 0.950 . S
C852 C851 1.524 . S
C852 C853 1.415 . S
C853 H823 0.950 . S
C853 C848 1.363 . S
C853 C852 1.415 . S
H854 C851 0.999 . S
H855 C836 0.913 . S
H856 C874 0.951 . S
H857 C876 0.951 . S
H858 C878 0.950 . S
H859 C879 0.950 . S
H860 C881 0.950 . S
H861 C884 0.950 . S
H862 C885 0.950 . S
H863 C887 0.950 1_565 S
H864 C888 0.950 . S
H865 C889 0.951 . S
H866 C891 0.951 . S
H867 C893 0.950 . S
H868 C894 0.950 . S
H869 C896 0.950 . S
H870 C899 0.950 . S
H871 C900 0.950 . S
H872 C902 0.950 1_545 S
H873 C903 0.950 . S
C874 H856 0.951 . S
C874 C875 1.366 . S
C874 C876 1.388 . S
C875 C874 1.366 . S
C875 C879 1.385 . S
C876 H857 0.951 . S
C876 C874 1.388 . S
C876 C877 1.366 . S
C877 C876 1.366 . S
C877 C878 1.414 . S
C877 C880 1.499 . S
C878 H858 0.950 . S
C878 C877 1.414 . S
C878 C879 1.374 . S
C879 H859 0.950 . S
C879 C875 1.385 . S
C879 C878 1.374 . S
C880 C877 1.499 . S
C880 C881 1.373 . S
C880 C882 1.389 . S
C881 H860 0.950 . S
C881 C880 1.373 . S
C881 C897 1.377 1_545 S
C882 C880 1.389 . S
C882 C883 1.524 . S
C882 C896 1.377 1_545 S
C883 C882 1.524 . S
C883 C884 1.397 . S
C883 C888 1.363 1_545 S
C884 H861 0.950 . S
C884 C883 1.397 . S
C884 C885 1.334 . S
C885 H862 0.950 . S
C885 C884 1.334 . S
C885 C886 1.287 . S
C886 C885 1.287 . S
C886 C887 1.535 . S
C886 H905 0.913 . S
C887 H863 0.950 1_545 S
C887 C886 1.535 . S
C887 C888 1.404 1_545 S
C888 H864 0.950 . S
C888 C883 1.363 1_565 S
C888 C887 1.404 1_565 S
C889 H865 0.951 . S
C889 C890 1.366 . S
C889 C891 1.388 . S
C890 C889 1.366 . S
C890 C894 1.385 . S
C891 H866 0.951 . S
C891 C889 1.388 . S
C891 C892 1.366 . S
C892 C891 1.366 . S
C892 C893 1.414 . S
C892 C895 1.499 . S
C893 H867 0.950 . S
C893 C892 1.414 . S
C893 C894 1.374 . S
C894 H868 0.950 . S
C894 C890 1.385 . S
C894 C893 1.374 . S
C895 C892 1.499 . S
C895 C896 1.373 . S
C895 C897 1.389 . S
C896 H869 0.950 . S
C896 C882 1.377 1_565 S
C896 C895 1.373 . S
C897 C881 1.377 1_565 S
C897 C895 1.389 . S
C897 C898 1.524 . S
C898 C897 1.524 . S
C898 C899 1.397 . S
C898 C903 1.363 1_565 S
C899 H870 0.950 . S
C899 C898 1.397 . S
C899 C900 1.334 . S
C900 H871 0.950 . S
C900 C899 1.334 . S
C900 C901 1.287 . S
C901 C900 1.287 . S
C901 C902 1.535 . S
C901 H904 0.999 . S
C902 H872 0.950 1_565 S
C902 C901 1.535 . S
C902 C903 1.404 1_565 S
C903 H873 0.950 . S
C903 C898 1.363 1_545 S
C903 C902 1.404 1_545 S
H904 C901 0.999 . S
H905 C886 0.913 . S
H906 C924 0.951 . S
H907 C926 0.951 . S
H908 C928 0.950 . S
H909 C929 0.950 . S
H910 C931 0.950 . S
H911 C934 0.950 . S
H912 C935 0.950 . S
H913 C937 0.950 . S
H914 C938 0.950 . S
H915 C939 0.951 . S
H916 C941 0.951 . S
H917 C943 0.950 . S
H918 C944 0.950 . S
H919 C946 0.950 . S
H920 C949 0.950 . S
H921 C950 0.950 . S
H922 C952 0.950 . S
H923 C953 0.950 . S
C924 H906 0.951 . S
C924 C925 1.366 . S
C924 C926 1.388 . S
C925 C924 1.366 . S
C925 C929 1.385 . S
C926 H907 0.951 . S
C926 C924 1.388 . S
C926 C927 1.366 . S
C927 C926 1.366 . S
C927 C928 1.414 . S
C927 C930 1.499 . S
C928 H908 0.950 . S
C928 C927 1.414 . S
C928 C929 1.374 . S
C929 H909 0.950 . S
C929 C925 1.385 . S
C929 C928 1.374 . S
C930 C927 1.499 . S
C930 C931 1.373 . S
C930 C932 1.389 . S
C931 H910 0.950 . S
C931 C930 1.373 . S
C931 C947 1.377 . S
C932 C930 1.389 . S
C932 C933 1.524 . S
C932 C946 1.377 . S
C933 C932 1.524 . S
C933 C934 1.397 . S
C933 C938 1.363 . S
C934 H911 0.950 . S
C934 C933 1.397 . S
C934 C935 1.334 . S
C935 H912 0.950 . S
C935 C934 1.334 . S
C935 C936 1.287 . S
C936 C935 1.287 . S
C936 C937 1.524 . S
C936 H955 0.913 . S
C937 H913 0.950 . S
C937 C936 1.524 . S
C937 C938 1.415 . S
C938 H914 0.950 . S
C938 C933 1.363 . S
C938 C937 1.415 . S
C939 H915 0.951 . S
C939 C940 1.366 . S
C939 C941 1.388 . S
C940 C939 1.366 . S
C940 C944 1.385 . S
C941 H916 0.951 . S
C941 C939 1.388 . S
C941 C942 1.366 . S
C942 C941 1.366 . S
C942 C943 1.414 . S
C942 C945 1.499 . S
C943 H917 0.950 . S
C943 C942 1.414 . S
C943 C944 1.374 . S
C944 H918 0.950 . S
C944 C940 1.385 . S
C944 C943 1.374 . S
C945 C942 1.499 . S
C945 C946 1.373 . S
C945 C947 1.389 . S
C946 H919 0.950 . S
C946 C932 1.377 . S
C946 C945 1.373 . S
C947 C931 1.377 . S
C947 C945 1.389 . S
C947 C948 1.524 . S
C948 C947 1.524 . S
C948 C949 1.397 . S
C948 C953 1.363 . S
C949 H920 0.950 . S
C949 C948 1.397 . S
C949 C950 1.334 . S
C950 H921 0.950 . S
C950 C949 1.334 . S
C950 C951 1.287 . S
C951 C950 1.287 . S
C951 C952 1.524 . S
C951 H954 0.999 . S
C952 H922 0.950 . S
C952 C951 1.524 . S
C952 C953 1.415 . S
C953 H923 0.950 . S
C953 C948 1.363 . S
C953 C952 1.415 . S
H954 C951 0.999 . S
H955 C936 0.913 . S
H956 C974 0.951 . S
H957 C976 0.951 . S
H958 C978 0.950 . S
H959 C979 0.950 . S
H960 C981 0.950 . S
H961 C984 0.950 . S
H962 C985 0.950 1_554 S
H963 C987 0.950 . S
H964 C988 0.950 . S
H965 C989 0.951 . S
H966 C991 0.951 . S
H967 C993 0.950 . S
H968 C994 0.950 . S
H969 C996 0.950 . S
H970 C999 0.950 . S
H971 C1000 0.950 . S
H972 C1002 0.950 . S
H973 C1003 0.950 . S
C974 H956 0.951 . S
C974 C975 1.366 . S
C974 C976 1.388 . S
C975 C974 1.366 . S
C975 C979 1.385 . S
C976 H957 0.951 . S
C976 C974 1.388 . S
C976 C977 1.366 . S
C977 C976 1.366 . S
C977 C978 1.414 . S
C977 C980 1.499 . S
C978 H958 0.950 . S
C978 C977 1.414 . S
C978 C979 1.374 . S
C979 H959 0.950 . S
C979 C975 1.385 . S
C979 C978 1.374 . S
C980 C977 1.499 . S
C980 C981 1.373 . S
C980 C982 1.389 . S
C981 H960 0.950 . S
C981 C980 1.373 . S
C981 C997 1.377 1_455 S
C982 C980 1.389 . S
C982 C983 1.524 . S
C982 C996 1.377 1_455 S
C983 C982 1.524 . S
C983 C984 1.397 . S
C983 C988 1.363 . S
C984 H961 0.950 . S
C984 C983 1.397 . S
C984 C985 1.334 . S
C985 H962 0.950 1_556 S
C985 C984 1.334 . S
C985 C986 1.287 . S
C986 C985 1.287 . S
C986 C987 1.524 . S
C986 H1005 0.912 1_556 S
C987 H963 0.950 . S
C987 C986 1.524 . S
C987 C988 1.415 . S
C988 H964 0.950 . S
C988 C983 1.363 . S
C988 C987 1.415 . S
C989 H965 0.951 . S
C989 C990 1.366 . S
C989 C991 1.388 . S
C990 C989 1.366 . S
C990 C994 1.385 . S
C991 H966 0.951 . S
C991 C989 1.388 . S
C991 C992 1.366 . S
C992 C991 1.366 . S
C992 C993 1.414 . S
C992 C995 1.499 . S
C993 H967 0.950 . S
C993 C992 1.414 . S
C993 C994 1.374 . S
C994 H968 0.950 . S
C994 C990 1.385 . S
C994 C993 1.374 . S
C995 C992 1.499 . S
C995 C996 1.373 . S
C995 C997 1.389 . S
C996 H969 0.950 . S
C996 C982 1.377 1_655 S
C996 C995 1.373 . S
C997 C981 1.377 1_655 S
C997 C995 1.389 . S
C997 C998 1.524 . S
C998 C997 1.524 . S
C998 C999 1.397 . S
C998 C1003 1.363 . S
C999 H970 0.950 . S
C999 C998 1.397 . S
C999 C1000 1.334 . S
C1000 H971 0.950 . S
C1000 C999 1.334 . S
C1000 C1001 1.287 . S
C1001 C1000 1.287 . S
C1001 C1002 1.524 . S
C1001 H1004 0.999 . S
C1002 H972 0.950 . S
C1002 C1001 1.524 . S
C1002 C1003 1.415 . S
C1003 H973 0.950 . S
C1003 C998 1.363 . S
C1003 C1002 1.415 . S
H1004 C1001 0.999 . S
H1005 C986 0.912 1_554 S
H1006 C1024 0.951 . S
H1007 C1026 0.951 . S
H1008 C1028 0.950 . S
H1009 C1029 0.950 . S
H1010 C1031 0.950 . S
H1011 C1034 0.950 . S
H1012 C1035 0.950 . S
H1013 C1037 0.950 . S
H1014 C1038 0.950 1_545 S
H1015 C1039 0.951 . S
H1016 C1041 0.951 . S
H1017 C1043 0.950 . S
H1018 C1044 0.950 . S
H1019 C1046 0.950 . S
H1020 C1049 0.950 . S
H1021 C1050 0.950 . S
H1022 C1052 0.950 . S
H1023 C1053 0.950 1_565 S
C1024 H1006 0.951 . S
C1024 C1025 1.366 . S
C1024 C1026 1.388 . S
C1025 C1024 1.366 . S
C1025 C1029 1.385 . S
C1026 H1007 0.951 . S
C1026 C1024 1.388 . S
C1026 C1027 1.366 . S
C1027 C1026 1.366 . S
C1027 C1028 1.414 . S
C1027 C1030 1.499 . S
C1028 H1008 0.950 . S
C1028 C1027 1.414 . S
C1028 C1029 1.374 . S
C1029 H1009 0.950 . S
C1029 C1025 1.385 . S
C1029 C1028 1.374 . S
C1030 C1027 1.499 . S
C1030 C1031 1.373 . S
C1030 C1032 1.389 . S
C1031 H1010 0.950 . S
C1031 C1030 1.373 . S
C1031 C1047 1.377 1_565 S
C1032 C1030 1.389 . S
C1032 C1033 1.524 . S
C1032 C1046 1.377 1_565 S
C1033 C1032 1.524 . S
C1033 C1034 1.397 . S
C1033 C1038 1.363 . S
C1034 H1011 0.950 . S
C1034 C1033 1.397 . S
C1034 C1035 1.334 . S
C1035 H1012 0.950 . S
C1035 C1034 1.334 . S
C1035 C1036 1.287 . S
C1036 C1035 1.287 . S
C1036 C1037 1.524 . S
C1036 H1055 0.913 . S
C1037 H1013 0.950 . S
C1037 C1036 1.524 . S
C1037 C1038 1.415 . S
C1038 H1014 0.950 1_565 S
C1038 C1033 1.363 . S
C1038 C1037 1.415 . S
C1039 H1015 0.951 . S
C1039 C1040 1.366 . S
C1039 C1041 1.388 . S
C1040 C1039 1.366 . S
C1040 C1044 1.385 . S
C1041 H1016 0.951 . S
C1041 C1039 1.388 . S
C1041 C1042 1.366 . S
C1042 C1041 1.366 . S
C1042 C1043 1.414 . S
C1042 C1045 1.499 . S
C1043 H1017 0.950 . S
C1043 C1042 1.414 . S
C1043 C1044 1.374 . S
C1044 H1018 0.950 . S
C1044 C1040 1.385 . S
C1044 C1043 1.374 . S
C1045 C1042 1.499 . S
C1045 C1046 1.373 . S
C1045 C1047 1.389 . S
C1046 H1019 0.950 . S
C1046 C1032 1.377 1_545 S
C1046 C1045 1.373 . S
C1047 C1031 1.377 1_545 S
C1047 C1045 1.389 . S
C1047 C1048 1.524 . S
C1048 C1047 1.524 . S
C1048 C1049 1.397 . S
C1048 C1053 1.363 . S
C1049 H1020 0.950 . S
C1049 C1048 1.397 . S
C1049 C1050 1.334 . S
C1050 H1021 0.950 . S
C1050 C1049 1.334 . S
C1050 C1051 1.287 . S
C1051 C1050 1.287 . S
C1051 C1052 1.524 . S
C1051 H1054 0.999 . S
C1052 H1022 0.950 . S
C1052 C1051 1.524 . S
C1052 C1053 1.415 . S
C1053 H1023 0.950 1_545 S
C1053 C1048 1.363 . S
C1053 C1052 1.415 . S
H1054 C1051 0.999 . S
H1055 C1036 0.913 . S
H1056 C1074 0.951 . S
H1057 C1076 0.951 . S
H1058 C1078 0.950 . S
H1059 C1079 0.950 . S
H1060 C1081 0.950 . S
H1061 C1084 0.950 . S
H1062 C1085 0.950 . S
H1063 C1087 0.950 . S
H1064 C1088 0.950 . S
H1065 C1089 0.951 . S
H1066 C1091 0.951 . S
H1067 C1093 0.950 . S
H1068 C1094 0.950 . S
H1069 C1096 0.950 . S
H1070 C1099 0.950 . S
H1071 C1100 0.950 . S
H1072 C1102 0.950 . S
H1073 C1103 0.950 . S
C1074 H1056 0.951 . S
C1074 C1075 1.366 . S
C1074 C1076 1.388 . S
C1075 C1074 1.366 . S
C1075 C1079 1.385 . S
C1076 H1057 0.951 . S
C1076 C1074 1.388 . S
C1076 C1077 1.366 . S
C1077 C1076 1.366 . S
C1077 C1078 1.414 . S
C1077 C1080 1.499 . S
C1078 H1058 0.950 . S
C1078 C1077 1.414 . S
C1078 C1079 1.374 . S
C1079 H1059 0.950 . S
C1079 C1075 1.385 . S
C1079 C1078 1.374 . S
C1080 C1077 1.499 . S
C1080 C1081 1.373 . S
C1080 C1082 1.389 . S
C1081 H1060 0.950 . S
C1081 C1080 1.373 . S
C1081 C1097 1.377 . S
C1082 C1080 1.389 . S
C1082 C1083 1.524 . S
C1082 C1096 1.377 . S
C1083 C1082 1.524 . S
C1083 C1084 1.397 . S
C1083 C1088 1.363 . S
C1084 H1061 0.950 . S
C1084 C1083 1.397 . S
C1084 C1085 1.334 . S
C1085 H1062 0.950 . S
C1085 C1084 1.334 . S
C1085 C1086 1.287 . S
C1086 C1085 1.287 . S
C1086 C1087 1.524 . S
C1086 H1105 0.913 . S
C1087 H1063 0.950 . S
C1087 C1086 1.524 . S
C1087 C1088 1.415 . S
C1088 H1064 0.950 . S
C1088 C1083 1.363 . S
C1088 C1087 1.415 . S
C1089 H1065 0.951 . S
C1089 C1090 1.366 . S
C1089 C1091 1.388 . S
C1090 C1089 1.366 . S
C1090 C1094 1.385 . S
C1091 H1066 0.951 . S
C1091 C1089 1.388 . S
C1091 C1092 1.366 . S
C1092 C1091 1.366 . S
C1092 C1093 1.414 . S
C1092 C1095 1.499 . S
C1093 H1067 0.950 . S
C1093 C1092 1.414 . S
C1093 C1094 1.374 . S
C1094 H1068 0.950 . S
C1094 C1090 1.385 . S
C1094 C1093 1.374 . S
C1095 C1092 1.499 . S
C1095 C1096 1.373 . S
C1095 C1097 1.389 . S
C1096 H1069 0.950 . S
C1096 C1082 1.377 . S
C1096 C1095 1.373 . S
C1097 C1081 1.377 . S
C1097 C1095 1.389 . S
C1097 C1098 1.524 . S
C1098 C1097 1.524 . S
C1098 C1099 1.397 . S
C1098 C1103 1.363 . S
C1099 H1070 0.950 . S
C1099 C1098 1.397 . S
C1099 C1100 1.334 . S
C1100 H1071 0.950 . S
C1100 C1099 1.334 . S
C1100 C1101 1.287 . S
C1101 C1100 1.287 . S
C1101 C1102 1.524 . S
C1101 H1104 0.999 . S
C1102 H1072 0.950 . S
C1102 C1101 1.524 . S
C1102 C1103 1.415 . S
C1103 H1073 0.950 . S
C1103 C1098 1.363 . S
C1103 C1102 1.415 . S
H1104 C1101 0.999 . S
H1105 C1086 0.913 . S
H1106 C1124 0.951 . S
H1107 C1126 0.951 . S
H1108 C1128 0.950 . S
H1109 C1129 0.950 . S
H1110 C1131 0.950 . S
H1111 C1134 0.950 . S
H1112 C1135 0.950 . S
H1113 C1137 0.950 . S
H1114 C1138 0.950 . S
H1115 C1139 0.951 . S
H1116 C1141 0.951 . S
H1117 C1143 0.950 . S
H1118 C1144 0.950 . S
H1119 C1146 0.950 . S
H1120 C1149 0.950 . S
H1121 C1150 0.950 . S
H1122 C1152 0.950 . S
H1123 C1153 0.950 . S
C1124 H1106 0.951 . S
C1124 C1125 1.366 . S
C1124 C1126 1.388 . S
C1125 C1124 1.366 . S
C1125 C1129 1.385 . S
C1126 H1107 0.951 . S
C1126 C1124 1.388 . S
C1126 C1127 1.366 . S
C1127 C1126 1.366 . S
C1127 C1128 1.414 . S
C1127 C1130 1.499 . S
C1128 H1108 0.950 . S
C1128 C1127 1.414 . S
C1128 C1129 1.374 . S
C1129 H1109 0.950 . S
C1129 C1125 1.385 . S
C1129 C1128 1.374 . S
C1130 C1127 1.499 . S
C1130 C1131 1.373 . S
C1130 C1132 1.389 . S
C1131 H1110 0.950 . S
C1131 C1130 1.373 . S
C1131 C1147 1.377 . S
C1132 C1130 1.389 . S
C1132 C1133 1.524 . S
C1132 C1146 1.377 . S
C1133 C1132 1.524 . S
C1133 C1134 1.397 . S
C1133 C1138 1.363 . S
C1134 H1111 0.950 . S
C1134 C1133 1.397 . S
C1134 C1135 1.334 . S
C1135 H1112 0.950 . S
C1135 C1134 1.334 . S
C1135 C1136 1.287 . S
C1136 C1135 1.287 . S
C1136 C1137 1.524 . S
C1136 H1155 0.913 . S
C1137 H1113 0.950 . S
C1137 C1136 1.524 . S
C1137 C1138 1.415 . S
C1138 H1114 0.950 . S
C1138 C1133 1.363 . S
C1138 C1137 1.415 . S
C1139 H1115 0.951 . S
C1139 C1140 1.366 . S
C1139 C1141 1.388 . S
C1140 C1139 1.366 . S
C1140 C1144 1.385 . S
C1141 H1116 0.951 . S
C1141 C1139 1.388 . S
C1141 C1142 1.366 . S
C1142 C1141 1.366 . S
C1142 C1143 1.414 . S
C1142 C1145 1.499 . S
C1143 H1117 0.950 . S
C1143 C1142 1.414 . S
C1143 C1144 1.374 . S
C1144 H1118 0.950 . S
C1144 C1140 1.385 . S
C1144 C1143 1.374 . S
C1145 C1142 1.499 . S
C1145 C1146 1.373 . S
C1145 C1147 1.389 . S
C1146 H1119 0.950 . S
C1146 C1132 1.377 . S
C1146 C1145 1.373 . S
C1147 C1131 1.377 . S
C1147 C1145 1.389 . S
C1147 C1148 1.524 . S
C1148 C1147 1.524 . S
C1148 C1149 1.397 . S
C1148 C1153 1.363 . S
C1149 H1120 0.950 . S
C1149 C1148 1.397 . S
C1149 C1150 1.334 . S
C1150 H1121 0.950 . S
C1150 C1149 1.334 . S
C1150 C1151 1.287 . S
C1151 C1150 1.287 . S
C1151 C1152 1.524 . S
C1151 H1154 0.999 . S
C1152 H1122 0.950 . S
C1152 C1151 1.524 . S
C1152 C1153 1.415 . S
C1153 H1123 0.950 . S
C1153 C1148 1.363 . S
C1153 C1152 1.415 . S
H1154 C1151 0.999 . S
H1155 C1136 0.913 . S
H1156 C1174 0.951 . S
H1157 C1176 0.951 . S
H1158 C1178 0.950 . S
H1159 C1179 0.950 . S
H1160 C1181 0.950 . S
H1161 C1184 0.950 . S
H1162 C1185 0.950 . S
H1163 C1187 0.950 . S
H1164 C1188 0.950 . S
H1165 C1189 0.951 . S
H1166 C1191 0.951 . S
H1167 C1193 0.950 . S
H1168 C1194 0.950 . S
H1169 C1196 0.950 . S
H1170 C1199 0.950 . S
H1171 C1200 0.950 . S
H1172 C1202 0.950 . S
H1173 C1203 0.950 . S
C1174 H1156 0.951 . S
C1174 C1175 1.366 . S
C1174 C1176 1.388 . S
C1175 C1174 1.366 . S
C1175 C1179 1.385 . S
C1176 H1157 0.951 . S
C1176 C1174 1.388 . S
C1176 C1177 1.366 . S
C1177 C1176 1.366 . S
C1177 C1178 1.414 . S
C1177 C1180 1.499 . S
C1178 H1158 0.950 . S
C1178 C1177 1.414 . S
C1178 C1179 1.374 . S
C1179 H1159 0.950 . S
C1179 C1175 1.385 . S
C1179 C1178 1.374 . S
C1180 C1177 1.499 . S
C1180 C1181 1.373 . S
C1180 C1182 1.389 . S
C1181 H1160 0.950 . S
C1181 C1180 1.373 . S
C1181 C1197 1.377 . S
C1182 C1180 1.389 . S
C1182 C1183 1.524 . S
C1182 C1196 1.377 . S
C1183 C1182 1.524 . S
C1183 C1184 1.397 . S
C1183 C1188 1.363 . S
C1184 H1161 0.950 . S
C1184 C1183 1.397 . S
C1184 C1185 1.334 . S
C1185 H1162 0.950 . S
C1185 C1184 1.334 . S
C1185 C1186 1.287 . S
C1186 C1185 1.287 . S
C1186 C1187 1.524 . S
C1186 H1205 0.913 . S
C1187 H1163 0.950 . S
C1187 C1186 1.524 . S
C1187 C1188 1.415 . S
C1188 H1164 0.950 . S
C1188 C1183 1.363 . S
C1188 C1187 1.415 . S
C1189 H1165 0.951 . S
C1189 C1190 1.366 . S
C1189 C1191 1.388 . S
C1190 C1189 1.366 . S
C1190 C1194 1.385 . S
C1191 H1166 0.951 . S
C1191 C1189 1.388 . S
C1191 C1192 1.366 . S
C1192 C1191 1.366 . S
C1192 C1193 1.414 . S
C1192 C1195 1.499 . S
C1193 H1167 0.950 . S
C1193 C1192 1.414 . S
C1193 C1194 1.374 . S
C1194 H1168 0.950 . S
C1194 C1190 1.385 . S
C1194 C1193 1.374 . S
C1195 C1192 1.499 . S
C1195 C1196 1.373 . S
C1195 C1197 1.389 . S
C1196 H1169 0.950 . S
C1196 C1182 1.377 . S
C1196 C1195 1.373 . S
C1197 C1181 1.377 . S
C1197 C1195 1.389 . S
C1197 C1198 1.524 . S
C1198 C1197 1.524 . S
C1198 C1199 1.397 . S
C1198 C1203 1.363 . S
C1199 H1170 0.950 . S
C1199 C1198 1.397 . S
C1199 C1200 1.334 . S
C1200 H1171 0.950 . S
C1200 C1199 1.334 . S
C1200 C1201 1.287 . S
C1201 C1200 1.287 . S
C1201 C1202 1.524 . S
C1201 H1204 0.999 . S
C1202 H1172 0.950 . S
C1202 C1201 1.524 . S
C1202 C1203 1.415 . S
C1203 H1173 0.950 . S
C1203 C1198 1.363 . S
C1203 C1202 1.415 . S
H1204 C1201 0.999 . S
H1205 C1186 0.913 . S
H1206 C1224 0.951 . S
H1207 C1226 0.951 . S
H1208 C1228 0.950 . S
H1209 C1229 0.950 . S
H1210 C1231 0.950 . S
H1211 C1234 0.950 . S
H1212 C1235 0.950 . S
H1213 C1237 0.950 . S
H1214 C1238 0.950 . S
H1215 C1239 0.951 . S
H1216 C1241 0.951 . S
H1217 C1243 0.950 . S
H1218 C1244 0.950 . S
H1219 C1246 0.950 . S
H1220 C1249 0.950 . S
H1221 C1250 0.950 . S
H1222 C1252 0.950 . S
H1223 C1253 0.950 . S
C1224 H1206 0.951 . S
C1224 C1225 1.366 . S
C1224 C1226 1.388 . S
C1225 C1224 1.366 . S
C1225 C1229 1.385 . S
C1226 H1207 0.951 . S
C1226 C1224 1.388 . S
C1226 C1227 1.366 . S
C1227 C1226 1.366 . S
C1227 C1228 1.414 . S
C1227 C1230 1.499 . S
C1228 H1208 0.950 . S
C1228 C1227 1.414 . S
C1228 C1229 1.374 . S
C1229 H1209 0.950 . S
C1229 C1225 1.385 . S
C1229 C1228 1.374 . S
C1230 C1227 1.499 . S
C1230 C1231 1.373 . S
C1230 C1232 1.389 . S
C1231 H1210 0.950 . S
C1231 C1230 1.373 . S
C1231 C1247 1.377 . S
C1232 C1230 1.389 . S
C1232 C1233 1.524 . S
C1232 C1246 1.377 . S
C1233 C1232 1.524 . S
C1233 C1234 1.397 . S
C1233 C1238 1.363 . S
C1234 H1211 0.950 . S
C1234 C1233 1.397 . S
C1234 C1235 1.334 . S
C1235 H1212 0.950 . S
C1235 C1234 1.334 . S
C1235 C1236 1.287 . S
C1236 C1235 1.287 . S
C1236 C1237 1.524 . S
C1236 H1255 0.913 . S
C1237 H1213 0.950 . S
C1237 C1236 1.524 . S
C1237 C1238 1.415 . S
C1238 H1214 0.950 . S
C1238 C1233 1.363 . S
C1238 C1237 1.415 . S
C1239 H1215 0.951 . S
C1239 C1240 1.366 . S
C1239 C1241 1.388 . S
C1240 C1239 1.366 . S
C1240 C1244 1.385 . S
C1241 H1216 0.951 . S
C1241 C1239 1.388 . S
C1241 C1242 1.366 . S
C1242 C1241 1.366 . S
C1242 C1243 1.414 . S
C1242 C1245 1.499 . S
C1243 H1217 0.950 . S
C1243 C1242 1.414 . S
C1243 C1244 1.374 . S
C1244 H1218 0.950 . S
C1244 C1240 1.385 . S
C1244 C1243 1.374 . S
C1245 C1242 1.499 . S
C1245 C1246 1.373 . S
C1245 C1247 1.389 . S
C1246 H1219 0.950 . S
C1246 C1232 1.377 . S
C1246 C1245 1.373 . S
C1247 C1231 1.377 . S
C1247 C1245 1.389 . S
C1247 C1248 1.524 . S
C1248 C1247 1.524 . S
C1248 C1249 1.397 . S
C1248 C1253 1.363 . S
C1249 H1220 0.950 . S
C1249 C1248 1.397 . S
C1249 C1250 1.334 . S
C1250 H1221 0.950 . S
C1250 C1249 1.334 . S
C1250 C1251 1.287 . S
C1251 C1250 1.287 . S
C1251 C1252 1.524 . S
C1251 H1254 0.999 . S
C1252 H1222 0.950 . S
C1252 C1251 1.524 . S
C1252 C1253 1.415 . S
C1253 H1223 0.950 . S
C1253 C1248 1.363 . S
C1253 C1252 1.415 . S
H1254 C1251 0.999 . S
H1255 C1236 0.913 . S
H1256 C1274 0.951 . S
H1257 C1276 0.951 . S
H1258 C1278 0.950 . S
H1259 C1279 0.950 . S
H1260 C1281 0.950 . S
H1261 C1284 0.950 . S
H1262 C1285 0.950 . S
H1263 C1287 0.950 . S
H1264 C1288 0.950 . S
H1265 C1289 0.951 . S
H1266 C1291 0.951 . S
H1267 C1293 0.950 . S
H1268 C1294 0.950 . S
H1269 C1296 0.950 . S
H1270 C1299 0.950 . S
H1271 C1300 0.950 . S
H1272 C1302 0.950 . S
H1273 C1303 0.950 . S
C1274 H1256 0.951 . S
C1274 C1275 1.366 . S
C1274 C1276 1.388 . S
C1275 C1274 1.366 . S
C1275 C1279 1.385 . S
C1276 H1257 0.951 . S
C1276 C1274 1.388 . S
C1276 C1277 1.366 . S
C1277 C1276 1.366 . S
C1277 C1278 1.414 . S
C1277 C1280 1.499 . S
C1278 H1258 0.950 . S
C1278 C1277 1.414 . S
C1278 C1279 1.374 . S
C1279 H1259 0.950 . S
C1279 C1275 1.385 . S
C1279 C1278 1.374 . S
C1280 C1277 1.499 . S
C1280 C1281 1.373 . S
C1280 C1282 1.389 . S
C1281 H1260 0.950 . S
C1281 C1280 1.373 . S
C1281 C1297 1.377 . S
C1282 C1280 1.389 . S
C1282 C1283 1.524 . S
C1282 C1296 1.377 . S
C1283 C1282 1.524 . S
C1283 C1284 1.397 . S
C1283 C1288 1.363 . S
C1284 H1261 0.950 . S
C1284 C1283 1.397 . S
C1284 C1285 1.334 . S
C1285 H1262 0.950 . S
C1285 C1284 1.334 . S
C1285 C1286 1.287 . S
C1286 C1285 1.287 . S
C1286 C1287 1.524 . S
C1286 H1305 0.913 . S
C1287 H1263 0.950 . S
C1287 C1286 1.524 . S
C1287 C1288 1.415 . S
C1288 H1264 0.950 . S
C1288 C1283 1.363 . S
C1288 C1287 1.415 . S
C1289 H1265 0.951 . S
C1289 C1290 1.366 . S
C1289 C1291 1.388 . S
C1290 C1289 1.366 . S
C1290 C1294 1.385 . S
C1291 H1266 0.951 . S
C1291 C1289 1.388 . S
C1291 C1292 1.366 . S
C1292 C1291 1.366 . S
C1292 C1293 1.414 . S
C1292 C1295 1.499 . S
C1293 H1267 0.950 . S
C1293 C1292 1.414 . S
C1293 C1294 1.374 . S
C1294 H1268 0.950 . S
C1294 C1290 1.385 . S
C1294 C1293 1.374 . S
C1295 C1292 1.499 . S
C1295 C1296 1.373 . S
C1295 C1297 1.389 . S
C1296 H1269 0.950 . S
C1296 C1282 1.377 . S
C1296 C1295 1.373 . S
C1297 C1281 1.377 . S
C1297 C1295 1.389 . S
C1297 C1298 1.524 . S
C1298 C1297 1.524 . S
C1298 C1299 1.397 . S
C1298 C1303 1.363 . S
C1299 H1270 0.950 . S
C1299 C1298 1.397 . S
C1299 C1300 1.334 . S
C1300 H1271 0.950 . S
C1300 C1299 1.334 . S
C1300 C1301 1.287 . S
C1301 C1300 1.287 . S
C1301 C1302 1.524 . S
C1301 H1304 0.999 . S
C1302 H1272 0.950 . S
C1302 C1301 1.524 . S
C1302 C1303 1.415 . S
C1303 H1273 0.950 . S
C1303 C1298 1.363 . S
C1303 C1302 1.415 . S
H1304 C1301 0.999 . S
H1305 C1286 0.913 . S
H1306 C1324 0.951 . S
H1307 C1326 0.951 . S
H1308 C1328 0.950 . S
H1309 C1329 0.950 . S
H1310 C1331 0.950 . S
H1311 C1334 0.950 . S
H1312 C1335 0.950 . S
H1313 C1337 0.950 . S
H1314 C1338 0.950 . S
H1315 C1339 0.951 . S
H1316 C1341 0.951 . S
H1317 C1343 0.950 . S
H1318 C1344 0.950 . S
H1319 C1346 0.950 . S
H1320 C1349 0.950 . S
H1321 C1350 0.950 . S
H1322 C1352 0.950 . S
H1323 C1353 0.950 . S
C1324 H1306 0.951 . S
C1324 C1325 1.366 . S
C1324 C1326 1.388 . S
C1325 C1324 1.366 . S
C1325 C1329 1.385 . S
C1326 H1307 0.951 . S
C1326 C1324 1.388 . S
C1326 C1327 1.366 . S
C1327 C1326 1.366 . S
C1327 C1328 1.414 . S
C1327 C1330 1.499 . S
C1328 H1308 0.950 . S
C1328 C1327 1.414 . S
C1328 C1329 1.374 . S
C1329 H1309 0.950 . S
C1329 C1325 1.385 . S
C1329 C1328 1.374 . S
C1330 C1327 1.499 . S
C1330 C1331 1.373 . S
C1330 C1332 1.389 . S
C1331 H1310 0.950 . S
C1331 C1330 1.373 . S
C1331 C1347 1.377 . S
C1332 C1330 1.389 . S
C1332 C1333 1.524 . S
C1332 C1346 1.377 . S
C1333 C1332 1.524 . S
C1333 C1334 1.397 . S
C1333 C1338 1.363 . S
C1334 H1311 0.950 . S
C1334 C1333 1.397 . S
C1334 C1335 1.334 . S
C1335 H1312 0.950 . S
C1335 C1334 1.334 . S
C1335 C1336 1.287 . S
C1336 C1335 1.287 . S
C1336 C1337 1.524 . S
C1336 H1355 0.913 . S
C1337 H1313 0.950 . S
C1337 C1336 1.524 . S
C1337 C1338 1.415 . S
C1338 H1314 0.950 . S
C1338 C1333 1.363 . S
C1338 C1337 1.415 . S
C1339 H1315 0.951 . S
C1339 C1340 1.366 . S
C1339 C1341 1.388 . S
C1340 C1339 1.366 . S
C1340 C1344 1.385 . S
C1341 H1316 0.951 . S
C1341 C1339 1.388 . S
C1341 C1342 1.366 . S
C1342 C1341 1.366 . S
C1342 C1343 1.414 . S
C1342 C1345 1.499 . S
C1343 H1317 0.950 . S
C1343 C1342 1.414 . S
C1343 C1344 1.374 . S
C1344 H1318 0.950 . S
C1344 C1340 1.385 . S
C1344 C1343 1.374 . S
C1345 C1342 1.499 . S
C1345 C1346 1.373 . S
C1345 C1347 1.389 . S
C1346 H1319 0.950 . S
C1346 C1332 1.377 . S
C1346 C1345 1.373 . S
C1347 C1331 1.377 . S
C1347 C1345 1.389 . S
C1347 C1348 1.524 . S
C1348 C1347 1.524 . S
C1348 C1349 1.397 . S
C1348 C1353 1.363 . S
C1349 H1320 0.950 . S
C1349 C1348 1.397 . S
C1349 C1350 1.334 . S
C1350 H1321 0.950 . S
C1350 C1349 1.334 . S
C1350 C1351 1.287 . S
C1351 C1350 1.287 . S
C1351 C1352 1.524 . S
C1351 H1354 0.999 . S
C1352 H1322 0.950 . S
C1352 C1351 1.524 . S
C1352 C1353 1.415 . S
C1353 H1323 0.950 . S
C1353 C1348 1.363 . S
C1353 C1352 1.415 . S
H1354 C1351 0.999 . S
H1355 C1336 0.913 . S
C175 C10 1.345 . S
C190 C88 1.345 . S
C225 C23 1.345 . S
C240 C101 1.344 . S
C275 C36 1.345 . S
C290 C114 1.344 . S
C325 C49 1.344 . S
C340 C127 1.345 . S
C375 C62 1.345 . S
C390 C134 1.345 . S
C425 C147 1.345 . S
C440 C75 1.344 . S
C475 C5 1.295 . S
C490 C133 1.295 . S
C525 C18 1.294 . S
C540 C146 1.294 . S
C575 C31 1.295 . S
C590 C83 1.294 . S
C625 C44 1.294 . S
C640 C96 1.295 . S
C675 C57 1.295 . S
C690 C109 1.294 . S
C725 C70 1.295 . S
C740 C122 1.295 . S
C775 C4 1.377 . S
C790 C43 1.377 . S
C825 C17 1.377 . S
C840 C56 1.377 . S
C875 C69 1.377 . S
C890 C30 1.377 . S
C925 C82 1.377 . S
C940 C121 1.377 . S
C975 C140 1.379 . S
C990 C95 1.379 . S
C1025 C108 1.378 . S
C1040 C153 1.378 . S
C1075 C81 0.941 . S
C1090 C3 0.941 1_556 S
C1125 C16 0.940 . S
C1140 C94 0.940 1_554 S
C1175 C29 0.940 . S
C1190 C107 0.940 . S
C1225 C120 0.940 . S
C1240 C42 0.940 1_556 S
C1275 C135 0.941 1_554 S
C1290 C55 0.940 . S
C1325 C68 0.940 . S
C1340 C148 0.941 . S
