# Generated by pormake.
# Topology ech, (8)-cn, num edge types: 1
# Building blocks:
#     Node 0, Type 0, BuildingBlock: AJUNOK_clean_sbu_0, # of connection points: 8
#     Node 1, Type 0, BuildingBlock: AJUNOK_clean_sbu_0, # of connection points: 8
#     Node 2, Type 0, BuildingBlock: AJUNOK_clean_sbu_0, # of connection points: 8
#     Node 3, Type 0, BuildingBlock: AJUNOK_clean_sbu_0, # of connection points: 8
#     Node 4, Type 0, BuildingBlock: AJUNOK_clean_sbu_0, # of connection points: 8
#     Node 5, Type 0, BuildingBlock: AJUNOK_clean_sbu_0, # of connection points: 8
#     Node 6, Type 0, BuildingBlock: AJUNOK_clean_sbu_0, # of connection points: 8
#     Node 7, Type 0, BuildingBlock: AJUNOK_clean_sbu_0, # of connection points: 8
#     Node 8, Type 0, BuildingBlock: AJUNOK_clean_sbu_0, # of connection points: 8
#     Node 9, Type 0, BuildingBlock: AJUNOK_clean_sbu_0, # of connection points: 8
#     Node 10, Type 0, BuildingBlock: AJUNOK_clean_sbu_0, # of connection points: 8
#     Node 11, Type 0, BuildingBlock: AJUNOK_clean_sbu_0, # of connection points: 8
#     Node 12, Type 0, BuildingBlock: AJUNOK_clean_sbu_0, # of connection points: 8
#     Node 13, Type 0, BuildingBlock: AJUNOK_clean_sbu_0, # of connection points: 8
#     Node 14, Type 0, BuildingBlock: AJUNOK_clean_sbu_0, # of connection points: 8
#     Node 15, Type 0, BuildingBlock: AJUNOK_clean_sbu_0, # of connection points: 8
#     Node 16, Type 0, BuildingBlock: AJUNOK_clean_sbu_0, # of connection points: 8
#     Node 17, Type 0, BuildingBlock: AJUNOK_clean_sbu_0, # of connection points: 8
#     Node 18, Type 0, BuildingBlock: AJUNOK_clean_sbu_0, # of connection points: 8
#     Node 19, Type 0, BuildingBlock: AJUNOK_clean_sbu_0, # of connection points: 8
#     Node 20, Type 0, BuildingBlock: AJUNOK_clean_sbu_0, # of connection points: 8
#     Node 21, Type 0, BuildingBlock: AJUNOK_clean_sbu_0, # of connection points: 8
#     Node 22, Type 0, BuildingBlock: AJUNOK_clean_sbu_0, # of connection points: 8
#     Node 23, Type 0, BuildingBlock: AJUNOK_clean_sbu_0, # of connection points: 8
#     Edge 24, Type (0, 0), BuildingBlock: KIFKEQ_clean_linker_1, # of connection points: 2
#     Edge 25, Type (0, 0), BuildingBlock: KIFKEQ_clean_linker_1, # of connection points: 2
#     Edge 26, Type (0, 0), BuildingBlock: KIFKEQ_clean_linker_1, # of connection points: 2
#     Edge 27, Type (0, 0), BuildingBlock: KIFKEQ_clean_linker_1, # of connection points: 2
#     Edge 28, Type (0, 0), BuildingBlock: KIFKEQ_clean_linker_1, # of connection points: 2
#     Edge 29, Type (0, 0), BuildingBlock: KIFKEQ_clean_linker_1, # of connection points: 2
#     Edge 30, Type (0, 0), BuildingBlock: KIFKEQ_clean_linker_1, # of connection points: 2
#     Edge 31, Type (0, 0), BuildingBlock: KIFKEQ_clean_linker_1, # of connection points: 2
#     Edge 32, Type (0, 0), BuildingBlock: KIFKEQ_clean_linker_1, # of connection points: 2
#     Edge 33, Type (0, 0), BuildingBlock: KIFKEQ_clean_linker_1, # of connection points: 2
#     Edge 34, Type (0, 0), BuildingBlock: KIFKEQ_clean_linker_1, # of connection points: 2
#     Edge 35, Type (0, 0), BuildingBlock: KIFKEQ_clean_linker_1, # of connection points: 2
#     Edge 36, Type (0, 0), BuildingBlock: KIFKEQ_clean_linker_1, # of connection points: 2
#     Edge 37, Type (0, 0), BuildingBlock: KIFKEQ_clean_linker_1, # of connection points: 2
#     Edge 38, Type (0, 0), BuildingBlock: KIFKEQ_clean_linker_1, # of connection points: 2
#     Edge 39, Type (0, 0), BuildingBlock: KIFKEQ_clean_linker_1, # of connection points: 2
#     Edge 40, Type (0, 0), BuildingBlock: KIFKEQ_clean_linker_1, # of connection points: 2
#     Edge 41, Type (0, 0), BuildingBlock: KIFKEQ_clean_linker_1, # of connection points: 2
#     Edge 42, Type (0, 0), BuildingBlock: KIFKEQ_clean_linker_1, # of connection points: 2
#     Edge 43, Type (0, 0), BuildingBlock: KIFKEQ_clean_linker_1, # of connection points: 2
#     Edge 44, Type (0, 0), BuildingBlock: KIFKEQ_clean_linker_1, # of connection points: 2
#     Edge 45, Type (0, 0), BuildingBlock: KIFKEQ_clean_linker_1, # of connection points: 2
#     Edge 46, Type (0, 0), BuildingBlock: KIFKEQ_clean_linker_1, # of connection points: 2
#     Edge 47, Type (0, 0), BuildingBlock: KIFKEQ_clean_linker_1, # of connection points: 2
#     Edge 48, Type (0, 0), BuildingBlock: KIFKEQ_clean_linker_1, # of connection points: 2
#     Edge 49, Type (0, 0), BuildingBlock: KIFKEQ_clean_linker_1, # of connection points: 2
#     Edge 50, Type (0, 0), BuildingBlock: KIFKEQ_clean_linker_1, # of connection points: 2
#     Edge 51, Type (0, 0), BuildingBlock: KIFKEQ_clean_linker_1, # of connection points: 2
#     Edge 52, Type (0, 0), BuildingBlock: KIFKEQ_clean_linker_1, # of connection points: 2
#     Edge 53, Type (0, 0), BuildingBlock: KIFKEQ_clean_linker_1, # of connection points: 2
#     Edge 54, Type (0, 0), BuildingBlock: KIFKEQ_clean_linker_1, # of connection points: 2
#     Edge 55, Type (0, 0), BuildingBlock: KIFKEQ_clean_linker_1, # of connection points: 2
#     Edge 56, Type (0, 0), BuildingBlock: KIFKEQ_clean_linker_1, # of connection points: 2
#     Edge 57, Type (0, 0), BuildingBlock: KIFKEQ_clean_linker_1, # of connection points: 2
#     Edge 58, Type (0, 0), BuildingBlock: KIFKEQ_clean_linker_1, # of connection points: 2
#     Edge 59, Type (0, 0), BuildingBlock: KIFKEQ_clean_linker_1, # of connection points: 2
#     Edge 60, Type (0, 0), BuildingBlock: KIFKEQ_clean_linker_1, # of connection points: 2
#     Edge 61, Type (0, 0), BuildingBlock: KIFKEQ_clean_linker_1, # of connection points: 2
#     Edge 62, Type (0, 0), BuildingBlock: KIFKEQ_clean_linker_1, # of connection points: 2
#     Edge 63, Type (0, 0), BuildingBlock: KIFKEQ_clean_linker_1, # of connection points: 2
#     Edge 64, Type (0, 0), BuildingBlock: KIFKEQ_clean_linker_1, # of connection points: 2
#     Edge 65, Type (0, 0), BuildingBlock: KIFKEQ_clean_linker_1, # of connection points: 2
#     Edge 66, Type (0, 0), BuildingBlock: KIFKEQ_clean_linker_1, # of connection points: 2
#     Edge 67, Type (0, 0), BuildingBlock: KIFKEQ_clean_linker_1, # of connection points: 2
#     Edge 68, Type (0, 0), BuildingBlock: KIFKEQ_clean_linker_1, # of connection points: 2
#     Edge 69, Type (0, 0), BuildingBlock: KIFKEQ_clean_linker_1, # of connection points: 2
#     Edge 70, Type (0, 0), BuildingBlock: KIFKEQ_clean_linker_1, # of connection points: 2
#     Edge 71, Type (0, 0), BuildingBlock: KIFKEQ_clean_linker_1, # of connection points: 2
#     Edge 72, Type (0, 0), BuildingBlock: KIFKEQ_clean_linker_1, # of connection points: 2
#     Edge 73, Type (0, 0), BuildingBlock: KIFKEQ_clean_linker_1, # of connection points: 2
#     Edge 74, Type (0, 0), BuildingBlock: KIFKEQ_clean_linker_1, # of connection points: 2
#     Edge 75, Type (0, 0), BuildingBlock: KIFKEQ_clean_linker_1, # of connection points: 2
#     Edge 76, Type (0, 0), BuildingBlock: KIFKEQ_clean_linker_1, # of connection points: 2
#     Edge 77, Type (0, 0), BuildingBlock: KIFKEQ_clean_linker_1, # of connection points: 2
#     Edge 78, Type (0, 0), BuildingBlock: KIFKEQ_clean_linker_1, # of connection points: 2
#     Edge 79, Type (0, 0), BuildingBlock: KIFKEQ_clean_linker_1, # of connection points: 2
#     Edge 80, Type (0, 0), BuildingBlock: KIFKEQ_clean_linker_1, # of connection points: 2
#     Edge 81, Type (0, 0), BuildingBlock: KIFKEQ_clean_linker_1, # of connection points: 2
#     Edge 82, Type (0, 0), BuildingBlock: KIFKEQ_clean_linker_1, # of connection points: 2
#     Edge 83, Type (0, 0), BuildingBlock: KIFKEQ_clean_linker_1, # of connection points: 2
#     Edge 84, Type (0, 0), BuildingBlock: KIFKEQ_clean_linker_1, # of connection points: 2
#     Edge 85, Type (0, 0), BuildingBlock: KIFKEQ_clean_linker_1, # of connection points: 2
#     Edge 86, Type (0, 0), BuildingBlock: KIFKEQ_clean_linker_1, # of connection points: 2
#     Edge 87, Type (0, 0), BuildingBlock: KIFKEQ_clean_linker_1, # of connection points: 2
#     Edge 88, Type (0, 0), BuildingBlock: KIFKEQ_clean_linker_1, # of connection points: 2
#     Edge 89, Type (0, 0), BuildingBlock: KIFKEQ_clean_linker_1, # of connection points: 2
#     Edge 90, Type (0, 0), BuildingBlock: KIFKEQ_clean_linker_1, # of connection points: 2
#     Edge 91, Type (0, 0), BuildingBlock: KIFKEQ_clean_linker_1, # of connection points: 2
#     Edge 92, Type (0, 0), BuildingBlock: KIFKEQ_clean_linker_1, # of connection points: 2
#     Edge 93, Type (0, 0), BuildingBlock: KIFKEQ_clean_linker_1, # of connection points: 2
#     Edge 94, Type (0, 0), BuildingBlock: KIFKEQ_clean_linker_1, # of connection points: 2
#     Edge 95, Type (0, 0), BuildingBlock: KIFKEQ_clean_linker_1, # of connection points: 2
#     Edge 96, Type (0, 0), BuildingBlock: KIFKEQ_clean_linker_1, # of connection points: 2
#     Edge 97, Type (0, 0), BuildingBlock: KIFKEQ_clean_linker_1, # of connection points: 2
#     Edge 98, Type (0, 0), BuildingBlock: KIFKEQ_clean_linker_1, # of connection points: 2
#     Edge 99, Type (0, 0), BuildingBlock: KIFKEQ_clean_linker_1, # of connection points: 2
#     Edge 100, Type (0, 0), BuildingBlock: KIFKEQ_clean_linker_1, # of connection points: 2
#     Edge 101, Type (0, 0), BuildingBlock: KIFKEQ_clean_linker_1, # of connection points: 2
#     Edge 102, Type (0, 0), BuildingBlock: KIFKEQ_clean_linker_1, # of connection points: 2
#     Edge 103, Type (0, 0), BuildingBlock: KIFKEQ_clean_linker_1, # of connection points: 2
#     Edge 104, Type (0, 0), BuildingBlock: KIFKEQ_clean_linker_1, # of connection points: 2
#     Edge 105, Type (0, 0), BuildingBlock: KIFKEQ_clean_linker_1, # of connection points: 2
#     Edge 106, Type (0, 0), BuildingBlock: KIFKEQ_clean_linker_1, # of connection points: 2
#     Edge 107, Type (0, 0), BuildingBlock: KIFKEQ_clean_linker_1, # of connection points: 2
#     Edge 108, Type (0, 0), BuildingBlock: KIFKEQ_clean_linker_1, # of connection points: 2
#     Edge 109, Type (0, 0), BuildingBlock: KIFKEQ_clean_linker_1, # of connection points: 2
#     Edge 110, Type (0, 0), BuildingBlock: KIFKEQ_clean_linker_1, # of connection points: 2
#     Edge 111, Type (0, 0), BuildingBlock: KIFKEQ_clean_linker_1, # of connection points: 2
#     Edge 112, Type (0, 0), BuildingBlock: KIFKEQ_clean_linker_1, # of connection points: 2
#     Edge 113, Type (0, 0), BuildingBlock: KIFKEQ_clean_linker_1, # of connection points: 2
#     Edge 114, Type (0, 0), BuildingBlock: KIFKEQ_clean_linker_1, # of connection points: 2
#     Edge 115, Type (0, 0), BuildingBlock: KIFKEQ_clean_linker_1, # of connection points: 2
#     Edge 116, Type (0, 0), BuildingBlock: KIFKEQ_clean_linker_1, # of connection points: 2
#     Edge 117, Type (0, 0), BuildingBlock: KIFKEQ_clean_linker_1, # of connection points: 2
#     Edge 118, Type (0, 0), BuildingBlock: KIFKEQ_clean_linker_1, # of connection points: 2
#     Edge 119, Type (0, 0), BuildingBlock: KIFKEQ_clean_linker_1, # of connection points: 2
# Relax obj value: 0.296
# Max RMSD: 0.231
# Mean RMSD: 0.231
data_MOF--net-ech--node1-AJUNOK_clean_sbu_0--edge1-KIFKEQ_clean_linker_1
_symmetry_space_group_name_H-M    P1
_symmetry_Int_Tables_number       1
_symmetry_cell_setting            triclinic
loop_
_symmetry_equiv_pos_as_xyz
'x, y, z'
_cell_length_a     52.432052
_cell_length_b     52.447909
_cell_length_c     52.41589
_cell_angle_alpha  90.010583
_cell_angle_beta   90.010367
_cell_angle_gamma 89.988292
loop_
_atom_site_label
_atom_site_type_symbol
_atom_site_fract_x
_atom_site_fract_y
_atom_site_fract_z
_atom_type_partial_charge
Cd0 Cd 0.15522 0.31633 0.41982 0.0
Cd1 Cd 0.11688 0.28647 0.48416 0.0
C2 C 0.12815 0.36808 0.43845 0.0
N3 N 0.12263 0.34554 0.42686 0.0
C4 C 0.08282 0.36192 0.41216 0.0
C5 C 0.08829 0.38577 0.42314 0.0
C6 C 0.11109 0.38846 0.43701 0.0
C7 C 0.10034 0.3421 0.41411 0.0
H8 H 0.14651 0.37091 0.44735 0.0
H9 H 0.09674 0.32457 0.40399 0.0
C10 C 0.10511 0.27043 0.41975 0.0
C11 C 0.13657 0.22952 0.47523 0.0
C12 C 0.15136 0.20784 0.47963 0.0
C13 C 0.17553 0.21037 0.49093 0.0
C14 C 0.18512 0.23501 0.49536 0.0
C15 C 0.16973 0.25617 0.49054 0.0
N16 N 0.1457 0.25299 0.48134 0.0
H17 H 0.11717 0.22746 0.46852 0.0
H18 H 0.17635 0.27494 0.4958 0.0
C19 C 0.06734 0.31389 0.46223 0.0
N20 N 0.08907 0.31998 0.475 0.0
C21 C 0.07366 0.36236 0.48231 0.0
C22 C 0.05149 0.35671 0.46839 0.0
C23 C 0.04841 0.33208 0.45844 0.0
C24 C 0.09239 0.34355 0.48538 0.0
H25 H 0.06427 0.29468 0.45551 0.0
H26 H 0.10936 0.34764 0.49637 0.0
C27 C 0.1688 0.33101 0.48315 0.0
C28 C 0.17695 0.33988 0.3754 0.0
N29 N 0.18309 0.2829 0.42776 0.0
C30 C 0.20783 0.29022 0.42975 0.0
C31 C 0.22726 0.27216 0.42907 0.0
C32 C 0.2212 0.24618 0.42631 0.0
C33 C 0.19533 0.23904 0.4261 0.0
C34 C 0.17646 0.25786 0.42652 0.0
C35 C 0.0918 0.2728 0.53048 0.0
O36 O 0.12195 0.28523 0.41054 0.0
O37 O 0.10162 0.26863 0.44368 0.0
O38 O 0.15091 0.31727 0.49196 0.0
O39 O 0.17318 0.33224 0.45937 0.0
O40 O 0.16113 0.32173 0.37346 0.0
O41 O 0.18309 0.34647 0.39781 0.0
O42 O 0.11315 0.28409 0.53039 0.0
O43 O 0.08264 0.26669 0.50896 0.0
H44 H 0.21252 0.3103 0.43018 0.0
H45 H 0.15668 0.25247 0.42469 0.0
H46 H 0.06567 0.35876 0.40115 0.0
H47 H 0.11659 0.40659 0.4452 0.0
H48 H 0.14335 0.18923 0.47564 0.0
H49 H 0.20349 0.23791 0.50434 0.0
H50 H 0.07664 0.38115 0.49033 0.0
H51 H 0.03128 0.32678 0.44817 0.0
H52 H 0.2468 0.27878 0.4288 0.0
H53 H 0.18973 0.21924 0.42442 0.0
Cd54 Cd 0.3777 0.71422 0.98777 0.0
Cd55 Cd 0.35082 0.67542 0.9199 0.0
C56 C 0.43142 0.69241 0.97135 0.0
N57 N 0.40845 0.68352 0.97934 0.0
C58 C 0.42533 0.64131 0.98319 0.0
C59 C 0.44885 0.64979 0.97352 0.0
C60 C 0.45183 0.67584 0.9681 0.0
C61 C 0.40521 0.65865 0.98594 0.0
H62 H 0.43415 0.71256 0.96807 0.0
H63 H 0.38708 0.65229 0.99345 0.0
C64 C 0.32893 0.66577 0.98161 0.0
C65 C 0.2957 0.69727 0.91885 0.0
C66 C 0.27565 0.71427 0.91535 0.0
C67 C 0.27999 0.74051 0.91805 0.0
C68 C 0.30409 0.74898 0.92606 0.0
C69 C 0.3238 0.73122 0.92909 0.0
N70 N 0.31933 0.70603 0.9248 0.0
H71 H 0.29286 0.67716 0.9153 0.0
H72 H 0.34284 0.73772 0.93342 0.0
C73 C 0.37889 0.62529 0.93899 0.0
N74 N 0.38466 0.64822 0.92843 0.0
C75 C 0.42627 0.63351 0.91716 0.0
C76 C 0.42068 0.60928 0.92726 0.0
C77 C 0.39671 0.60554 0.93875 0.0
C78 C 0.4079 0.65275 0.91788 0.0
H79 H 0.3599 0.62182 0.94623 0.0
H80 H 0.41173 0.67076 0.90865 0.0
C81 C 0.39581 0.72693 0.92412 0.0
C82 C 0.40015 0.72378 0.03651 0.0
N83 N 0.34922 0.74806 0.98617 0.0
C84 C 0.35843 0.77168 0.98087 0.0
C85 C 0.34355 0.79323 0.98568 0.0
C86 C 0.31911 0.79037 0.99633 0.0
C87 C 0.30951 0.76559 -8e-05 0.0
C88 C 0.32504 0.74458 0.99482 0.0
C89 C 0.33351 0.65115 0.87396 0.0
O90 O 0.34365 0.68244 0.99124 0.0
O91 O 0.32948 0.66062 0.95797 0.0
O92 O 0.38221 0.70911 0.91492 0.0
O93 O 0.39563 0.73202 0.94788 0.0
O94 O 0.38132 0.70894 0.03362 0.0
O95 O 0.40766 0.73571 0.01684 0.0
O96 O 0.34433 0.67276 0.87337 0.0
O97 O 0.33062 0.64111 0.89572 0.0
H98 H 0.3779 0.77388 0.97441 0.0
H99 H 0.31838 0.72561 0.99934 0.0
H100 H 0.42228 0.62143 0.98786 0.0
H101 H 0.46991 0.68349 0.96169 0.0
H102 H 0.25723 0.70711 0.90929 0.0
H103 H 0.30808 0.76913 0.92818 0.0
H104 H 0.4443 0.6374 0.90794 0.0
H105 H 0.39102 0.5871 0.94605 0.0
H106 H 0.35158 0.81195 0.98233 0.0
H107 H 0.29094 0.76243 0.00838 0.0
Cd108 Cd 0.64947 0.1763 0.57619 0.0
Cd109 Cd 0.62 0.21957 0.51187 0.0
C110 C 0.62829 0.12584 0.54769 0.0
N111 N 0.62081 0.14455 0.56407 0.0
C112 C 0.58528 0.11948 0.5776 0.0
C113 C 0.59318 0.09936 0.56166 0.0
C114 C 0.61441 0.10326 0.5458 0.0
C115 C 0.59942 0.14204 0.57846 0.0
H116 H 0.64581 0.12759 0.5371 0.0
H117 H 0.59443 0.15679 0.592 0.0
C118 C 0.60426 0.2285 0.57595 0.0
C119 C 0.63893 0.27736 0.51198 0.0
C120 C 0.6549 0.29788 0.50623 0.0
C121 C 0.68091 0.29345 0.50155 0.0
C122 C 0.69056 0.26867 0.50487 0.0
C123 C 0.6739 0.24873 0.51047 0.0
N124 N 0.64855 0.25333 0.51321 0.0
H125 H 0.61858 0.28031 0.51371 0.0
H126 H 0.68105 0.22943 0.5113 0.0
C127 C 0.56944 0.19502 0.53401 0.0
N128 N 0.59108 0.18752 0.52187 0.0
C129 C 0.57425 0.14547 0.51648 0.0
C130 C 0.55252 0.15244 0.53051 0.0
C131 C 0.55014 0.17764 0.53901 0.0
C132 C 0.59355 0.16348 0.51244 0.0
H133 H 0.56664 0.21472 0.53917 0.0
H134 H 0.61032 0.15837 0.50157 0.0
C135 C 0.67008 0.17226 0.51298 0.0
C136 C 0.66598 0.15137 0.62214 0.0
N137 N 0.68151 0.20656 0.57332 0.0
C138 C 0.70545 0.19748 0.57705 0.0
C139 C 0.72595 0.2142 0.57917 0.0
C140 C 0.72183 0.24063 0.57733 0.0
C141 C 0.69694 0.24941 0.5725 0.0
C142 C 0.67689 0.23192 0.57074 0.0
C143 C 0.59398 0.23065 0.46522 0.0
O144 O 0.6174 0.20931 0.58283 0.0
O145 O 0.60492 0.23683 0.55312 0.0
O146 O 0.65415 0.18844 0.50449 0.0
O147 O 0.67096 0.16661 0.53651 0.0
O148 O 0.65148 0.1707 0.62288 0.0
O149 O 0.67302 0.144 0.60023 0.0
O150 O 0.61513 0.21899 0.46564 0.0
O151 O 0.58566 0.23879 0.48642 0.0
H152 H 0.70846 0.17721 0.57937 0.0
H153 H 0.65764 0.23866 0.56791 0.0
H154 H 0.56945 0.11723 0.59065 0.0
H155 H 0.6211 0.08846 0.53304 0.0
H156 H 0.64663 0.31662 0.5036 0.0
H157 H 0.71056 0.26451 0.50181 0.0
H158 H 0.57648 0.12628 0.50919 0.0
H159 H 0.53316 0.18407 0.54888 0.0
H160 H 0.7446 0.20645 0.58345 0.0
H161 H 0.69288 0.26956 0.57059 0.0
Cd162 Cd 0.8858 0.78251 0.01405 0.0
Cd163 Cd 0.85021 0.81663 0.07959 0.0
C164 C 0.92718 0.82274 0.03672 0.0
N165 N 0.91064 0.81935 0.01704 0.0
C166 C 0.93018 0.85339 0.99365 0.0
C167 C 0.9476 0.85697 0.01357 0.0
C168 C 0.94567 0.84182 0.03552 0.0
C169 C 0.91158 0.8344 0.99588 0.0
H170 H 0.92671 0.81013 0.05296 0.0
H171 H 0.89877 0.8307 0.98014 0.0
C172 C 0.83537 0.82883 0.0156 0.0
C173 C 0.80345 0.78164 0.05898 0.0
C174 C 0.78427 0.76336 0.06099 0.0
C175 C 0.78542 0.74503 0.0805 0.0
C176 C 0.80731 0.74409 0.09594 0.0
C177 C 0.82629 0.76253 0.09297 0.0
N178 N 0.82366 0.78124 0.07523 0.0
H179 H 0.80124 0.79692 0.04541 0.0
H180 H 0.84218 0.76305 0.10613 0.0
C181 C 0.8836 0.86317 0.05614 0.0
N182 N 0.88395 0.84483 0.07447 0.0
C183 C 0.91805 0.86584 0.09615 0.0
C184 C 0.91725 0.88577 0.07826 0.0
C185 C 0.90037 0.88378 0.05752 0.0
C186 C 0.90103 0.84553 0.09396 0.0
H187 H 0.86955 0.86262 0.04112 0.0
H188 H 0.90028 0.83119 0.10876 0.0
C189 C 0.90087 0.77074 0.07875 0.0
C190 C 0.91221 0.76731 0.96893 0.0
N191 N 0.85552 0.74983 0.01469 0.0
C192 C 0.86433 0.72547 0.0158 0.0
C193 C 0.84853 0.70513 0.00884 0.0
C194 C 0.82353 0.71005 0.00051 0.0
C195 C 0.81442 0.73523 0.00155 0.0
C196 C 0.8309 0.75495 0.00842 0.0
C197 C 0.82811 0.84096 0.12352 0.0
O198 O 0.85211 0.81383 0.00654 0.0
O199 O 0.83244 0.8316 0.03949 0.0
O200 O 0.88479 0.7865 0.08778 0.0
O201 O 0.90284 0.76697 0.05485 0.0
O202 O 0.89002 0.77682 0.9681 0.0
O203 O 0.92152 0.76336 0.9909 0.0
O204 O 0.84168 0.82107 0.12564 0.0
O205 O 0.82437 0.84911 0.10109 0.0
H206 H 0.8842 0.72201 0.02018 0.0
H207 H 0.82439 0.77441 0.00703 0.0
H208 H 0.93146 0.86459 0.97634 0.0
H209 H 0.9591 0.84396 0.05109 0.0
H210 H 0.76797 0.76453 0.04836 0.0
H211 H 0.8089 0.73056 0.11146 0.0
H212 H 0.93042 0.86674 0.11266 0.0
H213 H 0.89942 0.89849 0.04307 0.0
H214 H 0.85643 0.68606 0.00811 0.0
H215 H 0.79516 0.73984 0.99566 0.0
Cd216 Cd 0.48328 0.11703 0.28116 0.0
Cd217 Cd 0.41709 0.14736 0.31878 0.0
C218 C 0.46308 0.06536 0.30543 0.0
N219 N 0.47457 0.08732 0.31296 0.0
C220 C 0.48191 0.07006 0.35459 0.0
C221 C 0.46931 0.0475 0.34751 0.0
C222 C 0.46007 0.04526 0.32247 0.0
C223 C 0.48439 0.08986 0.33686 0.0
H224 H 0.45693 0.06303 0.28591 0.0
H225 H 0.49447 0.10707 0.34207 0.0
C226 C 0.47968 0.16521 0.3305 0.0
C227 C 0.41878 0.2035 0.29877 0.0
C228 C 0.41735 0.22443 0.2825 0.0
C229 C 0.41991 0.22095 0.25603 0.0
C230 C 0.4251 0.19628 0.24679 0.0
C231 C 0.42619 0.17578 0.26384 0.0
N232 N 0.42263 0.17977 0.28921 0.0
H233 H 0.41559 0.20596 0.31902 0.0
H234 H 0.42902 0.15667 0.25669 0.0
C235 C 0.43641 0.1166 0.36747 0.0
N236 N 0.42454 0.11233 0.34483 0.0
C237 C 0.41015 0.07156 0.35915 0.0
C238 C 0.42169 0.07561 0.38305 0.0
C239 C 0.43536 0.0984 0.38684 0.0
C240 C 0.41174 0.09027 0.34028 0.0
H241 H 0.44536 0.1348 0.3711 0.0
H242 H 0.40141 0.08776 0.32263 0.0
C243 C 0.41948 0.10284 0.26652 0.0
C244 C 0.53051 0.09278 0.26911 0.0
N245 N 0.4836 0.14729 0.24878 0.0
C246 C 0.48371 0.13859 0.22436 0.0
C247 C 0.49149 0.15454 0.20447 0.0
C248 C 0.49946 0.1795 0.20997 0.0
C249 C 0.49713 0.18853 0.23511 0.0
C250 C 0.4893 0.17194 0.25438 0.0
C251 C 0.37192 0.164 0.34459 0.0
O252 O 0.48858 0.14962 0.31421 0.0
O253 O 0.45587 0.1671 0.3344 0.0
O254 O 0.41092 0.11672 0.28446 0.0
O255 O 0.44326 0.10166 0.26174 0.0
O256 O 0.52957 0.11339 0.28166 0.0
O257 O 0.50948 0.08407 0.26091 0.0
O258 O 0.37087 0.15505 0.32214 0.0
O259 O 0.39383 0.1658 0.35455 0.0
H260 H 0.4797 0.11871 0.22059 0.0
H261 H 0.48942 0.17832 0.27398 0.0
H262 H 0.48935 0.07255 0.37371 0.0
H263 H 0.45099 0.02791 0.3159 0.0
H264 H 0.41282 0.24289 0.29055 0.0
H265 H 0.42755 0.19273 0.22659 0.0
H266 H 0.3992 0.05454 0.35522 0.0
H267 H 0.44389 0.10294 0.40508 0.0
H268 H 0.49323 0.14676 0.18541 0.0
H269 H 0.50279 0.20776 0.24007 0.0
Cd270 Cd 0.08497 0.85167 0.82456 0.0
Cd271 Cd 0.01719 0.87824 0.78613 0.0
C272 C 0.06025 0.87731 0.87338 0.0
N273 N 0.07085 0.88445 0.85086 0.0
C274 C 0.0759 0.92714 0.86592 0.0
C275 C 0.0667 0.91992 0.89011 0.0
C276 C 0.05791 0.89476 0.89327 0.0
C277 C 0.07823 0.90891 0.84661 0.0
H278 H 0.05554 0.85755 0.87674 0.0
H279 H 0.08724 0.91401 0.82878 0.0
C280 C 0.08023 0.89503 0.77141 0.0
C281 C 0.01557 0.85953 0.72804 0.0
C282 C 0.00746 0.84449 0.70759 0.0
C283 C 0.99847 0.8197 0.71226 0.0
C284 C -2e-05 0.80987 0.73714 0.0
C285 C 0.0082 0.82555 0.75698 0.0
N286 N 0.015 0.85008 0.75218 0.0
H287 H 0.02054 0.8793 0.72493 0.0
H288 H 0.00757 0.81865 0.77639 0.0
C289 C 0.03516 0.93332 0.80524 0.0
N290 N 0.0241 0.91174 0.81431 0.0
C291 C 0.01227 0.93313 0.85288 0.0
C292 C 0.02375 0.95571 0.844 0.0
C293 C 0.03576 0.9553 0.82002 0.0
C294 C 0.0127 0.91123 0.83762 0.0
H295 H 0.0428 0.93395 0.78617 0.0
H296 H 0.00312 0.89409 0.84393 0.0
C297 C 0.02565 0.82833 0.83434 0.0
C298 C 0.13211 0.838 0.84886 0.0
N299 N 0.0799 0.81918 0.79501 0.0
C300 C 0.08685 0.79592 0.80395 0.0
C301 C 0.08798 0.77507 0.78759 0.0
C302 C 0.082 0.77816 0.76165 0.0
C303 C 0.07398 0.80229 0.75307 0.0
C304 C 0.07312 0.82273 0.77022 0.0
C305 C 0.96698 0.89801 0.77958 0.0
O306 O 0.08895 0.88206 0.78993 0.0
O307 O 0.05659 0.89473 0.76576 0.0
O308 O 0.01726 0.84438 0.81824 0.0
O309 O 0.04924 0.82703 0.83942 0.0
O310 O 0.13179 0.84861 0.82713 0.0
O311 O 0.11068 0.83392 0.85918 0.0
O312 O 0.9719 0.87995 0.79487 0.0
O313 O 0.98532 0.90604 0.76593 0.0
H314 H 0.09245 0.79383 0.8237 0.0
H315 H 0.06783 0.84148 0.76358 0.0
H316 H 0.08236 0.94638 0.86219 0.0
H317 H 0.05127 0.88781 0.91153 0.0
H318 H 0.00637 0.85283 0.68872 0.0
H319 H 0.99348 0.79075 0.74144 0.0
H320 H 0.00257 0.93249 0.87109 0.0
H321 H 0.04547 0.97186 0.81246 0.0
H322 H 0.09474 0.75701 0.79499 0.0
H323 H 0.06901 0.80545 0.73327 0.0
Cd324 Cd 0.91669 0.34881 0.67761 0.0
Cd325 Cd 0.98496 0.38062 0.71557 0.0
C326 C 0.93381 0.38147 0.62917 0.0
N327 N 0.92186 0.38447 0.65199 0.0
C328 C 0.90516 0.42475 0.63897 0.0
C329 C 0.9166 0.42188 0.61489 0.0
C330 C 0.93161 0.40015 0.61031 0.0
C331 C 0.90801 0.40571 0.6573 0.0
H332 H 0.94385 0.36392 0.6251 0.0
H333 H 0.89778 0.40717 0.67512 0.0
C334 C 0.92212 0.39377 0.73059 0.0
C335 C 0.98947 0.36313 0.77301 0.0
C336 C 0.9956 0.34764 0.79375 0.0
C337 C 0.99701 0.32103 0.79055 0.0
C338 C 0.99048 0.31073 0.7666 0.0
C339 C 0.98504 0.32702 0.74623 0.0
N340 N 0.98507 0.35266 0.74974 0.0
H341 H 0.98987 0.38365 0.77506 0.0
H342 H 0.98228 0.31929 0.72736 0.0
C343 C 0.96224 0.43257 0.69363 0.0
N344 N 0.9734 0.41076 0.68521 0.0
C345 C 0.97706 0.42798 0.64309 0.0
C346 C 0.96458 0.45026 0.65112 0.0
C347 C 0.95735 0.45245 0.67681 0.0
C348 C 0.98123 0.40825 0.66059 0.0
H349 H 0.95785 0.435 0.71359 0.0
H350 H 0.99106 0.39113 0.65463 0.0
C351 C 0.97922 0.33108 0.66724 0.0
C352 C 0.87203 0.33152 0.6516 0.0
N353 N 0.91559 0.31968 0.71098 0.0
C354 C 0.93319 0.30084 0.71353 0.0
C355 C 0.9294 0.28126 0.73114 0.0
C356 C 0.90677 0.28049 0.74555 0.0
C357 C 0.88945 0.30085 0.74314 0.0
C358 C 0.89435 0.32038 0.72578 0.0
C359 C 0.03404 0.40285 0.72319 0.0
O360 O 0.91488 0.37943 0.71244 0.0
O361 O 0.94562 0.3958 0.73633 0.0
O362 O 0.98761 0.34698 0.68348 0.0
O363 O 0.95556 0.32919 0.66254 0.0
O364 O 0.8704 0.34513 0.67153 0.0
O365 O 0.89427 0.32578 0.64408 0.0
O366 O 0.03061 0.38351 0.70914 0.0
O367 O 0.01463 0.41141 0.73486 0.0
H368 H 0.94967 0.30031 0.70124 0.0
H369 H 0.88049 0.33541 0.72305 0.0
H370 H 0.89325 0.44106 0.64325 0.0
H371 H 0.94029 0.39687 0.59186 0.0
H372 H 0.00087 0.35668 0.81154 0.0
H373 H 0.99078 0.29037 0.76321 0.0
H374 H 0.98312 0.42565 0.62347 0.0
H375 H 0.94858 0.46969 0.68407 0.0
H376 H 0.94363 0.26638 0.73266 0.0
H377 H 0.87152 0.30106 0.75337 0.0
Cd378 Cd 0.51652 0.61819 0.21676 0.0
Cd379 Cd 0.58345 0.64632 0.17939 0.0
C380 C 0.5359 0.56539 0.19341 0.0
N381 N 0.52552 0.58779 0.18556 0.0
C382 C 0.51971 0.57111 0.14342 0.0
C383 C 0.53146 0.54822 0.15083 0.0
C384 C 0.53934 0.54545 0.17627 0.0
C385 C 0.51694 0.59082 0.16123 0.0
H386 H 0.54082 0.56255 0.21319 0.0
H387 H 0.50768 0.6084 0.15573 0.0
C388 C 0.522 0.66623 0.16739 0.0
C389 C 0.57915 0.70167 0.2014 0.0
C390 C 0.57975 0.72215 0.21829 0.0
C391 C 0.57793 0.71772 0.24468 0.0
C392 C 0.57425 0.69257 0.25322 0.0
C393 C 0.57394 0.67257 0.23557 0.0
N394 N 0.5768 0.67747 0.21026 0.0
H395 H 0.58182 0.70492 0.18119 0.0
H396 H 0.57233 0.65318 0.24222 0.0
C397 C 0.56508 0.61498 0.12996 0.0
N398 N 0.57664 0.61141 0.15292 0.0
C399 C 0.5925 0.57088 0.13961 0.0
C400 C 0.58156 0.57437 0.11542 0.0
C401 C 0.56707 0.59644 0.1109 0.0
C402 C 0.58986 0.58973 0.15813 0.0
H403 H 0.55563 0.63284 0.12588 0.0
H404 H 0.59997 0.58777 0.17596 0.0
C405 C 0.57962 0.6011 0.2311 0.0
C406 C 0.46726 0.59709 0.22603 0.0
N407 N 0.51805 0.64761 0.24983 0.0
C408 C 0.5241 0.63931 0.27363 0.0
C409 C 0.51929 0.65472 0.29482 0.0
C410 C 0.50776 0.67868 0.29143 0.0
C411 C 0.50332 0.68736 0.26644 0.0
C412 C 0.5085 0.67135 0.2458 0.0
C413 C 0.6293 0.66391 0.15545 0.0
O414 O 0.51313 0.65138 0.18433 0.0
O415 O 0.54562 0.6666 0.16221 0.0
O416 O 0.58866 0.61501 0.21342 0.0
O417 O 0.55581 0.60065 0.23586 0.0
O418 O 0.47072 0.61625 0.21176 0.0
O419 O 0.48675 0.5884 0.23747 0.0
O420 O 0.63008 0.65197 0.17648 0.0
O421 O 0.6074 0.66804 0.14617 0.0
H422 H 0.5312 0.62014 0.27632 0.0
H423 H 0.50334 0.67726 0.22673 0.0
H424 H 0.51318 0.57392 0.12402 0.0
H425 H 0.54759 0.52778 0.18307 0.0
H426 H 0.58312 0.74107 0.21076 0.0
H427 H 0.57244 0.68829 0.27335 0.0
H428 H 0.60406 0.55429 0.14379 0.0
H429 H 0.5588 0.60013 0.09233 0.0
H430 H 0.52331 0.6474 0.31371 0.0
H431 H 0.49415 0.70551 0.26288 0.0
Cd432 Cd 0.28226 0.4839 0.1192 0.0
Cd433 Cd 0.32289 0.41796 0.14679 0.0
C434 C 0.30382 0.46715 0.06539 0.0
N435 N 0.31295 0.47553 0.08814 0.0
C436 C 0.35492 0.47952 0.07056 0.0
C437 C 0.34616 0.46957 0.04725 0.0
C438 C 0.32012 0.46382 0.04476 0.0
C439 C 0.33785 0.48233 0.09094 0.0
H440 H 0.28366 0.46365 0.06298 0.0
H441 H 0.34445 0.49012 0.10884 0.0
C442 C 0.33346 0.48094 0.16491 0.0
C443 C 0.29837 0.43341 0.20097 0.0
C444 C 0.28244 0.43125 0.22213 0.0
C445 C 0.25986 0.41695 0.22035 0.0
C446 C 0.25271 0.40727 0.19638 0.0
C447 C 0.26905 0.41028 0.17553 0.0
N448 N 0.29171 0.42258 0.17836 0.0
H449 H 0.31677 0.44232 0.20325 0.0
H450 H 0.26448 0.40116 0.15761 0.0
C451 C 0.3728 0.43569 0.11758 0.0
N452 N 0.34989 0.42485 0.11225 0.0
C453 C 0.36401 0.41374 0.07034 0.0
C454 C 0.3881 0.42446 0.07539 0.0
C455 C 0.39216 0.43584 0.09936 0.0
C456 C 0.34511 0.41413 0.08912 0.0
H457 H 0.37657 0.44305 0.13646 0.0
H458 H 0.32712 0.40474 0.0856 0.0
C459 C 0.2707 0.42079 0.10176 0.0
C460 C 0.27004 0.53264 0.09807 0.0
N461 N 0.2503 0.48014 0.1496 0.0
C462 C 0.22597 0.481 0.14071 0.0
C463 C 0.20589 0.48677 0.15721 0.0
C464 C 0.21105 0.49195 0.183 0.0
C465 C 0.23611 0.48866 0.19201 0.0
C466 C 0.25563 0.4829 0.17482 0.0
C467 C 0.3476 0.37283 0.16531 0.0
O468 O 0.3156 0.49001 0.15128 0.0
O469 O 0.33883 0.45737 0.16458 0.0
O470 O 0.28914 0.41309 0.11547 0.0
O471 O 0.26396 0.44411 0.10167 0.0
O472 O 0.28461 0.52995 0.11713 0.0
O473 O 0.25961 0.51256 0.0895 0.0
O474 O 0.32684 0.37156 0.15295 0.0
O475 O 0.35654 0.39492 0.16923 0.0
H476 H 0.22244 0.47929 0.12045 0.0
H477 H 0.2752 0.48258 0.1813 0.0
H478 H 0.37479 0.48446 0.07324 0.0
H479 H 0.31225 0.45715 0.02687 0.0
H480 H 0.28854 0.43942 0.24009 0.0
H481 H 0.23566 0.39585 0.19412 0.0
H482 H 0.35994 0.40451 0.05235 0.0
H483 H 0.41056 0.44352 0.10469 0.0
H484 H 0.18695 0.48935 0.14939 0.0
H485 H 0.24084 0.49218 0.21182 0.0
Cd486 Cd 0.81306 0.07675 0.84787 0.0
Cd487 Cd 0.77864 0.0112 0.88187 0.0
C488 C 0.86784 0.06288 0.87179 0.0
N489 N 0.84452 0.07185 0.87885 0.0
C490 C 0.86133 0.08667 0.9185 0.0
C491 C 0.88581 0.07854 0.91125 0.0
C492 C 0.8888 0.06571 0.88797 0.0
C493 C 0.84084 0.08316 0.9019 0.0
H494 H 0.87062 0.05501 0.85295 0.0
H495 H 0.82238 0.09088 0.90678 0.0
C496 C 0.76446 0.07435 0.8967 0.0
C497 C 0.72202 0.01572 0.85953 0.0
C498 C 0.70182 0.00864 0.84361 0.0
C499 C 0.70709 0.99841 0.8194 0.0
C500 C 0.73248 0.99794 0.81087 0.0
C501 C 0.75203 0.00505 0.82742 0.0
N502 N 0.74651 0.01297 0.85147 0.0
H503 H 0.71824 0.0213 0.87903 0.0
H504 H 0.77162 0.00234 0.8217 0.0
C505 C 0.80007 0.02515 0.93599 0.0
N506 N 0.80959 0.02095 0.91223 0.0
C507 C 0.85218 0.02047 0.92861 0.0
C508 C 0.84269 0.02427 0.95336 0.0
C509 C 0.81634 0.02683 0.95691 0.0
C510 C 0.83511 0.01841 0.90818 0.0
H511 H 0.77968 0.02623 0.93883 0.0
H512 H 0.84219 0.01416 0.88931 0.0
C513 C 0.82819 0.0138 0.83409 0.0
C514 C 0.83367 0.12253 0.82665 0.0
N515 N 0.77795 0.07201 0.82098 0.0
C516 C 0.77923 0.05566 0.80089 0.0
C517 C 0.76185 0.05766 0.78083 0.0
C518 C 0.74343 0.07712 0.78112 0.0
C519 C 0.74148 0.09259 0.80293 0.0
C520 C 0.75913 0.08976 0.82271 0.0
C521 C 0.76687 0.96333 0.905 0.0
O522 O 0.78112 0.08251 0.88112 0.0
O523 O 0.75989 0.05063 0.8989 0.0
O524 O 0.81197 0.00506 0.84982 0.0
O525 O 0.83119 0.03761 0.83111 0.0
O526 O 0.82234 0.12254 0.84799 0.0
O527 O 0.83492 0.10142 0.81498 0.0
O528 O 0.77992 0.96496 0.88475 0.0
O529 O 0.75782 0.98395 0.91379 0.0
H530 H 0.79466 0.04212 0.79953 0.0
H531 H 0.75904 0.10306 0.83848 0.0
H532 H 0.85827 0.09654 0.9364 0.0
H533 H 0.90744 0.05952 0.88156 0.0
H534 H 0.68255 0.00906 0.85101 0.0
H535 H 0.73731 0.99043 0.79223 0.0
H536 H 0.87247 0.0184 0.92527 0.0
H537 H 0.8084 0.02996 0.97574 0.0
H538 H 0.76382 0.04508 0.76456 0.0
H539 H 0.72784 0.10806 0.80385 0.0
Cd540 Cd 0.71259 0.98449 0.37899 0.0
Cd541 Cd 0.67432 0.91658 0.34838 0.0
C542 C 0.69424 0.97038 0.4353 0.0
N543 N 0.68438 0.97844 0.41273 0.0
C544 C 0.64445 0.988 0.4327 0.0
C545 C 0.65427 0.97995 0.45629 0.0
C546 C 0.67941 0.97079 0.45733 0.0
C547 C 0.66009 0.98741 0.41106 0.0
H548 H 0.71397 0.96458 0.43649 0.0
H549 H 0.65313 0.99478 0.39308 0.0
C550 C 0.66479 0.97712 0.32829 0.0
C551 C 0.69432 0.9147 0.29255 0.0
C552 C 0.71029 0.91239 0.27149 0.0
C553 C 0.7367 0.91599 0.27432 0.0
C554 C 0.74617 0.9229 0.2985 0.0
C555 C 0.72939 0.92491 0.3192 0.0
N556 N 0.70407 0.92041 0.31584 0.0
H557 H 0.67414 0.91084 0.29062 0.0
H558 H 0.73668 0.9292 0.33801 0.0
C559 C 0.62901 0.94449 0.37982 0.0
N560 N 0.64841 0.92754 0.38267 0.0
C561 C 0.62997 0.9116 0.42114 0.0
C562 C 0.60879 0.9278 0.41793 0.0
C563 C 0.6092 0.9453 0.39759 0.0
C564 C 0.64962 0.9118 0.4032 0.0
H565 H 0.62803 0.95639 0.36306 0.0
H566 H 0.66476 0.89785 0.40451 0.0
C567 C 0.72567 0.92097 0.39461 0.0
C568 C 0.7212 0.03492 0.39741 0.0
N569 N 0.7469 0.98444 0.35107 0.0
C570 C 0.7708 0.98508 0.3611 0.0
C571 C 0.79147 0.99237 0.34594 0.0
C572 C 0.78729 -0.00074 0.32038 0.0
C573 C 0.76269 0.9964 0.31011 0.0
C574 C 0.74261 0.98909 0.32594 0.0
C575 C 0.64911 0.87033 0.33364 0.0
O576 O 0.68076 0.98442 0.34497 0.0
O577 O 0.6596 0.95367 0.32555 0.0
O578 O 0.70807 0.91286 0.38004 0.0
O579 O 0.73101 0.94462 0.39602 0.0
O580 O 0.70513 0.03006 0.37999 0.0
O581 O 0.7344 0.01632 0.40557 0.0
O582 O 0.67129 0.86995 0.3433 0.0
O583 O 0.6389 0.89202 0.33086 0.0
H584 H 0.77351 0.98181 0.3813 0.0
H585 H 0.72337 0.9888 0.31855 0.0
H586 H 0.62519 0.9953 0.43115 0.0
H587 H 0.68763 0.96414 0.47509 0.0
H588 H 0.70208 0.90652 0.25346 0.0
H589 H 0.76635 0.9261 0.30151 0.0
H590 H 0.63055 0.89743 0.43613 0.0
H591 H 0.59377 0.95868 0.39461 0.0
H592 H 0.81007 0.99454 0.35466 0.0
H593 H 0.75876 0.00124 0.29041 0.0
Cd594 Cd 0.21675 0.51807 0.61792 0.0
Cd595 Cd 0.17856 0.58333 0.64948 0.0
C596 C 0.1889 0.53962 0.56808 0.0
N597 N 0.1832 0.52643 0.58966 0.0
C598 C 0.14193 0.51591 0.57304 0.0
C599 C 0.14725 0.52984 0.55079 0.0
C600 C 0.17108 0.54181 0.54852 0.0
C601 C 0.16033 0.51444 0.59239 0.0
H602 H 0.20766 0.54762 0.56545 0.0
H603 H 0.15662 0.50313 0.60923 0.0
C604 C 0.16888 0.52046 0.66743 0.0
C605 C 0.20023 0.58013 0.70492 0.0
C606 C 0.21696 0.5814 0.7255 0.0
C607 C 0.2434 0.58001 0.72127 0.0
C608 C 0.25218 0.5761 0.6962 0.0
C609 C 0.23467 0.57509 0.67608 0.0
N610 N 0.20929 0.57754 0.68081 0.0
H611 H 0.17996 0.58247 0.708 0.0
H612 H 0.24142 0.57323 0.65671 0.0
C613 C 0.12899 0.56206 0.62098 0.0
N614 N 0.15082 0.57509 0.61598 0.0
C615 C 0.13425 0.58905 0.57591 0.0
C616 C 0.11108 0.57637 0.58077 0.0
C617 C 0.1089 0.5623 0.60354 0.0
C618 C 0.15388 0.58823 0.59387 0.0
H619 H 0.12647 0.55279 0.6392 0.0
H620 H 0.17097 0.59931 0.59076 0.0
C621 C 0.2296 0.58183 0.60343 0.0
C622 C 0.2285 0.47117 0.59284 0.0
N623 N 0.25015 0.51769 0.6472 0.0
C624 C 0.27427 0.51747 0.63768 0.0
C625 C 0.29468 0.50974 0.65299 0.0
C626 C 0.29006 0.50191 0.6782 0.0
C627 C 0.26523 0.50428 0.68804 0.0
C628 C 0.24541 0.51208 0.67207 0.0
C629 C 0.15346 0.62814 0.66829 0.0
O630 O 0.18509 0.51166 0.65169 0.0
O631 O 0.16431 0.54415 0.66887 0.0
O632 O 0.21167 0.58972 0.6177 0.0
O633 O 0.23544 0.55829 0.60226 0.0
O634 O 0.2173 0.47186 0.61423 0.0
O635 O 0.23554 0.49236 0.58357 0.0
O636 O 0.17456 0.62964 0.65656 0.0
O637 O 0.14442 0.60599 0.67147 0.0
H638 H 0.27736 0.5214 0.61765 0.0
H639 H 0.22606 0.51204 0.67913 0.0
H640 H 0.12379 0.50635 0.57546 0.0
H641 H 0.17622 0.55215 0.53139 0.0
H642 H 0.20923 0.58492 0.74432 0.0
H643 H 0.27236 0.5746 0.69209 0.0
H644 H 0.13705 0.60029 0.55886 0.0
H645 H 0.09131 0.55289 0.60877 0.0
H646 H 0.31346 0.50797 0.64458 0.0
H647 H 0.26093 0.49875 0.70748 0.0
Cd648 Cd 0.84529 0.68119 0.57907 0.0
Cd649 Cd 0.88106 0.71638 0.51441 0.0
C650 C 0.87423 0.63174 0.55735 0.0
N651 N 0.87845 0.65327 0.57117 0.0
C652 C 0.91737 0.63635 0.58743 0.0
C653 C 0.91297 0.6133 0.5744 0.0
C654 C 0.89145 0.61151 0.55851 0.0
C655 C 0.89969 0.65608 0.58568 0.0
H656 H 0.85665 0.62941 0.54688 0.0
H657 H 0.90213 0.67298 0.59722 0.0
C658 C 0.89214 0.73185 0.5778 0.0
C659 C 0.86096 0.77369 0.51274 0.0
C660 C 0.84521 0.79394 0.50552 0.0
C661 C 0.81968 0.78913 0.499 0.0
C662 C 0.81008 0.76431 0.50207 0.0
C663 C 0.82648 0.74466 0.50932 0.0
N664 N 0.85155 0.74956 0.51373 0.0
H665 H 0.88111 0.77692 0.5158 0.0
H666 H 0.81943 0.72534 0.50999 0.0
C667 C 0.92921 0.68812 0.53996 0.0
N668 N 0.90899 0.68296 0.52454 0.0
C669 C 0.92704 0.64242 0.5135 0.0
C670 C 0.94787 0.64725 0.52961 0.0
C671 C 0.9487 0.67035 0.54305 0.0
C672 C 0.90763 0.66067 0.51126 0.0
H673 H 0.93088 0.70643 0.54915 0.0
H674 H 0.89193 0.65744 0.49828 0.0
C675 C 0.82978 0.66995 0.51608 0.0
C676 C 0.82692 0.65862 0.6255 0.0
N677 N 0.81391 0.71143 0.57232 0.0
C678 C 0.78988 0.70191 0.57351 0.0
C679 C 0.76906 0.71826 0.57519 0.0
C680 C 0.77298 0.74477 0.57573 0.0
C681 C 0.79799 0.7541 0.57292 0.0
C682 C 0.81837 0.73695 0.57146 0.0
C683 C 0.90728 0.72768 0.46801 0.0
O684 O 0.87701 0.71444 0.58517 0.0
O685 O 0.89516 0.73675 0.55422 0.0
O686 O 0.84677 0.68525 0.50803 0.0
O687 O 0.82641 0.66618 0.53975 0.0
O688 O 0.839 0.67954 0.62547 0.0
O689 O 0.82318 0.64828 0.60397 0.0
O690 O 0.8859 0.71645 0.46815 0.0
O691 O 0.91589 0.73493 0.48942 0.0
H692 H 0.78705 0.68152 0.57474 0.0
H693 H 0.8377 0.74404 0.57079 0.0
H694 H 0.93364 0.63877 0.59989 0.0
H695 H 0.8868 0.594 0.54862 0.0
H696 H 0.85343 0.81274 0.50317 0.0
H697 H 0.79041 0.75989 0.49755 0.0
H698 H 0.92587 0.62485 0.50271 0.0
H699 H 0.96475 0.67502 0.5552 0.0
H700 H 0.7503 0.71008 0.57783 0.0
H701 H 0.80187 0.77438 0.57291 0.0
Cd702 Cd 0.6219 0.28699 0.01654 0.0
Cd703 Cd 0.6532 0.32398 0.08362 0.0
C704 C 0.56889 0.31076 0.0372 0.0
N705 N 0.59043 0.3176 0.02447 0.0
C706 C 0.57188 0.35785 0.01335 0.0
C707 C 0.54972 0.35144 0.0269 0.0
C708 C 0.54841 0.32759 0.03896 0.0
C709 C 0.5922 0.34054 0.01244 0.0
H710 H 0.56713 0.29196 0.04534 0.0
H711 H 0.60916 0.34512 0.00163 0.0
C712 C 0.6734 0.33388 0.02279 0.0
C713 C 0.70884 0.30336 0.08452 0.0
C714 C 0.72971 0.287 0.08508 0.0
C715 C 0.72663 0.26121 0.07845 0.0
C716 C 0.70238 0.25282 0.0705 0.0
C717 C 0.68188 0.26993 0.07039 0.0
N718 N 0.68551 0.29454 0.07766 0.0
H719 H 0.71096 0.32297 0.09055 0.0
H720 H 0.66301 0.26339 0.06535 0.0
C721 C 0.62365 0.3713 0.05889 0.0
N722 N 0.61901 0.34944 0.072 0.0
C723 C 0.57772 0.36432 0.08392 0.0
C724 C 0.58242 0.3878 0.07179 0.0
C725 C 0.6055 0.39074 0.05839 0.0
C726 C 0.59641 0.34545 0.08398 0.0
H727 H 0.64218 0.37456 0.05051 0.0
H728 H 0.59351 0.32841 0.09517 0.0
C729 C 0.6078 0.27225 0.0803 0.0
C730 C 0.60066 0.27909 0.96709 0.0
N731 N 0.64939 0.25226 0.0151 0.0
C732 C 0.64039 0.22873 0.02117 0.0
C733 C 0.65451 0.20699 0.01501 0.0
C734 C 0.67791 0.20955 0.00216 0.0
C735 C 0.68733 0.23422 0.99752 0.0
C736 C 0.67262 0.25542 0.00408 0.0
C737 C 0.66774 0.34908 0.13013 0.0
O738 O 0.65675 0.31808 0.01499 0.0
O739 O 0.67552 0.3391 0.04632 0.0
O740 O 0.62227 0.28981 0.08863 0.0
O741 O 0.6059 0.26766 0.05652 0.0
O742 O 0.61936 0.29391 0.97094 0.0
O743 O 0.59245 0.26672 0.98623 0.0
O744 O 0.65924 0.32645 0.13023 0.0
O745 O 0.6698 0.35973 0.10856 0.0
H746 H 0.62162 0.22674 0.02947 0.0
H747 H 0.67904 0.27432 0.99895 0.0
H748 H 0.57353 0.37607 0.00377 0.0
H749 H 0.5314 0.32174 0.04913 0.0
H750 H 0.74778 0.29431 0.0919 0.0
H751 H 0.69916 0.23316 0.06504 0.0
H752 H 0.56039 0.3609 0.09454 0.0
H753 H 0.61052 0.40858 0.04933 0.0
H754 H 0.64666 0.18838 0.01925 0.0
H755 H 0.70506 0.23718 0.98735 0.0
Cd756 Cd 0.35069 0.81992 0.41502 0.0
Cd757 Cd 0.38048 0.78453 0.48204 0.0
C758 C 0.37245 0.87254 0.43362 0.0
N759 N 0.38176 0.8494 0.42668 0.0
C760 C 0.42401 0.86635 0.42416 0.0
C761 C 0.4147 0.89088 0.42991 0.0
C762 C 0.38857 0.89354 0.43539 0.0
C763 C 0.40707 0.84584 0.42226 0.0
H764 H 0.35215 0.87514 0.436 0.0
H765 H 0.41403 0.82744 0.41618 0.0
C766 C 0.39896 0.77194 0.41837 0.0
C767 C 0.35989 0.72758 0.48 0.0
C768 C 0.3439 0.70737 0.48675 0.0
C769 C 0.3185 0.71241 0.4936 0.0
C770 C 0.30914 0.73738 0.49098 0.0
C771 C 0.32579 0.75699 0.4843 0.0
N772 N 0.3508 0.75184 0.47984 0.0
H773 H 0.38002 0.72419 0.47698 0.0
H774 H 0.31908 0.77645 0.48437 0.0
C775 C 0.43368 0.80885 0.46895 0.0
N776 N 0.41054 0.81668 0.47753 0.0
C777 C 0.42767 0.85743 0.48886 0.0
C778 C 0.45187 0.84971 0.48021 0.0
C779 C 0.45452 0.82519 0.46976 0.0
C780 C 0.40713 0.84041 0.48747 0.0
H781 H 0.43627 0.78955 0.46227 0.0
H782 H 0.38877 0.84582 0.49513 0.0
C783 C 0.33089 0.83208 0.47682 0.0
C784 C 0.33239 0.84251 0.36845 0.0
N785 N 0.32115 0.78758 0.42168 0.0
C786 C 0.29652 0.79554 0.42159 0.0
C787 C 0.27671 0.7779 0.42074 0.0
C788 C 0.28224 0.75168 0.41988 0.0
C789 C 0.30791 0.74397 0.4212 0.0
C790 C 0.32721 0.76237 0.42186 0.0
C791 C 0.40233 0.7711 0.53009 0.0
O792 O 0.38435 0.78867 0.40865 0.0
O793 O 0.39898 0.76748 0.44224 0.0
O794 O 0.34707 0.8167 0.48624 0.0
O795 O 0.32895 0.8352 0.45291 0.0
O796 O 0.34622 0.8227 0.36826 0.0
O797 O 0.32702 0.85166 0.39013 0.0
O798 O 0.38189 0.78389 0.5285 0.0
O799 O 0.41181 0.76313 0.50932 0.0
H800 H 0.2923 0.81572 0.42077 0.0
H801 H 0.34693 0.75648 0.42161 0.0
H802 H 0.44401 0.8631 0.42026 0.0
H803 H 0.38009 0.91196 0.43918 0.0
H804 H 0.35194 0.68846 0.48875 0.0
H805 H 0.28957 0.74196 0.49575 0.0
H806 H 0.42476 0.87612 0.49713 0.0
H807 H 0.47259 0.81852 0.4623 0.0
H808 H 0.25734 0.78489 0.41916 0.0
H809 H 0.31309 0.72399 0.42091 0.0
Cd810 Cd 0.11873 0.21606 0.98572 0.0
Cd811 Cd 0.15425 0.18364 0.91952 0.0
C812 C 0.06472 0.19444 0.97278 0.0
N813 N 0.088 0.18483 0.97881 0.0
C814 C 0.07023 0.1431 0.98399 0.0
C815 C 0.04592 0.15273 0.97804 0.0
C816 C 0.04342 0.17869 0.97215 0.0
C817 C 0.09117 0.15971 0.98459 0.0
H818 H 0.06252 0.21463 0.96927 0.0
H819 H 0.10975 0.15269 0.99014 0.0
C820 C 0.16837 0.1686 0.98248 0.0
C821 C 0.2066 0.21111 0.93385 0.0
C822 C 0.22596 0.22932 0.93244 0.0
C823 C 0.22027 0.25398 0.92369 0.0
C824 C 0.19473 0.26032 0.91874 0.0
C825 C 0.17596 0.24155 0.92047 0.0
N826 N 0.18231 0.21731 0.92721 0.0
H827 H 0.21129 0.19157 0.93847 0.0
H828 H 0.15671 0.24605 0.9148 0.0
C829 C 0.13075 0.1299 0.92987 0.0
N830 N 0.12195 0.154 0.92641 0.0
C831 C 0.07943 0.13848 0.92117 0.0
C832 C 0.08821 0.11316 0.92314 0.0
C833 C 0.11425 0.10917 0.92821 0.0
C834 C 0.09675 0.15867 0.92243 0.0
H835 H 0.15098 0.12664 0.93224 0.0
H836 H 0.09008 0.17787 0.91931 0.0
C837 C 0.10429 0.23014 0.92147 0.0
C838 C 0.09595 0.22932 0.03344 0.0
N839 N 0.14821 0.24891 0.98252 0.0
C840 C 0.13897 0.27311 0.98303 0.0
C841 C 0.1551 0.29347 0.9889 0.0
C842 C 0.18087 0.2887 0.99448 0.0
C843 C 0.19028 0.26377 0.99152 0.0
C844 C 0.17345 0.24398 0.98576 0.0
C845 C 0.17532 0.16083 0.87428 0.0
O846 O 0.15184 0.18391 0.99136 0.0
O847 O 0.17175 0.16613 0.95864 0.0
O848 O 0.12052 0.21467 0.91224 0.0
O849 O 0.10162 0.23304 0.94542 0.0
O850 O 0.11622 0.21623 0.03217 0.0
O851 O 0.08717 0.23778 0.01255 0.0
O852 O 0.16095 0.18022 0.87295 0.0
O853 O 0.18046 0.15272 0.89642 0.0
H854 H 0.11869 0.27633 0.98095 0.0
H855 H 0.18027 0.22456 0.98562 0.0
H856 H 0.07289 0.12314 0.98856 0.0
H857 H 0.0251 0.18681 0.9671 0.0
H858 H 0.24545 0.22353 0.9361 0.0
H859 H 0.18957 0.27919 0.91212 0.0
H860 H 0.05949 0.14278 0.91801 0.0
H861 H 0.12232 0.09022 0.9293 0.0
H862 H 0.147 0.31233 0.99121 0.0
H863 H 0.2101 0.25936 0.99529 0.0
Cd864 Cd 0.57549 0.84433 0.6817 0.0
Cd865 Cd 0.50892 0.87919 0.71711 0.0
C866 C 0.56003 0.87509 0.63098 0.0
N867 N 0.57139 0.87869 0.65404 0.0
C868 C 0.59054 0.91733 0.63956 0.0
C869 C 0.57973 0.9138 0.6153 0.0
C870 C 0.56374 0.89268 0.61128 0.0
C871 C 0.58615 0.89947 0.6587 0.0
H872 H 0.54933 0.85783 0.6274 0.0
H873 H 0.59607 0.90131 0.67665 0.0
C874 C 0.57238 0.89215 0.73179 0.0
C875 C 0.51478 0.86061 0.77491 0.0
C876 C 0.51008 0.8459 0.79659 0.0
C877 C 0.49975 0.82132 0.79394 0.0
C878 C 0.49625 0.81147 0.76922 0.0
C879 C 0.50128 0.82683 0.74806 0.0
N880 N 0.50975 0.85109 0.75133 0.0
H881 H 0.52105 0.88014 0.77697 0.0
H882 H 0.49698 0.8199 0.72912 0.0
C883 C 0.53193 0.93071 0.6941 0.0
N884 N 0.52104 0.90858 0.68615 0.0
C885 C 0.51958 0.92386 0.64318 0.0
C886 C 0.5322 0.94625 0.6507 0.0
C887 C 0.538 0.94969 0.67661 0.0
C888 C 0.51421 0.90508 0.66136 0.0
H889 H 0.53548 0.93397 0.71412 0.0
H890 H 0.50454 0.88778 0.6557 0.0
C891 C 0.51297 0.82846 0.66985 0.0
C892 C 0.62047 0.82535 0.65739 0.0
N893 N 0.56957 0.81385 0.71323 0.0
C894 C 0.57315 0.78953 0.70514 0.0
C895 C 0.57437 0.76963 0.72266 0.0
C896 C 0.57189 0.77476 0.74887 0.0
C897 C 0.5669 0.79996 0.75659 0.0
C898 C 0.56596 0.81939 0.73832 0.0
C899 C 0.46008 0.90213 0.72447 0.0
O900 O 0.5799 0.87668 0.71471 0.0
O901 O 0.54877 0.89496 0.73668 0.0
O902 O 0.50485 0.84511 0.68546 0.0
O903 O 0.53664 0.82541 0.66594 0.0
O904 O 0.62168 0.83595 0.67912 0.0
O905 O 0.5985 0.82288 0.64769 0.0
O906 O 0.46339 0.88263 0.71062 0.0
O907 O 0.47948 0.91043 0.73634 0.0
H908 H 0.57631 0.78582 0.68508 0.0
H909 H 0.56331 0.8389 0.7443 0.0
H910 H 0.60319 0.93319 0.64339 0.0
H911 H 0.55547 0.88899 0.59271 0.0
H912 H 0.51335 0.85414 0.81525 0.0
H913 H 0.48803 0.79277 0.76622 0.0
H914 H 0.51461 0.92055 0.6234 0.0
H915 H 0.54687 0.96707 0.68339 0.0
H916 H 0.57871 0.75065 0.71576 0.0
H917 H 0.56455 0.80474 0.77655 0.0
Cd918 Cd 0.98487 0.11918 0.21776 0.0
Cd919 Cd 0.91964 0.15026 0.17886 0.0
C920 C 0.96637 0.06608 0.1959 0.0
N921 N 0.97634 0.08835 0.18722 0.0
C922 C 0.98552 0.06936 0.14674 0.0
C923 C 0.97557 0.04601 0.15541 0.0
C924 C 0.96539 0.04479 0.18015 0.0
C925 C 0.98587 0.0904 0.16317 0.0
H926 H 0.96022 0.06436 0.21547 0.0
H927 H 0.99469 0.10802 0.15709 0.0
C928 C 0.98199 0.16836 0.16909 0.0
C929 C 0.93997 0.19023 0.22285 0.0
C930 C 0.93702 0.20849 0.2421 0.0
C931 C 0.91265 0.21316 0.25239 0.0
C932 C 0.89218 0.19801 0.24402 0.0
C933 C 0.89607 0.17982 0.22507 0.0
N934 N 0.91948 0.17675 0.21446 0.0
H935 H 0.95836 0.18756 0.21402 0.0
H936 H 0.88011 0.16889 0.21794 0.0
C937 C 0.93862 0.1218 0.12932 0.0
N938 N 0.92884 0.11572 0.15254 0.0
C939 C 0.91752 0.07415 0.13774 0.0
C940 C 0.92549 0.08067 0.11296 0.0
C941 C 0.93725 0.10445 0.1092 0.0
C942 C 0.919 0.0922 0.15727 0.0
H943 H 0.9455 0.14091 0.1258 0.0
H944 H 0.91065 0.08793 0.17559 0.0
C945 C 0.92087 0.10488 0.23041 0.0
C946 C 0.03296 0.09596 0.22854 0.0
N947 N 0.98476 0.15003 0.24948 0.0
C948 C 0.97361 0.14587 0.27253 0.0
C949 C 0.97888 0.16207 0.29304 0.0
C950 C 0.99587 0.18253 0.2897 0.0
C951 C 0.00584 0.18712 0.26526 0.0
C952 C 0.00019 0.17041 0.2454 0.0
C953 C 0.87578 0.16853 0.15162 0.0
O954 O 0.99009 0.15215 0.18516 0.0
O955 O 0.95834 0.17107 0.16482 0.0
O956 O 0.91317 0.11905 0.21234 0.0
O957 O 0.9444 0.1035 0.23624 0.0
O958 O 0.03056 0.11457 0.21335 0.0
O959 O 0.013 0.08892 0.2403 0.0
O960 O 0.87357 0.1526 0.16966 0.0
O961 O 0.89812 0.17619 0.14662 0.0
H962 H 0.96191 0.12917 0.27545 0.0
H963 H 0.00934 0.17285 0.22708 0.0
H964 H 0.99369 0.07112 0.12786 0.0
H965 H 0.95708 0.02739 0.18753 0.0
H966 H 0.95347 0.21938 0.2482 0.0
H967 H 0.87296 0.20107 0.25089 0.0
H968 H 0.90881 0.05585 0.14167 0.0
H969 H 0.94335 0.11056 0.09044 0.0
H970 H 0.97075 0.15793 0.31157 0.0
H971 H 0.01937 0.20236 0.2619 0.0
Cd972 Cd 0.01661 0.61944 0.28305 0.0
Cd973 Cd 0.08355 0.64642 0.32394 0.0
C974 C 0.031 0.5646 0.3031 0.0
N975 N 0.02344 0.58738 0.31277 0.0
C976 C 0.01965 0.56927 0.35451 0.0
C977 C 0.02928 0.54605 0.34525 0.0
C978 C 0.03428 0.54373 0.31904 0.0
C979 C 0.01696 0.58993 0.33779 0.0
H980 H 0.03417 0.56247 0.28285 0.0
H981 H 0.00976 0.60796 0.34475 0.0
C982 C 0.02257 0.66767 0.33294 0.0
C983 C 0.0831 0.70175 0.30229 0.0
C984 C 0.08572 0.72197 0.28534 0.0
C985 C 0.08333 0.71756 0.25907 0.0
C986 C 0.07665 0.69311 0.25049 0.0
C987 C 0.07448 0.67326 0.26819 0.0
N988 N 0.07828 0.67791 0.29345 0.0
H989 H 0.08635 0.70472 0.32246 0.0
H990 H 0.07115 0.65404 0.26165 0.0
C991 C 0.06187 0.61899 0.37348 0.0
N992 N 0.07337 0.61293 0.35107 0.0
C993 C 0.08308 0.57116 0.36645 0.0
C994 C 0.07193 0.577 0.39018 0.0
C995 C 0.06083 0.60127 0.39328 0.0
C996 C 0.08366 0.58947 0.34713 0.0
H997 H 0.05489 0.63812 0.3766 0.0
H998 H 0.09361 0.58537 0.32957 0.0
C999 C 0.07985 0.60058 0.27245 0.0
C1000 C 0.96703 0.5997 0.27257 0.0
N1001 N 0.01883 0.64912 0.25029 0.0
C1002 C 0.02597 0.64141 0.22659 0.0
C1003 C 0.02135 0.657 0.20549 0.0
C1004 C 0.00888 0.6805 0.20884 0.0
C1005 C 0.00341 0.68865 0.23381 0.0
C1006 C 0.00845 0.6725 0.25435 0.0
C1007 C 0.12989 0.66252 0.34812 0.0
O1008 O 0.01447 0.65227 0.31608 0.0
O1009 O 0.04605 0.6688 0.33861 0.0
O1010 O 0.08776 0.61452 0.29063 0.0
O1011 O 0.05652 0.60076 0.26564 0.0
O1012 O 0.97081 0.61766 0.28828 0.0
O1013 O 0.98633 0.59172 0.26032 0.0
O1014 O 0.13011 0.65253 0.32609 0.0
O1015 O 0.1083 0.66519 0.35859 0.0
H1016 H 0.03378 0.62252 0.22388 0.0
H1017 H 0.00245 0.6779 0.27333 0.0
H1018 H 0.01517 0.57172 0.37453 0.0
H1019 H 0.04065 0.52586 0.31085 0.0
H1020 H 0.09084 0.74064 0.29257 0.0
H1021 H 0.07487 0.68906 0.2303 0.0
H1022 H 0.09206 0.55294 0.36297 0.0
H1023 H 0.05283 0.6073 0.41132 0.0
H1024 H 0.02621 0.6501 0.18663 0.0
H1025 H 0.99351 0.70642 0.23736 0.0
Cd1026 Cd 0.4868 0.38028 0.78148 0.0
Cd1027 Cd 0.42076 0.34909 0.81927 0.0
C1028 C 0.46625 0.43239 0.80572 0.0
N1029 N 0.47765 0.41032 0.8131 0.0
C1030 C 0.48497 0.42731 0.85491 0.0
C1031 C 0.47248 0.44996 0.84796 0.0
C1032 C 0.46321 0.45236 0.82294 0.0
C1033 C 0.48736 0.40758 0.83704 0.0
H1034 H 0.46022 0.43496 0.78621 0.0
H1035 H 0.49734 0.39028 0.84215 0.0
C1036 C 0.48318 0.3311 0.82998 0.0
C1037 C 0.41956 0.29364 0.79796 0.0
C1038 C 0.4149 0.2732 0.7817 0.0
C1039 C 0.41415 0.27726 0.75528 0.0
C1040 C 0.41989 0.30158 0.74568 0.0
C1041 C 0.42416 0.32167 0.76275 0.0
N1042 N 0.42322 0.3174 0.78835 0.0
H1043 H 0.41879 0.29087 0.81839 0.0
H1044 H 0.42693 0.34077 0.75555 0.0
C1045 C 0.44186 0.37701 0.86947 0.0
N1046 N 0.43023 0.3823 0.8469 0.0
C1047 C 0.41701 0.42302 0.86228 0.0
C1048 C 0.42776 0.4177 0.88629 0.0
C1049 C 0.44107 0.39461 0.88943 0.0
C1050 C 0.41837 0.40496 0.84283 0.0
H1051 H 0.45012 0.35841 0.8727 0.0
H1052 H 0.40838 0.40834 0.82513 0.0
C1053 C 0.42355 0.39499 0.7675 0.0
C1054 C 0.53561 0.40221 0.77117 0.0
N1055 N 0.48524 0.35032 0.74884 0.0
C1056 C 0.48672 0.35957 0.72468 0.0
C1057 C 0.49292 0.34339 0.70447 0.0
C1058 C 0.49787 0.31751 0.70931 0.0
C1059 C 0.49418 0.30815 0.73417 0.0
C1060 C 0.488 0.32504 0.75383 0.0
C1061 C 0.37526 0.33305 0.84515 0.0
O1062 O 0.49177 0.3469 0.81375 0.0
O1063 O 0.45946 0.32929 0.83435 0.0
O1064 O 0.41591 0.38048 0.78535 0.0
O1065 O 0.44712 0.39666 0.76188 0.0
O1066 O 0.53271 0.38296 0.78542 0.0
O1067 O 0.51574 0.4107 0.76024 0.0
O1068 O 0.37432 0.34867 0.82671 0.0
O1069 O 0.39712 0.32474 0.85116 0.0
H1070 H 0.48494 0.37986 0.72141 0.0
H1071 H 0.48698 0.31817 0.77323 0.0
H1072 H 0.49247 0.42475 0.87399 0.0
H1073 H 0.45419 0.46979 0.81651 0.0
H1074 H 0.41071 0.25463 0.78972 0.0
H1075 H 0.41937 0.30534 0.72537 0.0
H1076 H 0.40642 0.44037 0.85885 0.0
H1077 H 0.44905 0.3892 0.90769 0.0
H1078 H 0.49581 0.35148 0.68568 0.0
H1079 H 0.49748 0.28826 0.73864 0.0
Cd1080 Cd 0.71568 0.51407 0.88022 0.0
Cd1081 Cd 0.67555 0.58112 0.85367 0.0
C1082 C 0.69478 0.52515 0.93557 0.0
N1083 N 0.68536 0.51909 0.9122 0.0
C1084 C 0.64459 0.50935 0.93033 0.0
C1085 C 0.65406 0.51512 0.95474 0.0
C1086 C 0.67938 0.52344 0.95712 0.0
C1087 C 0.66083 0.51112 0.90918 0.0
H1088 H 0.71464 0.53024 0.93767 0.0
H1089 H 0.65412 0.50542 0.89052 0.0
C1090 C 0.66754 0.52018 0.83065 0.0
C1091 C 0.69381 0.5872 0.79763 0.0
C1092 C 0.70926 0.59219 0.77666 0.0
C1093 C 0.73575 0.58935 0.77881 0.0
C1094 C 0.74603 0.58 0.80174 0.0
C1095 C 0.72978 0.5755 0.82248 0.0
N1096 N 0.70428 0.57969 0.82009 0.0
H1097 H 0.67349 0.59058 0.79645 0.0
H1098 H 0.73762 0.56987 0.84072 0.0
C1099 C 0.6255 0.55831 0.87765 0.0
N1100 N 0.64833 0.56751 0.88573 0.0
C1101 C 0.63196 0.57355 0.9278 0.0
C1102 C 0.60752 0.56618 0.91941 0.0
C1103 C 0.6048 0.55735 0.89425 0.0
C1104 C 0.65215 0.57445 0.91043 0.0
H1105 H 0.62267 0.55387 0.85772 0.0
H1106 H 0.67028 0.5823 0.91626 0.0
C1107 C 0.72763 0.57731 0.89864 0.0
C1108 C 0.72648 0.46465 0.90038 0.0
N1109 N 0.74901 0.5153 0.85109 0.0
C1110 C 0.77314 0.51498 0.86056 0.0
C1111 C 0.79354 0.50786 0.84496 0.0
C1112 C 0.78882 0.50075 0.81956 0.0
C1113 C 0.76401 0.50341 0.8098 0.0
C1114 C 0.74422 0.51062 0.82604 0.0
C1115 C 0.64842 0.62676 0.84026 0.0
O1116 O 0.68383 0.51109 0.84612 0.0
O1117 O 0.6623 0.54377 0.83044 0.0
O1118 O 0.70953 0.58563 0.88483 0.0
O1119 O 0.73351 0.55374 0.89882 0.0
O1120 O 0.71081 0.46818 0.88232 0.0
O1121 O 0.73858 0.4841 0.90821 0.0
O1122 O 0.67024 0.62787 0.85065 0.0
O1123 O 0.6395 0.60473 0.83619 0.0
H1124 H 0.77626 0.51824 0.8807 0.0
H1125 H 0.72484 0.51066 0.81904 0.0
H1126 H 0.62513 0.5029 0.92777 0.0
H1127 H 0.68731 0.52836 0.97556 0.0
H1128 H 0.70068 0.59918 0.7592 0.0
H1129 H 0.76643 0.5777 0.80404 0.0
H1130 H 0.63513 0.57997 0.94717 0.0
H1131 H 0.58638 0.55193 0.88666 0.0
H1132 H 0.81235 0.50584 0.85326 0.0
H1133 H 0.75969 0.49834 0.79023 0.0
Cd1134 Cd 0.21139 0.98183 0.12099 0.0
Cd1135 Cd 0.17118 0.91364 0.14558 0.0
C1136 C 0.18934 0.96464 0.0669 0.0
N1137 N 0.18105 0.974 0.0896 0.0
C1138 C 0.13936 0.98095 0.07234 0.0
C1139 C 0.14719 0.97032 0.04902 0.0
C1140 C 0.17263 0.96237 0.04641 0.0
C1141 C 0.15674 0.98259 0.09254 0.0
H1142 H 0.20914 0.95965 0.06433 0.0
H1143 H 0.15094 0.99102 0.11046 0.0
C1144 C 0.16201 0.97431 0.16918 0.0
C1145 C 0.192 0.90658 0.20062 0.0
C1146 C 0.2086 0.90219 0.22084 0.0
C1147 C 0.23454 0.90803 0.21813 0.0
C1148 C 0.24297 0.91967 0.19552 0.0
C1149 C 0.22563 0.92346 0.17552 0.0
N1150 N 0.20083 0.91635 0.17833 0.0
H1151 H 0.17221 0.90099 0.2022 0.0
H1152 H 0.23221 0.93084 0.15745 0.0
C1153 C 0.12272 0.93478 0.11491 0.0
N1154 N 0.14535 0.92279 0.11083 0.0
C1155 C 0.13217 0.91016 0.0691 0.0
C1156 C 0.10831 0.92177 0.07293 0.0
C1157 C 0.10392 0.93471 0.09602 0.0
C1158 C 0.15047 0.91089 0.08838 0.0
H1159 H 0.11872 0.94317 0.13332 0.0
H1160 H 0.16813 0.90054 0.08599 0.0
C1161 C 0.22481 0.91895 0.10262 0.0
C1162 C 0.22011 0.0312 0.09995 0.0
N1163 N 0.2455 0.98171 0.14919 0.0
C1164 C 0.26912 0.97619 0.14007 0.0
C1165 C 0.29075 0.98225 0.15439 0.0
C1166 C 0.28797 0.99445 0.17811 0.0
C1167 C 0.26322 0.99829 0.18773 0.0
C1168 C 0.24213 0.99185 0.1728 0.0
C1169 C 0.14737 0.86665 0.16008 0.0
O1170 O 0.17915 0.98347 0.1547 0.0
O1171 O 0.15591 0.95092 0.16812 0.0
O1172 O 0.20634 0.90997 0.11549 0.0
O1173 O 0.2302 0.9426 0.10316 0.0
O1174 O 0.20516 0.02753 0.11858 0.0
O1175 O 0.23232 0.01195 0.09183 0.0
O1176 O 0.16896 0.86708 0.14922 0.0
O1177 O 0.13684 0.88801 0.1641 0.0
H1178 H 0.27124 0.96861 0.121 0.0
H1179 H 0.22314 0.99659 0.1793 0.0
H1180 H 0.11995 0.98742 0.0751 0.0
H1181 H 0.17975 0.95492 0.02851 0.0
H1182 H 0.20142 0.89338 0.2381 0.0
H1183 H 0.26291 0.92434 0.1928 0.0
H1184 H 0.13634 0.89976 0.05177 0.0
H1185 H 0.08562 0.94338 0.10009 0.0
H1186 H 0.30944 0.97863 0.14638 0.0
H1187 H 0.2601 0.00793 0.20573 0.0
Cd1188 Cd 0.28012 0.01601 0.61229 0.0
Cd1189 Cd 0.31728 0.08216 0.64324 0.0
C1190 C 0.31472 0.04253 0.56812 0.0
N1191 N 0.31441 0.02241 0.58445 0.0
C1192 C 0.34896 0.00273 0.56188 0.0
C1193 C 0.34951 0.02326 0.54472 0.0
C1194 C 0.33232 0.04347 0.54827 0.0
C1195 C 0.33115 0.00273 0.58178 0.0
H1196 H 0.30084 0.05752 0.56975 0.0
H1197 H 0.32996 0.98654 0.5945 0.0
C1198 C 0.32714 0.01926 0.66244 0.0
C1199 C 0.29966 0.08083 0.70002 0.0
C1200 C 0.28454 0.08358 0.72166 0.0
C1201 C 0.25783 0.083 0.71944 0.0
C1202 C 0.24711 0.07834 0.69523 0.0
C1203 C 0.26306 0.07592 0.67394 0.0
N1204 N 0.28878 0.07761 0.67676 0.0
H1205 H 0.32016 0.08266 0.70154 0.0
H1206 H 0.25489 0.0737 0.65513 0.0
C1207 C 0.36187 0.05322 0.61062 0.0
N1208 N 0.34605 0.07377 0.61059 0.0
C1209 C 0.37192 0.09476 0.57958 0.0
C1210 C 0.38959 0.07459 0.58044 0.0
C1211 C 0.38364 0.05307 0.59529 0.0
C1212 C 0.3502 0.09393 0.59489 0.0
H1213 H 0.35849 0.03751 0.62344 0.0
H1214 H 0.33766 0.11029 0.59582 0.0
C1215 C 0.26547 0.07968 0.59819 0.0
C1216 C 0.26723 0.96956 0.58697 0.0
N1217 N 0.24704 0.01621 0.64182 0.0
C1218 C 0.22306 0.01366 0.63229 0.0
C1219 C 0.20299 0.00643 0.64825 0.0
C1220 C 0.20783 0.00156 0.67415 0.0
C1221 C 0.2324 0.00631 0.68379 0.0
C1222 C 0.25189 0.0135 0.66715 0.0
C1223 C 0.34099 0.12842 0.66044 0.0
O1224 O 0.31139 0.00989 0.64656 0.0
O1225 O 0.33132 0.04308 0.66351 0.0
O1226 O 0.28329 0.08833 0.61218 0.0
O1227 O 0.26102 0.05587 0.59673 0.0
O1228 O 0.27764 0.96972 0.60877 0.0
O1229 O 0.26133 0.99105 0.57758 0.0
O1230 O 0.31935 0.12857 0.64964 0.0
O1231 O 0.35152 0.10688 0.66325 0.0
H1232 H 0.21992 0.01537 0.61197 0.0
H1233 H 0.27113 0.01538 0.67426 0.0
H1234 H 0.36191 0.98679 0.55974 0.0
H1235 H 0.3318 0.05947 0.53521 0.0
H1236 H 0.2938 0.08767 0.73967 0.0
H1237 H 0.22665 0.07741 0.69262 0.0
H1238 H 0.3757 0.11193 0.56878 0.0
H1239 H 0.39635 0.03681 0.59611 0.0
H1240 H 0.18442 0.00275 0.64 0.0
H1241 H 0.23682 0.00309 0.70371 0.0
Cd1242 Cd 0.8227 0.42033 0.3492 0.0
Cd1243 Cd 0.78636 0.48781 0.37855 0.0
C1244 C 0.87663 0.43889 0.3689 0.0
N1245 N 0.8535 0.43257 0.37869 0.0
C1246 C 0.87095 0.43087 0.42079 0.0
C1247 C 0.89536 0.43647 0.41108 0.0
C1248 C 0.8978 0.44109 0.38477 0.0
C1249 C 0.85023 0.42879 0.40415 0.0
H1250 H 0.87905 0.44055 0.34849 0.0
H1251 H 0.83185 0.42313 0.41149 0.0
C1252 C 0.77566 0.42482 0.39882 0.0
C1253 C 0.72902 0.47759 0.36008 0.0
C1254 C 0.70714 0.48179 0.34548 0.0
C1255 C 0.70937 0.49268 0.32107 0.0
C1256 C 0.73392 0.49682 0.31108 0.0
C1257 C 0.75527 0.49228 0.32632 0.0
N1258 N 0.75235 0.48364 0.35057 0.0
H1259 H 0.72725 0.4712 0.37961 0.0
H1260 H 0.77401 0.49745 0.31945 0.0
C1261 C 0.80579 0.47937 0.4349 0.0
N1262 N 0.81596 0.48376 0.41147 0.0
C1263 C 0.85712 0.49101 0.42995 0.0
C1264 C 0.847 0.48647 0.45436 0.0
C1265 C 0.82102 0.48045 0.45661 0.0
C1266 C 0.84105 0.48982 0.40859 0.0
H1267 H 0.78559 0.47579 0.43684 0.0
H1268 H 0.84847 0.49414 0.38983 0.0
C1269 C 0.83406 0.48127 0.3286 0.0
C1270 C 0.84488 0.37337 0.33162 0.0
N1271 N 0.7887 0.42643 0.32114 0.0
C1272 C 0.79599 0.42743 0.29632 0.0
C1273 C 0.77789 0.42664 0.27692 0.0
C1274 C 0.75187 0.42472 0.28302 0.0
C1275 C 0.74476 0.42507 0.30891 0.0
C1276 C 0.76363 0.42575 0.3278 0.0
C1277 C 0.775 0.53789 0.39632 0.0
O1278 O 0.79211 0.41565 0.38357 0.0
O1279 O 0.77036 0.4485 0.39903 0.0
O1280 O 0.81806 0.49001 0.34453 0.0
O1281 O 0.83867 0.45758 0.32729 0.0
O1282 O 0.83065 0.37393 0.35115 0.0
O1283 O 0.84833 0.39434 0.3202 0.0
O1284 O 0.79097 0.5337 0.37867 0.0
O1285 O 0.76283 0.51875 0.40474 0.0
H1286 H 0.81606 0.42747 0.29155 0.0
H1287 H 0.75819 0.42472 0.34762 0.0
H1288 H 0.86791 0.4274 0.44091 0.0
H1289 H 0.91618 0.4446 0.37606 0.0
H1290 H 0.68862 0.47798 0.35379 0.0
H1291 H 0.73662 0.50546 0.29252 0.0
H1292 H 0.87707 0.49572 0.42747 0.0
H1293 H 0.81251 0.47657 0.47504 0.0
H1294 H 0.78446 0.42588 0.25735 0.0
H1295 H 0.72492 0.42393 0.31452 0.0
H1296 H 0.00186 0.52771 0.38644 0.0
H1297 H 0.07116 0.5159 0.34331 0.0
H1298 H 0.01103 0.48876 0.41117 0.0
H1299 H 0.07996 0.47767 0.36769 0.0
H1300 H 0.06287 0.396 0.37883 0.0
H1301 H 0.04365 0.43585 0.36596 0.0
H1302 H 0.05908 0.46806 0.44002 0.0
H1303 H 0.07738 0.42723 0.45391 0.0
C1304 C 0.01916 0.51712 0.38253 0.0
C1305 C 0.03548 0.52451 0.36251 0.0
C1306 C 0.02435 0.49498 0.39666 0.0
C1307 C 0.04596 0.48027 0.3909 0.0
C1308 C 0.063 0.48862 0.37214 0.0
C1309 C 0.05783 0.51041 0.35809 0.0
C1310 C 0.0613 0.41097 0.39295 0.0
C1311 C 0.07221 0.40842 0.41733 0.0
C1312 C 0.0503 0.43388 0.38545 0.0
C1313 C 0.05018 0.45486 0.40197 0.0
C1314 C 0.05897 0.45197 0.42705 0.0
C1315 C 0.06981 0.42878 0.43476 0.0
H1316 H 0.45143 0.6004 0.88589 0.0
H1317 H 0.42913 0.56755 0.95828 0.0
H1318 H 0.47042 0.56014 0.87353 0.0
H1319 H 0.44704 0.52657 0.94477 0.0
H1320 H 0.50713 0.47001 0.88202 0.0
H1321 H 0.5019 0.50884 0.90802 0.0
H1322 H 0.42451 0.51613 0.88125 0.0
H1323 H 0.42968 0.47833 0.85501 0.0
C1324 C 0.45136 0.58504 0.89966 0.0
C1325 C 0.43803 0.58718 0.92287 0.0
C1326 C 0.46229 0.56191 0.89246 0.0
C1327 C 0.46002 0.54046 0.9082 0.0
C1328 C 0.44909 0.54303 0.93244 0.0
C1329 C 0.43848 0.56636 0.9399 0.0
C1330 C 0.48886 0.47964 0.88215 0.0
C1331 C 0.46883 0.47117 0.86635 0.0
C1332 C 0.48593 0.50173 0.897 0.0
C1333 C 0.4628 0.51514 0.89651 0.0
C1334 C 0.44245 0.50588 0.88192 0.0
C1335 C 0.44548 0.48428 0.86687 0.0
H1336 H 0.50532 0.96477 0.60956 0.0
H1337 H 0.57724 0.97174 0.64922 0.0
H1338 H 0.51875 0.99829 0.57974 0.0
H1339 H 0.5905 0.00465 0.61975 0.0
H1340 H 0.61784 0.05332 0.56015 0.0
H1341 H 0.6016 0.01246 0.57439 0.0
H1342 H 0.5271 0.04569 0.58556 0.0
H1343 H 0.54309 0.08647 0.57029 0.0
C1344 C 0.52406 0.97318 0.6117 0.0
C1345 C 0.5402 0.96567 0.63179 0.0
C1346 C 0.5317 0.99232 0.5947 0.0
C1347 C 0.55574 0.00387 0.59729 0.0
C1348 C 0.57204 0.99581 0.61695 0.0
C1349 C 0.56429 0.97713 0.63407 0.0
C1350 C 0.59774 0.05186 0.56459 0.0
C1351 C 0.58185 0.0735 0.5645 0.0
C1352 C 0.5885 0.02838 0.57297 0.0
C1353 C 0.56327 0.02607 0.58161 0.0
C1354 C 0.54668 0.04692 0.57907 0.0
C1355 C 0.55592 0.07042 0.5706 0.0
H1356 H 0.9013 0.93475 0.07053 0.0
H1357 H 0.9661 0.89085 0.09646 0.0
H1358 H 0.92245 0.97378 0.08349 0.0
H1359 H 0.98729 0.93018 0.10968 0.0
H1360 H 0.98525 0.99684 0.16974 0.0
H1361 H 0.97682 0.9584 0.14541 0.0
H1362 H 0.95827 0.00407 0.07934 0.0
H1363 H 0.96672 0.04272 0.10404 0.0
C1364 C 0.92035 0.93343 0.07838 0.0
C1365 C 0.93181 0.90961 0.08287 0.0
C1366 C 0.93254 0.95589 0.08574 0.0
C1367 C 0.95643 0.95504 0.09784 0.0
C1368 C 0.96867 0.93137 0.10079 0.0
C1369 C 0.95647 0.90887 0.09341 0.0
C1370 C 0.97954 0.99873 0.14997 0.0
C1371 C 0.97544 0.02288 0.13908 0.0
C1372 C 0.97509 0.97664 0.13588 0.0
C1373 C 0.96648 0.97819 0.11056 0.0
C1374 C 0.96446 0.00229 0.09898 0.0
C1375 C 0.9692 0.02442 0.11309 0.0
H1376 H 0.35937 0.98505 0.51013 0.0
H1377 H 0.37795 0.06285 0.52861 0.0
H1378 H 0.38304 0.98917 0.46976 0.0
H1379 H 0.40274 0.06656 0.48953 0.0
H1380 H 0.37896 0.04692 0.39319 0.0
H1381 H 0.36838 0.02546 0.43279 0.0
H1382 H 0.44273 0.04339 0.46291 0.0
H1383 H 0.45432 0.06353 0.4225 0.0
C1384 C 0.36936 0.00267 0.50608 0.0
C1385 C 0.36716 0.02368 0.52263 0.0
C1386 C 0.38285 0.00498 0.48307 0.0
C1387 C 0.39495 0.02805 0.47683 0.0
C1388 C 0.39406 0.04839 0.49416 0.0
C1389 C 0.37995 0.04632 0.51655 0.0
C1390 C 0.39362 0.04539 0.40764 0.0
C1391 C 0.4173 0.05776 0.40479 0.0
C1392 C 0.38747 0.03299 0.43039 0.0
C1393 C 0.40466 0.03306 0.45087 0.0
C1394 C 0.42914 0.04325 0.44734 0.0
C1395 C 0.43554 0.05516 0.42436 0.0
H1396 H 0.14357 0.92945 0.01735 0.0
H1397 H 0.11012 0.00343 0.0318 0.0
H1398 H 0.11632 0.9243 0.98028 0.0
H1399 H 0.083 0.99822 0.99375 0.0
H1400 H 0.03754 0.92219 0.93413 0.0
H1401 H 0.05131 0.93955 0.97513 0.0
H1402 H 0.11613 0.97447 0.93877 0.0
H1403 H 0.10388 0.956 0.8983 0.0
C1404 C 0.13028 0.94455 0.01277 0.0
C1405 C 0.12912 0.9669 0.02751 0.0
C1406 C 0.1146 0.94149 0.99164 0.0
C1407 C 0.0977 0.96085 0.98446 0.0
C1408 C 0.09583 0.98301 0.99928 0.0
C1409 C 0.11133 0.98593 0.0209 0.0
C1410 C 0.05457 0.93384 0.93468 0.0
C1411 C 0.07005 0.93677 0.91285 0.0
C1412 C 0.06206 0.94418 0.9581 0.0
C1413 C 0.08467 0.95826 0.95982 0.0
C1414 C 0.09841 0.96388 0.93764 0.0
C1415 C 0.09127 0.95319 0.91438 0.0
H1416 H 0.83712 0.50993 0.4998 0.0
H1417 H 0.8934 0.46407 0.46139 0.0
H1418 H 0.85868 0.50259 0.54035 0.0
H1419 H 0.91428 0.4553 0.5019 0.0
H1420 H 0.94876 0.44138 0.57827 0.0
H1421 H 0.93668 0.46554 0.54018 0.0
H1422 H 0.85826 0.46571 0.56573 0.0
H1423 H 0.87035 0.44229 0.60347 0.0
C1424 C 0.85431 0.49845 0.50002 0.0
C1425 C 0.86318 0.48682 0.47758 0.0
C1426 C 0.86661 0.49414 0.52325 0.0
C1427 C 0.88776 0.47767 0.52462 0.0
C1428 C 0.89804 0.46807 0.50173 0.0
C1429 C 0.88597 0.47285 0.47843 0.0
C1430 C 0.92902 0.44697 0.5758 0.0
C1431 C 0.91047 0.43974 0.59378 0.0
C1432 C 0.92209 0.4608 0.55401 0.0
C1433 C 0.89644 0.46747 0.54969 0.0
C1434 C 0.87827 0.46141 0.56848 0.0
C1435 C 0.8852 0.44782 0.59023 0.0
H1436 H 0.60583 0.53322 0.96156 0.0
H1437 H 0.66558 0.49216 -1e-05 0.0
H1438 H 0.58442 0.54062 0.00204 0.0
H1439 H 0.64331 0.49735 0.04043 0.0
H1440 H 0.62828 0.55546 0.10415 0.0
H1441 H 0.64135 0.53292 0.06631 0.0
H1442 H 0.56307 0.53086 0.04019 0.0
H1443 H 0.55012 0.55461 0.07828 0.0
C1444 C 0.61398 0.52526 0.97864 0.0
C1445 C 0.63786 0.5133 0.97784 0.0
C1446 C 0.60157 0.52912 0.00193 0.0
C1447 C 0.61255 0.52033 0.02482 0.0
C1448 C 0.63482 0.50538 0.0234 0.0
C1449 C 0.64754 0.50224 0.00022 0.0
C1450 C 0.6137 0.54966 0.09071 0.0
C1451 C 0.5882 0.55699 0.09412 0.0
C1452 C 0.62119 0.5365 0.0689 0.0
C1453 C 0.60333 0.53003 0.04992 0.0
C1454 C 0.57745 0.53595 0.05411 0.0
C1455 C 0.56999 0.54949 0.07592 0.0
H1456 H 0.42816 0.45727 0.06631 0.0
H1457 H 0.39781 0.38397 0.04359 0.0
H1458 H 0.4694 0.44552 0.04799 0.0
H1459 H 0.43839 0.37337 0.02397 0.0
H1460 H 0.5252 0.37652 0.98801 0.0
H1461 H 0.48512 0.40102 0.99111 0.0
H1462 H 0.48547 0.39083 0.07273 0.0
H1463 H 0.52414 0.36548 0.06962 0.0
C1464 C 0.42993 0.43905 0.05675 0.0
C1465 C 0.40986 0.42119 0.05737 0.0
C1466 C 0.45341 0.43261 0.04588 0.0
C1467 C 0.45684 0.4086 0.03467 0.0
C1468 C 0.43595 0.39213 0.03229 0.0
C1469 C 0.41266 0.39829 0.04363 0.0
C1470 C 0.5169 0.38001 0.00661 0.0
C1471 C 0.52781 0.36919 0.02863 0.0
C1472 C 0.49413 0.39399 0.00833 0.0
C1473 C 0.48264 0.3979 0.03218 0.0
C1474 C 0.49429 0.38828 0.0542 0.0
C1475 C 0.51641 0.37376 0.05241 0.0
H1476 H 0.99902 0.16133 0.99888 0.0
H1477 H 0.04134 0.10645 0.955 0.0
H1478 H 0.95953 0.13909 0.9889 0.0
H1479 H 0.00187 0.08528 0.94277 0.0
H1480 H 0.92634 0.04867 0.92564 0.0
H1481 H 0.96457 0.06202 0.94883 0.0
H1482 H 0.93459 0.13883 0.95279 0.0
H1483 H 0.89639 0.12512 0.93093 0.0
C1484 C -0.00016 0.14439 0.98707 0.0
C1485 C 0.02311 0.13611 0.97676 0.0
C1486 C 0.97719 0.13175 0.98112 0.0
C1487 C 0.97722 0.11096 0.9641 0.0
C1488 C 0.00086 0.10129 0.95577 0.0
C1489 C 0.02358 0.11356 0.96244 0.0
C1490 C 0.928 0.06833 0.93177 0.0
C1491 C 0.90844 0.08587 0.92653 0.0
C1492 C 0.94988 0.07602 0.94502 0.0
C1493 C 0.95284 0.10156 0.95284 0.0
C1494 C 0.93292 0.11887 0.94784 0.0
C1495 C 0.91097 0.11108 0.93506 0.0
H1496 H 0.5589 0.93403 0.40309 0.0
H1497 H 0.6049 0.91253 0.46822 0.0
H1498 H 0.52082 0.92175 0.42592 0.0
H1499 H 0.56644 0.89974 0.49087 0.0
H1500 H 0.50133 0.83748 0.49141 0.0
H1501 H 0.53896 0.86281 0.4824 0.0
H1502 H 0.49117 0.92692 0.46251 0.0
H1503 H 0.45333 0.90135 0.47183 0.0
C1504 C 0.56101 0.92747 0.42254 0.0
C1505 C 0.58528 0.92408 0.43357 0.0
C1506 C 0.53899 0.9204 0.43569 0.0
C1507 C 0.54063 0.90957 0.46012 0.0
C1508 C 0.56464 0.90766 0.47187 0.0
C1509 C 0.5867 0.9148 0.45875 0.0
C1510 C 0.4988 0.85707 0.4854 0.0
C1511 C 0.4743 0.86702 0.48093 0.0
C1512 C 0.52042 0.87174 0.48058 0.0
C1513 C 0.51803 0.89671 0.47122 0.0
C1514 C 0.49358 0.90753 0.46922 0.0
C1515 C 0.47191 0.89288 0.47441 0.0
H1516 H 0.96921 0.6295 0.57337 0.0
H1517 H 0.97587 0.62512 0.49141 0.0
H1518 H 0.00803 0.60462 0.57806 0.0
H1519 H 0.01612 0.60131 0.49628 0.0
H1520 H 0.09849 0.61872 0.55247 0.0
H1521 H 0.05776 0.62827 0.53281 0.0
H1522 H 0.02999 0.55361 0.55275 0.0
H1523 H 0.07164 0.54283 0.57084 0.0
C1524 C 0.97857 0.62262 0.55635 0.0
C1525 C 0.96932 0.62901 0.53205 0.0
C1526 C 0.00079 0.60838 0.55905 0.0
C1527 C 0.01475 0.60097 0.53752 0.0
C1528 C 0.00531 0.60655 0.51309 0.0
C1529 C 0.98242 0.62014 0.51037 0.0
C1530 C 0.08437 0.60371 0.5517 0.0
C1531 C 0.08836 0.58015 0.56399 0.0
C1532 C 0.06096 0.60929 0.54036 0.0
C1533 C 0.04094 0.59167 0.54139 0.0
C1534 C 0.04532 0.56741 0.55169 0.0
C1535 C 0.06902 0.56152 0.56247 0.0
H1536 H 0.99566 0.47064 0.61398 0.0
H1537 H 0.92099 0.47801 0.64814 0.0
H1538 H 0.98806 0.51005 0.58959 0.0
H1539 H 0.91359 0.51668 0.62383 0.0
H1540 H 0.93343 0.60007 0.62039 0.0
H1541 H 0.95008 0.55896 0.63291 0.0
H1542 H 0.94229 0.53148 0.55581 0.0
H1543 H 0.92656 0.57356 0.54246 0.0
C1544 C 0.97746 0.48022 0.61578 0.0
C1545 C 0.95906 0.47147 0.63328 0.0
C1546 C 0.97316 0.50263 0.60182 0.0
C1547 C 0.95038 0.51622 0.60517 0.0
C1548 C 0.93137 0.50646 0.62117 0.0
C1549 C 0.93569 0.48441 0.63515 0.0
C1550 C 0.93622 0.58588 0.60566 0.0
C1551 C 0.9282 0.59013 0.58042 0.0
C1552 C 0.94564 0.56222 0.61297 0.0
C1553 C 0.94715 0.54225 0.59532 0.0
C1554 C 0.94126 0.54679 0.56965 0.0
C1555 C 0.93197 0.57071 0.56219 0.0
H1556 H 0.49873 0.52958 0.11412 0.0
H1557 H 0.57387 0.51882 0.14636 0.0
H1558 H 0.50464 0.49082 0.0882 0.0
H1559 H 0.57965 0.48094 0.1204 0.0
H1560 H 0.55462 0.39837 0.1148 0.0
H1561 H 0.53673 0.43895 0.1271 0.0
H1562 H 0.55577 0.47046 0.05365 0.0
H1563 H 0.57245 0.42892 0.04012 0.0
C1564 C 0.51667 0.5194 0.1152 0.0
C1565 C 0.53574 0.52709 0.13251 0.0
C1566 C 0.52 0.49737 0.10037 0.0
C1567 C 0.54255 0.48318 0.10251 0.0
C1568 C 0.56211 0.49173 0.11854 0.0
C1569 C 0.5587 0.51333 0.13348 0.0
C1570 C 0.55396 0.41327 0.10054 0.0
C1571 C 0.56568 0.4103 0.07656 0.0
C1572 C 0.5437 0.43664 0.10777 0.0
C1573 C 0.54511 0.45762 0.09134 0.0
C1574 C 0.55444 0.45435 0.06652 0.0
C1575 C 0.56436 0.4307 0.05903 0.0
H1576 H 0.50277 0.0282 0.3832 0.0
H1577 H 0.42651 0.01878 0.35324 0.0
H1578 H 0.49596 0.99111 0.41123 0.0
H1579 H 0.41965 0.98302 0.38173 0.0
H1580 H 0.45494 0.89805 0.39693 0.0
H1581 H 0.47415 0.93832 0.38481 0.0
H1582 H 0.42981 0.97729 0.44195 0.0
H1583 H 0.41166 0.93673 0.45574 0.0
C1584 C 0.48444 0.01869 0.383 0.0
C1585 C 0.46516 0.02648 0.36599 0.0
C1586 C 0.48061 0.99762 0.39902 0.0
C1587 C 0.45722 0.98469 0.39865 0.0
C1588 C 0.43773 0.99301 0.38244 0.0
C1589 C 0.44176 0.01342 0.36605 0.0
C1590 C 0.45007 0.9148 0.40794 0.0
C1591 C 0.43096 0.91404 0.42683 0.0
C1592 C 0.46121 0.93791 0.40093 0.0
C1593 C 0.45331 0.96066 0.41245 0.0
C1594 C 0.43621 0.95982 0.43294 0.0
C1595 C 0.42544 0.93663 0.44037 0.0
H1596 H 0.04625 0.11177 0.89145 0.0
H1597 H 0.09053 0.06416 0.94234 0.0
H1598 H 0.02186 0.07508 0.87835 0.0
H1599 H 0.06826 0.02693 0.92665 0.0
H1600 H 0.02549 0.96099 0.89638 0.0
H1601 H 0.03369 -0.00017 0.92043 0.0
H1602 H 0.03088 0.04315 0.85022 0.0
H1603 H 0.02118 0.00494 0.82685 0.0
C1604 C 0.05082 0.09361 0.90007 0.0
C1605 C 0.07113 0.09108 0.91746 0.0
C1606 C 0.03698 0.07233 0.89215 0.0
C1607 C 0.04363 0.04777 0.90062 0.0
C1608 C 0.06256 0.04543 0.91949 0.0
C1609 C 0.07587 0.06686 0.92806 0.0
C1610 C 0.02627 0.97886 0.88619 0.0
C1611 C 0.02402 0.97954 0.85947 0.0
C1612 C 0.03108 0.0012 0.89999 0.0
C1613 C 0.03358 0.02474 0.88732 0.0
C1614 C 0.02908 0.02558 0.86088 0.0
C1615 C 0.02405 0.00339 0.84725 0.0
H1616 H 0.60491 0.96462 0.46206 0.0
H1617 H 0.66778 0.99728 0.50353 0.0
H1618 H 0.58367 0.95423 0.50206 0.0
H1619 H 0.6457 0.98945 0.54357 0.0
H1620 H 0.62749 0.92992 0.60392 0.0
H1621 H 0.64166 0.95313 0.56693 0.0
H1622 H 0.56359 0.95942 0.54075 0.0
H1623 H 0.54963 0.93455 0.57764 0.0
C1624 C 0.61389 0.96998 0.47981 0.0
C1625 C 0.63856 0.98026 0.47981 0.0
C1626 C 0.6016 0.96441 0.50283 0.0
C1627 C 0.61347 0.96988 0.52632 0.0
C1628 C 0.63657 0.98358 0.526 0.0
C1629 C 0.64919 0.9883 0.50304 0.0
C1630 C 0.61326 0.93664 0.59054 0.0
C1631 C 0.58745 0.9304 0.59373 0.0
C1632 C 0.62136 0.95024 0.56924 0.0
C1633 C 0.60385 0.95843 0.55058 0.0
C1634 C 0.57777 0.95309 0.55435 0.0
C1635 C 0.56971 0.93893 0.57554 0.0
H1636 H 0.9525 0.07191 0.06869 0.0
H1637 H 0.88128 0.054 0.10617 0.0
H1638 H 0.93695 0.05182 0.02977 0.0
H1639 H 0.86567 0.03459 0.06745 0.0
H1640 H 0.84125 0.99601 0.99698 0.0
H1641 H 0.86622 0.0027 0.03582 0.0
H1642 H 0.90671 0.06423 0.99861 0.0
H1643 H 0.88218 0.05666 0.96003 0.0
C1644 C 0.93366 0.06346 0.06876 0.0
C1645 C 0.91815 0.06472 0.09063 0.0
C1646 C 0.92473 0.05195 0.04643 0.0
C1647 C 0.89992 0.04182 0.0453 0.0
C1648 C 0.88502 0.04179 0.0676 0.0
C1649 C 0.89403 0.05303 0.08996 0.0
C1650 C 0.85588 0.01059 0.99713 0.0
C1651 C 0.85994 0.02594 0.97558 0.0
C1652 C 0.87011 0.01452 0.01933 0.0
C1653 C 0.88834 0.0342 0.02053 0.0
C1654 C 0.89318 0.04863 0.99842 0.0
C1655 C 0.87914 0.04442 0.97621 0.0
H1656 H 0.13429 0.57238 0.52421 0.0
H1657 H 0.11889 0.49162 0.52876 0.0
H1658 H 0.10741 0.57556 0.48668 0.0
H1659 H 0.09289 0.49473 0.48968 0.0
H1660 H 0.11085 0.54323 0.40041 0.0
H1661 H 0.12098 0.52427 0.44127 0.0
H1662 H 0.05099 0.55344 0.47285 0.0
H1663 H 0.03936 0.5709 0.43122 0.0
C1664 C 0.12473 0.55539 0.51756 0.0
C1665 C 0.12854 0.53182 0.52965 0.0
C1666 C 0.10931 0.55725 0.49607 0.0
C1667 C 0.09803 0.53543 0.48563 0.0
C1668 C 0.10116 0.51183 0.49781 0.0
C1669 C 0.11602 0.5101 0.52001 0.0
C1670 C 0.09675 0.54457 0.41541 0.0
C1671 C 0.0746 0.55953 0.41253 0.0
C1672 C 0.10267 0.53359 0.43892 0.0
C1673 C 0.0868 0.53759 0.46002 0.0
C1674 C 0.06342 0.55007 0.45668 0.0
C1675 C 0.05711 0.5605 0.43295 0.0
H1676 H 0.38696 0.49842 0.03036 0.0
H1677 H 0.34538 0.42883 0.01523 0.0
H1678 H 0.41232 0.49132 0.99144 0.0
H1679 H 0.37031 0.42218 0.97686 0.0
H1680 H 0.38335 0.44322 0.89581 0.0
H1681 H 0.36906 0.46033 0.93616 0.0
H1682 H 0.44243 0.44455 0.9697 0.0
H1683 H 0.45768 0.42824 0.92851 0.0
C1684 C 0.3835 0.48148 0.01907 0.0
C1685 C 0.36375 0.46447 0.02561 0.0
C1686 C 0.398 0.47749 0.9969 0.0
C1687 C 0.39286 0.45643 0.98122 0.0
C1688 C 0.37429 0.43874 0.98859 0.0
C1689 C 0.35993 0.44268 0.01048 0.0
C1690 C 0.39705 0.44437 0.9112 0.0
C1691 C 0.42161 0.43381 0.90888 0.0
C1692 C 0.3887 0.45409 0.93443 0.0
C1693 C 0.4046 0.45343 0.95589 0.0
C1694 C 0.42991 0.44524 0.95326 0.0
C1695 C 0.43844 0.43562 0.92981 0.0
H1696 H 0.56265 0.53867 0.92218 0.0
H1697 H 0.59966 0.60623 0.95185 0.0
H1698 H 0.52185 0.55394 0.93916 0.0
H1699 H 0.55934 0.62046 0.9695 0.0
H1700 H 0.48119 0.65076 0.93298 0.0
H1701 H 0.51847 0.6244 0.92554 0.0
H1702 H 0.50243 0.58136 0.99371 0.0
H1703 H 0.4646 0.60806 0.00161 0.0
C1704 C 0.56231 0.55635 0.93285 0.0
C1705 C 0.58443 0.57149 0.93509 0.0
C1706 C 0.53905 0.56479 0.94287 0.0
C1707 C 0.53775 0.58824 0.95557 0.0
C1708 C 0.56013 0.60214 0.95995 0.0
C1709 C 0.58325 0.59388 0.94982 0.0
C1710 C 0.48538 0.63569 0.94646 0.0
C1711 C 0.47011 0.63185 0.96817 0.0
C1712 C 0.50661 0.62051 0.94203 0.0
C1713 C 0.51316 0.60115 0.95916 0.0
C1714 C 0.4975 0.59626 0.98028 0.0
C1715 C 0.47597 0.61151 0.98473 0.0
H1716 H 0.9552 0.90142 0.03855 0.0
H1717 H 0.98908 0.85155 0.98302 0.0
H1718 H 0.99606 0.92263 0.04503 0.0
H1719 H 0.02994 0.87363 0.98793 0.0
H1720 H 0.09678 0.87841 0.04669 0.0
H1721 H 0.05843 0.86918 0.02295 0.0
H1722 H 0.03296 0.94689 0.03329 0.0
H1723 H 0.07179 0.95616 0.05745 0.0
C1724 C 0.97138 0.89558 0.0273 0.0
C1725 C 0.96939 0.87454 0.01103 0.0
C1726 C 0.99474 0.90792 0.0306 0.0
C1727 C 0.01655 0.89943 0.01743 0.0
C1728 C 0.01369 0.88021 0.99886 0.0
C1729 C 0.9903 0.86773 0.99582 0.0
C1730 C 0.08348 0.89383 0.04327 0.0
C1731 C 0.08718 0.91791 0.05441 0.0
C1732 C 0.06137 0.88854 0.02948 0.0
C1733 C 0.04234 0.90719 0.02642 0.0
C1734 C 0.04699 0.93193 0.03575 0.0
C1735 C 0.06916 0.93722 0.04965 0.0
H1736 H 0.43544 0.05828 0.59942 0.0
H1737 H 0.40243 0.099 0.53559 0.0
H1738 H 0.47785 0.07012 0.58479 0.0
H1739 H 0.44495 0.11038 0.52107 0.0
H1740 H 0.52959 0.11828 0.49818 0.0
H1741 H 0.49184 0.092 0.50728 0.0
H1742 H 0.49178 0.11926 0.58498 0.0
H1743 H 0.52902 0.14545 0.576 0.0
C1744 C 0.4371 0.06885 0.58176 0.0
C1745 C 0.41529 0.07759 0.56872 0.0
C1746 C 0.46145 0.07568 0.57349 0.0
C1747 C 0.46451 0.09109 0.55186 0.0
C1748 C 0.44301 0.09823 0.53767 0.0
C1749 C 0.41863 0.09181 0.54617 0.0
C1750 C 0.52177 0.11817 0.5173 0.0
C1751 C 0.53204 0.13399 0.53635 0.0
C1752 C 0.50024 0.10325 0.52245 0.0
C1753 C 0.48917 0.10358 0.54683 0.0
C1754 C 0.50018 0.11848 0.56611 0.0
C1755 C 0.5213 0.13364 0.56089 0.0
H1756 H 0.94039 0.46346 0.40748 0.0
H1757 H 0.90349 0.4043 0.45171 0.0
H1758 H 0.98135 0.45132 0.42606 0.0
H1759 H 0.94406 0.39386 0.47139 0.0
H1760 H 0.0284 0.36755 0.42338 0.0
H1761 H 0.99313 0.39646 0.41558 0.0
H1762 H 0.99196 0.41706 0.49522 0.0
H1763 H 0.02894 0.38903 0.50291 0.0
C1764 C 0.94077 0.4484 0.4216 0.0
C1765 C 0.91863 0.43427 0.42732 0.0
C1766 C 0.96416 0.44187 0.43256 0.0
C1767 C 0.96563 0.42177 0.4501 0.0
C1768 C 0.94321 0.40969 0.45812 0.0
C1769 C 0.91993 0.41571 0.44671 0.0
C1770 C 0.0213 0.37881 0.43912 0.0
C1771 C 0.03159 0.37618 0.4637 0.0
C1772 C 0.00116 0.39542 0.43461 0.0
C1773 C 0.99017 0.40904 0.45477 0.0
C1774 C 0.00054 0.40695 0.47937 0.0
C1775 C 0.02152 0.39093 0.48372 0.0
H1776 H 0.20803 0.41146 0.22748 0.0
H1777 H 0.28042 0.40385 0.26629 0.0
H1778 H 0.18633 0.39447 0.2652 0.0
H1779 H 0.25882 0.38751 0.30368 0.0
H1780 H 0.21139 0.37876 0.37473 0.0
H1781 H 0.2293 0.4003 0.33768 0.0
H1782 H 0.18434 0.35246 0.2879 0.0
H1783 H 0.16608 0.33105 0.32508 0.0
C1784 C 0.21928 0.40638 0.24404 0.0
C1785 C 0.24597 0.40922 0.24385 0.0
C1786 C 0.20687 0.39665 0.2656 0.0
C1787 C 0.22088 0.38972 0.2874 0.0
C1788 C 0.24743 0.39311 0.28737 0.0
C1789 C 0.2598 0.40263 0.26589 0.0
C1790 C 0.20526 0.37286 0.3559 0.0
C1791 C 0.1875 0.35304 0.35281 0.0
C1792 C 0.21554 0.38519 0.33468 0.0
C1793 C 0.20829 0.37802 0.30988 0.0
C1794 C 0.1901 0.35858 0.30678 0.0
C1795 C 0.17983 0.34617 0.32805 0.0
H1796 H 0.32676 0.67198 0.8267 0.0
H1797 H 0.31932 0.60148 0.86856 0.0
H1798 H 0.30845 0.65167 0.78914 0.0
H1799 H 0.30209 0.58074 0.83073 0.0
H1800 H 0.23949 0.56491 0.77119 0.0
H1801 H 0.26397 0.58049 0.80725 0.0
H1802 H 0.31346 0.62176 0.75581 0.0
H1803 H 0.28781 0.60756 0.71984 0.0
C1804 C 0.32158 0.65202 0.82773 0.0
C1805 C 0.32422 0.6384 0.85062 0.0
C1806 C 0.31127 0.64026 0.80612 0.0
C1807 C 0.30368 0.61451 0.80684 0.0
C1808 C 0.30723 0.6007 0.82957 0.0
C1809 C 0.31722 0.61255 0.85125 0.0
C1810 C 0.25563 0.57725 0.76754 0.0
C1811 C 0.26136 0.58529 0.74261 0.0
C1812 C 0.26993 0.58597 0.78825 0.0
C1813 C 0.29057 0.60271 0.78455 0.0
C1814 C 0.29735 0.60936 0.75945 0.0
C1815 C 0.28287 0.60084 0.73874 0.0
H1816 H 0.65872 0.16592 0.67176 0.0
H1817 H 0.69231 0.10669 0.62537 0.0
H1818 H 0.67495 0.14508 0.71012 0.0
H1819 H 0.70784 0.08547 0.66364 0.0
H1820 H 0.69339 0.09242 0.77643 0.0
H1821 H 0.67213 0.10814 0.73795 0.0
H1822 H 0.74054 0.09343 0.69439 0.0
H1823 H 0.76153 0.07778 0.73244 0.0
C1824 C 0.66933 0.14831 0.66979 0.0
C1825 C 0.6745 0.13811 0.64554 0.0
C1826 C 0.67845 0.13623 0.69178 0.0
C1827 C 0.69283 0.11365 0.68997 0.0
C1828 C 0.69723 0.10307 0.66571 0.0
C1829 C 0.68826 0.1152 0.64377 0.0
C1830 C 0.70374 0.09234 0.75855 0.0
C1831 C 0.72911 0.08371 0.75753 0.0
C1832 C 0.69161 0.10142 0.73653 0.0
C1833 C 0.70463 0.10209 0.71306 0.0
C1834 C 0.72973 0.09276 0.71199 0.0
C1835 C 0.74179 0.08369 0.73389 0.0
H1836 H 0.80818 0.88892 0.12559 0.0
H1837 H 0.82396 0.82292 0.17221 0.0
H1838 H 0.79002 0.91068 0.16239 0.0
H1839 H 0.80472 0.84411 0.20881 0.0
H1840 H 0.78313 0.89187 0.27567 0.0
H1841 H 0.80817 0.87666 0.23965 0.0
H1842 H 0.75333 0.90981 0.18771 0.0
H1843 H 0.7294 0.92647 0.22362 0.0
C1844 C 0.80761 0.879 0.14371 0.0
C1845 C 0.81733 0.85415 0.14599 0.0
C1846 C 0.79711 0.89144 0.16482 0.0
C1847 C 0.79574 0.87919 0.18867 0.0
C1848 C 0.80582 0.85439 0.19094 0.0
C1849 C 0.81664 0.8421 0.16988 0.0
C1850 C 0.77683 0.89658 0.25657 0.0
C1851 C 0.75404 0.91016 0.25259 0.0
C1852 C 0.79098 0.88746 0.23586 0.0
C1853 C 0.78259 0.89154 0.21067 0.0
C1854 C 0.76055 0.90633 0.20674 0.0
C1855 C 0.74658 0.91566 0.22741 0.0
H1856 H 0.32501 0.17509 0.32507 0.0
H1857 H 0.36684 0.17041 0.39586 0.0
H1858 H 0.28772 0.19037 0.34807 0.0
H1859 H 0.32918 0.18433 0.41921 0.0
H1860 H 0.27019 0.24435 0.44486 0.0
H1861 H 0.30587 0.22135 0.42655 0.0
H1862 H 0.25427 0.18141 0.37609 0.0
H1863 H 0.21891 0.20604 0.39287 0.0
C1864 C 0.32606 0.17696 0.34562 0.0
C1865 C 0.34886 0.17187 0.35864 0.0
C1866 C 0.30459 0.18548 0.35892 0.0
C1867 C 0.30532 0.18863 0.38561 0.0
C1868 C 0.32799 0.18264 0.39866 0.0
C1869 C 0.34957 0.17457 0.38529 0.0
C1870 C 0.26641 0.23059 0.42992 0.0
C1871 C 0.24169 0.22758 0.41998 0.0
C1872 C 0.28691 0.21709 0.41959 0.0
C1873 C 0.28312 0.19984 0.39937 0.0
C1874 C 0.25805 0.1951 0.39109 0.0
C1875 C 0.23761 0.20892 0.40112 0.0
H1876 H 0.13873 0.82051 0.89747 0.0
H1877 H 0.17951 0.83576 0.82747 0.0
H1878 H 0.17707 0.80115 0.91559 0.0
H1879 H 0.21776 0.81631 0.84564 0.0
H1880 H 0.25764 0.74105 0.87179 0.0
H1881 H 0.22416 0.76928 0.85639 0.0
H1882 H 0.22462 0.80933 0.92841 0.0
H1883 H 0.25871 0.78087 0.94386 0.0
C1884 C 0.15598 0.82008 0.88611 0.0
C1885 C 0.15605 0.82934 0.86093 0.0
C1886 C 0.17795 0.80919 0.89657 0.0
C1887 C 0.20027 0.80712 0.88194 0.0
C1888 C 0.2007 0.81752 0.85723 0.0
C1889 C 0.17883 0.82866 0.84687 0.0
C1890 C 0.25066 0.75595 0.8843 0.0
C1891 C 0.26045 0.75869 0.90907 0.0
C1892 C 0.23171 0.77226 0.87541 0.0
C1893 C 0.22192 0.79154 0.89117 0.0
C1894 C 0.2319 0.79457 0.91591 0.0
C1895 C 0.25131 0.77841 0.92472 0.0
H1896 H 0.71963 0.2862 0.60297 0.0
H1897 H 0.77226 0.23584 0.56436 0.0
H1898 H 0.75512 0.31233 0.61725 0.0
H1899 H 0.80779 0.26064 0.58039 0.0
H1900 H 0.86914 0.31488 0.60251 0.0
H1901 H 0.83203 0.29772 0.58047 0.0
H1902 H 0.78674 0.30907 0.64854 0.0
H1903 H 0.82357 0.32753 0.66992 0.0
C1904 C 0.73872 0.28085 0.59719 0.0
C1905 C 0.74305 0.25864 0.58279 0.0
C1906 C 0.75916 0.29563 0.60579 0.0
C1907 C 0.78444 0.28838 0.60048 0.0
C1908 C 0.78865 0.267 0.58483 0.0
C1909 C 0.76822 0.25248 0.57591 0.0
C1910 C 0.85114 0.31389 0.61262 0.0
C1911 C 0.84923 0.32233 0.63796 0.0
C1912 C 0.82988 0.30395 0.60005 0.0
C1913 C 0.80632 0.30174 0.61272 0.0
C1914 C 0.80437 0.31082 0.63794 0.0
C1915 C 0.82554 0.32121 0.65034 0.0
H1916 H 0.63242 0.68674 0.10895 0.0
H1917 H 0.67877 0.6606 0.17193 0.0
H1918 H 0.67037 0.70278 0.0876 0.0
H1919 H 0.71681 0.67721 0.15071 0.0
H1920 H 0.78298 0.69524 0.09713 0.0
H1921 H 0.74539 0.67276 0.1133 0.0
H1922 H 0.69878 0.73837 0.09576 0.0
H1923 H 0.73592 0.76074 0.08002 0.0
C1924 C 0.65073 0.6844 0.11824 0.0
C1925 C 0.65259 0.67268 0.14226 0.0
C1926 C 0.67247 0.69362 0.106 0.0
C1927 C 0.69656 0.69142 0.11754 0.0
C1928 C 0.69854 0.67897 0.14122 0.0
C1929 C 0.67674 0.66967 0.15347 0.0
C1930 C 0.76464 0.70473 0.09656 0.0
C1931 C 0.76249 0.72976 0.08716 0.0
C1932 C 0.74316 0.69188 0.10584 0.0
C1933 C 0.71913 0.7038 0.10581 0.0
C1934 C 0.7169 0.72846 0.09564 0.0
C1935 C 0.73828 0.74128 0.08649 0.0
H1936 H 0.43277 0.27129 0.26189 0.0
H1937 H 0.39451 0.21961 0.2103 0.0
H1938 H 0.41698 0.3073 0.23751 0.0
H1939 H 0.38022 0.25561 0.1848 0.0
H1940 H 0.32823 0.32475 0.17006 0.0
H1941 H 0.34891 0.28764 0.18879 0.0
H1942 H 0.41772 0.33171 0.20008 0.0
H1943 H 0.39651 0.36907 0.18244 0.0
C1944 C 0.42135 0.26758 0.24508 0.0
C1945 C 0.41458 0.24252 0.23837 0.0
C1946 C 0.41253 0.28828 0.23084 0.0
C1947 C 0.39699 0.28446 0.20929 0.0
C1948 C 0.39165 0.25932 0.20161 0.0
C1949 C 0.40024 0.23861 0.21603 0.0
C1950 C 0.34781 0.32643 0.17643 0.0
C1951 C 0.36066 0.34985 0.17504 0.0
C1952 C 0.3598 0.30508 0.18699 0.0
C1953 C 0.38504 0.3066 0.19607 0.0
C1954 C 0.39813 0.3299 0.19379 0.0
C1955 C 0.38602 0.35132 0.18357 0.0
H1956 H 0.8475 0.1656 0.85234 0.0
H1957 H 0.84632 0.13179 0.77724 0.0
H1958 H 0.86834 0.2034 0.83506 0.0
H1959 H 0.86574 0.16997 0.75962 0.0
H1960 H 0.91856 0.23056 0.73522 0.0
H1961 H 0.90355 0.19278 0.75685 0.0
H1962 H 0.8618 0.2398 0.81023 0.0
H1963 H 0.87891 0.27778 0.79007 0.0
C1964 C 0.85145 0.16642 0.83207 0.0
C1965 C 0.84534 0.14581 0.8161 0.0
C1966 C 0.86331 0.18812 0.82212 0.0
C1967 C 0.86891 0.18981 0.79591 0.0
C1968 C 0.8624 0.16919 0.77998 0.0
C1969 C 0.851 0.14735 0.79001 0.0
C1970 C 0.90688 0.23303 0.75206 0.0
C1971 C 0.89986 0.25745 0.76069 0.0
C1972 C 0.89777 0.2112 0.7642 0.0
C1973 C 0.88092 0.2131 0.78497 0.0
C1974 C 0.87477 0.23748 0.79433 0.0
C1975 C 0.88431 0.25936 0.78248 0.0
H1976 H 0.6049 0.71614 0.28944 0.0
H1977 H 0.56232 0.7675 0.24103 0.0
H1978 H 0.61878 0.75201 0.31535 0.0
H1979 H 0.57756 0.80349 0.26586 0.0
H1980 H 0.59903 0.86484 0.32078 0.0
H1981 H 0.57792 0.82693 0.3042 0.0
H1982 H 0.64887 0.78523 0.30986 0.0
H1983 H 0.66959 0.82287 0.32744 0.0
C1984 C 0.5981 0.73501 0.28456 0.0
C1985 C 0.58273 0.73893 0.26291 0.0
C1986 C 0.60642 0.75567 0.29921 0.0
C1987 C 0.59975 0.78075 0.29246 0.0
C1988 C 0.58306 0.78449 0.27176 0.0
C1989 C 0.57455 0.76383 0.25728 0.0
C1990 C 0.61002 0.84747 0.31872 0.0
C1991 C 0.63601 0.84686 0.32522 0.0
C1992 C 0.59795 0.82575 0.30911 0.0
C1993 C 0.61168 0.80299 0.30548 0.0
C1994 C 0.63754 0.80225 0.31274 0.0
C1995 C 0.64952 0.8239 0.32263 0.0
H1996 H 0.07141 0.72759 0.76866 0.0
H1997 H 0.10342 0.78032 0.71406 0.0
H1998 H 0.0865 0.69198 0.74318 0.0
H1999 H 0.11735 0.74462 0.68774 0.0
H2000 H 0.17169 0.67681 0.6719 0.0
H2001 H 0.15061 0.71356 0.69102 0.0
H2002 H 0.08354 0.66774 0.70514 0.0
H2003 H 0.10502 0.63083 0.68689 0.0
C2004 C 0.08125 0.73157 0.75094 0.0
C2005 C 0.08655 0.75679 0.74361 0.0
C2006 C 0.08969 0.71113 0.73614 0.0
C2007 C 0.10345 0.71539 0.71351 0.0
C2008 C 0.10726 0.74065 0.70532 0.0
C2009 C 0.09893 0.76113 0.72022 0.0
C2010 C 0.15239 0.67467 0.67895 0.0
C2011 C 0.14013 0.6509 0.67818 0.0
C2012 C 0.14018 0.69579 0.68972 0.0
C2013 C 0.11536 0.69363 0.69972 0.0
C2014 C 0.1028 0.67 0.69804 0.0
C2015 C 0.11509 0.64886 0.68751 0.0
H2016 H 0.77414 0.56397 0.75378 0.0
H2017 H 0.73458 0.63606 0.75721 0.0
H2018 H 0.79949 0.57978 0.71753 0.0
H2019 H 0.75976 0.65181 0.72148 0.0
H2020 H 0.8248 0.68041 0.67271 0.0
H2021 H 0.80596 0.66262 0.71142 0.0
H2022 H 0.78822 0.59313 0.67101 0.0
H2023 H 0.80696 0.61093 0.63215 0.0
C2024 C 0.77109 0.58321 0.74691 0.0
C2025 C 0.75234 0.59876 0.75804 0.0
C2026 C 0.78544 0.5922 0.7262 0.0
C2027 C 0.78159 0.61703 0.71679 0.0
C2028 C 0.76332 0.63271 0.72849 0.0
C2029 C 0.74878 0.62363 0.74878 0.0
C2030 C 0.81709 0.66126 0.67212 0.0
C2031 C 0.81712 0.64716 0.64933 0.0
C2032 C 0.8063 0.65111 0.69426 0.0
C2033 C 0.79559 0.62655 0.69415 0.0
C2034 C 0.79653 0.61203 0.67165 0.0
C2035 C 0.80706 0.62231 0.6494 0.0
H2036 H 0.67776 0.32805 0.17666 0.0
H2037 H 0.67461 0.40012 0.13701 0.0
H2038 H 0.69337 0.34957 0.2147 0.0
H2039 H 0.68894 0.42198 0.17543 0.0
H2040 H 0.75031 0.44419 0.23447 0.0
H2041 H 0.72645 0.42751 0.19854 0.0
H2042 H 0.6856 0.37686 0.2492 0.0
H2043 H 0.71096 0.3922 0.28485 0.0
C2044 C 0.67999 0.34858 0.17625 0.0
C2045 C 0.67528 0.36236 0.15381 0.0
C2046 C 0.68872 0.36102 0.19816 0.0
C2047 C 0.69254 0.38762 0.19826 0.0
C2048 C 0.68676 0.40146 0.176 0.0
C2049 C 0.67844 0.38895 0.15397 0.0
C2050 C 0.73615 0.42957 0.23799 0.0
C2051 C 0.73304 0.41916 0.2625 0.0
C2052 C 0.72216 0.42018 0.21735 0.0
C2053 C 0.70435 0.4004 0.22077 0.0
C2054 C 0.69965 0.39158 0.24568 0.0
C2055 C 0.71391 0.40074 0.26628 0.0
H2056 H 0.23943 0.86039 0.23701 0.0
H2057 H 0.27041 0.93633 0.24372 0.0
H2058 H 0.2668 0.84592 0.27166 0.0
H2059 H 0.29799 0.9218 0.27887 0.0
H2060 H 0.30833 0.88836 0.36296 0.0
H2061 H 0.28846 0.9056 0.32447 0.0
H2062 H 0.3136 0.83973 0.28194 0.0
H2063 H 0.33356 0.82247 0.32037 0.0
C2064 C 0.25227 0.87394 0.24588 0.0
C2065 C 0.25271 0.89949 0.23793 0.0
C2066 C 0.26808 0.86562 0.26555 0.0
C2067 C 0.28453 0.88273 0.27791 0.0
C2068 C 0.28539 0.90826 0.26967 0.0
C2069 C 0.26976 0.91653 0.2496 0.0
C2070 C 0.30985 0.87769 0.34532 0.0
C2071 C 0.32227 0.85393 0.34473 0.0
C2072 C 0.29867 0.88768 0.32327 0.0
C2073 C 0.29944 0.87396 0.30028 0.0
C2074 C 0.31259 0.85061 0.29948 0.0
C2075 C 0.32403 0.84076 0.32146 0.0
H2076 H 0.19314 0.11226 0.87081 0.0
H2077 H 0.17918 0.1798 0.82589 0.0
H2078 H 0.20906 0.09033 0.83316 0.0
H2079 H 0.19648 0.15848 0.78837 0.0
H2080 H 0.21362 0.1111 0.72002 0.0
H2081 H 0.19087 0.12735 0.75699 0.0
H2082 H 0.24427 0.08876 0.80663 0.0
H2083 H 0.26559 0.07083 0.76977 0.0
C2084 C 0.19373 0.1225 0.85287 0.0
C2085 C 0.1851 0.14779 0.85129 0.0
C2086 C 0.20297 0.10996 0.83125 0.0
C2087 C 0.20426 0.12257 0.80759 0.0
C2088 C 0.19539 0.1479 0.80607 0.0
C2089 C 0.18569 0.16027 0.82763 0.0
C2090 C 0.22004 0.1054 0.73881 0.0
C2091 C 0.24169 0.08983 0.74182 0.0
C2092 C 0.20725 0.11516 0.76009 0.0
C2093 C 0.21594 0.10986 0.78494 0.0
C2094 C 0.23681 0.09324 0.78791 0.0
C2095 C 0.24933 0.08319 0.76667 0.0
H2096 H 0.72306 0.74145 0.5605 0.0
H2097 H 0.77401 0.78674 0.60685 0.0
H2098 H 0.68675 0.76331 0.57904 0.0
H2099 H 0.73777 0.80999 0.62399 0.0
H2100 H 0.66813 0.81702 0.67672 0.0
H2101 H 0.70549 0.80126 0.65398 0.0
H2102 H 0.66217 0.80015 0.58374 0.0
H2103 H 0.62462 0.81465 0.60682 0.0
C2104 C 0.72656 0.75645 0.57426 0.0
C2105 C 0.75147 0.76196 0.58249 0.0
C2106 C 0.70569 0.76925 0.58472 0.0
C2107 C 0.70924 0.7882 0.60339 0.0
C2108 C 0.73427 0.79506 0.61016 0.0
C2109 C 0.75514 0.78201 0.59993 0.0
C2110 C 0.66668 0.81341 0.65642 0.0
C2111 C 0.64343 0.81674 0.6436 0.0
C2112 C 0.68815 0.80463 0.64328 0.0
C2113 C 0.68692 0.79938 0.61694 0.0
C2114 C 0.66375 0.80349 0.60406 0.0
C2115 C 0.64222 0.81187 0.61728 0.0
H2116 H 0.72474 0.21229 0.09694 0.0
H2117 H 0.77737 0.26924 0.06911 0.0
H2118 H 0.76047 0.18584 0.11027 0.0
H2119 H 0.81291 0.24388 0.08416 0.0
H2120 H 0.87546 0.19071 0.10468 0.0
H2121 H 0.83909 0.20832 0.08178 0.0
H2122 H 0.78962 0.18646 0.14412 0.0
H2123 H 0.82586 0.16763 0.16619 0.0
C2124 C 0.74391 0.21902 0.09327 0.0
C2125 C 0.74814 0.24313 0.08233 0.0
C2126 C 0.76445 0.20401 0.10132 0.0
C2127 C 0.78967 0.21288 0.09887 0.0
C2128 C 0.79386 0.23624 0.08636 0.0
C2129 C 0.77339 0.25103 0.078 0.0
C2130 C 0.85674 0.1895 0.11333 0.0
C2131 C 0.85349 0.17804 0.13731 0.0
C2132 C 0.83587 0.19968 0.10026 0.0
C2133 C 0.81132 0.19911 0.11112 0.0
C2134 C 0.80807 0.18695 0.13487 0.0
C2135 C 0.82889 0.17634 0.1477 0.0
H2136 H 0.13651 0.673 0.39858 0.0
H2137 H 0.17636 0.67149 0.32652 0.0
H2138 H 0.17464 0.68932 0.41948 0.0
H2139 H 0.21413 0.68904 0.34702 0.0
H2140 H 0.28405 0.70923 0.38937 0.0
H2141 H 0.24849 0.68321 0.37509 0.0
H2142 H 0.19733 0.72749 0.42225 0.0
H2143 H 0.23315 0.75213 0.43801 0.0
C2144 C 0.15346 0.67622 0.3872 0.0
C2145 C 0.15345 0.67116 0.36089 0.0
C2146 C 0.17531 0.68569 0.39916 0.0
C2147 C 0.19753 0.69072 0.38499 0.0
C2148 C 0.1976 0.68503 0.35871 0.0
C2149 C 0.17586 0.67516 0.34685 0.0
C2150 C 0.26537 0.71288 0.39739 0.0
C2151 C 0.26147 0.73307 0.41462 0.0
C2152 C 0.24485 0.6982 0.38881 0.0
C2153 C 0.21986 0.70354 0.39702 0.0
C2154 C 0.21623 0.72267 0.41549 0.0
C2155 C 0.2368 0.7371 0.42432 0.0
H2156 H 0.26435 0.26544 0.94953 0.0
H2157 H 0.2238 0.28084 0.8795 0.0
H2158 H 0.30144 0.28832 0.93298 0.0
H2159 H 0.26075 0.303 0.86275 0.0
H2160 H 0.32705 0.35265 0.84159 0.0
H2161 H 0.28885 0.33828 0.86396 0.0
H2162 H 0.33316 0.27985 0.9017 0.0
H2163 H 0.37133 0.29487 0.88013 0.0
C2164 C 0.26328 0.27399 0.93075 0.0
C2165 C 0.24119 0.27133 0.91583 0.0
C2166 C 0.28454 0.28695 0.92118 0.0
C2167 C 0.28424 0.29729 0.89638 0.0
C2168 C 0.26164 0.29566 0.88203 0.0
C2169 C 0.24037 0.28292 0.89167 0.0
C2170 C 0.32859 0.33684 0.85479 0.0
C2171 C 0.35214 0.32478 0.85898 0.0
C2172 C 0.3067 0.32855 0.86758 0.0
C2173 C 0.30784 0.30784 0.88464 0.0
C2174 C 0.33157 0.29612 0.88909 0.0
C2175 C 0.35346 0.30457 0.87651 0.0
H2176 H 0.55816 0.72442 0.74653 0.0
H2177 H 0.59834 0.77866 0.79381 0.0
H2178 H 0.57453 0.68974 0.7724 0.0
H2179 H 0.61341 0.74403 0.82078 0.0
H2180 H 0.66695 0.67508 0.83439 0.0
H2181 H 0.64476 0.71178 0.81654 0.0
H2182 H 0.57552 0.66729 0.81115 0.0
H2183 H 0.59812 0.63036 0.82792 0.0
C2184 C 0.57009 0.72899 0.76277 0.0
C2185 C 0.57728 0.75431 0.76777 0.0
C2186 C 0.57926 0.70907 0.77786 0.0
C2187 C 0.59563 0.71399 0.79856 0.0
C2188 C 0.60131 0.73948 0.80467 0.0
C2189 C 0.59231 0.75941 0.78941 0.0
C2190 C 0.64692 0.67327 0.82963 0.0
C2191 C 0.63435 0.6498 0.83223 0.0
C2192 C 0.63409 0.69437 0.81956 0.0
C2193 C 0.60832 0.69252 0.81219 0.0
C2194 C 0.59548 0.66931 0.81607 0.0
C2195 C 0.6084 0.64815 0.8258 0.0
H2196 H 0.09919 0.85944 0.17859 0.0
H2197 H 0.16952 0.81969 0.16221 0.0
H2198 H 0.08209 0.82088 0.19852 0.0
H2199 H 0.15242 0.78131 0.18225 0.0
H2200 H 0.12848 0.74195 0.25855 0.0
H2201 H 0.14244 0.77588 0.2301 0.0
H2202 H 0.07045 0.77233 0.19019 0.0
H2203 H 0.05648 0.73773 0.21882 0.0
C2204 C 0.11083 0.84237 0.1789 0.0
C2205 C 0.13581 0.84264 0.16914 0.0
C2206 C 0.10096 0.8203 0.19012 0.0
C2207 C 0.11602 0.79826 0.19201 0.0
C2208 C 0.1405 0.79816 0.18114 0.0
C2209 C 0.15026 0.8201 0.16967 0.0
C2210 C 0.11567 0.74837 0.24365 0.0
C2211 C 0.09136 0.73752 0.24095 0.0
C2212 C 0.12373 0.76758 0.22724 0.0
C2213 C 0.10756 0.77658 0.20792 0.0
C2214 C 0.08323 0.76564 0.20499 0.0
C2215 C 0.07528 0.74595 0.22124 0.0
H2216 H 0.31858 0.17486 0.66721 0.0
H2217 H 0.39028 0.13516 0.67587 0.0
H2218 H 0.3372 0.21267 0.68712 0.0
H2219 H 0.40892 0.17316 0.69555 0.0
H2220 H 0.43633 0.25666 0.71252 0.0
H2221 H 0.4194 0.22174 0.68598 0.0
H2222 H 0.35245 0.21817 0.7338 0.0
H2223 H 0.36938 0.25247 0.76023 0.0
C2224 C 0.3384 0.17433 0.67302 0.0
C2225 C 0.3529 0.15199 0.67023 0.0
C2226 C 0.34901 0.19593 0.68443 0.0
C2227 C 0.37444 0.19574 0.69289 0.0
C2228 C 0.38933 0.17383 0.68901 0.0
C2229 C 0.37859 0.15207 0.67794 0.0
C2230 C 0.41798 0.24837 0.71715 0.0
C2231 C 0.40421 0.25697 0.73845 0.0
C2232 C 0.40836 0.22846 0.7021 0.0
C2233 C 0.38459 0.21742 0.70784 0.0
C2234 C 0.37068 0.22652 0.72881 0.0
C2235 C 0.38045 0.24596 0.74403 0.0
H2236 H 0.86784 0.3652 0.28584 0.0
H2237 H 0.84962 0.32805 0.35705 0.0
H2238 H 0.88731 0.3262 0.27029 0.0
H2239 H 0.87024 0.28911 0.34199 0.0
H2240 H 0.87859 0.21675 0.29213 0.0
H2241 H 0.86412 0.25538 0.31313 0.0
H2242 H 0.9222 0.29852 0.27363 0.0
H2243 H 0.93527 0.26032 0.25106 0.0
C2244 C 0.86827 0.34872 0.2983 0.0
C2245 C 0.85707 0.34963 0.3226 0.0
C2246 C 0.87971 0.32637 0.2895 0.0
C2247 C 0.88058 0.30442 0.30492 0.0
C2248 C 0.86967 0.30549 0.32944 0.0
C2249 C 0.8579 0.32782 0.33812 0.0
C2250 C 0.88831 0.23447 0.2879 0.0
C2251 C 0.90773 0.2354 0.26939 0.0
C2252 C 0.8802 0.25665 0.30025 0.0
C2253 C 0.89161 0.28028 0.29473 0.0
C2254 C 0.91245 0.28081 0.27782 0.0
C2255 C 0.92029 0.25871 0.26518 0.0
H2256 H 0.21306 0.35684 0.47318 0.0
H2257 H 0.15821 0.3419 0.53288 0.0
H2258 H 0.23505 0.38696 0.50098 0.0
H2259 H 0.17944 0.37257 0.56018 0.0
H2260 H 0.22304 0.42256 0.61035 0.0
H2261 H 0.21512 0.38455 0.5848 0.0
H2262 H 0.22656 0.42864 0.51602 0.0
H2263 H 0.23561 0.46618 0.54163 0.0
C2264 C 0.2058 0.35986 0.49229 0.0
C2265 C 0.18374 0.34718 0.50075 0.0
C2266 C 0.21835 0.37719 0.5082 0.0
C2267 C 0.20897 0.38238 0.53279 0.0
C2268 C 0.18754 0.36881 0.54155 0.0
C2269 C 0.17517 0.35132 0.52578 0.0
C2270 C 0.22456 0.42389 0.58978 0.0
C2271 C 0.2296 0.44736 0.57794 0.0
C2272 C 0.21981 0.40218 0.57512 0.0
C2273 C 0.21959 0.40362 0.54832 0.0
C2274 C 0.22669 0.42669 0.53659 0.0
C2275 C 0.23181 0.44831 0.55128 0.0
H2276 H 0.29472 0.57659 0.11007 0.0
H2277 H 0.24332 0.54393 0.05455 0.0
H2278 H 0.30222 0.61254 0.08221 0.0
H2279 H 0.24988 0.58079 0.02689 0.0
H2280 H 0.30646 0.6201 0.97124 0.0
H2281 H 0.28463 0.59213 0.00085 0.0
H2282 H 0.29098 0.64946 0.05985 0.0
H2283 H 0.31401 0.67704 0.03033 0.0
C2284 C 0.28432 0.57752 0.09223 0.0
C2285 C 0.26886 0.55715 0.08426 0.0
C2286 C 0.2885 0.59833 0.07623 0.0
C2287 C 0.27706 0.59942 0.05198 0.0
C2288 C 0.25955 0.58023 0.04514 0.0
C2289 C 0.25559 0.55921 0.06108 0.0
C2290 C 0.30286 0.62691 0.99042 0.0
C2291 C 0.31237 0.65058 0.99859 0.0
C2292 C 0.29008 0.61093 0.00741 0.0
C2293 C 0.28618 0.61837 0.03292 0.0
C2294 C 0.29413 0.64285 0.04054 0.0
C2295 C 0.30728 0.6587 0.02361 0.0
H2296 H 0.67735 0.18112 0.46195 0.0
H2297 H 0.69815 0.12961 0.52286 0.0
H2298 H 0.69742 0.15266 0.43111 0.0
H2299 H 0.71713 0.10082 0.49216 0.0
H2300 H 0.75302 0.05124 0.4355 0.0
H2301 H 0.74805 0.08958 0.46142 0.0
H2302 H 0.68476 0.11307 0.41399 0.0
H2303 H 0.69047 0.07555 0.38768 0.0
C2304 C 0.68647 0.16389 0.4688 0.0
C2305 C 0.68578 0.15743 0.49481 0.0
C2306 C 0.69788 0.14752 0.45111 0.0
C2307 C 0.70858 0.12421 0.45903 0.0
C2308 C 0.70937 0.11868 0.48528 0.0
C2309 C 0.69825 0.13516 0.50295 0.0
C2310 C 0.73852 0.06498 0.43026 0.0
C2311 C 0.72188 0.06019 0.40982 0.0
C2312 C 0.73554 0.08688 0.44521 0.0
C2313 C 0.71569 0.10424 0.44014 0.0
C2314 C 0.7004 0.10033 0.41844 0.0
C2315 C 0.70355 0.07863 0.40339 0.0
H2316 H 0.84514 0.83995 0.96582 0.0
H2317 H 0.78981 0.85198 0.02568 0.0
H2318 H 0.82158 0.86859 0.93818 0.0
H2319 H 0.7654 0.87985 0.99757 0.0
H2320 H 0.77528 0.91509 0.88762 0.0
H2321 H 0.78548 0.87786 0.9135 0.0
H2322 H 0.76991 0.92144 0.98183 0.0
H2323 H 0.75846 0.95799 0.95589 0.0
C2324 C 0.8276 0.8483 0.97287 0.0
C2325 C 0.81951 0.84402 0.99802 0.0
C2326 C 0.81388 0.86458 0.95691 0.0
C2327 C 0.79153 0.87667 0.9656 0.0
C2328 C 0.78276 0.87127 0.99038 0.0
C2329 C 0.79671 0.85527 0.00648 0.0
C2330 C 0.77326 0.91636 0.90816 0.0
C2331 C 0.76641 0.93947 0.91979 0.0
C2332 C 0.77935 0.89513 0.92302 0.0
C2333 C 0.77923 0.89679 0.94981 0.0
C2334 C 0.77015 0.9193 0.96129 0.0
C2335 C 0.76361 0.94037 0.9464 0.0
H2336 H 0.60941 0.22374 0.41601 0.0
H2337 H 0.54254 0.23665 0.46228 0.0
H2338 H 0.58233 0.21399 0.37949 0.0
H2339 H 0.51545 0.22557 0.42641 0.0
H2340 H 0.46931 0.20867 0.35738 0.0
H2341 H 0.49779 0.23175 0.38599 0.0
H2342 H 0.55817 0.1783 0.36848 0.0
H2343 H 0.53012 0.15619 0.33909 0.0
C2344 C 0.5889 0.22493 0.41822 0.0
C2345 C 0.57806 0.23071 0.44202 0.0
C2346 C 0.57335 0.21906 0.39738 0.0
C2347 C 0.54664 0.21834 0.40006 0.0
C2348 C 0.53587 0.22606 0.42343 0.0
C2349 C 0.55143 0.23238 0.44412 0.0
C2350 C 0.4888 0.20211 0.35944 0.0
C2351 C 0.49743 0.1805 0.34616 0.0
C2352 C 0.50512 0.21528 0.37592 0.0
C2353 C 0.53031 0.20687 0.3798 0.0
C2354 C 0.53911 0.18573 0.36574 0.0
C2355 C 0.52292 0.17285 0.34899 0.0
H2356 H 0.9637 0.76158 0.96607 0.0
H2357 H 0.89627 0.76937 0.91938 0.0
H2358 H 0.99029 0.77008 0.92924 0.0
H2359 H 0.92296 0.77673 0.88201 0.0
H2360 H 0.97452 0.83547 0.84043 0.0
H2361 H 0.94635 0.81293 0.8694 0.0
H2362 H 0.00763 0.76124 0.8889 0.0
H2363 H 0.03616 0.78468 0.86068 0.0
C2364 C 0.95458 0.76416 0.9477 0.0
C2365 C 0.92792 0.76528 0.94568 0.0
C2366 C 0.96987 0.76895 0.92645 0.0
C2367 C 0.95879 0.77463 0.90265 0.0
C2368 C 0.93211 0.77315 0.90018 0.0
C2369 C 0.91681 0.76871 0.92154 0.0
C2370 C 0.98186 0.81904 0.85058 0.0
C2371 C 0.00764 0.81213 0.84865 0.0
C2372 C 0.96563 0.80591 0.86709 0.0
C2373 C 0.97474 0.78534 0.88176 0.0
C2374 C 0.00011 0.77733 0.87836 0.0
C2375 C 0.01644 0.7907 0.86213 0.0
H2376 H 0.10873 0.27678 0.57953 0.0
H2377 H 0.04073 0.2649 0.53459 0.0
H2378 H 0.08259 0.28351 0.6174 0.0
H2379 H 0.01458 0.2729 0.57187 0.0
H2380 H 0.96967 0.28698 0.64128 0.0
H2381 H 0.99841 0.26435 0.61259 0.0
H2382 H 0.05804 0.31865 0.63005 0.0
H2383 H 0.02973 0.34033 0.65952 0.0
C2384 C 0.0882 0.27514 0.57788 0.0
C2385 C 0.07671 0.27071 0.55409 0.0
C2386 C 0.07319 0.27921 0.59951 0.0
C2387 C 0.04642 0.2794 0.59763 0.0
C2388 C 0.03509 0.27277 0.5742 0.0
C2389 C 0.05011 0.26828 0.5527 0.0
C2390 C 0.98908 0.29376 0.63925 0.0
C2391 C 0.99738 0.31561 0.65234 0.0
C2392 C 0.00554 0.28085 0.62276 0.0
C2393 C 0.0305 0.28979 0.61869 0.0
C2394 C 0.03912 0.31089 0.6329 0.0
C2395 C 0.0228 0.32353 0.64968 0.0
H2396 H 0.47273 0.67874 0.17883 0.0
H2397 H 0.5309 0.68884 0.12135 0.0
H2398 H 0.44192 0.70023 0.15145 0.0
H2399 H 0.49998 0.7093 0.09357 0.0
H2400 H 0.44342 0.7509 0.04763 0.0
H2401 H 0.47237 0.74361 0.08337 0.0
H2402 H 0.41975 0.6882 0.11434 0.0
H2403 H 0.39061 0.69625 0.07943 0.0
C2404 C 0.47896 0.68569 0.1604 0.0
C2405 C 0.50415 0.6818 0.1521 0.0
C2406 C 0.46129 0.69795 0.14466 0.0
C2407 C 0.46832 0.70627 0.12013 0.0
C2408 C 0.49389 0.7035 0.11243 0.0
C2409 C 0.51163 0.69155 0.1283 0.0
C2410 C 0.43776 0.73772 0.0625 0.0
C2411 C 0.4149 0.72389 0.06054 0.0
C2412 C 0.45446 0.73335 0.08286 0.0
C2413 C 0.44868 0.71495 0.10153 0.0
C2414 C 0.42486 0.70265 0.10051 0.0
C2415 C 0.40813 0.70717 0.08033 0.0
H2416 H 0.45447 0.55373 0.25219 0.0
H2417 H 0.42467 0.60923 0.19906 0.0
H2418 H 0.4177 0.52638 0.24406 0.0
H2419 H 0.38876 0.58166 0.19011 0.0
H2420 H 0.3231 0.53033 0.17821 0.0
H2421 H 0.35095 0.55992 0.20086 0.0
H2422 H 0.40758 0.50044 0.20852 0.0
H2423 H 0.37943 0.4708 0.18694 0.0
C2424 C 0.43982 0.56031 0.23919 0.0
C2425 C 0.44266 0.58341 0.22594 0.0
C2426 C 0.41886 0.54456 0.23434 0.0
C2427 C 0.40052 0.55152 0.216 0.0
C2428 C 0.40235 0.57564 0.20446 0.0
C2429 C 0.42311 0.59146 0.20948 0.0
C2430 C 0.34138 0.52354 0.18506 0.0
C2431 C 0.34921 0.49833 0.1805 0.0
C2432 C 0.35736 0.5405 0.19801 0.0
C2433 C 0.38163 0.53267 0.20638 0.0
C2434 C 0.3889 0.50711 0.20277 0.0
C2435 C 0.37283 0.49011 0.19012 0.0
H2436 H 0.82135 0.9626 0.82711 0.0
H2437 H 0.87274 0.02453 0.80945 0.0
H2438 H 0.85087 0.93253 0.80748 0.0
H2439 H 0.90267 0.99449 0.79084 0.0
H2440 H 0.95106 0.9385 0.75065 0.0
H2441 H 0.91363 0.96515 0.7582 0.0
H2442 H 0.89045 0.91486 0.81932 0.0
H2443 H 0.92704 0.8879 0.81107 0.0
C2444 C 0.83891 0.9698 0.81894 0.0
C2445 C 0.84485 0.99589 0.82008 0.0
C2446 C 0.85587 0.95256 0.80775 0.0
C2447 C 0.87931 0.96099 0.79776 0.0
C2448 C 0.88468 0.98728 0.79796 0.0
C2449 C 0.86758 0.00454 0.80886 0.0
C2450 C 0.93757 0.93283 0.76524 0.0
C2451 C 0.94215 0.91128 0.78045 0.0
C2452 C 0.91624 0.94821 0.76973 0.0
C2453 C 0.8992 0.94243 0.78966 0.0
C2454 C 0.90295 0.91986 0.80366 0.0
C2455 C 0.92409 0.90442 0.79902 0.0
H2456 H 0.53524 0.04216 0.25902 0.0
H2457 H 0.57917 0.10942 0.27705 0.0
H2458 H 0.57207 0.01563 0.26777 0.0
H2459 H 0.61668 0.08299 0.28451 0.0
H2460 H 0.64075 0.96997 0.28269 0.0
H2461 H 0.613 -0.00011 0.26044 0.0
H2462 H 0.62824 0.05657 0.31848 0.0
H2463 H 0.6569 0.02712 0.33977 0.0
C2464 C 0.55309 0.05134 0.26394 0.0
C2465 C 0.55425 0.07779 0.26778 0.0
C2466 C 0.57435 0.03612 0.26887 0.0
C2467 C 0.59735 0.04708 0.27736 0.0
C2468 C 0.5991 0.07382 0.27875 0.0
C2469 C 0.57768 0.08901 0.27425 0.0
C2470 C 0.63846 0.98901 0.29037 0.0
C2471 C 0.65069 0.99614 0.31311 0.0
C2472 C 0.62248 0.00614 0.2777 0.0
C2473 C 0.618 0.0306 0.28778 0.0
C2474 C 0.6314 0.03809 0.30984 0.0
C2475 C 0.64773 0.02111 0.32224 0.0
H2476 H 0.12434 0.53045 0.6922 0.0
H2477 H 0.17854 0.47016 0.67739 0.0
H2478 H 0.0958 0.50009 0.71213 0.0
H2479 H 0.15038 0.43975 0.69849 0.0
H2480 H 0.07566 0.39254 0.69408 0.0
H2481 H 0.11197 0.42003 0.68667 0.0
H2482 H 0.08494 0.4716 0.74512 0.0
H2483 H 0.04773 0.44443 0.75167 0.0
C2484 C 0.13045 0.51078 0.69378 0.0
C2485 C 0.15349 0.50261 0.68283 0.0
C2486 C 0.11414 0.49333 0.70547 0.0
C2487 C 0.12063 0.46733 0.70678 0.0
C2488 C 0.14451 0.45951 0.69733 0.0
C2489 C 0.16069 0.47694 0.68531 0.0
C2490 C 0.0777 0.40947 0.70574 0.0
C2491 C 0.0586 0.41658 0.72312 0.0
C2492 C 0.09871 0.42522 0.70162 0.0
C2493 C 0.10126 0.44832 0.71501 0.0
C2494 C 0.08325 0.45428 0.73401 0.0
C2495 C 0.06202 0.43863 0.73792 0.0
H2496 H 0.80406 0.57956 0.3861 0.0
H2497 H 0.74444 0.55249 0.4361 0.0
H2498 H 0.8112 0.61565 0.4139 0.0
H2499 H 0.75072 0.58953 0.46356 0.0
H2500 H 0.80342 0.62604 0.52456 0.0
H2501 H 0.78322 0.59881 0.49312 0.0
H2502 H 0.80045 0.65391 0.43418 0.0
H2503 H 0.82182 0.68063 0.46567 0.0
C2504 C 0.79183 0.5818 0.40261 0.0
C2505 C 0.77407 0.56289 0.40921 0.0
C2506 C 0.79582 0.60269 0.41856 0.0
C2507 C 0.7819 0.60531 0.44135 0.0
C2508 C 0.76228 0.58773 0.44654 0.0
C2509 C 0.7585 0.56662 0.43069 0.0
C2510 C 0.80258 0.63252 0.50495 0.0
C2511 C 0.81459 0.65524 0.4975 0.0
C2512 C 0.79074 0.61699 0.48688 0.0
C2513 C 0.79031 0.62401 0.46097 0.0
C2514 C 0.80088 0.64762 0.45385 0.0
C2515 C 0.81309 0.66297 0.47189 0.0
H2516 H 0.75703 0.45125 0.94063 0.0
H2517 H 0.69733 0.42271 0.89153 0.0
H2518 H 0.75133 0.41462 0.96876 0.0
H2519 H 0.69075 0.38704 0.92 0.0
H2520 H 0.68143 0.32248 0.97247 0.0
H2521 H 0.7022 0.34914 0.94052 0.0
H2522 H 0.71955 0.40492 0.9988 0.0
H2523 H 0.69998 0.3778 0.03067 0.0
C2524 C 0.74304 0.43691 0.93558 0.0
C2525 C 0.72735 0.44007 0.9141 0.0
C2526 C 0.73959 0.41603 0.95182 0.0
C2527 C 0.72018 0.39809 0.94703 0.0
C2528 C 0.70601 0.40025 0.92435 0.0
C2529 C 0.70967 0.4209 0.90801 0.0
C2530 C 0.69012 0.34024 0.97846 0.0
C2531 C 0.68877 0.34821 0.00401 0.0
C2532 C 0.70196 0.35558 0.96014 0.0
C2533 C 0.71231 0.37941 0.96692 0.0
C2534 C 0.71216 0.3866 0.99279 0.0
C2535 C 0.70069 0.37111 0.01113 0.0
H2536 H 0.26183 0.96564 0.53551 0.0
H2537 H 0.27118 0.92047 0.60374 0.0
H2538 H 0.27159 0.92866 0.50952 0.0
H2539 H 0.2797 0.88291 0.5777 0.0
H2540 H 0.33855 0.84089 0.52745 0.0
H2541 H 0.31601 0.87075 0.55459 0.0
H2542 H 0.26406 0.88784 0.49279 0.0
H2543 H 0.28753 0.85865 0.4652 0.0
C2544 C 0.26503 0.94754 0.54493 0.0
C2545 C 0.26618 0.94601 0.57164 0.0
C2546 C 0.27056 0.92621 0.53 0.0
C2547 C 0.27698 0.90281 0.54148 0.0
C2548 C 0.27559 0.90079 0.56822 0.0
C2549 C 0.27047 0.92224 0.58316 0.0
C2550 C 0.3221 0.85075 0.51974 0.0
C2551 C 0.31504 0.8477 0.49409 0.0
C2552 C 0.30896 0.86776 0.53541 0.0
C2553 C 0.2882 0.8819 0.52591 0.0
C2554 C 0.28025 0.87768 0.50062 0.0
C2555 C 0.29364 0.8609 0.48482 0.0
H2556 H 0.19101 0.07293 0.10988 0.0
H2557 H 0.24921 0.04484 0.05875 0.0
H2558 H 0.18413 0.10928 0.08232 0.0
H2559 H 0.24314 0.08208 0.03148 0.0
H2560 H 0.19218 0.12359 0.97204 0.0
H2561 H 0.21084 0.09395 0.00238 0.0
H2562 H 0.19695 0.14767 0.06345 0.0
H2563 H 0.17715 0.1768 0.03312 0.0
C2564 C 0.20291 0.07493 0.09311 0.0
C2565 C 0.22036 0.0558 0.08627 0.0
C2566 C 0.19908 0.09595 0.0773 0.0
C2567 C 0.21283 0.09852 0.05441 0.0
C2568 C 0.23179 0.0804 0.04866 0.0
C2569 C 0.23544 0.05917 0.06439 0.0
C2570 C 0.19346 0.12921 0.99189 0.0
C2571 C 0.18284 0.15231 0.00029 0.0
C2572 C 0.20437 0.11229 0.00932 0.0
C2573 C 0.20523 0.11827 0.03549 0.0
C2574 C 0.19609 0.14217 0.04356 0.0
C2575 C 0.18481 0.15891 0.02618 0.0
H2576 H 0.52109 0.78334 0.64514 0.0
H2577 H 0.4634 0.8403 0.65975 0.0
H2578 H 0.49231 0.76166 0.61577 0.0
H2579 H 0.43515 0.81956 0.62954 0.0
H2580 H 0.38398 0.77862 0.57824 0.0
H2581 H 0.40911 0.78579 0.61672 0.0
H2582 H 0.47798 0.76929 0.57436 0.0
H2583 H 0.45274 0.76083 0.53656 0.0
C2584 C 0.50218 0.79113 0.64215 0.0
C2585 C 0.49458 0.81367 0.65449 0.0
C2586 C 0.48571 0.77878 0.62524 0.0
C2587 C 0.46144 0.78895 0.61993 0.0
C2588 C 0.45347 0.81084 0.63332 0.0
C2589 C 0.46978 0.82292 0.65055 0.0
C2590 C 0.40443 0.77579 0.57745 0.0
C2591 C 0.41645 0.76947 0.55437 0.0
C2592 C 0.41888 0.78015 0.59942 0.0
C2593 C 0.44568 0.77875 0.5986 0.0
C2594 C 0.45743 0.7704 0.57593 0.0
C2595 C 0.44293 0.76561 0.55411 0.0
H2596 H 0.03197 0.15743 0.16017 0.0
H2597 H 0.97365 0.21336 0.1442 0.0
H2598 H 0.06073 0.17895 0.13104 0.0
H2599 H 0.00291 0.23589 0.11599 0.0
H2600 H 0.0453 0.23904 0.03841 0.0
H2601 H 0.01892 0.22952 0.07515 0.0
H2602 H 0.08657 0.21316 0.11952 0.0
H2603 H 0.11286 0.22132 0.08204 0.0
C2604 C 0.02553 0.17474 0.15089 0.0
C2605 C 0.00045 0.18349 0.15416 0.0
C2606 C 0.04213 0.18729 0.1343 0.0
C2607 C 0.03419 0.20917 0.1209 0.0
C2608 C 0.00954 0.21879 0.12548 0.0
C2609 C 0.99278 0.20595 0.14174 0.0
C2610 C 0.05458 0.23408 0.0562 0.0
C2611 C 0.08108 0.23054 0.05728 0.0
C2612 C 0.03942 0.22866 0.07741 0.0
C2613 C 0.05051 0.22001 0.1003 0.0
C2614 C 0.07729 0.21898 0.10201 0.0
C2615 C 0.09241 0.22393 0.08063 0.0
H2616 H 0.0318 0.71135 0.35972 0.0
H2617 H 0.97189 0.65856 0.33955 0.0
H2618 H 0.00259 0.73371 0.38815 0.0
H2619 H 0.94312 0.67985 0.36885 0.0
H2620 H 0.89145 0.72212 0.41872 0.0
H2621 H 0.91832 0.7145 0.38155 0.0
H2622 H 0.98545 0.72559 0.42829 0.0
H2623 H 0.95856 0.73457 0.46481 0.0
C2624 C 0.01232 0.70463 0.36129 0.0
C2625 C 0.00418 0.68305 0.34767 0.0
C2626 C 0.99559 0.71736 0.37766 0.0
C2627 C 0.97051 0.70846 0.38116 0.0
C2628 C 0.96211 0.6876 0.36648 0.0
C2629 C 0.97869 0.67518 0.34977 0.0
C2630 C 0.91195 0.72363 0.42078 0.0
C2631 C 0.92295 0.72863 0.44468 0.0
C2632 C 0.92739 0.71902 0.39955 0.0
C2633 C 0.95413 0.71882 0.40194 0.0
C2634 C 0.96499 0.72575 0.42551 0.0
C2635 C 0.94955 0.73082 0.44659 0.0
H2636 H 0.53402 0.32293 0.82144 0.0
H2637 H 0.47317 0.30598 0.87437 0.0
H2638 H 0.56462 0.30315 0.85035 0.0
H2639 H 0.50369 0.28732 0.90365 0.0
H2640 H 0.56015 0.24944 0.95264 0.0
H2641 H 0.53323 0.25537 0.9151 0.0
H2642 H 0.58307 0.31576 0.88922 0.0
H2643 H 0.61033 0.30903 0.92589 0.0
C2644 C 0.52715 0.3148 0.83915 0.0
C2645 C 0.50123 0.3163 0.84577 0.0
C2646 C 0.54469 0.30354 0.85578 0.0
C2647 C 0.53674 0.29388 0.87953 0.0
C2648 C 0.51057 0.29419 0.88544 0.0
C2649 C 0.49301 0.30513 0.86869 0.0
C2650 C 0.56564 0.26351 0.93854 0.0
C2651 C 0.58715 0.279 0.94237 0.0
C2652 C 0.55013 0.26706 0.91713 0.0
C2653 C 0.55567 0.28635 0.8993 0.0
C2654 C 0.57823 0.30055 0.90232 0.0
C2655 C 0.59384 0.29682 0.92353 0.0
H2656 H 0.57859 0.3911 0.79791 0.0
H2657 H 0.54777 0.4451 0.74385 0.0
H2658 H 0.6144 0.41905 0.80575 0.0
H2659 H 0.58454 0.4728 0.75073 0.0
H2660 H 0.62273 0.53004 0.8063 0.0
H2661 H 0.59518 0.49989 0.78475 0.0
H2662 H 0.6518 0.44076 0.79499 0.0
H2663 H 0.67894 0.47089 0.81779 0.0
C2664 C 0.5799 0.40861 0.78704 0.0
C2665 C 0.56008 0.41615 0.77067 0.0
C2666 C 0.60064 0.42465 0.7914 0.0
C2667 C 0.60223 0.4485 0.77924 0.0
C2668 C 0.58359 0.45489 0.76096 0.0
C2669 C 0.56262 0.43892 0.75683 0.0
C2670 C 0.62951 0.51071 0.80362 0.0
C2671 C 0.65281 0.50273 0.81414 0.0
C2672 C 0.61376 0.49339 0.79099 0.0
C2673 C 0.62108 0.46772 0.78826 0.0
C2674 C 0.64526 0.46022 0.79723 0.0
C2675 C 0.66087 0.47749 0.81023 0.0
H2676 H 0.07688 0.10576 0.20284 0.0
H2677 H 0.04273 0.05194 0.25502 0.0
H2678 H 0.1116 0.07642 0.195 0.0
H2679 H 0.0783 0.02271 0.248 0.0
H2680 H 0.11585 0.96544 0.19148 0.0
H2681 H 0.08868 0.99605 0.21306 0.0
H2682 H 0.14794 0.05307 0.20688 0.0
H2683 H 0.17474 0.02259 0.18419 0.0
C2684 C 0.07722 0.08795 0.2133 0.0
C2685 C 0.05681 0.08097 0.22919 0.0
C2686 C 0.09731 0.0711 0.20892 0.0
C2687 C 0.09762 0.04693 0.22054 0.0
C2688 C 0.07836 0.04092 0.23826 0.0
C2689 C 0.05809 0.05776 0.24249 0.0
C2690 C 0.12326 0.98438 0.19508 0.0
C2691 C 0.14726 0.99173 0.18573 0.0
C2692 C 0.10773 0.00195 0.2077 0.0
C2693 C 0.11596 0.0272 0.21155 0.0
C2694 C 0.14074 0.03397 0.20376 0.0
C2695 C 0.15614 0.01648 0.19082 0.0
H2696 H 0.41822 0.89109 0.696 0.0
H2697 H 0.44719 0.94551 0.75067 0.0
H2698 H 0.38259 0.9189 0.68688 0.0
H2699 H 0.41059 0.9731 0.74244 0.0
H2700 H 0.37188 0.02982 0.68667 0.0
H2701 H 0.40002 5e-05 0.70813 0.0
H2702 H 0.34464 0.93989 0.69729 0.0
H2703 H 0.31696 0.96961 0.67463 0.0
C2704 C 0.41655 0.90869 0.70668 0.0
C2705 C 0.43576 0.91632 0.72372 0.0
C2706 C 0.39591 0.92465 0.70158 0.0
C2707 C 0.39381 0.94852 0.71362 0.0
C2708 C 0.41193 0.95514 0.73233 0.0
C2709 C 0.43279 0.93924 0.73724 0.0
C2710 C 0.36553 0.01032 0.68918 0.0
C2711 C 0.3424 0.00195 0.67859 0.0
C2712 C 0.38161 0.99323 0.70174 0.0
C2713 C 0.37477 0.96741 0.70431 0.0
C2714 C 0.3508 0.95948 0.69517 0.0
C2715 C 0.33489 0.97651 0.68225 0.0
H2716 H 0.92473 0.6102 0.30063 0.0
H2717 H 0.95362 0.5585 0.24333 0.0
H2718 H 0.88864 0.58239 0.30778 0.0
H2719 H 0.91663 0.53097 0.24965 0.0
H2720 H 0.8786 0.47177 0.30356 0.0
H2721 H 0.90637 0.50246 0.28294 0.0
H2722 H 0.85064 0.56183 0.29619 0.0
H2723 H 0.82332 0.53115 0.31795 0.0
C2724 C 0.92292 0.59327 0.28893 0.0
C2725 C 0.94229 0.58628 0.27179 0.0
C2726 C 0.90204 0.57732 0.29291 0.0
C2727 C 0.89988 0.55412 0.27963 0.0
C2728 C 0.91803 0.54837 0.26069 0.0
C2729 C 0.93912 0.56425 0.25689 0.0
C2730 C 0.87209 0.49129 0.30173 0.0
C2731 C 0.84899 0.49914 0.31278 0.0
C2732 C 0.88794 0.50892 0.28966 0.0
C2733 C 0.88091 0.53477 0.28806 0.0
C2734 C 0.85693 0.54221 0.29756 0.0
C2735 C 0.84123 0.52463 0.30998 0.0
H2736 H 0.22546 0.06922 0.56608 0.0
H2737 H 0.27434 0.13054 0.59164 0.0
H2738 H 0.20446 0.09847 0.53648 0.0
H2739 H 0.25325 0.15958 0.56231 0.0
H2740 H 0.22701 0.20047 0.49151 0.0
H2741 H 0.24892 0.16722 0.51575 0.0
H2742 H 0.17625 0.13633 0.53911 0.0
H2743 H 0.1544 0.16955 0.51536 0.0
C2744 C 0.23164 0.08892 0.56551 0.0
C2745 C 0.25154 0.09753 0.58131 0.0
C2746 C 0.21963 0.10564 0.54853 0.0
C2747 C 0.22739 0.13124 0.54689 0.0
C2748 C 0.24717 0.13985 0.56278 0.0
C2749 C 0.25905 0.12323 0.57982 0.0
C2750 C 0.21573 0.18643 0.50162 0.0
C2751 C 0.18896 0.1878 0.5016 0.0
C2752 C 0.22827 0.16743 0.51552 0.0
C2753 C 0.21428 0.14935 0.52955 0.0
C2754 C 0.18755 0.14984 0.52832 0.0
C2755 C 0.17503 0.16887 0.51456 0.0
H2756 H 0.26614 0.93009 0.07241 0.0
H2757 H 0.21546 0.86858 0.09356 0.0
H2758 H 0.28831 0.90149 0.04298 0.0
H2759 H 0.23773 0.84018 0.06453 0.0
H2760 H 0.26763 0.80007 0.99507 0.0
H2761 H 0.24462 0.83301 0.01867 0.0
H2762 H 0.31615 0.8637 0.04564 0.0
H2763 H 0.33908 0.83083 0.02235 0.0
C2764 C 0.25979 0.91049 0.07088 0.0
C2765 C 0.2391 0.90163 0.08546 0.0
C2766 C 0.27249 0.89413 0.05402 0.0
C2767 C 0.26464 0.86863 0.05127 0.0
C2768 C 0.24395 0.85983 0.06584 0.0
C2769 C 0.23137 0.87609 0.08273 0.0
C2770 C 0.27843 0.81401 0.00584 0.0
C2771 C 0.30519 0.81269 0.00693 0.0
C2772 C 0.26527 0.83284 0.01938 0.0
C2773 C 0.27857 0.85078 0.03425 0.0
C2774 C 0.30535 0.85032 0.03419 0.0
C2775 C 0.3185 0.83147 0.02073 0.0
H2776 H 0.71355 0.28804 0.46175 0.0
H2777 H 0.68375 0.34441 0.51393 0.0
H2778 H 0.73705 0.32084 0.4394 0.0
H2779 H 0.70787 0.37762 0.49159 0.0
H2780 H 0.72999 0.43118 0.4237 0.0
H2781 H 0.70834 0.40026 0.45118 0.0
H2782 H 0.77222 0.34876 0.44316 0.0
H2783 H 0.79318 0.379 0.41513 0.0
C2784 C 0.71253 0.30741 0.46888 0.0
C2785 C 0.69699 0.31356 0.48981 0.0
C2786 C 0.72603 0.3263 0.456 0.0
C2787 C 0.72452 0.35191 0.46377 0.0
C2788 C 0.70925 0.35811 0.48495 0.0
C2789 C 0.69555 0.33912 0.49782 0.0
C2790 C 0.73936 0.41327 0.42796 0.0
C2791 C 0.76303 0.4073 0.4169 0.0
C2792 C 0.72707 0.39563 0.44382 0.0
C2793 C 0.73839 0.37185 0.44912 0.0
C2794 C 0.76262 0.36656 0.43896 0.0
C2795 C 0.77468 0.38395 0.42292 0.0
H2796 H 0.71358 0.62591 0.91003 0.0
H2797 H 0.77237 0.57019 0.92532 0.0
H2798 H 0.7356 0.65664 0.93657 0.0
H2799 H 0.79503 0.60155 0.95152 0.0
H2800 H 0.81749 0.65963 0.01424 0.0
H2801 H 0.79403 0.62651 0.99101 0.0
H2802 H 0.77312 0.68189 0.93367 0.0
H2803 H 0.79605 0.71464 0.95679 0.0
C2804 C 0.73136 0.62024 0.91891 0.0
C2805 C 0.74136 0.59564 0.91525 0.0
C2806 C 0.74405 0.63796 0.93412 0.0
C2807 C 0.76729 0.63174 0.94596 0.0
C2808 C 0.77709 0.60693 0.94282 0.0
C2809 C 0.76421 0.58902 0.92767 0.0
C2810 C 0.80774 0.66466 0.99673 0.0
C2811 C 0.80831 0.68987 0.9876 0.0
C2812 C 0.79441 0.64568 0.98337 0.0
C2813 C 0.7815 0.65155 0.96055 0.0
C2814 C 0.78226 0.67676 0.95148 0.0
C2815 C 0.7954 0.69562 0.96481 0.0
H2816 H 0.54378 0.20532 0.21673 0.0
H2817 H 0.48772 0.18677 0.15931 0.0
H2818 H 0.56933 0.22714 0.18501 0.0
H2819 H 0.51316 0.20936 0.12729 0.0
H2820 H 0.57979 0.22856 0.07267 0.0
H2821 H 0.55247 0.2067 0.10355 0.0
H2822 H 0.57042 0.26421 0.15985 0.0
H2823 H 0.59822 0.28526 0.12959 0.0
C2824 C 0.5366 0.20644 0.19738 0.0
C2825 C 0.51355 0.1946 0.1906 0.0
C2826 C 0.55131 0.21895 0.17911 0.0
C2827 C 0.54329 0.22019 0.15354 0.0
C2828 C 0.52008 0.20852 0.14674 0.0
C2829 C 0.50541 0.19574 0.16507 0.0
C2830 C 0.57796 0.23638 0.0917 0.0
C2831 C 0.59145 0.25845 0.09874 0.0
C2832 C 0.56214 0.224 0.10934 0.0
C2833 C 0.55932 0.23359 0.13428 0.0
C2834 C 0.57253 0.2559 0.14105 0.0
C2835 C 0.58848 0.26805 0.12361 0.0
H2836 H 0.89905 0.71832 0.6274 0.0
H2837 H 0.92136 0.77491 0.57178 0.0
H2838 H 0.92618 0.73839 0.65896 0.0
H2839 H 0.94797 0.79577 0.60391 0.0
H2840 H 0.0115 0.81275 0.66193 0.0
H2841 H 0.98633 0.79141 0.62885 0.0
H2842 H 0.92759 0.7753 0.68445 0.0
H2843 H 0.9529 0.79583 0.71725 0.0
C2844 C 0.90948 0.73531 0.62199 0.0
C2845 C 0.90786 0.74515 0.5971 0.0
C2846 C 0.92504 0.74688 0.64016 0.0
C2847 C 0.93917 0.76884 0.63409 0.0
C2848 C 0.93759 0.77871 0.60916 0.0
C2849 C 0.92217 0.76691 0.59082 0.0
C2850 C 0.99329 0.80442 0.66699 0.0
C2851 C 0.98434 0.8056 0.69223 0.0
C2852 C 0.97878 0.79238 0.64806 0.0
C2853 C 0.95495 0.78152 0.65398 0.0
C2854 C 0.94609 0.78287 0.67926 0.0
C2855 C 0.96063 0.79464 0.69812 0.0
H2856 H 0.99334 0.32653 0.84282 0.0
H2857 H 0.02712 0.27864 0.78471 0.0
H2858 H 0.01857 0.30487 0.87515 0.0
H2859 H 0.05031 0.25562 0.81715 0.0
H2860 H 0.11445 0.24291 0.87238 0.0
H2861 H 0.08635 0.2635 0.84192 0.0
H2862 H 0.02729 0.26796 0.89938 0.0
H2863 H 0.05616 0.24836 0.9303 0.0
C2864 C 0.0058 0.31117 0.83691 0.0
C2865 C 0.00839 0.30476 0.81094 0.0
C2866 C 0.02005 0.29849 0.85557 0.0
C2867 C 0.03695 0.27879 0.84877 0.0
C2868 C 0.03812 0.2712 0.82307 0.0
C2869 C 0.02428 0.28415 0.8044 0.0
C2870 C 0.0955 0.24841 0.87853 0.0
C2871 C 0.08748 0.24402 0.90368 0.0
C2872 C 0.07923 0.25999 0.86099 0.0
C2873 C 0.05429 0.26704 0.86797 0.0
C2874 C 0.04639 0.26298 0.89333 0.0
C2875 C 0.0629 0.25174 0.91106 0.0
H2876 H 0.50721 0.73047 0.29941 0.0
H2877 H 0.48356 0.65913 0.33322 0.0
H2878 H 0.48338 0.75364 0.33208 0.0
H2879 H 0.46011 0.68224 0.36584 0.0
H2880 H 0.43204 0.73324 0.43079 0.0
H2881 H 0.46236 0.7117 0.40263 0.0
H2882 H 0.43723 0.75858 0.33973 0.0
H2883 H 0.40726 0.78019 0.36766 0.0
C2884 C 0.49721 0.71974 0.31396 0.0
C2885 C 0.49718 0.69294 0.31356 0.0
C2886 C 0.48355 0.733 0.33264 0.0
C2887 C 0.46964 0.71975 0.35137 0.0
C2888 C 0.47082 0.69301 0.35184 0.0
C2889 C 0.48437 0.67976 0.33313 0.0
C2890 C 0.433 0.73894 0.41095 0.0
C2891 C 0.41709 0.75835 0.40148 0.0
C2892 C 0.45037 0.72661 0.39484 0.0
C2893 C 0.45231 0.73357 0.369 0.0
C2894 C 0.43653 0.75308 0.35963 0.0
C2895 C 0.41913 0.76527 0.37563 0.0
H2896 H 0.07449 0.57418 0.22739 0.0
H2897 H 0.12658 0.58665 0.29006 0.0
H2898 H 0.10564 0.54576 0.20737 0.0
H2899 H 0.15699 0.55772 0.27078 0.0
H2900 H 0.2177 0.53282 0.21413 0.0
H2901 H 0.18543 0.55751 0.23607 0.0
H2902 H 0.12732 0.50526 0.2098 0.0
H2903 H 0.15994 0.48064 0.18722 0.0
C2904 C 0.09248 0.57074 0.23695 0.0
C2905 C 0.09819 0.58299 0.26011 0.0
C2906 C 0.11025 0.55428 0.22562 0.0
C2907 C 0.13396 0.54956 0.23735 0.0
C2908 C 0.13923 0.56132 0.26086 0.0
C2909 C 0.1217 0.57792 0.27198 0.0
C2910 C 0.19815 0.52618 0.2135 0.0
C2911 C 0.19145 0.50461 0.19909 0.0
C2912 C 0.17955 0.54043 0.22607 0.0
C2913 C 0.15368 0.53342 0.22477 0.0
C2914 C 0.147 0.51143 0.2109 0.0
C2915 C 0.16568 0.49722 0.19813 0.0
H2916 H 0.56576 0.92369 0.77319 0.0
H2917 H 0.62243 0.89765 0.71926 0.0
H2918 H 0.59787 0.95063 0.79369 0.0
H2919 H 0.65393 0.92508 0.73891 0.0
H2920 H 0.7111 0.95179 0.79744 0.0
H2921 H 0.67815 0.92693 0.77675 0.0
H2922 H 0.62427 0.98822 0.78849 0.0
H2923 H 0.65754 0.01309 0.80995 0.0
C2924 C 0.585 0.92376 0.76568 0.0
C2925 C 0.59157 0.90829 0.74478 0.0
C2926 C 0.60334 0.93938 0.77726 0.0
C2927 C 0.62855 0.93995 0.76805 0.0
C2928 C 0.63489 0.92474 0.74689 0.0
C2929 C 0.61672 0.90902 0.73554 0.0
C2930 C 0.69237 0.96023 0.79521 0.0
C2931 C 0.68703 0.98458 0.80499 0.0
C2932 C 0.6734 0.94591 0.78335 0.0
C2933 C 0.64854 0.95561 0.78074 0.0
C2934 C 0.64314 0.98007 0.79042 0.0
C2935 C 0.6622 0.99439 0.80254 0.0
H2936 H 0.83826 0.98744 0.3163 0.0
H2937 H 0.78179 0.0424 0.2924 0.0
H2938 H 0.87135 0.01199 0.29429 0.0
H2939 H 0.81454 0.06709 0.27113 0.0
H2940 H 0.87265 0.09392 0.21489 0.0
H2941 H 0.84157 0.06658 0.23534 0.0
H2942 H 0.89477 0.05155 0.29653 0.0
H2943 H 0.92653 0.07837 0.27533 0.0
C2944 C 0.83294 0.00469 0.30628 0.0
C2945 C 0.80739 0.01278 0.30575 0.0
C2946 C 0.85188 0.01885 0.29382 0.0
C2947 C 0.84563 0.04149 0.2808 0.0
C2948 C 0.82003 0.04947 0.28039 0.0
C2949 C 0.80118 0.03526 0.29258 0.0
C2950 C 0.87778 0.0849 0.23277 0.0
C2951 C 0.90202 0.08856 0.24363 0.0
C2952 C 0.85987 0.06922 0.24456 0.0
C2953 C 0.8655 0.05702 0.26775 0.0
C2954 C 0.88986 0.06044 0.27855 0.0
C2955 C 0.90799 0.07598 0.26654 0.0
H2956 H 0.34091 0.51386 0.68347 0.0
H2957 H 0.28444 0.45797 0.70501 0.0
H2958 H 0.37382 0.48889 0.70528 0.0
H2959 H 0.31704 0.43288 0.72608 0.0
H2960 H 0.37479 0.40466 0.78232 0.0
H2961 H 0.34364 0.43215 0.76212 0.0
H2962 H 0.39767 0.44977 0.7024 0.0
H2963 H 0.42945 0.4228 0.72337 0.0
C2964 C 0.33554 0.4963 0.69292 0.0
C2965 C 0.31002 0.48808 0.69282 0.0
C2966 C 0.35439 0.4819 0.70527 0.0
C2967 C 0.34813 0.45886 0.71756 0.0
C2968 C 0.32256 0.45077 0.71739 0.0
C2969 C 0.30378 0.46522 0.7053 0.0
C2970 C 0.38008 0.41428 0.76481 0.0
C2971 C 0.40458 0.4113 0.75432 0.0
C2972 C 0.36212 0.43005 0.75315 0.0
C2973 C 0.36797 0.44307 0.73045 0.0
C2974 C 0.39256 0.44027 0.72 0.0
C2975 C 0.41072 0.42463 0.73189 0.0
H2976 H 0.81443 0.83988 0.5112 0.0
H2977 H 0.79106 0.78312 0.4563 0.0
H2978 H 0.79116 0.87251 0.4872 0.0
H2979 H 0.76858 0.81545 0.43211 0.0
H2980 H 0.71111 0.87246 0.40563 0.0
H2981 H 0.73232 0.84172 0.43284 0.0
H2982 H 0.79232 0.8962 0.44793 0.0
H2983 H 0.77034 0.92757 0.4213 0.0
C2984 C 0.80426 0.8344 0.49407 0.0
C2985 C 0.80428 0.8089 0.48583 0.0
C2986 C 0.79108 0.85308 0.48022 0.0
C2987 C 0.77787 0.84665 0.45773 0.0
C2988 C 0.77796 0.82108 0.44963 0.0
C2989 C 0.79087 0.80247 0.46354 0.0
C2990 C 0.72886 0.87794 0.41468 0.0
C2991 C 0.73917 0.90241 0.41106 0.0
C2992 C 0.7411 0.86023 0.43027 0.0
C2993 C 0.76422 0.86631 0.44242 0.0
C2994 C 0.77442 0.89093 0.43909 0.0
C2995 C 0.76195 0.90884 0.42366 0.0
H2996 H 0.72935 0.20003 0.99905 0.0
H2997 H 0.65596 0.16808 0.97933 0.0
H2998 H 0.75041 0.16596 0.97529 0.0
H2999 H 0.67703 0.13396 0.95598 0.0
H3000 H 0.72576 0.0654 0.9309 0.0
H3001 H 0.70547 0.09616 0.95953 0.0
H3002 H 0.75341 0.15587 0.92924 0.0
H3003 H 0.77374 0.12536 0.9009 0.0
C3004 C 0.71772 0.18565 0.98986 0.0
C3005 C 0.69095 0.18693 0.991 0.0
C3006 C 0.72978 0.16615 0.97624 0.0
C3007 C 0.71536 0.14742 0.96356 0.0
C3008 C 0.68868 0.14797 0.96574 0.0
C3009 C 0.67661 0.16752 0.97923 0.0
C3010 C 0.73192 0.0851 0.93033 0.0
C3011 C 0.75132 0.0929 0.91352 0.0
C3012 C 0.7203 0.1027 0.94671 0.0
C3013 C 0.72799 0.1284 0.94678 0.0
C3014 C 0.74736 0.13614 0.92998 0.0
C3015 C 0.75883 0.11865 0.91352 0.0
H3016 H 0.27385 0.57559 0.57599 0.0
H3017 H 0.21397 0.62992 0.59205 0.0
H3018 H 0.29429 0.60665 0.54784 0.0
H3019 H 0.23365 0.6603 0.56338 0.0
H3020 H 0.29091 0.71912 0.53682 0.0
H3021 H 0.26961 0.68714 0.56238 0.0
H3022 H 0.29083 0.62913 0.50774 0.0
H3023 H 0.31288 0.66147 0.48223 0.0
C3024 C 0.26502 0.59409 0.57345 0.0
C3025 C 0.2425 0.6004 0.58655 0.0
C3026 C 0.27658 0.6118 0.55714 0.0
C3027 C 0.2657 0.63606 0.55342 0.0
C3028 C 0.24291 0.64205 0.56619 0.0
C3029 C 0.23157 0.62456 0.58264 0.0
C3030 C 0.2906 0.69965 0.52991 0.0
C3031 C 0.30331 0.69288 0.50731 0.0
C3032 C 0.2784 0.68124 0.54464 0.0
C3033 C 0.27837 0.65551 0.53711 0.0
C3034 C 0.29076 0.64872 0.51427 0.0
C3035 C 0.30321 0.66723 0.49956 0.0
H3036 H 0.22558 0.42617 0.07548 0.0
H3037 H 0.28765 0.37357 0.08873 0.0
H3038 H 0.20519 0.39483 0.04756 0.0
H3039 H 0.26802 0.34298 0.06025 0.0
H3040 H 0.21122 0.28254 0.03596 0.0
H3041 H 0.23302 0.315 0.06048 0.0
H3042 H 0.20745 0.37258 0.00729 0.0
H3043 H 0.18495 0.33974 0.98283 0.0
C3044 C 0.23493 0.40802 0.07233 0.0
C3045 C 0.25804 0.40225 0.08463 0.0
C3046 C 0.22338 0.39015 0.05615 0.0
C3047 C 0.23486 0.36626 0.05176 0.0
C3048 C 0.2583 0.36089 0.0636 0.0
C3049 C 0.26962 0.37853 0.07994 0.0
C3050 C 0.21069 0.30202 0.02909 0.0
C3051 C 0.19656 0.30851 0.00726 0.0
C3052 C 0.22318 0.32072 0.04323 0.0
C3053 C 0.2221 0.34647 0.03587 0.0
C3054 C 0.2084 0.35298 0.01371 0.0
C3055 C 0.19567 0.33418 -0.00041 0.0
H3056 H 0.50191 0.76996 0.80394 0.0
H3057 H 0.47387 0.84115 0.83459 0.0
H3058 H 0.47927 0.74683 0.83746 0.0
H3059 H 0.45157 0.8181 0.86805 0.0
H3060 H 0.42624 0.7682 0.93506 0.0
H3061 H 0.45531 0.79042 0.9061 0.0
H3062 H 0.43353 0.73946 0.84514 0.0
H3063 H 0.40488 0.71719 0.87385 0.0
C3064 C 0.49117 0.78068 0.81797 0.0
C3065 C 0.48959 0.80739 0.81645 0.0
C3066 C 0.4782 0.76745 0.83714 0.0
C3067 C 0.46342 0.78064 0.85524 0.0
C3068 C 0.46298 0.80739 0.85456 0.0
C3069 C 0.47587 0.82061 0.83537 0.0
C3070 C 0.42769 0.76175 0.91548 0.0
C3071 C 0.4131 0.741 0.90677 0.0
C3072 C 0.44433 0.77448 0.89891 0.0
C3073 C 0.44685 0.76657 0.87339 0.0
C3074 C 0.43238 0.74575 0.8648 0.0
C3075 C 0.41571 0.73316 0.88124 0.0
H3076 H 0.01065 0.16335 0.33578 0.0
H3077 H 0.00504 0.23379 0.29344 0.0
H3078 H 0.03506 0.18504 0.36882 0.0
H3079 H 0.02956 0.25552 0.32655 0.0
H3080 H 0.06578 0.23803 0.43167 0.0
H3081 H 0.0355 0.21822 0.4023 0.0
H3082 H 0.07481 0.2526 0.3386 0.0
H3083 H 0.10478 0.27259 0.36773 0.0
C3084 C 0.01397 0.18364 0.33388 0.0
C3085 C 0.0061 0.19682 0.31188 0.0
C3086 C 0.02806 0.19605 0.35279 0.0
C3087 C 0.03459 0.22188 0.35007 0.0
C3088 C 0.0253 0.23545 0.32888 0.0
C3089 C 0.0112 0.22305 0.30998 0.0
C3090 C 0.06803 0.24126 0.41139 0.0
C3091 C 0.08775 0.25688 0.40207 0.0
C3092 C 0.05066 0.22993 0.39459 0.0
C3093 C 0.05259 0.2341 0.36817 0.0
C3094 C 0.07248 0.24946 0.35889 0.0
C3095 C 0.08985 0.26068 0.37561 0.0
H3096 H 0.98683 0.66062 0.16601 0.0
H3097 H 0.00614 0.73239 0.20167 0.0
H3098 H 0.96336 0.68317 0.13306 0.0
H3099 H 0.9822 0.75499 0.16867 0.0
H3100 H 0.9064 0.77879 0.12996 0.0
H3101 H 0.93606 0.75815 0.15906 0.0
H3102 H 0.966 0.71317 0.09686 0.0
H3103 H 0.93607 0.73367 0.06762 0.0
C3104 C 0.9867 0.68126 0.16647 0.0
C3105 C 0.99832 0.69467 0.18662 0.0
C3106 C 0.9731 0.69419 0.14757 0.0
C3107 C 0.97068 0.72084 0.14841 0.0
C3108 C 0.98335 0.73439 0.16779 0.0
C3109 C 0.99708 0.72145 0.18666 0.0
C3110 C 0.91925 0.76448 0.12242 0.0
C3111 C 0.91871 0.75778 0.09644 0.0
C3112 C 0.93647 0.75285 0.13909 0.0
C3113 C 0.95349 0.73415 0.13024 0.0
C3114 C 0.95302 0.72744 0.10427 0.0
C3115 C 0.93588 0.73919 0.08753 0.0
H3116 H 0.53808 0.28537 0.71562 0.0
H3117 H 0.48662 0.31429 0.65815 0.0
H3118 H 0.56232 0.2633 0.68301 0.0
H3119 H 0.51079 0.2917 0.62524 0.0
H3120 H 0.57926 0.27438 0.57228 0.0
H3121 H 0.5515 0.29417 0.60405 0.0
H3122 H 0.56198 0.22912 0.65358 0.0
H3123 H 0.59026 0.20989 0.6224 0.0
C3124 C 0.53152 0.28645 0.69605 0.0
C3125 C 0.51032 0.30149 0.68951 0.0
C3126 C 0.54549 0.27381 0.67728 0.0
C3127 C 0.53859 0.27572 0.65142 0.0
C3128 C 0.51691 0.29015 0.64491 0.0
C3129 C 0.50296 0.30297 0.66376 0.0
C3130 C 0.57565 0.26438 0.58999 0.0
C3131 C 0.58726 0.24073 0.59493 0.0
C3132 C 0.55955 0.2756 0.60812 0.0
C3133 C 0.55455 0.2633 0.63146 0.0
C3134 C 0.56577 0.2394 0.63607 0.0
C3135 C 0.582 0.22833 0.61812 0.0
H3136 H 0.78288 0.45663 0.79335 0.0
H3137 H 0.83944 0.51298 0.81339 0.0
H3138 H 0.81529 0.4312 0.77243 0.0
H3139 H 0.87215 0.48781 0.79151 0.0
H3140 H 0.92806 0.42241 0.77409 0.0
H3141 H 0.89619 0.44931 0.79487 0.0
H3142 H 0.84148 0.42914 0.73652 0.0
H3143 H 0.87268 0.4015 0.7167 0.0
C3144 C 0.80221 0.4639 0.7927 0.0
C3145 C 0.80857 0.48695 0.80474 0.0
C3146 C 0.82087 0.44928 0.78069 0.0
C3147 C 0.84641 0.45744 0.7801 0.0
C3148 C 0.85275 0.48074 0.79187 0.0
C3149 C 0.83403 0.49528 0.80422 0.0
C3150 C 0.90915 0.42362 0.76586 0.0
C3151 C 0.90288 0.40963 0.74386 0.0
C3152 C 0.89094 0.43924 0.77761 0.0
C3153 C 0.86617 0.44141 0.76744 0.0
C3154 C 0.86013 0.42759 0.74527 0.0
C3155 C 0.87814 0.41176 0.73378 0.0
H3156 H 0.32838 0.01909 0.15622 0.0
H3157 H 0.29788 0.99687 0.22953 0.0
H3158 H 0.36168 0.04347 0.17741 0.0
H3159 H 0.33115 0.02163 0.25073 0.0
H3160 H 0.36855 0.09692 0.27536 0.0
H3161 H 0.33913 0.06795 0.25439 0.0
H3162 H 0.39982 0.04129 0.20549 0.0
H3163 H 0.42951 0.07057 0.22642 0.0
C3164 C 0.32912 0.01885 0.17687 0.0
C3165 C 0.31033 0.00608 0.19117 0.0
C3166 C 0.3482 0.03294 0.189 0.0
C3167 C 0.34887 0.03472 0.21572 0.0
C3168 C 0.33083 0.021 0.23007 0.0
C3169 C 0.3118 0.0068 0.21794 0.0
C3170 C 0.37571 0.08501 0.26006 0.0
C3171 C 0.40144 0.08617 0.25253 0.0
C3172 C 0.35885 0.06818 0.24823 0.0
C3173 C 0.3672 0.05213 0.22848 0.0
C3174 C 0.39282 0.05348 0.22063 0.0
C3175 C 0.4098 0.07026 0.23261 0.0
H3176 H 0.21563 0.96098 0.70531 0.0
H3177 H 0.15637 0.01118 0.6779 0.0
H3178 H 0.18422 0.93623 0.72843 0.0
H3179 H 0.12462 0.98658 0.70174 0.0
H3180 H 0.07304 0.91857 0.72504 0.0
H3181 H 0.10328 0.9458 0.70217 0.0
H3182 H 0.15709 0.93765 0.76413 0.0
H3183 H 0.12756 0.90992 0.78626 0.0
C3184 C 0.1959 0.96711 0.70474 0.0
C3185 C 0.18853 0.98824 0.69001 0.0
C3186 C 0.17782 0.95286 0.71799 0.0
C3187 C 0.15183 0.95944 0.71712 0.0
C3188 C 0.14442 0.98078 0.7026 0.0
C3189 C 0.16259 0.99497 0.68909 0.0
C3190 C 0.09139 0.92258 0.73365 0.0
C3191 C 0.09803 0.91176 0.75726 0.0
C3192 C 0.10864 0.93834 0.72067 0.0
C3193 C 0.13276 0.94378 0.73119 0.0
C3194 C 0.139 0.93342 0.75512 0.0
C3195 C 0.12197 0.91751 0.76787 0.0
H3196 H 0.56865 0.56946 0.27141 0.0
H3197 H 0.63012 0.59288 0.22167 0.0
H3198 H 0.59741 0.53938 0.2925 0.0
H3199 H 0.65865 0.56313 0.2428 0.0
H3200 H 0.69885 0.49254 0.26968 0.0
H3201 H 0.66559 0.51674 0.24775 0.0
H3202 H 0.63557 0.54137 0.3204 0.0
H3203 H 0.66881 0.5176 0.34227 0.0
C3204 C 0.58827 0.5683 0.26505 0.0
C3205 C 0.59708 0.58369 0.24492 0.0
C3206 C 0.60472 0.55106 0.27711 0.0
C3207 C 0.63023 0.54871 0.26915 0.0
C3208 C 0.63898 0.56412 0.24907 0.0
C3209 C 0.62266 0.58142 0.23715 0.0
C3210 C 0.68499 0.5029 0.28096 0.0
C3211 C 0.68665 0.50324 0.30773 0.0
C3212 C 0.66597 0.51678 0.26841 0.0
C3213 C 0.64816 0.53121 0.28236 0.0
C3214 C 0.64887 0.53029 0.30912 0.0
C3215 C 0.66793 0.51653 0.32166 0.0
loop_
_geom_bond_atom_site_label_1
_geom_bond_atom_site_label_2
_geom_bond_distance
_geom_bond_site_symmetry_2
_ccdc_geom_bond_type
Cd0 N3 2.334 . S
Cd0 N29 2.304 . S
Cd0 O36 2.268 . S
Cd0 O39 2.273 . S
Cd0 O40 2.417 . S
Cd0 O41 2.330 . S
Cd1 N16 2.304 . S
Cd1 N20 2.334 . S
Cd1 O37 2.273 . S
Cd1 O38 2.268 . S
Cd1 O42 2.417 . S
Cd1 O43 2.330 . S
C2 N3 1.332 . S
C2 C6 1.381 . S
C2 H8 0.931 . S
N3 Cd0 2.334 . S
N3 C2 1.332 . S
N3 C7 1.328 . S
C4 C5 1.396 . S
C4 C7 1.378 . S
C4 H46 0.931 . S
C5 C4 1.396 . S
C5 C6 1.382 . S
C6 C2 1.381 . S
C6 C5 1.382 . S
C6 H47 0.930 . S
C7 N3 1.328 . S
C7 C4 1.378 . S
C7 H9 0.930 . S
H8 C2 0.931 . S
H9 C7 0.930 . S
C10 O36 1.238 . S
C10 O37 1.253 . S
C11 C12 1.379 . S
C11 N16 1.337 . S
C11 H17 0.929 . S
C12 C11 1.379 . S
C12 C13 1.380 . S
C12 H48 0.929 . S
C13 C12 1.380 . S
C13 C14 1.399 . S
C14 C13 1.399 . S
C14 C15 1.376 . S
C14 H49 0.931 . S
C15 C14 1.376 . S
C15 N16 1.338 . S
C15 H18 0.930 . S
N16 Cd1 2.304 . S
N16 C11 1.337 . S
N16 C15 1.338 . S
H17 C11 0.929 . S
H18 C15 0.930 . S
C19 N20 1.332 . S
C19 C23 1.381 . S
C19 H25 0.931 . S
N20 Cd1 2.334 . S
N20 C19 1.332 . S
N20 C24 1.328 . S
C21 C22 1.396 . S
C21 C24 1.378 . S
C21 H50 0.931 . S
C22 C21 1.396 . S
C22 C23 1.382 . S
C23 C19 1.381 . S
C23 C22 1.382 . S
C23 H51 0.930 . S
C24 N20 1.328 . S
C24 C21 1.378 . S
C24 H26 0.930 . S
H25 C19 0.931 . S
H26 C24 0.930 . S
C27 O38 1.238 . S
C27 O39 1.253 . S
C28 O40 1.239 . S
C28 O41 1.230 . S
N29 Cd0 2.304 . S
N29 C30 1.337 . S
N29 C34 1.338 . S
C30 N29 1.337 . S
C30 C31 1.379 . S
C30 H44 0.929 . S
C31 C30 1.379 . S
C31 C32 1.380 . S
C31 H52 0.929 . S
C32 C31 1.380 . S
C32 C33 1.399 . S
C33 C32 1.399 . S
C33 C34 1.376 . S
C33 H53 0.931 . S
C34 N29 1.338 . S
C34 C33 1.376 . S
C34 H45 0.930 . S
C35 O42 1.239 . S
C35 O43 1.230 . S
O36 Cd0 2.268 . S
O36 C10 1.238 . S
O37 Cd1 2.273 . S
O37 C10 1.253 . S
O38 Cd1 2.268 . S
O38 C27 1.238 . S
O39 Cd0 2.273 . S
O39 C27 1.253 . S
O40 Cd0 2.417 . S
O40 C28 1.239 . S
O41 Cd0 2.330 . S
O41 C28 1.230 . S
O42 Cd1 2.417 . S
O42 C35 1.239 . S
O43 Cd1 2.330 . S
O43 C35 1.230 . S
H44 C30 0.929 . S
H45 C34 0.930 . S
H46 C4 0.931 . S
H47 C6 0.930 . S
H48 C12 0.929 . S
H49 C14 0.931 . S
H50 C21 0.931 . S
H51 C23 0.930 . S
H52 C31 0.929 . S
H53 C33 0.931 . S
Cd54 N57 2.334 . S
Cd54 N83 2.304 . S
Cd54 O90 2.268 . S
Cd54 O93 2.273 . S
Cd54 O94 2.417 1_556 S
Cd54 O95 2.330 1_556 S
Cd55 N70 2.304 . S
Cd55 N74 2.334 . S
Cd55 O91 2.273 . S
Cd55 O92 2.268 . S
Cd55 O96 2.417 . S
Cd55 O97 2.330 . S
C56 N57 1.332 . S
C56 C60 1.381 . S
C56 H62 0.931 . S
N57 Cd54 2.334 . S
N57 C56 1.332 . S
N57 C61 1.328 . S
C58 C59 1.396 . S
C58 C61 1.378 . S
C58 H100 0.931 . S
C59 C58 1.396 . S
C59 C60 1.382 . S
C60 C56 1.381 . S
C60 C59 1.382 . S
C60 H101 0.930 . S
C61 N57 1.328 . S
C61 C58 1.378 . S
C61 H63 0.930 . S
H62 C56 0.931 . S
H63 C61 0.930 . S
C64 O90 1.238 . S
C64 O91 1.253 . S
C65 C66 1.379 . S
C65 N70 1.337 . S
C65 H71 0.929 . S
C66 C65 1.379 . S
C66 C67 1.380 . S
C66 H102 0.929 . S
C67 C66 1.380 . S
C67 C68 1.399 . S
C68 C67 1.399 . S
C68 C69 1.376 . S
C68 H103 0.931 . S
C69 C68 1.376 . S
C69 N70 1.338 . S
C69 H72 0.930 . S
N70 Cd55 2.304 . S
N70 C65 1.337 . S
N70 C69 1.338 . S
H71 C65 0.929 . S
H72 C69 0.930 . S
C73 N74 1.332 . S
C73 C77 1.381 . S
C73 H79 0.931 . S
N74 Cd55 2.334 . S
N74 C73 1.332 . S
N74 C78 1.328 . S
C75 C76 1.396 . S
C75 C78 1.378 . S
C75 H104 0.931 . S
C76 C75 1.396 . S
C76 C77 1.382 . S
C77 C73 1.381 . S
C77 C76 1.382 . S
C77 H105 0.930 . S
C78 N74 1.328 . S
C78 C75 1.378 . S
C78 H80 0.930 . S
H79 C73 0.931 . S
H80 C78 0.930 . S
C81 O92 1.238 . S
C81 O93 1.253 . S
C82 O94 1.239 . S
C82 O95 1.230 . S
N83 Cd54 2.304 . S
N83 C84 1.337 . S
N83 C88 1.338 1_556 S
C84 N83 1.337 . S
C84 C85 1.379 . S
C84 H98 0.929 . S
C85 C84 1.379 . S
C85 C86 1.380 1_556 S
C85 H106 0.929 . S
C86 C85 1.380 1_554 S
C86 C87 1.399 . S
C87 C86 1.399 . S
C87 C88 1.376 . S
C87 H107 0.931 . S
C88 N83 1.338 1_554 S
C88 C87 1.376 . S
C88 H99 0.930 . S
C89 O96 1.239 . S
C89 O97 1.230 . S
O90 Cd54 2.268 . S
O90 C64 1.238 . S
O91 Cd55 2.273 . S
O91 C64 1.253 . S
O92 Cd55 2.268 . S
O92 C81 1.238 . S
O93 Cd54 2.273 . S
O93 C81 1.253 . S
O94 Cd54 2.417 1_554 S
O94 C82 1.239 . S
O95 Cd54 2.330 1_554 S
O95 C82 1.230 . S
O96 Cd55 2.417 . S
O96 C89 1.239 . S
O97 Cd55 2.330 . S
O97 C89 1.230 . S
H98 C84 0.929 . S
H99 C88 0.930 . S
H100 C58 0.931 . S
H101 C60 0.930 . S
H102 C66 0.929 . S
H103 C68 0.931 . S
H104 C75 0.931 . S
H105 C77 0.930 . S
H106 C85 0.929 . S
H107 C87 0.931 . S
Cd108 N111 2.334 . S
Cd108 N137 2.304 . S
Cd108 O144 2.268 . S
Cd108 O147 2.273 . S
Cd108 O148 2.417 . S
Cd108 O149 2.330 . S
Cd109 N124 2.304 . S
Cd109 N128 2.334 . S
Cd109 O145 2.273 . S
Cd109 O146 2.268 . S
Cd109 O150 2.417 . S
Cd109 O151 2.330 . S
C110 N111 1.332 . S
C110 C114 1.381 . S
C110 H116 0.931 . S
N111 Cd108 2.334 . S
N111 C110 1.332 . S
N111 C115 1.328 . S
C112 C113 1.396 . S
C112 C115 1.378 . S
C112 H154 0.931 . S
C113 C112 1.396 . S
C113 C114 1.382 . S
C114 C110 1.381 . S
C114 C113 1.382 . S
C114 H155 0.930 . S
C115 N111 1.328 . S
C115 C112 1.378 . S
C115 H117 0.930 . S
H116 C110 0.931 . S
H117 C115 0.930 . S
C118 O144 1.238 . S
C118 O145 1.253 . S
C119 C120 1.379 . S
C119 N124 1.337 . S
C119 H125 0.929 . S
C120 C119 1.379 . S
C120 C121 1.380 . S
C120 H156 0.929 . S
C121 C120 1.380 . S
C121 C122 1.399 . S
C122 C121 1.399 . S
C122 C123 1.376 . S
C122 H157 0.931 . S
C123 C122 1.376 . S
C123 N124 1.338 . S
C123 H126 0.930 . S
N124 Cd109 2.304 . S
N124 C119 1.337 . S
N124 C123 1.338 . S
H125 C119 0.929 . S
H126 C123 0.930 . S
C127 N128 1.332 . S
C127 C131 1.381 . S
C127 H133 0.931 . S
N128 Cd109 2.334 . S
N128 C127 1.332 . S
N128 C132 1.328 . S
C129 C130 1.396 . S
C129 C132 1.378 . S
C129 H158 0.931 . S
C130 C129 1.396 . S
C130 C131 1.382 . S
C131 C127 1.381 . S
C131 C130 1.382 . S
C131 H159 0.930 . S
C132 N128 1.328 . S
C132 C129 1.378 . S
C132 H134 0.930 . S
H133 C127 0.931 . S
H134 C132 0.930 . S
C135 O146 1.238 . S
C135 O147 1.253 . S
C136 O148 1.239 . S
C136 O149 1.230 . S
N137 Cd108 2.304 . S
N137 C138 1.337 . S
N137 C142 1.338 . S
C138 N137 1.337 . S
C138 C139 1.379 . S
C138 H152 0.929 . S
C139 C138 1.379 . S
C139 C140 1.380 . S
C139 H160 0.929 . S
C140 C139 1.380 . S
C140 C141 1.399 . S
C141 C140 1.399 . S
C141 C142 1.376 . S
C141 H161 0.931 . S
C142 N137 1.338 . S
C142 C141 1.376 . S
C142 H153 0.930 . S
C143 O150 1.239 . S
C143 O151 1.230 . S
O144 Cd108 2.268 . S
O144 C118 1.238 . S
O145 Cd109 2.273 . S
O145 C118 1.253 . S
O146 Cd109 2.268 . S
O146 C135 1.238 . S
O147 Cd108 2.273 . S
O147 C135 1.253 . S
O148 Cd108 2.417 . S
O148 C136 1.239 . S
O149 Cd108 2.330 . S
O149 C136 1.230 . S
O150 Cd109 2.417 . S
O150 C143 1.239 . S
O151 Cd109 2.330 . S
O151 C143 1.230 . S
H152 C138 0.929 . S
H153 C142 0.930 . S
H154 C112 0.931 . S
H155 C114 0.930 . S
H156 C120 0.929 . S
H157 C122 0.931 . S
H158 C129 0.931 . S
H159 C131 0.930 . S
H160 C139 0.929 . S
H161 C141 0.931 . S
Cd162 N165 2.334 . S
Cd162 N191 2.304 . S
Cd162 O198 2.268 . S
Cd162 O201 2.273 . S
Cd162 O202 2.417 1_554 S
Cd162 O203 2.330 1_554 S
Cd163 N178 2.304 . S
Cd163 N182 2.334 . S
Cd163 O199 2.273 . S
Cd163 O200 2.268 . S
Cd163 O204 2.417 . S
Cd163 O205 2.330 . S
C164 N165 1.332 . S
C164 C168 1.381 . S
C164 H170 0.931 . S
N165 Cd162 2.334 . S
N165 C164 1.332 . S
N165 C169 1.328 . S
C166 C167 1.396 . S
C166 C169 1.378 . S
C166 H208 0.931 . S
C167 C166 1.396 . S
C167 C168 1.382 . S
C168 C164 1.381 . S
C168 C167 1.382 . S
C168 H209 0.930 . S
C169 N165 1.328 . S
C169 C166 1.378 . S
C169 H171 0.930 . S
H170 C164 0.931 . S
H171 C169 0.930 . S
C172 O198 1.238 . S
C172 O199 1.253 . S
C173 C174 1.379 . S
C173 N178 1.337 . S
C173 H179 0.929 . S
C174 C173 1.379 . S
C174 C175 1.380 . S
C174 H210 0.929 . S
C175 C174 1.380 . S
C175 C176 1.399 . S
C176 C175 1.399 . S
C176 C177 1.376 . S
C176 H211 0.931 . S
C177 C176 1.376 . S
C177 N178 1.338 . S
C177 H180 0.930 . S
N178 Cd163 2.304 . S
N178 C173 1.337 . S
N178 C177 1.338 . S
H179 C173 0.929 . S
H180 C177 0.930 . S
C181 N182 1.332 . S
C181 C185 1.381 . S
C181 H187 0.931 . S
N182 Cd163 2.334 . S
N182 C181 1.332 . S
N182 C186 1.328 . S
C183 C184 1.396 . S
C183 C186 1.378 . S
C183 H212 0.931 . S
C184 C183 1.396 . S
C184 C185 1.382 . S
C185 C181 1.381 . S
C185 C184 1.382 . S
C185 H213 0.930 . S
C186 N182 1.328 . S
C186 C183 1.378 . S
C186 H188 0.930 . S
H187 C181 0.931 . S
H188 C186 0.930 . S
C189 O200 1.238 . S
C189 O201 1.253 . S
C190 O202 1.239 . S
C190 O203 1.230 . S
N191 Cd162 2.304 . S
N191 C192 1.337 . S
N191 C196 1.338 1_554 S
C192 N191 1.337 . S
C192 C193 1.379 . S
C192 H206 0.929 . S
C193 C192 1.379 . S
C193 C194 1.380 1_554 S
C193 H214 0.929 . S
C194 C193 1.380 1_556 S
C194 C195 1.399 . S
C195 C194 1.399 . S
C195 C196 1.376 . S
C195 H215 0.931 . S
C196 N191 1.338 1_556 S
C196 C195 1.376 . S
C196 H207 0.930 . S
C197 O204 1.239 . S
C197 O205 1.230 . S
O198 Cd162 2.268 . S
O198 C172 1.238 . S
O199 Cd163 2.273 . S
O199 C172 1.253 . S
O200 Cd163 2.268 . S
O200 C189 1.238 . S
O201 Cd162 2.273 . S
O201 C189 1.253 . S
O202 Cd162 2.417 1_556 S
O202 C190 1.239 . S
O203 Cd162 2.330 1_556 S
O203 C190 1.230 . S
O204 Cd163 2.417 . S
O204 C197 1.239 . S
O205 Cd163 2.330 . S
O205 C197 1.230 . S
H206 C192 0.929 . S
H207 C196 0.930 . S
H208 C166 0.931 . S
H209 C168 0.930 . S
H210 C174 0.929 . S
H211 C176 0.931 . S
H212 C183 0.931 . S
H213 C185 0.930 . S
H214 C193 0.929 . S
H215 C195 0.931 . S
Cd216 N219 2.334 . S
Cd216 N245 2.304 . S
Cd216 O252 2.268 . S
Cd216 O255 2.273 . S
Cd216 O256 2.417 . S
Cd216 O257 2.330 . S
Cd217 N232 2.304 . S
Cd217 N236 2.334 . S
Cd217 O253 2.273 . S
Cd217 O254 2.268 . S
Cd217 O258 2.417 . S
Cd217 O259 2.330 . S
C218 N219 1.332 . S
C218 C222 1.381 . S
C218 H224 0.931 . S
N219 Cd216 2.334 . S
N219 C218 1.332 . S
N219 C223 1.328 . S
C220 C221 1.396 . S
C220 C223 1.378 . S
C220 H262 0.931 . S
C221 C220 1.396 . S
C221 C222 1.382 . S
C222 C218 1.381 . S
C222 C221 1.382 . S
C222 H263 0.930 . S
C223 N219 1.328 . S
C223 C220 1.378 . S
C223 H225 0.930 . S
H224 C218 0.931 . S
H225 C223 0.930 . S
C226 O252 1.238 . S
C226 O253 1.253 . S
C227 C228 1.379 . S
C227 N232 1.337 . S
C227 H233 0.929 . S
C228 C227 1.379 . S
C228 C229 1.380 . S
C228 H264 0.929 . S
C229 C228 1.380 . S
C229 C230 1.399 . S
C230 C229 1.399 . S
C230 C231 1.376 . S
C230 H265 0.931 . S
C231 C230 1.376 . S
C231 N232 1.338 . S
C231 H234 0.930 . S
N232 Cd217 2.304 . S
N232 C227 1.337 . S
N232 C231 1.338 . S
H233 C227 0.929 . S
H234 C231 0.930 . S
C235 N236 1.332 . S
C235 C239 1.381 . S
C235 H241 0.931 . S
N236 Cd217 2.334 . S
N236 C235 1.332 . S
N236 C240 1.328 . S
C237 C238 1.396 . S
C237 C240 1.378 . S
C237 H266 0.931 . S
C238 C237 1.396 . S
C238 C239 1.382 . S
C239 C235 1.381 . S
C239 C238 1.382 . S
C239 H267 0.930 . S
C240 N236 1.328 . S
C240 C237 1.378 . S
C240 H242 0.930 . S
H241 C235 0.931 . S
H242 C240 0.930 . S
C243 O254 1.238 . S
C243 O255 1.253 . S
C244 O256 1.239 . S
C244 O257 1.230 . S
N245 Cd216 2.304 . S
N245 C246 1.337 . S
N245 C250 1.338 . S
C246 N245 1.337 . S
C246 C247 1.379 . S
C246 H260 0.929 . S
C247 C246 1.379 . S
C247 C248 1.380 . S
C247 H268 0.929 . S
C248 C247 1.380 . S
C248 C249 1.399 . S
C249 C248 1.399 . S
C249 C250 1.376 . S
C249 H269 0.931 . S
C250 N245 1.338 . S
C250 C249 1.376 . S
C250 H261 0.930 . S
C251 O258 1.239 . S
C251 O259 1.230 . S
O252 Cd216 2.268 . S
O252 C226 1.238 . S
O253 Cd217 2.273 . S
O253 C226 1.253 . S
O254 Cd217 2.268 . S
O254 C243 1.238 . S
O255 Cd216 2.273 . S
O255 C243 1.253 . S
O256 Cd216 2.417 . S
O256 C244 1.239 . S
O257 Cd216 2.330 . S
O257 C244 1.230 . S
O258 Cd217 2.417 . S
O258 C251 1.239 . S
O259 Cd217 2.330 . S
O259 C251 1.230 . S
H260 C246 0.929 . S
H261 C250 0.930 . S
H262 C220 0.931 . S
H263 C222 0.930 . S
H264 C228 0.929 . S
H265 C230 0.931 . S
H266 C237 0.931 . S
H267 C239 0.930 . S
H268 C247 0.929 . S
H269 C249 0.931 . S
Cd270 N273 2.334 . S
Cd270 N299 2.304 . S
Cd270 O306 2.268 . S
Cd270 O309 2.273 . S
Cd270 O310 2.417 . S
Cd270 O311 2.330 . S
Cd271 N286 2.304 . S
Cd271 N290 2.334 . S
Cd271 O307 2.273 . S
Cd271 O308 2.268 . S
Cd271 O312 2.417 1_455 S
Cd271 O313 2.330 1_455 S
C272 N273 1.332 . S
C272 C276 1.381 . S
C272 H278 0.931 . S
N273 Cd270 2.334 . S
N273 C272 1.332 . S
N273 C277 1.328 . S
C274 C275 1.396 . S
C274 C277 1.378 . S
C274 H316 0.931 . S
C275 C274 1.396 . S
C275 C276 1.382 . S
C276 C272 1.381 . S
C276 C275 1.382 . S
C276 H317 0.930 . S
C277 N273 1.328 . S
C277 C274 1.378 . S
C277 H279 0.930 . S
H278 C272 0.931 . S
H279 C277 0.930 . S
C280 O306 1.238 . S
C280 O307 1.253 . S
C281 C282 1.379 . S
C281 N286 1.337 . S
C281 H287 0.929 . S
C282 C281 1.379 . S
C282 C283 1.380 1_455 S
C282 H318 0.929 . S
C283 C282 1.380 1_655 S
C283 C284 1.399 . S
C284 C283 1.399 . S
C284 C285 1.376 . S
C284 H319 0.931 . S
C285 C284 1.376 . S
C285 N286 1.338 1_655 S
C285 H288 0.930 . S
N286 Cd271 2.304 . S
N286 C281 1.337 . S
N286 C285 1.338 1_455 S
H287 C281 0.929 . S
H288 C285 0.930 . S
C289 N290 1.332 . S
C289 C293 1.381 . S
C289 H295 0.931 . S
N290 Cd271 2.334 . S
N290 C289 1.332 . S
N290 C294 1.328 . S
C291 C292 1.396 . S
C291 C294 1.378 . S
C291 H320 0.931 . S
C292 C291 1.396 . S
C292 C293 1.382 . S
C293 C289 1.381 . S
C293 C292 1.382 . S
C293 H321 0.930 . S
C294 N290 1.328 . S
C294 C291 1.378 . S
C294 H296 0.930 . S
H295 C289 0.931 . S
H296 C294 0.930 . S
C297 O308 1.238 . S
C297 O309 1.253 . S
C298 O310 1.239 . S
C298 O311 1.230 . S
N299 Cd270 2.304 . S
N299 C300 1.337 . S
N299 C304 1.338 . S
C300 N299 1.337 . S
C300 C301 1.379 . S
C300 H314 0.929 . S
C301 C300 1.379 . S
C301 C302 1.380 . S
C301 H322 0.929 . S
C302 C301 1.380 . S
C302 C303 1.399 . S
C303 C302 1.399 . S
C303 C304 1.376 . S
C303 H323 0.931 . S
C304 N299 1.338 . S
C304 C303 1.376 . S
C304 H315 0.930 . S
C305 O312 1.239 . S
C305 O313 1.230 . S
O306 Cd270 2.268 . S
O306 C280 1.238 . S
O307 Cd271 2.273 . S
O307 C280 1.253 . S
O308 Cd271 2.268 . S
O308 C297 1.238 . S
O309 Cd270 2.273 . S
O309 C297 1.253 . S
O310 Cd270 2.417 . S
O310 C298 1.239 . S
O311 Cd270 2.330 . S
O311 C298 1.230 . S
O312 Cd271 2.417 1_655 S
O312 C305 1.239 . S
O313 Cd271 2.330 1_655 S
O313 C305 1.230 . S
H314 C300 0.929 . S
H315 C304 0.930 . S
H316 C274 0.931 . S
H317 C276 0.930 . S
H318 C282 0.929 . S
H319 C284 0.931 . S
H320 C291 0.931 . S
H321 C293 0.930 . S
H322 C301 0.929 . S
H323 C303 0.931 . S
Cd324 N327 2.334 . S
Cd324 N353 2.304 . S
Cd324 O360 2.268 . S
Cd324 O363 2.273 . S
Cd324 O364 2.417 . S
Cd324 O365 2.330 . S
Cd325 N340 2.304 . S
Cd325 N344 2.334 . S
Cd325 O361 2.273 . S
Cd325 O362 2.268 . S
Cd325 O366 2.417 1_655 S
Cd325 O367 2.330 1_655 S
C326 N327 1.332 . S
C326 C330 1.381 . S
C326 H332 0.931 . S
N327 Cd324 2.334 . S
N327 C326 1.332 . S
N327 C331 1.328 . S
C328 C329 1.396 . S
C328 C331 1.378 . S
C328 H370 0.931 . S
C329 C328 1.396 . S
C329 C330 1.382 . S
C330 C326 1.381 . S
C330 C329 1.382 . S
C330 H371 0.930 . S
C331 N327 1.328 . S
C331 C328 1.378 . S
C331 H333 0.930 . S
H332 C326 0.931 . S
H333 C331 0.930 . S
C334 O360 1.238 . S
C334 O361 1.253 . S
C335 C336 1.379 . S
C335 N340 1.337 . S
C335 H341 0.929 . S
C336 C335 1.379 . S
C336 C337 1.380 1_655 S
C336 H372 0.929 . S
C337 C336 1.380 1_455 S
C337 C338 1.399 . S
C338 C337 1.399 . S
C338 C339 1.376 . S
C338 H373 0.931 . S
C339 C338 1.376 . S
C339 N340 1.338 1_455 S
C339 H342 0.930 . S
N340 Cd325 2.304 . S
N340 C335 1.337 . S
N340 C339 1.338 1_655 S
H341 C335 0.929 . S
H342 C339 0.930 . S
C343 N344 1.332 . S
C343 C347 1.381 . S
C343 H349 0.931 . S
N344 Cd325 2.334 . S
N344 C343 1.332 . S
N344 C348 1.328 . S
C345 C346 1.396 . S
C345 C348 1.378 . S
C345 H374 0.931 . S
C346 C345 1.396 . S
C346 C347 1.382 . S
C347 C343 1.381 . S
C347 C346 1.382 . S
C347 H375 0.930 . S
C348 N344 1.328 . S
C348 C345 1.378 . S
C348 H350 0.930 . S
H349 C343 0.931 . S
H350 C348 0.930 . S
C351 O362 1.238 . S
C351 O363 1.253 . S
C352 O364 1.239 . S
C352 O365 1.230 . S
N353 Cd324 2.304 . S
N353 C354 1.337 . S
N353 C358 1.338 . S
C354 N353 1.337 . S
C354 C355 1.379 . S
C354 H368 0.929 . S
C355 C354 1.379 . S
C355 C356 1.380 . S
C355 H376 0.929 . S
C356 C355 1.380 . S
C356 C357 1.399 . S
C357 C356 1.399 . S
C357 C358 1.376 . S
C357 H377 0.931 . S
C358 N353 1.338 . S
C358 C357 1.376 . S
C358 H369 0.930 . S
C359 O366 1.239 . S
C359 O367 1.230 . S
O360 Cd324 2.268 . S
O360 C334 1.238 . S
O361 Cd325 2.273 . S
O361 C334 1.253 . S
O362 Cd325 2.268 . S
O362 C351 1.238 . S
O363 Cd324 2.273 . S
O363 C351 1.253 . S
O364 Cd324 2.417 . S
O364 C352 1.239 . S
O365 Cd324 2.330 . S
O365 C352 1.230 . S
O366 Cd325 2.417 1_455 S
O366 C359 1.239 . S
O367 Cd325 2.330 1_455 S
O367 C359 1.230 . S
H368 C354 0.929 . S
H369 C358 0.930 . S
H370 C328 0.931 . S
H371 C330 0.930 . S
H372 C336 0.929 . S
H373 C338 0.931 . S
H374 C345 0.931 . S
H375 C347 0.930 . S
H376 C355 0.929 . S
H377 C357 0.931 . S
Cd378 N381 2.334 . S
Cd378 N407 2.304 . S
Cd378 O414 2.268 . S
Cd378 O417 2.273 . S
Cd378 O418 2.417 . S
Cd378 O419 2.330 . S
Cd379 N394 2.304 . S
Cd379 N398 2.334 . S
Cd379 O415 2.273 . S
Cd379 O416 2.268 . S
Cd379 O420 2.417 . S
Cd379 O421 2.330 . S
C380 N381 1.332 . S
C380 C384 1.381 . S
C380 H386 0.931 . S
N381 Cd378 2.334 . S
N381 C380 1.332 . S
N381 C385 1.328 . S
C382 C383 1.396 . S
C382 C385 1.378 . S
C382 H424 0.931 . S
C383 C382 1.396 . S
C383 C384 1.382 . S
C384 C380 1.381 . S
C384 C383 1.382 . S
C384 H425 0.930 . S
C385 N381 1.328 . S
C385 C382 1.378 . S
C385 H387 0.930 . S
H386 C380 0.931 . S
H387 C385 0.930 . S
C388 O414 1.238 . S
C388 O415 1.253 . S
C389 C390 1.379 . S
C389 N394 1.337 . S
C389 H395 0.929 . S
C390 C389 1.379 . S
C390 C391 1.380 . S
C390 H426 0.929 . S
C391 C390 1.380 . S
C391 C392 1.399 . S
C392 C391 1.399 . S
C392 C393 1.376 . S
C392 H427 0.931 . S
C393 C392 1.376 . S
C393 N394 1.338 . S
C393 H396 0.930 . S
N394 Cd379 2.304 . S
N394 C389 1.337 . S
N394 C393 1.338 . S
H395 C389 0.929 . S
H396 C393 0.930 . S
C397 N398 1.332 . S
C397 C401 1.381 . S
C397 H403 0.931 . S
N398 Cd379 2.334 . S
N398 C397 1.332 . S
N398 C402 1.328 . S
C399 C400 1.396 . S
C399 C402 1.378 . S
C399 H428 0.931 . S
C400 C399 1.396 . S
C400 C401 1.382 . S
C401 C397 1.381 . S
C401 C400 1.382 . S
C401 H429 0.930 . S
C402 N398 1.328 . S
C402 C399 1.378 . S
C402 H404 0.930 . S
H403 C397 0.931 . S
H404 C402 0.930 . S
C405 O416 1.238 . S
C405 O417 1.253 . S
C406 O418 1.239 . S
C406 O419 1.230 . S
N407 Cd378 2.304 . S
N407 C408 1.337 . S
N407 C412 1.338 . S
C408 N407 1.337 . S
C408 C409 1.379 . S
C408 H422 0.929 . S
C409 C408 1.379 . S
C409 C410 1.380 . S
C409 H430 0.929 . S
C410 C409 1.380 . S
C410 C411 1.399 . S
C411 C410 1.399 . S
C411 C412 1.376 . S
C411 H431 0.931 . S
C412 N407 1.338 . S
C412 C411 1.376 . S
C412 H423 0.930 . S
C413 O420 1.239 . S
C413 O421 1.230 . S
O414 Cd378 2.268 . S
O414 C388 1.238 . S
O415 Cd379 2.273 . S
O415 C388 1.253 . S
O416 Cd379 2.268 . S
O416 C405 1.238 . S
O417 Cd378 2.273 . S
O417 C405 1.253 . S
O418 Cd378 2.417 . S
O418 C406 1.239 . S
O419 Cd378 2.330 . S
O419 C406 1.230 . S
O420 Cd379 2.417 . S
O420 C413 1.239 . S
O421 Cd379 2.330 . S
O421 C413 1.230 . S
H422 C408 0.929 . S
H423 C412 0.930 . S
H424 C382 0.931 . S
H425 C384 0.930 . S
H426 C390 0.929 . S
H427 C392 0.931 . S
H428 C399 0.931 . S
H429 C401 0.930 . S
H430 C409 0.929 . S
H431 C411 0.931 . S
Cd432 N435 2.334 . S
Cd432 N461 2.304 . S
Cd432 O468 2.268 . S
Cd432 O471 2.273 . S
Cd432 O472 2.417 . S
Cd432 O473 2.330 . S
Cd433 N448 2.304 . S
Cd433 N452 2.334 . S
Cd433 O469 2.273 . S
Cd433 O470 2.268 . S
Cd433 O474 2.417 . S
Cd433 O475 2.330 . S
C434 N435 1.332 . S
C434 C438 1.381 . S
C434 H440 0.931 . S
N435 Cd432 2.334 . S
N435 C434 1.332 . S
N435 C439 1.328 . S
C436 C437 1.396 . S
C436 C439 1.378 . S
C436 H478 0.931 . S
C437 C436 1.396 . S
C437 C438 1.382 . S
C438 C434 1.381 . S
C438 C437 1.382 . S
C438 H479 0.930 . S
C439 N435 1.328 . S
C439 C436 1.378 . S
C439 H441 0.930 . S
H440 C434 0.931 . S
H441 C439 0.930 . S
C442 O468 1.238 . S
C442 O469 1.253 . S
C443 C444 1.379 . S
C443 N448 1.337 . S
C443 H449 0.929 . S
C444 C443 1.379 . S
C444 C445 1.380 . S
C444 H480 0.929 . S
C445 C444 1.380 . S
C445 C446 1.399 . S
C446 C445 1.399 . S
C446 C447 1.376 . S
C446 H481 0.931 . S
C447 C446 1.376 . S
C447 N448 1.338 . S
C447 H450 0.930 . S
N448 Cd433 2.304 . S
N448 C443 1.337 . S
N448 C447 1.338 . S
H449 C443 0.929 . S
H450 C447 0.930 . S
C451 N452 1.332 . S
C451 C455 1.381 . S
C451 H457 0.931 . S
N452 Cd433 2.334 . S
N452 C451 1.332 . S
N452 C456 1.328 . S
C453 C454 1.396 . S
C453 C456 1.378 . S
C453 H482 0.931 . S
C454 C453 1.396 . S
C454 C455 1.382 . S
C455 C451 1.381 . S
C455 C454 1.382 . S
C455 H483 0.930 . S
C456 N452 1.328 . S
C456 C453 1.378 . S
C456 H458 0.930 . S
H457 C451 0.931 . S
H458 C456 0.930 . S
C459 O470 1.238 . S
C459 O471 1.253 . S
C460 O472 1.239 . S
C460 O473 1.230 . S
N461 Cd432 2.304 . S
N461 C462 1.337 . S
N461 C466 1.338 . S
C462 N461 1.337 . S
C462 C463 1.379 . S
C462 H476 0.929 . S
C463 C462 1.379 . S
C463 C464 1.380 . S
C463 H484 0.929 . S
C464 C463 1.380 . S
C464 C465 1.399 . S
C465 C464 1.399 . S
C465 C466 1.376 . S
C465 H485 0.931 . S
C466 N461 1.338 . S
C466 C465 1.376 . S
C466 H477 0.930 . S
C467 O474 1.239 . S
C467 O475 1.230 . S
O468 Cd432 2.268 . S
O468 C442 1.238 . S
O469 Cd433 2.273 . S
O469 C442 1.253 . S
O470 Cd433 2.268 . S
O470 C459 1.238 . S
O471 Cd432 2.273 . S
O471 C459 1.253 . S
O472 Cd432 2.417 . S
O472 C460 1.239 . S
O473 Cd432 2.330 . S
O473 C460 1.230 . S
O474 Cd433 2.417 . S
O474 C467 1.239 . S
O475 Cd433 2.330 . S
O475 C467 1.230 . S
H476 C462 0.929 . S
H477 C466 0.930 . S
H478 C436 0.931 . S
H479 C438 0.930 . S
H480 C444 0.929 . S
H481 C446 0.931 . S
H482 C453 0.931 . S
H483 C455 0.930 . S
H484 C463 0.929 . S
H485 C465 0.931 . S
Cd486 N489 2.334 . S
Cd486 N515 2.304 . S
Cd486 O522 2.268 . S
Cd486 O525 2.273 . S
Cd486 O526 2.417 . S
Cd486 O527 2.330 . S
Cd487 N502 2.304 . S
Cd487 N506 2.334 . S
Cd487 O523 2.273 . S
Cd487 O524 2.268 . S
Cd487 O528 2.417 1_545 S
Cd487 O529 2.330 1_545 S
C488 N489 1.332 . S
C488 C492 1.381 . S
C488 H494 0.931 . S
N489 Cd486 2.334 . S
N489 C488 1.332 . S
N489 C493 1.328 . S
C490 C491 1.396 . S
C490 C493 1.378 . S
C490 H532 0.931 . S
C491 C490 1.396 . S
C491 C492 1.382 . S
C492 C488 1.381 . S
C492 C491 1.382 . S
C492 H533 0.930 . S
C493 N489 1.328 . S
C493 C490 1.378 . S
C493 H495 0.930 . S
H494 C488 0.931 . S
H495 C493 0.930 . S
C496 O522 1.238 . S
C496 O523 1.253 . S
C497 C498 1.379 . S
C497 N502 1.337 . S
C497 H503 0.929 . S
C498 C497 1.379 . S
C498 C499 1.380 1_545 S
C498 H534 0.929 . S
C499 C498 1.380 1_565 S
C499 C500 1.399 . S
C500 C499 1.399 . S
C500 C501 1.376 . S
C500 H535 0.931 . S
C501 C500 1.376 . S
C501 N502 1.338 1_565 S
C501 H504 0.930 . S
N502 Cd487 2.304 . S
N502 C497 1.337 . S
N502 C501 1.338 1_545 S
H503 C497 0.929 . S
H504 C501 0.930 . S
C505 N506 1.332 . S
C505 C509 1.381 . S
C505 H511 0.931 . S
N506 Cd487 2.334 . S
N506 C505 1.332 . S
N506 C510 1.328 . S
C507 C508 1.396 . S
C507 C510 1.378 . S
C507 H536 0.931 . S
C508 C507 1.396 . S
C508 C509 1.382 . S
C509 C505 1.381 . S
C509 C508 1.382 . S
C509 H537 0.930 . S
C510 N506 1.328 . S
C510 C507 1.378 . S
C510 H512 0.930 . S
H511 C505 0.931 . S
H512 C510 0.930 . S
C513 O524 1.238 . S
C513 O525 1.253 . S
C514 O526 1.239 . S
C514 O527 1.230 . S
N515 Cd486 2.304 . S
N515 C516 1.337 . S
N515 C520 1.338 . S
C516 N515 1.337 . S
C516 C517 1.379 . S
C516 H530 0.929 . S
C517 C516 1.379 . S
C517 C518 1.380 . S
C517 H538 0.929 . S
C518 C517 1.380 . S
C518 C519 1.399 . S
C519 C518 1.399 . S
C519 C520 1.376 . S
C519 H539 0.931 . S
C520 N515 1.338 . S
C520 C519 1.376 . S
C520 H531 0.930 . S
C521 O528 1.239 . S
C521 O529 1.230 . S
O522 Cd486 2.268 . S
O522 C496 1.238 . S
O523 Cd487 2.273 . S
O523 C496 1.253 . S
O524 Cd487 2.268 . S
O524 C513 1.238 . S
O525 Cd486 2.273 . S
O525 C513 1.253 . S
O526 Cd486 2.417 . S
O526 C514 1.239 . S
O527 Cd486 2.330 . S
O527 C514 1.230 . S
O528 Cd487 2.417 1_565 S
O528 C521 1.239 . S
O529 Cd487 2.330 1_565 S
O529 C521 1.230 . S
H530 C516 0.929 . S
H531 C520 0.930 . S
H532 C490 0.931 . S
H533 C492 0.930 . S
H534 C498 0.929 . S
H535 C500 0.931 . S
H536 C507 0.931 . S
H537 C509 0.930 . S
H538 C517 0.929 . S
H539 C519 0.931 . S
Cd540 N543 2.334 . S
Cd540 N569 2.304 . S
Cd540 O576 2.268 . S
Cd540 O579 2.273 . S
Cd540 O580 2.417 1_565 S
Cd540 O581 2.330 1_565 S
Cd541 N556 2.304 . S
Cd541 N560 2.334 . S
Cd541 O577 2.273 . S
Cd541 O578 2.268 . S
Cd541 O582 2.417 . S
Cd541 O583 2.330 . S
C542 N543 1.332 . S
C542 C546 1.381 . S
C542 H548 0.931 . S
N543 Cd540 2.334 . S
N543 C542 1.332 . S
N543 C547 1.328 . S
C544 C545 1.396 . S
C544 C547 1.378 . S
C544 H586 0.931 . S
C545 C544 1.396 . S
C545 C546 1.382 . S
C546 C542 1.381 . S
C546 C545 1.382 . S
C546 H587 0.930 . S
C547 N543 1.328 . S
C547 C544 1.378 . S
C547 H549 0.930 . S
H548 C542 0.931 . S
H549 C547 0.930 . S
C550 O576 1.238 . S
C550 O577 1.253 . S
C551 C552 1.379 . S
C551 N556 1.337 . S
C551 H557 0.929 . S
C552 C551 1.379 . S
C552 C553 1.380 . S
C552 H588 0.929 . S
C553 C552 1.380 . S
C553 C554 1.399 . S
C554 C553 1.399 . S
C554 C555 1.376 . S
C554 H589 0.931 . S
C555 C554 1.376 . S
C555 N556 1.338 . S
C555 H558 0.930 . S
N556 Cd541 2.304 . S
N556 C551 1.337 . S
N556 C555 1.338 . S
H557 C551 0.929 . S
H558 C555 0.930 . S
C559 N560 1.332 . S
C559 C563 1.381 . S
C559 H565 0.931 . S
N560 Cd541 2.334 . S
N560 C559 1.332 . S
N560 C564 1.328 . S
C561 C562 1.396 . S
C561 C564 1.378 . S
C561 H590 0.931 . S
C562 C561 1.396 . S
C562 C563 1.382 . S
C563 C559 1.381 . S
C563 C562 1.382 . S
C563 H591 0.930 . S
C564 N560 1.328 . S
C564 C561 1.378 . S
C564 H566 0.930 . S
H565 C559 0.931 . S
H566 C564 0.930 . S
C567 O578 1.238 . S
C567 O579 1.253 . S
C568 O580 1.239 . S
C568 O581 1.230 . S
N569 Cd540 2.304 . S
N569 C570 1.337 . S
N569 C574 1.338 1_565 S
C570 N569 1.337 . S
C570 C571 1.379 . S
C570 H584 0.929 . S
C571 C570 1.379 . S
C571 C572 1.380 1_565 S
C571 H592 0.929 . S
C572 C571 1.380 1_545 S
C572 C573 1.399 . S
C573 C572 1.399 . S
C573 C574 1.376 . S
C573 H593 0.931 . S
C574 N569 1.338 1_545 S
C574 C573 1.376 . S
C574 H585 0.930 . S
C575 O582 1.239 . S
C575 O583 1.230 . S
O576 Cd540 2.268 . S
O576 C550 1.238 . S
O577 Cd541 2.273 . S
O577 C550 1.253 . S
O578 Cd541 2.268 . S
O578 C567 1.238 . S
O579 Cd540 2.273 . S
O579 C567 1.253 . S
O580 Cd540 2.417 1_545 S
O580 C568 1.239 . S
O581 Cd540 2.330 1_545 S
O581 C568 1.230 . S
O582 Cd541 2.417 . S
O582 C575 1.239 . S
O583 Cd541 2.330 . S
O583 C575 1.230 . S
H584 C570 0.929 . S
H585 C574 0.930 . S
H586 C544 0.931 . S
H587 C546 0.930 . S
H588 C552 0.929 . S
H589 C554 0.931 . S
H590 C561 0.931 . S
H591 C563 0.930 . S
H592 C571 0.929 . S
H593 C573 0.931 . S
Cd594 N597 2.334 . S
Cd594 N623 2.304 . S
Cd594 O630 2.268 . S
Cd594 O633 2.273 . S
Cd594 O634 2.417 . S
Cd594 O635 2.330 . S
Cd595 N610 2.304 . S
Cd595 N614 2.334 . S
Cd595 O631 2.273 . S
Cd595 O632 2.268 . S
Cd595 O636 2.417 . S
Cd595 O637 2.330 . S
C596 N597 1.332 . S
C596 C600 1.381 . S
C596 H602 0.931 . S
N597 Cd594 2.334 . S
N597 C596 1.332 . S
N597 C601 1.328 . S
C598 C599 1.396 . S
C598 C601 1.378 . S
C598 H640 0.931 . S
C599 C598 1.396 . S
C599 C600 1.382 . S
C600 C596 1.381 . S
C600 C599 1.382 . S
C600 H641 0.930 . S
C601 N597 1.328 . S
C601 C598 1.378 . S
C601 H603 0.930 . S
H602 C596 0.931 . S
H603 C601 0.930 . S
C604 O630 1.238 . S
C604 O631 1.253 . S
C605 C606 1.379 . S
C605 N610 1.337 . S
C605 H611 0.929 . S
C606 C605 1.379 . S
C606 C607 1.380 . S
C606 H642 0.929 . S
C607 C606 1.380 . S
C607 C608 1.399 . S
C608 C607 1.399 . S
C608 C609 1.376 . S
C608 H643 0.931 . S
C609 C608 1.376 . S
C609 N610 1.338 . S
C609 H612 0.930 . S
N610 Cd595 2.304 . S
N610 C605 1.337 . S
N610 C609 1.338 . S
H611 C605 0.929 . S
H612 C609 0.930 . S
C613 N614 1.332 . S
C613 C617 1.381 . S
C613 H619 0.931 . S
N614 Cd595 2.334 . S
N614 C613 1.332 . S
N614 C618 1.328 . S
C615 C616 1.396 . S
C615 C618 1.378 . S
C615 H644 0.931 . S
C616 C615 1.396 . S
C616 C617 1.382 . S
C617 C613 1.381 . S
C617 C616 1.382 . S
C617 H645 0.930 . S
C618 N614 1.328 . S
C618 C615 1.378 . S
C618 H620 0.930 . S
H619 C613 0.931 . S
H620 C618 0.930 . S
C621 O632 1.238 . S
C621 O633 1.253 . S
C622 O634 1.239 . S
C622 O635 1.230 . S
N623 Cd594 2.304 . S
N623 C624 1.337 . S
N623 C628 1.338 . S
C624 N623 1.337 . S
C624 C625 1.379 . S
C624 H638 0.929 . S
C625 C624 1.379 . S
C625 C626 1.380 . S
C625 H646 0.929 . S
C626 C625 1.380 . S
C626 C627 1.399 . S
C627 C626 1.399 . S
C627 C628 1.376 . S
C627 H647 0.931 . S
C628 N623 1.338 . S
C628 C627 1.376 . S
C628 H639 0.930 . S
C629 O636 1.239 . S
C629 O637 1.230 . S
O630 Cd594 2.268 . S
O630 C604 1.238 . S
O631 Cd595 2.273 . S
O631 C604 1.253 . S
O632 Cd595 2.268 . S
O632 C621 1.238 . S
O633 Cd594 2.273 . S
O633 C621 1.253 . S
O634 Cd594 2.417 . S
O634 C622 1.239 . S
O635 Cd594 2.330 . S
O635 C622 1.230 . S
O636 Cd595 2.417 . S
O636 C629 1.239 . S
O637 Cd595 2.330 . S
O637 C629 1.230 . S
H638 C624 0.929 . S
H639 C628 0.930 . S
H640 C598 0.931 . S
H641 C600 0.930 . S
H642 C606 0.929 . S
H643 C608 0.931 . S
H644 C615 0.931 . S
H645 C617 0.930 . S
H646 C625 0.929 . S
H647 C627 0.931 . S
Cd648 N651 2.334 . S
Cd648 N677 2.304 . S
Cd648 O684 2.268 . S
Cd648 O687 2.273 . S
Cd648 O688 2.417 . S
Cd648 O689 2.330 . S
Cd649 N664 2.304 . S
Cd649 N668 2.334 . S
Cd649 O685 2.273 . S
Cd649 O686 2.268 . S
Cd649 O690 2.417 . S
Cd649 O691 2.330 . S
C650 N651 1.332 . S
C650 C654 1.381 . S
C650 H656 0.931 . S
N651 Cd648 2.334 . S
N651 C650 1.332 . S
N651 C655 1.328 . S
C652 C653 1.396 . S
C652 C655 1.378 . S
C652 H694 0.931 . S
C653 C652 1.396 . S
C653 C654 1.382 . S
C654 C650 1.381 . S
C654 C653 1.382 . S
C654 H695 0.930 . S
C655 N651 1.328 . S
C655 C652 1.378 . S
C655 H657 0.930 . S
H656 C650 0.931 . S
H657 C655 0.930 . S
C658 O684 1.238 . S
C658 O685 1.253 . S
C659 C660 1.379 . S
C659 N664 1.337 . S
C659 H665 0.929 . S
C660 C659 1.379 . S
C660 C661 1.380 . S
C660 H696 0.929 . S
C661 C660 1.380 . S
C661 C662 1.399 . S
C662 C661 1.399 . S
C662 C663 1.376 . S
C662 H697 0.931 . S
C663 C662 1.376 . S
C663 N664 1.338 . S
C663 H666 0.930 . S
N664 Cd649 2.304 . S
N664 C659 1.337 . S
N664 C663 1.338 . S
H665 C659 0.929 . S
H666 C663 0.930 . S
C667 N668 1.332 . S
C667 C671 1.381 . S
C667 H673 0.931 . S
N668 Cd649 2.334 . S
N668 C667 1.332 . S
N668 C672 1.328 . S
C669 C670 1.396 . S
C669 C672 1.378 . S
C669 H698 0.931 . S
C670 C669 1.396 . S
C670 C671 1.382 . S
C671 C667 1.381 . S
C671 C670 1.382 . S
C671 H699 0.930 . S
C672 N668 1.328 . S
C672 C669 1.378 . S
C672 H674 0.930 . S
H673 C667 0.931 . S
H674 C672 0.930 . S
C675 O686 1.238 . S
C675 O687 1.253 . S
C676 O688 1.239 . S
C676 O689 1.230 . S
N677 Cd648 2.304 . S
N677 C678 1.337 . S
N677 C682 1.338 . S
C678 N677 1.337 . S
C678 C679 1.379 . S
C678 H692 0.929 . S
C679 C678 1.379 . S
C679 C680 1.380 . S
C679 H700 0.929 . S
C680 C679 1.380 . S
C680 C681 1.399 . S
C681 C680 1.399 . S
C681 C682 1.376 . S
C681 H701 0.931 . S
C682 N677 1.338 . S
C682 C681 1.376 . S
C682 H693 0.930 . S
C683 O690 1.239 . S
C683 O691 1.230 . S
O684 Cd648 2.268 . S
O684 C658 1.238 . S
O685 Cd649 2.273 . S
O685 C658 1.253 . S
O686 Cd649 2.268 . S
O686 C675 1.238 . S
O687 Cd648 2.273 . S
O687 C675 1.253 . S
O688 Cd648 2.417 . S
O688 C676 1.239 . S
O689 Cd648 2.330 . S
O689 C676 1.230 . S
O690 Cd649 2.417 . S
O690 C683 1.239 . S
O691 Cd649 2.330 . S
O691 C683 1.230 . S
H692 C678 0.929 . S
H693 C682 0.930 . S
H694 C652 0.931 . S
H695 C654 0.930 . S
H696 C660 0.929 . S
H697 C662 0.931 . S
H698 C669 0.931 . S
H699 C671 0.930 . S
H700 C679 0.929 . S
H701 C681 0.931 . S
Cd702 N705 2.334 . S
Cd702 N731 2.304 . S
Cd702 O738 2.268 . S
Cd702 O741 2.273 . S
Cd702 O742 2.417 1_554 S
Cd702 O743 2.330 1_554 S
Cd703 N718 2.304 . S
Cd703 N722 2.334 . S
Cd703 O739 2.273 . S
Cd703 O740 2.268 . S
Cd703 O744 2.417 . S
Cd703 O745 2.330 . S
C704 N705 1.332 . S
C704 C708 1.381 . S
C704 H710 0.931 . S
N705 Cd702 2.334 . S
N705 C704 1.332 . S
N705 C709 1.328 . S
C706 C707 1.396 . S
C706 C709 1.378 . S
C706 H748 0.931 . S
C707 C706 1.396 . S
C707 C708 1.382 . S
C708 C704 1.381 . S
C708 C707 1.382 . S
C708 H749 0.930 . S
C709 N705 1.328 . S
C709 C706 1.378 . S
C709 H711 0.930 . S
H710 C704 0.931 . S
H711 C709 0.930 . S
C712 O738 1.238 . S
C712 O739 1.253 . S
C713 C714 1.379 . S
C713 N718 1.337 . S
C713 H719 0.929 . S
C714 C713 1.379 . S
C714 C715 1.380 . S
C714 H750 0.929 . S
C715 C714 1.380 . S
C715 C716 1.399 . S
C716 C715 1.399 . S
C716 C717 1.376 . S
C716 H751 0.931 . S
C717 C716 1.376 . S
C717 N718 1.338 . S
C717 H720 0.930 . S
N718 Cd703 2.304 . S
N718 C713 1.337 . S
N718 C717 1.338 . S
H719 C713 0.929 . S
H720 C717 0.930 . S
C721 N722 1.332 . S
C721 C725 1.381 . S
C721 H727 0.931 . S
N722 Cd703 2.334 . S
N722 C721 1.332 . S
N722 C726 1.328 . S
C723 C724 1.396 . S
C723 C726 1.378 . S
C723 H752 0.931 . S
C724 C723 1.396 . S
C724 C725 1.382 . S
C725 C721 1.381 . S
C725 C724 1.382 . S
C725 H753 0.930 . S
C726 N722 1.328 . S
C726 C723 1.378 . S
C726 H728 0.930 . S
H727 C721 0.931 . S
H728 C726 0.930 . S
C729 O740 1.238 . S
C729 O741 1.253 . S
C730 O742 1.239 . S
C730 O743 1.230 . S
N731 Cd702 2.304 . S
N731 C732 1.337 . S
N731 C736 1.338 1_554 S
C732 N731 1.337 . S
C732 C733 1.379 . S
C732 H746 0.929 . S
C733 C732 1.379 . S
C733 C734 1.380 1_554 S
C733 H754 0.929 . S
C734 C733 1.380 1_556 S
C734 C735 1.399 . S
C735 C734 1.399 . S
C735 C736 1.376 . S
C735 H755 0.931 . S
C736 N731 1.338 1_556 S
C736 C735 1.376 . S
C736 H747 0.930 . S
C737 O744 1.239 . S
C737 O745 1.230 . S
O738 Cd702 2.268 . S
O738 C712 1.238 . S
O739 Cd703 2.273 . S
O739 C712 1.253 . S
O740 Cd703 2.268 . S
O740 C729 1.238 . S
O741 Cd702 2.273 . S
O741 C729 1.253 . S
O742 Cd702 2.417 1_556 S
O742 C730 1.239 . S
O743 Cd702 2.330 1_556 S
O743 C730 1.230 . S
O744 Cd703 2.417 . S
O744 C737 1.239 . S
O745 Cd703 2.330 . S
O745 C737 1.230 . S
H746 C732 0.929 . S
H747 C736 0.930 . S
H748 C706 0.931 . S
H749 C708 0.930 . S
H750 C714 0.929 . S
H751 C716 0.931 . S
H752 C723 0.931 . S
H753 C725 0.930 . S
H754 C733 0.929 . S
H755 C735 0.931 . S
Cd756 N759 2.334 . S
Cd756 N785 2.304 . S
Cd756 O792 2.268 . S
Cd756 O795 2.273 . S
Cd756 O796 2.417 . S
Cd756 O797 2.330 . S
Cd757 N772 2.304 . S
Cd757 N776 2.334 . S
Cd757 O793 2.273 . S
Cd757 O794 2.268 . S
Cd757 O798 2.417 . S
Cd757 O799 2.330 . S
C758 N759 1.332 . S
C758 C762 1.381 . S
C758 H764 0.931 . S
N759 Cd756 2.334 . S
N759 C758 1.332 . S
N759 C763 1.328 . S
C760 C761 1.396 . S
C760 C763 1.378 . S
C760 H802 0.931 . S
C761 C760 1.396 . S
C761 C762 1.382 . S
C762 C758 1.381 . S
C762 C761 1.382 . S
C762 H803 0.930 . S
C763 N759 1.328 . S
C763 C760 1.378 . S
C763 H765 0.930 . S
H764 C758 0.931 . S
H765 C763 0.930 . S
C766 O792 1.238 . S
C766 O793 1.253 . S
C767 C768 1.379 . S
C767 N772 1.337 . S
C767 H773 0.929 . S
C768 C767 1.379 . S
C768 C769 1.380 . S
C768 H804 0.929 . S
C769 C768 1.380 . S
C769 C770 1.399 . S
C770 C769 1.399 . S
C770 C771 1.376 . S
C770 H805 0.931 . S
C771 C770 1.376 . S
C771 N772 1.338 . S
C771 H774 0.930 . S
N772 Cd757 2.304 . S
N772 C767 1.337 . S
N772 C771 1.338 . S
H773 C767 0.929 . S
H774 C771 0.930 . S
C775 N776 1.332 . S
C775 C779 1.381 . S
C775 H781 0.931 . S
N776 Cd757 2.334 . S
N776 C775 1.332 . S
N776 C780 1.328 . S
C777 C778 1.396 . S
C777 C780 1.378 . S
C777 H806 0.931 . S
C778 C777 1.396 . S
C778 C779 1.382 . S
C779 C775 1.381 . S
C779 C778 1.382 . S
C779 H807 0.930 . S
C780 N776 1.328 . S
C780 C777 1.378 . S
C780 H782 0.930 . S
H781 C775 0.931 . S
H782 C780 0.930 . S
C783 O794 1.238 . S
C783 O795 1.253 . S
C784 O796 1.239 . S
C784 O797 1.230 . S
N785 Cd756 2.304 . S
N785 C786 1.337 . S
N785 C790 1.338 . S
C786 N785 1.337 . S
C786 C787 1.379 . S
C786 H800 0.929 . S
C787 C786 1.379 . S
C787 C788 1.380 . S
C787 H808 0.929 . S
C788 C787 1.380 . S
C788 C789 1.399 . S
C789 C788 1.399 . S
C789 C790 1.376 . S
C789 H809 0.931 . S
C790 N785 1.338 . S
C790 C789 1.376 . S
C790 H801 0.930 . S
C791 O798 1.239 . S
C791 O799 1.230 . S
O792 Cd756 2.268 . S
O792 C766 1.238 . S
O793 Cd757 2.273 . S
O793 C766 1.253 . S
O794 Cd757 2.268 . S
O794 C783 1.238 . S
O795 Cd756 2.273 . S
O795 C783 1.253 . S
O796 Cd756 2.417 . S
O796 C784 1.239 . S
O797 Cd756 2.330 . S
O797 C784 1.230 . S
O798 Cd757 2.417 . S
O798 C791 1.239 . S
O799 Cd757 2.330 . S
O799 C791 1.230 . S
H800 C786 0.929 . S
H801 C790 0.930 . S
H802 C760 0.931 . S
H803 C762 0.930 . S
H804 C768 0.929 . S
H805 C770 0.931 . S
H806 C777 0.931 . S
H807 C779 0.930 . S
H808 C787 0.929 . S
H809 C789 0.931 . S
Cd810 N813 2.334 . S
Cd810 N839 2.304 . S
Cd810 O846 2.268 . S
Cd810 O849 2.273 . S
Cd810 O850 2.417 1_556 S
Cd810 O851 2.330 1_556 S
Cd811 N826 2.304 . S
Cd811 N830 2.334 . S
Cd811 O847 2.273 . S
Cd811 O848 2.268 . S
Cd811 O852 2.417 . S
Cd811 O853 2.330 . S
C812 N813 1.332 . S
C812 C816 1.381 . S
C812 H818 0.931 . S
N813 Cd810 2.334 . S
N813 C812 1.332 . S
N813 C817 1.328 . S
C814 C815 1.396 . S
C814 C817 1.378 . S
C814 H856 0.931 . S
C815 C814 1.396 . S
C815 C816 1.382 . S
C816 C812 1.381 . S
C816 C815 1.382 . S
C816 H857 0.930 . S
C817 N813 1.328 . S
C817 C814 1.378 . S
C817 H819 0.930 . S
H818 C812 0.931 . S
H819 C817 0.930 . S
C820 O846 1.238 . S
C820 O847 1.253 . S
C821 C822 1.379 . S
C821 N826 1.337 . S
C821 H827 0.929 . S
C822 C821 1.379 . S
C822 C823 1.380 . S
C822 H858 0.929 . S
C823 C822 1.380 . S
C823 C824 1.399 . S
C824 C823 1.399 . S
C824 C825 1.376 . S
C824 H859 0.931 . S
C825 C824 1.376 . S
C825 N826 1.338 . S
C825 H828 0.930 . S
N826 Cd811 2.304 . S
N826 C821 1.337 . S
N826 C825 1.338 . S
H827 C821 0.929 . S
H828 C825 0.930 . S
C829 N830 1.332 . S
C829 C833 1.381 . S
C829 H835 0.931 . S
N830 Cd811 2.334 . S
N830 C829 1.332 . S
N830 C834 1.328 . S
C831 C832 1.396 . S
C831 C834 1.378 . S
C831 H860 0.931 . S
C832 C831 1.396 . S
C832 C833 1.382 . S
C833 C829 1.381 . S
C833 C832 1.382 . S
C833 H861 0.930 . S
C834 N830 1.328 . S
C834 C831 1.378 . S
C834 H836 0.930 . S
H835 C829 0.931 . S
H836 C834 0.930 . S
C837 O848 1.238 . S
C837 O849 1.253 . S
C838 O850 1.239 . S
C838 O851 1.230 . S
N839 Cd810 2.304 . S
N839 C840 1.337 . S
N839 C844 1.338 1_556 S
C840 N839 1.337 . S
C840 C841 1.379 . S
C840 H854 0.929 . S
C841 C840 1.379 . S
C841 C842 1.380 1_556 S
C841 H862 0.929 . S
C842 C841 1.380 1_554 S
C842 C843 1.399 . S
C843 C842 1.399 . S
C843 C844 1.376 . S
C843 H863 0.931 . S
C844 N839 1.338 1_554 S
C844 C843 1.376 . S
C844 H855 0.930 . S
C845 O852 1.239 . S
C845 O853 1.230 . S
O846 Cd810 2.268 . S
O846 C820 1.238 . S
O847 Cd811 2.273 . S
O847 C820 1.253 . S
O848 Cd811 2.268 . S
O848 C837 1.238 . S
O849 Cd810 2.273 . S
O849 C837 1.253 . S
O850 Cd810 2.417 1_554 S
O850 C838 1.239 . S
O851 Cd810 2.330 1_554 S
O851 C838 1.230 . S
O852 Cd811 2.417 . S
O852 C845 1.239 . S
O853 Cd811 2.330 . S
O853 C845 1.230 . S
H854 C840 0.929 . S
H855 C844 0.930 . S
H856 C814 0.931 . S
H857 C816 0.930 . S
H858 C822 0.929 . S
H859 C824 0.931 . S
H860 C831 0.931 . S
H861 C833 0.930 . S
H862 C841 0.929 . S
H863 C843 0.931 . S
Cd864 N867 2.334 . S
Cd864 N893 2.304 . S
Cd864 O900 2.268 . S
Cd864 O903 2.273 . S
Cd864 O904 2.417 . S
Cd864 O905 2.330 . S
Cd865 N880 2.304 . S
Cd865 N884 2.334 . S
Cd865 O901 2.273 . S
Cd865 O902 2.268 . S
Cd865 O906 2.417 . S
Cd865 O907 2.330 . S
C866 N867 1.332 . S
C866 C870 1.381 . S
C866 H872 0.931 . S
N867 Cd864 2.334 . S
N867 C866 1.332 . S
N867 C871 1.328 . S
C868 C869 1.396 . S
C868 C871 1.378 . S
C868 H910 0.931 . S
C869 C868 1.396 . S
C869 C870 1.382 . S
C870 C866 1.381 . S
C870 C869 1.382 . S
C870 H911 0.930 . S
C871 N867 1.328 . S
C871 C868 1.378 . S
C871 H873 0.930 . S
H872 C866 0.931 . S
H873 C871 0.930 . S
C874 O900 1.238 . S
C874 O901 1.253 . S
C875 C876 1.379 . S
C875 N880 1.337 . S
C875 H881 0.929 . S
C876 C875 1.379 . S
C876 C877 1.380 . S
C876 H912 0.929 . S
C877 C876 1.380 . S
C877 C878 1.399 . S
C878 C877 1.399 . S
C878 C879 1.376 . S
C878 H913 0.931 . S
C879 C878 1.376 . S
C879 N880 1.338 . S
C879 H882 0.930 . S
N880 Cd865 2.304 . S
N880 C875 1.337 . S
N880 C879 1.338 . S
H881 C875 0.929 . S
H882 C879 0.930 . S
C883 N884 1.332 . S
C883 C887 1.381 . S
C883 H889 0.931 . S
N884 Cd865 2.334 . S
N884 C883 1.332 . S
N884 C888 1.328 . S
C885 C886 1.396 . S
C885 C888 1.378 . S
C885 H914 0.931 . S
C886 C885 1.396 . S
C886 C887 1.382 . S
C887 C883 1.381 . S
C887 C886 1.382 . S
C887 H915 0.930 . S
C888 N884 1.328 . S
C888 C885 1.378 . S
C888 H890 0.930 . S
H889 C883 0.931 . S
H890 C888 0.930 . S
C891 O902 1.238 . S
C891 O903 1.253 . S
C892 O904 1.239 . S
C892 O905 1.230 . S
N893 Cd864 2.304 . S
N893 C894 1.337 . S
N893 C898 1.338 . S
C894 N893 1.337 . S
C894 C895 1.379 . S
C894 H908 0.929 . S
C895 C894 1.379 . S
C895 C896 1.380 . S
C895 H916 0.929 . S
C896 C895 1.380 . S
C896 C897 1.399 . S
C897 C896 1.399 . S
C897 C898 1.376 . S
C897 H917 0.931 . S
C898 N893 1.338 . S
C898 C897 1.376 . S
C898 H909 0.930 . S
C899 O906 1.239 . S
C899 O907 1.230 . S
O900 Cd864 2.268 . S
O900 C874 1.238 . S
O901 Cd865 2.273 . S
O901 C874 1.253 . S
O902 Cd865 2.268 . S
O902 C891 1.238 . S
O903 Cd864 2.273 . S
O903 C891 1.253 . S
O904 Cd864 2.417 . S
O904 C892 1.239 . S
O905 Cd864 2.330 . S
O905 C892 1.230 . S
O906 Cd865 2.417 . S
O906 C899 1.239 . S
O907 Cd865 2.330 . S
O907 C899 1.230 . S
H908 C894 0.929 . S
H909 C898 0.930 . S
H910 C868 0.931 . S
H911 C870 0.930 . S
H912 C876 0.929 . S
H913 C878 0.931 . S
H914 C885 0.931 . S
H915 C887 0.930 . S
H916 C895 0.929 . S
H917 C897 0.931 . S
Cd918 N921 2.334 . S
Cd918 N947 2.304 . S
Cd918 O954 2.268 . S
Cd918 O957 2.273 . S
Cd918 O958 2.417 1_655 S
Cd918 O959 2.330 1_655 S
Cd919 N934 2.304 . S
Cd919 N938 2.334 . S
Cd919 O955 2.273 . S
Cd919 O956 2.268 . S
Cd919 O960 2.417 . S
Cd919 O961 2.330 . S
C920 N921 1.332 . S
C920 C924 1.381 . S
C920 H926 0.931 . S
N921 Cd918 2.334 . S
N921 C920 1.332 . S
N921 C925 1.328 . S
C922 C923 1.396 . S
C922 C925 1.378 . S
C922 H964 0.931 . S
C923 C922 1.396 . S
C923 C924 1.382 . S
C924 C920 1.381 . S
C924 C923 1.382 . S
C924 H965 0.930 . S
C925 N921 1.328 . S
C925 C922 1.378 . S
C925 H927 0.930 . S
H926 C920 0.931 . S
H927 C925 0.930 . S
C928 O954 1.238 . S
C928 O955 1.253 . S
C929 C930 1.379 . S
C929 N934 1.337 . S
C929 H935 0.929 . S
C930 C929 1.379 . S
C930 C931 1.380 . S
C930 H966 0.929 . S
C931 C930 1.380 . S
C931 C932 1.399 . S
C932 C931 1.399 . S
C932 C933 1.376 . S
C932 H967 0.931 . S
C933 C932 1.376 . S
C933 N934 1.338 . S
C933 H936 0.930 . S
N934 Cd919 2.304 . S
N934 C929 1.337 . S
N934 C933 1.338 . S
H935 C929 0.929 . S
H936 C933 0.930 . S
C937 N938 1.332 . S
C937 C941 1.381 . S
C937 H943 0.931 . S
N938 Cd919 2.334 . S
N938 C937 1.332 . S
N938 C942 1.328 . S
C939 C940 1.396 . S
C939 C942 1.378 . S
C939 H968 0.931 . S
C940 C939 1.396 . S
C940 C941 1.382 . S
C941 C937 1.381 . S
C941 C940 1.382 . S
C941 H969 0.930 . S
C942 N938 1.328 . S
C942 C939 1.378 . S
C942 H944 0.930 . S
H943 C937 0.931 . S
H944 C942 0.930 . S
C945 O956 1.238 . S
C945 O957 1.253 . S
C946 O958 1.239 . S
C946 O959 1.230 . S
N947 Cd918 2.304 . S
N947 C948 1.337 . S
N947 C952 1.338 1_655 S
C948 N947 1.337 . S
C948 C949 1.379 . S
C948 H962 0.929 . S
C949 C948 1.379 . S
C949 C950 1.380 1_655 S
C949 H970 0.929 . S
C950 C949 1.380 1_455 S
C950 C951 1.399 . S
C951 C950 1.399 . S
C951 C952 1.376 . S
C951 H971 0.931 . S
C952 N947 1.338 1_455 S
C952 C951 1.376 . S
C952 H963 0.930 . S
C953 O960 1.239 . S
C953 O961 1.230 . S
O954 Cd918 2.268 . S
O954 C928 1.238 . S
O955 Cd919 2.273 . S
O955 C928 1.253 . S
O956 Cd919 2.268 . S
O956 C945 1.238 . S
O957 Cd918 2.273 . S
O957 C945 1.253 . S
O958 Cd918 2.417 1_455 S
O958 C946 1.239 . S
O959 Cd918 2.330 1_455 S
O959 C946 1.230 . S
O960 Cd919 2.417 . S
O960 C953 1.239 . S
O961 Cd919 2.330 . S
O961 C953 1.230 . S
H962 C948 0.929 . S
H963 C952 0.930 . S
H964 C922 0.931 . S
H965 C924 0.930 . S
H966 C930 0.929 . S
H967 C932 0.931 . S
H968 C939 0.931 . S
H969 C941 0.930 . S
H970 C949 0.929 . S
H971 C951 0.931 . S
Cd972 N975 2.334 . S
Cd972 N1001 2.304 . S
Cd972 O1008 2.268 . S
Cd972 O1011 2.273 . S
Cd972 O1012 2.417 1_455 S
Cd972 O1013 2.330 1_455 S
Cd973 N988 2.304 . S
Cd973 N992 2.334 . S
Cd973 O1009 2.273 . S
Cd973 O1010 2.268 . S
Cd973 O1014 2.417 . S
Cd973 O1015 2.330 . S
C974 N975 1.332 . S
C974 C978 1.381 . S
C974 H980 0.931 . S
N975 Cd972 2.334 . S
N975 C974 1.332 . S
N975 C979 1.328 . S
C976 C977 1.396 . S
C976 C979 1.378 . S
C976 H1018 0.931 . S
C977 C976 1.396 . S
C977 C978 1.382 . S
C978 C974 1.381 . S
C978 C977 1.382 . S
C978 H1019 0.930 . S
C979 N975 1.328 . S
C979 C976 1.378 . S
C979 H981 0.930 . S
H980 C974 0.931 . S
H981 C979 0.930 . S
C982 O1008 1.238 . S
C982 O1009 1.253 . S
C983 C984 1.379 . S
C983 N988 1.337 . S
C983 H989 0.929 . S
C984 C983 1.379 . S
C984 C985 1.380 . S
C984 H1020 0.929 . S
C985 C984 1.380 . S
C985 C986 1.399 . S
C986 C985 1.399 . S
C986 C987 1.376 . S
C986 H1021 0.931 . S
C987 C986 1.376 . S
C987 N988 1.338 . S
C987 H990 0.930 . S
N988 Cd973 2.304 . S
N988 C983 1.337 . S
N988 C987 1.338 . S
H989 C983 0.929 . S
H990 C987 0.930 . S
C991 N992 1.332 . S
C991 C995 1.381 . S
C991 H997 0.931 . S
N992 Cd973 2.334 . S
N992 C991 1.332 . S
N992 C996 1.328 . S
C993 C994 1.396 . S
C993 C996 1.378 . S
C993 H1022 0.931 . S
C994 C993 1.396 . S
C994 C995 1.382 . S
C995 C991 1.381 . S
C995 C994 1.382 . S
C995 H1023 0.930 . S
C996 N992 1.328 . S
C996 C993 1.378 . S
C996 H998 0.930 . S
H997 C991 0.931 . S
H998 C996 0.930 . S
C999 O1010 1.238 . S
C999 O1011 1.253 . S
C1000 O1012 1.239 . S
C1000 O1013 1.230 . S
N1001 Cd972 2.304 . S
N1001 C1002 1.337 . S
N1001 C1006 1.338 1_455 S
C1002 N1001 1.337 . S
C1002 C1003 1.379 . S
C1002 H1016 0.929 . S
C1003 C1002 1.379 . S
C1003 C1004 1.380 1_455 S
C1003 H1024 0.929 . S
C1004 C1003 1.380 1_655 S
C1004 C1005 1.399 . S
C1005 C1004 1.399 . S
C1005 C1006 1.376 . S
C1005 H1025 0.931 . S
C1006 N1001 1.338 1_655 S
C1006 C1005 1.376 . S
C1006 H1017 0.930 . S
C1007 O1014 1.239 . S
C1007 O1015 1.230 . S
O1008 Cd972 2.268 . S
O1008 C982 1.238 . S
O1009 Cd973 2.273 . S
O1009 C982 1.253 . S
O1010 Cd973 2.268 . S
O1010 C999 1.238 . S
O1011 Cd972 2.273 . S
O1011 C999 1.253 . S
O1012 Cd972 2.417 1_655 S
O1012 C1000 1.239 . S
O1013 Cd972 2.330 1_655 S
O1013 C1000 1.230 . S
O1014 Cd973 2.417 . S
O1014 C1007 1.239 . S
O1015 Cd973 2.330 . S
O1015 C1007 1.230 . S
H1016 C1002 0.929 . S
H1017 C1006 0.930 . S
H1018 C976 0.931 . S
H1019 C978 0.930 . S
H1020 C984 0.929 . S
H1021 C986 0.931 . S
H1022 C993 0.931 . S
H1023 C995 0.930 . S
H1024 C1003 0.929 . S
H1025 C1005 0.931 . S
Cd1026 N1029 2.334 . S
Cd1026 N1055 2.304 . S
Cd1026 O1062 2.268 . S
Cd1026 O1065 2.273 . S
Cd1026 O1066 2.417 . S
Cd1026 O1067 2.330 . S
Cd1027 N1042 2.304 . S
Cd1027 N1046 2.334 . S
Cd1027 O1063 2.273 . S
Cd1027 O1064 2.268 . S
Cd1027 O1068 2.417 . S
Cd1027 O1069 2.330 . S
C1028 N1029 1.332 . S
C1028 C1032 1.381 . S
C1028 H1034 0.931 . S
N1029 Cd1026 2.334 . S
N1029 C1028 1.332 . S
N1029 C1033 1.328 . S
C1030 C1031 1.396 . S
C1030 C1033 1.378 . S
C1030 H1072 0.931 . S
C1031 C1030 1.396 . S
C1031 C1032 1.382 . S
C1032 C1028 1.381 . S
C1032 C1031 1.382 . S
C1032 H1073 0.930 . S
C1033 N1029 1.328 . S
C1033 C1030 1.378 . S
C1033 H1035 0.930 . S
H1034 C1028 0.931 . S
H1035 C1033 0.930 . S
C1036 O1062 1.238 . S
C1036 O1063 1.253 . S
C1037 C1038 1.379 . S
C1037 N1042 1.337 . S
C1037 H1043 0.929 . S
C1038 C1037 1.379 . S
C1038 C1039 1.380 . S
C1038 H1074 0.929 . S
C1039 C1038 1.380 . S
C1039 C1040 1.399 . S
C1040 C1039 1.399 . S
C1040 C1041 1.376 . S
C1040 H1075 0.931 . S
C1041 C1040 1.376 . S
C1041 N1042 1.338 . S
C1041 H1044 0.930 . S
N1042 Cd1027 2.304 . S
N1042 C1037 1.337 . S
N1042 C1041 1.338 . S
H1043 C1037 0.929 . S
H1044 C1041 0.930 . S
C1045 N1046 1.332 . S
C1045 C1049 1.381 . S
C1045 H1051 0.931 . S
N1046 Cd1027 2.334 . S
N1046 C1045 1.332 . S
N1046 C1050 1.328 . S
C1047 C1048 1.396 . S
C1047 C1050 1.378 . S
C1047 H1076 0.931 . S
C1048 C1047 1.396 . S
C1048 C1049 1.382 . S
C1049 C1045 1.381 . S
C1049 C1048 1.382 . S
C1049 H1077 0.930 . S
C1050 N1046 1.328 . S
C1050 C1047 1.378 . S
C1050 H1052 0.930 . S
H1051 C1045 0.931 . S
H1052 C1050 0.930 . S
C1053 O1064 1.238 . S
C1053 O1065 1.253 . S
C1054 O1066 1.239 . S
C1054 O1067 1.230 . S
N1055 Cd1026 2.304 . S
N1055 C1056 1.337 . S
N1055 C1060 1.338 . S
C1056 N1055 1.337 . S
C1056 C1057 1.379 . S
C1056 H1070 0.929 . S
C1057 C1056 1.379 . S
C1057 C1058 1.380 . S
C1057 H1078 0.929 . S
C1058 C1057 1.380 . S
C1058 C1059 1.399 . S
C1059 C1058 1.399 . S
C1059 C1060 1.376 . S
C1059 H1079 0.931 . S
C1060 N1055 1.338 . S
C1060 C1059 1.376 . S
C1060 H1071 0.930 . S
C1061 O1068 1.239 . S
C1061 O1069 1.230 . S
O1062 Cd1026 2.268 . S
O1062 C1036 1.238 . S
O1063 Cd1027 2.273 . S
O1063 C1036 1.253 . S
O1064 Cd1027 2.268 . S
O1064 C1053 1.238 . S
O1065 Cd1026 2.273 . S
O1065 C1053 1.253 . S
O1066 Cd1026 2.417 . S
O1066 C1054 1.239 . S
O1067 Cd1026 2.330 . S
O1067 C1054 1.230 . S
O1068 Cd1027 2.417 . S
O1068 C1061 1.239 . S
O1069 Cd1027 2.330 . S
O1069 C1061 1.230 . S
H1070 C1056 0.929 . S
H1071 C1060 0.930 . S
H1072 C1030 0.931 . S
H1073 C1032 0.930 . S
H1074 C1038 0.929 . S
H1075 C1040 0.931 . S
H1076 C1047 0.931 . S
H1077 C1049 0.930 . S
H1078 C1057 0.929 . S
H1079 C1059 0.931 . S
Cd1080 N1083 2.334 . S
Cd1080 N1109 2.304 . S
Cd1080 O1116 2.268 . S
Cd1080 O1119 2.273 . S
Cd1080 O1120 2.417 . S
Cd1080 O1121 2.330 . S
Cd1081 N1096 2.304 . S
Cd1081 N1100 2.334 . S
Cd1081 O1117 2.273 . S
Cd1081 O1118 2.268 . S
Cd1081 O1122 2.417 . S
Cd1081 O1123 2.330 . S
C1082 N1083 1.332 . S
C1082 C1086 1.381 . S
C1082 H1088 0.931 . S
N1083 Cd1080 2.334 . S
N1083 C1082 1.332 . S
N1083 C1087 1.328 . S
C1084 C1085 1.396 . S
C1084 C1087 1.378 . S
C1084 H1126 0.931 . S
C1085 C1084 1.396 . S
C1085 C1086 1.382 . S
C1086 C1082 1.381 . S
C1086 C1085 1.382 . S
C1086 H1127 0.930 . S
C1087 N1083 1.328 . S
C1087 C1084 1.378 . S
C1087 H1089 0.930 . S
H1088 C1082 0.931 . S
H1089 C1087 0.930 . S
C1090 O1116 1.238 . S
C1090 O1117 1.253 . S
C1091 C1092 1.379 . S
C1091 N1096 1.337 . S
C1091 H1097 0.929 . S
C1092 C1091 1.379 . S
C1092 C1093 1.380 . S
C1092 H1128 0.929 . S
C1093 C1092 1.380 . S
C1093 C1094 1.399 . S
C1094 C1093 1.399 . S
C1094 C1095 1.376 . S
C1094 H1129 0.931 . S
C1095 C1094 1.376 . S
C1095 N1096 1.338 . S
C1095 H1098 0.930 . S
N1096 Cd1081 2.304 . S
N1096 C1091 1.337 . S
N1096 C1095 1.338 . S
H1097 C1091 0.929 . S
H1098 C1095 0.930 . S
C1099 N1100 1.332 . S
C1099 C1103 1.381 . S
C1099 H1105 0.931 . S
N1100 Cd1081 2.334 . S
N1100 C1099 1.332 . S
N1100 C1104 1.328 . S
C1101 C1102 1.396 . S
C1101 C1104 1.378 . S
C1101 H1130 0.931 . S
C1102 C1101 1.396 . S
C1102 C1103 1.382 . S
C1103 C1099 1.381 . S
C1103 C1102 1.382 . S
C1103 H1131 0.930 . S
C1104 N1100 1.328 . S
C1104 C1101 1.378 . S
C1104 H1106 0.930 . S
H1105 C1099 0.931 . S
H1106 C1104 0.930 . S
C1107 O1118 1.238 . S
C1107 O1119 1.253 . S
C1108 O1120 1.239 . S
C1108 O1121 1.230 . S
N1109 Cd1080 2.304 . S
N1109 C1110 1.337 . S
N1109 C1114 1.338 . S
C1110 N1109 1.337 . S
C1110 C1111 1.379 . S
C1110 H1124 0.929 . S
C1111 C1110 1.379 . S
C1111 C1112 1.380 . S
C1111 H1132 0.929 . S
C1112 C1111 1.380 . S
C1112 C1113 1.399 . S
C1113 C1112 1.399 . S
C1113 C1114 1.376 . S
C1113 H1133 0.931 . S
C1114 N1109 1.338 . S
C1114 C1113 1.376 . S
C1114 H1125 0.930 . S
C1115 O1122 1.239 . S
C1115 O1123 1.230 . S
O1116 Cd1080 2.268 . S
O1116 C1090 1.238 . S
O1117 Cd1081 2.273 . S
O1117 C1090 1.253 . S
O1118 Cd1081 2.268 . S
O1118 C1107 1.238 . S
O1119 Cd1080 2.273 . S
O1119 C1107 1.253 . S
O1120 Cd1080 2.417 . S
O1120 C1108 1.239 . S
O1121 Cd1080 2.330 . S
O1121 C1108 1.230 . S
O1122 Cd1081 2.417 . S
O1122 C1115 1.239 . S
O1123 Cd1081 2.330 . S
O1123 C1115 1.230 . S
H1124 C1110 0.929 . S
H1125 C1114 0.930 . S
H1126 C1084 0.931 . S
H1127 C1086 0.930 . S
H1128 C1092 0.929 . S
H1129 C1094 0.931 . S
H1130 C1101 0.931 . S
H1131 C1103 0.930 . S
H1132 C1111 0.929 . S
H1133 C1113 0.931 . S
Cd1134 N1137 2.334 . S
Cd1134 N1163 2.304 . S
Cd1134 O1170 2.268 . S
Cd1134 O1173 2.273 . S
Cd1134 O1174 2.417 1_565 S
Cd1134 O1175 2.330 1_565 S
Cd1135 N1150 2.304 . S
Cd1135 N1154 2.334 . S
Cd1135 O1171 2.273 . S
Cd1135 O1172 2.268 . S
Cd1135 O1176 2.417 . S
Cd1135 O1177 2.330 . S
C1136 N1137 1.332 . S
C1136 C1140 1.381 . S
C1136 H1142 0.931 . S
N1137 Cd1134 2.334 . S
N1137 C1136 1.332 . S
N1137 C1141 1.328 . S
C1138 C1139 1.396 . S
C1138 C1141 1.378 . S
C1138 H1180 0.931 . S
C1139 C1138 1.396 . S
C1139 C1140 1.382 . S
C1140 C1136 1.381 . S
C1140 C1139 1.382 . S
C1140 H1181 0.930 . S
C1141 N1137 1.328 . S
C1141 C1138 1.378 . S
C1141 H1143 0.930 . S
H1142 C1136 0.931 . S
H1143 C1141 0.930 . S
C1144 O1170 1.238 . S
C1144 O1171 1.253 . S
C1145 C1146 1.379 . S
C1145 N1150 1.337 . S
C1145 H1151 0.929 . S
C1146 C1145 1.379 . S
C1146 C1147 1.380 . S
C1146 H1182 0.929 . S
C1147 C1146 1.380 . S
C1147 C1148 1.399 . S
C1148 C1147 1.399 . S
C1148 C1149 1.376 . S
C1148 H1183 0.931 . S
C1149 C1148 1.376 . S
C1149 N1150 1.338 . S
C1149 H1152 0.930 . S
N1150 Cd1135 2.304 . S
N1150 C1145 1.337 . S
N1150 C1149 1.338 . S
H1151 C1145 0.929 . S
H1152 C1149 0.930 . S
C1153 N1154 1.332 . S
C1153 C1157 1.381 . S
C1153 H1159 0.931 . S
N1154 Cd1135 2.334 . S
N1154 C1153 1.332 . S
N1154 C1158 1.328 . S
C1155 C1156 1.396 . S
C1155 C1158 1.378 . S
C1155 H1184 0.931 . S
C1156 C1155 1.396 . S
C1156 C1157 1.382 . S
C1157 C1153 1.381 . S
C1157 C1156 1.382 . S
C1157 H1185 0.930 . S
C1158 N1154 1.328 . S
C1158 C1155 1.378 . S
C1158 H1160 0.930 . S
H1159 C1153 0.931 . S
H1160 C1158 0.930 . S
C1161 O1172 1.238 . S
C1161 O1173 1.253 . S
C1162 O1174 1.239 . S
C1162 O1175 1.230 . S
N1163 Cd1134 2.304 . S
N1163 C1164 1.337 . S
N1163 C1168 1.338 1_565 S
C1164 N1163 1.337 . S
C1164 C1165 1.379 . S
C1164 H1178 0.929 . S
C1165 C1164 1.379 . S
C1165 C1166 1.380 1_565 S
C1165 H1186 0.929 . S
C1166 C1165 1.380 1_545 S
C1166 C1167 1.399 . S
C1167 C1166 1.399 . S
C1167 C1168 1.376 . S
C1167 H1187 0.931 . S
C1168 N1163 1.338 1_545 S
C1168 C1167 1.376 . S
C1168 H1179 0.930 . S
C1169 O1176 1.239 . S
C1169 O1177 1.230 . S
O1170 Cd1134 2.268 . S
O1170 C1144 1.238 . S
O1171 Cd1135 2.273 . S
O1171 C1144 1.253 . S
O1172 Cd1135 2.268 . S
O1172 C1161 1.238 . S
O1173 Cd1134 2.273 . S
O1173 C1161 1.253 . S
O1174 Cd1134 2.417 1_545 S
O1174 C1162 1.239 . S
O1175 Cd1134 2.330 1_545 S
O1175 C1162 1.230 . S
O1176 Cd1135 2.417 . S
O1176 C1169 1.239 . S
O1177 Cd1135 2.330 . S
O1177 C1169 1.230 . S
H1178 C1164 0.929 . S
H1179 C1168 0.930 . S
H1180 C1138 0.931 . S
H1181 C1140 0.930 . S
H1182 C1146 0.929 . S
H1183 C1148 0.931 . S
H1184 C1155 0.931 . S
H1185 C1157 0.930 . S
H1186 C1165 0.929 . S
H1187 C1167 0.931 . S
Cd1188 N1191 2.334 . S
Cd1188 N1217 2.304 . S
Cd1188 O1224 2.268 . S
Cd1188 O1227 2.273 . S
Cd1188 O1228 2.417 1_545 S
Cd1188 O1229 2.330 1_545 S
Cd1189 N1204 2.304 . S
Cd1189 N1208 2.334 . S
Cd1189 O1225 2.273 . S
Cd1189 O1226 2.268 . S
Cd1189 O1230 2.417 . S
Cd1189 O1231 2.330 . S
C1190 N1191 1.332 . S
C1190 C1194 1.381 . S
C1190 H1196 0.931 . S
N1191 Cd1188 2.334 . S
N1191 C1190 1.332 . S
N1191 C1195 1.328 . S
C1192 C1193 1.396 . S
C1192 C1195 1.378 . S
C1192 H1234 0.931 . S
C1193 C1192 1.396 . S
C1193 C1194 1.382 . S
C1194 C1190 1.381 . S
C1194 C1193 1.382 . S
C1194 H1235 0.930 . S
C1195 N1191 1.328 . S
C1195 C1192 1.378 . S
C1195 H1197 0.930 . S
H1196 C1190 0.931 . S
H1197 C1195 0.930 . S
C1198 O1224 1.238 . S
C1198 O1225 1.253 . S
C1199 C1200 1.379 . S
C1199 N1204 1.337 . S
C1199 H1205 0.929 . S
C1200 C1199 1.379 . S
C1200 C1201 1.380 . S
C1200 H1236 0.929 . S
C1201 C1200 1.380 . S
C1201 C1202 1.399 . S
C1202 C1201 1.399 . S
C1202 C1203 1.376 . S
C1202 H1237 0.931 . S
C1203 C1202 1.376 . S
C1203 N1204 1.338 . S
C1203 H1206 0.930 . S
N1204 Cd1189 2.304 . S
N1204 C1199 1.337 . S
N1204 C1203 1.338 . S
H1205 C1199 0.929 . S
H1206 C1203 0.930 . S
C1207 N1208 1.332 . S
C1207 C1211 1.381 . S
C1207 H1213 0.931 . S
N1208 Cd1189 2.334 . S
N1208 C1207 1.332 . S
N1208 C1212 1.328 . S
C1209 C1210 1.396 . S
C1209 C1212 1.378 . S
C1209 H1238 0.931 . S
C1210 C1209 1.396 . S
C1210 C1211 1.382 . S
C1211 C1207 1.381 . S
C1211 C1210 1.382 . S
C1211 H1239 0.930 . S
C1212 N1208 1.328 . S
C1212 C1209 1.378 . S
C1212 H1214 0.930 . S
H1213 C1207 0.931 . S
H1214 C1212 0.930 . S
C1215 O1226 1.238 . S
C1215 O1227 1.253 . S
C1216 O1228 1.239 . S
C1216 O1229 1.230 . S
N1217 Cd1188 2.304 . S
N1217 C1218 1.337 . S
N1217 C1222 1.338 1_545 S
C1218 N1217 1.337 . S
C1218 C1219 1.379 . S
C1218 H1232 0.929 . S
C1219 C1218 1.379 . S
C1219 C1220 1.380 1_545 S
C1219 H1240 0.929 . S
C1220 C1219 1.380 1_565 S
C1220 C1221 1.399 . S
C1221 C1220 1.399 . S
C1221 C1222 1.376 . S
C1221 H1241 0.931 . S
C1222 N1217 1.338 1_565 S
C1222 C1221 1.376 . S
C1222 H1233 0.930 . S
C1223 O1230 1.239 . S
C1223 O1231 1.230 . S
O1224 Cd1188 2.268 . S
O1224 C1198 1.238 . S
O1225 Cd1189 2.273 . S
O1225 C1198 1.253 . S
O1226 Cd1189 2.268 . S
O1226 C1215 1.238 . S
O1227 Cd1188 2.273 . S
O1227 C1215 1.253 . S
O1228 Cd1188 2.417 1_565 S
O1228 C1216 1.239 . S
O1229 Cd1188 2.330 1_565 S
O1229 C1216 1.230 . S
O1230 Cd1189 2.417 . S
O1230 C1223 1.239 . S
O1231 Cd1189 2.330 . S
O1231 C1223 1.230 . S
H1232 C1218 0.929 . S
H1233 C1222 0.930 . S
H1234 C1192 0.931 . S
H1235 C1194 0.930 . S
H1236 C1200 0.929 . S
H1237 C1202 0.931 . S
H1238 C1209 0.931 . S
H1239 C1211 0.930 . S
H1240 C1219 0.929 . S
H1241 C1221 0.931 . S
Cd1242 N1245 2.334 . S
Cd1242 N1271 2.304 . S
Cd1242 O1278 2.268 . S
Cd1242 O1281 2.273 . S
Cd1242 O1282 2.417 . S
Cd1242 O1283 2.330 . S
Cd1243 N1258 2.304 . S
Cd1243 N1262 2.334 . S
Cd1243 O1279 2.273 . S
Cd1243 O1280 2.268 . S
Cd1243 O1284 2.417 . S
Cd1243 O1285 2.330 . S
C1244 N1245 1.332 . S
C1244 C1248 1.381 . S
C1244 H1250 0.931 . S
N1245 Cd1242 2.334 . S
N1245 C1244 1.332 . S
N1245 C1249 1.328 . S
C1246 C1247 1.396 . S
C1246 C1249 1.378 . S
C1246 H1288 0.931 . S
C1247 C1246 1.396 . S
C1247 C1248 1.382 . S
C1248 C1244 1.381 . S
C1248 C1247 1.382 . S
C1248 H1289 0.930 . S
C1249 N1245 1.328 . S
C1249 C1246 1.378 . S
C1249 H1251 0.930 . S
H1250 C1244 0.931 . S
H1251 C1249 0.930 . S
C1252 O1278 1.238 . S
C1252 O1279 1.253 . S
C1253 C1254 1.379 . S
C1253 N1258 1.337 . S
C1253 H1259 0.929 . S
C1254 C1253 1.379 . S
C1254 C1255 1.380 . S
C1254 H1290 0.929 . S
C1255 C1254 1.380 . S
C1255 C1256 1.399 . S
C1256 C1255 1.399 . S
C1256 C1257 1.376 . S
C1256 H1291 0.931 . S
C1257 C1256 1.376 . S
C1257 N1258 1.338 . S
C1257 H1260 0.930 . S
N1258 Cd1243 2.304 . S
N1258 C1253 1.337 . S
N1258 C1257 1.338 . S
H1259 C1253 0.929 . S
H1260 C1257 0.930 . S
C1261 N1262 1.332 . S
C1261 C1265 1.381 . S
C1261 H1267 0.931 . S
N1262 Cd1243 2.334 . S
N1262 C1261 1.332 . S
N1262 C1266 1.328 . S
C1263 C1264 1.396 . S
C1263 C1266 1.378 . S
C1263 H1292 0.931 . S
C1264 C1263 1.396 . S
C1264 C1265 1.382 . S
C1265 C1261 1.381 . S
C1265 C1264 1.382 . S
C1265 H1293 0.930 . S
C1266 N1262 1.328 . S
C1266 C1263 1.378 . S
C1266 H1268 0.930 . S
H1267 C1261 0.931 . S
H1268 C1266 0.930 . S
C1269 O1280 1.238 . S
C1269 O1281 1.253 . S
C1270 O1282 1.239 . S
C1270 O1283 1.230 . S
N1271 Cd1242 2.304 . S
N1271 C1272 1.337 . S
N1271 C1276 1.338 . S
C1272 N1271 1.337 . S
C1272 C1273 1.379 . S
C1272 H1286 0.929 . S
C1273 C1272 1.379 . S
C1273 C1274 1.380 . S
C1273 H1294 0.929 . S
C1274 C1273 1.380 . S
C1274 C1275 1.399 . S
C1275 C1274 1.399 . S
C1275 C1276 1.376 . S
C1275 H1295 0.931 . S
C1276 N1271 1.338 . S
C1276 C1275 1.376 . S
C1276 H1287 0.930 . S
C1277 O1284 1.239 . S
C1277 O1285 1.230 . S
O1278 Cd1242 2.268 . S
O1278 C1252 1.238 . S
O1279 Cd1243 2.273 . S
O1279 C1252 1.253 . S
O1280 Cd1243 2.268 . S
O1280 C1269 1.238 . S
O1281 Cd1242 2.273 . S
O1281 C1269 1.253 . S
O1282 Cd1242 2.417 . S
O1282 C1270 1.239 . S
O1283 Cd1242 2.330 . S
O1283 C1270 1.230 . S
O1284 Cd1243 2.417 . S
O1284 C1277 1.239 . S
O1285 Cd1243 2.330 . S
O1285 C1277 1.230 . S
H1286 C1272 0.929 . S
H1287 C1276 0.930 . S
H1288 C1246 0.931 . S
H1289 C1248 0.930 . S
H1290 C1254 0.929 . S
H1291 C1256 0.931 . S
H1292 C1263 0.931 . S
H1293 C1265 0.930 . S
H1294 C1273 0.929 . S
H1295 C1275 0.931 . S
H1296 C1304 0.950 . S
H1297 C1309 0.950 . S
H1298 C1306 0.950 . S
H1299 C1308 0.950 . S
H1300 C1310 0.950 . S
H1301 C1312 0.950 . S
H1302 C1314 0.950 . S
H1303 C1315 0.950 . S
C1304 H1296 0.950 . S
C1304 C1305 1.386 . S
C1304 C1306 1.391 . S
C1305 C1304 1.386 . S
C1305 C1309 1.393 . S
C1306 H1298 0.950 . S
C1306 C1304 1.391 . S
C1306 C1307 1.400 . S
C1307 C1306 1.400 . S
C1307 C1308 1.398 . S
C1307 C1313 1.491 . S
C1308 H1299 0.950 . S
C1308 C1307 1.398 . S
C1308 C1309 1.391 . S
C1309 H1297 0.950 . S
C1309 C1305 1.393 . S
C1309 C1308 1.391 . S
C1310 H1300 0.950 . S
C1310 C1311 1.386 . S
C1310 C1312 1.391 . S
C1311 C1310 1.386 . S
C1311 C1315 1.393 . S
C1312 H1301 0.950 . S
C1312 C1310 1.391 . S
C1312 C1313 1.400 . S
C1313 C1307 1.491 . S
C1313 C1312 1.400 . S
C1313 C1314 1.398 . S
C1314 H1302 0.950 . S
C1314 C1313 1.398 . S
C1314 C1315 1.391 . S
C1315 H1303 0.950 . S
C1315 C1311 1.393 . S
C1315 C1314 1.391 . S
H1316 C1324 0.950 . S
H1317 C1329 0.950 . S
H1318 C1326 0.950 . S
H1319 C1328 0.950 . S
H1320 C1330 0.950 . S
H1321 C1332 0.950 . S
H1322 C1334 0.950 . S
H1323 C1335 0.950 . S
C1324 H1316 0.950 . S
C1324 C1325 1.386 . S
C1324 C1326 1.391 . S
C1325 C1324 1.386 . S
C1325 C1329 1.393 . S
C1326 H1318 0.950 . S
C1326 C1324 1.391 . S
C1326 C1327 1.400 . S
C1327 C1326 1.400 . S
C1327 C1328 1.398 . S
C1327 C1333 1.491 . S
C1328 H1319 0.950 . S
C1328 C1327 1.398 . S
C1328 C1329 1.391 . S
C1329 H1317 0.950 . S
C1329 C1325 1.393 . S
C1329 C1328 1.391 . S
C1330 H1320 0.950 . S
C1330 C1331 1.386 . S
C1330 C1332 1.391 . S
C1331 C1330 1.386 . S
C1331 C1335 1.393 . S
C1332 H1321 0.950 . S
C1332 C1330 1.391 . S
C1332 C1333 1.400 . S
C1333 C1327 1.491 . S
C1333 C1332 1.400 . S
C1333 C1334 1.398 . S
C1334 H1322 0.950 . S
C1334 C1333 1.398 . S
C1334 C1335 1.391 . S
C1335 H1323 0.950 . S
C1335 C1331 1.393 . S
C1335 C1334 1.391 . S
H1336 C1344 0.950 . S
H1337 C1349 0.950 . S
H1338 C1346 0.950 . S
H1339 C1348 0.950 . S
H1340 C1350 0.950 . S
H1341 C1352 0.950 . S
H1342 C1354 0.950 . S
H1343 C1355 0.950 . S
C1344 H1336 0.950 . S
C1344 C1345 1.386 . S
C1344 C1346 1.391 1_565 S
C1345 C1344 1.386 . S
C1345 C1349 1.393 . S
C1346 H1338 0.950 . S
C1346 C1344 1.391 1_545 S
C1346 C1347 1.400 . S
C1347 C1346 1.400 . S
C1347 C1348 1.398 1_545 S
C1347 C1353 1.491 . S
C1348 H1339 0.950 . S
C1348 C1347 1.398 1_565 S
C1348 C1349 1.391 . S
C1349 H1337 0.950 . S
C1349 C1345 1.393 . S
C1349 C1348 1.391 . S
C1350 H1340 0.950 . S
C1350 C1351 1.386 . S
C1350 C1352 1.391 . S
C1351 C1350 1.386 . S
C1351 C1355 1.393 . S
C1352 H1341 0.950 . S
C1352 C1350 1.391 . S
C1352 C1353 1.400 . S
C1353 C1347 1.491 . S
C1353 C1352 1.400 . S
C1353 C1354 1.398 . S
C1354 H1342 0.950 . S
C1354 C1353 1.398 . S
C1354 C1355 1.391 . S
C1355 H1343 0.950 . S
C1355 C1351 1.393 . S
C1355 C1354 1.391 . S
H1356 C1364 0.950 . S
H1357 C1369 0.950 . S
H1358 C1366 0.950 . S
H1359 C1368 0.950 . S
H1360 C1370 0.950 . S
H1361 C1372 0.950 . S
H1362 C1374 0.950 . S
H1363 C1375 0.950 . S
C1364 H1356 0.950 . S
C1364 C1365 1.386 . S
C1364 C1366 1.391 . S
C1365 C1364 1.386 . S
C1365 C1369 1.393 . S
C1366 H1358 0.950 . S
C1366 C1364 1.391 . S
C1366 C1367 1.400 . S
C1367 C1366 1.400 . S
C1367 C1368 1.398 . S
C1367 C1373 1.491 . S
C1368 H1359 0.950 . S
C1368 C1367 1.398 . S
C1368 C1369 1.391 . S
C1369 H1357 0.950 . S
C1369 C1365 1.393 . S
C1369 C1368 1.391 . S
C1370 H1360 0.950 . S
C1370 C1371 1.386 . S
C1370 C1372 1.391 1_545 S
C1371 C1370 1.386 . S
C1371 C1375 1.393 . S
C1372 H1361 0.950 . S
C1372 C1370 1.391 1_565 S
C1372 C1373 1.400 . S
C1373 C1367 1.491 . S
C1373 C1372 1.400 . S
C1373 C1374 1.398 1_565 S
C1374 H1362 0.950 . S
C1374 C1373 1.398 1_545 S
C1374 C1375 1.391 . S
C1375 H1363 0.950 . S
C1375 C1371 1.393 . S
C1375 C1374 1.391 . S
H1376 C1384 0.950 . S
H1377 C1389 0.950 . S
H1378 C1386 0.950 . S
H1379 C1388 0.950 . S
H1380 C1390 0.950 . S
H1381 C1392 0.950 . S
H1382 C1394 0.950 . S
H1383 C1395 0.950 . S
C1384 H1376 0.950 . S
C1384 C1385 1.386 . S
C1384 C1386 1.391 . S
C1385 C1384 1.386 . S
C1385 C1389 1.393 . S
C1386 H1378 0.950 . S
C1386 C1384 1.391 . S
C1386 C1387 1.400 . S
C1387 C1386 1.400 . S
C1387 C1388 1.398 . S
C1387 C1393 1.491 . S
C1388 H1379 0.950 . S
C1388 C1387 1.398 . S
C1388 C1389 1.391 . S
C1389 H1377 0.950 . S
C1389 C1385 1.393 . S
C1389 C1388 1.391 . S
C1390 H1380 0.950 . S
C1390 C1391 1.386 . S
C1390 C1392 1.391 . S
C1391 C1390 1.386 . S
C1391 C1395 1.393 . S
C1392 H1381 0.950 . S
C1392 C1390 1.391 . S
C1392 C1393 1.400 . S
C1393 C1387 1.491 . S
C1393 C1392 1.400 . S
C1393 C1394 1.398 . S
C1394 H1382 0.950 . S
C1394 C1393 1.398 . S
C1394 C1395 1.391 . S
C1395 H1383 0.950 . S
C1395 C1391 1.393 . S
C1395 C1394 1.391 . S
H1396 C1404 0.950 . S
H1397 C1409 0.950 . S
H1398 C1406 0.936 1_556 S
H1399 C1408 0.960 . S
H1400 C1410 0.950 . S
H1401 C1412 0.950 . S
H1402 C1414 0.950 . S
H1403 C1415 0.950 . S
C1404 H1396 0.950 . S
C1404 C1405 1.386 . S
C1404 C1406 1.422 . S
C1405 C1404 1.386 . S
C1405 C1409 1.393 . S
C1406 H1398 0.936 1_554 S
C1406 C1404 1.422 . S
C1406 C1407 1.384 1_554 S
C1407 C1406 1.384 1_556 S
C1407 C1408 1.409 . S
C1407 C1413 1.491 . S
C1408 H1399 0.960 . S
C1408 C1407 1.409 . S
C1408 C1409 1.370 1_556 S
C1409 H1397 0.950 . S
C1409 C1405 1.393 . S
C1409 C1408 1.370 1_554 S
C1410 H1400 0.950 . S
C1410 C1411 1.386 . S
C1410 C1412 1.391 . S
C1411 C1410 1.386 . S
C1411 C1415 1.393 . S
C1412 H1401 0.950 . S
C1412 C1410 1.391 . S
C1412 C1413 1.400 . S
C1413 C1407 1.491 . S
C1413 C1412 1.400 . S
C1413 C1414 1.398 . S
C1414 H1402 0.950 . S
C1414 C1413 1.398 . S
C1414 C1415 1.391 . S
C1415 H1403 0.950 . S
C1415 C1411 1.393 . S
C1415 C1414 1.391 . S
H1416 C1424 0.950 . S
H1417 C1429 0.950 . S
H1418 C1426 0.950 . S
H1419 C1428 0.950 . S
H1420 C1430 0.950 . S
H1421 C1432 0.950 . S
H1422 C1434 0.950 . S
H1423 C1435 0.950 . S
C1424 H1416 0.950 . S
C1424 C1425 1.386 . S
C1424 C1426 1.391 . S
C1425 C1424 1.386 . S
C1425 C1429 1.393 . S
C1426 H1418 0.950 . S
C1426 C1424 1.391 . S
C1426 C1427 1.400 . S
C1427 C1426 1.400 . S
C1427 C1428 1.398 . S
C1427 C1433 1.491 . S
C1428 H1419 0.950 . S
C1428 C1427 1.398 . S
C1428 C1429 1.391 . S
C1429 H1417 0.950 . S
C1429 C1425 1.393 . S
C1429 C1428 1.391 . S
C1430 H1420 0.950 . S
C1430 C1431 1.386 . S
C1430 C1432 1.391 . S
C1431 C1430 1.386 . S
C1431 C1435 1.393 . S
C1432 H1421 0.950 . S
C1432 C1430 1.391 . S
C1432 C1433 1.400 . S
C1433 C1427 1.491 . S
C1433 C1432 1.400 . S
C1433 C1434 1.398 . S
C1434 H1422 0.950 . S
C1434 C1433 1.398 . S
C1434 C1435 1.391 . S
C1435 H1423 0.950 . S
C1435 C1431 1.393 . S
C1435 C1434 1.391 . S
H1436 C1444 0.950 . S
H1437 C1449 0.950 . S
H1438 C1446 0.950 . S
H1439 C1448 0.950 . S
H1440 C1450 0.950 . S
H1441 C1452 0.950 . S
H1442 C1454 0.950 . S
H1443 C1455 0.950 . S
C1444 H1436 0.950 . S
C1444 C1445 1.386 . S
C1444 C1446 1.391 . S
C1445 C1444 1.386 . S
C1445 C1449 1.393 . S
C1446 H1438 0.950 . S
C1446 C1444 1.391 . S
C1446 C1447 1.400 1_556 S
C1447 C1446 1.400 1_554 S
C1447 C1448 1.398 . S
C1447 C1453 1.491 . S
C1448 H1439 0.950 . S
C1448 C1447 1.398 . S
C1448 C1449 1.391 1_554 S
C1449 H1437 0.950 . S
C1449 C1445 1.393 . S
C1449 C1448 1.391 1_556 S
C1450 H1440 0.950 . S
C1450 C1451 1.386 . S
C1450 C1452 1.391 . S
C1451 C1450 1.386 . S
C1451 C1455 1.393 . S
C1452 H1441 0.950 . S
C1452 C1450 1.391 . S
C1452 C1453 1.400 . S
C1453 C1447 1.491 . S
C1453 C1452 1.400 . S
C1453 C1454 1.398 . S
C1454 H1442 0.950 . S
C1454 C1453 1.398 . S
C1454 C1455 1.391 . S
C1455 H1443 0.950 . S
C1455 C1451 1.393 . S
C1455 C1454 1.391 . S
H1456 C1464 0.950 . S
H1457 C1469 0.950 . S
H1458 C1466 0.950 . S
H1459 C1468 0.950 . S
H1460 C1470 0.950 . S
H1461 C1472 0.950 . S
H1462 C1474 0.950 . S
H1463 C1475 0.950 . S
C1464 H1456 0.950 . S
C1464 C1465 1.386 . S
C1464 C1466 1.391 . S
C1465 C1464 1.386 . S
C1465 C1469 1.393 . S
C1466 H1458 0.950 . S
C1466 C1464 1.391 . S
C1466 C1467 1.400 . S
C1467 C1466 1.400 . S
C1467 C1468 1.398 . S
C1467 C1473 1.491 . S
C1468 H1459 0.950 . S
C1468 C1467 1.398 . S
C1468 C1469 1.391 . S
C1469 H1457 0.950 . S
C1469 C1465 1.393 . S
C1469 C1468 1.391 . S
C1470 H1460 0.950 . S
C1470 C1471 1.386 . S
C1470 C1472 1.391 . S
C1471 C1470 1.386 . S
C1471 C1475 1.393 . S
C1472 H1461 0.950 . S
C1472 C1470 1.391 . S
C1472 C1473 1.400 . S
C1473 C1467 1.491 . S
C1473 C1472 1.400 . S
C1473 C1474 1.398 . S
C1474 H1462 0.950 . S
C1474 C1473 1.398 . S
C1474 C1475 1.391 . S
C1475 H1463 0.950 . S
C1475 C1471 1.393 . S
C1475 C1474 1.391 . S
H1476 C1484 0.950 . S
H1477 C1489 0.950 . S
H1478 C1486 0.950 . S
H1479 C1488 0.951 1_655 S
H1480 C1490 0.950 . S
H1481 C1492 0.950 . S
H1482 C1494 0.950 . S
H1483 C1495 0.950 . S
C1484 H1476 0.950 . S
C1484 C1485 1.386 . S
C1484 C1486 1.391 1_455 S
C1485 C1484 1.386 . S
C1485 C1489 1.393 . S
C1486 H1478 0.950 . S
C1486 C1484 1.391 1_655 S
C1486 C1487 1.400 . S
C1487 C1486 1.400 . S
C1487 C1488 1.398 1_655 S
C1487 C1493 1.491 . S
C1488 H1479 0.951 1_455 S
C1488 C1487 1.398 1_455 S
C1488 C1489 1.391 . S
C1489 H1477 0.950 . S
C1489 C1485 1.393 . S
C1489 C1488 1.391 . S
C1490 H1480 0.950 . S
C1490 C1491 1.386 . S
C1490 C1492 1.391 . S
C1491 C1490 1.386 . S
C1491 C1495 1.393 . S
C1492 H1481 0.950 . S
C1492 C1490 1.391 . S
C1492 C1493 1.400 . S
C1493 C1487 1.491 . S
C1493 C1492 1.400 . S
C1493 C1494 1.398 . S
C1494 H1482 0.950 . S
C1494 C1493 1.398 . S
C1494 C1495 1.391 . S
C1495 H1483 0.950 . S
C1495 C1491 1.393 . S
C1495 C1494 1.391 . S
H1496 C1504 0.950 . S
H1497 C1509 0.950 . S
H1498 C1506 0.950 . S
H1499 C1508 0.950 . S
H1500 C1510 0.950 . S
H1501 C1512 0.950 . S
H1502 C1514 0.950 . S
H1503 C1515 0.950 . S
C1504 H1496 0.950 . S
C1504 C1505 1.386 . S
C1504 C1506 1.391 . S
C1505 C1504 1.386 . S
C1505 C1509 1.393 . S
C1506 H1498 0.950 . S
C1506 C1504 1.391 . S
C1506 C1507 1.400 . S
C1507 C1506 1.400 . S
C1507 C1508 1.398 . S
C1507 C1513 1.491 . S
C1508 H1499 0.950 . S
C1508 C1507 1.398 . S
C1508 C1509 1.391 . S
C1509 H1497 0.950 . S
C1509 C1505 1.393 . S
C1509 C1508 1.391 . S
C1510 H1500 0.950 . S
C1510 C1511 1.386 . S
C1510 C1512 1.391 . S
C1511 C1510 1.386 . S
C1511 C1515 1.393 . S
C1512 H1501 0.950 . S
C1512 C1510 1.391 . S
C1512 C1513 1.400 . S
C1513 C1507 1.491 . S
C1513 C1512 1.400 . S
C1513 C1514 1.398 . S
C1514 H1502 0.950 . S
C1514 C1513 1.398 . S
C1514 C1515 1.391 . S
C1515 H1503 0.950 . S
C1515 C1511 1.393 . S
C1515 C1514 1.391 . S
H1516 C1524 0.950 . S
H1517 C1529 0.950 . S
H1518 C1526 0.950 . S
H1519 C1528 0.950 . S
H1520 C1530 0.950 . S
H1521 C1532 0.950 . S
H1522 C1534 0.950 . S
H1523 C1535 0.950 . S
C1524 H1516 0.950 . S
C1524 C1525 1.386 . S
C1524 C1526 1.391 . S
C1525 C1524 1.386 . S
C1525 C1529 1.393 . S
C1526 H1518 0.950 . S
C1526 C1524 1.391 . S
C1526 C1527 1.400 1_655 S
C1527 C1526 1.400 1_455 S
C1527 C1528 1.398 . S
C1527 C1533 1.491 . S
C1528 H1519 0.950 . S
C1528 C1527 1.398 . S
C1528 C1529 1.391 1_455 S
C1529 H1517 0.950 . S
C1529 C1525 1.393 . S
C1529 C1528 1.391 1_655 S
C1530 H1520 0.950 . S
C1530 C1531 1.386 . S
C1530 C1532 1.391 . S
C1531 C1530 1.386 . S
C1531 C1535 1.393 . S
C1532 H1521 0.950 . S
C1532 C1530 1.391 . S
C1532 C1533 1.400 . S
C1533 C1527 1.491 . S
C1533 C1532 1.400 . S
C1533 C1534 1.398 . S
C1534 H1522 0.950 . S
C1534 C1533 1.398 . S
C1534 C1535 1.391 . S
C1535 H1523 0.950 . S
C1535 C1531 1.393 . S
C1535 C1534 1.391 . S
H1536 C1544 0.950 . S
H1537 C1549 0.950 . S
H1538 C1546 0.950 . S
H1539 C1548 0.950 . S
H1540 C1550 0.950 . S
H1541 C1552 0.950 . S
H1542 C1554 0.950 . S
H1543 C1555 0.950 . S
C1544 H1536 0.950 . S
C1544 C1545 1.386 . S
C1544 C1546 1.391 . S
C1545 C1544 1.386 . S
C1545 C1549 1.393 . S
C1546 H1538 0.950 . S
C1546 C1544 1.391 . S
C1546 C1547 1.400 . S
C1547 C1546 1.400 . S
C1547 C1548 1.398 . S
C1547 C1553 1.491 . S
C1548 H1539 0.950 . S
C1548 C1547 1.398 . S
C1548 C1549 1.391 . S
C1549 H1537 0.950 . S
C1549 C1545 1.393 . S
C1549 C1548 1.391 . S
C1550 H1540 0.950 . S
C1550 C1551 1.386 . S
C1550 C1552 1.391 . S
C1551 C1550 1.386 . S
C1551 C1555 1.393 . S
C1552 H1541 0.950 . S
C1552 C1550 1.391 . S
C1552 C1553 1.400 . S
C1553 C1547 1.491 . S
C1553 C1552 1.400 . S
C1553 C1554 1.398 . S
C1554 H1542 0.950 . S
C1554 C1553 1.398 . S
C1554 C1555 1.391 . S
C1555 H1543 0.950 . S
C1555 C1551 1.393 . S
C1555 C1554 1.391 . S
H1556 C1564 0.950 . S
H1557 C1569 0.950 . S
H1558 C1566 0.950 . S
H1559 C1568 0.950 . S
H1560 C1570 0.950 . S
H1561 C1572 0.950 . S
H1562 C1574 0.950 . S
H1563 C1575 0.950 . S
C1564 H1556 0.950 . S
C1564 C1565 1.386 . S
C1564 C1566 1.391 . S
C1565 C1564 1.386 . S
C1565 C1569 1.393 . S
C1566 H1558 0.950 . S
C1566 C1564 1.391 . S
C1566 C1567 1.400 . S
C1567 C1566 1.400 . S
C1567 C1568 1.398 . S
C1567 C1573 1.491 . S
C1568 H1559 0.950 . S
C1568 C1567 1.398 . S
C1568 C1569 1.391 . S
C1569 H1557 0.950 . S
C1569 C1565 1.393 . S
C1569 C1568 1.391 . S
C1570 H1560 0.950 . S
C1570 C1571 1.386 . S
C1570 C1572 1.391 . S
C1571 C1570 1.386 . S
C1571 C1575 1.393 . S
C1572 H1561 0.950 . S
C1572 C1570 1.391 . S
C1572 C1573 1.400 . S
C1573 C1567 1.491 . S
C1573 C1572 1.400 . S
C1573 C1574 1.398 . S
C1574 H1562 0.950 . S
C1574 C1573 1.398 . S
C1574 C1575 1.391 . S
C1575 H1563 0.950 . S
C1575 C1571 1.393 . S
C1575 C1574 1.391 . S
H1576 C1584 0.950 . S
H1577 C1589 0.950 . S
H1578 C1586 0.950 1_565 S
H1579 C1588 0.950 . S
H1580 C1590 0.950 . S
H1581 C1592 0.950 . S
H1582 C1594 0.950 . S
H1583 C1595 0.950 . S
C1584 H1576 0.950 . S
C1584 C1585 1.386 . S
C1584 C1586 1.391 . S
C1585 C1584 1.386 . S
C1585 C1589 1.393 . S
C1586 H1578 0.950 1_545 S
C1586 C1584 1.391 . S
C1586 C1587 1.400 1_545 S
C1587 C1586 1.400 1_565 S
C1587 C1588 1.398 . S
C1587 C1593 1.491 . S
C1588 H1579 0.950 . S
C1588 C1587 1.398 . S
C1588 C1589 1.391 1_565 S
C1589 H1577 0.950 . S
C1589 C1585 1.393 . S
C1589 C1588 1.391 1_545 S
C1590 H1580 0.950 . S
C1590 C1591 1.386 . S
C1590 C1592 1.391 . S
C1591 C1590 1.386 . S
C1591 C1595 1.393 . S
C1592 H1581 0.950 . S
C1592 C1590 1.391 . S
C1592 C1593 1.400 . S
C1593 C1587 1.491 . S
C1593 C1592 1.400 . S
C1593 C1594 1.398 . S
C1594 H1582 0.950 . S
C1594 C1593 1.398 . S
C1594 C1595 1.391 . S
C1595 H1583 0.950 . S
C1595 C1591 1.393 . S
C1595 C1594 1.391 . S
H1596 C1604 0.950 . S
H1597 C1609 0.950 . S
H1598 C1606 0.950 . S
H1599 C1608 0.950 . S
H1600 C1610 0.950 . S
H1601 C1612 0.950 . S
H1602 C1614 0.950 . S
H1603 C1615 0.950 . S
C1604 H1596 0.950 . S
C1604 C1605 1.386 . S
C1604 C1606 1.391 . S
C1605 C1604 1.386 . S
C1605 C1609 1.393 . S
C1606 H1598 0.950 . S
C1606 C1604 1.391 . S
C1606 C1607 1.400 . S
C1607 C1606 1.400 . S
C1607 C1608 1.398 . S
C1607 C1613 1.491 . S
C1608 H1599 0.950 . S
C1608 C1607 1.398 . S
C1608 C1609 1.391 . S
C1609 H1597 0.950 . S
C1609 C1605 1.393 . S
C1609 C1608 1.391 . S
C1610 H1600 0.950 . S
C1610 C1611 1.386 . S
C1610 C1612 1.391 . S
C1611 C1610 1.386 . S
C1611 C1615 1.393 . S
C1612 H1601 0.950 . S
C1612 C1610 1.391 . S
C1612 C1613 1.400 1_565 S
C1613 C1607 1.491 . S
C1613 C1612 1.400 1_545 S
C1613 C1614 1.398 . S
C1614 H1602 0.950 . S
C1614 C1613 1.398 . S
C1614 C1615 1.391 1_545 S
C1615 H1603 0.950 . S
C1615 C1611 1.393 . S
C1615 C1614 1.391 1_565 S
H1616 C1624 0.950 . S
H1617 C1629 0.950 . S
H1618 C1626 0.950 . S
H1619 C1628 0.950 . S
H1620 C1630 0.950 . S
H1621 C1632 0.950 . S
H1622 C1634 0.950 . S
H1623 C1635 0.950 . S
C1624 H1616 0.950 . S
C1624 C1625 1.386 . S
C1624 C1626 1.391 . S
C1625 C1624 1.386 . S
C1625 C1629 1.393 . S
C1626 H1618 0.950 . S
C1626 C1624 1.391 . S
C1626 C1627 1.400 . S
C1627 C1626 1.400 . S
C1627 C1628 1.398 . S
C1627 C1633 1.491 . S
C1628 H1619 0.950 . S
C1628 C1627 1.398 . S
C1628 C1629 1.391 . S
C1629 H1617 0.950 . S
C1629 C1625 1.393 . S
C1629 C1628 1.391 . S
C1630 H1620 0.950 . S
C1630 C1631 1.386 . S
C1630 C1632 1.391 . S
C1631 C1630 1.386 . S
C1631 C1635 1.393 . S
C1632 H1621 0.950 . S
C1632 C1630 1.391 . S
C1632 C1633 1.400 . S
C1633 C1627 1.491 . S
C1633 C1632 1.400 . S
C1633 C1634 1.398 . S
C1634 H1622 0.950 . S
C1634 C1633 1.398 . S
C1634 C1635 1.391 . S
C1635 H1623 0.950 . S
C1635 C1631 1.393 . S
C1635 C1634 1.391 . S
H1636 C1644 0.950 . S
H1637 C1649 0.950 . S
H1638 C1646 0.950 . S
H1639 C1648 0.950 . S
H1640 C1650 0.950 . S
H1641 C1652 0.950 . S
H1642 C1654 0.950 1_554 S
H1643 C1655 0.950 . S
C1644 H1636 0.950 . S
C1644 C1645 1.386 . S
C1644 C1646 1.391 . S
C1645 C1644 1.386 . S
C1645 C1649 1.393 . S
C1646 H1638 0.950 . S
C1646 C1644 1.391 . S
C1646 C1647 1.400 . S
C1647 C1646 1.400 . S
C1647 C1648 1.398 . S
C1647 C1653 1.491 . S
C1648 H1639 0.950 . S
C1648 C1647 1.398 . S
C1648 C1649 1.391 . S
C1649 H1637 0.950 . S
C1649 C1645 1.393 . S
C1649 C1648 1.391 . S
C1650 H1640 0.950 . S
C1650 C1651 1.386 . S
C1650 C1652 1.391 1_556 S
C1651 C1650 1.386 . S
C1651 C1655 1.393 . S
C1652 H1641 0.950 . S
C1652 C1650 1.391 1_554 S
C1652 C1653 1.400 . S
C1653 C1647 1.491 . S
C1653 C1652 1.400 . S
C1653 C1654 1.398 1_554 S
C1654 H1642 0.950 1_556 S
C1654 C1653 1.398 1_556 S
C1654 C1655 1.391 . S
C1655 H1643 0.950 . S
C1655 C1651 1.393 . S
C1655 C1654 1.391 . S
H1656 C1664 0.950 . S
H1657 C1669 0.950 . S
H1658 C1666 0.950 . S
H1659 C1668 0.950 . S
H1660 C1670 0.950 . S
H1661 C1672 0.950 . S
H1662 C1674 0.950 . S
H1663 C1675 0.950 . S
C1664 H1656 0.950 . S
C1664 C1665 1.386 . S
C1664 C1666 1.391 . S
C1665 C1664 1.386 . S
C1665 C1669 1.393 . S
C1666 H1658 0.950 . S
C1666 C1664 1.391 . S
C1666 C1667 1.400 . S
C1667 C1666 1.400 . S
C1667 C1668 1.398 . S
C1667 C1673 1.491 . S
C1668 H1659 0.950 . S
C1668 C1667 1.398 . S
C1668 C1669 1.391 . S
C1669 H1657 0.950 . S
C1669 C1665 1.393 . S
C1669 C1668 1.391 . S
C1670 H1660 0.950 . S
C1670 C1671 1.386 . S
C1670 C1672 1.391 . S
C1671 C1670 1.386 . S
C1671 C1675 1.393 . S
C1672 H1661 0.950 . S
C1672 C1670 1.391 . S
C1672 C1673 1.400 . S
C1673 C1667 1.491 . S
C1673 C1672 1.400 . S
C1673 C1674 1.398 . S
C1674 H1662 0.950 . S
C1674 C1673 1.398 . S
C1674 C1675 1.391 . S
C1675 H1663 0.950 . S
C1675 C1671 1.393 . S
C1675 C1674 1.391 . S
H1676 C1684 0.950 . S
H1677 C1689 0.950 . S
H1678 C1686 0.950 . S
H1679 C1688 0.950 1_556 S
H1680 C1690 0.950 . S
H1681 C1692 0.950 . S
H1682 C1694 0.950 . S
H1683 C1695 0.950 . S
C1684 H1676 0.950 . S
C1684 C1685 1.386 . S
C1684 C1686 1.391 1_554 S
C1685 C1684 1.386 . S
C1685 C1689 1.393 . S
C1686 H1678 0.950 . S
C1686 C1684 1.391 1_556 S
C1686 C1687 1.400 . S
C1687 C1686 1.400 . S
C1687 C1688 1.398 1_556 S
C1687 C1693 1.491 . S
C1688 H1679 0.950 1_554 S
C1688 C1687 1.398 1_554 S
C1688 C1689 1.391 . S
C1689 H1677 0.950 . S
C1689 C1685 1.393 . S
C1689 C1688 1.391 . S
C1690 H1680 0.950 . S
C1690 C1691 1.386 . S
C1690 C1692 1.391 . S
C1691 C1690 1.386 . S
C1691 C1695 1.393 . S
C1692 H1681 0.950 . S
C1692 C1690 1.391 . S
C1692 C1693 1.400 . S
C1693 C1687 1.491 . S
C1693 C1692 1.400 . S
C1693 C1694 1.398 . S
C1694 H1682 0.950 . S
C1694 C1693 1.398 . S
C1694 C1695 1.391 . S
C1695 H1683 0.950 . S
C1695 C1691 1.393 . S
C1695 C1694 1.391 . S
H1696 C1704 0.950 . S
H1697 C1709 0.950 . S
H1698 C1706 0.950 . S
H1699 C1708 0.950 . S
H1700 C1710 0.950 . S
H1701 C1712 0.950 . S
H1702 C1714 0.950 . S
H1703 C1715 0.950 . S
C1704 H1696 0.950 . S
C1704 C1705 1.386 . S
C1704 C1706 1.391 . S
C1705 C1704 1.386 . S
C1705 C1709 1.393 . S
C1706 H1698 0.950 . S
C1706 C1704 1.391 . S
C1706 C1707 1.400 . S
C1707 C1706 1.400 . S
C1707 C1708 1.398 . S
C1707 C1713 1.491 . S
C1708 H1699 0.950 . S
C1708 C1707 1.398 . S
C1708 C1709 1.391 . S
C1709 H1697 0.950 . S
C1709 C1705 1.393 . S
C1709 C1708 1.391 . S
C1710 H1700 0.950 . S
C1710 C1711 1.386 . S
C1710 C1712 1.391 . S
C1711 C1710 1.386 . S
C1711 C1715 1.393 . S
C1712 H1701 0.950 . S
C1712 C1710 1.391 . S
C1712 C1713 1.400 . S
C1713 C1707 1.491 . S
C1713 C1712 1.400 . S
C1713 C1714 1.398 . S
C1714 H1702 0.950 . S
C1714 C1713 1.398 . S
C1714 C1715 1.391 . S
C1715 H1703 0.950 . S
C1715 C1711 1.393 . S
C1715 C1714 1.391 . S
H1716 C1724 0.950 . S
H1717 C1729 0.950 . S
H1718 C1726 0.956 . S
H1719 C1728 0.950 . S
H1720 C1730 0.950 . S
H1721 C1732 0.950 . S
H1722 C1734 0.950 . S
H1723 C1735 0.950 . S
C1724 H1716 0.950 . S
C1724 C1725 1.386 . S
C1724 C1726 1.391 . S
C1725 C1724 1.386 . S
C1725 C1729 1.393 . S
C1726 H1718 0.956 . S
C1726 C1724 1.391 . S
C1726 C1727 1.400 1_655 S
C1727 C1726 1.400 1_455 S
C1727 C1728 1.398 . S
C1727 C1733 1.491 . S
C1728 H1719 0.950 . S
C1728 C1727 1.398 . S
C1728 C1729 1.391 1_455 S
C1729 H1717 0.950 . S
C1729 C1725 1.393 . S
C1729 C1728 1.391 1_655 S
C1730 H1720 0.950 . S
C1730 C1731 1.386 . S
C1730 C1732 1.391 . S
C1731 C1730 1.386 . S
C1731 C1735 1.393 . S
C1732 H1721 0.950 . S
C1732 C1730 1.391 . S
C1732 C1733 1.400 . S
C1733 C1727 1.491 . S
C1733 C1732 1.400 . S
C1733 C1734 1.398 . S
C1734 H1722 0.950 . S
C1734 C1733 1.398 . S
C1734 C1735 1.391 . S
C1735 H1723 0.950 . S
C1735 C1731 1.393 . S
C1735 C1734 1.391 . S
H1736 C1744 0.950 . S
H1737 C1749 0.950 . S
H1738 C1746 0.950 . S
H1739 C1748 0.950 . S
H1740 C1750 0.950 . S
H1741 C1752 0.950 . S
H1742 C1754 0.950 . S
H1743 C1755 0.950 . S
C1744 H1736 0.950 . S
C1744 C1745 1.386 . S
C1744 C1746 1.391 . S
C1745 C1744 1.386 . S
C1745 C1749 1.393 . S
C1746 H1738 0.950 . S
C1746 C1744 1.391 . S
C1746 C1747 1.400 . S
C1747 C1746 1.400 . S
C1747 C1748 1.398 . S
C1747 C1753 1.491 . S
C1748 H1739 0.950 . S
C1748 C1747 1.398 . S
C1748 C1749 1.391 . S
C1749 H1737 0.950 . S
C1749 C1745 1.393 . S
C1749 C1748 1.391 . S
C1750 H1740 0.950 . S
C1750 C1751 1.386 . S
C1750 C1752 1.391 . S
C1751 C1750 1.386 . S
C1751 C1755 1.393 . S
C1752 H1741 0.950 . S
C1752 C1750 1.391 . S
C1752 C1753 1.400 . S
C1753 C1747 1.491 . S
C1753 C1752 1.400 . S
C1753 C1754 1.398 . S
C1754 H1742 0.950 . S
C1754 C1753 1.398 . S
C1754 C1755 1.391 . S
C1755 H1743 0.950 . S
C1755 C1751 1.393 . S
C1755 C1754 1.391 . S
H1756 C1764 0.950 . S
H1757 C1769 0.950 . S
H1758 C1766 0.950 . S
H1759 C1768 0.950 . S
H1760 C1770 0.950 . S
H1761 C1772 0.950 . S
H1762 C1774 0.950 1_655 S
H1763 C1775 0.950 . S
C1764 H1756 0.950 . S
C1764 C1765 1.386 . S
C1764 C1766 1.391 . S
C1765 C1764 1.386 . S
C1765 C1769 1.393 . S
C1766 H1758 0.950 . S
C1766 C1764 1.391 . S
C1766 C1767 1.400 . S
C1767 C1766 1.400 . S
C1767 C1768 1.398 . S
C1767 C1773 1.491 . S
C1768 H1759 0.950 . S
C1768 C1767 1.398 . S
C1768 C1769 1.391 . S
C1769 H1757 0.950 . S
C1769 C1765 1.393 . S
C1769 C1768 1.391 . S
C1770 H1760 0.950 . S
C1770 C1771 1.386 . S
C1770 C1772 1.391 1_455 S
C1771 C1770 1.386 . S
C1771 C1775 1.393 . S
C1772 H1761 0.950 . S
C1772 C1770 1.391 1_655 S
C1772 C1773 1.400 . S
C1773 C1767 1.491 . S
C1773 C1772 1.400 . S
C1773 C1774 1.398 1_655 S
C1774 H1762 0.950 1_455 S
C1774 C1773 1.398 1_455 S
C1774 C1775 1.391 . S
C1775 H1763 0.950 . S
C1775 C1771 1.393 . S
C1775 C1774 1.391 . S
H1776 C1784 0.950 . S
H1777 C1789 0.950 . S
H1778 C1786 0.950 . S
H1779 C1788 0.950 . S
H1780 C1790 0.950 . S
H1781 C1792 0.950 . S
H1782 C1794 0.950 . S
H1783 C1795 0.950 . S
C1784 H1776 0.950 . S
C1784 C1785 1.386 . S
C1784 C1786 1.391 . S
C1785 C1784 1.386 . S
C1785 C1789 1.393 . S
C1786 H1778 0.950 . S
C1786 C1784 1.391 . S
C1786 C1787 1.400 . S
C1787 C1786 1.400 . S
C1787 C1788 1.398 . S
C1787 C1793 1.491 . S
C1788 H1779 0.950 . S
C1788 C1787 1.398 . S
C1788 C1789 1.391 . S
C1789 H1777 0.950 . S
C1789 C1785 1.393 . S
C1789 C1788 1.391 . S
C1790 H1780 0.950 . S
C1790 C1791 1.386 . S
C1790 C1792 1.391 . S
C1791 C1790 1.386 . S
C1791 C1795 1.393 . S
C1792 H1781 0.950 . S
C1792 C1790 1.391 . S
C1792 C1793 1.400 . S
C1793 C1787 1.491 . S
C1793 C1792 1.400 . S
C1793 C1794 1.398 . S
C1794 H1782 0.950 . S
C1794 C1793 1.398 . S
C1794 C1795 1.391 . S
C1795 H1783 0.950 . S
C1795 C1791 1.393 . S
C1795 C1794 1.391 . S
H1796 C1804 0.950 . S
H1797 C1809 0.950 . S
H1798 C1806 0.950 . S
H1799 C1808 0.950 . S
H1800 C1810 0.950 . S
H1801 C1812 0.950 . S
H1802 C1814 0.950 . S
H1803 C1815 0.950 . S
C1804 H1796 0.950 . S
C1804 C1805 1.386 . S
C1804 C1806 1.391 . S
C1805 C1804 1.386 . S
C1805 C1809 1.393 . S
C1806 H1798 0.950 . S
C1806 C1804 1.391 . S
C1806 C1807 1.400 . S
C1807 C1806 1.400 . S
C1807 C1808 1.398 . S
C1807 C1813 1.491 . S
C1808 H1799 0.950 . S
C1808 C1807 1.398 . S
C1808 C1809 1.391 . S
C1809 H1797 0.950 . S
C1809 C1805 1.393 . S
C1809 C1808 1.391 . S
C1810 H1800 0.950 . S
C1810 C1811 1.386 . S
C1810 C1812 1.391 . S
C1811 C1810 1.386 . S
C1811 C1815 1.393 . S
C1812 H1801 0.950 . S
C1812 C1810 1.391 . S
C1812 C1813 1.400 . S
C1813 C1807 1.491 . S
C1813 C1812 1.400 . S
C1813 C1814 1.398 . S
C1814 H1802 0.950 . S
C1814 C1813 1.398 . S
C1814 C1815 1.391 . S
C1815 H1803 0.950 . S
C1815 C1811 1.393 . S
C1815 C1814 1.391 . S
H1816 C1824 0.950 . S
H1817 C1829 0.950 . S
H1818 C1826 0.950 . S
H1819 C1828 0.950 . S
H1820 C1830 0.950 . S
H1821 C1832 0.950 . S
H1822 C1834 0.950 . S
H1823 C1835 0.950 . S
C1824 H1816 0.950 . S
C1824 C1825 1.386 . S
C1824 C1826 1.391 . S
C1825 C1824 1.386 . S
C1825 C1829 1.393 . S
C1826 H1818 0.950 . S
C1826 C1824 1.391 . S
C1826 C1827 1.400 . S
C1827 C1826 1.400 . S
C1827 C1828 1.398 . S
C1827 C1833 1.491 . S
C1828 H1819 0.950 . S
C1828 C1827 1.398 . S
C1828 C1829 1.391 . S
C1829 H1817 0.950 . S
C1829 C1825 1.393 . S
C1829 C1828 1.391 . S
C1830 H1820 0.950 . S
C1830 C1831 1.386 . S
C1830 C1832 1.391 . S
C1831 C1830 1.386 . S
C1831 C1835 1.393 . S
C1832 H1821 0.950 . S
C1832 C1830 1.391 . S
C1832 C1833 1.400 . S
C1833 C1827 1.491 . S
C1833 C1832 1.400 . S
C1833 C1834 1.398 . S
C1834 H1822 0.950 . S
C1834 C1833 1.398 . S
C1834 C1835 1.391 . S
C1835 H1823 0.950 . S
C1835 C1831 1.393 . S
C1835 C1834 1.391 . S
H1836 C1844 0.950 . S
H1837 C1849 0.950 . S
H1838 C1846 0.950 . S
H1839 C1848 0.950 . S
H1840 C1850 0.950 . S
H1841 C1852 0.950 . S
H1842 C1854 0.950 . S
H1843 C1855 0.950 . S
C1844 H1836 0.950 . S
C1844 C1845 1.386 . S
C1844 C1846 1.391 . S
C1845 C1844 1.386 . S
C1845 C1849 1.393 . S
C1846 H1838 0.950 . S
C1846 C1844 1.391 . S
C1846 C1847 1.400 . S
C1847 C1846 1.400 . S
C1847 C1848 1.398 . S
C1847 C1853 1.491 . S
C1848 H1839 0.950 . S
C1848 C1847 1.398 . S
C1848 C1849 1.391 . S
C1849 H1837 0.950 . S
C1849 C1845 1.393 . S
C1849 C1848 1.391 . S
C1850 H1840 0.950 . S
C1850 C1851 1.386 . S
C1850 C1852 1.391 . S
C1851 C1850 1.386 . S
C1851 C1855 1.393 . S
C1852 H1841 0.950 . S
C1852 C1850 1.391 . S
C1852 C1853 1.400 . S
C1853 C1847 1.491 . S
C1853 C1852 1.400 . S
C1853 C1854 1.398 . S
C1854 H1842 0.950 . S
C1854 C1853 1.398 . S
C1854 C1855 1.391 . S
C1855 H1843 0.950 . S
C1855 C1851 1.393 . S
C1855 C1854 1.391 . S
H1856 C1864 0.950 . S
H1857 C1869 0.950 . S
H1858 C1866 0.950 . S
H1859 C1868 0.950 . S
H1860 C1870 0.950 . S
H1861 C1872 0.950 . S
H1862 C1874 0.950 . S
H1863 C1875 0.950 . S
C1864 H1856 0.950 . S
C1864 C1865 1.386 . S
C1864 C1866 1.391 . S
C1865 C1864 1.386 . S
C1865 C1869 1.393 . S
C1866 H1858 0.950 . S
C1866 C1864 1.391 . S
C1866 C1867 1.400 . S
C1867 C1866 1.400 . S
C1867 C1868 1.398 . S
C1867 C1873 1.491 . S
C1868 H1859 0.950 . S
C1868 C1867 1.398 . S
C1868 C1869 1.391 . S
C1869 H1857 0.950 . S
C1869 C1865 1.393 . S
C1869 C1868 1.391 . S
C1870 H1860 0.950 . S
C1870 C1871 1.386 . S
C1870 C1872 1.391 . S
C1871 C1870 1.386 . S
C1871 C1875 1.393 . S
C1872 H1861 0.950 . S
C1872 C1870 1.391 . S
C1872 C1873 1.400 . S
C1873 C1867 1.491 . S
C1873 C1872 1.400 . S
C1873 C1874 1.398 . S
C1874 H1862 0.950 . S
C1874 C1873 1.398 . S
C1874 C1875 1.391 . S
C1875 H1863 0.950 . S
C1875 C1871 1.393 . S
C1875 C1874 1.391 . S
H1876 C1884 0.950 . S
H1877 C1889 0.950 . S
H1878 C1886 0.950 . S
H1879 C1888 0.950 . S
H1880 C1890 0.950 . S
H1881 C1892 0.950 . S
H1882 C1894 0.950 . S
H1883 C1895 0.950 . S
C1884 H1876 0.950 . S
C1884 C1885 1.386 . S
C1884 C1886 1.391 . S
C1885 C1884 1.386 . S
C1885 C1889 1.393 . S
C1886 H1878 0.950 . S
C1886 C1884 1.391 . S
C1886 C1887 1.400 . S
C1887 C1886 1.400 . S
C1887 C1888 1.398 . S
C1887 C1893 1.491 . S
C1888 H1879 0.950 . S
C1888 C1887 1.398 . S
C1888 C1889 1.391 . S
C1889 H1877 0.950 . S
C1889 C1885 1.393 . S
C1889 C1888 1.391 . S
C1890 H1880 0.950 . S
C1890 C1891 1.386 . S
C1890 C1892 1.391 . S
C1891 C1890 1.386 . S
C1891 C1895 1.393 . S
C1892 H1881 0.950 . S
C1892 C1890 1.391 . S
C1892 C1893 1.400 . S
C1893 C1887 1.491 . S
C1893 C1892 1.400 . S
C1893 C1894 1.398 . S
C1894 H1882 0.950 . S
C1894 C1893 1.398 . S
C1894 C1895 1.391 . S
C1895 H1883 0.950 . S
C1895 C1891 1.393 . S
C1895 C1894 1.391 . S
H1896 C1904 0.950 . S
H1897 C1909 0.950 . S
H1898 C1906 0.950 . S
H1899 C1908 0.950 . S
H1900 C1910 0.950 . S
H1901 C1912 0.950 . S
H1902 C1914 0.950 . S
H1903 C1915 0.950 . S
C1904 H1896 0.950 . S
C1904 C1905 1.386 . S
C1904 C1906 1.391 . S
C1905 C1904 1.386 . S
C1905 C1909 1.393 . S
C1906 H1898 0.950 . S
C1906 C1904 1.391 . S
C1906 C1907 1.400 . S
C1907 C1906 1.400 . S
C1907 C1908 1.398 . S
C1907 C1913 1.491 . S
C1908 H1899 0.950 . S
C1908 C1907 1.398 . S
C1908 C1909 1.391 . S
C1909 H1897 0.950 . S
C1909 C1905 1.393 . S
C1909 C1908 1.391 . S
C1910 H1900 0.950 . S
C1910 C1911 1.386 . S
C1910 C1912 1.391 . S
C1911 C1910 1.386 . S
C1911 C1915 1.393 . S
C1912 H1901 0.950 . S
C1912 C1910 1.391 . S
C1912 C1913 1.400 . S
C1913 C1907 1.491 . S
C1913 C1912 1.400 . S
C1913 C1914 1.398 . S
C1914 H1902 0.950 . S
C1914 C1913 1.398 . S
C1914 C1915 1.391 . S
C1915 H1903 0.950 . S
C1915 C1911 1.393 . S
C1915 C1914 1.391 . S
H1916 C1924 0.950 . S
H1917 C1929 0.950 . S
H1918 C1926 0.950 . S
H1919 C1928 0.950 . S
H1920 C1930 0.950 . S
H1921 C1932 0.950 . S
H1922 C1934 0.950 . S
H1923 C1935 0.950 . S
C1924 H1916 0.950 . S
C1924 C1925 1.386 . S
C1924 C1926 1.391 . S
C1925 C1924 1.386 . S
C1925 C1929 1.393 . S
C1926 H1918 0.950 . S
C1926 C1924 1.391 . S
C1926 C1927 1.400 . S
C1927 C1926 1.400 . S
C1927 C1928 1.398 . S
C1927 C1933 1.491 . S
C1928 H1919 0.950 . S
C1928 C1927 1.398 . S
C1928 C1929 1.391 . S
C1929 H1917 0.950 . S
C1929 C1925 1.393 . S
C1929 C1928 1.391 . S
C1930 H1920 0.950 . S
C1930 C1931 1.386 . S
C1930 C1932 1.391 . S
C1931 C1930 1.386 . S
C1931 C1935 1.393 . S
C1932 H1921 0.950 . S
C1932 C1930 1.391 . S
C1932 C1933 1.400 . S
C1933 C1927 1.491 . S
C1933 C1932 1.400 . S
C1933 C1934 1.398 . S
C1934 H1922 0.950 . S
C1934 C1933 1.398 . S
C1934 C1935 1.391 . S
C1935 H1923 0.950 . S
C1935 C1931 1.393 . S
C1935 C1934 1.391 . S
H1936 C1944 0.950 . S
H1937 C1949 0.950 . S
H1938 C1946 0.950 . S
H1939 C1948 0.950 . S
H1940 C1950 0.950 . S
H1941 C1952 0.950 . S
H1942 C1954 0.950 . S
H1943 C1955 0.950 . S
C1944 H1936 0.950 . S
C1944 C1945 1.386 . S
C1944 C1946 1.391 . S
C1945 C1944 1.386 . S
C1945 C1949 1.393 . S
C1946 H1938 0.950 . S
C1946 C1944 1.391 . S
C1946 C1947 1.400 . S
C1947 C1946 1.400 . S
C1947 C1948 1.398 . S
C1947 C1953 1.491 . S
C1948 H1939 0.950 . S
C1948 C1947 1.398 . S
C1948 C1949 1.391 . S
C1949 H1937 0.950 . S
C1949 C1945 1.393 . S
C1949 C1948 1.391 . S
C1950 H1940 0.950 . S
C1950 C1951 1.386 . S
C1950 C1952 1.391 . S
C1951 C1950 1.386 . S
C1951 C1955 1.393 . S
C1952 H1941 0.950 . S
C1952 C1950 1.391 . S
C1952 C1953 1.400 . S
C1953 C1947 1.491 . S
C1953 C1952 1.400 . S
C1953 C1954 1.398 . S
C1954 H1942 0.950 . S
C1954 C1953 1.398 . S
C1954 C1955 1.391 . S
C1955 H1943 0.950 . S
C1955 C1951 1.393 . S
C1955 C1954 1.391 . S
H1956 C1964 0.950 . S
H1957 C1969 0.950 . S
H1958 C1966 0.950 . S
H1959 C1968 0.950 . S
H1960 C1970 0.950 . S
H1961 C1972 0.950 . S
H1962 C1974 0.950 . S
H1963 C1975 0.950 . S
C1964 H1956 0.950 . S
C1964 C1965 1.386 . S
C1964 C1966 1.391 . S
C1965 C1964 1.386 . S
C1965 C1969 1.393 . S
C1966 H1958 0.950 . S
C1966 C1964 1.391 . S
C1966 C1967 1.400 . S
C1967 C1966 1.400 . S
C1967 C1968 1.398 . S
C1967 C1973 1.491 . S
C1968 H1959 0.950 . S
C1968 C1967 1.398 . S
C1968 C1969 1.391 . S
C1969 H1957 0.950 . S
C1969 C1965 1.393 . S
C1969 C1968 1.391 . S
C1970 H1960 0.950 . S
C1970 C1971 1.386 . S
C1970 C1972 1.391 . S
C1971 C1970 1.386 . S
C1971 C1975 1.393 . S
C1972 H1961 0.950 . S
C1972 C1970 1.391 . S
C1972 C1973 1.400 . S
C1973 C1967 1.491 . S
C1973 C1972 1.400 . S
C1973 C1974 1.398 . S
C1974 H1962 0.950 . S
C1974 C1973 1.398 . S
C1974 C1975 1.391 . S
C1975 H1963 0.950 . S
C1975 C1971 1.393 . S
C1975 C1974 1.391 . S
H1976 C1984 0.950 . S
H1977 C1989 0.950 . S
H1978 C1986 0.950 . S
H1979 C1988 0.950 . S
H1980 C1990 0.950 . S
H1981 C1992 0.950 . S
H1982 C1994 0.950 . S
H1983 C1995 0.950 . S
C1984 H1976 0.950 . S
C1984 C1985 1.386 . S
C1984 C1986 1.391 . S
C1985 C1984 1.386 . S
C1985 C1989 1.393 . S
C1986 H1978 0.950 . S
C1986 C1984 1.391 . S
C1986 C1987 1.400 . S
C1987 C1986 1.400 . S
C1987 C1988 1.398 . S
C1987 C1993 1.491 . S
C1988 H1979 0.950 . S
C1988 C1987 1.398 . S
C1988 C1989 1.391 . S
C1989 H1977 0.950 . S
C1989 C1985 1.393 . S
C1989 C1988 1.391 . S
C1990 H1980 0.950 . S
C1990 C1991 1.386 . S
C1990 C1992 1.391 . S
C1991 C1990 1.386 . S
C1991 C1995 1.393 . S
C1992 H1981 0.950 . S
C1992 C1990 1.391 . S
C1992 C1993 1.400 . S
C1993 C1987 1.491 . S
C1993 C1992 1.400 . S
C1993 C1994 1.398 . S
C1994 H1982 0.950 . S
C1994 C1993 1.398 . S
C1994 C1995 1.391 . S
C1995 H1983 0.950 . S
C1995 C1991 1.393 . S
C1995 C1994 1.391 . S
H1996 C2004 0.950 . S
H1997 C2009 0.950 . S
H1998 C2006 0.950 . S
H1999 C2008 0.950 . S
H2000 C2010 0.950 . S
H2001 C2012 0.950 . S
H2002 C2014 0.950 . S
H2003 C2015 0.950 . S
C2004 H1996 0.950 . S
C2004 C2005 1.386 . S
C2004 C2006 1.391 . S
C2005 C2004 1.386 . S
C2005 C2009 1.393 . S
C2006 H1998 0.950 . S
C2006 C2004 1.391 . S
C2006 C2007 1.400 . S
C2007 C2006 1.400 . S
C2007 C2008 1.398 . S
C2007 C2013 1.491 . S
C2008 H1999 0.950 . S
C2008 C2007 1.398 . S
C2008 C2009 1.391 . S
C2009 H1997 0.950 . S
C2009 C2005 1.393 . S
C2009 C2008 1.391 . S
C2010 H2000 0.950 . S
C2010 C2011 1.386 . S
C2010 C2012 1.391 . S
C2011 C2010 1.386 . S
C2011 C2015 1.393 . S
C2012 H2001 0.950 . S
C2012 C2010 1.391 . S
C2012 C2013 1.400 . S
C2013 C2007 1.491 . S
C2013 C2012 1.400 . S
C2013 C2014 1.398 . S
C2014 H2002 0.950 . S
C2014 C2013 1.398 . S
C2014 C2015 1.391 . S
C2015 H2003 0.950 . S
C2015 C2011 1.393 . S
C2015 C2014 1.391 . S
H2016 C2024 0.950 . S
H2017 C2029 0.950 . S
H2018 C2026 0.950 . S
H2019 C2028 0.950 . S
H2020 C2030 0.950 . S
H2021 C2032 0.950 . S
H2022 C2034 0.950 . S
H2023 C2035 0.950 . S
C2024 H2016 0.950 . S
C2024 C2025 1.386 . S
C2024 C2026 1.391 . S
C2025 C2024 1.386 . S
C2025 C2029 1.393 . S
C2026 H2018 0.950 . S
C2026 C2024 1.391 . S
C2026 C2027 1.400 . S
C2027 C2026 1.400 . S
C2027 C2028 1.398 . S
C2027 C2033 1.491 . S
C2028 H2019 0.950 . S
C2028 C2027 1.398 . S
C2028 C2029 1.391 . S
C2029 H2017 0.950 . S
C2029 C2025 1.393 . S
C2029 C2028 1.391 . S
C2030 H2020 0.950 . S
C2030 C2031 1.386 . S
C2030 C2032 1.391 . S
C2031 C2030 1.386 . S
C2031 C2035 1.393 . S
C2032 H2021 0.950 . S
C2032 C2030 1.391 . S
C2032 C2033 1.400 . S
C2033 C2027 1.491 . S
C2033 C2032 1.400 . S
C2033 C2034 1.398 . S
C2034 H2022 0.950 . S
C2034 C2033 1.398 . S
C2034 C2035 1.391 . S
C2035 H2023 0.950 . S
C2035 C2031 1.393 . S
C2035 C2034 1.391 . S
H2036 C2044 0.950 . S
H2037 C2049 0.950 . S
H2038 C2046 0.950 . S
H2039 C2048 0.950 . S
H2040 C2050 0.950 . S
H2041 C2052 0.950 . S
H2042 C2054 0.950 . S
H2043 C2055 0.950 . S
C2044 H2036 0.950 . S
C2044 C2045 1.386 . S
C2044 C2046 1.391 . S
C2045 C2044 1.386 . S
C2045 C2049 1.393 . S
C2046 H2038 0.950 . S
C2046 C2044 1.391 . S
C2046 C2047 1.400 . S
C2047 C2046 1.400 . S
C2047 C2048 1.398 . S
C2047 C2053 1.491 . S
C2048 H2039 0.950 . S
C2048 C2047 1.398 . S
C2048 C2049 1.391 . S
C2049 H2037 0.950 . S
C2049 C2045 1.393 . S
C2049 C2048 1.391 . S
C2050 H2040 0.950 . S
C2050 C2051 1.386 . S
C2050 C2052 1.391 . S
C2051 C2050 1.386 . S
C2051 C2055 1.393 . S
C2052 H2041 0.950 . S
C2052 C2050 1.391 . S
C2052 C2053 1.400 . S
C2053 C2047 1.491 . S
C2053 C2052 1.400 . S
C2053 C2054 1.398 . S
C2054 H2042 0.950 . S
C2054 C2053 1.398 . S
C2054 C2055 1.391 . S
C2055 H2043 0.950 . S
C2055 C2051 1.393 . S
C2055 C2054 1.391 . S
H2056 C2064 0.950 . S
H2057 C2069 0.950 . S
H2058 C2066 0.950 . S
H2059 C2068 0.950 . S
H2060 C2070 0.950 . S
H2061 C2072 0.950 . S
H2062 C2074 0.950 . S
H2063 C2075 0.950 . S
C2064 H2056 0.950 . S
C2064 C2065 1.386 . S
C2064 C2066 1.391 . S
C2065 C2064 1.386 . S
C2065 C2069 1.393 . S
C2066 H2058 0.950 . S
C2066 C2064 1.391 . S
C2066 C2067 1.400 . S
C2067 C2066 1.400 . S
C2067 C2068 1.398 . S
C2067 C2073 1.491 . S
C2068 H2059 0.950 . S
C2068 C2067 1.398 . S
C2068 C2069 1.391 . S
C2069 H2057 0.950 . S
C2069 C2065 1.393 . S
C2069 C2068 1.391 . S
C2070 H2060 0.950 . S
C2070 C2071 1.386 . S
C2070 C2072 1.391 . S
C2071 C2070 1.386 . S
C2071 C2075 1.393 . S
C2072 H2061 0.950 . S
C2072 C2070 1.391 . S
C2072 C2073 1.400 . S
C2073 C2067 1.491 . S
C2073 C2072 1.400 . S
C2073 C2074 1.398 . S
C2074 H2062 0.950 . S
C2074 C2073 1.398 . S
C2074 C2075 1.391 . S
C2075 H2063 0.950 . S
C2075 C2071 1.393 . S
C2075 C2074 1.391 . S
H2076 C2084 0.950 . S
H2077 C2089 0.950 . S
H2078 C2086 0.950 . S
H2079 C2088 0.950 . S
H2080 C2090 0.950 . S
H2081 C2092 0.950 . S
H2082 C2094 0.950 . S
H2083 C2095 0.950 . S
C2084 H2076 0.950 . S
C2084 C2085 1.386 . S
C2084 C2086 1.391 . S
C2085 C2084 1.386 . S
C2085 C2089 1.393 . S
C2086 H2078 0.950 . S
C2086 C2084 1.391 . S
C2086 C2087 1.400 . S
C2087 C2086 1.400 . S
C2087 C2088 1.398 . S
C2087 C2093 1.491 . S
C2088 H2079 0.950 . S
C2088 C2087 1.398 . S
C2088 C2089 1.391 . S
C2089 H2077 0.950 . S
C2089 C2085 1.393 . S
C2089 C2088 1.391 . S
C2090 H2080 0.950 . S
C2090 C2091 1.386 . S
C2090 C2092 1.391 . S
C2091 C2090 1.386 . S
C2091 C2095 1.393 . S
C2092 H2081 0.950 . S
C2092 C2090 1.391 . S
C2092 C2093 1.400 . S
C2093 C2087 1.491 . S
C2093 C2092 1.400 . S
C2093 C2094 1.398 . S
C2094 H2082 0.950 . S
C2094 C2093 1.398 . S
C2094 C2095 1.391 . S
C2095 H2083 0.950 . S
C2095 C2091 1.393 . S
C2095 C2094 1.391 . S
H2096 C2104 0.950 . S
H2097 C2109 0.950 . S
H2098 C2106 0.950 . S
H2099 C2108 0.950 . S
H2100 C2110 0.950 . S
H2101 C2112 0.950 . S
H2102 C2114 0.950 . S
H2103 C2115 0.950 . S
C2104 H2096 0.950 . S
C2104 C2105 1.386 . S
C2104 C2106 1.391 . S
C2105 C2104 1.386 . S
C2105 C2109 1.393 . S
C2106 H2098 0.950 . S
C2106 C2104 1.391 . S
C2106 C2107 1.400 . S
C2107 C2106 1.400 . S
C2107 C2108 1.398 . S
C2107 C2113 1.491 . S
C2108 H2099 0.950 . S
C2108 C2107 1.398 . S
C2108 C2109 1.391 . S
C2109 H2097 0.950 . S
C2109 C2105 1.393 . S
C2109 C2108 1.391 . S
C2110 H2100 0.950 . S
C2110 C2111 1.386 . S
C2110 C2112 1.391 . S
C2111 C2110 1.386 . S
C2111 C2115 1.393 . S
C2112 H2101 0.950 . S
C2112 C2110 1.391 . S
C2112 C2113 1.400 . S
C2113 C2107 1.491 . S
C2113 C2112 1.400 . S
C2113 C2114 1.398 . S
C2114 H2102 0.950 . S
C2114 C2113 1.398 . S
C2114 C2115 1.391 . S
C2115 H2103 0.950 . S
C2115 C2111 1.393 . S
C2115 C2114 1.391 . S
H2116 C2124 0.950 . S
H2117 C2129 0.950 . S
H2118 C2126 0.950 . S
H2119 C2128 0.950 . S
H2120 C2130 0.950 . S
H2121 C2132 0.950 . S
H2122 C2134 0.950 . S
H2123 C2135 0.950 . S
C2124 H2116 0.950 . S
C2124 C2125 1.386 . S
C2124 C2126 1.391 . S
C2125 C2124 1.386 . S
C2125 C2129 1.393 . S
C2126 H2118 0.950 . S
C2126 C2124 1.391 . S
C2126 C2127 1.400 . S
C2127 C2126 1.400 . S
C2127 C2128 1.398 . S
C2127 C2133 1.491 . S
C2128 H2119 0.950 . S
C2128 C2127 1.398 . S
C2128 C2129 1.391 . S
C2129 H2117 0.950 . S
C2129 C2125 1.393 . S
C2129 C2128 1.391 . S
C2130 H2120 0.950 . S
C2130 C2131 1.386 . S
C2130 C2132 1.391 . S
C2131 C2130 1.386 . S
C2131 C2135 1.393 . S
C2132 H2121 0.950 . S
C2132 C2130 1.391 . S
C2132 C2133 1.400 . S
C2133 C2127 1.491 . S
C2133 C2132 1.400 . S
C2133 C2134 1.398 . S
C2134 H2122 0.950 . S
C2134 C2133 1.398 . S
C2134 C2135 1.391 . S
C2135 H2123 0.950 . S
C2135 C2131 1.393 . S
C2135 C2134 1.391 . S
H2136 C2144 0.950 . S
H2137 C2149 0.950 . S
H2138 C2146 0.950 . S
H2139 C2148 0.950 . S
H2140 C2150 0.950 . S
H2141 C2152 0.950 . S
H2142 C2154 0.950 . S
H2143 C2155 0.950 . S
C2144 H2136 0.950 . S
C2144 C2145 1.386 . S
C2144 C2146 1.391 . S
C2145 C2144 1.386 . S
C2145 C2149 1.393 . S
C2146 H2138 0.950 . S
C2146 C2144 1.391 . S
C2146 C2147 1.400 . S
C2147 C2146 1.400 . S
C2147 C2148 1.398 . S
C2147 C2153 1.491 . S
C2148 H2139 0.950 . S
C2148 C2147 1.398 . S
C2148 C2149 1.391 . S
C2149 H2137 0.950 . S
C2149 C2145 1.393 . S
C2149 C2148 1.391 . S
C2150 H2140 0.950 . S
C2150 C2151 1.386 . S
C2150 C2152 1.391 . S
C2151 C2150 1.386 . S
C2151 C2155 1.393 . S
C2152 H2141 0.950 . S
C2152 C2150 1.391 . S
C2152 C2153 1.400 . S
C2153 C2147 1.491 . S
C2153 C2152 1.400 . S
C2153 C2154 1.398 . S
C2154 H2142 0.950 . S
C2154 C2153 1.398 . S
C2154 C2155 1.391 . S
C2155 H2143 0.950 . S
C2155 C2151 1.393 . S
C2155 C2154 1.391 . S
H2156 C2164 0.950 . S
H2157 C2169 0.950 . S
H2158 C2166 0.950 . S
H2159 C2168 0.950 . S
H2160 C2170 0.950 . S
H2161 C2172 0.950 . S
H2162 C2174 0.950 . S
H2163 C2175 0.950 . S
C2164 H2156 0.950 . S
C2164 C2165 1.386 . S
C2164 C2166 1.391 . S
C2165 C2164 1.386 . S
C2165 C2169 1.393 . S
C2166 H2158 0.950 . S
C2166 C2164 1.391 . S
C2166 C2167 1.400 . S
C2167 C2166 1.400 . S
C2167 C2168 1.398 . S
C2167 C2173 1.491 . S
C2168 H2159 0.950 . S
C2168 C2167 1.398 . S
C2168 C2169 1.391 . S
C2169 H2157 0.950 . S
C2169 C2165 1.393 . S
C2169 C2168 1.391 . S
C2170 H2160 0.950 . S
C2170 C2171 1.386 . S
C2170 C2172 1.391 . S
C2171 C2170 1.386 . S
C2171 C2175 1.393 . S
C2172 H2161 0.950 . S
C2172 C2170 1.391 . S
C2172 C2173 1.400 . S
C2173 C2167 1.491 . S
C2173 C2172 1.400 . S
C2173 C2174 1.398 . S
C2174 H2162 0.950 . S
C2174 C2173 1.398 . S
C2174 C2175 1.391 . S
C2175 H2163 0.950 . S
C2175 C2171 1.393 . S
C2175 C2174 1.391 . S
H2176 C2184 0.950 . S
H2177 C2189 0.950 . S
H2178 C2186 0.950 . S
H2179 C2188 0.950 . S
H2180 C2190 0.950 . S
H2181 C2192 0.950 . S
H2182 C2194 0.950 . S
H2183 C2195 0.950 . S
C2184 H2176 0.950 . S
C2184 C2185 1.386 . S
C2184 C2186 1.391 . S
C2185 C2184 1.386 . S
C2185 C2189 1.393 . S
C2186 H2178 0.950 . S
C2186 C2184 1.391 . S
C2186 C2187 1.400 . S
C2187 C2186 1.400 . S
C2187 C2188 1.398 . S
C2187 C2193 1.491 . S
C2188 H2179 0.950 . S
C2188 C2187 1.398 . S
C2188 C2189 1.391 . S
C2189 H2177 0.950 . S
C2189 C2185 1.393 . S
C2189 C2188 1.391 . S
C2190 H2180 0.950 . S
C2190 C2191 1.386 . S
C2190 C2192 1.391 . S
C2191 C2190 1.386 . S
C2191 C2195 1.393 . S
C2192 H2181 0.950 . S
C2192 C2190 1.391 . S
C2192 C2193 1.400 . S
C2193 C2187 1.491 . S
C2193 C2192 1.400 . S
C2193 C2194 1.398 . S
C2194 H2182 0.950 . S
C2194 C2193 1.398 . S
C2194 C2195 1.391 . S
C2195 H2183 0.950 . S
C2195 C2191 1.393 . S
C2195 C2194 1.391 . S
H2196 C2204 0.950 . S
H2197 C2209 0.950 . S
H2198 C2206 0.950 . S
H2199 C2208 0.950 . S
H2200 C2210 0.950 . S
H2201 C2212 0.950 . S
H2202 C2214 0.950 . S
H2203 C2215 0.950 . S
C2204 H2196 0.950 . S
C2204 C2205 1.386 . S
C2204 C2206 1.391 . S
C2205 C2204 1.386 . S
C2205 C2209 1.393 . S
C2206 H2198 0.950 . S
C2206 C2204 1.391 . S
C2206 C2207 1.400 . S
C2207 C2206 1.400 . S
C2207 C2208 1.398 . S
C2207 C2213 1.491 . S
C2208 H2199 0.950 . S
C2208 C2207 1.398 . S
C2208 C2209 1.391 . S
C2209 H2197 0.950 . S
C2209 C2205 1.393 . S
C2209 C2208 1.391 . S
C2210 H2200 0.950 . S
C2210 C2211 1.386 . S
C2210 C2212 1.391 . S
C2211 C2210 1.386 . S
C2211 C2215 1.393 . S
C2212 H2201 0.950 . S
C2212 C2210 1.391 . S
C2212 C2213 1.400 . S
C2213 C2207 1.491 . S
C2213 C2212 1.400 . S
C2213 C2214 1.398 . S
C2214 H2202 0.950 . S
C2214 C2213 1.398 . S
C2214 C2215 1.391 . S
C2215 H2203 0.950 . S
C2215 C2211 1.393 . S
C2215 C2214 1.391 . S
H2216 C2224 0.950 . S
H2217 C2229 0.950 . S
H2218 C2226 0.950 . S
H2219 C2228 0.950 . S
H2220 C2230 0.950 . S
H2221 C2232 0.950 . S
H2222 C2234 0.950 . S
H2223 C2235 0.950 . S
C2224 H2216 0.950 . S
C2224 C2225 1.386 . S
C2224 C2226 1.391 . S
C2225 C2224 1.386 . S
C2225 C2229 1.393 . S
C2226 H2218 0.950 . S
C2226 C2224 1.391 . S
C2226 C2227 1.400 . S
C2227 C2226 1.400 . S
C2227 C2228 1.398 . S
C2227 C2233 1.491 . S
C2228 H2219 0.950 . S
C2228 C2227 1.398 . S
C2228 C2229 1.391 . S
C2229 H2217 0.950 . S
C2229 C2225 1.393 . S
C2229 C2228 1.391 . S
C2230 H2220 0.950 . S
C2230 C2231 1.386 . S
C2230 C2232 1.391 . S
C2231 C2230 1.386 . S
C2231 C2235 1.393 . S
C2232 H2221 0.950 . S
C2232 C2230 1.391 . S
C2232 C2233 1.400 . S
C2233 C2227 1.491 . S
C2233 C2232 1.400 . S
C2233 C2234 1.398 . S
C2234 H2222 0.950 . S
C2234 C2233 1.398 . S
C2234 C2235 1.391 . S
C2235 H2223 0.950 . S
C2235 C2231 1.393 . S
C2235 C2234 1.391 . S
H2236 C2244 0.950 . S
H2237 C2249 0.950 . S
H2238 C2246 0.950 . S
H2239 C2248 0.950 . S
H2240 C2250 0.950 . S
H2241 C2252 0.950 . S
H2242 C2254 0.950 . S
H2243 C2255 0.950 . S
C2244 H2236 0.950 . S
C2244 C2245 1.386 . S
C2244 C2246 1.391 . S
C2245 C2244 1.386 . S
C2245 C2249 1.393 . S
C2246 H2238 0.950 . S
C2246 C2244 1.391 . S
C2246 C2247 1.400 . S
C2247 C2246 1.400 . S
C2247 C2248 1.398 . S
C2247 C2253 1.491 . S
C2248 H2239 0.950 . S
C2248 C2247 1.398 . S
C2248 C2249 1.391 . S
C2249 H2237 0.950 . S
C2249 C2245 1.393 . S
C2249 C2248 1.391 . S
C2250 H2240 0.950 . S
C2250 C2251 1.386 . S
C2250 C2252 1.391 . S
C2251 C2250 1.386 . S
C2251 C2255 1.393 . S
C2252 H2241 0.950 . S
C2252 C2250 1.391 . S
C2252 C2253 1.400 . S
C2253 C2247 1.491 . S
C2253 C2252 1.400 . S
C2253 C2254 1.398 . S
C2254 H2242 0.950 . S
C2254 C2253 1.398 . S
C2254 C2255 1.391 . S
C2255 H2243 0.950 . S
C2255 C2251 1.393 . S
C2255 C2254 1.391 . S
H2256 C2264 0.950 . S
H2257 C2269 0.950 . S
H2258 C2266 0.950 . S
H2259 C2268 0.950 . S
H2260 C2270 0.950 . S
H2261 C2272 0.950 . S
H2262 C2274 0.950 . S
H2263 C2275 0.950 . S
C2264 H2256 0.950 . S
C2264 C2265 1.386 . S
C2264 C2266 1.391 . S
C2265 C2264 1.386 . S
C2265 C2269 1.393 . S
C2266 H2258 0.950 . S
C2266 C2264 1.391 . S
C2266 C2267 1.400 . S
C2267 C2266 1.400 . S
C2267 C2268 1.398 . S
C2267 C2273 1.491 . S
C2268 H2259 0.950 . S
C2268 C2267 1.398 . S
C2268 C2269 1.391 . S
C2269 H2257 0.950 . S
C2269 C2265 1.393 . S
C2269 C2268 1.391 . S
C2270 H2260 0.950 . S
C2270 C2271 1.386 . S
C2270 C2272 1.391 . S
C2271 C2270 1.386 . S
C2271 C2275 1.393 . S
C2272 H2261 0.950 . S
C2272 C2270 1.391 . S
C2272 C2273 1.400 . S
C2273 C2267 1.491 . S
C2273 C2272 1.400 . S
C2273 C2274 1.398 . S
C2274 H2262 0.950 . S
C2274 C2273 1.398 . S
C2274 C2275 1.391 . S
C2275 H2263 0.950 . S
C2275 C2271 1.393 . S
C2275 C2274 1.391 . S
H2276 C2284 0.950 . S
H2277 C2289 0.950 . S
H2278 C2286 0.950 . S
H2279 C2288 0.950 . S
H2280 C2290 0.950 . S
H2281 C2292 0.950 . S
H2282 C2294 0.950 . S
H2283 C2295 0.950 . S
C2284 H2276 0.950 . S
C2284 C2285 1.386 . S
C2284 C2286 1.391 . S
C2285 C2284 1.386 . S
C2285 C2289 1.393 . S
C2286 H2278 0.950 . S
C2286 C2284 1.391 . S
C2286 C2287 1.400 . S
C2287 C2286 1.400 . S
C2287 C2288 1.398 . S
C2287 C2293 1.491 . S
C2288 H2279 0.950 . S
C2288 C2287 1.398 . S
C2288 C2289 1.391 . S
C2289 H2277 0.950 . S
C2289 C2285 1.393 . S
C2289 C2288 1.391 . S
C2290 H2280 0.950 . S
C2290 C2291 1.386 . S
C2290 C2292 1.391 1_556 S
C2291 C2290 1.386 . S
C2291 C2295 1.393 1_556 S
C2292 H2281 0.950 . S
C2292 C2290 1.391 1_554 S
C2292 C2293 1.400 . S
C2293 C2287 1.491 . S
C2293 C2292 1.400 . S
C2293 C2294 1.398 . S
C2294 H2282 0.950 . S
C2294 C2293 1.398 . S
C2294 C2295 1.391 . S
C2295 H2283 0.950 . S
C2295 C2291 1.393 1_554 S
C2295 C2294 1.391 . S
H2296 C2304 0.950 . S
H2297 C2309 0.950 . S
H2298 C2306 0.950 . S
H2299 C2308 0.950 . S
H2300 C2310 0.950 . S
H2301 C2312 0.950 . S
H2302 C2314 0.950 . S
H2303 C2315 0.950 . S
C2304 H2296 0.950 . S
C2304 C2305 1.386 . S
C2304 C2306 1.391 . S
C2305 C2304 1.386 . S
C2305 C2309 1.393 . S
C2306 H2298 0.950 . S
C2306 C2304 1.391 . S
C2306 C2307 1.400 . S
C2307 C2306 1.400 . S
C2307 C2308 1.398 . S
C2307 C2313 1.491 . S
C2308 H2299 0.950 . S
C2308 C2307 1.398 . S
C2308 C2309 1.391 . S
C2309 H2297 0.950 . S
C2309 C2305 1.393 . S
C2309 C2308 1.391 . S
C2310 H2300 0.950 . S
C2310 C2311 1.386 . S
C2310 C2312 1.391 . S
C2311 C2310 1.386 . S
C2311 C2315 1.393 . S
C2312 H2301 0.950 . S
C2312 C2310 1.391 . S
C2312 C2313 1.400 . S
C2313 C2307 1.491 . S
C2313 C2312 1.400 . S
C2313 C2314 1.398 . S
C2314 H2302 0.950 . S
C2314 C2313 1.398 . S
C2314 C2315 1.391 . S
C2315 H2303 0.950 . S
C2315 C2311 1.393 . S
C2315 C2314 1.391 . S
H2316 C2324 0.950 . S
H2317 C2329 0.950 1_554 S
H2318 C2326 0.950 . S
H2319 C2328 0.950 . S
H2320 C2330 0.950 . S
H2321 C2332 0.950 . S
H2322 C2334 0.950 . S
H2323 C2335 0.950 . S
C2324 H2316 0.950 . S
C2324 C2325 1.386 1_556 S
C2324 C2326 1.391 . S
C2325 C2324 1.386 1_554 S
C2325 C2329 1.393 1_554 S
C2326 H2318 0.950 . S
C2326 C2324 1.391 . S
C2326 C2327 1.400 . S
C2327 C2326 1.400 . S
C2327 C2328 1.398 . S
C2327 C2333 1.491 . S
C2328 H2319 0.950 . S
C2328 C2327 1.398 . S
C2328 C2329 1.391 . S
C2329 H2317 0.950 1_556 S
C2329 C2325 1.393 1_556 S
C2329 C2328 1.391 . S
C2330 H2320 0.950 . S
C2330 C2331 1.386 . S
C2330 C2332 1.391 . S
C2331 C2330 1.386 . S
C2331 C2335 1.393 . S
C2332 H2321 0.950 . S
C2332 C2330 1.391 . S
C2332 C2333 1.400 . S
C2333 C2327 1.491 . S
C2333 C2332 1.400 . S
C2333 C2334 1.398 . S
C2334 H2322 0.950 . S
C2334 C2333 1.398 . S
C2334 C2335 1.391 . S
C2335 H2323 0.950 . S
C2335 C2331 1.393 . S
C2335 C2334 1.391 . S
H2336 C2344 0.950 . S
H2337 C2349 0.950 . S
H2338 C2346 0.950 . S
H2339 C2348 0.950 . S
H2340 C2350 0.950 . S
H2341 C2352 0.950 . S
H2342 C2354 0.950 . S
H2343 C2355 0.950 . S
C2344 H2336 0.950 . S
C2344 C2345 1.386 . S
C2344 C2346 1.391 . S
C2345 C2344 1.386 . S
C2345 C2349 1.393 . S
C2346 H2338 0.950 . S
C2346 C2344 1.391 . S
C2346 C2347 1.400 . S
C2347 C2346 1.400 . S
C2347 C2348 1.398 . S
C2347 C2353 1.491 . S
C2348 H2339 0.950 . S
C2348 C2347 1.398 . S
C2348 C2349 1.391 . S
C2349 H2337 0.950 . S
C2349 C2345 1.393 . S
C2349 C2348 1.391 . S
C2350 H2340 0.950 . S
C2350 C2351 1.386 . S
C2350 C2352 1.391 . S
C2351 C2350 1.386 . S
C2351 C2355 1.393 . S
C2352 H2341 0.950 . S
C2352 C2350 1.391 . S
C2352 C2353 1.400 . S
C2353 C2347 1.491 . S
C2353 C2352 1.400 . S
C2353 C2354 1.398 . S
C2354 H2342 0.950 . S
C2354 C2353 1.398 . S
C2354 C2355 1.391 . S
C2355 H2343 0.950 . S
C2355 C2351 1.393 . S
C2355 C2354 1.391 . S
H2356 C2364 0.950 . S
H2357 C2369 0.950 . S
H2358 C2366 0.950 . S
H2359 C2368 0.950 . S
H2360 C2370 0.950 . S
H2361 C2372 0.950 . S
H2362 C2374 0.950 1_455 S
H2363 C2375 0.950 . S
C2364 H2356 0.950 . S
C2364 C2365 1.386 . S
C2364 C2366 1.391 . S
C2365 C2364 1.386 . S
C2365 C2369 1.393 . S
C2366 H2358 0.950 . S
C2366 C2364 1.391 . S
C2366 C2367 1.400 . S
C2367 C2366 1.400 . S
C2367 C2368 1.398 . S
C2367 C2373 1.491 . S
C2368 H2359 0.950 . S
C2368 C2367 1.398 . S
C2368 C2369 1.391 . S
C2369 H2357 0.950 . S
C2369 C2365 1.393 . S
C2369 C2368 1.391 . S
C2370 H2360 0.950 . S
C2370 C2371 1.386 1_655 S
C2370 C2372 1.391 . S
C2371 C2370 1.386 1_455 S
C2371 C2375 1.393 . S
C2372 H2361 0.950 . S
C2372 C2370 1.391 . S
C2372 C2373 1.400 . S
C2373 C2367 1.491 . S
C2373 C2372 1.400 . S
C2373 C2374 1.398 . S
C2374 H2362 0.950 1_655 S
C2374 C2373 1.398 . S
C2374 C2375 1.391 1_655 S
C2375 H2363 0.950 . S
C2375 C2371 1.393 . S
C2375 C2374 1.391 1_455 S
H2376 C2384 0.950 . S
H2377 C2389 0.950 . S
H2378 C2386 0.950 . S
H2379 C2388 0.950 . S
H2380 C2390 0.950 . S
H2381 C2392 0.950 1_655 S
H2382 C2394 0.950 . S
H2383 C2395 0.950 . S
C2384 H2376 0.950 . S
C2384 C2385 1.386 . S
C2384 C2386 1.391 . S
C2385 C2384 1.386 . S
C2385 C2389 1.393 . S
C2386 H2378 0.950 . S
C2386 C2384 1.391 . S
C2386 C2387 1.400 . S
C2387 C2386 1.400 . S
C2387 C2388 1.398 . S
C2387 C2393 1.491 . S
C2388 H2379 0.950 . S
C2388 C2387 1.398 . S
C2388 C2389 1.391 . S
C2389 H2377 0.950 . S
C2389 C2385 1.393 . S
C2389 C2388 1.391 . S
C2390 H2380 0.950 . S
C2390 C2391 1.386 . S
C2390 C2392 1.391 1_655 S
C2391 C2390 1.386 . S
C2391 C2395 1.393 1_655 S
C2392 H2381 0.950 1_455 S
C2392 C2390 1.391 1_455 S
C2392 C2393 1.400 . S
C2393 C2387 1.491 . S
C2393 C2392 1.400 . S
C2393 C2394 1.398 . S
C2394 H2382 0.950 . S
C2394 C2393 1.398 . S
C2394 C2395 1.391 . S
C2395 H2383 0.950 . S
C2395 C2391 1.393 1_455 S
C2395 C2394 1.391 . S
H2396 C2404 0.950 . S
H2397 C2409 0.950 . S
H2398 C2406 0.950 . S
H2399 C2408 0.950 . S
H2400 C2410 0.950 . S
H2401 C2412 0.950 . S
H2402 C2414 0.950 . S
H2403 C2415 0.950 . S
C2404 H2396 0.950 . S
C2404 C2405 1.386 . S
C2404 C2406 1.391 . S
C2405 C2404 1.386 . S
C2405 C2409 1.393 . S
C2406 H2398 0.950 . S
C2406 C2404 1.391 . S
C2406 C2407 1.400 . S
C2407 C2406 1.400 . S
C2407 C2408 1.398 . S
C2407 C2413 1.491 . S
C2408 H2399 0.950 . S
C2408 C2407 1.398 . S
C2408 C2409 1.391 . S
C2409 H2397 0.950 . S
C2409 C2405 1.393 . S
C2409 C2408 1.391 . S
C2410 H2400 0.950 . S
C2410 C2411 1.386 . S
C2410 C2412 1.391 . S
C2411 C2410 1.386 . S
C2411 C2415 1.393 . S
C2412 H2401 0.950 . S
C2412 C2410 1.391 . S
C2412 C2413 1.400 . S
C2413 C2407 1.491 . S
C2413 C2412 1.400 . S
C2413 C2414 1.398 . S
C2414 H2402 0.950 . S
C2414 C2413 1.398 . S
C2414 C2415 1.391 . S
C2415 H2403 0.950 . S
C2415 C2411 1.393 . S
C2415 C2414 1.391 . S
H2416 C2424 0.950 . S
H2417 C2429 0.950 . S
H2418 C2426 0.950 . S
H2419 C2428 0.950 . S
H2420 C2430 0.950 . S
H2421 C2432 0.950 . S
H2422 C2434 0.950 . S
H2423 C2435 0.950 . S
C2424 H2416 0.950 . S
C2424 C2425 1.386 . S
C2424 C2426 1.391 . S
C2425 C2424 1.386 . S
C2425 C2429 1.393 . S
C2426 H2418 0.950 . S
C2426 C2424 1.391 . S
C2426 C2427 1.400 . S
C2427 C2426 1.400 . S
C2427 C2428 1.398 . S
C2427 C2433 1.491 . S
C2428 H2419 0.950 . S
C2428 C2427 1.398 . S
C2428 C2429 1.391 . S
C2429 H2417 0.950 . S
C2429 C2425 1.393 . S
C2429 C2428 1.391 . S
C2430 H2420 0.950 . S
C2430 C2431 1.386 . S
C2430 C2432 1.391 . S
C2431 C2430 1.386 . S
C2431 C2435 1.393 . S
C2432 H2421 0.950 . S
C2432 C2430 1.391 . S
C2432 C2433 1.400 . S
C2433 C2427 1.491 . S
C2433 C2432 1.400 . S
C2433 C2434 1.398 . S
C2434 H2422 0.950 . S
C2434 C2433 1.398 . S
C2434 C2435 1.391 . S
C2435 H2423 0.950 . S
C2435 C2431 1.393 . S
C2435 C2434 1.391 . S
H2436 C2444 0.950 . S
H2437 C2449 0.958 . S
H2438 C2446 0.950 . S
H2439 C2448 0.950 . S
H2440 C2450 0.950 . S
H2441 C2452 0.950 . S
H2442 C2454 0.950 . S
H2443 C2455 0.950 . S
C2444 H2436 0.950 . S
C2444 C2445 1.386 1_565 S
C2444 C2446 1.391 . S
C2445 C2444 1.386 1_545 S
C2445 C2449 1.394 . S
C2446 H2438 0.950 . S
C2446 C2444 1.391 . S
C2446 C2447 1.400 . S
C2447 C2446 1.400 . S
C2447 C2448 1.398 . S
C2447 C2453 1.491 . S
C2448 H2439 0.950 . S
C2448 C2447 1.398 . S
C2448 C2449 1.381 1_565 S
C2449 H2437 0.958 . S
C2449 C2445 1.394 . S
C2449 C2448 1.381 1_545 S
C2450 H2440 0.950 . S
C2450 C2451 1.386 . S
C2450 C2452 1.391 . S
C2451 C2450 1.386 . S
C2451 C2455 1.393 . S
C2452 H2441 0.950 . S
C2452 C2450 1.391 . S
C2452 C2453 1.400 . S
C2453 C2447 1.491 . S
C2453 C2452 1.400 . S
C2453 C2454 1.398 . S
C2454 H2442 0.950 . S
C2454 C2453 1.398 . S
C2454 C2455 1.391 . S
C2455 H2443 0.950 . S
C2455 C2451 1.393 . S
C2455 C2454 1.391 . S
H2456 C2464 0.950 . S
H2457 C2469 0.950 . S
H2458 C2466 0.950 . S
H2459 C2468 0.950 . S
H2460 C2470 0.959 . S
H2461 C2472 0.950 . S
H2462 C2474 0.950 . S
H2463 C2475 0.950 . S
C2464 H2456 0.950 . S
C2464 C2465 1.386 . S
C2464 C2466 1.391 . S
C2465 C2464 1.386 . S
C2465 C2469 1.393 . S
C2466 H2458 0.950 . S
C2466 C2464 1.391 . S
C2466 C2467 1.400 . S
C2467 C2466 1.400 . S
C2467 C2468 1.398 . S
C2467 C2473 1.491 . S
C2468 H2459 0.950 . S
C2468 C2467 1.398 . S
C2468 C2469 1.391 . S
C2469 H2457 0.950 . S
C2469 C2465 1.393 . S
C2469 C2468 1.391 . S
C2470 H2460 0.959 . S
C2470 C2471 1.386 1_545 S
C2470 C2472 1.391 . S
C2471 C2470 1.386 1_565 S
C2471 C2475 1.393 1_565 S
C2472 H2461 0.950 . S
C2472 C2470 1.391 . S
C2472 C2473 1.400 . S
C2473 C2467 1.491 . S
C2473 C2472 1.400 . S
C2473 C2474 1.398 . S
C2474 H2462 0.950 . S
C2474 C2473 1.398 . S
C2474 C2475 1.391 . S
C2475 H2463 0.950 . S
C2475 C2471 1.393 1_545 S
C2475 C2474 1.391 . S
H2476 C2484 0.950 . S
H2477 C2489 0.950 . S
H2478 C2486 0.950 . S
H2479 C2488 0.950 . S
H2480 C2490 0.950 . S
H2481 C2492 0.950 . S
H2482 C2494 0.950 . S
H2483 C2495 0.950 . S
C2484 H2476 0.950 . S
C2484 C2485 1.386 . S
C2484 C2486 1.391 . S
C2485 C2484 1.386 . S
C2485 C2489 1.393 . S
C2486 H2478 0.950 . S
C2486 C2484 1.391 . S
C2486 C2487 1.400 . S
C2487 C2486 1.400 . S
C2487 C2488 1.398 . S
C2487 C2493 1.491 . S
C2488 H2479 0.950 . S
C2488 C2487 1.398 . S
C2488 C2489 1.391 . S
C2489 H2477 0.950 . S
C2489 C2485 1.393 . S
C2489 C2488 1.391 . S
C2490 H2480 0.950 . S
C2490 C2491 1.386 . S
C2490 C2492 1.391 . S
C2491 C2490 1.386 . S
C2491 C2495 1.393 . S
C2492 H2481 0.950 . S
C2492 C2490 1.391 . S
C2492 C2493 1.400 . S
C2493 C2487 1.491 . S
C2493 C2492 1.400 . S
C2493 C2494 1.398 . S
C2494 H2482 0.950 . S
C2494 C2493 1.398 . S
C2494 C2495 1.391 . S
C2495 H2483 0.950 . S
C2495 C2491 1.393 . S
C2495 C2494 1.391 . S
H2496 C2504 0.950 . S
H2497 C2509 0.950 . S
H2498 C2506 0.950 . S
H2499 C2508 0.950 . S
H2500 C2510 0.950 . S
H2501 C2512 0.950 . S
H2502 C2514 0.950 . S
H2503 C2515 0.950 . S
C2504 H2496 0.950 . S
C2504 C2505 1.386 . S
C2504 C2506 1.391 . S
C2505 C2504 1.386 . S
C2505 C2509 1.393 . S
C2506 H2498 0.950 . S
C2506 C2504 1.391 . S
C2506 C2507 1.400 . S
C2507 C2506 1.400 . S
C2507 C2508 1.398 . S
C2507 C2513 1.491 . S
C2508 H2499 0.950 . S
C2508 C2507 1.398 . S
C2508 C2509 1.391 . S
C2509 H2497 0.950 . S
C2509 C2505 1.393 . S
C2509 C2508 1.391 . S
C2510 H2500 0.950 . S
C2510 C2511 1.386 . S
C2510 C2512 1.391 . S
C2511 C2510 1.386 . S
C2511 C2515 1.393 . S
C2512 H2501 0.950 . S
C2512 C2510 1.391 . S
C2512 C2513 1.400 . S
C2513 C2507 1.491 . S
C2513 C2512 1.400 . S
C2513 C2514 1.398 . S
C2514 H2502 0.950 . S
C2514 C2513 1.398 . S
C2514 C2515 1.391 . S
C2515 H2503 0.950 . S
C2515 C2511 1.393 . S
C2515 C2514 1.391 . S
H2516 C2524 0.950 . S
H2517 C2529 0.950 . S
H2518 C2526 0.950 . S
H2519 C2528 0.950 . S
H2520 C2530 0.950 . S
H2521 C2532 0.950 . S
H2522 C2534 0.950 . S
H2523 C2535 0.950 . S
C2524 H2516 0.950 . S
C2524 C2525 1.386 . S
C2524 C2526 1.391 . S
C2525 C2524 1.386 . S
C2525 C2529 1.393 . S
C2526 H2518 0.950 . S
C2526 C2524 1.391 . S
C2526 C2527 1.400 . S
C2527 C2526 1.400 . S
C2527 C2528 1.398 . S
C2527 C2533 1.491 . S
C2528 H2519 0.950 . S
C2528 C2527 1.398 . S
C2528 C2529 1.391 . S
C2529 H2517 0.950 . S
C2529 C2525 1.393 . S
C2529 C2528 1.391 . S
C2530 H2520 0.950 . S
C2530 C2531 1.386 1_556 S
C2530 C2532 1.391 . S
C2531 C2530 1.386 1_554 S
C2531 C2535 1.393 . S
C2532 H2521 0.950 . S
C2532 C2530 1.391 . S
C2532 C2533 1.400 . S
C2533 C2527 1.491 . S
C2533 C2532 1.400 . S
C2533 C2534 1.398 . S
C2534 H2522 0.950 . S
C2534 C2533 1.398 . S
C2534 C2535 1.391 1_556 S
C2535 H2523 0.950 . S
C2535 C2531 1.393 . S
C2535 C2534 1.391 1_554 S
H2536 C2544 0.950 . S
H2537 C2549 0.950 . S
H2538 C2546 0.950 . S
H2539 C2548 0.950 . S
H2540 C2550 0.950 . S
H2541 C2552 0.950 . S
H2542 C2554 0.950 . S
H2543 C2555 0.950 . S
C2544 H2536 0.950 . S
C2544 C2545 1.386 . S
C2544 C2546 1.391 . S
C2545 C2544 1.386 . S
C2545 C2549 1.393 . S
C2546 H2538 0.950 . S
C2546 C2544 1.391 . S
C2546 C2547 1.400 . S
C2547 C2546 1.400 . S
C2547 C2548 1.398 . S
C2547 C2553 1.491 . S
C2548 H2539 0.950 . S
C2548 C2547 1.398 . S
C2548 C2549 1.391 . S
C2549 H2537 0.950 . S
C2549 C2545 1.393 . S
C2549 C2548 1.391 . S
C2550 H2540 0.950 . S
C2550 C2551 1.386 . S
C2550 C2552 1.391 . S
C2551 C2550 1.386 . S
C2551 C2555 1.393 . S
C2552 H2541 0.950 . S
C2552 C2550 1.391 . S
C2552 C2553 1.400 . S
C2553 C2547 1.491 . S
C2553 C2552 1.400 . S
C2553 C2554 1.398 . S
C2554 H2542 0.950 . S
C2554 C2553 1.398 . S
C2554 C2555 1.391 . S
C2555 H2543 0.950 . S
C2555 C2551 1.393 . S
C2555 C2554 1.391 . S
H2556 C2564 0.950 . S
H2557 C2569 0.950 . S
H2558 C2566 0.950 . S
H2559 C2568 0.950 . S
H2560 C2570 0.950 . S
H2561 C2572 0.950 . S
H2562 C2574 0.950 . S
H2563 C2575 0.950 . S
C2564 H2556 0.950 . S
C2564 C2565 1.386 . S
C2564 C2566 1.391 . S
C2565 C2564 1.386 . S
C2565 C2569 1.393 . S
C2566 H2558 0.950 . S
C2566 C2564 1.391 . S
C2566 C2567 1.400 . S
C2567 C2566 1.400 . S
C2567 C2568 1.398 . S
C2567 C2573 1.491 . S
C2568 H2559 0.950 . S
C2568 C2567 1.398 . S
C2568 C2569 1.391 . S
C2569 H2557 0.950 . S
C2569 C2565 1.393 . S
C2569 C2568 1.391 . S
C2570 H2560 0.950 . S
C2570 C2571 1.386 . S
C2570 C2572 1.391 1_556 S
C2571 C2570 1.386 . S
C2571 C2575 1.393 1_556 S
C2572 H2561 0.950 . S
C2572 C2570 1.391 1_554 S
C2572 C2573 1.400 . S
C2573 C2567 1.491 . S
C2573 C2572 1.400 . S
C2573 C2574 1.398 . S
C2574 H2562 0.950 . S
C2574 C2573 1.398 . S
C2574 C2575 1.391 . S
C2575 H2563 0.950 . S
C2575 C2571 1.393 1_554 S
C2575 C2574 1.391 . S
H2576 C2584 0.950 . S
H2577 C2589 0.950 . S
H2578 C2586 0.950 . S
H2579 C2588 0.950 . S
H2580 C2590 0.950 . S
H2581 C2592 0.950 . S
H2582 C2594 0.950 . S
H2583 C2595 0.950 . S
C2584 H2576 0.950 . S
C2584 C2585 1.386 . S
C2584 C2586 1.391 . S
C2585 C2584 1.386 . S
C2585 C2589 1.393 . S
C2586 H2578 0.950 . S
C2586 C2584 1.391 . S
C2586 C2587 1.400 . S
C2587 C2586 1.400 . S
C2587 C2588 1.398 . S
C2587 C2593 1.491 . S
C2588 H2579 0.950 . S
C2588 C2587 1.398 . S
C2588 C2589 1.391 . S
C2589 H2577 0.950 . S
C2589 C2585 1.393 . S
C2589 C2588 1.391 . S
C2590 H2580 0.950 . S
C2590 C2591 1.386 . S
C2590 C2592 1.391 . S
C2591 C2590 1.386 . S
C2591 C2595 1.393 . S
C2592 H2581 0.950 . S
C2592 C2590 1.391 . S
C2592 C2593 1.400 . S
C2593 C2587 1.491 . S
C2593 C2592 1.400 . S
C2593 C2594 1.398 . S
C2594 H2582 0.950 . S
C2594 C2593 1.398 . S
C2594 C2595 1.391 . S
C2595 H2583 0.950 . S
C2595 C2591 1.393 . S
C2595 C2594 1.391 . S
H2596 C2604 0.950 . S
H2597 C2609 0.950 . S
H2598 C2606 0.950 . S
H2599 C2608 0.950 . S
H2600 C2610 0.950 . S
H2601 C2612 0.950 . S
H2602 C2614 0.950 . S
H2603 C2615 0.950 . S
C2604 H2596 0.950 . S
C2604 C2605 1.386 1_455 S
C2604 C2606 1.391 . S
C2605 C2604 1.386 1_655 S
C2605 C2609 1.393 . S
C2606 H2598 0.950 . S
C2606 C2604 1.391 . S
C2606 C2607 1.400 . S
C2607 C2606 1.400 . S
C2607 C2608 1.398 . S
C2607 C2613 1.491 . S
C2608 H2599 0.950 . S
C2608 C2607 1.398 . S
C2608 C2609 1.391 1_455 S
C2609 H2597 0.950 . S
C2609 C2605 1.393 . S
C2609 C2608 1.391 1_655 S
C2610 H2600 0.950 . S
C2610 C2611 1.386 . S
C2610 C2612 1.391 . S
C2611 C2610 1.386 . S
C2611 C2615 1.393 . S
C2612 H2601 0.950 . S
C2612 C2610 1.391 . S
C2612 C2613 1.400 . S
C2613 C2607 1.491 . S
C2613 C2612 1.400 . S
C2613 C2614 1.398 . S
C2614 H2602 0.950 . S
C2614 C2613 1.398 . S
C2614 C2615 1.391 . S
C2615 H2603 0.950 . S
C2615 C2611 1.393 . S
C2615 C2614 1.391 . S
H2616 C2624 0.950 . S
H2617 C2629 0.950 . S
H2618 C2626 0.950 1_455 S
H2619 C2628 0.950 . S
H2620 C2630 0.950 . S
H2621 C2632 0.950 . S
H2622 C2634 0.950 . S
H2623 C2635 0.950 . S
C2624 H2616 0.950 . S
C2624 C2625 1.386 . S
C2624 C2626 1.391 1_455 S
C2625 C2624 1.386 . S
C2625 C2629 1.393 1_455 S
C2626 H2618 0.950 1_655 S
C2626 C2624 1.391 1_655 S
C2626 C2627 1.400 . S
C2627 C2626 1.400 . S
C2627 C2628 1.398 . S
C2627 C2633 1.491 . S
C2628 H2619 0.950 . S
C2628 C2627 1.398 . S
C2628 C2629 1.391 . S
C2629 H2617 0.950 . S
C2629 C2625 1.393 1_655 S
C2629 C2628 1.391 . S
C2630 H2620 0.950 . S
C2630 C2631 1.386 . S
C2630 C2632 1.391 . S
C2631 C2630 1.386 . S
C2631 C2635 1.393 . S
C2632 H2621 0.950 . S
C2632 C2630 1.391 . S
C2632 C2633 1.400 . S
C2633 C2627 1.491 . S
C2633 C2632 1.400 . S
C2633 C2634 1.398 . S
C2634 H2622 0.950 . S
C2634 C2633 1.398 . S
C2634 C2635 1.391 . S
C2635 H2623 0.950 . S
C2635 C2631 1.393 . S
C2635 C2634 1.391 . S
H2636 C2644 0.950 . S
H2637 C2649 0.950 . S
H2638 C2646 0.950 . S
H2639 C2648 0.950 . S
H2640 C2650 0.950 . S
H2641 C2652 0.950 . S
H2642 C2654 0.950 . S
H2643 C2655 0.950 . S
C2644 H2636 0.950 . S
C2644 C2645 1.386 . S
C2644 C2646 1.391 . S
C2645 C2644 1.386 . S
C2645 C2649 1.393 . S
C2646 H2638 0.950 . S
C2646 C2644 1.391 . S
C2646 C2647 1.400 . S
C2647 C2646 1.400 . S
C2647 C2648 1.398 . S
C2647 C2653 1.491 . S
C2648 H2639 0.950 . S
C2648 C2647 1.398 . S
C2648 C2649 1.391 . S
C2649 H2637 0.950 . S
C2649 C2645 1.393 . S
C2649 C2648 1.391 . S
C2650 H2640 0.950 . S
C2650 C2651 1.386 . S
C2650 C2652 1.391 . S
C2651 C2650 1.386 . S
C2651 C2655 1.393 . S
C2652 H2641 0.950 . S
C2652 C2650 1.391 . S
C2652 C2653 1.400 . S
C2653 C2647 1.491 . S
C2653 C2652 1.400 . S
C2653 C2654 1.398 . S
C2654 H2642 0.950 . S
C2654 C2653 1.398 . S
C2654 C2655 1.391 . S
C2655 H2643 0.950 . S
C2655 C2651 1.393 . S
C2655 C2654 1.391 . S
H2656 C2664 0.950 . S
H2657 C2669 0.950 . S
H2658 C2666 0.950 . S
H2659 C2668 0.950 . S
H2660 C2670 0.950 . S
H2661 C2672 0.950 . S
H2662 C2674 0.950 . S
H2663 C2675 0.950 . S
C2664 H2656 0.950 . S
C2664 C2665 1.386 . S
C2664 C2666 1.391 . S
C2665 C2664 1.386 . S
C2665 C2669 1.393 . S
C2666 H2658 0.950 . S
C2666 C2664 1.391 . S
C2666 C2667 1.400 . S
C2667 C2666 1.400 . S
C2667 C2668 1.398 . S
C2667 C2673 1.491 . S
C2668 H2659 0.950 . S
C2668 C2667 1.398 . S
C2668 C2669 1.391 . S
C2669 H2657 0.950 . S
C2669 C2665 1.393 . S
C2669 C2668 1.391 . S
C2670 H2660 0.950 . S
C2670 C2671 1.386 . S
C2670 C2672 1.391 . S
C2671 C2670 1.386 . S
C2671 C2675 1.393 . S
C2672 H2661 0.950 . S
C2672 C2670 1.391 . S
C2672 C2673 1.400 . S
C2673 C2667 1.491 . S
C2673 C2672 1.400 . S
C2673 C2674 1.398 . S
C2674 H2662 0.950 . S
C2674 C2673 1.398 . S
C2674 C2675 1.391 . S
C2675 H2663 0.950 . S
C2675 C2671 1.393 . S
C2675 C2674 1.391 . S
H2676 C2684 0.950 . S
H2677 C2689 0.950 . S
H2678 C2686 0.950 . S
H2679 C2688 0.950 . S
H2680 C2690 0.950 . S
H2681 C2692 0.950 . S
H2682 C2694 0.950 . S
H2683 C2695 0.950 . S
C2684 H2676 0.950 . S
C2684 C2685 1.386 . S
C2684 C2686 1.391 . S
C2685 C2684 1.386 . S
C2685 C2689 1.393 . S
C2686 H2678 0.950 . S
C2686 C2684 1.391 . S
C2686 C2687 1.400 . S
C2687 C2686 1.400 . S
C2687 C2688 1.398 . S
C2687 C2693 1.491 . S
C2688 H2679 0.950 . S
C2688 C2687 1.398 . S
C2688 C2689 1.391 . S
C2689 H2677 0.950 . S
C2689 C2685 1.393 . S
C2689 C2688 1.391 . S
C2690 H2680 0.950 . S
C2690 C2691 1.386 . S
C2690 C2692 1.391 1_565 S
C2691 C2690 1.386 . S
C2691 C2695 1.393 1_565 S
C2692 H2681 0.950 . S
C2692 C2690 1.391 1_545 S
C2692 C2693 1.400 . S
C2693 C2687 1.491 . S
C2693 C2692 1.400 . S
C2693 C2694 1.398 . S
C2694 H2682 0.950 . S
C2694 C2693 1.398 . S
C2694 C2695 1.391 . S
C2695 H2683 0.950 . S
C2695 C2691 1.393 1_545 S
C2695 C2694 1.391 . S
H2696 C2704 0.950 . S
H2697 C2709 0.950 . S
H2698 C2706 0.950 . S
H2699 C2708 0.950 . S
H2700 C2710 0.950 . S
H2701 C2712 0.950 . S
H2702 C2714 0.950 . S
H2703 C2715 0.950 . S
C2704 H2696 0.950 . S
C2704 C2705 1.386 . S
C2704 C2706 1.391 . S
C2705 C2704 1.386 . S
C2705 C2709 1.393 . S
C2706 H2698 0.950 . S
C2706 C2704 1.391 . S
C2706 C2707 1.400 . S
C2707 C2706 1.400 . S
C2707 C2708 1.398 . S
C2707 C2713 1.491 . S
C2708 H2699 0.950 . S
C2708 C2707 1.398 . S
C2708 C2709 1.391 . S
C2709 H2697 0.950 . S
C2709 C2705 1.393 . S
C2709 C2708 1.391 . S
C2710 H2700 0.950 . S
C2710 C2711 1.386 . S
C2710 C2712 1.391 1_545 S
C2711 C2710 1.386 . S
C2711 C2715 1.393 1_545 S
C2712 H2701 0.950 . S
C2712 C2710 1.391 1_565 S
C2712 C2713 1.400 . S
C2713 C2707 1.491 . S
C2713 C2712 1.400 . S
C2713 C2714 1.398 . S
C2714 H2702 0.950 . S
C2714 C2713 1.398 . S
C2714 C2715 1.391 . S
C2715 H2703 0.950 . S
C2715 C2711 1.393 1_565 S
C2715 C2714 1.391 . S
H2716 C2724 0.950 . S
H2717 C2729 0.950 . S
H2718 C2726 0.950 . S
H2719 C2728 0.950 . S
H2720 C2730 0.950 . S
H2721 C2732 0.950 . S
H2722 C2734 0.950 . S
H2723 C2735 0.950 . S
C2724 H2716 0.950 . S
C2724 C2725 1.386 . S
C2724 C2726 1.391 . S
C2725 C2724 1.386 . S
C2725 C2729 1.393 . S
C2726 H2718 0.950 . S
C2726 C2724 1.391 . S
C2726 C2727 1.400 . S
C2727 C2726 1.400 . S
C2727 C2728 1.398 . S
C2727 C2733 1.491 . S
C2728 H2719 0.950 . S
C2728 C2727 1.398 . S
C2728 C2729 1.391 . S
C2729 H2717 0.950 . S
C2729 C2725 1.393 . S
C2729 C2728 1.391 . S
C2730 H2720 0.950 . S
C2730 C2731 1.386 . S
C2730 C2732 1.391 . S
C2731 C2730 1.386 . S
C2731 C2735 1.393 . S
C2732 H2721 0.950 . S
C2732 C2730 1.391 . S
C2732 C2733 1.400 . S
C2733 C2727 1.491 . S
C2733 C2732 1.400 . S
C2733 C2734 1.398 . S
C2734 H2722 0.950 . S
C2734 C2733 1.398 . S
C2734 C2735 1.391 . S
C2735 H2723 0.950 . S
C2735 C2731 1.393 . S
C2735 C2734 1.391 . S
H2736 C2744 0.950 . S
H2737 C2749 0.950 . S
H2738 C2746 0.950 . S
H2739 C2748 0.950 . S
H2740 C2750 0.950 . S
H2741 C2752 0.950 . S
H2742 C2754 0.950 . S
H2743 C2755 0.950 . S
C2744 H2736 0.950 . S
C2744 C2745 1.386 . S
C2744 C2746 1.391 . S
C2745 C2744 1.386 . S
C2745 C2749 1.393 . S
C2746 H2738 0.950 . S
C2746 C2744 1.391 . S
C2746 C2747 1.400 . S
C2747 C2746 1.400 . S
C2747 C2748 1.398 . S
C2747 C2753 1.491 . S
C2748 H2739 0.950 . S
C2748 C2747 1.398 . S
C2748 C2749 1.391 . S
C2749 H2737 0.950 . S
C2749 C2745 1.393 . S
C2749 C2748 1.391 . S
C2750 H2740 0.950 . S
C2750 C2751 1.386 . S
C2750 C2752 1.391 . S
C2751 C2750 1.386 . S
C2751 C2755 1.393 . S
C2752 H2741 0.950 . S
C2752 C2750 1.391 . S
C2752 C2753 1.400 . S
C2753 C2747 1.491 . S
C2753 C2752 1.400 . S
C2753 C2754 1.398 . S
C2754 H2742 0.950 . S
C2754 C2753 1.398 . S
C2754 C2755 1.391 . S
C2755 H2743 0.950 . S
C2755 C2751 1.393 . S
C2755 C2754 1.391 . S
H2756 C2764 0.950 . S
H2757 C2769 0.950 . S
H2758 C2766 0.950 . S
H2759 C2768 0.950 . S
H2760 C2770 0.950 . S
H2761 C2772 0.950 . S
H2762 C2774 0.950 . S
H2763 C2775 0.950 . S
C2764 H2756 0.950 . S
C2764 C2765 1.386 . S
C2764 C2766 1.391 . S
C2765 C2764 1.386 . S
C2765 C2769 1.393 . S
C2766 H2758 0.950 . S
C2766 C2764 1.391 . S
C2766 C2767 1.400 . S
C2767 C2766 1.400 . S
C2767 C2768 1.398 . S
C2767 C2773 1.491 . S
C2768 H2759 0.950 . S
C2768 C2767 1.398 . S
C2768 C2769 1.391 . S
C2769 H2757 0.950 . S
C2769 C2765 1.393 . S
C2769 C2768 1.391 . S
C2770 H2760 0.950 . S
C2770 C2771 1.386 . S
C2770 C2772 1.391 . S
C2771 C2770 1.386 . S
C2771 C2775 1.393 . S
C2772 H2761 0.950 . S
C2772 C2770 1.391 . S
C2772 C2773 1.400 . S
C2773 C2767 1.491 . S
C2773 C2772 1.400 . S
C2773 C2774 1.398 . S
C2774 H2762 0.950 . S
C2774 C2773 1.398 . S
C2774 C2775 1.391 . S
C2775 H2763 0.950 . S
C2775 C2771 1.393 . S
C2775 C2774 1.391 . S
H2776 C2784 0.950 . S
H2777 C2789 0.950 . S
H2778 C2786 0.950 . S
H2779 C2788 0.950 . S
H2780 C2790 0.950 . S
H2781 C2792 0.950 . S
H2782 C2794 0.950 . S
H2783 C2795 0.950 . S
C2784 H2776 0.950 . S
C2784 C2785 1.386 . S
C2784 C2786 1.391 . S
C2785 C2784 1.386 . S
C2785 C2789 1.393 . S
C2786 H2778 0.950 . S
C2786 C2784 1.391 . S
C2786 C2787 1.400 . S
C2787 C2786 1.400 . S
C2787 C2788 1.398 . S
C2787 C2793 1.491 . S
C2788 H2779 0.950 . S
C2788 C2787 1.398 . S
C2788 C2789 1.391 . S
C2789 H2777 0.950 . S
C2789 C2785 1.393 . S
C2789 C2788 1.391 . S
C2790 H2780 0.950 . S
C2790 C2791 1.386 . S
C2790 C2792 1.391 . S
C2791 C2790 1.386 . S
C2791 C2795 1.393 . S
C2792 H2781 0.950 . S
C2792 C2790 1.391 . S
C2792 C2793 1.400 . S
C2793 C2787 1.491 . S
C2793 C2792 1.400 . S
C2793 C2794 1.398 . S
C2794 H2782 0.950 . S
C2794 C2793 1.398 . S
C2794 C2795 1.391 . S
C2795 H2783 0.950 . S
C2795 C2791 1.393 . S
C2795 C2794 1.391 . S
H2796 C2804 0.950 . S
H2797 C2809 0.950 . S
H2798 C2806 0.950 . S
H2799 C2808 0.950 . S
H2800 C2810 0.950 1_554 S
H2801 C2812 0.950 . S
H2802 C2814 0.950 . S
H2803 C2815 0.950 . S
C2804 H2796 0.950 . S
C2804 C2805 1.386 . S
C2804 C2806 1.391 . S
C2805 C2804 1.386 . S
C2805 C2809 1.393 . S
C2806 H2798 0.950 . S
C2806 C2804 1.391 . S
C2806 C2807 1.400 . S
C2807 C2806 1.400 . S
C2807 C2808 1.398 . S
C2807 C2813 1.491 . S
C2808 H2799 0.950 . S
C2808 C2807 1.398 . S
C2808 C2809 1.391 . S
C2809 H2797 0.950 . S
C2809 C2805 1.393 . S
C2809 C2808 1.391 . S
C2810 H2800 0.950 1_556 S
C2810 C2811 1.386 . S
C2810 C2812 1.391 . S
C2811 C2810 1.386 . S
C2811 C2815 1.393 . S
C2812 H2801 0.950 . S
C2812 C2810 1.391 . S
C2812 C2813 1.400 . S
C2813 C2807 1.491 . S
C2813 C2812 1.400 . S
C2813 C2814 1.398 . S
C2814 H2802 0.950 . S
C2814 C2813 1.398 . S
C2814 C2815 1.391 . S
C2815 H2803 0.950 . S
C2815 C2811 1.393 . S
C2815 C2814 1.391 . S
H2816 C2824 0.950 . S
H2817 C2829 0.950 . S
H2818 C2826 0.950 . S
H2819 C2828 0.950 . S
H2820 C2830 0.950 . S
H2821 C2832 0.950 . S
H2822 C2834 0.950 . S
H2823 C2835 0.950 . S
C2824 H2816 0.950 . S
C2824 C2825 1.386 . S
C2824 C2826 1.391 . S
C2825 C2824 1.386 . S
C2825 C2829 1.393 . S
C2826 H2818 0.950 . S
C2826 C2824 1.391 . S
C2826 C2827 1.400 . S
C2827 C2826 1.400 . S
C2827 C2828 1.398 . S
C2827 C2833 1.491 . S
C2828 H2819 0.950 . S
C2828 C2827 1.398 . S
C2828 C2829 1.391 . S
C2829 H2817 0.950 . S
C2829 C2825 1.393 . S
C2829 C2828 1.391 . S
C2830 H2820 0.950 . S
C2830 C2831 1.386 . S
C2830 C2832 1.391 . S
C2831 C2830 1.386 . S
C2831 C2835 1.393 . S
C2832 H2821 0.950 . S
C2832 C2830 1.391 . S
C2832 C2833 1.400 . S
C2833 C2827 1.491 . S
C2833 C2832 1.400 . S
C2833 C2834 1.398 . S
C2834 H2822 0.950 . S
C2834 C2833 1.398 . S
C2834 C2835 1.391 . S
C2835 H2823 0.950 . S
C2835 C2831 1.393 . S
C2835 C2834 1.391 . S
H2836 C2844 0.950 . S
H2837 C2849 0.950 . S
H2838 C2846 0.950 . S
H2839 C2848 0.950 . S
H2840 C2850 0.950 . S
H2841 C2852 0.950 . S
H2842 C2854 0.950 . S
H2843 C2855 0.950 . S
C2844 H2836 0.950 . S
C2844 C2845 1.386 . S
C2844 C2846 1.391 . S
C2845 C2844 1.386 . S
C2845 C2849 1.393 . S
C2846 H2838 0.950 . S
C2846 C2844 1.391 . S
C2846 C2847 1.400 . S
C2847 C2846 1.400 . S
C2847 C2848 1.398 . S
C2847 C2853 1.491 . S
C2848 H2839 0.950 . S
C2848 C2847 1.398 . S
C2848 C2849 1.391 . S
C2849 H2837 0.950 . S
C2849 C2845 1.393 . S
C2849 C2848 1.391 . S
C2850 H2840 0.950 . S
C2850 C2851 1.386 . S
C2850 C2852 1.391 . S
C2851 C2850 1.386 . S
C2851 C2855 1.393 . S
C2852 H2841 0.950 . S
C2852 C2850 1.391 . S
C2852 C2853 1.400 . S
C2853 C2847 1.491 . S
C2853 C2852 1.400 . S
C2853 C2854 1.398 . S
C2854 H2842 0.950 . S
C2854 C2853 1.398 . S
C2854 C2855 1.391 . S
C2855 H2843 0.950 . S
C2855 C2851 1.393 . S
C2855 C2854 1.391 . S
H2856 C2864 0.950 1_655 S
H2857 C2869 0.950 . S
H2858 C2866 0.950 . S
H2859 C2868 0.950 . S
H2860 C2870 0.950 . S
H2861 C2872 0.950 . S
H2862 C2874 0.950 . S
H2863 C2875 0.950 . S
C2864 H2856 0.950 1_455 S
C2864 C2865 1.386 . S
C2864 C2866 1.391 . S
C2865 C2864 1.386 . S
C2865 C2869 1.393 . S
C2866 H2858 0.950 . S
C2866 C2864 1.391 . S
C2866 C2867 1.400 . S
C2867 C2866 1.400 . S
C2867 C2868 1.398 . S
C2867 C2873 1.491 . S
C2868 H2859 0.950 . S
C2868 C2867 1.398 . S
C2868 C2869 1.391 . S
C2869 H2857 0.950 . S
C2869 C2865 1.393 . S
C2869 C2868 1.391 . S
C2870 H2860 0.950 . S
C2870 C2871 1.386 . S
C2870 C2872 1.391 . S
C2871 C2870 1.386 . S
C2871 C2875 1.393 . S
C2872 H2861 0.950 . S
C2872 C2870 1.391 . S
C2872 C2873 1.400 . S
C2873 C2867 1.491 . S
C2873 C2872 1.400 . S
C2873 C2874 1.398 . S
C2874 H2862 0.950 . S
C2874 C2873 1.398 . S
C2874 C2875 1.391 . S
C2875 H2863 0.950 . S
C2875 C2871 1.393 . S
C2875 C2874 1.391 . S
H2876 C2884 0.950 . S
H2877 C2889 0.950 . S
H2878 C2886 0.950 . S
H2879 C2888 0.950 . S
H2880 C2890 0.950 . S
H2881 C2892 0.950 . S
H2882 C2894 0.950 . S
H2883 C2895 0.950 . S
C2884 H2876 0.950 . S
C2884 C2885 1.386 . S
C2884 C2886 1.391 . S
C2885 C2884 1.386 . S
C2885 C2889 1.393 . S
C2886 H2878 0.950 . S
C2886 C2884 1.391 . S
C2886 C2887 1.400 . S
C2887 C2886 1.400 . S
C2887 C2888 1.398 . S
C2887 C2893 1.491 . S
C2888 H2879 0.950 . S
C2888 C2887 1.398 . S
C2888 C2889 1.391 . S
C2889 H2877 0.950 . S
C2889 C2885 1.393 . S
C2889 C2888 1.391 . S
C2890 H2880 0.950 . S
C2890 C2891 1.386 . S
C2890 C2892 1.391 . S
C2891 C2890 1.386 . S
C2891 C2895 1.393 . S
C2892 H2881 0.950 . S
C2892 C2890 1.391 . S
C2892 C2893 1.400 . S
C2893 C2887 1.491 . S
C2893 C2892 1.400 . S
C2893 C2894 1.398 . S
C2894 H2882 0.950 . S
C2894 C2893 1.398 . S
C2894 C2895 1.391 . S
C2895 H2883 0.950 . S
C2895 C2891 1.393 . S
C2895 C2894 1.391 . S
H2896 C2904 0.950 . S
H2897 C2909 0.950 . S
H2898 C2906 0.950 . S
H2899 C2908 0.950 . S
H2900 C2910 0.950 . S
H2901 C2912 0.950 . S
H2902 C2914 0.950 . S
H2903 C2915 0.950 . S
C2904 H2896 0.950 . S
C2904 C2905 1.386 . S
C2904 C2906 1.391 . S
C2905 C2904 1.386 . S
C2905 C2909 1.393 . S
C2906 H2898 0.950 . S
C2906 C2904 1.391 . S
C2906 C2907 1.400 . S
C2907 C2906 1.400 . S
C2907 C2908 1.398 . S
C2907 C2913 1.491 . S
C2908 H2899 0.950 . S
C2908 C2907 1.398 . S
C2908 C2909 1.391 . S
C2909 H2897 0.950 . S
C2909 C2905 1.393 . S
C2909 C2908 1.391 . S
C2910 H2900 0.950 . S
C2910 C2911 1.386 . S
C2910 C2912 1.391 . S
C2911 C2910 1.386 . S
C2911 C2915 1.393 . S
C2912 H2901 0.950 . S
C2912 C2910 1.391 . S
C2912 C2913 1.400 . S
C2913 C2907 1.491 . S
C2913 C2912 1.400 . S
C2913 C2914 1.398 . S
C2914 H2902 0.950 . S
C2914 C2913 1.398 . S
C2914 C2915 1.391 . S
C2915 H2903 0.950 . S
C2915 C2911 1.393 . S
C2915 C2914 1.391 . S
H2916 C2924 0.950 . S
H2917 C2929 0.950 . S
H2918 C2926 0.950 . S
H2919 C2928 0.950 . S
H2920 C2930 0.950 . S
H2921 C2932 0.950 . S
H2922 C2934 0.950 . S
H2923 C2935 0.945 1_545 S
C2924 H2916 0.950 . S
C2924 C2925 1.386 . S
C2924 C2926 1.391 . S
C2925 C2924 1.386 . S
C2925 C2929 1.393 . S
C2926 H2918 0.950 . S
C2926 C2924 1.391 . S
C2926 C2927 1.400 . S
C2927 C2926 1.400 . S
C2927 C2928 1.398 . S
C2927 C2933 1.491 . S
C2928 H2919 0.950 . S
C2928 C2927 1.398 . S
C2928 C2929 1.391 . S
C2929 H2917 0.950 . S
C2929 C2925 1.393 . S
C2929 C2928 1.391 . S
C2930 H2920 0.950 . S
C2930 C2931 1.386 . S
C2930 C2932 1.391 . S
C2931 C2930 1.386 . S
C2931 C2935 1.393 . S
C2932 H2921 0.950 . S
C2932 C2930 1.391 . S
C2932 C2933 1.400 . S
C2933 C2927 1.491 . S
C2933 C2932 1.400 . S
C2933 C2934 1.398 . S
C2934 H2922 0.950 . S
C2934 C2933 1.398 . S
C2934 C2935 1.391 . S
C2935 H2923 0.945 1_565 S
C2935 C2931 1.393 . S
C2935 C2934 1.391 . S
H2936 C2944 0.950 . S
H2937 C2949 0.950 . S
H2938 C2946 0.950 . S
H2939 C2948 0.950 . S
H2940 C2950 0.950 . S
H2941 C2952 0.950 . S
H2942 C2954 0.950 . S
H2943 C2955 0.950 . S
C2944 H2936 0.950 . S
C2944 C2945 1.386 . S
C2944 C2946 1.391 . S
C2945 C2944 1.386 . S
C2945 C2949 1.393 . S
C2946 H2938 0.950 . S
C2946 C2944 1.391 . S
C2946 C2947 1.400 . S
C2947 C2946 1.400 . S
C2947 C2948 1.398 . S
C2947 C2953 1.491 . S
C2948 H2939 0.950 . S
C2948 C2947 1.398 . S
C2948 C2949 1.391 . S
C2949 H2937 0.950 . S
C2949 C2945 1.393 . S
C2949 C2948 1.391 . S
C2950 H2940 0.950 . S
C2950 C2951 1.386 . S
C2950 C2952 1.391 . S
C2951 C2950 1.386 . S
C2951 C2955 1.393 . S
C2952 H2941 0.950 . S
C2952 C2950 1.391 . S
C2952 C2953 1.400 . S
C2953 C2947 1.491 . S
C2953 C2952 1.400 . S
C2953 C2954 1.398 . S
C2954 H2942 0.950 . S
C2954 C2953 1.398 . S
C2954 C2955 1.391 . S
C2955 H2943 0.950 . S
C2955 C2951 1.393 . S
C2955 C2954 1.391 . S
H2956 C2964 0.950 . S
H2957 C2969 0.950 . S
H2958 C2966 0.950 . S
H2959 C2968 0.950 . S
H2960 C2970 0.950 . S
H2961 C2972 0.950 . S
H2962 C2974 0.950 . S
H2963 C2975 0.950 . S
C2964 H2956 0.950 . S
C2964 C2965 1.386 . S
C2964 C2966 1.391 . S
C2965 C2964 1.386 . S
C2965 C2969 1.393 . S
C2966 H2958 0.950 . S
C2966 C2964 1.391 . S
C2966 C2967 1.400 . S
C2967 C2966 1.400 . S
C2967 C2968 1.398 . S
C2967 C2973 1.491 . S
C2968 H2959 0.950 . S
C2968 C2967 1.398 . S
C2968 C2969 1.391 . S
C2969 H2957 0.950 . S
C2969 C2965 1.393 . S
C2969 C2968 1.391 . S
C2970 H2960 0.950 . S
C2970 C2971 1.386 . S
C2970 C2972 1.391 . S
C2971 C2970 1.386 . S
C2971 C2975 1.393 . S
C2972 H2961 0.950 . S
C2972 C2970 1.391 . S
C2972 C2973 1.400 . S
C2973 C2967 1.491 . S
C2973 C2972 1.400 . S
C2973 C2974 1.398 . S
C2974 H2962 0.950 . S
C2974 C2973 1.398 . S
C2974 C2975 1.391 . S
C2975 H2963 0.950 . S
C2975 C2971 1.393 . S
C2975 C2974 1.391 . S
H2976 C2984 0.950 . S
H2977 C2989 0.950 . S
H2978 C2986 0.950 . S
H2979 C2988 0.950 . S
H2980 C2990 0.950 . S
H2981 C2992 0.950 . S
H2982 C2994 0.950 . S
H2983 C2995 0.950 . S
C2984 H2976 0.950 . S
C2984 C2985 1.386 . S
C2984 C2986 1.391 . S
C2985 C2984 1.386 . S
C2985 C2989 1.393 . S
C2986 H2978 0.950 . S
C2986 C2984 1.391 . S
C2986 C2987 1.400 . S
C2987 C2986 1.400 . S
C2987 C2988 1.398 . S
C2987 C2993 1.491 . S
C2988 H2979 0.950 . S
C2988 C2987 1.398 . S
C2988 C2989 1.391 . S
C2989 H2977 0.950 . S
C2989 C2985 1.393 . S
C2989 C2988 1.391 . S
C2990 H2980 0.950 . S
C2990 C2991 1.386 . S
C2990 C2992 1.391 . S
C2991 C2990 1.386 . S
C2991 C2995 1.393 . S
C2992 H2981 0.950 . S
C2992 C2990 1.391 . S
C2992 C2993 1.400 . S
C2993 C2987 1.491 . S
C2993 C2992 1.400 . S
C2993 C2994 1.398 . S
C2994 H2982 0.950 . S
C2994 C2993 1.398 . S
C2994 C2995 1.391 . S
C2995 H2983 0.950 . S
C2995 C2991 1.393 . S
C2995 C2994 1.391 . S
H2996 C3004 0.950 . S
H2997 C3009 0.950 . S
H2998 C3006 0.950 . S
H2999 C3008 0.950 . S
H3000 C3010 0.950 . S
H3001 C3012 0.950 . S
H3002 C3014 0.950 . S
H3003 C3015 0.950 . S
C3004 H2996 0.950 . S
C3004 C3005 1.386 . S
C3004 C3006 1.391 . S
C3005 C3004 1.386 . S
C3005 C3009 1.393 . S
C3006 H2998 0.950 . S
C3006 C3004 1.391 . S
C3006 C3007 1.400 . S
C3007 C3006 1.400 . S
C3007 C3008 1.398 . S
C3007 C3013 1.491 . S
C3008 H2999 0.950 . S
C3008 C3007 1.398 . S
C3008 C3009 1.391 . S
C3009 H2997 0.950 . S
C3009 C3005 1.393 . S
C3009 C3008 1.391 . S
C3010 H3000 0.950 . S
C3010 C3011 1.386 . S
C3010 C3012 1.391 . S
C3011 C3010 1.386 . S
C3011 C3015 1.393 . S
C3012 H3001 0.950 . S
C3012 C3010 1.391 . S
C3012 C3013 1.400 . S
C3013 C3007 1.491 . S
C3013 C3012 1.400 . S
C3013 C3014 1.398 . S
C3014 H3002 0.950 . S
C3014 C3013 1.398 . S
C3014 C3015 1.391 . S
C3015 H3003 0.950 . S
C3015 C3011 1.393 . S
C3015 C3014 1.391 . S
H3016 C3024 0.950 . S
H3017 C3029 0.950 . S
H3018 C3026 0.950 . S
H3019 C3028 0.950 . S
H3020 C3030 0.950 . S
H3021 C3032 0.950 . S
H3022 C3034 0.950 . S
H3023 C3035 0.950 . S
C3024 H3016 0.950 . S
C3024 C3025 1.386 . S
C3024 C3026 1.391 . S
C3025 C3024 1.386 . S
C3025 C3029 1.393 . S
C3026 H3018 0.950 . S
C3026 C3024 1.391 . S
C3026 C3027 1.400 . S
C3027 C3026 1.400 . S
C3027 C3028 1.398 . S
C3027 C3033 1.491 . S
C3028 H3019 0.950 . S
C3028 C3027 1.398 . S
C3028 C3029 1.391 . S
C3029 H3017 0.950 . S
C3029 C3025 1.393 . S
C3029 C3028 1.391 . S
C3030 H3020 0.950 . S
C3030 C3031 1.386 . S
C3030 C3032 1.391 . S
C3031 C3030 1.386 . S
C3031 C3035 1.393 . S
C3032 H3021 0.950 . S
C3032 C3030 1.391 . S
C3032 C3033 1.400 . S
C3033 C3027 1.491 . S
C3033 C3032 1.400 . S
C3033 C3034 1.398 . S
C3034 H3022 0.950 . S
C3034 C3033 1.398 . S
C3034 C3035 1.391 . S
C3035 H3023 0.950 . S
C3035 C3031 1.393 . S
C3035 C3034 1.391 . S
H3036 C3044 0.950 . S
H3037 C3049 0.950 . S
H3038 C3046 0.950 . S
H3039 C3048 0.950 . S
H3040 C3050 0.950 . S
H3041 C3052 0.950 . S
H3042 C3054 0.950 . S
H3043 C3055 0.950 1_556 S
C3044 H3036 0.950 . S
C3044 C3045 1.386 . S
C3044 C3046 1.391 . S
C3045 C3044 1.386 . S
C3045 C3049 1.393 . S
C3046 H3038 0.950 . S
C3046 C3044 1.391 . S
C3046 C3047 1.400 . S
C3047 C3046 1.400 . S
C3047 C3048 1.398 . S
C3047 C3053 1.491 . S
C3048 H3039 0.950 . S
C3048 C3047 1.398 . S
C3048 C3049 1.391 . S
C3049 H3037 0.950 . S
C3049 C3045 1.393 . S
C3049 C3048 1.391 . S
C3050 H3040 0.950 . S
C3050 C3051 1.386 . S
C3050 C3052 1.391 . S
C3051 C3050 1.386 . S
C3051 C3055 1.393 . S
C3052 H3041 0.950 . S
C3052 C3050 1.391 . S
C3052 C3053 1.400 . S
C3053 C3047 1.491 . S
C3053 C3052 1.400 . S
C3053 C3054 1.398 . S
C3054 H3042 0.950 . S
C3054 C3053 1.398 . S
C3054 C3055 1.391 . S
C3055 H3043 0.950 1_554 S
C3055 C3051 1.393 . S
C3055 C3054 1.391 . S
H3056 C3064 0.950 . S
H3057 C3069 0.950 . S
H3058 C3066 0.950 . S
H3059 C3068 0.950 . S
H3060 C3070 0.950 . S
H3061 C3072 0.950 . S
H3062 C3074 0.950 . S
H3063 C3075 0.950 . S
C3064 H3056 0.950 . S
C3064 C3065 1.386 . S
C3064 C3066 1.391 . S
C3065 C3064 1.386 . S
C3065 C3069 1.393 . S
C3066 H3058 0.950 . S
C3066 C3064 1.391 . S
C3066 C3067 1.400 . S
C3067 C3066 1.400 . S
C3067 C3068 1.398 . S
C3067 C3073 1.491 . S
C3068 H3059 0.950 . S
C3068 C3067 1.398 . S
C3068 C3069 1.391 . S
C3069 H3057 0.950 . S
C3069 C3065 1.393 . S
C3069 C3068 1.391 . S
C3070 H3060 0.950 . S
C3070 C3071 1.386 . S
C3070 C3072 1.391 . S
C3071 C3070 1.386 . S
C3071 C3075 1.393 . S
C3072 H3061 0.950 . S
C3072 C3070 1.391 . S
C3072 C3073 1.400 . S
C3073 C3067 1.491 . S
C3073 C3072 1.400 . S
C3073 C3074 1.398 . S
C3074 H3062 0.950 . S
C3074 C3073 1.398 . S
C3074 C3075 1.391 . S
C3075 H3063 0.950 . S
C3075 C3071 1.393 . S
C3075 C3074 1.391 . S
H3076 C3084 0.950 . S
H3077 C3089 0.918 1_655 S
H3078 C3086 0.950 . S
H3079 C3088 0.950 . S
H3080 C3090 0.950 . S
H3081 C3092 0.950 . S
H3082 C3094 0.950 . S
H3083 C3095 0.950 . S
C3084 H3076 0.950 . S
C3084 C3085 1.386 . S
C3084 C3086 1.391 . S
C3085 C3084 1.386 . S
C3085 C3089 1.393 . S
C3086 H3078 0.950 . S
C3086 C3084 1.391 . S
C3086 C3087 1.400 . S
C3087 C3086 1.400 . S
C3087 C3088 1.398 . S
C3087 C3093 1.491 . S
C3088 H3079 0.950 . S
C3088 C3087 1.398 . S
C3088 C3089 1.391 . S
C3089 H3077 0.918 1_455 S
C3089 C3085 1.393 . S
C3089 C3088 1.391 . S
C3090 H3080 0.950 . S
C3090 C3091 1.386 . S
C3090 C3092 1.391 . S
C3091 C3090 1.386 . S
C3091 C3095 1.393 . S
C3092 H3081 0.950 . S
C3092 C3090 1.391 . S
C3092 C3093 1.400 . S
C3093 C3087 1.491 . S
C3093 C3092 1.400 . S
C3093 C3094 1.398 . S
C3094 H3082 0.950 . S
C3094 C3093 1.398 . S
C3094 C3095 1.391 . S
C3095 H3083 0.950 . S
C3095 C3091 1.393 . S
C3095 C3094 1.391 . S
H3096 C3104 0.950 . S
H3097 C3109 0.950 . S
H3098 C3106 0.950 . S
H3099 C3108 0.950 . S
H3100 C3110 0.950 . S
H3101 C3112 0.950 . S
H3102 C3114 0.950 . S
H3103 C3115 0.950 . S
C3104 H3096 0.950 . S
C3104 C3105 1.386 . S
C3104 C3106 1.391 . S
C3105 C3104 1.386 . S
C3105 C3109 1.393 . S
C3106 H3098 0.950 . S
C3106 C3104 1.391 . S
C3106 C3107 1.400 . S
C3107 C3106 1.400 . S
C3107 C3108 1.398 . S
C3107 C3113 1.491 . S
C3108 H3099 0.950 . S
C3108 C3107 1.398 . S
C3108 C3109 1.391 . S
C3109 H3097 0.950 . S
C3109 C3105 1.393 . S
C3109 C3108 1.391 . S
C3110 H3100 0.950 . S
C3110 C3111 1.386 . S
C3110 C3112 1.391 . S
C3111 C3110 1.386 . S
C3111 C3115 1.393 . S
C3112 H3101 0.950 . S
C3112 C3110 1.391 . S
C3112 C3113 1.400 . S
C3113 C3107 1.491 . S
C3113 C3112 1.400 . S
C3113 C3114 1.398 . S
C3114 H3102 0.950 . S
C3114 C3113 1.398 . S
C3114 C3115 1.391 . S
C3115 H3103 0.950 . S
C3115 C3111 1.393 . S
C3115 C3114 1.391 . S
H3116 C3124 0.950 . S
H3117 C3129 0.950 . S
H3118 C3126 0.950 . S
H3119 C3128 0.950 . S
H3120 C3130 0.950 . S
H3121 C3132 0.950 . S
H3122 C3134 0.950 . S
H3123 C3135 0.950 . S
C3124 H3116 0.950 . S
C3124 C3125 1.386 . S
C3124 C3126 1.391 . S
C3125 C3124 1.386 . S
C3125 C3129 1.393 . S
C3126 H3118 0.950 . S
C3126 C3124 1.391 . S
C3126 C3127 1.400 . S
C3127 C3126 1.400 . S
C3127 C3128 1.398 . S
C3127 C3133 1.491 . S
C3128 H3119 0.950 . S
C3128 C3127 1.398 . S
C3128 C3129 1.391 . S
C3129 H3117 0.950 . S
C3129 C3125 1.393 . S
C3129 C3128 1.391 . S
C3130 H3120 0.950 . S
C3130 C3131 1.386 . S
C3130 C3132 1.391 . S
C3131 C3130 1.386 . S
C3131 C3135 1.393 . S
C3132 H3121 0.950 . S
C3132 C3130 1.391 . S
C3132 C3133 1.400 . S
C3133 C3127 1.491 . S
C3133 C3132 1.400 . S
C3133 C3134 1.398 . S
C3134 H3122 0.950 . S
C3134 C3133 1.398 . S
C3134 C3135 1.391 . S
C3135 H3123 0.950 . S
C3135 C3131 1.393 . S
C3135 C3134 1.391 . S
H3136 C3144 0.950 . S
H3137 C3149 0.950 . S
H3138 C3146 0.950 . S
H3139 C3148 0.950 . S
H3140 C3150 0.950 . S
H3141 C3152 0.950 . S
H3142 C3154 0.950 . S
H3143 C3155 0.950 . S
C3144 H3136 0.950 . S
C3144 C3145 1.386 . S
C3144 C3146 1.391 . S
C3145 C3144 1.386 . S
C3145 C3149 1.393 . S
C3146 H3138 0.950 . S
C3146 C3144 1.391 . S
C3146 C3147 1.400 . S
C3147 C3146 1.400 . S
C3147 C3148 1.398 . S
C3147 C3153 1.491 . S
C3148 H3139 0.950 . S
C3148 C3147 1.398 . S
C3148 C3149 1.391 . S
C3149 H3137 0.950 . S
C3149 C3145 1.393 . S
C3149 C3148 1.391 . S
C3150 H3140 0.950 . S
C3150 C3151 1.386 . S
C3150 C3152 1.391 . S
C3151 C3150 1.386 . S
C3151 C3155 1.393 . S
C3152 H3141 0.950 . S
C3152 C3150 1.391 . S
C3152 C3153 1.400 . S
C3153 C3147 1.491 . S
C3153 C3152 1.400 . S
C3153 C3154 1.398 . S
C3154 H3142 0.950 . S
C3154 C3153 1.398 . S
C3154 C3155 1.391 . S
C3155 H3143 0.950 . S
C3155 C3151 1.393 . S
C3155 C3154 1.391 . S
H3156 C3164 0.950 . S
H3157 C3169 0.950 . S
H3158 C3166 0.950 . S
H3159 C3168 0.950 . S
H3160 C3170 0.950 . S
H3161 C3172 0.950 . S
H3162 C3174 0.950 . S
H3163 C3175 0.950 . S
C3164 H3156 0.950 . S
C3164 C3165 1.386 . S
C3164 C3166 1.391 . S
C3165 C3164 1.386 . S
C3165 C3169 1.393 . S
C3166 H3158 0.950 . S
C3166 C3164 1.391 . S
C3166 C3167 1.400 . S
C3167 C3166 1.400 . S
C3167 C3168 1.398 . S
C3167 C3173 1.491 . S
C3168 H3159 0.950 . S
C3168 C3167 1.398 . S
C3168 C3169 1.391 . S
C3169 H3157 0.950 . S
C3169 C3165 1.393 . S
C3169 C3168 1.391 . S
C3170 H3160 0.950 . S
C3170 C3171 1.386 . S
C3170 C3172 1.391 . S
C3171 C3170 1.386 . S
C3171 C3175 1.393 . S
C3172 H3161 0.950 . S
C3172 C3170 1.391 . S
C3172 C3173 1.400 . S
C3173 C3167 1.491 . S
C3173 C3172 1.400 . S
C3173 C3174 1.398 . S
C3174 H3162 0.950 . S
C3174 C3173 1.398 . S
C3174 C3175 1.391 . S
C3175 H3163 0.950 . S
C3175 C3171 1.393 . S
C3175 C3174 1.391 . S
H3176 C3184 0.950 . S
H3177 C3189 0.950 1_545 S
H3178 C3186 0.950 . S
H3179 C3188 0.950 . S
H3180 C3190 0.950 . S
H3181 C3192 0.950 . S
H3182 C3194 0.950 . S
H3183 C3195 0.950 . S
C3184 H3176 0.950 . S
C3184 C3185 1.386 . S
C3184 C3186 1.391 . S
C3185 C3184 1.386 . S
C3185 C3189 1.393 . S
C3186 H3178 0.950 . S
C3186 C3184 1.391 . S
C3186 C3187 1.400 . S
C3187 C3186 1.400 . S
C3187 C3188 1.398 . S
C3187 C3193 1.491 . S
C3188 H3179 0.950 . S
C3188 C3187 1.398 . S
C3188 C3189 1.391 . S
C3189 H3177 0.950 1_565 S
C3189 C3185 1.393 . S
C3189 C3188 1.391 . S
C3190 H3180 0.950 . S
C3190 C3191 1.386 . S
C3190 C3192 1.391 . S
C3191 C3190 1.386 . S
C3191 C3195 1.393 . S
C3192 H3181 0.950 . S
C3192 C3190 1.391 . S
C3192 C3193 1.400 . S
C3193 C3187 1.491 . S
C3193 C3192 1.400 . S
C3193 C3194 1.398 . S
C3194 H3182 0.950 . S
C3194 C3193 1.398 . S
C3194 C3195 1.391 . S
C3195 H3183 0.950 . S
C3195 C3191 1.393 . S
C3195 C3194 1.391 . S
H3196 C3204 0.950 . S
H3197 C3209 0.950 . S
H3198 C3206 0.950 . S
H3199 C3208 0.950 . S
H3200 C3210 0.950 . S
H3201 C3212 0.950 . S
H3202 C3214 0.950 . S
H3203 C3215 0.950 . S
C3204 H3196 0.950 . S
C3204 C3205 1.386 . S
C3204 C3206 1.391 . S
C3205 C3204 1.386 . S
C3205 C3209 1.393 . S
C3206 H3198 0.950 . S
C3206 C3204 1.391 . S
C3206 C3207 1.400 . S
C3207 C3206 1.400 . S
C3207 C3208 1.398 . S
C3207 C3213 1.491 . S
C3208 H3199 0.950 . S
C3208 C3207 1.398 . S
C3208 C3209 1.391 . S
C3209 H3197 0.950 . S
C3209 C3205 1.393 . S
C3209 C3208 1.391 . S
C3210 H3200 0.950 . S
C3210 C3211 1.386 . S
C3210 C3212 1.391 . S
C3211 C3210 1.386 . S
C3211 C3215 1.393 . S
C3212 H3201 0.950 . S
C3212 C3210 1.391 . S
C3212 C3213 1.400 . S
C3213 C3207 1.491 . S
C3213 C3212 1.400 . S
C3213 C3214 1.398 . S
C3214 H3202 0.950 . S
C3214 C3213 1.398 . S
C3214 C3215 1.391 . S
C3215 H3203 0.950 . S
C3215 C3211 1.393 . S
C3215 C3214 1.391 . S
C1305 C977 0.817 . S
C1311 C5 0.841 . S
C1325 C76 0.853 . S
C1331 C1031 0.866 . S
C1345 C886 0.823 . S
C1351 C113 0.853 . S
C1365 C184 0.841 . S
C1371 C923 0.863 . S
C1385 C1193 0.820 . S
C1391 C238 0.849 . S
C1405 C1139 0.862 . S
C1411 C275 0.862 . S
C1425 C1264 0.844 . S
C1431 C329 0.866 . S
C1445 C1085 0.846 . S
C1451 C400 0.826 . S
C1465 C454 0.839 . S
C1471 C707 0.862 . S
C1485 C815 0.845 . S
C1491 C491 0.866 . S
C1505 C562 0.856 . S
C1511 C778 0.865 . S
C1525 C670 0.857 . S
C1531 C616 0.834 . S
C1545 C346 0.859 . S
C1551 C653 0.864 . S
C1565 C383 0.860 . S
C1571 C724 0.864 . S
C1585 C221 0.847 . S
C1591 C761 0.866 . S
C1605 C832 0.825 . S
C1611 C292 0.844 . S
C1625 C545 0.843 . S
C1631 C869 0.866 . S
C1645 C940 0.867 . S
C1651 C508 0.850 . S
C1665 C599 0.820 . S
C1671 C994 0.850 . S
C1685 C437 0.863 . S
C1691 C1048 0.861 . S
C1705 C1102 0.854 . S
C1711 C59 0.866 . S
C1725 C167 0.837 . S
C1731 C1156 0.864 . S
C1745 C1210 0.854 . S
C1751 C130 0.824 . S
C1765 C1247 0.866 . S
C1771 C22 0.854 . S
C1785 C445 1.852 . S
C1791 C28 2.049 . S
C1805 C89 2.048 . S
C1811 C607 1.852 . S
C1825 C136 2.056 . S
C1831 C518 1.868 . S
C1845 C197 2.063 . S
C1851 C553 1.882 . S
C1865 C251 2.048 . S
C1871 C32 1.850 . S
C1885 C298 2.056 . S
C1891 C67 1.867 . S
C1905 C140 1.852 . S
C1911 C352 2.049 . S
C1925 C413 2.062 . S
C1931 C175 1.881 . S
C1945 C229 1.882 . S
C1951 C467 2.063 . S
C1965 C514 2.052 . S
C1971 C356 1.858 . S
C1985 C391 1.857 . S
C1991 C575 2.051 . S
C2005 C302 1.878 . S
C2011 C629 2.061 . S
C2025 C1093 1.867 . S
C2031 C676 2.055 . S
C2045 C737 2.064 . S
C2051 C1274 1.883 . S
C2065 C1147 1.872 . S
C2071 C784 2.058 . S
C2085 C845 2.049 . S
C2091 C1201 1.852 . S
C2105 C680 1.851 . S
C2111 C892 2.048 . S
C2125 C715 1.882 . S
C2131 C953 2.063 . S
C2145 C1007 2.049 . S
C2151 C788 1.852 . S
C2165 C823 1.861 . S
C2171 C1061 2.053 . S
C2185 C896 1.851 . S
C2191 C1115 2.048 . S
C2205 C1169 2.059 . S
C2211 C985 1.874 . S
C2225 C1223 2.053 . S
C2231 C1039 1.861 . S
C2245 C1270 2.051 . S
C2251 C931 1.855 . S
C2265 C27 1.011 . S
C2271 C622 1.008 . S
C2285 C460 0.972 . S
C2291 C64 0.998 . S
C2305 C135 1.021 . S
C2311 C568 0.982 . S
C2325 C172 1.022 . S
C2331 C521 0.985 . S
C2345 C143 0.966 . S
C2351 C226 1.011 . S
C2365 C190 1.007 . S
C2371 C297 1.007 . S
C2385 C35 0.966 . S
C2391 C351 1.011 . S
C2405 C388 0.997 . S
C2411 C82 0.978 . S
C2425 C406 1.004 . S
C2431 C442 1.018 . S
C2445 C513 1.020 . S
C2451 C305 0.980 . S
C2465 C244 0.992 . S
C2471 C550 1.022 . S
C2485 C604 1.021 . S
C2491 C359 0.996 . S
C2505 C1277 1.007 . S
C2511 C675 1.012 . S
C2525 C1108 0.975 . S
C2531 C712 1.019 . S
C2545 C1216 0.966 . S
C2551 C783 1.011 . S
C2565 C1162 0.993 . S
C2571 C820 0.997 . S
C2585 C891 1.017 . S
C2591 C791 0.972 . S
C2605 C928 0.998 . S
C2611 C838 0.995 . S
C2625 C982 1.016 . S
C2631 C683 0.971 . S
C2645 C1036 0.997 . S
C2651 C730 0.993 . S
C2665 C1054 0.998 . S
C2671 C1090 1.021 . S
C2685 C946 0.996 . S
C2691 C1144 0.998 . S
C2705 C899 0.994 . S
C2711 C1198 0.998 . S
C2725 C1000 1.002 . S
C2731 C1269 1.019 . S
C2745 C1215 2.225 . S
C2751 C13 2.213 . S
C2765 C1161 2.224 . S
C2771 C86 2.211 . S
C2785 C121 2.207 . S
C2791 C1252 2.221 . S
C2805 C1107 2.219 . S
C2811 C194 2.204 . S
C2825 C248 2.204 . S
C2831 C729 2.219 . S
C2845 C658 2.214 . S
C2851 C283 2.201 . S
C2865 C337 2.207 . S
C2871 C837 2.216 . S
C2885 C410 2.204 . S
C2891 C766 2.214 . S
C2905 C999 2.221 . S
C2911 C464 2.213 . S
C2925 C874 2.224 . S
C2931 C499 2.215 . S
C2945 C572 2.214 . S
C2951 C945 2.223 . S
C2965 C626 2.214 . S
C2971 C1053 2.223 . S
C2985 C661 2.201 . S
C2991 C567 2.214 . S
C3005 C734 2.210 . S
C3011 C496 2.223 . S
C3025 C621 2.222 . S
C3031 C769 2.208 . S
C3045 C459 2.220 . S
C3051 C842 2.205 . S
C3065 C877 2.213 . S
C3071 C81 2.225 . S
C3085 C950 2.208 . S
C3091 C10 2.216 . S
C3105 C1004 2.204 . S
C3111 C189 2.214 . S
C3125 C1058 2.215 . S
C3131 C118 2.224 . S
C3145 C1112 2.215 . S
C3151 C334 2.224 . S
C3165 C1166 2.205 . S
C3171 C243 2.214 . S
C3185 C1220 2.214 . S
C3191 C280 2.223 . S
C3205 C405 2.213 . S
C3211 C1255 2.202 . S
