# Generated by pormake.
# Topology unb, (4)-cn, num edge types: 1
# Building blocks:
#     Node 0, Type 0, BuildingBlock: AZAVOO_clean_sbu_0, # of connection points: 4
#     Node 1, Type 0, BuildingBlock: AZAVOO_clean_sbu_0, # of connection points: 4
#     Node 2, Type 0, BuildingBlock: AZAVOO_clean_sbu_0, # of connection points: 4
#     Node 3, Type 0, BuildingBlock: AZAVOO_clean_sbu_0, # of connection points: 4
#     Node 4, Type 0, BuildingBlock: AZAVOO_clean_sbu_0, # of connection points: 4
#     Node 5, Type 0, BuildingBlock: AZAVOO_clean_sbu_0, # of connection points: 4
#     Node 6, Type 0, BuildingBlock: AZAVOO_clean_sbu_0, # of connection points: 4
#     Node 7, Type 0, BuildingBlock: AZAVOO_clean_sbu_0, # of connection points: 4
#     Node 8, Type 0, BuildingBlock: AZAVOO_clean_sbu_0, # of connection points: 4
#     Node 9, Type 0, BuildingBlock: AZAVOO_clean_sbu_0, # of connection points: 4
#     Node 10, Type 0, BuildingBlock: AZAVOO_clean_sbu_0, # of connection points: 4
#     Node 11, Type 0, BuildingBlock: AZAVOO_clean_sbu_0, # of connection points: 4
#     Node 12, Type 0, BuildingBlock: AZAVOO_clean_sbu_0, # of connection points: 4
#     Node 13, Type 0, BuildingBlock: AZAVOO_clean_sbu_0, # of connection points: 4
#     Node 14, Type 0, BuildingBlock: AZAVOO_clean_sbu_0, # of connection points: 4
#     Node 15, Type 0, BuildingBlock: AZAVOO_clean_sbu_0, # of connection points: 4
#     Node 16, Type 0, BuildingBlock: AZAVOO_clean_sbu_0, # of connection points: 4
#     Node 17, Type 0, BuildingBlock: AZAVOO_clean_sbu_0, # of connection points: 4
#     Edge 18, Type (0, 0), BuildingBlock: XUDNAN_clean_linker_2, # of connection points: 2
#     Edge 19, Type (0, 0), BuildingBlock: XUDNAN_clean_linker_2, # of connection points: 2
#     Edge 20, Type (0, 0), BuildingBlock: XUDNAN_clean_linker_2, # of connection points: 2
#     Edge 21, Type (0, 0), BuildingBlock: XUDNAN_clean_linker_2, # of connection points: 2
#     Edge 22, Type (0, 0), BuildingBlock: XUDNAN_clean_linker_2, # of connection points: 2
#     Edge 23, Type (0, 0), BuildingBlock: XUDNAN_clean_linker_2, # of connection points: 2
#     Edge 24, Type (0, 0), BuildingBlock: XUDNAN_clean_linker_2, # of connection points: 2
#     Edge 25, Type (0, 0), BuildingBlock: XUDNAN_clean_linker_2, # of connection points: 2
#     Edge 26, Type (0, 0), BuildingBlock: XUDNAN_clean_linker_2, # of connection points: 2
#     Edge 27, Type (0, 0), BuildingBlock: XUDNAN_clean_linker_2, # of connection points: 2
#     Edge 28, Type (0, 0), BuildingBlock: XUDNAN_clean_linker_2, # of connection points: 2
#     Edge 29, Type (0, 0), BuildingBlock: XUDNAN_clean_linker_2, # of connection points: 2
#     Edge 30, Type (0, 0), BuildingBlock: XUDNAN_clean_linker_2, # of connection points: 2
#     Edge 31, Type (0, 0), BuildingBlock: XUDNAN_clean_linker_2, # of connection points: 2
#     Edge 32, Type (0, 0), BuildingBlock: XUDNAN_clean_linker_2, # of connection points: 2
#     Edge 33, Type (0, 0), BuildingBlock: XUDNAN_clean_linker_2, # of connection points: 2
#     Edge 34, Type (0, 0), BuildingBlock: XUDNAN_clean_linker_2, # of connection points: 2
#     Edge 35, Type (0, 0), BuildingBlock: XUDNAN_clean_linker_2, # of connection points: 2
#     Edge 36, Type (0, 0), BuildingBlock: XUDNAN_clean_linker_2, # of connection points: 2
#     Edge 37, Type (0, 0), BuildingBlock: XUDNAN_clean_linker_2, # of connection points: 2
#     Edge 38, Type (0, 0), BuildingBlock: XUDNAN_clean_linker_2, # of connection points: 2
#     Edge 39, Type (0, 0), BuildingBlock: XUDNAN_clean_linker_2, # of connection points: 2
#     Edge 40, Type (0, 0), BuildingBlock: XUDNAN_clean_linker_2, # of connection points: 2
#     Edge 41, Type (0, 0), BuildingBlock: XUDNAN_clean_linker_2, # of connection points: 2
#     Edge 42, Type (0, 0), BuildingBlock: XUDNAN_clean_linker_2, # of connection points: 2
#     Edge 43, Type (0, 0), BuildingBlock: XUDNAN_clean_linker_2, # of connection points: 2
#     Edge 44, Type (0, 0), BuildingBlock: XUDNAN_clean_linker_2, # of connection points: 2
#     Edge 45, Type (0, 0), BuildingBlock: XUDNAN_clean_linker_2, # of connection points: 2
#     Edge 46, Type (0, 0), BuildingBlock: XUDNAN_clean_linker_2, # of connection points: 2
#     Edge 47, Type (0, 0), BuildingBlock: XUDNAN_clean_linker_2, # of connection points: 2
#     Edge 48, Type (0, 0), BuildingBlock: XUDNAN_clean_linker_2, # of connection points: 2
#     Edge 49, Type (0, 0), BuildingBlock: XUDNAN_clean_linker_2, # of connection points: 2
#     Edge 50, Type (0, 0), BuildingBlock: XUDNAN_clean_linker_2, # of connection points: 2
#     Edge 51, Type (0, 0), BuildingBlock: XUDNAN_clean_linker_2, # of connection points: 2
#     Edge 52, Type (0, 0), BuildingBlock: XUDNAN_clean_linker_2, # of connection points: 2
#     Edge 53, Type (0, 0), BuildingBlock: XUDNAN_clean_linker_2, # of connection points: 2
# Relax obj value: 0.015
# Max RMSD: 0.022
# Mean RMSD: 0.022
data_MOF--net-unb--node1-AZAVOO_clean_sbu_0--edge1-XUDNAN_clean_linker_2
_symmetry_space_group_name_H-M    P1
_symmetry_Int_Tables_number       1
_symmetry_cell_setting            triclinic
loop_
_symmetry_equiv_pos_as_xyz
'x, y, z'
_cell_length_a     68.947878
_cell_length_b     68.914533
_cell_length_c     23.652339
_cell_angle_alpha  90.061997
_cell_angle_beta   89.963921
_cell_angle_gamma 119.99876
loop_
_atom_site_label
_atom_site_type_symbol
_atom_site_fract_x
_atom_site_fract_y
_atom_site_fract_z
_atom_type_partial_charge
Mg0 Mg 0.11359 0.23876 0.06712 0.0
O1 O 0.12177 0.26506 -0.00192 0.0
O2 O 0.09782 0.27787 0.00349 0.0
Mg3 Mg 0.07505 0.26045 0.07976 0.0
C4 C 0.11441 0.27763 0.98015 0.0
C5 C 0.15207 0.22832 0.07904 0.0
O6 O 0.14023 0.21872 0.12462 0.0
O7 O 0.13058 0.26648 0.13277 0.0
O8 O 0.10549 0.27791 0.1394 0.0
O9 O 0.08842 0.21233 0.01041 0.0
O10 O 0.08039 0.23166 0.07155 0.0
C11 C 0.12385 0.27905 0.15455 0.0
C12 C 0.07391 0.2169 0.03201 0.0
O13 O 0.14598 0.23905 0.04688 0.0
Mg14 Mg 0.74671 0.86866 0.05789 0.0
O15 O 0.71823 0.84381 -0.00128 0.0
O16 O 0.71265 0.81002 0.02258 0.0
Mg17 Mg 0.73579 0.81256 0.09479 0.0
C18 C 0.70808 0.82253 0.99218 0.0
C19 C 0.74304 0.91155 0.06924 0.0
O20 O 0.74366 0.90674 0.1227 0.0
O21 O 0.72209 0.85858 0.132 0.0
O22 O 0.71787 0.82514 0.15371 0.0
O23 O 0.77166 0.87036 0.99526 0.0
O24 O 0.75908 0.84665 0.06701 0.0
C25 C 0.71385 0.84107 0.16303 0.0
C26 C 0.77091 0.85356 0.02167 0.0
O27 O 0.74189 0.89782 0.03163 0.0
Mg28 Mg 0.12297 0.87676 0.07991 0.0
O29 O 0.13878 0.86932 0.00356 0.0
O30 O 0.17596 0.89054 0.00944 0.0
Mg31 Mg 0.1841 0.91123 0.09095 0.0
C32 C 0.15836 0.8758 0.98415 0.0
C33 C 0.07863 0.84924 0.01465 0.0
O34 O 0.08896 0.86768 0.98454 0.0
O35 O 0.13221 0.85559 0.13663 0.0
O36 O 0.16918 0.87891 0.14298 0.0
O37 O 0.12443 0.90644 0.03559 0.0
O38 O 0.15105 0.90836 0.09097 0.0
C39 C 0.15147 0.86065 0.15622 0.0
C40 C 0.14386 0.91839 0.05886 0.0
O41 O 0.08867 0.84698 0.05702 0.0
Mg42 Mg 0.23832 0.11605 0.91559 0.0
O43 O 0.26557 0.1258 0.98281 0.0
O44 O 0.27859 0.10198 0.97879 0.0
Mg45 Mg 0.26042 0.07772 0.9054 0.0
C46 C 0.27848 0.11885 0.0008 0.0
C47 C 0.23325 0.15194 0.98125 0.0
O48 O 0.23017 0.13747 0.02129 0.0
O49 O 0.26513 0.13198 0.84753 0.0
O50 O 0.27663 0.1069 0.84176 0.0
O51 O 0.21293 0.09183 0.97589 0.0
O52 O 0.23168 0.08298 0.91497 0.0
C53 C 0.27735 0.12493 0.82527 0.0
C54 C 0.21761 0.07716 0.95597 0.0
O55 O 0.23813 0.14856 0.93174 0.0
Mg56 Mg 0.87067 0.11447 0.93602 0.0
O57 O 0.86454 0.13297 0.00783 0.0
O58 O 0.8858 0.16996 0.99698 0.0
Mg59 Mg 0.90469 0.17512 0.91337 0.0
C60 C 0.87122 0.15294 0.02442 0.0
C61 C 0.83141 0.06441 0.93778 0.0
O62 O 0.83892 0.06488 0.88643 0.0
O63 O 0.84853 0.1217 0.87776 0.0
O64 O 0.87118 0.15861 0.86632 0.0
O65 O 0.90129 0.11769 0.98016 0.0
O66 O 0.9019 0.14206 0.91885 0.0
C67 C 0.85286 0.14046 0.85626 0.0
C68 C 0.91268 0.1362 0.95232 0.0
O69 O 0.84084 0.08204 0.96789 0.0
Mg70 Mg 0.8685 0.74934 0.90865 0.0
O71 O 0.85233 0.72578 0.98401 0.0
O72 O 0.81516 0.70977 0.9774 0.0
Mg73 Mg 0.80752 0.72242 0.89545 0.0
C74 C 0.8327 0.71261 0.00294 0.0
C75 C 0.91936 0.7717 0.91525 0.0
O76 O 0.91593 0.78526 0.88317 0.0
O77 O 0.85984 0.71913 0.85151 0.0
O78 O 0.82283 0.70507 0.84446 0.0
O79 O 0.86668 0.7773 0.95344 0.0
O80 O 0.84049 0.75279 0.8966 0.0
C81 C 0.84068 0.70471 0.83178 0.0
C82 C 0.84743 0.7699 0.92914 0.0
O83 O 0.9025 0.75386 0.93323 0.0
Mg84 Mg 0.77867 0.56844 0.40818 0.0
O85 O 0.78965 0.59695 0.34345 0.0
O86 O 0.76843 0.61273 0.35678 0.0
Mg87 Mg 0.74405 0.5946 0.42961 0.0
C88 C 0.78397 0.61144 0.33064 0.0
C89 C 0.81104 0.55782 0.34104 0.0
O90 O 0.79523 0.55274 0.3033 0.0
O91 O 0.79717 0.59425 0.47809 0.0
O92 O 0.7732 0.60675 0.49229 0.0
O93 O 0.75173 0.54382 0.34947 0.0
O94 O 0.74699 0.56514 0.41108 0.0
C95 C 0.79087 0.60616 0.50535 0.0
C96 C 0.73907 0.5509 0.37044 0.0
O97 O 0.80953 0.56549 0.38873 0.0
Mg98 Mg 0.41967 0.2109 0.41442 0.0
O99 O 0.39346 0.19303 0.3447 0.0
O100 O 0.3821 0.15648 0.34787 0.0
Mg101 Mg 0.39996 0.15086 0.42251 0.0
C102 C 0.38155 0.1731 0.32577 0.0
C103 C 0.43378 0.26015 0.42569 0.0
O104 O 0.44663 0.25734 0.46184 0.0
O105 O 0.39188 0.19853 0.48036 0.0
O106 O 0.38192 0.16229 0.48464 0.0
O107 O 0.4463 0.21362 0.35608 0.0
O108 O 0.42767 0.18545 0.41547 0.0
C109 C 0.38005 0.17895 0.50133 0.0
C110 C 0.44219 0.1944 0.37565 0.0
O111 O 0.41901 0.24318 0.39887 0.0
Mg112 Mg 0.78634 0.20961 0.43828 0.0
O113 O 0.8028 0.19905 0.36966 0.0
O114 O 0.83979 0.21753 0.38484 0.0
Mg115 Mg 0.84701 0.24001 0.46263 0.0
C116 C 0.82263 0.20365 0.35651 0.0
C117 C 0.74343 0.18136 0.36723 0.0
O118 O 0.75513 0.19814 0.33264 0.0
O119 O 0.79127 0.18778 0.50277 0.0
O120 O 0.82787 0.20962 0.52047 0.0
O121 O 0.79075 0.239 0.38675 0.0
O122 O 0.81588 0.24034 0.44664 0.0
C123 C 0.8089 0.19229 0.53053 0.0
C124 C 0.8104 0.2503 0.40937 0.0
O125 O 0.75192 0.18081 0.41443 0.0
Mg126 Mg 0.91061 0.44796 0.26264 0.0
O127 O 0.93687 0.45845 0.33354 0.0
O128 O 0.9521 0.43646 0.32799 0.0
Mg129 Mg 0.93577 0.41197 0.25438 0.0
C130 C 0.95054 0.45237 0.35124 0.0
C131 C 0.89366 0.48149 0.24902 0.0
O132 O 0.88247 0.4668 0.20917 0.0
O133 O 0.93865 0.46564 0.19746 0.0
O134 O 0.9509 0.44115 0.19177 0.0
O135 O 0.88385 0.42173 0.31816 0.0
O136 O 0.90646 0.416 0.26332 0.0
C137 C 0.95126 0.45899 0.17541 0.0
C138 C 0.89097 0.40856 0.30099 0.0
O139 O 0.90783 0.47911 0.27805 0.0
Mg140 Mg 0.53839 0.45989 0.25138 0.0
O141 O 0.53554 0.48019 0.32636 0.0
O142 O 0.55876 0.51634 0.30537 0.0
Mg143 Mg 0.57387 0.51955 0.21787 0.0
C144 C 0.545 0.50105 0.33863 0.0
C145 C 0.50992 0.41834 0.32803 0.0
O146 O 0.52839 0.4287 0.35805 0.0
O147 O 0.51574 0.4675 0.19611 0.0
O148 O 0.53918 0.50359 0.17714 0.0
O149 O 0.56848 0.46088 0.29158 0.0
O150 O 0.57038 0.48661 0.23291 0.0
C151 C 0.52019 0.48579 0.17176 0.0
C152 C 0.58048 0.47997 0.26675 0.0
O153 O 0.5084 0.42744 0.28282 0.0
Mg154 Mg 0.53574 0.08715 0.25609 0.0
O155 O 0.51768 0.06041 0.32367 0.0
O156 O 0.48078 0.04463 0.31103 0.0
Mg157 Mg 0.47533 0.06185 0.23425 0.0
C158 C 0.49762 0.04627 0.33774 0.0
C159 C 0.58608 0.10478 0.25634 0.0
O160 O 0.58363 0.11657 0.21624 0.0
O161 O 0.52832 0.05984 0.19061 0.0
O162 O 0.49196 0.04789 0.17577 0.0
O163 O 0.53328 0.11333 0.308 0.0
O164 O 0.50839 0.09161 0.24457 0.0
C165 C 0.50999 0.04775 0.16401 0.0
C166 C 0.51481 0.1074 0.28106 0.0
O167 O 0.56876 0.08989 0.28166 0.0
Mg168 Mg 0.44721 0.90662 0.75614 0.0
O169 O 0.45485 0.93077 0.68141 0.0
O170 O 0.43302 0.94608 0.6888 0.0
Mg171 Mg 0.41218 0.93264 0.7694 0.0
C172 C 0.44804 0.94379 0.66315 0.0
C173 C 0.48065 0.89488 0.68949 0.0
O174 O 0.47969 0.90417 0.73686 0.0
O175 O 0.46756 0.93636 0.81491 0.0
O176 O 0.44429 0.95 0.82223 0.0
O177 O 0.41795 0.87845 0.70956 0.0
O178 O 0.41553 0.90273 0.76534 0.0
C179 C 0.4625 0.95044 0.83523 0.0
C180 C 0.40574 0.88582 0.73211 0.0
O181 O 0.4791 0.90383 0.73525 0.0
Mg182 Mg 0.09244 0.54374 0.76295 0.0
O183 O 0.06552 0.52594 0.69487 0.0
O184 O 0.0545 0.48946 0.69675 0.0
Mg185 Mg 0.07322 0.48387 0.76932 0.0
C186 C 0.05356 0.50605 0.67583 0.0
C187 C 0.09426 0.58506 0.70404 0.0
O188 O 0.09827 0.57581 0.66032 0.0
O189 O 0.06548 0.53097 0.83035 0.0
O190 O 0.05521 0.49468 0.83379 0.0
O191 O 0.11846 0.54714 0.70176 0.0
O192 O 0.10085 0.51855 0.76056 0.0
C193 C 0.05362 0.51142 0.85117 0.0
C194 C 0.11476 0.52782 0.71955 0.0
O195 O 0.09038 0.5754 0.75179 0.0
Mg196 Mg 0.45175 0.54472 0.73442 0.0
O197 O 0.47687 0.54064 0.67837 0.0
O198 O 0.51077 0.56503 0.71195 0.0
Mg199 Mg 0.50796 0.585 0.78588 0.0
C200 C 0.49819 0.5497 0.67704 0.0
C201 C 0.41293 0.5134 0.65384 0.0
O202 O 0.42234 0.53207 0.62447 0.0
O203 O 0.45714 0.52585 0.80762 0.0
O204 O 0.49022 0.5532 0.83912 0.0
O205 O 0.45489 0.57306 0.67879 0.0
O206 O 0.47538 0.57758 0.75422 0.0
C207 C 0.47312 0.53361 0.84364 0.0
C208 C 0.47076 0.58639 0.71254 0.0
O209 O 0.42212 0.51261 0.6997 0.0
Mg210 Mg 0.57433 0.78559 0.58143 0.0
O211 O 0.59941 0.78713 0.64956 0.0
O212 O 0.60388 0.75781 0.63007 0.0
Mg213 Mg 0.58514 0.73992 0.54991 0.0
C214 C 0.60772 0.7746 0.66086 0.0
C215 C 0.56628 0.82426 0.57843 0.0
O216 O 0.55542 0.81132 0.5353 0.0
O217 O 0.60211 0.80097 0.51524 0.0
O218 O 0.6068 0.77174 0.49732 0.0
O219 O 0.54642 0.76209 0.6367 0.0
O220 O 0.56137 0.75106 0.57026 0.0
C221 C 0.61167 0.79198 0.48827 0.0
C222 C 0.54786 0.74603 0.61237 0.0
O223 O 0.57872 0.81938 0.60764 0.0
Mg224 Mg 0.20873 0.78218 0.58029 0.0
O225 O 0.19937 0.80174 0.64279 0.0
O226 O 0.22357 0.83837 0.63355 0.0
Mg227 Mg 0.24765 0.8423 0.56166 0.0
C228 C 0.2066 0.82208 0.65727 0.0
C229 C 0.16738 0.74461 0.6472 0.0
O230 O 0.17634 0.75917 0.68857 0.0
O231 O 0.19277 0.7916 0.50907 0.0
O232 O 0.21855 0.82774 0.49756 0.0
O233 O 0.2331 0.78194 0.64221 0.0
O234 O 0.24169 0.80852 0.57851 0.0
C235 C 0.20029 0.81023 0.48312 0.0
C236 C 0.24767 0.80097 0.62064 0.0
O237 O 0.17624 0.74965 0.59834 0.0
Mg238 Mg 0.20478 0.42016 0.56957 0.0
O239 O 0.18691 0.39431 0.63962 0.0
O240 O 0.15008 0.38085 0.63202 0.0
Mg241 Mg 0.14442 0.39802 0.55557 0.0
C242 C 0.16687 0.38147 0.65654 0.0
C243 C 0.25448 0.43546 0.56134 0.0
O244 O 0.25136 0.44713 0.52217 0.0
O245 O 0.19429 0.39191 0.50478 0.0
O246 O 0.15804 0.38146 0.49553 0.0
O247 O 0.20524 0.44759 0.62275 0.0
O248 O 0.17846 0.42657 0.56236 0.0
C249 C 0.17519 0.38008 0.48118 0.0
C250 C 0.18639 0.44246 0.59886 0.0
O251 O 0.23767 0.42126 0.58967 0.0
H252 H 0.14279 0.36459 0.40087 0.0
H253 H 0.20205 0.36234 0.4521 0.0
H254 H 0.19668 0.3372 0.37097 0.0
H255 H 0.10995 0.30839 0.35836 0.0
H256 H 0.09759 0.31475 0.29925 0.0
H257 H 0.1068 0.33283 0.36012 0.0
H258 H 0.13198 0.36677 0.29596 0.0
H259 H 0.12288 0.34876 0.23482 0.0
H260 H 0.15232 0.36552 0.25048 0.0
H261 H 0.18305 0.31056 0.28513 0.0
H262 H 0.16313 0.28588 0.2038 0.0
H263 H 0.11397 0.30766 0.21054 0.0
C264 C 0.15467 0.35881 0.39539 0.0
C265 C 0.17271 0.36522 0.43316 0.0
C266 C 0.18806 0.35756 0.42369 0.0
C267 C 0.18514 0.34332 0.37776 0.0
C268 C 0.16702 0.33726 0.34146 0.0
C269 C 0.15219 0.34498 0.34977 0.0
C270 C 0.13403 0.3362 0.30544 0.0
C271 C 0.11072 0.32221 0.33242 0.0
C272 C 0.13539 0.35546 0.26955 0.0
C273 C 0.14049 0.32179 0.27141 0.0
C274 C 0.15961 0.32261 0.29233 0.0
C275 C 0.16817 0.30996 0.26825 0.0
C276 C 0.15675 0.296 0.22205 0.0
C277 C 0.13697 0.2948 0.20061 0.0
C278 C 0.12905 0.30815 0.22553 0.0
H279 H 0.63709 0.77895 0.42823 0.0
H280 H 0.62344 0.83372 0.44547 0.0
H281 H 0.64908 0.85326 0.36552 0.0
H282 H 0.69587 0.81286 0.39107 0.0
H283 H 0.69468 0.79222 0.34211 0.0
H284 H 0.67633 0.78354 0.40253 0.0
H285 H 0.64199 0.76276 0.33621 0.0
H286 H 0.6602 0.77149 0.27562 0.0
H287 H 0.63794 0.77797 0.27983 0.0
H288 H 0.67521 0.86577 0.27931 0.0
H289 H 0.69963 0.87026 0.19759 0.0
H290 H 0.69514 0.80679 0.23933 0.0
C291 C 0.63957 0.79515 0.41576 0.0
C292 C 0.62819 0.80476 0.44325 0.0
C293 C 0.632 0.82602 0.42525 0.0
C294 C 0.64652 0.83723 0.3798 0.0
C295 C 0.65716 0.82701 0.35309 0.0
C296 C 0.65392 0.8065 0.37082 0.0
C297 C 0.66673 0.79866 0.33457 0.0
C298 C 0.68446 0.79671 0.36967 0.0
C299 C 0.65076 0.77641 0.3048 0.0
C300 C 0.67746 0.81778 0.29295 0.0
C301 C 0.67192 0.83409 0.30422 0.0
C302 C 0.67972 0.85313 0.27037 0.0
C303 C 0.69355 0.85552 0.22398 0.0
C304 C 0.69934 0.83889 0.21182 0.0
C305 C 0.69112 0.81987 0.24715 0.0
H306 H 0.21812 0.83906 0.39514 0.0
H307 H 0.15526 0.78483 0.45853 0.0
H308 H 0.13547 0.78923 0.37619 0.0
H309 H 0.19826 0.87361 0.34721 0.0
H310 H 0.21593 0.88309 0.28545 0.0
H311 H 0.22476 0.87431 0.34705 0.0
H312 H 0.22932 0.84545 0.28638 0.0
H313 H 0.2204 0.8541 0.22449 0.0
H314 H 0.20598 0.82505 0.24523 0.0
H315 H 0.12251 0.80254 0.28985 0.0
H316 H 0.11797 0.8228 0.20895 0.0
H317 H 0.19011 0.86651 0.20279 0.0
C318 C 0.20019 0.82799 0.39168 0.0
C319 C 0.18817 0.81173 0.43334 0.0
C320 C 0.16478 0.7974 0.42692 0.0
C321 C 0.15343 0.79977 0.38032 0.0
C322 C 0.16585 0.81622 0.34019 0.0
C323 C 0.18878 0.82988 0.34534 0.0
C324 C 0.19841 0.84668 0.29788 0.0
C325 C 0.21001 0.87084 0.32079 0.0
C326 C 0.21447 0.84256 0.26133 0.0
C327 C 0.17726 0.84097 0.26606 0.0
C328 C 0.15859 0.82329 0.29052 0.0
C329 C 0.13708 0.81618 0.26993 0.0
C330 C 0.13466 0.82776 0.22391 0.0
C331 C 0.15366 0.84624 0.1993 0.0
C332 C 0.17518 0.85241 0.22016 0.0
H333 H 0.35754 0.14149 0.56649 0.0
H334 H 0.36692 0.20811 0.54243 0.0
H335 H 0.34123 0.2017 0.62251 0.0
H336 H 0.29921 0.11389 0.60378 0.0
H337 H 0.30181 0.09608 0.65536 0.0
H338 H 0.32027 0.10591 0.59521 0.0
H339 H 0.35462 0.12265 0.66229 0.0
H340 H 0.33627 0.11297 0.72266 0.0
H341 H 0.3571 0.1422 0.71645 0.0
H342 H 0.31427 0.18751 0.70653 0.0
H343 H 0.28933 0.16727 0.78708 0.0
H344 H 0.29926 0.11078 0.75515 0.0
C345 C 0.35413 0.15475 0.57754 0.0
C346 C 0.3642 0.17528 0.54792 0.0
C347 C 0.35939 0.19222 0.56444 0.0
C348 C 0.34481 0.18872 0.60982 0.0
C349 C 0.33531 0.16827 0.63829 0.0
C350 C 0.33985 0.15163 0.62269 0.0
C351 C 0.32807 0.13135 0.66056 0.0
C352 C 0.31135 0.11059 0.6267 0.0
C353 C 0.34503 0.12706 0.69237 0.0
C354 C 0.31617 0.13914 0.70019 0.0
C355 C 0.32038 0.1604 0.6867 0.0
C356 C 0.31091 0.17087 0.71747 0.0
C357 C 0.29677 0.15924 0.76312 0.0
C358 C 0.29241 0.13747 0.77769 0.0
C359 C 0.30234 0.12745 0.74559 0.0
H360 H 0.82797 0.20796 0.63154 0.0
H361 H 0.78678 0.1462 0.54019 0.0
H362 H 0.78866 0.12452 0.62207 0.0
H363 H 0.86468 0.19436 0.68895 0.0
H364 H 0.86754 0.20811 0.75583 0.0
H365 H 0.85993 0.21778 0.69386 0.0
H366 H 0.82427 0.21257 0.74468 0.0
H367 H 0.8318 0.20282 0.80706 0.0
H368 H 0.80477 0.18573 0.77474 0.0
H369 H 0.80043 0.11066 0.70957 0.0
H370 H 0.82021 0.10624 0.79181 0.0
H371 H 0.8516 0.17756 0.82489 0.0
C372 C 0.819 0.18983 0.6292 0.0
C373 C 0.80738 0.17865 0.57988 0.0
C374 C 0.79571 0.15496 0.57805 0.0
C375 C 0.79668 0.1426 0.62429 0.0
C376 C 0.80883 0.15427 0.67215 0.0
C377 C 0.81945 0.17739 0.67495 0.0
C378 C 0.83272 0.18636 0.72873 0.0
C379 C 0.85768 0.20258 0.71605 0.0
C380 C 0.82279 0.19753 0.766 0.0
C381 C 0.82906 0.16482 0.7547 0.0
C382 C 0.81498 0.14636 0.72227 0.0
C383 C 0.81106 0.12496 0.73584 0.0
C384 C 0.82231 0.12258 0.78268 0.0
C385 C 0.83744 0.14157 0.81469 0.0
C386 C 0.84009 0.1627 0.80142 0.0
H387 H 0.80224 0.66978 0.79068 0.0
H388 H 0.87453 0.70215 0.77523 0.0
H389 H 0.87001 0.67722 0.69451 0.0
H390 H 0.78895 0.61283 0.74723 0.0
H391 H 0.76427 0.60838 0.70987 0.0
H392 H 0.7736 0.62606 0.77165 0.0
H393 H 0.7747 0.65845 0.71335 0.0
H394 H 0.76564 0.64103 0.65141 0.0
H395 H 0.79125 0.66768 0.64962 0.0
H396 H 0.85676 0.65079 0.60803 0.0
H397 H 0.83639 0.6268 0.52552 0.0
H398 H 0.77352 0.61434 0.59861 0.0
C399 C 0.81723 0.67141 0.77136 0.0
C400 C 0.83875 0.68795 0.78941 0.0
C401 C 0.85785 0.68949 0.76244 0.0
C402 C 0.85543 0.6754 0.71654 0.0
C403 C 0.83383 0.65981 0.69857 0.0
C404 C 0.81511 0.65772 0.72568 0.0
C405 C 0.79375 0.64139 0.69581 0.0
C406 C 0.7793 0.62095 0.73338 0.0
C407 C 0.78059 0.65283 0.6764 0.0
C408 C 0.80329 0.63514 0.64629 0.0
C409 C 0.82638 0.64545 0.64882 0.0
C410 C 0.83868 0.64251 0.60604 0.0
C411 C 0.82702 0.6289 0.5594 0.0
C412 C 0.80345 0.61894 0.55566 0.0
C413 C 0.79158 0.62192 0.60013 0.0
H414 H 0.97132 0.44386 0.10273 0.0
H415 H 0.96465 0.50201 0.13924 0.0
H416 H 0.98975 0.522 0.0585 0.0
H417 H 0.02868 0.47279 0.06421 0.0
H418 H 0.02518 0.4533 0.00886 0.0
H419 H 0.00668 0.44394 0.06891 0.0
H420 H 0.97242 0.42931 0.00194 0.0
H421 H 0.99082 0.43867 0.94162 0.0
H422 H 0.97098 0.44817 0.95156 0.0
H423 H 0.01678 0.53571 0.97442 0.0
H424 H 0.04226 0.54156 0.8944 0.0
H425 H 0.02951 0.47352 0.91421 0.0
C426 C 0.97514 0.46085 0.09415 0.0
C427 C 0.96617 0.47145 0.12762 0.0
C428 C 0.97139 0.49358 0.1142 0.0
C429 C 0.98561 0.50504 0.06848 0.0
C430 C 0.99419 0.494 0.03648 0.0
C431 C 0.989 0.47233 0.04872 0.0
C432 C 9e-05 0.46395 0.00812 0.0
C433 C 0.01611 0.45817 0.03941 0.0
C434 C 0.98253 0.44384 0.97378 0.0
C435 C 0.01271 0.48441 0.97137 0.0
C436 C 0.00915 0.50161 0.98812 0.0
C437 C 0.01956 0.5223 0.96084 0.0
C438 C 0.03403 0.52546 0.91547 0.0
C439 C 0.03788 0.50799 0.89784 0.0
C440 C 0.02689 0.48721 0.92622 0.0
H441 H 0.51849 0.5225 0.1386 0.0
H442 H 0.48665 0.45082 0.11146 0.0
H443 H 0.46617 0.45417 0.02936 0.0
H444 H 0.47077 0.52985 0.08899 0.0
H445 H 0.49005 0.55637 0.05711 0.0
H446 H 0.49803 0.54727 0.11988 0.0
H447 H 0.53336 0.5522 0.06807 0.0
H448 H 0.52539 0.56096 0.0051 0.0
H449 H 0.53018 0.53755 0.00246 0.0
H450 H 0.45415 0.46692 0.94023 0.0
H451 H 0.45167 0.4875 0.85675 0.0
H452 H 0.49244 0.55033 0.94467 0.0
C453 C 0.50667 0.50736 0.11656 0.0
C454 C 0.50413 0.48642 0.13138 0.0
C455 C 0.48864 0.46703 0.10119 0.0
C456 C 0.47699 0.4688 0.0544 0.0
C457 C 0.4808 0.49 0.03914 0.0
C458 C 0.49505 0.50887 0.07016 0.0
C459 C 0.49841 0.53003 0.04243 0.0
C460 C 0.48873 0.54155 0.0793 0.0
C461 C 0.5233 0.5461 0.0287 0.0
C462 C 0.48474 0.52035 0.98945 0.0
C463 C 0.47428 0.49723 0.98836 0.0
C464 C 0.46198 0.48499 0.94122 0.0
C465 C 0.46067 0.49677 0.894 0.0
C466 C 0.47199 0.52048 0.89419 0.0
C467 C 0.4837 0.5322 0.94309 0.0
H468 H 0.48453 0.03943 0.07103 0.0
H469 H 0.53446 0.0265 0.14505 0.0
H470 H 0.53097 0.00258 0.06238 0.0
H471 H 0.44901 0.98632 0.01973 0.0
H472 H 0.44185 0.99569 0.95608 0.0
H473 H 0.45015 0.01303 0.01818 0.0
H474 H 0.48161 0.04577 0.96098 0.0
H475 H 0.47342 0.02845 0.89856 0.0
H476 H 0.50191 0.04144 0.92348 0.0
H477 H 0.51828 0.97671 0.97473 0.0
H478 H 0.49843 0.95244 0.8926 0.0
H479 H 0.45862 0.98497 0.87764 0.0
C480 C 0.49488 0.0317 0.06983 0.0
C481 C 0.50956 0.03453 0.1145 0.0
C482 C 0.52308 0.02445 0.11104 0.0
C483 C 0.52121 0.01091 0.06431 0.0
C484 C 0.50618 0.00819 0.02121 0.0
C485 C 0.4935 0.01862 0.02357 0.0
C486 C 0.4779 0.0126 0.97376 0.0
C487 C 0.45329 0.00123 0.99312 0.0
C488 C 0.48409 0.0333 0.93703 0.0
C489 C 0.48302 0.99638 0.94376 0.0
C490 C 0.49949 0.99409 0.97107 0.0
C491 C 0.50564 0.97868 0.95259 0.0
C492 C 0.4943 0.96499 0.90587 0.0
C493 C 0.47695 0.96679 0.87862 0.0
C494 C 0.47182 0.98315 0.89721 0.0
H495 H 0.09958 0.30088 0.91538 0.0
H496 H 0.15513 0.28851 0.9347 0.0
H497 H 0.17462 0.31403 0.85517 0.0
H498 H 0.10058 0.30258 0.76316 0.0
H499 H 0.0936 0.3245 0.75885 0.0
H500 H 0.08412 0.30557 0.81811 0.0
H501 H 0.10302 0.33929 0.88693 0.0
H502 H 0.1126 0.35833 0.82787 0.0
H503 H 0.13241 0.35933 0.87913 0.0
H504 H 0.18865 0.34167 0.77545 0.0
H505 H 0.19518 0.36768 0.69666 0.0
H506 H 0.12992 0.36097 0.72602 0.0
C507 C 0.11586 0.30355 0.90299 0.0
C508 C 0.12583 0.29271 0.93156 0.0
C509 C 0.14709 0.29656 0.91355 0.0
C510 C 0.15835 0.31109 0.86848 0.0
C511 C 0.1481 0.32155 0.84144 0.0
C512 C 0.12726 0.31784 0.85765 0.0
C513 C 0.11978 0.33085 0.82061 0.0
C514 C 0.09825 0.31492 0.78826 0.0
C515 C 0.11678 0.34796 0.85574 0.0
C516 C 0.13967 0.34241 0.78105 0.0
C517 C 0.1559 0.33698 0.79421 0.0
C518 C 0.17602 0.34597 0.76455 0.0
C519 C 0.1796 0.3608 0.71998 0.0
C520 C 0.16304 0.36632 0.70498 0.0
C521 C 0.14283 0.35695 0.73612 0.0
H522 H 0.6337 0.81419 0.72038 0.0
H523 H 0.61157 0.74307 0.7199 0.0
H524 H 0.63336 0.74779 0.80602 0.0
H525 H 0.69002 0.83205 0.76518 0.0
H526 H 0.69267 0.85459 0.80931 0.0
H527 H 0.67428 0.84579 0.74895 0.0
H528 H 0.64119 0.8392 0.81354 0.0
H529 H 0.65949 0.84797 0.87412 0.0
H530 H 0.63429 0.82096 0.87392 0.0
H531 H 0.6574 0.75947 0.89011 0.0
H532 H 0.68436 0.77799 0.96683 0.0
H533 H 0.69299 0.84232 0.91442 0.0
C534 C 0.63336 0.79964 0.73878 0.0
C535 C 0.62091 0.77825 0.71327 0.0
C536 C 0.62108 0.75964 0.73826 0.0
C537 C 0.63332 0.76211 0.78745 0.0
C538 C 0.64552 0.78333 0.81125 0.0
C539 C 0.64584 0.80185 0.78786 0.0
C540 C 0.66136 0.82288 0.82119 0.0
C541 C 0.68073 0.83983 0.78393 0.0
C542 C 0.64829 0.83337 0.84724 0.0
C543 C 0.66968 0.81318 0.86657 0.0
C544 C 0.66008 0.79028 0.85999 0.0
C545 C 0.66506 0.7774 0.89583 0.0
C546 C 0.68046 0.78816 0.93943 0.0
C547 C 0.69095 0.8117 0.94697 0.0
C548 C 0.68529 0.82432 0.91003 0.0
H549 H 0.19571 0.8902 0.91713 0.0
H550 H 0.12652 0.83702 0.93379 0.0
H551 H 0.13111 0.8179 0.85091 0.0
H552 H 0.1965 0.89103 0.76303 0.0
H553 H 0.22496 0.89663 0.75894 0.0
H554 H 0.21604 0.90639 0.81882 0.0
H555 H 0.22914 0.88562 0.88635 0.0
H556 H 0.238 0.87572 0.82672 0.0
H557 H 0.21842 0.85601 0.87698 0.0
H558 H 0.14399 0.80324 0.77026 0.0
H559 H 0.1634 0.79557 0.69309 0.0
H560 H 0.22361 0.85915 0.72602 0.0
C561 C 0.18146 0.87461 0.90319 0.0
C562 C 0.16076 0.8651 0.93218 0.0
C563 C 0.14253 0.8447 0.91227 0.0
C564 C 0.14498 0.83366 0.86528 0.0
C565 C 0.16568 0.84336 0.83816 0.0
C566 C 0.18353 0.8635 0.85594 0.0
C567 C 0.20399 0.87034 0.8193 0.0
C568 C 0.21076 0.89241 0.78817 0.0
C569 C 0.22354 0.87201 0.85444 0.0
C570 C 0.19495 0.85074 0.77862 0.0
C571 C 0.17286 0.83529 0.79043 0.0
C572 C 0.16121 0.81533 0.7602 0.0
C573 C 0.1724 0.81109 0.7166 0.0
C574 C 0.19495 0.82684 0.70321 0.0
C575 C 0.20627 0.84694 0.73466 0.0
H576 H 0.36097 0.13579 0.25758 0.0
H577 H 0.36808 0.20145 0.2833 0.0
H578 H 0.34257 0.1947 0.2031 0.0
H579 H 0.3601 0.13716 0.10503 0.0
H580 H 0.33988 0.10777 0.09826 0.0
H581 H 0.35855 0.11766 0.15806 0.0
H582 H 0.32453 0.09966 0.22606 0.0
H583 H 0.30576 0.08973 0.16649 0.0
H584 H 0.30285 0.10688 0.21958 0.0
H585 H 0.31536 0.18037 0.12202 0.0
H586 H 0.28989 0.16027 0.04271 0.0
H587 H 0.30159 0.10451 0.06743 0.0
C588 C 0.35715 0.14876 0.24646 0.0
C589 C 0.36649 0.16913 0.27699 0.0
C590 C 0.36119 0.18572 0.26059 0.0
C591 C 0.34667 0.18203 0.21515 0.0
C592 C 0.33773 0.16175 0.18613 0.0
C593 C 0.34288 0.14546 0.20083 0.0
C594 C 0.33129 0.12527 0.16212 0.0
C595 C 0.34848 0.12177 0.1289 0.0
C596 C 0.31515 0.10414 0.19557 0.0
C597 C 0.31867 0.13271 0.12362 0.0
C598 C 0.32253 0.15375 0.13839 0.0
C599 C 0.31232 0.16394 0.10985 0.0
C600 C 0.29783 0.15235 0.06491 0.0
C601 C 0.29379 0.13084 0.04855 0.0
C602 C 0.30445 0.12099 0.07847 0.0
H603 H 0.88805 0.18987 0.09418 0.0
H604 H 0.83033 0.12366 0.06896 0.0
H605 H 0.81154 0.12961 0.15039 0.0
H606 H 0.8864 0.18761 0.24738 0.0
H607 H 0.89512 0.21686 0.25543 0.0
H608 H 0.90395 0.20753 0.19457 0.0
H609 H 0.88723 0.22545 0.12866 0.0
H610 H 0.87825 0.23474 0.1893 0.0
H611 H 0.8582 0.21766 0.13616 0.0
H612 H 0.79813 0.14345 0.23123 0.0
H613 H 0.79257 0.16286 0.31219 0.0
H614 H 0.85985 0.21899 0.28913 0.0
C615 C 0.87148 0.17662 0.10589 0.0
C616 C 0.86064 0.15633 0.0751 0.0
C617 C 0.83902 0.13931 0.09206 0.0
C618 C 0.82815 0.14256 0.1381 0.0
C619 C 0.83922 0.16279 0.16731 0.0
C620 C 0.86052 0.17942 0.15244 0.0
C621 C 0.8689 0.19935 0.19195 0.0
C622 C 0.88983 0.20304 0.22425 0.0
C623 C 0.8734 0.22055 0.15957 0.0
C624 C 0.84891 0.19137 0.23102 0.0
C625 C 0.83188 0.17035 0.21564 0.0
C626 C 0.81143 0.15983 0.24407 0.0
C627 C 0.80839 0.171 0.28983 0.0
C628 C 0.82583 0.19232 0.30721 0.0
C629 C 0.84633 0.20257 0.27727 0.0
H630 H 0.79591 0.69115 0.0723 0.0
H631 H 0.86375 0.70376 0.04976 0.0
H632 H 0.85889 0.67964 0.13183 0.0
H633 H 0.79703 0.69146 0.22629 0.0
H634 H 0.76817 0.66963 0.23231 0.0
H635 H 0.77716 0.6882 0.17231 0.0
H636 H 0.76164 0.65401 0.10482 0.0
H637 H 0.75271 0.63535 0.16458 0.0
H638 H 0.77105 0.63399 0.11238 0.0
H639 H 0.8457 0.65198 0.2123 0.0
H640 H 0.82622 0.62549 0.29061 0.0
H641 H 0.76787 0.63269 0.26391 0.0
C642 C 0.80979 0.68895 0.08479 0.0
C643 C 0.83019 0.69931 0.05444 0.0
C644 C 0.84799 0.69609 0.07244 0.0
C645 C 0.84538 0.68235 0.11891 0.0
C646 C 0.82497 0.67218 0.14745 0.0
C647 C 0.80759 0.67556 0.13158 0.0
C648 C 0.78744 0.66283 0.16969 0.0
C649 C 0.78215 0.67899 0.20207 0.0
C650 C 0.76701 0.64552 0.13584 0.0
C651 C 0.79609 0.65152 0.20899 0.0
C652 C 0.81771 0.65699 0.1952 0.0
C653 C 0.82886 0.64779 0.22393 0.0
C654 C 0.81765 0.6327 0.26816 0.0
C655 C 0.79564 0.62721 0.28366 0.0
C656 C 0.78482 0.63683 0.2536 0.0
H657 H 0.97371 0.43824 0.41756 0.0
H658 H 0.96051 0.49314 0.39577 0.0
H659 H 0.9856 0.51302 0.47615 0.0
H660 H 0.97461 0.43944 0.56969 0.0
H661 H -0.00341 0.43261 0.57495 0.0
H662 H 0.97785 0.42294 0.5153 0.0
H663 H 0.01176 0.44186 0.4471 0.0
H664 H 0.0306 0.45162 0.50653 0.0
H665 H 0.03166 0.47131 0.4548 0.0
H666 H 0.01315 0.52738 0.55732 0.0
H667 H 0.03921 0.53415 0.63633 0.0
H668 H 0.03305 0.46909 0.60685 0.0
C669 C 0.9761 0.45447 0.42953 0.0
C670 C 0.96521 0.46417 0.40013 0.0
C671 C 0.96864 0.48534 0.41766 0.0
C672 C 0.98291 0.49679 0.46317 0.0
C673 C 0.99344 0.48676 0.49104 0.0
C674 C 0.99006 0.46599 0.47515 0.0
C675 C 0.00301 0.45866 0.51269 0.0
C676 C 0.98706 0.43714 0.54508 0.0
C677 C 0.02028 0.4557 0.47821 0.0
C678 C 0.01432 0.4786 0.55206 0.0
C679 C 0.00872 0.49471 0.53867 0.0
C680 C 0.01753 0.51483 0.56839 0.0
C681 C 0.03237 0.51853 0.61312 0.0
C682 C 0.03809 0.5021 0.62809 0.0
C683 C 0.02887 0.4819 0.59692 0.0
H684 H 0.4779 0.51795 0.59234 0.0
H685 H 0.54298 0.56619 0.66094 0.0
H686 H 0.5614 0.55682 0.58544 0.0
H687 H 0.49361 0.47638 0.54782 0.0
H688 H 0.47703 0.46908 0.4842 0.0
H689 H 0.46855 0.47844 0.54573 0.0
H690 H 0.46809 0.50976 0.48639 0.0
H691 H 0.47657 0.50052 0.42475 0.0
H692 H 0.49288 0.5292 0.44801 0.0
H693 H 0.57308 0.54522 0.49917 0.0
H694 H 0.57739 0.53054 0.40775 0.0
H695 H 0.50529 0.4882 0.39516 0.0
C696 C 0.49601 0.52636 0.59189 0.0
C697 C 0.50893 0.54286 0.63284 0.0
C698 C 0.53263 0.55351 0.63033 0.0
C699 C 0.5433 0.54828 0.58757 0.0
C700 C 0.53013 0.53221 0.54767 0.0
C701 C 0.50702 0.52123 0.54949 0.0
C702 C 0.49698 0.50515 0.49997 0.0
C703 C 0.48323 0.48082 0.52068 0.0
C704 C 0.48279 0.51155 0.46258 0.0
C705 C 0.51809 0.50918 0.46959 0.0
C706 C 0.53698 0.5249 0.49808 0.0
C707 C 0.55845 0.53265 0.47688 0.0
C708 C 0.56073 0.52429 0.42492 0.0
C709 C 0.5417 0.50814 0.39497 0.0
C710 C 0.5201 0.50022 0.41794 0.0
H711 H 0.4313 0.9639 0.59397 0.0
H712 H 0.48874 0.95484 0.61713 0.0
H713 H 0.50749 0.97983 0.53594 0.0
H714 H 0.43298 0.9645 0.43983 0.0
H715 H 0.42437 0.98519 0.43423 0.0
H716 H 0.41535 0.96627 0.49353 0.0
H717 H 0.432 0.0001 0.56226 0.0
H718 H 0.44119 0.01913 0.50323 0.0
H719 H 0.46108 0.02136 0.55593 0.0
H720 H 0.521 0.00783 0.45662 0.0
H721 H 0.52703 0.03414 0.37895 0.0
H722 H 0.45998 0.02341 0.40393 0.0
C723 C 0.44778 0.96707 0.58179 0.0
C724 C 0.4586 0.95749 0.61207 0.0
C725 C 0.48009 0.96192 0.59448 0.0
C726 C 0.49091 0.97616 0.54855 0.0
C727 C 0.47988 0.98557 0.52014 0.0
C728 C 0.45867 0.98096 0.53553 0.0
C729 C 0.45043 0.99305 0.49758 0.0
C730 C 0.42955 0.97625 0.46432 0.0
C731 C 0.44592 0.00938 0.5318 0.0
C732 C 0.47048 0.00548 0.45898 0.0
C733 C 0.48734 0.00103 0.47298 0.0
C734 C 0.50783 0.01125 0.44488 0.0
C735 C 0.51113 0.02626 0.401 0.0
C736 C 0.49394 0.03076 0.38515 0.0
C737 C 0.47335 0.02014 0.41463 0.0
H738 H 0.16598 0.20223 0.13257 0.0
H739 H 0.17867 0.24418 0.9847 0.0
H740 H 0.20523 0.23286 0.94913 0.0
H741 H 0.22374 0.21052 0.14558 0.0
H742 H 0.21301 0.18181 0.16664 0.0
H743 H 0.1979 0.19604 0.18472 0.0
H744 H 0.1624 0.16452 0.13597 0.0
H745 H 0.17738 0.15029 0.11756 0.0
H746 H 0.16394 0.15767 0.06312 0.0
H747 H 0.22604 0.21282 0.92324 0.0
H748 H 0.23972 0.18612 0.91003 0.0
H749 H 0.21376 0.15776 0.07542 0.0
C750 C 0.17479 0.20954 0.09346 0.0
C751 C 0.17028 0.22414 0.06152 0.0
C752 C 0.18191 0.23303 0.01007 0.0
C753 C 0.19709 0.22674 0.98956 0.0
C754 C 0.20062 0.21175 0.02128 0.0
C755 C 0.18996 0.20345 0.07244 0.0
C756 C 0.19501 0.18602 0.09586 0.0
C757 C 0.20821 0.19409 0.1515 0.0
C758 C 0.1734 0.16329 0.10353 0.0
C759 C 0.20943 0.18514 0.04881 0.0
C760 C 0.21274 0.20031 0.0065 0.0
C761 C 0.22394 0.20119 0.9566 0.0
C762 C 0.2316 0.18592 0.9494 0.0
C763 C 0.22793 0.16994 0.99182 0.0
C764 C 0.21716 0.16999 0.04258 0.0
H765 H 0.81214 0.02227 0.89158 0.0
H766 H 0.80993 0.05865 0.03908 0.0
H767 H 0.78203 0.02303 0.08298 0.0
H768 H 0.75196 0.97721 0.89443 0.0
H769 H 0.75864 0.95612 0.87302 0.0
H770 H 0.77579 0.98465 0.84947 0.0
H771 H 0.81098 0.98543 0.89085 0.0
H772 H 0.794 0.95698 0.91428 0.0
H773 H 0.81118 0.97855 0.96429 0.0
H774 H 0.7584 0.98352 0.11597 0.0
H775 H 0.74172 0.94317 0.13641 0.0
H776 H 0.75879 0.93235 0.96718 0.0
C777 C 0.80539 0.02281 0.93252 0.0
C778 C 0.81317 0.04327 0.96178 0.0
C779 C 0.80421 0.04319 0.01577 0.0
C780 C 0.78825 0.02304 0.04095 0.0
C781 C 0.78127 0.00311 0.01147 0.0
C782 C 0.78949 0.00284 0.95831 0.0
C783 C 0.78092 0.97907 0.93797 0.0
C784 C 0.76593 0.97397 0.88562 0.0
C785 C 0.80043 0.97477 0.9262 0.0
C786 C 0.76737 0.96603 0.98894 0.0
C787 C 0.76748 0.9802 0.0305 0.0
C788 C 0.75782 0.97222 0.08336 0.0
C789 C 0.7484 0.94927 0.09461 0.0
C790 C 0.74877 0.93458 0.05327 0.0
C791 C 0.75778 0.94305 -0.00077 0.0
H792 H 0.95833 0.80893 0.88379 0.0
H793 H 0.93256 0.74897 0.98678 0.0
H794 H 0.97102 0.76106 0.01971 0.0
H795 H 0.01063 0.81181 0.8428 0.0
H796 H 0.02627 0.84197 0.84658 0.0
H797 H -0.00306 0.82778 0.82881 0.0
H798 H 0.98954 0.84798 0.91146 0.0
H799 H 0.01881 0.8622 0.9295 0.0
H800 H -0.00189 0.84573 0.98201 0.0
H801 H 0.01236 0.78132 0.04612 0.0
H802 H 0.05272 0.8076 0.06241 0.0
H803 H 0.05073 0.85359 0.94045 0.0
C804 C 0.96073 0.79816 0.91276 0.0
C805 C 0.94241 0.77797 0.93261 0.0
C806 C 0.94634 0.76448 0.97083 0.0
C807 C 0.96813 0.7712 0.98975 0.0
C808 C 0.98579 0.79138 0.9698 0.0
C809 C 0.98228 0.80458 0.93191 0.0
C810 C 0.00384 0.82591 0.91843 0.0
C811 C 0.00976 0.82691 0.85541 0.0
C812 C 0.00248 0.84667 0.93645 0.0
C813 C 0.02005 0.82282 0.9551 0.0
C814 C 0.0094 0.80282 0.98441 0.0
C815 C 0.02089 0.79691 0.0229 0.0
C816 C 0.0438 0.81195 0.03192 0.0
C817 C 0.05494 0.83259 0.00246 0.0
C818 C 0.04284 0.83785 0.96316 0.0
H819 H 0.84181 0.79052 0.0229 0.0
H820 H 0.82351 0.77501 0.84637 0.0
H821 H 0.80263 0.79541 0.85044 0.0
H822 H 0.7875 0.78242 0.06607 0.0
H823 H 0.7991 0.8045 0.11809 0.0
H824 H 0.81343 0.78942 0.10099 0.0
H825 H 0.84931 0.82686 0.07708 0.0
H826 H 0.83505 0.84204 0.09386 0.0
H827 H 0.84793 0.84539 0.02552 0.0
H828 H 0.78606 0.81956 0.87134 0.0
H829 H 0.77003 0.84163 0.91189 0.0
H830 H 0.79496 0.83788 0.07736 0.0
C831 C 0.83339 0.79149 0.98528 0.0
C832 C 0.83436 0.78141 0.93419 0.0
C833 C 0.8229 0.78264 0.88591 0.0
C834 C 0.8111 0.79426 0.88771 0.0
C835 C 0.81048 0.80412 0.93851 0.0
C836 C 0.82089 0.80248 0.98679 0.0
C837 C 0.81651 0.81363 0.0366 0.0
C838 C 0.80335 0.79647 0.08319 0.0
C839 C 0.83851 0.83314 0.0596 0.0
C840 C 0.80234 0.82203 0.00844 0.0
C841 C 0.79941 0.81668 0.95161 0.0
C842 C 0.78796 0.82362 0.91594 0.0
C843 C 0.77903 0.8362 0.93914 0.0
C844 C 0.78119 0.8412 0.99753 0.0
C845 C 0.79291 0.83397 0.03263 0.0
H846 H 0.14802 0.94354 0.96443 0.0
H847 H 0.16939 0.94827 0.1388 0.0
H848 H 0.19026 0.98953 0.13191 0.0
H849 H 0.20156 0.98935 0.91487 0.0
H850 H 0.18893 -0.00089 0.86396 0.0
H851 H 0.17507 0.9699 0.88302 0.0
H852 H 0.13952 0.9715 0.91066 0.0
H853 H 0.1533 0.00072 0.89195 0.0
H854 H 0.14167 0.99193 0.96173 0.0
H855 H 0.20631 0.03012 0.10858 0.0
H856 H 0.22109 0.06774 0.06564 0.0
H857 H 0.19323 0.03691 0.90378 0.0
C858 C 0.15713 0.95335 0.00097 0.0
C859 C 0.15702 0.94288 0.05227 0.0
C860 C 0.16935 0.95609 0.09911 0.0
C861 C 0.18116 0.97949 0.09571 0.0
C862 C 0.18088 0.98939 0.04472 0.0
C863 C 0.16962 0.97679 -0.00222 0.0
C864 C 0.17299 0.99169 0.94735 0.0
C865 C 0.18538 0.98725 0.89948 0.0
C866 C 0.15053 0.98878 0.92673 0.0
C867 C 0.18753 0.01457 0.97365 0.0
C868 C 0.19159 0.01286 0.03011 0.0
C869 C 0.20355 0.03172 0.06421 0.0
C870 C 0.21177 0.05293 0.03973 0.0
C871 C 0.20837 0.05495 0.98169 0.0
C872 C 0.19621 0.03561 0.94821 0.0
H873 H 0.94054 0.14082 0.04186 0.0
H874 H 0.94032 0.16296 0.87025 0.0
H875 H 0.98148 0.18557 0.8717 0.0
H876 H 0.98556 0.19477 0.09052 0.0
H877 H -0.0024 0.18275 0.13651 0.0
H878 H 0.968 0.16762 0.12176 0.0
H879 H 0.97121 0.13366 0.08699 0.0
H880 H 0.00082 0.14873 0.10145 0.0
H881 H 0.99088 0.13758 0.03176 0.0
H882 H 0.02258 0.20395 0.8889 0.0
H883 H 0.06134 0.2206 0.92578 0.0
H884 H 0.03532 0.18997 0.08885 0.0
C885 C 0.94923 0.15043 0.00472 0.0
C886 C 0.9373 0.15005 0.95583 0.0
C887 C 0.94916 0.16305 0.90821 0.0
C888 C 0.97254 0.17589 0.90848 0.0
C889 C 0.98386 0.1759 0.95709 0.0
C890 C 0.97267 0.16386 0.00473 0.0
C891 C 0.989 0.16766 0.05214 0.0
C892 C 0.98478 0.17887 0.10325 0.0
C893 C 0.98791 0.14559 0.06906 0.0
C894 C 0.01101 0.18347 0.02335 0.0
C895 C 0.00766 0.18773 0.96823 0.0
C896 C 0.02546 0.20098 0.93219 0.0
C897 C 0.04733 0.21027 0.95324 0.0
C898 C 0.05103 0.2066 0.0099 0.0
C899 C 0.03272 0.19313 0.04544 0.0
H900 H 0.814 0.53364 0.25307 0.0
H901 H 0.84832 0.56931 0.40562 0.0
H902 H 0.87618 0.55712 0.3922 0.0
H903 H 0.81852 0.48664 0.27773 0.0
H904 H 0.8226 0.48184 0.20487 0.0
H905 H 0.80743 0.49602 0.2218 0.0
H906 H 0.83468 0.52976 0.15983 0.0
H907 H 0.84995 0.51561 0.14254 0.0
H908 H 0.86438 0.5433 0.17299 0.0
H909 H 0.89795 0.53787 0.3674 0.0
H910 H 0.91121 0.51243 0.33479 0.0
H911 H 0.86219 0.48904 0.19928 0.0
C912 C 0.82766 0.53935 0.28298 0.0
C913 C 0.82905 0.55254 0.33024 0.0
C914 C 0.84696 0.55927 0.36898 0.0
C915 C 0.86291 0.55249 0.36159 0.0
C916 C 0.86075 0.53906 0.31518 0.0
C917 C 0.8436 0.53263 0.27643 0.0
C918 C 0.84381 0.51657 0.23303 0.0
C919 C 0.82179 0.49394 0.2345 0.0
C920 C 0.84849 0.52694 0.17358 0.0
C921 C 0.86331 0.5144 0.25443 0.0
C922 C 0.8731 0.52776 0.3013 0.0
C923 C 0.8906 0.52756 0.33029 0.0
C924 C 0.898 0.51303 0.31146 0.0
C925 C 0.88777 0.49876 0.2644 0.0
C926 C 0.87051 0.49986 0.23506 0.0
H927 H 0.51108 0.39203 0.41301 0.0
H928 H 0.46967 0.39199 0.27484 0.0
H929 H 0.44292 0.35193 0.29223 0.0
H930 H 0.50609 0.34086 0.38248 0.0
H931 H 0.50542 0.33236 0.45483 0.0
H932 H 0.5194 0.36164 0.43721 0.0
H933 H 0.4948 0.3679 0.50958 0.0
H934 H 0.48076 0.33857 0.52766 0.0
H935 H 0.46472 0.35126 0.50479 0.0
H936 H 0.4231 0.31085 0.31751 0.0
H937 H 0.41209 0.27243 0.34842 0.0
H938 H 0.46662 0.29969 0.46976 0.0
C939 C 0.49611 0.38379 0.38727 0.0
C940 C 0.49244 0.3952 0.34271 0.0
C941 C 0.47281 0.38364 0.30941 0.0
C942 C 0.45748 0.36088 0.31905 0.0
C943 C 0.46193 0.34997 0.36239 0.0
C944 C 0.48071 0.36111 0.39622 0.0
C945 C 0.48271 0.34523 0.43676 0.0
C946 C 0.5047 0.34501 0.4272 0.0
C947 C 0.48062 0.35109 0.49835 0.0
C948 C 0.46256 0.32328 0.4192 0.0
C949 C 0.45059 0.32636 0.37679 0.0
C950 C 0.43215 0.30829 0.35133 0.0
C951 C 0.42603 0.28652 0.36911 0.0
C952 C 0.43843 0.28303 0.41166 0.0
C953 C 0.45663 0.30175 0.43758 0.0
H954 H 0.62621 0.13797 0.21592 0.0
H955 H 0.59719 0.08453 0.34016 0.0
H956 H 0.63503 0.09629 0.37698 0.0
H957 H 0.67794 0.13593 0.19028 0.0
H958 H 0.69465 0.16595 0.18374 0.0
H959 H 0.66557 0.15174 0.16342 0.0
H960 H 0.65855 0.17711 0.23148 0.0
H961 H 0.68754 0.19132 0.25213 0.0
H962 H 0.66595 0.17846 0.30506 0.0
H963 H 0.67564 0.11627 0.40613 0.0
H964 H 0.71576 0.14254 0.42443 0.0
H965 H 0.7179 0.18253 0.28033 0.0
C966 C 0.62779 0.12843 0.25016 0.0
C967 C 0.60874 0.11029 0.27506 0.0
C968 C 0.61156 0.09845 0.32028 0.0
C969 C 0.63299 0.10498 0.34142 0.0
C970 C 0.65138 0.12326 0.31661 0.0
C971 C 0.649 0.13472 0.27172 0.0
C972 C 0.67122 0.15467 0.2549 0.0
C973 C 0.67772 0.15189 0.1945 0.0
C974 C 0.67077 0.17668 0.26131 0.0
C975 C 0.68643 0.15298 0.29822 0.0
C976 C 0.67474 0.13467 0.33319 0.0
C977 C 0.68502 0.13048 0.37852 0.0
C978 C 0.7078 0.14552 0.38866 0.0
C979 C 0.71999 0.16452 0.35365 0.0
C980 C 0.70915 0.16802 0.30742 0.0
H981 H 0.50653 0.12495 0.37709 0.0
H982 H 0.49565 0.11764 0.19584 0.0
H983 H 0.47671 0.13992 0.19995 0.0
H984 H 0.4519 0.1186 0.40868 0.0
H985 H 0.46214 0.13828 0.46652 0.0
H986 H 0.47572 0.12248 0.44925 0.0
H987 H 0.51359 0.15945 0.439 0.0
H988 H 0.5001 0.17536 0.45592 0.0
H989 H 0.51571 0.18075 0.39106 0.0
H990 H 0.46146 0.16514 0.22222 0.0
H991 H 0.44556 0.18718 0.26399 0.0
H992 H 0.46198 0.17445 0.43166 0.0
C993 C 0.50012 0.12809 0.33849 0.0
C994 C 0.50263 0.11979 0.28611 0.0
C995 C 0.4938 0.12386 0.23639 0.0
C996 C 0.48313 0.13658 0.23821 0.0
C997 C 0.48097 0.14466 0.29032 0.0
C998 C 0.48873 0.1402 0.33978 0.0
C999 C 0.48303 0.14987 0.39048 0.0
C1000 C 0.46726 0.13119 0.43112 0.0
C1001 C 0.50439 0.1674 0.42089 0.0
C1002 C 0.4712 0.16068 0.36157 0.0
C1003 C 0.47056 0.15781 0.30366 0.0
C1004 C 0.46156 0.16727 0.26757 0.0
C1005 C 0.45269 0.17981 0.29146 0.0
C1006 C 0.45248 0.18222 0.35071 0.0
C1007 C 0.46177 0.17252 0.38616 0.0
H1008 H 0.80012 0.28182 0.37268 0.0
H1009 H 0.85612 0.27182 0.40979 0.0
H1010 H 0.88238 0.31159 0.39109 0.0
H1011 H 0.82691 0.32147 0.25865 0.0
H1012 H 0.81465 0.33834 0.27768 0.0
H1013 H 0.8001 0.30884 0.29367 0.0
H1014 H 0.7981 0.31791 0.39914 0.0
H1015 H 0.81289 0.34746 0.38357 0.0
H1016 H 0.82357 0.33643 0.43648 0.0
H1017 H 0.90267 0.352 0.36826 0.0
H1018 H 0.91601 0.39095 0.33854 0.0
H1019 H 0.8474 0.37584 0.31718 0.0
C1020 C 0.81792 0.28801 0.37633 0.0
C1021 C 0.82607 0.27374 0.39332 0.0
C1022 C 0.84944 0.28244 0.39806 0.0
C1023 C 0.86453 0.30504 0.38725 0.0
C1024 C 0.85599 0.31878 0.37196 0.0
C1025 C 0.83327 0.31067 0.36619 0.0
C1026 C 0.82865 0.32919 0.34914 0.0
C1027 C 0.81689 0.32416 0.29135 0.0
C1028 C 0.815 0.33297 0.39482 0.0
C1029 C 0.85235 0.34887 0.34579 0.0
C1030 C 0.8678 0.3424 0.35923 0.0
C1031 C 0.89076 0.3573 0.35758 0.0
C1032 C 0.89819 0.37932 0.3404 0.0
C1033 C 0.88271 0.38621 0.3254 0.0
C1034 C 0.85951 0.37095 0.32922 0.0
H1035 H 0.6109 0.46667 0.29292 0.0
H1036 H 0.60444 0.52567 0.27106 0.0
H1037 H 0.64465 0.54983 0.28864 0.0
H1038 H 0.65084 0.48868 0.40617 0.0
H1039 H 0.66664 0.47582 0.3825 0.0
H1040 H 0.63725 0.46292 0.36635 0.0
H1041 H 0.64615 0.46347 0.25972 0.0
H1042 H 0.67561 0.47652 0.27556 0.0
H1043 H 0.66567 0.48961 0.22654 0.0
H1044 H 0.68493 0.56776 0.31181 0.0
H1045 H 0.7233 0.57848 0.3413 0.0
H1046 H 0.70493 0.50846 0.3473 0.0
C1047 C 0.61802 0.48468 0.29182 0.0
C1048 C 0.60457 0.49429 0.27943 0.0
C1049 C 0.61442 0.51788 0.27855 0.0
C1050 C 0.63729 0.5318 0.28897 0.0
C1051 C 0.65016 0.52186 0.30002 0.0
C1052 C 0.64098 0.49888 0.30164 0.0
C1053 C 0.65868 0.49267 0.31556 0.0
C1054 C 0.65301 0.47923 0.37094 0.0
C1055 C 0.6617 0.47981 0.26641 0.0
C1056 C 0.67911 0.51578 0.32233 0.0
C1057 C 0.67373 0.53233 0.31303 0.0
C1058 C 0.6894 0.55498 0.31901 0.0
C1059 C 0.7111 0.56091 0.33606 0.0
C1060 C 0.71693 0.54429 0.34661 0.0
C1061 C 0.70088 0.52146 0.33861 0.0
H1062 H 0.53678 0.83476 0.53011 0.0
H1063 H 0.58235 0.85162 0.67197 0.0
H1064 H 0.56823 0.87548 0.71142 0.0
H1065 H 0.5385 0.88964 0.52018 0.0
H1066 H 0.50912 0.87614 0.50296 0.0
H1067 H 0.52546 0.86357 0.48159 0.0
H1068 H 0.49741 0.82686 0.53273 0.0
H1069 H 0.48114 0.83933 0.55472 0.0
H1070 H 0.49161 0.82777 0.60674 0.0
H1071 H 0.54563 0.89343 0.74128 0.0
H1072 H 0.517 0.90431 0.75838 0.0
H1073 H 0.48592 0.87511 0.59745 0.0
C1074 C 0.54428 0.84394 0.56868 0.0
C1075 C 0.56076 0.84139 0.59783 0.0
C1076 C 0.56983 0.85343 0.64868 0.0
C1077 C 0.56191 0.86703 0.67138 0.0
C1078 C 0.54505 0.86852 0.6425 0.0
C1079 C 0.53651 0.85744 0.59194 0.0
C1080 C 0.51711 0.86006 0.57172 0.0
C1081 C 0.5229 0.87314 0.5158 0.0
C1082 C 0.49555 0.83715 0.56619 0.0
C1083 C 0.51548 0.87365 0.61982 0.0
C1084 C 0.53194 0.87867 0.65987 0.0
C1085 C 0.53291 0.8899 0.70977 0.0
C1086 C 0.51652 0.89596 0.71916 0.0
C1087 C 0.4993 0.89059 0.6789 0.0
C1088 C 0.49906 0.87961 0.62847 0.0
H1089 H 0.15344 0.70758 0.58033 0.0
H1090 H 0.14167 0.7292 0.74273 0.0
H1091 H 0.11613 0.68974 0.76901 0.0
H1092 H 0.09615 0.65665 0.56305 0.0
H1093 H 0.10791 0.64089 0.53213 0.0
H1094 H 0.12143 0.67076 0.52157 0.0
H1095 H 0.15841 0.67513 0.56145 0.0
H1096 H 0.14503 0.64541 0.57244 0.0
H1097 H 0.15847 0.6643 0.63078 0.0
H1098 H 0.09695 0.64834 0.78347 0.0
H1099 H 0.08607 0.60837 0.78547 0.0
H1100 H 0.11068 0.61371 0.61396 0.0
C1101 C 0.14489 0.70408 0.62064 0.0
C1102 C 0.14942 0.72146 0.65936 0.0
C1103 C 0.13836 0.71614 0.71231 0.0
C1104 C 0.12374 0.69378 0.7275 0.0
C1105 C 0.12028 0.67697 0.68915 0.0
C1106 C 0.13042 0.68187 0.63659 0.0
C1107 C 0.12619 0.6608 0.60595 0.0
C1108 C 0.11207 0.65705 0.55251 0.0
C1109 C 0.14834 0.66146 0.59189 0.0
C1110 C 0.113 0.64338 0.65053 0.0
C1111 C 0.10936 0.65298 0.69774 0.0
C1112 C 0.0993 0.64056 0.74632 0.0
C1113 C 0.09324 0.61787 0.74712 0.0
C1114 C 0.09746 0.6079 0.6998 0.0
C1115 C 0.10692 0.62075 0.65048 0.0
H1116 H 0.38634 0.51294 0.56755 0.0
H1117 H 0.38743 0.4733 0.70868 0.0
H1118 H 0.34732 0.44617 0.69322 0.0
H1119 H 0.33577 0.50841 0.59897 0.0
H1120 H 0.32654 0.50682 0.52696 0.0
H1121 H 0.35597 0.52093 0.54276 0.0
H1122 H 0.36146 0.4953 0.47209 0.0
H1123 H 0.332 0.48119 0.45561 0.0
H1124 H 0.34475 0.4653 0.47925 0.0
H1125 H 0.30596 0.42628 0.67047 0.0
H1126 H 0.26732 0.41502 0.64099 0.0
H1127 H 0.29372 0.46788 0.51508 0.0
C1128 C 0.37836 0.49823 0.59424 0.0
C1129 C 0.39009 0.49523 0.6392 0.0
C1130 C 0.37885 0.47592 0.67375 0.0
C1131 C 0.35606 0.46039 0.66526 0.0
C1132 C 0.3448 0.46431 0.62177 0.0
C1133 C 0.35567 0.48266 0.58646 0.0
C1134 C 0.33947 0.48424 0.54618 0.0
C1135 C 0.33944 0.50641 0.55425 0.0
C1136 C 0.34473 0.48132 0.48463 0.0
C1137 C 0.31766 0.46438 0.5656 0.0
C1138 C 0.32105 0.4529 0.60876 0.0
C1139 C 0.30315 0.43491 0.63603 0.0
C1140 C 0.28126 0.42866 0.6191 0.0
C1141 C 0.27747 0.44048 0.57555 0.0
C1142 C 0.296 0.45831 0.54804 0.0
H1143 H 0.17669 0.45606 0.69958 0.0
H1144 H 0.17075 0.45818 0.5175 0.0
H1145 H 0.15246 0.48093 0.5285 0.0
H1146 H 0.12191 0.44931 0.72835 0.0
H1147 H 0.13065 0.46587 0.7921 0.0
H1148 H 0.14446 0.45078 0.77017 0.0
H1149 H 0.18272 0.48765 0.77213 0.0
H1150 H 0.16902 0.50285 0.79399 0.0
H1151 H 0.18634 0.51137 0.73157 0.0
H1152 H 0.13693 0.50512 0.55849 0.0
H1153 H 0.12045 0.52543 0.60658 0.0
H1154 H 0.13207 0.50407 0.76919 0.0
C1155 C 0.1716 0.46147 0.66227 0.0
C1156 C 0.17526 0.45568 0.60768 0.0
C1157 C 0.16805 0.46256 0.55963 0.0
C1158 C 0.15775 0.47552 0.56542 0.0
C1159 C 0.1543 0.481 0.61968 0.0
C1160 C 0.16058 0.47388 0.66737 0.0
C1161 C 0.15362 0.48103 0.7207 0.0
C1162 C 0.13665 0.46052 0.75483 0.0
C1163 C 0.17415 0.49665 0.75671 0.0
C1164 C 0.14276 0.49349 0.69538 0.0
C1165 C 0.14369 0.49357 0.63704 0.0
C1166 C 0.13582 0.50496 0.60414 0.0
C1167 C 0.12659 0.51648 0.63167 0.0
C1168 C 0.12487 0.51603 0.69123 0.0
C1169 C 0.13295 0.50433 0.72345 0.0
H1170 H 0.4821 0.61167 0.61441 0.0
H1171 H 0.48659 0.61646 0.7974 0.0
H1172 H 0.50616 0.65761 0.79115 0.0
H1173 H 0.53773 0.65931 0.59039 0.0
H1174 H 0.52976 0.66871 0.52813 0.0
H1175 H 0.51515 0.63941 0.54641 0.0
H1176 H 0.47747 0.6392 0.54553 0.0
H1177 H 0.49197 0.66851 0.52735 0.0
H1178 H 0.47426 0.65892 0.58903 0.0
H1179 H 0.52326 0.69774 0.76644 0.0
H1180 H 0.54112 0.73545 0.72364 0.0
H1181 H 0.52946 0.70578 0.55639 0.0
C1182 C 0.48716 0.62147 0.65296 0.0
C1183 C 0.48271 0.61097 0.70642 0.0
C1184 C 0.48987 0.62423 0.75605 0.0
C1185 C 0.50092 0.6476 0.753 0.0
C1186 C 0.50509 0.65751 0.69989 0.0
C1187 C 0.49883 0.64499 0.65065 0.0
C1188 C 0.50647 0.66013 0.59911 0.0
C1189 C 0.52328 0.65668 0.56395 0.0
C1190 C 0.48634 0.65647 0.56314 0.0
C1191 C 0.51772 0.68299 0.6273 0.0
C1192 C 0.5164 0.68099 0.68547 0.0
C1193 C 0.52463 0.69959 0.72095 0.0
C1194 C 0.53463 0.72089 0.69633 0.0
C1195 C 0.5367 0.7234 0.63696 0.0
C1196 C 0.52825 0.70423 0.602 0.0
H1197 H 0.28646 0.80208 0.59255 0.0
H1198 H 0.25815 0.83104 0.70518 0.0
H1199 H 0.29581 0.85612 0.74544 0.0
H1200 H 0.32734 0.80319 0.6917 0.0
H1201 H 0.34856 0.81022 0.6385 0.0
H1202 H 0.31937 0.79434 0.61954 0.0
H1203 H 0.32563 0.82386 0.54322 0.0
H1204 H 0.3548 0.83991 0.56218 0.0
H1205 H 0.33767 0.85287 0.5633 0.0
H1206 H 0.33608 0.87816 0.77163 0.0
H1207 H 0.37666 0.89551 0.78554 0.0
H1208 H 0.37959 0.85246 0.65555 0.0
C1209 C 0.28832 0.8136 0.6261 0.0
C1210 C 0.26968 0.8147 0.64657 0.0
C1211 C 0.27241 0.82999 0.68979 0.0
C1212 C 0.29366 0.84427 0.71259 0.0
C1213 C 0.31184 0.84292 0.69143 0.0
C1214 C 0.30943 0.82793 0.64939 0.0
C1215 C 0.33178 0.83005 0.63412 0.0
C1216 C 0.33175 0.80814 0.64674 0.0
C1217 C 0.33782 0.83709 0.57202 0.0
C1218 C 0.34717 0.84862 0.67406 0.0
C1219 C 0.33525 0.85578 0.70653 0.0
C1220 C 0.34561 0.87274 0.74641 0.0
C1221 C 0.36876 0.8826 0.75369 0.0
C1222 C 0.38142 0.87554 0.72121 0.0
C1223 C 0.37041 0.85829 0.68082 0.0
loop_
_geom_bond_atom_site_label_1
_geom_bond_atom_site_label_2
_geom_bond_distance
_geom_bond_site_symmetry_2
_ccdc_geom_bond_type
Mg0 O1 2.028 . S
Mg0 O7 1.986 . S
Mg0 O9 2.114 . S
Mg0 O10 2.251 . S
Mg0 O13 2.010 . S
O1 Mg0 2.028 . S
O1 C4 1.250 1_554 S
O2 Mg3 2.028 . S
O2 C4 1.248 1_554 S
Mg3 O2 2.028 . S
Mg3 O8 2.032 . S
Mg3 O10 2.079 . S
C4 O1 1.250 1_556 S
C4 O2 1.248 1_556 S
C5 O6 1.264 . S
C5 O13 1.249 . S
O6 C5 1.264 . S
O7 Mg0 1.986 . S
O7 C11 1.246 . S
O8 Mg3 2.032 . S
O8 C11 1.259 . S
O9 Mg0 2.114 . S
O9 C12 1.252 . S
O10 Mg0 2.251 . S
O10 Mg3 2.079 . S
O10 C12 1.273 . S
C11 O7 1.246 . S
C11 O8 1.259 . S
C12 O9 1.252 . S
C12 O10 1.273 . S
O13 Mg0 2.010 . S
O13 C5 1.249 . S
Mg14 O15 2.028 . S
Mg14 O21 1.986 . S
Mg14 O23 2.114 . S
Mg14 O24 2.251 . S
Mg14 O27 2.010 . S
O15 Mg14 2.028 . S
O15 C18 1.250 1_554 S
O16 Mg17 2.028 . S
O16 C18 1.248 1_554 S
Mg17 O16 2.028 . S
Mg17 O22 2.032 . S
Mg17 O24 2.079 . S
C18 O15 1.250 1_556 S
C18 O16 1.248 1_556 S
C19 O20 1.264 . S
C19 O27 1.249 . S
O20 C19 1.264 . S
O21 Mg14 1.986 . S
O21 C25 1.246 . S
O22 Mg17 2.032 . S
O22 C25 1.259 . S
O23 Mg14 2.114 . S
O23 C26 1.252 . S
O24 Mg14 2.251 . S
O24 Mg17 2.079 . S
O24 C26 1.273 . S
C25 O21 1.246 . S
C25 O22 1.259 . S
C26 O23 1.252 . S
C26 O24 1.273 . S
O27 Mg14 2.010 . S
O27 C19 1.249 . S
Mg28 O29 2.028 . S
Mg28 O35 1.986 . S
Mg28 O37 2.114 . S
Mg28 O38 2.251 . S
Mg28 O41 2.010 . S
O29 Mg28 2.028 . S
O29 C32 1.250 1_554 S
O30 Mg31 2.028 . S
O30 C32 1.248 1_554 S
Mg31 O30 2.028 . S
Mg31 O36 2.032 . S
Mg31 O38 2.079 . S
C32 O29 1.250 1_556 S
C32 O30 1.248 1_556 S
C33 O34 1.264 . S
C33 O41 1.249 . S
O34 C33 1.264 . S
O35 Mg28 1.986 . S
O35 C39 1.246 . S
O36 Mg31 2.032 . S
O36 C39 1.259 . S
O37 Mg28 2.114 . S
O37 C40 1.252 . S
O38 Mg28 2.251 . S
O38 Mg31 2.079 . S
O38 C40 1.273 . S
C39 O35 1.246 . S
C39 O36 1.259 . S
C40 O37 1.252 . S
C40 O38 1.273 . S
O41 Mg28 2.010 . S
O41 C33 1.249 . S
Mg42 O43 2.028 . S
Mg42 O49 1.986 . S
Mg42 O51 2.114 . S
Mg42 O52 2.251 . S
Mg42 O55 2.010 . S
O43 Mg42 2.028 . S
O43 C46 1.250 1_556 S
O44 Mg45 2.028 . S
O44 C46 1.248 1_556 S
Mg45 O44 2.028 . S
Mg45 O50 2.032 . S
Mg45 O52 2.079 . S
C46 O43 1.250 1_554 S
C46 O44 1.248 1_554 S
C47 O48 1.264 . S
C47 O55 1.249 . S
O48 C47 1.264 . S
O49 Mg42 1.986 . S
O49 C53 1.246 . S
O50 Mg45 2.032 . S
O50 C53 1.259 . S
O51 Mg42 2.114 . S
O51 C54 1.252 . S
O52 Mg42 2.251 . S
O52 Mg45 2.079 . S
O52 C54 1.273 . S
C53 O49 1.246 . S
C53 O50 1.259 . S
C54 O51 1.252 . S
C54 O52 1.273 . S
O55 Mg42 2.010 . S
O55 C47 1.249 . S
Mg56 O57 2.028 . S
Mg56 O63 1.986 . S
Mg56 O65 2.114 . S
Mg56 O66 2.251 . S
Mg56 O69 2.010 . S
O57 Mg56 2.028 . S
O57 C60 1.250 1_556 S
O58 Mg59 2.028 . S
O58 C60 1.248 1_556 S
Mg59 O58 2.028 . S
Mg59 O64 2.032 . S
Mg59 O66 2.079 . S
C60 O57 1.250 1_554 S
C60 O58 1.248 1_554 S
C61 O62 1.264 . S
C61 O69 1.249 . S
O62 C61 1.264 . S
O63 Mg56 1.986 . S
O63 C67 1.246 . S
O64 Mg59 2.032 . S
O64 C67 1.259 . S
O65 Mg56 2.114 . S
O65 C68 1.252 . S
O66 Mg56 2.251 . S
O66 Mg59 2.079 . S
O66 C68 1.273 . S
C67 O63 1.246 . S
C67 O64 1.259 . S
C68 O65 1.252 . S
C68 O66 1.273 . S
O69 Mg56 2.010 . S
O69 C61 1.249 . S
Mg70 O71 2.028 . S
Mg70 O77 1.986 . S
Mg70 O79 2.114 . S
Mg70 O80 2.251 . S
Mg70 O83 2.010 . S
O71 Mg70 2.028 . S
O71 C74 1.250 1_556 S
O72 Mg73 2.028 . S
O72 C74 1.248 1_556 S
Mg73 O72 2.028 . S
Mg73 O78 2.032 . S
Mg73 O80 2.079 . S
C74 O71 1.250 1_554 S
C74 O72 1.248 1_554 S
C75 O76 1.264 . S
C75 O83 1.249 . S
O76 C75 1.264 . S
O77 Mg70 1.986 . S
O77 C81 1.246 . S
O78 Mg73 2.032 . S
O78 C81 1.259 . S
O79 Mg70 2.114 . S
O79 C82 1.252 . S
O80 Mg70 2.251 . S
O80 Mg73 2.079 . S
O80 C82 1.273 . S
C81 O77 1.246 . S
C81 O78 1.259 . S
C82 O79 1.252 . S
C82 O80 1.273 . S
O83 Mg70 2.010 . S
O83 C75 1.249 . S
Mg84 O85 2.028 . S
Mg84 O91 1.986 . S
Mg84 O93 2.114 . S
Mg84 O94 2.251 . S
Mg84 O97 2.010 . S
O85 Mg84 2.028 . S
O85 C88 1.250 . S
O86 Mg87 2.028 . S
O86 C88 1.248 . S
Mg87 O86 2.028 . S
Mg87 O92 2.032 . S
Mg87 O94 2.079 . S
C88 O85 1.250 . S
C88 O86 1.248 . S
C89 O90 1.264 . S
C89 O97 1.249 . S
O90 C89 1.264 . S
O91 Mg84 1.986 . S
O91 C95 1.246 . S
O92 Mg87 2.032 . S
O92 C95 1.259 . S
O93 Mg84 2.114 . S
O93 C96 1.252 . S
O94 Mg84 2.251 . S
O94 Mg87 2.079 . S
O94 C96 1.273 . S
C95 O91 1.246 . S
C95 O92 1.259 . S
C96 O93 1.252 . S
C96 O94 1.273 . S
O97 Mg84 2.010 . S
O97 C89 1.249 . S
Mg98 O99 2.028 . S
Mg98 O105 1.986 . S
Mg98 O107 2.114 . S
Mg98 O108 2.251 . S
Mg98 O111 2.010 . S
O99 Mg98 2.028 . S
O99 C102 1.250 . S
O100 Mg101 2.028 . S
O100 C102 1.248 . S
Mg101 O100 2.028 . S
Mg101 O106 2.032 . S
Mg101 O108 2.079 . S
C102 O99 1.250 . S
C102 O100 1.248 . S
C103 O104 1.264 . S
C103 O111 1.249 . S
O104 C103 1.264 . S
O105 Mg98 1.986 . S
O105 C109 1.246 . S
O106 Mg101 2.032 . S
O106 C109 1.259 . S
O107 Mg98 2.114 . S
O107 C110 1.252 . S
O108 Mg98 2.251 . S
O108 Mg101 2.079 . S
O108 C110 1.273 . S
C109 O105 1.246 . S
C109 O106 1.259 . S
C110 O107 1.252 . S
C110 O108 1.273 . S
O111 Mg98 2.010 . S
O111 C103 1.249 . S
Mg112 O113 2.028 . S
Mg112 O119 1.986 . S
Mg112 O121 2.114 . S
Mg112 O122 2.251 . S
Mg112 O125 2.010 . S
O113 Mg112 2.028 . S
O113 C116 1.250 . S
O114 Mg115 2.028 . S
O114 C116 1.248 . S
Mg115 O114 2.028 . S
Mg115 O120 2.032 . S
Mg115 O122 2.079 . S
C116 O113 1.250 . S
C116 O114 1.248 . S
C117 O118 1.264 . S
C117 O125 1.249 . S
O118 C117 1.264 . S
O119 Mg112 1.986 . S
O119 C123 1.246 . S
O120 Mg115 2.032 . S
O120 C123 1.259 . S
O121 Mg112 2.114 . S
O121 C124 1.252 . S
O122 Mg112 2.251 . S
O122 Mg115 2.079 . S
O122 C124 1.273 . S
C123 O119 1.246 . S
C123 O120 1.259 . S
C124 O121 1.252 . S
C124 O122 1.273 . S
O125 Mg112 2.010 . S
O125 C117 1.249 . S
Mg126 O127 2.028 . S
Mg126 O133 1.986 . S
Mg126 O135 2.114 . S
Mg126 O136 2.251 . S
Mg126 O139 2.010 . S
O127 Mg126 2.028 . S
O127 C130 1.250 . S
O128 Mg129 2.028 . S
O128 C130 1.248 . S
Mg129 O128 2.028 . S
Mg129 O134 2.032 . S
Mg129 O136 2.079 . S
C130 O127 1.250 . S
C130 O128 1.248 . S
C131 O132 1.264 . S
C131 O139 1.249 . S
O132 C131 1.264 . S
O133 Mg126 1.986 . S
O133 C137 1.246 . S
O134 Mg129 2.032 . S
O134 C137 1.259 . S
O135 Mg126 2.114 . S
O135 C138 1.252 . S
O136 Mg126 2.251 . S
O136 Mg129 2.079 . S
O136 C138 1.273 . S
C137 O133 1.246 . S
C137 O134 1.259 . S
C138 O135 1.252 . S
C138 O136 1.273 . S
O139 Mg126 2.010 . S
O139 C131 1.249 . S
Mg140 O141 2.028 . S
Mg140 O147 1.986 . S
Mg140 O149 2.114 . S
Mg140 O150 2.251 . S
Mg140 O153 2.010 . S
O141 Mg140 2.028 . S
O141 C144 1.250 . S
O142 Mg143 2.028 . S
O142 C144 1.248 . S
Mg143 O142 2.028 . S
Mg143 O148 2.032 . S
Mg143 O150 2.079 . S
C144 O141 1.250 . S
C144 O142 1.248 . S
C145 O146 1.264 . S
C145 O153 1.249 . S
O146 C145 1.264 . S
O147 Mg140 1.986 . S
O147 C151 1.246 . S
O148 Mg143 2.032 . S
O148 C151 1.259 . S
O149 Mg140 2.114 . S
O149 C152 1.252 . S
O150 Mg140 2.251 . S
O150 Mg143 2.079 . S
O150 C152 1.273 . S
C151 O147 1.246 . S
C151 O148 1.259 . S
C152 O149 1.252 . S
C152 O150 1.273 . S
O153 Mg140 2.010 . S
O153 C145 1.249 . S
Mg154 O155 2.028 . S
Mg154 O161 1.986 . S
Mg154 O163 2.114 . S
Mg154 O164 2.251 . S
Mg154 O167 2.010 . S
O155 Mg154 2.028 . S
O155 C158 1.250 . S
O156 Mg157 2.028 . S
O156 C158 1.248 . S
Mg157 O156 2.028 . S
Mg157 O162 2.032 . S
Mg157 O164 2.079 . S
C158 O155 1.250 . S
C158 O156 1.248 . S
C159 O160 1.264 . S
C159 O167 1.249 . S
O160 C159 1.264 . S
O161 Mg154 1.986 . S
O161 C165 1.246 . S
O162 Mg157 2.032 . S
O162 C165 1.259 . S
O163 Mg154 2.114 . S
O163 C166 1.252 . S
O164 Mg154 2.251 . S
O164 Mg157 2.079 . S
O164 C166 1.273 . S
C165 O161 1.246 . S
C165 O162 1.259 . S
C166 O163 1.252 . S
C166 O164 1.273 . S
O167 Mg154 2.010 . S
O167 C159 1.249 . S
Mg168 O169 2.028 . S
Mg168 O175 1.986 . S
Mg168 O177 2.114 . S
Mg168 O178 2.251 . S
Mg168 O181 2.010 . S
O169 Mg168 2.028 . S
O169 C172 1.250 . S
O170 Mg171 2.028 . S
O170 C172 1.248 . S
Mg171 O170 2.028 . S
Mg171 O176 2.032 . S
Mg171 O178 2.079 . S
C172 O169 1.250 . S
C172 O170 1.248 . S
C173 O174 1.264 . S
C173 O181 1.249 . S
O174 C173 1.264 . S
O175 Mg168 1.986 . S
O175 C179 1.246 . S
O176 Mg171 2.032 . S
O176 C179 1.259 . S
O177 Mg168 2.114 . S
O177 C180 1.252 . S
O178 Mg168 2.251 . S
O178 Mg171 2.079 . S
O178 C180 1.273 . S
C179 O175 1.246 . S
C179 O176 1.259 . S
C180 O177 1.252 . S
C180 O178 1.273 . S
O181 Mg168 2.010 . S
O181 C173 1.249 . S
Mg182 O183 2.028 . S
Mg182 O189 1.986 . S
Mg182 O191 2.114 . S
Mg182 O192 2.251 . S
Mg182 O195 2.010 . S
O183 Mg182 2.028 . S
O183 C186 1.250 . S
O184 Mg185 2.028 . S
O184 C186 1.248 . S
Mg185 O184 2.028 . S
Mg185 O190 2.032 . S
Mg185 O192 2.079 . S
C186 O183 1.250 . S
C186 O184 1.248 . S
C187 O188 1.264 . S
C187 O195 1.249 . S
O188 C187 1.264 . S
O189 Mg182 1.986 . S
O189 C193 1.246 . S
O190 Mg185 2.032 . S
O190 C193 1.259 . S
O191 Mg182 2.114 . S
O191 C194 1.252 . S
O192 Mg182 2.251 . S
O192 Mg185 2.079 . S
O192 C194 1.273 . S
C193 O189 1.246 . S
C193 O190 1.259 . S
C194 O191 1.252 . S
C194 O192 1.273 . S
O195 Mg182 2.010 . S
O195 C187 1.249 . S
Mg196 O197 2.028 . S
Mg196 O203 1.986 . S
Mg196 O205 2.114 . S
Mg196 O206 2.251 . S
Mg196 O209 2.010 . S
O197 Mg196 2.028 . S
O197 C200 1.250 . S
O198 Mg199 2.028 . S
O198 C200 1.248 . S
Mg199 O198 2.028 . S
Mg199 O204 2.032 . S
Mg199 O206 2.079 . S
C200 O197 1.250 . S
C200 O198 1.248 . S
C201 O202 1.264 . S
C201 O209 1.249 . S
O202 C201 1.264 . S
O203 Mg196 1.986 . S
O203 C207 1.246 . S
O204 Mg199 2.032 . S
O204 C207 1.259 . S
O205 Mg196 2.114 . S
O205 C208 1.252 . S
O206 Mg196 2.251 . S
O206 Mg199 2.079 . S
O206 C208 1.273 . S
C207 O203 1.246 . S
C207 O204 1.259 . S
C208 O205 1.252 . S
C208 O206 1.273 . S
O209 Mg196 2.010 . S
O209 C201 1.249 . S
Mg210 O211 2.028 . S
Mg210 O217 1.986 . S
Mg210 O219 2.114 . S
Mg210 O220 2.251 . S
Mg210 O223 2.010 . S
O211 Mg210 2.028 . S
O211 C214 1.250 . S
O212 Mg213 2.028 . S
O212 C214 1.248 . S
Mg213 O212 2.028 . S
Mg213 O218 2.032 . S
Mg213 O220 2.079 . S
C214 O211 1.250 . S
C214 O212 1.248 . S
C215 O216 1.264 . S
C215 O223 1.249 . S
O216 C215 1.264 . S
O217 Mg210 1.986 . S
O217 C221 1.246 . S
O218 Mg213 2.032 . S
O218 C221 1.259 . S
O219 Mg210 2.114 . S
O219 C222 1.252 . S
O220 Mg210 2.251 . S
O220 Mg213 2.079 . S
O220 C222 1.273 . S
C221 O217 1.246 . S
C221 O218 1.259 . S
C222 O219 1.252 . S
C222 O220 1.273 . S
O223 Mg210 2.010 . S
O223 C215 1.249 . S
Mg224 O225 2.028 . S
Mg224 O231 1.986 . S
Mg224 O233 2.114 . S
Mg224 O234 2.251 . S
Mg224 O237 2.010 . S
O225 Mg224 2.028 . S
O225 C228 1.250 . S
O226 Mg227 2.028 . S
O226 C228 1.248 . S
Mg227 O226 2.028 . S
Mg227 O232 2.032 . S
Mg227 O234 2.079 . S
C228 O225 1.250 . S
C228 O226 1.248 . S
C229 O230 1.264 . S
C229 O237 1.249 . S
O230 C229 1.264 . S
O231 Mg224 1.986 . S
O231 C235 1.246 . S
O232 Mg227 2.032 . S
O232 C235 1.259 . S
O233 Mg224 2.114 . S
O233 C236 1.252 . S
O234 Mg224 2.251 . S
O234 Mg227 2.079 . S
O234 C236 1.273 . S
C235 O231 1.246 . S
C235 O232 1.259 . S
C236 O233 1.252 . S
C236 O234 1.273 . S
O237 Mg224 2.010 . S
O237 C229 1.249 . S
Mg238 O239 2.028 . S
Mg238 O245 1.986 . S
Mg238 O247 2.114 . S
Mg238 O248 2.251 . S
Mg238 O251 2.010 . S
O239 Mg238 2.028 . S
O239 C242 1.250 . S
O240 Mg241 2.028 . S
O240 C242 1.248 . S
Mg241 O240 2.028 . S
Mg241 O246 2.032 . S
Mg241 O248 2.079 . S
C242 O239 1.250 . S
C242 O240 1.248 . S
C243 O244 1.264 . S
C243 O251 1.249 . S
O244 C243 1.264 . S
O245 Mg238 1.986 . S
O245 C249 1.246 . S
O246 Mg241 2.032 . S
O246 C249 1.259 . S
O247 Mg238 2.114 . S
O247 C250 1.252 . S
O248 Mg238 2.251 . S
O248 Mg241 2.079 . S
O248 C250 1.273 . S
C249 O245 1.246 . S
C249 O246 1.259 . S
C250 O247 1.252 . S
C250 O248 1.273 . S
O251 Mg238 2.010 . S
O251 C243 1.249 . S
H252 C264 0.930 . S
H253 C266 0.930 . S
H254 C267 0.930 . S
H255 C271 0.959 . S
H256 C271 0.959 . S
H257 C271 0.961 . S
H258 C272 0.960 . S
H259 C272 0.961 . S
H260 C272 0.959 . S
H261 C275 0.929 . S
H262 C276 0.931 . S
H263 C278 0.930 . S
C264 H252 0.930 . S
C264 C265 1.399 . S
C264 C269 1.399 . S
C265 C264 1.399 . S
C265 C266 1.376 . S
C266 H253 0.930 . S
C266 C265 1.376 . S
C266 C267 1.388 . S
C267 H254 0.930 . S
C267 C266 1.388 . S
C267 C268 1.390 . S
C268 C267 1.390 . S
C268 C269 1.394 . S
C268 C274 1.465 . S
C269 C264 1.399 . S
C269 C268 1.394 . S
C269 C270 1.516 . S
C270 C269 1.516 . S
C270 C271 1.502 . S
C270 C272 1.561 . S
C270 C273 1.526 . S
C271 H255 0.959 . S
C271 H256 0.959 . S
C271 H257 0.961 . S
C271 C270 1.502 . S
C272 H258 0.960 . S
C272 H259 0.961 . S
C272 H260 0.959 . S
C272 C270 1.561 . S
C273 C270 1.526 . S
C273 C274 1.396 . S
C273 C278 1.390 . S
C274 C268 1.465 . S
C274 C273 1.396 . S
C274 C275 1.399 . S
C275 H261 0.929 . S
C275 C274 1.399 . S
C275 C276 1.385 . S
C276 H262 0.931 . S
C276 C275 1.385 . S
C276 C277 1.389 . S
C277 C276 1.389 . S
C277 C278 1.387 . S
C278 H263 0.930 . S
C278 C273 1.390 . S
C278 C277 1.387 . S
H279 C291 0.930 . S
H280 C293 0.930 . S
H281 C294 0.930 . S
H282 C298 0.959 . S
H283 C298 0.959 . S
H284 C298 0.961 . S
H285 C299 0.960 . S
H286 C299 0.961 . S
H287 C299 0.959 . S
H288 C302 0.929 . S
H289 C303 0.931 . S
H290 C305 0.930 . S
C291 H279 0.930 . S
C291 C292 1.399 . S
C291 C296 1.399 . S
C292 C291 1.399 . S
C292 C293 1.376 . S
C293 H280 0.930 . S
C293 C292 1.376 . S
C293 C294 1.388 . S
C294 H281 0.930 . S
C294 C293 1.388 . S
C294 C295 1.390 . S
C295 C294 1.390 . S
C295 C296 1.394 . S
C295 C301 1.465 . S
C296 C291 1.399 . S
C296 C295 1.394 . S
C296 C297 1.516 . S
C297 C296 1.516 . S
C297 C298 1.502 . S
C297 C299 1.561 . S
C297 C300 1.526 . S
C298 H282 0.959 . S
C298 H283 0.959 . S
C298 H284 0.961 . S
C298 C297 1.502 . S
C299 H285 0.960 . S
C299 H286 0.961 . S
C299 H287 0.959 . S
C299 C297 1.561 . S
C300 C297 1.526 . S
C300 C301 1.396 . S
C300 C305 1.390 . S
C301 C295 1.465 . S
C301 C300 1.396 . S
C301 C302 1.399 . S
C302 H288 0.929 . S
C302 C301 1.399 . S
C302 C303 1.385 . S
C303 H289 0.931 . S
C303 C302 1.385 . S
C303 C304 1.389 . S
C304 C303 1.389 . S
C304 C305 1.387 . S
C305 H290 0.930 . S
C305 C300 1.390 . S
C305 C304 1.387 . S
H306 C318 0.930 . S
H307 C320 0.930 . S
H308 C321 0.930 . S
H309 C325 0.959 . S
H310 C325 0.959 . S
H311 C325 0.961 . S
H312 C326 0.960 . S
H313 C326 0.961 . S
H314 C326 0.959 . S
H315 C329 0.929 . S
H316 C330 0.931 . S
H317 C332 0.930 . S
C318 H306 0.930 . S
C318 C319 1.399 . S
C318 C323 1.399 . S
C319 C318 1.399 . S
C319 C320 1.376 . S
C320 H307 0.930 . S
C320 C319 1.376 . S
C320 C321 1.388 . S
C321 H308 0.930 . S
C321 C320 1.388 . S
C321 C322 1.390 . S
C322 C321 1.390 . S
C322 C323 1.394 . S
C322 C328 1.465 . S
C323 C318 1.399 . S
C323 C322 1.394 . S
C323 C324 1.516 . S
C324 C323 1.516 . S
C324 C325 1.502 . S
C324 C326 1.561 . S
C324 C327 1.526 . S
C325 H309 0.959 . S
C325 H310 0.959 . S
C325 H311 0.961 . S
C325 C324 1.502 . S
C326 H312 0.960 . S
C326 H313 0.961 . S
C326 H314 0.959 . S
C326 C324 1.561 . S
C327 C324 1.526 . S
C327 C328 1.396 . S
C327 C332 1.390 . S
C328 C322 1.465 . S
C328 C327 1.396 . S
C328 C329 1.399 . S
C329 H315 0.929 . S
C329 C328 1.399 . S
C329 C330 1.385 . S
C330 H316 0.931 . S
C330 C329 1.385 . S
C330 C331 1.389 . S
C331 C330 1.389 . S
C331 C332 1.387 . S
C332 H317 0.930 . S
C332 C327 1.390 . S
C332 C331 1.387 . S
H333 C345 0.930 . S
H334 C347 0.930 . S
H335 C348 0.930 . S
H336 C352 0.959 . S
H337 C352 0.959 . S
H338 C352 0.961 . S
H339 C353 0.960 . S
H340 C353 0.961 . S
H341 C353 0.959 . S
H342 C356 0.929 . S
H343 C357 0.931 . S
H344 C359 0.930 . S
C345 H333 0.930 . S
C345 C346 1.399 . S
C345 C350 1.399 . S
C346 C345 1.399 . S
C346 C347 1.376 . S
C347 H334 0.930 . S
C347 C346 1.376 . S
C347 C348 1.388 . S
C348 H335 0.930 . S
C348 C347 1.388 . S
C348 C349 1.390 . S
C349 C348 1.390 . S
C349 C350 1.394 . S
C349 C355 1.465 . S
C350 C345 1.399 . S
C350 C349 1.394 . S
C350 C351 1.516 . S
C351 C350 1.516 . S
C351 C352 1.502 . S
C351 C353 1.561 . S
C351 C354 1.526 . S
C352 H336 0.959 . S
C352 H337 0.959 . S
C352 H338 0.961 . S
C352 C351 1.502 . S
C353 H339 0.960 . S
C353 H340 0.961 . S
C353 H341 0.959 . S
C353 C351 1.561 . S
C354 C351 1.526 . S
C354 C355 1.396 . S
C354 C359 1.390 . S
C355 C349 1.465 . S
C355 C354 1.396 . S
C355 C356 1.399 . S
C356 H342 0.929 . S
C356 C355 1.399 . S
C356 C357 1.385 . S
C357 H343 0.931 . S
C357 C356 1.385 . S
C357 C358 1.389 . S
C358 C357 1.389 . S
C358 C359 1.387 . S
C359 H344 0.930 . S
C359 C354 1.390 . S
C359 C358 1.387 . S
H360 C372 0.930 . S
H361 C374 0.930 . S
H362 C375 0.930 . S
H363 C379 0.959 . S
H364 C379 0.959 . S
H365 C379 0.961 . S
H366 C380 0.960 . S
H367 C380 0.961 . S
H368 C380 0.959 . S
H369 C383 0.929 . S
H370 C384 0.931 . S
H371 C386 0.930 . S
C372 H360 0.930 . S
C372 C373 1.399 . S
C372 C377 1.399 . S
C373 C372 1.399 . S
C373 C374 1.376 . S
C374 H361 0.930 . S
C374 C373 1.376 . S
C374 C375 1.388 . S
C375 H362 0.930 . S
C375 C374 1.388 . S
C375 C376 1.390 . S
C376 C375 1.390 . S
C376 C377 1.394 . S
C376 C382 1.465 . S
C377 C372 1.399 . S
C377 C376 1.394 . S
C377 C378 1.516 . S
C378 C377 1.516 . S
C378 C379 1.502 . S
C378 C380 1.561 . S
C378 C381 1.526 . S
C379 H363 0.959 . S
C379 H364 0.959 . S
C379 H365 0.961 . S
C379 C378 1.502 . S
C380 H366 0.960 . S
C380 H367 0.961 . S
C380 H368 0.959 . S
C380 C378 1.561 . S
C381 C378 1.526 . S
C381 C382 1.396 . S
C381 C386 1.390 . S
C382 C376 1.465 . S
C382 C381 1.396 . S
C382 C383 1.399 . S
C383 H369 0.929 . S
C383 C382 1.399 . S
C383 C384 1.385 . S
C384 H370 0.931 . S
C384 C383 1.385 . S
C384 C385 1.389 . S
C385 C384 1.389 . S
C385 C386 1.387 . S
C386 H371 0.930 . S
C386 C381 1.390 . S
C386 C385 1.387 . S
H387 C399 0.930 . S
H388 C401 0.930 . S
H389 C402 0.930 . S
H390 C406 0.959 . S
H391 C406 0.959 . S
H392 C406 0.961 . S
H393 C407 0.960 . S
H394 C407 0.961 . S
H395 C407 0.959 . S
H396 C410 0.929 . S
H397 C411 0.931 . S
H398 C413 0.930 . S
C399 H387 0.930 . S
C399 C400 1.399 . S
C399 C404 1.399 . S
C400 C399 1.399 . S
C400 C401 1.376 . S
C401 H388 0.930 . S
C401 C400 1.376 . S
C401 C402 1.388 . S
C402 H389 0.930 . S
C402 C401 1.388 . S
C402 C403 1.390 . S
C403 C402 1.390 . S
C403 C404 1.394 . S
C403 C409 1.465 . S
C404 C399 1.399 . S
C404 C403 1.394 . S
C404 C405 1.516 . S
C405 C404 1.516 . S
C405 C406 1.502 . S
C405 C407 1.561 . S
C405 C408 1.526 . S
C406 H390 0.959 . S
C406 H391 0.959 . S
C406 H392 0.961 . S
C406 C405 1.502 . S
C407 H393 0.960 . S
C407 H394 0.961 . S
C407 H395 0.959 . S
C407 C405 1.561 . S
C408 C405 1.526 . S
C408 C409 1.396 . S
C408 C413 1.390 . S
C409 C403 1.465 . S
C409 C408 1.396 . S
C409 C410 1.399 . S
C410 H396 0.929 . S
C410 C409 1.399 . S
C410 C411 1.385 . S
C411 H397 0.931 . S
C411 C410 1.385 . S
C411 C412 1.389 . S
C412 C411 1.389 . S
C412 C413 1.387 . S
C413 H398 0.930 . S
C413 C408 1.390 . S
C413 C412 1.387 . S
H414 C426 0.930 . S
H415 C428 0.930 . S
H416 C429 0.930 1_455 S
H417 C433 0.959 1_454 S
H418 C433 0.959 . S
H419 C433 0.961 1_554 S
H420 C434 0.960 . S
H421 C434 0.961 . S
H422 C434 0.959 . S
H423 C437 0.929 . S
H424 C438 0.931 . S
H425 C440 0.930 . S
C426 H414 0.930 . S
C426 C427 1.399 . S
C426 C431 1.399 . S
C427 C426 1.399 . S
C427 C428 1.376 . S
C428 H415 0.930 . S
C428 C427 1.376 . S
C428 C429 1.388 . S
C429 H416 0.930 1_655 S
C429 C428 1.388 . S
C429 C430 1.390 . S
C430 C429 1.390 . S
C430 C431 1.394 . S
C430 C436 1.465 1_654 S
C431 C426 1.399 . S
C431 C430 1.394 . S
C431 C432 1.516 1_554 S
C432 C431 1.516 1_556 S
C432 C433 1.502 . S
C432 C434 1.561 . S
C432 C435 1.526 1_655 S
C433 H417 0.959 1_656 S
C433 H418 0.959 . S
C433 H419 0.961 1_556 S
C433 C432 1.502 . S
C434 H420 0.960 . S
C434 H421 0.961 . S
C434 H422 0.959 . S
C434 C432 1.561 . S
C435 C432 1.526 1_455 S
C435 C436 1.396 . S
C435 C440 1.390 . S
C436 C430 1.465 1_456 S
C436 C435 1.396 . S
C436 C437 1.399 . S
C437 H423 0.929 . S
C437 C436 1.399 . S
C437 C438 1.385 . S
C438 H424 0.931 . S
C438 C437 1.385 . S
C438 C439 1.389 . S
C439 C438 1.389 . S
C439 C440 1.387 . S
C440 H425 0.930 . S
C440 C435 1.390 . S
C440 C439 1.387 . S
H441 C453 0.930 . S
H442 C455 0.930 . S
H443 C456 0.930 . S
H444 C460 0.959 . S
H445 C460 0.959 . S
H446 C460 0.961 . S
H447 C461 0.960 1_554 S
H448 C461 0.961 . S
H449 C461 0.959 . S
H450 C464 0.929 . S
H451 C465 0.931 . S
H452 C467 0.930 . S
C453 H441 0.930 . S
C453 C454 1.399 . S
C453 C458 1.399 . S
C454 C453 1.399 . S
C454 C455 1.376 . S
C455 H442 0.930 . S
C455 C454 1.376 . S
C455 C456 1.388 . S
C456 H443 0.930 . S
C456 C455 1.388 . S
C456 C457 1.390 . S
C457 C456 1.390 . S
C457 C458 1.394 . S
C457 C463 1.465 1_554 S
C458 C453 1.399 . S
C458 C457 1.394 . S
C458 C459 1.516 . S
C459 C458 1.516 . S
C459 C460 1.502 . S
C459 C461 1.561 1_554 S
C459 C462 1.526 1_554 S
C460 H444 0.959 . S
C460 H445 0.959 . S
C460 H446 0.961 . S
C460 C459 1.502 . S
C461 H447 0.960 1_556 S
C461 H448 0.961 . S
C461 H449 0.959 . S
C461 C459 1.561 1_556 S
C462 C459 1.526 1_556 S
C462 C463 1.396 . S
C462 C467 1.390 . S
C463 C457 1.465 1_556 S
C463 C462 1.396 . S
C463 C464 1.399 . S
C464 H450 0.929 . S
C464 C463 1.399 . S
C464 C465 1.385 . S
C465 H451 0.931 . S
C465 C464 1.385 . S
C465 C466 1.389 . S
C466 C465 1.389 . S
C466 C467 1.387 . S
C467 H452 0.930 . S
C467 C462 1.390 . S
C467 C466 1.387 . S
H468 C480 0.930 . S
H469 C482 0.930 . S
H470 C483 0.930 . S
H471 C487 0.959 . S
H472 C487 0.959 . S
H473 C487 0.961 . S
H474 C488 0.960 . S
H475 C488 0.961 . S
H476 C488 0.959 . S
H477 C491 0.929 1_554 S
H478 C492 0.931 . S
H479 C494 0.930 . S
C480 H468 0.930 . S
C480 C481 1.399 . S
C480 C485 1.399 . S
C481 C480 1.399 . S
C481 C482 1.376 . S
C482 H469 0.930 . S
C482 C481 1.376 . S
C482 C483 1.388 1_545 S
C483 H470 0.930 . S
C483 C482 1.388 1_565 S
C483 C484 1.385 1_565 S
C484 C483 1.385 1_545 S
C484 C485 1.409 . S
C484 C490 1.457 1_544 S
C485 C480 1.399 . S
C485 C484 1.409 . S
C485 C486 1.516 1_554 S
C486 C485 1.516 1_556 S
C486 C487 1.502 . S
C486 C488 1.561 . S
C486 C489 1.526 1_545 S
C487 H471 0.959 . S
C487 H472 0.959 . S
C487 H473 0.961 . S
C487 C486 1.502 . S
C488 H474 0.960 . S
C488 H475 0.961 . S
C488 H476 0.959 . S
C488 C486 1.561 . S
C489 C486 1.526 1_565 S
C489 C490 1.396 . S
C489 C494 1.390 . S
C490 C484 1.457 1_566 S
C490 C489 1.396 . S
C490 C491 1.399 . S
C491 H477 0.929 1_556 S
C491 C490 1.399 . S
C491 C492 1.385 . S
C492 H478 0.931 . S
C492 C491 1.385 . S
C492 C493 1.389 . S
C493 C492 1.389 . S
C493 C494 1.387 . S
C494 H479 0.930 . S
C494 C489 1.390 . S
C494 C493 1.387 . S
H495 C507 0.930 . S
H496 C509 0.930 . S
H497 C510 0.930 . S
H498 C514 0.959 . S
H499 C514 0.959 . S
H500 C514 0.961 . S
H501 C515 0.960 . S
H502 C515 0.961 . S
H503 C515 0.959 . S
H504 C518 0.929 . S
H505 C519 0.931 . S
H506 C521 0.930 . S
C507 H495 0.930 . S
C507 C508 1.399 . S
C507 C512 1.399 . S
C508 C507 1.399 . S
C508 C509 1.376 . S
C509 H496 0.930 . S
C509 C508 1.376 . S
C509 C510 1.388 . S
C510 H497 0.930 . S
C510 C509 1.388 . S
C510 C511 1.390 . S
C511 C510 1.390 . S
C511 C512 1.394 . S
C511 C517 1.465 . S
C512 C507 1.399 . S
C512 C511 1.394 . S
C512 C513 1.516 . S
C513 C512 1.516 . S
C513 C514 1.502 . S
C513 C515 1.561 . S
C513 C516 1.526 . S
C514 H498 0.959 . S
C514 H499 0.959 . S
C514 H500 0.961 . S
C514 C513 1.502 . S
C515 H501 0.960 . S
C515 H502 0.961 . S
C515 H503 0.959 . S
C515 C513 1.561 . S
C516 C513 1.526 . S
C516 C517 1.396 . S
C516 C521 1.390 . S
C517 C511 1.465 . S
C517 C516 1.396 . S
C517 C518 1.399 . S
C518 H504 0.929 . S
C518 C517 1.399 . S
C518 C519 1.385 . S
C519 H505 0.931 . S
C519 C518 1.385 . S
C519 C520 1.389 . S
C520 C519 1.389 . S
C520 C521 1.387 . S
C521 H506 0.930 . S
C521 C516 1.390 . S
C521 C520 1.387 . S
H522 C534 0.930 . S
H523 C536 0.930 . S
H524 C537 0.930 . S
H525 C541 0.959 . S
H526 C541 0.959 . S
H527 C541 0.961 . S
H528 C542 0.960 . S
H529 C542 0.961 . S
H530 C542 0.959 . S
H531 C545 0.929 . S
H532 C546 0.931 . S
H533 C548 0.930 . S
C534 H522 0.930 . S
C534 C535 1.399 . S
C534 C539 1.399 . S
C535 C534 1.399 . S
C535 C536 1.376 . S
C536 H523 0.930 . S
C536 C535 1.376 . S
C536 C537 1.388 . S
C537 H524 0.930 . S
C537 C536 1.388 . S
C537 C538 1.390 . S
C538 C537 1.390 . S
C538 C539 1.394 . S
C538 C544 1.465 . S
C539 C534 1.399 . S
C539 C538 1.394 . S
C539 C540 1.516 . S
C540 C539 1.516 . S
C540 C541 1.502 . S
C540 C542 1.561 . S
C540 C543 1.526 . S
C541 H525 0.959 . S
C541 H526 0.959 . S
C541 H527 0.961 . S
C541 C540 1.502 . S
C542 H528 0.960 . S
C542 H529 0.961 . S
C542 H530 0.959 . S
C542 C540 1.561 . S
C543 C540 1.526 . S
C543 C544 1.396 . S
C543 C548 1.390 . S
C544 C538 1.465 . S
C544 C543 1.396 . S
C544 C545 1.399 . S
C545 H531 0.929 . S
C545 C544 1.399 . S
C545 C546 1.385 . S
C546 H532 0.931 . S
C546 C545 1.385 . S
C546 C547 1.389 . S
C547 C546 1.389 . S
C547 C548 1.387 . S
C548 H533 0.930 . S
C548 C543 1.390 . S
C548 C547 1.387 . S
H549 C561 0.930 . S
H550 C563 0.930 . S
H551 C564 0.930 . S
H552 C568 0.959 . S
H553 C568 0.959 . S
H554 C568 0.961 . S
H555 C569 0.960 . S
H556 C569 0.961 . S
H557 C569 0.959 . S
H558 C572 0.929 . S
H559 C573 0.931 . S
H560 C575 0.930 . S
C561 H549 0.930 . S
C561 C562 1.399 . S
C561 C566 1.399 . S
C562 C561 1.399 . S
C562 C563 1.376 . S
C563 H550 0.930 . S
C563 C562 1.376 . S
C563 C564 1.388 . S
C564 H551 0.930 . S
C564 C563 1.388 . S
C564 C565 1.390 . S
C565 C564 1.390 . S
C565 C566 1.394 . S
C565 C571 1.465 . S
C566 C561 1.399 . S
C566 C565 1.394 . S
C566 C567 1.516 . S
C567 C566 1.516 . S
C567 C568 1.502 . S
C567 C569 1.561 . S
C567 C570 1.526 . S
C568 H552 0.959 . S
C568 H553 0.959 . S
C568 H554 0.961 . S
C568 C567 1.502 . S
C569 H555 0.960 . S
C569 H556 0.961 . S
C569 H557 0.959 . S
C569 C567 1.561 . S
C570 C567 1.526 . S
C570 C571 1.396 . S
C570 C575 1.390 . S
C571 C565 1.465 . S
C571 C570 1.396 . S
C571 C572 1.399 . S
C572 H558 0.929 . S
C572 C571 1.399 . S
C572 C573 1.385 . S
C573 H559 0.931 . S
C573 C572 1.385 . S
C573 C574 1.389 . S
C574 C573 1.389 . S
C574 C575 1.387 . S
C575 H560 0.930 . S
C575 C570 1.390 . S
C575 C574 1.387 . S
H576 C588 0.930 . S
H577 C590 0.930 . S
H578 C591 0.930 . S
H579 C595 0.959 . S
H580 C595 0.959 . S
H581 C595 0.961 . S
H582 C596 0.960 . S
H583 C596 0.961 . S
H584 C596 0.959 . S
H585 C599 0.929 . S
H586 C600 0.931 . S
H587 C602 0.930 . S
C588 H576 0.930 . S
C588 C589 1.399 . S
C588 C593 1.399 . S
C589 C588 1.399 . S
C589 C590 1.376 . S
C590 H577 0.930 . S
C590 C589 1.376 . S
C590 C591 1.388 . S
C591 H578 0.930 . S
C591 C590 1.388 . S
C591 C592 1.390 . S
C592 C591 1.390 . S
C592 C593 1.394 . S
C592 C598 1.465 . S
C593 C588 1.399 . S
C593 C592 1.394 . S
C593 C594 1.516 . S
C594 C593 1.516 . S
C594 C595 1.502 . S
C594 C596 1.561 . S
C594 C597 1.526 . S
C595 H579 0.959 . S
C595 H580 0.959 . S
C595 H581 0.961 . S
C595 C594 1.502 . S
C596 H582 0.960 . S
C596 H583 0.961 . S
C596 H584 0.959 . S
C596 C594 1.561 . S
C597 C594 1.526 . S
C597 C598 1.396 . S
C597 C602 1.390 . S
C598 C592 1.465 . S
C598 C597 1.396 . S
C598 C599 1.399 . S
C599 H585 0.929 . S
C599 C598 1.399 . S
C599 C600 1.385 . S
C600 H586 0.931 . S
C600 C599 1.385 . S
C600 C601 1.389 . S
C601 C600 1.389 . S
C601 C602 1.387 . S
C602 H587 0.930 . S
C602 C597 1.390 . S
C602 C601 1.387 . S
H603 C615 0.930 . S
H604 C617 0.930 . S
H605 C618 0.930 . S
H606 C622 0.959 . S
H607 C622 0.959 . S
H608 C622 0.961 . S
H609 C623 0.960 . S
H610 C623 0.961 . S
H611 C623 0.959 . S
H612 C626 0.929 . S
H613 C627 0.931 . S
H614 C629 0.930 . S
C615 H603 0.930 . S
C615 C616 1.399 . S
C615 C620 1.399 . S
C616 C615 1.399 . S
C616 C617 1.376 . S
C617 H604 0.930 . S
C617 C616 1.376 . S
C617 C618 1.388 . S
C618 H605 0.930 . S
C618 C617 1.388 . S
C618 C619 1.390 . S
C619 C618 1.390 . S
C619 C620 1.394 . S
C619 C625 1.465 . S
C620 C615 1.399 . S
C620 C619 1.394 . S
C620 C621 1.516 . S
C621 C620 1.516 . S
C621 C622 1.502 . S
C621 C623 1.561 . S
C621 C624 1.526 . S
C622 H606 0.959 . S
C622 H607 0.959 . S
C622 H608 0.961 . S
C622 C621 1.502 . S
C623 H609 0.960 . S
C623 H610 0.961 . S
C623 H611 0.959 . S
C623 C621 1.561 . S
C624 C621 1.526 . S
C624 C625 1.396 . S
C624 C629 1.390 . S
C625 C619 1.465 . S
C625 C624 1.396 . S
C625 C626 1.399 . S
C626 H612 0.929 . S
C626 C625 1.399 . S
C626 C627 1.385 . S
C627 H613 0.931 . S
C627 C626 1.385 . S
C627 C628 1.389 . S
C628 C627 1.389 . S
C628 C629 1.387 . S
C629 H614 0.930 . S
C629 C624 1.390 . S
C629 C628 1.387 . S
H630 C642 0.930 . S
H631 C644 0.930 . S
H632 C645 0.930 . S
H633 C649 0.959 . S
H634 C649 0.959 . S
H635 C649 0.961 . S
H636 C650 0.960 . S
H637 C650 0.961 . S
H638 C650 0.959 . S
H639 C653 0.929 . S
H640 C654 0.931 . S
H641 C656 0.930 . S
C642 H630 0.930 . S
C642 C643 1.399 . S
C642 C647 1.399 . S
C643 C642 1.399 . S
C643 C644 1.376 . S
C644 H631 0.930 . S
C644 C643 1.376 . S
C644 C645 1.388 . S
C645 H632 0.930 . S
C645 C644 1.388 . S
C645 C646 1.390 . S
C646 C645 1.390 . S
C646 C647 1.394 . S
C646 C652 1.465 . S
C647 C642 1.399 . S
C647 C646 1.394 . S
C647 C648 1.516 . S
C648 C647 1.516 . S
C648 C649 1.502 . S
C648 C650 1.561 . S
C648 C651 1.526 . S
C649 H633 0.959 . S
C649 H634 0.959 . S
C649 H635 0.961 . S
C649 C648 1.502 . S
C650 H636 0.960 . S
C650 H637 0.961 . S
C650 H638 0.959 . S
C650 C648 1.561 . S
C651 C648 1.526 . S
C651 C652 1.396 . S
C651 C656 1.390 . S
C652 C646 1.465 . S
C652 C651 1.396 . S
C652 C653 1.399 . S
C653 H639 0.929 . S
C653 C652 1.399 . S
C653 C654 1.385 . S
C654 H640 0.931 . S
C654 C653 1.385 . S
C654 C655 1.389 . S
C655 C654 1.389 . S
C655 C656 1.387 . S
C656 H641 0.930 . S
C656 C651 1.390 . S
C656 C655 1.387 . S
H657 C669 0.930 . S
H658 C671 0.930 . S
H659 C672 0.930 . S
H660 C676 0.959 . S
H661 C676 0.959 . S
H662 C676 0.961 . S
H663 C677 0.960 . S
H664 C677 0.961 . S
H665 C677 0.968 . S
H666 C680 0.929 . S
H667 C681 0.931 . S
H668 C683 0.930 . S
C669 H657 0.930 . S
C669 C670 1.399 . S
C669 C674 1.399 . S
C670 C669 1.399 . S
C670 C671 1.376 . S
C671 H658 0.930 . S
C671 C670 1.376 . S
C671 C672 1.388 1_655 S
C672 H659 0.930 . S
C672 C671 1.388 1_455 S
C672 C673 1.387 . S
C673 C672 1.387 . S
C673 C674 1.387 1_455 S
C673 C679 1.473 . S
C674 C669 1.399 . S
C674 C673 1.387 1_655 S
C674 C675 1.516 . S
C675 C674 1.516 . S
C675 C676 1.502 . S
C675 C677 1.561 . S
C675 C678 1.526 1_655 S
C676 H660 0.959 . S
C676 H661 0.959 . S
C676 H662 0.961 . S
C676 C675 1.502 . S
C677 H663 0.960 . S
C677 H664 0.961 . S
C677 H665 0.968 . S
C677 C675 1.561 . S
C678 C675 1.526 1_455 S
C678 C679 1.396 . S
C678 C683 1.390 . S
C679 C673 1.473 . S
C679 C678 1.396 . S
C679 C680 1.399 . S
C680 H666 0.929 . S
C680 C679 1.399 . S
C680 C681 1.385 . S
C681 H667 0.931 . S
C681 C680 1.385 . S
C681 C682 1.389 . S
C682 C681 1.389 . S
C682 C683 1.387 . S
C683 H668 0.930 . S
C683 C678 1.390 . S
C683 C682 1.387 . S
H684 C696 0.930 . S
H685 C698 0.930 . S
H686 C699 0.930 . S
H687 C703 0.959 . S
H688 C703 0.959 . S
H689 C703 0.961 . S
H690 C704 0.960 . S
H691 C704 0.961 . S
H692 C704 0.959 . S
H693 C707 0.929 . S
H694 C708 0.931 . S
H695 C710 0.930 . S
C696 H684 0.930 . S
C696 C697 1.399 . S
C696 C701 1.399 . S
C697 C696 1.399 . S
C697 C698 1.376 . S
C698 H685 0.930 . S
C698 C697 1.376 . S
C698 C699 1.388 . S
C699 H686 0.930 . S
C699 C698 1.388 . S
C699 C700 1.390 . S
C700 C699 1.390 . S
C700 C701 1.394 . S
C700 C706 1.465 . S
C701 C696 1.399 . S
C701 C700 1.394 . S
C701 C702 1.516 . S
C702 C701 1.516 . S
C702 C703 1.502 . S
C702 C704 1.561 . S
C702 C705 1.526 . S
C703 H687 0.959 . S
C703 H688 0.959 . S
C703 H689 0.961 . S
C703 C702 1.502 . S
C704 H690 0.960 . S
C704 H691 0.961 . S
C704 H692 0.959 . S
C704 C702 1.561 . S
C705 C702 1.526 . S
C705 C706 1.396 . S
C705 C710 1.390 . S
C706 C700 1.465 . S
C706 C705 1.396 . S
C706 C707 1.399 . S
C707 H693 0.929 . S
C707 C706 1.399 . S
C707 C708 1.385 . S
C708 H694 0.931 . S
C708 C707 1.385 . S
C708 C709 1.389 . S
C709 C708 1.389 . S
C709 C710 1.387 . S
C710 H695 0.930 . S
C710 C705 1.390 . S
C710 C709 1.387 . S
H711 C723 0.930 . S
H712 C725 0.930 . S
H713 C726 0.931 . S
H714 C730 0.959 . S
H715 C730 0.959 . S
H716 C730 0.961 . S
H717 C731 0.960 . S
H718 C731 0.961 . S
H719 C731 0.959 . S
H720 C734 0.929 . S
H721 C735 0.931 . S
H722 C737 0.930 . S
C723 H711 0.930 . S
C723 C724 1.399 . S
C723 C728 1.399 . S
C724 C723 1.399 . S
C724 C725 1.376 . S
C725 H712 0.930 . S
C725 C724 1.376 . S
C725 C726 1.387 1_565 S
C726 H713 0.931 . S
C726 C725 1.387 1_545 S
C726 C727 1.390 1_545 S
C727 C726 1.390 1_565 S
C727 C728 1.394 . S
C727 C733 1.465 1_565 S
C728 C723 1.399 . S
C728 C727 1.394 . S
C728 C729 1.516 . S
C729 C728 1.516 . S
C729 C730 1.502 . S
C729 C731 1.561 . S
C729 C732 1.526 1_565 S
C730 H714 0.959 . S
C730 H715 0.959 . S
C730 H716 0.961 . S
C730 C729 1.502 . S
C731 H717 0.960 . S
C731 H718 0.961 . S
C731 H719 0.959 . S
C731 C729 1.561 . S
C732 C729 1.526 1_545 S
C732 C733 1.396 . S
C732 C737 1.390 . S
C733 C727 1.465 1_545 S
C733 C732 1.396 . S
C733 C734 1.399 . S
C734 H720 0.929 . S
C734 C733 1.399 . S
C734 C735 1.385 . S
C735 H721 0.931 . S
C735 C734 1.385 . S
C735 C736 1.389 . S
C736 C735 1.389 . S
C736 C737 1.387 . S
C737 H722 0.930 . S
C737 C732 1.390 . S
C737 C736 1.387 . S
H738 C750 0.930 . S
H739 C752 0.930 . S
H740 C753 0.930 . S
H741 C757 0.959 . S
H742 C757 0.959 . S
H743 C757 0.961 . S
H744 C758 0.960 . S
H745 C758 0.961 . S
H746 C758 0.959 . S
H747 C761 0.929 . S
H748 C762 0.931 . S
H749 C764 0.930 . S
C750 H738 0.930 . S
C750 C751 1.399 . S
C750 C755 1.399 . S
C751 C750 1.399 . S
C751 C752 1.376 1_554 S
C752 H739 0.930 . S
C752 C751 1.376 1_556 S
C752 C753 1.388 . S
C753 H740 0.930 . S
C753 C752 1.388 . S
C753 C754 1.390 . S
C754 C753 1.390 . S
C754 C755 1.394 1_556 S
C754 C760 1.465 . S
C755 C750 1.399 . S
C755 C754 1.394 1_554 S
C755 C756 1.516 . S
C756 C755 1.516 . S
C756 C757 1.502 . S
C756 C758 1.561 . S
C756 C759 1.526 . S
C757 H741 0.959 . S
C757 H742 0.959 . S
C757 H743 0.961 . S
C757 C756 1.502 . S
C758 H744 0.960 . S
C758 H745 0.961 . S
C758 H746 0.959 . S
C758 C756 1.561 . S
C759 C756 1.526 . S
C759 C760 1.396 1_554 S
C759 C764 1.390 . S
C760 C754 1.465 . S
C760 C759 1.396 1_556 S
C760 C761 1.399 . S
C761 H747 0.929 . S
C761 C760 1.399 . S
C761 C762 1.385 . S
C762 H748 0.931 . S
C762 C761 1.385 . S
C762 C763 1.389 . S
C763 C762 1.389 . S
C763 C764 1.387 1_556 S
C764 H749 0.930 . S
C764 C759 1.390 . S
C764 C763 1.387 1_554 S
H765 C777 0.930 . S
H766 C779 0.930 . S
H767 C780 0.930 . S
H768 C784 0.959 . S
H769 C784 0.959 . S
H770 C784 0.961 1_545 S
H771 C785 0.960 1_545 S
H772 C785 0.961 . S
H773 C785 0.959 . S
H774 C788 0.929 . S
H775 C789 0.931 . S
H776 C791 0.930 . S
C777 H765 0.930 . S
C777 C778 1.399 . S
C777 C782 1.399 . S
C778 C777 1.399 . S
C778 C779 1.376 1_556 S
C779 H766 0.930 . S
C779 C778 1.376 1_554 S
C779 C780 1.388 . S
C780 H767 0.930 . S
C780 C779 1.388 . S
C780 C781 1.390 . S
C781 C780 1.390 . S
C781 C782 1.394 1_554 S
C781 C787 1.465 1_545 S
C782 C777 1.399 . S
C782 C781 1.394 1_556 S
C782 C783 1.516 1_545 S
C783 C782 1.516 1_565 S
C783 C784 1.502 . S
C783 C785 1.561 . S
C783 C786 1.526 . S
C784 H768 0.959 . S
C784 H769 0.959 . S
C784 H770 0.961 1_565 S
C784 C783 1.502 . S
C785 H771 0.960 1_565 S
C785 H772 0.961 . S
C785 H773 0.959 . S
C785 C783 1.561 . S
C786 C783 1.526 . S
C786 C787 1.396 1_556 S
C786 C791 1.390 . S
C787 C781 1.465 1_565 S
C787 C786 1.396 1_554 S
C787 C788 1.399 . S
C788 H774 0.929 . S
C788 C787 1.399 . S
C788 C789 1.385 . S
C789 H775 0.931 . S
C789 C788 1.385 . S
C789 C790 1.389 . S
C790 C789 1.389 . S
C790 C791 1.387 1_554 S
C791 H776 0.930 . S
C791 C786 1.390 . S
C791 C790 1.387 1_556 S
H792 C804 0.930 . S
H793 C806 0.930 . S
H794 C807 0.930 . S
H795 C811 0.959 . S
H796 C811 0.959 . S
H797 C811 0.961 1_655 S
H798 C812 0.960 1_655 S
H799 C812 0.961 . S
H800 C812 0.959 1_554 S
H801 C815 0.929 . S
H802 C816 0.931 . S
H803 C818 0.930 . S
C804 H792 0.930 . S
C804 C805 1.399 . S
C804 C809 1.399 . S
C805 C804 1.399 . S
C805 C806 1.376 1_556 S
C806 H793 0.930 . S
C806 C805 1.376 1_554 S
C806 C807 1.388 . S
C807 H794 0.930 . S
C807 C806 1.388 . S
C807 C808 1.390 . S
C808 C807 1.390 . S
C808 C809 1.394 1_554 S
C808 C814 1.465 1_655 S
C809 C804 1.399 . S
C809 C808 1.394 1_556 S
C809 C810 1.516 1_655 S
C810 C809 1.516 1_455 S
C810 C811 1.502 . S
C810 C812 1.561 . S
C810 C813 1.526 . S
C811 H795 0.959 . S
C811 H796 0.959 . S
C811 H797 0.961 1_455 S
C811 C810 1.502 . S
C812 H798 0.960 1_455 S
C812 H799 0.961 . S
C812 H800 0.959 1_556 S
C812 C810 1.561 . S
C813 C810 1.526 . S
C813 C814 1.396 1_556 S
C813 C818 1.390 . S
C814 C808 1.465 1_455 S
C814 C813 1.396 1_554 S
C814 C815 1.399 . S
C815 H801 0.929 . S
C815 C814 1.399 . S
C815 C816 1.385 . S
C816 H802 0.931 . S
C816 C815 1.385 . S
C816 C817 1.389 . S
C817 C816 1.389 . S
C817 C818 1.387 1_554 S
C818 H803 0.930 . S
C818 C813 1.390 . S
C818 C817 1.387 1_556 S
H819 C831 0.930 . S
H820 C833 0.930 . S
H821 C834 0.930 . S
H822 C838 0.959 . S
H823 C838 0.959 . S
H824 C838 0.961 . S
H825 C839 0.960 . S
H826 C839 0.961 . S
H827 C839 0.959 . S
H828 C842 0.929 . S
H829 C843 0.931 . S
H830 C845 0.930 . S
C831 H819 0.930 . S
C831 C832 1.399 1_554 S
C831 C836 1.399 . S
C832 C831 1.399 1_556 S
C832 C833 1.376 . S
C833 H820 0.930 . S
C833 C832 1.376 . S
C833 C834 1.388 . S
C834 H821 0.930 . S
C834 C833 1.388 . S
C834 C835 1.390 . S
C835 C834 1.390 . S
C835 C836 1.394 1_556 S
C835 C841 1.465 . S
C836 C831 1.399 . S
C836 C835 1.394 1_554 S
C836 C837 1.516 . S
C837 C836 1.516 . S
C837 C838 1.502 . S
C837 C839 1.561 . S
C837 C840 1.526 . S
C838 H822 0.959 . S
C838 H823 0.959 . S
C838 H824 0.961 . S
C838 C837 1.502 . S
C839 H825 0.960 . S
C839 H826 0.961 . S
C839 H827 0.959 . S
C839 C837 1.561 . S
C840 C837 1.526 . S
C840 C841 1.396 1_554 S
C840 C845 1.390 . S
C841 C835 1.465 . S
C841 C840 1.396 1_556 S
C841 C842 1.399 . S
C842 H828 0.929 . S
C842 C841 1.399 . S
C842 C843 1.385 . S
C843 H829 0.931 . S
C843 C842 1.385 . S
C843 C844 1.389 1_556 S
C844 C843 1.389 1_554 S
C844 C845 1.387 . S
C845 H830 0.930 . S
C845 C840 1.390 . S
C845 C844 1.387 . S
H846 C858 0.930 . S
H847 C860 0.930 . S
H848 C861 0.930 . S
H849 C865 0.959 . S
H850 C865 0.959 1_545 S
H851 C865 0.961 . S
H852 C866 0.960 . S
H853 C866 0.967 . S
H854 C866 0.959 . S
H855 C869 0.929 . S
H856 C870 0.931 . S
H857 C872 0.930 . S
C858 H846 0.930 . S
C858 C859 1.399 1_556 S
C858 C863 1.399 . S
C859 C858 1.399 1_554 S
C859 C860 1.376 . S
C860 H847 0.930 . S
C860 C859 1.376 . S
C860 C861 1.388 . S
C861 H848 0.930 . S
C861 C860 1.388 . S
C861 C862 1.390 . S
C862 C861 1.390 . S
C862 C863 1.394 1_554 S
C862 C868 1.465 1_565 S
C863 C858 1.399 . S
C863 C862 1.394 1_556 S
C863 C864 1.516 . S
C864 C863 1.516 . S
C864 C865 1.502 . S
C864 C866 1.561 . S
C864 C867 1.526 1_565 S
C865 H849 0.959 . S
C865 H850 0.959 1_565 S
C865 H851 0.961 . S
C865 C864 1.502 . S
C866 H852 0.960 . S
C866 H853 0.967 . S
C866 H854 0.959 . S
C866 C864 1.561 . S
C867 C864 1.526 1_545 S
C867 C868 1.396 1_556 S
C867 C872 1.390 . S
C868 C862 1.465 1_545 S
C868 C867 1.396 1_554 S
C868 C869 1.399 . S
C869 H855 0.929 . S
C869 C868 1.399 . S
C869 C870 1.385 . S
C870 H856 0.931 . S
C870 C869 1.385 . S
C870 C871 1.389 1_554 S
C871 C870 1.389 1_556 S
C871 C872 1.387 . S
C872 H857 0.930 . S
C872 C867 1.390 . S
C872 C871 1.387 . S
H873 C885 0.930 . S
H874 C887 0.930 . S
H875 C888 0.930 . S
H876 C892 0.959 . S
H877 C892 0.959 1_455 S
H878 C892 0.961 . S
H879 C893 0.960 . S
H880 C893 0.962 1_455 S
H881 C893 0.959 . S
H882 C896 0.929 . S
H883 C897 0.931 . S
H884 C899 0.930 . S
C885 H873 0.930 . S
C885 C886 1.399 1_554 S
C885 C890 1.399 . S
C886 C885 1.399 1_556 S
C886 C887 1.376 . S
C887 H874 0.930 . S
C887 C886 1.376 . S
C887 C888 1.388 . S
C888 H875 0.930 . S
C888 C887 1.388 . S
C888 C889 1.390 . S
C889 C888 1.390 . S
C889 C890 1.394 1_556 S
C889 C895 1.465 1_655 S
C890 C885 1.399 . S
C890 C889 1.394 1_554 S
C890 C891 1.516 . S
C891 C890 1.516 . S
C891 C892 1.502 . S
C891 C893 1.561 . S
C891 C894 1.526 1_655 S
C892 H876 0.959 . S
C892 H877 0.959 1_655 S
C892 H878 0.961 . S
C892 C891 1.502 . S
C893 H879 0.960 . S
C893 H880 0.962 1_655 S
C893 H881 0.959 . S
C893 C891 1.561 . S
C894 C891 1.526 1_455 S
C894 C895 1.396 1_554 S
C894 C899 1.390 . S
C895 C889 1.465 1_455 S
C895 C894 1.396 1_556 S
C895 C896 1.399 . S
C896 H882 0.929 . S
C896 C895 1.399 . S
C896 C897 1.385 . S
C897 H883 0.931 . S
C897 C896 1.385 . S
C897 C898 1.389 1_556 S
C898 C897 1.389 1_554 S
C898 C899 1.387 . S
C899 H884 0.930 . S
C899 C894 1.390 . S
C899 C898 1.387 . S
H900 C912 0.930 . S
H901 C914 0.930 . S
H902 C915 0.930 . S
H903 C919 0.959 . S
H904 C919 0.959 . S
H905 C919 0.961 . S
H906 C920 0.960 . S
H907 C920 0.961 . S
H908 C920 0.959 . S
H909 C923 0.929 . S
H910 C924 0.931 . S
H911 C926 0.930 . S
C912 H900 0.930 . S
C912 C913 1.399 . S
C912 C917 1.399 . S
C913 C912 1.399 . S
C913 C914 1.376 . S
C914 H901 0.930 . S
C914 C913 1.376 . S
C914 C915 1.388 . S
C915 H902 0.930 . S
C915 C914 1.388 . S
C915 C916 1.390 . S
C916 C915 1.390 . S
C916 C917 1.394 . S
C916 C922 1.465 . S
C917 C912 1.399 . S
C917 C916 1.394 . S
C917 C918 1.516 . S
C918 C917 1.516 . S
C918 C919 1.502 . S
C918 C920 1.561 . S
C918 C921 1.526 . S
C919 H903 0.959 . S
C919 H904 0.959 . S
C919 H905 0.961 . S
C919 C918 1.502 . S
C920 H906 0.960 . S
C920 H907 0.961 . S
C920 H908 0.959 . S
C920 C918 1.561 . S
C921 C918 1.526 . S
C921 C922 1.396 . S
C921 C926 1.390 . S
C922 C916 1.465 . S
C922 C921 1.396 . S
C922 C923 1.399 . S
C923 H909 0.929 . S
C923 C922 1.399 . S
C923 C924 1.385 . S
C924 H910 0.931 . S
C924 C923 1.385 . S
C924 C925 1.389 . S
C925 C924 1.389 . S
C925 C926 1.387 . S
C926 H911 0.930 . S
C926 C921 1.390 . S
C926 C925 1.387 . S
H927 C939 0.930 . S
H928 C941 0.930 . S
H929 C942 0.930 . S
H930 C946 0.959 . S
H931 C946 0.959 . S
H932 C946 0.961 . S
H933 C947 0.960 . S
H934 C947 0.961 . S
H935 C947 0.959 . S
H936 C950 0.929 . S
H937 C951 0.931 . S
H938 C953 0.930 . S
C939 H927 0.930 . S
C939 C940 1.399 . S
C939 C944 1.399 . S
C940 C939 1.399 . S
C940 C941 1.376 . S
C941 H928 0.930 . S
C941 C940 1.376 . S
C941 C942 1.388 . S
C942 H929 0.930 . S
C942 C941 1.388 . S
C942 C943 1.390 . S
C943 C942 1.390 . S
C943 C944 1.394 . S
C943 C949 1.465 . S
C944 C939 1.399 . S
C944 C943 1.394 . S
C944 C945 1.516 . S
C945 C944 1.516 . S
C945 C946 1.502 . S
C945 C947 1.561 . S
C945 C948 1.526 . S
C946 H930 0.959 . S
C946 H931 0.959 . S
C946 H932 0.961 . S
C946 C945 1.502 . S
C947 H933 0.960 . S
C947 H934 0.961 . S
C947 H935 0.959 . S
C947 C945 1.561 . S
C948 C945 1.526 . S
C948 C949 1.396 . S
C948 C953 1.390 . S
C949 C943 1.465 . S
C949 C948 1.396 . S
C949 C950 1.399 . S
C950 H936 0.929 . S
C950 C949 1.399 . S
C950 C951 1.385 . S
C951 H937 0.931 . S
C951 C950 1.385 . S
C951 C952 1.389 . S
C952 C951 1.389 . S
C952 C953 1.387 . S
C953 H938 0.930 . S
C953 C948 1.390 . S
C953 C952 1.387 . S
H954 C966 0.930 . S
H955 C968 0.930 . S
H956 C969 0.930 . S
H957 C973 0.959 . S
H958 C973 0.959 . S
H959 C973 0.961 . S
H960 C974 0.960 . S
H961 C974 0.961 . S
H962 C974 0.959 . S
H963 C977 0.929 . S
H964 C978 0.931 . S
H965 C980 0.930 . S
C966 H954 0.930 . S
C966 C967 1.399 . S
C966 C971 1.399 . S
C967 C966 1.399 . S
C967 C968 1.376 . S
C968 H955 0.930 . S
C968 C967 1.376 . S
C968 C969 1.388 . S
C969 H956 0.930 . S
C969 C968 1.388 . S
C969 C970 1.390 . S
C970 C969 1.390 . S
C970 C971 1.394 . S
C970 C976 1.465 . S
C971 C966 1.399 . S
C971 C970 1.394 . S
C971 C972 1.516 . S
C972 C971 1.516 . S
C972 C973 1.502 . S
C972 C974 1.561 . S
C972 C975 1.526 . S
C973 H957 0.959 . S
C973 H958 0.959 . S
C973 H959 0.961 . S
C973 C972 1.502 . S
C974 H960 0.960 . S
C974 H961 0.961 . S
C974 H962 0.959 . S
C974 C972 1.561 . S
C975 C972 1.526 . S
C975 C976 1.396 . S
C975 C980 1.390 . S
C976 C970 1.465 . S
C976 C975 1.396 . S
C976 C977 1.399 . S
C977 H963 0.929 . S
C977 C976 1.399 . S
C977 C978 1.385 . S
C978 H964 0.931 . S
C978 C977 1.385 . S
C978 C979 1.389 . S
C979 C978 1.389 . S
C979 C980 1.387 . S
C980 H965 0.930 . S
C980 C975 1.390 . S
C980 C979 1.387 . S
H981 C993 0.930 . S
H982 C995 0.930 . S
H983 C996 0.930 . S
H984 C1000 0.959 . S
H985 C1000 0.959 . S
H986 C1000 0.961 . S
H987 C1001 0.960 . S
H988 C1001 0.961 . S
H989 C1001 0.959 . S
H990 C1004 0.929 . S
H991 C1005 0.931 . S
H992 C1007 0.930 . S
C993 H981 0.930 . S
C993 C994 1.399 . S
C993 C998 1.399 . S
C994 C993 1.399 . S
C994 C995 1.376 . S
C995 H982 0.930 . S
C995 C994 1.376 . S
C995 C996 1.388 . S
C996 H983 0.930 . S
C996 C995 1.388 . S
C996 C997 1.390 . S
C997 C996 1.390 . S
C997 C998 1.394 . S
C997 C1003 1.465 . S
C998 C993 1.399 . S
C998 C997 1.394 . S
C998 C999 1.516 . S
C999 C998 1.516 . S
C999 C1000 1.502 . S
C999 C1001 1.561 . S
C999 C1002 1.526 . S
C1000 H984 0.959 . S
C1000 H985 0.959 . S
C1000 H986 0.961 . S
C1000 C999 1.502 . S
C1001 H987 0.960 . S
C1001 H988 0.961 . S
C1001 H989 0.959 . S
C1001 C999 1.561 . S
C1002 C999 1.526 . S
C1002 C1003 1.396 . S
C1002 C1007 1.390 . S
C1003 C997 1.465 . S
C1003 C1002 1.396 . S
C1003 C1004 1.399 . S
C1004 H990 0.929 . S
C1004 C1003 1.399 . S
C1004 C1005 1.385 . S
C1005 H991 0.931 . S
C1005 C1004 1.385 . S
C1005 C1006 1.389 . S
C1006 C1005 1.389 . S
C1006 C1007 1.387 . S
C1007 H992 0.930 . S
C1007 C1002 1.390 . S
C1007 C1006 1.387 . S
H1008 C1020 0.930 . S
H1009 C1022 0.930 . S
H1010 C1023 0.930 . S
H1011 C1027 0.959 . S
H1012 C1027 0.959 . S
H1013 C1027 0.961 . S
H1014 C1028 0.960 . S
H1015 C1028 0.961 . S
H1016 C1028 0.959 . S
H1017 C1031 0.929 . S
H1018 C1032 0.931 . S
H1019 C1034 0.930 . S
C1020 H1008 0.930 . S
C1020 C1021 1.399 . S
C1020 C1025 1.399 . S
C1021 C1020 1.399 . S
C1021 C1022 1.376 . S
C1022 H1009 0.930 . S
C1022 C1021 1.376 . S
C1022 C1023 1.388 . S
C1023 H1010 0.930 . S
C1023 C1022 1.388 . S
C1023 C1024 1.390 . S
C1024 C1023 1.390 . S
C1024 C1025 1.394 . S
C1024 C1030 1.465 . S
C1025 C1020 1.399 . S
C1025 C1024 1.394 . S
C1025 C1026 1.516 . S
C1026 C1025 1.516 . S
C1026 C1027 1.502 . S
C1026 C1028 1.561 . S
C1026 C1029 1.526 . S
C1027 H1011 0.959 . S
C1027 H1012 0.959 . S
C1027 H1013 0.961 . S
C1027 C1026 1.502 . S
C1028 H1014 0.960 . S
C1028 H1015 0.961 . S
C1028 H1016 0.959 . S
C1028 C1026 1.561 . S
C1029 C1026 1.526 . S
C1029 C1030 1.396 . S
C1029 C1034 1.390 . S
C1030 C1024 1.465 . S
C1030 C1029 1.396 . S
C1030 C1031 1.399 . S
C1031 H1017 0.929 . S
C1031 C1030 1.399 . S
C1031 C1032 1.385 . S
C1032 H1018 0.931 . S
C1032 C1031 1.385 . S
C1032 C1033 1.389 . S
C1033 C1032 1.389 . S
C1033 C1034 1.387 . S
C1034 H1019 0.930 . S
C1034 C1029 1.390 . S
C1034 C1033 1.387 . S
H1035 C1047 0.930 . S
H1036 C1049 0.930 . S
H1037 C1050 0.930 . S
H1038 C1054 0.959 . S
H1039 C1054 0.959 . S
H1040 C1054 0.961 . S
H1041 C1055 0.960 . S
H1042 C1055 0.961 . S
H1043 C1055 0.959 . S
H1044 C1058 0.929 . S
H1045 C1059 0.931 . S
H1046 C1061 0.930 . S
C1047 H1035 0.930 . S
C1047 C1048 1.399 . S
C1047 C1052 1.399 . S
C1048 C1047 1.399 . S
C1048 C1049 1.376 . S
C1049 H1036 0.930 . S
C1049 C1048 1.376 . S
C1049 C1050 1.388 . S
C1050 H1037 0.930 . S
C1050 C1049 1.388 . S
C1050 C1051 1.390 . S
C1051 C1050 1.390 . S
C1051 C1052 1.394 . S
C1051 C1057 1.465 . S
C1052 C1047 1.399 . S
C1052 C1051 1.394 . S
C1052 C1053 1.516 . S
C1053 C1052 1.516 . S
C1053 C1054 1.502 . S
C1053 C1055 1.561 . S
C1053 C1056 1.526 . S
C1054 H1038 0.959 . S
C1054 H1039 0.959 . S
C1054 H1040 0.961 . S
C1054 C1053 1.502 . S
C1055 H1041 0.960 . S
C1055 H1042 0.961 . S
C1055 H1043 0.959 . S
C1055 C1053 1.561 . S
C1056 C1053 1.526 . S
C1056 C1057 1.396 . S
C1056 C1061 1.390 . S
C1057 C1051 1.465 . S
C1057 C1056 1.396 . S
C1057 C1058 1.399 . S
C1058 H1044 0.929 . S
C1058 C1057 1.399 . S
C1058 C1059 1.385 . S
C1059 H1045 0.931 . S
C1059 C1058 1.385 . S
C1059 C1060 1.389 . S
C1060 C1059 1.389 . S
C1060 C1061 1.387 . S
C1061 H1046 0.930 . S
C1061 C1056 1.390 . S
C1061 C1060 1.387 . S
H1062 C1074 0.930 . S
H1063 C1076 0.930 . S
H1064 C1077 0.930 . S
H1065 C1081 0.959 . S
H1066 C1081 0.959 . S
H1067 C1081 0.961 . S
H1068 C1082 0.960 . S
H1069 C1082 0.961 . S
H1070 C1082 0.959 . S
H1071 C1085 0.929 . S
H1072 C1086 0.931 . S
H1073 C1088 0.930 . S
C1074 H1062 0.930 . S
C1074 C1075 1.399 . S
C1074 C1079 1.399 . S
C1075 C1074 1.399 . S
C1075 C1076 1.376 . S
C1076 H1063 0.930 . S
C1076 C1075 1.376 . S
C1076 C1077 1.388 . S
C1077 H1064 0.930 . S
C1077 C1076 1.388 . S
C1077 C1078 1.390 . S
C1078 C1077 1.390 . S
C1078 C1079 1.394 . S
C1078 C1084 1.465 . S
C1079 C1074 1.399 . S
C1079 C1078 1.394 . S
C1079 C1080 1.516 . S
C1080 C1079 1.516 . S
C1080 C1081 1.502 . S
C1080 C1082 1.561 . S
C1080 C1083 1.526 . S
C1081 H1065 0.959 . S
C1081 H1066 0.959 . S
C1081 H1067 0.961 . S
C1081 C1080 1.502 . S
C1082 H1068 0.960 . S
C1082 H1069 0.961 . S
C1082 H1070 0.959 . S
C1082 C1080 1.561 . S
C1083 C1080 1.526 . S
C1083 C1084 1.396 . S
C1083 C1088 1.390 . S
C1084 C1078 1.465 . S
C1084 C1083 1.396 . S
C1084 C1085 1.399 . S
C1085 H1071 0.929 . S
C1085 C1084 1.399 . S
C1085 C1086 1.385 . S
C1086 H1072 0.931 . S
C1086 C1085 1.385 . S
C1086 C1087 1.389 . S
C1087 C1086 1.389 . S
C1087 C1088 1.387 . S
C1088 H1073 0.930 . S
C1088 C1083 1.390 . S
C1088 C1087 1.387 . S
H1089 C1101 0.930 . S
H1090 C1103 0.930 . S
H1091 C1104 0.930 . S
H1092 C1108 0.959 . S
H1093 C1108 0.959 . S
H1094 C1108 0.961 . S
H1095 C1109 0.960 . S
H1096 C1109 0.961 . S
H1097 C1109 0.959 . S
H1098 C1112 0.929 . S
H1099 C1113 0.931 . S
H1100 C1115 0.930 . S
C1101 H1089 0.930 . S
C1101 C1102 1.399 . S
C1101 C1106 1.399 . S
C1102 C1101 1.399 . S
C1102 C1103 1.376 . S
C1103 H1090 0.930 . S
C1103 C1102 1.376 . S
C1103 C1104 1.388 . S
C1104 H1091 0.930 . S
C1104 C1103 1.388 . S
C1104 C1105 1.390 . S
C1105 C1104 1.390 . S
C1105 C1106 1.394 . S
C1105 C1111 1.465 . S
C1106 C1101 1.399 . S
C1106 C1105 1.394 . S
C1106 C1107 1.516 . S
C1107 C1106 1.516 . S
C1107 C1108 1.502 . S
C1107 C1109 1.561 . S
C1107 C1110 1.526 . S
C1108 H1092 0.959 . S
C1108 H1093 0.959 . S
C1108 H1094 0.961 . S
C1108 C1107 1.502 . S
C1109 H1095 0.960 . S
C1109 H1096 0.961 . S
C1109 H1097 0.959 . S
C1109 C1107 1.561 . S
C1110 C1107 1.526 . S
C1110 C1111 1.396 . S
C1110 C1115 1.390 . S
C1111 C1105 1.465 . S
C1111 C1110 1.396 . S
C1111 C1112 1.399 . S
C1112 H1098 0.929 . S
C1112 C1111 1.399 . S
C1112 C1113 1.385 . S
C1113 H1099 0.931 . S
C1113 C1112 1.385 . S
C1113 C1114 1.389 . S
C1114 C1113 1.389 . S
C1114 C1115 1.387 . S
C1115 H1100 0.930 . S
C1115 C1110 1.390 . S
C1115 C1114 1.387 . S
H1116 C1128 0.930 . S
H1117 C1130 0.930 . S
H1118 C1131 0.930 . S
H1119 C1135 0.959 . S
H1120 C1135 0.959 . S
H1121 C1135 0.961 . S
H1122 C1136 0.960 . S
H1123 C1136 0.961 . S
H1124 C1136 0.959 . S
H1125 C1139 0.929 . S
H1126 C1140 0.931 . S
H1127 C1142 0.930 . S
C1128 H1116 0.930 . S
C1128 C1129 1.399 . S
C1128 C1133 1.399 . S
C1129 C1128 1.399 . S
C1129 C1130 1.376 . S
C1130 H1117 0.930 . S
C1130 C1129 1.376 . S
C1130 C1131 1.388 . S
C1131 H1118 0.930 . S
C1131 C1130 1.388 . S
C1131 C1132 1.390 . S
C1132 C1131 1.390 . S
C1132 C1133 1.394 . S
C1132 C1138 1.465 . S
C1133 C1128 1.399 . S
C1133 C1132 1.394 . S
C1133 C1134 1.516 . S
C1134 C1133 1.516 . S
C1134 C1135 1.502 . S
C1134 C1136 1.561 . S
C1134 C1137 1.526 . S
C1135 H1119 0.959 . S
C1135 H1120 0.959 . S
C1135 H1121 0.961 . S
C1135 C1134 1.502 . S
C1136 H1122 0.960 . S
C1136 H1123 0.961 . S
C1136 H1124 0.959 . S
C1136 C1134 1.561 . S
C1137 C1134 1.526 . S
C1137 C1138 1.396 . S
C1137 C1142 1.390 . S
C1138 C1132 1.465 . S
C1138 C1137 1.396 . S
C1138 C1139 1.399 . S
C1139 H1125 0.929 . S
C1139 C1138 1.399 . S
C1139 C1140 1.385 . S
C1140 H1126 0.931 . S
C1140 C1139 1.385 . S
C1140 C1141 1.389 . S
C1141 C1140 1.389 . S
C1141 C1142 1.387 . S
C1142 H1127 0.930 . S
C1142 C1137 1.390 . S
C1142 C1141 1.387 . S
H1143 C1155 0.930 . S
H1144 C1157 0.930 . S
H1145 C1158 0.930 . S
H1146 C1162 0.959 . S
H1147 C1162 0.959 . S
H1148 C1162 0.961 . S
H1149 C1163 0.960 . S
H1150 C1163 0.961 . S
H1151 C1163 0.959 . S
H1152 C1166 0.929 . S
H1153 C1167 0.931 . S
H1154 C1169 0.930 . S
C1155 H1143 0.930 . S
C1155 C1156 1.399 . S
C1155 C1160 1.399 . S
C1156 C1155 1.399 . S
C1156 C1157 1.376 . S
C1157 H1144 0.930 . S
C1157 C1156 1.376 . S
C1157 C1158 1.388 . S
C1158 H1145 0.930 . S
C1158 C1157 1.388 . S
C1158 C1159 1.390 . S
C1159 C1158 1.390 . S
C1159 C1160 1.394 . S
C1159 C1165 1.465 . S
C1160 C1155 1.399 . S
C1160 C1159 1.394 . S
C1160 C1161 1.516 . S
C1161 C1160 1.516 . S
C1161 C1162 1.502 . S
C1161 C1163 1.561 . S
C1161 C1164 1.526 . S
C1162 H1146 0.959 . S
C1162 H1147 0.959 . S
C1162 H1148 0.961 . S
C1162 C1161 1.502 . S
C1163 H1149 0.960 . S
C1163 H1150 0.961 . S
C1163 H1151 0.959 . S
C1163 C1161 1.561 . S
C1164 C1161 1.526 . S
C1164 C1165 1.396 . S
C1164 C1169 1.390 . S
C1165 C1159 1.465 . S
C1165 C1164 1.396 . S
C1165 C1166 1.399 . S
C1166 H1152 0.929 . S
C1166 C1165 1.399 . S
C1166 C1167 1.385 . S
C1167 H1153 0.931 . S
C1167 C1166 1.385 . S
C1167 C1168 1.389 . S
C1168 C1167 1.389 . S
C1168 C1169 1.387 . S
C1169 H1154 0.930 . S
C1169 C1164 1.390 . S
C1169 C1168 1.387 . S
H1170 C1182 0.930 . S
H1171 C1184 0.930 . S
H1172 C1185 0.930 . S
H1173 C1189 0.959 . S
H1174 C1189 0.959 . S
H1175 C1189 0.961 . S
H1176 C1190 0.960 . S
H1177 C1190 0.961 . S
H1178 C1190 0.959 . S
H1179 C1193 0.929 . S
H1180 C1194 0.931 . S
H1181 C1196 0.930 . S
C1182 H1170 0.930 . S
C1182 C1183 1.399 . S
C1182 C1187 1.399 . S
C1183 C1182 1.399 . S
C1183 C1184 1.376 . S
C1184 H1171 0.930 . S
C1184 C1183 1.376 . S
C1184 C1185 1.388 . S
C1185 H1172 0.930 . S
C1185 C1184 1.388 . S
C1185 C1186 1.390 . S
C1186 C1185 1.390 . S
C1186 C1187 1.394 . S
C1186 C1192 1.465 . S
C1187 C1182 1.399 . S
C1187 C1186 1.394 . S
C1187 C1188 1.516 . S
C1188 C1187 1.516 . S
C1188 C1189 1.502 . S
C1188 C1190 1.561 . S
C1188 C1191 1.526 . S
C1189 H1173 0.959 . S
C1189 H1174 0.959 . S
C1189 H1175 0.961 . S
C1189 C1188 1.502 . S
C1190 H1176 0.960 . S
C1190 H1177 0.961 . S
C1190 H1178 0.959 . S
C1190 C1188 1.561 . S
C1191 C1188 1.526 . S
C1191 C1192 1.396 . S
C1191 C1196 1.390 . S
C1192 C1186 1.465 . S
C1192 C1191 1.396 . S
C1192 C1193 1.399 . S
C1193 H1179 0.929 . S
C1193 C1192 1.399 . S
C1193 C1194 1.385 . S
C1194 H1180 0.931 . S
C1194 C1193 1.385 . S
C1194 C1195 1.389 . S
C1195 C1194 1.389 . S
C1195 C1196 1.387 . S
C1196 H1181 0.930 . S
C1196 C1191 1.390 . S
C1196 C1195 1.387 . S
H1197 C1209 0.930 . S
H1198 C1211 0.930 . S
H1199 C1212 0.930 . S
H1200 C1216 0.959 . S
H1201 C1216 0.959 . S
H1202 C1216 0.961 . S
H1203 C1217 0.960 . S
H1204 C1217 0.961 . S
H1205 C1217 0.959 . S
H1206 C1220 0.929 . S
H1207 C1221 0.931 . S
H1208 C1223 0.930 . S
C1209 H1197 0.930 . S
C1209 C1210 1.399 . S
C1209 C1214 1.399 . S
C1210 C1209 1.399 . S
C1210 C1211 1.376 . S
C1211 H1198 0.930 . S
C1211 C1210 1.376 . S
C1211 C1212 1.388 . S
C1212 H1199 0.930 . S
C1212 C1211 1.388 . S
C1212 C1213 1.390 . S
C1213 C1212 1.390 . S
C1213 C1214 1.394 . S
C1213 C1219 1.465 . S
C1214 C1209 1.399 . S
C1214 C1213 1.394 . S
C1214 C1215 1.516 . S
C1215 C1214 1.516 . S
C1215 C1216 1.502 . S
C1215 C1217 1.561 . S
C1215 C1218 1.526 . S
C1216 H1200 0.959 . S
C1216 H1201 0.959 . S
C1216 H1202 0.961 . S
C1216 C1215 1.502 . S
C1217 H1203 0.960 . S
C1217 H1204 0.961 . S
C1217 H1205 0.959 . S
C1217 C1215 1.561 . S
C1218 C1215 1.526 . S
C1218 C1219 1.396 . S
C1218 C1223 1.390 . S
C1219 C1213 1.465 . S
C1219 C1218 1.396 . S
C1219 C1220 1.399 . S
C1220 H1206 0.929 . S
C1220 C1219 1.399 . S
C1220 C1221 1.385 . S
C1221 H1207 0.931 . S
C1221 C1220 1.385 . S
C1221 C1222 1.389 . S
C1222 C1221 1.389 . S
C1222 C1223 1.387 . S
C1223 H1208 0.930 . S
C1223 C1218 1.390 . S
C1223 C1222 1.387 . S
C265 C249 1.622 . S
C277 C11 1.643 . S
C292 C221 1.642 . S
C304 C25 1.633 . S
C319 C235 1.597 . S
C331 C39 1.626 . S
C346 C109 1.643 . S
C358 C53 1.622 . S
C373 C123 1.601 . S
C385 C67 1.631 . S
C400 C81 1.614 . S
C412 C95 1.593 . S
C427 C137 1.635 . S
C439 C193 1.641 . S
C454 C151 1.643 . S
C466 C207 1.622 . S
C481 C165 1.622 . S
C493 C179 1.643 . S
C508 C4 1.218 . S
C520 C242 1.173 . S
C535 C214 1.189 . S
C547 C18 1.152 . S
C562 C32 1.224 . S
C574 C228 1.183 . S
C589 C102 1.155 . S
C601 C46 1.199 . S
C616 C60 1.209 . S
C628 C116 1.226 . S
C643 C74 1.219 . S
C655 C88 1.174 . S
C670 C130 1.177 . S
C682 C186 1.220 . S
C697 C200 1.154 . S
C709 C144 1.161 . S
C724 C172 1.149 . S
C736 C158 1.182 . S
C751 C5 1.335 . S
C763 C47 1.241 . S
C778 C61 1.312 . S
C790 C19 1.232 . S
C805 C75 1.371 . S
C817 C33 1.281 . S
C832 C82 1.450 . S
C844 C26 1.435 . S
C859 C40 1.448 . S
C871 C54 1.436 . S
C886 C68 1.450 . S
C898 C12 1.435 . S
C913 C89 1.260 . S
C925 C131 1.358 . S
C940 C145 1.303 . S
C952 C103 1.375 . S
C967 C159 1.372 . S
C979 C117 1.284 . S
C994 C166 1.449 . S
C1006 C110 1.436 . S
C1021 C124 1.440 . S
C1033 C138 1.448 . S
C1048 C152 1.441 . S
C1060 C96 1.447 . S
C1075 C215 1.279 . S
C1087 C173 1.234 . S
C1102 C229 1.301 . S
C1114 C187 1.231 . S
C1129 C201 1.319 . S
C1141 C243 1.375 . S
C1156 C250 1.447 . S
C1168 C194 1.437 . S
C1183 C208 1.451 . S
C1195 C222 1.434 . S
C1210 C236 1.436 . S
C1222 C180 1.451 . S
