# Generated by pormake.
# Topology wgu, (5)-cn, num edge types: 1
# Building blocks:
#     Node 0, Type 0, BuildingBlock: XOMCOT_clean_sbu_1, # of connection points: 5
#     Node 1, Type 0, BuildingBlock: XOMCOT_clean_sbu_1, # of connection points: 5
#     Node 2, Type 0, BuildingBlock: XOMCOT_clean_sbu_1, # of connection points: 5
#     Node 3, Type 0, BuildingBlock: XOMCOT_clean_sbu_1, # of connection points: 5
#     Node 4, Type 0, BuildingBlock: XOMCOT_clean_sbu_1, # of connection points: 5
#     Node 5, Type 0, BuildingBlock: XOMCOT_clean_sbu_1, # of connection points: 5
#     Node 6, Type 0, BuildingBlock: XOMCOT_clean_sbu_1, # of connection points: 5
#     Node 7, Type 0, BuildingBlock: XOMCOT_clean_sbu_1, # of connection points: 5
#     Edge 8, Type (0, 0), BuildingBlock: MIFKUJ_clean_linker_0, # of connection points: 2
#     Edge 9, Type (0, 0), BuildingBlock: MIFKUJ_clean_linker_0, # of connection points: 2
#     Edge 10, Type (0, 0), BuildingBlock: MIFKUJ_clean_linker_0, # of connection points: 2
#     Edge 11, Type (0, 0), BuildingBlock: MIFKUJ_clean_linker_0, # of connection points: 2
#     Edge 12, Type (0, 0), BuildingBlock: MIFKUJ_clean_linker_0, # of connection points: 2
#     Edge 13, Type (0, 0), BuildingBlock: MIFKUJ_clean_linker_0, # of connection points: 2
#     Edge 14, Type (0, 0), BuildingBlock: MIFKUJ_clean_linker_0, # of connection points: 2
#     Edge 15, Type (0, 0), BuildingBlock: MIFKUJ_clean_linker_0, # of connection points: 2
#     Edge 16, Type (0, 0), BuildingBlock: MIFKUJ_clean_linker_0, # of connection points: 2
#     Edge 17, Type (0, 0), BuildingBlock: MIFKUJ_clean_linker_0, # of connection points: 2
#     Edge 18, Type (0, 0), BuildingBlock: MIFKUJ_clean_linker_0, # of connection points: 2
#     Edge 19, Type (0, 0), BuildingBlock: MIFKUJ_clean_linker_0, # of connection points: 2
#     Edge 20, Type (0, 0), BuildingBlock: MIFKUJ_clean_linker_0, # of connection points: 2
#     Edge 21, Type (0, 0), BuildingBlock: MIFKUJ_clean_linker_0, # of connection points: 2
#     Edge 22, Type (0, 0), BuildingBlock: MIFKUJ_clean_linker_0, # of connection points: 2
#     Edge 23, Type (0, 0), BuildingBlock: MIFKUJ_clean_linker_0, # of connection points: 2
#     Edge 24, Type (0, 0), BuildingBlock: MIFKUJ_clean_linker_0, # of connection points: 2
#     Edge 25, Type (0, 0), BuildingBlock: MIFKUJ_clean_linker_0, # of connection points: 2
#     Edge 26, Type (0, 0), BuildingBlock: MIFKUJ_clean_linker_0, # of connection points: 2
#     Edge 27, Type (0, 0), BuildingBlock: MIFKUJ_clean_linker_0, # of connection points: 2
# Relax obj value: 0.197
# Max RMSD: 0.182
# Mean RMSD: 0.170
data_MOF--net-wgu--node1-XOMCOT_clean_sbu_1--edge1-MIFKUJ_clean_linker_0
_symmetry_space_group_name_H-M    P1
_symmetry_Int_Tables_number       1
_symmetry_cell_setting            triclinic
loop_
_symmetry_equiv_pos_as_xyz
'x, y, z'
_cell_length_a     41.79008
_cell_length_b     41.327854
_cell_length_c     36.831242
_cell_angle_alpha  94.72418
_cell_angle_beta   92.430194
_cell_angle_gamma 89.861589
loop_
_atom_site_label
_atom_site_type_symbol
_atom_site_fract_x
_atom_site_fract_y
_atom_site_fract_z
_atom_type_partial_charge
C0 C 0.26611 0.3919 0.14135 0.0
C1 C 0.25414 0.42288 0.14131 0.0
N2 N 0.27192 0.43962 0.11958 0.0
N3 N 0.29145 0.38905 0.11988 0.0
C4 C 0.29457 0.41861 0.10715 0.0
H5 H 0.25606 0.37232 0.15494 0.0
Co6 Co 0.31215 0.35028 0.1066 0.0
C7 C 0.37948 0.36899 0.0922 0.0
O8 O 0.38202 0.34413 0.06785 0.0
N9 N 0.33214 0.31016 0.0935 0.0
C10 C 0.36094 0.26505 0.09738 0.0
C11 C 0.3578 0.29705 0.11038 0.0
C12 C 0.31973 0.28536 0.07103 0.0
N13 N 0.33673 0.25766 0.07283 0.0
O14 O 0.31798 0.34228 0.15696 0.0
H15 H 0.37232 0.30951 0.13219 0.0
H16 H 0.29752 0.2869 0.05523 0.0
O17 O 0.35317 0.37391 0.10837 0.0
C18 C 0.29837 0.32005 0.16338 0.0
O19 O 0.27906 0.30776 0.13671 0.0
N20 N 0.30262 0.35644 0.05768 0.0
C21 C 0.27887 0.35063 0.98581 0.0
C22 C 0.30857 0.36565 0.99494 0.0
C23 C 0.31989 0.36884 0.03138 0.0
C24 C 0.27246 0.34492 0.04968 0.0
C25 C 0.2602 0.3415 0.01397 0.0
H26 H 0.34249 0.38075 0.0378 0.0
H27 H 0.25869 0.33622 0.07112 0.0
H28 H 0.31185 0.424 0.08742 0.0
H29 H 0.23335 0.43207 0.15538 0.0
H30 H 0.37828 0.24797 0.10719 0.0
H31 H 0.32326 0.37399 0.97403 0.0
H32 H 0.23719 0.32971 0.00838 0.0
C33 C 0.59329 0.30977 0.42611 0.0
C34 C 0.56279 0.29731 0.42178 0.0
N35 N 0.55616 0.28286 0.45208 0.0
N36 N 0.60598 0.30311 0.45886 0.0
C37 C 0.58278 0.28675 0.47421 0.0
H38 H 0.60548 0.32303 0.40667 0.0
Co39 Co 0.64713 0.31565 0.47489 0.0
C40 C 0.65628 0.297 0.54936 0.0
O41 O 0.66655 0.32672 0.5584 0.0
N42 N 0.68983 0.32779 0.49022 0.0
C43 C 0.73652 0.35152 0.50769 0.0
C44 C 0.70467 0.35669 0.49863 0.0
C45 C 0.7134 0.30566 0.49434 0.0
N46 N 0.7419 0.31935 0.5047 0.0
O47 O 0.66356 0.2798 0.44493 0.0
H48 H 0.69363 0.38026 0.49837 0.0
H49 H 0.70965 0.27969 0.49032 0.0
O50 O 0.64612 0.2888 0.5166 0.0
C51 C 0.67402 0.28957 0.41572 0.0
O52 O 0.67279 0.32081 0.41137 0.0
N53 N 0.62943 0.35249 0.50031 0.0
C54 C 0.5965 0.40948 0.52194 0.0
C55 C 0.59201 0.38092 0.53932 0.0
C56 C 0.60827 0.35249 0.52766 0.0
C57 C 0.6329 0.37965 0.48223 0.0
C58 C 0.61738 0.40853 0.49309 0.0
H59 H 0.60265 0.33031 0.53959 0.0
H60 H 0.6472 0.37857 0.45835 0.0
H61 H 0.58534 0.27768 0.50092 0.0
H62 H 0.5465 0.29929 0.39843 0.0
H63 H 0.75446 0.37002 0.5151 0.0
H64 H 0.57544 0.38029 0.56107 0.0
H65 H 0.6205 0.42949 0.47777 0.0
C66 C 0.78206 0.62511 0.06969 0.0
C67 C 0.79648 0.59512 0.06837 0.0
N68 N 0.7757 0.57316 0.05185 0.0
N69 N 0.75231 0.62203 0.05416 0.0
C70 C 0.74919 0.59019 0.04334 0.0
H71 H 0.79263 0.64772 0.08124 0.0
Co72 Co 0.7226 0.65484 0.04861 0.0
C73 C 0.74598 0.70429 0.10512 0.0
O74 O 0.7458 0.72568 0.08063 0.0
N75 N 0.69265 0.68834 0.04338 0.0
C76 C 0.65541 0.72574 0.05556 0.0
C77 C 0.66887 0.69733 0.06579 0.0
C78 C 0.6928 0.71149 0.01955 0.0
N79 N 0.67081 0.73487 0.02665 0.0
O80 O 0.75379 0.67821 0.02391 0.0
H81 H 0.66279 0.68514 0.08942 0.0
H82 H 0.71035 0.71271 0.99908 0.0
O83 O 0.73685 0.67521 0.0959 0.0
C84 C 0.75493 0.66681 0.99072 0.0
O85 O 0.73717 0.64132 0.97994 0.0
N86 N 0.69168 0.63017 0.06901 0.0
C87 C 0.64341 0.58885 0.08741 0.0
C88 C 0.66512 0.60286 0.11437 0.0
C89 C 0.68955 0.62329 0.10448 0.0
C90 C 0.67059 0.61704 0.04274 0.0
C91 C 0.64635 0.59633 0.05129 0.0
H92 H 0.70675 0.63321 0.12514 0.0
H93 H 0.67297 0.62251 0.01475 0.0
H94 H 0.72799 0.57982 0.02908 0.0
H95 H 0.82023 0.58989 0.07923 0.0
H96 H 0.63678 0.73932 0.06953 0.0
H97 H 0.66369 0.59744 0.14252 0.0
H98 H 0.62992 0.58628 0.02974 0.0
C99 C 0.39374 0.81244 0.54603 0.0
C100 C 0.42244 0.82566 0.53805 0.0
N101 N 0.44379 0.80138 0.53324 0.0
N102 N 0.39703 0.78005 0.54655 0.0
C103 C 0.42778 0.77397 0.53862 0.0
H104 H 0.37151 0.82548 0.54974 0.0
Co105 Co 0.36322 0.75252 0.55167 0.0
C106 C 0.38692 0.68563 0.53528 0.0
O107 O 0.36 0.67894 0.51641 0.0
N108 N 0.32807 0.7257 0.55798 0.0
C109 C 0.29642 0.69131 0.58312 0.0
C110 C 0.32732 0.70208 0.58123 0.0
C111 C 0.29717 0.72946 0.54706 0.0
N112 N 0.27742 0.70869 0.56159 0.0
O113 O 0.36906 0.75824 0.6037 0.0
H114 H 0.3478 0.6941 0.59708 0.0
H115 H 0.28876 0.74872 0.53116 0.0
O116 O 0.39201 0.71442 0.55006 0.0
C117 C 0.3519 0.78156 0.61679 0.0
O118 O 0.33488 0.79824 0.59403 0.0
N119 N 0.3562 0.75006 0.50055 0.0
C120 C 0.34463 0.76092 0.42704 0.0
C121 C 0.36934 0.74011 0.43757 0.0
C122 C 0.3752 0.73553 0.47458 0.0
C123 C 0.33317 0.77142 0.49081 0.0
C124 C 0.32637 0.7765 0.45439 0.0
H125 H 0.396 0.72172 0.48212 0.0
H126 H 0.32074 0.7857 0.5117 0.0
H127 H 0.43809 0.74992 0.5361 0.0
H128 H 0.42686 0.85099 0.53461 0.0
H129 H 0.28856 0.67297 0.60009 0.0
H130 H 0.38494 0.72861 0.41762 0.0
H131 H 0.30723 0.79304 0.44792 0.0
C132 C 0.70112 0.11025 0.92407 0.0
C133 C 0.68823 0.07956 0.92279 0.0
N134 N 0.71122 0.05924 0.93388 0.0
N135 N 0.73209 0.10914 0.93567 0.0
C136 C 0.73755 0.07777 0.94149 0.0
H137 H 0.68862 0.13207 0.91746 0.0
Co138 Co 0.75911 0.14452 0.9424 0.0
C139 C 0.82345 0.1173 0.95827 0.0
O140 O 0.82889 0.14115 0.98365 0.0
N141 N 0.786 0.18126 0.94818 0.0
C142 C 0.82281 0.21752 0.93655 0.0
C143 C 0.81207 0.18617 0.9288 0.0
C144 C 0.78094 0.2103 0.96667 0.0
N145 N 0.80299 0.23269 0.96024 0.0
O146 O 0.75889 0.1468 0.89058 0.0
H147 H 0.82188 0.16845 0.90905 0.0
H148 H 0.76077 0.21566 0.98336 0.0
O149 O 0.79664 0.11571 0.9401 0.0
C150 C 0.73966 0.16876 0.88084 0.0
O151 O 0.72447 0.18601 0.90631 0.0
N152 N 0.75607 0.1434 0.9934 0.0
C153 C 0.74509 0.15016 0.06791 0.0
C154 C 0.76475 0.12518 0.05344 0.0
C155 C 0.7695 0.12183 0.01587 0.0
C156 C 0.73406 0.16518 0.00661 0.0
C157 C 0.72888 0.16966 0.04381 0.0
H158 H 0.78371 0.10172 0.00524 0.0
H159 H 0.72073 0.17964 0.98802 0.0
H160 H 0.76033 0.06862 0.95122 0.0
H161 H 0.66364 0.07291 0.91535 0.0
H162 H 0.84251 0.22875 0.92412 0.0
H163 H 0.77677 0.10879 0.07101 0.0
H164 H 0.71227 0.18821 0.05364 0.0
C165 C 0.88799 0.7527 0.56655 0.0
C166 C 0.91719 0.73768 0.5697 0.0
N167 N 0.93957 0.75728 0.55789 0.0
N168 N 0.89202 0.78167 0.55306 0.0
C169 C 0.92363 0.78372 0.54768 0.0
H170 H 0.86523 0.74338 0.57401 0.0
Co171 Co 0.85903 0.81042 0.54577 0.0
C172 C 0.89275 0.87361 0.56646 0.0
O173 O 0.87203 0.8817 0.59151 0.0
N174 N 0.82467 0.83791 0.53689 0.0
C175 C 0.79092 0.87538 0.51789 0.0
C176 C 0.82201 0.8693 0.52923 0.0
C177 C 0.79535 0.82531 0.52841 0.0
N178 N 0.77433 0.8475 0.5172 0.0
O179 O 0.86274 0.8034 0.49403 0.0
H180 H 0.8414 0.88639 0.52902 0.0
H181 H 0.78983 0.79985 0.52944 0.0
O182 O 0.88967 0.84662 0.54697 0.0
C183 C 0.85068 0.77705 0.47907 0.0
O184 O 0.8389 0.7561 0.49994 0.0
N185 N 0.8541 0.81515 0.59715 0.0
C186 C 0.84674 0.80795 0.67162 0.0
C187 C 0.87604 0.8181 0.65896 0.0
C188 C 0.8794 0.82085 0.62166 0.0
C189 C 0.8255 0.80533 0.60904 0.0
C190 C 0.82124 0.80184 0.64592 0.0
H191 H 0.90282 0.82629 0.61237 0.0
H192 H 0.80627 0.79798 0.58981 0.0
H193 H 0.93485 0.80448 0.53739 0.0
H194 H 0.92159 0.71414 0.57978 0.0
H195 H 0.78169 0.89806 0.50901 0.0
H196 H 0.89658 0.82303 0.67746 0.0
H197 H 0.79854 0.79262 0.65374 0.0
C198 C 0.17125 0.91612 0.05571 0.0
C199 C 0.18195 0.94724 0.05431 0.0
N200 N 0.20544 0.9469 0.03036 0.0
N201 N 0.18779 0.89598 0.03277 0.0
C202 C 0.20877 0.9154 0.01779 0.0
H203 H 0.15211 0.9086 0.07201 0.0
Co204 Co 0.1775 0.85207 0.02574 0.0
C205 C 0.19362 0.83113 0.95059 0.0
O206 O 0.1651 0.81779 0.94605 0.0
N207 N 0.16676 0.80683 0.01986 0.0
C208 C 0.1422 0.75876 0.01027 0.0
C209 C 0.13889 0.79169 0.00876 0.0
C210 C 0.18664 0.78201 0.0274 0.0
N211 N 0.17226 0.75265 0.02227 0.0
O212 O 0.21522 0.84216 0.05433 0.0
H213 H 0.11737 0.80319 0.99909 0.0
H214 H 0.21126 0.78524 0.03698 0.0
O215 O 0.20178 0.84681 0.981 0.0
C216 C 0.21058 0.84653 0.08834 0.0
O217 O 0.18247 0.85703 0.09882 0.0
N218 N 0.13926 0.86408 1.00132 0.0
C219 C 0.08177 0.89431 0.98161 0.0
C220 C 0.10881 0.89602 0.96041 0.0
C221 C 0.13752 0.88124 0.97109 0.0
C222 C 0.1134 0.86271 0.02248 0.0
C223 C 0.0843 0.87683 0.01268 0.0
H224 H 0.15873 0.8855 0.95642 0.0
H225 H 0.1157 0.85122 0.04781 0.0
H226 H 0.22542 0.90685 0.99742 0.0
H227 H 0.17315 0.96855 0.06985 0.0
H228 H 0.12387 0.74074 1.00263 0.0
H229 H 0.10841 0.91029 0.93702 0.0
H230 H 0.06424 0.87482 0.03002 0.0
C231 C 0.11143 0.22899 0.56443 0.0
C232 C 0.07995 0.23688 0.56958 0.0
N233 N 0.06133 0.214 0.55103 0.0
N234 N 0.11293 0.20119 0.54277 0.0
C235 C 0.08201 0.19267 0.53478 0.0
H236 H 0.13203 0.24279 0.5756 0.0
Co237 Co 0.15139 0.18163 0.52921 0.0
C238 C 0.13769 0.11139 0.53056 0.0
O239 O 0.16567 0.10749 0.54733 0.0
N240 N 0.19069 0.16288 0.5144 0.0
C241 C 0.22589 0.13619 0.47912 0.0
C242 C 0.19425 0.1386 0.48791 0.0
C243 C 0.22053 0.17555 0.52003 0.0
N244 N 0.24241 0.15953 0.49944 0.0
O245 O 0.14302 0.19044 0.47996 0.0
H246 H 0.1748 0.12483 0.47393 0.0
H247 H 0.22596 0.19797 0.53608 0.0
O248 O 0.12946 0.13952 0.52136 0.0
C249 C 0.15317 0.21904 0.47655 0.0
O250 O 0.16157 0.23735 0.50628 0.0
N251 N 0.16117 0.17628 0.57855 0.0
C252 C 0.17702 0.18188 0.65299 0.0
C253 C 0.15205 0.16128 0.639 0.0
C254 C 0.14419 0.15907 0.60149 0.0
C255 C 0.18373 0.19805 0.5925 0.0
C256 C 0.19279 0.20048 0.62925 0.0
H257 H 0.12352 0.14493 0.59142 0.0
H258 H 0.19306 0.21548 0.57553 0.0
H259 H 0.07483 0.17122 0.51758 0.0
H260 H 0.07151 0.25836 0.58508 0.0
H261 H 0.23565 0.11946 0.45828 0.0
H262 H 0.13824 0.14785 0.65696 0.0
H263 H 0.21062 0.21836 0.63941 0.0
H264 H 0.26794 0.95077 0.01333 0.0
H265 H 0.29778 1.00081 0.00539 0.0
H266 H 0.21091 0.05643 0.0186 0.0
H267 H 0.18127 0.00687 0.02551 0.0
H268 H 0.24577 0.08045 0.96856 0.0
H269 H 0.26455 0.04554 0.09106 0.0
H270 H 0.28355 0.00715 0.13511 0.0
H271 H 0.37791 0.00941 0.09353 0.0
H272 H 0.35932 0.04754 0.04892 0.0
H273 H 0.27663 0.23463 0.05715 0.0
H274 H 0.26131 0.17941 0.03546 0.0
H275 H 0.36094 0.15229 0.03119 0.0
H276 H 0.37643 0.2078 0.05364 0.0
H277 H 0.32995 0.10986 0.06447 0.0
H278 H 0.31056 0.15789 0.95194 0.0
H279 H 0.28884 0.19831 0.9118 0.0
H280 H 0.19305 0.17284 0.93623 0.0
H281 H 0.2141 0.13285 0.97715 0.0
C282 C 0.25523 0.97364 0.01372 0.0
C283 C 0.22242 0.97503 0.02068 0.0
C284 C 0.27228 0.00221 0.00942 0.0
C285 C 0.25668 0.03249 0.01198 0.0
C286 C 0.22355 0.03346 0.01663 0.0
C287 C 0.20666 0.00512 0.02096 0.0
C288 C 0.27458 0.06363 0.01299 0.0
C289 C 0.26427 0.08694 0.98942 0.0
C290 C 0.29932 0.07182 0.03958 0.0
C291 C 0.31047 0.04899 0.06638 0.0
C292 C 0.28929 0.03764 0.09115 0.0
C293 C 0.29998 0.01597 0.11624 0.0
C294 C 0.33189 0.00576 0.11703 0.0
C295 C 0.35319 0.01727 0.09281 0.0
C296 C 0.34259 0.0389 0.06763 0.0
C297 C 0.29535 0.21719 0.05082 0.0
C298 C 0.3278 0.22569 0.05698 0.0
C299 C 0.28654 0.18551 0.03829 0.0
C300 C 0.30994 0.16166 0.031 0.0
C301 C 0.34242 0.17024 0.03644 0.0
C302 C 0.35125 0.20192 0.04934 0.0
C303 C 0.30026 0.12731 0.02091 0.0
C304 C 0.31216 0.10333 0.0428 0.0
C305 C 0.27669 0.11868 0.99299 0.0
C306 C 0.26398 0.14244 0.96784 0.0
C307 C 0.28487 0.16104 0.94895 0.0
C308 C 0.27266 0.1839 0.92606 0.0
C309 C 0.23959 0.18819 0.9216 0.0
C310 C 0.21866 0.16952 0.93979 0.0
C311 C 0.23072 0.14674 0.96282 0.0
H312 H 0.2301 0.20596 0.90409 0.0
H313 H 0.34013 0.98899 0.13648 0.0
H314 H 0.02096 0.2423 0.59974 0.0
H315 H 0.96354 0.24937 0.59137 0.0
H316 H 0.96454 0.1915 0.4884 0.0
H317 H 0.02274 0.18568 0.49589 0.0
H318 H 0.93317 0.24352 0.47881 0.0
H319 H 0.92478 0.16573 0.56417 0.0
H320 H 0.93501 0.13715 0.6197 0.0
H321 H 0.90345 0.22072 0.68562 0.0
H322 H 0.89362 0.25003 0.63056 0.0
H323 H 0.7621 0.26484 0.46678 0.0
H324 H 0.81379 0.23749 0.47454 0.0
H325 H 0.84132 0.30896 0.56215 0.0
H326 H 0.7897 0.33654 0.55428 0.0
H327 H 0.85431 0.24061 0.57545 0.0
H328 H 0.86923 0.31855 0.48471 0.0
H329 H 0.85519 0.34195 0.42665 0.0
H330 H 0.87064 0.24946 0.368 0.0
H331 H 0.88437 0.22541 0.42582 0.0
C332 C 0.00909 0.23098 0.57529 0.0
C333 C 0.02672 0.21397 0.54816 0.0
C334 C 0.97598 0.23459 0.5708 0.0
C335 C 0.95943 0.22084 0.53933 0.0
C336 C 0.9767 0.20243 0.51293 0.0
C337 C 0.01001 0.19895 0.51733 0.0
C338 C 0.92499 0.22886 0.53256 0.0
C339 C 0.91583 0.24208 0.49972 0.0
C340 C 0.90212 0.22732 0.55977 0.0
C341 C 0.9088 0.2102 0.59319 0.0
C342 C 0.92044 0.17817 0.59054 0.0
C343 C 0.92608 0.16181 0.62193 0.0
C344 C 0.91999 0.17715 0.65617 0.0
C345 C 0.90823 0.20889 0.65909 0.0
C346 C 0.90261 0.22539 0.62778 0.0
C347 C 0.77907 0.27451 0.48791 0.0
C348 C 0.77195 0.30285 0.50992 0.0
C349 C 0.80858 0.25895 0.49222 0.0
C350 C 0.83133 0.27124 0.51889 0.0
C351 C 0.82402 0.29909 0.54146 0.0
C352 C 0.7947 0.31495 0.53678 0.0
C353 C 0.86328 0.25588 0.52244 0.0
C354 C 0.87177 0.2414 0.55456 0.0
C355 C 0.88529 0.25553 0.49432 0.0
C356 C 0.87748 0.27012 0.45959 0.0
C357 C 0.86939 0.30315 0.45945 0.0
C358 C 0.86154 0.31654 0.42659 0.0
C359 C 0.86193 0.29718 0.39367 0.0
C360 C 0.8703 0.26441 0.39353 0.0
C361 C 0.87814 0.2509 0.42633 0.0
H362 H 0.85583 0.30759 0.36825 0.0
H363 H 0.92428 0.16441 0.68044 0.0
H364 H 0.67239 0.01614 0.89443 0.0
H365 H 0.66459 0.95903 0.9048 0.0
H366 H 0.73413 0.96869 0.99512 0.0
H367 H 0.74236 0.02551 0.9844 0.0
H368 H 0.74189 0.91318 0.9588 0.0
H369 H 0.65213 0.97164 0.00767 0.0
H370 H 0.60537 0.00812 0.00658 0.0
H371 H 0.55891 0.94417 0.92284 0.0
H372 H 0.60561 0.9075 0.92312 0.0
H373 H 0.64807 0.79152 0.0586 0.0
H374 H 0.65305 0.84526 0.03713 0.0
H375 H 0.69656 0.80383 0.93989 0.0
H376 H 0.69091 0.74959 0.96065 0.0
H377 H 0.63202 0.8745 0.97786 0.0
H378 H 0.7619 0.85942 0.92583 0.0
H379 H 0.81075 0.82752 0.93695 0.0
H380 H 0.77912 0.80887 0.04264 0.0
H381 H 0.73072 0.84162 0.03269 0.0
C382 C 0.68597 0.00601 0.91646 0.0
C383 C 0.70778 0.0253 0.93878 0.0
C384 C 0.68152 0.97342 0.92237 0.0
C385 C 0.69836 0.95974 0.95113 0.0
C386 C 0.72085 0.97872 0.97277 0.0
C387 C 0.72557 0.01119 0.9666 0.0
C388 C 0.69193 0.92596 0.95951 0.0
C389 C 0.71785 0.9046 0.96267 0.0
C390 C 0.66061 0.91505 0.96534 0.0
C391 C 0.6325 0.93703 0.96514 0.0
C392 C 0.63204 0.96549 0.98884 0.0
C393 C 0.60554 0.98618 0.98839 0.0
C394 C 0.57923 0.97852 0.96458 0.0
C395 C 0.57934 0.9501 0.94123 0.0
C396 C 0.6058 0.92935 0.94153 0.0
C397 C 0.65796 0.79351 0.03222 0.0
C398 C 0.66947 0.76605 0.01164 0.0
C399 C 0.66091 0.82439 0.02006 0.0
C400 C 0.67563 0.82851 0.98725 0.0
C401 C 0.68561 0.80115 0.96562 0.0
C402 C 0.68246 0.77017 0.97764 0.0
C403 C 0.68196 0.86163 0.97686 0.0
C404 C 0.656 0.88288 0.97335 0.0
C405 C 0.7134 0.87271 0.9719 0.0
C406 C 0.74222 0.85238 0.97805 0.0
C407 C 0.7653 0.8484 0.95135 0.0
C408 C 0.79301 0.8303 0.95755 0.0
C409 C 0.79791 0.81596 0.99037 0.0
C410 C 0.77519 0.81981 0.01713 0.0
C411 C 0.7476 0.83818 0.01121 0.0
H412 H 0.81942 0.80206 0.99521 0.0
H413 H 0.55872 0.99456 0.96429 0.0
H414 H 0.98128 0.77923 0.51121 0.0
H415 H 0.03901 0.769 0.5108 0.0
H416 H 0.03228 0.71226 0.60338 0.0
H417 H 0.97476 0.72274 0.60426 0.0
H418 H 0.08272 0.75562 0.61071 0.0
H419 H 0.03845 0.67438 0.52114 0.0
H420 H 0.00623 0.65488 0.46607 0.0
H421 H 0.06331 0.71182 0.40085 0.0
H422 H 0.0956 0.73201 0.45566 0.0
H423 H 0.23607 0.6856 0.60852 0.0
H424 H 0.17803 0.69095 0.60624 0.0
H425 H 0.18207 0.73846 0.50652 0.0
H426 H 0.23994 0.73164 0.50748 0.0
H427 H 0.13259 0.69964 0.5029 0.0
H428 H 0.17634 0.78187 0.59083 0.0
H429 H 0.20838 0.80332 0.64528 0.0
H430 H 0.15263 0.7473 0.71275 0.0
H431 H 0.12051 0.72515 0.65864 0.0
C432 C 0.99216 0.76477 0.53159 0.0
C433 C 0.9735 0.7516 0.55762 0.0
C434 C 0.02505 0.75879 0.53119 0.0
C435 C 0.03973 0.73967 0.55689 0.0
C436 C 0.02128 0.72697 0.58326 0.0
C437 C 0.98842 0.73274 0.58352 0.0
C438 C 0.07441 0.73286 0.55642 0.0
C439 C 0.09364 0.74303 0.58735 0.0
C440 C 0.08856 0.71715 0.52554 0.0
C441 C 0.06923 0.70495 0.49256 0.0
C442 C 0.04396 0.68295 0.49511 0.0
C443 C 0.02572 0.67173 0.46393 0.0
C444 C 0.03266 0.68217 0.42999 0.0
C445 C 0.05792 0.70379 0.42716 0.0
C446 C 0.07622 0.7151 0.45826 0.0
C447 C 0.22471 0.6967 0.58576 0.0
C448 C 0.24292 0.70884 0.55861 0.0
C449 C 0.19147 0.70003 0.5847 0.0
C450 C 0.17584 0.71588 0.55673 0.0
C451 C 0.19369 0.72649 0.5286 0.0
C452 C 0.22687 0.72288 0.52944 0.0
C453 C 0.14104 0.72235 0.55726 0.0
C454 C 0.12175 0.7122 0.52632 0.0
C455 C 0.12687 0.73837 0.58804 0.0
C456 C 0.14617 0.75166 0.62063 0.0
C457 C 0.17104 0.77396 0.61725 0.0
C458 C 0.18917 0.78629 0.64805 0.0
C459 C 0.1825 0.77672 0.68245 0.0
C460 C 0.15774 0.75472 0.6861 0.0
C461 C 0.13954 0.7423 0.65537 0.0
H462 H 0.1965 0.78635 0.70628 0.0
H463 H 0.01852 0.67345 0.40589 0.0
H464 H 0.83238 0.54196 0.04324 0.0
H465 H 0.84067 0.48354 0.03185 0.0
H466 H 0.73872 0.46777 0.03284 0.0
H467 H 0.73031 0.52606 0.04539 0.0
H468 H 0.77195 0.42416 0.07098 0.0
H469 H 0.77629 0.46689 0.95308 0.0
H470 H 0.79638 0.50281 0.90885 0.0
H471 H 0.89106 0.46404 0.92341 0.0
H472 H 0.87159 0.42818 0.96812 0.0
H473 H 0.75149 0.26987 0.97766 0.0
H474 H 0.75131 0.32741 0.99788 0.0
H475 H 0.85403 0.33074 0.99094 0.0
H476 H 0.85439 0.27272 0.97068 0.0
H477 H 0.82563 0.38049 0.9597 0.0
H478 H 0.82043 0.33405 0.07352 0.0
H479 H 0.80025 0.29762 0.11715 0.0
H480 H 0.7078 0.34284 0.11077 0.0
H481 H 0.72727 0.37923 0.06666 0.0
C482 C 0.81174 0.52607 0.04141 0.0
C483 C 0.78066 0.53872 0.04505 0.0
C484 C 0.81651 0.4927 0.03462 0.0
C485 C 0.79028 0.47138 0.03115 0.0
C486 C 0.75928 0.48384 0.03533 0.0
C487 C 0.75449 0.5172 0.04212 0.0
C488 C 0.795 0.43609 0.02261 0.0
C489 C 0.78344 0.41455 0.04651 0.0
C490 C 0.81087 0.4237 0.99124 0.0
C491 C 0.82256 0.44512 0.96423 0.0
C492 C 0.80144 0.46621 0.94706 0.0
C493 C 0.81271 0.48652 0.92187 0.0
C494 C 0.84499 0.48578 0.91341 0.0
C495 C 0.86606 0.46463 0.93004 0.0
C496 C 0.85493 0.44429 0.95529 0.0
C497 C 0.77415 0.28259 0.98102 0.0
C498 C 0.80303 0.26661 0.97287 0.0
C499 C 0.77399 0.31557 0.99253 0.0
C500 C 0.80271 0.33324 0.99645 0.0
C501 C 0.83161 0.31748 0.9882 0.0
C502 C 0.83178 0.28441 0.97655 0.0
C503 C 0.80213 0.36846 0.00778 0.0
C504 C 0.81447 0.39003 0.98442 0.0
C505 C 0.78702 0.38087 0.03969 0.0
C506 C 0.77528 0.35923 0.06654 0.0
C507 C 0.79573 0.33609 0.08122 0.0
C508 C 0.78443 0.31546 0.10607 0.0
C509 C 0.75275 0.31787 0.11667 0.0
C510 C 0.73233 0.34099 0.10252 0.0
C511 C 0.74351 0.36166 0.07762 0.0
H512 H 0.74404 0.30185 0.13589 0.0
H513 H 0.85367 0.50153 0.8939 0.0
H514 H 0.47885 0.75574 0.49544 0.0
H515 H 0.53476 0.76041 0.47941 0.0
H516 H 0.5383 0.85802 0.53087 0.0
H517 H 0.48264 0.85347 0.54725 0.0
H518 H 0.56807 0.85231 0.46481 0.0
H519 H 0.56596 0.79544 0.57618 0.0
H520 H 0.54854 0.75057 0.61099 0.0
H521 H 0.59058 0.68137 0.53365 0.0
H522 H 0.60793 0.72586 0.49815 0.0
H523 H 0.72592 0.89048 0.52506 0.0
H524 H 0.66891 0.87937 0.51338 0.0
H525 H 0.69076 0.7811 0.47308 0.0
H526 H 0.7478 0.79209 0.48514 0.0
H527 H 0.64761 0.78033 0.52132 0.0
H528 H 0.65772 0.836 0.4151 0.0
H529 H 0.67406 0.87929 0.37745 0.0
H530 H 0.61732 0.9483 0.4401 0.0
H531 H 0.60079 0.90551 0.47831 0.0
C532 C 0.49158 0.77812 0.50351 0.0
C533 C 0.4764 0.80416 0.52291 0.0
C534 C 0.52341 0.78082 0.49408 0.0
C535 C 0.54059 0.80951 0.50412 0.0
C536 C 0.52531 0.83577 0.52267 0.0
C537 C 0.49353 0.83311 0.53204 0.0
C538 C 0.57506 0.81179 0.49745 0.0
C539 C 0.58558 0.83669 0.47716 0.0
C540 C 0.59762 0.79054 0.51245 0.0
C541 C 0.58793 0.76392 0.53433 0.0
C542 C 0.57136 0.77065 0.56653 0.0
C543 C 0.56151 0.74529 0.58638 0.0
C544 C 0.56835 0.71314 0.57446 0.0
C545 C 0.58524 0.70629 0.5428 0.0
C546 C 0.59511 0.73155 0.52283 0.0
C547 C 0.71858 0.86675 0.51299 0.0
C548 C 0.74121 0.84207 0.50642 0.0
C549 C 0.68601 0.86042 0.50617 0.0
C550 C 0.67557 0.82942 0.49209 0.0
C551 C 0.69827 0.80513 0.48408 0.0
C552 C 0.73081 0.81139 0.49118 0.0
C553 C 0.64095 0.82162 0.48951 0.0
C554 C 0.63029 0.79562 0.50814 0.0
C555 C 0.6183 0.84164 0.47257 0.0
C556 C 0.62817 0.86755 0.44972 0.0
C557 C 0.64889 0.86045 0.42101 0.0
C558 C 0.65815 0.88489 0.39954 0.0
C559 C 0.64681 0.91653 0.40646 0.0
C560 C 0.62609 0.92378 0.43479 0.0
C561 C 0.6167 0.89942 0.4563 0.0
H562 H 0.65404 0.93542 0.38982 0.0
H563 H 0.56061 0.69355 0.58977 0.0
H564 H 0.31489 0.48377 0.10066 0.0
H565 H 0.30306 0.53813 0.08103 0.0
H566 H 0.20231 0.52202 0.09334 0.0
H567 H 0.21389 0.468 0.11254 0.0
H568 H 0.21478 0.54699 0.02819 0.0
H569 H 0.24391 0.56822 0.15651 0.0
H570 H 0.27965 0.56714 0.21141 0.0
H571 H 0.35055 0.62131 0.1609 0.0
H572 H 0.31538 0.6223 0.10544 0.0
H573 H 0.13985 0.69893 0.03738 0.0
H574 H 0.16215 0.64641 0.05011 0.0
H575 H 0.25748 0.68254 0.03791 0.0
H576 H 0.23528 0.73535 0.02465 0.0
H577 H 0.25455 0.64797 0.09756 0.0
H578 H 0.22378 0.6316 0.97161 0.0
H579 H 0.1882 0.63329 0.91667 0.0
H580 H 0.12149 0.57013 0.96141 0.0
H581 H 0.15644 0.56843 0.01689 0.0
C582 C 0.29026 0.49188 0.09907 0.0
C583 C 0.26536 0.4717 0.10841 0.0
C584 C 0.28355 0.52294 0.08805 0.0
C585 C 0.2518 0.53414 0.08589 0.0
C586 C 0.22697 0.51388 0.09485 0.0
C587 C 0.23366 0.4831 0.10616 0.0
C588 C 0.24402 0.56686 0.07416 0.0
C589 C 0.22333 0.56908 0.04346 0.0
C590 C 0.25602 0.59565 0.0934 0.0
C591 C 0.2772 0.59495 0.12665 0.0
C592 C 0.26726 0.57961 0.15696 0.0
C593 C 0.28738 0.57907 0.18821 0.0
C594 C 0.3174 0.59404 0.18959 0.0
C595 C 0.32733 0.60965 0.15975 0.0
C596 C 0.30731 0.61021 0.12841 0.0
C597 C 0.16552 0.69574 0.03684 0.0
C598 C 0.18567 0.72147 0.02963 0.0
C599 C 0.17827 0.66563 0.04427 0.0
C600 C 0.21147 0.66038 0.04448 0.0
C601 C 0.23178 0.68604 0.03782 0.0
C602 C 0.21901 0.71626 0.03033 0.0
C603 C 0.22464 0.62809 0.05209 0.0
C604 C 0.24637 0.62592 0.08194 0.0
C605 C 0.21372 0.59928 0.03195 0.0
C606 C 0.19265 0.60008 0.99854 0.0
C607 C 0.20141 0.61825 0.96986 0.0
C608 C 0.18137 0.61918 0.9386 0.0
C609 C 0.15258 0.60188 0.93558 0.0
C610 C 0.1438 0.58354 0.96379 0.0
C611 C 0.16374 0.58255 0.99514 0.0
H612 H 0.13709 0.60263 0.91135 0.0
H613 H 0.33293 0.59363 0.21383 0.0
H614 H 0.27864 0.15094 0.43987 0.0
H615 H 0.33364 0.16927 0.4346 0.0
H616 H 0.3364 0.2072 0.54739 0.0
H617 H 0.28125 0.18908 0.5527 0.0
H618 H 0.36005 0.25022 0.50715 0.0
H619 H 0.37694 0.13679 0.51832 0.0
H620 H 0.36875 0.07806 0.50334 0.0
H621 H 0.39955 0.08693 0.39485 0.0
H622 H 0.40752 0.14582 0.40902 0.0
H623 H 0.52879 0.28069 0.51733 0.0
H624 H 0.47655 0.25708 0.52824 0.0
H625 H 0.46396 0.22675 0.41366 0.0
H626 H 0.51608 0.25003 0.40273 0.0
H627 H 0.4464 0.17908 0.45761 0.0
H628 H 0.42736 0.2931 0.44675 0.0
H629 H 0.43589 0.3517 0.46247 0.0
H630 H 0.40957 0.34101 0.57229 0.0
H631 H 0.40133 0.28223 0.55734 0.0
C632 C 0.29111 0.16265 0.46373 0.0
C633 C 0.27553 0.16849 0.49675 0.0
C634 C 0.3226 0.17318 0.46067 0.0
C635 C 0.33936 0.18936 0.49071 0.0
C636 C 0.32398 0.19486 0.52381 0.0
C637 C 0.29244 0.18452 0.52681 0.0
C638 C 0.37252 0.20149 0.4873 0.0
C639 C 0.37905 0.23449 0.49694 0.0
C640 C 0.39723 0.1812 0.47323 0.0
C641 C 0.39256 0.14577 0.46465 0.0
C642 C 0.38174 0.12626 0.49118 0.0
C643 C 0.37717 0.09293 0.48285 0.0
C644 C 0.38355 0.07878 0.44814 0.0
C645 C 0.39459 0.09793 0.42171 0.0
C646 C 0.39917 0.13128 0.42989 0.0
C647 C 0.51502 0.26864 0.4946 0.0
C648 C 0.52643 0.26738 0.45914 0.0
C649 C 0.48512 0.25537 0.5008 0.0
C650 C 0.46624 0.24042 0.47169 0.0
C651 C 0.47807 0.23825 0.4365 0.0
C652 C 0.50774 0.25176 0.43025 0.0
C653 C 0.43381 0.22767 0.47753 0.0
C654 C 0.42742 0.19464 0.46819 0.0
C655 C 0.40928 0.24786 0.49206 0.0
C656 C 0.41411 0.28321 0.50104 0.0
C657 C 0.42367 0.3032 0.47434 0.0
C658 C 0.4284 0.33645 0.48309 0.0
C659 C 0.42338 0.35005 0.51839 0.0
C660 C 0.41351 0.33043 0.54497 0.0
C661 C 0.4088 0.29715 0.53637 0.0
H662 H 0.42706 0.3758 0.52511 0.0
H663 H 0.38 0.05298 0.44174 0.0
H664 H 0.62965 0.52956 0.05304 0.0
H665 H 0.58362 0.49499 0.06099 0.0
H666 H 0.55275 0.5623 0.14833 0.0
H667 H 0.59946 0.59693 0.14078 0.0
H668 H 0.54185 0.49931 0.1626 0.0
H669 H 0.51838 0.56497 0.06472 0.0
H670 H 0.52789 0.59024 0.00779 0.0
H671 H 0.53065 0.49609 0.94928 0.0
H672 H 0.52166 0.4702 0.00599 0.0
H673 H 0.38372 0.42437 0.13933 0.0
H674 H 0.42731 0.46451 0.14542 0.0
H675 H 0.47842 0.40793 0.06304 0.0
H676 H 0.43546 0.36795 0.05688 0.0
H677 H 0.47405 0.47255 0.05029 0.0
H678 H 0.50168 0.40762 0.15104 0.0
H679 H 0.49156 0.38356 0.20856 0.0
H680 H 0.47856 0.47868 0.26209 0.0
H681 H 0.48818 0.50329 0.2047 0.0
C682 C 0.61322 0.53685 0.07419 0.0
C683 C 0.61786 0.56613 0.09598 0.0
C684 C 0.58689 0.51712 0.07867 0.0
C685 C 0.56428 0.52644 0.10465 0.0
C686 C 0.56977 0.55475 0.12793 0.0
C687 C 0.59643 0.57446 0.12366 0.0
C688 C 0.53429 0.50726 0.1058 0.0
C689 C 0.52669 0.49391 0.13822 0.0
C690 C 0.51446 0.50017 0.074 0.0
C691 C 0.51956 0.51563 0.03969 0.0
C692 C 0.52122 0.54963 0.03977 0.0
C693 C 0.5265 0.56407 0.00753 0.0
C694 C 0.52993 0.54478 0.97496 0.0
C695 C 0.528 0.511 0.97454 0.0
C696 C 0.52278 0.49643 0.00672 0.0
C697 C 0.40436 0.4204 0.12271 0.0
C698 C 0.40604 0.39292 0.09758 0.0
C699 C 0.42926 0.44332 0.12628 0.0
C700 C 0.45613 0.43918 0.10469 0.0
C701 C 0.45788 0.41167 0.07989 0.0
C702 C 0.43326 0.38876 0.07649 0.0
C703 C 0.48225 0.46369 0.10669 0.0
C704 C 0.48899 0.47824 0.07479 0.0
C705 C 0.50097 0.47206 0.13903 0.0
C706 C 0.49526 0.45727 0.17349 0.0
C707 C 0.49637 0.42339 0.17499 0.0
C708 C 0.49079 0.40965 0.20758 0.0
C709 C 0.48432 0.42957 0.23893 0.0
C710 C 0.48351 0.46328 0.23777 0.0
C711 C 0.48904 0.47713 0.20523 0.0
H712 H 0.48001 0.41889 0.26415 0.0
H713 H 0.53402 0.556 0.95002 0.0
H714 H 0.5327 0.41386 0.53569 0.0
H715 H 0.50026 0.46305 0.54345 0.0
H716 H 0.58437 0.52188 0.53561 0.0
H717 H 0.61716 0.47269 0.52844 0.0
H718 H 0.54214 0.54839 0.58822 0.0
H719 H 0.53883 0.50698 0.46206 0.0
H720 H 0.53108 0.46455 0.41133 0.0
H721 H 0.43359 0.45191 0.43987 0.0
H722 H 0.44091 0.49399 0.49109 0.0
H723 H 0.45229 0.69093 0.54709 0.0
H724 H 0.49115 0.64636 0.54872 0.0
H725 H 0.41363 0.57693 0.53497 0.0
H726 H 0.37526 0.62106 0.53159 0.0
H727 H 0.45661 0.55769 0.49207 0.0
H728 H 0.45928 0.59746 0.61921 0.0
H729 H 0.46668 0.63865 0.67126 0.0
H730 H 0.56388 0.65351 0.643 0.0
H731 H 0.55689 0.6128 0.59039 0.0
C732 C 0.54447 0.43724 0.53648 0.0
C733 C 0.57751 0.43933 0.53123 0.0
C734 C 0.52584 0.46535 0.54066 0.0
C735 C 0.53985 0.49612 0.53964 0.0
C736 C 0.57307 0.4984 0.53637 0.0
C737 C 0.59171 0.47026 0.53202 0.0
C738 C 0.51942 0.52558 0.53917 0.0
C739 C 0.52362 0.55068 0.56705 0.0
C740 C 0.49511 0.52838 0.51172 0.0
C741 C 0.4905 0.50345 0.48057 0.0
C742 C 0.5158 0.49502 0.45764 0.0
C743 C 0.51148 0.47105 0.42879 0.0
C744 C 0.48188 0.4555 0.42242 0.0
C745 C 0.45651 0.46396 0.44484 0.0
C746 C 0.46072 0.4879 0.47376 0.0
C747 C 0.44366 0.66613 0.54465 0.0
C748 C 0.41077 0.65945 0.53899 0.0
C749 C 0.46585 0.64063 0.54575 0.0
C750 C 0.45542 0.60809 0.54221 0.0
C751 C 0.42245 0.60168 0.53748 0.0
C752 C 0.40046 0.62699 0.53562 0.0
C753 C 0.47842 0.5804 0.54187 0.0
C754 C 0.47498 0.5556 0.51346 0.0
C755 C 0.5032 0.57788 0.56903 0.0
C756 C 0.50745 0.60232 0.60066 0.0
C757 C 0.48215 0.6097 0.62393 0.0
C758 C 0.48628 0.63295 0.65354 0.0
C759 C 0.5157 0.64877 0.66035 0.0
C760 C 0.54108 0.6413 0.63764 0.0
C761 C 0.53706 0.61814 0.60792 0.0
H762 H 0.51885 0.66676 0.68329 0.0
H763 H 0.47858 0.43693 0.40009 0.0
H764 H 0.05291 0.90342 0.91454 0.0
H765 H 0.00502 0.93569 0.90174 0.0
H766 H 0.99555 0.95925 0.01703 0.0
H767 H 0.04337 0.92779 0.03 0.0
H768 H 0.93787 0.94399 0.98329 0.0
H769 H 0.02883 0.01237 0.96477 0.0
H770 H 0.0789 0.02629 0.93651 0.0
H771 H 0.03064 0.0185 0.83087 0.0
H772 H 0.98035 0.00409 0.85851 0.0
H773 H 0.86808 0.09992 0.00873 0.0
H774 H 0.9068 0.05564 1.00288 0.0
H775 H 0.87146 0.03016 0.89262 0.0
H776 H 0.83163 0.07414 0.89862 0.0
H777 H 0.94639 0.04034 0.91224 0.0
H778 H 0.85298 0.979 0.93314 0.0
H779 H 0.80316 0.96766 0.96337 0.0
H780 H 0.85602 0.96369 0.06544 0.0
H781 H 0.90611 0.97558 0.03594 0.0
C782 C 0.04066 0.91554 0.93715 0.0
C783 C 0.05201 0.91281 0.97332 0.0
C784 C 0.01322 0.93386 0.92979 0.0
C785 C 0.99669 0.94991 0.95844 0.0
C786 C 0.00769 0.94682 0.99449 0.0
C787 C 0.03506 0.92866 1.00185 0.0
C788 C 0.96867 0.97106 0.95132 0.0
C789 C 0.93973 0.96498 0.96765 0.0
C790 C 0.97078 0.99807 0.93022 0.0
C791 C 0.00097 0.00673 0.91363 0.0
C792 C 0.02898 0.01334 0.93548 0.0
C793 C 0.05738 0.02137 0.91959 0.0
C794 C 0.05798 0.02317 0.8819 0.0
C795 C 0.03015 0.01702 0.86005 0.0
C796 C 0.0017 0.00892 0.8758 0.0
C797 C 0.86849 0.08496 0.98318 0.0
C798 C 0.84691 0.09056 0.95406 0.0
C799 C 0.89055 0.05962 0.97996 0.0
C800 C 0.89188 0.03971 0.94738 0.0
C801 C 0.87068 0.04533 0.91799 0.0
C802 C 0.84799 0.07033 0.92148 0.0
C803 C 0.91599 0.01344 0.94465 0.0
C804 C 0.94427 0.01875 0.92687 0.0
C805 C 0.9133 0.98577 0.96443 0.0
C806 C 0.88328 0.9785 0.98237 0.0
C807 C 0.85395 0.97606 0.96211 0.0
C808 C 0.82566 0.96945 0.97909 0.0
C809 C 0.82642 0.96503 0.01631 0.0
C810 C 0.85548 0.96715 0.03661 0.0
C811 C 0.88383 0.97379 0.01976 0.0
H812 H 0.8045 0.9599 0.02941 0.0
H813 H 0.07999 0.02941 0.86965 0.0
H814 H 0.92989 0.8737 0.50681 0.0
H815 H 0.97109 0.9132 0.49541 0.0
H816 H 0.95557 0.96461 0.59999 0.0
H817 H 0.91359 0.92607 0.6108 0.0
H818 H 0.96235 0.00681 0.5539 0.0
H819 H 0.02087 0.91172 0.58312 0.0
H820 H 0.0358 0.85379 0.57702 0.0
H821 H 0.0636 0.8629 0.46743 0.0
H822 H 0.04835 0.92078 0.47267 0.0
H823 H 0.14146 0.05448 0.56311 0.0
H824 H 0.10032 0.01286 0.56369 0.0
H825 H 0.03993 0.06468 0.49023 0.0
H826 H 0.08061 0.10726 0.49078 0.0
H827 H 0.07084 0.97083 0.51852 0.0
H828 H 0.96335 0.05823 0.51005 0.0
H829 H 0.95266 0.11679 0.52292 0.0
H830 H 0.02782 0.12291 0.60634 0.0
H831 H 0.03868 0.06439 0.59431 0.0
C832 C 0.93531 0.89341 0.52737 0.0
C833 C 0.9185 0.89671 0.55974 0.0
C834 C 0.95895 0.91596 0.52088 0.0
C835 C 0.96678 0.94182 0.54699 0.0
C836 C 0.94995 0.94505 0.5793 0.0
C837 C 0.92602 0.92286 0.58554 0.0
C838 C 0.9926 0.96542 0.54103 0.0
C839 C 0.98601 0.99885 0.54604 0.0
C840 C 0.02375 0.95527 0.5313 0.0
C841 C 0.03316 0.92051 0.52817 0.0
C842 C 0.02995 0.90132 0.55763 0.0
C843 C 0.03849 0.8685 0.55434 0.0
C844 C 0.05057 0.85467 0.52183 0.0
C845 C 0.05419 0.87364 0.49257 0.0
C846 C 0.04562 0.90646 0.49569 0.0
C847 C 0.11956 0.05694 0.54679 0.0
C848 C 0.11417 0.08441 0.52722 0.0
C849 C 0.09605 0.03299 0.54704 0.0
C850 C 0.06673 0.0358 0.52751 0.0
C851 C 0.06204 0.06228 0.50621 0.0
C852 C 0.08537 0.08656 0.50641 0.0
C853 C 0.04055 0.01207 0.53143 0.0
C854 C 0.04706 0.97869 0.52603 0.0
C855 C 0.00968 0.02223 0.5421 0.0
C856 C 0.002 0.05701 0.551 0.0
C857 C 0.97739 0.07203 0.53134 0.0
C858 C 0.97136 0.10522 0.53843 0.0
C859 C 0.98968 0.12356 0.56528 0.0
C860 C 0.01376 0.1087 0.58544 0.0
C861 C 0.01984 0.07553 0.57852 0.0
H862 H 0.9852 0.14928 0.57054 0.0
H863 H 0.05722 0.82928 0.51936 0.0
H864 H 0.29114 0.25827 0.1791 0.0
H865 H 0.27065 0.23984 0.23497 0.0
H866 H 0.27449 0.3381 0.28467 0.0
H867 H 0.29598 0.35654 0.22868 0.0
H868 H 0.28725 0.29242 0.3347 0.0
H869 H 0.20715 0.31148 0.24154 0.0
H870 H 0.18248 0.30561 0.17934 0.0
H871 H 0.17312 0.20285 0.18605 0.0
H872 H 0.19823 0.20804 0.24812 0.0
H873 H 0.16672 0.28014 0.46038 0.0
H874 H 0.19466 0.29605 0.40784 0.0
H875 H 0.19186 0.19694 0.36086 0.0
H876 H 0.16379 0.1807 0.41371 0.0
H877 H 0.17991 0.24205 0.31003 0.0
H878 H 0.25657 0.22512 0.4072 0.0
H879 H 0.28112 0.23302 0.4693 0.0
H880 H 0.29722 0.33362 0.45557 0.0
H881 H 0.2716 0.32682 0.39387 0.0
C882 C 0.28862 0.27574 0.20242 0.0
C883 C 0.29492 0.30878 0.19977 0.0
C884 C 0.27675 0.26524 0.23419 0.0
C885 C 0.27025 0.28774 0.26354 0.0
C886 C 0.27919 0.3204 0.26218 0.0
C887 C 0.29158 0.33089 0.23036 0.0
C888 C 0.25099 0.27766 0.29355 0.0
C889 C 0.26364 0.28176 0.32947 0.0
C890 C 0.22037 0.26325 0.28647 0.0
C891 C 0.20484 0.26011 0.24934 0.0
C892 C 0.20002 0.2876 0.22966 0.0
C893 C 0.18595 0.2844 0.19444 0.0
C894 C 0.17631 0.25387 0.17872 0.0
C895 C 0.18064 0.22648 0.19824 0.0
C896 C 0.19478 0.22954 0.23346 0.0
C897 C 0.17149 0.26178 0.43856 0.0
C898 C 0.16322 0.22913 0.44123 0.0
C899 C 0.18767 0.2709 0.4087 0.0
C900 C 0.19601 0.24754 0.38098 0.0
C901 C 0.18586 0.21527 0.38223 0.0
C902 C 0.16962 0.20607 0.41225 0.0
C903 C 0.21611 0.25681 0.35133 0.0
C904 C 0.20356 0.2526 0.31539 0.0
C905 C 0.24668 0.27138 0.35854 0.0
C906 C 0.26181 0.27552 0.39591 0.0
C907 C 0.26495 0.24905 0.41751 0.0
C908 C 0.27915 0.25329 0.45264 0.0
C909 C 0.29084 0.28369 0.46631 0.0
C910 C 0.28816 0.31005 0.44495 0.0
C911 C 0.27371 0.30605 0.40992 0.0
H912 H 0.30197 0.28682 0.49345 0.0
H913 H 0.16542 0.25144 0.15144 0.0
H914 H 0.7592 0.13318 0.8188 0.0
H915 H 0.74424 0.14261 0.75511 0.0
H916 H 0.69039 0.2272 0.79249 0.0
H917 H 0.70477 0.21793 0.85526 0.0
H918 H 0.65567 0.18936 0.74373 0.0
H919 H 0.76431 0.23181 0.75662 0.0
H920 H 0.82295 0.22895 0.76643 0.0
H921 H 0.82824 0.15776 0.67515 0.0
H922 H 0.76949 0.15978 0.6652 0.0
H923 H 0.64587 0.30888 0.62096 0.0
H924 H 0.65768 0.2734 0.66959 0.0
H925 H 0.68573 0.19717 0.5902 0.0
H926 H 0.67319 0.23276 0.54092 0.0
H927 H 0.73223 0.21394 0.65047 0.0
H928 H 0.62325 0.1819 0.6313 0.0
H929 H 0.56521 0.18987 0.62088 0.0
H930 H 0.56109 0.24552 0.72429 0.0
H931 H 0.6192 0.23833 0.73511 0.0
C932 C 0.74434 0.15386 0.81328 0.0
C933 C 0.73302 0.17468 0.84211 0.0
C934 C 0.73583 0.15922 0.77694 0.0
C935 C 0.71601 0.18552 0.76904 0.0
C936 C 0.70538 0.20655 0.79786 0.0
C937 C 0.71375 0.20123 0.83385 0.0
C938 C 0.70546 0.1916 0.73115 0.0
C939 C 0.67244 0.1946 0.72329 0.0
C940 C 0.72726 0.19732 0.70395 0.0
C941 C 0.76245 0.19552 0.71057 0.0
C942 C 0.77791 0.2152 0.73896 0.0
C943 C 0.81119 0.2138 0.74448 0.0
C944 C 0.8293 0.19307 0.72153 0.0
C945 C 0.81416 0.1737 0.693 0.0
C946 C 0.78088 0.17493 0.68744 0.0
C947 C 0.65388 0.28431 0.61378 0.0
C948 C 0.65845 0.27343 0.57728 0.0
C949 C 0.66063 0.26407 0.64156 0.0
C950 C 0.67253 0.23266 0.63347 0.0
C951 C 0.67644 0.22131 0.59691 0.0
C952 C 0.66903 0.24148 0.56887 0.0
C953 C 0.68263 0.21313 0.66396 0.0
C954 C 0.71546 0.2076 0.67045 0.0
C955 C 0.66074 0.20542 0.69015 0.0
C956 C 0.62567 0.20963 0.68396 0.0
C957 C 0.61002 0.19601 0.65173 0.0
C958 C 0.57709 0.20037 0.64576 0.0
C959 C 0.55948 0.21821 0.6719 0.0
C960 C 0.57476 0.23168 0.70408 0.0
C961 C 0.6077 0.22742 0.71018 0.0
H962 H 0.53399 0.22156 0.66722 0.0
H963 H 0.85506 0.19211 0.72576 0.0
H964 H 0.85094 0.82151 0.42769 0.0
H965 H 0.83709 0.81164 0.36225 0.0
H966 H 0.82677 0.70941 0.37475 0.0
H967 H 0.8403 0.71907 0.43993 0.0
H968 H 0.85762 0.72138 0.31136 0.0
H969 H 0.76079 0.75144 0.3718 0.0
H970 H 0.7287 0.78635 0.41371 0.0
H971 H 0.74267 0.86701 0.34968 0.0
H972 H 0.77489 0.83238 0.30718 0.0
H973 H 0.75744 0.66462 0.16019 0.0
H974 H 0.77859 0.67985 0.22211 0.0
H975 H 0.78267 0.7801 0.19812 0.0
H976 H 0.76137 0.76512 0.13606 0.0
H977 H 0.75793 0.77279 0.26571 0.0
H978 H 0.84991 0.73721 0.19976 0.0
H979 H 0.88097 0.69952 0.15954 0.0
H980 H 0.87551 0.62665 0.23569 0.0
H981 H 0.84399 0.66376 0.27614 0.0
C982 C 0.84626 0.79688 0.41633 0.0
C983 C 0.84658 0.77108 0.43896 0.0
C984 C 0.8382 0.79129 0.37902 0.0
C985 C 0.83066 0.7598 0.36371 0.0
C986 C 0.83251 0.73387 0.38596 0.0
C987 C 0.84015 0.73947 0.42324 0.0
C988 C 0.81892 0.75397 0.32508 0.0
C989 C 0.83578 0.73249 0.30138 0.0
C990 C 0.79062 0.76876 0.31197 0.0
C991 C 0.77052 0.78947 0.33662 0.0
C992 C 0.75711 0.77667 0.36675 0.0
C993 C 0.73891 0.79639 0.3906 0.0
C994 C 0.73391 0.82899 0.38461 0.0
C995 C 0.7467 0.84179 0.35438 0.0
C996 C 0.76485 0.82209 0.33031 0.0
C997 C 0.76268 0.68994 0.16807 0.0
C998 C 0.7578 0.71363 0.14308 0.0
C999 C 0.77492 0.69859 0.20346 0.0
C1000 C 0.78255 0.73107 0.21463 0.0
C1001 C 0.77703 0.75489 0.19005 0.0
C1002 C 0.76495 0.74624 0.15455 0.0
C1003 C 0.79656 0.74001 0.25189 0.0
C1004 C 0.78005 0.76202 0.27542 0.0
C1005 C 0.82508 0.72544 0.26491 0.0
C1006 C 0.84436 0.70319 0.24085 0.0
C1007 C 0.85514 0.71308 0.20782 0.0
C1008 C 0.87285 0.69183 0.18499 0.0
C1009 C 0.88015 0.66069 0.19501 0.0
C1010 C 0.86982 0.65077 0.22795 0.0
C1011 C 0.85206 0.67192 0.25086 0.0
H1012 H 0.89385 0.64426 0.1773 0.0
H1013 H 0.72011 0.84428 0.4034 0.0
H1014 H 0.25939 0.83517 0.95266 0.0
H1015 H 0.29457 0.82571 0.90106 0.0
H1016 H 0.21156 0.81217 0.82755 0.0
H1017 H 0.17675 0.82013 0.87879 0.0
H1018 H 0.25117 0.7681 0.80947 0.0
H1019 H 0.2598 0.8838 0.8375 0.0
H1020 H 0.27138 0.93403 0.87675 0.0
H1021 H 0.36875 0.90345 0.8938 0.0
H1022 H 0.35761 0.85281 0.855 0.0
H1023 H 0.33019 0.837 0.6517 0.0
H1024 H 0.31282 0.84502 0.71407 0.0
H1025 H 0.34524 0.74866 0.7341 0.0
H1026 H 0.36254 0.74033 0.67105 0.0
H1027 H 0.33679 0.84447 0.78271 0.0
H1028 H 0.28549 0.71474 0.78228 0.0
H1029 H 0.26791 0.66945 0.73809 0.0
H1030 H 0.24587 0.73667 0.65771 0.0
H1031 H 0.26267 0.78232 0.7016 0.0
C1032 C 0.24878 0.83038 0.92541 0.0
C1033 C 0.21534 0.8283 0.91977 0.0
C1034 C 0.26886 0.825 0.89591 0.0
C1035 C 0.2558 0.81825 0.86021 0.0
C1036 C 0.22236 0.81693 0.85472 0.0
C1037 C 0.20242 0.82167 0.8841 0.0
C1038 C 0.27646 0.81218 0.82829 0.0
C1039 C 0.27008 0.78472 0.80391 0.0
C1040 C 0.301 0.83389 0.82057 0.0
C1041 C 0.30778 0.86436 0.84372 0.0
C1042 C 0.28362 0.88769 0.84984 0.0
C1043 C 0.29011 0.91624 0.87197 0.0
C1044 C 0.32075 0.92187 0.88786 0.0
C1045 C 0.34501 0.89901 0.88154 0.0
C1046 C 0.33862 0.87039 0.85948 0.0
C1047 C 0.33421 0.81769 0.66954 0.0
C1048 C 0.3474 0.78789 0.65637 0.0
C1049 C 0.32444 0.82242 0.70533 0.0
C1050 C 0.32736 0.79736 0.72868 0.0
C1051 C 0.34252 0.76826 0.71642 0.0
C1052 C 0.35252 0.76356 0.68048 0.0
C1053 C 0.31116 0.80069 0.76397 0.0
C1054 C 0.31835 0.82755 0.78887 0.0
C1055 C 0.2865 0.77913 0.77155 0.0
C1056 C 0.27582 0.75187 0.74509 0.0
C1057 C 0.27681 0.71983 0.7552 0.0
C1058 C 0.26694 0.69411 0.73022 0.0
C1059 C 0.2559 0.70016 0.69507 0.0
C1060 C 0.25455 0.73197 0.68488 0.0
C1061 C 0.26424 0.75778 0.70981 0.0
H1062 H 0.24832 0.6802 0.67579 0.0
H1063 H 0.32573 0.94399 0.90499 0.0
H1064 H 0.75657 0.64913 0.91822 0.0
H1065 H 0.77964 0.67828 0.87117 0.0
H1066 H 0.81501 0.7521 0.9524 0.0
H1067 H 0.79045 0.72346 1.00021 0.0
H1068 H 0.78939 0.77955 0.89603 0.0
H1069 H 0.86645 0.69653 0.9093 0.0
H1070 H 0.88626 0.64083 0.91488 0.0
H1071 H 0.84677 0.61138 0.80777 0.0
H1072 H 0.82632 0.66678 0.80172 0.0
H1073 H 0.89215 0.78413 0.71897 0.0
H1074 H 0.88502 0.76819 0.78026 0.0
H1075 H 0.78574 0.79679 0.77292 0.0
H1076 H 0.79334 0.81534 0.71293 0.0
H1077 H 0.85338 0.72258 0.80009 0.0
H1078 H 0.75289 0.81083 0.85249 0.0
H1079 H 0.73843 0.86865 0.85152 0.0
H1080 H 0.83647 0.89275 0.83567 0.0
H1081 H 0.85156 0.8351 0.83673 0.0
C1082 C 0.76942 0.67145 0.92638 0.0
C1083 C 0.77177 0.68384 0.96314 0.0
C1084 C 0.78281 0.68806 0.89929 0.0
C1085 C 0.79952 0.71722 0.90819 0.0
C1086 C 0.80222 0.72965 0.94492 0.0
C1087 C 0.78842 0.71313 0.97221 0.0
C1088 C 0.81291 0.73495 0.87862 0.0
C1089 C 0.8038 0.76732 0.87531 0.0
C1090 C 0.83219 0.71917 0.85183 0.0
C1091 C 0.84472 0.68582 0.85515 0.0
C1092 C 0.86184 0.67814 0.88701 0.0
C1093 C 0.87319 0.64662 0.89025 0.0
C1094 C 0.86774 0.62257 0.86172 0.0
C1095 C 0.85098 0.63003 0.82985 0.0
C1096 C 0.83955 0.66151 0.82647 0.0
C1097 C 0.86904 0.78815 0.73073 0.0
C1098 C 0.84332 0.80104 0.71057 0.0
C1099 C 0.86489 0.77858 0.76582 0.0
C1100 C 0.83487 0.78132 0.78163 0.0
C1101 C 0.80937 0.79493 0.76195 0.0
C1102 C 0.81363 0.80504 0.72714 0.0
C1103 C 0.82942 0.76724 0.81697 0.0
C1104 C 0.83976 0.73533 0.82122 0.0
C1105 C 0.81224 0.78386 0.84521 0.0
C1106 C 0.8033 0.81858 0.84438 0.0
C1107 C 0.77138 0.82846 0.84882 0.0
C1108 C 0.76305 0.8612 0.84816 0.0
C1109 C 0.7865 0.88435 0.84344 0.0
C1110 C 0.81831 0.87479 0.83923 0.0
C1111 C 0.82674 0.84206 0.83973 0.0
H1112 H 0.78003 0.9097 0.8431 0.0
H1113 H 0.87653 0.59818 0.8643 0.0
H1114 H 0.34711 0.71849 0.36534 0.0
H1115 H 0.33242 0.72956 0.30225 0.0
H1116 H 0.31294 0.82929 0.33806 0.0
H1117 H 0.32869 0.819 0.40047 0.0
H1118 H 0.26096 0.79283 0.29787 0.0
H1119 H 0.37456 0.81684 0.29306 0.0
H1120 H 0.43192 0.80294 0.29748 0.0
H1121 H 0.41718 0.7255 0.21334 0.0
H1122 H 0.35958 0.73867 0.2088 0.0
H1123 H 0.22332 0.88026 0.15294 0.0
H1124 H 0.25432 0.86232 0.20514 0.0
H1125 H 0.28172 0.77551 0.14075 0.0
H1126 H 0.25157 0.79428 0.08757 0.0
H1127 H 0.32971 0.79605 0.19156 0.0
H1128 H 0.21857 0.77221 0.19219 0.0
H1129 H 0.16062 0.7832 0.18677 0.0
H1130 H 0.16918 0.85457 0.27821 0.0
H1131 H 0.22729 0.84439 0.28382 0.0
C1132 C 0.34032 0.74293 0.35967 0.0
C1133 C 0.3385 0.76769 0.3882 0.0
C1134 C 0.33188 0.74916 0.32364 0.0
C1135 C 0.32141 0.78018 0.31564 0.0
C1136 C 0.32072 0.80512 0.34376 0.0
C1137 C 0.32945 0.79907 0.37952 0.0
C1138 C 0.30867 0.78652 0.27875 0.0
C1139 C 0.27602 0.79372 0.27468 0.0
C1140 C 0.32811 0.7863 0.24821 0.0
C1141 C 0.3627 0.77847 0.25093 0.0
C1142 C 0.38348 0.79663 0.27578 0.0
C1143 C 0.41605 0.78894 0.27824 0.0
C1144 C 0.42817 0.76328 0.25579 0.0
C1145 C 0.40775 0.74533 0.23076 0.0
C1146 C 0.37514 0.7529 0.22822 0.0
C1147 C 0.23665 0.85775 0.14963 0.0
C1148 C 0.23482 0.83848 0.11643 0.0
C1149 C 0.25424 0.84744 0.17949 0.0
C1150 C 0.26956 0.81712 0.17716 0.0
C1151 C 0.26987 0.79887 0.14322 0.0
C1152 C 0.25268 0.80961 0.11288 0.0
C1153 C 0.28217 0.80363 0.21112 0.0
C1154 C 0.31458 0.79483 0.21462 0.0
C1155 C 0.2624 0.80174 0.2412 0.0
C1156 C 0.22734 0.80767 0.23828 0.0
C1157 C 0.20813 0.79038 0.21102 0.0
C1158 C 0.17525 0.79646 0.20791 0.0
C1159 C 0.16124 0.8196 0.2321 0.0
C1160 C 0.18007 0.83666 0.25949 0.0
C1161 C 0.21298 0.83072 0.26267 0.0
H1162 H 0.13578 0.82428 0.22964 0.0
H1163 H 0.4534 0.75738 0.25773 0.0
H1164 H 0.23523 0.17907 0.68796 0.0
H1165 H 0.25015 0.20489 0.74828 0.0
H1166 H 0.15075 0.22645 0.76666 0.0
H1167 H 0.13581 0.20078 0.70591 0.0
H1168 H 0.18686 0.28031 0.77315 0.0
H1169 H 0.19229 0.17732 0.82192 0.0
H1170 H 0.20706 0.12014 0.82776 0.0
H1171 H 0.30669 0.14604 0.83462 0.0
H1172 H 0.29254 0.20334 0.82838 0.0
H1173 H 0.21876 0.35294 0.95346 0.0
H1174 H 0.20029 0.32336 0.89641 0.0
H1175 H 0.29765 0.29578 0.87425 0.0
H1176 H 0.3161 0.32405 0.93212 0.0
H1177 H 0.26066 0.24436 0.87076 0.0
H1178 H 0.25408 0.34781 0.82158 0.0
H1179 H 0.23833 0.40515 0.8191 0.0
H1180 H 0.13907 0.37795 0.81517 0.0
H1181 H 0.15421 0.32047 0.81813 0.0
C1182 C 0.2165 0.18825 0.70548 0.0
C1183 C 0.18443 0.18806 0.69245 0.0
C1184 C 0.22501 0.20297 0.73994 0.0
C1185 C 0.20156 0.2177 0.76189 0.0
C1186 C 0.16918 0.21523 0.75007 0.0
C1187 C 0.16063 0.20031 0.71559 0.0
C1188 C 0.21144 0.23949 0.79433 0.0
C1189 C 0.20239 0.27229 0.795 0.0
C1190 C 0.23262 0.22925 0.82202 0.0
C1191 C 0.24134 0.1946 0.82424 0.0
C1192 C 0.21736 0.17077 0.82415 0.0
C1193 C 0.22562 0.13835 0.82769 0.0
C1194 C 0.25779 0.12945 0.83145 0.0
C1195 C 0.28178 0.15295 0.83161 0.0
C1196 C 0.27365 0.18541 0.82808 0.0
C1197 C 0.2363 0.34107 0.9361 0.0
C1198 C 0.26883 0.34051 0.94749 0.0
C1199 C 0.22574 0.32437 0.90334 0.0
C1200 C 0.24759 0.30727 0.88111 0.0
C1201 C 0.28038 0.30872 0.8911 0.0
C1202 C 0.29094 0.32523 0.92399 0.0
C1203 C 0.23594 0.28508 0.84973 0.0
C1204 C 0.24484 0.25226 0.84912 0.0
C1205 C 0.21447 0.29528 0.82225 0.0
C1206 C 0.2053 0.32985 0.82043 0.0
C1207 C 0.22889 0.35407 0.82049 0.0
C1208 C 0.22007 0.3866 0.81894 0.0
C1209 C 0.18772 0.3952 0.81707 0.0
C1210 C 0.16412 0.37127 0.81666 0.0
C1211 C 0.17281 0.3387 0.81823 0.0
H1212 H 0.18095 0.42039 0.81587 0.0
H1213 H 0.26413 0.10435 0.83432 0.0
H1214 H 0.74984 0.20836 0.1076 0.0
H1215 H 0.74297 0.22014 0.17285 0.0
H1216 H 0.72572 0.11864 0.18394 0.0
H1217 H 0.73275 0.1066 0.11814 0.0
H1218 H 0.68015 0.16233 0.21832 0.0
H1219 H 0.79289 0.14625 0.21812 0.0
H1220 H 0.84765 0.1523 0.19723 0.0
H1221 H 0.84372 0.25511 0.22524 0.0
H1222 H 0.78874 0.24978 0.2458 0.0
H1223 H 0.66986 0.22271 0.40694 0.0
H1224 H 0.68728 0.18715 0.35455 0.0
H1225 H 0.72362 0.27059 0.30629 0.0
H1226 H 0.70687 0.30573 0.35807 0.0
H1227 H 0.76397 0.22089 0.29737 0.0
H1228 H 0.64873 0.23855 0.2828 0.0
H1229 H 0.59299 0.23494 0.30165 0.0
H1230 H 0.60116 0.13123 0.29992 0.0
H1231 H 0.65714 0.1343 0.28151 0.0
C1232 C 0.74459 0.18852 0.1239 0.0
C1233 C 0.74174 0.15658 0.10781 0.0
C1234 C 0.74087 0.19524 0.16121 0.0
C1235 C 0.73407 0.17022 0.18326 0.0
C1236 C 0.73109 0.13824 0.16737 0.0
C1237 C 0.73525 0.1314 0.12993 0.0
C1238 C 0.72929 0.17826 0.22265 0.0
C1239 C 0.6987 0.17434 0.236 0.0
C1240 C 0.75341 0.19423 0.24551 0.0
C1241 C 0.78659 0.1976 0.23338 0.0
C1242 C 0.80361 0.17018 0.21961 0.0
C1243 C 0.83471 0.17348 0.20785 0.0
C1244 C 0.84915 0.20407 0.20987 0.0
C1245 C 0.83252 0.23143 0.22371 0.0
C1246 C 0.80139 0.22827 0.23548 0.0
C1247 C 0.68195 0.23329 0.38532 0.0
C1248 C 0.6867 0.26705 0.38646 0.0
C1249 C 0.69178 0.213 0.35539 0.0
C1250 C 0.70653 0.22626 0.32632 0.0
C1251 C 0.71238 0.25976 0.32835 0.0
C1252 C 0.70255 0.27989 0.35796 0.0
C1253 C 0.71446 0.20624 0.29252 0.0
C1254 C 0.74568 0.20794 0.28016 0.0
C1255 C 0.69084 0.18853 0.27047 0.0
C1256 C 0.65719 0.18668 0.28127 0.0
C1257 C 0.6387 0.215 0.28671 0.0
C1258 C 0.60706 0.21306 0.29727 0.0
C1259 C 0.59358 0.18288 0.30211 0.0
C1260 C 0.61167 0.15459 0.29626 0.0
C1261 C 0.64334 0.15642 0.28577 0.0
H1262 H 0.56909 0.18142 0.31028 0.0
H1263 H 0.87323 0.20657 0.20075 0.0
loop_
_geom_bond_atom_site_label_1
_geom_bond_atom_site_label_2
_geom_bond_distance
_geom_bond_site_symmetry_2
_ccdc_geom_bond_type
C0 C1 1.351 . S
C0 N3 1.368 . S
C0 H5 0.931 . S
C1 C0 1.351 . S
C1 N2 1.373 . S
C1 H29 0.930 . S
N2 C1 1.373 . S
N2 C4 1.340 . S
N3 C0 1.368 . S
N3 C4 1.321 . S
N3 Co6 2.135 . S
C4 N2 1.340 . S
C4 N3 1.321 . S
C4 H28 0.930 . S
H5 C0 0.931 . S
Co6 N3 2.135 . S
Co6 N9 2.121 . S
Co6 O14 2.055 . S
Co6 O17 2.039 . S
Co6 N20 2.140 . S
C7 O8 1.227 . S
C7 O17 1.265 . S
O8 C7 1.227 . S
N9 Co6 2.121 . S
N9 C11 1.375 . S
N9 C12 1.313 . S
C10 C11 1.338 . S
C10 N13 1.377 . S
C10 H30 0.930 . S
C11 N9 1.375 . S
C11 C10 1.338 . S
C11 H15 0.931 . S
C12 N9 1.313 . S
C12 N13 1.344 . S
C12 H16 0.930 . S
N13 C10 1.377 . S
N13 C12 1.344 . S
O14 Co6 2.055 . S
O14 C18 1.253 . S
H15 C11 0.931 . S
H16 C12 0.930 . S
O17 Co6 2.039 . S
O17 C7 1.265 . S
C18 O14 1.253 . S
C18 O19 1.227 . S
O19 C18 1.227 . S
N20 Co6 2.140 . S
N20 C23 1.346 1_554 S
N20 C24 1.345 . S
C21 C22 1.387 . S
C21 C25 1.391 . S
C22 C21 1.387 . S
C22 C23 1.369 . S
C22 H31 0.929 . S
C23 N20 1.346 1_556 S
C23 C22 1.369 . S
C23 H26 0.928 . S
C24 N20 1.345 . S
C24 C25 1.371 1_554 S
C24 H27 0.931 . S
C25 C21 1.391 . S
C25 C24 1.371 1_556 S
C25 H32 0.930 . S
H26 C23 0.928 . S
H27 C24 0.931 . S
H28 C4 0.930 . S
H29 C1 0.930 . S
H30 C10 0.930 . S
H31 C22 0.929 . S
H32 C25 0.930 . S
C33 C34 1.351 . S
C33 N36 1.368 . S
C33 H38 0.931 . S
C34 C33 1.351 . S
C34 N35 1.373 . S
C34 H62 0.930 . S
N35 C34 1.373 . S
N35 C37 1.340 . S
N36 C33 1.368 . S
N36 C37 1.321 . S
N36 Co39 2.135 . S
C37 N35 1.340 . S
C37 N36 1.321 . S
C37 H61 0.930 . S
H38 C33 0.931 . S
Co39 N36 2.135 . S
Co39 N42 2.121 . S
Co39 O47 2.055 . S
Co39 O50 2.039 . S
Co39 N53 2.140 . S
C40 O41 1.227 . S
C40 O50 1.265 . S
O41 C40 1.227 . S
N42 Co39 2.121 . S
N42 C44 1.375 . S
N42 C45 1.313 . S
C43 C44 1.338 . S
C43 N46 1.377 . S
C43 H63 0.930 . S
C44 N42 1.375 . S
C44 C43 1.338 . S
C44 H48 0.931 . S
C45 N42 1.313 . S
C45 N46 1.344 . S
C45 H49 0.930 . S
N46 C43 1.377 . S
N46 C45 1.344 . S
O47 Co39 2.055 . S
O47 C51 1.253 . S
H48 C44 0.931 . S
H49 C45 0.930 . S
O50 Co39 2.039 . S
O50 C40 1.265 . S
C51 O47 1.253 . S
C51 O52 1.227 . S
O52 C51 1.227 . S
N53 Co39 2.140 . S
N53 C56 1.346 . S
N53 C57 1.345 . S
C54 C55 1.387 . S
C54 C58 1.391 . S
C55 C54 1.387 . S
C55 C56 1.369 . S
C55 H64 0.929 . S
C56 N53 1.346 . S
C56 C55 1.369 . S
C56 H59 0.928 . S
C57 N53 1.345 . S
C57 C58 1.371 . S
C57 H60 0.931 . S
C58 C54 1.391 . S
C58 C57 1.371 . S
C58 H65 0.930 . S
H59 C56 0.928 . S
H60 C57 0.931 . S
H61 C37 0.930 . S
H62 C34 0.930 . S
H63 C43 0.930 . S
H64 C55 0.929 . S
H65 C58 0.930 . S
C66 C67 1.351 . S
C66 N69 1.368 1_556 S
C66 H71 0.931 . S
C67 C66 1.351 . S
C67 N68 1.373 1_556 S
C67 H95 0.930 . S
N68 C67 1.373 1_554 S
N68 C70 1.340 . S
N69 C66 1.368 1_554 S
N69 C70 1.321 . S
N69 Co72 2.135 . S
C70 N68 1.340 . S
C70 N69 1.321 . S
C70 H94 0.930 . S
H71 C66 0.931 . S
Co72 N69 2.135 . S
Co72 N75 2.121 . S
Co72 O80 2.055 1_554 S
Co72 O83 2.039 . S
Co72 N86 2.140 . S
C73 O74 1.227 . S
C73 O83 1.265 . S
O74 C73 1.227 . S
N75 Co72 2.121 . S
N75 C77 1.375 . S
N75 C78 1.313 . S
C76 C77 1.338 . S
C76 N79 1.377 . S
C76 H96 0.930 . S
C77 N75 1.375 . S
C77 C76 1.338 . S
C77 H81 0.931 . S
C78 N75 1.313 . S
C78 N79 1.344 . S
C78 H82 0.930 1_554 S
N79 C76 1.377 . S
N79 C78 1.344 . S
O80 Co72 2.055 1_556 S
O80 C84 1.253 . S
H81 C77 0.931 . S
H82 C78 0.930 1_556 S
O83 Co72 2.039 . S
O83 C73 1.265 . S
C84 O80 1.253 . S
C84 O85 1.227 . S
O85 C84 1.227 . S
N86 Co72 2.140 . S
N86 C89 1.346 . S
N86 C90 1.358 . S
C87 C88 1.387 . S
C87 C91 1.408 . S
C88 C87 1.387 . S
C88 C89 1.369 . S
C88 H97 0.929 . S
C89 N86 1.346 . S
C89 C88 1.369 . S
C89 H92 0.928 . S
C90 N86 1.358 . S
C90 C91 1.371 . S
C90 H93 0.916 1_554 S
C91 C87 1.408 . S
C91 C90 1.371 . S
C91 H98 0.915 1_554 S
H92 C89 0.928 . S
H93 C90 0.916 1_556 S
H94 C70 0.930 . S
H95 C67 0.930 . S
H96 C76 0.930 . S
H97 C88 0.929 . S
H98 C91 0.915 1_556 S
C99 C100 1.351 . S
C99 N102 1.368 . S
C99 H104 0.931 . S
C100 C99 1.351 . S
C100 N101 1.373 . S
C100 H128 0.930 . S
N101 C100 1.373 . S
N101 C103 1.340 . S
N102 C99 1.368 . S
N102 C103 1.321 . S
N102 Co105 2.135 . S
C103 N101 1.340 . S
C103 N102 1.321 . S
C103 H127 0.930 . S
H104 C99 0.931 . S
Co105 N102 2.135 . S
Co105 N108 2.121 . S
Co105 O113 2.055 . S
Co105 O116 2.039 . S
Co105 N119 2.140 . S
C106 O107 1.227 . S
C106 O116 1.265 . S
O107 C106 1.227 . S
N108 Co105 2.121 . S
N108 C110 1.375 . S
N108 C111 1.313 . S
C109 C110 1.338 . S
C109 N112 1.377 . S
C109 H129 0.930 . S
C110 N108 1.375 . S
C110 C109 1.338 . S
C110 H114 0.931 . S
C111 N108 1.313 . S
C111 N112 1.344 . S
C111 H115 0.930 . S
N112 C109 1.377 . S
N112 C111 1.344 . S
O113 Co105 2.055 . S
O113 C117 1.253 . S
H114 C110 0.931 . S
H115 C111 0.930 . S
O116 Co105 2.039 . S
O116 C106 1.265 . S
C117 O113 1.253 . S
C117 O118 1.227 . S
O118 C117 1.227 . S
N119 Co105 2.140 . S
N119 C122 1.346 . S
N119 C123 1.345 . S
C120 C121 1.387 . S
C120 C124 1.391 . S
C121 C120 1.387 . S
C121 C122 1.369 . S
C121 H130 0.929 . S
C122 N119 1.346 . S
C122 C121 1.369 . S
C122 H125 0.928 . S
C123 N119 1.345 . S
C123 C124 1.371 . S
C123 H126 0.931 . S
C124 C120 1.391 . S
C124 C123 1.371 . S
C124 H131 0.930 . S
H125 C122 0.928 . S
H126 C123 0.931 . S
H127 C103 0.930 . S
H128 C100 0.930 . S
H129 C109 0.930 . S
H130 C121 0.929 . S
H131 C124 0.930 . S
C132 C133 1.351 1_545 S
C132 N135 1.368 . S
C132 H137 0.931 . S
C133 C132 1.351 1_565 S
C133 N134 1.373 . S
C133 H161 0.930 . S
N134 C133 1.373 . S
N134 C136 1.340 1_565 S
N135 C132 1.368 . S
N135 C136 1.321 . S
N135 Co138 2.135 . S
C136 N134 1.340 1_545 S
C136 N135 1.321 . S
C136 H160 0.930 . S
H137 C132 0.931 . S
Co138 N135 2.135 . S
Co138 N141 2.121 . S
Co138 O146 2.055 . S
Co138 O149 2.039 . S
Co138 N152 2.140 1_556 S
C139 O140 1.227 . S
C139 O149 1.265 1_554 S
O140 C139 1.227 . S
N141 Co138 2.121 . S
N141 C143 1.375 1_556 S
N141 C144 1.313 . S
C142 C143 1.338 . S
C142 N145 1.377 1_554 S
C142 H162 0.930 . S
C143 N141 1.375 1_554 S
C143 C142 1.338 . S
C143 H147 0.931 . S
C144 N141 1.313 . S
C144 N145 1.344 . S
C144 H148 0.930 . S
N145 C142 1.377 1_556 S
N145 C144 1.344 . S
O146 Co138 2.055 . S
O146 C150 1.253 . S
H147 C143 0.931 . S
H148 C144 0.930 . S
O149 Co138 2.039 . S
O149 C139 1.265 1_556 S
C150 O146 1.253 . S
C150 O151 1.227 . S
O151 C150 1.227 . S
N152 Co138 2.140 1_554 S
N152 C155 1.346 . S
N152 C156 1.345 . S
C153 C154 1.387 . S
C153 C157 1.391 . S
C154 C153 1.387 . S
C154 C155 1.369 . S
C154 H163 0.929 . S
C155 N152 1.346 . S
C155 C154 1.369 . S
C155 H158 0.928 . S
C156 N152 1.345 . S
C156 C157 1.371 . S
C156 H159 0.931 . S
C157 C153 1.391 . S
C157 C156 1.371 . S
C157 H164 0.930 . S
H158 C155 0.928 . S
H159 C156 0.931 . S
H160 C136 0.930 . S
H161 C133 0.930 . S
H162 C142 0.930 . S
H163 C154 0.929 . S
H164 C157 0.930 . S
C165 C166 1.351 1_655 S
C165 N168 1.368 . S
C165 H170 0.931 . S
C166 C165 1.351 1_455 S
C166 N167 1.373 . S
C166 H194 0.930 . S
N167 C166 1.373 . S
N167 C169 1.340 . S
N168 C165 1.368 . S
N168 C169 1.321 1_655 S
N168 Co171 2.135 . S
C169 N167 1.340 . S
C169 N168 1.321 1_455 S
C169 H193 0.930 . S
H170 C165 0.931 . S
Co171 N168 2.135 . S
Co171 N174 2.121 . S
Co171 O179 2.055 . S
Co171 O182 2.039 . S
Co171 N185 2.140 . S
C172 O173 1.227 . S
C172 O182 1.265 . S
O173 C172 1.227 . S
N174 Co171 2.121 . S
N174 C176 1.375 . S
N174 C177 1.313 . S
C175 C176 1.338 . S
C175 N178 1.377 . S
C175 H195 0.930 . S
C176 N174 1.375 . S
C176 C175 1.338 . S
C176 H180 0.931 . S
C177 N174 1.313 . S
C177 N178 1.344 . S
C177 H181 0.930 . S
N178 C175 1.377 . S
N178 C177 1.344 . S
O179 Co171 2.055 . S
O179 C183 1.253 . S
H180 C176 0.931 . S
H181 C177 0.930 . S
O182 Co171 2.039 . S
O182 C172 1.265 . S
C183 O179 1.253 . S
C183 O184 1.227 . S
O184 C183 1.227 . S
N185 Co171 2.140 . S
N185 C188 1.346 . S
N185 C189 1.345 . S
C186 C187 1.387 . S
C186 C190 1.391 . S
C187 C186 1.387 . S
C187 C188 1.369 . S
C187 H196 0.929 . S
C188 N185 1.346 . S
C188 C187 1.369 . S
C188 H191 0.928 . S
C189 N185 1.345 . S
C189 C190 1.371 . S
C189 H192 0.931 . S
C190 C186 1.391 . S
C190 C189 1.371 . S
C190 H197 0.930 . S
H191 C188 0.928 . S
H192 C189 0.931 . S
H193 C169 0.930 . S
H194 C166 0.930 . S
H195 C175 0.930 . S
H196 C187 0.929 . S
H197 C190 0.930 . S
C198 C199 1.384 . S
C198 N201 1.352 1_545 S
C198 H203 0.916 1_545 S
C199 C198 1.384 . S
C199 N200 1.373 . S
C199 H227 0.930 . S
N200 C199 1.373 . S
N200 C202 1.340 . S
N201 C198 1.352 1_565 S
N201 C202 1.321 1_565 S
N201 Co204 2.135 . S
C202 N200 1.340 . S
C202 N201 1.321 1_545 S
C202 H226 0.931 . S
H203 C198 0.916 1_565 S
Co204 N201 2.135 . S
Co204 N207 2.121 . S
Co204 O212 2.055 . S
Co204 O215 2.039 1_554 S
Co204 N218 2.140 . S
C205 O206 1.227 . S
C205 O215 1.265 . S
O206 C205 1.227 . S
N207 Co204 2.121 . S
N207 C209 1.375 1_554 S
N207 C210 1.313 . S
C208 C209 1.335 1_554 S
C208 N211 1.390 . S
C208 H228 0.921 1_554 S
C209 N207 1.375 1_556 S
C209 C208 1.335 1_556 S
C209 H213 0.931 . S
C210 N207 1.313 . S
C210 N211 1.344 . S
C210 H214 0.930 . S
N211 C208 1.390 . S
N211 C210 1.344 . S
O212 Co204 2.055 . S
O212 C216 1.253 . S
H213 C209 0.931 . S
H214 C210 0.930 . S
O215 Co204 2.039 1_556 S
O215 C205 1.265 . S
C216 O212 1.253 . S
C216 O217 1.227 . S
O217 C216 1.227 . S
N218 Co204 2.140 . S
N218 C221 1.346 . S
N218 C222 1.345 . S
C219 C220 1.387 . S
C219 C223 1.391 . S
C220 C219 1.387 . S
C220 C221 1.369 . S
C220 H229 0.928 1_554 S
C221 N218 1.346 . S
C221 C220 1.369 . S
C221 H224 0.928 . S
C222 N218 1.345 . S
C222 C223 1.371 . S
C222 H225 0.931 . S
C223 C219 1.391 . S
C223 C222 1.371 . S
C223 H230 0.930 . S
H224 C221 0.928 . S
H225 C222 0.931 . S
H226 C202 0.931 . S
H227 C199 0.930 . S
H228 C208 0.921 1_556 S
H229 C220 0.928 1_556 S
H230 C223 0.930 . S
C231 C232 1.351 1_455 S
C231 N234 1.368 . S
C231 H236 0.931 . S
C232 C231 1.351 1_655 S
C232 N233 1.373 . S
C232 H260 0.930 . S
N233 C232 1.373 . S
N233 C235 1.340 1_655 S
N234 C231 1.368 . S
N234 C235 1.321 . S
N234 Co237 2.135 . S
C235 N233 1.340 1_455 S
C235 N234 1.321 . S
C235 H259 0.930 . S
H236 C231 0.931 . S
Co237 N234 2.135 . S
Co237 N240 2.121 . S
Co237 O245 2.055 . S
Co237 O248 2.039 . S
Co237 N251 2.140 . S
C238 O239 1.227 . S
C238 O248 1.265 . S
O239 C238 1.227 . S
N240 Co237 2.121 . S
N240 C242 1.375 . S
N240 C243 1.313 . S
C241 C242 1.338 . S
C241 N244 1.377 . S
C241 H261 0.930 . S
C242 N240 1.375 . S
C242 C241 1.338 . S
C242 H246 0.931 . S
C243 N240 1.313 . S
C243 N244 1.344 . S
C243 H247 0.930 . S
N244 C241 1.377 . S
N244 C243 1.344 . S
O245 Co237 2.055 . S
O245 C249 1.253 . S
H246 C242 0.931 . S
H247 C243 0.930 . S
O248 Co237 2.039 . S
O248 C238 1.265 . S
C249 O245 1.253 . S
C249 O250 1.227 . S
O250 C249 1.227 . S
N251 Co237 2.140 . S
N251 C254 1.346 . S
N251 C255 1.345 . S
C252 C253 1.387 . S
C252 C256 1.391 . S
C253 C252 1.387 . S
C253 C254 1.369 . S
C253 H262 0.929 . S
C254 N251 1.346 . S
C254 C253 1.369 . S
C254 H257 0.928 . S
C255 N251 1.345 . S
C255 C256 1.371 . S
C255 H258 0.931 . S
C256 C252 1.391 . S
C256 C255 1.371 . S
C256 H263 0.930 . S
H257 C254 0.928 . S
H258 C255 0.931 . S
H259 C235 0.930 . S
H260 C232 0.930 . S
H261 C241 0.930 . S
H262 C253 0.929 . S
H263 C256 0.930 . S
H264 C282 0.951 . S
H265 C284 0.951 . S
H266 C286 0.950 . S
H267 C287 0.950 . S
H268 C289 0.950 1_556 S
H269 C292 0.950 . S
H270 C293 0.950 . S
H271 C295 0.950 . S
H272 C296 0.950 . S
H273 C297 0.951 . S
H274 C299 0.951 . S
H275 C301 0.950 . S
H276 C302 0.950 . S
H277 C304 0.950 . S
H278 C307 0.950 . S
H279 C308 0.950 . S
H280 C310 0.950 . S
H281 C311 0.950 . S
C282 H264 0.951 . S
C282 C283 1.366 . S
C282 C284 1.388 . S
C283 C282 1.366 . S
C283 C287 1.385 . S
C284 H265 0.951 . S
C284 C282 1.388 . S
C284 C285 1.366 . S
C285 C284 1.366 . S
C285 C286 1.414 . S
C285 C288 1.499 . S
C286 H266 0.950 . S
C286 C285 1.414 . S
C286 C287 1.374 . S
C287 H267 0.950 . S
C287 C283 1.385 . S
C287 C286 1.374 . S
C288 C285 1.499 . S
C288 C289 1.373 . S
C288 C290 1.389 . S
C289 H268 0.950 1_554 S
C289 C288 1.373 . S
C289 C305 1.377 . S
C290 C288 1.389 . S
C290 C291 1.524 . S
C290 C304 1.377 . S
C291 C290 1.524 . S
C291 C292 1.397 . S
C291 C296 1.363 . S
C292 H269 0.950 . S
C292 C291 1.397 . S
C292 C293 1.334 . S
C293 H270 0.950 . S
C293 C292 1.334 . S
C293 C294 1.287 . S
C294 C293 1.287 . S
C294 C295 1.524 . S
C294 H313 0.913 . S
C295 H271 0.950 . S
C295 C294 1.524 . S
C295 C296 1.415 . S
C296 H272 0.950 . S
C296 C291 1.363 . S
C296 C295 1.415 . S
C297 H273 0.951 . S
C297 C298 1.366 . S
C297 C299 1.388 . S
C298 C297 1.366 . S
C298 C302 1.385 . S
C299 H274 0.951 . S
C299 C297 1.388 . S
C299 C300 1.366 . S
C300 C299 1.366 . S
C300 C301 1.414 . S
C300 C303 1.499 . S
C301 H275 0.950 . S
C301 C300 1.414 . S
C301 C302 1.374 . S
C302 H276 0.950 . S
C302 C298 1.385 . S
C302 C301 1.374 . S
C303 C300 1.499 . S
C303 C304 1.373 . S
C303 C305 1.389 . S
C304 H277 0.950 . S
C304 C290 1.377 . S
C304 C303 1.373 . S
C305 C289 1.377 . S
C305 C303 1.389 . S
C305 C306 1.524 1_554 S
C306 C305 1.524 1_556 S
C306 C307 1.397 . S
C306 C311 1.363 . S
C307 H278 0.950 . S
C307 C306 1.397 . S
C307 C308 1.334 . S
C308 H279 0.950 . S
C308 C307 1.334 . S
C308 C309 1.287 . S
C309 C308 1.287 . S
C309 C310 1.524 . S
C309 H312 0.999 . S
C310 H280 0.950 . S
C310 C309 1.524 . S
C310 C311 1.415 . S
C311 H281 0.950 . S
C311 C306 1.363 . S
C311 C310 1.415 . S
H312 C309 0.999 . S
H313 C294 0.913 . S
H314 C332 0.951 . S
H315 C334 0.951 . S
H316 C336 0.950 . S
H317 C337 0.950 . S
H318 C339 0.950 . S
H319 C342 0.950 . S
H320 C343 0.950 . S
H321 C345 0.950 . S
H322 C346 0.950 . S
H323 C347 0.951 . S
H324 C349 0.951 . S
H325 C351 0.950 . S
H326 C352 0.950 . S
H327 C354 0.950 . S
H328 C357 0.950 . S
H329 C358 0.950 . S
H330 C360 0.950 . S
H331 C361 0.950 . S
C332 H314 0.951 . S
C332 C333 1.366 . S
C332 C334 1.388 . S
C333 C332 1.366 . S
C333 C337 1.385 . S
C334 H315 0.951 . S
C334 C332 1.388 . S
C334 C335 1.366 . S
C335 C334 1.366 . S
C335 C336 1.414 . S
C335 C338 1.499 . S
C336 H316 0.950 . S
C336 C335 1.414 . S
C336 C337 1.374 . S
C337 H317 0.950 . S
C337 C333 1.385 . S
C337 C336 1.374 . S
C338 C335 1.499 . S
C338 C339 1.373 . S
C338 C340 1.389 . S
C339 H318 0.950 . S
C339 C338 1.373 . S
C339 C355 1.377 . S
C340 C338 1.389 . S
C340 C341 1.524 . S
C340 C354 1.377 . S
C341 C340 1.524 . S
C341 C342 1.397 . S
C341 C346 1.363 . S
C342 H319 0.950 . S
C342 C341 1.397 . S
C342 C343 1.334 . S
C343 H320 0.950 . S
C343 C342 1.334 . S
C343 C344 1.287 . S
C344 C343 1.287 . S
C344 C345 1.524 . S
C344 H363 0.913 . S
C345 H321 0.950 . S
C345 C344 1.524 . S
C345 C346 1.415 . S
C346 H322 0.950 . S
C346 C341 1.363 . S
C346 C345 1.415 . S
C347 H323 0.951 . S
C347 C348 1.366 . S
C347 C349 1.388 . S
C348 C347 1.366 . S
C348 C352 1.385 . S
C349 H324 0.951 . S
C349 C347 1.388 . S
C349 C350 1.366 . S
C350 C349 1.366 . S
C350 C351 1.414 . S
C350 C353 1.499 . S
C351 H325 0.950 . S
C351 C350 1.414 . S
C351 C352 1.374 . S
C352 H326 0.950 . S
C352 C348 1.385 . S
C352 C351 1.374 . S
C353 C350 1.499 . S
C353 C354 1.373 . S
C353 C355 1.389 . S
C354 H327 0.950 . S
C354 C340 1.377 . S
C354 C353 1.373 . S
C355 C339 1.377 . S
C355 C353 1.389 . S
C355 C356 1.524 . S
C356 C355 1.524 . S
C356 C357 1.397 . S
C356 C361 1.363 . S
C357 H328 0.950 . S
C357 C356 1.397 . S
C357 C358 1.334 . S
C358 H329 0.950 . S
C358 C357 1.334 . S
C358 C359 1.287 . S
C359 C358 1.287 . S
C359 C360 1.524 . S
C359 H362 0.999 . S
C360 H330 0.950 . S
C360 C359 1.524 . S
C360 C361 1.415 . S
C361 H331 0.950 . S
C361 C356 1.363 . S
C361 C360 1.415 . S
H362 C359 0.999 . S
H363 C344 0.913 . S
H364 C382 0.951 . S
H365 C384 0.951 . S
H366 C386 0.950 . S
H367 C387 0.950 . S
H368 C389 0.950 . S
H369 C392 0.950 . S
H370 C393 0.950 . S
H371 C395 0.950 . S
H372 C396 0.950 . S
H373 C397 0.951 . S
H374 C399 0.951 . S
H375 C401 0.950 . S
H376 C402 0.950 . S
H377 C404 0.950 . S
H378 C407 0.950 . S
H379 C408 0.950 . S
H380 C410 0.950 . S
H381 C411 0.950 . S
C382 H364 0.951 . S
C382 C383 1.366 . S
C382 C384 1.388 . S
C383 C382 1.366 . S
C383 C387 1.385 1_556 S
C384 H365 0.951 . S
C384 C382 1.388 . S
C384 C385 1.366 . S
C385 C384 1.366 . S
C385 C386 1.414 1_556 S
C385 C388 1.499 . S
C386 H366 0.950 . S
C386 C385 1.414 1_554 S
C386 C387 1.374 . S
C387 H367 0.950 . S
C387 C383 1.385 1_554 S
C387 C386 1.374 . S
C388 C385 1.499 . S
C388 C389 1.373 1_556 S
C388 C390 1.389 . S
C389 H368 0.950 . S
C389 C388 1.373 1_554 S
C389 C405 1.377 . S
C390 C388 1.389 . S
C390 C391 1.524 . S
C390 C404 1.377 . S
C391 C390 1.524 . S
C391 C392 1.397 1_556 S
C391 C396 1.363 . S
C392 H369 0.950 . S
C392 C391 1.397 1_554 S
C392 C393 1.334 . S
C393 H370 0.950 . S
C393 C392 1.334 . S
C393 C394 1.287 1_554 S
C394 C393 1.287 1_556 S
C394 C395 1.524 . S
C394 H413 0.913 . S
C395 H371 0.950 . S
C395 C394 1.524 . S
C395 C396 1.415 . S
C396 H372 0.950 . S
C396 C391 1.363 . S
C396 C395 1.415 . S
C397 H373 0.951 . S
C397 C398 1.366 . S
C397 C399 1.388 . S
C398 C397 1.366 . S
C398 C402 1.385 1_554 S
C399 H374 0.951 . S
C399 C397 1.388 . S
C399 C400 1.366 . S
C400 C399 1.366 . S
C400 C401 1.414 1_554 S
C400 C403 1.499 1_554 S
C401 H375 0.950 . S
C401 C400 1.414 1_556 S
C401 C402 1.374 . S
C402 H376 0.950 . S
C402 C398 1.385 1_556 S
C402 C401 1.374 . S
C403 C400 1.499 1_556 S
C403 C404 1.373 . S
C403 C405 1.389 1_556 S
C404 H377 0.950 . S
C404 C390 1.377 . S
C404 C403 1.373 . S
C405 C389 1.377 . S
C405 C403 1.389 1_554 S
C405 C406 1.524 . S
C406 C405 1.524 . S
C406 C407 1.397 1_554 S
C406 C411 1.363 . S
C407 H378 0.950 . S
C407 C406 1.397 1_556 S
C407 C408 1.334 . S
C408 H379 0.950 . S
C408 C407 1.334 . S
C408 C409 1.287 1_556 S
C409 C408 1.287 1_554 S
C409 C410 1.524 . S
C409 H412 0.999 . S
C410 H380 0.950 . S
C410 C409 1.524 . S
C410 C411 1.415 . S
C411 H381 0.950 . S
C411 C406 1.363 . S
C411 C410 1.415 . S
H412 C409 0.999 . S
H413 C394 0.913 . S
H414 C432 0.951 . S
H415 C434 0.951 . S
H416 C436 0.950 . S
H417 C437 0.950 . S
H418 C439 0.950 . S
H419 C442 0.950 . S
H420 C443 0.950 . S
H421 C445 0.950 . S
H422 C446 0.950 . S
H423 C447 0.951 . S
H424 C449 0.951 . S
H425 C451 0.950 . S
H426 C452 0.950 . S
H427 C454 0.950 . S
H428 C457 0.950 . S
H429 C458 0.950 . S
H430 C460 0.950 . S
H431 C461 0.950 . S
C432 H414 0.951 . S
C432 C433 1.366 . S
C432 C434 1.388 . S
C433 C432 1.366 . S
C433 C437 1.385 . S
C434 H415 0.951 . S
C434 C432 1.388 . S
C434 C435 1.366 . S
C435 C434 1.366 . S
C435 C436 1.414 . S
C435 C438 1.499 . S
C436 H416 0.950 . S
C436 C435 1.414 . S
C436 C437 1.374 . S
C437 H417 0.950 . S
C437 C433 1.385 . S
C437 C436 1.374 . S
C438 C435 1.499 . S
C438 C439 1.373 . S
C438 C440 1.389 . S
C439 H418 0.950 . S
C439 C438 1.373 . S
C439 C455 1.377 . S
C440 C438 1.389 . S
C440 C441 1.524 . S
C440 C454 1.377 . S
C441 C440 1.524 . S
C441 C442 1.397 . S
C441 C446 1.363 . S
C442 H419 0.950 . S
C442 C441 1.397 . S
C442 C443 1.334 . S
C443 H420 0.950 . S
C443 C442 1.334 . S
C443 C444 1.287 . S
C444 C443 1.287 . S
C444 C445 1.524 . S
C444 H463 0.913 . S
C445 H421 0.950 . S
C445 C444 1.524 . S
C445 C446 1.415 . S
C446 H422 0.950 . S
C446 C441 1.363 . S
C446 C445 1.415 . S
C447 H423 0.951 . S
C447 C448 1.366 . S
C447 C449 1.388 . S
C448 C447 1.366 . S
C448 C452 1.385 . S
C449 H424 0.951 . S
C449 C447 1.388 . S
C449 C450 1.366 . S
C450 C449 1.366 . S
C450 C451 1.414 . S
C450 C453 1.499 . S
C451 H425 0.950 . S
C451 C450 1.414 . S
C451 C452 1.374 . S
C452 H426 0.950 . S
C452 C448 1.385 . S
C452 C451 1.374 . S
C453 C450 1.499 . S
C453 C454 1.373 . S
C453 C455 1.389 . S
C454 H427 0.950 . S
C454 C440 1.377 . S
C454 C453 1.373 . S
C455 C439 1.377 . S
C455 C453 1.389 . S
C455 C456 1.524 . S
C456 C455 1.524 . S
C456 C457 1.397 . S
C456 C461 1.363 . S
C457 H428 0.950 . S
C457 C456 1.397 . S
C457 C458 1.334 . S
C458 H429 0.950 . S
C458 C457 1.334 . S
C458 C459 1.287 . S
C459 C458 1.287 . S
C459 C460 1.524 . S
C459 H462 0.999 . S
C460 H430 0.950 . S
C460 C459 1.524 . S
C460 C461 1.415 . S
C461 H431 0.950 . S
C461 C456 1.363 . S
C461 C460 1.415 . S
H462 C459 0.999 . S
H463 C444 0.913 . S
H464 C482 0.951 . S
H465 C484 0.951 . S
H466 C486 0.950 . S
H467 C487 0.950 . S
H468 C489 0.950 . S
H469 C492 0.950 . S
H470 C493 0.950 1_556 S
H471 C495 0.950 . S
H472 C496 0.950 . S
H473 C497 0.951 . S
H474 C499 0.951 . S
H475 C501 0.950 . S
H476 C502 0.950 . S
H477 C504 0.950 . S
H478 C507 0.950 . S
H479 C508 0.950 . S
H480 C510 0.950 . S
H481 C511 0.950 . S
C482 H464 0.951 . S
C482 C483 1.366 . S
C482 C484 1.388 . S
C483 C482 1.366 . S
C483 C487 1.385 1_554 S
C484 H465 0.951 . S
C484 C482 1.388 . S
C484 C485 1.366 . S
C485 C484 1.366 . S
C485 C486 1.414 1_554 S
C485 C488 1.499 . S
C486 H466 0.950 . S
C486 C485 1.414 1_556 S
C486 C487 1.374 . S
C487 H467 0.950 . S
C487 C483 1.385 1_556 S
C487 C486 1.374 . S
C488 C485 1.499 . S
C488 C489 1.373 1_554 S
C488 C490 1.389 . S
C489 H468 0.950 . S
C489 C488 1.373 1_556 S
C489 C505 1.377 . S
C490 C488 1.389 . S
C490 C491 1.524 . S
C490 C504 1.377 . S
C491 C490 1.524 . S
C491 C492 1.397 1_554 S
C491 C496 1.363 . S
C492 H469 0.950 . S
C492 C491 1.397 1_556 S
C492 C493 1.334 1_556 S
C493 H470 0.950 1_554 S
C493 C492 1.334 1_554 S
C493 C494 1.287 . S
C494 C493 1.287 . S
C494 C495 1.524 . S
C494 H513 0.913 . S
C495 H471 0.950 . S
C495 C494 1.524 . S
C495 C496 1.415 . S
C496 H472 0.950 . S
C496 C491 1.363 . S
C496 C495 1.415 . S
C497 H473 0.951 . S
C497 C498 1.366 . S
C497 C499 1.388 . S
C498 C497 1.366 . S
C498 C502 1.385 1_556 S
C499 H474 0.951 . S
C499 C497 1.388 . S
C499 C500 1.366 . S
C500 C499 1.366 . S
C500 C501 1.414 1_556 S
C500 C503 1.501 . S
C501 H475 0.950 . S
C501 C500 1.414 1_554 S
C501 C502 1.374 . S
C502 H476 0.950 . S
C502 C498 1.385 1_554 S
C502 C501 1.374 . S
C503 C500 1.501 . S
C503 C504 1.368 1_556 S
C503 C505 1.395 . S
C504 H477 0.950 . S
C504 C490 1.377 . S
C504 C503 1.368 1_554 S
C505 C489 1.377 . S
C505 C503 1.395 . S
C505 C506 1.524 . S
C506 C505 1.524 . S
C506 C507 1.397 1_556 S
C506 C511 1.363 . S
C507 H478 0.950 . S
C507 C506 1.397 1_554 S
C507 C508 1.334 . S
C508 H479 0.950 . S
C508 C507 1.334 . S
C508 C509 1.287 1_554 S
C509 C508 1.287 1_556 S
C509 C510 1.524 . S
C509 H512 0.999 . S
C510 H480 0.950 . S
C510 C509 1.524 . S
C510 C511 1.415 . S
C511 H481 0.950 . S
C511 C506 1.363 . S
C511 C510 1.415 . S
H512 C509 0.999 . S
H513 C494 0.913 . S
H514 C532 0.951 . S
H515 C534 0.951 . S
H516 C536 0.950 . S
H517 C537 0.950 . S
H518 C539 0.950 . S
H519 C542 0.950 . S
H520 C543 0.950 . S
H521 C545 0.950 . S
H522 C546 0.950 . S
H523 C547 0.951 . S
H524 C549 0.951 . S
H525 C551 0.950 . S
H526 C552 0.950 . S
H527 C554 0.950 . S
H528 C557 0.950 . S
H529 C558 0.950 . S
H530 C560 0.950 . S
H531 C561 0.950 . S
C532 H514 0.951 . S
C532 C533 1.366 . S
C532 C534 1.388 . S
C533 C532 1.366 . S
C533 C537 1.385 . S
C534 H515 0.951 . S
C534 C532 1.388 . S
C534 C535 1.366 . S
C535 C534 1.366 . S
C535 C536 1.414 . S
C535 C538 1.499 . S
C536 H516 0.950 . S
C536 C535 1.414 . S
C536 C537 1.374 . S
C537 H517 0.950 . S
C537 C533 1.385 . S
C537 C536 1.374 . S
C538 C535 1.499 . S
C538 C539 1.373 . S
C538 C540 1.389 . S
C539 H518 0.950 . S
C539 C538 1.373 . S
C539 C555 1.377 . S
C540 C538 1.389 . S
C540 C541 1.524 . S
C540 C554 1.377 . S
C541 C540 1.524 . S
C541 C542 1.397 . S
C541 C546 1.363 . S
C542 H519 0.950 . S
C542 C541 1.397 . S
C542 C543 1.334 . S
C543 H520 0.950 . S
C543 C542 1.334 . S
C543 C544 1.287 . S
C544 C543 1.287 . S
C544 C545 1.524 . S
C544 H563 0.913 . S
C545 H521 0.950 . S
C545 C544 1.524 . S
C545 C546 1.415 . S
C546 H522 0.950 . S
C546 C541 1.363 . S
C546 C545 1.415 . S
C547 H523 0.951 . S
C547 C548 1.366 . S
C547 C549 1.388 . S
C548 C547 1.366 . S
C548 C552 1.385 . S
C549 H524 0.951 . S
C549 C547 1.388 . S
C549 C550 1.366 . S
C550 C549 1.366 . S
C550 C551 1.414 . S
C550 C553 1.499 . S
C551 H525 0.950 . S
C551 C550 1.414 . S
C551 C552 1.374 . S
C552 H526 0.950 . S
C552 C548 1.385 . S
C552 C551 1.374 . S
C553 C550 1.499 . S
C553 C554 1.373 . S
C553 C555 1.389 . S
C554 H527 0.950 . S
C554 C540 1.377 . S
C554 C553 1.373 . S
C555 C539 1.377 . S
C555 C553 1.389 . S
C555 C556 1.524 . S
C556 C555 1.524 . S
C556 C557 1.397 . S
C556 C561 1.363 . S
C557 H528 0.950 . S
C557 C556 1.397 . S
C557 C558 1.334 . S
C558 H529 0.950 . S
C558 C557 1.334 . S
C558 C559 1.287 . S
C559 C558 1.287 . S
C559 C560 1.524 . S
C559 H562 0.999 . S
C560 H530 0.950 . S
C560 C559 1.524 . S
C560 C561 1.415 . S
C561 H531 0.950 . S
C561 C556 1.363 . S
C561 C560 1.415 . S
H562 C559 0.999 . S
H563 C544 0.913 . S
H564 C582 0.951 . S
H565 C584 0.951 . S
H566 C586 0.950 . S
H567 C587 0.950 . S
H568 C589 0.950 . S
H569 C592 0.950 . S
H570 C593 0.950 . S
H571 C595 0.950 . S
H572 C596 0.950 . S
H573 C597 0.951 . S
H574 C599 0.951 . S
H575 C601 0.950 . S
H576 C602 0.950 . S
H577 C604 0.950 . S
H578 C607 0.950 . S
H579 C608 0.950 . S
H580 C610 0.950 . S
H581 C611 0.950 . S
C582 H564 0.951 . S
C582 C583 1.366 . S
C582 C584 1.388 . S
C583 C582 1.366 . S
C583 C587 1.385 . S
C584 H565 0.951 . S
C584 C582 1.388 . S
C584 C585 1.366 . S
C585 C584 1.366 . S
C585 C586 1.414 . S
C585 C588 1.499 . S
C586 H566 0.950 . S
C586 C585 1.414 . S
C586 C587 1.374 . S
C587 H567 0.950 . S
C587 C583 1.385 . S
C587 C586 1.374 . S
C588 C585 1.499 . S
C588 C589 1.373 . S
C588 C590 1.389 . S
C589 H568 0.950 . S
C589 C588 1.373 . S
C589 C605 1.377 . S
C590 C588 1.389 . S
C590 C591 1.524 . S
C590 C604 1.377 . S
C591 C590 1.524 . S
C591 C592 1.397 . S
C591 C596 1.363 . S
C592 H569 0.950 . S
C592 C591 1.397 . S
C592 C593 1.334 . S
C593 H570 0.950 . S
C593 C592 1.334 . S
C593 C594 1.287 . S
C594 C593 1.287 . S
C594 C595 1.524 . S
C594 H613 0.913 . S
C595 H571 0.950 . S
C595 C594 1.524 . S
C595 C596 1.415 . S
C596 H572 0.950 . S
C596 C591 1.363 . S
C596 C595 1.415 . S
C597 H573 0.951 . S
C597 C598 1.366 . S
C597 C599 1.388 . S
C598 C597 1.366 . S
C598 C602 1.385 . S
C599 H574 0.951 . S
C599 C597 1.388 . S
C599 C600 1.366 . S
C600 C599 1.366 . S
C600 C601 1.414 . S
C600 C603 1.499 . S
C601 H575 0.950 . S
C601 C600 1.414 . S
C601 C602 1.374 . S
C602 H576 0.950 . S
C602 C598 1.385 . S
C602 C601 1.374 . S
C603 C600 1.499 . S
C603 C604 1.373 . S
C603 C605 1.389 . S
C604 H577 0.950 . S
C604 C590 1.377 . S
C604 C603 1.373 . S
C605 C589 1.377 . S
C605 C603 1.389 . S
C605 C606 1.524 1_554 S
C606 C605 1.524 1_556 S
C606 C607 1.397 . S
C606 C611 1.363 . S
C607 H578 0.950 . S
C607 C606 1.397 . S
C607 C608 1.334 . S
C608 H579 0.950 . S
C608 C607 1.334 . S
C608 C609 1.287 . S
C609 C608 1.287 . S
C609 C610 1.524 . S
C609 H612 0.999 . S
C610 H580 0.950 . S
C610 C609 1.524 . S
C610 C611 1.415 . S
C611 H581 0.950 . S
C611 C606 1.363 . S
C611 C610 1.415 . S
H612 C609 0.999 . S
H613 C594 0.913 . S
H614 C632 0.951 . S
H615 C634 0.951 . S
H616 C636 0.950 . S
H617 C637 0.950 . S
H618 C639 0.950 . S
H619 C642 0.950 . S
H620 C643 0.950 . S
H621 C645 0.950 . S
H622 C646 0.950 . S
H623 C647 0.951 . S
H624 C649 0.951 . S
H625 C651 0.950 . S
H626 C652 0.950 . S
H627 C654 0.950 . S
H628 C657 0.950 . S
H629 C658 0.950 . S
H630 C660 0.950 . S
H631 C661 0.950 . S
C632 H614 0.951 . S
C632 C633 1.366 . S
C632 C634 1.388 . S
C633 C632 1.366 . S
C633 C637 1.385 . S
C634 H615 0.951 . S
C634 C632 1.388 . S
C634 C635 1.366 . S
C635 C634 1.366 . S
C635 C636 1.414 . S
C635 C638 1.499 . S
C636 H616 0.950 . S
C636 C635 1.414 . S
C636 C637 1.374 . S
C637 H617 0.950 . S
C637 C633 1.385 . S
C637 C636 1.374 . S
C638 C635 1.499 . S
C638 C639 1.373 . S
C638 C640 1.389 . S
C639 H618 0.950 . S
C639 C638 1.373 . S
C639 C655 1.377 . S
C640 C638 1.389 . S
C640 C641 1.524 . S
C640 C654 1.377 . S
C641 C640 1.524 . S
C641 C642 1.397 . S
C641 C646 1.363 . S
C642 H619 0.950 . S
C642 C641 1.397 . S
C642 C643 1.334 . S
C643 H620 0.950 . S
C643 C642 1.334 . S
C643 C644 1.287 . S
C644 C643 1.287 . S
C644 C645 1.524 . S
C644 H663 0.913 . S
C645 H621 0.950 . S
C645 C644 1.524 . S
C645 C646 1.415 . S
C646 H622 0.950 . S
C646 C641 1.363 . S
C646 C645 1.415 . S
C647 H623 0.951 . S
C647 C648 1.366 . S
C647 C649 1.388 . S
C648 C647 1.366 . S
C648 C652 1.385 . S
C649 H624 0.951 . S
C649 C647 1.388 . S
C649 C650 1.366 . S
C650 C649 1.366 . S
C650 C651 1.414 . S
C650 C653 1.499 . S
C651 H625 0.950 . S
C651 C650 1.414 . S
C651 C652 1.374 . S
C652 H626 0.950 . S
C652 C648 1.385 . S
C652 C651 1.374 . S
C653 C650 1.499 . S
C653 C654 1.373 . S
C653 C655 1.389 . S
C654 H627 0.950 . S
C654 C640 1.377 . S
C654 C653 1.373 . S
C655 C639 1.377 . S
C655 C653 1.389 . S
C655 C656 1.524 . S
C656 C655 1.524 . S
C656 C657 1.397 . S
C656 C661 1.363 . S
C657 H628 0.950 . S
C657 C656 1.397 . S
C657 C658 1.334 . S
C658 H629 0.950 . S
C658 C657 1.334 . S
C658 C659 1.287 . S
C659 C658 1.287 . S
C659 C660 1.524 . S
C659 H662 0.999 . S
C660 H630 0.950 . S
C660 C659 1.524 . S
C660 C661 1.415 . S
C661 H631 0.950 . S
C661 C656 1.363 . S
C661 C660 1.415 . S
H662 C659 0.999 . S
H663 C644 0.913 . S
H664 C682 0.951 . S
H665 C684 0.951 . S
H666 C686 0.950 . S
H667 C687 0.950 . S
H668 C689 0.950 . S
H669 C692 0.950 1_554 S
H670 C693 0.950 . S
H671 C695 0.950 . S
H672 C696 0.950 . S
H673 C697 0.951 . S
H674 C699 0.951 . S
H675 C701 0.950 1_556 S
H676 C702 0.950 1_556 S
H677 C704 0.950 1_556 S
H678 C707 0.950 . S
H679 C708 0.950 . S
H680 C710 0.950 . S
H681 C711 0.950 . S
C682 H664 0.951 . S
C682 C683 1.366 1_556 S
C682 C684 1.388 . S
C683 C682 1.366 1_554 S
C683 C687 1.385 . S
C684 H665 0.951 . S
C684 C682 1.388 . S
C684 C685 1.366 1_556 S
C685 C684 1.366 1_554 S
C685 C686 1.414 . S
C685 C688 1.499 . S
C686 H666 0.950 . S
C686 C685 1.414 . S
C686 C687 1.374 . S
C687 H667 0.950 . S
C687 C683 1.385 . S
C687 C686 1.374 . S
C688 C685 1.499 . S
C688 C689 1.373 . S
C688 C690 1.389 . S
C689 H668 0.950 . S
C689 C688 1.373 . S
C689 C705 1.377 . S
C690 C688 1.389 . S
C690 C691 1.524 1_554 S
C690 C704 1.377 . S
C691 C690 1.524 1_556 S
C691 C692 1.397 . S
C691 C696 1.363 . S
C692 H669 0.950 1_556 S
C692 C691 1.397 . S
C692 C693 1.334 . S
C693 H670 0.950 . S
C693 C692 1.334 . S
C693 C694 1.287 . S
C694 C693 1.287 . S
C694 C695 1.524 . S
C694 H713 0.913 . S
C695 H671 0.950 . S
C695 C694 1.524 . S
C695 C696 1.415 . S
C696 H672 0.950 . S
C696 C691 1.363 . S
C696 C695 1.415 . S
C697 H673 0.951 . S
C697 C698 1.366 . S
C697 C699 1.388 . S
C698 C697 1.366 . S
C698 C702 1.385 . S
C699 H674 0.951 . S
C699 C697 1.388 . S
C699 C700 1.366 . S
C700 C699 1.366 . S
C700 C701 1.414 . S
C700 C703 1.499 . S
C701 H675 0.950 1_554 S
C701 C700 1.414 . S
C701 C702 1.374 . S
C702 H676 0.950 1_554 S
C702 C698 1.385 . S
C702 C701 1.374 . S
C703 C700 1.499 . S
C703 C704 1.373 . S
C703 C705 1.389 . S
C704 H677 0.950 1_554 S
C704 C690 1.377 . S
C704 C703 1.373 . S
C705 C689 1.377 . S
C705 C703 1.389 . S
C705 C706 1.524 . S
C706 C705 1.524 . S
C706 C707 1.397 . S
C706 C711 1.363 . S
C707 H678 0.950 . S
C707 C706 1.397 . S
C707 C708 1.334 . S
C708 H679 0.950 . S
C708 C707 1.334 . S
C708 C709 1.287 . S
C709 C708 1.287 . S
C709 C710 1.524 . S
C709 H712 0.999 . S
C710 H680 0.950 . S
C710 C709 1.524 . S
C710 C711 1.415 . S
C711 H681 0.950 . S
C711 C706 1.363 . S
C711 C710 1.415 . S
H712 C709 0.999 . S
H713 C694 0.913 . S
H714 C732 0.951 . S
H715 C734 0.951 . S
H716 C736 0.950 . S
H717 C737 0.950 . S
H718 C739 0.950 . S
H719 C742 0.950 . S
H720 C743 0.950 . S
H721 C745 0.950 . S
H722 C746 0.950 . S
H723 C747 0.951 . S
H724 C749 0.951 . S
H725 C751 0.950 . S
H726 C752 0.950 . S
H727 C754 0.950 . S
H728 C757 0.950 . S
H729 C758 0.950 . S
H730 C760 0.950 . S
H731 C761 0.950 . S
C732 H714 0.951 . S
C732 C733 1.366 . S
C732 C734 1.388 . S
C733 C732 1.366 . S
C733 C737 1.385 . S
C734 H715 0.951 . S
C734 C732 1.388 . S
C734 C735 1.366 . S
C735 C734 1.366 . S
C735 C736 1.414 . S
C735 C738 1.499 . S
C736 H716 0.950 . S
C736 C735 1.414 . S
C736 C737 1.374 . S
C737 H717 0.950 . S
C737 C733 1.385 . S
C737 C736 1.374 . S
C738 C735 1.499 . S
C738 C739 1.373 . S
C738 C740 1.389 . S
C739 H718 0.950 . S
C739 C738 1.373 . S
C739 C755 1.377 . S
C740 C738 1.389 . S
C740 C741 1.524 . S
C740 C754 1.377 . S
C741 C740 1.524 . S
C741 C742 1.397 . S
C741 C746 1.363 . S
C742 H719 0.950 . S
C742 C741 1.397 . S
C742 C743 1.334 . S
C743 H720 0.950 . S
C743 C742 1.334 . S
C743 C744 1.287 . S
C744 C743 1.287 . S
C744 C745 1.524 . S
C744 H763 0.913 . S
C745 H721 0.950 . S
C745 C744 1.524 . S
C745 C746 1.415 . S
C746 H722 0.950 . S
C746 C741 1.363 . S
C746 C745 1.415 . S
C747 H723 0.951 . S
C747 C748 1.366 . S
C747 C749 1.388 . S
C748 C747 1.366 . S
C748 C752 1.385 . S
C749 H724 0.951 . S
C749 C747 1.388 . S
C749 C750 1.366 . S
C750 C749 1.366 . S
C750 C751 1.414 . S
C750 C753 1.499 . S
C751 H725 0.950 . S
C751 C750 1.414 . S
C751 C752 1.374 . S
C752 H726 0.950 . S
C752 C748 1.385 . S
C752 C751 1.374 . S
C753 C750 1.499 . S
C753 C754 1.373 . S
C753 C755 1.389 . S
C754 H727 0.950 . S
C754 C740 1.377 . S
C754 C753 1.373 . S
C755 C739 1.377 . S
C755 C753 1.389 . S
C755 C756 1.524 . S
C756 C755 1.524 . S
C756 C757 1.397 . S
C756 C761 1.363 . S
C757 H728 0.950 . S
C757 C756 1.397 . S
C757 C758 1.334 . S
C758 H729 0.950 . S
C758 C757 1.334 . S
C758 C759 1.287 . S
C759 C758 1.287 . S
C759 C760 1.524 . S
C759 H762 0.999 . S
C760 H730 0.950 . S
C760 C759 1.524 . S
C760 C761 1.415 . S
C761 H731 0.950 . S
C761 C756 1.363 . S
C761 C760 1.415 . S
H762 C759 0.999 . S
H763 C744 0.913 . S
H764 C782 0.951 . S
H765 C784 0.951 . S
H766 C786 0.950 . S
H767 C787 0.950 . S
H768 C789 0.950 . S
H769 C792 0.950 . S
H770 C793 0.957 . S
H771 C795 0.950 . S
H772 C796 0.950 . S
H773 C797 0.951 . S
H774 C799 0.951 . S
H775 C801 0.950 . S
H776 C802 0.950 . S
H777 C804 0.950 . S
H778 C807 0.932 1_556 S
H779 C808 0.950 . S
H780 C810 0.950 . S
H781 C811 0.950 . S
C782 H764 0.951 . S
C782 C783 1.366 1_556 S
C782 C784 1.388 . S
C783 C782 1.366 1_554 S
C783 C787 1.385 . S
C784 H765 0.951 . S
C784 C782 1.388 . S
C784 C785 1.366 1_556 S
C785 C784 1.366 1_554 S
C785 C786 1.414 . S
C785 C788 1.508 . S
C786 H766 0.950 . S
C786 C785 1.414 . S
C786 C787 1.374 . S
C787 H767 0.950 . S
C787 C783 1.385 . S
C787 C786 1.374 . S
C788 C785 1.508 . S
C788 C789 1.391 1_455 S
C788 C790 1.365 1_565 S
C789 H768 0.950 . S
C789 C788 1.391 1_655 S
C789 C805 1.377 . S
C790 C788 1.365 1_545 S
C790 C791 1.524 1_554 S
C790 C804 1.377 1_454 S
C791 C790 1.524 1_556 S
C791 C792 1.397 1_556 S
C791 C796 1.363 . S
C792 H769 0.950 . S
C792 C791 1.397 1_554 S
C792 C793 1.339 . S
C793 H770 0.957 . S
C793 C792 1.339 . S
C793 C794 1.275 1_554 S
C794 C793 1.275 1_556 S
C794 C795 1.524 . S
C794 H813 0.913 . S
C795 H771 0.950 . S
C795 C794 1.524 . S
C795 C796 1.415 . S
C796 H772 0.950 . S
C796 C791 1.363 . S
C796 C795 1.415 . S
C797 H773 0.951 . S
C797 C798 1.366 . S
C797 C799 1.388 . S
C798 C797 1.366 . S
C798 C802 1.385 1_554 S
C799 H774 0.951 . S
C799 C797 1.388 . S
C799 C800 1.366 . S
C800 C799 1.366 . S
C800 C801 1.414 1_554 S
C800 C803 1.499 . S
C801 H775 0.950 . S
C801 C800 1.414 1_556 S
C801 C802 1.374 . S
C802 H776 0.950 . S
C802 C798 1.385 1_556 S
C802 C801 1.374 . S
C803 C800 1.499 . S
C803 C804 1.373 1_554 S
C803 C805 1.389 1_545 S
C804 H777 0.950 . S
C804 C790 1.377 1_656 S
C804 C803 1.373 1_556 S
C805 C789 1.377 . S
C805 C803 1.389 1_565 S
C805 C806 1.524 . S
C806 C805 1.524 . S
C806 C807 1.397 . S
C806 C811 1.363 . S
C807 H778 0.932 1_554 S
C807 C806 1.397 . S
C807 C808 1.334 . S
C808 H779 0.950 . S
C808 C807 1.334 . S
C808 C809 1.287 . S
C809 C808 1.287 . S
C809 C810 1.524 . S
C809 H812 0.999 . S
C810 H780 0.950 . S
C810 C809 1.524 . S
C810 C811 1.415 . S
C811 H781 0.950 . S
C811 C806 1.363 . S
C811 C810 1.415 . S
H812 C809 0.999 . S
H813 C794 0.913 . S
H814 C832 0.951 . S
H815 C834 0.951 . S
H816 C836 0.950 . S
H817 C837 0.950 1_455 S
H818 C839 0.950 . S
H819 C842 0.954 . S
H820 C843 0.950 1_455 S
H821 C845 0.950 . S
H822 C846 0.950 . S
H823 C847 0.951 . S
H824 C849 0.951 . S
H825 C851 0.950 1_655 S
H826 C852 0.950 . S
H827 C854 0.950 1_655 S
H828 C857 0.950 1_655 S
H829 C858 0.950 . S
H830 C860 0.950 . S
H831 C861 0.950 1_565 S
C832 H814 0.951 . S
C832 C833 1.366 . S
C832 C834 1.388 . S
C833 C832 1.366 . S
C833 C837 1.385 . S
C834 H815 0.951 . S
C834 C832 1.388 . S
C834 C835 1.366 . S
C835 C834 1.366 . S
C835 C836 1.414 1_655 S
C835 C838 1.499 . S
C836 H816 0.950 . S
C836 C835 1.414 1_455 S
C836 C837 1.374 1_455 S
C837 H817 0.950 1_655 S
C837 C833 1.385 . S
C837 C836 1.374 1_655 S
C838 C835 1.499 . S
C838 C839 1.373 1_655 S
C838 C840 1.389 . S
C839 H818 0.950 . S
C839 C838 1.373 1_455 S
C839 C855 1.377 1_565 S
C840 C838 1.389 . S
C840 C841 1.524 . S
C840 C854 1.377 1_665 S
C841 C840 1.524 . S
C841 C842 1.393 1_655 S
C841 C846 1.363 . S
C842 H819 0.954 . S
C842 C841 1.393 1_455 S
C842 C843 1.333 1_455 S
C843 H820 0.950 1_655 S
C843 C842 1.333 1_655 S
C843 C844 1.287 . S
C844 C843 1.287 . S
C844 C845 1.524 . S
C844 H863 0.913 . S
C845 H821 0.950 . S
C845 C844 1.524 . S
C845 C846 1.415 . S
C846 H822 0.950 . S
C846 C841 1.363 . S
C846 C845 1.415 . S
C847 H823 0.951 . S
C847 C848 1.366 . S
C847 C849 1.388 . S
C848 C847 1.366 . S
C848 C852 1.385 . S
C849 H824 0.951 . S
C849 C847 1.388 . S
C849 C850 1.366 . S
C850 C849 1.366 . S
C850 C851 1.414 . S
C850 C853 1.499 . S
C851 H825 0.950 1_455 S
C851 C850 1.414 . S
C851 C852 1.374 . S
C852 H826 0.950 . S
C852 C848 1.385 . S
C852 C851 1.374 . S
C853 C850 1.499 . S
C853 C854 1.373 . S
C853 C855 1.389 . S
C854 H827 0.950 1_455 S
C854 C840 1.377 1_445 S
C854 C853 1.373 . S
C855 C839 1.377 1_545 S
C855 C853 1.389 . S
C855 C856 1.524 . S
C856 C855 1.524 . S
C856 C857 1.397 . S
C856 C861 1.363 . S
C857 H828 0.950 1_455 S
C857 C856 1.397 . S
C857 C858 1.334 . S
C858 H829 0.950 . S
C858 C857 1.334 . S
C858 C859 1.287 . S
C859 C858 1.287 . S
C859 C860 1.524 . S
C859 H862 0.999 . S
C860 H830 0.950 . S
C860 C859 1.524 . S
C860 C861 1.415 . S
C861 H831 0.950 1_545 S
C861 C856 1.363 . S
C861 C860 1.415 . S
H862 C859 0.999 . S
H863 C844 0.913 . S
H864 C882 0.951 . S
H865 C884 0.951 . S
H866 C886 0.950 . S
H867 C887 0.950 . S
H868 C889 0.950 . S
H869 C892 0.950 . S
H870 C893 0.950 . S
H871 C895 0.950 . S
H872 C896 0.950 . S
H873 C897 0.951 . S
H874 C899 0.951 . S
H875 C901 0.950 . S
H876 C902 0.950 . S
H877 C904 0.950 . S
H878 C907 0.950 . S
H879 C908 0.950 . S
H880 C910 0.950 . S
H881 C911 0.950 . S
C882 H864 0.951 . S
C882 C883 1.366 . S
C882 C884 1.388 . S
C883 C882 1.366 . S
C883 C887 1.385 . S
C884 H865 0.951 . S
C884 C882 1.388 . S
C884 C885 1.366 . S
C885 C884 1.366 . S
C885 C886 1.414 . S
C885 C888 1.499 . S
C886 H866 0.950 . S
C886 C885 1.414 . S
C886 C887 1.374 . S
C887 H867 0.950 . S
C887 C883 1.385 . S
C887 C886 1.374 . S
C888 C885 1.499 . S
C888 C889 1.373 . S
C888 C890 1.389 . S
C889 H868 0.950 . S
C889 C888 1.373 . S
C889 C905 1.377 . S
C890 C888 1.389 . S
C890 C891 1.524 . S
C890 C904 1.377 . S
C891 C890 1.524 . S
C891 C892 1.397 . S
C891 C896 1.363 . S
C892 H869 0.950 . S
C892 C891 1.397 . S
C892 C893 1.334 . S
C893 H870 0.950 . S
C893 C892 1.334 . S
C893 C894 1.287 . S
C894 C893 1.287 . S
C894 C895 1.524 . S
C894 H913 0.913 . S
C895 H871 0.950 . S
C895 C894 1.524 . S
C895 C896 1.415 . S
C896 H872 0.950 . S
C896 C891 1.363 . S
C896 C895 1.415 . S
C897 H873 0.951 . S
C897 C898 1.366 . S
C897 C899 1.388 . S
C898 C897 1.366 . S
C898 C902 1.385 . S
C899 H874 0.951 . S
C899 C897 1.388 . S
C899 C900 1.366 . S
C900 C899 1.366 . S
C900 C901 1.414 . S
C900 C903 1.499 . S
C901 H875 0.950 . S
C901 C900 1.414 . S
C901 C902 1.374 . S
C902 H876 0.950 . S
C902 C898 1.385 . S
C902 C901 1.374 . S
C903 C900 1.499 . S
C903 C904 1.373 . S
C903 C905 1.389 . S
C904 H877 0.950 . S
C904 C890 1.377 . S
C904 C903 1.373 . S
C905 C889 1.377 . S
C905 C903 1.389 . S
C905 C906 1.524 . S
C906 C905 1.524 . S
C906 C907 1.397 . S
C906 C911 1.363 . S
C907 H878 0.950 . S
C907 C906 1.397 . S
C907 C908 1.334 . S
C908 H879 0.950 . S
C908 C907 1.334 . S
C908 C909 1.287 . S
C909 C908 1.287 . S
C909 C910 1.524 . S
C909 H912 0.999 . S
C910 H880 0.950 . S
C910 C909 1.524 . S
C910 C911 1.415 . S
C911 H881 0.950 . S
C911 C906 1.363 . S
C911 C910 1.415 . S
H912 C909 0.999 . S
H913 C894 0.913 . S
H914 C932 0.951 . S
H915 C934 0.951 . S
H916 C936 0.950 . S
H917 C937 0.950 . S
H918 C939 0.950 . S
H919 C942 0.950 . S
H920 C943 0.950 . S
H921 C945 0.950 . S
H922 C946 0.950 . S
H923 C947 0.951 . S
H924 C949 0.951 . S
H925 C951 0.950 . S
H926 C952 0.950 . S
H927 C954 0.950 . S
H928 C957 0.950 . S
H929 C958 0.950 . S
H930 C960 0.950 . S
H931 C961 0.950 . S
C932 H914 0.951 . S
C932 C933 1.366 . S
C932 C934 1.388 . S
C933 C932 1.366 . S
C933 C937 1.385 . S
C934 H915 0.951 . S
C934 C932 1.388 . S
C934 C935 1.366 . S
C935 C934 1.366 . S
C935 C936 1.414 . S
C935 C938 1.499 . S
C936 H916 0.950 . S
C936 C935 1.414 . S
C936 C937 1.374 . S
C937 H917 0.950 . S
C937 C933 1.385 . S
C937 C936 1.374 . S
C938 C935 1.499 . S
C938 C939 1.373 . S
C938 C940 1.389 . S
C939 H918 0.950 . S
C939 C938 1.373 . S
C939 C955 1.377 . S
C940 C938 1.389 . S
C940 C941 1.524 . S
C940 C954 1.377 . S
C941 C940 1.524 . S
C941 C942 1.397 . S
C941 C946 1.363 . S
C942 H919 0.950 . S
C942 C941 1.397 . S
C942 C943 1.334 . S
C943 H920 0.950 . S
C943 C942 1.334 . S
C943 C944 1.287 . S
C944 C943 1.287 . S
C944 C945 1.524 . S
C944 H963 0.913 . S
C945 H921 0.950 . S
C945 C944 1.524 . S
C945 C946 1.415 . S
C946 H922 0.950 . S
C946 C941 1.363 . S
C946 C945 1.415 . S
C947 H923 0.951 . S
C947 C948 1.366 . S
C947 C949 1.388 . S
C948 C947 1.366 . S
C948 C952 1.385 . S
C949 H924 0.951 . S
C949 C947 1.388 . S
C949 C950 1.366 . S
C950 C949 1.366 . S
C950 C951 1.414 . S
C950 C953 1.499 . S
C951 H925 0.950 . S
C951 C950 1.414 . S
C951 C952 1.374 . S
C952 H926 0.950 . S
C952 C948 1.385 . S
C952 C951 1.374 . S
C953 C950 1.499 . S
C953 C954 1.373 . S
C953 C955 1.389 . S
C954 H927 0.950 . S
C954 C940 1.377 . S
C954 C953 1.373 . S
C955 C939 1.377 . S
C955 C953 1.389 . S
C955 C956 1.524 . S
C956 C955 1.524 . S
C956 C957 1.397 . S
C956 C961 1.363 . S
C957 H928 0.950 . S
C957 C956 1.397 . S
C957 C958 1.334 . S
C958 H929 0.950 . S
C958 C957 1.334 . S
C958 C959 1.287 . S
C959 C958 1.287 . S
C959 C960 1.524 . S
C959 H962 0.999 . S
C960 H930 0.950 . S
C960 C959 1.524 . S
C960 C961 1.415 . S
C961 H931 0.950 . S
C961 C956 1.363 . S
C961 C960 1.415 . S
H962 C959 0.999 . S
H963 C944 0.913 . S
H964 C982 0.951 . S
H965 C984 0.951 . S
H966 C986 0.950 . S
H967 C987 0.950 . S
H968 C989 0.950 . S
H969 C992 0.950 . S
H970 C993 0.950 . S
H971 C995 0.950 . S
H972 C996 0.950 . S
H973 C997 0.951 . S
H974 C999 0.951 . S
H975 C1001 0.950 . S
H976 C1002 0.950 . S
H977 C1004 0.950 . S
H978 C1007 0.950 . S
H979 C1008 0.950 . S
H980 C1010 0.950 . S
H981 C1011 0.950 . S
C982 H964 0.951 . S
C982 C983 1.366 . S
C982 C984 1.388 . S
C983 C982 1.366 . S
C983 C987 1.385 . S
C984 H965 0.951 . S
C984 C982 1.388 . S
C984 C985 1.366 . S
C985 C984 1.366 . S
C985 C986 1.414 . S
C985 C988 1.499 . S
C986 H966 0.950 . S
C986 C985 1.414 . S
C986 C987 1.374 . S
C987 H967 0.950 . S
C987 C983 1.385 . S
C987 C986 1.374 . S
C988 C985 1.499 . S
C988 C989 1.373 . S
C988 C990 1.389 . S
C989 H968 0.950 . S
C989 C988 1.373 . S
C989 C1005 1.377 . S
C990 C988 1.389 . S
C990 C991 1.524 . S
C990 C1004 1.377 . S
C991 C990 1.524 . S
C991 C992 1.397 . S
C991 C996 1.363 . S
C992 H969 0.950 . S
C992 C991 1.397 . S
C992 C993 1.334 . S
C993 H970 0.950 . S
C993 C992 1.334 . S
C993 C994 1.287 . S
C994 C993 1.287 . S
C994 C995 1.524 . S
C994 H1013 0.913 . S
C995 H971 0.950 . S
C995 C994 1.524 . S
C995 C996 1.415 . S
C996 H972 0.950 . S
C996 C991 1.363 . S
C996 C995 1.415 . S
C997 H973 0.951 . S
C997 C998 1.366 . S
C997 C999 1.388 . S
C998 C997 1.366 . S
C998 C1002 1.385 . S
C999 H974 0.951 . S
C999 C997 1.388 . S
C999 C1000 1.366 . S
C1000 C999 1.366 . S
C1000 C1001 1.414 . S
C1000 C1003 1.499 . S
C1001 H975 0.950 . S
C1001 C1000 1.414 . S
C1001 C1002 1.374 . S
C1002 H976 0.950 . S
C1002 C998 1.385 . S
C1002 C1001 1.374 . S
C1003 C1000 1.499 . S
C1003 C1004 1.373 . S
C1003 C1005 1.389 . S
C1004 H977 0.950 . S
C1004 C990 1.377 . S
C1004 C1003 1.373 . S
C1005 C989 1.377 . S
C1005 C1003 1.389 . S
C1005 C1006 1.524 . S
C1006 C1005 1.524 . S
C1006 C1007 1.397 . S
C1006 C1011 1.363 . S
C1007 H978 0.950 . S
C1007 C1006 1.397 . S
C1007 C1008 1.334 . S
C1008 H979 0.950 . S
C1008 C1007 1.334 . S
C1008 C1009 1.287 . S
C1009 C1008 1.287 . S
C1009 C1010 1.524 . S
C1009 H1012 0.999 . S
C1010 H980 0.950 . S
C1010 C1009 1.524 . S
C1010 C1011 1.415 . S
C1011 H981 0.950 . S
C1011 C1006 1.363 . S
C1011 C1010 1.415 . S
H1012 C1009 0.999 . S
H1013 C994 0.913 . S
H1014 C1032 0.951 . S
H1015 C1034 0.951 . S
H1016 C1036 0.950 . S
H1017 C1037 0.950 . S
H1018 C1039 0.950 . S
H1019 C1042 0.950 . S
H1020 C1043 0.950 1_545 S
H1021 C1045 0.950 . S
H1022 C1046 0.950 . S
H1023 C1047 0.951 . S
H1024 C1049 0.951 . S
H1025 C1051 0.950 . S
H1026 C1052 0.950 . S
H1027 C1054 0.950 . S
H1028 C1057 0.950 . S
H1029 C1058 0.950 . S
H1030 C1060 0.950 . S
H1031 C1061 0.950 . S
C1032 H1014 0.951 . S
C1032 C1033 1.366 . S
C1032 C1034 1.388 . S
C1033 C1032 1.366 . S
C1033 C1037 1.385 . S
C1034 H1015 0.951 . S
C1034 C1032 1.388 . S
C1034 C1035 1.366 . S
C1035 C1034 1.366 . S
C1035 C1036 1.414 . S
C1035 C1038 1.499 . S
C1036 H1016 0.950 . S
C1036 C1035 1.414 . S
C1036 C1037 1.374 . S
C1037 H1017 0.950 . S
C1037 C1033 1.385 . S
C1037 C1036 1.374 . S
C1038 C1035 1.499 . S
C1038 C1039 1.373 . S
C1038 C1040 1.389 . S
C1039 H1018 0.950 . S
C1039 C1038 1.373 . S
C1039 C1055 1.377 . S
C1040 C1038 1.389 . S
C1040 C1041 1.524 . S
C1040 C1054 1.377 . S
C1041 C1040 1.524 . S
C1041 C1042 1.397 . S
C1041 C1046 1.363 . S
C1042 H1019 0.950 . S
C1042 C1041 1.397 . S
C1042 C1043 1.334 . S
C1043 H1020 0.950 1_565 S
C1043 C1042 1.334 . S
C1043 C1044 1.287 . S
C1044 C1043 1.287 . S
C1044 C1045 1.524 . S
C1044 H1063 0.913 1_565 S
C1045 H1021 0.950 . S
C1045 C1044 1.524 . S
C1045 C1046 1.415 . S
C1046 H1022 0.950 . S
C1046 C1041 1.363 . S
C1046 C1045 1.415 . S
C1047 H1023 0.951 . S
C1047 C1048 1.366 . S
C1047 C1049 1.388 . S
C1048 C1047 1.366 . S
C1048 C1052 1.385 . S
C1049 H1024 0.951 . S
C1049 C1047 1.388 . S
C1049 C1050 1.366 . S
C1050 C1049 1.366 . S
C1050 C1051 1.414 . S
C1050 C1053 1.499 . S
C1051 H1025 0.950 . S
C1051 C1050 1.414 . S
C1051 C1052 1.374 . S
C1052 H1026 0.950 . S
C1052 C1048 1.385 . S
C1052 C1051 1.374 . S
C1053 C1050 1.499 . S
C1053 C1054 1.373 . S
C1053 C1055 1.389 . S
C1054 H1027 0.950 . S
C1054 C1040 1.377 . S
C1054 C1053 1.373 . S
C1055 C1039 1.377 . S
C1055 C1053 1.389 . S
C1055 C1056 1.524 . S
C1056 C1055 1.524 . S
C1056 C1057 1.397 . S
C1056 C1061 1.363 . S
C1057 H1028 0.950 . S
C1057 C1056 1.397 . S
C1057 C1058 1.334 . S
C1058 H1029 0.950 . S
C1058 C1057 1.334 . S
C1058 C1059 1.287 . S
C1059 C1058 1.287 . S
C1059 C1060 1.524 . S
C1059 H1062 0.999 . S
C1060 H1030 0.950 . S
C1060 C1059 1.524 . S
C1060 C1061 1.415 . S
C1061 H1031 0.950 . S
C1061 C1056 1.363 . S
C1061 C1060 1.415 . S
H1062 C1059 0.999 . S
H1063 C1044 0.913 1_545 S
H1064 C1082 0.951 . S
H1065 C1084 0.951 . S
H1066 C1086 0.950 . S
H1067 C1087 0.950 . S
H1068 C1089 0.950 . S
H1069 C1092 0.950 . S
H1070 C1093 0.950 . S
H1071 C1095 0.950 . S
H1072 C1096 0.950 . S
H1073 C1097 0.951 . S
H1074 C1099 0.951 . S
H1075 C1101 0.950 . S
H1076 C1102 0.950 . S
H1077 C1104 0.950 . S
H1078 C1107 0.950 . S
H1079 C1108 0.950 . S
H1080 C1110 0.950 . S
H1081 C1111 0.950 . S
C1082 H1064 0.951 . S
C1082 C1083 1.366 . S
C1082 C1084 1.388 . S
C1083 C1082 1.366 . S
C1083 C1087 1.385 . S
C1084 H1065 0.951 . S
C1084 C1082 1.388 . S
C1084 C1085 1.366 . S
C1085 C1084 1.366 . S
C1085 C1086 1.414 . S
C1085 C1088 1.499 . S
C1086 H1066 0.950 . S
C1086 C1085 1.414 . S
C1086 C1087 1.374 . S
C1087 H1067 0.950 . S
C1087 C1083 1.385 . S
C1087 C1086 1.374 . S
C1088 C1085 1.499 . S
C1088 C1089 1.373 . S
C1088 C1090 1.389 . S
C1089 H1068 0.950 . S
C1089 C1088 1.373 . S
C1089 C1105 1.377 . S
C1090 C1088 1.389 . S
C1090 C1091 1.524 . S
C1090 C1104 1.377 . S
C1091 C1090 1.524 . S
C1091 C1092 1.397 . S
C1091 C1096 1.363 . S
C1092 H1069 0.950 . S
C1092 C1091 1.397 . S
C1092 C1093 1.334 . S
C1093 H1070 0.950 . S
C1093 C1092 1.334 . S
C1093 C1094 1.287 . S
C1094 C1093 1.287 . S
C1094 C1095 1.524 . S
C1094 H1113 0.913 . S
C1095 H1071 0.950 . S
C1095 C1094 1.524 . S
C1095 C1096 1.415 . S
C1096 H1072 0.950 . S
C1096 C1091 1.363 . S
C1096 C1095 1.415 . S
C1097 H1073 0.951 . S
C1097 C1098 1.366 . S
C1097 C1099 1.388 . S
C1098 C1097 1.366 . S
C1098 C1102 1.385 . S
C1099 H1074 0.951 . S
C1099 C1097 1.388 . S
C1099 C1100 1.366 . S
C1100 C1099 1.366 . S
C1100 C1101 1.414 . S
C1100 C1103 1.499 . S
C1101 H1075 0.950 . S
C1101 C1100 1.414 . S
C1101 C1102 1.374 . S
C1102 H1076 0.950 . S
C1102 C1098 1.385 . S
C1102 C1101 1.374 . S
C1103 C1100 1.499 . S
C1103 C1104 1.373 . S
C1103 C1105 1.389 . S
C1104 H1077 0.950 . S
C1104 C1090 1.377 . S
C1104 C1103 1.373 . S
C1105 C1089 1.377 . S
C1105 C1103 1.389 . S
C1105 C1106 1.524 . S
C1106 C1105 1.524 . S
C1106 C1107 1.397 . S
C1106 C1111 1.363 . S
C1107 H1078 0.950 . S
C1107 C1106 1.397 . S
C1107 C1108 1.334 . S
C1108 H1079 0.950 . S
C1108 C1107 1.334 . S
C1108 C1109 1.287 . S
C1109 C1108 1.287 . S
C1109 C1110 1.524 . S
C1109 H1112 0.999 . S
C1110 H1080 0.950 . S
C1110 C1109 1.524 . S
C1110 C1111 1.415 . S
C1111 H1081 0.950 . S
C1111 C1106 1.363 . S
C1111 C1110 1.415 . S
H1112 C1109 0.999 . S
H1113 C1094 0.913 . S
H1114 C1132 0.951 . S
H1115 C1134 0.951 . S
H1116 C1136 0.950 . S
H1117 C1137 0.950 . S
H1118 C1139 0.950 . S
H1119 C1142 0.950 . S
H1120 C1143 0.950 . S
H1121 C1145 0.950 . S
H1122 C1146 0.950 . S
H1123 C1147 0.951 . S
H1124 C1149 0.951 . S
H1125 C1151 0.950 . S
H1126 C1152 0.950 . S
H1127 C1154 0.950 . S
H1128 C1157 0.950 . S
H1129 C1158 0.950 . S
H1130 C1160 0.950 . S
H1131 C1161 0.950 . S
C1132 H1114 0.951 . S
C1132 C1133 1.366 . S
C1132 C1134 1.388 . S
C1133 C1132 1.366 . S
C1133 C1137 1.385 . S
C1134 H1115 0.951 . S
C1134 C1132 1.388 . S
C1134 C1135 1.366 . S
C1135 C1134 1.366 . S
C1135 C1136 1.414 . S
C1135 C1138 1.499 . S
C1136 H1116 0.950 . S
C1136 C1135 1.414 . S
C1136 C1137 1.374 . S
C1137 H1117 0.950 . S
C1137 C1133 1.385 . S
C1137 C1136 1.374 . S
C1138 C1135 1.499 . S
C1138 C1139 1.373 . S
C1138 C1140 1.389 . S
C1139 H1118 0.950 . S
C1139 C1138 1.373 . S
C1139 C1155 1.377 . S
C1140 C1138 1.389 . S
C1140 C1141 1.524 . S
C1140 C1154 1.377 . S
C1141 C1140 1.524 . S
C1141 C1142 1.397 . S
C1141 C1146 1.363 . S
C1142 H1119 0.950 . S
C1142 C1141 1.397 . S
C1142 C1143 1.334 . S
C1143 H1120 0.950 . S
C1143 C1142 1.334 . S
C1143 C1144 1.287 . S
C1144 C1143 1.287 . S
C1144 C1145 1.524 . S
C1144 H1163 0.913 . S
C1145 H1121 0.950 . S
C1145 C1144 1.524 . S
C1145 C1146 1.415 . S
C1146 H1122 0.950 . S
C1146 C1141 1.363 . S
C1146 C1145 1.415 . S
C1147 H1123 0.951 . S
C1147 C1148 1.366 . S
C1147 C1149 1.388 . S
C1148 C1147 1.366 . S
C1148 C1152 1.385 . S
C1149 H1124 0.951 . S
C1149 C1147 1.388 . S
C1149 C1150 1.366 . S
C1150 C1149 1.366 . S
C1150 C1151 1.414 . S
C1150 C1153 1.499 . S
C1151 H1125 0.950 . S
C1151 C1150 1.414 . S
C1151 C1152 1.374 . S
C1152 H1126 0.950 . S
C1152 C1148 1.385 . S
C1152 C1151 1.374 . S
C1153 C1150 1.499 . S
C1153 C1154 1.373 . S
C1153 C1155 1.389 . S
C1154 H1127 0.950 . S
C1154 C1140 1.377 . S
C1154 C1153 1.373 . S
C1155 C1139 1.377 . S
C1155 C1153 1.389 . S
C1155 C1156 1.524 . S
C1156 C1155 1.524 . S
C1156 C1157 1.397 . S
C1156 C1161 1.363 . S
C1157 H1128 0.950 . S
C1157 C1156 1.397 . S
C1157 C1158 1.334 . S
C1158 H1129 0.950 . S
C1158 C1157 1.334 . S
C1158 C1159 1.287 . S
C1159 C1158 1.287 . S
C1159 C1160 1.524 . S
C1159 H1162 0.999 . S
C1160 H1130 0.950 . S
C1160 C1159 1.524 . S
C1160 C1161 1.415 . S
C1161 H1131 0.950 . S
C1161 C1156 1.363 . S
C1161 C1160 1.415 . S
H1162 C1159 0.999 . S
H1163 C1144 0.913 . S
H1164 C1182 0.951 . S
H1165 C1184 0.951 . S
H1166 C1186 0.950 . S
H1167 C1187 0.950 . S
H1168 C1189 0.950 . S
H1169 C1192 0.950 . S
H1170 C1193 0.950 . S
H1171 C1195 0.950 . S
H1172 C1196 0.950 . S
H1173 C1197 0.951 . S
H1174 C1199 0.951 . S
H1175 C1201 0.950 . S
H1176 C1202 0.950 . S
H1177 C1204 0.950 . S
H1178 C1207 0.950 . S
H1179 C1208 0.950 . S
H1180 C1210 0.950 . S
H1181 C1211 0.950 . S
C1182 H1164 0.951 . S
C1182 C1183 1.366 . S
C1182 C1184 1.388 . S
C1183 C1182 1.366 . S
C1183 C1187 1.385 . S
C1184 H1165 0.951 . S
C1184 C1182 1.388 . S
C1184 C1185 1.366 . S
C1185 C1184 1.366 . S
C1185 C1186 1.414 . S
C1185 C1188 1.499 . S
C1186 H1166 0.950 . S
C1186 C1185 1.414 . S
C1186 C1187 1.374 . S
C1187 H1167 0.950 . S
C1187 C1183 1.385 . S
C1187 C1186 1.374 . S
C1188 C1185 1.499 . S
C1188 C1189 1.373 . S
C1188 C1190 1.389 . S
C1189 H1168 0.950 . S
C1189 C1188 1.373 . S
C1189 C1205 1.377 . S
C1190 C1188 1.389 . S
C1190 C1191 1.524 . S
C1190 C1204 1.377 . S
C1191 C1190 1.524 . S
C1191 C1192 1.397 . S
C1191 C1196 1.363 . S
C1192 H1169 0.950 . S
C1192 C1191 1.397 . S
C1192 C1193 1.334 . S
C1193 H1170 0.950 . S
C1193 C1192 1.334 . S
C1193 C1194 1.287 . S
C1194 C1193 1.287 . S
C1194 C1195 1.524 . S
C1194 H1213 0.913 . S
C1195 H1171 0.950 . S
C1195 C1194 1.524 . S
C1195 C1196 1.415 . S
C1196 H1172 0.950 . S
C1196 C1191 1.363 . S
C1196 C1195 1.415 . S
C1197 H1173 0.951 . S
C1197 C1198 1.366 . S
C1197 C1199 1.388 . S
C1198 C1197 1.366 . S
C1198 C1202 1.385 . S
C1199 H1174 0.951 . S
C1199 C1197 1.388 . S
C1199 C1200 1.366 . S
C1200 C1199 1.366 . S
C1200 C1201 1.414 . S
C1200 C1203 1.499 . S
C1201 H1175 0.950 . S
C1201 C1200 1.414 . S
C1201 C1202 1.374 . S
C1202 H1176 0.950 . S
C1202 C1198 1.385 . S
C1202 C1201 1.374 . S
C1203 C1200 1.499 . S
C1203 C1204 1.373 . S
C1203 C1205 1.389 . S
C1204 H1177 0.950 . S
C1204 C1190 1.377 . S
C1204 C1203 1.373 . S
C1205 C1189 1.377 . S
C1205 C1203 1.389 . S
C1205 C1206 1.524 . S
C1206 C1205 1.524 . S
C1206 C1207 1.397 . S
C1206 C1211 1.363 . S
C1207 H1178 0.950 . S
C1207 C1206 1.397 . S
C1207 C1208 1.334 . S
C1208 H1179 0.950 . S
C1208 C1207 1.334 . S
C1208 C1209 1.287 . S
C1209 C1208 1.287 . S
C1209 C1210 1.524 . S
C1209 H1212 0.999 . S
C1210 H1180 0.950 . S
C1210 C1209 1.524 . S
C1210 C1211 1.415 . S
C1211 H1181 0.950 . S
C1211 C1206 1.363 . S
C1211 C1210 1.415 . S
H1212 C1209 0.999 . S
H1213 C1194 0.913 . S
H1214 C1232 0.951 . S
H1215 C1234 0.951 . S
H1216 C1236 0.950 . S
H1217 C1237 0.950 . S
H1218 C1239 0.950 . S
H1219 C1242 0.950 . S
H1220 C1243 0.950 . S
H1221 C1245 0.950 . S
H1222 C1246 0.950 . S
H1223 C1247 0.951 . S
H1224 C1249 0.951 . S
H1225 C1251 0.950 . S
H1226 C1252 0.950 . S
H1227 C1254 0.950 . S
H1228 C1257 0.950 . S
H1229 C1258 0.950 . S
H1230 C1260 0.950 . S
H1231 C1261 0.950 . S
C1232 H1214 0.951 . S
C1232 C1233 1.366 . S
C1232 C1234 1.388 . S
C1233 C1232 1.366 . S
C1233 C1237 1.385 . S
C1234 H1215 0.951 . S
C1234 C1232 1.388 . S
C1234 C1235 1.366 . S
C1235 C1234 1.366 . S
C1235 C1236 1.414 . S
C1235 C1238 1.499 . S
C1236 H1216 0.950 . S
C1236 C1235 1.414 . S
C1236 C1237 1.374 . S
C1237 H1217 0.950 . S
C1237 C1233 1.385 . S
C1237 C1236 1.374 . S
C1238 C1235 1.499 . S
C1238 C1239 1.373 . S
C1238 C1240 1.389 . S
C1239 H1218 0.950 . S
C1239 C1238 1.373 . S
C1239 C1255 1.377 . S
C1240 C1238 1.389 . S
C1240 C1241 1.524 . S
C1240 C1254 1.377 . S
C1241 C1240 1.524 . S
C1241 C1242 1.397 . S
C1241 C1246 1.363 . S
C1242 H1219 0.950 . S
C1242 C1241 1.397 . S
C1242 C1243 1.334 . S
C1243 H1220 0.950 . S
C1243 C1242 1.334 . S
C1243 C1244 1.287 . S
C1244 C1243 1.287 . S
C1244 C1245 1.524 . S
C1244 H1263 0.913 . S
C1245 H1221 0.950 . S
C1245 C1244 1.524 . S
C1245 C1246 1.415 . S
C1246 H1222 0.950 . S
C1246 C1241 1.363 . S
C1246 C1245 1.415 . S
C1247 H1223 0.951 . S
C1247 C1248 1.366 . S
C1247 C1249 1.388 . S
C1248 C1247 1.366 . S
C1248 C1252 1.385 . S
C1249 H1224 0.951 . S
C1249 C1247 1.388 . S
C1249 C1250 1.366 . S
C1250 C1249 1.366 . S
C1250 C1251 1.414 . S
C1250 C1253 1.499 . S
C1251 H1225 0.950 . S
C1251 C1250 1.414 . S
C1251 C1252 1.374 . S
C1252 H1226 0.950 . S
C1252 C1248 1.385 . S
C1252 C1251 1.374 . S
C1253 C1250 1.499 . S
C1253 C1254 1.373 . S
C1253 C1255 1.389 . S
C1254 H1227 0.950 . S
C1254 C1240 1.377 . S
C1254 C1253 1.373 . S
C1255 C1239 1.377 . S
C1255 C1253 1.389 . S
C1255 C1256 1.524 . S
C1256 C1255 1.524 . S
C1256 C1257 1.397 . S
C1256 C1261 1.363 . S
C1257 H1228 0.950 . S
C1257 C1256 1.397 . S
C1257 C1258 1.334 . S
C1258 H1229 0.950 . S
C1258 C1257 1.334 . S
C1258 C1259 1.287 . S
C1259 C1258 1.287 . S
C1259 C1260 1.524 . S
C1259 H1262 0.999 . S
C1260 H1230 0.950 . S
C1260 C1259 1.524 . S
C1260 C1261 1.415 . S
C1261 H1231 0.950 . S
C1261 C1256 1.363 . S
C1261 C1260 1.415 . S
H1262 C1259 0.999 . S
H1263 C1244 0.913 . S
C283 N200 0.518 . S
C298 N13 0.489 . S
C333 N233 0.665 . S
C348 N46 0.671 . S
C383 N134 0.631 . S
C398 N79 0.635 . S
C433 N167 0.695 . S
C448 N112 0.700 . S
C483 N68 0.605 . S
C498 N145 0.591 . S
C533 N101 0.699 . S
C548 N178 0.706 . S
C583 N2 0.677 . S
C598 N211 0.681 . S
C633 N244 0.599 . S
C648 N35 0.611 . S
C683 C87 2.045 . S
C698 C7 2.034 . S
C733 C54 2.258 . S
C748 C106 2.253 . S
C783 C219 2.120 . S
C798 C139 2.113 . S
C833 C172 2.463 . S
C848 C238 2.454 . S
C883 C18 1.859 . S
C898 C249 1.871 . S
C933 C150 1.975 . S
C948 C40 1.986 . S
C983 C183 1.775 . S
C998 C73 1.777 . S
C1033 C205 1.915 . S
C1048 C117 1.903 . S
C1083 C84 1.446 . S
C1098 C186 1.429 . S
C1133 C120 1.234 . S
C1148 C216 1.246 . S
C1183 C252 0.994 . S
C1198 C21 0.992 . S
C1233 C153 1.234 . S
C1248 C51 1.235 . S
