# Generated by pormake.
# Topology rkf, (6)-cn, num edge types: 1
# Building blocks:
#     Node 0, Type 0, BuildingBlock: MIFKUJ_clean_sbu_0, # of connection points: 6
#     Node 1, Type 0, BuildingBlock: MIFKUJ_clean_sbu_0, # of connection points: 6
#     Node 2, Type 0, BuildingBlock: MIFKUJ_clean_sbu_0, # of connection points: 6
#     Node 3, Type 0, BuildingBlock: MIFKUJ_clean_sbu_0, # of connection points: 6
#     Node 4, Type 0, BuildingBlock: MIFKUJ_clean_sbu_0, # of connection points: 6
#     Node 5, Type 0, BuildingBlock: MIFKUJ_clean_sbu_0, # of connection points: 6
#     Edge 6, Type (0, 0), BuildingBlock: XUDNAN_clean_linker_2, # of connection points: 2
#     Edge 7, Type (0, 0), BuildingBlock: XUDNAN_clean_linker_2, # of connection points: 2
#     Edge 8, Type (0, 0), BuildingBlock: XUDNAN_clean_linker_2, # of connection points: 2
#     Edge 9, Type (0, 0), BuildingBlock: XUDNAN_clean_linker_2, # of connection points: 2
#     Edge 10, Type (0, 0), BuildingBlock: XUDNAN_clean_linker_2, # of connection points: 2
#     Edge 11, Type (0, 0), BuildingBlock: XUDNAN_clean_linker_2, # of connection points: 2
#     Edge 12, Type (0, 0), BuildingBlock: XUDNAN_clean_linker_2, # of connection points: 2
#     Edge 13, Type (0, 0), BuildingBlock: XUDNAN_clean_linker_2, # of connection points: 2
#     Edge 14, Type (0, 0), BuildingBlock: XUDNAN_clean_linker_2, # of connection points: 2
#     Edge 15, Type (0, 0), BuildingBlock: XUDNAN_clean_linker_2, # of connection points: 2
#     Edge 16, Type (0, 0), BuildingBlock: XUDNAN_clean_linker_2, # of connection points: 2
#     Edge 17, Type (0, 0), BuildingBlock: XUDNAN_clean_linker_2, # of connection points: 2
#     Edge 18, Type (0, 0), BuildingBlock: XUDNAN_clean_linker_2, # of connection points: 2
#     Edge 19, Type (0, 0), BuildingBlock: XUDNAN_clean_linker_2, # of connection points: 2
#     Edge 20, Type (0, 0), BuildingBlock: XUDNAN_clean_linker_2, # of connection points: 2
#     Edge 21, Type (0, 0), BuildingBlock: XUDNAN_clean_linker_2, # of connection points: 2
#     Edge 22, Type (0, 0), BuildingBlock: XUDNAN_clean_linker_2, # of connection points: 2
#     Edge 23, Type (0, 0), BuildingBlock: XUDNAN_clean_linker_2, # of connection points: 2
# Relax obj value: 0.342
# Max RMSD: 0.299
# Mean RMSD: 0.299
data_MOF--net-rkf--node1-MIFKUJ_clean_sbu_0--edge1-XUDNAN_clean_linker_2
_symmetry_space_group_name_H-M    P1
_symmetry_Int_Tables_number       1
_symmetry_cell_setting            triclinic
loop_
_symmetry_equiv_pos_as_xyz
'x, y, z'
_cell_length_a     23.472708
_cell_length_b     23.231113
_cell_length_c     44.951935
_cell_angle_alpha  90.636695
_cell_angle_beta   89.697068
_cell_angle_gamma 120.7172
loop_
_atom_site_label
_atom_site_type_symbol
_atom_site_fract_x
_atom_site_fract_y
_atom_site_fract_z
_atom_type_partial_charge
Zn0 Zn 0.22194 0.96603 0.98871 0.0
Zn1 Zn 0.28725 -0.01017 0.07892 0.0
C2 C 0.09039 0.84012 0.97159 0.0
O3 O 0.03211 0.79204 0.98061 0.0
C4 C 0.41227 0.0429 0.11488 0.0
O5 O 0.47501 0.06032 0.11599 0.0
O6 O 0.23585 0.02213 0.95186 0.0
O7 O 0.24288 0.02672 0.02498 0.0
O8 O 0.27165 0.06676 0.07032 0.0
C9 C 0.18717 0.02796 0.94391 0.0
O10 O 0.13279 -0.00081 0.95997 0.0
O11 O 0.12916 0.88316 0.99082 0.0
C12 C 0.17797 0.87729 0.11005 0.0
O13 O 0.16252 0.84885 0.08358 0.0
O14 O 0.22839 0.93563 0.1129 0.0
O15 O 0.26402 0.93695 0.03983 0.0
O16 O 0.28754 0.93478 0.993 0.0
O17 O 0.38322 0.02705 0.08972 0.0
C18 C 0.25316 0.0713 0.04428 0.0
C19 C 0.30052 0.93175 0.02023 0.0
Zn20 Zn 0.20626 0.19403 0.42982 0.0
Zn21 Zn 0.21379 0.22103 0.33991 0.0
C22 C 0.08277 0.19532 0.44696 0.0
O23 O 0.03515 0.20675 0.4401 0.0
C24 C 0.23693 0.17365 0.28306 0.0
O25 O 0.19647 0.19249 0.27334 0.0
O26 O 0.22432 0.1793 0.47275 0.0
O27 O 0.19431 0.11398 0.40704 0.0
O28 O 0.17002 0.16245 0.37304 0.0
C29 C 0.2465 0.14017 0.47708 0.0
O30 O 0.26755 0.12061 0.45418 0.0
O31 O 0.12269 0.19918 0.42675 0.0
C32 C 0.16588 0.29439 0.30574 0.0
O33 O 0.22305 0.34776 0.31248 0.0
O34 O 0.15057 0.23857 0.31724 0.0
O35 O 0.28528 0.3013 0.36193 0.0
O36 O 0.28171 0.28141 0.41131 0.0
O37 O 0.25348 0.18256 0.31047 0.0
C38 C 0.18319 0.11806 0.38001 0.0
C39 C 0.30793 0.31888 0.38849 0.0
Zn40 Zn -0.02213 0.16001 0.65918 0.0
Zn41 Zn -0.02875 0.20931 0.74285 0.0
C42 C 0.1016 0.15705 0.66284 0.0
O43 O 0.1478 0.15267 0.67718 0.0
C44 C 0.89424 0.26833 0.76256 0.0
O45 O 0.85302 0.22975 0.74168 0.0
O46 O 0.95509 0.10122 0.62179 0.0
O47 O 0.90048 0.10693 0.68813 0.0
O48 O 0.88552 0.1237 0.73577 0.0
C49 C 0.92367 0.08861 0.59731 0.0
O50 O 0.89457 0.12205 0.59014 0.0
O51 O 0.05797 0.16232 0.67747 0.0
C52 C 0.09035 0.21587 0.77022 0.0
O53 O 0.12714 0.26466 0.75185 0.0
O54 O 0.02754 0.18801 0.76911 0.0
O55 O 0.00532 0.23244 0.70199 0.0
O56 O -0.00104 0.25767 0.65665 0.0
O57 O 0.94953 0.27123 0.76532 0.0
C58 C 0.86474 0.08972 0.71165 0.0
C59 C 0.00774 0.27499 0.68396 0.0
Zn60 Zn 0.89801 0.10797 0.06336 0.0
Zn61 Zn 0.839 0.15922 0.98393 0.0
C62 C 0.92157 -0.00984 0.05931 0.0
O63 O 0.93772 0.95474 0.04203 0.0
C64 C 0.8303 0.27091 0.96368 0.0
O65 O 0.88711 0.30528 0.97774 0.0
O66 O 0.93884 0.15171 0.10268 0.0
O67 O 0.91953 0.17197 0.03026 0.0
O68 O 0.93889 0.2242 0.98893 0.0
C69 C 0.95416 0.21053 0.11071 0.0
O70 O 0.94371 0.24792 0.09243 0.0
O71 O 0.92434 0.04208 0.0487 0.0
C72 C 0.84991 0.12343 0.9252 0.0
O73 O 0.87452 0.18834 0.9235 0.0
O74 O 0.83004 0.09561 0.95037 0.0
O75 O 0.79775 0.10441 0.02184 0.0
O76 O 0.79802 0.06183 0.06538 0.0
O77 O 0.79493 0.20839 0.96844 0.0
C78 C 0.96176 0.21325 1.01226 0.0
C79 C 0.76615 0.06897 0.04419 0.0
Zn80 Zn 0.83428 0.67913 0.29673 0.0
Zn81 Zn 0.86758 0.69207 0.39244 0.0
C82 C 0.82671 0.73642 0.24193 0.0
O83 O 0.78015 0.67386 0.23711 0.0
C84 C 0.89593 0.61177 0.42857 0.0
O85 O 0.95568 0.66323 0.42406 0.0
O86 O 0.8182 0.59265 0.27732 0.0
O87 O 0.90124 0.70587 0.32963 0.0
O88 O 0.95666 0.73103 0.37114 0.0
C89 C 0.84477 0.58107 0.25504 0.0
O90 O 0.82074 0.51868 0.24633 0.0
O91 O 0.85787 0.75202 0.26653 0.0
C92 C 0.84612 0.73827 0.44943 0.0
O93 O 0.81488 0.67374 0.45462 0.0
O94 O 0.87116 0.75935 0.42377 0.0
O95 O 0.80077 0.67328 0.36011 0.0
O96 O 0.74885 0.65759 0.31795 0.0
O97 O 0.84784 0.6085 0.41422 0.0
C98 C 0.9566 0.73257 0.34282 0.0
C99 C 0.74749 0.65653 0.34632 0.0
Zn100 Zn 0.94972 0.76789 0.75418 0.0
Zn101 Zn 0.93853 0.7012 0.67094 0.0
C102 C 0.0954 0.88212 0.75454 0.0
O103 O 0.1435 0.92823 0.73831 0.0
C104 C 0.86938 0.57855 0.63502 0.0
O105 O 0.81611 0.56753 0.64959 0.0
O106 O 0.91006 0.80195 0.78552 0.0
O107 O 0.88945 0.74132 0.71821 0.0
O108 O 0.85566 0.70768 0.67281 0.0
C109 C 0.90896 0.85182 0.77468 0.0
O110 O 0.92961 0.86907 0.7472 0.0
O111 O 0.03931 0.84539 0.742 0.0
C112 C 0.01149 0.79395 0.62548 0.0
O113 O 0.9642 0.74379 0.61028 0.0
O114 O 0.01253 0.78909 0.65368 0.0
O115 O 0.95527 0.68535 0.71345 0.0
O116 O 0.9649 0.68976 0.76174 0.0
O117 O 0.92525 0.62815 0.64251 0.0
C118 C 0.84682 0.72754 0.69795 0.0
C119 C 0.96663 0.66318 0.73697 0.0
H120 H 0.03155 0.21962 0.06152 0.0
H121 H 0.04796 0.245 0.96606 0.0
H122 H 0.15187 0.2436 0.96674 0.0
H123 H 0.22837 0.31373 0.07457 0.0
H124 H 0.21428 0.25711 0.10458 0.0
H125 H 0.15718 0.28605 0.09837 0.0
H126 H 0.06229 0.1647 0.09588 0.0
H127 H 0.11716 0.1337 0.10105 0.0
H128 H 0.06385 0.10729 0.06882 0.0
H129 H 0.22475 0.19963 0.97461 0.0
H130 H 0.26735 0.12726 0.98999 0.0
H131 H 0.211 0.13542 0.08107 0.0
C132 C 0.05906 0.22843 0.04113 0.0
C133 C 0.0318 0.23197 1.01386 0.0
C134 C 0.06826 0.24261 0.98729 0.0
C135 C 0.12766 0.24227 0.98749 0.0
C136 C 0.15103 0.23372 1.01455 0.0
C137 C 0.11925 0.22966 0.04117 0.0
C138 C 0.14839 0.21015 0.06642 0.0
C139 C 0.18953 0.27037 0.0872 0.0
C140 C 0.09467 0.15023 0.08397 0.0
C141 C 0.1928 0.19256 0.049 0.0
C142 C 0.19627 0.2098 0.01934 0.0
C143 C 0.22465 0.18832 0.99791 0.0
C144 C 0.24777 0.14635 1.00672 0.0
C145 C 0.24183 0.12588 0.03661 0.0
C146 C 0.21713 0.15184 0.05821 0.0
H147 H -0.02782 0.81973 0.30076 0.0
H148 H 0.07859 0.74958 0.35224 0.0
H149 H 0.18259 0.85421 0.34299 0.0
H150 H 0.14642 0.9694 0.25763 0.0
H151 H 0.1089 0.02034 0.25896 0.0
H152 H 0.05964 0.93266 0.24924 0.0
H153 H -0.02303 0.91759 0.29092 0.0
H154 H 0.02617 0.004 0.30031 0.0
H155 H 0.00663 0.94191 0.32859 0.0
H156 H 0.24919 0.96878 0.35424 0.0
H157 H 0.2633 0.06541 0.38293 0.0
H158 H 0.11768 0.07416 0.32803 0.0
C159 C 0.01868 0.82548 0.308 0.0
C160 C 0.01827 0.77779 0.32712 0.0
C161 C 0.07846 0.78592 0.33738 0.0
C162 C 0.13793 0.84538 0.33196 0.0
C163 C 0.13599 0.89677 0.31691 0.0
C164 C 0.07789 0.8863 0.30368 0.0
C165 C 0.08293 0.95253 0.29671 0.0
C166 C 0.10057 0.96973 0.2637 0.0
C167 C 0.01949 0.95398 0.30474 0.0
C168 C 0.14156 -0.00147 0.31617 0.0
C169 C 0.17618 0.96745 0.32454 0.0
C170 C 0.22363 -0.00596 0.34718 0.0
C171 C 0.23076 0.04852 0.36375 0.0
C172 C 0.19079 0.07603 0.35757 0.0
C173 C 0.14915 0.05378 0.33249 0.0
H174 H 0.79467 0.77003 0.65635 0.0
H175 H 0.78719 0.72758 0.75 0.0
H176 H 0.73626 0.79524 0.76033 0.0
H177 H 0.86095 0.91828 0.65888 0.0
H178 H 0.81738 0.93846 0.6318 0.0
H179 H 0.81465 0.86067 0.629 0.0
H180 H 0.68689 0.79782 0.63016 0.0
H181 H 0.68983 0.87684 0.63294 0.0
H182 H 0.64452 0.81273 0.66009 0.0
H183 H 0.73558 0.89755 0.76384 0.0
H184 H 0.79334 0.01969 0.76052 0.0
H185 H 0.8042 0.00569 0.66487 0.0
C186 C 0.77786 0.77168 0.67863 0.0
C187 C 0.79509 0.74468 0.70239 0.0
C188 C 0.77451 0.74849 0.73152 0.0
C189 C 0.74477 0.78635 0.7375 0.0
C190 C 0.73557 0.81976 0.71406 0.0
C191 C 0.74971 0.8111 0.68484 0.0
C192 C 0.75275 0.86494 0.66502 0.0
C193 C 0.81524 0.89749 0.64515 0.0
C194 C 0.68973 0.83637 0.64595 0.0
C195 C 0.75347 0.91265 0.68848 0.0
C196 C 0.7371 0.88293 0.71625 0.0
C197 C 0.74672 0.92064 0.74216 0.0
C198 C 0.7803 -0.00953 0.74012 0.0
C199 C 0.80554 0.02169 0.71247 0.0
C200 C 0.7859 0.98238 0.68625 0.0
H201 H 0.08221 0.01409 0.91272 0.0
H202 H 0.29696 0.12036 0.91247 0.0
H203 H 0.29796 0.18015 0.86678 0.0
H204 H 0.0659 -0.00617 0.83285 0.0
H205 H -0.00633 0.00175 0.8321 0.0
H206 H 0.01129 0.96827 0.86436 0.0
H207 H 0.00857 0.05942 0.8985 0.0
H208 H -0.01123 0.09073 0.86613 0.0
H209 H 0.05972 0.14594 0.88849 0.0
H210 H 0.27224 0.23128 0.8211 0.0
H211 H 0.2234 0.26461 0.78076 0.0
H212 H 0.02642 0.12028 0.81232 0.0
C213 C 0.12963 0.05021 0.90323 0.0
C214 C 0.1895 0.06321 0.91631 0.0
C215 C 0.25041 0.1098 0.90278 0.0
C216 C 0.25142 0.14401 0.87689 0.0
C217 C 0.19107 0.13031 0.8647 0.0
C218 C 0.13152 0.08401 0.87746 0.0
C219 C 0.07335 0.07645 0.8601 0.0
C220 C 0.0336 0.00582 0.84654 0.0
C221 C 0.02999 0.09408 0.87945 0.0
C222 C 0.10868 0.12747 0.83618 0.0
C223 C 0.17667 0.15792 0.83878 0.0
C224 C 0.21899 0.2073 0.81891 0.0
C225 C 0.19079 0.22589 0.79606 0.0
C226 C 0.121 0.1951 0.79332 0.0
C227 C 0.07991 0.14493 0.81363 0.0
H228 H 0.08078 0.18755 0.27124 0.0
H229 H 0.16833 0.40265 0.28027 0.0
H230 H 0.11767 0.40417 0.23226 0.0
H231 H 0.12078 0.19487 0.19576 0.0
H232 H 0.04861 0.11632 0.18567 0.0
H233 H 0.08138 0.1292 0.22281 0.0
H234 H 0.96851 0.10118 0.2452 0.0
H235 H 0.93385 0.086 0.20833 0.0
H236 H 0.92871 0.14547 0.23262 0.0
H237 H 0.06192 0.38195 0.18162 0.0
H238 H 0.0094 0.33913 0.13243 0.0
H239 H 0.96857 0.14074 0.1557 0.0
C240 C 0.08822 0.23492 0.26357 0.0
C241 C 0.12796 0.295 0.27968 0.0
C242 C 0.13751 0.35598 0.26841 0.0
C243 C 0.10906 0.35729 0.24116 0.0
C244 C 0.07223 0.29734 0.22532 0.0
C245 C 0.06218 0.23738 0.23611 0.0
C246 C 0.02732 0.18119 0.21357 0.0
C247 C 0.07216 0.1538 0.20389 0.0
C248 C 0.96063 0.12518 0.22566 0.0
C249 C 0.01774 0.21847 0.18858 0.0
C250 C 0.04368 0.28532 0.19574 0.0
C251 C 0.04123 0.32964 0.17585 0.0
C252 C 0.01131 0.30487 0.14798 0.0
C253 C -0.0152 0.23657 0.14022 0.0
C254 C -0.01168 0.19316 0.1609 0.0
H255 H 0.88584 0.06015 0.53795 0.0
H256 H 0.94504 -0.01109 0.61392 0.0
H257 H 0.93057 0.89278 0.58438 0.0
H258 H 0.76074 0.89704 0.51121 0.0
H259 H 0.77787 0.91638 0.47231 0.0
H260 H 0.79383 0.98182 0.49876 0.0
H261 H 0.92047 0.05193 0.48305 0.0
H262 H 0.89719 -0.01182 0.45471 0.0
H263 H 0.964 0.00667 0.47958 0.0
H264 H 0.90386 0.801 0.54829 0.0
H265 H 0.87903 0.7249 0.5053 0.0
H266 H 0.843 0.85596 0.45072 0.0
C267 C 0.89573 0.02428 0.5483 0.0
C268 C 0.91626 0.03214 0.57842 0.0
C269 C 0.92918 0.98424 0.591 0.0
C270 C 0.92095 0.92918 0.57441 0.0
C271 C 0.89993 0.92241 0.54504 0.0
C272 C 0.88835 0.96893 0.53183 0.0
C273 C 0.8663 0.94908 0.49969 0.0
C274 C 0.79547 0.93526 0.49524 0.0
C275 C 0.91488 0.00235 0.478 0.0
C276 C 0.86873 0.8851 0.49688 0.0
C277 C 0.88684 0.87012 0.52359 0.0
C278 C 0.89017 0.81246 0.52717 0.0
C279 C 0.87601 0.76958 0.50263 0.0
C280 C 0.85986 0.785 0.47468 0.0
C281 C 0.85624 0.84362 0.47175 0.0
H282 H 0.81971 -0.00854 0.92048 0.0
H283 H 0.87536 0.16921 0.86856 0.0
H284 H 0.88254 0.11215 0.82373 0.0
H285 H 0.92143 0.94771 0.89159 0.0
H286 H 0.86931 0.8585 0.88661 0.0
H287 H 0.85032 0.90167 0.91484 0.0
H288 H 0.73492 0.86194 0.89488 0.0
H289 H 0.74742 0.81175 0.86769 0.0
H290 H 0.72289 0.86988 0.85592 0.0
H291 H 0.89814 0.04469 0.78653 0.0
H292 H 0.91916 0.968 0.75737 0.0
H293 H 0.85549 0.83089 0.83183 0.0
C294 C 0.8319 0.01766 0.89952 0.0
C295 C 0.84745 0.08511 0.89814 0.0
C296 C 0.86379 0.11791 0.87034 0.0
C297 C 0.86734 0.08564 0.8446 0.0
C298 C 0.85344 0.02002 0.84679 0.0
C299 C 0.83512 0.98572 0.87334 0.0
C300 C 0.82706 0.91673 0.86947 0.0
C301 C 0.86963 0.90549 0.89188 0.0
C302 C 0.75371 0.86183 0.87215 0.0
C303 C 0.85091 0.92109 0.83757 0.0
C304 C 0.86295 0.9801 0.82474 0.0
C305 C 0.88727 -0.00249 0.79598 0.0
C306 C 0.89959 0.95356 0.77966 0.0
C307 C 0.88938 0.89334 0.79229 0.0
C308 C 0.86377 0.87647 0.82157 0.0
H309 H 0.87291 0.58067 0.19619 0.0
H310 H 0.94255 0.70236 0.27615 0.0
H311 H 0.03595 0.79273 0.24787 0.0
H312 H 0.03377 0.62727 0.16678 0.0
H313 H 0.00967 0.62679 0.12872 0.0
H314 H 0.94884 0.57293 0.1555 0.0
H315 H 0.87698 0.62374 0.14239 0.0
H316 H 0.93777 0.68048 0.11625 0.0
H317 H 0.91107 0.71254 0.14662 0.0
H318 H 0.12304 0.86801 0.21079 0.0
H319 H 0.19525 0.92377 0.16757 0.0
H320 H 0.06648 0.75227 0.11181 0.0
C321 C 0.90784 0.62635 0.20778 0.0
C322 C 0.90007 0.63548 0.23831 0.0
C323 C 0.9469 0.6956 0.25267 0.0
C324 C 0.0002 0.74668 0.23685 0.0
C325 C 0.00616 0.73627 0.20669 0.0
C326 C 0.96128 0.67749 0.19234 0.0
C327 C -0.02158 0.67869 0.15978 0.0
C328 C -0.00641 0.62313 0.15227 0.0
C329 C 0.92275 0.67352 0.14003 0.0
C330 C 0.04012 0.74735 0.158 0.0
C331 C 0.05556 0.7797 0.18532 0.0
C332 C 0.11113 0.84328 0.18925 0.0
C333 C 0.15172 0.87465 0.16454 0.0
C334 C 0.13609 0.84281 0.1362 0.0
C335 C 0.07963 0.77818 0.13308 0.0
H336 H 0.03793 0.80504 0.56609 0.0
H337 H 0.09723 0.92019 0.64838 0.0
H338 H 0.17407 0.02208 0.62003 0.0
H339 H 0.20311 0.89436 0.53069 0.0
H340 H 0.16779 0.88723 0.49436 0.0
H341 H 0.12271 0.8236 0.52174 0.0
H342 H 0.02328 0.84054 0.51553 0.0
H343 H 0.0675 0.90538 0.48875 0.0
H344 H 0.034 0.92252 0.52156 0.0
H345 H 0.22959 0.11491 0.58072 0.0
H346 H 0.26812 0.1852 0.53533 0.0
H347 H 0.18051 0.00584 0.4805 0.0
C348 C 0.06753 0.85146 0.5783 0.0
C349 C 0.06138 0.85467 0.60947 0.0
C350 C 0.10123 0.91648 0.62451 0.0
C351 C 0.14492 0.97458 0.60857 0.0
C352 C 0.14867 0.96983 0.5777 0.0
C353 C 0.11176 0.90934 0.56288 0.0
C354 C 0.12316 0.91703 0.52966 0.0
C355 C 0.15618 0.87827 0.51846 0.0
C356 C 0.0581 0.89512 0.51291 0.0
C357 C 0.17005 -0.00821 0.52782 0.0
C358 C 0.18436 0.02185 0.55566 0.0
C359 C 0.22055 0.0916 0.55893 0.0
C360 C 0.24206 0.13118 0.53313 0.0
C361 C 0.22894 0.10069 0.50463 0.0
C362 C 0.19327 0.03027 0.50213 0.0
H363 H 0.41414 -0.00844 0.98781 0.0
H364 H 0.33049 0.88815 0.07068 0.0
H365 H 0.44049 0.90682 0.08527 0.0
H366 H 0.52937 0.93173 0.97573 0.0
H367 H 0.59255 0.01059 0.96077 0.0
H368 H 0.50637 0.98429 0.95626 0.0
H369 H 0.52801 0.09519 0.9809 0.0
H370 H 0.61406 0.12158 0.9856 0.0
H371 H 0.56514 0.11799 1.01736 0.0
H372 H 0.56144 0.94327 0.09167 0.0
H373 H 0.68301 -0.00668 0.08931 0.0
H374 H 0.68499 0.07271 1.00204 0.0
C375 C 0.41872 0.9719 1.00882 0.0
C376 C 0.36435 0.93875 0.02827 0.0
C377 C 0.37208 0.91405 0.05564 0.0
C378 C 0.43412 0.92426 0.06403 0.0
C379 C 0.4873 0.95871 0.0446 0.0
C380 C 0.48002 0.98182 1.0175 0.0
C381 C 0.54518 0.01988 1.00116 0.0
C382 C 0.54323 0.98448 0.97174 0.0
C383 C 0.56419 0.09298 0.99597 0.0
C384 C 0.59061 0.01553 0.02348 0.0
C385 C 0.55644 0.97976 0.04831 0.0
C386 C 0.58863 0.97092 0.07223 0.0
C387 C 0.65762 -0.00041 0.0707 0.0
C388 C 0.6934 0.03684 0.04549 0.0
C389 C 0.65911 0.04436 0.02159 0.0
H390 H 0.36664 0.41857 0.34783 0.0
H391 H 0.3889 0.36638 0.43769 0.0
H392 H 0.50028 0.46744 0.44044 0.0
H393 H 0.51511 0.45786 0.32381 0.0
H394 H 0.53012 0.5267 0.30036 0.0
H395 H 0.44674 0.46239 0.30838 0.0
H396 H 0.42098 0.55138 0.32892 0.0
H397 H 0.50474 0.61646 0.32079 0.0
H398 H 0.47218 0.60846 0.3579 0.0
H399 H 0.61587 0.55788 0.4295 0.0
H400 H 0.72473 0.62709 0.4056 0.0
H401 H 0.62693 0.6198 0.32286 0.0
C402 C 0.39399 0.42941 0.36848 0.0
C403 C 0.36922 0.38449 0.39248 0.0
C404 C 0.40675 0.40026 0.41902 0.0
C405 C 0.46997 0.45779 0.42085 0.0
C406 C 0.49424 0.49944 0.39617 0.0
C407 C 0.4569 0.48631 0.37059 0.0
C408 C 0.49721 0.53234 0.34559 0.0
C409 C 0.49732 0.49242 0.31796 0.0
C410 C 0.47229 0.58 0.33786 0.0
C411 C 0.56447 0.56971 0.36028 0.0
C412 C 0.56148 0.55178 0.38975 0.0
C413 C 0.61861 0.57369 0.40672 0.0
C414 C 0.68027 0.61286 0.39293 0.0
C415 C 0.68406 0.62862 0.36237 0.0
C416 C 0.62543 0.60904 0.34632 0.0
H417 H 0.95819 0.34855 0.65871 0.0
H418 H 0.06814 0.34186 0.73451 0.0
H419 H 0.06717 0.43842 0.75726 0.0
H420 H 0.04353 0.53115 0.65598 0.0
H421 H 0.97042 0.53241 0.64515 0.0
H422 H -0.02042 0.46259 0.63461 0.0
H423 H 0.86741 0.38117 0.6596 0.0
H424 H 0.85775 0.45064 0.67027 0.0
H425 H 0.8545 0.39377 0.69813 0.0
H426 H 0.04815 0.53118 0.7734 0.0
H427 H 0.02462 0.62344 0.77852 0.0
H428 H 0.9318 0.5729 0.6915 0.0
C429 C -0.01746 0.36794 0.67993 0.0
C430 C 0.01186 0.3369 0.69525 0.0
C431 C 0.0441 0.36415 0.72276 0.0
C432 C 0.0439 0.41898 0.73586 0.0
C433 C 0.01242 0.447 0.72083 0.0
C434 C -0.01658 0.42333 0.69322 0.0
C435 C 0.95441 0.46381 0.68155 0.0
C436 C -0.01093 0.49961 0.65261 0.0
C437 C 0.87904 0.4197 0.67714 0.0
C438 C -0.02892 0.51318 0.70703 0.0
C439 C 0.00402 0.50233 0.7296 0.0
C440 C 0.02301 0.54073 0.75572 0.0
C441 C 0.00916 0.59268 0.75854 0.0
C442 C -0.02279 0.60578 0.73524 0.0
C443 C 0.95741 0.56488 0.70941 0.0
H444 H 0.32121 0.08263 0.12357 0.0
H445 H 0.43051 0.00629 0.1694 0.0
H446 H 0.38824 0.02098 0.21756 0.0
H447 H 0.35591 0.20923 0.17291 0.0
H448 H 0.27672 0.20415 0.17158 0.0
H449 H 0.30447 0.17632 0.1402 0.0
H450 H 0.19809 0.05761 0.14216 0.0
H451 H 0.16972 0.08879 0.17219 0.0
H452 H 0.1739 0.01437 0.1772 0.0
H453 H 0.3458 0.05664 0.26095 0.0
H454 H 0.30449 0.10935 0.29629 0.0
H455 H 0.22309 0.16334 0.22245 0.0
C456 C 0.33384 0.06641 0.14364 0.0
C457 C 0.37799 0.04202 0.14274 0.0
C458 C 0.39613 0.02436 0.16962 0.0
C459 C 0.37219 0.03232 0.19706 0.0
C460 C 0.33011 0.05812 0.19733 0.0
C461 C 0.31043 0.07432 0.17131 0.0
C462 C 0.27045 0.10765 0.178 0.0
C463 C 0.30394 0.17853 0.1649 0.0
C464 C 0.19883 0.06448 0.16669 0.0
C465 C 0.27293 0.10974 0.21173 0.0
C466 C 0.30672 0.08007 0.22246 0.0
C467 C 0.3185 0.07926 0.25282 0.0
C468 C 0.2953 0.10973 0.27273 0.0
C469 C 0.26088 0.14076 0.26219 0.0
C470 C 0.24906 0.13989 0.23128 0.0
H471 H 0.09781 0.27053 0.49631 0.0
H472 H 0.0802 0.08401 0.46683 0.0
H473 H 0.07892 0.05176 0.51938 0.0
H474 H 0.21143 0.29927 0.55759 0.0
H475 H 0.17646 0.33647 0.58129 0.0
H476 H 0.17465 0.34342 0.54148 0.0
H477 H 0.04901 0.29338 0.54431 0.0
H478 H 0.04676 0.28047 0.58385 0.0
H479 H -0.003 0.21098 0.55911 0.0
H480 H 0.07832 0.04011 0.57482 0.0
H481 H 0.08633 0.05218 0.62979 0.0
H482 H 0.10735 0.24788 0.62311 0.0
C483 C 0.09464 0.22335 0.50104 0.0
C484 C 0.08933 0.17957 0.47784 0.0
C485 C 0.08466 0.11808 0.48455 0.0
C486 C 0.08394 0.0995 0.51421 0.0
C487 C 0.08979 0.14402 0.53669 0.0
C488 C 0.09595 0.20508 0.53046 0.0
C489 C 0.10274 0.24433 0.55868 0.0
C490 C 0.17035 0.30974 0.55982 0.0
C491 C 0.04547 0.25808 0.56171 0.0
C492 C 0.09853 0.19544 0.58182 0.0
C493 C 0.09128 0.13801 0.56863 0.0
C494 C 0.08634 0.08564 0.5854 0.0
C495 C 0.09064 0.09274 0.61645 0.0
C496 C 0.09807 0.15101 0.63029 0.0
C497 C 0.10171 0.20286 0.61283 0.0
H498 H 0.96833 0.35772 0.80619 0.0
H499 H 0.76605 0.23095 0.77581 0.0
H500 H 0.72511 0.24485 0.82428 0.0
H501 H 0.95196 0.29214 0.87096 0.0
H502 H 0.00416 0.36674 0.89248 0.0
H503 H 0.01732 0.36582 0.85327 0.0
H504 H 0.00419 0.46911 0.84676 0.0
H505 H -0.00864 0.47065 0.8863 0.0
H506 H 0.93095 0.46705 0.86058 0.0
H507 H 0.70741 0.24151 0.87859 0.0
H508 H 0.71534 0.22795 0.93251 0.0
H509 H 0.92773 0.36313 0.92844 0.0
C510 C 0.91545 0.33559 0.80933 0.0
C511 C 0.87044 0.29305 0.78734 0.0
C512 C 0.80157 0.26415 0.79224 0.0
C513 C 0.77779 0.27186 0.81979 0.0
C514 C 0.82347 0.3101 0.8419 0.0
C515 C 0.89105 0.34318 0.83667 0.0
C516 C 0.92984 0.37255 0.86517 0.0
C517 C -0.02145 0.34774 0.87078 0.0
C518 C 0.96622 0.44941 0.86467 0.0
C519 C 0.87384 0.34474 0.88762 0.0
C520 C 0.81268 0.31045 0.87372 0.0
C521 C 0.75465 0.27047 0.88977 0.0
C522 C 0.75951 0.26296 0.92043 0.0
C523 C 0.82196 0.29541 0.93473 0.0
C524 C 0.87907 0.33961 0.91833 0.0
H525 H 0.83345 0.86473 0.07788 0.0
H526 H 0.96973 0.06506 0.11001 0.0
H527 H 0.95334 0.02356 0.16148 0.0
H528 H 0.72051 0.80979 0.14527 0.0
H529 H 0.70745 0.72641 0.14251 0.0
H530 H 0.72138 0.77489 0.10937 0.0
H531 H 0.81696 0.75607 0.0956 0.0
H532 H 0.80804 0.71131 0.12931 0.0
H533 H 0.8865 0.78495 0.12037 0.0
H534 H 0.93532 0.95726 0.20808 0.0
H535 H 0.90831 0.87264 0.24695 0.0
H536 H 0.78282 0.71522 0.18431 0.0
C537 C 0.85781 0.90013 0.09596 0.0
C538 C 0.90153 0.96857 0.0902 0.0
C539 C 0.93418 0.01324 0.11414 0.0
C540 C 0.92567 -0.01018 0.14341 0.0
C541 C 0.88364 0.92162 0.14829 0.0
C542 C 0.84898 0.87761 0.12529 0.0
C543 C 0.81049 0.80611 0.13605 0.0
C544 C 0.73551 0.77764 0.13313 0.0
C545 C 0.8318 0.76198 0.11938 0.0
C546 C 0.83158 0.81634 0.16838 0.0
C547 C 0.87321 0.88337 0.17511 0.0
C548 C 0.90169 0.90473 0.20322 0.0
C549 C 0.88636 0.8563 0.22511 0.0
C550 C 0.84297 0.78741 0.21879 0.0
C551 C 0.81542 0.76753 0.19 0.0
H552 H -0.01563 0.62831 0.47156 0.0
H553 H 0.77669 0.5072 0.44777 0.0
H554 H 0.75097 0.46198 0.49861 0.0
H555 H -0.01211 0.51169 0.53034 0.0
H556 H 0.04254 0.58297 0.55319 0.0
H557 H 0.04763 0.58938 0.5132 0.0
H558 H 0.03137 0.69172 0.5163 0.0
H559 H 0.02613 0.6855 0.556 0.0
H560 H 0.95965 0.68342 0.5352 0.0
H561 H 0.74386 0.45262 0.55384 0.0
H562 H 0.7562 0.48097 0.60739 0.0
H563 H 0.96854 0.60762 0.59544 0.0
C564 C 0.93393 0.58985 0.47657 0.0
C565 C 0.88264 0.57106 0.45563 0.0
C566 C 0.81696 0.52194 0.46336 0.0
C567 C 0.8019 0.49583 0.49223 0.0
C568 C 0.85314 0.51877 0.51298 0.0
C569 C 0.91813 0.56413 0.50534 0.0
C570 C 0.96228 0.59018 0.53253 0.0
C571 C 0.01308 0.56715 0.53229 0.0
C572 C -0.00324 0.66717 0.53514 0.0
C573 C 0.91139 0.55582 0.5568 0.0
C574 C 0.84896 0.5135 0.54516 0.0
C575 C 0.79275 0.48403 0.56325 0.0
C576 C 0.8002 0.50049 0.59369 0.0
C577 C 0.86333 0.54654 0.60563 0.0
C578 C 0.91971 0.5715 0.58712 0.0
H579 H 0.0084 0.79787 0.79803 0.0
H580 H 0.21319 0.95268 0.78385 0.0
H581 H 0.23637 0.94944 0.83688 0.0
H582 H -0.01324 0.86104 0.86595 0.0
H583 H 0.93513 0.78061 0.8826 0.0
H584 H 0.93657 0.78873 0.84285 0.0
H585 H 0.96818 0.69754 0.83726 0.0
H586 H 0.96744 0.68984 0.87715 0.0
H587 H 0.04033 0.70784 0.85622 0.0
H588 H 0.23803 0.92831 0.89165 0.0
H589 H 0.21353 0.90507 0.94513 0.0
H590 H 0.00462 0.77992 0.92489 0.0
C591 C 0.05778 0.83145 0.80589 0.0
C592 C 0.10836 0.876 0.78645 0.0
C593 C 0.17315 0.91791 0.79804 0.0
C594 C 0.18706 0.91635 0.82822 0.0
C595 C 0.13568 0.87284 0.84677 0.0
C596 C 0.0721 0.83164 0.83616 0.0
C597 C 0.02486 0.79296 0.86128 0.0
C598 C 0.96747 0.80672 0.86326 0.0
C599 C -0.00133 0.71758 0.85776 0.0
C600 C 0.07118 0.82211 0.88777 0.0
C601 C 0.1354 0.8657 0.87875 0.0
C602 C 0.18754 0.89595 0.89904 0.0
C603 C 0.17311 0.88363 0.92945 0.0
C604 C 0.10693 0.84507 0.93941 0.0
C605 C 0.05569 0.81175 0.91811 0.0
loop_
_geom_bond_atom_site_label_1
_geom_bond_atom_site_label_2
_geom_bond_distance
_geom_bond_site_symmetry_2
_ccdc_geom_bond_type
Zn0 O6 1.969 . S
Zn0 O7 1.965 . S
Zn0 O11 2.024 1_545 S
Zn0 O16 1.969 . S
Zn1 O8 1.969 . S
Zn1 O14 1.969 1_545 S
Zn1 O15 1.963 1_545 S
Zn1 O17 2.024 . S
C2 O3 1.229 . S
C2 O11 1.058 . S
O3 C2 1.229 . S
C4 O5 1.229 . S
C4 O17 1.058 . S
O5 C4 1.229 . S
O6 Zn0 1.969 . S
O6 C9 1.267 . S
O7 Zn0 1.965 . S
O7 C18 1.260 1_556 S
O8 Zn1 1.969 . S
O8 C18 1.258 . S
C9 O6 1.267 . S
C9 O10 1.228 . S
O10 C9 1.228 . S
O11 Zn0 2.024 1_565 S
O11 C2 1.058 . S
C12 O13 1.228 . S
C12 O14 1.267 . S
O13 C12 1.228 . S
O14 Zn1 1.969 1_565 S
O14 C12 1.267 . S
O15 Zn1 1.963 1_565 S
O15 C19 1.260 1_565 S
O16 Zn0 1.969 . S
O16 C19 1.258 1_556 S
O17 Zn1 2.024 . S
O17 C4 1.058 . S
C18 O7 1.260 1_554 S
C18 O8 1.258 . S
C19 O15 1.260 1_545 S
C19 O16 1.258 1_554 S
Zn20 O26 1.969 . S
Zn20 O27 1.965 . S
Zn20 O31 2.024 . S
Zn20 O36 1.969 . S
Zn21 O28 1.969 . S
Zn21 O34 1.969 . S
Zn21 O35 1.965 . S
Zn21 O37 2.024 . S
C22 O23 1.229 . S
C22 O31 1.058 . S
O23 C22 1.229 . S
C24 O25 1.229 . S
C24 O37 1.058 . S
O25 C24 1.229 . S
O26 Zn20 1.969 . S
O26 C29 1.267 . S
O27 Zn20 1.965 . S
O27 C38 1.260 . S
O28 Zn21 1.969 . S
O28 C38 1.258 . S
C29 O26 1.267 . S
C29 O30 1.228 . S
O30 C29 1.228 . S
O31 Zn20 2.024 . S
O31 C22 1.058 . S
C32 O33 1.228 . S
C32 O34 1.267 . S
O33 C32 1.228 . S
O34 Zn21 1.969 . S
O34 C32 1.267 . S
O35 Zn21 1.965 . S
O35 C39 1.260 . S
O36 Zn20 1.969 . S
O36 C39 1.258 . S
O37 Zn21 2.024 . S
O37 C24 1.058 . S
C38 O27 1.260 . S
C38 O28 1.258 . S
C39 O35 1.260 . S
C39 O36 1.258 . S
Zn40 O46 1.969 . S
Zn40 O47 1.965 . S
Zn40 O51 2.024 1_655 S
Zn40 O56 1.969 1_655 S
Zn41 O48 1.969 . S
Zn41 O54 1.969 . S
Zn41 O55 1.965 . S
Zn41 O57 2.024 1_455 S
C42 O43 1.229 . S
C42 O51 1.058 . S
O43 C42 1.229 . S
C44 O45 1.229 . S
C44 O57 1.058 . S
O45 C44 1.229 . S
O46 Zn40 1.969 . S
O46 C49 1.267 . S
O47 Zn40 1.965 . S
O47 C58 1.260 . S
O48 Zn41 1.969 . S
O48 C58 1.258 1_455 S
C49 O46 1.267 . S
C49 O50 1.228 . S
O50 C49 1.228 . S
O51 Zn40 2.024 1_455 S
O51 C42 1.058 . S
C52 O53 1.228 . S
C52 O54 1.267 . S
O53 C52 1.228 . S
O54 Zn41 1.969 . S
O54 C52 1.267 . S
O55 Zn41 1.965 . S
O55 C59 1.260 . S
O56 Zn40 1.969 1_455 S
O56 C59 1.258 . S
O57 Zn41 2.024 1_655 S
O57 C44 1.058 . S
C58 O47 1.260 . S
C58 O48 1.258 1_655 S
C59 O55 1.260 . S
C59 O56 1.258 . S
Zn60 O66 1.969 . S
Zn60 O67 1.965 . S
Zn60 O71 2.024 1_545 S
Zn60 O76 1.969 . S
Zn61 O68 1.969 . S
Zn61 O74 1.969 1_545 S
Zn61 O75 1.964 . S
Zn61 O77 2.024 . S
C62 O63 1.229 . S
C62 O71 1.058 . S
O63 C62 1.229 . S
C64 O65 1.229 . S
C64 O77 1.058 . S
O65 C64 1.229 . S
O66 Zn60 1.969 . S
O66 C69 1.267 . S
O67 Zn60 1.965 . S
O67 C78 1.260 . S
O68 Zn61 1.969 . S
O68 C78 1.258 1_556 S
C69 O66 1.267 . S
C69 O70 1.228 . S
O70 C69 1.228 . S
O71 Zn60 2.024 1_565 S
O71 C62 1.058 . S
C72 O73 1.228 . S
C72 O74 1.267 . S
O73 C72 1.228 . S
O74 Zn61 1.969 1_565 S
O74 C72 1.267 . S
O75 Zn61 1.964 . S
O75 C79 1.261 1_556 S
O76 Zn60 1.969 . S
O76 C79 1.258 . S
O77 Zn61 2.024 . S
O77 C64 1.058 . S
C78 O67 1.260 . S
C78 O68 1.258 1_554 S
C79 O75 1.261 1_554 S
C79 O76 1.258 . S
Zn80 O86 1.969 . S
Zn80 O87 1.965 . S
Zn80 O91 2.024 . S
Zn80 O96 1.969 . S
Zn81 O88 1.969 . S
Zn81 O94 1.969 . S
Zn81 O95 1.965 . S
Zn81 O97 2.024 . S
C82 O83 1.229 . S
C82 O91 1.058 . S
O83 C82 1.229 . S
C84 O85 1.229 . S
C84 O97 1.058 . S
O85 C84 1.229 . S
O86 Zn80 1.969 . S
O86 C89 1.267 . S
O87 Zn80 1.965 . S
O87 C98 1.260 . S
O88 Zn81 1.969 . S
O88 C98 1.258 . S
C89 O86 1.267 . S
C89 O90 1.228 . S
O90 C89 1.228 . S
O91 Zn80 2.024 . S
O91 C82 1.058 . S
C92 O93 1.228 . S
C92 O94 1.267 . S
O93 C92 1.228 . S
O94 Zn81 1.969 . S
O94 C92 1.267 . S
O95 Zn81 1.965 . S
O95 C99 1.260 . S
O96 Zn80 1.969 . S
O96 C99 1.258 . S
O97 Zn81 2.024 . S
O97 C84 1.058 . S
C98 O87 1.260 . S
C98 O88 1.258 . S
C99 O95 1.260 . S
C99 O96 1.258 . S
Zn100 O106 1.969 . S
Zn100 O107 1.965 . S
Zn100 O111 2.024 1_655 S
Zn100 O116 1.969 1_655 S
Zn101 O108 1.969 . S
Zn101 O114 1.969 . S
Zn101 O115 1.965 . S
Zn101 O117 2.024 1_455 S
C102 O103 1.229 . S
C102 O111 1.058 . S
O103 C102 1.229 . S
C104 O105 1.229 . S
C104 O117 1.058 . S
O105 C104 1.229 . S
O106 Zn100 1.969 . S
O106 C109 1.267 . S
O107 Zn100 1.965 . S
O107 C118 1.260 . S
O108 Zn101 1.969 . S
O108 C118 1.258 1_455 S
C109 O106 1.267 . S
C109 O110 1.228 . S
O110 C109 1.228 . S
O111 Zn100 2.024 1_455 S
O111 C102 1.058 . S
C112 O113 1.228 . S
C112 O114 1.267 . S
O113 C112 1.228 . S
O114 Zn101 1.969 . S
O114 C112 1.267 . S
O115 Zn101 1.965 . S
O115 C119 1.260 . S
O116 Zn100 1.969 1_455 S
O116 C119 1.258 . S
O117 Zn101 2.024 1_655 S
O117 C104 1.058 . S
C118 O107 1.260 . S
C118 O108 1.258 1_655 S
C119 O115 1.260 . S
C119 O116 1.258 . S
H120 C132 0.930 1_565 S
H121 C134 0.930 . S
H122 C135 0.930 . S
H123 C139 0.959 . S
H124 C139 0.959 1_565 S
H125 C139 0.961 1_565 S
H126 C140 0.960 1_655 S
H127 C140 0.961 . S
H128 C140 0.959 1_655 S
H129 C143 0.929 . S
H130 C144 0.931 . S
H131 C146 0.930 1_565 S
C132 H120 0.930 1_545 S
C132 C133 1.399 . S
C132 C137 1.399 1_655 S
C133 C132 1.399 . S
C133 C134 1.376 1_554 S
C134 H121 0.930 . S
C134 C133 1.376 1_556 S
C134 C135 1.388 1_655 S
C135 H122 0.930 . S
C135 C134 1.388 1_455 S
C135 C136 1.390 . S
C136 C135 1.390 . S
C136 C137 1.394 1_556 S
C136 C142 1.465 . S
C137 C132 1.399 1_455 S
C137 C136 1.394 1_554 S
C137 C138 1.516 1_545 S
C138 C137 1.516 1_565 S
C138 C139 1.502 1_565 S
C138 C140 1.561 . S
C138 C141 1.526 1_565 S
C139 H123 0.959 . S
C139 H124 0.959 1_545 S
C139 H125 0.961 1_545 S
C139 C138 1.502 1_545 S
C140 H126 0.960 1_455 S
C140 H127 0.961 . S
C140 H128 0.959 1_455 S
C140 C138 1.561 . S
C141 C138 1.526 1_545 S
C141 C142 1.396 1_554 S
C141 C146 1.390 . S
C142 C136 1.465 . S
C142 C141 1.396 1_556 S
C142 C143 1.399 . S
C143 H129 0.929 . S
C143 C142 1.399 . S
C143 C144 1.385 . S
C144 H130 0.931 . S
C144 C143 1.385 . S
C144 C145 1.380 1_556 S
C145 C144 1.380 1_554 S
C145 C146 1.394 . S
C146 H131 0.930 1_545 S
C146 C141 1.390 . S
C146 C145 1.394 . S
H147 C159 0.930 . S
H148 C161 0.930 . S
H149 C162 0.930 . S
H150 C166 0.959 . S
H151 C166 0.959 . S
H152 C166 0.961 1_665 S
H153 C167 0.960 . S
H154 C167 0.961 . S
H155 C167 0.959 . S
H156 C170 0.929 . S
H157 C171 0.931 . S
H158 C173 0.930 . S
C159 H147 0.930 . S
C159 C160 1.399 . S
C159 C164 1.399 1_655 S
C160 C159 1.399 . S
C160 C161 1.376 . S
C161 H148 0.930 . S
C161 C160 1.376 . S
C161 C162 1.388 1_655 S
C162 H149 0.930 . S
C162 C161 1.388 1_455 S
C162 C163 1.390 . S
C163 C162 1.390 . S
C163 C164 1.394 . S
C163 C169 1.465 1_565 S
C164 C159 1.399 1_455 S
C164 C163 1.394 . S
C164 C165 1.516 . S
C165 C164 1.516 . S
C165 C166 1.502 1_565 S
C165 C167 1.561 . S
C165 C168 1.526 1_565 S
C166 H150 0.959 . S
C166 H151 0.959 . S
C166 H152 0.961 1_445 S
C166 C165 1.502 1_545 S
C167 H153 0.960 . S
C167 H154 0.961 . S
C167 H155 0.959 . S
C167 C165 1.561 . S
C168 C165 1.526 1_545 S
C168 C169 1.396 . S
C168 C173 1.390 . S
C169 C163 1.465 1_545 S
C169 C168 1.396 . S
C169 C170 1.399 . S
C170 H156 0.929 . S
C170 C169 1.399 . S
C170 C171 1.385 . S
C171 H157 0.931 . S
C171 C170 1.385 . S
C171 C172 1.389 . S
C172 C171 1.389 . S
C172 C173 1.387 . S
C173 H158 0.930 . S
C173 C168 1.390 . S
C173 C172 1.387 . S
H174 C186 0.930 . S
H175 C188 0.930 . S
H176 C189 0.930 . S
H177 C193 0.959 . S
H178 C193 0.959 . S
H179 C193 0.961 1_565 S
H180 C194 0.960 . S
H181 C194 0.961 . S
H182 C194 0.959 . S
H183 C197 0.929 . S
H184 C198 0.931 . S
H185 C200 0.930 . S
C186 H174 0.930 . S
C186 C187 1.399 1_455 S
C186 C191 1.399 . S
C187 C186 1.399 1_655 S
C187 C188 1.376 . S
C188 H175 0.930 . S
C188 C187 1.376 . S
C188 C189 1.388 . S
C189 H176 0.930 . S
C189 C188 1.388 . S
C189 C190 1.390 . S
C190 C189 1.390 . S
C190 C191 1.394 1_655 S
C190 C196 1.465 1_565 S
C191 C186 1.399 . S
C191 C190 1.394 1_455 S
C191 C192 1.516 . S
C192 C191 1.516 . S
C192 C193 1.502 1_565 S
C192 C194 1.561 1_455 S
C192 C195 1.526 1_565 S
C193 H177 0.959 . S
C193 H178 0.959 . S
C193 H179 0.961 1_545 S
C193 C192 1.502 1_545 S
C194 H180 0.960 . S
C194 H181 0.961 . S
C194 H182 0.959 . S
C194 C192 1.561 1_655 S
C195 C192 1.526 1_545 S
C195 C196 1.396 1_455 S
C195 C200 1.390 . S
C196 C190 1.465 1_545 S
C196 C195 1.396 1_655 S
C196 C197 1.399 . S
C197 H183 0.929 . S
C197 C196 1.399 . S
C197 C198 1.385 . S
C198 H184 0.931 . S
C198 C197 1.385 . S
C198 C199 1.389 . S
C199 C198 1.389 . S
C199 C200 1.387 1_655 S
C200 H185 0.930 . S
C200 C195 1.390 . S
C200 C199 1.387 1_455 S
H201 C213 0.930 . S
H202 C215 0.930 . S
H203 C216 0.930 . S
H204 C220 0.959 . S
H205 C220 0.959 . S
H206 C220 0.961 . S
H207 C221 0.960 . S
H208 C221 0.961 . S
H209 C221 0.959 . S
H210 C224 0.929 . S
H211 C225 0.931 . S
H212 C227 0.930 . S
C213 H201 0.930 . S
C213 C214 1.399 . S
C213 C218 1.399 . S
C214 C213 1.399 . S
C214 C215 1.376 . S
C215 H202 0.930 . S
C215 C214 1.376 . S
C215 C216 1.388 . S
C216 H203 0.930 . S
C216 C215 1.388 . S
C216 C217 1.390 . S
C217 C216 1.390 . S
C217 C218 1.394 . S
C217 C223 1.465 . S
C218 C213 1.399 . S
C218 C217 1.394 . S
C218 C219 1.516 . S
C219 C218 1.516 . S
C219 C220 1.502 . S
C219 C221 1.561 . S
C219 C222 1.526 . S
C220 H204 0.959 . S
C220 H205 0.959 . S
C220 H206 0.961 . S
C220 C219 1.502 . S
C221 H207 0.960 . S
C221 H208 0.961 . S
C221 H209 0.959 . S
C221 C219 1.561 . S
C222 C219 1.526 . S
C222 C223 1.396 . S
C222 C227 1.390 . S
C223 C217 1.465 . S
C223 C222 1.396 . S
C223 C224 1.399 . S
C224 H210 0.929 . S
C224 C223 1.399 . S
C224 C225 1.385 . S
C225 H211 0.931 . S
C225 C224 1.385 . S
C225 C226 1.389 . S
C226 C225 1.389 . S
C226 C227 1.387 . S
C227 H212 0.930 . S
C227 C222 1.390 . S
C227 C226 1.387 . S
H228 C240 0.930 . S
H229 C242 0.930 . S
H230 C243 0.930 . S
H231 C247 0.959 . S
H232 C247 0.959 . S
H233 C247 0.961 . S
H234 C248 0.960 . S
H235 C248 0.961 1_655 S
H236 C248 0.959 . S
H237 C251 0.929 . S
H238 C252 0.931 . S
H239 C254 0.930 . S
C240 H228 0.930 . S
C240 C241 1.399 . S
C240 C245 1.399 . S
C241 C240 1.399 . S
C241 C242 1.376 . S
C242 H229 0.930 . S
C242 C241 1.376 . S
C242 C243 1.388 . S
C243 H230 0.930 . S
C243 C242 1.388 . S
C243 C244 1.390 . S
C244 C243 1.390 . S
C244 C245 1.394 . S
C244 C250 1.465 . S
C245 C240 1.399 . S
C245 C244 1.394 . S
C245 C246 1.516 . S
C246 C245 1.516 . S
C246 C247 1.502 1_455 S
C246 C248 1.561 . S
C246 C249 1.526 . S
C247 H231 0.959 . S
C247 H232 0.959 . S
C247 H233 0.961 . S
C247 C246 1.502 1_655 S
C248 H234 0.960 . S
C248 H235 0.961 1_455 S
C248 H236 0.959 . S
C248 C246 1.561 . S
C249 C246 1.526 . S
C249 C250 1.396 . S
C249 C254 1.390 1_455 S
C250 C244 1.465 . S
C250 C249 1.396 . S
C250 C251 1.399 . S
C251 H237 0.929 . S
C251 C250 1.399 . S
C251 C252 1.385 . S
C252 H238 0.931 . S
C252 C251 1.385 . S
C252 C253 1.389 1_455 S
C253 C252 1.389 1_655 S
C253 C254 1.387 . S
C254 H239 0.930 . S
C254 C249 1.390 1_655 S
C254 C253 1.387 . S
H255 C267 0.930 . S
H256 C269 0.930 . S
H257 C270 0.930 . S
H258 C274 0.959 1_565 S
H259 C274 0.959 . S
H260 C274 0.961 . S
H261 C275 0.960 . S
H262 C275 0.961 . S
H263 C275 0.959 . S
H264 C278 0.929 . S
H265 C279 0.931 . S
H266 C281 0.930 . S
C267 H255 0.930 . S
C267 C268 1.399 . S
C267 C272 1.399 . S
C268 C267 1.399 . S
C268 C269 1.376 . S
C269 H256 0.930 . S
C269 C268 1.376 . S
C269 C270 1.388 1_545 S
C270 H257 0.930 . S
C270 C269 1.388 1_565 S
C270 C271 1.390 . S
C271 C270 1.390 . S
C271 C272 1.394 1_565 S
C271 C277 1.465 . S
C272 C267 1.399 . S
C272 C271 1.394 1_545 S
C272 C273 1.516 . S
C273 C272 1.516 . S
C273 C274 1.502 . S
C273 C275 1.561 . S
C273 C276 1.526 1_545 S
C274 H258 0.959 1_545 S
C274 H259 0.959 . S
C274 H260 0.961 . S
C274 C273 1.502 . S
C275 H261 0.960 . S
C275 H262 0.961 . S
C275 H263 0.959 . S
C275 C273 1.561 . S
C276 C273 1.526 1_565 S
C276 C277 1.396 . S
C276 C281 1.390 . S
C277 C271 1.465 . S
C277 C276 1.396 . S
C277 C278 1.399 . S
C278 H264 0.929 . S
C278 C277 1.399 . S
C278 C279 1.385 . S
C279 H265 0.931 . S
C279 C278 1.385 . S
C279 C280 1.389 . S
C280 C279 1.389 . S
C280 C281 1.387 . S
C281 H266 0.930 . S
C281 C276 1.390 . S
C281 C280 1.387 . S
H282 C294 0.930 . S
H283 C296 0.930 . S
H284 C297 0.930 . S
H285 C301 0.959 . S
H286 C301 0.959 . S
H287 C301 0.961 . S
H288 C302 0.960 . S
H289 C302 0.961 . S
H290 C302 0.959 . S
H291 C305 0.929 . S
H292 C306 0.931 . S
H293 C308 0.930 . S
C294 H282 0.930 . S
C294 C295 1.399 . S
C294 C299 1.399 . S
C295 C294 1.399 . S
C295 C296 1.376 . S
C296 H283 0.930 . S
C296 C295 1.376 . S
C296 C297 1.388 . S
C297 H284 0.930 . S
C297 C296 1.388 . S
C297 C298 1.390 . S
C298 C297 1.390 . S
C298 C299 1.394 . S
C298 C304 1.465 . S
C299 C294 1.399 . S
C299 C298 1.394 . S
C299 C300 1.516 . S
C300 C299 1.516 . S
C300 C301 1.502 . S
C300 C302 1.561 . S
C300 C303 1.526 . S
C301 H285 0.959 . S
C301 H286 0.959 . S
C301 H287 0.961 . S
C301 C300 1.502 . S
C302 H288 0.960 . S
C302 H289 0.961 . S
C302 H290 0.959 . S
C302 C300 1.561 . S
C303 C300 1.526 . S
C303 C304 1.396 . S
C303 C308 1.390 . S
C304 C298 1.465 . S
C304 C303 1.396 . S
C304 C305 1.399 . S
C305 H291 0.929 . S
C305 C304 1.399 . S
C305 C306 1.385 . S
C306 H292 0.931 . S
C306 C305 1.385 . S
C306 C307 1.389 . S
C307 C306 1.389 . S
C307 C308 1.387 . S
C308 H293 0.930 . S
C308 C303 1.390 . S
C308 C307 1.387 . S
H309 C321 0.930 . S
H310 C323 0.930 . S
H311 C324 0.930 . S
H312 C328 0.959 . S
H313 C328 0.959 . S
H314 C328 0.961 . S
H315 C329 0.960 1_655 S
H316 C329 0.961 . S
H317 C329 0.959 1_655 S
H318 C332 0.929 . S
H319 C333 0.931 . S
H320 C335 0.930 . S
C321 H309 0.930 . S
C321 C322 1.399 . S
C321 C326 1.399 1_655 S
C322 C321 1.399 . S
C322 C323 1.376 . S
C323 H310 0.930 . S
C323 C322 1.376 . S
C323 C324 1.388 1_655 S
C324 H311 0.930 . S
C324 C323 1.388 1_455 S
C324 C325 1.390 . S
C325 C324 1.390 . S
C325 C326 1.394 . S
C325 C331 1.465 . S
C326 C321 1.399 1_455 S
C326 C325 1.394 . S
C326 C327 1.516 . S
C327 C326 1.516 . S
C327 C328 1.502 . S
C327 C329 1.561 . S
C327 C330 1.526 . S
C328 H312 0.959 . S
C328 H313 0.959 . S
C328 H314 0.961 . S
C328 C327 1.502 . S
C329 H315 0.960 1_455 S
C329 H316 0.961 . S
C329 H317 0.959 1_455 S
C329 C327 1.561 . S
C330 C327 1.526 . S
C330 C331 1.396 . S
C330 C335 1.390 . S
C331 C325 1.465 . S
C331 C330 1.396 . S
C331 C332 1.399 . S
C332 H318 0.929 . S
C332 C331 1.399 . S
C332 C333 1.385 . S
C333 H319 0.931 . S
C333 C332 1.385 . S
C333 C334 1.389 . S
C334 C333 1.389 . S
C334 C335 1.387 . S
C335 H320 0.930 . S
C335 C330 1.390 . S
C335 C334 1.387 . S
H336 C348 0.930 . S
H337 C350 0.930 . S
H338 C351 0.930 . S
H339 C355 0.959 1_545 S
H340 C355 0.959 . S
H341 C355 0.961 . S
H342 C356 0.960 . S
H343 C356 0.961 . S
H344 C356 0.959 . S
H345 C359 0.929 . S
H346 C360 0.931 . S
H347 C362 0.930 . S
C348 H336 0.930 . S
C348 C349 1.399 . S
C348 C353 1.399 . S
C349 C348 1.399 . S
C349 C350 1.376 . S
C350 H337 0.930 . S
C350 C349 1.376 . S
C350 C351 1.388 . S
C351 H338 0.930 . S
C351 C350 1.388 . S
C351 C352 1.390 . S
C352 C351 1.390 . S
C352 C353 1.394 . S
C352 C358 1.465 . S
C353 C348 1.399 . S
C353 C352 1.394 . S
C353 C354 1.516 . S
C354 C353 1.516 . S
C354 C355 1.502 . S
C354 C356 1.561 . S
C354 C357 1.526 . S
C355 H339 0.959 1_565 S
C355 H340 0.959 . S
C355 H341 0.961 . S
C355 C354 1.502 . S
C356 H342 0.960 . S
C356 H343 0.961 . S
C356 H344 0.959 . S
C356 C354 1.561 . S
C357 C354 1.526 . S
C357 C358 1.396 . S
C357 C362 1.390 1_565 S
C358 C352 1.465 . S
C358 C357 1.396 . S
C358 C359 1.399 1_565 S
C359 H345 0.929 . S
C359 C358 1.399 1_545 S
C359 C360 1.385 . S
C360 H346 0.931 . S
C360 C359 1.385 . S
C360 C361 1.389 . S
C361 C360 1.389 . S
C361 C362 1.387 . S
C362 H347 0.930 . S
C362 C357 1.390 1_545 S
C362 C361 1.387 . S
H363 C375 0.930 1_556 S
H364 C377 0.930 . S
H365 C378 0.930 . S
H366 C382 0.959 . S
H367 C382 0.959 . S
H368 C382 0.961 . S
H369 C383 0.960 . S
H370 C383 0.961 . S
H371 C383 0.959 . S
H372 C386 0.929 . S
H373 C387 0.931 . S
H374 C389 0.932 . S
C375 H363 0.930 1_554 S
C375 C376 1.399 . S
C375 C380 1.399 . S
C376 C375 1.399 . S
C376 C377 1.376 1_545 S
C377 H364 0.930 . S
C377 C376 1.376 1_565 S
C377 C378 1.388 . S
C378 H365 0.930 . S
C378 C377 1.388 . S
C378 C379 1.390 1_565 S
C379 C378 1.390 1_545 S
C379 C380 1.394 . S
C379 C385 1.474 . S
C380 C375 1.399 . S
C380 C379 1.394 . S
C380 C381 1.516 1_554 S
C381 C380 1.516 1_556 S
C381 C382 1.502 . S
C381 C383 1.561 1_556 S
C381 C384 1.526 1_556 S
C382 H366 0.959 . S
C382 H367 0.959 . S
C382 H368 0.961 . S
C382 C381 1.502 . S
C383 H369 0.960 . S
C383 H370 0.961 . S
C383 H371 0.959 . S
C383 C381 1.561 1_554 S
C384 C381 1.526 1_554 S
C384 C385 1.406 . S
C384 C389 1.389 1_554 S
C385 C379 1.474 . S
C385 C384 1.406 . S
C385 C386 1.383 1_545 S
C386 H372 0.929 . S
C386 C385 1.383 1_565 S
C386 C387 1.385 . S
C387 H373 0.931 . S
C387 C386 1.385 . S
C387 C388 1.389 1_565 S
C388 C387 1.389 1_545 S
C388 C389 1.386 1_554 S
C389 H374 0.932 . S
C389 C384 1.389 1_556 S
C389 C388 1.386 1_556 S
H390 C402 0.930 . S
H391 C404 0.930 . S
H392 C405 0.930 . S
H393 C409 0.959 . S
H394 C409 0.959 . S
H395 C409 0.961 . S
H396 C410 0.960 . S
H397 C410 0.961 . S
H398 C410 0.959 . S
H399 C413 0.929 . S
H400 C414 0.931 . S
H401 C416 0.930 . S
C402 H390 0.930 . S
C402 C403 1.399 . S
C402 C407 1.399 . S
C403 C402 1.399 . S
C403 C404 1.376 . S
C404 H391 0.930 . S
C404 C403 1.376 . S
C404 C405 1.388 . S
C405 H392 0.930 . S
C405 C404 1.388 . S
C405 C406 1.390 . S
C406 C405 1.390 . S
C406 C407 1.394 . S
C406 C412 1.465 . S
C407 C402 1.399 . S
C407 C406 1.394 . S
C407 C408 1.516 . S
C408 C407 1.516 . S
C408 C409 1.502 . S
C408 C410 1.561 . S
C408 C411 1.526 . S
C409 H393 0.959 . S
C409 H394 0.959 . S
C409 H395 0.961 . S
C409 C408 1.502 . S
C410 H396 0.960 . S
C410 H397 0.961 . S
C410 H398 0.959 . S
C410 C408 1.561 . S
C411 C408 1.526 . S
C411 C412 1.396 . S
C411 C416 1.390 . S
C412 C406 1.465 . S
C412 C411 1.396 . S
C412 C413 1.399 . S
C413 H399 0.929 . S
C413 C412 1.399 . S
C413 C414 1.385 . S
C414 H400 0.931 . S
C414 C413 1.385 . S
C414 C415 1.389 . S
C415 C414 1.389 . S
C415 C416 1.387 . S
C416 H401 0.930 . S
C416 C411 1.390 . S
C416 C415 1.387 . S
H417 C429 0.930 . S
H418 C431 0.930 . S
H419 C432 0.930 . S
H420 C436 0.959 . S
H421 C436 0.959 . S
H422 C436 0.961 . S
H423 C437 0.960 . S
H424 C437 0.961 . S
H425 C437 0.959 . S
H426 C440 0.929 . S
H427 C441 0.931 . S
H428 C443 0.930 . S
C429 H417 0.930 . S
C429 C430 1.399 . S
C429 C434 1.399 . S
C430 C429 1.399 . S
C430 C431 1.376 1_455 S
C431 H418 0.930 . S
C431 C430 1.376 1_655 S
C431 C432 1.388 . S
C432 H419 0.930 . S
C432 C431 1.388 . S
C432 C433 1.390 1_655 S
C433 C432 1.390 1_455 S
C433 C434 1.394 . S
C433 C439 1.465 . S
C434 C429 1.399 . S
C434 C433 1.394 . S
C434 C435 1.516 . S
C435 C434 1.516 . S
C435 C436 1.502 . S
C435 C437 1.561 1_455 S
C435 C438 1.526 . S
C436 H420 0.959 . S
C436 H421 0.959 . S
C436 H422 0.961 . S
C436 C435 1.502 . S
C437 H423 0.960 . S
C437 H424 0.961 . S
C437 H425 0.959 . S
C437 C435 1.561 1_655 S
C438 C435 1.526 . S
C438 C439 1.396 . S
C438 C443 1.390 . S
C439 C433 1.465 . S
C439 C438 1.396 . S
C439 C440 1.399 1_455 S
C440 H426 0.929 . S
C440 C439 1.399 1_655 S
C440 C441 1.385 . S
C441 H427 0.931 . S
C441 C440 1.385 . S
C441 C442 1.389 1_655 S
C442 C441 1.389 1_455 S
C442 C443 1.387 . S
C443 H428 0.930 . S
C443 C438 1.390 . S
C443 C442 1.387 . S
H444 C456 0.930 . S
H445 C458 0.930 . S
H446 C459 0.930 . S
H447 C463 0.959 . S
H448 C463 0.959 . S
H449 C463 0.961 . S
H450 C464 0.960 . S
H451 C464 0.961 . S
H452 C464 0.959 . S
H453 C467 0.929 . S
H454 C468 0.931 . S
H455 C470 0.930 . S
C456 H444 0.930 . S
C456 C457 1.399 . S
C456 C461 1.399 . S
C457 C456 1.399 . S
C457 C458 1.376 . S
C458 H445 0.930 . S
C458 C457 1.376 . S
C458 C459 1.388 . S
C459 H446 0.930 . S
C459 C458 1.388 . S
C459 C460 1.390 . S
C460 C459 1.390 . S
C460 C461 1.394 . S
C460 C466 1.465 . S
C461 C456 1.399 . S
C461 C460 1.394 . S
C461 C462 1.516 . S
C462 C461 1.516 . S
C462 C463 1.502 . S
C462 C464 1.561 . S
C462 C465 1.526 . S
C463 H447 0.959 . S
C463 H448 0.959 . S
C463 H449 0.961 . S
C463 C462 1.502 . S
C464 H450 0.960 . S
C464 H451 0.961 . S
C464 H452 0.959 . S
C464 C462 1.561 . S
C465 C462 1.526 . S
C465 C466 1.396 . S
C465 C470 1.390 . S
C466 C460 1.465 . S
C466 C465 1.396 . S
C466 C467 1.399 . S
C467 H453 0.929 . S
C467 C466 1.399 . S
C467 C468 1.385 . S
C468 H454 0.931 . S
C468 C467 1.385 . S
C468 C469 1.389 . S
C469 C468 1.389 . S
C469 C470 1.387 . S
C470 H455 0.930 . S
C470 C465 1.390 . S
C470 C469 1.387 . S
H471 C483 0.930 . S
H472 C485 0.930 . S
H473 C486 0.930 . S
H474 C490 0.959 . S
H475 C490 0.959 . S
H476 C490 0.961 . S
H477 C491 0.960 . S
H478 C491 0.961 . S
H479 C491 0.959 . S
H480 C494 0.929 . S
H481 C495 0.931 . S
H482 C497 0.930 . S
C483 H471 0.930 . S
C483 C484 1.399 . S
C483 C488 1.399 . S
C484 C483 1.399 . S
C484 C485 1.376 . S
C485 H472 0.930 . S
C485 C484 1.376 . S
C485 C486 1.388 . S
C486 H473 0.930 . S
C486 C485 1.388 . S
C486 C487 1.390 . S
C487 C486 1.390 . S
C487 C488 1.394 . S
C487 C493 1.465 . S
C488 C483 1.399 . S
C488 C487 1.394 . S
C488 C489 1.516 . S
C489 C488 1.516 . S
C489 C490 1.502 . S
C489 C491 1.561 . S
C489 C492 1.526 . S
C490 H474 0.959 . S
C490 H475 0.959 . S
C490 H476 0.961 . S
C490 C489 1.502 . S
C491 H477 0.960 . S
C491 H478 0.961 . S
C491 H479 0.959 . S
C491 C489 1.561 . S
C492 C489 1.526 . S
C492 C493 1.396 . S
C492 C497 1.390 . S
C493 C487 1.465 . S
C493 C492 1.396 . S
C493 C494 1.399 . S
C494 H480 0.929 . S
C494 C493 1.399 . S
C494 C495 1.385 . S
C495 H481 0.931 . S
C495 C494 1.385 . S
C495 C496 1.389 . S
C496 C495 1.389 . S
C496 C497 1.387 . S
C497 H482 0.930 . S
C497 C492 1.390 . S
C497 C496 1.387 . S
H498 C510 0.930 . S
H499 C512 0.930 . S
H500 C513 0.930 . S
H501 C517 0.959 . S
H502 C517 0.959 . S
H503 C517 0.961 . S
H504 C518 0.960 1_455 S
H505 C518 0.961 1_455 S
H506 C518 0.959 . S
H507 C521 0.929 . S
H508 C522 0.931 . S
H509 C524 0.930 . S
C510 H498 0.930 . S
C510 C511 1.399 . S
C510 C515 1.399 . S
C511 C510 1.399 . S
C511 C512 1.376 . S
C512 H499 0.930 . S
C512 C511 1.376 . S
C512 C513 1.388 . S
C513 H500 0.930 . S
C513 C512 1.388 . S
C513 C514 1.390 . S
C514 C513 1.390 . S
C514 C515 1.394 . S
C514 C520 1.465 . S
C515 C510 1.399 . S
C515 C514 1.394 . S
C515 C516 1.516 . S
C516 C515 1.516 . S
C516 C517 1.502 1_655 S
C516 C518 1.561 . S
C516 C519 1.526 . S
C517 H501 0.959 . S
C517 H502 0.959 . S
C517 H503 0.961 . S
C517 C516 1.502 1_455 S
C518 H504 0.960 1_655 S
C518 H505 0.961 1_655 S
C518 H506 0.959 . S
C518 C516 1.561 . S
C519 C516 1.526 . S
C519 C520 1.396 . S
C519 C524 1.390 . S
C520 C514 1.465 . S
C520 C519 1.396 . S
C520 C521 1.399 . S
C521 H507 0.929 . S
C521 C520 1.399 . S
C521 C522 1.385 . S
C522 H508 0.931 . S
C522 C521 1.385 . S
C522 C523 1.389 . S
C523 C522 1.389 . S
C523 C524 1.387 . S
C524 H509 0.930 . S
C524 C519 1.390 . S
C524 C523 1.387 . S
H525 C537 0.930 . S
H526 C539 0.930 1_545 S
H527 C540 0.930 1_545 S
H528 C544 0.959 . S
H529 C544 0.959 . S
H530 C544 0.961 . S
H531 C545 0.960 . S
H532 C545 0.961 . S
H533 C545 0.959 . S
H534 C548 0.929 . S
H535 C549 0.931 . S
H536 C551 0.930 . S
C537 H525 0.930 . S
C537 C538 1.399 . S
C537 C542 1.399 . S
C538 C537 1.399 . S
C538 C539 1.376 . S
C539 H526 0.930 1_565 S
C539 C538 1.376 . S
C539 C540 1.388 . S
C540 H527 0.930 1_565 S
C540 C539 1.388 . S
C540 C541 1.390 . S
C541 C540 1.390 . S
C541 C542 1.394 . S
C541 C547 1.465 . S
C542 C537 1.399 . S
C542 C541 1.394 . S
C542 C543 1.516 . S
C543 C542 1.516 . S
C543 C544 1.502 . S
C543 C545 1.561 . S
C543 C546 1.526 . S
C544 H528 0.959 . S
C544 H529 0.959 . S
C544 H530 0.961 . S
C544 C543 1.502 . S
C545 H531 0.960 . S
C545 H532 0.961 . S
C545 H533 0.959 . S
C545 C543 1.561 . S
C546 C543 1.526 . S
C546 C547 1.396 . S
C546 C551 1.390 . S
C547 C541 1.465 . S
C547 C546 1.396 . S
C547 C548 1.399 . S
C548 H534 0.929 . S
C548 C547 1.399 . S
C548 C549 1.385 . S
C549 H535 0.931 . S
C549 C548 1.385 . S
C549 C550 1.389 . S
C550 C549 1.389 . S
C550 C551 1.387 . S
C551 H536 0.930 . S
C551 C546 1.390 . S
C551 C550 1.387 . S
H552 C564 0.930 . S
H553 C566 0.930 . S
H554 C567 0.930 . S
H555 C571 0.959 . S
H556 C571 0.959 . S
H557 C571 0.961 . S
H558 C572 0.960 . S
H559 C572 0.961 . S
H560 C572 0.959 . S
H561 C575 0.929 . S
H562 C576 0.931 . S
H563 C578 0.930 . S
C564 H552 0.930 . S
C564 C565 1.399 . S
C564 C569 1.399 . S
C565 C564 1.399 . S
C565 C566 1.376 . S
C566 H553 0.930 . S
C566 C565 1.376 . S
C566 C567 1.388 . S
C567 H554 0.930 . S
C567 C566 1.388 . S
C567 C568 1.390 . S
C568 C567 1.390 . S
C568 C569 1.394 . S
C568 C574 1.465 . S
C569 C564 1.399 . S
C569 C568 1.394 . S
C569 C570 1.516 . S
C570 C569 1.516 . S
C570 C571 1.502 1_655 S
C570 C572 1.561 . S
C570 C573 1.526 . S
C571 H555 0.959 . S
C571 H556 0.959 . S
C571 H557 0.961 . S
C571 C570 1.502 1_455 S
C572 H558 0.960 . S
C572 H559 0.961 . S
C572 H560 0.959 . S
C572 C570 1.561 . S
C573 C570 1.526 . S
C573 C574 1.396 . S
C573 C578 1.390 . S
C574 C568 1.465 . S
C574 C573 1.396 . S
C574 C575 1.399 . S
C575 H561 0.929 . S
C575 C574 1.399 . S
C575 C576 1.385 . S
C576 H562 0.931 . S
C576 C575 1.385 . S
C576 C577 1.389 . S
C577 C576 1.389 . S
C577 C578 1.387 . S
C578 H563 0.930 . S
C578 C573 1.390 . S
C578 C577 1.387 . S
H579 C591 0.930 . S
H580 C593 0.930 . S
H581 C594 0.930 . S
H582 C598 0.959 . S
H583 C598 0.959 . S
H584 C598 0.961 . S
H585 C599 0.960 . S
H586 C599 0.961 . S
H587 C599 0.959 . S
H588 C602 0.929 1_545 S
H589 C603 0.931 1_545 S
H590 C605 0.930 . S
C591 H579 0.930 . S
C591 C592 1.399 . S
C591 C596 1.399 . S
C592 C591 1.399 . S
C592 C593 1.376 . S
C593 H580 0.930 . S
C593 C592 1.376 . S
C593 C594 1.388 . S
C594 H581 0.930 . S
C594 C593 1.388 . S
C594 C595 1.390 . S
C595 C594 1.390 . S
C595 C596 1.394 . S
C595 C601 1.465 . S
C596 C591 1.399 . S
C596 C595 1.394 . S
C596 C597 1.516 . S
C597 C596 1.516 . S
C597 C598 1.502 . S
C597 C599 1.561 . S
C597 C600 1.526 . S
C598 H582 0.959 . S
C598 H583 0.959 . S
C598 H584 0.961 . S
C598 C597 1.502 . S
C599 H585 0.960 . S
C599 H586 0.961 . S
C599 H587 0.959 . S
C599 C597 1.561 . S
C600 C597 1.526 . S
C600 C601 1.396 . S
C600 C605 1.390 . S
C601 C595 1.465 . S
C601 C600 1.396 . S
C601 C602 1.399 . S
C602 H588 0.929 1_565 S
C602 C601 1.399 . S
C602 C603 1.385 . S
C603 H589 0.931 1_565 S
C603 C602 1.385 . S
C603 C604 1.389 . S
C604 C603 1.389 . S
C604 C605 1.387 . S
C605 H590 0.930 . S
C605 C600 1.390 . S
C605 C604 1.387 . S
C133 C78 0.677 . S
C145 C18 0.783 . S
C160 C98 0.769 . S
C172 C38 0.676 . S
C187 C118 0.765 . S
C199 C58 0.677 . S
C214 C9 1.669 . S
C226 C52 1.739 . S
C241 C32 1.709 . S
C253 C69 1.615 . S
C268 C49 1.570 . S
C280 C92 1.671 . S
C295 C72 1.686 . S
C307 C109 1.587 . S
C322 C89 1.564 . S
C334 C12 1.657 . S
C349 C112 1.657 . S
C361 C29 1.564 . S
C376 C19 0.935 . S
C388 C79 0.879 . S
C403 C39 0.952 . S
C415 C99 0.885 . S
C430 C59 0.952 . S
C442 C119 0.882 . S
C457 C4 0.928 . S
C469 C24 1.003 . S
C484 C22 1.134 . S
C496 C42 1.031 . S
C511 C44 1.110 . S
C523 C64 0.953 . S
C538 C62 1.040 . S
C550 C82 1.119 . S
C565 C84 0.967 . S
C577 C104 1.106 . S
C592 C102 1.180 . S
C604 C2 1.020 . S
