# Generated by pormake.
# Topology smc, (6)-cn, num edge types: 1
# Building blocks:
#     Node 0, Type 0, BuildingBlock: JUFBIX_clean_sbu_0, # of connection points: 6
#     Node 1, Type 0, BuildingBlock: JUFBIX_clean_sbu_0, # of connection points: 6
#     Node 2, Type 0, BuildingBlock: JUFBIX_clean_sbu_0, # of connection points: 6
#     Node 3, Type 0, BuildingBlock: JUFBIX_clean_sbu_0, # of connection points: 6
#     Node 4, Type 0, BuildingBlock: JUFBIX_clean_sbu_0, # of connection points: 6
#     Node 5, Type 0, BuildingBlock: JUFBIX_clean_sbu_0, # of connection points: 6
#     Node 6, Type 0, BuildingBlock: JUFBIX_clean_sbu_0, # of connection points: 6
#     Node 7, Type 0, BuildingBlock: JUFBIX_clean_sbu_0, # of connection points: 6
#     Node 8, Type 0, BuildingBlock: JUFBIX_clean_sbu_0, # of connection points: 6
#     Edge 9, Type (0, 0), BuildingBlock: KIFKEQ_clean_linker_1, # of connection points: 2
#     Edge 10, Type (0, 0), BuildingBlock: KIFKEQ_clean_linker_1, # of connection points: 2
#     Edge 11, Type (0, 0), BuildingBlock: KIFKEQ_clean_linker_1, # of connection points: 2
#     Edge 12, Type (0, 0), BuildingBlock: KIFKEQ_clean_linker_1, # of connection points: 2
#     Edge 13, Type (0, 0), BuildingBlock: KIFKEQ_clean_linker_1, # of connection points: 2
#     Edge 14, Type (0, 0), BuildingBlock: KIFKEQ_clean_linker_1, # of connection points: 2
#     Edge 15, Type (0, 0), BuildingBlock: KIFKEQ_clean_linker_1, # of connection points: 2
#     Edge 16, Type (0, 0), BuildingBlock: KIFKEQ_clean_linker_1, # of connection points: 2
#     Edge 17, Type (0, 0), BuildingBlock: KIFKEQ_clean_linker_1, # of connection points: 2
#     Edge 18, Type (0, 0), BuildingBlock: KIFKEQ_clean_linker_1, # of connection points: 2
#     Edge 19, Type (0, 0), BuildingBlock: KIFKEQ_clean_linker_1, # of connection points: 2
#     Edge 20, Type (0, 0), BuildingBlock: KIFKEQ_clean_linker_1, # of connection points: 2
#     Edge 21, Type (0, 0), BuildingBlock: KIFKEQ_clean_linker_1, # of connection points: 2
#     Edge 22, Type (0, 0), BuildingBlock: KIFKEQ_clean_linker_1, # of connection points: 2
#     Edge 23, Type (0, 0), BuildingBlock: KIFKEQ_clean_linker_1, # of connection points: 2
#     Edge 24, Type (0, 0), BuildingBlock: KIFKEQ_clean_linker_1, # of connection points: 2
#     Edge 25, Type (0, 0), BuildingBlock: KIFKEQ_clean_linker_1, # of connection points: 2
#     Edge 26, Type (0, 0), BuildingBlock: KIFKEQ_clean_linker_1, # of connection points: 2
#     Edge 27, Type (0, 0), BuildingBlock: KIFKEQ_clean_linker_1, # of connection points: 2
#     Edge 28, Type (0, 0), BuildingBlock: KIFKEQ_clean_linker_1, # of connection points: 2
#     Edge 29, Type (0, 0), BuildingBlock: KIFKEQ_clean_linker_1, # of connection points: 2
#     Edge 30, Type (0, 0), BuildingBlock: KIFKEQ_clean_linker_1, # of connection points: 2
#     Edge 31, Type (0, 0), BuildingBlock: KIFKEQ_clean_linker_1, # of connection points: 2
#     Edge 32, Type (0, 0), BuildingBlock: KIFKEQ_clean_linker_1, # of connection points: 2
#     Edge 33, Type (0, 0), BuildingBlock: KIFKEQ_clean_linker_1, # of connection points: 2
#     Edge 34, Type (0, 0), BuildingBlock: KIFKEQ_clean_linker_1, # of connection points: 2
#     Edge 35, Type (0, 0), BuildingBlock: KIFKEQ_clean_linker_1, # of connection points: 2
# Relax obj value: 0.467
# Max RMSD: 0.315
# Mean RMSD: 0.305
data_MOF--net-smc--node1-JUFBIX_clean_sbu_0--edge1-KIFKEQ_clean_linker_1
_symmetry_space_group_name_H-M    P1
_symmetry_Int_Tables_number       1
_symmetry_cell_setting            triclinic
loop_
_symmetry_equiv_pos_as_xyz
'x, y, z'
_cell_length_a     29.535892
_cell_length_b     34.185787
_cell_length_c     41.028049
_cell_angle_alpha  89.90983
_cell_angle_beta   89.565249
_cell_angle_gamma 120.02415
loop_
_atom_site_label
_atom_site_type_symbol
_atom_site_fract_x
_atom_site_fract_y
_atom_site_fract_z
_atom_type_partial_charge
Co0 Co 0.08561 0.49817 1.02298 0.0
C1 C 0.03224 0.431 0.97657 0.0
Co2 Co 0.03379 0.43186 0.04455 0.0
C3 C 0.14231 0.59559 1.0121 0.0
C4 C 0.16284 0.55888 0.97857 0.0
N5 N 0.13202 0.55349 1.0046 0.0
N6 N 0.17869 0.6269 0.99181 0.0
C7 C 0.1916 0.60383 0.97074 0.0
H8 H 0.12382 0.60311 1.03209 0.0
H9 H 0.16399 0.53168 0.96587 0.0
C10 C 0.08687 0.49342 0.09183 0.0
N11 N 0.98492 0.37545 0.06127 0.0
C12 C 0.93448 0.35261 0.05177 0.0
C13 C 0.9867 0.35265 0.08759 0.0
N14 N 0.90414 0.31709 0.07137 0.0
C15 C 0.93706 0.3168 0.0939 0.0
C16 C 0.13683 0.45033 1.03469 0.0
O17 O 0.11037 0.52008 0.0677 0.0
O18 O 0.04879 0.45447 0.08637 0.0
O19 O 0.09364 0.41983 0.04763 0.0
O20 O 0.13707 0.48277 1.0199 0.0
O21 O 1.01771 0.40715 1.00228 0.0
H22 H 1.02105 0.36289 0.1023 0.0
H23 H 0.91962 0.36381 1.03199 0.0
O24 O 0.06115 0.47372 0.97936 0.0
O25 O 0.03468 0.51598 1.0261 0.0
O26 O 0.97822 0.44778 0.04249 0.0
C27 C 0.98848 0.48769 1.03498 0.0
H28 H 0.21927 0.61837 0.95072 0.0
H29 H 0.92596 0.29331 0.11412 0.0
Co30 Co 0.60657 0.53924 0.07354 0.0
C31 C 0.63424 0.61052 0.11732 0.0
Co32 Co 0.63394 0.60426 0.04965 0.0
C33 C 0.54093 0.44553 0.08224 0.0
C34 C 0.59102 0.47385 0.12334 0.0
N35 N 0.58085 0.4842 0.09353 0.0
N36 N 0.52516 0.41148 0.10382 0.0
C37 C 0.55644 0.42886 0.12982 0.0
H38 H 0.52205 0.44292 0.05918 0.0
H39 H 0.62041 0.49772 0.13966 0.0
C40 C 0.61073 0.53712 1.00511 0.0
N41 N 0.65798 0.65971 1.02951 0.0
C42 C 0.64057 0.68883 1.03504 0.0
C43 C 0.69151 0.67753 1.00415 0.0
N44 N 0.66112 0.72397 1.01383 0.0
C45 C 0.69352 0.71697 0.99445 0.0
C46 C 0.71162 0.58025 0.06189 0.0
O47 O 0.60293 0.51251 1.03033 0.0
O48 O 0.62128 0.57747 1.00879 0.0
O49 O 0.70504 0.61081 0.04822 0.0
O50 O 0.67365 0.54867 0.07729 0.0
O51 O 0.64799 0.63304 0.09093 0.0
H52 H 0.71147 0.66188 0.9926 0.0
H53 H 0.61235 0.68353 0.05396 0.0
O54 O 0.61238 0.56758 0.11578 0.0
O55 O 0.53748 0.5272 0.06976 0.0
O56 O 0.56141 0.59407 0.05024 0.0
C57 C 0.52473 0.55501 0.05921 0.0
H58 H 0.5543 0.41046 0.15182 0.0
H59 H 0.71547 0.73762 0.97377 0.0
Co60 Co 0.4743 0.02063 1.01044 0.0
C61 C 0.45506 0.07198 0.96432 0.0
Co62 Co 0.42154 0.0443 1.02792 0.0
C63 C 0.5208 0.96441 1.00153 0.0
C64 C 0.56654 0.02977 0.97959 0.0
N65 N 0.52148 1.00365 0.99602 0.0
N66 N 0.56396 0.96521 0.9895 0.0
C67 C 0.59279 1.0063 0.97563 0.0
H68 H 0.49014 0.93643 1.01517 0.0
H69 H 0.58004 0.06411 0.97171 0.0
C70 C 0.439 0.99445 0.07445 0.0
N71 N 0.37323 0.05922 0.04291 0.0
C72 C 0.37524 0.09934 0.04188 0.0
C73 C 0.32951 0.03194 0.06036 0.0
N74 N 0.33491 0.09827 0.05825 0.0
C75 C 0.30635 0.05621 0.07034 0.0
C76 C 0.37279 0.9593 0.99816 0.0
O77 O 0.46617 0.9897 0.05216 0.0
O78 O 0.4177 0.0178 0.06865 0.0
O79 O 0.3647 0.98786 1.013 0.0
O80 O 0.41926 0.96789 0.99329 0.0
O81 O 0.4253 0.07168 0.98698 0.0
H82 H 0.31695 0.99731 0.06697 0.0
H83 H 0.4077 0.12966 1.03149 0.0
O84 O 0.48106 0.05186 0.96918 0.0
O85 O 0.52975 0.07312 1.02784 0.0
O86 O 0.48 0.10073 0.0433 0.0
C87 C 0.52509 0.10437 0.04107 0.0
H88 H 0.63035 0.01865 0.96368 0.0
H89 H 0.2732 0.04485 0.08676 0.0
Co90 Co 0.77202 0.834 0.38661 0.0
C91 C 0.71337 0.77406 0.33585 0.0
Co92 Co 0.70545 0.76848 0.40303 0.0
C93 C 0.82835 0.93205 0.37991 0.0
C94 C 0.86189 0.90218 0.3496 0.0
N95 N 0.82428 0.89175 0.37225 0.0
N96 N 0.86621 0.96717 0.36256 0.0
C97 C 0.88763 0.94815 0.34368 0.0
H98 H 0.80248 0.93518 0.39709 0.0
H99 H 0.86907 0.87775 0.33738 0.0
C100 C 0.76378 0.82352 0.45399 0.0
N101 N 0.65407 0.71346 0.41816 0.0
C102 C 0.60505 0.68856 0.40709 0.0
C103 C 0.65793 0.68885 0.44259 0.0
N104 N 0.578 0.64926 0.4236 0.0
C105 C 0.61113 0.64928 0.44599 0.0
C106 C 0.79885 0.76928 0.39299 0.0
O107 O 0.79229 0.85118 0.43171 0.0
O108 O 0.72384 0.78678 0.44609 0.0
O109 O 0.75145 0.74578 0.40173 0.0
O110 O 0.81779 0.81057 0.38489 0.0
O111 O 0.68732 0.74954 0.3599 0.0
H112 H 0.69264 0.69901 0.4569 0.0
H113 H 0.58999 0.69883 0.38686 0.0
O114 O 0.75117 0.81408 0.34123 0.0
O115 O 0.72527 0.85617 0.38892 0.0
O116 O 0.65891 0.79108 0.40415 0.0
C117 C 0.67768 0.83259 0.39735 0.0
H118 H 0.91924 0.9658 0.32629 0.0
H119 H 0.60212 0.62288 0.46375 0.0
Co120 Co 0.22974 0.90842 0.3506 0.0
C121 C 0.30499 0.92057 0.30319 0.0
Co122 Co 0.30812 0.93484 0.36972 0.0
C123 C 0.12311 0.84246 0.34388 0.0
C124 C 0.15105 0.88734 0.30289 0.0
N125 N 0.16382 0.88162 0.33332 0.0
N126 N 0.08643 0.82216 0.3208 0.0
C127 C 0.10333 0.85083 0.29514 0.0
H128 H 0.12192 0.82815 0.36761 0.0
H129 H 0.17666 0.91431 0.28643 0.0
C130 C 0.23817 0.92787 0.41738 0.0
N131 N 0.37467 0.96087 0.38622 0.0
C132 C 0.40387 0.94099 0.38869 0.0
C133 C 0.4041 1.00225 0.39948 0.0
N134 N 0.44981 0.96794 0.403 0.0
C135 C 0.45092 1.00684 0.40962 0.0
C136 C 0.28019 1.00031 0.34909 0.0
O137 O 0.20529 0.91534 0.39404 0.0
O138 O 0.28342 0.93408 0.41171 0.0
O139 O 0.3159 0.99578 0.36308 0.0
O140 O 0.23973 0.96523 0.33944 0.0
O141 O 0.3355 0.93689 0.32722 0.0
H142 H 0.39213 0.02724 0.40218 0.0
H143 H 0.39208 0.90734 0.38011 0.0
O144 O 0.25622 0.90417 0.30817 0.0
O145 O 0.21741 0.84954 0.36155 0.0
O146 O 0.29693 0.8724 0.37669 0.0
C147 C 0.25081 0.8396 0.37156 0.0
H148 H 0.08396 0.84504 0.27191 0.0
H149 H 0.48254 0.03572 0.42153 0.0
Co150 Co 0.12842 0.33148 0.35946 0.0
C151 C 0.12591 0.38851 0.3109 0.0
Co152 Co 0.10115 0.37813 0.37751 0.0
C153 C 0.17046 0.26754 0.35792 0.0
C154 C 0.13111 0.26883 0.31469 0.0
N155 N 0.14597 0.28828 0.34418 0.0
N156 N 0.17063 0.23574 0.33806 0.0
C157 C 0.14599 0.23696 0.31091 0.0
H158 H 0.18618 0.27449 0.38231 0.0
H159 H 0.10953 0.27658 0.29715 0.0
C160 C 0.09908 0.32194 0.42653 0.0
N161 N 0.08821 0.42542 0.39072 0.0
C162 C 0.11864 0.46996 0.38231 0.0
C163 C 0.05224 0.42499 0.4113 0.0
N164 N 0.10348 0.49739 0.39677 0.0
C165 C 0.06133 0.46868 0.41496 0.0
C166 C 1.02 0.29554 0.35817 0.0
O167 O 0.11424 0.30531 0.40371 0.0
O168 O 0.09501 0.35662 0.42042 0.0
O169 O 1.02747 0.33237 0.37136 0.0
O170 O 0.05889 0.29175 0.34953 0.0
O171 O 0.10652 0.3989 0.33468 0.0
H172 H 1.02206 0.39505 0.42348 0.0
H173 H 0.15179 0.48207 0.36583 0.0
O174 O 0.14026 0.35927 0.31554 0.0
O175 O 0.1983 0.37131 0.36981 0.0
O176 O 0.17301 0.41933 0.38395 0.0
C177 C 0.20926 0.41002 0.38006 0.0
H178 H 0.13882 0.21593 0.28968 0.0
H179 H 0.03907 0.47842 0.43064 0.0
Co180 Co 0.40116 0.16628 0.67367 0.0
C181 C 0.34208 0.09837 0.62825 0.0
Co182 Co 0.35165 0.09951 0.69598 0.0
C183 C 0.45005 0.26292 0.66961 0.0
C184 C 0.4674 0.23565 0.62754 0.0
N185 N 0.44157 0.22373 0.6563 0.0
N186 N 0.48021 0.299 0.65036 0.0
C187 C 0.49122 0.28184 0.62383 0.0
H188 H 0.43464 0.2648 0.6932 0.0
H189 H 0.46857 0.21223 0.61032 0.0
C190 C 0.40825 0.1619 0.7423 0.0
N191 N 0.309 0.04236 0.71429 0.0
C192 C 0.25642 0.01651 0.71168 0.0
C193 C 0.32207 0.0212 0.73684 0.0
N194 N 0.23575 0.98038 0.73214 0.0
C195 C 0.27743 0.98331 0.74781 0.0
C196 C 0.45575 0.12137 0.67922 0.0
O197 O 0.42916 0.18848 0.71785 0.0
O198 O 0.37118 0.12231 0.73753 0.0
O199 O 0.41409 0.09105 0.69378 0.0
O200 O 0.45554 0.15505 0.66666 0.0
O201 O 0.33067 0.07491 0.65417 0.0
H202 H 0.3612 0.03378 0.74597 0.0
H203 H 0.23375 0.02506 0.69566 0.0
O204 O 0.37244 0.14119 0.6303 0.0
O205 O 0.34763 0.17946 0.68035 0.0
O206 O 0.29324 0.1116 0.69834 0.0
C207 C 0.30242 0.1511 0.69059 0.0
H208 H 0.51431 0.30109 0.60298 0.0
H209 H 0.27604 0.96098 0.76697 0.0
Co210 Co 0.92107 0.20047 0.7114 0.0
C211 C 0.94286 0.26482 0.75965 0.0
Co212 Co 0.95142 0.26833 0.69166 0.0
C213 C 0.84849 0.10608 0.71562 0.0
C214 C 0.90863 0.12679 0.75143 0.0
N215 N 0.89217 0.14236 0.7266 0.0
N216 N 0.83715 0.06875 0.73269 0.0
C217 C 0.87482 0.08113 0.75506 0.0
H218 H 0.82556 0.10689 0.69544 0.0
H219 H 0.94284 0.14733 0.76597 0.0
C220 C 0.93472 0.20881 0.6427 0.0
N221 N 0.98104 0.32673 0.67645 0.0
C222 C 0.97407 0.35982 0.68874 0.0
C223 C 1.01559 0.34625 0.65164 0.0
N224 N 1.00286 0.39918 0.67271 0.0
C225 C 1.02869 0.39087 0.64905 0.0
C226 C 1.0269 0.24278 0.70674 0.0
O227 O 0.92245 0.18036 0.66611 0.0
O228 O 0.9454 0.24856 0.64913 0.0
O229 O 1.02176 0.27434 0.69369 0.0
O230 O 0.98673 0.2081 0.7174 0.0
O231 O 0.95842 0.28989 0.73458 0.0
H232 H 0.0303 0.32913 0.63646 0.0
H233 H 0.94756 0.35496 0.70872 0.0
O234 O 0.92247 0.22223 0.75588 0.0
O235 O 0.8533 0.19115 0.70587 0.0
O236 O 0.87989 0.26002 0.68932 0.0
C237 C 0.84213 0.22062 0.69674 0.0
H238 H 0.87741 0.05876 0.77271 0.0
H239 H 0.05511 0.4153 0.63133 0.0
Co240 Co 0.78248 0.6592 0.72159 0.0
C241 C 0.77817 0.72112 0.67768 0.0
Co242 Co 0.74669 0.69686 0.74128 0.0
C243 C 0.84818 0.61932 0.71483 0.0
C244 C 0.80834 0.61737 0.67088 0.0
N245 N 0.81298 0.62937 0.70254 0.0
N246 N 0.86632 0.60252 0.69177 0.0
C247 C 0.84137 0.60107 0.66415 0.0
H248 H 0.86144 0.62549 0.73981 0.0
H249 H 0.7833 0.62114 0.65358 0.0
C250 C 0.74924 0.636 0.78586 0.0
N251 N 0.71568 0.72691 0.7595 0.0
C252 C 0.68546 0.74016 0.7441 0.0
C253 C 0.7225 0.74446 0.78958 0.0
N254 N 0.67481 0.76716 0.76275 0.0
C255 C 0.69754 0.76917 0.79166 0.0
C256 C 0.67633 0.61557 0.71236 0.0
O257 O 0.76867 0.62456 0.76231 0.0
O258 O 0.73956 0.66774 0.78128 0.0
O259 O 0.67838 0.64796 0.7288 0.0
O260 O 0.71799 0.61512 0.70599 0.0
O261 O 0.75373 0.72652 0.70109 0.0
H262 H 0.74703 0.74209 0.80801 0.0
H263 H 0.67457 0.73245 0.71885 0.0
O264 O 0.7952 0.69383 0.68151 0.0
O265 O 0.8479 0.70336 0.73678 0.0
O266 O 0.816 0.74566 0.75328 0.0
C267 C 0.85533 0.74022 0.7488 0.0
H268 H 0.84644 0.58872 0.6409 0.0
H269 H 0.70076 0.79065 0.81189 0.0
H270 H 0.47568 0.60012 1.03461 0.0
H271 H 0.44269 0.47283 0.07717 0.0
H272 H 0.38153 0.57095 1.02931 0.0
H273 H 0.34944 0.44422 0.07242 0.0
H274 H 0.18079 0.39358 1.0311 0.0
H275 H 0.27467 0.41815 0.03637 0.0
H276 H 0.30678 0.55208 0.06189 0.0
H277 H 0.21549 0.52828 0.05599 0.0
C278 C 0.44858 0.56617 0.04306 0.0
C279 C 0.46738 0.53929 0.05655 0.0
C280 C 0.39433 0.54925 0.0401 0.0
C281 C 0.35717 0.50493 0.05054 0.0
C282 C 0.37624 0.47811 0.06373 0.0
C283 C 0.43019 0.49496 0.06673 0.0
C284 C 0.2079 0.42786 0.03848 0.0
C285 C 0.19018 0.4587 0.04331 0.0
C286 C 0.26189 0.44224 0.0413 0.0
C287 C 0.29911 0.48769 0.04888 0.0
C288 C 0.28034 0.5174 0.05504 0.0
C289 C 0.22734 0.5033 0.05213 0.0
H290 H 0.49836 0.87477 0.99111 0.0
H291 H 0.6613 0.97735 0.99528 0.0
H292 H 0.52209 0.81623 0.99658 0.0
H293 H 0.68523 0.91922 1.00166 0.0
H294 H 0.71516 0.80373 0.98077 0.0
H295 H 0.69078 0.86126 0.97375 0.0
H296 H 0.55393 0.78369 1.03444 0.0
H297 H 0.5763 0.72491 0.03977 0.0
C298 C 0.53922 0.88476 0.99348 0.0
C299 C 0.57795 0.93062 0.99266 0.0
C300 C 0.55291 0.85127 0.99673 0.0
C301 C 0.60566 0.86288 0.99961 0.0
C302 C 0.64432 0.90887 0.99888 0.0
C303 C 0.63064 0.94228 0.99529 0.0
C304 C 0.67958 0.79854 0.99238 0.0
C305 C 0.64786 0.75925 1.01082 0.0
C306 C 0.66588 0.83197 0.98867 0.0
C307 C 0.62031 0.82727 1.00352 0.0
C308 C 0.58888 0.78826 1.02221 0.0
C309 C 0.6023 0.75466 1.02569 0.0
H310 H 0.36431 0.90824 0.94582 0.0
H311 H 0.28652 0.90727 0.03551 0.0
H312 H 0.30787 0.82675 0.94145 0.0
H313 H 0.23147 0.82514 1.03215 0.0
H314 H 0.12946 0.67308 1.00884 0.0
H315 H 0.16618 0.75526 1.00595 0.0
H316 H 0.31369 0.77069 0.97304 0.0
H317 H 0.27697 0.68958 0.97549 0.0
C318 C 0.33413 0.89057 0.96415 0.0
C319 C 0.32981 0.91369 0.99107 0.0
C320 C 0.30221 0.84391 0.9619 0.0
C321 C 0.26634 0.81933 0.987 0.0
C322 C 0.25874 0.84305 1.01244 0.0
C323 C 0.29013 0.89007 1.01435 0.0
C324 C 0.16974 0.69431 1.00114 0.0
C325 C 0.20026 0.67505 0.99203 0.0
C326 C 0.19068 0.74122 0.99936 0.0
C327 C 0.24249 0.76946 0.98854 0.0
C328 C 0.27309 0.74993 0.98033 0.0
C329 C 0.25219 0.70341 0.98192 0.0
H330 H 0.35384 0.13066 0.11868 0.0
H331 H 0.3175 0.15436 1.02189 0.0
H332 H 0.38444 0.20897 0.13279 0.0
H333 H 0.34425 0.23233 0.03624 0.0
H334 H 0.49941 0.36565 0.04782 0.0
H335 H 0.43188 0.28827 0.03956 0.0
H336 H 0.38621 0.27772 0.14117 0.0
H337 H 0.45623 0.35578 0.14942 0.0
C338 C 0.34977 0.15235 0.1011 0.0
C339 C 0.33428 0.13745 0.06922 0.0
C340 C 0.36709 0.19719 0.1091 0.0
C341 C 0.36837 0.22738 0.08527 0.0
C342 C 0.34547 0.21029 0.05478 0.0
C343 C 0.32962 0.16576 0.04657 0.0
C344 C 0.4744 0.34698 0.06824 0.0
C345 C 0.48321 0.36626 0.09928 0.0
C346 C 0.43507 0.30267 0.0635 0.0
C347 C 0.40306 0.27664 0.08967 0.0
C348 C 0.41047 0.29668 0.12057 0.0
C349 C 0.45059 0.34111 0.12539 0.0
H350 H 0.57321 0.19363 1.02316 0.0
H351 H 0.5865 0.09952 0.08676 0.0
H352 H 0.66486 0.25021 1.03386 0.0
H353 H 0.67742 0.15511 0.09729 0.0
H354 H 0.83725 0.2718 0.12166 0.0
H355 H 0.74206 0.2268 0.11974 0.0
H356 H 0.74715 0.25497 1.01673 0.0
H357 H 0.84204 0.29965 1.01859 0.0
C358 C 0.59516 0.18579 0.04042 0.0
C359 C 0.57283 0.1426 0.05451 0.0
C360 C 0.64783 0.21778 0.04615 0.0
C361 C 0.67883 0.20707 0.06617 0.0
C362 C 0.6549 0.16484 0.08202 0.0
C363 C 0.60269 0.13296 0.07608 0.0
C364 C 0.8182 0.26818 0.09855 0.0
C365 C 0.84769 0.2894 0.07027 0.0
C366 C 0.76347 0.24257 0.09749 0.0
C367 C 0.73671 0.23749 0.06813 0.0
C368 C 0.76619 0.25895 0.03993 0.0
C369 C 0.82083 0.28444 0.04098 0.0
H370 H 0.8876 0.4402 0.0591 0.0
H371 H 0.99919 0.5693 1.01719 0.0
H372 H 0.82449 0.46602 0.0649 0.0
H373 H 0.93562 0.59471 1.02201 0.0
H374 H 0.82011 0.63922 0.06409 0.0
H375 H 0.88825 0.61804 0.0575 0.0
H376 H 0.76902 0.48168 1.03433 0.0
H377 H 0.70247 0.50229 0.042 0.0
C378 C 0.89854 0.47392 0.05079 0.0
C379 C 0.94853 0.50237 0.03749 0.0
C380 C 0.86219 0.48886 0.05397 0.0
C381 C 0.87442 0.53263 0.04371 0.0
C382 C 0.92461 0.56109 1.03054 0.0
C383 C 0.96103 0.54623 1.0275 0.0
C384 C 0.80892 0.60499 0.05726 0.0
C385 C 0.75583 0.57242 0.05388 0.0
C386 C 0.84784 0.59265 0.0535 0.0
C387 C 0.83437 0.54763 0.04606 0.0
C388 C 0.78132 0.51614 0.04116 0.0
C389 C 0.74297 0.52821 0.04522 0.0
H390 H 0.89379 0.79463 0.41789 0.0
H391 H 0.77202 0.69463 0.35756 0.0
H392 H 0.95265 0.7684 0.39995 0.0
H393 H 0.83207 0.66968 0.33793 0.0
H394 H 0.99885 0.79203 0.28436 0.0
H395 H 0.91193 0.73883 0.30375 0.0
H396 H 0.97662 0.70244 0.38432 0.0
H397 H 0.06416 0.75389 0.36399 0.0
C398 C 0.87938 0.76601 0.40161 0.0
C399 C 0.82944 0.74709 0.38845 0.0
C400 C 0.91252 0.75034 0.39171 0.0
C401 C 0.8967 0.71699 0.36746 0.0
C402 C 0.84474 0.69492 0.35691 0.0
C403 C 0.81089 0.70961 0.36776 0.0
C404 C 0.99496 0.77109 0.30517 0.0
C405 C 0.03832 0.77987 0.32417 0.0
C406 C 0.94484 0.73982 0.31604 0.0
C407 C 0.93808 0.71863 0.34648 0.0
C408 C 0.98118 0.71954 0.36124 0.0
C409 C 0.03136 0.75019 0.35006 0.0
H410 H 0.25842 0.25049 0.37079 0.0
H411 H 0.12561 0.1492 0.31833 0.0
H412 H 0.29416 0.19897 0.37384 0.0
H413 H 0.16004 0.09818 0.32164 0.0
H414 H 0.24923 0.03055 0.29781 0.0
H415 H 0.22783 0.09055 0.29701 0.0
H416 H 0.28476 0.12694 0.39525 0.0
H417 H 0.30805 0.06709 0.39541 0.0
C418 C 0.23655 0.21712 0.36032 0.0
C419 C 0.18954 0.20437 0.34381 0.0
C420 C 0.25704 0.18755 0.36197 0.0
C421 C 0.2309 0.14456 0.3472 0.0
C422 C 0.1826 0.1314 0.33227 0.0
C423 C 0.16251 0.16072 0.33051 0.0
C424 C 0.25867 0.05218 0.31893 0.0
C425 C 0.28072 0.04412 0.34655 0.0
C426 C 0.24559 0.0863 0.31872 0.0
C427 C 0.253 0.11314 0.34642 0.0
C428 C 0.2783 0.1071 0.37345 0.0
C429 C 0.29206 0.07296 0.37349 0.0
H430 H 0.96279 0.24413 0.30754 0.0
H431 H 0.97152 0.24664 0.41224 0.0
H432 H 0.91535 0.16179 0.30872 0.0
H433 H 0.92624 0.16433 0.41371 0.0
H434 H 0.83708 1.01034 0.4073 0.0
H435 H 0.85713 0.08871 0.40618 0.0
H436 H 0.94526 0.11063 0.31692 0.0
H437 H 0.92344 0.03246 0.31716 0.0
C438 C 0.95195 0.22702 0.33096 0.0
C439 C 0.97004 0.25214 0.35979 0.0
C440 C 0.92608 0.17963 0.33168 0.0
C441 C 0.91831 0.15589 0.36125 0.0
C442 C 0.93126 0.18094 0.39039 0.0
C443 C 0.95657 0.22844 0.38963 0.0
C444 C 0.8602 0.03154 0.38716 0.0
C445 C 0.8785 0.0142 0.36235 0.0
C446 C 0.87207 0.07692 0.38666 0.0
C447 C 0.90256 0.10653 0.36131 0.0
C448 C 0.92066 0.08909 0.33654 0.0
C449 C 0.90877 0.04389 0.33699 0.0
H450 H 0.30747 0.79769 0.39185 0.0
H451 H 0.15398 0.7674 0.3612 0.0
H452 H 0.27469 0.71599 0.39858 0.0
H453 H 0.12199 0.68757 0.36753 0.0
H454 H 0.05897 0.54883 0.41121 0.0
H455 H 0.09755 0.63021 0.4071 0.0
H456 H 0.24151 0.642 0.37117 0.0
H457 H 0.20308 0.55992 0.37622 0.0
C458 C 0.2669 0.77395 0.38659 0.0
C459 C 0.23359 0.78998 0.37625 0.0
C460 C 0.24799 0.72684 0.39029 0.0
C461 C 0.19509 0.69431 0.38404 0.0
C462 C 0.16245 0.71076 0.37344 0.0
C463 C 0.18119 0.75722 0.36962 0.0
C464 C 0.09898 0.56838 0.40266 0.0
C465 C 0.12729 0.5467 0.394 0.0
C466 C 0.12125 0.61561 0.39996 0.0
C467 C 0.17297 0.64362 0.38846 0.0
C468 C 0.20179 0.62217 0.38028 0.0
C469 C 0.17933 0.57464 0.38284 0.0
H470 H 0.29727 0.40403 0.37085 0.0
H471 H 0.24355 0.49339 0.40568 0.0
H472 H 0.3873 0.46208 0.38178 0.0
H473 H 0.33312 0.55066 0.41734 0.0
H474 H 0.50086 0.65964 0.39753 0.0
H475 H 0.41182 0.60063 0.38667 0.0
H476 H 0.44496 0.50115 0.42761 0.0
H477 H 0.53502 0.56002 0.43703 0.0
C478 C 0.30467 0.43591 0.38102 0.0
C479 C 0.2635 0.44429 0.3873 0.0
C480 C 0.3561 0.46897 0.38744 0.0
C481 C 0.36709 0.51084 0.40031 0.0
C482 C 0.32581 0.51894 0.40694 0.0
C483 C 0.27452 0.48603 0.40042 0.0
C484 C 0.4894 0.62516 0.40388 0.0
C485 C 0.52502 0.61447 0.41805 0.0
C486 C 0.43821 0.59144 0.39803 0.0
C487 C 0.4215 0.54637 0.40641 0.0
C488 C 0.45699 0.5356 0.42065 0.0
C489 C 0.50832 0.56937 0.42641 0.0
H490 H 0.54831 1.00892 0.38033 0.0
H491 H 0.43592 0.89831 0.43963 0.0
H492 H 0.60664 0.97746 0.38154 0.0
H493 H 0.49476 0.86762 0.44272 0.0
H494 H 0.57137 0.79222 0.39942 0.0
H495 H 0.51952 0.82918 0.4053 0.0
H496 H 0.66143 0.95896 0.41143 0.0
H497 H 0.7129 0.92221 0.40394 0.0
C498 C 0.53732 0.97875 0.39462 0.0
C499 C 0.48827 0.95572 0.40986 0.0
C500 C 0.5704 0.96063 0.39536 0.0
C501 C 0.55489 0.91957 0.41182 0.0
C502 C 0.50721 0.89857 0.4291 0.0
C503 C 0.4739 0.91627 0.42777 0.0
C504 C 0.59129 0.82862 0.40197 0.0
C505 C 0.64598 0.85439 0.40095 0.0
C506 C 0.56173 0.84981 0.40569 0.0
C507 C 0.58641 0.89707 0.40904 0.0
C508 C 0.64121 0.92264 0.40844 0.0
C509 C 0.67068 0.90154 0.4042 0.0
H510 H 0.79388 0.26418 0.66772 0.0
H511 H 0.76001 0.14413 0.72205 0.0
H512 H 0.69951 0.23592 0.66337 0.0
H513 H 0.66709 0.11599 0.71731 0.0
H514 H 0.50128 0.09929 0.72932 0.0
H515 H 0.59469 0.12454 0.73458 0.0
H516 H 0.62235 0.17828 0.63655 0.0
H517 H 0.52978 0.15348 0.63162 0.0
C518 C 0.76659 0.23203 0.67886 0.0
C519 C 0.78514 0.20666 0.69513 0.0
C520 C 0.71228 0.21548 0.67616 0.0
C521 C 0.67501 0.17326 0.68985 0.0
C522 C 0.69394 0.14865 0.70669 0.0
C523 C 0.74776 0.16493 0.7092 0.0
C524 C 0.52701 0.11494 0.70853 0.0
C525 C 0.50761 0.1236 0.67987 0.0
C526 C 0.58091 0.13009 0.71161 0.0
C527 C 0.61687 0.15446 0.68618 0.0
C528 C 0.59664 0.16083 0.65701 0.0
C529 C 0.54312 0.14574 0.65396 0.0
H530 H 1.0007 0.45462 0.6271 0.0
H531 H 1.0017 0.43502 0.73082 0.0
H532 H 0.98197 0.51529 0.63616 0.0
H533 H 0.98578 0.49763 0.74045 0.0
H534 H 0.8631 0.54507 0.73747 0.0
H535 H 0.91191 0.50501 0.73624 0.0
H536 H 1.00195 0.58656 0.65359 0.0
H537 H 0.95005 0.6241 0.65394 0.0
C538 C 0.99867 0.46455 0.65188 0.0
C539 C 1.00175 0.44001 0.67826 0.0
C540 C 0.98825 0.49954 0.65722 0.0
C541 C 0.9817 0.51119 0.68914 0.0
C542 C 0.9892 0.48885 0.71557 0.0
C543 C 0.99854 0.45322 0.71014 0.0
C544 C 0.89426 0.55491 0.71966 0.0
C545 C 0.90262 0.58682 0.69551 0.0
C546 C 0.92254 0.53225 0.71895 0.0
C547 C 0.9604 0.54192 0.69438 0.0
C548 C 0.97205 0.57724 0.67221 0.0
C549 C 0.9428 0.59899 0.67249 0.0
H550 H 0.64391 0.59062 0.65087 0.0
H551 H 0.60254 0.55011 0.75117 0.0
H552 H 0.58436 0.51344 0.63338 0.0
H553 H 0.54412 0.47226 0.73402 0.0
H554 H 0.43574 0.33332 0.69128 0.0
H555 H 0.46935 0.4127 0.70469 0.0
H556 H 0.59927 0.45064 0.63838 0.0
H557 H 0.56612 0.37197 0.6252 0.0
C558 C 0.62013 0.56545 0.66904 0.0
C559 C 0.62708 0.57619 0.70226 0.0
C560 C 0.58674 0.52109 0.65913 0.0
C561 C 0.5605 0.48639 0.68233 0.0
C562 C 0.56356 0.4981 0.71547 0.0
C563 C 0.59667 0.54276 0.72536 0.0
C564 C 0.47148 0.3586 0.67958 0.0
C565 C 0.49827 0.34601 0.65719 0.0
C566 C 0.49059 0.40415 0.68718 0.0
C567 C 0.53676 0.43818 0.67244 0.0
C568 C 0.56287 0.42555 0.64964 0.0
C569 C 0.54391 0.3802 0.64211 0.0
H570 H 0.66915 0.78976 0.69927 0.0
H571 H 0.64772 0.8193 0.79884 0.0
H572 H 0.68588 0.86347 0.68246 0.0
H573 H 0.66646 0.89397 0.78182 0.0
H574 H 0.73673 0.03648 0.74979 0.0
H575 H 0.66698 0.95661 0.74823 0.0
H576 H 0.775 0.92305 0.70172 0.0
H577 H 0.8436 1.00208 0.70398 0.0
C578 C 0.6661 0.81098 0.7176 0.0
C579 C 0.66117 0.79977 0.75102 0.0
C580 C 0.67552 0.85344 0.70773 0.0
C581 C 0.68013 0.88509 0.73108 0.0
C582 C 0.66441 0.87056 0.76333 0.0
C583 C 0.65453 0.8279 0.7732 0.0
C584 C 0.74445 1.01171 0.73859 0.0
C585 C 0.79483 0.02432 0.72726 0.0
C586 C 0.70485 0.96642 0.73753 0.0
C587 C 0.71541 0.93372 0.72463 0.0
C588 C 0.7652 0.94749 0.71118 0.0
C589 C 0.80469 0.99242 0.71276 0.0
H590 H 0.94203 0.73203 0.75001 0.0
H591 H 0.8935 0.83173 0.75736 0.0
H592 H 0.03263 0.79118 0.74834 0.0
H593 H 0.98558 0.89185 0.75682 0.0
H594 H 0.14992 0.98383 0.71089 0.0
H595 H 0.05848 0.92786 0.71943 0.0
H596 H 0.10363 0.84724 0.77693 0.0
H597 H 0.19479 0.90155 0.76694 0.0
C598 C 0.95073 0.76672 0.75199 0.0
C599 C 0.91022 0.77701 0.75374 0.0
C600 C 1.00309 0.80086 0.75121 0.0
C601 C 1.01694 0.84662 0.75235 0.0
C602 C 0.9765 0.85705 0.75543 0.0
C603 C 0.92368 0.82259 0.75617 0.0
C604 C 0.14079 0.95412 0.72511 0.0
C605 C 0.1808 0.94759 0.73784 0.0
C606 C 0.08787 0.92213 0.73046 0.0
C607 C 0.07321 0.8827 0.74882 0.0
C608 C 0.11309 0.87671 0.76219 0.0
C609 C 0.16588 0.90839 0.75665 0.0
H610 H 0.20124 0.1044 0.71536 0.0
H611 H 0.3139 0.23189 0.67154 0.0
H612 H 0.13884 0.13169 0.71996 0.0
H613 H 0.25247 0.25902 0.67656 0.0
H614 H 0.10394 0.27152 0.65948 0.0
H615 H 0.17115 0.24949 0.65524 0.0
H616 H 0.12594 0.18638 0.7503 0.0
H617 H 0.05904 0.20788 0.75419 0.0
C618 C 0.21272 0.13809 0.70673 0.0
C619 C 0.26269 0.16577 0.69315 0.0
C620 C 0.17714 0.15396 0.70953 0.0
C621 C 0.19063 0.19779 0.69871 0.0
C622 C 0.24037 0.22505 0.68483 0.0
C623 C 0.27579 0.20937 0.68215 0.0
C624 C 0.10975 0.25437 0.67986 0.0
C625 C 0.07652 0.24179 0.70725 0.0
C626 C 0.14783 0.24122 0.67736 0.0
C627 C 0.15331 0.21521 0.70219 0.0
C628 C 0.12204 0.20522 0.73034 0.0
C629 C 0.08423 0.21825 0.7328 0.0
H630 H 0.10961 0.4588 0.2998 0.0
H631 H 0.15331 0.37156 0.24939 0.0
H632 H 0.11036 0.49472 0.24883 0.0
H633 H 0.15377 0.40815 0.19748 0.0
H634 H 0.17998 0.50324 0.1111 0.0
H635 H 0.19665 0.48143 0.16463 0.0
H636 H 0.05349 0.47073 0.20127 0.0
H637 H 0.03695 0.49184 0.14777 0.0
C638 C 0.11955 0.44715 0.2778 0.0
C639 C 0.13073 0.41156 0.27891 0.0
C640 C 0.11991 0.46797 0.24841 0.0
C641 C 0.13161 0.45424 0.21886 0.0
C642 C 0.14486 0.41983 0.21983 0.0
C643 C 0.14435 0.39865 0.24954 0.0
C644 C 0.15356 0.49851 0.13101 0.0
C645 C 0.10793 0.50067 0.12532 0.0
C646 C 0.16242 0.48487 0.16155 0.0
C647 C 0.12616 0.47372 0.1873 0.0
C648 C 0.08259 0.47931 0.18221 0.0
C649 C 0.07339 0.49215 0.15161 0.0
H650 H 0.6738 0.68542 0.32303 0.0
H651 H 0.72923 0.81345 0.27425 0.0
H652 H 0.65603 0.64743 0.2713 0.0
H653 H 0.7079 0.7748 0.22154 0.0
H654 H 0.70657 0.69856 0.12962 0.0
H655 H 0.72633 0.73883 0.18102 0.0
H656 H 0.60317 0.6188 0.22804 0.0
H657 H 0.58632 0.57797 0.17689 0.0
C658 C 0.68133 0.70551 0.30108 0.0
C659 C 0.70255 0.75261 0.30296 0.0
C660 C 0.67059 0.68343 0.27108 0.0
C661 C 0.6794 0.70733 0.24155 0.0
C662 C 0.70089 0.75478 0.24341 0.0
C663 C 0.71289 0.77717 0.27371 0.0
C664 C 0.68384 0.68071 0.15103 0.0
C665 C 0.64503 0.63481 0.14908 0.0
C666 C 0.69489 0.70408 0.18068 0.0
C667 C 0.66677 0.68262 0.20938 0.0
C668 C 0.62707 0.63674 0.20708 0.0
C669 C 0.61689 0.6131 0.17754 0.0
H670 H 0.3622 0.91107 0.09324 0.0
H671 H 0.49212 0.03386 0.12938 0.0
H672 H 0.33111 0.88657 0.14919 0.0
H673 H 0.46109 1.01034 0.18522 0.0
H674 H 0.40677 0.95039 0.2854 0.0
H675 H 0.44368 0.96066 0.23061 0.0
H676 H 0.28959 0.90852 0.19011 0.0
H677 H 0.25254 0.89731 0.245 0.0
C678 C 0.38525 0.93191 0.11331 0.0
C679 C 0.43044 0.97367 0.10712 0.0
C680 C 0.36695 0.91838 0.14537 0.0
C681 C 0.39318 0.94658 0.17196 0.0
C682 C 0.44009 0.98731 0.16563 0.0
C683 C 0.45824 1.00078 0.1336 0.0
C684 C 0.3806 0.94064 0.26483 0.0
C685 C 0.3266 0.9232 0.26973 0.0
C686 C 0.40189 0.94676 0.23331 0.0
C687 C 0.36986 0.93571 0.20568 0.0
C688 C 0.31557 0.91691 0.21065 0.0
C689 C 0.29425 0.91071 0.24222 0.0
H690 H 0.4975 0.06675 0.90531 0.0
H691 H 0.42016 0.13082 0.95191 0.0
H692 H 0.49555 0.10087 0.85319 0.0
H693 H 0.41984 0.16603 0.90051 0.0
H694 H 0.35523 0.15868 0.79683 0.0
H695 H 0.37365 0.14366 0.85154 0.0
H696 H 0.52418 0.16614 0.81857 0.0
H697 H 0.50456 0.18039 0.76324 0.0
C698 C 0.48077 0.0886 0.90457 0.0
C699 C 0.45832 0.09538 0.93282 0.0
C700 C 0.47999 0.10856 0.87467 0.0
C701 C 0.4571 0.13614 0.87227 0.0
C702 C 0.43679 0.14434 0.90096 0.0
C703 C 0.43713 0.12415 0.93063 0.0
C704 C 0.39334 0.16266 0.80163 0.0
C705 C 0.42896 0.17197 0.77587 0.0
C706 C 0.40389 0.15359 0.83309 0.0
C707 C 0.45035 0.15312 0.83979 0.0
C708 C 0.48768 0.16553 0.81441 0.0
C709 C 0.4771 0.17487 0.7828 0.0
H710 H 0.07117 0.46502 0.91508 0.0
H711 H 0.95753 0.34364 0.96512 0.0
H712 H 0.04843 0.42387 0.86354 0.0
H713 H 0.93374 0.30301 0.91388 0.0
H714 H 0.93994 0.22981 0.82118 0.0
H715 H 0.96118 0.27027 0.87315 0.0
H716 H 0.98413 0.39034 0.82324 0.0
H717 H 0.96467 0.35067 0.77183 0.0
C718 C 0.04088 0.42978 0.91505 0.0
C719 C 1.01637 0.40782 0.94436 0.0
C720 C 1.02762 0.40602 0.88543 0.0
C721 C 0.98918 0.35969 0.88425 0.0
C722 C 0.96418 0.33818 0.91361 0.0
C723 C 0.97763 0.36177 0.94312 0.0
C724 C 0.94913 0.26471 0.82144 0.0
C725 C 0.95071 0.28683 0.79219 0.0
C726 C 0.9613 0.28806 0.85128 0.0
C727 C 0.97502 0.33405 0.85266 0.0
C728 C 0.97515 0.35551 0.82338 0.0
C729 C 0.96341 0.33241 0.79374 0.0
H730 H 0.73364 0.66878 0.84201 0.0
H731 H 0.72836 0.54935 0.80281 0.0
H732 H 0.69343 0.62865 0.89225 0.0
H733 H 0.68821 0.50886 0.85453 0.0
H734 H 0.6817 0.51435 0.98255 0.0
H735 H 0.71693 0.52908 0.92658 0.0
H736 H 0.59208 0.55132 0.8965 0.0
H737 H 0.55738 0.53702 0.9521 0.0
C738 C 0.72459 0.63401 0.84421 0.0
C739 C 0.73387 0.61225 0.81805 0.0
C740 C 0.70132 0.61098 0.8731 0.0
C741 C 0.68684 0.56546 0.8771 0.0
C742 C 0.69877 0.54395 0.85194 0.0
C743 C 0.72199 0.56717 0.82249 0.0
C744 C 0.65996 0.5195 0.96354 0.0
C745 C 0.61631 0.52391 0.97163 0.0
C746 C 0.68044 0.52836 0.93153 0.0
C747 C 0.65741 0.54164 0.90726 0.0
C748 C 0.61054 0.54106 0.91469 0.0
C749 C 0.59033 0.53241 0.94649 0.0
H750 H 0.85661 0.84135 0.48071 0.0
H751 H 0.7009 0.81317 0.50506 0.0
H752 H 0.8685 0.82447 0.5372 0.0
H753 H 0.71225 0.79635 0.56102 0.0
H754 H 0.82362 0.71492 0.62054 0.0
H755 H 0.82979 0.75244 0.56851 0.0
H756 H 0.7568 0.82199 0.61256 0.0
H757 H 0.74986 0.78415 0.66418 0.0
C758 C 0.82592 0.8336 0.49851 0.0
C759 C 0.77815 0.82926 0.48873 0.0
C760 C 0.83227 0.82309 0.53068 0.0
C761 C 0.79113 0.80857 0.55365 0.0
C762 C 0.74499 0.80778 0.54424 0.0
C763 C 0.73849 0.81767 0.51216 0.0
C764 C 0.80932 0.73852 0.61917 0.0
C765 C 0.78567 0.74602 0.64649 0.0
C766 C 0.81329 0.76038 0.5894 0.0
C767 C 0.79363 0.7902 0.58625 0.0
C768 C 0.77176 0.79886 0.61394 0.0
C769 C 0.76782 0.7771 0.6436 0.0
H770 H 0.22324 0.99916 0.42918 0.0
H771 H 0.24533 0.89789 0.47709 0.0
H772 H 0.24458 0.04257 0.48003 0.0
H773 H 0.26616 0.94045 0.52767 0.0
H774 H 0.26964 1.00958 0.62088 0.0
H775 H 0.23372 0.967 0.57146 0.0
H776 H 0.32483 0.08788 0.51401 0.0
H777 H 0.36106 0.13146 0.56432 0.0
C778 C 0.23006 0.98505 0.45101 0.0
C779 C 0.23071 0.94419 0.44939 0.0
C780 C 0.24356 1.01046 0.47997 0.0
C781 C 0.25751 0.99536 0.50813 0.0
C782 C 0.2551 0.95314 0.50681 0.0
C783 C 0.24245 0.92826 0.47784 0.0
C784 C 0.28228 0.02755 0.59785 0.0
C785 C 0.31903 0.07423 0.59686 0.0
C786 C 0.26151 1.00281 0.56931 0.0
C787 C 0.27651 0.02359 0.5385 0.0
C788 C 0.312 0.07064 0.53729 0.0
C789 C 0.33308 0.09566 0.56613 0.0
H790 H 1.00772 0.18812 0.62018 0.0
H791 H 0.88967 0.21832 0.58874 0.0
H792 H 0.04928 0.20935 0.56587 0.0
H793 H 0.9308 0.23946 0.53493 0.0
H794 H 0.06912 0.35274 0.47876 0.0
H795 H 1.02368 0.31236 0.52793 0.0
H796 H 0.03639 0.19739 0.498 0.0
H797 H 0.08175 0.23792 0.4475 0.0
C798 C 0.98882 0.19659 0.60113 0.0
C799 C 0.94471 0.20065 0.60859 0.0
C800 C 1.01307 0.20938 0.57013 0.0
C801 C 0.99381 0.22679 0.54624 0.0
C802 C 0.94691 0.2266 0.55286 0.0
C803 C 0.92279 0.21379 0.58358 0.0
C804 C 0.06294 0.31903 0.48248 0.0
C805 C 0.0792 0.29873 0.45881 0.0
C806 C 0.03641 0.29571 0.51074 0.0
C807 C 1.02552 0.25134 0.51668 0.0
C808 C 0.04398 0.23148 0.49403 0.0
C809 C 0.07021 0.25481 0.46521 0.0
loop_
_geom_bond_atom_site_label_1
_geom_bond_atom_site_label_2
_geom_bond_distance
_geom_bond_site_symmetry_2
_ccdc_geom_bond_type
Co0 N5 2.057 1_554 S
Co0 O17 2.021 . S
Co0 O20 2.062 . S
Co0 O24 2.117 1_554 S
Co0 O25 2.020 1_455 S
C1 O21 1.259 . S
C1 O24 1.258 1_655 S
Co2 N11 2.057 . S
Co2 O18 2.117 . S
Co2 O19 2.020 1_655 S
Co2 O21 2.021 1_554 S
Co2 O26 2.062 . S
C3 N5 1.316 1_554 S
C3 N6 1.347 1_554 S
C3 H8 0.931 . S
C4 N5 1.375 . S
C4 C7 1.350 . S
C4 H9 0.930 . S
N5 Co0 2.057 1_556 S
N5 C3 1.316 1_556 S
N5 C4 1.375 . S
N6 C3 1.347 1_556 S
N6 C7 1.373 . S
C7 C4 1.350 . S
C7 N6 1.373 . S
C7 H28 0.931 . S
H8 C3 0.931 . S
H9 C4 0.930 . S
C10 O17 1.259 . S
C10 O18 1.258 1_455 S
N11 Co2 2.057 . S
N11 C12 1.314 1_554 S
N11 C13 1.375 . S
C12 N11 1.314 1_556 S
C12 N14 1.344 1_556 S
C12 H23 0.934 . S
C13 N11 1.375 . S
C13 C15 1.350 . S
C13 H22 0.930 . S
N14 C12 1.344 1_554 S
N14 C15 1.373 . S
C15 C13 1.350 . S
C15 N14 1.373 . S
C15 H29 0.931 . S
C16 O19 1.256 . S
C16 O20 1.255 . S
O17 Co0 2.021 . S
O17 C10 1.259 . S
O18 Co2 2.117 . S
O18 C10 1.258 1_655 S
O19 Co2 2.020 1_455 S
O19 C16 1.256 . S
O20 Co0 2.062 . S
O20 C16 1.255 . S
O21 C1 1.259 . S
O21 Co2 2.021 1_556 S
H22 C13 0.930 . S
H23 C12 0.934 . S
O24 Co0 2.117 1_556 S
O24 C1 1.258 1_455 S
O25 Co0 2.020 1_655 S
O25 C27 1.256 . S
O26 Co2 2.062 . S
O26 C27 1.255 . S
C27 O25 1.256 . S
C27 O26 1.255 . S
H28 C7 0.931 . S
H29 C15 0.931 . S
Co30 N35 2.057 . S
Co30 O47 2.021 1_554 S
Co30 O50 2.062 . S
Co30 O54 2.117 . S
Co30 O55 2.020 . S
C31 O51 1.259 . S
C31 O54 1.258 . S
Co32 N41 2.057 1_554 S
Co32 O48 2.117 1_554 S
Co32 O49 2.020 . S
Co32 O51 2.021 . S
Co32 O56 2.062 . S
C33 N35 1.316 . S
C33 N36 1.347 . S
C33 H38 0.931 1_554 S
C34 N35 1.375 . S
C34 C37 1.350 . S
C34 H39 0.930 . S
N35 Co30 2.057 . S
N35 C33 1.316 . S
N35 C34 1.375 . S
N36 C33 1.347 . S
N36 C37 1.373 . S
C37 C34 1.350 . S
C37 N36 1.373 . S
C37 H58 0.931 . S
H38 C33 0.931 1_556 S
H39 C34 0.930 . S
C40 O47 1.259 . S
C40 O48 1.258 . S
N41 Co32 2.057 1_556 S
N41 C42 1.316 1_556 S
N41 C43 1.375 . S
C42 N41 1.316 1_554 S
C42 N44 1.347 1_554 S
C42 H53 0.931 . S
C43 N41 1.375 . S
C43 C45 1.350 . S
C43 H52 0.930 . S
N44 C42 1.347 1_556 S
N44 C45 1.373 . S
C45 C43 1.350 . S
C45 N44 1.373 . S
C45 H59 0.931 . S
C46 O49 1.256 . S
C46 O50 1.255 . S
O47 Co30 2.021 1_556 S
O47 C40 1.259 . S
O48 Co32 2.117 1_556 S
O48 C40 1.258 . S
O49 Co32 2.020 . S
O49 C46 1.256 . S
O50 Co30 2.062 . S
O50 C46 1.255 . S
O51 C31 1.259 . S
O51 Co32 2.021 . S
H52 C43 0.930 . S
H53 C42 0.931 . S
O54 Co30 2.117 . S
O54 C31 1.258 . S
O55 Co30 2.020 . S
O55 C57 1.256 . S
O56 Co32 2.062 . S
O56 C57 1.255 . S
C57 O55 1.256 . S
C57 O56 1.255 . S
H58 C37 0.931 . S
H59 C45 0.931 . S
Co60 N65 2.057 1_554 S
Co60 O77 2.021 . S
Co60 O80 2.062 . S
Co60 O84 2.117 1_554 S
Co60 O85 2.020 1_565 S
C61 O81 1.259 . S
C61 O84 1.258 1_545 S
Co62 N71 2.057 . S
Co62 O78 2.117 . S
Co62 O79 2.020 1_545 S
Co62 O81 2.021 1_554 S
Co62 O86 2.062 . S
C63 N65 1.316 1_554 S
C63 N66 1.347 1_554 S
C63 H68 0.931 . S
C64 N65 1.375 . S
C64 C67 1.350 . S
C64 H69 0.930 . S
N65 Co60 2.057 1_556 S
N65 C63 1.316 1_556 S
N65 C64 1.375 . S
N66 C63 1.347 1_556 S
N66 C67 1.373 . S
C67 C64 1.350 . S
C67 N66 1.373 . S
C67 H88 0.931 . S
H68 C63 0.931 . S
H69 C64 0.930 . S
C70 O77 1.259 . S
C70 O78 1.258 1_565 S
N71 Co62 2.057 . S
N71 C72 1.316 1_554 S
N71 C73 1.375 . S
C72 N71 1.316 1_556 S
C72 N74 1.346 1_556 S
C72 H83 0.932 . S
C73 N71 1.375 . S
C73 C75 1.350 . S
C73 H82 0.930 . S
N74 C72 1.346 1_554 S
N74 C75 1.373 . S
C75 C73 1.350 . S
C75 N74 1.373 . S
C75 H89 0.931 . S
C76 O79 1.256 . S
C76 O80 1.255 . S
O77 Co60 2.021 . S
O77 C70 1.259 . S
O78 Co62 2.117 . S
O78 C70 1.258 1_545 S
O79 Co62 2.020 1_565 S
O79 C76 1.256 . S
O80 Co60 2.062 . S
O80 C76 1.255 . S
O81 C61 1.259 . S
O81 Co62 2.021 1_556 S
H82 C73 0.930 . S
H83 C72 0.932 . S
O84 Co60 2.117 1_556 S
O84 C61 1.258 1_565 S
O85 Co60 2.020 1_545 S
O85 C87 1.256 . S
O86 Co62 2.062 . S
O86 C87 1.255 . S
C87 O85 1.256 . S
C87 O86 1.255 . S
H88 C67 0.931 . S
H89 C75 0.931 . S
Co90 N95 2.057 . S
Co90 O107 2.021 . S
Co90 O110 2.062 . S
Co90 O114 2.117 . S
Co90 O115 2.020 . S
C91 O111 1.259 . S
C91 O114 1.258 . S
Co92 N101 2.057 . S
Co92 O108 2.117 . S
Co92 O109 2.020 . S
Co92 O111 2.021 . S
Co92 O116 2.062 . S
C93 N95 1.316 . S
C93 N96 1.347 . S
C93 H98 0.931 . S
C94 N95 1.375 . S
C94 C97 1.350 . S
C94 H99 0.930 . S
N95 Co90 2.057 . S
N95 C93 1.316 . S
N95 C94 1.375 . S
N96 C93 1.347 . S
N96 C97 1.373 . S
C97 C94 1.350 . S
C97 N96 1.373 . S
C97 H118 0.931 . S
H98 C93 0.931 . S
H99 C94 0.930 . S
C100 O107 1.259 . S
C100 O108 1.258 . S
N101 Co92 2.057 . S
N101 C102 1.316 . S
N101 C103 1.375 . S
C102 N101 1.316 . S
C102 N104 1.347 . S
C102 H113 0.931 . S
C103 N101 1.375 . S
C103 C105 1.350 . S
C103 H112 0.930 . S
N104 C102 1.347 . S
N104 C105 1.373 . S
C105 C103 1.350 . S
C105 N104 1.373 . S
C105 H119 0.931 . S
C106 O109 1.256 . S
C106 O110 1.255 . S
O107 Co90 2.021 . S
O107 C100 1.259 . S
O108 Co92 2.117 . S
O108 C100 1.258 . S
O109 Co92 2.020 . S
O109 C106 1.256 . S
O110 Co90 2.062 . S
O110 C106 1.255 . S
O111 C91 1.259 . S
O111 Co92 2.021 . S
H112 C103 0.930 . S
H113 C102 0.931 . S
O114 Co90 2.117 . S
O114 C91 1.258 . S
O115 Co90 2.020 . S
O115 C117 1.256 . S
O116 Co92 2.062 . S
O116 C117 1.255 . S
C117 O115 1.256 . S
C117 O116 1.255 . S
H118 C97 0.931 . S
H119 C105 0.931 . S
Co120 N125 2.057 . S
Co120 O137 2.021 . S
Co120 O140 2.062 . S
Co120 O144 2.117 . S
Co120 O145 2.020 . S
C121 O141 1.259 . S
C121 O144 1.258 . S
Co122 N131 2.057 . S
Co122 O138 2.117 . S
Co122 O139 2.020 . S
Co122 O141 2.021 . S
Co122 O146 2.062 . S
C123 N125 1.316 . S
C123 N126 1.347 . S
C123 H128 0.931 . S
C124 N125 1.375 . S
C124 C127 1.350 . S
C124 H129 0.930 . S
N125 Co120 2.057 . S
N125 C123 1.316 . S
N125 C124 1.375 . S
N126 C123 1.347 . S
N126 C127 1.373 . S
C127 C124 1.350 . S
C127 N126 1.373 . S
C127 H148 0.931 . S
H128 C123 0.931 . S
H129 C124 0.930 . S
C130 O137 1.259 . S
C130 O138 1.258 . S
N131 Co122 2.057 . S
N131 C132 1.316 . S
N131 C133 1.375 . S
C132 N131 1.316 . S
C132 N134 1.347 . S
C132 H143 0.931 . S
C133 N131 1.375 . S
C133 C135 1.350 . S
C133 H142 0.930 . S
N134 C132 1.347 . S
N134 C135 1.373 . S
C135 C133 1.350 . S
C135 N134 1.373 . S
C135 H149 0.931 . S
C136 O139 1.256 . S
C136 O140 1.255 . S
O137 Co120 2.021 . S
O137 C130 1.259 . S
O138 Co122 2.117 . S
O138 C130 1.258 . S
O139 Co122 2.020 . S
O139 C136 1.256 . S
O140 Co120 2.062 . S
O140 C136 1.255 . S
O141 C121 1.259 . S
O141 Co122 2.021 . S
H142 C133 0.930 . S
H143 C132 0.931 . S
O144 Co120 2.117 . S
O144 C121 1.258 . S
O145 Co120 2.020 . S
O145 C147 1.256 . S
O146 Co122 2.062 . S
O146 C147 1.255 . S
C147 O145 1.256 . S
C147 O146 1.255 . S
H148 C127 0.931 . S
H149 C135 0.931 . S
Co150 N155 2.057 . S
Co150 O167 2.021 . S
Co150 O170 2.062 . S
Co150 O174 2.117 . S
Co150 O175 2.020 . S
C151 O171 1.259 . S
C151 O174 1.258 . S
Co152 N161 2.057 . S
Co152 O168 2.117 . S
Co152 O169 2.020 . S
Co152 O171 2.021 . S
Co152 O176 2.062 . S
C153 N155 1.316 . S
C153 N156 1.347 . S
C153 H158 0.931 . S
C154 N155 1.375 . S
C154 C157 1.350 . S
C154 H159 0.930 . S
N155 Co150 2.057 . S
N155 C153 1.316 . S
N155 C154 1.375 . S
N156 C153 1.347 . S
N156 C157 1.373 . S
C157 C154 1.350 . S
C157 N156 1.373 . S
C157 H178 0.931 . S
H158 C153 0.931 . S
H159 C154 0.930 . S
C160 O167 1.259 . S
C160 O168 1.258 . S
N161 Co152 2.057 . S
N161 C162 1.316 . S
N161 C163 1.375 . S
C162 N161 1.316 . S
C162 N164 1.347 . S
C162 H173 0.931 . S
C163 N161 1.375 . S
C163 C165 1.350 . S
C163 H172 0.930 . S
N164 C162 1.347 . S
N164 C165 1.373 . S
C165 C163 1.350 . S
C165 N164 1.373 . S
C165 H179 0.931 . S
C166 O169 1.256 . S
C166 O170 1.255 . S
O167 Co150 2.021 . S
O167 C160 1.259 . S
O168 Co152 2.117 . S
O168 C160 1.258 . S
O169 Co152 2.020 . S
O169 C166 1.256 . S
O170 Co150 2.062 . S
O170 C166 1.255 . S
O171 C151 1.259 . S
O171 Co152 2.021 . S
H172 C163 0.930 . S
H173 C162 0.931 . S
O174 Co150 2.117 . S
O174 C151 1.258 . S
O175 Co150 2.020 . S
O175 C177 1.256 . S
O176 Co152 2.062 . S
O176 C177 1.255 . S
C177 O175 1.256 . S
C177 O176 1.255 . S
H178 C157 0.931 . S
H179 C165 0.931 . S
Co180 N185 2.057 . S
Co180 O197 2.021 . S
Co180 O200 2.062 . S
Co180 O204 2.117 . S
Co180 O205 2.020 . S
C181 O201 1.259 . S
C181 O204 1.258 . S
Co182 N191 2.057 . S
Co182 O198 2.117 . S
Co182 O199 2.020 . S
Co182 O201 2.021 . S
Co182 O206 2.062 . S
C183 N185 1.316 . S
C183 N186 1.347 . S
C183 H188 0.931 . S
C184 N185 1.375 . S
C184 C187 1.350 . S
C184 H189 0.930 . S
N185 Co180 2.057 . S
N185 C183 1.316 . S
N185 C184 1.375 . S
N186 C183 1.347 . S
N186 C187 1.373 . S
C187 C184 1.350 . S
C187 N186 1.373 . S
C187 H208 0.931 . S
H188 C183 0.931 . S
H189 C184 0.930 . S
C190 O197 1.259 . S
C190 O198 1.258 . S
N191 Co182 2.057 . S
N191 C192 1.316 1_545 S
N191 C193 1.375 1_545 S
C192 N191 1.316 1_565 S
C192 N194 1.347 . S
C192 H203 0.931 . S
C193 N191 1.375 1_565 S
C193 C195 1.350 . S
C193 H202 0.930 1_565 S
N194 C192 1.347 . S
N194 C195 1.373 . S
C195 C193 1.350 . S
C195 N194 1.373 . S
C195 H209 0.931 . S
C196 O199 1.256 . S
C196 O200 1.255 . S
O197 Co180 2.021 . S
O197 C190 1.259 . S
O198 Co182 2.117 . S
O198 C190 1.258 . S
O199 Co182 2.020 . S
O199 C196 1.256 . S
O200 Co180 2.062 . S
O200 C196 1.255 . S
O201 C181 1.259 . S
O201 Co182 2.021 . S
H202 C193 0.930 1_545 S
H203 C192 0.931 . S
O204 Co180 2.117 . S
O204 C181 1.258 . S
O205 Co180 2.020 . S
O205 C207 1.256 . S
O206 Co182 2.062 . S
O206 C207 1.255 . S
C207 O205 1.256 . S
C207 O206 1.255 . S
H208 C187 0.931 . S
H209 C195 0.931 . S
Co210 N215 2.057 . S
Co210 O227 2.021 . S
Co210 O230 2.062 . S
Co210 O234 2.117 . S
Co210 O235 2.020 . S
C211 O231 1.259 . S
C211 O234 1.258 . S
Co212 N221 2.057 . S
Co212 O228 2.117 . S
Co212 O229 2.020 . S
Co212 O231 2.021 . S
Co212 O236 2.062 . S
C213 N215 1.316 . S
C213 N216 1.347 . S
C213 H218 0.931 . S
C214 N215 1.375 . S
C214 C217 1.350 . S
C214 H219 0.930 . S
N215 Co210 2.057 . S
N215 C213 1.316 . S
N215 C214 1.375 . S
N216 C213 1.347 . S
N216 C217 1.373 . S
C217 C214 1.350 . S
C217 N216 1.373 . S
C217 H238 0.931 . S
H218 C213 0.931 . S
H219 C214 0.930 . S
C220 O227 1.259 . S
C220 O228 1.258 . S
N221 Co212 2.057 . S
N221 C222 1.316 . S
N221 C223 1.375 . S
C222 N221 1.316 . S
C222 N224 1.347 . S
C222 H233 0.931 . S
C223 N221 1.375 . S
C223 C225 1.350 . S
C223 H232 0.930 . S
N224 C222 1.347 . S
N224 C225 1.373 . S
C225 C223 1.350 . S
C225 N224 1.373 . S
C225 H239 0.931 . S
C226 O229 1.256 . S
C226 O230 1.255 . S
O227 Co210 2.021 . S
O227 C220 1.259 . S
O228 Co212 2.117 . S
O228 C220 1.258 . S
O229 Co212 2.020 . S
O229 C226 1.256 . S
O230 Co210 2.062 . S
O230 C226 1.255 . S
O231 C211 1.259 . S
O231 Co212 2.021 . S
H232 C223 0.930 . S
H233 C222 0.931 . S
O234 Co210 2.117 . S
O234 C211 1.258 . S
O235 Co210 2.020 . S
O235 C237 1.256 . S
O236 Co212 2.062 . S
O236 C237 1.255 . S
C237 O235 1.256 . S
C237 O236 1.255 . S
H238 C217 0.931 . S
H239 C225 0.931 . S
Co240 N245 2.057 . S
Co240 O257 2.021 . S
Co240 O260 2.062 . S
Co240 O264 2.117 . S
Co240 O265 2.020 . S
C241 O261 1.259 . S
C241 O264 1.258 . S
Co242 N251 2.057 . S
Co242 O258 2.117 . S
Co242 O259 2.020 . S
Co242 O261 2.021 . S
Co242 O266 2.062 . S
C243 N245 1.316 . S
C243 N246 1.347 . S
C243 H248 0.931 . S
C244 N245 1.375 . S
C244 C247 1.350 . S
C244 H249 0.930 . S
N245 Co240 2.057 . S
N245 C243 1.316 . S
N245 C244 1.375 . S
N246 C243 1.347 . S
N246 C247 1.373 . S
C247 C244 1.350 . S
C247 N246 1.373 . S
C247 H268 0.931 . S
H248 C243 0.931 . S
H249 C244 0.930 . S
C250 O257 1.259 . S
C250 O258 1.258 . S
N251 Co242 2.057 . S
N251 C252 1.316 . S
N251 C253 1.375 . S
C252 N251 1.316 . S
C252 N254 1.347 . S
C252 H263 0.931 . S
C253 N251 1.375 . S
C253 C255 1.350 . S
C253 H262 0.930 . S
N254 C252 1.347 . S
N254 C255 1.373 . S
C255 C253 1.350 . S
C255 N254 1.373 . S
C255 H269 0.931 . S
C256 O259 1.256 . S
C256 O260 1.255 . S
O257 Co240 2.021 . S
O257 C250 1.259 . S
O258 Co242 2.117 . S
O258 C250 1.258 . S
O259 Co242 2.020 . S
O259 C256 1.256 . S
O260 Co240 2.062 . S
O260 C256 1.255 . S
O261 C241 1.259 . S
O261 Co242 2.021 . S
H262 C253 0.930 . S
H263 C252 0.931 . S
O264 Co240 2.117 . S
O264 C241 1.258 . S
O265 Co240 2.020 . S
O265 C267 1.256 . S
O266 Co242 2.062 . S
O266 C267 1.255 . S
C267 O265 1.256 . S
C267 O266 1.255 . S
H268 C247 0.931 . S
H269 C255 0.931 . S
H270 C278 0.950 . S
H271 C283 0.950 . S
H272 C280 0.950 . S
H273 C282 0.950 . S
H274 C284 0.950 . S
H275 C286 0.950 . S
H276 C288 0.950 . S
H277 C289 0.950 . S
C278 H270 0.950 . S
C278 C279 1.386 . S
C278 C280 1.391 . S
C279 C278 1.386 . S
C279 C283 1.393 1_554 S
C280 H272 0.950 . S
C280 C278 1.391 . S
C280 C281 1.400 . S
C281 C280 1.400 . S
C281 C282 1.398 1_554 S
C281 C287 1.491 . S
C282 H273 0.950 . S
C282 C281 1.398 1_556 S
C282 C283 1.391 . S
C283 H271 0.950 . S
C283 C279 1.393 1_556 S
C283 C282 1.391 . S
C284 H274 0.950 . S
C284 C285 1.386 1_556 S
C284 C286 1.391 . S
C285 C284 1.386 1_554 S
C285 C289 1.393 . S
C286 H275 0.950 . S
C286 C284 1.391 . S
C286 C287 1.400 1_556 S
C287 C281 1.491 . S
C287 C286 1.400 1_554 S
C287 C288 1.398 . S
C288 H276 0.950 . S
C288 C287 1.398 . S
C288 C289 1.391 . S
C289 H277 0.950 . S
C289 C285 1.393 . S
C289 C288 1.391 . S
H290 C298 0.950 . S
H291 C303 0.950 . S
H292 C300 0.950 . S
H293 C302 0.950 . S
H294 C304 0.950 . S
H295 C306 0.950 . S
H296 C308 0.950 . S
H297 C309 0.950 . S
C298 H290 0.950 . S
C298 C299 1.386 . S
C298 C300 1.391 . S
C299 C298 1.386 . S
C299 C303 1.393 1_556 S
C300 H292 0.950 . S
C300 C298 1.391 . S
C300 C301 1.400 . S
C301 C300 1.400 . S
C301 C302 1.398 1_556 S
C301 C307 1.491 . S
C302 H293 0.950 . S
C302 C301 1.398 1_554 S
C302 C303 1.391 . S
C303 H291 0.950 . S
C303 C299 1.393 1_554 S
C303 C302 1.391 . S
C304 H294 0.950 . S
C304 C305 1.383 1_554 S
C304 C306 1.391 . S
C305 C304 1.383 1_556 S
C305 C309 1.396 . S
C306 H295 0.950 . S
C306 C304 1.391 . S
C306 C307 1.400 1_554 S
C307 C301 1.491 . S
C307 C306 1.400 1_556 S
C307 C308 1.398 . S
C308 H296 0.950 . S
C308 C307 1.398 . S
C308 C309 1.391 . S
C309 H297 0.950 . S
C309 C305 1.396 . S
C309 C308 1.391 . S
H310 C318 0.950 . S
H311 C323 0.950 . S
H312 C320 0.950 . S
H313 C322 0.950 . S
H314 C324 0.950 . S
H315 C326 0.950 . S
H316 C328 0.950 . S
H317 C329 0.950 . S
C318 H310 0.950 . S
C318 C319 1.386 1_556 S
C318 C320 1.391 . S
C319 C318 1.386 1_554 S
C319 C323 1.393 . S
C320 H312 0.950 . S
C320 C318 1.391 . S
C320 C321 1.405 . S
C321 C320 1.405 . S
C321 C322 1.392 1_556 S
C321 C327 1.492 . S
C322 H313 0.950 . S
C322 C321 1.392 1_554 S
C322 C323 1.391 . S
C323 H311 0.950 . S
C323 C319 1.393 . S
C323 C322 1.391 . S
C324 H314 0.950 . S
C324 C325 1.386 1_554 S
C324 C326 1.391 . S
C325 C324 1.386 1_556 S
C325 C329 1.393 . S
C326 H315 0.950 . S
C326 C324 1.391 . S
C326 C327 1.400 1_554 S
C327 C321 1.492 . S
C327 C326 1.400 1_556 S
C327 C328 1.398 . S
C328 H316 0.950 . S
C328 C327 1.398 . S
C328 C329 1.391 . S
C329 H317 0.950 . S
C329 C325 1.393 . S
C329 C328 1.391 . S
H330 C338 0.950 . S
H331 C343 0.950 . S
H332 C340 0.950 . S
H333 C342 0.950 . S
H334 C344 0.950 . S
H335 C346 0.950 . S
H336 C348 0.950 . S
H337 C349 0.950 . S
C338 H330 0.950 . S
C338 C339 1.386 . S
C338 C340 1.391 . S
C339 C338 1.386 . S
C339 C343 1.393 1_554 S
C340 H332 0.950 . S
C340 C338 1.391 . S
C340 C341 1.400 . S
C341 C340 1.400 . S
C341 C342 1.398 1_554 S
C341 C347 1.491 . S
C342 H333 0.950 . S
C342 C341 1.398 1_556 S
C342 C343 1.391 . S
C343 H331 0.950 . S
C343 C339 1.393 1_556 S
C343 C342 1.391 . S
C344 H334 0.950 . S
C344 C345 1.386 1_556 S
C344 C346 1.391 . S
C345 C344 1.386 1_554 S
C345 C349 1.393 . S
C346 H335 0.950 . S
C346 C344 1.391 . S
C346 C347 1.400 1_556 S
C347 C341 1.491 . S
C347 C346 1.400 1_554 S
C347 C348 1.398 . S
C348 H336 0.950 . S
C348 C347 1.398 . S
C348 C349 1.391 . S
C349 H337 0.950 . S
C349 C345 1.393 . S
C349 C348 1.391 . S
H350 C358 0.950 . S
H351 C363 0.950 . S
H352 C360 0.950 . S
H353 C362 0.950 . S
H354 C364 0.950 . S
H355 C366 0.950 . S
H356 C368 0.950 . S
H357 C369 0.950 . S
C358 H350 0.950 . S
C358 C359 1.386 . S
C358 C360 1.391 . S
C359 C358 1.386 . S
C359 C363 1.393 1_554 S
C360 H352 0.950 . S
C360 C358 1.391 . S
C360 C361 1.400 . S
C361 C360 1.400 . S
C361 C362 1.398 1_554 S
C361 C367 1.491 . S
C362 H353 0.950 . S
C362 C361 1.398 1_556 S
C362 C363 1.391 . S
C363 H351 0.950 . S
C363 C359 1.393 1_556 S
C363 C362 1.391 . S
C364 H354 0.950 . S
C364 C365 1.386 1_556 S
C364 C366 1.391 . S
C365 C364 1.386 1_554 S
C365 C369 1.393 . S
C366 H355 0.950 . S
C366 C364 1.391 . S
C366 C367 1.400 1_556 S
C367 C361 1.491 . S
C367 C366 1.400 1_554 S
C367 C368 1.398 . S
C368 H356 0.950 . S
C368 C367 1.398 . S
C368 C369 1.391 . S
C369 H357 0.950 . S
C369 C365 1.393 . S
C369 C368 1.391 . S
H370 C378 0.950 . S
H371 C383 0.950 . S
H372 C380 0.950 . S
H373 C382 0.950 . S
H374 C384 0.950 . S
H375 C386 0.950 . S
H376 C388 0.950 . S
H377 C389 0.950 . S
C378 H370 0.950 . S
C378 C379 1.386 1_556 S
C378 C380 1.391 . S
C379 C378 1.386 1_554 S
C379 C383 1.393 . S
C380 H372 0.950 . S
C380 C378 1.391 . S
C380 C381 1.400 1_556 S
C381 C380 1.400 1_554 S
C381 C382 1.398 . S
C381 C387 1.491 . S
C382 H373 0.950 . S
C382 C381 1.398 . S
C382 C383 1.391 . S
C383 H371 0.950 . S
C383 C379 1.393 . S
C383 C382 1.391 . S
C384 H374 0.950 . S
C384 C385 1.386 . S
C384 C386 1.391 . S
C385 C384 1.386 . S
C385 C389 1.393 1_554 S
C386 H375 0.950 . S
C386 C384 1.391 . S
C386 C387 1.400 . S
C387 C381 1.491 . S
C387 C386 1.400 . S
C387 C388 1.398 1_554 S
C388 H376 0.950 . S
C388 C387 1.398 1_556 S
C388 C389 1.391 . S
C389 H377 0.950 . S
C389 C385 1.393 1_556 S
C389 C388 1.391 . S
H390 C398 0.950 . S
H391 C403 0.950 . S
H392 C400 0.950 . S
H393 C402 0.950 . S
H394 C404 0.950 1_455 S
H395 C406 0.950 . S
H396 C408 0.950 . S
H397 C409 0.950 1_455 S
C398 H390 0.950 . S
C398 C399 1.386 . S
C398 C400 1.391 . S
C399 C398 1.386 . S
C399 C403 1.393 . S
C400 H392 0.950 . S
C400 C398 1.391 . S
C400 C401 1.400 . S
C401 C400 1.400 . S
C401 C402 1.398 . S
C401 C407 1.491 . S
C402 H393 0.950 . S
C402 C401 1.398 . S
C402 C403 1.391 . S
C403 H391 0.950 . S
C403 C399 1.393 . S
C403 C402 1.391 . S
C404 H394 0.950 1_655 S
C404 C405 1.386 1_655 S
C404 C406 1.391 . S
C405 C404 1.386 1_455 S
C405 C409 1.393 1_455 S
C406 H395 0.950 . S
C406 C404 1.391 . S
C406 C407 1.400 . S
C407 C401 1.491 . S
C407 C406 1.400 . S
C407 C408 1.398 . S
C408 H396 0.950 . S
C408 C407 1.398 . S
C408 C409 1.391 . S
C409 H397 0.950 1_655 S
C409 C405 1.393 1_655 S
C409 C408 1.391 . S
H410 C418 0.950 . S
H411 C423 0.950 . S
H412 C420 0.950 . S
H413 C422 0.950 . S
H414 C424 0.950 1_565 S
H415 C426 0.950 . S
H416 C428 0.950 . S
H417 C429 0.950 . S
C418 H410 0.950 . S
C418 C419 1.386 . S
C418 C420 1.391 . S
C419 C418 1.386 . S
C419 C423 1.393 . S
C420 H412 0.950 . S
C420 C418 1.391 . S
C420 C421 1.400 . S
C421 C420 1.400 . S
C421 C422 1.398 . S
C421 C427 1.491 . S
C422 H413 0.950 . S
C422 C421 1.398 . S
C422 C423 1.391 . S
C423 H411 0.950 . S
C423 C419 1.393 . S
C423 C422 1.391 . S
C424 H414 0.950 1_545 S
C424 C425 1.386 . S
C424 C426 1.391 . S
C425 C424 1.386 . S
C425 C429 1.393 . S
C426 H415 0.950 . S
C426 C424 1.391 . S
C426 C427 1.400 . S
C427 C421 1.491 . S
C427 C426 1.400 . S
C427 C428 1.398 . S
C428 H416 0.950 . S
C428 C427 1.398 . S
C428 C429 1.391 . S
C429 H417 0.950 . S
C429 C425 1.393 . S
C429 C428 1.391 . S
H430 C438 0.950 . S
H431 C443 0.950 . S
H432 C440 0.950 . S
H433 C442 0.950 . S
H434 C444 0.950 . S
H435 C446 0.950 . S
H436 C448 0.950 . S
H437 C449 0.950 . S
C438 H430 0.950 . S
C438 C439 1.386 1_455 S
C438 C440 1.391 1_455 S
C439 C438 1.386 1_655 S
C439 C443 1.393 . S
C440 H432 0.950 . S
C440 C438 1.391 1_655 S
C440 C441 1.400 . S
C441 C440 1.400 . S
C441 C442 1.398 . S
C441 C447 1.491 . S
C442 H433 0.950 . S
C442 C441 1.398 . S
C442 C443 1.391 . S
C443 H431 0.950 . S
C443 C439 1.393 . S
C443 C442 1.391 . S
C444 H434 0.950 . S
C444 C445 1.386 . S
C444 C446 1.391 . S
C445 C444 1.386 . S
C445 C449 1.393 . S
C446 H435 0.950 . S
C446 C444 1.391 . S
C446 C447 1.400 . S
C447 C441 1.491 . S
C447 C446 1.400 . S
C447 C448 1.398 . S
C448 H436 0.950 . S
C448 C447 1.398 . S
C448 C449 1.391 . S
C449 H437 0.950 . S
C449 C445 1.393 . S
C449 C448 1.391 . S
H450 C458 0.950 . S
H451 C463 0.950 . S
H452 C460 0.950 . S
H453 C462 0.950 . S
H454 C464 0.950 . S
H455 C466 0.950 . S
H456 C468 0.950 . S
H457 C469 0.950 . S
C458 H450 0.950 . S
C458 C459 1.386 . S
C458 C460 1.391 . S
C459 C458 1.386 . S
C459 C463 1.393 . S
C460 H452 0.950 . S
C460 C458 1.391 . S
C460 C461 1.400 . S
C461 C460 1.400 . S
C461 C462 1.398 . S
C461 C467 1.491 . S
C462 H453 0.950 . S
C462 C461 1.398 . S
C462 C463 1.391 . S
C463 H451 0.950 . S
C463 C459 1.393 . S
C463 C462 1.391 . S
C464 H454 0.950 . S
C464 C465 1.386 . S
C464 C466 1.391 . S
C465 C464 1.386 . S
C465 C469 1.393 . S
C466 H455 0.950 . S
C466 C464 1.391 . S
C466 C467 1.400 . S
C467 C461 1.491 . S
C467 C466 1.400 . S
C467 C468 1.398 . S
C468 H456 0.950 . S
C468 C467 1.398 . S
C468 C469 1.391 . S
C469 H457 0.950 . S
C469 C465 1.393 . S
C469 C468 1.391 . S
H470 C478 0.950 . S
H471 C483 0.950 . S
H472 C480 0.950 . S
H473 C482 0.950 . S
H474 C484 0.950 . S
H475 C486 0.950 . S
H476 C488 0.950 . S
H477 C489 0.950 . S
C478 H470 0.950 . S
C478 C479 1.386 . S
C478 C480 1.391 . S
C479 C478 1.386 . S
C479 C483 1.393 . S
C480 H472 0.950 . S
C480 C478 1.391 . S
C480 C481 1.400 . S
C481 C480 1.400 . S
C481 C482 1.398 . S
C481 C487 1.491 . S
C482 H473 0.950 . S
C482 C481 1.398 . S
C482 C483 1.391 . S
C483 H471 0.950 . S
C483 C479 1.393 . S
C483 C482 1.391 . S
C484 H474 0.950 . S
C484 C485 1.386 . S
C484 C486 1.391 . S
C485 C484 1.386 . S
C485 C489 1.393 . S
C486 H475 0.950 . S
C486 C484 1.391 . S
C486 C487 1.400 . S
C487 C481 1.491 . S
C487 C486 1.400 . S
C487 C488 1.398 . S
C488 H476 0.950 . S
C488 C487 1.398 . S
C488 C489 1.391 . S
C489 H477 0.950 . S
C489 C485 1.393 . S
C489 C488 1.391 . S
H490 C498 0.950 . S
H491 C503 0.950 . S
H492 C500 0.950 . S
H493 C502 0.950 . S
H494 C504 0.950 . S
H495 C506 0.950 . S
H496 C508 0.950 . S
H497 C509 0.950 . S
C498 H490 0.950 . S
C498 C499 1.386 . S
C498 C500 1.391 . S
C499 C498 1.386 . S
C499 C503 1.393 . S
C500 H492 0.950 . S
C500 C498 1.391 . S
C500 C501 1.400 . S
C501 C500 1.400 . S
C501 C502 1.398 . S
C501 C507 1.491 . S
C502 H493 0.950 . S
C502 C501 1.398 . S
C502 C503 1.391 . S
C503 H491 0.950 . S
C503 C499 1.393 . S
C503 C502 1.391 . S
C504 H494 0.950 . S
C504 C505 1.386 . S
C504 C506 1.391 . S
C505 C504 1.386 . S
C505 C509 1.393 . S
C506 H495 0.950 . S
C506 C504 1.391 . S
C506 C507 1.400 . S
C507 C501 1.491 . S
C507 C506 1.400 . S
C507 C508 1.398 . S
C508 H496 0.950 . S
C508 C507 1.398 . S
C508 C509 1.391 . S
C509 H497 0.950 . S
C509 C505 1.393 . S
C509 C508 1.391 . S
H510 C518 0.950 . S
H511 C523 0.950 . S
H512 C520 0.950 . S
H513 C522 0.950 . S
H514 C524 0.950 . S
H515 C526 0.950 . S
H516 C528 0.950 . S
H517 C529 0.950 . S
C518 H510 0.950 . S
C518 C519 1.386 . S
C518 C520 1.391 . S
C519 C518 1.386 . S
C519 C523 1.393 . S
C520 H512 0.950 . S
C520 C518 1.391 . S
C520 C521 1.400 . S
C521 C520 1.400 . S
C521 C522 1.398 . S
C521 C527 1.491 . S
C522 H513 0.950 . S
C522 C521 1.398 . S
C522 C523 1.391 . S
C523 H511 0.950 . S
C523 C519 1.393 . S
C523 C522 1.391 . S
C524 H514 0.950 . S
C524 C525 1.386 . S
C524 C526 1.391 . S
C525 C524 1.386 . S
C525 C529 1.393 . S
C526 H515 0.950 . S
C526 C524 1.391 . S
C526 C527 1.400 . S
C527 C521 1.491 . S
C527 C526 1.400 . S
C527 C528 1.398 . S
C528 H516 0.950 . S
C528 C527 1.398 . S
C528 C529 1.391 . S
C529 H517 0.950 . S
C529 C525 1.393 . S
C529 C528 1.391 . S
H530 C538 0.950 1_455 S
H531 C543 0.950 . S
H532 C540 0.950 . S
H533 C542 0.950 . S
H534 C544 0.950 . S
H535 C546 0.950 . S
H536 C548 0.950 . S
H537 C549 0.950 . S
C538 H530 0.950 1_655 S
C538 C539 1.386 . S
C538 C540 1.391 . S
C539 C538 1.386 . S
C539 C543 1.393 . S
C540 H532 0.950 . S
C540 C538 1.391 . S
C540 C541 1.400 . S
C541 C540 1.400 . S
C541 C542 1.398 . S
C541 C547 1.491 . S
C542 H533 0.950 . S
C542 C541 1.398 . S
C542 C543 1.391 . S
C543 H531 0.950 . S
C543 C539 1.393 . S
C543 C542 1.391 . S
C544 H534 0.950 . S
C544 C545 1.386 . S
C544 C546 1.391 . S
C545 C544 1.386 . S
C545 C549 1.393 . S
C546 H535 0.950 . S
C546 C544 1.391 . S
C546 C547 1.400 . S
C547 C541 1.491 . S
C547 C546 1.400 . S
C547 C548 1.398 . S
C548 H536 0.950 . S
C548 C547 1.398 . S
C548 C549 1.391 . S
C549 H537 0.950 . S
C549 C545 1.393 . S
C549 C548 1.391 . S
H550 C558 0.950 . S
H551 C563 0.950 . S
H552 C560 0.950 . S
H553 C562 0.950 . S
H554 C564 0.950 . S
H555 C566 0.950 . S
H556 C568 0.950 . S
H557 C569 0.950 . S
C558 H550 0.950 . S
C558 C559 1.386 . S
C558 C560 1.391 . S
C559 C558 1.386 . S
C559 C563 1.393 . S
C560 H552 0.950 . S
C560 C558 1.391 . S
C560 C561 1.400 . S
C561 C560 1.400 . S
C561 C562 1.398 . S
C561 C567 1.491 . S
C562 H553 0.950 . S
C562 C561 1.398 . S
C562 C563 1.391 . S
C563 H551 0.950 . S
C563 C559 1.393 . S
C563 C562 1.391 . S
C564 H554 0.950 . S
C564 C565 1.386 . S
C564 C566 1.391 . S
C565 C564 1.386 . S
C565 C569 1.393 . S
C566 H555 0.950 . S
C566 C564 1.391 . S
C566 C567 1.400 . S
C567 C561 1.491 . S
C567 C566 1.400 . S
C567 C568 1.398 . S
C568 H556 0.950 . S
C568 C567 1.398 . S
C568 C569 1.391 . S
C569 H557 0.950 . S
C569 C565 1.393 . S
C569 C568 1.391 . S
H570 C578 0.950 . S
H571 C583 0.950 . S
H572 C580 0.950 . S
H573 C582 0.950 . S
H574 C584 0.950 . S
H575 C586 0.950 . S
H576 C588 0.950 . S
H577 C589 0.950 . S
C578 H570 0.950 . S
C578 C579 1.386 . S
C578 C580 1.391 . S
C579 C578 1.386 . S
C579 C583 1.393 . S
C580 H572 0.950 . S
C580 C578 1.391 . S
C580 C581 1.400 . S
C581 C580 1.400 . S
C581 C582 1.398 . S
C581 C587 1.491 . S
C582 H573 0.950 . S
C582 C581 1.398 . S
C582 C583 1.391 . S
C583 H571 0.950 . S
C583 C579 1.393 . S
C583 C582 1.391 . S
C584 H574 0.950 . S
C584 C585 1.386 . S
C584 C586 1.391 1_545 S
C585 C584 1.386 . S
C585 C589 1.393 . S
C586 H575 0.950 . S
C586 C584 1.391 1_565 S
C586 C587 1.400 . S
C587 C581 1.491 . S
C587 C586 1.400 . S
C587 C588 1.398 . S
C588 H576 0.950 . S
C588 C587 1.398 . S
C588 C589 1.391 1_565 S
C589 H577 0.950 . S
C589 C585 1.393 . S
C589 C588 1.391 1_545 S
H590 C598 0.950 . S
H591 C603 0.950 . S
H592 C600 0.950 1_455 S
H593 C602 0.950 . S
H594 C604 0.950 . S
H595 C606 0.950 . S
H596 C608 0.950 . S
H597 C609 0.950 . S
C598 H590 0.950 . S
C598 C599 1.386 . S
C598 C600 1.391 . S
C599 C598 1.386 . S
C599 C603 1.393 . S
C600 H592 0.950 1_655 S
C600 C598 1.391 . S
C600 C601 1.400 1_655 S
C601 C600 1.400 1_455 S
C601 C602 1.398 1_455 S
C601 C607 1.491 . S
C602 H593 0.950 . S
C602 C601 1.398 1_655 S
C602 C603 1.391 . S
C603 H591 0.950 . S
C603 C599 1.393 . S
C603 C602 1.391 . S
C604 H594 0.950 . S
C604 C605 1.386 . S
C604 C606 1.391 . S
C605 C604 1.386 . S
C605 C609 1.393 . S
C606 H595 0.950 . S
C606 C604 1.391 . S
C606 C607 1.400 . S
C607 C601 1.491 . S
C607 C606 1.400 . S
C607 C608 1.398 . S
C608 H596 0.950 . S
C608 C607 1.398 . S
C608 C609 1.391 . S
C609 H597 0.950 . S
C609 C605 1.393 . S
C609 C608 1.391 . S
H610 C618 0.950 . S
H611 C623 0.950 . S
H612 C620 0.950 . S
H613 C622 0.950 . S
H614 C624 0.950 . S
H615 C626 0.950 . S
H616 C628 0.950 . S
H617 C629 0.950 . S
C618 H610 0.950 . S
C618 C619 1.386 . S
C618 C620 1.391 . S
C619 C618 1.386 . S
C619 C623 1.393 . S
C620 H612 0.950 . S
C620 C618 1.391 . S
C620 C621 1.400 . S
C621 C620 1.400 . S
C621 C622 1.398 . S
C621 C627 1.491 . S
C622 H613 0.950 . S
C622 C621 1.398 . S
C622 C623 1.391 . S
C623 H611 0.950 . S
C623 C619 1.393 . S
C623 C622 1.391 . S
C624 H614 0.950 . S
C624 C625 1.386 . S
C624 C626 1.391 . S
C625 C624 1.386 . S
C625 C629 1.393 . S
C626 H615 0.950 . S
C626 C624 1.391 . S
C626 C627 1.400 . S
C627 C621 1.491 . S
C627 C626 1.400 . S
C627 C628 1.398 . S
C628 H616 0.950 . S
C628 C627 1.398 . S
C628 C629 1.391 . S
C629 H617 0.950 . S
C629 C625 1.393 . S
C629 C628 1.391 . S
H630 C638 0.950 . S
H631 C643 0.950 . S
H632 C640 0.950 . S
H633 C642 0.950 . S
H634 C644 0.950 . S
H635 C646 0.950 . S
H636 C648 0.950 . S
H637 C649 0.950 1_655 S
C638 H630 0.950 . S
C638 C639 1.386 . S
C638 C640 1.391 . S
C639 C638 1.386 . S
C639 C643 1.393 . S
C640 H632 0.950 . S
C640 C638 1.391 . S
C640 C641 1.400 . S
C641 C640 1.400 . S
C641 C642 1.398 . S
C641 C647 1.491 . S
C642 H633 0.950 . S
C642 C641 1.398 . S
C642 C643 1.391 . S
C643 H631 0.950 . S
C643 C639 1.393 . S
C643 C642 1.391 . S
C644 H634 0.950 . S
C644 C645 1.386 . S
C644 C646 1.391 . S
C645 C644 1.386 . S
C645 C649 1.393 . S
C646 H635 0.950 . S
C646 C644 1.391 . S
C646 C647 1.400 . S
C647 C641 1.491 . S
C647 C646 1.400 . S
C647 C648 1.398 . S
C648 H636 0.950 . S
C648 C647 1.398 . S
C648 C649 1.391 . S
C649 H637 0.950 1_455 S
C649 C645 1.393 . S
C649 C648 1.391 . S
H650 C658 0.950 . S
H651 C663 0.950 . S
H652 C660 0.950 . S
H653 C662 0.950 . S
H654 C664 0.950 . S
H655 C666 0.950 . S
H656 C668 0.950 . S
H657 C669 0.950 . S
C658 H650 0.950 . S
C658 C659 1.386 . S
C658 C660 1.391 . S
C659 C658 1.386 . S
C659 C663 1.393 . S
C660 H652 0.950 . S
C660 C658 1.391 . S
C660 C661 1.400 . S
C661 C660 1.400 . S
C661 C662 1.398 . S
C661 C667 1.491 . S
C662 H653 0.950 . S
C662 C661 1.398 . S
C662 C663 1.391 . S
C663 H651 0.950 . S
C663 C659 1.393 . S
C663 C662 1.391 . S
C664 H654 0.950 . S
C664 C665 1.386 . S
C664 C666 1.391 . S
C665 C664 1.386 . S
C665 C669 1.393 . S
C666 H655 0.950 . S
C666 C664 1.391 . S
C666 C667 1.400 . S
C667 C661 1.491 . S
C667 C666 1.400 . S
C667 C668 1.398 . S
C668 H656 0.950 . S
C668 C667 1.398 . S
C668 C669 1.391 . S
C669 H657 0.950 . S
C669 C665 1.393 . S
C669 C668 1.391 . S
H670 C678 0.950 . S
H671 C683 0.950 . S
H672 C680 0.950 . S
H673 C682 0.950 . S
H674 C684 0.950 . S
H675 C686 0.950 . S
H676 C688 0.950 . S
H677 C689 0.950 . S
C678 H670 0.950 . S
C678 C679 1.386 . S
C678 C680 1.391 . S
C679 C678 1.386 . S
C679 C683 1.393 . S
C680 H672 0.950 . S
C680 C678 1.391 . S
C680 C681 1.400 . S
C681 C680 1.400 . S
C681 C682 1.398 . S
C681 C687 1.491 . S
C682 H673 0.950 . S
C682 C681 1.398 . S
C682 C683 1.391 . S
C683 H671 0.950 . S
C683 C679 1.393 . S
C683 C682 1.391 . S
C684 H674 0.950 . S
C684 C685 1.386 . S
C684 C686 1.391 . S
C685 C684 1.386 . S
C685 C689 1.393 . S
C686 H675 0.950 . S
C686 C684 1.391 . S
C686 C687 1.400 . S
C687 C681 1.491 . S
C687 C686 1.400 . S
C687 C688 1.398 . S
C688 H676 0.950 . S
C688 C687 1.398 . S
C688 C689 1.391 . S
C689 H677 0.950 . S
C689 C685 1.393 . S
C689 C688 1.391 . S
H690 C698 0.950 1_565 S
H691 C703 0.950 . S
H692 C700 0.950 . S
H693 C702 0.950 . S
H694 C704 0.950 . S
H695 C706 0.950 . S
H696 C708 0.950 . S
H697 C709 0.950 . S
C698 H690 0.950 1_545 S
C698 C699 1.386 . S
C698 C700 1.391 . S
C699 C698 1.386 . S
C699 C703 1.393 . S
C700 H692 0.950 . S
C700 C698 1.391 . S
C700 C701 1.400 . S
C701 C700 1.400 . S
C701 C702 1.398 . S
C701 C707 1.491 . S
C702 H693 0.950 . S
C702 C701 1.398 . S
C702 C703 1.391 . S
C703 H691 0.950 . S
C703 C699 1.393 . S
C703 C702 1.391 . S
C704 H694 0.950 . S
C704 C705 1.386 . S
C704 C706 1.391 . S
C705 C704 1.386 . S
C705 C709 1.393 . S
C706 H695 0.950 . S
C706 C704 1.391 . S
C706 C707 1.400 . S
C707 C701 1.491 . S
C707 C706 1.400 . S
C707 C708 1.398 . S
C708 H696 0.950 . S
C708 C707 1.398 . S
C708 C709 1.391 . S
C709 H697 0.950 . S
C709 C705 1.393 . S
C709 C708 1.391 . S
H710 C718 0.950 . S
H711 C723 0.950 . S
H712 C720 0.950 1_455 S
H713 C722 0.950 . S
H714 C724 0.950 . S
H715 C726 0.950 . S
H716 C728 0.950 . S
H717 C729 0.950 . S
C718 H710 0.950 . S
C718 C719 1.386 1_455 S
C718 C720 1.391 1_455 S
C719 C718 1.386 1_655 S
C719 C723 1.393 . S
C720 H712 0.950 1_655 S
C720 C718 1.391 1_655 S
C720 C721 1.400 . S
C721 C720 1.400 . S
C721 C722 1.398 . S
C721 C727 1.491 . S
C722 H713 0.950 . S
C722 C721 1.398 . S
C722 C723 1.391 . S
C723 H711 0.950 . S
C723 C719 1.393 . S
C723 C722 1.391 . S
C724 H714 0.950 . S
C724 C725 1.386 . S
C724 C726 1.391 . S
C725 C724 1.386 . S
C725 C729 1.393 . S
C726 H715 0.950 . S
C726 C724 1.391 . S
C726 C727 1.400 . S
C727 C721 1.491 . S
C727 C726 1.400 . S
C727 C728 1.398 . S
C728 H716 0.950 . S
C728 C727 1.398 . S
C728 C729 1.391 . S
C729 H717 0.950 . S
C729 C725 1.393 . S
C729 C728 1.391 . S
H730 C738 0.950 . S
H731 C743 0.950 . S
H732 C740 0.950 . S
H733 C742 0.950 . S
H734 C744 0.950 . S
H735 C746 0.950 . S
H736 C748 0.950 . S
H737 C749 0.950 . S
C738 H730 0.950 . S
C738 C739 1.386 . S
C738 C740 1.391 . S
C739 C738 1.386 . S
C739 C743 1.393 . S
C740 H732 0.950 . S
C740 C738 1.391 . S
C740 C741 1.400 . S
C741 C740 1.400 . S
C741 C742 1.398 . S
C741 C747 1.491 . S
C742 H733 0.950 . S
C742 C741 1.398 . S
C742 C743 1.391 . S
C743 H731 0.950 . S
C743 C739 1.393 . S
C743 C742 1.391 . S
C744 H734 0.950 . S
C744 C745 1.386 . S
C744 C746 1.391 . S
C745 C744 1.386 . S
C745 C749 1.393 . S
C746 H735 0.950 . S
C746 C744 1.391 . S
C746 C747 1.400 . S
C747 C741 1.491 . S
C747 C746 1.400 . S
C747 C748 1.398 . S
C748 H736 0.950 . S
C748 C747 1.398 . S
C748 C749 1.391 . S
C749 H737 0.950 . S
C749 C745 1.393 . S
C749 C748 1.391 . S
H750 C758 0.950 . S
H751 C763 0.950 . S
H752 C760 0.950 . S
H753 C762 0.950 . S
H754 C764 0.950 . S
H755 C766 0.950 . S
H756 C768 0.950 . S
H757 C769 0.950 . S
C758 H750 0.950 . S
C758 C759 1.386 . S
C758 C760 1.391 . S
C759 C758 1.386 . S
C759 C763 1.393 . S
C760 H752 0.950 . S
C760 C758 1.391 . S
C760 C761 1.400 . S
C761 C760 1.400 . S
C761 C762 1.398 . S
C761 C767 1.491 . S
C762 H753 0.950 . S
C762 C761 1.398 . S
C762 C763 1.391 . S
C763 H751 0.950 . S
C763 C759 1.393 . S
C763 C762 1.391 . S
C764 H754 0.950 . S
C764 C765 1.386 . S
C764 C766 1.391 . S
C765 C764 1.386 . S
C765 C769 1.393 . S
C766 H755 0.950 . S
C766 C764 1.391 . S
C766 C767 1.400 . S
C767 C761 1.491 . S
C767 C766 1.400 . S
C767 C768 1.398 . S
C768 H756 0.950 . S
C768 C767 1.398 . S
C768 C769 1.391 . S
C769 H757 0.950 . S
C769 C765 1.393 . S
C769 C768 1.391 . S
H770 C778 0.950 . S
H771 C783 0.950 . S
H772 C780 0.950 . S
H773 C782 0.950 . S
H774 C784 0.950 . S
H775 C786 0.950 1_565 S
H776 C788 0.950 . S
H777 C789 0.950 . S
C778 H770 0.950 . S
C778 C779 1.386 . S
C778 C780 1.391 1_565 S
C779 C778 1.386 . S
C779 C783 1.393 . S
C780 H772 0.950 . S
C780 C778 1.391 1_545 S
C780 C781 1.400 1_545 S
C781 C780 1.400 1_565 S
C781 C782 1.398 . S
C781 C787 1.491 1_565 S
C782 H773 0.950 . S
C782 C781 1.398 . S
C782 C783 1.391 . S
C783 H771 0.950 . S
C783 C779 1.393 . S
C783 C782 1.391 . S
C784 H774 0.950 . S
C784 C785 1.386 . S
C784 C786 1.391 . S
C785 C784 1.386 . S
C785 C789 1.393 . S
C786 H775 0.950 1_545 S
C786 C784 1.391 . S
C786 C787 1.400 . S
C787 C781 1.491 1_545 S
C787 C786 1.400 . S
C787 C788 1.398 . S
C788 H776 0.950 . S
C788 C787 1.398 . S
C788 C789 1.391 . S
C789 H777 0.950 . S
C789 C785 1.393 . S
C789 C788 1.391 . S
H790 C798 0.950 . S
H791 C803 0.950 . S
H792 C800 0.950 1_455 S
H793 C802 0.950 . S
H794 C804 0.950 . S
H795 C806 0.950 1_655 S
H796 C808 0.950 . S
H797 C809 0.950 . S
C798 H790 0.950 . S
C798 C799 1.386 . S
C798 C800 1.391 . S
C799 C798 1.386 . S
C799 C803 1.393 . S
C800 H792 0.950 1_655 S
C800 C798 1.391 . S
C800 C801 1.400 . S
C801 C800 1.400 . S
C801 C802 1.398 . S
C801 C807 1.491 1_655 S
C802 H793 0.950 . S
C802 C801 1.398 . S
C802 C803 1.391 . S
C803 H791 0.950 . S
C803 C799 1.393 . S
C803 C802 1.391 . S
C804 H794 0.950 . S
C804 C805 1.386 . S
C804 C806 1.391 . S
C805 C804 1.386 . S
C805 C809 1.393 . S
C806 H795 0.950 1_455 S
C806 C804 1.391 . S
C806 C807 1.400 . S
C807 C801 1.491 1_455 S
C807 C806 1.400 . S
C807 C808 1.398 . S
C808 H796 0.950 . S
C808 C807 1.398 . S
C808 C809 1.391 . S
C809 H797 0.950 . S
C809 C805 1.393 . S
C809 C808 1.391 . S
C279 C57 1.772 . S
C285 C16 1.735 . S
C299 N66 0.383 . S
C305 N44 0.426 . S
C319 C76 1.121 . S
C325 N6 1.124 . S
C339 N74 0.548 . S
C345 N36 0.525 . S
C359 C87 0.941 . S
C365 N14 0.935 . S
C379 C27 1.995 . S
C385 C46 1.940 . S
C399 C106 0.469 . S
C405 N126 0.469 . S
C419 N156 1.374 . S
C425 C136 1.367 1_545 S
C439 C166 1.185 1_655 S
C445 N96 1.191 1_545 S
C459 C147 1.850 . S
C465 N164 1.813 . S
C479 C177 0.840 . S
C485 N104 0.827 . S
C499 N134 0.870 . S
C505 C117 0.888 . S
C519 C237 1.792 . S
C525 C196 1.746 . S
C539 N224 0.361 . S
C545 N246 0.433 . S
C559 C256 1.106 . S
C565 N186 1.114 . S
C579 N254 0.588 . S
C585 N216 0.560 . S
C599 C267 0.930 . S
C605 N194 0.912 . S
C619 C207 1.972 . S
C625 C226 1.909 1_455 S
C639 C151 2.066 . S
C645 C10 2.131 . S
C659 C91 2.156 . S
C665 C31 2.162 . S
C679 C70 1.953 . S
C685 C121 1.878 . S
C699 C61 2.041 . S
C705 C190 2.111 . S
C719 C1 2.175 . S
C725 C211 2.186 . S
C739 C250 1.944 . S
C745 C40 1.942 . S
C759 C100 2.112 . S
C765 C241 2.051 . S
C779 C130 2.271 . S
C785 C181 2.186 . S
C799 C220 1.976 . S
C805 C160 1.977 . S
