# Generated by pormake.
# Topology sml, (6)-cn, num edge types: 1
# Building blocks:
#     Node 0, Type 0, BuildingBlock: GEDQOX_clean_sbu_0, # of connection points: 6
#     Node 1, Type 0, BuildingBlock: GEDQOX_clean_sbu_0, # of connection points: 6
#     Node 2, Type 0, BuildingBlock: GEDQOX_clean_sbu_0, # of connection points: 6
#     Node 3, Type 0, BuildingBlock: GEDQOX_clean_sbu_0, # of connection points: 6
#     Node 4, Type 0, BuildingBlock: GEDQOX_clean_sbu_0, # of connection points: 6
#     Node 5, Type 0, BuildingBlock: GEDQOX_clean_sbu_0, # of connection points: 6
#     Edge 6, Type (0, 0), BuildingBlock: XIVTED_clean_linker_0, # of connection points: 2
#     Edge 7, Type (0, 0), BuildingBlock: XIVTED_clean_linker_0, # of connection points: 2
#     Edge 8, Type (0, 0), BuildingBlock: XIVTED_clean_linker_0, # of connection points: 2
#     Edge 9, Type (0, 0), BuildingBlock: XIVTED_clean_linker_0, # of connection points: 2
#     Edge 10, Type (0, 0), BuildingBlock: XIVTED_clean_linker_0, # of connection points: 2
#     Edge 11, Type (0, 0), BuildingBlock: XIVTED_clean_linker_0, # of connection points: 2
#     Edge 12, Type (0, 0), BuildingBlock: XIVTED_clean_linker_0, # of connection points: 2
#     Edge 13, Type (0, 0), BuildingBlock: XIVTED_clean_linker_0, # of connection points: 2
#     Edge 14, Type (0, 0), BuildingBlock: XIVTED_clean_linker_0, # of connection points: 2
#     Edge 15, Type (0, 0), BuildingBlock: XIVTED_clean_linker_0, # of connection points: 2
#     Edge 16, Type (0, 0), BuildingBlock: XIVTED_clean_linker_0, # of connection points: 2
#     Edge 17, Type (0, 0), BuildingBlock: XIVTED_clean_linker_0, # of connection points: 2
#     Edge 18, Type (0, 0), BuildingBlock: XIVTED_clean_linker_0, # of connection points: 2
#     Edge 19, Type (0, 0), BuildingBlock: XIVTED_clean_linker_0, # of connection points: 2
#     Edge 20, Type (0, 0), BuildingBlock: XIVTED_clean_linker_0, # of connection points: 2
#     Edge 21, Type (0, 0), BuildingBlock: XIVTED_clean_linker_0, # of connection points: 2
#     Edge 22, Type (0, 0), BuildingBlock: XIVTED_clean_linker_0, # of connection points: 2
#     Edge 23, Type (0, 0), BuildingBlock: XIVTED_clean_linker_0, # of connection points: 2
# Relax obj value: 0.235
# Max RMSD: 0.230
# Mean RMSD: 0.230
data_MOF--net-sml--node1-GEDQOX_clean_sbu_0--edge1-XIVTED_clean_linker_0
_symmetry_space_group_name_H-M    P1
_symmetry_Int_Tables_number       1
_symmetry_cell_setting            triclinic
loop_
_symmetry_equiv_pos_as_xyz
'x, y, z'
_cell_length_a     53.472634
_cell_length_b     53.450927
_cell_length_c     15.739392
_cell_angle_alpha  90.093105
_cell_angle_beta   89.900221
_cell_angle_gamma 119.95731
loop_
_atom_site_label
_atom_site_type_symbol
_atom_site_fract_x
_atom_site_fract_y
_atom_site_fract_z
_atom_type_partial_charge
Nd0 Nd 0.23188 0.41769 0.02288 0.0
Nd1 Nd 0.20395 0.45874 1.02171 0.0
C2 C 0.26025 0.38905 1.00594 0.0
C3 C 0.27573 0.3781 0.95253 0.0
C4 C 0.30588 0.39052 0.95872 0.0
C5 C 0.31995 0.37693 0.92196 0.0
C6 C 0.30411 0.3504 0.87921 0.0
C7 C 0.27419 0.33878 0.86946 0.0
C8 C 0.26018 0.35242 0.90558 0.0
C9 C 0.17373 0.39226 0.05863 0.0
C10 C 0.21609 0.43694 0.84068 0.0
C11 C 0.169 0.48012 0.03715 0.0
C12 C 0.17172 0.50606 0.07869 0.0
C13 C 0.14842 0.51117 0.08025 0.0
C14 C 0.15129 0.53607 0.11933 0.0
C15 C 0.17754 0.55629 0.15755 0.0
C16 C 0.20078 0.55089 0.15558 0.0
C17 C 0.19785 0.52603 0.11689 0.0
C18 C 0.26357 0.49213 1.01823 0.0
C19 C 0.22427 0.44261 0.20212 0.0
O20 O 0.273 0.41643 0.02735 0.0
O21 O 0.23231 0.3774 0.99609 0.0
O22 O 0.19097 0.38503 0.09491 0.0
O23 O 0.18699 0.41134 1.00286 0.0
O24 O 0.23167 0.42772 0.88104 0.0
O25 O 0.20043 0.44613 0.88107 0.0
O26 O 0.16823 0.46041 0.08829 0.0
O27 O 0.1857 0.48486 0.97097 0.0
O28 O 0.24646 0.50274 1.02 0.0
O29 O 0.24864 0.46505 1.02073 0.0
O30 O 0.20667 0.4496 0.16319 0.0
O31 O 0.23999 0.4338 0.16036 0.0
H32 H 0.31845 0.41005 0.99542 0.0
H33 H 0.34299 0.38639 0.93111 0.0
H34 H 0.2614 0.31859 0.83591 0.0
H35 H 0.23694 0.34205 0.89983 0.0
H36 H 0.12804 0.49591 0.05127 0.0
H37 H 0.13287 0.53934 0.12028 0.0
H38 H 0.22149 0.56614 0.1827 0.0
H39 H 0.21609 0.52247 0.11634 0.0
Nd40 Nd 0.82297 0.22663 0.3519 0.0
Nd41 Nd 0.75401 0.19915 0.35087 0.0
C42 C 0.87993 0.25464 0.33513 0.0
C43 C 0.90653 0.27047 0.28275 0.0
C44 C 0.92386 0.30068 0.2891 0.0
C45 C 0.95164 0.31506 0.25337 0.0
C46 C 0.96285 0.29949 0.21152 0.0
C47 C 0.94495 0.2695 0.20161 0.0
C48 C 0.9172 0.25518 0.23672 0.0
C49 C 0.79003 0.16854 0.38778 0.0
C50 C 0.78785 0.21126 0.16981 0.0
C51 C 0.69769 0.16487 0.36613 0.0
C52 C 0.67433 0.16676 0.41093 0.0
C53 C 0.67786 0.17678 0.49509 0.0
C54 C 0.65649 0.18051 0.53458 0.0
C55 C 0.63119 0.17464 0.49066 0.0
C56 C 0.62742 0.16389 0.4071 0.0
C57 C 0.64876 0.15999 0.36776 0.0
C58 C 0.78085 0.25886 0.34729 0.0
C59 C 0.79043 0.21941 0.5313 0.0
O60 O 0.86552 0.26744 0.35872 0.0
O61 O 0.86344 0.22683 0.32272 0.0
O62 O 0.81454 0.18573 0.42391 0.0
O63 O 0.78423 0.18181 0.33195 0.0
O64 O 0.81266 0.22672 0.21024 0.0
O65 O 0.76301 0.19564 0.21013 0.0
O66 O 0.71657 0.16248 0.4135 0.0
O67 O 0.70956 0.18259 0.30201 0.0
O68 O 0.7531 0.24206 0.34967 0.0
O69 O 0.79263 0.2436 0.34987 0.0
O70 O 0.76575 0.20209 0.49242 0.0
O71 O 0.81502 0.23476 0.48958 0.0
H72 H 0.9165 0.31307 0.32512 0.0
H73 H 0.9649 0.33815 0.26261 0.0
H74 H 0.95275 0.2569 0.16871 0.0
H75 H 0.90464 0.2319 0.23097 0.0
H76 H 0.69738 0.18228 0.53003 0.0
H77 H 0.65999 0.18835 0.59941 0.0
H78 H 0.60845 0.15946 0.37084 0.0
H79 H 0.64562 0.15236 0.3027 0.0
Nd80 Nd 0.6038 0.81786 0.68109 0.0
Nd81 Nd 0.56572 0.75257 0.67529 0.0
C82 C 0.63065 0.87507 0.66762 0.0
C83 C 0.64369 0.90152 0.61406 0.0
C84 C 0.62996 0.91803 0.6068 0.0
C85 C 0.64429 0.94562 0.57014 0.0
C86 C 0.67285 0.95751 0.54063 0.0
C87 C 0.68605 0.9404 0.54431 0.0
C88 C 0.6717 0.91281 0.58063 0.0
C89 C 0.63188 0.78723 0.71038 0.0
C90 C 0.58948 0.78465 0.498 0.0
C91 C 0.53966 0.69577 0.69586 0.0
C92 C 0.51475 0.67316 0.74323 0.0
C93 C 0.50848 0.67784 0.82646 0.0
C94 C 0.48376 0.6567 0.86812 0.0
C95 C 0.46462 0.63053 0.82721 0.0
C96 C 0.47138 0.62579 0.74441 0.0
C97 C 0.49618 0.64687 0.70303 0.0
C98 C 0.53591 0.78154 0.6506 0.0
C99 C 0.58075 0.78628 0.86059 0.0
O100 O 0.60255 0.85885 0.67108 0.0
O101 O 0.64399 0.86027 0.67382 0.0
O102 O 0.63736 0.81055 0.75102 0.0
O103 O 0.61299 0.78132 0.65398 0.0
O104 O 0.5942 0.80824 0.53862 0.0
O105 O 0.58372 0.76097 0.53987 0.0
O106 O 0.56223 0.71405 0.73984 0.0
O107 O 0.53354 0.70819 0.63433 0.0
O108 O 0.52922 0.75704 0.616 0.0
O109 O 0.55602 0.78878 0.70386 0.0
O110 O 0.57258 0.76187 0.81917 0.0
O111 O 0.5901 0.81098 0.82025 0.0
H112 H 0.60857 0.91017 0.63302 0.0
H113 H 0.63352 0.95822 0.56904 0.0
H114 H 0.70785 0.94866 0.52101 0.0
H115 H 0.68306 0.90085 0.58551 0.0
H116 H 0.52242 0.69798 0.85891 0.0
H117 H 0.47954 0.66099 0.93224 0.0
H118 H 0.45703 0.60619 0.71026 0.0
H119 H 0.50054 0.64288 0.63866 0.0
Nd120 Nd 0.79358 0.59988 1.01568 0.0
Nd121 Nd 0.82086 0.55808 1.01339 0.0
C122 C 0.76597 0.62927 0.99943 0.0
C123 C 0.75102 0.64057 0.94544 0.0
C124 C 0.72085 0.62824 0.9497 0.0
C125 C 0.70718 0.64204 0.91203 0.0
C126 C 0.72343 0.66867 0.87023 0.0
C127 C 0.75342 0.68025 0.86254 0.0
C128 C 0.76703 0.66641 0.89961 0.0
C129 C 0.85149 0.62431 0.052 0.0
C130 C 0.80897 0.58019 0.83285 0.0
C131 C 0.85524 0.53611 0.0281 0.0
C132 C 0.8536 0.51108 0.07334 0.0
C133 C 0.8441 0.50504 0.15803 0.0
C134 C 0.84055 0.48011 0.19796 0.0
C135 C 0.8461 0.46041 0.15396 0.0
C136 C 0.85636 0.46695 0.06985 0.0
C137 C 0.86007 0.49203 0.03007 0.0
C138 C 0.76119 0.52556 1.0107 0.0
C139 C 0.80043 0.5741 0.19431 0.0
O140 O 0.75282 0.6018 1.01996 0.0
O141 O 0.79393 0.64062 0.99048 0.0
O142 O 0.83441 0.63159 0.08944 0.0
O143 O 0.83815 0.60558 0.99536 0.0
O144 O 0.7938 0.5899 0.87358 0.0
O145 O 0.82426 0.57054 0.8728 0.0
O146 O 0.85781 0.5576 0.07501 0.0
O147 O 0.83723 0.52995 0.96462 0.0
O148 O 0.77787 0.51443 1.01241 0.0
O149 O 0.77656 0.55258 1.01322 0.0
O150 O 0.81778 0.56674 0.15521 0.0
O151 O 0.78512 0.58342 0.15282 0.0
H152 H 0.70791 0.6086 0.98551 0.0
H153 H 0.68407 0.63262 0.91964 0.0
H154 H 0.76654 0.70051 0.82975 0.0
H155 H 0.79032 0.67671 0.89538 0.0
H156 H 0.83885 0.51929 0.19306 0.0
H157 H 0.83309 0.47611 0.26318 0.0
H158 H 0.86052 0.45219 0.03353 0.0
H159 H 0.86731 0.49617 0.96461 0.0
Nd160 Nd 0.1993 0.78911 0.36136 0.0
Nd161 Nd 0.26814 0.81542 0.35784 0.0
C162 C 0.14238 0.76124 0.34893 0.0
C163 C 0.11475 0.74144 0.30622 0.0
C164 C 0.09277 0.71918 0.3541 0.0
C165 C 0.06473 0.70331 0.32199 0.0
C166 C 0.05795 0.70932 0.24102 0.0
C167 C 0.08035 0.73051 0.19094 0.0
C168 C 0.10848 0.74655 0.2234 0.0
C169 C 0.23312 0.84742 0.39393 0.0
C170 C 0.23347 0.80203 0.17869 0.0
C171 C 0.3247 0.84897 0.36949 0.0
C172 C 0.34787 0.84532 0.40745 0.0
C173 C 0.37393 0.86944 0.43265 0.0
C174 C 0.39566 0.86584 0.47052 0.0
C175 C 0.39162 0.838 0.48402 0.0
C176 C 0.36541 0.81396 0.45813 0.0
C177 C 0.34378 0.81758 0.42071 0.0
C178 C 0.24018 0.75563 0.35603 0.0
C179 C 0.2326 0.79733 0.53976 0.0
O180 O 0.15649 0.75053 0.38863 0.0
O181 O 0.15909 0.78691 0.31637 0.0
O182 O 0.20823 0.83102 0.42927 0.0
O183 O 0.23849 0.83339 0.33956 0.0
O184 O 0.20901 0.7862 0.22056 0.0
O185 O 0.25834 0.8186 0.21774 0.0
O186 O 0.30659 0.85018 0.4233 0.0
O187 O 0.31184 0.83287 0.30289 0.0
O188 O 0.268 0.77191 0.35734 0.0
O189 O 0.22898 0.77139 0.35848 0.0
O190 O 0.25715 0.81416 0.49957 0.0
O191 O 0.20781 0.78197 0.49927 0.0
H192 H 0.09697 0.71489 0.41823 0.0
H193 H 0.04812 0.68685 0.3617 0.0
H194 H 0.07582 0.73573 0.12846 0.0
H195 H 0.12498 0.76368 0.18509 0.0
H196 H 0.37741 0.89103 0.42349 0.0
H197 H 0.41542 0.88482 0.49028 0.0
H198 H 0.36166 0.79222 0.46577 0.0
H199 H 0.32383 0.79864 0.40201 0.0
Nd200 Nd 0.42026 0.19776 0.68738 0.0
Nd201 Nd 0.46159 0.26678 0.68599 0.0
C202 C 0.39164 0.14077 0.67134 0.0
C203 C 0.38068 0.11427 0.61847 0.0
C204 C 0.39186 0.09561 0.62935 0.0
C205 C 0.37797 0.06789 0.59321 0.0
C206 C 0.35238 0.05811 0.5463 0.0
C207 C 0.3421 0.07736 0.53175 0.0
C208 C 0.35606 0.10507 0.56729 0.0
C209 C 0.39505 0.23074 0.72274 0.0
C210 C 0.43981 0.23279 0.50505 0.0
C211 C 0.48317 0.32306 0.70087 0.0
C212 C 0.50822 0.34661 0.7455 0.0
C213 C 0.51421 0.34356 0.83054 0.0
C214 C 0.53917 0.36506 0.86996 0.0
C215 C 0.55893 0.38998 0.8251 0.0
C216 C 0.55243 0.39331 0.74067 0.0
C217 C 0.52732 0.37184 0.70139 0.0
C218 C 0.49457 0.24005 0.68255 0.0
C219 C 0.44546 0.23042 0.86653 0.0
O220 O 0.41903 0.15538 0.69245 0.0
O221 O 0.37999 0.15707 0.66124 0.0
O222 O 0.38766 0.20623 0.7591 0.0
O223 O 0.41418 0.23646 0.66707 0.0
O224 O 0.43034 0.20795 0.54547 0.0
O225 O 0.44918 0.25768 0.54533 0.0
O226 O 0.46197 0.30411 0.74837 0.0
O227 O 0.48924 0.31125 0.63689 0.0
O228 O 0.50544 0.26781 0.68475 0.0
O229 O 0.46753 0.22821 0.68521 0.0
O230 O 0.45274 0.25509 0.82763 0.0
O231 O 0.43634 0.20583 0.82486 0.0
H232 H 0.41054 0.10187 0.66933 0.0
H233 H 0.38637 0.05356 0.60608 0.0
H234 H 0.32267 0.07066 0.49491 0.0
H235 H 0.34669 0.11873 0.55774 0.0
H236 H 0.49992 0.32432 0.86627 0.0
H237 H 0.54315 0.36193 0.93545 0.0
H238 H 0.56724 0.41198 0.70374 0.0
H239 H 0.5232 0.37461 0.63568 0.0
H240 H 0.35126 0.21815 0.83323 0.0
H241 H 0.35612 0.36979 0.79588 0.0
H242 H 0.40937 0.28458 0.661 0.0
H243 H 0.28433 0.2928 0.90053 0.0
H244 H 0.3789 0.34128 0.75553 0.0
H245 H 0.32951 0.24753 0.86884 0.0
C246 C 0.35949 0.23899 0.80292 0.0
C247 C 0.38217 0.24893 0.74407 0.0
C248 C 0.35809 0.33067 0.7869 0.0
C249 C 0.35738 0.28292 0.78503 0.0
C250 C 0.34514 0.34693 0.81024 0.0
C251 C 0.31815 0.33365 0.85119 0.0
C252 C 0.34419 0.30103 0.80599 0.0
C253 C 0.3049 0.30391 0.86797 0.0
C254 C 0.34699 0.25576 0.82316 0.0
C255 C 0.39195 0.27615 0.70687 0.0
N256 N 0.31809 0.28873 0.84582 0.0
N257 N 0.37958 0.29229 0.72822 0.0
H258 H 0.1426 0.34795 0.16743 0.0
H259 H 0.9952 0.35166 0.12892 0.0
H260 H 0.13417 0.40675 0.99853 0.0
H261 H 1.00116 0.28038 0.23437 0.0
H262 H 0.04659 0.37497 0.08987 0.0
H263 H 0.09144 0.32583 0.20255 0.0
C264 C 0.12995 0.35624 0.13775 0.0
C265 C 0.14267 0.3792 0.07987 0.0
C266 C 0.03654 0.35416 0.12116 0.0
C267 C 0.08384 0.35399 0.12025 0.0
C268 C 1.00727 0.3409 0.14377 0.0
C269 C 0.99374 0.31389 0.18451 0.0
C270 C 0.05251 0.34053 0.14073 0.0
C271 C 1.01047 0.30094 0.20191 0.0
C272 C 0.10068 0.34355 0.1577 0.0
C273 C 0.12519 0.38907 0.04348 0.0
N274 N 0.03887 0.31441 0.1804 0.0
N275 N 0.09666 0.37648 0.06449 0.0
H276 H 0.80267 0.13798 0.50017 0.0
H277 H 0.65491 0.98812 0.44077 0.0
H278 H 0.73697 0.12826 0.32299 0.0
H279 H 0.72891 0.99743 0.5778 0.0
H280 H 0.68277 0.03941 0.4016 0.0
H281 H 0.77413 0.08678 0.53447 0.0
C282 C 0.78216 0.12503 0.46845 0.0
C283 C 0.77221 0.13742 0.40853 0.0
C284 C 0.6929 0.03013 0.43984 0.0
C285 C 0.73918 0.07844 0.4478 0.0
C286 C 0.67699 1.00088 0.46252 0.0
C287 C 0.68957 0.98828 0.51238 0.0
C288 C 0.72153 0.04705 0.46804 0.0
C289 C 0.71836 1.00593 0.53819 0.0
C290 C 0.76587 0.09571 0.48796 0.0
C291 C 0.74543 0.11955 0.36957 0.0
N292 N 0.73322 0.03429 0.51612 0.0
N293 N 0.72978 0.09094 0.39001 0.0
H294 H 0.67694 0.80124 0.81697 0.0
H295 H 0.67199 0.6494 0.78433 0.0
H296 H 0.61801 0.73346 0.64957 0.0
H297 H 0.7433 0.72638 0.89082 0.0
H298 H 0.64954 0.67795 0.74195 0.0
H299 H 0.6992 0.77233 0.85254 0.0
C300 C 0.66871 0.78025 0.78751 0.0
C301 C 0.64565 0.76978 0.73004 0.0
C302 C 0.67018 0.68856 0.77414 0.0
C303 C 0.67093 0.7363 0.77114 0.0
C304 C 0.68294 0.67227 0.79867 0.0
C305 C 0.70968 0.68551 0.84081 0.0
C306 C 0.68403 0.71822 0.7931 0.0
C307 C 0.72292 0.71528 0.85739 0.0
C308 C 0.68147 0.76374 0.80776 0.0
C309 C 0.63583 0.74237 0.69398 0.0
N310 N 0.70992 0.7305 0.83401 0.0
N311 N 0.64842 0.72648 0.71545 0.0
H312 H 1.01105 0.70041 0.33375 0.0
H313 H 0.89329 0.61736 0.9707 0.0
H314 H 0.03492 0.68652 0.08353 0.0
H315 H 0.87871 0.65622 0.19162 0.0
H316 H 0.94385 0.6371 1.01526 0.0
H317 H 0.96098 0.67847 0.28753 0.0
C318 C 1.00572 0.69247 0.26918 0.0
C319 C 0.02728 0.6952 0.21261 0.0
C320 C 0.92954 0.64128 0.05377 0.0
C321 C 0.96968 0.67015 0.15875 0.0
C322 C 0.90072 0.62999 0.02854 0.0
C323 C 0.88187 0.6353 0.0774 0.0
C324 C 0.93934 0.65762 0.12894 0.0
C325 C 0.89254 0.65172 0.15182 0.0
C326 C 0.9771 0.68013 0.2426 0.0
C327 C 0.01903 0.68498 0.12913 0.0
N328 N 0.92045 0.66218 0.17537 0.0
N329 N 0.99086 0.67279 0.10475 0.0
H330 H 0.29414 0.02238 0.56067 0.0
H331 H 0.28806 0.88493 0.33609 0.0
H332 H 0.371 0.02342 0.4717 0.0
H333 H 0.22043 0.88072 0.49569 0.0
H334 H 0.31793 0.93658 0.37085 0.0
H335 H 0.26574 0.97156 0.52124 0.0
C336 C 0.30504 0.012 0.53193 0.0
C337 C 0.33504 0.02732 0.51909 0.0
C338 C 0.29657 0.92428 0.39825 0.0
C339 C 0.30249 0.96872 0.4743 0.0
C340 C 0.27953 0.89486 0.37841 0.0
C341 C 0.25175 0.87853 0.41323 0.0
C342 C 0.28552 0.93747 0.4522 0.0
C343 C 0.24171 0.89247 0.46747 0.0
C344 C 0.28881 0.98286 0.51008 0.0
C345 C 0.34797 0.01243 0.48307 0.0
N346 N 0.25849 0.92107 0.48489 0.0
N347 N 0.33161 0.98399 0.46158 0.0
H348 H 0.18806 0.45494 0.73214 0.0
H349 H 0.25402 0.42619 0.30968 0.0
H350 H 0.24604 0.42062 0.73379 0.0
H351 H 0.19557 0.45995 0.30995 0.0
H352 H 0.25222 0.42483 0.46501 0.0
H353 H 0.19093 0.45721 0.57731 0.0
C354 C 0.20133 0.44779 0.70011 0.0
C355 C 0.2168 0.43754 0.74642 0.0
C356 C 0.23985 0.4326 0.431 0.0
C357 C 0.2203 0.44024 0.56859 0.0
C358 C 0.24094 0.43347 0.34222 0.0
C359 C 0.22489 0.44315 0.29636 0.0
C360 C 0.2226 0.44148 0.47438 0.0
C361 C 0.20828 0.45225 0.34229 0.0
C362 C 0.20301 0.44915 0.61153 0.0
C363 C 0.23369 0.42865 0.70102 0.0
N364 N 0.20753 0.45112 0.42853 0.0
N365 N 0.23499 0.43022 0.61477 0.0
H366 H 0.74178 0.18376 0.06115 0.0
H367 H 0.83669 0.24861 0.63898 0.0
H368 H 0.83414 0.24089 0.06307 0.0
H369 H 0.74431 0.19154 0.63903 0.0
H370 H 0.83621 0.2469 0.7943 0.0
H371 H 0.74239 0.18673 0.90634 0.0
C372 C 0.76222 0.19687 0.02918 0.0
C373 C 0.78795 0.21206 0.07556 0.0
C374 C 0.81604 0.23483 0.76024 0.0
C375 C 0.78877 0.21566 0.89777 0.0
C376 C 0.81629 0.23586 0.67146 0.0
C377 C 0.79052 0.22015 0.62553 0.0
C378 C 0.78986 0.21796 0.80356 0.0
C379 C 0.76475 0.20396 0.67141 0.0
C380 C 0.76254 0.1986 0.94062 0.0
C381 C 0.81375 0.22875 0.03025 0.0
N382 N 0.76511 0.20324 0.75765 0.0
N383 N 0.81349 0.2301 0.94401 0.0
H384 H 0.57623 0.73929 0.38987 0.0
H385 H 0.59597 0.8318 0.96928 0.0
H386 H 0.60208 0.82983 0.39134 0.0
H387 H 0.566 0.74031 0.96681 0.0
H388 H 0.59866 0.83145 0.124 0.0
H389 H 0.57344 0.73937 0.23476 0.0
C390 C 0.5815 0.75923 0.35767 0.0
C391 C 0.5894 0.78459 0.40388 0.0
C392 C 0.59141 0.81142 0.08967 0.0
C393 C 0.58605 0.78477 0.22628 0.0
C394 C 0.58979 0.81159 1.00118 0.0
C395 C 0.58075 0.78605 0.95472 0.0
C396 C 0.58402 0.78555 0.13229 0.0
C397 C 0.57308 0.76054 0.99981 0.0
C398 C 0.57979 0.75923 0.26907 0.0
C399 C 0.59587 0.80974 0.35858 0.0
N400 N 0.57497 0.76096 0.08599 0.0
N401 N 0.59401 0.80917 0.27246 0.0
H402 H 0.8362 0.56129 0.72381 0.0
H403 H 0.7713 0.5913 0.30229 0.0
H404 H 0.77958 0.5972 0.72642 0.0
H405 H 0.82833 0.55586 0.30177 0.0
H406 H 0.77314 0.59273 0.4576 0.0
H407 H 0.83315 0.55883 0.56905 0.0
C408 C 0.82319 0.56876 0.692 0.0
C409 C 0.80816 0.57951 0.73858 0.0
C410 C 0.78517 0.58456 0.42343 0.0
C411 C 0.80444 0.57659 0.56078 0.0
C412 C 0.78406 0.58365 0.33465 0.0
C413 C 0.79972 0.57349 0.28855 0.0
C414 C 0.80206 0.57526 0.46658 0.0
C415 C 0.81593 0.56394 0.33427 0.0
C416 C 0.82141 0.56728 0.60345 0.0
C417 C 0.79159 0.58878 0.69344 0.0
N418 N 0.81673 0.56513 0.42052 0.0
N419 N 0.79017 0.58709 0.6072 0.0
H420 H 0.27923 0.82563 0.64524 0.0
H421 H 0.18676 0.77128 0.07443 0.0
H422 H 0.18693 0.76819 0.64971 0.0
H423 H 0.27882 0.82992 0.0676 0.0
H424 H 0.18639 0.76916 0.91945 0.0
H425 H 0.27944 0.82641 0.79997 0.0
C426 C 0.25897 0.81308 0.67861 0.0
C427 C 0.23298 0.79685 0.63399 0.0
C428 C 0.20667 0.7825 0.95185 0.0
C429 C 0.23313 0.79777 0.81209 0.0
C430 C 0.20693 0.78376 0.04051 0.0
C431 C 0.23289 0.80086 0.08448 0.0
C432 C 0.23255 0.79842 0.90649 0.0
C433 C 0.25828 0.81648 0.03671 0.0
C434 C 0.25913 0.81358 0.76722 0.0
C435 C 0.20748 0.78102 0.68119 0.0
N436 N 0.25746 0.81488 0.95045 0.0
N437 N 0.20819 0.78193 0.76762 0.0
H438 H 0.45835 0.27891 0.39657 0.0
H439 H 0.42858 0.18415 0.97403 0.0
H440 H 0.42312 0.18649 0.39814 0.0
H441 H 0.46345 0.27652 0.97438 0.0
H442 H 0.42729 0.18456 0.12935 0.0
H443 H 0.4607 0.27835 0.24176 0.0
C444 C 0.45101 0.25847 0.36452 0.0
C445 C 0.44049 0.23271 0.41081 0.0
C446 C 0.4353 0.20474 0.09536 0.0
C447 C 0.44326 0.23195 0.23299 0.0
C448 C 0.43612 0.20454 1.00658 0.0
C449 C 0.44608 0.23032 0.96075 0.0
C450 C 0.44449 0.23091 0.13877 0.0
C451 C 0.45552 0.25606 1.0067 0.0
C452 C 0.45242 0.25818 0.27595 0.0
C453 C 0.43137 0.20691 0.36539 0.0
N454 N 0.45442 0.25567 0.09296 0.0
N455 N 0.43298 0.2072 0.27913 0.0
H456 H 0.1558 0.59104 0.10573 0.0
H457 H 0.25949 0.72011 0.40623 0.0
H458 H 0.20747 0.58301 0.30264 0.0
H459 H 0.18818 0.71978 0.27798 0.0
H460 H 0.23986 0.66942 0.3692 0.0
H461 H 0.16599 0.63737 0.16712 0.0
C462 C 0.16894 0.59874 0.16245 0.0
C463 C 0.18115 0.58317 0.19813 0.0
C464 C 0.22816 0.68017 0.35006 0.0
C465 C 0.19319 0.63643 0.26786 0.0
C466 C 0.23937 0.70912 0.37129 0.0
C467 C 0.22538 0.72403 0.34514 0.0
C468 C 0.2031 0.66608 0.30029 0.0
C469 C 0.19945 0.70888 0.29974 0.0
C470 C 0.17479 0.62526 0.19729 0.0
C471 C 0.19821 0.5945 0.2713 0.0
N472 N 0.18934 0.68076 0.27737 0.0
N473 N 0.20395 0.62049 0.30298 0.0
H474 H 0.64205 0.22073 0.59185 0.0
H475 H 0.47773 0.18524 0.62238 0.0
H476 H 0.57156 0.14454 0.47854 0.0
H477 H 0.55163 0.26363 0.71102 0.0
H478 H 0.51005 0.16647 0.58377 0.0
H479 H 0.60768 0.2332 0.65057 0.0
C480 C 0.61929 0.20634 0.58012 0.0
C481 C 0.60984 0.18147 0.53 0.0
C482 C 0.51907 0.18763 0.61258 0.0
C483 C 0.57 0.19613 0.59616 0.0
C484 C 0.50063 0.19822 0.63511 0.0
C485 C 0.51211 0.22603 0.66965 0.0
C486 C 0.54904 0.205 0.62536 0.0
C487 C 0.54192 0.24214 0.6841 0.0
C488 C 0.59959 0.21364 0.61326 0.0
C489 C 0.57995 0.16412 0.51581 0.0
N490 N 0.55928 0.23147 0.66165 0.0
N491 N 0.56111 0.17183 0.5484 0.0
H492 H 0.30235 0.47597 0.9604 0.0
H493 H 0.42889 0.64118 0.92714 0.0
H494 H 0.29622 0.54927 0.04719 0.0
H495 H 0.43666 0.57084 0.82083 0.0
H496 H 0.38236 0.60645 0.98671 0.0
H497 H 0.35343 0.50886 0.92362 0.0
C498 C 0.3119 0.49886 0.9731 0.0
C499 C 0.29511 0.51001 1.00648 0.0
C500 C 0.39425 0.5985 0.95079 0.0
C501 C 0.35306 0.54757 0.96431 0.0
C502 C 0.42107 0.61841 0.91718 0.0
C503 C 0.43691 0.60909 0.86847 0.0
C504 C 0.3828 0.56884 0.93555 0.0
C505 C 0.42509 0.57914 0.85673 0.0
C506 C 0.34093 0.51763 0.95166 0.0
C507 C 0.30836 0.53981 1.02104 0.0
N508 N 0.39871 0.56011 0.88956 0.0
N509 N 0.3364 0.55749 0.99957 0.0
H510 H 0.83557 0.29655 0.28643 0.0
H511 H 0.80056 0.42581 0.25747 0.0
H512 H 0.75747 0.29256 0.37642 0.0
H513 H 0.87597 0.43062 0.14071 0.0
H514 H 0.7882 0.37911 0.31672 0.0
H515 H 0.85439 0.34759 0.24766 0.0
C516 C 0.82267 0.30657 0.29942 0.0
C517 C 0.79492 0.29039 0.33437 0.0
C518 C 0.80757 0.39037 0.27854 0.0
C519 C 0.81601 0.34829 0.28995 0.0
C520 C 0.81481 0.41728 0.24509 0.0
C521 C 0.83941 0.43239 0.19381 0.0
C522 C 0.82488 0.37807 0.2606 0.0
C523 C 0.85659 0.41966 0.17888 0.0
C524 C 0.83328 0.33557 0.2768 0.0
C525 C 0.77891 0.30422 0.34918 0.0
N526 N 0.84894 0.3932 0.21178 0.0
N527 N 0.78961 0.33222 0.32665 0.0
H528 H 0.45072 0.87013 0.46253 0.0
H529 H 0.47815 0.75147 0.67201 0.0
H530 H 0.38486 0.79608 0.59723 0.0
H531 H 0.54822 0.83701 0.61841 0.0
H532 H 0.44382 0.76806 0.64551 0.0
H533 H 0.48713 0.85962 0.51943 0.0
C534 C 0.4439 0.85191 0.50488 0.0
C535 C 0.4145 0.83371 0.52388 0.0
C536 C 0.46669 0.78342 0.64083 0.0
C537 C 0.4561 0.82138 0.58817 0.0
C538 C 0.48627 0.77395 0.65605 0.0
C539 C 0.51597 0.79302 0.64809 0.0
C540 C 0.47683 0.81205 0.61505 0.0
C541 C 0.52546 0.82183 0.62648 0.0
C542 C 0.46473 0.8459 0.53714 0.0
C543 C 0.40708 0.81028 0.5787 0.0
N544 N 0.50589 0.83043 0.60935 0.0
N545 N 0.42763 0.80465 0.608 0.0
H546 H 0.72358 0.54286 0.95145 0.0
H547 H 0.59336 0.37914 0.92929 0.0
H548 H 0.72735 0.46869 0.04157 0.0
H549 H 0.589 0.44952 0.80981 0.0
H550 H 0.64027 0.41343 0.9872 0.0
H551 H 0.6723 0.5109 0.91513 0.0
C552 C 0.71346 0.51999 0.96499 0.0
C553 C 0.72963 0.5083 0.99921 0.0
C554 C 0.62907 0.42151 0.94873 0.0
C555 C 0.67148 0.4718 0.95764 0.0
C556 C 0.60204 0.40187 0.91606 0.0
C557 C 0.58701 0.41132 0.86438 0.0
C558 C 0.64155 0.45102 0.92955 0.0
C559 C 0.59991 0.44114 0.84832 0.0
C560 C 0.68434 0.50175 0.94378 0.0
C561 C 0.71569 0.47854 1.0148 0.0
N562 N 0.62649 0.45992 0.88044 0.0
N563 N 0.68756 0.46138 0.99365 0.0
loop_
_geom_bond_atom_site_label_1
_geom_bond_atom_site_label_2
_geom_bond_distance
_geom_bond_site_symmetry_2
_ccdc_geom_bond_type
Nd0 C2 2.836 1_554 S
Nd0 O20 2.500 1_554 S
Nd0 O21 2.492 1_554 S
Nd0 O22 2.487 . S
Nd0 O23 2.682 . S
Nd0 O24 2.410 1_554 S
Nd0 O29 2.414 1_554 S
Nd0 O31 2.424 . S
Nd1 C11 2.836 1_556 S
Nd1 O23 2.414 1_556 S
Nd1 O25 2.424 . S
Nd1 O26 2.500 1_556 S
Nd1 O27 2.492 1_556 S
Nd1 O28 2.487 . S
Nd1 O29 2.682 . S
Nd1 O30 2.410 1_556 S
C2 Nd0 2.836 1_556 S
C2 C3 1.498 . S
C2 O20 1.258 . S
C2 O21 1.239 . S
C3 C2 1.498 . S
C3 C4 1.366 . S
C3 C8 1.407 . S
C4 C3 1.366 . S
C4 C5 1.392 . S
C4 H32 0.930 . S
C5 C4 1.392 . S
C5 C6 1.398 . S
C5 H33 0.929 . S
C6 C5 1.398 . S
C6 C7 1.352 . S
C7 C6 1.352 . S
C7 C8 1.384 . S
C7 H34 0.930 . S
C8 C3 1.407 . S
C8 C7 1.384 . S
C8 H35 0.929 . S
C9 O22 1.241 . S
C9 O23 1.273 . S
C10 O24 1.251 . S
C10 O25 1.268 . S
C11 Nd1 2.836 1_554 S
C11 C12 1.498 . S
C11 O26 1.258 . S
C11 O27 1.239 . S
C12 C11 1.498 . S
C12 C13 1.366 . S
C12 C17 1.407 . S
C13 C12 1.366 . S
C13 C14 1.392 . S
C13 H36 0.930 . S
C14 C13 1.392 . S
C14 C15 1.398 . S
C14 H37 0.929 . S
C15 C14 1.398 . S
C15 C16 1.352 . S
C16 C15 1.352 . S
C16 C17 1.384 . S
C16 H38 0.930 . S
C17 C12 1.407 . S
C17 C16 1.384 . S
C17 H39 0.929 . S
C18 O28 1.241 . S
C18 O29 1.273 . S
C19 O30 1.251 . S
C19 O31 1.268 . S
O20 Nd0 2.500 1_556 S
O20 C2 1.258 . S
O21 Nd0 2.492 1_556 S
O21 C2 1.239 . S
O22 Nd0 2.487 . S
O22 C9 1.241 . S
O23 Nd0 2.682 . S
O23 Nd1 2.414 1_554 S
O23 C9 1.273 . S
O24 Nd0 2.410 1_556 S
O24 C10 1.251 . S
O25 Nd1 2.424 . S
O25 C10 1.268 . S
O26 Nd1 2.500 1_554 S
O26 C11 1.258 . S
O27 Nd1 2.492 1_554 S
O27 C11 1.239 . S
O28 Nd1 2.487 . S
O28 C18 1.241 . S
O29 Nd0 2.414 1_556 S
O29 Nd1 2.682 . S
O29 C18 1.273 . S
O30 Nd1 2.410 1_554 S
O30 C19 1.251 . S
O31 Nd0 2.424 . S
O31 C19 1.268 . S
H32 C4 0.930 . S
H33 C5 0.929 . S
H34 C7 0.930 . S
H35 C8 0.929 . S
H36 C13 0.930 . S
H37 C14 0.929 . S
H38 C16 0.930 . S
H39 C17 0.929 . S
Nd40 C42 2.836 . S
Nd40 O60 2.500 . S
Nd40 O61 2.492 . S
Nd40 O62 2.487 . S
Nd40 O63 2.682 . S
Nd40 O64 2.410 . S
Nd40 O69 2.414 . S
Nd40 O71 2.424 . S
Nd41 C51 2.836 . S
Nd41 O63 2.414 . S
Nd41 O65 2.424 . S
Nd41 O66 2.500 . S
Nd41 O67 2.492 . S
Nd41 O68 2.487 . S
Nd41 O69 2.682 . S
Nd41 O70 2.410 . S
C42 Nd40 2.836 . S
C42 C43 1.498 . S
C42 O60 1.258 . S
C42 O61 1.239 . S
C43 C42 1.498 . S
C43 C44 1.366 . S
C43 C48 1.407 . S
C44 C43 1.366 . S
C44 C45 1.392 . S
C44 H72 0.930 . S
C45 C44 1.392 . S
C45 C46 1.398 . S
C45 H73 0.929 . S
C46 C45 1.398 . S
C46 C47 1.352 . S
C47 C46 1.352 . S
C47 C48 1.384 . S
C47 H74 0.930 . S
C48 C43 1.407 . S
C48 C47 1.384 . S
C48 H75 0.929 . S
C49 O62 1.241 . S
C49 O63 1.273 . S
C50 O64 1.251 . S
C50 O65 1.268 . S
C51 Nd41 2.836 . S
C51 C52 1.498 . S
C51 O66 1.258 . S
C51 O67 1.239 . S
C52 C51 1.498 . S
C52 C53 1.366 . S
C52 C57 1.407 . S
C53 C52 1.366 . S
C53 C54 1.392 . S
C53 H76 0.930 . S
C54 C53 1.392 . S
C54 C55 1.398 . S
C54 H77 0.929 . S
C55 C54 1.398 . S
C55 C56 1.352 . S
C56 C55 1.352 . S
C56 C57 1.384 . S
C56 H78 0.930 . S
C57 C52 1.407 . S
C57 C56 1.384 . S
C57 H79 0.929 . S
C58 O68 1.241 . S
C58 O69 1.273 . S
C59 O70 1.251 . S
C59 O71 1.268 . S
O60 Nd40 2.500 . S
O60 C42 1.258 . S
O61 Nd40 2.492 . S
O61 C42 1.239 . S
O62 Nd40 2.487 . S
O62 C49 1.241 . S
O63 Nd40 2.682 . S
O63 Nd41 2.414 . S
O63 C49 1.273 . S
O64 Nd40 2.410 . S
O64 C50 1.251 . S
O65 Nd41 2.424 . S
O65 C50 1.268 . S
O66 Nd41 2.500 . S
O66 C51 1.258 . S
O67 Nd41 2.492 . S
O67 C51 1.239 . S
O68 Nd41 2.487 . S
O68 C58 1.241 . S
O69 Nd40 2.414 . S
O69 Nd41 2.682 . S
O69 C58 1.273 . S
O70 Nd41 2.410 . S
O70 C59 1.251 . S
O71 Nd40 2.424 . S
O71 C59 1.268 . S
H72 C44 0.930 . S
H73 C45 0.929 . S
H74 C47 0.930 . S
H75 C48 0.929 . S
H76 C53 0.930 . S
H77 C54 0.929 . S
H78 C56 0.930 . S
H79 C57 0.929 . S
Nd80 C82 2.836 . S
Nd80 O100 2.500 . S
Nd80 O101 2.492 . S
Nd80 O102 2.487 . S
Nd80 O103 2.682 . S
Nd80 O104 2.410 . S
Nd80 O109 2.414 . S
Nd80 O111 2.424 . S
Nd81 C91 2.836 . S
Nd81 O103 2.414 . S
Nd81 O105 2.424 . S
Nd81 O106 2.500 . S
Nd81 O107 2.492 . S
Nd81 O108 2.487 . S
Nd81 O109 2.682 . S
Nd81 O110 2.410 . S
C82 Nd80 2.836 . S
C82 C83 1.498 . S
C82 O100 1.258 . S
C82 O101 1.239 . S
C83 C82 1.498 . S
C83 C84 1.366 . S
C83 C88 1.407 . S
C84 C83 1.366 . S
C84 C85 1.392 . S
C84 H112 0.930 . S
C85 C84 1.392 . S
C85 C86 1.398 . S
C85 H113 0.929 . S
C86 C85 1.398 . S
C86 C87 1.352 . S
C87 C86 1.352 . S
C87 C88 1.384 . S
C87 H114 0.930 . S
C88 C83 1.407 . S
C88 C87 1.384 . S
C88 H115 0.929 . S
C89 O102 1.241 . S
C89 O103 1.273 . S
C90 O104 1.251 . S
C90 O105 1.268 . S
C91 Nd81 2.836 . S
C91 C92 1.498 . S
C91 O106 1.258 . S
C91 O107 1.239 . S
C92 C91 1.498 . S
C92 C93 1.366 . S
C92 C97 1.407 . S
C93 C92 1.366 . S
C93 C94 1.392 . S
C93 H116 0.930 . S
C94 C93 1.392 . S
C94 C95 1.398 . S
C94 H117 0.929 . S
C95 C94 1.398 . S
C95 C96 1.352 . S
C96 C95 1.352 . S
C96 C97 1.384 . S
C96 H118 0.930 . S
C97 C92 1.407 . S
C97 C96 1.384 . S
C97 H119 0.929 . S
C98 O108 1.241 . S
C98 O109 1.273 . S
C99 O110 1.251 . S
C99 O111 1.268 . S
O100 Nd80 2.500 . S
O100 C82 1.258 . S
O101 Nd80 2.492 . S
O101 C82 1.239 . S
O102 Nd80 2.487 . S
O102 C89 1.241 . S
O103 Nd80 2.682 . S
O103 Nd81 2.414 . S
O103 C89 1.273 . S
O104 Nd80 2.410 . S
O104 C90 1.251 . S
O105 Nd81 2.424 . S
O105 C90 1.268 . S
O106 Nd81 2.500 . S
O106 C91 1.258 . S
O107 Nd81 2.492 . S
O107 C91 1.239 . S
O108 Nd81 2.487 . S
O108 C98 1.241 . S
O109 Nd80 2.414 . S
O109 Nd81 2.682 . S
O109 C98 1.273 . S
O110 Nd81 2.410 . S
O110 C99 1.251 . S
O111 Nd80 2.424 . S
O111 C99 1.268 . S
H112 C84 0.930 . S
H113 C85 0.929 . S
H114 C87 0.930 . S
H115 C88 0.929 . S
H116 C93 0.930 . S
H117 C94 0.929 . S
H118 C96 0.930 . S
H119 C97 0.929 . S
Nd120 C122 2.836 1_554 S
Nd120 O140 2.500 1_554 S
Nd120 O141 2.492 1_554 S
Nd120 O142 2.487 . S
Nd120 O143 2.682 . S
Nd120 O144 2.410 1_554 S
Nd120 O149 2.414 1_554 S
Nd120 O151 2.424 . S
Nd121 C131 2.836 1_556 S
Nd121 O143 2.414 1_556 S
Nd121 O145 2.424 . S
Nd121 O146 2.500 1_556 S
Nd121 O147 2.492 1_556 S
Nd121 O148 2.487 . S
Nd121 O149 2.682 . S
Nd121 O150 2.410 1_556 S
C122 Nd120 2.836 1_556 S
C122 C123 1.498 . S
C122 O140 1.258 . S
C122 O141 1.239 . S
C123 C122 1.498 . S
C123 C124 1.366 . S
C123 C128 1.407 . S
C124 C123 1.366 . S
C124 C125 1.392 . S
C124 H152 0.930 . S
C125 C124 1.392 . S
C125 C126 1.398 . S
C125 H153 0.929 . S
C126 C125 1.398 . S
C126 C127 1.352 . S
C127 C126 1.352 . S
C127 C128 1.384 . S
C127 H154 0.930 . S
C128 C123 1.407 . S
C128 C127 1.384 . S
C128 H155 0.929 . S
C129 O142 1.241 . S
C129 O143 1.273 . S
C130 O144 1.251 . S
C130 O145 1.268 . S
C131 Nd121 2.836 1_554 S
C131 C132 1.498 . S
C131 O146 1.258 . S
C131 O147 1.239 . S
C132 C131 1.498 . S
C132 C133 1.366 . S
C132 C137 1.407 . S
C133 C132 1.366 . S
C133 C134 1.392 . S
C133 H156 0.930 . S
C134 C133 1.392 . S
C134 C135 1.398 . S
C134 H157 0.929 . S
C135 C134 1.398 . S
C135 C136 1.352 . S
C136 C135 1.352 . S
C136 C137 1.384 . S
C136 H158 0.930 . S
C137 C132 1.407 . S
C137 C136 1.384 . S
C137 H159 0.929 . S
C138 O148 1.241 . S
C138 O149 1.273 . S
C139 O150 1.251 . S
C139 O151 1.268 . S
O140 Nd120 2.500 1_556 S
O140 C122 1.258 . S
O141 Nd120 2.492 1_556 S
O141 C122 1.239 . S
O142 Nd120 2.487 . S
O142 C129 1.241 . S
O143 Nd120 2.682 . S
O143 Nd121 2.414 1_554 S
O143 C129 1.273 . S
O144 Nd120 2.410 1_556 S
O144 C130 1.251 . S
O145 Nd121 2.424 . S
O145 C130 1.268 . S
O146 Nd121 2.500 1_554 S
O146 C131 1.258 . S
O147 Nd121 2.492 1_554 S
O147 C131 1.239 . S
O148 Nd121 2.487 . S
O148 C138 1.241 . S
O149 Nd120 2.414 1_556 S
O149 Nd121 2.682 . S
O149 C138 1.273 . S
O150 Nd121 2.410 1_554 S
O150 C139 1.251 . S
O151 Nd120 2.424 . S
O151 C139 1.268 . S
H152 C124 0.930 . S
H153 C125 0.929 . S
H154 C127 0.930 . S
H155 C128 0.929 . S
H156 C133 0.930 . S
H157 C134 0.929 . S
H158 C136 0.930 . S
H159 C137 0.929 . S
Nd160 C162 2.836 . S
Nd160 O180 2.500 . S
Nd160 O181 2.492 . S
Nd160 O182 2.487 . S
Nd160 O183 2.682 . S
Nd160 O184 2.410 . S
Nd160 O189 2.414 . S
Nd160 O191 2.424 . S
Nd161 C171 2.836 . S
Nd161 O183 2.414 . S
Nd161 O185 2.424 . S
Nd161 O186 2.500 . S
Nd161 O187 2.492 . S
Nd161 O188 2.487 . S
Nd161 O189 2.682 . S
Nd161 O190 2.410 . S
C162 Nd160 2.836 . S
C162 C163 1.498 . S
C162 O180 1.258 . S
C162 O181 1.239 . S
C163 C162 1.498 . S
C163 C164 1.366 . S
C163 C168 1.407 . S
C164 C163 1.366 . S
C164 C165 1.392 . S
C164 H192 0.930 . S
C165 C164 1.392 . S
C165 C166 1.398 . S
C165 H193 0.929 . S
C166 C165 1.398 . S
C166 C167 1.352 . S
C167 C166 1.352 . S
C167 C168 1.384 . S
C167 H194 0.930 . S
C168 C163 1.407 . S
C168 C167 1.384 . S
C168 H195 0.929 . S
C169 O182 1.241 . S
C169 O183 1.273 . S
C170 O184 1.251 . S
C170 O185 1.268 . S
C171 Nd161 2.836 . S
C171 C172 1.498 . S
C171 O186 1.258 . S
C171 O187 1.239 . S
C172 C171 1.498 . S
C172 C173 1.366 . S
C172 C177 1.407 . S
C173 C172 1.366 . S
C173 C174 1.392 . S
C173 H196 0.930 . S
C174 C173 1.392 . S
C174 C175 1.398 . S
C174 H197 0.929 . S
C175 C174 1.398 . S
C175 C176 1.352 . S
C176 C175 1.352 . S
C176 C177 1.384 . S
C176 H198 0.930 . S
C177 C172 1.407 . S
C177 C176 1.384 . S
C177 H199 0.929 . S
C178 O188 1.241 . S
C178 O189 1.273 . S
C179 O190 1.251 . S
C179 O191 1.268 . S
O180 Nd160 2.500 . S
O180 C162 1.258 . S
O181 Nd160 2.492 . S
O181 C162 1.239 . S
O182 Nd160 2.487 . S
O182 C169 1.241 . S
O183 Nd160 2.682 . S
O183 Nd161 2.414 . S
O183 C169 1.273 . S
O184 Nd160 2.410 . S
O184 C170 1.251 . S
O185 Nd161 2.424 . S
O185 C170 1.268 . S
O186 Nd161 2.500 . S
O186 C171 1.258 . S
O187 Nd161 2.492 . S
O187 C171 1.239 . S
O188 Nd161 2.487 . S
O188 C178 1.241 . S
O189 Nd160 2.414 . S
O189 Nd161 2.682 . S
O189 C178 1.273 . S
O190 Nd161 2.410 . S
O190 C179 1.251 . S
O191 Nd160 2.424 . S
O191 C179 1.268 . S
H192 C164 0.930 . S
H193 C165 0.929 . S
H194 C167 0.930 . S
H195 C168 0.929 . S
H196 C173 0.930 . S
H197 C174 0.929 . S
H198 C176 0.930 . S
H199 C177 0.929 . S
Nd200 C202 2.836 . S
Nd200 O220 2.500 . S
Nd200 O221 2.492 . S
Nd200 O222 2.487 . S
Nd200 O223 2.682 . S
Nd200 O224 2.410 . S
Nd200 O229 2.414 . S
Nd200 O231 2.424 . S
Nd201 C211 2.836 . S
Nd201 O223 2.414 . S
Nd201 O225 2.424 . S
Nd201 O226 2.500 . S
Nd201 O227 2.492 . S
Nd201 O228 2.487 . S
Nd201 O229 2.682 . S
Nd201 O230 2.410 . S
C202 Nd200 2.836 . S
C202 C203 1.498 . S
C202 O220 1.258 . S
C202 O221 1.239 . S
C203 C202 1.498 . S
C203 C204 1.366 . S
C203 C208 1.407 . S
C204 C203 1.366 . S
C204 C205 1.392 . S
C204 H232 0.930 . S
C205 C204 1.392 . S
C205 C206 1.398 . S
C205 H233 0.929 . S
C206 C205 1.398 . S
C206 C207 1.352 . S
C207 C206 1.352 . S
C207 C208 1.384 . S
C207 H234 0.930 . S
C208 C203 1.407 . S
C208 C207 1.384 . S
C208 H235 0.929 . S
C209 O222 1.241 . S
C209 O223 1.273 . S
C210 O224 1.251 . S
C210 O225 1.268 . S
C211 Nd201 2.836 . S
C211 C212 1.498 . S
C211 O226 1.258 . S
C211 O227 1.239 . S
C212 C211 1.498 . S
C212 C213 1.366 . S
C212 C217 1.407 . S
C213 C212 1.366 . S
C213 C214 1.392 . S
C213 H236 0.930 . S
C214 C213 1.392 . S
C214 C215 1.398 . S
C214 H237 0.929 . S
C215 C214 1.398 . S
C215 C216 1.352 . S
C216 C215 1.352 . S
C216 C217 1.384 . S
C216 H238 0.930 . S
C217 C212 1.407 . S
C217 C216 1.384 . S
C217 H239 0.929 . S
C218 O228 1.241 . S
C218 O229 1.273 . S
C219 O230 1.251 . S
C219 O231 1.268 . S
O220 Nd200 2.500 . S
O220 C202 1.258 . S
O221 Nd200 2.492 . S
O221 C202 1.239 . S
O222 Nd200 2.487 . S
O222 C209 1.241 . S
O223 Nd200 2.682 . S
O223 Nd201 2.414 . S
O223 C209 1.273 . S
O224 Nd200 2.410 . S
O224 C210 1.251 . S
O225 Nd201 2.424 . S
O225 C210 1.268 . S
O226 Nd201 2.500 . S
O226 C211 1.258 . S
O227 Nd201 2.492 . S
O227 C211 1.239 . S
O228 Nd201 2.487 . S
O228 C218 1.241 . S
O229 Nd200 2.414 . S
O229 Nd201 2.682 . S
O229 C218 1.273 . S
O230 Nd201 2.410 . S
O230 C219 1.251 . S
O231 Nd200 2.424 . S
O231 C219 1.268 . S
H232 C204 0.930 . S
H233 C205 0.929 . S
H234 C207 0.930 . S
H235 C208 0.929 . S
H236 C213 0.930 . S
H237 C214 0.929 . S
H238 C216 0.930 . S
H239 C217 0.929 . S
H240 C246 0.930 . S
H241 C250 0.930 . S
H242 C255 0.929 . S
H243 C253 0.929 . S
H244 C248 0.929 . S
H245 C254 0.929 . S
C246 H240 0.930 . S
C246 C247 1.367 . S
C246 C254 1.378 . S
C247 C246 1.367 . S
C247 C255 1.433 . S
C248 H244 0.929 . S
C248 C250 1.378 . S
C248 C252 1.350 . S
C249 C252 1.463 . S
C249 C254 1.350 . S
C249 N257 1.427 . S
C250 H241 0.930 . S
C250 C248 1.378 . S
C250 C251 1.367 . S
C251 C250 1.367 . S
C251 C253 1.433 . S
C252 C248 1.350 . S
C252 C249 1.463 . S
C252 N256 1.427 . S
C253 H243 0.929 . S
C253 C251 1.433 . S
C253 N256 1.384 . S
C254 H245 0.929 . S
C254 C246 1.378 . S
C254 C249 1.350 . S
C255 H242 0.929 . S
C255 C247 1.433 . S
C255 N257 1.384 . S
N256 C252 1.427 . S
N256 C253 1.384 . S
N257 C249 1.427 . S
N257 C255 1.384 . S
H258 C264 0.930 . S
H259 C268 0.930 1_556 S
H260 C273 0.929 . S
H261 C271 0.929 . S
H262 C266 0.929 . S
H263 C272 0.929 . S
C264 H258 0.930 . S
C264 C265 1.367 . S
C264 C272 1.378 . S
C265 C264 1.367 . S
C265 C273 1.433 1_554 S
C266 H262 0.929 . S
C266 C268 1.378 1_456 S
C266 C270 1.350 1_556 S
C267 C270 1.463 . S
C267 C272 1.350 . S
C267 N275 1.427 1_554 S
C268 H259 0.930 1_554 S
C268 C266 1.378 1_654 S
C268 C269 1.367 . S
C269 C268 1.367 . S
C269 C271 1.433 . S
C270 C266 1.350 1_554 S
C270 C267 1.463 . S
C270 N274 1.427 . S
C271 H261 0.929 . S
C271 C269 1.433 . S
C271 N274 1.384 1_655 S
C272 H263 0.929 . S
C272 C264 1.378 . S
C272 C267 1.350 . S
C273 H260 0.929 . S
C273 C265 1.433 1_556 S
C273 N275 1.384 . S
N274 C270 1.427 . S
N274 C271 1.384 1_455 S
N275 C267 1.427 1_556 S
N275 C273 1.384 . S
H276 C282 0.930 . S
H277 C286 0.930 . S
H278 C291 0.929 . S
H279 C289 0.929 . S
H280 C284 0.929 . S
H281 C290 0.929 . S
C282 H276 0.930 . S
C282 C283 1.367 . S
C282 C290 1.378 . S
C283 C282 1.367 . S
C283 C291 1.433 . S
C284 H280 0.929 . S
C284 C286 1.378 1_545 S
C284 C288 1.350 . S
C285 C288 1.463 . S
C285 C290 1.350 . S
C285 N293 1.427 . S
C286 H277 0.930 . S
C286 C284 1.378 1_565 S
C286 C287 1.367 . S
C287 C286 1.367 . S
C287 C289 1.433 . S
C288 C284 1.350 . S
C288 C285 1.463 . S
C288 N292 1.427 . S
C289 H279 0.929 . S
C289 C287 1.433 . S
C289 N292 1.384 1_565 S
C290 H281 0.929 . S
C290 C282 1.378 . S
C290 C285 1.350 . S
C291 H278 0.929 . S
C291 C283 1.433 . S
C291 N293 1.384 . S
N292 C288 1.427 . S
N292 C289 1.384 1_545 S
N293 C285 1.427 . S
N293 C291 1.384 . S
H294 C300 0.930 . S
H295 C304 0.930 . S
H296 C309 0.929 . S
H297 C307 0.929 . S
H298 C302 0.929 . S
H299 C308 0.929 . S
C300 H294 0.930 . S
C300 C301 1.367 . S
C300 C308 1.378 . S
C301 C300 1.367 . S
C301 C309 1.433 . S
C302 H298 0.929 . S
C302 C304 1.378 . S
C302 C306 1.350 . S
C303 C306 1.463 . S
C303 C308 1.350 . S
C303 N311 1.427 . S
C304 H295 0.930 . S
C304 C302 1.378 . S
C304 C305 1.367 . S
C305 C304 1.367 . S
C305 C307 1.433 . S
C306 C302 1.350 . S
C306 C303 1.463 . S
C306 N310 1.427 . S
C307 H297 0.929 . S
C307 C305 1.433 . S
C307 N310 1.384 . S
C308 H299 0.929 . S
C308 C300 1.378 . S
C308 C303 1.350 . S
C309 H296 0.929 . S
C309 C301 1.433 . S
C309 N311 1.384 . S
N310 C306 1.427 . S
N310 C307 1.384 . S
N311 C303 1.427 . S
N311 C309 1.384 . S
H312 C318 0.930 . S
H313 C322 0.930 . S
H314 C327 0.929 1_556 S
H315 C325 0.929 . S
H316 C320 0.929 . S
H317 C326 0.929 . S
C318 H312 0.930 . S
C318 C319 1.367 . S
C318 C326 1.378 1_455 S
C319 C318 1.367 . S
C319 C327 1.433 . S
C320 H316 0.929 . S
C320 C322 1.378 . S
C320 C324 1.350 1_556 S
C321 C324 1.463 . S
C321 C326 1.350 . S
C321 N329 1.427 . S
C322 H313 0.930 . S
C322 C320 1.378 . S
C322 C323 1.367 1_556 S
C323 C322 1.367 1_554 S
C323 C325 1.433 . S
C324 C320 1.350 1_554 S
C324 C321 1.463 . S
C324 N328 1.427 . S
C325 H315 0.929 . S
C325 C323 1.433 . S
C325 N328 1.384 . S
C326 H317 0.929 . S
C326 C318 1.378 1_655 S
C326 C321 1.350 . S
C327 H314 0.929 1_554 S
C327 C319 1.433 . S
C327 N329 1.384 1_455 S
N328 C324 1.427 . S
N328 C325 1.384 . S
N329 C321 1.427 . S
N329 C327 1.384 1_655 S
H330 C336 0.930 . S
H331 C340 0.930 . S
H332 C345 0.929 . S
H333 C343 0.929 . S
H334 C338 0.929 . S
H335 C344 0.929 . S
C336 H330 0.930 . S
C336 C337 1.367 . S
C336 C344 1.378 1_545 S
C337 C336 1.367 . S
C337 C345 1.433 . S
C338 H334 0.929 . S
C338 C340 1.378 . S
C338 C342 1.350 . S
C339 C342 1.463 . S
C339 C344 1.350 . S
C339 N347 1.427 . S
C340 H331 0.930 . S
C340 C338 1.378 . S
C340 C341 1.367 . S
C341 C340 1.367 . S
C341 C343 1.433 . S
C342 C338 1.350 . S
C342 C339 1.463 . S
C342 N346 1.427 . S
C343 H333 0.929 . S
C343 C341 1.433 . S
C343 N346 1.384 . S
C344 H335 0.929 . S
C344 C336 1.378 1_565 S
C344 C339 1.350 . S
C345 H332 0.929 . S
C345 C337 1.433 . S
C345 N347 1.384 1_545 S
N346 C342 1.427 . S
N346 C343 1.384 . S
N347 C339 1.427 . S
N347 C345 1.384 1_565 S
H348 C354 0.930 . S
H349 C358 0.930 . S
H350 C363 0.929 . S
H351 C361 0.929 . S
H352 C356 0.929 . S
H353 C362 0.929 . S
C354 H348 0.930 . S
C354 C355 1.367 . S
C354 C362 1.378 . S
C355 C354 1.367 . S
C355 C363 1.433 . S
C356 H352 0.929 . S
C356 C358 1.378 . S
C356 C360 1.350 . S
C357 C360 1.463 . S
C357 C362 1.350 . S
C357 N365 1.427 . S
C358 H349 0.930 . S
C358 C356 1.378 . S
C358 C359 1.367 . S
C359 C358 1.367 . S
C359 C361 1.433 . S
C360 C356 1.350 . S
C360 C357 1.463 . S
C360 N364 1.427 . S
C361 H351 0.929 . S
C361 C359 1.433 . S
C361 N364 1.384 . S
C362 H353 0.929 . S
C362 C354 1.378 . S
C362 C357 1.350 . S
C363 H350 0.929 . S
C363 C355 1.433 . S
C363 N365 1.384 . S
N364 C360 1.427 . S
N364 C361 1.384 . S
N365 C357 1.427 . S
N365 C363 1.384 . S
H366 C372 0.930 . S
H367 C376 0.930 . S
H368 C381 0.929 1_554 S
H369 C379 0.929 . S
H370 C374 0.929 . S
H371 C380 0.929 . S
C372 H366 0.930 . S
C372 C373 1.367 . S
C372 C380 1.378 1_554 S
C373 C372 1.367 . S
C373 C381 1.433 1_554 S
C374 H370 0.929 . S
C374 C376 1.378 . S
C374 C378 1.350 . S
C375 C378 1.463 . S
C375 C380 1.350 . S
C375 N383 1.427 . S
C376 H367 0.930 . S
C376 C374 1.378 . S
C376 C377 1.367 . S
C377 C376 1.367 . S
C377 C379 1.433 . S
C378 C374 1.350 . S
C378 C375 1.463 . S
C378 N382 1.427 . S
C379 H369 0.929 . S
C379 C377 1.433 . S
C379 N382 1.384 . S
C380 H371 0.929 . S
C380 C372 1.378 1_556 S
C380 C375 1.350 . S
C381 H368 0.929 1_556 S
C381 C373 1.433 1_556 S
C381 N383 1.384 . S
N382 C378 1.427 . S
N382 C379 1.384 . S
N383 C375 1.427 . S
N383 C381 1.384 . S
H384 C390 0.930 . S
H385 C394 0.930 . S
H386 C399 0.929 . S
H387 C397 0.929 1_556 S
H388 C392 0.929 . S
H389 C398 0.929 . S
C390 H384 0.930 . S
C390 C391 1.367 . S
C390 C398 1.378 . S
C391 C390 1.367 . S
C391 C399 1.433 . S
C392 H388 0.929 . S
C392 C394 1.378 1_554 S
C392 C396 1.350 . S
C393 C396 1.463 . S
C393 C398 1.350 . S
C393 N401 1.427 . S
C394 H385 0.930 . S
C394 C392 1.378 1_556 S
C394 C395 1.367 . S
C395 C394 1.367 . S
C395 C397 1.433 1_556 S
C396 C392 1.350 . S
C396 C393 1.463 . S
C396 N400 1.427 . S
C397 H387 0.929 1_554 S
C397 C395 1.433 1_554 S
C397 N400 1.384 . S
C398 H389 0.929 . S
C398 C390 1.378 . S
C398 C393 1.350 . S
C399 H386 0.929 . S
C399 C391 1.433 . S
C399 N401 1.384 . S
N400 C396 1.427 . S
N400 C397 1.384 . S
N401 C393 1.427 . S
N401 C399 1.384 . S
H402 C408 0.930 . S
H403 C412 0.930 . S
H404 C417 0.929 . S
H405 C415 0.929 . S
H406 C410 0.929 . S
H407 C416 0.929 . S
C408 H402 0.930 . S
C408 C409 1.367 . S
C408 C416 1.378 . S
C409 C408 1.367 . S
C409 C417 1.433 . S
C410 H406 0.929 . S
C410 C412 1.378 . S
C410 C414 1.350 . S
C411 C414 1.463 . S
C411 C416 1.350 . S
C411 N419 1.427 . S
C412 H403 0.930 . S
C412 C410 1.378 . S
C412 C413 1.367 . S
C413 C412 1.367 . S
C413 C415 1.433 . S
C414 C410 1.350 . S
C414 C411 1.463 . S
C414 N418 1.427 . S
C415 H405 0.929 . S
C415 C413 1.433 . S
C415 N418 1.384 . S
C416 H407 0.929 . S
C416 C408 1.378 . S
C416 C411 1.350 . S
C417 H404 0.929 . S
C417 C409 1.433 . S
C417 N419 1.384 . S
N418 C414 1.427 . S
N418 C415 1.384 . S
N419 C411 1.427 . S
N419 C417 1.384 . S
H420 C426 0.930 . S
H421 C430 0.930 1_554 S
H422 C435 0.929 . S
H423 C433 0.929 . S
H424 C428 0.929 . S
H425 C434 0.929 . S
C426 H420 0.930 . S
C426 C427 1.367 . S
C426 C434 1.378 . S
C427 C426 1.367 . S
C427 C435 1.433 . S
C428 H424 0.929 . S
C428 C430 1.378 . S
C428 C432 1.350 . S
C429 C432 1.463 . S
C429 C434 1.350 . S
C429 N437 1.427 . S
C430 H421 0.930 1_556 S
C430 C428 1.378 . S
C430 C431 1.367 1_556 S
C431 C430 1.367 1_554 S
C431 C433 1.433 . S
C432 C428 1.350 . S
C432 C429 1.463 . S
C432 N436 1.427 . S
C433 H423 0.929 . S
C433 C431 1.433 . S
C433 N436 1.384 1_554 S
C434 H425 0.929 . S
C434 C426 1.378 . S
C434 C429 1.350 . S
C435 H422 0.929 . S
C435 C427 1.433 . S
C435 N437 1.384 . S
N436 C432 1.427 . S
N436 C433 1.384 1_556 S
N437 C429 1.427 . S
N437 C435 1.384 . S
H438 C444 0.930 . S
H439 C448 0.930 . S
H440 C453 0.929 . S
H441 C451 0.929 1_556 S
H442 C446 0.929 . S
H443 C452 0.929 . S
C444 H438 0.930 . S
C444 C445 1.367 . S
C444 C452 1.378 . S
C445 C444 1.367 . S
C445 C453 1.433 . S
C446 H442 0.929 . S
C446 C448 1.378 1_554 S
C446 C450 1.350 . S
C447 C450 1.463 . S
C447 C452 1.350 . S
C447 N455 1.427 . S
C448 H439 0.930 . S
C448 C446 1.378 1_556 S
C448 C449 1.367 . S
C449 C448 1.367 . S
C449 C451 1.433 1_556 S
C450 C446 1.350 . S
C450 C447 1.463 . S
C450 N454 1.427 . S
C451 H441 0.929 1_554 S
C451 C449 1.433 1_554 S
C451 N454 1.384 . S
C452 H443 0.929 . S
C452 C444 1.378 . S
C452 C447 1.350 . S
C453 H440 0.929 . S
C453 C445 1.433 . S
C453 N455 1.384 . S
N454 C450 1.427 . S
N454 C451 1.384 . S
N455 C447 1.427 . S
N455 C453 1.384 . S
H456 C462 0.930 . S
H457 C466 0.930 . S
H458 C471 0.929 . S
H459 C469 0.929 . S
H460 C464 0.929 . S
H461 C470 0.929 . S
C462 H456 0.930 . S
C462 C463 1.367 . S
C462 C470 1.378 . S
C463 C462 1.367 . S
C463 C471 1.433 . S
C464 H460 0.929 . S
C464 C466 1.378 . S
C464 C468 1.350 . S
C465 C468 1.463 . S
C465 C470 1.350 . S
C465 N473 1.427 . S
C466 H457 0.930 . S
C466 C464 1.378 . S
C466 C467 1.367 . S
C467 C466 1.367 . S
C467 C469 1.433 . S
C468 C464 1.350 . S
C468 C465 1.463 . S
C468 N472 1.427 . S
C469 H459 0.929 . S
C469 C467 1.433 . S
C469 N472 1.384 . S
C470 H461 0.929 . S
C470 C462 1.378 . S
C470 C465 1.350 . S
C471 H458 0.929 . S
C471 C463 1.433 . S
C471 N473 1.384 . S
N472 C468 1.427 . S
N472 C469 1.384 . S
N473 C465 1.427 . S
N473 C471 1.384 . S
H474 C480 0.930 . S
H475 C484 0.930 . S
H476 C489 0.929 . S
H477 C487 0.929 . S
H478 C482 0.929 . S
H479 C488 0.929 . S
C480 H474 0.930 . S
C480 C481 1.367 . S
C480 C488 1.378 . S
C481 C480 1.367 . S
C481 C489 1.433 . S
C482 H478 0.929 . S
C482 C484 1.378 . S
C482 C486 1.350 . S
C483 C486 1.463 . S
C483 C488 1.350 . S
C483 N491 1.427 . S
C484 H475 0.930 . S
C484 C482 1.378 . S
C484 C485 1.367 . S
C485 C484 1.367 . S
C485 C487 1.433 . S
C486 C482 1.350 . S
C486 C483 1.463 . S
C486 N490 1.427 . S
C487 H477 0.929 . S
C487 C485 1.433 . S
C487 N490 1.384 . S
C488 H479 0.929 . S
C488 C480 1.378 . S
C488 C483 1.350 . S
C489 H476 0.929 . S
C489 C481 1.433 . S
C489 N491 1.384 . S
N490 C486 1.427 . S
N490 C487 1.384 . S
N491 C483 1.427 . S
N491 C489 1.384 . S
H492 C498 0.930 . S
H493 C502 0.930 1_554 S
H494 C507 0.929 . S
H495 C505 0.929 . S
H496 C500 0.929 . S
H497 C506 0.929 . S
C498 H492 0.930 . S
C498 C499 1.367 . S
C498 C506 1.378 . S
C499 C498 1.367 . S
C499 C507 1.433 1_556 S
C500 H496 0.929 . S
C500 C502 1.378 1_554 S
C500 C504 1.350 1_554 S
C501 C504 1.463 . S
C501 C506 1.350 . S
C501 N509 1.427 1_556 S
C502 H493 0.930 1_556 S
C502 C500 1.378 1_556 S
C502 C503 1.367 . S
C503 C502 1.367 . S
C503 C505 1.433 . S
C504 C500 1.350 1_556 S
C504 C501 1.463 . S
C504 N508 1.427 . S
C505 H495 0.929 . S
C505 C503 1.433 . S
C505 N508 1.384 . S
C506 H497 0.929 . S
C506 C498 1.378 . S
C506 C501 1.350 . S
C507 H494 0.929 . S
C507 C499 1.433 1_554 S
C507 N509 1.384 . S
N508 C504 1.427 . S
N508 C505 1.384 . S
N509 C501 1.427 1_554 S
N509 C507 1.384 . S
H510 C516 0.930 . S
H511 C520 0.930 . S
H512 C525 0.929 . S
H513 C523 0.929 . S
H514 C518 0.929 . S
H515 C524 0.929 . S
C516 H510 0.930 . S
C516 C517 1.367 . S
C516 C524 1.378 . S
C517 C516 1.367 . S
C517 C525 1.433 . S
C518 H514 0.929 . S
C518 C520 1.378 . S
C518 C522 1.350 . S
C519 C522 1.463 . S
C519 C524 1.350 . S
C519 N527 1.427 . S
C520 H511 0.930 . S
C520 C518 1.378 . S
C520 C521 1.367 . S
C521 C520 1.367 . S
C521 C523 1.433 . S
C522 C518 1.350 . S
C522 C519 1.463 . S
C522 N526 1.427 . S
C523 H513 0.929 . S
C523 C521 1.433 . S
C523 N526 1.384 . S
C524 H515 0.929 . S
C524 C516 1.378 . S
C524 C519 1.350 . S
C525 H512 0.929 . S
C525 C517 1.433 . S
C525 N527 1.384 . S
N526 C522 1.427 . S
N526 C523 1.384 . S
N527 C519 1.427 . S
N527 C525 1.384 . S
H528 C534 0.930 . S
H529 C538 0.930 . S
H530 C543 0.929 . S
H531 C541 0.929 . S
H532 C536 0.929 . S
H533 C542 0.929 . S
C534 H528 0.930 . S
C534 C535 1.367 . S
C534 C542 1.378 . S
C535 C534 1.367 . S
C535 C543 1.433 . S
C536 H532 0.929 . S
C536 C538 1.378 . S
C536 C540 1.350 . S
C537 C540 1.463 . S
C537 C542 1.350 . S
C537 N545 1.427 . S
C538 H529 0.930 . S
C538 C536 1.378 . S
C538 C539 1.367 . S
C539 C538 1.367 . S
C539 C541 1.433 . S
C540 C536 1.350 . S
C540 C537 1.463 . S
C540 N544 1.427 . S
C541 H531 0.929 . S
C541 C539 1.433 . S
C541 N544 1.384 . S
C542 H533 0.929 . S
C542 C534 1.378 . S
C542 C537 1.350 . S
C543 H530 0.929 . S
C543 C535 1.433 . S
C543 N545 1.384 . S
N544 C540 1.427 . S
N544 C541 1.384 . S
N545 C537 1.427 . S
N545 C543 1.384 . S
H546 C552 0.930 . S
H547 C556 0.930 . S
H548 C561 0.929 . S
H549 C559 0.929 . S
H550 C554 0.929 . S
H551 C560 0.929 . S
C552 H546 0.930 . S
C552 C553 1.367 . S
C552 C560 1.378 . S
C553 C552 1.367 . S
C553 C561 1.433 1_556 S
C554 H550 0.929 . S
C554 C556 1.378 . S
C554 C558 1.350 1_554 S
C555 C558 1.463 . S
C555 C560 1.350 . S
C555 N563 1.427 1_556 S
C556 H547 0.930 . S
C556 C554 1.378 . S
C556 C557 1.367 1_554 S
C557 C556 1.367 1_556 S
C557 C559 1.433 . S
C558 C554 1.350 1_556 S
C558 C555 1.463 . S
C558 N562 1.427 . S
C559 H549 0.929 . S
C559 C557 1.433 . S
C559 N562 1.384 . S
C560 H551 0.929 . S
C560 C552 1.378 . S
C560 C555 1.350 . S
C561 H548 0.929 . S
C561 C553 1.433 1_554 S
C561 N563 1.384 . S
N562 C558 1.427 . S
N562 C559 1.384 . S
N563 C555 1.427 1_554 S
N563 C561 1.384 . S
C247 C209 1.687 . S
C251 C6 1.648 . S
C265 C9 1.691 . S
C269 C46 1.653 . S
C283 C49 1.690 . S
C287 C86 1.653 . S
C301 C89 1.687 . S
C305 C126 1.648 . S
C319 C166 1.639 . S
C323 C129 1.686 . S
C337 C206 1.644 . S
C341 C169 1.691 . S
C355 C10 2.101 . S
C359 C19 2.101 . S
C373 C50 2.098 . S
C377 C59 2.098 . S
C391 C90 2.097 . S
C395 C99 2.097 . S
C409 C130 2.097 . S
C413 C139 2.097 . S
C427 C179 2.102 . S
C431 C170 2.102 . S
C445 C210 2.098 . S
C449 C219 2.098 . S
C463 C15 1.593 . S
C467 C178 1.587 . S
C481 C55 1.592 . S
C485 C218 1.593 . S
C499 C18 1.590 . S
C503 C95 1.593 . S
C517 C58 1.589 . S
C521 C135 1.594 . S
C535 C175 1.585 . S
C539 C98 1.586 . S
C553 C138 1.596 . S
C557 C215 1.591 . S
