# Generated by pormake.
# Topology wiu, (6)-cn, num edge types: 1
# Building blocks:
#     Node 0, Type 0, BuildingBlock: GEDQOX_clean_sbu_0, # of connection points: 6
#     Node 1, Type 0, BuildingBlock: GEDQOX_clean_sbu_0, # of connection points: 6
#     Node 2, Type 0, BuildingBlock: GEDQOX_clean_sbu_0, # of connection points: 6
#     Node 3, Type 0, BuildingBlock: GEDQOX_clean_sbu_0, # of connection points: 6
#     Node 4, Type 0, BuildingBlock: GEDQOX_clean_sbu_0, # of connection points: 6
#     Node 5, Type 0, BuildingBlock: GEDQOX_clean_sbu_0, # of connection points: 6
#     Node 6, Type 0, BuildingBlock: GEDQOX_clean_sbu_0, # of connection points: 6
#     Node 7, Type 0, BuildingBlock: GEDQOX_clean_sbu_0, # of connection points: 6
#     Node 8, Type 0, BuildingBlock: GEDQOX_clean_sbu_0, # of connection points: 6
#     Node 9, Type 0, BuildingBlock: GEDQOX_clean_sbu_0, # of connection points: 6
#     Node 10, Type 0, BuildingBlock: GEDQOX_clean_sbu_0, # of connection points: 6
#     Node 11, Type 0, BuildingBlock: GEDQOX_clean_sbu_0, # of connection points: 6
#     Node 12, Type 0, BuildingBlock: GEDQOX_clean_sbu_0, # of connection points: 6
#     Node 13, Type 0, BuildingBlock: GEDQOX_clean_sbu_0, # of connection points: 6
#     Node 14, Type 0, BuildingBlock: GEDQOX_clean_sbu_0, # of connection points: 6
#     Node 15, Type 0, BuildingBlock: GEDQOX_clean_sbu_0, # of connection points: 6
#     Edge 16, Type (0, 0), BuildingBlock: OJICUG_clean_linker_0, # of connection points: 2
#     Edge 17, Type (0, 0), BuildingBlock: OJICUG_clean_linker_0, # of connection points: 2
#     Edge 18, Type (0, 0), BuildingBlock: OJICUG_clean_linker_0, # of connection points: 2
#     Edge 19, Type (0, 0), BuildingBlock: OJICUG_clean_linker_0, # of connection points: 2
#     Edge 20, Type (0, 0), BuildingBlock: OJICUG_clean_linker_0, # of connection points: 2
#     Edge 21, Type (0, 0), BuildingBlock: OJICUG_clean_linker_0, # of connection points: 2
#     Edge 22, Type (0, 0), BuildingBlock: OJICUG_clean_linker_0, # of connection points: 2
#     Edge 23, Type (0, 0), BuildingBlock: OJICUG_clean_linker_0, # of connection points: 2
#     Edge 24, Type (0, 0), BuildingBlock: OJICUG_clean_linker_0, # of connection points: 2
#     Edge 25, Type (0, 0), BuildingBlock: OJICUG_clean_linker_0, # of connection points: 2
#     Edge 26, Type (0, 0), BuildingBlock: OJICUG_clean_linker_0, # of connection points: 2
#     Edge 27, Type (0, 0), BuildingBlock: OJICUG_clean_linker_0, # of connection points: 2
#     Edge 28, Type (0, 0), BuildingBlock: OJICUG_clean_linker_0, # of connection points: 2
#     Edge 29, Type (0, 0), BuildingBlock: OJICUG_clean_linker_0, # of connection points: 2
#     Edge 30, Type (0, 0), BuildingBlock: OJICUG_clean_linker_0, # of connection points: 2
#     Edge 31, Type (0, 0), BuildingBlock: OJICUG_clean_linker_0, # of connection points: 2
#     Edge 32, Type (0, 0), BuildingBlock: OJICUG_clean_linker_0, # of connection points: 2
#     Edge 33, Type (0, 0), BuildingBlock: OJICUG_clean_linker_0, # of connection points: 2
#     Edge 34, Type (0, 0), BuildingBlock: OJICUG_clean_linker_0, # of connection points: 2
#     Edge 35, Type (0, 0), BuildingBlock: OJICUG_clean_linker_0, # of connection points: 2
#     Edge 36, Type (0, 0), BuildingBlock: OJICUG_clean_linker_0, # of connection points: 2
#     Edge 37, Type (0, 0), BuildingBlock: OJICUG_clean_linker_0, # of connection points: 2
#     Edge 38, Type (0, 0), BuildingBlock: OJICUG_clean_linker_0, # of connection points: 2
#     Edge 39, Type (0, 0), BuildingBlock: OJICUG_clean_linker_0, # of connection points: 2
#     Edge 40, Type (0, 0), BuildingBlock: OJICUG_clean_linker_0, # of connection points: 2
#     Edge 41, Type (0, 0), BuildingBlock: OJICUG_clean_linker_0, # of connection points: 2
#     Edge 42, Type (0, 0), BuildingBlock: OJICUG_clean_linker_0, # of connection points: 2
#     Edge 43, Type (0, 0), BuildingBlock: OJICUG_clean_linker_0, # of connection points: 2
#     Edge 44, Type (0, 0), BuildingBlock: OJICUG_clean_linker_0, # of connection points: 2
#     Edge 45, Type (0, 0), BuildingBlock: OJICUG_clean_linker_0, # of connection points: 2
#     Edge 46, Type (0, 0), BuildingBlock: OJICUG_clean_linker_0, # of connection points: 2
#     Edge 47, Type (0, 0), BuildingBlock: OJICUG_clean_linker_0, # of connection points: 2
#     Edge 48, Type (0, 0), BuildingBlock: OJICUG_clean_linker_0, # of connection points: 2
#     Edge 49, Type (0, 0), BuildingBlock: OJICUG_clean_linker_0, # of connection points: 2
#     Edge 50, Type (0, 0), BuildingBlock: OJICUG_clean_linker_0, # of connection points: 2
#     Edge 51, Type (0, 0), BuildingBlock: OJICUG_clean_linker_0, # of connection points: 2
#     Edge 52, Type (0, 0), BuildingBlock: OJICUG_clean_linker_0, # of connection points: 2
#     Edge 53, Type (0, 0), BuildingBlock: OJICUG_clean_linker_0, # of connection points: 2
#     Edge 54, Type (0, 0), BuildingBlock: OJICUG_clean_linker_0, # of connection points: 2
#     Edge 55, Type (0, 0), BuildingBlock: OJICUG_clean_linker_0, # of connection points: 2
#     Edge 56, Type (0, 0), BuildingBlock: OJICUG_clean_linker_0, # of connection points: 2
#     Edge 57, Type (0, 0), BuildingBlock: OJICUG_clean_linker_0, # of connection points: 2
#     Edge 58, Type (0, 0), BuildingBlock: OJICUG_clean_linker_0, # of connection points: 2
#     Edge 59, Type (0, 0), BuildingBlock: OJICUG_clean_linker_0, # of connection points: 2
#     Edge 60, Type (0, 0), BuildingBlock: OJICUG_clean_linker_0, # of connection points: 2
#     Edge 61, Type (0, 0), BuildingBlock: OJICUG_clean_linker_0, # of connection points: 2
#     Edge 62, Type (0, 0), BuildingBlock: OJICUG_clean_linker_0, # of connection points: 2
#     Edge 63, Type (0, 0), BuildingBlock: OJICUG_clean_linker_0, # of connection points: 2
# Relax obj value: 0.275
# Max RMSD: 0.341
# Mean RMSD: 0.279
data_MOF--net-wiu--node1-GEDQOX_clean_sbu_0--edge1-OJICUG_clean_linker_0
_symmetry_space_group_name_H-M    P1
_symmetry_Int_Tables_number       1
_symmetry_cell_setting            triclinic
loop_
_symmetry_equiv_pos_as_xyz
'x, y, z'
_cell_length_a     22.318669
_cell_length_b     21.039203
_cell_length_c     71.17263
_cell_angle_alpha  74.280044
_cell_angle_beta   76.152496
_cell_angle_gamma 72.647092
loop_
_atom_site_label
_atom_site_type_symbol
_atom_site_fract_x
_atom_site_fract_y
_atom_site_fract_z
_atom_type_partial_charge
Nd0 Nd 0.37713 0.00315 0.12982 0.0
Nd1 Nd 0.28381 0.09094 0.10495 0.0
C2 C 0.42377 0.95273 0.16438 0.0
C3 C 0.41284 -0.0299 0.18514 0.0
C4 C 0.35913 0.96221 0.20007 0.0
C5 C 0.35176 -0.02367 0.21924 0.0
C6 C 0.3979 -0.00126 0.22503 0.0
C7 C 0.45137 0.00705 0.20984 0.0
C8 C 0.45845 -0.00671 0.19065 0.0
C9 C 0.42871 0.09365 0.10101 0.0
C10 C 0.28224 0.14157 0.14505 0.0
C11 C 0.205 0.18674 0.08348 0.0
C12 C 0.18871 0.19446 0.064 0.0
C13 C 0.23601 0.19258 0.04695 0.0
C14 C 0.2208 0.19383 1.02895 0.0
C15 C 0.15826 0.19637 1.02768 0.0
C16 C 0.11085 0.19903 0.04465 0.0
C17 C 0.12593 0.19844 0.06265 0.0
C18 C 0.23634 -0.01761 0.13021 0.0
C19 C 0.40807 -0.00573 0.07879 0.0
O20 O 0.38343 0.92781 0.15948 0.0
O21 O 0.44752 -0.00642 0.14899 0.0
O22 O 0.45877 0.03018 0.1066 0.0
O23 O 0.37242 0.10772 0.11086 0.0
O24 O 0.3364 0.09432 0.14558 0.0
O25 O 0.24969 0.15018 0.13086 0.0
O26 O 0.26226 0.1902 0.08374 0.0
O27 O 0.18722 0.13778 0.09734 0.0
O28 O 0.23899 -0.001 0.11108 0.0
O29 O 0.26823 0.01597 0.13457 0.0
O30 O 0.35692 0.04699 0.07828 0.0
O31 O 0.42108 0.96081 0.0976 0.0
H32 H 0.32218 0.94483 0.19698 0.0
H33 H 0.30869 -0.03049 0.22945 0.0
H34 H 0.48922 0.02347 0.21268 0.0
H35 H 0.50095 0.00026 0.18003 0.0
H36 H 0.28505 0.18863 0.04757 0.0
H37 H 0.25838 0.19097 1.01612 0.0
H38 H 0.06217 0.20157 0.04399 0.0
H39 H 0.08881 0.19961 0.07563 0.0
Nd40 Nd 0.6034 0.60306 0.36878 0.0
Nd41 Nd 0.60915 0.50918 0.35059 0.0
C42 C 0.60103 0.67734 0.39379 0.0
C43 C 0.59599 0.6754 0.4149 0.0
C44 C 0.63549 0.62312 0.4267 0.0
C45 C 0.63497 0.62642 0.44606 0.0
C46 C 0.59494 0.68211 0.45396 0.0
C47 C 0.5534 0.73285 0.44238 0.0
C48 C 0.55406 0.72953 0.42299 0.0
C49 C 0.53565 0.6645 0.33814 0.0
C50 C 0.483 0.52617 0.38398 0.0
C51 C 0.62806 0.41966 0.3286 0.0
C52 C 0.6287 0.42154 0.308 0.0
C53 C 0.61891 0.48397 0.29428 0.0
C54 C 0.61485 0.48588 0.27491 0.0
C55 C 0.62029 0.42537 0.26912 0.0
C56 C 0.63114 0.36282 0.2829 0.0
C57 C 0.63531 0.361 0.30226 0.0
C58 C 0.65639 0.44563 0.38617 0.0
C59 C 0.68919 0.62715 0.32359 0.0
O60 O 0.65335 0.64106 0.38509 0.0
O61 O 0.55017 0.67654 0.38799 0.0
O62 O 0.57723 0.68744 0.34238 0.0
O63 O 0.53253 0.60777 0.3496 0.0
O64 O 0.51707 0.55798 0.38959 0.0
O65 O 0.50552 0.50798 0.36676 0.0
O66 O 0.57258 0.44515 0.33837 0.0
O67 O 0.67425 0.43865 0.33207 0.0
O68 O 0.61489 0.42948 0.3798 0.0
O69 O 0.67183 0.49738 0.37389 0.0
O70 O 0.66281 0.57892 0.32297 0.0
O71 O 0.67907 0.64201 0.34129 0.0
H72 H 0.66842 0.581 0.42077 0.0
H73 H 0.66813 0.58692 0.45448 0.0
H74 H 0.52137 0.77588 0.44814 0.0
H75 H 0.5231 0.77035 0.41412 0.0
H76 H 0.61334 0.53117 0.29865 0.0
H77 H 0.60717 0.53461 0.26451 0.0
H78 H 0.63463 0.31557 0.27888 0.0
H79 H 0.64234 0.31259 0.31284 0.0
Nd80 Nd 0.12081 0.85664 0.60704 0.0
Nd81 Nd 0.21667 0.79386 0.57727 0.0
C82 C 0.0569 0.91766 0.63627 0.0
C83 C 0.0656 0.92477 0.65518 0.0
C84 C 0.12631 0.9197 0.65858 0.0
C85 C 0.13415 0.92361 0.67704 0.0
C86 C 0.08136 0.93148 0.69236 0.0
C87 C 0.02052 0.93706 0.68883 0.0
C88 C 0.01272 0.93389 0.6703 0.0
C89 C 0.07011 0.78544 0.59084 0.0
C90 C 0.2133 0.70114 0.62213 0.0
C91 C 0.29488 0.76492 0.54432 0.0
C92 C 0.30028 0.78205 0.52238 0.0
C93 C 0.24657 0.80702 0.51301 0.0
C94 C 0.25347 0.83012 0.49228 0.0
C95 C 0.31424 0.82933 0.48043 0.0
C96 C 0.36783 0.80293 0.48994 0.0
C97 C 0.36086 0.77972 0.51059 0.0
C98 C 0.26848 0.84137 0.60094 0.0
C99 C 0.0907 0.91589 0.56204 0.0
O100 O 0.09029 0.94711 0.62032 0.0
O101 O 0.05484 0.85682 0.63565 0.0
O102 O 0.03914 0.84126 0.59667 0.0
O103 O 0.1261 0.76524 0.59479 0.0
O104 O 0.17621 0.75904 0.62691 0.0
O105 O 0.23087 0.69699 0.6031 0.0
O106 O 0.25647 0.72701 0.55521 0.0
O107 O 0.2935 0.81482 0.55217 0.0
O108 O 0.29277 0.78535 0.59469 0.0
O109 O 0.21796 0.87467 0.59362 0.0
O110 O 0.13918 0.86416 0.55813 0.0
O111 O 0.0801 0.93181 0.57954 0.0
H112 H 0.16756 0.91153 0.6471 0.0
H113 H 0.1816 0.91838 0.67952 0.0
H114 H 0.97913 0.94356 0.70043 0.0
H115 H 0.96559 0.93754 0.66785 0.0
H116 H 0.1993 0.81011 0.52176 0.0
H117 H 0.21095 0.85059 0.48561 0.0
H118 H 0.41541 0.80033 0.48142 0.0
H119 H 0.40307 0.7612 0.51744 0.0
Nd120 Nd 0.77875 0.50458 0.85497 0.0
Nd121 Nd 0.90746 0.53311 0.85229 0.0
C122 C 0.6906 0.45699 0.84823 0.0
C123 C 0.69877 0.40971 0.8352 0.0
C124 C 0.76019 0.38167 0.82578 0.0
C125 C 0.77021 0.33475 0.81401 0.0
C126 C 0.71883 0.31425 0.81138 0.0
C127 C 0.65699 0.34257 0.82083 0.0
C128 C 0.64706 0.38997 0.83262 0.0
C129 C 0.76668 0.61419 0.87153 0.0
C130 C 0.86579 0.54094 0.80912 0.0
C131 C 0.00543 0.56068 0.8616 0.0
C132 C 0.03327 0.56099 0.87899 0.0
C133 C -0.00032 0.59942 0.89338 0.0
C134 C 0.02843 0.60039 0.90896 0.0
C135 C 0.09195 0.56309 0.9108 0.0
C136 C 0.12485 0.52358 0.89658 0.0
C137 C 0.09611 0.52274 0.88099 0.0
C138 C 0.9148 0.41624 0.84143 0.0
C139 C 0.8361 0.44804 0.89497 0.0
O140 O 0.71931 0.43024 0.8636 0.0
O141 O 0.69917 0.51772 0.83932 0.0
O142 O 0.72653 0.57652 0.87621 0.0
O143 O 0.80626 0.60147 0.85584 0.0
O144 O 0.81769 0.51845 0.82107 0.0
O145 O 0.90505 0.56031 0.81706 0.0
O146 O 0.95427 0.60764 0.85676 0.0
O147 O 0.0058 0.50128 0.85916 0.0
O148 O 0.95487 0.45384 0.8332 0.0
O149 O 0.87693 0.43758 0.85591 0.0
O150 O 0.87671 0.48654 0.88599 0.0
O151 O 0.79802 0.43801 0.88508 0.0
H152 H 0.80072 0.39579 0.82766 0.0
H153 H 0.81855 0.3135 0.8073 0.0
H154 H 0.6162 0.32844 0.81901 0.0
H155 H 0.59921 0.41075 0.8398 0.0
H156 H 0.9512 0.62919 0.89255 0.0
H157 H 0.00046 0.63065 0.91965 0.0
H158 H 0.17371 0.49464 0.8971 0.0
H159 H 0.12371 0.49261 0.87022 0.0
Nd160 Nd 0.69354 0.84352 0.96847 0.0
Nd161 Nd 0.60185 0.93712 0.94253 0.0
C162 C 0.74848 0.74285 0.99505 0.0
C163 C 0.77514 0.73961 1.01241 0.0
C164 C 0.74172 0.71873 1.03141 0.0
C165 C 0.76009 0.72474 0.04807 0.0
C166 C 0.81286 0.75072 0.04607 0.0
C167 C 0.8487 0.76798 1.02722 0.0
C168 C 0.82973 0.76289 1.01044 0.0
C169 C 0.76073 0.93909 0.94456 0.0
C170 C 0.56842 0.94663 0.99336 0.0
C171 C 0.55614 -0.01139 0.90784 0.0
C172 C 0.56655 -0.03006 0.88732 0.0
C173 C 0.62233 -0.02795 0.87288 0.0
C174 C 0.62959 0.95648 0.85391 0.0
C175 C 0.58134 0.93818 0.84788 0.0
C176 C 0.52566 0.93585 0.8626 0.0
C177 C 0.51866 0.9511 0.88157 0.0
C178 C 0.55245 0.84138 0.96968 0.0
C179 C 0.70054 0.79683 0.92738 0.0
O180 O 0.68679 0.7676 0.99667 0.0
O181 O 0.7792 0.76493 0.9775 0.0
O182 O 0.776 0.89608 0.96054 0.0
O183 O 0.70395 0.93998 0.94313 0.0
O184 O 0.6219 0.89671 0.99384 0.0
O185 O 0.55346 -0.02218 0.97469 0.0
O186 O 0.59826 0.01118 0.91264 0.0
O187 O 0.53027 0.95006 0.92338 0.0
O188 O 0.52107 0.9048 0.96515 0.0
O189 O 0.60854 0.83039 0.9596 0.0
O190 O 0.65495 0.85327 0.92426 0.0
O191 O 0.72327 0.77881 0.94411 0.0
H192 H 0.69979 0.70018 1.03333 0.0
H193 H 0.73239 0.71013 0.06254 0.0
H194 H 0.88968 0.78797 1.02541 0.0
H195 H 0.85653 0.77929 0.99597 0.0
H196 H 0.66105 -0.0141 0.87619 0.0
H197 H 0.67421 0.95914 0.84409 0.0
H198 H 0.48613 0.92277 0.85961 0.0
H199 H 0.47453 0.94865 0.89185 0.0
Nd200 Nd 0.37825 0.42588 0.72127 0.0
Nd201 Nd 0.38557 0.33305 0.7025 0.0
C202 C 0.36306 0.51305 0.74355 0.0
C203 C 0.35711 0.51213 0.76441 0.0
C204 C 0.36643 0.45013 0.77835 0.0
C205 C 0.36666 0.44955 0.79796 0.0
C206 C 0.35783 0.51096 0.80372 0.0
C207 C 0.34606 0.57305 0.78982 0.0
C208 C 0.34572 0.57357 0.77025 0.0
C209 C 0.32719 0.48936 0.68614 0.0
C210 C 0.30939 0.29932 0.74917 0.0
C211 C 0.36413 0.25047 0.68398 0.0
C212 C 0.34866 0.25295 0.66502 0.0
C213 C 0.33186 0.31545 0.65179 0.0
C214 C 0.31809 0.31708 0.63356 0.0
C215 C 0.32097 0.25614 0.62842 0.0
C216 C 0.33711 0.19371 0.64188 0.0
C217 C 0.35098 0.19219 0.66009 0.0
C218 C 0.48365 0.28603 0.72375 0.0
C219 C 0.49458 0.41877 0.68378 0.0
O220 O 0.41883 0.4811 0.73529 0.0
O221 O 0.31538 0.50139 0.73848 0.0
O222 O 0.36769 0.50797 0.69225 0.0
O223 O 0.31434 0.43674 0.69846 0.0
O224 O 0.31871 0.35981 0.74844 0.0
O225 O 0.33253 0.27588 0.73268 0.0
O226 O 0.3199 0.28564 0.69547 0.0
O227 O 0.42064 0.2572 0.68347 0.0
O228 O 0.48979 0.28879 0.70504 0.0
O229 O 0.42679 0.31412 0.73036 0.0
O230 O 0.45499 0.39303 0.67842 0.0
O231 O 0.48074 0.42679 0.70233 0.0
H232 H 0.37542 0.40228 0.77392 0.0
H233 H 0.37634 0.40106 0.80839 0.0
H234 H 0.33837 0.62104 0.79403 0.0
H235 H 0.33824 0.62173 0.75957 0.0
H236 H 0.32969 0.3627 0.65557 0.0
H237 H 0.30525 0.36586 0.62348 0.0
H238 H 0.3405 0.14602 0.63813 0.0
H239 H 0.36405 0.1436 0.67024 0.0
Nd240 Nd 0.76354 0.14345 0.49601 0.0
Nd241 Nd 0.85849 0.07938 0.46649 0.0
C242 C 0.6866 0.17258 0.52917 0.0
C243 C 0.68173 0.15361 0.55114 0.0
C244 C 0.73557 0.12933 0.56045 0.0
C245 C 0.72915 0.10477 0.58115 0.0
C246 C 0.66873 0.1034 0.59304 0.0
C247 C 0.61502 0.1291 0.58358 0.0
C248 C 0.6215 0.15373 0.56298 0.0
C249 C 0.70986 0.09594 0.47273 0.0
C250 C 0.88875 0.02044 0.51139 0.0
C251 C 0.92254 0.01869 0.43719 0.0
C252 C 0.91368 0.01177 0.41829 0.0
C253 C 0.8524 0.02302 0.41433 0.0
C254 C 0.8445 0.01842 0.39595 0.0
C255 C 0.89792 0.00405 0.38122 0.0
C256 C 0.95928 -0.00714 0.38525 0.0
C257 C 0.96708 -0.00356 0.40375 0.0
C258 C 0.9096 0.15148 0.48231 0.0
C259 C 0.76701 0.23471 0.45115 0.0
O260 O 0.72612 0.20934 0.51839 0.0
O261 O 0.68577 0.12435 0.521 0.0
O262 O 0.68656 0.1523 0.47885 0.0
O263 O 0.7607 0.06229 0.47989 0.0
O264 O 0.84075 0.0727 0.51518 0.0
O265 O 0.89895 0.00407 0.49399 0.0
O266 O 0.88915 -0.01091 0.4531 0.0
O267 O 0.92434 0.07955 0.43785 0.0
O268 O 0.94025 0.095 0.47683 0.0
O269 O 0.85385 0.1716 0.47821 0.0
O270 O 0.80184 0.17568 0.44664 0.0
O271 O 0.75115 0.24041 0.47006 0.0
H272 H 0.78263 0.128 0.55169 0.0
H273 H 0.77181 0.08498 0.58775 0.0
H274 H 0.56764 0.13017 0.5921 0.0
H275 H 0.57918 0.17171 0.5562 0.0
H276 H 0.8109 0.03658 0.4253 0.0
H277 H 0.79672 0.0282 0.39304 0.0
H278 H 0.00109 -0.0184 0.37407 0.0
H279 H 0.01468 -0.01179 0.40661 0.0
Nd280 Nd 0.07185 0.39975 0.22166 0.0
Nd281 Nd 0.20116 0.4278 0.21925 0.0
C282 C 0.97383 0.37202 0.21245 0.0
C283 C 0.94535 0.37153 0.19523 0.0
C284 C 0.97593 0.32808 0.18195 0.0
C285 C 0.94637 0.32698 0.16658 0.0
C286 C 0.88483 0.36891 0.16393 0.0
C287 C 0.85489 0.41314 0.17707 0.0
C288 C 0.88453 0.41426 0.19241 0.0
C289 C 0.06422 0.51738 0.23219 0.0
C290 C 0.14431 0.48444 0.17902 0.0
C291 C 0.29146 0.47291 0.22577 0.0
C292 C 0.2851 0.52005 0.23863 0.0
C293 C 0.22421 0.54918 0.24803 0.0
C294 C 0.21518 0.59642 0.25956 0.0
C295 C 0.26723 0.61601 0.26204 0.0
C296 C 0.32885 0.58599 0.25281 0.0
C297 C 0.33767 0.53853 0.24112 0.0
C298 C 0.2132 0.31961 0.20224 0.0
C299 C 0.11229 0.39295 0.2649 0.0
O300 O 0.02503 0.32506 0.21725 0.0
O301 O 0.97363 0.43149 0.21479 0.0
O302 O 0.02312 0.48092 0.2402 0.0
O303 O 0.10311 0.49454 0.21808 0.0
O304 O 0.10365 0.44581 0.1879 0.0
O305 O 0.18184 0.49473 0.18909 0.0
O306 O 0.26241 0.50037 0.21048 0.0
O307 O 0.28121 0.41297 0.23488 0.0
O308 O 0.25373 0.35655 0.19805 0.0
O309 O 0.17327 0.33142 0.21798 0.0
O310 O 0.16021 0.41614 0.25304 0.0
O311 O 0.07414 0.37223 0.2569 0.0
H312 H 0.02263 0.29441 0.18348 0.0
H313 H 0.97219 0.29291 0.15671 0.0
H314 H 0.80756 0.44574 0.17592 0.0
H315 H 0.8591 0.44817 0.20237 0.0
H316 H 0.18331 0.53518 0.24641 0.0
H317 H 0.16725 0.61705 0.2667 0.0
H318 H 0.37006 0.60014 0.2543 0.0
H319 H 0.38522 0.51693 0.23392 0.0
Nd320 Nd 0.87568 0.50121 0.62983 0.0
Nd321 Nd 0.78685 0.59838 0.60237 0.0
C322 C 0.92199 0.45274 0.66449 0.0
C323 C 0.91133 0.46924 0.68534 0.0
C324 C 0.85767 0.46158 0.7003 0.0
C325 C 0.85073 0.47562 0.71947 0.0
C326 C 0.89731 0.49761 0.72517 0.0
C327 C 0.95079 0.50543 0.70997 0.0
C328 C 0.95741 0.49183 0.69081 0.0
C329 C 0.92818 0.59497 0.60264 0.0
C330 C 0.77643 0.64316 0.64388 0.0
C331 C 0.73503 0.69906 0.57514 0.0
C332 C 0.70111 0.70568 0.55913 0.0
C333 C 0.71884 0.74499 0.54041 0.0
C334 C 0.6935 0.74534 0.52426 0.0
C335 C 0.64966 0.7065 0.52656 0.0
C336 C 0.63038 0.66887 0.54552 0.0
C337 C 0.65613 0.66819 0.56167 0.0
C338 C 0.71659 0.50518 0.62653 0.0
C339 C 0.9117 0.49113 0.57884 0.0
O340 O 0.88306 0.42599 0.65955 0.0
O341 O 0.94383 0.49538 0.64924 0.0
O342 O 0.95848 0.53152 0.6077 0.0
O343 O 0.87164 0.60725 0.61226 0.0
O344 O 0.8127 0.58099 0.64875 0.0
O345 O 0.76433 0.66613 0.62559 0.0
O346 O 0.79493 0.6655 0.57254 0.0
O347 O 0.70552 0.68381 0.59339 0.0
O348 O 0.70168 0.54919 0.61067 0.0
O349 O 0.7736 0.50342 0.62786 0.0
O350 O 0.8598 0.54287 0.57782 0.0
O351 O 0.9246 0.45945 0.59774 0.0
H352 H 0.82039 0.44469 0.69722 0.0
H353 H 0.80762 0.4692 0.72972 0.0
H354 H 0.98898 0.52137 0.71278 0.0
H355 H -8e-05 0.49852 0.68015 0.0
H356 H 0.75413 0.77351 0.53813 0.0
H357 H 0.71034 0.77385 0.50982 0.0
H358 H 0.59623 0.639 0.54782 0.0
H359 H 0.64217 0.63693 0.57597 0.0
Nd360 Nd 0.10315 0.10271 0.8701 0.0
Nd361 Nd 0.10448 0.0092 0.8522 0.0
C362 C 0.10458 0.17929 0.89392 0.0
C363 C 0.10106 0.18064 0.91456 0.0
C364 C 0.11458 0.12035 0.92895 0.0
C365 C 0.11789 0.12336 0.94804 0.0
C366 C 0.10752 0.18676 0.95289 0.0
C367 C 0.09084 0.24695 0.93864 0.0
C368 C 0.08776 0.24383 0.91961 0.0
C369 C 0.03183 0.16369 0.8402 0.0
C370 C 0.98351 0.02528 0.88758 0.0
C371 C 0.11907 0.92117 0.83009 0.0
C372 C 0.12077 0.92312 0.8094 0.0
C373 C 0.10731 -0.01431 0.79589 0.0
C374 C 0.10474 -0.01294 0.77641 0.0
C375 C 0.1154 0.92585 0.77033 0.0
C376 C 0.1306 0.86329 0.78382 0.0
C377 C 0.13327 0.86199 0.80327 0.0
C378 C 0.15585 0.9449 0.88703 0.0
C379 C 0.18667 0.12592 0.82477 0.0
O380 O 0.15572 0.13984 0.88578 0.0
O381 O 0.05266 0.17833 0.88877 0.0
O382 O 0.07487 0.18637 0.84367 0.0
O383 O 0.02882 0.10778 0.85207 0.0
O384 O 0.02088 0.05515 0.89243 0.0
O385 O 0.00156 0.00868 0.87006 0.0
O386 O 0.06409 0.94966 0.83952 0.0
O387 O 0.16676 0.93646 0.83394 0.0
O388 O 0.11335 0.92861 0.88116 0.0
O389 O 0.1707 -0.00341 0.87455 0.0
O390 O 0.15834 0.07892 0.8243 0.0
O391 O 0.17865 0.13986 0.84247 0.0
H392 H 0.12435 0.07123 0.92524 0.0
H393 H 0.13107 0.07619 0.95872 0.0
H394 H 0.08148 0.29646 0.9421 0.0
H395 H 0.07674 0.29081 0.90865 0.0
H396 H 0.0974 0.0333 0.80054 0.0
H397 H 0.09238 0.03588 0.76631 0.0
H398 H 0.13975 0.81547 0.77936 0.0
H399 H 0.14394 0.8134 0.81361 0.0
Nd400 Nd 0.62018 0.35342 0.10678 0.0
Nd401 Nd 0.71742 0.29308 0.07706 0.0
C402 C 0.55468 0.41254 0.13623 0.0
C403 C 0.56523 0.41917 0.15491 0.0
C404 C 0.62729 0.40608 0.15844 0.0
C405 C 0.63714 0.41073 0.17654 0.0
C406 C 0.5849 0.4272 0.1915 0.0
C407 C 0.52268 0.44026 0.18783 0.0
C408 C 0.51297 0.43648 0.16959 0.0
C409 C 0.57134 0.28247 0.08987 0.0
C410 C 0.714 0.19901 0.12167 0.0
C411 C 0.79634 0.26576 0.04407 0.0
C412 C 0.80108 0.28326 1.02217 0.0
C413 C 0.74693 0.30842 1.01302 0.0
C414 C 0.75305 0.33225 0.99233 0.0
C415 C 0.81349 0.33194 0.98031 0.0
C416 C 0.86755 0.30517 0.9896 0.0
C417 C 0.86135 0.28128 1.01022 0.0
C418 C 0.76749 0.34001 0.10134 0.0
C419 C 0.59134 0.41453 0.06184 0.0
O420 O 0.58644 0.44361 0.12021 0.0
O421 O 0.55451 0.35118 0.13549 0.0
O422 O 0.53966 0.33773 0.09591 0.0
O423 O 0.62709 0.26251 0.09401 0.0
O424 O 0.67581 0.25618 0.12659 0.0
O425 O 0.73244 0.19567 0.1026 0.0
O426 O 0.75899 0.22665 0.05494 0.0
O427 O 0.79374 0.31595 0.052 0.0
O428 O 0.79267 0.28458 0.09483 0.0
O429 O 0.71706 0.37316 0.09394 0.0
O430 O 0.64012 0.3632 0.05786 0.0
O431 O 0.58021 0.42978 0.07943 0.0
H432 H 0.66793 0.39168 0.14726 0.0
H433 H 0.68559 0.40123 0.17883 0.0
H434 H 0.48154 0.45184 0.19919 0.0
H435 H 0.46479 0.446 0.16704 0.0
H436 H 0.69989 0.31114 1.02191 0.0
H437 H 0.71019 0.35293 0.98583 0.0
H438 H 0.91491 0.30288 0.98095 0.0
H439 H 0.90388 0.26256 1.01691 0.0
Nd440 Nd 0.28036 0.00072 0.35527 0.0
Nd441 Nd 0.40669 0.0324 0.35245 0.0
C442 C 0.19173 0.9539 0.34856 0.0
C443 C 0.20004 0.90781 0.3352 0.0
C444 C 0.26169 0.8797 0.32596 0.0
C445 C 0.27208 0.83346 0.31397 0.0
C446 C 0.22083 0.81385 0.31091 0.0
C447 C 0.15865 0.84285 0.31999 0.0
C448 C 0.14838 0.88935 0.33209 0.0
C449 C 0.26574 0.10922 0.37264 0.0
C450 C 0.36512 0.0405 0.30927 0.0
C451 C 0.50397 0.06154 0.36171 0.0
C452 C 0.53191 0.06193 0.37906 0.0
C453 C 0.49626 0.09424 0.39461 0.0
C454 C 0.52487 0.09489 0.41028 0.0
C455 C 0.59022 0.06324 0.41105 0.0
C456 C 0.62526 0.02975 0.39564 0.0
C457 C 0.59668 0.02929 0.37997 0.0
C458 C 0.4172 0.91562 0.34094 0.0
C459 C 0.33877 0.94329 0.39493 0.0
O460 O 0.22117 0.92624 0.36376 0.0
O461 O 0.19969 0.01506 0.33995 0.0
O462 O 0.22925 0.06752 0.37783 0.0
O463 O 0.30453 0.09914 0.35657 0.0
O464 O 0.31809 0.01618 0.32127 0.0
O465 O 0.40361 0.06083 0.31725 0.0
O466 O 0.45219 0.10779 0.35709 0.0
O467 O 0.50516 0.00204 0.35916 0.0
O468 O 0.45565 0.95507 0.33279 0.0
O469 O 0.37924 0.93517 0.35567 0.0
O470 O 0.37729 -0.01575 0.38613 0.0
O471 O 0.30202 0.93177 0.38489 0.0
H472 H 0.30208 0.89343 0.3281 0.0
H473 H 0.32041 0.81347 0.30699 0.0
H474 H 0.11805 0.82856 0.3181 0.0
H475 H 0.10039 0.91016 0.33915 0.0
H476 H 0.44622 0.11932 0.39466 0.0
H477 H 0.49534 0.12035 0.42188 0.0
H478 H 0.6755 0.00534 0.39533 0.0
H479 H 0.6258 0.00383 0.36831 0.0
Nd480 Nd 0.19763 0.34606 0.46666 0.0
Nd481 Nd 0.10859 0.433 0.44329 0.0
C482 C 0.27743 0.27184 0.49103 0.0
C483 C 0.28142 0.25759 0.51195 0.0
C484 C 0.22631 0.26458 0.52646 0.0
C485 C 0.23104 0.26089 0.54594 0.0
C486 C 0.29084 0.25091 0.55096 0.0
C487 C 0.34597 0.24136 0.53651 0.0
C488 C 0.34122 0.24465 0.51713 0.0
C489 C 0.25778 0.43005 0.43445 0.0
C490 C 0.07255 0.44181 0.49362 0.0
C491 C 0.06076 0.483 0.40887 0.0
C492 C 0.07068 0.46452 0.38832 0.0
C493 C 0.11815 0.48214 0.37214 0.0
C494 C 0.12408 0.46791 0.35308 0.0
C495 C 0.08248 0.4357 0.34872 0.0
C496 C 0.03549 0.41738 0.36513 0.0
C497 C 0.0298 0.43137 0.3842 0.0
C498 C 0.05479 0.33993 0.47063 0.0
C499 C 0.2027 0.2897 0.42893 0.0
O500 O 0.23686 0.24782 0.4862 0.0
O501 O 0.27728 0.33441 0.4816 0.0
O502 O 0.27555 0.36461 0.43968 0.0
O503 O 0.20415 0.45165 0.44542 0.0
O504 O 0.12429 0.38978 0.49367 0.0
O505 O 0.05881 0.47517 0.47502 0.0
O506 O 0.102 0.50736 0.41343 0.0
O507 O 0.0368 0.44339 0.42451 0.0
O508 O 0.02597 0.40405 0.46579 0.0
O509 O 0.11105 0.32606 0.46086 0.0
O510 O 0.16976 0.35333 0.42384 0.0
O511 O 0.21435 0.26775 0.4472 0.0
H512 H 0.1797 0.27525 0.52258 0.0
H513 H 0.18792 0.26874 0.55686 0.0
H514 H 0.39261 0.23281 0.54014 0.0
H515 H 0.38407 0.23964 0.506 0.0
H516 H 0.15112 0.50756 0.37411 0.0
H517 H 0.16242 0.48244 0.34178 0.0
H518 H 0.00151 0.39308 0.36329 0.0
H519 H -0.00797 0.41676 0.39582 0.0
Nd520 Nd 0.88061 0.9269 0.22063 0.0
Nd521 Nd 0.88734 0.8338 0.20105 0.0
C522 C 0.86608 0.01285 0.24323 0.0
C523 C 0.86086 0.01131 0.2641 0.0
C524 C 0.87025 0.94906 0.27794 0.0
C525 C 0.87159 0.94787 0.29751 0.0
C526 C 0.86385 0.0089 0.30334 0.0
C527 C 0.85211 0.07126 0.28955 0.0
C528 C 0.85062 0.0724 0.27002 0.0
C529 C 0.82964 -0.01005 0.18556 0.0
C530 C 0.81103 0.79996 0.24784 0.0
C531 C 0.86746 0.75812 0.17999 0.0
C532 C 0.86666 0.76351 0.1591 0.0
C533 C 0.84106 0.82615 0.14706 0.0
C534 C 0.83857 0.82979 0.12739 0.0
C535 C 0.86214 0.77098 0.11947 0.0
C536 C 0.88986 0.70892 0.13136 0.0
C537 C 0.89193 0.70523 0.15107 0.0
C538 C 0.9848 0.78671 0.22244 0.0
C539 C -0.00206 0.91866 0.1834 0.0
O540 O 0.92168 -0.01882 0.23479 0.0
O541 O 0.8181 0.00153 0.23822 0.0
O542 O 0.87016 0.00893 0.19154 0.0
O543 O 0.81682 0.93768 0.19798 0.0
O544 O 0.82205 0.85931 0.24748 0.0
O545 O 0.83235 0.77757 0.23109 0.0
O546 O 0.82183 0.80052 0.18903 0.0
O547 O 0.92276 0.75078 0.18441 0.0
O548 O -0.00864 0.78955 0.20369 0.0
O549 O 0.92782 0.81458 0.22902 0.0
O550 O 0.95898 0.89299 0.17771 0.0
O551 O 0.98297 0.92735 0.20189 0.0
H552 H 0.87846 0.90147 0.27345 0.0
H553 H 0.88118 0.89919 0.30787 0.0
H554 H 0.84522 0.11898 0.29381 0.0
H555 H 0.84319 0.12075 0.25942 0.0
H556 H 0.82204 0.87195 0.15294 0.0
H557 H 0.8174 0.87832 0.11846 0.0
H558 H 0.90771 0.66272 0.12566 0.0
H559 H 0.91225 0.65663 0.16015 0.0
Nd560 Nd 0.26423 0.64167 0.99625 0.0
Nd561 Nd 0.35913 0.57729 0.96665 0.0
C562 C 0.18734 0.67025 1.02949 0.0
C563 C 0.18235 0.6511 0.05148 0.0
C564 C 0.23611 0.62754 0.06083 0.0
C565 C 0.22968 0.60292 0.08153 0.0
C566 C 0.16936 0.60076 0.09341 0.0
C567 C 0.1157 0.62576 0.08391 0.0
C568 C 0.12218 0.65044 0.06331 0.0
C569 C 0.21067 0.59451 0.97285 0.0
C570 C 0.38915 0.51823 1.01151 0.0
C571 C 0.42213 0.51643 0.93731 0.0
C572 C 0.41208 0.5101 0.91849 0.0
C573 C 0.35039 0.52028 0.915 0.0
C574 C 0.34124 0.51684 0.89666 0.0
C575 C 0.39377 0.50461 0.8815 0.0
C576 C 0.45557 0.49423 0.88508 0.0
C577 C 0.46464 0.49674 0.90353 0.0
C578 C 0.41105 0.64866 0.98246 0.0
C579 C 0.26807 0.73315 0.95142 0.0
O580 O 0.2268 0.70715 1.01875 0.0
O581 O 0.18658 0.62216 1.02125 0.0
O582 O 0.18735 0.65088 0.97897 0.0
O583 O 0.26131 0.56078 0.98009 0.0
O584 O 0.34142 0.57066 1.01531 0.0
O585 O 0.39918 0.50177 0.99413 0.0
O586 O 0.38901 0.48694 0.95332 0.0
O587 O 0.42463 0.57707 0.93795 0.0
O588 O 0.44138 0.59226 0.97688 0.0
O589 O 0.35508 0.66905 0.97848 0.0
O590 O 0.30289 0.67417 0.94688 0.0
O591 O 0.25207 0.73871 0.97035 0.0
H592 H 0.28312 0.62681 0.05209 0.0
H593 H 0.27232 0.5837 0.08815 0.0
H594 H 0.06838 0.62624 0.09241 0.0
H595 H 0.0799 0.6679 0.05651 0.0
H596 H 0.30949 0.53216 0.92633 0.0
H597 H 0.29313 0.52587 0.89411 0.0
H598 H 0.49673 0.4845 0.87358 0.0
H599 H 0.51253 0.48932 0.90603 0.0
Nd600 Nd 0.57225 0.90088 0.72115 0.0
Nd601 Nd 0.70084 0.92902 0.71854 0.0
C602 C 0.47374 0.87417 0.71197 0.0
C603 C 0.44561 0.87379 0.6947 0.0
C604 C 0.47802 0.83331 0.68075 0.0
C605 C 0.44889 0.83244 0.66527 0.0
C606 C 0.3862 0.87189 0.66312 0.0
C607 C 0.35454 0.91345 0.67689 0.0
C608 C 0.38364 0.91418 0.69238 0.0
C609 C 0.5644 0.01714 0.73253 0.0
C610 C 0.64307 -0.01226 0.67864 0.0
C611 C 0.79009 -0.02581 0.72565 0.0
C612 C 0.78348 0.01868 0.73938 0.0
C613 C 0.72326 0.04296 0.75019 0.0
C614 C 0.71422 0.08898 0.76216 0.0
C615 C 0.76547 0.11197 0.76377 0.0
C616 C 0.82632 0.08674 0.75311 0.0
C617 C 0.83517 0.04063 0.74099 0.0
C618 C 0.71266 0.82191 0.70091 0.0
C619 C 0.61403 0.89103 0.76436 0.0
O620 O 0.52451 0.82675 0.71693 0.0
O621 O 0.47421 0.93364 0.71414 0.0
O622 O 0.52385 -0.02004 0.74042 0.0
O623 O 0.60268 -0.00416 0.71809 0.0
O624 O 0.60293 0.94849 0.68745 0.0
O625 O 0.68071 -0.00226 0.6887 0.0
O626 O 0.7599 0.00353 0.71067 0.0
O627 O 0.78201 0.91281 0.73385 0.0
O628 O 0.75083 0.86184 0.69599 0.0
O629 O 0.67391 0.83239 0.71699 0.0
O630 O 0.66272 0.91254 0.7525 0.0
O631 O 0.5741 0.87313 0.75633 0.0
H632 H 0.52585 0.80192 0.68183 0.0
H633 H 0.47587 0.80054 0.6549 0.0
H634 H 0.30633 0.9441 0.67609 0.0
H635 H 0.357 0.94594 0.70283 0.0
H636 H 0.68259 0.02731 0.74911 0.0
H637 H 0.66646 0.10782 0.76973 0.0
H638 H 0.86718 0.10249 0.75413 0.0
H639 H 0.88212 0.02279 0.73274 0.0
C640 C 0.53226 0.12388 0.08798 0.0
C641 C 0.46525 0.14483 0.09177 0.0
H642 H 0.61952 0.1521 0.08452 0.0
C643 C 0.43496 0.21418 0.09007 0.0
H644 H 0.55684 0.07064 0.08873 0.0
C645 C 0.47101 0.26076 0.08725 0.0
C646 C 0.53739 0.23801 0.0865 0.0
H647 H 0.38343 0.2316 0.09252 0.0
H648 H 0.44629 0.31349 0.08742 0.0
C649 C 0.56827 0.17028 0.08555 0.0
C650 C 0.42803 0.73066 0.34741 0.0
C651 C 0.4796 0.71624 0.33211 0.0
H652 H 0.36878 0.80799 0.36285 0.0
C653 C 0.49206 0.76938 0.31614 0.0
H654 H 0.41664 0.69018 0.35972 0.0
C655 C 0.46593 0.83664 0.31813 0.0
C656 C 0.4257 0.85033 0.33575 0.0
H657 H 0.53081 0.75912 0.30398 0.0
H658 H 0.48278 0.8769 0.30693 0.0
C659 C 0.40179 0.79803 0.34947 0.0
C660 C 0.96881 0.76296 0.58944 0.0
C661 C 0.03549 0.74085 0.58793 0.0
H662 H 0.88144 0.73282 0.59541 0.0
C663 C 0.06653 0.6735 0.58658 0.0
H664 H 0.94389 0.8154 0.58996 0.0
C665 C 0.03074 0.62678 0.58924 0.0
C666 C 0.96379 0.64699 0.59363 0.0
H667 H 0.11796 0.65586 0.58499 0.0
H668 H 0.05561 0.5738 0.58959 0.0
C669 C 0.93299 0.71601 0.59247 0.0
C670 C 0.92464 0.23108 0.84953 0.0
C671 C 0.97575 0.21541 0.83421 0.0
H672 H 0.86585 0.3102 0.86435 0.0
C673 C 0.98788 0.26736 0.81782 0.0
H674 H 0.91362 0.19147 0.86218 0.0
C675 C 0.96185 0.33512 0.81925 0.0
C676 C 0.92213 0.35041 0.83679 0.0
H677 H 0.02631 0.25604 0.80566 0.0
H678 H 0.97855 0.37467 0.8077 0.0
C679 C 0.8984 0.299 0.85101 0.0
C680 C 0.45086 0.80772 0.98368 0.0
C681 C 0.51771 0.78845 0.97859 0.0
H682 H 0.36375 0.77763 0.98881 0.0
C683 C 0.54891 0.71979 0.97914 0.0
H684 H 0.4257 0.86036 0.98381 0.0
C685 C 0.51332 0.67239 0.98242 0.0
C686 C 0.4464 0.69366 0.98478 0.0
H687 H 0.6004 0.70367 0.97563 0.0
H688 H 0.53843 0.62032 0.98148 0.0
C689 C 0.41529 0.7606 0.98657 0.0
C690 C 0.59833 0.12446 0.72566 0.0
C691 C 0.55722 0.08358 0.73683 0.0
H692 H 0.60866 0.2261 0.71442 0.0
C693 C 0.50419 0.11053 0.7501 0.0
H694 H 0.64076 0.10418 0.71581 0.0
C695 C 0.48587 0.18055 0.74931 0.0
C696 C 0.52013 0.22321 0.73496 0.0
H697 H 0.47301 0.07921 0.75941 0.0
H698 H 0.43977 0.20169 0.75746 0.0
C699 C 0.58065 0.19405 0.7252 0.0
C700 C 0.04739 0.21973 0.48092 0.0
C701 C 0.01751 0.28918 0.47923 0.0
H702 H 0.03532 0.12048 0.48392 0.0
C703 C 0.95054 0.31068 0.48291 0.0
H704 H 0.09889 0.20194 0.47852 0.0
C705 C 0.91413 0.26448 0.48557 0.0
C706 C 0.9445 0.19639 0.48492 0.0
H707 H 0.92631 0.36403 0.4821 0.0
H708 H 0.86286 0.28293 0.48671 0.0
C709 C 0.01094 0.17338 0.48394 0.0
C710 C 0.0983 0.62488 0.22438 0.0
C711 C 0.05742 0.58436 0.23602 0.0
H712 H 0.10931 0.72609 0.21279 0.0
C713 C 0.00513 0.61195 0.2494 0.0
H714 H 0.14011 0.60418 0.21439 0.0
C715 C 0.98728 0.6821 0.24836 0.0
C716 C 0.02136 0.72416 0.23369 0.0
H717 H 0.97414 0.58095 0.25903 0.0
H718 H 0.94159 0.70372 0.25663 0.0
C719 C 0.08139 0.69447 0.22379 0.0
C720 C 0.43017 0.01766 0.03841 0.0
C721 C 0.44983 -0.0206 0.05714 0.0
H722 H 0.44522 0.04079 1.00585 0.0
C723 C 0.51031 0.93152 0.05358 0.0
H724 H 0.38532 0.05603 0.03893 0.0
C725 C 0.5462 0.92302 1.03375 0.0
C726 C 0.52652 0.96125 1.01502 0.0
H727 H 0.53107 0.89978 0.06632 0.0
H728 H 0.59109 0.88471 1.03323 0.0
C729 C 0.46599 0.00904 1.01859 0.0
C730 C 0.73487 0.65444 0.28524 0.0
C731 C 0.72199 0.67051 0.30424 0.0
H732 H 0.7715 0.67901 0.25369 0.0
C733 C 0.73881 0.73095 0.30407 0.0
H734 H 0.72318 0.60955 0.28398 0.0
C735 C 0.76622 0.77223 0.28628 0.0
C736 C 0.77935 0.75599 0.26729 0.0
H737 H 0.73021 0.74723 0.31787 0.0
H738 H 0.77757 0.81734 0.28752 0.0
C739 C 0.76292 0.69529 0.26749 0.0
C740 C 0.98194 -0.00809 0.55389 0.0
C741 C 0.04025 0.94544 0.54856 0.0
H742 H 0.88962 0.05047 0.54704 0.0
C743 C 0.04665 0.92204 0.53113 0.0
H744 H 0.97378 0.01088 0.56723 0.0
C745 C -0.00252 0.94427 0.51955 0.0
C746 C 0.93918 -0.00923 0.52488 0.0
H747 H 0.08982 0.88571 0.52641 0.0
H748 H 0.00563 0.92531 0.50622 0.0
C749 C 0.93278 0.01415 0.54232 0.0
C750 C 0.69813 0.21053 0.80526 0.0
C751 C 0.73036 0.26278 0.79911 0.0
H752 H 0.68515 0.12127 0.79947 0.0
C753 C 0.77501 0.26439 0.78136 0.0
H754 H 0.66431 0.20685 0.819 0.0
C755 C 0.7869 0.21534 0.77005 0.0
C756 C 0.75462 0.16305 0.77618 0.0
H757 H 0.80021 0.30433 0.776 0.0
H758 H 0.82052 0.21935 0.75628 0.0
C759 C 0.71023 0.16128 0.79402 0.0
C760 C 0.26384 0.27136 0.78762 0.0
C761 C 0.27738 0.25534 0.76859 0.0
H762 H 0.2275 0.24592 0.81917 0.0
C763 C 0.26104 0.19465 0.76868 0.0
H764 H 0.27508 0.31641 0.78895 0.0
C765 C 0.23264 0.15364 0.78635 0.0
C766 C 0.21948 0.1694 0.8054 0.0
H767 H 0.2699 0.17851 0.75485 0.0
H768 H 0.22105 0.10882 0.785 0.0
C769 C 0.23629 0.22981 0.80533 0.0
C770 C 0.19154 0.77129 0.28524 0.0
C771 C 0.23274 0.7632 0.29835 0.0
H772 H 0.17084 0.73267 0.26325 0.0
C773 C 0.28613 0.70669 0.29917 0.0
H774 H 0.15065 0.81469 0.28393 0.0
C775 C 0.29787 0.65957 0.28725 0.0
C776 C 0.25645 0.66749 0.27423 0.0
H777 H 0.31847 0.69813 0.30929 0.0
H778 H 0.33868 0.61609 0.28858 0.0
C779 C 0.20327 0.7242 0.27334 0.0
C780 C 0.05022 0.41784 0.5341 0.0
C781 C 0.03091 0.45618 0.51533 0.0
H782 H 0.03468 0.39506 0.56668 0.0
C783 C 0.97077 0.50457 0.51879 0.0
H784 H 0.09489 0.37925 0.53363 0.0
C785 C 0.9348 0.51353 0.53854 0.0
C786 C 0.95399 0.47529 0.55733 0.0
H787 H 0.95038 0.5365 0.506 0.0
H788 H 0.89022 0.5523 0.53896 0.0
C789 C 0.01423 0.42686 0.55389 0.0
C790 C 0.4825 0.49001 0.05384 0.0
C791 C 0.54091 0.44391 0.04841 0.0
H792 H 0.38994 0.54804 0.04714 0.0
C793 C 0.54734 0.42052 1.03098 0.0
H794 H 0.47436 0.5089 0.06719 0.0
C795 C 0.49802 0.44247 1.01948 0.0
C796 C 0.43964 0.48863 1.02492 0.0
H797 H 0.59061 0.38442 1.0262 0.0
H798 H 0.50614 0.42361 1.00613 0.0
C799 C 0.43321 0.51197 0.04235 0.0
C800 C 0.19936 0.23092 0.16321 0.0
C801 C 0.25994 0.18443 0.16081 0.0
H802 H 0.13582 0.30835 0.17852 0.0
C803 C 0.3003 0.17796 0.17417 0.0
H804 H 0.16641 0.23766 0.15345 0.0
C805 C 0.28243 0.21796 0.18859 0.0
C806 C 0.22268 0.26521 0.19081 0.0
H807 H 0.34716 0.14303 0.17316 0.0
H808 H 0.31678 0.21358 0.19765 0.0
C809 C 0.18113 0.27067 0.17793 0.0
C810 C 0.39133 0.52892 0.41493 0.0
C811 C 0.42066 0.50921 0.39662 0.0
H812 H 0.31687 0.52241 0.44093 0.0
C813 C 0.38984 0.47048 0.39045 0.0
H814 H 0.41264 0.55846 0.42052 0.0
C815 C 0.33476 0.45019 0.40213 0.0
C816 C 0.30587 0.46852 0.42053 0.0
H817 H 0.40953 0.45359 0.37666 0.0
H818 H 0.31571 0.41753 0.39696 0.0
C819 C 0.33524 0.50899 0.42662 0.0
C820 C 0.22282 0.65076 0.6585 0.0
C821 C 0.2378 0.64252 0.63869 0.0
H822 H 0.23794 0.60957 0.68869 0.0
C823 C 0.27839 0.57942 0.63518 0.0
H824 H 0.19237 0.69817 0.66209 0.0
C825 C 0.30405 0.52768 0.65077 0.0
C826 C 0.28974 0.5369 0.67044 0.0
H827 H 0.29186 0.57059 0.62026 0.0
H828 H 0.33747 0.48157 0.64723 0.0
C829 C 0.24863 0.59939 0.67396 0.0
C830 C 0.11016 0.63047 0.93274 0.0
C831 C 0.1241 0.56829 0.92681 0.0
H832 H 0.12617 0.68667 0.95111 0.0
C833 C 0.16924 0.51287 0.93619 0.0
H834 H 0.07741 0.6751 0.9258 0.0
C835 C 0.19816 0.5196 0.95111 0.0
C836 C 0.18339 0.58221 0.95694 0.0
H837 H 0.18163 0.46383 0.93222 0.0
H838 H 0.23186 0.47596 0.95804 0.0
C839 C 0.13892 0.63716 0.94738 0.0
C840 C 0.70893 0.72651 0.88162 0.0
C841 C 0.75998 0.66771 0.883 0.0
H842 H 0.65116 0.81247 0.89387 0.0
C843 C 0.79299 0.65266 0.89896 0.0
H844 H 0.68066 0.73876 0.87009 0.0
C845 C 0.77507 0.69443 0.9131 0.0
C846 C 0.72313 0.75278 0.91189 0.0
H847 H 0.83097 0.6066 0.90107 0.0
H848 H 0.80109 0.67996 0.92527 0.0
C849 C 0.69142 0.76853 0.89557 0.0
C850 C 0.56113 0.44413 0.64875 0.0
C851 C 0.55434 0.43642 0.66945 0.0
H852 H 0.61551 0.47081 0.61964 0.0
C853 C 0.60558 0.44634 0.67605 0.0
H854 H 0.52383 0.43737 0.64272 0.0
C855 C 0.66017 0.4639 0.6626 0.0
C856 C 0.66572 0.47354 0.64183 0.0
H857 H 0.60339 0.441 0.69174 0.0
H858 H 0.69676 0.47277 0.66847 0.0
C859 C 0.61468 0.46307 0.63537 0.0
C860 C 0.72715 0.27417 0.41853 0.0
C861 C 0.74131 0.29143 0.43449 0.0
H862 H 0.69021 0.30795 0.39135 0.0
C863 C 0.73131 0.36169 0.43373 0.0
H864 H 0.73356 0.22114 0.41842 0.0
C865 C 0.70783 0.41251 0.41753 0.0
C866 C 0.69218 0.3946 0.40187 0.0
H867 H 0.74189 0.37741 0.44561 0.0
H868 H 0.6997 0.46569 0.41764 0.0
C869 C 0.70236 0.32442 0.40281 0.0
C870 C 0.78085 0.41472 0.12293 0.0
C871 C 0.79242 0.35131 0.11786 0.0
H872 H 0.80065 0.47074 0.1411 0.0
C873 C 0.83274 0.29478 0.12848 0.0
H874 H 0.75031 0.45952 0.11518 0.0
C875 C 0.8614 0.30088 0.14321 0.0
C876 C 0.85162 0.36404 0.14814 0.0
H877 H 0.8426 0.24463 0.12539 0.0
H878 H 0.89109 0.25517 0.15091 0.0
C879 C 0.80988 0.42094 0.13789 0.0
C880 C 0.72932 0.7594 0.65354 0.0
C881 C 0.75226 0.68806 0.65917 0.0
H882 H 0.69882 0.85626 0.66213 0.0
C883 C 0.75469 0.66057 0.6796 0.0
H884 H 0.72678 0.7833 0.63813 0.0
C885 C 0.73667 0.70282 0.69363 0.0
C886 C 0.71609 0.77435 0.68777 0.0
H887 H 0.77204 0.60612 0.68475 0.0
H888 H 0.74221 0.67966 0.70888 0.0
C889 C 0.71261 0.80151 0.66746 0.0
C890 C 0.81927 -0.02332 0.90854 0.0
C891 C 0.81111 -0.02843 0.92921 0.0
H892 H 0.8784 -0.00438 0.87963 0.0
C893 C 0.85968 -0.0131 0.93564 0.0
H894 H 0.78479 0.9639 0.90272 0.0
C895 C 0.9133 0.00614 0.92232 0.0
C896 C 0.92284 0.00905 0.90176 0.0
H897 H 0.85692 -0.01734 0.95132 0.0
H898 H 0.94871 0.01655 0.92834 0.0
C899 C 0.87402 -0.00571 0.8952 0.0
C900 C 0.81143 0.02953 0.14978 0.0
C901 C 0.79249 0.03619 0.1697 0.0
H902 H 0.80197 0.07397 0.11916 0.0
C903 C 0.74592 0.09528 0.17358 0.0
H904 H 0.84878 -0.01399 0.14609 0.0
C905 C 0.71948 0.14614 0.15815 0.0
C906 C 0.73903 0.14052 0.1381 0.0
H907 H 0.73142 0.10339 0.18857 0.0
H908 H 0.68475 0.19115 0.16198 0.0
C909 C 0.78491 0.08057 0.13426 0.0
C910 C 0.70028 0.02207 0.45017 0.0
C911 C 0.68124 0.08274 0.45726 0.0
H912 H 0.68748 0.96781 0.4302 0.0
C913 C 0.63199 0.13529 0.44912 0.0
H914 H 0.73771 -0.01973 0.45598 0.0
C915 C 0.60312 0.12833 0.43454 0.0
C916 C 0.62184 0.06833 0.42721 0.0
H917 H 0.61562 0.18327 0.45388 0.0
H918 H 0.56664 0.17128 0.4287 0.0
C919 C 0.67137 0.01518 0.43526 0.0
C920 C 0.24729 0.17283 0.41983 0.0
C921 C 0.22582 0.24418 0.4139 0.0
H922 H 0.27679 0.07553 0.41156 0.0
C923 C 0.22466 0.27128 0.39341 0.0
H924 H 0.24892 0.14938 0.43531 0.0
C925 C 0.24266 0.22853 0.37954 0.0
C926 C 0.26177 0.15702 0.38569 0.0
H927 H 0.2085 0.32581 0.38807 0.0
H928 H 0.23833 0.25132 0.36418 0.0
C929 C 0.26394 0.13025 0.40607 0.0
C930 C 0.10367 0.95503 0.1766 0.0
C931 C 0.05968 0.9336 0.16978 0.0
H932 H 0.19199 -0.01421 0.17023 0.0
C933 C 0.07656 0.92589 0.14988 0.0
H934 H 0.0938 0.96164 0.1917 0.0
C935 C 0.13371 0.93981 0.13743 0.0
C936 C 0.17742 0.96178 0.14421 0.0
H937 H 0.04517 0.90945 0.14376 0.0
H938 H 0.14329 0.934 0.12225 0.0
C939 C 0.16092 -0.03134 0.16418 0.0
C940 C 0.20559 0.91158 0.91864 0.0
C941 C 0.19306 0.89409 0.90239 0.0
H942 H 0.23721 0.87572 0.94709 0.0
C943 C 0.20686 0.82405 0.90256 0.0
H944 H 0.19468 0.96463 0.91932 0.0
C945 C 0.23198 0.77347 0.91817 0.0
C946 C 0.24277 0.7902 0.93476 0.0
H947 H 0.19704 0.80797 0.89062 0.0
H948 H 0.24109 0.72054 0.91748 0.0
C949 C 0.22935 0.86036 0.93472 0.0
C950 C 0.3107 0.92316 0.63729 0.0
C951 C 0.35354 0.86679 0.64727 0.0
H952 H 0.25017 0.96094 0.61485 0.0
C953 C 0.36482 0.80379 0.6421 0.0
H954 H 0.30038 -0.0272 0.64073 0.0
C955 C 0.33607 0.79726 0.62745 0.0
C956 C 0.29432 0.85323 0.61717 0.0
H957 H 0.39563 0.75853 0.64956 0.0
H958 H 0.34688 0.7472 0.62422 0.0
C959 C 0.28175 0.91656 0.62237 0.0
C960 C 0.10739 0.15134 1.008 0.0
C961 C 0.14303 0.19534 1.0087 0.0
H962 H 0.06807 0.11408 0.98968 0.0
C963 C 0.16561 0.23721 0.99107 0.0
H964 H 0.08999 0.11805 1.0214 0.0
C965 C 0.15323 0.23486 0.97303 0.0
C966 C 0.11822 0.1904 0.97224 0.0
H967 H 0.19288 0.27183 0.99123 0.0
H968 H 0.17222 0.26696 0.95963 0.0
C969 C 0.09534 0.14864 0.98989 0.0
C970 C 0.55535 0.47817 0.22138 0.0
C971 C 0.59531 0.42845 0.21108 0.0
H972 H 0.5315 0.51556 0.24799 0.0
C973 C 0.64447 0.37875 0.21981 0.0
H974 H 0.51745 0.51751 0.21494 0.0
C975 C 0.65323 0.37844 0.23855 0.0
C976 C 0.61276 0.42754 0.24894 0.0
H977 H 0.67547 0.33919 0.21236 0.0
H978 H 0.6916 0.33964 0.24492 0.0
C979 C 0.5639 0.4776 0.24018 0.0
C980 C 0.28358 0.84636 0.44698 0.0
C981 C 0.3218 0.85707 0.45838 0.0
H982 H 0.25935 0.86391 0.41831 0.0
C983 C 0.36705 0.89512 0.44851 0.0
H984 H 0.24883 0.81671 0.45389 0.0
C985 C 0.37322 0.92229 0.42799 0.0
C986 C 0.33463 0.91191 0.41664 0.0
H987 H 0.39695 0.90528 0.45673 0.0
H988 H 0.40788 0.95207 0.42106 0.0
C989 C 0.29002 0.87315 0.42645 0.0
C990 C 0.93012 0.54411 0.75164 0.0
C991 C 0.89046 0.51113 0.7465 0.0
H992 H 0.95552 0.57959 0.7741 0.0
C993 C 0.84366 0.49041 0.76251 0.0
H994 H 0.96701 0.56229 0.74046 0.0
C995 C 0.83642 0.50199 0.78183 0.0
C996 C 0.87582 0.53427 0.7871 0.0
H997 H 0.81195 0.46374 0.7605 0.0
H998 H 0.79911 0.48411 0.79292 0.0
C999 C 0.92333 0.5549 0.77133 0.0
C1000 C 0.79224 0.80347 0.09416 0.0
C1001 C 0.85259 0.7727 0.09951 0.0
H1002 H 0.73268 0.82043 0.07289 0.0
C1003 C 0.90158 0.73909 0.08638 0.0
H1004 H 0.75353 0.82924 0.10407 0.0
C1005 C 0.8896 0.7342 0.06849 0.0
C1006 C 0.82829 0.76198 0.06371 0.0
H1007 H 0.94865 0.71544 0.09014 0.0
H1008 H 0.9274 0.70644 0.05881 0.0
C1009 C 0.78014 0.7979 0.07645 0.0
C1010 C 0.41366 0.54563 0.84497 0.0
C1011 C 0.38402 0.50593 0.86169 0.0
H1012 H 0.42824 0.5783 0.81345 0.0
C1013 C 0.34471 0.46848 0.85938 0.0
H1014 H 0.44366 0.57545 0.84647 0.0
C1015 C 0.33581 0.47013 0.84049 0.0
C1016 C 0.36542 0.51002 0.82377 0.0
H1017 H 0.32157 0.43738 0.87213 0.0
H1018 H 0.30556 0.44067 0.83895 0.0
C1019 C 0.40427 0.54784 0.82616 0.0
C1020 C 0.69251 0.05801 0.64719 0.0
C1021 C 0.64795 0.01901 0.65687 0.0
H1022 H 0.73376 0.11518 0.61989 0.0
C1023 C 0.61006 0.00841 0.64534 0.0
H1024 H 0.72272 0.0674 0.65546 0.0
C1025 C 0.61664 0.03579 0.62481 0.0
C1026 C 0.66151 0.07448 0.61508 0.0
H1027 H 0.57559 -0.02168 0.65213 0.0
H1028 H 0.5872 0.02544 0.61648 0.0
C1029 C 0.69926 0.08513 0.62666 0.0
C1030 C 0.12175 0.45827 0.31041 0.0
C1031 C 0.0877 0.42298 0.32745 0.0
H1032 H 0.15536 0.47676 0.2792 0.0
C1033 C 0.05908 0.37667 0.32336 0.0
H1034 H 0.14357 0.49602 0.31168 0.0
C1035 C 0.06498 0.36641 0.30364 0.0
C1036 C 0.10063 0.4012 0.28683 0.0
H1037 H 0.03231 0.34714 0.33544 0.0
H1038 H 0.04241 0.33022 0.3017 0.0
C1039 C 0.12825 0.44734 0.29109 0.0
C1040 C 0.61053 0.63286 0.48927 0.0
C1041 C 0.60073 0.68982 0.47351 0.0
H1042 H 0.63415 0.5933 0.5183 0.0
C1043 C 0.60174 0.75349 0.47602 0.0
H1044 H 0.60932 0.58327 0.48787 0.0
C1045 C 0.615 0.75948 0.49356 0.0
C1046 C 0.62778 0.70191 0.50897 0.0
H1047 H 0.59504 0.79828 0.4641 0.0
H1048 H 0.61671 0.809 0.49486 0.0
C1049 C 0.62401 0.63881 0.5068 0.0
C1050 C 0.12638 -0.02889 0.71474 0.0
C1051 C 0.09007 0.93076 0.71225 0.0
H1052 H 0.16291 0.00116 0.73531 0.0
C1053 C 0.06267 0.88863 0.72886 0.0
H1054 H 0.14771 0.00417 0.70209 0.0
C1055 C 0.07148 0.88672 0.74772 0.0
C1056 C 0.10754 0.92722 0.75027 0.0
H1057 H 0.03501 0.85656 0.72724 0.0
H1058 H 0.04942 0.85418 0.76034 0.0
C1059 C 0.13475 -0.03034 0.73366 0.0
C1060 C 0.78728 0.37805 0.9265 0.0
C1061 C 0.83197 0.41671 0.91667 0.0
H1062 H 0.7467 0.32091 0.95391 0.0
C1063 C 0.87107 0.4265 0.92796 0.0
H1064 H 0.75627 0.36919 0.9184 0.0
C1065 C 0.86539 0.39876 0.94844 0.0
C1066 C 0.82025 0.3606 0.95832 0.0
H1067 H 0.90579 0.4562 0.92101 0.0
H1068 H 0.89568 0.40847 0.95662 0.0
C1069 C 0.78142 0.3506 0.94698 0.0
C1070 C 0.33568 0.00299 0.2817 0.0
C1071 C 0.37517 0.03466 0.28716 0.0
H1072 H 0.31132 0.96562 0.26016 0.0
C1073 C 0.4231 0.05507 0.2715 0.0
H1074 H 0.29807 -0.01474 0.29269 0.0
C1075 C 0.43029 0.04454 0.25176 0.0
C1076 C 0.39056 0.01213 0.24642 0.0
H1077 H 0.45546 0.07922 0.27443 0.0
H1078 H 0.46759 0.06239 0.2407 0.0
C1079 C 0.34323 -0.00823 0.26231 0.0
C1080 C 0.27254 0.21744 0.60662 0.0
C1081 C 0.31013 0.25727 0.6087 0.0
H1082 H 0.23674 0.18441 0.58648 0.0
C1083 C 0.33952 0.29641 0.59176 0.0
H1084 H 0.24903 0.18724 0.61951 0.0
C1085 C 0.33258 0.29467 0.57301 0.0
C1086 C 0.29594 0.254 0.5709 0.0
H1087 H 0.36917 0.32707 0.59298 0.0
H1088 H 0.35604 0.32503 0.56014 0.0
C1089 C 0.2652 0.21612 0.58782 0.0
C1090 C 0.84987 0.9671 0.35902 0.0
C1091 C 0.88951 0.00413 0.36136 0.0
H1092 H 0.81076 0.93943 0.33856 0.0
C1093 C 0.92035 0.04263 0.34463 0.0
H1094 H 0.82585 0.93689 0.37178 0.0
C1095 C 0.91145 0.04446 0.32579 0.0
C1096 C 0.87193 0.00741 0.32338 0.0
H1097 H 0.95068 0.07206 0.34614 0.0
H1098 H 0.93604 0.07429 0.31308 0.0
C1099 C 0.84149 -0.03168 0.34011 0.0
C1100 C 0.11143 0.50484 0.1457 0.0
C1101 C 0.14919 0.51565 0.15724 0.0
H1102 H 0.08845 0.52194 0.11684 0.0
C1103 C 0.1933 0.5552 0.14757 0.0
H1104 H 0.07723 0.47442 0.15247 0.0
C1105 C 0.19981 0.5826 0.12705 0.0
C1106 C 0.16224 0.5717 0.11545 0.0
H1107 H 0.22332 0.56489 0.15584 0.0
H1108 H 0.23397 0.61307 0.1203 0.0
C1109 C 0.11777 0.5325 0.12517 0.0
C1110 C 0.6422 0.93172 0.81167 0.0
C1111 C 0.58886 0.92273 0.82674 0.0
H1112 H 0.69205 0.92782 0.7821 0.0
C1113 C 0.54345 0.89941 0.82082 0.0
H1114 H 0.67929 0.94976 0.81427 0.0
C1115 C 0.55077 0.88723 0.80128 0.0
C1116 C 0.60435 0.89684 0.78642 0.0
H1117 H 0.5012 0.89055 0.83119 0.0
H1118 H 0.51374 0.87102 0.79782 0.0
C1119 C 0.64968 0.91896 0.79247 0.0
loop_
_geom_bond_atom_site_label_1
_geom_bond_atom_site_label_2
_geom_bond_distance
_geom_bond_site_symmetry_2
_ccdc_geom_bond_type
Nd0 C2 2.836 . S
Nd0 O20 2.500 . S
Nd0 O21 2.492 . S
Nd0 O22 2.487 . S
Nd0 O23 2.682 . S
Nd0 O24 2.410 . S
Nd0 O29 2.414 . S
Nd0 O31 2.424 . S
Nd1 C11 2.836 . S
Nd1 O23 2.414 . S
Nd1 O25 2.424 . S
Nd1 O26 2.500 . S
Nd1 O27 2.492 . S
Nd1 O28 2.487 . S
Nd1 O29 2.682 . S
Nd1 O30 2.410 . S
C2 Nd0 2.836 . S
C2 C3 1.498 . S
C2 O20 1.258 . S
C2 O21 1.239 . S
C3 C2 1.498 . S
C3 C4 1.366 . S
C3 C8 1.407 . S
C4 C3 1.366 . S
C4 C5 1.392 . S
C4 H32 0.930 . S
C5 C4 1.392 . S
C5 C6 1.398 . S
C5 H33 0.929 . S
C6 C5 1.398 . S
C6 C7 1.352 . S
C7 C6 1.352 . S
C7 C8 1.384 . S
C7 H34 0.930 . S
C8 C3 1.407 . S
C8 C7 1.384 . S
C8 H35 0.929 . S
C9 O22 1.241 . S
C9 O23 1.273 . S
C10 O24 1.251 . S
C10 O25 1.268 . S
C11 Nd1 2.836 . S
C11 C12 1.498 . S
C11 O26 1.258 . S
C11 O27 1.239 . S
C12 C11 1.498 . S
C12 C13 1.381 . S
C12 C17 1.407 . S
C13 C12 1.381 . S
C13 C14 1.366 1_554 S
C13 H36 0.943 . S
C14 C13 1.366 1_556 S
C14 C15 1.398 . S
C14 H37 0.929 . S
C15 C14 1.398 . S
C15 C16 1.352 . S
C16 C15 1.352 . S
C16 C17 1.384 1_556 S
C16 H38 0.930 . S
C17 C12 1.407 . S
C17 C16 1.384 1_554 S
C17 H39 0.929 . S
C18 O28 1.241 . S
C18 O29 1.273 . S
C19 O30 1.251 . S
C19 O31 1.268 . S
O20 Nd0 2.500 . S
O20 C2 1.258 . S
O21 Nd0 2.492 . S
O21 C2 1.239 . S
O22 Nd0 2.487 . S
O22 C9 1.241 . S
O23 Nd0 2.682 . S
O23 Nd1 2.414 . S
O23 C9 1.273 . S
O24 Nd0 2.410 . S
O24 C10 1.251 . S
O25 Nd1 2.424 . S
O25 C10 1.268 . S
O26 Nd1 2.500 . S
O26 C11 1.258 . S
O27 Nd1 2.492 . S
O27 C11 1.239 . S
O28 Nd1 2.487 . S
O28 C18 1.241 . S
O29 Nd0 2.414 . S
O29 Nd1 2.682 . S
O29 C18 1.273 . S
O30 Nd1 2.410 . S
O30 C19 1.251 . S
O31 Nd0 2.424 . S
O31 C19 1.268 . S
H32 C4 0.930 . S
H33 C5 0.929 . S
H34 C7 0.930 . S
H35 C8 0.929 . S
H36 C13 0.943 . S
H37 C14 0.929 . S
H38 C16 0.930 . S
H39 C17 0.929 . S
Nd40 C42 2.836 . S
Nd40 O60 2.500 . S
Nd40 O61 2.492 . S
Nd40 O62 2.487 . S
Nd40 O63 2.682 . S
Nd40 O64 2.410 . S
Nd40 O69 2.414 . S
Nd40 O71 2.424 . S
Nd41 C51 2.836 . S
Nd41 O63 2.414 . S
Nd41 O65 2.424 . S
Nd41 O66 2.500 . S
Nd41 O67 2.492 . S
Nd41 O68 2.487 . S
Nd41 O69 2.682 . S
Nd41 O70 2.410 . S
C42 Nd40 2.836 . S
C42 C43 1.498 . S
C42 O60 1.258 . S
C42 O61 1.239 . S
C43 C42 1.498 . S
C43 C44 1.366 . S
C43 C48 1.407 . S
C44 C43 1.366 . S
C44 C45 1.392 . S
C44 H72 0.930 . S
C45 C44 1.392 . S
C45 C46 1.398 . S
C45 H73 0.929 . S
C46 C45 1.398 . S
C46 C47 1.352 . S
C47 C46 1.352 . S
C47 C48 1.384 . S
C47 H74 0.930 . S
C48 C43 1.407 . S
C48 C47 1.384 . S
C48 H75 0.929 . S
C49 O62 1.241 . S
C49 O63 1.273 . S
C50 O64 1.251 . S
C50 O65 1.268 . S
C51 Nd41 2.836 . S
C51 C52 1.498 . S
C51 O66 1.258 . S
C51 O67 1.239 . S
C52 C51 1.498 . S
C52 C53 1.366 . S
C52 C57 1.407 . S
C53 C52 1.366 . S
C53 C54 1.392 . S
C53 H76 0.930 . S
C54 C53 1.392 . S
C54 C55 1.398 . S
C54 H77 0.929 . S
C55 C54 1.398 . S
C55 C56 1.352 . S
C56 C55 1.352 . S
C56 C57 1.384 . S
C56 H78 0.930 . S
C57 C52 1.407 . S
C57 C56 1.384 . S
C57 H79 0.929 . S
C58 O68 1.241 . S
C58 O69 1.273 . S
C59 O70 1.251 . S
C59 O71 1.268 . S
O60 Nd40 2.500 . S
O60 C42 1.258 . S
O61 Nd40 2.492 . S
O61 C42 1.239 . S
O62 Nd40 2.487 . S
O62 C49 1.241 . S
O63 Nd40 2.682 . S
O63 Nd41 2.414 . S
O63 C49 1.273 . S
O64 Nd40 2.410 . S
O64 C50 1.251 . S
O65 Nd41 2.424 . S
O65 C50 1.268 . S
O66 Nd41 2.500 . S
O66 C51 1.258 . S
O67 Nd41 2.492 . S
O67 C51 1.239 . S
O68 Nd41 2.487 . S
O68 C58 1.241 . S
O69 Nd40 2.414 . S
O69 Nd41 2.682 . S
O69 C58 1.273 . S
O70 Nd41 2.410 . S
O70 C59 1.251 . S
O71 Nd40 2.424 . S
O71 C59 1.268 . S
H72 C44 0.930 . S
H73 C45 0.929 . S
H74 C47 0.930 . S
H75 C48 0.929 . S
H76 C53 0.930 . S
H77 C54 0.929 . S
H78 C56 0.930 . S
H79 C57 0.929 . S
Nd80 C82 2.836 . S
Nd80 O100 2.500 . S
Nd80 O101 2.492 . S
Nd80 O102 2.487 . S
Nd80 O103 2.682 . S
Nd80 O104 2.410 . S
Nd80 O109 2.414 . S
Nd80 O111 2.424 . S
Nd81 C91 2.836 . S
Nd81 O103 2.414 . S
Nd81 O105 2.424 . S
Nd81 O106 2.500 . S
Nd81 O107 2.492 . S
Nd81 O108 2.487 . S
Nd81 O109 2.682 . S
Nd81 O110 2.410 . S
C82 Nd80 2.836 . S
C82 C83 1.498 . S
C82 O100 1.258 . S
C82 O101 1.239 . S
C83 C82 1.498 . S
C83 C84 1.366 . S
C83 C88 1.407 . S
C84 C83 1.366 . S
C84 C85 1.392 . S
C84 H112 0.930 . S
C85 C84 1.392 . S
C85 C86 1.398 . S
C85 H113 0.929 . S
C86 C85 1.398 . S
C86 C87 1.352 . S
C87 C86 1.352 . S
C87 C88 1.384 . S
C87 H114 0.930 1_455 S
C88 C83 1.407 . S
C88 C87 1.384 . S
C88 H115 0.929 1_455 S
C89 O102 1.241 . S
C89 O103 1.273 . S
C90 O104 1.251 . S
C90 O105 1.268 . S
C91 Nd81 2.836 . S
C91 C92 1.498 . S
C91 O106 1.258 . S
C91 O107 1.239 . S
C92 C91 1.498 . S
C92 C93 1.366 . S
C92 C97 1.407 . S
C93 C92 1.366 . S
C93 C94 1.392 . S
C93 H116 0.930 . S
C94 C93 1.392 . S
C94 C95 1.398 . S
C94 H117 0.929 . S
C95 C94 1.398 . S
C95 C96 1.352 . S
C96 C95 1.352 . S
C96 C97 1.384 . S
C96 H118 0.930 . S
C97 C92 1.407 . S
C97 C96 1.384 . S
C97 H119 0.929 . S
C98 O108 1.241 . S
C98 O109 1.273 . S
C99 O110 1.251 . S
C99 O111 1.268 . S
O100 Nd80 2.500 . S
O100 C82 1.258 . S
O101 Nd80 2.492 . S
O101 C82 1.239 . S
O102 Nd80 2.487 . S
O102 C89 1.241 . S
O103 Nd80 2.682 . S
O103 Nd81 2.414 . S
O103 C89 1.273 . S
O104 Nd80 2.410 . S
O104 C90 1.251 . S
O105 Nd81 2.424 . S
O105 C90 1.268 . S
O106 Nd81 2.500 . S
O106 C91 1.258 . S
O107 Nd81 2.492 . S
O107 C91 1.239 . S
O108 Nd81 2.487 . S
O108 C98 1.241 . S
O109 Nd80 2.414 . S
O109 Nd81 2.682 . S
O109 C98 1.273 . S
O110 Nd81 2.410 . S
O110 C99 1.251 . S
O111 Nd80 2.424 . S
O111 C99 1.268 . S
H112 C84 0.930 . S
H113 C85 0.929 . S
H114 C87 0.930 1_655 S
H115 C88 0.929 1_655 S
H116 C93 0.930 . S
H117 C94 0.929 . S
H118 C96 0.930 . S
H119 C97 0.929 . S
Nd120 C122 2.836 . S
Nd120 O140 2.500 . S
Nd120 O141 2.492 . S
Nd120 O142 2.487 . S
Nd120 O143 2.682 . S
Nd120 O144 2.410 . S
Nd120 O149 2.414 . S
Nd120 O151 2.424 . S
Nd121 C131 2.836 1_655 S
Nd121 O143 2.414 . S
Nd121 O145 2.424 . S
Nd121 O146 2.500 1_655 S
Nd121 O147 2.492 1_655 S
Nd121 O148 2.487 1_655 S
Nd121 O149 2.682 . S
Nd121 O150 2.410 . S
C122 Nd120 2.836 . S
C122 C123 1.498 . S
C122 O140 1.258 . S
C122 O141 1.239 . S
C123 C122 1.498 . S
C123 C124 1.366 . S
C123 C128 1.407 . S
C124 C123 1.366 . S
C124 C125 1.392 . S
C124 H152 0.930 . S
C125 C124 1.392 . S
C125 C126 1.398 . S
C125 H153 0.929 . S
C126 C125 1.398 . S
C126 C127 1.352 . S
C127 C126 1.352 . S
C127 C128 1.384 . S
C127 H154 0.930 . S
C128 C123 1.407 . S
C128 C127 1.384 . S
C128 H155 0.929 . S
C129 O142 1.241 . S
C129 O143 1.273 . S
C130 O144 1.251 . S
C130 O145 1.268 . S
C131 Nd121 2.836 1_455 S
C131 C132 1.498 . S
C131 O146 1.258 . S
C131 O147 1.239 . S
C132 C131 1.498 . S
C132 C133 1.366 . S
C132 C137 1.407 . S
C133 C132 1.366 . S
C133 C134 1.392 . S
C133 H156 0.930 . S
C134 C133 1.392 . S
C134 C135 1.398 . S
C134 H157 0.929 . S
C135 C134 1.398 . S
C135 C136 1.352 . S
C136 C135 1.352 . S
C136 C137 1.384 . S
C136 H158 0.930 . S
C137 C132 1.407 . S
C137 C136 1.384 . S
C137 H159 0.929 . S
C138 O148 1.241 . S
C138 O149 1.273 1_455 S
C139 O150 1.251 . S
C139 O151 1.268 . S
O140 Nd120 2.500 . S
O140 C122 1.258 . S
O141 Nd120 2.492 . S
O141 C122 1.239 . S
O142 Nd120 2.487 . S
O142 C129 1.241 . S
O143 Nd120 2.682 . S
O143 Nd121 2.414 . S
O143 C129 1.273 . S
O144 Nd120 2.410 . S
O144 C130 1.251 . S
O145 Nd121 2.424 . S
O145 C130 1.268 . S
O146 Nd121 2.500 1_455 S
O146 C131 1.258 . S
O147 Nd121 2.492 1_455 S
O147 C131 1.239 . S
O148 Nd121 2.487 1_455 S
O148 C138 1.241 . S
O149 Nd120 2.414 . S
O149 Nd121 2.682 . S
O149 C138 1.273 1_655 S
O150 Nd121 2.410 . S
O150 C139 1.251 . S
O151 Nd120 2.424 . S
O151 C139 1.268 . S
H152 C124 0.930 . S
H153 C125 0.929 . S
H154 C127 0.930 . S
H155 C128 0.929 . S
H156 C133 0.930 . S
H157 C134 0.929 . S
H158 C136 0.930 . S
H159 C137 0.929 . S
Nd160 C162 2.836 . S
Nd160 O180 2.500 . S
Nd160 O181 2.492 . S
Nd160 O182 2.487 . S
Nd160 O183 2.682 . S
Nd160 O184 2.410 . S
Nd160 O189 2.414 . S
Nd160 O191 2.424 . S
Nd161 C171 2.836 . S
Nd161 O183 2.414 . S
Nd161 O185 2.424 . S
Nd161 O186 2.500 . S
Nd161 O187 2.492 . S
Nd161 O188 2.487 . S
Nd161 O189 2.682 . S
Nd161 O190 2.410 . S
C162 Nd160 2.836 . S
C162 C163 1.498 . S
C162 O180 1.258 . S
C162 O181 1.239 . S
C163 C162 1.498 . S
C163 C164 1.381 . S
C163 C168 1.407 . S
C164 C163 1.381 . S
C164 C165 1.366 1_556 S
C164 H192 0.943 . S
C165 C164 1.366 1_554 S
C165 C166 1.398 . S
C165 H193 0.929 . S
C166 C165 1.398 . S
C166 C167 1.352 . S
C167 C166 1.352 . S
C167 C168 1.384 1_554 S
C167 H194 0.930 . S
C168 C163 1.407 . S
C168 C167 1.384 1_556 S
C168 H195 0.929 . S
C169 O182 1.241 . S
C169 O183 1.273 . S
C170 O184 1.251 . S
C170 O185 1.268 . S
C171 Nd161 2.836 . S
C171 C172 1.498 . S
C171 O186 1.258 . S
C171 O187 1.239 . S
C172 C171 1.498 . S
C172 C173 1.366 . S
C172 C177 1.407 . S
C173 C172 1.366 . S
C173 C174 1.392 . S
C173 H196 0.930 . S
C174 C173 1.392 . S
C174 C175 1.398 . S
C174 H197 0.929 . S
C175 C174 1.398 . S
C175 C176 1.352 . S
C176 C175 1.352 . S
C176 C177 1.384 . S
C176 H198 0.930 . S
C177 C172 1.407 . S
C177 C176 1.384 . S
C177 H199 0.929 . S
C178 O188 1.241 . S
C178 O189 1.273 . S
C179 O190 1.251 . S
C179 O191 1.268 . S
O180 Nd160 2.500 . S
O180 C162 1.258 . S
O181 Nd160 2.492 . S
O181 C162 1.239 . S
O182 Nd160 2.487 . S
O182 C169 1.241 . S
O183 Nd160 2.682 . S
O183 Nd161 2.414 . S
O183 C169 1.273 . S
O184 Nd160 2.410 . S
O184 C170 1.251 . S
O185 Nd161 2.424 . S
O185 C170 1.268 . S
O186 Nd161 2.500 . S
O186 C171 1.258 . S
O187 Nd161 2.492 . S
O187 C171 1.239 . S
O188 Nd161 2.487 . S
O188 C178 1.241 . S
O189 Nd160 2.414 . S
O189 Nd161 2.682 . S
O189 C178 1.273 . S
O190 Nd161 2.410 . S
O190 C179 1.251 . S
O191 Nd160 2.424 . S
O191 C179 1.268 . S
H192 C164 0.943 . S
H193 C165 0.929 . S
H194 C167 0.930 . S
H195 C168 0.929 . S
H196 C173 0.930 . S
H197 C174 0.929 . S
H198 C176 0.930 . S
H199 C177 0.929 . S
Nd200 C202 2.836 . S
Nd200 O220 2.500 . S
Nd200 O221 2.492 . S
Nd200 O222 2.487 . S
Nd200 O223 2.682 . S
Nd200 O224 2.410 . S
Nd200 O229 2.414 . S
Nd200 O231 2.424 . S
Nd201 C211 2.836 . S
Nd201 O223 2.414 . S
Nd201 O225 2.424 . S
Nd201 O226 2.500 . S
Nd201 O227 2.492 . S
Nd201 O228 2.487 . S
Nd201 O229 2.682 . S
Nd201 O230 2.410 . S
C202 Nd200 2.836 . S
C202 C203 1.498 . S
C202 O220 1.258 . S
C202 O221 1.239 . S
C203 C202 1.498 . S
C203 C204 1.366 . S
C203 C208 1.407 . S
C204 C203 1.366 . S
C204 C205 1.392 . S
C204 H232 0.930 . S
C205 C204 1.392 . S
C205 C206 1.398 . S
C205 H233 0.929 . S
C206 C205 1.398 . S
C206 C207 1.352 . S
C207 C206 1.352 . S
C207 C208 1.384 . S
C207 H234 0.930 . S
C208 C203 1.407 . S
C208 C207 1.384 . S
C208 H235 0.929 . S
C209 O222 1.241 . S
C209 O223 1.273 . S
C210 O224 1.251 . S
C210 O225 1.268 . S
C211 Nd201 2.836 . S
C211 C212 1.498 . S
C211 O226 1.258 . S
C211 O227 1.239 . S
C212 C211 1.498 . S
C212 C213 1.366 . S
C212 C217 1.407 . S
C213 C212 1.366 . S
C213 C214 1.392 . S
C213 H236 0.930 . S
C214 C213 1.392 . S
C214 C215 1.398 . S
C214 H237 0.929 . S
C215 C214 1.398 . S
C215 C216 1.352 . S
C216 C215 1.352 . S
C216 C217 1.384 . S
C216 H238 0.930 . S
C217 C212 1.407 . S
C217 C216 1.384 . S
C217 H239 0.929 . S
C218 O228 1.241 . S
C218 O229 1.273 . S
C219 O230 1.251 . S
C219 O231 1.268 . S
O220 Nd200 2.500 . S
O220 C202 1.258 . S
O221 Nd200 2.492 . S
O221 C202 1.239 . S
O222 Nd200 2.487 . S
O222 C209 1.241 . S
O223 Nd200 2.682 . S
O223 Nd201 2.414 . S
O223 C209 1.273 . S
O224 Nd200 2.410 . S
O224 C210 1.251 . S
O225 Nd201 2.424 . S
O225 C210 1.268 . S
O226 Nd201 2.500 . S
O226 C211 1.258 . S
O227 Nd201 2.492 . S
O227 C211 1.239 . S
O228 Nd201 2.487 . S
O228 C218 1.241 . S
O229 Nd200 2.414 . S
O229 Nd201 2.682 . S
O229 C218 1.273 . S
O230 Nd201 2.410 . S
O230 C219 1.251 . S
O231 Nd200 2.424 . S
O231 C219 1.268 . S
H232 C204 0.930 . S
H233 C205 0.929 . S
H234 C207 0.930 . S
H235 C208 0.929 . S
H236 C213 0.930 . S
H237 C214 0.929 . S
H238 C216 0.930 . S
H239 C217 0.929 . S
Nd240 C242 2.836 . S
Nd240 O260 2.500 . S
Nd240 O261 2.492 . S
Nd240 O262 2.487 . S
Nd240 O263 2.682 . S
Nd240 O264 2.410 . S
Nd240 O269 2.414 . S
Nd240 O271 2.424 . S
Nd241 C251 2.836 . S
Nd241 O263 2.414 . S
Nd241 O265 2.424 . S
Nd241 O266 2.500 . S
Nd241 O267 2.492 . S
Nd241 O268 2.487 . S
Nd241 O269 2.682 . S
Nd241 O270 2.410 . S
C242 Nd240 2.836 . S
C242 C243 1.498 . S
C242 O260 1.258 . S
C242 O261 1.239 . S
C243 C242 1.498 . S
C243 C244 1.366 . S
C243 C248 1.407 . S
C244 C243 1.366 . S
C244 C245 1.392 . S
C244 H272 0.930 . S
C245 C244 1.392 . S
C245 C246 1.398 . S
C245 H273 0.929 . S
C246 C245 1.398 . S
C246 C247 1.352 . S
C247 C246 1.352 . S
C247 C248 1.384 . S
C247 H274 0.930 . S
C248 C243 1.407 . S
C248 C247 1.384 . S
C248 H275 0.929 . S
C249 O262 1.241 . S
C249 O263 1.273 . S
C250 O264 1.251 . S
C250 O265 1.268 . S
C251 Nd241 2.836 . S
C251 C252 1.498 . S
C251 O266 1.258 . S
C251 O267 1.239 . S
C252 C251 1.498 . S
C252 C253 1.366 . S
C252 C257 1.407 . S
C253 C252 1.366 . S
C253 C254 1.392 . S
C253 H276 0.930 . S
C254 C253 1.392 . S
C254 C255 1.398 . S
C254 H277 0.929 . S
C255 C254 1.398 . S
C255 C256 1.352 . S
C256 C255 1.352 . S
C256 C257 1.384 . S
C256 H278 0.930 1_655 S
C257 C252 1.407 . S
C257 C256 1.384 . S
C257 H279 0.929 1_655 S
C258 O268 1.241 . S
C258 O269 1.273 . S
C259 O270 1.251 . S
C259 O271 1.268 . S
O260 Nd240 2.500 . S
O260 C242 1.258 . S
O261 Nd240 2.492 . S
O261 C242 1.239 . S
O262 Nd240 2.487 . S
O262 C249 1.241 . S
O263 Nd240 2.682 . S
O263 Nd241 2.414 . S
O263 C249 1.273 . S
O264 Nd240 2.410 . S
O264 C250 1.251 . S
O265 Nd241 2.424 . S
O265 C250 1.268 . S
O266 Nd241 2.500 . S
O266 C251 1.258 . S
O267 Nd241 2.492 . S
O267 C251 1.239 . S
O268 Nd241 2.487 . S
O268 C258 1.241 . S
O269 Nd240 2.414 . S
O269 Nd241 2.682 . S
O269 C258 1.273 . S
O270 Nd241 2.410 . S
O270 C259 1.251 . S
O271 Nd240 2.424 . S
O271 C259 1.268 . S
H272 C244 0.930 . S
H273 C245 0.929 . S
H274 C247 0.930 . S
H275 C248 0.929 . S
H276 C253 0.930 . S
H277 C254 0.929 . S
H278 C256 0.930 1_455 S
H279 C257 0.929 1_455 S
Nd280 C282 2.836 1_455 S
Nd280 O300 2.500 1_455 S
Nd280 O301 2.492 1_455 S
Nd280 O302 2.487 1_455 S
Nd280 O303 2.682 . S
Nd280 O304 2.410 . S
Nd280 O309 2.414 . S
Nd280 O311 2.424 . S
Nd281 C291 2.836 . S
Nd281 O303 2.414 . S
Nd281 O305 2.424 . S
Nd281 O306 2.500 . S
Nd281 O307 2.492 . S
Nd281 O308 2.487 . S
Nd281 O309 2.682 . S
Nd281 O310 2.410 . S
C282 Nd280 2.836 1_655 S
C282 C283 1.498 . S
C282 O300 1.258 . S
C282 O301 1.239 . S
C283 C282 1.498 . S
C283 C284 1.366 . S
C283 C288 1.407 . S
C284 C283 1.366 . S
C284 C285 1.392 . S
C284 H312 0.930 . S
C285 C284 1.392 . S
C285 C286 1.398 . S
C285 H313 0.929 . S
C286 C285 1.398 . S
C286 C287 1.352 . S
C287 C286 1.352 . S
C287 C288 1.384 . S
C287 H314 0.930 . S
C288 C283 1.407 . S
C288 C287 1.384 . S
C288 H315 0.929 . S
C289 O302 1.241 . S
C289 O303 1.273 1_655 S
C290 O304 1.251 . S
C290 O305 1.268 . S
C291 Nd281 2.836 . S
C291 C292 1.498 . S
C291 O306 1.258 . S
C291 O307 1.239 . S
C292 C291 1.498 . S
C292 C293 1.366 . S
C292 C297 1.407 . S
C293 C292 1.366 . S
C293 C294 1.392 . S
C293 H316 0.930 . S
C294 C293 1.392 . S
C294 C295 1.398 . S
C294 H317 0.929 . S
C295 C294 1.398 . S
C295 C296 1.352 . S
C296 C295 1.352 . S
C296 C297 1.384 . S
C296 H318 0.930 . S
C297 C292 1.407 . S
C297 C296 1.384 . S
C297 H319 0.929 . S
C298 O308 1.241 . S
C298 O309 1.273 . S
C299 O310 1.251 . S
C299 O311 1.268 . S
O300 Nd280 2.500 1_655 S
O300 C282 1.258 . S
O301 Nd280 2.492 1_655 S
O301 C282 1.239 . S
O302 Nd280 2.487 1_655 S
O302 C289 1.241 . S
O303 Nd280 2.682 . S
O303 Nd281 2.414 . S
O303 C289 1.273 1_455 S
O304 Nd280 2.410 . S
O304 C290 1.251 . S
O305 Nd281 2.424 . S
O305 C290 1.268 . S
O306 Nd281 2.500 . S
O306 C291 1.258 . S
O307 Nd281 2.492 . S
O307 C291 1.239 . S
O308 Nd281 2.487 . S
O308 C298 1.241 . S
O309 Nd280 2.414 . S
O309 Nd281 2.682 . S
O309 C298 1.273 . S
O310 Nd281 2.410 . S
O310 C299 1.251 . S
O311 Nd280 2.424 . S
O311 C299 1.268 . S
H312 C284 0.930 . S
H313 C285 0.929 . S
H314 C287 0.930 . S
H315 C288 0.929 . S
H316 C293 0.930 . S
H317 C294 0.929 . S
H318 C296 0.930 . S
H319 C297 0.929 . S
Nd320 C322 2.836 . S
Nd320 O340 2.500 . S
Nd320 O341 2.492 . S
Nd320 O342 2.487 . S
Nd320 O343 2.682 . S
Nd320 O344 2.410 . S
Nd320 O349 2.414 . S
Nd320 O351 2.424 . S
Nd321 C331 2.836 . S
Nd321 O343 2.414 . S
Nd321 O345 2.424 . S
Nd321 O346 2.500 . S
Nd321 O347 2.492 . S
Nd321 O348 2.487 . S
Nd321 O349 2.682 . S
Nd321 O350 2.410 . S
C322 Nd320 2.836 . S
C322 C323 1.498 . S
C322 O340 1.258 . S
C322 O341 1.239 . S
C323 C322 1.498 . S
C323 C324 1.366 . S
C323 C328 1.407 . S
C324 C323 1.366 . S
C324 C325 1.392 . S
C324 H352 0.930 . S
C325 C324 1.392 . S
C325 C326 1.398 . S
C325 H353 0.929 . S
C326 C325 1.398 . S
C326 C327 1.352 . S
C327 C326 1.352 . S
C327 C328 1.384 . S
C327 H354 0.930 . S
C328 C323 1.407 . S
C328 C327 1.384 . S
C328 H355 0.929 . S
C329 O342 1.241 . S
C329 O343 1.273 . S
C330 O344 1.251 . S
C330 O345 1.268 . S
C331 Nd321 2.836 . S
C331 C332 1.498 . S
C331 O346 1.258 . S
C331 O347 1.239 . S
C332 C331 1.498 . S
C332 C333 1.366 . S
C332 C337 1.407 . S
C333 C332 1.366 . S
C333 C334 1.392 . S
C333 H356 0.930 . S
C334 C333 1.392 . S
C334 C335 1.398 . S
C334 H357 0.929 . S
C335 C334 1.398 . S
C335 C336 1.352 . S
C336 C335 1.352 . S
C336 C337 1.384 . S
C336 H358 0.930 . S
C337 C332 1.407 . S
C337 C336 1.384 . S
C337 H359 0.929 . S
C338 O348 1.241 . S
C338 O349 1.273 . S
C339 O350 1.251 . S
C339 O351 1.268 . S
O340 Nd320 2.500 . S
O340 C322 1.258 . S
O341 Nd320 2.492 . S
O341 C322 1.239 . S
O342 Nd320 2.487 . S
O342 C329 1.241 . S
O343 Nd320 2.682 . S
O343 Nd321 2.414 . S
O343 C329 1.273 . S
O344 Nd320 2.410 . S
O344 C330 1.251 . S
O345 Nd321 2.424 . S
O345 C330 1.268 . S
O346 Nd321 2.500 . S
O346 C331 1.258 . S
O347 Nd321 2.492 . S
O347 C331 1.239 . S
O348 Nd321 2.487 . S
O348 C338 1.241 . S
O349 Nd320 2.414 . S
O349 Nd321 2.682 . S
O349 C338 1.273 . S
O350 Nd321 2.410 . S
O350 C339 1.251 . S
O351 Nd320 2.424 . S
O351 C339 1.268 . S
H352 C324 0.930 . S
H353 C325 0.929 . S
H354 C327 0.930 . S
H355 C328 0.929 . S
H356 C333 0.930 . S
H357 C334 0.929 . S
H358 C336 0.930 . S
H359 C337 0.929 . S
Nd360 C362 2.836 . S
Nd360 O380 2.500 . S
Nd360 O381 2.492 . S
Nd360 O382 2.487 . S
Nd360 O383 2.682 . S
Nd360 O384 2.410 . S
Nd360 O389 2.414 . S
Nd360 O391 2.424 . S
Nd361 C371 2.836 . S
Nd361 O383 2.414 . S
Nd361 O385 2.424 . S
Nd361 O386 2.500 . S
Nd361 O387 2.487 1_545 S
Nd361 O388 2.487 1_545 S
Nd361 O389 2.682 . S
Nd361 O390 2.410 . S
C362 Nd360 2.836 . S
C362 C363 1.498 . S
C362 O380 1.258 . S
C362 O381 1.239 . S
C363 C362 1.498 . S
C363 C364 1.366 . S
C363 C368 1.407 . S
C364 C363 1.366 . S
C364 C365 1.392 . S
C364 H392 0.930 . S
C365 C364 1.392 . S
C365 C366 1.398 . S
C365 H393 0.929 . S
C366 C365 1.398 . S
C366 C367 1.352 . S
C367 C366 1.352 . S
C367 C368 1.384 . S
C367 H394 0.930 . S
C368 C363 1.407 . S
C368 C367 1.384 . S
C368 H395 0.929 . S
C369 O382 1.241 . S
C369 O383 1.273 . S
C370 O384 1.251 . S
C370 O385 1.268 . S
C371 Nd361 2.836 . S
C371 C372 1.498 . S
C371 O386 1.258 . S
C371 O387 1.233 1_545 S
C372 C371 1.498 . S
C372 C373 1.366 . S
C372 C377 1.407 1_545 S
C373 C372 1.366 . S
C373 C374 1.392 . S
C373 H396 0.930 . S
C374 C373 1.392 . S
C374 C375 1.398 . S
C374 H397 0.929 . S
C375 C374 1.398 . S
C375 C376 1.352 1_545 S
C376 C375 1.352 1_565 S
C376 C377 1.384 . S
C376 H398 0.930 . S
C377 C372 1.407 1_565 S
C377 C376 1.384 . S
C377 H399 0.929 . S
C378 O388 1.241 . S
C378 O389 1.273 1_565 S
C379 O390 1.251 . S
C379 O391 1.268 . S
O380 Nd360 2.500 . S
O380 C362 1.258 . S
O381 Nd360 2.492 . S
O381 C362 1.239 . S
O382 Nd360 2.487 . S
O382 C369 1.241 . S
O383 Nd360 2.682 . S
O383 Nd361 2.414 . S
O383 C369 1.273 . S
O384 Nd360 2.410 . S
O384 C370 1.251 . S
O385 Nd361 2.424 . S
O385 C370 1.268 . S
O386 Nd361 2.500 . S
O386 C371 1.258 . S
O387 Nd361 2.487 1_565 S
O387 C371 1.233 1_565 S
O388 Nd361 2.487 1_565 S
O388 C378 1.241 . S
O389 Nd360 2.414 . S
O389 Nd361 2.682 . S
O389 C378 1.273 1_545 S
O390 Nd361 2.410 . S
O390 C379 1.251 . S
O391 Nd360 2.424 . S
O391 C379 1.268 . S
H392 C364 0.930 . S
H393 C365 0.929 . S
H394 C367 0.930 . S
H395 C368 0.929 . S
H396 C373 0.930 . S
H397 C374 0.929 . S
H398 C376 0.930 . S
H399 C377 0.929 . S
Nd400 C402 2.836 . S
Nd400 O420 2.500 . S
Nd400 O421 2.492 . S
Nd400 O422 2.487 . S
Nd400 O423 2.682 . S
Nd400 O424 2.410 . S
Nd400 O429 2.414 . S
Nd400 O431 2.424 . S
Nd401 C411 2.836 . S
Nd401 O423 2.414 . S
Nd401 O425 2.424 . S
Nd401 O426 2.500 . S
Nd401 O427 2.492 . S
Nd401 O428 2.487 . S
Nd401 O429 2.682 . S
Nd401 O430 2.410 . S
C402 Nd400 2.836 . S
C402 C403 1.498 . S
C402 O420 1.258 . S
C402 O421 1.239 . S
C403 C402 1.498 . S
C403 C404 1.366 . S
C403 C408 1.407 . S
C404 C403 1.366 . S
C404 C405 1.392 . S
C404 H432 0.930 . S
C405 C404 1.392 . S
C405 C406 1.398 . S
C405 H433 0.929 . S
C406 C405 1.398 . S
C406 C407 1.352 . S
C407 C406 1.352 . S
C407 C408 1.384 . S
C407 H434 0.930 . S
C408 C403 1.407 . S
C408 C407 1.384 . S
C408 H435 0.929 . S
C409 O422 1.241 . S
C409 O423 1.273 . S
C410 O424 1.251 . S
C410 O425 1.268 . S
C411 Nd401 2.836 . S
C411 C412 1.498 1_554 S
C411 O426 1.258 . S
C411 O427 1.239 . S
C412 C411 1.498 1_556 S
C412 C413 1.366 . S
C412 C417 1.407 . S
C413 C412 1.366 . S
C413 C414 1.392 . S
C413 H436 0.930 . S
C414 C413 1.392 . S
C414 C415 1.398 . S
C414 H437 0.929 . S
C415 C414 1.398 . S
C415 C416 1.352 . S
C416 C415 1.352 . S
C416 C417 1.384 . S
C416 H438 0.930 . S
C417 C412 1.407 . S
C417 C416 1.384 . S
C417 H439 0.929 . S
C418 O428 1.241 . S
C418 O429 1.273 . S
C419 O430 1.251 . S
C419 O431 1.268 . S
O420 Nd400 2.500 . S
O420 C402 1.258 . S
O421 Nd400 2.492 . S
O421 C402 1.239 . S
O422 Nd400 2.487 . S
O422 C409 1.241 . S
O423 Nd400 2.682 . S
O423 Nd401 2.414 . S
O423 C409 1.273 . S
O424 Nd400 2.410 . S
O424 C410 1.251 . S
O425 Nd401 2.424 . S
O425 C410 1.268 . S
O426 Nd401 2.500 . S
O426 C411 1.258 . S
O427 Nd401 2.492 . S
O427 C411 1.239 . S
O428 Nd401 2.487 . S
O428 C418 1.241 . S
O429 Nd400 2.414 . S
O429 Nd401 2.682 . S
O429 C418 1.273 . S
O430 Nd401 2.410 . S
O430 C419 1.251 . S
O431 Nd400 2.424 . S
O431 C419 1.268 . S
H432 C404 0.930 . S
H433 C405 0.929 . S
H434 C407 0.930 . S
H435 C408 0.929 . S
H436 C413 0.930 . S
H437 C414 0.929 . S
H438 C416 0.930 . S
H439 C417 0.929 . S
Nd440 C442 2.836 . S
Nd440 O460 2.500 . S
Nd440 O461 2.492 . S
Nd440 O462 2.487 1_565 S
Nd440 O463 2.682 1_565 S
Nd440 O464 2.410 1_565 S
Nd440 O469 2.414 . S
Nd440 O471 2.424 . S
Nd441 C451 2.836 . S
Nd441 O463 2.414 . S
Nd441 O465 2.424 . S
Nd441 O466 2.500 . S
Nd441 O467 2.492 1_545 S
Nd441 O468 2.487 1_545 S
Nd441 O469 2.682 1_545 S
Nd441 O470 2.410 1_545 S
C442 Nd440 2.836 . S
C442 C443 1.498 . S
C442 O460 1.258 . S
C442 O461 1.239 . S
C443 C442 1.498 . S
C443 C444 1.366 . S
C443 C448 1.407 . S
C444 C443 1.366 . S
C444 C445 1.392 . S
C444 H472 0.930 . S
C445 C444 1.392 . S
C445 C446 1.398 . S
C445 H473 0.929 . S
C446 C445 1.398 . S
C446 C447 1.352 . S
C447 C446 1.352 . S
C447 C448 1.384 . S
C447 H474 0.930 . S
C448 C443 1.407 . S
C448 C447 1.384 . S
C448 H475 0.929 . S
C449 O462 1.241 . S
C449 O463 1.273 . S
C450 O464 1.251 . S
C450 O465 1.268 . S
C451 Nd441 2.836 . S
C451 C452 1.498 . S
C451 O466 1.258 . S
C451 O467 1.239 1_545 S
C452 C451 1.498 . S
C452 C453 1.366 . S
C452 C457 1.407 . S
C453 C452 1.366 . S
C453 C454 1.392 . S
C453 H476 0.930 . S
C454 C453 1.392 . S
C454 C455 1.398 . S
C454 H477 0.929 . S
C455 C454 1.398 . S
C455 C456 1.352 . S
C456 C455 1.352 . S
C456 C457 1.384 . S
C456 H478 0.930 . S
C457 C452 1.407 . S
C457 C456 1.384 . S
C457 H479 0.929 1_545 S
C458 O468 1.241 . S
C458 O469 1.273 . S
C459 O470 1.251 . S
C459 O471 1.268 . S
O460 Nd440 2.500 . S
O460 C442 1.258 . S
O461 Nd440 2.492 . S
O461 C442 1.239 . S
O462 Nd440 2.487 1_545 S
O462 C449 1.241 . S
O463 Nd440 2.682 1_545 S
O463 Nd441 2.414 . S
O463 C449 1.273 . S
O464 Nd440 2.410 1_545 S
O464 C450 1.251 . S
O465 Nd441 2.424 . S
O465 C450 1.268 . S
O466 Nd441 2.500 . S
O466 C451 1.258 . S
O467 Nd441 2.492 1_565 S
O467 C451 1.239 1_565 S
O468 Nd441 2.487 1_565 S
O468 C458 1.241 . S
O469 Nd440 2.414 . S
O469 Nd441 2.682 1_565 S
O469 C458 1.273 . S
O470 Nd441 2.410 1_565 S
O470 C459 1.251 . S
O471 Nd440 2.424 . S
O471 C459 1.268 . S
H472 C444 0.930 . S
H473 C445 0.929 . S
H474 C447 0.930 . S
H475 C448 0.929 . S
H476 C453 0.930 . S
H477 C454 0.929 . S
H478 C456 0.930 . S
H479 C457 0.929 1_565 S
Nd480 C482 2.836 . S
Nd480 O500 2.500 . S
Nd480 O501 2.492 . S
Nd480 O502 2.487 . S
Nd480 O503 2.682 . S
Nd480 O504 2.410 . S
Nd480 O509 2.414 . S
Nd480 O511 2.424 . S
Nd481 C491 2.836 . S
Nd481 O503 2.414 . S
Nd481 O505 2.424 . S
Nd481 O506 2.500 . S
Nd481 O507 2.492 . S
Nd481 O508 2.487 . S
Nd481 O509 2.682 . S
Nd481 O510 2.410 . S
C482 Nd480 2.836 . S
C482 C483 1.498 . S
C482 O500 1.258 . S
C482 O501 1.239 . S
C483 C482 1.498 . S
C483 C484 1.366 . S
C483 C488 1.407 . S
C484 C483 1.366 . S
C484 C485 1.392 . S
C484 H512 0.930 . S
C485 C484 1.392 . S
C485 C486 1.398 . S
C485 H513 0.929 . S
C486 C485 1.398 . S
C486 C487 1.352 . S
C487 C486 1.352 . S
C487 C488 1.384 . S
C487 H514 0.930 . S
C488 C483 1.407 . S
C488 C487 1.384 . S
C488 H515 0.929 . S
C489 O502 1.241 . S
C489 O503 1.273 . S
C490 O504 1.251 . S
C490 O505 1.268 . S
C491 Nd481 2.836 . S
C491 C492 1.498 . S
C491 O506 1.258 . S
C491 O507 1.239 . S
C492 C491 1.498 . S
C492 C493 1.366 . S
C492 C497 1.407 . S
C493 C492 1.366 . S
C493 C494 1.392 . S
C493 H516 0.930 . S
C494 C493 1.392 . S
C494 C495 1.398 . S
C494 H517 0.929 . S
C495 C494 1.398 . S
C495 C496 1.352 . S
C496 C495 1.352 . S
C496 C497 1.384 . S
C496 H518 0.930 . S
C497 C492 1.407 . S
C497 C496 1.384 . S
C497 H519 0.929 . S
C498 O508 1.241 . S
C498 O509 1.273 . S
C499 O510 1.251 . S
C499 O511 1.268 . S
O500 Nd480 2.500 . S
O500 C482 1.258 . S
O501 Nd480 2.492 . S
O501 C482 1.239 . S
O502 Nd480 2.487 . S
O502 C489 1.241 . S
O503 Nd480 2.682 . S
O503 Nd481 2.414 . S
O503 C489 1.273 . S
O504 Nd480 2.410 . S
O504 C490 1.251 . S
O505 Nd481 2.424 . S
O505 C490 1.268 . S
O506 Nd481 2.500 . S
O506 C491 1.258 . S
O507 Nd481 2.492 . S
O507 C491 1.239 . S
O508 Nd481 2.487 . S
O508 C498 1.241 . S
O509 Nd480 2.414 . S
O509 Nd481 2.682 . S
O509 C498 1.273 . S
O510 Nd481 2.410 . S
O510 C499 1.251 . S
O511 Nd480 2.424 . S
O511 C499 1.268 . S
H512 C484 0.930 . S
H513 C485 0.929 . S
H514 C487 0.930 . S
H515 C488 0.929 . S
H516 C493 0.930 . S
H517 C494 0.929 . S
H518 C496 0.930 . S
H519 C497 0.929 . S
Nd520 C522 2.836 . S
Nd520 O540 2.500 . S
Nd520 O541 2.487 1_565 S
Nd520 O542 2.487 1_565 S
Nd520 O543 2.682 . S
Nd520 O544 2.410 . S
Nd520 O549 2.414 . S
Nd520 O551 2.424 . S
Nd521 C531 2.836 . S
Nd521 O543 2.414 . S
Nd521 O545 2.424 . S
Nd521 O546 2.500 . S
Nd521 O547 2.492 . S
Nd521 O548 2.487 . S
Nd521 O549 2.682 . S
Nd521 O550 2.410 . S
C522 Nd520 2.836 . S
C522 C523 1.498 . S
C522 O540 1.258 . S
C522 O541 1.233 1_565 S
C523 C522 1.498 . S
C523 C524 1.366 . S
C523 C528 1.407 1_565 S
C524 C523 1.366 . S
C524 C525 1.392 . S
C524 H552 0.930 . S
C525 C524 1.392 . S
C525 C526 1.398 . S
C525 H553 0.929 . S
C526 C525 1.398 . S
C526 C527 1.352 1_565 S
C527 C526 1.352 1_545 S
C527 C528 1.384 . S
C527 H554 0.930 . S
C528 C523 1.407 1_545 S
C528 C527 1.384 . S
C528 H555 0.929 . S
C529 O542 1.241 . S
C529 O543 1.273 1_545 S
C530 O544 1.251 . S
C530 O545 1.268 . S
C531 Nd521 2.836 . S
C531 C532 1.498 . S
C531 O546 1.258 . S
C531 O547 1.239 . S
C532 C531 1.498 . S
C532 C533 1.366 . S
C532 C537 1.407 . S
C533 C532 1.366 . S
C533 C534 1.392 . S
C533 H556 0.930 . S
C534 C533 1.392 . S
C534 C535 1.398 . S
C534 H557 0.929 . S
C535 C534 1.398 . S
C535 C536 1.352 . S
C536 C535 1.352 . S
C536 C537 1.384 . S
C536 H558 0.930 . S
C537 C532 1.407 . S
C537 C536 1.384 . S
C537 H559 0.929 . S
C538 O548 1.241 . S
C538 O549 1.273 . S
C539 O550 1.251 . S
C539 O551 1.268 . S
O540 Nd520 2.500 . S
O540 C522 1.258 . S
O541 Nd520 2.487 1_545 S
O541 C522 1.233 1_545 S
O542 Nd520 2.487 1_545 S
O542 C529 1.241 . S
O543 Nd520 2.682 . S
O543 Nd521 2.414 . S
O543 C529 1.273 1_565 S
O544 Nd520 2.410 . S
O544 C530 1.251 . S
O545 Nd521 2.424 . S
O545 C530 1.268 . S
O546 Nd521 2.500 . S
O546 C531 1.258 . S
O547 Nd521 2.492 . S
O547 C531 1.239 . S
O548 Nd521 2.487 . S
O548 C538 1.241 . S
O549 Nd520 2.414 . S
O549 Nd521 2.682 . S
O549 C538 1.273 . S
O550 Nd521 2.410 . S
O550 C539 1.251 . S
O551 Nd520 2.424 . S
O551 C539 1.268 . S
H552 C524 0.930 . S
H553 C525 0.929 . S
H554 C527 0.930 . S
H555 C528 0.929 . S
H556 C533 0.930 . S
H557 C534 0.929 . S
H558 C536 0.930 . S
H559 C537 0.929 . S
Nd560 C562 2.836 . S
Nd560 O580 2.500 . S
Nd560 O581 2.492 . S
Nd560 O582 2.487 . S
Nd560 O583 2.682 . S
Nd560 O584 2.410 . S
Nd560 O589 2.414 . S
Nd560 O591 2.424 . S
Nd561 C571 2.836 . S
Nd561 O583 2.414 . S
Nd561 O585 2.424 . S
Nd561 O586 2.500 . S
Nd561 O587 2.492 . S
Nd561 O588 2.487 . S
Nd561 O589 2.682 . S
Nd561 O590 2.410 . S
C562 Nd560 2.836 . S
C562 C563 1.498 1_556 S
C562 O580 1.258 . S
C562 O581 1.239 . S
C563 C562 1.498 1_554 S
C563 C564 1.366 . S
C563 C568 1.407 . S
C564 C563 1.366 . S
C564 C565 1.392 . S
C564 H592 0.930 . S
C565 C564 1.392 . S
C565 C566 1.398 . S
C565 H593 0.929 . S
C566 C565 1.398 . S
C566 C567 1.352 . S
C567 C566 1.352 . S
C567 C568 1.384 . S
C567 H594 0.930 . S
C568 C563 1.407 . S
C568 C567 1.384 . S
C568 H595 0.929 . S
C569 O582 1.241 . S
C569 O583 1.273 . S
C570 O584 1.251 . S
C570 O585 1.268 . S
C571 Nd561 2.836 . S
C571 C572 1.498 . S
C571 O586 1.258 . S
C571 O587 1.239 . S
C572 C571 1.498 . S
C572 C573 1.366 . S
C572 C577 1.407 . S
C573 C572 1.366 . S
C573 C574 1.392 . S
C573 H596 0.930 . S
C574 C573 1.392 . S
C574 C575 1.398 . S
C574 H597 0.929 . S
C575 C574 1.398 . S
C575 C576 1.352 . S
C576 C575 1.352 . S
C576 C577 1.384 . S
C576 H598 0.930 . S
C577 C572 1.407 . S
C577 C576 1.384 . S
C577 H599 0.929 . S
C578 O588 1.241 . S
C578 O589 1.273 . S
C579 O590 1.251 . S
C579 O591 1.268 . S
O580 Nd560 2.500 . S
O580 C562 1.258 . S
O581 Nd560 2.492 . S
O581 C562 1.239 . S
O582 Nd560 2.487 . S
O582 C569 1.241 . S
O583 Nd560 2.682 . S
O583 Nd561 2.414 . S
O583 C569 1.273 . S
O584 Nd560 2.410 . S
O584 C570 1.251 . S
O585 Nd561 2.424 . S
O585 C570 1.268 . S
O586 Nd561 2.500 . S
O586 C571 1.258 . S
O587 Nd561 2.492 . S
O587 C571 1.239 . S
O588 Nd561 2.487 . S
O588 C578 1.241 . S
O589 Nd560 2.414 . S
O589 Nd561 2.682 . S
O589 C578 1.273 . S
O590 Nd561 2.410 . S
O590 C579 1.251 . S
O591 Nd560 2.424 . S
O591 C579 1.268 . S
H592 C564 0.930 . S
H593 C565 0.929 . S
H594 C567 0.930 . S
H595 C568 0.929 . S
H596 C573 0.930 . S
H597 C574 0.929 . S
H598 C576 0.930 . S
H599 C577 0.929 . S
Nd600 C602 2.836 . S
Nd600 O620 2.500 . S
Nd600 O621 2.492 1_565 S
Nd600 O622 2.487 1_565 S
Nd600 O623 2.682 1_565 S
Nd600 O624 2.410 1_565 S
Nd600 O629 2.414 . S
Nd600 O631 2.424 . S
Nd601 C611 2.836 . S
Nd601 O623 2.414 . S
Nd601 O625 2.424 . S
Nd601 O626 2.500 . S
Nd601 O627 2.492 . S
Nd601 O628 2.487 1_545 S
Nd601 O629 2.682 1_545 S
Nd601 O630 2.410 1_545 S
C602 Nd600 2.836 . S
C602 C603 1.498 . S
C602 O620 1.258 . S
C602 O621 1.239 1_565 S
C603 C602 1.498 . S
C603 C604 1.366 . S
C603 C608 1.407 . S
C604 C603 1.366 . S
C604 C605 1.392 . S
C604 H632 0.930 . S
C605 C604 1.392 . S
C605 C606 1.398 . S
C605 H633 0.929 . S
C606 C605 1.398 . S
C606 C607 1.352 . S
C607 C606 1.352 . S
C607 C608 1.384 . S
C607 H634 0.930 . S
C608 C603 1.407 . S
C608 C607 1.384 . S
C608 H635 0.929 1_565 S
C609 O622 1.241 . S
C609 O623 1.273 . S
C610 O624 1.251 . S
C610 O625 1.268 . S
C611 Nd601 2.836 . S
C611 C612 1.498 . S
C611 O626 1.258 . S
C611 O627 1.239 . S
C612 C611 1.498 . S
C612 C613 1.366 . S
C612 C617 1.407 . S
C613 C612 1.366 . S
C613 C614 1.392 . S
C613 H636 0.930 . S
C614 C613 1.392 . S
C614 C615 1.398 . S
C614 H637 0.929 . S
C615 C614 1.398 . S
C615 C616 1.352 . S
C616 C615 1.352 . S
C616 C617 1.384 . S
C616 H638 0.930 . S
C617 C612 1.407 . S
C617 C616 1.384 . S
C617 H639 0.929 . S
C618 O628 1.241 . S
C618 O629 1.273 . S
C619 O630 1.251 . S
C619 O631 1.268 . S
O620 Nd600 2.500 . S
O620 C602 1.258 . S
O621 Nd600 2.492 1_545 S
O621 C602 1.239 1_545 S
O622 Nd600 2.487 1_545 S
O622 C609 1.241 . S
O623 Nd600 2.682 1_545 S
O623 Nd601 2.414 . S
O623 C609 1.273 . S
O624 Nd600 2.410 1_545 S
O624 C610 1.251 . S
O625 Nd601 2.424 . S
O625 C610 1.268 . S
O626 Nd601 2.500 . S
O626 C611 1.258 . S
O627 Nd601 2.492 . S
O627 C611 1.239 . S
O628 Nd601 2.487 1_565 S
O628 C618 1.241 . S
O629 Nd600 2.414 . S
O629 Nd601 2.682 1_565 S
O629 C618 1.273 . S
O630 Nd601 2.410 1_565 S
O630 C619 1.251 . S
O631 Nd600 2.424 . S
O631 C619 1.268 . S
H632 C604 0.930 . S
H633 C605 0.929 . S
H634 C607 0.930 . S
H635 C608 0.929 1_545 S
H636 C613 0.930 . S
H637 C614 0.929 . S
H638 C616 0.930 . S
H639 C617 0.929 . S
C640 C641 1.387 . S
C640 H644 0.950 . S
C640 C649 1.390 . S
C641 C640 1.387 . S
C641 C643 1.387 . S
H642 C649 0.950 . S
C643 C641 1.387 . S
C643 C645 1.390 . S
C643 H647 0.950 . S
H644 C640 0.950 . S
C645 C643 1.390 . S
C645 C646 1.387 . S
C645 H648 0.950 . S
C646 C645 1.387 . S
C646 C649 1.387 . S
H647 C643 0.950 . S
H648 C645 0.950 . S
C649 C640 1.390 . S
C649 H642 0.950 . S
C649 C646 1.387 . S
C650 C651 1.387 . S
C650 H654 0.950 . S
C650 C659 1.390 . S
C651 C650 1.387 . S
C651 C653 1.387 . S
H652 C659 0.950 . S
C653 C651 1.387 . S
C653 C655 1.390 . S
C653 H657 0.950 . S
H654 C650 0.950 . S
C655 C653 1.390 . S
C655 C656 1.387 . S
C655 H658 0.950 . S
C656 C655 1.387 . S
C656 C659 1.387 . S
H657 C653 0.950 . S
H658 C655 0.950 . S
C659 C650 1.390 . S
C659 H652 0.950 . S
C659 C656 1.387 . S
C660 C661 1.387 . S
C660 H664 0.950 . S
C660 C669 1.390 1_455 S
C661 C660 1.387 . S
C661 C663 1.387 . S
H662 C669 0.950 . S
C663 C661 1.387 . S
C663 C665 1.390 1_455 S
C663 H667 0.950 . S
H664 C660 0.950 . S
C665 C663 1.390 1_655 S
C665 C666 1.387 . S
C665 H668 0.950 . S
C666 C665 1.387 . S
C666 C669 1.387 . S
H667 C663 0.950 . S
H668 C665 0.950 . S
C669 C660 1.390 1_655 S
C669 H662 0.950 . S
C669 C666 1.387 . S
C670 C671 1.387 1_655 S
C670 H674 0.950 . S
C670 C679 1.390 . S
C671 C670 1.387 1_455 S
C671 C673 1.387 . S
H672 C679 0.950 . S
C673 C671 1.387 . S
C673 C675 1.390 . S
C673 H677 0.950 . S
H674 C670 0.950 . S
C675 C673 1.390 . S
C675 C676 1.387 . S
C675 H678 0.950 . S
C676 C675 1.387 . S
C676 C679 1.387 1_455 S
H677 C673 0.950 . S
H678 C675 0.950 . S
C679 C670 1.390 . S
C679 H672 0.950 . S
C679 C676 1.387 1_655 S
C680 C681 1.387 . S
C680 H684 0.950 . S
C680 C689 1.390 . S
C681 C680 1.387 . S
C681 C683 1.387 . S
H682 C689 0.950 . S
C683 C681 1.387 . S
C683 C685 1.390 . S
C683 H687 0.950 . S
H684 C680 0.950 . S
C685 C683 1.390 . S
C685 C686 1.387 . S
C685 H688 0.950 . S
C686 C685 1.387 . S
C686 C689 1.387 . S
H687 C683 0.950 . S
H688 C685 0.950 . S
C689 C680 1.390 . S
C689 H682 0.950 . S
C689 C686 1.387 . S
C690 C691 1.387 . S
C690 H694 0.950 . S
C690 C699 1.390 . S
C691 C690 1.387 . S
C691 C693 1.387 . S
H692 C699 0.950 . S
C693 C691 1.387 . S
C693 C695 1.390 . S
C693 H697 0.950 . S
H694 C690 0.950 . S
C695 C693 1.390 . S
C695 C696 1.387 . S
C695 H698 0.950 . S
C696 C695 1.387 . S
C696 C699 1.387 . S
H697 C693 0.950 . S
H698 C695 0.950 . S
C699 C690 1.390 . S
C699 H692 0.950 . S
C699 C696 1.387 . S
C700 C701 1.387 . S
C700 H704 0.950 . S
C700 C709 1.390 1_455 S
C701 C700 1.387 . S
C701 C703 1.387 . S
H702 C709 0.950 . S
C703 C701 1.387 . S
C703 C705 1.390 1_455 S
C703 H707 0.950 . S
H704 C700 0.950 . S
C705 C703 1.390 1_655 S
C705 C706 1.387 . S
C705 H708 0.950 . S
C706 C705 1.387 . S
C706 C709 1.387 . S
H707 C703 0.950 . S
H708 C705 0.950 . S
C709 C700 1.390 1_655 S
C709 H702 0.950 . S
C709 C706 1.387 . S
C710 C711 1.387 1_455 S
C710 H714 0.950 . S
C710 C719 1.390 . S
C711 C710 1.387 1_655 S
C711 C713 1.387 . S
H712 C719 0.950 . S
C713 C711 1.387 . S
C713 C715 1.390 . S
C713 H717 0.950 . S
H714 C710 0.950 . S
C715 C713 1.390 . S
C715 C716 1.387 . S
C715 H718 0.950 . S
C716 C715 1.387 . S
C716 C719 1.387 1_655 S
H717 C713 0.950 . S
H718 C715 0.950 . S
C719 C710 1.390 . S
C719 H712 0.950 . S
C719 C716 1.387 1_455 S
C720 C721 1.399 . S
C720 H724 0.950 . S
C720 C729 1.390 1_554 S
C721 C720 1.399 . S
C721 C723 1.374 1_545 S
H722 C729 0.950 . S
C723 C721 1.374 1_565 S
C723 C725 1.390 1_554 S
C723 H727 0.950 . S
H724 C720 0.950 . S
C725 C723 1.390 1_556 S
C725 C726 1.399 . S
C725 H728 0.950 . S
C726 C725 1.399 . S
C726 C729 1.374 1_565 S
H727 C723 0.950 . S
H728 C725 0.950 . S
C729 C720 1.390 1_556 S
C729 H722 0.950 . S
C729 C726 1.374 1_545 S
C730 C731 1.387 . S
C730 H734 0.950 . S
C730 C739 1.390 . S
C731 C730 1.387 . S
C731 C733 1.387 . S
H732 C739 0.950 . S
C733 C731 1.387 . S
C733 C735 1.390 . S
C733 H737 0.950 . S
H734 C730 0.950 . S
C735 C733 1.390 . S
C735 C736 1.387 . S
C735 H738 0.950 . S
C736 C735 1.387 . S
C736 C739 1.387 . S
H737 C733 0.950 . S
H738 C735 0.950 . S
C739 C730 1.390 . S
C739 H732 0.950 . S
C739 C736 1.387 . S
C740 C741 1.387 1_545 S
C740 H744 0.950 . S
C740 C749 1.390 1_455 S
C741 C740 1.387 1_565 S
C741 C743 1.387 . S
H742 C749 0.950 . S
C743 C741 1.387 . S
C743 C745 1.390 1_455 S
C743 H747 0.950 . S
H744 C740 0.950 . S
C745 C743 1.390 1_655 S
C745 C746 1.387 1_565 S
C745 H748 0.950 . S
C746 C745 1.387 1_545 S
C746 C749 1.387 . S
H747 C743 0.950 . S
H748 C745 0.950 . S
C749 C740 1.390 1_655 S
C749 H742 0.950 . S
C749 C746 1.387 . S
C750 C751 1.387 . S
C750 H754 0.950 . S
C750 C759 1.390 . S
C751 C750 1.387 . S
C751 C753 1.387 . S
H752 C759 0.950 . S
C753 C751 1.387 . S
C753 C755 1.390 . S
C753 H757 0.950 . S
H754 C750 0.950 . S
C755 C753 1.390 . S
C755 C756 1.387 . S
C755 H758 0.950 . S
C756 C755 1.387 . S
C756 C759 1.387 . S
H757 C753 0.950 . S
H758 C755 0.950 . S
C759 C750 1.390 . S
C759 H752 0.950 . S
C759 C756 1.387 . S
C760 C761 1.387 . S
C760 H764 0.950 . S
C760 C769 1.390 . S
C761 C760 1.387 . S
C761 C763 1.387 . S
H762 C769 0.950 . S
C763 C761 1.387 . S
C763 C765 1.390 . S
C763 H767 0.950 . S
H764 C760 0.950 . S
C765 C763 1.390 . S
C765 C766 1.387 . S
C765 H768 0.950 . S
C766 C765 1.387 . S
C766 C769 1.387 . S
H767 C763 0.950 . S
H768 C765 0.950 . S
C769 C760 1.390 . S
C769 H762 0.950 . S
C769 C766 1.387 . S
C770 C771 1.387 . S
C770 H774 0.950 . S
C770 C779 1.390 . S
C771 C770 1.387 . S
C771 C773 1.387 . S
H772 C779 0.950 . S
C773 C771 1.387 . S
C773 C775 1.390 . S
C773 H777 0.950 . S
H774 C770 0.950 . S
C775 C773 1.390 . S
C775 C776 1.387 . S
C775 H778 0.950 . S
C776 C775 1.387 . S
C776 C779 1.387 . S
H777 C773 0.950 . S
H778 C775 0.950 . S
C779 C770 1.390 . S
C779 H772 0.950 . S
C779 C776 1.387 . S
C780 C781 1.387 . S
C780 H784 0.950 . S
C780 C789 1.390 1_455 S
C781 C780 1.387 . S
C781 C783 1.387 . S
H782 C789 0.950 . S
C783 C781 1.387 . S
C783 C785 1.390 1_455 S
C783 H787 0.950 . S
H784 C780 0.950 . S
C785 C783 1.390 1_655 S
C785 C786 1.387 . S
C785 H788 0.950 . S
C786 C785 1.387 . S
C786 C789 1.387 . S
H787 C783 0.950 . S
H788 C785 0.950 . S
C789 C780 1.390 1_655 S
C789 H782 0.950 . S
C789 C786 1.387 . S
C790 C791 1.387 . S
C790 H794 0.950 . S
C790 C799 1.390 1_554 S
C791 C790 1.387 . S
C791 C793 1.387 . S
H792 C799 0.950 . S
C793 C791 1.387 . S
C793 C795 1.390 1_554 S
C793 H797 0.950 . S
H794 C790 0.950 . S
C795 C793 1.390 1_556 S
C795 C796 1.387 . S
C795 H798 0.950 . S
C796 C795 1.387 . S
C796 C799 1.387 . S
H797 C793 0.950 . S
H798 C795 0.950 . S
C799 C790 1.390 1_556 S
C799 H792 0.950 . S
C799 C796 1.387 . S
C800 C801 1.387 . S
C800 H804 0.950 . S
C800 C809 1.390 . S
C801 C800 1.387 . S
C801 C803 1.387 . S
H802 C809 0.950 . S
C803 C801 1.387 . S
C803 C805 1.390 . S
C803 H807 0.950 . S
H804 C800 0.950 . S
C805 C803 1.390 . S
C805 C806 1.387 . S
C805 H808 0.950 . S
C806 C805 1.387 . S
C806 C809 1.387 . S
H807 C803 0.950 . S
H808 C805 0.950 . S
C809 C800 1.390 . S
C809 H802 0.950 . S
C809 C806 1.387 . S
C810 C811 1.387 . S
C810 H814 0.950 . S
C810 C819 1.390 . S
C811 C810 1.387 . S
C811 C813 1.387 . S
H812 C819 0.950 . S
C813 C811 1.387 . S
C813 C815 1.390 . S
C813 H817 0.950 . S
H814 C810 0.950 . S
C815 C813 1.390 . S
C815 C816 1.387 . S
C815 H818 0.950 . S
C816 C815 1.387 . S
C816 C819 1.387 . S
H817 C813 0.950 . S
H818 C815 0.950 . S
C819 C810 1.390 . S
C819 H812 0.950 . S
C819 C816 1.387 . S
C820 C821 1.387 . S
C820 H824 0.950 . S
C820 C829 1.390 . S
C821 C820 1.387 . S
C821 C823 1.387 . S
H822 C829 0.950 . S
C823 C821 1.387 . S
C823 C825 1.390 . S
C823 H827 0.950 . S
H824 C820 0.950 . S
C825 C823 1.390 . S
C825 C826 1.387 . S
C825 H828 0.950 . S
C826 C825 1.387 . S
C826 C829 1.387 . S
H827 C823 0.950 . S
H828 C825 0.950 . S
C829 C820 1.390 . S
C829 H822 0.950 . S
C829 C826 1.387 . S
C830 C831 1.387 . S
C830 H834 0.950 . S
C830 C839 1.390 . S
C831 C830 1.387 . S
C831 C833 1.387 . S
H832 C839 0.950 . S
C833 C831 1.387 . S
C833 C835 1.390 . S
C833 H837 0.950 . S
H834 C830 0.950 . S
C835 C833 1.390 . S
C835 C836 1.387 . S
C835 H838 0.950 . S
C836 C835 1.387 . S
C836 C839 1.387 . S
H837 C833 0.950 . S
H838 C835 0.950 . S
C839 C830 1.390 . S
C839 H832 0.950 . S
C839 C836 1.387 . S
C840 C841 1.387 . S
C840 H844 0.950 . S
C840 C849 1.390 . S
C841 C840 1.387 . S
C841 C843 1.387 . S
H842 C849 0.950 . S
C843 C841 1.387 . S
C843 C845 1.390 . S
C843 H847 0.950 . S
H844 C840 0.950 . S
C845 C843 1.390 . S
C845 C846 1.387 . S
C845 H848 0.950 . S
C846 C845 1.387 . S
C846 C849 1.387 . S
H847 C843 0.950 . S
H848 C845 0.950 . S
C849 C840 1.390 . S
C849 H842 0.950 . S
C849 C846 1.387 . S
C850 C851 1.387 . S
C850 H854 0.950 . S
C850 C859 1.390 . S
C851 C850 1.387 . S
C851 C853 1.387 . S
H852 C859 0.950 . S
C853 C851 1.387 . S
C853 C855 1.390 . S
C853 H857 0.950 . S
H854 C850 0.950 . S
C855 C853 1.390 . S
C855 C856 1.387 . S
C855 H858 0.950 . S
C856 C855 1.387 . S
C856 C859 1.387 . S
H857 C853 0.950 . S
H858 C855 0.950 . S
C859 C850 1.390 . S
C859 H852 0.950 . S
C859 C856 1.387 . S
C860 C861 1.387 . S
C860 H864 0.950 . S
C860 C869 1.390 . S
C861 C860 1.387 . S
C861 C863 1.387 . S
H862 C869 0.950 . S
C863 C861 1.387 . S
C863 C865 1.390 . S
C863 H867 0.950 . S
H864 C860 0.950 . S
C865 C863 1.390 . S
C865 C866 1.387 . S
C865 H868 0.950 . S
C866 C865 1.387 . S
C866 C869 1.387 . S
H867 C863 0.950 . S
H868 C865 0.950 . S
C869 C860 1.390 . S
C869 H862 0.950 . S
C869 C866 1.387 . S
C870 C871 1.387 . S
C870 H874 0.950 . S
C870 C879 1.390 . S
C871 C870 1.387 . S
C871 C873 1.387 . S
H872 C879 0.950 . S
C873 C871 1.387 . S
C873 C875 1.390 . S
C873 H877 0.950 . S
H874 C870 0.950 . S
C875 C873 1.390 . S
C875 C876 1.387 . S
C875 H878 0.950 . S
C876 C875 1.387 . S
C876 C879 1.387 . S
H877 C873 0.950 . S
H878 C875 0.950 . S
C879 C870 1.390 . S
C879 H872 0.950 . S
C879 C876 1.387 . S
C880 C881 1.387 . S
C880 H884 0.950 . S
C880 C889 1.390 . S
C881 C880 1.387 . S
C881 C883 1.387 . S
H882 C889 0.950 . S
C883 C881 1.387 . S
C883 C885 1.390 . S
C883 H887 0.950 . S
H884 C880 0.950 . S
C885 C883 1.390 . S
C885 C886 1.387 . S
C885 H888 0.950 . S
C886 C885 1.387 . S
C886 C889 1.387 . S
H887 C883 0.950 . S
H888 C885 0.950 . S
C889 C880 1.390 . S
C889 H882 0.950 . S
C889 C886 1.387 . S
C890 C891 1.387 . S
C890 H894 0.950 . S
C890 C899 1.390 . S
C891 C890 1.387 . S
C891 C893 1.387 1_565 S
H892 C899 0.950 . S
C893 C891 1.387 1_545 S
C893 C895 1.390 . S
C893 H897 0.950 . S
H894 C890 0.950 . S
C895 C893 1.390 . S
C895 C896 1.387 . S
C895 H898 0.950 . S
C896 C895 1.387 . S
C896 C899 1.387 1_545 S
H897 C893 0.950 . S
H898 C895 0.950 . S
C899 C890 1.390 . S
C899 H892 0.950 . S
C899 C896 1.387 1_565 S
C900 C901 1.387 . S
C900 H904 0.950 . S
C900 C909 1.390 . S
C901 C900 1.387 . S
C901 C903 1.387 . S
H902 C909 0.950 . S
C903 C901 1.387 . S
C903 C905 1.390 . S
C903 H907 0.950 . S
H904 C900 0.950 . S
C905 C903 1.390 . S
C905 C906 1.387 . S
C905 H908 0.950 . S
C906 C905 1.387 . S
C906 C909 1.387 . S
H907 C903 0.950 . S
H908 C905 0.950 . S
C909 C900 1.390 . S
C909 H902 0.950 . S
C909 C906 1.387 . S
C910 C911 1.387 . S
C910 H914 0.950 1_545 S
C910 C919 1.390 . S
C911 C910 1.387 . S
C911 C913 1.387 . S
H912 C919 0.950 1_565 S
C913 C911 1.387 . S
C913 C915 1.390 . S
C913 H917 0.950 . S
H914 C910 0.950 1_565 S
C915 C913 1.390 . S
C915 C916 1.387 . S
C915 H918 0.950 . S
C916 C915 1.387 . S
C916 C919 1.387 . S
H917 C913 0.950 . S
H918 C915 0.950 . S
C919 C910 1.390 . S
C919 H912 0.950 1_545 S
C919 C916 1.387 . S
C920 C921 1.387 . S
C920 H924 0.950 . S
C920 C929 1.390 . S
C921 C920 1.387 . S
C921 C923 1.387 . S
H922 C929 0.950 . S
C923 C921 1.387 . S
C923 C925 1.390 . S
C923 H927 0.950 . S
H924 C920 0.950 . S
C925 C923 1.390 . S
C925 C926 1.387 . S
C925 H928 0.950 . S
C926 C925 1.387 . S
C926 C929 1.387 . S
H927 C923 0.950 . S
H928 C925 0.950 . S
C929 C920 1.390 . S
C929 H922 0.950 . S
C929 C926 1.387 . S
C930 C931 1.387 . S
C930 H934 0.950 . S
C930 C939 1.390 . S
C931 C930 1.387 . S
C931 C933 1.387 . S
H932 C939 0.950 . S
C933 C931 1.387 . S
C933 C935 1.390 1_565 S
C933 H937 0.950 . S
H934 C930 0.950 . S
C935 C933 1.390 1_545 S
C935 C936 1.387 . S
C935 H938 0.950 . S
C936 C935 1.387 . S
C936 C939 1.387 1_545 S
H937 C933 0.950 . S
H938 C935 0.950 . S
C939 C930 1.390 . S
C939 H932 0.950 . S
C939 C936 1.387 1_565 S
C940 C941 1.387 . S
C940 H944 0.950 . S
C940 C949 1.390 . S
C941 C940 1.387 . S
C941 C943 1.387 . S
H942 C949 0.950 . S
C943 C941 1.387 . S
C943 C945 1.390 . S
C943 H947 0.950 . S
H944 C940 0.950 . S
C945 C943 1.390 . S
C945 C946 1.387 . S
C945 H948 0.950 . S
C946 C945 1.387 . S
C946 C949 1.387 . S
H947 C943 0.950 . S
H948 C945 0.950 . S
C949 C940 1.390 . S
C949 H942 0.950 . S
C949 C946 1.387 . S
C950 C951 1.387 . S
C950 H954 0.950 1_565 S
C950 C959 1.390 . S
C951 C950 1.387 . S
C951 C953 1.387 . S
H952 C959 0.950 1_545 S
C953 C951 1.387 . S
C953 C955 1.390 . S
C953 H957 0.950 . S
H954 C950 0.950 1_545 S
C955 C953 1.390 . S
C955 C956 1.387 . S
C955 H958 0.950 . S
C956 C955 1.387 . S
C956 C959 1.387 . S
H957 C953 0.950 . S
H958 C955 0.950 . S
C959 C950 1.390 . S
C959 H952 0.950 1_565 S
C959 C956 1.387 . S
C960 C961 1.387 . S
C960 H964 0.950 . S
C960 C969 1.390 . S
C961 C960 1.387 . S
C961 C963 1.387 . S
H962 C969 0.950 . S
C963 C961 1.387 . S
C963 C965 1.390 . S
C963 H967 0.950 . S
H964 C960 0.950 . S
C965 C963 1.390 . S
C965 C966 1.387 . S
C965 H968 0.950 . S
C966 C965 1.387 . S
C966 C969 1.387 . S
H967 C963 0.950 . S
H968 C965 0.950 . S
C969 C960 1.390 . S
C969 H962 0.950 . S
C969 C966 1.387 . S
C970 C971 1.387 . S
C970 H974 0.950 . S
C970 C979 1.390 . S
C971 C970 1.387 . S
C971 C973 1.387 . S
H972 C979 0.950 . S
C973 C971 1.387 . S
C973 C975 1.390 . S
C973 H977 0.950 . S
H974 C970 0.950 . S
C975 C973 1.390 . S
C975 C976 1.387 . S
C975 H978 0.950 . S
C976 C975 1.387 . S
C976 C979 1.387 . S
H977 C973 0.950 . S
H978 C975 0.950 . S
C979 C970 1.390 . S
C979 H972 0.950 . S
C979 C976 1.387 . S
C980 C981 1.387 . S
C980 H984 0.950 . S
C980 C989 1.390 . S
C981 C980 1.387 . S
C981 C983 1.387 . S
H982 C989 0.950 . S
C983 C981 1.387 . S
C983 C985 1.390 . S
C983 H987 0.950 . S
H984 C980 0.950 . S
C985 C983 1.390 . S
C985 C986 1.387 . S
C985 H988 0.950 . S
C986 C985 1.387 . S
C986 C989 1.387 . S
H987 C983 0.950 . S
H988 C985 0.950 . S
C989 C980 1.390 . S
C989 H982 0.950 . S
C989 C986 1.387 . S
C990 C991 1.387 . S
C990 H994 0.950 . S
C990 C999 1.390 . S
C991 C990 1.387 . S
C991 C993 1.387 . S
H992 C999 0.950 . S
C993 C991 1.387 . S
C993 C995 1.390 . S
C993 H997 0.950 . S
H994 C990 0.950 . S
C995 C993 1.390 . S
C995 C996 1.387 . S
C995 H998 0.950 . S
C996 C995 1.387 . S
C996 C999 1.387 . S
H997 C993 0.950 . S
H998 C995 0.950 . S
C999 C990 1.390 . S
C999 H992 0.950 . S
C999 C996 1.387 . S
C1000 C1001 1.387 . S
C1000 H1004 0.950 . S
C1000 C1009 1.390 . S
C1001 C1000 1.387 . S
C1001 C1003 1.387 . S
H1002 C1009 0.950 . S
C1003 C1001 1.387 . S
C1003 C1005 1.390 . S
C1003 H1007 0.950 . S
H1004 C1000 0.950 . S
C1005 C1003 1.390 . S
C1005 C1006 1.387 . S
C1005 H1008 0.950 . S
C1006 C1005 1.387 . S
C1006 C1009 1.387 . S
H1007 C1003 0.950 . S
H1008 C1005 0.950 . S
C1009 C1000 1.390 . S
C1009 H1002 0.950 . S
C1009 C1006 1.387 . S
C1010 C1011 1.387 . S
C1010 H1014 0.950 . S
C1010 C1019 1.390 . S
C1011 C1010 1.387 . S
C1011 C1013 1.387 . S
H1012 C1019 0.950 . S
C1013 C1011 1.387 . S
C1013 C1015 1.390 . S
C1013 H1017 0.950 . S
H1014 C1010 0.950 . S
C1015 C1013 1.390 . S
C1015 C1016 1.387 . S
C1015 H1018 0.950 . S
C1016 C1015 1.387 . S
C1016 C1019 1.387 . S
H1017 C1013 0.950 . S
H1018 C1015 0.950 . S
C1019 C1010 1.390 . S
C1019 H1012 0.950 . S
C1019 C1016 1.387 . S
C1020 C1021 1.387 . S
C1020 H1024 0.950 . S
C1020 C1029 1.390 . S
C1021 C1020 1.387 . S
C1021 C1023 1.387 . S
H1022 C1029 0.950 . S
C1023 C1021 1.387 . S
C1023 C1025 1.390 . S
C1023 H1027 0.950 . S
H1024 C1020 0.950 . S
C1025 C1023 1.390 . S
C1025 C1026 1.387 . S
C1025 H1028 0.950 . S
C1026 C1025 1.387 . S
C1026 C1029 1.387 . S
H1027 C1023 0.950 . S
H1028 C1025 0.950 . S
C1029 C1020 1.390 . S
C1029 H1022 0.950 . S
C1029 C1026 1.387 . S
C1030 C1031 1.387 . S
C1030 H1034 0.950 . S
C1030 C1039 1.390 . S
C1031 C1030 1.387 . S
C1031 C1033 1.387 . S
H1032 C1039 0.950 . S
C1033 C1031 1.387 . S
C1033 C1035 1.390 . S
C1033 H1037 0.950 . S
H1034 C1030 0.950 . S
C1035 C1033 1.390 . S
C1035 C1036 1.387 . S
C1035 H1038 0.950 . S
C1036 C1035 1.387 . S
C1036 C1039 1.387 . S
H1037 C1033 0.950 . S
H1038 C1035 0.950 . S
C1039 C1030 1.390 . S
C1039 H1032 0.950 . S
C1039 C1036 1.387 . S
C1040 C1041 1.387 . S
C1040 H1044 0.950 . S
C1040 C1049 1.390 . S
C1041 C1040 1.387 . S
C1041 C1043 1.387 . S
H1042 C1049 0.950 . S
C1043 C1041 1.387 . S
C1043 C1045 1.390 . S
C1043 H1047 0.950 . S
H1044 C1040 0.950 . S
C1045 C1043 1.390 . S
C1045 C1046 1.387 . S
C1045 H1048 0.950 . S
C1046 C1045 1.387 . S
C1046 C1049 1.387 . S
H1047 C1043 0.950 . S
H1048 C1045 0.950 . S
C1049 C1040 1.390 . S
C1049 H1042 0.950 . S
C1049 C1046 1.387 . S
C1050 C1051 1.387 . S
C1050 H1054 0.950 . S
C1050 C1059 1.390 1_565 S
C1051 C1050 1.387 . S
C1051 C1053 1.387 . S
H1052 C1059 0.950 . S
C1053 C1051 1.387 . S
C1053 C1055 1.390 . S
C1053 H1057 0.950 . S
H1054 C1050 0.950 . S
C1055 C1053 1.390 . S
C1055 C1056 1.387 . S
C1055 H1058 0.950 . S
C1056 C1055 1.387 . S
C1056 C1059 1.387 1_565 S
H1057 C1053 0.950 . S
H1058 C1055 0.950 . S
C1059 C1050 1.390 1_545 S
C1059 H1052 0.950 . S
C1059 C1056 1.387 1_545 S
C1060 C1061 1.387 . S
C1060 H1064 0.950 . S
C1060 C1069 1.390 . S
C1061 C1060 1.387 . S
C1061 C1063 1.387 . S
H1062 C1069 0.950 . S
C1063 C1061 1.387 . S
C1063 C1065 1.390 . S
C1063 H1067 0.950 . S
H1064 C1060 0.950 . S
C1065 C1063 1.390 . S
C1065 C1066 1.387 . S
C1065 H1068 0.950 . S
C1066 C1065 1.387 . S
C1066 C1069 1.387 . S
H1067 C1063 0.950 . S
H1068 C1065 0.950 . S
C1069 C1060 1.390 . S
C1069 H1062 0.950 . S
C1069 C1066 1.387 . S
C1070 C1071 1.387 1_565 S
C1070 H1074 0.950 . S
C1070 C1079 1.390 . S
C1071 C1070 1.387 1_545 S
C1071 C1073 1.387 . S
H1072 C1079 0.950 . S
C1073 C1071 1.387 . S
C1073 C1075 1.390 . S
C1073 H1077 0.950 . S
H1074 C1070 0.950 . S
C1075 C1073 1.390 . S
C1075 C1076 1.387 . S
C1075 H1078 0.950 . S
C1076 C1075 1.387 . S
C1076 C1079 1.387 1_545 S
H1077 C1073 0.950 . S
H1078 C1075 0.950 . S
C1079 C1070 1.390 . S
C1079 H1072 0.950 . S
C1079 C1076 1.387 1_565 S
C1080 C1081 1.387 . S
C1080 H1084 0.950 . S
C1080 C1089 1.390 . S
C1081 C1080 1.387 . S
C1081 C1083 1.387 . S
H1082 C1089 0.950 . S
C1083 C1081 1.387 . S
C1083 C1085 1.390 . S
C1083 H1087 0.950 . S
H1084 C1080 0.950 . S
C1085 C1083 1.390 . S
C1085 C1086 1.387 . S
C1085 H1088 0.950 . S
C1086 C1085 1.387 . S
C1086 C1089 1.387 . S
H1087 C1083 0.950 . S
H1088 C1085 0.950 . S
C1089 C1080 1.390 . S
C1089 H1082 0.950 . S
C1089 C1086 1.387 . S
C1090 C1091 1.387 . S
C1090 H1094 0.950 . S
C1090 C1099 1.390 1_545 S
C1091 C1090 1.387 . S
C1091 C1093 1.387 . S
H1092 C1099 0.950 . S
C1093 C1091 1.387 . S
C1093 C1095 1.390 . S
C1093 H1097 0.950 . S
H1094 C1090 0.950 . S
C1095 C1093 1.390 . S
C1095 C1096 1.387 . S
C1095 H1098 0.950 . S
C1096 C1095 1.387 . S
C1096 C1099 1.387 1_545 S
H1097 C1093 0.950 . S
H1098 C1095 0.950 . S
C1099 C1090 1.390 1_565 S
C1099 H1092 0.950 . S
C1099 C1096 1.387 1_565 S
C1100 C1101 1.387 . S
C1100 H1104 0.950 . S
C1100 C1109 1.390 . S
C1101 C1100 1.387 . S
C1101 C1103 1.387 . S
H1102 C1109 0.950 . S
C1103 C1101 1.387 . S
C1103 C1105 1.390 . S
C1103 H1107 0.950 . S
H1104 C1100 0.950 . S
C1105 C1103 1.390 . S
C1105 C1106 1.387 . S
C1105 H1108 0.950 . S
C1106 C1105 1.387 . S
C1106 C1109 1.387 . S
H1107 C1103 0.950 . S
H1108 C1105 0.950 . S
C1109 C1100 1.390 . S
C1109 H1102 0.950 . S
C1109 C1106 1.387 . S
C1110 C1111 1.387 1_545 S
C1110 H1114 0.950 . S
C1110 C1119 1.390 . S
C1111 C1110 1.387 1_565 S
C1111 C1113 1.387 . S
H1112 C1119 0.950 . S
C1113 C1111 1.387 . S
C1113 C1115 1.390 . S
C1113 H1117 0.950 . S
H1114 C1110 0.950 . S
C1115 C1113 1.390 . S
C1115 C1116 1.387 . S
C1115 H1118 0.950 . S
C1116 C1115 1.387 . S
C1116 C1119 1.387 1_565 S
H1117 C1113 0.950 . S
H1118 C1115 0.950 . S
C1119 C1110 1.390 . S
C1119 H1112 0.950 . S
C1119 C1116 1.387 1_545 S
C641 C9 0.933 . S
C646 C409 0.922 . S
C651 C49 0.857 . S
C656 C458 0.459 . S
C661 C89 0.925 . S
C666 C329 0.936 . S
C671 C369 0.860 . S
C676 C138 0.460 . S
C681 C178 0.936 . S
C686 C578 0.924 . S
C691 C609 0.454 . S
C696 C218 0.850 . S
C701 C498 0.933 . S
C706 C258 0.922 . S
C711 C289 0.457 . S
C716 C538 0.855 . S
C721 C19 3.723 . S
C726 C170 3.723 . S
C731 C59 2.890 . S
C736 C530 2.890 . S
C741 C99 2.456 . S
C746 C250 2.456 . S
C751 C126 1.892 . S
C756 C615 1.892 . S
C761 C210 2.890 . S
C766 C379 2.890 . S
C771 C446 1.894 . S
C776 C295 1.894 . S
C781 C490 3.720 . S
C786 C339 3.720 . S
C791 C419 2.457 . S
C796 C570 2.457 . S
C801 C10 1.759 . S
C806 C298 1.731 . S
C811 C50 1.927 . S
C816 C489 1.946 . S
C821 C90 1.883 . S
C826 C209 1.860 . S
C831 C135 0.922 . S
C836 C569 0.901 . S
C841 C129 1.731 . S
C846 C179 1.759 . S
C851 C219 1.926 . S
C856 C338 1.944 . S
C861 C259 1.882 . S
C866 C58 1.859 . S
C871 C418 0.901 . S
C876 C286 0.922 . S
C881 C330 1.760 . S
C886 C618 1.729 . S
C891 C169 1.944 . S
C896 C370 1.925 1_655 S
C901 C529 1.859 . S
C906 C410 1.883 . S
C911 C249 0.901 . S
C916 C455 0.921 . S
C921 C499 1.759 . S
C926 C449 1.730 . S
C931 C539 1.927 1_455 S
C936 C18 1.946 . S
C941 C378 1.861 . S
C946 C579 1.883 . S
C951 C606 0.922 . S
C956 C98 0.901 . S
C961 C15 1.777 . S
C966 C366 1.716 . S
C971 C406 1.876 . S
C976 C55 1.944 . S
C981 C95 1.702 . S
C986 C459 1.667 . S
C991 C326 2.169 . S
C996 C130 2.157 . S
C1001 C535 1.713 . S
C1006 C166 1.774 . S
C1011 C575 1.878 . S
C1016 C206 1.945 . S
C1021 C610 1.668 . S
C1026 C246 1.703 . S
C1031 C495 2.169 . S
C1036 C299 2.157 . S
C1041 C46 1.716 . S
C1046 C335 1.777 . S
C1051 C86 1.878 . S
C1056 C375 1.945 1_565 S
C1061 C139 1.667 . S
C1066 C415 1.701 . S
C1071 C450 2.158 . S
C1076 C6 2.169 . S
C1081 C215 1.715 . S
C1086 C486 1.776 . S
C1091 C255 1.880 . S
C1096 C526 1.947 1_545 S
C1101 C290 1.666 . S
C1106 C566 1.701 . S
C1111 C175 2.169 . S
C1116 C619 2.157 . S
