# Generated by pormake.
# Topology rhr, (4)-cn, num edge types: 1
# Building blocks:
#     Node 0, Type 0, BuildingBlock: NAWXER_clean_sbu_0, # of connection points: 4
#     Node 1, Type 0, BuildingBlock: NAWXER_clean_sbu_0, # of connection points: 4
#     Node 2, Type 0, BuildingBlock: NAWXER_clean_sbu_0, # of connection points: 4
#     Node 3, Type 0, BuildingBlock: NAWXER_clean_sbu_0, # of connection points: 4
#     Node 4, Type 0, BuildingBlock: NAWXER_clean_sbu_0, # of connection points: 4
#     Node 5, Type 0, BuildingBlock: NAWXER_clean_sbu_0, # of connection points: 4
#     Node 6, Type 0, BuildingBlock: NAWXER_clean_sbu_0, # of connection points: 4
#     Node 7, Type 0, BuildingBlock: NAWXER_clean_sbu_0, # of connection points: 4
#     Node 8, Type 0, BuildingBlock: NAWXER_clean_sbu_0, # of connection points: 4
#     Node 9, Type 0, BuildingBlock: NAWXER_clean_sbu_0, # of connection points: 4
#     Node 10, Type 0, BuildingBlock: NAWXER_clean_sbu_0, # of connection points: 4
#     Node 11, Type 0, BuildingBlock: NAWXER_clean_sbu_0, # of connection points: 4
#     Node 12, Type 0, BuildingBlock: NAWXER_clean_sbu_0, # of connection points: 4
#     Node 13, Type 0, BuildingBlock: NAWXER_clean_sbu_0, # of connection points: 4
#     Node 14, Type 0, BuildingBlock: NAWXER_clean_sbu_0, # of connection points: 4
#     Node 15, Type 0, BuildingBlock: NAWXER_clean_sbu_0, # of connection points: 4
#     Node 16, Type 0, BuildingBlock: NAWXER_clean_sbu_0, # of connection points: 4
#     Node 17, Type 0, BuildingBlock: NAWXER_clean_sbu_0, # of connection points: 4
#     Node 18, Type 0, BuildingBlock: NAWXER_clean_sbu_0, # of connection points: 4
#     Node 19, Type 0, BuildingBlock: NAWXER_clean_sbu_0, # of connection points: 4
#     Node 20, Type 0, BuildingBlock: NAWXER_clean_sbu_0, # of connection points: 4
#     Node 21, Type 0, BuildingBlock: NAWXER_clean_sbu_0, # of connection points: 4
#     Node 22, Type 0, BuildingBlock: NAWXER_clean_sbu_0, # of connection points: 4
#     Node 23, Type 0, BuildingBlock: NAWXER_clean_sbu_0, # of connection points: 4
#     Edge 24, Type (0, 0), BuildingBlock: XUDNAN_clean_linker_2, # of connection points: 2
#     Edge 25, Type (0, 0), BuildingBlock: XUDNAN_clean_linker_2, # of connection points: 2
#     Edge 26, Type (0, 0), BuildingBlock: XUDNAN_clean_linker_2, # of connection points: 2
#     Edge 27, Type (0, 0), BuildingBlock: XUDNAN_clean_linker_2, # of connection points: 2
#     Edge 28, Type (0, 0), BuildingBlock: XUDNAN_clean_linker_2, # of connection points: 2
#     Edge 29, Type (0, 0), BuildingBlock: XUDNAN_clean_linker_2, # of connection points: 2
#     Edge 30, Type (0, 0), BuildingBlock: XUDNAN_clean_linker_2, # of connection points: 2
#     Edge 31, Type (0, 0), BuildingBlock: XUDNAN_clean_linker_2, # of connection points: 2
#     Edge 32, Type (0, 0), BuildingBlock: XUDNAN_clean_linker_2, # of connection points: 2
#     Edge 33, Type (0, 0), BuildingBlock: XUDNAN_clean_linker_2, # of connection points: 2
#     Edge 34, Type (0, 0), BuildingBlock: XUDNAN_clean_linker_2, # of connection points: 2
#     Edge 35, Type (0, 0), BuildingBlock: XUDNAN_clean_linker_2, # of connection points: 2
#     Edge 36, Type (0, 0), BuildingBlock: XUDNAN_clean_linker_2, # of connection points: 2
#     Edge 37, Type (0, 0), BuildingBlock: XUDNAN_clean_linker_2, # of connection points: 2
#     Edge 38, Type (0, 0), BuildingBlock: XUDNAN_clean_linker_2, # of connection points: 2
#     Edge 39, Type (0, 0), BuildingBlock: XUDNAN_clean_linker_2, # of connection points: 2
#     Edge 40, Type (0, 0), BuildingBlock: XUDNAN_clean_linker_2, # of connection points: 2
#     Edge 41, Type (0, 0), BuildingBlock: XUDNAN_clean_linker_2, # of connection points: 2
#     Edge 42, Type (0, 0), BuildingBlock: XUDNAN_clean_linker_2, # of connection points: 2
#     Edge 43, Type (0, 0), BuildingBlock: XUDNAN_clean_linker_2, # of connection points: 2
#     Edge 44, Type (0, 0), BuildingBlock: XUDNAN_clean_linker_2, # of connection points: 2
#     Edge 45, Type (0, 0), BuildingBlock: XUDNAN_clean_linker_2, # of connection points: 2
#     Edge 46, Type (0, 0), BuildingBlock: XUDNAN_clean_linker_2, # of connection points: 2
#     Edge 47, Type (0, 0), BuildingBlock: XUDNAN_clean_linker_2, # of connection points: 2
#     Edge 48, Type (0, 0), BuildingBlock: XUDNAN_clean_linker_2, # of connection points: 2
#     Edge 49, Type (0, 0), BuildingBlock: XUDNAN_clean_linker_2, # of connection points: 2
#     Edge 50, Type (0, 0), BuildingBlock: XUDNAN_clean_linker_2, # of connection points: 2
#     Edge 51, Type (0, 0), BuildingBlock: XUDNAN_clean_linker_2, # of connection points: 2
#     Edge 52, Type (0, 0), BuildingBlock: XUDNAN_clean_linker_2, # of connection points: 2
#     Edge 53, Type (0, 0), BuildingBlock: XUDNAN_clean_linker_2, # of connection points: 2
#     Edge 54, Type (0, 0), BuildingBlock: XUDNAN_clean_linker_2, # of connection points: 2
#     Edge 55, Type (0, 0), BuildingBlock: XUDNAN_clean_linker_2, # of connection points: 2
#     Edge 56, Type (0, 0), BuildingBlock: XUDNAN_clean_linker_2, # of connection points: 2
#     Edge 57, Type (0, 0), BuildingBlock: XUDNAN_clean_linker_2, # of connection points: 2
#     Edge 58, Type (0, 0), BuildingBlock: XUDNAN_clean_linker_2, # of connection points: 2
#     Edge 59, Type (0, 0), BuildingBlock: XUDNAN_clean_linker_2, # of connection points: 2
#     Edge 60, Type (0, 0), BuildingBlock: XUDNAN_clean_linker_2, # of connection points: 2
#     Edge 61, Type (0, 0), BuildingBlock: XUDNAN_clean_linker_2, # of connection points: 2
#     Edge 62, Type (0, 0), BuildingBlock: XUDNAN_clean_linker_2, # of connection points: 2
#     Edge 63, Type (0, 0), BuildingBlock: XUDNAN_clean_linker_2, # of connection points: 2
#     Edge 64, Type (0, 0), BuildingBlock: XUDNAN_clean_linker_2, # of connection points: 2
#     Edge 65, Type (0, 0), BuildingBlock: XUDNAN_clean_linker_2, # of connection points: 2
#     Edge 66, Type (0, 0), BuildingBlock: XUDNAN_clean_linker_2, # of connection points: 2
#     Edge 67, Type (0, 0), BuildingBlock: XUDNAN_clean_linker_2, # of connection points: 2
#     Edge 68, Type (0, 0), BuildingBlock: XUDNAN_clean_linker_2, # of connection points: 2
#     Edge 69, Type (0, 0), BuildingBlock: XUDNAN_clean_linker_2, # of connection points: 2
#     Edge 70, Type (0, 0), BuildingBlock: XUDNAN_clean_linker_2, # of connection points: 2
#     Edge 71, Type (0, 0), BuildingBlock: XUDNAN_clean_linker_2, # of connection points: 2
# Relax obj value: 0.003
# Max RMSD: 0.009
# Mean RMSD: 0.009
data_MOF--net-rhr--node1-NAWXER_clean_sbu_0--edge1-XUDNAN_clean_linker_2
_symmetry_space_group_name_H-M    P1
_symmetry_Int_Tables_number       1
_symmetry_cell_setting            triclinic
loop_
_symmetry_equiv_pos_as_xyz
'x, y, z'
_cell_length_a     50.023174
_cell_length_b     50.063889
_cell_length_c     50.109146
_cell_angle_alpha  90.068339
_cell_angle_beta   89.780784
_cell_angle_gamma 89.877396
loop_
_atom_site_label
_atom_site_type_symbol
_atom_site_fract_x
_atom_site_fract_y
_atom_site_fract_z
_atom_type_partial_charge
C0 C 0.30669 0.06886 0.33166 0.0
C1 C 0.34022 0.99465 0.27747 0.0
O2 O 0.29943 0.06235 0.30824 0.0
Zn3 Zn 0.32287 0.03182 0.30377 0.0
O4 O 0.32508 0.05535 0.34325 0.0
Zn5 Zn 0.35012 0.02158 0.33501 0.0
O6 O 0.38589 0.03736 0.33467 0.0
O7 O 0.3616 0.04947 0.30009 0.0
O8 O 0.3516 0.99666 0.30027 0.0
O9 O 0.32182 1.01101 0.27112 0.0
O10 O 0.30757 1.00457 0.33309 0.0
O11 O 0.33908 0.99615 0.3626 0.0
C12 C 0.38377 0.05005 0.31277 0.0
C13 C 0.31535 0.99253 0.35428 0.0
C14 C 0.02274 0.33348 0.28607 0.0
C15 C 0.96001 0.28308 0.34134 0.0
O16 O 1.01009 0.31233 0.2801 0.0
Zn17 Zn 0.99176 0.30717 0.31368 0.0
O18 O 0.02082 0.343 0.30979 0.0
Zn19 Zn 0.99969 0.33361 0.34603 0.0
O20 O 0.02748 0.32428 0.37169 0.0
O21 O 0.0214 0.29328 0.34105 0.0
O22 O 0.97069 0.30286 0.35356 0.0
O23 O 0.96624 0.27827 0.31716 0.0
O24 O 0.96673 0.34207 0.31567 0.0
O25 O 0.97784 0.36536 0.35143 0.0
C26 C 0.03285 0.3012 0.36246 0.0
C27 C 0.96333 0.36247 0.33082 0.0
C28 C 0.62383 0.9884 0.34637 0.0
C29 C 0.67164 0.05557 0.39847 0.0
O30 O 0.61583 1.00091 0.36699 0.0
Zn31 Zn 0.64773 0.02138 0.37333 0.0
O32 O 0.64748 0.9926 0.33727 0.0
Zn33 Zn 0.68153 0.01689 0.34793 0.0
O34 O 0.70916 0.99123 0.35659 0.0
O35 O 0.6755 0.99103 0.38524 0.0
O36 O 0.68567 0.04584 0.37931 0.0
O37 O 0.64819 0.04674 0.40267 0.0
O38 O 0.64943 0.0481 0.33994 0.0
O39 O 0.68614 0.03931 0.31692 0.0
C40 C 0.69803 0.98166 0.37729 0.0
C41 C 0.66509 0.05322 0.32029 0.0
C42 C 0.05971 0.67728 0.30539 0.0
C43 C 0.99716 0.73835 0.35096 0.0
O44 O 0.04602 0.66631 0.32402 0.0
Zn45 Zn 0.01692 0.67698 0.35353 0.0
O46 O 0.05683 0.70207 0.30053 0.0
Zn47 Zn 0.02869 0.70883 0.32693 0.0
O48 O 0.05063 0.70635 0.36267 0.0
O49 O 0.03742 0.6718 0.38664 0.0
O50 O 1.01212 0.74386 0.33112 0.0
O51 O 0.99721 0.71456 0.36046 0.0
O52 O 0.98741 0.65361 0.34333 0.0
O53 O 0.99699 0.68409 0.31297 0.0
C54 C 0.05264 0.69194 0.38359 0.0
C55 C 0.98318 0.66389 0.32048 0.0
C56 C 0.3137 0.04075 0.66566 0.0
C57 C 0.34938 0.96212 0.71251 0.0
O58 O 0.3381 0.03533 0.65988 0.0
Zn59 Zn 0.368 1.00641 0.6697 0.0
O60 O 0.30126 0.02643 0.68256 0.0
Zn61 Zn 0.3304 1.00155 0.69048 0.0
O62 O 0.35968 0.02442 0.71128 0.0
O63 O 0.39595 0.02776 0.68624 0.0
O64 O 0.32599 0.97188 0.71545 0.0
O65 O 0.36588 0.9733 0.69645 0.0
O66 O 0.37404 0.98743 0.63603 0.0
O67 O 0.33411 0.98069 0.65381 0.0
C68 C 0.3837 0.0327 0.70801 0.0
C69 C 0.3511 0.97651 0.6351 0.0
C70 C 0.05125 0.35042 0.7195 0.0
C71 C 0.97947 0.32244 0.65911 0.0
O72 O 0.04817 0.36577 0.69929 0.0
Zn73 Zn 0.02336 0.36871 0.66457 0.0
O74 O 0.03685 0.3296 0.72185 0.0
Zn75 Zn 0.01656 0.33488 0.68909 0.0
O76 O 0.04671 0.32943 0.65865 0.0
O77 O 0.04904 0.36713 0.63603 0.0
O78 O 0.98842 0.30972 0.67912 0.0
O79 O 0.99071 0.34429 0.65202 0.0
O80 O 1.00588 0.40219 0.67115 0.0
O81 O 0.99504 0.37082 0.70021 0.0
C82 C 0.05722 0.34345 0.63993 0.0
C83 C 0.99309 0.39499 0.69188 0.0
C84 C 0.69305 0.04527 0.74138 0.0
C85 C 0.74277 0.97233 0.69757 0.0
O86 O 0.6799 0.03331 0.72301 0.0
Zn87 Zn 0.68475 1.00015 0.69603 0.0
O88 O 0.71633 0.03695 0.74745 0.0
Zn89 Zn 0.71767 1.00744 0.72206 0.0
O90 O 0.71822 0.02858 0.68506 0.0
O91 O 0.68167 0.01893 0.66225 0.0
O92 O 0.74971 0.98561 0.71806 0.0
O93 O 0.71919 0.97554 0.68814 0.0
O94 O 0.65672 0.97588 0.7079 0.0
O95 O 0.68758 0.98216 0.73852 0.0
C96 C 0.70379 0.03134 0.66418 0.0
C97 C 0.66523 0.97194 0.73145 0.0
C98 C 0.98961 0.67326 0.7162 0.0
C99 C 0.05756 0.72306 0.66687 0.0
O100 O 0.99656 0.66113 0.69466 0.0
Zn101 Zn 0.02475 0.66781 0.6623 0.0
O102 O 1.00139 0.69477 0.72261 0.0
Zn103 Zn 0.02495 0.69702 0.69228 0.0
O104 O 0.99707 0.70361 0.66003 0.0
O105 O 1.00084 0.6694 0.63237 0.0
O106 O 0.04727 0.72821 0.68951 0.0
O107 O 0.05116 0.70137 0.6548 0.0
O108 O 0.04879 0.63794 0.66378 0.0
O109 O 0.0528 0.66456 0.69861 0.0
C110 C 0.98988 0.69145 0.63868 0.0
C111 C 0.05986 0.64344 0.68583 0.0
C112 C 0.31227 0.35634 0.03873 0.0
C113 C 0.37078 0.31789 0.96975 0.0
O114 O 0.33499 0.36816 0.03714 0.0
Zn115 Zn 0.37187 0.36406 0.01463 0.0
O116 O 0.30788 0.33593 0.02424 0.0
Zn117 Zn 0.34182 0.33494 1.00572 0.0
O118 O 0.3687 0.32345 0.03616 0.0
O119 O 0.39858 0.35515 0.04186 0.0
O120 O 0.34842 0.30869 0.9776 0.0
O121 O 0.38117 0.33782 0.98195 0.0
O122 O 0.37296 0.39799 0.99538 0.0
O123 O 0.33964 0.37139 0.98379 0.0
C124 C 0.38933 0.33239 0.04826 0.0
C125 C 0.35228 0.39348 0.98133 0.0
C126 C 0.71811 0.37121 0.03735 0.0
C127 C 0.64755 0.33225 0.98243 0.0
O128 O 0.72627 0.35198 0.02247 0.0
Zn129 Zn 0.71064 0.32544 0.99305 0.0
O130 O 0.69377 0.37848 0.0363 0.0
Zn131 Zn 0.68212 0.3533 1.00918 0.0
O132 O 0.68445 0.31593 0.02917 0.0
O133 O 0.71399 0.28986 1.00918 0.0
O134 O 0.64475 0.35149 0.99886 0.0
O135 O 0.6707 0.32203 0.97832 0.0
O136 O 0.73113 0.3353 0.96154 0.0
O137 O 0.70182 0.3663 0.97332 0.0
C138 C 0.69638 0.29336 0.02727 0.0
C139 C 0.72012 0.35783 0.95741 0.0
C140 C 0.67486 0.73402 0.04803 0.0
C141 C 0.7312 0.67477 0.99501 0.0
O142 O 0.699 0.73738 0.04093 0.0
Zn143 Zn 0.70285 0.70463 0.0207 0.0
O144 O 0.66249 0.71279 0.04098 0.0
Zn145 Zn 0.67106 0.67708 0.01888 0.0
O146 O 0.66704 0.64961 0.04594 0.0
O147 O 0.70283 0.67462 0.05144 0.0
O148 O 0.70764 0.66512 0.99848 0.0
O149 O 0.73687 0.69763 1.0044 0.0
O150 O 0.67631 0.70964 0.98682 0.0
O151 O 0.64481 0.67902 0.99094 0.0
C152 C 0.68817 0.65499 0.05886 0.0
C153 C 0.65485 0.69855 0.97827 0.0
C154 C 0.30773 0.65061 0.99339 0.0
C155 C 0.35697 0.69018 0.06757 0.0
O156 O 0.32589 0.63922 1.00701 0.0
Zn157 Zn 0.33181 0.66877 0.03142 0.0
O158 O 0.29979 0.67418 0.99954 0.0
Zn159 Zn 0.30747 0.70413 0.02932 0.0
O160 O 0.31795 0.73408 1.00703 0.0
O161 O 0.34538 0.69931 1.00464 0.0
O162 O 0.33835 0.70538 0.05873 0.0
O163 O 0.3598 0.66681 0.05804 0.0
O164 O 0.29606 0.66697 0.05377 0.0
O165 O 0.27344 0.70447 0.04881 0.0
C166 C 0.33867 0.72289 0.99725 0.0
C167 C 0.27528 0.68112 0.05859 0.0
C168 C 0.8538 0.56996 0.81002 0.0
C169 C 0.80757 0.49102 0.84516 0.0
O170 O 0.86645 0.55801 0.82871 0.0
Zn171 Zn 0.86206 0.5236 0.8539 0.0
O172 O 0.83126 0.56121 0.80221 0.0
Zn173 Zn 0.82987 0.53094 0.82659 0.0
O174 O 0.82608 0.55008 0.8645 0.0
O175 O 0.86156 0.5405 0.88887 0.0
O176 O 0.79983 0.50639 0.82652 0.0
O177 O 0.83007 0.49543 0.85648 0.0
O178 O 0.8924 0.50185 0.8423 0.0
O179 O 0.86236 0.50854 0.81076 0.0
C180 C 0.8392 0.55239 0.88629 0.0
C181 C 0.88487 0.49903 0.81824 0.0
C182 C 0.46854 0.81473 0.883 0.0
C183 C 0.53474 0.87293 0.83989 0.0
O184 O 0.477 0.80667 0.86015 0.0
Zn185 Zn 0.5041 0.81825 0.82898 0.0
O186 O 0.47774 0.83626 0.89298 0.0
Zn187 Zn 0.50177 0.84424 0.86331 0.0
O188 O 0.47277 0.85163 0.83288 0.0
O189 O 0.47949 0.82366 0.7993 0.0
O190 O 0.52454 0.87603 0.86298 0.0
O191 O 0.5284 0.8525 0.82599 0.0
O192 O 0.53037 0.78917 0.82927 0.0
O193 O 0.52951 0.81205 0.86698 0.0
C194 C 0.46617 0.84264 0.80989 0.0
C195 C 0.5387 0.79266 0.85298 0.0
C196 C 0.18484 0.53265 0.78873 0.0
C197 C 0.24409 0.47902 0.84433 0.0
O198 O 0.20778 0.52334 0.78289 0.0
Zn199 Zn 0.21412 0.50458 0.81566 0.0
O200 O 0.17438 0.52742 0.81158 0.0
Zn201 Zn 0.1851 0.5045 0.84661 0.0
O202 O 0.18583 0.53074 0.87487 0.0
O203 O 0.21748 0.53636 0.84445 0.0
O204 O 0.22148 0.48392 0.85541 0.0
O205 O 0.24835 0.48676 0.82055 0.0
O206 O 0.18535 0.47278 0.81331 0.0
O207 O 0.15851 0.47653 0.84812 0.0
C208 C 0.20594 0.5436 0.86617 0.0
C209 C 0.16526 0.46437 0.82687 0.0
C210 C 0.48947 0.13669 0.83604 0.0
C211 C 0.54164 0.19724 0.89213 0.0
O212 O 0.4982 0.1572 0.82353 0.0
Zn213 Zn 0.52155 0.19177 0.83138 0.0
O214 O 0.49486 0.13378 0.86065 0.0
Zn215 Zn 0.51608 0.16591 0.86517 0.0
O216 O 0.48704 0.19668 0.8615 0.0
O217 O 0.4963 0.22133 0.82625 0.0
O218 O 0.53048 0.17572 0.89981 0.0
O219 O 0.54005 0.20446 0.86766 0.0
O220 O 0.55202 0.18608 0.8077 0.0
O221 O 0.55152 0.15834 0.84202 0.0
C222 C 0.48164 0.21665 0.84655 0.0
C223 C 0.56276 0.1671 0.82073 0.0
C224 C 0.81995 0.482 0.16302 0.0
C225 C 0.86242 0.55377 0.21256 0.0
O226 O 0.8066 0.48798 0.18415 0.0
Zn227 Zn 0.81065 0.51584 0.21719 0.0
O228 O 0.84171 0.49405 0.15804 0.0
Zn229 Zn 0.841 0.51782 0.18799 0.0
O230 O 0.84926 0.49147 0.22078 0.0
O231 O 0.81469 0.49304 0.24823 0.0
O232 O 0.86904 0.54366 0.19025 0.0
O233 O 0.84137 0.54541 0.22465 0.0
O234 O 0.7781 0.53674 0.21332 0.0
O235 O 0.80651 0.54208 0.18 0.0
C236 C 0.83776 0.48401 0.24243 0.0
C237 C 0.78393 0.54735 0.19102 0.0
C238 C 0.52901 0.85994 0.23216 0.0
C239 C 0.47845 0.79772 0.17721 0.0
O240 O 0.52547 0.86929 0.20855 0.0
Zn241 Zn 0.50594 0.85563 0.17214 0.0
O242 O 0.52046 0.83677 0.23785 0.0
Zn243 Zn 0.50492 0.82857 0.20399 0.0
O244 O 0.53894 0.82413 0.17768 0.0
O245 O 0.53393 0.85421 0.14587 0.0
O246 O 0.48712 0.79453 0.20076 0.0
O247 O 0.4839 0.81935 0.16461 0.0
O248 O 0.47869 0.88217 0.16692 0.0
O249 O 0.47238 0.85724 0.2027 0.0
C250 C 0.54717 0.83524 0.15613 0.0
C251 C 0.4649 0.87643 0.18744 0.0
C252 C 0.16402 0.54031 0.13304 0.0
C253 C 0.11796 0.46756 0.1792 0.0
O254 O 0.17746 0.53003 0.15216 0.0
Zn255 Zn 0.1738 0.49958 0.18158 0.0
O256 O 0.14123 0.53075 0.12726 0.0
Zn257 Zn 0.14068 0.50347 0.15514 0.0
O258 O 0.13879 0.52809 0.19029 0.0
O259 O 0.17568 0.52158 0.21354 0.0
O260 O 0.11 0.48058 0.15895 0.0
O261 O 0.14082 0.47288 0.18949 0.0
O262 O 0.20327 0.47566 0.17211 0.0
O263 O 0.17068 0.47535 0.14258 0.0
C264 C 0.15345 0.53359 0.21049 0.0
C265 C 0.1934 0.46664 0.15057 0.0
C266 C 0.57082 0.19347 0.13696 0.0
C267 C 0.50896 0.15429 0.20264 0.0
O268 O 0.55854 0.17135 0.1345 0.0
Zn269 Zn 0.53761 0.17391 0.16759 0.0
O270 O 0.56571 0.20846 0.15709 0.0
Zn271 Zn 0.54149 0.20886 0.19224 0.0
O272 O 0.56874 0.21104 0.21956 0.0
O273 O 0.56909 0.17321 0.19646 0.0
O274 O 0.51728 0.17765 0.20898 0.0
O275 O 0.51504 0.14452 0.17995 0.0
O276 O 0.50929 0.20467 0.15948 0.0
O277 O 0.51752 0.2389 0.18601 0.0
C278 C 0.57889 0.1882 0.21468 0.0
C279 C 0.50384 0.22838 0.16748 0.0
C280 C 0.8631 0.80309 0.54001 0.0
C281 C 0.80777 0.86051 0.48501 0.0
O282 O 0.84001 0.79852 0.53065 0.0
Zn283 Zn 0.83544 0.83233 0.5133 0.0
O284 O 0.87421 0.82583 0.53589 0.0
Zn285 Zn 0.86456 0.86241 0.5149 0.0
O286 O 0.86399 0.88847 0.54355 0.0
O287 O 0.83053 0.86004 0.54622 0.0
O288 O 0.82967 0.8722 0.4914 0.0
O289 O 0.8032 0.83709 0.49348 0.0
O290 O 0.86621 0.82984 0.4828 0.0
O291 O 0.89311 0.86418 0.48858 0.0
C292 C 0.84303 0.88041 0.55543 0.0
C293 C 0.88696 0.84316 0.47575 0.0
C294 C 0.25064 0.84582 0.53238 0.0
C295 C 0.19114 0.79001 0.47902 0.0
O296 O 0.25536 0.8223 0.52394 0.0
Zn297 Zn 0.22154 0.81769 0.50545 0.0
O298 O 0.22798 0.85675 0.52753 0.0
Zn299 Zn 0.19177 0.84778 0.50688 0.0
O300 O 0.16556 0.84875 0.53517 0.0
O301 O 0.19256 0.8139 0.53762 0.0
O302 O 0.18082 0.81263 0.48529 0.0
O303 O 0.215 0.78474 0.48592 0.0
O304 O 0.22527 0.84853 0.47512 0.0
O305 O 0.19067 0.87548 0.48032 0.0
C306 C 0.17237 0.82712 0.54651 0.0
C307 C 0.21214 0.86943 0.4681 0.0
C308 C 0.18727 0.23676 0.53926 0.0
C309 C 0.22679 0.18347 0.46787 0.0
O310 O 0.20764 0.24251 0.52514 0.0
Zn311 Zn 0.2092 0.20948 0.50535 0.0
O312 O 0.17637 0.21369 0.5369 0.0
Zn313 Zn 0.18146 0.17814 0.51308 0.0
O314 O 0.19121 0.15045 0.53894 0.0
O315 O 0.22232 0.18112 0.53434 0.0
O316 O 0.20747 0.17146 0.4796 0.0
O317 O 0.23495 0.20584 0.47656 0.0
O318 O 0.17191 0.21206 0.48421 0.0
O319 O 0.14712 0.17716 0.49496 0.0
C320 C 0.21394 0.15964 0.54546 0.0
C321 C 0.15013 0.19882 0.48197 0.0
C322 C 0.84061 0.23319 0.55292 0.0
C323 C 0.78068 0.18889 0.48955 0.0
O324 O 0.84866 0.20958 0.54692 0.0
Zn325 Zn 0.83528 0.1773 0.522 0.0
O326 O 0.81907 0.24193 0.54276 0.0
Zn327 Zn 0.80999 0.21159 0.52075 0.0
O328 O 0.7976 0.18117 0.5478 0.0
O329 O 0.82721 0.14846 0.54673 0.0
O330 O 0.77797 0.21245 0.49882 0.0
O331 O 0.80094 0.17473 0.49631 0.0
O332 O 0.8638 0.173 0.49607 0.0
O333 O 0.84112 0.21062 0.49129 0.0
C334 C 0.80521 0.15797 0.55536 0.0
C335 C 0.85997 0.19489 0.48379 0.0
H336 H 0.27409 0.15708 0.46034 0.0
H337 H 0.20223 0.18321 0.42009 0.0
H338 H 0.21702 0.16016 0.3788 0.0
H339 H 0.31983 0.15977 0.40182 0.0
H340 H 0.33721 0.12978 0.41159 0.0
H341 H 0.3227 0.15128 0.43665 0.0
H342 H 0.29577 0.11129 0.45548 0.0
H343 H 0.3101 0.08974 0.43047 0.0
H344 H 0.2743 0.09259 0.43353 0.0
H345 H 0.23794 0.13141 0.3432 0.0
H346 H 0.2625 0.09775 0.31649 0.0
H347 H 0.32007 0.0892 0.38056 0.0
C348 C 0.26196 0.15848 0.44253 0.0
C349 C 0.23739 0.17227 0.44291 0.0
C350 C 0.22137 0.17303 0.41976 0.0
C351 C 0.22961 0.16004 0.39632 0.0
C352 C 0.25383 0.14623 0.39653 0.0
C353 C 0.26978 0.14533 0.41904 0.0
C354 C 0.29364 0.12713 0.41474 0.0
C355 C 0.3199 0.14294 0.41629 0.0
C356 C 0.29342 0.10381 0.43473 0.0
C357 C 0.28833 0.11755 0.38657 0.0
C358 C 0.26548 0.12906 0.37626 0.0
C359 C 0.25601 0.12245 0.35095 0.0
C360 C 0.2701 0.10331 0.33592 0.0
C361 C 0.29323 0.09083 0.34636 0.0
C362 C 0.30254 0.09842 0.3719 0.0
H363 H 0.92752 0.29651 0.38267 0.0
H364 H 0.95428 0.2289 0.33544 0.0
H365 H 0.93127 0.19816 0.36677 0.0
H366 H 0.93602 0.26803 0.44533 0.0
H367 H 0.90656 0.28276 0.46011 0.0
H368 H 0.92325 0.29932 0.43291 0.0
H369 H 0.87931 0.29979 0.40565 0.0
H370 H 0.86231 0.2837 0.43299 0.0
H371 H 0.86159 0.26896 0.40016 0.0
H372 H 0.90944 0.17493 0.40678 0.0
H373 H 0.8852 0.1616 0.44796 0.0
H374 H 0.87137 0.24506 0.46681 0.0
C375 C 0.92806 0.27525 0.37861 0.0
C376 C 0.94256 0.26499 0.35668 0.0
C377 C 0.94295 0.23711 0.352 0.0
C378 C 0.93015 0.21954 0.36979 0.0
C379 C 0.91673 0.23032 0.3918 0.0
C380 C 0.91512 0.2576 0.39585 0.0
C381 C 0.8998 0.26432 0.42103 0.0
C382 C 0.91747 0.2795 0.44101 0.0
C383 C 0.87423 0.28012 0.41456 0.0
C384 C 0.8934 0.23656 0.43089 0.0
C385 C 0.90349 0.21713 0.41399 0.0
C386 C 0.90111 0.18999 0.41991 0.0
C387 C 0.88754 0.18261 0.44341 0.0
C388 C 0.87631 0.20232 0.46038 0.0
C389 C 0.87949 0.22956 0.45401 0.0
H390 H 0.8153 0.90384 0.45218 0.0
H391 H 0.75476 0.84868 0.4807 0.0
H392 H 0.72055 0.87276 0.45474 0.0
H393 H 0.77529 0.96253 0.45331 0.0
H394 H 0.78901 0.97629 0.423 0.0
H395 H 0.80898 0.95437 0.44328 0.0
H396 H 0.81675 0.92329 0.40259 0.0
H397 H 0.79679 0.94514 0.38216 0.0
H398 H 0.78839 0.91024 0.38475 0.0
H399 H 0.69244 0.90468 0.4289 0.0
H400 H 0.6725 0.94075 0.40185 0.0
H401 H 0.75139 0.97348 0.38715 0.0
C402 C 0.79486 0.89678 0.45286 0.0
C403 C 0.78765 0.87444 0.46854 0.0
C404 C 0.76075 0.86569 0.46877 0.0
C405 C 0.74116 0.87925 0.45413 0.0
C406 C 0.74888 0.90127 0.43902 0.0
C407 C 0.77511 0.90982 0.43797 0.0
C408 C 0.778 0.93406 0.42008 0.0
C409 C 0.78843 0.95824 0.43587 0.0
C410 C 0.79605 0.9278 0.39596 0.0
C411 C 0.7492 0.93808 0.41165 0.0
C412 C 0.73275 0.91901 0.42296 0.0
C413 C 0.70514 0.91948 0.41959 0.0
C414 C 0.694 0.94005 0.40429 0.0
C415 C 0.71047 0.9596 0.39224 0.0
C416 C 0.73845 0.95842 0.39574 0.0
H417 H 0.14627 0.79936 0.45015 0.0
H418 H 0.1972 0.73523 0.47838 0.0
H419 H 0.16537 0.70201 0.46002 0.0
H420 H 0.0836 0.76863 0.46374 0.0
H421 H 0.0679 0.78144 0.43406 0.0
H422 H 0.09465 0.79978 0.4495 0.0
H423 H 0.12136 0.79941 0.40501 0.0
H424 H 0.09445 0.78157 0.38933 0.0
H425 H 0.12787 0.76804 0.38849 0.0
H426 H 0.12608 0.67583 0.43898 0.0
H427 H 0.08712 0.66004 0.41254 0.0
H428 H 0.064 0.74222 0.39831 0.0
C429 C 0.15086 0.77833 0.4524 0.0
C430 C 0.17416 0.76986 0.46571 0.0
C431 C 0.17952 0.74215 0.46805 0.0
C432 C 0.16144 0.72317 0.45791 0.0
C433 C 0.13827 0.73229 0.44536 0.0
C434 C 0.13328 0.75929 0.44226 0.0
C435 C 0.10766 0.76429 0.42727 0.0
C436 C 0.08725 0.77942 0.44469 0.0
C437 C 0.11317 0.77919 0.40097 0.0
C438 C 0.09888 0.7359 0.42228 0.0
C439 C 0.11646 0.71757 0.43308 0.0
C440 C 0.11223 0.69007 0.43047 0.0
C441 C 0.08998 0.68125 0.41569 0.0
C442 C 0.07265 0.69996 0.40355 0.0
C443 C 0.07695 0.7275 0.40747 0.0
H444 H 0.24299 0.89236 0.55913 0.0
H445 H 0.30487 0.83576 0.5365 0.0
H446 H 0.33902 0.86537 0.5568 0.0
H447 H 0.28022 0.95213 0.54673 0.0
H448 H 0.26605 0.96951 0.57497 0.0
H449 H 0.24701 0.94406 0.55821 0.0
H450 H 0.24089 0.9185 0.60283 0.0
H451 H 0.25943 0.94411 0.61977 0.0
H452 H 0.26993 0.90974 0.62216 0.0
H453 H 0.3663 0.90231 0.58037 0.0
H454 H 0.38265 0.93958 0.60879 0.0
H455 H 0.30184 0.9704 0.6147 0.0
C456 C 0.26371 0.88605 0.55838 0.0
C457 C 0.27128 0.86177 0.54619 0.0
C458 C 0.29861 0.85426 0.54587 0.0
C459 C 0.31814 0.87105 0.55713 0.0
C460 C 0.30991 0.89518 0.56857 0.0
C461 C 0.28324 0.90241 0.56944 0.0
C462 C 0.27904 0.92865 0.58368 0.0
C463 C 0.2674 0.94983 0.56476 0.0
C464 C 0.26129 0.92502 0.60859 0.0
C465 C 0.3075 0.93508 0.59108 0.0
C466 C 0.32523 0.91587 0.58199 0.0
C467 C 0.35257 0.91751 0.58742 0.0
C468 C 0.36174 0.93882 0.60334 0.0
C469 C 0.34347 0.95781 0.61374 0.0
C470 C 0.31624 0.95619 0.60686 0.0
H471 H 0.07153 0.29093 0.63416 0.0
H472 H 0.09337 0.37106 0.60949 0.0
H473 H 0.13168 0.35271 0.58405 0.0
H474 H 0.13853 0.26443 0.64098 0.0
H475 H 0.12991 0.23218 0.62755 0.0
H476 H 0.10506 0.25171 0.64495 0.0
H477 H 0.07382 0.24919 0.60385 0.0
H478 H 0.09843 0.22942 0.58648 0.0
H479 H 0.08611 0.25984 0.57171 0.0
H480 H 0.16753 0.32538 0.56102 0.0
H481 H 0.19499 0.29101 0.53832 0.0
H482 H 0.14857 0.22891 0.5771 0.0
C483 C 0.08444 0.30464 0.62352 0.0
C484 C 0.07955 0.33243 0.62389 0.0
C485 C 0.09671 0.34968 0.60942 0.0
C486 C 0.11862 0.33946 0.59508 0.0
C487 C 0.12298 0.31196 0.59527 0.0
C488 C 0.10618 0.29477 0.60886 0.0
C489 C 0.11428 0.26594 0.60462 0.0
C490 C 0.12243 0.2528 0.6311 0.0
C491 C 0.09183 0.25018 0.59084 0.0
C492 C 0.13815 0.26955 0.58635 0.0
C493 C 0.14312 0.29624 0.58149 0.0
C494 C 0.16387 0.30442 0.56474 0.0
C495 C 0.17946 0.28475 0.55205 0.0
C496 C 0.17397 0.25728 0.55596 0.0
C497 C 0.15335 0.24974 0.57376 0.0
H498 H 0.81559 0.1144 0.58752 0.0
H499 H 0.75127 0.16329 0.556 0.0
H500 H 0.71813 0.13391 0.57729 0.0
H501 H 0.78236 0.05049 0.58193 0.0
H502 H 0.79506 0.03796 0.61313 0.0
H503 H 0.8141 0.06202 0.59432 0.0
H504 H 0.81529 0.09359 0.63536 0.0
H505 H 0.79659 0.06946 0.65435 0.0
H506 H 0.78436 0.10321 0.6513 0.0
H507 H 0.69163 0.09875 0.60119 0.0
H508 H 0.67413 0.06388 0.63171 0.0
H509 H 0.75537 0.03972 0.64984 0.0
C510 C 0.79454 0.11889 0.5852 0.0
C511 C 0.78604 0.14114 0.57019 0.0
C512 C 0.7583 0.14651 0.56768 0.0
C513 C 0.73925 0.12979 0.57945 0.0
C514 C 0.74821 0.1079 0.59394 0.0
C515 C 0.77518 0.10266 0.59729 0.0
C516 C 0.77939 0.07878 0.61528 0.0
C517 C 0.79356 0.05596 0.60026 0.0
C518 C 0.79481 0.08675 0.64057 0.0
C519 C 0.75064 0.07166 0.62163 0.0
C520 C 0.73293 0.08833 0.60869 0.0
C521 C 0.70528 0.08557 0.61151 0.0
C522 C 0.69551 0.06568 0.62869 0.0
C523 C 0.71343 0.04933 0.64307 0.0
C524 C 0.74126 0.05211 0.6391 0.0
H525 H 0.97737 0.74416 0.63339 0.0
H526 H 0.95501 0.66513 0.60595 0.0
H527 H 0.91856 0.68497 0.57909 0.0
H528 H 0.9115 0.77238 0.63795 0.0
H529 H 0.92151 0.80463 0.62553 0.0
H530 H 0.94512 0.7841 0.64325 0.0
H531 H 0.97799 0.78659 0.6032 0.0
H532 H 0.95457 0.80727 0.58544 0.0
H533 H 0.96674 0.7768 0.57049 0.0
H534 H 0.88363 0.71362 0.55648 0.0
H535 H 0.85623 0.74909 0.53571 0.0
H536 H 0.9037 0.80934 0.5758 0.0
C537 C 0.96472 0.73103 0.6218 0.0
C538 C 0.96877 0.70313 0.62185 0.0
C539 C 0.95218 0.68658 0.60611 0.0
C540 C 0.93138 0.69765 0.59095 0.0
C541 C 0.9278 0.72528 0.59148 0.0
C542 C 0.94428 0.74177 0.60619 0.0
C543 C 0.93713 0.77089 0.60234 0.0
C544 C 0.92829 0.78375 0.62885 0.0
C545 C 0.96049 0.78628 0.5896 0.0
C546 C 0.91393 0.76825 0.58326 0.0
C547 C 0.90859 0.74178 0.57752 0.0
C548 C 0.88772 0.73441 0.56072 0.0
C549 C 0.8722 0.75466 0.54914 0.0
C550 C 0.87794 0.78191 0.55411 0.0
C551 C 0.89897 0.78868 0.57153 0.0
H552 H 0.4372 0.34019 0.07529 0.0
H553 H 0.3695 0.28633 0.06885 0.0
H554 H 0.38988 0.2565 0.10178 0.0
H555 H 0.48673 0.29 0.08011 0.0
H556 H 0.50715 0.30725 0.10413 0.0
H557 H 0.48642 0.32599 0.08158 0.0
H558 H 0.4637 0.34964 0.12171 0.0
H559 H 0.48436 0.3309 0.14442 0.0
H560 H 0.44848 0.32988 0.14767 0.0
H561 H 0.41868 0.2301 0.13135 0.0
H562 H 0.45471 0.2089 0.15739 0.0
H563 H 0.50367 0.27958 0.14752 0.0
C564 C 0.42653 0.32232 0.08113 0.0
C565 C 0.40171 0.31569 0.06936 0.0
C566 C 0.38854 0.29193 0.07739 0.0
C567 C 0.39989 0.27482 0.09624 0.0
C568 C 0.42442 0.28169 0.10716 0.0
C569 C 0.43763 0.30487 0.10012 0.0
C570 C 0.46447 0.30657 0.11414 0.0
C571 C 0.48755 0.3075 0.09377 0.0
C572 C 0.46529 0.33068 0.13311 0.0
C573 C 0.46442 0.28043 0.12955 0.0
C574 C 0.441 0.26652 0.12521 0.0
C575 C 0.4369 0.24097 0.13538 0.0
C576 C 0.45743 0.22908 0.15009 0.0
C577 C 0.48159 0.24285 0.15482 0.0
C578 C 0.485 0.26902 0.1448 0.0
H579 H 0.76763 0.46835 0.15438 0.0
H580 H 0.84864 0.4516 0.1279 0.0
H581 H 0.83122 0.42023 0.09411 0.0
H582 H 0.7403 0.40155 0.14439 0.0
H583 H 0.70871 0.41376 0.1322 0.0
H584 H 0.7276 0.43337 0.15565 0.0
H585 H 0.7268 0.47342 0.12298 0.0
H586 H 0.70801 0.45393 0.09939 0.0
H587 H 0.73915 0.46904 0.0894 0.0
H588 H 0.80527 0.39141 0.06297 0.0
H589 H 0.77242 0.3683 0.03476 0.0
H590 H 0.70771 0.40538 0.07954 0.0
C591 C 0.78169 0.45772 0.14174 0.0
C592 C 0.80951 0.46213 0.1439 0.0
C593 C 0.82727 0.44841 0.1266 0.0
C594 C 0.81757 0.43053 0.10741 0.0
C595 C 0.79003 0.42686 0.10557 0.0
C596 C 0.7723 0.44015 0.12213 0.0
C597 C 0.74359 0.43373 0.1149 0.0
C598 C 0.72921 0.41977 0.13817 0.0
C599 C 0.7285 0.45904 0.10614 0.0
C600 C 0.74798 0.41479 0.09165 0.0
C601 C 0.77494 0.41093 0.08684 0.0
C602 C 0.7841 0.39426 0.06653 0.0
C603 C 0.76524 0.38119 0.05064 0.0
C604 C 0.73746 0.38503 0.05489 0.0
C605 C 0.72878 0.40211 0.07572 0.0
H606 H 0.62177 0.74604 0.04806 0.0
H607 H 0.69664 0.76627 0.08635 0.0
H608 H 0.67232 0.79614 0.11764 0.0
H609 H 0.59239 0.81324 0.05331 0.0
H610 H 0.55918 0.80042 0.05878 0.0
H611 H 0.5828 0.78166 0.03897 0.0
H612 H 0.57603 0.74068 0.06978 0.0
H613 H 0.55256 0.75931 0.08978 0.0
H614 H 0.58133 0.74415 0.10518 0.0
H615 H 0.63879 0.81973 0.1478 0.0
H616 H 0.59934 0.83921 0.17109 0.0
H617 H 0.54736 0.80639 0.1105 0.0
C618 C 0.63306 0.75699 0.06287 0.0
C619 C 0.66101 0.75384 0.06497 0.0
C620 C 0.6752 0.76858 0.0844 0.0
C621 C 0.66155 0.78548 0.10227 0.0
C622 C 0.63386 0.7878 0.09996 0.0
C623 C 0.61986 0.77435 0.08038 0.0
C624 C 0.59022 0.78025 0.08201 0.0
C625 C 0.58059 0.79476 0.05677 0.0
C626 C 0.5741 0.75457 0.08699 0.0
C627 C 0.58955 0.79851 0.10607 0.0
C628 C 0.61488 0.80254 0.11629 0.0
C629 C 0.61896 0.81718 0.13965 0.0
C630 C 0.59656 0.82807 0.15276 0.0
C631 C 0.57068 0.82453 0.14218 0.0
C632 C 0.56715 0.80973 0.11855 0.0
H633 H 0.2152 0.55801 0.13484 0.0
H634 H 0.13778 0.57667 0.10079 0.0
H635 H 0.1566 0.61837 0.08162 0.0
H636 H 0.23401 0.62477 0.15246 0.0
H637 H 0.26865 0.61969 0.14377 0.0
H638 H 0.24873 0.59199 0.15514 0.0
H639 H 0.26029 0.56544 0.11208 0.0
H640 H 0.28068 0.5928 0.10091 0.0
H641 H 0.25418 0.58049 0.08 0.0
H642 H 0.18518 0.65835 0.06592 0.0
H643 H 0.22135 0.68878 0.05086 0.0
H644 H 0.27879 0.64256 0.09606 0.0
C645 C 0.20207 0.57081 0.12338 0.0
C646 C 0.17498 0.56414 0.11939 0.0
C647 C 0.15864 0.58135 0.10401 0.0
C648 C 0.16911 0.60517 0.09327 0.0
C649 C 0.19588 0.61136 0.09812 0.0
C650 C 0.21212 0.59439 0.11258 0.0
C651 C 0.24046 0.60453 0.1141 0.0
C652 C 0.24841 0.61061 0.14309 0.0
C653 C 0.26004 0.58464 0.10098 0.0
C654 C 0.23789 0.62984 0.09798 0.0
C655 C 0.21203 0.63379 0.08915 0.0
C656 C 0.20542 0.65549 0.07292 0.0
C657 C 0.226 0.67284 0.06469 0.0
C658 C 0.25276 0.66809 0.07249 0.0
C659 C 0.25845 0.64682 0.09 0.0
H660 H 0.3618 0.7729 0.99609 0.0
H661 H 0.35141 0.6999 0.95065 0.0
H662 H 0.3818 0.71691 0.91583 0.0
H663 H 0.36848 0.81887 0.93817 0.0
H664 H 0.39413 0.83856 0.9539 0.0
H665 H 0.36909 0.82221 0.97399 0.0
H666 H 0.40638 0.79862 1.00093 0.0
H667 H 0.43151 0.81467 0.98077 0.0
H668 H 0.43103 0.77878 0.98355 0.0
H669 H 0.41482 0.73931 0.88798 0.0
H670 H 0.44935 0.76674 0.86694 0.0
H671 H 0.44093 0.82589 0.93009 0.0
C672 C 0.36547 0.76098 0.9784 0.0
C673 C 0.3541 0.73531 0.97565 0.0
C674 C 0.35986 0.7197 0.95282 0.0
C675 C 0.37704 0.72918 0.933 0.0
C676 C 0.38851 0.75422 0.93646 0.0
C677 C 0.38305 0.77004 0.95846 0.0
C678 C 0.39975 0.79537 0.95782 0.0
C679 C 0.38179 0.82023 0.95585 0.0
C680 C 0.41826 0.79694 0.98222 0.0
C681 C 0.41559 0.79101 0.93224 0.0
C682 C 0.40848 0.76718 0.92031 0.0
C683 C 0.42045 0.75815 0.89694 0.0
C684 C 0.44015 0.77395 0.88518 0.0
C685 C 0.4479 0.7986 0.89677 0.0
C686 C 0.43544 0.8072 0.92072 0.0
H687 H 0.30081 0.40608 0.97248 0.0
H688 H 0.38116 0.42236 0.94454 0.0
H689 H 0.36251 0.44644 0.90537 0.0
H690 H 0.27238 0.39222 0.91152 0.0
H691 H 0.24069 0.40803 0.91844 0.0
H692 H 0.26034 0.39483 0.94539 0.0
H693 H 0.26024 0.44103 0.96891 0.0
H694 H 0.23992 0.4542 0.94238 0.0
H695 H 0.27106 0.47015 0.95072 0.0
H696 H 0.33387 0.46439 0.86657 0.0
H697 H 0.29857 0.47984 0.83549 0.0
H698 H 0.23788 0.45156 0.89064 0.0
C699 C 0.31447 0.41534 0.95846 0.0
C700 C 0.34234 0.41263 0.96144 0.0
C701 C 0.35972 0.4247 0.9427 0.0
C702 C 0.34928 0.43814 0.92034 0.0
C703 C 0.32152 0.43953 0.91744 0.0
C704 C 0.30444 0.42895 0.93642 0.0
C705 C 0.27549 0.43242 0.92875 0.0
C706 C 0.26142 0.40526 0.92585 0.0
C707 C 0.26082 0.45053 0.94888 0.0
C708 C 0.27877 0.446 0.90209 0.0
C709 C 0.30538 0.44997 0.89572 0.0
C710 C 0.31299 0.46161 0.87156 0.0
C711 C 0.29284 0.47007 0.85391 0.0
C712 C 0.26549 0.4669 0.86065 0.0
C713 C 0.25859 0.45436 0.8849 0.0
H714 H 0.58479 0.22834 0.88236 0.0
H715 H 0.5272 0.20819 0.94393 0.0
H716 H 0.54508 0.24456 0.97245 0.0
H717 H 0.63926 0.24258 0.92736 0.0
H718 H 0.65218 0.26894 0.90653 0.0
H719 H 0.63429 0.24155 0.89175 0.0
H720 H 0.60181 0.27542 0.86982 0.0
H721 H 0.61915 0.30287 0.88523 0.0
H722 H 0.58374 0.29879 0.89055 0.0
H723 H 0.56853 0.28499 0.99315 0.0
H724 H 0.6008 0.31956 1.0077 0.0
H725 H 0.64365 0.31108 0.93287 0.0
C726 C 0.57613 0.23141 0.90199 0.0
C727 C 0.55468 0.21556 0.91105 0.0
C728 C 0.54389 0.22 0.93683 0.0
C729 C 0.55368 0.2408 0.95296 0.0
C730 C 0.5744 0.25664 0.94303 0.0
C731 C 0.58589 0.25168 0.91838 0.0
C732 C 0.60878 0.27049 0.91269 0.0
C733 C 0.63519 0.25496 0.90941 0.0
C734 C 0.603 0.28792 0.88812 0.0
C735 C 0.60849 0.28693 0.93799 0.0
C736 C 0.58823 0.27907 0.95509 0.0
C737 C 0.58443 0.29129 0.97988 0.0
C738 C 0.60259 0.31114 0.98784 0.0
C739 C 0.6244 0.31813 0.9712 0.0
C740 C 0.62687 0.30635 0.94575 0.0
H741 H 0.72379 0.63475 0.95862 0.0
H742 H 0.78544 0.67822 1.00097 0.0
H743 H 0.82003 0.64951 0.98011 0.0
H744 H 0.75406 0.56953 0.96151 0.0
H745 H 0.74401 0.56042 0.92822 0.0
H746 H 0.72411 0.58362 0.94735 0.0
H747 H 0.72801 0.61866 0.90947 0.0
H748 H 0.74766 0.59546 0.89013 0.0
H749 H 0.76065 0.6282 0.89748 0.0
H750 H 0.84787 0.61497 0.95506 0.0
H751 H 0.86679 0.58152 0.92362 0.0
H752 H 0.78682 0.56297 0.89619 0.0
C753 C 0.74457 0.63818 0.96354 0.0
C754 C 0.75196 0.6586 0.98148 0.0
C755 C 0.77937 0.66273 0.98717 0.0
C756 C 0.79913 0.64641 0.97559 0.0
C757 C 0.79114 0.62628 0.95813 0.0
C758 C 0.76453 0.62242 0.95182 0.0
C759 C 0.76125 0.60046 0.93136 0.0
C760 C 0.74489 0.57713 0.9428 0.0
C761 C 0.74866 0.61135 0.90559 0.0
C762 C 0.79016 0.59258 0.92706 0.0
C763 C 0.80713 0.60734 0.94297 0.0
C764 C 0.83477 0.60336 0.94244 0.0
C765 C 0.84533 0.58425 0.92469 0.0
C766 C 0.82826 0.5698 0.90749 0.0
C767 C 0.80035 0.57384 0.90905 0.0
H768 H 0.06149 0.37148 0.29326 0.0
H769 H 0.01589 0.33083 0.23198 0.0
H770 H 0.03547 0.36057 0.19781 0.0
H771 H 0.05576 0.43664 0.26758 0.0
H772 H 0.08933 0.44664 0.27579 0.0
H773 H 0.07279 0.42141 0.29533 0.0
H774 H 0.11177 0.38841 0.28626 0.0
H775 H 0.12862 0.41367 0.26695 0.0
H776 H 0.12176 0.3815 0.25234 0.0
H777 H 0.05661 0.39779 0.17106 0.0
H778 H 0.08241 0.43578 0.15278 0.0
H779 H 0.11651 0.45009 0.23093 0.0
C780 C 0.05593 0.36857 0.27259 0.0
C781 C 0.03716 0.34882 0.26527 0.0
C782 C 0.03039 0.34566 0.23803 0.0
C783 C 0.04129 0.36258 0.21849 0.0
C784 C 0.05926 0.38225 0.22646 0.0
C785 C 0.06696 0.38496 0.25278 0.0
C786 C 0.08669 0.40764 0.25609 0.0
C787 C 0.07546 0.42936 0.2748 0.0
C788 C 0.11382 0.39717 0.26599 0.0
C789 C 0.08856 0.41756 0.2276 0.0
C790 C 0.07236 0.40284 0.21085 0.0
C791 C 0.06967 0.40919 0.1839 0.0
C792 C 0.08424 0.43089 0.17374 0.0
C793 C 0.10156 0.4457 0.1904 0.0
C794 C 0.10367 0.43888 0.21767 0.0
H795 H 0.14484 0.56903 0.79833 0.0
H796 H 0.19062 0.53196 0.7345 0.0
H797 H 0.16377 0.5565 0.70122 0.0
H798 H 0.08147 0.56902 0.76618 0.0
H799 H 0.07146 0.60131 0.7787 0.0
H800 H 0.09435 0.58099 0.79754 0.0
H801 H 0.12877 0.6196 0.79773 0.0
H802 H 0.10593 0.64009 0.77898 0.0
H803 H 0.13928 0.63416 0.76653 0.0
H804 H 0.12991 0.58262 0.67494 0.0
H805 H 0.09431 0.61202 0.65742 0.0
H806 H 0.07276 0.63475 0.73827 0.0
C807 C 0.14926 0.56617 0.77735 0.0
C808 C 0.16973 0.54852 0.76896 0.0
C809 C 0.17509 0.54547 0.74135 0.0
C810 C 0.15989 0.55923 0.72231 0.0
C811 C 0.1397 0.57631 0.73123 0.0
C812 C 0.13463 0.58016 0.75809 0.0
C813 C 0.11213 0.60007 0.76236 0.0
C814 C 0.08846 0.58706 0.77706 0.0
C815 C 0.12214 0.62495 0.77728 0.0
C816 C 0.10511 0.60654 0.7337 0.0
C817 C 0.12108 0.59241 0.71606 0.0
C818 C 0.11751 0.59404 0.68854 0.0
C819 C 0.09719 0.61069 0.67879 0.0
C820 C 0.08099 0.6258 0.69649 0.0
C821 C 0.08512 0.62372 0.72428 0.0
H822 H 0.42638 0.06767 0.7069 0.0
H823 H 0.37178 0.02687 0.76055 0.0
H824 H 0.39436 0.04709 0.79919 0.0
H825 H 0.4854 0.06351 0.74856 0.0
H826 H 0.49692 0.09657 0.74024 0.0
H827 H 0.47739 0.07787 0.71658 0.0
H828 H 0.4431 0.11666 0.71404 0.0
H829 H 0.46261 0.13552 0.73756 0.0
H830 H 0.42782 0.12894 0.74431 0.0
H831 H 0.42314 0.07116 0.83224 0.0
H832 H 0.45347 0.10117 0.8571 0.0
H833 H 0.48761 0.12837 0.78218 0.0
C834 C 0.41931 0.06295 0.72679 0.0
C835 C 0.39737 0.04567 0.73071 0.0
C836 C 0.38846 0.04019 0.75704 0.0
C837 C 0.40126 0.05143 0.77916 0.0
C838 C 0.4228 0.06838 0.77469 0.0
C839 C 0.43159 0.07442 0.74918 0.0
C840 C 0.45427 0.09441 0.74997 0.0
C841 C 0.48002 0.08236 0.73814 0.0
C842 C 0.44647 0.12042 0.73562 0.0
C843 C 0.45674 0.09864 0.77982 0.0
C844 C 0.43868 0.08314 0.79375 0.0
C845 C 0.43734 0.08349 0.82157 0.0
C846 C 0.45468 0.10049 0.83553 0.0
C847 C 0.47275 0.11716 0.82159 0.0
C848 C 0.47386 0.11597 0.79339 0.0
H849 H 0.91439 0.45238 0.81911 0.0
H850 H 0.89499 0.52137 0.77057 0.0
H851 H 0.92197 0.50309 0.73352 0.0
H852 H 0.98283 0.44207 0.79367 0.0
H853 H 0.97998 0.40618 0.79381 0.0
H854 H 0.96128 0.42586 0.81757 0.0
H855 H 0.91741 0.40374 0.80146 0.0
H856 H 0.93594 0.38417 0.77753 0.0
H857 H 0.90879 0.40515 0.76658 0.0
H858 H 0.94945 0.477 0.70126 0.0
H859 H 0.97535 0.4439 0.67522 0.0
H860 H 0.97511 0.39044 0.74341 0.0
C861 C 0.91632 0.46373 0.80082 0.0
C862 C 0.90287 0.48828 0.79759 0.0
C863 C 0.90522 0.50246 0.77327 0.0
C864 C 0.92052 0.4923 0.75217 0.0
C865 C 0.9331 0.46776 0.75562 0.0
C866 C 0.93118 0.45357 0.77924 0.0
C867 C 0.94536 0.42688 0.77692 0.0
C868 C 0.96876 0.42516 0.79666 0.0
C869 C 0.9257 0.40362 0.78085 0.0
C870 C 0.95527 0.4283 0.74832 0.0
C871 C 0.94822 0.45218 0.73653 0.0
C872 C 0.95514 0.4582 0.71025 0.0
C873 C 0.9698 0.43928 0.69561 0.0
C874 C 0.97707 0.41456 0.7072 0.0
C875 C 0.96961 0.40906 0.7339 0.0
H876 H 0.62191 0.93871 0.72358 0.0
H877 H 0.67031 0.97504 0.78547 0.0
H878 H 0.64091 0.95574 0.81992 0.0
H879 H 0.55811 0.94693 0.75591 0.0
H880 H 0.5454 0.91497 0.74533 0.0
H881 H 0.56991 0.93207 0.72525 0.0
H882 H 0.60104 0.89067 0.72715 0.0
H883 H 0.5765 0.87336 0.74698 0.0
H884 H 0.61018 0.87698 0.75911 0.0
H885 H 0.60515 0.93377 0.84791 0.0
H886 H 0.5689 0.90601 0.86717 0.0
H887 H 0.54545 0.88218 0.78737 0.0
C888 C 0.62636 0.9425 0.74438 0.0
C889 C 0.64844 0.95841 0.75177 0.0
C890 C 0.65364 0.96278 0.77925 0.0
C891 C 0.63693 0.95207 0.79902 0.0
C892 C 0.61519 0.93674 0.79109 0.0
C893 C 0.6101 0.93159 0.76446 0.0
C894 C 0.58603 0.91355 0.7614 0.0
C895 C 0.56353 0.92773 0.74606 0.0
C896 C 0.59392 0.88707 0.74787 0.0
C897 C 0.57847 0.9094 0.79042 0.0
C898 C 0.59526 0.92325 0.80725 0.0
C899 C 0.59193 0.9227 0.83493 0.0
C900 C 0.57124 0.90704 0.8457 0.0
C901 C 0.5545 0.89189 0.8288 0.0
C902 C 0.55806 0.89343 0.80082 0.0
H903 H 0.94532 0.62429 0.32925 0.0
H904 H 0.97835 0.676 0.26787 0.0
H905 H 0.9496 0.65482 0.23445 0.0
H906 H 0.94029 0.56591 0.28935 0.0
H907 H 0.90886 0.55496 0.30318 0.0
H908 H 0.93117 0.57488 0.32304 0.0
H909 H 0.89347 0.60958 0.33098 0.0
H910 H 0.87101 0.58971 0.31118 0.0
H911 H 0.87671 0.62423 0.30275 0.0
H912 H 0.92083 0.62583 0.20672 0.0
H913 H 0.89056 0.59239 0.18685 0.0
H914 H 0.87324 0.56103 0.26569 0.0
C915 C 0.94626 0.63133 0.30885 0.0
C916 C 0.96414 0.65187 0.30129 0.0
C917 C 0.96478 0.66043 0.27431 0.0
C918 C 0.94854 0.64849 0.25507 0.0
C919 C 0.9314 0.62819 0.26304 0.0
C920 C 0.92982 0.61982 0.28928 0.0
C921 C 0.90974 0.5973 0.29222 0.0
C922 C 0.92334 0.57175 0.30255 0.0
C923 C 0.88634 0.60572 0.31036 0.0
C924 C 0.90079 0.59409 0.26347 0.0
C925 C 0.9137 0.61207 0.247 0.0
C926 C 0.91022 0.61193 0.21942 0.0
C927 C 0.89309 0.59286 0.20831 0.0
C928 C 0.87936 0.57448 0.22478 0.0
C929 C 0.88308 0.57529 0.25274 0.0
H930 H 0.36795 0.94943 0.28893 0.0
H931 H 0.33755 0.99604 0.22273 0.0
H932 H 0.36294 0.9674 0.1912 0.0
H933 H 0.43198 0.94306 0.26618 0.0
H934 H 0.43725 0.90937 0.2777 0.0
H935 H 0.41347 0.93056 0.29446 0.0
H936 H 0.37615 0.89555 0.28692 0.0
H937 H 0.39993 0.874 0.2704 0.0
H938 H 0.36957 0.88359 0.25364 0.0
H939 H 0.39762 0.93843 0.16805 0.0
H940 H 0.43541 0.90918 0.15489 0.0
H941 H 0.44144 0.88084 0.23642 0.0
C942 C 0.36601 0.95316 0.26773 0.0
C943 C 0.35076 0.97488 0.25821 0.0
C944 C 0.34888 0.97929 0.23039 0.0
C945 C 0.36332 0.96319 0.21237 0.0
C946 C 0.37905 0.94254 0.22256 0.0
C947 C 0.38002 0.9372 0.24959 0.0
C948 C 0.3998 0.91519 0.25579 0.0
C949 C 0.42192 0.92516 0.27463 0.0
C950 C 0.3855 0.89062 0.26736 0.0
C951 C 0.41062 0.90961 0.22815 0.0
C952 C 0.39838 0.92546 0.20918 0.0
C953 C 0.40688 0.92548 0.18264 0.0
C954 C 0.42844 0.90893 0.17537 0.0
C955 C 0.44112 0.89254 0.19458 0.0
C956 C 0.43177 0.8927 0.22117 0.0
H957 H 0.6232 0.08793 0.32489 0.0
H958 H 0.69293 0.07034 0.27602 0.0
H959 H 0.68199 0.10885 0.2471 0.0
H960 H 0.58036 0.10432 0.27261 0.0
H961 H 0.56313 0.13039 0.29063 0.0
H962 H 0.57817 0.10317 0.30851 0.0
H963 H 0.60542 0.13706 0.33657 0.0
H964 H 0.59071 0.16441 0.31839 0.0
H965 H 0.62656 0.16098 0.3199 0.0
H966 H 0.66053 0.14576 0.22086 0.0
H967 H 0.62919 0.17669 0.19841 0.0
H968 H 0.57499 0.17149 0.26566 0.0
C969 C 0.63639 0.09225 0.30827 0.0
C970 C 0.65894 0.0761 0.3027 0.0
C971 C 0.67554 0.08243 0.28066 0.0
C972 C 0.66959 0.10437 0.26425 0.0
C973 C 0.64718 0.11988 0.27038 0.0
C974 C 0.63084 0.11405 0.29187 0.0
C975 C 0.60688 0.13252 0.29312 0.0
C976 C 0.5806 0.11665 0.29108 0.0
C977 C 0.60744 0.14977 0.31851 0.0
C978 C 0.6118 0.14921 0.26847 0.0
C979 C 0.63532 0.14182 0.25576 0.0
C980 C 0.64252 0.15227 0.23099 0.0
C981 C 0.62476 0.16992 0.21848 0.0
C982 C 0.6004 0.17711 0.23094 0.0
C983 C 0.59419 0.16726 0.2565 0.0
H984 H 0.73301 0.93612 0.65752 0.0
H985 H 0.79746 0.97319 0.70178 0.0
H986 H 0.83035 0.9524 0.6712 0.0
H987 H 0.76881 0.87303 0.64253 0.0
H988 H 0.75406 0.87036 0.60988 0.0
H989 H 0.73591 0.88648 0.63656 0.0
H990 H 0.73068 0.92879 0.60733 0.0
H991 H 0.74908 0.91298 0.58071 0.0
H992 H 0.76007 0.94465 0.59379 0.0
H993 H 0.85583 0.93197 0.63232 0.0
H994 H 0.87218 0.90916 0.59154 0.0
H995 H 0.79143 0.88326 0.57414 0.0
C996 C 0.75407 0.9394 0.66118 0.0
C997 C 0.76261 0.95626 0.68219 0.0
C998 C 0.79038 0.96017 0.68607 0.0
C999 C 0.80923 0.94855 0.66866 0.0
C1000 C 0.80007 0.93271 0.64769 0.0
C1001 C 0.77316 0.92768 0.64422 0.0
C1002 C 0.76846 0.91042 0.61977 0.0
C1003 C 0.75608 0.88347 0.62766 0.0
C1004 C 0.75104 0.9251 0.59919 0.0
C1005 C 0.79688 0.90695 0.6097 0.0
C1006 C 0.81482 0.92011 0.62597 0.0
C1007 C 0.842 0.92121 0.61973 0.0
C1008 C 0.8511 0.90832 0.59645 0.0
C1009 C 0.83315 0.89421 0.57981 0.0
C1010 C 0.80571 0.8935 0.58669 0.0
H1011 H 0.16194 0.77472 0.55733 0.0
H1012 H 0.14531 0.85517 0.58495 0.0
H1013 H 0.11643 0.83698 0.62083 0.0
H1014 H 0.09558 0.75125 0.56606 0.0
H1015 H 0.10531 0.71806 0.57605 0.0
H1016 H 0.12674 0.73721 0.55444 0.0
H1017 H 0.16587 0.7313 0.58766 0.0
H1018 H 0.14454 0.71211 0.6094 0.0
H1019 H 0.16147 0.74124 0.62199 0.0
H1020 H 0.08904 0.80985 0.65341 0.0
H1021 H 0.06181 0.77647 0.67749 0.0
H1022 H 0.09354 0.71397 0.62625 0.0
C1023 C 0.1526 0.78844 0.57127 0.0
C1024 C 0.15616 0.81632 0.56873 0.0
C1025 C 0.14296 0.83375 0.58674 0.0
C1026 C 0.12662 0.82358 0.60719 0.0
C1027 C 0.12334 0.79598 0.60904 0.0
C1028 C 0.13572 0.77867 0.59136 0.0
C1029 C 0.12718 0.75005 0.59629 0.0
C1030 C 0.11285 0.73847 0.57175 0.0
C1031 C 0.1512 0.73265 0.60432 0.0
C1032 C 0.10802 0.75393 0.61948 0.0
C1033 C 0.10643 0.78051 0.62681 0.0
C1034 C 0.09012 0.78899 0.64781 0.0
C1035 C 0.07479 0.76986 0.66143 0.0
C1036 C 0.0755 0.74263 0.65373 0.0
C1037 C 0.0925 0.73464 0.63255 0.0
H1038 H 0.20438 0.11256 0.57339 0.0
H1039 H 0.26271 0.17593 0.56298 0.0
H1040 H 0.29243 0.15391 0.59506 0.0
H1041 H 0.21622 0.10233 0.64508 0.0
H1042 H 0.2125 0.06657 0.64316 0.0
H1043 H 0.1947 0.0878 0.62022 0.0
H1044 H 0.21562 0.06222 0.5803 0.0
H1045 H 0.23338 0.04089 0.6031 0.0
H1046 H 0.25147 0.05919 0.57791 0.0
H1047 H 0.31745 0.12418 0.62533 0.0
H1048 H 0.33634 0.08801 0.65285 0.0
H1049 H 0.26216 0.04386 0.64611 0.0
C1050 C 0.2233 0.12189 0.57804 0.0
C1051 C 0.2311 0.14607 0.56555 0.0
C1052 C 0.25614 0.15749 0.57215 0.0
C1053 C 0.27323 0.14516 0.59046 0.0
C1054 C 0.26507 0.12139 0.60228 0.0
C1055 C 0.24071 0.10982 0.59648 0.0
C1056 C 0.23745 0.08364 0.61153 0.0
C1057 C 0.21381 0.08519 0.63116 0.0
C1058 C 0.2343 0.0601 0.59204 0.0
C1059 C 0.26395 0.0822 0.62625 0.0
C1060 C 0.27947 0.1043 0.62057 0.0
C1061 C 0.30538 0.10696 0.63026 0.0
C1062 C 0.31594 0.08632 0.64586 0.0
C1063 C 0.30059 0.06339 0.65192 0.0
C1064 C 0.27407 0.0615 0.64233 0.0
H1065 H 0.88308 0.21875 0.58478 0.0
H1066 H 0.8359 0.28718 0.55994 0.0
H1067 H 0.86532 0.31687 0.58587 0.0
H1068 H 0.89606 0.243 0.65279 0.0
H1069 H 0.92953 0.2296 0.65342 0.0
H1070 H 0.90415 0.21346 0.63375 0.0
H1071 H 0.93419 0.21752 0.59175 0.0
H1072 H 0.9596 0.23376 0.61124 0.0
H1073 H 0.94648 0.24989 0.58192 0.0
H1074 H 0.90194 0.33955 0.61086 0.0
H1075 H 0.94145 0.35362 0.6366 0.0
H1076 H 0.96376 0.27067 0.64813 0.0
C1077 C 0.87877 0.23995 0.58502 0.0
C1078 C 0.85714 0.25062 0.57026 0.0
C1079 C 0.85222 0.27848 0.57114 0.0
C1080 C 0.86887 0.29554 0.58578 0.0
C1081 C 0.89019 0.28444 0.59978 0.0
C1082 C 0.895 0.25727 0.59988 0.0
C1083 C 0.91946 0.2506 0.6165 0.0
C1084 C 0.91184 0.23313 0.64055 0.0
C1085 C 0.94121 0.23715 0.59932 0.0
C1086 C 0.92793 0.27834 0.6253 0.0
C1087 C 0.91079 0.29753 0.61526 0.0
C1088 C 0.91526 0.3247 0.61917 0.0
C1089 C 0.93781 0.33249 0.63371 0.0
C1090 C 0.95549 0.31324 0.64454 0.0
C1091 C 0.9503 0.28578 0.64047 0.0
H1092 H 0.72398 0.06929 0.40369 0.0
H1093 H 0.64412 0.0928 0.42839 0.0
H1094 H 0.66292 0.13245 0.45129 0.0
H1095 H 0.75636 0.08766 0.46448 0.0
H1096 H 0.78642 0.09859 0.44786 0.0
H1097 H 0.76612 0.07296 0.43305 0.0
H1098 H 0.76272 0.10115 0.38979 0.0
H1099 H 0.78261 0.1271 0.40469 0.0
H1100 H 0.75 0.13483 0.39157 0.0
H1101 H 0.69124 0.17018 0.47107 0.0
H1102 H 0.72659 0.19862 0.49085 0.0
H1103 H 0.78718 0.14885 0.45359 0.0
C1104 C 0.71039 0.08275 0.41392 0.0
C1105 C 0.68258 0.07805 0.41419 0.0
C1106 C 0.66552 0.09598 0.42805 0.0
C1107 C 0.676 0.11865 0.44089 0.0
C1108 C 0.70355 0.12293 0.4398 0.0
C1109 C 0.72049 0.10518 0.42698 0.0
C1110 C 0.74941 0.11335 0.42971 0.0
C1111 C 0.76551 0.09187 0.44467 0.0
C1112 C 0.76191 0.11947 0.4023 0.0
C1113 C 0.74624 0.13845 0.4462 0.0
C1114 C 0.71967 0.14398 0.45155 0.0
C1115 C 0.71209 0.16603 0.46694 0.0
C1116 C 0.73226 0.18222 0.47788 0.0
C1117 C 0.75956 0.17597 0.47362 0.0
C1118 C 0.76646 0.15418 0.45707 0.0
H1119 H 0.95494 0.73102 0.38499 0.0
H1120 H 1.00313 0.79293 0.34824 0.0
H1121 H 0.97903 0.82713 0.37488 0.0
H1122 H 0.89266 0.76964 0.388 0.0
H1123 H 0.88297 0.75535 0.41958 0.0
H1124 H 0.9031 0.73625 0.39653 0.0
H1125 H 0.93876 0.72936 0.43328 0.0
H1126 H 0.91886 0.74857 0.45637 0.0
H1127 H 0.95295 0.75809 0.44964 0.0
H1128 H 0.95223 0.85406 0.4092 0.0
H1129 H 0.92267 0.87151 0.44504 0.0
H1130 H 0.89077 0.79194 0.45716 0.0
C1131 C 0.96023 0.75181 0.38225 0.0
C1132 C 0.98095 0.75929 0.3645 0.0
C1133 C 0.98721 0.78672 0.36155 0.0
C1134 C 0.97369 0.80628 0.37669 0.0
C1135 C 0.9537 0.79812 0.3944 0.0
C1136 C 0.94674 0.77153 0.39689 0.0
C1137 C 0.92486 0.7678 0.41753 0.0
C1138 C 0.89939 0.7566 0.40463 0.0
C1139 C 0.93445 0.7499 0.44056 0.0
C1140 C 0.92086 0.79636 0.42667 0.0
C1141 C 0.93774 0.8136 0.41324 0.0
C1142 C 0.93865 0.84076 0.41952 0.0
C1143 C 0.92186 0.85049 0.43995 0.0
C1144 C 0.90418 0.83317 0.45367 0.0
C1145 C 0.90368 0.80581 0.44671 0.0
H1146 H 0.32558 0.95305 0.39181 0.0
H1147 H 0.26123 0.99308 0.34972 0.0
H1148 H 0.22828 0.96513 0.37312 0.0
H1149 H 0.29562 0.88704 0.39015 0.0
H1150 H 0.30705 0.87788 0.42297 0.0
H1151 H 0.326 0.90123 0.40318 0.0
H1152 H 0.32329 0.93599 0.44144 0.0
H1153 H 0.30444 0.91271 0.46136 0.0
H1154 H 0.29106 0.94547 0.45466 0.0
H1155 H 0.2019 0.9346 0.40236 0.0
H1156 H 0.18397 0.90174 0.43454 0.0
H1157 H 0.26482 0.87903 0.45599 0.0
C1158 C 0.30456 0.95593 0.38758 0.0
C1159 C 0.29605 0.97534 0.3689 0.0
C1160 C 0.26833 0.97832 0.36381 0.0
C1161 C 0.24938 0.96255 0.37705 0.0
C1162 C 0.25836 0.94356 0.39519 0.0
C1163 C 0.28526 0.94 0.4004 0.0
C1164 C 0.28937 0.91785 0.42069 0.0
C1165 C 0.30546 0.89462 0.40851 0.0
C1166 C 0.30284 0.92866 0.44604 0.0
C1167 C 0.2606 0.90977 0.42614 0.0
C1168 C 0.24306 0.92502 0.41132 0.0
C1169 C 0.21543 0.92229 0.41385 0.0
C1170 C 0.20542 0.9036 0.43216 0.0
C1171 C 0.22297 0.88758 0.44741 0.0
C1172 C 0.25093 0.89058 0.44412 0.0
H1173 H 0.13971 0.25092 0.4701 0.0
H1174 H 0.1134 0.17015 0.45334 0.0
H1175 H 0.08104 0.18779 0.42038 0.0
H1176 H 0.07352 0.28136 0.46564 0.0
H1177 H 0.08608 0.31173 0.451 0.0
H1178 H 0.10685 0.29261 0.47324 0.0
H1179 H 0.14363 0.29011 0.43678 0.0
H1180 H 0.12287 0.30896 0.41432 0.0
H1181 H 0.13558 0.27671 0.40438 0.0
H1182 H 0.05427 0.21405 0.38704 0.0
H1183 H 0.03034 0.24709 0.35966 0.0
H1184 H 0.07168 0.3114 0.40038 0.0
C1185 C 0.12702 0.23696 0.45957 0.0
C1186 C 0.12911 0.20914 0.46406 0.0
C1187 C 0.11201 0.1915 0.45021 0.0
C1188 C 0.09372 0.20135 0.43139 0.0
C1189 C 0.0925 0.22889 0.42711 0.0
C1190 C 0.10831 0.24648 0.44119 0.0
C1191 C 0.10261 0.2752 0.43334 0.0
C1192 C 0.0916 0.29116 0.45723 0.0
C1193 C 0.12767 0.28852 0.4215 0.0
C1194 C 0.08139 0.27103 0.41226 0.0
C1195 C 0.07611 0.24413 0.4088 0.0
C1196 C 0.05805 0.23516 0.38977 0.0
C1197 C 0.04471 0.25413 0.37416 0.0
C1198 C 0.04915 0.28187 0.37784 0.0
C1199 C 0.0678 0.29037 0.39717 0.0
H1200 H 0.60321 0.71511 0.97537 0.0
H1201 H 0.67588 0.70764 0.92872 0.0
H1202 H 0.65272 0.7272 0.88955 0.0
H1203 H 0.55477 0.70308 0.92255 0.0
H1204 H 0.53203 0.7284 0.93454 0.0
H1205 H 0.55343 0.71105 0.95763 0.0
H1206 H 0.57236 0.75626 0.97421 0.0
H1207 H 0.55094 0.77371 0.95129 0.0
H1208 H 0.58652 0.77925 0.9504 0.0
H1209 H 0.62082 0.74785 0.85535 0.0
H1210 H 0.58561 0.77351 0.83157 0.0
H1211 H 0.53606 0.77152 0.90262 0.0
C1212 C 0.61403 0.71719 0.95672 0.0
C1213 C 0.64107 0.70944 0.9547 0.0
C1214 C 0.65502 0.71325 0.9304 0.0
C1215 C 0.64199 0.72422 0.9081 0.0
C1216 C 0.61522 0.73178 0.9107 0.0
C1217 C 0.60158 0.72883 0.9346 0.0
C1218 C 0.5739 0.741 0.93317 0.0
C1219 C 0.55226 0.7196 0.93721 0.0
C1220 C 0.57076 0.76391 0.95346 0.0
C1221 C 0.57403 0.7513 0.90479 0.0
C1222 C 0.59776 0.7453 0.89187 0.0
C1223 C 0.60221 0.7527 0.86533 0.0
C1224 C 0.58212 0.76711 0.85192 0.0
C1225 C 0.55829 0.77444 0.86534 0.0
C1226 C 0.55419 0.76617 0.89196 0.0
H1227 H 0.2846 0.60108 0.99171 0.0
H1228 H 0.30155 0.67128 0.94409 0.0
H1229 H 0.27624 0.65197 0.90643 0.0
H1230 H 0.28659 0.55181 0.93774 0.0
H1231 H 0.25892 0.53293 0.95096 0.0
H1232 H 0.28031 0.55132 0.97319 0.0
H1233 H 0.23888 0.57615 0.9922 0.0
H1234 H 0.21743 0.55817 0.9697 0.0
H1235 H 0.21724 0.59418 0.96983 0.0
H1236 H 0.24983 0.62493 0.87393 0.0
H1237 H 0.22288 0.59203 0.84881 0.0
H1238 H 0.21896 0.54148 0.91884 0.0
C1239 C 0.28341 0.61199 0.97309 0.0
C1240 C 0.29536 0.63735 0.97039 0.0
C1241 C 0.29274 0.65164 0.94621 0.0
C1242 C 0.27837 0.64089 0.92483 0.0
C1243 C 0.2663 0.61608 0.92821 0.0
C1244 C 0.26854 0.6018 0.95172 0.0
C1245 C 0.25239 0.57623 0.95054 0.0
C1246 C 0.27064 0.55162 0.95326 0.0
C1247 C 0.23017 0.5762 0.97183 0.0
C1248 C 0.24087 0.57834 0.92267 0.0
C1249 C 0.24938 0.60137 0.91007 0.0
C1250 C 0.24271 0.60702 0.88369 0.0
C1251 C 0.22734 0.58837 0.86963 0.0
C1252 C 0.21834 0.56477 0.8822 0.0
C1253 C 0.22487 0.55988 0.90915 0.0
H1254 H 0.37564 0.2654 0.95396 0.0
H1255 H 0.39747 0.34623 0.93212 0.0
H1256 H 0.42273 0.32904 0.89326 0.0
H1257 H 0.43878 0.23826 0.9409 0.0
H1258 H 0.42677 0.20666 0.92861 0.0
H1259 H 0.40693 0.22552 0.95196 0.0
H1260 H 0.36715 0.22469 0.91895 0.0
H1261 H 0.38705 0.20596 0.89537 0.0
H1262 H 0.37174 0.23701 0.88545 0.0
H1263 H 0.44855 0.30299 0.85874 0.0
H1264 H 0.47694 0.27008 0.83492 0.0
H1265 H 0.44022 0.20623 0.88047 0.0
C1266 C 0.38522 0.27943 0.94058 0.0
C1267 C 0.38438 0.30713 0.94578 0.0
C1268 C 0.39784 0.32491 0.92838 0.0
C1269 C 0.41206 0.31536 0.90614 0.0
C1270 C 0.41289 0.2879 0.90168 0.0
C1271 C 0.40005 0.27015 0.91856 0.0
C1272 C 0.40678 0.24154 0.91122 0.0
C1273 C 0.42065 0.22717 0.93455 0.0
C1274 C 0.38168 0.22641 0.90221 0.0
C1275 C 0.42586 0.24601 0.88806 0.0
C1276 C 0.42864 0.27285 0.88242 0.0
C1277 C 0.44632 0.28188 0.86277 0.0
C1278 C 0.46226 0.26305 0.8492 0.0
C1279 C 0.46073 0.2356 0.85573 0.0
C1280 C 0.44169 0.22706 0.87486 0.0
H1281 H 0.77115 0.36941 0.94125 0.0
H1282 H 0.68792 0.38604 0.92422 0.0
H1283 H 0.70151 0.41848 0.88953 0.0
H1284 H 0.79134 0.43611 0.9381 0.0
H1285 H 0.82375 0.42951 0.92365 0.0
H1286 H 0.8077 0.40452 0.94385 0.0
H1287 H 0.81169 0.37043 0.90509 0.0
H1288 H 0.82784 0.39535 0.88475 0.0
H1289 H 0.79826 0.37874 0.8728 0.0
H1290 H 0.72412 0.45126 0.85881 0.0
H1291 H 0.75371 0.48446 0.83731 0.0
H1292 H 0.82212 0.44878 0.87671 0.0
C1293 C 0.75588 0.37934 0.92961 0.0
C1294 C 0.72851 0.37491 0.9349 0.0
C1295 C 0.70899 0.389 0.92014 0.0
C1296 C 0.71653 0.40737 0.90037 0.0
C1297 C 0.74369 0.41173 0.8959 0.0
C1298 C 0.76309 0.39826 0.91025 0.0
C1299 C 0.79073 0.40885 0.90378 0.0
C1300 C 0.80416 0.42044 0.92883 0.0
C1301 C 0.80816 0.38704 0.89083 0.0
C1302 C 0.78382 0.4306 0.88393 0.0
C1303 C 0.75665 0.43159 0.87923 0.0
C1304 C 0.74546 0.45056 0.8622 0.0
C1305 C 0.76243 0.46931 0.85002 0.0
C1306 C 0.79022 0.46925 0.8553 0.0
C1307 C 0.80097 0.44934 0.87221 0.0
H1308 H 0.6729 0.29764 0.07575 0.0
H1309 H 0.69435 0.23966 0.01505 0.0
H1310 H 0.66605 0.20585 0.03773 0.0
H1311 H 0.66781 0.2506 0.13289 0.0
H1312 H 0.63976 0.26874 0.14657 0.0
H1313 H 0.66506 0.28615 0.12779 0.0
H1314 H 0.62834 0.30467 0.09643 0.0
H1315 H 0.60302 0.28683 0.11461 0.0
H1316 H 0.60672 0.2817 0.07917 0.0
H1317 H 0.62968 0.18046 0.06453 0.0
H1318 H 0.59314 0.16532 0.09462 0.0
H1319 H 0.59635 0.24133 0.13617 0.0
C1320 C 0.67242 0.27755 0.0677 0.0
C1321 C 0.68601 0.27118 0.04381 0.0
C1322 C 0.68452 0.24481 0.03365 0.0
C1323 C 0.66826 0.22557 0.04628 0.0
C1324 C 0.65395 0.23303 0.06913 0.0
C1325 C 0.6564 0.25833 0.07996 0.0
C1326 C 0.63773 0.26239 0.10338 0.0
C1327 C 0.65354 0.26724 0.12918 0.0
C1328 C 0.61778 0.28524 0.09805 0.0
C1329 C 0.62387 0.23564 0.10384 0.0
C1330 C 0.63339 0.2188 0.0841 0.0
C1331 C 0.62241 0.19343 0.08026 0.0
C1332 C 0.60154 0.18505 0.09731 0.0
C1333 C 0.59187 0.20206 0.11783 0.0
C1334 C 0.60329 0.22766 0.12086 0.0
H1335 H 0.79476 0.58486 0.15312 0.0
H1336 H 0.72918 0.54739 0.19566 0.0
H1337 H 0.69687 0.57177 0.16724 0.0
H1338 H 0.7623 0.65002 0.14465 0.0
H1339 H 0.77689 0.65494 0.11209 0.0
H1340 H 0.79438 0.63551 0.13674 0.0
H1341 H 0.79708 0.59581 0.10357 0.0
H1342 H 0.77939 0.615 0.07893 0.0
H1343 H 0.76677 0.58289 0.08915 0.0
H1344 H 0.67201 0.59705 0.13054 0.0
H1345 H 0.65685 0.6247 0.09238 0.0
H1346 H 0.73901 0.64727 0.07639 0.0
C1347 C 0.77359 0.58206 0.15673 0.0
C1348 C 0.76445 0.56423 0.17657 0.0
C1349 C 0.7366 0.56112 0.1807 0.0
C1350 C 0.71812 0.57478 0.16456 0.0
C1351 C 0.72786 0.59179 0.14474 0.0
C1352 C 0.75497 0.59581 0.14116 0.0
C1353 C 0.76045 0.61494 0.11845 0.0
C1354 C 0.77432 0.64036 0.1286 0.0
C1355 C 0.77689 0.60134 0.09622 0.0
C1356 C 0.73222 0.62074 0.10942 0.0
C1357 C 0.71364 0.60708 0.12462 0.0
C1358 C 0.68638 0.60817 0.11881 0.0
C1359 C 0.67796 0.6238 0.09706 0.0
C1360 C 0.69672 0.63836 0.08169 0.0
C1361 C 0.72414 0.63677 0.0881 0.0
H1362 H 0.37102 0.74214 0.07441 0.0
H1363 H 0.38661 0.66247 0.10453 0.0
H1364 H 0.41902 0.68126 0.13686 0.0
H1365 H 0.43892 0.76418 0.07725 0.0
H1366 H 0.43023 0.79795 0.08633 0.0
H1367 H 0.40745 0.77823 0.06681 0.0
H1368 H 0.37009 0.78635 0.10192 0.0
H1369 H 0.39275 0.80611 0.12155 0.0
H1370 H 0.37605 0.77788 0.13635 0.0
H1371 H 0.44894 0.70963 0.16678 0.0
H1372 H 0.47632 0.74425 0.18903 0.0
H1373 H 0.44297 0.80439 0.13647 0.0
C1374 C 0.38103 0.72864 0.088 0.0
C1375 C 0.37608 0.70089 0.08729 0.0
C1376 C 0.39006 0.68381 0.10491 0.0
C1377 C 0.40843 0.69432 0.12332 0.0
C1378 C 0.41286 0.72185 0.12346 0.0
C1379 C 0.39975 0.73869 0.10601 0.0
C1380 C 0.40889 0.76731 0.10915 0.0
C1381 C 0.42216 0.7775 0.08335 0.0
C1382 C 0.38555 0.78548 0.11776 0.0
C1383 C 0.42907 0.76409 0.1313 0.0
C1384 C 0.43093 0.7378 0.13954 0.0
C1385 C 0.44777 0.73022 0.16033 0.0
C1386 C 0.46318 0.75001 0.17289 0.0
C1387 C 0.46191 0.77694 0.16433 0.0
C1388 C 0.44462 0.78392 0.14325 0.0
H1389 H 0.31691 0.3953 0.07729 0.0
H1390 H 0.25911 0.34323 0.03924 0.0
H1391 H 0.22292 0.36441 0.06542 0.0
H1392 H 0.28477 0.39571 0.14341 0.0
H1393 H 0.29281 0.43026 0.14952 0.0
H1394 H 0.3144 0.4101 0.12878 0.0
H1395 H 0.30973 0.44447 0.09048 0.0
H1396 H 0.28806 0.46467 0.11102 0.0
H1397 H 0.27688 0.45344 0.07876 0.0
H1398 H 0.19261 0.39392 0.09241 0.0
H1399 H 0.1704 0.42763 0.12089 0.0
H1400 H 0.24772 0.45917 0.1437 0.0
C1401 C 0.29668 0.38811 0.07468 0.0
C1402 C 0.29089 0.36754 0.05615 0.0
C1403 C 0.26412 0.35881 0.05336 0.0
C1404 C 0.2434 0.37078 0.06812 0.0
C1405 C 0.24975 0.39123 0.08589 0.0
C1406 C 0.27577 0.39963 0.08951 0.0
C1407 C 0.27708 0.42235 0.10958 0.0
C1408 C 0.29322 0.4141 0.13429 0.0
C1409 C 0.28862 0.44773 0.09668 0.0
C1410 C 0.24766 0.42577 0.1163 0.0
C1411 C 0.23228 0.40765 0.10229 0.0
C1412 C 0.20447 0.40791 0.10378 0.0
C1413 C 0.19204 0.4272 0.11993 0.0
C1414 C 0.20734 0.44581 0.1347 0.0
C1415 C 0.23555 0.44486 0.13304 0.0
H1416 H 0.87561 0.57027 0.76031 0.0
H1417 H 0.86477 0.61835 0.83138 0.0
H1418 H 0.89633 0.65196 0.81347 0.0
H1419 H 0.94397 0.57892 0.75647 0.0
H1420 H 0.94634 0.57995 0.72058 0.0
H1421 H 0.91937 0.56215 0.73634 0.0
H1422 H 0.8847 0.59017 0.71018 0.0
H1423 H 0.91157 0.60779 0.69389 0.0
H1424 H 0.88607 0.62613 0.71169 0.0
H1425 H 0.93249 0.67759 0.79022 0.0
H1426 H 0.96988 0.69437 0.76277 0.0
H1427 H 0.95888 0.62852 0.70741 0.0
C1428 C 0.87903 0.58851 0.77142 0.0
C1429 C 0.86715 0.59241 0.79671 0.0
C1430 C 0.87313 0.61562 0.81158 0.0
C1431 C 0.89112 0.63466 0.80163 0.0
C1432 C 0.9032 0.62991 0.77694 0.0
C1433 C 0.89731 0.60749 0.76193 0.0
C1434 C 0.91507 0.60578 0.73738 0.0
C1435 C 0.93219 0.58019 0.73773 0.0
C1436 C 0.89835 0.60758 0.71177 0.0
C1437 C 0.93212 0.6305 0.74114 0.0
C1438 C 0.92479 0.64423 0.76396 0.0
C1439 C 0.93822 0.66717 0.77214 0.0
C1440 C 0.95953 0.67648 0.75645 0.0
C1441 C 0.96738 0.66282 0.73289 0.0
C1442 C 0.95339 0.6395 0.72525 0.0
H1443 H 0.87511 0.44657 0.22928 0.0
H1444 H 0.83352 0.48137 0.29701 0.0
H1445 H 0.86146 0.45441 0.3277 0.0
H1446 H 0.88067 0.37977 0.25724 0.0
H1447 H 0.91305 0.37399 0.2424 0.0
H1448 H 0.88951 0.39587 0.22628 0.0
H1449 H 0.92478 0.43373 0.2264 0.0
H1450 H 0.94833 0.41207 0.24277 0.0
H1451 H 0.93971 0.44382 0.2575 0.0
H1452 H 0.89711 0.42584 0.35088 0.0
H1453 H 0.93286 0.39404 0.36414 0.0
H1454 H 0.94806 0.3762 0.28077 0.0
C1455 C 0.87172 0.44835 0.25058 0.0
C1456 C 0.85225 0.46607 0.26083 0.0
C1457 C 0.84826 0.46775 0.28878 0.0
C1458 C 0.86414 0.45265 0.30633 0.0
C1459 C 0.88354 0.43567 0.29553 0.0
C1460 C 0.88697 0.4331 0.26825 0.0
C1461 C 0.9087 0.41313 0.26154 0.0
C1462 C 0.89729 0.38927 0.24595 0.0
C1463 C 0.93174 0.4265 0.24615 0.0
C1464 C 0.91727 0.40503 0.28928 0.0
C1465 C 0.90284 0.41844 0.30871 0.0
C1466 C 0.90826 0.41498 0.33581 0.0
C1467 C 0.92865 0.39704 0.34317 0.0
C1468 C 0.94294 0.38253 0.32349 0.0
C1469 C 0.93715 0.38674 0.29627 0.0
H1470 H 0.62294 0.97383 0.29356 0.0
H1471 H 0.58563 0.95767 0.37013 0.0
H1472 H 0.55812 0.92242 0.34931 0.0
H1473 H 0.56229 0.96547 0.25481 0.0
H1474 H 0.57936 0.9506 0.22673 0.0
H1475 H 0.59658 0.97406 0.2478 0.0
H1476 H 0.63387 0.93908 0.25609 0.0
H1477 H 0.61668 0.91545 0.23518 0.0
H1478 H 0.62509 0.90664 0.26899 0.0
H1479 H 0.53672 0.88726 0.32078 0.0
H1480 H 0.51858 0.85814 0.28544 0.0
H1481 H 0.56672 0.89955 0.22642 0.0
C1482 C 0.60895 0.96285 0.30589 0.0
C1483 C 0.60649 0.96831 0.33349 0.0
C1484 C 0.58775 0.95382 0.34895 0.0
C1485 C 0.57215 0.93369 0.33732 0.0
C1486 C 0.57518 0.92865 0.31011 0.0
C1487 C 0.59275 0.94311 0.29447 0.0
C1488 C 0.59131 0.93441 0.26549 0.0
C1489 C 0.58181 0.95751 0.24766 0.0
C1490 C 0.61835 0.92323 0.25588 0.0
C1491 C 0.57041 0.91259 0.26735 0.0
C1492 C 0.56167 0.90937 0.29335 0.0
C1493 C 0.5432 0.88978 0.30031 0.0
C1494 C 0.53313 0.87324 0.28012 0.0
C1495 C 0.54116 0.87668 0.25321 0.0
C1496 C 0.56005 0.89665 0.2468 0.0
H1497 H 0.1032 0.54501 0.22829 0.0
H1498 H 0.18511 0.57275 0.23143 0.0
H1499 H 0.17005 0.61394 0.25468 0.0
H1500 H 0.07173 0.60685 0.21689 0.0
H1501 H 0.0434 0.6005 0.23827 0.0
H1502 H 0.06067 0.57307 0.22253 0.0
H1503 H 0.06871 0.55102 0.26858 0.0
H1504 H 0.05098 0.57811 0.28442 0.0
H1505 H 0.08453 0.57001 0.2947 0.0
H1506 H 0.14474 0.65431 0.27376 0.0
H1507 H 0.11269 0.68629 0.29449 0.0
H1508 H 0.04845 0.62979 0.28221 0.0
C1509 C 0.11799 0.55958 0.2343 0.0
C1510 C 0.14529 0.55578 0.2282 0.0
C1511 C 0.16413 0.57521 0.23628 0.0
C1512 C 0.15571 0.59874 0.24923 0.0
C1513 C 0.12848 0.60221 0.25439 0.0
C1514 C 0.11002 0.58277 0.24781 0.0
C1515 C 0.08206 0.59081 0.25627 0.0
C1516 C 0.06337 0.59293 0.23204 0.0
C1517 C 0.07092 0.57134 0.27725 0.0
C1518 C 0.08752 0.618 0.26826 0.0
C1519 C 0.11432 0.62452 0.26662 0.0
C1520 C 0.12379 0.64923 0.27545 0.0
C1521 C 0.10549 0.66736 0.28693 0.0
C1522 C 0.07827 0.66037 0.28986 0.0
C1523 C 0.06924 0.6355 0.28022 0.0
H1524 H 0.46609 0.12053 0.19512 0.0
H1525 H 0.51844 0.15283 0.25584 0.0
H1526 H 0.49385 0.12776 0.29053 0.0
H1527 H 0.4065 0.12596 0.23424 0.0
H1528 H 0.39167 0.09576 0.22152 0.0
H1529 H 0.41482 0.11431 0.20117 0.0
H1530 H 0.44425 0.07198 0.19561 0.0
H1531 H 0.42116 0.05331 0.21597 0.0
H1532 H 0.45601 0.0547 0.22485 0.0
H1533 H 0.46325 0.0991 0.31887 0.0
H1534 H 0.42668 0.07224 0.33881 0.0
H1535 H 0.39235 0.06147 0.26018 0.0
C1536 C 0.47249 0.12201 0.21569 0.0
C1537 C 0.49423 0.13846 0.22282 0.0
C1538 C 0.50176 0.14037 0.24999 0.0
C1539 C 0.48801 0.12611 0.26982 0.0
C1540 C 0.46645 0.11028 0.26226 0.0
C1541 C 0.45854 0.10837 0.23588 0.0
C1542 C 0.43358 0.09144 0.23337 0.0
C1543 C 0.41027 0.10785 0.2219 0.0
C1544 C 0.43909 0.06637 0.21645 0.0
C1545 C 0.42867 0.08428 0.26238 0.0
C1546 C 0.44809 0.09495 0.27872 0.0
C1547 C 0.44787 0.09071 0.30627 0.0
C1548 C 0.4271 0.0754 0.31744 0.0
C1549 C 0.40658 0.06497 0.30112 0.0
C1550 C 0.4076 0.06942 0.27323 0.0
H1551 H 0.0964 0.3796 0.71294 0.0
H1552 H 0.04756 0.34161 0.77353 0.0
H1553 H 0.07431 0.36376 0.80875 0.0
H1554 H 0.16059 0.37732 0.75066 0.0
H1555 H 0.17072 0.4093 0.73764 0.0
H1556 H 0.15 0.38757 0.71788 0.0
H1557 H 0.11509 0.42558 0.71313 0.0
H1558 H 0.13545 0.44729 0.73312 0.0
H1559 H 0.10131 0.44088 0.74274 0.0
H1560 H 0.10197 0.39615 0.83669 0.0
H1561 H 0.13081 0.43196 0.85489 0.0
H1562 H 0.16257 0.4465 0.7756 0.0
C1563 C 0.09181 0.37533 0.73364 0.0
C1564 C 0.07003 0.35883 0.74058 0.0
C1565 C 0.06443 0.3539 0.76784 0.0
C1566 C 0.07943 0.36651 0.78793 0.0
C1567 C 0.10023 0.3835 0.78034 0.0
C1568 C 0.10675 0.38741 0.7538 0.0
C1569 C 0.12891 0.40768 0.75061 0.0
C1570 C 0.15405 0.39468 0.73849 0.0
C1571 C 0.11962 0.43177 0.73393 0.0
C1572 C 0.1333 0.41537 0.77944 0.0
C1573 C 0.11663 0.40126 0.79638 0.0
C1574 C 0.11554 0.40682 0.82366 0.0
C1575 C 0.13188 0.42727 0.83381 0.0
C1576 C 0.14919 0.44175 0.81672 0.0
C1577 C 0.15002 0.43538 0.78928 0.0
H1578 H 0.57466 0.14808 0.77082 0.0
H1579 H 0.60631 0.15585 0.85077 0.0
H1580 H 0.64624 0.12964 0.83755 0.0
H1581 H 0.59211 0.08102 0.76381 0.0
H1582 H 0.60001 0.08265 0.72873 0.0
H1583 H 0.57638 0.10578 0.74298 0.0
H1584 H 0.60442 0.14552 0.72529 0.0
H1585 H 0.62813 0.12244 0.71087 0.0
H1586 H 0.63933 0.14781 0.73379 0.0
H1587 H 0.68112 0.09973 0.81652 0.0
H1588 H 0.70622 0.0658 0.79052 0.0
H1589 H 0.65015 0.07502 0.7253 0.0
C1590 C 0.59047 0.14496 0.7852 0.0
C1591 C 0.58785 0.15443 0.81161 0.0
C1592 C 0.60826 0.14902 0.83033 0.0
C1593 C 0.63099 0.13423 0.82298 0.0
C1594 C 0.63282 0.12462 0.79691 0.0
C1595 C 0.613 0.12963 0.77834 0.0
C1596 C 0.61823 0.1144 0.75268 0.0
C1597 C 0.59533 0.0948 0.74672 0.0
C1598 C 0.6228 0.1337 0.72927 0.0
C1599 C 0.64375 0.09973 0.75988 0.0
C1600 C 0.65216 0.10628 0.78527 0.0
C1601 C 0.67483 0.09459 0.79653 0.0
C1602 C 0.689 0.07538 0.78161 0.0
C1603 C 0.68017 0.06772 0.75592 0.0
C1604 C 0.65745 0.08043 0.7449 0.0
H1605 H 0.46109 0.85934 0.75799 0.0
H1606 H 0.41858 0.85349 0.83322 0.0
H1607 H 0.38046 0.87828 0.81407 0.0
H1608 H 0.44418 0.92524 0.74665 0.0
H1609 H 0.44104 0.92252 0.71092 0.0
H1610 H 0.4626 0.89996 0.72863 0.0
H1611 H 0.4372 0.85957 0.70867 0.0
H1612 H 0.41555 0.88209 0.69081 0.0
H1613 H 0.40146 0.85733 0.7128 0.0
H1614 H 0.34905 0.90784 0.78843 0.0
H1615 H 0.32851 0.94212 0.75932 0.0
H1616 H 0.39242 0.93047 0.70166 0.0
C1617 C 0.44333 0.86251 0.77002 0.0
C1618 C 0.44243 0.85415 0.79685 0.0
C1619 C 0.4194 0.85956 0.81248 0.0
C1620 C 0.39764 0.87351 0.80175 0.0
C1621 C 0.3993 0.88217 0.77541 0.0
C1622 C 0.4216 0.87695 0.75974 0.0
C1623 C 0.41982 0.89138 0.73326 0.0
C1624 C 0.4433 0.91093 0.72968 0.0
C1625 C 0.41842 0.8714 0.71001 0.0
C1626 C 0.39353 0.90608 0.73684 0.0
C1627 C 0.38167 0.90009 0.76101 0.0
C1628 C 0.35796 0.91243 0.76928 0.0
C1629 C 0.34639 0.93184 0.75262 0.0
C1630 C 0.35883 0.93896 0.72826 0.0
C1631 C 0.38236 0.92541 0.72015 0.0
loop_
_geom_bond_atom_site_label_1
_geom_bond_atom_site_label_2
_geom_bond_distance
_geom_bond_site_symmetry_2
_ccdc_geom_bond_type
C0 O2 1.247 . S
C0 O4 1.258 . S
C1 O8 1.247 . S
C1 O9 1.258 . S
O2 C0 1.247 . S
O2 Zn3 2.028 . S
Zn3 O2 2.028 . S
Zn3 O7 2.035 . S
Zn3 O9 2.035 1_545 S
Zn3 O10 2.028 1_545 S
O4 C0 1.258 . S
O4 Zn5 2.035 . S
Zn5 O4 2.035 . S
Zn5 O6 2.028 . S
Zn5 O8 2.028 1_545 S
Zn5 O11 2.035 1_545 S
O6 Zn5 2.028 . S
O6 C12 1.247 . S
O7 Zn3 2.035 . S
O7 C12 1.258 . S
O8 C1 1.247 . S
O8 Zn5 2.028 1_565 S
O9 C1 1.258 . S
O9 Zn3 2.035 1_565 S
O10 Zn3 2.028 1_565 S
O10 C13 1.247 . S
O11 Zn5 2.035 1_565 S
O11 C13 1.258 . S
C12 O6 1.247 . S
C12 O7 1.258 . S
C13 O10 1.247 . S
C13 O11 1.258 . S
C14 O16 1.247 . S
C14 O18 1.258 . S
C15 O22 1.247 . S
C15 O23 1.258 . S
O16 C14 1.247 . S
O16 Zn17 2.028 . S
Zn17 O16 2.028 . S
Zn17 O21 2.035 . S
Zn17 O23 2.035 1_455 S
Zn17 O24 2.028 1_455 S
O18 C14 1.258 . S
O18 Zn19 2.035 . S
Zn19 O18 2.035 . S
Zn19 O20 2.028 . S
Zn19 O22 2.028 1_455 S
Zn19 O25 2.035 1_455 S
O20 Zn19 2.028 . S
O20 C26 1.247 . S
O21 Zn17 2.035 . S
O21 C26 1.258 . S
O22 C15 1.247 . S
O22 Zn19 2.028 1_655 S
O23 C15 1.258 . S
O23 Zn17 2.035 1_655 S
O24 Zn17 2.028 1_655 S
O24 C27 1.247 . S
O25 Zn19 2.035 1_655 S
O25 C27 1.258 . S
C26 O20 1.247 . S
C26 O21 1.258 . S
C27 O24 1.247 . S
C27 O25 1.258 . S
C28 O30 1.247 . S
C28 O32 1.258 . S
C29 O36 1.247 . S
C29 O37 1.258 . S
O30 C28 1.247 . S
O30 Zn31 2.028 1_565 S
Zn31 O30 2.028 1_545 S
Zn31 O35 2.035 1_545 S
Zn31 O37 2.035 . S
Zn31 O38 2.028 . S
O32 C28 1.258 . S
O32 Zn33 2.035 1_565 S
Zn33 O32 2.035 1_545 S
Zn33 O34 2.028 1_545 S
Zn33 O36 2.028 . S
Zn33 O39 2.035 . S
O34 Zn33 2.028 1_565 S
O34 C40 1.247 . S
O35 Zn31 2.035 1_565 S
O35 C40 1.258 . S
O36 C29 1.247 . S
O36 Zn33 2.028 . S
O37 C29 1.258 . S
O37 Zn31 2.035 . S
O38 Zn31 2.028 . S
O38 C41 1.247 . S
O39 Zn33 2.035 . S
O39 C41 1.258 . S
C40 O34 1.247 . S
C40 O35 1.258 . S
C41 O38 1.247 . S
C41 O39 1.258 . S
C42 O44 1.247 . S
C42 O46 1.258 . S
C43 O50 1.247 . S
C43 O51 1.258 . S
O44 C42 1.247 . S
O44 Zn45 2.028 . S
Zn45 O44 2.028 . S
Zn45 O49 2.035 . S
Zn45 O51 2.035 1_455 S
Zn45 O52 2.028 1_455 S
O46 C42 1.258 . S
O46 Zn47 2.035 . S
Zn47 O46 2.035 . S
Zn47 O48 2.028 . S
Zn47 O50 2.028 1_455 S
Zn47 O53 2.035 1_455 S
O48 Zn47 2.028 . S
O48 C54 1.247 . S
O49 Zn45 2.035 . S
O49 C54 1.258 . S
O50 C43 1.247 . S
O50 Zn47 2.028 1_655 S
O51 C43 1.258 . S
O51 Zn45 2.035 1_655 S
O52 Zn45 2.028 1_655 S
O52 C55 1.247 . S
O53 Zn47 2.035 1_655 S
O53 C55 1.258 . S
C54 O48 1.247 . S
C54 O49 1.258 . S
C55 O52 1.247 . S
C55 O53 1.258 . S
C56 O58 1.247 . S
C56 O60 1.258 . S
C57 O64 1.247 . S
C57 O65 1.258 . S
O58 C56 1.247 . S
O58 Zn59 2.028 . S
Zn59 O58 2.028 . S
Zn59 O63 2.035 . S
Zn59 O65 2.035 1_545 S
Zn59 O66 2.028 1_545 S
O60 C56 1.258 . S
O60 Zn61 2.035 . S
Zn61 O60 2.035 . S
Zn61 O62 2.028 . S
Zn61 O64 2.028 1_545 S
Zn61 O67 2.035 1_545 S
O62 Zn61 2.028 . S
O62 C68 1.247 . S
O63 Zn59 2.035 . S
O63 C68 1.258 . S
O64 C57 1.247 . S
O64 Zn61 2.028 1_565 S
O65 C57 1.258 . S
O65 Zn59 2.035 1_565 S
O66 Zn59 2.028 1_565 S
O66 C69 1.247 . S
O67 Zn61 2.035 1_565 S
O67 C69 1.258 . S
C68 O62 1.247 . S
C68 O63 1.258 . S
C69 O66 1.247 . S
C69 O67 1.258 . S
C70 O72 1.247 . S
C70 O74 1.258 . S
C71 O78 1.247 . S
C71 O79 1.258 . S
O72 C70 1.247 . S
O72 Zn73 2.028 . S
Zn73 O72 2.028 . S
Zn73 O77 2.035 . S
Zn73 O79 2.035 1_455 S
Zn73 O80 2.028 1_455 S
O74 C70 1.258 . S
O74 Zn75 2.035 . S
Zn75 O74 2.035 . S
Zn75 O76 2.028 . S
Zn75 O78 2.028 1_455 S
Zn75 O81 2.035 1_455 S
O76 Zn75 2.028 . S
O76 C82 1.247 . S
O77 Zn73 2.035 . S
O77 C82 1.258 . S
O78 C71 1.247 . S
O78 Zn75 2.028 1_655 S
O79 C71 1.258 . S
O79 Zn73 2.035 1_655 S
O80 Zn73 2.028 1_655 S
O80 C83 1.247 . S
O81 Zn75 2.035 1_655 S
O81 C83 1.258 . S
C82 O76 1.247 . S
C82 O77 1.258 . S
C83 O80 1.247 . S
C83 O81 1.258 . S
C84 O86 1.247 . S
C84 O88 1.258 . S
C85 O92 1.247 . S
C85 O93 1.258 . S
O86 C84 1.247 . S
O86 Zn87 2.028 . S
Zn87 O86 2.028 . S
Zn87 O91 2.035 . S
Zn87 O93 2.035 1_545 S
Zn87 O94 2.028 1_545 S
O88 C84 1.258 . S
O88 Zn89 2.035 . S
Zn89 O88 2.035 . S
Zn89 O90 2.028 . S
Zn89 O92 2.028 1_545 S
Zn89 O95 2.035 1_545 S
O90 Zn89 2.028 . S
O90 C96 1.247 . S
O91 Zn87 2.035 . S
O91 C96 1.258 . S
O92 C85 1.247 . S
O92 Zn89 2.028 1_565 S
O93 C85 1.258 . S
O93 Zn87 2.035 1_565 S
O94 Zn87 2.028 1_565 S
O94 C97 1.247 . S
O95 Zn89 2.035 1_565 S
O95 C97 1.258 . S
C96 O90 1.247 . S
C96 O91 1.258 . S
C97 O94 1.247 . S
C97 O95 1.258 . S
C98 O100 1.247 . S
C98 O102 1.258 . S
C99 O106 1.247 . S
C99 O107 1.258 . S
O100 C98 1.247 . S
O100 Zn101 2.028 1_655 S
Zn101 O100 2.028 1_455 S
Zn101 O105 2.035 1_455 S
Zn101 O107 2.035 . S
Zn101 O108 2.028 . S
O102 C98 1.258 . S
O102 Zn103 2.035 1_655 S
Zn103 O102 2.035 1_455 S
Zn103 O104 2.028 1_455 S
Zn103 O106 2.028 . S
Zn103 O109 2.035 . S
O104 Zn103 2.028 1_655 S
O104 C110 1.247 . S
O105 Zn101 2.035 1_655 S
O105 C110 1.258 . S
O106 C99 1.247 . S
O106 Zn103 2.028 . S
O107 C99 1.258 . S
O107 Zn101 2.035 . S
O108 Zn101 2.028 . S
O108 C111 1.247 . S
O109 Zn103 2.035 . S
O109 C111 1.258 . S
C110 O104 1.247 . S
C110 O105 1.258 . S
C111 O108 1.247 . S
C111 O109 1.258 . S
C112 O114 1.247 . S
C112 O116 1.258 . S
C113 O120 1.247 . S
C113 O121 1.258 . S
O114 C112 1.247 . S
O114 Zn115 2.028 . S
Zn115 O114 2.028 . S
Zn115 O119 2.035 . S
Zn115 O121 2.035 1_554 S
Zn115 O122 2.028 1_554 S
O116 C112 1.258 . S
O116 Zn117 2.035 . S
Zn117 O116 2.035 . S
Zn117 O118 2.028 . S
Zn117 O120 2.028 1_554 S
Zn117 O123 2.035 1_554 S
O118 Zn117 2.028 . S
O118 C124 1.247 . S
O119 Zn115 2.035 . S
O119 C124 1.258 . S
O120 C113 1.247 . S
O120 Zn117 2.028 1_556 S
O121 C113 1.258 . S
O121 Zn115 2.035 1_556 S
O122 Zn115 2.028 1_556 S
O122 C125 1.247 . S
O123 Zn117 2.035 1_556 S
O123 C125 1.258 . S
C124 O118 1.247 . S
C124 O119 1.258 . S
C125 O122 1.247 . S
C125 O123 1.258 . S
C126 O128 1.247 . S
C126 O130 1.258 . S
C127 O134 1.247 . S
C127 O135 1.258 . S
O128 C126 1.247 . S
O128 Zn129 2.028 . S
Zn129 O128 2.028 . S
Zn129 O133 2.035 . S
Zn129 O135 2.035 1_554 S
Zn129 O136 2.028 1_554 S
O130 C126 1.258 . S
O130 Zn131 2.035 . S
Zn131 O130 2.035 . S
Zn131 O132 2.028 . S
Zn131 O134 2.028 1_554 S
Zn131 O137 2.035 1_554 S
O132 Zn131 2.028 . S
O132 C138 1.247 . S
O133 Zn129 2.035 . S
O133 C138 1.258 . S
O134 C127 1.247 . S
O134 Zn131 2.028 1_556 S
O135 C127 1.258 . S
O135 Zn129 2.035 1_556 S
O136 Zn129 2.028 1_556 S
O136 C139 1.247 . S
O137 Zn131 2.035 1_556 S
O137 C139 1.258 . S
C138 O132 1.247 . S
C138 O133 1.258 . S
C139 O136 1.247 . S
C139 O137 1.258 . S
C140 O142 1.247 . S
C140 O144 1.258 . S
C141 O148 1.247 . S
C141 O149 1.258 . S
O142 C140 1.247 . S
O142 Zn143 2.028 . S
Zn143 O142 2.028 . S
Zn143 O147 2.035 . S
Zn143 O149 2.035 1_554 S
Zn143 O150 2.028 1_554 S
O144 C140 1.258 . S
O144 Zn145 2.035 . S
Zn145 O144 2.035 . S
Zn145 O146 2.028 . S
Zn145 O148 2.028 1_554 S
Zn145 O151 2.035 1_554 S
O146 Zn145 2.028 . S
O146 C152 1.247 . S
O147 Zn143 2.035 . S
O147 C152 1.258 . S
O148 C141 1.247 . S
O148 Zn145 2.028 1_556 S
O149 C141 1.258 . S
O149 Zn143 2.035 1_556 S
O150 Zn143 2.028 1_556 S
O150 C153 1.247 . S
O151 Zn145 2.035 1_556 S
O151 C153 1.258 . S
C152 O146 1.247 . S
C152 O147 1.258 . S
C153 O150 1.247 . S
C153 O151 1.258 . S
C154 O156 1.247 . S
C154 O158 1.258 . S
C155 O162 1.247 . S
C155 O163 1.258 . S
O156 C154 1.247 . S
O156 Zn157 2.028 1_556 S
Zn157 O156 2.028 1_554 S
Zn157 O161 2.035 1_554 S
Zn157 O163 2.035 . S
Zn157 O164 2.028 . S
O158 C154 1.258 . S
O158 Zn159 2.035 1_556 S
Zn159 O158 2.035 1_554 S
Zn159 O160 2.028 1_554 S
Zn159 O162 2.028 . S
Zn159 O165 2.035 . S
O160 Zn159 2.028 1_556 S
O160 C166 1.247 . S
O161 Zn157 2.035 1_556 S
O161 C166 1.258 . S
O162 C155 1.247 . S
O162 Zn159 2.028 . S
O163 C155 1.258 . S
O163 Zn157 2.035 . S
O164 Zn157 2.028 . S
O164 C167 1.247 . S
O165 Zn159 2.035 . S
O165 C167 1.258 . S
C166 O160 1.247 . S
C166 O161 1.258 . S
C167 O164 1.247 . S
C167 O165 1.258 . S
C168 O170 1.247 . S
C168 O172 1.258 . S
C169 O176 1.247 . S
C169 O177 1.258 . S
O170 C168 1.247 . S
O170 Zn171 2.028 . S
Zn171 O170 2.028 . S
Zn171 O175 2.035 . S
Zn171 O177 2.035 . S
Zn171 O178 2.028 . S
O172 C168 1.258 . S
O172 Zn173 2.035 . S
Zn173 O172 2.035 . S
Zn173 O174 2.028 . S
Zn173 O176 2.028 . S
Zn173 O179 2.035 . S
O174 Zn173 2.028 . S
O174 C180 1.247 . S
O175 Zn171 2.035 . S
O175 C180 1.258 . S
O176 C169 1.247 . S
O176 Zn173 2.028 . S
O177 C169 1.258 . S
O177 Zn171 2.035 . S
O178 Zn171 2.028 . S
O178 C181 1.247 . S
O179 Zn173 2.035 . S
O179 C181 1.258 . S
C180 O174 1.247 . S
C180 O175 1.258 . S
C181 O178 1.247 . S
C181 O179 1.258 . S
C182 O184 1.247 . S
C182 O186 1.258 . S
C183 O190 1.247 . S
C183 O191 1.258 . S
O184 C182 1.247 . S
O184 Zn185 2.028 . S
Zn185 O184 2.028 . S
Zn185 O189 2.035 . S
Zn185 O191 2.035 . S
Zn185 O192 2.028 . S
O186 C182 1.258 . S
O186 Zn187 2.035 . S
Zn187 O186 2.035 . S
Zn187 O188 2.028 . S
Zn187 O190 2.028 . S
Zn187 O193 2.035 . S
O188 Zn187 2.028 . S
O188 C194 1.247 . S
O189 Zn185 2.035 . S
O189 C194 1.258 . S
O190 C183 1.247 . S
O190 Zn187 2.028 . S
O191 C183 1.258 . S
O191 Zn185 2.035 . S
O192 Zn185 2.028 . S
O192 C195 1.247 . S
O193 Zn187 2.035 . S
O193 C195 1.258 . S
C194 O188 1.247 . S
C194 O189 1.258 . S
C195 O192 1.247 . S
C195 O193 1.258 . S
C196 O198 1.247 . S
C196 O200 1.258 . S
C197 O204 1.247 . S
C197 O205 1.258 . S
O198 C196 1.247 . S
O198 Zn199 2.028 . S
Zn199 O198 2.028 . S
Zn199 O203 2.035 . S
Zn199 O205 2.035 . S
Zn199 O206 2.028 . S
O200 C196 1.258 . S
O200 Zn201 2.035 . S
Zn201 O200 2.035 . S
Zn201 O202 2.028 . S
Zn201 O204 2.028 . S
Zn201 O207 2.035 . S
O202 Zn201 2.028 . S
O202 C208 1.247 . S
O203 Zn199 2.035 . S
O203 C208 1.258 . S
O204 C197 1.247 . S
O204 Zn201 2.028 . S
O205 C197 1.258 . S
O205 Zn199 2.035 . S
O206 Zn199 2.028 . S
O206 C209 1.247 . S
O207 Zn201 2.035 . S
O207 C209 1.258 . S
C208 O202 1.247 . S
C208 O203 1.258 . S
C209 O206 1.247 . S
C209 O207 1.258 . S
C210 O212 1.247 . S
C210 O214 1.258 . S
C211 O218 1.247 . S
C211 O219 1.258 . S
O212 C210 1.247 . S
O212 Zn213 2.028 . S
Zn213 O212 2.028 . S
Zn213 O217 2.035 . S
Zn213 O219 2.035 . S
Zn213 O220 2.028 . S
O214 C210 1.258 . S
O214 Zn215 2.035 . S
Zn215 O214 2.035 . S
Zn215 O216 2.028 . S
Zn215 O218 2.028 . S
Zn215 O221 2.035 . S
O216 Zn215 2.028 . S
O216 C222 1.247 . S
O217 Zn213 2.035 . S
O217 C222 1.258 . S
O218 C211 1.247 . S
O218 Zn215 2.028 . S
O219 C211 1.258 . S
O219 Zn213 2.035 . S
O220 Zn213 2.028 . S
O220 C223 1.247 . S
O221 Zn215 2.035 . S
O221 C223 1.258 . S
C222 O216 1.247 . S
C222 O217 1.258 . S
C223 O220 1.247 . S
C223 O221 1.258 . S
C224 O226 1.247 . S
C224 O228 1.258 . S
C225 O232 1.247 . S
C225 O233 1.258 . S
O226 C224 1.247 . S
O226 Zn227 2.028 . S
Zn227 O226 2.028 . S
Zn227 O231 2.035 . S
Zn227 O233 2.035 . S
Zn227 O234 2.028 . S
O228 C224 1.258 . S
O228 Zn229 2.035 . S
Zn229 O228 2.035 . S
Zn229 O230 2.028 . S
Zn229 O232 2.028 . S
Zn229 O235 2.035 . S
O230 Zn229 2.028 . S
O230 C236 1.247 . S
O231 Zn227 2.035 . S
O231 C236 1.258 . S
O232 C225 1.247 . S
O232 Zn229 2.028 . S
O233 C225 1.258 . S
O233 Zn227 2.035 . S
O234 Zn227 2.028 . S
O234 C237 1.247 . S
O235 Zn229 2.035 . S
O235 C237 1.258 . S
C236 O230 1.247 . S
C236 O231 1.258 . S
C237 O234 1.247 . S
C237 O235 1.258 . S
C238 O240 1.247 . S
C238 O242 1.258 . S
C239 O246 1.247 . S
C239 O247 1.258 . S
O240 C238 1.247 . S
O240 Zn241 2.028 . S
Zn241 O240 2.028 . S
Zn241 O245 2.035 . S
Zn241 O247 2.035 . S
Zn241 O248 2.028 . S
O242 C238 1.258 . S
O242 Zn243 2.035 . S
Zn243 O242 2.035 . S
Zn243 O244 2.028 . S
Zn243 O246 2.028 . S
Zn243 O249 2.035 . S
O244 Zn243 2.028 . S
O244 C250 1.247 . S
O245 Zn241 2.035 . S
O245 C250 1.258 . S
O246 C239 1.247 . S
O246 Zn243 2.028 . S
O247 C239 1.258 . S
O247 Zn241 2.035 . S
O248 Zn241 2.028 . S
O248 C251 1.247 . S
O249 Zn243 2.035 . S
O249 C251 1.258 . S
C250 O244 1.247 . S
C250 O245 1.258 . S
C251 O248 1.247 . S
C251 O249 1.258 . S
C252 O254 1.247 . S
C252 O256 1.258 . S
C253 O260 1.247 . S
C253 O261 1.258 . S
O254 C252 1.247 . S
O254 Zn255 2.028 . S
Zn255 O254 2.028 . S
Zn255 O259 2.035 . S
Zn255 O261 2.035 . S
Zn255 O262 2.028 . S
O256 C252 1.258 . S
O256 Zn257 2.035 . S
Zn257 O256 2.035 . S
Zn257 O258 2.028 . S
Zn257 O260 2.028 . S
Zn257 O263 2.035 . S
O258 Zn257 2.028 . S
O258 C264 1.247 . S
O259 Zn255 2.035 . S
O259 C264 1.258 . S
O260 C253 1.247 . S
O260 Zn257 2.028 . S
O261 C253 1.258 . S
O261 Zn255 2.035 . S
O262 Zn255 2.028 . S
O262 C265 1.247 . S
O263 Zn257 2.035 . S
O263 C265 1.258 . S
C264 O258 1.247 . S
C264 O259 1.258 . S
C265 O262 1.247 . S
C265 O263 1.258 . S
C266 O268 1.247 . S
C266 O270 1.258 . S
C267 O274 1.247 . S
C267 O275 1.258 . S
O268 C266 1.247 . S
O268 Zn269 2.028 . S
Zn269 O268 2.028 . S
Zn269 O273 2.035 . S
Zn269 O275 2.035 . S
Zn269 O276 2.028 . S
O270 C266 1.258 . S
O270 Zn271 2.035 . S
Zn271 O270 2.035 . S
Zn271 O272 2.028 . S
Zn271 O274 2.028 . S
Zn271 O277 2.035 . S
O272 Zn271 2.028 . S
O272 C278 1.247 . S
O273 Zn269 2.035 . S
O273 C278 1.258 . S
O274 C267 1.247 . S
O274 Zn271 2.028 . S
O275 C267 1.258 . S
O275 Zn269 2.035 . S
O276 Zn269 2.028 . S
O276 C279 1.247 . S
O277 Zn271 2.035 . S
O277 C279 1.258 . S
C278 O272 1.247 . S
C278 O273 1.258 . S
C279 O276 1.247 . S
C279 O277 1.258 . S
C280 O282 1.247 . S
C280 O284 1.258 . S
C281 O288 1.247 . S
C281 O289 1.258 . S
O282 C280 1.247 . S
O282 Zn283 2.028 . S
Zn283 O282 2.028 . S
Zn283 O287 2.035 . S
Zn283 O289 2.035 . S
Zn283 O290 2.028 . S
O284 C280 1.258 . S
O284 Zn285 2.035 . S
Zn285 O284 2.035 . S
Zn285 O286 2.028 . S
Zn285 O288 2.028 . S
Zn285 O291 2.035 . S
O286 Zn285 2.028 . S
O286 C292 1.247 . S
O287 Zn283 2.035 . S
O287 C292 1.258 . S
O288 C281 1.247 . S
O288 Zn285 2.028 . S
O289 C281 1.258 . S
O289 Zn283 2.035 . S
O290 Zn283 2.028 . S
O290 C293 1.247 . S
O291 Zn285 2.035 . S
O291 C293 1.258 . S
C292 O286 1.247 . S
C292 O287 1.258 . S
C293 O290 1.247 . S
C293 O291 1.258 . S
C294 O296 1.247 . S
C294 O298 1.258 . S
C295 O302 1.247 . S
C295 O303 1.258 . S
O296 C294 1.247 . S
O296 Zn297 2.028 . S
Zn297 O296 2.028 . S
Zn297 O301 2.035 . S
Zn297 O303 2.035 . S
Zn297 O304 2.028 . S
O298 C294 1.258 . S
O298 Zn299 2.035 . S
Zn299 O298 2.035 . S
Zn299 O300 2.028 . S
Zn299 O302 2.028 . S
Zn299 O305 2.035 . S
O300 Zn299 2.028 . S
O300 C306 1.247 . S
O301 Zn297 2.035 . S
O301 C306 1.258 . S
O302 C295 1.247 . S
O302 Zn299 2.028 . S
O303 C295 1.258 . S
O303 Zn297 2.035 . S
O304 Zn297 2.028 . S
O304 C307 1.247 . S
O305 Zn299 2.035 . S
O305 C307 1.258 . S
C306 O300 1.247 . S
C306 O301 1.258 . S
C307 O304 1.247 . S
C307 O305 1.258 . S
C308 O310 1.247 . S
C308 O312 1.258 . S
C309 O316 1.247 . S
C309 O317 1.258 . S
O310 C308 1.247 . S
O310 Zn311 2.028 . S
Zn311 O310 2.028 . S
Zn311 O315 2.035 . S
Zn311 O317 2.035 . S
Zn311 O318 2.028 . S
O312 C308 1.258 . S
O312 Zn313 2.035 . S
Zn313 O312 2.035 . S
Zn313 O314 2.028 . S
Zn313 O316 2.028 . S
Zn313 O319 2.035 . S
O314 Zn313 2.028 . S
O314 C320 1.247 . S
O315 Zn311 2.035 . S
O315 C320 1.258 . S
O316 C309 1.247 . S
O316 Zn313 2.028 . S
O317 C309 1.258 . S
O317 Zn311 2.035 . S
O318 Zn311 2.028 . S
O318 C321 1.247 . S
O319 Zn313 2.035 . S
O319 C321 1.258 . S
C320 O314 1.247 . S
C320 O315 1.258 . S
C321 O318 1.247 . S
C321 O319 1.258 . S
C322 O324 1.247 . S
C322 O326 1.258 . S
C323 O330 1.247 . S
C323 O331 1.258 . S
O324 C322 1.247 . S
O324 Zn325 2.028 . S
Zn325 O324 2.028 . S
Zn325 O329 2.035 . S
Zn325 O331 2.035 . S
Zn325 O332 2.028 . S
O326 C322 1.258 . S
O326 Zn327 2.035 . S
Zn327 O326 2.035 . S
Zn327 O328 2.028 . S
Zn327 O330 2.028 . S
Zn327 O333 2.035 . S
O328 Zn327 2.028 . S
O328 C334 1.247 . S
O329 Zn325 2.035 . S
O329 C334 1.258 . S
O330 C323 1.247 . S
O330 Zn327 2.028 . S
O331 C323 1.258 . S
O331 Zn325 2.035 . S
O332 Zn325 2.028 . S
O332 C335 1.247 . S
O333 Zn327 2.035 . S
O333 C335 1.258 . S
C334 O328 1.247 . S
C334 O329 1.258 . S
C335 O332 1.247 . S
C335 O333 1.258 . S
H336 C348 0.930 . S
H337 C350 0.930 . S
H338 C351 0.930 . S
H339 C355 0.959 . S
H340 C355 0.959 . S
H341 C355 0.961 . S
H342 C356 0.960 . S
H343 C356 0.961 . S
H344 C356 0.959 . S
H345 C359 0.929 . S
H346 C360 0.931 . S
H347 C362 0.930 . S
C348 H336 0.930 . S
C348 C349 1.399 . S
C348 C353 1.399 . S
C349 C348 1.399 . S
C349 C350 1.376 . S
C350 H337 0.930 . S
C350 C349 1.376 . S
C350 C351 1.388 . S
C351 H338 0.930 . S
C351 C350 1.388 . S
C351 C352 1.390 . S
C352 C351 1.390 . S
C352 C353 1.394 . S
C352 C358 1.465 . S
C353 C348 1.399 . S
C353 C352 1.394 . S
C353 C354 1.516 . S
C354 C353 1.516 . S
C354 C355 1.502 . S
C354 C356 1.561 . S
C354 C357 1.526 . S
C355 H339 0.959 . S
C355 H340 0.959 . S
C355 H341 0.961 . S
C355 C354 1.502 . S
C356 H342 0.960 . S
C356 H343 0.961 . S
C356 H344 0.959 . S
C356 C354 1.561 . S
C357 C354 1.526 . S
C357 C358 1.396 . S
C357 C362 1.390 . S
C358 C352 1.465 . S
C358 C357 1.396 . S
C358 C359 1.399 . S
C359 H345 0.929 . S
C359 C358 1.399 . S
C359 C360 1.385 . S
C360 H346 0.931 . S
C360 C359 1.385 . S
C360 C361 1.389 . S
C361 C360 1.389 . S
C361 C362 1.387 . S
C362 H347 0.930 . S
C362 C357 1.390 . S
C362 C361 1.387 . S
H363 C375 0.930 . S
H364 C377 0.930 . S
H365 C378 0.930 . S
H366 C382 0.959 . S
H367 C382 0.959 . S
H368 C382 0.961 . S
H369 C383 0.960 . S
H370 C383 0.961 . S
H371 C383 0.959 . S
H372 C386 0.929 . S
H373 C387 0.931 . S
H374 C389 0.930 . S
C375 H363 0.930 . S
C375 C376 1.399 . S
C375 C380 1.399 . S
C376 C375 1.399 . S
C376 C377 1.376 . S
C377 H364 0.930 . S
C377 C376 1.376 . S
C377 C378 1.388 . S
C378 H365 0.930 . S
C378 C377 1.388 . S
C378 C379 1.390 . S
C379 C378 1.390 . S
C379 C380 1.394 . S
C379 C385 1.465 . S
C380 C375 1.399 . S
C380 C379 1.394 . S
C380 C381 1.516 . S
C381 C380 1.516 . S
C381 C382 1.502 . S
C381 C383 1.561 . S
C381 C384 1.526 . S
C382 H366 0.959 . S
C382 H367 0.959 . S
C382 H368 0.961 . S
C382 C381 1.502 . S
C383 H369 0.960 . S
C383 H370 0.961 . S
C383 H371 0.959 . S
C383 C381 1.561 . S
C384 C381 1.526 . S
C384 C385 1.396 . S
C384 C389 1.390 . S
C385 C379 1.465 . S
C385 C384 1.396 . S
C385 C386 1.399 . S
C386 H372 0.929 . S
C386 C385 1.399 . S
C386 C387 1.385 . S
C387 H373 0.931 . S
C387 C386 1.385 . S
C387 C388 1.389 . S
C388 C387 1.389 . S
C388 C389 1.387 . S
C389 H374 0.930 . S
C389 C384 1.390 . S
C389 C388 1.387 . S
H390 C402 0.930 . S
H391 C404 0.930 . S
H392 C405 0.930 . S
H393 C409 0.959 . S
H394 C409 0.959 . S
H395 C409 0.961 . S
H396 C410 0.960 . S
H397 C410 0.961 . S
H398 C410 0.959 . S
H399 C413 0.929 . S
H400 C414 0.931 . S
H401 C416 0.930 . S
C402 H390 0.930 . S
C402 C403 1.399 . S
C402 C407 1.399 . S
C403 C402 1.399 . S
C403 C404 1.376 . S
C404 H391 0.930 . S
C404 C403 1.376 . S
C404 C405 1.388 . S
C405 H392 0.930 . S
C405 C404 1.388 . S
C405 C406 1.390 . S
C406 C405 1.390 . S
C406 C407 1.394 . S
C406 C412 1.465 . S
C407 C402 1.399 . S
C407 C406 1.394 . S
C407 C408 1.516 . S
C408 C407 1.516 . S
C408 C409 1.502 . S
C408 C410 1.561 . S
C408 C411 1.526 . S
C409 H393 0.959 . S
C409 H394 0.959 . S
C409 H395 0.961 . S
C409 C408 1.502 . S
C410 H396 0.960 . S
C410 H397 0.961 . S
C410 H398 0.959 . S
C410 C408 1.561 . S
C411 C408 1.526 . S
C411 C412 1.396 . S
C411 C416 1.390 . S
C412 C406 1.465 . S
C412 C411 1.396 . S
C412 C413 1.399 . S
C413 H399 0.929 . S
C413 C412 1.399 . S
C413 C414 1.385 . S
C414 H400 0.931 . S
C414 C413 1.385 . S
C414 C415 1.389 . S
C415 C414 1.389 . S
C415 C416 1.387 . S
C416 H401 0.930 . S
C416 C411 1.390 . S
C416 C415 1.387 . S
H417 C429 0.930 . S
H418 C431 0.930 . S
H419 C432 0.930 . S
H420 C436 0.959 . S
H421 C436 0.959 . S
H422 C436 0.961 . S
H423 C437 0.960 . S
H424 C437 0.961 . S
H425 C437 0.959 . S
H426 C440 0.929 . S
H427 C441 0.931 . S
H428 C443 0.930 . S
C429 H417 0.930 . S
C429 C430 1.399 . S
C429 C434 1.399 . S
C430 C429 1.399 . S
C430 C431 1.376 . S
C431 H418 0.930 . S
C431 C430 1.376 . S
C431 C432 1.388 . S
C432 H419 0.930 . S
C432 C431 1.388 . S
C432 C433 1.390 . S
C433 C432 1.390 . S
C433 C434 1.394 . S
C433 C439 1.465 . S
C434 C429 1.399 . S
C434 C433 1.394 . S
C434 C435 1.516 . S
C435 C434 1.516 . S
C435 C436 1.502 . S
C435 C437 1.561 . S
C435 C438 1.526 . S
C436 H420 0.959 . S
C436 H421 0.959 . S
C436 H422 0.961 . S
C436 C435 1.502 . S
C437 H423 0.960 . S
C437 H424 0.961 . S
C437 H425 0.959 . S
C437 C435 1.561 . S
C438 C435 1.526 . S
C438 C439 1.396 . S
C438 C443 1.390 . S
C439 C433 1.465 . S
C439 C438 1.396 . S
C439 C440 1.399 . S
C440 H426 0.929 . S
C440 C439 1.399 . S
C440 C441 1.385 . S
C441 H427 0.931 . S
C441 C440 1.385 . S
C441 C442 1.389 . S
C442 C441 1.389 . S
C442 C443 1.387 . S
C443 H428 0.930 . S
C443 C438 1.390 . S
C443 C442 1.387 . S
H444 C456 0.930 . S
H445 C458 0.930 . S
H446 C459 0.930 . S
H447 C463 0.959 . S
H448 C463 0.959 . S
H449 C463 0.961 . S
H450 C464 0.960 . S
H451 C464 0.961 . S
H452 C464 0.959 . S
H453 C467 0.929 . S
H454 C468 0.931 . S
H455 C470 0.930 . S
C456 H444 0.930 . S
C456 C457 1.399 . S
C456 C461 1.399 . S
C457 C456 1.399 . S
C457 C458 1.376 . S
C458 H445 0.930 . S
C458 C457 1.376 . S
C458 C459 1.388 . S
C459 H446 0.930 . S
C459 C458 1.388 . S
C459 C460 1.390 . S
C460 C459 1.390 . S
C460 C461 1.394 . S
C460 C466 1.465 . S
C461 C456 1.399 . S
C461 C460 1.394 . S
C461 C462 1.516 . S
C462 C461 1.516 . S
C462 C463 1.502 . S
C462 C464 1.561 . S
C462 C465 1.526 . S
C463 H447 0.959 . S
C463 H448 0.959 . S
C463 H449 0.961 . S
C463 C462 1.502 . S
C464 H450 0.960 . S
C464 H451 0.961 . S
C464 H452 0.959 . S
C464 C462 1.561 . S
C465 C462 1.526 . S
C465 C466 1.396 . S
C465 C470 1.390 . S
C466 C460 1.465 . S
C466 C465 1.396 . S
C466 C467 1.399 . S
C467 H453 0.929 . S
C467 C466 1.399 . S
C467 C468 1.385 . S
C468 H454 0.931 . S
C468 C467 1.385 . S
C468 C469 1.389 . S
C469 C468 1.389 . S
C469 C470 1.387 . S
C470 H455 0.930 . S
C470 C465 1.390 . S
C470 C469 1.387 . S
H471 C483 0.930 . S
H472 C485 0.930 . S
H473 C486 0.930 . S
H474 C490 0.959 . S
H475 C490 0.959 . S
H476 C490 0.961 . S
H477 C491 0.960 . S
H478 C491 0.961 . S
H479 C491 0.959 . S
H480 C494 0.929 . S
H481 C495 0.931 . S
H482 C497 0.930 . S
C483 H471 0.930 . S
C483 C484 1.399 . S
C483 C488 1.399 . S
C484 C483 1.399 . S
C484 C485 1.376 . S
C485 H472 0.930 . S
C485 C484 1.376 . S
C485 C486 1.388 . S
C486 H473 0.930 . S
C486 C485 1.388 . S
C486 C487 1.390 . S
C487 C486 1.390 . S
C487 C488 1.394 . S
C487 C493 1.465 . S
C488 C483 1.399 . S
C488 C487 1.394 . S
C488 C489 1.516 . S
C489 C488 1.516 . S
C489 C490 1.502 . S
C489 C491 1.561 . S
C489 C492 1.526 . S
C490 H474 0.959 . S
C490 H475 0.959 . S
C490 H476 0.961 . S
C490 C489 1.502 . S
C491 H477 0.960 . S
C491 H478 0.961 . S
C491 H479 0.959 . S
C491 C489 1.561 . S
C492 C489 1.526 . S
C492 C493 1.396 . S
C492 C497 1.390 . S
C493 C487 1.465 . S
C493 C492 1.396 . S
C493 C494 1.399 . S
C494 H480 0.929 . S
C494 C493 1.399 . S
C494 C495 1.385 . S
C495 H481 0.931 . S
C495 C494 1.385 . S
C495 C496 1.389 . S
C496 C495 1.389 . S
C496 C497 1.387 . S
C497 H482 0.930 . S
C497 C492 1.390 . S
C497 C496 1.387 . S
H498 C510 0.930 . S
H499 C512 0.930 . S
H500 C513 0.930 . S
H501 C517 0.959 . S
H502 C517 0.959 . S
H503 C517 0.961 . S
H504 C518 0.960 . S
H505 C518 0.961 . S
H506 C518 0.959 . S
H507 C521 0.929 . S
H508 C522 0.931 . S
H509 C524 0.930 . S
C510 H498 0.930 . S
C510 C511 1.399 . S
C510 C515 1.399 . S
C511 C510 1.399 . S
C511 C512 1.376 . S
C512 H499 0.930 . S
C512 C511 1.376 . S
C512 C513 1.388 . S
C513 H500 0.930 . S
C513 C512 1.388 . S
C513 C514 1.390 . S
C514 C513 1.390 . S
C514 C515 1.394 . S
C514 C520 1.465 . S
C515 C510 1.399 . S
C515 C514 1.394 . S
C515 C516 1.516 . S
C516 C515 1.516 . S
C516 C517 1.502 . S
C516 C518 1.561 . S
C516 C519 1.526 . S
C517 H501 0.959 . S
C517 H502 0.959 . S
C517 H503 0.961 . S
C517 C516 1.502 . S
C518 H504 0.960 . S
C518 H505 0.961 . S
C518 H506 0.959 . S
C518 C516 1.561 . S
C519 C516 1.526 . S
C519 C520 1.396 . S
C519 C524 1.390 . S
C520 C514 1.465 . S
C520 C519 1.396 . S
C520 C521 1.399 . S
C521 H507 0.929 . S
C521 C520 1.399 . S
C521 C522 1.385 . S
C522 H508 0.931 . S
C522 C521 1.385 . S
C522 C523 1.389 . S
C523 C522 1.389 . S
C523 C524 1.387 . S
C524 H509 0.930 . S
C524 C519 1.390 . S
C524 C523 1.387 . S
H525 C537 0.930 . S
H526 C539 0.930 . S
H527 C540 0.930 . S
H528 C544 0.959 . S
H529 C544 0.959 . S
H530 C544 0.961 . S
H531 C545 0.960 . S
H532 C545 0.961 . S
H533 C545 0.959 . S
H534 C548 0.929 . S
H535 C549 0.931 . S
H536 C551 0.930 . S
C537 H525 0.930 . S
C537 C538 1.399 . S
C537 C542 1.399 . S
C538 C537 1.399 . S
C538 C539 1.376 . S
C539 H526 0.930 . S
C539 C538 1.376 . S
C539 C540 1.388 . S
C540 H527 0.930 . S
C540 C539 1.388 . S
C540 C541 1.390 . S
C541 C540 1.390 . S
C541 C542 1.394 . S
C541 C547 1.465 . S
C542 C537 1.399 . S
C542 C541 1.394 . S
C542 C543 1.516 . S
C543 C542 1.516 . S
C543 C544 1.502 . S
C543 C545 1.561 . S
C543 C546 1.526 . S
C544 H528 0.959 . S
C544 H529 0.959 . S
C544 H530 0.961 . S
C544 C543 1.502 . S
C545 H531 0.960 . S
C545 H532 0.961 . S
C545 H533 0.959 . S
C545 C543 1.561 . S
C546 C543 1.526 . S
C546 C547 1.396 . S
C546 C551 1.390 . S
C547 C541 1.465 . S
C547 C546 1.396 . S
C547 C548 1.399 . S
C548 H534 0.929 . S
C548 C547 1.399 . S
C548 C549 1.385 . S
C549 H535 0.931 . S
C549 C548 1.385 . S
C549 C550 1.389 . S
C550 C549 1.389 . S
C550 C551 1.387 . S
C551 H536 0.930 . S
C551 C546 1.390 . S
C551 C550 1.387 . S
H552 C564 0.930 . S
H553 C566 0.930 . S
H554 C567 0.930 . S
H555 C571 0.959 . S
H556 C571 0.959 . S
H557 C571 0.961 . S
H558 C572 0.960 . S
H559 C572 0.961 . S
H560 C572 0.959 . S
H561 C575 0.929 . S
H562 C576 0.931 . S
H563 C578 0.930 . S
C564 H552 0.930 . S
C564 C565 1.399 . S
C564 C569 1.399 . S
C565 C564 1.399 . S
C565 C566 1.376 . S
C566 H553 0.930 . S
C566 C565 1.376 . S
C566 C567 1.388 . S
C567 H554 0.930 . S
C567 C566 1.388 . S
C567 C568 1.390 . S
C568 C567 1.390 . S
C568 C569 1.394 . S
C568 C574 1.465 . S
C569 C564 1.399 . S
C569 C568 1.394 . S
C569 C570 1.516 . S
C570 C569 1.516 . S
C570 C571 1.502 . S
C570 C572 1.561 . S
C570 C573 1.526 . S
C571 H555 0.959 . S
C571 H556 0.959 . S
C571 H557 0.961 . S
C571 C570 1.502 . S
C572 H558 0.960 . S
C572 H559 0.961 . S
C572 H560 0.959 . S
C572 C570 1.561 . S
C573 C570 1.526 . S
C573 C574 1.396 . S
C573 C578 1.390 . S
C574 C568 1.465 . S
C574 C573 1.396 . S
C574 C575 1.399 . S
C575 H561 0.929 . S
C575 C574 1.399 . S
C575 C576 1.385 . S
C576 H562 0.931 . S
C576 C575 1.385 . S
C576 C577 1.389 . S
C577 C576 1.389 . S
C577 C578 1.387 . S
C578 H563 0.930 . S
C578 C573 1.390 . S
C578 C577 1.387 . S
H579 C591 0.930 . S
H580 C593 0.930 . S
H581 C594 0.930 . S
H582 C598 0.959 . S
H583 C598 0.959 . S
H584 C598 0.961 . S
H585 C599 0.960 . S
H586 C599 0.961 . S
H587 C599 0.959 . S
H588 C602 0.929 . S
H589 C603 0.931 . S
H590 C605 0.930 . S
C591 H579 0.930 . S
C591 C592 1.399 . S
C591 C596 1.399 . S
C592 C591 1.399 . S
C592 C593 1.376 . S
C593 H580 0.930 . S
C593 C592 1.376 . S
C593 C594 1.388 . S
C594 H581 0.930 . S
C594 C593 1.388 . S
C594 C595 1.390 . S
C595 C594 1.390 . S
C595 C596 1.394 . S
C595 C601 1.465 . S
C596 C591 1.399 . S
C596 C595 1.394 . S
C596 C597 1.516 . S
C597 C596 1.516 . S
C597 C598 1.502 . S
C597 C599 1.561 . S
C597 C600 1.526 . S
C598 H582 0.959 . S
C598 H583 0.959 . S
C598 H584 0.961 . S
C598 C597 1.502 . S
C599 H585 0.960 . S
C599 H586 0.961 . S
C599 H587 0.959 . S
C599 C597 1.561 . S
C600 C597 1.526 . S
C600 C601 1.396 . S
C600 C605 1.390 . S
C601 C595 1.465 . S
C601 C600 1.396 . S
C601 C602 1.399 . S
C602 H588 0.929 . S
C602 C601 1.399 . S
C602 C603 1.385 . S
C603 H589 0.931 . S
C603 C602 1.385 . S
C603 C604 1.389 . S
C604 C603 1.389 . S
C604 C605 1.387 . S
C605 H590 0.930 . S
C605 C600 1.390 . S
C605 C604 1.387 . S
H606 C618 0.930 . S
H607 C620 0.930 . S
H608 C621 0.930 . S
H609 C625 0.959 . S
H610 C625 0.959 . S
H611 C625 0.961 . S
H612 C626 0.960 . S
H613 C626 0.961 . S
H614 C626 0.959 . S
H615 C629 0.929 . S
H616 C630 0.931 . S
H617 C632 0.930 . S
C618 H606 0.930 . S
C618 C619 1.399 . S
C618 C623 1.399 . S
C619 C618 1.399 . S
C619 C620 1.376 . S
C620 H607 0.930 . S
C620 C619 1.376 . S
C620 C621 1.388 . S
C621 H608 0.930 . S
C621 C620 1.388 . S
C621 C622 1.390 . S
C622 C621 1.390 . S
C622 C623 1.394 . S
C622 C628 1.465 . S
C623 C618 1.399 . S
C623 C622 1.394 . S
C623 C624 1.516 . S
C624 C623 1.516 . S
C624 C625 1.502 . S
C624 C626 1.561 . S
C624 C627 1.526 . S
C625 H609 0.959 . S
C625 H610 0.959 . S
C625 H611 0.961 . S
C625 C624 1.502 . S
C626 H612 0.960 . S
C626 H613 0.961 . S
C626 H614 0.959 . S
C626 C624 1.561 . S
C627 C624 1.526 . S
C627 C628 1.396 . S
C627 C632 1.390 . S
C628 C622 1.465 . S
C628 C627 1.396 . S
C628 C629 1.399 . S
C629 H615 0.929 . S
C629 C628 1.399 . S
C629 C630 1.385 . S
C630 H616 0.931 . S
C630 C629 1.385 . S
C630 C631 1.389 . S
C631 C630 1.389 . S
C631 C632 1.387 . S
C632 H617 0.930 . S
C632 C627 1.390 . S
C632 C631 1.387 . S
H633 C645 0.930 . S
H634 C647 0.930 . S
H635 C648 0.930 . S
H636 C652 0.959 . S
H637 C652 0.959 . S
H638 C652 0.961 . S
H639 C653 0.960 . S
H640 C653 0.961 . S
H641 C653 0.959 . S
H642 C656 0.929 . S
H643 C657 0.931 . S
H644 C659 0.930 . S
C645 H633 0.930 . S
C645 C646 1.399 . S
C645 C650 1.399 . S
C646 C645 1.399 . S
C646 C647 1.376 . S
C647 H634 0.930 . S
C647 C646 1.376 . S
C647 C648 1.388 . S
C648 H635 0.930 . S
C648 C647 1.388 . S
C648 C649 1.390 . S
C649 C648 1.390 . S
C649 C650 1.394 . S
C649 C655 1.465 . S
C650 C645 1.399 . S
C650 C649 1.394 . S
C650 C651 1.516 . S
C651 C650 1.516 . S
C651 C652 1.502 . S
C651 C653 1.561 . S
C651 C654 1.526 . S
C652 H636 0.959 . S
C652 H637 0.959 . S
C652 H638 0.961 . S
C652 C651 1.502 . S
C653 H639 0.960 . S
C653 H640 0.961 . S
C653 H641 0.959 . S
C653 C651 1.561 . S
C654 C651 1.526 . S
C654 C655 1.396 . S
C654 C659 1.390 . S
C655 C649 1.465 . S
C655 C654 1.396 . S
C655 C656 1.399 . S
C656 H642 0.929 . S
C656 C655 1.399 . S
C656 C657 1.385 . S
C657 H643 0.931 . S
C657 C656 1.385 . S
C657 C658 1.389 . S
C658 C657 1.389 . S
C658 C659 1.387 . S
C659 H644 0.930 . S
C659 C654 1.390 . S
C659 C658 1.387 . S
H660 C672 0.930 . S
H661 C674 0.930 . S
H662 C675 0.930 . S
H663 C679 0.959 . S
H664 C679 0.959 . S
H665 C679 0.961 . S
H666 C680 0.960 . S
H667 C680 0.961 . S
H668 C680 0.959 . S
H669 C683 0.929 . S
H670 C684 0.931 . S
H671 C686 0.930 . S
C672 H660 0.930 . S
C672 C673 1.399 . S
C672 C677 1.399 . S
C673 C672 1.399 . S
C673 C674 1.376 . S
C674 H661 0.930 . S
C674 C673 1.376 . S
C674 C675 1.388 . S
C675 H662 0.930 . S
C675 C674 1.388 . S
C675 C676 1.390 . S
C676 C675 1.390 . S
C676 C677 1.394 . S
C676 C682 1.465 . S
C677 C672 1.399 . S
C677 C676 1.394 . S
C677 C678 1.516 . S
C678 C677 1.516 . S
C678 C679 1.502 . S
C678 C680 1.561 . S
C678 C681 1.526 . S
C679 H663 0.959 . S
C679 H664 0.959 . S
C679 H665 0.961 . S
C679 C678 1.502 . S
C680 H666 0.960 . S
C680 H667 0.961 . S
C680 H668 0.959 . S
C680 C678 1.561 . S
C681 C678 1.526 . S
C681 C682 1.396 . S
C681 C686 1.390 . S
C682 C676 1.465 . S
C682 C681 1.396 . S
C682 C683 1.399 . S
C683 H669 0.929 . S
C683 C682 1.399 . S
C683 C684 1.385 . S
C684 H670 0.931 . S
C684 C683 1.385 . S
C684 C685 1.389 . S
C685 C684 1.389 . S
C685 C686 1.387 . S
C686 H671 0.930 . S
C686 C681 1.390 . S
C686 C685 1.387 . S
H687 C699 0.930 . S
H688 C701 0.930 . S
H689 C702 0.930 . S
H690 C706 0.959 . S
H691 C706 0.959 . S
H692 C706 0.961 . S
H693 C707 0.960 . S
H694 C707 0.961 . S
H695 C707 0.959 . S
H696 C710 0.929 . S
H697 C711 0.931 . S
H698 C713 0.930 . S
C699 H687 0.930 . S
C699 C700 1.399 . S
C699 C704 1.399 . S
C700 C699 1.399 . S
C700 C701 1.376 . S
C701 H688 0.930 . S
C701 C700 1.376 . S
C701 C702 1.388 . S
C702 H689 0.930 . S
C702 C701 1.388 . S
C702 C703 1.390 . S
C703 C702 1.390 . S
C703 C704 1.394 . S
C703 C709 1.465 . S
C704 C699 1.399 . S
C704 C703 1.394 . S
C704 C705 1.516 . S
C705 C704 1.516 . S
C705 C706 1.502 . S
C705 C707 1.561 . S
C705 C708 1.526 . S
C706 H690 0.959 . S
C706 H691 0.959 . S
C706 H692 0.961 . S
C706 C705 1.502 . S
C707 H693 0.960 . S
C707 H694 0.961 . S
C707 H695 0.959 . S
C707 C705 1.561 . S
C708 C705 1.526 . S
C708 C709 1.396 . S
C708 C713 1.390 . S
C709 C703 1.465 . S
C709 C708 1.396 . S
C709 C710 1.399 . S
C710 H696 0.929 . S
C710 C709 1.399 . S
C710 C711 1.385 . S
C711 H697 0.931 . S
C711 C710 1.385 . S
C711 C712 1.389 . S
C712 C711 1.389 . S
C712 C713 1.387 . S
C713 H698 0.930 . S
C713 C708 1.390 . S
C713 C712 1.387 . S
H714 C726 0.930 . S
H715 C728 0.930 . S
H716 C729 0.930 . S
H717 C733 0.959 . S
H718 C733 0.959 . S
H719 C733 0.961 . S
H720 C734 0.960 . S
H721 C734 0.961 . S
H722 C734 0.959 . S
H723 C737 0.929 . S
H724 C738 0.931 . S
H725 C740 0.930 . S
C726 H714 0.930 . S
C726 C727 1.399 . S
C726 C731 1.399 . S
C727 C726 1.399 . S
C727 C728 1.376 . S
C728 H715 0.930 . S
C728 C727 1.376 . S
C728 C729 1.388 . S
C729 H716 0.930 . S
C729 C728 1.388 . S
C729 C730 1.390 . S
C730 C729 1.390 . S
C730 C731 1.394 . S
C730 C736 1.465 . S
C731 C726 1.399 . S
C731 C730 1.394 . S
C731 C732 1.516 . S
C732 C731 1.516 . S
C732 C733 1.502 . S
C732 C734 1.561 . S
C732 C735 1.526 . S
C733 H717 0.959 . S
C733 H718 0.959 . S
C733 H719 0.961 . S
C733 C732 1.502 . S
C734 H720 0.960 . S
C734 H721 0.961 . S
C734 H722 0.959 . S
C734 C732 1.561 . S
C735 C732 1.526 . S
C735 C736 1.396 . S
C735 C740 1.390 . S
C736 C730 1.465 . S
C736 C735 1.396 . S
C736 C737 1.399 . S
C737 H723 0.929 . S
C737 C736 1.399 . S
C737 C738 1.385 . S
C738 H724 0.931 . S
C738 C737 1.385 . S
C738 C739 1.389 . S
C739 C738 1.389 . S
C739 C740 1.387 . S
C740 H725 0.930 . S
C740 C735 1.390 . S
C740 C739 1.387 . S
H741 C753 0.930 . S
H742 C755 0.930 . S
H743 C756 0.930 . S
H744 C760 0.959 . S
H745 C760 0.959 . S
H746 C760 0.961 . S
H747 C761 0.960 . S
H748 C761 0.961 . S
H749 C761 0.959 . S
H750 C764 0.929 . S
H751 C765 0.931 . S
H752 C767 0.930 . S
C753 H741 0.930 . S
C753 C754 1.399 . S
C753 C758 1.399 . S
C754 C753 1.399 . S
C754 C755 1.376 . S
C755 H742 0.930 . S
C755 C754 1.376 . S
C755 C756 1.388 . S
C756 H743 0.930 . S
C756 C755 1.388 . S
C756 C757 1.390 . S
C757 C756 1.390 . S
C757 C758 1.394 . S
C757 C763 1.465 . S
C758 C753 1.399 . S
C758 C757 1.394 . S
C758 C759 1.516 . S
C759 C758 1.516 . S
C759 C760 1.502 . S
C759 C761 1.561 . S
C759 C762 1.526 . S
C760 H744 0.959 . S
C760 H745 0.959 . S
C760 H746 0.961 . S
C760 C759 1.502 . S
C761 H747 0.960 . S
C761 H748 0.961 . S
C761 H749 0.959 . S
C761 C759 1.561 . S
C762 C759 1.526 . S
C762 C763 1.396 . S
C762 C767 1.390 . S
C763 C757 1.465 . S
C763 C762 1.396 . S
C763 C764 1.399 . S
C764 H750 0.929 . S
C764 C763 1.399 . S
C764 C765 1.385 . S
C765 H751 0.931 . S
C765 C764 1.385 . S
C765 C766 1.389 . S
C766 C765 1.389 . S
C766 C767 1.387 . S
C767 H752 0.930 . S
C767 C762 1.390 . S
C767 C766 1.387 . S
H768 C780 0.930 . S
H769 C782 0.930 . S
H770 C783 0.930 . S
H771 C787 0.959 . S
H772 C787 0.959 . S
H773 C787 0.961 . S
H774 C788 0.960 . S
H775 C788 0.961 . S
H776 C788 0.959 . S
H777 C791 0.929 . S
H778 C792 0.931 . S
H779 C794 0.930 . S
C780 H768 0.930 . S
C780 C781 1.399 . S
C780 C785 1.399 . S
C781 C780 1.399 . S
C781 C782 1.376 . S
C782 H769 0.930 . S
C782 C781 1.376 . S
C782 C783 1.388 . S
C783 H770 0.930 . S
C783 C782 1.388 . S
C783 C784 1.390 . S
C784 C783 1.390 . S
C784 C785 1.394 . S
C784 C790 1.465 . S
C785 C780 1.399 . S
C785 C784 1.394 . S
C785 C786 1.516 . S
C786 C785 1.516 . S
C786 C787 1.502 . S
C786 C788 1.561 . S
C786 C789 1.526 . S
C787 H771 0.959 . S
C787 H772 0.959 . S
C787 H773 0.961 . S
C787 C786 1.502 . S
C788 H774 0.960 . S
C788 H775 0.961 . S
C788 H776 0.959 . S
C788 C786 1.561 . S
C789 C786 1.526 . S
C789 C790 1.396 . S
C789 C794 1.390 . S
C790 C784 1.465 . S
C790 C789 1.396 . S
C790 C791 1.399 . S
C791 H777 0.929 . S
C791 C790 1.399 . S
C791 C792 1.385 . S
C792 H778 0.931 . S
C792 C791 1.385 . S
C792 C793 1.389 . S
C793 C792 1.389 . S
C793 C794 1.387 . S
C794 H779 0.930 . S
C794 C789 1.390 . S
C794 C793 1.387 . S
H795 C807 0.930 . S
H796 C809 0.930 . S
H797 C810 0.930 . S
H798 C814 0.959 . S
H799 C814 0.959 . S
H800 C814 0.961 . S
H801 C815 0.960 . S
H802 C815 0.961 . S
H803 C815 0.959 . S
H804 C818 0.929 . S
H805 C819 0.931 . S
H806 C821 0.930 . S
C807 H795 0.930 . S
C807 C808 1.399 . S
C807 C812 1.399 . S
C808 C807 1.399 . S
C808 C809 1.376 . S
C809 H796 0.930 . S
C809 C808 1.376 . S
C809 C810 1.388 . S
C810 H797 0.930 . S
C810 C809 1.388 . S
C810 C811 1.390 . S
C811 C810 1.390 . S
C811 C812 1.394 . S
C811 C817 1.465 . S
C812 C807 1.399 . S
C812 C811 1.394 . S
C812 C813 1.516 . S
C813 C812 1.516 . S
C813 C814 1.502 . S
C813 C815 1.561 . S
C813 C816 1.526 . S
C814 H798 0.959 . S
C814 H799 0.959 . S
C814 H800 0.961 . S
C814 C813 1.502 . S
C815 H801 0.960 . S
C815 H802 0.961 . S
C815 H803 0.959 . S
C815 C813 1.561 . S
C816 C813 1.526 . S
C816 C817 1.396 . S
C816 C821 1.390 . S
C817 C811 1.465 . S
C817 C816 1.396 . S
C817 C818 1.399 . S
C818 H804 0.929 . S
C818 C817 1.399 . S
C818 C819 1.385 . S
C819 H805 0.931 . S
C819 C818 1.385 . S
C819 C820 1.389 . S
C820 C819 1.389 . S
C820 C821 1.387 . S
C821 H806 0.930 . S
C821 C816 1.390 . S
C821 C820 1.387 . S
H822 C834 0.930 . S
H823 C836 0.930 . S
H824 C837 0.930 . S
H825 C841 0.959 . S
H826 C841 0.959 . S
H827 C841 0.961 . S
H828 C842 0.960 . S
H829 C842 0.961 . S
H830 C842 0.959 . S
H831 C845 0.929 . S
H832 C846 0.931 . S
H833 C848 0.930 . S
C834 H822 0.930 . S
C834 C835 1.399 . S
C834 C839 1.399 . S
C835 C834 1.399 . S
C835 C836 1.376 . S
C836 H823 0.930 . S
C836 C835 1.376 . S
C836 C837 1.388 . S
C837 H824 0.930 . S
C837 C836 1.388 . S
C837 C838 1.390 . S
C838 C837 1.390 . S
C838 C839 1.394 . S
C838 C844 1.465 . S
C839 C834 1.399 . S
C839 C838 1.394 . S
C839 C840 1.516 . S
C840 C839 1.516 . S
C840 C841 1.502 . S
C840 C842 1.561 . S
C840 C843 1.526 . S
C841 H825 0.959 . S
C841 H826 0.959 . S
C841 H827 0.961 . S
C841 C840 1.502 . S
C842 H828 0.960 . S
C842 H829 0.961 . S
C842 H830 0.959 . S
C842 C840 1.561 . S
C843 C840 1.526 . S
C843 C844 1.396 . S
C843 C848 1.390 . S
C844 C838 1.465 . S
C844 C843 1.396 . S
C844 C845 1.399 . S
C845 H831 0.929 . S
C845 C844 1.399 . S
C845 C846 1.385 . S
C846 H832 0.931 . S
C846 C845 1.385 . S
C846 C847 1.389 . S
C847 C846 1.389 . S
C847 C848 1.387 . S
C848 H833 0.930 . S
C848 C843 1.390 . S
C848 C847 1.387 . S
H849 C861 0.930 . S
H850 C863 0.930 . S
H851 C864 0.930 . S
H852 C868 0.959 . S
H853 C868 0.959 . S
H854 C868 0.961 . S
H855 C869 0.960 . S
H856 C869 0.961 . S
H857 C869 0.959 . S
H858 C872 0.929 . S
H859 C873 0.931 . S
H860 C875 0.930 . S
C861 H849 0.930 . S
C861 C862 1.399 . S
C861 C866 1.399 . S
C862 C861 1.399 . S
C862 C863 1.376 . S
C863 H850 0.930 . S
C863 C862 1.376 . S
C863 C864 1.388 . S
C864 H851 0.930 . S
C864 C863 1.388 . S
C864 C865 1.390 . S
C865 C864 1.390 . S
C865 C866 1.394 . S
C865 C871 1.465 . S
C866 C861 1.399 . S
C866 C865 1.394 . S
C866 C867 1.516 . S
C867 C866 1.516 . S
C867 C868 1.502 . S
C867 C869 1.561 . S
C867 C870 1.526 . S
C868 H852 0.959 . S
C868 H853 0.959 . S
C868 H854 0.961 . S
C868 C867 1.502 . S
C869 H855 0.960 . S
C869 H856 0.961 . S
C869 H857 0.959 . S
C869 C867 1.561 . S
C870 C867 1.526 . S
C870 C871 1.396 . S
C870 C875 1.390 . S
C871 C865 1.465 . S
C871 C870 1.396 . S
C871 C872 1.399 . S
C872 H858 0.929 . S
C872 C871 1.399 . S
C872 C873 1.385 . S
C873 H859 0.931 . S
C873 C872 1.385 . S
C873 C874 1.389 . S
C874 C873 1.389 . S
C874 C875 1.387 . S
C875 H860 0.930 . S
C875 C870 1.390 . S
C875 C874 1.387 . S
H876 C888 0.930 . S
H877 C890 0.930 . S
H878 C891 0.930 . S
H879 C895 0.959 . S
H880 C895 0.959 . S
H881 C895 0.961 . S
H882 C896 0.960 . S
H883 C896 0.961 . S
H884 C896 0.959 . S
H885 C899 0.929 . S
H886 C900 0.931 . S
H887 C902 0.930 . S
C888 H876 0.930 . S
C888 C889 1.399 . S
C888 C893 1.399 . S
C889 C888 1.399 . S
C889 C890 1.376 . S
C890 H877 0.930 . S
C890 C889 1.376 . S
C890 C891 1.388 . S
C891 H878 0.930 . S
C891 C890 1.388 . S
C891 C892 1.390 . S
C892 C891 1.390 . S
C892 C893 1.394 . S
C892 C898 1.465 . S
C893 C888 1.399 . S
C893 C892 1.394 . S
C893 C894 1.516 . S
C894 C893 1.516 . S
C894 C895 1.502 . S
C894 C896 1.561 . S
C894 C897 1.526 . S
C895 H879 0.959 . S
C895 H880 0.959 . S
C895 H881 0.961 . S
C895 C894 1.502 . S
C896 H882 0.960 . S
C896 H883 0.961 . S
C896 H884 0.959 . S
C896 C894 1.561 . S
C897 C894 1.526 . S
C897 C898 1.396 . S
C897 C902 1.390 . S
C898 C892 1.465 . S
C898 C897 1.396 . S
C898 C899 1.399 . S
C899 H885 0.929 . S
C899 C898 1.399 . S
C899 C900 1.385 . S
C900 H886 0.931 . S
C900 C899 1.385 . S
C900 C901 1.389 . S
C901 C900 1.389 . S
C901 C902 1.387 . S
C902 H887 0.930 . S
C902 C897 1.390 . S
C902 C901 1.387 . S
H903 C915 0.930 . S
H904 C917 0.930 . S
H905 C918 0.930 . S
H906 C922 0.959 . S
H907 C922 0.959 . S
H908 C922 0.961 . S
H909 C923 0.960 . S
H910 C923 0.961 . S
H911 C923 0.959 . S
H912 C926 0.929 . S
H913 C927 0.931 . S
H914 C929 0.930 . S
C915 H903 0.930 . S
C915 C916 1.399 . S
C915 C920 1.399 . S
C916 C915 1.399 . S
C916 C917 1.376 . S
C917 H904 0.930 . S
C917 C916 1.376 . S
C917 C918 1.388 . S
C918 H905 0.930 . S
C918 C917 1.388 . S
C918 C919 1.390 . S
C919 C918 1.390 . S
C919 C920 1.394 . S
C919 C925 1.465 . S
C920 C915 1.399 . S
C920 C919 1.394 . S
C920 C921 1.516 . S
C921 C920 1.516 . S
C921 C922 1.502 . S
C921 C923 1.561 . S
C921 C924 1.526 . S
C922 H906 0.959 . S
C922 H907 0.959 . S
C922 H908 0.961 . S
C922 C921 1.502 . S
C923 H909 0.960 . S
C923 H910 0.961 . S
C923 H911 0.959 . S
C923 C921 1.561 . S
C924 C921 1.526 . S
C924 C925 1.396 . S
C924 C929 1.390 . S
C925 C919 1.465 . S
C925 C924 1.396 . S
C925 C926 1.399 . S
C926 H912 0.929 . S
C926 C925 1.399 . S
C926 C927 1.385 . S
C927 H913 0.931 . S
C927 C926 1.385 . S
C927 C928 1.389 . S
C928 C927 1.389 . S
C928 C929 1.387 . S
C929 H914 0.930 . S
C929 C924 1.390 . S
C929 C928 1.387 . S
H930 C942 0.930 . S
H931 C944 0.930 . S
H932 C945 0.930 . S
H933 C949 0.959 . S
H934 C949 0.959 . S
H935 C949 0.961 . S
H936 C950 0.960 . S
H937 C950 0.961 . S
H938 C950 0.959 . S
H939 C953 0.929 . S
H940 C954 0.931 . S
H941 C956 0.930 . S
C942 H930 0.930 . S
C942 C943 1.399 . S
C942 C947 1.399 . S
C943 C942 1.399 . S
C943 C944 1.376 . S
C944 H931 0.930 . S
C944 C943 1.376 . S
C944 C945 1.388 . S
C945 H932 0.930 . S
C945 C944 1.388 . S
C945 C946 1.390 . S
C946 C945 1.390 . S
C946 C947 1.394 . S
C946 C952 1.465 . S
C947 C942 1.399 . S
C947 C946 1.394 . S
C947 C948 1.516 . S
C948 C947 1.516 . S
C948 C949 1.502 . S
C948 C950 1.561 . S
C948 C951 1.526 . S
C949 H933 0.959 . S
C949 H934 0.959 . S
C949 H935 0.961 . S
C949 C948 1.502 . S
C950 H936 0.960 . S
C950 H937 0.961 . S
C950 H938 0.959 . S
C950 C948 1.561 . S
C951 C948 1.526 . S
C951 C952 1.396 . S
C951 C956 1.390 . S
C952 C946 1.465 . S
C952 C951 1.396 . S
C952 C953 1.399 . S
C953 H939 0.929 . S
C953 C952 1.399 . S
C953 C954 1.385 . S
C954 H940 0.931 . S
C954 C953 1.385 . S
C954 C955 1.389 . S
C955 C954 1.389 . S
C955 C956 1.387 . S
C956 H941 0.930 . S
C956 C951 1.390 . S
C956 C955 1.387 . S
H957 C969 0.930 . S
H958 C971 0.930 . S
H959 C972 0.930 . S
H960 C976 0.959 . S
H961 C976 0.959 . S
H962 C976 0.961 . S
H963 C977 0.960 . S
H964 C977 0.961 . S
H965 C977 0.959 . S
H966 C980 0.929 . S
H967 C981 0.931 . S
H968 C983 0.930 . S
C969 H957 0.930 . S
C969 C970 1.399 . S
C969 C974 1.399 . S
C970 C969 1.399 . S
C970 C971 1.376 . S
C971 H958 0.930 . S
C971 C970 1.376 . S
C971 C972 1.388 . S
C972 H959 0.930 . S
C972 C971 1.388 . S
C972 C973 1.390 . S
C973 C972 1.390 . S
C973 C974 1.394 . S
C973 C979 1.465 . S
C974 C969 1.399 . S
C974 C973 1.394 . S
C974 C975 1.516 . S
C975 C974 1.516 . S
C975 C976 1.502 . S
C975 C977 1.561 . S
C975 C978 1.526 . S
C976 H960 0.959 . S
C976 H961 0.959 . S
C976 H962 0.961 . S
C976 C975 1.502 . S
C977 H963 0.960 . S
C977 H964 0.961 . S
C977 H965 0.959 . S
C977 C975 1.561 . S
C978 C975 1.526 . S
C978 C979 1.396 . S
C978 C983 1.390 . S
C979 C973 1.465 . S
C979 C978 1.396 . S
C979 C980 1.399 . S
C980 H966 0.929 . S
C980 C979 1.399 . S
C980 C981 1.385 . S
C981 H967 0.931 . S
C981 C980 1.385 . S
C981 C982 1.389 . S
C982 C981 1.389 . S
C982 C983 1.387 . S
C983 H968 0.930 . S
C983 C978 1.390 . S
C983 C982 1.387 . S
H984 C996 0.930 . S
H985 C998 0.930 . S
H986 C999 0.930 . S
H987 C1003 0.959 . S
H988 C1003 0.959 . S
H989 C1003 0.961 . S
H990 C1004 0.960 . S
H991 C1004 0.961 . S
H992 C1004 0.959 . S
H993 C1007 0.929 . S
H994 C1008 0.931 . S
H995 C1010 0.930 . S
C996 H984 0.930 . S
C996 C997 1.399 . S
C996 C1001 1.399 . S
C997 C996 1.399 . S
C997 C998 1.376 . S
C998 H985 0.930 . S
C998 C997 1.376 . S
C998 C999 1.388 . S
C999 H986 0.930 . S
C999 C998 1.388 . S
C999 C1000 1.390 . S
C1000 C999 1.390 . S
C1000 C1001 1.394 . S
C1000 C1006 1.465 . S
C1001 C996 1.399 . S
C1001 C1000 1.394 . S
C1001 C1002 1.516 . S
C1002 C1001 1.516 . S
C1002 C1003 1.502 . S
C1002 C1004 1.561 . S
C1002 C1005 1.526 . S
C1003 H987 0.959 . S
C1003 H988 0.959 . S
C1003 H989 0.961 . S
C1003 C1002 1.502 . S
C1004 H990 0.960 . S
C1004 H991 0.961 . S
C1004 H992 0.959 . S
C1004 C1002 1.561 . S
C1005 C1002 1.526 . S
C1005 C1006 1.396 . S
C1005 C1010 1.390 . S
C1006 C1000 1.465 . S
C1006 C1005 1.396 . S
C1006 C1007 1.399 . S
C1007 H993 0.929 . S
C1007 C1006 1.399 . S
C1007 C1008 1.385 . S
C1008 H994 0.931 . S
C1008 C1007 1.385 . S
C1008 C1009 1.389 . S
C1009 C1008 1.389 . S
C1009 C1010 1.387 . S
C1010 H995 0.930 . S
C1010 C1005 1.390 . S
C1010 C1009 1.387 . S
H1011 C1023 0.930 . S
H1012 C1025 0.930 . S
H1013 C1026 0.930 . S
H1014 C1030 0.959 . S
H1015 C1030 0.959 . S
H1016 C1030 0.961 . S
H1017 C1031 0.960 . S
H1018 C1031 0.961 . S
H1019 C1031 0.959 . S
H1020 C1034 0.929 . S
H1021 C1035 0.931 . S
H1022 C1037 0.930 . S
C1023 H1011 0.930 . S
C1023 C1024 1.399 . S
C1023 C1028 1.399 . S
C1024 C1023 1.399 . S
C1024 C1025 1.376 . S
C1025 H1012 0.930 . S
C1025 C1024 1.376 . S
C1025 C1026 1.388 . S
C1026 H1013 0.930 . S
C1026 C1025 1.388 . S
C1026 C1027 1.390 . S
C1027 C1026 1.390 . S
C1027 C1028 1.394 . S
C1027 C1033 1.465 . S
C1028 C1023 1.399 . S
C1028 C1027 1.394 . S
C1028 C1029 1.516 . S
C1029 C1028 1.516 . S
C1029 C1030 1.502 . S
C1029 C1031 1.561 . S
C1029 C1032 1.526 . S
C1030 H1014 0.959 . S
C1030 H1015 0.959 . S
C1030 H1016 0.961 . S
C1030 C1029 1.502 . S
C1031 H1017 0.960 . S
C1031 H1018 0.961 . S
C1031 H1019 0.959 . S
C1031 C1029 1.561 . S
C1032 C1029 1.526 . S
C1032 C1033 1.396 . S
C1032 C1037 1.390 . S
C1033 C1027 1.465 . S
C1033 C1032 1.396 . S
C1033 C1034 1.399 . S
C1034 H1020 0.929 . S
C1034 C1033 1.399 . S
C1034 C1035 1.385 . S
C1035 H1021 0.931 . S
C1035 C1034 1.385 . S
C1035 C1036 1.389 . S
C1036 C1035 1.389 . S
C1036 C1037 1.387 . S
C1037 H1022 0.930 . S
C1037 C1032 1.390 . S
C1037 C1036 1.387 . S
H1038 C1050 0.930 . S
H1039 C1052 0.930 . S
H1040 C1053 0.930 . S
H1041 C1057 0.959 . S
H1042 C1057 0.959 . S
H1043 C1057 0.961 . S
H1044 C1058 0.960 . S
H1045 C1058 0.961 . S
H1046 C1058 0.959 . S
H1047 C1061 0.929 . S
H1048 C1062 0.931 . S
H1049 C1064 0.930 . S
C1050 H1038 0.930 . S
C1050 C1051 1.399 . S
C1050 C1055 1.399 . S
C1051 C1050 1.399 . S
C1051 C1052 1.376 . S
C1052 H1039 0.930 . S
C1052 C1051 1.376 . S
C1052 C1053 1.388 . S
C1053 H1040 0.930 . S
C1053 C1052 1.388 . S
C1053 C1054 1.390 . S
C1054 C1053 1.390 . S
C1054 C1055 1.394 . S
C1054 C1060 1.465 . S
C1055 C1050 1.399 . S
C1055 C1054 1.394 . S
C1055 C1056 1.516 . S
C1056 C1055 1.516 . S
C1056 C1057 1.502 . S
C1056 C1058 1.561 . S
C1056 C1059 1.526 . S
C1057 H1041 0.959 . S
C1057 H1042 0.959 . S
C1057 H1043 0.961 . S
C1057 C1056 1.502 . S
C1058 H1044 0.960 . S
C1058 H1045 0.961 . S
C1058 H1046 0.959 . S
C1058 C1056 1.561 . S
C1059 C1056 1.526 . S
C1059 C1060 1.396 . S
C1059 C1064 1.390 . S
C1060 C1054 1.465 . S
C1060 C1059 1.396 . S
C1060 C1061 1.399 . S
C1061 H1047 0.929 . S
C1061 C1060 1.399 . S
C1061 C1062 1.385 . S
C1062 H1048 0.931 . S
C1062 C1061 1.385 . S
C1062 C1063 1.389 . S
C1063 C1062 1.389 . S
C1063 C1064 1.387 . S
C1064 H1049 0.930 . S
C1064 C1059 1.390 . S
C1064 C1063 1.387 . S
H1065 C1077 0.930 . S
H1066 C1079 0.930 . S
H1067 C1080 0.930 . S
H1068 C1084 0.959 . S
H1069 C1084 0.959 . S
H1070 C1084 0.961 . S
H1071 C1085 0.960 . S
H1072 C1085 0.961 . S
H1073 C1085 0.959 . S
H1074 C1088 0.929 . S
H1075 C1089 0.931 . S
H1076 C1091 0.930 . S
C1077 H1065 0.930 . S
C1077 C1078 1.399 . S
C1077 C1082 1.399 . S
C1078 C1077 1.399 . S
C1078 C1079 1.376 . S
C1079 H1066 0.930 . S
C1079 C1078 1.376 . S
C1079 C1080 1.388 . S
C1080 H1067 0.930 . S
C1080 C1079 1.388 . S
C1080 C1081 1.390 . S
C1081 C1080 1.390 . S
C1081 C1082 1.394 . S
C1081 C1087 1.465 . S
C1082 C1077 1.399 . S
C1082 C1081 1.394 . S
C1082 C1083 1.516 . S
C1083 C1082 1.516 . S
C1083 C1084 1.502 . S
C1083 C1085 1.561 . S
C1083 C1086 1.526 . S
C1084 H1068 0.959 . S
C1084 H1069 0.959 . S
C1084 H1070 0.961 . S
C1084 C1083 1.502 . S
C1085 H1071 0.960 . S
C1085 H1072 0.961 . S
C1085 H1073 0.959 . S
C1085 C1083 1.561 . S
C1086 C1083 1.526 . S
C1086 C1087 1.396 . S
C1086 C1091 1.390 . S
C1087 C1081 1.465 . S
C1087 C1086 1.396 . S
C1087 C1088 1.399 . S
C1088 H1074 0.929 . S
C1088 C1087 1.399 . S
C1088 C1089 1.385 . S
C1089 H1075 0.931 . S
C1089 C1088 1.385 . S
C1089 C1090 1.389 . S
C1090 C1089 1.389 . S
C1090 C1091 1.387 . S
C1091 H1076 0.930 . S
C1091 C1086 1.390 . S
C1091 C1090 1.387 . S
H1092 C1104 0.930 . S
H1093 C1106 0.930 . S
H1094 C1107 0.930 . S
H1095 C1111 0.959 . S
H1096 C1111 0.959 . S
H1097 C1111 0.961 . S
H1098 C1112 0.960 . S
H1099 C1112 0.961 . S
H1100 C1112 0.959 . S
H1101 C1115 0.929 . S
H1102 C1116 0.931 . S
H1103 C1118 0.930 . S
C1104 H1092 0.930 . S
C1104 C1105 1.399 . S
C1104 C1109 1.399 . S
C1105 C1104 1.399 . S
C1105 C1106 1.376 . S
C1106 H1093 0.930 . S
C1106 C1105 1.376 . S
C1106 C1107 1.388 . S
C1107 H1094 0.930 . S
C1107 C1106 1.388 . S
C1107 C1108 1.390 . S
C1108 C1107 1.390 . S
C1108 C1109 1.394 . S
C1108 C1114 1.465 . S
C1109 C1104 1.399 . S
C1109 C1108 1.394 . S
C1109 C1110 1.516 . S
C1110 C1109 1.516 . S
C1110 C1111 1.502 . S
C1110 C1112 1.561 . S
C1110 C1113 1.526 . S
C1111 H1095 0.959 . S
C1111 H1096 0.959 . S
C1111 H1097 0.961 . S
C1111 C1110 1.502 . S
C1112 H1098 0.960 . S
C1112 H1099 0.961 . S
C1112 H1100 0.959 . S
C1112 C1110 1.561 . S
C1113 C1110 1.526 . S
C1113 C1114 1.396 . S
C1113 C1118 1.390 . S
C1114 C1108 1.465 . S
C1114 C1113 1.396 . S
C1114 C1115 1.399 . S
C1115 H1101 0.929 . S
C1115 C1114 1.399 . S
C1115 C1116 1.385 . S
C1116 H1102 0.931 . S
C1116 C1115 1.385 . S
C1116 C1117 1.389 . S
C1117 C1116 1.389 . S
C1117 C1118 1.387 . S
C1118 H1103 0.930 . S
C1118 C1113 1.390 . S
C1118 C1117 1.387 . S
H1119 C1131 0.930 . S
H1120 C1133 0.930 . S
H1121 C1134 0.930 . S
H1122 C1138 0.959 . S
H1123 C1138 0.959 . S
H1124 C1138 0.961 . S
H1125 C1139 0.960 . S
H1126 C1139 0.961 . S
H1127 C1139 0.959 . S
H1128 C1142 0.929 . S
H1129 C1143 0.931 . S
H1130 C1145 0.930 . S
C1131 H1119 0.930 . S
C1131 C1132 1.399 . S
C1131 C1136 1.399 . S
C1132 C1131 1.399 . S
C1132 C1133 1.376 . S
C1133 H1120 0.930 . S
C1133 C1132 1.376 . S
C1133 C1134 1.388 . S
C1134 H1121 0.930 . S
C1134 C1133 1.388 . S
C1134 C1135 1.390 . S
C1135 C1134 1.390 . S
C1135 C1136 1.394 . S
C1135 C1141 1.465 . S
C1136 C1131 1.399 . S
C1136 C1135 1.394 . S
C1136 C1137 1.516 . S
C1137 C1136 1.516 . S
C1137 C1138 1.502 . S
C1137 C1139 1.561 . S
C1137 C1140 1.526 . S
C1138 H1122 0.959 . S
C1138 H1123 0.959 . S
C1138 H1124 0.961 . S
C1138 C1137 1.502 . S
C1139 H1125 0.960 . S
C1139 H1126 0.961 . S
C1139 H1127 0.959 . S
C1139 C1137 1.561 . S
C1140 C1137 1.526 . S
C1140 C1141 1.396 . S
C1140 C1145 1.390 . S
C1141 C1135 1.465 . S
C1141 C1140 1.396 . S
C1141 C1142 1.399 . S
C1142 H1128 0.929 . S
C1142 C1141 1.399 . S
C1142 C1143 1.385 . S
C1143 H1129 0.931 . S
C1143 C1142 1.385 . S
C1143 C1144 1.389 . S
C1144 C1143 1.389 . S
C1144 C1145 1.387 . S
C1145 H1130 0.930 . S
C1145 C1140 1.390 . S
C1145 C1144 1.387 . S
H1146 C1158 0.930 . S
H1147 C1160 0.930 . S
H1148 C1161 0.930 . S
H1149 C1165 0.959 . S
H1150 C1165 0.959 . S
H1151 C1165 0.961 . S
H1152 C1166 0.960 . S
H1153 C1166 0.961 . S
H1154 C1166 0.959 . S
H1155 C1169 0.929 . S
H1156 C1170 0.931 . S
H1157 C1172 0.930 . S
C1158 H1146 0.930 . S
C1158 C1159 1.399 . S
C1158 C1163 1.399 . S
C1159 C1158 1.399 . S
C1159 C1160 1.376 . S
C1160 H1147 0.930 . S
C1160 C1159 1.376 . S
C1160 C1161 1.388 . S
C1161 H1148 0.930 . S
C1161 C1160 1.388 . S
C1161 C1162 1.390 . S
C1162 C1161 1.390 . S
C1162 C1163 1.394 . S
C1162 C1168 1.465 . S
C1163 C1158 1.399 . S
C1163 C1162 1.394 . S
C1163 C1164 1.516 . S
C1164 C1163 1.516 . S
C1164 C1165 1.502 . S
C1164 C1166 1.561 . S
C1164 C1167 1.526 . S
C1165 H1149 0.959 . S
C1165 H1150 0.959 . S
C1165 H1151 0.961 . S
C1165 C1164 1.502 . S
C1166 H1152 0.960 . S
C1166 H1153 0.961 . S
C1166 H1154 0.959 . S
C1166 C1164 1.561 . S
C1167 C1164 1.526 . S
C1167 C1168 1.396 . S
C1167 C1172 1.390 . S
C1168 C1162 1.465 . S
C1168 C1167 1.396 . S
C1168 C1169 1.399 . S
C1169 H1155 0.929 . S
C1169 C1168 1.399 . S
C1169 C1170 1.385 . S
C1170 H1156 0.931 . S
C1170 C1169 1.385 . S
C1170 C1171 1.389 . S
C1171 C1170 1.389 . S
C1171 C1172 1.387 . S
C1172 H1157 0.930 . S
C1172 C1167 1.390 . S
C1172 C1171 1.387 . S
H1173 C1185 0.930 . S
H1174 C1187 0.930 . S
H1175 C1188 0.930 . S
H1176 C1192 0.959 . S
H1177 C1192 0.959 . S
H1178 C1192 0.961 . S
H1179 C1193 0.960 . S
H1180 C1193 0.961 . S
H1181 C1193 0.959 . S
H1182 C1196 0.929 . S
H1183 C1197 0.931 . S
H1184 C1199 0.930 . S
C1185 H1173 0.930 . S
C1185 C1186 1.399 . S
C1185 C1190 1.399 . S
C1186 C1185 1.399 . S
C1186 C1187 1.376 . S
C1187 H1174 0.930 . S
C1187 C1186 1.376 . S
C1187 C1188 1.388 . S
C1188 H1175 0.930 . S
C1188 C1187 1.388 . S
C1188 C1189 1.390 . S
C1189 C1188 1.390 . S
C1189 C1190 1.394 . S
C1189 C1195 1.465 . S
C1190 C1185 1.399 . S
C1190 C1189 1.394 . S
C1190 C1191 1.516 . S
C1191 C1190 1.516 . S
C1191 C1192 1.502 . S
C1191 C1193 1.561 . S
C1191 C1194 1.526 . S
C1192 H1176 0.959 . S
C1192 H1177 0.959 . S
C1192 H1178 0.961 . S
C1192 C1191 1.502 . S
C1193 H1179 0.960 . S
C1193 H1180 0.961 . S
C1193 H1181 0.959 . S
C1193 C1191 1.561 . S
C1194 C1191 1.526 . S
C1194 C1195 1.396 . S
C1194 C1199 1.390 . S
C1195 C1189 1.465 . S
C1195 C1194 1.396 . S
C1195 C1196 1.399 . S
C1196 H1182 0.929 . S
C1196 C1195 1.399 . S
C1196 C1197 1.385 . S
C1197 H1183 0.931 . S
C1197 C1196 1.385 . S
C1197 C1198 1.389 . S
C1198 C1197 1.389 . S
C1198 C1199 1.387 . S
C1199 H1184 0.930 . S
C1199 C1194 1.390 . S
C1199 C1198 1.387 . S
H1200 C1212 0.930 . S
H1201 C1214 0.930 . S
H1202 C1215 0.930 . S
H1203 C1219 0.959 . S
H1204 C1219 0.959 . S
H1205 C1219 0.961 . S
H1206 C1220 0.960 . S
H1207 C1220 0.961 . S
H1208 C1220 0.959 . S
H1209 C1223 0.929 . S
H1210 C1224 0.931 . S
H1211 C1226 0.930 . S
C1212 H1200 0.930 . S
C1212 C1213 1.399 . S
C1212 C1217 1.399 . S
C1213 C1212 1.399 . S
C1213 C1214 1.376 . S
C1214 H1201 0.930 . S
C1214 C1213 1.376 . S
C1214 C1215 1.388 . S
C1215 H1202 0.930 . S
C1215 C1214 1.388 . S
C1215 C1216 1.390 . S
C1216 C1215 1.390 . S
C1216 C1217 1.394 . S
C1216 C1222 1.465 . S
C1217 C1212 1.399 . S
C1217 C1216 1.394 . S
C1217 C1218 1.516 . S
C1218 C1217 1.516 . S
C1218 C1219 1.502 . S
C1218 C1220 1.561 . S
C1218 C1221 1.526 . S
C1219 H1203 0.959 . S
C1219 H1204 0.959 . S
C1219 H1205 0.961 . S
C1219 C1218 1.502 . S
C1220 H1206 0.960 . S
C1220 H1207 0.961 . S
C1220 H1208 0.959 . S
C1220 C1218 1.561 . S
C1221 C1218 1.526 . S
C1221 C1222 1.396 . S
C1221 C1226 1.390 . S
C1222 C1216 1.465 . S
C1222 C1221 1.396 . S
C1222 C1223 1.399 . S
C1223 H1209 0.929 . S
C1223 C1222 1.399 . S
C1223 C1224 1.385 . S
C1224 H1210 0.931 . S
C1224 C1223 1.385 . S
C1224 C1225 1.389 . S
C1225 C1224 1.389 . S
C1225 C1226 1.387 . S
C1226 H1211 0.930 . S
C1226 C1221 1.390 . S
C1226 C1225 1.387 . S
H1227 C1239 0.930 . S
H1228 C1241 0.930 . S
H1229 C1242 0.930 . S
H1230 C1246 0.959 . S
H1231 C1246 0.959 . S
H1232 C1246 0.961 . S
H1233 C1247 0.960 . S
H1234 C1247 0.961 . S
H1235 C1247 0.959 . S
H1236 C1250 0.929 . S
H1237 C1251 0.931 . S
H1238 C1253 0.930 . S
C1239 H1227 0.930 . S
C1239 C1240 1.399 . S
C1239 C1244 1.399 . S
C1240 C1239 1.399 . S
C1240 C1241 1.376 . S
C1241 H1228 0.930 . S
C1241 C1240 1.376 . S
C1241 C1242 1.388 . S
C1242 H1229 0.930 . S
C1242 C1241 1.388 . S
C1242 C1243 1.390 . S
C1243 C1242 1.390 . S
C1243 C1244 1.394 . S
C1243 C1249 1.465 . S
C1244 C1239 1.399 . S
C1244 C1243 1.394 . S
C1244 C1245 1.516 . S
C1245 C1244 1.516 . S
C1245 C1246 1.502 . S
C1245 C1247 1.561 . S
C1245 C1248 1.526 . S
C1246 H1230 0.959 . S
C1246 H1231 0.959 . S
C1246 H1232 0.961 . S
C1246 C1245 1.502 . S
C1247 H1233 0.960 . S
C1247 H1234 0.961 . S
C1247 H1235 0.959 . S
C1247 C1245 1.561 . S
C1248 C1245 1.526 . S
C1248 C1249 1.396 . S
C1248 C1253 1.390 . S
C1249 C1243 1.465 . S
C1249 C1248 1.396 . S
C1249 C1250 1.399 . S
C1250 H1236 0.929 . S
C1250 C1249 1.399 . S
C1250 C1251 1.385 . S
C1251 H1237 0.931 . S
C1251 C1250 1.385 . S
C1251 C1252 1.389 . S
C1252 C1251 1.389 . S
C1252 C1253 1.387 . S
C1253 H1238 0.930 . S
C1253 C1248 1.390 . S
C1253 C1252 1.387 . S
H1254 C1266 0.930 . S
H1255 C1268 0.930 . S
H1256 C1269 0.930 . S
H1257 C1273 0.959 . S
H1258 C1273 0.959 . S
H1259 C1273 0.961 . S
H1260 C1274 0.960 . S
H1261 C1274 0.961 . S
H1262 C1274 0.959 . S
H1263 C1277 0.929 . S
H1264 C1278 0.931 . S
H1265 C1280 0.930 . S
C1266 H1254 0.930 . S
C1266 C1267 1.399 . S
C1266 C1271 1.399 . S
C1267 C1266 1.399 . S
C1267 C1268 1.376 . S
C1268 H1255 0.930 . S
C1268 C1267 1.376 . S
C1268 C1269 1.388 . S
C1269 H1256 0.930 . S
C1269 C1268 1.388 . S
C1269 C1270 1.390 . S
C1270 C1269 1.390 . S
C1270 C1271 1.394 . S
C1270 C1276 1.465 . S
C1271 C1266 1.399 . S
C1271 C1270 1.394 . S
C1271 C1272 1.516 . S
C1272 C1271 1.516 . S
C1272 C1273 1.502 . S
C1272 C1274 1.561 . S
C1272 C1275 1.526 . S
C1273 H1257 0.959 . S
C1273 H1258 0.959 . S
C1273 H1259 0.961 . S
C1273 C1272 1.502 . S
C1274 H1260 0.960 . S
C1274 H1261 0.961 . S
C1274 H1262 0.959 . S
C1274 C1272 1.561 . S
C1275 C1272 1.526 . S
C1275 C1276 1.396 . S
C1275 C1280 1.390 . S
C1276 C1270 1.465 . S
C1276 C1275 1.396 . S
C1276 C1277 1.399 . S
C1277 H1263 0.929 . S
C1277 C1276 1.399 . S
C1277 C1278 1.385 . S
C1278 H1264 0.931 . S
C1278 C1277 1.385 . S
C1278 C1279 1.389 . S
C1279 C1278 1.389 . S
C1279 C1280 1.387 . S
C1280 H1265 0.930 . S
C1280 C1275 1.390 . S
C1280 C1279 1.387 . S
H1281 C1293 0.930 . S
H1282 C1295 0.930 . S
H1283 C1296 0.930 . S
H1284 C1300 0.959 . S
H1285 C1300 0.959 . S
H1286 C1300 0.961 . S
H1287 C1301 0.960 . S
H1288 C1301 0.961 . S
H1289 C1301 0.959 . S
H1290 C1304 0.929 . S
H1291 C1305 0.931 . S
H1292 C1307 0.930 . S
C1293 H1281 0.930 . S
C1293 C1294 1.399 . S
C1293 C1298 1.399 . S
C1294 C1293 1.399 . S
C1294 C1295 1.376 . S
C1295 H1282 0.930 . S
C1295 C1294 1.376 . S
C1295 C1296 1.388 . S
C1296 H1283 0.930 . S
C1296 C1295 1.388 . S
C1296 C1297 1.390 . S
C1297 C1296 1.390 . S
C1297 C1298 1.394 . S
C1297 C1303 1.465 . S
C1298 C1293 1.399 . S
C1298 C1297 1.394 . S
C1298 C1299 1.516 . S
C1299 C1298 1.516 . S
C1299 C1300 1.502 . S
C1299 C1301 1.561 . S
C1299 C1302 1.526 . S
C1300 H1284 0.959 . S
C1300 H1285 0.959 . S
C1300 H1286 0.961 . S
C1300 C1299 1.502 . S
C1301 H1287 0.960 . S
C1301 H1288 0.961 . S
C1301 H1289 0.959 . S
C1301 C1299 1.561 . S
C1302 C1299 1.526 . S
C1302 C1303 1.396 . S
C1302 C1307 1.390 . S
C1303 C1297 1.465 . S
C1303 C1302 1.396 . S
C1303 C1304 1.399 . S
C1304 H1290 0.929 . S
C1304 C1303 1.399 . S
C1304 C1305 1.385 . S
C1305 H1291 0.931 . S
C1305 C1304 1.385 . S
C1305 C1306 1.389 . S
C1306 C1305 1.389 . S
C1306 C1307 1.387 . S
C1307 H1292 0.930 . S
C1307 C1302 1.390 . S
C1307 C1306 1.387 . S
H1308 C1320 0.930 . S
H1309 C1322 0.930 . S
H1310 C1323 0.930 . S
H1311 C1327 0.959 . S
H1312 C1327 0.959 . S
H1313 C1327 0.961 . S
H1314 C1328 0.960 . S
H1315 C1328 0.961 . S
H1316 C1328 0.959 . S
H1317 C1331 0.929 . S
H1318 C1332 0.931 . S
H1319 C1334 0.930 . S
C1320 H1308 0.930 . S
C1320 C1321 1.399 . S
C1320 C1325 1.399 . S
C1321 C1320 1.399 . S
C1321 C1322 1.376 . S
C1322 H1309 0.930 . S
C1322 C1321 1.376 . S
C1322 C1323 1.388 . S
C1323 H1310 0.930 . S
C1323 C1322 1.388 . S
C1323 C1324 1.390 . S
C1324 C1323 1.390 . S
C1324 C1325 1.394 . S
C1324 C1330 1.465 . S
C1325 C1320 1.399 . S
C1325 C1324 1.394 . S
C1325 C1326 1.516 . S
C1326 C1325 1.516 . S
C1326 C1327 1.502 . S
C1326 C1328 1.561 . S
C1326 C1329 1.526 . S
C1327 H1311 0.959 . S
C1327 H1312 0.959 . S
C1327 H1313 0.961 . S
C1327 C1326 1.502 . S
C1328 H1314 0.960 . S
C1328 H1315 0.961 . S
C1328 H1316 0.959 . S
C1328 C1326 1.561 . S
C1329 C1326 1.526 . S
C1329 C1330 1.396 . S
C1329 C1334 1.390 . S
C1330 C1324 1.465 . S
C1330 C1329 1.396 . S
C1330 C1331 1.399 . S
C1331 H1317 0.929 . S
C1331 C1330 1.399 . S
C1331 C1332 1.385 . S
C1332 H1318 0.931 . S
C1332 C1331 1.385 . S
C1332 C1333 1.389 . S
C1333 C1332 1.389 . S
C1333 C1334 1.387 . S
C1334 H1319 0.930 . S
C1334 C1329 1.390 . S
C1334 C1333 1.387 . S
H1335 C1347 0.930 . S
H1336 C1349 0.930 . S
H1337 C1350 0.930 . S
H1338 C1354 0.959 . S
H1339 C1354 0.959 . S
H1340 C1354 0.961 . S
H1341 C1355 0.960 . S
H1342 C1355 0.961 . S
H1343 C1355 0.959 . S
H1344 C1358 0.929 . S
H1345 C1359 0.931 . S
H1346 C1361 0.930 . S
C1347 H1335 0.930 . S
C1347 C1348 1.399 . S
C1347 C1352 1.399 . S
C1348 C1347 1.399 . S
C1348 C1349 1.376 . S
C1349 H1336 0.930 . S
C1349 C1348 1.376 . S
C1349 C1350 1.388 . S
C1350 H1337 0.930 . S
C1350 C1349 1.388 . S
C1350 C1351 1.390 . S
C1351 C1350 1.390 . S
C1351 C1352 1.394 . S
C1351 C1357 1.465 . S
C1352 C1347 1.399 . S
C1352 C1351 1.394 . S
C1352 C1353 1.516 . S
C1353 C1352 1.516 . S
C1353 C1354 1.502 . S
C1353 C1355 1.561 . S
C1353 C1356 1.526 . S
C1354 H1338 0.959 . S
C1354 H1339 0.959 . S
C1354 H1340 0.961 . S
C1354 C1353 1.502 . S
C1355 H1341 0.960 . S
C1355 H1342 0.961 . S
C1355 H1343 0.959 . S
C1355 C1353 1.561 . S
C1356 C1353 1.526 . S
C1356 C1357 1.396 . S
C1356 C1361 1.390 . S
C1357 C1351 1.465 . S
C1357 C1356 1.396 . S
C1357 C1358 1.399 . S
C1358 H1344 0.929 . S
C1358 C1357 1.399 . S
C1358 C1359 1.385 . S
C1359 H1345 0.931 . S
C1359 C1358 1.385 . S
C1359 C1360 1.389 . S
C1360 C1359 1.389 . S
C1360 C1361 1.387 . S
C1361 H1346 0.930 . S
C1361 C1356 1.390 . S
C1361 C1360 1.387 . S
H1362 C1374 0.930 . S
H1363 C1376 0.930 . S
H1364 C1377 0.930 . S
H1365 C1381 0.959 . S
H1366 C1381 0.959 . S
H1367 C1381 0.961 . S
H1368 C1382 0.960 . S
H1369 C1382 0.961 . S
H1370 C1382 0.959 . S
H1371 C1385 0.929 . S
H1372 C1386 0.931 . S
H1373 C1388 0.930 . S
C1374 H1362 0.930 . S
C1374 C1375 1.399 . S
C1374 C1379 1.399 . S
C1375 C1374 1.399 . S
C1375 C1376 1.376 . S
C1376 H1363 0.930 . S
C1376 C1375 1.376 . S
C1376 C1377 1.388 . S
C1377 H1364 0.930 . S
C1377 C1376 1.388 . S
C1377 C1378 1.390 . S
C1378 C1377 1.390 . S
C1378 C1379 1.394 . S
C1378 C1384 1.465 . S
C1379 C1374 1.399 . S
C1379 C1378 1.394 . S
C1379 C1380 1.516 . S
C1380 C1379 1.516 . S
C1380 C1381 1.502 . S
C1380 C1382 1.561 . S
C1380 C1383 1.526 . S
C1381 H1365 0.959 . S
C1381 H1366 0.959 . S
C1381 H1367 0.961 . S
C1381 C1380 1.502 . S
C1382 H1368 0.960 . S
C1382 H1369 0.961 . S
C1382 H1370 0.959 . S
C1382 C1380 1.561 . S
C1383 C1380 1.526 . S
C1383 C1384 1.396 . S
C1383 C1388 1.390 . S
C1384 C1378 1.465 . S
C1384 C1383 1.396 . S
C1384 C1385 1.399 . S
C1385 H1371 0.929 . S
C1385 C1384 1.399 . S
C1385 C1386 1.385 . S
C1386 H1372 0.931 . S
C1386 C1385 1.385 . S
C1386 C1387 1.389 . S
C1387 C1386 1.389 . S
C1387 C1388 1.387 . S
C1388 H1373 0.930 . S
C1388 C1383 1.390 . S
C1388 C1387 1.387 . S
H1389 C1401 0.930 . S
H1390 C1403 0.930 . S
H1391 C1404 0.930 . S
H1392 C1408 0.959 . S
H1393 C1408 0.959 . S
H1394 C1408 0.961 . S
H1395 C1409 0.960 . S
H1396 C1409 0.961 . S
H1397 C1409 0.959 . S
H1398 C1412 0.929 . S
H1399 C1413 0.931 . S
H1400 C1415 0.930 . S
C1401 H1389 0.930 . S
C1401 C1402 1.399 . S
C1401 C1406 1.399 . S
C1402 C1401 1.399 . S
C1402 C1403 1.376 . S
C1403 H1390 0.930 . S
C1403 C1402 1.376 . S
C1403 C1404 1.388 . S
C1404 H1391 0.930 . S
C1404 C1403 1.388 . S
C1404 C1405 1.390 . S
C1405 C1404 1.390 . S
C1405 C1406 1.394 . S
C1405 C1411 1.465 . S
C1406 C1401 1.399 . S
C1406 C1405 1.394 . S
C1406 C1407 1.516 . S
C1407 C1406 1.516 . S
C1407 C1408 1.502 . S
C1407 C1409 1.561 . S
C1407 C1410 1.526 . S
C1408 H1392 0.959 . S
C1408 H1393 0.959 . S
C1408 H1394 0.961 . S
C1408 C1407 1.502 . S
C1409 H1395 0.960 . S
C1409 H1396 0.961 . S
C1409 H1397 0.959 . S
C1409 C1407 1.561 . S
C1410 C1407 1.526 . S
C1410 C1411 1.396 . S
C1410 C1415 1.390 . S
C1411 C1405 1.465 . S
C1411 C1410 1.396 . S
C1411 C1412 1.399 . S
C1412 H1398 0.929 . S
C1412 C1411 1.399 . S
C1412 C1413 1.385 . S
C1413 H1399 0.931 . S
C1413 C1412 1.385 . S
C1413 C1414 1.389 . S
C1414 C1413 1.389 . S
C1414 C1415 1.387 . S
C1415 H1400 0.930 . S
C1415 C1410 1.390 . S
C1415 C1414 1.387 . S
H1416 C1428 0.930 . S
H1417 C1430 0.930 . S
H1418 C1431 0.930 . S
H1419 C1435 0.959 . S
H1420 C1435 0.959 . S
H1421 C1435 0.961 . S
H1422 C1436 0.960 . S
H1423 C1436 0.961 . S
H1424 C1436 0.959 . S
H1425 C1439 0.929 . S
H1426 C1440 0.931 . S
H1427 C1442 0.930 . S
C1428 H1416 0.930 . S
C1428 C1429 1.399 . S
C1428 C1433 1.399 . S
C1429 C1428 1.399 . S
C1429 C1430 1.376 . S
C1430 H1417 0.930 . S
C1430 C1429 1.376 . S
C1430 C1431 1.388 . S
C1431 H1418 0.930 . S
C1431 C1430 1.388 . S
C1431 C1432 1.390 . S
C1432 C1431 1.390 . S
C1432 C1433 1.394 . S
C1432 C1438 1.465 . S
C1433 C1428 1.399 . S
C1433 C1432 1.394 . S
C1433 C1434 1.516 . S
C1434 C1433 1.516 . S
C1434 C1435 1.502 . S
C1434 C1436 1.561 . S
C1434 C1437 1.526 . S
C1435 H1419 0.959 . S
C1435 H1420 0.959 . S
C1435 H1421 0.961 . S
C1435 C1434 1.502 . S
C1436 H1422 0.960 . S
C1436 H1423 0.961 . S
C1436 H1424 0.959 . S
C1436 C1434 1.561 . S
C1437 C1434 1.526 . S
C1437 C1438 1.396 . S
C1437 C1442 1.390 . S
C1438 C1432 1.465 . S
C1438 C1437 1.396 . S
C1438 C1439 1.399 . S
C1439 H1425 0.929 . S
C1439 C1438 1.399 . S
C1439 C1440 1.385 . S
C1440 H1426 0.931 . S
C1440 C1439 1.385 . S
C1440 C1441 1.389 . S
C1441 C1440 1.389 . S
C1441 C1442 1.387 . S
C1442 H1427 0.930 . S
C1442 C1437 1.390 . S
C1442 C1441 1.387 . S
H1443 C1455 0.930 . S
H1444 C1457 0.930 . S
H1445 C1458 0.930 . S
H1446 C1462 0.959 . S
H1447 C1462 0.959 . S
H1448 C1462 0.961 . S
H1449 C1463 0.960 . S
H1450 C1463 0.961 . S
H1451 C1463 0.959 . S
H1452 C1466 0.929 . S
H1453 C1467 0.931 . S
H1454 C1469 0.930 . S
C1455 H1443 0.930 . S
C1455 C1456 1.399 . S
C1455 C1460 1.399 . S
C1456 C1455 1.399 . S
C1456 C1457 1.376 . S
C1457 H1444 0.930 . S
C1457 C1456 1.376 . S
C1457 C1458 1.388 . S
C1458 H1445 0.930 . S
C1458 C1457 1.388 . S
C1458 C1459 1.390 . S
C1459 C1458 1.390 . S
C1459 C1460 1.394 . S
C1459 C1465 1.465 . S
C1460 C1455 1.399 . S
C1460 C1459 1.394 . S
C1460 C1461 1.516 . S
C1461 C1460 1.516 . S
C1461 C1462 1.502 . S
C1461 C1463 1.561 . S
C1461 C1464 1.526 . S
C1462 H1446 0.959 . S
C1462 H1447 0.959 . S
C1462 H1448 0.961 . S
C1462 C1461 1.502 . S
C1463 H1449 0.960 . S
C1463 H1450 0.961 . S
C1463 H1451 0.959 . S
C1463 C1461 1.561 . S
C1464 C1461 1.526 . S
C1464 C1465 1.396 . S
C1464 C1469 1.390 . S
C1465 C1459 1.465 . S
C1465 C1464 1.396 . S
C1465 C1466 1.399 . S
C1466 H1452 0.929 . S
C1466 C1465 1.399 . S
C1466 C1467 1.385 . S
C1467 H1453 0.931 . S
C1467 C1466 1.385 . S
C1467 C1468 1.389 . S
C1468 C1467 1.389 . S
C1468 C1469 1.387 . S
C1469 H1454 0.930 . S
C1469 C1464 1.390 . S
C1469 C1468 1.387 . S
H1470 C1482 0.930 . S
H1471 C1484 0.930 . S
H1472 C1485 0.930 . S
H1473 C1489 0.959 . S
H1474 C1489 0.959 . S
H1475 C1489 0.961 . S
H1476 C1490 0.960 . S
H1477 C1490 0.961 . S
H1478 C1490 0.959 . S
H1479 C1493 0.929 . S
H1480 C1494 0.931 . S
H1481 C1496 0.930 . S
C1482 H1470 0.930 . S
C1482 C1483 1.399 . S
C1482 C1487 1.399 . S
C1483 C1482 1.399 . S
C1483 C1484 1.376 . S
C1484 H1471 0.930 . S
C1484 C1483 1.376 . S
C1484 C1485 1.388 . S
C1485 H1472 0.930 . S
C1485 C1484 1.388 . S
C1485 C1486 1.390 . S
C1486 C1485 1.390 . S
C1486 C1487 1.394 . S
C1486 C1492 1.465 . S
C1487 C1482 1.399 . S
C1487 C1486 1.394 . S
C1487 C1488 1.516 . S
C1488 C1487 1.516 . S
C1488 C1489 1.502 . S
C1488 C1490 1.561 . S
C1488 C1491 1.526 . S
C1489 H1473 0.959 . S
C1489 H1474 0.959 . S
C1489 H1475 0.961 . S
C1489 C1488 1.502 . S
C1490 H1476 0.960 . S
C1490 H1477 0.961 . S
C1490 H1478 0.959 . S
C1490 C1488 1.561 . S
C1491 C1488 1.526 . S
C1491 C1492 1.396 . S
C1491 C1496 1.390 . S
C1492 C1486 1.465 . S
C1492 C1491 1.396 . S
C1492 C1493 1.399 . S
C1493 H1479 0.929 . S
C1493 C1492 1.399 . S
C1493 C1494 1.385 . S
C1494 H1480 0.931 . S
C1494 C1493 1.385 . S
C1494 C1495 1.389 . S
C1495 C1494 1.389 . S
C1495 C1496 1.387 . S
C1496 H1481 0.930 . S
C1496 C1491 1.390 . S
C1496 C1495 1.387 . S
H1497 C1509 0.930 . S
H1498 C1511 0.930 . S
H1499 C1512 0.930 . S
H1500 C1516 0.959 . S
H1501 C1516 0.959 . S
H1502 C1516 0.961 . S
H1503 C1517 0.960 . S
H1504 C1517 0.961 . S
H1505 C1517 0.959 . S
H1506 C1520 0.929 . S
H1507 C1521 0.931 . S
H1508 C1523 0.930 . S
C1509 H1497 0.930 . S
C1509 C1510 1.399 . S
C1509 C1514 1.399 . S
C1510 C1509 1.399 . S
C1510 C1511 1.376 . S
C1511 H1498 0.930 . S
C1511 C1510 1.376 . S
C1511 C1512 1.388 . S
C1512 H1499 0.930 . S
C1512 C1511 1.388 . S
C1512 C1513 1.390 . S
C1513 C1512 1.390 . S
C1513 C1514 1.394 . S
C1513 C1519 1.465 . S
C1514 C1509 1.399 . S
C1514 C1513 1.394 . S
C1514 C1515 1.516 . S
C1515 C1514 1.516 . S
C1515 C1516 1.502 . S
C1515 C1517 1.561 . S
C1515 C1518 1.526 . S
C1516 H1500 0.959 . S
C1516 H1501 0.959 . S
C1516 H1502 0.961 . S
C1516 C1515 1.502 . S
C1517 H1503 0.960 . S
C1517 H1504 0.961 . S
C1517 H1505 0.959 . S
C1517 C1515 1.561 . S
C1518 C1515 1.526 . S
C1518 C1519 1.396 . S
C1518 C1523 1.390 . S
C1519 C1513 1.465 . S
C1519 C1518 1.396 . S
C1519 C1520 1.399 . S
C1520 H1506 0.929 . S
C1520 C1519 1.399 . S
C1520 C1521 1.385 . S
C1521 H1507 0.931 . S
C1521 C1520 1.385 . S
C1521 C1522 1.389 . S
C1522 C1521 1.389 . S
C1522 C1523 1.387 . S
C1523 H1508 0.930 . S
C1523 C1518 1.390 . S
C1523 C1522 1.387 . S
H1524 C1536 0.930 . S
H1525 C1538 0.930 . S
H1526 C1539 0.930 . S
H1527 C1543 0.959 . S
H1528 C1543 0.959 . S
H1529 C1543 0.961 . S
H1530 C1544 0.960 . S
H1531 C1544 0.961 . S
H1532 C1544 0.959 . S
H1533 C1547 0.929 . S
H1534 C1548 0.931 . S
H1535 C1550 0.930 . S
C1536 H1524 0.930 . S
C1536 C1537 1.399 . S
C1536 C1541 1.399 . S
C1537 C1536 1.399 . S
C1537 C1538 1.376 . S
C1538 H1525 0.930 . S
C1538 C1537 1.376 . S
C1538 C1539 1.388 . S
C1539 H1526 0.930 . S
C1539 C1538 1.388 . S
C1539 C1540 1.390 . S
C1540 C1539 1.390 . S
C1540 C1541 1.394 . S
C1540 C1546 1.465 . S
C1541 C1536 1.399 . S
C1541 C1540 1.394 . S
C1541 C1542 1.516 . S
C1542 C1541 1.516 . S
C1542 C1543 1.502 . S
C1542 C1544 1.561 . S
C1542 C1545 1.526 . S
C1543 H1527 0.959 . S
C1543 H1528 0.959 . S
C1543 H1529 0.961 . S
C1543 C1542 1.502 . S
C1544 H1530 0.960 . S
C1544 H1531 0.961 . S
C1544 H1532 0.959 . S
C1544 C1542 1.561 . S
C1545 C1542 1.526 . S
C1545 C1546 1.396 . S
C1545 C1550 1.390 . S
C1546 C1540 1.465 . S
C1546 C1545 1.396 . S
C1546 C1547 1.399 . S
C1547 H1533 0.929 . S
C1547 C1546 1.399 . S
C1547 C1548 1.385 . S
C1548 H1534 0.931 . S
C1548 C1547 1.385 . S
C1548 C1549 1.389 . S
C1549 C1548 1.389 . S
C1549 C1550 1.387 . S
C1550 H1535 0.930 . S
C1550 C1545 1.390 . S
C1550 C1549 1.387 . S
H1551 C1563 0.930 . S
H1552 C1565 0.930 . S
H1553 C1566 0.930 . S
H1554 C1570 0.959 . S
H1555 C1570 0.959 . S
H1556 C1570 0.961 . S
H1557 C1571 0.960 . S
H1558 C1571 0.961 . S
H1559 C1571 0.959 . S
H1560 C1574 0.929 . S
H1561 C1575 0.931 . S
H1562 C1577 0.930 . S
C1563 H1551 0.930 . S
C1563 C1564 1.399 . S
C1563 C1568 1.399 . S
C1564 C1563 1.399 . S
C1564 C1565 1.376 . S
C1565 H1552 0.930 . S
C1565 C1564 1.376 . S
C1565 C1566 1.388 . S
C1566 H1553 0.930 . S
C1566 C1565 1.388 . S
C1566 C1567 1.390 . S
C1567 C1566 1.390 . S
C1567 C1568 1.394 . S
C1567 C1573 1.465 . S
C1568 C1563 1.399 . S
C1568 C1567 1.394 . S
C1568 C1569 1.516 . S
C1569 C1568 1.516 . S
C1569 C1570 1.502 . S
C1569 C1571 1.561 . S
C1569 C1572 1.526 . S
C1570 H1554 0.959 . S
C1570 H1555 0.959 . S
C1570 H1556 0.961 . S
C1570 C1569 1.502 . S
C1571 H1557 0.960 . S
C1571 H1558 0.961 . S
C1571 H1559 0.959 . S
C1571 C1569 1.561 . S
C1572 C1569 1.526 . S
C1572 C1573 1.396 . S
C1572 C1577 1.390 . S
C1573 C1567 1.465 . S
C1573 C1572 1.396 . S
C1573 C1574 1.399 . S
C1574 H1560 0.929 . S
C1574 C1573 1.399 . S
C1574 C1575 1.385 . S
C1575 H1561 0.931 . S
C1575 C1574 1.385 . S
C1575 C1576 1.389 . S
C1576 C1575 1.389 . S
C1576 C1577 1.387 . S
C1577 H1562 0.930 . S
C1577 C1572 1.390 . S
C1577 C1576 1.387 . S
H1578 C1590 0.930 . S
H1579 C1592 0.930 . S
H1580 C1593 0.930 . S
H1581 C1597 0.959 . S
H1582 C1597 0.959 . S
H1583 C1597 0.961 . S
H1584 C1598 0.960 . S
H1585 C1598 0.961 . S
H1586 C1598 0.959 . S
H1587 C1601 0.929 . S
H1588 C1602 0.931 . S
H1589 C1604 0.930 . S
C1590 H1578 0.930 . S
C1590 C1591 1.399 . S
C1590 C1595 1.399 . S
C1591 C1590 1.399 . S
C1591 C1592 1.376 . S
C1592 H1579 0.930 . S
C1592 C1591 1.376 . S
C1592 C1593 1.388 . S
C1593 H1580 0.930 . S
C1593 C1592 1.388 . S
C1593 C1594 1.390 . S
C1594 C1593 1.390 . S
C1594 C1595 1.394 . S
C1594 C1600 1.465 . S
C1595 C1590 1.399 . S
C1595 C1594 1.394 . S
C1595 C1596 1.516 . S
C1596 C1595 1.516 . S
C1596 C1597 1.502 . S
C1596 C1598 1.561 . S
C1596 C1599 1.526 . S
C1597 H1581 0.959 . S
C1597 H1582 0.959 . S
C1597 H1583 0.961 . S
C1597 C1596 1.502 . S
C1598 H1584 0.960 . S
C1598 H1585 0.961 . S
C1598 H1586 0.959 . S
C1598 C1596 1.561 . S
C1599 C1596 1.526 . S
C1599 C1600 1.396 . S
C1599 C1604 1.390 . S
C1600 C1594 1.465 . S
C1600 C1599 1.396 . S
C1600 C1601 1.399 . S
C1601 H1587 0.929 . S
C1601 C1600 1.399 . S
C1601 C1602 1.385 . S
C1602 H1588 0.931 . S
C1602 C1601 1.385 . S
C1602 C1603 1.389 . S
C1603 C1602 1.389 . S
C1603 C1604 1.387 . S
C1604 H1589 0.930 . S
C1604 C1599 1.390 . S
C1604 C1603 1.387 . S
H1605 C1617 0.930 . S
H1606 C1619 0.930 . S
H1607 C1620 0.930 . S
H1608 C1624 0.959 . S
H1609 C1624 0.959 . S
H1610 C1624 0.961 . S
H1611 C1625 0.960 . S
H1612 C1625 0.961 . S
H1613 C1625 0.959 . S
H1614 C1628 0.929 . S
H1615 C1629 0.931 . S
H1616 C1631 0.930 . S
C1617 H1605 0.930 . S
C1617 C1618 1.399 . S
C1617 C1622 1.399 . S
C1618 C1617 1.399 . S
C1618 C1619 1.376 . S
C1619 H1606 0.930 . S
C1619 C1618 1.376 . S
C1619 C1620 1.388 . S
C1620 H1607 0.930 . S
C1620 C1619 1.388 . S
C1620 C1621 1.390 . S
C1621 C1620 1.390 . S
C1621 C1622 1.394 . S
C1621 C1627 1.465 . S
C1622 C1617 1.399 . S
C1622 C1621 1.394 . S
C1622 C1623 1.516 . S
C1623 C1622 1.516 . S
C1623 C1624 1.502 . S
C1623 C1625 1.561 . S
C1623 C1626 1.526 . S
C1624 H1608 0.959 . S
C1624 H1609 0.959 . S
C1624 H1610 0.961 . S
C1624 C1623 1.502 . S
C1625 H1611 0.960 . S
C1625 H1612 0.961 . S
C1625 H1613 0.959 . S
C1625 C1623 1.561 . S
C1626 C1623 1.526 . S
C1626 C1627 1.396 . S
C1626 C1631 1.390 . S
C1627 C1621 1.465 . S
C1627 C1626 1.396 . S
C1627 C1628 1.399 . S
C1628 H1614 0.929 . S
C1628 C1627 1.399 . S
C1628 C1629 1.385 . S
C1629 H1615 0.931 . S
C1629 C1628 1.385 . S
C1629 C1630 1.389 . S
C1630 C1629 1.389 . S
C1630 C1631 1.387 . S
C1631 H1616 0.930 . S
C1631 C1626 1.390 . S
C1631 C1630 1.387 . S
C349 C309 1.576 . S
C361 C0 1.612 . S
C376 C15 1.584 . S
C388 C335 1.614 . S
C403 C281 1.594 . S
C415 C40 1.598 . S
C430 C295 1.582 . S
C442 C54 1.610 . S
C457 C294 1.613 . S
C469 C69 1.586 . S
C484 C82 1.598 . S
C496 C308 1.589 . S
C511 C334 1.587 . S
C523 C96 1.600 . S
C538 C110 1.598 . S
C550 C280 1.595 . S
C565 C124 1.615 . S
C577 C279 1.573 . S
C592 C224 1.587 . S
C604 C126 1.599 . S
C619 C140 1.588 . S
C631 C250 1.607 . S
C646 C252 1.580 . S
C658 C167 1.607 . S
C673 C166 1.581 . S
C685 C182 1.618 . S
C700 C125 1.602 . S
C712 C197 1.589 . S
C727 C211 1.589 . S
C739 C127 1.609 . S
C754 C141 1.578 . S
C766 C180 1.615 . S
C781 C14 1.606 . S
C793 C253 1.580 . S
C808 C196 1.616 . S
C820 C111 1.574 . S
C835 C68 1.615 . S
C847 C210 1.575 . S
C862 C181 1.604 . S
C874 C83 1.588 . S
C889 C97 1.614 . S
C901 C183 1.580 . S
C916 C55 1.605 . S
C928 C225 1.587 . S
C943 C1 1.609 . S
C955 C251 1.584 . S
C970 C41 1.609 . S
C982 C278 1.579 . S
C997 C85 1.616 . S
C1009 C292 1.582 . S
C1024 C306 1.587 . S
C1036 C99 1.608 . S
C1051 C320 1.608 . S
C1063 C56 1.576 . S
C1078 C322 1.605 . S
C1090 C71 1.586 . S
C1105 C29 1.591 . S
C1117 C323 1.593 . S
C1132 C43 1.616 . S
C1144 C293 1.583 . S
C1159 C13 1.613 . S
C1171 C307 1.582 . S
C1186 C321 1.607 . S
C1198 C26 1.589 . S
C1213 C153 1.612 . S
C1225 C195 1.583 . S
C1240 C154 1.607 . S
C1252 C208 1.595 . S
C1267 C113 1.584 . S
C1279 C222 1.617 . S
C1294 C139 1.587 . S
C1306 C169 1.615 . S
C1321 C138 1.604 . S
C1333 C266 1.578 . S
C1348 C237 1.599 . S
C1360 C152 1.598 . S
C1375 C155 1.595 . S
C1387 C239 1.603 . S
C1402 C112 1.613 . S
C1414 C265 1.583 . S
C1429 C168 1.582 . S
C1441 C98 1.617 . S
C1456 C236 1.615 . S
C1468 C27 1.583 . S
C1483 C28 1.595 . S
C1495 C238 1.607 . S
C1510 C264 1.585 . S
C1522 C42 1.608 . S
C1537 C267 1.613 . S
C1549 C12 1.574 . S
C1564 C70 1.615 . S
C1576 C209 1.576 . S
C1591 C223 1.581 . S
C1603 C84 1.612 . S
C1618 C194 1.577 . S
C1630 C57 1.619 . S
