# Generated by pormake.
# Topology wjd, (6)-cn, num edge types: 1
# Building blocks:
#     Node 0, Type 0, BuildingBlock: BETDIP_clean_sbu_0, # of connection points: 6
#     Node 1, Type 0, BuildingBlock: BETDIP_clean_sbu_0, # of connection points: 6
#     Node 2, Type 0, BuildingBlock: BETDIP_clean_sbu_0, # of connection points: 6
#     Node 3, Type 0, BuildingBlock: BETDIP_clean_sbu_0, # of connection points: 6
#     Node 4, Type 0, BuildingBlock: BETDIP_clean_sbu_0, # of connection points: 6
#     Node 5, Type 0, BuildingBlock: BETDIP_clean_sbu_0, # of connection points: 6
#     Node 6, Type 0, BuildingBlock: BETDIP_clean_sbu_0, # of connection points: 6
#     Node 7, Type 0, BuildingBlock: BETDIP_clean_sbu_0, # of connection points: 6
#     Node 8, Type 0, BuildingBlock: BETDIP_clean_sbu_0, # of connection points: 6
#     Node 9, Type 0, BuildingBlock: BETDIP_clean_sbu_0, # of connection points: 6
#     Node 10, Type 0, BuildingBlock: BETDIP_clean_sbu_0, # of connection points: 6
#     Node 11, Type 0, BuildingBlock: BETDIP_clean_sbu_0, # of connection points: 6
#     Edge 12, Type (0, 0), BuildingBlock: OJICUG_clean_linker_0, # of connection points: 2
#     Edge 13, Type (0, 0), BuildingBlock: OJICUG_clean_linker_0, # of connection points: 2
#     Edge 14, Type (0, 0), BuildingBlock: OJICUG_clean_linker_0, # of connection points: 2
#     Edge 15, Type (0, 0), BuildingBlock: OJICUG_clean_linker_0, # of connection points: 2
#     Edge 16, Type (0, 0), BuildingBlock: OJICUG_clean_linker_0, # of connection points: 2
#     Edge 17, Type (0, 0), BuildingBlock: OJICUG_clean_linker_0, # of connection points: 2
#     Edge 18, Type (0, 0), BuildingBlock: OJICUG_clean_linker_0, # of connection points: 2
#     Edge 19, Type (0, 0), BuildingBlock: OJICUG_clean_linker_0, # of connection points: 2
#     Edge 20, Type (0, 0), BuildingBlock: OJICUG_clean_linker_0, # of connection points: 2
#     Edge 21, Type (0, 0), BuildingBlock: OJICUG_clean_linker_0, # of connection points: 2
#     Edge 22, Type (0, 0), BuildingBlock: OJICUG_clean_linker_0, # of connection points: 2
#     Edge 23, Type (0, 0), BuildingBlock: OJICUG_clean_linker_0, # of connection points: 2
#     Edge 24, Type (0, 0), BuildingBlock: OJICUG_clean_linker_0, # of connection points: 2
#     Edge 25, Type (0, 0), BuildingBlock: OJICUG_clean_linker_0, # of connection points: 2
#     Edge 26, Type (0, 0), BuildingBlock: OJICUG_clean_linker_0, # of connection points: 2
#     Edge 27, Type (0, 0), BuildingBlock: OJICUG_clean_linker_0, # of connection points: 2
#     Edge 28, Type (0, 0), BuildingBlock: OJICUG_clean_linker_0, # of connection points: 2
#     Edge 29, Type (0, 0), BuildingBlock: OJICUG_clean_linker_0, # of connection points: 2
#     Edge 30, Type (0, 0), BuildingBlock: OJICUG_clean_linker_0, # of connection points: 2
#     Edge 31, Type (0, 0), BuildingBlock: OJICUG_clean_linker_0, # of connection points: 2
#     Edge 32, Type (0, 0), BuildingBlock: OJICUG_clean_linker_0, # of connection points: 2
#     Edge 33, Type (0, 0), BuildingBlock: OJICUG_clean_linker_0, # of connection points: 2
#     Edge 34, Type (0, 0), BuildingBlock: OJICUG_clean_linker_0, # of connection points: 2
#     Edge 35, Type (0, 0), BuildingBlock: OJICUG_clean_linker_0, # of connection points: 2
#     Edge 36, Type (0, 0), BuildingBlock: OJICUG_clean_linker_0, # of connection points: 2
#     Edge 37, Type (0, 0), BuildingBlock: OJICUG_clean_linker_0, # of connection points: 2
#     Edge 38, Type (0, 0), BuildingBlock: OJICUG_clean_linker_0, # of connection points: 2
#     Edge 39, Type (0, 0), BuildingBlock: OJICUG_clean_linker_0, # of connection points: 2
#     Edge 40, Type (0, 0), BuildingBlock: OJICUG_clean_linker_0, # of connection points: 2
#     Edge 41, Type (0, 0), BuildingBlock: OJICUG_clean_linker_0, # of connection points: 2
#     Edge 42, Type (0, 0), BuildingBlock: OJICUG_clean_linker_0, # of connection points: 2
#     Edge 43, Type (0, 0), BuildingBlock: OJICUG_clean_linker_0, # of connection points: 2
#     Edge 44, Type (0, 0), BuildingBlock: OJICUG_clean_linker_0, # of connection points: 2
#     Edge 45, Type (0, 0), BuildingBlock: OJICUG_clean_linker_0, # of connection points: 2
#     Edge 46, Type (0, 0), BuildingBlock: OJICUG_clean_linker_0, # of connection points: 2
#     Edge 47, Type (0, 0), BuildingBlock: OJICUG_clean_linker_0, # of connection points: 2
# Relax obj value: 0.114
# Max RMSD: 0.236
# Mean RMSD: 0.236
data_MOF--net-wjd--node1-BETDIP_clean_sbu_0--edge1-OJICUG_clean_linker_0
_symmetry_space_group_name_H-M    P1
_symmetry_Int_Tables_number       1
_symmetry_cell_setting            triclinic
loop_
_symmetry_equiv_pos_as_xyz
'x, y, z'
_cell_length_a     32.717225
_cell_length_b     32.739463
_cell_length_c     38.144202
_cell_angle_alpha  90.012951
_cell_angle_beta   89.956459
_cell_angle_gamma 120.00359
loop_
_atom_site_label
_atom_site_type_symbol
_atom_site_fract_x
_atom_site_fract_y
_atom_site_fract_z
_atom_type_partial_charge
Tb0 Tb 0.38037 0.18495 0.09809 0.0
Tb1 Tb 0.3286 0.09499 0.12772 0.0
C2 C 0.4449 0.27026 0.09175 0.0
C3 C 0.49546 0.31003 0.09208 0.0
C4 C 0.52035 0.32648 0.12375 0.0
C5 C 0.56151 0.3706 0.12606 0.0
C6 C 0.57893 0.40047 0.09701 0.0
C7 C 0.55674 0.38245 0.06479 0.0
C8 C 0.51584 0.33798 0.06236 0.0
C9 C 0.33893 0.10968 0.05144 0.0
C10 C 0.43884 0.13804 0.11494 0.0
C11 C 0.25833 1.00236 0.1307 0.0
C12 C 0.20593 0.97725 0.13104 0.0
C13 C 0.18073 0.96962 0.09988 0.0
C14 C 0.13264 0.93781 0.09839 0.0
C15 C 0.10787 0.91176 0.12788 0.0
C16 C 0.13252 0.92224 0.15969 0.0
C17 C 0.18076 0.95455 0.16121 0.0
C18 C 0.36616 0.15337 0.1802 0.0
C19 C 0.28144 0.16063 0.11434 0.0
O20 O 0.42733 0.24856 0.12103 0.0
O21 O 0.42458 0.243 0.06485 0.0
O22 O 0.36123 0.11491 0.07928 0.0
O23 O 0.34074 0.14999 0.04785 0.0
O24 O 0.43878 0.17668 0.10946 0.0
O25 O 0.3983 0.09804 0.12004 0.0
O26 O 0.27966 0.03457 0.10205 0.0
O27 O 0.28276 0.03614 0.15819 0.0
O28 O 0.34996 0.16152 0.15174 0.0
O29 O 0.36267 0.11253 0.17729 0.0
O30 O 0.27673 0.11922 0.12154 0.0
O31 O 0.32204 0.19549 0.10511 0.0
H32 H 0.50653 0.30648 0.14742 0.0
H33 H 0.57788 0.38267 0.15122 0.0
H34 H 0.56971 0.4038 0.04164 0.0
H35 H 0.49835 0.32694 0.03749 0.0
H36 H 0.19843 0.98675 0.07604 0.0
H37 H 0.11534 0.93324 0.07365 0.0
H38 H 0.1155 0.90364 0.18325 0.0
H39 H 0.19889 0.9596 0.18568 0.0
Tb40 Tb 0.79472 0.70957 0.38149 0.0
Tb41 Tb 0.83205 0.65675 0.41312 0.0
C42 C 0.78228 0.77946 0.3791 0.0
C43 C 0.8084 0.832 0.37752 0.0
C44 C 0.82342 0.85845 0.40846 0.0
C45 C 0.83928 0.90638 0.40881 0.0
C46 C 0.84013 0.92962 0.37823 0.0
C47 C 0.82718 0.9043 0.34684 0.0
C48 C 0.81179 0.85605 0.34645 0.0
C49 C 0.81627 0.67129 0.33028 0.0
C50 C 0.90734 0.75643 0.39647 0.0
C51 C 0.85299 0.59214 0.41832 0.0
C52 C 0.84197 0.54154 0.41725 0.0
C53 C 0.836 0.5185 0.38504 0.0
C54 C 0.83934 0.47766 0.38217 0.0
C55 C 0.84854 0.45777 0.41134 0.0
C56 C 0.84936 0.47773 0.44413 0.0
C57 C 0.84671 0.51916 0.44696 0.0
C58 C 0.798 0.69822 0.45936 0.0
C59 C 0.72653 0.59873 0.39574 0.0
O60 O 0.78757 0.76089 0.40731 0.0
O61 O 0.77919 0.75452 0.35169 0.0
O62 O 0.83995 0.68691 0.35915 0.0
O63 O 0.78022 0.67731 0.33135 0.0
O64 O 0.87142 0.75999 0.38475 0.0
O65 O 0.90077 0.71704 0.40975 0.0
O66 O 0.84915 0.6105 0.38932 0.0
O67 O 0.84575 0.61177 0.44554 0.0
O68 O 0.78194 0.67774 0.43053 0.0
O69 O 0.83401 0.69242 0.46458 0.0
O70 O 0.76463 0.59855 0.40355 0.0
O71 O 0.72781 0.63933 0.38849 0.0
H72 H 0.8204 0.84207 0.43304 0.0
H73 H 0.84859 0.92483 0.4334 0.0
H74 H 0.82743 0.9215 0.32282 0.0
H75 H 0.8002 0.8372 0.32213 0.0
H76 H 0.83167 0.53367 0.36138 0.0
H77 H 0.83654 0.46273 0.35662 0.0
H78 H 0.85551 0.46341 0.46752 0.0
H79 H 0.85131 0.53524 0.47226 0.0
Tb80 Tb 0.85067 0.20389 0.09585 0.0
Tb81 Tb 0.94259 0.24134 0.13121 0.0
C82 C 0.76553 0.1838 0.09137 0.0
C83 C 0.72613 0.19488 0.09195 0.0
C84 C 0.70909 0.20183 0.12378 0.0
C85 C 0.66504 0.19888 0.12609 0.0
C86 C 0.63582 0.18865 0.09667 0.0
C87 C 0.65508 0.18645 0.06429 0.0
C88 C 0.69917 0.18915 0.06204 0.0
C89 C 0.929 0.24029 0.05264 0.0
C90 C 0.89912 0.3096 0.11303 0.0
C91 C 0.03012 0.24726 0.12423 0.0
C92 C 0.05999 0.22572 0.12885 0.0
C93 C 0.07155 0.20954 0.09865 0.0
C94 C 0.1044 0.19478 0.09948 0.0
C95 C 0.12708 0.19607 0.13052 0.0
C96 C 0.11456 0.21049 0.16125 0.0
C97 C 0.08098 0.22501 0.16049 0.0
C98 C 0.88579 0.21145 0.18385 0.0
C99 C 0.87476 0.12916 0.11671 0.0
O100 O 0.78811 0.18847 0.12035 0.0
O101 O 0.7918 0.18999 0.06394 0.0
O102 O 0.92305 0.2532 0.08236 0.0
O103 O 0.88691 0.20645 0.04461 0.0
O104 O 0.86391 0.27309 0.09907 0.0
O105 O 0.93621 0.30743 0.1264 0.0
O106 O 0.98503 0.2239 0.1035 0.0
O107 O 1.01257 0.26964 0.14927 0.0
O108 O 0.87283 0.20866 0.15133 0.0
O109 O 0.93107 0.2342 0.18588 0.0
O110 O 0.91258 0.16426 0.13084 0.0
O111 O 0.84416 0.13605 0.09992 0.0
H112 H 0.7284 0.20648 0.1476 0.0
H113 H 0.65287 0.20136 0.15167 0.0
H114 H 0.63544 0.18076 0.04054 0.0
H115 H 0.7109 0.18401 0.03699 0.0
H116 H 0.05642 0.21002 0.07375 0.0
H117 H 0.11356 0.18414 0.07546 0.0
H118 H 0.13161 0.21162 0.18556 0.0
H119 H 0.07284 0.23721 0.18417 0.0
Tb120 Tb 0.32913 0.09574 0.3829 0.0
Tb121 Tb 0.37825 0.18461 0.41387 0.0
C122 C 0.25855 1.00299 0.38063 0.0
C123 C 0.20598 0.97732 0.38029 0.0
C124 C 0.18109 0.96513 0.41198 0.0
C125 C 0.13317 0.93252 0.41308 0.0
C126 C 0.1082 0.9114 0.38254 0.0
C127 C 0.13195 0.92606 0.35051 0.0
C128 C 0.18038 0.9584 0.34942 0.0
C129 C 0.36614 0.15424 0.33091 0.0
C130 C 0.27999 0.16015 0.39685 0.0
C131 C 0.44357 0.27 0.41795 0.0
C132 C 0.49411 0.31026 0.41794 0.0
C133 C 0.51871 0.3275 0.38629 0.0
C134 C 0.55985 0.37164 0.3841 0.0
C135 C 0.57857 0.40109 0.41344 0.0
C136 C 0.55654 0.38171 0.44572 0.0
C137 C 0.51507 0.33747 0.44786 0.0
C138 C 0.33718 0.10885 0.45972 0.0
C139 C 0.43961 0.14012 0.39796 0.0
O140 O 0.2796 0.036 0.40906 0.0
O141 O 0.28328 0.03614 0.35301 0.0
O142 O 0.34967 0.16225 0.35943 0.0
O143 O 0.36342 0.11368 0.33362 0.0
O144 O 0.27748 0.12097 0.38548 0.0
O145 O 0.3188 0.19341 0.41018 0.0
O146 O 0.42741 0.24609 0.38924 0.0
O147 O 0.42151 0.24495 0.44547 0.0
O148 O 0.36007 0.11476 0.43199 0.0
O149 O 0.33877 0.149 0.46387 0.0
O150 O 0.4365 0.17543 0.40899 0.0
O151 O 0.40057 0.10084 0.38804 0.0
H152 H 0.19911 0.97871 0.43639 0.0
H153 H 0.11586 0.92257 0.43812 0.0
H154 H 0.11369 0.91056 0.32648 0.0
H155 H 0.19816 0.96674 0.32456 0.0
H156 H 0.50454 0.30814 0.36243 0.0
H157 H 0.57485 0.38366 0.35859 0.0
H158 H 0.57016 0.40137 0.46949 0.0
H159 H 0.49802 0.32576 0.47284 0.0
Tb160 Tb 0.83306 0.65758 0.09759 0.0
Tb161 Tb 0.79381 0.70755 0.12946 0.0
C162 C 0.8546 0.59341 0.09166 0.0
C163 C 0.84323 0.54263 0.09292 0.0
C164 C 0.83621 0.5191 0.12502 0.0
C165 C 0.83918 0.47799 0.12796 0.0
C166 C 0.84963 0.45847 0.09901 0.0
C167 C 0.85153 0.47919 0.06627 0.0
C168 C 0.84874 0.52053 0.06338 0.0
C169 C 0.7975 0.69838 0.05235 0.0
C170 C 0.72744 0.59705 0.11526 0.0
C171 C 0.78178 0.77754 0.13013 0.0
C172 C 0.80836 0.82995 0.13101 0.0
C173 C 0.8233 0.85522 0.09958 0.0
C174 C 0.83844 0.90304 0.09842 0.0
C175 C 0.83939 0.92753 0.12861 0.0
C176 C 0.82806 0.90323 0.16055 0.0
C177 C 0.81248 0.85498 0.16169 0.0
C178 C 0.81597 0.66995 0.18055 0.0
C179 C 0.90685 0.75648 0.11443 0.0
O180 O 0.85243 0.61258 0.12078 0.0
O181 O 0.84569 0.61226 0.06475 0.0
O182 O 0.78119 0.67607 0.08043 0.0
O183 O 0.83583 0.69646 0.04763 0.0
O184 O 0.76628 0.59883 0.10666 0.0
O185 O 0.7273 0.63683 0.12292 0.0
O186 O 0.78735 0.75847 0.10224 0.0
O187 O 0.77796 0.75305 0.15804 0.0
O188 O 0.84 0.68638 0.15186 0.0
O189 O 0.7792 0.67485 0.1794 0.0
O190 O 0.87072 0.75831 0.12784 0.0
O191 O 0.90113 0.71841 0.09949 0.0
H192 H 0.83108 0.53395 0.14856 0.0
H193 H 0.83489 0.46259 0.15347 0.0
H194 H 0.85868 0.46571 0.04287 0.0
H195 H 0.85408 0.53693 0.03813 0.0
H196 H 0.82097 0.83761 0.07529 0.0
H197 H 0.84816 0.92057 0.07348 0.0
H198 H 0.82856 0.92081 0.18443 0.0
H199 H 0.8013 0.83686 0.18634 0.0
Tb200 Tb 0.94373 0.24304 0.3812 0.0
Tb201 Tb 0.85136 0.20327 0.41546 0.0
C202 C 0.03486 0.25593 0.38533 0.0
C203 C 0.06104 0.22993 0.38225 0.0
C204 C 0.07265 0.21525 0.41318 0.0
C205 C 0.10444 0.19914 0.4132 0.0
C206 C 0.12547 0.19654 0.38226 0.0
C207 C 0.11129 0.20743 0.35071 0.0
C208 C 0.0795 0.22432 0.3507 0.0
C209 C 0.887 0.21134 0.3281 0.0
C210 C 0.87656 0.13017 0.39428 0.0
C211 C 0.76719 0.18596 0.41876 0.0
C212 C 0.72685 0.19563 0.4186 0.0
C213 C 0.70986 0.20266 0.38668 0.0
C214 C 0.66548 0.1989 0.38425 0.0
C215 C 0.63639 0.18785 0.41356 0.0
C216 C 0.65496 0.18549 0.44601 0.0
C217 C 0.69945 0.18908 0.44848 0.0
C218 C 0.92926 0.23775 0.45867 0.0
C219 C 0.89872 0.30932 0.39944 0.0
O220 O 0.99544 0.24179 0.41074 0.0
O221 O 1.01053 0.26814 0.35778 0.0
O222 O 0.87389 0.20839 0.36046 0.0
O223 O 0.93216 0.23459 0.32634 0.0
O224 O 0.91768 0.16661 0.3859 0.0
O225 O 0.84237 0.13556 0.40614 0.0
O226 O 0.79217 0.19552 0.39041 0.0
O227 O 0.79052 0.18606 0.44658 0.0
O228 O 0.92282 0.25313 0.43025 0.0
O229 O 0.88837 0.20066 0.46492 0.0
O230 O 0.86622 0.273 0.41565 0.0
O231 O 0.93495 0.30775 0.38394 0.0
H232 H 0.05919 0.21876 0.43803 0.0
H233 H 0.11403 0.19037 0.43783 0.0
H234 H 0.12681 0.20552 0.32639 0.0
H235 H 0.07119 0.23499 0.32638 0.0
H236 H 0.72954 0.20809 0.36292 0.0
H237 H 0.65278 0.20196 0.35898 0.0
H238 H 0.6339 0.17812 0.46927 0.0
H239 H 0.71106 0.18381 0.47352 0.0
Tb240 Tb 0.10429 0.31884 0.6255 0.0
Tb241 Tb 0.1937 0.36883 0.59263 0.0
C242 C 1.01244 0.24945 0.6299 0.0
C243 C 0.98646 0.19673 0.63032 0.0
C244 C 0.97761 0.17126 0.5992 0.0
C245 C 0.94544 0.12353 0.59743 0.0
C246 C 0.92001 0.09886 0.62687 0.0
C247 C 0.93117 0.12308 0.65889 0.0
C248 C 0.96388 0.17139 0.66053 0.0
C249 C 0.16529 0.35682 0.67584 0.0
C250 C 0.1682 0.26994 0.61014 0.0
C251 C 0.27839 0.43525 0.59065 0.0
C252 C 0.31873 0.48542 0.59013 0.0
C253 C 0.33522 0.51049 0.62156 0.0
C254 C 0.3791 0.55169 0.6238 0.0
C255 C 0.40937 0.56984 0.59479 0.0
C256 C 0.39045 0.54721 0.5625 0.0
C257 C 0.3463 0.5058 0.56032 0.0
C258 C 0.11825 0.32736 0.54696 0.0
C259 C 0.14783 0.42924 0.60751 0.0
O260 O 0.0426 0.26984 0.60101 0.0
O261 O 0.04625 0.27288 0.65694 0.0
O262 O 0.17201 0.34005 0.64701 0.0
O263 O 0.1239 0.35253 0.67506 0.0
O264 O 0.12918 0.26737 0.62191 0.0
O265 O 0.20177 0.30857 0.59664 0.0
O266 O 0.25185 0.42117 0.61836 0.0
O267 O 0.25639 0.41077 0.56289 0.0
O268 O 0.12277 0.34832 0.57563 0.0
O269 O 0.15999 0.333 0.54143 0.0
O270 O 0.18175 0.42577 0.59359 0.0
O271 O 0.11072 0.39105 0.62133 0.0
H272 H 0.99332 0.1882 0.57541 0.0
H273 H 0.93963 0.10633 0.57248 0.0
H274 H 0.91276 0.10546 0.68238 0.0
H275 H 0.96946 0.18936 0.68513 0.0
H276 H 0.3152 0.49692 0.64527 0.0
H277 H 0.38924 0.56803 0.649 0.0
H278 H 0.41051 0.55914 0.53879 0.0
H279 H 0.33507 0.48824 0.53548 0.0
Tb280 Tb 0.21361 0.84326 0.90911 0.0
Tb281 Tb 0.25173 0.93232 0.87785 0.0
C282 C 0.19167 0.75755 0.91574 0.0
C283 C 0.2032 0.71824 0.91408 0.0
C284 C 0.20812 0.70087 0.88164 0.0
C285 C 0.2048 0.6567 0.87862 0.0
C286 C 0.197 0.62813 0.90787 0.0
C287 C 0.19743 0.64752 0.94076 0.0
C288 C 0.1998 0.69149 0.94376 0.0
C289 C 0.24832 0.91909 0.95483 0.0
C290 C 0.31891 0.8892 0.89184 0.0
C291 C 0.2645 0.02446 0.87897 0.0
C292 C 0.23865 0.05083 0.87729 0.0
C293 C 0.22543 0.06321 0.90856 0.0
C294 C 0.20978 0.0954 0.90903 0.0
C295 C 0.20612 0.11626 0.87815 0.0
C296 C 0.21678 0.10178 0.84651 0.0
C297 C 0.23305 0.06967 0.84611 0.0
C298 C 0.22967 0.87388 0.82581 0.0
C299 C 0.13915 0.86769 0.89189 0.0
O300 O 0.19227 0.77813 0.88659 0.0
O301 O 0.20228 0.78609 0.94231 0.0
O302 O 0.26494 0.91346 0.92674 0.0
O303 O 0.20994 0.87888 0.95912 0.0
O304 O 0.28066 0.85124 0.89973 0.0
O305 O 0.31815 0.92864 0.88454 0.0
O306 O 0.25408 0.98703 0.90598 0.0
O307 O 0.27038 0.99553 0.85099 0.0
O308 O 0.20614 0.86527 0.85489 0.0
O309 O 0.26607 0.9157 0.82733 0.0
O310 O 0.17488 0.90558 0.87829 0.0
O311 O 0.14538 0.83592 0.90731 0.0
H312 H 0.21138 0.72002 0.85799 0.0
H313 H 0.20627 0.64397 0.85297 0.0
H314 H 0.19249 0.62724 0.9641 0.0
H315 H 0.19605 0.70319 0.96924 0.0
H316 H 0.22971 0.05005 0.93324 0.0
H317 H 0.20313 0.10559 0.93416 0.0
H318 H 0.21341 0.11576 0.82194 0.0
H319 H 0.24288 0.061 0.82154 0.0
Tb320 Tb 0.71927 0.78484 0.62504 0.0
Tb321 Tb 0.6646 0.82282 0.59128 0.0
C322 C 0.78893 0.77367 0.61897 0.0
C323 C 0.84085 0.7984 0.62289 0.0
C324 C 0.86774 0.81266 0.59224 0.0
C325 C 0.9155 0.82822 0.59281 0.0
C326 C 0.93831 0.83073 0.6241 0.0
C327 C 0.91258 0.81993 0.65536 0.0
C328 C 0.864 0.80355 0.65477 0.0
C329 C 0.69261 0.81405 0.67882 0.0
C330 C 0.76378 0.89713 0.61139 0.0
C331 C 0.59948 0.84283 0.58628 0.0
C332 C 0.54898 0.83189 0.58716 0.0
C333 C 0.52494 0.82455 0.61906 0.0
C334 C 0.48379 0.82749 0.62157 0.0
C335 C 0.46505 0.83838 0.59235 0.0
C336 C 0.48658 0.84115 0.55992 0.0
C337 C 0.5278 0.83816 0.55742 0.0
C338 C 0.70784 0.78817 0.54778 0.0
C339 C 0.60773 0.71709 0.60868 0.0
O340 O 0.77426 0.79137 0.59506 0.0
O341 O 0.76063 0.75799 0.64603 0.0
O342 O 0.68226 0.81729 0.64644 0.0
O343 O 0.71644 0.7926 0.67977 0.0
O344 O 0.76759 0.86161 0.62339 0.0
O345 O 0.72536 0.89083 0.59644 0.0
O346 O 0.61812 0.83955 0.61536 0.0
O347 O 0.61891 0.83533 0.55902 0.0
O348 O 0.68677 0.77336 0.57651 0.0
O349 O 0.70349 0.82487 0.54142 0.0
O350 O 0.60873 0.75314 0.59407 0.0
O351 O 0.64692 0.71937 0.62197 0.0
H352 H 0.85131 0.80931 0.5672 0.0
H353 H 0.93443 0.83667 0.5684 0.0
H354 H 0.92943 0.82167 0.6799 0.0
H355 H 0.84445 0.79311 0.67888 0.0
H356 H 0.53953 0.81946 0.64275 0.0
H357 H 0.46877 0.8245 0.6471 0.0
H358 H 0.47274 0.84759 0.53639 0.0
H359 H 0.54468 0.84366 0.53234 0.0
Tb360 Tb 0.19363 0.3691 0.90919 0.0
Tb361 Tb 0.1059 0.31956 0.8757 0.0
C362 C 0.27826 0.43538 0.91161 0.0
C363 C 0.31861 0.4855 0.9122 0.0
C364 C 0.3352 0.51062 0.88075 0.0
C365 C 0.37923 0.55163 0.87849 0.0
C366 C 0.40926 0.5695 0.90752 0.0
C367 C 0.39037 0.54703 0.93983 0.0
C368 C 0.34614 0.50573 0.94204 0.0
C369 C 0.11657 0.33 0.9539 0.0
C370 C 0.14936 0.43035 0.89413 0.0
C371 C 1.0163 0.24771 0.8776 0.0
C372 C 0.98859 0.19563 0.87524 0.0
C373 C 0.98053 0.1695 0.90599 0.0
C374 C 0.94779 0.12193 0.90719 0.0
C375 C 0.92067 0.09835 0.87789 0.0
C376 C 0.93102 0.12387 0.84636 0.0
C377 C 0.96449 0.17189 0.8451 0.0
C378 C 0.16558 0.35611 0.82504 0.0
C379 C 0.17008 0.27109 0.89086 0.0
O380 O 0.25197 0.42156 0.88381 0.0
O381 O 0.25606 0.41069 0.93928 0.0
O382 O 0.12249 0.3501 0.92475 0.0
O383 O 0.15797 0.33537 0.96062 0.0
O384 O 0.18351 0.42682 0.90726 0.0
O385 O 0.11159 0.3917 0.88133 0.0
O386 O 0.05612 0.26303 0.90264 0.0
O387 O 0.04059 0.27528 0.85023 0.0
O388 O 0.1735 0.34085 0.85428 0.0
O389 O 0.12327 0.34957 0.82521 0.0
O390 O 0.13308 0.26982 0.87629 0.0
O391 O 0.20171 0.30864 0.90678 0.0
H392 H 0.31521 0.49717 0.85704 0.0
H393 H 0.38993 0.56828 0.85336 0.0
H394 H 0.41081 0.559 0.96339 0.0
H395 H 0.33486 0.48809 0.96686 0.0
H396 H 0.99827 0.18618 0.92994 0.0
H397 H 0.94365 0.10415 0.93164 0.0
H398 H 0.91161 0.10781 0.8229 0.0
H399 H 0.96966 0.1908 0.821 0.0
Tb400 Tb 0.25127 0.93173 0.6245 0.0
Tb401 Tb 0.21297 0.84238 0.59337 0.0
C402 C 0.26574 0.02453 0.6273 0.0
C403 C 0.23891 0.05006 0.62708 0.0
C404 C 0.22649 0.0617 0.59525 0.0
C405 C 0.21051 0.09361 0.59355 0.0
C406 C 0.20545 0.11513 0.62375 0.0
C407 C 0.21485 0.10061 0.65601 0.0
C408 C 0.23165 0.06897 0.65756 0.0
C409 C 0.22947 0.87216 0.67602 0.0
C410 C 0.13847 0.86717 0.60979 0.0
C411 C 0.19132 0.75682 0.58654 0.0
C412 C 0.20284 0.71756 0.58825 0.0
C413 C 0.20856 0.70065 0.62063 0.0
C414 C 0.20545 0.65656 0.62373 0.0
C415 C 0.19671 0.62742 0.59463 0.0
C416 C 0.19618 0.64646 0.56174 0.0
C417 C 0.19864 0.69041 0.55869 0.0
C418 C 0.24704 0.91849 0.54778 0.0
C419 C 0.3182 0.88839 0.61116 0.0
O420 O 0.26305 0.99208 0.59875 0.0
O421 O 0.26429 0.99069 0.6549 0.0
O422 O 0.2056 0.86456 0.64735 0.0
O423 O 0.26667 0.91331 0.67412 0.0
O424 O 0.17482 0.90695 0.62047 0.0
O425 O 0.1445 0.83372 0.59729 0.0
O426 O 0.19173 0.77723 0.61571 0.0
O427 O 0.20204 0.78547 0.56001 0.0
O428 O 0.26393 0.91269 0.57556 0.0
O429 O 0.20885 0.87812 0.5435 0.0
O430 O 0.27954 0.8502 0.60448 0.0
O431 O 0.31779 0.92826 0.61739 0.0
H432 H 0.23161 0.04818 0.57103 0.0
H433 H 0.20458 0.10232 0.5678 0.0
H434 H 0.21035 0.11393 0.68043 0.0
H435 H 0.24065 0.06073 0.68262 0.0
H436 H 0.21251 0.7202 0.6442 0.0
H437 H 0.208 0.6445 0.64937 0.0
H438 H 0.19039 0.62596 0.53841 0.0
H439 H 0.19423 0.70176 0.53327 0.0
Tb440 Tb 0.66486 0.82273 0.9118 0.0
Tb441 Tb 0.71894 0.7843 0.87795 0.0
C442 C 0.59986 0.84294 0.9164 0.0
C443 C 0.54932 0.83168 0.91527 0.0
C444 C 0.52613 0.82537 0.8832 0.0
C445 C 0.48501 0.82822 0.88051 0.0
C446 C 0.46486 0.83754 0.90978 0.0
C447 C 0.48561 0.83884 0.94239 0.0
C448 C 0.52717 0.8365 0.94498 0.0
C449 C 0.70883 0.7897 0.95581 0.0
C450 C 0.60765 0.71694 0.8947 0.0
C451 C 0.78818 0.77196 0.88223 0.0
C452 C 0.84025 0.79778 0.87837 0.0
C453 C 0.86751 0.81727 0.90832 0.0
C454 C 0.91536 0.83377 0.90836 0.0
C455 C 0.93825 0.8305 0.87858 0.0
C456 C 0.91187 0.81463 0.84751 0.0
C457 C 0.86335 0.79847 0.84742 0.0
C458 C 0.69228 0.81359 0.82421 0.0
C459 C 0.76395 0.89648 0.89162 0.0
O460 O 0.6187 0.83956 0.88744 0.0
O461 O 0.61904 0.83545 0.94378 0.0
O462 O 0.68761 0.77372 0.92718 0.0
O463 O 0.70352 0.82589 0.96179 0.0
O464 O 0.60923 0.75306 0.90964 0.0
O465 O 0.64646 0.71905 0.88078 0.0
O466 O 0.77266 0.7872 0.90728 0.0
O467 O 0.76028 0.75842 0.85502 0.0
O468 O 0.68214 0.81697 0.85661 0.0
O469 O 0.71584 0.79193 0.82322 0.0
O470 O 0.76787 0.86089 0.87998 0.0
O471 O 0.72551 0.89053 0.90626 0.0
H472 H 0.54144 0.82131 0.85949 0.0
H473 H 0.4714 0.82611 0.85466 0.0
H474 H 0.47113 0.84344 0.96625 0.0
H475 H 0.54336 0.84106 0.97024 0.0
H476 H 0.85171 0.81813 0.93262 0.0
H477 H 0.93398 0.84831 0.9324 0.0
H478 H 0.92778 0.81197 0.82367 0.0
H479 H 0.84366 0.78416 0.8237 0.0
C480 C 0.21243 0.22216 0.13316 0.0
C481 C 0.16608 0.1858 0.12951 0.0
H482 H 0.28513 0.24291 0.13054 0.0
C483 C 0.15778 0.14089 0.12113 0.0
H484 H 0.21976 0.25722 0.13904 0.0
C485 C 0.19514 0.13239 0.11685 0.0
C486 C 0.24158 0.169 0.11959 0.0
H487 H 0.12234 0.11244 0.11767 0.0
H488 H 0.18768 0.0974 0.11051 0.0
C489 C 0.24977 0.21398 0.12791 0.0
C490 C 1.01286 0.8712 0.36612 0.0
C491 C 0.05891 0.87167 0.38496 0.0
H492 H 0.93902 0.83514 0.35546 0.0
C493 C 0.04837 0.83377 0.40708 0.0
H494 H 0.02907 0.89983 0.34887 0.0
C495 C 0.99323 0.79649 0.41045 0.0
C496 C 0.95613 0.79638 0.39242 0.0
H497 H 0.07589 0.83278 0.4217 0.0
H498 H 0.98681 0.76797 0.42767 0.0
C499 C 0.96656 0.83421 0.37008 0.0
C500 C 0.88513 0.06751 0.14804 0.0
C501 C 0.86648 0.08055 0.1201 0.0
H502 H 0.89031 1.0022 0.17304 0.0
C503 C 0.83959 0.0465 0.09522 0.0
H504 H 0.90588 0.09281 0.16777 0.0
C505 C 0.83085 0.99046 0.09793 0.0
C506 C 0.84903 0.977 0.12597 0.0
H507 H 0.82475 0.0552 0.07333 0.0
H508 H 0.80964 0.96538 0.07824 0.0
C509 C 0.87659 0.02143 0.15117 0.0
C510 C 0.20277 0.14169 0.36949 0.0
C511 C 0.23989 0.16847 0.3925 0.0
H512 H 0.13768 0.12999 0.34752 0.0
C513 C 0.23936 0.20494 0.4109 0.0
H514 H 0.20233 0.11364 0.35463 0.0
C515 C 0.20241 0.21378 0.40712 0.0
C516 C 0.16521 0.18713 0.38429 0.0
H517 H 0.26733 0.2265 0.42869 0.0
H518 H 0.20302 0.24186 0.42207 0.0
C519 C 0.16596 0.15122 0.36518 0.0
C520 C 0.04056 0.84889 0.09282 0.0
C521 C 0.05772 0.87259 0.12474 0.0
H522 H 0.9739 0.79409 0.06482 0.0
C523 C 1.01748 0.8572 0.15342 0.0
H524 H 0.06278 0.85786 0.07014 0.0
C525 C 0.97129 0.82001 0.15008 0.0
C526 C 0.95492 0.79685 0.11813 0.0
H527 H 0.03766 0.87417 0.17844 0.0
H528 H 0.94852 0.80898 0.1726 0.0
C529 C 0.98548 0.81156 0.08969 0.0
C530 C 0.89687 0.02659 0.38467 0.0
C531 C 0.85004 0.97876 0.38019 0.0
H532 H 0.94105 0.10059 0.39202 0.0
C533 C 0.81292 0.98801 0.38053 0.0
H534 H 0.92602 0.02024 0.38509 0.0
C535 C 0.82232 0.04404 0.38539 0.0
C536 C 0.86815 0.08176 0.38947 0.0
H537 H 0.77726 0.95971 0.3777 0.0
H538 H 0.79276 0.04978 0.38567 0.0
C539 C 0.90539 0.07249 0.38876 0.0
C540 C 0.19661 0.18194 0.65 0.0
C541 C 0.19283 0.15352 0.62115 0.0
H542 H 0.19127 0.24032 0.66919 0.0
C543 C 0.1786 0.16391 0.58916 0.0
H544 H 0.20758 0.17691 0.67525 0.0
C545 C 0.17089 0.20167 0.58579 0.0
C546 C 0.17536 0.22955 0.61437 0.0
H547 H 0.17291 0.14332 0.56607 0.0
H548 H 0.16095 0.20886 0.56069 0.0
C549 C 0.18759 0.21906 0.64667 0.0
C550 C 0.06107 0.84486 0.91659 0.0
C551 C 0.09104 0.85945 0.8879 0.0
H552 H 0.98418 0.82349 0.93635 0.0
C553 C 0.07412 0.86458 0.85561 0.0
H554 H 0.07313 0.84024 0.94168 0.0
C555 C 0.02779 0.85527 0.85225 0.0
C556 C 0.98823 0.84111 0.88124 0.0
H557 H 0.09659 0.8753 0.83292 0.0
H558 H 1.00696 0.85996 0.82704 0.0
C559 C 1.00595 0.83599 0.91341 0.0
C560 C 0.8316 0.95929 0.6456 0.0
C561 C 0.80382 0.94559 0.6154 0.0
H562 H 0.8902 0.02506 0.67323 0.0
C563 C 0.81425 0.97888 0.58917 0.0
H564 H 0.82425 0.93445 0.66639 0.0
C565 C 0.85275 0.03501 0.59283 0.0
C566 C 0.88055 0.04927 0.62318 0.0
H567 H 0.79356 0.96948 0.56561 0.0
H568 H 0.85901 0.05951 0.57203 0.0
C569 C 0.86864 1.00542 0.64961 0.0
C570 C 0.15944 0.19475 0.91095 0.0
C571 C 0.17759 0.23091 0.88653 0.0
H572 H 0.15169 0.12953 0.92678 0.0
C573 C 0.20272 0.22825 0.85802 0.0
H574 H 0.13931 0.19577 0.93286 0.0
C575 C 0.21085 0.19057 0.85462 0.0
C576 C 0.19383 0.15449 0.87967 0.0
H577 H 0.21674 0.25574 0.83866 0.0
H578 H 0.23192 0.19086 0.83298 0.0
C579 C 0.16709 0.15691 0.90748 0.0
C580 C 0.05226 0.81909 0.59878 0.0
C581 C 0.08987 0.85849 0.61423 0.0
H582 H 0.96915 0.77995 0.58986 0.0
C583 C 0.08008 0.88811 0.63454 0.0
H584 H 0.05819 0.79526 0.58318 0.0
C585 C 0.03378 0.87865 0.63892 0.0
C586 C 0.98727 0.83977 0.62268 0.0
H587 H 0.10812 0.9185 0.64712 0.0
H588 H 0.02718 0.90221 0.65428 0.0
C589 C 0.99715 0.81018 0.60267 0.0
C590 C 0.86192 1.00821 0.85193 0.0
C591 C 0.88084 0.0485 0.88107 0.0
H592 H 0.81223 0.94001 0.83256 0.0
C593 C 0.85932 0.03029 0.91363 0.0
H594 H 0.87804 0.03022 0.82639 0.0
C595 C 0.82089 0.9741 0.91688 0.0
C596 C 0.804 0.94465 0.88792 0.0
H597 H 0.86994 0.05153 0.93683 0.0
H598 H 0.80514 0.96168 0.94221 0.0
C599 C 0.82492 0.96202 0.85542 0.0
C600 C 0.39474 0.20285 0.27408 0.0
C601 C 0.3587 0.16618 0.29365 0.0
H602 H 0.42522 0.22923 0.22323 0.0
C603 C 0.32094 0.13167 0.27407 0.0
H604 H 0.42515 0.22965 0.28749 0.0
C605 C 0.32102 0.13138 0.23715 0.0
C606 C 0.35884 0.1656 0.21741 0.0
H607 H 0.29282 0.1021 0.28741 0.0
H608 H 0.29292 0.10164 0.22398 0.0
C609 C 0.39479 0.20259 0.23678 0.0
C610 C 0.81429 0.62959 0.2742 0.0
C611 C 0.835 0.67144 0.29363 0.0
H612 H 0.7937 0.59607 0.22407 0.0
C613 C 0.8591 0.71316 0.27382 0.0
H614 H 0.79403 0.59668 0.28768 0.0
C615 C 0.85901 0.7128 0.23656 0.0
C616 C 0.83471 0.67071 0.21726 0.0
H617 H 0.87421 0.74648 0.28705 0.0
H618 H 0.87409 0.74585 0.22294 0.0
C619 C 0.8141 0.62923 0.23717 0.0
C620 C 0.84799 0.16144 0.23736 0.0
C621 C 0.85929 0.20217 0.21796 0.0
H622 H 0.84508 0.13097 0.28775 0.0
C623 C 0.86712 0.2415 0.23769 0.0
H624 H 0.84429 0.131 0.2239 0.0
C625 C 0.86764 0.24151 0.27459 0.0
C626 C 0.86035 0.20218 0.29406 0.0
H627 H 0.8786 0.27446 0.22454 0.0
H628 H 0.87939 0.27444 0.28783 0.0
C629 C 0.8485 0.16144 0.27452 0.0
C630 C 0.20674 0.39672 0.73206 0.0
C631 C 0.18327 0.35519 0.71236 0.0
H632 H 0.22175 0.42977 0.78248 0.0
C633 C 0.16334 0.31309 0.73182 0.0
H634 H 0.2212 0.43 0.71883 0.0
C635 C 0.16375 0.31296 0.76903 0.0
C636 C 0.18408 0.35491 0.78868 0.0
H637 H 0.14331 0.28012 0.71839 0.0
H638 H 0.14389 0.2799 0.7824 0.0
C639 C 0.20714 0.39659 0.7691 0.0
C640 C 0.21774 0.8267 0.76985 0.0
C641 C 0.20939 0.8583 0.78909 0.0
H642 H 0.229 0.80461 0.71951 0.0
C643 C 0.19675 0.88643 0.76919 0.0
H644 H 0.22882 0.80523 0.78347 0.0
C645 C 0.19669 0.88595 0.73212 0.0
C646 C 0.20941 0.85745 0.71285 0.0
H647 H 0.19123 0.91229 0.78229 0.0
H648 H 0.1911 0.91145 0.71852 0.0
C649 C 0.21784 0.82634 0.73268 0.0
C650 C 0.64966 0.77582 0.7331 0.0
C651 C 0.67179 0.81741 0.71341 0.0
H652 H 0.63654 0.74238 0.78281 0.0
C653 C 0.69046 0.85942 0.73291 0.0
H654 H 0.63675 0.74259 0.72 0.0
C655 C 0.69037 0.85931 0.77028 0.0
C656 C 0.67161 0.81717 0.78963 0.0
H657 H 0.70994 0.89249 0.71951 0.0
H658 H 0.7098 0.8923 0.78377 0.0
C659 C 0.64953 0.77571 0.76982 0.0
C660 C 0.24518 0.98726 0.98928 0.0
C661 C 0.27022 0.96472 0.97815 0.0
H662 H 0.24653 0.05632 0.02408 0.0
C663 C 0.31804 0.98846 0.98835 0.0
H664 H 0.20868 0.97184 0.98229 0.0
C665 C 0.34012 0.04111 0.01738 0.0
C666 C 0.3156 0.06438 0.02779 0.0
H667 H 0.33972 0.97391 0.98078 0.0
H668 H 0.37639 0.05599 0.02487 0.0
C669 C 0.26795 0.04134 0.01689 0.0
C670 C 0.79061 0.76957 0.48198 0.0
C671 C 0.77653 0.72142 0.48382 0.0
H672 H 0.78021 0.82732 0.49694 0.0
C673 C 0.74117 0.69651 0.50911 0.0
H674 H 0.82079 0.79146 0.46637 0.0
C675 C 0.72043 0.71805 0.52976 0.0
C676 C 0.73177 0.76549 0.5255 0.0
H677 H 0.72926 0.65986 0.51313 0.0
H678 H 0.69418 0.69672 0.54878 0.0
C679 C 0.76789 0.79055 0.5008 0.0
C680 C 1.01533 0.28947 0.96349 0.0
C681 C 0.07077 0.30781 0.97721 0.0
H682 H 0.94003 0.25081 0.97137 0.0
C683 C 0.07198 0.30627 0.02232 0.0
H684 H 1.01063 0.29421 0.93641 0.0
C685 C 0.03034 0.2881 0.0433 0.0
C686 C 0.97481 0.2642 0.02941 0.0
H687 H 0.1055 0.32173 0.03531 0.0
H688 H 0.03521 0.29462 0.0707 0.0
C689 C 0.97355 0.26565 0.9843 0.0
C690 C 0.26647 0.04047 0.49424 0.0
C691 C 0.31405 0.06343 0.48319 0.0
H692 H 0.20746 0.97127 0.52067 0.0
C693 C 0.3386 0.04015 0.49342 0.0
H694 H 0.24508 0.05553 0.4872 0.0
C695 C 0.31675 0.98772 0.51413 0.0
C696 C 0.26894 0.96405 0.52446 0.0
H697 H 0.37487 0.05505 0.48584 0.0
H698 H 0.3384 0.97311 0.5216 0.0
C699 C 0.24393 0.98664 0.51354 0.0
C700 C 0.80214 0.76555 0.01173 0.0
C701 C 0.77536 0.72224 0.02943 0.0
H702 H 0.80351 0.82162 0.9729 0.0
C703 C 0.72612 0.70307 0.02617 0.0
H704 H 0.83987 0.78316 0.01348 0.0
C705 C 0.70503 0.72398 0.9971 0.0
C706 C 0.7317 0.76739 0.97961 0.0
H707 H 0.70314 0.6705 0.03925 0.0
H708 H 0.66731 0.7062 0.99511 0.0
C709 C 0.78087 0.78779 0.98435 0.0
C710 C 0.06361 0.32941 0.49701 0.0
C711 C 0.07377 0.30461 0.52253 0.0
H712 H 1.00727 0.32902 0.45722 0.0
C713 C 0.03968 0.25666 0.52461 0.0
H714 H 0.08855 0.36596 0.49276 0.0
C715 C 0.98671 0.23556 0.50586 0.0
C716 C 0.9758 0.26049 0.48097 0.0
H717 H 0.04856 0.23521 0.54005 0.0
H718 H 0.96224 0.19883 0.50988 0.0
C719 C 1.01204 0.30783 0.47643 0.0
C720 C 0.54976 0.14618 0.07682 0.0
C721 C 0.5848 0.17647 0.10044 0.0
H722 H 0.47645 0.10874 0.0633 0.0
C723 C 0.56968 0.1926 0.12891 0.0
H724 H 0.55888 0.13323 0.05406 0.0
C725 C 0.52194 0.17702 0.13457 0.0
C726 C 0.48684 0.14392 0.1126 0.0
H727 H 0.59468 0.21786 0.14689 0.0
H728 H 0.51237 0.19174 0.15609 0.0
C729 C 0.5018 0.13059 0.08264 0.0
C730 C 0.6555 0.53542 0.42762 0.0
C731 C 0.68394 0.55061 0.39767 0.0
H732 H 0.60087 0.4784 0.45615 0.0
C733 C 0.68172 0.51534 0.37567 0.0
H734 H 0.65909 0.56066 0.4471 0.0
C735 C 0.6492 0.46753 0.38121 0.0
C736 C 0.61777 0.45228 0.40967 0.0
H737 H 0.70611 0.5248 0.35422 0.0
H738 H 0.64937 0.44256 0.36313 0.0
C739 C 0.62286 0.48745 0.43334 0.0
C740 C 0.8969 0.38072 0.13744 0.0
C741 C 0.89334 0.35206 0.10933 0.0
H742 H 0.88663 0.4359 0.15669 0.0
C743 C 0.87125 0.35605 0.07884 0.0
H744 H 0.91046 0.37686 0.16207 0.0
C745 C 0.85604 0.38889 0.07583 0.0
C746 C 0.86182 0.41957 0.10329 0.0
H747 H 0.86498 0.33289 0.05703 0.0
H748 H 0.8394 0.38977 0.05185 0.0
C749 C 0.88166 0.4139 0.13445 0.0
C750 C 0.50272 0.11543 0.40029 0.0
C751 C 0.48959 0.14975 0.39977 0.0
H752 H 0.55924 0.10066 0.40527 0.0
C753 C 0.52602 0.19704 0.40416 0.0
H754 H 0.47643 0.079 0.39756 0.0
C755 C 0.57294 0.2093 0.40892 0.0
C756 C 0.58587 0.17496 0.40956 0.0
H757 H 0.51859 0.22546 0.40393 0.0
H758 H 0.59917 0.24574 0.41204 0.0
C759 C 0.55024 0.12796 0.40506 0.0
C760 C 0.66088 0.46325 0.11511 0.0
C761 C 0.61698 0.45117 0.10112 0.0
H762 H 0.72848 0.51756 0.13089 0.0
C763 C 0.60878 0.48819 0.09273 0.0
H764 H 0.66903 0.43622 0.12155 0.0
C765 C 0.64277 0.53565 0.09899 0.0
C766 C 0.68635 0.54766 0.11363 0.0
H767 H 0.57549 0.48033 0.08167 0.0
H768 H 0.63537 0.56285 0.09147 0.0
C769 C 0.69489 0.51034 0.12078 0.0
C770 C 0.88818 0.41846 0.37908 0.0
C771 C 0.86057 0.41905 0.40722 0.0
H772 H 0.9234 0.38542 0.35451 0.0
C773 C 0.84646 0.38336 0.43203 0.0
H774 H 0.89959 0.44493 0.35907 0.0
C775 C 0.86075 0.34989 0.42956 0.0
C776 C 0.89031 0.35036 0.4023 0.0
H777 H 0.82428 0.3812 0.45355 0.0
H778 H 0.84835 0.32332 0.4496 0.0
C779 C 0.90289 0.38481 0.37668 0.0
C780 C 0.1566 0.54844 0.62672 0.0
C781 C 0.18481 0.5767 0.59886 0.0
H782 H 0.1212 0.48027 0.65124 0.0
C783 C 0.19962 0.55518 0.57442 0.0
H784 H 0.14459 0.5634 0.64641 0.0
C785 C 0.18568 0.5075 0.57711 0.0
C786 C 0.15565 0.47843 0.60411 0.0
H787 H 0.22219 0.57523 0.5531 0.0
H788 H 0.19874 0.49331 0.55754 0.0
C789 C 0.14214 0.50018 0.62925 0.0
C790 C 0.3688 0.85791 0.86906 0.0
C791 C 0.36127 0.88388 0.89462 0.0
H792 H 0.40397 0.82166 0.85341 0.0
C793 C 0.3827 0.88824 0.92714 0.0
H794 H 0.34912 0.84918 0.84502 0.0
C795 C 0.41471 0.87218 0.93249 0.0
C796 C 0.42575 0.84966 0.90575 0.0
H797 H 0.37416 0.90364 0.94878 0.0
H798 H 0.43121 0.87865 0.95766 0.0
C799 C 0.40038 0.84144 0.87431 0.0
C800 C 0.53127 0.65561 0.63522 0.0
C801 C 0.56003 0.67451 0.60592 0.0
H802 H 0.46364 0.60919 0.65559 0.0
C803 C 0.53761 0.66335 0.57316 0.0
H804 H 0.54597 0.66653 0.66097 0.0
C805 C 0.48939 0.63141 0.56959 0.0
C806 C 0.46067 0.60904 0.59876 0.0
H807 H 0.55752 0.6804 0.54997 0.0
H808 H 0.47514 0.625 0.54362 0.0
C809 C 0.48288 0.6233 0.63179 0.0
C810 C 0.20726 0.55877 0.92346 0.0
C811 C 0.18493 0.57752 0.90365 0.0
H812 H 0.21346 0.49965 0.93637 0.0
C813 C 0.14982 0.54696 0.88013 0.0
H814 H 0.23489 0.5808 0.94135 0.0
C815 C 0.13625 0.49892 0.87737 0.0
C816 C 0.15788 0.4799 0.89771 0.0
H817 H 0.13199 0.56013 0.86413 0.0
H818 H 0.10944 0.47706 0.85893 0.0
C819 C 0.19438 0.51143 0.92037 0.0
C820 C 0.35996 0.84603 0.6289 0.0
C821 C 0.36022 0.88216 0.60911 0.0
H822 H 0.39087 0.80358 0.63938 0.0
C823 C 0.39162 0.89957 0.58095 0.0
H824 H 0.33367 0.82864 0.64888 0.0
C825 C 0.42423 0.88432 0.57481 0.0
C826 C 0.42636 0.85065 0.59636 0.0
H827 H 0.39031 0.92427 0.56315 0.0
H828 H 0.44857 0.90004 0.55349 0.0
C829 C 0.39259 0.83104 0.62305 0.0
C830 C 0.53289 0.6512 0.86825 0.0
C831 C 0.55958 0.67465 0.89757 0.0
H832 H 0.46648 0.60046 0.8478 0.0
C833 C 0.53513 0.66693 0.9294 0.0
H834 H 0.54918 0.65874 0.84283 0.0
C835 C 0.48697 0.6347 0.9324 0.0
C836 C 0.46042 0.60844 0.90359 0.0
H837 H 0.55342 0.6868 0.95228 0.0
H838 H 0.47082 0.63098 0.95754 0.0
C839 C 0.48446 0.61852 0.8712 0.0
loop_
_geom_bond_atom_site_label_1
_geom_bond_atom_site_label_2
_geom_bond_distance
_geom_bond_site_symmetry_2
_ccdc_geom_bond_type
Tb0 C2 2.809 . S
Tb0 O20 2.484 . S
Tb0 O21 2.440 . S
Tb0 O22 2.658 . S
Tb0 O23 2.409 . S
Tb0 O24 2.378 . S
Tb0 O28 2.325 . S
Tb0 O31 2.341 . S
Tb1 C11 2.816 . S
Tb1 O22 2.325 . S
Tb1 O25 2.341 . S
Tb1 O26 2.484 . S
Tb1 O27 2.440 . S
Tb1 O28 2.658 . S
Tb1 O29 2.409 . S
Tb1 O30 2.378 . S
C2 Tb0 2.809 . S
C2 C3 1.514 . S
C2 O20 1.248 . S
C2 O21 1.266 . S
C3 C2 1.514 . S
C3 C4 1.359 . S
C3 C8 1.348 . S
C4 C3 1.359 . S
C4 C5 1.380 . S
C4 H32 0.929 . S
C5 C4 1.380 . S
C5 C6 1.347 . S
C5 H33 0.931 . S
C6 C5 1.347 . S
C6 C7 1.369 . S
C7 C6 1.369 . S
C7 C8 1.408 . S
C7 H34 0.930 . S
C8 C3 1.348 . S
C8 C7 1.408 . S
C8 H35 0.930 . S
C9 O22 1.281 . S
C9 O23 1.254 . S
C10 O24 1.236 . S
C10 O25 1.266 . S
C11 Tb1 2.816 . S
C11 C12 1.507 1_545 S
C11 O26 1.254 . S
C11 O27 1.267 . S
C12 C11 1.507 1_565 S
C12 C13 1.359 . S
C12 C17 1.348 . S
C13 C12 1.359 . S
C13 C14 1.380 . S
C13 H36 0.929 . S
C14 C13 1.380 . S
C14 C15 1.347 . S
C14 H37 0.931 . S
C15 C14 1.347 . S
C15 C16 1.369 . S
C16 C15 1.369 . S
C16 C17 1.408 . S
C16 H38 0.930 . S
C17 C12 1.348 . S
C17 C16 1.408 . S
C17 H39 0.930 . S
C18 O28 1.281 . S
C18 O29 1.254 . S
C19 O30 1.236 . S
C19 O31 1.266 . S
O20 Tb0 2.484 . S
O20 C2 1.248 . S
O21 Tb0 2.440 . S
O21 C2 1.266 . S
O22 Tb0 2.658 . S
O22 Tb1 2.325 . S
O22 C9 1.281 . S
O23 Tb0 2.409 . S
O23 C9 1.254 . S
O24 Tb0 2.378 . S
O24 C10 1.236 . S
O25 Tb1 2.341 . S
O25 C10 1.266 . S
O26 Tb1 2.484 . S
O26 C11 1.254 . S
O27 Tb1 2.440 . S
O27 C11 1.267 . S
O28 Tb0 2.325 . S
O28 Tb1 2.658 . S
O28 C18 1.281 . S
O29 Tb1 2.409 . S
O29 C18 1.254 . S
O30 Tb1 2.378 . S
O30 C19 1.236 . S
O31 Tb0 2.341 . S
O31 C19 1.266 . S
H32 C4 0.929 . S
H33 C5 0.931 . S
H34 C7 0.930 . S
H35 C8 0.930 . S
H36 C13 0.929 . S
H37 C14 0.931 . S
H38 C16 0.930 . S
H39 C17 0.930 . S
Tb40 C42 2.809 . S
Tb40 O60 2.484 . S
Tb40 O61 2.440 . S
Tb40 O62 2.658 . S
Tb40 O63 2.409 . S
Tb40 O64 2.378 . S
Tb40 O68 2.325 . S
Tb40 O71 2.341 . S
Tb41 C51 2.809 . S
Tb41 O62 2.325 . S
Tb41 O65 2.341 . S
Tb41 O66 2.484 . S
Tb41 O67 2.440 . S
Tb41 O68 2.658 . S
Tb41 O69 2.409 . S
Tb41 O70 2.378 . S
C42 Tb40 2.809 . S
C42 C43 1.514 . S
C42 O60 1.248 . S
C42 O61 1.266 . S
C43 C42 1.514 . S
C43 C44 1.359 . S
C43 C48 1.348 . S
C44 C43 1.359 . S
C44 C45 1.380 . S
C44 H72 0.929 . S
C45 C44 1.380 . S
C45 C46 1.347 . S
C45 H73 0.931 . S
C46 C45 1.347 . S
C46 C47 1.369 . S
C47 C46 1.369 . S
C47 C48 1.408 . S
C47 H74 0.930 . S
C48 C43 1.348 . S
C48 C47 1.408 . S
C48 H75 0.930 . S
C49 O62 1.281 . S
C49 O63 1.254 . S
C50 O64 1.236 . S
C50 O65 1.266 . S
C51 Tb41 2.809 . S
C51 C52 1.514 . S
C51 O66 1.248 . S
C51 O67 1.266 . S
C52 C51 1.514 . S
C52 C53 1.359 . S
C52 C57 1.348 . S
C53 C52 1.359 . S
C53 C54 1.380 . S
C53 H76 0.929 . S
C54 C53 1.380 . S
C54 C55 1.347 . S
C54 H77 0.931 . S
C55 C54 1.347 . S
C55 C56 1.369 . S
C56 C55 1.369 . S
C56 C57 1.408 . S
C56 H78 0.930 . S
C57 C52 1.348 . S
C57 C56 1.408 . S
C57 H79 0.930 . S
C58 O68 1.281 . S
C58 O69 1.254 . S
C59 O70 1.236 . S
C59 O71 1.266 . S
O60 Tb40 2.484 . S
O60 C42 1.248 . S
O61 Tb40 2.440 . S
O61 C42 1.266 . S
O62 Tb40 2.658 . S
O62 Tb41 2.325 . S
O62 C49 1.281 . S
O63 Tb40 2.409 . S
O63 C49 1.254 . S
O64 Tb40 2.378 . S
O64 C50 1.236 . S
O65 Tb41 2.341 . S
O65 C50 1.266 . S
O66 Tb41 2.484 . S
O66 C51 1.248 . S
O67 Tb41 2.440 . S
O67 C51 1.266 . S
O68 Tb40 2.325 . S
O68 Tb41 2.658 . S
O68 C58 1.281 . S
O69 Tb41 2.409 . S
O69 C58 1.254 . S
O70 Tb41 2.378 . S
O70 C59 1.236 . S
O71 Tb40 2.341 . S
O71 C59 1.266 . S
H72 C44 0.929 . S
H73 C45 0.931 . S
H74 C47 0.930 . S
H75 C48 0.930 . S
H76 C53 0.929 . S
H77 C54 0.931 . S
H78 C56 0.930 . S
H79 C57 0.930 . S
Tb80 C82 2.809 . S
Tb80 O100 2.484 . S
Tb80 O101 2.440 . S
Tb80 O102 2.658 . S
Tb80 O103 2.409 . S
Tb80 O104 2.378 . S
Tb80 O108 2.325 . S
Tb80 O111 2.341 . S
Tb81 C91 2.832 . S
Tb81 O102 2.325 . S
Tb81 O105 2.341 . S
Tb81 O106 2.484 . S
Tb81 O107 2.440 . S
Tb81 O108 2.658 . S
Tb81 O109 2.409 . S
Tb81 O110 2.378 . S
C82 Tb80 2.809 . S
C82 C83 1.514 . S
C82 O100 1.248 . S
C82 O101 1.266 . S
C83 C82 1.514 . S
C83 C84 1.359 . S
C83 C88 1.348 . S
C84 C83 1.359 . S
C84 C85 1.380 . S
C84 H112 0.929 . S
C85 C84 1.380 . S
C85 C86 1.347 . S
C85 H113 0.931 . S
C86 C85 1.347 . S
C86 C87 1.369 . S
C87 C86 1.369 . S
C87 C88 1.408 . S
C87 H114 0.930 . S
C88 C83 1.348 . S
C88 C87 1.408 . S
C88 H115 0.930 . S
C89 O102 1.281 . S
C89 O103 1.254 . S
C90 O104 1.236 . S
C90 O105 1.266 . S
C91 Tb81 2.832 . S
C91 C92 1.491 1_655 S
C91 O106 1.259 . S
C91 O107 1.277 . S
C92 C91 1.491 1_455 S
C92 C93 1.359 . S
C92 C97 1.348 . S
C93 C92 1.359 . S
C93 C94 1.380 . S
C93 H116 0.929 . S
C94 C93 1.380 . S
C94 C95 1.347 . S
C94 H117 0.931 . S
C95 C94 1.347 . S
C95 C96 1.369 . S
C96 C95 1.369 . S
C96 C97 1.408 . S
C96 H118 0.930 . S
C97 C92 1.348 . S
C97 C96 1.408 . S
C97 H119 0.930 . S
C98 O108 1.281 . S
C98 O109 1.254 . S
C99 O110 1.236 . S
C99 O111 1.266 . S
O100 Tb80 2.484 . S
O100 C82 1.248 . S
O101 Tb80 2.440 . S
O101 C82 1.266 . S
O102 Tb80 2.658 . S
O102 Tb81 2.325 . S
O102 C89 1.281 . S
O103 Tb80 2.409 . S
O103 C89 1.254 . S
O104 Tb80 2.378 . S
O104 C90 1.236 . S
O105 Tb81 2.341 . S
O105 C90 1.266 . S
O106 Tb81 2.484 . S
O106 C91 1.259 . S
O107 Tb81 2.440 . S
O107 C91 1.277 . S
O108 Tb80 2.325 . S
O108 Tb81 2.658 . S
O108 C98 1.281 . S
O109 Tb81 2.409 . S
O109 C98 1.254 . S
O110 Tb81 2.378 . S
O110 C99 1.236 . S
O111 Tb80 2.341 . S
O111 C99 1.266 . S
H112 C84 0.929 . S
H113 C85 0.931 . S
H114 C87 0.930 . S
H115 C88 0.930 . S
H116 C93 0.929 . S
H117 C94 0.931 . S
H118 C96 0.930 . S
H119 C97 0.930 . S
Tb120 C122 2.816 . S
Tb120 O140 2.484 . S
Tb120 O141 2.440 . S
Tb120 O142 2.658 . S
Tb120 O143 2.409 . S
Tb120 O144 2.378 . S
Tb120 O148 2.325 . S
Tb120 O151 2.341 . S
Tb121 C131 2.809 . S
Tb121 O142 2.325 . S
Tb121 O145 2.341 . S
Tb121 O146 2.484 . S
Tb121 O147 2.440 . S
Tb121 O148 2.658 . S
Tb121 O149 2.409 . S
Tb121 O150 2.378 . S
C122 Tb120 2.816 . S
C122 C123 1.507 1_545 S
C122 O140 1.254 . S
C122 O141 1.267 . S
C123 C122 1.507 1_565 S
C123 C124 1.359 . S
C123 C128 1.348 . S
C124 C123 1.359 . S
C124 C125 1.380 . S
C124 H152 0.929 . S
C125 C124 1.380 . S
C125 C126 1.347 . S
C125 H153 0.931 . S
C126 C125 1.347 . S
C126 C127 1.369 . S
C127 C126 1.369 . S
C127 C128 1.408 . S
C127 H154 0.930 . S
C128 C123 1.348 . S
C128 C127 1.408 . S
C128 H155 0.930 . S
C129 O142 1.281 . S
C129 O143 1.254 . S
C130 O144 1.236 . S
C130 O145 1.266 . S
C131 Tb121 2.809 . S
C131 C132 1.514 . S
C131 O146 1.248 . S
C131 O147 1.266 . S
C132 C131 1.514 . S
C132 C133 1.359 . S
C132 C137 1.348 . S
C133 C132 1.359 . S
C133 C134 1.380 . S
C133 H156 0.929 . S
C134 C133 1.380 . S
C134 C135 1.347 . S
C134 H157 0.931 . S
C135 C134 1.347 . S
C135 C136 1.369 . S
C136 C135 1.369 . S
C136 C137 1.408 . S
C136 H158 0.930 . S
C137 C132 1.348 . S
C137 C136 1.408 . S
C137 H159 0.930 . S
C138 O148 1.281 . S
C138 O149 1.254 . S
C139 O150 1.236 . S
C139 O151 1.266 . S
O140 Tb120 2.484 . S
O140 C122 1.254 . S
O141 Tb120 2.440 . S
O141 C122 1.267 . S
O142 Tb120 2.658 . S
O142 Tb121 2.325 . S
O142 C129 1.281 . S
O143 Tb120 2.409 . S
O143 C129 1.254 . S
O144 Tb120 2.378 . S
O144 C130 1.236 . S
O145 Tb121 2.341 . S
O145 C130 1.266 . S
O146 Tb121 2.484 . S
O146 C131 1.248 . S
O147 Tb121 2.440 . S
O147 C131 1.266 . S
O148 Tb120 2.325 . S
O148 Tb121 2.658 . S
O148 C138 1.281 . S
O149 Tb121 2.409 . S
O149 C138 1.254 . S
O150 Tb121 2.378 . S
O150 C139 1.236 . S
O151 Tb120 2.341 . S
O151 C139 1.266 . S
H152 C124 0.929 . S
H153 C125 0.931 . S
H154 C127 0.930 . S
H155 C128 0.930 . S
H156 C133 0.929 . S
H157 C134 0.931 . S
H158 C136 0.930 . S
H159 C137 0.930 . S
Tb160 C162 2.809 . S
Tb160 O180 2.484 . S
Tb160 O181 2.440 . S
Tb160 O182 2.658 . S
Tb160 O183 2.409 . S
Tb160 O184 2.378 . S
Tb160 O188 2.325 . S
Tb160 O191 2.341 . S
Tb161 C171 2.809 . S
Tb161 O182 2.325 . S
Tb161 O185 2.341 . S
Tb161 O186 2.484 . S
Tb161 O187 2.440 . S
Tb161 O188 2.658 . S
Tb161 O189 2.409 . S
Tb161 O190 2.378 . S
C162 Tb160 2.809 . S
C162 C163 1.514 . S
C162 O180 1.248 . S
C162 O181 1.266 . S
C163 C162 1.514 . S
C163 C164 1.359 . S
C163 C168 1.348 . S
C164 C163 1.359 . S
C164 C165 1.380 . S
C164 H192 0.929 . S
C165 C164 1.380 . S
C165 C166 1.347 . S
C165 H193 0.931 . S
C166 C165 1.347 . S
C166 C167 1.369 . S
C167 C166 1.369 . S
C167 C168 1.408 . S
C167 H194 0.930 . S
C168 C163 1.348 . S
C168 C167 1.408 . S
C168 H195 0.930 . S
C169 O182 1.281 . S
C169 O183 1.254 . S
C170 O184 1.236 . S
C170 O185 1.266 . S
C171 Tb161 2.809 . S
C171 C172 1.514 . S
C171 O186 1.248 . S
C171 O187 1.266 . S
C172 C171 1.514 . S
C172 C173 1.359 . S
C172 C177 1.348 . S
C173 C172 1.359 . S
C173 C174 1.380 . S
C173 H196 0.929 . S
C174 C173 1.380 . S
C174 C175 1.347 . S
C174 H197 0.931 . S
C175 C174 1.347 . S
C175 C176 1.369 . S
C176 C175 1.369 . S
C176 C177 1.408 . S
C176 H198 0.930 . S
C177 C172 1.348 . S
C177 C176 1.408 . S
C177 H199 0.930 . S
C178 O188 1.281 . S
C178 O189 1.254 . S
C179 O190 1.236 . S
C179 O191 1.266 . S
O180 Tb160 2.484 . S
O180 C162 1.248 . S
O181 Tb160 2.440 . S
O181 C162 1.266 . S
O182 Tb160 2.658 . S
O182 Tb161 2.325 . S
O182 C169 1.281 . S
O183 Tb160 2.409 . S
O183 C169 1.254 . S
O184 Tb160 2.378 . S
O184 C170 1.236 . S
O185 Tb161 2.341 . S
O185 C170 1.266 . S
O186 Tb161 2.484 . S
O186 C171 1.248 . S
O187 Tb161 2.440 . S
O187 C171 1.266 . S
O188 Tb160 2.325 . S
O188 Tb161 2.658 . S
O188 C178 1.281 . S
O189 Tb161 2.409 . S
O189 C178 1.254 . S
O190 Tb161 2.378 . S
O190 C179 1.236 . S
O191 Tb160 2.341 . S
O191 C179 1.266 . S
H192 C164 0.929 . S
H193 C165 0.931 . S
H194 C167 0.930 . S
H195 C168 0.930 . S
H196 C173 0.929 . S
H197 C174 0.931 . S
H198 C176 0.930 . S
H199 C177 0.930 . S
Tb200 C202 2.832 . S
Tb200 O220 2.484 . S
Tb200 O221 2.440 . S
Tb200 O222 2.658 . S
Tb200 O223 2.409 . S
Tb200 O224 2.378 . S
Tb200 O228 2.325 . S
Tb200 O231 2.341 . S
Tb201 C211 2.809 . S
Tb201 O222 2.325 . S
Tb201 O225 2.341 . S
Tb201 O226 2.484 . S
Tb201 O227 2.440 . S
Tb201 O228 2.658 . S
Tb201 O229 2.409 . S
Tb201 O230 2.378 . S
C202 Tb200 2.832 . S
C202 C203 1.491 1_655 S
C202 O220 1.259 . S
C202 O221 1.277 . S
C203 C202 1.491 1_455 S
C203 C204 1.359 . S
C203 C208 1.348 . S
C204 C203 1.359 . S
C204 C205 1.380 . S
C204 H232 0.929 . S
C205 C204 1.380 . S
C205 C206 1.347 . S
C205 H233 0.931 . S
C206 C205 1.347 . S
C206 C207 1.369 . S
C207 C206 1.369 . S
C207 C208 1.408 . S
C207 H234 0.930 . S
C208 C203 1.348 . S
C208 C207 1.408 . S
C208 H235 0.930 . S
C209 O222 1.281 . S
C209 O223 1.254 . S
C210 O224 1.236 . S
C210 O225 1.266 . S
C211 Tb201 2.809 . S
C211 C212 1.514 . S
C211 O226 1.248 . S
C211 O227 1.266 . S
C212 C211 1.514 . S
C212 C213 1.359 . S
C212 C217 1.348 . S
C213 C212 1.359 . S
C213 C214 1.380 . S
C213 H236 0.929 . S
C214 C213 1.380 . S
C214 C215 1.347 . S
C214 H237 0.931 . S
C215 C214 1.347 . S
C215 C216 1.369 . S
C216 C215 1.369 . S
C216 C217 1.408 . S
C216 H238 0.930 . S
C217 C212 1.348 . S
C217 C216 1.408 . S
C217 H239 0.930 . S
C218 O228 1.281 . S
C218 O229 1.254 . S
C219 O230 1.236 . S
C219 O231 1.266 . S
O220 Tb200 2.484 . S
O220 C202 1.259 . S
O221 Tb200 2.440 . S
O221 C202 1.277 . S
O222 Tb200 2.658 . S
O222 Tb201 2.325 . S
O222 C209 1.281 . S
O223 Tb200 2.409 . S
O223 C209 1.254 . S
O224 Tb200 2.378 . S
O224 C210 1.236 . S
O225 Tb201 2.341 . S
O225 C210 1.266 . S
O226 Tb201 2.484 . S
O226 C211 1.248 . S
O227 Tb201 2.440 . S
O227 C211 1.266 . S
O228 Tb200 2.325 . S
O228 Tb201 2.658 . S
O228 C218 1.281 . S
O229 Tb201 2.409 . S
O229 C218 1.254 . S
O230 Tb201 2.378 . S
O230 C219 1.236 . S
O231 Tb200 2.341 . S
O231 C219 1.266 . S
H232 C204 0.929 . S
H233 C205 0.931 . S
H234 C207 0.930 . S
H235 C208 0.930 . S
H236 C213 0.929 . S
H237 C214 0.931 . S
H238 C216 0.930 . S
H239 C217 0.930 . S
Tb240 C242 2.816 . S
Tb240 O260 2.484 . S
Tb240 O261 2.440 . S
Tb240 O262 2.658 . S
Tb240 O263 2.409 . S
Tb240 O264 2.378 . S
Tb240 O268 2.325 . S
Tb240 O271 2.341 . S
Tb241 C251 2.809 . S
Tb241 O262 2.325 . S
Tb241 O265 2.341 . S
Tb241 O266 2.484 . S
Tb241 O267 2.440 . S
Tb241 O268 2.658 . S
Tb241 O269 2.409 . S
Tb241 O270 2.378 . S
C242 Tb240 2.816 . S
C242 C243 1.507 1_455 S
C242 O260 1.254 . S
C242 O261 1.267 . S
C243 C242 1.507 1_655 S
C243 C244 1.359 . S
C243 C248 1.348 . S
C244 C243 1.359 . S
C244 C245 1.380 . S
C244 H272 0.929 . S
C245 C244 1.380 . S
C245 C246 1.347 . S
C245 H273 0.931 . S
C246 C245 1.347 . S
C246 C247 1.369 . S
C247 C246 1.369 . S
C247 C248 1.408 . S
C247 H274 0.930 . S
C248 C243 1.348 . S
C248 C247 1.408 . S
C248 H275 0.930 . S
C249 O262 1.281 . S
C249 O263 1.254 . S
C250 O264 1.236 . S
C250 O265 1.266 . S
C251 Tb241 2.809 . S
C251 C252 1.514 . S
C251 O266 1.248 . S
C251 O267 1.266 . S
C252 C251 1.514 . S
C252 C253 1.359 . S
C252 C257 1.348 . S
C253 C252 1.359 . S
C253 C254 1.380 . S
C253 H276 0.929 . S
C254 C253 1.380 . S
C254 C255 1.347 . S
C254 H277 0.931 . S
C255 C254 1.347 . S
C255 C256 1.369 . S
C256 C255 1.369 . S
C256 C257 1.408 . S
C256 H278 0.930 . S
C257 C252 1.348 . S
C257 C256 1.408 . S
C257 H279 0.930 . S
C258 O268 1.281 . S
C258 O269 1.254 . S
C259 O270 1.236 . S
C259 O271 1.266 . S
O260 Tb240 2.484 . S
O260 C242 1.254 . S
O261 Tb240 2.440 . S
O261 C242 1.267 . S
O262 Tb240 2.658 . S
O262 Tb241 2.325 . S
O262 C249 1.281 . S
O263 Tb240 2.409 . S
O263 C249 1.254 . S
O264 Tb240 2.378 . S
O264 C250 1.236 . S
O265 Tb241 2.341 . S
O265 C250 1.266 . S
O266 Tb241 2.484 . S
O266 C251 1.248 . S
O267 Tb241 2.440 . S
O267 C251 1.266 . S
O268 Tb240 2.325 . S
O268 Tb241 2.658 . S
O268 C258 1.281 . S
O269 Tb241 2.409 . S
O269 C258 1.254 . S
O270 Tb241 2.378 . S
O270 C259 1.236 . S
O271 Tb240 2.341 . S
O271 C259 1.266 . S
H272 C244 0.929 . S
H273 C245 0.931 . S
H274 C247 0.930 . S
H275 C248 0.930 . S
H276 C253 0.929 . S
H277 C254 0.931 . S
H278 C256 0.930 . S
H279 C257 0.930 . S
Tb280 C282 2.809 . S
Tb280 O300 2.484 . S
Tb280 O301 2.440 . S
Tb280 O302 2.658 . S
Tb280 O303 2.409 . S
Tb280 O304 2.378 . S
Tb280 O308 2.325 . S
Tb280 O311 2.341 . S
Tb281 C291 2.832 . S
Tb281 O302 2.325 . S
Tb281 O305 2.341 . S
Tb281 O306 2.484 . S
Tb281 O307 2.440 . S
Tb281 O308 2.658 . S
Tb281 O309 2.409 . S
Tb281 O310 2.378 . S
C282 Tb280 2.809 . S
C282 C283 1.514 . S
C282 O300 1.248 . S
C282 O301 1.266 . S
C283 C282 1.514 . S
C283 C284 1.359 . S
C283 C288 1.348 . S
C284 C283 1.359 . S
C284 C285 1.380 . S
C284 H312 0.929 . S
C285 C284 1.380 . S
C285 C286 1.347 . S
C285 H313 0.931 . S
C286 C285 1.347 . S
C286 C287 1.369 . S
C287 C286 1.369 . S
C287 C288 1.408 . S
C287 H314 0.930 . S
C288 C283 1.348 . S
C288 C287 1.408 . S
C288 H315 0.930 . S
C289 O302 1.281 . S
C289 O303 1.254 . S
C290 O304 1.236 . S
C290 O305 1.266 . S
C291 Tb281 2.832 . S
C291 C292 1.491 1_565 S
C291 O306 1.259 . S
C291 O307 1.277 . S
C292 C291 1.491 1_545 S
C292 C293 1.359 . S
C292 C297 1.348 . S
C293 C292 1.359 . S
C293 C294 1.380 . S
C293 H316 0.929 . S
C294 C293 1.380 . S
C294 C295 1.347 . S
C294 H317 0.931 . S
C295 C294 1.347 . S
C295 C296 1.369 . S
C296 C295 1.369 . S
C296 C297 1.408 . S
C296 H318 0.930 . S
C297 C292 1.348 . S
C297 C296 1.408 . S
C297 H319 0.930 . S
C298 O308 1.281 . S
C298 O309 1.254 . S
C299 O310 1.236 . S
C299 O311 1.266 . S
O300 Tb280 2.484 . S
O300 C282 1.248 . S
O301 Tb280 2.440 . S
O301 C282 1.266 . S
O302 Tb280 2.658 . S
O302 Tb281 2.325 . S
O302 C289 1.281 . S
O303 Tb280 2.409 . S
O303 C289 1.254 . S
O304 Tb280 2.378 . S
O304 C290 1.236 . S
O305 Tb281 2.341 . S
O305 C290 1.266 . S
O306 Tb281 2.484 . S
O306 C291 1.259 . S
O307 Tb281 2.440 . S
O307 C291 1.277 . S
O308 Tb280 2.325 . S
O308 Tb281 2.658 . S
O308 C298 1.281 . S
O309 Tb281 2.409 . S
O309 C298 1.254 . S
O310 Tb281 2.378 . S
O310 C299 1.236 . S
O311 Tb280 2.341 . S
O311 C299 1.266 . S
H312 C284 0.929 . S
H313 C285 0.931 . S
H314 C287 0.930 . S
H315 C288 0.930 . S
H316 C293 0.929 . S
H317 C294 0.931 . S
H318 C296 0.930 . S
H319 C297 0.930 . S
Tb320 C322 2.809 . S
Tb320 O340 2.484 . S
Tb320 O341 2.440 . S
Tb320 O342 2.658 . S
Tb320 O343 2.409 . S
Tb320 O344 2.378 . S
Tb320 O348 2.325 . S
Tb320 O351 2.341 . S
Tb321 C331 2.809 . S
Tb321 O342 2.325 . S
Tb321 O345 2.341 . S
Tb321 O346 2.484 . S
Tb321 O347 2.440 . S
Tb321 O348 2.658 . S
Tb321 O349 2.409 . S
Tb321 O350 2.378 . S
C322 Tb320 2.809 . S
C322 C323 1.514 . S
C322 O340 1.248 . S
C322 O341 1.266 . S
C323 C322 1.514 . S
C323 C324 1.359 . S
C323 C328 1.348 . S
C324 C323 1.359 . S
C324 C325 1.380 . S
C324 H352 0.929 . S
C325 C324 1.380 . S
C325 C326 1.347 . S
C325 H353 0.931 . S
C326 C325 1.347 . S
C326 C327 1.369 . S
C327 C326 1.369 . S
C327 C328 1.408 . S
C327 H354 0.930 . S
C328 C323 1.348 . S
C328 C327 1.408 . S
C328 H355 0.930 . S
C329 O342 1.281 . S
C329 O343 1.254 . S
C330 O344 1.236 . S
C330 O345 1.266 . S
C331 Tb321 2.809 . S
C331 C332 1.514 . S
C331 O346 1.248 . S
C331 O347 1.266 . S
C332 C331 1.514 . S
C332 C333 1.359 . S
C332 C337 1.348 . S
C333 C332 1.359 . S
C333 C334 1.380 . S
C333 H356 0.929 . S
C334 C333 1.380 . S
C334 C335 1.347 . S
C334 H357 0.931 . S
C335 C334 1.347 . S
C335 C336 1.369 . S
C336 C335 1.369 . S
C336 C337 1.408 . S
C336 H358 0.930 . S
C337 C332 1.348 . S
C337 C336 1.408 . S
C337 H359 0.930 . S
C338 O348 1.281 . S
C338 O349 1.254 . S
C339 O350 1.236 . S
C339 O351 1.266 . S
O340 Tb320 2.484 . S
O340 C322 1.248 . S
O341 Tb320 2.440 . S
O341 C322 1.266 . S
O342 Tb320 2.658 . S
O342 Tb321 2.325 . S
O342 C329 1.281 . S
O343 Tb320 2.409 . S
O343 C329 1.254 . S
O344 Tb320 2.378 . S
O344 C330 1.236 . S
O345 Tb321 2.341 . S
O345 C330 1.266 . S
O346 Tb321 2.484 . S
O346 C331 1.248 . S
O347 Tb321 2.440 . S
O347 C331 1.266 . S
O348 Tb320 2.325 . S
O348 Tb321 2.658 . S
O348 C338 1.281 . S
O349 Tb321 2.409 . S
O349 C338 1.254 . S
O350 Tb321 2.378 . S
O350 C339 1.236 . S
O351 Tb320 2.341 . S
O351 C339 1.266 . S
H352 C324 0.929 . S
H353 C325 0.931 . S
H354 C327 0.930 . S
H355 C328 0.930 . S
H356 C333 0.929 . S
H357 C334 0.931 . S
H358 C336 0.930 . S
H359 C337 0.930 . S
Tb360 C362 2.809 . S
Tb360 O380 2.484 . S
Tb360 O381 2.440 . S
Tb360 O382 2.658 . S
Tb360 O383 2.409 . S
Tb360 O384 2.378 . S
Tb360 O388 2.325 . S
Tb360 O391 2.341 . S
Tb361 C371 2.816 . S
Tb361 O382 2.325 . S
Tb361 O385 2.341 . S
Tb361 O386 2.484 . S
Tb361 O387 2.440 . S
Tb361 O388 2.658 . S
Tb361 O389 2.409 . S
Tb361 O390 2.378 . S
C362 Tb360 2.809 . S
C362 C363 1.514 . S
C362 O380 1.248 . S
C362 O381 1.266 . S
C363 C362 1.514 . S
C363 C364 1.359 . S
C363 C368 1.348 . S
C364 C363 1.359 . S
C364 C365 1.380 . S
C364 H392 0.929 . S
C365 C364 1.380 . S
C365 C366 1.347 . S
C365 H393 0.931 . S
C366 C365 1.347 . S
C366 C367 1.369 . S
C367 C366 1.369 . S
C367 C368 1.408 . S
C367 H394 0.930 . S
C368 C363 1.348 . S
C368 C367 1.408 . S
C368 H395 0.930 . S
C369 O382 1.281 . S
C369 O383 1.254 . S
C370 O384 1.236 . S
C370 O385 1.266 . S
C371 Tb361 2.816 . S
C371 C372 1.507 1_455 S
C371 O386 1.254 . S
C371 O387 1.267 . S
C372 C371 1.507 1_655 S
C372 C373 1.359 . S
C372 C377 1.348 . S
C373 C372 1.359 . S
C373 C374 1.380 . S
C373 H396 0.929 . S
C374 C373 1.380 . S
C374 C375 1.347 . S
C374 H397 0.931 . S
C375 C374 1.347 . S
C375 C376 1.369 . S
C376 C375 1.369 . S
C376 C377 1.408 . S
C376 H398 0.930 . S
C377 C372 1.348 . S
C377 C376 1.408 . S
C377 H399 0.930 . S
C378 O388 1.281 . S
C378 O389 1.254 . S
C379 O390 1.236 . S
C379 O391 1.266 . S
O380 Tb360 2.484 . S
O380 C362 1.248 . S
O381 Tb360 2.440 . S
O381 C362 1.266 . S
O382 Tb360 2.658 . S
O382 Tb361 2.325 . S
O382 C369 1.281 . S
O383 Tb360 2.409 . S
O383 C369 1.254 . S
O384 Tb360 2.378 . S
O384 C370 1.236 . S
O385 Tb361 2.341 . S
O385 C370 1.266 . S
O386 Tb361 2.484 . S
O386 C371 1.254 . S
O387 Tb361 2.440 . S
O387 C371 1.267 . S
O388 Tb360 2.325 . S
O388 Tb361 2.658 . S
O388 C378 1.281 . S
O389 Tb361 2.409 . S
O389 C378 1.254 . S
O390 Tb361 2.378 . S
O390 C379 1.236 . S
O391 Tb360 2.341 . S
O391 C379 1.266 . S
H392 C364 0.929 . S
H393 C365 0.931 . S
H394 C367 0.930 . S
H395 C368 0.930 . S
H396 C373 0.929 . S
H397 C374 0.931 . S
H398 C376 0.930 . S
H399 C377 0.930 . S
Tb400 C402 2.832 . S
Tb400 O420 2.484 . S
Tb400 O421 2.440 . S
Tb400 O422 2.658 . S
Tb400 O423 2.409 . S
Tb400 O424 2.378 . S
Tb400 O428 2.325 . S
Tb400 O431 2.341 . S
Tb401 C411 2.809 . S
Tb401 O422 2.325 . S
Tb401 O425 2.341 . S
Tb401 O426 2.484 . S
Tb401 O427 2.440 . S
Tb401 O428 2.658 . S
Tb401 O429 2.409 . S
Tb401 O430 2.378 . S
C402 Tb400 2.832 . S
C402 C403 1.491 1_565 S
C402 O420 1.259 . S
C402 O421 1.277 . S
C403 C402 1.491 1_545 S
C403 C404 1.359 . S
C403 C408 1.348 . S
C404 C403 1.359 . S
C404 C405 1.380 . S
C404 H432 0.929 . S
C405 C404 1.380 . S
C405 C406 1.347 . S
C405 H433 0.931 . S
C406 C405 1.347 . S
C406 C407 1.369 . S
C407 C406 1.369 . S
C407 C408 1.408 . S
C407 H434 0.930 . S
C408 C403 1.348 . S
C408 C407 1.408 . S
C408 H435 0.930 . S
C409 O422 1.281 . S
C409 O423 1.254 . S
C410 O424 1.236 . S
C410 O425 1.266 . S
C411 Tb401 2.809 . S
C411 C412 1.514 . S
C411 O426 1.248 . S
C411 O427 1.266 . S
C412 C411 1.514 . S
C412 C413 1.359 . S
C412 C417 1.348 . S
C413 C412 1.359 . S
C413 C414 1.380 . S
C413 H436 0.929 . S
C414 C413 1.380 . S
C414 C415 1.347 . S
C414 H437 0.931 . S
C415 C414 1.347 . S
C415 C416 1.369 . S
C416 C415 1.369 . S
C416 C417 1.408 . S
C416 H438 0.930 . S
C417 C412 1.348 . S
C417 C416 1.408 . S
C417 H439 0.930 . S
C418 O428 1.281 . S
C418 O429 1.254 . S
C419 O430 1.236 . S
C419 O431 1.266 . S
O420 Tb400 2.484 . S
O420 C402 1.259 . S
O421 Tb400 2.440 . S
O421 C402 1.277 . S
O422 Tb400 2.658 . S
O422 Tb401 2.325 . S
O422 C409 1.281 . S
O423 Tb400 2.409 . S
O423 C409 1.254 . S
O424 Tb400 2.378 . S
O424 C410 1.236 . S
O425 Tb401 2.341 . S
O425 C410 1.266 . S
O426 Tb401 2.484 . S
O426 C411 1.248 . S
O427 Tb401 2.440 . S
O427 C411 1.266 . S
O428 Tb400 2.325 . S
O428 Tb401 2.658 . S
O428 C418 1.281 . S
O429 Tb401 2.409 . S
O429 C418 1.254 . S
O430 Tb401 2.378 . S
O430 C419 1.236 . S
O431 Tb400 2.341 . S
O431 C419 1.266 . S
H432 C404 0.929 . S
H433 C405 0.931 . S
H434 C407 0.930 . S
H435 C408 0.930 . S
H436 C413 0.929 . S
H437 C414 0.931 . S
H438 C416 0.930 . S
H439 C417 0.930 . S
Tb440 C442 2.809 . S
Tb440 O460 2.484 . S
Tb440 O461 2.440 . S
Tb440 O462 2.658 . S
Tb440 O463 2.409 . S
Tb440 O464 2.378 . S
Tb440 O468 2.325 . S
Tb440 O471 2.341 . S
Tb441 C451 2.809 . S
Tb441 O462 2.325 . S
Tb441 O465 2.341 . S
Tb441 O466 2.484 . S
Tb441 O467 2.440 . S
Tb441 O468 2.658 . S
Tb441 O469 2.409 . S
Tb441 O470 2.378 . S
C442 Tb440 2.809 . S
C442 C443 1.514 . S
C442 O460 1.248 . S
C442 O461 1.266 . S
C443 C442 1.514 . S
C443 C444 1.359 . S
C443 C448 1.348 . S
C444 C443 1.359 . S
C444 C445 1.380 . S
C444 H472 0.929 . S
C445 C444 1.380 . S
C445 C446 1.347 . S
C445 H473 0.931 . S
C446 C445 1.347 . S
C446 C447 1.369 . S
C447 C446 1.369 . S
C447 C448 1.408 . S
C447 H474 0.930 . S
C448 C443 1.348 . S
C448 C447 1.408 . S
C448 H475 0.930 . S
C449 O462 1.281 . S
C449 O463 1.254 . S
C450 O464 1.236 . S
C450 O465 1.266 . S
C451 Tb441 2.809 . S
C451 C452 1.514 . S
C451 O466 1.248 . S
C451 O467 1.266 . S
C452 C451 1.514 . S
C452 C453 1.359 . S
C452 C457 1.348 . S
C453 C452 1.359 . S
C453 C454 1.380 . S
C453 H476 0.929 . S
C454 C453 1.380 . S
C454 C455 1.347 . S
C454 H477 0.931 . S
C455 C454 1.347 . S
C455 C456 1.369 . S
C456 C455 1.369 . S
C456 C457 1.408 . S
C456 H478 0.930 . S
C457 C452 1.348 . S
C457 C456 1.408 . S
C457 H479 0.930 . S
C458 O468 1.281 . S
C458 O469 1.254 . S
C459 O470 1.236 . S
C459 O471 1.266 . S
O460 Tb440 2.484 . S
O460 C442 1.248 . S
O461 Tb440 2.440 . S
O461 C442 1.266 . S
O462 Tb440 2.658 . S
O462 Tb441 2.325 . S
O462 C449 1.281 . S
O463 Tb440 2.409 . S
O463 C449 1.254 . S
O464 Tb440 2.378 . S
O464 C450 1.236 . S
O465 Tb441 2.341 . S
O465 C450 1.266 . S
O466 Tb441 2.484 . S
O466 C451 1.248 . S
O467 Tb441 2.440 . S
O467 C451 1.266 . S
O468 Tb440 2.325 . S
O468 Tb441 2.658 . S
O468 C458 1.281 . S
O469 Tb441 2.409 . S
O469 C458 1.254 . S
O470 Tb441 2.378 . S
O470 C459 1.236 . S
O471 Tb440 2.341 . S
O471 C459 1.266 . S
H472 C444 0.929 . S
H473 C445 0.931 . S
H474 C447 0.930 . S
H475 C448 0.930 . S
H476 C453 0.929 . S
H477 C454 0.931 . S
H478 C456 0.930 . S
H479 C457 0.930 . S
C480 C481 1.387 . S
C480 H484 0.950 . S
C480 C489 1.390 . S
C481 C480 1.387 . S
C481 C483 1.387 . S
H482 C489 0.950 . S
C483 C481 1.387 . S
C483 C485 1.390 . S
C483 H487 0.950 . S
H484 C480 0.950 . S
C485 C483 1.390 . S
C485 C486 1.387 . S
C485 H488 0.950 . S
C486 C485 1.387 . S
C486 C489 1.387 . S
H487 C483 0.950 . S
H488 C485 0.950 . S
C489 C480 1.390 . S
C489 H482 0.950 . S
C489 C486 1.387 . S
C490 C491 1.387 1_655 S
C490 H494 0.950 . S
C490 C499 1.390 . S
C491 C490 1.387 1_455 S
C491 C493 1.387 . S
H492 C499 0.950 . S
C493 C491 1.387 . S
C493 C495 1.390 1_455 S
C493 H497 0.950 . S
H494 C490 0.950 . S
C495 C493 1.390 1_655 S
C495 C496 1.387 . S
C495 H498 0.950 . S
C496 C495 1.387 . S
C496 C499 1.387 . S
H497 C493 0.950 . S
H498 C495 0.950 . S
C499 C490 1.390 . S
C499 H492 0.950 . S
C499 C496 1.387 . S
C500 C501 1.387 . S
C500 H504 0.950 . S
C500 C509 1.390 . S
C501 C500 1.387 . S
C501 C503 1.387 . S
H502 C509 0.950 . S
C503 C501 1.387 . S
C503 C505 1.390 1_545 S
C503 H507 0.950 . S
H504 C500 0.950 . S
C505 C503 1.390 1_565 S
C505 C506 1.387 . S
C505 H508 0.950 . S
C506 C505 1.387 . S
C506 C509 1.387 1_565 S
H507 C503 0.950 . S
H508 C505 0.950 . S
C509 C500 1.390 . S
C509 H502 0.950 . S
C509 C506 1.387 1_545 S
C510 C511 1.387 . S
C510 H514 0.950 . S
C510 C519 1.390 . S
C511 C510 1.387 . S
C511 C513 1.387 . S
H512 C519 0.950 . S
C513 C511 1.387 . S
C513 C515 1.390 . S
C513 H517 0.950 . S
H514 C510 0.950 . S
C515 C513 1.390 . S
C515 C516 1.387 . S
C515 H518 0.950 . S
C516 C515 1.387 . S
C516 C519 1.387 . S
H517 C513 0.950 . S
H518 C515 0.950 . S
C519 C510 1.390 . S
C519 H512 0.950 . S
C519 C516 1.387 . S
C520 C521 1.387 . S
C520 H524 0.950 . S
C520 C529 1.390 1_455 S
C521 C520 1.387 . S
C521 C523 1.387 1_455 S
H522 C529 0.950 . S
C523 C521 1.387 1_655 S
C523 C525 1.390 . S
C523 H527 0.950 . S
H524 C520 0.950 . S
C525 C523 1.390 . S
C525 C526 1.387 . S
C525 H528 0.950 . S
C526 C525 1.387 . S
C526 C529 1.387 . S
H527 C523 0.950 . S
H528 C525 0.950 . S
C529 C520 1.390 1_655 S
C529 H522 0.950 . S
C529 C526 1.387 . S
C530 C531 1.387 1_545 S
C530 H534 0.950 . S
C530 C539 1.390 . S
C531 C530 1.387 1_565 S
C531 C533 1.387 . S
H532 C539 0.950 . S
C533 C531 1.387 . S
C533 C535 1.390 1_565 S
C533 H537 0.950 . S
H534 C530 0.950 . S
C535 C533 1.390 1_545 S
C535 C536 1.387 . S
C535 H538 0.950 . S
C536 C535 1.387 . S
C536 C539 1.387 . S
H537 C533 0.950 . S
H538 C535 0.950 . S
C539 C530 1.390 . S
C539 H532 0.950 . S
C539 C536 1.387 . S
C540 C541 1.387 . S
C540 H544 0.950 . S
C540 C549 1.390 . S
C541 C540 1.387 . S
C541 C543 1.387 . S
H542 C549 0.950 . S
C543 C541 1.387 . S
C543 C545 1.390 . S
C543 H547 0.950 . S
H544 C540 0.950 . S
C545 C543 1.390 . S
C545 C546 1.387 . S
C545 H548 0.950 . S
C546 C545 1.387 . S
C546 C549 1.387 . S
H547 C543 0.950 . S
H548 C545 0.950 . S
C549 C540 1.390 . S
C549 H542 0.950 . S
C549 C546 1.387 . S
C550 C551 1.387 . S
C550 H554 0.950 . S
C550 C559 1.390 1_455 S
C551 C550 1.387 . S
C551 C553 1.387 . S
H552 C559 0.950 . S
C553 C551 1.387 . S
C553 C555 1.390 . S
C553 H557 0.950 . S
H554 C550 0.950 . S
C555 C553 1.390 . S
C555 C556 1.387 1_455 S
C555 H558 0.950 . S
C556 C555 1.387 1_655 S
C556 C559 1.387 . S
H557 C553 0.950 . S
H558 C555 0.950 . S
C559 C550 1.390 1_655 S
C559 H552 0.950 . S
C559 C556 1.387 . S
C560 C561 1.387 . S
C560 H564 0.950 . S
C560 C569 1.390 . S
C561 C560 1.387 . S
C561 C563 1.387 . S
H562 C569 0.950 . S
C563 C561 1.387 . S
C563 C565 1.390 1_565 S
C563 H567 0.950 . S
H564 C560 0.950 . S
C565 C563 1.390 1_545 S
C565 C566 1.387 . S
C565 H568 0.950 . S
C566 C565 1.387 . S
C566 C569 1.387 1_545 S
H567 C563 0.950 . S
H568 C565 0.950 . S
C569 C560 1.390 . S
C569 H562 0.950 . S
C569 C566 1.387 1_565 S
C570 C571 1.387 . S
C570 H574 0.950 . S
C570 C579 1.390 . S
C571 C570 1.387 . S
C571 C573 1.387 . S
H572 C579 0.950 . S
C573 C571 1.387 . S
C573 C575 1.390 . S
C573 H577 0.950 . S
H574 C570 0.950 . S
C575 C573 1.390 . S
C575 C576 1.387 . S
C575 H578 0.950 . S
C576 C575 1.387 . S
C576 C579 1.387 . S
H577 C573 0.950 . S
H578 C575 0.950 . S
C579 C570 1.390 . S
C579 H572 0.950 . S
C579 C576 1.387 . S
C580 C581 1.387 . S
C580 H584 0.950 . S
C580 C589 1.390 1_455 S
C581 C580 1.387 . S
C581 C583 1.387 . S
H582 C589 0.950 . S
C583 C581 1.387 . S
C583 C585 1.390 . S
C583 H587 0.950 . S
H584 C580 0.950 . S
C585 C583 1.390 . S
C585 C586 1.387 1_455 S
C585 H588 0.950 . S
C586 C585 1.387 1_655 S
C586 C589 1.387 . S
H587 C583 0.950 . S
H588 C585 0.950 . S
C589 C580 1.390 1_655 S
C589 H582 0.950 . S
C589 C586 1.387 . S
C590 C591 1.387 1_565 S
C590 H594 0.950 . S
C590 C599 1.390 . S
C591 C590 1.387 1_545 S
C591 C593 1.387 . S
H592 C599 0.950 . S
C593 C591 1.387 . S
C593 C595 1.390 1_545 S
C593 H597 0.950 . S
H594 C590 0.950 . S
C595 C593 1.390 1_565 S
C595 C596 1.387 . S
C595 H598 0.950 . S
C596 C595 1.387 . S
C596 C599 1.387 . S
H597 C593 0.950 . S
H598 C595 0.950 . S
C599 C590 1.390 . S
C599 H592 0.950 . S
C599 C596 1.387 . S
C600 C601 1.387 . S
C600 H604 0.950 . S
C600 C609 1.390 . S
C601 C600 1.387 . S
C601 C603 1.387 . S
H602 C609 0.950 . S
C603 C601 1.387 . S
C603 C605 1.390 . S
C603 H607 0.950 . S
H604 C600 0.950 . S
C605 C603 1.390 . S
C605 C606 1.387 . S
C605 H608 0.950 . S
C606 C605 1.387 . S
C606 C609 1.387 . S
H607 C603 0.950 . S
H608 C605 0.950 . S
C609 C600 1.390 . S
C609 H602 0.950 . S
C609 C606 1.387 . S
C610 C611 1.387 . S
C610 H614 0.950 . S
C610 C619 1.390 . S
C611 C610 1.387 . S
C611 C613 1.387 . S
H612 C619 0.950 . S
C613 C611 1.387 . S
C613 C615 1.390 . S
C613 H617 0.950 . S
H614 C610 0.950 . S
C615 C613 1.390 . S
C615 C616 1.387 . S
C615 H618 0.950 . S
C616 C615 1.387 . S
C616 C619 1.387 . S
H617 C613 0.950 . S
H618 C615 0.950 . S
C619 C610 1.390 . S
C619 H612 0.950 . S
C619 C616 1.387 . S
C620 C621 1.387 . S
C620 H624 0.950 . S
C620 C629 1.390 . S
C621 C620 1.387 . S
C621 C623 1.387 . S
H622 C629 0.950 . S
C623 C621 1.387 . S
C623 C625 1.390 . S
C623 H627 0.950 . S
H624 C620 0.950 . S
C625 C623 1.390 . S
C625 C626 1.387 . S
C625 H628 0.950 . S
C626 C625 1.387 . S
C626 C629 1.387 . S
H627 C623 0.950 . S
H628 C625 0.950 . S
C629 C620 1.390 . S
C629 H622 0.950 . S
C629 C626 1.387 . S
C630 C631 1.387 . S
C630 H634 0.950 . S
C630 C639 1.390 . S
C631 C630 1.387 . S
C631 C633 1.387 . S
H632 C639 0.950 . S
C633 C631 1.387 . S
C633 C635 1.390 . S
C633 H637 0.950 . S
H634 C630 0.950 . S
C635 C633 1.390 . S
C635 C636 1.387 . S
C635 H638 0.950 . S
C636 C635 1.387 . S
C636 C639 1.387 . S
H637 C633 0.950 . S
H638 C635 0.950 . S
C639 C630 1.390 . S
C639 H632 0.950 . S
C639 C636 1.387 . S
C640 C641 1.387 . S
C640 H644 0.950 . S
C640 C649 1.390 . S
C641 C640 1.387 . S
C641 C643 1.387 . S
H642 C649 0.950 . S
C643 C641 1.387 . S
C643 C645 1.390 . S
C643 H647 0.950 . S
H644 C640 0.950 . S
C645 C643 1.390 . S
C645 C646 1.387 . S
C645 H648 0.950 . S
C646 C645 1.387 . S
C646 C649 1.387 . S
H647 C643 0.950 . S
H648 C645 0.950 . S
C649 C640 1.390 . S
C649 H642 0.950 . S
C649 C646 1.387 . S
C650 C651 1.387 . S
C650 H654 0.950 . S
C650 C659 1.390 . S
C651 C650 1.387 . S
C651 C653 1.387 . S
H652 C659 0.950 . S
C653 C651 1.387 . S
C653 C655 1.390 . S
C653 H657 0.950 . S
H654 C650 0.950 . S
C655 C653 1.390 . S
C655 C656 1.387 . S
C655 H658 0.950 . S
C656 C655 1.387 . S
C656 C659 1.387 . S
H657 C653 0.950 . S
H658 C655 0.950 . S
C659 C650 1.390 . S
C659 H652 0.950 . S
C659 C656 1.387 . S
C660 C661 1.387 . S
C660 H664 0.950 . S
C660 C669 1.390 1_566 S
C661 C660 1.387 . S
C661 C663 1.387 . S
H662 C669 0.950 . S
C663 C661 1.387 . S
C663 C665 1.390 1_566 S
C663 H667 0.950 . S
H664 C660 0.950 . S
C665 C663 1.390 1_544 S
C665 C666 1.387 . S
C665 H668 0.950 . S
C666 C665 1.387 . S
C666 C669 1.387 . S
H667 C663 0.950 . S
H668 C665 0.950 . S
C669 C660 1.390 1_544 S
C669 H662 0.950 . S
C669 C666 1.387 . S
C670 C671 1.387 . S
C670 H674 0.950 . S
C670 C679 1.390 . S
C671 C670 1.387 . S
C671 C673 1.387 . S
H672 C679 0.950 . S
C673 C671 1.387 . S
C673 C675 1.390 . S
C673 H677 0.950 . S
H674 C670 0.950 . S
C675 C673 1.390 . S
C675 C676 1.387 . S
C675 H678 0.950 . S
C676 C675 1.387 . S
C676 C679 1.387 . S
H677 C673 0.950 . S
H678 C675 0.950 . S
C679 C670 1.390 . S
C679 H672 0.950 . S
C679 C676 1.387 . S
C680 C681 1.387 . S
C680 H684 0.950 . S
C680 C689 1.390 1_455 S
C681 C680 1.387 . S
C681 C683 1.387 1_556 S
H682 C689 0.950 . S
C683 C681 1.387 1_554 S
C683 C685 1.390 1_455 S
C683 H687 0.950 . S
H684 C680 0.950 . S
C685 C683 1.390 1_655 S
C685 C686 1.387 . S
C685 H688 0.950 . S
C686 C685 1.387 . S
C686 C689 1.387 1_554 S
H687 C683 0.950 . S
H688 C685 0.950 . S
C689 C680 1.390 1_655 S
C689 H682 0.950 . S
C689 C686 1.387 1_556 S
C690 C691 1.387 . S
C690 H694 0.950 . S
C690 C699 1.390 1_545 S
C691 C690 1.387 . S
C691 C693 1.387 . S
H692 C699 0.950 . S
C693 C691 1.387 . S
C693 C695 1.390 1_545 S
C693 H697 0.950 . S
H694 C690 0.950 . S
C695 C693 1.390 1_565 S
C695 C696 1.387 . S
C695 H698 0.950 . S
C696 C695 1.387 . S
C696 C699 1.387 . S
H697 C693 0.950 . S
H698 C695 0.950 . S
C699 C690 1.390 1_565 S
C699 H692 0.950 . S
C699 C696 1.387 . S
C700 C701 1.387 1_556 S
C700 H704 0.950 . S
C700 C709 1.390 . S
C701 C700 1.387 1_554 S
C701 C703 1.387 . S
H702 C709 0.950 . S
C703 C701 1.387 . S
C703 C705 1.390 . S
C703 H707 0.950 . S
H704 C700 0.950 . S
C705 C703 1.390 . S
C705 C706 1.387 1_554 S
C705 H708 0.950 . S
C706 C705 1.387 1_556 S
C706 C709 1.387 . S
H707 C703 0.950 . S
H708 C705 0.950 . S
C709 C700 1.390 . S
C709 H702 0.950 . S
C709 C706 1.387 . S
C710 C711 1.387 . S
C710 H714 0.950 . S
C710 C719 1.390 1_455 S
C711 C710 1.387 . S
C711 C713 1.387 . S
H712 C719 0.950 . S
C713 C711 1.387 . S
C713 C715 1.390 1_455 S
C713 H717 0.950 . S
H714 C710 0.950 . S
C715 C713 1.390 1_655 S
C715 C716 1.387 . S
C715 H718 0.950 . S
C716 C715 1.387 . S
C716 C719 1.387 . S
H717 C713 0.950 . S
H718 C715 0.950 . S
C719 C710 1.390 1_655 S
C719 H712 0.950 . S
C719 C716 1.387 . S
C720 C721 1.387 . S
C720 H724 0.950 . S
C720 C729 1.390 . S
C721 C720 1.387 . S
C721 C723 1.387 . S
H722 C729 0.950 . S
C723 C721 1.387 . S
C723 C725 1.390 . S
C723 H727 0.950 . S
H724 C720 0.950 . S
C725 C723 1.390 . S
C725 C726 1.387 . S
C725 H728 0.950 . S
C726 C725 1.387 . S
C726 C729 1.387 . S
H727 C723 0.950 . S
H728 C725 0.950 . S
C729 C720 1.390 . S
C729 H722 0.950 . S
C729 C726 1.387 . S
C730 C731 1.387 . S
C730 H734 0.950 . S
C730 C739 1.390 . S
C731 C730 1.387 . S
C731 C733 1.387 . S
H732 C739 0.950 . S
C733 C731 1.387 . S
C733 C735 1.390 . S
C733 H737 0.950 . S
H734 C730 0.950 . S
C735 C733 1.390 . S
C735 C736 1.387 . S
C735 H738 0.950 . S
C736 C735 1.387 . S
C736 C739 1.387 . S
H737 C733 0.950 . S
H738 C735 0.950 . S
C739 C730 1.390 . S
C739 H732 0.950 . S
C739 C736 1.387 . S
C740 C741 1.387 . S
C740 H744 0.950 . S
C740 C749 1.390 . S
C741 C740 1.387 . S
C741 C743 1.387 . S
H742 C749 0.950 . S
C743 C741 1.387 . S
C743 C745 1.390 . S
C743 H747 0.950 . S
H744 C740 0.950 . S
C745 C743 1.390 . S
C745 C746 1.387 . S
C745 H748 0.950 . S
C746 C745 1.387 . S
C746 C749 1.387 . S
H747 C743 0.950 . S
H748 C745 0.950 . S
C749 C740 1.390 . S
C749 H742 0.950 . S
C749 C746 1.387 . S
C750 C751 1.387 . S
C750 H754 0.950 . S
C750 C759 1.390 . S
C751 C750 1.387 . S
C751 C753 1.387 . S
H752 C759 0.950 . S
C753 C751 1.387 . S
C753 C755 1.390 . S
C753 H757 0.950 . S
H754 C750 0.950 . S
C755 C753 1.390 . S
C755 C756 1.387 . S
C755 H758 0.950 . S
C756 C755 1.387 . S
C756 C759 1.387 . S
H757 C753 0.950 . S
H758 C755 0.950 . S
C759 C750 1.390 . S
C759 H752 0.950 . S
C759 C756 1.387 . S
C760 C761 1.387 . S
C760 H764 0.950 . S
C760 C769 1.390 . S
C761 C760 1.387 . S
C761 C763 1.387 . S
H762 C769 0.950 . S
C763 C761 1.387 . S
C763 C765 1.390 . S
C763 H767 0.950 . S
H764 C760 0.950 . S
C765 C763 1.390 . S
C765 C766 1.387 . S
C765 H768 0.950 . S
C766 C765 1.387 . S
C766 C769 1.387 . S
H767 C763 0.950 . S
H768 C765 0.950 . S
C769 C760 1.390 . S
C769 H762 0.950 . S
C769 C766 1.387 . S
C770 C771 1.387 . S
C770 H774 0.950 . S
C770 C779 1.390 . S
C771 C770 1.387 . S
C771 C773 1.387 . S
H772 C779 0.950 . S
C773 C771 1.387 . S
C773 C775 1.390 . S
C773 H777 0.950 . S
H774 C770 0.950 . S
C775 C773 1.390 . S
C775 C776 1.387 . S
C775 H778 0.950 . S
C776 C775 1.387 . S
C776 C779 1.387 . S
H777 C773 0.950 . S
H778 C775 0.950 . S
C779 C770 1.390 . S
C779 H772 0.950 . S
C779 C776 1.387 . S
C780 C781 1.387 . S
C780 H784 0.950 . S
C780 C789 1.390 . S
C781 C780 1.387 . S
C781 C783 1.387 . S
H782 C789 0.950 . S
C783 C781 1.387 . S
C783 C785 1.390 . S
C783 H787 0.950 . S
H784 C780 0.950 . S
C785 C783 1.390 . S
C785 C786 1.387 . S
C785 H788 0.950 . S
C786 C785 1.387 . S
C786 C789 1.387 . S
H787 C783 0.950 . S
H788 C785 0.950 . S
C789 C780 1.390 . S
C789 H782 0.950 . S
C789 C786 1.387 . S
C790 C791 1.387 . S
C790 H794 0.950 . S
C790 C799 1.390 . S
C791 C790 1.387 . S
C791 C793 1.387 . S
H792 C799 0.950 . S
C793 C791 1.387 . S
C793 C795 1.390 . S
C793 H797 0.950 . S
H794 C790 0.950 . S
C795 C793 1.390 . S
C795 C796 1.387 . S
C795 H798 0.950 . S
C796 C795 1.387 . S
C796 C799 1.387 . S
H797 C793 0.950 . S
H798 C795 0.950 . S
C799 C790 1.390 . S
C799 H792 0.950 . S
C799 C796 1.387 . S
C800 C801 1.387 . S
C800 H804 0.950 . S
C800 C809 1.390 . S
C801 C800 1.387 . S
C801 C803 1.387 . S
H802 C809 0.950 . S
C803 C801 1.387 . S
C803 C805 1.390 . S
C803 H807 0.950 . S
H804 C800 0.950 . S
C805 C803 1.390 . S
C805 C806 1.387 . S
C805 H808 0.950 . S
C806 C805 1.387 . S
C806 C809 1.387 . S
H807 C803 0.950 . S
H808 C805 0.950 . S
C809 C800 1.390 . S
C809 H802 0.950 . S
C809 C806 1.387 . S
C810 C811 1.387 . S
C810 H814 0.950 . S
C810 C819 1.390 . S
C811 C810 1.387 . S
C811 C813 1.387 . S
H812 C819 0.950 . S
C813 C811 1.387 . S
C813 C815 1.390 . S
C813 H817 0.950 . S
H814 C810 0.950 . S
C815 C813 1.390 . S
C815 C816 1.387 . S
C815 H818 0.950 . S
C816 C815 1.387 . S
C816 C819 1.387 . S
H817 C813 0.950 . S
H818 C815 0.950 . S
C819 C810 1.390 . S
C819 H812 0.950 . S
C819 C816 1.387 . S
C820 C821 1.387 . S
C820 H824 0.950 . S
C820 C829 1.390 . S
C821 C820 1.387 . S
C821 C823 1.387 . S
H822 C829 0.950 . S
C823 C821 1.387 . S
C823 C825 1.390 . S
C823 H827 0.950 . S
H824 C820 0.950 . S
C825 C823 1.390 . S
C825 C826 1.387 . S
C825 H828 0.950 . S
C826 C825 1.387 . S
C826 C829 1.387 . S
H827 C823 0.950 . S
H828 C825 0.950 . S
C829 C820 1.390 . S
C829 H822 0.950 . S
C829 C826 1.387 . S
C830 C831 1.387 . S
C830 H834 0.950 . S
C830 C839 1.390 . S
C831 C830 1.387 . S
C831 C833 1.387 . S
H832 C839 0.950 . S
C833 C831 1.387 . S
C833 C835 1.390 . S
C833 H837 0.950 . S
H834 C830 0.950 . S
C835 C833 1.390 . S
C835 C836 1.387 . S
C835 H838 0.950 . S
C836 C835 1.387 . S
C836 C839 1.387 . S
H837 C833 0.950 . S
H838 C835 0.950 . S
C839 C830 1.390 . S
C839 H832 0.950 . S
C839 C836 1.387 . S
C481 C95 1.396 . S
C486 C19 1.343 . S
C491 C126 1.396 . S
C496 C50 1.343 . S
C501 C99 1.347 . S
C506 C175 1.398 . S
C511 C130 1.343 . S
C516 C206 1.396 . S
C521 C15 1.396 . S
C526 C179 1.343 . S
C531 C46 1.396 . S
C536 C210 1.343 . S
C541 C406 1.397 . S
C546 C250 1.343 . S
C551 C299 1.343 . S
C556 C455 1.396 . S
C561 C330 1.343 . S
C566 C246 1.396 . S
C571 C379 1.344 . S
C576 C295 1.397 . S
C581 C410 1.346 . S
C586 C326 1.398 . S
C591 C375 1.397 . S
C596 C459 1.346 . S
C601 C129 1.687 . S
C606 C18 1.686 . S
C611 C49 1.688 . S
C616 C178 1.685 . S
C621 C98 1.688 . S
C626 C209 1.685 . S
C631 C249 1.688 . S
C636 C378 1.685 . S
C641 C298 1.685 . S
C646 C409 1.687 . S
C651 C329 1.687 . S
C656 C458 1.686 . S
C661 C289 2.532 . S
C666 C9 2.532 . S
C671 C58 2.533 . S
C676 C338 2.533 . S
C681 C369 2.533 . S
C686 C89 2.532 . S
C691 C138 2.533 . S
C696 C418 2.533 . S
C701 C169 2.532 . S
C706 C449 2.532 . S
C711 C258 2.532 . S
C716 C218 2.532 . S
C721 C86 1.800 . S
C726 C10 1.834 . S
C731 C59 1.832 . S
C736 C135 1.797 . S
C741 C90 1.833 . S
C746 C166 1.797 . S
C751 C139 1.832 . S
C756 C215 1.798 . S
C761 C6 1.797 . S
C766 C170 1.832 . S
C771 C55 1.799 . S
C776 C219 1.833 . S
C781 C415 1.799 . S
C786 C259 1.833 . S
C791 C290 1.832 . S
C796 C446 1.797 . S
C801 C339 1.834 . S
C806 C255 1.800 . S
C811 C286 1.799 . S
C816 C370 1.833 . S
C821 C419 1.834 . S
C826 C335 1.800 . S
C831 C450 1.833 . S
C836 C366 1.797 . S
