# Generated by pormake.
# Topology dei, (4)-cn, num edge types: 1
# Building blocks:
#     Node 0, Type 0, BuildingBlock: KUFVIS_clean_sbu_0, # of connection points: 4
#     Node 1, Type 0, BuildingBlock: KUFVIS_clean_sbu_0, # of connection points: 4
#     Node 2, Type 0, BuildingBlock: KUFVIS_clean_sbu_0, # of connection points: 4
#     Node 3, Type 0, BuildingBlock: KUFVIS_clean_sbu_0, # of connection points: 4
#     Node 4, Type 0, BuildingBlock: KUFVIS_clean_sbu_0, # of connection points: 4
#     Node 5, Type 0, BuildingBlock: KUFVIS_clean_sbu_0, # of connection points: 4
#     Node 6, Type 0, BuildingBlock: KUFVIS_clean_sbu_0, # of connection points: 4
#     Node 7, Type 0, BuildingBlock: KUFVIS_clean_sbu_0, # of connection points: 4
#     Node 8, Type 0, BuildingBlock: KUFVIS_clean_sbu_0, # of connection points: 4
#     Node 9, Type 0, BuildingBlock: KUFVIS_clean_sbu_0, # of connection points: 4
#     Node 10, Type 0, BuildingBlock: KUFVIS_clean_sbu_0, # of connection points: 4
#     Node 11, Type 0, BuildingBlock: KUFVIS_clean_sbu_0, # of connection points: 4
#     Node 12, Type 0, BuildingBlock: KUFVIS_clean_sbu_0, # of connection points: 4
#     Node 13, Type 0, BuildingBlock: KUFVIS_clean_sbu_0, # of connection points: 4
#     Node 14, Type 0, BuildingBlock: KUFVIS_clean_sbu_0, # of connection points: 4
#     Node 15, Type 0, BuildingBlock: KUFVIS_clean_sbu_0, # of connection points: 4
#     Node 16, Type 0, BuildingBlock: KUFVIS_clean_sbu_0, # of connection points: 4
#     Node 17, Type 0, BuildingBlock: KUFVIS_clean_sbu_0, # of connection points: 4
#     Node 18, Type 0, BuildingBlock: KUFVIS_clean_sbu_0, # of connection points: 4
#     Node 19, Type 0, BuildingBlock: KUFVIS_clean_sbu_0, # of connection points: 4
#     Node 20, Type 0, BuildingBlock: KUFVIS_clean_sbu_0, # of connection points: 4
#     Node 21, Type 0, BuildingBlock: KUFVIS_clean_sbu_0, # of connection points: 4
#     Node 22, Type 0, BuildingBlock: KUFVIS_clean_sbu_0, # of connection points: 4
#     Node 23, Type 0, BuildingBlock: KUFVIS_clean_sbu_0, # of connection points: 4
#     Node 24, Type 0, BuildingBlock: KUFVIS_clean_sbu_0, # of connection points: 4
#     Node 25, Type 0, BuildingBlock: KUFVIS_clean_sbu_0, # of connection points: 4
#     Node 26, Type 0, BuildingBlock: KUFVIS_clean_sbu_0, # of connection points: 4
#     Node 27, Type 0, BuildingBlock: KUFVIS_clean_sbu_0, # of connection points: 4
#     Node 28, Type 0, BuildingBlock: KUFVIS_clean_sbu_0, # of connection points: 4
#     Node 29, Type 0, BuildingBlock: KUFVIS_clean_sbu_0, # of connection points: 4
#     Node 30, Type 0, BuildingBlock: KUFVIS_clean_sbu_0, # of connection points: 4
#     Node 31, Type 0, BuildingBlock: KUFVIS_clean_sbu_0, # of connection points: 4
#     Edge 32, Type (0, 0), BuildingBlock: UVAHIK_clean_linker_0, # of connection points: 2
#     Edge 33, Type (0, 0), BuildingBlock: UVAHIK_clean_linker_0, # of connection points: 2
#     Edge 34, Type (0, 0), BuildingBlock: UVAHIK_clean_linker_0, # of connection points: 2
#     Edge 35, Type (0, 0), BuildingBlock: UVAHIK_clean_linker_0, # of connection points: 2
#     Edge 36, Type (0, 0), BuildingBlock: UVAHIK_clean_linker_0, # of connection points: 2
#     Edge 37, Type (0, 0), BuildingBlock: UVAHIK_clean_linker_0, # of connection points: 2
#     Edge 38, Type (0, 0), BuildingBlock: UVAHIK_clean_linker_0, # of connection points: 2
#     Edge 39, Type (0, 0), BuildingBlock: UVAHIK_clean_linker_0, # of connection points: 2
#     Edge 40, Type (0, 0), BuildingBlock: UVAHIK_clean_linker_0, # of connection points: 2
#     Edge 41, Type (0, 0), BuildingBlock: UVAHIK_clean_linker_0, # of connection points: 2
#     Edge 42, Type (0, 0), BuildingBlock: UVAHIK_clean_linker_0, # of connection points: 2
#     Edge 43, Type (0, 0), BuildingBlock: UVAHIK_clean_linker_0, # of connection points: 2
#     Edge 44, Type (0, 0), BuildingBlock: UVAHIK_clean_linker_0, # of connection points: 2
#     Edge 45, Type (0, 0), BuildingBlock: UVAHIK_clean_linker_0, # of connection points: 2
#     Edge 46, Type (0, 0), BuildingBlock: UVAHIK_clean_linker_0, # of connection points: 2
#     Edge 47, Type (0, 0), BuildingBlock: UVAHIK_clean_linker_0, # of connection points: 2
#     Edge 48, Type (0, 0), BuildingBlock: UVAHIK_clean_linker_0, # of connection points: 2
#     Edge 49, Type (0, 0), BuildingBlock: UVAHIK_clean_linker_0, # of connection points: 2
#     Edge 50, Type (0, 0), BuildingBlock: UVAHIK_clean_linker_0, # of connection points: 2
#     Edge 51, Type (0, 0), BuildingBlock: UVAHIK_clean_linker_0, # of connection points: 2
#     Edge 52, Type (0, 0), BuildingBlock: UVAHIK_clean_linker_0, # of connection points: 2
#     Edge 53, Type (0, 0), BuildingBlock: UVAHIK_clean_linker_0, # of connection points: 2
#     Edge 54, Type (0, 0), BuildingBlock: UVAHIK_clean_linker_0, # of connection points: 2
#     Edge 55, Type (0, 0), BuildingBlock: UVAHIK_clean_linker_0, # of connection points: 2
#     Edge 56, Type (0, 0), BuildingBlock: UVAHIK_clean_linker_0, # of connection points: 2
#     Edge 57, Type (0, 0), BuildingBlock: UVAHIK_clean_linker_0, # of connection points: 2
#     Edge 58, Type (0, 0), BuildingBlock: UVAHIK_clean_linker_0, # of connection points: 2
#     Edge 59, Type (0, 0), BuildingBlock: UVAHIK_clean_linker_0, # of connection points: 2
#     Edge 60, Type (0, 0), BuildingBlock: UVAHIK_clean_linker_0, # of connection points: 2
#     Edge 61, Type (0, 0), BuildingBlock: UVAHIK_clean_linker_0, # of connection points: 2
#     Edge 62, Type (0, 0), BuildingBlock: UVAHIK_clean_linker_0, # of connection points: 2
#     Edge 63, Type (0, 0), BuildingBlock: UVAHIK_clean_linker_0, # of connection points: 2
#     Edge 64, Type (0, 0), BuildingBlock: UVAHIK_clean_linker_0, # of connection points: 2
#     Edge 65, Type (0, 0), BuildingBlock: UVAHIK_clean_linker_0, # of connection points: 2
#     Edge 66, Type (0, 0), BuildingBlock: UVAHIK_clean_linker_0, # of connection points: 2
#     Edge 67, Type (0, 0), BuildingBlock: UVAHIK_clean_linker_0, # of connection points: 2
#     Edge 68, Type (0, 0), BuildingBlock: UVAHIK_clean_linker_0, # of connection points: 2
#     Edge 69, Type (0, 0), BuildingBlock: UVAHIK_clean_linker_0, # of connection points: 2
#     Edge 70, Type (0, 0), BuildingBlock: UVAHIK_clean_linker_0, # of connection points: 2
#     Edge 71, Type (0, 0), BuildingBlock: UVAHIK_clean_linker_0, # of connection points: 2
#     Edge 72, Type (0, 0), BuildingBlock: UVAHIK_clean_linker_0, # of connection points: 2
#     Edge 73, Type (0, 0), BuildingBlock: UVAHIK_clean_linker_0, # of connection points: 2
#     Edge 74, Type (0, 0), BuildingBlock: UVAHIK_clean_linker_0, # of connection points: 2
#     Edge 75, Type (0, 0), BuildingBlock: UVAHIK_clean_linker_0, # of connection points: 2
#     Edge 76, Type (0, 0), BuildingBlock: UVAHIK_clean_linker_0, # of connection points: 2
#     Edge 77, Type (0, 0), BuildingBlock: UVAHIK_clean_linker_0, # of connection points: 2
#     Edge 78, Type (0, 0), BuildingBlock: UVAHIK_clean_linker_0, # of connection points: 2
#     Edge 79, Type (0, 0), BuildingBlock: UVAHIK_clean_linker_0, # of connection points: 2
#     Edge 80, Type (0, 0), BuildingBlock: UVAHIK_clean_linker_0, # of connection points: 2
#     Edge 81, Type (0, 0), BuildingBlock: UVAHIK_clean_linker_0, # of connection points: 2
#     Edge 82, Type (0, 0), BuildingBlock: UVAHIK_clean_linker_0, # of connection points: 2
#     Edge 83, Type (0, 0), BuildingBlock: UVAHIK_clean_linker_0, # of connection points: 2
#     Edge 84, Type (0, 0), BuildingBlock: UVAHIK_clean_linker_0, # of connection points: 2
#     Edge 85, Type (0, 0), BuildingBlock: UVAHIK_clean_linker_0, # of connection points: 2
#     Edge 86, Type (0, 0), BuildingBlock: UVAHIK_clean_linker_0, # of connection points: 2
#     Edge 87, Type (0, 0), BuildingBlock: UVAHIK_clean_linker_0, # of connection points: 2
#     Edge 88, Type (0, 0), BuildingBlock: UVAHIK_clean_linker_0, # of connection points: 2
#     Edge 89, Type (0, 0), BuildingBlock: UVAHIK_clean_linker_0, # of connection points: 2
#     Edge 90, Type (0, 0), BuildingBlock: UVAHIK_clean_linker_0, # of connection points: 2
#     Edge 91, Type (0, 0), BuildingBlock: UVAHIK_clean_linker_0, # of connection points: 2
#     Edge 92, Type (0, 0), BuildingBlock: UVAHIK_clean_linker_0, # of connection points: 2
#     Edge 93, Type (0, 0), BuildingBlock: UVAHIK_clean_linker_0, # of connection points: 2
#     Edge 94, Type (0, 0), BuildingBlock: UVAHIK_clean_linker_0, # of connection points: 2
#     Edge 95, Type (0, 0), BuildingBlock: UVAHIK_clean_linker_0, # of connection points: 2
# Relax obj value: 0.227
# Max RMSD: 0.064
# Mean RMSD: 0.064
data_MOF--net-dei--node1-KUFVIS_clean_sbu_0--edge1-UVAHIK_clean_linker_0
_symmetry_space_group_name_H-M    P1
_symmetry_Int_Tables_number       1
_symmetry_cell_setting            triclinic
loop_
_symmetry_equiv_pos_as_xyz
'x, y, z'
_cell_length_a     74.258175
_cell_length_b     74.256397
_cell_length_c     101.10549
_cell_angle_alpha  90.009116
_cell_angle_beta   89.999717
_cell_angle_gamma 89.998828
loop_
_atom_site_label
_atom_site_type_symbol
_atom_site_fract_x
_atom_site_fract_y
_atom_site_fract_z
_atom_type_partial_charge
Mn0 Mn 0.12513 0.61839 0.03003 0.0
Mn1 Mn 0.0992 0.64427 0.04978 0.0
C2 C 0.09671 0.62714 0.02314 0.0
C3 C 0.13417 0.58938 0.02388 0.0
C4 C 0.1307 0.65888 0.03395 0.0
O5 O 0.13721 0.61581 0.04808 0.0
O6 O 0.11791 0.63207 0.06052 0.0
C7 C 0.08186 0.61527 0.06529 0.0
N8 N 0.08043 0.62985 0.05718 0.0
C9 C 0.0481 0.62813 0.05746 0.0
C10 C 0.0492 0.61317 0.06588 0.0
C11 C 0.06616 0.60669 0.06979 0.0
C12 C 0.0642 0.63615 0.05332 0.0
H13 H 0.09487 0.61021 0.06828 0.0
C14 C 0.1318 0.62202 0.05917 0.0
O15 O 0.1442 0.60329 0.02127 0.0
O16 O 0.11926 0.59241 0.03012 0.0
N17 N 0.08036 0.65674 0.04067 0.0
C18 C 0.08166 0.67081 0.03207 0.0
C19 C 0.06589 0.67863 0.02699 0.0
C20 C 0.04897 0.672 0.03087 0.0
C21 C 0.04798 0.65762 0.03982 0.0
C22 C 0.06415 0.65047 0.04464 0.0
H23 H 0.09463 0.67597 0.02907 0.0
O24 O 0.1086 0.62197 0.01456 0.0
O25 O 0.10183 0.6269 0.03542 0.0
O26 O 0.13498 0.64428 0.02798 0.0
O27 O 0.11792 0.66008 0.04236 0.0
C28 C 0.0316 0.64995 0.04403 0.0
C29 C 0.03167 0.63519 0.05283 0.0
H30 H 0.03712 0.60647 0.06933 0.0
H31 H 0.06712 0.5951 0.07623 0.0
H32 H 0.06677 0.68972 0.02008 0.0
H33 H 0.03685 0.67798 0.02685 0.0
H34 H 0.0189 0.65516 0.04043 0.0
H35 H 0.01906 0.62923 0.05591 0.0
Mn36 Mn 0.63082 0.88038 0.27846 0.0
Mn37 Mn 0.60611 0.85284 0.29785 0.0
C38 C 0.62442 0.8513 0.27154 0.0
C39 C 0.65929 0.89168 0.27306 0.0
C40 C 0.5899 0.88314 0.28153 0.0
O41 O 0.63169 0.89284 0.29646 0.0
O42 O 0.61677 0.87228 0.30872 0.0
C43 C 0.63566 0.83744 0.31388 0.0
N44 N 0.62142 0.83507 0.30557 0.0
C45 C 0.62495 0.8029 0.30617 0.0
C46 C 0.63958 0.80497 0.31481 0.0
C47 C 0.64498 0.82233 0.31865 0.0
C48 C 0.61616 0.81845 0.30176 0.0
H49 H 0.63989 0.85077 0.31682 0.0
C50 C 0.6257 0.88691 0.30745 0.0
O51 O 0.64474 0.90051 0.27 0.0
O52 O 0.65719 0.87655 0.27922 0.0
N53 N 0.5951 0.83323 0.28861 0.0
C54 C 0.58121 0.83359 0.27981 0.0
C55 C 0.57439 0.81732 0.27479 0.0
C56 C 0.58182 0.80087 0.27895 0.0
C57 C 0.596 0.80084 0.28811 0.0
C58 C 0.60213 0.81746 0.29285 0.0
H59 H 0.57541 0.8462 0.27662 0.0
O60 O 0.62917 0.86346 0.26302 0.0
O61 O 0.62377 0.85652 0.28379 0.0
O62 O 0.60437 0.88824 0.27574 0.0
O63 O 0.58934 0.87049 0.29009 0.0
C64 C 0.60444 0.78499 0.2926 0.0
C65 C 0.61893 0.78603 0.3016 0.0
H66 H 0.64684 0.79334 0.31847 0.0
H67 H 0.65632 0.82405 0.32526 0.0
H68 H 0.56345 0.81746 0.26772 0.0
H69 H 0.57659 0.78836 0.27501 0.0
H70 H 0.60003 0.77198 0.28906 0.0
H71 H 0.62549 0.77381 0.3049 0.0
Mn72 Mn 0.37808 0.38649 0.52917 0.0
Mn73 Mn 0.40517 0.3633 0.54973 0.0
C74 C 0.40661 0.37794 0.52218 0.0
C75 C 0.36804 0.41485 0.52238 0.0
C76 C 0.37311 0.34677 0.53534 0.0
O77 O 0.36613 0.38963 0.54728 0.0
O78 O 0.38775 0.37758 0.56025 0.0
C79 C 0.42447 0.39367 0.56231 0.0
N80 N 0.42486 0.37798 0.55534 0.0
C81 C 0.45721 0.3785 0.55444 0.0
C82 C 0.45717 0.39458 0.56171 0.0
C83 C 0.44071 0.40223 0.56563 0.0
C84 C 0.4406 0.37057 0.55146 0.0
H85 H 0.41186 0.39964 0.56527 0.0
C86 C 0.37304 0.38627 0.55857 0.0
O87 O 0.35836 0.40053 0.52025 0.0
O88 O 0.38319 0.41257 0.52846 0.0
N89 N 0.42294 0.34914 0.54077 0.0
C90 C 0.42063 0.33415 0.53319 0.0
C91 C 0.43578 0.32509 0.5282 0.0
C92 C 0.45314 0.33145 0.53115 0.0
C93 C 0.45519 0.34684 0.53904 0.0
C94 C 0.4396 0.35522 0.54381 0.0
H95 H 0.40733 0.32913 0.53094 0.0
O96 O 0.39447 0.38247 0.51359 0.0
O97 O 0.40172 0.37891 0.53447 0.0
O98 O 0.36911 0.36032 0.52811 0.0
O99 O 0.38549 0.34701 0.54415 0.0
C100 C 0.47207 0.35436 0.54219 0.0
C101 C 0.47306 0.37026 0.54981 0.0
H102 H 0.46968 0.40126 0.56423 0.0
H103 H 0.44055 0.4147 0.57117 0.0
H104 H 0.43409 0.31323 0.5221 0.0
H105 H 0.46479 0.3245 0.52722 0.0
H106 H 0.48434 0.34819 0.53859 0.0
H107 H 0.48603 0.37622 0.55194 0.0
Mn108 Mn 0.86813 0.12784 0.78125 0.0
Mn109 Mn 0.89373 0.15572 0.7998 0.0
C110 C 0.87475 0.15654 0.77377 0.0
C111 C 0.83973 0.11652 0.77596 0.0
C112 C 0.9091 0.12503 0.78361 0.0
O113 O 0.86727 0.11612 0.79946 0.0
O114 O 0.88359 0.13628 0.81106 0.0
C115 C 0.8647 0.17116 0.81636 0.0
N116 N 0.8786 0.17351 0.80774 0.0
C117 C 0.8747 0.20568 0.80805 0.0
C118 C 0.86042 0.20361 0.81699 0.0
C119 C 0.85538 0.18627 0.82114 0.0
C120 C 0.88352 0.19012 0.80365 0.0
H121 H 0.86072 0.15786 0.81953 0.0
C122 C 0.87407 0.12194 0.81024 0.0
O123 O 0.85426 0.10751 0.77319 0.0
O124 O 0.84176 0.13184 0.7819 0.0
N125 N 0.90426 0.17532 0.79024 0.0
C126 C 0.9179 0.17496 0.78123 0.0
C127 C 0.9244 0.1912 0.77596 0.0
C128 C 0.91691 0.20764 0.78008 0.0
C129 C 0.90302 0.20769 0.78946 0.0
C130 C 0.89722 0.19109 0.79447 0.0
H131 H 0.92376 0.16237 0.77807 0.0
O132 O 0.86987 0.14411 0.7655 0.0
O133 O 0.8755 0.1518 0.78613 0.0
O134 O 0.89432 0.11951 0.77857 0.0
O135 O 0.91033 0.13816 0.79171 0.0
C136 C 0.89451 0.22353 0.7939 0.0
C137 C 0.88033 0.22253 0.80316 0.0
H138 H 0.85315 0.21523 0.82066 0.0
H139 H 0.84431 0.18456 0.82799 0.0
H140 H 0.93514 0.19105 0.76872 0.0
H141 H 0.92189 0.22014 0.77594 0.0
H142 H 0.89862 0.23652 0.79011 0.0
H143 H 0.87372 0.23477 0.80637 0.0
Mn144 Mn 0.12329 0.38067 0.96928 0.0
Mn145 Mn 0.09579 0.3522 0.95289 0.0
C146 C 0.09524 0.37335 0.97788 0.0
C147 C 0.13301 0.41023 0.97289 0.0
C148 C 0.12888 0.33999 0.96807 0.0
O149 O 0.13389 0.3804 0.95056 0.0
O150 O 0.11301 0.3632 0.94034 0.0
C151 C 0.07602 0.3785 0.93638 0.0
N152 N 0.0759 0.36512 0.94558 0.0
C153 C 0.04355 0.36578 0.94686 0.0
C154 C 0.04332 0.37951 0.93734 0.0
C155 C 0.05963 0.38593 0.93211 0.0
C156 C 0.0603 0.35892 0.95074 0.0
H157 H 0.08854 0.38347 0.93234 0.0
C158 C 0.12718 0.37305 0.94024 0.0
O159 O 0.14309 0.39658 0.97606 0.0
O160 O 0.11766 0.40664 0.96743 0.0
N161 N 0.07835 0.34077 0.96401 0.0
C162 C 0.08097 0.32818 0.97362 0.0
C163 C 0.06602 0.32068 0.9801 0.0
C164 C 0.04854 0.3261 0.97656 0.0
C165 C 0.04618 0.33899 0.96658 0.0
C166 C 0.06159 0.34595 0.96045 0.0
H167 H 0.09437 0.3239 0.97633 0.0
O168 O 0.10775 0.3796 0.98558 0.0
O169 O 0.09962 0.37161 0.96555 0.0
O170 O 0.13326 0.35523 0.97299 0.0
O171 O 0.11561 0.33769 0.96022 0.0
C172 C 0.02917 0.34539 0.96261 0.0
C173 C 0.02786 0.35884 0.9528 0.0
H174 H 0.0307 0.38531 0.93405 0.0
H175 H 0.05957 0.39658 0.9248 0.0
H176 H 0.06795 0.31075 0.9878 0.0
H177 H 0.03704 0.32035 0.98163 0.0
H178 H 0.01702 0.34021 0.96714 0.0
H179 H 0.01474 0.36386 0.94999 0.0
Mn180 Mn 0.86642 0.87818 0.22256 0.0
Mn181 Mn 0.88914 0.84995 0.20276 0.0
C182 C 0.87305 0.84914 0.22977 0.0
C183 C 0.83825 0.88987 0.22833 0.0
C184 C 0.90609 0.88207 0.2168 0.0
O185 O 0.86498 0.88993 0.20421 0.0
O186 O 0.87469 0.86662 0.19174 0.0
C187 C 0.8592 0.82933 0.1907 0.0
N188 N 0.87486 0.82967 0.19769 0.0
C189 C 0.87602 0.7973 0.19842 0.0
C190 C 0.86006 0.79659 0.19103 0.0
C191 C 0.85152 0.81268 0.18727 0.0
C192 C 0.88289 0.81428 0.2017 0.0
H193 H 0.85261 0.84165 0.18782 0.0
C194 C 0.86718 0.88206 0.19307 0.0
O195 O 0.85296 0.89871 0.23091 0.0
O196 O 0.84001 0.8745 0.22244 0.0
N197 N 0.90338 0.83293 0.21244 0.0
C198 C 0.91802 0.83592 0.22027 0.0
C199 C 0.92753 0.8212 0.2255 0.0
C200 C 0.92208 0.80357 0.22247 0.0
C201 C 0.90707 0.80081 0.21431 0.0
C202 C 0.89802 0.816 0.20949 0.0
H203 H 0.92249 0.8494 0.22249 0.0
O204 O 0.86857 0.86145 0.23827 0.0
O205 O 0.87318 0.85431 0.21758 0.0
O206 O 0.89288 0.88586 0.22441 0.0
O207 O 0.9053 0.87011 0.2077 0.0
C208 C 0.90071 0.78358 0.21081 0.0
C209 C 0.88528 0.78184 0.20277 0.0
H210 H 0.85414 0.78378 0.18832 0.0
H211 H 0.83909 0.81226 0.18169 0.0
H212 H 0.93912 0.82345 0.23177 0.0
H213 H 0.92948 0.79226 0.22649 0.0
H214 H 0.90748 0.77158 0.21433 0.0
H215 H 0.88047 0.76853 0.2002 0.0
Mn216 Mn 0.37512 0.62182 0.4673 0.0
Mn217 Mn 0.40332 0.64941 0.45071 0.0
C218 C 0.40372 0.6279 0.47544 0.0
C219 C 0.36441 0.59264 0.47089 0.0
C220 C 0.37205 0.66295 0.46719 0.0
O221 O 0.36389 0.62254 0.44889 0.0
O222 O 0.38417 0.64045 0.43873 0.0
C223 C 0.4191 0.62213 0.43275 0.0
N224 N 0.42127 0.63504 0.44219 0.0
C225 C 0.45346 0.63142 0.4418 0.0
C226 C 0.45158 0.61816 0.43203 0.0
C227 C 0.43432 0.61344 0.42753 0.0
C228 C 0.4378 0.63948 0.44673 0.0
H229 H 0.40586 0.6185 0.42922 0.0
C230 C 0.36997 0.63066 0.4387 0.0
O231 O 0.35495 0.60659 0.47439 0.0
O232 O 0.37972 0.59573 0.46522 0.0
N233 N 0.42275 0.65888 0.46104 0.0
C234 C 0.42225 0.67188 0.47055 0.0
C235 C 0.43842 0.67805 0.47615 0.0
C236 C 0.45494 0.67099 0.4718 0.0
C237 C 0.45514 0.65786 0.46184 0.0
C238 C 0.4386 0.65223 0.45662 0.0
H239 H 0.40963 0.67752 0.47381 0.0
O240 O 0.39119 0.62216 0.48332 0.0
O241 O 0.39905 0.6299 0.46319 0.0
O242 O 0.3663 0.64765 0.47117 0.0
O243 O 0.38557 0.66506 0.45953 0.0
C244 C 0.4711 0.65014 0.45687 0.0
C245 C 0.47026 0.63692 0.44687 0.0
H246 H 0.4633 0.61147 0.42794 0.0
H247 H 0.43275 0.60317 0.42001 0.0
H248 H 0.43816 0.68826 0.48379 0.0
H249 H 0.46738 0.67575 0.47616 0.0
H250 H 0.48409 0.65418 0.46074 0.0
H251 H 0.4826 0.63097 0.44319 0.0
Mn252 Mn 0.6341 0.12438 0.72005 0.0
Mn253 Mn 0.60766 0.14881 0.69963 0.0
C254 C 0.62717 0.15402 0.72507 0.0
C255 C 0.6627 0.11422 0.72602 0.0
C256 C 0.59323 0.12021 0.71817 0.0
O257 O 0.63488 0.11 0.70285 0.0
O258 O 0.61823 0.12825 0.68981 0.0
C259 C 0.63581 0.16284 0.68165 0.0
N260 N 0.62206 0.1659 0.69027 0.0
C261 C 0.62418 0.19793 0.68702 0.0
C262 C 0.63831 0.19512 0.67805 0.0
C263 C 0.6442 0.17751 0.6754 0.0
C264 C 0.61644 0.1828 0.69302 0.0
H265 H 0.64032 0.14931 0.67954 0.0
C266 C 0.62795 0.11424 0.69172 0.0
O267 O 0.64829 0.10556 0.72959 0.0
O268 O 0.66044 0.12856 0.7189 0.0
N269 N 0.59669 0.16927 0.70787 0.0
C270 C 0.58334 0.16969 0.7171 0.0
C271 C 0.57622 0.18635 0.72112 0.0
C272 C 0.58275 0.20236 0.71547 0.0
C273 C 0.59633 0.20156 0.70586 0.0
C274 C 0.60293 0.18458 0.70228 0.0
H275 H 0.57817 0.15743 0.7214 0.0
O276 O 0.63235 0.14309 0.73433 0.0
O277 O 0.62624 0.14725 0.71327 0.0
O278 O 0.60813 0.11604 0.72366 0.0
O279 O 0.59165 0.13192 0.70901 0.0
C280 C 0.60363 0.21695 0.69972 0.0
C281 C 0.61755 0.21513 0.69032 0.0
H282 H 0.64478 0.2064 0.67319 0.0
H283 H 0.65513 0.17524 0.66853 0.0
H284 H 0.56572 0.18685 0.72852 0.0
H285 H 0.57726 0.21518 0.71861 0.0
H286 H 0.59879 0.23027 0.70228 0.0
H287 H 0.6232 0.22708 0.68578 0.0
Mn288 Mn 0.87732 0.38243 0.97214 0.0
Mn289 Mn 0.90409 0.35593 0.95343 0.0
C290 C 0.90607 0.37517 0.9793 0.0
C291 C 0.86738 0.41158 0.97705 0.0
C292 C 0.87292 0.34159 0.96978 0.0
O293 O 0.8651 0.38317 0.95404 0.0
O294 O 0.88513 0.36686 0.94223 0.0
C295 C 0.92081 0.38424 0.93691 0.0
N296 N 0.92254 0.37026 0.94553 0.0
C297 C 0.95483 0.37268 0.9452 0.0
C298 C 0.95341 0.38703 0.93625 0.0
C299 C 0.93632 0.39286 0.93211 0.0
C300 C 0.93891 0.36458 0.94961 0.0
H301 H 0.90768 0.3888 0.93374 0.0
C302 C 0.87085 0.37641 0.94322 0.0
O303 O 0.85782 0.39759 0.98032 0.0
O304 O 0.88234 0.40854 0.9709 0.0
N305 N 0.92317 0.34459 0.96305 0.0
C306 C 0.92216 0.33113 0.97218 0.0
C307 C 0.93809 0.32398 0.97752 0.0
C308 C 0.95487 0.33065 0.97337 0.0
C309 C 0.95556 0.34441 0.96388 0.0
C310 C 0.93925 0.3509 0.95883 0.0
H311 H 0.9093 0.32593 0.97538 0.0
O312 O 0.89405 0.38062 0.98769 0.0
O313 O 0.90087 0.37424 0.96707 0.0
O314 O 0.8683 0.35643 0.97528 0.0
O315 O 0.8857 0.34018 0.96138 0.0
C316 C 0.97178 0.35215 0.95941 0.0
C317 C 0.97141 0.36632 0.95011 0.0
H318 H 0.96535 0.39377 0.93258 0.0
H319 H 0.93511 0.40399 0.92526 0.0
H320 H 0.93745 0.31337 0.98484 0.0
H321 H 0.96712 0.32519 0.97757 0.0
H322 H 0.9846 0.34749 0.96319 0.0
H323 H 0.98391 0.37239 0.9469 0.0
Mn324 Mn 0.36873 0.11944 0.72389 0.0
Mn325 Mn 0.3959 0.14795 0.70724 0.0
C326 C 0.3739 0.14843 0.73172 0.0
C327 C 0.33993 0.10794 0.72765 0.0
C328 C 0.40982 0.11695 0.72378 0.0
O329 O 0.36991 0.108 0.70551 0.0
O330 O 0.38711 0.12881 0.69521 0.0
C331 C 0.36882 0.16384 0.68918 0.0
N332 N 0.38158 0.16593 0.69873 0.0
C333 C 0.37824 0.19815 0.6983 0.0
C334 C 0.36511 0.19636 0.68841 0.0
C335 C 0.36032 0.17912 0.68389 0.0
C336 C 0.38608 0.18243 0.70331 0.0
H337 H 0.36518 0.15062 0.68562 0.0
C338 C 0.37777 0.1143 0.69527 0.0
O339 O 0.3542 0.09898 0.73112 0.0
O340 O 0.34246 0.12323 0.72179 0.0
N341 N 0.40517 0.16727 0.71776 0.0
C342 C 0.41782 0.16666 0.72751 0.0
C343 C 0.42389 0.18276 0.73327 0.0
C344 C 0.41706 0.19933 0.72882 0.0
C345 C 0.40424 0.19962 0.71864 0.0
C346 C 0.39867 0.18314 0.71331 0.0
H347 H 0.42327 0.15399 0.73085 0.0
O348 O 0.36851 0.1359 0.73973 0.0
O349 O 0.37626 0.14347 0.71957 0.0
O350 O 0.39464 0.11119 0.72796 0.0
O351 O 0.41169 0.13027 0.71594 0.0
C352 C 0.39677 0.21562 0.7136 0.0
C353 C 0.38381 0.2149 0.7034 0.0
H354 H 0.35858 0.20812 0.68427 0.0
H355 H 0.35017 0.17762 0.67629 0.0
H356 H 0.43384 0.18241 0.74108 0.0
H357 H 0.42175 0.21173 0.73329 0.0
H358 H 0.40083 0.22852 0.71759 0.0
H359 H 0.37806 0.22728 0.69964 0.0
Mn360 Mn 0.62317 0.61493 0.47076 0.0
Mn361 Mn 0.59614 0.64034 0.45188 0.0
C362 C 0.59474 0.6231 0.47847 0.0
C363 C 0.63296 0.58582 0.4759 0.0
C364 C 0.6297 0.65438 0.46575 0.0
O365 O 0.63433 0.61343 0.45218 0.0
O366 O 0.6114 0.62519 0.44029 0.0
C367 C 0.57304 0.61248 0.43954 0.0
N368 N 0.57473 0.62776 0.44688 0.0
C369 C 0.54256 0.63107 0.44837 0.0
C370 C 0.54047 0.61555 0.44062 0.0
C371 C 0.55578 0.60612 0.4363 0.0
C372 C 0.56009 0.63663 0.45142 0.0
H373 H 0.58477 0.6052 0.43624 0.0
C374 C 0.62631 0.61657 0.44121 0.0
O375 O 0.64287 0.59977 0.47863 0.0
O376 O 0.6177 0.58886 0.47014 0.0
N377 N 0.5805 0.65531 0.46221 0.0
C378 C 0.58478 0.6693 0.47036 0.0
C379 C 0.57096 0.6795 0.47617 0.0
C380 C 0.55289 0.67539 0.47341 0.0
C381 C 0.54879 0.66103 0.46493 0.0
C382 C 0.56314 0.65124 0.45952 0.0
H383 H 0.59861 0.67273 0.47238 0.0
O384 O 0.60691 0.61753 0.48671 0.0
O385 O 0.59973 0.62347 0.46624 0.0
O386 O 0.63263 0.64072 0.47311 0.0
O387 O 0.61757 0.6548 0.45677 0.0
C388 C 0.53105 0.65599 0.4617 0.0
C389 C 0.52795 0.64112 0.45333 0.0
H390 H 0.52718 0.61063 0.43808 0.0
H391 H 0.55428 0.594 0.43045 0.0
H392 H 0.57424 0.69058 0.48269 0.0
H393 H 0.54227 0.68332 0.47789 0.0
H394 H 0.51968 0.66335 0.46567 0.0
H395 H 0.51425 0.63732 0.45096 0.0
Mn396 Mn 0.13116 0.87708 0.21946 0.0
Mn397 Mn 0.10693 0.85081 0.19886 0.0
C398 C 0.12427 0.84767 0.22533 0.0
C399 C 0.15959 0.88774 0.22572 0.0
C400 C 0.09059 0.88093 0.2153 0.0
O401 O 0.13291 0.89025 0.20176 0.0
O402 O 0.11869 0.87023 0.18857 0.0
C403 C 0.13654 0.83474 0.18321 0.0
N404 N 0.12198 0.83269 0.19126 0.0
C405 C 0.12376 0.80041 0.1897 0.0
C406 C 0.13872 0.80216 0.18134 0.0
C407 C 0.1452 0.8194 0.17814 0.0
C408 C 0.11581 0.81617 0.19456 0.0
H409 H 0.14146 0.84798 0.18066 0.0
C410 C 0.12762 0.88476 0.19043 0.0
O411 O 0.14504 0.89661 0.2287 0.0
O412 O 0.15751 0.87292 0.21916 0.0
N413 N 0.09495 0.83135 0.20762 0.0
C414 C 0.0808 0.83199 0.21618 0.0
C415 C 0.07306 0.81585 0.22068 0.0
C416 C 0.07979 0.79926 0.21619 0.0
C417 C 0.09423 0.79895 0.20726 0.0
C418 C 0.10145 0.81545 0.20318 0.0
H419 H 0.07546 0.84471 0.21956 0.0
O420 O 0.12873 0.85927 0.23435 0.0
O421 O 0.12404 0.85371 0.21331 0.0
O422 O 0.10473 0.88527 0.2218 0.0
O423 O 0.09033 0.86877 0.20636 0.0
C424 C 0.10176 0.78291 0.20227 0.0
C425 C 0.11647 0.78365 0.19345 0.0
H426 H 0.14539 0.79037 0.17737 0.0
H427 H 0.15678 0.82087 0.17173 0.0
H428 H 0.0619 0.81621 0.22756 0.0
H429 H 0.07379 0.78684 0.21969 0.0
H430 H 0.09645 0.76994 0.20523 0.0
H431 H 0.12222 0.77122 0.18975 0.0
Mn432 Mn 0.88078 0.61992 0.03251 0.0
Mn433 Mn 0.90957 0.6444 0.05076 0.0
C434 C 0.90833 0.62871 0.02363 0.0
C435 C 0.87083 0.59095 0.02701 0.0
C436 C 0.87511 0.65943 0.03868 0.0
O437 O 0.87128 0.61721 0.05147 0.0
O438 O 0.89461 0.62938 0.06264 0.0
C439 C 0.93238 0.61525 0.06167 0.0
N440 N 0.9308 0.63094 0.0548 0.0
C441 C 0.96285 0.63251 0.0515 0.0
C442 C 0.96484 0.61652 0.05872 0.0
C443 C 0.94952 0.6078 0.06376 0.0
C444 C 0.94543 0.6393 0.04973 0.0
H445 H 0.92062 0.6084 0.06541 0.0
C446 C 0.87985 0.62045 0.06219 0.0
O447 O 0.86052 0.6049 0.02517 0.0
O448 O 0.88655 0.59394 0.03205 0.0
N449 N 0.92502 0.65926 0.04023 0.0
C450 C 0.92069 0.67371 0.03255 0.0
C451 C 0.93444 0.6835 0.02629 0.0
C452 C 0.9525 0.67844 0.02808 0.0
C453 C 0.95664 0.66358 0.03607 0.0
C454 C 0.94237 0.65434 0.04206 0.0
H455 H 0.90686 0.67776 0.03121 0.0
O456 O 0.89538 0.62363 0.01587 0.0
O457 O 0.90463 0.62827 0.03612 0.0
O458 O 0.87098 0.64583 0.03153 0.0
O459 O 0.88834 0.65955 0.04679 0.0
C460 C 0.97434 0.65739 0.03814 0.0
C461 C 0.97741 0.64175 0.04571 0.0
H462 H 0.97804 0.61069 0.0603 0.0
H463 H 0.95092 0.59534 0.06921 0.0
H464 H 0.93113 0.69493 0.02012 0.0
H465 H 0.96307 0.68597 0.02319 0.0
H466 H 0.98566 0.66436 0.03375 0.0
H467 H 0.99099 0.63677 0.04684 0.0
Mn468 Mn 0.13442 0.13021 0.77859 0.0
Mn469 Mn 0.10932 0.16012 0.79575 0.0
C470 C 0.12909 0.15881 0.77017 0.0
C471 C 0.16243 0.11748 0.77385 0.0
C472 C 0.0932 0.12933 0.78015 0.0
O473 O 0.13458 0.1195 0.79717 0.0
O474 O 0.11786 0.14055 0.8075 0.0
C475 C 0.13858 0.17429 0.81271 0.0
N476 N 0.12513 0.17721 0.8038 0.0
C477 C 0.13075 0.2091 0.80388 0.0
C478 C 0.14458 0.20646 0.81312 0.0
C479 C 0.14854 0.18896 0.81752 0.0
C480 C 0.12129 0.19396 0.79943 0.0
H481 H 0.14171 0.16086 0.8161 0.0
C482 C 0.12711 0.126 0.80749 0.0
O483 O 0.14758 0.10891 0.77128 0.0
O484 O 0.16095 0.13322 0.77929 0.0
N485 N 0.10027 0.18003 0.78576 0.0
C486 C 0.08674 0.18026 0.77665 0.0
C487 C 0.08107 0.19676 0.7713 0.0
C488 C 0.08925 0.21285 0.77544 0.0
C489 C 0.10305 0.21229 0.78489 0.0
C490 C 0.10797 0.19548 0.79 0.0
H491 H 0.08029 0.16796 0.77354 0.0
O492 O 0.13354 0.14573 0.76232 0.0
O493 O 0.12788 0.15475 0.78262 0.0
O494 O 0.10798 0.12256 0.77602 0.0
O495 O 0.09215 0.14329 0.78747 0.0
C496 C 0.11225 0.22773 0.78934 0.0
C497 C 0.12615 0.22614 0.79878 0.0
H498 H 0.15233 0.21775 0.81682 0.0
H499 H 0.15925 0.18679 0.82461 0.0
H500 H 0.07039 0.19707 0.76402 0.0
H501 H 0.08481 0.22555 0.77131 0.0
H502 H 0.10892 0.24083 0.7854 0.0
H503 H 0.13331 0.23806 0.80199 0.0
Mn504 Mn 0.62226 0.37889 0.53419 0.0
Mn505 Mn 0.5938 0.35446 0.55269 0.0
C506 C 0.59476 0.36968 0.52543 0.0
C507 C 0.63194 0.4078 0.52836 0.0
C508 C 0.62849 0.33966 0.54085 0.0
O509 O 0.63165 0.38213 0.55313 0.0
O510 O 0.60839 0.37005 0.56444 0.0
C511 C 0.57031 0.38328 0.56327 0.0
N512 N 0.57227 0.36757 0.55647 0.0
C513 C 0.54031 0.36537 0.55294 0.0
C514 C 0.53791 0.38138 0.56008 0.0
C515 C 0.55299 0.39042 0.5652 0.0
C516 C 0.55788 0.3589 0.55133 0.0
H517 H 0.58187 0.39038 0.56708 0.0
C518 C 0.62304 0.37916 0.56387 0.0
O519 O 0.64237 0.39391 0.52668 0.0
O520 O 0.61624 0.4048 0.53344 0.0
N521 N 0.57875 0.33911 0.5422 0.0
C522 C 0.58346 0.32467 0.53463 0.0
C523 C 0.56998 0.31463 0.52826 0.0
C524 C 0.55182 0.31944 0.52981 0.0
C525 C 0.5473 0.33431 0.53768 0.0
C526 C 0.5613 0.34381 0.54379 0.0
H527 H 0.59736 0.3208 0.53345 0.0
O528 O 0.60767 0.37468 0.5176 0.0
O529 O 0.59852 0.37038 0.5379 0.0
O530 O 0.63235 0.3531 0.53347 0.0
O531 O 0.61533 0.3396 0.54901 0.0
C532 C 0.52947 0.34025 0.53953 0.0
C533 C 0.52601 0.35581 0.54709 0.0
H534 H 0.52458 0.38697 0.56153 0.0
H535 H 0.55128 0.4029 0.57059 0.0
H536 H 0.57359 0.30319 0.52218 0.0
H537 H 0.54146 0.31172 0.52483 0.0
H538 H 0.51833 0.3331 0.53503 0.0
H539 H 0.51234 0.36044 0.54822 0.0
Mn540 Mn 0.36617 0.87335 0.27581 0.0
Mn541 Mn 0.39067 0.84374 0.2936 0.0
C542 C 0.36926 0.84375 0.26885 0.0
C543 C 0.33826 0.88669 0.27132 0.0
C544 C 0.40765 0.87136 0.27548 0.0
O545 O 0.36774 0.88587 0.29369 0.0
O546 O 0.38515 0.86556 0.30421 0.0
C547 C 0.36227 0.83478 0.3131 0.0
N548 N 0.37438 0.8294 0.30378 0.0
C549 C 0.36698 0.79825 0.30735 0.0
C550 C 0.35449 0.80344 0.31703 0.0
C551 C 0.35206 0.8218 0.31986 0.0
C552 C 0.3766 0.8118 0.30082 0.0
H553 H 0.36041 0.84886 0.31538 0.0
C554 C 0.37641 0.8804 0.3038 0.0
O555 O 0.3532 0.89441 0.26771 0.0
O556 O 0.33967 0.87161 0.27763 0.0
N557 N 0.3969 0.82172 0.28486 0.0
C558 C 0.40914 0.81893 0.27504 0.0
C559 C 0.41305 0.80127 0.27096 0.0
C560 C 0.40448 0.78665 0.27713 0.0
C561 C 0.39207 0.78984 0.28731 0.0
C562 C 0.38868 0.80772 0.29092 0.0
H563 H 0.41568 0.8301 0.27024 0.0
O564 O 0.36518 0.85627 0.26043 0.0
O565 O 0.37148 0.84893 0.281 0.0
O566 O 0.39302 0.87923 0.27204 0.0
O567 O 0.40819 0.8577 0.28317 0.0
C568 C 0.38293 0.77597 0.29401 0.0
C569 C 0.37027 0.78016 0.30395 0.0
H570 H 0.34668 0.79346 0.32233 0.0
H571 H 0.34242 0.82593 0.32729 0.0
H572 H 0.42261 0.79895 0.26307 0.0
H573 H 0.40748 0.77305 0.27394 0.0
H574 H 0.38534 0.76203 0.29149 0.0
H575 H 0.36313 0.76935 0.30888 0.0
Mn576 Mn 0.62044 0.11744 0.53161 0.0
Mn577 Mn 0.59181 0.14161 0.5502 0.0
C578 C 0.59326 0.12728 0.52266 0.0
C579 C 0.62992 0.08857 0.52543 0.0
C580 C 0.62688 0.15642 0.53897 0.0
O581 O 0.62943 0.11356 0.55061 0.0
O582 O 0.60605 0.12555 0.56182 0.0
C583 C 0.56798 0.11247 0.55983 0.0
N584 N 0.57013 0.12852 0.55352 0.0
C585 C 0.53827 0.13105 0.54971 0.0
C586 C 0.53566 0.11468 0.55636 0.0
C587 C 0.5506 0.10531 0.56138 0.0
C588 C 0.55589 0.13752 0.54848 0.0
H589 H 0.57944 0.10511 0.56353 0.0
C590 C 0.62064 0.11636 0.56129 0.0
O591 O 0.64055 0.10239 0.52411 0.0
O592 O 0.61415 0.09162 0.53036 0.0
N593 N 0.57706 0.15746 0.53991 0.0
C594 C 0.58198 0.17222 0.53276 0.0
C595 C 0.56866 0.18272 0.52662 0.0
C596 C 0.55043 0.17805 0.52798 0.0
C597 C 0.5457 0.16285 0.53543 0.0
C598 C 0.55954 0.1529 0.54134 0.0
H599 H 0.59594 0.17599 0.53175 0.0
O600 O 0.60627 0.1223 0.51491 0.0
O601 O 0.59671 0.12615 0.53517 0.0
O602 O 0.6308 0.14314 0.53145 0.0
O603 O 0.61354 0.1564 0.54698 0.0
C604 C 0.5278 0.15697 0.53699 0.0
C605 C 0.52413 0.14093 0.54394 0.0
H606 H 0.52228 0.10907 0.55749 0.0
H607 H 0.54873 0.09256 0.56638 0.0
H608 H 0.57244 0.19442 0.52087 0.0
H609 H 0.5402 0.18613 0.52317 0.0
H610 H 0.51679 0.16448 0.53264 0.0
H611 H 0.51044 0.13612 0.54455 0.0
Mn612 Mn 0.13513 0.37662 0.77502 0.0
Mn613 Mn 0.10916 0.34899 0.79335 0.0
C614 C 0.12857 0.34782 0.76751 0.0
C615 C 0.16399 0.38753 0.77033 0.0
C616 C 0.09454 0.38092 0.77791 0.0
O617 O 0.13544 0.38827 0.79337 0.0
O618 O 0.12082 0.36684 0.80512 0.0
C619 C 0.13713 0.33022 0.80898 0.0
N620 N 0.12306 0.32958 0.80036 0.0
C621 C 0.12425 0.29722 0.79953 0.0
C622 C 0.13871 0.29751 0.80845 0.0
C623 C 0.1452 0.31409 0.81317 0.0
C624 C 0.11674 0.31371 0.79573 0.0
H625 H 0.14216 0.34295 0.81261 0.0
C626 C 0.12971 0.38157 0.80423 0.0
O627 O 0.14971 0.39676 0.76724 0.0
O628 O 0.16142 0.37226 0.77621 0.0
N629 N 0.09724 0.33103 0.78297 0.0
C630 C 0.08399 0.33315 0.77378 0.0
C631 C 0.0764 0.31789 0.76777 0.0
C632 C 0.08243 0.30063 0.77132 0.0
C633 C 0.09602 0.2988 0.78085 0.0
C634 C 0.10303 0.31448 0.78655 0.0
H635 H 0.07926 0.34638 0.77104 0.0
O636 O 0.13381 0.36013 0.75925 0.0
O637 O 0.1274 0.35283 0.77976 0.0
O638 O 0.10905 0.38525 0.77189 0.0
O639 O 0.09356 0.36825 0.78642 0.0
C640 C 0.10308 0.28204 0.78476 0.0
C641 C 0.11724 0.28125 0.79406 0.0
H642 H 0.14502 0.28511 0.81166 0.0
H643 H 0.1564 0.31443 0.82001 0.0
H644 H 0.06594 0.31943 0.7604 0.0
H645 H 0.07664 0.28889 0.7666 0.0
H646 H 0.09787 0.26973 0.78052 0.0
H647 H 0.12278 0.26832 0.79681 0.0
Mn648 Mn 0.88314 0.88197 0.03317 0.0
Mn649 Mn 0.91146 0.85662 0.05123 0.0
C650 C 0.91041 0.87256 0.02419 0.0
C651 C 0.87373 0.9111 0.02762 0.0
C652 C 0.87666 0.84244 0.03917 0.0
O653 O 0.874 0.88512 0.05217 0.0
O654 O 0.89669 0.87164 0.0632 0.0
C655 C 0.93463 0.88502 0.06274 0.0
N656 N 0.93285 0.86968 0.05547 0.0
C657 C 0.96486 0.86783 0.05211 0.0
C658 C 0.96707 0.88354 0.05964 0.0
C659 C 0.95187 0.8922 0.06494 0.0
C660 C 0.94736 0.86132 0.05024 0.0
H661 H 0.92298 0.89175 0.06679 0.0
C662 C 0.88241 0.88132 0.06286 0.0
O663 O 0.86313 0.89735 0.02591 0.0
O664 O 0.88947 0.90783 0.03256 0.0
N665 N 0.92673 0.84175 0.04057 0.0
C666 C 0.92222 0.8275 0.03274 0.0
C667 C 0.93585 0.8177 0.02635 0.0
C668 C 0.95397 0.82254 0.02815 0.0
C669 C 0.95828 0.83721 0.03628 0.0
C670 C 0.94413 0.84647 0.0424 0.0
H671 H 0.90834 0.82362 0.03138 0.0
O672 O 0.89748 0.87782 0.01647 0.0
O673 O 0.90682 0.87308 0.03671 0.0
O674 O 0.87265 0.8563 0.03226 0.0
O675 O 0.89006 0.84184 0.0471 0.0
C676 C 0.97605 0.84317 0.03839 0.0
C677 C 0.97931 0.8586 0.04616 0.0
H678 H 0.98034 0.88914 0.06131 0.0
H679 H 0.95345 0.90438 0.0707 0.0
H680 H 0.9324 0.80642 0.02006 0.0
H681 H 0.96444 0.81501 0.02315 0.0
H682 H 0.98729 0.83618 0.0339 0.0
H683 H 0.99294 0.86338 0.04735 0.0
Mn684 Mn 0.3675 0.62421 0.2741 0.0
Mn685 Mn 0.39411 0.65302 0.29101 0.0
C686 C 0.37231 0.65336 0.26649 0.0
C687 C 0.33874 0.61249 0.27014 0.0
C688 C 0.40882 0.62277 0.27406 0.0
O689 O 0.36855 0.6126 0.29237 0.0
O690 O 0.38623 0.63301 0.30265 0.0
C691 C 0.3667 0.66695 0.30968 0.0
N692 N 0.37922 0.67001 0.30009 0.0
C693 C 0.37475 0.70204 0.30152 0.0
C694 C 0.36186 0.69925 0.31145 0.0
C695 C 0.35775 0.68162 0.31549 0.0
C696 C 0.38305 0.68689 0.29598 0.0
H697 H 0.36359 0.65344 0.31289 0.0
C698 C 0.37682 0.61855 0.30254 0.0
O699 O 0.35311 0.60367 0.26666 0.0
O700 O 0.34117 0.62775 0.27606 0.0
N701 N 0.40249 0.67322 0.28098 0.0
C702 C 0.41505 0.67363 0.27117 0.0
C703 C 0.42045 0.69024 0.26585 0.0
C704 C 0.41308 0.70629 0.27081 0.0
C705 C 0.40038 0.70556 0.28106 0.0
C706 C 0.39546 0.6886 0.28592 0.0
H707 H 0.42091 0.66138 0.26744 0.0
O708 O 0.3673 0.64081 0.25836 0.0
O709 O 0.37458 0.64833 0.27864 0.0
O710 O 0.39371 0.61628 0.27026 0.0
O711 O 0.41039 0.63638 0.28168 0.0
C712 C 0.39246 0.721 0.28666 0.0
C713 C 0.37967 0.71925 0.2969 0.0
H714 H 0.355 0.71053 0.316 0.0
H715 H 0.34779 0.67935 0.32312 0.0
H716 H 0.43032 0.69067 0.25798 0.0
H717 H 0.41726 0.71908 0.26669 0.0
H718 H 0.39604 0.73425 0.28306 0.0
H719 H 0.37357 0.73123 0.30107 0.0
Mn720 Mn 0.62414 0.87969 0.47166 0.0
Mn721 Mn 0.5962 0.85145 0.45545 0.0
C722 C 0.59609 0.87253 0.48043 0.0
C723 C 0.6339 0.90924 0.47527 0.0
C724 C 0.62941 0.83894 0.47029 0.0
O725 O 0.63436 0.87963 0.45285 0.0
O726 O 0.61341 0.86232 0.4428 0.0
C727 C 0.57659 0.87796 0.43901 0.0
N728 N 0.5764 0.86462 0.44825 0.0
C729 C 0.54411 0.86584 0.44983 0.0
C730 C 0.54393 0.87953 0.44029 0.0
C731 C 0.56025 0.88565 0.43488 0.0
C732 C 0.56079 0.85868 0.45355 0.0
H733 H 0.58911 0.88272 0.43485 0.0
C734 C 0.6275 0.87229 0.44258 0.0
O735 O 0.64404 0.8956 0.47835 0.0
O736 O 0.61846 0.90565 0.46996 0.0
N737 N 0.57875 0.84028 0.46671 0.0
C738 C 0.58133 0.82775 0.47637 0.0
C739 C 0.56637 0.82059 0.48304 0.0
C740 C 0.54893 0.82629 0.47965 0.0
C741 C 0.54662 0.83912 0.46962 0.0
C742 C 0.56202 0.84573 0.46329 0.0
H743 H 0.59469 0.82328 0.47898 0.0
O744 O 0.60878 0.8785 0.48808 0.0
O745 O 0.60038 0.87079 0.46808 0.0
O746 O 0.63421 0.85417 0.47504 0.0
O747 O 0.61586 0.83671 0.46271 0.0
C748 C 0.52966 0.84582 0.4658 0.0
C749 C 0.52842 0.85923 0.45597 0.0
H750 H 0.53136 0.88554 0.43711 0.0
H751 H 0.56023 0.89627 0.42755 0.0
H752 H 0.56827 0.81071 0.49078 0.0
H753 H 0.53743 0.82083 0.48488 0.0
H754 H 0.51752 0.8409 0.4705 0.0
H755 H 0.51538 0.86453 0.45329 0.0
Mn756 Mn 0.3698 0.36809 0.72061 0.0
Mn757 Mn 0.39285 0.33733 0.70283 0.0
C758 C 0.3727 0.33867 0.72817 0.0
C759 C 0.3423 0.38212 0.72526 0.0
C760 C 0.4111 0.36602 0.71954 0.0
O761 O 0.37095 0.37984 0.70235 0.0
O762 O 0.38574 0.35788 0.69151 0.0
C763 C 0.36323 0.32582 0.68513 0.0
N764 N 0.37621 0.32167 0.69416 0.0
C765 C 0.36978 0.29003 0.69228 0.0
C766 C 0.3564 0.29394 0.68292 0.0
C767 C 0.35305 0.31193 0.67939 0.0
C768 C 0.37932 0.30445 0.6978 0.0
H769 H 0.36071 0.33961 0.6823 0.0
C770 C 0.3777 0.37313 0.69183 0.0
O771 O 0.35748 0.3897 0.72845 0.0
O772 O 0.34322 0.36676 0.71926 0.0
N773 N 0.40036 0.31642 0.71242 0.0
C774 C 0.41325 0.31496 0.72196 0.0
C775 C 0.41799 0.29785 0.72675 0.0
C776 C 0.40959 0.28243 0.72159 0.0
C777 C 0.39646 0.28428 0.71172 0.0
C778 C 0.39223 0.30166 0.70738 0.0
H779 H 0.41971 0.32675 0.72597 0.0
O780 O 0.36901 0.35157 0.73638 0.0
O781 O 0.37457 0.34339 0.71591 0.0
O782 O 0.39678 0.37365 0.72385 0.0
O783 O 0.41092 0.35256 0.71166 0.0
C784 C 0.3874 0.26955 0.70603 0.0
C785 C 0.37401 0.2724 0.69636 0.0
H786 H 0.3486 0.28325 0.67841 0.0
H787 H 0.34272 0.31507 0.6722 0.0
H788 H 0.4281 0.29656 0.7344 0.0
H789 H 0.41326 0.26925 0.72532 0.0
H790 H 0.39045 0.25599 0.70915 0.0
H791 H 0.36696 0.26095 0.69221 0.0
Mn792 Mn 0.87688 0.11945 0.97035 0.0
Mn793 Mn 0.90075 0.1461 0.94979 0.0
C794 C 0.90614 0.12768 0.97564 0.0
C795 C 0.86829 0.09022 0.97627 0.0
C796 C 0.87081 0.15996 0.96754 0.0
O797 O 0.86295 0.11774 0.95295 0.0
O798 O 0.88138 0.13392 0.93972 0.0
C799 C 0.91731 0.11816 0.93281 0.0
N800 N 0.91912 0.13237 0.94123 0.0
C801 C 0.95136 0.13203 0.93886 0.0
C802 C 0.94984 0.11746 0.93011 0.0
C803 C 0.93275 0.11044 0.92713 0.0
C804 C 0.93552 0.13907 0.9443 0.0
H805 H 0.90418 0.1128 0.93044 0.0
C806 C 0.86753 0.12399 0.94167 0.0
O807 O 0.85872 0.10407 0.97983 0.0
O808 O 0.8825 0.09343 0.96926 0.0
N809 N 0.9201 0.15854 0.95834 0.0
C810 C 0.91928 0.17213 0.96738 0.0
C811 C 0.93528 0.18027 0.97174 0.0
C812 C 0.95192 0.1745 0.96667 0.0
C813 C 0.95241 0.16062 0.95728 0.0
C814 C 0.93603 0.15298 0.95333 0.0
H815 H 0.90652 0.17671 0.97123 0.0
O816 O 0.89526 0.1222 0.98483 0.0
O817 O 0.89951 0.12812 0.96379 0.0
O818 O 0.86744 0.14525 0.97365 0.0
O819 O 0.88247 0.16138 0.95832 0.0
C820 C 0.96851 0.154 0.95172 0.0
C821 C 0.96797 0.13976 0.94248 0.0
H822 H 0.96171 0.11149 0.92569 0.0
H823 H 0.93147 0.09915 0.92042 0.0
H824 H 0.93479 0.19099 0.97898 0.0
H825 H 0.96424 0.18079 0.97008 0.0
H826 H 0.98139 0.15964 0.95457 0.0
H827 H 0.98045 0.13469 0.93837 0.0
Mn828 Mn 0.13087 0.62605 0.21907 0.0
Mn829 Mn 0.10651 0.65246 0.19864 0.0
C830 C 0.1244 0.65554 0.22493 0.0
C831 C 0.15921 0.61504 0.22516 0.0
C832 C 0.09015 0.62276 0.21546 0.0
O833 O 0.13212 0.61272 0.20139 0.0
O834 O 0.11774 0.63277 0.18831 0.0
C835 C 0.13604 0.66791 0.18259 0.0
N836 N 0.12167 0.67027 0.19077 0.0
C837 C 0.12399 0.7025 0.18908 0.0
C838 C 0.13876 0.70043 0.18058 0.0
C839 C 0.14487 0.68305 0.17738 0.0
C840 C 0.11585 0.68692 0.19407 0.0
H841 H 0.14069 0.65457 0.18004 0.0
C842 C 0.12658 0.61816 0.19011 0.0
O843 O 0.14457 0.6064 0.22827 0.0
O844 O 0.15729 0.62981 0.21852 0.0
N845 N 0.09499 0.67219 0.20741 0.0
C846 C 0.08094 0.67187 0.21608 0.0
C847 C 0.07353 0.68817 0.22055 0.0
C848 C 0.08046 0.70461 0.21594 0.0
C849 C 0.09477 0.7046 0.20689 0.0
C850 C 0.10166 0.68794 0.20283 0.0
H851 H 0.07544 0.65927 0.21956 0.0
O852 O 0.12894 0.64394 0.23393 0.0
O853 O 0.12392 0.64948 0.21291 0.0
O854 O 0.10441 0.61825 0.22174 0.0
O855 O 0.0898 0.63483 0.20646 0.0
C856 C 0.1025 0.72046 0.20177 0.0
C857 C 0.11707 0.71941 0.19285 0.0
H858 H 0.14557 0.71207 0.1765 0.0
H859 H 0.15631 0.68134 0.17086 0.0
H860 H 0.06246 0.68806 0.22751 0.0
H861 H 0.07472 0.71715 0.21942 0.0
H862 H 0.09746 0.73355 0.20473 0.0
H863 H 0.12299 0.73171 0.18906 0.0
Mn864 Mn 0.37964 0.88645 0.46919 0.0
Mn865 Mn 0.40742 0.85795 0.45299 0.0
C866 C 0.40769 0.8793 0.47788 0.0
C867 C 0.3696 0.91586 0.47295 0.0
C868 C 0.37544 0.84533 0.46903 0.0
O869 O 0.36903 0.88635 0.45057 0.0
O870 O 0.38857 0.86721 0.44088 0.0
C871 C 0.42388 0.88485 0.43507 0.0
N872 N 0.42572 0.87184 0.44447 0.0
C873 C 0.45794 0.87515 0.44449 0.0
C874 C 0.4564 0.8885 0.43474 0.0
C875 C 0.43929 0.89339 0.43004 0.0
C876 C 0.4421 0.8671 0.44912 0.0
H877 H 0.41075 0.88872 0.43146 0.0
C878 C 0.37485 0.87764 0.44057 0.0
O879 O 0.35965 0.90207 0.47602 0.0
O880 O 0.38504 0.91248 0.46755 0.0
N881 N 0.42654 0.84806 0.46339 0.0
C882 C 0.42568 0.83521 0.47299 0.0
C883 C 0.44165 0.82882 0.47875 0.0
C884 C 0.45834 0.83558 0.4745 0.0
C885 C 0.4589 0.84866 0.46451 0.0
C886 C 0.44255 0.85436 0.45903 0.0
H887 H 0.41291 0.82988 0.47621 0.0
O888 O 0.39501 0.88529 0.48552 0.0
O889 O 0.40354 0.87765 0.46547 0.0
O890 O 0.36982 0.86085 0.47265 0.0
O891 O 0.38929 0.84277 0.46179 0.0
C892 C 0.47502 0.85642 0.45988 0.0
C893 C 0.47453 0.86972 0.44992 0.0
H894 H 0.46826 0.89516 0.43087 0.0
H895 H 0.43799 0.90374 0.42256 0.0
H896 H 0.44111 0.8187 0.48644 0.0
H897 H 0.47063 0.83064 0.47898 0.0
H898 H 0.48781 0.85241 0.46406 0.0
H899 H 0.48695 0.8758 0.44655 0.0
Mn900 Mn 0.86585 0.62829 0.22197 0.0
Mn901 Mn 0.88941 0.65519 0.20139 0.0
C902 C 0.87236 0.65766 0.22802 0.0
C903 C 0.83771 0.61714 0.22831 0.0
C904 C 0.90649 0.62537 0.21772 0.0
O905 O 0.86426 0.61516 0.20425 0.0
O906 O 0.87817 0.63545 0.1911 0.0
C907 C 0.85911 0.6704 0.186 0.0
N908 N 0.87373 0.67288 0.19392 0.0
C909 C 0.87061 0.70509 0.19274 0.0
C910 C 0.85558 0.70289 0.18451 0.0
C911 C 0.84976 0.68546 0.18117 0.0
C912 C 0.8793 0.68957 0.19734 0.0
H913 H 0.85465 0.65702 0.18337 0.0
C914 C 0.86951 0.62075 0.19295 0.0
O915 O 0.85241 0.60848 0.23121 0.0
O916 O 0.83946 0.632 0.22175 0.0
N917 N 0.90094 0.67499 0.21007 0.0
C918 C 0.9154 0.67477 0.21837 0.0
C919 C 0.92271 0.69112 0.22284 0.0
C920 C 0.91523 0.70752 0.2186 0.0
C921 C 0.9005 0.70741 0.20992 0.0
C922 C 0.89379 0.6907 0.20581 0.0
H923 H 0.92131 0.66221 0.22156 0.0
O924 O 0.86809 0.64589 0.23697 0.0
O925 O 0.87251 0.65184 0.21593 0.0
O926 O 0.89243 0.62061 0.22415 0.0
O927 O 0.90653 0.63765 0.20886 0.0
C928 C 0.89219 0.72322 0.20522 0.0
C929 C 0.87726 0.72206 0.19663 0.0
H930 H 0.84836 0.71448 0.18074 0.0
H931 H 0.83813 0.68366 0.17486 0.0
H932 H 0.9341 0.69109 0.22951 0.0
H933 H 0.92087 0.7201 0.2221 0.0
H934 H 0.89706 0.73634 0.20824 0.0
H935 H 0.87088 0.7343 0.19318 0.0
Mn936 Mn 0.12831 0.1194 0.97052 0.0
Mn937 Mn 0.10417 0.1458 0.94999 0.0
C938 C 0.09897 0.12733 0.97586 0.0
C939 C 0.13727 0.09021 0.97618 0.0
C940 C 0.13428 0.15978 0.9676 0.0
O941 O 0.14232 0.11806 0.95313 0.0
O942 O 0.12323 0.13334 0.93981 0.0
C943 C 0.08706 0.11792 0.93325 0.0
N944 N 0.08553 0.13218 0.94165 0.0
C945 C 0.05327 0.13232 0.93944 0.0
C946 C 0.0545 0.11769 0.93071 0.0
C947 C 0.07147 0.1104 0.92766 0.0
C948 C 0.06926 0.13913 0.94479 0.0
H949 H 0.1001 0.11237 0.93082 0.0
C950 C 0.13735 0.12383 0.94181 0.0
O951 O 0.14668 0.10412 0.97985 0.0
O952 O 0.12297 0.09336 0.96925 0.0
N953 N 0.08509 0.15845 0.9587 0.0
C954 C 0.08618 0.17204 0.96772 0.0
C955 C 0.07033 0.18039 0.97218 0.0
C956 C 0.05356 0.17484 0.9672 0.0
C957 C 0.05279 0.16095 0.95782 0.0
C958 C 0.06903 0.15308 0.95379 0.0
H959 H 0.09904 0.17646 0.9715 0.0
O960 O 0.10989 0.1218 0.98502 0.0
O961 O 0.10559 0.1279 0.96402 0.0
O962 O 0.13748 0.14521 0.97393 0.0
O963 O 0.12275 0.16103 0.95827 0.0
C964 C 0.03656 0.15457 0.95233 0.0
C965 C 0.03681 0.14033 0.9431 0.0
H966 H 0.04251 0.11189 0.92635 0.0
H967 H 0.07252 0.09908 0.92097 0.0
H968 H 0.07104 0.19111 0.97941 0.0
H969 H 0.04137 0.18131 0.97066 0.0
H970 H 0.02379 0.16041 0.95523 0.0
H971 H 0.02423 0.13545 0.93902 0.0
Mn972 Mn 0.63451 0.37686 0.72166 0.0
Mn973 Mn 0.60949 0.3529 0.70004 0.0
C974 C 0.62757 0.347 0.72601 0.0
C975 C 0.66305 0.38676 0.72827 0.0
C976 C 0.59378 0.3811 0.71848 0.0
O977 O 0.6359 0.39184 0.70473 0.0
O978 O 0.6209 0.37342 0.69077 0.0
C979 C 0.63856 0.33873 0.68293 0.0
N980 N 0.62426 0.33574 0.69107 0.0
C981 C 0.62601 0.30376 0.68752 0.0
C982 C 0.64071 0.30648 0.67905 0.0
C983 C 0.64706 0.32404 0.6768 0.0
C984 C 0.61818 0.3189 0.69344 0.0
H985 H 0.6434 0.35222 0.68111 0.0
C986 C 0.63008 0.38761 0.69326 0.0
O987 O 0.64856 0.39532 0.73184 0.0
O988 O 0.66087 0.37272 0.72085 0.0
N989 N 0.59779 0.3325 0.70777 0.0
C990 C 0.58397 0.33213 0.71664 0.0
C991 C 0.57643 0.31552 0.7203 0.0
C992 C 0.583 0.2995 0.71469 0.0
C993 C 0.59708 0.30025 0.70547 0.0
C994 C 0.60411 0.31718 0.70224 0.0
H995 H 0.57877 0.34441 0.7209 0.0
O996 O 0.63233 0.35764 0.73556 0.0
O997 O 0.62713 0.35417 0.71432 0.0
O998 O 0.60819 0.38481 0.72487 0.0
O999 O 0.59312 0.3699 0.70891 0.0
C1000 C 0.60447 0.28485 0.69939 0.0
C1001 C 0.61891 0.28661 0.69042 0.0
H1002 H 0.64728 0.29519 0.67428 0.0
H1003 H 0.65844 0.32625 0.6703 0.0
H1004 H 0.56555 0.31506 0.72741 0.0
H1005 H 0.57716 0.28672 0.71755 0.0
H1006 H 0.59929 0.27157 0.70167 0.0
H1007 H 0.62462 0.27465 0.68593 0.0
Mn1008 Mn 0.37694 0.12301 0.53076 0.0
Mn1009 Mn 0.40403 0.14822 0.55013 0.0
C1010 C 0.40539 0.13119 0.52346 0.0
C1011 C 0.36726 0.0942 0.52465 0.0
C1012 C 0.37242 0.16363 0.53485 0.0
O1013 O 0.36528 0.12054 0.54899 0.0
O1014 O 0.38522 0.13657 0.56105 0.0
C1015 C 0.42084 0.11877 0.56548 0.0
N1016 N 0.42251 0.13329 0.55734 0.0
C1017 C 0.45478 0.13083 0.55743 0.0
C1018 C 0.45344 0.11593 0.56589 0.0
C1019 C 0.43638 0.10984 0.5699 0.0
C1020 C 0.43883 0.13919 0.55336 0.0
H1021 H 0.40775 0.11403 0.56857 0.0
C1022 C 0.37111 0.1268 0.55994 0.0
O1023 O 0.35738 0.10829 0.52221 0.0
O1024 O 0.38235 0.09695 0.53071 0.0
N1025 N 0.423 0.16018 0.54082 0.0
C1026 C 0.42193 0.17427 0.53223 0.0
C1027 C 0.43781 0.1817 0.52703 0.0
C1028 C 0.45462 0.17467 0.53079 0.0
C1029 C 0.45538 0.16028 0.53975 0.0
C1030 C 0.43911 0.1535 0.54467 0.0
H1031 H 0.40904 0.17975 0.52934 0.0
O1032 O 0.39313 0.12637 0.51504 0.0
O1033 O 0.4006 0.13098 0.5358 0.0
O1034 O 0.36753 0.14914 0.52898 0.0
O1035 O 0.3856 0.16452 0.54294 0.0
C1036 C 0.47163 0.15227 0.5439 0.0
C1037 C 0.47131 0.13756 0.55274 0.0
H1038 H 0.4654 0.10898 0.56929 0.0
H1039 H 0.43522 0.0983 0.57637 0.0
H1040 H 0.43711 0.19281 0.52012 0.0
H1041 H 0.46683 0.18036 0.5267 0.0
H1042 H 0.4844 0.15724 0.54026 0.0
H1043 H 0.48381 0.13139 0.55584 0.0
Mn1044 Mn 0.63158 0.63443 0.28074 0.0
Mn1045 Mn 0.60754 0.66397 0.29874 0.0
C1046 C 0.62425 0.66245 0.27194 0.0
C1047 C 0.65996 0.62285 0.27546 0.0
C1048 C 0.59147 0.63046 0.28597 0.0
O1049 O 0.63357 0.62472 0.29967 0.0
O1050 O 0.62117 0.64796 0.31077 0.0
C1051 C 0.63705 0.68496 0.311 0.0
N1052 N 0.6218 0.68436 0.30353 0.0
C1053 C 0.62195 0.71653 0.30077 0.0
C1054 C 0.63756 0.71753 0.30854 0.0
C1055 C 0.64518 0.70165 0.31363 0.0
C1056 C 0.61445 0.69953 0.29848 0.0
H1057 H 0.64299 0.67278 0.31486 0.0
C1058 C 0.62995 0.63311 0.3104 0.0
O1059 O 0.64544 0.61344 0.27351 0.0
O1060 O 0.65792 0.63876 0.28047 0.0
N1061 N 0.59401 0.68044 0.28809 0.0
C1062 C 0.57974 0.67706 0.27998 0.0
C1063 C 0.57094 0.69147 0.27373 0.0
C1064 C 0.5768 0.7092 0.27595 0.0
C1065 C 0.59145 0.71234 0.28438 0.0
C1066 C 0.59969 0.69746 0.29035 0.0
H1067 H 0.57507 0.66349 0.2783 0.0
O1068 O 0.62886 0.64934 0.26416 0.0
O1069 O 0.62421 0.65864 0.28443 0.0
O1070 O 0.60535 0.62568 0.27936 0.0
O1071 O 0.59148 0.64373 0.29403 0.0
C1072 C 0.5984 0.72963 0.28692 0.0
C1073 C 0.61375 0.73171 0.29499 0.0
H1074 H 0.64391 0.73037 0.31054 0.0
H1075 H 0.65731 0.70229 0.31955 0.0
H1076 H 0.55966 0.68892 0.26722 0.0
H1077 H 0.57004 0.72027 0.27106 0.0
H1078 H 0.59222 0.74139 0.28251 0.0
H1079 H 0.61931 0.74499 0.29652 0.0
Mn1080 Mn 0.12706 0.88109 0.031 0.0
Mn1081 Mn 0.1009 0.85518 0.05053 0.0
C1082 C 0.09859 0.8727 0.024 0.0
C1083 C 0.13637 0.91018 0.02535 0.0
C1084 C 0.13232 0.84054 0.03459 0.0
O1085 O 0.13916 0.88321 0.04904 0.0
O1086 O 0.11962 0.86717 0.06141 0.0
C1087 C 0.08365 0.8841 0.06618 0.0
N1088 N 0.08219 0.86962 0.05798 0.0
C1089 C 0.04986 0.87154 0.05817 0.0
C1090 C 0.05101 0.88639 0.0667 0.0
C1091 C 0.06798 0.89272 0.07069 0.0
C1092 C 0.06593 0.86346 0.05403 0.0
H1093 H 0.09668 0.88905 0.06923 0.0
C1094 C 0.13363 0.87706 0.06011 0.0
O1095 O 0.14628 0.89627 0.02249 0.0
O1096 O 0.12138 0.90708 0.03146 0.0
N1097 N 0.08205 0.84293 0.04128 0.0
C1098 C 0.0833 0.82897 0.03258 0.0
C1099 C 0.06751 0.82131 0.0274 0.0
C1100 C 0.05062 0.828 0.03127 0.0
C1101 C 0.04966 0.84226 0.04033 0.0
C1102 C 0.06585 0.84925 0.04525 0.0
H1103 H 0.09626 0.82376 0.02959 0.0
O1104 O 0.11053 0.87798 0.01547 0.0
O1105 O 0.10369 0.87268 0.03628 0.0
O1106 O 0.13667 0.85516 0.02868 0.0
O1107 O 0.11958 0.83936 0.04305 0.0
C1108 C 0.03331 0.84999 0.04454 0.0
C1109 C 0.03342 0.86463 0.05344 0.0
H1110 H 0.03895 0.89312 0.07015 0.0
H1111 H 0.06898 0.90424 0.07721 0.0
H1112 H 0.06836 0.81031 0.0204 0.0
H1113 H 0.03848 0.82215 0.02717 0.0
H1114 H 0.02059 0.8449 0.04086 0.0
H1115 H 0.02083 0.87064 0.05653 0.0
Mn1116 Mn 0.87192 0.37395 0.77854 0.0
Mn1117 Mn 0.89888 0.34587 0.79578 0.0
C1118 C 0.87839 0.34542 0.77047 0.0
C1119 C 0.84288 0.38481 0.77439 0.0
C1120 C 0.91279 0.37804 0.78033 0.0
O1121 O 0.87204 0.38503 0.79711 0.0
O1122 O 0.88822 0.36386 0.8079 0.0
C1123 C 0.87137 0.3276 0.81217 0.0
N1124 N 0.885 0.3267 0.80319 0.0
C1125 C 0.88324 0.29437 0.80246 0.0
C1126 C 0.86923 0.29493 0.81175 0.0
C1127 C 0.86323 0.31162 0.81659 0.0
C1128 C 0.8908 0.31072 0.79841 0.0
H1129 H 0.86673 0.34042 0.81591 0.0
C1130 C 0.87889 0.37837 0.80763 0.0
O1131 O 0.85704 0.39421 0.77129 0.0
O1132 O 0.84567 0.36941 0.78004 0.0
N1133 N 0.90993 0.32769 0.78511 0.0
C1134 C 0.92289 0.32956 0.77566 0.0
C1135 C 0.93006 0.31414 0.76958 0.0
C1136 C 0.92396 0.29699 0.77335 0.0
C1137 C 0.91069 0.29541 0.78315 0.0
C1138 C 0.90408 0.31124 0.78888 0.0
H1139 H 0.92771 0.3427 0.77278 0.0
O1140 O 0.87286 0.35794 0.76249 0.0
O1141 O 0.87996 0.35007 0.78277 0.0
O1142 O 0.89786 0.38285 0.77511 0.0
O1143 O 0.91435 0.3649 0.78838 0.0
C1144 C 0.9036 0.27876 0.78733 0.0
C1145 C 0.88981 0.27825 0.79691 0.0
H1146 H 0.8629 0.28263 0.81517 0.0
H1147 H 0.85238 0.31217 0.82372 0.0
H1148 H 0.94028 0.31547 0.76201 0.0
H1149 H 0.92946 0.28513 0.76859 0.0
H1150 H 0.90852 0.26631 0.78309 0.0
H1151 H 0.88423 0.2654 0.79987 0.0
C1152 C 0.11868 0.60602 0.16802 0.0
C1153 C 0.13148 0.60804 0.17811 0.0
C1154 C 0.12391 0.60038 0.15544 0.0
C1155 C 0.16123 0.60696 0.13363 0.0
H1156 H 0.13151 0.57944 0.10942 0.0
C1157 C 0.14327 0.62932 0.08158 0.0
C1158 C 0.14105 0.61663 0.07143 0.0
C1159 C 0.14838 0.62385 0.09423 0.0
C1160 C 0.14027 0.58684 0.11604 0.0
H1161 H 0.15959 0.60491 0.18328 0.0
H1162 H 0.16893 0.59542 0.16102 0.0
H1163 H 0.12765 0.57566 0.13326 0.0
H1164 H 0.14323 0.58841 0.06628 0.0
H1165 H 0.15176 0.57869 0.08866 0.0
H1166 H 0.17289 0.61913 0.11642 0.0
C1167 C 0.1548 0.59794 0.16294 0.0
C1168 C 0.13797 0.58475 0.12968 0.0
C1169 C 0.14946 0.60324 0.17566 0.0
C1170 C 0.14504 0.59846 0.07394 0.0
C1171 C 0.14981 0.5929 0.08672 0.0
C1172 C 0.16339 0.60918 0.11999 0.0
C1173 C 0.14213 0.597 0.15261 0.0
C1174 C 0.14787 0.59538 0.1386 0.0
C1175 C 0.15104 0.60552 0.09707 0.0
C1176 C 0.15237 0.59973 0.11108 0.0
H1177 H 0.10475 0.60974 0.16968 0.0
H1178 H 0.11387 0.6 0.14767 0.0
H1179 H 0.16898 0.61542 0.14025 0.0
H1180 H 0.1402 0.6434 0.07989 0.0
H1181 H 0.14899 0.63387 0.10201 0.0
C1182 C 0.63264 0.8638 0.41915 0.0
C1183 C 0.6349 0.87642 0.42936 0.0
C1184 C 0.63523 0.86878 0.40602 0.0
C1185 C 0.65288 0.90141 0.38238 0.0
H1186 H 0.60965 0.88837 0.36309 0.0
C1187 C 0.64713 0.89399 0.32549 0.0
C1188 C 0.63007 0.89634 0.31978 0.0
C1189 C 0.64965 0.89712 0.33902 0.0
C1190 C 0.6217 0.89248 0.36831 0.0
H1191 H 0.64315 0.90371 0.43394 0.0
H1192 H 0.64771 0.91248 0.41071 0.0
H1193 H 0.61179 0.88168 0.38646 0.0
H1194 H 0.60276 0.90523 0.32318 0.0
H1195 H 0.60728 0.91154 0.34665 0.0
H1196 H 0.6629 0.91186 0.36395 0.0
C1197 C 0.64394 0.89874 0.41299 0.0
C1198 C 0.62301 0.88838 0.38169 0.0
C1199 C 0.64138 0.89371 0.42625 0.0
C1200 C 0.61606 0.90351 0.3274 0.0
C1201 C 0.61863 0.90691 0.34085 0.0
C1202 C 0.65162 0.90542 0.36883 0.0
C1203 C 0.64006 0.88651 0.40277 0.0
C1204 C 0.63872 0.89242 0.38881 0.0
C1205 C 0.63512 0.90266 0.34698 0.0
C1206 C 0.63606 0.90078 0.36162 0.0
H1207 H 0.62787 0.85031 0.42126 0.0
H1208 H 0.6325 0.85899 0.39832 0.0
H1209 H 0.6651 0.90472 0.38769 0.0
H1210 H 0.658 0.88812 0.31979 0.0
H1211 H 0.66248 0.89361 0.34342 0.0
C1212 C 0.36003 0.39382 0.67687 0.0
C1213 C 0.37462 0.38201 0.6789 0.0
C1214 C 0.35504 0.39887 0.66399 0.0
C1215 C 0.35789 0.4117 0.63342 0.0
H1216 H 0.34985 0.36876 0.61235 0.0
C1217 C 0.37331 0.40588 0.57831 0.0
C1218 C 0.3643 0.39304 0.5706 0.0
C1219 C 0.36835 0.40875 0.59145 0.0
C1220 C 0.35154 0.38098 0.61808 0.0
H1221 H 0.39632 0.36761 0.6691 0.0
H1222 H 0.38751 0.37628 0.64687 0.0
H1223 H 0.3543 0.3661 0.63608 0.0
H1224 H 0.34223 0.37407 0.57006 0.0
H1225 H 0.33329 0.37916 0.59312 0.0
H1226 H 0.35617 0.42651 0.61523 0.0
C1227 C 0.37983 0.38142 0.65517 0.0
C1228 C 0.35425 0.3794 0.63166 0.0
C1229 C 0.38486 0.3765 0.66792 0.0
C1230 C 0.34924 0.38417 0.57583 0.0
C1231 C 0.34427 0.38699 0.58904 0.0
C1232 C 0.3553 0.4133 0.61973 0.0
C1233 C 0.36455 0.3921 0.65306 0.0
C1234 C 0.35809 0.39464 0.63936 0.0
C1235 C 0.35436 0.39865 0.59718 0.0
C1236 C 0.35275 0.39785 0.61184 0.0
H1237 H 0.35185 0.39825 0.68512 0.0
H1238 H 0.34324 0.40721 0.66254 0.0
H1239 H 0.36084 0.42363 0.63921 0.0
H1240 H 0.38499 0.41284 0.57443 0.0
H1241 H 0.37652 0.41771 0.5974 0.0
C1242 C 0.85526 0.10008 0.92689 0.0
C1243 C 0.85761 0.11843 0.92976 0.0
C1244 C 0.85083 0.09462 0.91402 0.0
C1245 C 0.8616 0.09082 0.88485 0.0
H1246 H 0.83079 0.11707 0.86061 0.0
C1247 C 0.88233 0.11267 0.83309 0.0
C1248 C 0.8697 0.11273 0.82276 0.0
C1249 C 0.87738 0.10703 0.84574 0.0
C1250 C 0.83919 0.10928 0.86724 0.0
H1251 H 0.85574 0.14549 0.92195 0.0
H1252 H 0.84744 0.13609 0.89969 0.0
H1253 H 0.8258 0.11956 0.88444 0.0
H1254 H 0.84222 0.10622 0.81737 0.0
H1255 H 0.83338 0.09679 0.83972 0.0
H1256 H 0.87584 0.08164 0.86768 0.0
C1257 C 0.84907 0.12586 0.90723 0.0
C1258 C 0.83639 0.11078 0.88087 0.0
C1259 C 0.85386 0.13127 0.91997 0.0
C1260 C 0.85225 0.10616 0.82515 0.0
C1261 C 0.84717 0.10086 0.83792 0.0
C1262 C 0.86453 0.08949 0.87123 0.0
C1263 C 0.84833 0.10748 0.90396 0.0
C1264 C 0.84803 0.10217 0.88982 0.0
C1265 C 0.85961 0.10166 0.84839 0.0
C1266 C 0.85382 0.0993 0.86232 0.0
H1267 H 0.85834 0.08994 0.93425 0.0
H1268 H 0.85033 0.08037 0.91175 0.0
H1269 H 0.87089 0.08414 0.89149 0.0
H1270 H 0.89586 0.11767 0.8315 0.0
H1271 H 0.8872 0.108 0.85363 0.0
C1272 C 0.14111 0.39391 0.92354 0.0
C1273 C 0.1351 0.37662 0.92711 0.0
C1274 C 0.14417 0.39813 0.91018 0.0
C1275 C 0.12505 0.38501 0.87888 0.0
H1276 H 0.165 0.40829 0.86107 0.0
C1277 C 0.11942 0.39795 0.82409 0.0
C1278 C 0.13368 0.39068 0.81676 0.0
C1279 C 0.12158 0.4016 0.83754 0.0
C1280 C 0.15371 0.40189 0.86596 0.0
H1281 H 0.12946 0.34975 0.91984 0.0
H1282 H 0.13498 0.35701 0.89673 0.0
H1283 H 0.16649 0.40281 0.88508 0.0
H1284 H 0.16159 0.38245 0.81731 0.0
H1285 H 0.16537 0.3885 0.84097 0.0
H1286 H 0.11236 0.38349 0.86004 0.0
C1287 C 0.13696 0.3674 0.90412 0.0
C1288 C 0.15456 0.39882 0.87966 0.0
C1289 C 0.13385 0.36325 0.91734 0.0
C1290 C 0.15053 0.38838 0.82278 0.0
C1291 C 0.15266 0.39183 0.83632 0.0
C1292 C 0.12412 0.38819 0.86535 0.0
C1293 C 0.1413 0.38506 0.90033 0.0
C1294 C 0.14037 0.38996 0.88615 0.0
C1295 C 0.13791 0.3976 0.84397 0.0
C1296 C 0.13851 0.39643 0.85865 0.0
H1297 H 0.14209 0.40448 0.93089 0.0
H1298 H 0.14753 0.41184 0.90748 0.0
H1299 H 0.11382 0.37835 0.88367 0.0
H1300 H 0.10626 0.39964 0.81963 0.0
H1301 H 0.11006 0.40636 0.84311 0.0
C1302 C 0.85918 0.89719 0.07701 0.0
C1303 C 0.87621 0.88908 0.0756 0.0
C1304 C 0.85375 0.90416 0.0893 0.0
C1305 C 0.87182 0.91759 0.12226 0.0
H1306 H 0.82776 0.89729 0.13632 0.0
C1307 C 0.86363 0.90886 0.17808 0.0
C1308 C 0.86045 0.89061 0.18086 0.0
C1309 C 0.86015 0.91568 0.16538 0.0
C1310 C 0.83998 0.90334 0.13251 0.0
H1311 H 0.90103 0.8825 0.08595 0.0
H1312 H 0.89161 0.89441 0.10702 0.0
H1313 H 0.83333 0.89635 0.11255 0.0
H1314 H 0.84965 0.86568 0.17308 0.0
H1315 H 0.84356 0.87735 0.15125 0.0
H1316 H 0.87932 0.923 0.14227 0.0
C1317 C 0.88247 0.89562 0.09872 0.0
C1318 C 0.8431 0.90293 0.11887 0.0
C1319 C 0.88777 0.88852 0.08661 0.0
C1320 C 0.8524 0.87975 0.17118 0.0
C1321 C 0.84869 0.88655 0.15866 0.0
C1322 C 0.86876 0.91792 0.13589 0.0
C1323 C 0.86539 0.90343 0.10028 0.0
C1324 C 0.85957 0.90901 0.11372 0.0
C1325 C 0.85316 0.90439 0.15541 0.0
C1326 C 0.85333 0.90974 0.14123 0.0
H1327 H 0.84998 0.8979 0.06872 0.0
H1328 H 0.84046 0.91003 0.09025 0.0
H1329 H 0.88448 0.92275 0.11852 0.0
H1330 H 0.86984 0.9175 0.18541 0.0
H1331 H 0.86368 0.92951 0.16318 0.0
C1332 C 0.35828 0.60953 0.4215 0.0
C1333 C 0.36181 0.62724 0.42566 0.0
C1334 C 0.35605 0.60571 0.40801 0.0
C1335 C 0.37316 0.6244 0.37721 0.0
H1336 H 0.34337 0.58906 0.35935 0.0
C1337 C 0.38864 0.60806 0.32409 0.0
C1338 C 0.37398 0.60992 0.31547 0.0
C1339 C 0.3858 0.60553 0.33759 0.0
C1340 C 0.35178 0.59894 0.36425 0.0
H1341 H 0.36377 0.65502 0.41937 0.0
H1342 H 0.35919 0.64853 0.396 0.0
H1343 H 0.33843 0.59544 0.38297 0.0
H1344 H 0.34493 0.60913 0.31388 0.0
H1345 H 0.33987 0.60515 0.33765 0.0
H1346 H 0.38635 0.62828 0.35875 0.0
C1347 C 0.35871 0.63749 0.403 0.0
C1348 C 0.34898 0.60256 0.37774 0.0
C1349 C 0.36118 0.64125 0.41638 0.0
C1350 C 0.35644 0.60752 0.32036 0.0
C1351 C 0.35356 0.60529 0.33397 0.0
C1352 C 0.376 0.62076 0.36389 0.0
C1353 C 0.35721 0.6196 0.39858 0.0
C1354 C 0.35955 0.6155 0.3843 0.0
C1355 C 0.36822 0.60529 0.34278 0.0
C1356 C 0.3654 0.608 0.35721 0.0
H1357 H 0.35888 0.59848 0.42848 0.0
H1358 H 0.35489 0.5918 0.4049 0.0
H1359 H 0.38181 0.63417 0.38201 0.0
H1360 H 0.40228 0.60983 0.32052 0.0
H1361 H 0.39739 0.60508 0.34409 0.0
C1362 C 0.61811 0.09915 0.67112 0.0
C1363 C 0.63203 0.10332 0.67996 0.0
C1364 C 0.62202 0.09255 0.65854 0.0
C1365 C 0.6552 0.09927 0.63335 0.0
H1366 H 0.62358 0.06738 0.61381 0.0
C1367 C 0.6451 0.10473 0.57643 0.0
C1368 C 0.6268 0.10806 0.57381 0.0
C1369 C 0.65047 0.09816 0.58887 0.0
C1370 C 0.63277 0.0761 0.61912 0.0
H1371 H 0.6609 0.10319 0.68295 0.0
H1372 H 0.66786 0.09199 0.66063 0.0
H1373 H 0.62455 0.06566 0.63791 0.0
H1374 H 0.59978 0.10628 0.58191 0.0
H1375 H 0.60899 0.09465 0.60316 0.0
H1376 H 0.66232 0.11069 0.61459 0.0
C1377 C 0.65391 0.09355 0.66356 0.0
C1378 C 0.63331 0.07512 0.6329 0.0
C1379 C 0.64994 0.09982 0.67632 0.0
C1380 C 0.61399 0.10395 0.58358 0.0
C1381 C 0.61926 0.09709 0.59576 0.0
C1382 C 0.65464 0.10027 0.61953 0.0
C1383 C 0.63998 0.09034 0.65444 0.0
C1384 C 0.64374 0.08739 0.64018 0.0
C1385 C 0.63753 0.09436 0.59865 0.0
C1386 C 0.64261 0.08941 0.61237 0.0
H1387 H 0.60421 0.10188 0.67371 0.0
H1388 H 0.61099 0.09046 0.65171 0.0
H1389 H 0.66332 0.10896 0.6387 0.0
H1390 H 0.65527 0.10781 0.56909 0.0
H1391 H 0.66466 0.09629 0.5909 0.0
C1392 C 0.8577 0.39138 0.82439 0.0
C1393 C 0.8753 0.38679 0.82055 0.0
C1394 C 0.85369 0.39426 0.8378 0.0
C1395 C 0.86958 0.37608 0.86867 0.0
H1396 H 0.84139 0.41218 0.88709 0.0
C1397 C 0.85591 0.36586 0.92283 0.0
C1398 C 0.86145 0.38029 0.93077 0.0
C1399 C 0.8523 0.36853 0.90944 0.0
C1400 C 0.8492 0.40197 0.88202 0.0
H1401 H 0.90278 0.38352 0.8273 0.0
H1402 H 0.8959 0.38889 0.85051 0.0
H1403 H 0.8469 0.41525 0.86314 0.0
H1404 H 0.86641 0.40898 0.93137 0.0
H1405 H 0.86053 0.41367 0.90776 0.0
H1406 H 0.87236 0.3629 0.88724 0.0
C1407 C 0.88513 0.3899 0.84332 0.0
C1408 C 0.8523 0.40372 0.86837 0.0
C1409 C 0.88908 0.3869 0.83004 0.0
C1410 C 0.86187 0.39772 0.92542 0.0
C1411 C 0.85853 0.40037 0.91191 0.0
C1412 C 0.86638 0.37425 0.88215 0.0
C1413 C 0.86727 0.39263 0.84742 0.0
C1414 C 0.86284 0.39093 0.86166 0.0
C1415 C 0.85467 0.3856 0.90366 0.0
C1416 C 0.85629 0.38721 0.88905 0.0
H1417 H 0.84683 0.39122 0.81724 0.0
H1418 H 0.83981 0.39635 0.84074 0.0
H1419 H 0.87753 0.36586 0.86372 0.0
H1420 H 0.85559 0.3523 0.92678 0.0
H1421 H 0.84897 0.35695 0.90339 0.0
C1422 C 0.3574 0.10219 0.67772 0.0
C1423 C 0.37491 0.10577 0.68229 0.0
C1424 C 0.35421 0.0998 0.66415 0.0
C1425 C 0.37373 0.11781 0.63423 0.0
H1426 H 0.34095 0.08708 0.61465 0.0
C1427 C 0.3582 0.13563 0.58148 0.0
C1428 C 0.36216 0.12194 0.5724 0.0
C1429 C 0.35522 0.13151 0.59475 0.0
C1430 C 0.3501 0.09574 0.62005 0.0
H1431 H 0.40297 0.10763 0.67668 0.0
H1432 H 0.39753 0.10291 0.65317 0.0
H1433 H 0.3462 0.08152 0.6384 0.0
H1434 H 0.36478 0.09315 0.56969 0.0
H1435 H 0.35988 0.08588 0.5931 0.0
H1436 H 0.37783 0.13202 0.61619 0.0
C1437 C 0.3862 0.1024 0.65991 0.0
C1438 C 0.35308 0.09259 0.63358 0.0
C1439 C 0.38934 0.10498 0.67336 0.0
C1440 C 0.3615 0.10389 0.57653 0.0
C1441 C 0.35874 0.09976 0.58992 0.0
C1442 C 0.37064 0.12105 0.62088 0.0
C1443 C 0.36852 0.10088 0.65508 0.0
C1444 C 0.3651 0.10352 0.64074 0.0
C1445 C 0.35656 0.11365 0.59925 0.0
C1446 C 0.3588 0.11012 0.61361 0.0
H1447 H 0.34604 0.10292 0.68442 0.0
H1448 H 0.34045 0.09866 0.66069 0.0
H1449 H 0.3828 0.12669 0.63951 0.0
H1450 H 0.35868 0.14964 0.57849 0.0
H1451 H 0.3532 0.14247 0.60167 0.0
C1452 C 0.65256 0.61021 0.42611 0.0
C1453 C 0.63398 0.60966 0.42872 0.0
C1454 C 0.659 0.60632 0.41336 0.0
C1455 C 0.64467 0.58868 0.38023 0.0
H1456 H 0.67039 0.63011 0.36662 0.0
C1457 C 0.63755 0.63774 0.33416 0.0
C1458 C 0.63686 0.62614 0.32318 0.0
C1459 C 0.6437 0.63166 0.34635 0.0
C1460 C 0.66345 0.61827 0.37026 0.0
H1461 H 0.60785 0.60318 0.42046 0.0
H1462 H 0.61889 0.59635 0.39858 0.0
H1463 H 0.66927 0.62493 0.39038 0.0
H1464 H 0.64252 0.59901 0.31641 0.0
H1465 H 0.65291 0.58813 0.33809 0.0
H1466 H 0.63744 0.58303 0.36015 0.0
C1467 C 0.62861 0.59973 0.40617 0.0
C1468 C 0.66297 0.61519 0.38389 0.0
C1469 C 0.62221 0.60388 0.41873 0.0
C1470 C 0.64283 0.60826 0.32468 0.0
C1471 C 0.6488 0.60206 0.33706 0.0
C1472 C 0.64511 0.59181 0.36659 0.0
C1473 C 0.64698 0.60147 0.40317 0.0
C1474 C 0.65262 0.60101 0.38906 0.0
C1475 C 0.64924 0.61374 0.34802 0.0
C1476 C 0.65356 0.60727 0.36156 0.0
H1477 H 0.66192 0.61463 0.43365 0.0
H1478 H 0.67325 0.60777 0.41133 0.0
H1479 H 0.63687 0.57743 0.38392 0.0
H1480 H 0.6332 0.65163 0.33341 0.0
H1481 H 0.64347 0.64092 0.35463 0.0
C1482 C 0.15112 0.89891 0.17616 0.0
C1483 C 0.13296 0.89471 0.17848 0.0
C1484 C 0.15682 0.90387 0.16345 0.0
C1485 C 0.14099 0.9168 0.12989 0.0
H1486 H 0.17441 0.88042 0.11745 0.0
C1487 C 0.14426 0.87017 0.08284 0.0
C1488 C 0.14284 0.8825 0.07238 0.0
C1489 C 0.14956 0.87591 0.09538 0.0
C1490 C 0.16536 0.89092 0.12079 0.0
H1491 H 0.10631 0.89379 0.16986 0.0
H1492 H 0.11606 0.90295 0.14787 0.0
H1493 H 0.17054 0.88518 0.14117 0.0
H1494 H 0.14663 0.91033 0.06659 0.0
H1495 H 0.15546 0.92055 0.08878 0.0
H1496 H 0.13487 0.92163 0.1095 0.0
C1497 C 0.12597 0.90237 0.15572 0.0
C1498 C 0.16322 0.89374 0.13436 0.0
C1499 C 0.12037 0.89705 0.16829 0.0
C1500 C 0.14779 0.90054 0.07449 0.0
C1501 C 0.15274 0.90639 0.08716 0.0
C1502 C 0.14327 0.91411 0.11631 0.0
C1503 C 0.14434 0.90506 0.15302 0.0
C1504 C 0.15034 0.90606 0.13905 0.0
C1505 C 0.15321 0.89418 0.09779 0.0
C1506 C 0.15479 0.9005 0.11166 0.0
H1507 H 0.16108 0.89697 0.18386 0.0
H1508 H 0.17105 0.90586 0.16162 0.0
H1509 H 0.13103 0.92644 0.13325 0.0
H1510 H 0.14047 0.8562 0.08145 0.0
H1511 H 0.14956 0.86623 0.10339 0.0
C1512 C 0.88566 0.60931 0.08496 0.0
C1513 C 0.87322 0.61291 0.07484 0.0
C1514 C 0.87995 0.60293 0.09718 0.0
C1515 C 0.84404 0.60683 0.12029 0.0
H1516 H 0.87301 0.57202 0.13942 0.0
C1517 C 0.84745 0.60717 0.17721 0.0
C1518 C 0.86536 0.61017 0.18108 0.0
C1519 C 0.84362 0.60094 0.16442 0.0
C1520 C 0.86455 0.58155 0.1342 0.0
H1521 H 0.84493 0.61236 0.06955 0.0
H1522 H 0.83475 0.60176 0.09143 0.0
H1523 H 0.87464 0.5733 0.11532 0.0
H1524 H 0.89327 0.60811 0.17517 0.0
H1525 H 0.88673 0.59677 0.1531 0.0
H1526 H 0.83505 0.61606 0.13926 0.0
C1527 C 0.84901 0.60362 0.08964 0.0
C1528 C 0.86546 0.58226 0.12042 0.0
C1529 C 0.85482 0.60967 0.07718 0.0
C1530 C 0.87937 0.60571 0.17241 0.0
C1531 C 0.87559 0.59915 0.1598 0.0
C1532 C 0.84311 0.60612 0.13412 0.0
C1533 C 0.86158 0.60023 0.09975 0.0
C1534 C 0.85604 0.59561 0.11341 0.0
C1535 C 0.85768 0.5973 0.15548 0.0
C1536 C 0.85418 0.59416 0.14122 0.0
H1537 H 0.89992 0.61159 0.08353 0.0
H1538 H 0.88993 0.60079 0.10484 0.0
H1539 H 0.83668 0.61729 0.11513 0.0
H1540 H 0.83645 0.6108 0.18373 0.0
H1541 H 0.82971 0.59968 0.16133 0.0
C1542 C 0.11811 0.12066 0.8308 0.0
C1543 C 0.13054 0.11776 0.82055 0.0
C1544 C 0.12285 0.11729 0.84388 0.0
C1545 C 0.15307 0.09622 0.86741 0.0
H1546 H 0.14511 0.14056 0.88685 0.0
C1547 C 0.14325 0.10197 0.9239 0.0
C1548 C 0.14732 0.11847 0.92995 0.0
C1549 C 0.1471 0.09929 0.91049 0.0
C1550 C 0.14783 0.12815 0.88159 0.0
H1551 H 0.15711 0.1075 0.81584 0.0
H1552 H 0.16543 0.1015 0.83897 0.0
H1553 H 0.13883 0.13953 0.86337 0.0
H1554 H 0.15989 0.14447 0.92733 0.0
H1555 H 0.16738 0.13957 0.90407 0.0
H1556 H 0.16155 0.08471 0.8859 0.0
C1557 C 0.15203 0.10643 0.83675 0.0
C1558 C 0.14398 0.12752 0.86814 0.0
C1559 C 0.14725 0.1098 0.82355 0.0
C1560 C 0.15686 0.13155 0.92286 0.0
C1561 C 0.16092 0.1288 0.90952 0.0
C1562 C 0.15682 0.0968 0.88102 0.0
C1563 C 0.14013 0.11096 0.84703 0.0
C1564 C 0.14612 0.11148 0.86098 0.0
C1565 C 0.15504 0.11312 0.90299 0.0
C1566 C 0.15394 0.11273 0.8883 0.0
H1567 H 0.10505 0.12657 0.82878 0.0
H1568 H 0.11333 0.1206 0.85164 0.0
H1569 H 0.1549 0.08373 0.86205 0.0
H1570 H 0.13555 0.09186 0.92918 0.0
H1571 H 0.14228 0.08711 0.90578 0.0
C1572 C 0.64765 0.3917 0.57852 0.0
C1573 C 0.62941 0.38743 0.57636 0.0
C1574 C 0.65321 0.39887 0.59072 0.0
C1575 C 0.63622 0.4224 0.62028 0.0
H1576 H 0.66647 0.39075 0.64113 0.0
C1577 C 0.62107 0.40378 0.67297 0.0
C1578 C 0.63474 0.39882 0.68179 0.0
C1579 C 0.62531 0.40989 0.66032 0.0
C1580 C 0.65847 0.40015 0.63542 0.0
H1581 H 0.60273 0.38794 0.58515 0.0
H1582 H 0.61229 0.40074 0.60599 0.0
H1583 H 0.66531 0.38716 0.61714 0.0
H1584 H 0.66355 0.3972 0.68473 0.0
H1585 H 0.67111 0.4077 0.66235 0.0
H1586 H 0.62836 0.43456 0.63858 0.0
C1587 C 0.62232 0.39851 0.59837 0.0
C1588 C 0.65781 0.39805 0.62166 0.0
C1589 C 0.61687 0.391 0.58643 0.0
C1590 C 0.65281 0.40123 0.67812 0.0
C1591 C 0.6571 0.40708 0.66531 0.0
C1592 C 0.63694 0.42456 0.63398 0.0
C1593 C 0.64052 0.40238 0.60072 0.0
C1594 C 0.64585 0.40846 0.6141 0.0
C1595 C 0.64335 0.41083 0.65613 0.0
C1596 C 0.64721 0.41271 0.64177 0.0
H1597 H 0.65761 0.38906 0.57094 0.0
H1598 H 0.66736 0.4016 0.59237 0.0
H1599 H 0.62704 0.43072 0.61462 0.0
H1600 H 0.60704 0.40181 0.67558 0.0
H1601 H 0.61436 0.4124 0.65349 0.0
C1602 C 0.39 0.89196 0.32449 0.0
C1603 C 0.37476 0.89012 0.31643 0.0
C1604 C 0.38811 0.89565 0.33794 0.0
C1605 C 0.35586 0.90564 0.36529 0.0
H1606 H 0.38566 0.87081 0.38366 0.0
C1607 C 0.36396 0.89835 0.42278 0.0
C1608 C 0.36685 0.88076 0.42743 0.0
C1609 C 0.36165 0.90152 0.40921 0.0
C1610 C 0.3771 0.88051 0.3787 0.0
H1611 H 0.3457 0.89209 0.31573 0.0
H1612 H 0.34228 0.89809 0.33942 0.0
H1613 H 0.38926 0.87486 0.36011 0.0
H1614 H 0.36765 0.8526 0.42194 0.0
H1615 H 0.36295 0.858 0.39844 0.0
H1616 H 0.3435 0.91088 0.38415 0.0
C1617 C 0.35572 0.89705 0.33533 0.0
C1618 C 0.3794 0.88309 0.36519 0.0
C1619 C 0.35766 0.89367 0.32176 0.0
C1620 C 0.36557 0.8663 0.41856 0.0
C1621 C 0.36304 0.86942 0.40511 0.0
C1622 C 0.3536 0.90309 0.37896 0.0
C1623 C 0.3709 0.89709 0.34367 0.0
C1624 C 0.36884 0.89564 0.35827 0.0
C1625 C 0.36208 0.8871 0.40019 0.0
C1626 C 0.36407 0.8903 0.38575 0.0
H1627 H 0.40332 0.88931 0.32057 0.0
H1628 H 0.4001 0.8961 0.34404 0.0
H1629 H 0.34751 0.9154 0.36022 0.0
H1630 H 0.36507 0.90973 0.42944 0.0
H1631 H 0.36092 0.91529 0.40571 0.0
C1632 C 0.07129 0.63901 0.00938 0.0
C1633 C 0.07759 0.62762 0.01944 0.0
C1634 C 0.05295 0.63913 0.00607 0.0
C1635 C 0.01173 0.61153 0.00845 0.0
H1636 H 0.98588 0.65687 0.00939 0.0
C1637 C 0.93863 0.61528 0.0242 0.0
C1638 C 0.92706 0.62836 0.019 0.0
C1639 C 0.95668 0.61486 0.02055 0.0
C1640 C 0.9929 0.64412 0.00884 0.0
H1641 H 0.07038 0.60644 0.03313 0.0
H1642 H 0.03851 0.60657 0.02741 0.0
H1643 H 0.01879 0.65683 0.01012 0.0
H1644 H 0.92468 0.65051 0.00523 0.0
H1645 H 0.9567 0.65001 0.99883 0.0
H1646 H 0.986 0.59874 0.00769 0.0
C1647 C 0.04749 0.61559 0.02218 0.0
C1648 C 0.01176 0.64411 0.00925 0.0
C1649 C 0.06566 0.61566 0.02558 0.0
C1650 C 0.93354 0.64049 0.0095 0.0
C1651 C 0.9518 0.6402 0.00588 0.0
C1652 C 0.99297 0.61154 0.00806 0.0
C1653 C 0.04088 0.62743 0.01248 0.0
C1654 C 0.0213 0.62777 0.00959 0.0
C1655 C 0.9636 0.62746 0.0115 0.0
C1656 C 0.9833 0.62778 0.00888 0.0
H1657 H 0.08044 0.64807 0.00435 0.0
H1658 H 0.04823 0.64831 0.9985 0.0
H1659 H 0.01876 0.59875 0.00837 0.0
H1660 H 0.93377 0.60559 0.03138 0.0
H1661 H 0.96537 0.60507 0.02528 0.0
C1662 C 0.63815 0.69257 0.27297 0.0
C1663 C 0.6252 0.6812 0.26736 0.0
C1664 C 0.63895 0.71067 0.26945 0.0
C1665 C 0.61031 0.74716 0.25706 0.0
H1666 H 0.65548 0.77329 0.25842 0.0
C1667 C 0.61402 0.82543 0.2576 0.0
C1668 C 0.62484 0.83217 0.26784 0.0
C1669 C 0.61455 0.80707 0.25438 0.0
C1670 C 0.64274 0.76619 0.25802 0.0
H1671 H 0.60381 0.6792 0.25293 0.0
H1672 H 0.60498 0.71126 0.24674 0.0
H1673 H 0.65573 0.74053 0.25777 0.0
H1674 H 0.64582 0.82573 0.28191 0.0
H1675 H 0.64679 0.79379 0.27638 0.0
H1676 H 0.59735 0.77294 0.25776 0.0
C1677 C 0.61437 0.7062 0.25404 0.0
C1678 C 0.64288 0.74741 0.25764 0.0
C1679 C 0.6137 0.68791 0.25753 0.0
C1680 C 0.637 0.82066 0.27422 0.0
C1681 C 0.63771 0.80244 0.27092 0.0
C1682 C 0.61017 0.76601 0.25745 0.0
C1683 C 0.62686 0.71785 0.26013 0.0
C1684 C 0.62666 0.73763 0.25773 0.0
C1685 C 0.62633 0.79536 0.26109 0.0
C1686 C 0.62639 0.77569 0.25842 0.0
H1687 H 0.6474 0.68754 0.2804 0.0
H1688 H 0.64854 0.71921 0.27453 0.0
H1689 H 0.59756 0.74007 0.25712 0.0
H1690 H 0.60483 0.83425 0.25238 0.0
H1691 H 0.60575 0.80203 0.24668 0.0
C1692 C 0.43179 0.36427 0.50908 0.0
C1693 C 0.42564 0.37699 0.51828 0.0
C1694 C 0.45014 0.36341 0.50586 0.0
C1695 C 0.49086 0.35733 0.50971 0.0
H1696 H 0.51901 0.4012 0.50763 0.0
C1697 C 0.56458 0.38339 0.52595 0.0
C1698 C 0.576 0.3701 0.52085 0.0
C1699 C 0.54661 0.38418 0.52211 0.0
C1700 C 0.51135 0.38881 0.50816 0.0
H1701 H 0.43312 0.39977 0.53043 0.0
H1702 H 0.46499 0.39832 0.52494 0.0
H1703 H 0.48629 0.40287 0.50704 0.0
H1704 H 0.57814 0.34776 0.50721 0.0
H1705 H 0.54621 0.34887 0.50053 0.0
H1706 H 0.51605 0.34334 0.51123 0.0
C1707 C 0.45592 0.38887 0.52024 0.0
C1708 C 0.49261 0.38977 0.50782 0.0
C1709 C 0.43772 0.38957 0.52354 0.0
C1710 C 0.5694 0.35797 0.51138 0.0
C1711 C 0.55121 0.3586 0.50761 0.0
C1712 C 0.5097 0.35636 0.51002 0.0
C1713 C 0.46243 0.37561 0.51153 0.0
C1714 C 0.48213 0.37413 0.50918 0.0
C1715 C 0.53963 0.37172 0.51299 0.0
C1716 C 0.52009 0.37218 0.50984 0.0
H1717 H 0.42253 0.3547 0.50472 0.0
H1718 H 0.45474 0.35315 0.49904 0.0
H1719 H 0.48318 0.34502 0.51076 0.0
H1720 H 0.56953 0.39308 0.5331 0.0
H1721 H 0.53804 0.39424 0.52664 0.0
C1722 C 0.88674 0.31918 0.75608 0.0
C1723 C 0.87688 0.3264 0.76665 0.0
C1724 C 0.88553 0.30075 0.75316 0.0
C1725 C 0.85718 0.26037 0.7592 0.0
H1726 H 0.90206 0.23379 0.75776 0.0
C1727 C 0.86243 0.18731 0.77613 0.0
C1728 C 0.87428 0.17552 0.76972 0.0
C1729 C 0.86177 0.20542 0.77257 0.0
C1730 C 0.88939 0.241 0.75788 0.0
H1731 H 0.85691 0.32081 0.78167 0.0
H1732 H 0.85474 0.28885 0.77668 0.0
H1733 H 0.90253 0.26665 0.75679 0.0
H1734 H 0.89366 0.17277 0.75389 0.0
H1735 H 0.89277 0.20479 0.74767 0.0
H1736 H 0.84404 0.23483 0.76068 0.0
C1737 C 0.86354 0.29713 0.77067 0.0
C1738 C 0.88966 0.25983 0.75731 0.0
C1739 C 0.86493 0.31537 0.77365 0.0
C1740 C 0.88474 0.18183 0.75915 0.0
C1741 C 0.88423 0.20008 0.75563 0.0
C1742 C 0.8569 0.2416 0.75972 0.0
C1743 C 0.87403 0.28951 0.76054 0.0
C1744 C 0.8736 0.26971 0.75848 0.0
C1745 C 0.87285 0.2121 0.76242 0.0
C1746 C 0.87303 0.23172 0.75956 0.0
H1747 H 0.8958 0.32762 0.75042 0.0
H1748 H 0.89367 0.29526 0.74524 0.0
H1749 H 0.84454 0.2676 0.75982 0.0
H1750 H 0.85387 0.18255 0.78408 0.0
H1751 H 0.853 0.21431 0.77811 0.0
C1752 C 0.93669 0.38742 0.97613 0.0
C1753 C 0.92522 0.37563 0.98289 0.0
C1754 C 0.95497 0.38807 0.97918 0.0
C1755 C 0.99136 0.36058 0.99277 0.0
H1756 H 0.01757 0.40563 0.99024 0.0
C1757 C 0.06971 0.3645 0.99279 0.0
C1758 C 0.07629 0.3743 0.98197 0.0
C1759 C 0.05137 0.36529 0.99606 0.0
C1760 C 0.01044 0.39294 0.99103 0.0
H1761 H 0.92327 0.35628 0.99881 0.0
H1762 H 0.95562 0.35712 0.00411 0.0
H1763 H 0.98477 0.40593 0.99041 0.0
H1764 H 0.0696 0.39369 0.96677 0.0
H1765 H 0.03778 0.39518 0.97242 0.0
H1766 H 0.01717 0.34761 0.993 0.0
C1767 C 0.95049 0.36566 0.99629 0.0
C1768 C 0.99167 0.3931 0.9911 0.0
C1769 C 0.93206 0.36517 0.99329 0.0
C1770 C 0.06467 0.38573 0.975 0.0
C1771 C 0.04652 0.38672 0.97834 0.0
C1772 C 0.01022 0.36043 0.99276 0.0
C1773 C 0.96216 0.37702 0.98916 0.0
C1774 C 0.98191 0.3769 0.99148 0.0
C1775 C 0.03958 0.37634 0.98878 0.0
C1776 C 0.01992 0.37658 0.99138 0.0
H1777 H 0.93155 0.39595 0.96829 0.0
H1778 H 0.96357 0.3968 0.97338 0.0
H1779 H 0.98423 0.34787 0.99301 0.0
H1780 H 0.07861 0.35584 0.99842 0.0
H1781 H 0.04638 0.35723 0.0042 0.0
C1782 C 0.85624 0.82075 0.2279 0.0
C1783 C 0.87105 0.83003 0.23307 0.0
C1784 C 0.85436 0.80234 0.22999 0.0
C1785 C 0.87333 0.76253 0.24802 0.0
H1786 H 0.85589 0.73815 0.2167 0.0
C1787 C 0.88263 0.68556 0.23971 0.0
C1788 C 0.87082 0.67692 0.23097 0.0
C1789 C 0.88128 0.70419 0.24176 0.0
C1790 C 0.86053 0.74451 0.22569 0.0
H1791 H 0.89491 0.82797 0.2452 0.0
H1792 H 0.89243 0.79525 0.24818 0.0
H1793 H 0.85543 0.77026 0.21749 0.0
H1794 H 0.84714 0.68006 0.21876 0.0
H1795 H 0.8438 0.712 0.22302 0.0
H1796 H 0.87809 0.73638 0.25625 0.0
C1797 C 0.88194 0.80221 0.24279 0.0
C1798 C 0.86034 0.7632 0.22612 0.0
C1799 C 0.88352 0.82088 0.241 0.0
C1800 C 0.85676 0.68668 0.2252 0.0
C1801 C 0.855 0.70505 0.22758 0.0
C1802 C 0.87331 0.74364 0.24766 0.0
C1803 C 0.86756 0.79263 0.23699 0.0
C1804 C 0.86693 0.77256 0.23719 0.0
C1805 C 0.86762 0.71428 0.23548 0.0
C1806 C 0.86705 0.73435 0.23641 0.0
H1807 H 0.84622 0.82773 0.22203 0.0
H1808 H 0.84272 0.79567 0.2258 0.0
H1809 H 0.8782 0.76923 0.25683 0.0
H1810 H 0.89336 0.67809 0.24445 0.0
H1811 H 0.89135 0.71068 0.24784 0.0
C1812 C 0.43122 0.63563 0.48871 0.0
C1813 C 0.42268 0.62524 0.47899 0.0
C1814 C 0.44974 0.63357 0.49099 0.0
C1815 C 0.49 0.61393 0.47395 0.0
H1816 H 0.51484 0.62844 0.50591 0.0
C1817 C 0.56591 0.60716 0.47633 0.0
C1818 C 0.57559 0.6215 0.4818 0.0
C1819 C 0.54746 0.60569 0.4784 0.0
C1820 C 0.50808 0.62443 0.49689 0.0
H1821 H 0.42576 0.60311 0.4653 0.0
H1822 H 0.45733 0.59832 0.47 0.0
H1823 H 0.48197 0.62889 0.50527 0.0
H1824 H 0.57417 0.64491 0.49447 0.0
H1825 H 0.54136 0.64311 0.49747 0.0
H1826 H 0.51573 0.60906 0.46562 0.0
C1827 C 0.45052 0.60913 0.47515 0.0
C1828 C 0.48919 0.62474 0.49649 0.0
C1829 C 0.43232 0.61168 0.47252 0.0
C1830 C 0.56679 0.63388 0.49003 0.0
C1831 C 0.54808 0.6327 0.49183 0.0
C1832 C 0.50867 0.61333 0.47444 0.0
C1833 C 0.45978 0.62057 0.48395 0.0
C1834 C 0.47986 0.6196 0.48494 0.0
C1835 C 0.53812 0.61884 0.48569 0.0
C1836 C 0.51806 0.61875 0.48582 0.0
H1837 H 0.42381 0.64593 0.494 0.0
H1838 H 0.45623 0.64272 0.49782 0.0
H1839 H 0.48368 0.61028 0.46471 0.0
H1840 H 0.57261 0.59721 0.47022 0.0
H1841 H 0.54046 0.59445 0.47392 0.0
C1842 C 0.64074 0.18347 0.71979 0.0
C1843 C 0.62825 0.17355 0.72715 0.0
C1844 C 0.642 0.20206 0.72134 0.0
C1845 C 0.62699 0.24094 0.74225 0.0
H1846 H 0.63689 0.26673 0.7098 0.0
C1847 C 0.6174 0.31848 0.73693 0.0
C1848 C 0.62844 0.32741 0.7278 0.0
C1849 C 0.61822 0.29968 0.73809 0.0
C1850 C 0.63421 0.2599 0.71903 0.0
H1851 H 0.6081 0.17477 0.74254 0.0
H1852 H 0.60934 0.20764 0.74473 0.0
H1853 H 0.6368 0.23451 0.70965 0.0
H1854 H 0.65022 0.32436 0.71379 0.0
H1855 H 0.65237 0.2919 0.7162 0.0
H1856 H 0.6244 0.26677 0.75155 0.0
C1857 C 0.61849 0.2011 0.73792 0.0
C1858 C 0.63418 0.24119 0.71895 0.0
C1859 C 0.6176 0.18233 0.7366 0.0
C1860 C 0.64116 0.31759 0.72057 0.0
C1861 C 0.6423 0.29897 0.72193 0.0
C1862 C 0.62696 0.25983 0.74232 0.0
C1863 C 0.63051 0.21126 0.73011 0.0
C1864 C 0.63059 0.23136 0.73052 0.0
C1865 C 0.6305 0.28965 0.73041 0.0
C1866 C 0.63058 0.26956 0.73067 0.0
H1867 H 0.64951 0.17682 0.71274 0.0
H1868 H 0.65193 0.20919 0.7155 0.0
H1869 H 0.62446 0.23389 0.75144 0.0
H1870 H 0.60772 0.32595 0.74277 0.0
H1871 H 0.60885 0.29302 0.74467 0.0
C1872 C 0.35559 0.31044 0.72529 0.0
C1873 C 0.36924 0.31985 0.73185 0.0
C1874 C 0.35249 0.29233 0.72806 0.0
C1875 C 0.36683 0.25368 0.74995 0.0
H1876 H 0.35416 0.22694 0.71846 0.0
C1877 C 0.38007 0.1768 0.74449 0.0
C1878 C 0.3703 0.16739 0.73486 0.0
C1879 C 0.37724 0.19534 0.74624 0.0
C1880 C 0.35745 0.23396 0.72751 0.0
H1881 H 0.38942 0.31847 0.7472 0.0
H1882 H 0.38521 0.28627 0.75135 0.0
H1883 H 0.35365 0.25894 0.71789 0.0
H1884 H 0.34849 0.169 0.72075 0.0
H1885 H 0.34245 0.20063 0.72449 0.0
H1886 H 0.37066 0.2282 0.75949 0.0
C1887 C 0.37643 0.29284 0.74431 0.0
C1888 C 0.35718 0.25266 0.72716 0.0
C1889 C 0.37905 0.31124 0.74185 0.0
C1890 C 0.35658 0.17621 0.72794 0.0
C1891 C 0.35328 0.19444 0.73001 0.0
C1892 C 0.36703 0.23478 0.75032 0.0
C1893 C 0.36341 0.28298 0.73717 0.0
C1894 C 0.36219 0.26291 0.73826 0.0
C1895 C 0.36411 0.20454 0.73872 0.0
C1896 C 0.36262 0.22463 0.739 0.0
H1897 H 0.34743 0.31706 0.71785 0.0
H1898 H 0.34175 0.28562 0.72277 0.0
H1899 H 0.37032 0.261 0.75885 0.0
H1900 H 0.39049 0.17006 0.75011 0.0
H1901 H 0.38594 0.20251 0.75302 0.0
C1902 C 0.11464 0.68371 0.23656 0.0
C1903 C 0.12602 0.67488 0.22761 0.0
C1904 C 0.116 0.7024 0.23829 0.0
C1905 C 0.13506 0.74231 0.22079 0.0
H1906 H 0.12042 0.76792 0.25237 0.0
C1907 C 0.13971 0.81873 0.22174 0.0
C1908 C 0.12591 0.82832 0.22799 0.0
C1909 C 0.14147 0.80026 0.22368 0.0
C1910 C 0.12437 0.76098 0.24342 0.0
H1911 H 0.14898 0.67783 0.21465 0.0
H1912 H 0.15227 0.70993 0.21826 0.0
H1913 H 0.12048 0.73506 0.25229 0.0
H1914 H 0.10387 0.82672 0.24189 0.0
H1915 H 0.10597 0.79396 0.24463 0.0
H1916 H 0.13906 0.76778 0.21186 0.0
C1917 C 0.14143 0.70302 0.2233 0.0
C1918 C 0.1244 0.74208 0.24336 0.0
C1919 C 0.13968 0.68456 0.22127 0.0
C1920 C 0.1144 0.81939 0.23679 0.0
C1921 C 0.11579 0.80069 0.23845 0.0
C1922 C 0.13507 0.76101 0.22085 0.0
C1923 C 0.1292 0.71238 0.23143 0.0
C1924 C 0.12966 0.73248 0.23198 0.0
C1925 C 0.12914 0.79081 0.23167 0.0
C1926 C 0.12963 0.77071 0.2321 0.0
H1927 H 0.10422 0.67631 0.24173 0.0
H1928 H 0.10626 0.70904 0.24458 0.0
H1929 H 0.13902 0.73566 0.21174 0.0
H1930 H 0.14909 0.82553 0.21522 0.0
H1931 H 0.1524 0.79341 0.21871 0.0
C1932 C 0.14281 0.18905 0.77212 0.0
C1933 C 0.13064 0.17759 0.7657 0.0
C1934 C 0.14405 0.20712 0.76852 0.0
C1935 C 0.11693 0.24328 0.754 0.0
H1936 H 0.16177 0.26966 0.75719 0.0
C1937 C 0.11961 0.32149 0.75343 0.0
C1938 C 0.12975 0.3287 0.76386 0.0
C1939 C 0.12071 0.30305 0.75049 0.0
C1940 C 0.14912 0.2625 0.75628 0.0
H1941 H 0.11135 0.17536 0.74977 0.0
H1942 H 0.11325 0.20731 0.74349 0.0
H1943 H 0.16215 0.23688 0.75743 0.0
H1944 H 0.15008 0.32305 0.7786 0.0
H1945 H 0.15195 0.29106 0.77364 0.0
H1946 H 0.10385 0.26899 0.75338 0.0
C1947 C 0.12162 0.20238 0.75147 0.0
C1948 C 0.14934 0.24371 0.75641 0.0
C1949 C 0.12054 0.18415 0.75501 0.0
C1950 C 0.14182 0.31762 0.77072 0.0
C1951 C 0.14305 0.29935 0.76774 0.0
C1952 C 0.1167 0.26214 0.75393 0.0
C1953 C 0.1332 0.21414 0.75835 0.0
C1954 C 0.1332 0.23387 0.75576 0.0
C1955 C 0.13233 0.29175 0.75772 0.0
C1956 C 0.13275 0.27195 0.75553 0.0
H1957 H 0.15106 0.18411 0.78018 0.0
H1958 H 0.15295 0.21577 0.77415 0.0
H1959 H 0.10426 0.23615 0.75343 0.0
H1960 H 0.11049 0.32996 0.74785 0.0
H1961 H 0.11241 0.29763 0.74263 0.0
C1962 C 0.3779 0.68174 0.25363 0.0
C1963 C 0.36848 0.67229 0.26342 0.0
C1964 C 0.37486 0.70024 0.25188 0.0
C1965 C 0.35555 0.73878 0.27086 0.0
H1966 H 0.36629 0.76561 0.23901 0.0
C1967 C 0.3529 0.81527 0.27268 0.0
C1968 C 0.36595 0.82478 0.26556 0.0
C1969 C 0.34992 0.79707 0.27017 0.0
C1970 C 0.36343 0.75836 0.24805 0.0
H1971 H 0.34707 0.67377 0.27787 0.0
H1972 H 0.34072 0.70537 0.27421 0.0
H1973 H 0.36703 0.73281 0.23855 0.0
H1974 H 0.38513 0.82346 0.24952 0.0
H1975 H 0.3812 0.79115 0.2458 0.0
H1976 H 0.35214 0.76381 0.2805 0.0
C1977 C 0.35141 0.69922 0.26851 0.0
C1978 C 0.36385 0.73947 0.24778 0.0
C1979 C 0.35489 0.68102 0.27055 0.0
C1980 C 0.37524 0.81616 0.2553 0.0
C1981 C 0.37278 0.79769 0.25309 0.0
C1982 C 0.35517 0.75748 0.27114 0.0
C1983 C 0.36187 0.70935 0.25959 0.0
C1984 C 0.36018 0.7294 0.25927 0.0
C1985 C 0.36039 0.78775 0.26076 0.0
C1986 C 0.35938 0.76766 0.25984 0.0
H1987 H 0.38822 0.67507 0.24786 0.0
H1988 H 0.38328 0.70747 0.24495 0.0
H1989 H 0.35277 0.7318 0.28001 0.0
H1990 H 0.34511 0.8219 0.28033 0.0
H1991 H 0.33964 0.79029 0.27588 0.0
C1992 C 0.43623 0.11897 0.52547 0.0
C1993 C 0.42442 0.13121 0.51948 0.0
C1994 C 0.4543 0.11845 0.5218 0.0
C1995 C 0.48943 0.11337 0.50733 0.0
H1996 H 0.51671 0.15784 0.50835 0.0
C1997 C 0.56846 0.14023 0.50866 0.0
C1998 C 0.57461 0.12748 0.51784 0.0
C1999 C 0.55024 0.14048 0.50494 0.0
C2000 C 0.50929 0.14532 0.50777 0.0
H2001 H 0.42168 0.15171 0.50442 0.0
H2002 H 0.45374 0.15115 0.49811 0.0
H2003 H 0.48385 0.15882 0.5095 0.0
H2004 H 0.56735 0.10414 0.52945 0.0
H2005 H 0.53584 0.10458 0.52323 0.0
H2006 H 0.5147 0.09977 0.50608 0.0
C2007 C 0.44899 0.14211 0.50576 0.0
C2008 C 0.49046 0.1459 0.50843 0.0
C2009 C 0.43074 0.14243 0.50933 0.0
C2010 C 0.56276 0.11431 0.52255 0.0
C2011 C 0.54474 0.11443 0.5188 0.0
C2012 C 0.50817 0.11279 0.50669 0.0
C2013 C 0.46093 0.1301 0.51199 0.0
C2014 C 0.48041 0.12987 0.50877 0.0
C2015 C 0.53811 0.12769 0.51013 0.0
C2016 C 0.51839 0.12869 0.50758 0.0
H2017 H 0.43149 0.10988 0.5331 0.0
H2018 H 0.4632 0.1092 0.52689 0.0
H2019 H 0.48199 0.10082 0.50723 0.0
H2020 H 0.57755 0.15033 0.50477 0.0
H2021 H 0.5456 0.15078 0.49817 0.0
C2022 C 0.94083 0.88564 0.02485 0.0
C2023 C 0.92912 0.87279 0.01952 0.0
C2024 C 0.95887 0.88597 0.02116 0.0
C2025 C 0.99478 0.85662 0.00918 0.0
H2026 H 0.021 0.90178 0.00911 0.0
C2027 C 0.0732 0.86114 0.01009 0.0
C2028 C 0.0795 0.87235 0.02025 0.0
C2029 C 0.05489 0.86117 0.0067 0.0
C2030 C 0.01387 0.88905 0.00908 0.0
H2031 H 0.92645 0.85096 0.0055 0.0
H2032 H 0.95848 0.85127 0.99905 0.0
H2033 H 0.98824 0.90206 0.00833 0.0
H2034 H 0.07232 0.89339 0.03408 0.0
H2035 H 0.04048 0.89354 0.02823 0.0
H2036 H 0.02055 0.84368 0.01048 0.0
C2037 C 0.95369 0.86098 0.00622 0.0
C2038 C 0.99511 0.8892 0.00863 0.0
C2039 C 0.93544 0.8608 0.00986 0.0
C2040 C 0.06759 0.8843 0.02645 0.0
C2041 C 0.04945 0.88453 0.02297 0.0
C2042 C 0.01363 0.85647 0.00966 0.0
C2043 C 0.96563 0.87349 0.01196 0.0
C2044 C 0.98532 0.87303 0.00931 0.0
C2045 C 0.04284 0.87287 0.01314 0.0
C2046 C 0.0233 0.87273 0.01015 0.0
H2047 H 0.93611 0.89523 0.03215 0.0
H2048 H 0.96767 0.89556 0.02599 0.0
H2049 H 0.98764 0.84392 0.00963 0.0
H2050 H 0.08233 0.8521 0.00501 0.0
H2051 H 0.05016 0.85214 0.99904 0.0
C2052 C 0.43245 0.87012 0.49335 0.0
C2053 C 0.42654 0.87989 0.4823 0.0
C2054 C 0.45068 0.87047 0.49698 0.0
C2055 C 0.49159 0.86403 0.49483 0.0
H2056 H 0.51926 0.90803 0.49122 0.0
C2057 C 0.56609 0.88613 0.4773 0.0
C2058 C 0.57715 0.87433 0.48443 0.0
C2059 C 0.54795 0.8879 0.48047 0.0
C2060 C 0.51173 0.89562 0.4923 0.0
H2061 H 0.43428 0.89895 0.46716 0.0
H2062 H 0.46593 0.8996 0.47338 0.0
H2063 H 0.48651 0.90932 0.49071 0.0
H2064 H 0.57846 0.85602 0.50104 0.0
H2065 H 0.54625 0.85885 0.50657 0.0
H2066 H 0.51694 0.85028 0.49592 0.0
C2067 C 0.45676 0.8915 0.47922 0.0
C2068 C 0.49297 0.89636 0.492 0.0
C2069 C 0.4387 0.89096 0.47552 0.0
C2070 C 0.57002 0.86497 0.49528 0.0
C2071 C 0.55166 0.86658 0.49841 0.0
C2072 C 0.51043 0.86329 0.49512 0.0
C2073 C 0.46307 0.88103 0.48984 0.0
C2074 C 0.48269 0.88051 0.49273 0.0
C2075 C 0.54042 0.87799 0.49094 0.0
C2076 C 0.52069 0.87901 0.49332 0.0
H2077 H 0.42313 0.86178 0.49886 0.0
H2078 H 0.45511 0.86239 0.50528 0.0
H2079 H 0.48406 0.85158 0.49546 0.0
H2080 H 0.57144 0.89376 0.46905 0.0
H2081 H 0.53967 0.89658 0.47438 0.0
C2082 C 0.06941 0.11381 0.97102 0.0
C2083 C 0.07945 0.12658 0.97802 0.0
C2084 C 0.05082 0.11283 0.97258 0.0
C2085 C 0.01197 0.1292 0.99288 0.0
H2086 H 0.98651 0.1183 0.96045 0.0
C2087 C 0.93432 0.13814 0.98695 0.0
C2088 C 0.92566 0.12693 0.97779 0.0
C2089 C 0.95311 0.13746 0.98831 0.0
C2090 C 0.99323 0.12125 0.96967 0.0
H2091 H 0.07843 0.14759 0.9928 0.0
H2092 H 0.04551 0.14681 0.99498 0.0
H2093 H 0.0187 0.11811 0.96053 0.0
H2094 H 0.92914 0.105 0.96395 0.0
H2095 H 0.96149 0.10299 0.9668 0.0
H2096 H 0.98604 0.13213 0.00198 0.0
C2097 C 0.05199 0.13724 0.98846 0.0
C2098 C 0.01193 0.12116 0.96972 0.0
C2099 C 0.07078 0.13786 0.98714 0.0
C2100 C 0.93569 0.11417 0.97077 0.0
C2101 C 0.95427 0.11314 0.97236 0.0
C2102 C 0.99307 0.12926 0.99284 0.0
C2103 C 0.04173 0.12491 0.98098 0.0
C2104 C 0.02164 0.12509 0.98128 0.0
C2105 C 0.96337 0.12515 0.98082 0.0
C2106 C 0.98345 0.12523 0.9812 0.0
H2107 H 0.07597 0.1046 0.96424 0.0
H2108 H 0.0436 0.10267 0.96703 0.0
H2109 H 0.01894 0.13204 0.00204 0.0
H2110 H 0.92667 0.14785 0.99264 0.0
H2111 H 0.95958 0.14698 0.99488 0.0
C2112 C 0.1514 0.43314 0.98537 0.0
C2113 C 0.13789 0.42908 0.97609 0.0
C2114 C 0.15393 0.45092 0.98971 0.0
C2115 C 0.12733 0.49225 0.9935 0.0
H2116 H 0.17272 0.51538 0.00199 0.0
C2117 C 0.1519 0.56753 0.00986 0.0
C2118 C 0.13863 0.57088 0.01947 0.0
C2119 C 0.15418 0.55012 0.00467 0.0
C2120 C 0.15997 0.50909 0.99959 0.0
H2121 H 0.11743 0.44061 0.96334 0.0
H2122 H 0.12203 0.47143 0.97068 0.0
H2123 H 0.17265 0.48535 0.99174 0.0
H2124 H 0.11824 0.55841 0.03182 0.0
H2125 H 0.12233 0.52832 0.02295 0.0
H2126 H 0.11458 0.51576 0.00123 0.0
C2127 C 0.13036 0.46092 0.9749 0.0
C2128 C 0.15992 0.49188 0.99382 0.0
C2129 C 0.12778 0.44324 0.97064 0.0
C2130 C 0.12841 0.55637 0.02429 0.0
C2131 C 0.1307 0.5391 0.01916 0.0
C2132 C 0.12738 0.50928 0.99929 0.0
C2133 C 0.14302 0.46492 0.9848 0.0
C2134 C 0.14356 0.48329 0.9907 0.0
C2135 C 0.14321 0.53584 0.00902 0.0
C2136 C 0.14366 0.51788 0.00251 0.0
H2137 H 0.1594 0.4225 0.98974 0.0
H2138 H 0.16377 0.45356 0.99737 0.0
H2139 H 0.11448 0.48596 0.99143 0.0
H2140 H 0.15999 0.57845 0.00597 0.0
H2141 H 0.16393 0.54802 0.99686 0.0
C2142 C 0.80482 0.88825 0.2266 0.0
C2143 C 0.82014 0.89648 0.23208 0.0
C2144 C 0.78759 0.89316 0.23073 0.0
C2145 C 0.75189 0.91068 0.23724 0.0
H2146 H 0.74433 0.91045 0.27517 0.0
C2147 C 0.68026 0.91158 0.25999 0.0
C2148 C 0.67757 0.89799 0.26946 0.0
C2149 C 0.69773 0.91606 0.25584 0.0
C2150 C 0.74622 0.91069 0.26455 0.0
H2151 H 0.82938 0.91673 0.24594 0.0
H2152 H 0.79904 0.92523 0.25334 0.0
H2153 H 0.77495 0.90986 0.2664 0.0
H2154 H 0.69109 0.87906 0.28245 0.0
H2155 H 0.7213 0.88683 0.27529 0.0
H2156 H 0.72316 0.91055 0.23539 0.0
C2157 C 0.80048 0.91496 0.24581 0.0
C2158 C 0.76378 0.91052 0.25952 0.0
C2159 C 0.81782 0.91016 0.24154 0.0
C2160 C 0.69267 0.88955 0.27509 0.0
C2161 C 0.71005 0.89412 0.27106 0.0
C2162 C 0.73433 0.91092 0.24227 0.0
C2163 C 0.78518 0.90636 0.24053 0.0
C2164 C 0.7668 0.9099 0.24581 0.0
C2165 C 0.71281 0.9072 0.26123 0.0
C2166 C 0.73129 0.9103 0.25598 0.0
H2167 H 0.80613 0.87771 0.21926 0.0
H2168 H 0.77615 0.88607 0.22659 0.0
H2169 H 0.75378 0.91045 0.22662 0.0
H2170 H 0.66887 0.91832 0.25549 0.0
H2171 H 0.69943 0.92627 0.2483 0.0
C2172 C 0.37311 0.44794 0.52175 0.0
C2173 C 0.36285 0.43303 0.5177 0.0
C2174 C 0.37 0.46493 0.5164 0.0
C2175 C 0.33862 0.494 0.49828 0.0
H2176 H 0.38287 0.5167 0.48655 0.0
C2177 C 0.36761 0.55965 0.46736 0.0
C2178 C 0.35895 0.57392 0.47389 0.0
C2179 C 0.36498 0.54192 0.47146 0.0
C2180 C 0.37033 0.51052 0.48961 0.0
H2181 H 0.34056 0.42445 0.50537 0.0
H2182 H 0.33512 0.45448 0.49588 0.0
H2183 H 0.38396 0.48703 0.49653 0.0
H2184 H 0.33979 0.58075 0.48926 0.0
H2185 H 0.33541 0.54956 0.49663 0.0
H2186 H 0.32507 0.51781 0.49136 0.0
C2187 C 0.34557 0.45285 0.50325 0.0
C2188 C 0.37099 0.49357 0.49548 0.0
C2189 C 0.34871 0.43569 0.50865 0.0
C2190 C 0.34665 0.56999 0.48406 0.0
C2191 C 0.34411 0.55215 0.48825 0.0
C2192 C 0.33797 0.51116 0.49246 0.0
C2193 C 0.35657 0.4675 0.50682 0.0
C2194 C 0.35522 0.48517 0.50001 0.0
C2195 C 0.35378 0.538 0.48228 0.0
C2196 C 0.35386 0.51959 0.48807 0.0
H2197 H 0.38393 0.44644 0.52885 0.0
H2198 H 0.37844 0.47603 0.51954 0.0
H2199 H 0.32626 0.48783 0.50172 0.0
H2200 H 0.37696 0.56222 0.45936 0.0
H2201 H 0.3723 0.5313 0.46644 0.0
C2202 C 0.80629 0.11903 0.77704 0.0
C2203 C 0.82159 0.11026 0.77203 0.0
C2204 C 0.78912 0.1145 0.77252 0.0
C2205 C 0.75333 0.09773 0.7651 0.0
H2206 H 0.74801 0.09701 0.72695 0.0
C2207 C 0.6833 0.09545 0.74011 0.0
C2208 C 0.68091 0.10863 0.73029 0.0
C2209 C 0.70055 0.09147 0.74489 0.0
C2210 C 0.74929 0.09707 0.73763 0.0
H2211 H 0.8309 0.0894 0.75868 0.0
H2212 H 0.80075 0.08155 0.75064 0.0
H2213 H 0.77809 0.09749 0.73669 0.0
H2214 H 0.69477 0.12742 0.71739 0.0
H2215 H 0.72472 0.12051 0.72569 0.0
H2216 H 0.72454 0.09819 0.76603 0.0
C2217 C 0.80211 0.09197 0.75807 0.0
C2218 C 0.76652 0.09716 0.74321 0.0
C2219 C 0.81934 0.0964 0.76271 0.0
C2220 C 0.69615 0.11723 0.72499 0.0
C2221 C 0.71335 0.11316 0.72968 0.0
C2222 C 0.7361 0.09755 0.75952 0.0
C2223 C 0.78684 0.10116 0.7628 0.0
C2224 C 0.76872 0.09804 0.757 0.0
C2225 C 0.71574 0.10047 0.73984 0.0
C2226 C 0.73389 0.09777 0.74571 0.0
H2227 H 0.80757 0.12973 0.78426 0.0
H2228 H 0.77769 0.12201 0.77625 0.0
H2229 H 0.7546 0.0982 0.77577 0.0
H2230 H 0.67181 0.08859 0.74436 0.0
H2231 H 0.70199 0.08154 0.75266 0.0
C2232 C 0.85135 0.56893 0.01441 0.0
C2233 C 0.86569 0.5724 0.02314 0.0
C2234 C 0.84838 0.5514 0.00961 0.0
C2235 C 0.87447 0.51053 0.00299 0.0
H2236 H 0.82869 0.48613 0.99859 0.0
C2237 C 0.85011 0.43398 0.9909 0.0
C2238 C 0.86236 0.43026 0.98065 0.0
C2239 C 0.84774 0.45172 0.99542 0.0
C2240 C 0.84155 0.4928 -0.0002 0.0
H2241 H 0.88726 0.56004 0.03441 0.0
H2242 H 0.88201 0.52979 0.02622 0.0
H2243 H 0.8296 0.51635 0.00858 0.0
H2244 H 0.88057 0.44231 0.9664 0.0
H2245 H 0.87626 0.47298 0.97408 0.0
H2246 H 0.88657 0.48722 0.99446 0.0
C2247 C 0.87331 0.54054 0.02281 0.0
C2248 C 0.84205 0.51012 0.00542 0.0
C2249 C 0.87628 0.55791 0.02754 0.0
C2250 C 0.87125 0.44467 0.97446 0.0
C2251 C 0.86883 0.46227 0.97889 0.0
C2252 C 0.87397 0.49343 0.99734 0.0
C2253 C 0.85972 0.53714 0.01348 0.0
C2254 C 0.85858 0.51907 0.00718 0.0
C2255 C 0.85756 0.46597 0.98972 0.0
C2256 C 0.85754 0.48432 0.99566 0.0
H2257 H 0.84294 0.57983 0.01087 0.0
H2258 H 0.8378 0.54918 0.00243 0.0
H2259 H 0.88741 0.51713 0.00404 0.0
H2260 H 0.84306 0.42313 0.99584 0.0
H2261 H 0.83897 0.45413 0.00379 0.0
C2262 C 0.18208 0.09573 0.76141 0.0
C2263 C 0.18033 0.11023 0.77026 0.0
C2264 C 0.19915 0.09022 0.75709 0.0
C2265 C 0.248 0.09392 0.76449 0.0
H2266 H 0.25407 0.09117 0.72645 0.0
C2267 C 0.30662 0.11049 0.7252 0.0
C2268 C 0.32151 0.10188 0.73099 0.0
C2269 C 0.28916 0.10661 0.72945 0.0
C2270 C 0.25257 0.09175 0.7371 0.0
H2271 H 0.19507 0.12975 0.78198 0.0
H2272 H 0.22468 0.12013 0.77454 0.0
H2273 H 0.22384 0.09345 0.73581 0.0
H2274 H 0.32975 0.08187 0.74536 0.0
H2275 H 0.2991 0.07517 0.75291 0.0
H2276 H 0.27676 0.09313 0.76576 0.0
C2277 C 0.21296 0.11296 0.77093 0.0
C2278 C 0.23525 0.09289 0.74247 0.0
C2279 C 0.19596 0.11858 0.77513 0.0
C2280 C 0.31853 0.08871 0.74072 0.0
C2281 C 0.30101 0.08495 0.74508 0.0
C2282 C 0.26531 0.09267 0.75913 0.0
C2283 C 0.21476 0.09894 0.76169 0.0
C2284 C 0.23281 0.09458 0.7562 0.0
C2285 C 0.28617 0.09414 0.73966 0.0
C2286 C 0.26782 0.09216 0.74536 0.0
H2287 H 0.17027 0.08904 0.7575 0.0
H2288 H 0.20013 0.07931 0.75002 0.0
H2289 H 0.24652 0.095 0.77512 0.0
H2290 H 0.30847 0.12067 0.71765 0.0
H2291 H 0.27807 0.11409 0.72516 0.0
C2292 C 0.62651 0.44083 0.52878 0.0
C2293 C 0.63693 0.42629 0.52426 0.0
C2294 C 0.62923 0.45811 0.52381 0.0
C2295 C 0.627 0.48769 0.50374 0.0
H2296 H 0.67249 0.51184 0.49742 0.0
C2297 C 0.62853 0.5527 0.4741 0.0
C2298 C 0.63797 0.56723 0.47968 0.0
C2299 C 0.63114 0.53523 0.47875 0.0
C2300 C 0.65971 0.50525 0.49917 0.0
H2301 H 0.65913 0.41866 0.51154 0.0
H2302 H 0.66381 0.44913 0.50265 0.0
H2303 H 0.67217 0.48196 0.50793 0.0
H2304 H 0.65838 0.57468 0.49399 0.0
H2305 H 0.66277 0.54392 0.50233 0.0
H2306 H 0.61441 0.51076 0.49524 0.0
C2307 C 0.65357 0.44704 0.51012 0.0
C2308 C 0.65954 0.48812 0.50509 0.0
C2309 C 0.65088 0.42961 0.51518 0.0
C2310 C 0.65089 0.56374 0.48952 0.0
C2311 C 0.65343 0.54614 0.49426 0.0
C2312 C 0.62717 0.50461 0.49781 0.0
C2313 C 0.64237 0.46134 0.51411 0.0
C2314 C 0.64312 0.47925 0.50754 0.0
C2315 C 0.64313 0.53179 0.48919 0.0
C2316 C 0.64349 0.51363 0.49542 0.0
H2317 H 0.61584 0.4388 0.53593 0.0
H2318 H 0.62066 0.46891 0.52732 0.0
H2319 H 0.61413 0.48115 0.50531 0.0
H2320 H 0.61868 0.55489 0.46636 0.0
H2321 H 0.62331 0.52443 0.47441 0.0
C2322 C 0.18039 0.90753 0.23905 0.0
C2323 C 0.17783 0.89373 0.22973 0.0
C2324 C 0.19779 0.912 0.24339 0.0
C2325 C 0.2464 0.90618 0.23512 0.0
H2326 H 0.25363 0.90848 0.27305 0.0
C2327 C 0.30491 0.88658 0.27402 0.0
C2328 C 0.32024 0.89386 0.26788 0.0
C2329 C 0.28766 0.89144 0.26987 0.0
C2330 C 0.25184 0.90798 0.26242 0.0
H2331 H 0.19155 0.87424 0.2173 0.0
H2332 H 0.2216 0.88193 0.22481 0.0
H2333 H 0.22309 0.90779 0.26415 0.0
H2334 H 0.32951 0.91258 0.25292 0.0
H2335 H 0.29918 0.92108 0.24557 0.0
H2336 H 0.27512 0.90536 0.23341 0.0
C2337 C 0.21031 0.88945 0.22875 0.0
C2338 C 0.23432 0.90777 0.25732 0.0
C2339 C 0.19301 0.88492 0.22452 0.0
C2340 C 0.31794 0.90674 0.25784 0.0
C2341 C 0.30059 0.91152 0.25359 0.0
C2342 C 0.26391 0.90642 0.24022 0.0
C2343 C 0.21295 0.90287 0.23835 0.0
C2344 C 0.23139 0.90625 0.24362 0.0
C2345 C 0.28524 0.90365 0.25941 0.0
C2346 C 0.26684 0.90672 0.25396 0.0
H2347 H 0.16896 0.91457 0.24324 0.0
H2348 H 0.19938 0.92247 0.25075 0.0
H2349 H 0.24461 0.90529 0.22451 0.0
H2350 H 0.3062 0.87666 0.28182 0.0
H2351 H 0.27622 0.88491 0.27447 0.0
C2352 C 0.62385 0.05564 0.52497 0.0
C2353 C 0.63482 0.07014 0.52112 0.0
C2354 C 0.62675 0.03844 0.51991 0.0
C2355 C 0.65847 0.00841 0.50254 0.0
H2356 H 0.61417 0.98551 0.49114 0.0
C2357 C 0.62945 0.94218 0.47212 0.0
C2358 C 0.6388 0.92811 0.47835 0.0
C2359 C 0.63175 0.95996 0.47624 0.0
C2360 C 0.62673 0.99173 0.49411 0.0
H2361 H 0.65808 0.07774 0.50945 0.0
H2362 H 0.66308 0.0474 0.5004 0.0
H2363 H 0.61314 0.01535 0.50078 0.0
H2364 H 0.65875 0.92173 0.49326 0.0
H2365 H 0.66255 0.95295 0.50071 0.0
H2366 H 0.67201 0.98453 0.49574 0.0
C2367 C 0.65227 0.04947 0.50742 0.0
C2368 C 0.6261 0.00879 0.49981 0.0
C2369 C 0.64938 0.06683 0.51257 0.0
C2370 C 0.65136 0.93232 0.48829 0.0
C2371 C 0.65356 0.9502 0.49252 0.0
C2372 C 0.6591 0.99116 0.49684 0.0
C2373 C 0.64062 0.03522 0.51077 0.0
C2374 C 0.64189 0.0173 0.50423 0.0
C2375 C 0.6433 0.96414 0.48682 0.0
C2376 C 0.6432 0.98263 0.49257 0.0
H2377 H 0.61268 0.05764 0.5317 0.0
H2378 H 0.61781 0.02767 0.52294 0.0
H2379 H 0.67086 0.01461 0.50588 0.0
H2380 H 0.61987 0.93941 0.4643 0.0
H2381 H 0.62399 0.9704 0.47139 0.0
C2382 C 0.18547 0.40756 0.75787 0.0
C2383 C 0.18245 0.39349 0.7669 0.0
C2384 C 0.20303 0.41175 0.75377 0.0
C2385 C 0.2393 0.40657 0.73978 0.0
H2386 H 0.28013 0.40246 0.76352 0.0
C2387 C 0.30893 0.38291 0.72281 0.0
C2388 C 0.32454 0.38982 0.7288 0.0
C2389 C 0.29189 0.38831 0.72706 0.0
C2390 C 0.26892 0.40399 0.75676 0.0
H2391 H 0.19548 0.37336 0.77915 0.0
H2392 H 0.22586 0.38061 0.77205 0.0
H2393 H 0.24966 0.40327 0.77253 0.0
H2394 H 0.33456 0.40839 0.74359 0.0
H2395 H 0.30459 0.4178 0.75115 0.0
H2396 H 0.25853 0.40679 0.72399 0.0
C2397 C 0.2148 0.38851 0.76815 0.0
C2398 C 0.25143 0.40427 0.76193 0.0
C2399 C 0.19733 0.38424 0.77215 0.0
C2400 C 0.32276 0.40285 0.73879 0.0
C2401 C 0.30562 0.40815 0.74316 0.0
C2402 C 0.25678 0.40624 0.73462 0.0
C2403 C 0.21788 0.40209 0.75874 0.0
C2404 C 0.2364 0.40497 0.75347 0.0
C2405 C 0.28998 0.40069 0.73748 0.0
C2406 C 0.27177 0.40437 0.74302 0.0
H2407 H 0.17427 0.41493 0.75366 0.0
H2408 H 0.20497 0.42237 0.74656 0.0
H2409 H 0.22804 0.40706 0.73298 0.0
H2410 H 0.30983 0.37289 0.71505 0.0
H2411 H 0.28019 0.3821 0.72257 0.0
C2412 C 0.85428 0.93334 0.01526 0.0
C2413 C 0.86884 0.9297 0.02374 0.0
C2414 C 0.85138 0.95088 0.01049 0.0
C2415 C 0.87757 0.99173 0.00363 0.0
H2416 H 0.83161 0.01584 0.99936 0.0
C2417 C 0.8521 0.06789 0.99086 0.0
C2418 C 0.86408 0.07155 0.98043 0.0
C2419 C 0.85019 0.05026 0.9957 0.0
C2420 C 0.84453 0.00926 0.00055 0.0
H2421 H 0.89095 0.94179 0.0346 0.0
H2422 H 0.8858 0.9721 0.02649 0.0
H2423 H 0.83278 0.98573 0.00947 0.0
H2424 H 0.88243 0.05945 0.96629 0.0
H2425 H 0.87894 0.02895 0.97455 0.0
H2426 H 0.88946 0.01505 0.99494 0.0
C2427 C 0.87687 0.96145 0.02323 0.0
C2428 C 0.84518 0.99201 0.00623 0.0
C2429 C 0.87978 0.94405 0.02791 0.0
C2430 C 0.87329 0.05715 0.97447 0.0
C2431 C 0.87134 0.03965 0.97924 0.0
C2432 C 0.87692 0.0088 0.99793 0.0
C2433 C 0.863 0.96502 0.01415 0.0
C2434 C 0.86176 0.98313 0.00791 0.0
C2435 C 0.86023 0.03604 0.99017 0.0
C2436 C 0.86043 0.0178 0.99628 0.0
H2437 H 0.8456 0.92255 0.01189 0.0
H2438 H 0.84058 0.95321 0.0035 0.0
H2439 H 0.89055 0.9852 0.0046 0.0
H2440 H 0.8448 0.07872 0.99563 0.0
H2441 H 0.84154 0.04791 0.00415 0.0
C2442 C 0.31723 0.59279 0.25743 0.0
C2443 C 0.32029 0.60627 0.26693 0.0
C2444 C 0.29963 0.58869 0.25336 0.0
C2445 C 0.2632 0.59471 0.23985 0.0
H2446 H 0.22255 0.59637 0.26392 0.0
C2447 C 0.19267 0.61712 0.2237 0.0
C2448 C 0.17737 0.60887 0.2292 0.0
C2449 C 0.20992 0.6125 0.22801 0.0
C2450 C 0.23372 0.59557 0.25706 0.0
H2451 H 0.3073 0.62532 0.2801 0.0
H2452 H 0.27685 0.6182 0.27308 0.0
H2453 H 0.25313 0.59536 0.27274 0.0
H2454 H 0.1682 0.58895 0.24333 0.0
H2455 H 0.19852 0.58093 0.251 0.0
H2456 H 0.24381 0.59538 0.22417 0.0
C2457 C 0.28791 0.61072 0.26876 0.0
C2458 C 0.25127 0.59516 0.26211 0.0
C2459 C 0.30542 0.61491 0.27272 0.0
C2460 C 0.17974 0.59553 0.2389 0.0
C2461 C 0.19707 0.59101 0.24333 0.0
C2462 C 0.24566 0.59519 0.2348 0.0
C2463 C 0.28478 0.59784 0.25884 0.0
C2464 C 0.26622 0.59525 0.25357 0.0
C2465 C 0.21235 0.59958 0.238 0.0
C2466 C 0.23073 0.59615 0.24334 0.0
H2467 H 0.32842 0.58591 0.25278 0.0
H2468 H 0.29766 0.5786 0.24576 0.0
H2469 H 0.27438 0.59488 0.23298 0.0
H2470 H 0.19135 0.62742 0.21618 0.0
H2471 H 0.22133 0.61956 0.22382 0.0
C2472 C 0.34945 0.0727 0.51039 0.0
C2473 C 0.36246 0.0758 0.52024 0.0
C2474 C 0.34711 0.05536 0.5051 0.0
C2475 C 0.34128 0.01429 0.49973 0.0
H2476 H 0.38705 0.99144 0.49193 0.0
C2477 C 0.35077 0.93848 0.48535 0.0
C2478 C 0.36446 0.93462 0.47616 0.0
C2479 C 0.34796 0.95622 0.48969 0.0
C2480 C 0.37412 0.99765 0.4939 0.0
H2481 H 0.38221 0.06296 0.53295 0.0
H2482 H 0.37803 0.033 0.52387 0.0
H2483 H 0.38661 0.0211 0.50195 0.0
H2484 H 0.38492 0.94644 0.46356 0.0
H2485 H 0.37986 0.97718 0.47094 0.0
H2486 H 0.32888 0.99057 0.49158 0.0
C2487 C 0.36992 0.04392 0.51999 0.0
C2488 C 0.37388 0.01459 0.49981 0.0
C2489 C 0.37226 0.06111 0.52522 0.0
C2490 C 0.37445 0.94892 0.4708 0.0
C2491 C 0.3716 0.96655 0.47506 0.0
C2492 C 0.34153 0.99714 0.49385 0.0
C2493 C 0.35777 0.04092 0.50958 0.0
C2494 C 0.3575 0.02308 0.5029 0.0
C2495 C 0.35876 0.97035 0.48489 0.0
C2496 C 0.35799 0.98866 0.49086 0.0
H2497 H 0.34169 0.08377 0.50638 0.0
H2498 H 0.33764 0.05343 0.49708 0.0
H2499 H 0.32846 0.0205 0.50202 0.0
H2500 H 0.34284 0.92773 0.48964 0.0
H2501 H 0.33799 0.95871 0.4973 0.0
C2502 C 0.68051 0.60124 0.26359 0.0
C2503 C 0.67814 0.61622 0.27191 0.0
C2504 C 0.69782 0.59616 0.25945 0.0
C2505 C 0.74651 0.60252 0.26677 0.0
H2506 H 0.75293 0.597 0.22894 0.0
C2507 C 0.80428 0.61858 0.22661 0.0
C2508 C 0.81963 0.61101 0.23253 0.0
C2509 C 0.78709 0.61441 0.23123 0.0
C2510 C 0.75135 0.59836 0.23954 0.0
H2511 H 0.69207 0.63713 0.28286 0.0
H2512 H 0.72203 0.6283 0.27573 0.0
H2513 H 0.72257 0.5986 0.23814 0.0
H2514 H 0.82898 0.59262 0.24768 0.0
H2515 H 0.79872 0.58543 0.25594 0.0
H2516 H 0.77529 0.6032 0.2681 0.0
C2517 C 0.71064 0.6204 0.2724 0.0
C2518 C 0.73395 0.59911 0.24483 0.0
C2519 C 0.69341 0.62556 0.2764 0.0
C2520 C 0.81739 0.59865 0.24292 0.0
C2521 C 0.8001 0.59461 0.24768 0.0
C2522 C 0.76391 0.60167 0.2615 0.0
C2523 C 0.71306 0.60582 0.26372 0.0
C2524 C 0.73134 0.60181 0.25845 0.0
C2525 C 0.78477 0.60265 0.24198 0.0
C2526 C 0.76652 0.60018 0.24777 0.0
H2527 H 0.66898 0.59377 0.25997 0.0
H2528 H 0.69926 0.58482 0.2528 0.0
H2529 H 0.74493 0.60438 0.27734 0.0
H2530 H 0.80555 0.62811 0.21854 0.0
H2531 H 0.77563 0.62103 0.22673 0.0
C2532 C 0.15457 0.93251 0.01209 0.0
C2533 C 0.14113 0.92882 0.0215 0.0
C2534 C 0.15716 0.95017 0.00746 0.0
C2535 C 0.16335 0.99149 0.00373 0.0
H2536 H 0.11808 0.01481 0.99519 0.0
C2537 C 0.15453 0.06779 0.99 0.0
C2538 C 0.14184 0.07153 0.98005 0.0
C2539 C 0.15697 0.05008 0.99453 0.0
C2540 C 0.13086 0.00848 0.99743 0.0
H2541 H 0.12081 0.94089 0.03414 0.0
H2542 H 0.1254 0.97138 0.02621 0.0
H2543 H 0.11793 0.9847 0.0045 0.0
H2544 H 0.12271 0.05951 0.96642 0.0
H2545 H 0.12706 0.0289 0.9742 0.0
H2546 H 0.1762 0.01554 0.99652 0.0
C2547 C 0.13368 0.9607 0.02216 0.0
C2548 C 0.13077 0.99128 0.0029 0.0
C2549 C 0.13109 0.9432 0.02673 0.0
C2550 C 0.1324 0.05716 0.97424 0.0
C2551 C 0.13485 0.03958 0.97872 0.0
C2552 C 0.16344 0.00891 0.9983 0.0
C2553 C 0.14633 0.96433 0.0122 0.0
C2554 C 0.14697 0.98258 0.00617 0.0
C2555 C 0.14674 0.03588 0.98917 0.0
C2556 C 0.14716 0.01752 0.99504 0.0
H2557 H 0.16254 0.9217 0.00791 0.0
H2558 H 0.16701 0.95258 -0.00023 0.0
H2559 H 0.17604 0.98512 0.00619 0.0
H2560 H 0.16203 0.07859 0.99463 0.0
H2561 H 0.16621 0.04762 0.00262 0.0
C2562 C 0.80955 0.38117 0.77625 0.0
C2563 C 0.82434 0.39068 0.77111 0.0
C2564 C 0.79202 0.38536 0.77233 0.0
C2565 C 0.76729 0.40399 0.74424 0.0
H2566 H 0.72652 0.40006 0.76806 0.0
C2567 C 0.68386 0.4044 0.74309 0.0
C2568 C 0.68131 0.39216 0.73265 0.0
C2569 C 0.70125 0.40812 0.7478 0.0
C2570 C 0.73773 0.4015 0.76129 0.0
H2571 H 0.83227 0.41249 0.75812 0.0
H2572 H 0.8015 0.4198 0.75116 0.0
H2573 H 0.75708 0.39998 0.77698 0.0
H2574 H 0.69501 0.37478 0.71864 0.0
H2575 H 0.7251 0.38127 0.72676 0.0
H2576 H 0.74796 0.40506 0.72853 0.0
C2577 C 0.80355 0.40903 0.75822 0.0
C2578 C 0.75526 0.40127 0.76639 0.0
C2579 C 0.82115 0.40491 0.76225 0.0
C2580 C 0.69648 0.38424 0.72672 0.0
C2581 C 0.71379 0.38807 0.73132 0.0
C2582 C 0.74977 0.40413 0.73914 0.0
C2583 C 0.7888 0.39912 0.76308 0.0
C2584 C 0.77025 0.40205 0.7579 0.0
C2585 C 0.7164 0.39985 0.74203 0.0
C2586 C 0.7348 0.40241 0.74757 0.0
H2587 H 0.81153 0.37014 0.78312 0.0
H2588 H 0.78104 0.3773 0.77615 0.0
H2589 H 0.77851 0.40451 0.73741 0.0
H2590 H 0.67242 0.41071 0.74785 0.0
H2591 H 0.70283 0.41733 0.75602 0.0
C2592 C 0.14493 0.81811 0.01845 0.0
C2593 C 0.14191 0.82363 0.03155 0.0
C2594 C 0.15054 0.80041 0.01576 0.0
C2595 C 0.14561 0.75918 0.01472 0.0
H2596 H 0.17717 0.73284 0.03837 0.0
C2597 C 0.14437 0.68756 0.04148 0.0
C2598 C 0.14049 0.67573 0.03104 0.0
C2599 C 0.15055 0.70494 0.03896 0.0
C2600 C 0.16844 0.74 0.03158 0.0
H2601 H 0.14346 0.81556 0.0521 0.0
H2602 H 0.15353 0.78507 0.0475 0.0
H2603 H 0.17753 0.76571 0.03846 0.0
H2604 H 0.14062 0.6725 0.00977 0.0
H2605 H 0.15123 0.7033 0.00527 0.0
H2606 H 0.13577 0.73345 0.00839 0.0
C2607 C 0.1516 0.79418 0.03926 0.0
C2608 C 0.16865 0.75882 0.03163 0.0
C2609 C 0.14573 0.81164 0.0419 0.0
C2610 C 0.14371 0.68133 0.01799 0.0
C2611 C 0.14963 0.69896 0.01543 0.0
C2612 C 0.14541 0.74031 0.01465 0.0
C2613 C 0.15355 0.78814 0.02616 0.0
C2614 C 0.15664 0.76863 0.02365 0.0
C2615 C 0.15274 0.71107 0.02591 0.0
C2616 C 0.15623 0.73054 0.02353 0.0
H2617 H 0.14188 0.82706 0.01029 0.0
H2618 H 0.15196 0.79615 0.00557 0.0
H2619 H 0.13611 0.76632 0.0085 0.0
H2620 H 0.14194 0.68357 0.05164 0.0
H2621 H 0.15255 0.71394 0.04727 0.0
C2622 C 0.56802 0.89537 0.26479 0.0
C2623 C 0.57243 0.89142 0.27799 0.0
C2624 C 0.55021 0.89964 0.26133 0.0
C2625 C 0.50505 0.91135 0.27529 0.0
H2626 H 0.4868 0.87866 0.24858 0.0
C2627 C 0.43952 0.86609 0.2688 0.0
C2628 C 0.42524 0.87824 0.2707 0.0
C2629 C 0.45684 0.87223 0.26604 0.0
C2630 C 0.49169 0.8881 0.25592 0.0
H2631 H 0.5621 0.89016 0.29801 0.0
H2632 H 0.53134 0.89781 0.29207 0.0
H2633 H 0.51922 0.8826 0.25114 0.0
H2634 H 0.41791 0.90647 0.27083 0.0
H2635 H 0.44864 0.91736 0.26636 0.0
H2636 H 0.47749 0.91588 0.28065 0.0
C2637 C 0.54144 0.89762 0.28434 0.0
C2638 C 0.51028 0.89047 0.25732 0.0
C2639 C 0.55907 0.8931 0.28774 0.0
C2640 C 0.42861 0.89678 0.2693 0.0
C2641 C 0.44618 0.903 0.26682 0.0
C2642 C 0.48644 0.90906 0.27383 0.0
C2643 C 0.53662 0.90034 0.27105 0.0
C2644 C 0.5172 0.90148 0.26743 0.0
C2645 C 0.46052 0.89074 0.26534 0.0
C2646 C 0.4796 0.89677 0.26454 0.0
H2647 H 0.57804 0.89405 0.25707 0.0
H2648 H 0.54693 0.90174 0.25101 0.0
H2649 H 0.50997 0.9201 0.28307 0.0
H2650 H 0.43749 0.85175 0.26985 0.0
H2651 H 0.46758 0.86242 0.26518 0.0
C2652 C 0.35968 0.19233 0.54309 0.0
C2653 C 0.36277 0.18068 0.5324 0.0
C2654 C 0.3538 0.20991 0.54098 0.0
C2655 C 0.33688 0.24575 0.53485 0.0
H2656 H 0.36735 0.27153 0.51014 0.0
C2657 C 0.35928 0.32361 0.5203 0.0
C2658 C 0.36396 0.32932 0.53311 0.0
C2659 C 0.35359 0.30584 0.51808 0.0
C2660 C 0.3584 0.26454 0.51686 0.0
H2661 H 0.36141 0.17798 0.51111 0.0
H2662 H 0.35121 0.2091 0.50732 0.0
H2663 H 0.36688 0.23866 0.50986 0.0
H2664 H 0.36533 0.32133 0.55369 0.0
H2665 H 0.35512 0.29064 0.5499 0.0
H2666 H 0.32928 0.27161 0.54239 0.0
C2667 C 0.35328 0.20449 0.51737 0.0
C2668 C 0.35811 0.24568 0.51669 0.0
C2669 C 0.35896 0.18667 0.51952 0.0
C2670 C 0.36182 0.31731 0.54371 0.0
C2671 C 0.35587 0.29974 0.54154 0.0
C2672 C 0.33723 0.26456 0.53505 0.0
C2673 C 0.35105 0.21643 0.52809 0.0
C2674 C 0.34794 0.23606 0.52607 0.0
C2675 C 0.35214 0.29363 0.52868 0.0
C2676 C 0.34857 0.27415 0.52643 0.0
H2677 H 0.36255 0.18804 0.55312 0.0
H2678 H 0.3525 0.21872 0.54947 0.0
H2679 H 0.32863 0.23875 0.54203 0.0
H2680 H 0.36095 0.33255 0.51193 0.0
H2681 H 0.35078 0.3015 0.50806 0.0
C2682 C 0.93425 0.10354 0.78734 0.0
C2683 C 0.9261 0.11673 0.77945 0.0
C2684 C 0.9522 0.09863 0.78515 0.0
C2685 C 0.99146 0.10536 0.76224 0.0
H2686 H 0.01875 0.1039 0.79491 0.0
C2687 C 0.06474 0.12942 0.76733 0.0
C2688 C 0.0761 0.12081 0.77641 0.0
C2689 C 0.04694 0.1237 0.76576 0.0
C2690 C 0.01137 0.10387 0.78567 0.0
H2691 H 0.92977 0.13479 0.76291 0.0
H2692 H 0.96117 0.12662 0.75919 0.0
H2693 H 0.98612 0.10313 0.79571 0.0
H2694 H 0.07831 0.09917 0.79062 0.0
H2695 H 0.04706 0.08904 0.78791 0.0
H2696 H 0.01692 0.10717 0.7523 0.0
C2697 C 0.95377 0.1196 0.76683 0.0
C2698 C 0.99257 0.1034 0.78612 0.0
C2699 C 0.93579 0.12435 0.76896 0.0
C2700 C 0.06976 0.10584 0.78345 0.0
C2701 C 0.05189 0.10017 0.78197 0.0
C2702 C 0.0103 0.10598 0.76181 0.0
C2703 C 0.96241 0.1071 0.77518 0.0
C2704 C 0.98233 0.10462 0.77444 0.0
C2705 C 0.04013 0.1094 0.7734 0.0
C2706 C 0.02044 0.10571 0.77355 0.0
H2707 H 0.927 0.09768 0.79559 0.0
H2708 H 0.95829 0.08874 0.79162 0.0
H2709 H 0.98405 0.10598 0.75303 0.0
H2710 H 0.06938 0.14109 0.76189 0.0
H2711 H 0.03821 0.13122 0.7592 0.0
C2712 C 0.14871 0.18858 0.96118 0.0
C2713 C 0.14366 0.17659 0.97125 0.0
C2714 C 0.15428 0.20602 0.96421 0.0
C2715 C 0.16989 0.2416 0.97275 0.0
H2716 H 0.13438 0.26639 0.99416 0.0
C2717 C 0.14175 0.31847 0.98469 0.0
C2718 C 0.13927 0.32374 0.97147 0.0
C2719 C 0.1481 0.30111 0.98764 0.0
C2720 C 0.14473 0.25969 0.98844 0.0
H2721 H 0.1412 0.17311 0.99242 0.0
H2722 H 0.15079 0.20397 0.9978 0.0
H2723 H 0.13533 0.23355 0.99415 0.0
H2724 H 0.14238 0.31566 0.95104 0.0
H2725 H 0.15384 0.28575 0.9561 0.0
H2726 H 0.17848 0.26773 0.96637 0.0
C2727 C 0.15054 0.19974 0.98755 0.0
C2728 C 0.14529 0.24084 0.98843 0.0
C2729 C 0.14521 0.18207 0.9845 0.0
C2730 C 0.14431 0.31192 0.9613 0.0
C2731 C 0.15094 0.29482 0.96423 0.0
C2732 C 0.1693 0.26042 0.97273 0.0
C2733 C 0.15471 0.21204 0.97739 0.0
C2734 C 0.1573 0.23158 0.98009 0.0
C2735 C 0.15238 0.28897 0.97741 0.0
C2736 C 0.15616 0.26964 0.9801 0.0
H2737 H 0.1476 0.1847 0.95088 0.0
H2738 H 0.15712 0.21515 0.95612 0.0
H2739 H 0.17954 0.23487 0.96641 0.0
H2740 H 0.13771 0.32731 0.99268 0.0
H2741 H 0.14907 0.29697 0.99788 0.0
C2742 C 0.93007 0.89459 0.23178 0.0
C2743 C 0.92381 0.89073 0.21896 0.0
C2744 C 0.94808 0.89966 0.23383 0.0
C2745 C 0.98928 0.89394 0.23431 0.0
H2746 H 0.01507 0.9241 0.20938 0.0
C2747 C 0.06137 0.89312 0.20748 0.0
C2748 C 0.07322 0.88991 0.21804 0.0
C2749 C 0.04373 0.89871 0.2098 0.0
C2750 C 0.00808 0.91572 0.21649 0.0
H2751 H 0.93111 0.89018 0.19822 0.0
H2752 H 0.96219 0.89932 0.20172 0.0
H2753 H 0.98221 0.92407 0.20942 0.0
H2754 H 0.07614 0.89069 0.23934 0.0
H2755 H 0.04493 0.90036 0.24348 0.0
H2756 H 0.01517 0.8848 0.24086 0.0
C2757 C 0.95336 0.89841 0.21022 0.0
C2758 C 0.98925 0.91571 0.21651 0.0
C2759 C 0.93555 0.89307 0.20821 0.0
C2760 C 0.0673 0.89322 0.23102 0.0
C2761 C 0.04943 0.8986 0.23338 0.0
C2762 C 0.00816 0.8939 0.23426 0.0
C2763 C 0.95999 0.90131 0.22306 0.0
C2764 C 0.97964 0.90428 0.22505 0.0
C2765 C 0.03735 0.90106 0.22278 0.0
C2766 C 0.01776 0.90423 0.22497 0.0
H2767 H 0.92137 0.89273 0.24026 0.0
H2768 H 0.9528 0.90185 0.24383 0.0
H2769 H 0.98228 0.8849 0.24096 0.0
H2770 H 0.06557 0.89068 0.19738 0.0
H2771 H 0.03481 0.9002 0.2014 0.0
C2772 C 0.34914 0.68705 0.46435 0.0
C2773 C 0.36319 0.6795 0.47176 0.0
C2774 C 0.34383 0.7049 0.46655 0.0
C2775 C 0.3505 0.74478 0.48877 0.0
H2776 H 0.34836 0.77135 0.45581 0.0
C2777 C 0.37373 0.81816 0.48316 0.0
C2778 C 0.36591 0.82907 0.47342 0.0
C2779 C 0.36777 0.80049 0.48502 0.0
C2780 C 0.34847 0.7642 0.46515 0.0
H2781 H 0.38223 0.68409 0.48757 0.0
H2782 H 0.37317 0.71523 0.4914 0.0
H2783 H 0.34786 0.73871 0.45539 0.0
H2784 H 0.34529 0.83062 0.45838 0.0
H2785 H 0.33452 0.79975 0.46175 0.0
H2786 H 0.35199 0.77043 0.49844 0.0
C2787 C 0.36591 0.70745 0.48408 0.0
C2788 C 0.34818 0.74539 0.46491 0.0
C2789 C 0.37117 0.68962 0.48188 0.0
C2790 C 0.35131 0.82248 0.46609 0.0
C2791 C 0.34533 0.80476 0.46793 0.0
C2792 C 0.35081 0.76364 0.489 0.0
C2793 C 0.35263 0.71554 0.47611 0.0
C2794 C 0.34973 0.73541 0.47668 0.0
C2795 C 0.35395 0.79333 0.47707 0.0
C2796 C 0.35034 0.77358 0.47716 0.0
H2797 H 0.34301 0.6795 0.45636 0.0
H2798 H 0.33339 0.7106 0.46036 0.0
H2799 H 0.35141 0.73754 0.49804 0.0
H2800 H 0.38518 0.82295 0.4888 0.0
H2801 H 0.37488 0.79208 0.49204 0.0
C2802 C 0.43374 0.09418 0.72024 0.0
C2803 C 0.4265 0.10804 0.728 0.0
C2804 C 0.45181 0.08922 0.72168 0.0
C2805 C 0.49346 0.09647 0.74182 0.0
H2806 H 0.51654 0.09676 0.70744 0.0
C2807 C 0.56709 0.11861 0.73343 0.0
C2808 C 0.57655 0.11153 0.72263 0.0
C2809 C 0.54934 0.11322 0.73589 0.0
C2810 C 0.51042 0.09619 0.71715 0.0
H2811 H 0.43185 0.12695 0.74377 0.0
H2812 H 0.46343 0.11844 0.74629 0.0
H2813 H 0.48403 0.09555 0.70882 0.0
H2814 H 0.57556 0.09281 0.70628 0.0
H2815 H 0.5448 0.08278 0.71081 0.0
H2816 H 0.52 0.09776 0.75011 0.0
C2817 C 0.45523 0.11112 0.73925 0.0
C2818 C 0.49167 0.09549 0.71794 0.0
C2819 C 0.43716 0.11604 0.73781 0.0
C2820 C 0.56848 0.09828 0.71475 0.0
C2821 C 0.55082 0.09273 0.71727 0.0
C2822 C 0.51229 0.0971 0.74103 0.0
C2823 C 0.46298 0.0982 0.7308 0.0
C2824 C 0.48291 0.09604 0.73026 0.0
C2825 C 0.54077 0.10063 0.72757 0.0
C2826 C 0.521 0.0974 0.72866 0.0
H2827 H 0.42577 0.08805 0.71247 0.0
H2828 H 0.45729 0.07904 0.71514 0.0
H2829 H 0.48713 0.09673 0.75147 0.0
H2830 H 0.57302 0.12912 0.73946 0.0
H2831 H 0.54201 0.11979 0.74379 0.0
C2832 C 0.85847 0.31312 0.96272 0.0
C2833 C 0.86335 0.32476 0.97304 0.0
C2834 C 0.85254 0.29568 0.96539 0.0
C2835 C 0.83532 0.2605 0.97342 0.0
H2836 H 0.86987 0.23373 0.99438 0.0
C2837 C 0.86004 0.18214 0.98458 0.0
C2838 C 0.86144 0.17675 0.9713 0.0
C2839 C 0.85476 0.19981 0.98772 0.0
C2840 C 0.85977 0.24098 0.98878 0.0
H2841 H 0.86534 0.32762 0.99429 0.0
H2842 H 0.85518 0.29671 0.99905 0.0
H2843 H 0.87033 0.26659 0.99475 0.0
H2844 H 0.85735 0.185 0.95099 0.0
H2845 H 0.84788 0.21543 0.95638 0.0
H2846 H 0.8254 0.23493 0.96688 0.0
C2847 C 0.85577 0.30124 0.98887 0.0
C2848 C 0.86005 0.25985 0.98899 0.0
C2849 C 0.86143 0.31892 0.98618 0.0
C2850 C 0.85632 0.18882 0.96131 0.0
C2851 C 0.8508 0.20625 0.96442 0.0
C2852 C 0.83503 0.24168 0.97323 0.0
C2853 C 0.85163 0.28932 0.97847 0.0
C2854 C 0.84836 0.2698 0.98084 0.0
C2855 C 0.8505 0.21219 0.97762 0.0
C2856 C 0.8478 0.2317 0.98043 0.0
H2857 H 0.85995 0.31729 0.9525 0.0
H2858 H 0.84973 0.28682 0.95713 0.0
H2859 H 0.82593 0.26779 0.96721 0.0
H2860 H 0.86411 0.17313 0.99245 0.0
H2861 H 0.8546 0.20397 0.99798 0.0
C2862 C 0.63561 0.8123 0.48447 0.0
C2863 C 0.63982 0.82262 0.47327 0.0
C2864 C 0.6408 0.79417 0.48517 0.0
C2865 C 0.64686 0.75743 0.4619 0.0
H2866 H 0.66048 0.72897 0.49242 0.0
C2867 C 0.6467 0.68097 0.45762 0.0
C2868 C 0.63931 0.6714 0.46826 0.0
C2869 C 0.65197 0.6989 0.45916 0.0
C2870 C 0.65657 0.7367 0.48381 0.0
H2871 H 0.6535 0.82266 0.4544 0.0
H2872 H 0.66298 0.79119 0.45571 0.0
H2873 H 0.66051 0.76191 0.49388 0.0
H2874 H 0.63224 0.67269 0.48898 0.0
H2875 H 0.64064 0.70429 0.49162 0.0
H2876 H 0.64181 0.73268 0.45199 0.0
C2877 C 0.65561 0.79696 0.46393 0.0
C2878 C 0.65668 0.75558 0.48465 0.0
C2879 C 0.65039 0.81501 0.46324 0.0
C2880 C 0.63819 0.67974 0.48068 0.0
C2881 C 0.64302 0.69789 0.48216 0.0
C2882 C 0.64653 0.73869 0.4611 0.0
C2883 C 0.65013 0.7861 0.4746 0.0
C2884 C 0.65173 0.76614 0.4737 0.0
C2885 C 0.64933 0.70793 0.47127 0.0
C2886 C 0.65126 0.72797 0.47205 0.0
H2887 H 0.62707 0.81782 0.49216 0.0
H2888 H 0.63625 0.78614 0.49347 0.0
H2889 H 0.64251 0.76512 0.45337 0.0
H2890 H 0.64769 0.67477 0.44794 0.0
H2891 H 0.65735 0.70591 0.45064 0.0
C2892 C 0.8636 0.68822 0.04801 0.0
C2893 C 0.86526 0.67662 0.0371 0.0
C2894 C 0.85758 0.70587 0.04637 0.0
C2895 C 0.83984 0.74183 0.04132 0.0
H2896 H 0.86726 0.7676 0.01474 0.0
C2897 C 0.86092 0.81956 0.02493 0.0
C2898 C 0.86643 0.82549 0.0375 0.0
C2899 C 0.85481 0.80183 0.02315 0.0
C2900 C 0.85912 0.76063 0.02201 0.0
H2901 H 0.86116 0.67417 0.01598 0.0
H2902 H 0.85073 0.70531 0.01303 0.0
H2903 H 0.86703 0.73475 0.01466 0.0
H2904 H 0.86872 0.81803 0.05814 0.0
H2905 H 0.85786 0.78745 0.05512 0.0
H2906 H 0.83271 0.7677 0.04909 0.0
C2907 C 0.85404 0.70063 0.02288 0.0
C2908 C 0.85899 0.74176 0.02196 0.0
C2909 C 0.85985 0.68277 0.02457 0.0
C2910 C 0.86455 0.81383 0.04834 0.0
C2911 C 0.85822 0.7963 0.0466 0.0
C2912 C 0.83997 0.76066 0.04136 0.0
C2913 C 0.85326 0.7125 0.03373 0.0
C2914 C 0.84997 0.73215 0.03195 0.0
C2915 C 0.85381 0.78987 0.03394 0.0
C2916 C 0.85023 0.77028 0.03205 0.0
H2917 H 0.86769 0.68386 0.05779 0.0
H2918 H 0.85737 0.71465 0.05492 0.0
H2919 H 0.83248 0.73483 0.049 0.0
H2920 H 0.8624 0.82822 0.01638 0.0
H2921 H 0.85143 0.79729 0.01327 0.0
C2922 C 0.64435 0.31649 0.52693 0.0
C2923 C 0.63845 0.3225 0.53938 0.0
C2924 C 0.65021 0.29866 0.52524 0.0
C2925 C 0.64527 0.25764 0.5238 0.0
H2926 H 0.67 0.23103 0.55136 0.0
C2927 C 0.63835 0.18485 0.54897 0.0
C2928 C 0.63707 0.1735 0.53789 0.0
C2929 C 0.6447 0.20244 0.5477 0.0
C2930 C 0.66317 0.23826 0.54352 0.0
H2931 H 0.63529 0.31503 0.55997 0.0
H2932 H 0.64563 0.28426 0.55711 0.0
H2933 H 0.67035 0.26389 0.55166 0.0
H2934 H 0.64225 0.17143 0.51686 0.0
H2935 H 0.6533 0.20244 0.51458 0.0
H2936 H 0.63733 0.232 0.51604 0.0
C2937 C 0.64577 0.29314 0.54861 0.0
C2938 C 0.66337 0.25709 0.54369 0.0
C2939 C 0.63973 0.31078 0.55024 0.0
C2940 C 0.64323 0.17983 0.52559 0.0
C2941 C 0.64939 0.19761 0.52427 0.0
C2942 C 0.64509 0.23878 0.52362 0.0
C2943 C 0.65054 0.28665 0.53602 0.0
C2944 C 0.6538 0.26701 0.53415 0.0
C2945 C 0.64977 0.20925 0.53527 0.0
C2946 C 0.65341 0.22888 0.53379 0.0
H2947 H 0.64337 0.32518 0.51836 0.0
H2948 H 0.6539 0.29409 0.51543 0.0
H2949 H 0.63765 0.26483 0.51636 0.0
H2950 H 0.63369 0.18035 0.55858 0.0
H2951 H 0.64459 0.21104 0.55635 0.0
C2952 C 0.93469 0.39085 0.76388 0.0
C2953 C 0.92955 0.38773 0.77705 0.0
C2954 C 0.95223 0.39676 0.76096 0.0
C2955 C 0.99363 0.39265 0.75952 0.0
H2956 H 0.01947 0.42561 0.78243 0.0
C2957 C 0.0659 0.39457 0.78548 0.0
C2958 C 0.07754 0.3904 0.77499 0.0
C2959 C 0.0483 0.4002 0.78305 0.0
C2960 C 0.01245 0.41647 0.77586 0.0
H2961 H 0.93813 0.38928 0.79748 0.0
H2962 H 0.96833 0.39994 0.79248 0.0
H2963 H 0.98661 0.42488 0.78296 0.0
H2964 H 0.08019 0.38948 0.75368 0.0
H2965 H 0.04905 0.39918 0.74935 0.0
H2966 H 0.01951 0.38344 0.75302 0.0
C2967 C 0.95904 0.39785 0.78437 0.0
C2968 C 0.99364 0.41607 0.77615 0.0
C2969 C 0.94176 0.39166 0.78724 0.0
C2970 C 0.07152 0.39283 0.76194 0.0
C2971 C 0.05369 0.39821 0.75948 0.0
C2972 C 0.01249 0.39302 0.75924 0.0
C2973 C 0.96469 0.39998 0.77119 0.0
C2974 C 0.98404 0.40358 0.76843 0.0
C2975 C 0.04177 0.40156 0.77004 0.0
C2976 C 0.02213 0.40437 0.76786 0.0
H2977 H 0.92556 0.38771 0.75585 0.0
H2978 H 0.95621 0.39829 0.75071 0.0
H2979 H 0.98665 0.3828 0.7535 0.0
H2980 H 0.07021 0.39273 0.79564 0.0
H2981 H 0.03949 0.40239 0.79144 0.0
C2982 C 0.43173 0.5984 0.27597 0.0
C2983 C 0.4258 0.61427 0.26985 0.0
C2984 C 0.44989 0.59332 0.2752 0.0
C2985 C 0.48935 0.59671 0.28246 0.0
H2986 H 0.5217 0.61139 0.25436 0.0
C2987 C 0.55985 0.62373 0.29285 0.0
C2988 C 0.57395 0.62125 0.28375 0.0
C2989 C 0.54259 0.61729 0.29018 0.0
C2990 C 0.51293 0.60686 0.26224 0.0
H2991 H 0.43362 0.63644 0.25725 0.0
H2992 H 0.46515 0.62794 0.25604 0.0
H2993 H 0.48949 0.60915 0.25001 0.0
H2994 H 0.58103 0.6093 0.26488 0.0
H2995 H 0.55068 0.59793 0.26021 0.0
H2996 H 0.51273 0.59464 0.29472 0.0
C2997 C 0.45601 0.61916 0.26133 0.0
C2998 C 0.49439 0.60578 0.25979 0.0
C2999 C 0.4379 0.62417 0.26209 0.0
C3000 C 0.57049 0.61141 0.27213 0.0
C3001 C 0.55307 0.60502 0.2694 0.0
C3002 C 0.50786 0.59768 0.28487 0.0
C3003 C 0.46244 0.60412 0.26836 0.0
C3004 C 0.48227 0.60141 0.27001 0.0
C3005 C 0.53883 0.60818 0.27831 0.0
C3006 C 0.51982 0.60351 0.27497 0.0
H3007 H 0.42264 0.59067 0.28215 0.0
H3008 H 0.45427 0.58146 0.28054 0.0
H3009 H 0.48054 0.59338 0.29063 0.0
H3010 H 0.56199 0.63117 0.30193 0.0
H3011 H 0.53198 0.62025 0.29721 0.0
C3012 C 0.44397 0.36084 0.72301 0.0
C3013 C 0.42909 0.37252 0.7239 0.0
C3014 C 0.46118 0.36663 0.72644 0.0
C3015 C 0.49473 0.37972 0.7405 0.0
H3016 H 0.51385 0.41886 0.7194 0.0
C3017 C 0.57115 0.38974 0.73582 0.0
C3018 C 0.57641 0.38917 0.72248 0.0
C3019 C 0.55314 0.39326 0.73917 0.0
C3020 C 0.50868 0.40808 0.72553 0.0
H3021 H 0.42079 0.39958 0.72914 0.0
H3022 H 0.45138 0.40999 0.73472 0.0
H3023 H 0.48131 0.41355 0.71998 0.0
H3024 H 0.56749 0.39325 0.70232 0.0
H3025 H 0.53637 0.39967 0.70811 0.0
H3026 H 0.52204 0.37346 0.7454 0.0
C3027 C 0.4494 0.39619 0.73159 0.0
C3028 C 0.49004 0.40514 0.72594 0.0
C3029 C 0.43193 0.39022 0.72842 0.0
C3030 C 0.56378 0.39361 0.71268 0.0
C3031 C 0.54594 0.3974 0.71602 0.0
C3032 C 0.51331 0.38275 0.7402 0.0
C3033 C 0.46417 0.38438 0.73062 0.0
C3034 C 0.48298 0.39041 0.73294 0.0
C3035 C 0.54022 0.39656 0.72925 0.0
C3036 C 0.52057 0.39645 0.73223 0.0
H3037 H 0.44244 0.34717 0.71949 0.0
H3038 H 0.47231 0.35731 0.72536 0.0
H3039 H 0.48962 0.36832 0.74605 0.0
H3040 H 0.5806 0.3862 0.74355 0.0
H3041 H 0.54915 0.3926 0.74947 0.0
C3042 C 0.93576 0.61332 0.20985 0.0
C3043 C 0.92398 0.61662 0.22043 0.0
C3044 C 0.95336 0.60758 0.21215 0.0
C3045 C 0.98926 0.61248 0.23606 0.0
H3046 H 0.01401 0.58017 0.21203 0.0
C3047 C 0.0672 0.61143 0.23178 0.0
C3048 C 0.07273 0.61417 0.21864 0.0
C3049 C 0.04934 0.60645 0.23457 0.0
C3050 C 0.00731 0.58912 0.21891 0.0
H3051 H 0.92114 0.616 0.24174 0.0
H3052 H 0.95234 0.60622 0.24585 0.0
H3053 H 0.98116 0.58083 0.21238 0.0
H3054 H 0.0644 0.61281 0.19814 0.0
H3055 H 0.03362 0.60387 0.20291 0.0
H3056 H 0.01545 0.62153 0.24203 0.0
C3057 C 0.94778 0.60793 0.23575 0.0
C3058 C 0.9885 0.5895 0.21911 0.0
C3059 C 0.92994 0.61339 0.23341 0.0
C3060 C 0.06049 0.61078 0.20836 0.0
C3061 C 0.04286 0.60555 0.21111 0.0
C3062 C 0.00813 0.61213 0.23585 0.0
C3063 C 0.95975 0.60524 0.22512 0.0
C3064 C 0.97927 0.60174 0.22726 0.0
C3065 C 0.03689 0.60378 0.22424 0.0
C3066 C 0.01735 0.60102 0.22683 0.0
H3067 H 0.93151 0.61571 0.19975 0.0
H3068 H 0.96225 0.60589 0.20375 0.0
H3069 H 0.98255 0.62214 0.24241 0.0
H3070 H 0.07635 0.61413 0.23989 0.0
H3071 H 0.04514 0.60516 0.24478 0.0
loop_
_geom_bond_atom_site_label_1
_geom_bond_atom_site_label_2
_geom_bond_distance
_geom_bond_site_symmetry_2
_ccdc_geom_bond_type
Mn0 O5 2.095 . S
Mn0 O15 2.162 . S
Mn0 O16 2.297 . S
Mn0 O24 2.385 . S
Mn0 O25 2.209 . S
Mn0 O26 2.094 . S
Mn1 O6 2.121 . S
Mn1 N8 2.257 . S
Mn1 N17 2.282 . S
Mn1 O25 2.215 . S
Mn1 O27 2.117 . S
C2 O24 1.234 . S
C2 O25 1.283 . S
C3 O15 1.281 . S
C3 O16 1.236 . S
C4 O26 1.240 . S
C4 O27 1.264 . S
O5 Mn0 2.095 . S
O5 C14 1.250 . S
O6 Mn1 2.121 . S
O6 C14 1.258 . S
C7 N8 1.326 . S
C7 C11 1.460 . S
C7 H13 0.929 . S
N8 Mn1 2.257 . S
N8 C7 1.326 . S
N8 C12 1.362 . S
C9 C10 1.258 . S
C9 C12 1.431 . S
C9 C29 1.449 . S
C10 C9 1.258 . S
C10 C11 1.477 . S
C10 H30 0.931 . S
C11 C7 1.460 . S
C11 C10 1.477 . S
C11 H31 0.930 . S
C12 N8 1.362 . S
C12 C9 1.431 . S
C12 C22 1.476 . S
H13 C7 0.929 . S
C14 O5 1.250 . S
C14 O6 1.258 . S
O15 Mn0 2.162 . S
O15 C3 1.281 . S
O16 Mn0 2.297 . S
O16 C3 1.236 . S
N17 Mn1 2.282 . S
N17 C18 1.328 . S
N17 C22 1.318 . S
C18 N17 1.328 . S
C18 C19 1.457 . S
C18 H23 0.929 . S
C19 C18 1.457 . S
C19 C20 1.291 . S
C19 H32 0.931 . S
C20 C19 1.291 . S
C20 C21 1.373 . S
C20 H33 0.929 . S
C21 C20 1.373 . S
C21 C22 1.396 . S
C21 C28 1.403 . S
C22 C12 1.476 . S
C22 N17 1.318 . S
C22 C21 1.396 . S
H23 C18 0.929 . S
O24 Mn0 2.385 . S
O24 C2 1.234 . S
O25 Mn0 2.209 . S
O25 Mn1 2.215 . S
O25 C2 1.283 . S
O26 Mn0 2.094 . S
O26 C4 1.240 . S
O27 Mn1 2.117 . S
O27 C4 1.264 . S
C28 C21 1.403 . S
C28 C29 1.399 . S
C28 H34 0.929 . S
C29 C9 1.449 . S
C29 C28 1.399 . S
C29 H35 0.930 . S
H30 C10 0.931 . S
H31 C11 0.930 . S
H32 C19 0.931 . S
H33 C20 0.929 . S
H34 C28 0.929 . S
H35 C29 0.930 . S
Mn36 O41 2.095 . S
Mn36 O51 2.162 . S
Mn36 O52 2.297 . S
Mn36 O60 2.385 . S
Mn36 O61 2.209 . S
Mn36 O62 2.094 . S
Mn37 O42 2.121 . S
Mn37 N44 2.257 . S
Mn37 N53 2.282 . S
Mn37 O61 2.215 . S
Mn37 O63 2.117 . S
C38 O60 1.234 . S
C38 O61 1.283 . S
C39 O51 1.281 . S
C39 O52 1.236 . S
C40 O62 1.240 . S
C40 O63 1.264 . S
O41 Mn36 2.095 . S
O41 C50 1.250 . S
O42 Mn37 2.121 . S
O42 C50 1.258 . S
C43 N44 1.326 . S
C43 C47 1.460 . S
C43 H49 0.929 . S
N44 Mn37 2.257 . S
N44 C43 1.326 . S
N44 C48 1.362 . S
C45 C46 1.258 . S
C45 C48 1.431 . S
C45 C65 1.449 . S
C46 C45 1.258 . S
C46 C47 1.477 . S
C46 H66 0.931 . S
C47 C43 1.460 . S
C47 C46 1.477 . S
C47 H67 0.930 . S
C48 N44 1.362 . S
C48 C45 1.431 . S
C48 C58 1.476 . S
H49 C43 0.929 . S
C50 O41 1.250 . S
C50 O42 1.258 . S
O51 Mn36 2.162 . S
O51 C39 1.281 . S
O52 Mn36 2.297 . S
O52 C39 1.236 . S
N53 Mn37 2.282 . S
N53 C54 1.328 . S
N53 C58 1.318 . S
C54 N53 1.328 . S
C54 C55 1.457 . S
C54 H59 0.929 . S
C55 C54 1.457 . S
C55 C56 1.291 . S
C55 H68 0.931 . S
C56 C55 1.291 . S
C56 C57 1.373 . S
C56 H69 0.929 . S
C57 C56 1.373 . S
C57 C58 1.396 . S
C57 C64 1.403 . S
C58 C48 1.476 . S
C58 N53 1.318 . S
C58 C57 1.396 . S
H59 C54 0.929 . S
O60 Mn36 2.385 . S
O60 C38 1.234 . S
O61 Mn36 2.209 . S
O61 Mn37 2.215 . S
O61 C38 1.283 . S
O62 Mn36 2.094 . S
O62 C40 1.240 . S
O63 Mn37 2.117 . S
O63 C40 1.264 . S
C64 C57 1.403 . S
C64 C65 1.399 . S
C64 H70 0.929 . S
C65 C45 1.449 . S
C65 C64 1.399 . S
C65 H71 0.930 . S
H66 C46 0.931 . S
H67 C47 0.930 . S
H68 C55 0.931 . S
H69 C56 0.929 . S
H70 C64 0.929 . S
H71 C65 0.930 . S
Mn72 O77 2.095 . S
Mn72 O87 2.162 . S
Mn72 O88 2.297 . S
Mn72 O96 2.385 . S
Mn72 O97 2.209 . S
Mn72 O98 2.094 . S
Mn73 O78 2.121 . S
Mn73 N80 2.257 . S
Mn73 N89 2.282 . S
Mn73 O97 2.215 . S
Mn73 O99 2.117 . S
C74 O96 1.234 . S
C74 O97 1.283 . S
C75 O87 1.281 . S
C75 O88 1.236 . S
C76 O98 1.240 . S
C76 O99 1.264 . S
O77 Mn72 2.095 . S
O77 C86 1.250 . S
O78 Mn73 2.121 . S
O78 C86 1.258 . S
C79 N80 1.326 . S
C79 C83 1.460 . S
C79 H85 0.929 . S
N80 Mn73 2.257 . S
N80 C79 1.326 . S
N80 C84 1.362 . S
C81 C82 1.258 . S
C81 C84 1.431 . S
C81 C101 1.449 . S
C82 C81 1.258 . S
C82 C83 1.477 . S
C82 H102 0.931 . S
C83 C79 1.460 . S
C83 C82 1.477 . S
C83 H103 0.930 . S
C84 N80 1.362 . S
C84 C81 1.431 . S
C84 C94 1.476 . S
H85 C79 0.929 . S
C86 O77 1.250 . S
C86 O78 1.258 . S
O87 Mn72 2.162 . S
O87 C75 1.281 . S
O88 Mn72 2.297 . S
O88 C75 1.236 . S
N89 Mn73 2.282 . S
N89 C90 1.328 . S
N89 C94 1.318 . S
C90 N89 1.328 . S
C90 C91 1.457 . S
C90 H95 0.929 . S
C91 C90 1.457 . S
C91 C92 1.291 . S
C91 H104 0.931 . S
C92 C91 1.291 . S
C92 C93 1.373 . S
C92 H105 0.929 . S
C93 C92 1.373 . S
C93 C94 1.396 . S
C93 C100 1.403 . S
C94 C84 1.476 . S
C94 N89 1.318 . S
C94 C93 1.396 . S
H95 C90 0.929 . S
O96 Mn72 2.385 . S
O96 C74 1.234 . S
O97 Mn72 2.209 . S
O97 Mn73 2.215 . S
O97 C74 1.283 . S
O98 Mn72 2.094 . S
O98 C76 1.240 . S
O99 Mn73 2.117 . S
O99 C76 1.264 . S
C100 C93 1.403 . S
C100 C101 1.399 . S
C100 H106 0.929 . S
C101 C81 1.449 . S
C101 C100 1.399 . S
C101 H107 0.930 . S
H102 C82 0.931 . S
H103 C83 0.930 . S
H104 C91 0.931 . S
H105 C92 0.929 . S
H106 C100 0.929 . S
H107 C101 0.930 . S
Mn108 O113 2.095 . S
Mn108 O123 2.162 . S
Mn108 O124 2.297 . S
Mn108 O132 2.385 . S
Mn108 O133 2.209 . S
Mn108 O134 2.094 . S
Mn109 O114 2.121 . S
Mn109 N116 2.257 . S
Mn109 N125 2.282 . S
Mn109 O133 2.215 . S
Mn109 O135 2.117 . S
C110 O132 1.234 . S
C110 O133 1.283 . S
C111 O123 1.281 . S
C111 O124 1.236 . S
C112 O134 1.240 . S
C112 O135 1.264 . S
O113 Mn108 2.095 . S
O113 C122 1.250 . S
O114 Mn109 2.121 . S
O114 C122 1.258 . S
C115 N116 1.326 . S
C115 C119 1.460 . S
C115 H121 0.929 . S
N116 Mn109 2.257 . S
N116 C115 1.326 . S
N116 C120 1.362 . S
C117 C118 1.258 . S
C117 C120 1.431 . S
C117 C137 1.449 . S
C118 C117 1.258 . S
C118 C119 1.477 . S
C118 H138 0.931 . S
C119 C115 1.460 . S
C119 C118 1.477 . S
C119 H139 0.930 . S
C120 N116 1.362 . S
C120 C117 1.431 . S
C120 C130 1.476 . S
H121 C115 0.929 . S
C122 O113 1.250 . S
C122 O114 1.258 . S
O123 Mn108 2.162 . S
O123 C111 1.281 . S
O124 Mn108 2.297 . S
O124 C111 1.236 . S
N125 Mn109 2.282 . S
N125 C126 1.328 . S
N125 C130 1.318 . S
C126 N125 1.328 . S
C126 C127 1.457 . S
C126 H131 0.929 . S
C127 C126 1.457 . S
C127 C128 1.291 . S
C127 H140 0.931 . S
C128 C127 1.291 . S
C128 C129 1.373 . S
C128 H141 0.929 . S
C129 C128 1.373 . S
C129 C130 1.396 . S
C129 C136 1.403 . S
C130 C120 1.476 . S
C130 N125 1.318 . S
C130 C129 1.396 . S
H131 C126 0.929 . S
O132 Mn108 2.385 . S
O132 C110 1.234 . S
O133 Mn108 2.209 . S
O133 Mn109 2.215 . S
O133 C110 1.283 . S
O134 Mn108 2.094 . S
O134 C112 1.240 . S
O135 Mn109 2.117 . S
O135 C112 1.264 . S
C136 C129 1.403 . S
C136 C137 1.399 . S
C136 H142 0.929 . S
C137 C117 1.449 . S
C137 C136 1.399 . S
C137 H143 0.930 . S
H138 C118 0.931 . S
H139 C119 0.930 . S
H140 C127 0.931 . S
H141 C128 0.929 . S
H142 C136 0.929 . S
H143 C137 0.930 . S
Mn144 O149 2.095 . S
Mn144 O159 2.162 . S
Mn144 O160 2.297 . S
Mn144 O168 2.385 . S
Mn144 O169 2.209 . S
Mn144 O170 2.094 . S
Mn145 O150 2.121 . S
Mn145 N152 2.257 . S
Mn145 N161 2.282 . S
Mn145 O169 2.215 . S
Mn145 O171 2.117 . S
C146 O168 1.234 . S
C146 O169 1.283 . S
C147 O159 1.281 . S
C147 O160 1.236 . S
C148 O170 1.240 . S
C148 O171 1.264 . S
O149 Mn144 2.095 . S
O149 C158 1.250 . S
O150 Mn145 2.121 . S
O150 C158 1.258 . S
C151 N152 1.326 . S
C151 C155 1.460 . S
C151 H157 0.929 . S
N152 Mn145 2.257 . S
N152 C151 1.326 . S
N152 C156 1.362 . S
C153 C154 1.258 . S
C153 C156 1.431 . S
C153 C173 1.449 . S
C154 C153 1.258 . S
C154 C155 1.477 . S
C154 H174 0.931 . S
C155 C151 1.460 . S
C155 C154 1.477 . S
C155 H175 0.930 . S
C156 N152 1.362 . S
C156 C153 1.431 . S
C156 C166 1.476 . S
H157 C151 0.929 . S
C158 O149 1.250 . S
C158 O150 1.258 . S
O159 Mn144 2.162 . S
O159 C147 1.281 . S
O160 Mn144 2.297 . S
O160 C147 1.236 . S
N161 Mn145 2.282 . S
N161 C162 1.328 . S
N161 C166 1.318 . S
C162 N161 1.328 . S
C162 C163 1.457 . S
C162 H167 0.929 . S
C163 C162 1.457 . S
C163 C164 1.291 . S
C163 H176 0.931 . S
C164 C163 1.291 . S
C164 C165 1.373 . S
C164 H177 0.929 . S
C165 C164 1.373 . S
C165 C166 1.396 . S
C165 C172 1.403 . S
C166 C156 1.476 . S
C166 N161 1.318 . S
C166 C165 1.396 . S
H167 C162 0.929 . S
O168 Mn144 2.385 . S
O168 C146 1.234 . S
O169 Mn144 2.209 . S
O169 Mn145 2.215 . S
O169 C146 1.283 . S
O170 Mn144 2.094 . S
O170 C148 1.240 . S
O171 Mn145 2.117 . S
O171 C148 1.264 . S
C172 C165 1.403 . S
C172 C173 1.399 . S
C172 H178 0.929 . S
C173 C153 1.449 . S
C173 C172 1.399 . S
C173 H179 0.930 . S
H174 C154 0.931 . S
H175 C155 0.930 . S
H176 C163 0.931 . S
H177 C164 0.929 . S
H178 C172 0.929 . S
H179 C173 0.930 . S
Mn180 O185 2.095 . S
Mn180 O195 2.162 . S
Mn180 O196 2.297 . S
Mn180 O204 2.385 . S
Mn180 O205 2.209 . S
Mn180 O206 2.094 . S
Mn181 O186 2.121 . S
Mn181 N188 2.257 . S
Mn181 N197 2.282 . S
Mn181 O205 2.215 . S
Mn181 O207 2.117 . S
C182 O204 1.234 . S
C182 O205 1.283 . S
C183 O195 1.281 . S
C183 O196 1.236 . S
C184 O206 1.240 . S
C184 O207 1.264 . S
O185 Mn180 2.095 . S
O185 C194 1.250 . S
O186 Mn181 2.121 . S
O186 C194 1.258 . S
C187 N188 1.326 . S
C187 C191 1.460 . S
C187 H193 0.929 . S
N188 Mn181 2.257 . S
N188 C187 1.326 . S
N188 C192 1.362 . S
C189 C190 1.258 . S
C189 C192 1.431 . S
C189 C209 1.449 . S
C190 C189 1.258 . S
C190 C191 1.477 . S
C190 H210 0.931 . S
C191 C187 1.460 . S
C191 C190 1.477 . S
C191 H211 0.930 . S
C192 N188 1.362 . S
C192 C189 1.431 . S
C192 C202 1.476 . S
H193 C187 0.929 . S
C194 O185 1.250 . S
C194 O186 1.258 . S
O195 Mn180 2.162 . S
O195 C183 1.281 . S
O196 Mn180 2.297 . S
O196 C183 1.236 . S
N197 Mn181 2.282 . S
N197 C198 1.328 . S
N197 C202 1.318 . S
C198 N197 1.328 . S
C198 C199 1.457 . S
C198 H203 0.929 . S
C199 C198 1.457 . S
C199 C200 1.291 . S
C199 H212 0.931 . S
C200 C199 1.291 . S
C200 C201 1.373 . S
C200 H213 0.929 . S
C201 C200 1.373 . S
C201 C202 1.396 . S
C201 C208 1.403 . S
C202 C192 1.476 . S
C202 N197 1.318 . S
C202 C201 1.396 . S
H203 C198 0.929 . S
O204 Mn180 2.385 . S
O204 C182 1.234 . S
O205 Mn180 2.209 . S
O205 Mn181 2.215 . S
O205 C182 1.283 . S
O206 Mn180 2.094 . S
O206 C184 1.240 . S
O207 Mn181 2.117 . S
O207 C184 1.264 . S
C208 C201 1.403 . S
C208 C209 1.399 . S
C208 H214 0.929 . S
C209 C189 1.449 . S
C209 C208 1.399 . S
C209 H215 0.930 . S
H210 C190 0.931 . S
H211 C191 0.930 . S
H212 C199 0.931 . S
H213 C200 0.929 . S
H214 C208 0.929 . S
H215 C209 0.930 . S
Mn216 O221 2.095 . S
Mn216 O231 2.162 . S
Mn216 O232 2.297 . S
Mn216 O240 2.385 . S
Mn216 O241 2.209 . S
Mn216 O242 2.094 . S
Mn217 O222 2.121 . S
Mn217 N224 2.257 . S
Mn217 N233 2.282 . S
Mn217 O241 2.215 . S
Mn217 O243 2.117 . S
C218 O240 1.234 . S
C218 O241 1.283 . S
C219 O231 1.281 . S
C219 O232 1.236 . S
C220 O242 1.240 . S
C220 O243 1.264 . S
O221 Mn216 2.095 . S
O221 C230 1.250 . S
O222 Mn217 2.121 . S
O222 C230 1.258 . S
C223 N224 1.326 . S
C223 C227 1.460 . S
C223 H229 0.929 . S
N224 Mn217 2.257 . S
N224 C223 1.326 . S
N224 C228 1.362 . S
C225 C226 1.258 . S
C225 C228 1.431 . S
C225 C245 1.449 . S
C226 C225 1.258 . S
C226 C227 1.477 . S
C226 H246 0.931 . S
C227 C223 1.460 . S
C227 C226 1.477 . S
C227 H247 0.930 . S
C228 N224 1.362 . S
C228 C225 1.431 . S
C228 C238 1.476 . S
H229 C223 0.929 . S
C230 O221 1.250 . S
C230 O222 1.258 . S
O231 Mn216 2.162 . S
O231 C219 1.281 . S
O232 Mn216 2.297 . S
O232 C219 1.236 . S
N233 Mn217 2.282 . S
N233 C234 1.328 . S
N233 C238 1.318 . S
C234 N233 1.328 . S
C234 C235 1.457 . S
C234 H239 0.929 . S
C235 C234 1.457 . S
C235 C236 1.291 . S
C235 H248 0.931 . S
C236 C235 1.291 . S
C236 C237 1.373 . S
C236 H249 0.929 . S
C237 C236 1.373 . S
C237 C238 1.396 . S
C237 C244 1.403 . S
C238 C228 1.476 . S
C238 N233 1.318 . S
C238 C237 1.396 . S
H239 C234 0.929 . S
O240 Mn216 2.385 . S
O240 C218 1.234 . S
O241 Mn216 2.209 . S
O241 Mn217 2.215 . S
O241 C218 1.283 . S
O242 Mn216 2.094 . S
O242 C220 1.240 . S
O243 Mn217 2.117 . S
O243 C220 1.264 . S
C244 C237 1.403 . S
C244 C245 1.399 . S
C244 H250 0.929 . S
C245 C225 1.449 . S
C245 C244 1.399 . S
C245 H251 0.930 . S
H246 C226 0.931 . S
H247 C227 0.930 . S
H248 C235 0.931 . S
H249 C236 0.929 . S
H250 C244 0.929 . S
H251 C245 0.930 . S
Mn252 O257 2.095 . S
Mn252 O267 2.162 . S
Mn252 O268 2.297 . S
Mn252 O276 2.385 . S
Mn252 O277 2.209 . S
Mn252 O278 2.094 . S
Mn253 O258 2.121 . S
Mn253 N260 2.257 . S
Mn253 N269 2.282 . S
Mn253 O277 2.215 . S
Mn253 O279 2.117 . S
C254 O276 1.234 . S
C254 O277 1.283 . S
C255 O267 1.281 . S
C255 O268 1.236 . S
C256 O278 1.240 . S
C256 O279 1.264 . S
O257 Mn252 2.095 . S
O257 C266 1.250 . S
O258 Mn253 2.121 . S
O258 C266 1.258 . S
C259 N260 1.326 . S
C259 C263 1.460 . S
C259 H265 0.929 . S
N260 Mn253 2.257 . S
N260 C259 1.326 . S
N260 C264 1.362 . S
C261 C262 1.258 . S
C261 C264 1.431 . S
C261 C281 1.449 . S
C262 C261 1.258 . S
C262 C263 1.477 . S
C262 H282 0.931 . S
C263 C259 1.460 . S
C263 C262 1.477 . S
C263 H283 0.930 . S
C264 N260 1.362 . S
C264 C261 1.431 . S
C264 C274 1.476 . S
H265 C259 0.929 . S
C266 O257 1.250 . S
C266 O258 1.258 . S
O267 Mn252 2.162 . S
O267 C255 1.281 . S
O268 Mn252 2.297 . S
O268 C255 1.236 . S
N269 Mn253 2.282 . S
N269 C270 1.328 . S
N269 C274 1.318 . S
C270 N269 1.328 . S
C270 C271 1.457 . S
C270 H275 0.929 . S
C271 C270 1.457 . S
C271 C272 1.291 . S
C271 H284 0.931 . S
C272 C271 1.291 . S
C272 C273 1.373 . S
C272 H285 0.929 . S
C273 C272 1.373 . S
C273 C274 1.396 . S
C273 C280 1.403 . S
C274 C264 1.476 . S
C274 N269 1.318 . S
C274 C273 1.396 . S
H275 C270 0.929 . S
O276 Mn252 2.385 . S
O276 C254 1.234 . S
O277 Mn252 2.209 . S
O277 Mn253 2.215 . S
O277 C254 1.283 . S
O278 Mn252 2.094 . S
O278 C256 1.240 . S
O279 Mn253 2.117 . S
O279 C256 1.264 . S
C280 C273 1.403 . S
C280 C281 1.399 . S
C280 H286 0.929 . S
C281 C261 1.449 . S
C281 C280 1.399 . S
C281 H287 0.930 . S
H282 C262 0.931 . S
H283 C263 0.930 . S
H284 C271 0.931 . S
H285 C272 0.929 . S
H286 C280 0.929 . S
H287 C281 0.930 . S
Mn288 O293 2.095 . S
Mn288 O303 2.162 . S
Mn288 O304 2.297 . S
Mn288 O312 2.385 . S
Mn288 O313 2.209 . S
Mn288 O314 2.094 . S
Mn289 O294 2.121 . S
Mn289 N296 2.257 . S
Mn289 N305 2.282 . S
Mn289 O313 2.215 . S
Mn289 O315 2.117 . S
C290 O312 1.234 . S
C290 O313 1.283 . S
C291 O303 1.281 . S
C291 O304 1.236 . S
C292 O314 1.240 . S
C292 O315 1.264 . S
O293 Mn288 2.095 . S
O293 C302 1.250 . S
O294 Mn289 2.121 . S
O294 C302 1.258 . S
C295 N296 1.326 . S
C295 C299 1.460 . S
C295 H301 0.929 . S
N296 Mn289 2.257 . S
N296 C295 1.326 . S
N296 C300 1.362 . S
C297 C298 1.258 . S
C297 C300 1.431 . S
C297 C317 1.449 . S
C298 C297 1.258 . S
C298 C299 1.477 . S
C298 H318 0.931 . S
C299 C295 1.460 . S
C299 C298 1.477 . S
C299 H319 0.930 . S
C300 N296 1.362 . S
C300 C297 1.431 . S
C300 C310 1.476 . S
H301 C295 0.929 . S
C302 O293 1.250 . S
C302 O294 1.258 . S
O303 Mn288 2.162 . S
O303 C291 1.281 . S
O304 Mn288 2.297 . S
O304 C291 1.236 . S
N305 Mn289 2.282 . S
N305 C306 1.328 . S
N305 C310 1.318 . S
C306 N305 1.328 . S
C306 C307 1.457 . S
C306 H311 0.929 . S
C307 C306 1.457 . S
C307 C308 1.291 . S
C307 H320 0.931 . S
C308 C307 1.291 . S
C308 C309 1.373 . S
C308 H321 0.929 . S
C309 C308 1.373 . S
C309 C310 1.396 . S
C309 C316 1.403 . S
C310 C300 1.476 . S
C310 N305 1.318 . S
C310 C309 1.396 . S
H311 C306 0.929 . S
O312 Mn288 2.385 . S
O312 C290 1.234 . S
O313 Mn288 2.209 . S
O313 Mn289 2.215 . S
O313 C290 1.283 . S
O314 Mn288 2.094 . S
O314 C292 1.240 . S
O315 Mn289 2.117 . S
O315 C292 1.264 . S
C316 C309 1.403 . S
C316 C317 1.399 . S
C316 H322 0.929 . S
C317 C297 1.449 . S
C317 C316 1.399 . S
C317 H323 0.930 . S
H318 C298 0.931 . S
H319 C299 0.930 . S
H320 C307 0.931 . S
H321 C308 0.929 . S
H322 C316 0.929 . S
H323 C317 0.930 . S
Mn324 O329 2.095 . S
Mn324 O339 2.162 . S
Mn324 O340 2.297 . S
Mn324 O348 2.385 . S
Mn324 O349 2.209 . S
Mn324 O350 2.094 . S
Mn325 O330 2.121 . S
Mn325 N332 2.257 . S
Mn325 N341 2.282 . S
Mn325 O349 2.215 . S
Mn325 O351 2.117 . S
C326 O348 1.234 . S
C326 O349 1.283 . S
C327 O339 1.281 . S
C327 O340 1.236 . S
C328 O350 1.240 . S
C328 O351 1.264 . S
O329 Mn324 2.095 . S
O329 C338 1.250 . S
O330 Mn325 2.121 . S
O330 C338 1.258 . S
C331 N332 1.326 . S
C331 C335 1.460 . S
C331 H337 0.929 . S
N332 Mn325 2.257 . S
N332 C331 1.326 . S
N332 C336 1.362 . S
C333 C334 1.258 . S
C333 C336 1.431 . S
C333 C353 1.449 . S
C334 C333 1.258 . S
C334 C335 1.477 . S
C334 H354 0.931 . S
C335 C331 1.460 . S
C335 C334 1.477 . S
C335 H355 0.930 . S
C336 N332 1.362 . S
C336 C333 1.431 . S
C336 C346 1.476 . S
H337 C331 0.929 . S
C338 O329 1.250 . S
C338 O330 1.258 . S
O339 Mn324 2.162 . S
O339 C327 1.281 . S
O340 Mn324 2.297 . S
O340 C327 1.236 . S
N341 Mn325 2.282 . S
N341 C342 1.328 . S
N341 C346 1.318 . S
C342 N341 1.328 . S
C342 C343 1.457 . S
C342 H347 0.929 . S
C343 C342 1.457 . S
C343 C344 1.291 . S
C343 H356 0.931 . S
C344 C343 1.291 . S
C344 C345 1.373 . S
C344 H357 0.929 . S
C345 C344 1.373 . S
C345 C346 1.396 . S
C345 C352 1.403 . S
C346 C336 1.476 . S
C346 N341 1.318 . S
C346 C345 1.396 . S
H347 C342 0.929 . S
O348 Mn324 2.385 . S
O348 C326 1.234 . S
O349 Mn324 2.209 . S
O349 Mn325 2.215 . S
O349 C326 1.283 . S
O350 Mn324 2.094 . S
O350 C328 1.240 . S
O351 Mn325 2.117 . S
O351 C328 1.264 . S
C352 C345 1.403 . S
C352 C353 1.399 . S
C352 H358 0.929 . S
C353 C333 1.449 . S
C353 C352 1.399 . S
C353 H359 0.930 . S
H354 C334 0.931 . S
H355 C335 0.930 . S
H356 C343 0.931 . S
H357 C344 0.929 . S
H358 C352 0.929 . S
H359 C353 0.930 . S
Mn360 O365 2.095 . S
Mn360 O375 2.162 . S
Mn360 O376 2.297 . S
Mn360 O384 2.385 . S
Mn360 O385 2.209 . S
Mn360 O386 2.094 . S
Mn361 O366 2.121 . S
Mn361 N368 2.257 . S
Mn361 N377 2.282 . S
Mn361 O385 2.215 . S
Mn361 O387 2.117 . S
C362 O384 1.234 . S
C362 O385 1.283 . S
C363 O375 1.281 . S
C363 O376 1.236 . S
C364 O386 1.240 . S
C364 O387 1.264 . S
O365 Mn360 2.095 . S
O365 C374 1.250 . S
O366 Mn361 2.121 . S
O366 C374 1.258 . S
C367 N368 1.326 . S
C367 C371 1.460 . S
C367 H373 0.929 . S
N368 Mn361 2.257 . S
N368 C367 1.326 . S
N368 C372 1.362 . S
C369 C370 1.258 . S
C369 C372 1.431 . S
C369 C389 1.449 . S
C370 C369 1.258 . S
C370 C371 1.477 . S
C370 H390 0.931 . S
C371 C367 1.460 . S
C371 C370 1.477 . S
C371 H391 0.930 . S
C372 N368 1.362 . S
C372 C369 1.431 . S
C372 C382 1.476 . S
H373 C367 0.929 . S
C374 O365 1.250 . S
C374 O366 1.258 . S
O375 Mn360 2.162 . S
O375 C363 1.281 . S
O376 Mn360 2.297 . S
O376 C363 1.236 . S
N377 Mn361 2.282 . S
N377 C378 1.328 . S
N377 C382 1.318 . S
C378 N377 1.328 . S
C378 C379 1.457 . S
C378 H383 0.929 . S
C379 C378 1.457 . S
C379 C380 1.291 . S
C379 H392 0.931 . S
C380 C379 1.291 . S
C380 C381 1.373 . S
C380 H393 0.929 . S
C381 C380 1.373 . S
C381 C382 1.396 . S
C381 C388 1.403 . S
C382 C372 1.476 . S
C382 N377 1.318 . S
C382 C381 1.396 . S
H383 C378 0.929 . S
O384 Mn360 2.385 . S
O384 C362 1.234 . S
O385 Mn360 2.209 . S
O385 Mn361 2.215 . S
O385 C362 1.283 . S
O386 Mn360 2.094 . S
O386 C364 1.240 . S
O387 Mn361 2.117 . S
O387 C364 1.264 . S
C388 C381 1.403 . S
C388 C389 1.399 . S
C388 H394 0.929 . S
C389 C369 1.449 . S
C389 C388 1.399 . S
C389 H395 0.930 . S
H390 C370 0.931 . S
H391 C371 0.930 . S
H392 C379 0.931 . S
H393 C380 0.929 . S
H394 C388 0.929 . S
H395 C389 0.930 . S
Mn396 O401 2.095 . S
Mn396 O411 2.162 . S
Mn396 O412 2.297 . S
Mn396 O420 2.385 . S
Mn396 O421 2.209 . S
Mn396 O422 2.094 . S
Mn397 O402 2.121 . S
Mn397 N404 2.257 . S
Mn397 N413 2.282 . S
Mn397 O421 2.215 . S
Mn397 O423 2.117 . S
C398 O420 1.234 . S
C398 O421 1.283 . S
C399 O411 1.281 . S
C399 O412 1.236 . S
C400 O422 1.240 . S
C400 O423 1.264 . S
O401 Mn396 2.095 . S
O401 C410 1.250 . S
O402 Mn397 2.121 . S
O402 C410 1.258 . S
C403 N404 1.326 . S
C403 C407 1.460 . S
C403 H409 0.929 . S
N404 Mn397 2.257 . S
N404 C403 1.326 . S
N404 C408 1.362 . S
C405 C406 1.258 . S
C405 C408 1.431 . S
C405 C425 1.449 . S
C406 C405 1.258 . S
C406 C407 1.477 . S
C406 H426 0.931 . S
C407 C403 1.460 . S
C407 C406 1.477 . S
C407 H427 0.930 . S
C408 N404 1.362 . S
C408 C405 1.431 . S
C408 C418 1.476 . S
H409 C403 0.929 . S
C410 O401 1.250 . S
C410 O402 1.258 . S
O411 Mn396 2.162 . S
O411 C399 1.281 . S
O412 Mn396 2.297 . S
O412 C399 1.236 . S
N413 Mn397 2.282 . S
N413 C414 1.328 . S
N413 C418 1.318 . S
C414 N413 1.328 . S
C414 C415 1.457 . S
C414 H419 0.929 . S
C415 C414 1.457 . S
C415 C416 1.291 . S
C415 H428 0.931 . S
C416 C415 1.291 . S
C416 C417 1.373 . S
C416 H429 0.929 . S
C417 C416 1.373 . S
C417 C418 1.396 . S
C417 C424 1.403 . S
C418 C408 1.476 . S
C418 N413 1.318 . S
C418 C417 1.396 . S
H419 C414 0.929 . S
O420 Mn396 2.385 . S
O420 C398 1.234 . S
O421 Mn396 2.209 . S
O421 Mn397 2.215 . S
O421 C398 1.283 . S
O422 Mn396 2.094 . S
O422 C400 1.240 . S
O423 Mn397 2.117 . S
O423 C400 1.264 . S
C424 C417 1.403 . S
C424 C425 1.399 . S
C424 H430 0.929 . S
C425 C405 1.449 . S
C425 C424 1.399 . S
C425 H431 0.930 . S
H426 C406 0.931 . S
H427 C407 0.930 . S
H428 C415 0.931 . S
H429 C416 0.929 . S
H430 C424 0.929 . S
H431 C425 0.930 . S
Mn432 O437 2.095 . S
Mn432 O447 2.162 . S
Mn432 O448 2.297 . S
Mn432 O456 2.385 . S
Mn432 O457 2.209 . S
Mn432 O458 2.094 . S
Mn433 O438 2.121 . S
Mn433 N440 2.257 . S
Mn433 N449 2.282 . S
Mn433 O457 2.215 . S
Mn433 O459 2.117 . S
C434 O456 1.234 . S
C434 O457 1.283 . S
C435 O447 1.281 . S
C435 O448 1.236 . S
C436 O458 1.240 . S
C436 O459 1.264 . S
O437 Mn432 2.095 . S
O437 C446 1.250 . S
O438 Mn433 2.121 . S
O438 C446 1.258 . S
C439 N440 1.326 . S
C439 C443 1.460 . S
C439 H445 0.929 . S
N440 Mn433 2.257 . S
N440 C439 1.326 . S
N440 C444 1.362 . S
C441 C442 1.258 . S
C441 C444 1.431 . S
C441 C461 1.449 . S
C442 C441 1.258 . S
C442 C443 1.477 . S
C442 H462 0.931 . S
C443 C439 1.460 . S
C443 C442 1.477 . S
C443 H463 0.930 . S
C444 N440 1.362 . S
C444 C441 1.431 . S
C444 C454 1.476 . S
H445 C439 0.929 . S
C446 O437 1.250 . S
C446 O438 1.258 . S
O447 Mn432 2.162 . S
O447 C435 1.281 . S
O448 Mn432 2.297 . S
O448 C435 1.236 . S
N449 Mn433 2.282 . S
N449 C450 1.328 . S
N449 C454 1.318 . S
C450 N449 1.328 . S
C450 C451 1.457 . S
C450 H455 0.929 . S
C451 C450 1.457 . S
C451 C452 1.291 . S
C451 H464 0.931 . S
C452 C451 1.291 . S
C452 C453 1.373 . S
C452 H465 0.929 . S
C453 C452 1.373 . S
C453 C454 1.396 . S
C453 C460 1.403 . S
C454 C444 1.476 . S
C454 N449 1.318 . S
C454 C453 1.396 . S
H455 C450 0.929 . S
O456 Mn432 2.385 . S
O456 C434 1.234 . S
O457 Mn432 2.209 . S
O457 Mn433 2.215 . S
O457 C434 1.283 . S
O458 Mn432 2.094 . S
O458 C436 1.240 . S
O459 Mn433 2.117 . S
O459 C436 1.264 . S
C460 C453 1.403 . S
C460 C461 1.399 . S
C460 H466 0.929 . S
C461 C441 1.449 . S
C461 C460 1.399 . S
C461 H467 0.930 . S
H462 C442 0.931 . S
H463 C443 0.930 . S
H464 C451 0.931 . S
H465 C452 0.929 . S
H466 C460 0.929 . S
H467 C461 0.930 . S
Mn468 O473 2.095 . S
Mn468 O483 2.162 . S
Mn468 O484 2.297 . S
Mn468 O492 2.385 . S
Mn468 O493 2.209 . S
Mn468 O494 2.094 . S
Mn469 O474 2.121 . S
Mn469 N476 2.257 . S
Mn469 N485 2.282 . S
Mn469 O493 2.215 . S
Mn469 O495 2.117 . S
C470 O492 1.234 . S
C470 O493 1.283 . S
C471 O483 1.281 . S
C471 O484 1.236 . S
C472 O494 1.240 . S
C472 O495 1.264 . S
O473 Mn468 2.095 . S
O473 C482 1.250 . S
O474 Mn469 2.121 . S
O474 C482 1.258 . S
C475 N476 1.326 . S
C475 C479 1.460 . S
C475 H481 0.929 . S
N476 Mn469 2.257 . S
N476 C475 1.326 . S
N476 C480 1.362 . S
C477 C478 1.258 . S
C477 C480 1.431 . S
C477 C497 1.449 . S
C478 C477 1.258 . S
C478 C479 1.477 . S
C478 H498 0.931 . S
C479 C475 1.460 . S
C479 C478 1.477 . S
C479 H499 0.930 . S
C480 N476 1.362 . S
C480 C477 1.431 . S
C480 C490 1.476 . S
H481 C475 0.929 . S
C482 O473 1.250 . S
C482 O474 1.258 . S
O483 Mn468 2.162 . S
O483 C471 1.281 . S
O484 Mn468 2.297 . S
O484 C471 1.236 . S
N485 Mn469 2.282 . S
N485 C486 1.328 . S
N485 C490 1.318 . S
C486 N485 1.328 . S
C486 C487 1.457 . S
C486 H491 0.929 . S
C487 C486 1.457 . S
C487 C488 1.291 . S
C487 H500 0.931 . S
C488 C487 1.291 . S
C488 C489 1.373 . S
C488 H501 0.929 . S
C489 C488 1.373 . S
C489 C490 1.396 . S
C489 C496 1.403 . S
C490 C480 1.476 . S
C490 N485 1.318 . S
C490 C489 1.396 . S
H491 C486 0.929 . S
O492 Mn468 2.385 . S
O492 C470 1.234 . S
O493 Mn468 2.209 . S
O493 Mn469 2.215 . S
O493 C470 1.283 . S
O494 Mn468 2.094 . S
O494 C472 1.240 . S
O495 Mn469 2.117 . S
O495 C472 1.264 . S
C496 C489 1.403 . S
C496 C497 1.399 . S
C496 H502 0.929 . S
C497 C477 1.449 . S
C497 C496 1.399 . S
C497 H503 0.930 . S
H498 C478 0.931 . S
H499 C479 0.930 . S
H500 C487 0.931 . S
H501 C488 0.929 . S
H502 C496 0.929 . S
H503 C497 0.930 . S
Mn504 O509 2.095 . S
Mn504 O519 2.162 . S
Mn504 O520 2.297 . S
Mn504 O528 2.385 . S
Mn504 O529 2.209 . S
Mn504 O530 2.094 . S
Mn505 O510 2.121 . S
Mn505 N512 2.257 . S
Mn505 N521 2.282 . S
Mn505 O529 2.215 . S
Mn505 O531 2.117 . S
C506 O528 1.234 . S
C506 O529 1.283 . S
C507 O519 1.281 . S
C507 O520 1.236 . S
C508 O530 1.240 . S
C508 O531 1.264 . S
O509 Mn504 2.095 . S
O509 C518 1.250 . S
O510 Mn505 2.121 . S
O510 C518 1.258 . S
C511 N512 1.326 . S
C511 C515 1.460 . S
C511 H517 0.929 . S
N512 Mn505 2.257 . S
N512 C511 1.326 . S
N512 C516 1.362 . S
C513 C514 1.258 . S
C513 C516 1.431 . S
C513 C533 1.449 . S
C514 C513 1.258 . S
C514 C515 1.477 . S
C514 H534 0.931 . S
C515 C511 1.460 . S
C515 C514 1.477 . S
C515 H535 0.930 . S
C516 N512 1.362 . S
C516 C513 1.431 . S
C516 C526 1.476 . S
H517 C511 0.929 . S
C518 O509 1.250 . S
C518 O510 1.258 . S
O519 Mn504 2.162 . S
O519 C507 1.281 . S
O520 Mn504 2.297 . S
O520 C507 1.236 . S
N521 Mn505 2.282 . S
N521 C522 1.328 . S
N521 C526 1.318 . S
C522 N521 1.328 . S
C522 C523 1.457 . S
C522 H527 0.929 . S
C523 C522 1.457 . S
C523 C524 1.291 . S
C523 H536 0.931 . S
C524 C523 1.291 . S
C524 C525 1.373 . S
C524 H537 0.929 . S
C525 C524 1.373 . S
C525 C526 1.396 . S
C525 C532 1.403 . S
C526 C516 1.476 . S
C526 N521 1.318 . S
C526 C525 1.396 . S
H527 C522 0.929 . S
O528 Mn504 2.385 . S
O528 C506 1.234 . S
O529 Mn504 2.209 . S
O529 Mn505 2.215 . S
O529 C506 1.283 . S
O530 Mn504 2.094 . S
O530 C508 1.240 . S
O531 Mn505 2.117 . S
O531 C508 1.264 . S
C532 C525 1.403 . S
C532 C533 1.399 . S
C532 H538 0.929 . S
C533 C513 1.449 . S
C533 C532 1.399 . S
C533 H539 0.930 . S
H534 C514 0.931 . S
H535 C515 0.930 . S
H536 C523 0.931 . S
H537 C524 0.929 . S
H538 C532 0.929 . S
H539 C533 0.930 . S
Mn540 O545 2.095 . S
Mn540 O555 2.162 . S
Mn540 O556 2.297 . S
Mn540 O564 2.385 . S
Mn540 O565 2.209 . S
Mn540 O566 2.094 . S
Mn541 O546 2.121 . S
Mn541 N548 2.257 . S
Mn541 N557 2.282 . S
Mn541 O565 2.215 . S
Mn541 O567 2.117 . S
C542 O564 1.234 . S
C542 O565 1.283 . S
C543 O555 1.281 . S
C543 O556 1.236 . S
C544 O566 1.240 . S
C544 O567 1.264 . S
O545 Mn540 2.095 . S
O545 C554 1.250 . S
O546 Mn541 2.121 . S
O546 C554 1.258 . S
C547 N548 1.326 . S
C547 C551 1.460 . S
C547 H553 0.929 . S
N548 Mn541 2.257 . S
N548 C547 1.326 . S
N548 C552 1.362 . S
C549 C550 1.258 . S
C549 C552 1.431 . S
C549 C569 1.449 . S
C550 C549 1.258 . S
C550 C551 1.477 . S
C550 H570 0.931 . S
C551 C547 1.460 . S
C551 C550 1.477 . S
C551 H571 0.930 . S
C552 N548 1.362 . S
C552 C549 1.431 . S
C552 C562 1.476 . S
H553 C547 0.929 . S
C554 O545 1.250 . S
C554 O546 1.258 . S
O555 Mn540 2.162 . S
O555 C543 1.281 . S
O556 Mn540 2.297 . S
O556 C543 1.236 . S
N557 Mn541 2.282 . S
N557 C558 1.328 . S
N557 C562 1.318 . S
C558 N557 1.328 . S
C558 C559 1.457 . S
C558 H563 0.929 . S
C559 C558 1.457 . S
C559 C560 1.291 . S
C559 H572 0.931 . S
C560 C559 1.291 . S
C560 C561 1.373 . S
C560 H573 0.929 . S
C561 C560 1.373 . S
C561 C562 1.396 . S
C561 C568 1.403 . S
C562 C552 1.476 . S
C562 N557 1.318 . S
C562 C561 1.396 . S
H563 C558 0.929 . S
O564 Mn540 2.385 . S
O564 C542 1.234 . S
O565 Mn540 2.209 . S
O565 Mn541 2.215 . S
O565 C542 1.283 . S
O566 Mn540 2.094 . S
O566 C544 1.240 . S
O567 Mn541 2.117 . S
O567 C544 1.264 . S
C568 C561 1.403 . S
C568 C569 1.399 . S
C568 H574 0.929 . S
C569 C549 1.449 . S
C569 C568 1.399 . S
C569 H575 0.930 . S
H570 C550 0.931 . S
H571 C551 0.930 . S
H572 C559 0.931 . S
H573 C560 0.929 . S
H574 C568 0.929 . S
H575 C569 0.930 . S
Mn576 O581 2.095 . S
Mn576 O591 2.162 . S
Mn576 O592 2.297 . S
Mn576 O600 2.385 . S
Mn576 O601 2.209 . S
Mn576 O602 2.094 . S
Mn577 O582 2.121 . S
Mn577 N584 2.257 . S
Mn577 N593 2.282 . S
Mn577 O601 2.215 . S
Mn577 O603 2.117 . S
C578 O600 1.234 . S
C578 O601 1.283 . S
C579 O591 1.281 . S
C579 O592 1.236 . S
C580 O602 1.240 . S
C580 O603 1.264 . S
O581 Mn576 2.095 . S
O581 C590 1.250 . S
O582 Mn577 2.121 . S
O582 C590 1.258 . S
C583 N584 1.326 . S
C583 C587 1.460 . S
C583 H589 0.929 . S
N584 Mn577 2.257 . S
N584 C583 1.326 . S
N584 C588 1.362 . S
C585 C586 1.258 . S
C585 C588 1.431 . S
C585 C605 1.449 . S
C586 C585 1.258 . S
C586 C587 1.477 . S
C586 H606 0.931 . S
C587 C583 1.460 . S
C587 C586 1.477 . S
C587 H607 0.930 . S
C588 N584 1.362 . S
C588 C585 1.431 . S
C588 C598 1.476 . S
H589 C583 0.929 . S
C590 O581 1.250 . S
C590 O582 1.258 . S
O591 Mn576 2.162 . S
O591 C579 1.281 . S
O592 Mn576 2.297 . S
O592 C579 1.236 . S
N593 Mn577 2.282 . S
N593 C594 1.328 . S
N593 C598 1.318 . S
C594 N593 1.328 . S
C594 C595 1.457 . S
C594 H599 0.929 . S
C595 C594 1.457 . S
C595 C596 1.291 . S
C595 H608 0.931 . S
C596 C595 1.291 . S
C596 C597 1.373 . S
C596 H609 0.929 . S
C597 C596 1.373 . S
C597 C598 1.396 . S
C597 C604 1.403 . S
C598 C588 1.476 . S
C598 N593 1.318 . S
C598 C597 1.396 . S
H599 C594 0.929 . S
O600 Mn576 2.385 . S
O600 C578 1.234 . S
O601 Mn576 2.209 . S
O601 Mn577 2.215 . S
O601 C578 1.283 . S
O602 Mn576 2.094 . S
O602 C580 1.240 . S
O603 Mn577 2.117 . S
O603 C580 1.264 . S
C604 C597 1.403 . S
C604 C605 1.399 . S
C604 H610 0.929 . S
C605 C585 1.449 . S
C605 C604 1.399 . S
C605 H611 0.930 . S
H606 C586 0.931 . S
H607 C587 0.930 . S
H608 C595 0.931 . S
H609 C596 0.929 . S
H610 C604 0.929 . S
H611 C605 0.930 . S
Mn612 O617 2.095 . S
Mn612 O627 2.162 . S
Mn612 O628 2.297 . S
Mn612 O636 2.385 . S
Mn612 O637 2.209 . S
Mn612 O638 2.094 . S
Mn613 O618 2.121 . S
Mn613 N620 2.257 . S
Mn613 N629 2.282 . S
Mn613 O637 2.215 . S
Mn613 O639 2.117 . S
C614 O636 1.234 . S
C614 O637 1.283 . S
C615 O627 1.281 . S
C615 O628 1.236 . S
C616 O638 1.240 . S
C616 O639 1.264 . S
O617 Mn612 2.095 . S
O617 C626 1.250 . S
O618 Mn613 2.121 . S
O618 C626 1.258 . S
C619 N620 1.326 . S
C619 C623 1.460 . S
C619 H625 0.929 . S
N620 Mn613 2.257 . S
N620 C619 1.326 . S
N620 C624 1.362 . S
C621 C622 1.258 . S
C621 C624 1.431 . S
C621 C641 1.449 . S
C622 C621 1.258 . S
C622 C623 1.477 . S
C622 H642 0.931 . S
C623 C619 1.460 . S
C623 C622 1.477 . S
C623 H643 0.930 . S
C624 N620 1.362 . S
C624 C621 1.431 . S
C624 C634 1.476 . S
H625 C619 0.929 . S
C626 O617 1.250 . S
C626 O618 1.258 . S
O627 Mn612 2.162 . S
O627 C615 1.281 . S
O628 Mn612 2.297 . S
O628 C615 1.236 . S
N629 Mn613 2.282 . S
N629 C630 1.328 . S
N629 C634 1.318 . S
C630 N629 1.328 . S
C630 C631 1.457 . S
C630 H635 0.929 . S
C631 C630 1.457 . S
C631 C632 1.291 . S
C631 H644 0.931 . S
C632 C631 1.291 . S
C632 C633 1.373 . S
C632 H645 0.929 . S
C633 C632 1.373 . S
C633 C634 1.396 . S
C633 C640 1.403 . S
C634 C624 1.476 . S
C634 N629 1.318 . S
C634 C633 1.396 . S
H635 C630 0.929 . S
O636 Mn612 2.385 . S
O636 C614 1.234 . S
O637 Mn612 2.209 . S
O637 Mn613 2.215 . S
O637 C614 1.283 . S
O638 Mn612 2.094 . S
O638 C616 1.240 . S
O639 Mn613 2.117 . S
O639 C616 1.264 . S
C640 C633 1.403 . S
C640 C641 1.399 . S
C640 H646 0.929 . S
C641 C621 1.449 . S
C641 C640 1.399 . S
C641 H647 0.930 . S
H642 C622 0.931 . S
H643 C623 0.930 . S
H644 C631 0.931 . S
H645 C632 0.929 . S
H646 C640 0.929 . S
H647 C641 0.930 . S
Mn648 O653 2.095 . S
Mn648 O663 2.162 . S
Mn648 O664 2.297 . S
Mn648 O672 2.385 . S
Mn648 O673 2.209 . S
Mn648 O674 2.094 . S
Mn649 O654 2.121 . S
Mn649 N656 2.257 . S
Mn649 N665 2.282 . S
Mn649 O673 2.215 . S
Mn649 O675 2.117 . S
C650 O672 1.234 . S
C650 O673 1.283 . S
C651 O663 1.281 . S
C651 O664 1.236 . S
C652 O674 1.240 . S
C652 O675 1.264 . S
O653 Mn648 2.095 . S
O653 C662 1.250 . S
O654 Mn649 2.121 . S
O654 C662 1.258 . S
C655 N656 1.326 . S
C655 C659 1.460 . S
C655 H661 0.929 . S
N656 Mn649 2.257 . S
N656 C655 1.326 . S
N656 C660 1.362 . S
C657 C658 1.258 . S
C657 C660 1.431 . S
C657 C677 1.449 . S
C658 C657 1.258 . S
C658 C659 1.477 . S
C658 H678 0.931 . S
C659 C655 1.460 . S
C659 C658 1.477 . S
C659 H679 0.930 . S
C660 N656 1.362 . S
C660 C657 1.431 . S
C660 C670 1.476 . S
H661 C655 0.929 . S
C662 O653 1.250 . S
C662 O654 1.258 . S
O663 Mn648 2.162 . S
O663 C651 1.281 . S
O664 Mn648 2.297 . S
O664 C651 1.236 . S
N665 Mn649 2.282 . S
N665 C666 1.328 . S
N665 C670 1.318 . S
C666 N665 1.328 . S
C666 C667 1.457 . S
C666 H671 0.929 . S
C667 C666 1.457 . S
C667 C668 1.291 . S
C667 H680 0.931 . S
C668 C667 1.291 . S
C668 C669 1.373 . S
C668 H681 0.929 . S
C669 C668 1.373 . S
C669 C670 1.396 . S
C669 C676 1.403 . S
C670 C660 1.476 . S
C670 N665 1.318 . S
C670 C669 1.396 . S
H671 C666 0.929 . S
O672 Mn648 2.385 . S
O672 C650 1.234 . S
O673 Mn648 2.209 . S
O673 Mn649 2.215 . S
O673 C650 1.283 . S
O674 Mn648 2.094 . S
O674 C652 1.240 . S
O675 Mn649 2.117 . S
O675 C652 1.264 . S
C676 C669 1.403 . S
C676 C677 1.399 . S
C676 H682 0.929 . S
C677 C657 1.449 . S
C677 C676 1.399 . S
C677 H683 0.930 . S
H678 C658 0.931 . S
H679 C659 0.930 . S
H680 C667 0.931 . S
H681 C668 0.929 . S
H682 C676 0.929 . S
H683 C677 0.930 . S
Mn684 O689 2.095 . S
Mn684 O699 2.162 . S
Mn684 O700 2.297 . S
Mn684 O708 2.385 . S
Mn684 O709 2.209 . S
Mn684 O710 2.094 . S
Mn685 O690 2.121 . S
Mn685 N692 2.257 . S
Mn685 N701 2.282 . S
Mn685 O709 2.215 . S
Mn685 O711 2.117 . S
C686 O708 1.234 . S
C686 O709 1.283 . S
C687 O699 1.281 . S
C687 O700 1.236 . S
C688 O710 1.240 . S
C688 O711 1.264 . S
O689 Mn684 2.095 . S
O689 C698 1.250 . S
O690 Mn685 2.121 . S
O690 C698 1.258 . S
C691 N692 1.326 . S
C691 C695 1.460 . S
C691 H697 0.929 . S
N692 Mn685 2.257 . S
N692 C691 1.326 . S
N692 C696 1.362 . S
C693 C694 1.258 . S
C693 C696 1.431 . S
C693 C713 1.449 . S
C694 C693 1.258 . S
C694 C695 1.477 . S
C694 H714 0.931 . S
C695 C691 1.460 . S
C695 C694 1.477 . S
C695 H715 0.930 . S
C696 N692 1.362 . S
C696 C693 1.431 . S
C696 C706 1.476 . S
H697 C691 0.929 . S
C698 O689 1.250 . S
C698 O690 1.258 . S
O699 Mn684 2.162 . S
O699 C687 1.281 . S
O700 Mn684 2.297 . S
O700 C687 1.236 . S
N701 Mn685 2.282 . S
N701 C702 1.328 . S
N701 C706 1.318 . S
C702 N701 1.328 . S
C702 C703 1.457 . S
C702 H707 0.929 . S
C703 C702 1.457 . S
C703 C704 1.291 . S
C703 H716 0.931 . S
C704 C703 1.291 . S
C704 C705 1.373 . S
C704 H717 0.929 . S
C705 C704 1.373 . S
C705 C706 1.396 . S
C705 C712 1.403 . S
C706 C696 1.476 . S
C706 N701 1.318 . S
C706 C705 1.396 . S
H707 C702 0.929 . S
O708 Mn684 2.385 . S
O708 C686 1.234 . S
O709 Mn684 2.209 . S
O709 Mn685 2.215 . S
O709 C686 1.283 . S
O710 Mn684 2.094 . S
O710 C688 1.240 . S
O711 Mn685 2.117 . S
O711 C688 1.264 . S
C712 C705 1.403 . S
C712 C713 1.399 . S
C712 H718 0.929 . S
C713 C693 1.449 . S
C713 C712 1.399 . S
C713 H719 0.930 . S
H714 C694 0.931 . S
H715 C695 0.930 . S
H716 C703 0.931 . S
H717 C704 0.929 . S
H718 C712 0.929 . S
H719 C713 0.930 . S
Mn720 O725 2.095 . S
Mn720 O735 2.162 . S
Mn720 O736 2.297 . S
Mn720 O744 2.385 . S
Mn720 O745 2.209 . S
Mn720 O746 2.094 . S
Mn721 O726 2.121 . S
Mn721 N728 2.257 . S
Mn721 N737 2.282 . S
Mn721 O745 2.215 . S
Mn721 O747 2.117 . S
C722 O744 1.234 . S
C722 O745 1.283 . S
C723 O735 1.281 . S
C723 O736 1.236 . S
C724 O746 1.240 . S
C724 O747 1.264 . S
O725 Mn720 2.095 . S
O725 C734 1.250 . S
O726 Mn721 2.121 . S
O726 C734 1.258 . S
C727 N728 1.326 . S
C727 C731 1.460 . S
C727 H733 0.929 . S
N728 Mn721 2.257 . S
N728 C727 1.326 . S
N728 C732 1.362 . S
C729 C730 1.258 . S
C729 C732 1.431 . S
C729 C749 1.449 . S
C730 C729 1.258 . S
C730 C731 1.477 . S
C730 H750 0.931 . S
C731 C727 1.460 . S
C731 C730 1.477 . S
C731 H751 0.930 . S
C732 N728 1.362 . S
C732 C729 1.431 . S
C732 C742 1.476 . S
H733 C727 0.929 . S
C734 O725 1.250 . S
C734 O726 1.258 . S
O735 Mn720 2.162 . S
O735 C723 1.281 . S
O736 Mn720 2.297 . S
O736 C723 1.236 . S
N737 Mn721 2.282 . S
N737 C738 1.328 . S
N737 C742 1.318 . S
C738 N737 1.328 . S
C738 C739 1.457 . S
C738 H743 0.929 . S
C739 C738 1.457 . S
C739 C740 1.291 . S
C739 H752 0.931 . S
C740 C739 1.291 . S
C740 C741 1.373 . S
C740 H753 0.929 . S
C741 C740 1.373 . S
C741 C742 1.396 . S
C741 C748 1.403 . S
C742 C732 1.476 . S
C742 N737 1.318 . S
C742 C741 1.396 . S
H743 C738 0.929 . S
O744 Mn720 2.385 . S
O744 C722 1.234 . S
O745 Mn720 2.209 . S
O745 Mn721 2.215 . S
O745 C722 1.283 . S
O746 Mn720 2.094 . S
O746 C724 1.240 . S
O747 Mn721 2.117 . S
O747 C724 1.264 . S
C748 C741 1.403 . S
C748 C749 1.399 . S
C748 H754 0.929 . S
C749 C729 1.449 . S
C749 C748 1.399 . S
C749 H755 0.930 . S
H750 C730 0.931 . S
H751 C731 0.930 . S
H752 C739 0.931 . S
H753 C740 0.929 . S
H754 C748 0.929 . S
H755 C749 0.930 . S
Mn756 O761 2.095 . S
Mn756 O771 2.162 . S
Mn756 O772 2.297 . S
Mn756 O780 2.385 . S
Mn756 O781 2.209 . S
Mn756 O782 2.094 . S
Mn757 O762 2.121 . S
Mn757 N764 2.257 . S
Mn757 N773 2.282 . S
Mn757 O781 2.215 . S
Mn757 O783 2.117 . S
C758 O780 1.234 . S
C758 O781 1.283 . S
C759 O771 1.281 . S
C759 O772 1.236 . S
C760 O782 1.240 . S
C760 O783 1.264 . S
O761 Mn756 2.095 . S
O761 C770 1.250 . S
O762 Mn757 2.121 . S
O762 C770 1.258 . S
C763 N764 1.326 . S
C763 C767 1.460 . S
C763 H769 0.929 . S
N764 Mn757 2.257 . S
N764 C763 1.326 . S
N764 C768 1.362 . S
C765 C766 1.258 . S
C765 C768 1.431 . S
C765 C785 1.449 . S
C766 C765 1.258 . S
C766 C767 1.477 . S
C766 H786 0.931 . S
C767 C763 1.460 . S
C767 C766 1.477 . S
C767 H787 0.930 . S
C768 N764 1.362 . S
C768 C765 1.431 . S
C768 C778 1.476 . S
H769 C763 0.929 . S
C770 O761 1.250 . S
C770 O762 1.258 . S
O771 Mn756 2.162 . S
O771 C759 1.281 . S
O772 Mn756 2.297 . S
O772 C759 1.236 . S
N773 Mn757 2.282 . S
N773 C774 1.328 . S
N773 C778 1.318 . S
C774 N773 1.328 . S
C774 C775 1.457 . S
C774 H779 0.929 . S
C775 C774 1.457 . S
C775 C776 1.291 . S
C775 H788 0.931 . S
C776 C775 1.291 . S
C776 C777 1.373 . S
C776 H789 0.929 . S
C777 C776 1.373 . S
C777 C778 1.396 . S
C777 C784 1.403 . S
C778 C768 1.476 . S
C778 N773 1.318 . S
C778 C777 1.396 . S
H779 C774 0.929 . S
O780 Mn756 2.385 . S
O780 C758 1.234 . S
O781 Mn756 2.209 . S
O781 Mn757 2.215 . S
O781 C758 1.283 . S
O782 Mn756 2.094 . S
O782 C760 1.240 . S
O783 Mn757 2.117 . S
O783 C760 1.264 . S
C784 C777 1.403 . S
C784 C785 1.399 . S
C784 H790 0.929 . S
C785 C765 1.449 . S
C785 C784 1.399 . S
C785 H791 0.930 . S
H786 C766 0.931 . S
H787 C767 0.930 . S
H788 C775 0.931 . S
H789 C776 0.929 . S
H790 C784 0.929 . S
H791 C785 0.930 . S
Mn792 O797 2.095 . S
Mn792 O807 2.162 . S
Mn792 O808 2.297 . S
Mn792 O816 2.385 . S
Mn792 O817 2.209 . S
Mn792 O818 2.094 . S
Mn793 O798 2.121 . S
Mn793 N800 2.257 . S
Mn793 N809 2.282 . S
Mn793 O817 2.215 . S
Mn793 O819 2.117 . S
C794 O816 1.234 . S
C794 O817 1.283 . S
C795 O807 1.281 . S
C795 O808 1.236 . S
C796 O818 1.240 . S
C796 O819 1.264 . S
O797 Mn792 2.095 . S
O797 C806 1.250 . S
O798 Mn793 2.121 . S
O798 C806 1.258 . S
C799 N800 1.326 . S
C799 C803 1.460 . S
C799 H805 0.929 . S
N800 Mn793 2.257 . S
N800 C799 1.326 . S
N800 C804 1.362 . S
C801 C802 1.258 . S
C801 C804 1.431 . S
C801 C821 1.449 . S
C802 C801 1.258 . S
C802 C803 1.477 . S
C802 H822 0.931 . S
C803 C799 1.460 . S
C803 C802 1.477 . S
C803 H823 0.930 . S
C804 N800 1.362 . S
C804 C801 1.431 . S
C804 C814 1.476 . S
H805 C799 0.929 . S
C806 O797 1.250 . S
C806 O798 1.258 . S
O807 Mn792 2.162 . S
O807 C795 1.281 . S
O808 Mn792 2.297 . S
O808 C795 1.236 . S
N809 Mn793 2.282 . S
N809 C810 1.328 . S
N809 C814 1.318 . S
C810 N809 1.328 . S
C810 C811 1.457 . S
C810 H815 0.929 . S
C811 C810 1.457 . S
C811 C812 1.291 . S
C811 H824 0.931 . S
C812 C811 1.291 . S
C812 C813 1.373 . S
C812 H825 0.929 . S
C813 C812 1.373 . S
C813 C814 1.396 . S
C813 C820 1.403 . S
C814 C804 1.476 . S
C814 N809 1.318 . S
C814 C813 1.396 . S
H815 C810 0.929 . S
O816 Mn792 2.385 . S
O816 C794 1.234 . S
O817 Mn792 2.209 . S
O817 Mn793 2.215 . S
O817 C794 1.283 . S
O818 Mn792 2.094 . S
O818 C796 1.240 . S
O819 Mn793 2.117 . S
O819 C796 1.264 . S
C820 C813 1.403 . S
C820 C821 1.399 . S
C820 H826 0.929 . S
C821 C801 1.449 . S
C821 C820 1.399 . S
C821 H827 0.930 . S
H822 C802 0.931 . S
H823 C803 0.930 . S
H824 C811 0.931 . S
H825 C812 0.929 . S
H826 C820 0.929 . S
H827 C821 0.930 . S
Mn828 O833 2.095 . S
Mn828 O843 2.162 . S
Mn828 O844 2.297 . S
Mn828 O852 2.385 . S
Mn828 O853 2.209 . S
Mn828 O854 2.094 . S
Mn829 O834 2.121 . S
Mn829 N836 2.257 . S
Mn829 N845 2.282 . S
Mn829 O853 2.215 . S
Mn829 O855 2.117 . S
C830 O852 1.234 . S
C830 O853 1.283 . S
C831 O843 1.281 . S
C831 O844 1.236 . S
C832 O854 1.240 . S
C832 O855 1.264 . S
O833 Mn828 2.095 . S
O833 C842 1.250 . S
O834 Mn829 2.121 . S
O834 C842 1.258 . S
C835 N836 1.326 . S
C835 C839 1.460 . S
C835 H841 0.929 . S
N836 Mn829 2.257 . S
N836 C835 1.326 . S
N836 C840 1.362 . S
C837 C838 1.258 . S
C837 C840 1.431 . S
C837 C857 1.449 . S
C838 C837 1.258 . S
C838 C839 1.477 . S
C838 H858 0.931 . S
C839 C835 1.460 . S
C839 C838 1.477 . S
C839 H859 0.930 . S
C840 N836 1.362 . S
C840 C837 1.431 . S
C840 C850 1.476 . S
H841 C835 0.929 . S
C842 O833 1.250 . S
C842 O834 1.258 . S
O843 Mn828 2.162 . S
O843 C831 1.281 . S
O844 Mn828 2.297 . S
O844 C831 1.236 . S
N845 Mn829 2.282 . S
N845 C846 1.328 . S
N845 C850 1.318 . S
C846 N845 1.328 . S
C846 C847 1.457 . S
C846 H851 0.929 . S
C847 C846 1.457 . S
C847 C848 1.291 . S
C847 H860 0.931 . S
C848 C847 1.291 . S
C848 C849 1.373 . S
C848 H861 0.929 . S
C849 C848 1.373 . S
C849 C850 1.396 . S
C849 C856 1.403 . S
C850 C840 1.476 . S
C850 N845 1.318 . S
C850 C849 1.396 . S
H851 C846 0.929 . S
O852 Mn828 2.385 . S
O852 C830 1.234 . S
O853 Mn828 2.209 . S
O853 Mn829 2.215 . S
O853 C830 1.283 . S
O854 Mn828 2.094 . S
O854 C832 1.240 . S
O855 Mn829 2.117 . S
O855 C832 1.264 . S
C856 C849 1.403 . S
C856 C857 1.399 . S
C856 H862 0.929 . S
C857 C837 1.449 . S
C857 C856 1.399 . S
C857 H863 0.930 . S
H858 C838 0.931 . S
H859 C839 0.930 . S
H860 C847 0.931 . S
H861 C848 0.929 . S
H862 C856 0.929 . S
H863 C857 0.930 . S
Mn864 O869 2.095 . S
Mn864 O879 2.162 . S
Mn864 O880 2.297 . S
Mn864 O888 2.385 . S
Mn864 O889 2.209 . S
Mn864 O890 2.094 . S
Mn865 O870 2.121 . S
Mn865 N872 2.257 . S
Mn865 N881 2.282 . S
Mn865 O889 2.215 . S
Mn865 O891 2.117 . S
C866 O888 1.234 . S
C866 O889 1.283 . S
C867 O879 1.281 . S
C867 O880 1.236 . S
C868 O890 1.240 . S
C868 O891 1.264 . S
O869 Mn864 2.095 . S
O869 C878 1.250 . S
O870 Mn865 2.121 . S
O870 C878 1.258 . S
C871 N872 1.326 . S
C871 C875 1.460 . S
C871 H877 0.929 . S
N872 Mn865 2.257 . S
N872 C871 1.326 . S
N872 C876 1.362 . S
C873 C874 1.258 . S
C873 C876 1.431 . S
C873 C893 1.449 . S
C874 C873 1.258 . S
C874 C875 1.477 . S
C874 H894 0.931 . S
C875 C871 1.460 . S
C875 C874 1.477 . S
C875 H895 0.930 . S
C876 N872 1.362 . S
C876 C873 1.431 . S
C876 C886 1.476 . S
H877 C871 0.929 . S
C878 O869 1.250 . S
C878 O870 1.258 . S
O879 Mn864 2.162 . S
O879 C867 1.281 . S
O880 Mn864 2.297 . S
O880 C867 1.236 . S
N881 Mn865 2.282 . S
N881 C882 1.328 . S
N881 C886 1.318 . S
C882 N881 1.328 . S
C882 C883 1.457 . S
C882 H887 0.929 . S
C883 C882 1.457 . S
C883 C884 1.291 . S
C883 H896 0.931 . S
C884 C883 1.291 . S
C884 C885 1.373 . S
C884 H897 0.929 . S
C885 C884 1.373 . S
C885 C886 1.396 . S
C885 C892 1.403 . S
C886 C876 1.476 . S
C886 N881 1.318 . S
C886 C885 1.396 . S
H887 C882 0.929 . S
O888 Mn864 2.385 . S
O888 C866 1.234 . S
O889 Mn864 2.209 . S
O889 Mn865 2.215 . S
O889 C866 1.283 . S
O890 Mn864 2.094 . S
O890 C868 1.240 . S
O891 Mn865 2.117 . S
O891 C868 1.264 . S
C892 C885 1.403 . S
C892 C893 1.399 . S
C892 H898 0.929 . S
C893 C873 1.449 . S
C893 C892 1.399 . S
C893 H899 0.930 . S
H894 C874 0.931 . S
H895 C875 0.930 . S
H896 C883 0.931 . S
H897 C884 0.929 . S
H898 C892 0.929 . S
H899 C893 0.930 . S
Mn900 O905 2.095 . S
Mn900 O915 2.162 . S
Mn900 O916 2.297 . S
Mn900 O924 2.385 . S
Mn900 O925 2.209 . S
Mn900 O926 2.094 . S
Mn901 O906 2.121 . S
Mn901 N908 2.257 . S
Mn901 N917 2.282 . S
Mn901 O925 2.215 . S
Mn901 O927 2.117 . S
C902 O924 1.234 . S
C902 O925 1.283 . S
C903 O915 1.281 . S
C903 O916 1.236 . S
C904 O926 1.240 . S
C904 O927 1.264 . S
O905 Mn900 2.095 . S
O905 C914 1.250 . S
O906 Mn901 2.121 . S
O906 C914 1.258 . S
C907 N908 1.326 . S
C907 C911 1.460 . S
C907 H913 0.929 . S
N908 Mn901 2.257 . S
N908 C907 1.326 . S
N908 C912 1.362 . S
C909 C910 1.258 . S
C909 C912 1.431 . S
C909 C929 1.449 . S
C910 C909 1.258 . S
C910 C911 1.477 . S
C910 H930 0.931 . S
C911 C907 1.460 . S
C911 C910 1.477 . S
C911 H931 0.930 . S
C912 N908 1.362 . S
C912 C909 1.431 . S
C912 C922 1.476 . S
H913 C907 0.929 . S
C914 O905 1.250 . S
C914 O906 1.258 . S
O915 Mn900 2.162 . S
O915 C903 1.281 . S
O916 Mn900 2.297 . S
O916 C903 1.236 . S
N917 Mn901 2.282 . S
N917 C918 1.328 . S
N917 C922 1.318 . S
C918 N917 1.328 . S
C918 C919 1.457 . S
C918 H923 0.929 . S
C919 C918 1.457 . S
C919 C920 1.291 . S
C919 H932 0.931 . S
C920 C919 1.291 . S
C920 C921 1.373 . S
C920 H933 0.929 . S
C921 C920 1.373 . S
C921 C922 1.396 . S
C921 C928 1.403 . S
C922 C912 1.476 . S
C922 N917 1.318 . S
C922 C921 1.396 . S
H923 C918 0.929 . S
O924 Mn900 2.385 . S
O924 C902 1.234 . S
O925 Mn900 2.209 . S
O925 Mn901 2.215 . S
O925 C902 1.283 . S
O926 Mn900 2.094 . S
O926 C904 1.240 . S
O927 Mn901 2.117 . S
O927 C904 1.264 . S
C928 C921 1.403 . S
C928 C929 1.399 . S
C928 H934 0.929 . S
C929 C909 1.449 . S
C929 C928 1.399 . S
C929 H935 0.930 . S
H930 C910 0.931 . S
H931 C911 0.930 . S
H932 C919 0.931 . S
H933 C920 0.929 . S
H934 C928 0.929 . S
H935 C929 0.930 . S
Mn936 O941 2.095 . S
Mn936 O951 2.162 . S
Mn936 O952 2.297 . S
Mn936 O960 2.385 . S
Mn936 O961 2.209 . S
Mn936 O962 2.094 . S
Mn937 O942 2.121 . S
Mn937 N944 2.257 . S
Mn937 N953 2.282 . S
Mn937 O961 2.215 . S
Mn937 O963 2.117 . S
C938 O960 1.234 . S
C938 O961 1.283 . S
C939 O951 1.281 . S
C939 O952 1.236 . S
C940 O962 1.240 . S
C940 O963 1.264 . S
O941 Mn936 2.095 . S
O941 C950 1.250 . S
O942 Mn937 2.121 . S
O942 C950 1.258 . S
C943 N944 1.326 . S
C943 C947 1.460 . S
C943 H949 0.929 . S
N944 Mn937 2.257 . S
N944 C943 1.326 . S
N944 C948 1.362 . S
C945 C946 1.258 . S
C945 C948 1.431 . S
C945 C965 1.449 . S
C946 C945 1.258 . S
C946 C947 1.477 . S
C946 H966 0.931 . S
C947 C943 1.460 . S
C947 C946 1.477 . S
C947 H967 0.930 . S
C948 N944 1.362 . S
C948 C945 1.431 . S
C948 C958 1.476 . S
H949 C943 0.929 . S
C950 O941 1.250 . S
C950 O942 1.258 . S
O951 Mn936 2.162 . S
O951 C939 1.281 . S
O952 Mn936 2.297 . S
O952 C939 1.236 . S
N953 Mn937 2.282 . S
N953 C954 1.328 . S
N953 C958 1.318 . S
C954 N953 1.328 . S
C954 C955 1.457 . S
C954 H959 0.929 . S
C955 C954 1.457 . S
C955 C956 1.291 . S
C955 H968 0.931 . S
C956 C955 1.291 . S
C956 C957 1.373 . S
C956 H969 0.929 . S
C957 C956 1.373 . S
C957 C958 1.396 . S
C957 C964 1.403 . S
C958 C948 1.476 . S
C958 N953 1.318 . S
C958 C957 1.396 . S
H959 C954 0.929 . S
O960 Mn936 2.385 . S
O960 C938 1.234 . S
O961 Mn936 2.209 . S
O961 Mn937 2.215 . S
O961 C938 1.283 . S
O962 Mn936 2.094 . S
O962 C940 1.240 . S
O963 Mn937 2.117 . S
O963 C940 1.264 . S
C964 C957 1.403 . S
C964 C965 1.399 . S
C964 H970 0.929 . S
C965 C945 1.449 . S
C965 C964 1.399 . S
C965 H971 0.930 . S
H966 C946 0.931 . S
H967 C947 0.930 . S
H968 C955 0.931 . S
H969 C956 0.929 . S
H970 C964 0.929 . S
H971 C965 0.930 . S
Mn972 O977 2.095 . S
Mn972 O987 2.162 . S
Mn972 O988 2.297 . S
Mn972 O996 2.385 . S
Mn972 O997 2.209 . S
Mn972 O998 2.094 . S
Mn973 O978 2.121 . S
Mn973 N980 2.257 . S
Mn973 N989 2.282 . S
Mn973 O997 2.215 . S
Mn973 O999 2.117 . S
C974 O996 1.234 . S
C974 O997 1.283 . S
C975 O987 1.281 . S
C975 O988 1.236 . S
C976 O998 1.240 . S
C976 O999 1.264 . S
O977 Mn972 2.095 . S
O977 C986 1.250 . S
O978 Mn973 2.121 . S
O978 C986 1.258 . S
C979 N980 1.326 . S
C979 C983 1.460 . S
C979 H985 0.929 . S
N980 Mn973 2.257 . S
N980 C979 1.326 . S
N980 C984 1.362 . S
C981 C982 1.258 . S
C981 C984 1.431 . S
C981 C1001 1.449 . S
C982 C981 1.258 . S
C982 C983 1.477 . S
C982 H1002 0.931 . S
C983 C979 1.460 . S
C983 C982 1.477 . S
C983 H1003 0.930 . S
C984 N980 1.362 . S
C984 C981 1.431 . S
C984 C994 1.476 . S
H985 C979 0.929 . S
C986 O977 1.250 . S
C986 O978 1.258 . S
O987 Mn972 2.162 . S
O987 C975 1.281 . S
O988 Mn972 2.297 . S
O988 C975 1.236 . S
N989 Mn973 2.282 . S
N989 C990 1.328 . S
N989 C994 1.318 . S
C990 N989 1.328 . S
C990 C991 1.457 . S
C990 H995 0.929 . S
C991 C990 1.457 . S
C991 C992 1.291 . S
C991 H1004 0.931 . S
C992 C991 1.291 . S
C992 C993 1.373 . S
C992 H1005 0.929 . S
C993 C992 1.373 . S
C993 C994 1.396 . S
C993 C1000 1.403 . S
C994 C984 1.476 . S
C994 N989 1.318 . S
C994 C993 1.396 . S
H995 C990 0.929 . S
O996 Mn972 2.385 . S
O996 C974 1.234 . S
O997 Mn972 2.209 . S
O997 Mn973 2.215 . S
O997 C974 1.283 . S
O998 Mn972 2.094 . S
O998 C976 1.240 . S
O999 Mn973 2.117 . S
O999 C976 1.264 . S
C1000 C993 1.403 . S
C1000 C1001 1.399 . S
C1000 H1006 0.929 . S
C1001 C981 1.449 . S
C1001 C1000 1.399 . S
C1001 H1007 0.930 . S
H1002 C982 0.931 . S
H1003 C983 0.930 . S
H1004 C991 0.931 . S
H1005 C992 0.929 . S
H1006 C1000 0.929 . S
H1007 C1001 0.930 . S
Mn1008 O1013 2.095 . S
Mn1008 O1023 2.162 . S
Mn1008 O1024 2.297 . S
Mn1008 O1032 2.385 . S
Mn1008 O1033 2.209 . S
Mn1008 O1034 2.094 . S
Mn1009 O1014 2.121 . S
Mn1009 N1016 2.257 . S
Mn1009 N1025 2.282 . S
Mn1009 O1033 2.215 . S
Mn1009 O1035 2.117 . S
C1010 O1032 1.234 . S
C1010 O1033 1.283 . S
C1011 O1023 1.281 . S
C1011 O1024 1.236 . S
C1012 O1034 1.240 . S
C1012 O1035 1.264 . S
O1013 Mn1008 2.095 . S
O1013 C1022 1.250 . S
O1014 Mn1009 2.121 . S
O1014 C1022 1.258 . S
C1015 N1016 1.326 . S
C1015 C1019 1.460 . S
C1015 H1021 0.929 . S
N1016 Mn1009 2.257 . S
N1016 C1015 1.326 . S
N1016 C1020 1.362 . S
C1017 C1018 1.258 . S
C1017 C1020 1.431 . S
C1017 C1037 1.449 . S
C1018 C1017 1.258 . S
C1018 C1019 1.477 . S
C1018 H1038 0.931 . S
C1019 C1015 1.460 . S
C1019 C1018 1.477 . S
C1019 H1039 0.930 . S
C1020 N1016 1.362 . S
C1020 C1017 1.431 . S
C1020 C1030 1.476 . S
H1021 C1015 0.929 . S
C1022 O1013 1.250 . S
C1022 O1014 1.258 . S
O1023 Mn1008 2.162 . S
O1023 C1011 1.281 . S
O1024 Mn1008 2.297 . S
O1024 C1011 1.236 . S
N1025 Mn1009 2.282 . S
N1025 C1026 1.328 . S
N1025 C1030 1.318 . S
C1026 N1025 1.328 . S
C1026 C1027 1.457 . S
C1026 H1031 0.929 . S
C1027 C1026 1.457 . S
C1027 C1028 1.291 . S
C1027 H1040 0.931 . S
C1028 C1027 1.291 . S
C1028 C1029 1.373 . S
C1028 H1041 0.929 . S
C1029 C1028 1.373 . S
C1029 C1030 1.396 . S
C1029 C1036 1.403 . S
C1030 C1020 1.476 . S
C1030 N1025 1.318 . S
C1030 C1029 1.396 . S
H1031 C1026 0.929 . S
O1032 Mn1008 2.385 . S
O1032 C1010 1.234 . S
O1033 Mn1008 2.209 . S
O1033 Mn1009 2.215 . S
O1033 C1010 1.283 . S
O1034 Mn1008 2.094 . S
O1034 C1012 1.240 . S
O1035 Mn1009 2.117 . S
O1035 C1012 1.264 . S
C1036 C1029 1.403 . S
C1036 C1037 1.399 . S
C1036 H1042 0.929 . S
C1037 C1017 1.449 . S
C1037 C1036 1.399 . S
C1037 H1043 0.930 . S
H1038 C1018 0.931 . S
H1039 C1019 0.930 . S
H1040 C1027 0.931 . S
H1041 C1028 0.929 . S
H1042 C1036 0.929 . S
H1043 C1037 0.930 . S
Mn1044 O1049 2.095 . S
Mn1044 O1059 2.162 . S
Mn1044 O1060 2.297 . S
Mn1044 O1068 2.385 . S
Mn1044 O1069 2.209 . S
Mn1044 O1070 2.094 . S
Mn1045 O1050 2.121 . S
Mn1045 N1052 2.257 . S
Mn1045 N1061 2.282 . S
Mn1045 O1069 2.215 . S
Mn1045 O1071 2.117 . S
C1046 O1068 1.234 . S
C1046 O1069 1.283 . S
C1047 O1059 1.281 . S
C1047 O1060 1.236 . S
C1048 O1070 1.240 . S
C1048 O1071 1.264 . S
O1049 Mn1044 2.095 . S
O1049 C1058 1.250 . S
O1050 Mn1045 2.121 . S
O1050 C1058 1.258 . S
C1051 N1052 1.326 . S
C1051 C1055 1.460 . S
C1051 H1057 0.929 . S
N1052 Mn1045 2.257 . S
N1052 C1051 1.326 . S
N1052 C1056 1.362 . S
C1053 C1054 1.258 . S
C1053 C1056 1.431 . S
C1053 C1073 1.449 . S
C1054 C1053 1.258 . S
C1054 C1055 1.477 . S
C1054 H1074 0.931 . S
C1055 C1051 1.460 . S
C1055 C1054 1.477 . S
C1055 H1075 0.930 . S
C1056 N1052 1.362 . S
C1056 C1053 1.431 . S
C1056 C1066 1.476 . S
H1057 C1051 0.929 . S
C1058 O1049 1.250 . S
C1058 O1050 1.258 . S
O1059 Mn1044 2.162 . S
O1059 C1047 1.281 . S
O1060 Mn1044 2.297 . S
O1060 C1047 1.236 . S
N1061 Mn1045 2.282 . S
N1061 C1062 1.328 . S
N1061 C1066 1.318 . S
C1062 N1061 1.328 . S
C1062 C1063 1.457 . S
C1062 H1067 0.929 . S
C1063 C1062 1.457 . S
C1063 C1064 1.291 . S
C1063 H1076 0.931 . S
C1064 C1063 1.291 . S
C1064 C1065 1.373 . S
C1064 H1077 0.929 . S
C1065 C1064 1.373 . S
C1065 C1066 1.396 . S
C1065 C1072 1.403 . S
C1066 C1056 1.476 . S
C1066 N1061 1.318 . S
C1066 C1065 1.396 . S
H1067 C1062 0.929 . S
O1068 Mn1044 2.385 . S
O1068 C1046 1.234 . S
O1069 Mn1044 2.209 . S
O1069 Mn1045 2.215 . S
O1069 C1046 1.283 . S
O1070 Mn1044 2.094 . S
O1070 C1048 1.240 . S
O1071 Mn1045 2.117 . S
O1071 C1048 1.264 . S
C1072 C1065 1.403 . S
C1072 C1073 1.399 . S
C1072 H1078 0.929 . S
C1073 C1053 1.449 . S
C1073 C1072 1.399 . S
C1073 H1079 0.930 . S
H1074 C1054 0.931 . S
H1075 C1055 0.930 . S
H1076 C1063 0.931 . S
H1077 C1064 0.929 . S
H1078 C1072 0.929 . S
H1079 C1073 0.930 . S
Mn1080 O1085 2.095 . S
Mn1080 O1095 2.162 . S
Mn1080 O1096 2.297 . S
Mn1080 O1104 2.385 . S
Mn1080 O1105 2.209 . S
Mn1080 O1106 2.094 . S
Mn1081 O1086 2.121 . S
Mn1081 N1088 2.257 . S
Mn1081 N1097 2.282 . S
Mn1081 O1105 2.215 . S
Mn1081 O1107 2.117 . S
C1082 O1104 1.234 . S
C1082 O1105 1.283 . S
C1083 O1095 1.281 . S
C1083 O1096 1.236 . S
C1084 O1106 1.240 . S
C1084 O1107 1.264 . S
O1085 Mn1080 2.095 . S
O1085 C1094 1.250 . S
O1086 Mn1081 2.121 . S
O1086 C1094 1.258 . S
C1087 N1088 1.326 . S
C1087 C1091 1.460 . S
C1087 H1093 0.929 . S
N1088 Mn1081 2.257 . S
N1088 C1087 1.326 . S
N1088 C1092 1.362 . S
C1089 C1090 1.258 . S
C1089 C1092 1.431 . S
C1089 C1109 1.449 . S
C1090 C1089 1.258 . S
C1090 C1091 1.477 . S
C1090 H1110 0.931 . S
C1091 C1087 1.460 . S
C1091 C1090 1.477 . S
C1091 H1111 0.930 . S
C1092 N1088 1.362 . S
C1092 C1089 1.431 . S
C1092 C1102 1.476 . S
H1093 C1087 0.929 . S
C1094 O1085 1.250 . S
C1094 O1086 1.258 . S
O1095 Mn1080 2.162 . S
O1095 C1083 1.281 . S
O1096 Mn1080 2.297 . S
O1096 C1083 1.236 . S
N1097 Mn1081 2.282 . S
N1097 C1098 1.328 . S
N1097 C1102 1.318 . S
C1098 N1097 1.328 . S
C1098 C1099 1.457 . S
C1098 H1103 0.929 . S
C1099 C1098 1.457 . S
C1099 C1100 1.291 . S
C1099 H1112 0.931 . S
C1100 C1099 1.291 . S
C1100 C1101 1.373 . S
C1100 H1113 0.929 . S
C1101 C1100 1.373 . S
C1101 C1102 1.396 . S
C1101 C1108 1.403 . S
C1102 C1092 1.476 . S
C1102 N1097 1.318 . S
C1102 C1101 1.396 . S
H1103 C1098 0.929 . S
O1104 Mn1080 2.385 . S
O1104 C1082 1.234 . S
O1105 Mn1080 2.209 . S
O1105 Mn1081 2.215 . S
O1105 C1082 1.283 . S
O1106 Mn1080 2.094 . S
O1106 C1084 1.240 . S
O1107 Mn1081 2.117 . S
O1107 C1084 1.264 . S
C1108 C1101 1.403 . S
C1108 C1109 1.399 . S
C1108 H1114 0.929 . S
C1109 C1089 1.449 . S
C1109 C1108 1.399 . S
C1109 H1115 0.930 . S
H1110 C1090 0.931 . S
H1111 C1091 0.930 . S
H1112 C1099 0.931 . S
H1113 C1100 0.929 . S
H1114 C1108 0.929 . S
H1115 C1109 0.930 . S
Mn1116 O1121 2.095 . S
Mn1116 O1131 2.162 . S
Mn1116 O1132 2.297 . S
Mn1116 O1140 2.385 . S
Mn1116 O1141 2.209 . S
Mn1116 O1142 2.094 . S
Mn1117 O1122 2.121 . S
Mn1117 N1124 2.257 . S
Mn1117 N1133 2.282 . S
Mn1117 O1141 2.215 . S
Mn1117 O1143 2.117 . S
C1118 O1140 1.234 . S
C1118 O1141 1.283 . S
C1119 O1131 1.281 . S
C1119 O1132 1.236 . S
C1120 O1142 1.240 . S
C1120 O1143 1.264 . S
O1121 Mn1116 2.095 . S
O1121 C1130 1.250 . S
O1122 Mn1117 2.121 . S
O1122 C1130 1.258 . S
C1123 N1124 1.326 . S
C1123 C1127 1.460 . S
C1123 H1129 0.929 . S
N1124 Mn1117 2.257 . S
N1124 C1123 1.326 . S
N1124 C1128 1.362 . S
C1125 C1126 1.258 . S
C1125 C1128 1.431 . S
C1125 C1145 1.449 . S
C1126 C1125 1.258 . S
C1126 C1127 1.477 . S
C1126 H1146 0.931 . S
C1127 C1123 1.460 . S
C1127 C1126 1.477 . S
C1127 H1147 0.930 . S
C1128 N1124 1.362 . S
C1128 C1125 1.431 . S
C1128 C1138 1.476 . S
H1129 C1123 0.929 . S
C1130 O1121 1.250 . S
C1130 O1122 1.258 . S
O1131 Mn1116 2.162 . S
O1131 C1119 1.281 . S
O1132 Mn1116 2.297 . S
O1132 C1119 1.236 . S
N1133 Mn1117 2.282 . S
N1133 C1134 1.328 . S
N1133 C1138 1.318 . S
C1134 N1133 1.328 . S
C1134 C1135 1.457 . S
C1134 H1139 0.929 . S
C1135 C1134 1.457 . S
C1135 C1136 1.291 . S
C1135 H1148 0.931 . S
C1136 C1135 1.291 . S
C1136 C1137 1.373 . S
C1136 H1149 0.929 . S
C1137 C1136 1.373 . S
C1137 C1138 1.396 . S
C1137 C1144 1.403 . S
C1138 C1128 1.476 . S
C1138 N1133 1.318 . S
C1138 C1137 1.396 . S
H1139 C1134 0.929 . S
O1140 Mn1116 2.385 . S
O1140 C1118 1.234 . S
O1141 Mn1116 2.209 . S
O1141 Mn1117 2.215 . S
O1141 C1118 1.283 . S
O1142 Mn1116 2.094 . S
O1142 C1120 1.240 . S
O1143 Mn1117 2.117 . S
O1143 C1120 1.264 . S
C1144 C1137 1.403 . S
C1144 C1145 1.399 . S
C1144 H1150 0.929 . S
C1145 C1125 1.449 . S
C1145 C1144 1.399 . S
C1145 H1151 0.930 . S
H1146 C1126 0.931 . S
H1147 C1127 0.930 . S
H1148 C1135 0.931 . S
H1149 C1136 0.929 . S
H1150 C1144 0.929 . S
H1151 C1145 0.930 . S
C1152 C1153 1.349 . S
C1152 C1154 1.327 . S
C1152 H1177 0.950 . S
C1153 C1152 1.349 . S
C1153 C1169 1.349 . S
C1154 C1152 1.327 . S
C1154 C1173 1.429 . S
C1154 H1178 0.950 . S
C1155 C1172 1.574 . S
C1155 C1174 1.368 . S
C1155 H1179 0.949 . S
H1156 C1160 0.949 . S
C1157 C1158 1.349 . S
C1157 C1159 1.327 . S
C1157 H1180 0.950 . S
C1158 C1157 1.349 . S
C1158 C1170 1.349 . S
C1159 C1157 1.327 . S
C1159 C1175 1.429 . S
C1159 H1181 0.950 . S
C1160 H1156 0.949 . S
C1160 C1168 1.574 . S
C1160 C1176 1.368 . S
H1161 C1169 0.950 . S
H1162 C1167 0.950 . S
H1163 C1168 0.949 . S
H1164 C1170 0.950 . S
H1165 C1171 0.950 . S
H1166 C1172 0.949 . S
C1167 H1162 0.950 . S
C1167 C1169 1.327 . S
C1167 C1173 1.429 . S
C1168 C1160 1.574 . S
C1168 H1163 0.949 . S
C1168 C1174 1.368 . S
C1169 C1153 1.349 . S
C1169 H1161 0.950 . S
C1169 C1167 1.327 . S
C1170 C1158 1.349 . S
C1170 H1164 0.950 . S
C1170 C1171 1.327 . S
C1171 H1165 0.950 . S
C1171 C1170 1.327 . S
C1171 C1175 1.429 . S
C1172 C1155 1.574 . S
C1172 H1166 0.949 . S
C1172 C1176 1.368 . S
C1173 C1154 1.429 . S
C1173 C1167 1.429 . S
C1173 C1174 1.523 . S
C1174 C1155 1.368 . S
C1174 C1168 1.368 . S
C1174 C1173 1.523 . S
C1175 C1159 1.429 . S
C1175 C1171 1.429 . S
C1175 C1176 1.523 . S
C1176 C1160 1.368 . S
C1176 C1172 1.368 . S
C1176 C1175 1.523 . S
H1177 C1152 0.950 . S
H1178 C1154 0.950 . S
H1179 C1155 0.949 . S
H1180 C1157 0.950 . S
H1181 C1159 0.950 . S
C1182 C1183 1.349 . S
C1182 C1184 1.327 . S
C1182 H1207 0.950 . S
C1183 C1182 1.349 . S
C1183 C1199 1.349 . S
C1184 C1182 1.327 . S
C1184 C1203 1.429 . S
C1184 H1208 0.950 . S
C1185 C1202 1.574 . S
C1185 C1204 1.368 . S
C1185 H1209 0.949 . S
H1186 C1190 0.949 . S
C1187 C1188 1.349 . S
C1187 C1189 1.327 . S
C1187 H1210 0.950 . S
C1188 C1187 1.349 . S
C1188 C1200 1.349 . S
C1189 C1187 1.327 . S
C1189 C1205 1.429 . S
C1189 H1211 0.950 . S
C1190 H1186 0.949 . S
C1190 C1198 1.574 . S
C1190 C1206 1.368 . S
H1191 C1199 0.950 . S
H1192 C1197 0.950 . S
H1193 C1198 0.949 . S
H1194 C1200 0.950 . S
H1195 C1201 0.950 . S
H1196 C1202 0.949 . S
C1197 H1192 0.950 . S
C1197 C1199 1.327 . S
C1197 C1203 1.429 . S
C1198 C1190 1.574 . S
C1198 H1193 0.949 . S
C1198 C1204 1.368 . S
C1199 C1183 1.349 . S
C1199 H1191 0.950 . S
C1199 C1197 1.327 . S
C1200 C1188 1.349 . S
C1200 H1194 0.950 . S
C1200 C1201 1.327 . S
C1201 H1195 0.950 . S
C1201 C1200 1.327 . S
C1201 C1205 1.429 . S
C1202 C1185 1.574 . S
C1202 H1196 0.949 . S
C1202 C1206 1.368 . S
C1203 C1184 1.429 . S
C1203 C1197 1.429 . S
C1203 C1204 1.523 . S
C1204 C1185 1.368 . S
C1204 C1198 1.368 . S
C1204 C1203 1.523 . S
C1205 C1189 1.429 . S
C1205 C1201 1.429 . S
C1205 C1206 1.523 . S
C1206 C1190 1.368 . S
C1206 C1202 1.368 . S
C1206 C1205 1.523 . S
H1207 C1182 0.950 . S
H1208 C1184 0.950 . S
H1209 C1185 0.949 . S
H1210 C1187 0.950 . S
H1211 C1189 0.950 . S
C1212 C1213 1.349 . S
C1212 C1214 1.327 . S
C1212 H1237 0.950 . S
C1213 C1212 1.349 . S
C1213 C1229 1.349 . S
C1214 C1212 1.327 . S
C1214 C1233 1.429 . S
C1214 H1238 0.950 . S
C1215 C1232 1.574 . S
C1215 C1234 1.368 . S
C1215 H1239 0.949 . S
H1216 C1220 0.949 . S
C1217 C1218 1.349 . S
C1217 C1219 1.327 . S
C1217 H1240 0.950 . S
C1218 C1217 1.349 . S
C1218 C1230 1.349 . S
C1219 C1217 1.327 . S
C1219 C1235 1.429 . S
C1219 H1241 0.950 . S
C1220 H1216 0.949 . S
C1220 C1228 1.574 . S
C1220 C1236 1.368 . S
H1221 C1229 0.950 . S
H1222 C1227 0.950 . S
H1223 C1228 0.949 . S
H1224 C1230 0.950 . S
H1225 C1231 0.950 . S
H1226 C1232 0.949 . S
C1227 H1222 0.950 . S
C1227 C1229 1.327 . S
C1227 C1233 1.429 . S
C1228 C1220 1.574 . S
C1228 H1223 0.949 . S
C1228 C1234 1.368 . S
C1229 C1213 1.349 . S
C1229 H1221 0.950 . S
C1229 C1227 1.327 . S
C1230 C1218 1.349 . S
C1230 H1224 0.950 . S
C1230 C1231 1.327 . S
C1231 H1225 0.950 . S
C1231 C1230 1.327 . S
C1231 C1235 1.429 . S
C1232 C1215 1.574 . S
C1232 H1226 0.949 . S
C1232 C1236 1.368 . S
C1233 C1214 1.429 . S
C1233 C1227 1.429 . S
C1233 C1234 1.523 . S
C1234 C1215 1.368 . S
C1234 C1228 1.368 . S
C1234 C1233 1.523 . S
C1235 C1219 1.429 . S
C1235 C1231 1.429 . S
C1235 C1236 1.523 . S
C1236 C1220 1.368 . S
C1236 C1232 1.368 . S
C1236 C1235 1.523 . S
H1237 C1212 0.950 . S
H1238 C1214 0.950 . S
H1239 C1215 0.949 . S
H1240 C1217 0.950 . S
H1241 C1219 0.950 . S
C1242 C1243 1.349 . S
C1242 C1244 1.327 . S
C1242 H1267 0.950 . S
C1243 C1242 1.349 . S
C1243 C1259 1.349 . S
C1244 C1242 1.327 . S
C1244 C1263 1.429 . S
C1244 H1268 0.950 . S
C1245 C1262 1.574 . S
C1245 C1264 1.368 . S
C1245 H1269 0.949 . S
H1246 C1250 0.949 . S
C1247 C1248 1.349 . S
C1247 C1249 1.327 . S
C1247 H1270 0.950 . S
C1248 C1247 1.349 . S
C1248 C1260 1.349 . S
C1249 C1247 1.327 . S
C1249 C1265 1.429 . S
C1249 H1271 0.950 . S
C1250 H1246 0.949 . S
C1250 C1258 1.574 . S
C1250 C1266 1.368 . S
H1251 C1259 0.950 . S
H1252 C1257 0.950 . S
H1253 C1258 0.949 . S
H1254 C1260 0.950 . S
H1255 C1261 0.950 . S
H1256 C1262 0.949 . S
C1257 H1252 0.950 . S
C1257 C1259 1.327 . S
C1257 C1263 1.429 . S
C1258 C1250 1.574 . S
C1258 H1253 0.949 . S
C1258 C1264 1.368 . S
C1259 C1243 1.349 . S
C1259 H1251 0.950 . S
C1259 C1257 1.327 . S
C1260 C1248 1.349 . S
C1260 H1254 0.950 . S
C1260 C1261 1.327 . S
C1261 H1255 0.950 . S
C1261 C1260 1.327 . S
C1261 C1265 1.429 . S
C1262 C1245 1.574 . S
C1262 H1256 0.949 . S
C1262 C1266 1.368 . S
C1263 C1244 1.429 . S
C1263 C1257 1.429 . S
C1263 C1264 1.523 . S
C1264 C1245 1.368 . S
C1264 C1258 1.368 . S
C1264 C1263 1.523 . S
C1265 C1249 1.429 . S
C1265 C1261 1.429 . S
C1265 C1266 1.523 . S
C1266 C1250 1.368 . S
C1266 C1262 1.368 . S
C1266 C1265 1.523 . S
H1267 C1242 0.950 . S
H1268 C1244 0.950 . S
H1269 C1245 0.949 . S
H1270 C1247 0.950 . S
H1271 C1249 0.950 . S
C1272 C1273 1.349 . S
C1272 C1274 1.327 . S
C1272 H1297 0.950 . S
C1273 C1272 1.349 . S
C1273 C1289 1.349 . S
C1274 C1272 1.327 . S
C1274 C1293 1.429 . S
C1274 H1298 0.950 . S
C1275 C1292 1.574 . S
C1275 C1294 1.368 . S
C1275 H1299 0.949 . S
H1276 C1280 0.949 . S
C1277 C1278 1.349 . S
C1277 C1279 1.327 . S
C1277 H1300 0.950 . S
C1278 C1277 1.349 . S
C1278 C1290 1.349 . S
C1279 C1277 1.327 . S
C1279 C1295 1.429 . S
C1279 H1301 0.950 . S
C1280 H1276 0.949 . S
C1280 C1288 1.574 . S
C1280 C1296 1.368 . S
H1281 C1289 0.950 . S
H1282 C1287 0.950 . S
H1283 C1288 0.949 . S
H1284 C1290 0.950 . S
H1285 C1291 0.950 . S
H1286 C1292 0.949 . S
C1287 H1282 0.950 . S
C1287 C1289 1.327 . S
C1287 C1293 1.429 . S
C1288 C1280 1.574 . S
C1288 H1283 0.949 . S
C1288 C1294 1.368 . S
C1289 C1273 1.349 . S
C1289 H1281 0.950 . S
C1289 C1287 1.327 . S
C1290 C1278 1.349 . S
C1290 H1284 0.950 . S
C1290 C1291 1.327 . S
C1291 H1285 0.950 . S
C1291 C1290 1.327 . S
C1291 C1295 1.429 . S
C1292 C1275 1.574 . S
C1292 H1286 0.949 . S
C1292 C1296 1.368 . S
C1293 C1274 1.429 . S
C1293 C1287 1.429 . S
C1293 C1294 1.523 . S
C1294 C1275 1.368 . S
C1294 C1288 1.368 . S
C1294 C1293 1.523 . S
C1295 C1279 1.429 . S
C1295 C1291 1.429 . S
C1295 C1296 1.523 . S
C1296 C1280 1.368 . S
C1296 C1292 1.368 . S
C1296 C1295 1.523 . S
H1297 C1272 0.950 . S
H1298 C1274 0.950 . S
H1299 C1275 0.949 . S
H1300 C1277 0.950 . S
H1301 C1279 0.950 . S
C1302 C1303 1.349 . S
C1302 C1304 1.327 . S
C1302 H1327 0.950 . S
C1303 C1302 1.349 . S
C1303 C1319 1.349 . S
C1304 C1302 1.327 . S
C1304 C1323 1.429 . S
C1304 H1328 0.950 . S
C1305 C1322 1.574 . S
C1305 C1324 1.368 . S
C1305 H1329 0.949 . S
H1306 C1310 0.949 . S
C1307 C1308 1.349 . S
C1307 C1309 1.327 . S
C1307 H1330 0.950 . S
C1308 C1307 1.349 . S
C1308 C1320 1.349 . S
C1309 C1307 1.327 . S
C1309 C1325 1.429 . S
C1309 H1331 0.950 . S
C1310 H1306 0.949 . S
C1310 C1318 1.574 . S
C1310 C1326 1.368 . S
H1311 C1319 0.950 . S
H1312 C1317 0.950 . S
H1313 C1318 0.949 . S
H1314 C1320 0.950 . S
H1315 C1321 0.950 . S
H1316 C1322 0.949 . S
C1317 H1312 0.950 . S
C1317 C1319 1.327 . S
C1317 C1323 1.429 . S
C1318 C1310 1.574 . S
C1318 H1313 0.949 . S
C1318 C1324 1.368 . S
C1319 C1303 1.349 . S
C1319 H1311 0.950 . S
C1319 C1317 1.327 . S
C1320 C1308 1.349 . S
C1320 H1314 0.950 . S
C1320 C1321 1.327 . S
C1321 H1315 0.950 . S
C1321 C1320 1.327 . S
C1321 C1325 1.429 . S
C1322 C1305 1.574 . S
C1322 H1316 0.949 . S
C1322 C1326 1.368 . S
C1323 C1304 1.429 . S
C1323 C1317 1.429 . S
C1323 C1324 1.523 . S
C1324 C1305 1.368 . S
C1324 C1318 1.368 . S
C1324 C1323 1.523 . S
C1325 C1309 1.429 . S
C1325 C1321 1.429 . S
C1325 C1326 1.523 . S
C1326 C1310 1.368 . S
C1326 C1322 1.368 . S
C1326 C1325 1.523 . S
H1327 C1302 0.950 . S
H1328 C1304 0.950 . S
H1329 C1305 0.949 . S
H1330 C1307 0.950 . S
H1331 C1309 0.950 . S
C1332 C1333 1.349 . S
C1332 C1334 1.327 . S
C1332 H1357 0.950 . S
C1333 C1332 1.349 . S
C1333 C1349 1.349 . S
C1334 C1332 1.327 . S
C1334 C1353 1.429 . S
C1334 H1358 0.950 . S
C1335 C1352 1.574 . S
C1335 C1354 1.368 . S
C1335 H1359 0.949 . S
H1336 C1340 0.949 . S
C1337 C1338 1.349 . S
C1337 C1339 1.327 . S
C1337 H1360 0.950 . S
C1338 C1337 1.349 . S
C1338 C1350 1.349 . S
C1339 C1337 1.327 . S
C1339 C1355 1.429 . S
C1339 H1361 0.950 . S
C1340 H1336 0.949 . S
C1340 C1348 1.574 . S
C1340 C1356 1.368 . S
H1341 C1349 0.950 . S
H1342 C1347 0.950 . S
H1343 C1348 0.949 . S
H1344 C1350 0.950 . S
H1345 C1351 0.950 . S
H1346 C1352 0.949 . S
C1347 H1342 0.950 . S
C1347 C1349 1.327 . S
C1347 C1353 1.429 . S
C1348 C1340 1.574 . S
C1348 H1343 0.949 . S
C1348 C1354 1.368 . S
C1349 C1333 1.349 . S
C1349 H1341 0.950 . S
C1349 C1347 1.327 . S
C1350 C1338 1.349 . S
C1350 H1344 0.950 . S
C1350 C1351 1.327 . S
C1351 H1345 0.950 . S
C1351 C1350 1.327 . S
C1351 C1355 1.429 . S
C1352 C1335 1.574 . S
C1352 H1346 0.949 . S
C1352 C1356 1.368 . S
C1353 C1334 1.429 . S
C1353 C1347 1.429 . S
C1353 C1354 1.523 . S
C1354 C1335 1.368 . S
C1354 C1348 1.368 . S
C1354 C1353 1.523 . S
C1355 C1339 1.429 . S
C1355 C1351 1.429 . S
C1355 C1356 1.523 . S
C1356 C1340 1.368 . S
C1356 C1352 1.368 . S
C1356 C1355 1.523 . S
H1357 C1332 0.950 . S
H1358 C1334 0.950 . S
H1359 C1335 0.949 . S
H1360 C1337 0.950 . S
H1361 C1339 0.950 . S
C1362 C1363 1.349 . S
C1362 C1364 1.327 . S
C1362 H1387 0.950 . S
C1363 C1362 1.349 . S
C1363 C1379 1.349 . S
C1364 C1362 1.327 . S
C1364 C1383 1.429 . S
C1364 H1388 0.950 . S
C1365 C1382 1.574 . S
C1365 C1384 1.368 . S
C1365 H1389 0.949 . S
H1366 C1370 0.949 . S
C1367 C1368 1.349 . S
C1367 C1369 1.327 . S
C1367 H1390 0.950 . S
C1368 C1367 1.349 . S
C1368 C1380 1.349 . S
C1369 C1367 1.327 . S
C1369 C1385 1.429 . S
C1369 H1391 0.950 . S
C1370 H1366 0.949 . S
C1370 C1378 1.574 . S
C1370 C1386 1.368 . S
H1371 C1379 0.950 . S
H1372 C1377 0.950 . S
H1373 C1378 0.949 . S
H1374 C1380 0.950 . S
H1375 C1381 0.950 . S
H1376 C1382 0.949 . S
C1377 H1372 0.950 . S
C1377 C1379 1.327 . S
C1377 C1383 1.429 . S
C1378 C1370 1.574 . S
C1378 H1373 0.949 . S
C1378 C1384 1.368 . S
C1379 C1363 1.349 . S
C1379 H1371 0.950 . S
C1379 C1377 1.327 . S
C1380 C1368 1.349 . S
C1380 H1374 0.950 . S
C1380 C1381 1.327 . S
C1381 H1375 0.950 . S
C1381 C1380 1.327 . S
C1381 C1385 1.429 . S
C1382 C1365 1.574 . S
C1382 H1376 0.949 . S
C1382 C1386 1.368 . S
C1383 C1364 1.429 . S
C1383 C1377 1.429 . S
C1383 C1384 1.523 . S
C1384 C1365 1.368 . S
C1384 C1378 1.368 . S
C1384 C1383 1.523 . S
C1385 C1369 1.429 . S
C1385 C1381 1.429 . S
C1385 C1386 1.523 . S
C1386 C1370 1.368 . S
C1386 C1382 1.368 . S
C1386 C1385 1.523 . S
H1387 C1362 0.950 . S
H1388 C1364 0.950 . S
H1389 C1365 0.949 . S
H1390 C1367 0.950 . S
H1391 C1369 0.950 . S
C1392 C1393 1.349 . S
C1392 C1394 1.327 . S
C1392 H1417 0.950 . S
C1393 C1392 1.349 . S
C1393 C1409 1.349 . S
C1394 C1392 1.327 . S
C1394 C1413 1.429 . S
C1394 H1418 0.950 . S
C1395 C1412 1.574 . S
C1395 C1414 1.368 . S
C1395 H1419 0.949 . S
H1396 C1400 0.949 . S
C1397 C1398 1.349 . S
C1397 C1399 1.327 . S
C1397 H1420 0.950 . S
C1398 C1397 1.349 . S
C1398 C1410 1.349 . S
C1399 C1397 1.327 . S
C1399 C1415 1.429 . S
C1399 H1421 0.950 . S
C1400 H1396 0.949 . S
C1400 C1408 1.574 . S
C1400 C1416 1.368 . S
H1401 C1409 0.950 . S
H1402 C1407 0.950 . S
H1403 C1408 0.949 . S
H1404 C1410 0.950 . S
H1405 C1411 0.950 . S
H1406 C1412 0.949 . S
C1407 H1402 0.950 . S
C1407 C1409 1.327 . S
C1407 C1413 1.429 . S
C1408 C1400 1.574 . S
C1408 H1403 0.949 . S
C1408 C1414 1.368 . S
C1409 C1393 1.349 . S
C1409 H1401 0.950 . S
C1409 C1407 1.327 . S
C1410 C1398 1.349 . S
C1410 H1404 0.950 . S
C1410 C1411 1.327 . S
C1411 H1405 0.950 . S
C1411 C1410 1.327 . S
C1411 C1415 1.429 . S
C1412 C1395 1.574 . S
C1412 H1406 0.949 . S
C1412 C1416 1.368 . S
C1413 C1394 1.429 . S
C1413 C1407 1.429 . S
C1413 C1414 1.523 . S
C1414 C1395 1.368 . S
C1414 C1408 1.368 . S
C1414 C1413 1.523 . S
C1415 C1399 1.429 . S
C1415 C1411 1.429 . S
C1415 C1416 1.523 . S
C1416 C1400 1.368 . S
C1416 C1412 1.368 . S
C1416 C1415 1.523 . S
H1417 C1392 0.950 . S
H1418 C1394 0.950 . S
H1419 C1395 0.949 . S
H1420 C1397 0.950 . S
H1421 C1399 0.950 . S
C1422 C1423 1.349 . S
C1422 C1424 1.327 . S
C1422 H1447 0.950 . S
C1423 C1422 1.349 . S
C1423 C1439 1.349 . S
C1424 C1422 1.327 . S
C1424 C1443 1.429 . S
C1424 H1448 0.950 . S
C1425 C1442 1.574 . S
C1425 C1444 1.368 . S
C1425 H1449 0.949 . S
H1426 C1430 0.949 . S
C1427 C1428 1.349 . S
C1427 C1429 1.327 . S
C1427 H1450 0.950 . S
C1428 C1427 1.349 . S
C1428 C1440 1.349 . S
C1429 C1427 1.327 . S
C1429 C1445 1.429 . S
C1429 H1451 0.950 . S
C1430 H1426 0.949 . S
C1430 C1438 1.574 . S
C1430 C1446 1.368 . S
H1431 C1439 0.950 . S
H1432 C1437 0.950 . S
H1433 C1438 0.949 . S
H1434 C1440 0.950 . S
H1435 C1441 0.950 . S
H1436 C1442 0.949 . S
C1437 H1432 0.950 . S
C1437 C1439 1.327 . S
C1437 C1443 1.429 . S
C1438 C1430 1.574 . S
C1438 H1433 0.949 . S
C1438 C1444 1.368 . S
C1439 C1423 1.349 . S
C1439 H1431 0.950 . S
C1439 C1437 1.327 . S
C1440 C1428 1.349 . S
C1440 H1434 0.950 . S
C1440 C1441 1.327 . S
C1441 H1435 0.950 . S
C1441 C1440 1.327 . S
C1441 C1445 1.429 . S
C1442 C1425 1.574 . S
C1442 H1436 0.949 . S
C1442 C1446 1.368 . S
C1443 C1424 1.429 . S
C1443 C1437 1.429 . S
C1443 C1444 1.523 . S
C1444 C1425 1.368 . S
C1444 C1438 1.368 . S
C1444 C1443 1.523 . S
C1445 C1429 1.429 . S
C1445 C1441 1.429 . S
C1445 C1446 1.523 . S
C1446 C1430 1.368 . S
C1446 C1442 1.368 . S
C1446 C1445 1.523 . S
H1447 C1422 0.950 . S
H1448 C1424 0.950 . S
H1449 C1425 0.949 . S
H1450 C1427 0.950 . S
H1451 C1429 0.950 . S
C1452 C1453 1.349 . S
C1452 C1454 1.327 . S
C1452 H1477 0.950 . S
C1453 C1452 1.349 . S
C1453 C1469 1.349 . S
C1454 C1452 1.327 . S
C1454 C1473 1.429 . S
C1454 H1478 0.950 . S
C1455 C1472 1.574 . S
C1455 C1474 1.368 . S
C1455 H1479 0.949 . S
H1456 C1460 0.949 . S
C1457 C1458 1.349 . S
C1457 C1459 1.327 . S
C1457 H1480 0.950 . S
C1458 C1457 1.349 . S
C1458 C1470 1.349 . S
C1459 C1457 1.327 . S
C1459 C1475 1.429 . S
C1459 H1481 0.950 . S
C1460 H1456 0.949 . S
C1460 C1468 1.574 . S
C1460 C1476 1.368 . S
H1461 C1469 0.950 . S
H1462 C1467 0.950 . S
H1463 C1468 0.949 . S
H1464 C1470 0.950 . S
H1465 C1471 0.950 . S
H1466 C1472 0.949 . S
C1467 H1462 0.950 . S
C1467 C1469 1.327 . S
C1467 C1473 1.429 . S
C1468 C1460 1.574 . S
C1468 H1463 0.949 . S
C1468 C1474 1.368 . S
C1469 C1453 1.349 . S
C1469 H1461 0.950 . S
C1469 C1467 1.327 . S
C1470 C1458 1.349 . S
C1470 H1464 0.950 . S
C1470 C1471 1.327 . S
C1471 H1465 0.950 . S
C1471 C1470 1.327 . S
C1471 C1475 1.429 . S
C1472 C1455 1.574 . S
C1472 H1466 0.949 . S
C1472 C1476 1.368 . S
C1473 C1454 1.429 . S
C1473 C1467 1.429 . S
C1473 C1474 1.523 . S
C1474 C1455 1.368 . S
C1474 C1468 1.368 . S
C1474 C1473 1.523 . S
C1475 C1459 1.429 . S
C1475 C1471 1.429 . S
C1475 C1476 1.523 . S
C1476 C1460 1.368 . S
C1476 C1472 1.368 . S
C1476 C1475 1.523 . S
H1477 C1452 0.950 . S
H1478 C1454 0.950 . S
H1479 C1455 0.949 . S
H1480 C1457 0.950 . S
H1481 C1459 0.950 . S
C1482 C1483 1.349 . S
C1482 C1484 1.327 . S
C1482 H1507 0.950 . S
C1483 C1482 1.349 . S
C1483 C1499 1.349 . S
C1484 C1482 1.327 . S
C1484 C1503 1.429 . S
C1484 H1508 0.950 . S
C1485 C1502 1.574 . S
C1485 C1504 1.368 . S
C1485 H1509 0.949 . S
H1486 C1490 0.949 . S
C1487 C1488 1.349 . S
C1487 C1489 1.327 . S
C1487 H1510 0.950 . S
C1488 C1487 1.349 . S
C1488 C1500 1.349 . S
C1489 C1487 1.327 . S
C1489 C1505 1.429 . S
C1489 H1511 0.950 . S
C1490 H1486 0.949 . S
C1490 C1498 1.574 . S
C1490 C1506 1.368 . S
H1491 C1499 0.950 . S
H1492 C1497 0.950 . S
H1493 C1498 0.949 . S
H1494 C1500 0.950 . S
H1495 C1501 0.950 . S
H1496 C1502 0.949 . S
C1497 H1492 0.950 . S
C1497 C1499 1.327 . S
C1497 C1503 1.429 . S
C1498 C1490 1.574 . S
C1498 H1493 0.949 . S
C1498 C1504 1.368 . S
C1499 C1483 1.349 . S
C1499 H1491 0.950 . S
C1499 C1497 1.327 . S
C1500 C1488 1.349 . S
C1500 H1494 0.950 . S
C1500 C1501 1.327 . S
C1501 H1495 0.950 . S
C1501 C1500 1.327 . S
C1501 C1505 1.429 . S
C1502 C1485 1.574 . S
C1502 H1496 0.949 . S
C1502 C1506 1.368 . S
C1503 C1484 1.429 . S
C1503 C1497 1.429 . S
C1503 C1504 1.523 . S
C1504 C1485 1.368 . S
C1504 C1498 1.368 . S
C1504 C1503 1.523 . S
C1505 C1489 1.429 . S
C1505 C1501 1.429 . S
C1505 C1506 1.523 . S
C1506 C1490 1.368 . S
C1506 C1502 1.368 . S
C1506 C1505 1.523 . S
H1507 C1482 0.950 . S
H1508 C1484 0.950 . S
H1509 C1485 0.949 . S
H1510 C1487 0.950 . S
H1511 C1489 0.950 . S
C1512 C1513 1.349 . S
C1512 C1514 1.327 . S
C1512 H1537 0.950 . S
C1513 C1512 1.349 . S
C1513 C1529 1.349 . S
C1514 C1512 1.327 . S
C1514 C1533 1.429 . S
C1514 H1538 0.950 . S
C1515 C1532 1.574 . S
C1515 C1534 1.368 . S
C1515 H1539 0.949 . S
H1516 C1520 0.949 . S
C1517 C1518 1.349 . S
C1517 C1519 1.327 . S
C1517 H1540 0.950 . S
C1518 C1517 1.349 . S
C1518 C1530 1.349 . S
C1519 C1517 1.327 . S
C1519 C1535 1.429 . S
C1519 H1541 0.950 . S
C1520 H1516 0.949 . S
C1520 C1528 1.574 . S
C1520 C1536 1.368 . S
H1521 C1529 0.950 . S
H1522 C1527 0.950 . S
H1523 C1528 0.949 . S
H1524 C1530 0.950 . S
H1525 C1531 0.950 . S
H1526 C1532 0.949 . S
C1527 H1522 0.950 . S
C1527 C1529 1.327 . S
C1527 C1533 1.429 . S
C1528 C1520 1.574 . S
C1528 H1523 0.949 . S
C1528 C1534 1.368 . S
C1529 C1513 1.349 . S
C1529 H1521 0.950 . S
C1529 C1527 1.327 . S
C1530 C1518 1.349 . S
C1530 H1524 0.950 . S
C1530 C1531 1.327 . S
C1531 H1525 0.950 . S
C1531 C1530 1.327 . S
C1531 C1535 1.429 . S
C1532 C1515 1.574 . S
C1532 H1526 0.949 . S
C1532 C1536 1.368 . S
C1533 C1514 1.429 . S
C1533 C1527 1.429 . S
C1533 C1534 1.523 . S
C1534 C1515 1.368 . S
C1534 C1528 1.368 . S
C1534 C1533 1.523 . S
C1535 C1519 1.429 . S
C1535 C1531 1.429 . S
C1535 C1536 1.523 . S
C1536 C1520 1.368 . S
C1536 C1532 1.368 . S
C1536 C1535 1.523 . S
H1537 C1512 0.950 . S
H1538 C1514 0.950 . S
H1539 C1515 0.949 . S
H1540 C1517 0.950 . S
H1541 C1519 0.950 . S
C1542 C1543 1.349 . S
C1542 C1544 1.327 . S
C1542 H1567 0.950 . S
C1543 C1542 1.349 . S
C1543 C1559 1.349 . S
C1544 C1542 1.327 . S
C1544 C1563 1.429 . S
C1544 H1568 0.950 . S
C1545 C1562 1.574 . S
C1545 C1564 1.368 . S
C1545 H1569 0.949 . S
H1546 C1550 0.949 . S
C1547 C1548 1.349 . S
C1547 C1549 1.327 . S
C1547 H1570 0.950 . S
C1548 C1547 1.349 . S
C1548 C1560 1.349 . S
C1549 C1547 1.327 . S
C1549 C1565 1.429 . S
C1549 H1571 0.950 . S
C1550 H1546 0.949 . S
C1550 C1558 1.574 . S
C1550 C1566 1.368 . S
H1551 C1559 0.950 . S
H1552 C1557 0.950 . S
H1553 C1558 0.949 . S
H1554 C1560 0.950 . S
H1555 C1561 0.950 . S
H1556 C1562 0.949 . S
C1557 H1552 0.950 . S
C1557 C1559 1.327 . S
C1557 C1563 1.429 . S
C1558 C1550 1.574 . S
C1558 H1553 0.949 . S
C1558 C1564 1.368 . S
C1559 C1543 1.349 . S
C1559 H1551 0.950 . S
C1559 C1557 1.327 . S
C1560 C1548 1.349 . S
C1560 H1554 0.950 . S
C1560 C1561 1.327 . S
C1561 H1555 0.950 . S
C1561 C1560 1.327 . S
C1561 C1565 1.429 . S
C1562 C1545 1.574 . S
C1562 H1556 0.949 . S
C1562 C1566 1.368 . S
C1563 C1544 1.429 . S
C1563 C1557 1.429 . S
C1563 C1564 1.523 . S
C1564 C1545 1.368 . S
C1564 C1558 1.368 . S
C1564 C1563 1.523 . S
C1565 C1549 1.429 . S
C1565 C1561 1.429 . S
C1565 C1566 1.523 . S
C1566 C1550 1.368 . S
C1566 C1562 1.368 . S
C1566 C1565 1.523 . S
H1567 C1542 0.950 . S
H1568 C1544 0.950 . S
H1569 C1545 0.949 . S
H1570 C1547 0.950 . S
H1571 C1549 0.950 . S
C1572 C1573 1.349 . S
C1572 C1574 1.327 . S
C1572 H1597 0.950 . S
C1573 C1572 1.349 . S
C1573 C1589 1.349 . S
C1574 C1572 1.327 . S
C1574 C1593 1.429 . S
C1574 H1598 0.950 . S
C1575 C1592 1.574 . S
C1575 C1594 1.368 . S
C1575 H1599 0.949 . S
H1576 C1580 0.949 . S
C1577 C1578 1.349 . S
C1577 C1579 1.327 . S
C1577 H1600 0.950 . S
C1578 C1577 1.349 . S
C1578 C1590 1.349 . S
C1579 C1577 1.327 . S
C1579 C1595 1.429 . S
C1579 H1601 0.950 . S
C1580 H1576 0.949 . S
C1580 C1588 1.574 . S
C1580 C1596 1.368 . S
H1581 C1589 0.950 . S
H1582 C1587 0.950 . S
H1583 C1588 0.949 . S
H1584 C1590 0.950 . S
H1585 C1591 0.950 . S
H1586 C1592 0.949 . S
C1587 H1582 0.950 . S
C1587 C1589 1.327 . S
C1587 C1593 1.429 . S
C1588 C1580 1.574 . S
C1588 H1583 0.949 . S
C1588 C1594 1.368 . S
C1589 C1573 1.349 . S
C1589 H1581 0.950 . S
C1589 C1587 1.327 . S
C1590 C1578 1.349 . S
C1590 H1584 0.950 . S
C1590 C1591 1.327 . S
C1591 H1585 0.950 . S
C1591 C1590 1.327 . S
C1591 C1595 1.429 . S
C1592 C1575 1.574 . S
C1592 H1586 0.949 . S
C1592 C1596 1.368 . S
C1593 C1574 1.429 . S
C1593 C1587 1.429 . S
C1593 C1594 1.523 . S
C1594 C1575 1.368 . S
C1594 C1588 1.368 . S
C1594 C1593 1.523 . S
C1595 C1579 1.429 . S
C1595 C1591 1.429 . S
C1595 C1596 1.523 . S
C1596 C1580 1.368 . S
C1596 C1592 1.368 . S
C1596 C1595 1.523 . S
H1597 C1572 0.950 . S
H1598 C1574 0.950 . S
H1599 C1575 0.949 . S
H1600 C1577 0.950 . S
H1601 C1579 0.950 . S
C1602 C1603 1.349 . S
C1602 C1604 1.327 . S
C1602 H1627 0.950 . S
C1603 C1602 1.349 . S
C1603 C1619 1.349 . S
C1604 C1602 1.327 . S
C1604 C1623 1.429 . S
C1604 H1628 0.950 . S
C1605 C1622 1.574 . S
C1605 C1624 1.368 . S
C1605 H1629 0.949 . S
H1606 C1610 0.949 . S
C1607 C1608 1.349 . S
C1607 C1609 1.327 . S
C1607 H1630 0.950 . S
C1608 C1607 1.349 . S
C1608 C1620 1.349 . S
C1609 C1607 1.327 . S
C1609 C1625 1.429 . S
C1609 H1631 0.950 . S
C1610 H1606 0.949 . S
C1610 C1618 1.574 . S
C1610 C1626 1.368 . S
H1611 C1619 0.950 . S
H1612 C1617 0.950 . S
H1613 C1618 0.949 . S
H1614 C1620 0.950 . S
H1615 C1621 0.950 . S
H1616 C1622 0.949 . S
C1617 H1612 0.950 . S
C1617 C1619 1.327 . S
C1617 C1623 1.429 . S
C1618 C1610 1.574 . S
C1618 H1613 0.949 . S
C1618 C1624 1.368 . S
C1619 C1603 1.349 . S
C1619 H1611 0.950 . S
C1619 C1617 1.327 . S
C1620 C1608 1.349 . S
C1620 H1614 0.950 . S
C1620 C1621 1.327 . S
C1621 H1615 0.950 . S
C1621 C1620 1.327 . S
C1621 C1625 1.429 . S
C1622 C1605 1.574 . S
C1622 H1616 0.949 . S
C1622 C1626 1.368 . S
C1623 C1604 1.429 . S
C1623 C1617 1.429 . S
C1623 C1624 1.523 . S
C1624 C1605 1.368 . S
C1624 C1618 1.368 . S
C1624 C1623 1.523 . S
C1625 C1609 1.429 . S
C1625 C1621 1.429 . S
C1625 C1626 1.523 . S
C1626 C1610 1.368 . S
C1626 C1622 1.368 . S
C1626 C1625 1.523 . S
H1627 C1602 0.950 . S
H1628 C1604 0.950 . S
H1629 C1605 0.949 . S
H1630 C1607 0.950 . S
H1631 C1609 0.950 . S
C1632 C1633 1.349 . S
C1632 C1634 1.327 . S
C1632 H1657 0.950 . S
C1633 C1632 1.349 . S
C1633 C1649 1.349 . S
C1634 C1632 1.327 . S
C1634 C1653 1.429 . S
C1634 H1658 0.950 . S
C1635 C1652 1.574 1_455 S
C1635 C1654 1.368 . S
C1635 H1659 0.949 . S
H1636 C1640 0.949 . S
C1637 C1638 1.349 . S
C1637 C1639 1.327 . S
C1637 H1660 0.950 . S
C1638 C1637 1.349 . S
C1638 C1650 1.349 . S
C1639 C1637 1.327 . S
C1639 C1655 1.429 . S
C1639 H1661 0.950 . S
C1640 H1636 0.949 . S
C1640 C1648 1.574 1_655 S
C1640 C1656 1.368 . S
H1641 C1649 0.950 . S
H1642 C1647 0.950 . S
H1643 C1648 0.949 . S
H1644 C1650 0.950 . S
H1645 C1651 0.950 . S
H1646 C1652 0.949 . S
C1647 H1642 0.950 . S
C1647 C1649 1.327 . S
C1647 C1653 1.429 . S
C1648 C1640 1.574 1_455 S
C1648 H1643 0.949 . S
C1648 C1654 1.368 . S
C1649 C1633 1.349 . S
C1649 H1641 0.950 . S
C1649 C1647 1.327 . S
C1650 C1638 1.349 . S
C1650 H1644 0.950 . S
C1650 C1651 1.327 . S
C1651 H1645 0.950 . S
C1651 C1650 1.327 . S
C1651 C1655 1.429 . S
C1652 C1635 1.574 1_655 S
C1652 H1646 0.949 . S
C1652 C1656 1.368 . S
C1653 C1634 1.429 . S
C1653 C1647 1.429 . S
C1653 C1654 1.523 . S
C1654 C1635 1.368 . S
C1654 C1648 1.368 . S
C1654 C1653 1.523 . S
C1655 C1639 1.429 . S
C1655 C1651 1.429 . S
C1655 C1656 1.523 . S
C1656 C1640 1.368 . S
C1656 C1652 1.368 . S
C1656 C1655 1.523 . S
H1657 C1632 0.950 . S
H1658 C1634 0.950 . S
H1659 C1635 0.949 . S
H1660 C1637 0.950 . S
H1661 C1639 0.950 . S
C1662 C1663 1.349 . S
C1662 C1664 1.327 . S
C1662 H1687 0.950 . S
C1663 C1662 1.349 . S
C1663 C1679 1.349 . S
C1664 C1662 1.327 . S
C1664 C1683 1.429 . S
C1664 H1688 0.950 . S
C1665 C1682 1.574 . S
C1665 C1684 1.368 . S
C1665 H1689 0.949 . S
H1666 C1670 0.949 . S
C1667 C1668 1.349 . S
C1667 C1669 1.327 . S
C1667 H1690 0.950 . S
C1668 C1667 1.349 . S
C1668 C1680 1.349 . S
C1669 C1667 1.327 . S
C1669 C1685 1.429 . S
C1669 H1691 0.950 . S
C1670 H1666 0.949 . S
C1670 C1678 1.574 . S
C1670 C1686 1.368 . S
H1671 C1679 0.950 . S
H1672 C1677 0.950 . S
H1673 C1678 0.949 . S
H1674 C1680 0.950 . S
H1675 C1681 0.950 . S
H1676 C1682 0.949 . S
C1677 H1672 0.950 . S
C1677 C1679 1.327 . S
C1677 C1683 1.429 . S
C1678 C1670 1.574 . S
C1678 H1673 0.949 . S
C1678 C1684 1.368 . S
C1679 C1663 1.349 . S
C1679 H1671 0.950 . S
C1679 C1677 1.327 . S
C1680 C1668 1.349 . S
C1680 H1674 0.950 . S
C1680 C1681 1.327 . S
C1681 H1675 0.950 . S
C1681 C1680 1.327 . S
C1681 C1685 1.429 . S
C1682 C1665 1.574 . S
C1682 H1676 0.949 . S
C1682 C1686 1.368 . S
C1683 C1664 1.429 . S
C1683 C1677 1.429 . S
C1683 C1684 1.523 . S
C1684 C1665 1.368 . S
C1684 C1678 1.368 . S
C1684 C1683 1.523 . S
C1685 C1669 1.429 . S
C1685 C1681 1.429 . S
C1685 C1686 1.523 . S
C1686 C1670 1.368 . S
C1686 C1682 1.368 . S
C1686 C1685 1.523 . S
H1687 C1662 0.950 . S
H1688 C1664 0.950 . S
H1689 C1665 0.949 . S
H1690 C1667 0.950 . S
H1691 C1669 0.950 . S
C1692 C1693 1.349 . S
C1692 C1694 1.327 . S
C1692 H1717 0.950 . S
C1693 C1692 1.349 . S
C1693 C1709 1.349 . S
C1694 C1692 1.327 . S
C1694 C1713 1.429 . S
C1694 H1718 0.950 . S
C1695 C1712 1.574 . S
C1695 C1714 1.368 . S
C1695 H1719 0.949 . S
H1696 C1700 0.949 . S
C1697 C1698 1.349 . S
C1697 C1699 1.327 . S
C1697 H1720 0.950 . S
C1698 C1697 1.349 . S
C1698 C1710 1.349 . S
C1699 C1697 1.327 . S
C1699 C1715 1.429 . S
C1699 H1721 0.950 . S
C1700 H1696 0.949 . S
C1700 C1708 1.574 . S
C1700 C1716 1.368 . S
H1701 C1709 0.950 . S
H1702 C1707 0.950 . S
H1703 C1708 0.949 . S
H1704 C1710 0.950 . S
H1705 C1711 0.950 . S
H1706 C1712 0.949 . S
C1707 H1702 0.950 . S
C1707 C1709 1.327 . S
C1707 C1713 1.429 . S
C1708 C1700 1.574 . S
C1708 H1703 0.949 . S
C1708 C1714 1.368 . S
C1709 C1693 1.349 . S
C1709 H1701 0.950 . S
C1709 C1707 1.327 . S
C1710 C1698 1.349 . S
C1710 H1704 0.950 . S
C1710 C1711 1.327 . S
C1711 H1705 0.950 . S
C1711 C1710 1.327 . S
C1711 C1715 1.429 . S
C1712 C1695 1.574 . S
C1712 H1706 0.949 . S
C1712 C1716 1.368 . S
C1713 C1694 1.429 . S
C1713 C1707 1.429 . S
C1713 C1714 1.523 . S
C1714 C1695 1.368 . S
C1714 C1708 1.368 . S
C1714 C1713 1.523 . S
C1715 C1699 1.429 . S
C1715 C1711 1.429 . S
C1715 C1716 1.523 . S
C1716 C1700 1.368 . S
C1716 C1712 1.368 . S
C1716 C1715 1.523 . S
H1717 C1692 0.950 . S
H1718 C1694 0.950 . S
H1719 C1695 0.949 . S
H1720 C1697 0.950 . S
H1721 C1699 0.950 . S
C1722 C1723 1.349 . S
C1722 C1724 1.327 . S
C1722 H1747 0.950 . S
C1723 C1722 1.349 . S
C1723 C1739 1.349 . S
C1724 C1722 1.327 . S
C1724 C1743 1.429 . S
C1724 H1748 0.950 . S
C1725 C1742 1.574 . S
C1725 C1744 1.368 . S
C1725 H1749 0.949 . S
H1726 C1730 0.949 . S
C1727 C1728 1.349 . S
C1727 C1729 1.327 . S
C1727 H1750 0.950 . S
C1728 C1727 1.349 . S
C1728 C1740 1.349 . S
C1729 C1727 1.327 . S
C1729 C1745 1.429 . S
C1729 H1751 0.950 . S
C1730 H1726 0.949 . S
C1730 C1738 1.574 . S
C1730 C1746 1.368 . S
H1731 C1739 0.950 . S
H1732 C1737 0.950 . S
H1733 C1738 0.949 . S
H1734 C1740 0.950 . S
H1735 C1741 0.950 . S
H1736 C1742 0.949 . S
C1737 H1732 0.950 . S
C1737 C1739 1.327 . S
C1737 C1743 1.429 . S
C1738 C1730 1.574 . S
C1738 H1733 0.949 . S
C1738 C1744 1.368 . S
C1739 C1723 1.349 . S
C1739 H1731 0.950 . S
C1739 C1737 1.327 . S
C1740 C1728 1.349 . S
C1740 H1734 0.950 . S
C1740 C1741 1.327 . S
C1741 H1735 0.950 . S
C1741 C1740 1.327 . S
C1741 C1745 1.429 . S
C1742 C1725 1.574 . S
C1742 H1736 0.949 . S
C1742 C1746 1.368 . S
C1743 C1724 1.429 . S
C1743 C1737 1.429 . S
C1743 C1744 1.523 . S
C1744 C1725 1.368 . S
C1744 C1738 1.368 . S
C1744 C1743 1.523 . S
C1745 C1729 1.429 . S
C1745 C1741 1.429 . S
C1745 C1746 1.523 . S
C1746 C1730 1.368 . S
C1746 C1742 1.368 . S
C1746 C1745 1.523 . S
H1747 C1722 0.950 . S
H1748 C1724 0.950 . S
H1749 C1725 0.949 . S
H1750 C1727 0.950 . S
H1751 C1729 0.950 . S
C1752 C1753 1.349 . S
C1752 C1754 1.327 . S
C1752 H1777 0.950 . S
C1753 C1752 1.349 . S
C1753 C1769 1.349 . S
C1754 C1752 1.327 . S
C1754 C1773 1.429 . S
C1754 H1778 0.950 . S
C1755 C1772 1.574 1_655 S
C1755 C1774 1.368 . S
C1755 H1779 0.949 . S
H1756 C1760 0.949 . S
C1757 C1758 1.349 . S
C1757 C1759 1.327 . S
C1757 H1780 0.950 . S
C1758 C1757 1.349 . S
C1758 C1770 1.349 . S
C1759 C1757 1.327 . S
C1759 C1775 1.429 . S
C1759 H1781 0.950 . S
C1760 H1756 0.949 . S
C1760 C1768 1.574 1_455 S
C1760 C1776 1.368 . S
H1761 C1769 0.950 . S
H1762 C1767 0.950 . S
H1763 C1768 0.949 . S
H1764 C1770 0.950 . S
H1765 C1771 0.950 . S
H1766 C1772 0.949 . S
C1767 H1762 0.950 . S
C1767 C1769 1.327 . S
C1767 C1773 1.429 . S
C1768 C1760 1.574 1_655 S
C1768 H1763 0.949 . S
C1768 C1774 1.368 . S
C1769 C1753 1.349 . S
C1769 H1761 0.950 . S
C1769 C1767 1.327 . S
C1770 C1758 1.349 . S
C1770 H1764 0.950 . S
C1770 C1771 1.327 . S
C1771 H1765 0.950 . S
C1771 C1770 1.327 . S
C1771 C1775 1.429 . S
C1772 C1755 1.574 1_455 S
C1772 H1766 0.949 . S
C1772 C1776 1.368 . S
C1773 C1754 1.429 . S
C1773 C1767 1.429 . S
C1773 C1774 1.523 . S
C1774 C1755 1.368 . S
C1774 C1768 1.368 . S
C1774 C1773 1.523 . S
C1775 C1759 1.429 . S
C1775 C1771 1.429 . S
C1775 C1776 1.523 . S
C1776 C1760 1.368 . S
C1776 C1772 1.368 . S
C1776 C1775 1.523 . S
H1777 C1752 0.950 . S
H1778 C1754 0.950 . S
H1779 C1755 0.949 . S
H1780 C1757 0.950 . S
H1781 C1759 0.950 . S
C1782 C1783 1.349 . S
C1782 C1784 1.327 . S
C1782 H1807 0.950 . S
C1783 C1782 1.349 . S
C1783 C1799 1.349 . S
C1784 C1782 1.327 . S
C1784 C1803 1.429 . S
C1784 H1808 0.950 . S
C1785 C1802 1.574 . S
C1785 C1804 1.368 . S
C1785 H1809 0.949 . S
H1786 C1790 0.949 . S
C1787 C1788 1.349 . S
C1787 C1789 1.327 . S
C1787 H1810 0.950 . S
C1788 C1787 1.349 . S
C1788 C1800 1.349 . S
C1789 C1787 1.327 . S
C1789 C1805 1.429 . S
C1789 H1811 0.950 . S
C1790 H1786 0.949 . S
C1790 C1798 1.574 . S
C1790 C1806 1.368 . S
H1791 C1799 0.950 . S
H1792 C1797 0.950 . S
H1793 C1798 0.949 . S
H1794 C1800 0.950 . S
H1795 C1801 0.950 . S
H1796 C1802 0.949 . S
C1797 H1792 0.950 . S
C1797 C1799 1.327 . S
C1797 C1803 1.429 . S
C1798 C1790 1.574 . S
C1798 H1793 0.949 . S
C1798 C1804 1.368 . S
C1799 C1783 1.349 . S
C1799 H1791 0.950 . S
C1799 C1797 1.327 . S
C1800 C1788 1.349 . S
C1800 H1794 0.950 . S
C1800 C1801 1.327 . S
C1801 H1795 0.950 . S
C1801 C1800 1.327 . S
C1801 C1805 1.429 . S
C1802 C1785 1.574 . S
C1802 H1796 0.949 . S
C1802 C1806 1.368 . S
C1803 C1784 1.429 . S
C1803 C1797 1.429 . S
C1803 C1804 1.523 . S
C1804 C1785 1.368 . S
C1804 C1798 1.368 . S
C1804 C1803 1.523 . S
C1805 C1789 1.429 . S
C1805 C1801 1.429 . S
C1805 C1806 1.523 . S
C1806 C1790 1.368 . S
C1806 C1802 1.368 . S
C1806 C1805 1.523 . S
H1807 C1782 0.950 . S
H1808 C1784 0.950 . S
H1809 C1785 0.949 . S
H1810 C1787 0.950 . S
H1811 C1789 0.950 . S
C1812 C1813 1.349 . S
C1812 C1814 1.327 . S
C1812 H1837 0.950 . S
C1813 C1812 1.349 . S
C1813 C1829 1.349 . S
C1814 C1812 1.327 . S
C1814 C1833 1.429 . S
C1814 H1838 0.950 . S
C1815 C1832 1.574 . S
C1815 C1834 1.368 . S
C1815 H1839 0.949 . S
H1816 C1820 0.949 . S
C1817 C1818 1.349 . S
C1817 C1819 1.327 . S
C1817 H1840 0.950 . S
C1818 C1817 1.349 . S
C1818 C1830 1.349 . S
C1819 C1817 1.327 . S
C1819 C1835 1.429 . S
C1819 H1841 0.950 . S
C1820 H1816 0.949 . S
C1820 C1828 1.574 . S
C1820 C1836 1.368 . S
H1821 C1829 0.950 . S
H1822 C1827 0.950 . S
H1823 C1828 0.949 . S
H1824 C1830 0.950 . S
H1825 C1831 0.950 . S
H1826 C1832 0.949 . S
C1827 H1822 0.950 . S
C1827 C1829 1.327 . S
C1827 C1833 1.429 . S
C1828 C1820 1.574 . S
C1828 H1823 0.949 . S
C1828 C1834 1.368 . S
C1829 C1813 1.349 . S
C1829 H1821 0.950 . S
C1829 C1827 1.327 . S
C1830 C1818 1.349 . S
C1830 H1824 0.950 . S
C1830 C1831 1.327 . S
C1831 H1825 0.950 . S
C1831 C1830 1.327 . S
C1831 C1835 1.429 . S
C1832 C1815 1.574 . S
C1832 H1826 0.949 . S
C1832 C1836 1.368 . S
C1833 C1814 1.429 . S
C1833 C1827 1.429 . S
C1833 C1834 1.523 . S
C1834 C1815 1.368 . S
C1834 C1828 1.368 . S
C1834 C1833 1.523 . S
C1835 C1819 1.429 . S
C1835 C1831 1.429 . S
C1835 C1836 1.523 . S
C1836 C1820 1.368 . S
C1836 C1832 1.368 . S
C1836 C1835 1.523 . S
H1837 C1812 0.950 . S
H1838 C1814 0.950 . S
H1839 C1815 0.949 . S
H1840 C1817 0.950 . S
H1841 C1819 0.950 . S
C1842 C1843 1.349 . S
C1842 C1844 1.327 . S
C1842 H1867 0.950 . S
C1843 C1842 1.349 . S
C1843 C1859 1.349 . S
C1844 C1842 1.327 . S
C1844 C1863 1.429 . S
C1844 H1868 0.950 . S
C1845 C1862 1.574 . S
C1845 C1864 1.368 . S
C1845 H1869 0.949 . S
H1846 C1850 0.949 . S
C1847 C1848 1.349 . S
C1847 C1849 1.327 . S
C1847 H1870 0.950 . S
C1848 C1847 1.349 . S
C1848 C1860 1.349 . S
C1849 C1847 1.327 . S
C1849 C1865 1.429 . S
C1849 H1871 0.950 . S
C1850 H1846 0.949 . S
C1850 C1858 1.574 . S
C1850 C1866 1.368 . S
H1851 C1859 0.950 . S
H1852 C1857 0.950 . S
H1853 C1858 0.949 . S
H1854 C1860 0.950 . S
H1855 C1861 0.950 . S
H1856 C1862 0.949 . S
C1857 H1852 0.950 . S
C1857 C1859 1.327 . S
C1857 C1863 1.429 . S
C1858 C1850 1.574 . S
C1858 H1853 0.949 . S
C1858 C1864 1.368 . S
C1859 C1843 1.349 . S
C1859 H1851 0.950 . S
C1859 C1857 1.327 . S
C1860 C1848 1.349 . S
C1860 H1854 0.950 . S
C1860 C1861 1.327 . S
C1861 H1855 0.950 . S
C1861 C1860 1.327 . S
C1861 C1865 1.429 . S
C1862 C1845 1.574 . S
C1862 H1856 0.949 . S
C1862 C1866 1.368 . S
C1863 C1844 1.429 . S
C1863 C1857 1.429 . S
C1863 C1864 1.523 . S
C1864 C1845 1.368 . S
C1864 C1858 1.368 . S
C1864 C1863 1.523 . S
C1865 C1849 1.429 . S
C1865 C1861 1.429 . S
C1865 C1866 1.523 . S
C1866 C1850 1.368 . S
C1866 C1862 1.368 . S
C1866 C1865 1.523 . S
H1867 C1842 0.950 . S
H1868 C1844 0.950 . S
H1869 C1845 0.949 . S
H1870 C1847 0.950 . S
H1871 C1849 0.950 . S
C1872 C1873 1.349 . S
C1872 C1874 1.327 . S
C1872 H1897 0.950 . S
C1873 C1872 1.349 . S
C1873 C1889 1.349 . S
C1874 C1872 1.327 . S
C1874 C1893 1.429 . S
C1874 H1898 0.950 . S
C1875 C1892 1.574 . S
C1875 C1894 1.368 . S
C1875 H1899 0.949 . S
H1876 C1880 0.949 . S
C1877 C1878 1.349 . S
C1877 C1879 1.327 . S
C1877 H1900 0.950 . S
C1878 C1877 1.349 . S
C1878 C1890 1.349 . S
C1879 C1877 1.327 . S
C1879 C1895 1.429 . S
C1879 H1901 0.950 . S
C1880 H1876 0.949 . S
C1880 C1888 1.574 . S
C1880 C1896 1.368 . S
H1881 C1889 0.950 . S
H1882 C1887 0.950 . S
H1883 C1888 0.949 . S
H1884 C1890 0.950 . S
H1885 C1891 0.950 . S
H1886 C1892 0.949 . S
C1887 H1882 0.950 . S
C1887 C1889 1.327 . S
C1887 C1893 1.429 . S
C1888 C1880 1.574 . S
C1888 H1883 0.949 . S
C1888 C1894 1.368 . S
C1889 C1873 1.349 . S
C1889 H1881 0.950 . S
C1889 C1887 1.327 . S
C1890 C1878 1.349 . S
C1890 H1884 0.950 . S
C1890 C1891 1.327 . S
C1891 H1885 0.950 . S
C1891 C1890 1.327 . S
C1891 C1895 1.429 . S
C1892 C1875 1.574 . S
C1892 H1886 0.949 . S
C1892 C1896 1.368 . S
C1893 C1874 1.429 . S
C1893 C1887 1.429 . S
C1893 C1894 1.523 . S
C1894 C1875 1.368 . S
C1894 C1888 1.368 . S
C1894 C1893 1.523 . S
C1895 C1879 1.429 . S
C1895 C1891 1.429 . S
C1895 C1896 1.523 . S
C1896 C1880 1.368 . S
C1896 C1892 1.368 . S
C1896 C1895 1.523 . S
H1897 C1872 0.950 . S
H1898 C1874 0.950 . S
H1899 C1875 0.949 . S
H1900 C1877 0.950 . S
H1901 C1879 0.950 . S
C1902 C1903 1.349 . S
C1902 C1904 1.327 . S
C1902 H1927 0.950 . S
C1903 C1902 1.349 . S
C1903 C1919 1.349 . S
C1904 C1902 1.327 . S
C1904 C1923 1.429 . S
C1904 H1928 0.950 . S
C1905 C1922 1.574 . S
C1905 C1924 1.368 . S
C1905 H1929 0.949 . S
H1906 C1910 0.949 . S
C1907 C1908 1.349 . S
C1907 C1909 1.327 . S
C1907 H1930 0.950 . S
C1908 C1907 1.349 . S
C1908 C1920 1.349 . S
C1909 C1907 1.327 . S
C1909 C1925 1.429 . S
C1909 H1931 0.950 . S
C1910 H1906 0.949 . S
C1910 C1918 1.574 . S
C1910 C1926 1.368 . S
H1911 C1919 0.950 . S
H1912 C1917 0.950 . S
H1913 C1918 0.949 . S
H1914 C1920 0.950 . S
H1915 C1921 0.950 . S
H1916 C1922 0.949 . S
C1917 H1912 0.950 . S
C1917 C1919 1.327 . S
C1917 C1923 1.429 . S
C1918 C1910 1.574 . S
C1918 H1913 0.949 . S
C1918 C1924 1.368 . S
C1919 C1903 1.349 . S
C1919 H1911 0.950 . S
C1919 C1917 1.327 . S
C1920 C1908 1.349 . S
C1920 H1914 0.950 . S
C1920 C1921 1.327 . S
C1921 H1915 0.950 . S
C1921 C1920 1.327 . S
C1921 C1925 1.429 . S
C1922 C1905 1.574 . S
C1922 H1916 0.949 . S
C1922 C1926 1.368 . S
C1923 C1904 1.429 . S
C1923 C1917 1.429 . S
C1923 C1924 1.523 . S
C1924 C1905 1.368 . S
C1924 C1918 1.368 . S
C1924 C1923 1.523 . S
C1925 C1909 1.429 . S
C1925 C1921 1.429 . S
C1925 C1926 1.523 . S
C1926 C1910 1.368 . S
C1926 C1922 1.368 . S
C1926 C1925 1.523 . S
H1927 C1902 0.950 . S
H1928 C1904 0.950 . S
H1929 C1905 0.949 . S
H1930 C1907 0.950 . S
H1931 C1909 0.950 . S
C1932 C1933 1.349 . S
C1932 C1934 1.327 . S
C1932 H1957 0.950 . S
C1933 C1932 1.349 . S
C1933 C1949 1.349 . S
C1934 C1932 1.327 . S
C1934 C1953 1.429 . S
C1934 H1958 0.950 . S
C1935 C1952 1.574 . S
C1935 C1954 1.368 . S
C1935 H1959 0.949 . S
H1936 C1940 0.949 . S
C1937 C1938 1.349 . S
C1937 C1939 1.327 . S
C1937 H1960 0.950 . S
C1938 C1937 1.349 . S
C1938 C1950 1.349 . S
C1939 C1937 1.327 . S
C1939 C1955 1.429 . S
C1939 H1961 0.950 . S
C1940 H1936 0.949 . S
C1940 C1948 1.574 . S
C1940 C1956 1.368 . S
H1941 C1949 0.950 . S
H1942 C1947 0.950 . S
H1943 C1948 0.949 . S
H1944 C1950 0.950 . S
H1945 C1951 0.950 . S
H1946 C1952 0.949 . S
C1947 H1942 0.950 . S
C1947 C1949 1.327 . S
C1947 C1953 1.429 . S
C1948 C1940 1.574 . S
C1948 H1943 0.949 . S
C1948 C1954 1.368 . S
C1949 C1933 1.349 . S
C1949 H1941 0.950 . S
C1949 C1947 1.327 . S
C1950 C1938 1.349 . S
C1950 H1944 0.950 . S
C1950 C1951 1.327 . S
C1951 H1945 0.950 . S
C1951 C1950 1.327 . S
C1951 C1955 1.429 . S
C1952 C1935 1.574 . S
C1952 H1946 0.949 . S
C1952 C1956 1.368 . S
C1953 C1934 1.429 . S
C1953 C1947 1.429 . S
C1953 C1954 1.523 . S
C1954 C1935 1.368 . S
C1954 C1948 1.368 . S
C1954 C1953 1.523 . S
C1955 C1939 1.429 . S
C1955 C1951 1.429 . S
C1955 C1956 1.523 . S
C1956 C1940 1.368 . S
C1956 C1952 1.368 . S
C1956 C1955 1.523 . S
H1957 C1932 0.950 . S
H1958 C1934 0.950 . S
H1959 C1935 0.949 . S
H1960 C1937 0.950 . S
H1961 C1939 0.950 . S
C1962 C1963 1.349 . S
C1962 C1964 1.327 . S
C1962 H1987 0.950 . S
C1963 C1962 1.349 . S
C1963 C1979 1.349 . S
C1964 C1962 1.327 . S
C1964 C1983 1.429 . S
C1964 H1988 0.950 . S
C1965 C1982 1.574 . S
C1965 C1984 1.368 . S
C1965 H1989 0.949 . S
H1966 C1970 0.949 . S
C1967 C1968 1.349 . S
C1967 C1969 1.327 . S
C1967 H1990 0.950 . S
C1968 C1967 1.349 . S
C1968 C1980 1.349 . S
C1969 C1967 1.327 . S
C1969 C1985 1.429 . S
C1969 H1991 0.950 . S
C1970 H1966 0.949 . S
C1970 C1978 1.574 . S
C1970 C1986 1.368 . S
H1971 C1979 0.950 . S
H1972 C1977 0.950 . S
H1973 C1978 0.949 . S
H1974 C1980 0.950 . S
H1975 C1981 0.950 . S
H1976 C1982 0.949 . S
C1977 H1972 0.950 . S
C1977 C1979 1.327 . S
C1977 C1983 1.429 . S
C1978 C1970 1.574 . S
C1978 H1973 0.949 . S
C1978 C1984 1.368 . S
C1979 C1963 1.349 . S
C1979 H1971 0.950 . S
C1979 C1977 1.327 . S
C1980 C1968 1.349 . S
C1980 H1974 0.950 . S
C1980 C1981 1.327 . S
C1981 H1975 0.950 . S
C1981 C1980 1.327 . S
C1981 C1985 1.429 . S
C1982 C1965 1.574 . S
C1982 H1976 0.949 . S
C1982 C1986 1.368 . S
C1983 C1964 1.429 . S
C1983 C1977 1.429 . S
C1983 C1984 1.523 . S
C1984 C1965 1.368 . S
C1984 C1978 1.368 . S
C1984 C1983 1.523 . S
C1985 C1969 1.429 . S
C1985 C1981 1.429 . S
C1985 C1986 1.523 . S
C1986 C1970 1.368 . S
C1986 C1982 1.368 . S
C1986 C1985 1.523 . S
H1987 C1962 0.950 . S
H1988 C1964 0.950 . S
H1989 C1965 0.949 . S
H1990 C1967 0.950 . S
H1991 C1969 0.950 . S
C1992 C1993 1.349 . S
C1992 C1994 1.327 . S
C1992 H2017 0.950 . S
C1993 C1992 1.349 . S
C1993 C2009 1.349 . S
C1994 C1992 1.327 . S
C1994 C2013 1.429 . S
C1994 H2018 0.950 . S
C1995 C2012 1.574 . S
C1995 C2014 1.368 . S
C1995 H2019 0.949 . S
H1996 C2000 0.949 . S
C1997 C1998 1.349 . S
C1997 C1999 1.327 . S
C1997 H2020 0.950 . S
C1998 C1997 1.349 . S
C1998 C2010 1.349 . S
C1999 C1997 1.327 . S
C1999 C2015 1.429 . S
C1999 H2021 0.950 . S
C2000 H1996 0.949 . S
C2000 C2008 1.574 . S
C2000 C2016 1.368 . S
H2001 C2009 0.950 . S
H2002 C2007 0.950 . S
H2003 C2008 0.949 . S
H2004 C2010 0.950 . S
H2005 C2011 0.950 . S
H2006 C2012 0.949 . S
C2007 H2002 0.950 . S
C2007 C2009 1.327 . S
C2007 C2013 1.429 . S
C2008 C2000 1.574 . S
C2008 H2003 0.949 . S
C2008 C2014 1.368 . S
C2009 C1993 1.349 . S
C2009 H2001 0.950 . S
C2009 C2007 1.327 . S
C2010 C1998 1.349 . S
C2010 H2004 0.950 . S
C2010 C2011 1.327 . S
C2011 H2005 0.950 . S
C2011 C2010 1.327 . S
C2011 C2015 1.429 . S
C2012 C1995 1.574 . S
C2012 H2006 0.949 . S
C2012 C2016 1.368 . S
C2013 C1994 1.429 . S
C2013 C2007 1.429 . S
C2013 C2014 1.523 . S
C2014 C1995 1.368 . S
C2014 C2008 1.368 . S
C2014 C2013 1.523 . S
C2015 C1999 1.429 . S
C2015 C2011 1.429 . S
C2015 C2016 1.523 . S
C2016 C2000 1.368 . S
C2016 C2012 1.368 . S
C2016 C2015 1.523 . S
H2017 C1992 0.950 . S
H2018 C1994 0.950 . S
H2019 C1995 0.949 . S
H2020 C1997 0.950 . S
H2021 C1999 0.950 . S
C2022 C2023 1.349 . S
C2022 C2024 1.327 . S
C2022 H2047 0.950 . S
C2023 C2022 1.349 . S
C2023 C2039 1.349 . S
C2024 C2022 1.327 . S
C2024 C2043 1.429 . S
C2024 H2048 0.950 . S
C2025 C2042 1.574 1_655 S
C2025 C2044 1.368 . S
C2025 H2049 0.949 . S
H2026 C2030 0.949 . S
C2027 C2028 1.349 . S
C2027 C2029 1.327 . S
C2027 H2050 0.950 . S
C2028 C2027 1.349 . S
C2028 C2040 1.349 . S
C2029 C2027 1.327 . S
C2029 C2045 1.429 . S
C2029 H2051 0.950 . S
C2030 H2026 0.949 . S
C2030 C2038 1.574 1_455 S
C2030 C2046 1.368 . S
H2031 C2039 0.950 . S
H2032 C2037 0.950 . S
H2033 C2038 0.949 . S
H2034 C2040 0.950 . S
H2035 C2041 0.950 . S
H2036 C2042 0.949 . S
C2037 H2032 0.950 . S
C2037 C2039 1.327 . S
C2037 C2043 1.429 . S
C2038 C2030 1.574 1_655 S
C2038 H2033 0.949 . S
C2038 C2044 1.368 . S
C2039 C2023 1.349 . S
C2039 H2031 0.950 . S
C2039 C2037 1.327 . S
C2040 C2028 1.349 . S
C2040 H2034 0.950 . S
C2040 C2041 1.327 . S
C2041 H2035 0.950 . S
C2041 C2040 1.327 . S
C2041 C2045 1.429 . S
C2042 C2025 1.574 1_455 S
C2042 H2036 0.949 . S
C2042 C2046 1.368 . S
C2043 C2024 1.429 . S
C2043 C2037 1.429 . S
C2043 C2044 1.523 . S
C2044 C2025 1.368 . S
C2044 C2038 1.368 . S
C2044 C2043 1.523 . S
C2045 C2029 1.429 . S
C2045 C2041 1.429 . S
C2045 C2046 1.523 . S
C2046 C2030 1.368 . S
C2046 C2042 1.368 . S
C2046 C2045 1.523 . S
H2047 C2022 0.950 . S
H2048 C2024 0.950 . S
H2049 C2025 0.949 . S
H2050 C2027 0.950 . S
H2051 C2029 0.950 . S
C2052 C2053 1.349 . S
C2052 C2054 1.327 . S
C2052 H2077 0.950 . S
C2053 C2052 1.349 . S
C2053 C2069 1.349 . S
C2054 C2052 1.327 . S
C2054 C2073 1.429 . S
C2054 H2078 0.950 . S
C2055 C2072 1.574 . S
C2055 C2074 1.368 . S
C2055 H2079 0.949 . S
H2056 C2060 0.949 . S
C2057 C2058 1.349 . S
C2057 C2059 1.327 . S
C2057 H2080 0.950 . S
C2058 C2057 1.349 . S
C2058 C2070 1.349 . S
C2059 C2057 1.327 . S
C2059 C2075 1.429 . S
C2059 H2081 0.950 . S
C2060 H2056 0.949 . S
C2060 C2068 1.574 . S
C2060 C2076 1.368 . S
H2061 C2069 0.950 . S
H2062 C2067 0.950 . S
H2063 C2068 0.949 . S
H2064 C2070 0.950 . S
H2065 C2071 0.950 . S
H2066 C2072 0.949 . S
C2067 H2062 0.950 . S
C2067 C2069 1.327 . S
C2067 C2073 1.429 . S
C2068 C2060 1.574 . S
C2068 H2063 0.949 . S
C2068 C2074 1.368 . S
C2069 C2053 1.349 . S
C2069 H2061 0.950 . S
C2069 C2067 1.327 . S
C2070 C2058 1.349 . S
C2070 H2064 0.950 . S
C2070 C2071 1.327 . S
C2071 H2065 0.950 . S
C2071 C2070 1.327 . S
C2071 C2075 1.429 . S
C2072 C2055 1.574 . S
C2072 H2066 0.949 . S
C2072 C2076 1.368 . S
C2073 C2054 1.429 . S
C2073 C2067 1.429 . S
C2073 C2074 1.523 . S
C2074 C2055 1.368 . S
C2074 C2068 1.368 . S
C2074 C2073 1.523 . S
C2075 C2059 1.429 . S
C2075 C2071 1.429 . S
C2075 C2076 1.523 . S
C2076 C2060 1.368 . S
C2076 C2072 1.368 . S
C2076 C2075 1.523 . S
H2077 C2052 0.950 . S
H2078 C2054 0.950 . S
H2079 C2055 0.949 . S
H2080 C2057 0.950 . S
H2081 C2059 0.950 . S
C2082 C2083 1.349 . S
C2082 C2084 1.327 . S
C2082 H2107 0.950 . S
C2083 C2082 1.349 . S
C2083 C2099 1.349 . S
C2084 C2082 1.327 . S
C2084 C2103 1.429 . S
C2084 H2108 0.950 . S
C2085 C2102 1.574 1_455 S
C2085 C2104 1.368 . S
C2085 H2109 0.949 . S
H2086 C2090 0.949 . S
C2087 C2088 1.349 . S
C2087 C2089 1.327 . S
C2087 H2110 0.950 . S
C2088 C2087 1.349 . S
C2088 C2100 1.349 . S
C2089 C2087 1.327 . S
C2089 C2105 1.429 . S
C2089 H2111 0.950 . S
C2090 H2086 0.949 . S
C2090 C2098 1.574 1_655 S
C2090 C2106 1.368 . S
H2091 C2099 0.950 . S
H2092 C2097 0.950 . S
H2093 C2098 0.949 . S
H2094 C2100 0.950 . S
H2095 C2101 0.950 . S
H2096 C2102 0.949 . S
C2097 H2092 0.950 . S
C2097 C2099 1.327 . S
C2097 C2103 1.429 . S
C2098 C2090 1.574 1_455 S
C2098 H2093 0.949 . S
C2098 C2104 1.368 . S
C2099 C2083 1.349 . S
C2099 H2091 0.950 . S
C2099 C2097 1.327 . S
C2100 C2088 1.349 . S
C2100 H2094 0.950 . S
C2100 C2101 1.327 . S
C2101 H2095 0.950 . S
C2101 C2100 1.327 . S
C2101 C2105 1.429 . S
C2102 C2085 1.574 1_655 S
C2102 H2096 0.949 . S
C2102 C2106 1.368 . S
C2103 C2084 1.429 . S
C2103 C2097 1.429 . S
C2103 C2104 1.523 . S
C2104 C2085 1.368 . S
C2104 C2098 1.368 . S
C2104 C2103 1.523 . S
C2105 C2089 1.429 . S
C2105 C2101 1.429 . S
C2105 C2106 1.523 . S
C2106 C2090 1.368 . S
C2106 C2102 1.368 . S
C2106 C2105 1.523 . S
H2107 C2082 0.950 . S
H2108 C2084 0.950 . S
H2109 C2085 0.949 . S
H2110 C2087 0.950 . S
H2111 C2089 0.950 . S
C2112 C2113 1.349 . S
C2112 C2114 1.320 1_556 S
C2112 H2137 0.950 1_556 S
C2113 C2112 1.349 . S
C2113 C2129 1.349 . S
C2114 C2112 1.320 1_554 S
C2114 C2133 1.413 1_554 S
C2114 H2138 0.973 . S
C2115 C2132 1.574 . S
C2115 C2134 1.368 . S
C2115 H2139 0.949 . S
H2116 C2120 0.949 . S
C2117 C2118 1.349 . S
C2117 C2119 1.320 1_554 S
C2117 H2140 0.950 1_554 S
C2118 C2117 1.349 . S
C2118 C2130 1.349 . S
C2119 C2117 1.320 1_556 S
C2119 C2135 1.413 1_556 S
C2119 H2141 0.974 . S
C2120 H2116 0.949 . S
C2120 C2128 1.574 . S
C2120 C2136 1.368 . S
H2121 C2129 0.950 . S
H2122 C2127 0.950 . S
H2123 C2128 0.949 . S
H2124 C2130 0.950 . S
H2125 C2131 0.950 . S
H2126 C2132 0.949 . S
C2127 H2122 0.950 . S
C2127 C2129 1.327 . S
C2127 C2133 1.429 . S
C2128 C2120 1.574 . S
C2128 H2123 0.949 . S
C2128 C2134 1.368 1_554 S
C2129 C2113 1.349 . S
C2129 H2121 0.950 . S
C2129 C2127 1.327 . S
C2130 C2118 1.349 . S
C2130 H2124 0.950 . S
C2130 C2131 1.327 . S
C2131 H2125 0.950 . S
C2131 C2130 1.327 . S
C2131 C2135 1.429 . S
C2132 C2115 1.574 . S
C2132 H2126 0.949 . S
C2132 C2136 1.368 1_556 S
C2133 C2114 1.413 1_556 S
C2133 C2127 1.429 . S
C2133 C2134 1.523 . S
C2134 C2115 1.368 . S
C2134 C2128 1.368 1_556 S
C2134 C2133 1.523 . S
C2135 C2119 1.413 1_554 S
C2135 C2131 1.429 . S
C2135 C2136 1.523 . S
C2136 C2120 1.368 . S
C2136 C2132 1.368 1_554 S
C2136 C2135 1.523 . S
H2137 C2112 0.950 1_554 S
H2138 C2114 0.973 . S
H2139 C2115 0.949 . S
H2140 C2117 0.950 1_556 S
H2141 C2119 0.974 . S
C2142 C2143 1.349 . S
C2142 C2144 1.327 . S
C2142 H2167 0.950 . S
C2143 C2142 1.349 . S
C2143 C2159 1.349 . S
C2144 C2142 1.327 . S
C2144 C2163 1.429 . S
C2144 H2168 0.950 . S
C2145 C2162 1.574 . S
C2145 C2164 1.368 . S
C2145 H2169 0.949 . S
H2146 C2150 0.949 . S
C2147 C2148 1.349 . S
C2147 C2149 1.327 . S
C2147 H2170 0.950 . S
C2148 C2147 1.349 . S
C2148 C2160 1.349 . S
C2149 C2147 1.327 . S
C2149 C2165 1.429 . S
C2149 H2171 0.950 . S
C2150 H2146 0.949 . S
C2150 C2158 1.574 . S
C2150 C2166 1.368 . S
H2151 C2159 0.950 . S
H2152 C2157 0.950 . S
H2153 C2158 0.949 . S
H2154 C2160 0.950 . S
H2155 C2161 0.950 . S
H2156 C2162 0.949 . S
C2157 H2152 0.950 . S
C2157 C2159 1.327 . S
C2157 C2163 1.429 . S
C2158 C2150 1.574 . S
C2158 H2153 0.949 . S
C2158 C2164 1.368 . S
C2159 C2143 1.349 . S
C2159 H2151 0.950 . S
C2159 C2157 1.327 . S
C2160 C2148 1.349 . S
C2160 H2154 0.950 . S
C2160 C2161 1.327 . S
C2161 H2155 0.950 . S
C2161 C2160 1.327 . S
C2161 C2165 1.429 . S
C2162 C2145 1.574 . S
C2162 H2156 0.949 . S
C2162 C2166 1.368 . S
C2163 C2144 1.429 . S
C2163 C2157 1.429 . S
C2163 C2164 1.523 . S
C2164 C2145 1.368 . S
C2164 C2158 1.368 . S
C2164 C2163 1.523 . S
C2165 C2149 1.429 . S
C2165 C2161 1.429 . S
C2165 C2166 1.523 . S
C2166 C2150 1.368 . S
C2166 C2162 1.368 . S
C2166 C2165 1.523 . S
H2167 C2142 0.950 . S
H2168 C2144 0.950 . S
H2169 C2145 0.949 . S
H2170 C2147 0.950 . S
H2171 C2149 0.950 . S
C2172 C2173 1.349 . S
C2172 C2174 1.327 . S
C2172 H2197 0.950 . S
C2173 C2172 1.349 . S
C2173 C2189 1.349 . S
C2174 C2172 1.327 . S
C2174 C2193 1.429 . S
C2174 H2198 0.950 . S
C2175 C2192 1.574 . S
C2175 C2194 1.368 . S
C2175 H2199 0.949 . S
H2176 C2180 0.949 . S
C2177 C2178 1.349 . S
C2177 C2179 1.327 . S
C2177 H2200 0.950 . S
C2178 C2177 1.349 . S
C2178 C2190 1.349 . S
C2179 C2177 1.327 . S
C2179 C2195 1.429 . S
C2179 H2201 0.950 . S
C2180 H2176 0.949 . S
C2180 C2188 1.574 . S
C2180 C2196 1.368 . S
H2181 C2189 0.950 . S
H2182 C2187 0.950 . S
H2183 C2188 0.949 . S
H2184 C2190 0.950 . S
H2185 C2191 0.950 . S
H2186 C2192 0.949 . S
C2187 H2182 0.950 . S
C2187 C2189 1.327 . S
C2187 C2193 1.429 . S
C2188 C2180 1.574 . S
C2188 H2183 0.949 . S
C2188 C2194 1.368 . S
C2189 C2173 1.349 . S
C2189 H2181 0.950 . S
C2189 C2187 1.327 . S
C2190 C2178 1.349 . S
C2190 H2184 0.950 . S
C2190 C2191 1.327 . S
C2191 H2185 0.950 . S
C2191 C2190 1.327 . S
C2191 C2195 1.429 . S
C2192 C2175 1.574 . S
C2192 H2186 0.949 . S
C2192 C2196 1.368 . S
C2193 C2174 1.429 . S
C2193 C2187 1.429 . S
C2193 C2194 1.523 . S
C2194 C2175 1.368 . S
C2194 C2188 1.368 . S
C2194 C2193 1.523 . S
C2195 C2179 1.429 . S
C2195 C2191 1.429 . S
C2195 C2196 1.523 . S
C2196 C2180 1.368 . S
C2196 C2192 1.368 . S
C2196 C2195 1.523 . S
H2197 C2172 0.950 . S
H2198 C2174 0.950 . S
H2199 C2175 0.949 . S
H2200 C2177 0.950 . S
H2201 C2179 0.950 . S
C2202 C2203 1.349 . S
C2202 C2204 1.327 . S
C2202 H2227 0.950 . S
C2203 C2202 1.349 . S
C2203 C2219 1.349 . S
C2204 C2202 1.327 . S
C2204 C2223 1.429 . S
C2204 H2228 0.950 . S
C2205 C2222 1.574 . S
C2205 C2224 1.368 . S
C2205 H2229 0.949 . S
H2206 C2210 0.949 . S
C2207 C2208 1.349 . S
C2207 C2209 1.327 . S
C2207 H2230 0.950 . S
C2208 C2207 1.349 . S
C2208 C2220 1.349 . S
C2209 C2207 1.327 . S
C2209 C2225 1.429 . S
C2209 H2231 0.950 . S
C2210 H2206 0.949 . S
C2210 C2218 1.574 . S
C2210 C2226 1.368 . S
H2211 C2219 0.950 . S
H2212 C2217 0.950 . S
H2213 C2218 0.949 . S
H2214 C2220 0.950 . S
H2215 C2221 0.950 . S
H2216 C2222 0.949 . S
C2217 H2212 0.950 . S
C2217 C2219 1.327 . S
C2217 C2223 1.429 . S
C2218 C2210 1.574 . S
C2218 H2213 0.949 . S
C2218 C2224 1.368 . S
C2219 C2203 1.349 . S
C2219 H2211 0.950 . S
C2219 C2217 1.327 . S
C2220 C2208 1.349 . S
C2220 H2214 0.950 . S
C2220 C2221 1.327 . S
C2221 H2215 0.950 . S
C2221 C2220 1.327 . S
C2221 C2225 1.429 . S
C2222 C2205 1.574 . S
C2222 H2216 0.949 . S
C2222 C2226 1.368 . S
C2223 C2204 1.429 . S
C2223 C2217 1.429 . S
C2223 C2224 1.523 . S
C2224 C2205 1.368 . S
C2224 C2218 1.368 . S
C2224 C2223 1.523 . S
C2225 C2209 1.429 . S
C2225 C2221 1.429 . S
C2225 C2226 1.523 . S
C2226 C2210 1.368 . S
C2226 C2222 1.368 . S
C2226 C2225 1.523 . S
H2227 C2202 0.950 . S
H2228 C2204 0.950 . S
H2229 C2205 0.949 . S
H2230 C2207 0.950 . S
H2231 C2209 0.950 . S
C2232 C2233 1.429 . S
C2232 C2234 1.307 1_554 S
C2232 H2257 0.893 1_554 S
C2233 C2232 1.429 . S
C2233 C2249 1.349 . S
C2234 C2232 1.307 1_556 S
C2234 C2253 1.429 1_556 S
C2234 H2258 0.950 . S
C2235 C2252 1.574 . S
C2235 C2254 1.368 . S
C2235 H2259 0.949 . S
H2236 C2240 0.949 . S
C2237 C2238 1.429 . S
C2237 C2239 1.307 1_556 S
C2237 H2260 0.893 1_556 S
C2238 C2237 1.429 . S
C2238 C2250 1.349 . S
C2239 C2237 1.307 1_554 S
C2239 C2255 1.429 1_554 S
C2239 H2261 0.950 . S
C2240 H2236 0.949 . S
C2240 C2248 1.574 . S
C2240 C2256 1.368 . S
H2241 C2249 0.950 . S
H2242 C2247 0.950 . S
H2243 C2248 0.949 . S
H2244 C2250 0.950 . S
H2245 C2251 0.950 . S
H2246 C2252 0.949 . S
C2247 H2242 0.950 . S
C2247 C2249 1.327 . S
C2247 C2253 1.429 . S
C2248 C2240 1.574 . S
C2248 H2243 0.949 . S
C2248 C2254 1.368 1_556 S
C2249 C2233 1.349 . S
C2249 H2241 0.950 . S
C2249 C2247 1.327 . S
C2250 C2238 1.349 . S
C2250 H2244 0.950 . S
C2250 C2251 1.327 . S
C2251 H2245 0.950 . S
C2251 C2250 1.327 . S
C2251 C2255 1.429 . S
C2252 C2235 1.574 . S
C2252 H2246 0.949 . S
C2252 C2256 1.368 1_554 S
C2253 C2234 1.429 1_554 S
C2253 C2247 1.429 . S
C2253 C2254 1.523 . S
C2254 C2235 1.368 . S
C2254 C2248 1.368 1_554 S
C2254 C2253 1.523 . S
C2255 C2239 1.429 1_556 S
C2255 C2251 1.429 . S
C2255 C2256 1.523 . S
C2256 C2240 1.368 . S
C2256 C2252 1.368 1_556 S
C2256 C2255 1.523 . S
H2257 C2232 0.893 1_556 S
H2258 C2234 0.950 . S
H2259 C2235 0.949 . S
H2260 C2237 0.893 1_554 S
H2261 C2239 0.950 . S
C2262 C2263 1.349 . S
C2262 C2264 1.327 . S
C2262 H2287 0.950 . S
C2263 C2262 1.349 . S
C2263 C2279 1.349 . S
C2264 C2262 1.327 . S
C2264 C2283 1.429 . S
C2264 H2288 0.950 . S
C2265 C2282 1.574 . S
C2265 C2284 1.368 . S
C2265 H2289 0.949 . S
H2266 C2270 0.949 . S
C2267 C2268 1.349 . S
C2267 C2269 1.327 . S
C2267 H2290 0.950 . S
C2268 C2267 1.349 . S
C2268 C2280 1.349 . S
C2269 C2267 1.327 . S
C2269 C2285 1.429 . S
C2269 H2291 0.950 . S
C2270 H2266 0.949 . S
C2270 C2278 1.574 . S
C2270 C2286 1.368 . S
H2271 C2279 0.950 . S
H2272 C2277 0.950 . S
H2273 C2278 0.949 . S
H2274 C2280 0.950 . S
H2275 C2281 0.950 . S
H2276 C2282 0.949 . S
C2277 H2272 0.950 . S
C2277 C2279 1.327 . S
C2277 C2283 1.429 . S
C2278 C2270 1.574 . S
C2278 H2273 0.949 . S
C2278 C2284 1.368 . S
C2279 C2263 1.349 . S
C2279 H2271 0.950 . S
C2279 C2277 1.327 . S
C2280 C2268 1.349 . S
C2280 H2274 0.950 . S
C2280 C2281 1.327 . S
C2281 H2275 0.950 . S
C2281 C2280 1.327 . S
C2281 C2285 1.429 . S
C2282 C2265 1.574 . S
C2282 H2276 0.949 . S
C2282 C2286 1.368 . S
C2283 C2264 1.429 . S
C2283 C2277 1.429 . S
C2283 C2284 1.523 . S
C2284 C2265 1.368 . S
C2284 C2278 1.368 . S
C2284 C2283 1.523 . S
C2285 C2269 1.429 . S
C2285 C2281 1.429 . S
C2285 C2286 1.523 . S
C2286 C2270 1.368 . S
C2286 C2282 1.368 . S
C2286 C2285 1.523 . S
H2287 C2262 0.950 . S
H2288 C2264 0.950 . S
H2289 C2265 0.949 . S
H2290 C2267 0.950 . S
H2291 C2269 0.950 . S
C2292 C2293 1.349 . S
C2292 C2294 1.327 . S
C2292 H2317 0.950 . S
C2293 C2292 1.349 . S
C2293 C2309 1.349 . S
C2294 C2292 1.327 . S
C2294 C2313 1.429 . S
C2294 H2318 0.950 . S
C2295 C2312 1.574 . S
C2295 C2314 1.368 . S
C2295 H2319 0.949 . S
H2296 C2300 0.949 . S
C2297 C2298 1.349 . S
C2297 C2299 1.327 . S
C2297 H2320 0.950 . S
C2298 C2297 1.349 . S
C2298 C2310 1.349 . S
C2299 C2297 1.327 . S
C2299 C2315 1.429 . S
C2299 H2321 0.950 . S
C2300 H2296 0.949 . S
C2300 C2308 1.574 . S
C2300 C2316 1.368 . S
H2301 C2309 0.950 . S
H2302 C2307 0.950 . S
H2303 C2308 0.949 . S
H2304 C2310 0.950 . S
H2305 C2311 0.950 . S
H2306 C2312 0.949 . S
C2307 H2302 0.950 . S
C2307 C2309 1.327 . S
C2307 C2313 1.429 . S
C2308 C2300 1.574 . S
C2308 H2303 0.949 . S
C2308 C2314 1.368 . S
C2309 C2293 1.349 . S
C2309 H2301 0.950 . S
C2309 C2307 1.327 . S
C2310 C2298 1.349 . S
C2310 H2304 0.950 . S
C2310 C2311 1.327 . S
C2311 H2305 0.950 . S
C2311 C2310 1.327 . S
C2311 C2315 1.429 . S
C2312 C2295 1.574 . S
C2312 H2306 0.949 . S
C2312 C2316 1.368 . S
C2313 C2294 1.429 . S
C2313 C2307 1.429 . S
C2313 C2314 1.523 . S
C2314 C2295 1.368 . S
C2314 C2308 1.368 . S
C2314 C2313 1.523 . S
C2315 C2299 1.429 . S
C2315 C2311 1.429 . S
C2315 C2316 1.523 . S
C2316 C2300 1.368 . S
C2316 C2312 1.368 . S
C2316 C2315 1.523 . S
H2317 C2292 0.950 . S
H2318 C2294 0.950 . S
H2319 C2295 0.949 . S
H2320 C2297 0.950 . S
H2321 C2299 0.950 . S
C2322 C2323 1.349 . S
C2322 C2324 1.327 . S
C2322 H2347 0.950 . S
C2323 C2322 1.349 . S
C2323 C2339 1.349 . S
C2324 C2322 1.327 . S
C2324 C2343 1.429 . S
C2324 H2348 0.950 . S
C2325 C2342 1.574 . S
C2325 C2344 1.368 . S
C2325 H2349 0.949 . S
H2326 C2330 0.949 . S
C2327 C2328 1.349 . S
C2327 C2329 1.327 . S
C2327 H2350 0.950 . S
C2328 C2327 1.349 . S
C2328 C2340 1.349 . S
C2329 C2327 1.327 . S
C2329 C2345 1.429 . S
C2329 H2351 0.950 . S
C2330 H2326 0.949 . S
C2330 C2338 1.574 . S
C2330 C2346 1.368 . S
H2331 C2339 0.950 . S
H2332 C2337 0.950 . S
H2333 C2338 0.949 . S
H2334 C2340 0.950 . S
H2335 C2341 0.950 . S
H2336 C2342 0.949 . S
C2337 H2332 0.950 . S
C2337 C2339 1.327 . S
C2337 C2343 1.429 . S
C2338 C2330 1.574 . S
C2338 H2333 0.949 . S
C2338 C2344 1.368 . S
C2339 C2323 1.349 . S
C2339 H2331 0.950 . S
C2339 C2337 1.327 . S
C2340 C2328 1.349 . S
C2340 H2334 0.950 . S
C2340 C2341 1.327 . S
C2341 H2335 0.950 . S
C2341 C2340 1.327 . S
C2341 C2345 1.429 . S
C2342 C2325 1.574 . S
C2342 H2336 0.949 . S
C2342 C2346 1.368 . S
C2343 C2324 1.429 . S
C2343 C2337 1.429 . S
C2343 C2344 1.523 . S
C2344 C2325 1.368 . S
C2344 C2338 1.368 . S
C2344 C2343 1.523 . S
C2345 C2329 1.429 . S
C2345 C2341 1.429 . S
C2345 C2346 1.523 . S
C2346 C2330 1.368 . S
C2346 C2342 1.368 . S
C2346 C2345 1.523 . S
H2347 C2322 0.950 . S
H2348 C2324 0.950 . S
H2349 C2325 0.949 . S
H2350 C2327 0.950 . S
H2351 C2329 0.950 . S
C2352 C2353 1.349 . S
C2352 C2354 1.327 . S
C2352 H2377 0.950 . S
C2353 C2352 1.349 . S
C2353 C2369 1.349 . S
C2354 C2352 1.327 . S
C2354 C2373 1.429 . S
C2354 H2378 0.950 . S
C2355 C2372 1.574 1_545 S
C2355 C2374 1.368 . S
C2355 H2379 0.949 . S
H2356 C2360 0.949 . S
C2357 C2358 1.349 . S
C2357 C2359 1.327 . S
C2357 H2380 0.950 . S
C2358 C2357 1.349 . S
C2358 C2370 1.349 . S
C2359 C2357 1.327 . S
C2359 C2375 1.429 . S
C2359 H2381 0.950 . S
C2360 H2356 0.949 . S
C2360 C2368 1.574 1_565 S
C2360 C2376 1.368 . S
H2361 C2369 0.950 . S
H2362 C2367 0.950 . S
H2363 C2368 0.949 . S
H2364 C2370 0.950 . S
H2365 C2371 0.950 . S
H2366 C2372 0.949 . S
C2367 H2362 0.950 . S
C2367 C2369 1.327 . S
C2367 C2373 1.429 . S
C2368 C2360 1.574 1_545 S
C2368 H2363 0.949 . S
C2368 C2374 1.368 . S
C2369 C2353 1.349 . S
C2369 H2361 0.950 . S
C2369 C2367 1.327 . S
C2370 C2358 1.349 . S
C2370 H2364 0.950 . S
C2370 C2371 1.327 . S
C2371 H2365 0.950 . S
C2371 C2370 1.327 . S
C2371 C2375 1.429 . S
C2372 C2355 1.574 1_565 S
C2372 H2366 0.949 . S
C2372 C2376 1.368 . S
C2373 C2354 1.429 . S
C2373 C2367 1.429 . S
C2373 C2374 1.523 . S
C2374 C2355 1.368 . S
C2374 C2368 1.368 . S
C2374 C2373 1.523 . S
C2375 C2359 1.429 . S
C2375 C2371 1.429 . S
C2375 C2376 1.523 . S
C2376 C2360 1.368 . S
C2376 C2372 1.368 . S
C2376 C2375 1.523 . S
H2377 C2352 0.950 . S
H2378 C2354 0.950 . S
H2379 C2355 0.949 . S
H2380 C2357 0.950 . S
H2381 C2359 0.950 . S
C2382 C2383 1.349 . S
C2382 C2384 1.327 . S
C2382 H2407 0.950 . S
C2383 C2382 1.349 . S
C2383 C2399 1.349 . S
C2384 C2382 1.327 . S
C2384 C2403 1.429 . S
C2384 H2408 0.950 . S
C2385 C2402 1.574 . S
C2385 C2404 1.368 . S
C2385 H2409 0.949 . S
H2386 C2390 0.949 . S
C2387 C2388 1.349 . S
C2387 C2389 1.327 . S
C2387 H2410 0.950 . S
C2388 C2387 1.349 . S
C2388 C2400 1.349 . S
C2389 C2387 1.327 . S
C2389 C2405 1.429 . S
C2389 H2411 0.950 . S
C2390 H2386 0.949 . S
C2390 C2398 1.574 . S
C2390 C2406 1.368 . S
H2391 C2399 0.950 . S
H2392 C2397 0.950 . S
H2393 C2398 0.949 . S
H2394 C2400 0.950 . S
H2395 C2401 0.950 . S
H2396 C2402 0.949 . S
C2397 H2392 0.950 . S
C2397 C2399 1.327 . S
C2397 C2403 1.429 . S
C2398 C2390 1.574 . S
C2398 H2393 0.949 . S
C2398 C2404 1.368 . S
C2399 C2383 1.349 . S
C2399 H2391 0.950 . S
C2399 C2397 1.327 . S
C2400 C2388 1.349 . S
C2400 H2394 0.950 . S
C2400 C2401 1.327 . S
C2401 H2395 0.950 . S
C2401 C2400 1.327 . S
C2401 C2405 1.429 . S
C2402 C2385 1.574 . S
C2402 H2396 0.949 . S
C2402 C2406 1.368 . S
C2403 C2384 1.429 . S
C2403 C2397 1.429 . S
C2403 C2404 1.523 . S
C2404 C2385 1.368 . S
C2404 C2398 1.368 . S
C2404 C2403 1.523 . S
C2405 C2389 1.429 . S
C2405 C2401 1.429 . S
C2405 C2406 1.523 . S
C2406 C2390 1.368 . S
C2406 C2402 1.368 . S
C2406 C2405 1.523 . S
H2407 C2382 0.950 . S
H2408 C2384 0.950 . S
H2409 C2385 0.949 . S
H2410 C2387 0.950 . S
H2411 C2389 0.950 . S
C2412 C2413 1.349 . S
C2412 C2414 1.315 1_554 S
C2412 H2437 0.950 1_554 S
C2413 C2412 1.349 . S
C2413 C2429 1.349 . S
C2414 C2412 1.315 1_556 S
C2414 C2433 1.402 1_556 S
C2414 H2438 0.991 . S
C2415 C2432 1.574 1_565 S
C2415 C2434 1.368 . S
C2415 H2439 0.949 . S
H2416 C2420 0.949 . S
C2417 C2418 1.349 . S
C2417 C2419 1.315 1_556 S
C2417 H2440 0.950 1_556 S
C2418 C2417 1.349 . S
C2418 C2430 1.349 . S
C2419 C2417 1.315 1_554 S
C2419 C2435 1.402 1_554 S
C2419 H2441 0.991 . S
C2420 H2416 0.949 . S
C2420 C2428 1.574 1_545 S
C2420 C2436 1.368 . S
H2421 C2429 0.950 . S
H2422 C2427 0.950 . S
H2423 C2428 0.949 . S
H2424 C2430 0.950 . S
H2425 C2431 0.950 . S
H2426 C2432 0.949 . S
C2427 H2422 0.950 . S
C2427 C2429 1.327 . S
C2427 C2433 1.429 . S
C2428 C2420 1.574 1_565 S
C2428 H2423 0.949 . S
C2428 C2434 1.368 1_556 S
C2429 C2413 1.349 . S
C2429 H2421 0.950 . S
C2429 C2427 1.327 . S
C2430 C2418 1.349 . S
C2430 H2424 0.950 . S
C2430 C2431 1.327 . S
C2431 H2425 0.950 . S
C2431 C2430 1.327 . S
C2431 C2435 1.429 . S
C2432 C2415 1.574 1_545 S
C2432 H2426 0.949 . S
C2432 C2436 1.368 1_554 S
C2433 C2414 1.402 1_554 S
C2433 C2427 1.429 . S
C2433 C2434 1.523 . S
C2434 C2415 1.368 . S
C2434 C2428 1.368 1_554 S
C2434 C2433 1.523 . S
C2435 C2419 1.402 1_556 S
C2435 C2431 1.429 . S
C2435 C2436 1.523 . S
C2436 C2420 1.368 . S
C2436 C2432 1.368 1_556 S
C2436 C2435 1.523 . S
H2437 C2412 0.950 1_556 S
H2438 C2414 0.991 . S
H2439 C2415 0.949 . S
H2440 C2417 0.950 1_554 S
H2441 C2419 0.991 . S
C2442 C2443 1.349 . S
C2442 C2444 1.327 . S
C2442 H2467 0.950 . S
C2443 C2442 1.349 . S
C2443 C2459 1.349 . S
C2444 C2442 1.327 . S
C2444 C2463 1.429 . S
C2444 H2468 0.950 . S
C2445 C2462 1.574 . S
C2445 C2464 1.368 . S
C2445 H2469 0.949 . S
H2446 C2450 0.949 . S
C2447 C2448 1.349 . S
C2447 C2449 1.327 . S
C2447 H2470 0.950 . S
C2448 C2447 1.349 . S
C2448 C2460 1.349 . S
C2449 C2447 1.327 . S
C2449 C2465 1.429 . S
C2449 H2471 0.950 . S
C2450 H2446 0.949 . S
C2450 C2458 1.574 . S
C2450 C2466 1.368 . S
H2451 C2459 0.950 . S
H2452 C2457 0.950 . S
H2453 C2458 0.949 . S
H2454 C2460 0.950 . S
H2455 C2461 0.950 . S
H2456 C2462 0.949 . S
C2457 H2452 0.950 . S
C2457 C2459 1.327 . S
C2457 C2463 1.429 . S
C2458 C2450 1.574 . S
C2458 H2453 0.949 . S
C2458 C2464 1.368 . S
C2459 C2443 1.349 . S
C2459 H2451 0.950 . S
C2459 C2457 1.327 . S
C2460 C2448 1.349 . S
C2460 H2454 0.950 . S
C2460 C2461 1.327 . S
C2461 H2455 0.950 . S
C2461 C2460 1.327 . S
C2461 C2465 1.429 . S
C2462 C2445 1.574 . S
C2462 H2456 0.949 . S
C2462 C2466 1.368 . S
C2463 C2444 1.429 . S
C2463 C2457 1.429 . S
C2463 C2464 1.523 . S
C2464 C2445 1.368 . S
C2464 C2458 1.368 . S
C2464 C2463 1.523 . S
C2465 C2449 1.429 . S
C2465 C2461 1.429 . S
C2465 C2466 1.523 . S
C2466 C2450 1.368 . S
C2466 C2462 1.368 . S
C2466 C2465 1.523 . S
H2467 C2442 0.950 . S
H2468 C2444 0.950 . S
H2469 C2445 0.949 . S
H2470 C2447 0.950 . S
H2471 C2449 0.950 . S
C2472 C2473 1.349 . S
C2472 C2474 1.327 . S
C2472 H2497 0.950 . S
C2473 C2472 1.349 . S
C2473 C2489 1.349 . S
C2474 C2472 1.327 . S
C2474 C2493 1.429 . S
C2474 H2498 0.950 . S
C2475 C2492 1.574 1_545 S
C2475 C2494 1.368 . S
C2475 H2499 0.949 . S
H2476 C2480 0.949 . S
C2477 C2478 1.349 . S
C2477 C2479 1.327 . S
C2477 H2500 0.950 . S
C2478 C2477 1.349 . S
C2478 C2490 1.349 . S
C2479 C2477 1.327 . S
C2479 C2495 1.429 . S
C2479 H2501 0.950 . S
C2480 H2476 0.949 . S
C2480 C2488 1.574 1_565 S
C2480 C2496 1.368 . S
H2481 C2489 0.950 . S
H2482 C2487 0.950 . S
H2483 C2488 0.949 . S
H2484 C2490 0.950 . S
H2485 C2491 0.950 . S
H2486 C2492 0.949 . S
C2487 H2482 0.950 . S
C2487 C2489 1.327 . S
C2487 C2493 1.429 . S
C2488 C2480 1.574 1_545 S
C2488 H2483 0.949 . S
C2488 C2494 1.368 . S
C2489 C2473 1.349 . S
C2489 H2481 0.950 . S
C2489 C2487 1.327 . S
C2490 C2478 1.349 . S
C2490 H2484 0.950 . S
C2490 C2491 1.327 . S
C2491 H2485 0.950 . S
C2491 C2490 1.327 . S
C2491 C2495 1.429 . S
C2492 C2475 1.574 1_565 S
C2492 H2486 0.949 . S
C2492 C2496 1.368 . S
C2493 C2474 1.429 . S
C2493 C2487 1.429 . S
C2493 C2494 1.523 . S
C2494 C2475 1.368 . S
C2494 C2488 1.368 . S
C2494 C2493 1.523 . S
C2495 C2479 1.429 . S
C2495 C2491 1.429 . S
C2495 C2496 1.523 . S
C2496 C2480 1.368 . S
C2496 C2492 1.368 . S
C2496 C2495 1.523 . S
H2497 C2472 0.950 . S
H2498 C2474 0.950 . S
H2499 C2475 0.949 . S
H2500 C2477 0.950 . S
H2501 C2479 0.950 . S
C2502 C2503 1.349 . S
C2502 C2504 1.327 . S
C2502 H2527 0.950 . S
C2503 C2502 1.349 . S
C2503 C2519 1.349 . S
C2504 C2502 1.327 . S
C2504 C2523 1.429 . S
C2504 H2528 0.950 . S
C2505 C2522 1.574 . S
C2505 C2524 1.368 . S
C2505 H2529 0.949 . S
H2506 C2510 0.949 . S
C2507 C2508 1.349 . S
C2507 C2509 1.327 . S
C2507 H2530 0.950 . S
C2508 C2507 1.349 . S
C2508 C2520 1.349 . S
C2509 C2507 1.327 . S
C2509 C2525 1.429 . S
C2509 H2531 0.950 . S
C2510 H2506 0.949 . S
C2510 C2518 1.574 . S
C2510 C2526 1.368 . S
H2511 C2519 0.950 . S
H2512 C2517 0.950 . S
H2513 C2518 0.949 . S
H2514 C2520 0.950 . S
H2515 C2521 0.950 . S
H2516 C2522 0.949 . S
C2517 H2512 0.950 . S
C2517 C2519 1.327 . S
C2517 C2523 1.429 . S
C2518 C2510 1.574 . S
C2518 H2513 0.949 . S
C2518 C2524 1.368 . S
C2519 C2503 1.349 . S
C2519 H2511 0.950 . S
C2519 C2517 1.327 . S
C2520 C2508 1.349 . S
C2520 H2514 0.950 . S
C2520 C2521 1.327 . S
C2521 H2515 0.950 . S
C2521 C2520 1.327 . S
C2521 C2525 1.429 . S
C2522 C2505 1.574 . S
C2522 H2516 0.949 . S
C2522 C2526 1.368 . S
C2523 C2504 1.429 . S
C2523 C2517 1.429 . S
C2523 C2524 1.523 . S
C2524 C2505 1.368 . S
C2524 C2518 1.368 . S
C2524 C2523 1.523 . S
C2525 C2509 1.429 . S
C2525 C2521 1.429 . S
C2525 C2526 1.523 . S
C2526 C2510 1.368 . S
C2526 C2522 1.368 . S
C2526 C2525 1.523 . S
H2527 C2502 0.950 . S
H2528 C2504 0.950 . S
H2529 C2505 0.949 . S
H2530 C2507 0.950 . S
H2531 C2509 0.950 . S
C2532 C2533 1.349 . S
C2532 C2534 1.327 1_554 S
C2532 H2557 0.950 1_554 S
C2533 C2532 1.349 . S
C2533 C2549 1.349 . S
C2534 C2532 1.327 1_556 S
C2534 C2553 1.429 1_556 S
C2534 H2558 0.950 . S
C2535 C2552 1.574 1_565 S
C2535 C2554 1.368 . S
C2535 H2559 0.949 . S
H2536 C2540 0.949 . S
C2537 C2538 1.349 . S
C2537 C2539 1.327 1_556 S
C2537 H2560 0.950 1_556 S
C2538 C2537 1.349 . S
C2538 C2550 1.349 . S
C2539 C2537 1.327 1_554 S
C2539 C2555 1.429 1_554 S
C2539 H2561 0.950 . S
C2540 H2536 0.949 . S
C2540 C2548 1.574 1_545 S
C2540 C2556 1.368 . S
H2541 C2549 0.950 . S
H2542 C2547 0.950 . S
H2543 C2548 0.949 . S
H2544 C2550 0.950 . S
H2545 C2551 0.950 . S
H2546 C2552 0.949 . S
C2547 H2542 0.950 . S
C2547 C2549 1.327 . S
C2547 C2553 1.429 . S
C2548 C2540 1.574 1_565 S
C2548 H2543 0.949 . S
C2548 C2554 1.368 1_556 S
C2549 C2533 1.349 . S
C2549 H2541 0.950 . S
C2549 C2547 1.327 . S
C2550 C2538 1.349 . S
C2550 H2544 0.950 . S
C2550 C2551 1.327 . S
C2551 H2545 0.950 . S
C2551 C2550 1.327 . S
C2551 C2555 1.429 . S
C2552 C2535 1.574 1_545 S
C2552 H2546 0.949 . S
C2552 C2556 1.368 1_554 S
C2553 C2534 1.429 1_554 S
C2553 C2547 1.429 . S
C2553 C2554 1.523 . S
C2554 C2535 1.368 . S
C2554 C2548 1.368 1_554 S
C2554 C2553 1.523 . S
C2555 C2539 1.429 1_556 S
C2555 C2551 1.429 . S
C2555 C2556 1.523 . S
C2556 C2540 1.368 . S
C2556 C2552 1.368 1_556 S
C2556 C2555 1.523 . S
H2557 C2532 0.950 1_556 S
H2558 C2534 0.950 . S
H2559 C2535 0.949 . S
H2560 C2537 0.950 1_554 S
H2561 C2539 0.950 . S
C2562 C2563 1.349 . S
C2562 C2564 1.327 . S
C2562 H2587 0.950 . S
C2563 C2562 1.349 . S
C2563 C2579 1.349 . S
C2564 C2562 1.327 . S
C2564 C2583 1.429 . S
C2564 H2588 0.950 . S
C2565 C2582 1.574 . S
C2565 C2584 1.368 . S
C2565 H2589 0.949 . S
H2566 C2570 0.949 . S
C2567 C2568 1.349 . S
C2567 C2569 1.327 . S
C2567 H2590 0.950 . S
C2568 C2567 1.349 . S
C2568 C2580 1.349 . S
C2569 C2567 1.327 . S
C2569 C2585 1.429 . S
C2569 H2591 0.950 . S
C2570 H2566 0.949 . S
C2570 C2578 1.574 . S
C2570 C2586 1.368 . S
H2571 C2579 0.950 . S
H2572 C2577 0.950 . S
H2573 C2578 0.949 . S
H2574 C2580 0.950 . S
H2575 C2581 0.950 . S
H2576 C2582 0.949 . S
C2577 H2572 0.950 . S
C2577 C2579 1.327 . S
C2577 C2583 1.429 . S
C2578 C2570 1.574 . S
C2578 H2573 0.949 . S
C2578 C2584 1.368 . S
C2579 C2563 1.349 . S
C2579 H2571 0.950 . S
C2579 C2577 1.327 . S
C2580 C2568 1.349 . S
C2580 H2574 0.950 . S
C2580 C2581 1.327 . S
C2581 H2575 0.950 . S
C2581 C2580 1.327 . S
C2581 C2585 1.429 . S
C2582 C2565 1.574 . S
C2582 H2576 0.949 . S
C2582 C2586 1.368 . S
C2583 C2564 1.429 . S
C2583 C2577 1.429 . S
C2583 C2584 1.523 . S
C2584 C2565 1.368 . S
C2584 C2578 1.368 . S
C2584 C2583 1.523 . S
C2585 C2569 1.429 . S
C2585 C2581 1.429 . S
C2585 C2586 1.523 . S
C2586 C2570 1.368 . S
C2586 C2582 1.368 . S
C2586 C2585 1.523 . S
H2587 C2562 0.950 . S
H2588 C2564 0.950 . S
H2589 C2565 0.949 . S
H2590 C2567 0.950 . S
H2591 C2569 0.950 . S
C2592 C2593 1.349 . S
C2592 C2594 1.327 . S
C2592 H2617 0.950 . S
C2593 C2592 1.349 . S
C2593 C2609 1.349 . S
C2594 C2592 1.327 . S
C2594 C2613 1.429 . S
C2594 H2618 0.950 . S
C2595 C2612 1.574 . S
C2595 C2614 1.368 . S
C2595 H2619 0.949 . S
H2596 C2600 0.949 . S
C2597 C2598 1.349 . S
C2597 C2599 1.327 . S
C2597 H2620 0.950 . S
C2598 C2597 1.349 . S
C2598 C2610 1.349 . S
C2599 C2597 1.327 . S
C2599 C2615 1.429 . S
C2599 H2621 0.950 . S
C2600 H2596 0.949 . S
C2600 C2608 1.574 . S
C2600 C2616 1.368 . S
H2601 C2609 0.950 . S
H2602 C2607 0.950 . S
H2603 C2608 0.949 . S
H2604 C2610 0.950 . S
H2605 C2611 0.950 . S
H2606 C2612 0.949 . S
C2607 H2602 0.950 . S
C2607 C2609 1.327 . S
C2607 C2613 1.429 . S
C2608 C2600 1.574 . S
C2608 H2603 0.949 . S
C2608 C2614 1.368 . S
C2609 C2593 1.349 . S
C2609 H2601 0.950 . S
C2609 C2607 1.327 . S
C2610 C2598 1.349 . S
C2610 H2604 0.950 . S
C2610 C2611 1.327 . S
C2611 H2605 0.950 . S
C2611 C2610 1.327 . S
C2611 C2615 1.429 . S
C2612 C2595 1.574 . S
C2612 H2606 0.949 . S
C2612 C2616 1.368 . S
C2613 C2594 1.429 . S
C2613 C2607 1.429 . S
C2613 C2614 1.523 . S
C2614 C2595 1.368 . S
C2614 C2608 1.368 . S
C2614 C2613 1.523 . S
C2615 C2599 1.429 . S
C2615 C2611 1.429 . S
C2615 C2616 1.523 . S
C2616 C2600 1.368 . S
C2616 C2612 1.368 . S
C2616 C2615 1.523 . S
H2617 C2592 0.950 . S
H2618 C2594 0.950 . S
H2619 C2595 0.949 . S
H2620 C2597 0.950 . S
H2621 C2599 0.950 . S
C2622 C2623 1.349 . S
C2622 C2624 1.327 . S
C2622 H2647 0.950 . S
C2623 C2622 1.349 . S
C2623 C2639 1.349 . S
C2624 C2622 1.327 . S
C2624 C2643 1.429 . S
C2624 H2648 0.950 . S
C2625 C2642 1.574 . S
C2625 C2644 1.368 . S
C2625 H2649 0.949 . S
H2626 C2630 0.949 . S
C2627 C2628 1.349 . S
C2627 C2629 1.327 . S
C2627 H2650 0.950 . S
C2628 C2627 1.349 . S
C2628 C2640 1.349 . S
C2629 C2627 1.327 . S
C2629 C2645 1.429 . S
C2629 H2651 0.950 . S
C2630 H2626 0.949 . S
C2630 C2638 1.574 . S
C2630 C2646 1.368 . S
H2631 C2639 0.950 . S
H2632 C2637 0.950 . S
H2633 C2638 0.949 . S
H2634 C2640 0.950 . S
H2635 C2641 0.950 . S
H2636 C2642 0.949 . S
C2637 H2632 0.950 . S
C2637 C2639 1.327 . S
C2637 C2643 1.429 . S
C2638 C2630 1.574 . S
C2638 H2633 0.949 . S
C2638 C2644 1.368 . S
C2639 C2623 1.349 . S
C2639 H2631 0.950 . S
C2639 C2637 1.327 . S
C2640 C2628 1.349 . S
C2640 H2634 0.950 . S
C2640 C2641 1.327 . S
C2641 H2635 0.950 . S
C2641 C2640 1.327 . S
C2641 C2645 1.429 . S
C2642 C2625 1.574 . S
C2642 H2636 0.949 . S
C2642 C2646 1.368 . S
C2643 C2624 1.429 . S
C2643 C2637 1.429 . S
C2643 C2644 1.523 . S
C2644 C2625 1.368 . S
C2644 C2638 1.368 . S
C2644 C2643 1.523 . S
C2645 C2629 1.429 . S
C2645 C2641 1.429 . S
C2645 C2646 1.523 . S
C2646 C2630 1.368 . S
C2646 C2642 1.368 . S
C2646 C2645 1.523 . S
H2647 C2622 0.950 . S
H2648 C2624 0.950 . S
H2649 C2625 0.949 . S
H2650 C2627 0.950 . S
H2651 C2629 0.950 . S
C2652 C2653 1.349 . S
C2652 C2654 1.327 . S
C2652 H2677 0.950 . S
C2653 C2652 1.349 . S
C2653 C2669 1.349 . S
C2654 C2652 1.327 . S
C2654 C2673 1.429 . S
C2654 H2678 0.950 . S
C2655 C2672 1.574 . S
C2655 C2674 1.368 . S
C2655 H2679 0.949 . S
H2656 C2660 0.949 . S
C2657 C2658 1.349 . S
C2657 C2659 1.327 . S
C2657 H2680 0.950 . S
C2658 C2657 1.349 . S
C2658 C2670 1.349 . S
C2659 C2657 1.327 . S
C2659 C2675 1.429 . S
C2659 H2681 0.950 . S
C2660 H2656 0.949 . S
C2660 C2668 1.574 . S
C2660 C2676 1.368 . S
H2661 C2669 0.950 . S
H2662 C2667 0.950 . S
H2663 C2668 0.949 . S
H2664 C2670 0.950 . S
H2665 C2671 0.950 . S
H2666 C2672 0.949 . S
C2667 H2662 0.950 . S
C2667 C2669 1.327 . S
C2667 C2673 1.429 . S
C2668 C2660 1.574 . S
C2668 H2663 0.949 . S
C2668 C2674 1.368 . S
C2669 C2653 1.349 . S
C2669 H2661 0.950 . S
C2669 C2667 1.327 . S
C2670 C2658 1.349 . S
C2670 H2664 0.950 . S
C2670 C2671 1.327 . S
C2671 H2665 0.950 . S
C2671 C2670 1.327 . S
C2671 C2675 1.429 . S
C2672 C2655 1.574 . S
C2672 H2666 0.949 . S
C2672 C2676 1.368 . S
C2673 C2654 1.429 . S
C2673 C2667 1.429 . S
C2673 C2674 1.523 . S
C2674 C2655 1.368 . S
C2674 C2668 1.368 . S
C2674 C2673 1.523 . S
C2675 C2659 1.429 . S
C2675 C2671 1.429 . S
C2675 C2676 1.523 . S
C2676 C2660 1.368 . S
C2676 C2672 1.368 . S
C2676 C2675 1.523 . S
H2677 C2652 0.950 . S
H2678 C2654 0.950 . S
H2679 C2655 0.949 . S
H2680 C2657 0.950 . S
H2681 C2659 0.950 . S
C2682 C2683 1.349 . S
C2682 C2684 1.327 . S
C2682 H2707 0.950 . S
C2683 C2682 1.349 . S
C2683 C2699 1.349 . S
C2684 C2682 1.327 . S
C2684 C2703 1.429 . S
C2684 H2708 0.950 . S
C2685 C2702 1.574 1_655 S
C2685 C2704 1.368 . S
C2685 H2709 0.949 . S
H2686 C2690 0.949 . S
C2687 C2688 1.349 . S
C2687 C2689 1.327 . S
C2687 H2710 0.950 . S
C2688 C2687 1.349 . S
C2688 C2700 1.349 . S
C2689 C2687 1.327 . S
C2689 C2705 1.429 . S
C2689 H2711 0.950 . S
C2690 H2686 0.949 . S
C2690 C2698 1.574 1_455 S
C2690 C2706 1.368 . S
H2691 C2699 0.950 . S
H2692 C2697 0.950 . S
H2693 C2698 0.949 . S
H2694 C2700 0.950 . S
H2695 C2701 0.950 . S
H2696 C2702 0.949 . S
C2697 H2692 0.950 . S
C2697 C2699 1.327 . S
C2697 C2703 1.429 . S
C2698 C2690 1.574 1_655 S
C2698 H2693 0.949 . S
C2698 C2704 1.368 . S
C2699 C2683 1.349 . S
C2699 H2691 0.950 . S
C2699 C2697 1.327 . S
C2700 C2688 1.349 . S
C2700 H2694 0.950 . S
C2700 C2701 1.327 . S
C2701 H2695 0.950 . S
C2701 C2700 1.327 . S
C2701 C2705 1.429 . S
C2702 C2685 1.574 1_455 S
C2702 H2696 0.949 . S
C2702 C2706 1.368 . S
C2703 C2684 1.429 . S
C2703 C2697 1.429 . S
C2703 C2704 1.523 . S
C2704 C2685 1.368 . S
C2704 C2698 1.368 . S
C2704 C2703 1.523 . S
C2705 C2689 1.429 . S
C2705 C2701 1.429 . S
C2705 C2706 1.523 . S
C2706 C2690 1.368 . S
C2706 C2702 1.368 . S
C2706 C2705 1.523 . S
H2707 C2682 0.950 . S
H2708 C2684 0.950 . S
H2709 C2685 0.949 . S
H2710 C2687 0.950 . S
H2711 C2689 0.950 . S
C2712 C2713 1.349 . S
C2712 C2714 1.327 . S
C2712 H2737 0.950 . S
C2713 C2712 1.349 . S
C2713 C2729 1.349 . S
C2714 C2712 1.327 . S
C2714 C2733 1.429 . S
C2714 H2738 0.950 . S
C2715 C2732 1.574 . S
C2715 C2734 1.368 . S
C2715 H2739 0.949 . S
H2716 C2720 0.949 . S
C2717 C2718 1.349 . S
C2717 C2719 1.327 . S
C2717 H2740 0.950 . S
C2718 C2717 1.349 . S
C2718 C2730 1.349 . S
C2719 C2717 1.327 . S
C2719 C2735 1.429 . S
C2719 H2741 0.950 . S
C2720 H2716 0.949 . S
C2720 C2728 1.574 . S
C2720 C2736 1.368 . S
H2721 C2729 0.950 . S
H2722 C2727 0.950 . S
H2723 C2728 0.949 . S
H2724 C2730 0.950 . S
H2725 C2731 0.950 . S
H2726 C2732 0.949 . S
C2727 H2722 0.950 . S
C2727 C2729 1.327 . S
C2727 C2733 1.429 . S
C2728 C2720 1.574 . S
C2728 H2723 0.949 . S
C2728 C2734 1.368 . S
C2729 C2713 1.349 . S
C2729 H2721 0.950 . S
C2729 C2727 1.327 . S
C2730 C2718 1.349 . S
C2730 H2724 0.950 . S
C2730 C2731 1.327 . S
C2731 H2725 0.950 . S
C2731 C2730 1.327 . S
C2731 C2735 1.429 . S
C2732 C2715 1.574 . S
C2732 H2726 0.949 . S
C2732 C2736 1.368 . S
C2733 C2714 1.429 . S
C2733 C2727 1.429 . S
C2733 C2734 1.523 . S
C2734 C2715 1.368 . S
C2734 C2728 1.368 . S
C2734 C2733 1.523 . S
C2735 C2719 1.429 . S
C2735 C2731 1.429 . S
C2735 C2736 1.523 . S
C2736 C2720 1.368 . S
C2736 C2732 1.368 . S
C2736 C2735 1.523 . S
H2737 C2712 0.950 . S
H2738 C2714 0.950 . S
H2739 C2715 0.949 . S
H2740 C2717 0.950 . S
H2741 C2719 0.950 . S
C2742 C2743 1.349 . S
C2742 C2744 1.327 . S
C2742 H2767 0.950 . S
C2743 C2742 1.349 . S
C2743 C2759 1.349 . S
C2744 C2742 1.327 . S
C2744 C2763 1.429 . S
C2744 H2768 0.950 . S
C2745 C2762 1.574 1_655 S
C2745 C2764 1.368 . S
C2745 H2769 0.949 . S
H2746 C2750 0.949 . S
C2747 C2748 1.349 . S
C2747 C2749 1.327 . S
C2747 H2770 0.950 . S
C2748 C2747 1.349 . S
C2748 C2760 1.349 . S
C2749 C2747 1.327 . S
C2749 C2765 1.429 . S
C2749 H2771 0.950 . S
C2750 H2746 0.949 . S
C2750 C2758 1.574 1_455 S
C2750 C2766 1.368 . S
H2751 C2759 0.950 . S
H2752 C2757 0.950 . S
H2753 C2758 0.949 . S
H2754 C2760 0.950 . S
H2755 C2761 0.950 . S
H2756 C2762 0.949 . S
C2757 H2752 0.950 . S
C2757 C2759 1.327 . S
C2757 C2763 1.429 . S
C2758 C2750 1.574 1_655 S
C2758 H2753 0.949 . S
C2758 C2764 1.368 . S
C2759 C2743 1.349 . S
C2759 H2751 0.950 . S
C2759 C2757 1.327 . S
C2760 C2748 1.349 . S
C2760 H2754 0.950 . S
C2760 C2761 1.327 . S
C2761 H2755 0.950 . S
C2761 C2760 1.327 . S
C2761 C2765 1.429 . S
C2762 C2745 1.574 1_455 S
C2762 H2756 0.949 . S
C2762 C2766 1.368 . S
C2763 C2744 1.429 . S
C2763 C2757 1.429 . S
C2763 C2764 1.523 . S
C2764 C2745 1.368 . S
C2764 C2758 1.368 . S
C2764 C2763 1.523 . S
C2765 C2749 1.429 . S
C2765 C2761 1.429 . S
C2765 C2766 1.523 . S
C2766 C2750 1.368 . S
C2766 C2762 1.368 . S
C2766 C2765 1.523 . S
H2767 C2742 0.950 . S
H2768 C2744 0.950 . S
H2769 C2745 0.949 . S
H2770 C2747 0.950 . S
H2771 C2749 0.950 . S
C2772 C2773 1.349 . S
C2772 C2774 1.327 . S
C2772 H2797 0.950 . S
C2773 C2772 1.349 . S
C2773 C2789 1.349 . S
C2774 C2772 1.327 . S
C2774 C2793 1.429 . S
C2774 H2798 0.950 . S
C2775 C2792 1.574 . S
C2775 C2794 1.368 . S
C2775 H2799 0.949 . S
H2776 C2780 0.949 . S
C2777 C2778 1.349 . S
C2777 C2779 1.327 . S
C2777 H2800 0.950 . S
C2778 C2777 1.349 . S
C2778 C2790 1.349 . S
C2779 C2777 1.327 . S
C2779 C2795 1.429 . S
C2779 H2801 0.950 . S
C2780 H2776 0.949 . S
C2780 C2788 1.574 . S
C2780 C2796 1.368 . S
H2781 C2789 0.950 . S
H2782 C2787 0.950 . S
H2783 C2788 0.949 . S
H2784 C2790 0.950 . S
H2785 C2791 0.950 . S
H2786 C2792 0.949 . S
C2787 H2782 0.950 . S
C2787 C2789 1.327 . S
C2787 C2793 1.429 . S
C2788 C2780 1.574 . S
C2788 H2783 0.949 . S
C2788 C2794 1.368 . S
C2789 C2773 1.349 . S
C2789 H2781 0.950 . S
C2789 C2787 1.327 . S
C2790 C2778 1.349 . S
C2790 H2784 0.950 . S
C2790 C2791 1.327 . S
C2791 H2785 0.950 . S
C2791 C2790 1.327 . S
C2791 C2795 1.429 . S
C2792 C2775 1.574 . S
C2792 H2786 0.949 . S
C2792 C2796 1.368 . S
C2793 C2774 1.429 . S
C2793 C2787 1.429 . S
C2793 C2794 1.523 . S
C2794 C2775 1.368 . S
C2794 C2788 1.368 . S
C2794 C2793 1.523 . S
C2795 C2779 1.429 . S
C2795 C2791 1.429 . S
C2795 C2796 1.523 . S
C2796 C2780 1.368 . S
C2796 C2792 1.368 . S
C2796 C2795 1.523 . S
H2797 C2772 0.950 . S
H2798 C2774 0.950 . S
H2799 C2775 0.949 . S
H2800 C2777 0.950 . S
H2801 C2779 0.950 . S
C2802 C2803 1.349 . S
C2802 C2804 1.327 . S
C2802 H2827 0.950 . S
C2803 C2802 1.349 . S
C2803 C2819 1.349 . S
C2804 C2802 1.327 . S
C2804 C2823 1.429 . S
C2804 H2828 0.950 . S
C2805 C2822 1.574 . S
C2805 C2824 1.368 . S
C2805 H2829 0.949 . S
H2806 C2810 0.949 . S
C2807 C2808 1.349 . S
C2807 C2809 1.327 . S
C2807 H2830 0.950 . S
C2808 C2807 1.349 . S
C2808 C2820 1.349 . S
C2809 C2807 1.327 . S
C2809 C2825 1.429 . S
C2809 H2831 0.950 . S
C2810 H2806 0.949 . S
C2810 C2818 1.574 . S
C2810 C2826 1.368 . S
H2811 C2819 0.950 . S
H2812 C2817 0.950 . S
H2813 C2818 0.949 . S
H2814 C2820 0.950 . S
H2815 C2821 0.950 . S
H2816 C2822 0.949 . S
C2817 H2812 0.950 . S
C2817 C2819 1.327 . S
C2817 C2823 1.429 . S
C2818 C2810 1.574 . S
C2818 H2813 0.949 . S
C2818 C2824 1.368 . S
C2819 C2803 1.349 . S
C2819 H2811 0.950 . S
C2819 C2817 1.327 . S
C2820 C2808 1.349 . S
C2820 H2814 0.950 . S
C2820 C2821 1.327 . S
C2821 H2815 0.950 . S
C2821 C2820 1.327 . S
C2821 C2825 1.429 . S
C2822 C2805 1.574 . S
C2822 H2816 0.949 . S
C2822 C2826 1.368 . S
C2823 C2804 1.429 . S
C2823 C2817 1.429 . S
C2823 C2824 1.523 . S
C2824 C2805 1.368 . S
C2824 C2818 1.368 . S
C2824 C2823 1.523 . S
C2825 C2809 1.429 . S
C2825 C2821 1.429 . S
C2825 C2826 1.523 . S
C2826 C2810 1.368 . S
C2826 C2822 1.368 . S
C2826 C2825 1.523 . S
H2827 C2802 0.950 . S
H2828 C2804 0.950 . S
H2829 C2805 0.949 . S
H2830 C2807 0.950 . S
H2831 C2809 0.950 . S
C2832 C2833 1.349 . S
C2832 C2834 1.327 . S
C2832 H2857 0.950 . S
C2833 C2832 1.349 . S
C2833 C2849 1.349 . S
C2834 C2832 1.327 . S
C2834 C2853 1.429 . S
C2834 H2858 0.950 . S
C2835 C2852 1.574 . S
C2835 C2854 1.368 . S
C2835 H2859 0.949 . S
H2836 C2840 0.949 . S
C2837 C2838 1.349 . S
C2837 C2839 1.327 . S
C2837 H2860 0.950 . S
C2838 C2837 1.349 . S
C2838 C2850 1.349 . S
C2839 C2837 1.327 . S
C2839 C2855 1.429 . S
C2839 H2861 0.950 . S
C2840 H2836 0.949 . S
C2840 C2848 1.574 . S
C2840 C2856 1.368 . S
H2841 C2849 0.950 . S
H2842 C2847 0.950 . S
H2843 C2848 0.949 . S
H2844 C2850 0.950 . S
H2845 C2851 0.950 . S
H2846 C2852 0.949 . S
C2847 H2842 0.950 . S
C2847 C2849 1.327 . S
C2847 C2853 1.429 . S
C2848 C2840 1.574 . S
C2848 H2843 0.949 . S
C2848 C2854 1.368 . S
C2849 C2833 1.349 . S
C2849 H2841 0.950 . S
C2849 C2847 1.327 . S
C2850 C2838 1.349 . S
C2850 H2844 0.950 . S
C2850 C2851 1.327 . S
C2851 H2845 0.950 . S
C2851 C2850 1.327 . S
C2851 C2855 1.429 . S
C2852 C2835 1.574 . S
C2852 H2846 0.949 . S
C2852 C2856 1.368 . S
C2853 C2834 1.429 . S
C2853 C2847 1.429 . S
C2853 C2854 1.523 . S
C2854 C2835 1.368 . S
C2854 C2848 1.368 . S
C2854 C2853 1.523 . S
C2855 C2839 1.429 . S
C2855 C2851 1.429 . S
C2855 C2856 1.523 . S
C2856 C2840 1.368 . S
C2856 C2852 1.368 . S
C2856 C2855 1.523 . S
H2857 C2832 0.950 . S
H2858 C2834 0.950 . S
H2859 C2835 0.949 . S
H2860 C2837 0.950 . S
H2861 C2839 0.950 . S
C2862 C2863 1.349 . S
C2862 C2864 1.327 . S
C2862 H2887 0.950 . S
C2863 C2862 1.349 . S
C2863 C2879 1.349 . S
C2864 C2862 1.327 . S
C2864 C2883 1.429 . S
C2864 H2888 0.950 . S
C2865 C2882 1.574 . S
C2865 C2884 1.368 . S
C2865 H2889 0.949 . S
H2866 C2870 0.949 . S
C2867 C2868 1.349 . S
C2867 C2869 1.327 . S
C2867 H2890 0.950 . S
C2868 C2867 1.349 . S
C2868 C2880 1.349 . S
C2869 C2867 1.327 . S
C2869 C2885 1.429 . S
C2869 H2891 0.950 . S
C2870 H2866 0.949 . S
C2870 C2878 1.574 . S
C2870 C2886 1.368 . S
H2871 C2879 0.950 . S
H2872 C2877 0.950 . S
H2873 C2878 0.949 . S
H2874 C2880 0.950 . S
H2875 C2881 0.950 . S
H2876 C2882 0.949 . S
C2877 H2872 0.950 . S
C2877 C2879 1.327 . S
C2877 C2883 1.429 . S
C2878 C2870 1.574 . S
C2878 H2873 0.949 . S
C2878 C2884 1.368 . S
C2879 C2863 1.349 . S
C2879 H2871 0.950 . S
C2879 C2877 1.327 . S
C2880 C2868 1.349 . S
C2880 H2874 0.950 . S
C2880 C2881 1.327 . S
C2881 H2875 0.950 . S
C2881 C2880 1.327 . S
C2881 C2885 1.429 . S
C2882 C2865 1.574 . S
C2882 H2876 0.949 . S
C2882 C2886 1.368 . S
C2883 C2864 1.429 . S
C2883 C2877 1.429 . S
C2883 C2884 1.523 . S
C2884 C2865 1.368 . S
C2884 C2878 1.368 . S
C2884 C2883 1.523 . S
C2885 C2869 1.429 . S
C2885 C2881 1.429 . S
C2885 C2886 1.523 . S
C2886 C2870 1.368 . S
C2886 C2882 1.368 . S
C2886 C2885 1.523 . S
H2887 C2862 0.950 . S
H2888 C2864 0.950 . S
H2889 C2865 0.949 . S
H2890 C2867 0.950 . S
H2891 C2869 0.950 . S
C2892 C2893 1.349 . S
C2892 C2894 1.327 . S
C2892 H2917 0.950 . S
C2893 C2892 1.349 . S
C2893 C2909 1.349 . S
C2894 C2892 1.327 . S
C2894 C2913 1.429 . S
C2894 H2918 0.950 . S
C2895 C2912 1.574 . S
C2895 C2914 1.368 . S
C2895 H2919 0.949 . S
H2896 C2900 0.949 . S
C2897 C2898 1.349 . S
C2897 C2899 1.327 . S
C2897 H2920 0.950 . S
C2898 C2897 1.349 . S
C2898 C2910 1.349 . S
C2899 C2897 1.327 . S
C2899 C2915 1.429 . S
C2899 H2921 0.950 . S
C2900 H2896 0.949 . S
C2900 C2908 1.574 . S
C2900 C2916 1.368 . S
H2901 C2909 0.950 . S
H2902 C2907 0.950 . S
H2903 C2908 0.949 . S
H2904 C2910 0.950 . S
H2905 C2911 0.950 . S
H2906 C2912 0.949 . S
C2907 H2902 0.950 . S
C2907 C2909 1.327 . S
C2907 C2913 1.429 . S
C2908 C2900 1.574 . S
C2908 H2903 0.949 . S
C2908 C2914 1.368 . S
C2909 C2893 1.349 . S
C2909 H2901 0.950 . S
C2909 C2907 1.327 . S
C2910 C2898 1.349 . S
C2910 H2904 0.950 . S
C2910 C2911 1.327 . S
C2911 H2905 0.950 . S
C2911 C2910 1.327 . S
C2911 C2915 1.429 . S
C2912 C2895 1.574 . S
C2912 H2906 0.949 . S
C2912 C2916 1.368 . S
C2913 C2894 1.429 . S
C2913 C2907 1.429 . S
C2913 C2914 1.523 . S
C2914 C2895 1.368 . S
C2914 C2908 1.368 . S
C2914 C2913 1.523 . S
C2915 C2899 1.429 . S
C2915 C2911 1.429 . S
C2915 C2916 1.523 . S
C2916 C2900 1.368 . S
C2916 C2912 1.368 . S
C2916 C2915 1.523 . S
H2917 C2892 0.950 . S
H2918 C2894 0.950 . S
H2919 C2895 0.949 . S
H2920 C2897 0.950 . S
H2921 C2899 0.950 . S
C2922 C2923 1.349 . S
C2922 C2924 1.327 . S
C2922 H2947 0.950 . S
C2923 C2922 1.349 . S
C2923 C2939 1.349 . S
C2924 C2922 1.327 . S
C2924 C2943 1.429 . S
C2924 H2948 0.950 . S
C2925 C2942 1.574 . S
C2925 C2944 1.368 . S
C2925 H2949 0.949 . S
H2926 C2930 0.949 . S
C2927 C2928 1.349 . S
C2927 C2929 1.327 . S
C2927 H2950 0.950 . S
C2928 C2927 1.349 . S
C2928 C2940 1.349 . S
C2929 C2927 1.327 . S
C2929 C2945 1.429 . S
C2929 H2951 0.950 . S
C2930 H2926 0.949 . S
C2930 C2938 1.574 . S
C2930 C2946 1.368 . S
H2931 C2939 0.950 . S
H2932 C2937 0.950 . S
H2933 C2938 0.949 . S
H2934 C2940 0.950 . S
H2935 C2941 0.950 . S
H2936 C2942 0.949 . S
C2937 H2932 0.950 . S
C2937 C2939 1.327 . S
C2937 C2943 1.429 . S
C2938 C2930 1.574 . S
C2938 H2933 0.949 . S
C2938 C2944 1.368 . S
C2939 C2923 1.349 . S
C2939 H2931 0.950 . S
C2939 C2937 1.327 . S
C2940 C2928 1.349 . S
C2940 H2934 0.950 . S
C2940 C2941 1.327 . S
C2941 H2935 0.950 . S
C2941 C2940 1.327 . S
C2941 C2945 1.429 . S
C2942 C2925 1.574 . S
C2942 H2936 0.949 . S
C2942 C2946 1.368 . S
C2943 C2924 1.429 . S
C2943 C2937 1.429 . S
C2943 C2944 1.523 . S
C2944 C2925 1.368 . S
C2944 C2938 1.368 . S
C2944 C2943 1.523 . S
C2945 C2929 1.429 . S
C2945 C2941 1.429 . S
C2945 C2946 1.523 . S
C2946 C2930 1.368 . S
C2946 C2942 1.368 . S
C2946 C2945 1.523 . S
H2947 C2922 0.950 . S
H2948 C2924 0.950 . S
H2949 C2925 0.949 . S
H2950 C2927 0.950 . S
H2951 C2929 0.950 . S
C2952 C2953 1.349 . S
C2952 C2954 1.327 . S
C2952 H2977 0.950 . S
C2953 C2952 1.349 . S
C2953 C2969 1.349 . S
C2954 C2952 1.327 . S
C2954 C2973 1.429 . S
C2954 H2978 0.950 . S
C2955 C2972 1.574 1_655 S
C2955 C2974 1.368 . S
C2955 H2979 0.949 . S
H2956 C2960 0.949 . S
C2957 C2958 1.349 . S
C2957 C2959 1.327 . S
C2957 H2980 0.950 . S
C2958 C2957 1.349 . S
C2958 C2970 1.349 . S
C2959 C2957 1.327 . S
C2959 C2975 1.429 . S
C2959 H2981 0.950 . S
C2960 H2956 0.949 . S
C2960 C2968 1.574 1_455 S
C2960 C2976 1.368 . S
H2961 C2969 0.950 . S
H2962 C2967 0.950 . S
H2963 C2968 0.949 . S
H2964 C2970 0.950 . S
H2965 C2971 0.950 . S
H2966 C2972 0.949 . S
C2967 H2962 0.950 . S
C2967 C2969 1.327 . S
C2967 C2973 1.429 . S
C2968 C2960 1.574 1_655 S
C2968 H2963 0.949 . S
C2968 C2974 1.368 . S
C2969 C2953 1.349 . S
C2969 H2961 0.950 . S
C2969 C2967 1.327 . S
C2970 C2958 1.349 . S
C2970 H2964 0.950 . S
C2970 C2971 1.327 . S
C2971 H2965 0.950 . S
C2971 C2970 1.327 . S
C2971 C2975 1.429 . S
C2972 C2955 1.574 1_455 S
C2972 H2966 0.949 . S
C2972 C2976 1.368 . S
C2973 C2954 1.429 . S
C2973 C2967 1.429 . S
C2973 C2974 1.523 . S
C2974 C2955 1.368 . S
C2974 C2968 1.368 . S
C2974 C2973 1.523 . S
C2975 C2959 1.429 . S
C2975 C2971 1.429 . S
C2975 C2976 1.523 . S
C2976 C2960 1.368 . S
C2976 C2972 1.368 . S
C2976 C2975 1.523 . S
H2977 C2952 0.950 . S
H2978 C2954 0.950 . S
H2979 C2955 0.949 . S
H2980 C2957 0.950 . S
H2981 C2959 0.950 . S
C2982 C2983 1.349 . S
C2982 C2984 1.327 . S
C2982 H3007 0.950 . S
C2983 C2982 1.349 . S
C2983 C2999 1.349 . S
C2984 C2982 1.327 . S
C2984 C3003 1.429 . S
C2984 H3008 0.950 . S
C2985 C3002 1.574 . S
C2985 C3004 1.368 . S
C2985 H3009 0.949 . S
H2986 C2990 0.949 . S
C2987 C2988 1.349 . S
C2987 C2989 1.327 . S
C2987 H3010 0.950 . S
C2988 C2987 1.349 . S
C2988 C3000 1.349 . S
C2989 C2987 1.327 . S
C2989 C3005 1.429 . S
C2989 H3011 0.950 . S
C2990 H2986 0.949 . S
C2990 C2998 1.574 . S
C2990 C3006 1.368 . S
H2991 C2999 0.950 . S
H2992 C2997 0.950 . S
H2993 C2998 0.949 . S
H2994 C3000 0.950 . S
H2995 C3001 0.950 . S
H2996 C3002 0.949 . S
C2997 H2992 0.950 . S
C2997 C2999 1.327 . S
C2997 C3003 1.429 . S
C2998 C2990 1.574 . S
C2998 H2993 0.949 . S
C2998 C3004 1.368 . S
C2999 C2983 1.349 . S
C2999 H2991 0.950 . S
C2999 C2997 1.327 . S
C3000 C2988 1.349 . S
C3000 H2994 0.950 . S
C3000 C3001 1.327 . S
C3001 H2995 0.950 . S
C3001 C3000 1.327 . S
C3001 C3005 1.429 . S
C3002 C2985 1.574 . S
C3002 H2996 0.949 . S
C3002 C3006 1.368 . S
C3003 C2984 1.429 . S
C3003 C2997 1.429 . S
C3003 C3004 1.523 . S
C3004 C2985 1.368 . S
C3004 C2998 1.368 . S
C3004 C3003 1.523 . S
C3005 C2989 1.429 . S
C3005 C3001 1.429 . S
C3005 C3006 1.523 . S
C3006 C2990 1.368 . S
C3006 C3002 1.368 . S
C3006 C3005 1.523 . S
H3007 C2982 0.950 . S
H3008 C2984 0.950 . S
H3009 C2985 0.949 . S
H3010 C2987 0.950 . S
H3011 C2989 0.950 . S
C3012 C3013 1.349 . S
C3012 C3014 1.327 . S
C3012 H3037 0.950 . S
C3013 C3012 1.349 . S
C3013 C3029 1.349 . S
C3014 C3012 1.327 . S
C3014 C3033 1.429 . S
C3014 H3038 0.950 . S
C3015 C3032 1.574 . S
C3015 C3034 1.368 . S
C3015 H3039 0.949 . S
H3016 C3020 0.949 . S
C3017 C3018 1.349 . S
C3017 C3019 1.327 . S
C3017 H3040 0.950 . S
C3018 C3017 1.349 . S
C3018 C3030 1.349 . S
C3019 C3017 1.327 . S
C3019 C3035 1.429 . S
C3019 H3041 0.950 . S
C3020 H3016 0.949 . S
C3020 C3028 1.574 . S
C3020 C3036 1.368 . S
H3021 C3029 0.950 . S
H3022 C3027 0.950 . S
H3023 C3028 0.949 . S
H3024 C3030 0.950 . S
H3025 C3031 0.950 . S
H3026 C3032 0.949 . S
C3027 H3022 0.950 . S
C3027 C3029 1.327 . S
C3027 C3033 1.429 . S
C3028 C3020 1.574 . S
C3028 H3023 0.949 . S
C3028 C3034 1.368 . S
C3029 C3013 1.349 . S
C3029 H3021 0.950 . S
C3029 C3027 1.327 . S
C3030 C3018 1.349 . S
C3030 H3024 0.950 . S
C3030 C3031 1.327 . S
C3031 H3025 0.950 . S
C3031 C3030 1.327 . S
C3031 C3035 1.429 . S
C3032 C3015 1.574 . S
C3032 H3026 0.949 . S
C3032 C3036 1.368 . S
C3033 C3014 1.429 . S
C3033 C3027 1.429 . S
C3033 C3034 1.523 . S
C3034 C3015 1.368 . S
C3034 C3028 1.368 . S
C3034 C3033 1.523 . S
C3035 C3019 1.429 . S
C3035 C3031 1.429 . S
C3035 C3036 1.523 . S
C3036 C3020 1.368 . S
C3036 C3032 1.368 . S
C3036 C3035 1.523 . S
H3037 C3012 0.950 . S
H3038 C3014 0.950 . S
H3039 C3015 0.949 . S
H3040 C3017 0.950 . S
H3041 C3019 0.950 . S
C3042 C3043 1.349 . S
C3042 C3044 1.327 . S
C3042 H3067 0.950 . S
C3043 C3042 1.349 . S
C3043 C3059 1.349 . S
C3044 C3042 1.327 . S
C3044 C3063 1.429 . S
C3044 H3068 0.950 . S
C3045 C3062 1.574 1_655 S
C3045 C3064 1.368 . S
C3045 H3069 0.949 . S
H3046 C3050 0.949 . S
C3047 C3048 1.349 . S
C3047 C3049 1.327 . S
C3047 H3070 0.950 . S
C3048 C3047 1.349 . S
C3048 C3060 1.349 . S
C3049 C3047 1.327 . S
C3049 C3065 1.429 . S
C3049 H3071 0.950 . S
C3050 H3046 0.949 . S
C3050 C3058 1.574 1_455 S
C3050 C3066 1.368 . S
H3051 C3059 0.950 . S
H3052 C3057 0.950 . S
H3053 C3058 0.949 . S
H3054 C3060 0.950 . S
H3055 C3061 0.950 . S
H3056 C3062 0.949 . S
C3057 H3052 0.950 . S
C3057 C3059 1.327 . S
C3057 C3063 1.429 . S
C3058 C3050 1.574 1_655 S
C3058 H3053 0.949 . S
C3058 C3064 1.368 . S
C3059 C3043 1.349 . S
C3059 H3051 0.950 . S
C3059 C3057 1.327 . S
C3060 C3048 1.349 . S
C3060 H3054 0.950 . S
C3060 C3061 1.327 . S
C3061 H3055 0.950 . S
C3061 C3060 1.327 . S
C3061 C3065 1.429 . S
C3062 C3045 1.574 1_455 S
C3062 H3056 0.949 . S
C3062 C3066 1.368 . S
C3063 C3044 1.429 . S
C3063 C3057 1.429 . S
C3063 C3064 1.523 . S
C3064 C3045 1.368 . S
C3064 C3058 1.368 . S
C3064 C3063 1.523 . S
C3065 C3049 1.429 . S
C3065 C3061 1.429 . S
C3065 C3066 1.523 . S
C3066 C3050 1.368 . S
C3066 C3062 1.368 . S
C3066 C3065 1.523 . S
H3067 C3042 0.950 . S
H3068 C3044 0.950 . S
H3069 C3045 0.949 . S
H3070 C3047 0.950 . S
H3071 C3049 0.950 . S
C1153 C842 1.517 . S
C1158 C14 1.517 . S
C1183 C734 1.517 . S
C1188 C50 1.517 . S
C1213 C770 1.517 . S
C1218 C86 1.517 . S
C1243 C806 1.517 . S
C1248 C122 1.517 . S
C1273 C158 1.517 . S
C1278 C626 1.517 . S
C1303 C662 1.517 . S
C1308 C194 1.517 . S
C1333 C230 1.517 . S
C1338 C698 1.517 . S
C1363 C266 1.517 . S
C1368 C590 1.517 . S
C1393 C1130 1.517 . S
C1398 C302 1.517 . S
C1423 C338 1.517 . S
C1428 C1022 1.517 . S
C1453 C374 1.517 . S
C1458 C1058 1.517 . S
C1483 C410 1.517 . S
C1488 C1094 1.517 . S
C1513 C446 1.517 . S
C1518 C914 1.517 . S
C1543 C482 1.517 . S
C1548 C950 1.517 . S
C1573 C518 1.517 . S
C1578 C986 1.517 . S
C1603 C554 1.517 . S
C1608 C878 1.517 . S
C1633 C2 1.362 . S
C1638 C434 1.362 . S
C1663 C1046 1.362 . S
C1668 C38 1.362 . S
C1693 C74 1.362 . S
C1698 C506 1.362 . S
C1723 C1118 1.362 . S
C1728 C110 1.362 . S
C1753 C290 1.362 . S
C1758 C146 1.362 . S
C1783 C182 1.362 . S
C1788 C902 1.362 . S
C1813 C218 1.362 . S
C1818 C362 1.362 . S
C1843 C254 1.362 . S
C1848 C974 1.362 . S
C1873 C758 1.362 . S
C1878 C326 1.362 . S
C1903 C830 1.362 . S
C1908 C398 1.362 . S
C1933 C470 1.362 . S
C1938 C614 1.362 . S
C1963 C686 1.362 . S
C1968 C542 1.362 . S
C1993 C1010 1.362 . S
C1998 C578 1.362 . S
C2023 C650 1.362 . S
C2028 C1082 1.362 . S
C2053 C866 1.362 . S
C2058 C722 1.362 . S
C2083 C938 1.362 . S
C2088 C794 1.362 . S
C2113 C147 1.061 . S
C2118 C3 1.061 . S
C2143 C183 1.061 . S
C2148 C39 1.061 . S
C2173 C75 1.061 . S
C2178 C219 1.061 . S
C2203 C111 1.061 . S
C2208 C255 1.061 . S
C2233 C435 1.061 . S
C2238 C291 1.061 . S
C2263 C471 1.061 . S
C2268 C327 1.061 . S
C2293 C507 1.061 . S
C2298 C363 1.061 . S
C2323 C399 1.061 . S
C2328 C543 1.061 . S
C2353 C579 1.061 . S
C2358 C723 1.061 . S
C2383 C615 1.061 . S
C2388 C759 1.061 . S
C2413 C651 1.061 . S
C2418 C795 1.061 . S
C2443 C687 1.061 . S
C2448 C831 1.061 . S
C2473 C1011 1.061 . S
C2478 C867 1.061 . S
C2503 C1047 1.061 . S
C2508 C903 1.061 . S
C2533 C1083 1.061 . S
C2538 C939 1.061 . S
C2563 C1119 1.061 . S
C2568 C975 1.061 . S
C2593 C1084 1.376 . S
C2598 C4 1.376 . S
C2623 C40 1.376 . S
C2628 C544 1.376 . S
C2653 C1012 1.376 . S
C2658 C76 1.376 . S
C2683 C112 1.375 . S
C2688 C472 1.375 . S
C2713 C940 1.376 . S
C2718 C148 1.376 . S
C2743 C184 1.375 . S
C2748 C400 1.375 . S
C2773 C220 1.376 . S
C2778 C868 1.376 . S
C2803 C328 1.376 . S
C2808 C256 1.376 . S
C2833 C292 1.376 . S
C2838 C796 1.376 . S
C2863 C724 1.376 . S
C2868 C364 1.376 . S
C2893 C436 1.376 . S
C2898 C652 1.376 . S
C2923 C508 1.376 . S
C2928 C580 1.376 . S
C2953 C1120 1.375 . S
C2958 C616 1.375 . S
C2983 C688 1.376 . S
C2988 C1048 1.376 . S
C3013 C760 1.376 . S
C3018 C976 1.376 . S
C3043 C904 1.375 . S
C3048 C832 1.375 . S
