# Generated by pormake.
# Topology dia, (4)-cn, num edge types: 1
# Building blocks:
#     Node 0, Type 0, BuildingBlock: TATPOV_clean_sbu_0, # of connection points: 4
#     Node 1, Type 0, BuildingBlock: TATPOV_clean_sbu_0, # of connection points: 4
#     Node 2, Type 0, BuildingBlock: TATPOV_clean_sbu_0, # of connection points: 4
#     Node 3, Type 0, BuildingBlock: TATPOV_clean_sbu_0, # of connection points: 4
#     Node 4, Type 0, BuildingBlock: TATPOV_clean_sbu_0, # of connection points: 4
#     Node 5, Type 0, BuildingBlock: TATPOV_clean_sbu_0, # of connection points: 4
#     Node 6, Type 0, BuildingBlock: TATPOV_clean_sbu_0, # of connection points: 4
#     Node 7, Type 0, BuildingBlock: TATPOV_clean_sbu_0, # of connection points: 4
#     Edge 8, Type (0, 0), BuildingBlock: TEMPAE_clean_linker_10, # of connection points: 2
#     Edge 9, Type (0, 0), BuildingBlock: TEMPAE_clean_linker_10, # of connection points: 2
#     Edge 10, Type (0, 0), BuildingBlock: TEMPAE_clean_linker_10, # of connection points: 2
#     Edge 11, Type (0, 0), BuildingBlock: TEMPAE_clean_linker_10, # of connection points: 2
#     Edge 12, Type (0, 0), BuildingBlock: TEMPAE_clean_linker_10, # of connection points: 2
#     Edge 13, Type (0, 0), BuildingBlock: TEMPAE_clean_linker_10, # of connection points: 2
#     Edge 14, Type (0, 0), BuildingBlock: TEMPAE_clean_linker_10, # of connection points: 2
#     Edge 15, Type (0, 0), BuildingBlock: TEMPAE_clean_linker_10, # of connection points: 2
#     Edge 16, Type (0, 0), BuildingBlock: TEMPAE_clean_linker_10, # of connection points: 2
#     Edge 17, Type (0, 0), BuildingBlock: TEMPAE_clean_linker_10, # of connection points: 2
#     Edge 18, Type (0, 0), BuildingBlock: TEMPAE_clean_linker_10, # of connection points: 2
#     Edge 19, Type (0, 0), BuildingBlock: TEMPAE_clean_linker_10, # of connection points: 2
#     Edge 20, Type (0, 0), BuildingBlock: TEMPAE_clean_linker_10, # of connection points: 2
#     Edge 21, Type (0, 0), BuildingBlock: TEMPAE_clean_linker_10, # of connection points: 2
#     Edge 22, Type (0, 0), BuildingBlock: TEMPAE_clean_linker_10, # of connection points: 2
#     Edge 23, Type (0, 0), BuildingBlock: TEMPAE_clean_linker_10, # of connection points: 2
# Relax obj value: 0.006
# Max RMSD: 0.038
# Mean RMSD: 0.038
data_MOF--net-dia--node1-TATPOV_clean_sbu_0--edge1-TEMPAE_clean_linker_10
_symmetry_space_group_name_H-M    P1
_symmetry_Int_Tables_number       1
_symmetry_cell_setting            triclinic
loop_
_symmetry_equiv_pos_as_xyz
'x, y, z'
_cell_length_a     32.702029
_cell_length_b     36.602828
_cell_length_c     36.596775
_cell_angle_alpha  92.682308
_cell_angle_beta   93.111832
_cell_angle_gamma 93.05292
loop_
_atom_site_label
_atom_site_type_symbol
_atom_site_fract_x
_atom_site_fract_y
_atom_site_fract_z
_atom_type_partial_charge
Zn0 Zn 0.18008 0.09189 0.59696 0.0
Zn1 Zn 0.13306 0.13158 0.63388 0.0
O2 O 0.14695 0.09048 0.66878 0.0
O3 O 0.17392 0.05115 0.63093 0.0
O4 O 0.09928 0.16619 0.66352 0.0
O5 O 0.22812 0.12822 0.60212 0.0
O6 O 0.18144 0.16547 0.6193 0.0
C7 C 0.16039 0.05897 0.66185 0.0
C8 C 0.10479 0.10013 0.55792 0.0
O9 O 0.09526 0.11289 0.58919 0.0
O10 O 0.14131 0.09233 0.55281 0.0
C11 C 0.07233 0.1552 0.68495 0.0
O12 O 0.06521 0.11982 0.68789 0.0
C13 C 0.21749 0.16038 0.6091 0.0
Zn14 Zn 0.81523 0.42069 0.90629 0.0
Zn15 Zn 0.85888 0.37881 0.86712 0.0
O16 O 0.83897 0.34545 0.90736 0.0
O17 O 0.81437 0.38537 0.94617 0.0
O18 O 0.89052 0.34536 0.8343 0.0
O19 O 0.76946 0.42046 0.86789 0.0
O20 O 0.81426 0.39762 0.83169 0.0
C21 C 0.82451 0.35324 0.93828 0.0
C22 C 0.89531 0.45167 0.90098 0.0
O23 O 0.90088 0.41971 0.88737 0.0
O24 O 0.85971 0.46056 0.90829 0.0
C25 C 0.92505 0.33365 0.84456 0.0
O26 O 0.94107 0.34374 0.87742 0.0
C27 C 0.77987 0.41165 0.83605 0.0
Zn28 Zn 0.67436 0.0939 0.082 0.0
Zn29 Zn 0.63188 0.13116 0.12654 0.0
O30 O 0.65322 0.08957 0.15747 0.0
O31 O 0.6767 0.05242 0.1154 0.0
O32 O 0.6017 0.16263 0.16245 0.0
O33 O 0.71994 0.13249 0.08285 0.0
O34 O 0.67558 0.1676 0.10804 0.0
C35 C 0.66768 0.05904 0.1481 0.0
C36 C 0.59339 0.10044 0.05327 0.0
O37 O 0.58865 0.11256 0.08592 0.0
O38 O 0.62871 0.0936 0.04326 0.0
C39 C 0.56489 0.15525 0.17052 0.0
O40 O 0.54494 0.12595 0.155 0.0
C41 C 0.70959 0.16395 0.09313 0.0
Zn42 Zn 0.82828 0.91695 0.40152 0.0
Zn43 Zn 0.87352 0.87579 0.3649 0.0
O44 O 0.8542 0.84313 0.40607 0.0
O45 O 0.82937 0.88416 0.4435 0.0
O46 O 0.90653 0.84275 0.33288 0.0
O47 O 0.78179 0.91323 0.36364 0.0
O48 O 0.82843 0.89215 0.32839 0.0
C49 C 0.84 0.85195 0.43685 0.0
C50 C 0.90659 0.95073 0.39576 0.0
O51 O 0.91394 0.91841 0.3843 0.0
O52 O 0.87028 0.95872 0.40152 0.0
C53 C 0.93192 0.82079 0.34573 0.0
O54 O 0.93791 0.81957 0.38144 0.0
C55 C 0.79303 0.90443 0.33209 0.0
Zn56 Zn 0.18669 0.58118 0.09394 0.0
Zn57 Zn 0.1413 0.6211 0.13413 0.0
O58 O 0.15751 0.57983 0.1678 0.0
O59 O 0.18433 0.54114 0.12914 0.0
O60 O 0.10999 0.65533 0.16634 0.0
O61 O 0.2335 0.61883 0.09572 0.0
O62 O 0.18802 0.65516 0.11711 0.0
C63 C 0.17186 0.54876 0.16053 0.0
C64 C 0.108 0.58957 0.05968 0.0
O65 O 0.10074 0.60296 0.09133 0.0
O66 O 0.14381 0.58094 0.05272 0.0
C67 C 0.07508 0.64661 0.17814 0.0
O68 O 0.0579 0.61394 0.16908 0.0
C69 C 0.22293 0.65072 0.10412 0.0
Zn70 Zn 0.32026 0.40659 0.41789 0.0
Zn71 Zn 0.36865 0.36854 0.37984 0.0
O72 O 0.35307 0.33445 0.4211 0.0
O73 O 0.32462 0.37278 0.45899 0.0
O74 O 0.403 0.33845 0.34607 0.0
O75 O 0.27363 0.40145 0.37998 0.0
O76 O 0.32144 0.38288 0.34463 0.0
C77 C 0.33835 0.34176 0.45201 0.0
C78 C 0.39653 0.44479 0.41068 0.0
O79 O 0.40618 0.41335 0.3985 0.0
O80 O 0.35988 0.45016 0.41787 0.0
C81 C 0.42421 0.31211 0.35606 0.0
O82 O 0.42533 0.30366 0.39058 0.0
C83 C 0.28537 0.39363 0.34836 0.0
Zn84 Zn 0.30669 0.90666 0.91481 0.0
Zn85 Zn 0.35431 0.87017 0.87387 0.0
O86 O 0.33988 0.83406 0.9136 0.0
O87 O 0.31129 0.87019 0.95353 0.0
O88 O 0.38808 0.84102 0.83896 0.0
O89 O 0.25992 0.90413 0.87703 0.0
O90 O 0.30668 0.88634 0.84014 0.0
C91 C 0.32541 0.8397 0.94489 0.0
C92 C 0.38349 0.94461 0.90869 0.0
O93 O 0.3924 0.91389 0.89417 0.0
O94 O 0.34715 0.94982 0.91703 0.0
C95 C 0.42007 0.82529 0.84965 0.0
O96 O 0.43222 0.82833 0.88453 0.0
C97 C 0.27097 0.8975 0.84494 0.0
Zn98 Zn 0.67651 0.60408 0.58496 0.0
Zn99 Zn 0.63324 0.64318 0.62578 0.0
O100 O 0.65157 0.60239 0.65933 0.0
O101 O 0.67468 0.56315 0.61902 0.0
O102 O 0.60113 0.67629 0.6585 0.0
O103 O 0.72399 0.64081 0.58721 0.0
O104 O 0.6792 0.67809 0.60818 0.0
C105 C 0.66466 0.57099 0.65119 0.0
C106 C 0.59813 0.61089 0.55189 0.0
O107 O 0.59182 0.6236 0.58403 0.0
O108 O 0.634 0.60389 0.54354 0.0
C109 C 0.57073 0.66396 0.67541 0.0
O110 O 0.55965 0.6289 0.67125 0.0
C111 C 0.71413 0.67293 0.59549 0.0
C112 C 0.33937 0.32406 0.51662 0.0
C113 C 0.33412 0.31377 0.47922 0.0
C114 C 0.32819 0.29968 0.5432 0.0
C115 C 0.30995 0.26483 0.53188 0.0
C116 C 0.30695 0.25355 0.49416 0.0
C117 C 0.31974 0.2781 0.46822 0.0
C118 C 0.33351 0.3121 0.58318 0.0
C119 C 0.28717 0.21673 0.48097 0.0
C120 C 0.28564 0.18744 0.5936 0.0
C121 C 0.24371 0.19141 0.59787 0.0
C122 C 0.30873 0.21287 0.57451 0.0
C123 C 0.28898 0.24215 0.55853 0.0
C124 C 0.2474 0.2477 0.56505 0.0
C125 C 0.22542 0.2225 0.58517 0.0
C126 C 0.35346 0.20702 0.56949 0.0
C127 C 0.2251 0.27847 0.54823 0.0
H128 H 0.351 0.35165 0.52503 0.0
H129 H 0.3156 0.27032 0.43924 0.0
H130 H 0.30346 0.31936 0.59326 0.0
H131 H 0.34483 0.28979 0.59988 0.0
H132 H 0.35522 0.3365 0.58768 0.0
H133 H 0.28974 0.2112 0.4511 0.0
H134 H 0.30144 0.19451 0.49583 0.0
H135 H 0.25417 0.21571 0.48678 0.0
H136 H 0.29995 0.16354 0.60371 0.0
H137 H 0.19299 0.22561 0.58831 0.0
H138 H 0.37195 0.2334 0.57255 0.0
H139 H 0.35707 0.19519 0.54147 0.0
H140 H 0.36599 0.18795 0.58946 0.0
H141 H 0.24204 0.30513 0.55524 0.0
H142 H 0.19342 0.28003 0.55749 0.0
H143 H 0.2234 0.27438 0.51792 0.0
C144 C 0.66525 0.50655 0.66932 0.0
C145 C 0.67076 0.54403 0.67919 0.0
C146 C 0.67658 0.48019 0.69391 0.0
C147 C 0.69508 0.49178 0.7286 0.0
C148 C 0.69892 0.5296 0.7393 0.0
C149 C 0.68608 0.55534 0.71454 0.0
C150 C 0.67058 0.4401 0.68208 0.0
C151 C 0.71906 0.54302 0.77594 0.0
C152 C 0.71393 0.43046 0.80742 0.0
C153 C 0.75559 0.42422 0.80447 0.0
C154 C 0.69275 0.45025 0.78129 0.0
C155 C 0.7142 0.46493 0.75231 0.0
C156 C 0.75553 0.45664 0.74793 0.0
C157 C 0.77558 0.43587 0.77386 0.0
C158 C 0.64824 0.45731 0.78599 0.0
C159 C 0.77958 0.47213 0.71755 0.0
H160 H 0.65291 0.49786 0.642 0.0
H161 H 0.69045 0.58437 0.722 0.0
H162 H 0.70064 0.42906 0.67638 0.0
H163 H 0.65759 0.42421 0.70424 0.0
H164 H 0.64995 0.43556 0.65695 0.0
H165 H 0.71788 0.57314 0.78073 0.0
H166 H 0.70396 0.52933 0.79844 0.0
H167 H 0.75167 0.53592 0.77735 0.0
H168 H 0.69836 0.42119 0.831 0.0
H169 H 0.80786 0.43128 0.77165 0.0
H170 H 0.63026 0.45359 0.75935 0.0
H171 H 0.64567 0.48604 0.79626 0.0
H172 H 0.63432 0.43889 0.80578 0.0
H173 H 0.76302 0.46564 0.6906 0.0
H174 H 0.81067 0.46137 0.71676 0.0
H175 H 0.78292 0.50242 0.72146 0.0
C176 C 0.52254 0.07298 0.04201 0.0
C177 C 0.55786 0.08911 0.02822 0.0
C178 C 0.4929 0.05361 0.01846 0.0
C179 C 0.49844 0.05134 0.98029 0.0
C180 C 0.53209 0.07065 0.96601 0.0
C181 C 0.56181 0.08891 0.99026 0.0
C182 C 0.45752 0.0331 0.03474 0.0
C183 C 0.53816 0.07001 0.92539 0.0
C184 C 0.45462 0.96294 0.93238 0.0
C185 C 0.41573 0.973 0.9202 0.0
C186 C 0.48263 0.9887 0.95079 0.0
C187 C 0.47166 0.02544 0.95616 0.0
C188 C 0.43373 0.03631 0.94118 0.0
C189 C 0.4059 0.00978 0.92377 0.0
C190 C 0.52275 0.97602 0.96668 0.0
C191 C 0.42161 0.07546 0.94524 0.0
H192 H 0.51965 0.07298 0.07139 0.0
H193 H 0.58906 0.10174 0.97963 0.0
H194 H 0.42803 0.03936 0.02066 0.0
H195 H 0.46087 0.00318 0.03073 0.0
H196 H 0.456 0.03988 0.06453 0.0
H197 H 0.56139 0.09143 0.91838 0.0
H198 H 0.54867 0.04291 0.91631 0.0
H199 H 0.50886 0.07405 0.90975 0.0
H200 H 0.4621 0.93446 0.92978 0.0
H201 H 0.37585 0.01759 0.91401 0.0
H202 H 0.52344 0.97893 0.99704 0.0
H203 H 0.54883 0.99331 0.95767 0.0
H204 H 0.5274 0.94697 0.95855 0.0
H205 H 0.41405 0.08173 0.97396 0.0
H206 H 0.39446 0.08053 0.92698 0.0
H207 H 0.4474 0.0947 0.93905 0.0
C208 C 0.98062 0.77111 0.33508 0.0
C209 C 0.95374 0.7962 0.32078 0.0
C210 C 0.00081 0.74714 0.31191 0.0
C211 C 0.99407 0.74821 0.27342 0.0
C212 C 0.96725 0.77367 0.25878 0.0
C213 C 0.94742 0.79731 0.28259 0.0
C214 C 0.02914 0.72043 0.32866 0.0
C215 C 0.95927 0.77575 0.21793 0.0
C216 C 0.0729 0.70742 0.2127 0.0
C217 C 0.05419 0.67283 0.20215 0.0
C218 C 0.05365 0.73225 0.23571 0.0
C219 C 0.01468 0.72237 0.24853 0.0
C220 C 0.99555 0.68759 0.23784 0.0
C221 C 0.0155 0.66329 0.21484 0.0
C222 C 0.07512 0.76903 0.24646 0.0
C223 C 0.95401 0.67598 0.25086 0.0
H224 H 0.98577 0.76998 0.3645 0.0
H225 H 0.92677 0.81658 0.27121 0.0
H226 H 0.01793 0.69195 0.32036 0.0
H227 H 0.06026 0.72459 0.31838 0.0
H228 H 0.03157 0.72337 0.35906 0.0
H229 H 0.93808 0.79742 0.21087 0.0
H230 H 0.98856 0.78134 0.20475 0.0
H231 H 0.94581 0.74905 0.20607 0.0
H232 H 0.10277 0.71512 0.20308 0.0
H233 H 0.00071 0.63669 0.20687 0.0
H234 H 0.08031 0.77205 0.27669 0.0
H235 H 0.05552 0.79133 0.23799 0.0
H236 H 0.10513 0.77273 0.23389 0.0
H237 H 0.95539 0.67613 0.28122 0.0
H238 H 0.94307 0.64818 0.2398 0.0
H239 H 0.93113 0.69574 0.24245 0.0
C240 C 0.20425 0.91616 0.81735 0.0
C241 C 0.24588 0.91009 0.81378 0.0
C242 C 0.18258 0.93624 0.79175 0.0
C243 C 0.20349 0.95137 0.76268 0.0
C244 C 0.24469 0.94313 0.75757 0.0
C245 C 0.26521 0.92208 0.78293 0.0
C246 C 0.13817 0.94314 0.79715 0.0
C247 C 0.26821 0.95897 0.72702 0.0
C248 C 0.15629 0.99452 0.68 0.0
C249 C 0.16315 0.03185 0.69008 0.0
C250 C 0.16589 0.96771 0.70466 0.0
C251 C 0.18416 0.97866 0.73961 0.0
C252 C 0.1888 0.01639 0.75066 0.0
C253 C 0.1776 0.04263 0.7258 0.0
C254 C 0.15889 0.92779 0.69246 0.0
C255 C 0.20867 0.02916 0.78759 0.0
H256 H 0.1891 0.90662 0.84105 0.0
H257 H 0.2974 0.91756 0.7801 0.0
H258 H 0.13581 0.97146 0.8087 0.0
H259 H 0.1199 0.94056 0.77061 0.0
H260 H 0.12443 0.92387 0.81625 0.0
H261 H 0.2994 0.9485 0.72586 0.0
H262 H 0.25139 0.95245 0.70019 0.0
H263 H 0.27126 0.98927 0.73104 0.0
H264 H 0.14462 0.98629 0.65237 0.0
H265 H 0.18299 0.07155 0.73341 0.0
H266 H 0.14637 0.91174 0.71471 0.0
H267 H 0.18852 0.91646 0.68574 0.0
H268 H 0.13749 0.92389 0.66778 0.0
H269 H 0.19351 0.01498 0.80975 0.0
H270 H 0.20738 0.0592 0.79291 0.0
H271 H 0.24132 0.02216 0.78894 0.0
C272 C 0.96651 0.46298 0.9277 0.0
C273 C 0.93029 0.4769 0.91347 0.0
C274 C 0.99604 0.48597 0.94787 0.0
C275 C 0.98944 0.52379 0.95293 0.0
C276 C 0.9547 0.53846 0.93566 0.0
C277 C 0.92515 0.51469 0.91651 0.0
C278 C 0.03264 0.46927 0.96613 0.0
C279 C 0.94743 0.57882 0.93931 0.0
C280 C 0.03638 0.56653 0.04262 0.0
C281 C 0.07454 0.5799 0.03193 0.0
C282 C 0.00744 0.54955 0.01674 0.0
C283 C 0.01671 0.54689 0.97934 0.0
C284 C 0.05376 0.56328 0.96809 0.0
C285 C 0.08258 0.57915 0.99467 0.0
C286 C 0.96832 0.53209 0.0298 0.0
C287 C 0.06401 0.56217 0.92834 0.0
H288 H 0.97036 0.43373 0.9255 0.0
H289 H 0.89721 0.52547 0.90515 0.0
H290 H 0.06145 0.48433 0.95964 0.0
H291 H 0.03057 0.47153 0.99632 0.0
H292 H 0.03457 0.43992 0.95757 0.0
H293 H 0.92316 0.58665 0.91919 0.0
H294 H 0.93774 0.58576 0.96726 0.0
H295 H 0.97606 0.59551 0.93545 0.0
H296 H 0.03032 0.56696 0.07147 0.0
H297 H 0.11205 0.58987 0.98642 0.0
H298 H 0.96824 0.5019 0.02513 0.0
H299 H 0.94132 0.54153 0.014 0.0
H300 H 0.96475 0.53844 0.05941 0.0
H301 H 0.07196 0.53408 0.91978 0.0
H302 H 0.0904 0.58139 0.92352 0.0
H303 H 0.03719 0.56908 0.91061 0.0
C304 C 0.44577 0.29953 0.29196 0.0
C305 C 0.44629 0.29034 0.32881 0.0
C306 C 0.46558 0.27853 0.2658 0.0
C307 C 0.4864 0.24748 0.27663 0.0
C308 C 0.48738 0.23827 0.31382 0.0
C309 C 0.4674 0.25979 0.33942 0.0
C310 C 0.46389 0.28935 0.22646 0.0
C311 C 0.50918 0.20539 0.32652 0.0
C312 C 0.50354 0.17197 0.20476 0.0
C313 C 0.54478 0.1792 0.19734 0.0
C314 C 0.48415 0.1941 0.23025 0.0
C315 C 0.50649 0.2242 0.24898 0.0
C316 C 0.54808 0.23175 0.24154 0.0
C317 C 0.56669 0.20923 0.21581 0.0
C318 C 0.43974 0.18515 0.23727 0.0
C319 C 0.573 0.26352 0.26094 0.0
H320 H 0.42963 0.32308 0.28344 0.0
H321 H 0.46803 0.25239 0.36776 0.0
H322 H 0.49541 0.2938 0.21715 0.0
H323 H 0.44839 0.26689 0.20858 0.0
H324 H 0.44725 0.3147 0.2226 0.0
H325 H 0.50783 0.20231 0.35649 0.0
H326 H 0.49518 0.18011 0.31199 0.0
H327 H 0.54183 0.20774 0.31969 0.0
H328 H 0.48627 0.14893 0.19063 0.0
H329 H 0.59855 0.21508 0.21034 0.0
H330 H 0.42127 0.20901 0.23156 0.0
H331 H 0.43682 0.17937 0.26654 0.0
H332 H 0.4265 0.16108 0.22015 0.0
H333 H 0.55808 0.28949 0.25596 0.0
H334 H 0.60483 0.26599 0.25181 0.0
H335 H 0.57434 0.26016 0.29095 0.0
C336 C 0.81758 0.7892 0.45342 0.0
C337 C 0.83296 0.82463 0.46431 0.0
C338 C 0.80326 0.7653 0.47933 0.0
C339 C 0.80565 0.77694 0.51694 0.0
C340 C 0.82437 0.81162 0.52824 0.0
C341 C 0.83718 0.83535 0.50166 0.0
C342 C 0.783 0.72864 0.46619 0.0
C343 C 0.82889 0.82441 0.56815 0.0
C344 C 0.72126 0.73464 0.57052 0.0
C345 C 0.73988 0.70389 0.58361 0.0
C346 C 0.74303 0.75972 0.55009 0.0
C347 C 0.78467 0.75435 0.54364 0.0
C348 C 0.80465 0.72534 0.55987 0.0
C349 C 0.7818 0.70004 0.57927 0.0
C350 C 0.72051 0.79018 0.53293 0.0
C351 C 0.84941 0.71963 0.55483 0.0
H352 H 0.81421 0.78108 0.42449 0.0
H353 H 0.84955 0.86273 0.51002 0.0
H354 H 0.79696 0.70631 0.48111 0.0
H355 H 0.75001 0.72797 0.472 0.0
H356 H 0.78552 0.72299 0.43633 0.0
H357 H 0.85012 0.84912 0.57276 0.0
H358 H 0.79852 0.83121 0.57782 0.0
H359 H 0.8404 0.80239 0.58514 0.0
H360 H 0.68879 0.73752 0.57365 0.0
H361 H 0.79629 0.67636 0.58966 0.0
H362 H 0.71854 0.78559 0.50267 0.0
H363 H 0.73745 0.81695 0.5394 0.0
H364 H 0.68892 0.79184 0.54239 0.0
H365 H 0.85315 0.70838 0.52661 0.0
H366 H 0.86196 0.70023 0.57443 0.0
H367 H 0.86783 0.74603 0.5584 0.0
C368 C 0.171 0.4844 0.17909 0.0
C369 C 0.17646 0.5219 0.18883 0.0
C370 C 0.1813 0.45813 0.20414 0.0
C371 C 0.19888 0.46985 0.23914 0.0
C372 C 0.20241 0.50772 0.24972 0.0
C373 C 0.19049 0.53336 0.2245 0.0
C374 C 0.17549 0.41801 0.19243 0.0
C375 C 0.22157 0.52131 0.28667 0.0
C376 C 0.21862 0.40976 0.3188 0.0
C377 C 0.26056 0.4045 0.31626 0.0
C378 C 0.19698 0.42857 0.29213 0.0
C379 C 0.21823 0.44327 0.26304 0.0
C380 C 0.2598 0.43568 0.25895 0.0
C381 C 0.28031 0.41585 0.28537 0.0
C382 C 0.1522 0.43475 0.29646 0.0
C383 C 0.28368 0.45116 0.22844 0.0
H384 H 0.15962 0.47563 0.15151 0.0
H385 H 0.19477 0.5624 0.23186 0.0
H386 H 0.20557 0.40716 0.18646 0.0
H387 H 0.16284 0.40205 0.21469 0.0
H388 H 0.15467 0.41337 0.16744 0.0
H389 H 0.21997 0.5514 0.29137 0.0
H390 H 0.20609 0.50749 0.30889 0.0
H391 H 0.25428 0.51453 0.2887 0.0
H392 H 0.20317 0.40067 0.34251 0.0
H393 H 0.31275 0.41194 0.28334 0.0
H394 H 0.13458 0.43126 0.26963 0.0
H395 H 0.14893 0.46321 0.30726 0.0
H396 H 0.13845 0.4157 0.31575 0.0
H397 H 0.26738 0.44405 0.20149 0.0
H398 H 0.31504 0.44095 0.22796 0.0
H399 H 0.28634 0.4815 0.23195 0.0
C400 C 0.80246 0.2897 0.95264 0.0
C401 C 0.81747 0.32492 0.96471 0.0
C402 C 0.78937 0.26442 0.97777 0.0
C403 C 0.79269 0.27443 0.01576 0.0
C404 C 0.81068 0.30908 0.02813 0.0
C405 C 0.82221 0.33421 0.00236 0.0
C406 C 0.76972 0.22787 0.96352 0.0
C407 C 0.81613 0.32018 0.06843 0.0
C408 C 0.7128 0.22673 0.07038 0.0
C409 C 0.73335 0.19614 0.08136 0.0
C410 C 0.73244 0.25343 0.05026 0.0
C411 C 0.7739 0.24985 0.04201 0.0
C412 C 0.79586 0.22084 0.05605 0.0
C413 C 0.77509 0.19392 0.07513 0.0
C414 C 0.70783 0.28376 0.03536 0.0
C415 C 0.84053 0.21698 0.04904 0.0
H416 H 0.79868 0.2827 0.92349 0.0
H417 H 0.83431 0.36144 0.01162 0.0
H418 H 0.78521 0.20523 0.97664 0.0
H419 H 0.73713 0.22588 0.97063 0.0
H420 H 0.77089 0.22382 0.93332 0.0
H421 H 0.83609 0.34562 0.0736 0.0
H422 H 0.78581 0.32496 0.07941 0.0
H423 H 0.82964 0.29797 0.08392 0.0
H424 H 0.68044 0.22833 0.07493 0.0
H425 H 0.79105 0.17033 0.08387 0.0
H426 H 0.70456 0.2804 0.00502 0.0
H427 H 0.72393 0.31081 0.04235 0.0
H428 H 0.67671 0.28388 0.0461 0.0
H429 H 0.84339 0.20754 0.02009 0.0
H430 H 0.85474 0.1969 0.06695 0.0
H431 H 0.85803 0.24377 0.05352 0.0
C432 C 0.78803 0.92803 0.26967 0.0
C433 C 0.7683 0.91532 0.30001 0.0
C434 C 0.76694 0.94768 0.24342 0.0
C435 C 0.72491 0.95371 0.2472 0.0
C436 C 0.70392 0.93774 0.27579 0.0
C437 C 0.72607 0.91915 0.30226 0.0
C438 C 0.79052 0.96463 0.21351 0.0
C439 C 0.65877 0.94234 0.27982 0.0
C440 C 0.69111 0.04308 0.21085 0.0
C441 C 0.67643 0.0318 0.1753 0.0
C442 C 0.70579 0.0176 0.23508 0.0
C443 C 0.7045 0.97998 0.22366 0.0
C444 C 0.68691 0.96823 0.18867 0.0
C445 C 0.67369 0.99441 0.16462 0.0
C446 C 0.72491 0.03123 0.27205 0.0
C447 C 0.68363 0.92825 0.17608 0.0
H448 H 0.82073 0.92529 0.26801 0.0
H449 H 0.71073 0.90903 0.32563 0.0
H450 H 0.7745 0.95799 0.18635 0.0
H451 H 0.79233 0.9949 0.21791 0.0
H452 H 0.82221 0.95518 0.21287 0.0
H453 H 0.64569 0.92297 0.29916 0.0
H454 H 0.65416 0.97066 0.29034 0.0
H455 H 0.64144 0.9381 0.2529 0.0
H456 H 0.69336 0.07202 0.21896 0.0
H457 H 0.66185 0.98571 0.13716 0.0
H458 H 0.75792 0.02544 0.27375 0.0
H459 H 0.71018 0.01662 0.29417 0.0
H460 H 0.72219 0.06113 0.27719 0.0
H461 H 0.71456 0.91893 0.17069 0.0
H462 H 0.66366 0.9232 0.15061 0.0
H463 H 0.67126 0.91128 0.19773 0.0
C464 C 0.97635 0.96585 0.42445 0.0
C465 C 0.94012 0.97765 0.40796 0.0
C466 C 0.00386 0.99071 0.44471 0.0
C467 C 0.99521 0.02824 0.44759 0.0
C468 C 0.96071 0.04074 0.42794 0.0
C469 C 0.93319 0.01516 0.40871 0.0
C470 C 0.0403 0.9763 0.46548 0.0
C471 C 0.95134 0.08071 0.42923 0.0
C472 C 0.03462 0.07524 0.5378 0.0
C473 C 0.07311 0.08944 0.52877 0.0
C474 C 0.00789 0.05671 0.51105 0.0
C475 C 0.01973 0.05327 0.4744 0.0
C476 C 0.05692 0.0706 0.4646 0.0
C477 C 0.08351 0.08809 0.49207 0.0
C478 C 0.9685 0.03837 0.5226 0.0
C479 C 0.06985 0.06869 0.42561 0.0
H480 H 0.98159 0.93683 0.42402 0.0
H481 H 0.90526 0.02431 0.39561 0.0
H482 H 0.06884 0.99224 0.45981 0.0
H483 H 0.03628 0.97951 0.49536 0.0
H484 H 0.0442 0.94691 0.45831 0.0
H485 H 0.92816 0.08675 0.40734 0.0
H486 H 0.9392 0.08827 0.45611 0.0
H487 H 0.97958 0.0983 0.42639 0.0
H488 H 0.0267 0.07614 0.56621 0.0
H489 H 0.11322 0.09943 0.48506 0.0
H490 H 0.97005 0.00818 0.51927 0.0
H491 H 0.9421 0.04618 0.50492 0.0
H492 H 0.96263 0.04561 0.5516 0.0
H493 H 0.08011 0.04092 0.41875 0.0
H494 H 0.09548 0.08896 0.42144 0.0
H495 H 0.0437 0.07359 0.40618 0.0
C496 C 0.98503 0.29605 0.8314 0.0
C497 C 0.94669 0.30844 0.82008 0.0
C498 C 0.0056 0.27171 0.80894 0.0
C499 C 0.98746 0.25933 0.77423 0.0
C500 C 0.94893 0.27194 0.76248 0.0
C501 C 0.92904 0.29633 0.7855 0.0
C502 C 0.04665 0.25901 0.8225 0.0
C503 C 0.92854 0.25942 0.7257 0.0
C504 C 0.05691 0.21979 0.70373 0.0
C505 C 0.04994 0.18193 0.70709 0.0
C506 C 0.03652 0.24526 0.7251 0.0
C507 C 0.00852 0.23266 0.75056 0.0
C508 C 0.00113 0.19451 0.75388 0.0
C509 C 0.02185 0.16966 0.73212 0.0
C510 C 0.04522 0.28568 0.72066 0.0
C511 C 0.97157 0.17991 0.7807 0.0
H512 H -0.00097 0.30524 0.85799 0.0
H513 H 0.89947 0.30571 0.77643 0.0
H514 H 0.04483 0.2288 0.8243 0.0
H515 H 0.07022 0.2658 0.80283 0.0
H516 H 0.05696 0.27167 0.84986 0.0
H517 H 0.89894 0.27228 0.72027 0.0
H518 H 0.94912 0.26612 0.70354 0.0
H519 H 0.92275 0.22923 0.72436 0.0
H520 H 0.07848 0.2296 0.68447 0.0
H521 H 0.0162 0.14052 0.73499 0.0
H522 H 0.05808 0.29898 0.74696 0.0
H523 H 0.0163 0.29886 0.71342 0.0
H524 H 0.06718 0.29105 0.69916 0.0
H525 H 0.98198 0.18975 0.80899 0.0
H526 H 0.96869 0.1495 0.77958 0.0
H527 H 0.94077 0.19037 0.77495 0.0
C528 C 0.56023 0.72601 0.70482 0.0
C529 C 0.54846 0.68856 0.69999 0.0
C530 C 0.53973 0.74932 0.72846 0.0
C531 C 0.50666 0.73491 0.74781 0.0
C532 C 0.49447 0.6972 0.74287 0.0
C533 C 0.51547 0.67454 0.71906 0.0
C534 C 0.55366 0.78935 0.73292 0.0
C535 C 0.45939 0.68071 0.76296 0.0
C536 C 0.47761 0.78512 0.83539 0.0
C537 C 0.44281 0.80301 0.82331 0.0
C538 C 0.49888 0.76324 0.81107 0.0
C539 C 0.48511 0.75906 0.77366 0.0
C540 C 0.45028 0.77734 0.76119 0.0
C541 C 0.42957 0.79906 0.78612 0.0
C542 C 0.53587 0.74425 0.82552 0.0
C543 C 0.43462 0.77365 0.72154 0.0
H544 H 0.58563 0.73716 0.69022 0.0
H545 H 0.50606 0.64569 0.71556 0.0
H546 H 0.52777 0.80656 0.72574 0.0
H547 H 0.56363 0.79649 0.76196 0.0
H548 H 0.57942 0.79643 0.7155 0.0
H549 H 0.45333 0.65102 0.75576 0.0
H550 H 0.46627 0.68438 0.79297 0.0
H551 H 0.43104 0.69505 0.75649 0.0
H552 H 0.48818 0.78798 0.86402 0.0
H553 H 0.40278 0.81277 0.77644 0.0
H554 H 0.56302 0.75225 0.81018 0.0
H555 H 0.53037 0.71414 0.82127 0.0
H556 H 0.54318 0.7509 0.85516 0.0
H557 H 0.45928 0.78231 0.70361 0.0
H558 H 0.40775 0.79031 0.71599 0.0
H559 H 0.42565 0.74454 0.71382 0.0
C560 C 0.22731 0.71376 0.08196 0.0
C561 C 0.24721 0.68236 0.09161 0.0
C562 C 0.24647 0.73996 0.06099 0.0
C563 C 0.28694 0.73512 0.05044 0.0
C564 C 0.30862 0.70538 0.06321 0.0
C565 C 0.28825 0.67897 0.08326 0.0
C566 C 0.22215 0.77119 0.04766 0.0
C567 C 0.35237 0.70019 0.05381 0.0
C568 C 0.30775 0.7754 0.95954 0.0
C569 C 0.32309 0.81064 0.9711 0.0
C570 C 0.29771 0.74964 0.98527 0.0
C571 C 0.30454 0.75927 0.0232 0.0
C572 C 0.32352 0.79378 0.03472 0.0
C573 C 0.33183 0.8194 0.00848 0.0
C574 C 0.27691 0.71326 0.97195 0.0
C575 C 0.33285 0.80445 0.07477 0.0
H576 H 0.19556 0.71646 0.08825 0.0
H577 H 0.30385 0.65485 0.09099 0.0
H578 H 0.23936 0.79777 0.05442 0.0
H579 H 0.21718 0.76833 0.01739 0.0
H580 H 0.19177 0.77198 0.05979 0.0
H581 H 0.36718 0.68023 0.07148 0.0
H582 H 0.35293 0.68983 0.02488 0.0
H583 H 0.37079 0.72663 0.05667 0.0
H584 H 0.3009 0.76886 0.93057 0.0
H585 H 0.34416 0.8467 0.01724 0.0
H586 H 0.2449 0.7117 0.98066 0.0
H587 H 0.29283 0.69044 0.98429 0.0
H588 H 0.27617 0.70917 0.94164 0.0
H589 H 0.30402 0.8106 0.08784 0.0
H590 H 0.35432 0.82906 0.07868 0.0
H591 H 0.34637 0.78158 0.08923 0.0
C592 C 0.41768 0.51084 0.42088 0.0
C593 C 0.4281 0.47416 0.4208 0.0
C594 C 0.44449 0.53884 0.43711 0.0
C595 C 0.48193 0.52962 0.4545 0.0
C596 C 0.49363 0.49287 0.45252 0.0
C597 C 0.46668 0.46555 0.4352 0.0
C598 C 0.43167 0.57786 0.43749 0.0
C599 C 0.53326 0.48195 0.47101 0.0
C600 C 0.5697 0.59591 0.4883 0.0
C601 C 0.56375 0.59839 0.52597 0.0
C602 C 0.54137 0.57598 0.46395 0.0
C603 C 0.50706 0.55738 0.47793 0.0
C604 C 0.49936 0.5621 0.51555 0.0
C605 C 0.52765 0.58304 0.53912 0.0
C606 C 0.54972 0.57275 0.4238 0.0
C607 C 0.46317 0.54248 0.53153 0.0
H608 H 0.3879 0.51751 0.40937 0.0
H609 H 0.47461 0.43716 0.43527 0.0
H610 H 0.42215 0.58606 0.46519 0.0
H611 H 0.45769 0.59685 0.43127 0.0
H612 H 0.40558 0.58125 0.41742 0.0
H613 H 0.53879 0.45261 0.46523 0.0
H614 H 0.55957 0.49886 0.46187 0.0
H615 H 0.5324 0.48694 0.5011 0.0
H616 H 0.59752 0.60814 0.4781 0.0
H617 H 0.52316 0.5848 0.56828 0.0
H618 H 0.52112 0.57502 0.40651 0.0
H619 H 0.56153 0.5455 0.41724 0.0
H620 H 0.57283 0.59409 0.41638 0.0
H621 H 0.43436 0.54748 0.51561 0.0
H622 H 0.45989 0.55123 0.56065 0.0
H623 H 0.46702 0.51251 0.52983 0.0
loop_
_geom_bond_atom_site_label_1
_geom_bond_atom_site_label_2
_geom_bond_distance
_geom_bond_site_symmetry_2
_ccdc_geom_bond_type
Zn0 O3 2.031 . S
Zn0 O5 2.049 . S
Zn0 O10 2.067 . S
Zn1 O2 1.962 . S
Zn1 O4 1.986 . S
Zn1 O6 1.996 . S
Zn1 O9 1.943 . S
O2 Zn1 1.962 . S
O2 C7 1.254 . S
O3 Zn0 2.031 . S
O3 C7 1.269 . S
O4 Zn1 1.986 . S
O4 C11 1.262 . S
O5 Zn0 2.049 . S
O5 C13 1.260 . S
O6 Zn1 1.996 . S
O6 C13 1.257 . S
C7 O2 1.254 . S
C7 O3 1.269 . S
C8 O9 1.249 . S
C8 O10 1.270 . S
O9 Zn1 1.943 . S
O9 C8 1.249 . S
O10 Zn0 2.067 . S
O10 C8 1.270 . S
C11 O4 1.262 . S
C11 O12 1.232 . S
O12 C11 1.232 . S
C13 O5 1.260 . S
C13 O6 1.257 . S
Zn14 O17 2.031 . S
Zn14 O19 2.049 . S
Zn14 O24 2.067 . S
Zn15 O16 1.962 . S
Zn15 O18 1.986 . S
Zn15 O20 1.996 . S
Zn15 O23 1.943 . S
O16 Zn15 1.962 . S
O16 C21 1.254 . S
O17 Zn14 2.031 . S
O17 C21 1.269 . S
O18 Zn15 1.986 . S
O18 C25 1.262 . S
O19 Zn14 2.049 . S
O19 C27 1.260 . S
O20 Zn15 1.996 . S
O20 C27 1.257 . S
C21 O16 1.254 . S
C21 O17 1.269 . S
C22 O23 1.249 . S
C22 O24 1.270 . S
O23 Zn15 1.943 . S
O23 C22 1.249 . S
O24 Zn14 2.067 . S
O24 C22 1.270 . S
C25 O18 1.262 . S
C25 O26 1.232 . S
O26 C25 1.232 . S
C27 O19 1.260 . S
C27 O20 1.257 . S
Zn28 O31 2.031 . S
Zn28 O33 2.049 . S
Zn28 O38 2.067 . S
Zn29 O30 1.962 . S
Zn29 O32 1.986 . S
Zn29 O34 1.996 . S
Zn29 O37 1.943 . S
O30 Zn29 1.962 . S
O30 C35 1.254 . S
O31 Zn28 2.031 . S
O31 C35 1.269 . S
O32 Zn29 1.986 . S
O32 C39 1.262 . S
O33 Zn28 2.049 . S
O33 C41 1.260 . S
O34 Zn29 1.996 . S
O34 C41 1.257 . S
C35 O30 1.254 . S
C35 O31 1.269 . S
C36 O37 1.249 . S
C36 O38 1.270 . S
O37 Zn29 1.943 . S
O37 C36 1.249 . S
O38 Zn28 2.067 . S
O38 C36 1.270 . S
C39 O32 1.262 . S
C39 O40 1.232 . S
O40 C39 1.232 . S
C41 O33 1.260 . S
C41 O34 1.257 . S
Zn42 O45 2.031 . S
Zn42 O47 2.049 . S
Zn42 O52 2.067 . S
Zn43 O44 1.962 . S
Zn43 O46 1.986 . S
Zn43 O48 1.996 . S
Zn43 O51 1.943 . S
O44 Zn43 1.962 . S
O44 C49 1.254 . S
O45 Zn42 2.031 . S
O45 C49 1.269 . S
O46 Zn43 1.986 . S
O46 C53 1.262 . S
O47 Zn42 2.049 . S
O47 C55 1.260 . S
O48 Zn43 1.996 . S
O48 C55 1.257 . S
C49 O44 1.254 . S
C49 O45 1.269 . S
C50 O51 1.249 . S
C50 O52 1.270 . S
O51 Zn43 1.943 . S
O51 C50 1.249 . S
O52 Zn42 2.067 . S
O52 C50 1.270 . S
C53 O46 1.262 . S
C53 O54 1.232 . S
O54 C53 1.232 . S
C55 O47 1.260 . S
C55 O48 1.257 . S
Zn56 O59 2.031 . S
Zn56 O61 2.049 . S
Zn56 O66 2.067 . S
Zn57 O58 1.962 . S
Zn57 O60 1.986 . S
Zn57 O62 1.996 . S
Zn57 O65 1.943 . S
O58 Zn57 1.962 . S
O58 C63 1.254 . S
O59 Zn56 2.031 . S
O59 C63 1.269 . S
O60 Zn57 1.986 . S
O60 C67 1.262 . S
O61 Zn56 2.049 . S
O61 C69 1.260 . S
O62 Zn57 1.996 . S
O62 C69 1.257 . S
C63 O58 1.254 . S
C63 O59 1.269 . S
C64 O65 1.249 . S
C64 O66 1.270 . S
O65 Zn57 1.943 . S
O65 C64 1.249 . S
O66 Zn56 2.067 . S
O66 C64 1.270 . S
C67 O60 1.262 . S
C67 O68 1.232 . S
O68 C67 1.232 . S
C69 O61 1.260 . S
C69 O62 1.257 . S
Zn70 O73 2.031 . S
Zn70 O75 2.049 . S
Zn70 O80 2.067 . S
Zn71 O72 1.962 . S
Zn71 O74 1.986 . S
Zn71 O76 1.996 . S
Zn71 O79 1.943 . S
O72 Zn71 1.962 . S
O72 C77 1.254 . S
O73 Zn70 2.031 . S
O73 C77 1.269 . S
O74 Zn71 1.986 . S
O74 C81 1.262 . S
O75 Zn70 2.049 . S
O75 C83 1.260 . S
O76 Zn71 1.996 . S
O76 C83 1.257 . S
C77 O72 1.254 . S
C77 O73 1.269 . S
C78 O79 1.249 . S
C78 O80 1.270 . S
O79 Zn71 1.943 . S
O79 C78 1.249 . S
O80 Zn70 2.067 . S
O80 C78 1.270 . S
C81 O74 1.262 . S
C81 O82 1.232 . S
O82 C81 1.232 . S
C83 O75 1.260 . S
C83 O76 1.257 . S
Zn84 O87 2.031 . S
Zn84 O89 2.049 . S
Zn84 O94 2.067 . S
Zn85 O86 1.962 . S
Zn85 O88 1.986 . S
Zn85 O90 1.996 . S
Zn85 O93 1.943 . S
O86 Zn85 1.962 . S
O86 C91 1.254 . S
O87 Zn84 2.031 . S
O87 C91 1.269 . S
O88 Zn85 1.986 . S
O88 C95 1.262 . S
O89 Zn84 2.049 . S
O89 C97 1.260 . S
O90 Zn85 1.996 . S
O90 C97 1.257 . S
C91 O86 1.254 . S
C91 O87 1.269 . S
C92 O93 1.249 . S
C92 O94 1.270 . S
O93 Zn85 1.943 . S
O93 C92 1.249 . S
O94 Zn84 2.067 . S
O94 C92 1.270 . S
C95 O88 1.262 . S
C95 O96 1.232 . S
O96 C95 1.232 . S
C97 O89 1.260 . S
C97 O90 1.257 . S
Zn98 O101 2.031 . S
Zn98 O103 2.049 . S
Zn98 O108 2.067 . S
Zn99 O100 1.962 . S
Zn99 O102 1.986 . S
Zn99 O104 1.996 . S
Zn99 O107 1.943 . S
O100 Zn99 1.962 . S
O100 C105 1.254 . S
O101 Zn98 2.031 . S
O101 C105 1.269 . S
O102 Zn99 1.986 . S
O102 C109 1.262 . S
O103 Zn98 2.049 . S
O103 C111 1.260 . S
O104 Zn99 1.996 . S
O104 C111 1.257 . S
C105 O100 1.254 . S
C105 O101 1.269 . S
C106 O107 1.249 . S
C106 O108 1.270 . S
O107 Zn99 1.943 . S
O107 C106 1.249 . S
O108 Zn98 2.067 . S
O108 C106 1.270 . S
C109 O102 1.262 . S
C109 O110 1.232 . S
O110 C109 1.232 . S
C111 O103 1.260 . S
C111 O104 1.257 . S
C112 C113 1.391 . S
C112 C114 1.394 . S
C112 H128 0.931 . S
C113 C112 1.391 . S
C113 C117 1.376 . S
C114 C112 1.394 . S
C114 C115 1.369 . S
C114 C118 1.531 . S
C115 C114 1.369 . S
C115 C116 1.410 . S
C115 C123 1.503 . S
C116 C115 1.410 . S
C116 C117 1.392 . S
C116 C119 1.511 . S
C117 C113 1.376 . S
C117 C116 1.392 . S
C117 H129 0.929 . S
C118 C114 1.531 . S
C118 H130 0.960 . S
C118 H131 0.962 . S
C118 H132 0.960 . S
C119 C116 1.511 . S
C119 H133 0.961 . S
C119 H134 0.961 . S
C119 H135 0.961 . S
C120 C121 1.370 . S
C120 C122 1.363 . S
C120 H136 0.931 . S
C121 C120 1.370 . S
C121 C125 1.408 . S
C122 C120 1.363 . S
C122 C123 1.370 . S
C122 C126 1.524 . S
C123 C115 1.503 . S
C123 C122 1.370 . S
C123 C124 1.403 . S
C124 C123 1.403 . S
C124 C125 1.404 . S
C124 C127 1.539 . S
C125 C121 1.408 . S
C125 C124 1.404 . S
C125 H137 0.930 . S
C126 C122 1.524 . S
C126 H138 0.956 . S
C126 H139 0.961 . S
C126 H140 0.961 . S
C127 C124 1.539 . S
C127 H141 0.958 . S
C127 H142 0.961 . S
C127 H143 0.960 . S
H128 C112 0.931 . S
H129 C117 0.929 . S
H130 C118 0.960 . S
H131 C118 0.962 . S
H132 C118 0.960 . S
H133 C119 0.961 . S
H134 C119 0.961 . S
H135 C119 0.961 . S
H136 C120 0.931 . S
H137 C125 0.930 . S
H138 C126 0.956 . S
H139 C126 0.961 . S
H140 C126 0.961 . S
H141 C127 0.958 . S
H142 C127 0.961 . S
H143 C127 0.960 . S
C144 C145 1.391 . S
C144 C146 1.394 . S
C144 H160 0.931 . S
C145 C144 1.391 . S
C145 C149 1.376 . S
C146 C144 1.394 . S
C146 C147 1.369 . S
C146 C150 1.531 . S
C147 C146 1.369 . S
C147 C148 1.410 . S
C147 C155 1.503 . S
C148 C147 1.410 . S
C148 C149 1.392 . S
C148 C151 1.511 . S
C149 C145 1.376 . S
C149 C148 1.392 . S
C149 H161 0.929 . S
C150 C146 1.531 . S
C150 H162 0.960 . S
C150 H163 0.962 . S
C150 H164 0.960 . S
C151 C148 1.511 . S
C151 H165 0.961 . S
C151 H166 0.961 . S
C151 H167 0.961 . S
C152 C153 1.370 . S
C152 C154 1.363 . S
C152 H168 0.931 . S
C153 C152 1.370 . S
C153 C157 1.408 . S
C154 C152 1.363 . S
C154 C155 1.370 . S
C154 C158 1.524 . S
C155 C147 1.503 . S
C155 C154 1.370 . S
C155 C156 1.403 . S
C156 C155 1.403 . S
C156 C157 1.404 . S
C156 C159 1.539 . S
C157 C153 1.408 . S
C157 C156 1.404 . S
C157 H169 0.930 . S
C158 C154 1.524 . S
C158 H170 0.956 . S
C158 H171 0.961 . S
C158 H172 0.961 . S
C159 C156 1.539 . S
C159 H173 0.958 . S
C159 H174 0.961 . S
C159 H175 0.960 . S
H160 C144 0.931 . S
H161 C149 0.929 . S
H162 C150 0.960 . S
H163 C150 0.962 . S
H164 C150 0.960 . S
H165 C151 0.961 . S
H166 C151 0.961 . S
H167 C151 0.961 . S
H168 C152 0.931 . S
H169 C157 0.930 . S
H170 C158 0.956 . S
H171 C158 0.961 . S
H172 C158 0.961 . S
H173 C159 0.958 . S
H174 C159 0.961 . S
H175 C159 0.960 . S
C176 C177 1.391 . S
C176 C178 1.394 . S
C176 H192 0.931 . S
C177 C176 1.391 . S
C177 C181 1.376 . S
C178 C176 1.394 . S
C178 C179 1.369 . S
C178 C182 1.531 1_545 S
C179 C178 1.369 . S
C179 C180 1.410 . S
C179 C187 1.503 1_544 S
C180 C179 1.410 . S
C180 C181 1.392 . S
C180 C183 1.511 . S
C181 C177 1.376 . S
C181 C180 1.392 . S
C181 H193 0.929 . S
C182 C178 1.531 1_565 S
C182 H194 0.960 . S
C182 H195 0.962 1_554 S
C182 H196 0.960 . S
C183 C180 1.511 . S
C183 H197 0.961 . S
C183 H198 0.961 . S
C183 H199 0.961 . S
C184 C185 1.370 . S
C184 C186 1.363 . S
C184 H200 0.931 . S
C185 C184 1.370 . S
C185 C189 1.408 . S
C186 C184 1.363 . S
C186 C187 1.370 . S
C186 C190 1.524 1_565 S
C187 C179 1.503 1_566 S
C187 C186 1.370 . S
C187 C188 1.403 1_556 S
C188 C187 1.403 1_554 S
C188 C189 1.404 1_554 S
C188 C191 1.539 . S
C189 C185 1.408 . S
C189 C188 1.404 1_556 S
C189 H201 0.930 . S
C190 C186 1.524 1_545 S
C190 H202 0.956 . S
C190 H203 0.961 . S
C190 H204 0.961 . S
C191 C188 1.539 . S
C191 H205 0.958 . S
C191 H206 0.961 . S
C191 H207 0.960 . S
H192 C176 0.931 . S
H193 C181 0.929 . S
H194 C182 0.960 . S
H195 C182 0.962 1_556 S
H196 C182 0.960 . S
H197 C183 0.961 . S
H198 C183 0.961 . S
H199 C183 0.961 . S
H200 C184 0.931 . S
H201 C189 0.930 . S
H202 C190 0.956 . S
H203 C190 0.961 . S
H204 C190 0.961 . S
H205 C191 0.958 . S
H206 C191 0.961 . S
H207 C191 0.960 . S
C208 C209 1.391 . S
C208 C210 1.394 . S
C208 H224 0.931 . S
C209 C208 1.391 . S
C209 C213 1.376 . S
C210 C208 1.394 . S
C210 C211 1.369 . S
C210 C214 1.531 . S
C211 C210 1.369 . S
C211 C212 1.410 . S
C211 C219 1.503 1_655 S
C212 C211 1.410 . S
C212 C213 1.392 . S
C212 C215 1.511 . S
C213 C209 1.376 . S
C213 C212 1.392 . S
C213 H225 0.929 . S
C214 C210 1.531 . S
C214 H226 0.960 . S
C214 H227 0.962 1_655 S
C214 H228 0.960 . S
C215 C212 1.511 . S
C215 H229 0.961 . S
C215 H230 0.961 . S
C215 H231 0.961 . S
C216 C217 1.370 . S
C216 C218 1.363 . S
C216 H232 0.931 . S
C217 C216 1.370 . S
C217 C221 1.408 . S
C218 C216 1.363 . S
C218 C219 1.370 . S
C218 C222 1.524 . S
C219 C211 1.503 1_455 S
C219 C218 1.370 . S
C219 C220 1.403 1_455 S
C220 C219 1.403 1_655 S
C220 C221 1.404 1_655 S
C220 C223 1.539 . S
C221 C217 1.408 . S
C221 C220 1.404 1_455 S
C221 H233 0.923 1_455 S
C222 C218 1.524 . S
C222 H234 0.956 . S
C222 H235 0.961 . S
C222 H236 0.961 . S
C223 C220 1.539 . S
C223 H237 0.958 . S
C223 H238 0.961 . S
C223 H239 0.960 . S
H224 C208 0.931 . S
H225 C213 0.929 . S
H226 C214 0.960 . S
H227 C214 0.962 1_455 S
H228 C214 0.960 . S
H229 C215 0.961 . S
H230 C215 0.961 . S
H231 C215 0.961 . S
H232 C216 0.931 . S
H233 C221 0.923 1_655 S
H234 C222 0.956 . S
H235 C222 0.961 . S
H236 C222 0.961 . S
H237 C223 0.958 . S
H238 C223 0.961 . S
H239 C223 0.960 . S
C240 C241 1.391 . S
C240 C242 1.394 . S
C240 H256 0.931 . S
C241 C240 1.391 . S
C241 C245 1.376 . S
C242 C240 1.394 . S
C242 C243 1.369 . S
C242 C246 1.531 . S
C243 C242 1.369 . S
C243 C244 1.410 . S
C243 C251 1.503 1_565 S
C244 C243 1.410 . S
C244 C245 1.392 . S
C244 C247 1.511 1_565 S
C245 C241 1.376 . S
C245 C244 1.392 . S
C245 H257 0.929 . S
C246 C242 1.531 . S
C246 H258 0.960 1_565 S
C246 H259 0.962 . S
C246 H260 0.960 . S
C247 C244 1.511 1_545 S
C247 H261 0.961 1_545 S
C247 H262 0.961 . S
C247 H263 0.961 . S
C248 C249 1.370 . S
C248 C250 1.376 . S
C248 H264 0.931 . S
C249 C248 1.370 . S
C249 C253 1.408 . S
C250 C248 1.376 . S
C250 C251 1.378 . S
C250 C254 1.504 1_545 S
C251 C243 1.503 1_545 S
C251 C250 1.378 . S
C251 C252 1.403 . S
C252 C251 1.403 . S
C252 C253 1.404 . S
C252 C255 1.539 . S
C253 C249 1.408 . S
C253 C252 1.404 . S
C253 H265 0.930 . S
C254 C250 1.504 1_565 S
C254 H266 0.956 . S
C254 H267 0.961 . S
C254 H268 0.961 . S
C255 C252 1.539 . S
C255 H269 0.958 . S
C255 H270 0.961 . S
C255 H271 0.960 . S
H256 C240 0.931 . S
H257 C245 0.929 . S
H258 C246 0.960 1_545 S
H259 C246 0.962 . S
H260 C246 0.960 . S
H261 C247 0.961 1_565 S
H262 C247 0.961 . S
H263 C247 0.961 . S
H264 C248 0.931 . S
H265 C253 0.930 . S
H266 C254 0.956 . S
H267 C254 0.961 . S
H268 C254 0.961 . S
H269 C255 0.958 . S
H270 C255 0.961 . S
H271 C255 0.960 . S
C272 C273 1.391 . S
C272 C274 1.394 1_655 S
C272 H288 0.931 . S
C273 C272 1.391 . S
C273 C277 1.376 . S
C274 C272 1.394 1_455 S
C274 C275 1.369 1_455 S
C274 C278 1.531 . S
C275 C274 1.369 1_655 S
C275 C276 1.410 . S
C275 C283 1.503 1_656 S
C276 C275 1.410 . S
C276 C277 1.392 . S
C276 C279 1.511 1_556 S
C277 C273 1.376 . S
C277 C276 1.392 . S
C277 H289 0.929 . S
C278 C274 1.531 . S
C278 H290 0.960 . S
C278 H291 0.962 . S
C278 H292 0.960 . S
C279 C276 1.511 1_554 S
C279 H293 0.961 . S
C279 H294 0.961 . S
C279 H295 0.961 1_554 S
C280 C281 1.370 . S
C280 C282 1.363 . S
C280 H296 0.931 . S
C281 C280 1.370 . S
C281 C285 1.408 . S
C282 C280 1.363 . S
C282 C283 1.370 . S
C282 C286 1.524 . S
C283 C275 1.503 1_454 S
C283 C282 1.370 . S
C283 C284 1.403 . S
C284 C283 1.403 . S
C284 C285 1.404 . S
C284 C287 1.539 1_554 S
C285 C281 1.408 . S
C285 C284 1.404 . S
C285 H297 0.930 . S
C286 C282 1.524 . S
C286 H298 0.956 . S
C286 H299 0.961 1_455 S
C286 H300 0.961 . S
C287 C284 1.539 1_556 S
C287 H301 0.958 . S
C287 H302 0.961 . S
C287 H303 0.960 1_455 S
H288 C272 0.931 . S
H289 C277 0.929 . S
H290 C278 0.960 . S
H291 C278 0.962 . S
H292 C278 0.960 . S
H293 C279 0.961 . S
H294 C279 0.961 . S
H295 C279 0.961 1_556 S
H296 C280 0.931 . S
H297 C285 0.930 . S
H298 C286 0.956 . S
H299 C286 0.961 1_655 S
H300 C286 0.961 . S
H301 C287 0.958 . S
H302 C287 0.961 . S
H303 C287 0.960 1_655 S
C304 C305 1.391 . S
C304 C306 1.394 . S
C304 H320 0.931 . S
C305 C304 1.391 . S
C305 C309 1.376 . S
C306 C304 1.394 . S
C306 C307 1.369 . S
C306 C310 1.531 . S
C307 C306 1.369 . S
C307 C308 1.410 . S
C307 C315 1.503 . S
C308 C307 1.410 . S
C308 C309 1.392 . S
C308 C311 1.511 . S
C309 C305 1.376 . S
C309 C308 1.392 . S
C309 H321 0.929 . S
C310 C306 1.531 . S
C310 H322 0.960 . S
C310 H323 0.962 . S
C310 H324 0.960 . S
C311 C308 1.511 . S
C311 H325 0.961 . S
C311 H326 0.961 . S
C311 H327 0.961 . S
C312 C313 1.370 . S
C312 C314 1.363 . S
C312 H328 0.931 . S
C313 C312 1.370 . S
C313 C317 1.408 . S
C314 C312 1.363 . S
C314 C315 1.370 . S
C314 C318 1.524 . S
C315 C307 1.503 . S
C315 C314 1.370 . S
C315 C316 1.403 . S
C316 C315 1.403 . S
C316 C317 1.404 . S
C316 C319 1.539 . S
C317 C313 1.408 . S
C317 C316 1.404 . S
C317 H329 0.930 . S
C318 C314 1.524 . S
C318 H330 0.956 . S
C318 H331 0.961 . S
C318 H332 0.961 . S
C319 C316 1.539 . S
C319 H333 0.958 . S
C319 H334 0.961 . S
C319 H335 0.960 . S
H320 C304 0.931 . S
H321 C309 0.929 . S
H322 C310 0.960 . S
H323 C310 0.962 . S
H324 C310 0.960 . S
H325 C311 0.961 . S
H326 C311 0.961 . S
H327 C311 0.961 . S
H328 C312 0.931 . S
H329 C317 0.930 . S
H330 C318 0.956 . S
H331 C318 0.961 . S
H332 C318 0.961 . S
H333 C319 0.958 . S
H334 C319 0.961 . S
H335 C319 0.960 . S
C336 C337 1.391 . S
C336 C338 1.394 . S
C336 H352 0.931 . S
C337 C336 1.391 . S
C337 C341 1.376 . S
C338 C336 1.394 . S
C338 C339 1.369 . S
C338 C342 1.531 . S
C339 C338 1.369 . S
C339 C340 1.410 . S
C339 C347 1.503 . S
C340 C339 1.410 . S
C340 C341 1.392 . S
C340 C343 1.511 . S
C341 C337 1.376 . S
C341 C340 1.392 . S
C341 H353 0.929 . S
C342 C338 1.531 . S
C342 H354 0.960 . S
C342 H355 0.962 . S
C342 H356 0.960 . S
C343 C340 1.511 . S
C343 H357 0.961 . S
C343 H358 0.961 . S
C343 H359 0.961 . S
C344 C345 1.370 . S
C344 C346 1.363 . S
C344 H360 0.931 . S
C345 C344 1.370 . S
C345 C349 1.408 . S
C346 C344 1.363 . S
C346 C347 1.370 . S
C346 C350 1.524 . S
C347 C339 1.503 . S
C347 C346 1.370 . S
C347 C348 1.403 . S
C348 C347 1.403 . S
C348 C349 1.404 . S
C348 C351 1.539 . S
C349 C345 1.408 . S
C349 C348 1.404 . S
C349 H361 0.930 . S
C350 C346 1.524 . S
C350 H362 0.956 . S
C350 H363 0.961 . S
C350 H364 0.961 . S
C351 C348 1.539 . S
C351 H365 0.958 . S
C351 H366 0.961 . S
C351 H367 0.960 . S
H352 C336 0.931 . S
H353 C341 0.929 . S
H354 C342 0.960 . S
H355 C342 0.962 . S
H356 C342 0.960 . S
H357 C343 0.961 . S
H358 C343 0.961 . S
H359 C343 0.961 . S
H360 C344 0.931 . S
H361 C349 0.930 . S
H362 C350 0.956 . S
H363 C350 0.961 . S
H364 C350 0.961 . S
H365 C351 0.958 . S
H366 C351 0.961 . S
H367 C351 0.960 . S
C368 C369 1.391 . S
C368 C370 1.394 . S
C368 H384 0.931 . S
C369 C368 1.391 . S
C369 C373 1.376 . S
C370 C368 1.394 . S
C370 C371 1.369 . S
C370 C374 1.531 . S
C371 C370 1.369 . S
C371 C372 1.410 . S
C371 C379 1.503 . S
C372 C371 1.410 . S
C372 C373 1.392 . S
C372 C375 1.511 . S
C373 C369 1.376 . S
C373 C372 1.392 . S
C373 H385 0.929 . S
C374 C370 1.531 . S
C374 H386 0.960 . S
C374 H387 0.962 . S
C374 H388 0.960 . S
C375 C372 1.511 . S
C375 H389 0.961 . S
C375 H390 0.961 . S
C375 H391 0.961 . S
C376 C377 1.370 . S
C376 C378 1.363 . S
C376 H392 0.931 . S
C377 C376 1.370 . S
C377 C381 1.408 . S
C378 C376 1.363 . S
C378 C379 1.370 . S
C378 C382 1.524 . S
C379 C371 1.503 . S
C379 C378 1.370 . S
C379 C380 1.403 . S
C380 C379 1.403 . S
C380 C381 1.404 . S
C380 C383 1.539 . S
C381 C377 1.408 . S
C381 C380 1.404 . S
C381 H393 0.930 . S
C382 C378 1.524 . S
C382 H394 0.956 . S
C382 H395 0.961 . S
C382 H396 0.961 . S
C383 C380 1.539 . S
C383 H397 0.958 . S
C383 H398 0.961 . S
C383 H399 0.960 . S
H384 C368 0.931 . S
H385 C373 0.929 . S
H386 C374 0.960 . S
H387 C374 0.962 . S
H388 C374 0.960 . S
H389 C375 0.961 . S
H390 C375 0.961 . S
H391 C375 0.961 . S
H392 C376 0.931 . S
H393 C381 0.930 . S
H394 C382 0.956 . S
H395 C382 0.961 . S
H396 C382 0.961 . S
H397 C383 0.958 . S
H398 C383 0.961 . S
H399 C383 0.960 . S
C400 C401 1.391 . S
C400 C402 1.394 . S
C400 H416 0.931 . S
C401 C400 1.391 . S
C401 C405 1.376 . S
C402 C400 1.394 . S
C402 C403 1.369 . S
C402 C406 1.531 . S
C403 C402 1.369 . S
C403 C404 1.410 1_556 S
C403 C411 1.503 1_556 S
C404 C403 1.410 1_554 S
C404 C405 1.392 1_554 S
C404 C407 1.511 . S
C405 C401 1.376 . S
C405 C404 1.392 1_556 S
C405 H417 0.929 . S
C406 C402 1.531 . S
C406 H418 0.960 . S
C406 H419 0.962 . S
C406 H420 0.960 . S
C407 C404 1.511 . S
C407 H421 0.961 . S
C407 H422 0.961 . S
C407 H423 0.961 . S
C408 C409 1.370 . S
C408 C410 1.363 . S
C408 H424 0.931 . S
C409 C408 1.370 . S
C409 C413 1.408 . S
C410 C408 1.363 . S
C410 C411 1.370 . S
C410 C414 1.524 . S
C411 C403 1.503 1_554 S
C411 C410 1.370 . S
C411 C412 1.403 . S
C412 C411 1.403 . S
C412 C413 1.404 . S
C412 C415 1.539 . S
C413 C409 1.408 . S
C413 C412 1.404 . S
C413 H425 0.930 . S
C414 C410 1.524 . S
C414 H426 0.956 1_554 S
C414 H427 0.961 . S
C414 H428 0.961 . S
C415 C412 1.539 . S
C415 H429 0.958 1_554 S
C415 H430 0.961 . S
C415 H431 0.960 . S
H416 C400 0.931 . S
H417 C405 0.929 . S
H418 C406 0.960 . S
H419 C406 0.962 . S
H420 C406 0.960 . S
H421 C407 0.961 . S
H422 C407 0.961 . S
H423 C407 0.961 . S
H424 C408 0.931 . S
H425 C413 0.930 . S
H426 C414 0.956 1_556 S
H427 C414 0.961 . S
H428 C414 0.961 . S
H429 C415 0.958 1_556 S
H430 C415 0.961 . S
H431 C415 0.960 . S
C432 C433 1.391 . S
C432 C434 1.394 . S
C432 H448 0.931 . S
C433 C432 1.391 . S
C433 C437 1.376 . S
C434 C432 1.394 . S
C434 C435 1.369 . S
C434 C438 1.531 1_565 S
C435 C434 1.369 . S
C435 C436 1.410 . S
C435 C443 1.503 1_565 S
C436 C435 1.410 . S
C436 C437 1.392 . S
C436 C439 1.511 . S
C437 C433 1.376 . S
C437 C436 1.392 . S
C437 H449 0.929 . S
C438 C434 1.531 1_545 S
C438 H450 0.960 . S
C438 H451 0.962 . S
C438 H452 0.960 1_545 S
C439 C436 1.511 . S
C439 H453 0.961 . S
C439 H454 0.961 . S
C439 H455 0.961 . S
C440 C441 1.370 . S
C440 C442 1.363 . S
C440 H456 0.931 . S
C441 C440 1.370 . S
C441 C445 1.408 . S
C442 C440 1.363 . S
C442 C443 1.370 . S
C442 C446 1.524 . S
C443 C435 1.503 1_545 S
C443 C442 1.370 . S
C443 C444 1.403 1_545 S
C444 C443 1.403 1_565 S
C444 C445 1.404 1_565 S
C444 C447 1.539 . S
C445 C441 1.408 . S
C445 C444 1.404 1_545 S
C445 H457 0.930 . S
C446 C442 1.524 . S
C446 H458 0.956 . S
C446 H459 0.961 . S
C446 H460 0.961 . S
C447 C444 1.539 . S
C447 H461 0.958 . S
C447 H462 0.961 . S
C447 H463 0.960 . S
H448 C432 0.931 . S
H449 C437 0.929 . S
H450 C438 0.960 . S
H451 C438 0.962 . S
H452 C438 0.960 1_565 S
H453 C439 0.961 . S
H454 C439 0.961 . S
H455 C439 0.961 . S
H456 C440 0.931 . S
H457 C445 0.930 . S
H458 C446 0.956 . S
H459 C446 0.961 . S
H460 C446 0.961 . S
H461 C447 0.958 . S
H462 C447 0.961 . S
H463 C447 0.960 . S
C464 C465 1.391 . S
C464 C466 1.394 . S
C464 H480 0.931 . S
C465 C464 1.391 . S
C465 C469 1.376 . S
C466 C464 1.394 . S
C466 C467 1.369 . S
C466 C470 1.531 . S
C467 C466 1.369 . S
C467 C468 1.410 . S
C467 C475 1.503 1_665 S
C468 C467 1.410 . S
C468 C469 1.392 . S
C468 C471 1.511 1_665 S
C469 C465 1.376 . S
C469 C468 1.392 . S
C469 H481 0.929 . S
C470 C466 1.531 . S
C470 H482 0.944 1_655 S
C470 H483 0.962 . S
C470 H484 0.960 . S
C471 C468 1.511 1_445 S
C471 H485 0.961 . S
C471 H486 0.961 . S
C471 H487 0.961 . S
C472 C473 1.370 . S
C472 C474 1.355 1_455 S
C472 H488 0.931 . S
C473 C472 1.370 . S
C473 C477 1.408 . S
C474 C472 1.355 1_655 S
C474 C475 1.358 1_655 S
C474 C478 1.545 . S
C475 C467 1.503 1_445 S
C475 C474 1.358 1_455 S
C475 C476 1.403 . S
C476 C475 1.403 . S
C476 C477 1.404 . S
C476 C479 1.539 1_545 S
C477 C473 1.408 . S
C477 C476 1.404 . S
C477 H489 0.930 . S
C478 C474 1.545 . S
C478 H490 0.956 . S
C478 H491 0.961 . S
C478 H492 0.961 . S
C479 C476 1.539 1_565 S
C479 H493 0.958 . S
C479 H494 0.961 . S
C479 H495 0.960 . S
H480 C464 0.931 . S
H481 C469 0.929 . S
H482 C470 0.944 1_455 S
H483 C470 0.962 . S
H484 C470 0.960 . S
H485 C471 0.961 . S
H486 C471 0.961 . S
H487 C471 0.961 . S
H488 C472 0.931 . S
H489 C477 0.930 . S
H490 C478 0.956 . S
H491 C478 0.961 . S
H492 C478 0.961 . S
H493 C479 0.958 . S
H494 C479 0.961 . S
H495 C479 0.960 . S
C496 C497 1.391 . S
C496 C498 1.394 1_655 S
C496 H512 0.931 . S
C497 C496 1.391 . S
C497 C501 1.376 . S
C498 C496 1.394 1_455 S
C498 C499 1.369 1_455 S
C498 C502 1.531 . S
C499 C498 1.369 1_655 S
C499 C500 1.410 . S
C499 C507 1.503 1_655 S
C500 C499 1.410 . S
C500 C501 1.392 . S
C500 C503 1.511 . S
C501 C497 1.376 . S
C501 C500 1.392 . S
C501 H513 0.929 . S
C502 C498 1.531 . S
C502 H514 0.960 . S
C502 H515 0.962 . S
C502 H516 0.960 . S
C503 C500 1.511 . S
C503 H517 0.961 . S
C503 H518 0.961 . S
C503 H519 0.961 . S
C504 C505 1.370 . S
C504 C506 1.363 . S
C504 H520 0.931 . S
C505 C504 1.370 . S
C505 C509 1.408 . S
C506 C504 1.363 . S
C506 C507 1.370 . S
C506 C510 1.524 1_455 S
C507 C499 1.503 1_455 S
C507 C506 1.370 . S
C507 C508 1.403 . S
C508 C507 1.403 . S
C508 C509 1.404 . S
C508 C511 1.539 . S
C509 C505 1.408 . S
C509 C508 1.404 . S
C509 H521 0.930 . S
C510 C506 1.524 1_655 S
C510 H522 0.956 . S
C510 H523 0.961 . S
C510 H524 0.961 . S
C511 C508 1.539 . S
C511 H525 0.958 . S
C511 H526 0.961 . S
C511 H527 0.960 . S
H512 C496 0.931 . S
H513 C501 0.929 . S
H514 C502 0.960 . S
H515 C502 0.962 . S
H516 C502 0.960 . S
H517 C503 0.961 . S
H518 C503 0.961 . S
H519 C503 0.961 . S
H520 C504 0.931 . S
H521 C509 0.930 . S
H522 C510 0.956 . S
H523 C510 0.961 . S
H524 C510 0.961 . S
H525 C511 0.958 . S
H526 C511 0.961 . S
H527 C511 0.960 . S
C528 C529 1.391 . S
C528 C530 1.394 . S
C528 H544 0.931 . S
C529 C528 1.391 . S
C529 C533 1.376 . S
C530 C528 1.394 . S
C530 C531 1.369 . S
C530 C534 1.531 . S
C531 C530 1.369 . S
C531 C532 1.410 . S
C531 C539 1.503 . S
C532 C531 1.410 . S
C532 C533 1.392 . S
C532 C535 1.511 . S
C533 C529 1.376 . S
C533 C532 1.392 . S
C533 H545 0.929 . S
C534 C530 1.531 . S
C534 H546 0.960 . S
C534 H547 0.962 . S
C534 H548 0.960 . S
C535 C532 1.511 . S
C535 H549 0.961 . S
C535 H550 0.961 . S
C535 H551 0.961 . S
C536 C537 1.370 . S
C536 C538 1.363 . S
C536 H552 0.931 . S
C537 C536 1.370 . S
C537 C541 1.408 . S
C538 C536 1.363 . S
C538 C539 1.370 . S
C538 C542 1.524 . S
C539 C531 1.503 . S
C539 C538 1.370 . S
C539 C540 1.403 . S
C540 C539 1.403 . S
C540 C541 1.404 . S
C540 C543 1.539 . S
C541 C537 1.408 . S
C541 C540 1.404 . S
C541 H553 0.930 . S
C542 C538 1.524 . S
C542 H554 0.956 . S
C542 H555 0.961 . S
C542 H556 0.961 . S
C543 C540 1.539 . S
C543 H557 0.958 . S
C543 H558 0.961 . S
C543 H559 0.960 . S
H544 C528 0.931 . S
H545 C533 0.929 . S
H546 C534 0.960 . S
H547 C534 0.962 . S
H548 C534 0.960 . S
H549 C535 0.961 . S
H550 C535 0.961 . S
H551 C535 0.961 . S
H552 C536 0.931 . S
H553 C541 0.930 . S
H554 C542 0.956 . S
H555 C542 0.961 . S
H556 C542 0.961 . S
H557 C543 0.958 . S
H558 C543 0.961 . S
H559 C543 0.960 . S
C560 C561 1.391 . S
C560 C562 1.394 . S
C560 H576 0.931 . S
C561 C560 1.391 . S
C561 C565 1.376 . S
C562 C560 1.394 . S
C562 C563 1.369 . S
C562 C566 1.531 . S
C563 C562 1.369 . S
C563 C564 1.410 . S
C563 C571 1.503 1_554 S
C564 C563 1.410 . S
C564 C565 1.392 . S
C564 C567 1.511 . S
C565 C561 1.376 . S
C565 C564 1.392 . S
C565 H577 0.929 . S
C566 C562 1.531 . S
C566 H578 0.960 . S
C566 H579 0.962 1_554 S
C566 H580 0.960 . S
C567 C564 1.511 . S
C567 H581 0.961 . S
C567 H582 0.961 . S
C567 H583 0.961 . S
C568 C569 1.370 . S
C568 C570 1.363 . S
C568 H584 0.931 . S
C569 C568 1.370 . S
C569 C573 1.408 . S
C570 C568 1.363 . S
C570 C571 1.370 . S
C570 C574 1.524 . S
C571 C563 1.503 1_556 S
C571 C570 1.370 . S
C571 C572 1.403 1_556 S
C572 C571 1.403 1_554 S
C572 C573 1.404 1_554 S
C572 C575 1.539 . S
C573 C569 1.408 . S
C573 C572 1.404 1_556 S
C573 H585 0.930 . S
C574 C570 1.524 . S
C574 H586 0.956 . S
C574 H587 0.961 . S
C574 H588 0.961 . S
C575 C572 1.539 . S
C575 H589 0.958 . S
C575 H590 0.961 . S
C575 H591 0.960 . S
H576 C560 0.931 . S
H577 C565 0.929 . S
H578 C566 0.960 . S
H579 C566 0.962 1_556 S
H580 C566 0.960 . S
H581 C567 0.961 . S
H582 C567 0.961 . S
H583 C567 0.961 . S
H584 C568 0.931 . S
H585 C573 0.930 . S
H586 C574 0.956 . S
H587 C574 0.961 . S
H588 C574 0.961 . S
H589 C575 0.958 . S
H590 C575 0.961 . S
H591 C575 0.960 . S
C592 C593 1.391 . S
C592 C594 1.394 . S
C592 H608 0.931 . S
C593 C592 1.391 . S
C593 C597 1.376 . S
C594 C592 1.394 . S
C594 C595 1.369 . S
C594 C598 1.531 . S
C595 C594 1.369 . S
C595 C596 1.410 . S
C595 C603 1.503 . S
C596 C595 1.410 . S
C596 C597 1.392 . S
C596 C599 1.511 . S
C597 C593 1.376 . S
C597 C596 1.392 . S
C597 H609 0.929 . S
C598 C594 1.531 . S
C598 H610 0.960 . S
C598 H611 0.962 . S
C598 H612 0.960 . S
C599 C596 1.511 . S
C599 H613 0.961 . S
C599 H614 0.961 . S
C599 H615 0.961 . S
C600 C601 1.370 . S
C600 C602 1.363 . S
C600 H616 0.931 . S
C601 C600 1.370 . S
C601 C605 1.408 . S
C602 C600 1.363 . S
C602 C603 1.370 . S
C602 C606 1.524 . S
C603 C595 1.503 . S
C603 C602 1.370 . S
C603 C604 1.403 . S
C604 C603 1.403 . S
C604 C605 1.404 . S
C604 C607 1.539 . S
C605 C601 1.408 . S
C605 C604 1.404 . S
C605 H617 0.930 . S
C606 C602 1.524 . S
C606 H618 0.956 . S
C606 H619 0.961 . S
C606 H620 0.961 . S
C607 C604 1.539 . S
C607 H621 0.958 . S
C607 H622 0.961 . S
C607 H623 0.960 . S
H608 C592 0.931 . S
H609 C597 0.929 . S
H610 C598 0.960 . S
H611 C598 0.962 . S
H612 C598 0.960 . S
H613 C599 0.961 . S
H614 C599 0.961 . S
H615 C599 0.961 . S
H616 C600 0.931 . S
H617 C605 0.930 . S
H618 C606 0.956 . S
H619 C606 0.961 . S
H620 C606 0.961 . S
H621 C607 0.958 . S
H622 C607 0.961 . S
H623 C607 0.960 . S
C113 C77 1.484 . S
C121 C13 1.412 . S
C145 C105 1.483 . S
C153 C27 1.413 . S
C177 C36 1.482 . S
C185 C92 1.464 . S
C209 C53 1.484 . S
C217 C67 1.494 . S
C241 C97 1.371 . S
C249 C7 1.493 . S
C273 C22 1.438 . S
C281 C64 1.455 . S
C305 C81 1.492 . S
C313 C39 1.491 . S
C337 C49 1.494 . S
C345 C111 1.399 . S
C369 C63 1.477 . S
C377 C83 1.410 . S
C401 C21 1.501 . S
C409 C41 1.381 . S
C433 C55 1.427 . S
C441 C35 1.491 . S
C465 C50 1.483 . S
C473 C8 1.454 . S
C497 C25 1.482 . S
C505 C11 1.488 . S
C529 C109 1.494 . S
C537 C95 1.491 . S
C561 C69 1.418 . S
C569 C91 1.492 . S
C593 C78 1.476 . S
C601 C106 1.467 . S
