# Generated by pormake.
# Topology unn, (4)-cn, num edge types: 1
# Building blocks:
#     Node 0, Type 0, BuildingBlock: QUQFOY_clean_sbu_3, # of connection points: 4
#     Node 1, Type 0, BuildingBlock: QUQFOY_clean_sbu_3, # of connection points: 4
#     Node 2, Type 0, BuildingBlock: QUQFOY_clean_sbu_3, # of connection points: 4
#     Node 3, Type 0, BuildingBlock: QUQFOY_clean_sbu_3, # of connection points: 4
#     Node 4, Type 0, BuildingBlock: QUQFOY_clean_sbu_3, # of connection points: 4
#     Node 5, Type 0, BuildingBlock: QUQFOY_clean_sbu_3, # of connection points: 4
#     Node 6, Type 0, BuildingBlock: QUQFOY_clean_sbu_3, # of connection points: 4
#     Node 7, Type 0, BuildingBlock: QUQFOY_clean_sbu_3, # of connection points: 4
#     Node 8, Type 0, BuildingBlock: QUQFOY_clean_sbu_3, # of connection points: 4
#     Node 9, Type 0, BuildingBlock: QUQFOY_clean_sbu_3, # of connection points: 4
#     Node 10, Type 0, BuildingBlock: QUQFOY_clean_sbu_3, # of connection points: 4
#     Node 11, Type 0, BuildingBlock: QUQFOY_clean_sbu_3, # of connection points: 4
#     Node 12, Type 0, BuildingBlock: QUQFOY_clean_sbu_3, # of connection points: 4
#     Node 13, Type 0, BuildingBlock: QUQFOY_clean_sbu_3, # of connection points: 4
#     Node 14, Type 0, BuildingBlock: QUQFOY_clean_sbu_3, # of connection points: 4
#     Node 15, Type 0, BuildingBlock: QUQFOY_clean_sbu_3, # of connection points: 4
#     Node 16, Type 0, BuildingBlock: QUQFOY_clean_sbu_3, # of connection points: 4
#     Node 17, Type 0, BuildingBlock: QUQFOY_clean_sbu_3, # of connection points: 4
#     Edge 18, Type (0, 0), BuildingBlock: ZUJKAS_clean_linker_0, # of connection points: 2
#     Edge 19, Type (0, 0), BuildingBlock: ZUJKAS_clean_linker_0, # of connection points: 2
#     Edge 20, Type (0, 0), BuildingBlock: ZUJKAS_clean_linker_0, # of connection points: 2
#     Edge 21, Type (0, 0), BuildingBlock: ZUJKAS_clean_linker_0, # of connection points: 2
#     Edge 22, Type (0, 0), BuildingBlock: ZUJKAS_clean_linker_0, # of connection points: 2
#     Edge 23, Type (0, 0), BuildingBlock: ZUJKAS_clean_linker_0, # of connection points: 2
#     Edge 24, Type (0, 0), BuildingBlock: ZUJKAS_clean_linker_0, # of connection points: 2
#     Edge 25, Type (0, 0), BuildingBlock: ZUJKAS_clean_linker_0, # of connection points: 2
#     Edge 26, Type (0, 0), BuildingBlock: ZUJKAS_clean_linker_0, # of connection points: 2
#     Edge 27, Type (0, 0), BuildingBlock: ZUJKAS_clean_linker_0, # of connection points: 2
#     Edge 28, Type (0, 0), BuildingBlock: ZUJKAS_clean_linker_0, # of connection points: 2
#     Edge 29, Type (0, 0), BuildingBlock: ZUJKAS_clean_linker_0, # of connection points: 2
#     Edge 30, Type (0, 0), BuildingBlock: ZUJKAS_clean_linker_0, # of connection points: 2
#     Edge 31, Type (0, 0), BuildingBlock: ZUJKAS_clean_linker_0, # of connection points: 2
#     Edge 32, Type (0, 0), BuildingBlock: ZUJKAS_clean_linker_0, # of connection points: 2
#     Edge 33, Type (0, 0), BuildingBlock: ZUJKAS_clean_linker_0, # of connection points: 2
#     Edge 34, Type (0, 0), BuildingBlock: ZUJKAS_clean_linker_0, # of connection points: 2
#     Edge 35, Type (0, 0), BuildingBlock: ZUJKAS_clean_linker_0, # of connection points: 2
#     Edge 36, Type (0, 0), BuildingBlock: ZUJKAS_clean_linker_0, # of connection points: 2
#     Edge 37, Type (0, 0), BuildingBlock: ZUJKAS_clean_linker_0, # of connection points: 2
#     Edge 38, Type (0, 0), BuildingBlock: ZUJKAS_clean_linker_0, # of connection points: 2
#     Edge 39, Type (0, 0), BuildingBlock: ZUJKAS_clean_linker_0, # of connection points: 2
#     Edge 40, Type (0, 0), BuildingBlock: ZUJKAS_clean_linker_0, # of connection points: 2
#     Edge 41, Type (0, 0), BuildingBlock: ZUJKAS_clean_linker_0, # of connection points: 2
#     Edge 42, Type (0, 0), BuildingBlock: ZUJKAS_clean_linker_0, # of connection points: 2
#     Edge 43, Type (0, 0), BuildingBlock: ZUJKAS_clean_linker_0, # of connection points: 2
#     Edge 44, Type (0, 0), BuildingBlock: ZUJKAS_clean_linker_0, # of connection points: 2
#     Edge 45, Type (0, 0), BuildingBlock: ZUJKAS_clean_linker_0, # of connection points: 2
#     Edge 46, Type (0, 0), BuildingBlock: ZUJKAS_clean_linker_0, # of connection points: 2
#     Edge 47, Type (0, 0), BuildingBlock: ZUJKAS_clean_linker_0, # of connection points: 2
#     Edge 48, Type (0, 0), BuildingBlock: ZUJKAS_clean_linker_0, # of connection points: 2
#     Edge 49, Type (0, 0), BuildingBlock: ZUJKAS_clean_linker_0, # of connection points: 2
#     Edge 50, Type (0, 0), BuildingBlock: ZUJKAS_clean_linker_0, # of connection points: 2
#     Edge 51, Type (0, 0), BuildingBlock: ZUJKAS_clean_linker_0, # of connection points: 2
#     Edge 52, Type (0, 0), BuildingBlock: ZUJKAS_clean_linker_0, # of connection points: 2
#     Edge 53, Type (0, 0), BuildingBlock: ZUJKAS_clean_linker_0, # of connection points: 2
# Relax obj value: 0.157
# Max RMSD: 0.254
# Mean RMSD: 0.242
data_MOF--net-unn--node1-QUQFOY_clean_sbu_3--edge1-ZUJKAS_clean_linker_0
_symmetry_space_group_name_H-M    P1
_symmetry_Int_Tables_number       1
_symmetry_cell_setting            triclinic
loop_
_symmetry_equiv_pos_as_xyz
'x, y, z'
_cell_length_a     59.961854
_cell_length_b     60.176958
_cell_length_c     50.768344
_cell_angle_alpha  90.745784
_cell_angle_beta   89.646446
_cell_angle_gamma 120.31138
loop_
_atom_site_label
_atom_site_type_symbol
_atom_site_fract_x
_atom_site_fract_y
_atom_site_fract_z
_atom_type_partial_charge
C0 C 0.01039 0.74676 0.27037 0.0
O1 O 0.02126 0.73763 0.25592 0.0
Cd2 Cd 0.04641 0.76144 0.21955 0.0
O3 O 0.00874 0.76609 0.26323 0.0
Cd4 Cd 0.01532 0.7943 0.22561 0.0
C5 C 0.07394 0.8231 0.25046 0.0
O6 O 0.01721 0.76609 0.19374 0.0
O7 O 0.03594 0.80583 0.18206 0.0
O8 O 0.97049 0.76921 0.23411 0.0
C9 C 0.02853 0.7826 0.17601 0.0
O10 O 0.0732 0.80303 0.24098 0.0
C11 C 0.96332 0.78004 0.21771 0.0
O12 O 0.05443 0.8263 0.24938 0.0
O13 O 0.98079 0.80169 0.2089 0.0
C14 C 0.29234 0.28376 0.19309 0.0
O15 O 0.31268 0.2878 0.20495 0.0
Cd16 Cd 0.31191 0.26648 0.24424 0.0
O17 O 0.26996 0.26834 0.20223 0.0
Cd18 Cd 0.24649 0.23947 0.23912 0.0
C19 C 0.27251 0.2046 0.21714 0.0
O20 O 0.27948 0.26841 0.26779 0.0
O21 O 0.25272 0.23248 0.28589 0.0
O22 O 0.22683 0.26429 0.22985 0.0
C23 C 0.27211 0.25498 0.28831 0.0
O24 O 0.29327 0.22324 0.22657 0.0
C25 C 0.20798 0.25292 0.24555 0.0
O26 O 0.25135 0.20498 0.21698 0.0
O27 O 0.20372 0.23144 0.25448 0.0
C28 C 0.75008 0.01087 0.19032 0.0
O29 O 0.74096 0.02199 0.20445 0.0
Cd30 Cd 0.76086 0.04508 0.24379 0.0
O31 O 0.76842 0.00788 0.19855 0.0
Cd32 Cd 0.79451 0.01261 0.2378 0.0
C33 C 0.82384 0.07374 0.21679 0.0
O34 O 0.76701 0.0164 0.2678 0.0
O35 O 0.80538 0.03065 0.28305 0.0
O36 O 0.76505 0.96803 0.23201 0.0
C37 C 0.78263 0.02648 0.28674 0.0
O38 O 0.80362 0.07282 0.22617 0.0
C39 C 0.778 0.95973 0.24365 0.0
O40 O 0.82642 0.05382 0.21606 0.0
O41 O 0.80126 0.97635 0.24992 0.0
C42 C 0.06348 0.24299 0.76045 0.0
O43 O 0.0561 0.22011 0.75309 0.0
Cd44 Cd 0.00892 0.2034 0.75046 0.0
O45 O 0.04886 0.25197 0.75617 0.0
Cd46 Cd 0.01135 0.23836 0.72893 0.0
C47 C 0.99908 0.24487 0.78726 0.0
O48 O 0.9796 0.19449 0.7132 0.0
O49 O 0.96598 0.21738 0.7337 0.0
O50 O 0.03437 0.25203 0.68789 0.0
C51 C 0.96099 0.19841 0.7187 0.0
O52 O 0.99683 0.22265 0.7871 0.0
C53 C 0.02857 0.26934 0.68415 0.0
O54 O 0.00623 0.25846 0.7667 0.0
O55 O 0.01483 0.27219 0.70153 0.0
C56 C 0.8346 0.77988 0.70439 0.0
O57 O 0.84635 0.80368 0.69926 0.0
Cd58 Cd 0.81748 0.82076 0.70487 0.0
O59 O 0.81286 0.76988 0.71581 0.0
Cd60 Cd 0.78399 0.78258 0.7361 0.0
C61 C 0.76158 0.77189 0.67777 0.0
O62 O 0.8021 0.82829 0.74731 0.0
O63 O 0.76315 0.80725 0.73173 0.0
O64 O 0.79235 0.77138 0.77882 0.0
C65 C 0.78005 0.82641 0.74476 0.0
O66 O 0.78195 0.79367 0.67462 0.0
C67 C 0.76889 0.75509 0.78363 0.0
O68 O 0.7562 0.76094 0.69994 0.0
O69 O 0.75231 0.75169 0.76621 0.0
C70 C 0.28515 0.02169 0.77043 0.0
O71 O 0.29371 0.00893 0.75834 0.0
Cd72 Cd 0.27899 0.9882 0.7167 0.0
O73 O 0.26882 0.02649 0.76006 0.0
Cd74 Cd 0.24574 0.02008 0.71844 0.0
C75 C 0.21485 0.95837 0.73827 0.0
O76 O 0.27544 0.01714 0.68992 0.0
O77 O 0.23676 1.00064 0.67438 0.0
O78 O 0.27302 0.06539 0.72161 0.0
C79 C 0.26005 0.00644 0.67084 0.0
O80 O 0.23523 0.959 0.72992 0.0
C81 C 0.25916 0.07133 0.70807 0.0
O82 O 0.21286 0.97863 0.73908 0.0
O83 O 0.23635 0.05326 0.70238 0.0
C84 C 0.67908 0.06956 0.60238 0.0
O85 O 0.69219 0.06267 0.58833 0.0
Cd86 Cd 0.71187 0.08375 0.54824 0.0
O87 O 0.6743 0.08673 0.59455 0.0
Cd88 Cd 0.67927 0.11486 0.55775 0.0
C89 C 0.74098 0.14654 0.57559 0.0
O90 O 0.6799 0.08643 0.52485 0.0
O91 O 0.69661 0.12605 0.51334 0.0
O92 O 0.63411 0.09127 0.56673 0.0
C93 C 0.68943 0.10299 0.50686 0.0
O94 O 0.74033 0.12685 0.56514 0.0
C95 C 0.62795 0.10402 0.55181 0.0
O96 O 0.72046 0.14793 0.57827 0.0
O97 O 0.64638 0.1255 0.54382 0.0
C98 C 0.96541 0.62623 0.60427 0.0
O99 O 0.97015 0.64706 0.59322 0.0
Cd100 Cd 0.95109 0.64934 0.55353 0.0
O101 O 0.95022 0.60409 0.59403 0.0
Cd102 Cd 0.92137 0.5793 0.55604 0.0
C103 C 0.88916 0.60102 0.5757 0.0
O104 O 0.95165 0.61624 0.52947 0.0
O105 O 0.91628 0.58859 0.51026 0.0
O106 O 0.94351 0.55518 0.56212 0.0
C107 C 0.93801 0.60912 0.50885 0.0
O108 O 0.9115 0.61513 0.56678 0.0
C109 C 0.93054 0.53816 0.54481 0.0
O110 O 0.88116 0.57704 0.57653 0.0
O111 O 0.91095 0.53816 0.53547 0.0
C112 C 0.42632 0.35407 0.60748 0.0
O113 O 0.40503 0.34266 0.59491 0.0
Cd114 Cd 0.39985 0.31719 0.55687 0.0
O115 O 0.44728 0.35693 0.59774 0.0
Cd116 Cd 0.4697 0.35302 0.55772 0.0
C117 C 0.44496 0.29975 0.58277 0.0
O118 O 0.43383 0.34578 0.53089 0.0
O119 O 0.46119 0.33784 0.51141 0.0
O120 O 0.48364 0.3965 0.56727 0.0
C121 C 0.44027 0.33826 0.51042 0.0
O122 O 0.42927 0.30586 0.57373 0.0
C123 C 0.50313 0.40655 0.55223 0.0
O124 O 0.46908 0.31528 0.57967 0.0
O125 O 0.51035 0.39153 0.54248 0.0
C126 C 0.73449 0.58365 0.09125 0.0
O127 O 0.72921 0.56152 0.08311 0.0
Cd128 Cd 0.68137 0.54093 0.08274 0.0
O129 O 0.71763 0.59011 0.0885 0.0
Cd130 Cd 0.67957 0.57246 0.06129 0.0
C131 C 0.668 0.5797 0.11972 0.0
O132 O 0.64835 0.52731 0.04805 0.0
O133 O 0.6348 0.5507 0.06766 0.0
O134 O 0.70329 0.58704 0.02051 0.0
C135 C 0.62955 0.53079 0.05415 0.0
O136 O 0.66895 0.55902 0.12012 0.0
C137 C 0.69494 0.6022 0.01545 0.0
O138 O 0.67255 0.5921 0.09845 0.0
O139 O 0.67942 0.60334 0.03182 0.0
C140 C 0.45559 0.16316 0.09142 0.0
O141 O 0.47253 0.16192 0.10507 0.0
Cd142 Cd 0.49567 0.14046 0.08904 0.0
O143 O 0.44921 0.15171 0.06933 0.0
Cd144 Cd 0.45442 0.1157 0.05606 0.0
C145 C 0.44749 0.08934 0.11382 0.0
O146 O 0.49888 0.12638 0.04443 0.0
O147 O 0.47117 0.08737 0.05625 0.0
O148 O 0.44301 0.12045 0.01204 0.0
C149 C 0.49257 0.10271 0.04552 0.0
O150 O 0.47204 0.10118 0.11317 0.0
C151 C 0.42212 0.09892 0.01133 0.0
O152 O 0.43482 0.09421 0.09717 0.0
O153 O 0.41629 0.08494 0.03163 0.0
C154 C 0.95437 0.35219 0.10826 0.0
O155 O 0.96259 0.33997 0.0946 0.0
Cd156 Cd 0.94727 0.32238 0.0519 0.0
O157 O 0.93849 0.35817 0.09886 0.0
Cd158 Cd 0.91536 0.35496 0.05799 0.0
C159 C 0.88344 0.29224 0.07443 0.0
O160 O 0.94471 0.35349 0.02761 0.0
O161 O 0.90556 0.33712 0.01343 0.0
O162 O 0.94189 0.40042 0.06439 0.0
C163 C 0.92885 0.34355 0.00875 0.0
O164 O 0.90346 0.2929 0.06489 0.0
C165 C 0.92815 0.4068 0.0512 0.0
O166 O 0.88199 0.31272 0.07707 0.0
O167 O 0.9058 0.38872 0.04416 0.0
C168 C 0.34565 0.39593 0.94084 0.0
O169 O 0.35881 0.38865 0.92743 0.0
Cd170 Cd 0.381 0.40984 0.88868 0.0
O171 O 0.34142 0.41337 0.93249 0.0
Cd172 Cd 0.34691 0.44192 0.89523 0.0
C173 C 0.40627 0.47317 0.91616 0.0
O174 O 0.35094 0.41405 0.86446 0.0
O175 O 0.36384 0.45203 0.84978 0.0
O176 O 0.30173 0.41717 0.90285 0.0
C177 C 0.36044 0.4297 0.84569 0.0
O178 O 0.40468 0.45259 0.90711 0.0
C179 C 0.29544 0.42992 0.88809 0.0
O180 O 0.38657 0.4761 0.91687 0.0
O181 O 0.31363 0.45168 0.88044 0.0
C182 C 0.63072 0.9629 0.85727 0.0
O183 O 0.65126 0.96755 0.86911 0.0
Cd184 Cd 0.65076 0.94465 0.90685 0.0
O185 O 0.60851 0.94684 0.86628 0.0
Cd186 Cd 0.58586 0.91768 0.9031 0.0
C187 C 0.61136 0.88463 0.87573 0.0
O188 O 0.61882 0.94537 0.9328 0.0
O189 O 0.5938 0.90714 0.94754 0.0
O190 O 0.56475 0.94205 0.89704 0.0
C191 C 0.61193 0.93 0.95179 0.0
O192 O 0.63223 0.90294 0.88537 0.0
C193 C 0.54515 0.92827 0.91114 0.0
O194 O 0.58995 0.88438 0.87767 0.0
O195 O 0.54246 0.90709 0.9192 0.0
C196 C 0.07552 0.67889 0.85903 0.0
O197 O 0.06831 0.69206 0.87255 0.0
Cd198 Cd 0.09013 0.7142 0.91187 0.0
O199 O 0.09303 0.67475 0.86746 0.0
Cd200 Cd 0.1208 0.68076 0.90543 0.0
C201 C 0.15245 0.74164 0.88429 0.0
O202 O 0.09358 0.68408 0.93735 0.0
O203 O 0.13319 0.69989 0.94968 0.0
O204 O 0.09425 0.63526 0.89893 0.0
C205 C 0.1103 0.69421 0.95543 0.0
O206 O 0.133 0.74183 0.8943 0.0
C207 C 0.108 0.62875 0.91187 0.0
O208 O 0.15365 0.72098 0.88305 0.0
O209 O 0.13025 0.6468 0.91915 0.0
C210 C 0.39924 0.91595 0.41839 0.0
O211 O 0.39285 0.89296 0.41254 0.0
Cd212 Cd 0.34525 0.87206 0.41072 0.0
O213 O 0.38339 0.92341 0.41385 0.0
Cd214 Cd 0.34382 0.90683 0.38906 0.0
C215 C 0.33231 0.91137 0.44825 0.0
O216 O 0.31681 0.86262 0.37254 0.0
O217 O 0.29826 0.88018 0.39437 0.0
O218 O 0.3659 0.9215 0.34804 0.0
C219 C 0.29622 0.86305 0.37815 0.0
O220 O 0.33189 0.89 0.4476 0.0
C221 C 0.35738 0.93658 0.34345 0.0
O222 O 0.33779 0.92507 0.42785 0.0
O223 O 0.34266 0.93813 0.36063 0.0
C224 C 0.16192 0.43998 0.37166 0.0
O225 O 0.1781 0.46314 0.37762 0.0
Cd226 Cd 0.14954 0.48137 0.38034 0.0
O227 O 0.13829 0.43154 0.37651 0.0
Cd228 Cd 0.1157 0.4473 0.40398 0.0
C229 C 0.09385 0.44006 0.34744 0.0
O230 O 0.13401 0.4919 0.42035 0.0
O231 O 0.09673 0.47391 0.40079 0.0
O232 O 0.12486 0.43102 0.44295 0.0
C233 C 0.11285 0.49146 0.41603 0.0
O234 O 0.11523 0.4613 0.34634 0.0
C235 C 0.10132 0.41742 0.44963 0.0
O236 O 0.08722 0.42715 0.36845 0.0
O237 O 0.08441 0.41761 0.43482 0.0
C238 C 0.62727 0.6852 0.43672 0.0
O239 O 0.63487 0.67179 0.42409 0.0
Cd240 Cd 0.61279 0.64806 0.38567 0.0
O241 O 0.61 0.68944 0.42748 0.0
Cd242 Cd 0.58006 0.68643 0.39195 0.0
C243 C 0.55343 0.63423 0.41521 0.0
O244 O 0.60794 0.67895 0.36294 0.0
O245 O 0.57219 0.67196 0.34543 0.0
O246 O 0.60885 0.73091 0.40197 0.0
C247 C 0.59344 0.67232 0.34299 0.0
O248 O 0.57416 0.64334 0.40244 0.0
C249 C 0.59835 0.73995 0.38738 0.0
O250 O 0.54277 0.64795 0.41598 0.0
O251 O 0.57634 0.72382 0.37774 0.0
H252 H 0.07279 0.81248 0.1486 0.0
H253 H 0.08944 0.79875 0.11128 0.0
H254 H 0.02126 0.72332 0.11306 0.0
H255 H 1.00468 0.73672 0.15054 0.0
H256 H 0.08646 0.7395 0.11372 0.0
H257 H 0.04133 0.76626 0.03368 0.0
H258 H 0.05127 0.78407 0.06445 0.0
H259 H 0.02358 0.75231 0.06362 0.0
C260 C 0.06126 0.79312 0.14074 0.0
C261 C 0.03748 0.77562 0.15217 0.0
C262 C 0.07083 0.78529 0.1197 0.0
C263 C 0.0565 0.76011 0.10979 0.0
C264 C 0.03252 0.74279 0.12076 0.0
H265 H 0.06273 0.67764 0.97557 0.0
H266 H 0.05157 0.69414 0.01453 0.0
C267 C 0.02309 0.75047 0.14197 0.0
C268 C 0.0665 0.75171 0.08784 0.0
H269 H 0.06374 0.74501 0.02115 0.0
C270 C 0.08178 0.74084 0.09341 0.0
C271 C 0.05995 0.75342 0.06167 0.0
C272 C 0.04317 0.76467 0.05525 0.0
C273 C 0.09046 0.73109 0.07313 0.0
C274 C 0.08388 0.73276 0.04685 0.0
C275 C 0.06882 0.74395 0.04138 0.0
C276 C 0.09119 0.72181 0.0247 0.0
C277 C 0.10577 0.71832 0.07996 0.0
C278 C 0.1172 0.73181 0.01786 0.0
C279 C 0.12366 0.72224 -0.00428 0.0
C280 C 0.10411 0.70288 0.98006 0.0
C281 C 0.07814 0.69267 -0.01272 0.0
C282 C 0.07175 0.70204 0.00946 0.0
H283 H 0.10453 0.71384 0.10127 0.0
H284 H 0.09887 0.70021 0.06841 0.0
H285 H 0.12639 0.73141 0.07499 0.0
H286 H 0.13241 0.74742 0.02921 0.0
H287 H 0.14382 0.73056 -0.00962 0.0
H288 H 0.36087 0.36837 0.97012 0.0
H289 H 0.34636 0.35147 0.01426 0.0
H290 H 0.29427 0.38117 0.01493 0.0
H291 H 0.30875 0.39841 0.9706 0.0
H292 H 0.34711 0.38695 0.06041 0.0
H293 H 0.25255 0.29972 0.03579 0.0
H294 H 0.27858 0.3134 0.01209 0.0
H295 H 0.2618 0.33009 0.02051 0.0
C296 C 0.34613 0.3711 0.97948 0.0
C297 C 0.33588 0.38465 0.9669 0.0
C298 C 0.33795 0.3615 0.00468 0.0
C299 C 0.31924 0.36504 0.01754 0.0
C300 C 0.30865 0.37822 0.00505 0.0
H301 H 0.2585 0.2965 0.17212 0.0
H302 H 0.26312 0.31869 0.13043 0.0
C303 C 0.31699 0.38806 0.97986 0.0
C304 C 0.31179 0.35571 0.04454 0.0
H305 H 0.26731 0.30425 0.07952 0.0
C306 C 0.32949 0.36909 0.06477 0.0
C307 C 0.28866 0.33262 0.04994 0.0
C308 C 0.26917 0.31795 0.02854 0.0
C309 C 0.32516 0.35933 0.09029 0.0
C310 C 0.3029 0.33526 0.09536 0.0
C311 C 0.28444 0.32261 0.07544 0.0
C312 C 0.29977 0.32192 0.12042 0.0
C313 C 0.34472 0.37462 0.11147 0.0
C314 C 0.3186 0.31604 0.12816 0.0
C315 C 0.31624 0.30385 0.15195 0.0
C316 C 0.29467 0.29674 0.16809 0.0
C317 C 0.27535 0.30188 0.15997 0.0
C318 C 0.27795 0.3145 0.13627 0.0
H319 H 0.35551 0.39549 0.10692 0.0
H320 H 0.33534 0.37196 0.13101 0.0
H321 H 0.35897 0.36805 0.11267 0.0
H322 H 0.33514 0.32085 0.11572 0.0
H323 H 0.33111 0.29962 0.15752 0.0
H324 H 0.70633 0.00652 0.16952 0.0
H325 H 0.68969 0.99298 0.12495 0.0
H326 H 0.7533 0.98127 0.10618 0.0
H327 H 0.77009 0.99454 0.15103 0.0
H328 H 0.71839 0.01712 0.07705 0.0
H329 H 0.68687 0.91284 0.0841 0.0
H330 H 0.69228 0.93261 0.11312 0.0
H331 H 0.71921 0.93631 0.09407 0.0
C332 C 0.71677 1.00099 0.156 0.0
C333 C 0.73952 1.00162 0.16375 0.0
C334 C 0.70726 0.9933 0.13058 0.0
C335 C 0.72031 0.98614 0.1125 0.0
C336 C 0.74291 0.98651 0.12008 0.0
H337 H 0.65307 0.92371 0.95708 0.0
H338 H 0.68426 0.93954 -0.00635 0.0
C339 C 0.75242 0.99411 0.14564 0.0
C340 C 0.71005 0.9787 0.08563 0.0
H341 H 0.675 0.9262 0.04619 0.0
C342 C 0.70923 0.99733 0.07004 0.0
C343 C 0.69854 0.95296 0.07659 0.0
C344 C 0.69907 0.93238 0.09277 0.0
C345 C 0.69586 0.99056 0.04611 0.0
C346 C 0.68266 0.96445 0.03804 0.0
C347 C 0.68499 0.94615 0.05272 0.0
C348 C 0.6644 0.95531 0.01585 0.0
C349 C 0.69546 0.01129 0.03007 0.0
C350 C 0.64277 0.9585 0.01673 0.0
C351 C 0.62504 0.94939 -0.0039 0.0
C352 C 0.62862 0.9367 0.97467 0.0
C353 C 0.64995 0.93312 0.97386 0.0
C354 C 0.66775 0.94229 -0.00552 0.0
H355 H 0.71274 0.03043 0.03413 0.0
H356 H 0.69466 0.00702 0.00863 0.0
H357 H 0.67812 0.01249 0.03542 0.0
H358 H 0.63961 0.96802 0.0334 0.0
H359 H 0.60877 0.95255 -0.00333 0.0
H360 H 0.66266 0.07256 0.46546 0.0
H361 H 0.68082 0.06147 0.4272 0.0
H362 H 0.75752 0.10886 0.45898 0.0
H363 H 0.73952 0.12041 0.49677 0.0
H364 H 0.7277 0.10359 0.39255 0.0
H365 H 0.74052 0.02963 0.44433 0.0
H366 H 0.71629 0.03754 0.45407 0.0
H367 H 0.74963 0.05941 0.46154 0.0
C368 C 0.68338 0.08073 0.46393 0.0
C369 C 0.69992 0.09752 0.48344 0.0
C370 C 0.69365 0.0744 0.44232 0.0
C371 C 0.72038 0.08439 0.44061 0.0
C372 C 0.73685 0.10112 0.46017 0.0
H373 H 0.81292 0.05367 0.32897 0.0
H374 H 0.80011 0.07093 0.36657 0.0
C375 C 0.72665 0.10778 0.48149 0.0
C376 C 0.73129 0.07744 0.41831 0.0
H377 H 0.75634 0.03964 0.4009 0.0
C378 C 0.73402 0.08965 0.39426 0.0
C379 C 0.73953 0.05939 0.42101 0.0
C380 C 0.73631 0.04554 0.44655 0.0
C381 C 0.7449 0.08416 0.3725 0.0
C382 C 0.75284 0.06582 0.37506 0.0
C383 C 0.75042 0.05389 0.39927 0.0
C384 C 0.76128 0.05684 0.35221 0.0
C385 C 0.7478 0.09792 0.34696 0.0
C386 C 0.74347 0.04305 0.33224 0.0
C387 C 0.75057 0.03314 0.31109 0.0
C388 C 0.77561 0.03679 0.30962 0.0
C389 C 0.79349 0.05058 0.32971 0.0
C390 C 0.78628 0.06048 0.35103 0.0
H391 H 0.74708 0.11586 0.35009 0.0
H392 H 0.76628 0.1028 0.33709 0.0
H393 H 0.73175 0.08512 0.33351 0.0
H394 H 0.72393 0.03963 0.33322 0.0
H395 H 0.73634 0.02254 0.29593 0.0
H396 H 0.92407 0.59462 0.45807 0.0
H397 H 0.93611 0.62261 0.41972 0.0
H398 H 0.9783 0.6893 0.47023 0.0
H399 H 0.96787 0.66133 0.5082 0.0
H400 H 0.92502 0.65853 0.40829 0.0
H401 H 0.03174 0.7038 0.416 0.0
H402 H 0.00995 0.67657 0.4356 0.0
H403 H 0.01697 0.70848 0.4447 0.0
C404 C 0.93607 0.61525 0.46085 0.0
C405 C 0.9451 0.62589 0.48594 0.0
C406 C 0.94289 0.63119 0.43904 0.0
C407 C 0.95839 0.658 0.44213 0.0
C408 C 0.96696 0.66865 0.46731 0.0
H409 H 0.00556 0.77028 0.31443 0.0
H410 H 0.99078 0.75112 0.35806 0.0
C411 C 0.96078 0.65267 0.48901 0.0
C412 C 0.96509 0.67464 0.4189 0.0
H413 H 0.0158 0.71877 0.38242 0.0
C414 C 0.94488 0.67181 0.40273 0.0
C415 C 0.99104 0.69208 0.41183 0.0
C416 C 0.01367 0.69529 0.4278 0.0
C417 C 0.94995 0.68526 0.37913 0.0
C418 C 0.97579 0.70204 0.37183 0.0
C419 C 0.996 0.70588 0.38845 0.0
C420 C 0.98241 0.7132 0.3455 0.0
C421 C 0.92783 0.68089 0.36165 0.0
C422 C 0.98242 0.69801 0.3244 0.0
C423 C 0.99118 0.70888 0.29976 0.0
C424 C 0.99973 0.73501 0.29592 0.0
C425 C 0.9989 0.75002 0.31694 0.0
C426 C 0.99053 0.7392 0.34176 0.0
H427 H 0.90896 0.67061 0.37203 0.0
H428 H 0.93083 0.69954 0.3544 0.0
H429 H 0.92706 0.66918 0.34423 0.0
H430 H 0.97627 0.6779 0.32721 0.0
H431 H 0.99145 0.69691 0.28378 0.0
H432 H 0.38798 0.3116 0.5105 0.0
H433 H 0.35929 0.29731 0.47243 0.0
H434 H 0.42541 0.33122 0.42063 0.0
H435 H 0.4543 0.34439 0.45891 0.0
H436 H 0.35481 0.32617 0.43515 0.0
H437 H 0.38376 0.26 0.38944 0.0
H438 H 0.39297 0.2725 0.42256 0.0
H439 H 0.4099 0.29225 0.39482 0.0
C440 C 0.39638 0.31573 0.491 0.0
C441 C 0.42324 0.32881 0.48746 0.0
C442 C 0.38 0.30764 0.46931 0.0
C443 C 0.39026 0.31293 0.44378 0.0
C444 C 0.41715 0.32633 0.44019 0.0
H445 H 0.3188 0.29828 0.29419 0.0
H446 H 0.34623 0.31265 0.33325 0.0
C447 C 0.43358 0.33388 0.46196 0.0
C448 C 0.37257 0.30476 0.4211 0.0
H449 H 0.35461 0.26763 0.3653 0.0
C450 C 0.35468 0.31329 0.41993 0.0
C451 C 0.3725 0.28792 0.40138 0.0
C452 C 0.39065 0.27743 0.40215 0.0
C453 C 0.33675 0.30546 0.39937 0.0
C454 C 0.33687 0.2888 0.37972 0.0
C455 C 0.3547 0.28032 0.38072 0.0
C456 C 0.31931 0.2808 0.35716 0.0
C457 C 0.31785 0.31501 0.39853 0.0
C458 C 0.29516 0.25818 0.35808 0.0
C459 C 0.27941 0.24975 0.33574 0.0
C460 C 0.2878 0.26395 0.31239 0.0
C461 C 0.31183 0.28691 0.3119 0.0
C462 C 0.32752 0.29521 0.33412 0.0
H463 H 0.32036 0.32803 0.41539 0.0
H464 H 0.32034 0.32547 0.3799 0.0
H465 H 0.29781 0.29836 0.39877 0.0
H466 H 0.28873 0.24693 0.3759 0.0
H467 H 0.2609 0.2321 0.33664 0.0
H468 H 0.02303 0.29446 0.80401 0.0
H469 H 0.01263 0.31172 0.84306 0.0
H470 H 0.95066 0.23539 0.86181 0.0
H471 H 0.96192 0.21791 0.8235 0.0
H472 H 0.96956 0.31188 0.85351 0.0
H473 H 0.9861 0.25822 0.93161 0.0
H474 H 0.99671 0.25916 0.8981 0.0
H475 H 0.96365 0.23729 0.90712 0.0
C476 C 0.0074 0.2814 0.81671 0.0
C477 C 0.99333 0.25491 0.81109 0.0
C478 C 1.00148 0.29123 0.83891 0.0
C479 C 0.98118 0.27474 0.85551 0.0
C480 C 0.96693 0.24828 0.8497 0.0
H481 H 0.89718 0.30461 0.97531 0.0
H482 H 0.91038 0.28827 0.93739 0.0
C483 C 0.97324 0.23835 0.82782 0.0
C484 C 0.97413 0.28548 0.87813 0.0
H485 H 0.96357 0.28 0.94443 0.0
C486 C 0.96842 0.30502 0.8734 0.0
C487 C 0.9729 0.2766 0.90407 0.0
C488 C 0.98043 0.25686 0.9106 0.0
C489 C 0.96098 0.31557 0.89394 0.0
C490 C 0.95896 0.30608 0.91955 0.0
C491 C 0.96492 0.28684 0.92448 0.0
C492 C 0.95102 0.31629 0.94164 0.0
C493 C 0.95531 0.3368 0.88837 0.0
C494 C 0.96967 0.33741 0.95608 0.0
C495 C 0.96228 0.34668 0.97765 0.0
C496 C 0.93614 0.33496 -0.01517 0.0
C497 C 0.91742 0.3141 0.96994 0.0
C498 C 0.92488 0.30469 0.94849 0.0
H499 H 0.95726 0.34169 0.86714 0.0
H500 H 0.9354 0.33096 0.89489 0.0
H501 H 0.96879 0.35432 0.89983 0.0
H502 H 0.98992 0.34651 0.9508 0.0
H503 H 0.977 0.36285 -0.01115 0.0
H504 H 0.66955 0.62292 -0.0087 0.0
H505 H 0.68231 0.64853 0.95124 0.0
H506 H 0.7514 0.64324 0.9465 0.0
H507 H 0.73815 0.61666 -0.014 0.0
H508 H 0.72402 0.69432 0.94221 0.0
H509 H 0.72314 0.62159 0.87317 0.0
H510 H 0.70947 0.6135 0.9058 0.0
H511 H 0.7438 0.62807 0.90111 0.0
C512 C 0.68738 0.62712 -0.0184 0.0
C513 C 0.70281 0.61774 -0.00848 0.0
C514 C 0.69464 0.64171 0.95877 0.0
C515 C 0.71755 0.64737 0.9457 0.0
C516 C 0.73327 0.63844 0.95589 0.0
H517 H 0.80036 0.74951 0.81789 0.0
H518 H 0.78768 0.7236 0.85786 0.0
C519 C 0.72578 0.62343 0.97848 0.0
C520 C 0.72526 0.66328 0.92186 0.0
H521 H 0.74102 0.66421 0.85703 0.0
C522 C 0.72761 0.68769 0.92356 0.0
C523 C 0.72981 0.65446 0.89756 0.0
C524 C 0.72619 0.62788 0.89417 0.0
C525 C 0.73467 0.70365 0.9016 0.0
C526 C 0.73958 0.69496 0.87756 0.0
C527 C 0.73729 0.67067 0.87573 0.0
C528 C 0.74709 0.71092 0.85395 0.0
C529 C 0.73699 0.72975 0.90409 0.0
C530 C 0.72828 0.71212 0.83883 0.0
C531 C 0.73538 0.72668 0.81593 0.0
C532 C 0.76139 0.7403 0.8081 0.0
C533 C 0.78019 0.73927 0.82357 0.0
C534 C 0.77303 0.7245 0.84629 0.0
H535 H 0.73473 0.73456 0.92477 0.0
H536 H 0.75607 0.74484 0.89659 0.0
H537 H 0.7219 0.73009 0.89184 0.0
H538 H 0.70815 0.70162 0.84464 0.0
H539 H 0.72055 0.72727 0.8044 0.0
H540 H 0.37836 0.05258 0.00244 0.0
H541 H 0.35143 0.03889 0.96271 0.0
H542 H 0.40112 0.11308 0.9281 0.0
H543 H 0.42827 0.12679 0.96739 0.0
H544 H 0.32511 0.06189 0.93827 0.0
H545 H 0.39971 0.0609 0.87367 0.0
H546 H 0.40158 0.0613 0.90916 0.0
H547 H 0.41081 0.09051 0.89171 0.0
C548 C 0.38351 0.06594 -0.01365 0.0
C549 C 0.40549 0.09066 -0.01213 0.0
C550 C 0.36812 0.05813 0.96377 0.0
C551 C 0.37459 0.07492 0.94252 0.0
C552 C 0.39616 0.09976 0.94422 0.0
H553 H 0.31339 0.07074 0.78853 0.0
H554 H 0.33231 0.08432 0.83282 0.0
C555 C 0.41158 0.10755 0.96667 0.0
C556 C 0.35901 0.06653 0.91832 0.0
H557 H 0.36284 0.05736 0.85247 0.0
C558 C 0.33324 0.06074 0.9195 0.0
C559 C 0.36978 0.06492 0.89404 0.0
C560 C 0.39691 0.06949 0.892 0.0
C561 C 0.31807 0.05397 0.89666 0.0
C562 C 0.32914 0.05311 0.87238 0.0
C563 C 0.35473 0.05852 0.87126 0.0
C564 C 0.31433 0.04553 0.84779 0.0
C565 C 0.29049 0.04803 0.89838 0.0
C566 C 0.29795 0.01936 0.84205 0.0
C567 C 0.28772 0.01165 0.81683 0.0
C568 C 0.29355 0.0301 0.79738 0.0
C569 C 0.30874 0.05636 0.80349 0.0
C570 C 0.31938 0.06406 0.82862 0.0
H571 H 0.28558 0.05207 0.91833 0.0
H572 H 0.28705 0.05954 0.88374 0.0
H573 H 0.27729 0.02739 0.8935 0.0
H574 H 0.29415 0.00491 0.85667 0.0
H575 H 0.27583 0.9913 0.81228 0.0
H576 H 0.30892 0.01968 0.65711 0.0
H577 H 0.32254 1.00386 0.61938 0.0
H578 H 0.24305 0.95654 0.59516 0.0
H579 H 0.22922 0.9726 0.63269 0.0
H580 H 0.30808 0.95267 0.60699 0.0
H581 H 0.28016 0.99806 0.52907 0.0
H582 H 0.28314 0.00761 0.56332 0.0
H583 H 0.25478 0.97894 0.5519 0.0
C584 C 0.29434 0.00601 0.64366 0.0
C585 C 0.26804 0.99744 0.64765 0.0
C586 C 0.30216 0.99699 0.62222 0.0
C587 C 0.28379 0.97933 0.6045 0.0
C588 C 0.25748 0.97056 0.60848 0.0
H589 H 0.2881 0.88769 0.47637 0.0
H590 H 0.27755 0.90485 0.51575 0.0
C591 C 0.24963 0.9797 0.62987 0.0
C592 C 0.29222 0.96993 0.58192 0.0
H593 H 0.29253 0.96798 0.51483 0.0
C594 C 0.30479 0.95607 0.58683 0.0
C595 C 0.28816 0.97482 0.55577 0.0
C596 C 0.27605 0.99088 0.54959 0.0
C597 C 0.3128 0.94628 0.56602 0.0
C598 C 0.30797 0.95048 0.53998 0.0
C599 C 0.29589 0.96474 0.53502 0.0
C600 C 0.31487 0.93975 0.51749 0.0
C601 C 0.32624 0.93139 0.57175 0.0
C602 C 0.33925 0.95395 0.50583 0.0
C603 C 0.34509 0.94442 0.4833 0.0
C604 C 0.3267 0.9205 0.47266 0.0
C605 C 0.30254 0.90604 0.48468 0.0
C606 C 0.29654 0.91578 0.50694 0.0
H607 H 0.328 0.92926 0.59322 0.0
H608 H 0.31545 0.91196 0.56249 0.0
H609 H 0.34587 0.94141 0.56295 0.0
H610 H 0.3535 0.97251 0.5139 0.0
H611 H 0.36386 0.9557 0.47413 0.0
H612 H 0.01831 0.30696 0.67085 0.0
H613 H 0.03103 0.33221 0.63053 0.0
H614 H 0.07049 0.29286 0.60359 0.0
H615 H 0.05774 0.26734 0.64378 0.0
H616 H 0.08289 0.36455 0.61072 0.0
H617 H 0.01952 0.28366 0.54306 0.0
H618 H 0.01457 0.28228 0.57827 0.0
H619 H 0.03978 0.27791 0.56455 0.0
C620 C 0.02972 0.30369 0.65637 0.0
C621 C 0.03694 0.28512 0.66034 0.0
C622 C 0.03695 0.31811 0.63342 0.0
C623 C 0.05136 0.31405 0.61415 0.0
C624 C 0.059 0.29587 0.6182 0.0
H625 H 0.12722 0.39702 0.47346 0.0
H626 H 0.115 0.37191 0.51409 0.0
C627 C 0.0518 0.28144 0.64116 0.0
C628 C 0.05852 0.32901 0.58982 0.0
H629 H 0.04861 0.32357 0.52344 0.0
C630 C 0.07544 0.35567 0.59162 0.0
C631 C 0.04845 0.31718 0.56513 0.0
C632 C 0.0294 0.28871 0.5625 0.0
C633 C 0.08291 0.37086 0.56905 0.0
C634 C 0.07313 0.35896 0.5444 0.0
C635 C 0.05606 0.33239 0.54257 0.0
C636 C 0.08037 0.37396 0.52019 0.0
C637 C 0.10105 0.39951 0.57152 0.0
C638 C 0.06464 0.38299 0.51045 0.0
C639 C 0.07136 0.397 0.48723 0.0
C640 C 0.09399 0.40229 0.47376 0.0
C641 C 0.10976 0.39328 0.48368 0.0
C642 C 0.10285 0.37899 0.50672 0.0
H643 H 0.1069 0.4058 0.59225 0.0
H644 H 0.11865 0.40518 0.55957 0.0
H645 H 0.0916 0.40984 0.56362 0.0
H646 H 0.04726 0.37922 0.52085 0.0
H647 H 0.0591 0.40404 0.48003 0.0
H648 H 0.60551 0.69859 0.47661 0.0
H649 H 0.62354 0.71461 0.52067 0.0
H650 H 0.6921 0.71247 0.49908 0.0
H651 H 0.67418 0.69612 0.45524 0.0
H652 H 0.64402 0.68561 0.55547 0.0
H653 H 0.71357 0.78779 0.53162 0.0
H654 H 0.68457 0.76808 0.51261 0.0
H655 H 0.71212 0.76409 0.50859 0.0
C656 C 0.62452 0.70175 0.48123 0.0
C657 C 0.63849 0.69605 0.46264 0.0
C658 C 0.63468 0.71081 0.50632 0.0
C659 C 0.65905 0.7147 0.5128 0.0
C660 C 0.67324 0.70959 0.49416 0.0
H661 H 0.77443 0.76658 0.62807 0.0
H662 H 0.74567 0.74985 0.5899 0.0
C663 C 0.66298 0.70018 0.46927 0.0
C664 C 0.66959 0.723 0.53941 0.0
H665 H 0.71988 0.77233 0.57203 0.0
C666 C 0.66034 0.70467 0.55944 0.0
C667 C 0.69073 0.74786 0.54412 0.0
C668 C 0.7008 0.76824 0.5232 0.0
C669 C 0.67299 0.71009 0.58382 0.0
C670 C 0.69501 0.73464 0.5881 0.0
C671 C 0.70317 0.75342 0.5685 0.0
C672 C 0.71114 0.74109 0.61191 0.0
C673 C 0.66359 0.68912 0.60408 0.0
C674 C 0.70103 0.74089 0.63695 0.0
C675 C 0.71736 0.74981 0.65883 0.0
C676 C 0.74398 0.7597 0.65563 0.0
C677 C 0.75395 0.75926 0.63076 0.0
C678 C 0.73757 0.74973 0.60908 0.0
H679 H 0.65006 0.66986 0.59545 0.0
H680 H 0.68006 0.68849 0.61315 0.0
H681 H 0.6532 0.69308 0.61992 0.0
H682 H 0.68081 0.73484 0.63944 0.0
H683 H 0.70945 0.75021 0.67796 0.0
H684 H 0.3743 0.45447 0.79853 0.0
H685 H 0.39191 0.44337 0.76009 0.0
H686 H 0.39114 0.38189 0.80367 0.0
H687 H 0.37237 0.3919 0.84136 0.0
H688 H 0.43577 0.4411 0.75212 0.0
H689 H 0.34924 0.34374 0.74023 0.0
H690 H 0.34969 0.36775 0.76217 0.0
H691 H 0.36411 0.34918 0.772 0.0
C692 C 0.37782 0.43854 0.79977 0.0
C693 C 0.37166 0.42382 0.82272 0.0
C694 C 0.38797 0.43231 0.77793 0.0
C695 C 0.39234 0.4115 0.77894 0.0
C696 C 0.38723 0.39754 0.80225 0.0
H697 H 0.44618 0.34819 0.65319 0.0
H698 H 0.44314 0.36434 0.69717 0.0
C699 C 0.37659 0.40337 0.82381 0.0
C700 C 0.40141 0.40379 0.75536 0.0
H701 H 0.38464 0.35376 0.71237 0.0
C702 C 0.42467 0.42198 0.74348 0.0
C703 C 0.38682 0.37879 0.74417 0.0
C704 C 0.36097 0.35882 0.75513 0.0
C705 C 0.4335 0.41589 0.72039 0.0
C706 C 0.41876 0.39107 0.70921 0.0
C707 C 0.39597 0.37268 0.72142 0.0
C708 C 0.42449 0.38468 0.68299 0.0
C709 C 0.45812 0.43603 0.70761 0.0
C710 C 0.41498 0.39089 0.66087 0.0
C711 C 0.41604 0.3812 0.63615 0.0
C712 C 0.42704 0.36559 0.63323 0.0
C713 C 0.43771 0.36034 0.65517 0.0
C714 C 0.43609 0.36957 0.68011 0.0
H715 H 0.4691 0.45324 0.72051 0.0
H716 H 0.47058 0.42782 0.7026 0.0
H717 H 0.45338 0.44216 0.68896 0.0
H718 H 0.40575 0.40234 0.66294 0.0
H719 H 0.40794 0.38559 0.61934 0.0
H720 H 0.69648 0.04386 0.63179 0.0
H721 H 0.68296 0.02735 0.67633 0.0
H722 H 0.62792 0.05345 0.67673 0.0
H723 H 0.64138 0.07024 0.63216 0.0
H724 H 0.68207 0.06268 0.72204 0.0
H725 H 0.58972 0.9724 0.69861 0.0
H726 H 0.61548 0.98707 0.67471 0.0
H727 H 0.59712 1.00215 0.68305 0.0
C728 C 0.6813 0.04583 0.64121 0.0
C729 C 0.66993 0.05826 0.62853 0.0
C730 C 0.67369 0.03649 0.66661 0.0
C731 C 0.65444 0.03916 0.67949 0.0
C732 C 0.64273 0.05118 0.66685 0.0
H733 H 0.59565 0.97351 0.83544 0.0
H734 H 0.5993 0.99413 0.79293 0.0
C735 C 0.65049 0.06077 0.64151 0.0
C736 C 0.64747 0.03014 0.70661 0.0
H737 H 0.60428 0.97876 0.74256 0.0
C738 C 0.66491 0.04451 0.72669 0.0
C739 C 0.62487 0.00668 0.71238 0.0
C740 C 0.60561 0.991 0.69115 0.0
C741 C 0.66087 0.03543 0.75248 0.0
C742 C 0.6392 0.01106 0.75796 0.0
C743 C 0.62097 0.99735 0.73814 0.0
C744 C 0.63657 0.99858 0.78344 0.0
C745 C 0.68008 0.05178 0.77351 0.0
C746 C 0.65608 0.9939 0.79171 0.0
C747 C 0.65428 0.98266 0.81596 0.0
C748 C 0.63263 0.97533 0.83204 0.0
C749 C 0.61263 0.9792 0.82339 0.0
C750 C 0.61465 0.99089 0.79921 0.0
H751 H 0.69016 0.07251 0.76842 0.0
H752 H 0.67053 0.04923 0.79295 0.0
H753 H 0.69494 0.04606 0.77528 0.0
H754 H 0.67271 0.99891 0.77934 0.0
H755 H 0.66963 0.97927 0.8219 0.0
H756 H 0.04327 0.68969 0.83154 0.0
H757 H 0.02696 0.67561 0.78685 0.0
H758 H 0.06598 0.63202 0.78223 0.0
H759 H 0.0825 0.64596 0.82703 0.0
H760 H 0.06389 0.68417 0.74094 0.0
H761 H 0.98694 0.58241 0.75834 0.0
H762 H 0.99751 0.60648 0.78427 0.0
H763 H 0.0183 0.5949 0.77329 0.0
C764 C 0.04817 0.67688 0.82119 0.0
C765 C 0.0642 0.66898 0.83279 0.0
C766 C 0.03888 0.66892 0.79569 0.0
C767 C 0.04525 0.65276 0.78153 0.0
C768 C 0.06077 0.64435 0.7931 0.0
H769 H 0.98331 0.59568 0.62266 0.0
H770 H 0.00566 0.60074 0.6647 0.0
C771 C 0.07021 0.65241 0.81861 0.0
C772 C 0.0366 0.646 0.75409 0.0
H773 H 0.98963 0.59884 0.71588 0.0
C774 C 0.04789 0.66543 0.73529 0.0
C775 C 0.0161 0.62139 0.74692 0.0
C776 C 1.00384 0.59997 0.76666 0.0
C777 C 0.03832 0.66126 0.70956 0.0
C778 C 0.01648 0.63726 0.70286 0.0
C779 C 0.00621 0.61729 0.72124 0.0
C780 C 1.00266 0.63351 0.67781 0.0
C781 C 0.05141 0.68278 0.68998 0.0
C782 C 0.99305 0.6498 0.67179 0.0
C783 C 0.98085 0.64727 0.64783 0.0
C784 C 0.97741 0.62793 0.62983 0.0
C785 C 0.98588 0.61078 0.63631 0.0
C786 C 0.99862 0.61367 0.66018 0.0
H787 H 0.07205 0.69584 0.69511 0.0
H788 H 0.05025 0.67518 0.66967 0.0
H789 H 0.04177 0.69441 0.69026 0.0
H790 H 0.99514 0.66462 0.6856 0.0
H791 H 0.97394 0.66034 0.64344 0.0
H792 H 0.59556 0.62867 0.34037 0.0
H793 H 0.60935 0.61274 0.30254 0.0
H794 H 0.61918 0.67686 0.25649 0.0
H795 H 0.60503 0.69267 0.29432 0.0
H796 H 0.5855 0.6029 0.24758 0.0
H797 H 0.69044 0.67542 0.25517 0.0
H798 H 0.66874 0.66696 0.28294 0.0
H799 H 0.66805 0.68702 0.25753 0.0
C800 C 0.60053 0.63918 0.32207 0.0
C801 C 0.59923 0.66168 0.31985 0.0
C802 C 0.60839 0.63015 0.30064 0.0
C803 C 0.61545 0.64386 0.27706 0.0
C804 C 0.6139 0.66624 0.27473 0.0
H805 H 0.66655 0.62398 0.12551 0.0
H806 H 0.65398 0.63899 0.16465 0.0
C807 C 0.60567 0.67507 0.29608 0.0
C808 C 0.624 0.63442 0.25469 0.0
H809 H 0.67706 0.64687 0.21858 0.0
C810 C 0.60549 0.61236 0.24122 0.0
C811 C 0.65012 0.64699 0.24678 0.0
C812 C 0.67063 0.67034 0.26137 0.0
C813 C 0.61244 0.60271 0.21945 0.0
C814 C 0.63853 0.61534 0.21143 0.0
C815 C 0.65708 0.63732 0.22501 0.0
C816 C 0.64677 0.60643 0.18835 0.0
C817 C 0.59183 0.57949 0.20475 0.0
C818 C 0.64706 0.58333 0.18912 0.0
C819 C 0.65427 0.57467 0.16684 0.0
C820 C 0.66123 0.58908 0.14359 0.0
C821 C 0.66123 0.61243 0.14312 0.0
C822 C 0.65411 0.62107 0.1654 0.0
H823 H 0.57206 0.57439 0.21112 0.0
H824 H 0.59361 0.58307 0.18322 0.0
H825 H 0.59437 0.56275 0.20831 0.0
H826 H 0.64161 0.57199 0.20689 0.0
H827 H 0.65414 0.55664 0.16778 0.0
H828 H 0.40328 0.07919 0.1392 0.0
H829 H 0.38406 0.05122 0.17746 0.0
H830 H 0.44155 0.02834 0.17186 0.0
H831 H 0.46133 0.05689 0.13441 0.0
H832 H 0.36473 0.99823 0.18647 0.0
H833 H 0.45279 0.06064 0.24542 0.0
H834 H 0.44641 0.07041 0.21424 0.0
H835 H 0.45927 0.04913 0.21521 0.0
C836 C 0.41154 0.06792 0.14604 0.0
C837 C 0.43395 0.07038 0.13438 0.0
C838 C 0.4006 0.05202 0.16777 0.0
C839 C 0.41184 0.0383 0.17769 0.0
C840 C 0.4331 0.03938 0.16482 0.0
H841 H 0.39056 0.93889 0.30538 0.0
H842 H 0.40181 0.96333 0.2646 0.0
C843 C 0.44432 0.0556 0.14351 0.0
C844 C 0.40251 0.02408 0.20242 0.0
H845 H 0.42241 0.02047 0.26413 0.0
C846 C 0.37718 1.00316 0.20357 0.0
C847 C 0.41887 0.03087 0.22465 0.0
C848 C 0.44576 0.05414 0.22499 0.0
C849 C 0.36807 0.98816 0.22628 0.0
C850 C 0.38476 0.99451 0.24809 0.0
C851 C 0.40985 0.01572 0.24714 0.0
C852 C 0.37687 0.97901 0.27203 0.0
C853 C 0.34103 0.96524 0.22667 0.0
C854 C 0.35934 0.98012 0.28957 0.0
C855 C 0.35298 0.96633 0.31296 0.0
C856 C 0.36412 0.95133 0.31898 0.0
C857 C 0.38166 0.95028 0.30124 0.0
C858 C 0.38807 0.96414 0.27797 0.0
H859 H 0.33166 0.96107 0.20699 0.0
H860 H 0.34132 0.94792 0.23345 0.0
H861 H 0.3291 0.96901 0.2408 0.0
H862 H 0.35086 0.99187 0.2853 0.0
H863 H 0.3394 0.96745 0.3263 0.0
H864 H 0.05967 0.39017 0.33479 0.0
H865 H 0.03197 0.374 0.29573 0.0
H866 H 0.06093 0.45201 0.27026 0.0
H867 H 0.08942 0.46823 0.30867 0.0
H868 H 0.99344 0.38176 0.27774 0.0
H869 H 0.07522 0.41957 0.20713 0.0
H870 H 0.07952 0.41806 0.24206 0.0
H871 H 0.07643 0.44396 0.22875 0.0
C872 C 0.06009 0.40382 0.3208 0.0
C873 C 0.07681 0.4304 0.32443 0.0
C874 C 0.04426 0.39458 0.29862 0.0
C875 C 0.04479 0.41184 0.28001 0.0
C876 C 0.0608 0.43842 0.28412 0.0
H877 H 0.96184 0.39458 0.13572 0.0
H878 H 0.98009 0.40779 0.18019 0.0
C879 C 0.07699 0.44764 0.30601 0.0
C880 C 0.02906 0.40208 0.25593 0.0
H881 H 0.03343 0.40357 0.18896 0.0
C882 C 1.00213 0.38647 0.25831 0.0
C883 C 0.04061 0.408 0.2307 0.0
C884 C 0.06954 0.42308 0.22694 0.0
C885 C 0.98638 0.37704 0.2359 0.0
C886 C 0.99797 0.38367 0.21084 0.0
C887 C 0.02479 0.39902 0.20843 0.0
C888 C 0.98295 0.37384 0.18653 0.0
C889 C 0.95756 0.36005 0.23889 0.0
C890 C 0.9786 0.35044 0.17585 0.0
C891 C 0.9688 0.34317 0.15043 0.0
C892 C 0.96305 0.35917 0.13558 0.0
C893 C 0.96619 0.382 0.14687 0.0
C894 C 0.97642 0.38947 0.17218 0.0
H895 H 0.95138 0.35776 0.25984 0.0
H896 H 0.94751 0.36824 0.22783 0.0
H897 H 0.95141 0.34074 0.23029 0.0
H898 H 0.98379 0.33835 0.18676 0.0
H899 H 0.96609 0.32526 0.14223 0.0
H900 H 0.2938 0.86967 0.32597 0.0
H901 H 0.25601 0.86587 0.3034 0.0
H902 H 0.20867 0.82707 0.37079 0.0
H903 H 0.24676 0.83215 0.39386 0.0
H904 H 0.20826 0.82985 0.28845 0.0
H905 H 0.20085 0.88938 0.36841 0.0
H906 H 0.22771 0.8839 0.36586 0.0
H907 H 0.19759 0.85989 0.38004 0.0
C908 C 0.27508 0.8593 0.33545 0.0
C909 C 0.27303 0.85093 0.3615 0.0
C910 C 0.25356 0.85748 0.32271 0.0
C911 C 0.2297 0.84706 0.33581 0.0
C912 C 0.22708 0.83604 0.36068 0.0
H913 H 0.07889 0.82009 0.30256 0.0
H914 H 0.11955 0.83085 0.32401 0.0
C915 C 0.24869 0.83838 0.37362 0.0
C916 C 0.20819 0.8493 0.32425 0.0
H917 H 0.16688 0.87173 0.3369 0.0
C918 C 0.19933 0.83917 0.29894 0.0
C919 C 0.19673 0.86177 0.33787 0.0
C920 C 0.20637 0.87459 0.36442 0.0
C921 C 0.17866 0.84016 0.2873 0.0
C922 C 0.16683 0.85212 0.30116 0.0
C923 C 0.17601 0.86269 0.32627 0.0
C924 C 0.14351 0.85177 0.29083 0.0
C925 C 0.16906 0.82743 0.26069 0.0
C926 C 0.14364 0.86176 0.26593 0.0
C927 C 0.12033 0.8555 0.25362 0.0
C928 C 0.09675 0.83988 0.26641 0.0
C929 C 0.09689 0.83274 0.29258 0.0
C930 C 0.12012 0.83859 0.30471 0.0
H931 H 0.17633 0.8142 0.25557 0.0
H932 H 0.14762 0.81633 0.26009 0.0
H933 H 0.17596 0.84243 0.24534 0.0
H934 H 0.16155 0.87263 0.25517 0.0
H935 H 0.12062 0.86076 0.23324 0.0
H936 H 0.24126 0.29557 0.271 0.0
H937 H 0.23324 0.32594 0.29522 0.0
H938 H 0.15156 0.27838 0.27992 0.0
H939 H 0.15964 0.24715 0.25568 0.0
H940 H 0.21197 0.35259 0.27287 0.0
H941 H 0.15577 0.29635 0.3597 0.0
H942 H 0.17473 0.28703 0.33958 0.0
H943 H 0.14396 0.28118 0.32806 0.0
C944 C 0.22152 0.29148 0.27285 0.0
C945 C 0.20106 0.26932 0.26115 0.0
C946 C 0.21699 0.30882 0.28678 0.0
C947 C 0.19189 0.30449 0.28933 0.0
C948 C 0.1711 0.28191 0.27836 0.0
H949 H 0.13052 0.39681 0.34396 0.0
H950 H 0.1402 0.36533 0.3251 0.0
C951 C 0.17566 0.2642 0.26445 0.0
C952 C 0.18832 0.32478 0.30202 0.0
H953 H 0.16137 0.33798 0.35493 0.0
C954 C 0.20097 0.34943 0.29087 0.0
C955 C 0.17429 0.32066 0.32566 0.0
C956 C 0.16155 0.29496 0.33918 0.0
C957 C 0.19948 0.36994 0.30242 0.0
C958 C 0.18503 0.36568 0.32574 0.0
C959 C 0.17258 0.34114 0.33708 0.0
C960 C 0.18025 0.38566 0.33706 0.0
C961 C 0.2127 0.39582 0.28925 0.0
C962 C 0.19981 0.40782 0.34978 0.0
C963 C 0.19437 0.42616 0.36064 0.0
C964 C 0.16925 0.4223 0.35903 0.0
C965 C 0.15001 0.40025 0.34586 0.0
C966 C 0.15545 0.38217 0.33505 0.0
H967 H 0.22128 0.39531 0.26996 0.0
H968 H 0.19872 0.40251 0.28616 0.0
H969 H 0.22833 0.41014 0.30221 0.0
H970 H 0.2191 0.41072 0.35159 0.0
H971 H 0.20951 0.4429 0.37077 0.0
H972 H 0.79193 0.93941 0.28443 0.0
H973 H 0.76259 0.90049 0.30907 0.0
H974 H 0.70212 0.88304 0.25284 0.0
H975 H 0.73137 0.92072 0.22775 0.0
H976 H 0.72025 0.89357 0.3333 0.0
H977 H 0.68991 0.81281 0.26268 0.0
H978 H 0.71736 0.84428 0.25657 0.0
H979 H 0.6851 0.8374 0.24915 0.0
C980 C 0.77277 0.92658 0.27669 0.0
C981 C 0.76406 0.93315 0.25405 0.0
C982 C 0.75588 0.9045 0.29097 0.0
C983 C 0.73008 0.88861 0.28279 0.0
C984 C 0.72199 0.89442 0.25932 0.0
H985 H 0.58759 0.76265 0.34645 0.0
H986 H 0.61916 0.80105 0.32259 0.0
C987 C 0.73883 0.91618 0.24497 0.0
C988 C 0.71075 0.86779 0.29999 0.0
H989 H 0.66159 0.80515 0.29945 0.0
C990 C 0.70765 0.87414 0.32598 0.0
C991 C 0.69402 0.84246 0.29045 0.0
C992 C 0.69695 0.83379 0.26327 0.0
C993 C 0.68795 0.85618 0.34237 0.0
C994 C 0.67101 0.83098 0.33268 0.0
C995 C 0.67427 0.82455 0.3068 0.0
C996 C 0.65075 0.81047 0.3494 0.0
C997 C 0.68513 0.86467 0.36969 0.0
C998 C 0.65766 0.80352 0.37292 0.0
C999 C 0.63957 0.78202 0.38684 0.0
C1000 C 0.61422 0.7665 0.37726 0.0
C1001 C 0.60683 0.77429 0.35454 0.0
C1002 C 0.62497 0.79608 0.34071 0.0
H1003 H 0.69332 0.88584 0.37087 0.0
H1004 H 0.66458 0.85501 0.3759 0.0
H1005 H 0.69591 0.8597 0.38386 0.0
H1006 H 0.67747 0.8138 0.37977 0.0
H1007 H 0.64606 0.77651 0.40413 0.0
H1008 H 0.84126 0.08011 0.16603 0.0
H1009 H 0.85389 0.11897 0.14026 0.0
H1010 H 0.85572 0.15975 0.21149 0.0
H1011 H 0.84405 0.12153 0.23702 0.0
H1012 H 0.82133 0.13668 0.1374 0.0
H1013 H 0.91435 0.21668 0.1738 0.0
H1014 H 0.90372 0.18353 0.1811 0.0
H1015 H 0.89237 0.20118 0.20044 0.0
C1016 C 0.846 0.09786 0.17627 0.0
C1017 C 0.84192 0.09793 0.20352 0.0
C1018 C 0.85279 0.11997 0.16151 0.0
C1019 C 0.85574 0.1424 0.17387 0.0
C1020 C 0.85415 0.14305 0.20142 0.0
H1021 H 0.86517 0.28476 0.12485 0.0
H1022 H 0.85312 0.24567 0.14989 0.0
C1023 C 0.84751 0.12112 0.21609 0.0
C1024 C 0.85616 0.16335 0.15814 0.0
H1025 H 0.88662 0.22867 0.15189 0.0
C1026 C 0.83582 0.15678 0.14034 0.0
C1027 C 0.87473 0.18965 0.16227 0.0
C1028 C 0.89763 0.19813 0.18027 0.0
C1029 C 0.83326 0.17569 0.12697 0.0
C1030 C 0.85175 0.20199 0.13119 0.0
C1031 C 0.87215 0.20856 0.14892 0.0
C1032 C 0.85185 0.22298 0.11584 0.0
C1033 C 0.8104 0.16721 0.10892 0.0
C1034 C 0.85346 0.22276 0.08827 0.0
C1035 C 0.8597 0.24481 0.07399 0.0
C1036 C 0.86496 0.26773 0.08698 0.0
C1037 C 0.8607 0.26725 0.11425 0.0
C1038 C 0.85429 0.24502 0.12861 0.0
H1039 H 0.7938 0.14844 0.11506 0.0
H1040 H 0.80406 0.18163 0.10841 0.0
H1041 H 0.81586 0.16463 0.08866 0.0
H1042 H 0.85223 0.20634 0.0779 0.0
H1043 H 0.8633 0.2448 0.05304 0.0
H1044 H 0.77987 0.58208 0.09627 0.0
H1045 H 0.82048 0.6154 0.11705 0.0
H1046 H 0.78515 0.661 0.1346 0.0
H1047 H 0.74525 0.62845 0.11477 0.0
H1048 H 0.85127 0.66889 0.10406 0.0
H1049 H 0.8137 0.65709 0.20581 0.0
H1050 H 0.79729 0.63311 0.18032 0.0
H1051 H 0.7934 0.66085 0.18267 0.0
C1052 C 0.78083 0.59914 0.10478 0.0
C1053 C 0.75928 0.60251 0.10387 0.0
C1054 C 0.80397 0.61814 0.11655 0.0
C1055 C 0.8056 0.64044 0.12776 0.0
C1056 C 0.78417 0.64373 0.12663 0.0
H1057 H 0.92071 0.78443 0.20438 0.0
H1058 H 0.88223 0.75183 0.17969 0.0
C1059 C 0.76135 0.62504 0.11502 0.0
C1060 C 0.82962 0.66106 0.14012 0.0
H1061 H 0.85215 0.6971 0.19658 0.0
C1062 C 0.85161 0.67489 0.12436 0.0
C1063 C 0.82992 0.66898 0.16657 0.0
C1064 C 0.80738 0.65406 0.18489 0.0
C1065 C 0.87368 0.69687 0.13421 0.0
C1066 C 0.87368 0.70512 0.16045 0.0
C1067 C 0.85182 0.69111 0.17626 0.0
C1068 C 0.89724 0.72617 0.17295 0.0
C1069 C 0.89677 0.71129 0.11645 0.0
C1070 C 0.91809 0.7224 0.1772 0.0
C1071 C 0.93948 0.74052 0.1913 0.0
C1072 C 0.9406 0.76287 0.20158 0.0
C1073 C 0.92016 0.76729 0.19671 0.0
C1074 C 0.89834 0.74876 0.18266 0.0
H1075 H 0.89149 0.70665 0.09533 0.0
H1076 H 0.9058 0.7324 0.11953 0.0
H1077 H 0.9114 0.70581 0.12115 0.0
H1078 H 0.91748 0.70499 0.17029 0.0
H1079 H 0.95517 0.73683 0.19453 0.0
H1080 H 0.28791 0.17221 0.23453 0.0
H1081 H 0.31452 0.15997 0.20839 0.0
H1082 H 0.29539 0.1863 0.13815 0.0
H1083 H 0.26846 0.19826 0.16428 0.0
H1084 H 0.3119 0.13192 0.15815 0.0
H1085 H 0.37414 0.23865 0.15579 0.0
H1086 H 0.34692 0.22259 0.17776 0.0
H1087 H 0.34176 0.22546 0.14349 0.0
C1088 C 0.28805 0.17382 0.21328 0.0
C1089 C 0.27594 0.1859 0.20136 0.0
C1090 C 0.30353 0.16713 0.1984 0.0
C1091 C 0.30733 0.17275 0.17146 0.0
C1092 C 0.29279 0.18196 0.15897 0.0
H1093 H 0.42586 0.17882 0.06622 0.0
H1094 H 0.38972 0.18183 0.08515 0.0
C1095 C 0.27705 0.18838 0.17384 0.0
C1096 C 0.32948 0.17315 0.15785 0.0
H1097 H 0.39059 0.21447 0.13565 0.0
C1098 C 0.32903 0.14992 0.15303 0.0
C1099 C 0.35197 0.19674 0.15159 0.0
C1100 C 0.35399 0.22235 0.15755 0.0
C1101 C 0.35047 0.1497 0.14193 0.0
C1102 C 0.37292 0.17329 0.13582 0.0
C1103 C 0.37329 0.19647 0.14037 0.0
C1104 C 0.39634 0.17421 0.12496 0.0
C1105 C 0.34913 0.12432 0.13681 0.0
C1106 C 0.41267 0.17015 0.14135 0.0
C1107 C 0.43367 0.16901 0.13072 0.0
C1108 C 0.43846 0.17158 0.10344 0.0
C1109 C 0.42279 0.17697 0.08732 0.0
C1110 C 0.40202 0.17846 0.09804 0.0
H1111 H 0.32931 0.10769 0.13957 0.0
H1112 H 0.3556 0.12364 0.11642 0.0
H1113 H 0.36236 0.12235 0.15052 0.0
H1114 H 0.40864 0.16701 0.16223 0.0
H1115 H 0.44505 0.16438 0.14362 0.0
H1116 H 0.78881 0.16535 0.55557 0.0
H1117 H 0.82734 0.17785 0.58173 0.0
H1118 H 0.78747 0.18083 0.65153 0.0
H1119 H 0.74828 0.16722 0.62531 0.0
H1120 H 0.86059 0.21309 0.61533 0.0
H1121 H 0.79836 0.12185 0.66843 0.0
H1122 H 0.78706 0.13116 0.64019 0.0
H1123 H 0.78867 0.14547 0.67199 0.0
C1124 C 0.78859 0.16972 0.57632 0.0
C1125 C 0.76551 0.16496 0.58852 0.0
C1126 C 0.8106 0.17671 0.59132 0.0
C1127 C 0.80995 0.17919 0.61876 0.0
C1128 C 0.78808 0.17809 0.63047 0.0
H1129 H 0.91543 0.1893 0.73863 0.0
H1130 H 0.87796 0.1824 0.71343 0.0
C1131 C 0.76585 0.17086 0.61541 0.0
C1132 C 0.8308 0.17958 0.63484 0.0
H1133 H 0.84222 0.14503 0.68029 0.0
C1134 C 0.85657 0.19827 0.6296 0.0
C1135 C 0.82557 0.15993 0.65317 0.0
C1136 C 0.79846 0.13832 0.65866 0.0
C1137 C 0.87719 0.19807 0.64237 0.0
C1138 C 0.87191 0.17843 0.66065 0.0
C1139 C 0.84619 0.15989 0.66607 0.0
C1140 C 0.89273 0.17804 0.67593 0.0
C1141 C 0.90443 0.21918 0.63654 0.0
C1142 C 0.91276 0.17618 0.66346 0.0
C1143 C 0.93427 0.17995 0.67796 0.0
C1144 C 0.93586 0.18558 0.70504 0.0
C1145 C 0.91467 0.18497 0.71775 0.0
C1146 C 0.8933 0.1812 0.70335 0.0
H1147 H 0.90487 0.23566 0.62644 0.0
H1148 H 0.91596 0.22636 0.65494 0.0
H1149 H 0.91386 0.21143 0.62345 0.0
H1150 H 0.91235 0.17311 0.64236 0.0
H1151 H 0.95044 0.18056 0.66766 0.0
H1152 H 0.89399 0.64552 0.56002 0.0
H1153 H 0.88206 0.67303 0.5841 0.0
H1154 H 0.84255 0.61376 0.64196 0.0
H1155 H 0.85539 0.58603 0.61799 0.0
H1156 H 0.83748 0.66968 0.59875 0.0
H1157 H 0.89458 0.6744 0.68682 0.0
H1158 H 0.89664 0.66042 0.65591 0.0
H1159 H 0.86937 0.64275 0.67723 0.0
C1160 C 0.88232 0.63805 0.57763 0.0
C1161 C 0.87575 0.61369 0.58726 0.0
C1162 C 0.87555 0.65387 0.5914 0.0
C1163 C 0.86193 0.64574 0.61513 0.0
C1164 C 0.85362 0.62064 0.62396 0.0
H1165 H 0.81989 0.7319 0.72162 0.0
H1166 H 0.82772 0.69988 0.70045 0.0
C1167 C 0.86055 0.60465 0.61008 0.0
C1168 C 0.85779 0.66442 0.63067 0.0
H1169 H 0.87461 0.69952 0.68803 0.0
C1170 C 0.84547 0.67609 0.61834 0.0
C1171 C 0.86858 0.67303 0.65608 0.0
C1172 C 0.88324 0.66222 0.66979 0.0
C1173 C 0.84366 0.69613 0.63065 0.0
C1174 C 0.85459 0.70484 0.65593 0.0
C1175 C 0.86648 0.69289 0.66853 0.0
C1176 C 0.85259 0.72541 0.67015 0.0
C1177 C 0.82989 0.70771 0.61659 0.0
C1178 C 0.86486 0.75073 0.66071 0.0
C1179 C 0.86056 0.76927 0.67292 0.0
C1180 C 0.84383 0.76263 0.69466 0.0
C1181 C 0.83281 0.73763 0.70486 0.0
C1182 C 0.83723 0.71925 0.69278 0.0
H1183 H 0.8185 0.69572 0.59949 0.0
H1184 H 0.81673 0.71013 0.63027 0.0
H1185 H 0.84435 0.72702 0.60924 0.0
H1186 H 0.87712 0.75592 0.64345 0.0
H1187 H 0.8692 0.78831 0.66453 0.0
H1188 H 0.2869 0.07492 0.66579 0.0
H1189 H 0.31989 0.11408 0.64481 0.0
H1190 H 0.29667 0.15893 0.69236 0.0
H1191 H 0.26423 0.11938 0.71457 0.0
H1192 H 0.32215 0.15162 0.61657 0.0
H1193 H 0.37141 0.19173 0.71229 0.0
H1194 H 0.34496 0.15912 0.7088 0.0
H1195 H 0.33883 0.18544 0.71123 0.0
C1196 C 0.28838 0.0931 0.67125 0.0
C1197 C 0.27294 0.09424 0.69154 0.0
C1198 C 0.30734 0.11549 0.65935 0.0
C1199 C 0.31125 0.13956 0.6674 0.0
C1200 C 0.2945 0.14061 0.68636 0.0
H1201 H 0.41435 0.29363 0.62336 0.0
H1202 H 0.38398 0.2533 0.64411 0.0
C1203 C 0.27568 0.11806 0.69871 0.0
C1204 C 0.33381 0.16326 0.65682 0.0
H1205 H 0.38916 0.21816 0.67507 0.0
C1206 C 0.33686 0.16612 0.62937 0.0
C1207 C 0.35327 0.18198 0.6735 0.0
C1208 C 0.35217 0.17937 0.70307 0.0
C1209 C 0.35836 0.18751 0.61819 0.0
C1210 C 0.37746 0.20645 0.63492 0.0
C1211 C 0.3746 0.20345 0.66231 0.0
C1212 C 0.39864 0.2311 0.62463 0.0
C1213 C 0.36002 0.19019 0.58862 0.0
C1214 C 0.41784 0.2323 0.60756 0.0
C1215 C 0.43546 0.25563 0.59552 0.0
C1216 C 0.43403 0.27783 0.60075 0.0
C1217 C 0.4161 0.27681 0.61935 0.0
C1218 C 0.39857 0.25374 0.63108 0.0
H1219 H 0.34196 0.17556 0.57868 0.0
H1220 H 0.36405 0.20965 0.583 0.0
H1221 H 0.37613 0.1878 0.58119 0.0
H1222 H 0.41846 0.21504 0.60271 0.0
H1223 H 0.4488 0.25589 0.58088 0.0
H1224 H 0.19305 0.91039 0.71791 0.0
H1225 H 0.18184 0.87219 0.74375 0.0
H1226 H 0.18722 0.91423 0.8151 0.0
H1227 H 0.19854 0.95266 0.78917 0.0
H1228 H 0.22144 0.87886 0.78216 0.0
H1229 H 0.12335 0.83934 0.82568 0.0
H1230 H 0.13285 0.85775 0.79569 0.0
H1231 H 0.14431 0.87376 0.82689 0.0
C1232 C 0.19035 0.91104 0.73898 0.0
C1233 C 0.1964 0.93438 0.75154 0.0
C1234 C 0.18435 0.88932 0.75375 0.0
C1235 C 0.18401 0.89048 0.78132 0.0
C1236 C 0.18723 0.9129 0.79381 0.0
H1237 H 0.17601 0.7899 0.90424 0.0
H1238 H 0.18897 0.82852 0.87842 0.0
C1239 C 0.19331 0.93476 0.77896 0.0
C1240 C 0.18396 0.86971 0.7968 0.0
H1241 H 0.14845 0.82168 0.84017 0.0
C1242 C 0.20544 0.86626 0.79478 0.0
C1243 C 0.16318 0.85348 0.8133 0.0
C1244 C 0.13947 0.85601 0.81553 0.0
C1245 C 0.2067 0.84704 0.80903 0.0
C1246 C 0.18588 0.83078 0.82549 0.0
C1247 C 0.16444 0.83428 0.82754 0.0
C1248 C 0.18556 0.80981 0.84082 0.0
C1249 C 0.23038 0.84446 0.80688 0.0
C1250 C 0.18102 0.78692 0.82829 0.0
C1251 C 0.17385 0.76478 0.84312 0.0
C1252 C 0.17098 0.76536 0.87056 0.0
C1253 C 0.17836 0.78903 0.88314 0.0
C1254 C 0.1855 0.81104 0.86839 0.0
H1255 H 0.24634 0.8608 0.79619 0.0
H1256 H 0.23729 0.84338 0.82681 0.0
H1257 H 0.22538 0.82633 0.79619 0.0
H1258 H 0.18081 0.78556 0.80699 0.0
H1259 H 0.16774 0.74668 0.83291 0.0
H1260 H 0.1092 0.24184 0.75963 0.0
H1261 H 0.15038 0.27359 0.78074 0.0
H1262 H 0.11371 0.31382 0.81298 0.0
H1263 H 0.07321 0.28262 0.79272 0.0
H1264 H 0.17803 0.32811 0.77272 0.0
H1265 H 0.14914 0.30543 0.87704 0.0
H1266 H 0.1312 0.28363 0.85037 0.0
H1267 H 0.12641 0.3101 0.85868 0.0
C1268 C 0.10997 0.25723 0.77162 0.0
C1269 C 0.08803 0.25976 0.77448 0.0
C1270 C 0.13343 0.27538 0.78351 0.0
C1271 C 0.13494 0.29585 0.7987 0.0
C1272 C 0.1129 0.29797 0.8018 0.0
H1273 H 0.25073 0.43265 0.88391 0.0
H1274 H 0.21146 0.40182 0.85914 0.0
C1275 C 0.08977 0.28014 0.78998 0.0
C1276 C 0.15951 0.31604 0.81051 0.0
H1277 H 0.18579 0.34706 0.86876 0.0
C1278 C 0.1799 0.3321 0.79374 0.0
C1279 C 0.16177 0.32133 0.83792 0.0
C1280 C 0.14104 0.30404 0.85706 0.0
C1281 C 0.20225 0.35373 0.80364 0.0
C1282 C 0.2042 0.3593 0.83098 0.0
C1283 C 0.18395 0.34308 0.84774 0.0
C1284 C 0.22825 0.38 0.84307 0.0
C1285 C 0.22344 0.3707 0.78475 0.0
C1286 C 0.25043 0.37793 0.84197 0.0
C1287 C 0.2724 0.39521 0.8559 0.0
C1288 C 0.27267 0.41485 0.87138 0.0
C1289 C 0.25087 0.41769 0.87195 0.0
C1290 C 0.22859 0.40013 0.85792 0.0
H1291 H 0.21622 0.36808 0.76419 0.0
H1292 H 0.2322 0.39131 0.79047 0.0
H1293 H 0.23884 0.36562 0.7852 0.0
H1294 H 0.25042 0.36226 0.83122 0.0
H1295 H 0.28908 0.39269 0.85529 0.0
H1296 H 0.77405 0.86757 0.73549 0.0
H1297 H 0.7435 0.87666 0.7589 0.0
H1298 H 0.72956 0.81791 0.81525 0.0
H1299 H 0.76106 0.81012 0.79286 0.0
H1300 H 0.69395 0.84261 0.76149 0.0
H1301 H 0.72891 0.86902 0.86411 0.0
H1302 H 0.74928 0.86868 0.83801 0.0
H1303 H 0.72646 0.83925 0.85404 0.0
C1304 C 0.76559 0.85782 0.7538 0.0
C1305 C 0.77046 0.8388 0.76295 0.0
C1306 C 0.74782 0.86266 0.76692 0.0
C1307 C 0.73427 0.84813 0.78904 0.0
C1308 C 0.74023 0.83002 0.79885 0.0
H1309 H 0.6107 0.83992 0.88587 0.0
H1310 H 0.63606 0.82518 0.86089 0.0
C1311 C 0.75838 0.82564 0.78611 0.0
C1312 C 0.71181 0.84948 0.79975 0.0
H1313 H 0.68483 0.85597 0.85655 0.0
C1314 C 0.69206 0.84573 0.78228 0.0
C1315 C 0.709 0.85304 0.82692 0.0
C1316 C 0.72968 0.85795 0.84678 0.0
C1317 C 0.6696 0.8453 0.79117 0.0
C1318 C 0.66691 0.84914 0.81831 0.0
C1319 C 0.68658 0.85265 0.83579 0.0
C1320 C 0.64528 0.85205 0.829 0.0
C1321 C 0.6489 0.84029 0.7713 0.0
C1322 C 0.64041 0.87068 0.81855 0.0
C1323 C 0.62499 0.8782 0.83225 0.0
C1324 C 0.61478 0.86782 0.85701 0.0
C1325 C 0.61775 0.84768 0.86647 0.0
C1326 C 0.63264 0.83962 0.85239 0.0
H1327 H 0.64886 0.828 0.75475 0.0
H1328 H 0.62939 0.83079 0.78036 0.0
H1329 H 0.65295 0.85887 0.76282 0.0
H1330 H 0.65042 0.88123 0.8011 0.0
H1331 H 0.62373 0.89441 0.82503 0.0
H1332 H 0.48114 0.43553 0.56146 0.0
H1333 H 0.48783 0.47292 0.53784 0.0
H1334 H 0.55226 0.47561 0.4965 0.0
H1335 H 0.54413 0.43618 0.51886 0.0
H1336 H 0.52234 0.51905 0.5354 0.0
H1337 H 0.51396 0.47823 0.43498 0.0
H1338 H 0.50765 0.45909 0.46407 0.0
H1339 H 0.54034 0.48002 0.45314 0.0
C1340 C 0.49701 0.44409 0.54759 0.0
C1341 C 0.51207 0.43269 0.54203 0.0
C1342 C 0.50075 0.46559 0.53396 0.0
C1343 C 0.52013 0.47689 0.51482 0.0
C1344 C 0.53652 0.46673 0.51045 0.0
H1345 H 0.58191 0.61215 0.42504 0.0
H1346 H 0.57027 0.57352 0.44936 0.0
C1347 C 0.53223 0.4445 0.52362 0.0
C1348 C 0.52268 0.49921 0.49984 0.0
H1349 H 0.52653 0.52253 0.43792 0.0
C1350 C 0.52296 0.5196 0.51405 0.0
C1351 C 0.52313 0.49991 0.47192 0.0
C1352 C 0.52098 0.47802 0.45513 0.0
C1353 C 0.52439 0.54084 0.50129 0.0
C1354 C 0.52588 0.54194 0.47356 0.0
C1355 C 0.52521 0.52149 0.45924 0.0
C1356 C 0.53189 0.56562 0.45923 0.0
C1357 C 0.52517 0.56238 0.51753 0.0
C1358 C 0.5141 0.57426 0.45687 0.0
C1359 C 0.52075 0.59679 0.4428 0.0
C1360 C 0.54518 0.61068 0.43085 0.0
C1361 C 0.56277 0.60186 0.43363 0.0
C1362 C 0.55621 0.5797 0.44759 0.0
H1363 H 0.5259 0.5595 0.53901 0.0
H1364 H 0.54227 0.58106 0.51206 0.0
H1365 H 0.50767 0.5636 0.51341 0.0
H1366 H 0.4951 0.56348 0.46566 0.0
H1367 H 0.50682 0.6031 0.44099 0.0
H1368 H 0.58193 0.10451 0.54886 0.0
H1369 H 0.54305 0.07308 0.52389 0.0
H1370 H 0.585 0.03777 0.49271 0.0
H1371 H 0.62328 0.06873 0.51713 0.0
H1372 H 0.53679 0.05812 0.46566 0.0
H1373 H 0.52131 0.97964 0.53319 0.0
H1374 H 0.54123 0.01329 0.54187 0.0
H1375 H 0.55346 0.9981 0.52017 0.0
C1376 C 0.58276 0.09027 0.53629 0.0
C1377 C 0.60534 0.0888 0.53489 0.0
C1378 C 0.56068 0.07235 0.52217 0.0
C1379 C 0.56115 0.05287 0.50691 0.0
C1380 C 0.58415 0.05237 0.50467 0.0
H1381 H 0.44558 0.91608 0.41907 0.0
H1382 H 0.48656 0.94945 0.43915 0.0
C1383 C 0.60597 0.07012 0.51852 0.0
C1384 C 0.53765 0.03223 0.4939 0.0
H1385 H 0.49606 0.9672 0.49418 0.0
C1386 C 0.52773 0.03828 0.47198 0.0
C1387 C 0.52623 0.0063 0.50196 0.0
C1388 C 0.53593 0.99886 0.52571 0.0
C1389 C 0.50667 0.01898 0.45778 0.0
C1390 C 0.49505 0.99309 0.46603 0.0
C1391 C 0.50516 0.98702 0.48779 0.0
C1392 C 0.47079 0.97257 0.454 0.0
C1393 C 0.49711 0.02639 0.43391 0.0
C1394 C 0.44845 0.97425 0.45641 0.0
C1395 C 0.4254 0.95551 0.44511 0.0
C1396 C 0.42397 0.9344 0.43126 0.0
C1397 C 0.44615 0.93214 0.42956 0.0
C1398 C 0.46949 0.95118 0.44091 0.0
H1399 H 0.51209 0.04524 0.42599 0.0
H1400 H 0.49112 0.01155 0.41808 0.0
H1401 H 0.48006 0.02802 0.4395 0.0
H1402 H 0.44885 0.99017 0.46706 0.0
H1403 H 0.40857 0.95763 0.44729 0.0
H1404 H 0.10047 0.52707 0.40146 0.0
H1405 H 0.0705 0.53677 0.42502 0.0
H1406 H 0.06897 0.4904 0.48993 0.0
H1407 H 0.10008 0.4822 0.46709 0.0
H1408 H 0.02311 0.50173 0.43547 0.0
H1409 H 0.06915 0.54675 0.53065 0.0
H1410 H 0.08713 0.54348 0.50376 0.0
H1411 H 0.06819 0.51681 0.52528 0.0
C1412 C 0.09486 0.52031 0.42142 0.0
C1413 C 0.10321 0.50471 0.43293 0.0
C1414 C 0.07743 0.52547 0.43471 0.0
C1415 C 0.06758 0.51455 0.45945 0.0
C1416 C 0.07686 0.49983 0.47137 0.0
H1417 H 0.9468 0.50579 0.56246 0.0
H1418 H 0.97714 0.49599 0.53956 0.0
C1419 C 0.09478 0.49525 0.45836 0.0
C1420 C 0.04546 0.51589 0.47119 0.0
H1421 H 0.02363 0.52936 0.52795 0.0
C1422 C 0.02331 0.50797 0.45566 0.0
C1423 C 0.0455 0.5237 0.4976 0.0
C1424 C 0.06888 0.53339 0.51517 0.0
C1425 C 1.00113 0.50725 0.46585 0.0
C1426 C 1.00116 0.51507 0.49231 0.0
C1427 C 0.02335 0.52301 0.5078 0.0
C1428 C 0.97917 0.51665 0.5041 0.0
C1429 C 0.9778 0.49755 0.44817 0.0
C1430 C 0.96943 0.53064 0.49155 0.0
C1431 C 0.95123 0.53505 0.50409 0.0
C1432 C 0.94316 0.52649 0.52987 0.0
C1433 C 0.95235 0.51205 0.54236 0.0
C1434 C 0.96988 0.50676 0.52937 0.0
H1435 H 0.9774 0.48388 0.43299 0.0
H1436 H 0.9595 0.48781 0.45952 0.0
H1437 H 0.97879 0.51406 0.43761 0.0
H1438 H 0.97694 0.53948 0.47267 0.0
H1439 H 0.94513 0.54709 0.49447 0.0
H1440 H 0.41574 0.49813 0.9642 0.0
H1441 H 0.4554 0.51204 -0.01007 0.0
H1442 H 0.49051 0.49818 0.92196 0.0
H1443 H 0.45253 0.48683 0.89618 0.0
H1444 H 0.47068 0.47995 0.00179 0.0
H1445 H 0.55211 0.55834 0.94839 0.0
H1446 H 0.5191 0.54922 0.94141 0.0
H1447 H 0.53353 0.53222 0.92612 0.0
C1448 C 0.43265 0.49984 0.95445 0.0
C1449 C 0.43121 0.49152 0.92823 0.0
C1450 C 0.45512 0.50729 0.96923 0.0
C1451 C 0.47616 0.50634 0.9579 0.0
C1452 C 0.4752 0.50008 0.93109 0.0
H1453 H 0.61439 0.50592 0.00612 0.0
H1454 H 0.57391 0.49493 -0.01653 0.0
C1455 C 0.45329 0.49345 0.9163 0.0
C1456 C 0.49737 0.50792 0.97433 0.0
H1457 H 0.56245 0.53158 0.97474 0.0
C1458 C 0.4908 0.49159 -0.00387 0.0
C1459 C 0.52363 0.52275 0.96679 0.0
C1460 C 0.53244 0.54177 0.94454 0.0
C1461 C 0.50959 0.48908 0.01001 0.0
C1462 C 0.53576 0.50348 0.00203 0.0
C1463 C 0.54235 0.52008 0.98052 0.0
C1464 C 0.55707 0.50372 0.01703 0.0
C1465 C 0.50103 0.47052 0.03264 0.0
C1466 C 0.5605 0.51104 0.04367 0.0
C1467 C 0.58317 0.51669 0.05664 0.0
C1468 C 0.60325 0.51578 0.04313 0.0
C1469 C 0.59911 0.50644 0.01709 0.0
C1470 C 0.57612 0.50049 0.00409 0.0
H1471 H 0.48076 0.45465 0.03001 0.0
H1472 H 0.5136 0.46203 0.03485 0.0
H1473 H 0.50185 0.48091 0.05116 0.0
H1474 H 0.54655 0.51435 0.05397 0.0
H1475 H 0.5859 0.52398 0.07671 0.0
H1476 H 0.52362 0.92076 0.96009 0.0
H1477 H 0.51416 0.95089 -0.0163 0.0
H1478 H 0.52702 0.99383 0.91235 0.0
H1479 H 0.53651 0.96394 0.88878 0.0
H1480 H 0.55309 1.00411 -0.01267 0.0
H1481 H 0.46253 0.99136 0.94415 0.0
H1482 H 0.47143 0.96684 0.94202 0.0
H1483 H 0.48585 0.99384 0.92022 0.0
C1484 C 0.52323 0.93591 0.94917 0.0
C1485 C 0.53067 0.93995 0.92254 0.0
C1486 C 0.51817 0.95331 0.96277 0.0
C1487 C 0.51995 0.97463 0.94979 0.0
C1488 C 0.52524 0.97738 0.9227 0.0
H1489 H 0.51469 0.11161 -0.00337 0.0
H1490 H 0.52623 0.08283 0.97302 0.0
C1491 C 0.53056 0.96021 0.90921 0.0
C1492 C 0.51926 0.99557 0.96484 0.0
H1493 H 0.48793 0.02962 0.96926 0.0
C1494 C 0.53873 0.00959 -0.01645 0.0
C1495 C 0.5007 1.00283 0.95967 0.0
C1496 C 0.47879 0.98782 0.9406 0.0
C1497 C 0.54033 0.03094 -0.00306 0.0
C1498 C 0.52185 0.03829 -0.00838 0.0
C1499 C 0.50236 0.02422 0.97297 0.0
C1500 C 0.52078 0.05898 0.00678 0.0
C1501 C 0.56195 0.04567 0.0164 0.0
C1502 C 0.51492 0.05568 0.03371 0.0
C1503 C 0.50837 0.07198 0.04706 0.0
C1504 C 0.50767 0.09197 0.03379 0.0
C1505 C 0.51559 0.09666 0.00739 0.0
C1506 C 0.5219 0.08008 -0.00613 0.0
H1507 H 0.57828 0.04222 0.01295 0.0
H1508 H 0.56928 0.06667 0.01535 0.0
H1509 H 0.5546 0.03928 0.03664 0.0
H1510 H 0.51352 0.03935 0.04397 0.0
H1511 H 0.50202 0.06781 0.06736 0.0
H1512 H 0.06923 0.58464 0.89024 0.0
H1513 H 0.03866 0.54616 0.91434 0.0
H1514 H 0.08598 0.57589 -0.01604 0.0
H1515 H 0.11675 0.61451 0.95987 0.0
H1516 H 0.04109 0.50781 0.94547 0.0
H1517 H 0.01602 0.57072 0.00425 0.0
H1518 H 0.03488 0.58133 0.97441 0.0
H1519 H 0.04959 0.57995 0.00459 0.0
C1520 C 0.07365 0.58254 0.91039 0.0
C1521 C 0.09541 0.60261 0.92314 0.0
C1522 C 0.05604 0.56062 0.92421 0.0
C1523 C 0.05969 0.55847 0.95111 0.0
C1524 C 0.08258 0.57738 0.9633 0.0
H1525 H 0.96762 0.45115 0.07168 0.0
H1526 H 0.99802 0.48902 0.0467 0.0
C1527 C 0.10038 0.59926 0.94939 0.0
C1528 C 0.03856 0.53762 0.96668 0.0
H1529 H 0.99471 0.52672 0.0155 0.0
C1530 C 0.03092 0.51191 0.96076 0.0
C1531 C 0.02511 0.54302 -0.01357 0.0
C1532 C 0.03158 0.57021 -0.00726 0.0
C1533 C 0.01063 0.49148 0.9745 0.0
C1534 C 0.99727 0.4969 -0.00565 0.0
C1535 C 1.00485 0.52261 0.00019 0.0
C1536 C 0.97643 0.47614 0.01028 0.0
C1537 C 1.00408 0.46428 0.96815 0.0
C1538 C 0.95332 0.4571 -0.00144 0.0
C1539 C 0.9356 0.43557 0.01299 0.0
C1540 C 0.94088 0.4327 0.0393 0.0
C1541 C 0.96294 0.45288 0.05151 0.0
C1542 C 0.98047 0.47445 0.03718 0.0
H1543 H 0.01938 0.46372 0.95619 0.0
H1544 H 1.00124 0.4533 -0.01351 0.0
H1545 H 0.98579 0.45442 0.95677 0.0
H1546 H 0.94961 0.45826 0.97792 0.0
H1547 H 0.919 0.42021 0.0029 0.0
loop_
_geom_bond_atom_site_label_1
_geom_bond_atom_site_label_2
_geom_bond_distance
_geom_bond_site_symmetry_2
_ccdc_geom_bond_type
C0 O1 1.306 . S
C0 O3 1.160 1_455 S
O1 C0 1.306 . S
O1 Cd2 2.228 . S
Cd2 O1 2.228 . S
Cd2 O6 2.273 . S
Cd2 O10 2.277 . S
O3 C0 1.160 1_655 S
O3 Cd4 2.203 1_655 S
Cd4 O3 2.203 1_455 S
Cd4 O6 2.411 . S
Cd4 O7 2.333 . S
Cd4 O8 2.352 1_455 S
Cd4 O12 2.277 . S
Cd4 O13 2.356 1_455 S
C5 O10 1.209 . S
C5 O12 1.226 . S
O6 Cd2 2.273 . S
O6 Cd4 2.411 . S
O6 C9 1.320 . S
O7 Cd4 2.333 . S
O7 C9 1.214 . S
O8 Cd4 2.352 1_655 S
O8 C11 1.258 . S
C9 O6 1.320 . S
C9 O7 1.214 . S
O10 Cd2 2.277 . S
O10 C5 1.209 . S
C11 O8 1.258 . S
C11 O13 1.282 . S
O12 Cd4 2.277 . S
O12 C5 1.226 . S
O13 Cd4 2.356 1_655 S
O13 C11 1.282 . S
C14 O15 1.306 . S
C14 O17 1.160 . S
O15 C14 1.306 . S
O15 Cd16 2.228 . S
Cd16 O15 2.228 . S
Cd16 O20 2.273 . S
Cd16 O24 2.277 . S
O17 C14 1.160 . S
O17 Cd18 2.203 . S
Cd18 O17 2.203 . S
Cd18 O20 2.411 . S
Cd18 O21 2.333 . S
Cd18 O22 2.352 . S
Cd18 O26 2.277 . S
Cd18 O27 2.356 . S
C19 O24 1.209 . S
C19 O26 1.226 . S
O20 Cd16 2.273 . S
O20 Cd18 2.411 . S
O20 C23 1.320 . S
O21 Cd18 2.333 . S
O21 C23 1.214 . S
O22 Cd18 2.352 . S
O22 C25 1.258 . S
C23 O20 1.320 . S
C23 O21 1.214 . S
O24 Cd16 2.277 . S
O24 C19 1.209 . S
C25 O22 1.258 . S
C25 O27 1.282 . S
O26 Cd18 2.277 . S
O26 C19 1.226 . S
O27 Cd18 2.356 . S
O27 C25 1.282 . S
C28 O29 1.306 . S
C28 O31 1.160 1_545 S
O29 C28 1.306 . S
O29 Cd30 2.228 . S
Cd30 O29 2.228 . S
Cd30 O34 2.273 . S
Cd30 O38 2.277 . S
O31 C28 1.160 1_565 S
O31 Cd32 2.203 1_565 S
Cd32 O31 2.203 1_545 S
Cd32 O34 2.411 . S
Cd32 O35 2.333 . S
Cd32 O36 2.352 1_545 S
Cd32 O40 2.277 . S
Cd32 O41 2.356 1_545 S
C33 O38 1.209 . S
C33 O40 1.226 . S
O34 Cd30 2.273 . S
O34 Cd32 2.411 . S
O34 C37 1.320 . S
O35 Cd32 2.333 . S
O35 C37 1.214 . S
O36 Cd32 2.352 1_565 S
O36 C39 1.258 . S
C37 O34 1.320 . S
C37 O35 1.214 . S
O38 Cd30 2.277 . S
O38 C33 1.209 . S
C39 O36 1.258 . S
C39 O41 1.282 . S
O40 Cd32 2.277 . S
O40 C33 1.226 . S
O41 Cd32 2.356 1_565 S
O41 C39 1.282 . S
C42 O43 1.306 . S
C42 O45 1.160 . S
O43 C42 1.306 . S
O43 Cd44 2.228 1_455 S
Cd44 O43 2.228 1_655 S
Cd44 O48 2.273 . S
Cd44 O52 2.277 . S
O45 C42 1.160 . S
O45 Cd46 2.203 . S
Cd46 O45 2.203 . S
Cd46 O48 2.411 1_455 S
Cd46 O49 2.333 1_455 S
Cd46 O50 2.352 . S
Cd46 O54 2.279 . S
Cd46 O55 2.356 . S
C47 O52 1.209 . S
C47 O54 1.226 1_655 S
O48 Cd44 2.273 . S
O48 Cd46 2.411 1_655 S
O48 C51 1.320 . S
O49 Cd46 2.333 1_655 S
O49 C51 1.214 . S
O50 Cd46 2.352 . S
O50 C53 1.258 . S
C51 O48 1.320 . S
C51 O49 1.214 . S
O52 Cd44 2.277 . S
O52 C47 1.209 . S
C53 O50 1.258 . S
C53 O55 1.282 . S
O54 Cd46 2.279 . S
O54 C47 1.226 1_455 S
O55 Cd46 2.356 . S
O55 C53 1.282 . S
C56 O57 1.306 . S
C56 O59 1.160 . S
O57 C56 1.306 . S
O57 Cd58 2.228 . S
Cd58 O57 2.228 . S
Cd58 O62 2.273 . S
Cd58 O66 2.277 . S
O59 C56 1.160 . S
O59 Cd60 2.203 . S
Cd60 O59 2.203 . S
Cd60 O62 2.411 . S
Cd60 O63 2.333 . S
Cd60 O64 2.352 . S
Cd60 O68 2.277 . S
Cd60 O69 2.356 . S
C61 O66 1.209 . S
C61 O68 1.226 . S
O62 Cd58 2.273 . S
O62 Cd60 2.411 . S
O62 C65 1.320 . S
O63 Cd60 2.333 . S
O63 C65 1.214 . S
O64 Cd60 2.352 . S
O64 C67 1.258 . S
C65 O62 1.320 . S
C65 O63 1.214 . S
O66 Cd58 2.277 . S
O66 C61 1.209 . S
C67 O64 1.258 . S
C67 O69 1.282 . S
O68 Cd60 2.277 . S
O68 C61 1.226 . S
O69 Cd60 2.356 . S
O69 C67 1.282 . S
C70 O71 1.306 . S
C70 O73 1.160 . S
O71 C70 1.306 . S
O71 Cd72 2.228 1_545 S
Cd72 O71 2.228 1_565 S
Cd72 O76 2.295 . S
Cd72 O80 2.277 . S
O73 C70 1.160 . S
O73 Cd74 2.203 . S
Cd74 O73 2.203 . S
Cd74 O76 2.389 1_545 S
Cd74 O77 2.333 1_545 S
Cd74 O78 2.352 . S
Cd74 O82 2.277 1_545 S
Cd74 O83 2.356 . S
C75 O80 1.209 . S
C75 O82 1.226 . S
O76 Cd72 2.295 . S
O76 Cd74 2.389 1_565 S
O76 C79 1.318 . S
O77 Cd74 2.333 1_565 S
O77 C79 1.214 . S
O78 Cd74 2.352 . S
O78 C81 1.258 . S
C79 O76 1.318 . S
C79 O77 1.214 . S
O80 Cd72 2.277 . S
O80 C75 1.209 . S
C81 O78 1.258 . S
C81 O83 1.282 . S
O82 Cd74 2.277 1_565 S
O82 C75 1.226 . S
O83 Cd74 2.356 . S
O83 C81 1.282 . S
C84 O85 1.306 . S
C84 O87 1.160 . S
O85 C84 1.306 . S
O85 Cd86 2.228 . S
Cd86 O85 2.228 . S
Cd86 O90 2.273 . S
Cd86 O94 2.277 . S
O87 C84 1.160 . S
O87 Cd88 2.203 . S
Cd88 O87 2.203 . S
Cd88 O90 2.411 . S
Cd88 O91 2.333 . S
Cd88 O92 2.352 . S
Cd88 O96 2.277 . S
Cd88 O97 2.356 . S
C89 O94 1.209 . S
C89 O96 1.226 . S
O90 Cd86 2.273 . S
O90 Cd88 2.411 . S
O90 C93 1.320 . S
O91 Cd88 2.333 . S
O91 C93 1.214 . S
O92 Cd88 2.352 . S
O92 C95 1.258 . S
C93 O90 1.320 . S
C93 O91 1.214 . S
O94 Cd86 2.277 . S
O94 C89 1.209 . S
C95 O92 1.258 . S
C95 O97 1.282 . S
O96 Cd88 2.277 . S
O96 C89 1.226 . S
O97 Cd88 2.356 . S
O97 C95 1.282 . S
C98 O99 1.306 . S
C98 O101 1.160 . S
O99 C98 1.306 . S
O99 Cd100 2.228 . S
Cd100 O99 2.228 . S
Cd100 O104 2.273 . S
Cd100 O108 2.277 . S
O101 C98 1.160 . S
O101 Cd102 2.203 . S
Cd102 O101 2.203 . S
Cd102 O104 2.411 . S
Cd102 O105 2.333 . S
Cd102 O106 2.352 . S
Cd102 O110 2.277 . S
Cd102 O111 2.356 . S
C103 O108 1.209 . S
C103 O110 1.226 . S
O104 Cd100 2.273 . S
O104 Cd102 2.411 . S
O104 C107 1.320 . S
O105 Cd102 2.333 . S
O105 C107 1.214 . S
O106 Cd102 2.352 . S
O106 C109 1.258 . S
C107 O104 1.320 . S
C107 O105 1.214 . S
O108 Cd100 2.277 . S
O108 C103 1.209 . S
C109 O106 1.258 . S
C109 O111 1.282 . S
O110 Cd102 2.277 . S
O110 C103 1.226 . S
O111 Cd102 2.356 . S
O111 C109 1.282 . S
C112 O113 1.306 . S
C112 O115 1.160 . S
O113 C112 1.306 . S
O113 Cd114 2.228 . S
Cd114 O113 2.228 . S
Cd114 O118 2.273 . S
Cd114 O122 2.277 . S
O115 C112 1.160 . S
O115 Cd116 2.203 . S
Cd116 O115 2.203 . S
Cd116 O118 2.411 . S
Cd116 O119 2.333 . S
Cd116 O120 2.352 . S
Cd116 O124 2.277 . S
Cd116 O125 2.356 . S
C117 O122 1.209 . S
C117 O124 1.226 . S
O118 Cd114 2.273 . S
O118 Cd116 2.411 . S
O118 C121 1.320 . S
O119 Cd116 2.333 . S
O119 C121 1.214 . S
O120 Cd116 2.352 . S
O120 C123 1.258 . S
C121 O118 1.320 . S
C121 O119 1.214 . S
O122 Cd114 2.277 . S
O122 C117 1.209 . S
C123 O120 1.258 . S
C123 O125 1.282 . S
O124 Cd116 2.277 . S
O124 C117 1.226 . S
O125 Cd116 2.356 . S
O125 C123 1.282 . S
C126 O127 1.306 . S
C126 O129 1.160 . S
O127 C126 1.306 . S
O127 Cd128 2.228 . S
Cd128 O127 2.228 . S
Cd128 O132 2.273 . S
Cd128 O136 2.277 . S
O129 C126 1.160 . S
O129 Cd130 2.203 . S
Cd130 O129 2.203 . S
Cd130 O132 2.411 . S
Cd130 O133 2.333 . S
Cd130 O134 2.352 . S
Cd130 O138 2.277 . S
Cd130 O139 2.356 . S
C131 O136 1.209 . S
C131 O138 1.226 . S
O132 Cd128 2.273 . S
O132 Cd130 2.411 . S
O132 C135 1.320 . S
O133 Cd130 2.333 . S
O133 C135 1.214 . S
O134 Cd130 2.352 . S
O134 C137 1.258 . S
C135 O132 1.320 . S
C135 O133 1.214 . S
O136 Cd128 2.277 . S
O136 C131 1.209 . S
C137 O134 1.258 . S
C137 O139 1.282 . S
O138 Cd130 2.277 . S
O138 C131 1.226 . S
O139 Cd130 2.356 . S
O139 C137 1.282 . S
C140 O141 1.306 . S
C140 O143 1.160 . S
O141 C140 1.306 . S
O141 Cd142 2.228 . S
Cd142 O141 2.228 . S
Cd142 O146 2.273 . S
Cd142 O150 2.277 . S
O143 C140 1.160 . S
O143 Cd144 2.203 . S
Cd144 O143 2.203 . S
Cd144 O146 2.411 . S
Cd144 O147 2.333 . S
Cd144 O148 2.352 . S
Cd144 O152 2.277 . S
Cd144 O153 2.356 . S
C145 O150 1.209 . S
C145 O152 1.226 . S
O146 Cd142 2.273 . S
O146 Cd144 2.411 . S
O146 C149 1.320 . S
O147 Cd144 2.333 . S
O147 C149 1.214 . S
O148 Cd144 2.352 . S
O148 C151 1.258 . S
C149 O146 1.320 . S
C149 O147 1.214 . S
O150 Cd142 2.277 . S
O150 C145 1.209 . S
C151 O148 1.258 . S
C151 O153 1.282 . S
O152 Cd144 2.277 . S
O152 C145 1.226 . S
O153 Cd144 2.356 . S
O153 C151 1.282 . S
C154 O155 1.306 . S
C154 O157 1.160 . S
O155 C154 1.306 . S
O155 Cd156 2.228 . S
Cd156 O155 2.228 . S
Cd156 O160 2.273 . S
Cd156 O164 2.277 . S
O157 C154 1.160 . S
O157 Cd158 2.203 . S
Cd158 O157 2.203 . S
Cd158 O160 2.411 . S
Cd158 O161 2.333 . S
Cd158 O162 2.352 . S
Cd158 O166 2.277 . S
Cd158 O167 2.356 . S
C159 O164 1.209 . S
C159 O166 1.226 . S
O160 Cd156 2.273 . S
O160 Cd158 2.411 . S
O160 C163 1.320 . S
O161 Cd158 2.333 . S
O161 C163 1.214 . S
O162 Cd158 2.352 . S
O162 C165 1.258 . S
C163 O160 1.320 . S
C163 O161 1.214 . S
O164 Cd156 2.277 . S
O164 C159 1.209 . S
C165 O162 1.258 . S
C165 O167 1.282 . S
O166 Cd158 2.277 . S
O166 C159 1.226 . S
O167 Cd158 2.356 . S
O167 C165 1.282 . S
C168 O169 1.306 . S
C168 O171 1.160 . S
O169 C168 1.306 . S
O169 Cd170 2.228 . S
Cd170 O169 2.228 . S
Cd170 O174 2.273 . S
Cd170 O178 2.277 . S
O171 C168 1.160 . S
O171 Cd172 2.203 . S
Cd172 O171 2.203 . S
Cd172 O174 2.411 . S
Cd172 O175 2.333 . S
Cd172 O176 2.352 . S
Cd172 O180 2.277 . S
Cd172 O181 2.356 . S
C173 O178 1.209 . S
C173 O180 1.226 . S
O174 Cd170 2.273 . S
O174 Cd172 2.411 . S
O174 C177 1.320 . S
O175 Cd172 2.333 . S
O175 C177 1.214 . S
O176 Cd172 2.352 . S
O176 C179 1.258 . S
C177 O174 1.320 . S
C177 O175 1.214 . S
O178 Cd170 2.277 . S
O178 C173 1.209 . S
C179 O176 1.258 . S
C179 O181 1.282 . S
O180 Cd172 2.277 . S
O180 C173 1.226 . S
O181 Cd172 2.356 . S
O181 C179 1.282 . S
C182 O183 1.306 . S
C182 O185 1.160 . S
O183 C182 1.306 . S
O183 Cd184 2.228 . S
Cd184 O183 2.228 . S
Cd184 O188 2.273 . S
Cd184 O192 2.277 . S
O185 C182 1.160 . S
O185 Cd186 2.203 . S
Cd186 O185 2.203 . S
Cd186 O188 2.411 . S
Cd186 O189 2.333 . S
Cd186 O190 2.352 . S
Cd186 O194 2.277 . S
Cd186 O195 2.356 . S
C187 O192 1.209 . S
C187 O194 1.226 . S
O188 Cd184 2.273 . S
O188 Cd186 2.411 . S
O188 C191 1.320 . S
O189 Cd186 2.333 . S
O189 C191 1.214 . S
O190 Cd186 2.352 . S
O190 C193 1.258 . S
C191 O188 1.320 . S
C191 O189 1.214 . S
O192 Cd184 2.277 . S
O192 C187 1.209 . S
C193 O190 1.258 . S
C193 O195 1.282 . S
O194 Cd186 2.277 . S
O194 C187 1.226 . S
O195 Cd186 2.356 . S
O195 C193 1.282 . S
C196 O197 1.306 . S
C196 O199 1.160 . S
O197 C196 1.306 . S
O197 Cd198 2.228 . S
Cd198 O197 2.228 . S
Cd198 O202 2.273 . S
Cd198 O206 2.277 . S
O199 C196 1.160 . S
O199 Cd200 2.203 . S
Cd200 O199 2.203 . S
Cd200 O202 2.411 . S
Cd200 O203 2.333 . S
Cd200 O204 2.352 . S
Cd200 O208 2.277 . S
Cd200 O209 2.356 . S
C201 O206 1.209 . S
C201 O208 1.226 . S
O202 Cd198 2.273 . S
O202 Cd200 2.411 . S
O202 C205 1.320 . S
O203 Cd200 2.333 . S
O203 C205 1.214 . S
O204 Cd200 2.352 . S
O204 C207 1.258 . S
C205 O202 1.320 . S
C205 O203 1.214 . S
O206 Cd198 2.277 . S
O206 C201 1.209 . S
C207 O204 1.258 . S
C207 O209 1.282 . S
O208 Cd200 2.277 . S
O208 C201 1.226 . S
O209 Cd200 2.356 . S
O209 C207 1.282 . S
C210 O211 1.306 . S
C210 O213 1.160 . S
O211 C210 1.306 . S
O211 Cd212 2.228 . S
Cd212 O211 2.228 . S
Cd212 O216 2.273 . S
Cd212 O220 2.277 . S
O213 C210 1.160 . S
O213 Cd214 2.203 . S
Cd214 O213 2.203 . S
Cd214 O216 2.411 . S
Cd214 O217 2.333 . S
Cd214 O218 2.352 . S
Cd214 O222 2.277 . S
Cd214 O223 2.356 . S
C215 O220 1.209 . S
C215 O222 1.226 . S
O216 Cd212 2.273 . S
O216 Cd214 2.411 . S
O216 C219 1.320 . S
O217 Cd214 2.333 . S
O217 C219 1.214 . S
O218 Cd214 2.352 . S
O218 C221 1.258 . S
C219 O216 1.320 . S
C219 O217 1.214 . S
O220 Cd212 2.277 . S
O220 C215 1.209 . S
C221 O218 1.258 . S
C221 O223 1.282 . S
O222 Cd214 2.277 . S
O222 C215 1.226 . S
O223 Cd214 2.356 . S
O223 C221 1.282 . S
C224 O225 1.306 . S
C224 O227 1.160 . S
O225 C224 1.306 . S
O225 Cd226 2.228 . S
Cd226 O225 2.228 . S
Cd226 O230 2.273 . S
Cd226 O234 2.277 . S
O227 C224 1.160 . S
O227 Cd228 2.203 . S
Cd228 O227 2.203 . S
Cd228 O230 2.411 . S
Cd228 O231 2.333 . S
Cd228 O232 2.352 . S
Cd228 O236 2.277 . S
Cd228 O237 2.356 . S
C229 O234 1.209 . S
C229 O236 1.226 . S
O230 Cd226 2.273 . S
O230 Cd228 2.411 . S
O230 C233 1.320 . S
O231 Cd228 2.333 . S
O231 C233 1.214 . S
O232 Cd228 2.352 . S
O232 C235 1.258 . S
C233 O230 1.320 . S
C233 O231 1.214 . S
O234 Cd226 2.277 . S
O234 C229 1.209 . S
C235 O232 1.258 . S
C235 O237 1.282 . S
O236 Cd228 2.277 . S
O236 C229 1.226 . S
O237 Cd228 2.356 . S
O237 C235 1.282 . S
C238 O239 1.306 . S
C238 O241 1.160 . S
O239 C238 1.306 . S
O239 Cd240 2.228 . S
Cd240 O239 2.228 . S
Cd240 O244 2.273 . S
Cd240 O248 2.277 . S
O241 C238 1.160 . S
O241 Cd242 2.203 . S
Cd242 O241 2.203 . S
Cd242 O244 2.411 . S
Cd242 O245 2.333 . S
Cd242 O246 2.352 . S
Cd242 O250 2.277 . S
Cd242 O251 2.356 . S
C243 O248 1.209 . S
C243 O250 1.226 . S
O244 Cd240 2.273 . S
O244 Cd242 2.411 . S
O244 C247 1.320 . S
O245 Cd242 2.333 . S
O245 C247 1.214 . S
O246 Cd242 2.352 . S
O246 C249 1.258 . S
C247 O244 1.320 . S
C247 O245 1.214 . S
O248 Cd240 2.277 . S
O248 C243 1.209 . S
C249 O246 1.258 . S
C249 O251 1.282 . S
O250 Cd242 2.277 . S
O250 C243 1.226 . S
O251 Cd242 2.356 . S
O251 C249 1.282 . S
H252 C260 0.929 . S
H253 C262 0.930 . S
H254 C264 0.930 . S
H255 C267 0.973 . S
H256 C270 0.930 . S
H257 C272 0.960 . S
H258 C272 0.960 . S
H259 C272 0.960 . S
C260 H252 0.929 . S
C260 C261 1.377 . S
C260 C262 1.384 . S
C261 C260 1.377 . S
C261 C267 1.390 . S
C262 H253 0.930 . S
C262 C260 1.384 . S
C262 C263 1.372 . S
C263 C262 1.372 . S
C263 C264 1.400 . S
C263 C268 1.490 . S
C264 H254 0.930 . S
C264 C263 1.400 . S
C264 C267 1.386 . S
H265 C281 0.930 . S
H266 C282 0.931 . S
C267 H255 0.973 . S
C267 C261 1.390 . S
C267 C264 1.386 . S
C268 C263 1.490 . S
C268 C270 1.395 . S
C268 C271 1.403 . S
H269 C275 0.930 . S
C270 H256 0.930 . S
C270 C268 1.395 . S
C270 C273 1.403 . S
C271 C268 1.403 . S
C271 C272 1.524 . S
C271 C275 1.400 . S
C272 H257 0.960 . S
C272 H258 0.960 . S
C272 H259 0.960 . S
C272 C271 1.524 . S
C273 C270 1.403 . S
C273 C274 1.392 . S
C273 C277 1.495 . S
C274 C273 1.392 . S
C274 C275 1.385 . S
C274 C276 1.478 . S
C275 H269 0.930 . S
C275 C271 1.400 . S
C275 C274 1.385 . S
C276 C274 1.478 . S
C276 C278 1.381 . S
C276 C282 1.383 . S
C277 C273 1.495 . S
C277 H283 0.959 . S
C277 H284 0.961 . S
C277 H285 0.960 . S
C278 C276 1.381 . S
C278 C279 1.394 1_554 S
C278 H286 0.930 . S
C279 C278 1.394 1_556 S
C279 C280 1.383 . S
C279 H287 0.929 . S
C280 C279 1.383 . S
C280 C281 1.377 . S
C281 H265 0.930 . S
C281 C280 1.377 . S
C281 C282 1.379 1_556 S
C282 H266 0.931 . S
C282 C276 1.383 . S
C282 C281 1.379 1_554 S
H283 C277 0.959 . S
H284 C277 0.961 . S
H285 C277 0.960 . S
H286 C278 0.930 . S
H287 C279 0.929 . S
H288 C296 0.929 . S
H289 C298 0.930 . S
H290 C300 0.930 . S
H291 C303 0.929 . S
H292 C306 0.930 . S
H293 C308 0.960 . S
H294 C308 0.960 . S
H295 C308 0.960 . S
C296 H288 0.929 . S
C296 C297 1.377 . S
C296 C298 1.384 1_556 S
C297 C296 1.377 . S
C297 C303 1.389 . S
C298 H289 0.930 . S
C298 C296 1.384 1_554 S
C298 C299 1.372 . S
C299 C298 1.372 . S
C299 C300 1.400 . S
C299 C304 1.490 . S
C300 H290 0.930 . S
C300 C299 1.400 . S
C300 C303 1.387 1_554 S
H301 C317 0.930 . S
H302 C318 0.931 . S
C303 H291 0.929 . S
C303 C297 1.389 . S
C303 C300 1.387 1_556 S
C304 C299 1.490 . S
C304 C306 1.395 . S
C304 C307 1.403 . S
H305 C311 0.930 . S
C306 H292 0.930 . S
C306 C304 1.395 . S
C306 C309 1.403 . S
C307 C304 1.403 . S
C307 C308 1.524 . S
C307 C311 1.400 . S
C308 H293 0.960 . S
C308 H294 0.960 . S
C308 H295 0.960 . S
C308 C307 1.524 . S
C309 C306 1.403 . S
C309 C310 1.392 . S
C309 C313 1.495 . S
C310 C309 1.392 . S
C310 C311 1.385 . S
C310 C312 1.478 . S
C311 H305 0.930 . S
C311 C307 1.400 . S
C311 C310 1.385 . S
C312 C310 1.478 . S
C312 C314 1.381 . S
C312 C318 1.383 . S
C313 C309 1.495 . S
C313 H319 0.959 . S
C313 H320 0.961 . S
C313 H321 0.960 . S
C314 C312 1.381 . S
C314 C315 1.394 . S
C314 H322 0.930 . S
C315 C314 1.394 . S
C315 C316 1.383 . S
C315 H323 0.929 . S
C316 C315 1.383 . S
C316 C317 1.377 . S
C317 H301 0.930 . S
C317 C316 1.377 . S
C317 C318 1.379 . S
C318 H302 0.931 . S
C318 C312 1.383 . S
C318 C317 1.379 . S
H319 C313 0.959 . S
H320 C313 0.961 . S
H321 C313 0.960 . S
H322 C314 0.930 . S
H323 C315 0.929 . S
H324 C332 0.929 1_545 S
H325 C334 0.930 . S
H326 C336 0.930 . S
H327 C339 0.929 . S
H328 C342 0.930 1_545 S
H329 C344 0.960 . S
H330 C344 0.960 . S
H331 C344 0.960 . S
C332 H324 0.929 1_565 S
C332 C333 1.377 . S
C332 C334 1.384 . S
C333 C332 1.377 . S
C333 C339 1.390 . S
C334 H325 0.930 . S
C334 C332 1.384 . S
C334 C335 1.372 . S
C335 C334 1.372 . S
C335 C336 1.400 . S
C335 C340 1.490 . S
C336 H326 0.930 . S
C336 C335 1.400 . S
C336 C339 1.386 . S
H337 C353 0.930 . S
H338 C354 0.931 . S
C339 H327 0.929 . S
C339 C333 1.390 . S
C339 C336 1.386 . S
C340 C335 1.490 . S
C340 C342 1.395 . S
C340 C343 1.403 . S
H341 C347 0.930 . S
C342 H328 0.930 1_565 S
C342 C340 1.395 . S
C342 C345 1.403 . S
C343 C340 1.403 . S
C343 C344 1.524 . S
C343 C347 1.400 . S
C344 H329 0.960 . S
C344 H330 0.960 . S
C344 H331 0.960 . S
C344 C343 1.524 . S
C345 C342 1.403 . S
C345 C346 1.392 . S
C345 C349 1.495 1_565 S
C346 C345 1.392 . S
C346 C347 1.385 . S
C346 C348 1.478 . S
C347 H341 0.930 . S
C347 C343 1.400 . S
C347 C346 1.385 . S
C348 C346 1.478 . S
C348 C350 1.381 . S
C348 C354 1.383 . S
C349 C345 1.495 1_545 S
C349 H355 0.959 . S
C349 H356 0.961 . S
C349 H357 0.960 . S
C350 C348 1.381 . S
C350 C351 1.394 1_554 S
C350 H358 0.930 . S
C351 C350 1.394 1_556 S
C351 C352 1.383 . S
C351 H359 0.929 . S
C352 C351 1.383 . S
C352 C353 1.377 . S
C353 H337 0.930 . S
C353 C352 1.377 . S
C353 C354 1.379 1_556 S
C354 H338 0.931 . S
C354 C348 1.383 . S
C354 C353 1.379 1_554 S
H355 C349 0.959 . S
H356 C349 0.961 . S
H357 C349 0.960 . S
H358 C350 0.930 . S
H359 C351 0.929 . S
H360 C368 0.929 . S
H361 C370 0.930 . S
H362 C372 0.930 . S
H363 C375 0.929 . S
H364 C378 0.930 . S
H365 C380 0.960 . S
H366 C380 0.960 . S
H367 C380 0.960 . S
C368 H360 0.929 . S
C368 C369 1.377 . S
C368 C370 1.384 . S
C369 C368 1.377 . S
C369 C375 1.390 . S
C370 H361 0.930 . S
C370 C368 1.384 . S
C370 C371 1.372 . S
C371 C370 1.372 . S
C371 C372 1.400 . S
C371 C376 1.490 . S
C372 H362 0.930 . S
C372 C371 1.400 . S
C372 C375 1.386 . S
H373 C389 0.930 . S
H374 C390 0.931 . S
C375 H363 0.929 . S
C375 C369 1.390 . S
C375 C372 1.386 . S
C376 C371 1.490 . S
C376 C378 1.395 . S
C376 C379 1.403 . S
H377 C383 0.930 . S
C378 H364 0.930 . S
C378 C376 1.395 . S
C378 C381 1.403 . S
C379 C376 1.403 . S
C379 C380 1.524 . S
C379 C383 1.400 . S
C380 H365 0.960 . S
C380 H366 0.960 . S
C380 H367 0.960 . S
C380 C379 1.524 . S
C381 C378 1.403 . S
C381 C382 1.392 . S
C381 C385 1.495 . S
C382 C381 1.392 . S
C382 C383 1.385 . S
C382 C384 1.478 . S
C383 H377 0.930 . S
C383 C379 1.400 . S
C383 C382 1.385 . S
C384 C382 1.478 . S
C384 C386 1.381 . S
C384 C390 1.383 . S
C385 C381 1.495 . S
C385 H391 0.959 . S
C385 H392 0.961 . S
C385 H393 0.960 . S
C386 C384 1.381 . S
C386 C387 1.394 . S
C386 H394 0.930 . S
C387 C386 1.394 . S
C387 C388 1.383 . S
C387 H395 0.929 . S
C388 C387 1.383 . S
C388 C389 1.377 . S
C389 H373 0.930 . S
C389 C388 1.377 . S
C389 C390 1.379 . S
C390 H374 0.931 . S
C390 C384 1.383 . S
C390 C389 1.379 . S
H391 C385 0.959 . S
H392 C385 0.961 . S
H393 C385 0.960 . S
H394 C386 0.930 . S
H395 C387 0.929 . S
H396 C404 0.929 . S
H397 C406 0.930 . S
H398 C408 0.930 . S
H399 C411 0.929 . S
H400 C414 0.930 . S
H401 C416 0.960 . S
H402 C416 0.960 . S
H403 C416 0.960 . S
C404 H396 0.929 . S
C404 C405 1.377 . S
C404 C406 1.384 . S
C405 C404 1.377 . S
C405 C411 1.390 . S
C406 H397 0.930 . S
C406 C404 1.384 . S
C406 C407 1.372 . S
C407 C406 1.372 . S
C407 C408 1.400 . S
C407 C412 1.490 . S
C408 H398 0.930 . S
C408 C407 1.400 . S
C408 C411 1.386 . S
H409 C425 0.930 1_455 S
H410 C426 0.931 . S
C411 H399 0.929 . S
C411 C405 1.390 . S
C411 C408 1.386 . S
C412 C407 1.490 . S
C412 C414 1.395 . S
C412 C415 1.403 . S
H413 C419 0.930 1_455 S
C414 H400 0.930 . S
C414 C412 1.395 . S
C414 C417 1.403 . S
C415 C412 1.403 . S
C415 C416 1.524 1_655 S
C415 C419 1.400 . S
C416 H401 0.960 . S
C416 H402 0.960 . S
C416 H403 0.960 . S
C416 C415 1.524 1_455 S
C417 C414 1.403 . S
C417 C418 1.392 . S
C417 C421 1.495 . S
C418 C417 1.392 . S
C418 C419 1.385 . S
C418 C420 1.478 . S
C419 H413 0.930 1_655 S
C419 C415 1.400 . S
C419 C418 1.385 . S
C420 C418 1.478 . S
C420 C422 1.381 . S
C420 C426 1.383 . S
C421 C417 1.495 . S
C421 H427 0.959 . S
C421 H428 0.961 . S
C421 H429 0.960 . S
C422 C420 1.381 . S
C422 C423 1.394 . S
C422 H430 0.930 . S
C423 C422 1.394 . S
C423 C424 1.383 . S
C423 H431 0.929 . S
C424 C423 1.383 . S
C424 C425 1.377 . S
C425 H409 0.930 1_655 S
C425 C424 1.377 . S
C425 C426 1.379 . S
C426 H410 0.931 . S
C426 C420 1.383 . S
C426 C425 1.379 . S
H427 C421 0.959 . S
H428 C421 0.961 . S
H429 C421 0.960 . S
H430 C422 0.930 . S
H431 C423 0.929 . S
H432 C440 0.929 . S
H433 C442 0.930 . S
H434 C444 0.930 . S
H435 C447 0.929 . S
H436 C450 0.930 . S
H437 C452 0.960 . S
H438 C452 0.960 . S
H439 C452 0.960 . S
C440 H432 0.929 . S
C440 C441 1.377 . S
C440 C442 1.384 . S
C441 C440 1.377 . S
C441 C447 1.390 . S
C442 H433 0.930 . S
C442 C440 1.384 . S
C442 C443 1.372 . S
C443 C442 1.372 . S
C443 C444 1.400 . S
C443 C448 1.490 . S
C444 H434 0.930 . S
C444 C443 1.400 . S
C444 C447 1.386 . S
H445 C461 0.930 . S
H446 C462 0.931 . S
C447 H435 0.929 . S
C447 C441 1.390 . S
C447 C444 1.386 . S
C448 C443 1.490 . S
C448 C450 1.395 . S
C448 C451 1.403 . S
H449 C455 0.930 . S
C450 H436 0.930 . S
C450 C448 1.395 . S
C450 C453 1.403 . S
C451 C448 1.403 . S
C451 C452 1.524 . S
C451 C455 1.400 . S
C452 H437 0.960 . S
C452 H438 0.960 . S
C452 H439 0.960 . S
C452 C451 1.524 . S
C453 C450 1.403 . S
C453 C454 1.392 . S
C453 C457 1.495 . S
C454 C453 1.392 . S
C454 C455 1.385 . S
C454 C456 1.478 . S
C455 H449 0.930 . S
C455 C451 1.400 . S
C455 C454 1.385 . S
C456 C454 1.478 . S
C456 C458 1.381 . S
C456 C462 1.383 . S
C457 C453 1.495 . S
C457 H463 0.959 . S
C457 H464 0.961 . S
C457 H465 0.960 . S
C458 C456 1.381 . S
C458 C459 1.394 . S
C458 H466 0.930 . S
C459 C458 1.394 . S
C459 C460 1.383 . S
C459 H467 0.929 . S
C460 C459 1.383 . S
C460 C461 1.377 . S
C461 H445 0.930 . S
C461 C460 1.377 . S
C461 C462 1.379 . S
C462 H446 0.931 . S
C462 C456 1.383 . S
C462 C461 1.379 . S
H463 C457 0.959 . S
H464 C457 0.961 . S
H465 C457 0.960 . S
H466 C458 0.930 . S
H467 C459 0.929 . S
H468 C476 0.929 . S
H469 C478 0.930 1_455 S
H470 C480 0.930 . S
H471 C483 0.929 . S
H472 C486 0.930 . S
H473 C488 0.960 . S
H474 C488 0.960 . S
H475 C488 0.960 . S
C476 H468 0.929 . S
C476 C477 1.377 1_455 S
C476 C478 1.384 1_455 S
C477 C476 1.377 1_655 S
C477 C483 1.390 . S
C478 H469 0.930 1_655 S
C478 C476 1.384 1_655 S
C478 C479 1.372 . S
C479 C478 1.372 . S
C479 C480 1.400 . S
C479 C484 1.490 . S
C480 H470 0.930 . S
C480 C479 1.400 . S
C480 C483 1.386 . S
H481 C497 0.930 . S
H482 C498 0.931 . S
C483 H471 0.929 . S
C483 C477 1.390 . S
C483 C480 1.386 . S
C484 C479 1.490 . S
C484 C486 1.395 . S
C484 C487 1.403 . S
H485 C491 0.930 . S
C486 H472 0.930 . S
C486 C484 1.395 . S
C486 C489 1.403 . S
C487 C484 1.403 . S
C487 C488 1.524 . S
C487 C491 1.400 . S
C488 H473 0.960 . S
C488 H474 0.960 . S
C488 H475 0.960 . S
C488 C487 1.524 . S
C489 C486 1.403 . S
C489 C490 1.392 . S
C489 C493 1.495 . S
C490 C489 1.392 . S
C490 C491 1.385 . S
C490 C492 1.478 . S
C491 H485 0.930 . S
C491 C487 1.400 . S
C491 C490 1.385 . S
C492 C490 1.478 . S
C492 C494 1.381 . S
C492 C498 1.383 . S
C493 C489 1.495 . S
C493 H499 0.959 . S
C493 H500 0.961 . S
C493 H501 0.960 . S
C494 C492 1.381 . S
C494 C495 1.394 1_556 S
C494 H502 0.930 . S
C495 C494 1.394 1_554 S
C495 C496 1.383 . S
C495 H503 0.929 . S
C496 C495 1.383 . S
C496 C497 1.377 . S
C497 H481 0.930 . S
C497 C496 1.377 . S
C497 C498 1.379 1_554 S
C498 H482 0.931 . S
C498 C492 1.383 . S
C498 C497 1.379 1_556 S
H499 C493 0.959 . S
H500 C493 0.961 . S
H501 C493 0.960 . S
H502 C494 0.930 . S
H503 C495 0.929 . S
H504 C512 0.929 . S
H505 C514 0.930 . S
H506 C516 0.930 . S
H507 C519 0.929 . S
H508 C522 0.930 . S
H509 C524 0.960 . S
H510 C524 0.960 . S
H511 C524 0.960 . S
C512 H504 0.929 . S
C512 C513 1.377 . S
C512 C514 1.384 1_554 S
C513 C512 1.377 . S
C513 C519 1.390 . S
C514 H505 0.930 . S
C514 C512 1.384 1_556 S
C514 C515 1.372 . S
C515 C514 1.372 . S
C515 C516 1.400 . S
C515 C520 1.490 . S
C516 H506 0.930 . S
C516 C515 1.400 . S
C516 C519 1.386 1_556 S
H517 C533 0.930 . S
H518 C534 0.931 . S
C519 H507 0.929 . S
C519 C513 1.390 . S
C519 C516 1.386 1_554 S
C520 C515 1.490 . S
C520 C522 1.395 . S
C520 C523 1.403 . S
H521 C527 0.930 . S
C522 H508 0.930 . S
C522 C520 1.395 . S
C522 C525 1.403 . S
C523 C520 1.403 . S
C523 C524 1.524 . S
C523 C527 1.400 . S
C524 H509 0.960 . S
C524 H510 0.960 . S
C524 H511 0.960 . S
C524 C523 1.524 . S
C525 C522 1.403 . S
C525 C526 1.392 . S
C525 C529 1.495 . S
C526 C525 1.392 . S
C526 C527 1.385 . S
C526 C528 1.478 . S
C527 H521 0.930 . S
C527 C523 1.400 . S
C527 C526 1.385 . S
C528 C526 1.478 . S
C528 C530 1.381 . S
C528 C534 1.383 . S
C529 C525 1.495 . S
C529 H535 0.959 . S
C529 H536 0.961 . S
C529 H537 0.960 . S
C530 C528 1.381 . S
C530 C531 1.394 . S
C530 H538 0.930 . S
C531 C530 1.394 . S
C531 C532 1.383 . S
C531 H539 0.929 . S
C532 C531 1.383 . S
C532 C533 1.377 . S
C533 H517 0.930 . S
C533 C532 1.377 . S
C533 C534 1.379 . S
C534 H518 0.931 . S
C534 C528 1.383 . S
C534 C533 1.379 . S
H535 C529 0.959 . S
H536 C529 0.961 . S
H537 C529 0.960 . S
H538 C530 0.930 . S
H539 C531 0.929 . S
H540 C548 0.929 . S
H541 C550 0.930 . S
H542 C552 0.930 . S
H543 C555 0.929 . S
H544 C558 0.930 . S
H545 C560 0.960 . S
H546 C560 0.960 . S
H547 C560 0.960 . S
C548 H540 0.929 . S
C548 C549 1.377 . S
C548 C550 1.384 1_554 S
C549 C548 1.377 . S
C549 C555 1.390 1_554 S
C550 H541 0.930 . S
C550 C548 1.384 1_556 S
C550 C551 1.372 . S
C551 C550 1.372 . S
C551 C552 1.400 . S
C551 C556 1.490 . S
C552 H542 0.930 . S
C552 C551 1.400 . S
C552 C555 1.386 . S
H553 C569 0.930 . S
H554 C570 0.931 . S
C555 H543 0.929 . S
C555 C549 1.390 1_556 S
C555 C552 1.386 . S
C556 C551 1.490 . S
C556 C558 1.395 . S
C556 C559 1.403 . S
H557 C563 0.930 . S
C558 H544 0.930 . S
C558 C556 1.395 . S
C558 C561 1.403 . S
C559 C556 1.403 . S
C559 C560 1.524 . S
C559 C563 1.400 . S
C560 H545 0.960 . S
C560 H546 0.960 . S
C560 H547 0.960 . S
C560 C559 1.524 . S
C561 C558 1.403 . S
C561 C562 1.392 . S
C561 C565 1.495 . S
C562 C561 1.392 . S
C562 C563 1.385 . S
C562 C564 1.478 . S
C563 H557 0.930 . S
C563 C559 1.400 . S
C563 C562 1.385 . S
C564 C562 1.478 . S
C564 C566 1.381 . S
C564 C570 1.383 . S
C565 C561 1.495 . S
C565 H571 0.959 . S
C565 H572 0.961 . S
C565 H573 0.960 . S
C566 C564 1.381 . S
C566 C567 1.394 . S
C566 H574 0.930 . S
C567 C566 1.394 . S
C567 C568 1.383 . S
C567 H575 0.929 1_545 S
C568 C567 1.383 . S
C568 C569 1.377 . S
C569 H553 0.930 . S
C569 C568 1.377 . S
C569 C570 1.379 . S
C570 H554 0.931 . S
C570 C564 1.383 . S
C570 C569 1.379 . S
H571 C565 0.959 . S
H572 C565 0.961 . S
H573 C565 0.960 . S
H574 C566 0.930 . S
H575 C567 0.929 1_565 S
H576 C584 0.929 1_545 S
H577 C586 0.930 . S
H578 C588 0.930 . S
H579 C591 0.929 . S
H580 C594 0.930 . S
H581 C596 0.960 . S
H582 C596 0.960 1_545 S
H583 C596 0.960 . S
C584 H576 0.929 1_565 S
C584 C585 1.377 . S
C584 C586 1.384 . S
C585 C584 1.377 . S
C585 C591 1.390 . S
C586 H577 0.930 . S
C586 C584 1.384 . S
C586 C587 1.372 . S
C587 C586 1.372 . S
C587 C588 1.400 . S
C587 C592 1.490 . S
C588 H578 0.930 . S
C588 C587 1.400 . S
C588 C591 1.386 . S
H589 C605 0.930 . S
H590 C606 0.931 . S
C591 H579 0.929 . S
C591 C585 1.390 . S
C591 C588 1.386 . S
C592 C587 1.490 . S
C592 C594 1.395 . S
C592 C595 1.403 . S
H593 C599 0.930 . S
C594 H580 0.930 . S
C594 C592 1.395 . S
C594 C597 1.403 . S
C595 C592 1.403 . S
C595 C596 1.524 . S
C595 C599 1.400 . S
C596 H581 0.960 . S
C596 H582 0.960 1_565 S
C596 H583 0.960 . S
C596 C595 1.524 . S
C597 C594 1.403 . S
C597 C598 1.392 . S
C597 C601 1.495 . S
C598 C597 1.392 . S
C598 C599 1.385 . S
C598 C600 1.478 . S
C599 H593 0.930 . S
C599 C595 1.400 . S
C599 C598 1.385 . S
C600 C598 1.478 . S
C600 C602 1.381 . S
C600 C606 1.383 . S
C601 C597 1.495 . S
C601 H607 0.959 . S
C601 H608 0.961 . S
C601 H609 0.960 . S
C602 C600 1.381 . S
C602 C603 1.394 . S
C602 H610 0.930 . S
C603 C602 1.394 . S
C603 C604 1.383 . S
C603 H611 0.929 . S
C604 C603 1.383 . S
C604 C605 1.377 . S
C605 H589 0.930 . S
C605 C604 1.377 . S
C605 C606 1.379 . S
C606 H590 0.931 . S
C606 C600 1.383 . S
C606 C605 1.379 . S
H607 C601 0.959 . S
H608 C601 0.961 . S
H609 C601 0.960 . S
H610 C602 0.930 . S
H611 C603 0.929 . S
H612 C620 0.929 . S
H613 C622 0.930 . S
H614 C624 0.930 . S
H615 C627 0.929 . S
H616 C630 0.930 . S
H617 C632 0.960 . S
H618 C632 0.960 . S
H619 C632 0.960 . S
C620 H612 0.929 . S
C620 C621 1.377 . S
C620 C622 1.384 . S
C621 C620 1.377 . S
C621 C627 1.390 . S
C622 H613 0.930 . S
C622 C620 1.384 . S
C622 C623 1.372 . S
C623 C622 1.372 . S
C623 C624 1.400 . S
C623 C628 1.490 . S
C624 H614 0.930 . S
C624 C623 1.400 . S
C624 C627 1.386 . S
H625 C641 0.930 . S
H626 C642 0.931 . S
C627 H615 0.929 . S
C627 C621 1.390 . S
C627 C624 1.386 . S
C628 C623 1.490 . S
C628 C630 1.395 . S
C628 C631 1.403 . S
H629 C635 0.930 . S
C630 H616 0.930 . S
C630 C628 1.395 . S
C630 C633 1.403 . S
C631 C628 1.403 . S
C631 C632 1.524 . S
C631 C635 1.400 . S
C632 H617 0.960 . S
C632 H618 0.960 . S
C632 H619 0.960 . S
C632 C631 1.524 . S
C633 C630 1.403 . S
C633 C634 1.392 . S
C633 C637 1.495 . S
C634 C633 1.392 . S
C634 C635 1.385 . S
C634 C636 1.478 . S
C635 H629 0.930 . S
C635 C631 1.400 . S
C635 C634 1.385 . S
C636 C634 1.478 . S
C636 C638 1.381 . S
C636 C642 1.383 . S
C637 C633 1.495 . S
C637 H643 0.959 . S
C637 H644 0.961 . S
C637 H645 0.960 . S
C638 C636 1.381 . S
C638 C639 1.394 . S
C638 H646 0.930 . S
C639 C638 1.394 . S
C639 C640 1.383 . S
C639 H647 0.929 . S
C640 C639 1.383 . S
C640 C641 1.377 . S
C641 H625 0.930 . S
C641 C640 1.377 . S
C641 C642 1.379 . S
C642 H626 0.931 . S
C642 C636 1.383 . S
C642 C641 1.379 . S
H643 C637 0.959 . S
H644 C637 0.961 . S
H645 C637 0.960 . S
H646 C638 0.930 . S
H647 C639 0.929 . S
H648 C656 0.929 . S
H649 C658 0.930 . S
H650 C660 0.930 . S
H651 C663 0.929 . S
H652 C666 0.930 . S
H653 C668 0.960 . S
H654 C668 0.960 . S
H655 C668 0.960 . S
C656 H648 0.929 . S
C656 C657 1.377 . S
C656 C658 1.384 . S
C657 C656 1.377 . S
C657 C663 1.390 . S
C658 H649 0.930 . S
C658 C656 1.384 . S
C658 C659 1.372 . S
C659 C658 1.372 . S
C659 C660 1.400 . S
C659 C664 1.490 . S
C660 H650 0.930 . S
C660 C659 1.400 . S
C660 C663 1.386 . S
H661 C677 0.930 . S
H662 C678 0.931 . S
C663 H651 0.929 . S
C663 C657 1.390 . S
C663 C660 1.386 . S
C664 C659 1.490 . S
C664 C666 1.395 . S
C664 C667 1.403 . S
H665 C671 0.930 . S
C666 H652 0.930 . S
C666 C664 1.395 . S
C666 C669 1.403 . S
C667 C664 1.403 . S
C667 C668 1.524 . S
C667 C671 1.400 . S
C668 H653 0.960 . S
C668 H654 0.960 . S
C668 H655 0.960 . S
C668 C667 1.524 . S
C669 C666 1.403 . S
C669 C670 1.392 . S
C669 C673 1.495 . S
C670 C669 1.392 . S
C670 C671 1.385 . S
C670 C672 1.478 . S
C671 H665 0.930 . S
C671 C667 1.400 . S
C671 C670 1.385 . S
C672 C670 1.478 . S
C672 C674 1.381 . S
C672 C678 1.383 . S
C673 C669 1.495 . S
C673 H679 0.959 . S
C673 H680 0.961 . S
C673 H681 0.960 . S
C674 C672 1.381 . S
C674 C675 1.394 . S
C674 H682 0.930 . S
C675 C674 1.394 . S
C675 C676 1.383 . S
C675 H683 0.929 . S
C676 C675 1.383 . S
C676 C677 1.377 . S
C677 H661 0.930 . S
C677 C676 1.377 . S
C677 C678 1.379 . S
C678 H662 0.931 . S
C678 C672 1.383 . S
C678 C677 1.379 . S
H679 C673 0.959 . S
H680 C673 0.961 . S
H681 C673 0.960 . S
H682 C674 0.930 . S
H683 C675 0.929 . S
H684 C692 0.929 . S
H685 C694 0.930 . S
H686 C696 0.930 . S
H687 C699 0.929 . S
H688 C702 0.930 . S
H689 C704 0.960 . S
H690 C704 0.960 . S
H691 C704 0.960 . S
C692 H684 0.929 . S
C692 C693 1.377 . S
C692 C694 1.384 . S
C693 C692 1.377 . S
C693 C699 1.390 . S
C694 H685 0.930 . S
C694 C692 1.384 . S
C694 C695 1.372 . S
C695 C694 1.372 . S
C695 C696 1.400 . S
C695 C700 1.490 . S
C696 H686 0.930 . S
C696 C695 1.400 . S
C696 C699 1.386 . S
H697 C713 0.930 . S
H698 C714 0.931 . S
C699 H687 0.929 . S
C699 C693 1.390 . S
C699 C696 1.386 . S
C700 C695 1.490 . S
C700 C702 1.395 . S
C700 C703 1.403 . S
H701 C707 0.930 . S
C702 H688 0.930 . S
C702 C700 1.395 . S
C702 C705 1.403 . S
C703 C700 1.403 . S
C703 C704 1.524 . S
C703 C707 1.400 . S
C704 H689 0.960 . S
C704 H690 0.960 . S
C704 H691 0.960 . S
C704 C703 1.524 . S
C705 C702 1.403 . S
C705 C706 1.392 . S
C705 C709 1.495 . S
C706 C705 1.392 . S
C706 C707 1.385 . S
C706 C708 1.478 . S
C707 H701 0.930 . S
C707 C703 1.400 . S
C707 C706 1.385 . S
C708 C706 1.478 . S
C708 C710 1.381 . S
C708 C714 1.383 . S
C709 C705 1.495 . S
C709 H715 0.959 . S
C709 H716 0.961 . S
C709 H717 0.960 . S
C710 C708 1.381 . S
C710 C711 1.394 . S
C710 H718 0.930 . S
C711 C710 1.394 . S
C711 C712 1.383 . S
C711 H719 0.929 . S
C712 C711 1.383 . S
C712 C713 1.377 . S
C713 H697 0.930 . S
C713 C712 1.377 . S
C713 C714 1.379 . S
C714 H698 0.931 . S
C714 C708 1.383 . S
C714 C713 1.379 . S
H715 C709 0.959 . S
H716 C709 0.961 . S
H717 C709 0.960 . S
H718 C710 0.930 . S
H719 C711 0.929 . S
H720 C728 0.929 . S
H721 C730 0.930 . S
H722 C732 0.930 . S
H723 C735 0.929 . S
H724 C738 0.930 . S
H725 C740 0.960 . S
H726 C740 0.960 . S
H727 C740 0.960 . S
C728 H720 0.929 . S
C728 C729 1.377 . S
C728 C730 1.384 . S
C729 C728 1.377 . S
C729 C735 1.390 . S
C730 H721 0.930 . S
C730 C728 1.384 . S
C730 C731 1.372 . S
C731 C730 1.372 . S
C731 C732 1.400 . S
C731 C736 1.490 . S
C732 H722 0.930 . S
C732 C731 1.400 . S
C732 C735 1.386 . S
H733 C749 0.930 . S
H734 C750 0.931 . S
C735 H723 0.929 . S
C735 C729 1.390 . S
C735 C732 1.386 . S
C736 C731 1.490 . S
C736 C738 1.395 . S
C736 C739 1.403 . S
H737 C743 0.930 . S
C738 H724 0.930 . S
C738 C736 1.395 . S
C738 C741 1.403 . S
C739 C736 1.403 . S
C739 C740 1.524 1_545 S
C739 C743 1.400 1_545 S
C740 H725 0.960 . S
C740 H726 0.960 . S
C740 H727 0.960 . S
C740 C739 1.524 1_565 S
C741 C738 1.403 . S
C741 C742 1.392 . S
C741 C745 1.495 . S
C742 C741 1.392 . S
C742 C743 1.385 1_545 S
C742 C744 1.478 1_545 S
C743 H737 0.930 . S
C743 C739 1.400 1_565 S
C743 C742 1.385 1_565 S
C744 C742 1.478 1_565 S
C744 C746 1.381 . S
C744 C750 1.383 . S
C745 C741 1.495 . S
C745 H751 0.959 . S
C745 H752 0.961 . S
C745 H753 0.960 . S
C746 C744 1.381 . S
C746 C747 1.394 . S
C746 H754 0.930 . S
C747 C746 1.394 . S
C747 C748 1.383 . S
C747 H755 0.929 . S
C748 C747 1.383 . S
C748 C749 1.377 . S
C749 H733 0.930 . S
C749 C748 1.377 . S
C749 C750 1.379 . S
C750 H734 0.931 . S
C750 C744 1.383 . S
C750 C749 1.379 . S
H751 C745 0.959 . S
H752 C745 0.961 . S
H753 C745 0.960 . S
H754 C746 0.930 . S
H755 C747 0.929 . S
H756 C764 0.929 . S
H757 C766 0.930 . S
H758 C768 0.930 . S
H759 C771 0.929 . S
H760 C774 0.930 . S
H761 C776 0.960 . S
H762 C776 0.960 . S
H763 C776 0.960 1_455 S
C764 H756 0.929 . S
C764 C765 1.377 . S
C764 C766 1.384 . S
C765 C764 1.377 . S
C765 C771 1.390 . S
C766 H757 0.930 . S
C766 C764 1.384 . S
C766 C767 1.372 . S
C767 C766 1.372 . S
C767 C768 1.400 . S
C767 C772 1.490 . S
C768 H758 0.930 . S
C768 C767 1.400 . S
C768 C771 1.386 . S
H769 C785 0.930 . S
H770 C786 0.895 1_455 S
C771 H759 0.929 . S
C771 C765 1.390 . S
C771 C768 1.386 . S
C772 C767 1.490 . S
C772 C774 1.395 . S
C772 C775 1.403 . S
H773 C779 0.923 1_655 S
C774 H760 0.930 . S
C774 C772 1.395 . S
C774 C777 1.403 . S
C775 C772 1.403 . S
C775 C776 1.524 1_455 S
C775 C779 1.408 . S
C776 H761 0.960 . S
C776 H762 0.960 . S
C776 H763 0.960 1_655 S
C776 C775 1.524 1_655 S
C777 C774 1.403 . S
C777 C778 1.392 . S
C777 C781 1.495 . S
C778 C777 1.392 . S
C778 C779 1.384 . S
C778 C780 1.478 1_455 S
C779 H773 0.923 1_455 S
C779 C775 1.408 . S
C779 C778 1.384 . S
C780 C778 1.478 1_655 S
C780 C782 1.381 . S
C780 C786 1.403 . S
C781 C777 1.495 . S
C781 H787 0.959 . S
C781 H788 0.961 . S
C781 H789 0.960 . S
C782 C780 1.381 . S
C782 C783 1.394 . S
C782 H790 0.930 . S
C783 C782 1.394 . S
C783 C784 1.383 . S
C783 H791 0.929 . S
C784 C783 1.383 . S
C784 C785 1.377 . S
C785 H769 0.930 . S
C785 C784 1.377 . S
C785 C786 1.397 . S
C786 H770 0.895 1_655 S
C786 C780 1.403 . S
C786 C785 1.397 . S
H787 C781 0.959 . S
H788 C781 0.961 . S
H789 C781 0.960 . S
H790 C782 0.930 . S
H791 C783 0.929 . S
H792 C800 0.929 . S
H793 C802 0.930 . S
H794 C804 0.930 . S
H795 C807 0.929 . S
H796 C810 0.930 . S
H797 C812 0.960 . S
H798 C812 0.960 . S
H799 C812 0.960 . S
C800 H792 0.929 . S
C800 C801 1.377 . S
C800 C802 1.384 . S
C801 C800 1.377 . S
C801 C807 1.390 . S
C802 H793 0.930 . S
C802 C800 1.384 . S
C802 C803 1.372 . S
C803 C802 1.372 . S
C803 C804 1.400 . S
C803 C808 1.490 . S
C804 H794 0.930 . S
C804 C803 1.400 . S
C804 C807 1.386 . S
H805 C821 0.930 . S
H806 C822 0.931 . S
C807 H795 0.929 . S
C807 C801 1.390 . S
C807 C804 1.386 . S
C808 C803 1.490 . S
C808 C810 1.395 . S
C808 C811 1.403 . S
H809 C815 0.930 . S
C810 H796 0.930 . S
C810 C808 1.395 . S
C810 C813 1.403 . S
C811 C808 1.403 . S
C811 C812 1.524 . S
C811 C815 1.400 . S
C812 H797 0.960 . S
C812 H798 0.960 . S
C812 H799 0.960 . S
C812 C811 1.524 . S
C813 C810 1.403 . S
C813 C814 1.392 . S
C813 C817 1.495 . S
C814 C813 1.392 . S
C814 C815 1.385 . S
C814 C816 1.478 . S
C815 H809 0.930 . S
C815 C811 1.400 . S
C815 C814 1.385 . S
C816 C814 1.478 . S
C816 C818 1.381 . S
C816 C822 1.383 . S
C817 C813 1.495 . S
C817 H823 0.959 . S
C817 H824 0.961 . S
C817 H825 0.960 . S
C818 C816 1.381 . S
C818 C819 1.394 . S
C818 H826 0.930 . S
C819 C818 1.394 . S
C819 C820 1.383 . S
C819 H827 0.929 . S
C820 C819 1.383 . S
C820 C821 1.377 . S
C821 H805 0.930 . S
C821 C820 1.377 . S
C821 C822 1.379 . S
C822 H806 0.931 . S
C822 C816 1.383 . S
C822 C821 1.379 . S
H823 C817 0.959 . S
H824 C817 0.961 . S
H825 C817 0.960 . S
H826 C818 0.930 . S
H827 C819 0.929 . S
H828 C836 0.929 . S
H829 C838 0.930 . S
H830 C840 0.930 . S
H831 C843 0.929 . S
H832 C846 0.925 . S
H833 C848 0.960 . S
H834 C848 0.960 . S
H835 C848 0.960 . S
C836 H828 0.929 . S
C836 C837 1.377 . S
C836 C838 1.384 . S
C837 C836 1.377 . S
C837 C843 1.390 . S
C838 H829 0.930 . S
C838 C836 1.384 . S
C838 C839 1.372 . S
C839 C838 1.372 . S
C839 C840 1.400 . S
C839 C844 1.490 . S
C840 H830 0.930 . S
C840 C839 1.400 . S
C840 C843 1.386 . S
H841 C857 0.930 . S
H842 C858 0.931 . S
C843 H831 0.929 . S
C843 C837 1.390 . S
C843 C840 1.386 . S
C844 C839 1.490 . S
C844 C846 1.381 1_545 S
C844 C847 1.403 . S
H845 C851 0.930 . S
C846 H832 0.925 . S
C846 C844 1.381 1_565 S
C846 C849 1.424 . S
C847 C844 1.403 . S
C847 C848 1.524 . S
C847 C851 1.400 . S
C848 H833 0.960 . S
C848 H834 0.960 . S
C848 H835 0.960 . S
C848 C847 1.524 . S
C849 C846 1.424 . S
C849 C850 1.392 . S
C849 C853 1.495 . S
C850 C849 1.392 . S
C850 C851 1.385 1_565 S
C850 C852 1.478 . S
C851 H845 0.930 . S
C851 C847 1.400 . S
C851 C850 1.385 1_545 S
C852 C850 1.478 . S
C852 C854 1.381 . S
C852 C858 1.383 . S
C853 C849 1.495 . S
C853 H859 0.959 . S
C853 H860 0.961 . S
C853 H861 0.960 . S
C854 C852 1.381 . S
C854 C855 1.394 . S
C854 H862 0.930 . S
C855 C854 1.394 . S
C855 C856 1.383 . S
C855 H863 0.929 . S
C856 C855 1.383 . S
C856 C857 1.377 . S
C857 H841 0.930 . S
C857 C856 1.377 . S
C857 C858 1.379 . S
C858 H842 0.931 . S
C858 C852 1.383 . S
C858 C857 1.379 . S
H859 C853 0.959 . S
H860 C853 0.961 . S
H861 C853 0.960 . S
H862 C854 0.930 . S
H863 C855 0.929 . S
H864 C872 0.929 . S
H865 C874 0.930 . S
H866 C876 0.930 . S
H867 C879 0.929 . S
H868 C882 0.930 . S
H869 C884 0.960 . S
H870 C884 0.960 . S
H871 C884 0.960 . S
C872 H864 0.929 . S
C872 C873 1.377 . S
C872 C874 1.384 . S
C873 C872 1.377 . S
C873 C879 1.390 . S
C874 H865 0.930 . S
C874 C872 1.384 . S
C874 C875 1.372 . S
C875 C874 1.372 . S
C875 C876 1.400 . S
C875 C880 1.490 . S
C876 H866 0.930 . S
C876 C875 1.400 . S
C876 C879 1.386 . S
H877 C893 0.930 . S
H878 C894 0.931 . S
C879 H867 0.929 . S
C879 C873 1.390 . S
C879 C876 1.386 . S
C880 C875 1.490 . S
C880 C882 1.395 1_455 S
C880 C883 1.403 . S
H881 C887 0.930 . S
C882 H868 0.930 . S
C882 C880 1.395 1_655 S
C882 C885 1.403 . S
C883 C880 1.403 . S
C883 C884 1.524 . S
C883 C887 1.400 . S
C884 H869 0.960 . S
C884 H870 0.960 . S
C884 H871 0.960 . S
C884 C883 1.524 . S
C885 C882 1.403 . S
C885 C886 1.392 . S
C885 C889 1.495 . S
C886 C885 1.392 . S
C886 C887 1.385 1_655 S
C886 C888 1.478 . S
C887 H881 0.930 . S
C887 C883 1.400 . S
C887 C886 1.385 1_455 S
C888 C886 1.478 . S
C888 C890 1.381 . S
C888 C894 1.383 . S
C889 C885 1.495 . S
C889 H895 0.959 . S
C889 H896 0.961 . S
C889 H897 0.960 . S
C890 C888 1.381 . S
C890 C891 1.394 . S
C890 H898 0.930 . S
C891 C890 1.394 . S
C891 C892 1.383 . S
C891 H899 0.929 . S
C892 C891 1.383 . S
C892 C893 1.377 . S
C893 H877 0.930 . S
C893 C892 1.377 . S
C893 C894 1.379 . S
C894 H878 0.931 . S
C894 C888 1.383 . S
C894 C893 1.379 . S
H895 C889 0.959 . S
H896 C889 0.961 . S
H897 C889 0.960 . S
H898 C890 0.930 . S
H899 C891 0.929 . S
H900 C908 0.929 . S
H901 C910 0.930 . S
H902 C912 0.930 . S
H903 C915 0.929 . S
H904 C918 0.930 . S
H905 C920 0.960 . S
H906 C920 0.960 . S
H907 C920 0.960 . S
C908 H900 0.929 . S
C908 C909 1.377 . S
C908 C910 1.384 . S
C909 C908 1.377 . S
C909 C915 1.390 . S
C910 H901 0.930 . S
C910 C908 1.384 . S
C910 C911 1.372 . S
C911 C910 1.372 . S
C911 C912 1.400 . S
C911 C916 1.490 . S
C912 H902 0.930 . S
C912 C911 1.400 . S
C912 C915 1.386 . S
H913 C929 0.930 . S
H914 C930 0.931 . S
C915 H903 0.929 . S
C915 C909 1.390 . S
C915 C912 1.386 . S
C916 C911 1.490 . S
C916 C918 1.395 . S
C916 C919 1.403 . S
H917 C923 0.930 . S
C918 H904 0.930 . S
C918 C916 1.395 . S
C918 C921 1.403 . S
C919 C916 1.403 . S
C919 C920 1.524 . S
C919 C923 1.400 . S
C920 H905 0.960 . S
C920 H906 0.960 . S
C920 H907 0.960 . S
C920 C919 1.524 . S
C921 C918 1.403 . S
C921 C922 1.392 . S
C921 C925 1.495 . S
C922 C921 1.392 . S
C922 C923 1.385 . S
C922 C924 1.478 . S
C923 H917 0.930 . S
C923 C919 1.400 . S
C923 C922 1.385 . S
C924 C922 1.478 . S
C924 C926 1.381 . S
C924 C930 1.383 . S
C925 C921 1.495 . S
C925 H931 0.959 . S
C925 H932 0.961 . S
C925 H933 0.960 . S
C926 C924 1.381 . S
C926 C927 1.394 . S
C926 H934 0.930 . S
C927 C926 1.394 . S
C927 C928 1.383 . S
C927 H935 0.929 . S
C928 C927 1.383 . S
C928 C929 1.377 . S
C929 H913 0.930 . S
C929 C928 1.377 . S
C929 C930 1.379 . S
C930 H914 0.931 . S
C930 C924 1.383 . S
C930 C929 1.379 . S
H931 C925 0.959 . S
H932 C925 0.961 . S
H933 C925 0.960 . S
H934 C926 0.930 . S
H935 C927 0.929 . S
H936 C944 0.929 . S
H937 C946 0.930 . S
H938 C948 0.930 . S
H939 C951 0.929 . S
H940 C954 0.930 . S
H941 C956 0.960 . S
H942 C956 0.960 . S
H943 C956 0.960 . S
C944 H936 0.929 . S
C944 C945 1.377 . S
C944 C946 1.384 . S
C945 C944 1.377 . S
C945 C951 1.390 . S
C946 H937 0.930 . S
C946 C944 1.384 . S
C946 C947 1.372 . S
C947 C946 1.372 . S
C947 C948 1.400 . S
C947 C952 1.490 . S
C948 H938 0.930 . S
C948 C947 1.400 . S
C948 C951 1.386 . S
H949 C965 0.930 . S
H950 C966 0.931 . S
C951 H939 0.929 . S
C951 C945 1.390 . S
C951 C948 1.386 . S
C952 C947 1.490 . S
C952 C954 1.395 . S
C952 C955 1.403 . S
H953 C959 0.930 . S
C954 H940 0.930 . S
C954 C952 1.395 . S
C954 C957 1.403 . S
C955 C952 1.403 . S
C955 C956 1.524 . S
C955 C959 1.400 . S
C956 H941 0.960 . S
C956 H942 0.960 . S
C956 H943 0.960 . S
C956 C955 1.524 . S
C957 C954 1.403 . S
C957 C958 1.392 . S
C957 C961 1.495 . S
C958 C957 1.392 . S
C958 C959 1.385 . S
C958 C960 1.478 . S
C959 H953 0.930 . S
C959 C955 1.400 . S
C959 C958 1.385 . S
C960 C958 1.478 . S
C960 C962 1.381 . S
C960 C966 1.383 . S
C961 C957 1.495 . S
C961 H967 0.959 . S
C961 H968 0.961 . S
C961 H969 0.960 . S
C962 C960 1.381 . S
C962 C963 1.394 . S
C962 H970 0.930 . S
C963 C962 1.394 . S
C963 C964 1.383 . S
C963 H971 0.929 . S
C964 C963 1.383 . S
C964 C965 1.377 . S
C965 H949 0.930 . S
C965 C964 1.377 . S
C965 C966 1.379 . S
C966 H950 0.931 . S
C966 C960 1.383 . S
C966 C965 1.379 . S
H967 C961 0.959 . S
H968 C961 0.961 . S
H969 C961 0.960 . S
H970 C962 0.930 . S
H971 C963 0.929 . S
H972 C980 0.929 . S
H973 C982 0.930 . S
H974 C984 0.930 . S
H975 C987 0.929 . S
H976 C990 0.930 . S
H977 C992 0.960 . S
H978 C992 0.960 . S
H979 C992 0.960 . S
C980 H972 0.929 . S
C980 C981 1.377 . S
C980 C982 1.384 . S
C981 C980 1.377 . S
C981 C987 1.390 . S
C982 H973 0.930 . S
C982 C980 1.384 . S
C982 C983 1.372 . S
C983 C982 1.372 . S
C983 C984 1.400 . S
C983 C988 1.490 . S
C984 H974 0.930 . S
C984 C983 1.400 . S
C984 C987 1.386 . S
H985 C1001 0.930 . S
H986 C1002 0.931 . S
C987 H975 0.929 . S
C987 C981 1.390 . S
C987 C984 1.386 . S
C988 C983 1.490 . S
C988 C990 1.395 . S
C988 C991 1.403 . S
H989 C995 0.930 . S
C990 H976 0.930 . S
C990 C988 1.395 . S
C990 C993 1.403 . S
C991 C988 1.403 . S
C991 C992 1.524 . S
C991 C995 1.400 . S
C992 H977 0.960 . S
C992 H978 0.960 . S
C992 H979 0.960 . S
C992 C991 1.524 . S
C993 C990 1.403 . S
C993 C994 1.392 . S
C993 C997 1.495 . S
C994 C993 1.392 . S
C994 C995 1.385 . S
C994 C996 1.478 . S
C995 H989 0.930 . S
C995 C991 1.400 . S
C995 C994 1.385 . S
C996 C994 1.478 . S
C996 C998 1.381 . S
C996 C1002 1.383 . S
C997 C993 1.495 . S
C997 H1003 0.959 . S
C997 H1004 0.961 . S
C997 H1005 0.960 . S
C998 C996 1.381 . S
C998 C999 1.394 . S
C998 H1006 0.930 . S
C999 C998 1.394 . S
C999 C1000 1.383 . S
C999 H1007 0.929 . S
C1000 C999 1.383 . S
C1000 C1001 1.377 . S
C1001 H985 0.930 . S
C1001 C1000 1.377 . S
C1001 C1002 1.379 . S
C1002 H986 0.931 . S
C1002 C996 1.383 . S
C1002 C1001 1.379 . S
H1003 C997 0.959 . S
H1004 C997 0.961 . S
H1005 C997 0.960 . S
H1006 C998 0.930 . S
H1007 C999 0.929 . S
H1008 C1016 0.929 . S
H1009 C1018 0.930 . S
H1010 C1020 0.930 . S
H1011 C1023 0.929 . S
H1012 C1026 0.930 . S
H1013 C1028 0.960 . S
H1014 C1028 0.960 . S
H1015 C1028 0.960 . S
C1016 H1008 0.929 . S
C1016 C1017 1.377 . S
C1016 C1018 1.384 . S
C1017 C1016 1.377 . S
C1017 C1023 1.390 . S
C1018 H1009 0.930 . S
C1018 C1016 1.384 . S
C1018 C1019 1.372 . S
C1019 C1018 1.372 . S
C1019 C1020 1.400 . S
C1019 C1024 1.490 . S
C1020 H1010 0.930 . S
C1020 C1019 1.400 . S
C1020 C1023 1.386 . S
H1021 C1037 0.930 . S
H1022 C1038 0.931 . S
C1023 H1011 0.929 . S
C1023 C1017 1.390 . S
C1023 C1020 1.386 . S
C1024 C1019 1.490 . S
C1024 C1026 1.395 . S
C1024 C1027 1.403 . S
H1025 C1031 0.930 . S
C1026 H1012 0.930 . S
C1026 C1024 1.395 . S
C1026 C1029 1.403 . S
C1027 C1024 1.403 . S
C1027 C1028 1.524 . S
C1027 C1031 1.400 . S
C1028 H1013 0.960 . S
C1028 H1014 0.960 . S
C1028 H1015 0.960 . S
C1028 C1027 1.524 . S
C1029 C1026 1.403 . S
C1029 C1030 1.392 . S
C1029 C1033 1.495 . S
C1030 C1029 1.392 . S
C1030 C1031 1.385 . S
C1030 C1032 1.478 . S
C1031 H1025 0.930 . S
C1031 C1027 1.400 . S
C1031 C1030 1.385 . S
C1032 C1030 1.478 . S
C1032 C1034 1.381 . S
C1032 C1038 1.383 . S
C1033 C1029 1.495 . S
C1033 H1039 0.959 . S
C1033 H1040 0.961 . S
C1033 H1041 0.960 . S
C1034 C1032 1.381 . S
C1034 C1035 1.394 . S
C1034 H1042 0.930 . S
C1035 C1034 1.394 . S
C1035 C1036 1.383 . S
C1035 H1043 0.929 . S
C1036 C1035 1.383 . S
C1036 C1037 1.377 . S
C1037 H1021 0.930 . S
C1037 C1036 1.377 . S
C1037 C1038 1.379 . S
C1038 H1022 0.931 . S
C1038 C1032 1.383 . S
C1038 C1037 1.379 . S
H1039 C1033 0.959 . S
H1040 C1033 0.961 . S
H1041 C1033 0.960 . S
H1042 C1034 0.930 . S
H1043 C1035 0.929 . S
H1044 C1052 0.929 . S
H1045 C1054 0.930 . S
H1046 C1056 0.930 . S
H1047 C1059 0.929 . S
H1048 C1062 0.930 . S
H1049 C1064 0.960 . S
H1050 C1064 0.960 . S
H1051 C1064 0.960 . S
C1052 H1044 0.929 . S
C1052 C1053 1.377 . S
C1052 C1054 1.384 . S
C1053 C1052 1.377 . S
C1053 C1059 1.390 . S
C1054 H1045 0.930 . S
C1054 C1052 1.384 . S
C1054 C1055 1.372 . S
C1055 C1054 1.372 . S
C1055 C1056 1.400 . S
C1055 C1060 1.490 . S
C1056 H1046 0.930 . S
C1056 C1055 1.400 . S
C1056 C1059 1.386 . S
H1057 C1073 0.930 . S
H1058 C1074 0.931 . S
C1059 H1047 0.929 . S
C1059 C1053 1.390 . S
C1059 C1056 1.386 . S
C1060 C1055 1.490 . S
C1060 C1062 1.395 . S
C1060 C1063 1.403 . S
H1061 C1067 0.930 . S
C1062 H1048 0.930 . S
C1062 C1060 1.395 . S
C1062 C1065 1.403 . S
C1063 C1060 1.403 . S
C1063 C1064 1.524 . S
C1063 C1067 1.400 . S
C1064 H1049 0.960 . S
C1064 H1050 0.960 . S
C1064 H1051 0.960 . S
C1064 C1063 1.524 . S
C1065 C1062 1.403 . S
C1065 C1066 1.392 . S
C1065 C1069 1.495 . S
C1066 C1065 1.392 . S
C1066 C1067 1.385 . S
C1066 C1068 1.478 . S
C1067 H1061 0.930 . S
C1067 C1063 1.400 . S
C1067 C1066 1.385 . S
C1068 C1066 1.478 . S
C1068 C1070 1.381 . S
C1068 C1074 1.383 . S
C1069 C1065 1.495 . S
C1069 H1075 0.959 . S
C1069 H1076 0.961 . S
C1069 H1077 0.960 . S
C1070 C1068 1.381 . S
C1070 C1071 1.394 . S
C1070 H1078 0.930 . S
C1071 C1070 1.394 . S
C1071 C1072 1.383 . S
C1071 H1079 0.929 . S
C1072 C1071 1.383 . S
C1072 C1073 1.377 . S
C1073 H1057 0.930 . S
C1073 C1072 1.377 . S
C1073 C1074 1.379 . S
C1074 H1058 0.931 . S
C1074 C1068 1.383 . S
C1074 C1073 1.379 . S
H1075 C1069 0.959 . S
H1076 C1069 0.961 . S
H1077 C1069 0.960 . S
H1078 C1070 0.930 . S
H1079 C1071 0.929 . S
H1080 C1088 0.929 . S
H1081 C1090 0.930 . S
H1082 C1092 0.930 . S
H1083 C1095 0.929 . S
H1084 C1098 0.930 . S
H1085 C1100 0.960 . S
H1086 C1100 0.960 . S
H1087 C1100 0.960 . S
C1088 H1080 0.929 . S
C1088 C1089 1.377 . S
C1088 C1090 1.384 . S
C1089 C1088 1.377 . S
C1089 C1095 1.390 . S
C1090 H1081 0.930 . S
C1090 C1088 1.384 . S
C1090 C1091 1.372 . S
C1091 C1090 1.372 . S
C1091 C1092 1.400 . S
C1091 C1096 1.490 . S
C1092 H1082 0.930 . S
C1092 C1091 1.400 . S
C1092 C1095 1.386 . S
H1093 C1109 0.930 . S
H1094 C1110 0.931 . S
C1095 H1083 0.929 . S
C1095 C1089 1.390 . S
C1095 C1092 1.386 . S
C1096 C1091 1.490 . S
C1096 C1098 1.395 . S
C1096 C1099 1.403 . S
H1097 C1103 0.930 . S
C1098 H1084 0.930 . S
C1098 C1096 1.395 . S
C1098 C1101 1.403 . S
C1099 C1096 1.403 . S
C1099 C1100 1.524 . S
C1099 C1103 1.400 . S
C1100 H1085 0.960 . S
C1100 H1086 0.960 . S
C1100 H1087 0.960 . S
C1100 C1099 1.524 . S
C1101 C1098 1.403 . S
C1101 C1102 1.392 . S
C1101 C1105 1.495 . S
C1102 C1101 1.392 . S
C1102 C1103 1.385 . S
C1102 C1104 1.478 . S
C1103 H1097 0.930 . S
C1103 C1099 1.400 . S
C1103 C1102 1.385 . S
C1104 C1102 1.478 . S
C1104 C1106 1.381 . S
C1104 C1110 1.383 . S
C1105 C1101 1.495 . S
C1105 H1111 0.959 . S
C1105 H1112 0.961 . S
C1105 H1113 0.960 . S
C1106 C1104 1.381 . S
C1106 C1107 1.394 . S
C1106 H1114 0.930 . S
C1107 C1106 1.394 . S
C1107 C1108 1.383 . S
C1107 H1115 0.929 . S
C1108 C1107 1.383 . S
C1108 C1109 1.377 . S
C1109 H1093 0.930 . S
C1109 C1108 1.377 . S
C1109 C1110 1.379 . S
C1110 H1094 0.931 . S
C1110 C1104 1.383 . S
C1110 C1109 1.379 . S
H1111 C1105 0.959 . S
H1112 C1105 0.961 . S
H1113 C1105 0.960 . S
H1114 C1106 0.930 . S
H1115 C1107 0.929 . S
H1116 C1124 0.929 . S
H1117 C1126 0.930 . S
H1118 C1128 0.930 . S
H1119 C1131 0.929 . S
H1120 C1134 0.930 . S
H1121 C1136 0.960 . S
H1122 C1136 0.960 . S
H1123 C1136 0.960 . S
C1124 H1116 0.929 . S
C1124 C1125 1.377 . S
C1124 C1126 1.384 . S
C1125 C1124 1.377 . S
C1125 C1131 1.390 . S
C1126 H1117 0.930 . S
C1126 C1124 1.384 . S
C1126 C1127 1.372 . S
C1127 C1126 1.372 . S
C1127 C1128 1.400 . S
C1127 C1132 1.490 . S
C1128 H1118 0.930 . S
C1128 C1127 1.400 . S
C1128 C1131 1.386 . S
H1129 C1145 0.930 . S
H1130 C1146 0.931 . S
C1131 H1119 0.929 . S
C1131 C1125 1.390 . S
C1131 C1128 1.386 . S
C1132 C1127 1.490 . S
C1132 C1134 1.395 . S
C1132 C1135 1.403 . S
H1133 C1139 0.930 . S
C1134 H1120 0.930 . S
C1134 C1132 1.395 . S
C1134 C1137 1.403 . S
C1135 C1132 1.403 . S
C1135 C1136 1.524 . S
C1135 C1139 1.400 . S
C1136 H1121 0.960 . S
C1136 H1122 0.960 . S
C1136 H1123 0.960 . S
C1136 C1135 1.524 . S
C1137 C1134 1.403 . S
C1137 C1138 1.392 . S
C1137 C1141 1.495 . S
C1138 C1137 1.392 . S
C1138 C1139 1.385 . S
C1138 C1140 1.478 . S
C1139 H1133 0.930 . S
C1139 C1135 1.400 . S
C1139 C1138 1.385 . S
C1140 C1138 1.478 . S
C1140 C1142 1.381 . S
C1140 C1146 1.383 . S
C1141 C1137 1.495 . S
C1141 H1147 0.959 . S
C1141 H1148 0.961 . S
C1141 H1149 0.960 . S
C1142 C1140 1.381 . S
C1142 C1143 1.394 . S
C1142 H1150 0.930 . S
C1143 C1142 1.394 . S
C1143 C1144 1.383 . S
C1143 H1151 0.929 . S
C1144 C1143 1.383 . S
C1144 C1145 1.377 . S
C1145 H1129 0.930 . S
C1145 C1144 1.377 . S
C1145 C1146 1.379 . S
C1146 H1130 0.931 . S
C1146 C1140 1.383 . S
C1146 C1145 1.379 . S
H1147 C1141 0.959 . S
H1148 C1141 0.961 . S
H1149 C1141 0.960 . S
H1150 C1142 0.930 . S
H1151 C1143 0.929 . S
H1152 C1160 0.929 . S
H1153 C1162 0.930 . S
H1154 C1164 0.930 . S
H1155 C1167 0.929 . S
H1156 C1170 0.930 . S
H1157 C1172 0.960 . S
H1158 C1172 0.960 . S
H1159 C1172 0.960 . S
C1160 H1152 0.929 . S
C1160 C1161 1.377 . S
C1160 C1162 1.384 . S
C1161 C1160 1.377 . S
C1161 C1167 1.390 . S
C1162 H1153 0.930 . S
C1162 C1160 1.384 . S
C1162 C1163 1.372 . S
C1163 C1162 1.372 . S
C1163 C1164 1.400 . S
C1163 C1168 1.490 . S
C1164 H1154 0.930 . S
C1164 C1163 1.400 . S
C1164 C1167 1.386 . S
H1165 C1181 0.930 . S
H1166 C1182 0.931 . S
C1167 H1155 0.929 . S
C1167 C1161 1.390 . S
C1167 C1164 1.386 . S
C1168 C1163 1.490 . S
C1168 C1170 1.395 . S
C1168 C1171 1.403 . S
H1169 C1175 0.930 . S
C1170 H1156 0.930 . S
C1170 C1168 1.395 . S
C1170 C1173 1.403 . S
C1171 C1168 1.403 . S
C1171 C1172 1.524 . S
C1171 C1175 1.400 . S
C1172 H1157 0.960 . S
C1172 H1158 0.960 . S
C1172 H1159 0.960 . S
C1172 C1171 1.524 . S
C1173 C1170 1.403 . S
C1173 C1174 1.392 . S
C1173 C1177 1.495 . S
C1174 C1173 1.392 . S
C1174 C1175 1.385 . S
C1174 C1176 1.478 . S
C1175 H1169 0.930 . S
C1175 C1171 1.400 . S
C1175 C1174 1.385 . S
C1176 C1174 1.478 . S
C1176 C1178 1.381 . S
C1176 C1182 1.383 . S
C1177 C1173 1.495 . S
C1177 H1183 0.959 . S
C1177 H1184 0.961 . S
C1177 H1185 0.960 . S
C1178 C1176 1.381 . S
C1178 C1179 1.394 . S
C1178 H1186 0.930 . S
C1179 C1178 1.394 . S
C1179 C1180 1.383 . S
C1179 H1187 0.929 . S
C1180 C1179 1.383 . S
C1180 C1181 1.377 . S
C1181 H1165 0.930 . S
C1181 C1180 1.377 . S
C1181 C1182 1.379 . S
C1182 H1166 0.931 . S
C1182 C1176 1.383 . S
C1182 C1181 1.379 . S
H1183 C1177 0.959 . S
H1184 C1177 0.961 . S
H1185 C1177 0.960 . S
H1186 C1178 0.930 . S
H1187 C1179 0.929 . S
H1188 C1196 0.929 . S
H1189 C1198 0.930 . S
H1190 C1200 0.930 . S
H1191 C1203 0.929 . S
H1192 C1206 0.930 . S
H1193 C1208 0.960 . S
H1194 C1208 0.960 . S
H1195 C1208 0.960 . S
C1196 H1188 0.929 . S
C1196 C1197 1.377 . S
C1196 C1198 1.384 . S
C1197 C1196 1.377 . S
C1197 C1203 1.390 . S
C1198 H1189 0.930 . S
C1198 C1196 1.384 . S
C1198 C1199 1.372 . S
C1199 C1198 1.372 . S
C1199 C1200 1.400 . S
C1199 C1204 1.490 . S
C1200 H1190 0.930 . S
C1200 C1199 1.400 . S
C1200 C1203 1.386 . S
H1201 C1217 0.930 . S
H1202 C1218 0.931 . S
C1203 H1191 0.929 . S
C1203 C1197 1.390 . S
C1203 C1200 1.386 . S
C1204 C1199 1.490 . S
C1204 C1206 1.395 . S
C1204 C1207 1.403 . S
H1205 C1211 0.930 . S
C1206 H1192 0.930 . S
C1206 C1204 1.395 . S
C1206 C1209 1.403 . S
C1207 C1204 1.403 . S
C1207 C1208 1.524 . S
C1207 C1211 1.400 . S
C1208 H1193 0.960 . S
C1208 H1194 0.960 . S
C1208 H1195 0.960 . S
C1208 C1207 1.524 . S
C1209 C1206 1.403 . S
C1209 C1210 1.392 . S
C1209 C1213 1.495 . S
C1210 C1209 1.392 . S
C1210 C1211 1.385 . S
C1210 C1212 1.478 . S
C1211 H1205 0.930 . S
C1211 C1207 1.400 . S
C1211 C1210 1.385 . S
C1212 C1210 1.478 . S
C1212 C1214 1.381 . S
C1212 C1218 1.383 . S
C1213 C1209 1.495 . S
C1213 H1219 0.959 . S
C1213 H1220 0.961 . S
C1213 H1221 0.960 . S
C1214 C1212 1.381 . S
C1214 C1215 1.394 . S
C1214 H1222 0.930 . S
C1215 C1214 1.394 . S
C1215 C1216 1.383 . S
C1215 H1223 0.929 . S
C1216 C1215 1.383 . S
C1216 C1217 1.377 . S
C1217 H1201 0.930 . S
C1217 C1216 1.377 . S
C1217 C1218 1.379 . S
C1218 H1202 0.931 . S
C1218 C1212 1.383 . S
C1218 C1217 1.379 . S
H1219 C1213 0.959 . S
H1220 C1213 0.961 . S
H1221 C1213 0.960 . S
H1222 C1214 0.930 . S
H1223 C1215 0.929 . S
H1224 C1232 0.929 . S
H1225 C1234 0.930 . S
H1226 C1236 0.930 . S
H1227 C1239 0.929 . S
H1228 C1242 0.930 . S
H1229 C1244 0.960 . S
H1230 C1244 0.960 . S
H1231 C1244 0.960 . S
C1232 H1224 0.929 . S
C1232 C1233 1.377 . S
C1232 C1234 1.384 . S
C1233 C1232 1.377 . S
C1233 C1239 1.390 . S
C1234 H1225 0.930 . S
C1234 C1232 1.384 . S
C1234 C1235 1.372 . S
C1235 C1234 1.372 . S
C1235 C1236 1.400 . S
C1235 C1240 1.490 . S
C1236 H1226 0.930 . S
C1236 C1235 1.400 . S
C1236 C1239 1.386 . S
H1237 C1253 0.930 . S
H1238 C1254 0.931 . S
C1239 H1227 0.929 . S
C1239 C1233 1.390 . S
C1239 C1236 1.386 . S
C1240 C1235 1.490 . S
C1240 C1242 1.395 . S
C1240 C1243 1.403 . S
H1241 C1247 0.930 . S
C1242 H1228 0.930 . S
C1242 C1240 1.395 . S
C1242 C1245 1.403 . S
C1243 C1240 1.403 . S
C1243 C1244 1.524 . S
C1243 C1247 1.400 . S
C1244 H1229 0.960 . S
C1244 H1230 0.960 . S
C1244 H1231 0.960 . S
C1244 C1243 1.524 . S
C1245 C1242 1.403 . S
C1245 C1246 1.392 . S
C1245 C1249 1.495 . S
C1246 C1245 1.392 . S
C1246 C1247 1.385 . S
C1246 C1248 1.478 . S
C1247 H1241 0.930 . S
C1247 C1243 1.400 . S
C1247 C1246 1.385 . S
C1248 C1246 1.478 . S
C1248 C1250 1.381 . S
C1248 C1254 1.383 . S
C1249 C1245 1.495 . S
C1249 H1255 0.959 . S
C1249 H1256 0.961 . S
C1249 H1257 0.960 . S
C1250 C1248 1.381 . S
C1250 C1251 1.394 . S
C1250 H1258 0.930 . S
C1251 C1250 1.394 . S
C1251 C1252 1.383 . S
C1251 H1259 0.929 . S
C1252 C1251 1.383 . S
C1252 C1253 1.377 . S
C1253 H1237 0.930 . S
C1253 C1252 1.377 . S
C1253 C1254 1.379 . S
C1254 H1238 0.931 . S
C1254 C1248 1.383 . S
C1254 C1253 1.379 . S
H1255 C1249 0.959 . S
H1256 C1249 0.961 . S
H1257 C1249 0.960 . S
H1258 C1250 0.930 . S
H1259 C1251 0.929 . S
H1260 C1268 0.929 . S
H1261 C1270 0.930 . S
H1262 C1272 0.930 . S
H1263 C1275 0.929 . S
H1264 C1278 0.930 . S
H1265 C1280 0.960 . S
H1266 C1280 0.960 . S
H1267 C1280 0.960 . S
C1268 H1260 0.929 . S
C1268 C1269 1.377 . S
C1268 C1270 1.384 . S
C1269 C1268 1.377 . S
C1269 C1275 1.390 . S
C1270 H1261 0.930 . S
C1270 C1268 1.384 . S
C1270 C1271 1.372 . S
C1271 C1270 1.372 . S
C1271 C1272 1.400 . S
C1271 C1276 1.490 . S
C1272 H1262 0.930 . S
C1272 C1271 1.400 . S
C1272 C1275 1.386 . S
H1273 C1289 0.930 . S
H1274 C1290 0.931 . S
C1275 H1263 0.929 . S
C1275 C1269 1.390 . S
C1275 C1272 1.386 . S
C1276 C1271 1.490 . S
C1276 C1278 1.395 . S
C1276 C1279 1.403 . S
H1277 C1283 0.930 . S
C1278 H1264 0.930 . S
C1278 C1276 1.395 . S
C1278 C1281 1.403 . S
C1279 C1276 1.403 . S
C1279 C1280 1.524 . S
C1279 C1283 1.400 . S
C1280 H1265 0.960 . S
C1280 H1266 0.960 . S
C1280 H1267 0.960 . S
C1280 C1279 1.524 . S
C1281 C1278 1.403 . S
C1281 C1282 1.392 . S
C1281 C1285 1.495 . S
C1282 C1281 1.392 . S
C1282 C1283 1.385 . S
C1282 C1284 1.478 . S
C1283 H1277 0.930 . S
C1283 C1279 1.400 . S
C1283 C1282 1.385 . S
C1284 C1282 1.478 . S
C1284 C1286 1.381 . S
C1284 C1290 1.383 . S
C1285 C1281 1.495 . S
C1285 H1291 0.959 . S
C1285 H1292 0.961 . S
C1285 H1293 0.960 . S
C1286 C1284 1.381 . S
C1286 C1287 1.394 . S
C1286 H1294 0.930 . S
C1287 C1286 1.394 . S
C1287 C1288 1.383 . S
C1287 H1295 0.929 . S
C1288 C1287 1.383 . S
C1288 C1289 1.377 . S
C1289 H1273 0.930 . S
C1289 C1288 1.377 . S
C1289 C1290 1.379 . S
C1290 H1274 0.931 . S
C1290 C1284 1.383 . S
C1290 C1289 1.379 . S
H1291 C1285 0.959 . S
H1292 C1285 0.961 . S
H1293 C1285 0.960 . S
H1294 C1286 0.930 . S
H1295 C1287 0.929 . S
H1296 C1304 0.929 . S
H1297 C1306 0.930 . S
H1298 C1308 0.930 . S
H1299 C1311 0.929 . S
H1300 C1314 0.930 . S
H1301 C1316 0.960 . S
H1302 C1316 0.960 . S
H1303 C1316 0.960 . S
C1304 H1296 0.929 . S
C1304 C1305 1.377 . S
C1304 C1306 1.384 . S
C1305 C1304 1.377 . S
C1305 C1311 1.390 . S
C1306 H1297 0.930 . S
C1306 C1304 1.384 . S
C1306 C1307 1.372 . S
C1307 C1306 1.372 . S
C1307 C1308 1.400 . S
C1307 C1312 1.490 . S
C1308 H1298 0.930 . S
C1308 C1307 1.400 . S
C1308 C1311 1.386 . S
H1309 C1325 0.930 . S
H1310 C1326 0.931 . S
C1311 H1299 0.929 . S
C1311 C1305 1.390 . S
C1311 C1308 1.386 . S
C1312 C1307 1.490 . S
C1312 C1314 1.395 . S
C1312 C1315 1.403 . S
H1313 C1319 0.930 . S
C1314 H1300 0.930 . S
C1314 C1312 1.395 . S
C1314 C1317 1.403 . S
C1315 C1312 1.403 . S
C1315 C1316 1.524 . S
C1315 C1319 1.400 . S
C1316 H1301 0.960 . S
C1316 H1302 0.960 . S
C1316 H1303 0.960 . S
C1316 C1315 1.524 . S
C1317 C1314 1.403 . S
C1317 C1318 1.392 . S
C1317 C1321 1.495 . S
C1318 C1317 1.392 . S
C1318 C1319 1.385 . S
C1318 C1320 1.478 . S
C1319 H1313 0.930 . S
C1319 C1315 1.400 . S
C1319 C1318 1.385 . S
C1320 C1318 1.478 . S
C1320 C1322 1.381 . S
C1320 C1326 1.383 . S
C1321 C1317 1.495 . S
C1321 H1327 0.959 . S
C1321 H1328 0.961 . S
C1321 H1329 0.960 . S
C1322 C1320 1.381 . S
C1322 C1323 1.394 . S
C1322 H1330 0.930 . S
C1323 C1322 1.394 . S
C1323 C1324 1.383 . S
C1323 H1331 0.929 . S
C1324 C1323 1.383 . S
C1324 C1325 1.377 . S
C1325 H1309 0.930 . S
C1325 C1324 1.377 . S
C1325 C1326 1.379 . S
C1326 H1310 0.931 . S
C1326 C1320 1.383 . S
C1326 C1325 1.379 . S
H1327 C1321 0.959 . S
H1328 C1321 0.961 . S
H1329 C1321 0.960 . S
H1330 C1322 0.930 . S
H1331 C1323 0.929 . S
H1332 C1340 0.929 . S
H1333 C1342 0.930 . S
H1334 C1344 0.930 . S
H1335 C1347 0.929 . S
H1336 C1350 0.930 . S
H1337 C1352 0.960 . S
H1338 C1352 0.960 . S
H1339 C1352 0.960 . S
C1340 H1332 0.929 . S
C1340 C1341 1.377 . S
C1340 C1342 1.384 . S
C1341 C1340 1.377 . S
C1341 C1347 1.390 . S
C1342 H1333 0.930 . S
C1342 C1340 1.384 . S
C1342 C1343 1.372 . S
C1343 C1342 1.372 . S
C1343 C1344 1.400 . S
C1343 C1348 1.490 . S
C1344 H1334 0.930 . S
C1344 C1343 1.400 . S
C1344 C1347 1.386 . S
H1345 C1361 0.930 . S
H1346 C1362 0.931 . S
C1347 H1335 0.929 . S
C1347 C1341 1.390 . S
C1347 C1344 1.386 . S
C1348 C1343 1.490 . S
C1348 C1350 1.395 . S
C1348 C1351 1.403 . S
H1349 C1355 0.930 . S
C1350 H1336 0.930 . S
C1350 C1348 1.395 . S
C1350 C1353 1.403 . S
C1351 C1348 1.403 . S
C1351 C1352 1.524 . S
C1351 C1355 1.400 . S
C1352 H1337 0.960 . S
C1352 H1338 0.960 . S
C1352 H1339 0.960 . S
C1352 C1351 1.524 . S
C1353 C1350 1.403 . S
C1353 C1354 1.392 . S
C1353 C1357 1.495 . S
C1354 C1353 1.392 . S
C1354 C1355 1.385 . S
C1354 C1356 1.478 . S
C1355 H1349 0.930 . S
C1355 C1351 1.400 . S
C1355 C1354 1.385 . S
C1356 C1354 1.478 . S
C1356 C1358 1.381 . S
C1356 C1362 1.383 . S
C1357 C1353 1.495 . S
C1357 H1363 0.959 . S
C1357 H1364 0.961 . S
C1357 H1365 0.960 . S
C1358 C1356 1.381 . S
C1358 C1359 1.394 . S
C1358 H1366 0.930 . S
C1359 C1358 1.394 . S
C1359 C1360 1.383 . S
C1359 H1367 0.929 . S
C1360 C1359 1.383 . S
C1360 C1361 1.377 . S
C1361 H1345 0.930 . S
C1361 C1360 1.377 . S
C1361 C1362 1.379 . S
C1362 H1346 0.931 . S
C1362 C1356 1.383 . S
C1362 C1361 1.379 . S
H1363 C1357 0.959 . S
H1364 C1357 0.961 . S
H1365 C1357 0.960 . S
H1366 C1358 0.930 . S
H1367 C1359 0.929 . S
H1368 C1376 0.929 . S
H1369 C1378 0.930 . S
H1370 C1380 0.930 . S
H1371 C1383 0.929 . S
H1372 C1386 0.930 . S
H1373 C1388 0.960 . S
H1374 C1388 0.960 . S
H1375 C1388 0.960 . S
C1376 H1368 0.929 . S
C1376 C1377 1.377 . S
C1376 C1378 1.384 . S
C1377 C1376 1.377 . S
C1377 C1383 1.390 . S
C1378 H1369 0.930 . S
C1378 C1376 1.384 . S
C1378 C1379 1.372 . S
C1379 C1378 1.372 . S
C1379 C1380 1.400 . S
C1379 C1384 1.490 . S
C1380 H1370 0.930 . S
C1380 C1379 1.400 . S
C1380 C1383 1.386 . S
H1381 C1397 0.930 . S
H1382 C1398 0.931 . S
C1383 H1371 0.929 . S
C1383 C1377 1.390 . S
C1383 C1380 1.386 . S
C1384 C1379 1.490 . S
C1384 C1386 1.395 . S
C1384 C1387 1.403 1_545 S
H1385 C1391 0.930 . S
C1386 H1372 0.930 . S
C1386 C1384 1.395 . S
C1386 C1389 1.403 . S
C1387 C1384 1.403 1_565 S
C1387 C1388 1.524 . S
C1387 C1391 1.400 . S
C1388 H1373 0.960 . S
C1388 H1374 0.960 . S
C1388 H1375 0.960 . S
C1388 C1387 1.524 . S
C1389 C1386 1.403 . S
C1389 C1390 1.392 1_545 S
C1389 C1393 1.495 . S
C1390 C1389 1.392 1_565 S
C1390 C1391 1.385 . S
C1390 C1392 1.478 . S
C1391 H1385 0.930 . S
C1391 C1387 1.400 . S
C1391 C1390 1.385 . S
C1392 C1390 1.478 . S
C1392 C1394 1.381 . S
C1392 C1398 1.383 . S
C1393 C1389 1.495 . S
C1393 H1399 0.959 . S
C1393 H1400 0.961 . S
C1393 H1401 0.960 . S
C1394 C1392 1.381 . S
C1394 C1395 1.394 . S
C1394 H1402 0.930 . S
C1395 C1394 1.394 . S
C1395 C1396 1.383 . S
C1395 H1403 0.929 . S
C1396 C1395 1.383 . S
C1396 C1397 1.377 . S
C1397 H1381 0.930 . S
C1397 C1396 1.377 . S
C1397 C1398 1.379 . S
C1398 H1382 0.931 . S
C1398 C1392 1.383 . S
C1398 C1397 1.379 . S
H1399 C1393 0.959 . S
H1400 C1393 0.961 . S
H1401 C1393 0.960 . S
H1402 C1394 0.930 . S
H1403 C1395 0.929 . S
H1404 C1412 0.929 . S
H1405 C1414 0.930 . S
H1406 C1416 0.930 . S
H1407 C1419 0.929 . S
H1408 C1422 0.930 . S
H1409 C1424 0.960 . S
H1410 C1424 0.960 . S
H1411 C1424 0.960 . S
C1412 H1404 0.929 . S
C1412 C1413 1.377 . S
C1412 C1414 1.384 . S
C1413 C1412 1.377 . S
C1413 C1419 1.390 . S
C1414 H1405 0.930 . S
C1414 C1412 1.384 . S
C1414 C1415 1.372 . S
C1415 C1414 1.372 . S
C1415 C1416 1.400 . S
C1415 C1420 1.490 . S
C1416 H1406 0.930 . S
C1416 C1415 1.400 . S
C1416 C1419 1.386 . S
H1417 C1433 0.930 . S
H1418 C1434 0.931 . S
C1419 H1407 0.929 . S
C1419 C1413 1.390 . S
C1419 C1416 1.386 . S
C1420 C1415 1.490 . S
C1420 C1422 1.395 . S
C1420 C1423 1.403 . S
H1421 C1427 0.930 . S
C1422 H1408 0.930 . S
C1422 C1420 1.395 . S
C1422 C1425 1.403 1_455 S
C1423 C1420 1.403 . S
C1423 C1424 1.524 . S
C1423 C1427 1.400 . S
C1424 H1409 0.960 . S
C1424 H1410 0.960 . S
C1424 H1411 0.960 . S
C1424 C1423 1.524 . S
C1425 C1422 1.403 1_655 S
C1425 C1426 1.392 . S
C1425 C1429 1.495 . S
C1426 C1425 1.392 . S
C1426 C1427 1.385 1_655 S
C1426 C1428 1.478 . S
C1427 H1421 0.930 . S
C1427 C1423 1.400 . S
C1427 C1426 1.385 1_455 S
C1428 C1426 1.478 . S
C1428 C1430 1.381 . S
C1428 C1434 1.383 . S
C1429 C1425 1.495 . S
C1429 H1435 0.959 . S
C1429 H1436 0.961 . S
C1429 H1437 0.960 . S
C1430 C1428 1.381 . S
C1430 C1431 1.394 . S
C1430 H1438 0.930 . S
C1431 C1430 1.394 . S
C1431 C1432 1.383 . S
C1431 H1439 0.929 . S
C1432 C1431 1.383 . S
C1432 C1433 1.377 . S
C1433 H1417 0.930 . S
C1433 C1432 1.377 . S
C1433 C1434 1.379 . S
C1434 H1418 0.931 . S
C1434 C1428 1.383 . S
C1434 C1433 1.379 . S
H1435 C1429 0.959 . S
H1436 C1429 0.961 . S
H1437 C1429 0.960 . S
H1438 C1430 0.930 . S
H1439 C1431 0.929 . S
H1440 C1448 0.929 . S
H1441 C1450 0.930 1_554 S
H1442 C1452 0.930 . S
H1443 C1455 0.929 . S
H1444 C1458 0.930 . S
H1445 C1460 0.960 . S
H1446 C1460 0.960 . S
H1447 C1460 0.960 . S
C1448 H1440 0.929 . S
C1448 C1449 1.377 . S
C1448 C1450 1.384 . S
C1449 C1448 1.377 . S
C1449 C1455 1.390 . S
C1450 H1441 0.930 1_556 S
C1450 C1448 1.384 . S
C1450 C1451 1.372 . S
C1451 C1450 1.372 . S
C1451 C1452 1.400 . S
C1451 C1456 1.490 . S
C1452 H1442 0.930 . S
C1452 C1451 1.400 . S
C1452 C1455 1.386 . S
H1453 C1469 0.930 . S
H1454 C1470 0.931 . S
C1455 H1443 0.929 . S
C1455 C1449 1.390 . S
C1455 C1452 1.386 . S
C1456 C1451 1.490 . S
C1456 C1458 1.395 1_556 S
C1456 C1459 1.403 . S
H1457 C1463 0.930 . S
C1458 H1444 0.930 . S
C1458 C1456 1.395 1_554 S
C1458 C1461 1.403 . S
C1459 C1456 1.403 . S
C1459 C1460 1.524 . S
C1459 C1463 1.400 . S
C1460 H1445 0.960 . S
C1460 H1446 0.960 . S
C1460 H1447 0.960 . S
C1460 C1459 1.524 . S
C1461 C1458 1.403 . S
C1461 C1462 1.392 . S
C1461 C1465 1.495 . S
C1462 C1461 1.392 . S
C1462 C1463 1.385 1_554 S
C1462 C1464 1.478 . S
C1463 H1457 0.930 . S
C1463 C1459 1.400 . S
C1463 C1462 1.385 1_556 S
C1464 C1462 1.478 . S
C1464 C1466 1.381 . S
C1464 C1470 1.383 . S
C1465 C1461 1.495 . S
C1465 H1471 0.959 . S
C1465 H1472 0.961 . S
C1465 H1473 0.960 . S
C1466 C1464 1.381 . S
C1466 C1467 1.394 . S
C1466 H1474 0.930 . S
C1467 C1466 1.394 . S
C1467 C1468 1.383 . S
C1467 H1475 0.929 . S
C1468 C1467 1.383 . S
C1468 C1469 1.377 . S
C1469 H1453 0.930 . S
C1469 C1468 1.377 . S
C1469 C1470 1.379 . S
C1470 H1454 0.931 . S
C1470 C1464 1.383 . S
C1470 C1469 1.379 . S
H1471 C1465 0.959 . S
H1472 C1465 0.961 . S
H1473 C1465 0.960 . S
H1474 C1466 0.930 . S
H1475 C1467 0.929 . S
H1476 C1484 0.929 . S
H1477 C1486 0.930 1_554 S
H1478 C1488 0.930 . S
H1479 C1491 0.929 . S
H1480 C1494 0.930 . S
H1481 C1496 0.960 . S
H1482 C1496 0.960 . S
H1483 C1496 0.960 . S
C1484 H1476 0.929 . S
C1484 C1485 1.377 . S
C1484 C1486 1.384 . S
C1485 C1484 1.377 . S
C1485 C1491 1.390 . S
C1486 H1477 0.930 1_556 S
C1486 C1484 1.384 . S
C1486 C1487 1.372 . S
C1487 C1486 1.372 . S
C1487 C1488 1.400 . S
C1487 C1492 1.490 . S
C1488 H1478 0.930 . S
C1488 C1487 1.400 . S
C1488 C1491 1.386 . S
H1489 C1505 0.930 . S
H1490 C1506 0.931 1_556 S
C1491 H1479 0.929 . S
C1491 C1485 1.390 . S
C1491 C1488 1.386 . S
C1492 C1487 1.490 . S
C1492 C1494 1.395 1_566 S
C1492 C1495 1.403 . S
H1493 C1499 0.930 . S
C1494 H1480 0.930 . S
C1494 C1492 1.395 1_544 S
C1494 C1497 1.403 . S
C1495 C1492 1.403 . S
C1495 C1496 1.524 . S
C1495 C1499 1.400 1_565 S
C1496 H1481 0.960 . S
C1496 H1482 0.960 . S
C1496 H1483 0.960 . S
C1496 C1495 1.524 . S
C1497 C1494 1.403 . S
C1497 C1498 1.392 . S
C1497 C1501 1.495 . S
C1498 C1497 1.392 . S
C1498 C1499 1.385 1_554 S
C1498 C1500 1.478 . S
C1499 H1493 0.930 . S
C1499 C1495 1.400 1_545 S
C1499 C1498 1.385 1_556 S
C1500 C1498 1.478 . S
C1500 C1502 1.381 . S
C1500 C1506 1.383 . S
C1501 C1497 1.495 . S
C1501 H1507 0.959 . S
C1501 H1508 0.961 . S
C1501 H1509 0.960 . S
C1502 C1500 1.381 . S
C1502 C1503 1.394 . S
C1502 H1510 0.930 . S
C1503 C1502 1.394 . S
C1503 C1504 1.383 . S
C1503 H1511 0.929 . S
C1504 C1503 1.383 . S
C1504 C1505 1.377 . S
C1505 H1489 0.930 . S
C1505 C1504 1.377 . S
C1505 C1506 1.379 . S
C1506 H1490 0.931 1_554 S
C1506 C1500 1.383 . S
C1506 C1505 1.379 . S
H1507 C1501 0.959 . S
H1508 C1501 0.961 . S
H1509 C1501 0.960 . S
H1510 C1502 0.930 . S
H1511 C1503 0.929 . S
H1512 C1520 0.929 . S
H1513 C1522 0.930 . S
H1514 C1524 0.930 1_554 S
H1515 C1527 0.929 . S
H1516 C1530 0.930 . S
H1517 C1532 0.975 . S
H1518 C1532 0.960 . S
H1519 C1532 0.960 . S
C1520 H1512 0.929 . S
C1520 C1521 1.377 . S
C1520 C1522 1.384 . S
C1521 C1520 1.377 . S
C1521 C1527 1.390 . S
C1522 H1513 0.930 . S
C1522 C1520 1.384 . S
C1522 C1523 1.372 . S
C1523 C1522 1.372 . S
C1523 C1524 1.400 . S
C1523 C1528 1.490 . S
C1524 H1514 0.930 1_556 S
C1524 C1523 1.400 . S
C1524 C1527 1.386 . S
H1525 C1541 0.930 . S
H1526 C1542 0.931 . S
C1527 H1515 0.929 . S
C1527 C1521 1.390 . S
C1527 C1524 1.386 . S
C1528 C1523 1.490 . S
C1528 C1530 1.395 . S
C1528 C1531 1.403 1_556 S
H1529 C1535 0.930 . S
C1530 H1516 0.930 . S
C1530 C1528 1.395 . S
C1530 C1533 1.403 . S
C1531 C1528 1.403 1_554 S
C1531 C1532 1.524 . S
C1531 C1535 1.400 1_455 S
C1532 H1517 0.975 . S
C1532 H1518 0.960 . S
C1532 H1519 0.960 . S
C1532 C1531 1.524 . S
C1533 C1530 1.403 . S
C1533 C1534 1.392 1_456 S
C1533 C1537 1.495 . S
C1534 C1533 1.392 1_654 S
C1534 C1535 1.385 . S
C1534 C1536 1.478 . S
C1535 H1529 0.930 . S
C1535 C1531 1.400 1_655 S
C1535 C1534 1.385 . S
C1536 C1534 1.478 . S
C1536 C1538 1.381 . S
C1536 C1542 1.383 . S
C1537 C1533 1.495 . S
C1537 H1543 0.959 . S
C1537 H1544 0.961 . S
C1537 H1545 0.960 1_455 S
C1538 C1536 1.381 . S
C1538 C1539 1.394 . S
C1538 H1546 0.930 1_554 S
C1539 C1538 1.394 . S
C1539 C1540 1.383 . S
C1539 H1547 0.929 . S
C1540 C1539 1.383 . S
C1540 C1541 1.377 . S
C1541 H1525 0.930 . S
C1541 C1540 1.377 . S
C1541 C1542 1.379 . S
C1542 H1526 0.931 . S
C1542 C1536 1.383 . S
C1542 C1541 1.379 . S
H1543 C1537 0.959 . S
H1544 C1537 0.961 . S
H1545 C1537 0.960 1_655 S
H1546 C1538 0.930 1_556 S
H1547 C1539 0.929 . S
C261 C9 1.116 . S
C280 C205 1.097 . S
C297 C168 0.967 . S
C316 C14 0.962 . S
C333 C28 1.067 1_565 S
C352 C191 1.064 . S
C369 C93 1.120 . S
C388 C37 1.135 . S
C405 C107 1.010 . S
C424 C0 1.027 1_655 S
C441 C121 1.076 . S
C460 C23 1.058 . S
C477 C47 1.019 . S
C496 C163 0.999 . S
C513 C137 0.928 . S
C532 C67 0.924 . S
C549 C151 0.901 . S
C568 C70 0.904 . S
C585 C79 1.041 . S
C604 C215 1.043 . S
C621 C53 0.874 . S
C640 C235 0.881 . S
C657 C238 0.967 . S
C676 C61 0.966 . S
C693 C177 1.101 . S
C712 C112 1.119 . S
C729 C84 0.983 . S
C748 C182 0.982 . S
C765 C196 1.005 . S
C784 C98 0.998 . S
C801 C247 0.987 . S
C820 C131 0.992 . S
C837 C145 0.969 . S
C856 C221 0.959 . S
C873 C229 0.971 . S
C892 C154 0.961 . S
C909 C219 1.606 . S
C928 C5 1.638 . S
C945 C25 1.580 . S
C964 C224 1.583 . S
C981 C39 1.687 . S
C1000 C249 1.692 . S
C1017 C33 1.674 . S
C1036 C159 1.688 . S
C1053 C126 1.678 . S
C1072 C11 1.671 . S
C1089 C19 1.587 . S
C1108 C140 1.579 . S
C1125 C89 1.610 . S
C1144 C51 1.539 . S
C1161 C103 1.588 . S
C1180 C56 1.591 . S
C1197 C81 1.707 . S
C1216 C117 1.664 . S
C1233 C75 1.683 . S
C1252 C201 1.710 . S
C1269 C42 1.648 . S
C1288 C179 1.654 . S
C1305 C65 1.625 . S
C1324 C187 1.666 . S
C1341 C123 1.684 . S
C1360 C243 1.655 . S
C1377 C95 1.728 . S
C1396 C210 1.691 . S
C1413 C233 1.555 . S
C1432 C109 1.629 . S
C1449 C173 1.641 . S
C1468 C135 1.605 . S
C1485 C193 1.619 . S
C1504 C149 1.571 . S
C1521 C207 1.729 . S
C1540 C165 1.706 . S
