# Generated by pormake.
# Topology smk, (6)-cn, num edge types: 1
# Building blocks:
#     Node 0, Type 0, BuildingBlock: OJICUG_clean_sbu_0, # of connection points: 6
#     Node 1, Type 0, BuildingBlock: OJICUG_clean_sbu_0, # of connection points: 6
#     Node 2, Type 0, BuildingBlock: OJICUG_clean_sbu_0, # of connection points: 6
#     Node 3, Type 0, BuildingBlock: OJICUG_clean_sbu_0, # of connection points: 6
#     Node 4, Type 0, BuildingBlock: OJICUG_clean_sbu_0, # of connection points: 6
#     Node 5, Type 0, BuildingBlock: OJICUG_clean_sbu_0, # of connection points: 6
#     Edge 6, Type (0, 0), BuildingBlock: ZUJKAS_clean_linker_0, # of connection points: 2
#     Edge 7, Type (0, 0), BuildingBlock: ZUJKAS_clean_linker_0, # of connection points: 2
#     Edge 8, Type (0, 0), BuildingBlock: ZUJKAS_clean_linker_0, # of connection points: 2
#     Edge 9, Type (0, 0), BuildingBlock: ZUJKAS_clean_linker_0, # of connection points: 2
#     Edge 10, Type (0, 0), BuildingBlock: ZUJKAS_clean_linker_0, # of connection points: 2
#     Edge 11, Type (0, 0), BuildingBlock: ZUJKAS_clean_linker_0, # of connection points: 2
#     Edge 12, Type (0, 0), BuildingBlock: ZUJKAS_clean_linker_0, # of connection points: 2
#     Edge 13, Type (0, 0), BuildingBlock: ZUJKAS_clean_linker_0, # of connection points: 2
#     Edge 14, Type (0, 0), BuildingBlock: ZUJKAS_clean_linker_0, # of connection points: 2
#     Edge 15, Type (0, 0), BuildingBlock: ZUJKAS_clean_linker_0, # of connection points: 2
#     Edge 16, Type (0, 0), BuildingBlock: ZUJKAS_clean_linker_0, # of connection points: 2
#     Edge 17, Type (0, 0), BuildingBlock: ZUJKAS_clean_linker_0, # of connection points: 2
#     Edge 18, Type (0, 0), BuildingBlock: ZUJKAS_clean_linker_0, # of connection points: 2
#     Edge 19, Type (0, 0), BuildingBlock: ZUJKAS_clean_linker_0, # of connection points: 2
#     Edge 20, Type (0, 0), BuildingBlock: ZUJKAS_clean_linker_0, # of connection points: 2
#     Edge 21, Type (0, 0), BuildingBlock: ZUJKAS_clean_linker_0, # of connection points: 2
#     Edge 22, Type (0, 0), BuildingBlock: ZUJKAS_clean_linker_0, # of connection points: 2
#     Edge 23, Type (0, 0), BuildingBlock: ZUJKAS_clean_linker_0, # of connection points: 2
# Relax obj value: 0.194
# Max RMSD: 0.221
# Mean RMSD: 0.221
data_MOF--net-smk--node1-OJICUG_clean_sbu_0--edge1-ZUJKAS_clean_linker_0
_symmetry_space_group_name_H-M    P1
_symmetry_Int_Tables_number       1
_symmetry_cell_setting            triclinic
loop_
_symmetry_equiv_pos_as_xyz
'x, y, z'
_cell_length_a     55.933109
_cell_length_b     55.922976
_cell_length_c     20.124726
_cell_angle_alpha  90.010627
_cell_angle_beta   89.99721
_cell_angle_gamma 120.02808
loop_
_atom_site_label
_atom_site_type_symbol
_atom_site_fract_x
_atom_site_fract_y
_atom_site_fract_z
_atom_type_partial_charge
Sc0 Sc 0.4436 0.20275 0.50275 0.0
Sc1 Sc 0.38039 0.18837 0.57387 0.0
Sc2 Sc 0.44289 0.23691 0.64799 0.0
O3 O 0.42232 0.20935 0.57481 0.0
C4 C 0.48015 0.20873 0.62851 0.0
C5 C 0.39383 0.14169 0.53595 0.0
C6 C 0.39347 0.19119 0.73027 0.0
C7 C 0.3943 0.19853 0.41799 0.0
C8 C 0.47938 0.26836 0.52276 0.0
C9 C 0.39289 0.24772 0.61448 0.0
O10 O 0.46999 0.19811 0.57243 0.0
O11 O 0.37922 0.14951 0.56756 0.0
O12 O 0.41911 0.2081 0.72416 0.0
O13 O 0.41981 0.20683 0.42499 0.0
O14 O 0.46891 0.2684 0.57876 0.0
O15 O 0.37906 0.22598 0.57991 0.0
O16 O 0.4731 0.24626 0.4911 0.0
O17 O 0.3773 0.18946 0.46623 0.0
O18 O 0.4149 0.25306 0.64539 0.0
O19 O 0.41634 0.15845 0.50683 0.0
O20 O 0.47318 0.22403 0.65995 0.0
O21 O 0.3767 0.18393 0.6816 0.0
Sc22 Sc 0.23679 0.44333 0.68164 0.0
Sc23 Sc 0.18628 0.3811 0.75286 0.0
Sc24 Sc 0.20035 0.44456 0.82131 0.0
O25 O 0.20779 0.42298 0.75196 0.0
C26 C 0.26633 0.47967 0.80731 0.0
C27 C 0.24574 0.39247 0.71791 0.0
C28 C 0.19521 0.39553 0.90857 0.0
C29 C 0.19138 0.39481 0.59661 0.0
C30 C 0.20893 0.48117 0.69511 0.0
C31 C 0.13956 0.39491 0.78613 0.0
O32 O 0.26734 0.46805 0.75399 0.0
O33 O 0.22357 0.37905 0.7511 0.0
O34 O 0.2039 0.42111 0.90079 0.0
O35 O 0.20869 0.42035 0.60354 0.0
O36 O 0.19602 0.47 0.7484 0.0
O37 O 0.1475 0.38027 0.75522 0.0
O38 O 0.22569 0.47496 0.66813 0.0
O39 O 0.18325 0.37781 0.64494 0.0
O40 O 0.15617 0.41726 0.81592 0.0
O41 O 0.2518 0.41445 0.68603 0.0
O42 O 0.2437 0.47458 0.83453 0.0
O43 O 0.18622 0.37833 0.86066 0.0
Sc44 Sc 0.7882 0.23993 0.84896 0.0
Sc45 Sc 0.80208 0.19054 0.91855 0.0
Sc46 Sc 0.75202 0.20303 0.99008 0.0
O47 O 0.78076 0.21116 0.91917 0.0
C48 C 0.78063 0.26874 0.97571 0.0
C49 C 0.84897 0.25097 0.88357 0.0
C50 C 0.79745 0.1995 0.07479 0.0
C51 C 0.79286 0.19544 0.76268 0.0
C52 C 0.72231 0.20989 0.86422 0.0
C53 C 0.74226 0.14282 0.95442 0.0
O54 O 0.79258 0.27007 0.92109 0.0
O55 O 0.841 0.22835 0.91436 0.0
O56 O 0.77986 0.20735 0.06806 0.0
O57 O 0.78465 0.21272 0.77 0.0
O58 O 0.72142 0.19811 0.91884 0.0
O59 O 0.76468 0.15128 0.9224 0.0
O60 O 0.74488 0.22647 0.83528 0.0
O61 O 0.80156 0.18709 0.81084 0.0
O62 O 0.73614 0.15901 0.98482 0.0
O63 O 0.83236 0.25685 0.85441 0.0
O64 O 0.76426 0.246 0.00417 0.0
O65 O 0.80579 0.19093 0.02631 0.0
Sc66 Sc 0.54438 0.78945 0.00744 0.0
Sc67 Sc 0.60693 0.8034 0.07923 0.0
Sc68 Sc 0.5445 0.7537 0.1494 0.0
O69 O 0.56523 0.78215 0.07868 0.0
C70 C 0.50764 0.78252 0.13178 0.0
C71 C 0.59404 0.85007 0.04323 0.0
C72 C 0.59263 0.79855 0.23502 0.0
C73 C 0.59331 0.79399 0.92312 0.0
C74 C 0.50848 0.72363 0.02426 0.0
C75 C 0.59526 0.74422 0.1152 0.0
O76 O 0.51956 0.79545 0.07902 0.0
O77 O 0.60739 0.84192 0.07869 0.0
O78 O 0.56691 0.7823 0.22723 0.0
O79 O 0.56748 0.78396 0.9303 0.0
O80 O 0.52037 0.72281 0.07725 0.0
O81 O 0.60846 0.76588 0.08007 0.0
O82 O 0.51343 0.74618 0.99682 0.0
O83 O 0.61031 0.80434 0.97119 0.0
O84 O 0.57359 0.73878 0.14792 0.0
O85 O 0.57278 0.83367 0.00944 0.0
O86 O 0.51292 0.76517 0.15933 0.0
O87 O 0.60984 0.80569 0.1873 0.0
Sc88 Sc 0.75345 0.54963 0.17908 0.0
Sc89 Sc 0.80209 0.61152 0.25377 0.0
Sc90 Sc 0.78647 0.54837 0.32484 0.0
O91 O 0.78063 0.56975 0.25261 0.0
C92 C 0.72089 0.51306 0.30193 0.0
C93 C 0.74354 0.60015 0.21317 0.0
C94 C 0.79095 0.59752 0.40793 0.0
C95 C 0.79996 0.59841 0.09923 0.0
C96 C 0.78082 0.51174 0.20077 0.0
C97 C 0.8479 0.59771 0.29278 0.0
O98 O 0.72104 0.52466 0.2475 0.0
O99 O 0.76454 0.61294 0.25061 0.0
O100 O 0.78047 0.57166 0.40079 0.0
O101 O 0.78389 0.5726 0.10507 0.0
O102 O 0.79266 0.52299 0.2551 0.0
O103 O 0.84049 0.61176 0.25746 0.0
O104 O 0.76465 0.51791 0.17057 0.0
O105 O 0.80552 0.61533 0.14676 0.0
O106 O 0.8308 0.57611 0.3246 0.0
O107 O 0.73879 0.57898 0.17912 0.0
O108 O 0.74292 0.51834 0.33264 0.0
O109 O 0.80233 0.61462 0.3608 0.0
Sc110 Sc 0.19966 0.75241 0.34541 0.0
Sc111 Sc 0.1865 0.80233 0.4156 0.0
Sc112 Sc 0.23721 0.79012 0.48434 0.0
O113 O 0.20776 0.78162 0.41511 0.0
C114 C 0.20864 0.72431 0.47152 0.0
C115 C 0.13924 0.74165 0.38276 0.0
C116 C 0.19225 0.79369 0.57146 0.0
C117 C 0.1947 0.79692 0.25943 0.0
C118 C 0.26563 0.78271 0.35664 0.0
C119 C 0.24674 0.85024 0.44863 0.0
O120 O 0.19613 0.72269 0.41763 0.0
O121 O 0.14752 0.76461 0.41216 0.0
O122 O 0.21015 0.78628 0.56403 0.0
O123 O 0.20242 0.77924 0.26627 0.0
O124 O 0.26702 0.79479 0.41113 0.0
O125 O 0.22381 0.84172 0.41896 0.0
O126 O 0.24282 0.76577 0.32919 0.0
O127 O 0.18662 0.80575 0.3079 0.0
O128 O 0.25325 0.83408 0.47769 0.0
O129 O 0.15555 0.73539 0.3535 0.0
O130 O 0.22515 0.74722 0.49919 0.0
O131 O 0.18328 0.80183 0.52339 0.0
H132 H 0.42302 0.23062 0.31281 0.0
H133 H 0.40916 0.22377 0.19625 0.0
H134 H 0.32918 0.156 0.25024 0.0
H135 H 0.34287 0.1629 0.36783 0.0
H136 H 0.3598 0.14392 0.1521 0.0
H137 H 0.3538 0.23693 0.08614 0.0
H138 H 0.38413 0.24454 0.13304 0.0
H139 H 0.35063 0.2247 0.17064 0.0
C140 C 0.40224 0.21464 0.30016 0.0
C141 C 0.38405 0.19728 0.34951 0.0
C142 C 0.39431 0.21084 0.23351 0.0
C143 C 0.36808 0.18952 0.21469 0.0
C144 C 0.34943 0.17272 0.26392 0.0
H145 H 0.34283 0.17812 0.7806 0.0
H146 H 0.32926 0.17176 0.8983 0.0
C147 C 0.35725 0.17677 0.331 0.0
C148 C 0.36175 0.18325 0.14317 0.0
H149 H 0.36237 0.2138 0.99594 0.0
C150 C 0.35965 0.15886 0.11797 0.0
C151 C 0.36134 0.20263 0.09882 0.0
C152 C 0.36232 0.22857 0.12349 0.0
C153 C 0.35929 0.15437 0.04922 0.0
C154 C 0.36116 0.17482 0.00485 0.0
C155 C 0.36109 0.19819 0.03007 0.0
C156 C 0.36703 0.17429 0.93323 0.0
C157 C 0.3581 0.12834 0.02452 0.0
C158 C 0.39253 0.17739 0.91402 0.0
C159 C 0.40041 0.1813 0.84734 0.0
C160 C 0.38285 0.18199 0.79836 0.0
C161 C 0.35665 0.17738 0.81717 0.0
C162 C 0.34893 0.17388 0.88431 0.0
H163 H 0.34871 0.11155 0.06207 0.0
H164 H 0.34607 0.12107 0.97765 0.0
H165 H 0.37939 0.13261 0.01444 0.0
H166 H 0.40698 0.17819 0.95105 0.0
H167 H 0.42072 0.18481 0.83439 0.0
H168 H 0.17343 0.3427 0.54762 0.0
H169 H 0.16642 0.32869 0.43017 0.0
H170 H 0.18267 0.40989 0.37417 0.0
H171 H 0.18977 0.42403 0.49049 0.0
H172 H 0.13596 0.36129 0.30469 0.0
H173 H 0.23726 0.36446 0.30398 0.0
H174 H 0.21211 0.34468 0.36686 0.0
H175 H 0.22868 0.38163 0.36773 0.0
C176 C 0.17489 0.35734 0.51034 0.0
C177 C 0.1824 0.38455 0.52818 0.0
C178 C 0.17102 0.34934 0.44338 0.0
C179 C 0.1743 0.36837 0.39373 0.0
C180 C 0.18009 0.39494 0.41186 0.0
H181 H 0.22478 0.42528 0.01576 0.0
H182 H 0.21752 0.411 0.13195 0.0
C183 C 0.18422 0.403 0.47834 0.0
C184 C 0.17422 0.362 0.32238 0.0
H185 H 0.21731 0.36317 0.20063 0.0
C186 C 0.15329 0.36085 0.2818 0.0
C187 C 0.19705 0.36171 0.29303 0.0
C188 C 0.2202 0.36325 0.33474 0.0
C189 C 0.15538 0.36102 0.21225 0.0
C190 C 0.17902 0.3624 0.18293 0.0
C191 C 0.19915 0.36192 0.22349 0.0
C192 C 0.1853 0.3691 0.1117 0.0
C193 C 0.13335 0.36179 0.17055 0.0
C194 C 0.17013 0.34995 0.06173 0.0
C195 C 0.17437 0.35802 0.99485 0.0
C196 C 0.19362 0.38544 0.97734 0.0
C197 C 0.20964 0.40409 0.02757 0.0
C198 C 0.20558 0.39595 0.094 0.0
H199 H 0.11708 0.36222 0.20133 0.0
H200 H 0.14276 0.38029 0.13793 0.0
H201 H 0.12346 0.34328 0.13806 0.0
H202 H 0.15448 0.32907 0.0746 0.0
H203 H 0.16167 0.3432 0.95729 0.0
H204 H 0.81591 0.16574 0.12356 0.0
H205 H 0.82287 0.15868 0.241 0.0
H206 H 0.80571 0.22297 0.29739 0.0
H207 H 0.79868 0.23008 0.1811 0.0
H208 H 0.85231 0.22173 0.36747 0.0
H209 H 0.75202 0.12242 0.36626 0.0
H210 H 0.77752 0.12826 0.30398 0.0
H211 H 0.76045 0.14815 0.30252 0.0
C212 C 0.81425 0.17877 0.16093 0.0
C213 C 0.8065 0.19829 0.14319 0.0
C214 C 0.81808 0.17461 0.22789 0.0
C215 C 0.81451 0.19013 0.27767 0.0
C216 C 0.80851 0.21076 0.25964 0.0
H217 H 0.76292 0.19498 0.65568 0.0
H218 H 0.77036 0.18817 0.53943 0.0
C219 C 0.80442 0.21474 0.19316 0.0
C220 C 0.81452 0.18375 0.34901 0.0
H221 H 0.77159 0.14101 0.46997 0.0
C222 C 0.83512 0.2037 0.39001 0.0
C223 C 0.79188 0.16029 0.37793 0.0
C224 C 0.76906 0.13848 0.3358 0.0
C225 C 0.83288 0.20158 0.45952 0.0
C226 C 0.80942 0.17895 0.48841 0.0
C227 C 0.78962 0.1582 0.44744 0.0
C228 C 0.80292 0.17902 0.55963 0.0
C229 C 0.85453 0.22453 0.50166 0.0
C230 C 0.8182 0.17522 0.60961 0.0
C231 C 0.81385 0.17891 0.67652 0.0
C232 C 0.79437 0.18676 0.69404 0.0
C233 C 0.77822 0.18915 0.64383 0.0
C234 C 0.78238 0.1852 0.57737 0.0
H235 H 0.8707 0.24148 0.47121 0.0
H236 H 0.84473 0.23323 0.53421 0.0
H237 H 0.86462 0.21616 0.53423 0.0
H238 H 0.83406 0.17031 0.59671 0.0
H239 H 0.82667 0.17701 0.71407 0.0
H240 H 0.56397 0.80231 0.3399 0.0
H241 H 0.57788 0.80977 0.45638 0.0
H242 H 0.65756 0.82107 0.40321 0.0
H243 H 0.64382 0.81377 0.28571 0.0
H244 H 0.62718 0.7793 0.50252 0.0
H245 H 0.63343 0.87877 0.56431 0.0
H246 H 0.60293 0.85581 0.51823 0.0
H247 H 0.63631 0.8691 0.4802 0.0
C248 C 0.58467 0.80694 0.35269 0.0
C249 C 0.60278 0.80739 0.30361 0.0
C250 C 0.59265 0.81137 0.41928 0.0
C251 C 0.61882 0.81621 0.4383 0.0
C252 C 0.63735 0.8176 0.38935 0.0
H253 H 0.64372 0.83204 0.87233 0.0
H254 H 0.65737 0.83901 0.75473 0.0
C255 C 0.6295 0.81352 0.32232 0.0
C256 C 0.62522 0.81672 0.50985 0.0
H257 H 0.62455 0.84745 0.65574 0.0
C258 C 0.62733 0.79458 0.536 0.0
C259 C 0.62566 0.83677 0.55335 0.0
C260 C 0.62473 0.86162 0.52761 0.0
C261 C 0.62766 0.79082 0.6049 0.0
C262 C 0.62573 0.80962 0.64841 0.0
C263 C 0.62585 0.83295 0.62224 0.0
C264 C 0.61971 0.80354 0.72002 0.0
C265 C 0.62887 0.76613 0.63067 0.0
C266 C 0.5942 0.78113 0.73927 0.0
C267 C 0.58627 0.77728 0.80589 0.0
C268 C 0.60376 0.79569 0.85475 0.0
C269 C 0.62992 0.81738 0.83586 0.0
C270 C 0.6377 0.82145 0.76879 0.0
H271 H 0.63839 0.75863 0.59376 0.0
H272 H 0.64077 0.77113 0.67777 0.0
H273 H 0.60757 0.74909 0.64066 0.0
H274 H 0.57984 0.76732 0.70231 0.0
H275 H 0.56601 0.76037 0.81888 0.0
H276 H 0.8369 0.63803 0.46699 0.0
H277 H 0.84391 0.64692 0.5866 0.0
H278 H 0.75725 0.59013 0.6204 0.0
H279 H 0.75066 0.5798 0.50132 0.0
H280 H 0.82624 0.66365 0.68963 0.0
H281 H 0.79155 0.55253 0.71732 0.0
H282 H 0.79685 0.56877 0.63722 0.0
H283 H 0.76503 0.55758 0.68186 0.0
C284 C 0.81928 0.62798 0.50001 0.0
C285 C 0.79334 0.60798 0.47575 0.0
C286 C 0.82329 0.63304 0.56819 0.0
C287 C 0.80128 0.61846 0.61244 0.0
C288 C 0.7747 0.60083 0.58719 0.0
H289 H 0.79265 0.63635 0.03341 0.0
H290 H 0.79867 0.64575 0.91421 0.0
C291 C 0.77087 0.59511 0.51936 0.0
C292 C 0.8066 0.61929 0.68462 0.0
H293 H 0.79659 0.57735 0.81678 0.0
C294 C 0.81998 0.64484 0.71758 0.0
C295 C 0.79937 0.59482 0.72048 0.0
C296 C 0.78772 0.56694 0.68725 0.0
C297 C 0.82539 0.64645 0.78611 0.0
C298 C 0.81624 0.62175 0.8227 0.0
C299 C 0.80357 0.59635 0.78909 0.0
C300 C 0.81801 0.62107 0.89613 0.0
C301 C 0.84117 0.67457 0.81802 0.0
C302 C 0.82698 0.60419 0.92607 0.0
C303 C 0.82243 0.5979 0.99355 0.0
C304 C 0.80976 0.60917 0.03246 0.0
C305 C 0.80287 0.62782 0.0041 0.0
C306 C 0.80654 0.63338 0.93608 0.0
H307 H 0.8555 0.69024 0.78193 0.0
H308 H 0.82641 0.68112 0.8347 0.0
H309 H 0.85329 0.67443 0.86156 0.0
H310 H 0.83594 0.59449 0.89638 0.0
H311 H 0.8278 0.5834 0.01479 0.0
H312 H 0.22731 0.80119 0.15488 0.0
H313 H 0.22067 0.80842 0.03825 0.0
H314 H 0.15144 0.81834 0.09132 0.0
H315 H 0.15825 0.81151 0.20904 0.0
H316 H 0.14208 0.77499 0.99131 0.0
H317 H 0.23121 0.87798 0.93128 0.0
H318 H 0.23981 0.85649 0.9804 0.0
H319 H 0.21766 0.86806 0.01458 0.0
C320 C 0.21104 0.80552 0.14197 0.0
C321 C 0.19328 0.80577 0.19102 0.0
C322 C 0.20735 0.80976 0.07537 0.0
C323 C 0.18569 0.81408 0.05635 0.0
C324 C 0.16843 0.81527 0.10526 0.0
H325 H 0.1746 0.8278 0.62183 0.0
H326 H 0.16688 0.83384 0.73939 0.0
C327 C 0.17241 0.81148 0.17235 0.0
C328 C 0.17969 0.81424 0.98482 0.0
H329 H 0.21027 0.84662 0.83969 0.0
C330 C 0.15656 0.79098 0.95814 0.0
C331 C 0.19852 0.83518 0.94183 0.0
C332 C 0.2231 0.861 0.96837 0.0
C333 C 0.15298 0.78713 0.88915 0.0
C334 C 0.17304 0.80703 0.84616 0.0
C335 C 0.19496 0.83132 0.87284 0.0
C336 C 0.17388 0.80132 0.77465 0.0
C337 C 0.12848 0.76122 0.86269 0.0
C338 C 0.18008 0.78089 0.75582 0.0
C339 C 0.1848 0.77762 0.68926 0.0
C340 C 0.18322 0.79462 0.64006 0.0
C341 C 0.17573 0.81425 0.65859 0.0
C342 C 0.17141 0.81779 0.72561 0.0
H343 H 0.11138 0.75207 0.89945 0.0
H344 H 0.12075 0.76547 0.81589 0.0
H345 H 0.13483 0.74573 0.85181 0.0
H346 H 0.18245 0.76823 0.79303 0.0
H347 H 0.19048 0.76229 0.67654 0.0
H348 H 0.34631 0.0993 0.58816 0.0
H349 H 0.32783 0.04992 0.57277 0.0
H350 H 0.39924 0.06636 0.45653 0.0
H351 H 0.41787 0.116 0.47073 0.0
H352 H 0.3501 0.02998 0.39581 0.0
H353 H 0.35104 -0.00174 0.65585 0.0
H354 H 0.33414 0.01819 0.64747 0.0
H355 H 0.3704 0.03382 0.62914 0.0
C356 C 0.35831 0.09252 0.55989 0.0
C357 C 0.3836 0.11169 0.53063 0.0
C358 C 0.34777 0.06423 0.55154 0.0
C359 C 0.36237 0.05453 0.51437 0.0
C360 C 0.38776 0.0735 0.48577 0.0
H361 H 0.29932 0.87661 0.49884 0.0
H362 H 0.33065 0.92632 0.50918 0.0
C363 C 0.39836 0.10185 0.49402 0.0
C364 C 0.35009 0.02461 0.50184 0.0
H365 H 0.32134 0.96227 0.58025 0.0
C366 C 0.34416 0.01515 0.43601 0.0
C367 C 0.34277 0.00539 0.55429 0.0
C368 C 0.35017 0.01443 0.6256 0.0
C369 C 0.32983 0.98683 0.42146 0.0
C370 C 0.32082 0.9676 0.47429 0.0
C371 C 0.32798 0.97708 0.53986 0.0
C372 C 0.30276 0.93763 0.46316 0.0
C373 C 0.32429 0.9778 0.34976 0.0
C374 C 0.27671 0.92756 0.43384 0.0
C375 C 0.25876 0.89919 0.42764 0.0
C376 C 0.26641 0.88032 0.45142 0.0
C377 C 0.29271 0.89053 0.48011 0.0
C378 C 0.31068 0.91893 0.48605 0.0
H379 H 0.33961 0.99397 0.31613 0.0
H380 H 0.32477 0.9584 0.34181 0.0
H381 H 0.30352 0.97408 0.33563 0.0
H382 H 0.26994 0.94165 0.4173 0.0
H383 H 0.23864 0.89209 0.40563 0.0
H384 H 0.40623 0.28702 0.71044 0.0
H385 H 0.38409 0.31447 0.73137 0.0
H386 H 0.33311 0.27936 0.55762 0.0
H387 H 0.35452 0.2512 0.53736 0.0
H388 H 0.3788 0.353 0.66156 0.0
H389 H 0.27613 0.26036 0.70188 0.0
H390 H 0.30734 0.25853 0.69581 0.0
H391 H 0.29029 0.26047 0.62184 0.0
C392 C 0.39046 0.28529 0.67632 0.0
C393 C 0.38185 0.26664 0.62274 0.0
C394 C 0.37783 0.30099 0.68841 0.0
C395 C 0.35651 0.29842 0.64697 0.0
C396 C 0.34897 0.28102 0.59131 0.0
H397 H 0.28556 0.40417 0.62462 0.0
H398 H 0.3142 0.38289 0.61234 0.0
C399 C 0.36133 0.26506 0.57961 0.0
C400 C 0.34159 0.31328 0.66308 0.0
H401 H 0.27718 0.30327 0.69246 0.0
C402 C 0.3566 0.34217 0.66873 0.0
C403 C 0.31273 0.29902 0.67398 0.0
C404 C 0.29571 0.26787 0.6738 0.0
C405 C 0.34338 0.35727 0.68318 0.0
C406 C 0.31431 0.34309 0.69038 0.0
C407 C 0.29944 0.31415 0.68635 0.0
C408 C 0.29863 0.35766 0.70079 0.0
C409 C 0.36075 0.38816 0.69151 0.0
C410 C 0.27996 0.35018 0.75391 0.0
C411 C 0.26312 0.36187 0.76027 0.0
C412 C 0.26478 0.38141 0.71383 0.0
C413 C 0.28399 0.38938 0.66162 0.0
C414 C 0.30054 0.37738 0.65478 0.0
H415 H 0.38222 0.3944 0.70638 0.0
H416 H 0.36178 0.39833 0.64341 0.0
H417 H 0.35181 0.3959 0.72935 0.0
H418 H 0.27809 0.33491 0.78986 0.0
H419 H 0.24862 0.3554 0.80121 0.0
H420 H 0.89143 0.24501 0.93205 0.0
H421 H 0.94079 0.27607 0.91639 0.0
H422 H 0.92415 0.3329 0.80904 0.0
H423 H 0.87458 0.30178 0.82349 0.0
H424 H 0.95965 0.32085 0.74286 0.0
H425 H 0.99368 0.34961 0.00336 0.0
H426 H 0.97356 0.31291 0.99209 0.0
H427 H 0.95791 0.33387 0.97873 0.0
C428 C 0.89818 0.26425 0.90579 0.0
C429 C 0.87897 0.27083 0.87891 0.0
C430 C 0.92646 0.28207 0.89729 0.0
C431 C 0.9361 0.30693 0.86238 0.0
C432 C 0.91708 0.31385 0.83647 0.0
H433 H 0.11416 0.4211 0.84206 0.0
H434 H 0.06463 0.40311 0.85536 0.0
C435 C 0.88876 0.29602 0.84483 0.0
C436 C 0.96593 0.3246 0.84887 0.0
H437 H 0.02894 0.35687 0.92437 0.0
C438 C 0.97482 0.32909 0.78249 0.0
C439 C 0.98561 0.33569 0.90061 0.0
C440 C 0.97721 0.33304 0.97267 0.0
C441 C 0.00299 0.34323 0.76652 0.0
C442 C 0.02268 0.35261 0.81838 0.0
C443 C 0.01378 0.34935 0.88468 0.0
C444 C 0.0525 0.36446 0.80529 0.0
C445 C 0.01139 0.34775 0.69433 0.0
C446 C 0.06204 0.34868 0.77258 0.0
C447 C 0.0903 0.35888 0.7647 0.0
C448 C 0.10959 0.38497 0.79009 0.0
C449 C 0.09991 0.40091 0.82198 0.0
C450 C 0.07162 0.39069 0.82964 0.0
H451 H -0.005 0.34753 0.66267 0.0
H452 H 0.03081 0.36769 0.68695 0.0
H453 H 0.01481 0.33084 0.67717 0.0
H454 H 0.04763 0.32811 0.75479 0.0
H455 H 0.09697 0.34597 0.74019 0.0
H456 H 0.62724 0.88995 0.13152 0.0
H457 H 0.64778 0.93987 0.11947 0.0
H458 H 0.60639 0.92794 0.93114 0.0
H459 H 0.58498 0.87794 0.944 0.0
H460 H 0.68287 0.97027 0.02655 0.0
H461 H 0.59206 0.9848 0.01392 0.0
H462 H 0.58951 0.9528 0.04071 0.0
H463 H 0.59049 0.96047 0.95352 0.0
C464 C 0.62219 0.89795 0.08801 0.0
C465 C 0.60454 0.88005 0.03864 0.0
C466 C 0.6339 0.92647 0.08123 0.0
C467 C 0.62839 0.93764 0.02477 0.0
C468 C 0.61038 0.91979 0.97594 0.0
H469 H 0.74153 0.10196 0.87823 0.0
H470 H 0.71243 0.05212 0.89308 0.0
C471 C 0.5983 0.89121 0.98316 0.0
C472 C 0.64347 0.96791 0.01439 0.0
H473 H 0.63525 0.02306 0.97888 0.0
C474 C 0.67243 0.98183 0.01664 0.0
C475 C 0.62981 0.983 0.00207 0.0
C476 C 0.59875 0.96954 0.00308 0.0
C477 C 0.68815 0.01036 0.00618 0.0
C478 C 0.67456 0.02525 0.9908 0.0
C479 C 0.64559 0.01148 0.98961 0.0
C480 C 0.69019 0.05527 0.97751 0.0
C481 C 0.71916 0.02431 0.01304 0.0
C482 C 0.68631 0.07348 0.01792 0.0
C483 C 0.70261 0.10197 0.00895 0.0
C484 C 0.72316 0.11272 0.95956 0.0
C485 C 0.72617 0.09435 0.91736 0.0
C486 C 0.70965 0.06588 0.92593 0.0
H487 H 0.72547 0.01171 0.04306 0.0
H488 H 0.72853 0.0271 0.96301 0.0
H489 H 0.7277 0.04493 0.03667 0.0
H490 H 0.67126 0.06566 0.05775 0.0
H491 H 0.69971 0.11554 0.04222 0.0
H492 H 0.73843 0.63577 0.29687 0.0
H493 H 0.70893 0.65604 0.28286 0.0
H494 H 0.67689 0.61053 0.10033 0.0
H495 H 0.70571 0.58951 0.11494 0.0
H496 H 0.71161 0.68887 0.18455 0.0
H497 H 0.60675 0.59685 0.18969 0.0
H498 H 0.63702 0.59565 0.21566 0.0
H499 H 0.6287 0.59414 0.1288 0.0
C500 C 0.72485 0.6298 0.25414 0.0
C501 C 0.72441 0.61104 0.20698 0.0
C502 C 0.70798 0.64138 0.24628 0.0
C503 C 0.69046 0.63453 0.19101 0.0
C504 C 0.68971 0.61556 0.14424 0.0
H505 H 0.63343 0.74162 0.0354 0.0
H506 H 0.65506 0.71343 0.05174 0.0
C507 C 0.70635 0.60371 0.15246 0.0
C508 C 0.6747 0.64895 0.17979 0.0
H509 H 0.61016 0.63881 0.15035 0.0
C510 C 0.6894 0.67791 0.17752 0.0
C511 C 0.6457 0.63463 0.17129 0.0
C512 C 0.62857 0.60362 0.17714 0.0
C513 C 0.67597 0.69299 0.1662 0.0
C514 C 0.64715 0.67865 0.15478 0.0
C515 C 0.63233 0.6497 0.15811 0.0
C516 C 0.63205 0.69351 0.14092 0.0
C517 C 0.69276 0.72414 0.16792 0.0
C518 C 0.61094 0.69054 0.1837 0.0
C519 C 0.59823 0.70632 0.17397 0.0
C520 C 0.60655 0.72542 0.12142 0.0
C521 C 0.62686 0.72741 0.07695 0.0
C522 C 0.63932 0.71141 0.08634 0.0
H523 H 0.71247 0.73154 0.19538 0.0
H524 H 0.69793 0.73212 0.11634 0.0
H525 H 0.68104 0.73305 0.19161 0.0
H526 H 0.60492 0.67668 0.22588 0.0
H527 H 0.58261 0.70424 0.20903 0.0
H528 H 0.87252 0.57202 0.35535 0.0
H529 H 0.92195 0.5899 0.37145 0.0
H530 H 0.94018 0.66354 0.2626 0.0
H531 H 0.89102 0.64577 0.24508 0.0
H532 H 0.97401 0.6425 0.22828 0.0
H533 H 0.96871 0.65186 0.50249 0.0
H534 H 0.9467 0.618 0.46874 0.0
H535 H 0.94053 0.64571 0.44817 0.0
C536 C 0.88704 0.59198 0.33456 0.0
C537 C 0.87776 0.60758 0.29942 0.0
C538 C 0.91526 0.60218 0.34408 0.0
C539 C 0.93463 0.62821 0.31918 0.0
C540 C 0.92551 0.64342 0.28241 0.0
H541 H 0.09733 0.74991 0.42381 0.0
H542 H 0.04785 0.71888 0.41019 0.0
C543 C 0.89737 0.63322 0.27255 0.0
C544 C 0.96445 0.64021 0.33247 0.0
H545 H 0.01246 0.66604 0.45648 0.0
C546 C 0.98248 0.64743 0.27816 0.0
C547 C 0.97529 0.64675 0.39767 0.0
C548 C 0.95689 0.64042 0.45771 0.0
C549 C 0.01119 0.66179 0.28708 0.0
C550 C 0.02204 0.66855 0.35224 0.0
C551 C 0.00399 0.66062 0.40668 0.0
C552 C 0.05198 0.68609 0.36453 0.0
C553 C 0.02961 0.67075 0.22656 0.0
C554 C 0.07065 0.67763 0.34478 0.0
C555 C 0.09904 0.69543 0.35201 0.0
C556 C 0.1092 0.72189 0.37975 0.0
C557 C 0.09029 0.72976 0.40204 0.0
C558 C 0.06197 0.71203 0.39441 0.0
H559 H 0.01799 0.66892 0.18027 0.0
H560 H 0.04656 0.69248 0.23171 0.0
H561 H 0.03903 0.65748 0.2212 0.0
H562 H 0.06327 0.65744 0.32288 0.0
H563 H 0.113 0.68858 0.33501 0.0
H564 H 0.50666 0.27804 0.40372 0.0
H565 H 0.54542 0.32163 0.36449 0.0
H566 H 0.54035 0.36269 0.54082 0.0
H567 H 0.50135 0.31947 0.58005 0.0
H568 H 0.54983 0.39393 0.42583 0.0
H569 H 0.62227 0.35357 0.44748 0.0
H570 H 0.59294 0.33328 0.39515 0.0
H571 H 0.58799 0.33589 0.48256 0.0
C572 C 0.51359 0.29637 0.43396 0.0
C573 C 0.50106 0.29512 0.49548 0.0
C574 C 0.53583 0.32123 0.41156 0.0
C575 C 0.54605 0.34519 0.45046 0.0
C576 C 0.53284 0.34435 0.5103 0.0
H577 H 0.71079 0.48663 0.42192 0.0
H578 H 0.66734 0.44767 0.46073 0.0
C579 C 0.51056 0.31957 0.53265 0.0
C580 C 0.57121 0.3709 0.43038 0.0
H581 H 0.63992 0.39785 0.39946 0.0
C582 C 0.56956 0.39486 0.42005 0.0
C583 C 0.59697 0.3721 0.42421 0.0
C584 C 0.60033 0.34743 0.43851 0.0
C585 C 0.59301 0.41997 0.40266 0.0
C586 C 0.61858 0.42091 0.3944 0.0
C587 C 0.62024 0.39702 0.40554 0.0
C588 C 0.64397 0.44632 0.37371 0.0
C589 C 0.59028 0.44532 0.3945 0.0
C590 C 0.64513 0.45866 0.31225 0.0
C591 C 0.66989 0.48105 0.29003 0.0
C592 C 0.69407 0.49127 0.32853 0.0
C593 C 0.69263 0.47925 0.39087 0.0
C594 C 0.66781 0.45697 0.41316 0.0
H595 H 0.57179 0.44308 0.42077 0.0
H596 H 0.60886 0.46403 0.41355 0.0
H597 H 0.58802 0.44847 0.34094 0.0
H598 H 0.62713 0.4504 0.28037 0.0
H599 H 0.67025 0.48969 0.24163 0.0
H600 H 0.24308 0.52092 0.60705 0.0
H601 H 0.24027 0.56103 0.56966 0.0
H602 H 0.16431 0.53207 0.67875 0.0
H603 H 0.16736 0.49235 0.71797 0.0
H604 H 0.20272 0.56715 0.49922 0.0
H605 H 0.21097 0.60883 0.75355 0.0
H606 H 0.21705 0.58071 0.73577 0.0
H607 H 0.18233 0.57447 0.74359 0.0
C608 C 0.22566 0.52296 0.62268 0.0
C609 C 0.20563 0.50364 0.66616 0.0
C610 C 0.22411 0.54591 0.60137 0.0
C611 C 0.20245 0.54986 0.62281 0.0
C612 C 0.18164 0.52985 0.66328 0.0
H613 H 0.16774 0.67145 0.44585 0.0
H614 H 0.16479 0.62869 0.48477 0.0
C615 C 0.18333 0.50707 0.68526 0.0
C616 C 0.20194 0.57516 0.60359 0.0
H617 H 0.20118 0.63142 0.66691 0.0
C618 C 0.2024 0.58123 0.53582 0.0
C619 C 0.20199 0.59371 0.65156 0.0
C620 C 0.20334 0.5893 0.72517 0.0
C621 C 0.20276 0.60529 0.51459 0.0
C622 C 0.20182 0.62334 0.56253 0.0
C623 C 0.20153 0.61735 0.6303 0.0
C624 C 0.20221 0.64909 0.54337 0.0
C625 C 0.20494 0.61149 0.44112 0.0
C626 C 0.2234 0.6747 0.56635 0.0
C627 C 0.22488 0.69919 0.54518 0.0
C628 C 0.20526 0.69848 0.50034 0.0
C629 C 0.1834 0.67272 0.47968 0.0
C630 C 0.18177 0.64826 0.50148 0.0
H631 H 0.21313 0.59996 0.41328 0.0
H632 H 0.18411 0.60519 0.4212 0.0
H633 H 0.21857 0.6339 0.43151 0.0
H634 H 0.23927 0.67577 0.59916 0.0
H635 H 0.24198 0.71867 0.56204 0.0
H636 H 0.71439 0.22998 0.74687 0.0
H637 H 0.67143 0.22608 0.70587 0.0
H638 H 0.62786 0.17652 0.87604 0.0
H639 H 0.67043 0.17978 0.91691 0.0
H640 H 0.59829 0.15695 0.75907 0.0
H641 H 0.63811 0.26931 0.79029 0.0
H642 H 0.65915 0.26127 0.73798 0.0
H643 H 0.65545 0.25224 0.82462 0.0
C644 C 0.69564 0.21805 0.77536 0.0
C645 C 0.69598 0.20547 0.83563 0.0
C646 C 0.67115 0.21597 0.752 0.0
C647 C 0.64665 0.20152 0.78871 0.0
C648 C 0.64662 0.18793 0.84724 0.0
H649 H 0.50494 0.2245 0.75067 0.0
H650 H 0.54367 0.22026 0.79257 0.0
C651 C 0.67103 0.18987 0.87051 0.0
C652 C 0.6212 0.20128 0.76753 0.0
H653 H 0.59468 0.24345 0.73738 0.0
C654 C 0.59743 0.17583 0.75437 0.0
C655 C 0.62006 0.22592 0.76282 0.0
C656 C 0.64445 0.25373 0.78027 0.0
C657 C 0.5726 0.1744 0.73538 0.0
C658 C 0.57176 0.19914 0.7283 0.0
C659 C 0.59543 0.22453 0.7425 0.0
C660 C 0.54675 0.19937 0.70524 0.0
C661 C 0.54742 0.14642 0.72419 0.0
C662 C 0.53555 0.18887 0.64246 0.0
C663 C 0.51333 0.19111 0.61849 0.0
C664 C 0.5021 0.20425 0.65653 0.0
C665 C 0.51309 0.21432 0.71998 0.0
C666 C 0.53523 0.21193 0.74402 0.0
H667 H 0.54918 0.12987 0.75031 0.0
H668 H 0.52838 0.14605 0.74143 0.0
H669 H 0.54526 0.14164 0.67027 0.0
H670 H 0.54451 0.17967 0.61107 0.0
H671 H 0.50553 0.18324 0.56926 0.0
H672 H 0.49914 0.67176 0.05141 0.0
H673 H 0.46108 0.62785 0.01197 0.0
H674 H 0.43011 0.67147 0.89621 0.0
H675 H 0.46852 0.71552 0.93395 0.0
H676 H 0.40738 0.60792 0.03385 0.0
H677 H 0.4263 0.61611 0.76275 0.0
H678 H 0.4519 0.63913 0.82144 0.0
H679 H 0.42462 0.64515 0.7948 0.0
C680 C 0.48446 0.67205 0.0168 0.0
C681 C 0.48687 0.69716 0.99579 0.0
C682 C 0.46271 0.64692 0.99436 0.0
C683 C 0.44294 0.64637 0.95059 0.0
C684 C 0.44551 0.67139 0.92869 0.0
H685 H 0.27393 0.51891 0.89929 0.0
H686 H 0.31769 0.55759 0.9373 0.0
C687 C 0.46742 0.69657 0.95059 0.0
C688 C 0.41859 0.61969 0.93161 0.0
H689 H 0.38101 0.5818 0.79848 0.0
C690 C 0.40177 0.60205 0.98236 0.0
C691 C 0.41152 0.61184 0.8645 0.0
C692 C 0.42971 0.62892 0.80779 0.0
C693 C 0.37758 0.57719 0.96781 0.0
C694 C 0.36965 0.57018 0.90072 0.0
C695 C 0.38695 0.58736 0.84996 0.0
C696 C 0.34317 0.54556 0.88181 0.0
C697 C 0.36089 0.55866 0.02447 0.0
C698 C 0.34293 0.5261 0.83741 0.0
C699 C 0.31793 0.50418 0.81482 0.0
C700 C 0.29267 0.50128 0.8363 0.0
C701 C 0.29298 0.52038 0.88224 0.0
C702 C 0.31801 0.54245 0.90431 0.0
H703 H 0.37391 0.56221 0.06919 0.0
H704 H 0.3444 0.56326 0.03816 0.0
H705 H 0.35106 0.53653 0.01043 0.0
H706 H 0.36211 0.52815 0.81933 0.0
H707 H 0.31844 0.48978 0.77962 0.0
H708 H 0.74849 0.4722 0.11044 0.0
H709 H 0.75241 0.43262 0.07436 0.0
H710 H 0.8262 0.46129 0.19228 0.0
H711 H 0.82193 0.50049 0.23045 0.0
H712 H 0.79109 0.42782 0.00806 0.0
H713 H 0.77971 0.38373 0.2608 0.0
H714 H 0.77363 0.41187 0.24336 0.0
H715 H 0.80832 0.41824 0.25321 0.0
C716 C 0.76566 0.4702 0.12845 0.0
C717 C 0.78474 0.48933 0.17388 0.0
C718 C 0.76785 0.44754 0.10784 0.0
C719 C 0.78923 0.44367 0.13184 0.0
C720 C 0.80906 0.46342 0.17473 0.0
H721 H 0.8227 0.32119 0.95157 0.0
H722 H 0.82709 0.36439 0.99225 0.0
C723 C 0.80669 0.48591 0.1961 0.0
C724 C 0.79046 0.41878 0.11223 0.0
H725 H 0.78996 0.36167 0.17401 0.0
C726 C 0.79088 0.41335 0.0443 0.0
C727 C 0.78978 0.39975 0.15968 0.0
C728 C 0.78756 0.40349 0.2333 0.0
C729 C 0.79045 0.38934 0.02238 0.0
C730 C 0.79051 0.37069 0.06985 0.0
C731 C 0.79024 0.37617 0.13779 0.0
C732 C 0.78939 0.34464 0.04996 0.0
C733 C 0.78892 0.38377 0.94864 0.0
C734 C 0.76755 0.31921 0.07186 0.0
C735 C 0.76527 0.29447 0.04979 0.0
C736 C 0.7847 0.29476 0.00499 0.0
C737 C 0.80717 0.32029 0.98529 0.0
C738 C 0.80963 0.345 0.00813 0.0
H739 H 0.78144 0.3959 0.92074 0.0
H740 H 0.80984 0.38978 0.92989 0.0
H741 H 0.77499 0.36152 0.93773 0.0
H742 H 0.7518 0.31848 0.10453 0.0
H743 H 0.74773 0.27517 0.0659 0.0
H744 H 0.49757 0.82457 0.10482 0.0
H745 H 0.45924 0.82984 0.14478 0.0
H746 H 0.42903 0.7551 0.25971 0.0
H747 H 0.4677 0.75005 0.22149 0.0
H748 H 0.40546 0.79583 0.12387 0.0
H749 H 0.42551 0.80634 0.39454 0.0
H750 H 0.45092 0.80914 0.33501 0.0
H751 H 0.42385 0.77572 0.36178 0.0
C752 C 0.48297 0.80943 0.1393 0.0
C753 C 0.48571 0.78689 0.16006 0.0
C754 C 0.46108 0.81248 0.16204 0.0
C755 C 0.44147 0.79306 0.20582 0.0
C756 C 0.4443 0.77071 0.22725 0.0
H757 H 0.27253 0.75123 0.26288 0.0
H758 H 0.31605 0.75635 0.22272 0.0
C759 C 0.46636 0.76778 0.20507 0.0
C760 C 0.41711 0.7952 0.22568 0.0
H761 H 0.38007 0.79524 0.36019 0.0
C762 C 0.40005 0.79601 0.17557 0.0
C763 C 0.41032 0.79588 0.29307 0.0
C764 C 0.42878 0.79703 0.34915 0.0
C765 C 0.3759 0.79658 0.19103 0.0
C766 C 0.36826 0.79558 0.25839 0.0
C767 C 0.38578 0.79568 0.30851 0.0
C768 C 0.34191 0.79376 0.27832 0.0
C769 C 0.35896 0.79846 0.13505 0.0
C770 C 0.34196 0.8129 0.32344 0.0
C771 C 0.31714 0.80979 0.34727 0.0
C772 C 0.29174 0.78747 0.3263 0.0
C773 C 0.29172 0.76878 0.27955 0.0
C774 C 0.3166 0.77176 0.25626 0.0
H775 H 0.37177 0.80797 0.09006 0.0
H776 H 0.3424 0.77735 0.12148 0.0
H777 H 0.34919 0.81074 0.14975 0.0
H778 H 0.36127 0.83 0.34117 0.0
H779 H 0.31788 0.82464 0.38301 0.0
loop_
_geom_bond_atom_site_label_1
_geom_bond_atom_site_label_2
_geom_bond_distance
_geom_bond_site_symmetry_2
_ccdc_geom_bond_type
Sc0 O3 2.025 . S
Sc0 O10 2.105 . S
Sc0 O13 2.105 . S
Sc0 O16 2.105 . S
Sc0 O19 2.105 . S
Sc1 O3 2.025 . S
Sc1 O11 2.105 . S
Sc1 O15 2.105 . S
Sc1 O17 2.105 . S
Sc1 O21 2.105 . S
Sc2 O3 2.025 . S
Sc2 O12 2.105 . S
Sc2 O14 2.105 . S
Sc2 O18 2.105 . S
Sc2 O20 2.105 . S
O3 Sc0 2.025 . S
O3 Sc1 2.025 . S
O3 Sc2 2.025 . S
C4 O10 1.268 . S
C4 O20 1.268 . S
C5 O11 1.268 . S
C5 O19 1.268 . S
C6 O12 1.268 . S
C6 O21 1.268 . S
C7 O13 1.268 . S
C7 O17 1.268 . S
C8 O14 1.268 . S
C8 O16 1.268 . S
C9 O15 1.268 . S
C9 O18 1.268 . S
O10 Sc0 2.105 . S
O10 C4 1.268 . S
O11 Sc1 2.105 . S
O11 C5 1.268 . S
O12 Sc2 2.105 . S
O12 C6 1.268 . S
O13 Sc0 2.105 . S
O13 C7 1.268 . S
O14 Sc2 2.105 . S
O14 C8 1.268 . S
O15 Sc1 2.105 . S
O15 C9 1.268 . S
O16 Sc0 2.105 . S
O16 C8 1.268 . S
O17 Sc1 2.105 . S
O17 C7 1.268 . S
O18 Sc2 2.105 . S
O18 C9 1.268 . S
O19 Sc0 2.105 . S
O19 C5 1.268 . S
O20 Sc2 2.105 . S
O20 C4 1.268 . S
O21 Sc1 2.105 . S
O21 C6 1.268 . S
Sc22 O25 2.025 . S
Sc22 O32 2.105 . S
Sc22 O35 2.105 . S
Sc22 O38 2.105 . S
Sc22 O41 2.105 . S
Sc23 O25 2.025 . S
Sc23 O33 2.105 . S
Sc23 O37 2.105 . S
Sc23 O39 2.105 . S
Sc23 O43 2.105 . S
Sc24 O25 2.025 . S
Sc24 O34 2.105 . S
Sc24 O36 2.105 . S
Sc24 O40 2.105 . S
Sc24 O42 2.105 . S
O25 Sc22 2.025 . S
O25 Sc23 2.025 . S
O25 Sc24 2.025 . S
C26 O32 1.268 . S
C26 O42 1.268 . S
C27 O33 1.268 . S
C27 O41 1.268 . S
C28 O34 1.268 . S
C28 O43 1.268 . S
C29 O35 1.268 . S
C29 O39 1.268 . S
C30 O36 1.268 . S
C30 O38 1.268 . S
C31 O37 1.268 . S
C31 O40 1.268 . S
O32 Sc22 2.105 . S
O32 C26 1.268 . S
O33 Sc23 2.105 . S
O33 C27 1.268 . S
O34 Sc24 2.105 . S
O34 C28 1.268 . S
O35 Sc22 2.105 . S
O35 C29 1.268 . S
O36 Sc24 2.105 . S
O36 C30 1.268 . S
O37 Sc23 2.105 . S
O37 C31 1.268 . S
O38 Sc22 2.105 . S
O38 C30 1.268 . S
O39 Sc23 2.105 . S
O39 C29 1.268 . S
O40 Sc24 2.105 . S
O40 C31 1.268 . S
O41 Sc22 2.105 . S
O41 C27 1.268 . S
O42 Sc24 2.105 . S
O42 C26 1.268 . S
O43 Sc23 2.105 . S
O43 C28 1.268 . S
Sc44 O47 2.025 . S
Sc44 O54 2.105 . S
Sc44 O57 2.105 . S
Sc44 O60 2.105 . S
Sc44 O63 2.105 . S
Sc45 O47 2.025 . S
Sc45 O55 2.105 . S
Sc45 O59 2.105 . S
Sc45 O61 2.105 . S
Sc45 O65 2.105 1_556 S
Sc46 O47 2.025 . S
Sc46 O56 2.105 1_556 S
Sc46 O58 2.105 . S
Sc46 O62 2.105 . S
Sc46 O64 2.105 1_556 S
O47 Sc44 2.025 . S
O47 Sc45 2.025 . S
O47 Sc46 2.025 . S
C48 O54 1.268 . S
C48 O64 1.268 1_556 S
C49 O55 1.268 . S
C49 O63 1.268 . S
C50 O56 1.268 . S
C50 O65 1.268 . S
C51 O57 1.268 . S
C51 O61 1.268 . S
C52 O58 1.268 . S
C52 O60 1.268 . S
C53 O59 1.268 . S
C53 O62 1.268 . S
O54 Sc44 2.105 . S
O54 C48 1.268 . S
O55 Sc45 2.105 . S
O55 C49 1.268 . S
O56 Sc46 2.105 1_554 S
O56 C50 1.268 . S
O57 Sc44 2.105 . S
O57 C51 1.268 . S
O58 Sc46 2.105 . S
O58 C52 1.268 . S
O59 Sc45 2.105 . S
O59 C53 1.268 . S
O60 Sc44 2.105 . S
O60 C52 1.268 . S
O61 Sc45 2.105 . S
O61 C51 1.268 . S
O62 Sc46 2.105 . S
O62 C53 1.268 . S
O63 Sc44 2.105 . S
O63 C49 1.268 . S
O64 Sc46 2.105 1_554 S
O64 C48 1.268 1_554 S
O65 Sc45 2.105 1_554 S
O65 C50 1.268 . S
Sc66 O69 2.025 . S
Sc66 O76 2.105 . S
Sc66 O79 2.105 1_554 S
Sc66 O82 2.105 1_554 S
Sc66 O85 2.105 . S
Sc67 O69 2.025 . S
Sc67 O77 2.105 . S
Sc67 O81 2.105 . S
Sc67 O83 2.105 1_554 S
Sc67 O87 2.105 . S
Sc68 O69 2.025 . S
Sc68 O78 2.105 . S
Sc68 O80 2.105 . S
Sc68 O84 2.105 . S
Sc68 O86 2.105 . S
O69 Sc66 2.025 . S
O69 Sc67 2.025 . S
O69 Sc68 2.025 . S
C70 O76 1.268 . S
C70 O86 1.268 . S
C71 O77 1.268 . S
C71 O85 1.268 . S
C72 O78 1.268 . S
C72 O87 1.268 . S
C73 O79 1.268 . S
C73 O83 1.268 . S
C74 O80 1.268 . S
C74 O82 1.268 1_554 S
C75 O81 1.268 . S
C75 O84 1.268 . S
O76 Sc66 2.105 . S
O76 C70 1.268 . S
O77 Sc67 2.105 . S
O77 C71 1.268 . S
O78 Sc68 2.105 . S
O78 C72 1.268 . S
O79 Sc66 2.105 1_556 S
O79 C73 1.268 . S
O80 Sc68 2.105 . S
O80 C74 1.268 . S
O81 Sc67 2.105 . S
O81 C75 1.268 . S
O82 Sc66 2.105 1_556 S
O82 C74 1.268 1_556 S
O83 Sc67 2.105 1_556 S
O83 C73 1.268 . S
O84 Sc68 2.105 . S
O84 C75 1.268 . S
O85 Sc66 2.105 . S
O85 C71 1.268 . S
O86 Sc68 2.105 . S
O86 C70 1.268 . S
O87 Sc67 2.105 . S
O87 C72 1.268 . S
Sc88 O91 2.025 . S
Sc88 O98 2.105 . S
Sc88 O101 2.105 . S
Sc88 O104 2.105 . S
Sc88 O107 2.105 . S
Sc89 O91 2.025 . S
Sc89 O99 2.105 . S
Sc89 O103 2.105 . S
Sc89 O105 2.105 . S
Sc89 O109 2.105 . S
Sc90 O91 2.025 . S
Sc90 O100 2.105 . S
Sc90 O102 2.105 . S
Sc90 O106 2.105 . S
Sc90 O108 2.105 . S
O91 Sc88 2.025 . S
O91 Sc89 2.025 . S
O91 Sc90 2.025 . S
C92 O98 1.268 . S
C92 O108 1.268 . S
C93 O99 1.268 . S
C93 O107 1.268 . S
C94 O100 1.268 . S
C94 O109 1.268 . S
C95 O101 1.268 . S
C95 O105 1.268 . S
C96 O102 1.268 . S
C96 O104 1.268 . S
C97 O103 1.268 . S
C97 O106 1.268 . S
O98 Sc88 2.105 . S
O98 C92 1.268 . S
O99 Sc89 2.105 . S
O99 C93 1.268 . S
O100 Sc90 2.105 . S
O100 C94 1.268 . S
O101 Sc88 2.105 . S
O101 C95 1.268 . S
O102 Sc90 2.105 . S
O102 C96 1.268 . S
O103 Sc89 2.105 . S
O103 C97 1.268 . S
O104 Sc88 2.105 . S
O104 C96 1.268 . S
O105 Sc89 2.105 . S
O105 C95 1.268 . S
O106 Sc90 2.105 . S
O106 C97 1.268 . S
O107 Sc88 2.105 . S
O107 C93 1.268 . S
O108 Sc90 2.105 . S
O108 C92 1.268 . S
O109 Sc89 2.105 . S
O109 C94 1.268 . S
Sc110 O113 2.025 . S
Sc110 O120 2.105 . S
Sc110 O123 2.105 . S
Sc110 O126 2.105 . S
Sc110 O129 2.105 . S
Sc111 O113 2.025 . S
Sc111 O121 2.105 . S
Sc111 O125 2.105 . S
Sc111 O127 2.105 . S
Sc111 O131 2.105 . S
Sc112 O113 2.025 . S
Sc112 O122 2.105 . S
Sc112 O124 2.105 . S
Sc112 O128 2.105 . S
Sc112 O130 2.105 . S
O113 Sc110 2.025 . S
O113 Sc111 2.025 . S
O113 Sc112 2.025 . S
C114 O120 1.268 . S
C114 O130 1.268 . S
C115 O121 1.268 . S
C115 O129 1.268 . S
C116 O122 1.268 . S
C116 O131 1.268 . S
C117 O123 1.268 . S
C117 O127 1.268 . S
C118 O124 1.268 . S
C118 O126 1.268 . S
C119 O125 1.268 . S
C119 O128 1.268 . S
O120 Sc110 2.105 . S
O120 C114 1.268 . S
O121 Sc111 2.105 . S
O121 C115 1.268 . S
O122 Sc112 2.105 . S
O122 C116 1.268 . S
O123 Sc110 2.105 . S
O123 C117 1.268 . S
O124 Sc112 2.105 . S
O124 C118 1.268 . S
O125 Sc111 2.105 . S
O125 C119 1.268 . S
O126 Sc110 2.105 . S
O126 C118 1.268 . S
O127 Sc111 2.105 . S
O127 C117 1.268 . S
O128 Sc112 2.105 . S
O128 C119 1.268 . S
O129 Sc110 2.105 . S
O129 C115 1.268 . S
O130 Sc112 2.105 . S
O130 C114 1.268 . S
O131 Sc111 2.105 . S
O131 C116 1.268 . S
H132 C140 0.929 . S
H133 C142 0.930 . S
H134 C144 0.930 . S
H135 C147 0.929 . S
H136 C150 0.930 . S
H137 C152 0.960 . S
H138 C152 0.960 . S
H139 C152 0.960 . S
C140 H132 0.929 . S
C140 C141 1.377 . S
C140 C142 1.384 . S
C141 C140 1.377 . S
C141 C147 1.390 . S
C142 H133 0.930 . S
C142 C140 1.384 . S
C142 C143 1.372 . S
C143 C142 1.372 . S
C143 C144 1.400 . S
C143 C148 1.490 . S
C144 H134 0.930 . S
C144 C143 1.400 . S
C144 C147 1.386 . S
H145 C161 0.930 . S
H146 C162 0.931 . S
C147 H135 0.929 . S
C147 C141 1.390 . S
C147 C144 1.386 . S
C148 C143 1.490 . S
C148 C150 1.395 . S
C148 C151 1.403 . S
H149 C155 0.930 . S
C150 H136 0.930 . S
C150 C148 1.395 . S
C150 C153 1.403 . S
C151 C148 1.403 . S
C151 C152 1.524 . S
C151 C155 1.400 . S
C152 H137 0.960 . S
C152 H138 0.960 . S
C152 H139 0.960 . S
C152 C151 1.524 . S
C153 C150 1.403 . S
C153 C154 1.392 . S
C153 C157 1.495 . S
C154 C153 1.392 . S
C154 C155 1.385 . S
C154 C156 1.478 1_554 S
C155 H149 0.930 . S
C155 C151 1.400 . S
C155 C154 1.385 . S
C156 C154 1.478 1_556 S
C156 C158 1.381 . S
C156 C162 1.383 . S
C157 C153 1.495 . S
C157 H163 0.959 . S
C157 H164 0.961 . S
C157 H165 0.960 . S
C158 C156 1.381 . S
C158 C159 1.394 . S
C158 H166 0.930 . S
C159 C158 1.394 . S
C159 C160 1.383 . S
C159 H167 0.929 . S
C160 C159 1.383 . S
C160 C161 1.377 . S
C161 H145 0.930 . S
C161 C160 1.377 . S
C161 C162 1.379 . S
C162 H146 0.931 . S
C162 C156 1.383 . S
C162 C161 1.379 . S
H163 C157 0.959 . S
H164 C157 0.961 . S
H165 C157 0.960 . S
H166 C158 0.930 . S
H167 C159 0.929 . S
H168 C176 0.929 . S
H169 C178 0.930 . S
H170 C180 0.930 . S
H171 C183 0.929 . S
H172 C186 0.930 . S
H173 C188 0.960 . S
H174 C188 0.960 . S
H175 C188 0.960 . S
C176 H168 0.929 . S
C176 C177 1.377 . S
C176 C178 1.384 . S
C177 C176 1.377 . S
C177 C183 1.390 . S
C178 H169 0.930 . S
C178 C176 1.384 . S
C178 C179 1.372 . S
C179 C178 1.372 . S
C179 C180 1.400 . S
C179 C184 1.490 . S
C180 H170 0.930 . S
C180 C179 1.400 . S
C180 C183 1.386 . S
H181 C197 0.930 1_556 S
H182 C198 0.931 . S
C183 H171 0.929 . S
C183 C177 1.390 . S
C183 C180 1.386 . S
C184 C179 1.490 . S
C184 C186 1.395 . S
C184 C187 1.403 . S
H185 C191 0.930 . S
C186 H172 0.930 . S
C186 C184 1.395 . S
C186 C189 1.403 . S
C187 C184 1.403 . S
C187 C188 1.524 . S
C187 C191 1.400 . S
C188 H173 0.960 . S
C188 H174 0.960 . S
C188 H175 0.960 . S
C188 C187 1.524 . S
C189 C186 1.403 . S
C189 C190 1.392 . S
C189 C193 1.495 . S
C190 C189 1.392 . S
C190 C191 1.385 . S
C190 C192 1.478 . S
C191 H185 0.930 . S
C191 C187 1.400 . S
C191 C190 1.385 . S
C192 C190 1.478 . S
C192 C194 1.381 . S
C192 C198 1.383 . S
C193 C189 1.495 . S
C193 H199 0.959 . S
C193 H200 0.961 . S
C193 H201 0.960 . S
C194 C192 1.381 . S
C194 C195 1.394 . S
C194 H202 0.930 . S
C195 C194 1.394 . S
C195 C196 1.383 1_554 S
C195 H203 0.929 1_554 S
C196 C195 1.383 1_556 S
C196 C197 1.377 1_556 S
C197 H181 0.930 1_554 S
C197 C196 1.377 1_554 S
C197 C198 1.379 . S
C198 H182 0.931 . S
C198 C192 1.383 . S
C198 C197 1.379 . S
H199 C193 0.959 . S
H200 C193 0.961 . S
H201 C193 0.960 . S
H202 C194 0.930 . S
H203 C195 0.929 1_556 S
H204 C212 0.929 . S
H205 C214 0.930 . S
H206 C216 0.930 . S
H207 C219 0.929 . S
H208 C222 0.930 . S
H209 C224 0.960 . S
H210 C224 0.960 . S
H211 C224 0.960 . S
C212 H204 0.929 . S
C212 C213 1.377 . S
C212 C214 1.384 . S
C213 C212 1.377 . S
C213 C219 1.390 . S
C214 H205 0.930 . S
C214 C212 1.384 . S
C214 C215 1.372 . S
C215 C214 1.372 . S
C215 C216 1.400 . S
C215 C220 1.490 . S
C216 H206 0.930 . S
C216 C215 1.400 . S
C216 C219 1.386 . S
H217 C233 0.930 . S
H218 C234 0.931 . S
C219 H207 0.929 . S
C219 C213 1.390 . S
C219 C216 1.386 . S
C220 C215 1.490 . S
C220 C222 1.395 . S
C220 C223 1.403 . S
H221 C227 0.930 . S
C222 H208 0.930 . S
C222 C220 1.395 . S
C222 C225 1.403 . S
C223 C220 1.403 . S
C223 C224 1.524 . S
C223 C227 1.400 . S
C224 H209 0.960 . S
C224 H210 0.960 . S
C224 H211 0.960 . S
C224 C223 1.524 . S
C225 C222 1.403 . S
C225 C226 1.392 . S
C225 C229 1.495 . S
C226 C225 1.392 . S
C226 C227 1.385 . S
C226 C228 1.478 . S
C227 H221 0.930 . S
C227 C223 1.400 . S
C227 C226 1.385 . S
C228 C226 1.478 . S
C228 C230 1.381 . S
C228 C234 1.383 . S
C229 C225 1.495 . S
C229 H235 0.959 . S
C229 H236 0.961 . S
C229 H237 0.960 . S
C230 C228 1.381 . S
C230 C231 1.394 . S
C230 H238 0.930 . S
C231 C230 1.394 . S
C231 C232 1.383 . S
C231 H239 0.929 . S
C232 C231 1.383 . S
C232 C233 1.377 . S
C233 H217 0.930 . S
C233 C232 1.377 . S
C233 C234 1.379 . S
C234 H218 0.931 . S
C234 C228 1.383 . S
C234 C233 1.379 . S
H235 C229 0.959 . S
H236 C229 0.961 . S
H237 C229 0.960 . S
H238 C230 0.930 . S
H239 C231 0.929 . S
H240 C248 0.929 . S
H241 C250 0.930 . S
H242 C252 0.930 . S
H243 C255 0.929 . S
H244 C258 0.930 . S
H245 C260 0.960 . S
H246 C260 0.960 . S
H247 C260 0.960 . S
C248 H240 0.929 . S
C248 C249 1.377 . S
C248 C250 1.384 . S
C249 C248 1.377 . S
C249 C255 1.390 . S
C250 H241 0.930 . S
C250 C248 1.384 . S
C250 C251 1.372 . S
C251 C250 1.372 . S
C251 C252 1.400 . S
C251 C256 1.490 . S
C252 H242 0.930 . S
C252 C251 1.400 . S
C252 C255 1.386 . S
H253 C269 0.930 . S
H254 C270 0.931 . S
C255 H243 0.929 . S
C255 C249 1.390 . S
C255 C252 1.386 . S
C256 C251 1.490 . S
C256 C258 1.395 . S
C256 C259 1.403 . S
H257 C263 0.930 . S
C258 H244 0.930 . S
C258 C256 1.395 . S
C258 C261 1.403 . S
C259 C256 1.403 . S
C259 C260 1.524 . S
C259 C263 1.400 . S
C260 H245 0.960 . S
C260 H246 0.960 . S
C260 H247 0.960 . S
C260 C259 1.524 . S
C261 C258 1.403 . S
C261 C262 1.392 . S
C261 C265 1.495 . S
C262 C261 1.392 . S
C262 C263 1.385 . S
C262 C264 1.478 . S
C263 H257 0.930 . S
C263 C259 1.400 . S
C263 C262 1.385 . S
C264 C262 1.478 . S
C264 C266 1.381 . S
C264 C270 1.383 . S
C265 C261 1.495 . S
C265 H271 0.959 . S
C265 H272 0.961 . S
C265 H273 0.960 . S
C266 C264 1.381 . S
C266 C267 1.394 . S
C266 H274 0.930 . S
C267 C266 1.394 . S
C267 C268 1.383 . S
C267 H275 0.929 . S
C268 C267 1.383 . S
C268 C269 1.377 . S
C269 H253 0.930 . S
C269 C268 1.377 . S
C269 C270 1.379 . S
C270 H254 0.931 . S
C270 C264 1.383 . S
C270 C269 1.379 . S
H271 C265 0.959 . S
H272 C265 0.961 . S
H273 C265 0.960 . S
H274 C266 0.930 . S
H275 C267 0.929 . S
H276 C284 0.929 . S
H277 C286 0.930 . S
H278 C288 0.930 . S
H279 C291 0.929 . S
H280 C294 0.930 . S
H281 C296 0.960 . S
H282 C296 0.960 . S
H283 C296 0.960 . S
C284 H276 0.929 . S
C284 C285 1.377 . S
C284 C286 1.384 . S
C285 C284 1.377 . S
C285 C291 1.390 . S
C286 H277 0.930 . S
C286 C284 1.384 . S
C286 C287 1.372 . S
C287 C286 1.372 . S
C287 C288 1.400 . S
C287 C292 1.490 . S
C288 H278 0.930 . S
C288 C287 1.400 . S
C288 C291 1.386 . S
H289 C305 0.930 1_554 S
H290 C306 0.931 . S
C291 H279 0.929 . S
C291 C285 1.390 . S
C291 C288 1.386 . S
C292 C287 1.490 . S
C292 C294 1.395 . S
C292 C295 1.403 . S
H293 C299 0.930 . S
C294 H280 0.930 . S
C294 C292 1.395 . S
C294 C297 1.403 . S
C295 C292 1.403 . S
C295 C296 1.524 . S
C295 C299 1.400 . S
C296 H281 0.960 . S
C296 H282 0.960 . S
C296 H283 0.960 . S
C296 C295 1.524 . S
C297 C294 1.403 . S
C297 C298 1.392 . S
C297 C301 1.495 . S
C298 C297 1.392 . S
C298 C299 1.385 . S
C298 C300 1.478 . S
C299 H293 0.930 . S
C299 C295 1.400 . S
C299 C298 1.385 . S
C300 C298 1.478 . S
C300 C302 1.381 . S
C300 C306 1.383 . S
C301 C297 1.495 . S
C301 H307 0.959 . S
C301 H308 0.961 . S
C301 H309 0.960 . S
C302 C300 1.381 . S
C302 C303 1.394 . S
C302 H310 0.930 . S
C303 C302 1.394 . S
C303 C304 1.383 1_556 S
C303 H311 0.929 1_556 S
C304 C303 1.383 1_554 S
C304 C305 1.377 1_554 S
C305 H289 0.930 1_556 S
C305 C304 1.377 1_556 S
C305 C306 1.379 . S
C306 H290 0.931 . S
C306 C300 1.383 . S
C306 C305 1.379 . S
H307 C301 0.959 . S
H308 C301 0.961 . S
H309 C301 0.960 . S
H310 C302 0.930 . S
H311 C303 0.929 1_554 S
H312 C320 0.929 . S
H313 C322 0.930 . S
H314 C324 0.930 . S
H315 C327 0.929 . S
H316 C330 0.930 . S
H317 C332 0.960 . S
H318 C332 0.960 . S
H319 C332 0.960 1_554 S
C320 H312 0.929 . S
C320 C321 1.377 . S
C320 C322 1.384 . S
C321 C320 1.377 . S
C321 C327 1.390 . S
C322 H313 0.930 . S
C322 C320 1.384 . S
C322 C323 1.372 . S
C323 C322 1.372 . S
C323 C324 1.400 . S
C323 C328 1.490 1_554 S
C324 H314 0.930 . S
C324 C323 1.400 . S
C324 C327 1.386 . S
H325 C341 0.930 . S
H326 C342 0.931 . S
C327 H315 0.929 . S
C327 C321 1.390 . S
C327 C324 1.386 . S
C328 C323 1.490 1_556 S
C328 C330 1.395 . S
C328 C331 1.403 . S
H329 C335 0.930 . S
C330 H316 0.930 . S
C330 C328 1.395 . S
C330 C333 1.403 . S
C331 C328 1.403 . S
C331 C332 1.524 . S
C331 C335 1.400 . S
C332 H317 0.960 . S
C332 H318 0.960 . S
C332 H319 0.960 1_556 S
C332 C331 1.524 . S
C333 C330 1.403 . S
C333 C334 1.392 . S
C333 C337 1.495 . S
C334 C333 1.392 . S
C334 C335 1.385 . S
C334 C336 1.478 . S
C335 H329 0.930 . S
C335 C331 1.400 . S
C335 C334 1.385 . S
C336 C334 1.478 . S
C336 C338 1.381 . S
C336 C342 1.383 . S
C337 C333 1.495 . S
C337 H343 0.959 . S
C337 H344 0.961 . S
C337 H345 0.960 . S
C338 C336 1.381 . S
C338 C339 1.394 . S
C338 H346 0.930 . S
C339 C338 1.394 . S
C339 C340 1.383 . S
C339 H347 0.929 . S
C340 C339 1.383 . S
C340 C341 1.377 . S
C341 H325 0.930 . S
C341 C340 1.377 . S
C341 C342 1.379 . S
C342 H326 0.931 . S
C342 C336 1.383 . S
C342 C341 1.379 . S
H343 C337 0.959 . S
H344 C337 0.961 . S
H345 C337 0.960 . S
H346 C338 0.930 . S
H347 C339 0.929 . S
H348 C356 0.929 . S
H349 C358 0.930 . S
H350 C360 0.930 . S
H351 C363 0.929 . S
H352 C366 0.930 . S
H353 C368 0.960 1_565 S
H354 C368 0.960 . S
H355 C368 0.960 . S
C356 H348 0.929 . S
C356 C357 1.377 . S
C356 C358 1.384 . S
C357 C356 1.377 . S
C357 C363 1.390 . S
C358 H349 0.930 . S
C358 C356 1.384 . S
C358 C359 1.372 . S
C359 C358 1.372 . S
C359 C360 1.400 . S
C359 C364 1.490 . S
C360 H350 0.930 . S
C360 C359 1.400 . S
C360 C363 1.386 . S
H361 C377 0.930 . S
H362 C378 0.931 . S
C363 H351 0.929 . S
C363 C357 1.390 . S
C363 C360 1.386 . S
C364 C359 1.490 . S
C364 C366 1.395 . S
C364 C367 1.403 . S
H365 C371 0.930 . S
C366 H352 0.930 . S
C366 C364 1.395 . S
C366 C369 1.403 1_545 S
C367 C364 1.403 . S
C367 C368 1.524 . S
C367 C371 1.400 1_545 S
C368 H353 0.960 1_545 S
C368 H354 0.960 . S
C368 H355 0.960 . S
C368 C367 1.524 . S
C369 C366 1.403 1_565 S
C369 C370 1.392 . S
C369 C373 1.495 . S
C370 C369 1.392 . S
C370 C371 1.385 . S
C370 C372 1.478 . S
C371 H365 0.930 . S
C371 C367 1.400 1_565 S
C371 C370 1.385 . S
C372 C370 1.478 . S
C372 C374 1.381 . S
C372 C378 1.383 . S
C373 C369 1.495 . S
C373 H379 0.959 1_565 S
C373 H380 0.961 . S
C373 H381 0.960 . S
C374 C372 1.381 . S
C374 C375 1.394 . S
C374 H382 0.930 . S
C375 C374 1.394 . S
C375 C376 1.383 . S
C375 H383 0.929 . S
C376 C375 1.383 . S
C376 C377 1.377 . S
C377 H361 0.930 . S
C377 C376 1.377 . S
C377 C378 1.379 . S
C378 H362 0.931 . S
C378 C372 1.383 . S
C378 C377 1.379 . S
H379 C373 0.959 1_545 S
H380 C373 0.961 . S
H381 C373 0.960 . S
H382 C374 0.930 . S
H383 C375 0.929 . S
H384 C392 0.929 . S
H385 C394 0.930 . S
H386 C396 0.930 . S
H387 C399 0.929 . S
H388 C402 0.930 . S
H389 C404 0.960 . S
H390 C404 0.960 . S
H391 C404 0.960 . S
C392 H384 0.929 . S
C392 C393 1.377 . S
C392 C394 1.384 . S
C393 C392 1.377 . S
C393 C399 1.390 . S
C394 H385 0.930 . S
C394 C392 1.384 . S
C394 C395 1.372 . S
C395 C394 1.372 . S
C395 C396 1.400 . S
C395 C400 1.490 . S
C396 H386 0.930 . S
C396 C395 1.400 . S
C396 C399 1.386 . S
H397 C413 0.930 . S
H398 C414 0.931 . S
C399 H387 0.929 . S
C399 C393 1.390 . S
C399 C396 1.386 . S
C400 C395 1.490 . S
C400 C402 1.395 . S
C400 C403 1.403 . S
H401 C407 0.930 . S
C402 H388 0.930 . S
C402 C400 1.395 . S
C402 C405 1.403 . S
C403 C400 1.403 . S
C403 C404 1.524 . S
C403 C407 1.400 . S
C404 H389 0.960 . S
C404 H390 0.960 . S
C404 H391 0.960 . S
C404 C403 1.524 . S
C405 C402 1.403 . S
C405 C406 1.392 . S
C405 C409 1.495 . S
C406 C405 1.392 . S
C406 C407 1.385 . S
C406 C408 1.478 . S
C407 H401 0.930 . S
C407 C403 1.400 . S
C407 C406 1.385 . S
C408 C406 1.478 . S
C408 C410 1.381 . S
C408 C414 1.383 . S
C409 C405 1.495 . S
C409 H415 0.959 . S
C409 H416 0.961 . S
C409 H417 0.960 . S
C410 C408 1.381 . S
C410 C411 1.394 . S
C410 H418 0.930 . S
C411 C410 1.394 . S
C411 C412 1.383 . S
C411 H419 0.929 . S
C412 C411 1.383 . S
C412 C413 1.377 . S
C413 H397 0.930 . S
C413 C412 1.377 . S
C413 C414 1.379 . S
C414 H398 0.931 . S
C414 C408 1.383 . S
C414 C413 1.379 . S
H415 C409 0.959 . S
H416 C409 0.961 . S
H417 C409 0.960 . S
H418 C410 0.930 . S
H419 C411 0.929 . S
H420 C428 0.929 . S
H421 C430 0.930 . S
H422 C432 0.930 . S
H423 C435 0.929 . S
H424 C438 0.930 . S
H425 C440 0.939 1_455 S
H426 C440 0.960 . S
H427 C440 0.960 . S
C428 H420 0.929 . S
C428 C429 1.377 . S
C428 C430 1.384 . S
C429 C428 1.377 . S
C429 C435 1.390 . S
C430 H421 0.930 . S
C430 C428 1.384 . S
C430 C431 1.372 . S
C431 C430 1.372 . S
C431 C432 1.400 . S
C431 C436 1.490 . S
C432 H422 0.930 . S
C432 C431 1.400 . S
C432 C435 1.386 . S
H433 C449 0.930 . S
H434 C450 0.931 . S
C435 H423 0.929 . S
C435 C429 1.390 . S
C435 C432 1.386 . S
C436 C431 1.490 . S
C436 C438 1.395 . S
C436 C439 1.403 . S
H437 C443 0.930 . S
C438 H424 0.930 . S
C438 C436 1.395 . S
C438 C441 1.403 1_655 S
C439 C436 1.403 . S
C439 C440 1.524 . S
C439 C443 1.400 1_655 S
C440 H425 0.939 1_655 S
C440 H426 0.960 . S
C440 H427 0.960 . S
C440 C439 1.524 . S
C441 C438 1.403 1_455 S
C441 C442 1.392 . S
C441 C445 1.495 . S
C442 C441 1.392 . S
C442 C443 1.385 . S
C442 C444 1.478 . S
C443 H437 0.930 . S
C443 C439 1.400 1_455 S
C443 C442 1.385 . S
C444 C442 1.478 . S
C444 C446 1.381 . S
C444 C450 1.383 . S
C445 C441 1.495 . S
C445 H451 0.954 1_455 S
C445 H452 0.961 . S
C445 H453 0.960 . S
C446 C444 1.381 . S
C446 C447 1.394 . S
C446 H454 0.930 . S
C447 C446 1.394 . S
C447 C448 1.383 . S
C447 H455 0.929 . S
C448 C447 1.383 . S
C448 C449 1.377 . S
C449 H433 0.930 . S
C449 C448 1.377 . S
C449 C450 1.379 . S
C450 H434 0.931 . S
C450 C444 1.383 . S
C450 C449 1.379 . S
H451 C445 0.954 1_655 S
H452 C445 0.961 . S
H453 C445 0.960 . S
H454 C446 0.930 . S
H455 C447 0.929 . S
H456 C464 0.929 . S
H457 C466 0.930 . S
H458 C468 0.930 . S
H459 C471 0.929 1_556 S
H460 C474 0.930 . S
H461 C476 0.960 . S
H462 C476 0.960 . S
H463 C476 0.960 . S
C464 H456 0.929 . S
C464 C465 1.377 . S
C464 C466 1.384 . S
C465 C464 1.377 . S
C465 C471 1.390 . S
C466 H457 0.930 . S
C466 C464 1.384 . S
C466 C467 1.372 . S
C467 C466 1.372 . S
C467 C468 1.400 1_554 S
C467 C472 1.490 . S
C468 H458 0.930 . S
C468 C467 1.400 1_556 S
C468 C471 1.386 1_556 S
H469 C485 0.930 . S
H470 C486 0.931 . S
C471 H459 0.929 1_554 S
C471 C465 1.390 . S
C471 C468 1.386 1_554 S
C472 C467 1.490 . S
C472 C474 1.395 . S
C472 C475 1.403 1_554 S
H473 C479 0.930 . S
C474 H460 0.930 . S
C474 C472 1.395 . S
C474 C477 1.403 1_565 S
C475 C472 1.403 1_556 S
C475 C476 1.524 . S
C475 C479 1.400 1_565 S
C476 H461 0.960 . S
C476 H462 0.960 . S
C476 H463 0.960 . S
C476 C475 1.524 . S
C477 C474 1.403 1_545 S
C477 C478 1.392 1_554 S
C477 C481 1.495 . S
C478 C477 1.392 1_556 S
C478 C479 1.385 . S
C478 C480 1.478 . S
C479 H473 0.930 . S
C479 C475 1.400 1_545 S
C479 C478 1.385 . S
C480 C478 1.478 . S
C480 C482 1.381 1_556 S
C480 C486 1.383 . S
C481 C477 1.495 . S
C481 H487 0.959 . S
C481 H488 0.961 . S
C481 H489 0.960 . S
C482 C480 1.381 1_554 S
C482 C483 1.396 . S
C482 H490 0.930 . S
C483 C482 1.396 . S
C483 C484 1.378 1_554 S
C483 H491 0.933 . S
C484 C483 1.378 1_556 S
C484 C485 1.377 . S
C485 H469 0.930 . S
C485 C484 1.377 . S
C485 C486 1.379 . S
C486 H470 0.931 . S
C486 C480 1.383 . S
C486 C485 1.379 . S
H487 C481 0.959 . S
H488 C481 0.961 . S
H489 C481 0.960 . S
H490 C482 0.930 . S
H491 C483 0.933 . S
H492 C500 0.929 . S
H493 C502 0.930 . S
H494 C504 0.930 . S
H495 C507 0.929 . S
H496 C510 0.930 . S
H497 C512 0.960 . S
H498 C512 0.960 . S
H499 C512 0.960 . S
C500 H492 0.929 . S
C500 C501 1.377 . S
C500 C502 1.384 . S
C501 C500 1.377 . S
C501 C507 1.390 . S
C502 H493 0.930 . S
C502 C500 1.384 . S
C502 C503 1.372 . S
C503 C502 1.372 . S
C503 C504 1.400 . S
C503 C508 1.490 . S
C504 H494 0.930 . S
C504 C503 1.400 . S
C504 C507 1.386 . S
H505 C521 0.930 . S
H506 C522 0.931 . S
C507 H495 0.929 . S
C507 C501 1.390 . S
C507 C504 1.386 . S
C508 C503 1.490 . S
C508 C510 1.395 . S
C508 C511 1.403 . S
H509 C515 0.930 . S
C510 H496 0.930 . S
C510 C508 1.395 . S
C510 C513 1.403 . S
C511 C508 1.403 . S
C511 C512 1.524 . S
C511 C515 1.400 . S
C512 H497 0.960 . S
C512 H498 0.960 . S
C512 H499 0.960 . S
C512 C511 1.524 . S
C513 C510 1.403 . S
C513 C514 1.392 . S
C513 C517 1.495 . S
C514 C513 1.392 . S
C514 C515 1.385 . S
C514 C516 1.478 . S
C515 H509 0.930 . S
C515 C511 1.400 . S
C515 C514 1.385 . S
C516 C514 1.478 . S
C516 C518 1.381 . S
C516 C522 1.383 . S
C517 C513 1.495 . S
C517 H523 0.959 . S
C517 H524 0.961 . S
C517 H525 0.960 . S
C518 C516 1.381 . S
C518 C519 1.394 . S
C518 H526 0.930 . S
C519 C518 1.394 . S
C519 C520 1.383 . S
C519 H527 0.929 . S
C520 C519 1.383 . S
C520 C521 1.377 . S
C521 H505 0.930 . S
C521 C520 1.377 . S
C521 C522 1.379 . S
C522 H506 0.931 . S
C522 C516 1.383 . S
C522 C521 1.379 . S
H523 C517 0.959 . S
H524 C517 0.961 . S
H525 C517 0.960 . S
H526 C518 0.930 . S
H527 C519 0.929 . S
H528 C536 0.929 . S
H529 C538 0.930 . S
H530 C540 0.930 . S
H531 C543 0.929 . S
H532 C546 0.930 . S
H533 C548 0.960 . S
H534 C548 0.960 . S
H535 C548 0.960 . S
C536 H528 0.929 . S
C536 C537 1.377 . S
C536 C538 1.384 . S
C537 C536 1.377 . S
C537 C543 1.390 . S
C538 H529 0.930 . S
C538 C536 1.384 . S
C538 C539 1.372 . S
C539 C538 1.372 . S
C539 C540 1.400 . S
C539 C544 1.490 . S
C540 H530 0.930 . S
C540 C539 1.400 . S
C540 C543 1.386 . S
H541 C557 0.930 . S
H542 C558 0.931 . S
C543 H531 0.929 . S
C543 C537 1.390 . S
C543 C540 1.386 . S
C544 C539 1.490 . S
C544 C546 1.395 . S
C544 C547 1.403 . S
H545 C551 0.930 . S
C546 H532 0.930 . S
C546 C544 1.395 . S
C546 C549 1.403 1_655 S
C547 C544 1.403 . S
C547 C548 1.524 . S
C547 C551 1.400 1_655 S
C548 H533 0.960 . S
C548 H534 0.960 . S
C548 H535 0.960 . S
C548 C547 1.524 . S
C549 C546 1.403 1_455 S
C549 C550 1.392 . S
C549 C553 1.495 . S
C550 C549 1.392 . S
C550 C551 1.385 . S
C550 C552 1.478 . S
C551 H545 0.930 . S
C551 C547 1.400 1_455 S
C551 C550 1.385 . S
C552 C550 1.478 . S
C552 C554 1.381 . S
C552 C558 1.383 . S
C553 C549 1.495 . S
C553 H559 0.959 . S
C553 H560 0.961 . S
C553 H561 0.960 . S
C554 C552 1.381 . S
C554 C555 1.394 . S
C554 H562 0.930 . S
C555 C554 1.394 . S
C555 C556 1.383 . S
C555 H563 0.929 . S
C556 C555 1.383 . S
C556 C557 1.377 . S
C557 H541 0.930 . S
C557 C556 1.377 . S
C557 C558 1.379 . S
C558 H542 0.931 . S
C558 C552 1.383 . S
C558 C557 1.379 . S
H559 C553 0.959 . S
H560 C553 0.961 . S
H561 C553 0.960 . S
H562 C554 0.930 . S
H563 C555 0.929 . S
H564 C572 0.929 . S
H565 C574 0.930 . S
H566 C576 0.930 . S
H567 C579 0.929 . S
H568 C582 0.930 . S
H569 C584 0.960 . S
H570 C584 0.960 . S
H571 C584 0.960 . S
C572 H564 0.929 . S
C572 C573 1.377 . S
C572 C574 1.384 . S
C573 C572 1.377 . S
C573 C579 1.390 . S
C574 H565 0.930 . S
C574 C572 1.384 . S
C574 C575 1.372 . S
C575 C574 1.372 . S
C575 C576 1.400 . S
C575 C580 1.490 . S
C576 H566 0.930 . S
C576 C575 1.400 . S
C576 C579 1.386 . S
H577 C593 0.930 . S
H578 C594 0.931 . S
C579 H567 0.929 . S
C579 C573 1.390 . S
C579 C576 1.386 . S
C580 C575 1.490 . S
C580 C582 1.395 . S
C580 C583 1.403 . S
H581 C587 0.930 . S
C582 H568 0.930 . S
C582 C580 1.395 . S
C582 C585 1.403 . S
C583 C580 1.403 . S
C583 C584 1.524 . S
C583 C587 1.400 . S
C584 H569 0.960 . S
C584 H570 0.960 . S
C584 H571 0.960 . S
C584 C583 1.524 . S
C585 C582 1.403 . S
C585 C586 1.392 . S
C585 C589 1.495 . S
C586 C585 1.392 . S
C586 C587 1.385 . S
C586 C588 1.478 . S
C587 H581 0.930 . S
C587 C583 1.400 . S
C587 C586 1.385 . S
C588 C586 1.478 . S
C588 C590 1.381 . S
C588 C594 1.383 . S
C589 C585 1.495 . S
C589 H595 0.959 . S
C589 H596 0.961 . S
C589 H597 0.960 . S
C590 C588 1.381 . S
C590 C591 1.394 . S
C590 H598 0.930 . S
C591 C590 1.394 . S
C591 C592 1.383 . S
C591 H599 0.929 . S
C592 C591 1.383 . S
C592 C593 1.377 . S
C593 H577 0.930 . S
C593 C592 1.377 . S
C593 C594 1.379 . S
C594 H578 0.931 . S
C594 C588 1.383 . S
C594 C593 1.379 . S
H595 C589 0.959 . S
H596 C589 0.961 . S
H597 C589 0.960 . S
H598 C590 0.930 . S
H599 C591 0.929 . S
H600 C608 0.929 . S
H601 C610 0.930 . S
H602 C612 0.930 . S
H603 C615 0.929 . S
H604 C618 0.930 . S
H605 C620 0.960 . S
H606 C620 0.960 . S
H607 C620 0.960 . S
C608 H600 0.929 . S
C608 C609 1.377 . S
C608 C610 1.384 . S
C609 C608 1.377 . S
C609 C615 1.390 . S
C610 H601 0.930 . S
C610 C608 1.384 . S
C610 C611 1.372 . S
C611 C610 1.372 . S
C611 C612 1.400 . S
C611 C616 1.490 . S
C612 H602 0.930 . S
C612 C611 1.400 . S
C612 C615 1.386 . S
H613 C629 0.930 . S
H614 C630 0.931 . S
C615 H603 0.929 . S
C615 C609 1.390 . S
C615 C612 1.386 . S
C616 C611 1.490 . S
C616 C618 1.395 . S
C616 C619 1.403 . S
H617 C623 0.930 . S
C618 H604 0.930 . S
C618 C616 1.395 . S
C618 C621 1.403 . S
C619 C616 1.403 . S
C619 C620 1.524 . S
C619 C623 1.400 . S
C620 H605 0.960 . S
C620 H606 0.960 . S
C620 H607 0.960 . S
C620 C619 1.524 . S
C621 C618 1.403 . S
C621 C622 1.392 . S
C621 C625 1.495 . S
C622 C621 1.392 . S
C622 C623 1.385 . S
C622 C624 1.478 . S
C623 H617 0.930 . S
C623 C619 1.400 . S
C623 C622 1.385 . S
C624 C622 1.478 . S
C624 C626 1.381 . S
C624 C630 1.383 . S
C625 C621 1.495 . S
C625 H631 0.959 . S
C625 H632 0.961 . S
C625 H633 0.960 . S
C626 C624 1.381 . S
C626 C627 1.394 . S
C626 H634 0.930 . S
C627 C626 1.394 . S
C627 C628 1.383 . S
C627 H635 0.929 . S
C628 C627 1.383 . S
C628 C629 1.377 . S
C629 H613 0.930 . S
C629 C628 1.377 . S
C629 C630 1.379 . S
C630 H614 0.931 . S
C630 C624 1.383 . S
C630 C629 1.379 . S
H631 C625 0.959 . S
H632 C625 0.961 . S
H633 C625 0.960 . S
H634 C626 0.930 . S
H635 C627 0.929 . S
H636 C644 0.929 . S
H637 C646 0.930 . S
H638 C648 0.930 . S
H639 C651 0.929 . S
H640 C654 0.930 . S
H641 C656 0.960 . S
H642 C656 0.960 . S
H643 C656 0.960 . S
C644 H636 0.929 . S
C644 C645 1.377 . S
C644 C646 1.384 . S
C645 C644 1.377 . S
C645 C651 1.390 . S
C646 H637 0.930 . S
C646 C644 1.384 . S
C646 C647 1.372 . S
C647 C646 1.372 . S
C647 C648 1.400 . S
C647 C652 1.490 . S
C648 H638 0.930 . S
C648 C647 1.400 . S
C648 C651 1.386 . S
H649 C665 0.930 . S
H650 C666 0.931 . S
C651 H639 0.929 . S
C651 C645 1.390 . S
C651 C648 1.386 . S
C652 C647 1.490 . S
C652 C654 1.395 . S
C652 C655 1.403 . S
H653 C659 0.930 . S
C654 H640 0.930 . S
C654 C652 1.395 . S
C654 C657 1.403 . S
C655 C652 1.403 . S
C655 C656 1.524 . S
C655 C659 1.400 . S
C656 H641 0.960 . S
C656 H642 0.960 . S
C656 H643 0.960 . S
C656 C655 1.524 . S
C657 C654 1.403 . S
C657 C658 1.392 . S
C657 C661 1.495 . S
C658 C657 1.392 . S
C658 C659 1.385 . S
C658 C660 1.478 . S
C659 H653 0.930 . S
C659 C655 1.400 . S
C659 C658 1.385 . S
C660 C658 1.478 . S
C660 C662 1.381 . S
C660 C666 1.383 . S
C661 C657 1.495 . S
C661 H667 0.959 . S
C661 H668 0.961 . S
C661 H669 0.960 . S
C662 C660 1.381 . S
C662 C663 1.394 . S
C662 H670 0.930 . S
C663 C662 1.394 . S
C663 C664 1.383 . S
C663 H671 0.929 . S
C664 C663 1.383 . S
C664 C665 1.377 . S
C665 H649 0.930 . S
C665 C664 1.377 . S
C665 C666 1.379 . S
C666 H650 0.931 . S
C666 C660 1.383 . S
C666 C665 1.379 . S
H667 C661 0.959 . S
H668 C661 0.961 . S
H669 C661 0.960 . S
H670 C662 0.930 . S
H671 C663 0.929 . S
H672 C680 0.929 . S
H673 C682 0.930 . S
H674 C684 0.930 1_554 S
H675 C687 0.929 . S
H676 C690 0.930 . S
H677 C692 0.960 . S
H678 C692 0.960 . S
H679 C692 0.960 . S
C680 H672 0.929 . S
C680 C681 1.377 . S
C680 C682 1.384 . S
C681 C680 1.377 . S
C681 C687 1.390 1_556 S
C682 H673 0.930 . S
C682 C680 1.384 . S
C682 C683 1.372 . S
C683 C682 1.372 . S
C683 C684 1.400 . S
C683 C688 1.490 . S
C684 H674 0.930 1_556 S
C684 C683 1.400 . S
C684 C687 1.386 1_556 S
H685 C701 0.930 . S
H686 C702 0.931 . S
C687 H675 0.929 . S
C687 C681 1.390 1_554 S
C687 C684 1.386 1_554 S
C688 C683 1.490 . S
C688 C690 1.395 . S
C688 C691 1.403 . S
H689 C695 0.930 . S
C690 H676 0.930 . S
C690 C688 1.395 . S
C690 C693 1.403 . S
C691 C688 1.403 . S
C691 C692 1.524 . S
C691 C695 1.400 . S
C692 H677 0.960 . S
C692 H678 0.960 . S
C692 H679 0.960 . S
C692 C691 1.524 . S
C693 C690 1.403 . S
C693 C694 1.392 . S
C693 C697 1.495 . S
C694 C693 1.392 . S
C694 C695 1.385 . S
C694 C696 1.478 . S
C695 H689 0.930 . S
C695 C691 1.400 . S
C695 C694 1.385 . S
C696 C694 1.478 . S
C696 C698 1.381 . S
C696 C702 1.383 . S
C697 C693 1.495 . S
C697 H703 0.959 . S
C697 H704 0.961 . S
C697 H705 0.960 . S
C698 C696 1.381 . S
C698 C699 1.394 . S
C698 H706 0.930 . S
C699 C698 1.394 . S
C699 C700 1.383 . S
C699 H707 0.929 . S
C700 C699 1.383 . S
C700 C701 1.377 . S
C701 H685 0.930 . S
C701 C700 1.377 . S
C701 C702 1.379 . S
C702 H686 0.931 . S
C702 C696 1.383 . S
C702 C701 1.379 . S
H703 C697 0.959 . S
H704 C697 0.961 . S
H705 C697 0.960 . S
H706 C698 0.930 . S
H707 C699 0.929 . S
H708 C716 0.929 . S
H709 C718 0.930 . S
H710 C720 0.930 . S
H711 C723 0.929 . S
H712 C726 0.939 . S
H713 C728 0.960 . S
H714 C728 0.960 . S
H715 C728 0.960 . S
C716 H708 0.929 . S
C716 C717 1.377 . S
C716 C718 1.384 . S
C717 C716 1.377 . S
C717 C723 1.390 . S
C718 H709 0.930 . S
C718 C716 1.384 . S
C718 C719 1.372 . S
C719 C718 1.372 . S
C719 C720 1.400 . S
C719 C724 1.490 . S
C720 H710 0.930 . S
C720 C719 1.400 . S
C720 C723 1.386 . S
H721 C737 0.930 . S
H722 C738 0.931 . S
C723 H711 0.929 . S
C723 C717 1.390 . S
C723 C720 1.386 . S
C724 C719 1.490 . S
C724 C726 1.395 . S
C724 C727 1.403 . S
H725 C731 0.930 . S
C726 H712 0.939 . S
C726 C724 1.395 . S
C726 C729 1.403 . S
C727 C724 1.403 . S
C727 C728 1.524 . S
C727 C731 1.400 . S
C728 H713 0.960 . S
C728 H714 0.960 . S
C728 H715 0.960 . S
C728 C727 1.524 . S
C729 C726 1.403 . S
C729 C730 1.392 . S
C729 C733 1.495 1_554 S
C730 C729 1.392 . S
C730 C731 1.385 . S
C730 C732 1.478 . S
C731 H725 0.930 . S
C731 C727 1.400 . S
C731 C730 1.385 . S
C732 C730 1.478 . S
C732 C734 1.384 . S
C732 C738 1.383 . S
C733 C729 1.495 1_556 S
C733 H739 0.959 . S
C733 H740 0.961 . S
C733 H741 0.960 . S
C734 C732 1.384 . S
C734 C735 1.393 1_554 S
C734 H742 0.929 1_554 S
C735 C734 1.393 1_556 S
C735 C736 1.383 1_556 S
C735 H743 0.929 . S
C736 C735 1.383 1_554 S
C736 C737 1.377 . S
C737 H721 0.930 . S
C737 C736 1.377 . S
C737 C738 1.379 . S
C738 H722 0.931 . S
C738 C732 1.383 . S
C738 C737 1.379 . S
H739 C733 0.959 . S
H740 C733 0.961 . S
H741 C733 0.960 . S
H742 C734 0.929 1_556 S
H743 C735 0.929 . S
H744 C752 0.929 . S
H745 C754 0.930 . S
H746 C756 0.930 . S
H747 C759 0.929 . S
H748 C762 0.930 . S
H749 C764 0.960 . S
H750 C764 0.960 . S
H751 C764 0.960 . S
C752 H744 0.929 . S
C752 C753 1.377 . S
C752 C754 1.384 . S
C753 C752 1.377 . S
C753 C759 1.390 . S
C754 H745 0.930 . S
C754 C752 1.384 . S
C754 C755 1.372 . S
C755 C754 1.372 . S
C755 C756 1.400 . S
C755 C760 1.490 . S
C756 H746 0.930 . S
C756 C755 1.400 . S
C756 C759 1.386 . S
H757 C773 0.930 . S
H758 C774 0.931 . S
C759 H747 0.929 . S
C759 C753 1.390 . S
C759 C756 1.386 . S
C760 C755 1.490 . S
C760 C762 1.395 . S
C760 C763 1.403 . S
H761 C767 0.930 . S
C762 H748 0.930 . S
C762 C760 1.395 . S
C762 C765 1.403 . S
C763 C760 1.403 . S
C763 C764 1.524 . S
C763 C767 1.400 . S
C764 H749 0.960 . S
C764 H750 0.960 . S
C764 H751 0.960 . S
C764 C763 1.524 . S
C765 C762 1.403 . S
C765 C766 1.392 . S
C765 C769 1.495 . S
C766 C765 1.392 . S
C766 C767 1.385 . S
C766 C768 1.478 . S
C767 H761 0.930 . S
C767 C763 1.400 . S
C767 C766 1.385 . S
C768 C766 1.478 . S
C768 C770 1.381 . S
C768 C774 1.383 . S
C769 C765 1.495 . S
C769 H775 0.959 . S
C769 H776 0.961 . S
C769 H777 0.960 . S
C770 C768 1.381 . S
C770 C771 1.394 . S
C770 H778 0.930 . S
C771 C770 1.394 . S
C771 C772 1.383 . S
C771 H779 0.929 . S
C772 C771 1.383 . S
C772 C773 1.377 . S
C773 H757 0.930 . S
C773 C772 1.377 . S
C773 C774 1.379 . S
C774 H758 0.931 . S
C774 C768 1.383 . S
C774 C773 1.379 . S
H775 C769 0.959 . S
H776 C769 0.961 . S
H777 C769 0.960 . S
H778 C770 0.930 . S
H779 C771 0.929 . S
C141 C7 1.404 . S
C160 C6 1.432 . S
C177 C29 1.403 . S
C196 C28 1.396 . S
C213 C50 1.409 . S
C232 C51 1.377 . S
C249 C72 1.402 . S
C268 C73 1.429 . S
C285 C94 1.402 . S
C304 C95 1.426 . S
C321 C117 1.413 . S
C340 C116 1.401 . S
C357 C5 1.694 . S
C376 C119 1.709 . S
C393 C9 1.690 . S
C412 C27 1.702 . S
C429 C49 1.696 . S
C448 C31 1.702 . S
C465 C71 1.697 . S
C484 C53 1.669 . S
C501 C93 1.699 . S
C520 C75 1.680 . S
C537 C97 1.693 . S
C556 C115 1.676 . S
C573 C8 1.189 . S
C592 C92 1.205 . S
C609 C30 1.184 . S
C628 C114 1.158 . S
C645 C52 1.188 . S
C664 C4 1.202 . S
C681 C74 1.192 1_556 S
C700 C26 1.214 . S
C717 C96 1.182 . S
C736 C48 1.167 1_554 S
C753 C70 1.194 . S
C772 C118 1.208 . S
