# Generated by pormake.
# Topology sxb, (6)-cn, num edge types: 1
# Building blocks:
#     Node 0, Type 0, BuildingBlock: HISSIN_clean_sbu_0, # of connection points: 6
#     Node 1, Type 0, BuildingBlock: HISSIN_clean_sbu_0, # of connection points: 6
#     Node 2, Type 0, BuildingBlock: HISSIN_clean_sbu_0, # of connection points: 6
#     Node 3, Type 0, BuildingBlock: HISSIN_clean_sbu_0, # of connection points: 6
#     Edge 4, Type (0, 0), BuildingBlock: FUNLAD_clean_linker_0, # of connection points: 2
#     Edge 5, Type (0, 0), BuildingBlock: FUNLAD_clean_linker_0, # of connection points: 2
#     Edge 6, Type (0, 0), BuildingBlock: FUNLAD_clean_linker_0, # of connection points: 2
#     Edge 7, Type (0, 0), BuildingBlock: FUNLAD_clean_linker_0, # of connection points: 2
#     Edge 8, Type (0, 0), BuildingBlock: FUNLAD_clean_linker_0, # of connection points: 2
#     Edge 9, Type (0, 0), BuildingBlock: FUNLAD_clean_linker_0, # of connection points: 2
#     Edge 10, Type (0, 0), BuildingBlock: FUNLAD_clean_linker_0, # of connection points: 2
#     Edge 11, Type (0, 0), BuildingBlock: FUNLAD_clean_linker_0, # of connection points: 2
#     Edge 12, Type (0, 0), BuildingBlock: FUNLAD_clean_linker_0, # of connection points: 2
#     Edge 13, Type (0, 0), BuildingBlock: FUNLAD_clean_linker_0, # of connection points: 2
#     Edge 14, Type (0, 0), BuildingBlock: FUNLAD_clean_linker_0, # of connection points: 2
#     Edge 15, Type (0, 0), BuildingBlock: FUNLAD_clean_linker_0, # of connection points: 2
# Relax obj value: 0.330
# Max RMSD: 0.111
# Mean RMSD: 0.085
data_MOF--net-sxb--node1-HISSIN_clean_sbu_0--edge1-FUNLAD_clean_linker_0
_symmetry_space_group_name_H-M    P1
_symmetry_Int_Tables_number       1
_symmetry_cell_setting            triclinic
loop_
_symmetry_equiv_pos_as_xyz
'x, y, z'
_cell_length_a     18.403143
_cell_length_b     39.924163
_cell_length_c     35.842729
_cell_angle_alpha  100.02754
_cell_angle_beta   94.566427
_cell_angle_gamma 65.223192
loop_
_atom_site_label
_atom_site_type_symbol
_atom_site_fract_x
_atom_site_fract_y
_atom_site_fract_z
_atom_type_partial_charge
Eu0 Eu 1.04314 1.04534 0.01736 0.0
Eu1 Eu 0.21933 1.04608 0.01808 0.0
C2 C 0.1361 1.05082 0.09657 0.0
C3 C 0.83448 0.07511 0.98665 0.0
C4 C 0.85131 0.09988 0.96911 0.0
C5 C 0.70377 0.09538 0.95634 0.0
C6 C 0.79597 0.1214 0.94453 0.0
C7 C 0.76006 0.07325 0.98056 0.0
C8 C 0.72214 0.11905 0.93761 0.0
C9 C 0.89775 1.05003 0.009 0.0
O10 O 0.244 0.99028 0.03438 0.0
O11 O 0.13124 0.984 0.00874 0.0
C12 C 0.20481 0.96942 0.02234 0.0
O13 O 1.05911 1.05807 0.96059 0.0
O14 O 0.3439 1.01869 4e-05 0.0
O15 O 0.29812 0.07509 0.03068 0.0
O16 O 0.19373 1.02593 0.95782 0.0
C17 C 0.12489 1.04145 0.94086 0.0
O18 O 1.02182 0.10618 0.03305 0.0
O19 O 0.13153 0.10252 0.00439 0.0
O20 O 0.18453 1.06039 0.08001 0.0
O21 O 0.95774 1.02437 -0.01099 0.0
O22 O 0.92167 0.06664 0.03889 0.0
O23 O 1.08655 1.03829 0.07704 0.0
C24 C 0.37324 1.06222 0.97615 0.0
C25 C 0.31259 0.07666 0.94952 0.0
C26 C 0.46639 0.07049 0.93839 0.0
C27 C 0.32837 0.08811 0.91771 0.0
C28 C 0.45042 1.05896 0.97038 0.0
C29 C 0.40527 0.08535 0.91185 0.0
C30 C 0.35443 1.04946 0.00862 0.0
C31 C 1.06 0.12238 0.01889 0.0
H32 H 0.90819 0.10196 0.97375 0.0
H33 H 0.64719 0.09299 0.95112 0.0
H34 H 0.81116 0.13958 0.93058 0.0
H35 H 0.74626 1.05421 -0.00621 0.0
H36 H 0.25278 0.07898 0.95327 0.0
H37 H 0.52605 0.06846 0.93478 0.0
H38 H 0.28038 0.09899 0.89761 0.0
H39 H 0.49798 1.04764 -0.00947 0.0
Eu40 Eu 0.16499 1.00226 0.5087 0.0
Eu41 Eu 1.07677 0.09257 0.52733 0.0
C42 C 0.13579 1.04313 0.59393 0.0
C43 C 0.19476 0.90559 0.46567 0.0
C44 C 0.2012 0.87326 0.47843 0.0
C45 C 1.10251 0.89756 0.41626 0.0
C46 C 0.15628 0.85395 0.46112 0.0
C47 C 0.14692 0.91701 0.43376 0.0
C48 C 0.10427 0.86668 0.43067 0.0
C49 C 0.22778 0.9301 0.48893 0.0
O50 O 0.20925 0.08093 0.53369 0.0
O51 O 0.26682 1.01977 0.50499 0.0
C52 C 0.27249 1.05125 0.51964 0.0
O53 O 0.10325 1.02328 0.45545 0.0
O54 O 1.05388 0.14452 0.56575 0.0
O55 O 0.99441 0.14582 0.51099 0.0
O56 O 0.11785 0.07775 0.46657 0.0
C57 C 0.10895 1.05086 0.44273 0.0
O58 O 1.03548 1.01367 0.51976 0.0
O59 O 0.97213 0.07594 0.51462 0.0
O60 O 1.07571 0.07084 0.58127 0.0
O61 O 0.24211 0.95271 0.47137 0.0
O62 O 0.19196 0.9467 0.52126 0.0
O63 O 0.18908 1.01709 0.57053 0.0
C64 C 1.04158 0.19195 0.53282 0.0
C65 C 0.10555 0.1797 0.50775 0.0
C66 C 1.05047 0.25157 0.5496 0.0
C67 C 0.14266 0.20296 0.50408 0.0
C68 C 1.01317 0.22817 0.55324 0.0
C69 C 0.11668 0.23884 0.52557 0.0
C70 C 1.01182 0.16525 0.5407 0.0
C71 C 0.96925 1.04396 0.51705 0.0
H72 H 0.23721 0.86424 0.50319 0.0
H73 H 1.06399 0.90774 0.39255 0.0
H74 H 0.15834 0.8306 0.47334 0.0
H75 H 0.14054 0.94207 0.42347 0.0
H76 H 0.12904 0.15152 0.49222 0.0
H77 H 1.02897 0.27919 0.5663 0.0
H78 H 0.19439 0.19206 0.48589 0.0
H79 H 0.96422 0.23783 0.57293 0.0
Eu80 Eu 0.5242 0.54097 0.00804 0.0
Eu81 Eu 0.69478 0.54828 0.01902 0.0
C82 C 0.60257 0.54966 0.09232 0.0
C83 C 0.3289 0.55576 0.96202 0.0
C84 C 0.35238 0.57167 0.93587 0.0
C85 C 0.19924 0.57268 0.931 0.0
C86 C 0.29954 0.58823 0.90764 0.0
C87 C 0.25228 0.55615 0.95939 0.0
C88 C 0.22221 0.58914 0.90502 0.0
C89 C 0.38436 0.54009 -0.00752 0.0
O90 O 0.72546 0.48583 0.00903 0.0
O91 O 0.6075 0.48605 0.02568 0.0
C92 C 0.68434 0.4683 0.01834 0.0
O93 O 0.58195 0.52286 0.95044 0.0
O94 O 0.81821 0.5259 0.00039 0.0
O95 O 0.77284 0.57594 0.04199 0.0
O96 O 0.65117 0.55917 0.95999 0.0
C97 C 0.6182 0.54023 0.93696 0.0
O98 O 0.49929 0.59875 -0.00348 0.0
O99 O 0.60046 0.60773 0.03153 0.0
O100 O 0.67206 0.54177 0.07746 0.0
O101 O 0.45139 0.51205 0.98123 0.0
O102 O 0.39585 0.56474 0.01843 0.0
O103 O 0.53739 0.55509 0.07149 0.0
C104 C 0.85054 0.57508 -0.00845 0.0
C105 C 0.89257 0.55491 0.95805 0.0
C106 C 0.82778 0.63295 0.96921 0.0
C107 C 0.89901 0.57352 0.9298 0.0
C108 C 0.82033 0.61433 -0.00266 0.0
C109 C 0.86484 0.61268 0.93473 0.0
C110 C 0.82848 0.55539 0.01705 0.0
C111 C 0.53082 0.62119 0.01426 0.0
H112 H 0.41153 0.57156 0.93752 0.0
H113 H 0.13964 0.57337 0.92993 0.0
H114 H 0.31927 0.60027 0.88783 0.0
H115 H 0.23321 0.54414 0.97949 0.0
H116 H 0.91718 0.52467 0.95284 0.0
H117 H 0.80145 0.6632 0.97372 0.0
H118 H 0.92943 0.55729 0.90374 0.0
H119 H 0.7878 0.63078 0.02283 0.0
Eu120 Eu 0.65438 0.52539 0.51119 0.0
Eu121 Eu 0.58048 0.61617 0.5274 0.0
C122 C 0.61566 0.57019 0.59707 0.0
C123 C 0.67135 0.42807 0.50228 0.0
C124 C 0.60629 0.44159 0.52691 0.0
C125 C 0.65004 0.37177 0.48147 0.0
C126 C 0.56264 0.42064 0.52844 0.0
C127 C 0.6938 0.39289 0.47992 0.0
C128 C 0.58322 0.38577 0.50532 0.0
C129 C 0.70896 0.45268 0.49697 0.0
O130 O 0.71531 0.5989 0.53507 0.0
O131 O 0.76102 0.53859 0.50396 0.0
C132 C 0.77428 0.56799 0.51961 0.0
O133 O 0.60348 0.54593 0.45603 0.0
O134 O 0.57245 0.66963 0.55874 0.0
O135 O 0.49499 0.66833 0.51018 0.0
O136 O 0.62546 0.59858 0.46738 0.0
C137 C 0.6141 0.57243 0.44349 0.0
O138 O 0.52441 0.54084 0.52503 0.0
O139 O 0.47171 0.60207 0.51599 0.0
O140 O 0.57089 0.60126 0.58397 0.0
O141 O 0.67422 0.47427 0.47167 0.0
O142 O 0.72579 0.47078 0.52784 0.0
O143 O 0.66092 0.53986 0.57472 0.0
C144 C 0.54987 0.71279 0.51773 0.0
C145 C 0.58074 0.70195 0.48083 0.0
C146 C 0.59234 0.76353 0.52716 0.0
C147 C 0.61865 0.72125 0.46751 0.0
C148 C 0.55388 0.7443 0.54043 0.0
C149 C 0.62713 0.75145 0.49099 0.0
C150 C 0.52325 0.68863 0.53412 0.0
C151 C 0.46208 0.57215 0.52083 0.0
H152 H 0.58741 0.46898 0.544 0.0
H153 H 0.66751 0.34486 0.46355 0.0
H154 H 0.51064 0.43254 0.54655 0.0
H155 H 0.74348 0.3823 0.46051 0.0
H156 H 0.57919 0.67744 0.46288 0.0
H157 H 0.59769 0.78691 0.54571 0.0
H158 H 0.6458 0.71099 0.43974 0.0
H159 H 0.5307 0.75294 0.56901 0.0
C160 C 0.52024 0.68741 0.0309 0.0
C161 C 0.48742 0.66228 0.01377 0.0
C162 C 0.47908 0.72597 0.03006 0.0
C163 C 0.4035 0.74056 0.01211 0.0
C164 C 0.37127 0.71526 -0.00511 0.0
C165 C 0.41231 0.67683 -0.00426 0.0
C166 C 0.35674 0.7814 0.0096 0.0
C167 C 0.3733 0.80949 0.02958 0.0
C168 C 0.32734 0.85025 0.02671 0.0
C169 C 0.36251 0.87498 0.04168 0.0
C170 C 0.32273 0.91331 0.04025 0.0
C171 C 0.2458 0.92843 0.02402 0.0
H172 H 0.21925 0.84776 -0.0005 0.0
C173 C 0.20981 0.90389 0.00933 0.0
C174 C 0.24992 0.86533 0.01064 0.0
H175 H 0.15055 0.91444 -0.00325 0.0
H176 H 0.57818 0.67729 0.04482 0.0
H177 H 0.50776 0.74385 0.04307 0.0
H178 H 0.31366 0.72525 0.98065 0.0
H179 H 0.38489 0.65853 0.98212 0.0
H180 H 0.30622 0.78828 -0.00984 0.0
H181 H 0.42396 0.80273 0.04891 0.0
H182 H 0.42161 0.86458 0.05446 0.0
H183 H 0.35269 0.93109 0.052 0.0
C184 C 0.80725 0.40675 0.01246 0.0
C185 C 0.72503 0.42733 0.02013 0.0
C186 C 0.84473 0.36821 0.01412 0.0
C187 C 0.8008 0.34909 0.02339 0.0
C188 C 0.71884 0.36987 0.03123 0.0
C189 C 0.68154 0.40824 0.02957 0.0
C190 C 0.83701 0.30807 0.02621 0.0
C191 C 0.91036 0.28312 0.01335 0.0
C192 C 0.9463 0.24195 0.01575 0.0
C193 C 1.0244 0.21987 0.00205 0.0
C194 C 1.06114 0.18137 0.0032 0.0
C195 C 1.02094 0.16352 0.01814 0.0
H196 H 0.84588 0.2392 0.04155 0.0
C197 C 0.94282 0.1854 0.03187 0.0
C198 C 0.90597 0.224 0.03074 0.0
H199 H 0.90971 0.17269 0.04344 0.0
H200 H 0.84296 0.42042 0.00528 0.0
H201 H 0.90817 0.35392 0.00858 0.0
H202 H 0.68302 0.35633 0.03865 0.0
H203 H 0.61825 0.42291 0.03575 0.0
H204 H 0.7997 0.29832 0.03907 0.0
H205 H 0.94669 0.29293 -0.00023 0.0
H206 H 1.0575 0.23247 -0.00973 0.0
H207 H 0.12124 0.16559 -0.00774 0.0
C208 C 0.19586 0.26193 0.4915 0.0
C209 C 0.16383 0.26106 0.52541 0.0
C210 C 0.24967 0.27832 0.492 0.0
C211 C 0.27192 0.29455 0.52655 0.0
C212 C 0.23772 0.29474 0.56025 0.0
C213 C 0.18408 0.27827 0.55973 0.0
C214 C 0.33387 0.3095 0.52912 0.0
C215 C 0.35626 0.31978 0.49968 0.0
C216 C 0.41878 0.33445 0.50243 0.0
C217 C 0.45326 0.33446 0.46888 0.0
C218 C 0.50913 0.3498 0.46988 0.0
C219 C 0.5314 0.36561 0.50453 0.0
H220 H 0.41617 0.35131 0.56375 0.0
C221 C 0.49843 0.36483 0.5382 0.0
C222 C 0.44233 0.34971 0.53722 0.0
H223 H 0.5148 0.37666 0.56536 0.0
H224 H 0.18102 0.24897 0.46461 0.0
H225 H 0.27566 0.27671 0.4654 0.0
H226 H 0.25399 0.30691 0.58725 0.0
H227 H 0.1614 0.27753 0.58641 0.0
H228 H 0.36198 0.31176 0.55663 0.0
H229 H 0.32821 0.31744 0.47215 0.0
H230 H 0.43598 0.32309 0.44169 0.0
H231 H 0.53253 0.35052 0.44339 0.0
C232 C 1.06469 0.81279 0.41667 0.0
C233 C 1.04468 0.851 0.41786 0.0
C234 C 1.00485 0.79962 0.41327 0.0
C235 C 0.92408 0.82445 0.41079 0.0
C236 C 0.90472 0.86176 0.40791 0.0
C237 C 0.96443 0.87506 0.41174 0.0
C238 C 0.85923 0.81317 0.41615 0.0
C239 C 0.86474 0.7937 0.44411 0.0
C240 C 0.79843 0.78616 0.45572 0.0
C241 C 0.79835 0.78005 0.49307 0.0
C242 C 0.74003 0.77068 0.50496 0.0
C243 C 0.68096 0.76679 0.47955 0.0
H244 H 0.73702 0.78735 0.40129 0.0
C245 C 0.67978 0.7737 0.44231 0.0
C246 C 0.73796 0.7834 0.43046 0.0
H247 H 0.63493 0.77075 0.42215 0.0
H248 H 0.12614 0.79339 0.4203 0.0
H249 H 1.02134 0.77041 0.41449 0.0
H250 H 0.84279 0.88128 0.40577 0.0
H251 H 0.94667 0.90471 0.41271 0.0
H252 H 0.80314 0.82532 0.40098 0.0
H253 H 0.91873 0.78535 0.46153 0.0
H254 H 0.84443 0.78193 0.51304 0.0
H255 H 0.7434 0.76484 0.5336 0.0
C256 C 0.36606 0.13427 0.86988 0.0
C257 C 0.42048 0.09952 0.87906 0.0
C258 C 0.38432 0.14979 0.8419 0.0
C259 C 0.45722 0.13078 0.8225 0.0
C260 C 0.50884 0.09483 0.82964 0.0
C261 C 0.49091 0.07944 0.85789 0.0
C262 C 0.48765 0.15105 0.8014 0.0
C263 C 0.49741 0.18054 0.82166 0.0
C264 C 0.55818 0.17195 0.85237 0.0
C265 C 0.63923 0.15025 0.84372 0.0
C266 C 0.6933 0.13443 0.87198 0.0
C267 C 0.66671 0.13945 0.90907 0.0
H268 H 0.47023 0.19522 0.89718 0.0
C269 C 0.58646 0.16251 0.91808 0.0
C270 C 0.53279 0.17908 0.89003 0.0
H271 H 0.56493 0.16689 0.94656 0.0
H272 H 0.31138 0.15046 0.88579 0.0
H273 H 0.34385 0.17764 0.83704 0.0
H274 H 0.56585 0.07981 0.81535 0.0
H275 H 0.53328 1.05235 0.86397 0.0
H276 H 0.53674 0.13248 0.78258 0.0
H277 H 0.44225 0.20462 0.83051 0.0
H278 H 0.65975 0.14403 0.8148 0.0
H279 H 0.75503 0.11663 0.86444 0.0
C280 C 0.42282 1.02172 0.50743 0.0
C281 C 0.35271 1.05336 0.52014 0.0
C282 C 0.49768 1.02378 0.50773 0.0
C283 C 0.50522 1.05769 0.5208 0.0
C284 C 0.4349 0.08926 0.53328 0.0
C285 C 0.36028 0.08717 0.53307 0.0
C286 C 0.58349 1.06206 0.52124 0.0
C287 C 0.65774 1.03367 0.5157 0.0
C288 C 0.73618 1.03794 0.51652 0.0
C289 C 0.80879 1.00587 0.51659 0.0
C290 C 0.88354 1.00782 0.51685 0.0
C291 C 0.88891 1.042 0.51681 0.0
H292 H 0.68807 0.09773 0.51569 0.0
C293 C 0.81642 0.07417 0.51651 0.0
C294 C 0.74142 0.07224 0.51637 0.0
H295 H 0.81742 0.10107 0.51634 0.0
H296 H 0.42002 0.99513 0.49706 0.0
H297 H 0.54893 0.99872 0.49718 0.0
H298 H 0.43751 0.11594 0.54336 0.0
H299 H 0.30827 0.1123 0.54293 0.0
H300 H 0.5789 0.09044 0.52748 0.0
H301 H 0.66265 1.00524 0.51121 0.0
H302 H 0.8079 0.97889 0.51648 0.0
H303 H 0.93732 0.98231 0.51693 0.0
C304 C 0.89414 0.66046 0.90982 0.0
C305 C 0.86642 0.63211 0.90346 0.0
C306 C 0.90194 0.67647 0.87954 0.0
C307 C 0.88168 0.6645 0.84256 0.0
C308 C 0.84918 0.63793 0.83652 0.0
C309 C 0.84233 0.62155 0.86672 0.0
C310 C 0.90303 0.67645 0.80977 0.0
C311 C 0.9793 0.6693 0.80243 0.0
C312 C 1.04796 0.64669 0.82493 0.0
C313 C 1.09956 0.66205 0.84332 0.0
C314 C 0.1575 0.64297 0.86876 0.0
C315 C 0.16499 0.60809 0.87593 0.0
H316 H 1.0206 0.59809 0.81556 0.0
C317 C 0.11597 0.59192 0.85584 0.0
C318 C 1.0585 0.6109 0.8303 0.0
H319 H 0.12157 0.56474 0.86012 0.0
H320 H 0.91286 0.66911 0.93788 0.0
H321 H 0.92682 0.69713 0.88471 0.0
H322 H 0.83322 0.62842 0.80818 0.0
H323 H 0.81952 0.60014 0.86128 0.0
H324 H 0.85562 0.69122 0.79093 0.0
H325 H 0.99092 0.68107 0.77965 0.0
H326 H 1.09256 0.68954 0.83936 0.0
H327 H 0.19433 0.65618 0.88389 0.0
C328 C 0.36366 0.54253 0.5239 0.0
C329 C 0.3782 0.57413 0.52137 0.0
C330 C 0.28476 0.5449 0.52438 0.0
C331 C 0.21749 0.57905 0.52241 0.0
C332 C 0.23251 0.61047 0.52009 0.0
C333 C 0.31097 0.60808 0.51943 0.0
C334 C 0.13111 0.58396 0.52364 0.0
C335 C 0.10577 0.55594 0.51872 0.0
C336 C 1.01921 0.5609 0.51903 0.0
C337 C 1.00148 0.52976 0.50577 0.0
C338 C 0.92287 0.53221 0.50583 0.0
C339 C 0.85831 0.56594 0.51949 0.0
H340 H 0.96447 0.61956 0.54388 0.0
C341 C 0.87564 0.59724 0.53298 0.0
C342 C 0.95461 0.59483 0.53275 0.0
H343 H 0.82808 0.62376 0.54384 0.0
H344 H 0.41337 0.51583 0.52557 0.0
H345 H 0.27723 0.51994 0.52684 0.0
H346 H 0.18297 0.6373 0.5187 0.0
H347 H 0.31871 0.63317 0.51756 0.0
H348 H 1.08614 0.61252 0.52759 0.0
H349 H 0.15041 0.52741 0.51279 0.0
H350 H 1.04897 0.5031 0.49513 0.0
H351 H 0.91296 0.50734 0.49524 0.0
C352 C 0.11838 0.07864 0.38628 0.0
C353 C 0.10735 1.05078 0.40123 0.0
C354 C 0.11881 0.07766 0.34698 0.0
C355 C 0.10845 1.04865 0.32177 0.0
C356 C 1.09633 1.02123 0.33688 0.0
C357 C 1.09606 1.02216 0.37601 0.0
C358 C 0.1071 1.04627 0.27972 0.0
C359 C 0.13745 1.06396 0.26085 0.0
C360 C 0.13608 1.06039 0.21863 0.0
C361 C 0.19148 0.06793 0.20061 0.0
C362 C 0.19195 1.0648 0.16104 0.0
C363 C 0.13659 1.05421 0.13855 0.0
H364 H 1.03396 1.04579 0.20863 0.0
C365 C 1.08039 1.04723 0.15664 0.0
C366 C 1.07975 1.05048 0.19609 0.0
H367 H 1.03602 1.03954 0.14038 0.0
H368 H 0.12682 0.10121 0.40492 0.0
H369 H 0.12613 0.09995 0.33669 0.0
H370 H 1.08748 0.99872 0.31831 0.0
H371 H 1.08711 1.00029 0.38641 0.0
H372 H 1.08309 1.02748 0.26366 0.0
H373 H 0.16785 0.08023 0.27647 0.0
H374 H 0.23505 0.07601 0.21718 0.0
H375 H 0.23582 0.0706 0.14815 0.0
C376 C 0.19173 1.0306 0.87865 0.0
C377 C 0.12144 1.04221 0.8995 0.0
C378 C 0.18784 1.03288 0.83992 0.0
C379 C 0.11334 1.04651 0.82103 0.0
C380 C 1.04332 1.05811 0.84203 0.0
C381 C 1.0472 1.05599 0.8807 0.0
C382 C 0.10524 1.05036 0.78002 0.0
C383 C 0.16518 1.03268 0.75468 0.0
C384 C 0.15569 1.0363 0.71361 0.0
C385 C 0.21124 1.00848 0.68783 0.0
C386 C 0.20488 1.01067 0.64908 0.0
C387 C 0.14291 1.04094 0.6351 0.0
H388 H 1.05178 0.08971 0.71852 0.0
C389 C 1.08792 0.06913 0.66091 0.0
C390 C 1.09435 0.06696 0.69969 0.0
H391 H 1.03994 0.09307 0.65122 0.0
H392 H 0.24987 1.02036 0.89238 0.0
H393 H 0.24333 1.02466 0.82533 0.0
H394 H 0.98506 0.06897 0.82847 0.0
H395 H 0.99178 0.06534 0.89588 0.0
H396 H 1.04591 0.06736 0.77022 0.0
H397 H 0.22291 1.01325 0.76367 0.0
H398 H 0.25957 0.98472 0.69765 0.0
H399 H 0.24855 0.98851 0.6301 0.0
C400 C 0.59615 0.54618 0.37616 0.0
C401 C 0.61448 0.5724 0.40206 0.0
C402 C 0.59803 0.54562 0.33708 0.0
C403 C 0.6183 0.57133 0.32293 0.0
C404 C 0.63708 0.59735 0.34882 0.0
C405 C 0.63467 0.59809 0.38791 0.0
C406 C 0.62403 0.57072 0.28152 0.0
C407 C 0.58222 0.55764 0.25489 0.0
C408 C 0.58842 0.55667 0.21345 0.0
C409 C 0.52384 0.55691 0.18964 0.0
C410 C 0.52802 0.55504 0.15046 0.0
C411 C 0.59756 0.55231 0.13401 0.0
H412 H 0.71011 0.55252 0.2142 0.0
C413 C 0.6626 0.55171 0.1578 0.0
C414 C 0.65814 0.55388 0.19703 0.0
H415 H 0.71729 0.54944 0.14615 0.0
H416 H 0.58085 0.52582 0.38604 0.0
H417 H 0.58543 0.52441 0.31815 0.0
H418 H 0.65358 0.61727 0.33878 0.0
H419 H 0.64955 0.61855 0.40699 0.0
H420 H 0.66156 0.58298 0.27299 0.0
H421 H 0.53889 0.54872 0.26367 0.0
H422 H 0.46967 0.55867 0.20141 0.0
H423 H 0.47691 0.55536 0.13308 0.0
C424 C 0.6498 0.53511 0.65242 0.0
C425 C 0.61556 0.56927 0.63833 0.0
C426 C 0.65004 0.53423 0.69133 0.0
C427 C 0.61624 0.56757 0.71712 0.0
C428 C 0.58286 0.60166 0.70306 0.0
C429 C 0.58183 0.60253 0.66414 0.0
C430 C 0.61767 0.56797 0.75884 0.0
C431 C 0.61851 0.53954 0.77473 0.0
C432 C 0.61893 0.54032 0.81648 0.0
C433 C 0.58575 0.51933 0.83092 0.0
C434 C 0.58543 0.51923 0.86996 0.0
C435 C 0.61949 0.53973 0.89547 0.0
H436 H 0.6822 0.57614 0.83191 0.0
C437 C 0.65408 0.56021 0.88097 0.0
C438 C 0.65382 0.56053 0.84196 0.0
H439 H 0.68144 0.57611 0.89973 0.0
H440 H 0.67652 0.50894 0.63339 0.0
H441 H 0.67828 0.50745 0.70109 0.0
H442 H 0.55705 0.62779 0.72226 0.0
H443 H 0.55538 0.62935 0.65437 0.0
H444 H 0.61378 0.59347 0.77698 0.0
H445 H 0.61445 0.51554 0.75666 0.0
H446 H 0.55914 0.50323 0.81195 0.0
H447 H 0.5584 0.50309 0.88009 0.0
loop_
_geom_bond_atom_site_label_1
_geom_bond_atom_site_label_2
_geom_bond_distance
_geom_bond_site_symmetry_2
_ccdc_geom_bond_type
Eu0 C9 2.828 . S
Eu0 O11 2.392 1_655 S
Eu0 O13 2.418 . S
Eu0 O18 2.373 1_565 S
Eu0 O21 2.488 . S
Eu0 O22 2.471 1_556 S
Eu0 O23 2.349 1_556 S
Eu1 O10 2.373 1_545 S
Eu1 O14 2.488 . S
Eu1 O15 2.471 1_554 S
Eu1 O16 2.349 1_554 S
Eu1 O19 2.392 1_455 S
Eu1 O20 2.418 . S
Eu1 C30 2.828 . S
C2 O20 1.244 . S
C2 O23 1.265 1_445 S
C3 C4 1.379 1_556 S
C3 C7 1.366 1_545 S
C3 C9 1.505 1_545 S
C4 C3 1.379 1_554 S
C4 C6 1.369 . S
C4 H32 0.930 . S
C5 C7 1.382 1_545 S
C5 C8 1.382 1_556 S
C5 H33 0.930 . S
C6 C4 1.369 . S
C6 C8 1.392 . S
C6 H34 0.930 . S
C7 C3 1.366 1_565 S
C7 C5 1.382 1_565 S
C7 H35 0.939 . S
C8 C5 1.382 1_554 S
C8 C6 1.392 . S
C9 Eu0 2.828 . S
C9 C3 1.505 1_565 S
C9 O21 1.249 . S
C9 O22 1.244 1_556 S
O10 Eu1 2.373 1_565 S
O10 C12 1.258 . S
O11 Eu0 2.392 1_455 S
O11 C12 1.242 1_556 S
C12 O10 1.258 . S
C12 O11 1.242 1_554 S
O13 Eu0 2.418 . S
O13 C17 1.244 . S
O14 Eu1 2.488 . S
O14 C30 1.249 . S
O15 Eu1 2.471 1_556 S
O15 C30 1.244 1_556 S
O16 Eu1 2.349 1_556 S
O16 C17 1.265 1_445 S
C17 O13 1.244 . S
C17 O16 1.265 1_665 S
O18 Eu0 2.373 1_545 S
O18 C31 1.258 1_556 S
O19 Eu1 2.392 1_655 S
O19 C31 1.242 . S
O20 Eu1 2.418 . S
O20 C2 1.244 . S
O21 Eu0 2.488 . S
O21 C9 1.249 . S
O22 Eu0 2.471 1_554 S
O22 C9 1.244 1_554 S
O23 Eu0 2.349 1_554 S
O23 C2 1.265 1_665 S
C24 C25 1.379 1_554 S
C24 C28 1.373 1_565 S
C24 C30 1.505 1_565 S
C25 C24 1.379 1_556 S
C25 C27 1.369 . S
C25 H36 0.930 . S
C26 C28 1.383 1_565 S
C26 C29 1.382 1_554 S
C26 H37 0.930 . S
C27 C25 1.369 . S
C27 C29 1.392 . S
C27 H38 0.930 . S
C28 C24 1.373 1_545 S
C28 C26 1.383 1_545 S
C28 H39 0.931 . S
C29 C26 1.382 1_556 S
C29 C27 1.392 . S
C30 Eu1 2.828 . S
C30 O14 1.249 . S
C30 O15 1.244 1_554 S
C30 C24 1.505 1_545 S
C31 O18 1.258 1_554 S
C31 O19 1.242 . S
H32 C4 0.930 . S
H33 C5 0.930 . S
H34 C6 0.930 . S
H35 C7 0.939 . S
H36 C25 0.930 . S
H37 C26 0.930 . S
H38 C27 0.930 . S
H39 C28 0.931 . S
Eu40 C49 2.828 1_455 S
Eu40 O51 2.392 . S
Eu40 O53 2.418 1_455 S
Eu40 O58 2.373 1_455 S
Eu40 O61 2.488 1_455 S
Eu40 O62 2.471 1_455 S
Eu40 O63 2.349 . S
Eu41 O50 2.373 1_655 S
Eu41 O54 2.488 1_655 S
Eu41 O55 2.471 1_655 S
Eu41 O56 2.349 . S
Eu41 O59 2.392 . S
Eu41 O60 2.418 1_655 S
Eu41 C70 2.828 1_655 S
C42 O60 1.244 . S
C42 O63 1.265 1_545 S
C43 C44 1.379 . S
C43 C47 1.373 . S
C43 C49 1.505 . S
C44 C43 1.379 . S
C44 C46 1.369 . S
C44 H72 0.930 . S
C45 C47 1.383 . S
C45 C48 1.382 . S
C45 H73 0.930 . S
C46 C44 1.369 . S
C46 C48 1.392 . S
C46 H74 0.930 . S
C47 C43 1.373 . S
C47 C45 1.383 . S
C47 H75 0.931 . S
C48 C45 1.382 . S
C48 C46 1.392 . S
C49 Eu40 2.828 1_655 S
C49 C43 1.505 . S
C49 O61 1.249 . S
C49 O62 1.244 . S
O50 Eu41 2.373 1_455 S
O50 C52 1.258 1_545 S
O51 Eu40 2.392 . S
O51 C52 1.242 . S
C52 O50 1.258 1_565 S
C52 O51 1.242 . S
O53 Eu40 2.418 1_655 S
O53 C57 1.244 . S
O54 Eu41 2.488 1_455 S
O54 C70 1.249 . S
O55 Eu41 2.471 1_455 S
O55 C70 1.244 . S
O56 Eu41 2.349 . S
O56 C57 1.265 1_545 S
C57 O53 1.244 . S
C57 O56 1.265 1_565 S
O58 Eu40 2.373 1_655 S
O58 C71 1.258 1_565 S
O59 Eu41 2.392 . S
O59 C71 1.242 . S
O60 Eu41 2.418 1_455 S
O60 C42 1.244 . S
O61 Eu40 2.488 1_655 S
O61 C49 1.249 . S
O62 Eu40 2.471 1_655 S
O62 C49 1.244 . S
O63 Eu40 2.349 . S
O63 C42 1.265 1_565 S
C64 C65 1.379 . S
C64 C68 1.373 . S
C64 C70 1.505 . S
C65 C64 1.379 . S
C65 C67 1.369 . S
C65 H76 0.930 . S
C66 C68 1.383 . S
C66 C69 1.382 . S
C66 H77 0.930 . S
C67 C65 1.369 . S
C67 C69 1.392 . S
C67 H78 0.930 . S
C68 C64 1.373 . S
C68 C66 1.383 . S
C68 H79 0.931 . S
C69 C66 1.382 . S
C69 C67 1.392 . S
C70 Eu41 2.828 1_455 S
C70 O54 1.249 . S
C70 O55 1.244 . S
C70 C64 1.505 . S
C71 O58 1.258 1_545 S
C71 O59 1.242 . S
H72 C44 0.930 . S
H73 C45 0.930 . S
H74 C46 0.930 . S
H75 C47 0.931 . S
H76 C65 0.930 . S
H77 C66 0.930 . S
H78 C67 0.930 . S
H79 C68 0.931 . S
Eu80 C89 2.828 . S
Eu80 O91 2.392 . S
Eu80 O93 2.418 . S
Eu80 O98 2.373 . S
Eu80 O101 2.488 . S
Eu80 O102 2.471 1_556 S
Eu80 O103 2.349 1_556 S
Eu81 O90 2.373 . S
Eu81 O94 2.488 . S
Eu81 O95 2.471 1_554 S
Eu81 O96 2.349 1_554 S
Eu81 O99 2.392 . S
Eu81 O100 2.418 . S
Eu81 C110 2.828 . S
C82 O100 1.244 . S
C82 O103 1.265 . S
C83 C84 1.379 1_556 S
C83 C87 1.373 . S
C83 C89 1.505 . S
C84 C83 1.379 1_554 S
C84 C86 1.369 . S
C84 H112 0.930 . S
C85 C87 1.383 . S
C85 C88 1.382 1_556 S
C85 H113 0.930 . S
C86 C84 1.369 . S
C86 C88 1.392 . S
C86 H114 0.930 . S
C87 C83 1.373 . S
C87 C85 1.383 . S
C87 H115 0.931 . S
C88 C85 1.382 1_554 S
C88 C86 1.392 . S
C89 Eu80 2.828 . S
C89 C83 1.505 . S
C89 O101 1.249 . S
C89 O102 1.244 1_556 S
O90 Eu81 2.373 . S
O90 C92 1.258 . S
O91 Eu80 2.392 . S
O91 C92 1.242 1_556 S
C92 O90 1.258 . S
C92 O91 1.242 1_554 S
O93 Eu80 2.418 . S
O93 C97 1.244 . S
O94 Eu81 2.488 . S
O94 C110 1.249 . S
O95 Eu81 2.471 1_556 S
O95 C110 1.244 1_556 S
O96 Eu81 2.349 1_556 S
O96 C97 1.265 . S
C97 O93 1.244 . S
C97 O96 1.265 . S
O98 Eu80 2.373 . S
O98 C111 1.258 1_556 S
O99 Eu81 2.392 . S
O99 C111 1.242 . S
O100 Eu81 2.418 . S
O100 C82 1.244 . S
O101 Eu80 2.488 . S
O101 C89 1.249 . S
O102 Eu80 2.471 1_554 S
O102 C89 1.244 1_554 S
O103 Eu80 2.349 1_554 S
O103 C82 1.265 . S
C104 C105 1.379 1_554 S
C104 C108 1.373 . S
C104 C110 1.505 . S
C105 C104 1.379 1_556 S
C105 C107 1.369 . S
C105 H116 0.930 . S
C106 C108 1.383 . S
C106 C109 1.382 1_554 S
C106 H117 0.930 . S
C107 C105 1.369 . S
C107 C109 1.392 . S
C107 H118 0.930 . S
C108 C104 1.373 . S
C108 C106 1.383 . S
C108 H119 0.931 . S
C109 C106 1.382 1_556 S
C109 C107 1.392 . S
C110 Eu81 2.828 . S
C110 O94 1.249 . S
C110 O95 1.244 1_554 S
C110 C104 1.505 . S
C111 O98 1.258 1_554 S
C111 O99 1.242 . S
H112 C84 0.930 . S
H113 C85 0.930 . S
H114 C86 0.930 . S
H115 C87 0.931 . S
H116 C105 0.930 . S
H117 C106 0.930 . S
H118 C107 0.930 . S
H119 C108 0.931 . S
Eu120 C129 2.828 . S
Eu120 O131 2.392 . S
Eu120 O133 2.418 . S
Eu120 O138 2.373 . S
Eu120 O141 2.488 . S
Eu120 O142 2.471 . S
Eu120 O143 2.349 . S
Eu121 O130 2.373 . S
Eu121 O134 2.488 . S
Eu121 O135 2.471 . S
Eu121 O136 2.349 . S
Eu121 O139 2.392 . S
Eu121 O140 2.418 . S
Eu121 C150 2.828 . S
C122 O140 1.244 . S
C122 O143 1.265 . S
C123 C124 1.379 . S
C123 C127 1.373 . S
C123 C129 1.505 . S
C124 C123 1.379 . S
C124 C126 1.369 . S
C124 H152 0.930 . S
C125 C127 1.383 . S
C125 C128 1.382 . S
C125 H153 0.930 . S
C126 C124 1.369 . S
C126 C128 1.392 . S
C126 H154 0.930 . S
C127 C123 1.373 . S
C127 C125 1.383 . S
C127 H155 0.931 . S
C128 C125 1.382 . S
C128 C126 1.392 . S
C129 Eu120 2.828 . S
C129 C123 1.505 . S
C129 O141 1.249 . S
C129 O142 1.244 . S
O130 Eu121 2.373 . S
O130 C132 1.258 . S
O131 Eu120 2.392 . S
O131 C132 1.242 . S
C132 O130 1.258 . S
C132 O131 1.242 . S
O133 Eu120 2.418 . S
O133 C137 1.244 . S
O134 Eu121 2.488 . S
O134 C150 1.249 . S
O135 Eu121 2.471 . S
O135 C150 1.244 . S
O136 Eu121 2.349 . S
O136 C137 1.265 . S
C137 O133 1.244 . S
C137 O136 1.265 . S
O138 Eu120 2.373 . S
O138 C151 1.258 . S
O139 Eu121 2.392 . S
O139 C151 1.242 . S
O140 Eu121 2.418 . S
O140 C122 1.244 . S
O141 Eu120 2.488 . S
O141 C129 1.249 . S
O142 Eu120 2.471 . S
O142 C129 1.244 . S
O143 Eu120 2.349 . S
O143 C122 1.265 . S
C144 C145 1.379 . S
C144 C148 1.373 . S
C144 C150 1.505 . S
C145 C144 1.379 . S
C145 C147 1.369 . S
C145 H156 0.930 . S
C146 C148 1.383 . S
C146 C149 1.382 . S
C146 H157 0.930 . S
C147 C145 1.369 . S
C147 C149 1.392 . S
C147 H158 0.930 . S
C148 C144 1.373 . S
C148 C146 1.383 . S
C148 H159 0.931 . S
C149 C146 1.382 . S
C149 C147 1.392 . S
C150 Eu121 2.828 . S
C150 O134 1.249 . S
C150 O135 1.244 . S
C150 C144 1.505 . S
C151 O138 1.258 . S
C151 O139 1.242 . S
H152 C124 0.930 . S
H153 C125 0.930 . S
H154 C126 0.930 . S
H155 C127 0.931 . S
H156 C145 0.930 . S
H157 C146 0.930 . S
H158 C147 0.930 . S
H159 C148 0.931 . S
C160 C161 1.386 . S
C160 C162 1.383 . S
C160 H176 0.951 . S
C161 C160 1.386 . S
C161 C165 1.383 1_556 S
C162 C160 1.383 . S
C162 C163 1.402 . S
C162 H177 0.951 . S
C163 C162 1.402 . S
C163 C164 1.375 1_556 S
C163 C166 1.481 . S
C164 C163 1.375 1_554 S
C164 C165 1.367 . S
C164 H178 0.951 . S
C165 C161 1.383 1_554 S
C165 C164 1.367 . S
C165 H179 0.950 . S
C166 C163 1.481 . S
C166 C167 1.297 . S
C166 H180 0.950 . S
C167 C166 1.297 . S
C167 C168 1.479 . S
C167 H181 0.950 . S
C168 C167 1.479 . S
C168 C169 1.375 . S
C168 C174 1.404 . S
C169 C168 1.375 . S
C169 C170 1.369 . S
C169 H182 0.950 . S
C170 C169 1.369 . S
C170 C171 1.392 . S
C170 H183 0.951 . S
C171 C170 1.392 . S
C171 C173 1.384 . S
H172 C174 0.949 . S
C173 C171 1.384 . S
C173 C174 1.385 . S
C173 H175 0.945 1_556 S
C174 C168 1.404 . S
C174 H172 0.949 . S
C174 C173 1.385 . S
H175 C173 0.945 1_554 S
H176 C160 0.951 . S
H177 C162 0.951 . S
H178 C164 0.951 . S
H179 C165 0.950 . S
H180 C166 0.950 . S
H181 C167 0.950 . S
H182 C169 0.950 . S
H183 C170 0.951 . S
C184 C185 1.386 1_554 S
C184 C186 1.383 . S
C184 H200 0.951 . S
C185 C184 1.386 1_556 S
C185 C189 1.383 . S
C186 C184 1.383 . S
C186 C187 1.402 1_554 S
C186 H201 0.951 . S
C187 C186 1.402 1_556 S
C187 C188 1.375 . S
C187 C190 1.481 . S
C188 C187 1.375 . S
C188 C189 1.367 . S
C188 H202 0.951 . S
C189 C185 1.383 . S
C189 C188 1.367 . S
C189 H203 0.950 . S
C190 C187 1.481 . S
C190 C191 1.297 1_556 S
C190 H204 0.950 . S
C191 C190 1.297 1_554 S
C191 C192 1.479 . S
C191 H205 0.950 . S
C192 C191 1.479 . S
C192 C193 1.375 . S
C192 C198 1.404 1_554 S
C193 C192 1.375 . S
C193 C194 1.369 . S
C193 H206 0.950 . S
C194 C193 1.369 . S
C194 C195 1.392 . S
C194 H207 0.951 . S
C195 C194 1.392 . S
C195 C197 1.384 1_554 S
H196 C198 0.949 . S
C197 C195 1.384 1_556 S
C197 C198 1.385 . S
C197 H199 0.950 . S
C198 C192 1.404 1_556 S
C198 H196 0.949 . S
C198 C197 1.385 . S
H199 C197 0.950 . S
H200 C184 0.951 . S
H201 C186 0.951 . S
H202 C188 0.951 . S
H203 C189 0.950 . S
H204 C190 0.950 . S
H205 C191 0.950 . S
H206 C193 0.950 . S
H207 C194 0.951 . S
C208 C209 1.386 . S
C208 C210 1.383 . S
C208 H224 0.951 . S
C209 C208 1.386 . S
C209 C213 1.383 . S
C210 C208 1.383 . S
C210 C211 1.402 . S
C210 H225 0.951 . S
C211 C210 1.402 . S
C211 C212 1.375 . S
C211 C214 1.481 . S
C212 C211 1.375 . S
C212 C213 1.367 . S
C212 H226 0.951 . S
C213 C209 1.383 . S
C213 C212 1.367 . S
C213 H227 0.950 . S
C214 C211 1.481 . S
C214 C215 1.297 . S
C214 H228 0.950 . S
C215 C214 1.297 . S
C215 C216 1.479 . S
C215 H229 0.950 . S
C216 C215 1.479 . S
C216 C217 1.375 . S
C216 C222 1.404 . S
C217 C216 1.375 . S
C217 C218 1.369 . S
C217 H230 0.950 . S
C218 C217 1.369 . S
C218 C219 1.392 . S
C218 H231 0.951 . S
C219 C218 1.392 . S
C219 C221 1.384 . S
H220 C222 0.949 . S
C221 C219 1.384 . S
C221 C222 1.385 . S
C221 H223 0.950 . S
C222 C216 1.404 . S
C222 H220 0.949 . S
C222 C221 1.385 . S
H223 C221 0.950 . S
H224 C208 0.951 . S
H225 C210 0.951 . S
H226 C212 0.951 . S
H227 C213 0.950 . S
H228 C214 0.950 . S
H229 C215 0.950 . S
H230 C217 0.950 . S
H231 C218 0.951 . S
C232 C233 1.386 . S
C232 C234 1.383 . S
C232 H248 0.951 . S
C233 C232 1.386 . S
C233 C237 1.383 . S
C234 C232 1.383 . S
C234 C235 1.402 . S
C234 H249 0.951 . S
C235 C234 1.402 . S
C235 C236 1.375 . S
C235 C238 1.481 . S
C236 C235 1.375 . S
C236 C237 1.367 . S
C236 H250 0.951 . S
C237 C233 1.383 . S
C237 C236 1.367 . S
C237 H251 0.950 . S
C238 C235 1.481 . S
C238 C239 1.297 . S
C238 H252 0.950 . S
C239 C238 1.297 . S
C239 C240 1.479 . S
C239 H253 0.950 . S
C240 C239 1.479 . S
C240 C241 1.375 . S
C240 C246 1.404 . S
C241 C240 1.375 . S
C241 C242 1.369 . S
C241 H254 0.950 . S
C242 C241 1.369 . S
C242 C243 1.392 . S
C242 H255 0.951 . S
C243 C242 1.392 . S
C243 C245 1.384 . S
H244 C246 0.949 . S
C245 C243 1.384 . S
C245 C246 1.385 . S
C245 H247 0.950 . S
C246 C240 1.404 . S
C246 H244 0.949 . S
C246 C245 1.385 . S
H247 C245 0.950 . S
H248 C232 0.951 . S
H249 C234 0.951 . S
H250 C236 0.951 . S
H251 C237 0.950 . S
H252 C238 0.950 . S
H253 C239 0.950 . S
H254 C241 0.950 . S
H255 C242 0.951 . S
C256 C257 1.386 . S
C256 C258 1.383 . S
C256 H272 0.951 . S
C257 C256 1.386 . S
C257 C261 1.383 1_556 S
C258 C256 1.383 . S
C258 C259 1.402 1_556 S
C258 H273 0.951 1_565 S
C259 C258 1.402 1_554 S
C259 C260 1.375 . S
C259 C262 1.481 . S
C260 C259 1.375 . S
C260 C261 1.367 . S
C260 H274 0.951 . S
C261 C257 1.383 1_554 S
C261 C260 1.367 . S
C261 H275 0.950 . S
C262 C259 1.481 . S
C262 C263 1.297 1_565 S
C262 H276 0.950 . S
C263 C262 1.297 1_545 S
C263 C264 1.479 . S
C263 H277 0.950 1_554 S
C264 C263 1.479 . S
C264 C265 1.375 1_554 S
C264 C270 1.404 . S
C265 C264 1.375 1_556 S
C265 C266 1.369 . S
C265 H278 0.950 . S
C266 C265 1.369 . S
C266 C267 1.392 1_556 S
C266 H279 0.951 . S
C267 C266 1.392 1_554 S
C267 C269 1.384 . S
H268 C270 0.949 1_565 S
C269 C267 1.384 . S
C269 C270 1.385 . S
C269 H271 0.950 . S
C270 C264 1.404 . S
C270 H268 0.949 1_545 S
C270 C269 1.385 . S
H271 C269 0.950 . S
H272 C256 0.951 . S
H273 C258 0.951 1_545 S
H274 C260 0.951 . S
H275 C261 0.950 . S
H276 C262 0.950 . S
H277 C263 0.950 1_556 S
H278 C265 0.950 . S
H279 C266 0.951 . S
C280 C281 1.388 . S
C280 C282 1.382 . S
C280 H296 0.951 1_545 S
C281 C280 1.388 . S
C281 C285 1.384 . S
C282 C280 1.382 . S
C282 C283 1.402 . S
C282 H297 0.951 . S
C283 C282 1.402 . S
C283 C284 1.375 . S
C283 C286 1.481 . S
C284 C283 1.375 . S
C284 C285 1.367 . S
C284 H298 0.951 . S
C285 C281 1.384 . S
C285 C284 1.367 . S
C285 H299 0.950 . S
C286 C283 1.481 . S
C286 C287 1.297 . S
C286 H300 0.950 . S
C287 C286 1.297 . S
C287 C288 1.479 . S
C287 H301 0.950 . S
C288 C287 1.479 . S
C288 C289 1.375 . S
C288 C294 1.404 . S
C289 C288 1.375 . S
C289 C290 1.369 . S
C289 H302 0.950 . S
C290 C289 1.369 . S
C290 C291 1.392 . S
C290 H303 0.951 . S
C291 C290 1.392 . S
C291 C293 1.384 . S
H292 C294 0.949 . S
C293 C291 1.384 . S
C293 C294 1.385 . S
C293 H295 0.950 . S
C294 C288 1.404 . S
C294 H292 0.949 . S
C294 C293 1.385 . S
H295 C293 0.950 . S
H296 C280 0.951 1_565 S
H297 C282 0.951 . S
H298 C284 0.951 . S
H299 C285 0.950 . S
H300 C286 0.950 . S
H301 C287 0.950 . S
H302 C289 0.950 . S
H303 C290 0.951 . S
C304 C305 1.386 . S
C304 C306 1.383 . S
C304 H320 0.951 1_556 S
C305 C304 1.386 . S
C305 C309 1.383 . S
C306 C304 1.383 . S
C306 C307 1.402 . S
C306 H321 0.951 1_556 S
C307 C306 1.402 . S
C307 C308 1.375 . S
C307 C310 1.481 . S
C308 C307 1.375 . S
C308 C309 1.367 . S
C308 H322 0.951 . S
C309 C305 1.383 . S
C309 C308 1.367 . S
C309 H323 0.950 . S
C310 C307 1.481 . S
C310 C311 1.297 1_655 S
C310 H324 0.950 . S
C311 C310 1.297 1_455 S
C311 C312 1.479 . S
C311 H325 0.950 . S
C312 C311 1.479 . S
C312 C313 1.375 1_556 S
C312 C318 1.404 . S
C313 C312 1.375 1_554 S
C313 C314 1.369 . S
C313 H326 0.950 . S
C314 C313 1.369 . S
C314 C315 1.392 . S
C314 H327 0.951 . S
C315 C314 1.392 . S
C315 C317 1.384 1_554 S
H316 C318 0.949 . S
C317 C315 1.384 1_556 S
C317 C318 1.385 . S
C317 H319 0.950 . S
C318 C312 1.404 . S
C318 H316 0.949 . S
C318 C317 1.385 . S
H319 C317 0.950 . S
H320 C304 0.951 1_554 S
H321 C306 0.951 1_554 S
H322 C308 0.951 . S
H323 C309 0.950 . S
H324 C310 0.950 . S
H325 C311 0.950 . S
H326 C313 0.950 . S
H327 C314 0.951 . S
C328 C329 1.386 . S
C328 C330 1.383 . S
C328 H344 0.951 . S
C329 C328 1.386 . S
C329 C333 1.383 . S
C330 C328 1.383 . S
C330 C331 1.402 . S
C330 H345 0.951 . S
C331 C330 1.402 . S
C331 C332 1.375 . S
C331 C334 1.481 . S
C332 C331 1.375 . S
C332 C333 1.367 . S
C332 H346 0.951 . S
C333 C329 1.383 . S
C333 C332 1.367 . S
C333 H347 0.950 . S
C334 C331 1.481 . S
C334 C335 1.297 1_455 S
C334 H348 0.946 1_455 S
C335 C334 1.297 1_655 S
C335 C336 1.479 . S
C335 H349 0.950 1_655 S
C336 C335 1.479 . S
C336 C337 1.375 . S
C336 C342 1.404 . S
C337 C336 1.375 . S
C337 C338 1.369 . S
C337 H350 0.950 . S
C338 C337 1.369 . S
C338 C339 1.392 . S
C338 H351 0.951 . S
C339 C338 1.392 . S
C339 C341 1.384 . S
H340 C342 0.949 . S
C341 C339 1.384 . S
C341 C342 1.385 . S
C341 H343 0.950 . S
C342 C336 1.404 . S
C342 H340 0.949 . S
C342 C341 1.385 . S
H343 C341 0.950 . S
H344 C328 0.951 . S
H345 C330 0.951 . S
H346 C332 0.951 . S
H347 C333 0.950 . S
H348 C334 0.946 1_655 S
H349 C335 0.950 1_455 S
H350 C337 0.950 . S
H351 C338 0.951 . S
C352 C353 1.372 1_545 S
C352 C354 1.383 . S
C352 H368 0.951 . S
C353 C352 1.372 1_565 S
C353 C357 1.397 1_655 S
C354 C352 1.383 . S
C354 C355 1.402 1_645 S
C354 H369 0.951 . S
C355 C354 1.402 1_465 S
C355 C356 1.375 . S
C355 C358 1.481 . S
C356 C355 1.375 . S
C356 C357 1.367 . S
C356 H370 0.951 . S
C357 C353 1.397 1_455 S
C357 C356 1.367 . S
C357 H371 0.950 . S
C358 C355 1.481 . S
C358 C359 1.297 1_565 S
C358 H372 0.950 . S
C359 C358 1.297 1_545 S
C359 C360 1.479 . S
C359 H373 0.950 . S
C360 C359 1.479 . S
C360 C361 1.375 . S
C360 C366 1.404 1_545 S
C361 C360 1.375 . S
C361 C362 1.369 1_455 S
C361 H374 0.951 1_455 S
C362 C361 1.369 1_655 S
C362 C363 1.407 1_655 S
C362 H375 0.951 . S
C363 C362 1.407 1_455 S
C363 C365 1.369 1_545 S
H364 C366 0.949 . S
C365 C363 1.369 1_565 S
C365 C366 1.385 . S
C365 H367 0.950 . S
C366 C360 1.404 1_565 S
C366 H364 0.949 . S
C366 C365 1.385 . S
H367 C365 0.950 . S
H368 C352 0.951 . S
H369 C354 0.951 . S
H370 C356 0.951 . S
H371 C357 0.950 . S
H372 C358 0.950 . S
H373 C359 0.950 . S
H374 C361 0.951 1_655 S
H375 C362 0.951 . S
C376 C377 1.394 . S
C376 C378 1.383 . S
C376 H392 0.951 . S
C377 C376 1.394 . S
C377 C381 1.374 1_465 S
C378 C376 1.383 . S
C378 C379 1.402 1_455 S
C378 H393 0.951 . S
C379 C378 1.402 1_655 S
C379 C380 1.375 1_565 S
C379 C382 1.481 . S
C380 C379 1.375 1_545 S
C380 C381 1.367 . S
C380 H394 0.951 . S
C381 C377 1.374 1_645 S
C381 C380 1.367 . S
C381 H395 0.950 . S
C382 C379 1.481 . S
C382 C383 1.297 1_655 S
C382 H396 0.950 1_565 S
C383 C382 1.297 1_455 S
C383 C384 1.479 . S
C383 H397 0.950 . S
C384 C383 1.479 . S
C384 C385 1.375 . S
C384 C390 1.404 1_455 S
C385 C384 1.375 . S
C385 C386 1.369 . S
C385 H398 0.950 . S
C386 C385 1.369 . S
C386 C387 1.392 . S
C386 H399 0.951 . S
C387 C386 1.392 . S
C387 C389 1.382 1_455 S
H388 C390 0.949 . S
C389 C387 1.382 1_655 S
C389 C390 1.392 . S
C389 H391 0.947 1_565 S
C390 C384 1.404 1_655 S
C390 H388 0.949 . S
C390 C389 1.392 . S
H391 C389 0.947 1_545 S
H392 C376 0.951 . S
H393 C378 0.951 . S
H394 C380 0.951 . S
H395 C381 0.950 . S
H396 C382 0.950 1_545 S
H397 C383 0.950 . S
H398 C385 0.950 . S
H399 C386 0.951 . S
C400 C401 1.386 . S
C400 C402 1.383 . S
C400 H416 0.951 . S
C401 C400 1.386 . S
C401 C405 1.383 . S
C402 C400 1.383 . S
C402 C403 1.402 . S
C402 H417 0.951 . S
C403 C402 1.402 . S
C403 C404 1.375 . S
C403 C406 1.481 . S
C404 C403 1.375 . S
C404 C405 1.367 . S
C404 H418 0.951 . S
C405 C401 1.383 . S
C405 C404 1.367 . S
C405 H419 0.950 . S
C406 C403 1.481 . S
C406 C407 1.297 . S
C406 H420 0.950 . S
C407 C406 1.297 . S
C407 C408 1.479 . S
C407 H421 0.950 . S
C408 C407 1.479 . S
C408 C409 1.375 . S
C408 C414 1.404 . S
C409 C408 1.375 . S
C409 C410 1.369 . S
C409 H422 0.950 . S
C410 C409 1.369 . S
C410 C411 1.392 . S
C410 H423 0.951 . S
C411 C410 1.392 . S
C411 C413 1.384 . S
H412 C414 0.949 . S
C413 C411 1.384 . S
C413 C414 1.385 . S
C413 H415 0.950 . S
C414 C408 1.404 . S
C414 H412 0.949 . S
C414 C413 1.385 . S
H415 C413 0.950 . S
H416 C400 0.951 . S
H417 C402 0.951 . S
H418 C404 0.951 . S
H419 C405 0.950 . S
H420 C406 0.950 . S
H421 C407 0.950 . S
H422 C409 0.950 . S
H423 C410 0.951 . S
C424 C425 1.386 . S
C424 C426 1.383 . S
C424 H440 0.951 . S
C425 C424 1.386 . S
C425 C429 1.383 . S
C426 C424 1.383 . S
C426 C427 1.402 . S
C426 H441 0.951 . S
C427 C426 1.402 . S
C427 C428 1.375 . S
C427 C430 1.481 . S
C428 C427 1.375 . S
C428 C429 1.367 . S
C428 H442 0.951 . S
C429 C425 1.383 . S
C429 C428 1.367 . S
C429 H443 0.950 . S
C430 C427 1.481 . S
C430 C431 1.297 . S
C430 H444 0.950 . S
C431 C430 1.297 . S
C431 C432 1.479 . S
C431 H445 0.950 . S
C432 C431 1.479 . S
C432 C433 1.375 . S
C432 C438 1.404 . S
C433 C432 1.375 . S
C433 C434 1.369 . S
C433 H446 0.950 . S
C434 C433 1.369 . S
C434 C435 1.392 . S
C434 H447 0.951 . S
C435 C434 1.392 . S
C435 C437 1.384 . S
H436 C438 0.949 . S
C437 C435 1.384 . S
C437 C438 1.385 . S
C437 H439 0.950 . S
C438 C432 1.404 . S
C438 H436 0.949 . S
C438 C437 1.385 . S
H439 C437 0.950 . S
H440 C424 0.951 . S
H441 C426 0.951 . S
H442 C428 0.951 . S
H443 C429 0.950 . S
H444 C430 0.950 . S
H445 C431 0.950 . S
H446 C433 0.950 . S
H447 C434 0.951 . S
C161 C111 3.529 1_556 S
C171 C12 3.511 1_556 S
C185 C92 3.520 1_556 S
C195 C31 3.521 . S
C209 C69 0.109 . S
C219 C128 0.268 . S
C233 C48 0.207 . S
C243 C149 0.125 . S
C257 C29 1.043 . S
C267 C8 1.138 . S
C281 C52 4.810 1_545 S
C291 C71 4.799 . S
C305 C109 1.030 . S
C315 C88 1.007 . S
C329 C151 4.810 . S
C339 C132 4.801 . S
C353 C57 1.447 . S
C363 C2 1.416 . S
C377 C17 1.441 1_455 S
C387 C42 1.496 1_565 S
C401 C137 1.484 . S
C411 C82 1.459 . S
C425 C122 1.437 . S
C435 C97 1.497 . S
