# Generated by pormake.
# Topology vck, (7)-cn, num edge types: 1
# Building blocks:
#     Node 0, Type 0, BuildingBlock: NUHQUE_clean_sbu_2, # of connection points: 7
#     Node 1, Type 0, BuildingBlock: NUHQUE_clean_sbu_2, # of connection points: 7
#     Node 2, Type 0, BuildingBlock: NUHQUE_clean_sbu_2, # of connection points: 7
#     Node 3, Type 0, BuildingBlock: NUHQUE_clean_sbu_2, # of connection points: 7
#     Node 4, Type 0, BuildingBlock: NUHQUE_clean_sbu_2, # of connection points: 7
#     Node 5, Type 0, BuildingBlock: NUHQUE_clean_sbu_2, # of connection points: 7
#     Node 6, Type 0, BuildingBlock: NUHQUE_clean_sbu_2, # of connection points: 7
#     Node 7, Type 0, BuildingBlock: NUHQUE_clean_sbu_2, # of connection points: 7
#     Node 8, Type 0, BuildingBlock: NUHQUE_clean_sbu_2, # of connection points: 7
#     Node 9, Type 0, BuildingBlock: NUHQUE_clean_sbu_2, # of connection points: 7
#     Node 10, Type 0, BuildingBlock: NUHQUE_clean_sbu_2, # of connection points: 7
#     Node 11, Type 0, BuildingBlock: NUHQUE_clean_sbu_2, # of connection points: 7
#     Node 12, Type 0, BuildingBlock: NUHQUE_clean_sbu_2, # of connection points: 7
#     Node 13, Type 0, BuildingBlock: NUHQUE_clean_sbu_2, # of connection points: 7
#     Node 14, Type 0, BuildingBlock: NUHQUE_clean_sbu_2, # of connection points: 7
#     Node 15, Type 0, BuildingBlock: NUHQUE_clean_sbu_2, # of connection points: 7
#     Edge 16, Type (0, 0), BuildingBlock: TEMPAE_clean_linker_10, # of connection points: 2
#     Edge 17, Type (0, 0), BuildingBlock: TEMPAE_clean_linker_10, # of connection points: 2
#     Edge 18, Type (0, 0), BuildingBlock: TEMPAE_clean_linker_10, # of connection points: 2
#     Edge 19, Type (0, 0), BuildingBlock: TEMPAE_clean_linker_10, # of connection points: 2
#     Edge 20, Type (0, 0), BuildingBlock: TEMPAE_clean_linker_10, # of connection points: 2
#     Edge 21, Type (0, 0), BuildingBlock: TEMPAE_clean_linker_10, # of connection points: 2
#     Edge 22, Type (0, 0), BuildingBlock: TEMPAE_clean_linker_10, # of connection points: 2
#     Edge 23, Type (0, 0), BuildingBlock: TEMPAE_clean_linker_10, # of connection points: 2
#     Edge 24, Type (0, 0), BuildingBlock: TEMPAE_clean_linker_10, # of connection points: 2
#     Edge 25, Type (0, 0), BuildingBlock: TEMPAE_clean_linker_10, # of connection points: 2
#     Edge 26, Type (0, 0), BuildingBlock: TEMPAE_clean_linker_10, # of connection points: 2
#     Edge 27, Type (0, 0), BuildingBlock: TEMPAE_clean_linker_10, # of connection points: 2
#     Edge 28, Type (0, 0), BuildingBlock: TEMPAE_clean_linker_10, # of connection points: 2
#     Edge 29, Type (0, 0), BuildingBlock: TEMPAE_clean_linker_10, # of connection points: 2
#     Edge 30, Type (0, 0), BuildingBlock: TEMPAE_clean_linker_10, # of connection points: 2
#     Edge 31, Type (0, 0), BuildingBlock: TEMPAE_clean_linker_10, # of connection points: 2
#     Edge 32, Type (0, 0), BuildingBlock: TEMPAE_clean_linker_10, # of connection points: 2
#     Edge 33, Type (0, 0), BuildingBlock: TEMPAE_clean_linker_10, # of connection points: 2
#     Edge 34, Type (0, 0), BuildingBlock: TEMPAE_clean_linker_10, # of connection points: 2
#     Edge 35, Type (0, 0), BuildingBlock: TEMPAE_clean_linker_10, # of connection points: 2
#     Edge 36, Type (0, 0), BuildingBlock: TEMPAE_clean_linker_10, # of connection points: 2
#     Edge 37, Type (0, 0), BuildingBlock: TEMPAE_clean_linker_10, # of connection points: 2
#     Edge 38, Type (0, 0), BuildingBlock: TEMPAE_clean_linker_10, # of connection points: 2
#     Edge 39, Type (0, 0), BuildingBlock: TEMPAE_clean_linker_10, # of connection points: 2
#     Edge 40, Type (0, 0), BuildingBlock: TEMPAE_clean_linker_10, # of connection points: 2
#     Edge 41, Type (0, 0), BuildingBlock: TEMPAE_clean_linker_10, # of connection points: 2
#     Edge 42, Type (0, 0), BuildingBlock: TEMPAE_clean_linker_10, # of connection points: 2
#     Edge 43, Type (0, 0), BuildingBlock: TEMPAE_clean_linker_10, # of connection points: 2
#     Edge 44, Type (0, 0), BuildingBlock: TEMPAE_clean_linker_10, # of connection points: 2
#     Edge 45, Type (0, 0), BuildingBlock: TEMPAE_clean_linker_10, # of connection points: 2
#     Edge 46, Type (0, 0), BuildingBlock: TEMPAE_clean_linker_10, # of connection points: 2
#     Edge 47, Type (0, 0), BuildingBlock: TEMPAE_clean_linker_10, # of connection points: 2
#     Edge 48, Type (0, 0), BuildingBlock: TEMPAE_clean_linker_10, # of connection points: 2
#     Edge 49, Type (0, 0), BuildingBlock: TEMPAE_clean_linker_10, # of connection points: 2
#     Edge 50, Type (0, 0), BuildingBlock: TEMPAE_clean_linker_10, # of connection points: 2
#     Edge 51, Type (0, 0), BuildingBlock: TEMPAE_clean_linker_10, # of connection points: 2
#     Edge 52, Type (0, 0), BuildingBlock: TEMPAE_clean_linker_10, # of connection points: 2
#     Edge 53, Type (0, 0), BuildingBlock: TEMPAE_clean_linker_10, # of connection points: 2
#     Edge 54, Type (0, 0), BuildingBlock: TEMPAE_clean_linker_10, # of connection points: 2
#     Edge 55, Type (0, 0), BuildingBlock: TEMPAE_clean_linker_10, # of connection points: 2
#     Edge 56, Type (0, 0), BuildingBlock: TEMPAE_clean_linker_10, # of connection points: 2
#     Edge 57, Type (0, 0), BuildingBlock: TEMPAE_clean_linker_10, # of connection points: 2
#     Edge 58, Type (0, 0), BuildingBlock: TEMPAE_clean_linker_10, # of connection points: 2
#     Edge 59, Type (0, 0), BuildingBlock: TEMPAE_clean_linker_10, # of connection points: 2
#     Edge 60, Type (0, 0), BuildingBlock: TEMPAE_clean_linker_10, # of connection points: 2
#     Edge 61, Type (0, 0), BuildingBlock: TEMPAE_clean_linker_10, # of connection points: 2
#     Edge 62, Type (0, 0), BuildingBlock: TEMPAE_clean_linker_10, # of connection points: 2
#     Edge 63, Type (0, 0), BuildingBlock: TEMPAE_clean_linker_10, # of connection points: 2
#     Edge 64, Type (0, 0), BuildingBlock: TEMPAE_clean_linker_10, # of connection points: 2
#     Edge 65, Type (0, 0), BuildingBlock: TEMPAE_clean_linker_10, # of connection points: 2
#     Edge 66, Type (0, 0), BuildingBlock: TEMPAE_clean_linker_10, # of connection points: 2
#     Edge 67, Type (0, 0), BuildingBlock: TEMPAE_clean_linker_10, # of connection points: 2
#     Edge 68, Type (0, 0), BuildingBlock: TEMPAE_clean_linker_10, # of connection points: 2
#     Edge 69, Type (0, 0), BuildingBlock: TEMPAE_clean_linker_10, # of connection points: 2
#     Edge 70, Type (0, 0), BuildingBlock: TEMPAE_clean_linker_10, # of connection points: 2
#     Edge 71, Type (0, 0), BuildingBlock: TEMPAE_clean_linker_10, # of connection points: 2
# Relax obj value: 0.174
# Max RMSD: 0.198
# Mean RMSD: 0.198
data_MOF--net-vck--node1-NUHQUE_clean_sbu_2--edge1-TEMPAE_clean_linker_10
_symmetry_space_group_name_H-M    P1
_symmetry_Int_Tables_number       1
_symmetry_cell_setting            triclinic
loop_
_symmetry_equiv_pos_as_xyz
'x, y, z'
_cell_length_a     73.741922
_cell_length_b     49.60124
_cell_length_c     21.651972
_cell_angle_alpha  90.088312
_cell_angle_beta   90.024439
_cell_angle_gamma 89.888295
loop_
_atom_site_label
_atom_site_type_symbol
_atom_site_fract_x
_atom_site_fract_y
_atom_site_fract_z
_atom_type_partial_charge
O0 O 0.54953 0.16022 0.14559 0.0
Tb1 Tb 0.56856 0.1272 0.16204 0.0
Eu2 Eu 0.57094 0.13292 0.99934 0.0
C3 C 0.55377 0.18466 0.16485 0.0
O4 O 0.57015 0.18907 0.18636 0.0
C5 C 0.59671 0.16305 0.0988 0.0
O6 O 0.5887 0.09568 0.98909 0.0
C7 C 0.5631 0.15345 0.89226 0.0
C8 C 0.5823 0.07484 0.95807 0.0
O9 O 0.56574 0.07638 0.93591 0.0
C10 C 0.54624 0.09181 0.07234 0.0
C11 C 0.55182 0.15084 0.83594 0.0
C12 C 0.53638 0.16734 0.82914 0.0
C13 C 0.52692 0.16848 0.7728 0.0
C14 C 0.53276 0.15214 0.72384 0.0
C15 C 0.54809 0.1356 0.72961 0.0
C16 C 0.55769 0.13511 0.78555 0.0
O17 O 0.59493 0.14279 0.13711 0.0
O18 O 0.58594 0.16567 0.05079 0.0
O19 O 0.55814 0.13736 0.25325 0.0
O20 O 0.57803 0.10667 0.24609 0.0
C21 C 0.56787 0.12028 0.28406 0.0
O22 O 0.54574 0.11201 0.03321 0.0
O23 O 0.55803 0.09131 0.11776 0.0
O24 O 0.5765 0.13634 0.90076 0.0
O25 O 0.55483 0.1603 0.9437 0.0
H26 H 0.53212 0.18015 0.86706 0.0
H27 H 0.52621 0.15379 0.67915 0.0
H28 H 0.56999 0.12321 0.78888 0.0
O29 O 0.45527 0.8648 0.12777 0.0
Tb30 Tb 0.43844 0.90054 0.14004 0.0
Eu31 Eu 0.43682 0.8923 0.97857 0.0
C32 C 0.45047 0.8427 0.15717 0.0
O33 O 0.43517 0.84259 0.18806 0.0
C34 C 0.41025 0.86395 0.07826 0.0
O35 O 0.41821 0.9283 0.96683 0.0
C36 C 0.44438 0.8696 0.87365 0.0
C37 C 0.42434 0.94961 0.93721 0.0
O38 O 0.44104 0.94906 0.91602 0.0
C39 C 0.45905 0.93617 0.04956 0.0
C40 C 0.45496 0.86785 0.81573 0.0
C41 C 0.46944 0.84934 0.81206 0.0
C42 C 0.47744 0.84295 0.75501 0.0
C43 C 0.47102 0.85566 0.70167 0.0
C44 C 0.4566 0.87401 0.70423 0.0
C45 C 0.44871 0.88041 0.76136 0.0
O46 O 0.41221 0.88398 0.11725 0.0
O47 O 0.42115 0.8607 0.03087 0.0
O48 O 0.42519 0.91151 0.22707 0.0
O49 O 0.45361 0.90491 0.22599 0.0
C50 C 0.43982 0.911 0.26058 0.0
O51 O 0.4612 0.91537 0.01259 0.0
O52 O 0.44575 0.93651 0.08971 0.0
O53 O 0.43186 0.88832 0.87962 0.0
O54 O 0.45251 0.86335 0.92579 0.0
H55 H 0.474 0.83896 0.85327 0.0
H56 H 0.47662 0.85023 0.65703 0.0
H57 H 0.43707 0.89376 0.76272 0.0
O58 O 0.69657 0.40851 0.41016 0.0
Tb59 Tb 0.68085 0.37171 0.41914 0.0
Eu60 Eu 0.6807 0.38397 0.26038 0.0
C61 C 0.71439 0.40869 0.41216 0.0
O62 O 0.72337 0.38582 0.4102 0.0
C63 C 0.65527 0.41283 0.36156 0.0
O64 O 0.66375 0.34644 0.24964 0.0
C65 C 0.68594 0.40589 0.15343 0.0
C66 C 0.67038 0.3269 0.2151 0.0
O67 O 0.68643 0.33022 0.18994 0.0
C68 C 0.70403 0.33946 0.32601 0.0
C69 C 0.69241 0.40767 0.08907 0.0
C70 C 0.70317 0.43005 0.0736 0.0
C71 C 0.7068 0.43608 0.01183 0.0
C72 C 0.70029 0.41922 0.9654 0.0
C73 C 0.68962 0.39676 0.97953 0.0
C74 C 0.68571 0.39076 0.04162 0.0
O75 O 0.65534 0.39091 0.39556 0.0
O76 O 0.66753 0.41637 0.31832 0.0
O77 O 0.66795 0.35524 0.50234 0.0
O78 O 0.69452 0.37137 0.50839 0.0
C79 C 0.68145 0.36029 0.53939 0.0
O80 O 0.70552 0.36104 0.29116 0.0
O81 O 0.69082 0.33747 0.36651 0.0
O82 O 0.6716 0.39125 0.16634 0.0
O83 O 0.69758 0.40815 0.19918 0.0
H84 H 0.70768 0.44386 0.10933 0.0
H85 H 0.70302 0.4242 0.91748 0.0
H86 H 0.67687 0.37401 0.05249 0.0
O87 O 0.29004 0.58331 0.39838 0.0
Tb88 Tb 0.30305 0.62159 0.3829 0.0
Eu89 Eu 0.32515 0.6403 0.19956 0.0
C90 C 0.28503 0.5665 0.35492 0.0
O91 O 0.28675 0.57309 0.29649 0.0
C92 C 0.33872 0.60981 0.30486 0.0
O93 O 0.34142 0.67617 0.16848 0.0
C94 C 0.31415 0.61111 0.10718 0.0
C95 C 0.34052 0.69888 0.19961 0.0
O96 O 0.3306 0.70029 0.24976 0.0
C97 C 0.28902 0.66696 0.28561 0.0
C98 C 0.3023 0.60685 0.05261 0.0
C99 C 0.28759 0.58879 0.0563 0.0
C100 C 0.27793 0.58127 1.00293 0.0
C101 C 0.28308 0.59219 0.94592 0.0
C102 C 0.29811 0.60934 0.94063 0.0
C103 C 0.30747 0.61698 0.99438 0.0
O104 O 0.3232 0.62205 0.31338 0.0
O105 O 0.34576 0.61613 0.25223 0.0
O106 O 0.32217 0.62655 0.45957 0.0
O107 O 0.29633 0.64551 0.46403 0.0
C108 C 0.31142 0.64124 0.49364 0.0
O109 O 0.30223 0.66565 0.24337 0.0
O110 O 0.28584 0.64959 0.33129 0.0
O111 O 0.32719 0.62906 0.10312 0.0
O112 O 0.30724 0.609 0.16308 0.0
H113 H 0.28402 0.57991 0.10035 0.0
H114 H 0.27582 0.58624 0.9046 0.0
H115 H 0.3194 0.62956 0.9903 0.0
O116 O 0.55155 0.66106 0.64631 0.0
Tb117 Tb 0.56605 0.62336 0.65864 0.0
Eu118 Eu 0.56602 0.63387 0.49823 0.0
C119 C 0.55696 0.68091 0.68234 0.0
O120 O 0.57098 0.67663 0.71857 0.0
C121 C 0.59279 0.66189 0.59809 0.0
O122 O 0.5843 0.59752 0.48706 0.0
C123 C 0.55903 0.65717 0.39325 0.0
C124 C 0.5784 0.57709 0.45376 0.0
O125 O 0.56239 0.57908 0.42753 0.0
C126 C 0.54256 0.5892 0.56801 0.0
C127 C 0.54968 0.65773 0.3326 0.0
C128 C 0.53746 0.679 0.32025 0.0
C129 C 0.52967 0.68227 0.26123 0.0
C130 C 0.53383 0.66316 0.21546 0.0
C131 C 0.54675 0.64295 0.22574 0.0
C132 C 0.55465 0.64013 0.28431 0.0
O133 O 0.59215 0.6403 0.63325 0.0
O134 O 0.58062 0.66566 0.55444 0.0
O135 O 0.55157 0.62656 0.74603 0.0
O136 O 0.57758 0.60808 0.74559 0.0
C137 C 0.56393 0.61536 0.78011 0.0
O138 O 0.54171 0.60925 0.52816 0.0
O139 O 0.55504 0.58834 0.61141 0.0
O140 O 0.57275 0.64058 0.40147 0.0
O141 O 0.54926 0.66101 0.44333 0.0
H142 H 0.53484 0.69381 0.356 0.0
H143 H 0.5278 0.66473 0.16996 0.0
H144 H 0.56501 0.62492 0.29141 0.0
O145 O 0.45227 0.34068 0.62108 0.0
Tb146 Tb 0.44365 0.38229 0.63124 0.0
Eu147 Eu 0.42663 0.39732 0.47216 0.0
C148 C 0.44516 0.3226 0.65824 0.0
O149 O 0.43171 0.32996 0.69434 0.0
C150 C 0.40871 0.35872 0.57467 0.0
O151 O 0.4042 0.4272 0.44964 0.0
C152 C 0.44242 0.3811 0.37222 0.0
C153 C 0.39998 0.44669 0.48864 0.0
O154 O 0.40752 0.44676 0.54361 0.0
C155 C 0.45795 0.42865 0.54759 0.0
C156 C 0.45119 0.37257 0.31379 0.0
C157 C 0.46213 0.34914 0.31107 0.0
C158 C 0.46963 0.3405 0.2543 0.0
C159 C 0.4669 0.35655 0.20177 0.0
C160 C 0.45575 0.37931 0.20351 0.0
C161 C 0.44773 0.38717 0.25928 0.0
O162 O 0.41475 0.37598 0.61589 0.0
O163 O 0.41332 0.36113 0.51633 0.0
O164 O 0.45552 0.3743 0.72161 0.0
O165 O 0.43782 0.40776 0.71218 0.0
C166 C 0.44772 0.394 0.75081 0.0
O167 O 0.44241 0.4309 0.51834 0.0
O168 O 0.4625 0.40641 0.57675 0.0
O169 O 0.42654 0.3932 0.37226 0.0
O170 O 0.45004 0.37818 0.42688 0.0
H171 H 0.46411 0.33714 0.3523 0.0
H172 H 0.47303 0.35089 0.15809 0.0
H173 H 0.43887 0.40464 0.26013 0.0
O174 O 0.70008 0.90725 0.89045 0.0
Tb175 Tb 0.68412 0.87068 0.89978 0.0
Eu176 Eu 0.68381 0.88196 0.73964 0.0
C177 C 0.69587 0.92686 0.92903 0.0
O178 O 0.68195 0.92329 0.96599 0.0
C179 C 0.65805 0.91124 0.84166 0.0
O180 O 0.66505 0.84602 0.7272 0.0
C181 C 0.69171 0.90539 0.63568 0.0
C182 C 0.67097 0.82477 0.69644 0.0
O183 O 0.68749 0.82545 0.6737 0.0
C184 C 0.70594 0.83632 0.80763 0.0
C185 C 0.70124 0.9079 0.57552 0.0
C186 C 0.71531 0.92702 0.56977 0.0
C187 C 0.72253 0.93366 0.51157 0.0
C188 C 0.71553 0.92081 0.45913 0.0
C189 C 0.70153 0.90188 0.46359 0.0
C190 C 0.69454 0.89513 0.5219 0.0
O191 O 0.65847 0.88945 0.8761 0.0
O192 O 0.66956 0.91434 0.79577 0.0
O193 O 0.67093 0.85868 0.98635 0.0
O194 O 0.69912 0.86716 0.98628 0.0
C195 C 0.68544 0.86026 0.02052 0.0
O196 O 0.70796 0.85762 0.77211 0.0
O197 O 0.69264 0.83534 0.84792 0.0
O198 O 0.67814 0.88843 0.64171 0.0
O199 O 0.70094 0.90918 0.68694 0.0
H200 H 0.72024 0.93742 0.61048 0.0
H201 H 0.7205 0.92634 0.41374 0.0
H202 H 0.6833 0.88116 0.52493 0.0
O203 O 0.30235 0.11046 0.88349 0.0
Tb204 Tb 0.31747 0.14779 0.89595 0.0
Eu205 Eu 0.31882 0.13967 0.73496 0.0
C206 C 0.30692 0.09061 0.92091 0.0
O207 O 0.32099 0.09422 0.95726 0.0
C208 C 0.34509 0.11054 0.83554 0.0
O209 O 0.33751 0.17567 0.72124 0.0
C210 C 0.31092 0.11614 0.63105 0.0
C211 C 0.33129 0.19742 0.69315 0.0
O212 O 0.31432 0.19755 0.67462 0.0
C213 C 0.29541 0.18311 0.8066 0.0
C214 C 0.30089 0.11511 0.57181 0.0
C215 C 0.2873 0.09542 0.56374 0.0
C216 C 0.2796 0.09056 0.5052 0.0
C217 C 0.28544 0.10614 0.45507 0.0
C218 C 0.29887 0.12578 0.46236 0.0
C219 C 0.30662 0.13028 0.52052 0.0
O220 O 0.34379 0.13136 0.87277 0.0
O221 O 0.33372 0.10746 0.78922 0.0
O222 O 0.32923 0.16155 0.98366 0.0
O223 O 0.30215 0.14705 0.98186 0.0
C224 C 0.31493 0.15647 0.01693 0.0
O225 O 0.29417 0.16292 0.76741 0.0
O226 O 0.30845 0.18366 0.84783 0.0
O227 O 0.32442 0.13322 0.63731 0.0
O228 O 0.30193 0.1119 0.68251 0.0
H229 H 0.28318 0.0832 0.60272 0.0
H230 H 0.28033 0.10201 0.40905 0.0
H231 H 0.31757 0.14469 0.52495 0.0
O232 O 0.05229 0.1521 0.63619 0.0
Tb233 Tb 0.06932 0.1167 0.64798 0.0
Eu234 Eu 0.07002 0.12811 0.48671 0.0
C235 C 0.05682 0.17423 0.66603 0.0
O236 O 0.07207 0.17478 0.69732 0.0
C237 C 0.09586 0.15625 0.58929 0.0
O238 O 0.08883 0.09231 0.47252 0.0
C239 C 0.0619 0.15231 0.3838 0.0
C240 C 0.0828 0.07102 0.44229 0.0
O241 O 0.0661 0.0715 0.42117 0.0
C242 C 0.0478 0.08266 0.55549 0.0
C243 C 0.05223 0.15506 0.32397 0.0
C244 C 0.03825 0.17443 0.31867 0.0
C245 C 0.0308 0.18097 0.26075 0.0
C246 C 0.03753 0.16797 0.2081 0.0
C247 C 0.05153 0.14895 0.21211 0.0
C248 C 0.05871 0.14216 0.27016 0.0
O249 O 0.09511 0.1345 0.62362 0.0
O250 O 0.0844 0.15991 0.54348 0.0
O251 O 0.05426 0.11416 0.73447 0.0
O252 O 0.08235 0.10498 0.73513 0.0
C253 C 0.06785 0.10714 0.76906 0.0
O254 O 0.04596 0.10389 0.51957 0.0
O255 O 0.06099 0.08143 0.59622 0.0
O256 O 0.07549 0.13525 0.38901 0.0
O257 O 0.05277 0.1558 0.43535 0.0
H258 H 0.03354 0.18503 0.35944 0.0
H259 H 0.03235 0.17346 0.16294 0.0
H260 H 0.06991 0.12804 0.2728 0.0
O261 O 0.96953 0.8709 0.65443 0.0
Tb262 Tb 0.94429 0.89338 0.65385 0.0
Eu263 Eu 0.93047 0.89172 0.4833 0.0
C264 C 0.97212 0.85031 0.61718 0.0
O265 O 0.96106 0.84673 0.57033 0.0
C266 C 0.91421 0.85591 0.59466 0.0
O267 O 0.91766 0.93135 0.45646 0.0
C268 C 0.93559 0.86149 0.38651 0.0
C269 C 0.90178 0.939 0.47799 0.0
O270 O 0.89301 0.92306 0.516 0.0
C271 C 0.95671 0.93083 0.55221 0.0
C272 C 0.94647 0.85744 0.32931 0.0
C273 C 0.95911 0.83608 0.32714 0.0
C274 C 0.96818 0.82965 0.27204 0.0
C275 C 0.96433 0.84451 0.21878 0.0
C276 C 0.95216 0.86629 0.21943 0.0
C277 C 0.94312 0.87259 0.27509 0.0
O278 O 0.92934 0.85767 0.62644 0.0
O279 O 0.91029 0.87241 0.54884 0.0
O280 O 0.95296 0.90798 0.74452 0.0
O281 O 0.92578 0.89486 0.73306 0.0
C282 C 0.93752 0.90446 0.77226 0.0
O283 O 0.95664 0.91214 0.50929 0.0
O284 O 0.945 0.92952 0.59768 0.0
O285 O 0.92386 0.88148 0.3881 0.0
O286 O 0.94357 0.8571 0.44003 0.0
H287 H 0.9617 0.82418 0.36817 0.0
H288 H 0.97045 0.83826 0.17555 0.0
H289 H 0.93339 0.88896 0.27594 0.0
O290 O 0.19673 0.40383 0.91232 0.0
Tb291 Tb 0.18054 0.36733 0.92095 0.0
Eu292 Eu 0.17914 0.37687 0.76043 0.0
C293 C 0.1926 0.42381 0.95006 0.0
O294 O 0.17839 0.42102 0.98609 0.0
C295 C 0.15437 0.4075 0.86155 0.0
O296 O 0.16228 0.33899 0.75288 0.0
C297 C 0.18471 0.39588 0.6504 0.0
C298 C 0.16891 0.31922 0.71896 0.0
O299 O 0.18499 0.32243 0.6939 0.0
C300 C 0.20374 0.3346 0.82866 0.0
C301 C 0.19394 0.39166 0.59049 0.0
C302 C 0.20852 0.40866 0.5756 0.0
C303 C 0.21633 0.40808 0.51669 0.0
C304 C 0.20997 0.38968 0.473 0.0
C305 C 0.19506 0.37322 0.48598 0.0
C306 C 0.18696 0.3742 0.54474 0.0
O307 O 0.15488 0.38607 0.8971 0.0
O308 O 0.16572 0.41014 0.81515 0.0
O309 O 0.19397 0.3675 0.01067 0.0
O310 O 0.16766 0.35047 1.00379 0.0
C311 C 0.18096 0.35606 0.04124 0.0
O312 O 0.20456 0.35572 0.79219 0.0
O313 O 0.19084 0.33268 0.87029 0.0
O314 O 0.17069 0.38074 0.66428 0.0
O315 O 0.19498 0.40168 0.69827 0.0
H316 H 0.21321 0.42348 0.60883 0.0
H317 H 0.21546 0.39008 0.42647 0.0
H318 H 0.17493 0.36231 0.55367 0.0
O319 O 0.7778 0.61678 0.89059 0.0
Tb320 Tb 0.80421 0.63538 0.89884 0.0
Eu321 Eu 0.82157 0.63941 0.73568 0.0
C322 C 0.775 0.59607 0.854 0.0
O323 O 0.78678 0.59067 0.81023 0.0
C324 C 0.83509 0.59981 0.84244 0.0
O325 O 0.83701 0.67563 0.70045 0.0
C326 C 0.81625 0.60681 0.64306 0.0
C327 C 0.83784 0.69847 0.73128 0.0
O328 O 0.83019 0.70015 0.78583 0.0
C329 C 0.79324 0.67856 0.80374 0.0
C330 C 0.80703 0.60237 0.58275 0.0
C331 C 0.79362 0.58219 0.57816 0.0
C332 C 0.78662 0.57438 0.52029 0.0
C333 C 0.79326 0.58702 0.46707 0.0
C334 C 0.80641 0.60723 0.47039 0.0
C335 C 0.81318 0.61516 0.52826 0.0
O336 O 0.81889 0.60004 0.86731 0.0
O337 O 0.84041 0.6193 0.80535 0.0
O338 O 0.79348 0.63606 0.99248 0.0
O339 O 0.82165 0.64272 0.97978 0.0
C340 C 0.80872 0.64065 0.02059 0.0
O341 O 0.79569 0.66282 0.7554 0.0
O342 O 0.80238 0.67457 0.85501 0.0
O343 O 0.82946 0.62451 0.64528 0.0
O344 O 0.80654 0.606 0.69405 0.0
H345 H 0.78901 0.57208 0.61959 0.0
H346 H 0.78865 0.58051 0.42189 0.0
H347 H 0.82377 0.63025 0.53031 0.0
O348 O 0.04964 0.65411 0.15457 0.0
Tb349 Tb 0.06704 0.61869 0.15879 0.0
Eu350 Eu 0.0666 0.62967 1.00171 0.0
C351 C 0.05307 0.67301 0.19578 0.0
O352 O 0.06733 0.66992 0.23154 0.0
C353 C 0.0915 0.66178 0.09984 0.0
O354 O 0.08452 0.59258 0.99713 0.0
C355 C 0.05992 0.64606 0.89108 0.0
C356 C 0.07866 0.57202 0.96404 0.0
O357 O 0.06275 0.57409 0.93711 0.0
C358 C 0.04427 0.5852 0.0688 0.0
C359 C 0.05614 0.65534 0.82774 0.0
C360 C 0.04649 0.67951 0.81803 0.0
C361 C 0.04378 0.68923 0.75789 0.0
C362 C 0.0502 0.67419 0.70779 0.0
C363 C 0.05982 0.65017 0.71654 0.0
C364 C 0.06271 0.64062 0.77668 0.0
O365 O 0.09175 0.64022 0.13524 0.0
O366 O 0.07984 0.66394 0.054 0.0
O367 O 0.08083 0.60395 0.24209 0.0
O368 O 0.05298 0.61469 0.24667 0.0
C369 C 0.06675 0.60591 0.27816 0.0
O370 O 0.04209 0.60703 0.03541 0.0
O371 O 0.058 0.58359 0.10723 0.0
O372 O 0.07435 0.63165 0.9046 0.0
O373 O 0.04919 0.6518 0.93782 0.0
H374 H 0.04168 0.69117 0.85712 0.0
H375 H 0.04758 0.68121 0.66118 0.0
H376 H 0.07019 0.62204 0.78364 0.0
O377 O 0.95067 0.35658 0.13428 0.0
Tb378 Tb 0.9352 0.39374 0.14385 0.0
Eu379 Eu 0.93301 0.38495 0.97694 0.0
C380 C 0.94633 0.33723 0.17318 0.0
O381 O 0.9322 0.34106 0.20916 0.0
C382 C 0.90741 0.35663 0.08266 0.0
O383 O 0.91574 0.42053 0.946 0.0
C384 C 0.9426 0.35814 0.87887 0.0
C385 C 0.90836 0.43826 0.9838 0.0
O386 O 0.90985 0.4347 0.04364 0.0
C387 C 0.9559 0.4297 0.05039 0.0
C388 C 0.95193 0.35634 0.81842 0.0
C389 C 0.96494 0.33579 0.81008 0.0
C390 C 0.97254 0.33064 0.75157 0.0
C391 C 0.96728 0.34705 0.70201 0.0
C392 C 0.95353 0.36631 0.70835 0.0
C393 C 0.94608 0.37144 0.76687 0.0
O394 O 0.90891 0.37744 0.11984 0.0
O395 O 0.91814 0.35373 0.03447 0.0
O396 O 0.92229 0.40569 0.23113 0.0
O397 O 0.95046 0.39708 0.22994 0.0
C398 C 0.9369 0.4041 0.26472 0.0
O399 O 0.95692 0.41002 0.00955 0.0
O400 O 0.94365 0.42953 0.09441 0.0
O401 O 0.92749 0.37209 0.88282 0.0
O402 O 0.95243 0.3588 0.92953 0.0
H403 H 0.96832 0.32286 0.84871 0.0
H404 H 0.97327 0.34411 0.65678 0.0
H405 H 0.93519 0.386 0.77139 0.0
O406 O 0.2042 0.90965 0.38181 0.0
Tb407 Tb 0.18951 0.87211 0.39599 0.0
Eu408 Eu 0.1863 0.87944 0.23443 0.0
C409 C 0.19926 0.92977 0.41805 0.0
O410 O 0.18522 0.92605 0.45443 0.0
C411 C 0.16132 0.90893 0.33762 0.0
O412 O 0.16638 0.84496 0.22157 0.0
C413 C 0.19441 0.90411 0.13235 0.0
C414 C 0.171 0.82458 0.18562 0.0
O415 O 0.18665 0.8257 0.15681 0.0
C416 C 0.21002 0.83403 0.30342 0.0
C417 C 0.20432 0.90567 0.07299 0.0
C418 C 0.2177 0.92573 0.06545 0.0
C419 C 0.22552 0.93072 0.00722 0.0
C420 C 0.21996 0.91501 0.95683 0.0
C421 C 0.20669 0.89511 0.96356 0.0
C422 C 0.19884 0.89042 0.02142 0.0
O423 O 0.16284 0.88797 0.37421 0.0
O424 O 0.17251 0.91201 0.29095 0.0
O425 O 0.20447 0.87481 0.48255 0.0
O426 O 0.17793 0.85827 0.48369 0.0
C427 C 0.1919 0.86468 0.51735 0.0
O428 O 0.21003 0.8526 0.25996 0.0
O429 O 0.1994 0.83553 0.35205 0.0
O430 O 0.18053 0.88761 0.13752 0.0
O431 O 0.20368 0.90705 0.18379 0.0
H432 H 0.22161 0.93802 0.10466 0.0
H433 H 0.22519 0.91921 0.91103 0.0
H434 H 0.18806 0.87569 0.02549 0.0
O435 O 0.7995 0.11233 0.38896 0.0
Tb436 Tb 0.81483 0.14961 0.39786 0.0
Eu437 Eu 0.81512 0.1398 0.23634 0.0
C438 C 0.80429 0.09283 0.427 0.0
O439 O 0.81839 0.0969 0.46299 0.0
C440 C 0.841 0.11073 0.33698 0.0
O441 O 0.83401 0.17537 0.22253 0.0
C442 C 0.80724 0.11587 0.13307 0.0
C443 C 0.82812 0.19644 0.19125 0.0
O444 O 0.81147 0.19593 0.16958 0.0
C445 C 0.79294 0.18468 0.30715 0.0
C446 C 0.79808 0.11319 0.0725 0.0
C447 C 0.78458 0.09331 0.0656 0.0
C448 C 0.7778 0.08648 0.00692 0.0
C449 C 0.78464 0.09992 0.95513 0.0
C450 C 0.79805 0.11971 0.96098 0.0
C451 C 0.80463 0.12662 0.01972 0.0
O452 O 0.84068 0.13239 0.37181 0.0
O453 O 0.82901 0.1075 0.29266 0.0
O454 O 0.79979 0.15261 0.48419 0.0
O455 O 0.82791 0.16168 0.48464 0.0
C456 C 0.81339 0.15974 0.51858 0.0
O457 O 0.79108 0.16419 0.26905 0.0
O458 O 0.80625 0.18514 0.34745 0.0
O459 O 0.82109 0.13231 0.13921 0.0
O460 O 0.79764 0.11294 0.18378 0.0
H461 H 0.77977 0.08248 0.10582 0.0
H462 H 0.78003 0.09425 0.90934 0.0
H463 H 0.81545 0.14127 0.0237 0.0
C464 C 0.54425 0.23285 0.16459 0.0
C465 C 0.53978 0.20572 0.17366 0.0
C466 C 0.53198 0.25354 0.17977 0.0
C467 C 0.51508 0.24699 0.20702 0.0
C468 C 0.51053 0.21955 0.21656 0.0
C469 C 0.52283 0.1992 0.1988 0.0
C470 C 0.53714 0.28242 0.16672 0.0
C471 C 0.49293 0.21175 0.2473 0.0
C472 C 0.49232 0.30566 0.29151 0.0
C473 C 0.47977 0.3145 0.24718 0.0
C474 C 0.5033 0.28283 0.28049 0.0
C475 C 0.50199 0.26893 0.2233 0.0
C476 C 0.48882 0.27708 0.1797 0.0
C477 C 0.47765 0.29925 0.19278 0.0
C478 C 0.51673 0.27415 0.32918 0.0
C479 C 0.48708 0.26325 0.11775 0.0
H480 H 0.55743 0.2379 0.14568 0.0
H481 H 0.51954 0.17823 0.20731 0.0
H482 H 0.52667 0.29206 0.13722 0.0
H483 H 0.53776 0.294 0.21052 0.0
H484 H 0.55048 0.28403 0.14319 0.0
H485 H 0.49151 0.18957 0.25218 0.0
H486 H 0.49217 0.22109 0.29385 0.0
H487 H 0.48125 0.21951 0.22036 0.0
H488 H 0.49403 0.31708 0.3338 0.0
H489 H 0.46751 0.30515 0.15912 0.0
H490 H 0.53071 0.27843 0.31315 0.0
H491 H 0.51577 0.2521 0.3371 0.0
H492 H 0.51452 0.28478 0.37377 0.0
H493 H 0.49996 0.26534 0.09169 0.0
H494 H 0.47591 0.27177 0.08937 0.0
H495 H 0.48461 0.24139 0.12404 0.0
C496 C 0.45599 0.7933 0.16306 0.0
C497 C 0.46292 0.81956 0.16388 0.0
C498 C 0.46706 0.77107 0.17713 0.0
C499 C 0.48531 0.77534 0.19502 0.0
C500 C 0.4924 0.8019 0.19572 0.0
C501 C 0.48118 0.82369 0.17903 0.0
C502 C 0.45914 0.74306 0.17345 0.0
C503 C 0.51159 0.8074 0.21652 0.0
C504 C 0.50722 0.71909 0.28926 0.0
C505 C 0.51841 0.70652 0.24523 0.0
C506 C 0.49678 0.74194 0.27408 0.0
C507 C 0.49697 0.75197 0.21282 0.0
C508 C 0.50813 0.73942 0.16815 0.0
C509 C 0.519 0.71742 0.18521 0.0
C510 C 0.48551 0.75532 0.32365 0.0
C511 C 0.50845 0.74901 0.10194 0.0
H512 H 0.44181 0.79019 0.1517 0.0
H513 H 0.48641 0.84408 0.18099 0.0
H514 H 0.4677 0.73011 0.14341 0.0
H515 H 0.45899 0.73375 0.21998 0.0
H516 H 0.44508 0.7431 0.15501 0.0
H517 H 0.515 0.82919 0.21483 0.0
H518 H 0.51346 0.80013 0.26456 0.0
H519 H 0.52135 0.79621 0.18712 0.0
H520 H 0.50644 0.71099 0.3356 0.0
H521 H 0.52806 0.70889 0.15102 0.0
H522 H 0.4709 0.7534 0.31235 0.0
H523 H 0.48865 0.77718 0.3258 0.0
H524 H 0.4879 0.74637 0.36995 0.0
H525 H 0.49449 0.74906 0.08274 0.0
H526 H 0.51715 0.73616 0.07206 0.0
H527 H 0.51353 0.77 0.09976 0.0
C528 C 0.74162 0.43866 0.40746 0.0
C529 C 0.72392 0.43395 0.42806 0.0
C530 C 0.751 0.46209 0.42515 0.0
C531 C 0.7427 0.48066 0.46626 0.0
C532 C 0.72491 0.47574 0.48788 0.0
C533 C 0.71562 0.45268 0.46765 0.0
C534 C 0.76973 0.46708 0.3995 0.0
C535 C 0.71581 0.49455 0.53326 0.0
C536 C 0.77528 0.52809 0.54861 0.0
C537 C 0.77352 0.55166 0.51328 0.0
C538 C 0.76472 0.50518 0.53569 0.0
C539 C 0.75249 0.50559 0.48521 0.0
C540 C 0.75012 0.52961 0.45103 0.0
C541 C 0.76036 0.55245 0.46632 0.0
C542 C 0.76716 0.48022 0.57463 0.0
C543 C 0.73743 0.53085 0.39631 0.0
H544 H 0.74805 0.42416 0.37696 0.0
H545 H 0.70203 0.44883 0.48458 0.0
H546 H 0.77007 0.48683 0.37549 0.0
H547 H 0.77974 0.46801 0.43768 0.0
H548 H 0.77403 0.45113 0.36651 0.0
H549 H 0.70215 0.48737 0.54714 0.0
H550 H 0.72432 0.49661 0.5753 0.0
H551 H 0.71441 0.51494 0.51287 0.0
H552 H 0.78543 0.52708 0.58473 0.0
H553 H 0.75848 0.57077 0.43984 0.0
H554 H 0.77391 0.46426 0.54696 0.0
H555 H 0.75379 0.47226 0.5893 0.0
H556 H 0.77551 0.48415 0.61642 0.0
H557 H 0.7419 0.51621 0.36059 0.0
H558 H 0.73691 0.55124 0.37519 0.0
H559 H 0.72351 0.52508 0.41034 0.0
C560 C 0.28104 0.53082 0.43364 0.0
C561 C 0.27742 0.54037 0.37394 0.0
C562 C 0.27285 0.50741 0.4559 0.0
C563 C 0.26036 0.49353 0.41801 0.0
C564 C 0.25712 0.50244 0.35679 0.0
C565 C 0.26587 0.52573 0.33514 0.0
C566 C 0.27695 0.49829 0.521 0.0
C567 C 0.24371 0.48823 0.31539 0.0
C568 C 0.24481 0.42369 0.46548 0.0
C569 C 0.22865 0.42975 0.49658 0.0
C570 C 0.25546 0.4443 0.44004 0.0
C571 C 0.24949 0.47136 0.44475 0.0
C572 C 0.23322 0.47752 0.47652 0.0
C573 C 0.22307 0.45662 0.50248 0.0
C574 C 0.27297 0.43716 0.40782 0.0
C575 C 0.22635 0.50614 0.48208 0.0
H576 H 0.29006 0.54197 0.46373 0.0
H577 H 0.26304 0.5331 0.28903 0.0
H578 H 0.26491 0.50174 0.5507 0.0
H579 H 0.27997 0.47637 0.52189 0.0
H580 H 0.28863 0.50929 0.54139 0.0
H581 H 0.24387 0.49628 0.26753 0.0
H582 H 0.24665 0.4663 0.31376 0.0
H583 H 0.22983 0.49067 0.33445 0.0
H584 H 0.249 0.40283 0.46069 0.0
H585 H 0.21036 0.46119 0.52541 0.0
H586 H 0.28441 0.44828 0.42922 0.0
H587 H 0.27229 0.44338 0.35868 0.0
H588 H 0.27596 0.41522 0.40983 0.0
H589 H 0.2364 0.51868 0.50709 0.0
H590 H 0.2132 0.50737 0.50697 0.0
H591 H 0.22459 0.51503 0.43546 0.0
C592 C 0.50534 0.82309 0.70683 0.0
C593 C 0.49097 0.82086 0.74903 0.0
C594 C 0.51668 0.80108 0.69399 0.0
C595 C 0.5138 0.77638 0.725 0.0
C596 C 0.49984 0.77429 0.76958 0.0
C597 C 0.4885 0.7965 0.78075 0.0
C598 C 0.53141 0.80403 0.64606 0.0
C599 C 0.49658 0.74838 0.80437 0.0
C600 C 0.53066 0.71072 0.65469 0.0
C601 C 0.54656 0.70627 0.68869 0.0
C602 C 0.52003 0.73383 0.66508 0.0
C603 C 0.5254 0.75268 0.71081 0.0
C604 C 0.54165 0.74858 0.74411 0.0
C605 C 0.55208 0.72553 0.73237 0.0
C606 C 0.50289 0.73784 0.62802 0.0
C607 C 0.54777 0.76813 0.79347 0.0
H608 H 0.50747 0.84197 0.68275 0.0
H609 H 0.47727 0.79442 0.81265 0.0
H610 H 0.5448 0.79901 0.66643 0.0
H611 H 0.52902 0.78964 0.60762 0.0
H612 H 0.53203 0.82475 0.62677 0.0
H613 H 0.48574 0.75048 0.83966 0.0
H614 H 0.49266 0.7322 0.77157 0.0
H615 H 0.50923 0.74177 0.82768 0.0
H616 H 0.52636 0.69595 0.6208 0.0
H617 H 0.56438 0.72233 0.75876 0.0
H618 H 0.50308 0.75786 0.60522 0.0
H619 H 0.49096 0.7375 0.65922 0.0
H620 H 0.50109 0.72205 0.59213 0.0
H621 H 0.54878 0.78878 0.77421 0.0
H622 H 0.56111 0.7625 0.81355 0.0
H623 H 0.53759 0.76881 0.83118 0.0
C624 C 0.44912 0.28025 0.71897 0.0
C625 C 0.45455 0.29667 0.66959 0.0
C626 C 0.4595 0.2579 0.73703 0.0
C627 C 0.47557 0.25158 0.70438 0.0
C628 C 0.48059 0.26717 0.65237 0.0
C629 C 0.47006 0.28963 0.63575 0.0
C630 C 0.45376 0.24189 0.79297 0.0
C631 C 0.49747 0.26073 0.61569 0.0
C632 C 0.51431 0.21525 0.78444 0.0
C633 C 0.51241 0.18888 0.76178 0.0
C634 C 0.50203 0.23562 0.76778 0.0
C635 C 0.48768 0.22963 0.72655 0.0
C636 C 0.48532 0.20293 0.705 0.0
C637 C 0.49759 0.18283 0.7234 0.0
C638 C 0.50481 0.26379 0.79261 0.0
C639 C 0.47025 0.19582 0.66065 0.0
H640 H 0.43712 0.28549 0.74536 0.0
H641 H 0.47431 0.30214 0.59741 0.0
H642 H 0.4535 0.22004 0.78214 0.0
H643 H 0.46376 0.24487 0.83067 0.0
H644 H 0.44016 0.24801 0.81012 0.0
H645 H 0.4987 0.27344 0.57369 0.0
H646 H 0.50964 0.26399 0.64489 0.0
H647 H 0.49747 0.23922 0.60155 0.0
H648 H 0.52583 0.22034 0.81322 0.0
H649 H 0.49584 0.16244 0.70639 0.0
H650 H 0.49209 0.27141 0.8138 0.0
H651 H 0.50832 0.27759 0.75418 0.0
H652 H 0.51579 0.26468 0.82768 0.0
H653 H 0.45696 0.20217 0.67975 0.0
H654 H 0.46975 0.17388 0.65047 0.0
H655 H 0.4722 0.20686 0.61662 0.0
C656 C 0.72341 0.95449 0.90298 0.0
C657 C 0.70726 0.95126 0.93632 0.0
C658 C 0.73477 0.9768 0.91372 0.0
C659 C 0.72988 0.99617 0.95901 0.0
C660 C 0.71344 0.99322 0.99189 0.0
C661 C 0.70234 0.97092 0.98 0.0
C662 C 0.75211 0.97948 0.87724 0.0
C663 C 0.70773 0.01339 0.04055 0.0
C664 C 0.76689 0.03961 0.03026 0.0
C665 C 0.76472 0.06394 0.99812 0.0
C666 C 0.75561 0.01741 0.01815 0.0
C667 C 0.74194 0.01951 0.97243 0.0
C668 C 0.73951 0.04411 0.94045 0.0
C669 C 0.75083 0.06605 0.95398 0.0
C670 C 0.75848 0.9916 0.05376 0.0
C671 C 0.72508 0.04718 0.89143 0.0
H672 H 0.72731 0.93942 0.86919 0.0
H673 H 0.68986 0.96869 0.00594 0.0
H674 H 0.75239 0.99919 0.85311 0.0
H675 H 0.76392 0.97898 0.90898 0.0
H676 H 0.75372 0.96315 0.84248 0.0
H677 H 0.69437 0.00841 0.06127 0.0
H678 H 0.71801 0.01409 0.07793 0.0
H679 H 0.70692 0.03388 0.02027 0.0
H680 H 0.77775 0.03762 0.06369 0.0
H681 H 0.7489 0.08488 0.92949 0.0
H682 H 0.76196 0.975 0.02146 0.0
H683 H 0.74578 0.98582 0.07772 0.0
H684 H 0.76948 0.99341 0.08861 0.0
H685 H 0.72721 0.03201 0.85439 0.0
H686 H 0.72509 0.06758 0.87032 0.0
H687 H 0.7115 0.04338 0.91159 0.0
C688 C 0.23534 0.97873 0.0251 0.0
C689 C 0.23831 0.9536 0.99689 0.0
C690 C 0.24641 1.00101 0.01156 0.0
C691 C 0.26069 0.99825 0.96822 0.0
C692 C 0.26387 0.97292 0.94003 0.0
C693 C 0.25278 0.95091 0.95509 0.0
C694 C 0.24274 0.02758 0.04334 0.0
C695 C 0.27894 0.96909 0.89359 0.0
C696 C 0.27972 0.06208 0.89425 0.0
C697 C 0.29547 0.06625 0.92927 0.0
C698 C 0.26834 0.03985 0.90586 0.0
C699 C 0.27274 0.02158 0.95399 0.0
C700 C 0.28872 0.02557 0.98887 0.0
C701 C 0.29991 0.04767 0.97585 0.0
C702 C 0.25153 0.03601 0.86707 0.0
C703 C 0.29388 1.00674 0.04082 0.0
H704 H 0.22405 0.98123 0.05662 0.0
H705 H 0.25538 0.93152 0.93367 0.0
H706 H 0.25502 0.0343 0.06863 0.0
H707 H 0.23955 0.04326 0.0085 0.0
H708 H 0.23128 0.02632 0.07651 0.0
H709 H 0.27932 0.94829 0.87453 0.0
H710 H 0.27723 0.98348 0.85482 0.0
H711 H 0.29222 0.97347 0.91544 0.0
H712 H 0.27617 0.0763 0.85824 0.0
H713 H 0.31203 0.05065 1.00335 0.0
H714 H 0.2393 0.03696 0.89682 0.0
H715 H 0.25174 0.01577 0.84515 0.0
H716 H 0.25026 0.05151 0.83033 0.0
H717 H 0.28301 1.00654 0.07622 0.0
H718 H 0.30681 0.01261 0.06345 0.0
H719 H 0.29529 0.98585 0.02308 0.0
C720 C 0.98418 0.29345 0.68289 0.0
C721 C 0.98473 0.30696 0.74012 0.0
C722 C 0.996 0.27213 0.66942 0.0
C723 C 0.00806 0.2628 0.7154 0.0
C724 C 0.0082 0.27535 0.77426 0.0
C725 C 0.99679 0.29759 0.78554 0.0
C726 C 0.9957 0.25979 0.60555 0.0
C727 C 0.02038 0.26525 0.82532 0.0
C728 C 0.02613 0.19167 0.69202 0.0
C729 C 0.04395 0.19671 0.67309 0.0
C730 C 0.01443 0.21301 0.70753 0.0
C731 C 0.02053 0.23995 0.70146 0.0
C732 C 0.03839 0.24506 0.68041 0.0
C733 C 0.05003 0.22331 0.66785 0.0
C734 C 0.99575 0.20673 0.73211 0.0
C735 C 0.04518 0.27345 0.67095 0.0
H736 H 0.97444 0.29943 0.64806 0.0
H737 H 0.99748 0.30773 0.82981 0.0
H738 H 0.00953 0.26009 0.5853 0.0
H739 H 0.99142 0.23841 0.6082 0.0
H740 H 0.98635 0.27058 0.57379 0.0
H741 H 0.01786 0.27584 0.86977 0.0
H742 H 0.01829 0.24331 0.83231 0.0
H743 H 0.03478 0.26816 0.81233 0.0
H744 H 0.02163 0.17101 0.69744 0.0
H745 H 0.06391 0.22706 0.65365 0.0
H746 H 0.98524 0.21526 0.70113 0.0
H747 H 0.99391 0.21627 0.7781 0.0
H748 H 0.99338 0.18471 0.7366 0.0
H749 H 0.03605 0.28438 0.63876 0.0
H750 H 0.05918 0.27391 0.65202 0.0
H751 H 0.04504 0.28458 0.7154 0.0
C752 C 0.04228 0.73317 0.70279 0.0
C753 C 0.03463 0.71527 0.74554 0.0
C754 C 0.03286 0.75611 0.68313 0.0
C755 C 0.01541 0.76145 0.70726 0.0
C756 C 0.00792 0.74414 0.75261 0.0
C757 C 0.01767 0.72118 0.77135 0.0
C758 C 0.04132 0.77406 0.63481 0.0
C759 C 0.98935 0.7493 0.77947 0.0
C760 C 0.99608 0.83188 0.68732 0.0
C761 C 0.9846 0.82843 0.6362 0.0
C762 C 0.00622 0.81026 0.71093 0.0
C763 C 0.00477 0.78457 0.68294 0.0
C764 C 0.9935 0.78105 0.63062 0.0
C765 C 0.98361 0.80305 0.60769 0.0
C766 C 0.01826 0.81478 0.76641 0.0
C767 C 0.99161 0.7539 0.59953 0.0
H768 H 0.05552 0.72879 0.68342 0.0
H769 H 0.01171 0.70727 0.80411 0.0
H770 H 0.03303 0.77356 0.59205 0.0
H771 H 0.04158 0.79526 0.65119 0.0
H772 H 0.05538 0.76779 0.62306 0.0
H773 H 0.98593 0.73485 0.81683 0.0
H774 H 0.98854 0.77009 0.79826 0.0
H775 H 0.97897 0.74762 0.74257 0.0
H776 H 0.99688 0.85139 0.70975 0.0
H777 H 0.97467 0.80012 0.56853 0.0
H778 H 0.03243 0.80903 0.75524 0.0
H779 H 0.0138 0.80174 0.8051 0.0
H780 H 0.0181 0.83609 0.78225 0.0
H781 H 0.00507 0.74665 0.58366 0.0
H782 H 0.98229 0.75456 0.55921 0.0
H783 H 0.98638 0.7389 0.63303 0.0
C784 C 0.2483 0.56218 0.96645 0.0
C785 C 0.26376 0.55987 1.004 0.0
C786 C 0.23641 0.54043 0.95817 0.0
C787 C 0.23981 0.51582 0.98909 0.0
C788 C 0.25484 0.51376 0.02964 0.0
C789 C 0.26669 0.53576 0.03638 0.0
C790 C 0.22053 0.54351 0.91465 0.0
C791 C 0.25875 0.48803 0.06435 0.0
C792 C 0.20063 0.46666 1.00426 0.0
C793 C 0.20448 0.44774 0.95765 0.0
C794 C 0.21208 0.4887 0.01527 0.0
C795 C 0.22771 0.49221 0.97841 0.0
C796 C 0.23159 0.47343 0.9307 0.0
C797 C 0.21996 0.45134 0.92104 0.0
C798 C 0.2075 0.50814 0.06679 0.0
C799 C 0.24804 0.4767 0.88995 0.0
H800 H 0.24578 0.58087 0.94199 0.0
H801 H 0.27869 0.53364 0.0649 0.0
H802 H 0.22189 0.52901 0.87585 0.0
H803 H 0.20768 0.53876 0.93888 0.0
H804 H 0.21951 0.56419 0.8953 0.0
H805 H 0.2703 0.49022 0.09695 0.0
H806 H 0.2466 0.48165 0.09072 0.0
H807 H 0.26199 0.47165 0.03115 0.0
H808 H 0.18874 0.46408 0.03301 0.0
H809 H 0.22304 0.43684 0.88503 0.0
H810 H 0.20577 0.52877 0.048 0.0
H811 H 0.21881 0.5089 0.10056 0.0
H812 H 0.19489 0.50244 0.09159 0.0
H813 H 0.2475 0.49647 0.86609 0.0
H814 H 0.2491 0.4605 0.85462 0.0
H815 H 0.26053 0.47651 0.91853 0.0
C816 C 0.75305 0.57749 0.93058 0.0
C817 C 0.76177 0.57531 0.87312 0.0
C818 C 0.74322 0.55585 0.9551 0.0
C819 C 0.74192 0.5316 0.92104 0.0
C820 C 0.74985 0.52974 0.86163 0.0
C821 C 0.75973 0.55163 0.8384 0.0
C822 C 0.73491 0.55855 0.01857 0.0
C823 C 0.74854 0.50423 0.8237 0.0
C824 C 0.73388 0.466 0.0068 0.0
C825 C 0.71555 0.46155 0.99418 0.0
C826 C 0.74265 0.48897 0.98373 0.0
C827 C 0.73268 0.50789 0.94821 0.0
C828 C 0.71396 0.50383 0.93744 0.0
C829 C 0.70565 0.48054 0.96023 0.0
C830 C 0.76266 0.49261 0.9958 0.0
C831 C 0.70284 0.52373 0.90065 0.0
H832 H 0.75458 0.59566 0.95792 0.0
H833 H 0.76641 0.5498 0.79399 0.0
H834 H 0.72032 0.55316 0.01708 0.0
H835 H 0.74162 0.54431 0.05083 0.0
H836 H 0.73624 0.57928 0.03752 0.0
H837 H 0.75458 0.50658 0.77703 0.0
H838 H 0.75566 0.48758 0.84788 0.0
H839 H 0.73415 0.49815 0.81844 0.0
H840 H 0.74145 0.45107 0.03277 0.0
H841 H 0.69141 0.47691 0.95082 0.0
H842 H 0.76514 0.51237 0.01831 0.0
H843 H 0.77016 0.49261 0.95137 0.0
H844 H 0.76831 0.47644 0.02564 0.0
H845 H 0.70409 0.5442 0.92089 0.0
H846 H 0.68825 0.5182 0.89911 0.0
H847 H 0.70803 0.52477 0.85264 0.0
C848 C 0.02559 0.70076 0.16857 0.0
C849 C 0.04046 0.6958 0.2073 0.0
C850 C 0.01351 0.72211 0.18097 0.0
C851 C 0.0163 0.73864 0.23361 0.0
C852 C 0.03118 0.73352 0.27309 0.0
C853 C 0.0431 0.71233 0.25929 0.0
C854 C 0.99789 0.7272 0.13741 0.0
C855 C 0.03458 0.75057 0.32983 0.0
C856 C 0.99719 0.8097 0.23313 0.0
C857 C 0.98121 0.80677 0.2677 0.0
C858 C 0.00864 0.78769 0.22158 0.0
C859 C 0.0042 0.76211 0.24602 0.0
C860 C 0.98845 0.75916 0.28288 0.0
C861 C 0.97709 0.78154 0.29316 0.0
C862 C 0.02534 0.79174 0.18228 0.0
C863 C 0.98342 0.73228 0.31047 0.0
H864 H 0.02344 0.68806 0.12846 0.0
H865 H 0.05447 0.70859 0.28985 0.0
H866 H 0.98488 0.7266 0.16306 0.0
H867 H 0.99911 0.74763 0.11707 0.0
H868 H 0.99734 0.71219 0.09932 0.0
H869 H 0.04633 0.74321 0.35725 0.0
H870 H 0.03721 0.77173 0.31608 0.0
H871 H 0.02239 0.75068 0.35986 0.0
H872 H 0.0006 0.82925 0.21411 0.0
H873 H 0.96469 0.77908 0.3194 0.0
H874 H 0.02474 0.77841 0.14113 0.0
H875 H 0.03766 0.7861 0.20872 0.0
H876 H 0.02679 0.81292 0.16642 0.0
H877 H 0.98101 0.7174 0.27307 0.0
H878 H 0.97105 0.73354 0.33964 0.0
H879 H 0.99477 0.72449 0.33905 0.0
C880 C 0.95357 0.2947 0.22966 0.0
C881 C 0.95808 0.31328 0.18325 0.0
C882 C 0.96503 0.27301 0.24415 0.0
C883 C 0.9814 0.26954 0.21108 0.0
C884 C 0.98592 0.28787 0.16331 0.0
C885 C 0.97423 0.30961 0.15007 0.0
C886 C 0.95971 0.25401 0.29549 0.0
C887 C 0.00317 0.28461 0.12655 0.0
C888 C 0.0192 0.22767 0.28347 0.0
C889 C 0.01711 0.20286 0.25311 0.0
C890 C 0.00759 0.24949 0.27068 0.0
C891 C 0.99363 0.24649 0.22617 0.0
C892 C 0.99119 0.22132 0.19653 0.0
C893 C 0.00285 0.19981 0.21065 0.0
C894 C 0.01049 0.27592 0.30387 0.0
C895 C 0.97645 0.21723 0.14898 0.0
H896 H 0.94114 0.29731 0.25572 0.0
H897 H 0.97785 0.32387 0.11429 0.0
H898 H 0.95877 0.2331 0.27755 0.0
H899 H 0.97027 0.25408 0.33201 0.0
H900 H 0.9465 0.25951 0.31679 0.0
H901 H 0.00462 0.3003 0.09033 0.0
H902 H 0.01507 0.28571 0.15782 0.0
H903 H 0.00346 0.26448 0.10413 0.0
H904 H 0.03031 0.23034 0.31568 0.0
H905 H 0.00099 0.1806 0.18757 0.0
H906 H 0.99782 0.28221 0.32754 0.0
H907 H 0.01389 0.29189 0.27 0.0
H908 H 0.02155 0.27471 0.33861 0.0
H909 H 0.96299 0.22159 0.1696 0.0
H910 H 0.97632 0.19637 0.13022 0.0
H911 H 0.97837 0.2315 0.11012 0.0
C912 C 0.22623 0.95867 0.39139 0.0
C913 C 0.2103 0.95457 0.42542 0.0
C914 C 0.23733 0.98123 0.40278 0.0
C915 C 0.23247 0.99988 0.44969 0.0
C916 C 0.21624 0.99607 0.48324 0.0
C917 C 0.20533 0.97364 0.47042 0.0
C918 C 0.2544 0.98492 0.36531 0.0
C919 C 0.21059 0.01532 0.5339 0.0
C920 C 0.26944 0.04277 0.52318 0.0
C921 C 0.26676 0.06779 0.4943 0.0
C922 C 0.25836 0.02055 0.50924 0.0
C923 C 0.24442 0.02323 0.46461 0.0
C924 C 0.24153 0.04843 0.43569 0.0
C925 C 0.25258 0.07043 0.45133 0.0
C926 C 0.26167 0.99413 0.54192 0.0
C927 C 0.22685 0.05211 0.38774 0.0
H928 H 0.23016 0.94408 0.35655 0.0
H929 H 0.19304 0.97076 0.49702 0.0
H930 H 0.2544 1.00512 0.34334 0.0
H931 H 0.26642 0.98393 0.39604 0.0
H932 H 0.25587 0.96935 0.32871 0.0
H933 H 0.19738 0.00976 0.55493 0.0
H934 H 0.22106 0.0156 0.57074 0.0
H935 H 0.20951 0.03612 0.51549 0.0
H936 H 0.28051 0.04029 0.55558 0.0
H937 H 0.25018 0.08973 0.4294 0.0
H938 H 0.26517 0.97826 0.50776 0.0
H939 H 0.24915 0.98758 0.56594 0.0
H940 H 0.27281 0.9955 0.57634 0.0
H941 H 0.22886 0.03756 0.34937 0.0
H942 H 0.22666 0.07283 0.36834 0.0
H943 H 0.21339 0.04787 0.40833 0.0
C944 C 0.73462 0.97987 0.53642 0.0
C945 C 0.7362 0.95555 0.5036 0.0
C946 C 0.74614 1.00175 0.52388 0.0
C947 C 0.75941 0.99943 0.47682 0.0
C948 C 0.76137 0.97476 0.44461 0.0
C949 C 0.7499 0.95309 0.45881 0.0
C950 C 0.74385 0.02757 0.56007 0.0
C951 C 0.77531 0.97144 0.39404 0.0
C952 C 0.77674 0.06454 0.40445 0.0
C953 C 0.79329 0.06806 0.43531 0.0
C954 C 0.76568 0.04207 0.4168 0.0
C955 C 0.77127 0.0228 0.46131 0.0
C956 C 0.78815 0.02596 0.49143 0.0
C957 C 0.79896 0.04842 0.47787 0.0
C958 C 0.7479 0.03912 0.38292 0.0
C959 C 0.79465 1.00593 0.53913 0.0
H960 H 0.72397 0.98217 0.57049 0.0
H961 H 0.75145 0.93426 0.43389 0.0
H962 H 0.75693 0.03345 0.58151 0.0
H963 H 0.73977 0.04411 0.52853 0.0
H964 H 0.73347 0.02573 0.597 0.0
H965 H 0.77523 0.95085 0.37381 0.0
H966 H 0.77263 0.98621 0.35666 0.0
H967 H 0.78907 0.97567 0.41224 0.0
H968 H 0.77227 0.07957 0.37148 0.0
H969 H 0.81178 0.05081 0.50178 0.0
H970 H 0.73651 0.03976 0.41633 0.0
H971 H 0.74735 0.01927 0.35929 0.0
H972 H 0.74582 0.05524 0.34807 0.0
H973 H 0.78497 1.00536 0.57833 0.0
H974 H 0.80832 0.01098 0.55732 0.0
H975 H 0.79514 0.98538 0.51897 0.0
C976 C 0.54343 0.10707 0.6365 0.0
C977 C 0.55515 0.12239 0.67334 0.0
C978 C 0.54769 0.10147 0.57476 0.0
C979 C 0.56396 0.11173 0.54943 0.0
C980 C 0.5767 0.12473 0.58833 0.0
C981 C 0.57214 0.12986 0.65017 0.0
C982 C 0.53384 0.08722 0.53514 0.0
C983 C 0.59419 0.13599 0.56316 0.0
C984 C 0.57554 0.09586 0.38186 0.0
C985 C 0.56754 0.11785 0.35177 0.0
C986 C 0.57465 0.0935 0.44653 0.0
C987 C 0.5658 0.11384 0.48132 0.0
C988 C 0.55805 0.13634 0.45087 0.0
C989 C 0.5589 0.13793 0.38647 0.0
C990 C 0.58281 0.0691 0.47749 0.0
C991 C 0.54868 0.15869 0.48622 0.0
H992 H 0.53031 0.10125 0.65469 0.0
H993 H 0.58114 0.1419 0.67859 0.0
H994 H 0.52649 0.10227 0.50666 0.0
H995 H 0.54051 0.07279 0.50318 0.0
H996 H 0.52375 0.07617 0.5635 0.0
H997 H 0.604 0.14068 0.60063 0.0
H998 H 0.60061 0.12167 0.53038 0.0
H999 H 0.59127 0.15487 0.53755 0.0
H1000 H 0.5822 0.08032 0.35482 0.0
H1001 H 0.5528 0.15504 0.3632 0.0
H1002 H 0.57194 0.05719 0.49992 0.0
H1003 H 0.59237 0.0754 0.51433 0.0
H1004 H 0.59012 0.05588 0.44431 0.0
H1005 H 0.53675 0.15054 0.51112 0.0
H1006 H 0.54401 0.17527 0.45561 0.0
H1007 H 0.55801 0.16726 0.52132 0.0
C1008 C 0.45702 0.90983 0.3591 0.0
C1009 C 0.44045 0.91301 0.32841 0.0
C1010 C 0.4577 0.90768 0.42355 0.0
C1011 C 0.44139 0.9088 0.45799 0.0
C1012 C 0.42473 0.91375 0.42747 0.0
C1013 C 0.42445 0.91571 0.36276 0.0
C1014 C 0.47575 0.90234 0.4543 0.0
C1015 C 0.40711 0.91529 0.4627 0.0
C1016 C 0.44402 0.86521 0.60013 0.0
C1017 C 0.449 0.88397 0.64542 0.0
C1018 C 0.44039 0.87333 0.5396 0.0
C1019 C 0.44167 0.90098 0.52415 0.0
C1020 C 0.4453 0.92028 0.57088 0.0
C1021 C 0.44898 0.91149 0.63134 0.0
C1022 C 0.43655 0.85205 0.49133 0.0
C1023 C 0.44651 0.94993 0.55622 0.0
H1024 H 0.46942 0.90786 0.33255 0.0
H1025 H 0.41162 0.91826 0.33899 0.0
H1026 H 0.47778 0.91631 0.49372 0.0
H1027 H 0.47595 0.88151 0.47292 0.0
H1028 H 0.4873 0.9046 0.4218 0.0
H1029 H 0.39593 0.92357 0.43396 0.0
H1030 H 0.4032 0.8948 0.47818 0.0
H1031 H 0.40865 0.928 0.50458 0.0
H1032 H 0.44388 0.84392 0.6115 0.0
H1033 H 0.45287 0.92593 0.66656 0.0
H1034 H 0.44811 0.85081 0.45863 0.0
H1035 H 0.42431 0.85746 0.46422 0.0
H1036 H 0.43446 0.8318 0.51199 0.0
H1037 H 0.45936 0.95397 0.53129 0.0
H1038 H 0.44625 0.96253 0.59868 0.0
H1039 H 0.4352 0.95619 0.52559 0.0
C1040 C 0.66679 0.34519 0.63792 0.0
C1041 C 0.68128 0.35758 0.60727 0.0
C1042 C 0.66583 0.34526 0.70286 0.0
C1043 C 0.67944 0.35862 0.73742 0.0
C1044 C 0.69446 0.37019 0.70645 0.0
C1045 C 0.69526 0.36928 0.64185 0.0
C1046 C 0.64989 0.33208 0.73424 0.0
C1047 C 0.70919 0.38497 0.74124 0.0
C1048 C 0.67069 0.39621 0.88565 0.0
C1049 C 0.6817 0.3819 0.92695 0.0
C1050 C 0.66848 0.3875 0.82459 0.0
C1051 C 0.67722 0.36355 0.80485 0.0
C1052 C 0.68649 0.34732 0.84857 0.0
C1053 C 0.68883 0.35688 0.9093 0.0
C1054 C 0.65868 0.4057 0.77967 0.0
C1055 C 0.69545 0.32121 0.82986 0.0
H1056 H 0.65601 0.33599 0.6112 0.0
H1057 H 0.70651 0.37883 0.61826 0.0
H1058 H 0.65442 0.32045 0.7752 0.0
H1059 H 0.64033 0.34782 0.75065 0.0
H1060 H 0.64246 0.31839 0.70248 0.0
H1061 H 0.72025 0.39198 0.71038 0.0
H1062 H 0.70332 0.40279 0.76509 0.0
H1063 H 0.71516 0.37174 0.77714 0.0
H1064 H 0.6653 0.41568 0.89948 0.0
H1065 H 0.69747 0.34595 0.94115 0.0
H1066 H 0.64924 0.39396 0.75031 0.0
H1067 H 0.66872 0.4154 0.74867 0.0
H1068 H 0.65088 0.42181 0.80359 0.0
H1069 H 0.68687 0.30992 0.79663 0.0
H1070 H 0.69824 0.30821 0.87052 0.0
H1071 H 0.70854 0.32561 0.80678 0.0
C1072 C 0.32957 0.63802 0.591 0.0
C1073 C 0.31356 0.64554 0.56069 0.0
C1074 C 0.33021 0.63647 0.65581 0.0
C1075 C 0.31431 0.64179 0.6905 0.0
C1076 C 0.29855 0.65135 0.66014 0.0
C1077 C 0.29846 0.65344 0.59562 0.0
C1078 C 0.34749 0.62726 0.68667 0.0
C1079 C 0.2812 0.65684 0.69507 0.0
C1080 C 0.30388 0.59858 0.8295 0.0
C1081 C 0.30455 0.61735 0.87806 0.0
C1082 C 0.30763 0.60615 0.76866 0.0
C1083 C 0.31296 0.63297 0.75598 0.0
C1084 C 0.31515 0.6515 0.80526 0.0
C1085 C 0.31068 0.64357 0.86578 0.0
C1086 C 0.30495 0.5857 0.71761 0.0
C1087 C 0.32147 0.67997 0.79388 0.0
H1088 H 0.34132 0.63207 0.56407 0.0
H1089 H 0.28606 0.65934 0.57232 0.0
H1090 H 0.34985 0.63861 0.73014 0.0
H1091 H 0.34637 0.6056 0.69871 0.0
H1092 H 0.35942 0.62979 0.65595 0.0
H1093 H 0.27069 0.66643 0.66554 0.0
H1094 H 0.2757 0.63757 0.71305 0.0
H1095 H 0.28382 0.67012 0.73528 0.0
H1096 H 0.29992 0.57795 0.83879 0.0
H1097 H 0.31141 0.65817 0.90299 0.0
H1098 H 0.31759 0.58336 0.69044 0.0
H1099 H 0.29422 0.59282 0.68552 0.0
H1100 H 0.30096 0.56559 0.73551 0.0
H1101 H 0.33256 0.68033 0.75927 0.0
H1102 H 0.3263 0.68974 0.83704 0.0
H1103 H 0.31007 0.69211 0.77524 0.0
C1104 C 0.54268 0.61002 0.14013 0.0
C1105 C 0.55375 0.62847 0.17116 0.0
C1106 C 0.54628 0.60282 0.07857 0.0
C1107 C 0.56093 0.61513 0.04709 0.0
C1108 C 0.57295 0.63216 0.08 0.0
C1109 C 0.56927 0.63845 0.14197 0.0
C1110 C 0.5334 0.58405 0.0457 0.0
C1111 C 0.58849 0.64622 0.04814 0.0
C1112 C 0.57359 0.59589 0.88189 0.0
C1113 C 0.56318 0.61435 0.84813 0.0
C1114 C 0.57273 0.59533 0.94688 0.0
C1115 C 0.56167 0.61429 0.97836 0.0
C1116 C 0.55133 0.63318 0.94411 0.0
C1117 C 0.552 0.63266 0.87948 0.0
C1118 C 0.58351 0.57445 0.9818 0.0
C1119 C 0.53974 0.65427 0.97567 0.0
H1120 H 0.53052 0.60267 0.16262 0.0
H1121 H 0.57758 0.6532 0.1658 0.0
H1122 H 0.52403 0.59599 0.01636 0.0
H1123 H 0.54092 0.56998 0.01507 0.0
H1124 H 0.52516 0.57214 0.07878 0.0
H1125 H 0.5981 0.65533 0.08172 0.0
H1126 H 0.59605 0.63206 0.01797 0.0
H1127 H 0.58303 0.66252 0.01834 0.0
H1128 H 0.58219 0.58167 0.8575 0.0
H1129 H 0.54407 0.64713 0.85337 0.0
H1130 H 0.57432 0.56241 0.01147 0.0
H1131 H 0.59343 0.58446 0.01275 0.0
H1132 H 0.59096 0.56057 0.95044 0.0
H1133 H 0.52905 0.64439 1.00357 0.0
H1134 H 0.53311 0.66811 0.94226 0.0
H1135 H 0.54816 0.66644 0.00775 0.0
C1136 C 0.43536 0.38641 0.114 0.0
C1137 C 0.45154 0.39272 0.14447 0.0
C1138 C 0.43339 0.39134 0.0505 0.0
C1139 C 0.44793 0.40306 0.01725 0.0
C1140 C 0.4636 0.41181 0.04938 0.0
C1141 C 0.46531 0.40621 0.11263 0.0
C1142 C 0.41656 0.38139 0.01806 0.0
C1143 C 0.47928 0.42474 0.016 0.0
C1144 C 0.45588 0.37703 0.85484 0.0
C1145 C 0.44834 0.39752 0.8185 0.0
C1146 C 0.45574 0.37866 0.91941 0.0
C1147 C 0.44815 0.40166 0.94854 0.0
C1148 C 0.44083 0.42273 0.91207 0.0
C1149 C 0.44084 0.42028 0.84724 0.0
C1150 C 0.46347 0.35551 0.95644 0.0
C1151 C 0.43294 0.44771 0.94154 0.0
H1152 H 0.42489 0.37551 0.13864 0.0
H1153 H 0.47791 0.41072 0.13631 0.0
H1154 H 0.41157 0.39652 0.98442 0.0
H1155 H 0.41986 0.36276 0.9919 0.0
H1156 H 0.40549 0.37673 0.05114 0.0
H1157 H 0.48878 0.43478 0.04852 0.0
H1158 H 0.48691 0.40906 0.99016 0.0
H1159 H 0.47436 0.4398 0.98204 0.0
H1160 H 0.46158 0.35929 0.83276 0.0
H1161 H 0.43498 0.43613 0.81911 0.0
H1162 H 0.45295 0.34731 0.98784 0.0
H1163 H 0.47485 0.3627 0.98561 0.0
H1164 H 0.46852 0.33887 0.92662 0.0
H1165 H 0.42118 0.44221 0.97082 0.0
H1166 H 0.42842 0.46272 0.90673 0.0
H1167 H 0.44315 0.45725 0.97217 0.0
C1168 C 0.69454 0.86358 0.3918 0.0
C1169 C 0.69373 0.89114 0.40557 0.0
C1170 C 0.69097 0.85428 0.33154 0.0
C1171 C 0.68658 0.87308 0.28453 0.0
C1172 C 0.6844 0.90066 0.29976 0.0
C1173 C 0.68795 0.9093 0.36011 0.0
C1174 C 0.69316 0.82468 0.31729 0.0
C1175 C 0.67973 0.92144 0.2513 0.0
C1176 C 0.70233 0.8639 0.11951 0.0
C1177 C 0.68595 0.85909 0.08865 0.0
C1178 C 0.70284 0.86691 0.18387 0.0
C1179 C 0.68656 0.86494 0.21829 0.0
C1180 C 0.67015 0.85849 0.18772 0.0
C1181 C 0.67002 0.85574 0.12303 0.0
C1182 C 0.72064 0.8739 0.2145 0.0
C1183 C 0.65257 0.85599 0.22284 0.0
H1184 H 0.69906 0.84956 0.427 0.0
H1185 H 0.6872 0.93062 0.37109 0.0
H1186 H 0.68202 0.81751 0.287 0.0
H1187 H 0.70609 0.82143 0.29217 0.0
H1188 H 0.69339 0.81227 0.35996 0.0
H1189 H 0.67685 0.94155 0.27181 0.0
H1190 H 0.69124 0.92353 0.21864 0.0
H1191 H 0.66774 0.91497 0.22419 0.0
H1192 H 0.71469 0.86645 0.09306 0.0
H1193 H 0.65733 0.852 0.09923 0.0
H1194 H 0.72323 0.86029 0.25413 0.0
H1195 H 0.72 0.89479 0.23283 0.0
H1196 H 0.73227 0.87248 0.18204 0.0
H1197 H 0.65449 0.84364 0.26504 0.0
H1198 H 0.64169 0.8468 0.19425 0.0
H1199 H 0.64798 0.87628 0.23782 0.0
C1200 C 0.32635 0.17247 0.11952 0.0
C1201 C 0.31395 0.15738 0.08479 0.0
C1202 C 0.32578 0.17212 0.18446 0.0
C1203 C 0.3129 0.15564 0.21475 0.0
C1204 C 0.30033 0.14047 0.17955 0.0
C1205 C 0.30086 0.14185 0.11503 0.0
C1206 C 0.33904 0.18908 0.22059 0.0
C1207 C 0.28664 0.12211 0.20991 0.0
C1208 C 0.31954 0.12523 0.37278 0.0
C1209 C 0.30607 0.13863 0.4064 0.0
C1210 C 0.32303 0.1321 0.31118 0.0
C1211 C 0.31282 0.15298 0.2831 0.0
C1212 C 0.30034 0.16814 0.31887 0.0
C1213 C 0.29693 0.16051 0.38017 0.0
C1214 C 0.33624 0.11514 0.27458 0.0
C1215 C 0.28944 0.19083 0.29094 0.0
H1216 H 0.33644 0.18453 0.09595 0.0
H1217 H 0.29137 0.12998 0.08812 0.0
H1218 H 0.33167 0.20179 0.25459 0.0
H1219 H 0.34837 0.17586 0.24701 0.0
H1220 H 0.34724 0.20235 0.19023 0.0
H1221 H 0.27796 0.11148 0.17573 0.0
H1222 H 0.29374 0.10679 0.23839 0.0
H1223 H 0.27775 0.1339 0.24126 0.0
H1224 H 0.32633 0.10799 0.39322 0.0
H1225 H 0.28633 0.17054 0.4063 0.0
H1226 H 0.3452 0.12803 0.24608 0.0
H1227 H 0.3286 0.10181 0.24265 0.0
H1228 H 0.34482 0.10232 0.3049 0.0
H1229 H 0.2981 0.20359 0.26102 0.0
H1230 H 0.28309 0.20371 0.32698 0.0
H1231 H 0.2785 0.18232 0.26164 0.0
C1232 C 0.05835 0.11066 0.14009 0.0
C1233 C 0.05918 0.1382 0.15391 0.0
C1234 C 0.0619 0.10136 0.07983 0.0
C1235 C 0.0663 0.12016 0.0329 0.0
C1236 C 0.06846 0.14773 0.04814 0.0
C1237 C 0.06491 0.15637 0.10848 0.0
C1238 C 0.0597 0.07178 0.06552 0.0
C1239 C 0.07315 0.1685 0.99974 0.0
C1240 C 0.08311 0.10268 0.87186 0.0
C1241 C 0.06723 0.10611 0.83716 0.0
C1242 C 0.08288 0.10547 0.93652 0.0
C1243 C 0.06641 0.11202 0.96671 0.0
C1244 C 0.05019 0.11408 0.93196 0.0
C1245 C 0.0508 0.11105 0.86763 0.0
C1246 C 0.10041 0.10292 0.97202 0.0
C1247 C 0.03234 0.12116 0.96222 0.0
H1248 H 0.05385 0.09666 0.17529 0.0
H1249 H 0.06567 0.17768 0.11952 0.0
H1250 H 0.04682 0.06864 0.04008 0.0
H1251 H 0.07089 0.06454 0.0355 0.0
H1252 H 0.05938 0.05936 0.10816 0.0
H1253 H 0.07598 0.1886 0.02027 0.0
H1254 H 0.08517 0.16199 0.9728 0.0
H1255 H 0.06167 0.17061 0.96691 0.0
H1256 H 0.09583 0.09884 0.84834 0.0
H1257 H 0.03849 0.11365 0.84091 0.0
H1258 H 0.09843 0.09055 0.01413 0.0
H1259 H 0.10494 0.1232 0.98717 0.0
H1260 H 0.11135 0.09372 0.94364 0.0
H1261 H 0.0297 0.10759 1.00186 0.0
H1262 H 0.02075 0.11976 0.92954 0.0
H1263 H 0.03293 0.14206 0.98047 0.0
C1264 C 0.9309 0.88806 0.14224 0.0
C1265 C 0.94855 0.88071 0.15999 0.0
C1266 C 0.92719 0.89666 0.08149 0.0
C1267 C 0.9413 0.89689 0.03701 0.0
C1268 C 0.95928 0.89116 0.05578 0.0
C1269 C 0.96272 0.88402 0.11725 0.0
C1270 C 0.90803 0.90423 0.06423 0.0
C1271 C 0.97477 0.89057 0.01006 0.0
C1272 C 0.93117 0.87993 0.86939 0.0
C1273 C 0.93547 0.90415 0.83991 0.0
C1274 C 0.93241 0.87755 0.93389 0.0
C1275 C 0.93726 0.90035 0.96988 0.0
C1276 C 0.94031 0.92541 0.94028 0.0
C1277 C 0.93994 0.92681 0.87536 0.0
C1278 C 0.92981 0.85016 0.96294 0.0
C1279 C 0.94466 0.95052 0.97677 0.0
H1280 H 0.91983 0.88584 0.1747 0.0
H1281 H 0.97652 0.87949 0.13102 0.0
H1282 H 0.90794 0.92232 0.03408 0.0
H1283 H 0.9017 0.88749 0.03804 0.0
H1284 H 0.89959 0.90836 0.10566 0.0
H1285 H 0.98793 0.88549 0.03218 0.0
H1286 H 0.97197 0.87539 0.97356 0.0
H1287 H 0.97612 0.9104 0.98707 0.0
H1288 H 0.92802 0.86233 0.84163 0.0
H1289 H 0.94332 0.94552 0.8523 0.0
H1290 H 0.91932 0.85116 0.9995 0.0
H1291 H 0.94265 0.84361 0.98518 0.0
H1292 H 0.92575 0.83461 0.92866 0.0
H1293 H 0.93663 0.95137 0.02008 0.0
H1294 H 0.94194 0.96905 0.94952 0.0
H1295 H 0.95922 0.95046 0.98957 0.0
C1296 C 0.19305 0.36778 0.14462 0.0
C1297 C 0.18078 0.35292 0.10893 0.0
C1298 C 0.19268 0.36659 0.20921 0.0
C1299 C 0.18 0.34953 0.23893 0.0
C1300 C 0.16786 0.33391 0.20303 0.0
C1301 C 0.16821 0.33609 0.13822 0.0
C1302 C 0.20566 0.38405 0.24561 0.0
C1303 C 0.15451 0.31503 0.23308 0.0
C1304 C 0.19571 0.33886 0.40273 0.0
C1305 C 0.18644 0.35968 0.43296 0.0
C1306 C 0.19216 0.333 0.34045 0.0
C1307 C 0.17945 0.34894 0.30763 0.0
C1308 C 0.16879 0.36815 0.33985 0.0
C1309 C 0.17234 0.37312 0.40251 0.0
C1310 C 0.20348 0.31185 0.30829 0.0
C1311 C 0.15532 0.38593 0.30664 0.0
H1312 H 0.2027 0.38096 0.122 0.0
H1313 H 0.15875 0.32456 0.11049 0.0
H1314 H 0.19798 0.39748 0.27726 0.0
H1315 H 0.21462 0.37125 0.27446 0.0
H1316 H 0.2143 0.39674 0.21535 0.0
H1317 H 0.14675 0.30309 0.19862 0.0
H1318 H 0.16174 0.30095 0.26441 0.0
H1319 H 0.14478 0.32667 0.26172 0.0
H1320 H 0.20681 0.32879 0.42621 0.0
H1321 H 0.16545 0.38961 0.42573 0.0
H1322 H 0.21459 0.3218 0.28245 0.0
H1323 H 0.1952 0.30033 0.27458 0.0
H1324 H 0.20964 0.29755 0.34174 0.0
H1325 H 0.16278 0.40142 0.27986 0.0
H1326 H 0.14607 0.3964 0.33934 0.0
H1327 H 0.14708 0.37409 0.27351 0.0
C1328 C 0.82164 0.60044 0.36948 0.0
C1329 C 0.81338 0.61816 0.41141 0.0
C1330 C 0.82354 0.60728 0.307 0.0
C1331 C 0.81704 0.63253 0.28594 0.0
C1332 C 0.81017 0.65145 0.32928 0.0
C1333 C 0.80834 0.64397 0.3917 0.0
C1334 C 0.83082 0.58636 0.26269 0.0
C1335 C 0.80333 0.67871 0.30893 0.0
C1336 C 0.82692 0.64903 0.11704 0.0
C1337 C 0.81083 0.64061 0.08855 0.0
C1338 C 0.82894 0.64769 0.18173 0.0
C1339 C 0.81469 0.63706 0.21825 0.0
C1340 C 0.79835 0.62886 0.18942 0.0
C1341 C 0.79657 0.63102 0.12516 0.0
C1342 C 0.84639 0.65715 0.21088 0.0
C1343 C 0.78292 0.6169 0.22617 0.0
H1344 H 0.8254 0.58039 0.38482 0.0
H1345 H 0.80174 0.65753 0.42401 0.0
H1346 H 0.8195 0.57823 0.23451 0.0
H1347 H 0.84076 0.59545 0.2305 0.0
H1348 H 0.83745 0.5693 0.28714 0.0
H1349 H 0.80162 0.69272 0.34859 0.0
H1350 H 0.81274 0.68789 0.27501 0.0
H1351 H 0.78998 0.67633 0.28589 0.0
H1352 H 0.83793 0.65656 0.0888 0.0
H1353 H 0.78412 0.62439 0.10331 0.0
H1354 H 0.85372 0.63973 0.23108 0.0
H1355 H 0.84345 0.67142 0.24914 0.0
H1356 H 0.85544 0.6672 0.17702 0.0
H1357 H 0.78754 0.59819 0.2495 0.0
H1358 H 0.77102 0.61193 0.19682 0.0
H1359 H 0.77851 0.63118 0.26266 0.0
C1360 C 0.08219 0.59392 0.37745 0.0
C1361 C 0.06687 0.60343 0.34596 0.0
C1362 C 0.08311 0.5952 0.44227 0.0
C1363 C 0.06858 0.60694 0.47564 0.0
C1364 C 0.0527 0.61518 0.444 0.0
C1365 C 0.05198 0.61304 0.37959 0.0
C1366 C 0.1 0.5854 0.47461 0.0
C1367 C 0.03697 0.62817 0.47757 0.0
C1368 C 0.06112 0.60932 0.64861 0.0
C1369 C 0.06656 0.6358 0.66122 0.0
C1370 C 0.06328 0.59837 0.58909 0.0
C1371 C 0.07078 0.61453 0.54163 0.0
C1372 C 0.07781 0.64032 0.55603 0.0
C1373 C 0.07577 0.65049 0.61586 0.0
C1374 C 0.05615 0.57047 0.57594 0.0
C1375 C 0.08578 0.6584 0.50694 0.0
H1376 H 0.09366 0.58628 0.35142 0.0
H1377 H 0.04009 0.62034 0.35531 0.0
H1378 H 0.10847 0.60292 0.48792 0.0
H1379 H 0.09647 0.57439 0.51754 0.0
H1380 H 0.10822 0.57197 0.4445 0.0
H1381 H 0.02521 0.63196 0.44663 0.0
H1382 H 0.03243 0.61522 0.51624 0.0
H1383 H 0.04134 0.64771 0.49764 0.0
H1384 H 0.05401 0.59794 0.68377 0.0
H1385 H 0.08016 0.67088 0.62607 0.0
H1386 H 0.06516 0.55956 0.54326 0.0
H1387 H 0.04256 0.57202 0.55427 0.0
H1388 H 0.05483 0.55843 0.61893 0.0
H1389 H 0.09613 0.64741 0.47958 0.0
H1390 H 0.09213 0.67674 0.52688 0.0
H1391 H 0.0749 0.66481 0.47464 0.0
C1392 C 0.95397 0.39995 0.36324 0.0
C1393 C 0.9377 0.4059 0.33276 0.0
C1394 C 0.95464 0.39787 0.42776 0.0
C1395 C 0.93865 0.4021 0.46278 0.0
C1396 C 0.92241 0.40973 0.43243 0.0
C1397 C 0.92209 0.41136 0.36756 0.0
C1398 C 0.97222 0.38943 0.45805 0.0
C1399 C 0.90517 0.41476 0.46815 0.0
C1400 C 0.93862 0.35965 0.60727 0.0
C1401 C 0.94568 0.37761 0.65108 0.0
C1402 C 0.93511 0.36791 0.54668 0.0
C1403 C 0.9386 0.39493 0.52956 0.0
C1404 C 0.94429 0.41373 0.57505 0.0
C1405 C 0.94788 0.40478 0.63557 0.0
C1406 C 0.92915 0.34709 0.49989 0.0
C1407 C 0.9478 0.44281 0.55882 0.0
H1408 H 0.96608 0.39576 0.33646 0.0
H1409 H 0.9095 0.41605 0.34406 0.0
H1410 H 0.97567 0.40341 0.49628 0.0
H1411 H 0.97066 0.36902 0.4783 0.0
H1412 H 0.98371 0.38894 0.42491 0.0
H1413 H 0.89467 0.42481 0.43942 0.0
H1414 H 0.89963 0.39528 0.48463 0.0
H1415 H 0.9079 0.4274 0.50943 0.0
H1416 H 0.93692 0.33861 0.61959 0.0
H1417 H 0.95343 0.41858 0.66949 0.0
H1418 H 0.94032 0.3433 0.46661 0.0
H1419 H 0.91734 0.35453 0.47316 0.0
H1420 H 0.92545 0.32763 0.52184 0.0
H1421 H 0.96075 0.4443 0.53299 0.0
H1422 H 0.9488 0.4557 0.60068 0.0
H1423 H 0.9369 0.45078 0.52856 0.0
C1424 C 0.2097 0.86102 0.88027 0.0
C1425 C 0.19983 0.88202 0.90732 0.0
C1426 C 0.20654 0.85351 0.81871 0.0
C1427 C 0.19355 0.86792 0.78352 0.0
C1428 C 0.18265 0.88784 0.81236 0.0
C1429 C 0.18591 0.89459 0.87424 0.0
C1430 C 0.2182 0.83185 0.78994 0.0
C1431 C 0.16886 0.90399 0.77636 0.0
C1432 C 0.20518 0.88051 0.61587 0.0
C1433 C 0.19273 0.86398 0.5852 0.0
C1434 C 0.20557 0.88183 0.68041 0.0
C1435 C 0.19353 0.86561 0.71513 0.0
C1436 C 0.18127 0.84822 0.68437 0.0
C1437 C 0.18082 0.84791 0.61945 0.0
C1438 C 0.21858 0.90115 0.71133 0.0
C1439 C 0.16859 0.83018 0.72001 0.0
H1440 H 0.22065 0.85166 0.90602 0.0
H1441 H 0.17855 0.91118 0.89532 0.0
H1442 H 0.20997 0.81858 0.75964 0.0
H1443 H 0.22879 0.84135 0.76086 0.0
H1444 H 0.22503 0.81929 0.82548 0.0
H1445 H 0.15985 0.91594 0.80713 0.0
H1446 H 0.17603 0.9181 0.74503 0.0
H1447 H 0.16037 0.89062 0.74726 0.0
H1448 H 0.21429 0.89312 0.58929 0.0
H1449 H 0.17122 0.83508 0.59551 0.0
H1450 H 0.22789 0.88996 0.74236 0.0
H1451 H 0.21093 0.91576 0.74023 0.0
H1452 H 0.22684 0.9126 0.67747 0.0
H1453 H 0.17639 0.81777 0.75342 0.0
H1454 H 0.16076 0.81655 0.68925 0.0
H1455 H 0.15892 0.8426 0.74707 0.0
C1456 C 0.80296 0.15815 0.88846 0.0
C1457 C 0.80583 0.13111 0.90395 0.0
C1458 C 0.80642 0.16733 0.82816 0.0
C1459 C 0.81279 0.14889 0.78296 0.0
C1460 C 0.81708 0.1221 0.80019 0.0
C1461 C 0.81354 0.11356 0.86054 0.0
C1462 C 0.80191 0.19611 0.81173 0.0
C1463 C 0.82389 0.10175 0.75365 0.0
C1464 C 0.79687 0.15345 0.61728 0.0
C1465 C 0.81279 0.16095 0.58662 0.0
C1466 C 0.7965 0.15075 0.68164 0.0
C1467 C 0.8124 0.15602 0.71629 0.0
C1468 C 0.82824 0.16513 0.68587 0.0
C1469 C 0.8283 0.16729 0.6211 0.0
C1470 C 0.77936 0.14069 0.7121 0.0
C1471 C 0.84534 0.17133 0.72136 0.0
H1472 H 0.79691 0.17162 0.92217 0.0
H1473 H 0.81577 0.09263 0.87294 0.0
H1474 H 0.81256 0.20485 0.78167 0.0
H1475 H 0.78896 0.19663 0.78562 0.0
H1476 H 0.80038 0.20895 0.8535 0.0
H1477 H 0.82847 0.08275 0.77591 0.0
H1478 H 0.81287 0.09684 0.72061 0.0
H1479 H 0.83532 0.11017 0.72665 0.0
H1480 H 0.78485 0.14853 0.59071 0.0
H1481 H 0.84061 0.17315 0.59739 0.0
H1482 H 0.77536 0.15429 0.75046 0.0
H1483 H 0.78182 0.12043 0.73219 0.0
H1484 H 0.76786 0.1392 0.67912 0.0
H1485 H 0.84224 0.18379 0.76263 0.0
H1486 H 0.85547 0.18207 0.69252 0.0
H1487 H 0.85153 0.15225 0.73788 0.0
C1488 C 0.52076 0.06876 0.01679 0.0
C1489 C 0.53354 0.06895 0.06481 0.0
C1490 C 0.5086 0.04722 0.00978 0.0
C1491 C 0.50931 0.02537 0.05169 0.0
C1492 C 0.52234 0.02526 0.09967 0.0
C1493 C 0.53428 0.04705 0.10568 0.0
C1494 C 0.49483 0.048 0.95818 0.0
C1495 C 0.52352 1.00229 0.14525 0.0
C1496 C 0.46756 0.9829 0.08033 0.0
C1497 C 0.47153 0.95943 0.04665 0.0
C1498 C 0.47953 1.00477 0.08095 0.0
C1499 C 0.49593 1.00311 0.04732 0.0
C1500 C 0.49987 0.97975 0.01206 0.0
C1501 C 0.48756 0.95817 0.01196 0.0
C1502 C 0.4748 0.02941 0.11879 0.0
C1503 C 0.51728 0.97731 0.9758 0.0
H1504 H 0.52014 0.08552 0.9848 0.0
H1505 H 0.54415 0.04692 0.14277 0.0
H1506 H 0.49605 0.02963 0.92916 0.0
H1507 H 0.48093 0.04817 0.97776 0.0
H1508 H 0.49646 0.066 0.92822 0.0
H1509 H 0.53486 1.00483 0.17853 0.0
H1510 H 0.51066 1.00081 0.17161 0.0
H1511 H 0.52539 0.98291 0.12037 0.0
H1512 H 0.45513 0.98415 0.10686 0.0
H1513 H 0.49069 0.94011 0.98578 0.0
H1514 H 0.47533 0.04774 0.08953 0.0
H1515 H 0.48489 0.03206 0.15634 0.0
H1516 H 0.46109 0.02802 0.13982 0.0
H1517 H 0.51876 0.99469 0.94405 0.0
H1518 H 0.5179 0.95839 0.94834 0.0
H1519 H 0.52902 0.97773 0.00785 0.0
C1520 C 0.71425 0.29272 0.35176 0.0
C1521 C 0.71685 0.31662 0.31835 0.0
C1522 C 0.72641 0.27105 0.34648 0.0
C1523 C 0.7416 0.27332 0.30695 0.0
C1524 C 0.74418 0.29719 0.27228 0.0
C1525 C 0.73175 0.31857 0.27831 0.0
C1526 C 0.72315 0.24591 0.38414 0.0
C1527 C 0.76025 0.30034 0.22975 0.0
C1528 C 0.78209 0.22929 0.34645 0.0
C1529 C 0.78013 0.20775 0.30484 0.0
C1530 C 0.76984 0.25093 0.34677 0.0
C1531 C 0.75523 0.25115 0.30442 0.0
C1532 C 0.7533 0.22975 0.26155 0.0
C1533 C 0.76578 0.20828 0.26225 0.0
C1534 C 0.77237 0.27335 0.39329 0.0
C1535 C 0.73788 0.22933 0.21567 0.0
H1536 H 0.70274 0.29091 0.38256 0.0
H1537 H 0.73385 0.33692 0.2522 0.0
H1538 H 0.7227 0.22798 0.3535 0.0
H1539 H 0.73451 0.24287 0.41703 0.0
H1540 H 0.71028 0.24693 0.41075 0.0
H1541 H 0.75989 0.31967 0.20393 0.0
H1542 H 0.773 0.2995 0.25693 0.0
H1543 H 0.76069 0.28346 0.19609 0.0
H1544 H 0.79313 0.22915 0.37951 0.0
H1545 H 0.76418 0.19179 0.22982 0.0
H1546 H 0.76049 0.27425 0.42466 0.0
H1547 H 0.77321 0.29306 0.36934 0.0
H1548 H 0.78479 0.27062 0.42166 0.0
H1549 H 0.72474 0.22856 0.24058 0.0
H1550 H 0.73867 0.21178 0.18383 0.0
H1551 H 0.73789 0.24811 0.1879 0.0
C1552 C 0.28342 0.71565 0.26055 0.0
C1553 C 0.2768 0.69089 0.28226 0.0
C1554 C 0.27273 0.73914 0.26241 0.0
C1555 C 0.25467 0.73777 0.2844 0.0
C1556 C 0.24764 0.71263 0.30412 0.0
C1557 C 0.25887 0.68962 0.30386 0.0
C1558 C 0.28099 0.76562 0.24279 0.0
C1559 C 0.22828 0.71006 0.32599 0.0
C1560 C 0.23167 0.80073 0.34876 0.0
C1561 C 0.22199 0.81015 0.29739 0.0
C1562 C 0.24267 0.77761 0.34472 0.0
C1563 C 0.24337 0.7628 0.28871 0.0
C1564 C 0.23335 0.77205 0.23695 0.0
C1565 C 0.22314 0.79598 0.24153 0.0
C1566 C 0.25364 0.76913 0.40034 0.0
C1567 C 0.2331 0.75636 0.17716 0.0
H1568 H 0.29724 0.71697 0.24412 0.0
H1569 H 0.25358 0.67057 0.32037 0.0
H1570 H 0.27311 0.77445 0.20416 0.0
H1571 H 0.28045 0.7802 0.28169 0.0
H1572 H 0.29533 0.76339 0.22788 0.0
H1573 H 0.22442 0.68877 0.33474 0.0
H1574 H 0.22639 0.72169 0.36931 0.0
H1575 H 0.21888 0.71867 0.29113 0.0
H1576 H 0.23084 0.81175 0.39197 0.0
H1577 H 0.21557 0.80308 0.20193 0.0
H1578 H 0.26816 0.76725 0.38762 0.0
H1579 H 0.24909 0.74906 0.41658 0.0
H1580 H 0.25241 0.78367 0.43919 0.0
H1581 H 0.24693 0.75547 0.15723 0.0
H1582 H 0.22381 0.76543 0.14248 0.0
H1583 H 0.22876 0.7353 0.18599 0.0
C1584 C 0.4892 0.44863 0.55359 0.0
C1585 C 0.47038 0.45219 0.54892 0.0
C1586 C 0.50102 0.47091 0.55429 0.0
C1587 C 0.49381 0.49743 0.5524 0.0
C1588 C 0.47478 0.50109 0.54848 0.0
C1589 C 0.46335 0.47845 0.54579 0.0
C1590 C 0.52123 0.46607 0.55671 0.0
C1591 C 0.46645 0.52892 0.54836 0.0
C1592 C 0.52362 0.55347 0.61724 0.0
C1593 C 0.52959 0.56643 0.56347 0.0
C1594 C 0.51169 0.53142 0.61432 0.0
C1595 C 0.50612 0.52135 0.55605 0.0
C1596 C 0.5123 0.5342 0.50151 0.0
C1597 C 0.52365 0.55694 0.50592 0.0
C1598 C 0.50498 0.51899 0.67367 0.0
C1599 C 0.50723 0.52359 0.43847 0.0
H1600 H 0.49473 0.42838 0.55559 0.0
H1601 H 0.44879 0.48135 0.54276 0.0
H1602 H 0.52797 0.47664 0.51787 0.0
H1603 H 0.52688 0.47446 0.60013 0.0
H1604 H 0.52471 0.4443 0.55425 0.0
H1605 H 0.4514 0.52832 0.5462 0.0
H1606 H 0.47054 0.53996 0.59075 0.0
H1607 H 0.47151 0.5406 0.50832 0.0
H1608 H 0.52808 0.56086 0.66187 0.0
H1609 H 0.5283 0.5668 0.46424 0.0
H1610 H 0.50963 0.49777 0.67692 0.0
H1611 H 0.48993 0.51876 0.67415 0.0
H1612 H 0.50982 0.53006 0.71513 0.0
H1613 H 0.51141 0.50216 0.43423 0.0
H1614 H 0.51367 0.53525 0.40063 0.0
H1615 H 0.49231 0.52435 0.43233 0.0
C1616 C 0.76803 0.7043 0.752 0.0
C1617 C 0.78086 0.70219 0.79966 0.0
C1618 C 0.75575 0.72606 0.74977 0.0
C1619 C 0.75645 0.74637 0.79583 0.0
C1620 C 0.76963 0.74462 0.84324 0.0
C1621 C 0.78157 0.72253 0.84477 0.0
C1622 C 0.74177 0.72704 0.69886 0.0
C1623 C 0.771 0.76594 0.89289 0.0
C1624 C 0.73461 0.81502 0.76753 0.0
C1625 C 0.71857 0.81303 0.80212 0.0
C1626 C 0.74695 0.79337 0.7643 0.0
C1627 C 0.74309 0.76904 0.79586 0.0
C1628 C 0.72672 0.76673 0.82964 0.0
C1629 C 0.71474 0.78874 0.83259 0.0
C1630 C 0.76431 0.79672 0.72821 0.0
C1631 C 0.72198 0.7411 0.86351 0.0
H1632 H 0.76732 0.68865 0.7171 0.0
H1633 H 0.7915 0.72123 0.88159 0.0
H1634 H 0.72795 0.72635 0.71904 0.0
H1635 H 0.74289 0.74629 0.67312 0.0
H1636 H 0.74326 0.71006 0.66573 0.0
H1637 H 0.78247 0.7622 0.92505 0.0
H1638 H 0.7728 0.78609 0.8716 0.0
H1639 H 0.75825 0.76659 0.92002 0.0
H1640 H 0.73771 0.83368 0.74385 0.0
H1641 H 0.70234 0.78688 0.85907 0.0
H1642 H 0.76553 0.78057 0.69298 0.0
H1643 H 0.77612 0.79477 0.7597 0.0
H1644 H 0.76506 0.81658 0.70469 0.0
H1645 H 0.72233 0.7237 0.83126 0.0
H1646 H 0.70834 0.74208 0.8852 0.0
H1647 H 0.73217 0.73716 0.90015 0.0
C1648 C 0.26702 0.20485 0.76546 0.0
C1649 C 0.28212 0.20564 0.80491 0.0
C1650 C 0.25406 0.22572 0.76578 0.0
C1651 C 0.25631 0.24792 0.8063 0.0
C1652 C 0.27168 0.24904 0.84534 0.0
C1653 C 0.28435 0.22792 0.84424 0.0
C1654 C 0.23781 0.2238 0.72359 0.0
C1655 C 0.27463 0.27239 0.88907 0.0
C1656 C 0.23107 0.31382 0.77813 0.0
C1657 C 0.21693 0.31216 0.82131 0.0
C1658 C 0.24381 0.29285 0.77189 0.0
C1659 C 0.24234 0.26964 0.80957 0.0
C1660 C 0.22792 0.26767 0.85247 0.0
C1661 C 0.21543 0.28893 0.85788 0.0
C1662 C 0.25903 0.29572 0.72574 0.0
C1663 C 0.22584 0.24324 0.89342 0.0
H1664 H 0.26517 0.18775 0.73489 0.0
H1665 H 0.29598 0.22884 0.87476 0.0
H1666 H 0.2252 0.22303 0.75147 0.0
H1667 H 0.23694 0.24199 0.694 0.0
H1668 H 0.23833 0.20567 0.69343 0.0
H1669 H 0.28759 0.27066 0.91495 0.0
H1670 H 0.27467 0.29166 0.86311 0.0
H1671 H 0.26333 0.27345 0.92281 0.0
H1672 H 0.23233 0.33162 0.74951 0.0
H1673 H 0.20452 0.28735 0.89119 0.0
H1674 H 0.2591 0.27828 0.6936 0.0
H1675 H 0.27225 0.29575 0.75018 0.0
H1676 H 0.25789 0.31456 0.69831 0.0
H1677 H 0.22516 0.22468 0.86488 0.0
H1678 H 0.21348 0.24435 0.92265 0.0
H1679 H 0.23784 0.2413 0.92404 0.0
C1680 C 0.96849 0.97499 0.59101 0.0
C1681 C 0.96996 0.95325 0.54978 0.0
C1682 C 0.98103 0.99624 0.58997 0.0
C1683 C 0.99549 0.99564 0.54701 0.0
C1684 C 0.99703 0.97382 0.50509 0.0
C1685 C 0.98419 0.95293 0.50679 0.0
C1686 C 0.97886 0.01925 0.63517 0.0
C1687 C 0.01236 0.97238 0.45898 0.0
C1688 C 0.01956 0.06168 0.51226 0.0
C1689 C 0.03473 0.06004 0.55124 0.0
C1690 C 0.00677 0.04074 0.50987 0.0
C1691 C 0.00925 0.01757 0.54709 0.0
C1692 C 0.0247 0.0156 0.58566 0.0
C1693 C 0.03721 0.03685 0.58735 0.0
C1694 C 0.99043 0.04358 0.46828 0.0
C1695 C 0.0279 0.99116 0.62578 0.0
H1696 H 0.95751 0.97548 0.62423 0.0
H1697 H 0.98545 0.93618 0.47488 0.0
H1698 H 0.99092 0.02038 0.6657 0.0
H1699 H 0.97796 0.03865 0.60992 0.0
H1700 H 0.96659 0.01705 0.66444 0.0
H1701 H 0.01148 0.95426 0.42891 0.0
H1702 H 0.0123 0.9906 0.42936 0.0
H1703 H 0.02555 0.97197 0.48364 0.0
H1704 H 0.01753 0.07949 0.48414 0.0
H1705 H 0.04892 0.0353 0.61744 0.0
H1706 H 0.97786 0.04325 0.49637 0.0
H1707 H 0.98974 0.02631 0.43578 0.0
H1708 H 0.9907 0.06257 0.44114 0.0
H1709 H 0.01666 0.98904 0.65946 0.0
H1710 H 0.04088 0.99237 0.65166 0.0
H1711 H 0.02806 0.97264 0.59699 0.0
C1712 C 0.98352 0.45265 0.00666 0.0
C1713 C 0.96881 0.45267 0.04782 0.0
C1714 C 0.99612 0.47396 0.00627 0.0
C1715 C 0.99392 0.49583 0.04782 0.0
C1716 C 0.97894 0.49616 0.08865 0.0
C1717 C 0.96663 0.47464 0.0882 0.0
C1718 C 0.01193 0.4729 0.96209 0.0
C1719 C 0.97603 0.51911 0.13353 0.0
C1720 C 0.0343 0.53848 0.09641 0.0
C1721 C 0.03175 0.56199 0.06144 0.0
C1722 C 0.02236 0.51656 0.09124 0.0
C1723 C 0.00746 0.51812 0.0501 0.0
C1724 C 0.005 0.54156 0.01375 0.0
C1725 C 0.01717 0.5632 0.01983 0.0
C1726 C 0.02549 0.49194 0.13081 0.0
C1727 C 0.98929 0.544 0.96936 0.0
H1728 H 0.98535 0.43582 0.97531 0.0
H1729 H 0.95529 0.47502 0.12004 0.0
H1730 H 0.01213 0.49129 0.93301 0.0
H1731 H 0.02485 0.47246 0.98839 0.0
H1732 H 0.01144 0.45493 0.93143 0.0
H1733 H 0.96343 0.51669 0.16106 0.0
H1734 H 0.9877 0.52044 0.16575 0.0
H1735 H 0.97526 0.53852 0.10825 0.0
H1736 H 0.04556 0.53725 0.12848 0.0
H1737 H 0.01512 0.5812 0.99235 0.0
H1738 H 0.0262 0.47362 0.10144 0.0
H1739 H 0.01394 0.48928 0.16302 0.0
H1740 H 0.03818 0.49337 0.15829 0.0
H1741 H 0.98923 0.52667 0.93691 0.0
H1742 H 0.98978 0.56297 0.94219 0.0
H1743 H 0.97632 0.54346 0.99528 0.0
C1744 C 0.58589 0.02844 0.91349 0.0
C1745 C 0.59352 0.05036 0.94542 0.0
C1746 C 0.59622 1.00551 0.89841 0.0
C1747 C 0.61472 1.00424 0.91561 0.0
C1748 C 0.62249 0.02606 0.9487 0.0
C1749 C 0.61181 0.04885 0.96322 0.0
C1750 C 0.58736 0.98279 0.86308 0.0
C1751 C 0.64216 0.02549 0.96799 0.0
C1752 C 0.63718 0.93472 0.91676 0.0
C1753 C 0.64637 0.93449 0.85996 0.0
C1754 C 0.62707 0.95737 0.93588 0.0
C1755 C 0.62598 0.98036 0.89721 0.0
C1756 C 0.63517 0.98019 0.83976 0.0
C1757 C 0.64525 0.95737 0.82198 0.0
C1758 C 0.61758 0.95674 0.99761 0.0
C1759 C 0.63432 1.00414 0.79686 0.0
H1760 H 0.57178 0.02924 0.89958 0.0
H1761 H 0.61785 0.06562 0.98784 0.0
H1762 H 0.59424 0.98003 0.81793 0.0
H1763 H 0.5888 0.96361 0.88893 0.0
H1764 H 0.57271 0.98654 0.85454 0.0
H1765 H 0.64602 0.04353 0.99542 0.0
H1766 H 0.64497 0.00718 0.99584 0.0
H1767 H 0.65096 0.02444 0.92649 0.0
H1768 H 0.6381 0.91733 0.94685 0.0
H1769 H 0.65231 0.95753 0.7781 0.0
H1770 H 0.60275 0.95926 0.99097 0.0
H1771 H 0.62227 0.97378 0.02672 0.0
H1772 H 0.62005 0.9376 0.02288 0.0
H1773 H 0.62004 0.00819 0.7836 0.0
H1774 H 0.6424 1.00097 0.75415 0.0
H1775 H 0.63944 0.02239 0.82077 0.0
C1776 C 0.39435 0.97392 0.94279 0.0
C1777 C 0.41274 0.97369 0.92608 0.0
C1778 C 0.38327 0.99642 0.93018 0.0
C1779 C 0.39076 0.01924 0.90028 0.0
C1780 C 0.40937 0.01925 0.88422 0.0
C1781 C 0.42009 0.99654 0.89726 0.0
C1782 C 0.36349 0.99565 0.94802 0.0
C1783 C 0.41791 0.04314 0.85236 0.0
C1784 C 0.35952 0.06611 0.81049 0.0
C1785 C 0.35748 0.0879 0.85138 0.0
C1786 C 0.37021 0.04365 0.82597 0.0
C1787 C 0.3791 0.04282 0.88392 0.0
C1788 C 0.37716 0.06476 0.92539 0.0
C1789 C 0.36643 0.08707 0.90858 0.0
C1790 C 0.37197 0.02078 0.78023 0.0
C1791 C 0.38635 0.06459 0.98771 0.0
H1792 H 0.38854 0.9564 0.96507 0.0
H1793 H 0.43429 0.99667 0.88437 0.0
H1794 H 0.36013 0.01315 0.97791 0.0
H1795 H 0.35491 0.99722 0.90605 0.0
H1796 H 0.35987 0.97683 0.97286 0.0
H1797 H 0.43267 0.04029 0.84451 0.0
H1798 H 0.41123 0.04654 0.80709 0.0
H1799 H 0.41588 0.06165 0.88036 0.0
H1800 H 0.35265 0.06648 0.76623 0.0
H1801 H 0.36482 0.10364 0.94079 0.0
H1802 H 0.36715 1.00174 0.80138 0.0
H1803 H 0.38643 0.0178 0.76777 0.0
H1804 H 0.36412 0.02445 0.73726 0.0
H1805 H 0.38186 0.04679 0.01461 0.0
H1806 H 0.38337 0.08309 0.01491 0.0
H1807 H 0.40125 0.06285 0.98177 0.0
C1808 C 0.64158 0.29994 0.21842 0.0
C1809 C 0.65994 0.30199 0.20222 0.0
C1810 C 0.63146 0.27687 0.20301 0.0
C1811 C 0.63996 0.25532 0.17107 0.0
C1812 C 0.65858 0.25705 0.15588 0.0
C1813 C 0.66831 0.28035 0.1715 0.0
C1814 C 0.61161 0.27574 0.21986 0.0
C1815 C 0.66816 0.23447 0.12213 0.0
C1816 C 0.61779 0.18613 0.17284 0.0
C1817 C 0.60886 0.18573 0.11557 0.0
C1818 C 0.62796 0.20864 0.19153 0.0
C1819 C 0.6293 0.23124 0.15194 0.0
C1820 C 0.62058 0.23078 0.09369 0.0
C1821 C 0.61047 0.20806 0.07625 0.0
C1822 C 0.63706 0.20839 0.25401 0.0
C1823 C 0.62174 0.25443 0.05004 0.0
H1824 H 0.63501 0.31657 0.24208 0.0
H1825 H 0.68253 0.28166 0.15915 0.0
H1826 H 0.60328 0.27419 0.17732 0.0
H1827 H 0.60883 0.2575 0.24788 0.0
H1828 H 0.60715 0.29379 0.24628 0.0
H1829 H 0.68285 0.23853 0.11578 0.0
H1830 H 0.66662 0.21529 0.14789 0.0
H1831 H 0.66189 0.23151 0.07602 0.0
H1832 H 0.61654 0.16909 0.2038 0.0
H1833 H 0.60361 0.20801 0.03198 0.0
H1834 H 0.63173 0.22516 0.28277 0.0
H1835 H 0.65185 0.21165 0.24869 0.0
H1836 H 0.63488 0.18913 0.27903 0.0
H1837 H 0.61603 0.27271 0.07241 0.0
H1838 H 0.61431 0.25079 0.00617 0.0
H1839 H 0.63613 0.25878 0.03901 0.0
C1840 C 0.39383 0.83592 0.15555 0.0
C1841 C 0.39768 0.84186 0.09369 0.0
C1842 C 0.38429 0.81251 0.17144 0.0
C1843 C 0.37765 0.79544 0.12414 0.0
C1844 C 0.3806 0.80218 0.06145 0.0
C1845 C 0.39092 0.82505 0.04699 0.0
C1846 C 0.38198 0.8055 0.23885 0.0
C1847 C 0.37312 0.78504 0.00973 0.0
C1848 C 0.36832 0.72207 0.16237 0.0
C1849 C 0.3499 0.72306 0.17742 0.0
C1850 C 0.37761 0.74558 0.1452 0.0
C1851 C 0.36795 0.77024 0.14049 0.0
C1852 C 0.34913 0.77098 0.15337 0.0
C1853 C 0.34041 0.74743 0.17304 0.0
C1854 C 0.39781 0.74422 0.13404 0.0
C1855 C 0.33824 0.79662 0.14663 0.0
H1856 H 0.39905 0.84883 0.19182 0.0
H1857 H 0.3938 0.82972 0.99908 0.0
H1858 H 0.36738 0.80386 0.25041 0.0
H1859 H 0.38827 0.78557 0.24828 0.0
H1860 H 0.38826 0.82069 0.26992 0.0
H1861 H 0.37524 0.79439 0.96371 0.0
H1862 H 0.37979 0.76498 0.00995 0.0
H1863 H 0.35838 0.78169 0.01657 0.0
H1864 H 0.37559 0.70313 0.16631 0.0
H1865 H 0.32608 0.74795 0.18426 0.0
H1866 H 0.40492 0.7582 0.16595 0.0
H1867 H 0.40098 0.75079 0.08634 0.0
H1868 H 0.40334 0.72359 0.14085 0.0
H1869 H 0.34297 0.81183 0.18057 0.0
H1870 H 0.3235 0.79326 0.15389 0.0
H1871 H 0.34029 0.80528 0.09992 0.0
C1872 C 0.63333 0.43634 0.43266 0.0
C1873 C 0.64302 0.43566 0.37693 0.0
C1874 C 0.62271 0.4589 0.4488 0.0
C1875 C 0.62167 0.4812 0.40806 0.0
C1876 C 0.63126 0.48044 0.35146 0.0
C1877 C 0.6418 0.45776 0.33669 0.0
C1878 C 0.61274 0.459 0.50965 0.0
C1879 C 0.63044 0.50365 0.30645 0.0
C1880 C 0.58181 0.52979 0.41512 0.0
C1881 C 0.5894 0.55223 0.44504 0.0
C1882 C 0.59202 0.50633 0.40431 0.0
C1883 C 0.61033 0.5052 0.42368 0.0
C1884 C 0.61801 0.52757 0.45498 0.0
C1885 C 0.60744 0.5508 0.46542 0.0
C1886 C 0.58329 0.48295 0.3709 0.0
C1887 C 0.63751 0.52715 0.47621 0.0
H1888 H 0.63429 0.41947 0.46426 0.0
H1889 H 0.64919 0.45745 0.29343 0.0
H1890 H 0.61727 0.47632 0.53817 0.0
H1891 H 0.59798 0.46156 0.50158 0.0
H1892 H 0.61495 0.44013 0.53621 0.0
H1893 H 0.63871 0.49991 0.26441 0.0
H1894 H 0.61619 0.50731 0.29217 0.0
H1895 H 0.63537 0.52235 0.32901 0.0
H1896 H 0.56784 0.53056 0.3996 0.0
H1897 H 0.61341 0.568 0.48866 0.0
H1898 H 0.58471 0.46424 0.3985 0.0
H1899 H 0.59029 0.47945 0.32624 0.0
H1900 H 0.56866 0.48648 0.3616 0.0
H1901 H 0.64003 0.50927 0.50572 0.0
H1902 H 0.6412 0.54558 0.50256 0.0
H1903 H 0.64664 0.52546 0.43564 0.0
C1904 C 0.36503 0.58082 0.33251 0.0
C1905 C 0.34699 0.58841 0.34386 0.0
C1906 C 0.37273 0.558 0.36051 0.0
C1907 C 0.36212 0.54202 0.40073 0.0
C1908 C 0.34412 0.5502 0.41457 0.0
C1909 C 0.33681 0.57333 0.38596 0.0
C1910 C 0.39212 0.55061 0.34556 0.0
C1911 C 0.33211 0.53405 0.45701 0.0
C1912 C 0.37878 0.46937 0.4135 0.0
C1913 C 0.38869 0.47007 0.46881 0.0
C1914 C 0.36926 0.49225 0.39243 0.0
C1915 C 0.36999 0.51661 0.42671 0.0
C1916 C 0.37951 0.51717 0.48345 0.0
C1917 C 0.38862 0.49392 0.50397 0.0
C1918 C 0.35874 0.49057 0.33276 0.0
C1919 C 0.38051 0.54263 0.52161 0.0
H1920 H 0.37308 0.5924 0.30019 0.0
H1921 H 0.32295 0.5789 0.39478 0.0
H1922 H 0.40006 0.54824 0.38877 0.0
H1923 H 0.39249 0.53098 0.32092 0.0
H1924 H 0.39886 0.56597 0.31623 0.0
H1925 H 0.32248 0.54746 0.48189 0.0
H1926 H 0.32405 0.51966 0.42893 0.0
H1927 H 0.33994 0.52237 0.49157 0.0
H1928 H 0.37861 0.45102 0.38625 0.0
H1929 H 0.39622 0.49477 0.54677 0.0
H1930 H 0.36498 0.504 0.29781 0.0
H1931 H 0.34462 0.49765 0.3402 0.0
H1932 H 0.35837 0.46974 0.31387 0.0
H1933 H 0.38749 0.55863 0.49496 0.0
H1934 H 0.38788 0.53955 0.5658 0.0
H1935 H 0.36663 0.55003 0.53203 0.0
C1936 C 0.66675 0.77781 0.65591 0.0
C1937 C 0.65948 0.8004 0.68643 0.0
C1938 C 0.65622 0.75479 0.64401 0.0
C1939 C 0.63786 0.75412 0.66301 0.0
C1940 C 0.63046 0.77664 0.69476 0.0
C1941 C 0.64135 0.7995 0.70612 0.0
C1942 C 0.66469 0.73133 0.60998 0.0
C1943 C 0.61094 0.77675 0.71582 0.0
C1944 C 0.60626 0.70709 0.57468 0.0
C1945 C 0.60505 0.68472 0.6142 0.0
C1946 C 0.61673 0.72975 0.59025 0.0
C1947 C 0.62627 0.73031 0.647 0.0
C1948 C 0.62517 0.7078 0.68716 0.0
C1949 C 0.61465 0.68526 0.67022 0.0
C1950 C 0.61757 0.75315 0.54577 0.0
C1951 C 0.63505 0.70761 0.74821 0.0
H1952 H 0.68075 0.77812 0.64069 0.0
H1953 H 0.63559 0.81676 0.72981 0.0
H1954 H 0.66321 0.71258 0.63736 0.0
H1955 H 0.65755 0.72811 0.56546 0.0
H1956 H 0.67932 0.73457 0.60032 0.0
H1957 H 0.60744 0.79521 0.74239 0.0
H1958 H 0.60182 0.77541 0.67519 0.0
H1959 H 0.60822 0.75886 0.74508 0.0
H1960 H 0.59892 0.707 0.53131 0.0
H1961 H 0.61368 0.66827 0.70144 0.0
H1962 H 0.63181 0.75666 0.53142 0.0
H1963 H 0.61274 0.77182 0.5688 0.0
H1964 H 0.60923 0.7497 0.50375 0.0
H1965 H 0.64984 0.7098 0.74043 0.0
H1966 H 0.63263 0.68879 0.77466 0.0
H1967 H 0.63062 0.72504 0.7767 0.0
C1968 C 0.39318 0.31467 0.55246 0.0
C1969 C 0.39713 0.33557 0.59418 0.0
C1970 C 0.38303 0.29201 0.57055 0.0
C1971 C 0.37652 0.29006 0.63195 0.0
C1972 C 0.38045 0.31106 0.67436 0.0
C1973 C 0.39067 0.33351 0.65503 0.0
C1974 C 0.37925 0.27013 0.52375 0.0
C1975 C 0.37378 0.30988 0.74018 0.0
C1976 C 0.33528 0.24511 0.65723 0.0
C1977 C 0.34303 0.22131 0.6806 0.0
C1978 C 0.34596 0.26766 0.64247 0.0
C1979 C 0.365 0.26656 0.65081 0.0
C1980 C 0.37294 0.24278 0.67525 0.0
C1981 C 0.36188 0.22048 0.69004 0.0
C1982 C 0.33685 0.29258 0.61704 0.0
C1983 C 0.39319 0.24071 0.68469 0.0
H1984 H 0.39819 0.31582 0.5055 0.0
H1985 H 0.39367 0.34943 0.6878 0.0
H1986 H 0.38436 0.25048 0.54104 0.0
H1987 H 0.36441 0.26805 0.51689 0.0
H1988 H 0.38564 0.27429 0.47832 0.0
H1989 H 0.37823 0.32756 0.76781 0.0
H1990 H 0.35875 0.30903 0.7408 0.0
H1991 H 0.37883 0.29127 0.7628 0.0
H1992 H 0.32075 0.24615 0.65005 0.0
H1993 H 0.36803 0.20225 0.70798 0.0
H1994 H 0.34182 0.29659 0.56959 0.0
H1995 H 0.34035 0.31038 0.64572 0.0
H1996 H 0.32185 0.29063 0.61551 0.0
H1997 H 0.40022 0.24267 0.63963 0.0
H1998 H 0.39724 0.22128 0.70613 0.0
H1999 H 0.39799 0.25746 0.71448 0.0
C2000 C 0.14037 0.93269 0.41214 0.0
C2001 C 0.14916 0.9318 0.35466 0.0
C2002 C 0.12984 0.95517 0.42969 0.0
C2003 C 0.12792 0.97727 0.3887 0.0
C2004 C 0.13667 0.97639 0.33053 0.0
C2005 C 0.14717 0.95377 0.31434 0.0
C2006 C 0.1208 0.95533 0.49221 0.0
C2007 C 0.13496 0.99937 0.28521 0.0
C2008 C 0.08702 0.02396 0.40231 0.0
C2009 C 0.09442 0.04685 0.43107 0.0
C2010 C 0.09768 1.00111 0.38941 0.0
C2011 C 0.11629 1.00096 0.40548 0.0
C2012 C 0.12384 0.02382 0.43533 0.0
C2013 C 0.11282 0.04647 0.44784 0.0
C2014 C 0.08904 0.97724 0.35757 0.0
C2015 C 0.14363 0.02449 0.45316 0.0
H2016 H 0.14195 0.916 0.44395 0.0
H2017 H 0.15389 0.95341 0.26985 0.0
H2018 H 0.12537 0.97311 0.51917 0.0
H2019 H 0.10589 0.95711 0.48662 0.0
H2020 H 0.12382 0.93682 0.51915 0.0
H2021 H 0.14278 0.99573 0.24215 0.0
H2022 H 0.1205 1.00245 0.27284 0.0
H2023 H 0.13984 0.01834 0.30667 0.0
H2024 H 0.07283 0.02388 0.38936 0.0
H2025 H 0.11868 0.06399 0.4701 0.0
H2026 H 0.09109 0.95873 0.38543 0.0
H2027 H 0.09563 0.97381 0.31216 0.0
H2028 H 0.07427 0.98013 0.35001 0.0
H2029 H 0.14697 0.00693 0.48278 0.0
H2030 H 0.14728 0.04326 0.47826 0.0
H2031 H 0.15218 0.02295 0.41115 0.0
C2032 C 0.90373 0.98306 0.42186 0.0
C2033 C 0.89379 0.96519 0.45889 0.0
C2034 C 0.89624 0.00768 0.40242 0.0
C2035 C 0.87835 0.01459 0.42019 0.0
C2036 C 0.86829 0.9968 0.45806 0.0
C2037 C 0.87616 0.97235 0.47708 0.0
C2038 C 0.90738 0.02615 0.36213 0.0
C2039 C 0.84912 1.00339 0.47767 0.0
C2040 C 0.86219 0.08742 0.4107 0.0
C2041 C 0.85208 0.08712 0.35579 0.0
C2042 C 0.87109 0.06409 0.43177 0.0
C2043 C 0.86984 0.03991 0.39712 0.0
C2044 C 0.86005 0.03967 0.34094 0.0
C2045 C 0.85134 0.06325 0.32093 0.0
C2046 C 0.88145 0.0651 0.49187 0.0
C2047 C 0.85835 0.01431 0.30266 0.0
H2048 H 0.91738 0.97778 0.40776 0.0
H2049 H 0.86837 0.9587 0.50567 0.0
H2050 H 0.90065 0.02869 0.31666 0.0
H2051 H 0.90832 0.04643 0.38359 0.0
H2052 H 0.92132 0.01833 0.35436 0.0
H2053 H 0.84331 0.98779 0.50862 0.0
H2054 H 0.84876 0.02309 0.50196 0.0
H2055 H 0.84029 1.00523 0.43638 0.0
H2056 H 0.86278 0.1057 0.43813 0.0
H2057 H 0.84359 0.06273 0.27841 0.0
H2058 H 0.89556 0.05796 0.48476 0.0
H2059 H 0.87505 0.05139 0.5259 0.0
H2060 H 0.88185 0.08574 0.51184 0.0
H2061 H 0.872 1.00633 0.29106 0.0
H2062 H 0.85075 0.01773 0.25904 0.0
H2063 H 0.85124 0.99855 0.32965 0.0
C2064 C 0.10852 0.2025 0.57262 0.0
C2065 C 0.1075 0.17914 0.60895 0.0
C2066 C 0.11833 0.22515 0.59246 0.0
C2067 C 0.12731 0.22457 0.65026 0.0
C2068 C 0.12641 0.20104 0.68711 0.0
C2069 C 0.11659 0.17858 0.66593 0.0
C2070 C 0.11904 0.24976 0.55154 0.0
C2071 C 0.1357 0.19968 0.74917 0.0
C2072 C 0.16649 0.27328 0.67221 0.0
C2073 C 0.15833 0.29445 0.70526 0.0
C2074 C 0.15662 0.2503 0.655 0.0
C2075 C 0.13809 0.24832 0.67116 0.0
C2076 C 0.12981 0.26934 0.70558 0.0
C2077 C 0.14005 0.29216 0.72234 0.0
C2078 C 0.16597 0.22838 0.61835 0.0
C2079 C 0.11006 0.26792 0.72368 0.0
H2080 H 0.10152 0.20322 0.52862 0.0
H2081 H 0.11575 0.16076 0.6947 0.0
H2082 H 0.11344 0.26747 0.57647 0.0
H2083 H 0.13333 0.25448 0.53978 0.0
H2084 H 0.1113 0.247 0.50797 0.0
H2085 H 0.1335 0.18005 0.77263 0.0
H2086 H 0.1505 0.20282 0.74347 0.0
H2087 H 0.13059 0.21605 0.77954 0.0
H2088 H 0.18063 0.27475 0.65899 0.0
H2089 H 0.13363 0.30842 0.74777 0.0
H2090 H 0.15938 0.22624 0.57253 0.0
H2091 H 0.16464 0.20875 0.64238 0.0
H2092 H 0.18061 0.23259 0.61117 0.0
H2093 H 0.10146 0.26731 0.68163 0.0
H2094 H 0.10581 0.2854 0.75239 0.0
H2095 H 0.10741 0.2491 0.7498 0.0
C2096 C 0.85901 0.71919 0.65417 0.0
C2097 C 0.8474 0.72211 0.70507 0.0
C2098 C 0.86883 0.74126 0.63115 0.0
C2099 C 0.86683 0.76691 0.65925 0.0
C2100 C 0.85457 0.77017 0.709 0.0
C2101 C 0.84509 0.74773 0.73152 0.0
C2102 C 0.8819 0.7369 0.57839 0.0
C2103 C 0.85191 0.79721 0.7399 0.0
C2104 C 0.90681 0.81479 0.65607 0.0
C2105 C 0.90181 0.83326 0.6099 0.0
C2106 C 0.89563 0.79309 0.67185 0.0
C2107 C 0.87889 0.78963 0.64103 0.0
C2108 C 0.87369 0.80805 0.59422 0.0
C2109 C 0.88524 0.82966 0.5791 0.0
C2110 C 0.90176 0.7739 0.72188 0.0
C2111 C 0.8559 0.805 0.5605 0.0
H2112 H 0.86082 0.69949 0.63333 0.0
H2113 H 0.83596 0.75024 0.77033 0.0
H2114 H 0.87943 0.75188 0.54134 0.0
H2115 H 0.896 0.7399 0.59495 0.0
H2116 H 0.88082 0.71633 0.55837 0.0
H2117 H 0.84066 0.79694 0.77401 0.0
H2118 H 0.86456 0.80312 0.76414 0.0
H2119 H 0.84901 0.81295 0.7049 0.0
H2120 H 0.91958 0.81718 0.68025 0.0
H2121 H 0.88124 0.84375 0.54336 0.0
H2122 H 0.90224 0.753 0.70361 0.0
H2123 H 0.89191 0.77415 0.76058 0.0
H2124 H 0.91537 0.77909 0.74043 0.0
H2125 H 0.85523 0.78492 0.53801 0.0
H2126 H 0.85393 0.82077 0.52474 0.0
H2127 H 0.8445 0.80614 0.59384 0.0
C2128 C 0.10792 0.54596 0.9736 0.0
C2129 C 0.08976 0.5473 0.95444 0.0
C2130 C 0.1186 0.52299 0.96116 0.0
C2131 C 0.11091 0.50084 0.92907 0.0
C2132 C 0.0925 0.50192 0.91078 0.0
C2133 C 0.08219 0.52507 0.92363 0.0
C2134 C 0.13821 0.52262 0.98123 0.0
C2135 C 0.08376 0.4788 0.87648 0.0
C2136 C 0.14161 0.45324 0.83903 0.0
C2137 C 0.14267 0.43082 0.87839 0.0
C2138 C 0.1315 0.47619 0.85526 0.0
C2139 C 0.1222 0.47689 0.91242 0.0
C2140 C 0.12319 0.45435 0.95244 0.0
C2141 C 0.13337 0.43156 0.93491 0.0
C2142 C 0.13075 0.4997 0.81104 0.0
C2143 C 0.1135 0.45434 0.01383 0.0
H2144 H 0.11389 0.56303 0.9973 0.0
H2145 H 0.06815 0.52579 0.90886 0.0
H2146 H 0.14093 0.5046 0.01013 0.0
H2147 H 0.14714 0.52118 0.94012 0.0
H2148 H 0.14197 0.54094 0.00785 0.0
H2149 H 0.06912 0.48238 0.86747 0.0
H2150 H 0.09071 0.47564 0.83161 0.0
H2151 H 0.0852 0.45988 0.90332 0.0
H2152 H 0.14876 0.45296 0.7953 0.0
H2153 H 0.13424 0.41449 0.96595 0.0
H2154 H 0.13575 0.51822 0.83415 0.0
H2155 H 0.11651 0.50354 0.79699 0.0
H2156 H 0.13898 0.49615 0.76882 0.0
H2157 H 0.11813 0.47165 0.04224 0.0
H2158 H 0.11586 0.43545 0.04015 0.0
H2159 H 0.0987 0.45684 0.00652 0.0
C2160 C 0.83907 0.55238 0.87863 0.0
C2161 C 0.84693 0.57616 0.85581 0.0
C2162 C 0.84969 0.53008 0.89552 0.0
C2163 C 0.8688 0.53146 0.89029 0.0
C2164 C 0.87687 0.55515 0.866 0.0
C2165 C 0.86582 0.57718 0.84862 0.0
C2166 C 0.84042 0.5052 0.92023 0.0
C2167 C 0.89718 0.5575 0.86005 0.0
C2168 C 0.89432 0.48404 0.99828 0.0
C2169 C 0.89878 0.46246 0.95905 0.0
C2170 C 0.8852 0.507 0.97595 0.0
C2171 C 0.88016 0.50842 0.91287 0.0
C2172 C 0.88484 0.48687 0.87279 0.0
C2173 C 0.89418 0.46427 0.89622 0.0
C2174 C 0.88065 0.52955 0.02027 0.0
C2175 C 0.87952 0.48737 0.80546 0.0
H2176 H 0.82447 0.55116 0.88369 0.0
H2177 H 0.87202 0.59543 0.83113 0.0
H2178 H 0.8447 0.48718 0.89349 0.0
H2179 H 0.84448 0.50184 0.96896 0.0
H2180 H 0.8254 0.50679 0.91822 0.0
H2181 H 0.90133 0.57669 0.83781 0.0
H2182 H 0.90351 0.5564 0.90649 0.0
H2183 H 0.90263 0.54042 0.83257 0.0
H2184 H 0.89797 0.48304 0.04672 0.0
H2185 H 0.89758 0.44778 0.86543 0.0
H2186 H 0.86572 0.53131 0.02511 0.0
H2187 H 0.88566 0.54905 1.00198 0.0
H2188 H 0.8866 0.52627 0.0668 0.0
H2189 H 0.86452 0.48738 0.80132 0.0
H2190 H 0.88497 0.46977 0.7796 0.0
H2191 H 0.88449 0.50611 0.78334 0.0
C2192 C 0.14109 0.80036 0.19778 0.0
C2193 C 0.15917 0.80048 0.17746 0.0
C2194 C 0.12985 0.77775 0.18798 0.0
C2195 C 0.13687 0.75461 0.15761 0.0
C2196 C 0.15522 0.75445 0.13832 0.0
C2197 C 0.16607 0.77732 0.14824 0.0
C2198 C 0.11036 0.77877 0.20917 0.0
C2199 C 0.16335 0.73021 0.10628 0.0
C2200 C 0.11295 0.68651 0.17069 0.0
C2201 C 0.10342 0.68517 0.11458 0.0
C2202 C 0.12362 0.70912 0.18582 0.0
C2203 C 0.12496 0.7309 0.14373 0.0
C2204 C 0.11538 0.72963 0.08707 0.0
C2205 C 0.10473 0.7069 0.07332 0.0
C2206 C 0.13351 0.70969 0.24686 0.0
C2207 C 0.11646 0.75225 0.04063 0.0
H2208 H 0.13563 0.81809 0.22046 0.0
H2209 H 0.18006 0.77701 0.1329 0.0
H2210 H 0.10119 0.77697 0.16875 0.0
H2211 H 0.10745 0.7615 0.24008 0.0
H2212 H 0.10711 0.79778 0.23404 0.0
H2213 H 0.17802 0.73286 0.09633 0.0
H2214 H 0.16164 0.71197 0.13525 0.0
H2215 H 0.15615 0.72648 0.06209 0.0
H2216 H 0.1119 0.67002 0.20325 0.0
H2217 H 0.09744 0.70618 0.02988 0.0
H2218 H 0.12944 0.7278 0.27362 0.0
H2219 H 0.14833 0.71109 0.23882 0.0
H2220 H 0.13075 0.69149 0.27516 0.0
H2221 H 0.11204 0.77146 0.06224 0.0
H2222 H 0.10793 0.74845 0.99923 0.0
H2223 H 0.13071 0.75497 0.02547 0.0
C2224 C 0.85817 0.22066 0.19699 0.0
C2225 C 0.83988 0.22027 0.17903 0.0
C2226 C 0.86934 0.24295 0.18357 0.0
C2227 C 0.86205 0.26543 0.15155 0.0
C2228 C 0.84355 0.26526 0.13413 0.0
C2229 C 0.83274 0.24277 0.14801 0.0
C2230 C 0.88901 0.24232 0.20291 0.0
C2231 C 0.83519 0.28874 0.10002 0.0
C2232 C 0.88612 0.33355 0.15672 0.0
C2233 C 0.89525 0.33385 0.0998 0.0
C2234 C 0.87547 0.31133 0.17451 0.0
C2235 C 0.87382 0.28883 0.13446 0.0
C2236 C 0.88296 0.28905 0.07695 0.0
C2237 C 0.89353 0.31146 0.0604 0.0
C2238 C 0.86598 0.31192 0.23625 0.0
C2239 C 0.88157 0.26557 0.03273 0.0
H2240 H 0.86384 0.20343 0.22098 0.0
H2241 H 0.81862 0.24282 0.13405 0.0
H2242 H 0.89784 0.24339 0.1615 0.0
H2243 H 0.89217 0.26015 0.23196 0.0
H2244 H 0.89249 0.22379 0.22915 0.0
H2245 H 0.82048 0.28583 0.09123 0.0
H2246 H 0.83701 0.30759 0.12694 0.0
H2247 H 0.84214 0.29156 0.05507 0.0
H2248 H 0.88746 0.35056 0.18786 0.0
H2249 H 0.90054 0.31133 0.01641 0.0
H2250 H 0.87031 0.2944 0.26446 0.0
H2251 H 0.85111 0.31022 0.22947 0.0
H2252 H 0.86883 0.33069 0.26253 0.0
H2253 H 0.88627 0.24681 0.05564 0.0
H2254 H 0.88973 0.26865 0.99021 0.0
H2255 H 0.86721 0.26245 0.01923 0.0
loop_
_geom_bond_atom_site_label_1
_geom_bond_atom_site_label_2
_geom_bond_distance
_geom_bond_site_symmetry_2
_ccdc_geom_bond_type
O0 Tb1 2.292 . S
O0 C3 1.255 . S
Tb1 O0 2.292 . S
Tb1 O17 2.326 . S
Tb1 O19 2.500 . S
Tb1 O20 2.473 . S
Tb1 O23 2.324 . S
Eu2 O6 2.292 . S
Eu2 C7 2.852 . S
Eu2 O18 2.324 1_556 S
Eu2 O22 2.328 . S
Eu2 O24 2.500 . S
Eu2 O25 2.473 . S
C3 O0 1.255 . S
C3 O4 1.247 . S
O4 C3 1.247 . S
C5 O17 1.242 . S
C5 O18 1.258 . S
O6 Eu2 2.292 . S
O6 C8 1.255 . S
C7 Eu2 2.852 . S
C7 C11 1.503 . S
C7 O24 1.273 . S
C7 O25 1.257 . S
C8 O6 1.255 . S
C8 O9 1.247 1_556 S
O9 C8 1.247 1_554 S
C10 O22 1.236 1_554 S
C10 O23 1.258 . S
C11 C7 1.503 . S
C11 C12 1.379 . S
C11 C16 1.392 . S
C12 C11 1.379 . S
C12 C13 1.404 . S
C12 H26 0.929 . S
C13 C12 1.404 . S
C13 C14 1.389 . S
C14 C13 1.389 . S
C14 C15 1.399 . S
C14 H27 0.931 . S
C15 C14 1.399 . S
C15 C16 1.390 . S
C16 C11 1.392 . S
C16 C15 1.390 . S
C16 H28 0.929 . S
O17 Tb1 2.326 . S
O17 C5 1.242 . S
O18 Eu2 2.324 1_554 S
O18 C5 1.258 . S
O19 Tb1 2.500 . S
O19 C21 1.273 . S
O20 Tb1 2.473 . S
O20 C21 1.257 . S
C21 O19 1.273 . S
C21 O20 1.257 . S
O22 Eu2 2.328 . S
O22 C10 1.236 1_556 S
O23 Tb1 2.324 . S
O23 C10 1.258 . S
O24 Eu2 2.500 . S
O24 C7 1.273 . S
O25 Eu2 2.473 . S
O25 C7 1.257 . S
H26 C12 0.929 . S
H27 C14 0.931 . S
H28 C16 0.929 . S
O29 Tb30 2.292 . S
O29 C32 1.255 . S
Tb30 O29 2.292 . S
Tb30 O46 2.326 . S
Tb30 O48 2.500 . S
Tb30 O49 2.473 . S
Tb30 O52 2.324 . S
Eu31 O35 2.292 . S
Eu31 C36 2.852 . S
Eu31 O47 2.324 1_556 S
Eu31 O51 2.328 . S
Eu31 O53 2.500 . S
Eu31 O54 2.473 . S
C32 O29 1.255 . S
C32 O33 1.247 . S
O33 C32 1.247 . S
C34 O46 1.242 . S
C34 O47 1.258 . S
O35 Eu31 2.292 . S
O35 C37 1.255 . S
C36 Eu31 2.852 . S
C36 C40 1.503 . S
C36 O53 1.273 . S
C36 O54 1.257 . S
C37 O35 1.255 . S
C37 O38 1.247 1_556 S
O38 C37 1.247 1_554 S
C39 O51 1.236 1_554 S
C39 O52 1.258 . S
C40 C36 1.503 . S
C40 C41 1.379 . S
C40 C45 1.392 . S
C41 C40 1.379 . S
C41 C42 1.404 . S
C41 H55 0.929 . S
C42 C41 1.404 . S
C42 C43 1.389 . S
C43 C42 1.389 . S
C43 C44 1.399 . S
C43 H56 0.931 . S
C44 C43 1.399 . S
C44 C45 1.390 . S
C45 C40 1.392 . S
C45 C44 1.390 . S
C45 H57 0.929 . S
O46 Tb30 2.326 . S
O46 C34 1.242 . S
O47 Eu31 2.324 1_554 S
O47 C34 1.258 . S
O48 Tb30 2.500 . S
O48 C50 1.273 . S
O49 Tb30 2.473 . S
O49 C50 1.257 . S
C50 O48 1.273 . S
C50 O49 1.257 . S
O51 Eu31 2.328 . S
O51 C39 1.236 1_556 S
O52 Tb30 2.324 . S
O52 C39 1.258 . S
O53 Eu31 2.500 . S
O53 C36 1.273 . S
O54 Eu31 2.473 . S
O54 C36 1.257 . S
H55 C41 0.929 . S
H56 C43 0.931 . S
H57 C45 0.929 . S
O58 Tb59 2.292 . S
O58 C61 1.255 . S
Tb59 O58 2.292 . S
Tb59 O75 2.326 . S
Tb59 O77 2.500 . S
Tb59 O78 2.473 . S
Tb59 O81 2.324 . S
Eu60 O64 2.292 . S
Eu60 C65 2.852 . S
Eu60 O76 2.324 . S
Eu60 O80 2.326 . S
Eu60 O82 2.500 . S
Eu60 O83 2.473 . S
C61 O58 1.255 . S
C61 O62 1.247 . S
O62 C61 1.247 . S
C63 O75 1.242 . S
C63 O76 1.258 . S
O64 Eu60 2.292 . S
O64 C66 1.255 . S
C65 Eu60 2.852 . S
C65 C69 1.503 . S
C65 O82 1.273 . S
C65 O83 1.257 . S
C66 O64 1.255 . S
C66 O67 1.247 . S
O67 C66 1.247 . S
C68 O80 1.242 . S
C68 O81 1.258 . S
C69 C65 1.503 . S
C69 C70 1.379 . S
C69 C74 1.392 . S
C70 C69 1.379 . S
C70 C71 1.404 . S
C70 H84 0.929 . S
C71 C70 1.404 . S
C71 C72 1.389 1_554 S
C72 C71 1.389 1_556 S
C72 C73 1.399 . S
C72 H85 0.931 . S
C73 C72 1.399 . S
C73 C74 1.390 1_556 S
C74 C69 1.392 . S
C74 C73 1.390 1_554 S
C74 H86 0.929 . S
O75 Tb59 2.326 . S
O75 C63 1.242 . S
O76 Eu60 2.324 . S
O76 C63 1.258 . S
O77 Tb59 2.500 . S
O77 C79 1.273 . S
O78 Tb59 2.473 . S
O78 C79 1.257 . S
C79 O77 1.273 . S
C79 O78 1.257 . S
O80 Eu60 2.326 . S
O80 C68 1.242 . S
O81 Tb59 2.324 . S
O81 C68 1.258 . S
O82 Eu60 2.500 . S
O82 C65 1.273 . S
O83 Eu60 2.473 . S
O83 C65 1.257 . S
H84 C70 0.929 . S
H85 C72 0.931 . S
H86 C74 0.929 . S
O87 Tb88 2.292 . S
O87 C90 1.255 . S
Tb88 O87 2.292 . S
Tb88 O104 2.326 . S
Tb88 O106 2.500 . S
Tb88 O107 2.473 . S
Tb88 O110 2.324 . S
Eu89 O93 2.292 . S
Eu89 C94 2.852 . S
Eu89 O105 2.324 . S
Eu89 O109 2.326 . S
Eu89 O111 2.500 . S
Eu89 O112 2.473 . S
C90 O87 1.255 . S
C90 O91 1.247 . S
O91 C90 1.247 . S
C92 O104 1.242 . S
C92 O105 1.258 . S
O93 Eu89 2.292 . S
O93 C95 1.255 . S
C94 Eu89 2.852 . S
C94 C98 1.503 . S
C94 O111 1.273 . S
C94 O112 1.257 . S
C95 O93 1.255 . S
C95 O96 1.247 . S
O96 C95 1.247 . S
C97 O109 1.242 . S
C97 O110 1.258 . S
C98 C94 1.503 . S
C98 C99 1.379 . S
C98 C103 1.392 . S
C99 C98 1.379 . S
C99 C100 1.404 . S
C99 H113 0.929 . S
C100 C99 1.404 . S
C100 C101 1.389 1_554 S
C101 C100 1.389 1_556 S
C101 C102 1.399 . S
C101 H114 0.931 . S
C102 C101 1.399 . S
C102 C103 1.390 1_556 S
C103 C98 1.392 . S
C103 C102 1.390 1_554 S
C103 H115 0.929 . S
O104 Tb88 2.326 . S
O104 C92 1.242 . S
O105 Eu89 2.324 . S
O105 C92 1.258 . S
O106 Tb88 2.500 . S
O106 C108 1.273 . S
O107 Tb88 2.473 . S
O107 C108 1.257 . S
C108 O106 1.273 . S
C108 O107 1.257 . S
O109 Eu89 2.326 . S
O109 C97 1.242 . S
O110 Tb88 2.324 . S
O110 C97 1.258 . S
O111 Eu89 2.500 . S
O111 C94 1.273 . S
O112 Eu89 2.473 . S
O112 C94 1.257 . S
H113 C99 0.929 . S
H114 C101 0.931 . S
H115 C103 0.929 . S
O116 Tb117 2.292 . S
O116 C119 1.255 . S
Tb117 O116 2.292 . S
Tb117 O133 2.326 . S
Tb117 O135 2.500 . S
Tb117 O136 2.473 . S
Tb117 O139 2.324 . S
Eu118 O122 2.292 . S
Eu118 C123 2.852 . S
Eu118 O134 2.324 . S
Eu118 O138 2.326 . S
Eu118 O140 2.500 . S
Eu118 O141 2.473 . S
C119 O116 1.255 . S
C119 O120 1.247 . S
O120 C119 1.247 . S
C121 O133 1.242 . S
C121 O134 1.258 . S
O122 Eu118 2.292 . S
O122 C124 1.255 . S
C123 Eu118 2.852 . S
C123 C127 1.503 . S
C123 O140 1.273 . S
C123 O141 1.257 . S
C124 O122 1.255 . S
C124 O125 1.247 . S
O125 C124 1.247 . S
C126 O138 1.242 . S
C126 O139 1.258 . S
C127 C123 1.503 . S
C127 C128 1.379 . S
C127 C132 1.392 . S
C128 C127 1.379 . S
C128 C129 1.404 . S
C128 H142 0.929 . S
C129 C128 1.404 . S
C129 C130 1.389 . S
C130 C129 1.389 . S
C130 C131 1.399 . S
C130 H143 0.931 . S
C131 C130 1.399 . S
C131 C132 1.390 . S
C132 C127 1.392 . S
C132 C131 1.390 . S
C132 H144 0.929 . S
O133 Tb117 2.326 . S
O133 C121 1.242 . S
O134 Eu118 2.324 . S
O134 C121 1.258 . S
O135 Tb117 2.500 . S
O135 C137 1.273 . S
O136 Tb117 2.473 . S
O136 C137 1.257 . S
C137 O135 1.273 . S
C137 O136 1.257 . S
O138 Eu118 2.326 . S
O138 C126 1.242 . S
O139 Tb117 2.324 . S
O139 C126 1.258 . S
O140 Eu118 2.500 . S
O140 C123 1.273 . S
O141 Eu118 2.473 . S
O141 C123 1.257 . S
H142 C128 0.929 . S
H143 C130 0.931 . S
H144 C132 0.929 . S
O145 Tb146 2.292 . S
O145 C148 1.255 . S
Tb146 O145 2.292 . S
Tb146 O162 2.326 . S
Tb146 O164 2.500 . S
Tb146 O165 2.473 . S
Tb146 O168 2.324 . S
Eu147 O151 2.292 . S
Eu147 C152 2.852 . S
Eu147 O163 2.324 . S
Eu147 O167 2.326 . S
Eu147 O169 2.500 . S
Eu147 O170 2.473 . S
C148 O145 1.255 . S
C148 O149 1.247 . S
O149 C148 1.247 . S
C150 O162 1.242 . S
C150 O163 1.258 . S
O151 Eu147 2.292 . S
O151 C153 1.255 . S
C152 Eu147 2.852 . S
C152 C156 1.503 . S
C152 O169 1.273 . S
C152 O170 1.257 . S
C153 O151 1.255 . S
C153 O154 1.247 . S
O154 C153 1.247 . S
C155 O167 1.242 . S
C155 O168 1.258 . S
C156 C152 1.503 . S
C156 C157 1.379 . S
C156 C161 1.392 . S
C157 C156 1.379 . S
C157 C158 1.404 . S
C157 H171 0.929 . S
C158 C157 1.404 . S
C158 C159 1.389 . S
C159 C158 1.389 . S
C159 C160 1.399 . S
C159 H172 0.931 . S
C160 C159 1.399 . S
C160 C161 1.390 . S
C161 C156 1.392 . S
C161 C160 1.390 . S
C161 H173 0.929 . S
O162 Tb146 2.326 . S
O162 C150 1.242 . S
O163 Eu147 2.324 . S
O163 C150 1.258 . S
O164 Tb146 2.500 . S
O164 C166 1.273 . S
O165 Tb146 2.473 . S
O165 C166 1.257 . S
C166 O164 1.273 . S
C166 O165 1.257 . S
O167 Eu147 2.326 . S
O167 C155 1.242 . S
O168 Tb146 2.324 . S
O168 C155 1.258 . S
O169 Eu147 2.500 . S
O169 C152 1.273 . S
O170 Eu147 2.473 . S
O170 C152 1.257 . S
H171 C157 0.929 . S
H172 C159 0.931 . S
H173 C161 0.929 . S
O174 Tb175 2.292 . S
O174 C177 1.255 . S
Tb175 O174 2.292 . S
Tb175 O191 2.326 . S
Tb175 O193 2.500 . S
Tb175 O194 2.473 . S
Tb175 O197 2.324 . S
Eu176 O180 2.292 . S
Eu176 C181 2.852 . S
Eu176 O192 2.324 . S
Eu176 O196 2.326 . S
Eu176 O198 2.500 . S
Eu176 O199 2.473 . S
C177 O174 1.255 . S
C177 O178 1.247 . S
O178 C177 1.247 . S
C179 O191 1.242 . S
C179 O192 1.258 . S
O180 Eu176 2.292 . S
O180 C182 1.255 . S
C181 Eu176 2.852 . S
C181 C185 1.503 . S
C181 O198 1.273 . S
C181 O199 1.257 . S
C182 O180 1.255 . S
C182 O183 1.247 . S
O183 C182 1.247 . S
C184 O196 1.242 . S
C184 O197 1.258 . S
C185 C181 1.503 . S
C185 C186 1.379 . S
C185 C190 1.392 . S
C186 C185 1.379 . S
C186 C187 1.404 . S
C186 H200 0.929 . S
C187 C186 1.404 . S
C187 C188 1.389 . S
C188 C187 1.389 . S
C188 C189 1.399 . S
C188 H201 0.931 . S
C189 C188 1.399 . S
C189 C190 1.390 . S
C190 C185 1.392 . S
C190 C189 1.390 . S
C190 H202 0.929 . S
O191 Tb175 2.326 . S
O191 C179 1.242 . S
O192 Eu176 2.324 . S
O192 C179 1.258 . S
O193 Tb175 2.500 . S
O193 C195 1.273 . S
O194 Tb175 2.473 . S
O194 C195 1.257 . S
C195 O193 1.273 . S
C195 O194 1.257 . S
O196 Eu176 2.326 . S
O196 C184 1.242 . S
O197 Tb175 2.324 . S
O197 C184 1.258 . S
O198 Eu176 2.500 . S
O198 C181 1.273 . S
O199 Eu176 2.473 . S
O199 C181 1.257 . S
H200 C186 0.929 . S
H201 C188 0.931 . S
H202 C190 0.929 . S
O203 Tb204 2.292 . S
O203 C206 1.255 . S
Tb204 O203 2.292 . S
Tb204 O220 2.326 . S
Tb204 O222 2.500 . S
Tb204 O223 2.473 . S
Tb204 O226 2.324 . S
Eu205 O209 2.292 . S
Eu205 C210 2.852 . S
Eu205 O221 2.324 . S
Eu205 O225 2.326 . S
Eu205 O227 2.500 . S
Eu205 O228 2.473 . S
C206 O203 1.255 . S
C206 O207 1.247 . S
O207 C206 1.247 . S
C208 O220 1.242 . S
C208 O221 1.258 . S
O209 Eu205 2.292 . S
O209 C211 1.255 . S
C210 Eu205 2.852 . S
C210 C214 1.503 . S
C210 O227 1.273 . S
C210 O228 1.257 . S
C211 O209 1.255 . S
C211 O212 1.247 . S
O212 C211 1.247 . S
C213 O225 1.242 . S
C213 O226 1.258 . S
C214 C210 1.503 . S
C214 C215 1.379 . S
C214 C219 1.392 . S
C215 C214 1.379 . S
C215 C216 1.404 . S
C215 H229 0.929 . S
C216 C215 1.404 . S
C216 C217 1.389 . S
C217 C216 1.389 . S
C217 C218 1.399 . S
C217 H230 0.931 . S
C218 C217 1.399 . S
C218 C219 1.390 . S
C219 C214 1.392 . S
C219 C218 1.390 . S
C219 H231 0.929 . S
O220 Tb204 2.326 . S
O220 C208 1.242 . S
O221 Eu205 2.324 . S
O221 C208 1.258 . S
O222 Tb204 2.500 . S
O222 C224 1.273 . S
O223 Tb204 2.473 . S
O223 C224 1.257 . S
C224 O222 1.273 . S
C224 O223 1.257 . S
O225 Eu205 2.326 . S
O225 C213 1.242 . S
O226 Tb204 2.324 . S
O226 C213 1.258 . S
O227 Eu205 2.500 . S
O227 C210 1.273 . S
O228 Eu205 2.473 . S
O228 C210 1.257 . S
H229 C215 0.929 . S
H230 C217 0.931 . S
H231 C219 0.929 . S
O232 Tb233 2.292 . S
O232 C235 1.255 . S
Tb233 O232 2.292 . S
Tb233 O249 2.326 . S
Tb233 O251 2.500 . S
Tb233 O252 2.473 . S
Tb233 O255 2.324 . S
Eu234 O238 2.292 . S
Eu234 C239 2.852 . S
Eu234 O250 2.324 . S
Eu234 O254 2.326 . S
Eu234 O256 2.500 . S
Eu234 O257 2.473 . S
C235 O232 1.255 . S
C235 O236 1.247 . S
O236 C235 1.247 . S
C237 O249 1.242 . S
C237 O250 1.258 . S
O238 Eu234 2.292 . S
O238 C240 1.255 . S
C239 Eu234 2.852 . S
C239 C243 1.503 . S
C239 O256 1.273 . S
C239 O257 1.257 . S
C240 O238 1.255 . S
C240 O241 1.247 . S
O241 C240 1.247 . S
C242 O254 1.242 . S
C242 O255 1.258 . S
C243 C239 1.503 . S
C243 C244 1.379 . S
C243 C248 1.392 . S
C244 C243 1.379 . S
C244 C245 1.404 . S
C244 H258 0.929 . S
C245 C244 1.404 . S
C245 C246 1.389 . S
C246 C245 1.389 . S
C246 C247 1.399 . S
C246 H259 0.931 . S
C247 C246 1.399 . S
C247 C248 1.390 . S
C248 C243 1.392 . S
C248 C247 1.390 . S
C248 H260 0.929 . S
O249 Tb233 2.326 . S
O249 C237 1.242 . S
O250 Eu234 2.324 . S
O250 C237 1.258 . S
O251 Tb233 2.500 . S
O251 C253 1.273 . S
O252 Tb233 2.473 . S
O252 C253 1.257 . S
C253 O251 1.273 . S
C253 O252 1.257 . S
O254 Eu234 2.326 . S
O254 C242 1.242 . S
O255 Tb233 2.324 . S
O255 C242 1.258 . S
O256 Eu234 2.500 . S
O256 C239 1.273 . S
O257 Eu234 2.473 . S
O257 C239 1.257 . S
H258 C244 0.929 . S
H259 C246 0.931 . S
H260 C248 0.929 . S
O261 Tb262 2.292 . S
O261 C264 1.255 . S
Tb262 O261 2.292 . S
Tb262 O278 2.326 . S
Tb262 O280 2.500 . S
Tb262 O281 2.473 . S
Tb262 O284 2.324 . S
Eu263 O267 2.292 . S
Eu263 C268 2.852 . S
Eu263 O279 2.324 . S
Eu263 O283 2.326 . S
Eu263 O285 2.500 . S
Eu263 O286 2.473 . S
C264 O261 1.255 . S
C264 O265 1.247 . S
O265 C264 1.247 . S
C266 O278 1.242 . S
C266 O279 1.258 . S
O267 Eu263 2.292 . S
O267 C269 1.255 . S
C268 Eu263 2.852 . S
C268 C272 1.503 . S
C268 O285 1.273 . S
C268 O286 1.257 . S
C269 O267 1.255 . S
C269 O270 1.247 . S
O270 C269 1.247 . S
C271 O283 1.242 . S
C271 O284 1.258 . S
C272 C268 1.503 . S
C272 C273 1.379 . S
C272 C277 1.392 . S
C273 C272 1.379 . S
C273 C274 1.404 . S
C273 H287 0.929 . S
C274 C273 1.404 . S
C274 C275 1.389 . S
C275 C274 1.389 . S
C275 C276 1.399 . S
C275 H288 0.931 . S
C276 C275 1.399 . S
C276 C277 1.390 . S
C277 C272 1.392 . S
C277 C276 1.390 . S
C277 H289 0.929 . S
O278 Tb262 2.326 . S
O278 C266 1.242 . S
O279 Eu263 2.324 . S
O279 C266 1.258 . S
O280 Tb262 2.500 . S
O280 C282 1.273 . S
O281 Tb262 2.473 . S
O281 C282 1.257 . S
C282 O280 1.273 . S
C282 O281 1.257 . S
O283 Eu263 2.326 . S
O283 C271 1.242 . S
O284 Tb262 2.324 . S
O284 C271 1.258 . S
O285 Eu263 2.500 . S
O285 C268 1.273 . S
O286 Eu263 2.473 . S
O286 C268 1.257 . S
H287 C273 0.929 . S
H288 C275 0.931 . S
H289 C277 0.929 . S
O290 Tb291 2.292 . S
O290 C293 1.255 . S
Tb291 O290 2.292 . S
Tb291 O307 2.326 . S
Tb291 O309 2.500 . S
Tb291 O310 2.473 . S
Tb291 O313 2.324 . S
Eu292 O296 2.292 . S
Eu292 C297 2.852 . S
Eu292 O308 2.324 . S
Eu292 O312 2.326 . S
Eu292 O314 2.500 . S
Eu292 O315 2.473 . S
C293 O290 1.255 . S
C293 O294 1.247 . S
O294 C293 1.247 . S
C295 O307 1.242 . S
C295 O308 1.258 . S
O296 Eu292 2.292 . S
O296 C298 1.255 . S
C297 Eu292 2.852 . S
C297 C301 1.503 . S
C297 O314 1.273 . S
C297 O315 1.257 . S
C298 O296 1.255 . S
C298 O299 1.247 . S
O299 C298 1.247 . S
C300 O312 1.242 . S
C300 O313 1.258 . S
C301 C297 1.503 . S
C301 C302 1.379 . S
C301 C306 1.392 . S
C302 C301 1.379 . S
C302 C303 1.404 . S
C302 H316 0.929 . S
C303 C302 1.404 . S
C303 C304 1.389 . S
C304 C303 1.389 . S
C304 C305 1.399 . S
C304 H317 0.931 . S
C305 C304 1.399 . S
C305 C306 1.390 . S
C306 C301 1.392 . S
C306 C305 1.390 . S
C306 H318 0.929 . S
O307 Tb291 2.326 . S
O307 C295 1.242 . S
O308 Eu292 2.324 . S
O308 C295 1.258 . S
O309 Tb291 2.500 . S
O309 C311 1.273 . S
O310 Tb291 2.473 . S
O310 C311 1.257 . S
C311 O309 1.273 . S
C311 O310 1.257 . S
O312 Eu292 2.326 . S
O312 C300 1.242 . S
O313 Tb291 2.324 . S
O313 C300 1.258 . S
O314 Eu292 2.500 . S
O314 C297 1.273 . S
O315 Eu292 2.473 . S
O315 C297 1.257 . S
H316 C302 0.929 . S
H317 C304 0.931 . S
H318 C306 0.929 . S
O319 Tb320 2.292 . S
O319 C322 1.255 . S
Tb320 O319 2.292 . S
Tb320 O336 2.326 . S
Tb320 O338 2.500 . S
Tb320 O339 2.473 . S
Tb320 O342 2.324 . S
Eu321 O325 2.292 . S
Eu321 C326 2.852 . S
Eu321 O337 2.324 . S
Eu321 O341 2.326 . S
Eu321 O343 2.500 . S
Eu321 O344 2.473 . S
C322 O319 1.255 . S
C322 O323 1.247 . S
O323 C322 1.247 . S
C324 O336 1.242 . S
C324 O337 1.258 . S
O325 Eu321 2.292 . S
O325 C327 1.255 . S
C326 Eu321 2.852 . S
C326 C330 1.503 . S
C326 O343 1.273 . S
C326 O344 1.257 . S
C327 O325 1.255 . S
C327 O328 1.247 . S
O328 C327 1.247 . S
C329 O341 1.242 . S
C329 O342 1.258 . S
C330 C326 1.503 . S
C330 C331 1.379 . S
C330 C335 1.392 . S
C331 C330 1.379 . S
C331 C332 1.404 . S
C331 H345 0.929 . S
C332 C331 1.404 . S
C332 C333 1.389 . S
C333 C332 1.389 . S
C333 C334 1.399 . S
C333 H346 0.931 . S
C334 C333 1.399 . S
C334 C335 1.390 . S
C335 C330 1.392 . S
C335 C334 1.390 . S
C335 H347 0.929 . S
O336 Tb320 2.326 . S
O336 C324 1.242 . S
O337 Eu321 2.324 . S
O337 C324 1.258 . S
O338 Tb320 2.500 . S
O338 C340 1.273 . S
O339 Tb320 2.473 . S
O339 C340 1.257 . S
C340 O338 1.273 . S
C340 O339 1.257 . S
O341 Eu321 2.326 . S
O341 C329 1.242 . S
O342 Tb320 2.324 . S
O342 C329 1.258 . S
O343 Eu321 2.500 . S
O343 C326 1.273 . S
O344 Eu321 2.473 . S
O344 C326 1.257 . S
H345 C331 0.929 . S
H346 C333 0.931 . S
H347 C335 0.929 . S
O348 Tb349 2.292 . S
O348 C351 1.255 . S
Tb349 O348 2.292 . S
Tb349 O365 2.326 . S
Tb349 O367 2.500 . S
Tb349 O368 2.473 . S
Tb349 O371 2.324 . S
Eu350 O354 2.292 . S
Eu350 C355 2.852 . S
Eu350 O366 2.324 1_556 S
Eu350 O370 2.328 . S
Eu350 O372 2.500 . S
Eu350 O373 2.473 . S
C351 O348 1.255 . S
C351 O352 1.247 . S
O352 C351 1.247 . S
C353 O365 1.242 . S
C353 O366 1.258 . S
O354 Eu350 2.292 . S
O354 C356 1.255 . S
C355 Eu350 2.852 . S
C355 C359 1.503 . S
C355 O372 1.273 . S
C355 O373 1.257 . S
C356 O354 1.255 . S
C356 O357 1.247 1_556 S
O357 C356 1.247 1_554 S
C358 O370 1.236 1_554 S
C358 O371 1.258 . S
C359 C355 1.503 . S
C359 C360 1.379 . S
C359 C364 1.392 . S
C360 C359 1.379 . S
C360 C361 1.404 . S
C360 H374 0.929 . S
C361 C360 1.404 . S
C361 C362 1.389 . S
C362 C361 1.389 . S
C362 C363 1.399 . S
C362 H375 0.931 . S
C363 C362 1.399 . S
C363 C364 1.390 . S
C364 C359 1.392 . S
C364 C363 1.390 . S
C364 H376 0.929 . S
O365 Tb349 2.326 . S
O365 C353 1.242 . S
O366 Eu350 2.324 1_554 S
O366 C353 1.258 . S
O367 Tb349 2.500 . S
O367 C369 1.273 . S
O368 Tb349 2.473 . S
O368 C369 1.257 . S
C369 O367 1.273 . S
C369 O368 1.257 . S
O370 Eu350 2.328 . S
O370 C358 1.236 1_556 S
O371 Tb349 2.324 . S
O371 C358 1.258 . S
O372 Eu350 2.500 . S
O372 C355 1.273 . S
O373 Eu350 2.473 . S
O373 C355 1.257 . S
H374 C360 0.929 . S
H375 C362 0.931 . S
H376 C364 0.929 . S
O377 Tb378 2.292 . S
O377 C380 1.255 . S
Tb378 O377 2.292 . S
Tb378 O394 2.326 . S
Tb378 O396 2.500 . S
Tb378 O397 2.473 . S
Tb378 O400 2.324 . S
Eu379 O383 2.292 . S
Eu379 C384 2.852 . S
Eu379 O395 2.324 1_556 S
Eu379 O399 2.328 . S
Eu379 O401 2.500 . S
Eu379 O402 2.473 . S
C380 O377 1.255 . S
C380 O381 1.247 . S
O381 C380 1.247 . S
C382 O394 1.242 . S
C382 O395 1.258 . S
O383 Eu379 2.292 . S
O383 C385 1.255 . S
C384 Eu379 2.852 . S
C384 C388 1.503 . S
C384 O401 1.273 . S
C384 O402 1.257 . S
C385 O383 1.255 . S
C385 O386 1.247 1_556 S
O386 C385 1.247 1_554 S
C387 O399 1.236 1_554 S
C387 O400 1.258 . S
C388 C384 1.503 . S
C388 C389 1.379 . S
C388 C393 1.392 . S
C389 C388 1.379 . S
C389 C390 1.404 . S
C389 H403 0.929 . S
C390 C389 1.404 . S
C390 C391 1.389 . S
C391 C390 1.389 . S
C391 C392 1.399 . S
C391 H404 0.931 . S
C392 C391 1.399 . S
C392 C393 1.390 . S
C393 C388 1.392 . S
C393 C392 1.390 . S
C393 H405 0.929 . S
O394 Tb378 2.326 . S
O394 C382 1.242 . S
O395 Eu379 2.324 1_554 S
O395 C382 1.258 . S
O396 Tb378 2.500 . S
O396 C398 1.273 . S
O397 Tb378 2.473 . S
O397 C398 1.257 . S
C398 O396 1.273 . S
C398 O397 1.257 . S
O399 Eu379 2.328 . S
O399 C387 1.236 1_556 S
O400 Tb378 2.324 . S
O400 C387 1.258 . S
O401 Eu379 2.500 . S
O401 C384 1.273 . S
O402 Eu379 2.473 . S
O402 C384 1.257 . S
H403 C389 0.929 . S
H404 C391 0.931 . S
H405 C393 0.929 . S
O406 Tb407 2.292 . S
O406 C409 1.255 . S
Tb407 O406 2.292 . S
Tb407 O423 2.326 . S
Tb407 O425 2.500 . S
Tb407 O426 2.473 . S
Tb407 O429 2.324 . S
Eu408 O412 2.292 . S
Eu408 C413 2.852 . S
Eu408 O424 2.324 . S
Eu408 O428 2.326 . S
Eu408 O430 2.500 . S
Eu408 O431 2.473 . S
C409 O406 1.255 . S
C409 O410 1.247 . S
O410 C409 1.247 . S
C411 O423 1.242 . S
C411 O424 1.258 . S
O412 Eu408 2.292 . S
O412 C414 1.255 . S
C413 Eu408 2.852 . S
C413 C417 1.503 . S
C413 O430 1.273 . S
C413 O431 1.257 . S
C414 O412 1.255 . S
C414 O415 1.247 . S
O415 C414 1.247 . S
C416 O428 1.242 . S
C416 O429 1.258 . S
C417 C413 1.503 . S
C417 C418 1.379 . S
C417 C422 1.392 . S
C418 C417 1.379 . S
C418 C419 1.404 . S
C418 H432 0.929 . S
C419 C418 1.404 . S
C419 C420 1.389 1_554 S
C420 C419 1.389 1_556 S
C420 C421 1.399 . S
C420 H433 0.931 . S
C421 C420 1.399 . S
C421 C422 1.390 1_556 S
C422 C417 1.392 . S
C422 C421 1.390 1_554 S
C422 H434 0.929 . S
O423 Tb407 2.326 . S
O423 C411 1.242 . S
O424 Eu408 2.324 . S
O424 C411 1.258 . S
O425 Tb407 2.500 . S
O425 C427 1.273 . S
O426 Tb407 2.473 . S
O426 C427 1.257 . S
C427 O425 1.273 . S
C427 O426 1.257 . S
O428 Eu408 2.326 . S
O428 C416 1.242 . S
O429 Tb407 2.324 . S
O429 C416 1.258 . S
O430 Eu408 2.500 . S
O430 C413 1.273 . S
O431 Eu408 2.473 . S
O431 C413 1.257 . S
H432 C418 0.929 . S
H433 C420 0.931 . S
H434 C422 0.929 . S
O435 Tb436 2.292 . S
O435 C438 1.255 . S
Tb436 O435 2.292 . S
Tb436 O452 2.326 . S
Tb436 O454 2.500 . S
Tb436 O455 2.473 . S
Tb436 O458 2.324 . S
Eu437 O441 2.292 . S
Eu437 C442 2.852 . S
Eu437 O453 2.324 . S
Eu437 O457 2.326 . S
Eu437 O459 2.500 . S
Eu437 O460 2.473 . S
C438 O435 1.255 . S
C438 O439 1.247 . S
O439 C438 1.247 . S
C440 O452 1.242 . S
C440 O453 1.258 . S
O441 Eu437 2.292 . S
O441 C443 1.255 . S
C442 Eu437 2.852 . S
C442 C446 1.503 . S
C442 O459 1.273 . S
C442 O460 1.257 . S
C443 O441 1.255 . S
C443 O444 1.247 . S
O444 C443 1.247 . S
C445 O457 1.242 . S
C445 O458 1.258 . S
C446 C442 1.503 . S
C446 C447 1.379 . S
C446 C451 1.392 . S
C447 C446 1.379 . S
C447 C448 1.404 . S
C447 H461 0.929 . S
C448 C447 1.404 . S
C448 C449 1.389 1_554 S
C449 C448 1.389 1_556 S
C449 C450 1.399 . S
C449 H462 0.931 . S
C450 C449 1.399 . S
C450 C451 1.390 1_556 S
C451 C446 1.392 . S
C451 C450 1.390 1_554 S
C451 H463 0.929 . S
O452 Tb436 2.326 . S
O452 C440 1.242 . S
O453 Eu437 2.324 . S
O453 C440 1.258 . S
O454 Tb436 2.500 . S
O454 C456 1.273 . S
O455 Tb436 2.473 . S
O455 C456 1.257 . S
C456 O454 1.273 . S
C456 O455 1.257 . S
O457 Eu437 2.326 . S
O457 C445 1.242 . S
O458 Tb436 2.324 . S
O458 C445 1.258 . S
O459 Eu437 2.500 . S
O459 C442 1.273 . S
O460 Eu437 2.473 . S
O460 C442 1.257 . S
H461 C447 0.929 . S
H462 C449 0.931 . S
H463 C451 0.929 . S
C464 C465 1.391 . S
C464 C466 1.394 . S
C464 H480 0.931 . S
C465 C464 1.391 . S
C465 C469 1.376 . S
C466 C464 1.394 . S
C466 C467 1.369 . S
C466 C470 1.531 . S
C467 C466 1.369 . S
C467 C468 1.410 . S
C467 C475 1.503 . S
C468 C467 1.410 . S
C468 C469 1.392 . S
C468 C471 1.511 . S
C469 C465 1.376 . S
C469 C468 1.392 . S
C469 H481 0.929 . S
C470 C466 1.531 . S
C470 H482 0.960 . S
C470 H483 0.962 . S
C470 H484 0.960 . S
C471 C468 1.511 . S
C471 H485 0.961 . S
C471 H486 0.961 . S
C471 H487 0.961 . S
C472 C473 1.370 . S
C472 C474 1.363 . S
C472 H488 0.931 . S
C473 C472 1.370 . S
C473 C477 1.408 . S
C474 C472 1.363 . S
C474 C475 1.370 . S
C474 C478 1.524 . S
C475 C467 1.503 . S
C475 C474 1.370 . S
C475 C476 1.403 . S
C476 C475 1.403 . S
C476 C477 1.404 . S
C476 C479 1.539 . S
C477 C473 1.408 . S
C477 C476 1.404 . S
C477 H489 0.930 . S
C478 C474 1.524 . S
C478 H490 0.956 . S
C478 H491 0.961 . S
C478 H492 0.961 . S
C479 C476 1.539 . S
C479 H493 0.958 . S
C479 H494 0.961 . S
C479 H495 0.960 . S
H480 C464 0.931 . S
H481 C469 0.929 . S
H482 C470 0.960 . S
H483 C470 0.962 . S
H484 C470 0.960 . S
H485 C471 0.961 . S
H486 C471 0.961 . S
H487 C471 0.961 . S
H488 C472 0.931 . S
H489 C477 0.930 . S
H490 C478 0.956 . S
H491 C478 0.961 . S
H492 C478 0.961 . S
H493 C479 0.958 . S
H494 C479 0.961 . S
H495 C479 0.960 . S
C496 C497 1.391 . S
C496 C498 1.394 . S
C496 H512 0.931 . S
C497 C496 1.391 . S
C497 C501 1.376 . S
C498 C496 1.394 . S
C498 C499 1.369 . S
C498 C502 1.531 . S
C499 C498 1.369 . S
C499 C500 1.410 . S
C499 C507 1.503 . S
C500 C499 1.410 . S
C500 C501 1.392 . S
C500 C503 1.511 . S
C501 C497 1.376 . S
C501 C500 1.392 . S
C501 H513 0.929 . S
C502 C498 1.531 . S
C502 H514 0.960 . S
C502 H515 0.962 . S
C502 H516 0.960 . S
C503 C500 1.511 . S
C503 H517 0.961 . S
C503 H518 0.961 . S
C503 H519 0.961 . S
C504 C505 1.370 . S
C504 C506 1.363 . S
C504 H520 0.931 . S
C505 C504 1.370 . S
C505 C509 1.408 . S
C506 C504 1.363 . S
C506 C507 1.370 . S
C506 C510 1.524 . S
C507 C499 1.503 . S
C507 C506 1.370 . S
C507 C508 1.403 . S
C508 C507 1.403 . S
C508 C509 1.404 . S
C508 C511 1.539 . S
C509 C505 1.408 . S
C509 C508 1.404 . S
C509 H521 0.930 . S
C510 C506 1.524 . S
C510 H522 0.956 . S
C510 H523 0.961 . S
C510 H524 0.961 . S
C511 C508 1.539 . S
C511 H525 0.958 . S
C511 H526 0.961 . S
C511 H527 0.960 . S
H512 C496 0.931 . S
H513 C501 0.929 . S
H514 C502 0.960 . S
H515 C502 0.962 . S
H516 C502 0.960 . S
H517 C503 0.961 . S
H518 C503 0.961 . S
H519 C503 0.961 . S
H520 C504 0.931 . S
H521 C509 0.930 . S
H522 C510 0.956 . S
H523 C510 0.961 . S
H524 C510 0.961 . S
H525 C511 0.958 . S
H526 C511 0.961 . S
H527 C511 0.960 . S
C528 C529 1.391 . S
C528 C530 1.394 . S
C528 H544 0.931 . S
C529 C528 1.391 . S
C529 C533 1.376 . S
C530 C528 1.394 . S
C530 C531 1.369 . S
C530 C534 1.531 . S
C531 C530 1.369 . S
C531 C532 1.410 . S
C531 C539 1.503 . S
C532 C531 1.410 . S
C532 C533 1.392 . S
C532 C535 1.511 . S
C533 C529 1.376 . S
C533 C532 1.392 . S
C533 H545 0.929 . S
C534 C530 1.531 . S
C534 H546 0.960 . S
C534 H547 0.962 . S
C534 H548 0.960 . S
C535 C532 1.511 . S
C535 H549 0.961 . S
C535 H550 0.961 . S
C535 H551 0.961 . S
C536 C537 1.370 . S
C536 C538 1.363 . S
C536 H552 0.931 . S
C537 C536 1.370 . S
C537 C541 1.408 . S
C538 C536 1.363 . S
C538 C539 1.370 . S
C538 C542 1.524 . S
C539 C531 1.503 . S
C539 C538 1.370 . S
C539 C540 1.403 . S
C540 C539 1.403 . S
C540 C541 1.404 . S
C540 C543 1.539 . S
C541 C537 1.408 . S
C541 C540 1.404 . S
C541 H553 0.930 . S
C542 C538 1.524 . S
C542 H554 0.956 . S
C542 H555 0.961 . S
C542 H556 0.961 . S
C543 C540 1.539 . S
C543 H557 0.958 . S
C543 H558 0.961 . S
C543 H559 0.960 . S
H544 C528 0.931 . S
H545 C533 0.929 . S
H546 C534 0.960 . S
H547 C534 0.962 . S
H548 C534 0.960 . S
H549 C535 0.961 . S
H550 C535 0.961 . S
H551 C535 0.961 . S
H552 C536 0.931 . S
H553 C541 0.930 . S
H554 C542 0.956 . S
H555 C542 0.961 . S
H556 C542 0.961 . S
H557 C543 0.958 . S
H558 C543 0.961 . S
H559 C543 0.960 . S
C560 C561 1.391 . S
C560 C562 1.394 . S
C560 H576 0.931 . S
C561 C560 1.391 . S
C561 C565 1.376 . S
C562 C560 1.394 . S
C562 C563 1.369 . S
C562 C566 1.531 . S
C563 C562 1.369 . S
C563 C564 1.410 . S
C563 C571 1.503 . S
C564 C563 1.410 . S
C564 C565 1.392 . S
C564 C567 1.511 . S
C565 C561 1.376 . S
C565 C564 1.392 . S
C565 H577 0.929 . S
C566 C562 1.531 . S
C566 H578 0.960 . S
C566 H579 0.962 . S
C566 H580 0.960 . S
C567 C564 1.511 . S
C567 H581 0.961 . S
C567 H582 0.961 . S
C567 H583 0.961 . S
C568 C569 1.370 . S
C568 C570 1.363 . S
C568 H584 0.931 . S
C569 C568 1.370 . S
C569 C573 1.408 . S
C570 C568 1.363 . S
C570 C571 1.370 . S
C570 C574 1.524 . S
C571 C563 1.503 . S
C571 C570 1.370 . S
C571 C572 1.403 . S
C572 C571 1.403 . S
C572 C573 1.404 . S
C572 C575 1.539 . S
C573 C569 1.408 . S
C573 C572 1.404 . S
C573 H585 0.930 . S
C574 C570 1.524 . S
C574 H586 0.956 . S
C574 H587 0.961 . S
C574 H588 0.961 . S
C575 C572 1.539 . S
C575 H589 0.958 . S
C575 H590 0.961 . S
C575 H591 0.960 . S
H576 C560 0.931 . S
H577 C565 0.929 . S
H578 C566 0.960 . S
H579 C566 0.962 . S
H580 C566 0.960 . S
H581 C567 0.961 . S
H582 C567 0.961 . S
H583 C567 0.961 . S
H584 C568 0.931 . S
H585 C573 0.930 . S
H586 C574 0.956 . S
H587 C574 0.961 . S
H588 C574 0.961 . S
H589 C575 0.958 . S
H590 C575 0.961 . S
H591 C575 0.960 . S
C592 C593 1.391 . S
C592 C594 1.394 . S
C592 H608 0.931 . S
C593 C592 1.391 . S
C593 C597 1.376 . S
C594 C592 1.394 . S
C594 C595 1.369 . S
C594 C598 1.531 . S
C595 C594 1.369 . S
C595 C596 1.410 . S
C595 C603 1.503 . S
C596 C595 1.410 . S
C596 C597 1.392 . S
C596 C599 1.511 . S
C597 C593 1.376 . S
C597 C596 1.392 . S
C597 H609 0.929 . S
C598 C594 1.531 . S
C598 H610 0.960 . S
C598 H611 0.962 . S
C598 H612 0.960 . S
C599 C596 1.511 . S
C599 H613 0.961 . S
C599 H614 0.961 . S
C599 H615 0.961 . S
C600 C601 1.370 . S
C600 C602 1.363 . S
C600 H616 0.931 . S
C601 C600 1.370 . S
C601 C605 1.408 . S
C602 C600 1.363 . S
C602 C603 1.370 . S
C602 C606 1.524 . S
C603 C595 1.503 . S
C603 C602 1.370 . S
C603 C604 1.403 . S
C604 C603 1.403 . S
C604 C605 1.404 . S
C604 C607 1.539 . S
C605 C601 1.408 . S
C605 C604 1.404 . S
C605 H617 0.930 . S
C606 C602 1.524 . S
C606 H618 0.956 . S
C606 H619 0.961 . S
C606 H620 0.961 . S
C607 C604 1.539 . S
C607 H621 0.958 . S
C607 H622 0.961 . S
C607 H623 0.960 . S
H608 C592 0.931 . S
H609 C597 0.929 . S
H610 C598 0.960 . S
H611 C598 0.962 . S
H612 C598 0.960 . S
H613 C599 0.961 . S
H614 C599 0.961 . S
H615 C599 0.961 . S
H616 C600 0.931 . S
H617 C605 0.930 . S
H618 C606 0.956 . S
H619 C606 0.961 . S
H620 C606 0.961 . S
H621 C607 0.958 . S
H622 C607 0.961 . S
H623 C607 0.960 . S
C624 C625 1.391 . S
C624 C626 1.394 . S
C624 H640 0.931 . S
C625 C624 1.391 . S
C625 C629 1.376 . S
C626 C624 1.394 . S
C626 C627 1.369 . S
C626 C630 1.531 . S
C627 C626 1.369 . S
C627 C628 1.410 . S
C627 C635 1.503 . S
C628 C627 1.410 . S
C628 C629 1.392 . S
C628 C631 1.511 . S
C629 C625 1.376 . S
C629 C628 1.392 . S
C629 H641 0.929 . S
C630 C626 1.531 . S
C630 H642 0.960 . S
C630 H643 0.962 . S
C630 H644 0.960 . S
C631 C628 1.511 . S
C631 H645 0.961 . S
C631 H646 0.961 . S
C631 H647 0.961 . S
C632 C633 1.370 . S
C632 C634 1.363 . S
C632 H648 0.931 . S
C633 C632 1.370 . S
C633 C637 1.408 . S
C634 C632 1.363 . S
C634 C635 1.370 . S
C634 C638 1.524 . S
C635 C627 1.503 . S
C635 C634 1.370 . S
C635 C636 1.403 . S
C636 C635 1.403 . S
C636 C637 1.404 . S
C636 C639 1.539 . S
C637 C633 1.408 . S
C637 C636 1.404 . S
C637 H649 0.930 . S
C638 C634 1.524 . S
C638 H650 0.956 . S
C638 H651 0.961 . S
C638 H652 0.961 . S
C639 C636 1.539 . S
C639 H653 0.958 . S
C639 H654 0.961 . S
C639 H655 0.960 . S
H640 C624 0.931 . S
H641 C629 0.929 . S
H642 C630 0.960 . S
H643 C630 0.962 . S
H644 C630 0.960 . S
H645 C631 0.961 . S
H646 C631 0.961 . S
H647 C631 0.961 . S
H648 C632 0.931 . S
H649 C637 0.930 . S
H650 C638 0.956 . S
H651 C638 0.961 . S
H652 C638 0.961 . S
H653 C639 0.958 . S
H654 C639 0.961 . S
H655 C639 0.960 . S
C656 C657 1.391 . S
C656 C658 1.394 . S
C656 H672 0.931 . S
C657 C656 1.391 . S
C657 C661 1.376 . S
C658 C656 1.394 . S
C658 C659 1.369 1_565 S
C658 C662 1.531 1_565 S
C659 C658 1.369 1_545 S
C659 C660 1.410 1_545 S
C659 C667 1.503 . S
C660 C659 1.410 1_565 S
C660 C661 1.392 . S
C660 C663 1.511 1_566 S
C661 C657 1.376 . S
C661 C660 1.392 . S
C661 H673 0.929 . S
C662 C658 1.531 1_545 S
C662 H674 0.960 . S
C662 H675 0.962 1_545 S
C662 H676 0.951 1_545 S
C663 C660 1.511 1_544 S
C663 H677 0.961 1_545 S
C663 H678 0.961 . S
C663 H679 0.961 . S
C664 C665 1.370 . S
C664 C666 1.363 . S
C664 H680 0.931 . S
C665 C664 1.370 . S
C665 C669 1.408 . S
C666 C664 1.363 . S
C666 C667 1.370 1_554 S
C666 C670 1.524 1_545 S
C667 C659 1.503 . S
C667 C666 1.370 1_556 S
C667 C668 1.403 . S
C668 C667 1.403 . S
C668 C669 1.404 1_556 S
C668 C671 1.539 . S
C669 C665 1.408 . S
C669 C668 1.404 1_554 S
C669 H681 0.930 1_554 S
C670 C666 1.524 1_565 S
C670 H682 0.956 . S
C670 H683 0.961 . S
C670 H684 0.961 . S
C671 C668 1.539 . S
C671 H685 0.958 . S
C671 H686 0.961 . S
C671 H687 0.960 . S
H672 C656 0.931 . S
H673 C661 0.929 . S
H674 C662 0.960 . S
H675 C662 0.962 1_565 S
H676 C662 0.951 1_565 S
H677 C663 0.961 1_565 S
H678 C663 0.961 . S
H679 C663 0.961 . S
H680 C664 0.931 . S
H681 C669 0.930 1_556 S
H682 C670 0.956 . S
H683 C670 0.961 . S
H684 C670 0.961 . S
H685 C671 0.958 . S
H686 C671 0.961 . S
H687 C671 0.960 . S
C688 C689 1.391 . S
C688 C690 1.394 . S
C688 H704 0.931 . S
C689 C688 1.391 . S
C689 C693 1.376 . S
C690 C688 1.394 . S
C690 C691 1.369 . S
C690 C694 1.531 1_565 S
C691 C690 1.369 . S
C691 C692 1.410 1_554 S
C691 C699 1.503 1_554 S
C692 C691 1.410 1_556 S
C692 C693 1.392 1_556 S
C692 C695 1.511 . S
C693 C689 1.376 . S
C693 C692 1.392 1_554 S
C693 H705 0.929 1_554 S
C694 C690 1.531 1_545 S
C694 H706 0.960 . S
C694 H707 0.962 . S
C694 H708 0.960 . S
C695 C692 1.511 . S
C695 H709 0.961 . S
C695 H710 0.961 . S
C695 H711 0.961 . S
C696 C697 1.370 . S
C696 C698 1.363 . S
C696 H712 0.931 . S
C697 C696 1.370 . S
C697 C701 1.408 . S
C698 C696 1.363 . S
C698 C699 1.370 1_545 S
C698 C702 1.524 1_545 S
C699 C691 1.503 1_556 S
C699 C698 1.370 1_565 S
C699 C700 1.403 1_565 S
C700 C699 1.403 1_545 S
C700 C701 1.404 . S
C700 C703 1.539 1_546 S
C701 C697 1.408 . S
C701 C700 1.404 . S
C701 H713 0.930 . S
C702 C698 1.524 1_565 S
C702 H714 0.956 1_565 S
C702 H715 0.961 . S
C702 H716 0.961 1_565 S
C703 C700 1.539 1_564 S
C703 H717 0.958 1_565 S
C703 H718 0.961 . S
C703 H719 0.960 . S
H704 C688 0.931 . S
H705 C693 0.929 1_556 S
H706 C694 0.960 . S
H707 C694 0.962 . S
H708 C694 0.960 . S
H709 C695 0.961 . S
H710 C695 0.961 . S
H711 C695 0.961 . S
H712 C696 0.931 . S
H713 C701 0.930 . S
H714 C702 0.956 1_545 S
H715 C702 0.961 . S
H716 C702 0.961 1_545 S
H717 C703 0.958 1_545 S
H718 C703 0.961 . S
H719 C703 0.960 . S
C720 C721 1.391 . S
C720 C722 1.394 . S
C720 H736 0.931 . S
C721 C720 1.391 . S
C721 C725 1.343 1_655 S
C722 C720 1.394 . S
C722 C723 1.327 1_655 S
C722 C726 1.531 . S
C723 C722 1.327 1_455 S
C723 C724 1.432 . S
C723 C731 1.522 . S
C724 C723 1.432 . S
C724 C725 1.410 . S
C724 C727 1.511 . S
C725 C721 1.343 1_455 S
C725 C724 1.410 . S
C725 H737 0.945 . S
C726 C722 1.531 . S
C726 H738 0.960 . S
C726 H739 0.962 . S
C726 H740 0.960 . S
C727 C724 1.511 . S
C727 H741 0.961 . S
C727 H742 0.961 . S
C727 H743 0.961 . S
C728 C729 1.370 . S
C728 C730 1.363 . S
C728 H744 0.931 . S
C729 C728 1.370 . S
C729 C733 1.408 . S
C730 C728 1.363 . S
C730 C731 1.370 . S
C730 C734 1.524 1_455 S
C731 C723 1.522 . S
C731 C730 1.370 . S
C731 C732 1.403 . S
C732 C731 1.403 . S
C732 C733 1.404 . S
C732 C735 1.539 . S
C733 C729 1.408 . S
C733 C732 1.404 . S
C733 H745 0.930 . S
C734 C730 1.524 1_655 S
C734 H746 0.956 . S
C734 H747 0.961 . S
C734 H748 0.961 . S
C735 C732 1.539 . S
C735 H749 0.958 . S
C735 H750 0.961 . S
C735 H751 0.960 . S
H736 C720 0.931 . S
H737 C725 0.945 . S
H738 C726 0.960 . S
H739 C726 0.962 . S
H740 C726 0.960 . S
H741 C727 0.961 . S
H742 C727 0.961 . S
H743 C727 0.961 . S
H744 C728 0.931 . S
H745 C733 0.930 . S
H746 C734 0.956 . S
H747 C734 0.961 . S
H748 C734 0.961 . S
H749 C735 0.958 . S
H750 C735 0.961 . S
H751 C735 0.960 . S
C752 C753 1.391 . S
C752 C754 1.394 . S
C752 H768 0.931 . S
C753 C752 1.391 . S
C753 C757 1.343 1_455 S
C754 C752 1.394 . S
C754 C755 1.327 1_455 S
C754 C758 1.531 . S
C755 C754 1.327 1_655 S
C755 C756 1.432 . S
C755 C763 1.522 . S
C756 C755 1.432 . S
C756 C757 1.410 . S
C756 C759 1.511 . S
C757 C753 1.343 1_655 S
C757 C756 1.410 . S
C757 H769 0.945 . S
C758 C754 1.531 . S
C758 H770 0.960 . S
C758 H771 0.962 . S
C758 H772 0.960 . S
C759 C756 1.511 . S
C759 H773 0.961 . S
C759 H774 0.961 . S
C759 H775 0.961 . S
C760 C761 1.370 . S
C760 C762 1.363 . S
C760 H776 0.931 . S
C761 C760 1.370 . S
C761 C765 1.408 . S
C762 C760 1.363 . S
C762 C763 1.370 . S
C762 C766 1.524 1_655 S
C763 C755 1.522 . S
C763 C762 1.370 . S
C763 C764 1.403 . S
C764 C763 1.403 . S
C764 C765 1.404 . S
C764 C767 1.539 . S
C765 C761 1.408 . S
C765 C764 1.404 . S
C765 H777 0.930 . S
C766 C762 1.524 1_455 S
C766 H778 0.956 . S
C766 H779 0.961 . S
C766 H780 0.961 . S
C767 C764 1.539 . S
C767 H781 0.958 . S
C767 H782 0.961 . S
C767 H783 0.960 . S
H768 C752 0.931 . S
H769 C757 0.945 . S
H770 C758 0.960 . S
H771 C758 0.962 . S
H772 C758 0.960 . S
H773 C759 0.961 . S
H774 C759 0.961 . S
H775 C759 0.961 . S
H776 C760 0.931 . S
H777 C765 0.930 . S
H778 C766 0.956 . S
H779 C766 0.961 . S
H780 C766 0.961 . S
H781 C767 0.958 . S
H782 C767 0.961 . S
H783 C767 0.960 . S
C784 C785 1.398 . S
C784 C786 1.389 1_554 S
C784 H800 0.928 1_554 S
C785 C784 1.398 . S
C785 C789 1.376 . S
C786 C784 1.389 1_556 S
C786 C787 1.369 . S
C786 C790 1.531 . S
C787 C786 1.369 . S
C787 C788 1.410 1_556 S
C787 C795 1.503 . S
C788 C787 1.410 1_554 S
C788 C789 1.392 . S
C788 C791 1.511 . S
C789 C785 1.376 . S
C789 C788 1.392 . S
C789 H801 0.929 . S
C790 C786 1.531 . S
C790 H802 0.960 . S
C790 H803 0.962 . S
C790 H804 0.960 . S
C791 C788 1.511 . S
C791 H805 0.961 . S
C791 H806 0.961 . S
C791 H807 0.961 . S
C792 C793 1.370 . S
C792 C794 1.363 . S
C792 H808 0.931 . S
C793 C792 1.370 . S
C793 C797 1.408 . S
C794 C792 1.363 . S
C794 C795 1.370 . S
C794 C798 1.524 1_556 S
C795 C787 1.503 . S
C795 C794 1.370 . S
C795 C796 1.403 . S
C796 C795 1.403 . S
C796 C797 1.404 . S
C796 C799 1.539 . S
C797 C793 1.408 . S
C797 C796 1.404 . S
C797 H809 0.930 . S
C798 C794 1.524 1_554 S
C798 H810 0.956 . S
C798 H811 0.961 . S
C798 H812 0.961 . S
C799 C796 1.539 . S
C799 H813 0.958 . S
C799 H814 0.961 . S
C799 H815 0.960 . S
H800 C784 0.928 1_556 S
H801 C789 0.929 . S
H802 C790 0.960 . S
H803 C790 0.962 . S
H804 C790 0.960 . S
H805 C791 0.961 . S
H806 C791 0.961 . S
H807 C791 0.961 . S
H808 C792 0.931 . S
H809 C797 0.930 . S
H810 C798 0.956 . S
H811 C798 0.961 . S
H812 C798 0.961 . S
H813 C799 0.958 . S
H814 C799 0.961 . S
H815 C799 0.960 . S
C816 C817 1.391 . S
C816 C818 1.394 1_556 S
C816 H832 0.931 . S
C817 C816 1.391 . S
C817 C821 1.376 . S
C818 C816 1.394 1_554 S
C818 C819 1.369 1_554 S
C818 C822 1.531 . S
C819 C818 1.369 1_556 S
C819 C820 1.410 . S
C819 C827 1.503 1_556 S
C820 C819 1.410 . S
C820 C821 1.392 . S
C820 C823 1.511 . S
C821 C817 1.376 . S
C821 C820 1.392 . S
C821 H833 0.929 . S
C822 C818 1.531 . S
C822 H834 0.960 . S
C822 H835 0.962 . S
C822 H836 0.960 . S
C823 C820 1.511 . S
C823 H837 0.961 . S
C823 H838 0.961 . S
C823 H839 0.961 . S
C824 C825 1.370 . S
C824 C826 1.363 1_554 S
C824 H840 0.931 . S
C825 C824 1.370 . S
C825 C829 1.408 . S
C826 C824 1.363 1_556 S
C826 C827 1.370 1_556 S
C826 C830 1.524 . S
C827 C819 1.503 1_554 S
C827 C826 1.370 1_554 S
C827 C828 1.403 . S
C828 C827 1.403 . S
C828 C829 1.404 . S
C828 C831 1.539 . S
C829 C825 1.408 . S
C829 C828 1.404 . S
C829 H841 0.930 . S
C830 C826 1.524 . S
C830 H842 0.956 . S
C830 H843 0.961 . S
C830 H844 0.961 . S
C831 C828 1.539 . S
C831 H845 0.958 . S
C831 H846 0.961 . S
C831 H847 0.960 . S
H832 C816 0.931 . S
H833 C821 0.929 . S
H834 C822 0.960 . S
H835 C822 0.962 . S
H836 C822 0.960 . S
H837 C823 0.961 . S
H838 C823 0.961 . S
H839 C823 0.961 . S
H840 C824 0.931 . S
H841 C829 0.930 . S
H842 C830 0.956 . S
H843 C830 0.961 . S
H844 C830 0.961 . S
H845 C831 0.958 . S
H846 C831 0.961 . S
H847 C831 0.960 . S
C848 C849 1.391 . S
C848 C850 1.394 . S
C848 H864 0.931 . S
C849 C848 1.391 . S
C849 C853 1.376 . S
C850 C848 1.394 . S
C850 C851 1.369 . S
C850 C854 1.531 1_455 S
C851 C850 1.369 . S
C851 C852 1.410 . S
C851 C859 1.503 1_455 S
C852 C851 1.410 . S
C852 C853 1.392 . S
C852 C855 1.511 . S
C853 C849 1.376 . S
C853 C852 1.392 . S
C853 H865 0.929 . S
C854 C850 1.531 1_655 S
C854 H866 0.960 . S
C854 H867 0.962 1_655 S
C854 H868 0.960 . S
C855 C852 1.511 . S
C855 H869 0.961 . S
C855 H870 0.961 . S
C855 H871 0.961 1_455 S
C856 C857 1.310 1_455 S
C856 C858 1.386 . S
C856 H872 0.972 . S
C857 C856 1.310 1_655 S
C857 C861 1.408 . S
C858 C856 1.386 . S
C858 C859 1.370 1_455 S
C858 C862 1.524 . S
C859 C851 1.503 1_655 S
C859 C858 1.370 1_655 S
C859 C860 1.403 . S
C860 C859 1.403 . S
C860 C861 1.404 . S
C860 C863 1.539 . S
C861 C857 1.408 . S
C861 C860 1.404 . S
C861 H873 0.930 . S
C862 C858 1.524 . S
C862 H874 0.956 . S
C862 H875 0.961 . S
C862 H876 0.961 . S
C863 C860 1.539 . S
C863 H877 0.958 . S
C863 H878 0.961 . S
C863 H879 0.960 . S
H864 C848 0.931 . S
H865 C853 0.929 . S
H866 C854 0.960 . S
H867 C854 0.962 1_455 S
H868 C854 0.960 . S
H869 C855 0.961 . S
H870 C855 0.961 . S
H871 C855 0.961 1_655 S
H872 C856 0.972 . S
H873 C861 0.930 . S
H874 C862 0.956 . S
H875 C862 0.961 . S
H876 C862 0.961 . S
H877 C863 0.958 . S
H878 C863 0.961 . S
H879 C863 0.960 . S
C880 C881 1.391 . S
C880 C882 1.394 . S
C880 H896 0.931 . S
C881 C880 1.391 . S
C881 C885 1.376 . S
C882 C880 1.394 . S
C882 C883 1.369 . S
C882 C886 1.531 . S
C883 C882 1.369 . S
C883 C884 1.410 . S
C883 C891 1.523 . S
C884 C883 1.410 . S
C884 C885 1.392 . S
C884 C887 1.511 1_655 S
C885 C881 1.376 . S
C885 C884 1.392 . S
C885 H897 0.929 . S
C886 C882 1.531 . S
C886 H898 0.960 . S
C886 H899 0.962 . S
C886 H900 0.960 . S
C887 C884 1.511 1_455 S
C887 H901 0.961 . S
C887 H902 0.961 . S
C887 H903 0.961 . S
C888 C889 1.370 . S
C888 C890 1.363 . S
C888 H904 0.931 . S
C889 C888 1.370 . S
C889 C893 1.408 . S
C890 C888 1.363 . S
C890 C891 1.338 1_455 S
C890 C894 1.524 . S
C891 C883 1.523 . S
C891 C890 1.338 1_655 S
C891 C892 1.418 . S
C892 C891 1.418 . S
C892 C893 1.404 1_655 S
C892 C895 1.539 . S
C893 C889 1.408 . S
C893 C892 1.404 1_455 S
C893 H905 0.930 1_455 S
C894 C890 1.524 . S
C894 H906 0.956 . S
C894 H907 0.961 . S
C894 H908 0.961 . S
C895 C892 1.539 . S
C895 H909 0.958 . S
C895 H910 0.961 . S
C895 H911 0.960 . S
H896 C880 0.931 . S
H897 C885 0.929 . S
H898 C886 0.960 . S
H899 C886 0.962 . S
H900 C886 0.960 . S
H901 C887 0.961 . S
H902 C887 0.961 . S
H903 C887 0.961 . S
H904 C888 0.931 . S
H905 C893 0.930 1_655 S
H906 C894 0.956 . S
H907 C894 0.961 . S
H908 C894 0.961 . S
H909 C895 0.958 . S
H910 C895 0.961 . S
H911 C895 0.960 . S
C912 C913 1.391 . S
C912 C914 1.394 . S
C912 H928 0.931 . S
C913 C912 1.391 . S
C913 C917 1.376 . S
C914 C912 1.394 . S
C914 C915 1.369 1_565 S
C914 C918 1.534 . S
C915 C914 1.369 1_545 S
C915 C916 1.410 1_545 S
C915 C923 1.503 . S
C916 C915 1.410 1_565 S
C916 C917 1.392 . S
C916 C919 1.511 1_565 S
C917 C913 1.376 . S
C917 C916 1.392 . S
C917 H929 0.929 . S
C918 C914 1.534 . S
C918 H930 0.949 1_565 S
C918 H931 0.966 . S
C918 H932 0.964 . S
C919 C916 1.511 1_545 S
C919 H933 0.961 . S
C919 H934 0.961 . S
C919 H935 0.961 . S
C920 C921 1.370 . S
C920 C922 1.363 . S
C920 H936 0.931 . S
C921 C920 1.370 . S
C921 C925 1.408 . S
C922 C920 1.363 . S
C922 C923 1.370 . S
C922 C926 1.524 1_545 S
C923 C915 1.503 . S
C923 C922 1.370 . S
C923 C924 1.403 . S
C924 C923 1.403 . S
C924 C925 1.404 . S
C924 C927 1.539 . S
C925 C921 1.408 . S
C925 C924 1.404 . S
C925 H937 0.930 . S
C926 C922 1.524 1_565 S
C926 H938 0.956 . S
C926 H939 0.961 . S
C926 H940 0.961 . S
C927 C924 1.539 . S
C927 H941 0.958 . S
C927 H942 0.961 . S
C927 H943 0.960 . S
H928 C912 0.931 . S
H929 C917 0.929 . S
H930 C918 0.949 1_545 S
H931 C918 0.966 . S
H932 C918 0.964 . S
H933 C919 0.961 . S
H934 C919 0.961 . S
H935 C919 0.961 . S
H936 C920 0.931 . S
H937 C925 0.930 . S
H938 C926 0.956 . S
H939 C926 0.961 . S
H940 C926 0.961 . S
H941 C927 0.958 . S
H942 C927 0.961 . S
H943 C927 0.960 . S
C944 C945 1.391 . S
C944 C946 1.394 . S
C944 H960 0.931 . S
C945 C944 1.391 . S
C945 C949 1.376 . S
C946 C944 1.394 . S
C946 C947 1.369 . S
C946 C950 1.531 1_565 S
C947 C946 1.369 . S
C947 C948 1.410 . S
C947 C955 1.536 . S
C948 C947 1.410 . S
C948 C949 1.392 . S
C948 C951 1.511 . S
C949 C945 1.376 . S
C949 C948 1.392 . S
C949 H961 0.929 . S
C950 C946 1.531 1_545 S
C950 H962 0.960 . S
C950 H963 0.962 . S
C950 H964 0.960 . S
C951 C948 1.511 . S
C951 H965 0.961 . S
C951 H966 0.961 . S
C951 H967 0.961 . S
C952 C953 1.370 . S
C952 C954 1.363 . S
C952 H968 0.931 . S
C953 C952 1.370 . S
C953 C957 1.408 . S
C954 C952 1.363 . S
C954 C955 1.363 1_545 S
C954 C958 1.524 1_545 S
C955 C947 1.536 . S
C955 C954 1.363 1_565 S
C955 C956 1.378 1_565 S
C956 C955 1.378 1_545 S
C956 C957 1.404 . S
C956 C959 1.539 . S
C957 C953 1.408 . S
C957 C956 1.404 . S
C957 H969 0.930 . S
C958 C954 1.524 1_565 S
C958 H970 0.956 . S
C958 H971 0.961 . S
C958 H972 0.961 . S
C959 C956 1.539 . S
C959 H973 0.958 . S
C959 H974 0.961 . S
C959 H975 0.960 1_545 S
H960 C944 0.931 . S
H961 C949 0.929 . S
H962 C950 0.960 . S
H963 C950 0.962 . S
H964 C950 0.960 . S
H965 C951 0.961 . S
H966 C951 0.961 . S
H967 C951 0.961 . S
H968 C952 0.931 . S
H969 C957 0.930 . S
H970 C958 0.956 . S
H971 C958 0.961 . S
H972 C958 0.961 . S
H973 C959 0.958 . S
H974 C959 0.961 . S
H975 C959 0.960 1_565 S
C976 C977 1.391 . S
C976 C978 1.394 . S
C976 H992 0.931 . S
C977 C976 1.391 . S
C977 C981 1.376 . S
C978 C976 1.394 . S
C978 C979 1.369 . S
C978 C982 1.531 . S
C979 C978 1.369 . S
C979 C980 1.410 . S
C979 C987 1.503 . S
C980 C979 1.410 . S
C980 C981 1.392 . S
C980 C983 1.511 . S
C981 C977 1.376 . S
C981 C980 1.392 . S
C981 H993 0.929 . S
C982 C978 1.531 . S
C982 H994 0.960 . S
C982 H995 0.962 . S
C982 H996 0.960 . S
C983 C980 1.511 . S
C983 H997 0.961 . S
C983 H998 0.961 . S
C983 H999 0.961 . S
C984 C985 1.370 . S
C984 C986 1.363 . S
C984 H1000 0.931 . S
C985 C984 1.370 . S
C985 C989 1.408 . S
C986 C984 1.363 . S
C986 C987 1.370 . S
C986 C990 1.524 . S
C987 C979 1.503 . S
C987 C986 1.370 . S
C987 C988 1.403 . S
C988 C987 1.403 . S
C988 C989 1.404 . S
C988 C991 1.539 . S
C989 C985 1.408 . S
C989 C988 1.404 . S
C989 H1001 0.930 . S
C990 C986 1.524 . S
C990 H1002 0.956 . S
C990 H1003 0.961 . S
C990 H1004 0.961 . S
C991 C988 1.539 . S
C991 H1005 0.958 . S
C991 H1006 0.961 . S
C991 H1007 0.960 . S
H992 C976 0.931 . S
H993 C981 0.929 . S
H994 C982 0.960 . S
H995 C982 0.962 . S
H996 C982 0.960 . S
H997 C983 0.961 . S
H998 C983 0.961 . S
H999 C983 0.961 . S
H1000 C984 0.931 . S
H1001 C989 0.930 . S
H1002 C990 0.956 . S
H1003 C990 0.961 . S
H1004 C990 0.961 . S
H1005 C991 0.958 . S
H1006 C991 0.961 . S
H1007 C991 0.960 . S
C1008 C1009 1.391 . S
C1008 C1010 1.394 . S
C1008 H1024 0.931 . S
C1009 C1008 1.391 . S
C1009 C1013 1.376 . S
C1010 C1008 1.394 . S
C1010 C1011 1.369 . S
C1010 C1014 1.531 . S
C1011 C1010 1.369 . S
C1011 C1012 1.410 . S
C1011 C1019 1.503 . S
C1012 C1011 1.410 . S
C1012 C1013 1.392 . S
C1012 C1015 1.511 . S
C1013 C1009 1.376 . S
C1013 C1012 1.392 . S
C1013 H1025 0.929 . S
C1014 C1010 1.531 . S
C1014 H1026 0.960 . S
C1014 H1027 0.962 . S
C1014 H1028 0.960 . S
C1015 C1012 1.511 . S
C1015 H1029 0.961 . S
C1015 H1030 0.961 . S
C1015 H1031 0.961 . S
C1016 C1017 1.370 . S
C1016 C1018 1.363 . S
C1016 H1032 0.931 . S
C1017 C1016 1.370 . S
C1017 C1021 1.408 . S
C1018 C1016 1.363 . S
C1018 C1019 1.370 . S
C1018 C1022 1.524 . S
C1019 C1011 1.503 . S
C1019 C1018 1.370 . S
C1019 C1020 1.403 . S
C1020 C1019 1.403 . S
C1020 C1021 1.404 . S
C1020 C1023 1.539 . S
C1021 C1017 1.408 . S
C1021 C1020 1.404 . S
C1021 H1033 0.930 . S
C1022 C1018 1.524 . S
C1022 H1034 0.956 . S
C1022 H1035 0.961 . S
C1022 H1036 0.961 . S
C1023 C1020 1.539 . S
C1023 H1037 0.958 . S
C1023 H1038 0.961 . S
C1023 H1039 0.960 . S
H1024 C1008 0.931 . S
H1025 C1013 0.929 . S
H1026 C1014 0.960 . S
H1027 C1014 0.962 . S
H1028 C1014 0.960 . S
H1029 C1015 0.961 . S
H1030 C1015 0.961 . S
H1031 C1015 0.961 . S
H1032 C1016 0.931 . S
H1033 C1021 0.930 . S
H1034 C1022 0.956 . S
H1035 C1022 0.961 . S
H1036 C1022 0.961 . S
H1037 C1023 0.958 . S
H1038 C1023 0.961 . S
H1039 C1023 0.960 . S
C1040 C1041 1.391 . S
C1040 C1042 1.394 . S
C1040 H1056 0.931 . S
C1041 C1040 1.391 . S
C1041 C1045 1.376 . S
C1042 C1040 1.394 . S
C1042 C1043 1.369 . S
C1042 C1046 1.531 . S
C1043 C1042 1.369 . S
C1043 C1044 1.410 . S
C1043 C1051 1.503 . S
C1044 C1043 1.410 . S
C1044 C1045 1.392 . S
C1044 C1047 1.511 . S
C1045 C1041 1.376 . S
C1045 C1044 1.392 . S
C1045 H1057 0.929 . S
C1046 C1042 1.531 . S
C1046 H1058 0.960 . S
C1046 H1059 0.962 . S
C1046 H1060 0.960 . S
C1047 C1044 1.511 . S
C1047 H1061 0.961 . S
C1047 H1062 0.961 . S
C1047 H1063 0.961 . S
C1048 C1049 1.370 . S
C1048 C1050 1.363 . S
C1048 H1064 0.931 . S
C1049 C1048 1.370 . S
C1049 C1053 1.408 . S
C1050 C1048 1.363 . S
C1050 C1051 1.370 . S
C1050 C1054 1.524 . S
C1051 C1043 1.503 . S
C1051 C1050 1.370 . S
C1051 C1052 1.403 . S
C1052 C1051 1.403 . S
C1052 C1053 1.404 . S
C1052 C1055 1.539 . S
C1053 C1049 1.408 . S
C1053 C1052 1.404 . S
C1053 H1065 0.930 . S
C1054 C1050 1.524 . S
C1054 H1066 0.956 . S
C1054 H1067 0.961 . S
C1054 H1068 0.961 . S
C1055 C1052 1.539 . S
C1055 H1069 0.958 . S
C1055 H1070 0.961 . S
C1055 H1071 0.960 . S
H1056 C1040 0.931 . S
H1057 C1045 0.929 . S
H1058 C1046 0.960 . S
H1059 C1046 0.962 . S
H1060 C1046 0.960 . S
H1061 C1047 0.961 . S
H1062 C1047 0.961 . S
H1063 C1047 0.961 . S
H1064 C1048 0.931 . S
H1065 C1053 0.930 . S
H1066 C1054 0.956 . S
H1067 C1054 0.961 . S
H1068 C1054 0.961 . S
H1069 C1055 0.958 . S
H1070 C1055 0.961 . S
H1071 C1055 0.960 . S
C1072 C1073 1.391 . S
C1072 C1074 1.394 . S
C1072 H1088 0.931 . S
C1073 C1072 1.391 . S
C1073 C1077 1.376 . S
C1074 C1072 1.394 . S
C1074 C1075 1.369 . S
C1074 C1078 1.531 . S
C1075 C1074 1.369 . S
C1075 C1076 1.410 . S
C1075 C1083 1.503 . S
C1076 C1075 1.410 . S
C1076 C1077 1.392 . S
C1076 C1079 1.511 . S
C1077 C1073 1.376 . S
C1077 C1076 1.392 . S
C1077 H1089 0.929 . S
C1078 C1074 1.531 . S
C1078 H1090 0.960 . S
C1078 H1091 0.962 . S
C1078 H1092 0.960 . S
C1079 C1076 1.511 . S
C1079 H1093 0.961 . S
C1079 H1094 0.961 . S
C1079 H1095 0.961 . S
C1080 C1081 1.370 . S
C1080 C1082 1.363 . S
C1080 H1096 0.931 . S
C1081 C1080 1.370 . S
C1081 C1085 1.408 . S
C1082 C1080 1.363 . S
C1082 C1083 1.370 . S
C1082 C1086 1.524 . S
C1083 C1075 1.503 . S
C1083 C1082 1.370 . S
C1083 C1084 1.403 . S
C1084 C1083 1.403 . S
C1084 C1085 1.404 . S
C1084 C1087 1.539 . S
C1085 C1081 1.408 . S
C1085 C1084 1.404 . S
C1085 H1097 0.930 . S
C1086 C1082 1.524 . S
C1086 H1098 0.956 . S
C1086 H1099 0.961 . S
C1086 H1100 0.961 . S
C1087 C1084 1.539 . S
C1087 H1101 0.958 . S
C1087 H1102 0.961 . S
C1087 H1103 0.960 . S
H1088 C1072 0.931 . S
H1089 C1077 0.929 . S
H1090 C1078 0.960 . S
H1091 C1078 0.962 . S
H1092 C1078 0.960 . S
H1093 C1079 0.961 . S
H1094 C1079 0.961 . S
H1095 C1079 0.961 . S
H1096 C1080 0.931 . S
H1097 C1085 0.930 . S
H1098 C1086 0.956 . S
H1099 C1086 0.961 . S
H1100 C1086 0.961 . S
H1101 C1087 0.958 . S
H1102 C1087 0.961 . S
H1103 C1087 0.960 . S
C1104 C1105 1.391 . S
C1104 C1106 1.394 . S
C1104 H1120 0.931 . S
C1105 C1104 1.391 . S
C1105 C1109 1.376 . S
C1106 C1104 1.394 . S
C1106 C1107 1.369 . S
C1106 C1110 1.531 1_554 S
C1107 C1106 1.369 . S
C1107 C1108 1.410 . S
C1107 C1115 1.503 1_554 S
C1108 C1107 1.410 . S
C1108 C1109 1.392 . S
C1108 C1111 1.511 . S
C1109 C1105 1.376 . S
C1109 C1108 1.392 . S
C1109 H1121 0.929 . S
C1110 C1106 1.531 1_556 S
C1110 H1122 0.960 . S
C1110 H1123 0.962 . S
C1110 H1124 0.960 1_556 S
C1111 C1108 1.511 . S
C1111 H1125 0.961 . S
C1111 H1126 0.961 1_554 S
C1111 H1127 0.961 . S
C1112 C1113 1.370 . S
C1112 C1114 1.363 . S
C1112 H1128 0.931 . S
C1113 C1112 1.370 . S
C1113 C1117 1.408 . S
C1114 C1112 1.363 . S
C1114 C1115 1.370 . S
C1114 C1118 1.524 . S
C1115 C1107 1.503 1_556 S
C1115 C1114 1.370 . S
C1115 C1116 1.403 . S
C1116 C1115 1.403 . S
C1116 C1117 1.404 . S
C1116 C1119 1.539 . S
C1117 C1113 1.408 . S
C1117 C1116 1.404 . S
C1117 H1129 0.930 . S
C1118 C1114 1.524 . S
C1118 H1130 0.956 . S
C1118 H1131 0.961 . S
C1118 H1132 0.961 . S
C1119 C1116 1.539 . S
C1119 H1133 0.958 . S
C1119 H1134 0.961 . S
C1119 H1135 0.960 . S
H1120 C1104 0.931 . S
H1121 C1109 0.929 . S
H1122 C1110 0.960 . S
H1123 C1110 0.962 . S
H1124 C1110 0.960 1_554 S
H1125 C1111 0.961 . S
H1126 C1111 0.961 1_556 S
H1127 C1111 0.961 . S
H1128 C1112 0.931 . S
H1129 C1117 0.930 . S
H1130 C1118 0.956 . S
H1131 C1118 0.961 . S
H1132 C1118 0.961 . S
H1133 C1119 0.958 . S
H1134 C1119 0.961 . S
H1135 C1119 0.960 . S
C1136 C1137 1.391 . S
C1136 C1138 1.394 . S
C1136 H1152 0.931 . S
C1137 C1136 1.391 . S
C1137 C1141 1.376 . S
C1138 C1136 1.394 . S
C1138 C1139 1.369 . S
C1138 C1142 1.531 . S
C1139 C1138 1.369 . S
C1139 C1140 1.410 . S
C1139 C1147 1.503 1_554 S
C1140 C1139 1.410 . S
C1140 C1141 1.392 . S
C1140 C1143 1.511 1_554 S
C1141 C1137 1.376 . S
C1141 C1140 1.392 . S
C1141 H1153 0.929 . S
C1142 C1138 1.531 . S
C1142 H1154 0.960 1_554 S
C1142 H1155 0.962 . S
C1142 H1156 0.960 . S
C1143 C1140 1.511 1_556 S
C1143 H1157 0.961 1_556 S
C1143 H1158 0.961 . S
C1143 H1159 0.961 . S
C1144 C1145 1.370 . S
C1144 C1146 1.363 . S
C1144 H1160 0.931 . S
C1145 C1144 1.370 . S
C1145 C1149 1.408 . S
C1146 C1144 1.363 . S
C1146 C1147 1.370 . S
C1146 C1150 1.524 . S
C1147 C1139 1.503 1_556 S
C1147 C1146 1.370 . S
C1147 C1148 1.403 . S
C1148 C1147 1.403 . S
C1148 C1149 1.404 . S
C1148 C1151 1.539 . S
C1149 C1145 1.408 . S
C1149 C1148 1.404 . S
C1149 H1161 0.930 . S
C1150 C1146 1.524 . S
C1150 H1162 0.956 . S
C1150 H1163 0.961 . S
C1150 H1164 0.961 . S
C1151 C1148 1.539 . S
C1151 H1165 0.958 . S
C1151 H1166 0.961 . S
C1151 H1167 0.960 . S
H1152 C1136 0.931 . S
H1153 C1141 0.929 . S
H1154 C1142 0.960 1_556 S
H1155 C1142 0.962 . S
H1156 C1142 0.960 . S
H1157 C1143 0.961 1_554 S
H1158 C1143 0.961 . S
H1159 C1143 0.961 . S
H1160 C1144 0.931 . S
H1161 C1149 0.930 . S
H1162 C1150 0.956 . S
H1163 C1150 0.961 . S
H1164 C1150 0.961 . S
H1165 C1151 0.958 . S
H1166 C1151 0.961 . S
H1167 C1151 0.960 . S
C1168 C1169 1.391 . S
C1168 C1170 1.394 . S
C1168 H1184 0.931 . S
C1169 C1168 1.391 . S
C1169 C1173 1.376 . S
C1170 C1168 1.394 . S
C1170 C1171 1.369 . S
C1170 C1174 1.531 . S
C1171 C1170 1.369 . S
C1171 C1172 1.410 . S
C1171 C1179 1.503 . S
C1172 C1171 1.410 . S
C1172 C1173 1.392 . S
C1172 C1175 1.511 . S
C1173 C1169 1.376 . S
C1173 C1172 1.392 . S
C1173 H1185 0.929 . S
C1174 C1170 1.531 . S
C1174 H1186 0.960 . S
C1174 H1187 0.962 . S
C1174 H1188 0.960 . S
C1175 C1172 1.511 . S
C1175 H1189 0.961 . S
C1175 H1190 0.961 . S
C1175 H1191 0.961 . S
C1176 C1177 1.370 . S
C1176 C1178 1.363 . S
C1176 H1192 0.931 . S
C1177 C1176 1.370 . S
C1177 C1181 1.408 . S
C1178 C1176 1.363 . S
C1178 C1179 1.370 . S
C1178 C1182 1.524 . S
C1179 C1171 1.503 . S
C1179 C1178 1.370 . S
C1179 C1180 1.403 . S
C1180 C1179 1.403 . S
C1180 C1181 1.404 . S
C1180 C1183 1.539 . S
C1181 C1177 1.408 . S
C1181 C1180 1.404 . S
C1181 H1193 0.930 . S
C1182 C1178 1.524 . S
C1182 H1194 0.956 . S
C1182 H1195 0.961 . S
C1182 H1196 0.961 . S
C1183 C1180 1.539 . S
C1183 H1197 0.958 . S
C1183 H1198 0.961 . S
C1183 H1199 0.960 . S
H1184 C1168 0.931 . S
H1185 C1173 0.929 . S
H1186 C1174 0.960 . S
H1187 C1174 0.962 . S
H1188 C1174 0.960 . S
H1189 C1175 0.961 . S
H1190 C1175 0.961 . S
H1191 C1175 0.961 . S
H1192 C1176 0.931 . S
H1193 C1181 0.930 . S
H1194 C1182 0.956 . S
H1195 C1182 0.961 . S
H1196 C1182 0.961 . S
H1197 C1183 0.958 . S
H1198 C1183 0.961 . S
H1199 C1183 0.960 . S
C1200 C1201 1.391 . S
C1200 C1202 1.394 . S
C1200 H1216 0.931 . S
C1201 C1200 1.391 . S
C1201 C1205 1.376 . S
C1202 C1200 1.394 . S
C1202 C1203 1.369 . S
C1202 C1206 1.531 . S
C1203 C1202 1.369 . S
C1203 C1204 1.410 . S
C1203 C1211 1.503 . S
C1204 C1203 1.410 . S
C1204 C1205 1.392 . S
C1204 C1207 1.511 . S
C1205 C1201 1.376 . S
C1205 C1204 1.392 . S
C1205 H1217 0.929 . S
C1206 C1202 1.531 . S
C1206 H1218 0.960 . S
C1206 H1219 0.962 . S
C1206 H1220 0.960 . S
C1207 C1204 1.511 . S
C1207 H1221 0.961 . S
C1207 H1222 0.961 . S
C1207 H1223 0.961 . S
C1208 C1209 1.370 . S
C1208 C1210 1.363 . S
C1208 H1224 0.931 . S
C1209 C1208 1.370 . S
C1209 C1213 1.408 . S
C1210 C1208 1.363 . S
C1210 C1211 1.370 . S
C1210 C1214 1.524 . S
C1211 C1203 1.503 . S
C1211 C1210 1.370 . S
C1211 C1212 1.403 . S
C1212 C1211 1.403 . S
C1212 C1213 1.404 . S
C1212 C1215 1.539 . S
C1213 C1209 1.408 . S
C1213 C1212 1.404 . S
C1213 H1225 0.930 . S
C1214 C1210 1.524 . S
C1214 H1226 0.956 . S
C1214 H1227 0.961 . S
C1214 H1228 0.961 . S
C1215 C1212 1.539 . S
C1215 H1229 0.958 . S
C1215 H1230 0.961 . S
C1215 H1231 0.960 . S
H1216 C1200 0.931 . S
H1217 C1205 0.929 . S
H1218 C1206 0.960 . S
H1219 C1206 0.962 . S
H1220 C1206 0.960 . S
H1221 C1207 0.961 . S
H1222 C1207 0.961 . S
H1223 C1207 0.961 . S
H1224 C1208 0.931 . S
H1225 C1213 0.930 . S
H1226 C1214 0.956 . S
H1227 C1214 0.961 . S
H1228 C1214 0.961 . S
H1229 C1215 0.958 . S
H1230 C1215 0.961 . S
H1231 C1215 0.960 . S
C1232 C1233 1.391 . S
C1232 C1234 1.394 . S
C1232 H1248 0.931 . S
C1233 C1232 1.391 . S
C1233 C1237 1.376 . S
C1234 C1232 1.394 . S
C1234 C1235 1.369 . S
C1234 C1238 1.531 . S
C1235 C1234 1.369 . S
C1235 C1236 1.410 . S
C1235 C1243 1.503 1_554 S
C1236 C1235 1.410 . S
C1236 C1237 1.392 . S
C1236 C1239 1.511 1_554 S
C1237 C1233 1.376 . S
C1237 C1236 1.392 . S
C1237 H1249 0.929 . S
C1238 C1234 1.531 . S
C1238 H1250 0.960 1_554 S
C1238 H1251 0.962 . S
C1238 H1252 0.960 . S
C1239 C1236 1.511 1_556 S
C1239 H1253 0.961 1_556 S
C1239 H1254 0.961 . S
C1239 H1255 0.961 . S
C1240 C1241 1.370 . S
C1240 C1242 1.363 . S
C1240 H1256 0.931 . S
C1241 C1240 1.370 . S
C1241 C1245 1.408 . S
C1242 C1240 1.363 . S
C1242 C1243 1.370 . S
C1242 C1246 1.524 . S
C1243 C1235 1.503 1_556 S
C1243 C1242 1.370 . S
C1243 C1244 1.403 . S
C1244 C1243 1.403 . S
C1244 C1245 1.404 . S
C1244 C1247 1.539 . S
C1245 C1241 1.408 . S
C1245 C1244 1.404 . S
C1245 H1257 0.930 . S
C1246 C1242 1.524 . S
C1246 H1258 0.947 1_556 S
C1246 H1259 0.965 . S
C1246 H1260 0.961 . S
C1247 C1244 1.539 . S
C1247 H1261 0.958 . S
C1247 H1262 0.961 . S
C1247 H1263 0.960 . S
H1248 C1232 0.931 . S
H1249 C1237 0.929 . S
H1250 C1238 0.960 1_556 S
H1251 C1238 0.962 . S
H1252 C1238 0.960 . S
H1253 C1239 0.961 1_554 S
H1254 C1239 0.961 . S
H1255 C1239 0.961 . S
H1256 C1240 0.931 . S
H1257 C1245 0.930 . S
H1258 C1246 0.947 1_554 S
H1259 C1246 0.965 . S
H1260 C1246 0.961 . S
H1261 C1247 0.958 . S
H1262 C1247 0.961 . S
H1263 C1247 0.960 . S
C1264 C1265 1.391 . S
C1264 C1266 1.394 . S
C1264 H1280 0.931 . S
C1265 C1264 1.391 . S
C1265 C1269 1.376 . S
C1266 C1264 1.394 . S
C1266 C1267 1.369 . S
C1266 C1270 1.531 . S
C1267 C1266 1.369 . S
C1267 C1268 1.410 . S
C1267 C1275 1.503 1_554 S
C1268 C1267 1.410 . S
C1268 C1269 1.392 . S
C1268 C1271 1.511 1_554 S
C1269 C1265 1.376 . S
C1269 C1268 1.392 . S
C1269 H1281 0.929 . S
C1270 C1266 1.531 . S
C1270 H1282 0.960 1_554 S
C1270 H1283 0.962 . S
C1270 H1284 0.960 . S
C1271 C1268 1.511 1_556 S
C1271 H1285 0.961 1_556 S
C1271 H1286 0.961 . S
C1271 H1287 0.961 . S
C1272 C1273 1.370 . S
C1272 C1274 1.363 . S
C1272 H1288 0.931 . S
C1273 C1272 1.370 . S
C1273 C1277 1.408 . S
C1274 C1272 1.363 . S
C1274 C1275 1.370 . S
C1274 C1278 1.524 . S
C1275 C1267 1.503 1_556 S
C1275 C1274 1.370 . S
C1275 C1276 1.403 . S
C1276 C1275 1.403 . S
C1276 C1277 1.404 . S
C1276 C1279 1.539 . S
C1277 C1273 1.408 . S
C1277 C1276 1.404 . S
C1277 H1289 0.930 . S
C1278 C1274 1.524 . S
C1278 H1290 0.956 . S
C1278 H1291 0.961 . S
C1278 H1292 0.961 . S
C1279 C1276 1.539 . S
C1279 H1293 0.958 . S
C1279 H1294 0.961 . S
C1279 H1295 0.960 . S
H1280 C1264 0.931 . S
H1281 C1269 0.929 . S
H1282 C1270 0.960 1_556 S
H1283 C1270 0.962 . S
H1284 C1270 0.960 . S
H1285 C1271 0.961 1_554 S
H1286 C1271 0.961 . S
H1287 C1271 0.961 . S
H1288 C1272 0.931 . S
H1289 C1277 0.930 . S
H1290 C1278 0.956 . S
H1291 C1278 0.961 . S
H1292 C1278 0.961 . S
H1293 C1279 0.958 . S
H1294 C1279 0.961 . S
H1295 C1279 0.960 . S
C1296 C1297 1.391 . S
C1296 C1298 1.394 . S
C1296 H1312 0.931 . S
C1297 C1296 1.391 . S
C1297 C1301 1.376 . S
C1298 C1296 1.394 . S
C1298 C1299 1.369 . S
C1298 C1302 1.531 . S
C1299 C1298 1.369 . S
C1299 C1300 1.410 . S
C1299 C1307 1.503 . S
C1300 C1299 1.410 . S
C1300 C1301 1.392 . S
C1300 C1303 1.511 . S
C1301 C1297 1.376 . S
C1301 C1300 1.392 . S
C1301 H1313 0.929 . S
C1302 C1298 1.531 . S
C1302 H1314 0.960 . S
C1302 H1315 0.962 . S
C1302 H1316 0.960 . S
C1303 C1300 1.511 . S
C1303 H1317 0.961 . S
C1303 H1318 0.961 . S
C1303 H1319 0.961 . S
C1304 C1305 1.370 . S
C1304 C1306 1.363 . S
C1304 H1320 0.931 . S
C1305 C1304 1.370 . S
C1305 C1309 1.408 . S
C1306 C1304 1.363 . S
C1306 C1307 1.370 . S
C1306 C1310 1.524 . S
C1307 C1299 1.503 . S
C1307 C1306 1.370 . S
C1307 C1308 1.403 . S
C1308 C1307 1.403 . S
C1308 C1309 1.404 . S
C1308 C1311 1.539 . S
C1309 C1305 1.408 . S
C1309 C1308 1.404 . S
C1309 H1321 0.930 . S
C1310 C1306 1.524 . S
C1310 H1322 0.956 . S
C1310 H1323 0.961 . S
C1310 H1324 0.961 . S
C1311 C1308 1.539 . S
C1311 H1325 0.958 . S
C1311 H1326 0.961 . S
C1311 H1327 0.960 . S
H1312 C1296 0.931 . S
H1313 C1301 0.929 . S
H1314 C1302 0.960 . S
H1315 C1302 0.962 . S
H1316 C1302 0.960 . S
H1317 C1303 0.961 . S
H1318 C1303 0.961 . S
H1319 C1303 0.961 . S
H1320 C1304 0.931 . S
H1321 C1309 0.930 . S
H1322 C1310 0.956 . S
H1323 C1310 0.961 . S
H1324 C1310 0.961 . S
H1325 C1311 0.958 . S
H1326 C1311 0.961 . S
H1327 C1311 0.960 . S
C1328 C1329 1.391 . S
C1328 C1330 1.394 . S
C1328 H1344 0.931 . S
C1329 C1328 1.391 . S
C1329 C1333 1.376 . S
C1330 C1328 1.394 . S
C1330 C1331 1.369 . S
C1330 C1334 1.531 . S
C1331 C1330 1.369 . S
C1331 C1332 1.410 . S
C1331 C1339 1.503 . S
C1332 C1331 1.410 . S
C1332 C1333 1.392 . S
C1332 C1335 1.511 . S
C1333 C1329 1.376 . S
C1333 C1332 1.392 . S
C1333 H1345 0.929 . S
C1334 C1330 1.531 . S
C1334 H1346 0.960 . S
C1334 H1347 0.962 . S
C1334 H1348 0.960 . S
C1335 C1332 1.511 . S
C1335 H1349 0.961 . S
C1335 H1350 0.961 . S
C1335 H1351 0.961 . S
C1336 C1337 1.370 . S
C1336 C1338 1.363 . S
C1336 H1352 0.931 . S
C1337 C1336 1.370 . S
C1337 C1341 1.408 . S
C1338 C1336 1.363 . S
C1338 C1339 1.370 . S
C1338 C1342 1.524 . S
C1339 C1331 1.503 . S
C1339 C1338 1.370 . S
C1339 C1340 1.403 . S
C1340 C1339 1.403 . S
C1340 C1341 1.404 . S
C1340 C1343 1.539 . S
C1341 C1337 1.408 . S
C1341 C1340 1.404 . S
C1341 H1353 0.930 . S
C1342 C1338 1.524 . S
C1342 H1354 0.956 . S
C1342 H1355 0.961 . S
C1342 H1356 0.961 . S
C1343 C1340 1.539 . S
C1343 H1357 0.958 . S
C1343 H1358 0.961 . S
C1343 H1359 0.960 . S
H1344 C1328 0.931 . S
H1345 C1333 0.929 . S
H1346 C1334 0.960 . S
H1347 C1334 0.962 . S
H1348 C1334 0.960 . S
H1349 C1335 0.961 . S
H1350 C1335 0.961 . S
H1351 C1335 0.961 . S
H1352 C1336 0.931 . S
H1353 C1341 0.930 . S
H1354 C1342 0.956 . S
H1355 C1342 0.961 . S
H1356 C1342 0.961 . S
H1357 C1343 0.958 . S
H1358 C1343 0.961 . S
H1359 C1343 0.960 . S
C1360 C1361 1.391 . S
C1360 C1362 1.394 . S
C1360 H1376 0.931 . S
C1361 C1360 1.391 . S
C1361 C1365 1.376 . S
C1362 C1360 1.394 . S
C1362 C1363 1.369 . S
C1362 C1366 1.531 . S
C1363 C1362 1.369 . S
C1363 C1364 1.410 . S
C1363 C1371 1.503 . S
C1364 C1363 1.410 . S
C1364 C1365 1.392 . S
C1364 C1367 1.511 . S
C1365 C1361 1.376 . S
C1365 C1364 1.392 . S
C1365 H1377 0.929 . S
C1366 C1362 1.531 . S
C1366 H1378 0.960 . S
C1366 H1379 0.962 . S
C1366 H1380 0.960 . S
C1367 C1364 1.511 . S
C1367 H1381 0.961 . S
C1367 H1382 0.961 . S
C1367 H1383 0.961 . S
C1368 C1369 1.370 . S
C1368 C1370 1.363 . S
C1368 H1384 0.931 . S
C1369 C1368 1.370 . S
C1369 C1373 1.408 . S
C1370 C1368 1.363 . S
C1370 C1371 1.370 . S
C1370 C1374 1.524 . S
C1371 C1363 1.503 . S
C1371 C1370 1.370 . S
C1371 C1372 1.403 . S
C1372 C1371 1.403 . S
C1372 C1373 1.404 . S
C1372 C1375 1.539 . S
C1373 C1369 1.408 . S
C1373 C1372 1.404 . S
C1373 H1385 0.930 . S
C1374 C1370 1.524 . S
C1374 H1386 0.956 . S
C1374 H1387 0.961 . S
C1374 H1388 0.961 . S
C1375 C1372 1.539 . S
C1375 H1389 0.958 . S
C1375 H1390 0.961 . S
C1375 H1391 0.960 . S
H1376 C1360 0.931 . S
H1377 C1365 0.929 . S
H1378 C1366 0.960 . S
H1379 C1366 0.962 . S
H1380 C1366 0.960 . S
H1381 C1367 0.961 . S
H1382 C1367 0.961 . S
H1383 C1367 0.961 . S
H1384 C1368 0.931 . S
H1385 C1373 0.930 . S
H1386 C1374 0.956 . S
H1387 C1374 0.961 . S
H1388 C1374 0.961 . S
H1389 C1375 0.958 . S
H1390 C1375 0.961 . S
H1391 C1375 0.960 . S
C1392 C1393 1.391 . S
C1392 C1394 1.394 . S
C1392 H1408 0.931 . S
C1393 C1392 1.391 . S
C1393 C1397 1.376 . S
C1394 C1392 1.394 . S
C1394 C1395 1.369 . S
C1394 C1398 1.531 . S
C1395 C1394 1.369 . S
C1395 C1396 1.410 . S
C1395 C1403 1.503 . S
C1396 C1395 1.410 . S
C1396 C1397 1.392 . S
C1396 C1399 1.511 . S
C1397 C1393 1.376 . S
C1397 C1396 1.392 . S
C1397 H1409 0.929 . S
C1398 C1394 1.531 . S
C1398 H1410 0.960 . S
C1398 H1411 0.962 . S
C1398 H1412 0.960 . S
C1399 C1396 1.511 . S
C1399 H1413 0.961 . S
C1399 H1414 0.961 . S
C1399 H1415 0.961 . S
C1400 C1401 1.370 . S
C1400 C1402 1.363 . S
C1400 H1416 0.931 . S
C1401 C1400 1.370 . S
C1401 C1405 1.408 . S
C1402 C1400 1.363 . S
C1402 C1403 1.370 . S
C1402 C1406 1.524 . S
C1403 C1395 1.503 . S
C1403 C1402 1.370 . S
C1403 C1404 1.403 . S
C1404 C1403 1.403 . S
C1404 C1405 1.404 . S
C1404 C1407 1.539 . S
C1405 C1401 1.408 . S
C1405 C1404 1.404 . S
C1405 H1417 0.930 . S
C1406 C1402 1.524 . S
C1406 H1418 0.956 . S
C1406 H1419 0.961 . S
C1406 H1420 0.961 . S
C1407 C1404 1.539 . S
C1407 H1421 0.958 . S
C1407 H1422 0.961 . S
C1407 H1423 0.960 . S
H1408 C1392 0.931 . S
H1409 C1397 0.929 . S
H1410 C1398 0.960 . S
H1411 C1398 0.962 . S
H1412 C1398 0.960 . S
H1413 C1399 0.961 . S
H1414 C1399 0.961 . S
H1415 C1399 0.961 . S
H1416 C1400 0.931 . S
H1417 C1405 0.930 . S
H1418 C1406 0.956 . S
H1419 C1406 0.961 . S
H1420 C1406 0.961 . S
H1421 C1407 0.958 . S
H1422 C1407 0.961 . S
H1423 C1407 0.960 . S
C1424 C1425 1.391 . S
C1424 C1426 1.394 . S
C1424 H1440 0.931 . S
C1425 C1424 1.391 . S
C1425 C1429 1.376 . S
C1426 C1424 1.394 . S
C1426 C1427 1.369 . S
C1426 C1430 1.531 . S
C1427 C1426 1.369 . S
C1427 C1428 1.410 . S
C1427 C1435 1.503 . S
C1428 C1427 1.410 . S
C1428 C1429 1.392 . S
C1428 C1431 1.511 . S
C1429 C1425 1.376 . S
C1429 C1428 1.392 . S
C1429 H1441 0.929 . S
C1430 C1426 1.531 . S
C1430 H1442 0.960 . S
C1430 H1443 0.962 . S
C1430 H1444 0.960 . S
C1431 C1428 1.511 . S
C1431 H1445 0.961 . S
C1431 H1446 0.961 . S
C1431 H1447 0.961 . S
C1432 C1433 1.370 . S
C1432 C1434 1.363 . S
C1432 H1448 0.931 . S
C1433 C1432 1.370 . S
C1433 C1437 1.408 . S
C1434 C1432 1.363 . S
C1434 C1435 1.370 . S
C1434 C1438 1.524 . S
C1435 C1427 1.503 . S
C1435 C1434 1.370 . S
C1435 C1436 1.403 . S
C1436 C1435 1.403 . S
C1436 C1437 1.404 . S
C1436 C1439 1.539 . S
C1437 C1433 1.408 . S
C1437 C1436 1.404 . S
C1437 H1449 0.930 . S
C1438 C1434 1.524 . S
C1438 H1450 0.956 . S
C1438 H1451 0.961 . S
C1438 H1452 0.961 . S
C1439 C1436 1.539 . S
C1439 H1453 0.958 . S
C1439 H1454 0.961 . S
C1439 H1455 0.960 . S
H1440 C1424 0.931 . S
H1441 C1429 0.929 . S
H1442 C1430 0.960 . S
H1443 C1430 0.962 . S
H1444 C1430 0.960 . S
H1445 C1431 0.961 . S
H1446 C1431 0.961 . S
H1447 C1431 0.961 . S
H1448 C1432 0.931 . S
H1449 C1437 0.930 . S
H1450 C1438 0.956 . S
H1451 C1438 0.961 . S
H1452 C1438 0.961 . S
H1453 C1439 0.958 . S
H1454 C1439 0.961 . S
H1455 C1439 0.960 . S
C1456 C1457 1.391 . S
C1456 C1458 1.394 . S
C1456 H1472 0.931 . S
C1457 C1456 1.391 . S
C1457 C1461 1.376 . S
C1458 C1456 1.394 . S
C1458 C1459 1.369 . S
C1458 C1462 1.531 . S
C1459 C1458 1.369 . S
C1459 C1460 1.410 . S
C1459 C1467 1.503 . S
C1460 C1459 1.410 . S
C1460 C1461 1.392 . S
C1460 C1463 1.511 . S
C1461 C1457 1.376 . S
C1461 C1460 1.392 . S
C1461 H1473 0.929 . S
C1462 C1458 1.531 . S
C1462 H1474 0.960 . S
C1462 H1475 0.962 . S
C1462 H1476 0.960 . S
C1463 C1460 1.511 . S
C1463 H1477 0.961 . S
C1463 H1478 0.961 . S
C1463 H1479 0.961 . S
C1464 C1465 1.370 . S
C1464 C1466 1.363 . S
C1464 H1480 0.931 . S
C1465 C1464 1.370 . S
C1465 C1469 1.408 . S
C1466 C1464 1.363 . S
C1466 C1467 1.370 . S
C1466 C1470 1.524 . S
C1467 C1459 1.503 . S
C1467 C1466 1.370 . S
C1467 C1468 1.403 . S
C1468 C1467 1.403 . S
C1468 C1469 1.404 . S
C1468 C1471 1.539 . S
C1469 C1465 1.408 . S
C1469 C1468 1.404 . S
C1469 H1481 0.930 . S
C1470 C1466 1.524 . S
C1470 H1482 0.956 . S
C1470 H1483 0.961 . S
C1470 H1484 0.961 . S
C1471 C1468 1.539 . S
C1471 H1485 0.958 . S
C1471 H1486 0.961 . S
C1471 H1487 0.960 . S
H1472 C1456 0.931 . S
H1473 C1461 0.929 . S
H1474 C1462 0.960 . S
H1475 C1462 0.962 . S
H1476 C1462 0.960 . S
H1477 C1463 0.961 . S
H1478 C1463 0.961 . S
H1479 C1463 0.961 . S
H1480 C1464 0.931 . S
H1481 C1469 0.930 . S
H1482 C1470 0.956 . S
H1483 C1470 0.961 . S
H1484 C1470 0.961 . S
H1485 C1471 0.958 . S
H1486 C1471 0.961 . S
H1487 C1471 0.960 . S
C1488 C1489 1.391 1_556 S
C1488 C1490 1.394 . S
C1488 H1504 0.931 . S
C1489 C1488 1.391 1_554 S
C1489 C1493 1.376 . S
C1490 C1488 1.394 . S
C1490 C1491 1.369 1_556 S
C1490 C1494 1.534 . S
C1491 C1490 1.369 1_554 S
C1491 C1492 1.410 . S
C1491 C1499 1.503 1_545 S
C1492 C1491 1.410 . S
C1492 C1493 1.392 . S
C1492 C1495 1.511 . S
C1493 C1489 1.376 . S
C1493 C1492 1.392 . S
C1493 H1505 0.929 . S
C1494 C1490 1.534 . S
C1494 H1506 0.954 1_545 S
C1494 H1507 0.963 . S
C1494 H1508 0.961 . S
C1495 C1492 1.511 . S
C1495 H1509 0.961 . S
C1495 H1510 0.961 . S
C1495 H1511 0.961 . S
C1496 C1497 1.370 1_556 S
C1496 C1498 1.363 . S
C1496 H1512 0.931 . S
C1497 C1496 1.370 1_554 S
C1497 C1501 1.408 . S
C1498 C1496 1.363 . S
C1498 C1499 1.370 1_556 S
C1498 C1502 1.524 1_565 S
C1499 C1491 1.503 1_565 S
C1499 C1498 1.370 1_554 S
C1499 C1500 1.403 . S
C1500 C1499 1.403 . S
C1500 C1501 1.404 . S
C1500 C1503 1.539 . S
C1501 C1497 1.408 . S
C1501 C1500 1.404 . S
C1501 H1513 0.930 . S
C1502 C1498 1.524 1_545 S
C1502 H1514 0.956 . S
C1502 H1515 0.961 1_556 S
C1502 H1516 0.961 . S
C1503 C1500 1.539 . S
C1503 H1517 0.958 . S
C1503 H1518 0.961 . S
C1503 H1519 0.960 . S
H1504 C1488 0.931 . S
H1505 C1493 0.929 . S
H1506 C1494 0.954 1_565 S
H1507 C1494 0.963 . S
H1508 C1494 0.961 . S
H1509 C1495 0.961 . S
H1510 C1495 0.961 . S
H1511 C1495 0.961 . S
H1512 C1496 0.931 . S
H1513 C1501 0.930 . S
H1514 C1502 0.956 . S
H1515 C1502 0.961 1_554 S
H1516 C1502 0.961 . S
H1517 C1503 0.958 . S
H1518 C1503 0.961 . S
H1519 C1503 0.960 . S
C1520 C1521 1.391 . S
C1520 C1522 1.394 . S
C1520 H1536 0.931 . S
C1521 C1520 1.391 . S
C1521 C1525 1.376 . S
C1522 C1520 1.394 . S
C1522 C1523 1.369 . S
C1522 C1526 1.531 . S
C1523 C1522 1.369 . S
C1523 C1524 1.410 . S
C1523 C1531 1.503 . S
C1524 C1523 1.410 . S
C1524 C1525 1.392 . S
C1524 C1527 1.511 . S
C1525 C1521 1.376 . S
C1525 C1524 1.392 . S
C1525 H1537 0.929 . S
C1526 C1522 1.531 . S
C1526 H1538 0.960 . S
C1526 H1539 0.962 . S
C1526 H1540 0.960 . S
C1527 C1524 1.511 . S
C1527 H1541 0.961 . S
C1527 H1542 0.961 . S
C1527 H1543 0.961 . S
C1528 C1529 1.370 . S
C1528 C1530 1.363 . S
C1528 H1544 0.931 . S
C1529 C1528 1.370 . S
C1529 C1533 1.408 . S
C1530 C1528 1.363 . S
C1530 C1531 1.370 . S
C1530 C1534 1.524 . S
C1531 C1523 1.503 . S
C1531 C1530 1.370 . S
C1531 C1532 1.403 . S
C1532 C1531 1.403 . S
C1532 C1533 1.404 . S
C1532 C1535 1.539 . S
C1533 C1529 1.408 . S
C1533 C1532 1.404 . S
C1533 H1545 0.930 . S
C1534 C1530 1.524 . S
C1534 H1546 0.956 . S
C1534 H1547 0.961 . S
C1534 H1548 0.961 . S
C1535 C1532 1.539 . S
C1535 H1549 0.958 . S
C1535 H1550 0.961 . S
C1535 H1551 0.960 . S
H1536 C1520 0.931 . S
H1537 C1525 0.929 . S
H1538 C1526 0.960 . S
H1539 C1526 0.962 . S
H1540 C1526 0.960 . S
H1541 C1527 0.961 . S
H1542 C1527 0.961 . S
H1543 C1527 0.961 . S
H1544 C1528 0.931 . S
H1545 C1533 0.930 . S
H1546 C1534 0.956 . S
H1547 C1534 0.961 . S
H1548 C1534 0.961 . S
H1549 C1535 0.958 . S
H1550 C1535 0.961 . S
H1551 C1535 0.960 . S
C1552 C1553 1.391 . S
C1552 C1554 1.394 . S
C1552 H1568 0.931 . S
C1553 C1552 1.391 . S
C1553 C1557 1.376 . S
C1554 C1552 1.394 . S
C1554 C1555 1.369 . S
C1554 C1558 1.531 . S
C1555 C1554 1.369 . S
C1555 C1556 1.410 . S
C1555 C1563 1.503 . S
C1556 C1555 1.410 . S
C1556 C1557 1.392 . S
C1556 C1559 1.511 . S
C1557 C1553 1.376 . S
C1557 C1556 1.392 . S
C1557 H1569 0.929 . S
C1558 C1554 1.531 . S
C1558 H1570 0.960 . S
C1558 H1571 0.962 . S
C1558 H1572 0.960 . S
C1559 C1556 1.511 . S
C1559 H1573 0.961 . S
C1559 H1574 0.961 . S
C1559 H1575 0.961 . S
C1560 C1561 1.370 . S
C1560 C1562 1.363 . S
C1560 H1576 0.931 . S
C1561 C1560 1.370 . S
C1561 C1565 1.408 . S
C1562 C1560 1.363 . S
C1562 C1563 1.370 . S
C1562 C1566 1.524 . S
C1563 C1555 1.503 . S
C1563 C1562 1.370 . S
C1563 C1564 1.403 . S
C1564 C1563 1.403 . S
C1564 C1565 1.404 . S
C1564 C1567 1.539 . S
C1565 C1561 1.408 . S
C1565 C1564 1.404 . S
C1565 H1577 0.930 . S
C1566 C1562 1.524 . S
C1566 H1578 0.956 . S
C1566 H1579 0.961 . S
C1566 H1580 0.961 . S
C1567 C1564 1.539 . S
C1567 H1581 0.958 . S
C1567 H1582 0.961 . S
C1567 H1583 0.960 . S
H1568 C1552 0.931 . S
H1569 C1557 0.929 . S
H1570 C1558 0.960 . S
H1571 C1558 0.962 . S
H1572 C1558 0.960 . S
H1573 C1559 0.961 . S
H1574 C1559 0.961 . S
H1575 C1559 0.961 . S
H1576 C1560 0.931 . S
H1577 C1565 0.930 . S
H1578 C1566 0.956 . S
H1579 C1566 0.961 . S
H1580 C1566 0.961 . S
H1581 C1567 0.958 . S
H1582 C1567 0.961 . S
H1583 C1567 0.960 . S
C1584 C1585 1.391 . S
C1584 C1586 1.394 . S
C1584 H1600 0.931 . S
C1585 C1584 1.391 . S
C1585 C1589 1.376 . S
C1586 C1584 1.394 . S
C1586 C1587 1.369 . S
C1586 C1590 1.531 . S
C1587 C1586 1.369 . S
C1587 C1588 1.410 . S
C1587 C1595 1.503 . S
C1588 C1587 1.410 . S
C1588 C1589 1.392 . S
C1588 C1591 1.511 . S
C1589 C1585 1.376 . S
C1589 C1588 1.392 . S
C1589 H1601 0.929 . S
C1590 C1586 1.531 . S
C1590 H1602 0.960 . S
C1590 H1603 0.962 . S
C1590 H1604 0.960 . S
C1591 C1588 1.511 . S
C1591 H1605 0.961 . S
C1591 H1606 0.961 . S
C1591 H1607 0.961 . S
C1592 C1593 1.370 . S
C1592 C1594 1.363 . S
C1592 H1608 0.931 . S
C1593 C1592 1.370 . S
C1593 C1597 1.408 . S
C1594 C1592 1.363 . S
C1594 C1595 1.370 . S
C1594 C1598 1.524 . S
C1595 C1587 1.503 . S
C1595 C1594 1.370 . S
C1595 C1596 1.403 . S
C1596 C1595 1.403 . S
C1596 C1597 1.404 . S
C1596 C1599 1.539 . S
C1597 C1593 1.408 . S
C1597 C1596 1.404 . S
C1597 H1609 0.930 . S
C1598 C1594 1.524 . S
C1598 H1610 0.956 . S
C1598 H1611 0.961 . S
C1598 H1612 0.961 . S
C1599 C1596 1.539 . S
C1599 H1613 0.958 . S
C1599 H1614 0.961 . S
C1599 H1615 0.960 . S
H1600 C1584 0.931 . S
H1601 C1589 0.929 . S
H1602 C1590 0.960 . S
H1603 C1590 0.962 . S
H1604 C1590 0.960 . S
H1605 C1591 0.961 . S
H1606 C1591 0.961 . S
H1607 C1591 0.961 . S
H1608 C1592 0.931 . S
H1609 C1597 0.930 . S
H1610 C1598 0.956 . S
H1611 C1598 0.961 . S
H1612 C1598 0.961 . S
H1613 C1599 0.958 . S
H1614 C1599 0.961 . S
H1615 C1599 0.960 . S
C1616 C1617 1.391 . S
C1616 C1618 1.394 . S
C1616 H1632 0.931 . S
C1617 C1616 1.391 . S
C1617 C1621 1.376 . S
C1618 C1616 1.394 . S
C1618 C1619 1.369 . S
C1618 C1622 1.531 . S
C1619 C1618 1.369 . S
C1619 C1620 1.410 . S
C1619 C1627 1.503 . S
C1620 C1619 1.410 . S
C1620 C1621 1.392 . S
C1620 C1623 1.511 . S
C1621 C1617 1.376 . S
C1621 C1620 1.392 . S
C1621 H1633 0.929 . S
C1622 C1618 1.531 . S
C1622 H1634 0.960 . S
C1622 H1635 0.962 . S
C1622 H1636 0.960 . S
C1623 C1620 1.511 . S
C1623 H1637 0.961 . S
C1623 H1638 0.961 . S
C1623 H1639 0.961 . S
C1624 C1625 1.370 . S
C1624 C1626 1.363 . S
C1624 H1640 0.931 . S
C1625 C1624 1.370 . S
C1625 C1629 1.408 . S
C1626 C1624 1.363 . S
C1626 C1627 1.370 . S
C1626 C1630 1.524 . S
C1627 C1619 1.503 . S
C1627 C1626 1.370 . S
C1627 C1628 1.403 . S
C1628 C1627 1.403 . S
C1628 C1629 1.404 . S
C1628 C1631 1.539 . S
C1629 C1625 1.408 . S
C1629 C1628 1.404 . S
C1629 H1641 0.930 . S
C1630 C1626 1.524 . S
C1630 H1642 0.956 . S
C1630 H1643 0.961 . S
C1630 H1644 0.961 . S
C1631 C1628 1.539 . S
C1631 H1645 0.958 . S
C1631 H1646 0.961 . S
C1631 H1647 0.960 . S
H1632 C1616 0.931 . S
H1633 C1621 0.929 . S
H1634 C1622 0.960 . S
H1635 C1622 0.962 . S
H1636 C1622 0.960 . S
H1637 C1623 0.961 . S
H1638 C1623 0.961 . S
H1639 C1623 0.961 . S
H1640 C1624 0.931 . S
H1641 C1629 0.930 . S
H1642 C1630 0.956 . S
H1643 C1630 0.961 . S
H1644 C1630 0.961 . S
H1645 C1631 0.958 . S
H1646 C1631 0.961 . S
H1647 C1631 0.960 . S
C1648 C1649 1.391 . S
C1648 C1650 1.394 . S
C1648 H1664 0.931 . S
C1649 C1648 1.391 . S
C1649 C1653 1.376 . S
C1650 C1648 1.394 . S
C1650 C1651 1.369 . S
C1650 C1654 1.531 . S
C1651 C1650 1.369 . S
C1651 C1652 1.410 . S
C1651 C1659 1.503 . S
C1652 C1651 1.410 . S
C1652 C1653 1.392 . S
C1652 C1655 1.511 . S
C1653 C1649 1.376 . S
C1653 C1652 1.392 . S
C1653 H1665 0.929 . S
C1654 C1650 1.531 . S
C1654 H1666 0.960 . S
C1654 H1667 0.962 . S
C1654 H1668 0.960 . S
C1655 C1652 1.511 . S
C1655 H1669 0.961 . S
C1655 H1670 0.961 . S
C1655 H1671 0.961 . S
C1656 C1657 1.370 . S
C1656 C1658 1.363 . S
C1656 H1672 0.931 . S
C1657 C1656 1.370 . S
C1657 C1661 1.408 . S
C1658 C1656 1.363 . S
C1658 C1659 1.370 . S
C1658 C1662 1.524 . S
C1659 C1651 1.503 . S
C1659 C1658 1.370 . S
C1659 C1660 1.403 . S
C1660 C1659 1.403 . S
C1660 C1661 1.404 . S
C1660 C1663 1.539 . S
C1661 C1657 1.408 . S
C1661 C1660 1.404 . S
C1661 H1673 0.930 . S
C1662 C1658 1.524 . S
C1662 H1674 0.956 . S
C1662 H1675 0.961 . S
C1662 H1676 0.961 . S
C1663 C1660 1.539 . S
C1663 H1677 0.958 . S
C1663 H1678 0.961 . S
C1663 H1679 0.960 . S
H1664 C1648 0.931 . S
H1665 C1653 0.929 . S
H1666 C1654 0.960 . S
H1667 C1654 0.962 . S
H1668 C1654 0.960 . S
H1669 C1655 0.961 . S
H1670 C1655 0.961 . S
H1671 C1655 0.961 . S
H1672 C1656 0.931 . S
H1673 C1661 0.930 . S
H1674 C1662 0.956 . S
H1675 C1662 0.961 . S
H1676 C1662 0.961 . S
H1677 C1663 0.958 . S
H1678 C1663 0.961 . S
H1679 C1663 0.960 . S
C1680 C1681 1.391 . S
C1680 C1682 1.394 . S
C1680 H1696 0.931 . S
C1681 C1680 1.391 . S
C1681 C1685 1.376 . S
C1682 C1680 1.394 . S
C1682 C1683 1.369 . S
C1682 C1686 1.531 1_565 S
C1683 C1682 1.369 . S
C1683 C1684 1.410 1_655 S
C1683 C1691 1.503 1_665 S
C1684 C1683 1.410 1_455 S
C1684 C1685 1.392 1_455 S
C1684 C1687 1.511 . S
C1685 C1681 1.376 . S
C1685 C1684 1.392 1_655 S
C1685 H1697 0.929 . S
C1686 C1682 1.531 1_545 S
C1686 H1698 0.960 . S
C1686 H1699 0.962 . S
C1686 H1700 0.960 . S
C1687 C1684 1.511 . S
C1687 H1701 0.961 . S
C1687 H1702 0.961 . S
C1687 H1703 0.961 . S
C1688 C1689 1.370 . S
C1688 C1690 1.363 . S
C1688 H1704 0.931 . S
C1689 C1688 1.370 . S
C1689 C1693 1.408 . S
C1690 C1688 1.363 . S
C1690 C1691 1.370 . S
C1690 C1694 1.524 . S
C1691 C1683 1.503 1_445 S
C1691 C1690 1.370 . S
C1691 C1692 1.403 . S
C1692 C1691 1.403 . S
C1692 C1693 1.404 . S
C1692 C1695 1.539 . S
C1693 C1689 1.408 . S
C1693 C1692 1.404 . S
C1693 H1705 0.930 . S
C1694 C1690 1.524 . S
C1694 H1706 0.956 1_455 S
C1694 H1707 0.961 1_545 S
C1694 H1708 0.961 . S
C1695 C1692 1.539 . S
C1695 H1709 0.958 1_455 S
C1695 H1710 0.961 . S
C1695 H1711 0.960 1_545 S
H1696 C1680 0.931 . S
H1697 C1685 0.929 . S
H1698 C1686 0.960 . S
H1699 C1686 0.962 . S
H1700 C1686 0.960 . S
H1701 C1687 0.961 . S
H1702 C1687 0.961 . S
H1703 C1687 0.961 . S
H1704 C1688 0.931 . S
H1705 C1693 0.930 . S
H1706 C1694 0.956 1_655 S
H1707 C1694 0.961 1_565 S
H1708 C1694 0.961 . S
H1709 C1695 0.958 1_655 S
H1710 C1695 0.961 . S
H1711 C1695 0.960 1_565 S
C1712 C1713 1.392 . S
C1712 C1714 1.362 1_655 S
C1712 H1728 0.931 . S
C1713 C1712 1.392 . S
C1713 C1717 1.375 1_556 S
C1714 C1712 1.362 1_455 S
C1714 C1715 1.346 1_455 S
C1714 C1718 1.587 . S
C1715 C1714 1.346 1_655 S
C1715 C1716 1.410 1_556 S
C1715 C1723 1.503 1_655 S
C1716 C1715 1.410 1_554 S
C1716 C1717 1.392 . S
C1716 C1719 1.511 . S
C1717 C1713 1.375 1_554 S
C1717 C1716 1.392 . S
C1717 H1729 0.929 . S
C1718 C1714 1.587 . S
C1718 H1730 0.960 . S
C1718 H1731 0.962 . S
C1718 H1732 0.960 . S
C1719 C1716 1.511 . S
C1719 H1733 0.961 . S
C1719 H1734 0.961 . S
C1719 H1735 0.961 1_554 S
C1720 C1721 1.370 . S
C1720 C1722 1.363 . S
C1720 H1736 0.931 . S
C1721 C1720 1.370 . S
C1721 C1725 1.408 1_554 S
C1722 C1720 1.363 . S
C1722 C1723 1.370 1_554 S
C1722 C1726 1.524 . S
C1723 C1715 1.503 1_455 S
C1723 C1722 1.370 1_556 S
C1723 C1724 1.403 . S
C1724 C1723 1.403 . S
C1724 C1725 1.404 . S
C1724 C1727 1.539 1_455 S
C1725 C1721 1.408 1_556 S
C1725 C1724 1.404 . S
C1725 H1737 0.930 . S
C1726 C1722 1.524 . S
C1726 H1738 0.956 . S
C1726 H1739 0.961 1_455 S
C1726 H1740 0.961 . S
C1727 C1724 1.539 1_655 S
C1727 H1741 0.958 1_655 S
C1727 H1742 0.961 . S
C1727 H1743 0.960 . S
H1728 C1712 0.931 . S
H1729 C1717 0.929 . S
H1730 C1718 0.960 . S
H1731 C1718 0.962 . S
H1732 C1718 0.960 . S
H1733 C1719 0.961 . S
H1734 C1719 0.961 . S
H1735 C1719 0.961 1_556 S
H1736 C1720 0.931 . S
H1737 C1725 0.930 . S
H1738 C1726 0.956 . S
H1739 C1726 0.961 1_655 S
H1740 C1726 0.961 . S
H1741 C1727 0.958 1_455 S
H1742 C1727 0.961 . S
H1743 C1727 0.960 . S
C1744 C1745 1.391 . S
C1744 C1746 1.394 1_545 S
C1744 H1760 0.931 . S
C1745 C1744 1.391 . S
C1745 C1749 1.376 . S
C1746 C1744 1.394 1_565 S
C1746 C1747 1.369 . S
C1746 C1750 1.531 . S
C1747 C1746 1.369 . S
C1747 C1748 1.410 1_565 S
C1747 C1755 1.503 . S
C1748 C1747 1.410 1_545 S
C1748 C1749 1.392 . S
C1748 C1751 1.511 . S
C1749 C1745 1.376 . S
C1749 C1748 1.392 . S
C1749 H1761 0.929 . S
C1750 C1746 1.531 . S
C1750 H1762 0.960 . S
C1750 H1763 0.962 . S
C1750 H1764 0.960 . S
C1751 C1748 1.511 . S
C1751 H1765 0.961 1_556 S
C1751 H1766 0.961 1_545 S
C1751 H1767 0.961 . S
C1752 C1753 1.370 . S
C1752 C1754 1.363 . S
C1752 H1768 0.931 . S
C1753 C1752 1.370 . S
C1753 C1757 1.408 . S
C1754 C1752 1.363 . S
C1754 C1755 1.370 . S
C1754 C1758 1.524 . S
C1755 C1747 1.503 . S
C1755 C1754 1.370 . S
C1755 C1756 1.403 . S
C1756 C1755 1.403 . S
C1756 C1757 1.404 . S
C1756 C1759 1.539 . S
C1757 C1753 1.408 . S
C1757 C1756 1.404 . S
C1757 H1769 0.930 . S
C1758 C1754 1.524 . S
C1758 H1770 0.956 . S
C1758 H1771 0.961 1_556 S
C1758 H1772 0.961 1_556 S
C1759 C1756 1.539 . S
C1759 H1773 0.958 . S
C1759 H1774 0.961 1_565 S
C1759 H1775 0.960 1_565 S
H1760 C1744 0.931 . S
H1761 C1749 0.929 . S
H1762 C1750 0.960 . S
H1763 C1750 0.962 . S
H1764 C1750 0.960 . S
H1765 C1751 0.961 1_554 S
H1766 C1751 0.961 1_565 S
H1767 C1751 0.961 . S
H1768 C1752 0.931 . S
H1769 C1757 0.930 . S
H1770 C1758 0.956 . S
H1771 C1758 0.961 1_554 S
H1772 C1758 0.961 1_554 S
H1773 C1759 0.958 . S
H1774 C1759 0.961 1_545 S
H1775 C1759 0.960 1_545 S
C1776 C1777 1.391 . S
C1776 C1778 1.394 . S
C1776 H1792 0.931 . S
C1777 C1776 1.391 . S
C1777 C1781 1.376 1_565 S
C1778 C1776 1.394 . S
C1778 C1779 1.369 1_565 S
C1778 C1782 1.531 . S
C1779 C1778 1.369 1_545 S
C1779 C1780 1.410 . S
C1779 C1787 1.503 . S
C1780 C1779 1.410 . S
C1780 C1781 1.392 . S
C1780 C1783 1.511 . S
C1781 C1777 1.376 1_545 S
C1781 C1780 1.392 . S
C1781 H1793 0.929 . S
C1782 C1778 1.531 . S
C1782 H1794 0.960 1_565 S
C1782 H1795 0.962 . S
C1782 H1796 0.960 1_556 S
C1783 C1780 1.511 . S
C1783 H1797 0.961 . S
C1783 H1798 0.961 . S
C1783 H1799 0.961 . S
C1784 C1785 1.370 . S
C1784 C1786 1.363 . S
C1784 H1800 0.931 . S
C1785 C1784 1.370 . S
C1785 C1789 1.408 . S
C1786 C1784 1.363 . S
C1786 C1787 1.370 . S
C1786 C1790 1.524 . S
C1787 C1779 1.503 . S
C1787 C1786 1.370 . S
C1787 C1788 1.403 . S
C1788 C1787 1.403 . S
C1788 C1789 1.404 . S
C1788 C1791 1.539 1_556 S
C1789 C1785 1.408 . S
C1789 C1788 1.404 . S
C1789 H1801 0.930 . S
C1790 C1786 1.524 . S
C1790 H1802 0.956 1_545 S
C1790 H1803 0.961 . S
C1790 H1804 0.961 . S
C1791 C1788 1.539 1_554 S
C1791 H1805 0.958 . S
C1791 H1806 0.961 . S
C1791 H1807 0.960 . S
H1792 C1776 0.931 . S
H1793 C1781 0.929 . S
H1794 C1782 0.960 1_545 S
H1795 C1782 0.962 . S
H1796 C1782 0.960 1_554 S
H1797 C1783 0.961 . S
H1798 C1783 0.961 . S
H1799 C1783 0.961 . S
H1800 C1784 0.931 . S
H1801 C1789 0.930 . S
H1802 C1790 0.956 1_565 S
H1803 C1790 0.961 . S
H1804 C1790 0.961 . S
H1805 C1791 0.958 . S
H1806 C1791 0.961 . S
H1807 C1791 0.960 . S
C1808 C1809 1.391 . S
C1808 C1810 1.394 . S
C1808 H1824 0.931 . S
C1809 C1808 1.391 . S
C1809 C1813 1.376 . S
C1810 C1808 1.394 . S
C1810 C1811 1.369 . S
C1810 C1814 1.531 . S
C1811 C1810 1.369 . S
C1811 C1812 1.410 . S
C1811 C1819 1.503 . S
C1812 C1811 1.410 . S
C1812 C1813 1.392 . S
C1812 C1815 1.511 . S
C1813 C1809 1.376 . S
C1813 C1812 1.392 . S
C1813 H1825 0.929 . S
C1814 C1810 1.531 . S
C1814 H1826 0.960 . S
C1814 H1827 0.962 . S
C1814 H1828 0.960 . S
C1815 C1812 1.511 . S
C1815 H1829 0.961 . S
C1815 H1830 0.961 . S
C1815 H1831 0.961 . S
C1816 C1817 1.370 . S
C1816 C1818 1.363 . S
C1816 H1832 0.931 . S
C1817 C1816 1.370 . S
C1817 C1821 1.408 . S
C1818 C1816 1.363 . S
C1818 C1819 1.370 . S
C1818 C1822 1.524 . S
C1819 C1811 1.503 . S
C1819 C1818 1.370 . S
C1819 C1820 1.403 . S
C1820 C1819 1.403 . S
C1820 C1821 1.404 . S
C1820 C1823 1.539 . S
C1821 C1817 1.408 . S
C1821 C1820 1.404 . S
C1821 H1833 0.930 . S
C1822 C1818 1.524 . S
C1822 H1834 0.956 . S
C1822 H1835 0.961 . S
C1822 H1836 0.961 . S
C1823 C1820 1.539 . S
C1823 H1837 0.958 . S
C1823 H1838 0.961 1_554 S
C1823 H1839 0.960 . S
H1824 C1808 0.931 . S
H1825 C1813 0.929 . S
H1826 C1814 0.960 . S
H1827 C1814 0.962 . S
H1828 C1814 0.960 . S
H1829 C1815 0.961 . S
H1830 C1815 0.961 . S
H1831 C1815 0.961 . S
H1832 C1816 0.931 . S
H1833 C1821 0.930 . S
H1834 C1822 0.956 . S
H1835 C1822 0.961 . S
H1836 C1822 0.961 . S
H1837 C1823 0.958 . S
H1838 C1823 0.961 1_556 S
H1839 C1823 0.960 . S
C1840 C1841 1.391 . S
C1840 C1842 1.394 . S
C1840 H1856 0.931 . S
C1841 C1840 1.391 . S
C1841 C1845 1.376 . S
C1842 C1840 1.394 . S
C1842 C1843 1.369 . S
C1842 C1846 1.531 . S
C1843 C1842 1.369 . S
C1843 C1844 1.410 . S
C1843 C1851 1.503 . S
C1844 C1843 1.410 . S
C1844 C1845 1.392 . S
C1844 C1847 1.511 . S
C1845 C1841 1.376 . S
C1845 C1844 1.392 . S
C1845 H1857 0.929 . S
C1846 C1842 1.531 . S
C1846 H1858 0.960 . S
C1846 H1859 0.962 . S
C1846 H1860 0.960 . S
C1847 C1844 1.511 . S
C1847 H1861 0.961 . S
C1847 H1862 0.961 . S
C1847 H1863 0.961 . S
C1848 C1849 1.370 . S
C1848 C1850 1.363 . S
C1848 H1864 0.931 . S
C1849 C1848 1.370 . S
C1849 C1853 1.408 . S
C1850 C1848 1.363 . S
C1850 C1851 1.370 . S
C1850 C1854 1.524 . S
C1851 C1843 1.503 . S
C1851 C1850 1.370 . S
C1851 C1852 1.403 . S
C1852 C1851 1.403 . S
C1852 C1853 1.404 . S
C1852 C1855 1.539 . S
C1853 C1849 1.408 . S
C1853 C1852 1.404 . S
C1853 H1865 0.930 . S
C1854 C1850 1.524 . S
C1854 H1866 0.956 . S
C1854 H1867 0.961 . S
C1854 H1868 0.961 . S
C1855 C1852 1.539 . S
C1855 H1869 0.958 . S
C1855 H1870 0.961 . S
C1855 H1871 0.960 . S
H1856 C1840 0.931 . S
H1857 C1845 0.929 . S
H1858 C1846 0.960 . S
H1859 C1846 0.962 . S
H1860 C1846 0.960 . S
H1861 C1847 0.961 . S
H1862 C1847 0.961 . S
H1863 C1847 0.961 . S
H1864 C1848 0.931 . S
H1865 C1853 0.930 . S
H1866 C1854 0.956 . S
H1867 C1854 0.961 . S
H1868 C1854 0.961 . S
H1869 C1855 0.958 . S
H1870 C1855 0.961 . S
H1871 C1855 0.960 . S
C1872 C1873 1.391 . S
C1872 C1874 1.394 . S
C1872 H1888 0.931 . S
C1873 C1872 1.391 . S
C1873 C1877 1.376 . S
C1874 C1872 1.394 . S
C1874 C1875 1.369 . S
C1874 C1878 1.531 . S
C1875 C1874 1.369 . S
C1875 C1876 1.410 . S
C1875 C1883 1.503 . S
C1876 C1875 1.410 . S
C1876 C1877 1.392 . S
C1876 C1879 1.511 . S
C1877 C1873 1.376 . S
C1877 C1876 1.392 . S
C1877 H1889 0.929 . S
C1878 C1874 1.531 . S
C1878 H1890 0.960 . S
C1878 H1891 0.962 . S
C1878 H1892 0.960 . S
C1879 C1876 1.511 . S
C1879 H1893 0.961 . S
C1879 H1894 0.961 . S
C1879 H1895 0.961 . S
C1880 C1881 1.370 . S
C1880 C1882 1.363 . S
C1880 H1896 0.931 . S
C1881 C1880 1.370 . S
C1881 C1885 1.408 . S
C1882 C1880 1.363 . S
C1882 C1883 1.370 . S
C1882 C1886 1.524 . S
C1883 C1875 1.503 . S
C1883 C1882 1.370 . S
C1883 C1884 1.403 . S
C1884 C1883 1.403 . S
C1884 C1885 1.404 . S
C1884 C1887 1.539 . S
C1885 C1881 1.408 . S
C1885 C1884 1.404 . S
C1885 H1897 0.930 . S
C1886 C1882 1.524 . S
C1886 H1898 0.956 . S
C1886 H1899 0.961 . S
C1886 H1900 0.961 . S
C1887 C1884 1.539 . S
C1887 H1901 0.958 . S
C1887 H1902 0.961 . S
C1887 H1903 0.960 . S
H1888 C1872 0.931 . S
H1889 C1877 0.929 . S
H1890 C1878 0.960 . S
H1891 C1878 0.962 . S
H1892 C1878 0.960 . S
H1893 C1879 0.961 . S
H1894 C1879 0.961 . S
H1895 C1879 0.961 . S
H1896 C1880 0.931 . S
H1897 C1885 0.930 . S
H1898 C1886 0.956 . S
H1899 C1886 0.961 . S
H1900 C1886 0.961 . S
H1901 C1887 0.958 . S
H1902 C1887 0.961 . S
H1903 C1887 0.960 . S
C1904 C1905 1.391 . S
C1904 C1906 1.394 . S
C1904 H1920 0.931 . S
C1905 C1904 1.391 . S
C1905 C1909 1.376 . S
C1906 C1904 1.394 . S
C1906 C1907 1.369 . S
C1906 C1910 1.531 . S
C1907 C1906 1.369 . S
C1907 C1908 1.410 . S
C1907 C1915 1.503 . S
C1908 C1907 1.410 . S
C1908 C1909 1.392 . S
C1908 C1911 1.511 . S
C1909 C1905 1.376 . S
C1909 C1908 1.392 . S
C1909 H1921 0.929 . S
C1910 C1906 1.531 . S
C1910 H1922 0.960 . S
C1910 H1923 0.962 . S
C1910 H1924 0.960 . S
C1911 C1908 1.511 . S
C1911 H1925 0.961 . S
C1911 H1926 0.961 . S
C1911 H1927 0.961 . S
C1912 C1913 1.370 . S
C1912 C1914 1.363 . S
C1912 H1928 0.931 . S
C1913 C1912 1.370 . S
C1913 C1917 1.408 . S
C1914 C1912 1.363 . S
C1914 C1915 1.370 . S
C1914 C1918 1.524 . S
C1915 C1907 1.503 . S
C1915 C1914 1.370 . S
C1915 C1916 1.403 . S
C1916 C1915 1.403 . S
C1916 C1917 1.404 . S
C1916 C1919 1.539 . S
C1917 C1913 1.408 . S
C1917 C1916 1.404 . S
C1917 H1929 0.930 . S
C1918 C1914 1.524 . S
C1918 H1930 0.956 . S
C1918 H1931 0.961 . S
C1918 H1932 0.961 . S
C1919 C1916 1.539 . S
C1919 H1933 0.958 . S
C1919 H1934 0.961 . S
C1919 H1935 0.960 . S
H1920 C1904 0.931 . S
H1921 C1909 0.929 . S
H1922 C1910 0.960 . S
H1923 C1910 0.962 . S
H1924 C1910 0.960 . S
H1925 C1911 0.961 . S
H1926 C1911 0.961 . S
H1927 C1911 0.961 . S
H1928 C1912 0.931 . S
H1929 C1917 0.930 . S
H1930 C1918 0.956 . S
H1931 C1918 0.961 . S
H1932 C1918 0.961 . S
H1933 C1919 0.958 . S
H1934 C1919 0.961 . S
H1935 C1919 0.960 . S
C1936 C1937 1.391 . S
C1936 C1938 1.394 . S
C1936 H1952 0.931 . S
C1937 C1936 1.391 . S
C1937 C1941 1.376 . S
C1938 C1936 1.394 . S
C1938 C1939 1.369 . S
C1938 C1942 1.531 . S
C1939 C1938 1.369 . S
C1939 C1940 1.410 . S
C1939 C1947 1.503 . S
C1940 C1939 1.410 . S
C1940 C1941 1.392 . S
C1940 C1943 1.511 . S
C1941 C1937 1.376 . S
C1941 C1940 1.392 . S
C1941 H1953 0.929 . S
C1942 C1938 1.531 . S
C1942 H1954 0.960 . S
C1942 H1955 0.962 . S
C1942 H1956 0.960 . S
C1943 C1940 1.511 . S
C1943 H1957 0.961 . S
C1943 H1958 0.961 . S
C1943 H1959 0.961 . S
C1944 C1945 1.370 . S
C1944 C1946 1.363 . S
C1944 H1960 0.931 . S
C1945 C1944 1.370 . S
C1945 C1949 1.408 . S
C1946 C1944 1.363 . S
C1946 C1947 1.370 . S
C1946 C1950 1.524 . S
C1947 C1939 1.503 . S
C1947 C1946 1.370 . S
C1947 C1948 1.403 . S
C1948 C1947 1.403 . S
C1948 C1949 1.404 . S
C1948 C1951 1.539 . S
C1949 C1945 1.408 . S
C1949 C1948 1.404 . S
C1949 H1961 0.930 . S
C1950 C1946 1.524 . S
C1950 H1962 0.956 . S
C1950 H1963 0.961 . S
C1950 H1964 0.961 . S
C1951 C1948 1.539 . S
C1951 H1965 0.958 . S
C1951 H1966 0.961 . S
C1951 H1967 0.960 . S
H1952 C1936 0.931 . S
H1953 C1941 0.929 . S
H1954 C1942 0.960 . S
H1955 C1942 0.962 . S
H1956 C1942 0.960 . S
H1957 C1943 0.961 . S
H1958 C1943 0.961 . S
H1959 C1943 0.961 . S
H1960 C1944 0.931 . S
H1961 C1949 0.930 . S
H1962 C1950 0.956 . S
H1963 C1950 0.961 . S
H1964 C1950 0.961 . S
H1965 C1951 0.958 . S
H1966 C1951 0.961 . S
H1967 C1951 0.960 . S
C1968 C1969 1.391 . S
C1968 C1970 1.394 . S
C1968 H1984 0.931 . S
C1969 C1968 1.391 . S
C1969 C1973 1.376 . S
C1970 C1968 1.394 . S
C1970 C1971 1.369 . S
C1970 C1974 1.531 . S
C1971 C1970 1.369 . S
C1971 C1972 1.410 . S
C1971 C1979 1.503 . S
C1972 C1971 1.410 . S
C1972 C1973 1.392 . S
C1972 C1975 1.511 . S
C1973 C1969 1.376 . S
C1973 C1972 1.392 . S
C1973 H1985 0.929 . S
C1974 C1970 1.531 . S
C1974 H1986 0.960 . S
C1974 H1987 0.962 . S
C1974 H1988 0.960 . S
C1975 C1972 1.511 . S
C1975 H1989 0.961 . S
C1975 H1990 0.961 . S
C1975 H1991 0.961 . S
C1976 C1977 1.370 . S
C1976 C1978 1.363 . S
C1976 H1992 0.931 . S
C1977 C1976 1.370 . S
C1977 C1981 1.408 . S
C1978 C1976 1.363 . S
C1978 C1979 1.370 . S
C1978 C1982 1.524 . S
C1979 C1971 1.503 . S
C1979 C1978 1.370 . S
C1979 C1980 1.403 . S
C1980 C1979 1.403 . S
C1980 C1981 1.404 . S
C1980 C1983 1.539 . S
C1981 C1977 1.408 . S
C1981 C1980 1.404 . S
C1981 H1993 0.930 . S
C1982 C1978 1.524 . S
C1982 H1994 0.956 . S
C1982 H1995 0.961 . S
C1982 H1996 0.961 . S
C1983 C1980 1.539 . S
C1983 H1997 0.958 . S
C1983 H1998 0.961 . S
C1983 H1999 0.960 . S
H1984 C1968 0.931 . S
H1985 C1973 0.929 . S
H1986 C1974 0.960 . S
H1987 C1974 0.962 . S
H1988 C1974 0.960 . S
H1989 C1975 0.961 . S
H1990 C1975 0.961 . S
H1991 C1975 0.961 . S
H1992 C1976 0.931 . S
H1993 C1981 0.930 . S
H1994 C1982 0.956 . S
H1995 C1982 0.961 . S
H1996 C1982 0.961 . S
H1997 C1983 0.958 . S
H1998 C1983 0.961 . S
H1999 C1983 0.960 . S
C2000 C2001 1.391 . S
C2000 C2002 1.394 . S
C2000 H2016 0.931 . S
C2001 C2000 1.391 . S
C2001 C2005 1.376 . S
C2002 C2000 1.394 . S
C2002 C2003 1.369 . S
C2002 C2006 1.531 . S
C2003 C2002 1.369 . S
C2003 C2004 1.410 . S
C2003 C2011 1.503 . S
C2004 C2003 1.410 . S
C2004 C2005 1.392 . S
C2004 C2007 1.511 . S
C2005 C2001 1.376 . S
C2005 C2004 1.392 . S
C2005 H2017 0.929 . S
C2006 C2002 1.531 . S
C2006 H2018 0.960 . S
C2006 H2019 0.962 . S
C2006 H2020 0.960 . S
C2007 C2004 1.511 . S
C2007 H2021 0.961 . S
C2007 H2022 0.968 . S
C2007 H2023 0.961 1_565 S
C2008 C2009 1.360 1_565 S
C2008 C2010 1.370 . S
C2008 H2024 0.934 . S
C2009 C2008 1.360 1_545 S
C2009 C2013 1.408 . S
C2010 C2008 1.370 . S
C2010 C2011 1.370 . S
C2010 C2014 1.524 . S
C2011 C2003 1.503 . S
C2011 C2010 1.370 . S
C2011 C2012 1.403 1_565 S
C2012 C2011 1.403 1_545 S
C2012 C2013 1.404 . S
C2012 C2015 1.539 . S
C2013 C2009 1.408 . S
C2013 C2012 1.404 . S
C2013 H2025 0.930 . S
C2014 C2010 1.524 . S
C2014 H2026 0.956 . S
C2014 H2027 0.961 . S
C2014 H2028 0.961 . S
C2015 C2012 1.539 . S
C2015 H2029 0.958 . S
C2015 H2030 0.961 . S
C2015 H2031 0.960 . S
H2016 C2000 0.931 . S
H2017 C2005 0.929 . S
H2018 C2006 0.960 . S
H2019 C2006 0.962 . S
H2020 C2006 0.960 . S
H2021 C2007 0.961 . S
H2022 C2007 0.968 . S
H2023 C2007 0.961 1_545 S
H2024 C2008 0.934 . S
H2025 C2013 0.930 . S
H2026 C2014 0.956 . S
H2027 C2014 0.961 . S
H2028 C2014 0.961 . S
H2029 C2015 0.958 . S
H2030 C2015 0.961 . S
H2031 C2015 0.960 . S
C2032 C2033 1.391 . S
C2032 C2034 1.394 1_565 S
C2032 H2048 0.931 . S
C2033 C2032 1.391 . S
C2033 C2037 1.376 . S
C2034 C2032 1.394 1_545 S
C2034 C2035 1.369 . S
C2034 C2038 1.531 . S
C2035 C2034 1.369 . S
C2035 C2036 1.410 1_545 S
C2035 C2043 1.503 . S
C2036 C2035 1.410 1_565 S
C2036 C2037 1.392 . S
C2036 C2039 1.511 . S
C2037 C2033 1.376 . S
C2037 C2036 1.392 . S
C2037 H2049 0.929 . S
C2038 C2034 1.531 . S
C2038 H2050 0.960 . S
C2038 H2051 0.962 . S
C2038 H2052 0.960 . S
C2039 C2036 1.511 . S
C2039 H2053 0.961 . S
C2039 H2054 0.961 1_565 S
C2039 H2055 0.961 . S
C2040 C2041 1.370 . S
C2040 C2042 1.363 . S
C2040 H2056 0.931 . S
C2041 C2040 1.370 . S
C2041 C2045 1.408 . S
C2042 C2040 1.363 . S
C2042 C2043 1.370 . S
C2042 C2046 1.524 . S
C2043 C2035 1.503 . S
C2043 C2042 1.370 . S
C2043 C2044 1.403 . S
C2044 C2043 1.403 . S
C2044 C2045 1.404 . S
C2044 C2047 1.539 1_545 S
C2045 C2041 1.408 . S
C2045 C2044 1.404 . S
C2045 H2057 0.930 . S
C2046 C2042 1.524 . S
C2046 H2058 0.956 . S
C2046 H2059 0.961 . S
C2046 H2060 0.961 . S
C2047 C2044 1.539 1_565 S
C2047 H2061 0.958 . S
C2047 H2062 0.961 . S
C2047 H2063 0.960 . S
H2048 C2032 0.931 . S
H2049 C2037 0.929 . S
H2050 C2038 0.960 . S
H2051 C2038 0.962 . S
H2052 C2038 0.960 . S
H2053 C2039 0.961 . S
H2054 C2039 0.961 1_545 S
H2055 C2039 0.961 . S
H2056 C2040 0.931 . S
H2057 C2045 0.930 . S
H2058 C2046 0.956 . S
H2059 C2046 0.961 . S
H2060 C2046 0.961 . S
H2061 C2047 0.958 . S
H2062 C2047 0.961 . S
H2063 C2047 0.960 . S
C2064 C2065 1.391 . S
C2064 C2066 1.394 . S
C2064 H2080 0.931 . S
C2065 C2064 1.391 . S
C2065 C2069 1.376 . S
C2066 C2064 1.394 . S
C2066 C2067 1.369 . S
C2066 C2070 1.531 . S
C2067 C2066 1.369 . S
C2067 C2068 1.410 . S
C2067 C2075 1.503 . S
C2068 C2067 1.410 . S
C2068 C2069 1.392 . S
C2068 C2071 1.511 . S
C2069 C2065 1.376 . S
C2069 C2068 1.392 . S
C2069 H2081 0.929 . S
C2070 C2066 1.531 . S
C2070 H2082 0.960 . S
C2070 H2083 0.962 . S
C2070 H2084 0.960 . S
C2071 C2068 1.511 . S
C2071 H2085 0.961 . S
C2071 H2086 0.961 . S
C2071 H2087 0.961 . S
C2072 C2073 1.370 . S
C2072 C2074 1.363 . S
C2072 H2088 0.931 . S
C2073 C2072 1.370 . S
C2073 C2077 1.408 . S
C2074 C2072 1.363 . S
C2074 C2075 1.370 . S
C2074 C2078 1.524 . S
C2075 C2067 1.503 . S
C2075 C2074 1.370 . S
C2075 C2076 1.403 . S
C2076 C2075 1.403 . S
C2076 C2077 1.404 . S
C2076 C2079 1.539 . S
C2077 C2073 1.408 . S
C2077 C2076 1.404 . S
C2077 H2089 0.930 . S
C2078 C2074 1.524 . S
C2078 H2090 0.956 . S
C2078 H2091 0.961 . S
C2078 H2092 0.961 . S
C2079 C2076 1.539 . S
C2079 H2093 0.958 . S
C2079 H2094 0.961 . S
C2079 H2095 0.960 . S
H2080 C2064 0.931 . S
H2081 C2069 0.929 . S
H2082 C2070 0.960 . S
H2083 C2070 0.962 . S
H2084 C2070 0.960 . S
H2085 C2071 0.961 . S
H2086 C2071 0.961 . S
H2087 C2071 0.961 . S
H2088 C2072 0.931 . S
H2089 C2077 0.930 . S
H2090 C2078 0.956 . S
H2091 C2078 0.961 . S
H2092 C2078 0.961 . S
H2093 C2079 0.958 . S
H2094 C2079 0.961 . S
H2095 C2079 0.960 . S
C2096 C2097 1.391 . S
C2096 C2098 1.394 . S
C2096 H2112 0.931 . S
C2097 C2096 1.391 . S
C2097 C2101 1.376 . S
C2098 C2096 1.394 . S
C2098 C2099 1.369 . S
C2098 C2102 1.531 . S
C2099 C2098 1.369 . S
C2099 C2100 1.410 . S
C2099 C2107 1.503 . S
C2100 C2099 1.410 . S
C2100 C2101 1.392 . S
C2100 C2103 1.511 . S
C2101 C2097 1.376 . S
C2101 C2100 1.392 . S
C2101 H2113 0.929 . S
C2102 C2098 1.531 . S
C2102 H2114 0.960 . S
C2102 H2115 0.962 . S
C2102 H2116 0.960 . S
C2103 C2100 1.511 . S
C2103 H2117 0.961 . S
C2103 H2118 0.961 . S
C2103 H2119 0.961 . S
C2104 C2105 1.370 . S
C2104 C2106 1.363 . S
C2104 H2120 0.931 . S
C2105 C2104 1.370 . S
C2105 C2109 1.408 . S
C2106 C2104 1.363 . S
C2106 C2107 1.370 . S
C2106 C2110 1.524 . S
C2107 C2099 1.503 . S
C2107 C2106 1.370 . S
C2107 C2108 1.403 . S
C2108 C2107 1.403 . S
C2108 C2109 1.404 . S
C2108 C2111 1.539 . S
C2109 C2105 1.408 . S
C2109 C2108 1.404 . S
C2109 H2121 0.930 . S
C2110 C2106 1.524 . S
C2110 H2122 0.956 . S
C2110 H2123 0.961 . S
C2110 H2124 0.961 . S
C2111 C2108 1.539 . S
C2111 H2125 0.958 . S
C2111 H2126 0.961 . S
C2111 H2127 0.960 . S
H2112 C2096 0.931 . S
H2113 C2101 0.929 . S
H2114 C2102 0.960 . S
H2115 C2102 0.962 . S
H2116 C2102 0.960 . S
H2117 C2103 0.961 . S
H2118 C2103 0.961 . S
H2119 C2103 0.961 . S
H2120 C2104 0.931 . S
H2121 C2109 0.930 . S
H2122 C2110 0.956 . S
H2123 C2110 0.961 . S
H2124 C2110 0.961 . S
H2125 C2111 0.958 . S
H2126 C2111 0.961 . S
H2127 C2111 0.960 . S
C2128 C2129 1.391 . S
C2128 C2130 1.394 . S
C2128 H2144 0.931 1_556 S
C2129 C2128 1.391 . S
C2129 C2133 1.376 . S
C2130 C2128 1.394 . S
C2130 C2131 1.369 . S
C2130 C2134 1.531 . S
C2131 C2130 1.369 . S
C2131 C2132 1.410 . S
C2131 C2139 1.503 . S
C2132 C2131 1.410 . S
C2132 C2133 1.392 . S
C2132 C2135 1.511 . S
C2133 C2129 1.376 . S
C2133 C2132 1.392 . S
C2133 H2145 0.929 . S
C2134 C2130 1.531 . S
C2134 H2146 0.958 1_556 S
C2134 H2147 0.962 . S
C2134 H2148 0.960 1_556 S
C2135 C2132 1.511 . S
C2135 H2149 0.961 . S
C2135 H2150 0.961 . S
C2135 H2151 0.961 . S
C2136 C2137 1.370 . S
C2136 C2138 1.363 . S
C2136 H2152 0.931 . S
C2137 C2136 1.370 . S
C2137 C2141 1.408 . S
C2138 C2136 1.363 . S
C2138 C2139 1.370 . S
C2138 C2142 1.524 . S
C2139 C2131 1.503 . S
C2139 C2138 1.370 . S
C2139 C2140 1.403 . S
C2140 C2139 1.403 . S
C2140 C2141 1.404 . S
C2140 C2143 1.539 1_556 S
C2141 C2137 1.408 . S
C2141 C2140 1.404 . S
C2141 H2153 0.930 . S
C2142 C2138 1.524 . S
C2142 H2154 0.956 . S
C2142 H2155 0.961 . S
C2142 H2156 0.961 . S
C2143 C2140 1.539 1_554 S
C2143 H2157 0.958 . S
C2143 H2158 0.961 . S
C2143 H2159 0.960 1_554 S
H2144 C2128 0.931 1_554 S
H2145 C2133 0.929 . S
H2146 C2134 0.958 1_554 S
H2147 C2134 0.962 . S
H2148 C2134 0.960 1_554 S
H2149 C2135 0.961 . S
H2150 C2135 0.961 . S
H2151 C2135 0.961 . S
H2152 C2136 0.931 . S
H2153 C2141 0.930 . S
H2154 C2142 0.956 . S
H2155 C2142 0.961 . S
H2156 C2142 0.961 . S
H2157 C2143 0.958 . S
H2158 C2143 0.961 . S
H2159 C2143 0.960 1_556 S
C2160 C2161 1.391 . S
C2160 C2162 1.394 . S
C2160 H2176 0.931 . S
C2161 C2160 1.391 . S
C2161 C2165 1.376 . S
C2162 C2160 1.394 . S
C2162 C2163 1.369 . S
C2162 C2166 1.531 . S
C2163 C2162 1.369 . S
C2163 C2164 1.410 . S
C2163 C2171 1.503 . S
C2164 C2163 1.410 . S
C2164 C2165 1.392 . S
C2164 C2167 1.511 . S
C2165 C2161 1.376 . S
C2165 C2164 1.392 . S
C2165 H2177 0.929 . S
C2166 C2162 1.531 . S
C2166 H2178 0.960 . S
C2166 H2179 0.962 . S
C2166 H2180 0.960 . S
C2167 C2164 1.511 . S
C2167 H2181 0.961 . S
C2167 H2182 0.961 . S
C2167 H2183 0.961 . S
C2168 C2169 1.370 . S
C2168 C2170 1.363 . S
C2168 H2184 0.931 1_556 S
C2169 C2168 1.370 . S
C2169 C2173 1.408 . S
C2170 C2168 1.363 . S
C2170 C2171 1.370 . S
C2170 C2174 1.524 1_556 S
C2171 C2163 1.503 . S
C2171 C2170 1.370 . S
C2171 C2172 1.403 . S
C2172 C2171 1.403 . S
C2172 C2173 1.404 . S
C2172 C2175 1.539 . S
C2173 C2169 1.408 . S
C2173 C2172 1.404 . S
C2173 H2185 0.930 . S
C2174 C2170 1.524 1_554 S
C2174 H2186 0.956 . S
C2174 H2187 0.961 . S
C2174 H2188 0.961 . S
C2175 C2172 1.539 . S
C2175 H2189 0.958 . S
C2175 H2190 0.961 . S
C2175 H2191 0.960 . S
H2176 C2160 0.931 . S
H2177 C2165 0.929 . S
H2178 C2166 0.960 . S
H2179 C2166 0.962 . S
H2180 C2166 0.960 . S
H2181 C2167 0.961 . S
H2182 C2167 0.961 . S
H2183 C2167 0.961 . S
H2184 C2168 0.931 1_554 S
H2185 C2173 0.930 . S
H2186 C2174 0.956 . S
H2187 C2174 0.961 . S
H2188 C2174 0.961 . S
H2189 C2175 0.958 . S
H2190 C2175 0.961 . S
H2191 C2175 0.960 . S
C2192 C2193 1.391 . S
C2192 C2194 1.394 . S
C2192 H2208 0.931 . S
C2193 C2192 1.391 . S
C2193 C2197 1.376 . S
C2194 C2192 1.394 . S
C2194 C2195 1.369 . S
C2194 C2198 1.531 . S
C2195 C2194 1.369 . S
C2195 C2196 1.410 . S
C2195 C2203 1.503 . S
C2196 C2195 1.410 . S
C2196 C2197 1.392 . S
C2196 C2199 1.511 . S
C2197 C2193 1.376 . S
C2197 C2196 1.392 . S
C2197 H2209 0.929 . S
C2198 C2194 1.531 . S
C2198 H2210 0.960 . S
C2198 H2211 0.962 . S
C2198 H2212 0.960 . S
C2199 C2196 1.511 . S
C2199 H2213 0.961 . S
C2199 H2214 0.961 . S
C2199 H2215 0.961 . S
C2200 C2201 1.370 . S
C2200 C2202 1.363 . S
C2200 H2216 0.931 . S
C2201 C2200 1.370 . S
C2201 C2205 1.408 . S
C2202 C2200 1.363 . S
C2202 C2203 1.370 . S
C2202 C2206 1.524 . S
C2203 C2195 1.503 . S
C2203 C2202 1.370 . S
C2203 C2204 1.403 . S
C2204 C2203 1.403 . S
C2204 C2205 1.404 . S
C2204 C2207 1.539 . S
C2205 C2201 1.408 . S
C2205 C2204 1.404 . S
C2205 H2217 0.930 . S
C2206 C2202 1.524 . S
C2206 H2218 0.956 . S
C2206 H2219 0.961 . S
C2206 H2220 0.961 . S
C2207 C2204 1.539 . S
C2207 H2221 0.958 . S
C2207 H2222 0.961 1_554 S
C2207 H2223 0.960 . S
H2208 C2192 0.931 . S
H2209 C2197 0.929 . S
H2210 C2198 0.960 . S
H2211 C2198 0.962 . S
H2212 C2198 0.960 . S
H2213 C2199 0.961 . S
H2214 C2199 0.961 . S
H2215 C2199 0.961 . S
H2216 C2200 0.931 . S
H2217 C2205 0.930 . S
H2218 C2206 0.956 . S
H2219 C2206 0.961 . S
H2220 C2206 0.961 . S
H2221 C2207 0.958 . S
H2222 C2207 0.961 1_556 S
H2223 C2207 0.960 . S
C2224 C2225 1.391 . S
C2224 C2226 1.394 . S
C2224 H2240 0.931 . S
C2225 C2224 1.391 . S
C2225 C2229 1.376 . S
C2226 C2224 1.394 . S
C2226 C2227 1.369 . S
C2226 C2230 1.531 . S
C2227 C2226 1.369 . S
C2227 C2228 1.410 . S
C2227 C2235 1.503 . S
C2228 C2227 1.410 . S
C2228 C2229 1.392 . S
C2228 C2231 1.511 . S
C2229 C2225 1.376 . S
C2229 C2228 1.392 . S
C2229 H2241 0.929 . S
C2230 C2226 1.531 . S
C2230 H2242 0.960 . S
C2230 H2243 0.962 . S
C2230 H2244 0.960 . S
C2231 C2228 1.511 . S
C2231 H2245 0.961 . S
C2231 H2246 0.961 . S
C2231 H2247 0.961 . S
C2232 C2233 1.370 . S
C2232 C2234 1.363 . S
C2232 H2248 0.931 . S
C2233 C2232 1.370 . S
C2233 C2237 1.408 . S
C2234 C2232 1.363 . S
C2234 C2235 1.370 . S
C2234 C2238 1.524 . S
C2235 C2227 1.503 . S
C2235 C2234 1.370 . S
C2235 C2236 1.403 . S
C2236 C2235 1.403 . S
C2236 C2237 1.404 . S
C2236 C2239 1.539 . S
C2237 C2233 1.408 . S
C2237 C2236 1.404 . S
C2237 H2249 0.930 . S
C2238 C2234 1.524 . S
C2238 H2250 0.956 . S
C2238 H2251 0.961 . S
C2238 H2252 0.961 . S
C2239 C2236 1.539 . S
C2239 H2253 0.958 . S
C2239 H2254 0.961 . S
C2239 H2255 0.960 . S
H2240 C2224 0.931 . S
H2241 C2229 0.929 . S
H2242 C2230 0.960 . S
H2243 C2230 0.962 . S
H2244 C2230 0.960 . S
H2245 C2231 0.961 . S
H2246 C2231 0.961 . S
H2247 C2231 0.961 . S
H2248 C2232 0.931 . S
H2249 C2237 0.930 . S
H2250 C2238 0.956 . S
H2251 C2238 0.961 . S
H2252 C2238 0.961 . S
H2253 C2239 0.958 . S
H2254 C2239 0.961 . S
H2255 C2239 0.960 . S
C465 C3 0.809 . S
C473 C158 0.794 . S
C497 C32 0.813 . S
C505 C129 0.795 . S
C529 C61 0.850 . S
C537 C332 0.837 . S
C561 C90 0.817 . S
C569 C303 0.801 . S
C593 C42 0.870 . S
C601 C119 0.849 . S
C625 C148 0.816 . S
C633 C13 0.797 . S
C657 C177 0.828 . S
C665 C448 0.815 . S
C689 C419 0.881 . S
C697 C206 0.847 . S
C721 C390 0.805 . S
C729 C235 0.839 . S
C753 C361 0.805 . S
C761 C264 0.839 . S
C785 C100 0.758 . S
C793 C293 0.827 . S
C817 C322 0.833 . S
C825 C71 0.817 . S
C849 C351 0.824 . S
C857 C274 0.816 . S
C881 C380 0.835 . S
C889 C245 0.814 . S
C913 C409 0.824 . S
C921 C216 0.812 . S
C945 C187 0.888 . S
C953 C438 0.849 . S
C977 C15 2.211 . S
C985 C21 2.080 . S
C1009 C50 2.104 . S
C1017 C44 2.240 . S
C1041 C79 2.091 . S
C1049 C73 2.245 . S
C1073 C108 2.101 . S
C1081 C102 2.243 . S
C1105 C131 2.211 . S
C1113 C137 2.083 . S
C1137 C160 2.252 . S
C1145 C166 2.077 . S
C1169 C189 2.214 . S
C1177 C195 2.086 1_554 S
C1201 C224 2.039 1_554 S
C1209 C218 2.237 . S
C1233 C247 2.241 . S
C1241 C253 2.065 . S
C1265 C276 2.252 . S
C1273 C282 2.075 . S
C1297 C311 2.078 1_554 S
C1305 C305 2.228 . S
C1329 C334 2.218 . S
C1337 C340 2.067 1_554 S
C1361 C369 2.062 . S
C1369 C363 2.229 . S
C1393 C398 2.108 . S
C1401 C392 2.237 . S
C1425 C421 2.243 . S
C1433 C427 2.092 . S
C1457 C450 2.242 . S
C1465 C456 2.093 . S
C1489 C10 1.629 . S
C1497 C39 1.619 . S
C1521 C68 1.646 . S
C1529 C445 1.640 . S
C1553 C97 1.614 . S
C1561 C416 1.632 . S
C1585 C155 1.619 . S
C1593 C126 1.637 . S
C1617 C329 1.597 . S
C1625 C184 1.617 . S
C1649 C213 1.595 . S
C1657 C300 1.619 . S
C1681 C271 1.599 . S
C1689 C242 1.618 . S
C1713 C387 1.651 1_556 S
C1721 C358 1.636 . S
C1745 C8 1.515 . S
C1753 C179 1.547 . S
C1777 C37 1.491 . S
C1785 C208 1.545 . S
C1809 C66 1.523 . S
C1817 C5 1.539 . S
C1841 C34 1.551 . S
C1849 C95 1.503 . S
C1873 C63 1.566 . S
C1881 C124 1.501 . S
C1905 C92 1.545 . S
C1913 C153 1.503 . S
C1937 C182 1.476 . S
C1945 C121 1.553 . S
C1969 C150 1.567 . S
C1977 C211 1.497 . S
C2001 C411 1.566 . S
C2009 C240 1.500 . S
C2033 C269 1.506 . S
C2041 C440 1.549 . S
C2065 C237 1.555 . S
C2073 C298 1.504 . S
C2097 C327 1.542 . S
C2105 C266 1.532 . S
C2129 C356 1.498 . S
C2137 C295 1.543 . S
C2161 C324 1.520 . S
C2169 C385 1.526 . S
C2193 C414 1.523 . S
C2201 C353 1.539 . S
C2225 C443 1.512 . S
C2233 C382 1.543 . S
