# Generated by pormake.
# Topology lvt, (4)-cn, num edge types: 1
# Building blocks:
#     Node 0, Type 0, BuildingBlock: MUDLON_clean_sbu_0, # of connection points: 4
#     Node 1, Type 0, BuildingBlock: MUDLON_clean_sbu_0, # of connection points: 4
#     Node 2, Type 0, BuildingBlock: MUDLON_clean_sbu_0, # of connection points: 4
#     Node 3, Type 0, BuildingBlock: MUDLON_clean_sbu_0, # of connection points: 4
#     Node 4, Type 0, BuildingBlock: MUDLON_clean_sbu_0, # of connection points: 4
#     Node 5, Type 0, BuildingBlock: MUDLON_clean_sbu_0, # of connection points: 4
#     Node 6, Type 0, BuildingBlock: MUDLON_clean_sbu_0, # of connection points: 4
#     Node 7, Type 0, BuildingBlock: MUDLON_clean_sbu_0, # of connection points: 4
#     Edge 8, Type (0, 0), BuildingBlock: ZUJKAS_clean_linker_0, # of connection points: 2
#     Edge 9, Type (0, 0), BuildingBlock: ZUJKAS_clean_linker_0, # of connection points: 2
#     Edge 10, Type (0, 0), BuildingBlock: ZUJKAS_clean_linker_0, # of connection points: 2
#     Edge 11, Type (0, 0), BuildingBlock: ZUJKAS_clean_linker_0, # of connection points: 2
#     Edge 12, Type (0, 0), BuildingBlock: ZUJKAS_clean_linker_0, # of connection points: 2
#     Edge 13, Type (0, 0), BuildingBlock: ZUJKAS_clean_linker_0, # of connection points: 2
#     Edge 14, Type (0, 0), BuildingBlock: ZUJKAS_clean_linker_0, # of connection points: 2
#     Edge 15, Type (0, 0), BuildingBlock: ZUJKAS_clean_linker_0, # of connection points: 2
#     Edge 16, Type (0, 0), BuildingBlock: ZUJKAS_clean_linker_0, # of connection points: 2
#     Edge 17, Type (0, 0), BuildingBlock: ZUJKAS_clean_linker_0, # of connection points: 2
#     Edge 18, Type (0, 0), BuildingBlock: ZUJKAS_clean_linker_0, # of connection points: 2
#     Edge 19, Type (0, 0), BuildingBlock: ZUJKAS_clean_linker_0, # of connection points: 2
#     Edge 20, Type (0, 0), BuildingBlock: ZUJKAS_clean_linker_0, # of connection points: 2
#     Edge 21, Type (0, 0), BuildingBlock: ZUJKAS_clean_linker_0, # of connection points: 2
#     Edge 22, Type (0, 0), BuildingBlock: ZUJKAS_clean_linker_0, # of connection points: 2
#     Edge 23, Type (0, 0), BuildingBlock: ZUJKAS_clean_linker_0, # of connection points: 2
# Relax obj value: 0.001
# Max RMSD: 0.035
# Mean RMSD: 0.025
data_MOF--net-lvt--node1-MUDLON_clean_sbu_0--edge1-ZUJKAS_clean_linker_0
_symmetry_space_group_name_H-M    P1
_symmetry_Int_Tables_number       1
_symmetry_cell_setting            triclinic
loop_
_symmetry_equiv_pos_as_xyz
'x, y, z'
_cell_length_a     54.737479
_cell_length_b     54.628745
_cell_length_c     12.202924
_cell_angle_alpha  89.330538
_cell_angle_beta   89.891013
_cell_angle_gamma 89.955804
loop_
_atom_site_label
_atom_site_type_symbol
_atom_site_fract_x
_atom_site_fract_y
_atom_site_fract_z
_atom_type_partial_charge
Mg0 Mg 1.01366 0.0205 0.55595 0.0
C1 C 0.06048 0.04245 0.45536 0.0
O2 O 0.07035 0.02738 0.52729 0.0
C3 C 0.96764 0.99621 0.46149 0.0
O4 O 0.9585 0.01801 0.48019 0.0
C5 C 0.98343 0.06623 0.58349 0.0
O6 O 0.9951 0.07086 0.49142 0.0
O7 O 0.98817 0.04631 0.63481 0.0
O8 O 0.03729 0.04253 0.44477 0.0
O9 O 0.03757 0.99977 0.66976 0.0
C10 C 0.04474 0.97886 0.63692 0.0
O11 O 0.03705 0.97127 0.54122 0.0
O12 O 0.99036 0.99263 0.47818 0.0
Mg13 Mg 0.26504 0.77403 0.0363 0.0
C14 C 0.22531 0.74522 0.94174 0.0
O15 O 0.21479 0.75796 0.01931 0.0
C16 C 0.30313 0.80905 0.06138 0.0
O17 O 0.29107 0.80738 0.15442 0.0
C18 C 0.23282 0.81479 0.98651 0.0
O19 O 0.24589 0.81024 0.8986 0.0
O20 O 0.23684 0.80181 0.0723 0.0
O21 O 0.24786 0.74893 0.92168 0.0
O22 O 0.28333 0.75021 0.15799 0.0
C23 C 0.28021 0.72708 0.1558 0.0
O24 O 0.26177 0.7184 0.09967 0.0
O25 O 0.29596 0.79607 0.98157 0.0
Mg26 Mg 0.5356 0.01883 0.05323 0.0
C27 C 0.50673 0.9751 0.03214 0.0
O28 O 0.51468 0.98092 0.93356 0.0
C29 C 0.56425 0.06024 0.11047 0.0
O30 O 0.5571 0.06295 0.00829 0.0
C31 C 0.58172 0.99536 0.99365 0.0
O32 O 0.58431 1.00137 0.09687 0.0
O33 O 0.56227 1.00187 0.94399 0.0
O34 O 0.51358 0.98814 0.11232 0.0
O35 O 0.5085 0.04528 0.9945 0.0
C36 C 0.49293 0.04904 0.07024 0.0
O37 O 0.49461 0.0359 0.16084 0.0
O38 O 0.55733 0.04121 0.16328 0.0
Mg39 Mg 0.26901 0.26354 0.11196 0.0
C40 C 0.2186 0.24017 0.12314 0.0
O41 O 0.21537 0.25926 0.18588 0.0
C42 C 0.30598 0.28513 0.94374 0.0
O43 O 0.31532 0.26298 0.94611 0.0
C44 C 0.2602 0.31109 0.23173 0.0
O45 O 0.279 0.31791 0.17178 0.0
O46 O 0.25408 0.2886 0.23335 0.0
O47 O 0.23877 0.23822 0.07113 0.0
O48 O 0.29805 0.23897 0.16645 0.0
C49 C 0.32019 0.24502 0.1825 0.0
O50 O 0.32613 0.26832 0.18112 0.0
O51 O 0.2854 0.28878 0.9899 0.0
Mg52 Mg 0.76433 0.2764 0.5597 0.0
C53 C 0.80831 0.30559 0.58299 0.0
O54 O 0.80218 0.29868 0.68279 0.0
C55 C 0.72462 0.25387 0.42398 0.0
O56 O 0.71266 0.27241 0.46577 0.0
C57 C 0.77925 0.22782 0.66666 0.0
O58 O 0.76088 0.21994 0.60768 0.0
O59 O 0.78252 0.25084 0.67454 0.0
O60 O 0.79518 0.29849 0.5034 0.0
O61 O 0.73533 0.30237 0.60969 0.0
C62 C 0.73679 0.32421 0.57171 0.0
O63 O 0.75685 0.3308 0.52016 0.0
O64 O 0.74755 0.25232 0.43969 0.0
Mg65 Mg 0.76751 0.75856 0.60358 0.0
C66 C 0.80457 0.79356 0.55137 0.0
O67 O 0.80696 0.78605 0.65351 0.0
C68 C 0.73225 0.72016 0.64678 0.0
O69 O 0.74417 0.72459 0.7378 0.0
C70 C 0.80103 0.71715 0.59848 0.0
O71 O 0.78597 0.71395 0.5162 0.0
O72 O 0.7973 0.73511 0.66202 0.0
O73 O 0.78732 0.78431 0.4948 0.0
O74 O 0.74919 0.78424 0.7119 0.0
C75 C 0.73013 0.79251 0.66443 0.0
O76 O 0.72441 0.78373 0.56801 0.0
O77 O 0.73804 0.73259 0.5613 0.0
Mg78 Mg 0.51395 0.51745 0.07275 0.0
C79 C 0.46873 0.48875 0.014 0.0
O80 O 0.46027 0.50383 0.08803 0.0
C81 C 0.54125 0.54617 0.8795 0.0
O82 O 0.52244 0.5409 0.81739 0.0
C83 C 0.54125 0.47399 0.16481 0.0
O84 O 0.53289 0.46566 0.07156 0.0
O85 O 0.53556 0.49575 0.19211 0.0
O86 O 0.49103 0.49075 0.98452 0.0
O87 O 0.48864 0.54437 0.14588 0.0
C88 C 0.48343 0.56339 0.08896 0.0
O89 O 0.49443 0.56656 0.99417 0.0
O90 O 0.54171 0.53834 0.97834 0.0
Mg91 Mg 0.0379 0.52031 0.54048 0.0
C92 C 0.99604 0.48896 0.512 0.0
O93 O 1.00047 0.49926 0.41615 0.0
C94 C 0.0839 0.53532 0.65733 0.0
O95 O 0.09318 0.52016 0.58564 0.0
C96 C 0.06484 0.477 0.46422 0.0
O97 O 0.05128 0.46863 0.54519 0.0
O98 O 0.06246 0.49935 0.43494 0.0
O99 O 1.0096 0.49463 0.59253 0.0
O100 O 0.01633 0.55032 0.46972 0.0
C101 C 0.01831 0.57166 0.50976 0.0
O102 O 0.03636 0.57604 0.57747 0.0
O103 O 0.06077 0.53689 0.666 0.0
H104 H 0.11036 0.04443 0.45091 0.0
H105 H 0.13637 0.07661 0.37386 0.0
H106 H 0.07277 0.11466 0.25252 0.0
H107 H 0.04644 0.08225 0.32885 0.0
H108 H 0.11387 0.11471 0.10232 0.0
H109 H 0.1403 0.14414 0.51966 0.0
H110 H 0.14548 0.11229 0.4931 0.0
H111 H 0.11479 0.12401 0.49557 0.0
C112 C 0.10181 0.05949 0.40703 0.0
C113 C 0.0762 0.06079 0.39718 0.0
C114 C 0.11677 0.07796 0.36323 0.0
C115 C 0.10656 0.09833 0.309 0.0
C116 C 0.08109 0.09919 0.29442 0.0
H117 H 0.17418 0.24025 0.22461 0.0
H118 H 0.14683 0.20581 0.25831 0.0
C119 C 0.06605 0.08063 0.33815 0.0
C120 C 0.12241 0.11919 0.27301 0.0
H121 H 0.161 0.163 0.37101 0.0
C122 C 0.12418 0.12529 0.16097 0.0
C123 C 0.13573 0.13318 0.34953 0.0
C124 C 0.13389 0.12829 0.47129 0.0
C125 C 0.13911 0.14475 0.12363 0.0
C126 C 0.15271 0.15843 0.20018 0.0
C127 C 0.15074 0.15243 0.31211 0.0
C128 C 0.16835 0.17973 0.16762 0.0
C129 C 0.13986 0.15088 0.00291 0.0
C130 C 0.18953 0.17678 0.10347 0.0
C131 C 0.20541 0.19661 0.08389 0.0
C132 C 0.20045 0.21977 0.12843 0.0
C133 C 0.17873 0.22276 0.18898 0.0
C134 C 0.16299 0.20301 0.20862 0.0
H135 H 0.1248 0.14192 0.95753 0.0
H136 H 0.13867 0.17099 0.98937 0.0
H137 H 0.15748 0.14453 0.96815 0.0
H138 H 0.19427 0.15893 0.07207 0.0
H139 H 0.22202 0.19357 0.0376 0.0
H140 H 0.06932 0.98983 0.82823 0.0
H141 H 0.09972 0.96437 0.92465 0.0
H142 H 0.09039 0.90778 0.68505 0.0
H143 H 0.06004 0.93269 0.59005 0.0
H144 H 0.09256 0.88901 0.89577 0.0
H145 H 0.16953 0.95327 0.81604 0.0
H146 H 0.14367 0.96568 0.88744 0.0
H147 H 0.14048 0.95628 0.74767 0.0
C148 C 0.07366 0.9719 0.79659 0.0
C149 C 0.06229 0.96344 0.70079 0.0
C150 C 0.09116 0.95741 0.85145 0.0
C151 C 0.09765 0.93421 0.81143 0.0
C152 C 0.0858 0.92556 0.71769 0.0
H153 H 0.22316 0.84521 0.81443 0.0
H154 H 0.19029 0.87469 0.79322 0.0
C155 C 0.06844 0.93996 0.66307 0.0
C156 C 0.11719 0.91894 0.86368 0.0
H157 H 0.17893 0.9161 0.90436 0.0
C158 C 0.11141 0.89504 0.89919 0.0
C159 C 0.14184 0.92672 0.86745 0.0
C160 C 0.14943 0.95179 0.827 0.0
C161 C 0.12963 0.87848 0.9342 0.0
C162 C 0.15436 0.88608 0.93548 0.0
C163 C 0.15999 0.91029 0.90416 0.0
C164 C 0.17491 0.86848 0.95452 0.0
C165 C 0.12239 0.85257 0.9635 0.0
C166 C 0.17764 0.85515 0.05334 0.0
C167 C 0.19664 0.83792 0.06587 0.0
C168 C 0.21328 0.83382 0.97989 0.0
C169 C 0.21073 0.84769 0.88255 0.0
C170 C 0.19189 0.86472 0.87019 0.0
H171 H 0.10327 0.84847 0.93944 0.0
H172 H 0.13472 0.83926 0.92314 0.0
H173 H 0.12395 0.84981 0.05344 0.0
H174 H 0.16505 0.85799 0.12055 0.0
H175 H 0.1981 0.82765 0.14201 0.0
H176 H 0.49315 0.94219 0.87859 0.0
H177 H 0.45975 0.9128 0.88794 0.0
H178 H 0.44514 0.9334 0.22177 0.0
H179 H 0.47854 0.96338 0.2126 0.0
H180 H 0.45028 0.8728 0.02488 0.0
H181 H 0.37952 0.94509 0.06712 0.0
H182 H 0.41064 0.95189 0.02845 0.0
H183 H 0.40308 0.94554 0.16932 0.0
C184 C 0.48298 0.94043 0.95451 0.0
C185 C 0.48835 0.95534 0.04461 0.0
C186 C 0.4639 0.92354 0.95964 0.0
C187 C 0.44967 0.92122 0.05472 0.0
C188 C 0.45562 0.93526 0.14677 0.0
H189 H 0.32097 0.83832 0.22073 0.0
H190 H 0.35681 0.86457 0.21429 0.0
C191 C 0.47481 0.95223 0.14177 0.0
C192 C 0.42819 0.90465 0.05508 0.0
H193 H 0.36597 0.90407 0.0755 0.0
C194 C 0.43183 0.8796 0.03595 0.0
C195 C 0.40413 0.91364 0.06827 0.0
C196 C 0.39897 0.94053 0.08347 0.0
C197 C 0.41208 0.8632 0.03212 0.0
C198 C 0.38805 0.87218 0.04602 0.0
C199 C 0.38442 0.89724 0.06463 0.0
C200 C 0.36643 0.8558 0.04738 0.0
C201 C 0.41713 0.83633 0.01588 0.0
C202 C 0.35972 0.84223 0.95493 0.0
C203 C 0.33906 0.82704 0.9582 0.0
C204 C 0.32478 0.82529 0.05392 0.0
C205 C 0.33152 0.83914 0.14559 0.0
C206 C 0.35204 0.85422 0.14221 0.0
H207 H 0.43663 0.83171 0.0305 0.0
H208 H 0.40563 0.82495 0.07156 0.0
H209 H 0.41261 0.83142 0.9303 0.0
H210 H 0.37033 0.84354 0.88012 0.0
H211 H 0.33431 0.81668 0.88618 0.0
H212 H 0.36997 0.25121 0.18002 0.0
H213 H 0.40118 0.21976 0.15036 0.0
H214 H 0.34531 0.1642 0.14751 0.0
H215 H 0.31404 0.19537 0.17644 0.0
H216 H 0.41333 0.17724 0.27101 0.0
H217 H 0.38112 0.15437 0.85418 0.0
H218 H 0.37166 0.18175 0.92419 0.0
H219 H 0.35754 0.15283 0.95656 0.0
C220 C 0.36433 0.23227 0.17435 0.0
C221 C 0.33944 0.22586 0.1799 0.0
C222 C 0.38219 0.21434 0.15688 0.0
C223 C 0.3755 0.18973 0.14397 0.0
C224 C 0.35082 0.18316 0.1544 0.0
H225 H 0.45493 0.05655 0.20881 0.0
H226 H 0.42797 0.09191 0.2177 0.0
C227 C 0.33298 0.20101 0.17197 0.0
C228 C 0.39421 0.17082 0.12012 0.0
H229 H 0.40948 0.12642 0.93687 0.0
C230 C 0.41264 0.16631 0.19747 0.0
C231 C 0.39357 0.15683 0.02313 0.0
C232 C 0.37507 0.1618 0.93414 0.0
C233 C 0.42973 0.14742 0.18288 0.0
C234 C 0.42818 0.1325 0.08906 0.0
C235 C 0.41049 0.13773 0.00918 0.0
C236 C 0.44372 0.11042 0.0769 0.0
C237 C 0.44917 0.1434 0.26874 0.0
C238 C 0.46089 0.10855 0.99154 0.0
C239 C 0.47643 0.08813 0.98573 0.0
C240 C 0.47488 0.06928 0.06502 0.0
C241 C 0.45685 0.07082 0.14704 0.0
C242 C 0.44145 0.0911 0.15272 0.0
H243 H 0.45216 0.16009 0.31813 0.0
H244 H 0.44332 0.12846 0.32528 0.0
H245 H 0.46678 0.13798 0.23067 0.0
H246 H 0.46274 0.1232 0.93152 0.0
H247 H 0.49012 0.08749 0.92165 0.0
H248 H 0.97822 0.94696 0.45377 0.0
H249 H 0.94937 0.91304 0.43474 0.0
H250 H 0.89031 0.96454 0.39252 0.0
H251 H 0.9189 0.99846 0.41327 0.0
H252 H 0.87964 0.93107 0.54697 0.0
H253 H 0.91344 0.88295 0.17995 0.0
H254 H 0.93684 0.88736 0.2806 0.0
H255 H 0.92317 0.91352 0.21388 0.0
C256 C 0.95918 0.95109 0.4383 0.0
C257 C 0.95094 0.97552 0.43532 0.0
C258 C 0.94267 0.93162 0.42678 0.0
C259 C 0.9176 0.93612 0.41086 0.0
C260 C 0.90952 0.96051 0.40432 0.0
H261 H 0.80048 0.82331 0.36562 0.0
H262 H 0.82682 0.85847 0.3159 0.0
C263 C 0.92596 0.97994 0.41617 0.0
C264 C 0.89951 0.91561 0.41179 0.0
H265 H 0.88579 0.86037 0.29686 0.0
C266 C 0.88083 0.91584 0.49096 0.0
C267 C 0.90078 0.8957 0.33843 0.0
C268 C 0.91949 0.89492 0.24768 0.0
C269 C 0.86418 0.89638 0.50183 0.0
C270 C 0.86623 0.87595 0.43231 0.0
C271 C 0.88424 0.87603 0.35021 0.0
C272 C 0.85147 0.85347 0.4528 0.0
C273 C 0.84484 0.89744 0.58988 0.0
C274 C 0.85695 0.83875 0.54414 0.0
C275 C 0.84212 0.81889 0.57231 0.0
C276 C 0.82131 0.81311 0.50994 0.0
C277 C 0.81634 0.82723 0.4153 0.0
C278 C 0.83135 0.84731 0.38695 0.0
H279 H 0.84235 0.9163 0.6212 0.0
H280 H 0.82706 0.89074 0.55841 0.0
H281 H 0.85029 0.8854 0.65953 0.0
H282 H 0.87244 0.84304 0.59563 0.0
H283 H 0.84676 0.80836 0.64511 0.0
H284 H 0.94953 0.05964 0.74953 0.0
H285 H 0.91427 0.08594 0.7912 0.0
H286 H 0.93693 0.13684 0.53852 0.0
H287 H 0.97187 0.11089 0.49626 0.0
H288 H 0.91026 0.13835 0.84713 0.0
H289 H 0.86666 0.11591 0.45076 0.0
H290 H 0.89135 0.09802 0.5082 0.0
H291 H 0.89761 0.12652 0.43867 0.0
C292 C 0.94715 0.07658 0.70377 0.0
C293 C 0.96346 0.08299 0.61878 0.0
C294 C 0.92698 0.09159 0.72769 0.0
C295 C 0.92274 0.11319 0.6668 0.0
C296 C 0.93959 0.12009 0.58543 0.0
H297 H 0.82612 0.2379 0.73397 0.0
H298 H 0.86015 0.20899 0.75006 0.0
C299 C 0.95964 0.10519 0.56155 0.0
C300 C 0.90022 0.12807 0.68358 0.0
H301 H 0.84938 0.14884 0.54966 0.0
C302 C 0.89681 0.14051 0.7826 0.0
C303 C 0.8825 0.13067 0.59992 0.0
C304 C 0.88451 0.11692 0.4937 0.0
C305 C 0.87656 0.15608 0.7986 0.0
C306 C 0.8594 0.15949 0.7129 0.0
C307 C 0.86252 0.14642 0.61534 0.0
C308 C 0.83827 0.17674 0.72046 0.0
C309 C 0.87365 0.1686 0.90731 0.0
C310 C 0.81447 0.16839 0.69975 0.0
C311 C 0.795 0.1849 0.68977 0.0
C312 C 0.79882 0.21026 0.69989 0.0
C313 C 0.82242 0.21851 0.72664 0.0
C314 C 0.84195 0.20194 0.73617 0.0
H315 H 0.8837 0.15874 0.97342 0.0
H316 H 0.88121 0.18741 0.90084 0.0
H317 H 0.8541 0.16996 0.93099 0.0
H318 H 0.81109 0.14908 0.68726 0.0
H319 H 0.77712 0.17784 0.66926 0.0
H320 H 0.74164 0.20808 0.3722 0.0
H321 H 0.71716 0.17212 0.32564 0.0
H322 H 0.65178 0.21616 0.3318 0.0
H323 H 0.67593 0.25203 0.37898 0.0
H324 H 0.64883 0.17256 0.45899 0.0
H325 H 0.68242 0.15545 0.036 0.0
H326 H 0.70539 0.15809 0.14034 0.0
H327 H 0.68712 0.18424 0.10396 0.0
C328 C 0.72211 0.21021 0.36155 0.0
C329 C 0.71075 0.23295 0.37928 0.0
C330 C 0.70815 0.18962 0.33516 0.0
C331 C 0.68266 0.19149 0.32533 0.0
C332 C 0.67142 0.21431 0.33951 0.0
H333 H 0.57315 0.10579 0.03086 0.0
H334 H 0.60298 0.13536 0.09415 0.0
C335 C 0.6853 0.23483 0.36589 0.0
C336 C 0.66737 0.16967 0.3039 0.0
H337 H 0.65319 0.12803 0.10777 0.0
C338 C 0.64988 0.16265 0.38262 0.0
C339 C 0.66882 0.15685 0.2042 0.0
C340 C 0.6868 0.16405 0.11565 0.0
C341 C 0.63329 0.14359 0.36293 0.0
C342 C 0.63445 0.13106 0.26234 0.0
C343 C 0.65244 0.1376 0.1851 0.0
C344 C 0.61563 0.11301 0.23005 0.0
C345 C 0.61398 0.13773 0.44762 0.0
C346 C 0.61251 0.09065 0.28668 0.0
C347 C 0.59517 0.07359 0.25089 0.0
C348 C 0.58096 0.07862 0.1574 0.0
C349 C 0.5839 0.10123 0.10273 0.0
C350 C 0.601 0.11818 0.13862 0.0
H351 H 0.61296 0.15186 0.51223 0.0
H352 H 0.59576 0.13613 0.4085 0.0
H353 H 0.61829 0.11991 0.48758 0.0
H354 H 0.62383 0.08617 0.35678 0.0
H355 H 0.59343 0.05625 0.29411 0.0
H356 H 0.62757 0.98535 0.06602 0.0
H357 H 0.65488 0.95286 0.00582 0.0
H358 H 0.60352 0.93336 0.75394 0.0
H359 H 0.5761 0.96624 0.81304 0.0
H360 H 0.6433 0.90417 0.01168 0.0
H361 H 0.66825 0.93281 0.58852 0.0
H362 H 0.65466 0.95356 0.68535 0.0
H363 H 0.63592 0.93204 0.61346 0.0
C364 C 0.62225 0.97447 -0.00363 0.0
C365 C 0.59963 0.97835 0.94436 0.0
C366 C 0.63789 0.95586 0.96226 0.0
C367 C 0.63133 0.9407 0.87521 0.0
C368 C 0.60917 0.94509 0.82014 0.0
H369 H 0.68574 0.80809 0.59374 0.0
H370 H 0.66282 0.84388 0.6518 0.0
C371 C 0.5935 0.96387 0.854 0.0
C372 C 0.64682 0.91922 0.84844 0.0
H373 H 0.6786 0.89205 0.64181 0.0
C374 C 0.6512 0.9016 0.93103 0.0
C375 C 0.65712 0.91591 0.74332 0.0
C376 C 0.65398 0.93468 0.65276 0.0
C377 C 0.665 0.88044 0.91052 0.0
C378 C 0.67502 0.87697 0.80496 0.0
C379 C 0.67091 0.89474 0.72277 0.0
C380 C 0.68874 0.85448 0.77595 0.0
C381 C 0.66807 0.86161 0.0009 0.0
C382 C 0.7109 0.84828 0.82756 0.0
C383 C 0.72412 0.82757 0.79481 0.0
C384 C 0.71546 0.81293 0.70923 0.0
C385 C 0.69303 0.819 0.65964 0.0
C386 C 0.67988 0.83952 0.6925 0.0
H387 H 0.65482 0.86439 0.06872 0.0
H388 H 0.66574 0.84281 0.96894 0.0
H389 H 0.68677 0.86304 0.03519 0.0
H390 H 0.71827 0.85978 0.89115 0.0
H391 H 0.74142 0.8235 0.83393 0.0
H392 H 0.5827 0.56082 0.98648 0.0
H393 H 0.6142 0.58922 0.92163 0.0
H394 H 0.57666 0.59725 0.61313 0.0
H395 H 0.54485 0.56899 0.67779 0.0
H396 H 0.64545 0.58646 0.74072 0.0
H397 H 0.58556 0.66845 0.70681 0.0
H398 H 0.57634 0.64103 0.77974 0.0
H399 H 0.57561 0.64206 0.63261 0.0
C400 C 0.58108 0.56857 0.90472 0.0
C401 C 0.56107 0.56262 0.83772 0.0
C402 C 0.59917 0.58485 0.86767 0.0
C403 C 0.59769 0.59575 0.76302 0.0
C404 C 0.57801 0.58952 0.695 0.0
H405 H 0.69833 0.70863 0.4861 0.0
H406 H 0.66566 0.67759 0.49848 0.0
C407 C 0.55989 0.57318 0.73194 0.0
C408 C 0.61693 0.61343 0.72588 0.0
H409 H 0.62688 0.67358 0.65694 0.0
C410 C 0.64132 0.60546 0.72174 0.0
C411 C 0.61163 0.63825 0.7 0.0
C412 C 0.58592 0.64812 0.70563 0.0
C413 C 0.66049 0.6216 0.69476 0.0
C414 C 0.65533 0.64661 0.67314 0.0
C415 C 0.63087 0.65444 0.67321 0.0
C416 C 0.67522 0.66521 0.66204 0.0
C417 C 0.68622 0.61172 0.69054 0.0
C418 C 0.69124 0.66882 0.74985 0.0
C419 C 0.70969 0.68641 0.7431 0.0
C420 C 0.71271 0.70109 0.64835 0.0
C421 C 0.69664 0.69757 0.55994 0.0
C422 C 0.67794 0.67988 0.56709 0.0
H423 H 0.68639 0.59177 0.67386 0.0
H424 H 0.69721 0.62128 0.62658 0.0
H425 H 0.69513 0.61453 0.77102 0.0
H426 H 0.68928 0.65818 0.82482 0.0
H427 H 0.72156 0.68854 0.81324 0.0
H428 H 0.68805 0.31306 0.60459 0.0
H429 H 0.65277 0.33919 0.55916 0.0
H430 H 0.7014 0.39871 0.47804 0.0
H431 H 0.73651 0.37293 0.5225 0.0
H432 H 0.63661 0.38952 0.62707 0.0
H433 H 0.66352 0.38298 0.18916 0.0
H434 H 0.67516 0.36235 0.29327 0.0
H435 H 0.68731 0.39278 0.27992 0.0
C436 C 0.69119 0.33188 0.5796 0.0
C437 C 0.71517 0.34078 0.56621 0.0
C438 C 0.67101 0.34679 0.55339 0.0
C439 C 0.67446 0.3708 0.51346 0.0
C440 C 0.69828 0.38016 0.50719 0.0
H441 H 0.56962 0.4871 0.34206 0.0
H442 H 0.60075 0.46206 0.43551 0.0
C443 C 0.71836 0.36535 0.53297 0.0
C444 C 0.65361 0.38546 0.46922 0.0
H445 H 0.63151 0.41033 0.23094 0.0
C446 C 0.6354 0.39404 0.54048 0.0
C447 C 0.65192 0.39118 0.35604 0.0
C448 C 0.67037 0.38172 0.2747 0.0
C449 C 0.61577 0.40849 0.50157 0.0
C450 C 0.61443 0.41467 0.3886 0.0
C451 C 0.63254 0.40579 0.31759 0.0
C452 C 0.59409 0.42953 0.34035 0.0
C453 C 0.59641 0.41664 0.58128 0.0
C454 C 0.57996 0.41975 0.25558 0.0
C455 C 0.56238 0.43403 0.20173 0.0
C456 C 0.55841 0.45858 0.23082 0.0
C457 C 0.57207 0.46824 0.31791 0.0
C458 C 0.58982 0.45388 0.37181 0.0
H459 H 0.59679 0.40561 0.65835 0.0
H460 H 0.59964 0.43606 0.60249 0.0
H461 H 0.57793 0.41527 0.54445 0.0
H462 H 0.58285 0.40108 0.22953 0.0
H463 H 0.5522 0.42586 0.1355 0.0
H464 H 0.82157 0.33138 0.397 0.0
H465 H 0.85469 0.36154 0.37917 0.0
H466 H 0.87477 0.34839 0.71626 0.0
H467 H 0.84214 0.31834 0.73455 0.0
H468 H 0.85968 0.40445 0.50728 0.0
H469 H 0.94031 0.34368 0.55416 0.0
H470 H 0.91032 0.33225 0.52069 0.0
H471 H 0.91773 0.33973 0.65981 0.0
C472 C 0.83328 0.33468 0.4667 0.0
C473 C 0.82923 0.32246 0.56711 0.0
C474 C 0.85213 0.35194 0.45652 0.0
C475 C 0.86737 0.35696 0.54606 0.0
C476 C 0.86355 0.34448 0.64557 0.0
H477 H 0.9838 0.46032 0.69107 0.0
H478 H 0.9519 0.42873 0.70116 0.0
C479 C 0.84474 0.3274 0.65596 0.0
C480 C 0.88634 0.37626 0.53857 0.0
H481 H 0.94749 0.38652 0.56957 0.0
C482 C 0.87891 0.40053 0.51983 0.0
C483 C 0.91137 0.37109 0.55617 0.0
C484 C 0.9205 0.34525 0.57288 0.0
C485 C 0.89579 0.41987 0.52044 0.0
C486 C 0.92082 0.41472 0.53838 0.0
C487 C 0.92827 0.39043 0.55665 0.0
C488 C 0.93968 0.43419 0.53407 0.0
C489 C 0.88659 0.44571 0.50438 0.0
C490 C 0.94346 0.44753 0.43677 0.0
C491 C 0.96153 0.46549 0.43088 0.0
C492 C 0.97637 0.47044 0.52203 0.0
C493 C 0.9726 0.45704 0.61969 0.0
C494 C 0.95444 0.43897 0.62544 0.0
H495 H 0.86674 0.44719 0.52235 0.0
H496 H 0.89661 0.45865 0.55754 0.0
H497 H 0.88951 0.45143 0.41779 0.0
H498 H 0.93263 0.44382 0.36464 0.0
H499 H 0.96397 0.47535 0.35411 0.0
H500 H 0.8088 0.67333 0.50184 0.0
H501 H 0.84688 0.65033 0.49063 0.0
H502 H 0.88231 0.7035 0.69485 0.0
H503 H 0.84388 0.72653 0.70809 0.0
H504 H 0.88938 0.66728 0.40016 0.0
H505 H 0.90455 0.63918 0.83372 0.0
H506 H 0.87552 0.6506 0.78517 0.0
H507 H 0.90008 0.67146 0.81246 0.0
C508 C 0.82456 0.67997 0.54602 0.0
C509 C 0.82331 0.70177 0.60593 0.0
C510 C 0.84637 0.66681 0.5392 0.0
C511 C 0.86747 0.6751 0.59205 0.0
C512 C 0.86616 0.6965 0.65483 0.0
H513 H 0.01608 0.61762 0.59491 0.0
H514 H 0.98036 0.64427 0.60717 0.0
C515 C 0.8442 0.70966 0.66233 0.0
C516 C 0.89098 0.66198 0.57525 0.0
H517 H 0.93623 0.63041 0.70786 0.0
C518 C 0.89962 0.65921 0.46751 0.0
C519 C 0.90439 0.65153 0.66309 0.0
C520 C 0.89562 0.65311 0.78009 0.0
C521 C 0.92122 0.64627 0.4452 0.0
C522 C 0.93444 0.63556 0.53283 0.0
C523 C 0.92606 0.63866 0.64073 0.0
C524 C 0.9567 0.62055 0.51463 0.0
C525 C 0.92986 0.6444 0.32812 0.0
C526 C 0.95542 0.59853 0.45653 0.0
C527 C 0.97588 0.5832 0.44906 0.0
C528 C 0.99796 0.58955 0.50023 0.0
C529 C 0.9994 0.61212 0.55445 0.0
C530 C 0.97896 0.62737 0.56201 0.0
H531 H 0.92152 0.65877 0.27491 0.0
H532 H 0.95006 0.64598 0.32288 0.0
H533 H 0.92454 0.6263 0.29549 0.0
H534 H 0.93834 0.59272 0.42064 0.0
H535 H 0.97405 0.56591 0.40739 0.0
H536 H 0.41944 0.48448 0.03922 0.0
H537 H 0.39348 0.44961 -0.00364 0.0
H538 H 0.45543 0.41185 0.85978 0.0
H539 H 0.48178 0.44686 0.9033 0.0
H540 H 0.38306 0.42531 0.79664 0.0
H541 H 0.42953 0.36411 0.09856 0.0
H542 H 0.43368 0.39689 0.09769 0.0
H543 H 0.44878 0.37849 -0.00286 0.0
C544 C 0.42761 0.46888 -0.00079 0.0
C545 C 0.4528 0.46847 0.97545 0.0
C546 C 0.41267 0.44893 0.97453 0.0
C547 C 0.4225 0.42791 0.92631 0.0
C548 C 0.44747 0.42771 0.89856 0.0
H549 H 0.35268 0.28428 0.86197 0.0
H550 H 0.38092 0.31868 0.84105 0.0
C551 C 0.46249 0.44782 0.92273 0.0
C552 C 0.40658 0.40608 0.90962 0.0
H553 H 0.39646 0.34762 0.00207 0.0
C554 C 0.38609 0.40825 0.8409 0.0
C555 C 0.41047 0.38378 0.96731 0.0
C556 C 0.43167 0.38057 0.04504 0.0
C557 C 0.36938 0.38884 0.8288 0.0
C558 C 0.37287 0.36679 0.88907 0.0
C559 C 0.3937 0.36445 0.95571 0.0
C560 C 0.35474 0.3463 0.88855 0.0
C561 C 0.34827 0.39215 0.75077 0.0
C562 C 0.33034 0.35023 0.92028 0.0
C563 C 0.31402 0.33056 0.93142 0.0
C564 C 0.32177 0.30638 0.91252 0.0
C565 C 0.34596 0.3026 0.8769 0.0
C566 C 0.36223 0.32229 0.86539 0.0
H567 H 0.35252 0.40597 0.68601 0.0
H568 H 0.34339 0.37465 0.71093 0.0
H569 H 0.33211 0.39876 0.79684 0.0
H570 H 0.32413 0.36842 0.9411 0.0
H571 H 0.29563 0.33424 0.95966 0.0
H572 H 0.32742 0.7382 0.21526 0.0
H573 H 0.36183 0.70961 0.23156 0.0
H574 H 0.31274 0.64884 0.1891 0.0
H575 H 0.27836 0.67718 0.17146 0.0
H576 H 0.37361 0.66684 0.36419 0.0
H577 H 0.35987 0.64471 0.92543 0.0
H578 H 0.3453 0.67052 0.98939 0.0
H579 H 0.33346 0.64016 0.01078 0.0
C580 C 0.32382 0.71873 0.21205 0.0
C581 C 0.3001 0.71005 0.19069 0.0
C582 C 0.34356 0.70238 0.22115 0.0
C583 C 0.33997 0.67708 0.2092 0.0
C584 C 0.31605 0.6683 0.19647 0.0
H585 H 0.44996 0.55915 0.25817 0.0
H586 H 0.41556 0.58668 0.29745 0.0
C587 C 0.29637 0.68457 0.18694 0.0
C588 C 0.36125 0.66014 0.19995 0.0
H589 H 0.39015 0.62229 0.01999 0.0
C590 C 0.37723 0.65703 0.28913 0.0
C591 C 0.36618 0.64758 0.10144 0.0
C592 C 0.35047 0.651 0.00084 0.0
C593 C 0.39784 0.64157 0.28253 0.0
C594 C 0.40251 0.62874 0.18444 0.0
C595 C 0.38653 0.63195 0.09548 0.0
C596 C 0.42446 0.61287 0.16899 0.0
C597 C 0.41481 0.63957 0.37941 0.0
C598 C 0.44094 0.61832 0.08393 0.0
C599 C 0.46042 0.60261 0.06103 0.0
C600 C 0.46398 0.58092 0.12238 0.0
C601 C 0.44787 0.57575 0.20974 0.0
C602 C 0.42823 0.59154 0.23255 0.0
H603 H 0.41175 0.65454 0.4388 0.0
H604 H 0.41159 0.62187 0.42253 0.0
H605 H 0.43418 0.64002 0.35231 0.0
H606 H 0.43847 0.63461 0.03365 0.0
H607 H 0.47244 0.60731 0.9934 0.0
H608 H 0.24363 0.70586 0.82918 0.0
H609 H 0.22107 0.66918 0.7735 0.0
H610 H 0.15421 0.70092 0.89412 0.0
H611 H 0.17636 0.73746 0.94824 0.0
H612 H 0.19459 0.63828 0.91679 0.0
H613 H 0.13413 0.67634 0.59357 0.0
H614 H 0.16102 0.69219 0.64059 0.0
H615 H 0.13306 0.69344 0.71813 0.0
C616 C 0.22404 0.70522 0.84135 0.0
C617 C 0.21178 0.72458 0.8929 0.0
C618 C 0.21121 0.68421 0.81019 0.0
C619 C 0.18592 0.68242 0.82877 0.0
C620 C 0.17361 0.70206 0.87711 0.0
H621 H 0.07035 0.5757 0.77466 0.0
H622 H 0.09632 0.61025 0.82472 0.0
C623 C 0.18636 0.72292 0.90851 0.0
C624 C 0.17245 0.65952 0.80519 0.0
H625 H 0.12281 0.63744 0.66934 0.0
C626 C 0.17907 0.63798 0.8617 0.0
C627 C 0.15212 0.65923 0.73385 0.0
C628 C 0.14478 0.68148 0.66724 0.0
C629 C 0.16541 0.61635 0.85142 0.0
C630 C 0.14479 0.61622 0.78168 0.0
C631 C 0.13845 0.63765 0.72378 0.0
C632 C 0.12977 0.59397 0.76506 0.0
C633 C 0.17271 0.59404 0.91772 0.0
C634 C 0.14006 0.57312 0.71732 0.0
C635 C 0.1253 0.55332 0.68902 0.0
C636 C 0.0999 0.55405 0.70707 0.0
C637 C 0.08982 0.57448 0.75985 0.0
C638 C 0.10462 0.5943 0.78802 0.0
H639 H 0.18463 0.59889 0.98776 0.0
H640 H 0.15638 0.58424 0.94974 0.0
H641 H 0.18301 0.58132 0.86451 0.0
H642 H 0.15933 0.5726 0.69725 0.0
H643 H 0.13367 0.53792 0.64828 0.0
H644 H 0.26439 0.36089 0.21503 0.0
H645 H 0.23333 0.3915 0.2581 0.0
H646 H 0.18615 0.33468 0.38501 0.0
H647 H 0.21712 0.30391 0.34278 0.0
H648 H 0.18601 0.39198 0.16735 0.0
H649 H 0.18248 0.38752 0.62129 0.0
H650 H 0.20787 0.37561 0.5435 0.0
H651 H 0.18015 0.3582 0.55711 0.0
C652 C 0.24764 0.3549 0.25431 0.0
C653 C 0.24327 0.32988 0.27533 0.0
C654 C 0.22985 0.37245 0.27836 0.0
C655 C 0.20747 0.36541 0.3251 0.0
C656 C 0.20343 0.34059 0.35037 0.0
H657 H 0.06856 0.42762 0.48281 0.0
H658 H 0.10373 0.40203 0.44016 0.0
C659 C 0.22117 0.32299 0.32601 0.0
C660 C 0.18767 0.38367 0.34013 0.0
H661 H 0.14947 0.40794 0.53173 0.0
C662 C 0.17816 0.39571 0.24712 0.0
C663 C 0.1775 0.38849 0.44419 0.0
C664 C 0.18764 0.37697 0.54744 0.0
C665 C 0.15811 0.41171 0.25492 0.0
C666 C 0.14756 0.41606 0.35876 0.0
C667 C 0.15749 0.40449 0.45202 0.0
C668 C 0.12552 0.43162 0.37288 0.0
C669 C 0.14779 0.42306 0.15163 0.0
C670 C 0.1258 0.45676 0.34677 0.0
C671 C 0.1055 0.47152 0.37038 0.0
C672 C 0.08476 0.46136 0.42161 0.0
C673 C 0.08428 0.43605 0.44374 0.0
C674 C 0.10441 0.42137 0.4197 0.0
H675 H 0.15444 0.41367 0.07698 0.0
H676 H 0.12751 0.4225 0.1526 0.0
H677 H 0.15349 0.44252 0.14614 0.0
H678 H 0.14203 0.46515 0.31208 0.0
H679 H 0.10652 0.491 0.35342 0.0
loop_
_geom_bond_atom_site_label_1
_geom_bond_atom_site_label_2
_geom_bond_distance
_geom_bond_site_symmetry_2
_ccdc_geom_bond_type
Mg0 O7 2.141 1_455 S
Mg0 O8 2.048 . S
Mg0 O9 2.048 1_545 S
Mg0 O12 2.141 1_445 S
C1 O2 1.313 . S
C1 O8 1.195 . S
O2 C1 1.313 . S
C3 O4 1.245 . S
C3 O12 1.289 . S
O4 C3 1.245 . S
C5 O6 1.245 . S
C5 O7 1.289 . S
O6 C5 1.245 . S
O7 Mg0 2.141 1_655 S
O7 C5 1.289 . S
O8 Mg0 2.048 . S
O8 C1 1.195 . S
O9 Mg0 2.048 1_565 S
O9 C10 1.195 . S
C10 O9 1.195 . S
C10 O11 1.313 . S
O11 C10 1.313 . S
O12 Mg0 2.141 1_665 S
O12 C3 1.289 . S
Mg13 O20 2.141 . S
Mg13 O21 2.048 . S
Mg13 O22 2.048 . S
Mg13 O25 2.141 . S
C14 O15 1.313 . S
C14 O21 1.195 . S
O15 C14 1.313 . S
C16 O17 1.245 . S
C16 O25 1.289 . S
O17 C16 1.245 . S
C18 O19 1.245 . S
C18 O20 1.289 . S
O19 C18 1.245 . S
O20 Mg13 2.141 . S
O20 C18 1.289 . S
O21 Mg13 2.048 . S
O21 C14 1.195 . S
O22 Mg13 2.048 . S
O22 C23 1.195 . S
C23 O22 1.195 . S
C23 O24 1.313 . S
O24 C23 1.313 . S
O25 Mg13 2.141 . S
O25 C16 1.289 . S
Mg26 O33 2.141 . S
Mg26 O34 2.048 . S
Mg26 O35 2.048 1_565 S
Mg26 O38 2.141 1_565 S
C27 O28 1.313 1_554 S
C27 O34 1.195 . S
O28 C27 1.313 1_556 S
C29 O30 1.245 . S
C29 O38 1.289 . S
O30 C29 1.245 . S
C31 O32 1.245 . S
C31 O33 1.289 . S
O32 C31 1.245 . S
O33 Mg26 2.141 . S
O33 C31 1.289 . S
O34 Mg26 2.048 . S
O34 C27 1.195 . S
O35 Mg26 2.048 1_545 S
O35 C36 1.195 . S
C36 O35 1.195 . S
C36 O37 1.313 . S
O37 C36 1.313 . S
O38 Mg26 2.141 1_545 S
O38 C29 1.289 . S
Mg39 O46 2.141 . S
Mg39 O47 2.048 . S
Mg39 O48 2.048 . S
Mg39 O51 2.141 . S
C40 O41 1.313 . S
C40 O47 1.195 . S
O41 C40 1.313 . S
C42 O43 1.245 . S
C42 O51 1.289 . S
O43 C42 1.245 . S
C44 O45 1.245 . S
C44 O46 1.289 . S
O45 C44 1.245 . S
O46 Mg39 2.141 . S
O46 C44 1.289 . S
O47 Mg39 2.048 . S
O47 C40 1.195 . S
O48 Mg39 2.048 . S
O48 C49 1.195 . S
C49 O48 1.195 . S
C49 O50 1.313 . S
O50 C49 1.313 . S
O51 Mg39 2.141 . S
O51 C42 1.289 . S
Mg52 O59 2.141 . S
Mg52 O60 2.048 . S
Mg52 O61 2.048 . S
Mg52 O64 2.141 . S
C53 O54 1.313 . S
C53 O60 1.195 . S
O54 C53 1.313 . S
C55 O56 1.245 . S
C55 O64 1.289 . S
O56 C55 1.245 . S
C57 O58 1.245 . S
C57 O59 1.289 . S
O58 C57 1.245 . S
O59 Mg52 2.141 . S
O59 C57 1.289 . S
O60 Mg52 2.048 . S
O60 C53 1.195 . S
O61 Mg52 2.048 . S
O61 C62 1.195 . S
C62 O61 1.195 . S
C62 O63 1.313 . S
O63 C62 1.313 . S
O64 Mg52 2.141 . S
O64 C55 1.289 . S
Mg65 O72 2.141 . S
Mg65 O73 2.048 . S
Mg65 O74 2.048 . S
Mg65 O77 2.141 . S
C66 O67 1.313 . S
C66 O73 1.195 . S
O67 C66 1.313 . S
C68 O69 1.245 . S
C68 O77 1.289 . S
O69 C68 1.245 . S
C70 O71 1.245 . S
C70 O72 1.289 . S
O71 C70 1.245 . S
O72 Mg65 2.141 . S
O72 C70 1.289 . S
O73 Mg65 2.048 . S
O73 C66 1.195 . S
O74 Mg65 2.048 . S
O74 C75 1.195 . S
C75 O74 1.195 . S
C75 O76 1.313 . S
O76 C75 1.313 . S
O77 Mg65 2.141 . S
O77 C68 1.289 . S
Mg78 O85 2.141 . S
Mg78 O86 2.048 . S
Mg78 O87 2.048 . S
Mg78 O90 2.141 . S
C79 O80 1.313 1_554 S
C79 O86 1.195 . S
O80 C79 1.313 1_556 S
C81 O82 1.245 . S
C81 O90 1.289 1_556 S
O82 C81 1.245 . S
C83 O84 1.245 1_554 S
C83 O85 1.289 . S
O84 C83 1.245 1_556 S
O85 Mg78 2.141 . S
O85 C83 1.289 . S
O86 Mg78 2.048 . S
O86 C79 1.195 . S
O87 Mg78 2.048 . S
O87 C88 1.195 1_554 S
C88 O87 1.195 1_556 S
C88 O89 1.313 . S
O89 C88 1.313 . S
O90 Mg78 2.141 . S
O90 C81 1.289 1_554 S
Mg91 O98 2.141 . S
Mg91 O99 2.048 1_455 S
Mg91 O100 2.048 1_455 S
Mg91 O103 2.141 . S
C92 O93 1.313 . S
C92 O99 1.195 . S
O93 C92 1.313 . S
C94 O95 1.245 . S
C94 O103 1.289 . S
O95 C94 1.245 . S
C96 O97 1.245 . S
C96 O98 1.289 . S
O97 C96 1.245 . S
O98 Mg91 2.141 . S
O98 C96 1.289 . S
O99 Mg91 2.048 1_655 S
O99 C92 1.195 . S
O100 Mg91 2.048 1_655 S
O100 C101 1.195 . S
C101 O100 1.195 . S
C101 O102 1.313 . S
O102 C101 1.313 . S
O103 Mg91 2.141 . S
O103 C94 1.289 . S
H104 C112 0.929 . S
H105 C114 0.930 . S
H106 C116 0.930 . S
H107 C119 0.929 . S
H108 C122 0.930 . S
H109 C124 0.960 . S
H110 C124 0.960 . S
H111 C124 0.960 . S
C112 H104 0.929 . S
C112 C113 1.377 . S
C112 C114 1.384 . S
C113 C112 1.377 . S
C113 C119 1.390 . S
C114 H105 0.930 . S
C114 C112 1.384 . S
C114 C115 1.372 . S
C115 C114 1.372 . S
C115 C116 1.400 . S
C115 C120 1.490 . S
C116 H106 0.930 . S
C116 C115 1.400 . S
C116 C119 1.386 . S
H117 C133 0.930 . S
H118 C134 0.931 . S
C119 H107 0.929 . S
C119 C113 1.390 . S
C119 C116 1.386 . S
C120 C115 1.490 . S
C120 C122 1.395 . S
C120 C123 1.403 . S
H121 C127 0.930 . S
C122 H108 0.930 . S
C122 C120 1.395 . S
C122 C125 1.403 . S
C123 C120 1.403 . S
C123 C124 1.524 . S
C123 C127 1.400 . S
C124 H109 0.960 . S
C124 H110 0.960 . S
C124 H111 0.960 . S
C124 C123 1.524 . S
C125 C122 1.403 . S
C125 C126 1.392 . S
C125 C129 1.495 . S
C126 C125 1.392 . S
C126 C127 1.385 . S
C126 C128 1.478 . S
C127 H121 0.930 . S
C127 C123 1.400 . S
C127 C126 1.385 . S
C128 C126 1.478 . S
C128 C130 1.381 . S
C128 C134 1.383 . S
C129 C125 1.495 . S
C129 H135 0.959 . S
C129 H136 0.961 . S
C129 H137 0.960 . S
C130 C128 1.381 . S
C130 C131 1.394 . S
C130 H138 0.930 . S
C131 C130 1.394 . S
C131 C132 1.383 . S
C131 H139 0.929 . S
C132 C131 1.383 . S
C132 C133 1.377 . S
C133 H117 0.930 . S
C133 C132 1.377 . S
C133 C134 1.379 . S
C134 H118 0.931 . S
C134 C128 1.383 . S
C134 C133 1.379 . S
H135 C129 0.959 . S
H136 C129 0.961 . S
H137 C129 0.960 . S
H138 C130 0.930 . S
H139 C131 0.929 . S
H140 C148 0.929 . S
H141 C150 0.930 . S
H142 C152 0.930 . S
H143 C155 0.929 . S
H144 C158 0.930 . S
H145 C160 0.960 . S
H146 C160 0.960 . S
H147 C160 0.960 . S
C148 H140 0.929 . S
C148 C149 1.377 . S
C148 C150 1.384 . S
C149 C148 1.377 . S
C149 C155 1.390 . S
C150 H141 0.930 . S
C150 C148 1.384 . S
C150 C151 1.372 . S
C151 C150 1.372 . S
C151 C152 1.400 . S
C151 C156 1.490 . S
C152 H142 0.930 . S
C152 C151 1.400 . S
C152 C155 1.386 . S
H153 C169 0.930 . S
H154 C170 0.931 . S
C155 H143 0.929 . S
C155 C149 1.390 . S
C155 C152 1.386 . S
C156 C151 1.490 . S
C156 C158 1.395 . S
C156 C159 1.403 . S
H157 C163 0.930 . S
C158 H144 0.930 . S
C158 C156 1.395 . S
C158 C161 1.403 . S
C159 C156 1.403 . S
C159 C160 1.524 . S
C159 C163 1.400 . S
C160 H145 0.960 . S
C160 H146 0.960 . S
C160 H147 0.960 . S
C160 C159 1.524 . S
C161 C158 1.403 . S
C161 C162 1.392 . S
C161 C165 1.495 . S
C162 C161 1.392 . S
C162 C163 1.385 . S
C162 C164 1.478 . S
C163 H157 0.930 . S
C163 C159 1.400 . S
C163 C162 1.385 . S
C164 C162 1.478 . S
C164 C166 1.381 . S
C164 C170 1.383 . S
C165 C161 1.495 . S
C165 H171 0.959 . S
C165 H172 0.961 . S
C165 H173 0.960 . S
C166 C164 1.381 . S
C166 C167 1.394 . S
C166 H174 0.930 . S
C167 C166 1.394 . S
C167 C168 1.383 . S
C167 H175 0.929 . S
C168 C167 1.383 . S
C168 C169 1.377 . S
C169 H153 0.930 . S
C169 C168 1.377 . S
C169 C170 1.379 . S
C170 H154 0.931 . S
C170 C164 1.383 . S
C170 C169 1.379 . S
H171 C165 0.959 . S
H172 C165 0.961 . S
H173 C165 0.960 . S
H174 C166 0.930 . S
H175 C167 0.929 . S
H176 C184 0.929 . S
H177 C186 0.930 . S
H178 C188 0.930 . S
H179 C191 0.929 . S
H180 C194 0.930 . S
H181 C196 0.960 . S
H182 C196 0.960 . S
H183 C196 0.960 . S
C184 H176 0.929 . S
C184 C185 1.377 1_556 S
C184 C186 1.384 . S
C185 C184 1.377 1_554 S
C185 C191 1.390 . S
C186 H177 0.930 . S
C186 C184 1.384 . S
C186 C187 1.372 1_556 S
C187 C186 1.372 1_554 S
C187 C188 1.400 . S
C187 C192 1.490 1_554 S
C188 H178 0.930 . S
C188 C187 1.400 . S
C188 C191 1.386 . S
H189 C205 0.930 1_554 S
H190 C206 0.931 . S
C191 H179 0.929 . S
C191 C185 1.390 . S
C191 C188 1.386 . S
C192 C187 1.490 1_556 S
C192 C194 1.395 . S
C192 C195 1.403 1_556 S
H193 C199 0.930 . S
C194 H180 0.930 . S
C194 C192 1.395 . S
C194 C197 1.403 . S
C195 C192 1.403 1_554 S
C195 C196 1.524 . S
C195 C199 1.400 . S
C196 H181 0.960 . S
C196 H182 0.960 . S
C196 H183 0.960 . S
C196 C195 1.524 . S
C197 C194 1.403 . S
C197 C198 1.392 . S
C197 C201 1.495 . S
C198 C197 1.392 . S
C198 C199 1.385 1_556 S
C198 C200 1.478 . S
C199 H193 0.930 . S
C199 C195 1.400 . S
C199 C198 1.385 1_554 S
C200 C198 1.478 . S
C200 C202 1.381 . S
C200 C206 1.383 1_556 S
C201 C197 1.495 . S
C201 H207 0.959 . S
C201 H208 0.961 . S
C201 H209 0.960 . S
C202 C200 1.381 . S
C202 C203 1.394 . S
C202 H210 0.930 . S
C203 C202 1.394 . S
C203 C204 1.383 . S
C203 H211 0.929 . S
C204 C203 1.383 . S
C204 C205 1.377 . S
C205 H189 0.930 1_556 S
C205 C204 1.377 . S
C205 C206 1.379 1_556 S
C206 H190 0.931 . S
C206 C200 1.383 1_554 S
C206 C205 1.379 1_554 S
H207 C201 0.959 . S
H208 C201 0.961 . S
H209 C201 0.960 . S
H210 C202 0.930 . S
H211 C203 0.929 . S
H212 C220 0.929 . S
H213 C222 0.930 . S
H214 C224 0.930 . S
H215 C227 0.929 . S
H216 C230 0.930 . S
H217 C232 0.960 1_556 S
H218 C232 0.960 . S
H219 C232 0.960 1_556 S
C220 H212 0.929 . S
C220 C221 1.377 . S
C220 C222 1.384 . S
C221 C220 1.377 . S
C221 C227 1.390 . S
C222 H213 0.930 . S
C222 C220 1.384 . S
C222 C223 1.372 . S
C223 C222 1.372 . S
C223 C224 1.400 . S
C223 C228 1.490 . S
C224 H214 0.930 . S
C224 C223 1.400 . S
C224 C227 1.386 . S
H225 C241 0.930 . S
H226 C242 0.931 . S
C227 H215 0.929 . S
C227 C221 1.390 . S
C227 C224 1.386 . S
C228 C223 1.490 . S
C228 C230 1.395 . S
C228 C231 1.403 . S
H229 C235 0.930 . S
C230 H216 0.930 . S
C230 C228 1.395 . S
C230 C233 1.403 . S
C231 C228 1.403 . S
C231 C232 1.524 . S
C231 C235 1.400 . S
C232 H217 0.960 1_554 S
C232 H218 0.960 . S
C232 H219 0.960 1_554 S
C232 C231 1.524 . S
C233 C230 1.403 . S
C233 C234 1.392 . S
C233 C237 1.495 . S
C234 C233 1.392 . S
C234 C235 1.385 . S
C234 C236 1.478 . S
C235 H229 0.930 . S
C235 C231 1.400 . S
C235 C234 1.385 . S
C236 C234 1.478 . S
C236 C238 1.381 . S
C236 C242 1.383 . S
C237 C233 1.495 . S
C237 H243 0.959 . S
C237 H244 0.961 . S
C237 H245 0.960 . S
C238 C236 1.381 . S
C238 C239 1.394 . S
C238 H246 0.930 . S
C239 C238 1.394 . S
C239 C240 1.383 . S
C239 H247 0.929 . S
C240 C239 1.383 . S
C240 C241 1.377 . S
C241 H225 0.930 . S
C241 C240 1.377 . S
C241 C242 1.379 . S
C242 H226 0.931 . S
C242 C236 1.383 . S
C242 C241 1.379 . S
H243 C237 0.959 . S
H244 C237 0.961 . S
H245 C237 0.960 . S
H246 C238 0.930 . S
H247 C239 0.929 . S
H248 C256 0.929 . S
H249 C258 0.930 . S
H250 C260 0.930 . S
H251 C263 0.929 . S
H252 C266 0.930 . S
H253 C268 0.960 . S
H254 C268 0.960 . S
H255 C268 0.960 . S
C256 H248 0.929 . S
C256 C257 1.377 . S
C256 C258 1.384 . S
C257 C256 1.377 . S
C257 C263 1.390 . S
C258 H249 0.930 . S
C258 C256 1.384 . S
C258 C259 1.372 . S
C259 C258 1.372 . S
C259 C260 1.400 . S
C259 C264 1.490 . S
C260 H250 0.930 . S
C260 C259 1.400 . S
C260 C263 1.386 . S
H261 C277 0.930 . S
H262 C278 0.931 . S
C263 H251 0.929 . S
C263 C257 1.390 . S
C263 C260 1.386 . S
C264 C259 1.490 . S
C264 C266 1.395 . S
C264 C267 1.403 . S
H265 C271 0.930 . S
C266 H252 0.930 . S
C266 C264 1.395 . S
C266 C269 1.403 . S
C267 C264 1.403 . S
C267 C268 1.524 . S
C267 C271 1.400 . S
C268 H253 0.960 . S
C268 H254 0.960 . S
C268 H255 0.960 . S
C268 C267 1.524 . S
C269 C266 1.403 . S
C269 C270 1.392 . S
C269 C273 1.495 . S
C270 C269 1.392 . S
C270 C271 1.385 . S
C270 C272 1.478 . S
C271 H265 0.930 . S
C271 C267 1.400 . S
C271 C270 1.385 . S
C272 C270 1.478 . S
C272 C274 1.381 . S
C272 C278 1.383 . S
C273 C269 1.495 . S
C273 H279 0.959 . S
C273 H280 0.961 . S
C273 H281 0.960 . S
C274 C272 1.381 . S
C274 C275 1.394 . S
C274 H282 0.930 . S
C275 C274 1.394 . S
C275 C276 1.383 . S
C275 H283 0.929 . S
C276 C275 1.383 . S
C276 C277 1.377 . S
C277 H261 0.930 . S
C277 C276 1.377 . S
C277 C278 1.379 . S
C278 H262 0.931 . S
C278 C272 1.383 . S
C278 C277 1.379 . S
H279 C273 0.959 . S
H280 C273 0.961 . S
H281 C273 0.960 . S
H282 C274 0.930 . S
H283 C275 0.929 . S
H284 C292 0.929 . S
H285 C294 0.930 . S
H286 C296 0.930 . S
H287 C299 0.929 . S
H288 C302 0.930 . S
H289 C304 0.960 . S
H290 C304 0.960 . S
H291 C304 0.960 . S
C292 H284 0.929 . S
C292 C293 1.377 . S
C292 C294 1.384 . S
C293 C292 1.377 . S
C293 C299 1.390 . S
C294 H285 0.930 . S
C294 C292 1.384 . S
C294 C295 1.372 . S
C295 C294 1.372 . S
C295 C296 1.400 . S
C295 C300 1.490 . S
C296 H286 0.930 . S
C296 C295 1.400 . S
C296 C299 1.386 . S
H297 C313 0.930 . S
H298 C314 0.931 . S
C299 H287 0.929 . S
C299 C293 1.390 . S
C299 C296 1.386 . S
C300 C295 1.490 . S
C300 C302 1.395 . S
C300 C303 1.403 . S
H301 C307 0.930 . S
C302 H288 0.930 . S
C302 C300 1.395 . S
C302 C305 1.403 . S
C303 C300 1.403 . S
C303 C304 1.524 . S
C303 C307 1.400 . S
C304 H289 0.960 . S
C304 H290 0.960 . S
C304 H291 0.960 . S
C304 C303 1.524 . S
C305 C302 1.403 . S
C305 C306 1.392 . S
C305 C309 1.495 . S
C306 C305 1.392 . S
C306 C307 1.385 . S
C306 C308 1.478 . S
C307 H301 0.930 . S
C307 C303 1.400 . S
C307 C306 1.385 . S
C308 C306 1.478 . S
C308 C310 1.381 . S
C308 C314 1.383 . S
C309 C305 1.495 . S
C309 H315 0.959 . S
C309 H316 0.961 . S
C309 H317 0.960 . S
C310 C308 1.381 . S
C310 C311 1.394 . S
C310 H318 0.930 . S
C311 C310 1.394 . S
C311 C312 1.383 . S
C311 H319 0.929 . S
C312 C311 1.383 . S
C312 C313 1.377 . S
C313 H297 0.930 . S
C313 C312 1.377 . S
C313 C314 1.379 . S
C314 H298 0.931 . S
C314 C308 1.383 . S
C314 C313 1.379 . S
H315 C309 0.959 . S
H316 C309 0.961 . S
H317 C309 0.960 . S
H318 C310 0.930 . S
H319 C311 0.929 . S
H320 C328 0.929 . S
H321 C330 0.930 . S
H322 C332 0.930 . S
H323 C335 0.929 . S
H324 C338 0.930 . S
H325 C340 0.960 . S
H326 C340 0.960 . S
H327 C340 0.960 . S
C328 H320 0.929 . S
C328 C329 1.377 . S
C328 C330 1.384 . S
C329 C328 1.377 . S
C329 C335 1.390 . S
C330 H321 0.930 . S
C330 C328 1.384 . S
C330 C331 1.372 . S
C331 C330 1.372 . S
C331 C332 1.400 . S
C331 C336 1.490 . S
C332 H322 0.930 . S
C332 C331 1.400 . S
C332 C335 1.386 . S
H333 C349 0.930 . S
H334 C350 0.931 . S
C335 H323 0.929 . S
C335 C329 1.390 . S
C335 C332 1.386 . S
C336 C331 1.490 . S
C336 C338 1.395 . S
C336 C339 1.403 . S
H337 C343 0.930 . S
C338 H324 0.930 . S
C338 C336 1.395 . S
C338 C341 1.403 . S
C339 C336 1.403 . S
C339 C340 1.524 . S
C339 C343 1.400 . S
C340 H325 0.960 . S
C340 H326 0.960 . S
C340 H327 0.960 . S
C340 C339 1.524 . S
C341 C338 1.403 . S
C341 C342 1.392 . S
C341 C345 1.495 . S
C342 C341 1.392 . S
C342 C343 1.385 . S
C342 C344 1.478 . S
C343 H337 0.930 . S
C343 C339 1.400 . S
C343 C342 1.385 . S
C344 C342 1.478 . S
C344 C346 1.381 . S
C344 C350 1.383 . S
C345 C341 1.495 . S
C345 H351 0.959 . S
C345 H352 0.961 . S
C345 H353 0.960 . S
C346 C344 1.381 . S
C346 C347 1.394 . S
C346 H354 0.930 . S
C347 C346 1.394 . S
C347 C348 1.383 . S
C347 H355 0.929 . S
C348 C347 1.383 . S
C348 C349 1.377 . S
C349 H333 0.930 . S
C349 C348 1.377 . S
C349 C350 1.379 . S
C350 H334 0.931 . S
C350 C344 1.383 . S
C350 C349 1.379 . S
H351 C345 0.959 . S
H352 C345 0.961 . S
H353 C345 0.960 . S
H354 C346 0.930 . S
H355 C347 0.929 . S
H356 C364 0.929 1_556 S
H357 C366 0.930 . S
H358 C368 0.930 . S
H359 C371 0.929 . S
H360 C374 0.930 . S
H361 C376 0.960 . S
H362 C376 0.960 . S
H363 C376 0.960 . S
C364 H356 0.929 1_554 S
C364 C365 1.377 . S
C364 C366 1.384 1_554 S
C365 C364 1.377 . S
C365 C371 1.390 . S
C366 H357 0.930 . S
C366 C364 1.384 1_556 S
C366 C367 1.372 1_556 S
C367 C366 1.372 1_554 S
C367 C368 1.400 . S
C367 C372 1.490 . S
C368 H358 0.930 . S
C368 C367 1.400 . S
C368 C371 1.386 . S
H369 C385 0.930 1_554 S
H370 C386 0.931 1_554 S
C371 H359 0.929 . S
C371 C365 1.390 . S
C371 C368 1.386 . S
C372 C367 1.490 . S
C372 C374 1.395 . S
C372 C375 1.403 1_554 S
H373 C379 0.930 . S
C374 H360 0.930 . S
C374 C372 1.395 . S
C374 C377 1.403 . S
C375 C372 1.403 1_556 S
C375 C376 1.524 . S
C375 C379 1.400 . S
C376 H361 0.960 . S
C376 H362 0.960 . S
C376 H363 0.960 . S
C376 C375 1.524 . S
C377 C374 1.403 . S
C377 C378 1.392 1_554 S
C377 C381 1.495 . S
C378 C377 1.392 1_556 S
C378 C379 1.385 . S
C378 C380 1.478 . S
C379 H373 0.930 . S
C379 C375 1.400 . S
C379 C378 1.385 . S
C380 C378 1.478 . S
C380 C382 1.381 . S
C380 C386 1.383 . S
C381 C377 1.495 . S
C381 H387 0.959 . S
C381 H388 0.961 . S
C381 H389 0.960 1_554 S
C382 C380 1.381 . S
C382 C383 1.394 . S
C382 H390 0.930 . S
C383 C382 1.394 . S
C383 C384 1.383 . S
C383 H391 0.929 . S
C384 C383 1.383 . S
C384 C385 1.377 . S
C385 H369 0.930 1_556 S
C385 C384 1.377 . S
C385 C386 1.379 . S
C386 H370 0.931 1_556 S
C386 C380 1.383 . S
C386 C385 1.379 . S
H387 C381 0.959 . S
H388 C381 0.961 . S
H389 C381 0.960 1_556 S
H390 C382 0.930 . S
H391 C383 0.929 . S
H392 C400 0.929 . S
H393 C402 0.930 . S
H394 C404 0.930 . S
H395 C407 0.929 . S
H396 C410 0.930 . S
H397 C412 0.960 . S
H398 C412 0.960 . S
H399 C412 0.960 . S
C400 H392 0.929 . S
C400 C401 1.377 1_554 S
C400 C402 1.384 . S
C401 C400 1.377 1_556 S
C401 C407 1.390 . S
C402 H393 0.930 . S
C402 C400 1.384 . S
C402 C403 1.372 1_554 S
C403 C402 1.372 1_556 S
C403 C404 1.400 . S
C403 C408 1.490 . S
C404 H394 0.930 . S
C404 C403 1.400 . S
C404 C407 1.386 . S
H405 C421 0.930 . S
H406 C422 0.931 . S
C407 H395 0.929 . S
C407 C401 1.390 . S
C407 C404 1.386 . S
C408 C403 1.490 . S
C408 C410 1.395 . S
C408 C411 1.403 . S
H409 C415 0.930 . S
C410 H396 0.930 . S
C410 C408 1.395 . S
C410 C413 1.403 . S
C411 C408 1.403 . S
C411 C412 1.524 . S
C411 C415 1.400 . S
C412 H397 0.960 . S
C412 H398 0.960 . S
C412 H399 0.960 . S
C412 C411 1.524 . S
C413 C410 1.403 . S
C413 C414 1.392 . S
C413 C417 1.495 . S
C414 C413 1.392 . S
C414 C415 1.385 . S
C414 C416 1.478 . S
C415 H409 0.930 . S
C415 C411 1.400 . S
C415 C414 1.385 . S
C416 C414 1.478 . S
C416 C418 1.381 . S
C416 C422 1.383 . S
C417 C413 1.495 . S
C417 H423 0.959 . S
C417 H424 0.961 . S
C417 H425 0.960 . S
C418 C416 1.381 . S
C418 C419 1.394 . S
C418 H426 0.930 1_556 S
C419 C418 1.394 . S
C419 C420 1.383 . S
C419 H427 0.929 1_556 S
C420 C419 1.383 . S
C420 C421 1.377 . S
C421 H405 0.930 . S
C421 C420 1.377 . S
C421 C422 1.379 . S
C422 H406 0.931 . S
C422 C416 1.383 . S
C422 C421 1.379 . S
H423 C417 0.959 . S
H424 C417 0.961 . S
H425 C417 0.960 . S
H426 C418 0.930 1_554 S
H427 C419 0.929 1_554 S
H428 C436 0.929 . S
H429 C438 0.930 . S
H430 C440 0.930 . S
H431 C443 0.929 . S
H432 C446 0.930 . S
H433 C448 0.960 . S
H434 C448 0.960 . S
H435 C448 0.960 . S
C436 H428 0.929 . S
C436 C437 1.377 . S
C436 C438 1.384 . S
C437 C436 1.377 . S
C437 C443 1.390 . S
C438 H429 0.930 . S
C438 C436 1.384 . S
C438 C439 1.372 . S
C439 C438 1.372 . S
C439 C440 1.400 . S
C439 C444 1.490 . S
C440 H430 0.930 . S
C440 C439 1.400 . S
C440 C443 1.386 . S
H441 C457 0.930 . S
H442 C458 0.931 . S
C443 H431 0.929 . S
C443 C437 1.390 . S
C443 C440 1.386 . S
C444 C439 1.490 . S
C444 C446 1.395 . S
C444 C447 1.403 . S
H445 C451 0.930 . S
C446 H432 0.930 . S
C446 C444 1.395 . S
C446 C449 1.403 . S
C447 C444 1.403 . S
C447 C448 1.524 . S
C447 C451 1.400 . S
C448 H433 0.960 . S
C448 H434 0.960 . S
C448 H435 0.960 . S
C448 C447 1.524 . S
C449 C446 1.403 . S
C449 C450 1.392 . S
C449 C453 1.495 . S
C450 C449 1.392 . S
C450 C451 1.385 . S
C450 C452 1.478 . S
C451 H445 0.930 . S
C451 C447 1.400 . S
C451 C450 1.385 . S
C452 C450 1.478 . S
C452 C454 1.381 . S
C452 C458 1.383 . S
C453 C449 1.495 . S
C453 H459 0.959 . S
C453 H460 0.961 . S
C453 H461 0.960 . S
C454 C452 1.381 . S
C454 C455 1.394 . S
C454 H462 0.930 . S
C455 C454 1.394 . S
C455 C456 1.383 . S
C455 H463 0.929 1_554 S
C456 C455 1.383 . S
C456 C457 1.377 . S
C457 H441 0.930 . S
C457 C456 1.377 . S
C457 C458 1.379 . S
C458 H442 0.931 . S
C458 C452 1.383 . S
C458 C457 1.379 . S
H459 C453 0.959 . S
H460 C453 0.961 . S
H461 C453 0.960 . S
H462 C454 0.930 . S
H463 C455 0.929 1_556 S
H464 C472 0.929 . S
H465 C474 0.930 . S
H466 C476 0.930 . S
H467 C479 0.929 . S
H468 C482 0.930 . S
H469 C484 0.960 . S
H470 C484 0.960 . S
H471 C484 0.960 . S
C472 H464 0.929 . S
C472 C473 1.377 . S
C472 C474 1.384 . S
C473 C472 1.377 . S
C473 C479 1.390 . S
C474 H465 0.930 . S
C474 C472 1.384 . S
C474 C475 1.372 . S
C475 C474 1.372 . S
C475 C476 1.400 . S
C475 C480 1.490 . S
C476 H466 0.930 . S
C476 C475 1.400 . S
C476 C479 1.386 . S
H477 C493 0.930 . S
H478 C494 0.931 . S
C479 H467 0.929 . S
C479 C473 1.390 . S
C479 C476 1.386 . S
C480 C475 1.490 . S
C480 C482 1.395 . S
C480 C483 1.403 . S
H481 C487 0.930 . S
C482 H468 0.930 . S
C482 C480 1.395 . S
C482 C485 1.403 . S
C483 C480 1.403 . S
C483 C484 1.524 . S
C483 C487 1.400 . S
C484 H469 0.960 . S
C484 H470 0.960 . S
C484 H471 0.960 . S
C484 C483 1.524 . S
C485 C482 1.403 . S
C485 C486 1.392 . S
C485 C489 1.495 . S
C486 C485 1.392 . S
C486 C487 1.385 . S
C486 C488 1.478 . S
C487 H481 0.930 . S
C487 C483 1.400 . S
C487 C486 1.385 . S
C488 C486 1.478 . S
C488 C490 1.381 . S
C488 C494 1.383 . S
C489 C485 1.495 . S
C489 H495 0.959 . S
C489 H496 0.961 . S
C489 H497 0.960 . S
C490 C488 1.381 . S
C490 C491 1.394 . S
C490 H498 0.930 . S
C491 C490 1.394 . S
C491 C492 1.383 . S
C491 H499 0.929 . S
C492 C491 1.383 . S
C492 C493 1.377 . S
C493 H477 0.930 . S
C493 C492 1.377 . S
C493 C494 1.379 . S
C494 H478 0.931 . S
C494 C488 1.383 . S
C494 C493 1.379 . S
H495 C489 0.959 . S
H496 C489 0.961 . S
H497 C489 0.960 . S
H498 C490 0.930 . S
H499 C491 0.929 . S
H500 C508 0.929 . S
H501 C510 0.930 . S
H502 C512 0.930 . S
H503 C515 0.929 . S
H504 C518 0.930 . S
H505 C520 0.960 . S
H506 C520 0.960 . S
H507 C520 0.960 . S
C508 H500 0.929 . S
C508 C509 1.377 . S
C508 C510 1.384 . S
C509 C508 1.377 . S
C509 C515 1.390 . S
C510 H501 0.930 . S
C510 C508 1.384 . S
C510 C511 1.372 . S
C511 C510 1.372 . S
C511 C512 1.400 . S
C511 C516 1.490 . S
C512 H502 0.930 . S
C512 C511 1.400 . S
C512 C515 1.386 . S
H513 C529 0.930 . S
H514 C530 0.931 . S
C515 H503 0.929 . S
C515 C509 1.390 . S
C515 C512 1.386 . S
C516 C511 1.490 . S
C516 C518 1.395 . S
C516 C519 1.403 . S
H517 C523 0.930 . S
C518 H504 0.930 . S
C518 C516 1.395 . S
C518 C521 1.403 . S
C519 C516 1.403 . S
C519 C520 1.524 . S
C519 C523 1.400 . S
C520 H505 0.960 . S
C520 H506 0.960 . S
C520 H507 0.960 . S
C520 C519 1.524 . S
C521 C518 1.403 . S
C521 C522 1.392 . S
C521 C525 1.495 . S
C522 C521 1.392 . S
C522 C523 1.385 . S
C522 C524 1.478 . S
C523 H517 0.930 . S
C523 C519 1.400 . S
C523 C522 1.385 . S
C524 C522 1.478 . S
C524 C526 1.381 . S
C524 C530 1.383 . S
C525 C521 1.495 . S
C525 H531 0.959 . S
C525 H532 0.961 . S
C525 H533 0.960 . S
C526 C524 1.381 . S
C526 C527 1.394 . S
C526 H534 0.930 . S
C527 C526 1.394 . S
C527 C528 1.383 . S
C527 H535 0.929 . S
C528 C527 1.383 . S
C528 C529 1.377 . S
C529 H513 0.930 . S
C529 C528 1.377 . S
C529 C530 1.379 . S
C530 H514 0.931 . S
C530 C524 1.383 . S
C530 C529 1.379 . S
H531 C525 0.959 . S
H532 C525 0.961 . S
H533 C525 0.960 . S
H534 C526 0.930 . S
H535 C527 0.929 . S
H536 C544 0.929 . S
H537 C546 0.930 1_556 S
H538 C548 0.930 . S
H539 C551 0.929 . S
H540 C554 0.930 . S
H541 C556 0.960 . S
H542 C556 0.960 . S
H543 C556 0.960 . S
C544 H536 0.929 . S
C544 C545 1.377 1_556 S
C544 C546 1.384 1_556 S
C545 C544 1.377 1_554 S
C545 C551 1.390 . S
C546 H537 0.930 1_554 S
C546 C544 1.384 1_554 S
C546 C547 1.372 . S
C547 C546 1.372 . S
C547 C548 1.400 . S
C547 C552 1.490 . S
C548 H538 0.930 . S
C548 C547 1.400 . S
C548 C551 1.386 . S
H549 C565 0.930 . S
H550 C566 0.931 . S
C551 H539 0.929 . S
C551 C545 1.390 . S
C551 C548 1.386 . S
C552 C547 1.490 . S
C552 C554 1.395 1_554 S
C552 C555 1.403 . S
H553 C559 0.930 . S
C554 H540 0.930 . S
C554 C552 1.395 1_556 S
C554 C557 1.403 . S
C555 C552 1.403 . S
C555 C556 1.524 . S
C555 C559 1.400 . S
C556 H541 0.960 . S
C556 H542 0.960 . S
C556 H543 0.960 . S
C556 C555 1.524 . S
C557 C554 1.403 . S
C557 C558 1.392 1_556 S
C557 C561 1.495 . S
C558 C557 1.392 1_554 S
C558 C559 1.385 . S
C558 C560 1.478 . S
C559 H553 0.930 . S
C559 C555 1.400 . S
C559 C558 1.385 . S
C560 C558 1.478 . S
C560 C562 1.381 . S
C560 C566 1.383 . S
C561 C557 1.495 . S
C561 H567 0.959 . S
C561 H568 0.961 . S
C561 H569 0.960 . S
C562 C560 1.381 . S
C562 C563 1.394 . S
C562 H570 0.930 . S
C563 C562 1.394 . S
C563 C564 1.383 . S
C563 H571 0.929 . S
C564 C563 1.383 . S
C564 C565 1.377 . S
C565 H549 0.930 . S
C565 C564 1.377 . S
C565 C566 1.379 . S
C566 H550 0.931 . S
C566 C560 1.383 . S
C566 C565 1.379 . S
H567 C561 0.959 . S
H568 C561 0.961 . S
H569 C561 0.960 . S
H570 C562 0.930 . S
H571 C563 0.929 . S
H572 C580 0.929 . S
H573 C582 0.930 . S
H574 C584 0.930 . S
H575 C587 0.929 . S
H576 C590 0.930 . S
H577 C592 0.960 . S
H578 C592 0.960 . S
H579 C592 0.960 . S
C580 H572 0.929 . S
C580 C581 1.377 . S
C580 C582 1.384 . S
C581 C580 1.377 . S
C581 C587 1.390 . S
C582 H573 0.930 . S
C582 C580 1.384 . S
C582 C583 1.372 . S
C583 C582 1.372 . S
C583 C584 1.400 . S
C583 C588 1.490 . S
C584 H574 0.930 . S
C584 C583 1.400 . S
C584 C587 1.386 . S
H585 C601 0.930 . S
H586 C602 0.929 1_554 S
C587 H575 0.929 . S
C587 C581 1.390 . S
C587 C584 1.386 . S
C588 C583 1.490 . S
C588 C590 1.395 . S
C588 C591 1.403 . S
H589 C595 0.930 . S
C590 H576 0.930 . S
C590 C588 1.395 . S
C590 C593 1.403 . S
C591 C588 1.403 . S
C591 C592 1.524 . S
C591 C595 1.400 . S
C592 H577 0.960 . S
C592 H578 0.960 . S
C592 H579 0.960 . S
C592 C591 1.524 . S
C593 C590 1.403 . S
C593 C594 1.392 . S
C593 C597 1.495 . S
C594 C593 1.392 . S
C594 C595 1.385 . S
C594 C596 1.478 . S
C595 H589 0.930 . S
C595 C591 1.400 . S
C595 C594 1.385 . S
C596 C594 1.478 . S
C596 C598 1.381 . S
C596 C602 1.385 . S
C597 C593 1.495 . S
C597 H603 0.959 . S
C597 H604 0.961 1_556 S
C597 H605 0.960 . S
C598 C596 1.381 . S
C598 C599 1.394 . S
C598 H606 0.930 . S
C599 C598 1.394 . S
C599 C600 1.383 . S
C599 H607 0.929 . S
C600 C599 1.383 . S
C600 C601 1.377 1_556 S
C601 H585 0.930 . S
C601 C600 1.377 1_554 S
C601 C602 1.379 1_554 S
C602 H586 0.929 1_556 S
C602 C596 1.385 . S
C602 C601 1.379 1_556 S
H603 C597 0.959 . S
H604 C597 0.961 1_554 S
H605 C597 0.960 . S
H606 C598 0.930 . S
H607 C599 0.929 . S
H608 C616 0.929 . S
H609 C618 0.930 . S
H610 C620 0.930 . S
H611 C623 0.929 . S
H612 C626 0.930 . S
H613 C628 0.960 . S
H614 C628 0.960 . S
H615 C628 0.960 . S
C616 H608 0.929 . S
C616 C617 1.377 . S
C616 C618 1.384 . S
C617 C616 1.377 . S
C617 C623 1.390 . S
C618 H609 0.930 . S
C618 C616 1.384 . S
C618 C619 1.372 . S
C619 C618 1.372 . S
C619 C620 1.400 . S
C619 C624 1.490 . S
C620 H610 0.930 . S
C620 C619 1.400 . S
C620 C623 1.386 . S
H621 C637 0.930 . S
H622 C638 0.931 . S
C623 H611 0.929 . S
C623 C617 1.390 . S
C623 C620 1.386 . S
C624 C619 1.490 . S
C624 C626 1.395 . S
C624 C627 1.403 . S
H625 C631 0.930 . S
C626 H612 0.930 . S
C626 C624 1.395 . S
C626 C629 1.403 . S
C627 C624 1.403 . S
C627 C628 1.524 . S
C627 C631 1.400 . S
C628 H613 0.960 . S
C628 H614 0.960 . S
C628 H615 0.960 . S
C628 C627 1.524 . S
C629 C626 1.403 . S
C629 C630 1.392 . S
C629 C633 1.495 . S
C630 C629 1.392 . S
C630 C631 1.385 . S
C630 C632 1.478 . S
C631 H625 0.930 . S
C631 C627 1.400 . S
C631 C630 1.385 . S
C632 C630 1.478 . S
C632 C634 1.381 . S
C632 C638 1.383 . S
C633 C629 1.495 . S
C633 H639 0.959 . S
C633 H640 0.961 . S
C633 H641 0.960 . S
C634 C632 1.381 . S
C634 C635 1.394 . S
C634 H642 0.930 . S
C635 C634 1.394 . S
C635 C636 1.383 . S
C635 H643 0.929 . S
C636 C635 1.383 . S
C636 C637 1.377 . S
C637 H621 0.930 . S
C637 C636 1.377 . S
C637 C638 1.379 . S
C638 H622 0.931 . S
C638 C632 1.383 . S
C638 C637 1.379 . S
H639 C633 0.959 . S
H640 C633 0.961 . S
H641 C633 0.960 . S
H642 C634 0.930 . S
H643 C635 0.929 . S
H644 C652 0.929 . S
H645 C654 0.930 . S
H646 C656 0.930 . S
H647 C659 0.929 . S
H648 C662 0.930 . S
H649 C664 0.960 . S
H650 C664 0.960 . S
H651 C664 0.960 . S
C652 H644 0.929 . S
C652 C653 1.377 . S
C652 C654 1.384 . S
C653 C652 1.377 . S
C653 C659 1.390 . S
C654 H645 0.930 . S
C654 C652 1.384 . S
C654 C655 1.372 . S
C655 C654 1.372 . S
C655 C656 1.400 . S
C655 C660 1.490 . S
C656 H646 0.930 . S
C656 C655 1.400 . S
C656 C659 1.386 . S
H657 C673 0.930 . S
H658 C674 0.931 . S
C659 H647 0.929 . S
C659 C653 1.390 . S
C659 C656 1.386 . S
C660 C655 1.490 . S
C660 C662 1.395 . S
C660 C663 1.403 . S
H661 C667 0.930 . S
C662 H648 0.930 . S
C662 C660 1.395 . S
C662 C665 1.403 . S
C663 C660 1.403 . S
C663 C664 1.524 . S
C663 C667 1.400 . S
C664 H649 0.960 . S
C664 H650 0.960 . S
C664 H651 0.960 . S
C664 C663 1.524 . S
C665 C662 1.403 . S
C665 C666 1.392 . S
C665 C669 1.495 . S
C666 C665 1.392 . S
C666 C667 1.385 . S
C666 C668 1.478 . S
C667 H661 0.930 . S
C667 C663 1.400 . S
C667 C666 1.385 . S
C668 C666 1.478 . S
C668 C670 1.381 . S
C668 C674 1.383 . S
C669 C665 1.495 . S
C669 H675 0.959 . S
C669 H676 0.961 . S
C669 H677 0.960 . S
C670 C668 1.381 . S
C670 C671 1.394 . S
C670 H678 0.930 . S
C671 C670 1.394 . S
C671 C672 1.383 . S
C671 H679 0.929 . S
C672 C671 1.383 . S
C672 C673 1.377 . S
C673 H657 0.930 . S
C673 C672 1.377 . S
C673 C674 1.379 . S
C674 H658 0.931 . S
C674 C668 1.383 . S
C674 C673 1.379 . S
H675 C669 0.959 . S
H676 C669 0.961 . S
H677 C669 0.960 . S
H678 C670 0.930 . S
H679 C671 0.929 . S
C113 C1 1.576 . S
C132 C40 1.588 . S
C149 C10 1.480 . S
C168 C18 1.462 . S
C185 C27 1.459 . S
C204 C16 1.463 . S
C221 C49 1.555 . S
C240 C36 1.561 . S
C257 C3 1.496 . S
C276 C66 1.496 . S
C293 C5 1.435 . S
C312 C57 1.432 . S
C329 C55 1.473 . S
C348 C29 1.476 . S
C365 C31 1.520 . S
C384 C75 1.526 . S
C401 C81 1.419 . S
C420 C68 1.409 . S
C437 C62 1.524 . S
C456 C83 1.522 . S
C473 C53 1.567 . S
C492 C92 1.558 . S
C509 C70 1.454 . S
C528 C101 1.452 . S
C545 C79 1.511 . S
C564 C42 1.510 . S
C581 C23 1.581 . S
C600 C88 1.585 . S
C617 C14 1.537 . S
C636 C94 1.532 . S
C653 C44 1.448 . S
C672 C96 1.448 . S
