# Generated by pormake.
# Topology ghw, (5)-cn, num edge types: 1
# Building blocks:
#     Node 0, Type 0, BuildingBlock: XOMCOT_clean_sbu_1, # of connection points: 5
#     Node 1, Type 0, BuildingBlock: XOMCOT_clean_sbu_1, # of connection points: 5
#     Node 2, Type 0, BuildingBlock: XOMCOT_clean_sbu_1, # of connection points: 5
#     Node 3, Type 0, BuildingBlock: XOMCOT_clean_sbu_1, # of connection points: 5
#     Node 4, Type 0, BuildingBlock: XOMCOT_clean_sbu_1, # of connection points: 5
#     Node 5, Type 0, BuildingBlock: XOMCOT_clean_sbu_1, # of connection points: 5
#     Node 6, Type 0, BuildingBlock: XOMCOT_clean_sbu_1, # of connection points: 5
#     Node 7, Type 0, BuildingBlock: XOMCOT_clean_sbu_1, # of connection points: 5
#     Node 8, Type 0, BuildingBlock: XOMCOT_clean_sbu_1, # of connection points: 5
#     Node 9, Type 0, BuildingBlock: XOMCOT_clean_sbu_1, # of connection points: 5
#     Node 10, Type 0, BuildingBlock: XOMCOT_clean_sbu_1, # of connection points: 5
#     Node 11, Type 0, BuildingBlock: XOMCOT_clean_sbu_1, # of connection points: 5
#     Node 12, Type 0, BuildingBlock: XOMCOT_clean_sbu_1, # of connection points: 5
#     Node 13, Type 0, BuildingBlock: XOMCOT_clean_sbu_1, # of connection points: 5
#     Node 14, Type 0, BuildingBlock: XOMCOT_clean_sbu_1, # of connection points: 5
#     Node 15, Type 0, BuildingBlock: XOMCOT_clean_sbu_1, # of connection points: 5
#     Edge 16, Type (0, 0), BuildingBlock: AJUNOK_clean_linker_0, # of connection points: 2
#     Edge 17, Type (0, 0), BuildingBlock: AJUNOK_clean_linker_0, # of connection points: 2
#     Edge 18, Type (0, 0), BuildingBlock: AJUNOK_clean_linker_0, # of connection points: 2
#     Edge 19, Type (0, 0), BuildingBlock: AJUNOK_clean_linker_0, # of connection points: 2
#     Edge 20, Type (0, 0), BuildingBlock: AJUNOK_clean_linker_0, # of connection points: 2
#     Edge 21, Type (0, 0), BuildingBlock: AJUNOK_clean_linker_0, # of connection points: 2
#     Edge 22, Type (0, 0), BuildingBlock: AJUNOK_clean_linker_0, # of connection points: 2
#     Edge 23, Type (0, 0), BuildingBlock: AJUNOK_clean_linker_0, # of connection points: 2
#     Edge 24, Type (0, 0), BuildingBlock: AJUNOK_clean_linker_0, # of connection points: 2
#     Edge 25, Type (0, 0), BuildingBlock: AJUNOK_clean_linker_0, # of connection points: 2
#     Edge 26, Type (0, 0), BuildingBlock: AJUNOK_clean_linker_0, # of connection points: 2
#     Edge 27, Type (0, 0), BuildingBlock: AJUNOK_clean_linker_0, # of connection points: 2
#     Edge 28, Type (0, 0), BuildingBlock: AJUNOK_clean_linker_0, # of connection points: 2
#     Edge 29, Type (0, 0), BuildingBlock: AJUNOK_clean_linker_0, # of connection points: 2
#     Edge 30, Type (0, 0), BuildingBlock: AJUNOK_clean_linker_0, # of connection points: 2
#     Edge 31, Type (0, 0), BuildingBlock: AJUNOK_clean_linker_0, # of connection points: 2
#     Edge 32, Type (0, 0), BuildingBlock: AJUNOK_clean_linker_0, # of connection points: 2
#     Edge 33, Type (0, 0), BuildingBlock: AJUNOK_clean_linker_0, # of connection points: 2
#     Edge 34, Type (0, 0), BuildingBlock: AJUNOK_clean_linker_0, # of connection points: 2
#     Edge 35, Type (0, 0), BuildingBlock: AJUNOK_clean_linker_0, # of connection points: 2
#     Edge 36, Type (0, 0), BuildingBlock: AJUNOK_clean_linker_0, # of connection points: 2
#     Edge 37, Type (0, 0), BuildingBlock: AJUNOK_clean_linker_0, # of connection points: 2
#     Edge 38, Type (0, 0), BuildingBlock: AJUNOK_clean_linker_0, # of connection points: 2
#     Edge 39, Type (0, 0), BuildingBlock: AJUNOK_clean_linker_0, # of connection points: 2
#     Edge 40, Type (0, 0), BuildingBlock: AJUNOK_clean_linker_0, # of connection points: 2
#     Edge 41, Type (0, 0), BuildingBlock: AJUNOK_clean_linker_0, # of connection points: 2
#     Edge 42, Type (0, 0), BuildingBlock: AJUNOK_clean_linker_0, # of connection points: 2
#     Edge 43, Type (0, 0), BuildingBlock: AJUNOK_clean_linker_0, # of connection points: 2
#     Edge 44, Type (0, 0), BuildingBlock: AJUNOK_clean_linker_0, # of connection points: 2
#     Edge 45, Type (0, 0), BuildingBlock: AJUNOK_clean_linker_0, # of connection points: 2
#     Edge 46, Type (0, 0), BuildingBlock: AJUNOK_clean_linker_0, # of connection points: 2
#     Edge 47, Type (0, 0), BuildingBlock: AJUNOK_clean_linker_0, # of connection points: 2
#     Edge 48, Type (0, 0), BuildingBlock: AJUNOK_clean_linker_0, # of connection points: 2
#     Edge 49, Type (0, 0), BuildingBlock: AJUNOK_clean_linker_0, # of connection points: 2
#     Edge 50, Type (0, 0), BuildingBlock: AJUNOK_clean_linker_0, # of connection points: 2
#     Edge 51, Type (0, 0), BuildingBlock: AJUNOK_clean_linker_0, # of connection points: 2
#     Edge 52, Type (0, 0), BuildingBlock: AJUNOK_clean_linker_0, # of connection points: 2
#     Edge 53, Type (0, 0), BuildingBlock: AJUNOK_clean_linker_0, # of connection points: 2
#     Edge 54, Type (0, 0), BuildingBlock: AJUNOK_clean_linker_0, # of connection points: 2
#     Edge 55, Type (0, 0), BuildingBlock: AJUNOK_clean_linker_0, # of connection points: 2
# Relax obj value: 0.234
# Max RMSD: 0.230
# Mean RMSD: 0.230
data_MOF--net-ghw--node1-XOMCOT_clean_sbu_1--edge1-AJUNOK_clean_linker_0
_symmetry_space_group_name_H-M    P1
_symmetry_Int_Tables_number       1
_symmetry_cell_setting            triclinic
loop_
_symmetry_equiv_pos_as_xyz
'x, y, z'
_cell_length_a     25.494028
_cell_length_b     29.923012
_cell_length_c     26.534916
_cell_angle_alpha  89.95694
_cell_angle_beta   92.9281
_cell_angle_gamma 89.696051
loop_
_atom_site_label
_atom_site_type_symbol
_atom_site_fract_x
_atom_site_fract_y
_atom_site_fract_z
_atom_type_partial_charge
C0 C 0.18326 0.07115 0.38731 0.0
C1 C 0.23387 0.05638 0.38128 0.0
N2 N 0.26611 0.09184 0.38447 0.0
N3 N 0.18352 0.11574 0.39498 0.0
C4 C 0.23468 0.12734 0.39284 0.0
H5 H 0.14859 0.0505 0.38594 0.0
Co6 Co 0.12519 0.1527 0.40557 0.0
C7 C 0.17374 0.23734 0.44672 0.0
O8 O 0.14043 0.26053 0.41751 0.0
N9 N 0.06692 0.18927 0.41753 0.0
C10 C 0.01052 0.23031 0.45917 0.0
C11 C 0.05906 0.21046 0.46143 0.0
C12 C 0.02122 0.19492 0.39021 0.0
N13 N 0.98605 0.21988 0.41457 0.0
O14 O 0.10716 0.11725 0.46398 0.0
H15 H 0.08634 0.21043 0.49399 0.0
H16 H 0.01234 0.17839 0.35468 0.0
O17 O 0.17173 0.19438 0.44595 0.0
C18 C 0.07125 0.09018 0.44732 0.0
O19 O 0.05855 0.09087 0.39877 0.0
N20 N 0.13595 0.18168 0.34391 0.0
C21 C 0.12966 0.21002 0.24344 0.0
C22 C 0.16757 0.22813 0.27787 0.0
C23 C 0.17069 0.21287 0.32821 0.0
C24 C 0.10257 0.1614 0.30958 0.0
C25 C 0.09837 0.17517 0.25971 0.0
H26 H 0.20127 0.22574 0.35368 0.0
H27 H 0.07855 0.13407 0.32115 0.0
H28 H 0.24886 0.16114 0.39784 0.0
H29 H 0.24597 1.0223 0.37428 0.0
H30 H 0.99481 0.25005 0.48891 0.0
H31 H 0.19438 0.25357 0.26604 0.0
H32 H 0.07112 0.158 0.23381 0.0
C33 C 0.06378 0.06718 0.87167 0.0
C34 C 0.01419 0.04957 0.87383 0.0
N35 N 0.9795 0.0836 0.87278 0.0
N36 N 0.06074 0.11227 0.86938 0.0
C37 C 0.00862 0.12104 0.87034 0.0
H38 H 0.09973 0.04793 0.87292 0.0
Co39 Co 0.11858 0.15184 0.86707 0.0
C40 C 0.04059 0.22474 0.83217 0.0
O41 O 0.02529 0.23028 0.87821 0.0
N42 N 0.17562 0.18962 0.86244 0.0
C43 C 0.23408 0.23578 0.83204 0.0
C44 C 0.18382 0.21982 0.82583 0.0
C45 C 0.22121 0.18771 0.89031 0.0
N46 N 0.25743 0.21545 0.87254 0.0
O47 O 0.14453 0.11923 0.81018 0.0
H48 H 0.15634 0.22798 0.79479 0.0
H49 H 0.22877 0.16412 0.9208 0.0
O50 O 0.07458 0.19416 0.82295 0.0
C51 C 0.18024 0.09236 0.82844 0.0
O52 O 0.18688 0.0895 0.8778 0.0
N53 N 0.10113 0.17994 0.92873 0.0
C54 C 0.1043 0.20967 0.02876 0.0
C55 C 0.09044 0.16573 0.01691 0.0
C56 C 0.09031 0.15128 0.96699 0.0
C57 C 0.11361 0.2235 0.93996 0.0
C58 C 0.11551 0.23889 0.98982 0.0
H59 H 0.08513 0.11606 0.96001 0.0
H60 H 0.12428 0.24631 0.91065 0.0
H61 H 0.99179 0.15406 0.86968 0.0
H62 H 1.00468 1.01456 0.87754 0.0
H63 H 0.25292 0.25883 0.80729 0.0
H64 H 0.08291 0.14193 0.04646 0.0
H65 H 0.12732 0.27273 0.99801 0.0
C66 C 0.84226 0.98254 0.66613 0.0
C67 C 0.79374 1.001 0.67298 0.0
N68 N 0.75732 0.97845 0.64452 0.0
N69 N 0.83733 0.94859 0.63301 0.0
C70 C 0.78524 0.94724 0.62002 0.0
H71 H 0.87861 0.99233 0.68566 0.0
Co72 Co 0.89342 0.91191 0.61418 0.0
C73 C 0.83363 0.83058 0.58092 0.0
O74 O 0.86213 0.80841 0.6152 0.0
N75 N 0.95062 0.87853 0.59317 0.0
C76 C 0.01016 0.83463 0.5591 0.0
C77 C 0.95718 0.84356 0.56174 0.0
C78 C 0.99985 0.89189 0.60594 0.0
N79 N 0.03661 0.86501 0.58754 0.0
O80 O 0.90541 0.95162 0.55768 0.0
H81 H 0.92617 0.82553 0.54164 0.0
H82 H 0.00857 0.91924 0.63159 0.0
O83 O 0.84293 0.87241 0.57435 0.0
C84 C 0.93676 0.98291 0.57301 0.0
O85 O 0.94757 0.98642 0.62174 0.0
N86 N 0.88781 0.87599 0.67548 0.0
C87 C 0.8897 0.8502 0.77758 0.0
C88 C 0.84234 0.86234 0.75171 0.0
C89 C 0.84203 0.87378 0.70039 0.0
C90 C 0.93258 0.85885 0.69925 0.0
C91 C 0.93392 0.84484 0.7493 0.0
H92 H 0.80501 0.88305 0.68199 0.0
H93 H 0.96914 0.85701 0.68161 0.0
H94 H 0.76802 0.92147 0.59621 0.0
H95 H 0.78611 1.0283 0.69831 0.0
H96 H 0.02759 0.80703 0.53958 0.0
H97 H 0.80628 0.86537 0.77131 0.0
H98 H 0.97054 0.83219 0.76638 0.0
C99 C 0.93608 0.97288 0.10489 0.0
C100 C 0.98644 0.98805 0.09973 0.0
N101 N 0.01798 0.96877 0.1358 0.0
N102 N 0.93596 0.94368 0.14363 0.0
C103 C 0.98647 0.94216 0.16199 0.0
H104 H 0.90222 0.98075 0.08021 0.0
Co105 Co 0.87895 0.90767 0.15856 0.0
C106 C 0.92993 0.82363 0.19923 0.0
O107 O 0.8975 0.80164 0.16832 0.0
N108 N 0.82144 0.87201 0.17473 0.0
C109 C 0.76714 0.83262 0.2204 0.0
C110 C 0.81613 0.85115 0.21936 0.0
C111 C 0.77391 0.86744 0.15053 0.0
N112 N 0.74033 0.84318 0.17701 0.0
O113 O 0.86249 0.94587 0.21462 0.0
H114 H 0.84528 0.85084 0.25041 0.0
H115 H 0.76212 0.8844 0.11598 0.0
O116 O 0.9272 0.86665 0.20001 0.0
C117 C 0.82907 0.97386 0.19452 0.0
O118 O 0.82053 0.9723 0.14536 0.0
N119 N 0.88838 0.87634 0.09827 0.0
C120 C 0.8941 0.85265 0.99688 0.0
C121 C 0.93475 0.8409 0.03235 0.0
C122 C 0.93139 0.85347 0.08313 0.0
C123 C 0.85059 0.8899 0.06335 0.0
C124 C 0.85156 0.87715 0.01321 0.0
H125 H 0.96455 0.84725 0.1092 0.0
H126 H 0.82151 0.91402 0.07344 0.0
H127 H 1.00075 0.91998 0.19188 0.0
H128 H 0.99925 1.01035 0.07071 0.0
H129 H 0.75268 0.81388 0.25143 0.0
H130 H 0.96961 0.824 0.02063 0.0
H131 H 0.82109 0.88937 0.98664 0.0
C132 C 0.18962 0.59204 0.851 0.0
C133 C 0.23977 0.57687 0.8436 0.0
N134 N 0.27143 0.59053 0.88269 0.0
N135 N 0.18983 0.61596 0.8941 0.0
C136 C 0.24013 0.61366 0.91305 0.0
H137 H 0.15593 0.58867 0.82483 0.0
Co138 Co 0.13362 0.6516 0.91422 0.0
C139 C 0.19316 0.73045 0.95484 0.0
O140 O 0.16642 0.75486 0.92121 0.0
N141 N 0.07668 0.68517 0.936 0.0
C142 C 0.02042 0.731 0.97184 0.0
C143 C 0.0722 0.71832 0.97027 0.0
C144 C 0.02666 0.67582 0.92119 0.0
N145 N 0.99216 0.70451 0.94015 0.0
O146 O 0.11925 0.60929 0.96741 0.0
H147 H 0.10367 0.73248 0.99359 0.0
H148 H 0.01585 0.64955 0.89465 0.0
O149 O 0.18335 0.68838 0.95784 0.0
C150 C 0.08861 0.57882 0.94875 0.0
O151 O 0.0809 0.57737 0.89944 0.0
N152 N 0.14172 0.68981 0.85612 0.0
C153 C 0.14677 0.71558 0.75517 0.0
C154 C 0.19297 0.70941 0.78535 0.0
C155 C 0.18957 0.6977 0.83642 0.0
C156 C 0.09709 0.69995 0.82743 0.0
C157 C 0.09887 0.7143 0.77786 0.0
H158 H 0.22546 0.69071 0.85845 0.0
H159 H 0.05895 0.69263 0.83948 0.0
H160 H 0.25463 0.63162 0.94616 0.0
H161 H 0.25252 0.5591 0.81082 0.0
H162 H 1.00516 0.75828 0.99335 0.0
H163 H 0.2309 0.70966 0.76874 0.0
H164 H 0.06237 0.718 0.75536 0.0
C165 C 0.07566 0.55716 0.38429 0.0
C166 C 0.0252 0.54337 0.39209 0.0
N167 N 0.99388 0.57977 0.39213 0.0
N168 N 0.07586 0.60196 0.37882 0.0
C169 C 0.02547 0.61467 0.38358 0.0
H170 H 0.1101 0.53594 0.3842 0.0
Co171 Co 0.13316 0.63953 0.37385 0.0
C172 C 0.08428 0.72569 0.33139 0.0
O173 O 0.11641 0.74965 0.36059 0.0
N174 N 0.19051 0.67665 0.3687 0.0
C175 C 0.25303 0.71709 0.33584 0.0
C176 C 0.20386 0.6994 0.3273 0.0
C177 C 0.23277 0.67962 0.4011 0.0
N178 N 0.27091 0.70426 0.38213 0.0
O179 O 0.15557 0.60774 0.31438 0.0
H180 H 0.18072 0.70072 0.29202 0.0
H181 H 0.23756 0.66137 0.43617 0.0
O182 O 0.08747 0.68276 0.33324 0.0
C183 C 0.19222 0.58098 0.33097 0.0
O184 O 0.20185 0.57911 0.37993 0.0
N185 N 0.11851 0.66444 0.43662 0.0
C186 C 0.12197 0.68388 0.53962 0.0
C187 C 0.09046 0.70958 0.50532 0.0
C188 C 0.08862 0.69885 0.45353 0.0
C189 C 0.14649 0.63811 0.47018 0.0
C190 C 0.15009 0.64785 0.52114 0.0
H191 H 0.06286 0.71773 0.42795 0.0
H192 H 0.16803 0.60976 0.45696 0.0
H193 H 0.01231 0.64906 0.3814 0.0
H194 H 0.0128 0.50943 0.39884 0.0
H195 H 0.2757 0.73466 0.30873 0.0
H196 H 0.06705 0.73702 0.51849 0.0
H197 H 0.17531 0.62728 0.54584 0.0
C198 C 0.82869 0.49081 0.10482 0.0
C199 C 0.77791 0.50612 0.10719 0.0
N200 N 0.74566 0.47065 0.10801 0.0
N201 N 0.82882 0.44571 0.1043 0.0
C202 C 0.77755 0.43447 0.10621 0.0
H203 H 0.86314 0.51157 0.10401 0.0
Co204 Co 0.88729 0.40719 0.10025 0.0
C205 C 0.83313 0.32333 0.05805 0.0
O206 O 0.86433 0.29784 0.08633 0.0
N207 N 0.94468 0.37021 0.09174 0.0
C208 C 1.00428 0.3312 0.05204 0.0
C209 C 0.95359 0.34659 0.0496 0.0
C210 C 0.99099 0.36994 0.11849 0.0
N211 N 0.02782 0.34646 0.09507 0.0
O212 O 0.91033 0.44145 0.04258 0.0
H213 H 0.92632 0.34338 0.0173 0.0
H214 H 0.99852 0.38928 0.15254 0.0
O215 O 0.83988 0.36595 0.05845 0.0
C216 C 0.94522 0.46812 0.0623 0.0
O217 O 0.95275 0.4675 0.11167 0.0
N218 N 0.87237 0.37813 0.16454 0.0
C219 C 0.87309 0.35175 0.2669 0.0
C220 C 0.85021 0.39208 0.25084 0.0
C221 C 0.85164 0.4051 0.20047 0.0
C222 C 0.89423 0.33798 0.18034 0.0
C223 C 0.89464 0.32414 0.23091 0.0
H224 H 0.83984 0.43901 0.19254 0.0
H225 H 0.91636 0.31753 0.15588 0.0
H226 H 0.76433 0.40028 0.10843 0.0
H227 H 0.76572 0.54081 0.10813 0.0
H228 H 0.02298 0.31202 0.02333 0.0
H229 H 0.83501 0.41531 0.2779 0.0
H230 H 0.91413 0.29317 0.24213 0.0
C231 C 0.93582 0.5017 0.61896 0.0
C232 C 0.98662 0.51614 0.61463 0.0
N233 N 0.01926 0.48356 0.63219 0.0
N234 N 0.93669 0.46034 0.63923 0.0
C235 C 0.98816 0.45028 0.64706 0.0
H236 H 0.90057 0.51949 0.60624 0.0
Co237 Co 0.87884 0.4236 0.64379 0.0
C238 C 0.92284 0.33683 0.68533 0.0
O239 O 0.89168 0.31532 0.65278 0.0
N240 N 0.82033 0.38754 0.64839 0.0
C241 C 0.75479 0.35169 0.68237 0.0
C242 C 0.8051 0.36701 0.69056 0.0
C243 C 0.77843 0.38487 0.61554 0.0
N244 N 0.7383 0.36309 0.63514 0.0
O245 O 0.85548 0.45707 0.70223 0.0
H246 H 0.8275 0.36642 0.72629 0.0
H247 H 0.77458 0.40311 0.58042 0.0
O248 O 0.92145 0.37984 0.68665 0.0
C249 C 0.81974 0.48514 0.68674 0.0
O250 O 0.80898 0.48765 0.6379 0.0
N251 N 0.89582 0.39664 0.58232 0.0
C252 C 0.89667 0.36761 0.48227 0.0
C253 C 0.93081 0.34832 0.51964 0.0
C254 C 0.93078 0.36423 0.56955 0.0
C255 C 0.86716 0.41868 0.54536 0.0
C256 C 0.86627 0.40442 0.49558 0.0
H257 H 0.9587 0.35035 0.59723 0.0
H258 H 0.8434 0.44712 0.55505 0.0
H259 H 1.00289 0.41834 0.66088 0.0
H260 H 0.99866 0.54778 0.59926 0.0
H261 H 0.73051 0.33709 0.71031 0.0
H262 H 0.95667 0.32103 0.51073 0.0
H263 H 0.8416 0.42216 0.46765 0.0
C264 C 0.67201 0.0587 0.89184 0.0
C265 C 0.72229 0.04339 0.88563 0.0
N266 N 0.7549 0.07873 0.88641 0.0
N267 N 0.67268 0.10352 0.89726 0.0
C268 C 0.72372 0.11462 0.89364 0.0
H269 H 0.63748 0.03807 0.89306 0.0
Co270 Co 0.61575 0.14159 0.9088 0.0
C271 C 0.66764 0.22804 0.93992 0.0
O272 O 0.63301 0.24964 0.91058 0.0
N273 N 0.55896 0.17922 0.92217 0.0
C274 C 0.50482 0.22009 0.96692 0.0
C275 C 0.5544 0.2024 0.9655 0.0
C276 C 0.51076 0.18195 0.89889 0.0
N277 N 0.47712 0.20651 0.92532 0.0
O278 O 0.60205 0.11007 0.97018 0.0
H279 H 0.58441 0.20449 0.99569 0.0
H280 H 0.499 0.16348 0.8653 0.0
O281 O 0.66498 0.18518 0.94306 0.0
C282 C 0.5658 0.08244 0.95597 0.0
O283 O 0.55243 0.08018 0.90763 0.0
N284 N 0.62214 0.16635 0.84445 0.0
C285 C 0.61973 0.18056 0.74075 0.0
C286 C 0.6577 0.20171 0.77243 0.0
C287 C 0.65897 0.1934 0.82459 0.0
C288 C 0.58617 0.14511 0.81331 0.0
C289 C 0.58381 0.15206 0.76165 0.0
H290 H 0.69078 0.20704 0.84797 0.0
H291 H 0.56008 0.12093 0.8284 0.0
H292 H 0.73792 0.14856 0.89609 0.0
H293 H 0.73379 1.00871 0.88254 0.0
H294 H 0.49019 0.24025 0.99702 0.0
H295 H 0.68732 0.22269 0.75679 0.0
H296 H 0.55513 0.13411 0.73797 0.0
C297 C 0.57393 0.06405 0.36918 0.0
C298 C 0.52246 0.05073 0.3727 0.0
N299 N 0.49094 0.08698 0.36749 0.0
N300 N 0.57521 0.1086 0.36179 0.0
C301 C 0.52411 0.12145 0.36121 0.0
H302 H 0.60807 0.04246 0.37195 0.0
Co303 Co 0.63383 0.14578 0.35386 0.0
C304 C 0.58327 0.2308 0.31702 0.0
O305 O 0.61358 0.25302 0.34969 0.0
N306 N 0.69176 0.18355 0.34366 0.0
C307 C 0.74719 0.22584 0.30222 0.0
C308 C 0.69955 0.20456 0.29949 0.0
C309 C 0.73632 0.19155 0.37194 0.0
N310 N 0.77015 0.21772 0.34802 0.0
O311 O 0.65325 0.11228 0.29476 0.0
H312 H 0.67312 0.20302 0.26635 0.0
H313 H 0.7462 0.17584 0.40772 0.0
O314 O 0.58773 0.18814 0.31456 0.0
C315 C 0.68868 0.08465 0.31189 0.0
O316 O 0.69843 0.08327 0.36091 0.0
N317 N 0.62173 0.17219 0.41674 0.0
C318 C 0.61718 0.18442 0.52129 0.0
C319 C 0.57814 0.20282 0.48759 0.0
C320 C 0.5814 0.19664 0.43509 0.0
C321 C 0.65841 0.15351 0.44931 0.0
C322 C 0.65876 0.16129 0.50061 0.0
H323 H 0.55003 0.20923 0.41009 0.0
H324 H 0.6871 0.13065 0.43559 0.0
H325 H 0.51157 0.1558 0.35758 0.0
H326 H 0.50939 1.01683 0.37839 0.0
H327 H 0.76455 0.2442 0.27216 0.0
H328 H 0.54408 0.21972 0.50125 0.0
H329 H 0.69057 0.14698 0.52406 0.0
C330 C 0.32649 0.98528 0.17364 0.0
C331 C 0.27546 0.99879 0.1797 0.0
N332 N 0.24346 0.97243 0.15101 0.0
N333 N 0.3268 0.95057 0.14119 0.0
C334 C 0.27548 0.94383 0.12773 0.0
H335 H 0.361 0.99886 0.19331 0.0
Co336 Co 0.38597 0.91583 0.12733 0.0
C337 C 0.34049 0.82852 0.09111 0.0
O338 O 0.37572 0.80734 0.12021 0.0
N339 N 0.44488 0.8811 0.11257 0.0
C340 C 0.50005 0.83977 0.06956 0.0
C341 C 0.45221 0.86115 0.06776 0.0
C342 C 0.48984 0.87285 0.1401 0.0
N343 N 0.52356 0.847 0.11534 0.0
O344 O 0.39779 0.95067 0.0676 0.0
H345 H 0.42476 0.86267 0.03535 0.0
H346 H 0.49954 0.8879 0.17623 0.0
O347 O 0.34017 0.87149 0.09056 0.0
C348 C 0.4292 0.98139 0.08417 0.0
O349 O 0.43809 0.9844 0.13308 0.0
N350 N 0.38122 0.88831 0.19017 0.0
C351 C 0.39097 0.86938 0.29307 0.0
C352 C 0.35273 0.84759 0.26181 0.0
C353 C 0.3478 0.85821 0.21003 0.0
C354 C 0.41581 0.91115 0.22106 0.0
C355 C 0.4217 0.90212 0.27196 0.0
H356 H 0.31649 0.84343 0.18685 0.0
H357 H 0.43908 0.93744 0.20615 0.0
H358 H 0.2613 0.9172 0.1032 0.0
H359 H 0.26288 1.0255 0.20386 0.0
H360 H 0.51685 0.82155 0.03902 0.0
H361 H 0.32642 0.82351 0.2774 0.0
H362 H 0.44905 0.92203 0.29492 0.0
C363 C 0.45356 1.01339 0.67655 0.0
C364 C 0.50488 1.02654 0.67219 0.0
N365 N 0.53371 0.98997 0.66311 0.0
N366 N 0.45035 0.96857 0.6711 0.0
C367 C 0.50006 0.95537 0.66296 0.0
H368 H 0.42091 0.03536 0.68323 0.0
Co369 Co 0.39066 0.93239 0.67346 0.0
C370 C 0.4324 0.84404 0.71387 0.0
O371 O 0.3981 0.82384 0.6832 0.0
N372 N 0.33097 0.89678 0.67671 0.0
C373 C 0.26696 0.85889 0.71066 0.0
C374 C 0.31596 0.87665 0.71918 0.0
C375 C 0.28957 0.89204 0.64335 0.0
N376 N 0.25024 0.86886 0.66304 0.0
O377 O 0.36698 0.96471 0.73225 0.0
H378 H 0.33831 0.87673 0.75494 0.0
H379 H 0.28614 0.90866 0.60716 0.0
O380 O 0.43349 0.8871 0.71445 0.0
C381 C 0.33282 0.9928 0.71354 0.0
O382 O 0.32643 0.99487 0.66423 0.0
N383 N 0.40682 0.90705 0.61132 0.0
C384 C 0.40799 0.88417 0.50968 0.0
C385 C 0.3799 0.92146 0.52504 0.0
C386 C 0.38041 0.93248 0.57572 0.0
C387 C 0.43819 0.87258 0.59695 0.0
C388 C 0.43859 0.86004 0.54599 0.0
H389 H 0.35823 0.96123 0.58694 0.0
H390 H 0.46336 0.85475 0.62395 0.0
H391 H 0.51174 0.92095 0.65783 0.0
H392 H 0.51983 0.06031 0.67497 0.0
H393 H 0.24403 0.84231 0.73831 0.0
H394 H 0.35745 0.94204 0.49802 0.0
H395 H 0.46196 0.8316 0.53528 0.0
C396 C 0.68838 0.5657 0.41888 0.0
C397 C 0.73925 0.55004 0.41988 0.0
N398 N 0.77164 0.58528 0.41754 0.0
N399 N 0.68852 0.61073 0.41597 0.0
C400 C 0.73988 0.62159 0.41512 0.0
H401 H 0.65373 0.54514 0.41885 0.0
Co402 Co 0.63098 0.64968 0.40875 0.0
C403 C 0.66941 0.7362 0.45876 0.0
O404 O 0.63427 0.76045 0.43314 0.0
N405 N 0.57204 0.68917 0.40072 0.0
C406 C 0.50989 0.73432 0.3666 0.0
C407 C 0.55993 0.71844 0.36271 0.0
C408 C 0.52836 0.68923 0.42772 0.0
N409 N 0.48983 0.71513 0.40696 0.0
O410 O 0.59944 0.62129 0.46575 0.0
H411 H 0.58405 0.72652 0.33189 0.0
H412 H 0.52294 0.66905 0.46064 0.0
O413 O 0.67049 0.69365 0.45231 0.0
C414 C 0.56742 0.59119 0.44866 0.0
O415 O 0.56425 0.58424 0.39971 0.0
N416 N 0.65712 0.67111 0.34915 0.0
C417 C 0.6593 0.69806 0.24908 0.0
C418 C 0.68752 0.72186 0.28722 0.0
C419 C 0.68607 0.70769 0.33767 0.0
C420 C 0.63464 0.64521 0.31197 0.0
C421 C 0.63483 0.65822 0.26183 0.0
H422 H 0.70543 0.7274 0.36701 0.0
H423 H 0.61293 0.61583 0.32182 0.0
H424 H 0.7535 0.65543 0.41033 0.0
H425 H 0.75142 0.51532 0.42134 0.0
H426 H 0.48824 0.75506 0.33919 0.0
H427 H 0.70819 0.75205 0.27859 0.0
H428 H 0.61438 0.63794 0.23336 0.0
C429 C 0.58135 0.57739 0.90974 0.0
C430 C 0.53103 0.56301 0.91679 0.0
N431 N 0.49717 0.592 0.89358 0.0
N432 N 0.5794 0.61538 0.88236 0.0
C433 C 0.52749 0.62335 0.87296 0.0
H434 H 0.6171 0.56199 0.92522 0.0
Co435 Co 0.63778 0.6508 0.87103 0.0
C436 C 0.59204 0.73784 0.83015 0.0
O437 O 0.62773 0.76 0.85734 0.0
N438 N 0.69667 0.68532 0.85972 0.0
C439 C 0.75853 0.72201 0.82076 0.0
C440 C 0.70844 0.70525 0.81602 0.0
C441 C 0.7407 0.68914 0.88964 0.0
N442 N 0.77851 0.71187 0.86731 0.0
O443 O 0.65331 0.61636 0.81091 0.0
H444 H 0.68312 0.70571 0.78205 0.0
H445 H 0.74718 0.6721 0.92522 0.0
O446 O 0.59197 0.69486 0.83211 0.0
C447 C 0.68875 0.58713 0.82366 0.0
O448 O 0.70227 0.58311 0.87189 0.0
N449 N 0.62889 0.67891 0.93367 0.0
C450 C 0.63754 0.7068 0.03422 0.0
C451 C 0.60102 0.72725 0.99984 0.0
C452 C 0.59685 0.7124 0.9494 0.0
C453 C 0.66044 0.65634 0.96804 0.0
C454 C 0.66632 0.6702 0.01786 0.0
H455 H 0.56749 0.72732 0.92389 0.0
H456 H 0.68225 0.62746 0.95621 0.0
H457 H 0.51181 0.65262 0.85353 0.0
H458 H 0.52036 0.5337 0.93777 0.0
H459 H 0.77955 0.73831 0.79151 0.0
H460 H 0.57595 0.75411 0.01188 0.0
H461 H 0.69248 0.65162 0.04375 0.0
C462 C 0.32584 0.47903 0.67124 0.0
C463 C 0.2758 0.49375 0.67949 0.0
N464 N 0.24385 0.47998 0.64073 0.0
N465 N 0.3251 0.45534 0.62794 0.0
C466 C 0.27463 0.45706 0.60982 0.0
H467 H 0.3601 0.48311 0.69656 0.0
Co468 Co 0.38178 0.42284 0.60468 0.0
C469 C 0.32745 0.33863 0.57282 0.0
O470 O 0.35999 0.31745 0.60464 0.0
N471 N 0.43932 0.3924 0.57943 0.0
C472 C 0.49675 0.35163 0.53849 0.0
C473 C 0.44444 0.3587 0.54603 0.0
C474 C 0.48863 0.40747 0.58772 0.0
N475 N 0.5246 0.38229 0.56535 0.0
O476 O 0.38713 0.46346 0.54868 0.0
H477 H 0.41295 0.34039 0.52716 0.0
H478 H 0.4982 0.43598 0.61143 0.0
O479 O 0.33219 0.38117 0.56741 0.0
C480 C 0.41503 0.49612 0.56617 0.0
O481 O 0.42344 0.49863 0.61534 0.0
N482 N 0.38272 0.3873 0.66508 0.0
C483 C 0.3872 0.36628 0.76805 0.0
C484 C 0.33938 0.3642 0.73958 0.0
C485 C 0.33799 0.37467 0.68786 0.0
C486 C 0.42977 0.38567 0.6921 0.0
C487 C 0.433 0.37409 0.74287 0.0
H488 H 0.30029 0.37656 0.66736 0.0
H489 H 0.46504 0.39751 0.6767 0.0
H490 H 0.25997 0.43956 0.57636 0.0
H491 H 0.2634 0.51166 0.71231 0.0
H492 H 0.51276 0.32449 0.51709 0.0
H493 H 0.303 0.35816 0.75777 0.0
H494 H 0.47082 0.3754 0.7634 0.0
C495 C 0.44084 0.50098 0.13578 0.0
C496 C 0.49151 0.51416 0.12777 0.0
N497 N 0.52274 0.47773 0.13081 0.0
N498 N 0.44041 0.45655 0.14448 0.0
C499 C 0.49095 0.44348 0.14131 0.0
H500 H 0.40653 0.52237 0.13436 0.0
Co501 Co 0.38265 0.42007 0.15388 0.0
C502 C 0.43064 0.33326 0.18948 0.0
O503 O 0.39705 0.3125 0.15855 0.0
N504 N 0.32494 0.3838 0.16453 0.0
C505 C 0.26765 0.34083 0.20198 0.0
C506 C 0.31627 0.36017 0.2067 0.0
C507 C 0.27985 0.38048 0.13628 0.0
N508 N 0.24469 0.3537 0.15749 0.0
O509 O 0.36583 0.45268 0.21416 0.0
H510 H 0.34295 0.3582 0.23965 0.0
H511 H 0.27128 0.40052 0.10313 0.0
O512 O 0.42926 0.37618 0.19175 0.0
C513 C 0.32943 0.48052 0.19987 0.0
O514 O 0.31688 0.48327 0.15135 0.0
N515 N 0.39259 0.39398 0.0901 0.0
C516 C 0.39326 0.37549 0.987 0.0
C517 C 0.42869 0.35374 0.02115 0.0
C518 C 0.42847 0.36417 0.07286 0.0
C519 C 0.35981 0.41638 0.05653 0.0
C520 C 0.35878 0.40717 1.00523 0.0
H521 H 0.45845 0.34964 0.09798 0.0
H522 H 0.33494 0.44276 0.06961 0.0
H523 H 0.50439 0.40937 0.14645 0.0
H524 H 0.50421 0.54764 0.11911 0.0
H525 H 0.24993 0.32033 0.23003 0.0
H526 H 0.4576 0.33053 1.00776 0.0
H527 H 0.33241 0.42592 0.97968 0.0
C528 C 0.35354 0.05773 0.40344 0.0
C529 C 0.32235 0.09142 0.37989 0.0
C530 C 0.40828 0.05653 0.39918 0.0
C531 C 0.43419 0.08866 0.37061 0.0
H532 H 0.33549 0.03248 0.42601 0.0
H533 H 0.43047 1.0305 0.41911 0.0
S534 S 0.36876 0.18099 0.29686 0.0
N535 N 0.3204 0.15605 0.32469 0.0
N536 N 0.42264 0.15327 0.31501 0.0
C537 C 0.40292 0.12191 0.34575 0.0
C538 C 0.34726 0.12341 0.3508 0.0
C539 C 0.91657 0.22539 0.34662 0.0
C540 C 0.93168 0.22724 0.39839 0.0
C541 C 0.86364 0.22486 0.32998 0.0
C542 C 0.82368 0.22671 0.36447 0.0
H543 H 0.94587 0.22289 0.31864 0.0
H544 H 0.85412 0.22068 0.29006 0.0
S545 S 0.84092 0.24168 0.50287 0.0
N546 N 0.90115 0.23659 0.48358 0.0
N547 N 0.80201 0.2384 0.45143 0.0
C548 C 0.83789 0.23291 0.41574 0.0
C549 C 0.89178 0.23262 0.43296 0.0
C550 C 0.40322 0.21366 0.86273 0.0
C551 C 0.42176 0.2119 0.91349 0.0
C552 C 0.3495 0.21541 0.8497 0.0
C553 C 0.31234 0.21598 0.88697 0.0
H554 H 0.4305 0.21333 0.83278 0.0
H555 H 0.33691 0.21564 0.81011 0.0
S556 S 0.33966 0.21322 0.02531 0.0
N557 N 0.39817 0.21083 1.00143 0.0
N558 N 0.29702 0.21605 0.97643 0.0
C559 C 0.33004 0.21501 0.93783 0.0
C560 C 0.38483 0.21281 0.95126 0.0
C561 C 0.8966 0.11348 0.90369 0.0
C562 C 0.92324 0.08115 0.87612 0.0
C563 C 0.84194 0.11219 0.9071 0.0
C564 C 0.81139 0.07871 0.88271 0.0
H565 H 0.91833 0.13969 0.92344 0.0
H566 H 0.82362 0.13743 0.92961 0.0
S567 S 0.86222 0.98724 0.8036 0.0
N568 N 0.91511 1.01519 0.82302 0.0
N569 N 0.81233 1.01314 0.82836 0.0
C570 C 0.83762 0.04622 0.85469 0.0
C571 C 0.89348 0.04736 0.85165 0.0
C572 C 0.67873 1.00382 0.68856 0.0
C573 C 0.70062 0.98285 0.64665 0.0
C574 C 0.6243 1.00684 0.6931 0.0
C575 C 0.58932 0.98806 0.6567 0.0
H576 H 0.70353 1.0173 0.71903 0.0
H577 H 0.60935 1.02289 0.72606 0.0
S578 S 0.62358 0.93369 0.53747 0.0
N579 N 0.68081 0.94687 0.56535 0.0
N580 N 0.57872 0.95039 0.57616 0.0
C581 C 0.60979 0.96773 0.61433 0.0
C582 C 0.6653 0.96562 0.60877 0.0
C583 C 0.10364 0.87209 0.65636 0.0
C584 C 0.09076 0.86396 0.60509 0.0
C585 C 0.15568 0.87315 0.67484 0.0
C586 C 0.19707 0.86578 0.64288 0.0
H587 H 0.07311 0.87769 0.68259 0.0
H588 H 0.16353 0.88058 0.71441 0.0
S589 S 0.18435 0.84079 0.50598 0.0
N590 N 0.12317 0.84732 0.52263 0.0
N591 N 0.222 0.84839 0.55783 0.0
C592 C 0.18495 0.85688 0.59159 0.0
C593 C 0.13152 0.85595 0.57261 0.0
C594 C 0.66935 0.83587 0.11123 0.0
C595 C 0.68568 0.83591 0.16272 0.0
C596 C 0.6162 0.8368 0.09576 0.0
C597 C 0.57716 0.83708 0.13122 0.0
H598 H 0.69793 0.83671 0.08246 0.0
H599 H 0.6059 0.83974 0.05584 0.0
S600 S 0.59813 0.82679 0.27008 0.0
N601 N 0.65777 0.83046 0.24907 0.0
N602 N 0.55784 0.82854 0.21944 0.0
C603 C 0.59264 0.83229 0.18255 0.0
C604 C 0.6469 0.8325 0.1985 0.0
C605 C 0.10413 0.96714 0.09722 0.0
C606 C 0.07451 0.97086 0.14037 0.0
C607 C 0.15928 0.96751 0.10102 0.0
C608 C 0.18679 0.97261 0.14795 0.0
H609 H 0.08446 0.96301 0.06039 0.0
H610 H 0.18066 0.96414 0.06699 0.0
S611 S 0.1274 0.98432 0.27213 0.0
N612 N 0.07654 0.97999 0.2313 0.0
N613 N 0.18011 0.98134 0.23853 0.0
C614 C 0.15756 0.97687 0.19132 0.0
C615 C 0.10145 0.97574 0.1875 0.0
C616 C 0.35654 0.60031 0.84362 0.0
C617 C 0.32807 0.58911 0.88587 0.0
C618 C 0.41167 0.60145 0.84658 0.0
C619 C 0.44047 0.59059 0.89161 0.0
H620 H 0.33592 0.60923 0.80833 0.0
H621 H 0.43202 0.61054 0.81326 0.0
S622 S 0.38439 0.55799 0.01261 0.0
N623 N 0.33253 0.56653 0.97381 0.0
N624 N 0.43615 0.56801 0.97939 0.0
C625 C 0.41243 0.57872 0.93396 0.0
C626 C 0.35625 0.57824 0.9311 0.0
C627 C 0.8727 0.70798 0.8526 0.0
C628 C 0.83223 0.71496 0.88569 0.0
C629 C 0.92494 0.70539 0.87074 0.0
C630 C 0.93854 0.71006 0.92247 0.0
H631 H 0.86383 0.70273 0.81273 0.0
H632 H 0.95496 0.69926 0.84412 0.0
S633 S 0.84815 0.73452 0.02355 0.0
N634 N 0.80949 0.73038 0.97192 0.0
N635 N 0.90844 0.72563 1.00588 0.0
C636 C 0.89893 0.71926 0.95561 0.0
C637 C 0.84552 0.72143 0.93727 0.0
C638 C 0.4037 0.75037 0.41082 0.0
C639 C 0.4348 0.71175 0.41448 0.0
C640 C 0.34923 0.74787 0.40359 0.0
C641 C 0.32431 0.70643 0.40058 0.0
H642 H 0.42234 0.78237 0.41038 0.0
H643 H 0.32642 0.77814 0.39767 0.0
S644 S 0.38713 0.59484 0.41161 0.0
N645 N 0.43636 0.63044 0.41748 0.0
N646 N 0.33335 0.62571 0.40492 0.0
C647 C 0.35428 0.66734 0.40801 0.0
C648 C 0.40988 0.66995 0.41488 0.0
C649 C 0.85102 0.54877 0.38662 0.0
C650 C 0.8278 0.58388 0.41307 0.0
C651 C 0.90529 0.54739 0.38044 0.0
C652 C 0.93844 0.58111 0.40037 0.0
H653 H 0.82691 0.52263 0.36954 0.0
H654 H 0.92132 0.52027 0.35894 0.0
S655 S 0.89828 0.67745 0.47784 0.0
N656 N 0.84286 0.65127 0.46268 0.0
N657 N 0.94483 0.64858 0.4513 0.0
C658 C 0.91602 0.61573 0.42813 0.0
C659 C 0.86073 0.61715 0.43438 0.0
C660 C 0.6117 0.50893 0.1445 0.0
C661 C 0.57839 0.47568 0.12389 0.0
C662 C 0.66612 0.50695 0.13924 0.0
C663 C 0.68939 0.4718 0.11275 0.0
H664 H 0.5956 0.53622 0.16571 0.0
H665 H 0.69022 0.53284 0.1568 0.0
S666 S 0.61815 0.37889 0.04711 0.0
N667 N 0.57171 0.40816 0.07329 0.0
N668 N 0.67379 0.4046 0.06271 0.0
C669 C 0.65618 0.43883 0.09097 0.0
C670 C 0.60077 0.44076 0.09666 0.0
C671 C 0.15212 0.3405 0.17553 0.0
C672 C 0.1909 0.34694 0.1403 0.0
C673 C 0.09893 0.3394 0.16024 0.0
C674 C 0.08265 0.34475 0.10934 0.0
H675 H 0.16251 0.3379 0.21544 0.0
H676 H 0.07016 0.3349 0.18845 0.0
S677 S 0.16796 0.36235 1.00202 0.0
N678 N 0.20903 0.35586 0.05157 0.0
N679 N 0.10871 0.35809 0.02379 0.0
C680 C 0.12074 0.35059 0.07358 0.0
C681 C 0.17498 0.35055 0.08886 0.0
C682 C 0.5964 0.39292 0.6293 0.0
C683 C 0.57973 0.38087 0.5797 0.0
C684 C 0.6479 0.38582 0.64739 0.0
C685 C 0.68495 0.36687 0.61656 0.0
H686 H 0.56904 0.40605 0.65546 0.0
H687 H 0.65901 0.3956 0.68574 0.0
S688 S 0.66358 0.33191 0.4834 0.0
N689 N 0.6057 0.35085 0.49931 0.0
N690 N 0.70341 0.33767 0.53406 0.0
C691 C 0.66984 0.35579 0.56663 0.0
C692 C 0.61701 0.36276 0.54801 0.0
C693 C 0.10432 0.46936 0.67737 0.0
C694 C 0.07566 0.48319 0.63344 0.0
C695 C 0.15935 0.46925 0.67978 0.0
C696 C 0.18748 0.48194 0.63791 0.0
H697 H 0.08393 0.45919 0.71027 0.0
H698 H 0.18016 0.45842 0.71428 0.0
S699 S 0.13091 0.51983 0.51375 0.0
N700 N 0.07926 0.50958 0.54704 0.0
N701 N 0.18297 0.50841 0.55133 0.0
C702 C 0.15935 0.49532 0.59358 0.0
C703 C 0.10331 0.49622 0.5914 0.0
C704 C 0.16805 0.22274 0.15938 0.0
C705 C 0.12418 0.22356 0.1895 0.0
C706 C 0.16157 0.22245 0.10643 0.0
C707 C 0.11113 0.22278 0.0823 0.0
H708 H 0.20721 0.21872 0.17665 0.0
H709 H 0.19592 0.21854 0.08439 0.0
S710 S 0.98467 0.23396 0.14361 0.0
N711 N 0.02933 0.23267 0.19092 0.0
N712 N 0.01742 0.22972 0.0917 0.0
C713 C 0.06749 0.22761 0.11175 0.0
C714 C 0.07399 0.22877 0.16534 0.0
C715 C 0.8546 0.82816 0.91324 0.0
C716 C 0.89782 0.84551 0.94185 0.0
C717 C 0.85315 0.82796 0.86034 0.0
C718 C 0.89418 0.84647 0.83379 0.0
H719 H 0.82083 0.81581 0.93199 0.0
H720 H 0.81901 0.81409 0.84019 0.0
S721 S 0.01362 0.90105 0.89156 0.0
N722 N 0.98155 0.88332 0.94012 0.0
N723 N 0.97792 0.88572 0.84095 0.0
C724 C 0.93757 0.86439 0.8622 0.0
C725 C 0.93957 0.86331 0.91608 0.0
C726 C 0.13893 0.73585 0.61338 0.0
C727 C 0.12599 0.693 0.59474 0.0
C728 C 0.14814 0.7434 0.66551 0.0
C729 C 0.14543 0.70808 0.70016 0.0
H730 H 0.14277 0.76333 0.58741 0.0
H731 H 0.15684 0.77682 0.67886 0.0
S732 S 0.10965 0.59079 0.67161 0.0
N733 N 0.10758 0.6157 0.61603 0.0
N734 N 0.12731 0.62961 0.71303 0.0
C735 C 0.13235 0.66538 0.68204 0.0
C736 C 0.12194 0.65789 0.62961 0.0
C737 C 0.84214 0.349 0.40425 0.0
C738 C 0.8923 0.35158 0.42903 0.0
C739 C 0.8361 0.34507 0.35172 0.0
C740 C 0.87994 0.34276 0.32189 0.0
H741 H 0.80714 0.35265 0.42543 0.0
H742 H 0.79685 0.34637 0.33404 0.0
S743 S 0.01959 0.33975 0.36846 0.0
N744 N 0.98654 0.34572 0.42 0.0
N745 N 0.97504 0.33729 0.3211 0.0
C746 C 0.93018 0.34065 0.34639 0.0
C747 C 0.93641 0.34518 0.40006 0.0
C748 C 0.63309 0.14704 0.60542 0.0
C749 C 0.61434 0.18477 0.57761 0.0
C750 C 0.63639 0.14678 0.65807 0.0
C751 C 0.61997 0.18376 0.68545 0.0
H752 H 0.64521 0.11693 0.58652 0.0
H753 H 0.65121 0.11709 0.67758 0.0
S754 S 0.55632 0.286 0.63384 0.0
N755 N 0.57275 0.25805 0.58328 0.0
N756 N 0.57681 0.25579 0.68298 0.0
C757 C 0.598 0.22041 0.65919 0.0
C758 C 0.59533 0.22124 0.60515 0.0
C759 C 0.35098 0.86651 0.37679 0.0
C760 C 0.39586 0.86321 0.34851 0.0
C761 C 0.35542 0.87064 0.42937 0.0
C762 C 0.4049 0.87212 0.45554 0.0
H763 H 0.31225 0.86819 0.35806 0.0
H764 H 0.3198 0.87441 0.4496 0.0
S765 S 0.53434 0.85968 0.39946 0.0
N766 N 0.49129 0.85697 0.3509 0.0
N767 N 0.49954 0.86689 0.44966 0.0
C768 C 0.45006 0.86685 0.42803 0.0
C769 C 0.44555 0.86199 0.37452 0.0
C770 C 0.59818 0.71638 0.11781 0.0
C771 C 0.64243 0.71885 0.08856 0.0
C772 C 0.60385 0.71365 0.17058 0.0
C773 C 0.6539 0.71342 0.19586 0.0
H774 H 0.55935 0.7128 0.09977 0.0
H775 H 0.56899 0.70877 0.19159 0.0
S776 S 0.78093 0.72935 0.13711 0.0
N777 N 0.73707 0.72876 0.08904 0.0
N778 N 0.74754 0.72295 0.18827 0.0
C779 C 0.69784 0.72078 0.16745 0.0
C780 C 0.69213 0.72357 0.11373 0.0
C781 C 0.36752 0.33357 0.85279 0.0
C782 C 0.38945 0.36763 0.82412 0.0
C783 C 0.37099 0.33488 0.90595 0.0
C784 C 0.39595 0.37057 0.93178 0.0
H785 H 0.34741 0.30611 0.8339 0.0
H786 H 0.35272 0.30874 0.92698 0.0
S787 S 0.45373 0.47046 0.87435 0.0
N788 N 0.43311 0.43971 0.82579 0.0
N789 N 0.43956 0.44196 0.92513 0.0
C790 C 0.41684 0.40518 0.90355 0.0
C791 C 0.41354 0.40382 0.84987 0.0
C792 C 0.25163 0.3336 0.50812 0.0
C793 C 0.28856 0.31209 0.54114 0.0
C794 C 0.21489 0.30912 0.47812 0.0
C795 C 0.21334 0.26192 0.47956 0.0
H796 H 0.2509 0.36972 0.50538 0.0
H797 H 0.18746 0.32763 0.45345 0.0
S798 S 0.30156 0.18892 0.5594 0.0
N799 N 0.32114 0.24013 0.57329 0.0
N800 N 0.25242 0.19469 0.51695 0.0
C801 C 0.25004 0.23992 0.51236 0.0
C802 C 0.28744 0.2648 0.54305 0.0
C803 C 0.99644 0.04795 0.55892 0.0
C804 C 0.96837 1.01069 0.53885 0.0
C805 C 0.03125 0.07255 0.53019 0.0
C806 C 0.03959 0.06106 0.47996 0.0
H807 H 0.99167 0.05831 0.59752 0.0
H808 H 0.05079 0.10132 0.54713 0.0
S809 S 0.9786 0.96508 0.40991 0.0
N810 N 0.9533 0.96283 0.46588 0.0
N811 N 0.01822 1.00859 0.41179 0.0
C812 C 0.01222 1.02359 0.45951 0.0
C813 C 0.97674 0.99864 0.48882 0.0
C814 C 0.2852 1.00787 0.79312 0.0
C815 C 0.29661 1.02019 0.74385 0.0
C816 C 0.24658 1.0308 0.81928 0.0
C817 C 0.21743 0.06693 0.79734 0.0
H818 H 0.30537 0.97974 0.81124 0.0
H819 H 0.2394 1.01985 0.85722 0.0
S820 S 0.23466 0.11467 0.67047 0.0
N821 N 0.27716 0.07286 0.67499 0.0
N822 N 0.20473 0.11504 0.72418 0.0
C823 C 0.22889 0.07994 0.7484 0.0
C824 C 0.26843 0.05691 0.72181 0.0
C825 C 0.96967 0.3246 0.77001 0.0
C826 C 0.95861 0.31028 0.72024 0.0
C827 C 0.99754 0.29707 0.8052 0.0
C828 C 0.01654 0.25442 0.79194 0.0
H829 H 0.95473 0.35647 0.78251 0.0
H830 H 1.00345 0.30912 0.84356 0.0
S831 S 1.003 0.20333 0.66476 0.0
N832 N 0.9721 0.25183 0.65837 0.0
N833 N 0.02535 0.20082 0.72425 0.0
C834 C 0.00826 0.24076 0.74156 0.0
C835 C 0.97902 0.26845 0.70588 0.0
C836 C 0.75734 0.82886 0.51579 0.0
C837 C 0.79218 0.80597 0.54978 0.0
C838 C 0.7177 0.80613 0.48717 0.0
C839 C 0.71112 0.75936 0.49086 0.0
H840 H 0.76043 0.86472 0.51135 0.0
H841 H 0.69223 0.82558 0.46153 0.0
S842 S 0.79053 0.68344 0.57543 0.0
N843 N 0.81625 0.73325 0.58606 0.0
N844 N 0.74235 0.69124 0.53238 0.0
C845 C 0.74547 0.73607 0.52482 0.0
C846 C 0.78567 0.75913 0.55417 0.0
C847 C 0.75667 1.02438 0.30359 0.0
C848 C 0.72245 0.05643 0.27995 0.0
C849 C 0.79195 0.99877 0.27636 0.0
C850 C 0.79481 1.0039 0.22404 0.0
H851 H 0.75641 1.01879 0.34391 0.0
H852 H 0.81657 0.97432 0.29645 0.0
S853 S 0.71483 0.0839 0.14366 0.0
N854 N 0.69449 0.09209 0.201 0.0
N855 N 0.76042 0.04456 0.14943 0.0
C856 C 0.76097 0.03608 0.1998 0.0
C857 C 0.72491 0.06206 0.22771 0.0
C858 C 1.00589 0.82032 0.26452 0.0
C859 C 0.96873 0.79795 0.23279 0.0
C860 C 0.04274 0.79667 0.29588 0.0
C861 C 0.04436 0.74941 0.29719 0.0
H862 H 1.00675 0.8565 0.26517 0.0
H863 H 0.07031 0.81589 0.31935 0.0
S864 S 0.95532 0.67429 0.222 0.0
N865 N 0.93583 0.72507 0.20519 0.0
N866 N 1.00472 0.68124 0.26385 0.0
C867 C 1.00734 0.72657 0.26579 0.0
C868 C 0.96976 0.7506 0.23379 0.0
C869 C 0.26829 0.82456 0.02301 0.0
C870 C 0.30257 0.80235 0.05797 0.0
C871 C 0.23338 0.80088 0.99039 0.0
C872 C 0.23066 0.75373 0.99116 0.0
H873 H 0.2686 0.86069 0.02034 0.0
H874 H 0.20827 0.82008 0.96421 0.0
S875 S 0.31109 0.67904 0.07625 0.0
N876 N 0.33101 0.72984 0.09178 0.0
N877 N 0.26511 0.68574 0.03076 0.0
C878 C 0.26421 0.73097 0.02633 0.0
C879 C 0.30013 0.75511 0.05953 0.0
C880 C 0.02705 0.51371 0.95664 0.0
C881 C 0.05479 0.54983 0.97978 0.0
C882 C 0.99054 0.48822 0.98253 0.0
C883 C 0.97996 0.49765 0.03286 0.0
H884 H 0.03338 0.50501 0.9178 0.0
H885 H 0.97119 0.46049 0.96322 0.0
S886 S 0.03945 0.59003 0.11033 0.0
N887 N 0.06733 0.59428 0.05576 0.0
N888 N 0.99921 0.5471 0.10443 0.0
C889 C 1.0071 0.53394 0.05635 0.0
C890 C 0.04435 0.55973 0.02997 0.0
C891 C 0.2243 0.56032 0.24548 0.0
C892 C 0.22702 0.55465 0.29802 0.0
C893 C 0.25846 0.53696 0.21475 0.0
C894 C 0.29701 0.50672 0.23498 0.0
H895 H 0.19579 0.58316 0.22787 0.0
H896 H 0.25417 0.54264 0.17443 0.0
S897 S 0.32099 0.47959 0.37046 0.0
N898 N 0.27218 0.5161 0.36919 0.0
N899 N 0.33573 0.47274 0.31113 0.0
C900 C 0.30045 0.50089 0.28744 0.0
C901 C 0.26566 0.5246 0.31891 0.0
C902 C 0.78365 0.25428 0.03134 0.0
C903 C 0.79071 0.3009 0.02635 0.0
C904 C 0.74423 0.23126 1.00332 0.0
C905 C 0.7096 0.25359 0.96885 0.0
H906 H 0.8087 0.23497 0.05747 0.0
H907 H 0.74085 0.19556 1.00905 0.0
S908 S 0.71206 0.37533 0.93958 0.0
N909 N 0.76018 0.36835 0.98295 0.0
N910 N 0.68596 0.32543 0.93024 0.0
C911 C 0.71631 0.30024 0.963 0.0
C912 C 0.75674 0.32374 0.99169 0.0
C913 C 0.78709 0.50294 0.77317 0.0
C914 C 0.78692 0.51218 0.72125 0.0
C915 C 0.75422 0.52659 0.80512 0.0
C916 C 0.71945 0.56074 0.78691 0.0
H917 H 0.81243 0.47692 0.78931 0.0
H918 H 0.75642 0.51794 0.84481 0.0
S919 S 0.70438 0.59913 0.65409 0.0
N920 N 0.74899 0.55897 0.65313 0.0
N921 N 0.68781 0.6028 0.71327 0.0
C922 C 0.71882 0.57037 0.73511 0.0
C923 C 0.75234 0.54637 0.70243 0.0
C924 C 0.46685 0.99818 1.00045 0.0
C925 C 0.46229 1.00892 0.05145 0.0
C926 C 0.50188 1.02128 0.9708 0.0
C927 C 0.53404 0.0561 0.99077 0.0
H928 H 0.44384 0.97131 0.98341 0.0
H929 H 0.50354 1.01168 0.93156 0.0
S930 S 0.537 0.09791 0.12207 0.0
N931 N 0.49293 0.05764 0.1207 0.0
N932 N 0.55866 0.10027 0.0646 0.0
C933 C 0.53011 0.06714 0.04165 0.0
C934 C 0.4942 0.04388 0.07195 0.0
C935 C 0.50311 0.32742 0.25758 0.0
C936 C 0.46958 0.30648 0.22116 0.0
C937 C 0.5395 0.30269 0.2881 0.0
C938 C 0.54426 0.25583 0.28358 0.0
H939 H 0.50115 0.36327 0.26285 0.0
H940 H 0.56406 0.32069 0.31562 0.0
S941 S 0.46683 0.1846 0.19296 0.0
N942 N 0.44436 0.23564 0.18179 0.0
N943 N 0.5126 0.18963 0.23882 0.0
C944 C 0.51127 0.23445 0.24704 0.0
C945 C 0.47409 0.25959 0.216 0.0
C946 C 0.51166 0.83655 0.77477 0.0
C947 C 0.47206 0.81625 0.74395 0.0
C948 C 0.54998 0.81092 0.80207 0.0
C949 C 0.55078 0.7637 0.79987 0.0
H950 H 0.51333 0.87261 0.77779 0.0
H951 H 0.57931 0.82858 0.82519 0.0
S952 S 0.45631 0.69359 0.72436 0.0
N953 N 0.43631 0.74533 0.71297 0.0
N954 N 0.50843 0.69786 0.76349 0.0
C955 C 0.51154 0.74293 0.76908 0.0
C956 C 0.47231 0.76895 0.74142 0.0
C957 C 0.50164 0.53032 0.46004 0.0
C958 C 0.529 0.56785 0.48009 0.0
C959 C 0.46264 0.50867 0.48653 0.0
C960 C 0.44903 0.5237 0.53427 0.0
H961 H 0.51064 0.51714 0.42346 0.0
H962 H 0.4443 0.47915 0.4701 0.0
S963 S 0.50584 0.62237 0.60242 0.0
N964 N 0.53784 0.62001 0.54995 0.0
N965 N 0.46427 0.58022 0.59945 0.0
C966 C 0.47509 0.56195 0.55422 0.0
C967 C 0.51517 0.58368 0.52739 0.0
loop_
_geom_bond_atom_site_label_1
_geom_bond_atom_site_label_2
_geom_bond_distance
_geom_bond_site_symmetry_2
_ccdc_geom_bond_type
C0 C1 1.351 . S
C0 N3 1.368 . S
C0 H5 0.931 . S
C1 C0 1.351 . S
C1 N2 1.373 . S
C1 H29 0.930 . S
N2 C1 1.373 . S
N2 C4 1.340 . S
N3 C0 1.368 . S
N3 C4 1.321 . S
N3 Co6 2.135 . S
C4 N2 1.340 . S
C4 N3 1.321 . S
C4 H28 0.930 . S
H5 C0 0.931 . S
Co6 N3 2.135 . S
Co6 N9 2.121 . S
Co6 O14 2.055 . S
Co6 O17 2.039 . S
Co6 N20 2.140 . S
C7 O8 1.227 . S
C7 O17 1.265 . S
O8 C7 1.227 . S
N9 Co6 2.121 . S
N9 C11 1.375 . S
N9 C12 1.313 . S
C10 C11 1.338 1_655 S
C10 N13 1.377 . S
C10 H30 0.930 . S
C11 N9 1.375 . S
C11 C10 1.338 1_455 S
C11 H15 0.931 . S
C12 N9 1.313 . S
C12 N13 1.344 1_455 S
C12 H16 0.933 . S
N13 C10 1.377 . S
N13 C12 1.344 1_655 S
O14 Co6 2.055 . S
O14 C18 1.253 . S
H15 C11 0.931 . S
H16 C12 0.933 . S
O17 Co6 2.039 . S
O17 C7 1.265 . S
C18 O14 1.253 . S
C18 O19 1.227 . S
O19 C18 1.227 . S
N20 Co6 2.140 . S
N20 C23 1.346 . S
N20 C24 1.345 . S
C21 C22 1.387 . S
C21 C25 1.391 . S
C22 C21 1.387 . S
C22 C23 1.369 . S
C22 H31 0.929 . S
C23 N20 1.346 . S
C23 C22 1.369 . S
C23 H26 0.928 . S
C24 N20 1.345 . S
C24 C25 1.371 . S
C24 H27 0.931 . S
C25 C21 1.391 . S
C25 C24 1.371 . S
C25 H32 0.930 . S
H26 C23 0.928 . S
H27 C24 0.931 . S
H28 C4 0.930 . S
H29 C1 0.930 . S
H30 C10 0.930 . S
H31 C22 0.929 . S
H32 C25 0.930 . S
C33 C34 1.351 1_455 S
C33 N36 1.368 . S
C33 H38 0.931 . S
C34 C33 1.351 1_655 S
C34 N35 1.373 . S
C34 H62 0.930 . S
N35 C34 1.373 . S
N35 C37 1.340 1_655 S
N36 C33 1.368 . S
N36 C37 1.321 . S
N36 Co39 2.135 . S
C37 N35 1.340 1_455 S
C37 N36 1.321 . S
C37 H61 0.930 1_455 S
H38 C33 0.931 . S
Co39 N36 2.135 . S
Co39 N42 2.121 . S
Co39 O47 2.055 . S
Co39 O50 2.039 . S
Co39 N53 2.140 . S
C40 O41 1.227 . S
C40 O50 1.265 . S
O41 C40 1.227 . S
N42 Co39 2.121 . S
N42 C44 1.375 . S
N42 C45 1.313 . S
C43 C44 1.338 . S
C43 N46 1.377 . S
C43 H63 0.930 . S
C44 N42 1.375 . S
C44 C43 1.338 . S
C44 H48 0.931 . S
C45 N42 1.313 . S
C45 N46 1.344 . S
C45 H49 0.930 . S
N46 C43 1.377 . S
N46 C45 1.344 . S
O47 Co39 2.055 . S
O47 C51 1.253 . S
H48 C44 0.931 . S
H49 C45 0.930 . S
O50 Co39 2.039 . S
O50 C40 1.265 . S
C51 O47 1.253 . S
C51 O52 1.227 . S
O52 C51 1.227 . S
N53 Co39 2.140 . S
N53 C56 1.346 . S
N53 C57 1.345 . S
C54 C55 1.387 1_554 S
C54 C58 1.391 . S
C55 C54 1.387 1_556 S
C55 C56 1.369 . S
C55 H64 0.929 1_556 S
C56 N53 1.346 . S
C56 C55 1.369 . S
C56 H59 0.928 . S
C57 N53 1.345 . S
C57 C58 1.371 1_556 S
C57 H60 0.931 . S
C58 C54 1.391 . S
C58 C57 1.371 1_554 S
C58 H65 0.930 . S
H59 C56 0.928 . S
H60 C57 0.931 . S
H61 C37 0.930 1_655 S
H62 C34 0.930 . S
H63 C43 0.930 . S
H64 C55 0.929 1_554 S
H65 C58 0.930 . S
C66 C67 1.351 . S
C66 N69 1.368 . S
C66 H71 0.931 . S
C67 C66 1.351 . S
C67 N68 1.373 . S
C67 H95 0.930 . S
N68 C67 1.373 . S
N68 C70 1.340 . S
N69 C66 1.368 . S
N69 C70 1.321 . S
N69 Co72 2.135 . S
C70 N68 1.340 . S
C70 N69 1.321 . S
C70 H94 0.930 . S
H71 C66 0.931 . S
Co72 N69 2.135 . S
Co72 N75 2.121 . S
Co72 O80 2.055 . S
Co72 O83 2.039 . S
Co72 N86 2.140 . S
C73 O74 1.227 . S
C73 O83 1.265 . S
O74 C73 1.227 . S
N75 Co72 2.121 . S
N75 C77 1.375 . S
N75 C78 1.313 . S
C76 C77 1.338 1_455 S
C76 N79 1.377 . S
C76 H96 0.930 . S
C77 N75 1.375 . S
C77 C76 1.338 1_655 S
C77 H81 0.931 . S
C78 N75 1.313 . S
C78 N79 1.344 1_655 S
C78 H82 0.933 . S
N79 C76 1.377 . S
N79 C78 1.344 1_455 S
O80 Co72 2.055 . S
O80 C84 1.253 . S
H81 C77 0.931 . S
H82 C78 0.933 . S
O83 Co72 2.039 . S
O83 C73 1.265 . S
C84 O80 1.253 . S
C84 O85 1.227 . S
O85 C84 1.227 . S
N86 Co72 2.140 . S
N86 C89 1.346 . S
N86 C90 1.345 . S
C87 C88 1.387 . S
C87 C91 1.391 . S
C88 C87 1.387 . S
C88 C89 1.369 . S
C88 H97 0.929 . S
C89 N86 1.346 . S
C89 C88 1.369 . S
C89 H92 0.928 . S
C90 N86 1.345 . S
C90 C91 1.371 . S
C90 H93 0.931 . S
C91 C87 1.391 . S
C91 C90 1.371 . S
C91 H98 0.930 . S
H92 C89 0.928 . S
H93 C90 0.931 . S
H94 C70 0.930 . S
H95 C67 0.930 . S
H96 C76 0.930 . S
H97 C88 0.929 . S
H98 C91 0.930 . S
C99 C100 1.351 1_655 S
C99 N102 1.368 . S
C99 H104 0.931 . S
C100 C99 1.351 1_455 S
C100 N101 1.373 . S
C100 H128 0.930 . S
N101 C100 1.373 . S
N101 C103 1.340 1_455 S
N102 C99 1.368 . S
N102 C103 1.321 . S
N102 Co105 2.135 . S
C103 N101 1.340 1_655 S
C103 N102 1.321 . S
C103 H127 0.930 1_655 S
H104 C99 0.931 . S
Co105 N102 2.135 . S
Co105 N108 2.121 . S
Co105 O113 2.055 . S
Co105 O116 2.039 . S
Co105 N119 2.140 . S
C106 O107 1.227 . S
C106 O116 1.265 . S
O107 C106 1.227 . S
N108 Co105 2.121 . S
N108 C110 1.375 . S
N108 C111 1.313 . S
C109 C110 1.338 . S
C109 N112 1.377 . S
C109 H129 0.930 . S
C110 N108 1.375 . S
C110 C109 1.338 . S
C110 H114 0.931 . S
C111 N108 1.313 . S
C111 N112 1.344 . S
C111 H115 0.930 . S
N112 C109 1.377 . S
N112 C111 1.344 . S
O113 Co105 2.055 . S
O113 C117 1.253 . S
H114 C110 0.931 . S
H115 C111 0.930 . S
O116 Co105 2.039 . S
O116 C106 1.265 . S
C117 O113 1.253 . S
C117 O118 1.227 . S
O118 C117 1.227 . S
N119 Co105 2.140 . S
N119 C122 1.346 . S
N119 C123 1.345 . S
C120 C121 1.387 1_556 S
C120 C124 1.391 . S
C121 C120 1.387 1_554 S
C121 C122 1.369 . S
C121 H130 0.929 1_554 S
C122 N119 1.346 . S
C122 C121 1.369 . S
C122 H125 0.928 . S
C123 N119 1.345 . S
C123 C124 1.371 1_554 S
C123 H126 0.931 . S
C124 C120 1.391 . S
C124 C123 1.371 1_556 S
C124 H131 0.930 . S
H125 C122 0.928 . S
H126 C123 0.931 . S
H127 C103 0.930 1_455 S
H128 C100 0.930 . S
H129 C109 0.930 . S
H130 C121 0.929 1_556 S
H131 C124 0.930 . S
C132 C133 1.351 . S
C132 N135 1.368 . S
C132 H137 0.931 . S
C133 C132 1.351 . S
C133 N134 1.373 . S
C133 H161 0.930 . S
N134 C133 1.373 . S
N134 C136 1.340 . S
N135 C132 1.368 . S
N135 C136 1.321 . S
N135 Co138 2.135 . S
C136 N134 1.340 . S
C136 N135 1.321 . S
C136 H160 0.930 . S
H137 C132 0.931 . S
Co138 N135 2.135 . S
Co138 N141 2.121 . S
Co138 O146 2.055 . S
Co138 O149 2.039 . S
Co138 N152 2.140 . S
C139 O140 1.227 . S
C139 O149 1.265 . S
O140 C139 1.227 . S
N141 Co138 2.121 . S
N141 C143 1.375 . S
N141 C144 1.313 . S
C142 C143 1.338 1_655 S
C142 N145 1.377 . S
C142 H162 0.930 . S
C143 N141 1.375 . S
C143 C142 1.338 1_455 S
C143 H147 0.931 . S
C144 N141 1.313 . S
C144 N145 1.344 1_455 S
C144 H148 0.933 . S
N145 C142 1.377 . S
N145 C144 1.344 1_655 S
O146 Co138 2.055 . S
O146 C150 1.253 . S
H147 C143 0.931 . S
H148 C144 0.933 . S
O149 Co138 2.039 . S
O149 C139 1.265 . S
C150 O146 1.253 . S
C150 O151 1.227 . S
O151 C150 1.227 . S
N152 Co138 2.140 . S
N152 C155 1.346 . S
N152 C156 1.345 . S
C153 C154 1.387 . S
C153 C157 1.391 . S
C154 C153 1.387 . S
C154 C155 1.369 . S
C154 H163 0.929 . S
C155 N152 1.346 . S
C155 C154 1.369 . S
C155 H158 0.928 . S
C156 N152 1.345 . S
C156 C157 1.371 . S
C156 H159 0.931 . S
C157 C153 1.391 . S
C157 C156 1.371 . S
C157 H164 0.930 . S
H158 C155 0.928 . S
H159 C156 0.931 . S
H160 C136 0.930 . S
H161 C133 0.930 . S
H162 C142 0.930 . S
H163 C154 0.929 . S
H164 C157 0.930 . S
C165 C166 1.351 1_455 S
C165 N168 1.368 . S
C165 H170 0.931 . S
C166 C165 1.351 1_655 S
C166 N167 1.373 . S
C166 H194 0.930 . S
N167 C166 1.373 . S
N167 C169 1.340 1_655 S
N168 C165 1.368 . S
N168 C169 1.321 . S
N168 Co171 2.135 . S
C169 N167 1.340 1_455 S
C169 N168 1.321 . S
C169 H193 0.930 1_455 S
H170 C165 0.931 . S
Co171 N168 2.135 . S
Co171 N174 2.121 . S
Co171 O179 2.055 . S
Co171 O182 2.039 . S
Co171 N185 2.140 . S
C172 O173 1.227 . S
C172 O182 1.265 . S
O173 C172 1.227 . S
N174 Co171 2.121 . S
N174 C176 1.375 . S
N174 C177 1.313 . S
C175 C176 1.338 . S
C175 N178 1.377 . S
C175 H195 0.930 . S
C176 N174 1.375 . S
C176 C175 1.338 . S
C176 H180 0.931 . S
C177 N174 1.313 . S
C177 N178 1.344 . S
C177 H181 0.930 . S
N178 C175 1.377 . S
N178 C177 1.344 . S
O179 Co171 2.055 . S
O179 C183 1.253 . S
H180 C176 0.931 . S
H181 C177 0.930 . S
O182 Co171 2.039 . S
O182 C172 1.265 . S
C183 O179 1.253 . S
C183 O184 1.227 . S
O184 C183 1.227 . S
N185 Co171 2.140 . S
N185 C188 1.346 . S
N185 C189 1.345 . S
C186 C187 1.387 . S
C186 C190 1.391 . S
C187 C186 1.387 . S
C187 C188 1.369 . S
C187 H196 0.929 . S
C188 N185 1.346 . S
C188 C187 1.369 . S
C188 H191 0.928 . S
C189 N185 1.345 . S
C189 C190 1.371 . S
C189 H192 0.931 . S
C190 C186 1.391 . S
C190 C189 1.371 . S
C190 H197 0.930 . S
H191 C188 0.928 . S
H192 C189 0.931 . S
H193 C169 0.930 1_655 S
H194 C166 0.930 . S
H195 C175 0.930 . S
H196 C187 0.929 . S
H197 C190 0.930 . S
C198 C199 1.351 . S
C198 N201 1.368 . S
C198 H203 0.931 . S
C199 C198 1.351 . S
C199 N200 1.373 . S
C199 H227 0.930 . S
N200 C199 1.373 . S
N200 C202 1.340 . S
N201 C198 1.368 . S
N201 C202 1.321 . S
N201 Co204 2.135 . S
C202 N200 1.340 . S
C202 N201 1.321 . S
C202 H226 0.930 . S
H203 C198 0.931 . S
Co204 N201 2.135 . S
Co204 N207 2.121 . S
Co204 O212 2.055 . S
Co204 O215 2.039 . S
Co204 N218 2.140 . S
C205 O206 1.227 . S
C205 O215 1.265 . S
O206 C205 1.227 . S
N207 Co204 2.121 . S
N207 C209 1.375 . S
N207 C210 1.313 . S
C208 C209 1.338 1_455 S
C208 N211 1.377 . S
C208 H228 0.930 . S
C209 N207 1.375 . S
C209 C208 1.338 1_655 S
C209 H213 0.931 . S
C210 N207 1.313 . S
C210 N211 1.344 1_655 S
C210 H214 0.933 . S
N211 C208 1.377 . S
N211 C210 1.344 1_455 S
O212 Co204 2.055 . S
O212 C216 1.253 . S
H213 C209 0.931 . S
H214 C210 0.933 . S
O215 Co204 2.039 . S
O215 C205 1.265 . S
C216 O212 1.253 . S
C216 O217 1.227 . S
O217 C216 1.227 . S
N218 Co204 2.140 . S
N218 C221 1.346 . S
N218 C222 1.345 . S
C219 C220 1.387 . S
C219 C223 1.391 . S
C220 C219 1.387 . S
C220 C221 1.369 . S
C220 H229 0.929 . S
C221 N218 1.346 . S
C221 C220 1.369 . S
C221 H224 0.928 . S
C222 N218 1.345 . S
C222 C223 1.371 . S
C222 H225 0.931 . S
C223 C219 1.391 . S
C223 C222 1.371 . S
C223 H230 0.930 . S
H224 C221 0.928 . S
H225 C222 0.931 . S
H226 C202 0.930 . S
H227 C199 0.930 . S
H228 C208 0.930 . S
H229 C220 0.929 . S
H230 C223 0.930 . S
C231 C232 1.351 1_655 S
C231 N234 1.368 . S
C231 H236 0.931 . S
C232 C231 1.351 1_455 S
C232 N233 1.373 . S
C232 H260 0.930 . S
N233 C232 1.373 . S
N233 C235 1.340 1_455 S
N234 C231 1.368 . S
N234 C235 1.321 . S
N234 Co237 2.135 . S
C235 N233 1.340 1_655 S
C235 N234 1.321 . S
C235 H259 0.930 1_655 S
H236 C231 0.931 . S
Co237 N234 2.135 . S
Co237 N240 2.121 . S
Co237 O245 2.055 . S
Co237 O248 2.039 . S
Co237 N251 2.140 . S
C238 O239 1.227 . S
C238 O248 1.265 . S
O239 C238 1.227 . S
N240 Co237 2.121 . S
N240 C242 1.375 . S
N240 C243 1.313 . S
C241 C242 1.338 . S
C241 N244 1.377 . S
C241 H261 0.930 . S
C242 N240 1.375 . S
C242 C241 1.338 . S
C242 H246 0.931 . S
C243 N240 1.313 . S
C243 N244 1.344 . S
C243 H247 0.930 . S
N244 C241 1.377 . S
N244 C243 1.344 . S
O245 Co237 2.055 . S
O245 C249 1.253 . S
H246 C242 0.931 . S
H247 C243 0.930 . S
O248 Co237 2.039 . S
O248 C238 1.265 . S
C249 O245 1.253 . S
C249 O250 1.227 . S
O250 C249 1.227 . S
N251 Co237 2.140 . S
N251 C254 1.346 . S
N251 C255 1.345 . S
C252 C253 1.387 . S
C252 C256 1.391 . S
C253 C252 1.387 . S
C253 C254 1.369 . S
C253 H262 0.929 . S
C254 N251 1.346 . S
C254 C253 1.369 . S
C254 H257 0.928 . S
C255 N251 1.345 . S
C255 C256 1.371 . S
C255 H258 0.931 . S
C256 C252 1.391 . S
C256 C255 1.371 . S
C256 H263 0.930 . S
H257 C254 0.928 . S
H258 C255 0.931 . S
H259 C235 0.930 1_455 S
H260 C232 0.930 . S
H261 C241 0.930 . S
H262 C253 0.929 . S
H263 C256 0.930 . S
C264 C265 1.351 . S
C264 N267 1.368 . S
C264 H269 0.931 . S
C265 C264 1.351 . S
C265 N266 1.373 . S
C265 H293 0.930 . S
N266 C265 1.373 . S
N266 C268 1.340 . S
N267 C264 1.368 . S
N267 C268 1.321 . S
N267 Co270 2.135 . S
C268 N266 1.340 . S
C268 N267 1.321 . S
C268 H292 0.930 . S
H269 C264 0.931 . S
Co270 N267 2.135 . S
Co270 N273 2.121 . S
Co270 O278 2.055 . S
Co270 O281 2.039 . S
Co270 N284 2.140 . S
C271 O272 1.227 . S
C271 O281 1.265 . S
O272 C271 1.227 . S
N273 Co270 2.121 . S
N273 C275 1.375 . S
N273 C276 1.313 . S
C274 C275 1.338 . S
C274 N277 1.377 . S
C274 H294 0.930 . S
C275 N273 1.375 . S
C275 C274 1.338 . S
C275 H279 0.931 . S
C276 N273 1.313 . S
C276 N277 1.344 . S
C276 H280 0.930 . S
N277 C274 1.377 . S
N277 C276 1.344 . S
O278 Co270 2.055 . S
O278 C282 1.253 . S
H279 C275 0.931 . S
H280 C276 0.930 . S
O281 Co270 2.039 . S
O281 C271 1.265 . S
C282 O278 1.253 . S
C282 O283 1.227 . S
O283 C282 1.227 . S
N284 Co270 2.140 . S
N284 C287 1.346 . S
N284 C288 1.345 . S
C285 C286 1.387 . S
C285 C289 1.391 . S
C286 C285 1.387 . S
C286 C287 1.369 . S
C286 H295 0.929 . S
C287 N284 1.346 . S
C287 C286 1.369 . S
C287 H290 0.928 . S
C288 N284 1.345 . S
C288 C289 1.371 . S
C288 H291 0.931 . S
C289 C285 1.391 . S
C289 C288 1.371 . S
C289 H296 0.930 . S
H290 C287 0.928 . S
H291 C288 0.931 . S
H292 C268 0.930 . S
H293 C265 0.930 . S
H294 C274 0.930 . S
H295 C286 0.929 . S
H296 C289 0.930 . S
C297 C298 1.351 . S
C297 N300 1.368 . S
C297 H302 0.931 . S
C298 C297 1.351 . S
C298 N299 1.373 . S
C298 H326 0.930 . S
N299 C298 1.373 . S
N299 C301 1.340 . S
N300 C297 1.368 . S
N300 C301 1.321 . S
N300 Co303 2.135 . S
C301 N299 1.340 . S
C301 N300 1.321 . S
C301 H325 0.930 . S
H302 C297 0.931 . S
Co303 N300 2.135 . S
Co303 N306 2.121 . S
Co303 O311 2.055 . S
Co303 O314 2.039 . S
Co303 N317 2.140 . S
C304 O305 1.227 . S
C304 O314 1.265 . S
O305 C304 1.227 . S
N306 Co303 2.121 . S
N306 C308 1.375 . S
N306 C309 1.313 . S
C307 C308 1.338 . S
C307 N310 1.377 . S
C307 H327 0.930 . S
C308 N306 1.375 . S
C308 C307 1.338 . S
C308 H312 0.931 . S
C309 N306 1.313 . S
C309 N310 1.344 . S
C309 H313 0.930 . S
N310 C307 1.377 . S
N310 C309 1.344 . S
O311 Co303 2.055 . S
O311 C315 1.253 . S
H312 C308 0.931 . S
H313 C309 0.930 . S
O314 Co303 2.039 . S
O314 C304 1.265 . S
C315 O311 1.253 . S
C315 O316 1.227 . S
O316 C315 1.227 . S
N317 Co303 2.140 . S
N317 C320 1.346 . S
N317 C321 1.345 . S
C318 C319 1.387 . S
C318 C322 1.391 . S
C319 C318 1.387 . S
C319 C320 1.369 . S
C319 H328 0.929 . S
C320 N317 1.346 . S
C320 C319 1.369 . S
C320 H323 0.928 . S
C321 N317 1.345 . S
C321 C322 1.371 . S
C321 H324 0.931 . S
C322 C318 1.391 . S
C322 C321 1.371 . S
C322 H329 0.930 . S
H323 C320 0.928 . S
H324 C321 0.931 . S
H325 C301 0.930 . S
H326 C298 0.930 . S
H327 C307 0.930 . S
H328 C319 0.929 . S
H329 C322 0.930 . S
C330 C331 1.351 . S
C330 N333 1.368 . S
C330 H335 0.931 . S
C331 C330 1.351 . S
C331 N332 1.373 . S
C331 H359 0.930 . S
N332 C331 1.373 . S
N332 C334 1.340 . S
N333 C330 1.368 . S
N333 C334 1.321 . S
N333 Co336 2.135 . S
C334 N332 1.340 . S
C334 N333 1.321 . S
C334 H358 0.930 . S
H335 C330 0.931 . S
Co336 N333 2.135 . S
Co336 N339 2.121 . S
Co336 O344 2.055 . S
Co336 O347 2.039 . S
Co336 N350 2.140 . S
C337 O338 1.227 . S
C337 O347 1.265 . S
O338 C337 1.227 . S
N339 Co336 2.121 . S
N339 C341 1.375 . S
N339 C342 1.313 . S
C340 C341 1.338 . S
C340 N343 1.377 . S
C340 H360 0.930 . S
C341 N339 1.375 . S
C341 C340 1.338 . S
C341 H345 0.931 . S
C342 N339 1.313 . S
C342 N343 1.344 . S
C342 H346 0.930 . S
N343 C340 1.377 . S
N343 C342 1.344 . S
O344 Co336 2.055 . S
O344 C348 1.253 . S
H345 C341 0.931 . S
H346 C342 0.930 . S
O347 Co336 2.039 . S
O347 C337 1.265 . S
C348 O344 1.253 . S
C348 O349 1.227 . S
O349 C348 1.227 . S
N350 Co336 2.140 . S
N350 C353 1.346 . S
N350 C354 1.345 . S
C351 C352 1.387 . S
C351 C355 1.391 . S
C352 C351 1.387 . S
C352 C353 1.369 . S
C352 H361 0.929 . S
C353 N350 1.346 . S
C353 C352 1.369 . S
C353 H356 0.928 . S
C354 N350 1.345 . S
C354 C355 1.371 . S
C354 H357 0.931 . S
C355 C351 1.391 . S
C355 C354 1.371 . S
C355 H362 0.930 . S
H356 C353 0.928 . S
H357 C354 0.931 . S
H358 C334 0.930 . S
H359 C331 0.930 . S
H360 C340 0.930 . S
H361 C352 0.929 . S
H362 C355 0.930 . S
C363 C364 1.351 . S
C363 N366 1.368 . S
C363 H368 0.931 . S
C364 C363 1.351 . S
C364 N365 1.373 . S
C364 H392 0.930 . S
N365 C364 1.373 . S
N365 C367 1.340 . S
N366 C363 1.368 . S
N366 C367 1.321 . S
N366 Co369 2.135 . S
C367 N365 1.340 . S
C367 N366 1.321 . S
C367 H391 0.930 . S
H368 C363 0.931 . S
Co369 N366 2.135 . S
Co369 N372 2.121 . S
Co369 O377 2.055 . S
Co369 O380 2.039 . S
Co369 N383 2.140 . S
C370 O371 1.227 . S
C370 O380 1.265 . S
O371 C370 1.227 . S
N372 Co369 2.121 . S
N372 C374 1.375 . S
N372 C375 1.313 . S
C373 C374 1.338 . S
C373 N376 1.377 . S
C373 H393 0.930 . S
C374 N372 1.375 . S
C374 C373 1.338 . S
C374 H378 0.931 . S
C375 N372 1.313 . S
C375 N376 1.344 . S
C375 H379 0.930 . S
N376 C373 1.377 . S
N376 C375 1.344 . S
O377 Co369 2.055 . S
O377 C381 1.253 . S
H378 C374 0.931 . S
H379 C375 0.930 . S
O380 Co369 2.039 . S
O380 C370 1.265 . S
C381 O377 1.253 . S
C381 O382 1.227 . S
O382 C381 1.227 . S
N383 Co369 2.140 . S
N383 C386 1.346 . S
N383 C387 1.345 . S
C384 C385 1.387 . S
C384 C388 1.391 . S
C385 C384 1.387 . S
C385 C386 1.369 . S
C385 H394 0.929 . S
C386 N383 1.346 . S
C386 C385 1.369 . S
C386 H389 0.928 . S
C387 N383 1.345 . S
C387 C388 1.371 . S
C387 H390 0.931 . S
C388 C384 1.391 . S
C388 C387 1.371 . S
C388 H395 0.930 . S
H389 C386 0.928 . S
H390 C387 0.931 . S
H391 C367 0.930 . S
H392 C364 0.930 . S
H393 C373 0.930 . S
H394 C385 0.929 . S
H395 C388 0.930 . S
C396 C397 1.351 . S
C396 N399 1.368 . S
C396 H401 0.931 . S
C397 C396 1.351 . S
C397 N398 1.373 . S
C397 H425 0.930 . S
N398 C397 1.373 . S
N398 C400 1.340 . S
N399 C396 1.368 . S
N399 C400 1.321 . S
N399 Co402 2.135 . S
C400 N398 1.340 . S
C400 N399 1.321 . S
C400 H424 0.930 . S
H401 C396 0.931 . S
Co402 N399 2.135 . S
Co402 N405 2.121 . S
Co402 O410 2.055 . S
Co402 O413 2.039 . S
Co402 N416 2.140 . S
C403 O404 1.227 . S
C403 O413 1.265 . S
O404 C403 1.227 . S
N405 Co402 2.121 . S
N405 C407 1.375 . S
N405 C408 1.313 . S
C406 C407 1.338 . S
C406 N409 1.377 . S
C406 H426 0.930 . S
C407 N405 1.375 . S
C407 C406 1.338 . S
C407 H411 0.931 . S
C408 N405 1.313 . S
C408 N409 1.344 . S
C408 H412 0.930 . S
N409 C406 1.377 . S
N409 C408 1.344 . S
O410 Co402 2.055 . S
O410 C414 1.253 . S
H411 C407 0.931 . S
H412 C408 0.930 . S
O413 Co402 2.039 . S
O413 C403 1.265 . S
C414 O410 1.253 . S
C414 O415 1.227 . S
O415 C414 1.227 . S
N416 Co402 2.140 . S
N416 C419 1.346 . S
N416 C420 1.345 . S
C417 C418 1.387 . S
C417 C421 1.391 . S
C418 C417 1.387 . S
C418 C419 1.369 . S
C418 H427 0.929 . S
C419 N416 1.346 . S
C419 C418 1.369 . S
C419 H422 0.928 . S
C420 N416 1.345 . S
C420 C421 1.371 . S
C420 H423 0.931 . S
C421 C417 1.391 . S
C421 C420 1.371 . S
C421 H428 0.930 . S
H422 C419 0.928 . S
H423 C420 0.931 . S
H424 C400 0.930 . S
H425 C397 0.930 . S
H426 C406 0.930 . S
H427 C418 0.929 . S
H428 C421 0.930 . S
C429 C430 1.351 . S
C429 N432 1.368 . S
C429 H434 0.931 . S
C430 C429 1.351 . S
C430 N431 1.373 . S
C430 H458 0.930 . S
N431 C430 1.373 . S
N431 C433 1.340 . S
N432 C429 1.368 . S
N432 C433 1.321 . S
N432 Co435 2.135 . S
C433 N431 1.340 . S
C433 N432 1.321 . S
C433 H457 0.930 . S
H434 C429 0.931 . S
Co435 N432 2.135 . S
Co435 N438 2.121 . S
Co435 O443 2.055 . S
Co435 O446 2.039 . S
Co435 N449 2.140 . S
C436 O437 1.227 . S
C436 O446 1.265 . S
O437 C436 1.227 . S
N438 Co435 2.121 . S
N438 C440 1.375 . S
N438 C441 1.313 . S
C439 C440 1.338 . S
C439 N442 1.377 . S
C439 H459 0.930 . S
C440 N438 1.375 . S
C440 C439 1.338 . S
C440 H444 0.931 . S
C441 N438 1.313 . S
C441 N442 1.344 . S
C441 H445 0.930 . S
N442 C439 1.377 . S
N442 C441 1.344 . S
O443 Co435 2.055 . S
O443 C447 1.253 . S
H444 C440 0.931 . S
H445 C441 0.930 . S
O446 Co435 2.039 . S
O446 C436 1.265 . S
C447 O443 1.253 . S
C447 O448 1.227 . S
O448 C447 1.227 . S
N449 Co435 2.140 . S
N449 C452 1.346 . S
N449 C453 1.345 . S
C450 C451 1.387 1_554 S
C450 C454 1.391 . S
C451 C450 1.387 1_556 S
C451 C452 1.369 . S
C451 H460 0.929 1_556 S
C452 N449 1.346 . S
C452 C451 1.369 . S
C452 H455 0.928 . S
C453 N449 1.345 . S
C453 C454 1.371 1_556 S
C453 H456 0.931 . S
C454 C450 1.391 . S
C454 C453 1.371 1_554 S
C454 H461 0.930 . S
H455 C452 0.928 . S
H456 C453 0.931 . S
H457 C433 0.930 . S
H458 C430 0.930 . S
H459 C439 0.930 . S
H460 C451 0.929 1_554 S
H461 C454 0.930 . S
C462 C463 1.351 . S
C462 N465 1.368 . S
C462 H467 0.931 . S
C463 C462 1.351 . S
C463 N464 1.373 . S
C463 H491 0.930 . S
N464 C463 1.373 . S
N464 C466 1.340 . S
N465 C462 1.368 . S
N465 C466 1.321 . S
N465 Co468 2.135 . S
C466 N464 1.340 . S
C466 N465 1.321 . S
C466 H490 0.930 . S
H467 C462 0.931 . S
Co468 N465 2.135 . S
Co468 N471 2.121 . S
Co468 O476 2.055 . S
Co468 O479 2.039 . S
Co468 N482 2.140 . S
C469 O470 1.227 . S
C469 O479 1.265 . S
O470 C469 1.227 . S
N471 Co468 2.121 . S
N471 C473 1.375 . S
N471 C474 1.313 . S
C472 C473 1.338 . S
C472 N475 1.377 . S
C472 H492 0.930 . S
C473 N471 1.375 . S
C473 C472 1.338 . S
C473 H477 0.931 . S
C474 N471 1.313 . S
C474 N475 1.344 . S
C474 H478 0.930 . S
N475 C472 1.377 . S
N475 C474 1.344 . S
O476 Co468 2.055 . S
O476 C480 1.253 . S
H477 C473 0.931 . S
H478 C474 0.930 . S
O479 Co468 2.039 . S
O479 C469 1.265 . S
C480 O476 1.253 . S
C480 O481 1.227 . S
O481 C480 1.227 . S
N482 Co468 2.140 . S
N482 C485 1.346 . S
N482 C486 1.345 . S
C483 C484 1.387 . S
C483 C487 1.391 . S
C484 C483 1.387 . S
C484 C485 1.369 . S
C484 H493 0.929 . S
C485 N482 1.346 . S
C485 C484 1.369 . S
C485 H488 0.928 . S
C486 N482 1.345 . S
C486 C487 1.371 . S
C486 H489 0.931 . S
C487 C483 1.391 . S
C487 C486 1.371 . S
C487 H494 0.930 . S
H488 C485 0.928 . S
H489 C486 0.931 . S
H490 C466 0.930 . S
H491 C463 0.930 . S
H492 C472 0.930 . S
H493 C484 0.929 . S
H494 C487 0.930 . S
C495 C496 1.351 . S
C495 N498 1.368 . S
C495 H500 0.931 . S
C496 C495 1.351 . S
C496 N497 1.373 . S
C496 H524 0.930 . S
N497 C496 1.373 . S
N497 C499 1.340 . S
N498 C495 1.368 . S
N498 C499 1.321 . S
N498 Co501 2.135 . S
C499 N497 1.340 . S
C499 N498 1.321 . S
C499 H523 0.930 . S
H500 C495 0.931 . S
Co501 N498 2.135 . S
Co501 N504 2.121 . S
Co501 O509 2.055 . S
Co501 O512 2.039 . S
Co501 N515 2.140 . S
C502 O503 1.227 . S
C502 O512 1.265 . S
O503 C502 1.227 . S
N504 Co501 2.121 . S
N504 C506 1.375 . S
N504 C507 1.313 . S
C505 C506 1.338 . S
C505 N508 1.377 . S
C505 H525 0.930 . S
C506 N504 1.375 . S
C506 C505 1.338 . S
C506 H510 0.931 . S
C507 N504 1.313 . S
C507 N508 1.344 . S
C507 H511 0.930 . S
N508 C505 1.377 . S
N508 C507 1.344 . S
O509 Co501 2.055 . S
O509 C513 1.253 . S
H510 C506 0.931 . S
H511 C507 0.930 . S
O512 Co501 2.039 . S
O512 C502 1.265 . S
C513 O509 1.253 . S
C513 O514 1.227 . S
O514 C513 1.227 . S
N515 Co501 2.140 . S
N515 C518 1.346 . S
N515 C519 1.345 . S
C516 C517 1.387 1_556 S
C516 C520 1.391 . S
C517 C516 1.387 1_554 S
C517 C518 1.369 . S
C517 H526 0.929 1_554 S
C518 N515 1.346 . S
C518 C517 1.369 . S
C518 H521 0.928 . S
C519 N515 1.345 . S
C519 C520 1.371 1_554 S
C519 H522 0.931 . S
C520 C516 1.391 . S
C520 C519 1.371 1_556 S
C520 H527 0.930 . S
H521 C518 0.928 . S
H522 C519 0.931 . S
H523 C499 0.930 . S
H524 C496 0.930 . S
H525 C505 0.930 . S
H526 C517 0.929 1_556 S
H527 C520 0.930 . S
C528 C529 1.369 . S
C528 C530 1.419 . S
C528 H532 0.930 . S
C529 C528 1.369 . S
C529 C538 1.429 . S
C530 C528 1.419 . S
C530 C531 1.363 . S
C530 H533 0.929 . S
C531 C530 1.363 . S
C531 C537 1.428 . S
H532 C528 0.930 . S
H533 C530 0.929 . S
S534 N535 1.613 . S
S534 N536 1.610 . S
N535 S534 1.613 . S
N535 C538 1.350 . S
N536 S534 1.610 . S
N536 C537 1.351 . S
C537 C531 1.428 . S
C537 N536 1.351 . S
C537 C538 1.434 . S
C538 C529 1.429 . S
C538 N535 1.350 . S
C538 C537 1.434 . S
C539 C540 1.369 . S
C539 C541 1.419 . S
C539 H543 0.930 . S
C540 C539 1.369 . S
C540 C549 1.429 . S
C541 C539 1.419 . S
C541 C542 1.363 . S
C541 H544 0.929 . S
C542 C541 1.363 . S
C542 C548 1.428 . S
H543 C539 0.930 . S
H544 C541 0.929 . S
S545 N546 1.613 . S
S545 N547 1.610 . S
N546 S545 1.613 . S
N546 C549 1.350 . S
N547 S545 1.610 . S
N547 C548 1.351 . S
C548 C542 1.428 . S
C548 N547 1.351 . S
C548 C549 1.434 . S
C549 C540 1.429 . S
C549 N546 1.350 . S
C549 C548 1.434 . S
C550 C551 1.369 . S
C550 C552 1.419 . S
C550 H554 0.930 . S
C551 C550 1.369 . S
C551 C560 1.429 . S
C552 C550 1.419 . S
C552 C553 1.363 . S
C552 H555 0.929 . S
C553 C552 1.363 . S
C553 C559 1.428 . S
H554 C550 0.930 . S
H555 C552 0.929 . S
S556 N557 1.613 . S
S556 N558 1.610 . S
N557 S556 1.613 . S
N557 C560 1.350 . S
N558 S556 1.610 . S
N558 C559 1.351 . S
C559 C553 1.428 . S
C559 N558 1.351 . S
C559 C560 1.434 . S
C560 C551 1.429 . S
C560 N557 1.350 . S
C560 C559 1.434 . S
C561 C562 1.369 . S
C561 C563 1.419 . S
C561 H565 0.930 . S
C562 C561 1.369 . S
C562 C571 1.429 . S
C563 C561 1.419 . S
C563 C564 1.363 . S
C563 H566 0.929 . S
C564 C563 1.363 . S
C564 C570 1.428 . S
H565 C561 0.930 . S
H566 C563 0.929 . S
S567 N568 1.613 1_565 S
S567 N569 1.610 1_565 S
N568 S567 1.613 1_545 S
N568 C571 1.350 . S
N569 S567 1.610 1_545 S
N569 C570 1.351 . S
C570 C564 1.428 . S
C570 N569 1.351 . S
C570 C571 1.434 . S
C571 C562 1.429 . S
C571 N568 1.350 . S
C571 C570 1.434 . S
C572 C573 1.369 . S
C572 C574 1.419 . S
C572 H576 0.930 . S
C573 C572 1.369 . S
C573 C582 1.429 . S
C574 C572 1.419 . S
C574 C575 1.363 . S
C574 H577 0.929 . S
C575 C574 1.363 . S
C575 C581 1.428 . S
H576 C572 0.930 . S
H577 C574 0.929 . S
S578 N579 1.613 . S
S578 N580 1.610 . S
N579 S578 1.613 . S
N579 C582 1.350 . S
N580 S578 1.610 . S
N580 C581 1.351 . S
C581 C575 1.428 . S
C581 N580 1.351 . S
C581 C582 1.434 . S
C582 C573 1.429 . S
C582 N579 1.350 . S
C582 C581 1.434 . S
C583 C584 1.369 . S
C583 C585 1.419 . S
C583 H587 0.930 . S
C584 C583 1.369 . S
C584 C593 1.429 . S
C585 C583 1.419 . S
C585 C586 1.363 . S
C585 H588 0.929 . S
C586 C585 1.363 . S
C586 C592 1.428 . S
H587 C583 0.930 . S
H588 C585 0.929 . S
S589 N590 1.613 . S
S589 N591 1.610 . S
N590 S589 1.613 . S
N590 C593 1.350 . S
N591 S589 1.610 . S
N591 C592 1.351 . S
C592 C586 1.428 . S
C592 N591 1.351 . S
C592 C593 1.434 . S
C593 C584 1.429 . S
C593 N590 1.350 . S
C593 C592 1.434 . S
C594 C595 1.369 . S
C594 C596 1.419 . S
C594 H598 0.930 . S
C595 C594 1.369 . S
C595 C604 1.429 . S
C596 C594 1.419 . S
C596 C597 1.363 . S
C596 H599 0.929 . S
C597 C596 1.363 . S
C597 C603 1.428 . S
H598 C594 0.930 . S
H599 C596 0.929 . S
S600 N601 1.613 . S
S600 N602 1.610 . S
N601 S600 1.613 . S
N601 C604 1.350 . S
N602 S600 1.610 . S
N602 C603 1.351 . S
C603 C597 1.428 . S
C603 N602 1.351 . S
C603 C604 1.434 . S
C604 C595 1.429 . S
C604 N601 1.350 . S
C604 C603 1.434 . S
C605 C606 1.369 . S
C605 C607 1.419 . S
C605 H609 0.930 . S
C606 C605 1.369 . S
C606 C615 1.429 . S
C607 C605 1.419 . S
C607 C608 1.363 . S
C607 H610 0.929 . S
C608 C607 1.363 . S
C608 C614 1.428 . S
H609 C605 0.930 . S
H610 C607 0.929 . S
S611 N612 1.613 . S
S611 N613 1.610 . S
N612 S611 1.613 . S
N612 C615 1.350 . S
N613 S611 1.610 . S
N613 C614 1.351 . S
C614 C608 1.428 . S
C614 N613 1.351 . S
C614 C615 1.434 . S
C615 C606 1.429 . S
C615 N612 1.350 . S
C615 C614 1.434 . S
C616 C617 1.369 . S
C616 C618 1.419 . S
C616 H620 0.930 . S
C617 C616 1.369 . S
C617 C626 1.429 . S
C618 C616 1.419 . S
C618 C619 1.363 . S
C618 H621 0.929 . S
C619 C618 1.363 . S
C619 C625 1.428 . S
H620 C616 0.930 . S
H621 C618 0.929 . S
S622 N623 1.613 . S
S622 N624 1.610 . S
N623 S622 1.613 . S
N623 C626 1.350 . S
N624 S622 1.610 . S
N624 C625 1.351 . S
C625 C619 1.428 . S
C625 N624 1.351 . S
C625 C626 1.434 . S
C626 C617 1.429 . S
C626 N623 1.350 . S
C626 C625 1.434 . S
C627 C628 1.369 . S
C627 C629 1.419 . S
C627 H631 0.930 . S
C628 C627 1.369 . S
C628 C637 1.429 . S
C629 C627 1.419 . S
C629 C630 1.363 . S
C629 H632 0.929 . S
C630 C629 1.363 . S
C630 C636 1.428 . S
H631 C627 0.930 . S
H632 C629 0.929 . S
S633 N634 1.613 . S
S633 N635 1.610 . S
N634 S633 1.613 . S
N634 C637 1.350 . S
N635 S633 1.610 . S
N635 C636 1.351 . S
C636 C630 1.428 . S
C636 N635 1.351 . S
C636 C637 1.434 . S
C637 C628 1.429 . S
C637 N634 1.350 . S
C637 C636 1.434 . S
C638 C639 1.369 . S
C638 C640 1.419 . S
C638 H642 0.930 . S
C639 C638 1.369 . S
C639 C648 1.429 . S
C640 C638 1.419 . S
C640 C641 1.363 . S
C640 H643 0.929 . S
C641 C640 1.363 . S
C641 C647 1.428 . S
H642 C638 0.930 . S
H643 C640 0.929 . S
S644 N645 1.613 . S
S644 N646 1.610 . S
N645 S644 1.613 . S
N645 C648 1.350 . S
N646 S644 1.610 . S
N646 C647 1.351 . S
C647 C641 1.428 . S
C647 N646 1.351 . S
C647 C648 1.434 . S
C648 C639 1.429 . S
C648 N645 1.350 . S
C648 C647 1.434 . S
C649 C650 1.369 . S
C649 C651 1.419 . S
C649 H653 0.930 . S
C650 C649 1.369 . S
C650 C659 1.429 . S
C651 C649 1.419 . S
C651 C652 1.363 . S
C651 H654 0.929 . S
C652 C651 1.363 . S
C652 C658 1.428 . S
H653 C649 0.930 . S
H654 C651 0.929 . S
S655 N656 1.613 . S
S655 N657 1.610 . S
N656 S655 1.613 . S
N656 C659 1.350 . S
N657 S655 1.610 . S
N657 C658 1.351 . S
C658 C652 1.428 . S
C658 N657 1.351 . S
C658 C659 1.434 . S
C659 C650 1.429 . S
C659 N656 1.350 . S
C659 C658 1.434 . S
C660 C661 1.369 . S
C660 C662 1.419 . S
C660 H664 0.930 . S
C661 C660 1.369 . S
C661 C670 1.429 . S
C662 C660 1.419 . S
C662 C663 1.363 . S
C662 H665 0.929 . S
C663 C662 1.363 . S
C663 C669 1.428 . S
H664 C660 0.930 . S
H665 C662 0.929 . S
S666 N667 1.613 . S
S666 N668 1.610 . S
N667 S666 1.613 . S
N667 C670 1.350 . S
N668 S666 1.610 . S
N668 C669 1.351 . S
C669 C663 1.428 . S
C669 N668 1.351 . S
C669 C670 1.434 . S
C670 C661 1.429 . S
C670 N667 1.350 . S
C670 C669 1.434 . S
C671 C672 1.369 . S
C671 C673 1.419 . S
C671 H675 0.930 . S
C672 C671 1.369 . S
C672 C681 1.429 . S
C673 C671 1.419 . S
C673 C674 1.363 . S
C673 H676 0.929 . S
C674 C673 1.363 . S
C674 C680 1.428 . S
H675 C671 0.930 . S
H676 C673 0.929 . S
S677 N678 1.613 . S
S677 N679 1.610 . S
N678 S677 1.613 . S
N678 C681 1.350 . S
N679 S677 1.610 . S
N679 C680 1.351 . S
C680 C674 1.428 . S
C680 N679 1.351 . S
C680 C681 1.434 . S
C681 C672 1.429 . S
C681 N678 1.350 . S
C681 C680 1.434 . S
C682 C683 1.369 . S
C682 C684 1.419 . S
C682 H686 0.930 . S
C683 C682 1.369 . S
C683 C692 1.429 . S
C684 C682 1.419 . S
C684 C685 1.363 . S
C684 H687 0.929 . S
C685 C684 1.363 . S
C685 C691 1.428 . S
H686 C682 0.930 . S
H687 C684 0.929 . S
S688 N689 1.613 . S
S688 N690 1.610 . S
N689 S688 1.613 . S
N689 C692 1.350 . S
N690 S688 1.610 . S
N690 C691 1.351 . S
C691 C685 1.428 . S
C691 N690 1.351 . S
C691 C692 1.434 . S
C692 C683 1.429 . S
C692 N689 1.350 . S
C692 C691 1.434 . S
C693 C694 1.369 . S
C693 C695 1.419 . S
C693 H697 0.930 . S
C694 C693 1.369 . S
C694 C703 1.429 . S
C695 C693 1.419 . S
C695 C696 1.363 . S
C695 H698 0.929 . S
C696 C695 1.363 . S
C696 C702 1.428 . S
H697 C693 0.930 . S
H698 C695 0.929 . S
S699 N700 1.613 . S
S699 N701 1.610 . S
N700 S699 1.613 . S
N700 C703 1.350 . S
N701 S699 1.610 . S
N701 C702 1.351 . S
C702 C696 1.428 . S
C702 N701 1.351 . S
C702 C703 1.434 . S
C703 C694 1.429 . S
C703 N700 1.350 . S
C703 C702 1.434 . S
C704 C705 1.369 . S
C704 C706 1.419 . S
C704 H708 0.930 . S
C705 C704 1.369 . S
C705 C714 1.429 . S
C706 C704 1.419 . S
C706 C707 1.363 . S
C706 H709 0.929 . S
C707 C706 1.363 . S
C707 C713 1.428 . S
H708 C704 0.930 . S
H709 C706 0.929 . S
S710 N711 1.622 . S
S710 N712 1.620 . S
N711 S710 1.622 . S
N711 C714 1.350 . S
N712 S710 1.620 . S
N712 C713 1.351 . S
C713 C707 1.428 . S
C713 N712 1.351 . S
C713 C714 1.434 . S
C714 C705 1.429 . S
C714 N711 1.350 . S
C714 C713 1.434 . S
C715 C716 1.369 . S
C715 C717 1.419 . S
C715 H719 0.930 . S
C716 C715 1.369 . S
C716 C725 1.429 . S
C717 C715 1.419 . S
C717 C718 1.363 . S
C717 H720 0.929 . S
C718 C717 1.363 . S
C718 C724 1.428 . S
H719 C715 0.930 . S
H720 C717 0.929 . S
S721 N722 1.613 . S
S721 N723 1.610 . S
N722 S721 1.613 . S
N722 C725 1.350 . S
N723 S721 1.610 . S
N723 C724 1.351 . S
C724 C718 1.428 . S
C724 N723 1.351 . S
C724 C725 1.434 . S
C725 C716 1.429 . S
C725 N722 1.350 . S
C725 C724 1.434 . S
C726 C727 1.369 . S
C726 C728 1.419 . S
C726 H730 0.930 . S
C727 C726 1.369 . S
C727 C736 1.429 . S
C728 C726 1.419 . S
C728 C729 1.363 . S
C728 H731 0.929 . S
C729 C728 1.363 . S
C729 C735 1.428 . S
H730 C726 0.930 . S
H731 C728 0.929 . S
S732 N733 1.613 . S
S732 N734 1.610 . S
N733 S732 1.613 . S
N733 C736 1.350 . S
N734 S732 1.610 . S
N734 C735 1.351 . S
C735 C729 1.428 . S
C735 N734 1.351 . S
C735 C736 1.434 . S
C736 C727 1.429 . S
C736 N733 1.350 . S
C736 C735 1.434 . S
C737 C738 1.369 . S
C737 C739 1.419 . S
C737 H741 0.930 . S
C738 C737 1.369 . S
C738 C747 1.429 . S
C739 C737 1.419 . S
C739 C740 1.363 . S
C739 H742 0.929 . S
C740 C739 1.363 . S
C740 C746 1.428 . S
H741 C737 0.930 . S
H742 C739 0.929 . S
S743 N744 1.613 . S
S743 N745 1.610 . S
N744 S743 1.613 . S
N744 C747 1.350 . S
N745 S743 1.610 . S
N745 C746 1.351 . S
C746 C740 1.428 . S
C746 N745 1.351 . S
C746 C747 1.434 . S
C747 C738 1.429 . S
C747 N744 1.350 . S
C747 C746 1.434 . S
C748 C749 1.369 . S
C748 C750 1.419 . S
C748 H752 0.930 . S
C749 C748 1.369 . S
C749 C758 1.429 . S
C750 C748 1.419 . S
C750 C751 1.363 . S
C750 H753 0.929 . S
C751 C750 1.363 . S
C751 C757 1.428 . S
H752 C748 0.930 . S
H753 C750 0.929 . S
S754 N755 1.613 . S
S754 N756 1.610 . S
N755 S754 1.613 . S
N755 C758 1.350 . S
N756 S754 1.610 . S
N756 C757 1.351 . S
C757 C751 1.428 . S
C757 N756 1.351 . S
C757 C758 1.434 . S
C758 C749 1.429 . S
C758 N755 1.350 . S
C758 C757 1.434 . S
C759 C760 1.369 . S
C759 C761 1.419 . S
C759 H763 0.930 . S
C760 C759 1.369 . S
C760 C769 1.429 . S
C761 C759 1.419 . S
C761 C762 1.363 . S
C761 H764 0.929 . S
C762 C761 1.363 . S
C762 C768 1.428 . S
H763 C759 0.930 . S
H764 C761 0.929 . S
S765 N766 1.613 . S
S765 N767 1.610 . S
N766 S765 1.613 . S
N766 C769 1.350 . S
N767 S765 1.610 . S
N767 C768 1.351 . S
C768 C762 1.428 . S
C768 N767 1.351 . S
C768 C769 1.434 . S
C769 C760 1.429 . S
C769 N766 1.350 . S
C769 C768 1.434 . S
C770 C771 1.369 . S
C770 C772 1.419 . S
C770 H774 0.930 . S
C771 C770 1.369 . S
C771 C780 1.429 . S
C772 C770 1.419 . S
C772 C773 1.363 . S
C772 H775 0.929 . S
C773 C772 1.363 . S
C773 C779 1.428 . S
H774 C770 0.930 . S
H775 C772 0.929 . S
S776 N777 1.613 . S
S776 N778 1.610 . S
N777 S776 1.613 . S
N777 C780 1.350 . S
N778 S776 1.610 . S
N778 C779 1.351 . S
C779 C773 1.428 . S
C779 N778 1.351 . S
C779 C780 1.434 . S
C780 C771 1.429 . S
C780 N777 1.350 . S
C780 C779 1.434 . S
C781 C782 1.369 . S
C781 C783 1.419 . S
C781 H785 0.930 . S
C782 C781 1.369 . S
C782 C791 1.429 . S
C783 C781 1.419 . S
C783 C784 1.363 . S
C783 H786 0.929 . S
C784 C783 1.363 . S
C784 C790 1.428 . S
H785 C781 0.930 . S
H786 C783 0.929 . S
S787 N788 1.613 . S
S787 N789 1.610 . S
N788 S787 1.613 . S
N788 C791 1.350 . S
N789 S787 1.610 . S
N789 C790 1.351 . S
C790 C784 1.428 . S
C790 N789 1.351 . S
C790 C791 1.434 . S
C791 C782 1.429 . S
C791 N788 1.350 . S
C791 C790 1.434 . S
C792 C793 1.369 . S
C792 C794 1.419 . S
C792 H796 0.930 . S
C793 C792 1.369 . S
C793 C802 1.429 . S
C794 C792 1.419 . S
C794 C795 1.363 . S
C794 H797 0.929 . S
C795 C794 1.363 . S
C795 C801 1.428 . S
H796 C792 0.930 . S
H797 C794 0.929 . S
S798 N799 1.613 . S
S798 N800 1.610 . S
N799 S798 1.613 . S
N799 C802 1.350 . S
N800 S798 1.610 . S
N800 C801 1.351 . S
C801 C795 1.428 . S
C801 N800 1.351 . S
C801 C802 1.434 . S
C802 C793 1.429 . S
C802 N799 1.350 . S
C802 C801 1.434 . S
C803 C804 1.369 1_445 S
C803 C805 1.419 . S
C803 H807 0.930 . S
C804 C803 1.369 1_665 S
C804 C813 1.429 . S
C805 C803 1.419 . S
C805 C806 1.363 . S
C805 H808 0.929 . S
C806 C805 1.363 . S
C806 C812 1.428 1_445 S
H807 C803 0.930 . S
H808 C805 0.929 . S
S809 N810 1.613 . S
S809 N811 1.610 . S
N810 S809 1.613 . S
N810 C813 1.350 . S
N811 S809 1.610 . S
N811 C812 1.351 . S
C812 C806 1.428 1_665 S
C812 N811 1.351 . S
C812 C813 1.434 . S
C813 C804 1.429 . S
C813 N810 1.350 . S
C813 C812 1.434 . S
C814 C815 1.369 1_545 S
C814 C816 1.419 . S
C814 H818 0.930 . S
C815 C814 1.369 1_565 S
C815 C824 1.429 . S
C816 C814 1.419 . S
C816 C817 1.363 . S
C816 H819 0.929 . S
C817 C816 1.363 . S
C817 C823 1.428 1_545 S
H818 C814 0.930 . S
H819 C816 0.929 . S
S820 N821 1.613 . S
S820 N822 1.610 . S
N821 S820 1.613 . S
N821 C824 1.350 . S
N822 S820 1.610 . S
N822 C823 1.351 . S
C823 C817 1.428 1_565 S
C823 N822 1.351 . S
C823 C824 1.434 . S
C824 C815 1.429 . S
C824 N821 1.350 . S
C824 C823 1.434 . S
C825 C826 1.369 . S
C825 C827 1.419 1_655 S
C825 H829 0.930 . S
C826 C825 1.369 . S
C826 C835 1.429 . S
C827 C825 1.419 1_455 S
C827 C828 1.363 . S
C827 H830 0.929 . S
C828 C827 1.363 . S
C828 C834 1.428 . S
H829 C825 0.930 . S
H830 C827 0.929 . S
S831 N832 1.613 1_455 S
S831 N833 1.610 . S
N832 S831 1.613 1_655 S
N832 C835 1.350 . S
N833 S831 1.610 . S
N833 C834 1.351 . S
C834 C828 1.428 . S
C834 N833 1.351 . S
C834 C835 1.434 1_455 S
C835 C826 1.429 . S
C835 N832 1.350 . S
C835 C834 1.434 1_655 S
C836 C837 1.369 . S
C836 C838 1.419 . S
C836 H840 0.930 . S
C837 C836 1.369 . S
C837 C846 1.429 . S
C838 C836 1.419 . S
C838 C839 1.363 . S
C838 H841 0.929 . S
C839 C838 1.363 . S
C839 C845 1.428 . S
H840 C836 0.930 . S
H841 C838 0.929 . S
S842 N843 1.613 . S
S842 N844 1.610 . S
N843 S842 1.613 . S
N843 C846 1.350 . S
N844 S842 1.610 . S
N844 C845 1.351 . S
C845 C839 1.428 . S
C845 N844 1.351 . S
C845 C846 1.434 . S
C846 C837 1.429 . S
C846 N843 1.350 . S
C846 C845 1.434 . S
C847 C848 1.369 1_565 S
C847 C849 1.419 . S
C847 H851 0.930 . S
C848 C847 1.369 1_545 S
C848 C857 1.429 . S
C849 C847 1.419 . S
C849 C850 1.363 . S
C849 H852 0.929 . S
C850 C849 1.363 . S
C850 C856 1.428 1_565 S
H851 C847 0.930 . S
H852 C849 0.929 . S
S853 N854 1.613 . S
S853 N855 1.610 . S
N854 S853 1.613 . S
N854 C857 1.350 . S
N855 S853 1.610 . S
N855 C856 1.351 . S
C856 C850 1.428 1_545 S
C856 N855 1.351 . S
C856 C857 1.434 . S
C857 C848 1.429 . S
C857 N854 1.350 . S
C857 C856 1.434 . S
C858 C859 1.369 . S
C858 C860 1.419 1_655 S
C858 H862 0.930 . S
C859 C858 1.369 . S
C859 C868 1.429 . S
C860 C858 1.419 1_455 S
C860 C861 1.363 . S
C860 H863 0.929 . S
C861 C860 1.363 . S
C861 C867 1.428 . S
H862 C858 0.930 . S
H863 C860 0.929 . S
S864 N865 1.613 1_455 S
S864 N866 1.610 . S
N865 S864 1.613 1_655 S
N865 C868 1.350 . S
N866 S864 1.610 . S
N866 C867 1.351 . S
C867 C861 1.428 . S
C867 N866 1.351 . S
C867 C868 1.434 1_455 S
C868 C859 1.429 . S
C868 N865 1.350 . S
C868 C867 1.434 1_655 S
C869 C870 1.369 1_556 S
C869 C871 1.419 . S
C869 H873 0.930 . S
C870 C869 1.369 1_554 S
C870 C879 1.429 . S
C871 C869 1.419 . S
C871 C872 1.363 . S
C871 H874 0.929 . S
C872 C871 1.363 . S
C872 C878 1.428 1_556 S
H873 C869 0.930 . S
H874 C871 0.929 . S
S875 N876 1.613 . S
S875 N877 1.610 . S
N876 S875 1.613 . S
N876 C879 1.350 . S
N877 S875 1.610 . S
N877 C878 1.351 . S
C878 C872 1.428 1_554 S
C878 N877 1.351 . S
C878 C879 1.434 . S
C879 C870 1.429 . S
C879 N876 1.350 . S
C879 C878 1.434 . S
C880 C881 1.369 . S
C880 C882 1.419 1_556 S
C880 H884 0.930 . S
C881 C880 1.369 . S
C881 C890 1.429 1_455 S
C882 C880 1.419 1_554 S
C882 C883 1.363 1_455 S
C882 H885 0.929 . S
C883 C882 1.363 1_655 S
C883 C889 1.428 . S
H884 C880 0.930 . S
H885 C882 0.929 . S
S886 N887 1.613 . S
S886 N888 1.610 1_556 S
N887 S886 1.613 . S
N887 C890 1.350 . S
N888 S886 1.610 1_554 S
N888 C889 1.351 . S
C889 C883 1.428 . S
C889 N888 1.351 . S
C889 C890 1.434 1_554 S
C890 C881 1.429 1_655 S
C890 N887 1.350 . S
C890 C889 1.434 1_556 S
C891 C892 1.369 . S
C891 C893 1.419 . S
C891 H895 0.930 . S
C892 C891 1.369 . S
C892 C901 1.429 . S
C893 C891 1.419 . S
C893 C894 1.363 . S
C893 H896 0.929 . S
C894 C893 1.363 . S
C894 C900 1.428 . S
H895 C891 0.930 . S
H896 C893 0.929 . S
S897 N898 1.613 . S
S897 N899 1.610 . S
N898 S897 1.613 . S
N898 C901 1.350 . S
N899 S897 1.610 . S
N899 C900 1.351 . S
C900 C894 1.428 . S
C900 N899 1.351 . S
C900 C901 1.434 . S
C901 C892 1.429 . S
C901 N898 1.350 . S
C901 C900 1.434 . S
C902 C903 1.369 . S
C902 C904 1.419 . S
C902 H906 0.930 . S
C903 C902 1.369 . S
C903 C912 1.429 1_554 S
C904 C902 1.419 . S
C904 C905 1.363 1_554 S
C904 H907 0.929 . S
C905 C904 1.363 1_556 S
C905 C911 1.428 . S
H906 C902 0.930 . S
H907 C904 0.929 . S
S908 N909 1.613 . S
S908 N910 1.610 . S
N909 S908 1.613 . S
N909 C912 1.350 . S
N910 S908 1.610 . S
N910 C911 1.351 . S
C911 C905 1.428 . S
C911 N910 1.351 . S
C911 C912 1.434 . S
C912 C903 1.429 1_556 S
C912 N909 1.350 . S
C912 C911 1.434 . S
C913 C914 1.369 . S
C913 C915 1.419 . S
C913 H917 0.930 . S
C914 C913 1.369 . S
C914 C923 1.429 . S
C915 C913 1.419 . S
C915 C916 1.363 . S
C915 H918 0.929 . S
C916 C915 1.363 . S
C916 C922 1.428 . S
H917 C913 0.930 . S
H918 C915 0.929 . S
S919 N920 1.613 . S
S919 N921 1.610 . S
N920 S919 1.613 . S
N920 C923 1.350 . S
N921 S919 1.610 . S
N921 C922 1.351 . S
C922 C916 1.428 . S
C922 N921 1.351 . S
C922 C923 1.434 . S
C923 C914 1.429 . S
C923 N920 1.350 . S
C923 C922 1.434 . S
C924 C925 1.369 1_556 S
C924 C926 1.419 . S
C924 H928 0.930 . S
C925 C924 1.369 1_554 S
C925 C934 1.429 1_565 S
C926 C924 1.419 . S
C926 C927 1.363 1_565 S
C926 H929 0.929 . S
C927 C926 1.363 1_545 S
C927 C933 1.428 1_556 S
H928 C924 0.930 . S
H929 C926 0.929 . S
S930 N931 1.613 . S
S930 N932 1.610 . S
N931 S930 1.613 . S
N931 C934 1.350 . S
N932 S930 1.610 . S
N932 C933 1.351 . S
C933 C927 1.428 1_554 S
C933 N932 1.351 . S
C933 C934 1.434 . S
C934 C925 1.429 1_545 S
C934 N931 1.350 . S
C934 C933 1.434 . S
C935 C936 1.369 . S
C935 C937 1.419 . S
C935 H939 0.930 . S
C936 C935 1.369 . S
C936 C945 1.429 . S
C937 C935 1.419 . S
C937 C938 1.363 . S
C937 H940 0.929 . S
C938 C937 1.363 . S
C938 C944 1.428 . S
H939 C935 0.930 . S
H940 C937 0.929 . S
S941 N942 1.613 . S
S941 N943 1.610 . S
N942 S941 1.613 . S
N942 C945 1.350 . S
N943 S941 1.610 . S
N943 C944 1.351 . S
C944 C938 1.428 . S
C944 N943 1.351 . S
C944 C945 1.434 . S
C945 C936 1.429 . S
C945 N942 1.350 . S
C945 C944 1.434 . S
C946 C947 1.369 . S
C946 C948 1.419 . S
C946 H950 0.930 . S
C947 C946 1.369 . S
C947 C956 1.429 . S
C948 C946 1.419 . S
C948 C949 1.363 . S
C948 H951 0.929 . S
C949 C948 1.363 . S
C949 C955 1.428 . S
H950 C946 0.930 . S
H951 C948 0.929 . S
S952 N953 1.613 . S
S952 N954 1.610 . S
N953 S952 1.613 . S
N953 C956 1.350 . S
N954 S952 1.610 . S
N954 C955 1.351 . S
C955 C949 1.428 . S
C955 N954 1.351 . S
C955 C956 1.434 . S
C956 C947 1.429 . S
C956 N953 1.350 . S
C956 C955 1.434 . S
C957 C958 1.369 . S
C957 C959 1.419 . S
C957 H961 0.930 . S
C958 C957 1.369 . S
C958 C967 1.429 . S
C959 C957 1.419 . S
C959 C960 1.363 . S
C959 H962 0.929 . S
C960 C959 1.363 . S
C960 C966 1.428 . S
H961 C957 0.930 . S
H962 C959 0.929 . S
S963 N964 1.613 . S
S963 N965 1.610 . S
N964 S963 1.613 . S
N964 C967 1.350 . S
N965 S963 1.610 . S
N965 C966 1.351 . S
C966 C960 1.428 . S
C966 N965 1.351 . S
C966 C967 1.434 . S
C967 C958 1.429 . S
C967 N964 1.350 . S
C967 C966 1.434 . S
C529 N2 1.073 . S
C531 N299 1.078 . S
C540 N13 0.997 . S
C542 N310 0.989 . S
C551 N277 1.000 . S
C553 N46 0.992 . S
C562 N35 1.076 . S
C564 N266 1.071 . S
C573 N68 1.079 . S
C575 N365 1.072 . S
C584 N79 0.991 . S
C586 N376 0.992 . S
C595 N112 0.992 . S
C597 N343 0.991 . S
C606 N101 1.078 . S
C608 N332 1.071 . S
C617 N134 1.080 . S
C619 N431 1.072 . S
C628 N442 0.989 . S
C630 N145 0.994 . S
C639 N409 0.993 . S
C641 N178 0.998 . S
C650 N398 1.079 . S
C652 N167 1.075 . S
C661 N497 1.077 . S
C663 N200 1.077 . S
C672 N508 0.997 . S
C674 N211 0.996 . S
C683 N475 0.993 . S
C685 N244 0.990 . S
C694 N233 1.070 . S
C696 N464 1.077 . S
C705 C21 1.179 . S
C707 C54 1.179 . S
C716 C120 1.178 . S
C718 C87 1.178 . S
C727 C186 1.178 . S
C729 C153 1.178 . S
C738 C252 1.178 . S
C740 C219 1.178 . S
C749 C318 1.179 . S
C751 C285 1.179 . S
C760 C351 1.179 . S
C762 C384 1.179 . S
C771 C450 1.179 . S
C773 C417 1.179 . S
C782 C483 1.178 . S
C784 C516 1.178 . S
C793 C469 1.841 . S
C795 C7 1.847 . S
C804 C84 1.881 . S
C806 C18 1.883 . S
C815 C381 1.880 . S
C817 C51 1.884 . S
C826 C238 1.848 . S
C828 C40 1.842 . S
C837 C73 1.848 . S
C839 C403 1.842 . S
C848 C315 1.879 . S
C850 C117 1.885 . S
C859 C106 1.848 . S
C861 C172 1.842 . S
C870 C337 1.842 . S
C872 C139 1.847 . S
C881 C150 1.878 . S
C883 C216 1.886 . S
C892 C183 1.884 . S
C894 C513 1.881 . S
C903 C205 1.844 . S
C905 C271 1.844 . S
C914 C249 1.884 . S
C916 C447 1.881 . S
C925 C348 1.887 . S
C927 C282 1.879 . S
C936 C502 1.848 . S
C938 C304 1.841 . S
C947 C370 1.846 . S
C949 C436 1.843 . S
C958 C414 1.884 . S
C960 C480 1.881 . S
