# Generated by pormake.
# Topology hbo, (4)-cn, num edge types: 1
# Building blocks:
#     Node 0, Type 0, BuildingBlock: CEKHIL_clean_sbu_0, # of connection points: 4
#     Node 1, Type 0, BuildingBlock: CEKHIL_clean_sbu_0, # of connection points: 4
#     Node 2, Type 0, BuildingBlock: CEKHIL_clean_sbu_0, # of connection points: 4
#     Node 3, Type 0, BuildingBlock: CEKHIL_clean_sbu_0, # of connection points: 4
#     Node 4, Type 0, BuildingBlock: CEKHIL_clean_sbu_0, # of connection points: 4
#     Node 5, Type 0, BuildingBlock: CEKHIL_clean_sbu_0, # of connection points: 4
#     Node 6, Type 0, BuildingBlock: CEKHIL_clean_sbu_0, # of connection points: 4
#     Node 7, Type 0, BuildingBlock: CEKHIL_clean_sbu_0, # of connection points: 4
#     Node 8, Type 0, BuildingBlock: CEKHIL_clean_sbu_0, # of connection points: 4
#     Node 9, Type 0, BuildingBlock: CEKHIL_clean_sbu_0, # of connection points: 4
#     Node 10, Type 0, BuildingBlock: CEKHIL_clean_sbu_0, # of connection points: 4
#     Node 11, Type 0, BuildingBlock: CEKHIL_clean_sbu_0, # of connection points: 4
#     Node 12, Type 0, BuildingBlock: CEKHIL_clean_sbu_0, # of connection points: 4
#     Node 13, Type 0, BuildingBlock: CEKHIL_clean_sbu_0, # of connection points: 4
#     Node 14, Type 0, BuildingBlock: CEKHIL_clean_sbu_0, # of connection points: 4
#     Node 15, Type 0, BuildingBlock: CEKHIL_clean_sbu_0, # of connection points: 4
#     Node 16, Type 0, BuildingBlock: CEKHIL_clean_sbu_0, # of connection points: 4
#     Node 17, Type 0, BuildingBlock: CEKHIL_clean_sbu_0, # of connection points: 4
#     Node 18, Type 0, BuildingBlock: CEKHIL_clean_sbu_0, # of connection points: 4
#     Node 19, Type 0, BuildingBlock: CEKHIL_clean_sbu_0, # of connection points: 4
#     Node 20, Type 0, BuildingBlock: CEKHIL_clean_sbu_0, # of connection points: 4
#     Node 21, Type 0, BuildingBlock: CEKHIL_clean_sbu_0, # of connection points: 4
#     Node 22, Type 0, BuildingBlock: CEKHIL_clean_sbu_0, # of connection points: 4
#     Node 23, Type 0, BuildingBlock: CEKHIL_clean_sbu_0, # of connection points: 4
#     Edge 24, Type (0, 0), BuildingBlock: ZUJKAS_clean_linker_0, # of connection points: 2
#     Edge 25, Type (0, 0), BuildingBlock: ZUJKAS_clean_linker_0, # of connection points: 2
#     Edge 26, Type (0, 0), BuildingBlock: ZUJKAS_clean_linker_0, # of connection points: 2
#     Edge 27, Type (0, 0), BuildingBlock: ZUJKAS_clean_linker_0, # of connection points: 2
#     Edge 28, Type (0, 0), BuildingBlock: ZUJKAS_clean_linker_0, # of connection points: 2
#     Edge 29, Type (0, 0), BuildingBlock: ZUJKAS_clean_linker_0, # of connection points: 2
#     Edge 30, Type (0, 0), BuildingBlock: ZUJKAS_clean_linker_0, # of connection points: 2
#     Edge 31, Type (0, 0), BuildingBlock: ZUJKAS_clean_linker_0, # of connection points: 2
#     Edge 32, Type (0, 0), BuildingBlock: ZUJKAS_clean_linker_0, # of connection points: 2
#     Edge 33, Type (0, 0), BuildingBlock: ZUJKAS_clean_linker_0, # of connection points: 2
#     Edge 34, Type (0, 0), BuildingBlock: ZUJKAS_clean_linker_0, # of connection points: 2
#     Edge 35, Type (0, 0), BuildingBlock: ZUJKAS_clean_linker_0, # of connection points: 2
#     Edge 36, Type (0, 0), BuildingBlock: ZUJKAS_clean_linker_0, # of connection points: 2
#     Edge 37, Type (0, 0), BuildingBlock: ZUJKAS_clean_linker_0, # of connection points: 2
#     Edge 38, Type (0, 0), BuildingBlock: ZUJKAS_clean_linker_0, # of connection points: 2
#     Edge 39, Type (0, 0), BuildingBlock: ZUJKAS_clean_linker_0, # of connection points: 2
#     Edge 40, Type (0, 0), BuildingBlock: ZUJKAS_clean_linker_0, # of connection points: 2
#     Edge 41, Type (0, 0), BuildingBlock: ZUJKAS_clean_linker_0, # of connection points: 2
#     Edge 42, Type (0, 0), BuildingBlock: ZUJKAS_clean_linker_0, # of connection points: 2
#     Edge 43, Type (0, 0), BuildingBlock: ZUJKAS_clean_linker_0, # of connection points: 2
#     Edge 44, Type (0, 0), BuildingBlock: ZUJKAS_clean_linker_0, # of connection points: 2
#     Edge 45, Type (0, 0), BuildingBlock: ZUJKAS_clean_linker_0, # of connection points: 2
#     Edge 46, Type (0, 0), BuildingBlock: ZUJKAS_clean_linker_0, # of connection points: 2
#     Edge 47, Type (0, 0), BuildingBlock: ZUJKAS_clean_linker_0, # of connection points: 2
#     Edge 48, Type (0, 0), BuildingBlock: ZUJKAS_clean_linker_0, # of connection points: 2
#     Edge 49, Type (0, 0), BuildingBlock: ZUJKAS_clean_linker_0, # of connection points: 2
#     Edge 50, Type (0, 0), BuildingBlock: ZUJKAS_clean_linker_0, # of connection points: 2
#     Edge 51, Type (0, 0), BuildingBlock: ZUJKAS_clean_linker_0, # of connection points: 2
#     Edge 52, Type (0, 0), BuildingBlock: ZUJKAS_clean_linker_0, # of connection points: 2
#     Edge 53, Type (0, 0), BuildingBlock: ZUJKAS_clean_linker_0, # of connection points: 2
#     Edge 54, Type (0, 0), BuildingBlock: ZUJKAS_clean_linker_0, # of connection points: 2
#     Edge 55, Type (0, 0), BuildingBlock: ZUJKAS_clean_linker_0, # of connection points: 2
#     Edge 56, Type (0, 0), BuildingBlock: ZUJKAS_clean_linker_0, # of connection points: 2
#     Edge 57, Type (0, 0), BuildingBlock: ZUJKAS_clean_linker_0, # of connection points: 2
#     Edge 58, Type (0, 0), BuildingBlock: ZUJKAS_clean_linker_0, # of connection points: 2
#     Edge 59, Type (0, 0), BuildingBlock: ZUJKAS_clean_linker_0, # of connection points: 2
#     Edge 60, Type (0, 0), BuildingBlock: ZUJKAS_clean_linker_0, # of connection points: 2
#     Edge 61, Type (0, 0), BuildingBlock: ZUJKAS_clean_linker_0, # of connection points: 2
#     Edge 62, Type (0, 0), BuildingBlock: ZUJKAS_clean_linker_0, # of connection points: 2
#     Edge 63, Type (0, 0), BuildingBlock: ZUJKAS_clean_linker_0, # of connection points: 2
#     Edge 64, Type (0, 0), BuildingBlock: ZUJKAS_clean_linker_0, # of connection points: 2
#     Edge 65, Type (0, 0), BuildingBlock: ZUJKAS_clean_linker_0, # of connection points: 2
#     Edge 66, Type (0, 0), BuildingBlock: ZUJKAS_clean_linker_0, # of connection points: 2
#     Edge 67, Type (0, 0), BuildingBlock: ZUJKAS_clean_linker_0, # of connection points: 2
#     Edge 68, Type (0, 0), BuildingBlock: ZUJKAS_clean_linker_0, # of connection points: 2
#     Edge 69, Type (0, 0), BuildingBlock: ZUJKAS_clean_linker_0, # of connection points: 2
#     Edge 70, Type (0, 0), BuildingBlock: ZUJKAS_clean_linker_0, # of connection points: 2
#     Edge 71, Type (0, 0), BuildingBlock: ZUJKAS_clean_linker_0, # of connection points: 2
# Relax obj value: 0.228
# Max RMSD: 0.245
# Mean RMSD: 0.239
data_MOF--net-hbo--node1-CEKHIL_clean_sbu_0--edge1-ZUJKAS_clean_linker_0
_symmetry_space_group_name_H-M    P1
_symmetry_Int_Tables_number       1
_symmetry_cell_setting            triclinic
loop_
_symmetry_equiv_pos_as_xyz
'x, y, z'
_cell_length_a     68.048778
_cell_length_b     67.070398
_cell_length_c     66.88064
_cell_angle_alpha  89.851432
_cell_angle_beta   89.80539
_cell_angle_gamma 88.855543
loop_
_atom_site_label
_atom_site_type_symbol
_atom_site_fract_x
_atom_site_fract_y
_atom_site_fract_z
_atom_type_partial_charge
Co0 Co 0.12491 0.35492 0.24556 0.0
O1 O 0.09743 0.36111 0.24881 0.0
O2 O 0.11286 0.35865 0.21963 0.0
C3 C 0.12666 0.32921 0.26706 0.0
O4 O 0.15276 0.34786 0.23632 0.0
Co5 Co 0.15376 0.35924 0.28117 0.0
O6 O 0.17228 0.34456 0.26325 0.0
C7 C 0.13714 0.39505 0.26166 0.0
C8 C 0.09658 0.36194 0.22943 0.0
C9 C 0.16919 0.34271 0.24455 0.0
O10 O 0.13083 0.38416 0.24732 0.0
O11 O 0.14516 0.38779 0.27743 0.0
O12 O 0.12021 0.32655 0.24901 0.0
O13 O 0.1296 0.34749 0.27206 0.0
Co14 Co 0.11972 0.64708 0.72856 0.0
O15 O 0.09197 0.64657 0.72393 0.0
O16 O 0.10643 0.63883 0.75269 0.0
C17 C 0.12567 0.67685 0.71479 0.0
O18 O 0.14784 0.64678 0.73891 0.0
Co19 Co 0.14825 0.64615 0.69229 0.0
O20 O 0.16775 0.65347 0.71291 0.0
C21 C 0.12858 0.60952 0.70399 0.0
C22 C 0.09031 0.64085 0.74241 0.0
C23 C 0.16475 0.6512 0.73161 0.0
O24 O 0.12225 0.61855 0.71973 0.0
O25 O 0.13808 0.6183 0.69009 0.0
O26 O 0.11851 0.67568 0.73278 0.0
O27 O 0.1263 0.66029 0.70484 0.0
Co28 Co 0.86346 0.63464 0.24348 0.0
O29 O 0.89036 0.62622 0.24712 0.0
O30 O 0.87615 0.63163 0.21778 0.0
C31 C 0.86313 0.659 0.26646 0.0
O32 O 0.83657 0.64433 0.23379 0.0
Co33 Co 0.83274 0.63109 0.27774 0.0
O34 O 0.81657 0.64879 0.2603 0.0
C35 C 0.84611 0.5951 0.25594 0.0
C36 C 0.89191 0.62681 0.22777 0.0
C37 C 0.82043 0.65085 0.24175 0.0
O38 O 0.85517 0.60602 0.24318 0.0
O39 O 0.83756 0.60215 0.27155 0.0
O40 O 0.8703 0.66216 0.24872 0.0
O41 O 0.85835 0.64084 0.27028 0.0
Co42 Co 0.88042 0.34848 0.72517 0.0
O43 O 0.9083 0.35202 0.72472 0.0
O44 O 0.88875 0.35897 0.75053 0.0
C45 C 0.87986 0.31772 0.71217 0.0
O46 O 0.85125 0.34605 0.73132 0.0
Co47 Co 0.85761 0.34509 0.68537 0.0
O48 O 0.83584 0.33687 0.70322 0.0
C49 C 0.87196 0.38403 0.69757 0.0
C50 C 0.90635 0.35858 0.74289 0.0
C51 C 0.83596 0.33999 0.72202 0.0
O52 O 0.87653 0.37629 0.71456 0.0
O53 O 0.86535 0.37381 0.68302 0.0
O54 O 0.88392 0.32029 0.73094 0.0
O55 O 0.8789 0.33382 0.70142 0.0
Co56 Co 0.23812 0.136 0.36798 0.0
O57 O 0.23187 0.13086 0.39546 0.0
O58 O 0.26184 0.12897 0.38241 0.0
C59 C 0.22012 0.16424 0.36483 0.0
O60 O 0.25039 0.14119 0.34071 0.0
Co61 Co 0.20574 0.13601 0.33539 0.0
O62 O 0.22649 0.14782 0.3184 0.0
C63 C 0.21899 0.09818 0.3537 0.0
C64 C 0.25053 0.12737 0.39803 0.0
C65 C 0.24457 0.14711 0.32334 0.0
O66 O 0.2336 0.10715 0.36154 0.0
O67 O 0.20527 0.10736 0.34412 0.0
O68 O 0.23753 0.16468 0.37277 0.0
O69 O 0.21357 0.14673 0.36099 0.0
Co70 Co 0.35781 0.73919 0.86402 0.0
O71 O 0.38366 0.74383 0.87374 0.0
O72 O 0.37089 0.71389 0.86979 0.0
C73 C 0.3594 0.76023 0.83798 0.0
O74 O 0.33172 0.72903 0.85365 0.0
Co75 Co 0.32712 0.77413 0.86393 0.0
O76 O 0.31227 0.7557 0.84678 0.0
C77 C 0.33961 0.75569 0.9019 0.0
C78 C 0.38577 0.72462 0.87496 0.0
C79 C 0.31611 0.73703 0.84595 0.0
O80 O 0.34754 0.74114 0.89212 0.0
O81 O 0.3321 0.77117 0.89339 0.0
O82 O 0.36674 0.74226 0.83653 0.0
O83 O 0.35314 0.76537 0.85552 0.0
Co84 Co 0.75541 0.8524 0.36913 0.0
O85 O 0.76029 0.85627 0.39708 0.0
O86 O 0.73098 0.85857 0.38274 0.0
C87 C 0.77379 0.82453 0.36549 0.0
O88 O 0.74442 0.84858 0.34112 0.0
Co89 Co 0.78906 0.85429 0.33777 0.0
O90 O 0.76919 0.84357 0.31928 0.0
C91 C 0.77427 0.89116 0.35662 0.0
C92 C 0.7415 0.85967 0.39887 0.0
C93 C 0.75093 0.84391 0.32361 0.0
O94 O 0.76 0.88152 0.3644 0.0
O95 O 0.78813 0.88292 0.34642 0.0
O96 O 0.75603 0.82357 0.37263 0.0
O97 O 0.78037 0.84225 0.36265 0.0
Co98 Co 0.6332 0.25952 0.84926 0.0
O99 O 0.60793 0.25588 0.86108 0.0
O100 O 0.61884 0.28475 0.84969 0.0
C101 C 0.63239 0.23298 0.82893 0.0
O102 O 0.65839 0.2685 0.83562 0.0
Co103 Co 0.66607 0.22708 0.85522 0.0
O104 O 0.67894 0.24187 0.83328 0.0
C105 C 0.65485 0.25391 0.88843 0.0
C106 C 0.60476 0.27475 0.85798 0.0
C107 C 0.67412 0.25981 0.82888 0.0
O108 O 0.64436 0.26466 0.87646 0.0
O109 O 0.66345 0.23757 0.88318 0.0
O110 O 0.62385 0.24967 0.82367 0.0
O111 O 0.63931 0.23241 0.84687 0.0
Co112 Co 0.26471 0.87446 0.65057 0.0
O113 O 0.26992 0.90139 0.6427 0.0
O114 O 0.24032 0.88933 0.64861 0.0
C115 C 0.2879 0.87161 0.67422 0.0
O116 O 0.25352 0.84807 0.6596 0.0
Co117 Co 0.29577 0.84037 0.64483 0.0
O118 O 0.27725 0.82432 0.66087 0.0
C119 C 0.27332 0.85545 0.61015 0.0
C120 C 0.25102 0.90443 0.64367 0.0
C121 C 0.25961 0.83031 0.66398 0.0
O122 O 0.26267 0.86638 0.62182 0.0
O123 O 0.28817 0.8451 0.61619 0.0
O124 O 0.2712 0.88052 0.67813 0.0
O125 O 0.2908 0.86675 0.65574 0.0
Co126 Co 0.62388 0.76101 0.13623 0.0
O127 O 0.59572 0.76214 0.13421 0.0
O128 O 0.61434 0.7352 0.12865 0.0
C129 C 0.62701 0.77691 0.16554 0.0
O130 O 0.65301 0.7538 0.13776 0.0
Co131 Co 0.64823 0.79958 0.13499 0.0
O132 O 0.66944 0.78154 0.14526 0.0
C133 C 0.63041 0.78506 0.09805 0.0
C134 C 0.59689 0.74341 0.12929 0.0
C135 C 0.66864 0.76265 0.14347 0.0
O136 O 0.62603 0.76889 0.10727 0.0
O137 O 0.63808 0.79995 0.1068 0.0
O138 O 0.62236 0.7582 0.16516 0.0
O139 O 0.62697 0.78587 0.14838 0.0
Co140 Co 0.74057 0.12197 0.64549 0.0
O141 O 0.73209 0.0962 0.63711 0.0
O142 O 0.76319 0.10517 0.63963 0.0
C143 C 0.72034 0.12479 0.67196 0.0
O144 O 0.75506 0.14671 0.65424 0.0
Co145 Co 0.712 0.15875 0.64609 0.0
O146 O 0.73358 0.1718 0.66057 0.0
C147 C 0.72726 0.14316 0.60772 0.0
C148 C 0.75062 0.09144 0.63545 0.0
C149 C 0.75096 0.16437 0.66073 0.0
O150 O 0.73945 0.1316 0.61706 0.0
O151 O 0.71418 0.15394 0.61658 0.0
O152 O 0.73677 0.11468 0.67348 0.0
O153 O 0.71602 0.13128 0.65431 0.0
Co154 Co 0.37101 0.2371 0.13878 0.0
O155 O 0.39912 0.23523 0.13621 0.0
O156 O 0.38118 0.26274 0.13117 0.0
C157 C 0.36801 0.22104 0.16813 0.0
O158 O 0.34202 0.24505 0.14101 0.0
Co159 Co 0.34587 0.19901 0.13807 0.0
O160 O 0.32449 0.21755 0.14693 0.0
C161 C 0.36436 0.21283 0.10101 0.0
C162 C 0.39843 0.25404 0.13153 0.0
C163 C 0.32589 0.23645 0.14577 0.0
O164 O 0.36839 0.22931 0.10979 0.0
O165 O 0.35683 0.19804 0.11019 0.0
O166 O 0.37297 0.23965 0.1677 0.0
O167 O 0.36754 0.21225 0.15095 0.0
Co168 Co 0.85158 0.61134 0.76405 0.0
O169 O 0.85658 0.58311 0.76623 0.0
O170 O 0.85948 0.60086 0.73839 0.0
C171 C 0.82297 0.61257 0.78077 0.0
O172 O 0.84677 0.64017 0.75557 0.0
Co173 Co 0.84973 0.63886 0.80128 0.0
O174 O 0.83683 0.65788 0.78235 0.0
C175 C 0.88814 0.62402 0.78658 0.0
C176 C 0.86056 0.58359 0.74721 0.0
C177 C 0.83909 0.65595 0.76352 0.0
O178 O 0.8797 0.61666 0.77115 0.0
O179 O 0.87866 0.63233 0.80098 0.0
O180 O 0.82346 0.60707 0.76214 0.0
O181 O 0.83987 0.6148 0.78915 0.0
Co182 Co 0.87581 0.34331 0.24942 0.0
O183 O 0.90271 0.35077 0.25142 0.0
O184 O 0.88675 0.34711 0.22288 0.0
C185 C 0.87722 0.31799 0.27151 0.0
O186 O 0.84799 0.33519 0.24193 0.0
Co187 Co 0.8488 0.34751 0.28694 0.0
O188 O 0.83016 0.33261 0.27022 0.0
C189 C 0.85908 0.38327 0.26389 0.0
C190 C 0.90296 0.35143 0.23205 0.0
C191 C 0.83214 0.33054 0.25137 0.0
O192 O 0.86739 0.37219 0.25055 0.0
O193 O 0.85208 0.37643 0.28026 0.0
O194 O 0.88306 0.31529 0.25318 0.0
O195 O 0.873 0.33622 0.27631 0.0
Co196 Co 0.13825 0.3771 0.76414 0.0
O197 O 0.13489 0.40531 0.76837 0.0
O198 O 0.13061 0.38982 0.73947 0.0
C199 C 0.1669 0.37286 0.78001 0.0
O200 O 0.14132 0.34895 0.75344 0.0
Co201 Co 0.13881 0.34666 0.79908 0.0
O202 O 0.14962 0.32809 0.77845 0.0
C203 C 0.10161 0.3664 0.78751 0.0
C204 C 0.13052 0.4064 0.74948 0.0
C205 C 0.14777 0.33198 0.75987 0.0
O206 O 0.10998 0.37305 0.77163 0.0
O207 O 0.11094 0.3569 0.80126 0.0
O208 O 0.16657 0.37968 0.7618 0.0
O209 O 0.15002 0.37102 0.78866 0.0
Co210 Co 0.13107 0.63611 0.21287 0.0
O211 O 0.1316 0.60885 0.2043 0.0
O212 O 0.12464 0.61901 0.2351 0.0
C213 C 0.15959 0.64517 0.199 0.0
O214 O 0.1302 0.66273 0.22739 0.0
Co215 Co 0.12738 0.67 0.18157 0.0
O216 O 0.13277 0.68744 0.20474 0.0
C217 C 0.09293 0.64621 0.19076 0.0
C218 C 0.12704 0.60433 0.2226 0.0
C219 C 0.13225 0.68121 0.22276 0.0
O220 O 0.10251 0.63844 0.20546 0.0
O221 O 0.10071 0.65811 0.17816 0.0
O222 O 0.15936 0.6356 0.2159 0.0
O223 O 0.14286 0.64671 0.18983 0.0
Co224 Co 0.75468 0.8447 0.62838 0.0
O225 O 0.75841 0.84241 0.60001 0.0
O226 O 0.7307 0.8524 0.61481 0.0
C227 C 0.76864 0.81536 0.63713 0.0
O228 O 0.7449 0.84781 0.65696 0.0
Co229 Co 0.79015 0.84694 0.65718 0.0
O230 O 0.76997 0.84047 0.67765 0.0
C231 C 0.77891 0.88224 0.63343 0.0
C232 C 0.74025 0.84854 0.59835 0.0
C233 C 0.75171 0.84356 0.67442 0.0
O234 O 0.76358 0.8731 0.62749 0.0
O235 O 0.79218 0.87396 0.64436 0.0
O236 O 0.75064 0.81613 0.63064 0.0
O237 O 0.77818 0.8318 0.63585 0.0
Co238 Co 0.62082 0.25374 0.13762 0.0
O239 O 0.59405 0.25002 0.13039 0.0
O240 O 0.60735 0.2795 0.13516 0.0
C241 C 0.62253 0.23074 0.16198 0.0
O242 O 0.64827 0.26251 0.14588 0.0
Co243 Co 0.64996 0.21791 0.13026 0.0
O244 O 0.66799 0.23505 0.14534 0.0
C245 C 0.63665 0.24234 0.09634 0.0
C246 C 0.59193 0.26925 0.13057 0.0
C247 C 0.6649 0.25347 0.14916 0.0
O248 O 0.62833 0.25467 0.10854 0.0
O249 O 0.64464 0.22581 0.10189 0.0
O250 O 0.61492 0.24829 0.16558 0.0
O251 O 0.6261 0.22695 0.14339 0.0
Co252 Co 0.23666 0.14703 0.62864 0.0
O253 O 0.23107 0.14415 0.60069 0.0
O254 O 0.26012 0.13813 0.61466 0.0
C255 C 0.22171 0.17684 0.6332 0.0
O256 O 0.24826 0.14902 0.65658 0.0
Co257 Co 0.20298 0.14868 0.66014 0.0
O258 O 0.22418 0.15749 0.67823 0.0
C259 C 0.2136 0.11055 0.64101 0.0
C260 C 0.24932 0.13842 0.59865 0.0
C261 C 0.24231 0.15474 0.67398 0.0
O262 O 0.22883 0.11862 0.63324 0.0
O263 O 0.20063 0.12034 0.65109 0.0
O264 O 0.23933 0.17582 0.62561 0.0
O265 O 0.21313 0.16 0.63557 0.0
Co266 Co 0.38253 0.74437 0.15043 0.0
O267 O 0.41057 0.74469 0.14901 0.0
O268 O 0.3926 0.71806 0.14325 0.0
C269 C 0.37955 0.76101 0.1794 0.0
O270 O 0.35328 0.73854 0.15165 0.0
Co271 Co 0.35871 0.78453 0.14916 0.0
O272 O 0.33664 0.76735 0.15722 0.0
C273 C 0.3746 0.7675 0.1118 0.0
C274 C 0.40988 0.72591 0.14458 0.0
C275 C 0.3373 0.74839 0.15564 0.0
O276 O 0.38039 0.75178 0.12133 0.0
O277 O 0.36705 0.78286 0.12044 0.0
O278 O 0.38367 0.742 0.17949 0.0
O279 O 0.37963 0.7695 0.16207 0.0
Co280 Co 0.7386 0.13334 0.35523 0.0
O281 O 0.72907 0.10668 0.35584 0.0
O282 O 0.75993 0.1151 0.36165 0.0
C283 C 0.72383 0.14253 0.32669 0.0
O284 O 0.75397 0.15895 0.35487 0.0
Co285 Co 0.70969 0.16967 0.35807 0.0
O286 O 0.73321 0.18511 0.35072 0.0
C287 C 0.71922 0.14652 0.39425 0.0
C288 C 0.74698 0.10119 0.36005 0.0
C289 C 0.75054 0.17763 0.35177 0.0
O290 O 0.73238 0.13662 0.3844 0.0
O291 O 0.70755 0.15936 0.38615 0.0
O292 O 0.74029 0.13238 0.32618 0.0
O293 O 0.716 0.14502 0.34416 0.0
Co294 Co 0.3637 0.25421 0.86423 0.0
O295 O 0.36741 0.2595 0.89208 0.0
O296 O 0.37256 0.23009 0.87776 0.0
C297 C 0.33438 0.26975 0.86163 0.0
O298 O 0.36042 0.24298 0.83613 0.0
Co299 Co 0.36076 0.28911 0.83367 0.0
O300 O 0.35094 0.26805 0.81574 0.0
C301 C 0.39898 0.27822 0.85148 0.0
C302 C 0.37252 0.24086 0.89393 0.0
C303 C 0.35367 0.24952 0.81932 0.0
O304 O 0.3916 0.26221 0.85874 0.0
O305 O 0.38874 0.29161 0.84236 0.0
O306 O 0.33544 0.25153 0.86826 0.0
O307 O 0.3509 0.27836 0.85857 0.0
Co308 Co 0.2443 0.85577 0.36039 0.0
O309 O 0.25295 0.88173 0.36797 0.0
O310 O 0.22194 0.8738 0.36257 0.0
C311 C 0.26696 0.85034 0.33645 0.0
O312 O 0.22986 0.83104 0.35149 0.0
Co313 Co 0.27138 0.81825 0.36568 0.0
O314 O 0.25073 0.80463 0.35038 0.0
C315 C 0.25251 0.83694 0.40085 0.0
C316 C 0.2346 0.88732 0.36714 0.0
C317 C 0.23393 0.81272 0.34721 0.0
O318 O 0.24187 0.84812 0.38937 0.0
O319 O 0.26619 0.82528 0.39433 0.0
O320 O 0.25123 0.86095 0.33261 0.0
O321 O 0.26929 0.84503 0.35488 0.0
Co322 Co 0.6276 0.73868 0.86018 0.0
O323 O 0.62434 0.73234 0.888 0.0
O324 O 0.62177 0.76273 0.87503 0.0
C325 C 0.65507 0.72028 0.85528 0.0
O326 O 0.63103 0.75128 0.83267 0.0
Co327 Co 0.62565 0.70615 0.82736 0.0
O328 O 0.63725 0.72708 0.81023 0.0
C329 C 0.58963 0.71914 0.84848 0.0
C330 C 0.62126 0.75131 0.89076 0.0
C331 C 0.63659 0.74542 0.81519 0.0
O332 O 0.59882 0.73404 0.85575 0.0
O333 O 0.59808 0.70548 0.83802 0.0
O334 O 0.65611 0.73796 0.8631 0.0
O335 O 0.63758 0.71376 0.85243 0.0
H336 H 0.12555 0.5894 0.26074 0.0
H337 H 0.12667 0.55412 0.27069 0.0
H338 H 0.12599 0.53685 0.20862 0.0
H339 H 0.12528 0.57184 0.1986 0.0
H340 H 0.10194 0.52182 0.26259 0.0
H341 H 0.17614 0.50983 0.22989 0.0
H342 H 0.16558 0.53438 0.23404 0.0
H343 H 0.15895 0.5203 0.21229 0.0
C344 C 0.1255 0.57805 0.24926 0.0
C345 C 0.12561 0.58333 0.2289 0.0
C346 C 0.12614 0.55795 0.25495 0.0
C347 C 0.12688 0.54296 0.24036 0.0
C348 C 0.12595 0.54824 0.22009 0.0
H349 H 0.12502 0.41675 0.22907 0.0
H350 H 0.12223 0.45303 0.22606 0.0
C351 C 0.12546 0.56823 0.21439 0.0
C352 C 0.12917 0.52174 0.24606 0.0
H353 H 0.15818 0.48048 0.23776 0.0
C354 C 0.11434 0.5128 0.25741 0.0
C355 C 0.14551 0.51012 0.23947 0.0
C356 C 0.16255 0.51918 0.22843 0.0
C357 C 0.11499 0.49225 0.26146 0.0
C358 C 0.1308 0.48055 0.25393 0.0
C359 C 0.14596 0.48958 0.24326 0.0
C360 C 0.1316 0.45872 0.25632 0.0
C361 C 0.09856 0.48295 0.27319 0.0
C362 C 0.13789 0.4501 0.27434 0.0
C363 C 0.13967 0.42939 0.2761 0.0
C364 C 0.13514 0.417 0.25984 0.0
C365 C 0.12864 0.42581 0.24187 0.0
C366 C 0.127 0.44651 0.24011 0.0
H367 H 0.08677 0.49396 0.27713 0.0
H368 H 0.09206 0.47072 0.26439 0.0
H369 H 0.10452 0.47631 0.28718 0.0
H370 H 0.14164 0.45941 0.28693 0.0
H371 H 0.14463 0.42313 0.29019 0.0
H372 H 0.91203 0.64244 0.81353 0.0
H373 H 0.94793 0.64416 0.81253 0.0
H374 H 0.94939 0.6065 0.76043 0.0
H375 H 0.91358 0.60466 0.76113 0.0
H376 H 0.98021 0.60076 0.79835 0.0
H377 H 0.97303 0.67376 0.75854 0.0
H378 H 0.95707 0.66812 0.77932 0.0
H379 H 0.95438 0.65516 0.75614 0.0
C380 C 0.91996 0.63428 0.80201 0.0
C381 C 0.90989 0.62358 0.78727 0.0
C382 C 0.94046 0.63525 0.80154 0.0
C383 C 0.95114 0.62543 0.78644 0.0
C384 C 0.94128 0.61407 0.77224 0.0
H385 H 0.05628 0.63579 0.72235 0.0
H386 H 0.02349 0.63163 0.73626 0.0
C387 C 0.92082 0.61316 0.77262 0.0
C388 C 0.97237 0.62855 0.78407 0.0
H389 H 0.00457 0.65931 0.76091 0.0
C390 C 0.98569 0.61366 0.79045 0.0
C391 C 0.97924 0.64541 0.77374 0.0
C392 C 0.96529 0.66161 0.76646 0.0
C393 C 0.00583 0.61486 0.78599 0.0
C394 C 0.0126 0.6314 0.77495 0.0
C395 C -0.0007 0.64665 0.76936 0.0
C396 C 0.0329 0.63235 0.76712 0.0
C397 C 0.01954 0.59804 0.79224 0.0
C398 C 0.04911 0.63386 0.77991 0.0
C399 C 0.06801 0.63607 0.77195 0.0
C400 C 0.07081 0.63709 0.75113 0.0
C401 C 0.05456 0.63522 0.73845 0.0
C402 C 0.03582 0.63283 0.74637 0.0
H403 H 0.01145 0.58491 0.79782 0.0
H404 H 0.02906 0.5933 0.77952 0.0
H405 H 0.02921 0.60327 0.80439 0.0
H406 H 0.0471 0.63383 0.79598 0.0
H407 H 0.0803 0.63756 0.78205 0.0
H408 H 0.83938 0.41133 0.2863 0.0
H409 H 0.83604 0.447 0.27963 0.0
H410 H 0.87067 0.44009 0.22589 0.0
H411 H 0.87429 0.40432 0.23245 0.0
H412 H 0.88255 0.47111 0.25139 0.0
H413 H 0.80248 0.47542 0.23655 0.0
H414 H 0.80865 0.46251 0.2593 0.0
H415 H 0.81649 0.45226 0.2357 0.0
C416 C 0.84627 0.41732 0.27302 0.0
C417 C 0.85709 0.40493 0.2599 0.0
C418 C 0.84418 0.43769 0.26915 0.0
C419 C 0.85281 0.44604 0.25209 0.0
C420 C 0.86374 0.43382 0.23903 0.0
H421 H 0.86262 0.57375 0.22497 0.0
H422 H 0.86373 0.5375 0.22097 0.0
C423 C 0.8658 0.41341 0.24284 0.0
C424 C 0.85129 0.46775 0.24864 0.0
H425 H 0.81813 0.50625 0.24381 0.0
C426 C 0.86853 0.47883 0.24939 0.0
C427 C 0.83295 0.47765 0.246 0.0
C428 C 0.8141 0.46634 0.24414 0.0
C429 C 0.86781 0.49972 0.24868 0.0
C430 C 0.84938 0.50966 0.24681 0.0
C431 C 0.83221 0.49853 0.24527 0.0
C432 C 0.84749 0.53158 0.24813 0.0
C433 C 0.88665 0.511 0.25097 0.0
C434 C 0.83742 0.54017 0.26436 0.0
C435 C 0.83664 0.56082 0.26667 0.0
C436 C 0.84591 0.57328 0.25272 0.0
C437 C 0.85545 0.56461 0.23608 0.0
C438 C 0.85618 0.5439 0.23379 0.0
H439 H 0.89901 0.50119 0.25604 0.0
H440 H 0.89077 0.51757 0.23634 0.0
H441 H 0.88468 0.52337 0.26184 0.0
H442 H 0.83057 0.53085 0.27556 0.0
H443 H 0.82907 0.56694 0.2796 0.0
H444 H 0.07892 0.36052 0.82096 0.0
H445 H 0.04322 0.36488 0.824 0.0
H446 H 0.04017 0.38345 0.76226 0.0
H447 H 0.0757 0.37972 0.75921 0.0
H448 H 0.01633 0.40648 0.78698 0.0
H449 H 0.00537 0.3253 0.80049 0.0
H450 H 0.0207 0.33824 0.81778 0.0
H451 H 0.0287 0.33479 0.79239 0.0
C452 C 0.07064 0.36559 0.80804 0.0
C453 C 0.08015 0.36956 0.78976 0.0
C454 C 0.05025 0.36804 0.80982 0.0
C455 C 0.03905 0.37422 0.79328 0.0
C456 C 0.04857 0.37869 0.77523 0.0
H457 H 0.9408 0.37123 0.72767 0.0
H458 H 0.97063 0.37905 0.74592 0.0
C459 C 0.06889 0.37645 0.77349 0.0
C460 C 0.01733 0.3751 0.79401 0.0
H461 H 0.9776 0.34489 0.79318 0.0
C462 C 0.00778 0.39311 0.78882 0.0
C463 C 0.00619 0.35768 0.79665 0.0
C464 C 0.01567 0.33785 0.80203 0.0
C465 C 0.98764 0.39379 0.7845 0.0
C466 C 0.97692 0.37602 0.7854 0.0
C467 C 0.98599 0.35846 0.79251 0.0
C468 C 0.95787 0.3743 0.77519 0.0
C469 C 0.97822 0.4132 0.7778 0.0
C470 C 0.94083 0.36911 0.78568 0.0
C471 C 0.92363 0.36479 0.77523 0.0
C472 C 0.92355 0.3651 0.75421 0.0
C473 C 0.94052 0.37076 0.74386 0.0
C474 C 0.95749 0.37541 0.75426 0.0
H475 H 0.98628 0.42619 0.78365 0.0
H476 H 0.97853 0.41397 0.76123 0.0
H477 H 0.96265 0.41432 0.78278 0.0
H478 H 0.94099 0.36793 0.80184 0.0
H479 H 0.91072 0.3604 0.78353 0.0
H480 H 0.12178 0.4418 0.76751 0.0
H481 H 0.11705 0.47435 0.7515 0.0
H482 H 0.12549 0.44745 0.69355 0.0
H483 H 0.12994 0.41463 0.70945 0.0
H484 H 0.15104 0.48273 0.70653 0.0
H485 H 0.07035 0.49525 0.71275 0.0
H486 H 0.08219 0.4846 0.73443 0.0
H487 H 0.08165 0.47063 0.71159 0.0
C488 C 0.12239 0.44276 0.75135 0.0
C489 C 0.12628 0.42573 0.73972 0.0
C490 C 0.11959 0.46131 0.74224 0.0
C491 C 0.12078 0.46316 0.72139 0.0
C492 C 0.12437 0.44619 0.70966 0.0
H493 H 0.13683 0.58438 0.67241 0.0
H494 H 0.13315 0.5481 0.67153 0.0
C495 C 0.1269 0.42752 0.71877 0.0
C496 C 0.11994 0.48319 0.7123 0.0
H497 H 0.08981 0.5241 0.70774 0.0
C498 C 0.13763 0.49175 0.70628 0.0
C499 C 0.10238 0.4947 0.71206 0.0
C500 C 0.08298 0.48585 0.7179 0.0
C501 C 0.13851 0.51211 0.70157 0.0
C502 C 0.12108 0.52397 0.70245 0.0
C503 C 0.10315 0.51499 0.70709 0.0
C504 C 0.12158 0.54602 0.70164 0.0
C505 C 0.15829 0.52098 0.6972 0.0
C506 C 0.11554 0.55691 0.71851 0.0
C507 C 0.11737 0.57754 0.71898 0.0
C508 C 0.12539 0.58778 0.70259 0.0
C509 C 0.13081 0.57693 0.68537 0.0
C510 C 0.1288 0.55619 0.68487 0.0
H511 H 0.17062 0.51041 0.70057 0.0
H512 H 0.15915 0.52498 0.68112 0.0
H513 H 0.16031 0.53476 0.70606 0.0
H514 H 0.10992 0.54936 0.73162 0.0
H515 H 0.11293 0.58535 0.73246 0.0
H516 H 0.92576 0.61258 0.24453 0.0
H517 H 0.95866 0.61241 0.22984 0.0
H518 H 0.93478 0.63442 0.17419 0.0
H519 H 0.90164 0.63465 0.18881 0.0
H520 H 0.9752 0.59458 0.19237 0.0
H521 H 0.97394 0.67774 0.19479 0.0
H522 H 0.95676 0.66317 0.20902 0.0
H523 H 0.95408 0.66548 0.18244 0.0
C524 C 0.92743 0.61709 0.22906 0.0
C525 C 0.91117 0.62385 0.21788 0.0
C526 C 0.94623 0.61692 0.22068 0.0
C527 C 0.9491 0.62361 0.20104 0.0
C528 C 0.9328 0.62935 0.18944 0.0
H529 H 0.06677 0.65911 0.16199 0.0
H530 H 0.03167 0.65198 0.15996 0.0
C531 C 0.91392 0.62942 0.19779 0.0
C532 C 0.96937 0.62621 0.19363 0.0
H533 H 0.00394 0.66182 0.18728 0.0
C534 C 0.98146 0.60926 0.19089 0.0
C535 C 0.97738 0.6454 0.19161 0.0
C536 C 0.96499 0.66406 0.19468 0.0
C537 C 0.00162 0.61101 0.18694 0.0
C538 C 0.0099 0.63019 0.18627 0.0
C539 C -0.00243 0.64714 0.18786 0.0
C540 C 0.03144 0.63305 0.1862 0.0
C541 C 0.01389 0.59227 0.18391 0.0
C542 C 0.0429 0.62489 0.2017 0.0
C543 C 0.06288 0.6289 0.20291 0.0
C544 C 0.07185 0.6414 0.18877 0.0
C545 C 0.06036 0.64944 0.17313 0.0
C546 C 0.04031 0.64535 0.17191 0.0
H547 H 0.00494 0.58011 0.17765 0.0
H548 H 0.02652 0.59491 0.17375 0.0
H549 H 0.01966 0.58709 0.19857 0.0
H550 H 0.03627 0.61586 0.21324 0.0
H551 H 0.07118 0.62248 0.21521 0.0
H552 H 0.86422 0.57894 0.70667 0.0
H553 H 0.86919 0.54751 0.68833 0.0
H554 H 0.87212 0.51536 0.74416 0.0
H555 H 0.8671 0.54647 0.76256 0.0
H556 H 0.90406 0.50947 0.70519 0.0
H557 H 0.82351 0.49904 0.69614 0.0
H558 H 0.83447 0.52328 0.69408 0.0
H559 H 0.83222 0.51166 0.7181 0.0
C560 C 0.86615 0.56519 0.71502 0.0
C561 C 0.86519 0.56512 0.73605 0.0
C562 C 0.86897 0.54732 0.70453 0.0
C563 C 0.87097 0.52926 0.71498 0.0
C564 C 0.87061 0.52924 0.73592 0.0
H565 H 0.89022 0.40922 0.72303 0.0
H566 H 0.89175 0.44526 0.72107 0.0
C567 C 0.86771 0.547 0.74638 0.0
C568 C 0.87244 0.51005 0.7044 0.0
H569 H 0.84419 0.47064 0.69197 0.0
C570 C 0.89103 0.50109 0.70176 0.0
C571 C 0.85541 0.49938 0.69971 0.0
C572 C 0.83519 0.50874 0.70203 0.0
C573 C 0.89295 0.48108 0.69591 0.0
C574 C 0.87583 0.46976 0.69319 0.0
C575 C 0.8573 0.47928 0.69416 0.0
C576 C 0.87664 0.4477 0.69271 0.0
C577 C 0.91329 0.47204 0.6935 0.0
C578 C 0.86729 0.43701 0.67755 0.0
C579 C 0.86618 0.4162 0.67872 0.0
C580 C 0.87416 0.40584 0.69522 0.0
C581 C 0.88383 0.41665 0.71012 0.0
C582 C 0.88497 0.43731 0.70891 0.0
H583 H 0.92385 0.48341 0.68836 0.0
H584 H 0.91848 0.46633 0.70819 0.0
H585 H 0.91344 0.45951 0.68268 0.0
H586 H 0.86055 0.44479 0.66505 0.0
H587 H 0.85861 0.40833 0.66701 0.0
H588 H 0.9131 0.34409 0.19278 0.0
H589 H 0.94536 0.34971 0.17706 0.0
H590 H 0.96579 0.37595 0.23182 0.0
H591 H 0.93403 0.37047 0.24741 0.0
H592 H 0.97732 0.39642 0.19496 0.0
H593 H 0.99378 0.31452 0.19539 0.0
H594 H 0.97187 0.32408 0.18337 0.0
H595 H 0.97377 0.32481 0.2101 0.0
C596 C 0.92443 0.35134 0.20128 0.0
C597 C 0.92118 0.35663 0.22138 0.0
C598 C 0.9428 0.35448 0.19232 0.0
C599 C 0.95795 0.36312 0.20336 0.0
C600 C 0.95428 0.3693 0.22304 0.0
H601 H 0.06423 0.38035 0.24492 0.0
H602 H 0.03161 0.38309 0.23019 0.0
C603 C 0.93614 0.36603 0.23197 0.0
C604 C 0.97832 0.3643 0.19571 0.0
H605 H 0.02047 0.33596 0.19513 0.0
C606 C 0.98673 0.38319 0.19424 0.0
C607 C 0.99053 0.34703 0.19457 0.0
C608 C 0.98217 0.3264 0.19594 0.0
C609 C 0.0072 0.38526 0.19384 0.0
C610 C 0.01942 0.36804 0.19522 0.0
C611 C 0.01102 0.34914 0.19423 0.0
C612 C 0.04 0.36921 0.20215 0.0
C613 C 0.01557 0.4059 0.19345 0.0
C614 C 0.05561 0.36052 0.19126 0.0
C615 C 0.07443 0.35904 0.19967 0.0
C616 C 0.07767 0.36577 0.21926 0.0
C617 C 0.06214 0.37497 0.22983 0.0
C618 C 0.04353 0.37673 0.22134 0.0
H619 H 0.00567 0.41648 0.18532 0.0
H620 H 0.01703 0.41137 0.20901 0.0
H621 H 0.03032 0.40589 0.18627 0.0
H622 H 0.05309 0.35438 0.17654 0.0
H623 H 0.08616 0.35179 0.19126 0.0
H624 H 0.22826 0.12821 0.56608 0.0
H625 H 0.24057 0.11882 0.53311 0.0
H626 H 0.3002 0.1251 0.55343 0.0
H627 H 0.28789 0.13431 0.5869 0.0
H628 H 0.28839 0.14704 0.51676 0.0
H629 H 0.2706 0.06711 0.51358 0.0
H630 H 0.2511 0.08197 0.52443 0.0
H631 H 0.2745 0.08015 0.53684 0.0
C632 C 0.244 0.12744 0.56365 0.0
C633 C 0.25712 0.13208 0.57902 0.0
C634 C 0.25102 0.12189 0.54485 0.0
C635 C 0.27128 0.12097 0.54098 0.0
C636 C 0.28451 0.12549 0.55627 0.0
H637 H 0.28913 0.12444 0.40992 0.0
H638 H 0.30129 0.11906 0.44416 0.0
C639 C 0.27747 0.13078 0.57529 0.0
C640 C 0.27797 0.11717 0.52028 0.0
H641 H 0.26906 0.08526 0.48198 0.0
C642 C 0.28494 0.1333 0.50913 0.0
C643 C 0.27364 0.09915 0.51052 0.0
C644 C 0.26723 0.08103 0.52201 0.0
C645 C 0.28528 0.13272 0.48815 0.0
C646 C 0.27867 0.11546 0.47829 0.0
C647 C 0.27395 0.09854 0.48958 0.0
C648 C 0.27231 0.11629 0.45718 0.0
C649 C 0.29072 0.15122 0.47669 0.0
C650 C 0.25212 0.11591 0.45317 0.0
C651 C 0.24519 0.11897 0.43383 0.0
C652 C 0.25834 0.1224 0.41804 0.0
C653 C 0.27867 0.12193 0.42186 0.0
C654 C 0.28563 0.11891 0.44136 0.0
H655 H 0.2945 0.16375 0.48672 0.0
H656 H 0.30359 0.14787 0.46694 0.0
H657 H 0.27835 0.15611 0.46693 0.0
H658 H 0.2416 0.11395 0.46519 0.0
H659 H 0.22946 0.11907 0.43137 0.0
H660 H 0.35421 0.72557 0.9256 0.0
H661 H 0.35966 0.72647 0.96163 0.0
H662 H 0.33356 0.78554 0.96417 0.0
H663 H 0.32772 0.78473 0.92823 0.0
H664 H 0.3831 0.75408 0.98037 0.0
H665 H 0.30718 0.75729 0.01085 0.0
H666 H 0.3126 0.74974 0.98549 0.0
H667 H 0.31172 0.77574 0.99199 0.0
C668 C 0.34927 0.73863 0.93384 0.0
C669 C 0.34056 0.75511 0.92398 0.0
C670 C 0.35245 0.73911 0.95442 0.0
C671 C 0.34689 0.756 0.96553 0.0
C672 C 0.33763 0.77221 0.9559 0.0
H673 H 0.36251 0.79704 0.08607 0.0
H674 H 0.35768 0.79429 0.05007 0.0
C675 C 0.33439 0.77174 0.93532 0.0
C676 C 0.35217 0.75733 0.98687 0.0
H677 H 0.33295 0.76491 0.03343 0.0
C678 C 0.37215 0.75628 0.99202 0.0
C679 C 0.33782 0.76026 0.00195 0.0
C680 C 0.31611 0.76064 -0.00264 0.0
C681 C 0.37821 0.75855 0.01188 0.0
C682 C 0.36388 0.76174 0.0269 0.0
C683 C 0.34389 0.7626 0.02179 0.0
C684 C 0.36917 0.76407 0.04813 0.0
C685 C 0.39989 0.758 0.01659 0.0
C686 C 0.37764 0.74809 0.0588 0.0
C687 C 0.38048 0.74958 0.07941 0.0
C688 C 0.37472 0.76704 0.08968 0.0
C689 C 0.36706 0.78334 0.0787 0.0
C690 C 0.36424 0.78181 0.05812 0.0
H691 H 0.40902 0.76002 0.00297 0.0
H692 H 0.40353 0.76976 0.02756 0.0
H693 H 0.40387 0.74333 0.02331 0.0
H694 H 0.38131 0.73418 0.05134 0.0
H695 H 0.38639 0.73673 0.08737 0.0
H696 H 0.70271 0.85818 0.40991 0.0
H697 H 0.68913 0.8625 0.44378 0.0
H698 H 0.74697 0.8757 0.46569 0.0
H699 H 0.76052 0.87138 0.43224 0.0
H700 H 0.70119 0.83857 0.47555 0.0
H701 H 0.71269 0.91735 0.49441 0.0
H702 H 0.71173 0.90863 0.46886 0.0
H703 H 0.73431 0.90687 0.48283 0.0
C704 C 0.71241 0.86239 0.42193 0.0
C705 C 0.73269 0.86428 0.41853 0.0
C706 C 0.70463 0.8649 0.4412 0.0
C707 C 0.71698 0.86977 0.45715 0.0
C708 C 0.73708 0.87245 0.45352 0.0
H709 H 0.75309 0.8329 0.56325 0.0
H710 H 0.73963 0.83872 0.52999 0.0
C711 C 0.74486 0.86972 0.43442 0.0
C712 C 0.70998 0.86916 0.4781 0.0
H713 H 0.71685 0.89336 0.5222 0.0
C714 C 0.70388 0.85078 0.48572 0.0
C715 C 0.71307 0.88518 0.49135 0.0
C716 C 0.7181 0.90568 0.48387 0.0
C717 C 0.70331 0.84728 0.50638 0.0
C718 C 0.70913 0.86247 0.51955 0.0
C719 C 0.71272 0.8816 0.51202 0.0
C720 C 0.71554 0.85774 0.54012 0.0
C721 C 0.69798 0.82688 0.51391 0.0
C722 C 0.70651 0.86666 0.55682 0.0
C723 C 0.71415 0.86323 0.57598 0.0
C724 C 0.73115 0.85122 0.57853 0.0
C725 C 0.74 0.84224 0.56175 0.0
C726 C 0.73223 0.84542 0.54276 0.0
H727 H 0.6879 0.81941 0.5034 0.0
H728 H 0.71154 0.81749 0.51518 0.0
H729 H 0.69091 0.82776 0.52888 0.0
H730 H 0.69376 0.87642 0.55499 0.0
H731 H 0.70712 0.87041 0.58869 0.0
H732 H 0.62088 0.27562 0.0781 0.0
H733 H 0.62437 0.2855 0.04304 0.0
H734 H 0.65859 0.23198 0.03135 0.0
H735 H 0.65536 0.22195 0.06625 0.0
H736 H 0.67489 0.27035 0.01708 0.0
H737 H 0.59738 0.25716 0.99446 0.0
H738 H 0.60172 0.27177 0.0165 0.0
H739 H 0.60797 0.24568 0.01648 0.0
C740 C 0.62909 0.26589 0.06807 0.0
C741 C 0.63784 0.24797 0.075 0.0
C742 C 0.63103 0.27158 0.04807 0.0
C743 C 0.6417 0.25943 0.03475 0.0
C744 C 0.65035 0.24154 0.04153 0.0
H745 H 0.67633 0.23611 0.91818 0.0
H746 H 0.67435 0.24296 0.95381 0.0
C747 C 0.6484 0.23581 0.06146 0.0
C748 C 0.64396 0.26511 0.01362 0.0
H749 H 0.61977 0.26514 0.96915 0.0
C750 C 0.66281 0.26955 0.00658 0.0
C751 C 0.62808 0.26426 0.00015 0.0
C752 C 0.60762 0.25939 0.00713 0.0
C753 C 0.6664 0.27225 0.98613 0.0
C754 C 0.65079 0.27002 0.97249 0.0
C755 C 0.6317 0.26683 0.97968 0.0
C756 C 0.65426 0.26822 0.95078 0.0
C757 C 0.68695 0.27693 0.9793 0.0
C758 C 0.6436 0.28017 0.93725 0.0
C759 C 0.64452 0.27616 0.91679 0.0
C760 C 0.65599 0.25999 0.9096 0.0
C761 C 0.66732 0.24865 0.92317 0.0
C762 C 0.66637 0.25267 0.94357 0.0
H763 H 0.69503 0.28508 0.99103 0.0
H764 H 0.69515 0.26277 0.97632 0.0
H765 H 0.68679 0.286 0.96538 0.0
H766 H 0.63404 0.29213 0.94259 0.0
H767 H 0.63561 0.28521 0.90675 0.0
H768 H 0.27096 0.81483 0.42979 0.0
H769 H 0.2676 0.81819 0.46582 0.0
H770 H 0.22334 0.86442 0.45776 0.0
H771 H 0.22679 0.86143 0.42144 0.0
H772 H 0.25301 0.87512 0.48303 0.0
H773 H 0.22534 0.80124 0.5049 0.0
H774 H 0.24656 0.79907 0.48903 0.0
H775 H 0.22426 0.81037 0.47948 0.0
C776 C 0.26031 0.82556 0.43558 0.0
C777 C 0.24919 0.83791 0.42268 0.0
C778 C 0.25828 0.82732 0.45622 0.0
C779 C 0.24497 0.84129 0.46442 0.0
C780 C 0.23355 0.8534 0.45167 0.0
H781 H 0.24301 0.87527 0.59131 0.0
H782 H 0.2333 0.87261 0.55629 0.0
C783 C 0.23557 0.85167 0.43094 0.0
C784 C 0.24463 0.84447 0.48624 0.0
H785 H 0.24228 0.81948 0.53061 0.0
C786 C 0.25024 0.86312 0.49351 0.0
C787 C 0.24095 0.82877 0.49979 0.0
C788 C 0.23374 0.80881 0.4929 0.0
C789 C 0.25356 0.86608 0.51394 0.0
C790 C 0.25099 0.85001 0.52733 0.0
C791 C 0.24439 0.83168 0.5202 0.0
C792 C 0.25648 0.85148 0.54855 0.0
C793 C 0.26082 0.88599 0.52095 0.0
C794 C 0.27258 0.84028 0.55571 0.0
C795 C 0.2782 0.84172 0.57567 0.0
C796 C 0.26772 0.85434 0.58885 0.0
C797 C 0.25148 0.86548 0.58157 0.0
C798 C 0.2459 0.86402 0.56158 0.0
H799 H 0.26487 0.89585 0.50828 0.0
H800 H 0.24909 0.89364 0.52978 0.0
H801 H 0.27381 0.8839 0.5308 0.0
H802 H 0.2809 0.83051 0.54578 0.0
H803 H 0.29071 0.83286 0.58075 0.0
H804 H 0.63711 0.81638 0.07246 0.0
H805 H 0.63122 0.81764 0.03637 0.0
H806 H 0.60953 0.75769 0.03828 0.0
H807 H 0.61496 0.75636 0.07418 0.0
H808 H 0.64797 0.79389 0.00796 0.0
H809 H 0.56743 0.78585 0.00569 0.0
H810 H 0.58027 0.79231 0.02829 0.0
H811 H 0.57873 0.76664 0.02067 0.0
C812 C 0.6309 0.80353 0.06523 0.0
C813 C 0.62652 0.78626 0.07627 0.0
C814 C 0.62751 0.80431 0.04462 0.0
C815 C 0.61956 0.78792 0.03472 0.0
C816 C 0.61514 0.77073 0.04569 0.0
H817 H 0.61456 0.73047 0.92493 0.0
H818 H 0.61227 0.7434 0.95898 0.0
C819 C 0.61847 0.76993 0.06624 0.0
C820 C 0.61732 0.78794 0.0127 0.0
H821 H 0.58526 0.7757 0.97576 0.0
C822 C 0.63416 0.79041 0.00084 0.0
C823 C 0.59925 0.78355 0.00344 0.0
C824 C 0.58036 0.78216 0.0152 0.0
C825 C 0.63373 0.78712 0.98014 0.0
C826 C 0.61597 0.78134 0.97116 0.0
C827 C 0.59887 0.78003 0.98279 0.0
C828 C 0.61552 0.77424 0.95029 0.0
C829 C 0.65248 0.78863 0.96818 0.0
C830 C 0.61769 0.78742 0.93415 0.0
C831 C 0.61893 0.78007 0.91461 0.0
C832 C 0.61815 0.75945 0.91103 0.0
C833 C 0.61534 0.74641 0.92722 0.0
C834 C 0.61396 0.75377 0.94666 0.0
H835 H 0.66539 0.79166 0.97776 0.0
H836 H 0.65535 0.77457 0.95983 0.0
H837 H 0.65092 0.80086 0.95707 0.0
H838 H 0.6188 0.8033 0.93672 0.0
H839 H 0.62106 0.79046 0.9024 0.0
H840 H 0.74898 0.119 0.58272 0.0
H841 H 0.74864 0.1189 0.54614 0.0
H842 H 0.70672 0.16797 0.54626 0.0
H843 H 0.70702 0.16838 0.58271 0.0
H844 H 0.71455 0.11345 0.52201 0.0
H845 H 0.75005 0.18585 0.50714 0.0
H846 H 0.75189 0.17315 0.53093 0.0
H847 H 0.73001 0.18723 0.52467 0.0
C848 C 0.73985 0.12993 0.57498 0.0
C849 C 0.72802 0.1437 0.58565 0.0
C850 C 0.73966 0.1298 0.55411 0.0
C851 C 0.72781 0.14355 0.54362 0.0
C852 C 0.71619 0.15745 0.55416 0.0
H853 H 0.69711 0.16784 0.42131 0.0
H854 H 0.69847 0.16551 0.45773 0.0
C855 C 0.71631 0.15757 0.57499 0.0
C856 C 0.72678 0.14282 0.52164 0.0
H857 H 0.73431 0.17052 0.47963 0.0
C858 C 0.71902 0.12582 0.51267 0.0
C859 C 0.7326 0.15904 0.50965 0.0
C860 C 0.74178 0.1773 0.51853 0.0
C861 C 0.71642 0.12485 0.49192 0.0
C862 C 0.72196 0.14121 0.47999 0.0
C863 C 0.72996 0.15809 0.48894 0.0
C864 C 0.71978 0.14115 0.45809 0.0
C865 C 0.70732 0.10661 0.48297 0.0
C866 C 0.73117 0.12804 0.44637 0.0
C867 C 0.73048 0.12932 0.42556 0.0
C868 C 0.71842 0.14381 0.41617 0.0
C869 C 0.70655 0.15651 0.42803 0.0
C870 C 0.70732 0.15524 0.44883 0.0
H871 H 0.70001 0.09733 0.49448 0.0
H872 H 0.69636 0.11091 0.47138 0.0
H873 H 0.71897 0.09734 0.47569 0.0
H874 H 0.74107 0.11725 0.45331 0.0
H875 H 0.73978 0.11927 0.41689 0.0
H876 H 0.35866 0.1804 0.07691 0.0
H877 H 0.36518 0.17758 0.04104 0.0
H878 H 0.3856 0.23802 0.04 0.0
H879 H 0.3795 0.24092 0.07581 0.0
H880 H 0.34847 0.19933 0.01131 0.0
H881 H 0.42878 0.20919 0.00919 0.0
H882 H 0.41572 0.20357 0.03202 0.0
H883 H 0.41679 0.22886 0.02298 0.0
C884 C 0.3647 0.19306 0.06911 0.0
C885 C 0.36853 0.21091 0.0793 0.0
C886 C 0.36846 0.19138 0.0486 0.0
C887 C 0.37624 0.20743 0.03793 0.0
C888 C 0.38011 0.22524 0.04804 0.0
H889 H 0.38122 0.26139 0.92746 0.0
H890 H 0.38468 0.24847 0.96137 0.0
C891 C 0.3764 0.22694 0.06852 0.0
C892 C 0.37886 0.20633 0.01594 0.0
H893 H 0.41121 0.21738 0.9786 0.0
C894 C 0.3623 0.20276 0.0041 0.0
C895 C 0.39697 0.21059 0.00657 0.0
C896 C 0.41561 0.21305 0.01837 0.0
C897 C 0.36299 0.20497 0.98324 0.0
C898 C 0.38073 0.21077 0.97405 0.0
C899 C 0.39761 0.21302 0.98573 0.0
C900 C 0.38113 0.21762 0.95303 0.0
C901 C 0.34442 0.20248 0.9713 0.0
C902 C 0.37853 0.20443 0.93703 0.0
C903 C 0.37661 0.21181 0.91748 0.0
C904 C 0.3771 0.23245 0.91383 0.0
C905 C 0.38059 0.24543 0.92982 0.0
C906 C 0.38267 0.23807 0.9492 0.0
H907 H 0.33147 0.19958 0.98097 0.0
H908 H 0.34132 0.21606 0.96223 0.0
H909 H 0.34639 0.18976 0.96085 0.0
H910 H 0.37745 0.18856 0.93973 0.0
H911 H 0.37395 0.20148 0.90541 0.0
H912 H 0.57843 0.3077 0.13796 0.0
H913 H 0.5445 0.32052 0.13343 0.0
H914 H 0.52822 0.2639 0.10859 0.0
H915 H 0.56158 0.25134 0.11268 0.0
H916 H 0.51095 0.29641 0.08859 0.0
H917 H 0.50099 0.30164 0.17134 0.0
H918 H 0.51989 0.31582 0.15938 0.0
H919 H 0.5223 0.28916 0.16076 0.0
C920 C 0.56761 0.29819 0.13124 0.0
C921 C 0.57255 0.27843 0.12596 0.0
C922 C 0.54826 0.30548 0.12874 0.0
C923 C 0.53378 0.29307 0.1209 0.0
C924 C 0.53911 0.27377 0.11465 0.0
H925 H 0.43344 0.23819 0.11955 0.0
H926 H 0.46428 0.25544 0.11435 0.0
C927 C 0.55822 0.26655 0.11716 0.0
C928 C 0.51261 0.2987 0.12067 0.0
H929 H 0.47292 0.29739 0.15195 0.0
C930 C 0.50258 0.29741 0.10239 0.0
C931 C 0.50168 0.30016 0.13867 0.0
C932 C 0.51164 0.30174 0.15872 0.0
C933 C 0.48215 0.29509 0.10187 0.0
C934 C 0.47159 0.29415 0.12003 0.0
C935 C 0.48119 0.298 0.13808 0.0
C936 C 0.45216 0.28476 0.121 0.0
C937 C 0.47221 0.2919 0.08207 0.0
C938 C 0.43514 0.29561 0.12639 0.0
C939 C 0.41734 0.28576 0.12914 0.0
C940 C 0.41657 0.26491 0.12704 0.0
C941 C 0.43362 0.25423 0.12137 0.0
C942 C 0.45121 0.26408 0.11827 0.0
H943 H 0.48076 0.29842 0.06956 0.0
H944 H 0.47103 0.27564 0.07936 0.0
H945 H 0.45714 0.29856 0.0821 0.0
H946 H 0.4357 0.31155 0.12876 0.0
H947 H 0.40439 0.29432 0.13358 0.0
H948 H 0.56408 0.69215 0.83308 0.0
H949 H 0.52922 0.68875 0.84105 0.0
H950 H 0.53244 0.73791 0.88225 0.0
H951 H 0.5672 0.74166 0.87425 0.0
H952 H 0.51018 0.68192 0.87837 0.0
H953 H 0.48791 0.75433 0.84403 0.0
H954 H 0.51163 0.74266 0.83952 0.0
H955 H 0.50707 0.75626 0.86226 0.0
C956 C 0.55738 0.70231 0.84379 0.0
C957 C 0.56841 0.71733 0.85287 0.0
C958 C 0.53749 0.70025 0.84838 0.0
C959 C 0.52829 0.71318 0.86208 0.0
C960 C 0.53926 0.72798 0.8714 0.0
H961 H 0.41171 0.73904 0.90134 0.0
H962 H 0.44701 0.73188 0.90167 0.0
C963 C 0.55912 0.73011 0.86678 0.0
C964 C 0.50705 0.71162 0.86624 0.0
H965 H 0.46381 0.73785 0.86313 0.0
C966 C 0.49997 0.69409 0.87501 0.0
C967 C 0.49384 0.72745 0.86162 0.0
C968 C 0.50042 0.74617 0.85116 0.0
C969 C 0.47996 0.69227 0.87984 0.0
C970 C 0.46691 0.70834 0.87566 0.0
C971 C 0.47398 0.72566 0.86658 0.0
C972 C 0.44568 0.70787 0.88022 0.0
C973 C 0.47294 0.67345 0.88969 0.0
C974 C 0.43318 0.6959 0.86895 0.0
C975 C 0.41289 0.69982 0.86893 0.0
C976 C 0.40513 0.71597 0.87992 0.0
C977 C 0.41744 0.72658 0.89268 0.0
C978 C 0.43757 0.7225 0.89289 0.0
H979 H 0.48535 0.66394 0.89517 0.0
H980 H 0.46301 0.6771 0.90243 0.0
H981 H 0.46447 0.66474 0.87871 0.0
H982 H 0.43922 0.68473 0.85886 0.0
H983 H 0.40366 0.69158 0.85885 0.0
H984 H 0.78637 0.91984 0.3307 0.0
H985 H 0.78543 0.95591 0.33593 0.0
H986 H 0.76366 0.94699 0.39597 0.0
H987 H 0.76333 0.91103 0.39024 0.0
H988 H 0.74303 0.97372 0.37998 0.0
H989 H 0.81966 0.99331 0.36376 0.0
H990 H 0.80981 0.9804 0.34278 0.0
H991 H 0.8123 0.96776 0.36652 0.0
C992 C 0.78154 0.92565 0.34504 0.0
C993 C 0.7748 0.91278 0.36002 0.0
C994 C 0.78124 0.94623 0.34813 0.0
C995 C 0.7749 0.95422 0.36652 0.0
C996 C 0.76867 0.94123 0.38168 0.0
H997 H 0.7783 0.08479 0.38025 0.0
H998 H 0.78596 0.04912 0.38486 0.0
C999 C 0.76842 0.92071 0.37838 0.0
C1000 C 0.77284 0.97611 0.36922 0.0
H1001 H 0.79537 0.02019 0.3599 0.0
C1002 C 0.75466 0.98382 0.37595 0.0
C1003 C 0.78808 0.98941 0.36447 0.0
C1004 C 0.80861 0.98224 0.35922 0.0
C1005 C 0.75096 0.00438 0.37702 0.0
C1006 C 0.76548 0.01761 0.37023 0.0
C1007 C 0.78406 0.01001 0.36465 0.0
C1008 C 0.76115 0.03917 0.3676 0.0
C1009 C 0.73143 0.01161 0.38532 0.0
C1010 C 0.74498 0.04534 0.35602 0.0
C1011 C 0.74039 0.06553 0.35374 0.0
C1012 C 0.75225 0.07996 0.36248 0.0
C1013 C 0.7689 0.07389 0.37343 0.0
C1014 C 0.77328 0.05358 0.37606 0.0
H1015 H 0.72561 0.0009 0.39646 0.0
H1016 H 0.73262 0.02641 0.39258 0.0
H1017 H 0.7206 0.01283 0.373 0.0
H1018 H 0.73586 0.03453 0.34869 0.0
H1019 H 0.72767 0.06983 0.34491 0.0
H1020 H 0.42059 0.30856 0.83579 0.0
H1021 H 0.45595 0.31334 0.83869 0.0
H1022 H 0.46105 0.26043 0.87521 0.0
H1023 H 0.42573 0.25532 0.87228 0.0
H1024 H 0.48067 0.31727 0.87328 0.0
H1025 H 0.49898 0.25024 0.8278 0.0
H1026 H 0.47462 0.26138 0.82851 0.0
H1027 H 0.48294 0.24545 0.84856 0.0
C1028 C 0.42919 0.29792 0.84448 0.0
C1029 C 0.42033 0.2814 0.85362 0.0
C1030 C 0.44938 0.30076 0.84618 0.0
C1031 C 0.46105 0.28712 0.85696 0.0
C1032 C 0.45225 0.27095 0.86657 0.0
H1033 H 0.57905 0.26268 0.88613 0.0
H1034 H 0.54394 0.27071 0.8875 0.0
C1035 C 0.43207 0.26805 0.86486 0.0
C1036 C 0.48258 0.28928 0.85754 0.0
H1037 H 0.52537 0.26516 0.845 0.0
C1038 C 0.4905 0.306 0.86696 0.0
C1039 C 0.49526 0.27468 0.84901 0.0
C1040 C 0.48756 0.25702 0.83772 0.0
C1041 C 0.51094 0.30798 0.86883 0.0
C1042 C 0.52349 0.29292 0.86105 0.0
C1043 C 0.51557 0.2766 0.85106 0.0
C1044 C 0.54492 0.2928 0.86395 0.0
C1045 C 0.51909 0.32571 0.87956 0.0
C1046 C 0.55711 0.30328 0.85081 0.0
C1047 C 0.57729 0.29878 0.85007 0.0
C1048 C 0.58523 0.28355 0.86222 0.0
C1049 C 0.57321 0.27436 0.87649 0.0
C1050 C 0.5532 0.27898 0.87736 0.0
H1051 H 0.50732 0.33609 0.88497 0.0
H1052 H 0.52801 0.32054 0.89252 0.0
H1053 H 0.52898 0.33393 0.86936 0.0
H1054 H 0.55084 0.31383 0.84021 0.0
H1055 H 0.58628 0.30599 0.83889 0.0
H1056 H 0.25708 0.91706 0.38157 0.0
H1057 H 0.24904 0.95265 0.38238 0.0
H1058 H 0.19117 0.94113 0.35958 0.0
H1059 H 0.19911 0.9053 0.35871 0.0
H1060 H 0.21322 0.96922 0.33732 0.0
H1061 H 0.21253 0.98724 0.41813 0.0
H1062 H 0.23366 0.97268 0.41047 0.0
H1063 H 0.2096 0.9622 0.40884 0.0
C1064 C 0.24251 0.92203 0.37706 0.0
C1065 C 0.22874 0.90842 0.36999 0.0
C1066 C 0.2379 0.94237 0.37767 0.0
C1067 C 0.21945 0.94946 0.37124 0.0
C1068 C 0.20543 0.93587 0.36475 0.0
H1069 H 0.18872 0.07409 0.34306 0.0
H1070 H 0.18661 0.03806 0.3477 0.0
C1071 C 0.20998 0.91545 0.36428 0.0
C1072 C 0.21582 0.97117 0.36932 0.0
H1073 H 0.21677 0.01467 0.39554 0.0
C1074 C 0.21362 0.97919 0.35005 0.0
C1075 C 0.21646 0.98404 0.38597 0.0
C1076 C 0.21801 0.97612 0.40705 0.0
C1077 C 0.21312 -0.00013 0.34687 0.0
C1078 C 0.21444 0.01278 0.36348 0.0
C1079 C 0.21587 0.00472 0.38283 0.0
C1080 C 0.2154 0.03466 0.36103 0.0
C1081 C 0.21217 0.00769 0.3257 0.0
C1082 C 0.23211 0.04472 0.36743 0.0
C1083 C 0.23334 0.06533 0.36496 0.0
C1084 C 0.21784 0.07628 0.35604 0.0
C1085 C 0.20103 0.06612 0.34979 0.0
C1086 C 0.19979 0.04551 0.35237 0.0
H1087 H 0.21573 0.99587 0.31457 0.0
H1088 H 0.19707 0.01342 0.32261 0.0
H1089 H 0.22248 0.02014 0.32353 0.0
H1090 H 0.24431 0.03658 0.37419 0.0
H1091 H 0.24647 0.07264 0.37002 0.0
H1092 H 0.59331 0.70287 0.12586 0.0
H1093 H 0.56288 0.68442 0.12076 0.0
H1094 H 0.53012 0.74006 0.1176 0.0
H1095 H 0.56016 0.75842 0.12268 0.0
H1096 H 0.53086 0.68601 0.14641 0.0
H1097 H 0.50699 0.70902 0.07123 0.0
H1098 H 0.53226 0.71065 0.07929 0.0
H1099 H 0.51477 0.73045 0.08482 0.0
C1100 C 0.57963 0.71112 0.12375 0.0
C1101 C 0.57907 0.73208 0.12476 0.0
C1102 C 0.56231 0.70057 0.12078 0.0
C1103 C 0.54432 0.71088 0.11837 0.0
C1104 C 0.54391 0.7318 0.11886 0.0
H1105 H 0.44371 0.73086 0.16425 0.0
H1106 H 0.47584 0.71656 0.15628 0.0
C1107 C 0.56108 0.74229 0.12202 0.0
C1108 C 0.52543 0.70031 0.11798 0.0
H1109 H 0.48038 0.70578 0.09644 0.0
C1110 C 0.51995 0.6896 0.1351 0.0
C1111 C 0.5113 0.70432 0.10298 0.0
C1112 C 0.51674 0.71404 0.08344 0.0
C1113 C 0.50014 0.68561 0.13895 0.0
C1114 C 0.48564 0.69282 0.12552 0.0
C1115 C 0.49145 0.70063 0.10699 0.0
C1116 C 0.46544 0.69763 0.13251 0.0
C1117 C 0.49474 0.6754 0.15825 0.0
C1118 C 0.44877 0.69167 0.12187 0.0
C1119 C 0.43017 0.69984 0.12658 0.0
C1120 C 0.42827 0.71442 0.14155 0.0
C1121 C 0.44482 0.71968 0.15261 0.0
C1122 C 0.46317 0.71131 0.14821 0.0
H1123 H 0.50611 0.66402 0.16237 0.0
H1124 H 0.49402 0.68659 0.17044 0.0
H1125 H 0.48026 0.66813 0.15716 0.0
H1126 H 0.45028 0.68139 0.10948 0.0
H1127 H 0.41757 0.6957 0.11776 0.0
H1128 H 0.75365 0.90519 0.61099 0.0
H1129 H 0.75357 0.94134 0.60696 0.0
H1130 H 0.80728 0.94439 0.64066 0.0
H1131 H 0.80756 0.90811 0.64494 0.0
H1132 H 0.75561 0.96547 0.64653 0.0
H1133 H 0.81138 0.98351 0.58831 0.0
H1134 H 0.79822 0.96035 0.5879 0.0
H1135 H 0.81667 0.96418 0.60646 0.0
C1136 C 0.76567 0.91342 0.61728 0.0
C1137 C 0.78048 0.90372 0.62855 0.0
C1138 C 0.76563 0.93408 0.61486 0.0
C1139 C 0.78046 0.9454 0.62344 0.0
C1140 C 0.79584 0.93579 0.63376 0.0
H1141 H 0.78709 0.07406 0.63987 0.0
H1142 H 0.79583 0.03864 0.63561 0.0
C1143 C 0.79589 0.91508 0.63626 0.0
C1144 C 0.77818 0.96728 0.62404 0.0
H1145 H 0.79406 0.01059 0.60317 0.0
C1146 C 0.76401 0.97537 0.63708 0.0
C1147 C 0.78941 0.98 0.61188 0.0
C1148 C 0.8048 0.97172 0.59775 0.0
C1149 C 0.76057 0.99596 0.63817 0.0
C1150 C 0.77123 0.00874 0.62546 0.0
C1151 C 0.78579 0.0007 0.61273 0.0
C1152 C 0.76704 0.03044 0.62518 0.0
C1153 C 0.74564 0.00385 0.65308 0.0
C1154 C 0.74824 0.03758 0.61996 0.0
C1155 C 0.74316 0.05763 0.62259 0.0
C1156 C 0.75691 0.07096 0.6302 0.0
C1157 C 0.77618 0.06408 0.63407 0.0
C1158 C 0.7812 0.0439 0.63162 0.0
H1159 H 0.74288 0.9929 0.66522 0.0
H1160 H 0.75056 0.01796 0.65993 0.0
H1161 H 0.7315 0.00689 0.64533 0.0
H1162 H 0.73724 0.02746 0.61458 0.0
H1163 H 0.72828 0.06258 0.6192 0.0
H1164 H 0.23307 0.08576 0.61499 0.0
H1165 H 0.23136 0.0495 0.61316 0.0
H1166 H 0.18745 0.04978 0.65979 0.0
H1167 H 0.18903 0.08613 0.66182 0.0
H1168 H 0.2209 0.02543 0.66725 0.0
H1169 H 0.18977 0.01038 0.59245 0.0
H1170 H 0.20907 0.02828 0.59204 0.0
H1171 H 0.1865 0.03405 0.60503 0.0
C1172 C 0.22286 0.07817 0.6247 0.0
C1173 C 0.21131 0.08882 0.63868 0.0
C1174 C 0.22174 0.05747 0.62346 0.0
C1175 C 0.20909 0.04706 0.63615 0.0
C1176 C 0.19714 0.05763 0.64974 0.0
H1177 H 0.21244 0.91612 0.64767 0.0
H1178 H 0.19884 0.95022 0.64512 0.0
C1179 C 0.19812 0.07838 0.65089 0.0
C1180 C 0.21033 0.02509 0.63693 0.0
H1181 H 0.20842 0.98348 0.60777 0.0
C1182 C 0.21775 0.01619 0.65441 0.0
C1183 C 0.20615 0.01313 0.62016 0.0
C1184 C 0.19725 0.0219 0.60141 0.0
C1185 C 0.22224 0.99575 0.65514 0.0
C1186 C 0.21922 0.98404 0.63797 0.0
C1187 C 0.21079 0.99265 0.62084 0.0
C1188 C 0.22658 0.9633 0.63718 0.0
C1189 C 0.23109 0.9869 0.6739 0.0
C1190 C 0.24652 0.95958 0.6332 0.0
C1191 C 0.25433 0.94028 0.6347 0.0
C1192 C 0.24227 0.92441 0.64022 0.0
C1193 C 0.22208 0.92809 0.64343 0.0
C1194 C 0.21428 0.94747 0.64193 0.0
H1195 H 0.23018 -0.00261 0.68671 0.0
H1196 H 0.22352 0.97295 0.67801 0.0
H1197 H 0.2468 0.98301 0.67112 0.0
H1198 H 0.25617 0.97174 0.62955 0.0
H1199 H 0.26991 0.9379 0.63205 0.0
H1200 H 0.13981 0.33085 0.30543 0.0
H1201 H 0.15469 0.30363 0.32502 0.0
H1202 H 0.14432 0.26275 0.27672 0.0
H1203 H 0.1294 0.28985 0.25699 0.0
H1204 H 0.13879 0.26391 0.33587 0.0
H1205 H 0.20554 0.26161 0.2876 0.0
H1206 H 0.18868 0.28275 0.28816 0.0
H1207 H 0.18242 0.26065 0.27471 0.0
C1208 C 0.14051 0.31602 0.29906 0.0
C1209 C 0.13359 0.31246 0.27964 0.0
C1210 C 0.14898 0.30053 0.31028 0.0
C1211 C 0.15077 0.28135 0.30216 0.0
C1212 C 0.14321 0.27757 0.28309 0.0
H1213 H 0.18307 0.16697 0.34986 0.0
H1214 H 0.1661 0.19671 0.33691 0.0
C1215 C 0.13464 0.29302 0.2719 0.0
C1216 C 0.1613 0.26544 0.31326 0.0
H1217 H 0.20272 0.23602 0.31188 0.0
C1218 C 0.15281 0.25783 0.33074 0.0
C1219 C 0.17971 0.25789 0.30661 0.0
C1220 C 0.18978 0.26621 0.28834 0.0
C1221 C 0.16203 0.24227 0.34145 0.0
C1222 C 0.18007 0.23418 0.33434 0.0
C1223 C 0.18884 0.24225 0.31721 0.0
C1224 C 0.1897 0.21668 0.34383 0.0
C1225 C 0.15244 0.2346 0.36024 0.0
C1226 C 0.20862 0.21811 0.35189 0.0
C1227 C 0.21838 0.20113 0.35929 0.0
C1228 C 0.20941 0.18246 0.35849 0.0
C1229 C 0.19033 0.18117 0.35069 0.0
C1230 C 0.18056 0.19815 0.34341 0.0
H1231 H 0.14157 0.24554 0.36641 0.0
H1232 H 0.1446 0.22068 0.35676 0.0
H1233 H 0.16361 0.23109 0.37187 0.0
H1234 H 0.21593 0.23231 0.35218 0.0
H1235 H 0.2331 0.20254 0.36517 0.0
H1236 H 0.313 0.6962 0.84778 0.0
H1237 H 0.28804 0.67578 0.83173 0.0
H1238 H 0.26219 0.72862 0.80493 0.0
H1239 H 0.28659 0.74904 0.82108 0.0
H1240 H 0.2349 0.70502 0.82296 0.0
H1241 H 0.28407 0.66037 0.77281 0.0
H1242 H 0.28977 0.65952 0.79902 0.0
H1243 H 0.29219 0.68246 0.78543 0.0
C1244 C 0.30205 0.70342 0.83838 0.0
C1245 C 0.30174 0.72426 0.8358 0.0
C1246 C 0.28786 0.69173 0.82917 0.0
C1247 C 0.27335 0.70069 0.81705 0.0
C1248 C 0.2732 0.72142 0.8143 0.0
H1249 H 0.19979 0.66821 0.72272 0.0
H1250 H 0.22599 0.6767 0.74564 0.0
C1251 C 0.28719 0.73307 0.82357 0.0
C1252 C 0.25789 0.68887 0.80738 0.0
H1253 H 0.25013 0.65505 0.77035 0.0
C1254 C 0.23819 0.69389 0.81162 0.0
C1255 C 0.26229 0.67444 0.79258 0.0
C1256 C 0.2832 0.66891 0.78701 0.0
C1257 C 0.22276 0.68563 0.80078 0.0
C1258 C 0.22716 0.67151 0.78564 0.0
C1259 C 0.24683 0.66579 0.78204 0.0
C1260 C 0.21184 0.66443 0.77182 0.0
C1261 C 0.20203 0.69304 0.80481 0.0
C1262 C 0.19531 0.65432 0.77886 0.0
C1263 C 0.18008 0.64963 0.76577 0.0
C1264 C 0.18131 0.65471 0.74539 0.0
C1265 C 0.19832 0.66404 0.7383 0.0
C1266 C 0.21337 0.66888 0.75139 0.0
H1267 H 0.20167 0.70681 0.81402 0.0
H1268 H 0.19416 0.69619 0.79059 0.0
H1269 H 0.19391 0.6814 0.81304 0.0
H1270 H 0.19402 0.65038 0.79451 0.0
H1271 H 0.16727 0.64226 0.77167 0.0
H1272 H 0.86997 0.69852 0.261 0.0
H1273 H 0.85789 0.72626 0.28159 0.0
H1274 H 0.83159 0.68469 0.32255 0.0
H1275 H 0.84392 0.65685 0.30225 0.0
H1276 H 0.81826 0.7334 0.28832 0.0
H1277 H 0.85814 0.72397 0.36017 0.0
H1278 H 0.86621 0.712 0.33732 0.0
H1279 H 0.84625 0.70194 0.35153 0.0
C1280 C 0.86191 0.69528 0.27458 0.0
C1281 C 0.85778 0.67555 0.27997 0.0
C1282 C 0.85504 0.71112 0.28631 0.0
C1283 C 0.84401 0.70749 0.30365 0.0
C1284 C 0.84041 0.68778 0.30943 0.0
H1285 H 0.76177 0.78592 0.36568 0.0
H1286 H 0.77959 0.75676 0.35218 0.0
C1287 C 0.84733 0.67191 0.29773 0.0
C1288 C 0.83459 0.72432 0.31446 0.0
H1289 H 0.83131 0.74741 0.35984 0.0
C1290 C 0.82119 0.73652 0.30392 0.0
C1291 C 0.83844 0.72826 0.33482 0.0
C1292 C 0.85317 0.71597 0.34662 0.0
C1293 C 0.81139 0.7525 0.31327 0.0
C1294 C 0.81508 0.75629 0.33362 0.0
C1295 C 0.82851 0.74423 0.34422 0.0
C1296 C 0.80535 0.77322 0.34379 0.0
C1297 C 0.79714 0.76533 0.30142 0.0
C1298 C 0.81418 0.79188 0.34365 0.0
C1299 C 0.80406 0.80852 0.3512 0.0
C1300 C 0.78497 0.80667 0.359 0.0
C1301 C 0.77644 0.78777 0.35973 0.0
C1302 C 0.78658 0.77113 0.35211 0.0
H1303 H 0.79609 0.76051 0.28558 0.0
H1304 H 0.78231 0.76475 0.30834 0.0
H1305 H 0.8018 0.78109 0.30176 0.0
H1306 H 0.82865 0.79367 0.33715 0.0
H1307 H 0.81102 0.82289 0.35051 0.0
H1308 H 0.82814 0.34854 0.76142 0.0
H1309 H 0.79886 0.33984 0.78068 0.0
H1310 H 0.7739 0.3131 0.72824 0.0
H1311 H 0.80276 0.32204 0.7088 0.0
H1312 H 0.74657 0.33535 0.75006 0.0
H1313 H 0.78906 0.28273 0.79862 0.0
H1314 H 0.79739 0.30797 0.79856 0.0
H1315 H 0.79928 0.29331 0.77615 0.0
C1316 C 0.81637 0.34092 0.75395 0.0
C1317 C 0.81788 0.33587 0.73359 0.0
C1318 C 0.79968 0.33591 0.765 0.0
C1319 C 0.78436 0.32558 0.75594 0.0
C1320 C 0.78557 0.32108 0.73551 0.0
H1321 H 0.70211 0.24482 0.8037 0.0
H1322 H 0.72755 0.26299 0.78608 0.0
C1323 C 0.80214 0.32617 0.72444 0.0
C1324 C 0.76744 0.31849 0.76776 0.0
H1325 H 0.75513 0.28583 0.80469 0.0
C1326 C 0.74839 0.32464 0.76212 0.0
C1327 C 0.76993 0.30439 0.78335 0.0
C1328 C 0.78998 0.29654 0.78948 0.0
C1329 C 0.73171 0.3167 0.77138 0.0
C1330 C 0.73424 0.30248 0.78684 0.0
C1331 C 0.75328 0.29677 0.79283 0.0
C1332 C 0.71749 0.29211 0.7961 0.0
C1333 C 0.71158 0.32293 0.76399 0.0
C1334 C 0.70311 0.30252 0.80725 0.0
C1335 C 0.68836 0.29214 0.81726 0.0
C1336 C 0.688 0.2712 0.81648 0.0
C1337 C 0.70209 0.26094 0.80478 0.0
C1338 C 0.71665 0.27129 0.79469 0.0
H1339 H 0.71228 0.33077 0.74936 0.0
H1340 H 0.70204 0.30978 0.76243 0.0
H1341 H 0.70459 0.33321 0.77499 0.0
H1342 H 0.70367 0.31857 0.80876 0.0
H1343 H 0.67777 0.30043 0.82626 0.0
H1344 H 0.22085 0.83726 0.67329 0.0
H1345 H 0.19655 0.81281 0.68331 0.0
H1346 H 0.24114 0.76626 0.68152 0.0
H1347 H 0.26564 0.79055 0.6718 0.0
H1348 H 0.18564 0.77988 0.6613 0.0
H1349 H 0.21466 0.75699 0.73548 0.0
H1350 H 0.22252 0.77925 0.72277 0.0
H1351 H 0.23258 0.75526 0.71577 0.0
C1352 C 0.22559 0.82187 0.67526 0.0
C1353 C 0.24523 0.81588 0.67171 0.0
C1354 C 0.21165 0.80793 0.68096 0.0
C1355 C 0.2171 0.78779 0.68331 0.0
C1356 C 0.23672 0.7818 0.68014 0.0
H1357 H 0.14672 0.68214 0.68028 0.0
H1358 H 0.16755 0.71038 0.67196 0.0
C1359 C 0.25069 0.79572 0.67449 0.0
C1360 C 0.20206 0.77285 0.68798 0.0
H1361 H 0.19011 0.73648 0.72135 0.0
C1362 C 0.18651 0.77048 0.67451 0.0
C1363 C 0.20318 0.76076 0.7053 0.0
C1364 C 0.21903 0.76328 0.72077 0.0
C1365 C 0.17226 0.75597 0.67766 0.0
C1366 C 0.17381 0.74341 0.69458 0.0
C1367 C 0.18909 0.74607 0.70829 0.0
C1368 C 0.15978 0.72731 0.69844 0.0
C1369 C 0.1556 0.75428 0.66298 0.0
C1370 C 0.14848 0.72759 0.71599 0.0
C1371 C 0.13666 0.71151 0.72079 0.0
C1372 C 0.13606 0.6948 0.70818 0.0
C1373 C 0.14685 0.69484 0.69024 0.0
C1374 C 0.1587 0.71097 0.68544 0.0
H1375 H 0.15386 0.76793 0.65366 0.0
H1376 H 0.15864 0.74149 0.65286 0.0
H1377 H 0.14152 0.75154 0.67088 0.0
H1378 H 0.14917 0.74006 0.72621 0.0
H1379 H 0.1285 0.71193 0.73472 0.0
H1380 H 0.70021 0.77406 0.16542 0.0
H1381 H 0.72737 0.75313 0.17749 0.0
H1382 H 0.70378 0.70254 0.1467 0.0
H1383 H 0.67618 0.7233 0.13493 0.0
H1384 H 0.71236 0.69362 0.1845 0.0
H1385 H 0.77604 0.731 0.15059 0.0
H1386 H 0.76077 0.74822 0.16437 0.0
H1387 H 0.75112 0.73608 0.14262 0.0
C1388 C 0.70096 0.75857 0.16088 0.0
C1389 C 0.68606 0.75037 0.14912 0.0
C1390 C 0.71659 0.74664 0.16772 0.0
C1391 C 0.71783 0.72636 0.16268 0.0
C1392 C 0.70318 0.7182 0.15064 0.0
H1393 H 0.82016 0.65408 0.2008 0.0
H1394 H 0.79522 0.6707 0.17994 0.0
C1395 C 0.68742 0.73008 0.14394 0.0
C1396 C 0.73347 0.71337 0.17142 0.0
H1397 H 0.783 0.70976 0.17896 0.0
C1398 C 0.72783 0.69698 0.18303 0.0
C1399 C 0.75367 0.71755 0.16926 0.0
C1400 C 0.76077 0.73404 0.15585 0.0
C1401 C 0.74176 0.68522 0.19331 0.0
C1402 C 0.76182 0.6903 0.19233 0.0
C1403 C 0.76758 0.70607 0.17994 0.0
C1404 C 0.77687 0.68005 0.20482 0.0
C1405 C 0.73482 0.66753 0.20519 0.0
C1406 C 0.77497 0.68011 0.22571 0.0
C1407 C 0.78908 0.67058 0.23763 0.0
C1408 C 0.80556 0.66098 0.22894 0.0
C1409 C 0.80763 0.66127 0.20799 0.0
C1410 C 0.7934 0.67075 0.19604 0.0
H1411 H 0.72073 0.66191 0.19929 0.0
H1412 H 0.74589 0.65515 0.20502 0.0
H1413 H 0.73228 0.67211 0.22094 0.0
H1414 H 0.76261 0.68768 0.23283 0.0
H1415 H 0.7871 0.6709 0.25371 0.0
H1416 H 0.79033 0.15474 0.66286 0.0
H1417 H 0.81706 0.17641 0.67296 0.0
H1418 H 0.77513 0.22422 0.68399 0.0
H1419 H 0.74839 0.20274 0.67431 0.0
H1420 H 0.82796 0.21195 0.65578 0.0
H1421 H 0.80734 0.22358 0.73498 0.0
H1422 H 0.79709 0.20401 0.72001 0.0
H1423 H 0.78717 0.22907 0.71854 0.0
C1424 C 0.78676 0.1698 0.66764 0.0
C1425 C 0.76717 0.17697 0.6678 0.0
C1426 C 0.80207 0.18215 0.67338 0.0
C1427 C 0.79803 0.2018 0.67949 0.0
C1428 C 0.77853 0.20895 0.67976 0.0
H1429 H 0.86078 0.30968 0.67724 0.0
H1430 H 0.84429 0.27882 0.66871 0.0
C1431 C 0.76325 0.19665 0.67408 0.0
C1432 C 0.81415 0.21533 0.68466 0.0
H1433 H 0.82849 0.24804 0.7204 0.0
C1434 C 0.82831 0.21963 0.67003 0.0
C1435 C 0.81482 0.22503 0.70337 0.0
C1436 C 0.80091 0.22003 0.72019 0.0
C1437 C 0.84245 0.23424 0.67323 0.0
C1438 C 0.84209 0.24504 0.69136 0.0
C1439 C 0.82863 0.23992 0.70639 0.0
C1440 C 0.85461 0.26252 0.69478 0.0
C1441 C 0.85747 0.23806 0.65711 0.0
C1442 C 0.86597 0.26362 0.71218 0.0
C1443 C 0.87509 0.28134 0.71725 0.0
C1444 C 0.87303 0.29829 0.70498 0.0
C1445 C 0.86264 0.29685 0.68696 0.0
C1446 C 0.85333 0.27915 0.682 0.0
H1447 H 0.86014 0.22457 0.64781 0.0
H1448 H 0.85189 0.25011 0.64712 0.0
H1449 H 0.87166 0.24274 0.66356 0.0
H1450 H 0.86713 0.25098 0.72227 0.0
H1451 H 0.88312 0.28197 0.73119 0.0
H1452 H 0.16755 0.33189 0.205 0.0
H1453 H 0.19312 0.31467 0.18536 0.0
H1454 H 0.23222 0.31607 0.2359 0.0
H1455 H 0.20681 0.33292 0.25573 0.0
H1456 H 0.23149 0.32491 0.17503 0.0
H1457 H 0.23093 0.25685 0.22223 0.0
H1458 H 0.21196 0.27598 0.22375 0.0
H1459 H 0.23507 0.27917 0.23622 0.0
C1460 C 0.18162 0.32863 0.21193 0.0
C1461 C 0.18503 0.33365 0.23203 0.0
C1462 C 0.19621 0.31879 0.20066 0.0
C1463 C 0.21441 0.31377 0.2093 0.0
C1464 C 0.21811 0.31941 0.22909 0.0
H1465 H 0.32458 0.27623 0.1551 0.0
H1466 H 0.2966 0.29542 0.16843 0.0
C1467 C 0.20356 0.32915 0.24037 0.0
C1468 C 0.22948 0.30231 0.19783 0.0
H1469 H 0.25737 0.2595 0.19906 0.0
C1470 C 0.23708 0.31054 0.18017 0.0
C1471 C 0.2365 0.28342 0.2044 0.0
C1472 C 0.22807 0.27322 0.22257 0.0
C1473 C 0.25195 0.30061 0.1692 0.0
C1474 C 0.25961 0.28215 0.17631 0.0
C1475 C 0.25161 0.27372 0.19369 0.0
C1476 C 0.27606 0.27129 0.16622 0.0
C1477 C 0.25914 0.30988 0.15001 0.0
C1478 C 0.27389 0.2513 0.16063 0.0
C1479 C 0.28991 0.24022 0.15327 0.0
C1480 C 0.30847 0.24889 0.1513 0.0
C1481 C 0.31046 0.26913 0.15624 0.0
C1482 C 0.29443 0.28017 0.16378 0.0
H1483 H 0.248 0.3204 0.14362 0.0
H1484 H 0.27259 0.31841 0.15312 0.0
H1485 H 0.26281 0.29832 0.13868 0.0
H1486 H 0.25987 0.24412 0.16242 0.0
H1487 H 0.28782 0.22469 0.14955 0.0
H1488 H 0.36555 0.23724 0.20545 0.0
H1489 H 0.34856 0.22377 0.23463 0.0
H1490 H 0.3342 0.17127 0.201 0.0
H1491 H 0.35154 0.18441 0.17193 0.0
H1492 H 0.3099 0.21624 0.23616 0.0
H1493 H 0.35217 0.14702 0.25347 0.0
H1494 H 0.36158 0.16623 0.2373 0.0
H1495 H 0.34472 0.14825 0.22778 0.0
C1496 C 0.3591 0.22265 0.20439 0.0
C1497 C 0.35983 0.2119 0.18639 0.0
C1498 C 0.34939 0.21499 0.22107 0.0
C1499 C 0.34028 0.19642 0.22007 0.0
C1500 C 0.34149 0.18541 0.20227 0.0
H1501 H 0.23853 0.15797 0.28433 0.0
H1502 H 0.26264 0.17014 0.26042 0.0
C1503 C 0.35129 0.19302 0.18561 0.0
C1504 C 0.32795 0.18948 0.23691 0.0
H1505 H 0.31969 0.1497 0.26756 0.0
C1506 C 0.31219 0.20178 0.24319 0.0
C1507 C 0.33107 0.17073 0.24624 0.0
C1508 C 0.34843 0.15738 0.241 0.0
C1509 C 0.29906 0.19557 0.25804 0.0
C1510 C 0.30151 0.17634 0.26652 0.0
C1511 C 0.31769 0.16432 0.26082 0.0
C1512 C 0.28712 0.16829 0.28095 0.0
C1513 C 0.28271 0.20968 0.2645 0.0
C1514 C 0.29303 0.16253 0.30023 0.0
C1515 C 0.27929 0.15536 0.31394 0.0
C1516 C 0.25939 0.15376 0.30858 0.0
C1517 C 0.25367 0.15913 0.28907 0.0
C1518 C 0.26741 0.16622 0.27538 0.0
H1519 H 0.2863 0.22544 0.26117 0.0
H1520 H 0.26912 0.20613 0.25621 0.0
H1521 H 0.27964 0.20825 0.28075 0.0
H1522 H 0.30821 0.16389 0.30476 0.0
H1523 H 0.28423 0.15135 0.32882 0.0
H1524 H 0.34517 0.79848 0.83723 0.0
H1525 H 0.33875 0.81922 0.8077 0.0
H1526 H 0.3617 0.77233 0.76973 0.0
H1527 H 0.36817 0.75144 0.79916 0.0
H1528 H 0.36545 0.83097 0.77334 0.0
H1529 H 0.30212 0.78331 0.75386 0.0
H1530 H 0.31272 0.78345 0.77856 0.0
H1531 H 0.32532 0.77083 0.75851 0.0
C1532 C 0.34902 0.79266 0.82261 0.0
C1533 C 0.35695 0.77329 0.82043 0.0
C1534 C 0.34546 0.80455 0.80581 0.0
C1535 C 0.34969 0.79719 0.78666 0.0
C1536 C 0.3583 0.77816 0.78447 0.0
H1537 H 0.32121 0.84854 0.67047 0.0
H1538 H 0.33946 0.83185 0.69747 0.0
C1539 C 0.36193 0.76628 0.80125 0.0
C1540 C 0.34346 0.80874 0.76898 0.0
H1541 H 0.30843 0.81048 0.73268 0.0
C1542 C 0.3531 0.82647 0.76431 0.0
C1543 C 0.32727 0.80276 0.75744 0.0
C1544 C 0.3161 0.78413 0.76232 0.0
C1545 C 0.34676 0.83852 0.7483 0.0
C1546 C 0.33044 0.83263 0.73699 0.0
C1547 C 0.32103 0.81478 0.74146 0.0
C1548 C 0.32199 0.84524 0.72111 0.0
C1549 C 0.35718 0.85761 0.74367 0.0
C1550 C 0.30646 0.85847 0.72569 0.0
C1551 C 0.29594 0.8679 0.71038 0.0
C1552 C 0.3008 0.86411 0.6903 0.0
C1553 C 0.31709 0.85166 0.68582 0.0
C1554 C 0.32756 0.84218 0.70117 0.0
H1555 H 0.37017 0.85972 0.7534 0.0
H1556 H 0.36202 0.85761 0.7278 0.0
H1557 H 0.34683 0.87047 0.74569 0.0
H1558 H 0.30193 0.8608 0.74107 0.0
H1559 H 0.28351 0.87747 0.71427 0.0
H1560 H 0.75818 0.83882 0.28368 0.0
H1561 H 0.73507 0.82929 0.25777 0.0
H1562 H 0.68864 0.82674 0.30169 0.0
H1563 H 0.71156 0.83674 0.32772 0.0
H1564 H 0.71481 0.79542 0.25481 0.0
H1565 H 0.66291 0.86016 0.25821 0.0
H1566 H 0.68664 0.86015 0.27019 0.0
H1567 H 0.66632 0.84782 0.28182 0.0
C1568 C 0.74302 0.8364 0.28786 0.0
C1569 C 0.73673 0.83864 0.30781 0.0
C1570 C 0.72982 0.83094 0.273 0.0
C1571 C 0.71006 0.82758 0.27772 0.0
C1572 C 0.7037 0.82973 0.29761 0.0
H1573 H 0.63259 0.7595 0.20204 0.0
H1574 H 0.65157 0.77232 0.23002 0.0
C1575 C 0.71688 0.83534 0.31249 0.0
C1576 C 0.69642 0.82095 0.26193 0.0
H1577 H 0.65322 0.83266 0.23837 0.0
C1578 C 0.70136 0.80358 0.25121 0.0
C1579 C 0.679 0.83176 0.25706 0.0
C1580 C 0.67346 0.85112 0.26728 0.0
C1581 C 0.6893 0.79663 0.23587 0.0
C1582 C 0.67157 0.80707 0.23147 0.0
C1583 C 0.6667 0.82456 0.242 0.0
C1584 C 0.65824 0.80028 0.21553 0.0
C1585 C 0.69588 0.77842 0.2242 0.0
C1586 C 0.65493 0.81216 0.19854 0.0
C1587 C 0.64395 0.80495 0.18258 0.0
C1588 C 0.6361 0.78573 0.1834 0.0
C1589 C 0.63857 0.77431 0.2009 0.0
C1590 C 0.6495 0.78155 0.21685 0.0
H1591 H 0.71185 0.77517 0.22606 0.0
H1592 H 0.68775 0.76529 0.22964 0.0
H1593 H 0.69275 0.78033 0.20801 0.0
H1594 H 0.66146 0.82672 0.19731 0.0
H1595 H 0.64221 0.81414 0.16934 0.0
H1596 H 0.72688 0.11508 0.71114 0.0
H1597 H 0.70819 0.12702 0.74028 0.0
H1598 H 0.66864 0.15971 0.70134 0.0
H1599 H 0.68688 0.14757 0.67229 0.0
H1600 H 0.70444 0.16618 0.74996 0.0
H1601 H 0.63051 0.13477 0.74015 0.0
H1602 H 0.65186 0.12534 0.7268 0.0
H1603 H 0.63889 0.14736 0.71812 0.0
C1604 C 0.71399 0.12452 0.70882 0.0
C1605 C 0.70837 0.13047 0.68949 0.0
C1606 C 0.70333 0.13128 0.72543 0.0
C1607 C 0.68686 0.14397 0.72292 0.0
C1608 C 0.68097 0.1495 0.70359 0.0
H1609 H 0.62444 0.23281 0.78896 0.0
H1610 H 0.63613 0.20826 0.76437 0.0
C1611 C 0.69156 0.14272 0.68701 0.0
C1612 C 0.67724 0.15341 0.74041 0.0
H1613 H 0.63249 0.16342 0.76177 0.0
C1614 C 0.68878 0.16526 0.7528 0.0
C1615 C 0.65678 0.15228 0.74393 0.0
C1616 C 0.64383 0.13908 0.73165 0.0
C1617 C 0.68027 0.17672 0.76811 0.0
C1618 C 0.65975 0.17606 0.77123 0.0
C1619 C 0.64824 0.16383 0.75925 0.0
C1620 C 0.65008 0.18891 0.78627 0.0
C1621 C 0.69315 0.19014 0.7803 0.0
C1622 C 0.65358 0.18569 0.80666 0.0
C1623 C 0.64702 0.19967 0.82068 0.0
C1624 C 0.63686 0.21703 0.81446 0.0
C1625 C 0.63234 0.21961 0.79413 0.0
C1626 C 0.63893 0.2056 0.78011 0.0
H1627 H 0.70814 0.19134 0.77382 0.0
H1628 H 0.68645 0.20534 0.7814 0.0
H1629 H 0.69455 0.18406 0.79568 0.0
H1630 H 0.66205 0.17276 0.81161 0.0
H1631 H 0.65054 0.19722 0.83629 0.0
H1632 H 0.74853 0.78299 0.65013 0.0
H1633 H 0.76086 0.75573 0.67128 0.0
H1634 H 0.81867 0.78099 0.67026 0.0
H1635 H 0.80629 0.80863 0.6496 0.0
H1636 H 0.78905 0.72742 0.66589 0.0
H1637 H 0.80863 0.77581 0.72957 0.0
H1638 H 0.79418 0.78476 0.70872 0.0
H1639 H 0.82052 0.78269 0.70665 0.0
C1640 C 0.7639 0.78268 0.65434 0.0
C1641 C 0.77644 0.798 0.64835 0.0
C1642 C 0.77091 0.76711 0.66643 0.0
C1643 C 0.79058 0.76655 0.67268 0.0
C1644 C 0.80331 0.78142 0.66606 0.0
H1645 H 0.85002 0.6629 0.72479 0.0
H1646 H 0.83833 0.68968 0.70273 0.0
C1647 C 0.79626 0.79711 0.65413 0.0
C1648 C 0.79769 0.75046 0.68623 0.0
H1649 H 0.81946 0.74194 0.73144 0.0
C1650 C 0.79566 0.73057 0.68025 0.0
C1651 C 0.80596 0.75461 0.70512 0.0
C1652 C 0.80728 0.77561 0.71302 0.0
C1653 C 0.80191 0.7147 0.69254 0.0
C1654 C 0.81096 0.71887 0.71105 0.0
C1655 C 0.81274 0.73876 0.71714 0.0
C1656 C 0.81839 0.70283 0.72452 0.0
C1657 C 0.79831 0.69364 0.68574 0.0
C1658 C 0.81164 0.70177 0.74434 0.0
C1659 C 0.8186 0.68672 0.75712 0.0
C1660 C 0.83238 0.67238 0.75026 0.0
C1661 C 0.83928 0.67361 0.73046 0.0
C1662 C 0.8325 0.68882 0.71778 0.0
H1663 H 0.78627 0.69312 0.67459 0.0
H1664 H 0.81184 0.68751 0.67855 0.0
H1665 H 0.79449 0.68387 0.69855 0.0
H1666 H 0.80081 0.71247 0.74988 0.0
H1667 H 0.8129 0.68612 0.77224 0.0
H1668 H 0.70353 0.24262 0.148 0.0
H1669 H 0.73084 0.25815 0.1648 0.0
H1670 H 0.69187 0.3045 0.18706 0.0
H1671 H 0.66406 0.28898 0.17 0.0
H1672 H 0.73032 0.3175 0.17211 0.0
H1673 H 0.73599 0.25511 0.22657 0.0
H1674 H 0.73591 0.24726 0.20092 0.0
H1675 H 0.71449 0.25953 0.21131 0.0
C1676 C 0.70064 0.25617 0.15638 0.0
C1677 C 0.6815 0.26441 0.15789 0.0
C1678 C 0.71633 0.26501 0.16598 0.0
C1679 C 0.71329 0.28221 0.17747 0.0
C1680 C 0.69443 0.29111 0.17834 0.0
H1681 H 0.79637 0.32028 0.26637 0.0
H1682 H 0.76752 0.30989 0.24813 0.0
C1683 C 0.6786 0.28226 0.16859 0.0
C1684 C 0.72984 0.2902 0.18905 0.0
H1685 H 0.76285 0.27725 0.22534 0.0
C1686 C 0.73737 0.30884 0.18388 0.0
C1687 C 0.73886 0.27888 0.20449 0.0
C1688 C 0.73082 0.25916 0.21132 0.0
C1689 C 0.75407 0.31625 0.19345 0.0
C1690 C 0.76359 0.30452 0.20831 0.0
C1691 C 0.75571 0.28611 0.21377 0.0
C1692 C 0.78131 0.31129 0.21899 0.0
C1693 C 0.76123 0.33664 0.18776 0.0
C1694 C 0.79883 0.31527 0.20869 0.0
C1695 C 0.81551 0.32133 0.21912 0.0
C1696 C 0.81495 0.32335 0.24005 0.0
C1697 C 0.79742 0.31897 0.25026 0.0
C1698 C 0.78083 0.31302 0.23986 0.0
H1699 H 0.74962 0.34566 0.18009 0.0
H1700 H 0.76618 0.34491 0.20113 0.0
H1701 H 0.77389 0.33498 0.17736 0.0
H1702 H 0.79967 0.31356 0.19261 0.0
H1703 H 0.82876 0.32448 0.21078 0.0
H1704 H 0.15932 0.29312 0.76659 0.0
H1705 H 0.17199 0.2691 0.74208 0.0
H1706 H 0.16416 0.31274 0.69515 0.0
H1707 H 0.15104 0.33667 0.71938 0.0
H1708 H 0.15193 0.27663 0.6837 0.0
H1709 H 0.22615 0.2696 0.71694 0.0
H1710 H 0.2071 0.26402 0.73456 0.0
H1711 H 0.20868 0.28881 0.72436 0.0
C1712 C 0.16019 0.29759 0.75105 0.0
C1713 C 0.15421 0.31686 0.745 0.0
C1714 C 0.16761 0.2839 0.73708 0.0
C1715 C 0.16944 0.2893 0.71687 0.0
C1716 C 0.16301 0.30832 0.7107 0.0
H1717 H 0.23873 0.21342 0.6355 0.0
H1718 H 0.2259 0.24296 0.65314 0.0
C1719 C 0.15547 0.32197 0.7246 0.0
C1720 C 0.17783 0.27505 0.70212 0.0
H1721 H 0.21782 0.24498 0.69274 0.0
C1722 C 0.16641 0.26984 0.68557 0.0
C1723 C 0.19693 0.26658 0.70429 0.0
C1724 C 0.21051 0.27269 0.72088 0.0
C1725 C 0.17322 0.25573 0.6716 0.0
C1726 C 0.19175 0.24626 0.67456 0.0
C1727 C 0.20352 0.25211 0.69061 0.0
C1728 C 0.19865 0.22932 0.66206 0.0
C1729 C 0.1605 0.25109 0.65384 0.0
C1730 C 0.18754 0.21197 0.66113 0.0
C1731 C 0.19477 0.1952 0.65104 0.0
C1732 C 0.21337 0.19537 0.64187 0.0
C1733 C 0.22432 0.21289 0.64238 0.0
C1734 C 0.21704 0.22974 0.65247 0.0
H1735 H 0.15054 0.26388 0.65009 0.0
H1736 H 0.16953 0.2473 0.64047 0.0
H1737 H 0.15121 0.23816 0.6575 0.0
H1738 H 0.17354 0.21114 0.66882 0.0
H1739 H 0.186 0.1819 0.65095 0.0
H1740 H 0.19589 0.64215 0.21544 0.0
H1741 H 0.22538 0.65984 0.20572 0.0
H1742 H 0.19372 0.68835 0.1574 0.0
H1743 H 0.16392 0.67045 0.16698 0.0
H1744 H 0.23281 0.67332 0.14741 0.0
H1745 H 0.23157 0.72026 0.21564 0.0
H1746 H 0.23025 0.69398 0.22056 0.0
H1747 H 0.21053 0.70651 0.20748 0.0
C1748 C 0.19516 0.65211 0.20268 0.0
C1749 C 0.17755 0.65504 0.19204 0.0
C1750 C 0.21202 0.66225 0.1972 0.0
C1751 C 0.2116 0.67561 0.18108 0.0
C1752 C 0.19425 0.67815 0.16998 0.0
H1753 H 0.30045 0.76425 0.16166 0.0
H1754 H 0.26985 0.74657 0.16625 0.0
C1755 C 0.17728 0.66794 0.17545 0.0
C1756 C 0.22927 0.68715 0.17624 0.0
H1757 H 0.26079 0.72065 0.19606 0.0
C1758 C 0.23889 0.68379 0.15793 0.0
C1759 C 0.23699 0.70093 0.18996 0.0
C1760 C 0.22673 0.70582 0.20944 0.0
C1761 C 0.2564 0.69353 0.1532 0.0
C1762 C 0.26455 0.70669 0.16729 0.0
C1763 C 0.25463 0.71038 0.18537 0.0
C1764 C 0.28317 0.71715 0.16354 0.0
C1765 C 0.26589 0.6898 0.1331 0.0
C1766 C 0.30088 0.70644 0.16062 0.0
C1767 C 0.31851 0.71652 0.15791 0.0
C1768 C 0.31872 0.73749 0.15828 0.0
C1769 C 0.3009 0.7481 0.16129 0.0
C1770 C 0.28335 0.73803 0.1639 0.0
H1771 H 0.25532 0.68367 0.12221 0.0
H1772 H 0.27199 0.70374 0.12684 0.0
H1773 H 0.27815 0.67879 0.13487 0.0
H1774 H 0.30113 0.69029 0.16074 0.0
H1775 H 0.33195 0.70787 0.15575 0.0
H1776 H 0.86044 0.31958 0.30858 0.0
H1777 H 0.84563 0.29206 0.32677 0.0
H1778 H 0.86702 0.25079 0.28197 0.0
H1779 H 0.88155 0.27832 0.26345 0.0
H1780 H 0.82732 0.25101 0.28619 0.0
H1781 H 0.86209 0.244 0.3607 0.0
H1782 H 0.85502 0.26921 0.35461 0.0
H1783 H 0.87366 0.25659 0.33997 0.0
C1784 C 0.8624 0.30458 0.30285 0.0
C1785 C 0.87184 0.30111 0.28443 0.0
C1786 C 0.85411 0.28883 0.31339 0.0
C1787 C 0.85535 0.26938 0.30578 0.0
C1788 C 0.866 0.26571 0.28812 0.0
H1789 H 0.78975 0.16734 0.35015 0.0
H1790 H 0.81698 0.18883 0.34085 0.0
C1791 C 0.87423 0.28145 0.27754 0.0
C1792 C 0.84268 0.25378 0.31415 0.0
H1793 H 0.82977 0.23013 0.3574 0.0
C1794 C 0.82811 0.24618 0.30167 0.0
C1795 C 0.84371 0.24755 0.33435 0.0
C1796 C 0.85959 0.25462 0.34814 0.0
C1797 C 0.81405 0.23312 0.30902 0.0
C1798 C 0.81445 0.2277 0.32942 0.0
C1799 C 0.82946 0.23457 0.3418 0.0
C1800 C 0.79879 0.21546 0.33801 0.0
C1801 C 0.79855 0.22553 0.295 0.0
C1802 C 0.77976 0.22357 0.33996 0.0
C1803 C 0.76417 0.2114 0.34515 0.0
C1804 C 0.76738 0.19088 0.34848 0.0
C1805 C 0.78672 0.18304 0.34755 0.0
C1806 C 0.80233 0.19528 0.34234 0.0
H1807 H 0.80263 0.22778 0.27907 0.0
H1808 H 0.79605 0.20942 0.29759 0.0
H1809 H 0.78448 0.23371 0.29786 0.0
H1810 H 0.77686 0.23919 0.33672 0.0
H1811 H 0.74953 0.218 0.34592 0.0
H1812 H 0.17492 0.36764 0.81938 0.0
H1813 H 0.2035 0.35042 0.834 0.0
H1814 H 0.22647 0.33882 0.77482 0.0
H1815 H 0.19847 0.35697 0.76025 0.0
H1816 H 0.21492 0.31325 0.83123 0.0
H1817 H 0.27413 0.35997 0.80062 0.0
H1818 H 0.24855 0.36724 0.79891 0.0
H1819 H 0.25921 0.34985 0.78126 0.0
C1820 C 0.1863 0.36172 0.80956 0.0
C1821 C 0.18474 0.36387 0.78876 0.0
C1822 C 0.20254 0.35181 0.81789 0.0
C1823 C 0.2173 0.34361 0.80553 0.0
C1824 C 0.21561 0.34558 0.78469 0.0
H1825 H 0.3019 0.25249 0.84609 0.0
H1826 H 0.27263 0.26976 0.83279 0.0
C1827 C 0.1996 0.3559 0.77637 0.0
C1828 C 0.23406 0.33239 0.81448 0.0
H1829 H 0.28408 0.32902 0.81521 0.0
C1830 C 0.23007 0.3168 0.82787 0.0
C1831 C 0.25379 0.33715 0.81022 0.0
C1832 C 0.25919 0.3546 0.79714 0.0
C1833 C 0.24527 0.30585 0.83716 0.0
C1834 C 0.26499 0.31013 0.83232 0.0
C1835 C 0.26895 0.32566 0.81886 0.0
C1836 C 0.2819 0.29926 0.84141 0.0
C1837 C 0.23997 0.29024 0.85245 0.0
C1838 C 0.29699 0.31007 0.8503 0.0
C1839 C 0.31388 0.30031 0.85727 0.0
C1840 C 0.3158 0.27952 0.85587 0.0
C1841 C 0.30051 0.26854 0.8476 0.0
C1842 C 0.28378 0.27838 0.84011 0.0
H1843 H 0.22511 0.29316 0.85889 0.0
H1844 H 0.2398 0.27542 0.84513 0.0
H1845 H 0.25077 0.28961 0.86485 0.0
H1846 H 0.29588 0.32616 0.8515 0.0
H1847 H 0.32553 0.30905 0.86361 0.0
H1848 H 0.20058 0.82567 0.32791 0.0
H1849 H 0.17696 0.80527 0.3099 0.0
H1850 H 0.20904 0.75199 0.32731 0.0
H1851 H 0.23281 0.77213 0.34513 0.0
H1852 H 0.19272 0.77567 0.27805 0.0
H1853 H 0.14735 0.74244 0.33842 0.0
H1854 H 0.15918 0.76619 0.34113 0.0
H1855 H 0.17347 0.74347 0.34248 0.0
C1856 C 0.20244 0.80959 0.32816 0.0
C1857 C 0.21863 0.80052 0.33784 0.0
C1858 C 0.18893 0.798 0.3179 0.0
C1859 C 0.19122 0.77719 0.31752 0.0
C1860 C 0.20694 0.76804 0.3277 0.0
H1861 H 0.14853 0.67402 0.25936 0.0
H1862 H 0.15995 0.69882 0.28317 0.0
C1863 C 0.22057 0.77959 0.33774 0.0
C1864 C 0.1786 0.76504 0.30469 0.0
H1865 H 0.14435 0.7286 0.30595 0.0
C1866 C 0.18189 0.76558 0.28403 0.0
C1867 C 0.16479 0.75178 0.31274 0.0
C1868 C 0.1608 0.7509 0.33491 0.0
C1869 C 0.17229 0.75256 0.27115 0.0
C1870 C 0.15847 0.73913 0.27915 0.0
C1871 C 0.15482 0.73899 0.29984 0.0
C1872 C 0.1488 0.72423 0.26637 0.0
C1873 C 0.17791 0.75259 0.24927 0.0
C1874 C 0.13796 0.73025 0.24952 0.0
C1875 C 0.13175 0.71614 0.23571 0.0
C1876 C 0.13581 0.69574 0.23883 0.0
C1877 C 0.14519 0.68964 0.25656 0.0
C1878 C 0.15173 0.70379 0.27018 0.0
H1879 H 0.19216 0.75998 0.24664 0.0
H1880 H 0.17904 0.73717 0.24332 0.0
H1881 H 0.1665 0.7609 0.24064 0.0
H1882 H 0.13501 0.74591 0.24661 0.0
H1883 H 0.12428 0.72124 0.22231 0.0
H1884 H 0.78712 0.61826 0.76325 0.0
H1885 H 0.75842 0.63569 0.77751 0.0
H1886 H 0.78919 0.64256 0.83325 0.0
H1887 H 0.81794 0.62508 0.81917 0.0
H1888 H 0.74828 0.63072 0.8364 0.0
H1889 H 0.75979 0.69723 0.78825 0.0
H1890 H 0.75894 0.6738 0.77531 0.0
H1891 H 0.77867 0.67836 0.79234 0.0
C1892 C 0.78767 0.6232 0.77864 0.0
C1893 C 0.80479 0.62046 0.79008 0.0
C1894 C 0.77134 0.63325 0.78669 0.0
C1895 C 0.77191 0.64064 0.80627 0.0
C1896 C 0.78859 0.63704 0.81806 0.0
H1897 H 0.69351 0.73111 0.85762 0.0
H1898 H 0.72251 0.71165 0.84677 0.0
C1899 C 0.80496 0.62707 0.81 0.0
C1900 C 0.75538 0.65277 0.81422 0.0
H1901 H 0.73065 0.69704 0.80779 0.0
C1902 C 0.7444 0.64524 0.83022 0.0
C1903 C 0.7507 0.67182 0.80628 0.0
C1904 C 0.76271 0.68093 0.78971 0.0
C1905 C 0.72843 0.65612 0.83819 0.0
C1906 C 0.72329 0.67485 0.82975 0.0
C1907 C 0.73459 0.6826 0.81409 0.0
C1908 C 0.7059 0.68644 0.83664 0.0
C1909 C 0.71728 0.64757 0.85566 0.0
C1910 C 0.68706 0.67874 0.83427 0.0
C1911 C 0.67056 0.68977 0.84041 0.0
C1912 C 0.67263 0.70873 0.84893 0.0
C1913 C 0.69151 0.7165 0.85116 0.0
C1914 C 0.70804 0.70544 0.84498 0.0
H1915 H 0.72603 0.63586 0.86358 0.0
H1916 H 0.71304 0.65943 0.8665 0.0
H1917 H 0.70364 0.64071 0.85012 0.0
H1918 H 0.68512 0.66426 0.82749 0.0
H1919 H 0.65618 0.68344 0.8384 0.0
H1920 H 0.71332 0.85653 0.67669 0.0
H1921 H 0.68925 0.8485 0.70261 0.0
H1922 H 0.73397 0.81533 0.73489 0.0
H1923 H 0.75814 0.82386 0.70956 0.0
H1924 H 0.67663 0.81342 0.71108 0.0
H1925 H 0.70784 0.8431 0.78041 0.0
H1926 H 0.71682 0.8503 0.75606 0.0
H1927 H 0.72607 0.8279 0.76807 0.0
C1928 C 0.71811 0.84789 0.68955 0.0
C1929 C 0.73766 0.84086 0.69109 0.0
C1930 C 0.70434 0.84333 0.70436 0.0
C1931 C 0.70983 0.83157 0.7209 0.0
C1932 C 0.72946 0.82497 0.72266 0.0
H1933 H 0.65311 0.73852 0.77854 0.0
H1934 H 0.66726 0.76264 0.75579 0.0
C1935 C 0.74328 0.82974 0.70804 0.0
C1936 C 0.69477 0.82409 0.73502 0.0
H1937 H 0.68712 0.81391 0.78441 0.0
C1938 C 0.67869 0.81395 0.72714 0.0
C1939 C 0.69705 0.82514 0.75602 0.0
C1940 C 0.71277 0.83742 0.76558 0.0
C1941 C 0.66581 0.80352 0.73958 0.0
C1942 C 0.66947 0.80268 0.76037 0.0
C1943 C 0.68454 0.81417 0.76841 0.0
C1944 C 0.65927 0.78844 0.77366 0.0
C1945 C 0.64868 0.79314 0.7302 0.0
C1946 C 0.65037 0.79483 0.79156 0.0
C1947 C 0.64245 0.78095 0.80486 0.0
C1948 C 0.64335 0.76042 0.80049 0.0
C1949 C 0.65195 0.75418 0.78235 0.0
C1950 C 0.65995 0.76801 0.76919 0.0
H1951 H 0.64353 0.80121 0.7166 0.0
H1952 H 0.65343 0.77792 0.72554 0.0
H1953 H 0.63616 0.79191 0.74079 0.0
H1954 H 0.64984 0.81051 0.79539 0.0
H1955 H 0.63597 0.78628 0.81871 0.0
H1956 H 0.73427 0.13547 0.28787 0.0
H1957 H 0.71823 0.14897 0.25777 0.0
H1958 H 0.67727 0.18234 0.29462 0.0
H1959 H 0.69296 0.16882 0.32469 0.0
H1960 H 0.67224 0.14645 0.25123 0.0
H1961 H 0.70489 0.22191 0.25145 0.0
H1962 H 0.71713 0.20036 0.2624 0.0
H1963 H 0.6968 0.21213 0.27514 0.0
C1964 C 0.7219 0.14575 0.28952 0.0
C1965 C 0.7148 0.15108 0.30857 0.0
C1966 C 0.71279 0.15339 0.27237 0.0
C1967 C 0.6967 0.16663 0.27414 0.0
C1968 C 0.68976 0.17218 0.2931 0.0
H1969 H 0.61951 0.23731 0.20199 0.0
H1970 H 0.63724 0.21966 0.22856 0.0
C1971 C 0.69871 0.16442 0.31021 0.0
C1972 C 0.68658 0.17429 0.25626 0.0
H1973 H 0.6782 0.21689 0.22957 0.0
C1974 C 0.67364 0.16177 0.24626 0.0
C1975 C 0.68854 0.19426 0.25005 0.0
C1976 C 0.70267 0.20801 0.26017 0.0
C1977 C 0.6619 0.16901 0.23054 0.0
C1978 C 0.66351 0.18916 0.22463 0.0
C1979 C 0.67693 0.20148 0.23429 0.0
C1980 C 0.65111 0.19807 0.20879 0.0
C1981 C 0.64738 0.15532 0.22093 0.0
C1982 C 0.65273 0.19142 0.18899 0.0
C1983 C 0.64247 0.20137 0.17379 0.0
C1984 C 0.63071 0.21827 0.17819 0.0
C1985 C 0.6285 0.22436 0.19815 0.0
C1986 C 0.63866 0.21436 0.21332 0.0
H1987 H 0.64482 0.14183 0.23018 0.0
H1988 H 0.63309 0.16318 0.2184 0.0
H1989 H 0.65321 0.15038 0.2062 0.0
H1990 H 0.66249 0.17905 0.18518 0.0
H1991 H 0.64444 0.19634 0.15853 0.0
H1992 H 0.28152 0.14416 0.67421 0.0
H1993 H 0.30591 0.15217 0.69966 0.0
H1994 H 0.26102 0.18307 0.73396 0.0
H1995 H 0.23659 0.17465 0.70909 0.0
H1996 H 0.31833 0.18712 0.71053 0.0
H1997 H 0.28709 0.15176 0.77745 0.0
H1998 H 0.27856 0.14616 0.75259 0.0
H1999 H 0.26869 0.16743 0.76602 0.0
C2000 C 0.27681 0.15243 0.68732 0.0
C2001 C 0.25707 0.15868 0.68965 0.0
C2002 C 0.29076 0.15696 0.70187 0.0
C2003 C 0.28524 0.16784 0.71898 0.0
C2004 C 0.26555 0.17406 0.72128 0.0
H2005 H 0.33797 0.25787 0.78268 0.0
H2006 H 0.3256 0.23464 0.75825 0.0
C2007 C 0.25159 0.16937 0.7069 0.0
C2008 C 0.30017 0.17442 0.73357 0.0
H2009 H 0.30718 0.18096 0.78359 0.0
C2010 C 0.31614 0.18537 0.7265 0.0
C2011 C 0.29778 0.17168 0.75443 0.0
C2012 C 0.28221 0.1584 0.76301 0.0
C2013 C 0.32869 0.1951 0.73973 0.0
C2014 C 0.3248 0.19436 0.76051 0.0
C2015 C 0.30994 0.18194 0.76764 0.0
C2016 C 0.33423 0.2081 0.77478 0.0
C2017 C 0.34569 0.20652 0.73122 0.0
C2018 C 0.3429 0.20099 0.79252 0.0
C2019 C 0.34982 0.21437 0.80681 0.0
C2020 C 0.34806 0.23509 0.80364 0.0
C2021 C 0.33972 0.24206 0.78565 0.0
C2022 C 0.33278 0.22874 0.7715 0.0
H2023 H 0.35129 0.19943 0.71726 0.0
H2024 H 0.34061 0.22187 0.72735 0.0
H2025 H 0.35797 0.20743 0.74204 0.0
H2026 H 0.34399 0.18512 0.79546 0.0
H2027 H 0.3561 0.20847 0.82051 0.0
H2028 H 0.3013 0.82934 0.34101 0.0
H2029 H 0.32287 0.81619 0.31464 0.0
H2030 H 0.28467 0.84216 0.26988 0.0
H2031 H 0.26295 0.85536 0.29617 0.0
H2032 H 0.29421 0.80046 0.26513 0.0
H2033 H 0.36028 0.84659 0.27613 0.0
H2034 H 0.35057 0.83525 0.29837 0.0
H2035 H 0.33623 0.8539 0.28539 0.0
C2036 C 0.29759 0.8324 0.32556 0.0
C2037 C 0.28045 0.84334 0.32061 0.0
C2038 C 0.30998 0.82499 0.31055 0.0
C2039 C 0.30542 0.82842 0.2904 0.0
C2040 C 0.28844 0.8395 0.2854 0.0
H2041 H 0.37065 0.80055 0.18297 0.0
H2042 H 0.35377 0.81712 0.21087 0.0
C2043 C 0.27608 0.84701 0.3004 0.0
C2044 C 0.31768 0.81931 0.27454 0.0
H2045 H 0.36362 0.81912 0.25393 0.0
C2046 C 0.30937 0.80455 0.26262 0.0
C2047 C 0.33737 0.82484 0.27134 0.0
C2048 C 0.34667 0.84113 0.28335 0.0
C2049 C 0.32038 0.79492 0.24765 0.0
C2050 C 0.34021 0.80008 0.24476 0.0
C2051 C 0.34846 0.81507 0.25645 0.0
C2052 C 0.35232 0.7905 0.22908 0.0
C2053 C 0.31067 0.77946 0.23485 0.0
C2054 C 0.35753 0.77021 0.23047 0.0
C2055 C 0.3672 0.76071 0.2146 0.0
C2056 C 0.37171 0.7714 0.19714 0.0
C2057 C 0.36725 0.79193 0.19621 0.0
C2058 C 0.35766 0.80142 0.21211 0.0
H2059 H 0.29441 0.77996 0.23646 0.0
H2060 H 0.31448 0.78163 0.21884 0.0
H2061 H 0.31604 0.76439 0.23937 0.0
H2062 H 0.35364 0.76165 0.24361 0.0
H2063 H 0.37051 0.74488 0.21573 0.0
loop_
_geom_bond_atom_site_label_1
_geom_bond_atom_site_label_2
_geom_bond_distance
_geom_bond_site_symmetry_2
_ccdc_geom_bond_type
Co0 O1 2.216 . S
Co0 O2 2.091 . S
Co0 O4 2.004 . S
Co0 O10 2.021 . S
Co0 O12 2.137 . S
Co0 O13 2.244 . S
O1 Co0 2.216 . S
O1 C8 1.247 . S
O2 Co0 2.091 . S
O2 C8 1.261 . S
C3 O12 1.247 . S
C3 O13 1.272 . S
O4 Co0 2.004 . S
O4 C9 1.259 . S
Co5 O6 2.061 . S
Co5 O11 2.052 . S
Co5 O13 2.135 . S
O6 Co5 2.061 . S
O6 C9 1.235 . S
C7 O10 1.238 . S
C7 O11 1.241 . S
C8 O1 1.247 . S
C8 O2 1.261 . S
C9 O4 1.259 . S
C9 O6 1.235 . S
O10 Co0 2.021 . S
O10 C7 1.238 . S
O11 Co5 2.052 . S
O11 C7 1.241 . S
O12 Co0 2.137 . S
O12 C3 1.247 . S
O13 Co0 2.244 . S
O13 C3 1.272 . S
O13 Co5 2.135 . S
Co14 O15 2.216 . S
Co14 O16 2.091 . S
Co14 O18 2.004 . S
Co14 O24 2.021 . S
Co14 O26 2.137 . S
Co14 O27 2.244 . S
O15 Co14 2.216 . S
O15 C22 1.247 . S
O16 Co14 2.091 . S
O16 C22 1.261 . S
C17 O26 1.247 . S
C17 O27 1.272 . S
O18 Co14 2.004 . S
O18 C23 1.259 . S
Co19 O20 2.061 . S
Co19 O25 2.052 . S
Co19 O27 2.135 . S
O20 Co19 2.061 . S
O20 C23 1.235 . S
C21 O24 1.238 . S
C21 O25 1.241 . S
C22 O15 1.247 . S
C22 O16 1.261 . S
C23 O18 1.259 . S
C23 O20 1.235 . S
O24 Co14 2.021 . S
O24 C21 1.238 . S
O25 Co19 2.052 . S
O25 C21 1.241 . S
O26 Co14 2.137 . S
O26 C17 1.247 . S
O27 Co14 2.244 . S
O27 C17 1.272 . S
O27 Co19 2.135 . S
Co28 O29 2.216 . S
Co28 O30 2.091 . S
Co28 O32 2.004 . S
Co28 O38 2.021 . S
Co28 O40 2.137 . S
Co28 O41 2.244 . S
O29 Co28 2.216 . S
O29 C36 1.247 . S
O30 Co28 2.091 . S
O30 C36 1.261 . S
C31 O40 1.247 . S
C31 O41 1.272 . S
O32 Co28 2.004 . S
O32 C37 1.259 . S
Co33 O34 2.061 . S
Co33 O39 2.052 . S
Co33 O41 2.135 . S
O34 Co33 2.061 . S
O34 C37 1.235 . S
C35 O38 1.238 . S
C35 O39 1.241 . S
C36 O29 1.247 . S
C36 O30 1.261 . S
C37 O32 1.259 . S
C37 O34 1.235 . S
O38 Co28 2.021 . S
O38 C35 1.238 . S
O39 Co33 2.052 . S
O39 C35 1.241 . S
O40 Co28 2.137 . S
O40 C31 1.247 . S
O41 Co28 2.244 . S
O41 C31 1.272 . S
O41 Co33 2.135 . S
Co42 O43 2.216 . S
Co42 O44 2.091 . S
Co42 O46 2.004 . S
Co42 O52 2.021 . S
Co42 O54 2.137 . S
Co42 O55 2.244 . S
O43 Co42 2.216 . S
O43 C50 1.247 . S
O44 Co42 2.091 . S
O44 C50 1.261 . S
C45 O54 1.247 . S
C45 O55 1.272 . S
O46 Co42 2.004 . S
O46 C51 1.259 . S
Co47 O48 2.061 . S
Co47 O53 2.052 . S
Co47 O55 2.135 . S
O48 Co47 2.061 . S
O48 C51 1.235 . S
C49 O52 1.238 . S
C49 O53 1.241 . S
C50 O43 1.247 . S
C50 O44 1.261 . S
C51 O46 1.259 . S
C51 O48 1.235 . S
O52 Co42 2.021 . S
O52 C49 1.238 . S
O53 Co47 2.052 . S
O53 C49 1.241 . S
O54 Co42 2.137 . S
O54 C45 1.247 . S
O55 Co42 2.244 . S
O55 C45 1.272 . S
O55 Co47 2.135 . S
Co56 O57 2.216 . S
Co56 O58 2.091 . S
Co56 O60 2.004 . S
Co56 O66 2.021 . S
Co56 O68 2.137 . S
Co56 O69 2.244 . S
O57 Co56 2.216 . S
O57 C64 1.247 . S
O58 Co56 2.091 . S
O58 C64 1.261 . S
C59 O68 1.247 . S
C59 O69 1.272 . S
O60 Co56 2.004 . S
O60 C65 1.259 . S
Co61 O62 2.061 . S
Co61 O67 2.052 . S
Co61 O69 2.135 . S
O62 Co61 2.061 . S
O62 C65 1.235 . S
C63 O66 1.238 . S
C63 O67 1.241 . S
C64 O57 1.247 . S
C64 O58 1.261 . S
C65 O60 1.259 . S
C65 O62 1.235 . S
O66 Co56 2.021 . S
O66 C63 1.238 . S
O67 Co61 2.052 . S
O67 C63 1.241 . S
O68 Co56 2.137 . S
O68 C59 1.247 . S
O69 Co56 2.244 . S
O69 C59 1.272 . S
O69 Co61 2.135 . S
Co70 O71 2.216 . S
Co70 O72 2.091 . S
Co70 O74 2.004 . S
Co70 O80 2.021 . S
Co70 O82 2.137 . S
Co70 O83 2.244 . S
O71 Co70 2.216 . S
O71 C78 1.247 . S
O72 Co70 2.091 . S
O72 C78 1.261 . S
C73 O82 1.247 . S
C73 O83 1.272 . S
O74 Co70 2.004 . S
O74 C79 1.259 . S
Co75 O76 2.061 . S
Co75 O81 2.052 . S
Co75 O83 2.135 . S
O76 Co75 2.061 . S
O76 C79 1.235 . S
C77 O80 1.238 . S
C77 O81 1.241 . S
C78 O71 1.247 . S
C78 O72 1.261 . S
C79 O74 1.259 . S
C79 O76 1.235 . S
O80 Co70 2.021 . S
O80 C77 1.238 . S
O81 Co75 2.052 . S
O81 C77 1.241 . S
O82 Co70 2.137 . S
O82 C73 1.247 . S
O83 Co70 2.244 . S
O83 C73 1.272 . S
O83 Co75 2.135 . S
Co84 O85 2.216 . S
Co84 O86 2.091 . S
Co84 O88 2.004 . S
Co84 O94 2.021 . S
Co84 O96 2.137 . S
Co84 O97 2.244 . S
O85 Co84 2.216 . S
O85 C92 1.247 . S
O86 Co84 2.091 . S
O86 C92 1.261 . S
C87 O96 1.247 . S
C87 O97 1.272 . S
O88 Co84 2.004 . S
O88 C93 1.259 . S
Co89 O90 2.061 . S
Co89 O95 2.052 . S
Co89 O97 2.135 . S
O90 Co89 2.061 . S
O90 C93 1.235 . S
C91 O94 1.238 . S
C91 O95 1.241 . S
C92 O85 1.247 . S
C92 O86 1.261 . S
C93 O88 1.259 . S
C93 O90 1.235 . S
O94 Co84 2.021 . S
O94 C91 1.238 . S
O95 Co89 2.052 . S
O95 C91 1.241 . S
O96 Co84 2.137 . S
O96 C87 1.247 . S
O97 Co84 2.244 . S
O97 C87 1.272 . S
O97 Co89 2.135 . S
Co98 O99 2.216 . S
Co98 O100 2.091 . S
Co98 O102 2.004 . S
Co98 O108 2.021 . S
Co98 O110 2.137 . S
Co98 O111 2.244 . S
O99 Co98 2.216 . S
O99 C106 1.247 . S
O100 Co98 2.091 . S
O100 C106 1.261 . S
C101 O110 1.247 . S
C101 O111 1.272 . S
O102 Co98 2.004 . S
O102 C107 1.259 . S
Co103 O104 2.061 . S
Co103 O109 2.052 . S
Co103 O111 2.135 . S
O104 Co103 2.061 . S
O104 C107 1.235 . S
C105 O108 1.238 . S
C105 O109 1.241 . S
C106 O99 1.247 . S
C106 O100 1.261 . S
C107 O102 1.259 . S
C107 O104 1.235 . S
O108 Co98 2.021 . S
O108 C105 1.238 . S
O109 Co103 2.052 . S
O109 C105 1.241 . S
O110 Co98 2.137 . S
O110 C101 1.247 . S
O111 Co98 2.244 . S
O111 C101 1.272 . S
O111 Co103 2.135 . S
Co112 O113 2.216 . S
Co112 O114 2.091 . S
Co112 O116 2.004 . S
Co112 O122 2.021 . S
Co112 O124 2.137 . S
Co112 O125 2.244 . S
O113 Co112 2.216 . S
O113 C120 1.247 . S
O114 Co112 2.091 . S
O114 C120 1.261 . S
C115 O124 1.247 . S
C115 O125 1.272 . S
O116 Co112 2.004 . S
O116 C121 1.259 . S
Co117 O118 2.061 . S
Co117 O123 2.052 . S
Co117 O125 2.135 . S
O118 Co117 2.061 . S
O118 C121 1.235 . S
C119 O122 1.238 . S
C119 O123 1.241 . S
C120 O113 1.247 . S
C120 O114 1.261 . S
C121 O116 1.259 . S
C121 O118 1.235 . S
O122 Co112 2.021 . S
O122 C119 1.238 . S
O123 Co117 2.052 . S
O123 C119 1.241 . S
O124 Co112 2.137 . S
O124 C115 1.247 . S
O125 Co112 2.244 . S
O125 C115 1.272 . S
O125 Co117 2.135 . S
Co126 O127 2.216 . S
Co126 O128 2.091 . S
Co126 O130 2.004 . S
Co126 O136 2.021 . S
Co126 O138 2.137 . S
Co126 O139 2.244 . S
O127 Co126 2.216 . S
O127 C134 1.247 . S
O128 Co126 2.091 . S
O128 C134 1.261 . S
C129 O138 1.247 . S
C129 O139 1.272 . S
O130 Co126 2.004 . S
O130 C135 1.259 . S
Co131 O132 2.061 . S
Co131 O137 2.052 . S
Co131 O139 2.135 . S
O132 Co131 2.061 . S
O132 C135 1.235 . S
C133 O136 1.238 . S
C133 O137 1.241 . S
C134 O127 1.247 . S
C134 O128 1.261 . S
C135 O130 1.259 . S
C135 O132 1.235 . S
O136 Co126 2.021 . S
O136 C133 1.238 . S
O137 Co131 2.052 . S
O137 C133 1.241 . S
O138 Co126 2.137 . S
O138 C129 1.247 . S
O139 Co126 2.244 . S
O139 C129 1.272 . S
O139 Co131 2.135 . S
Co140 O141 2.216 . S
Co140 O142 2.091 . S
Co140 O144 2.004 . S
Co140 O150 2.021 . S
Co140 O152 2.137 . S
Co140 O153 2.244 . S
O141 Co140 2.216 . S
O141 C148 1.247 . S
O142 Co140 2.091 . S
O142 C148 1.261 . S
C143 O152 1.247 . S
C143 O153 1.272 . S
O144 Co140 2.004 . S
O144 C149 1.259 . S
Co145 O146 2.061 . S
Co145 O151 2.052 . S
Co145 O153 2.135 . S
O146 Co145 2.061 . S
O146 C149 1.235 . S
C147 O150 1.238 . S
C147 O151 1.241 . S
C148 O141 1.247 . S
C148 O142 1.261 . S
C149 O144 1.259 . S
C149 O146 1.235 . S
O150 Co140 2.021 . S
O150 C147 1.238 . S
O151 Co145 2.052 . S
O151 C147 1.241 . S
O152 Co140 2.137 . S
O152 C143 1.247 . S
O153 Co140 2.244 . S
O153 C143 1.272 . S
O153 Co145 2.135 . S
Co154 O155 2.216 . S
Co154 O156 2.091 . S
Co154 O158 2.004 . S
Co154 O164 2.021 . S
Co154 O166 2.137 . S
Co154 O167 2.244 . S
O155 Co154 2.216 . S
O155 C162 1.247 . S
O156 Co154 2.091 . S
O156 C162 1.261 . S
C157 O166 1.247 . S
C157 O167 1.272 . S
O158 Co154 2.004 . S
O158 C163 1.259 . S
Co159 O160 2.061 . S
Co159 O165 2.052 . S
Co159 O167 2.135 . S
O160 Co159 2.061 . S
O160 C163 1.235 . S
C161 O164 1.238 . S
C161 O165 1.241 . S
C162 O155 1.247 . S
C162 O156 1.261 . S
C163 O158 1.259 . S
C163 O160 1.235 . S
O164 Co154 2.021 . S
O164 C161 1.238 . S
O165 Co159 2.052 . S
O165 C161 1.241 . S
O166 Co154 2.137 . S
O166 C157 1.247 . S
O167 Co154 2.244 . S
O167 C157 1.272 . S
O167 Co159 2.135 . S
Co168 O169 2.216 . S
Co168 O170 2.091 . S
Co168 O172 2.004 . S
Co168 O178 2.021 . S
Co168 O180 2.137 . S
Co168 O181 2.244 . S
O169 Co168 2.216 . S
O169 C176 1.247 . S
O170 Co168 2.091 . S
O170 C176 1.261 . S
C171 O180 1.247 . S
C171 O181 1.272 . S
O172 Co168 2.004 . S
O172 C177 1.259 . S
Co173 O174 2.061 . S
Co173 O179 2.052 . S
Co173 O181 2.135 . S
O174 Co173 2.061 . S
O174 C177 1.235 . S
C175 O178 1.238 . S
C175 O179 1.241 . S
C176 O169 1.247 . S
C176 O170 1.261 . S
C177 O172 1.259 . S
C177 O174 1.235 . S
O178 Co168 2.021 . S
O178 C175 1.238 . S
O179 Co173 2.052 . S
O179 C175 1.241 . S
O180 Co168 2.137 . S
O180 C171 1.247 . S
O181 Co168 2.244 . S
O181 C171 1.272 . S
O181 Co173 2.135 . S
Co182 O183 2.216 . S
Co182 O184 2.091 . S
Co182 O186 2.004 . S
Co182 O192 2.021 . S
Co182 O194 2.137 . S
Co182 O195 2.244 . S
O183 Co182 2.216 . S
O183 C190 1.247 . S
O184 Co182 2.091 . S
O184 C190 1.261 . S
C185 O194 1.247 . S
C185 O195 1.272 . S
O186 Co182 2.004 . S
O186 C191 1.259 . S
Co187 O188 2.061 . S
Co187 O193 2.052 . S
Co187 O195 2.135 . S
O188 Co187 2.061 . S
O188 C191 1.235 . S
C189 O192 1.238 . S
C189 O193 1.241 . S
C190 O183 1.247 . S
C190 O184 1.261 . S
C191 O186 1.259 . S
C191 O188 1.235 . S
O192 Co182 2.021 . S
O192 C189 1.238 . S
O193 Co187 2.052 . S
O193 C189 1.241 . S
O194 Co182 2.137 . S
O194 C185 1.247 . S
O195 Co182 2.244 . S
O195 C185 1.272 . S
O195 Co187 2.135 . S
Co196 O197 2.216 . S
Co196 O198 2.091 . S
Co196 O200 2.004 . S
Co196 O206 2.021 . S
Co196 O208 2.137 . S
Co196 O209 2.244 . S
O197 Co196 2.216 . S
O197 C204 1.247 . S
O198 Co196 2.091 . S
O198 C204 1.261 . S
C199 O208 1.247 . S
C199 O209 1.272 . S
O200 Co196 2.004 . S
O200 C205 1.259 . S
Co201 O202 2.061 . S
Co201 O207 2.052 . S
Co201 O209 2.135 . S
O202 Co201 2.061 . S
O202 C205 1.235 . S
C203 O206 1.238 . S
C203 O207 1.241 . S
C204 O197 1.247 . S
C204 O198 1.261 . S
C205 O200 1.259 . S
C205 O202 1.235 . S
O206 Co196 2.021 . S
O206 C203 1.238 . S
O207 Co201 2.052 . S
O207 C203 1.241 . S
O208 Co196 2.137 . S
O208 C199 1.247 . S
O209 Co196 2.244 . S
O209 C199 1.272 . S
O209 Co201 2.135 . S
Co210 O211 2.216 . S
Co210 O212 2.091 . S
Co210 O214 2.004 . S
Co210 O220 2.021 . S
Co210 O222 2.137 . S
Co210 O223 2.244 . S
O211 Co210 2.216 . S
O211 C218 1.247 . S
O212 Co210 2.091 . S
O212 C218 1.261 . S
C213 O222 1.247 . S
C213 O223 1.272 . S
O214 Co210 2.004 . S
O214 C219 1.259 . S
Co215 O216 2.061 . S
Co215 O221 2.052 . S
Co215 O223 2.135 . S
O216 Co215 2.061 . S
O216 C219 1.235 . S
C217 O220 1.238 . S
C217 O221 1.241 . S
C218 O211 1.247 . S
C218 O212 1.261 . S
C219 O214 1.259 . S
C219 O216 1.235 . S
O220 Co210 2.021 . S
O220 C217 1.238 . S
O221 Co215 2.052 . S
O221 C217 1.241 . S
O222 Co210 2.137 . S
O222 C213 1.247 . S
O223 Co210 2.244 . S
O223 C213 1.272 . S
O223 Co215 2.135 . S
Co224 O225 2.216 . S
Co224 O226 2.091 . S
Co224 O228 2.004 . S
Co224 O234 2.021 . S
Co224 O236 2.137 . S
Co224 O237 2.244 . S
O225 Co224 2.216 . S
O225 C232 1.247 . S
O226 Co224 2.091 . S
O226 C232 1.261 . S
C227 O236 1.247 . S
C227 O237 1.272 . S
O228 Co224 2.004 . S
O228 C233 1.259 . S
Co229 O230 2.061 . S
Co229 O235 2.052 . S
Co229 O237 2.135 . S
O230 Co229 2.061 . S
O230 C233 1.235 . S
C231 O234 1.238 . S
C231 O235 1.241 . S
C232 O225 1.247 . S
C232 O226 1.261 . S
C233 O228 1.259 . S
C233 O230 1.235 . S
O234 Co224 2.021 . S
O234 C231 1.238 . S
O235 Co229 2.052 . S
O235 C231 1.241 . S
O236 Co224 2.137 . S
O236 C227 1.247 . S
O237 Co224 2.244 . S
O237 C227 1.272 . S
O237 Co229 2.135 . S
Co238 O239 2.216 . S
Co238 O240 2.091 . S
Co238 O242 2.004 . S
Co238 O248 2.021 . S
Co238 O250 2.137 . S
Co238 O251 2.244 . S
O239 Co238 2.216 . S
O239 C246 1.247 . S
O240 Co238 2.091 . S
O240 C246 1.261 . S
C241 O250 1.247 . S
C241 O251 1.272 . S
O242 Co238 2.004 . S
O242 C247 1.259 . S
Co243 O244 2.061 . S
Co243 O249 2.052 . S
Co243 O251 2.135 . S
O244 Co243 2.061 . S
O244 C247 1.235 . S
C245 O248 1.238 . S
C245 O249 1.241 . S
C246 O239 1.247 . S
C246 O240 1.261 . S
C247 O242 1.259 . S
C247 O244 1.235 . S
O248 Co238 2.021 . S
O248 C245 1.238 . S
O249 Co243 2.052 . S
O249 C245 1.241 . S
O250 Co238 2.137 . S
O250 C241 1.247 . S
O251 Co238 2.244 . S
O251 C241 1.272 . S
O251 Co243 2.135 . S
Co252 O253 2.216 . S
Co252 O254 2.091 . S
Co252 O256 2.004 . S
Co252 O262 2.021 . S
Co252 O264 2.137 . S
Co252 O265 2.244 . S
O253 Co252 2.216 . S
O253 C260 1.247 . S
O254 Co252 2.091 . S
O254 C260 1.261 . S
C255 O264 1.247 . S
C255 O265 1.272 . S
O256 Co252 2.004 . S
O256 C261 1.259 . S
Co257 O258 2.061 . S
Co257 O263 2.052 . S
Co257 O265 2.135 . S
O258 Co257 2.061 . S
O258 C261 1.235 . S
C259 O262 1.238 . S
C259 O263 1.241 . S
C260 O253 1.247 . S
C260 O254 1.261 . S
C261 O256 1.259 . S
C261 O258 1.235 . S
O262 Co252 2.021 . S
O262 C259 1.238 . S
O263 Co257 2.052 . S
O263 C259 1.241 . S
O264 Co252 2.137 . S
O264 C255 1.247 . S
O265 Co252 2.244 . S
O265 C255 1.272 . S
O265 Co257 2.135 . S
Co266 O267 2.216 . S
Co266 O268 2.091 . S
Co266 O270 2.004 . S
Co266 O276 2.021 . S
Co266 O278 2.137 . S
Co266 O279 2.244 . S
O267 Co266 2.216 . S
O267 C274 1.247 . S
O268 Co266 2.091 . S
O268 C274 1.261 . S
C269 O278 1.247 . S
C269 O279 1.272 . S
O270 Co266 2.004 . S
O270 C275 1.259 . S
Co271 O272 2.061 . S
Co271 O277 2.052 . S
Co271 O279 2.135 . S
O272 Co271 2.061 . S
O272 C275 1.235 . S
C273 O276 1.238 . S
C273 O277 1.241 . S
C274 O267 1.247 . S
C274 O268 1.261 . S
C275 O270 1.259 . S
C275 O272 1.235 . S
O276 Co266 2.021 . S
O276 C273 1.238 . S
O277 Co271 2.052 . S
O277 C273 1.241 . S
O278 Co266 2.137 . S
O278 C269 1.247 . S
O279 Co266 2.244 . S
O279 C269 1.272 . S
O279 Co271 2.135 . S
Co280 O281 2.216 . S
Co280 O282 2.091 . S
Co280 O284 2.004 . S
Co280 O290 2.021 . S
Co280 O292 2.137 . S
Co280 O293 2.244 . S
O281 Co280 2.216 . S
O281 C288 1.247 . S
O282 Co280 2.091 . S
O282 C288 1.261 . S
C283 O292 1.247 . S
C283 O293 1.272 . S
O284 Co280 2.004 . S
O284 C289 1.259 . S
Co285 O286 2.061 . S
Co285 O291 2.052 . S
Co285 O293 2.135 . S
O286 Co285 2.061 . S
O286 C289 1.235 . S
C287 O290 1.238 . S
C287 O291 1.241 . S
C288 O281 1.247 . S
C288 O282 1.261 . S
C289 O284 1.259 . S
C289 O286 1.235 . S
O290 Co280 2.021 . S
O290 C287 1.238 . S
O291 Co285 2.052 . S
O291 C287 1.241 . S
O292 Co280 2.137 . S
O292 C283 1.247 . S
O293 Co280 2.244 . S
O293 C283 1.272 . S
O293 Co285 2.135 . S
Co294 O295 2.216 . S
Co294 O296 2.091 . S
Co294 O298 2.004 . S
Co294 O304 2.021 . S
Co294 O306 2.137 . S
Co294 O307 2.244 . S
O295 Co294 2.216 . S
O295 C302 1.247 . S
O296 Co294 2.091 . S
O296 C302 1.261 . S
C297 O306 1.247 . S
C297 O307 1.272 . S
O298 Co294 2.004 . S
O298 C303 1.259 . S
Co299 O300 2.061 . S
Co299 O305 2.052 . S
Co299 O307 2.135 . S
O300 Co299 2.061 . S
O300 C303 1.235 . S
C301 O304 1.238 . S
C301 O305 1.241 . S
C302 O295 1.247 . S
C302 O296 1.261 . S
C303 O298 1.259 . S
C303 O300 1.235 . S
O304 Co294 2.021 . S
O304 C301 1.238 . S
O305 Co299 2.052 . S
O305 C301 1.241 . S
O306 Co294 2.137 . S
O306 C297 1.247 . S
O307 Co294 2.244 . S
O307 C297 1.272 . S
O307 Co299 2.135 . S
Co308 O309 2.216 . S
Co308 O310 2.091 . S
Co308 O312 2.004 . S
Co308 O318 2.021 . S
Co308 O320 2.137 . S
Co308 O321 2.244 . S
O309 Co308 2.216 . S
O309 C316 1.247 . S
O310 Co308 2.091 . S
O310 C316 1.261 . S
C311 O320 1.247 . S
C311 O321 1.272 . S
O312 Co308 2.004 . S
O312 C317 1.259 . S
Co313 O314 2.061 . S
Co313 O319 2.052 . S
Co313 O321 2.135 . S
O314 Co313 2.061 . S
O314 C317 1.235 . S
C315 O318 1.238 . S
C315 O319 1.241 . S
C316 O309 1.247 . S
C316 O310 1.261 . S
C317 O312 1.259 . S
C317 O314 1.235 . S
O318 Co308 2.021 . S
O318 C315 1.238 . S
O319 Co313 2.052 . S
O319 C315 1.241 . S
O320 Co308 2.137 . S
O320 C311 1.247 . S
O321 Co308 2.244 . S
O321 C311 1.272 . S
O321 Co313 2.135 . S
Co322 O323 2.216 . S
Co322 O324 2.091 . S
Co322 O326 2.004 . S
Co322 O332 2.021 . S
Co322 O334 2.137 . S
Co322 O335 2.244 . S
O323 Co322 2.216 . S
O323 C330 1.247 . S
O324 Co322 2.091 . S
O324 C330 1.261 . S
C325 O334 1.247 . S
C325 O335 1.272 . S
O326 Co322 2.004 . S
O326 C331 1.259 . S
Co327 O328 2.061 . S
Co327 O333 2.052 . S
Co327 O335 2.135 . S
O328 Co327 2.061 . S
O328 C331 1.235 . S
C329 O332 1.238 . S
C329 O333 1.241 . S
C330 O323 1.247 . S
C330 O324 1.261 . S
C331 O326 1.259 . S
C331 O328 1.235 . S
O332 Co322 2.021 . S
O332 C329 1.238 . S
O333 Co327 2.052 . S
O333 C329 1.241 . S
O334 Co322 2.137 . S
O334 C325 1.247 . S
O335 Co322 2.244 . S
O335 C325 1.272 . S
O335 Co327 2.135 . S
H336 C344 0.929 . S
H337 C346 0.930 . S
H338 C348 0.930 . S
H339 C351 0.929 . S
H340 C354 0.930 . S
H341 C356 0.960 . S
H342 C356 0.960 . S
H343 C356 0.960 . S
C344 H336 0.929 . S
C344 C345 1.377 . S
C344 C346 1.384 . S
C345 C344 1.377 . S
C345 C351 1.390 . S
C346 H337 0.930 . S
C346 C344 1.384 . S
C346 C347 1.372 . S
C347 C346 1.372 . S
C347 C348 1.400 . S
C347 C352 1.490 . S
C348 H338 0.930 . S
C348 C347 1.400 . S
C348 C351 1.386 . S
H349 C365 0.930 . S
H350 C366 0.931 . S
C351 H339 0.929 . S
C351 C345 1.390 . S
C351 C348 1.386 . S
C352 C347 1.490 . S
C352 C354 1.395 . S
C352 C355 1.403 . S
H353 C359 0.930 . S
C354 H340 0.930 . S
C354 C352 1.395 . S
C354 C357 1.403 . S
C355 C352 1.403 . S
C355 C356 1.524 . S
C355 C359 1.400 . S
C356 H341 0.960 . S
C356 H342 0.960 . S
C356 H343 0.960 . S
C356 C355 1.524 . S
C357 C354 1.403 . S
C357 C358 1.392 . S
C357 C361 1.495 . S
C358 C357 1.392 . S
C358 C359 1.385 . S
C358 C360 1.478 . S
C359 H353 0.930 . S
C359 C355 1.400 . S
C359 C358 1.385 . S
C360 C358 1.478 . S
C360 C362 1.381 . S
C360 C366 1.383 . S
C361 C357 1.495 . S
C361 H367 0.959 . S
C361 H368 0.961 . S
C361 H369 0.960 . S
C362 C360 1.381 . S
C362 C363 1.394 . S
C362 H370 0.930 . S
C363 C362 1.394 . S
C363 C364 1.383 . S
C363 H371 0.929 . S
C364 C363 1.383 . S
C364 C365 1.377 . S
C365 H349 0.930 . S
C365 C364 1.377 . S
C365 C366 1.379 . S
C366 H350 0.931 . S
C366 C360 1.383 . S
C366 C365 1.379 . S
H367 C361 0.959 . S
H368 C361 0.961 . S
H369 C361 0.960 . S
H370 C362 0.930 . S
H371 C363 0.929 . S
H372 C380 0.929 . S
H373 C382 0.930 . S
H374 C384 0.930 . S
H375 C387 0.929 . S
H376 C390 0.930 . S
H377 C392 0.960 . S
H378 C392 0.960 . S
H379 C392 0.960 . S
C380 H372 0.929 . S
C380 C381 1.377 . S
C380 C382 1.384 . S
C381 C380 1.377 . S
C381 C387 1.390 . S
C382 H373 0.930 . S
C382 C380 1.384 . S
C382 C383 1.372 . S
C383 C382 1.372 . S
C383 C384 1.400 . S
C383 C388 1.490 . S
C384 H374 0.930 . S
C384 C383 1.400 . S
C384 C387 1.386 . S
H385 C401 0.930 . S
H386 C402 0.931 . S
C387 H375 0.929 . S
C387 C381 1.390 . S
C387 C384 1.386 . S
C388 C383 1.490 . S
C388 C390 1.395 . S
C388 C391 1.403 . S
H389 C395 0.930 . S
C390 H376 0.930 . S
C390 C388 1.395 . S
C390 C393 1.402 1_655 S
C391 C388 1.403 . S
C391 C392 1.524 . S
C391 C395 1.400 1_655 S
C392 H377 0.960 . S
C392 H378 0.960 . S
C392 H379 0.960 . S
C392 C391 1.524 . S
C393 C390 1.402 1_455 S
C393 C394 1.393 . S
C393 C397 1.496 . S
C394 C393 1.393 . S
C394 C395 1.385 . S
C394 C396 1.478 . S
C395 H389 0.930 . S
C395 C391 1.400 1_455 S
C395 C394 1.385 . S
C396 C394 1.478 . S
C396 C398 1.381 . S
C396 C402 1.383 . S
C397 C393 1.496 . S
C397 H403 0.959 1_455 S
C397 H404 0.961 . S
C397 H405 0.960 . S
C398 C396 1.381 . S
C398 C399 1.394 . S
C398 H406 0.930 . S
C399 C398 1.394 . S
C399 C400 1.383 . S
C399 H407 0.929 . S
C400 C399 1.383 . S
C400 C401 1.377 . S
C401 H385 0.930 . S
C401 C400 1.377 . S
C401 C402 1.379 . S
C402 H386 0.931 . S
C402 C396 1.383 . S
C402 C401 1.379 . S
H403 C397 0.959 1_655 S
H404 C397 0.961 . S
H405 C397 0.960 . S
H406 C398 0.930 . S
H407 C399 0.929 . S
H408 C416 0.929 . S
H409 C418 0.930 . S
H410 C420 0.930 . S
H411 C423 0.929 . S
H412 C426 0.930 . S
H413 C428 0.960 . S
H414 C428 0.960 . S
H415 C428 0.960 . S
C416 H408 0.929 . S
C416 C417 1.377 . S
C416 C418 1.384 . S
C417 C416 1.377 . S
C417 C423 1.390 . S
C418 H409 0.930 . S
C418 C416 1.384 . S
C418 C419 1.372 . S
C419 C418 1.372 . S
C419 C420 1.400 . S
C419 C424 1.490 . S
C420 H410 0.930 . S
C420 C419 1.400 . S
C420 C423 1.386 . S
H421 C437 0.930 . S
H422 C438 0.931 . S
C423 H411 0.929 . S
C423 C417 1.390 . S
C423 C420 1.386 . S
C424 C419 1.490 . S
C424 C426 1.395 . S
C424 C427 1.403 . S
H425 C431 0.930 . S
C426 H412 0.930 . S
C426 C424 1.395 . S
C426 C429 1.403 . S
C427 C424 1.403 . S
C427 C428 1.524 . S
C427 C431 1.400 . S
C428 H413 0.960 . S
C428 H414 0.960 . S
C428 H415 0.960 . S
C428 C427 1.524 . S
C429 C426 1.403 . S
C429 C430 1.392 . S
C429 C433 1.495 . S
C430 C429 1.392 . S
C430 C431 1.385 . S
C430 C432 1.478 . S
C431 H425 0.930 . S
C431 C427 1.400 . S
C431 C430 1.385 . S
C432 C430 1.478 . S
C432 C434 1.381 . S
C432 C438 1.383 . S
C433 C429 1.495 . S
C433 H439 0.959 . S
C433 H440 0.961 . S
C433 H441 0.960 . S
C434 C432 1.381 . S
C434 C435 1.394 . S
C434 H442 0.930 . S
C435 C434 1.394 . S
C435 C436 1.383 . S
C435 H443 0.929 . S
C436 C435 1.383 . S
C436 C437 1.377 . S
C437 H421 0.930 . S
C437 C436 1.377 . S
C437 C438 1.379 . S
C438 H422 0.931 . S
C438 C432 1.383 . S
C438 C437 1.379 . S
H439 C433 0.959 . S
H440 C433 0.961 . S
H441 C433 0.960 . S
H442 C434 0.930 . S
H443 C435 0.929 . S
H444 C452 0.929 . S
H445 C454 0.930 . S
H446 C456 0.930 . S
H447 C459 0.929 . S
H448 C462 0.930 . S
H449 C464 0.960 . S
H450 C464 0.960 . S
H451 C464 0.960 . S
C452 H444 0.929 . S
C452 C453 1.377 . S
C452 C454 1.384 . S
C453 C452 1.377 . S
C453 C459 1.390 . S
C454 H445 0.930 . S
C454 C452 1.384 . S
C454 C455 1.372 . S
C455 C454 1.372 . S
C455 C456 1.400 . S
C455 C460 1.490 . S
C456 H446 0.930 . S
C456 C455 1.400 . S
C456 C459 1.386 . S
H457 C473 0.930 . S
H458 C474 0.931 . S
C459 H447 0.929 . S
C459 C453 1.390 . S
C459 C456 1.386 . S
C460 C455 1.490 . S
C460 C462 1.395 . S
C460 C463 1.403 . S
H461 C467 0.930 . S
C462 H448 0.930 . S
C462 C460 1.395 . S
C462 C465 1.403 1_455 S
C463 C460 1.403 . S
C463 C464 1.524 . S
C463 C467 1.400 1_455 S
C464 H449 0.960 . S
C464 H450 0.960 . S
C464 H451 0.960 . S
C464 C463 1.524 . S
C465 C462 1.403 1_655 S
C465 C466 1.392 . S
C465 C469 1.495 . S
C466 C465 1.392 . S
C466 C467 1.385 . S
C466 C468 1.478 . S
C467 H461 0.930 . S
C467 C463 1.400 1_655 S
C467 C466 1.385 . S
C468 C466 1.478 . S
C468 C470 1.381 . S
C468 C474 1.383 . S
C469 C465 1.495 . S
C469 H475 0.959 . S
C469 H476 0.961 . S
C469 H477 0.960 . S
C470 C468 1.381 . S
C470 C471 1.394 . S
C470 H478 0.930 . S
C471 C470 1.394 . S
C471 C472 1.383 . S
C471 H479 0.929 . S
C472 C471 1.383 . S
C472 C473 1.377 . S
C473 H457 0.930 . S
C473 C472 1.377 . S
C473 C474 1.379 . S
C474 H458 0.931 . S
C474 C468 1.383 . S
C474 C473 1.379 . S
H475 C469 0.959 . S
H476 C469 0.961 . S
H477 C469 0.960 . S
H478 C470 0.930 . S
H479 C471 0.929 . S
H480 C488 0.929 . S
H481 C490 0.930 . S
H482 C492 0.930 . S
H483 C495 0.929 . S
H484 C498 0.930 . S
H485 C500 0.960 . S
H486 C500 0.960 . S
H487 C500 0.960 . S
C488 H480 0.929 . S
C488 C489 1.377 . S
C488 C490 1.384 . S
C489 C488 1.377 . S
C489 C495 1.390 . S
C490 H481 0.930 . S
C490 C488 1.384 . S
C490 C491 1.372 . S
C491 C490 1.372 . S
C491 C492 1.400 . S
C491 C496 1.490 . S
C492 H482 0.930 . S
C492 C491 1.400 . S
C492 C495 1.386 . S
H493 C509 0.930 . S
H494 C510 0.931 . S
C495 H483 0.929 . S
C495 C489 1.390 . S
C495 C492 1.386 . S
C496 C491 1.490 . S
C496 C498 1.395 . S
C496 C499 1.403 . S
H497 C503 0.930 . S
C498 H484 0.930 . S
C498 C496 1.395 . S
C498 C501 1.403 . S
C499 C496 1.403 . S
C499 C500 1.524 . S
C499 C503 1.400 . S
C500 H485 0.960 . S
C500 H486 0.960 . S
C500 H487 0.960 . S
C500 C499 1.524 . S
C501 C498 1.403 . S
C501 C502 1.392 . S
C501 C505 1.495 . S
C502 C501 1.392 . S
C502 C503 1.385 . S
C502 C504 1.478 . S
C503 H497 0.930 . S
C503 C499 1.400 . S
C503 C502 1.385 . S
C504 C502 1.478 . S
C504 C506 1.381 . S
C504 C510 1.383 . S
C505 C501 1.495 . S
C505 H511 0.959 . S
C505 H512 0.961 . S
C505 H513 0.960 . S
C506 C504 1.381 . S
C506 C507 1.394 . S
C506 H514 0.930 . S
C507 C506 1.394 . S
C507 C508 1.383 . S
C507 H515 0.929 . S
C508 C507 1.383 . S
C508 C509 1.377 . S
C509 H493 0.930 . S
C509 C508 1.377 . S
C509 C510 1.379 . S
C510 H494 0.931 . S
C510 C504 1.383 . S
C510 C509 1.379 . S
H511 C505 0.959 . S
H512 C505 0.961 . S
H513 C505 0.960 . S
H514 C506 0.930 . S
H515 C507 0.929 . S
H516 C524 0.929 . S
H517 C526 0.930 . S
H518 C528 0.930 . S
H519 C531 0.929 . S
H520 C534 0.930 . S
H521 C536 0.960 . S
H522 C536 0.960 . S
H523 C536 0.960 . S
C524 H516 0.929 . S
C524 C525 1.377 . S
C524 C526 1.384 . S
C525 C524 1.377 . S
C525 C531 1.390 . S
C526 H517 0.930 . S
C526 C524 1.384 . S
C526 C527 1.372 . S
C527 C526 1.372 . S
C527 C528 1.400 . S
C527 C532 1.490 . S
C528 H518 0.930 . S
C528 C527 1.400 . S
C528 C531 1.386 . S
H529 C545 0.930 . S
H530 C546 0.931 . S
C531 H519 0.929 . S
C531 C525 1.390 . S
C531 C528 1.386 . S
C532 C527 1.490 . S
C532 C534 1.395 . S
C532 C535 1.403 . S
H533 C539 0.930 . S
C534 H520 0.930 . S
C534 C532 1.395 . S
C534 C537 1.403 1_655 S
C535 C532 1.403 . S
C535 C536 1.524 . S
C535 C539 1.400 1_655 S
C536 H521 0.960 . S
C536 H522 0.960 . S
C536 H523 0.960 . S
C536 C535 1.524 . S
C537 C534 1.403 1_455 S
C537 C538 1.392 . S
C537 C541 1.495 . S
C538 C537 1.392 . S
C538 C539 1.385 . S
C538 C540 1.478 . S
C539 H533 0.930 . S
C539 C535 1.400 1_455 S
C539 C538 1.385 . S
C540 C538 1.478 . S
C540 C542 1.381 . S
C540 C546 1.383 . S
C541 C537 1.495 . S
C541 H547 0.959 . S
C541 H548 0.961 . S
C541 H549 0.960 . S
C542 C540 1.381 . S
C542 C543 1.394 . S
C542 H550 0.930 . S
C543 C542 1.394 . S
C543 C544 1.383 . S
C543 H551 0.929 . S
C544 C543 1.383 . S
C544 C545 1.377 . S
C545 H529 0.930 . S
C545 C544 1.377 . S
C545 C546 1.379 . S
C546 H530 0.931 . S
C546 C540 1.383 . S
C546 C545 1.379 . S
H547 C541 0.959 . S
H548 C541 0.961 . S
H549 C541 0.960 . S
H550 C542 0.930 . S
H551 C543 0.929 . S
H552 C560 0.929 . S
H553 C562 0.930 . S
H554 C564 0.930 . S
H555 C567 0.929 . S
H556 C570 0.930 . S
H557 C572 0.960 . S
H558 C572 0.960 . S
H559 C572 0.960 . S
C560 H552 0.929 . S
C560 C561 1.377 . S
C560 C562 1.384 . S
C561 C560 1.377 . S
C561 C567 1.390 . S
C562 H553 0.930 . S
C562 C560 1.384 . S
C562 C563 1.372 . S
C563 C562 1.372 . S
C563 C564 1.400 . S
C563 C568 1.490 . S
C564 H554 0.930 . S
C564 C563 1.400 . S
C564 C567 1.386 . S
H565 C581 0.930 . S
H566 C582 0.931 . S
C567 H555 0.929 . S
C567 C561 1.390 . S
C567 C564 1.386 . S
C568 C563 1.490 . S
C568 C570 1.395 . S
C568 C571 1.403 . S
H569 C575 0.930 . S
C570 H556 0.930 . S
C570 C568 1.395 . S
C570 C573 1.403 . S
C571 C568 1.403 . S
C571 C572 1.524 . S
C571 C575 1.400 . S
C572 H557 0.960 . S
C572 H558 0.960 . S
C572 H559 0.960 . S
C572 C571 1.524 . S
C573 C570 1.403 . S
C573 C574 1.392 . S
C573 C577 1.495 . S
C574 C573 1.392 . S
C574 C575 1.385 . S
C574 C576 1.478 . S
C575 H569 0.930 . S
C575 C571 1.400 . S
C575 C574 1.385 . S
C576 C574 1.478 . S
C576 C578 1.381 . S
C576 C582 1.383 . S
C577 C573 1.495 . S
C577 H583 0.959 . S
C577 H584 0.961 . S
C577 H585 0.960 . S
C578 C576 1.381 . S
C578 C579 1.394 . S
C578 H586 0.930 . S
C579 C578 1.394 . S
C579 C580 1.383 . S
C579 H587 0.929 . S
C580 C579 1.383 . S
C580 C581 1.377 . S
C581 H565 0.930 . S
C581 C580 1.377 . S
C581 C582 1.379 . S
C582 H566 0.931 . S
C582 C576 1.383 . S
C582 C581 1.379 . S
H583 C577 0.959 . S
H584 C577 0.961 . S
H585 C577 0.960 . S
H586 C578 0.930 . S
H587 C579 0.929 . S
H588 C596 0.929 . S
H589 C598 0.930 . S
H590 C600 0.930 . S
H591 C603 0.929 . S
H592 C606 0.930 . S
H593 C608 0.960 . S
H594 C608 0.960 . S
H595 C608 0.960 . S
C596 H588 0.929 . S
C596 C597 1.377 . S
C596 C598 1.384 . S
C597 C596 1.377 . S
C597 C603 1.390 . S
C598 H589 0.930 . S
C598 C596 1.384 . S
C598 C599 1.372 . S
C599 C598 1.372 . S
C599 C600 1.400 . S
C599 C604 1.490 . S
C600 H590 0.930 . S
C600 C599 1.400 . S
C600 C603 1.386 . S
H601 C617 0.930 . S
H602 C618 0.931 . S
C603 H591 0.929 . S
C603 C597 1.390 . S
C603 C600 1.386 . S
C604 C599 1.490 . S
C604 C606 1.395 . S
C604 C607 1.403 . S
H605 C611 0.930 . S
C606 H592 0.930 . S
C606 C604 1.395 . S
C606 C609 1.403 1_655 S
C607 C604 1.403 . S
C607 C608 1.524 . S
C607 C611 1.400 1_655 S
C608 H593 0.960 . S
C608 H594 0.960 . S
C608 H595 0.960 . S
C608 C607 1.524 . S
C609 C606 1.403 1_455 S
C609 C610 1.392 . S
C609 C613 1.495 . S
C610 C609 1.392 . S
C610 C611 1.385 . S
C610 C612 1.478 . S
C611 H605 0.930 . S
C611 C607 1.400 1_455 S
C611 C610 1.385 . S
C612 C610 1.478 . S
C612 C614 1.381 . S
C612 C618 1.383 . S
C613 C609 1.495 . S
C613 H619 0.959 . S
C613 H620 0.961 . S
C613 H621 0.960 . S
C614 C612 1.381 . S
C614 C615 1.394 . S
C614 H622 0.930 . S
C615 C614 1.394 . S
C615 C616 1.383 . S
C615 H623 0.929 . S
C616 C615 1.383 . S
C616 C617 1.377 . S
C617 H601 0.930 . S
C617 C616 1.377 . S
C617 C618 1.379 . S
C618 H602 0.931 . S
C618 C612 1.383 . S
C618 C617 1.379 . S
H619 C613 0.959 . S
H620 C613 0.961 . S
H621 C613 0.960 . S
H622 C614 0.930 . S
H623 C615 0.929 . S
H624 C632 0.929 . S
H625 C634 0.930 . S
H626 C636 0.930 . S
H627 C639 0.929 . S
H628 C642 0.930 . S
H629 C644 0.960 . S
H630 C644 0.960 . S
H631 C644 0.960 . S
C632 H624 0.929 . S
C632 C633 1.377 . S
C632 C634 1.384 . S
C633 C632 1.377 . S
C633 C639 1.390 . S
C634 H625 0.930 . S
C634 C632 1.384 . S
C634 C635 1.372 . S
C635 C634 1.372 . S
C635 C636 1.400 . S
C635 C640 1.490 . S
C636 H626 0.930 . S
C636 C635 1.400 . S
C636 C639 1.386 . S
H637 C653 0.930 . S
H638 C654 0.931 . S
C639 H627 0.929 . S
C639 C633 1.390 . S
C639 C636 1.386 . S
C640 C635 1.490 . S
C640 C642 1.395 . S
C640 C643 1.403 . S
H641 C647 0.930 . S
C642 H628 0.930 . S
C642 C640 1.395 . S
C642 C645 1.403 . S
C643 C640 1.403 . S
C643 C644 1.524 . S
C643 C647 1.400 . S
C644 H629 0.960 . S
C644 H630 0.960 . S
C644 H631 0.960 . S
C644 C643 1.524 . S
C645 C642 1.403 . S
C645 C646 1.392 . S
C645 C649 1.495 . S
C646 C645 1.392 . S
C646 C647 1.385 . S
C646 C648 1.478 . S
C647 H641 0.930 . S
C647 C643 1.400 . S
C647 C646 1.385 . S
C648 C646 1.478 . S
C648 C650 1.381 . S
C648 C654 1.383 . S
C649 C645 1.495 . S
C649 H655 0.959 . S
C649 H656 0.961 . S
C649 H657 0.960 . S
C650 C648 1.381 . S
C650 C651 1.394 . S
C650 H658 0.930 . S
C651 C650 1.394 . S
C651 C652 1.383 . S
C651 H659 0.929 . S
C652 C651 1.383 . S
C652 C653 1.377 . S
C653 H637 0.930 . S
C653 C652 1.377 . S
C653 C654 1.379 . S
C654 H638 0.931 . S
C654 C648 1.383 . S
C654 C653 1.379 . S
H655 C649 0.959 . S
H656 C649 0.961 . S
H657 C649 0.960 . S
H658 C650 0.930 . S
H659 C651 0.929 . S
H660 C668 0.929 . S
H661 C670 0.930 . S
H662 C672 0.930 . S
H663 C675 0.929 . S
H664 C678 0.930 . S
H665 C680 0.960 . S
H666 C680 0.960 . S
H667 C680 0.960 . S
C668 H660 0.929 . S
C668 C669 1.377 . S
C668 C670 1.384 . S
C669 C668 1.377 . S
C669 C675 1.390 . S
C670 H661 0.930 . S
C670 C668 1.384 . S
C670 C671 1.372 . S
C671 C670 1.372 . S
C671 C672 1.400 . S
C671 C676 1.490 . S
C672 H662 0.930 . S
C672 C671 1.400 . S
C672 C675 1.386 . S
H673 C689 0.930 . S
H674 C690 0.931 . S
C675 H663 0.929 . S
C675 C669 1.390 . S
C675 C672 1.386 . S
C676 C671 1.490 . S
C676 C678 1.395 . S
C676 C679 1.403 . S
H677 C683 0.930 . S
C678 H664 0.930 . S
C678 C676 1.395 . S
C678 C681 1.403 1_556 S
C679 C676 1.403 . S
C679 C680 1.524 . S
C679 C683 1.400 1_556 S
C680 H665 0.960 . S
C680 H666 0.960 . S
C680 H667 0.960 . S
C680 C679 1.524 . S
C681 C678 1.403 1_554 S
C681 C682 1.392 . S
C681 C685 1.495 . S
C682 C681 1.392 . S
C682 C683 1.385 . S
C682 C684 1.478 . S
C683 H677 0.930 . S
C683 C679 1.400 1_554 S
C683 C682 1.385 . S
C684 C682 1.478 . S
C684 C686 1.381 . S
C684 C690 1.383 . S
C685 C681 1.495 . S
C685 H691 0.959 . S
C685 H692 0.961 . S
C685 H693 0.960 . S
C686 C684 1.381 . S
C686 C687 1.394 . S
C686 H694 0.930 . S
C687 C686 1.394 . S
C687 C688 1.383 . S
C687 H695 0.929 . S
C688 C687 1.383 . S
C688 C689 1.377 . S
C689 H673 0.930 . S
C689 C688 1.377 . S
C689 C690 1.379 . S
C690 H674 0.931 . S
C690 C684 1.383 . S
C690 C689 1.379 . S
H691 C685 0.959 . S
H692 C685 0.961 . S
H693 C685 0.960 . S
H694 C686 0.930 . S
H695 C687 0.929 . S
H696 C704 0.929 . S
H697 C706 0.930 . S
H698 C708 0.930 . S
H699 C711 0.929 . S
H700 C714 0.930 . S
H701 C716 0.960 . S
H702 C716 0.960 . S
H703 C716 0.960 . S
C704 H696 0.929 . S
C704 C705 1.377 . S
C704 C706 1.384 . S
C705 C704 1.377 . S
C705 C711 1.390 . S
C706 H697 0.930 . S
C706 C704 1.384 . S
C706 C707 1.372 . S
C707 C706 1.372 . S
C707 C708 1.400 . S
C707 C712 1.490 . S
C708 H698 0.930 . S
C708 C707 1.400 . S
C708 C711 1.386 . S
H709 C725 0.930 . S
H710 C726 0.931 . S
C711 H699 0.929 . S
C711 C705 1.390 . S
C711 C708 1.386 . S
C712 C707 1.490 . S
C712 C714 1.395 . S
C712 C715 1.403 . S
H713 C719 0.930 . S
C714 H700 0.930 . S
C714 C712 1.395 . S
C714 C717 1.403 . S
C715 C712 1.403 . S
C715 C716 1.524 . S
C715 C719 1.400 . S
C716 H701 0.960 . S
C716 H702 0.960 . S
C716 H703 0.960 . S
C716 C715 1.524 . S
C717 C714 1.403 . S
C717 C718 1.392 . S
C717 C721 1.495 . S
C718 C717 1.392 . S
C718 C719 1.385 . S
C718 C720 1.478 . S
C719 H713 0.930 . S
C719 C715 1.400 . S
C719 C718 1.385 . S
C720 C718 1.478 . S
C720 C722 1.381 . S
C720 C726 1.383 . S
C721 C717 1.495 . S
C721 H727 0.959 . S
C721 H728 0.961 . S
C721 H729 0.960 . S
C722 C720 1.381 . S
C722 C723 1.394 . S
C722 H730 0.930 . S
C723 C722 1.394 . S
C723 C724 1.383 . S
C723 H731 0.929 . S
C724 C723 1.383 . S
C724 C725 1.377 . S
C725 H709 0.930 . S
C725 C724 1.377 . S
C725 C726 1.379 . S
C726 H710 0.931 . S
C726 C720 1.383 . S
C726 C725 1.379 . S
H727 C721 0.959 . S
H728 C721 0.961 . S
H729 C721 0.960 . S
H730 C722 0.930 . S
H731 C723 0.929 . S
H732 C740 0.929 . S
H733 C742 0.930 . S
H734 C744 0.930 . S
H735 C747 0.929 . S
H736 C750 0.930 . S
H737 C752 0.960 . S
H738 C752 0.960 . S
H739 C752 0.960 . S
C740 H732 0.929 . S
C740 C741 1.377 . S
C740 C742 1.384 . S
C741 C740 1.377 . S
C741 C747 1.390 . S
C742 H733 0.930 . S
C742 C740 1.384 . S
C742 C743 1.372 . S
C743 C742 1.372 . S
C743 C744 1.400 . S
C743 C748 1.490 . S
C744 H734 0.930 . S
C744 C743 1.400 . S
C744 C747 1.386 . S
H745 C761 0.930 . S
H746 C762 0.931 . S
C747 H735 0.929 . S
C747 C741 1.390 . S
C747 C744 1.386 . S
C748 C743 1.490 . S
C748 C750 1.395 . S
C748 C751 1.403 . S
H749 C755 0.930 . S
C750 H736 0.930 . S
C750 C748 1.395 . S
C750 C753 1.403 1_554 S
C751 C748 1.403 . S
C751 C752 1.524 . S
C751 C755 1.400 1_554 S
C752 H737 0.960 . S
C752 H738 0.960 . S
C752 H739 0.960 . S
C752 C751 1.524 . S
C753 C750 1.403 1_556 S
C753 C754 1.392 . S
C753 C757 1.495 . S
C754 C753 1.392 . S
C754 C755 1.385 . S
C754 C756 1.478 . S
C755 H749 0.930 . S
C755 C751 1.400 1_556 S
C755 C754 1.385 . S
C756 C754 1.478 . S
C756 C758 1.381 . S
C756 C762 1.383 . S
C757 C753 1.495 . S
C757 H763 0.959 . S
C757 H764 0.961 . S
C757 H765 0.960 . S
C758 C756 1.381 . S
C758 C759 1.394 . S
C758 H766 0.930 . S
C759 C758 1.394 . S
C759 C760 1.383 . S
C759 H767 0.929 . S
C760 C759 1.383 . S
C760 C761 1.377 . S
C761 H745 0.930 . S
C761 C760 1.377 . S
C761 C762 1.379 . S
C762 H746 0.931 . S
C762 C756 1.383 . S
C762 C761 1.379 . S
H763 C757 0.959 . S
H764 C757 0.961 . S
H765 C757 0.960 . S
H766 C758 0.930 . S
H767 C759 0.929 . S
H768 C776 0.929 . S
H769 C778 0.930 . S
H770 C780 0.930 . S
H771 C783 0.929 . S
H772 C786 0.930 . S
H773 C788 0.960 . S
H774 C788 0.960 . S
H775 C788 0.960 . S
C776 H768 0.929 . S
C776 C777 1.377 . S
C776 C778 1.384 . S
C777 C776 1.377 . S
C777 C783 1.390 . S
C778 H769 0.930 . S
C778 C776 1.384 . S
C778 C779 1.372 . S
C779 C778 1.372 . S
C779 C780 1.400 . S
C779 C784 1.490 . S
C780 H770 0.930 . S
C780 C779 1.400 . S
C780 C783 1.386 . S
H781 C797 0.930 . S
H782 C798 0.931 . S
C783 H771 0.929 . S
C783 C777 1.390 . S
C783 C780 1.386 . S
C784 C779 1.490 . S
C784 C786 1.395 . S
C784 C787 1.403 . S
H785 C791 0.930 . S
C786 H772 0.930 . S
C786 C784 1.395 . S
C786 C789 1.403 . S
C787 C784 1.403 . S
C787 C788 1.524 . S
C787 C791 1.400 . S
C788 H773 0.960 . S
C788 H774 0.960 . S
C788 H775 0.960 . S
C788 C787 1.524 . S
C789 C786 1.403 . S
C789 C790 1.392 . S
C789 C793 1.495 . S
C790 C789 1.392 . S
C790 C791 1.385 . S
C790 C792 1.478 . S
C791 H785 0.930 . S
C791 C787 1.400 . S
C791 C790 1.385 . S
C792 C790 1.478 . S
C792 C794 1.381 . S
C792 C798 1.383 . S
C793 C789 1.495 . S
C793 H799 0.959 . S
C793 H800 0.961 . S
C793 H801 0.960 . S
C794 C792 1.381 . S
C794 C795 1.394 . S
C794 H802 0.930 . S
C795 C794 1.394 . S
C795 C796 1.383 . S
C795 H803 0.929 . S
C796 C795 1.383 . S
C796 C797 1.377 . S
C797 H781 0.930 . S
C797 C796 1.377 . S
C797 C798 1.379 . S
C798 H782 0.931 . S
C798 C792 1.383 . S
C798 C797 1.379 . S
H799 C793 0.959 . S
H800 C793 0.961 . S
H801 C793 0.960 . S
H802 C794 0.930 . S
H803 C795 0.929 . S
H804 C812 0.929 . S
H805 C814 0.930 . S
H806 C816 0.930 . S
H807 C819 0.929 . S
H808 C822 0.930 . S
H809 C824 0.960 . S
H810 C824 0.960 . S
H811 C824 0.960 . S
C812 H804 0.929 . S
C812 C813 1.377 . S
C812 C814 1.384 . S
C813 C812 1.377 . S
C813 C819 1.390 . S
C814 H805 0.930 . S
C814 C812 1.384 . S
C814 C815 1.372 . S
C815 C814 1.372 . S
C815 C816 1.400 . S
C815 C820 1.490 . S
C816 H806 0.930 . S
C816 C815 1.400 . S
C816 C819 1.386 . S
H817 C833 0.930 . S
H818 C834 0.931 . S
C819 H807 0.929 . S
C819 C813 1.390 . S
C819 C816 1.386 . S
C820 C815 1.490 . S
C820 C822 1.395 . S
C820 C823 1.403 . S
H821 C827 0.930 . S
C822 H808 0.930 . S
C822 C820 1.395 . S
C822 C825 1.403 1_554 S
C823 C820 1.403 . S
C823 C824 1.524 . S
C823 C827 1.400 1_554 S
C824 H809 0.960 . S
C824 H810 0.960 . S
C824 H811 0.960 . S
C824 C823 1.524 . S
C825 C822 1.403 1_556 S
C825 C826 1.392 . S
C825 C829 1.495 . S
C826 C825 1.392 . S
C826 C827 1.385 . S
C826 C828 1.478 . S
C827 H821 0.930 . S
C827 C823 1.400 1_556 S
C827 C826 1.385 . S
C828 C826 1.478 . S
C828 C830 1.381 . S
C828 C834 1.383 . S
C829 C825 1.495 . S
C829 H835 0.959 . S
C829 H836 0.961 . S
C829 H837 0.960 . S
C830 C828 1.381 . S
C830 C831 1.394 . S
C830 H838 0.930 . S
C831 C830 1.394 . S
C831 C832 1.383 . S
C831 H839 0.929 . S
C832 C831 1.383 . S
C832 C833 1.377 . S
C833 H817 0.930 . S
C833 C832 1.377 . S
C833 C834 1.379 . S
C834 H818 0.931 . S
C834 C828 1.383 . S
C834 C833 1.379 . S
H835 C829 0.959 . S
H836 C829 0.961 . S
H837 C829 0.960 . S
H838 C830 0.930 . S
H839 C831 0.929 . S
H840 C848 0.929 . S
H841 C850 0.930 . S
H842 C852 0.930 . S
H843 C855 0.929 . S
H844 C858 0.930 . S
H845 C860 0.960 . S
H846 C860 0.960 . S
H847 C860 0.960 . S
C848 H840 0.929 . S
C848 C849 1.377 . S
C848 C850 1.384 . S
C849 C848 1.377 . S
C849 C855 1.390 . S
C850 H841 0.930 . S
C850 C848 1.384 . S
C850 C851 1.372 . S
C851 C850 1.372 . S
C851 C852 1.400 . S
C851 C856 1.490 . S
C852 H842 0.930 . S
C852 C851 1.400 . S
C852 C855 1.386 . S
H853 C869 0.930 . S
H854 C870 0.931 . S
C855 H843 0.929 . S
C855 C849 1.390 . S
C855 C852 1.386 . S
C856 C851 1.490 . S
C856 C858 1.395 . S
C856 C859 1.403 . S
H857 C863 0.930 . S
C858 H844 0.930 . S
C858 C856 1.395 . S
C858 C861 1.403 . S
C859 C856 1.403 . S
C859 C860 1.524 . S
C859 C863 1.400 . S
C860 H845 0.960 . S
C860 H846 0.960 . S
C860 H847 0.960 . S
C860 C859 1.524 . S
C861 C858 1.403 . S
C861 C862 1.392 . S
C861 C865 1.495 . S
C862 C861 1.392 . S
C862 C863 1.385 . S
C862 C864 1.478 . S
C863 H857 0.930 . S
C863 C859 1.400 . S
C863 C862 1.385 . S
C864 C862 1.478 . S
C864 C866 1.381 . S
C864 C870 1.383 . S
C865 C861 1.495 . S
C865 H871 0.959 . S
C865 H872 0.961 . S
C865 H873 0.960 . S
C866 C864 1.381 . S
C866 C867 1.394 . S
C866 H874 0.930 . S
C867 C866 1.394 . S
C867 C868 1.383 . S
C867 H875 0.929 . S
C868 C867 1.383 . S
C868 C869 1.377 . S
C869 H853 0.930 . S
C869 C868 1.377 . S
C869 C870 1.379 . S
C870 H854 0.931 . S
C870 C864 1.383 . S
C870 C869 1.379 . S
H871 C865 0.959 . S
H872 C865 0.961 . S
H873 C865 0.960 . S
H874 C866 0.930 . S
H875 C867 0.929 . S
H876 C884 0.929 . S
H877 C886 0.930 . S
H878 C888 0.930 . S
H879 C891 0.929 . S
H880 C894 0.930 . S
H881 C896 0.960 . S
H882 C896 0.960 . S
H883 C896 0.960 . S
C884 H876 0.929 . S
C884 C885 1.377 . S
C884 C886 1.384 . S
C885 C884 1.377 . S
C885 C891 1.390 . S
C886 H877 0.930 . S
C886 C884 1.384 . S
C886 C887 1.372 . S
C887 C886 1.372 . S
C887 C888 1.400 . S
C887 C892 1.490 . S
C888 H878 0.930 . S
C888 C887 1.400 . S
C888 C891 1.386 . S
H889 C905 0.930 . S
H890 C906 0.931 . S
C891 H879 0.929 . S
C891 C885 1.390 . S
C891 C888 1.386 . S
C892 C887 1.490 . S
C892 C894 1.395 . S
C892 C895 1.403 . S
H893 C899 0.930 . S
C894 H880 0.930 . S
C894 C892 1.395 . S
C894 C897 1.403 1_554 S
C895 C892 1.403 . S
C895 C896 1.524 . S
C895 C899 1.400 1_554 S
C896 H881 0.960 . S
C896 H882 0.960 . S
C896 H883 0.960 . S
C896 C895 1.524 . S
C897 C894 1.403 1_556 S
C897 C898 1.392 . S
C897 C901 1.495 . S
C898 C897 1.392 . S
C898 C899 1.385 . S
C898 C900 1.478 . S
C899 H893 0.930 . S
C899 C895 1.400 1_556 S
C899 C898 1.385 . S
C900 C898 1.478 . S
C900 C902 1.381 . S
C900 C906 1.383 . S
C901 C897 1.495 . S
C901 H907 0.959 . S
C901 H908 0.961 . S
C901 H909 0.960 . S
C902 C900 1.381 . S
C902 C903 1.394 . S
C902 H910 0.930 . S
C903 C902 1.394 . S
C903 C904 1.383 . S
C903 H911 0.929 . S
C904 C903 1.383 . S
C904 C905 1.377 . S
C905 H889 0.930 . S
C905 C904 1.377 . S
C905 C906 1.379 . S
C906 H890 0.931 . S
C906 C900 1.383 . S
C906 C905 1.379 . S
H907 C901 0.959 . S
H908 C901 0.961 . S
H909 C901 0.960 . S
H910 C902 0.930 . S
H911 C903 0.929 . S
H912 C920 0.929 . S
H913 C922 0.930 . S
H914 C924 0.930 . S
H915 C927 0.929 . S
H916 C930 0.930 . S
H917 C932 0.960 . S
H918 C932 0.960 . S
H919 C932 0.960 . S
C920 H912 0.929 . S
C920 C921 1.377 . S
C920 C922 1.384 . S
C921 C920 1.377 . S
C921 C927 1.390 . S
C922 H913 0.930 . S
C922 C920 1.384 . S
C922 C923 1.372 . S
C923 C922 1.372 . S
C923 C924 1.400 . S
C923 C928 1.490 . S
C924 H914 0.930 . S
C924 C923 1.400 . S
C924 C927 1.386 . S
H925 C941 0.930 . S
H926 C942 0.931 . S
C927 H915 0.929 . S
C927 C921 1.390 . S
C927 C924 1.386 . S
C928 C923 1.490 . S
C928 C930 1.395 . S
C928 C931 1.403 . S
H929 C935 0.930 . S
C930 H916 0.930 . S
C930 C928 1.395 . S
C930 C933 1.403 . S
C931 C928 1.403 . S
C931 C932 1.524 . S
C931 C935 1.400 . S
C932 H917 0.960 . S
C932 H918 0.960 . S
C932 H919 0.960 . S
C932 C931 1.524 . S
C933 C930 1.403 . S
C933 C934 1.392 . S
C933 C937 1.495 . S
C934 C933 1.392 . S
C934 C935 1.385 . S
C934 C936 1.478 . S
C935 H929 0.930 . S
C935 C931 1.400 . S
C935 C934 1.385 . S
C936 C934 1.478 . S
C936 C938 1.381 . S
C936 C942 1.383 . S
C937 C933 1.495 . S
C937 H943 0.959 . S
C937 H944 0.961 . S
C937 H945 0.960 . S
C938 C936 1.381 . S
C938 C939 1.394 . S
C938 H946 0.930 . S
C939 C938 1.394 . S
C939 C940 1.383 . S
C939 H947 0.929 . S
C940 C939 1.383 . S
C940 C941 1.377 . S
C941 H925 0.930 . S
C941 C940 1.377 . S
C941 C942 1.379 . S
C942 H926 0.931 . S
C942 C936 1.383 . S
C942 C941 1.379 . S
H943 C937 0.959 . S
H944 C937 0.961 . S
H945 C937 0.960 . S
H946 C938 0.930 . S
H947 C939 0.929 . S
H948 C956 0.929 . S
H949 C958 0.930 . S
H950 C960 0.930 . S
H951 C963 0.929 . S
H952 C966 0.930 . S
H953 C968 0.960 . S
H954 C968 0.960 . S
H955 C968 0.960 . S
C956 H948 0.929 . S
C956 C957 1.377 . S
C956 C958 1.384 . S
C957 C956 1.377 . S
C957 C963 1.390 . S
C958 H949 0.930 . S
C958 C956 1.384 . S
C958 C959 1.372 . S
C959 C958 1.372 . S
C959 C960 1.400 . S
C959 C964 1.490 . S
C960 H950 0.930 . S
C960 C959 1.400 . S
C960 C963 1.386 . S
H961 C977 0.930 . S
H962 C978 0.931 . S
C963 H951 0.929 . S
C963 C957 1.390 . S
C963 C960 1.386 . S
C964 C959 1.490 . S
C964 C966 1.395 . S
C964 C967 1.403 . S
H965 C971 0.930 . S
C966 H952 0.930 . S
C966 C964 1.395 . S
C966 C969 1.403 . S
C967 C964 1.403 . S
C967 C968 1.524 . S
C967 C971 1.400 . S
C968 H953 0.960 . S
C968 H954 0.960 . S
C968 H955 0.960 . S
C968 C967 1.524 . S
C969 C966 1.403 . S
C969 C970 1.392 . S
C969 C973 1.495 . S
C970 C969 1.392 . S
C970 C971 1.385 . S
C970 C972 1.478 . S
C971 H965 0.930 . S
C971 C967 1.400 . S
C971 C970 1.385 . S
C972 C970 1.478 . S
C972 C974 1.381 . S
C972 C978 1.383 . S
C973 C969 1.495 . S
C973 H979 0.959 . S
C973 H980 0.961 . S
C973 H981 0.960 . S
C974 C972 1.381 . S
C974 C975 1.394 . S
C974 H982 0.930 . S
C975 C974 1.394 . S
C975 C976 1.383 . S
C975 H983 0.929 . S
C976 C975 1.383 . S
C976 C977 1.377 . S
C977 H961 0.930 . S
C977 C976 1.377 . S
C977 C978 1.379 . S
C978 H962 0.931 . S
C978 C972 1.383 . S
C978 C977 1.379 . S
H979 C973 0.959 . S
H980 C973 0.961 . S
H981 C973 0.960 . S
H982 C974 0.930 . S
H983 C975 0.929 . S
H984 C992 0.929 . S
H985 C994 0.930 . S
H986 C996 0.930 . S
H987 C999 0.929 . S
H988 C1002 0.930 . S
H989 C1004 0.960 . S
H990 C1004 0.960 . S
H991 C1004 0.960 . S
C992 H984 0.929 . S
C992 C993 1.377 . S
C992 C994 1.384 . S
C993 C992 1.377 . S
C993 C999 1.390 . S
C994 H985 0.930 . S
C994 C992 1.384 . S
C994 C995 1.372 . S
C995 C994 1.372 . S
C995 C996 1.400 . S
C995 C1000 1.490 . S
C996 H986 0.930 . S
C996 C995 1.400 . S
C996 C999 1.386 . S
H997 C1013 0.930 . S
H998 C1014 0.931 . S
C999 H987 0.929 . S
C999 C993 1.390 . S
C999 C996 1.386 . S
C1000 C995 1.490 . S
C1000 C1002 1.395 . S
C1000 C1003 1.403 . S
H1001 C1007 0.930 . S
C1002 H988 0.930 . S
C1002 C1000 1.395 . S
C1002 C1005 1.403 1_565 S
C1003 C1000 1.403 . S
C1003 C1004 1.524 . S
C1003 C1007 1.400 1_565 S
C1004 H989 0.960 . S
C1004 H990 0.960 . S
C1004 H991 0.960 . S
C1004 C1003 1.524 . S
C1005 C1002 1.403 1_545 S
C1005 C1006 1.392 . S
C1005 C1009 1.495 . S
C1006 C1005 1.392 . S
C1006 C1007 1.385 . S
C1006 C1008 1.478 . S
C1007 H1001 0.930 . S
C1007 C1003 1.400 1_545 S
C1007 C1006 1.385 . S
C1008 C1006 1.478 . S
C1008 C1010 1.381 . S
C1008 C1014 1.383 . S
C1009 C1005 1.495 . S
C1009 H1015 0.959 . S
C1009 H1016 0.961 . S
C1009 H1017 0.960 . S
C1010 C1008 1.381 . S
C1010 C1011 1.394 . S
C1010 H1018 0.930 . S
C1011 C1010 1.394 . S
C1011 C1012 1.383 . S
C1011 H1019 0.929 . S
C1012 C1011 1.383 . S
C1012 C1013 1.377 . S
C1013 H997 0.930 . S
C1013 C1012 1.377 . S
C1013 C1014 1.379 . S
C1014 H998 0.931 . S
C1014 C1008 1.383 . S
C1014 C1013 1.379 . S
H1015 C1009 0.959 . S
H1016 C1009 0.961 . S
H1017 C1009 0.960 . S
H1018 C1010 0.930 . S
H1019 C1011 0.929 . S
H1020 C1028 0.929 . S
H1021 C1030 0.930 . S
H1022 C1032 0.930 . S
H1023 C1035 0.929 . S
H1024 C1038 0.930 . S
H1025 C1040 0.960 . S
H1026 C1040 0.960 . S
H1027 C1040 0.960 . S
C1028 H1020 0.929 . S
C1028 C1029 1.377 . S
C1028 C1030 1.384 . S
C1029 C1028 1.377 . S
C1029 C1035 1.390 . S
C1030 H1021 0.930 . S
C1030 C1028 1.384 . S
C1030 C1031 1.372 . S
C1031 C1030 1.372 . S
C1031 C1032 1.400 . S
C1031 C1036 1.490 . S
C1032 H1022 0.930 . S
C1032 C1031 1.400 . S
C1032 C1035 1.386 . S
H1033 C1049 0.930 . S
H1034 C1050 0.931 . S
C1035 H1023 0.929 . S
C1035 C1029 1.390 . S
C1035 C1032 1.386 . S
C1036 C1031 1.490 . S
C1036 C1038 1.395 . S
C1036 C1039 1.403 . S
H1037 C1043 0.930 . S
C1038 H1024 0.930 . S
C1038 C1036 1.395 . S
C1038 C1041 1.403 . S
C1039 C1036 1.403 . S
C1039 C1040 1.524 . S
C1039 C1043 1.400 . S
C1040 H1025 0.960 . S
C1040 H1026 0.960 . S
C1040 H1027 0.960 . S
C1040 C1039 1.524 . S
C1041 C1038 1.403 . S
C1041 C1042 1.392 . S
C1041 C1045 1.495 . S
C1042 C1041 1.392 . S
C1042 C1043 1.385 . S
C1042 C1044 1.478 . S
C1043 H1037 0.930 . S
C1043 C1039 1.400 . S
C1043 C1042 1.385 . S
C1044 C1042 1.478 . S
C1044 C1046 1.381 . S
C1044 C1050 1.383 . S
C1045 C1041 1.495 . S
C1045 H1051 0.959 . S
C1045 H1052 0.961 . S
C1045 H1053 0.960 . S
C1046 C1044 1.381 . S
C1046 C1047 1.394 . S
C1046 H1054 0.930 . S
C1047 C1046 1.394 . S
C1047 C1048 1.383 . S
C1047 H1055 0.929 . S
C1048 C1047 1.383 . S
C1048 C1049 1.377 . S
C1049 H1033 0.930 . S
C1049 C1048 1.377 . S
C1049 C1050 1.379 . S
C1050 H1034 0.931 . S
C1050 C1044 1.383 . S
C1050 C1049 1.379 . S
H1051 C1045 0.959 . S
H1052 C1045 0.961 . S
H1053 C1045 0.960 . S
H1054 C1046 0.930 . S
H1055 C1047 0.929 . S
H1056 C1064 0.929 . S
H1057 C1066 0.930 . S
H1058 C1068 0.930 . S
H1059 C1071 0.929 . S
H1060 C1074 0.930 . S
H1061 C1076 0.960 . S
H1062 C1076 0.960 . S
H1063 C1076 0.960 . S
C1064 H1056 0.929 . S
C1064 C1065 1.377 . S
C1064 C1066 1.384 . S
C1065 C1064 1.377 . S
C1065 C1071 1.390 . S
C1066 H1057 0.930 . S
C1066 C1064 1.384 . S
C1066 C1067 1.372 . S
C1067 C1066 1.372 . S
C1067 C1068 1.400 . S
C1067 C1072 1.490 . S
C1068 H1058 0.930 . S
C1068 C1067 1.400 . S
C1068 C1071 1.386 . S
H1069 C1085 0.930 . S
H1070 C1086 0.931 . S
C1071 H1059 0.929 . S
C1071 C1065 1.390 . S
C1071 C1068 1.386 . S
C1072 C1067 1.490 . S
C1072 C1074 1.395 . S
C1072 C1075 1.403 . S
H1073 C1079 0.930 . S
C1074 H1060 0.930 . S
C1074 C1072 1.395 . S
C1074 C1077 1.403 1_565 S
C1075 C1072 1.403 . S
C1075 C1076 1.524 . S
C1075 C1079 1.400 1_565 S
C1076 H1061 0.960 . S
C1076 H1062 0.960 . S
C1076 H1063 0.960 . S
C1076 C1075 1.524 . S
C1077 C1074 1.403 1_545 S
C1077 C1078 1.392 . S
C1077 C1081 1.495 . S
C1078 C1077 1.392 . S
C1078 C1079 1.385 . S
C1078 C1080 1.478 . S
C1079 H1073 0.930 . S
C1079 C1075 1.400 1_545 S
C1079 C1078 1.385 . S
C1080 C1078 1.478 . S
C1080 C1082 1.381 . S
C1080 C1086 1.383 . S
C1081 C1077 1.495 . S
C1081 H1087 0.959 . S
C1081 H1088 0.961 . S
C1081 H1089 0.960 . S
C1082 C1080 1.381 . S
C1082 C1083 1.394 . S
C1082 H1090 0.930 . S
C1083 C1082 1.394 . S
C1083 C1084 1.383 . S
C1083 H1091 0.929 . S
C1084 C1083 1.383 . S
C1084 C1085 1.377 . S
C1085 H1069 0.930 . S
C1085 C1084 1.377 . S
C1085 C1086 1.379 . S
C1086 H1070 0.931 . S
C1086 C1080 1.383 . S
C1086 C1085 1.379 . S
H1087 C1081 0.959 . S
H1088 C1081 0.961 . S
H1089 C1081 0.960 . S
H1090 C1082 0.930 . S
H1091 C1083 0.929 . S
H1092 C1100 0.929 . S
H1093 C1102 0.930 . S
H1094 C1104 0.930 . S
H1095 C1107 0.929 . S
H1096 C1110 0.930 . S
H1097 C1112 0.960 . S
H1098 C1112 0.960 . S
H1099 C1112 0.960 . S
C1100 H1092 0.929 . S
C1100 C1101 1.377 . S
C1100 C1102 1.384 . S
C1101 C1100 1.377 . S
C1101 C1107 1.390 . S
C1102 H1093 0.930 . S
C1102 C1100 1.384 . S
C1102 C1103 1.372 . S
C1103 C1102 1.372 . S
C1103 C1104 1.400 . S
C1103 C1108 1.490 . S
C1104 H1094 0.930 . S
C1104 C1103 1.400 . S
C1104 C1107 1.386 . S
H1105 C1121 0.930 . S
H1106 C1122 0.931 . S
C1107 H1095 0.929 . S
C1107 C1101 1.390 . S
C1107 C1104 1.386 . S
C1108 C1103 1.490 . S
C1108 C1110 1.395 . S
C1108 C1111 1.403 . S
H1109 C1115 0.930 . S
C1110 H1096 0.930 . S
C1110 C1108 1.395 . S
C1110 C1113 1.403 . S
C1111 C1108 1.403 . S
C1111 C1112 1.524 . S
C1111 C1115 1.400 . S
C1112 H1097 0.960 . S
C1112 H1098 0.960 . S
C1112 H1099 0.960 . S
C1112 C1111 1.524 . S
C1113 C1110 1.403 . S
C1113 C1114 1.392 . S
C1113 C1117 1.495 . S
C1114 C1113 1.392 . S
C1114 C1115 1.385 . S
C1114 C1116 1.478 . S
C1115 H1109 0.930 . S
C1115 C1111 1.400 . S
C1115 C1114 1.385 . S
C1116 C1114 1.478 . S
C1116 C1118 1.381 . S
C1116 C1122 1.383 . S
C1117 C1113 1.495 . S
C1117 H1123 0.959 . S
C1117 H1124 0.961 . S
C1117 H1125 0.960 . S
C1118 C1116 1.381 . S
C1118 C1119 1.394 . S
C1118 H1126 0.930 . S
C1119 C1118 1.394 . S
C1119 C1120 1.383 . S
C1119 H1127 0.929 . S
C1120 C1119 1.383 . S
C1120 C1121 1.377 . S
C1121 H1105 0.930 . S
C1121 C1120 1.377 . S
C1121 C1122 1.379 . S
C1122 H1106 0.931 . S
C1122 C1116 1.383 . S
C1122 C1121 1.379 . S
H1123 C1117 0.959 . S
H1124 C1117 0.961 . S
H1125 C1117 0.960 . S
H1126 C1118 0.930 . S
H1127 C1119 0.929 . S
H1128 C1136 0.929 . S
H1129 C1138 0.930 . S
H1130 C1140 0.930 . S
H1131 C1143 0.929 . S
H1132 C1146 0.930 . S
H1133 C1148 0.960 . S
H1134 C1148 0.960 . S
H1135 C1148 0.960 . S
C1136 H1128 0.929 . S
C1136 C1137 1.377 . S
C1136 C1138 1.384 . S
C1137 C1136 1.377 . S
C1137 C1143 1.390 . S
C1138 H1129 0.930 . S
C1138 C1136 1.384 . S
C1138 C1139 1.372 . S
C1139 C1138 1.372 . S
C1139 C1140 1.400 . S
C1139 C1144 1.490 . S
C1140 H1130 0.930 . S
C1140 C1139 1.400 . S
C1140 C1143 1.386 . S
H1141 C1157 0.930 . S
H1142 C1158 0.931 . S
C1143 H1131 0.929 . S
C1143 C1137 1.390 . S
C1143 C1140 1.386 . S
C1144 C1139 1.490 . S
C1144 C1146 1.395 . S
C1144 C1147 1.403 . S
H1145 C1151 0.930 . S
C1146 H1132 0.930 . S
C1146 C1144 1.395 . S
C1146 C1149 1.403 1_565 S
C1147 C1144 1.403 . S
C1147 C1148 1.524 . S
C1147 C1151 1.400 1_565 S
C1148 H1133 0.960 . S
C1148 H1134 0.960 . S
C1148 H1135 0.960 . S
C1148 C1147 1.524 . S
C1149 C1146 1.403 1_545 S
C1149 C1150 1.392 . S
C1149 C1153 1.495 . S
C1150 C1149 1.392 . S
C1150 C1151 1.385 . S
C1150 C1152 1.478 . S
C1151 H1145 0.930 . S
C1151 C1147 1.400 1_545 S
C1151 C1150 1.385 . S
C1152 C1150 1.478 . S
C1152 C1154 1.381 . S
C1152 C1158 1.383 . S
C1153 C1149 1.495 . S
C1153 H1159 0.959 . S
C1153 H1160 0.961 . S
C1153 H1161 0.960 . S
C1154 C1152 1.381 . S
C1154 C1155 1.394 . S
C1154 H1162 0.930 . S
C1155 C1154 1.394 . S
C1155 C1156 1.383 . S
C1155 H1163 0.929 . S
C1156 C1155 1.383 . S
C1156 C1157 1.377 . S
C1157 H1141 0.930 . S
C1157 C1156 1.377 . S
C1157 C1158 1.379 . S
C1158 H1142 0.931 . S
C1158 C1152 1.383 . S
C1158 C1157 1.379 . S
H1159 C1153 0.959 . S
H1160 C1153 0.961 . S
H1161 C1153 0.960 . S
H1162 C1154 0.930 . S
H1163 C1155 0.929 . S
H1164 C1172 0.929 . S
H1165 C1174 0.930 . S
H1166 C1176 0.930 . S
H1167 C1179 0.929 . S
H1168 C1182 0.930 . S
H1169 C1184 0.960 . S
H1170 C1184 0.960 . S
H1171 C1184 0.960 . S
C1172 H1164 0.929 . S
C1172 C1173 1.377 . S
C1172 C1174 1.384 . S
C1173 C1172 1.377 . S
C1173 C1179 1.390 . S
C1174 H1165 0.930 . S
C1174 C1172 1.384 . S
C1174 C1175 1.372 . S
C1175 C1174 1.372 . S
C1175 C1176 1.400 . S
C1175 C1180 1.490 . S
C1176 H1166 0.930 . S
C1176 C1175 1.400 . S
C1176 C1179 1.386 . S
H1177 C1193 0.930 . S
H1178 C1194 0.931 . S
C1179 H1167 0.929 . S
C1179 C1173 1.390 . S
C1179 C1176 1.386 . S
C1180 C1175 1.490 . S
C1180 C1182 1.395 . S
C1180 C1183 1.403 . S
H1181 C1187 0.930 . S
C1182 H1168 0.930 . S
C1182 C1180 1.395 . S
C1182 C1185 1.403 1_545 S
C1183 C1180 1.403 . S
C1183 C1184 1.524 . S
C1183 C1187 1.400 1_545 S
C1184 H1169 0.960 . S
C1184 H1170 0.960 . S
C1184 H1171 0.960 . S
C1184 C1183 1.524 . S
C1185 C1182 1.403 1_565 S
C1185 C1186 1.392 . S
C1185 C1189 1.495 . S
C1186 C1185 1.392 . S
C1186 C1187 1.385 . S
C1186 C1188 1.478 . S
C1187 H1181 0.930 . S
C1187 C1183 1.400 1_565 S
C1187 C1186 1.385 . S
C1188 C1186 1.478 . S
C1188 C1190 1.381 . S
C1188 C1194 1.383 . S
C1189 C1185 1.495 . S
C1189 H1195 0.959 . S
C1189 H1196 0.961 . S
C1189 H1197 0.960 . S
C1190 C1188 1.381 . S
C1190 C1191 1.394 . S
C1190 H1198 0.930 . S
C1191 C1190 1.394 . S
C1191 C1192 1.383 . S
C1191 H1199 0.929 . S
C1192 C1191 1.383 . S
C1192 C1193 1.377 . S
C1193 H1177 0.930 . S
C1193 C1192 1.377 . S
C1193 C1194 1.379 . S
C1194 H1178 0.931 . S
C1194 C1188 1.383 . S
C1194 C1193 1.379 . S
H1195 C1189 0.959 . S
H1196 C1189 0.961 . S
H1197 C1189 0.960 . S
H1198 C1190 0.930 . S
H1199 C1191 0.929 . S
H1200 C1208 0.929 . S
H1201 C1210 0.930 . S
H1202 C1212 0.930 . S
H1203 C1215 0.929 . S
H1204 C1218 0.930 . S
H1205 C1220 0.960 . S
H1206 C1220 0.960 . S
H1207 C1220 0.960 . S
C1208 H1200 0.929 . S
C1208 C1209 1.377 . S
C1208 C1210 1.384 . S
C1209 C1208 1.377 . S
C1209 C1215 1.390 . S
C1210 H1201 0.930 . S
C1210 C1208 1.384 . S
C1210 C1211 1.372 . S
C1211 C1210 1.372 . S
C1211 C1212 1.400 . S
C1211 C1216 1.490 . S
C1212 H1202 0.930 . S
C1212 C1211 1.400 . S
C1212 C1215 1.386 . S
H1213 C1229 0.930 . S
H1214 C1230 0.931 . S
C1215 H1203 0.929 . S
C1215 C1209 1.390 . S
C1215 C1212 1.386 . S
C1216 C1211 1.490 . S
C1216 C1218 1.395 . S
C1216 C1219 1.403 . S
H1217 C1223 0.930 . S
C1218 H1204 0.930 . S
C1218 C1216 1.395 . S
C1218 C1221 1.403 . S
C1219 C1216 1.403 . S
C1219 C1220 1.524 . S
C1219 C1223 1.400 . S
C1220 H1205 0.960 . S
C1220 H1206 0.960 . S
C1220 H1207 0.960 . S
C1220 C1219 1.524 . S
C1221 C1218 1.403 . S
C1221 C1222 1.392 . S
C1221 C1225 1.495 . S
C1222 C1221 1.392 . S
C1222 C1223 1.385 . S
C1222 C1224 1.478 . S
C1223 H1217 0.930 . S
C1223 C1219 1.400 . S
C1223 C1222 1.385 . S
C1224 C1222 1.478 . S
C1224 C1226 1.381 . S
C1224 C1230 1.383 . S
C1225 C1221 1.495 . S
C1225 H1231 0.959 . S
C1225 H1232 0.961 . S
C1225 H1233 0.960 . S
C1226 C1224 1.381 . S
C1226 C1227 1.394 . S
C1226 H1234 0.930 . S
C1227 C1226 1.394 . S
C1227 C1228 1.383 . S
C1227 H1235 0.929 . S
C1228 C1227 1.383 . S
C1228 C1229 1.377 . S
C1229 H1213 0.930 . S
C1229 C1228 1.377 . S
C1229 C1230 1.379 . S
C1230 H1214 0.931 . S
C1230 C1224 1.383 . S
C1230 C1229 1.379 . S
H1231 C1225 0.959 . S
H1232 C1225 0.961 . S
H1233 C1225 0.960 . S
H1234 C1226 0.930 . S
H1235 C1227 0.929 . S
H1236 C1244 0.929 . S
H1237 C1246 0.930 . S
H1238 C1248 0.930 . S
H1239 C1251 0.929 . S
H1240 C1254 0.930 . S
H1241 C1256 0.960 . S
H1242 C1256 0.960 . S
H1243 C1256 0.960 . S
C1244 H1236 0.929 . S
C1244 C1245 1.377 . S
C1244 C1246 1.384 . S
C1245 C1244 1.377 . S
C1245 C1251 1.390 . S
C1246 H1237 0.930 . S
C1246 C1244 1.384 . S
C1246 C1247 1.372 . S
C1247 C1246 1.372 . S
C1247 C1248 1.400 . S
C1247 C1252 1.490 . S
C1248 H1238 0.930 . S
C1248 C1247 1.400 . S
C1248 C1251 1.386 . S
H1249 C1265 0.930 . S
H1250 C1266 0.931 . S
C1251 H1239 0.929 . S
C1251 C1245 1.390 . S
C1251 C1248 1.386 . S
C1252 C1247 1.490 . S
C1252 C1254 1.395 . S
C1252 C1255 1.403 . S
H1253 C1259 0.930 . S
C1254 H1240 0.930 . S
C1254 C1252 1.395 . S
C1254 C1257 1.403 . S
C1255 C1252 1.403 . S
C1255 C1256 1.524 . S
C1255 C1259 1.400 . S
C1256 H1241 0.960 . S
C1256 H1242 0.960 . S
C1256 H1243 0.960 . S
C1256 C1255 1.524 . S
C1257 C1254 1.403 . S
C1257 C1258 1.392 . S
C1257 C1261 1.495 . S
C1258 C1257 1.392 . S
C1258 C1259 1.385 . S
C1258 C1260 1.478 . S
C1259 H1253 0.930 . S
C1259 C1255 1.400 . S
C1259 C1258 1.385 . S
C1260 C1258 1.478 . S
C1260 C1262 1.381 . S
C1260 C1266 1.383 . S
C1261 C1257 1.495 . S
C1261 H1267 0.959 . S
C1261 H1268 0.961 . S
C1261 H1269 0.960 . S
C1262 C1260 1.381 . S
C1262 C1263 1.394 . S
C1262 H1270 0.930 . S
C1263 C1262 1.394 . S
C1263 C1264 1.383 . S
C1263 H1271 0.929 . S
C1264 C1263 1.383 . S
C1264 C1265 1.377 . S
C1265 H1249 0.930 . S
C1265 C1264 1.377 . S
C1265 C1266 1.379 . S
C1266 H1250 0.931 . S
C1266 C1260 1.383 . S
C1266 C1265 1.379 . S
H1267 C1261 0.959 . S
H1268 C1261 0.961 . S
H1269 C1261 0.960 . S
H1270 C1262 0.930 . S
H1271 C1263 0.929 . S
H1272 C1280 0.929 . S
H1273 C1282 0.930 . S
H1274 C1284 0.930 . S
H1275 C1287 0.929 . S
H1276 C1290 0.930 . S
H1277 C1292 0.960 . S
H1278 C1292 0.960 . S
H1279 C1292 0.960 . S
C1280 H1272 0.929 . S
C1280 C1281 1.377 . S
C1280 C1282 1.384 . S
C1281 C1280 1.377 . S
C1281 C1287 1.390 . S
C1282 H1273 0.930 . S
C1282 C1280 1.384 . S
C1282 C1283 1.372 . S
C1283 C1282 1.372 . S
C1283 C1284 1.400 . S
C1283 C1288 1.490 . S
C1284 H1274 0.930 . S
C1284 C1283 1.400 . S
C1284 C1287 1.386 . S
H1285 C1301 0.930 . S
H1286 C1302 0.931 . S
C1287 H1275 0.929 . S
C1287 C1281 1.390 . S
C1287 C1284 1.386 . S
C1288 C1283 1.490 . S
C1288 C1290 1.395 . S
C1288 C1291 1.403 . S
H1289 C1295 0.930 . S
C1290 H1276 0.930 . S
C1290 C1288 1.395 . S
C1290 C1293 1.403 . S
C1291 C1288 1.403 . S
C1291 C1292 1.524 . S
C1291 C1295 1.400 . S
C1292 H1277 0.960 . S
C1292 H1278 0.960 . S
C1292 H1279 0.960 . S
C1292 C1291 1.524 . S
C1293 C1290 1.403 . S
C1293 C1294 1.392 . S
C1293 C1297 1.495 . S
C1294 C1293 1.392 . S
C1294 C1295 1.385 . S
C1294 C1296 1.478 . S
C1295 H1289 0.930 . S
C1295 C1291 1.400 . S
C1295 C1294 1.385 . S
C1296 C1294 1.478 . S
C1296 C1298 1.381 . S
C1296 C1302 1.383 . S
C1297 C1293 1.495 . S
C1297 H1303 0.959 . S
C1297 H1304 0.961 . S
C1297 H1305 0.960 . S
C1298 C1296 1.381 . S
C1298 C1299 1.394 . S
C1298 H1306 0.930 . S
C1299 C1298 1.394 . S
C1299 C1300 1.383 . S
C1299 H1307 0.929 . S
C1300 C1299 1.383 . S
C1300 C1301 1.377 . S
C1301 H1285 0.930 . S
C1301 C1300 1.377 . S
C1301 C1302 1.379 . S
C1302 H1286 0.931 . S
C1302 C1296 1.383 . S
C1302 C1301 1.379 . S
H1303 C1297 0.959 . S
H1304 C1297 0.961 . S
H1305 C1297 0.960 . S
H1306 C1298 0.930 . S
H1307 C1299 0.929 . S
H1308 C1316 0.929 . S
H1309 C1318 0.930 . S
H1310 C1320 0.930 . S
H1311 C1323 0.929 . S
H1312 C1326 0.930 . S
H1313 C1328 0.960 . S
H1314 C1328 0.960 . S
H1315 C1328 0.960 . S
C1316 H1308 0.929 . S
C1316 C1317 1.377 . S
C1316 C1318 1.384 . S
C1317 C1316 1.377 . S
C1317 C1323 1.390 . S
C1318 H1309 0.930 . S
C1318 C1316 1.384 . S
C1318 C1319 1.372 . S
C1319 C1318 1.372 . S
C1319 C1320 1.400 . S
C1319 C1324 1.490 . S
C1320 H1310 0.930 . S
C1320 C1319 1.400 . S
C1320 C1323 1.386 . S
H1321 C1337 0.930 . S
H1322 C1338 0.931 . S
C1323 H1311 0.929 . S
C1323 C1317 1.390 . S
C1323 C1320 1.386 . S
C1324 C1319 1.490 . S
C1324 C1326 1.395 . S
C1324 C1327 1.403 . S
H1325 C1331 0.930 . S
C1326 H1312 0.930 . S
C1326 C1324 1.395 . S
C1326 C1329 1.403 . S
C1327 C1324 1.403 . S
C1327 C1328 1.524 . S
C1327 C1331 1.400 . S
C1328 H1313 0.960 . S
C1328 H1314 0.960 . S
C1328 H1315 0.960 . S
C1328 C1327 1.524 . S
C1329 C1326 1.403 . S
C1329 C1330 1.392 . S
C1329 C1333 1.495 . S
C1330 C1329 1.392 . S
C1330 C1331 1.385 . S
C1330 C1332 1.478 . S
C1331 H1325 0.930 . S
C1331 C1327 1.400 . S
C1331 C1330 1.385 . S
C1332 C1330 1.478 . S
C1332 C1334 1.381 . S
C1332 C1338 1.383 . S
C1333 C1329 1.495 . S
C1333 H1339 0.959 . S
C1333 H1340 0.961 . S
C1333 H1341 0.960 . S
C1334 C1332 1.381 . S
C1334 C1335 1.394 . S
C1334 H1342 0.930 . S
C1335 C1334 1.394 . S
C1335 C1336 1.383 . S
C1335 H1343 0.929 . S
C1336 C1335 1.383 . S
C1336 C1337 1.377 . S
C1337 H1321 0.930 . S
C1337 C1336 1.377 . S
C1337 C1338 1.379 . S
C1338 H1322 0.931 . S
C1338 C1332 1.383 . S
C1338 C1337 1.379 . S
H1339 C1333 0.959 . S
H1340 C1333 0.961 . S
H1341 C1333 0.960 . S
H1342 C1334 0.930 . S
H1343 C1335 0.929 . S
H1344 C1352 0.929 . S
H1345 C1354 0.930 . S
H1346 C1356 0.930 . S
H1347 C1359 0.929 . S
H1348 C1362 0.930 . S
H1349 C1364 0.960 . S
H1350 C1364 0.960 . S
H1351 C1364 0.960 . S
C1352 H1344 0.929 . S
C1352 C1353 1.377 . S
C1352 C1354 1.384 . S
C1353 C1352 1.377 . S
C1353 C1359 1.390 . S
C1354 H1345 0.930 . S
C1354 C1352 1.384 . S
C1354 C1355 1.372 . S
C1355 C1354 1.372 . S
C1355 C1356 1.400 . S
C1355 C1360 1.490 . S
C1356 H1346 0.930 . S
C1356 C1355 1.400 . S
C1356 C1359 1.386 . S
H1357 C1373 0.930 . S
H1358 C1374 0.931 . S
C1359 H1347 0.929 . S
C1359 C1353 1.390 . S
C1359 C1356 1.386 . S
C1360 C1355 1.490 . S
C1360 C1362 1.395 . S
C1360 C1363 1.403 . S
H1361 C1367 0.930 . S
C1362 H1348 0.930 . S
C1362 C1360 1.395 . S
C1362 C1365 1.403 . S
C1363 C1360 1.403 . S
C1363 C1364 1.524 . S
C1363 C1367 1.400 . S
C1364 H1349 0.960 . S
C1364 H1350 0.960 . S
C1364 H1351 0.960 . S
C1364 C1363 1.524 . S
C1365 C1362 1.403 . S
C1365 C1366 1.392 . S
C1365 C1369 1.495 . S
C1366 C1365 1.392 . S
C1366 C1367 1.385 . S
C1366 C1368 1.478 . S
C1367 H1361 0.930 . S
C1367 C1363 1.400 . S
C1367 C1366 1.385 . S
C1368 C1366 1.478 . S
C1368 C1370 1.381 . S
C1368 C1374 1.383 . S
C1369 C1365 1.495 . S
C1369 H1375 0.959 . S
C1369 H1376 0.961 . S
C1369 H1377 0.960 . S
C1370 C1368 1.381 . S
C1370 C1371 1.394 . S
C1370 H1378 0.930 . S
C1371 C1370 1.394 . S
C1371 C1372 1.383 . S
C1371 H1379 0.929 . S
C1372 C1371 1.383 . S
C1372 C1373 1.377 . S
C1373 H1357 0.930 . S
C1373 C1372 1.377 . S
C1373 C1374 1.379 . S
C1374 H1358 0.931 . S
C1374 C1368 1.383 . S
C1374 C1373 1.379 . S
H1375 C1369 0.959 . S
H1376 C1369 0.961 . S
H1377 C1369 0.960 . S
H1378 C1370 0.930 . S
H1379 C1371 0.929 . S
H1380 C1388 0.929 . S
H1381 C1390 0.930 . S
H1382 C1392 0.930 . S
H1383 C1395 0.929 . S
H1384 C1398 0.930 . S
H1385 C1400 0.960 . S
H1386 C1400 0.960 . S
H1387 C1400 0.960 . S
C1388 H1380 0.929 . S
C1388 C1389 1.377 . S
C1388 C1390 1.384 . S
C1389 C1388 1.377 . S
C1389 C1395 1.390 . S
C1390 H1381 0.930 . S
C1390 C1388 1.384 . S
C1390 C1391 1.372 . S
C1391 C1390 1.372 . S
C1391 C1392 1.400 . S
C1391 C1396 1.490 . S
C1392 H1382 0.930 . S
C1392 C1391 1.400 . S
C1392 C1395 1.386 . S
H1393 C1409 0.930 . S
H1394 C1410 0.931 . S
C1395 H1383 0.929 . S
C1395 C1389 1.390 . S
C1395 C1392 1.386 . S
C1396 C1391 1.490 . S
C1396 C1398 1.395 . S
C1396 C1399 1.403 . S
H1397 C1403 0.930 . S
C1398 H1384 0.930 . S
C1398 C1396 1.395 . S
C1398 C1401 1.403 . S
C1399 C1396 1.403 . S
C1399 C1400 1.524 . S
C1399 C1403 1.400 . S
C1400 H1385 0.960 . S
C1400 H1386 0.960 . S
C1400 H1387 0.960 . S
C1400 C1399 1.524 . S
C1401 C1398 1.403 . S
C1401 C1402 1.392 . S
C1401 C1405 1.495 . S
C1402 C1401 1.392 . S
C1402 C1403 1.385 . S
C1402 C1404 1.478 . S
C1403 H1397 0.930 . S
C1403 C1399 1.400 . S
C1403 C1402 1.385 . S
C1404 C1402 1.478 . S
C1404 C1406 1.381 . S
C1404 C1410 1.383 . S
C1405 C1401 1.495 . S
C1405 H1411 0.959 . S
C1405 H1412 0.961 . S
C1405 H1413 0.960 . S
C1406 C1404 1.381 . S
C1406 C1407 1.394 . S
C1406 H1414 0.930 . S
C1407 C1406 1.394 . S
C1407 C1408 1.383 . S
C1407 H1415 0.929 . S
C1408 C1407 1.383 . S
C1408 C1409 1.377 . S
C1409 H1393 0.930 . S
C1409 C1408 1.377 . S
C1409 C1410 1.379 . S
C1410 H1394 0.931 . S
C1410 C1404 1.383 . S
C1410 C1409 1.379 . S
H1411 C1405 0.959 . S
H1412 C1405 0.961 . S
H1413 C1405 0.960 . S
H1414 C1406 0.930 . S
H1415 C1407 0.929 . S
H1416 C1424 0.929 . S
H1417 C1426 0.930 . S
H1418 C1428 0.930 . S
H1419 C1431 0.929 . S
H1420 C1434 0.930 . S
H1421 C1436 0.960 . S
H1422 C1436 0.960 . S
H1423 C1436 0.960 . S
C1424 H1416 0.929 . S
C1424 C1425 1.377 . S
C1424 C1426 1.384 . S
C1425 C1424 1.377 . S
C1425 C1431 1.390 . S
C1426 H1417 0.930 . S
C1426 C1424 1.384 . S
C1426 C1427 1.372 . S
C1427 C1426 1.372 . S
C1427 C1428 1.400 . S
C1427 C1432 1.490 . S
C1428 H1418 0.930 . S
C1428 C1427 1.400 . S
C1428 C1431 1.386 . S
H1429 C1445 0.930 . S
H1430 C1446 0.931 . S
C1431 H1419 0.929 . S
C1431 C1425 1.390 . S
C1431 C1428 1.386 . S
C1432 C1427 1.490 . S
C1432 C1434 1.395 . S
C1432 C1435 1.403 . S
H1433 C1439 0.930 . S
C1434 H1420 0.930 . S
C1434 C1432 1.395 . S
C1434 C1437 1.403 . S
C1435 C1432 1.403 . S
C1435 C1436 1.524 . S
C1435 C1439 1.400 . S
C1436 H1421 0.960 . S
C1436 H1422 0.960 . S
C1436 H1423 0.960 . S
C1436 C1435 1.524 . S
C1437 C1434 1.403 . S
C1437 C1438 1.392 . S
C1437 C1441 1.495 . S
C1438 C1437 1.392 . S
C1438 C1439 1.385 . S
C1438 C1440 1.478 . S
C1439 H1433 0.930 . S
C1439 C1435 1.400 . S
C1439 C1438 1.385 . S
C1440 C1438 1.478 . S
C1440 C1442 1.381 . S
C1440 C1446 1.383 . S
C1441 C1437 1.495 . S
C1441 H1447 0.959 . S
C1441 H1448 0.961 . S
C1441 H1449 0.960 . S
C1442 C1440 1.381 . S
C1442 C1443 1.394 . S
C1442 H1450 0.930 . S
C1443 C1442 1.394 . S
C1443 C1444 1.383 . S
C1443 H1451 0.929 . S
C1444 C1443 1.383 . S
C1444 C1445 1.377 . S
C1445 H1429 0.930 . S
C1445 C1444 1.377 . S
C1445 C1446 1.379 . S
C1446 H1430 0.931 . S
C1446 C1440 1.383 . S
C1446 C1445 1.379 . S
H1447 C1441 0.959 . S
H1448 C1441 0.961 . S
H1449 C1441 0.960 . S
H1450 C1442 0.930 . S
H1451 C1443 0.929 . S
H1452 C1460 0.929 . S
H1453 C1462 0.930 . S
H1454 C1464 0.930 . S
H1455 C1467 0.929 . S
H1456 C1470 0.930 . S
H1457 C1472 0.960 . S
H1458 C1472 0.960 . S
H1459 C1472 0.960 . S
C1460 H1452 0.929 . S
C1460 C1461 1.377 . S
C1460 C1462 1.384 . S
C1461 C1460 1.377 . S
C1461 C1467 1.390 . S
C1462 H1453 0.930 . S
C1462 C1460 1.384 . S
C1462 C1463 1.372 . S
C1463 C1462 1.372 . S
C1463 C1464 1.400 . S
C1463 C1468 1.490 . S
C1464 H1454 0.930 . S
C1464 C1463 1.400 . S
C1464 C1467 1.386 . S
H1465 C1481 0.930 . S
H1466 C1482 0.931 . S
C1467 H1455 0.929 . S
C1467 C1461 1.390 . S
C1467 C1464 1.386 . S
C1468 C1463 1.490 . S
C1468 C1470 1.395 . S
C1468 C1471 1.403 . S
H1469 C1475 0.930 . S
C1470 H1456 0.930 . S
C1470 C1468 1.395 . S
C1470 C1473 1.403 . S
C1471 C1468 1.403 . S
C1471 C1472 1.524 . S
C1471 C1475 1.400 . S
C1472 H1457 0.960 . S
C1472 H1458 0.960 . S
C1472 H1459 0.960 . S
C1472 C1471 1.524 . S
C1473 C1470 1.403 . S
C1473 C1474 1.392 . S
C1473 C1477 1.495 . S
C1474 C1473 1.392 . S
C1474 C1475 1.385 . S
C1474 C1476 1.478 . S
C1475 H1469 0.930 . S
C1475 C1471 1.400 . S
C1475 C1474 1.385 . S
C1476 C1474 1.478 . S
C1476 C1478 1.381 . S
C1476 C1482 1.383 . S
C1477 C1473 1.495 . S
C1477 H1483 0.959 . S
C1477 H1484 0.961 . S
C1477 H1485 0.960 . S
C1478 C1476 1.381 . S
C1478 C1479 1.394 . S
C1478 H1486 0.930 . S
C1479 C1478 1.394 . S
C1479 C1480 1.383 . S
C1479 H1487 0.929 . S
C1480 C1479 1.383 . S
C1480 C1481 1.377 . S
C1481 H1465 0.930 . S
C1481 C1480 1.377 . S
C1481 C1482 1.379 . S
C1482 H1466 0.931 . S
C1482 C1476 1.383 . S
C1482 C1481 1.379 . S
H1483 C1477 0.959 . S
H1484 C1477 0.961 . S
H1485 C1477 0.960 . S
H1486 C1478 0.930 . S
H1487 C1479 0.929 . S
H1488 C1496 0.929 . S
H1489 C1498 0.930 . S
H1490 C1500 0.930 . S
H1491 C1503 0.929 . S
H1492 C1506 0.930 . S
H1493 C1508 0.960 . S
H1494 C1508 0.960 . S
H1495 C1508 0.960 . S
C1496 H1488 0.929 . S
C1496 C1497 1.377 . S
C1496 C1498 1.384 . S
C1497 C1496 1.377 . S
C1497 C1503 1.390 . S
C1498 H1489 0.930 . S
C1498 C1496 1.384 . S
C1498 C1499 1.372 . S
C1499 C1498 1.372 . S
C1499 C1500 1.400 . S
C1499 C1504 1.490 . S
C1500 H1490 0.930 . S
C1500 C1499 1.400 . S
C1500 C1503 1.386 . S
H1501 C1517 0.930 . S
H1502 C1518 0.931 . S
C1503 H1491 0.929 . S
C1503 C1497 1.390 . S
C1503 C1500 1.386 . S
C1504 C1499 1.490 . S
C1504 C1506 1.395 . S
C1504 C1507 1.403 . S
H1505 C1511 0.930 . S
C1506 H1492 0.930 . S
C1506 C1504 1.395 . S
C1506 C1509 1.403 . S
C1507 C1504 1.403 . S
C1507 C1508 1.524 . S
C1507 C1511 1.400 . S
C1508 H1493 0.960 . S
C1508 H1494 0.960 . S
C1508 H1495 0.960 . S
C1508 C1507 1.524 . S
C1509 C1506 1.403 . S
C1509 C1510 1.392 . S
C1509 C1513 1.495 . S
C1510 C1509 1.392 . S
C1510 C1511 1.385 . S
C1510 C1512 1.478 . S
C1511 H1505 0.930 . S
C1511 C1507 1.400 . S
C1511 C1510 1.385 . S
C1512 C1510 1.478 . S
C1512 C1514 1.381 . S
C1512 C1518 1.383 . S
C1513 C1509 1.495 . S
C1513 H1519 0.959 . S
C1513 H1520 0.961 . S
C1513 H1521 0.960 . S
C1514 C1512 1.381 . S
C1514 C1515 1.394 . S
C1514 H1522 0.930 . S
C1515 C1514 1.394 . S
C1515 C1516 1.383 . S
C1515 H1523 0.929 . S
C1516 C1515 1.383 . S
C1516 C1517 1.377 . S
C1517 H1501 0.930 . S
C1517 C1516 1.377 . S
C1517 C1518 1.379 . S
C1518 H1502 0.931 . S
C1518 C1512 1.383 . S
C1518 C1517 1.379 . S
H1519 C1513 0.959 . S
H1520 C1513 0.961 . S
H1521 C1513 0.960 . S
H1522 C1514 0.930 . S
H1523 C1515 0.929 . S
H1524 C1532 0.929 . S
H1525 C1534 0.930 . S
H1526 C1536 0.930 . S
H1527 C1539 0.929 . S
H1528 C1542 0.930 . S
H1529 C1544 0.960 . S
H1530 C1544 0.960 . S
H1531 C1544 0.960 . S
C1532 H1524 0.929 . S
C1532 C1533 1.377 . S
C1532 C1534 1.384 . S
C1533 C1532 1.377 . S
C1533 C1539 1.390 . S
C1534 H1525 0.930 . S
C1534 C1532 1.384 . S
C1534 C1535 1.372 . S
C1535 C1534 1.372 . S
C1535 C1536 1.400 . S
C1535 C1540 1.490 . S
C1536 H1526 0.930 . S
C1536 C1535 1.400 . S
C1536 C1539 1.386 . S
H1537 C1553 0.930 . S
H1538 C1554 0.931 . S
C1539 H1527 0.929 . S
C1539 C1533 1.390 . S
C1539 C1536 1.386 . S
C1540 C1535 1.490 . S
C1540 C1542 1.395 . S
C1540 C1543 1.403 . S
H1541 C1547 0.930 . S
C1542 H1528 0.930 . S
C1542 C1540 1.395 . S
C1542 C1545 1.403 . S
C1543 C1540 1.403 . S
C1543 C1544 1.524 . S
C1543 C1547 1.400 . S
C1544 H1529 0.960 . S
C1544 H1530 0.960 . S
C1544 H1531 0.960 . S
C1544 C1543 1.524 . S
C1545 C1542 1.403 . S
C1545 C1546 1.392 . S
C1545 C1549 1.495 . S
C1546 C1545 1.392 . S
C1546 C1547 1.385 . S
C1546 C1548 1.478 . S
C1547 H1541 0.930 . S
C1547 C1543 1.400 . S
C1547 C1546 1.385 . S
C1548 C1546 1.478 . S
C1548 C1550 1.381 . S
C1548 C1554 1.383 . S
C1549 C1545 1.495 . S
C1549 H1555 0.959 . S
C1549 H1556 0.961 . S
C1549 H1557 0.960 . S
C1550 C1548 1.381 . S
C1550 C1551 1.394 . S
C1550 H1558 0.930 . S
C1551 C1550 1.394 . S
C1551 C1552 1.383 . S
C1551 H1559 0.929 . S
C1552 C1551 1.383 . S
C1552 C1553 1.377 . S
C1553 H1537 0.930 . S
C1553 C1552 1.377 . S
C1553 C1554 1.379 . S
C1554 H1538 0.931 . S
C1554 C1548 1.383 . S
C1554 C1553 1.379 . S
H1555 C1549 0.959 . S
H1556 C1549 0.961 . S
H1557 C1549 0.960 . S
H1558 C1550 0.930 . S
H1559 C1551 0.929 . S
H1560 C1568 0.929 . S
H1561 C1570 0.930 . S
H1562 C1572 0.930 . S
H1563 C1575 0.929 . S
H1564 C1578 0.930 . S
H1565 C1580 0.960 . S
H1566 C1580 0.960 . S
H1567 C1580 0.960 . S
C1568 H1560 0.929 . S
C1568 C1569 1.377 . S
C1568 C1570 1.384 . S
C1569 C1568 1.377 . S
C1569 C1575 1.390 . S
C1570 H1561 0.930 . S
C1570 C1568 1.384 . S
C1570 C1571 1.372 . S
C1571 C1570 1.372 . S
C1571 C1572 1.400 . S
C1571 C1576 1.490 . S
C1572 H1562 0.930 . S
C1572 C1571 1.400 . S
C1572 C1575 1.386 . S
H1573 C1589 0.930 . S
H1574 C1590 0.931 . S
C1575 H1563 0.929 . S
C1575 C1569 1.390 . S
C1575 C1572 1.386 . S
C1576 C1571 1.490 . S
C1576 C1578 1.395 . S
C1576 C1579 1.403 . S
H1577 C1583 0.930 . S
C1578 H1564 0.930 . S
C1578 C1576 1.395 . S
C1578 C1581 1.403 . S
C1579 C1576 1.403 . S
C1579 C1580 1.524 . S
C1579 C1583 1.400 . S
C1580 H1565 0.960 . S
C1580 H1566 0.960 . S
C1580 H1567 0.960 . S
C1580 C1579 1.524 . S
C1581 C1578 1.403 . S
C1581 C1582 1.392 . S
C1581 C1585 1.495 . S
C1582 C1581 1.392 . S
C1582 C1583 1.385 . S
C1582 C1584 1.478 . S
C1583 H1577 0.930 . S
C1583 C1579 1.400 . S
C1583 C1582 1.385 . S
C1584 C1582 1.478 . S
C1584 C1586 1.381 . S
C1584 C1590 1.383 . S
C1585 C1581 1.495 . S
C1585 H1591 0.959 . S
C1585 H1592 0.961 . S
C1585 H1593 0.960 . S
C1586 C1584 1.381 . S
C1586 C1587 1.394 . S
C1586 H1594 0.930 . S
C1587 C1586 1.394 . S
C1587 C1588 1.383 . S
C1587 H1595 0.929 . S
C1588 C1587 1.383 . S
C1588 C1589 1.377 . S
C1589 H1573 0.930 . S
C1589 C1588 1.377 . S
C1589 C1590 1.379 . S
C1590 H1574 0.931 . S
C1590 C1584 1.383 . S
C1590 C1589 1.379 . S
H1591 C1585 0.959 . S
H1592 C1585 0.961 . S
H1593 C1585 0.960 . S
H1594 C1586 0.930 . S
H1595 C1587 0.929 . S
H1596 C1604 0.929 . S
H1597 C1606 0.930 . S
H1598 C1608 0.930 . S
H1599 C1611 0.929 . S
H1600 C1614 0.930 . S
H1601 C1616 0.960 . S
H1602 C1616 0.960 . S
H1603 C1616 0.960 . S
C1604 H1596 0.929 . S
C1604 C1605 1.377 . S
C1604 C1606 1.384 . S
C1605 C1604 1.377 . S
C1605 C1611 1.390 . S
C1606 H1597 0.930 . S
C1606 C1604 1.384 . S
C1606 C1607 1.372 . S
C1607 C1606 1.372 . S
C1607 C1608 1.400 . S
C1607 C1612 1.490 . S
C1608 H1598 0.930 . S
C1608 C1607 1.400 . S
C1608 C1611 1.386 . S
H1609 C1625 0.930 . S
H1610 C1626 0.931 . S
C1611 H1599 0.929 . S
C1611 C1605 1.390 . S
C1611 C1608 1.386 . S
C1612 C1607 1.490 . S
C1612 C1614 1.395 . S
C1612 C1615 1.403 . S
H1613 C1619 0.930 . S
C1614 H1600 0.930 . S
C1614 C1612 1.395 . S
C1614 C1617 1.403 . S
C1615 C1612 1.403 . S
C1615 C1616 1.524 . S
C1615 C1619 1.400 . S
C1616 H1601 0.960 . S
C1616 H1602 0.960 . S
C1616 H1603 0.960 . S
C1616 C1615 1.524 . S
C1617 C1614 1.403 . S
C1617 C1618 1.392 . S
C1617 C1621 1.495 . S
C1618 C1617 1.392 . S
C1618 C1619 1.385 . S
C1618 C1620 1.478 . S
C1619 H1613 0.930 . S
C1619 C1615 1.400 . S
C1619 C1618 1.385 . S
C1620 C1618 1.478 . S
C1620 C1622 1.381 . S
C1620 C1626 1.383 . S
C1621 C1617 1.495 . S
C1621 H1627 0.959 . S
C1621 H1628 0.961 . S
C1621 H1629 0.960 . S
C1622 C1620 1.381 . S
C1622 C1623 1.394 . S
C1622 H1630 0.930 . S
C1623 C1622 1.394 . S
C1623 C1624 1.383 . S
C1623 H1631 0.929 . S
C1624 C1623 1.383 . S
C1624 C1625 1.377 . S
C1625 H1609 0.930 . S
C1625 C1624 1.377 . S
C1625 C1626 1.379 . S
C1626 H1610 0.931 . S
C1626 C1620 1.383 . S
C1626 C1625 1.379 . S
H1627 C1621 0.959 . S
H1628 C1621 0.961 . S
H1629 C1621 0.960 . S
H1630 C1622 0.930 . S
H1631 C1623 0.929 . S
H1632 C1640 0.929 . S
H1633 C1642 0.930 . S
H1634 C1644 0.930 . S
H1635 C1647 0.929 . S
H1636 C1650 0.930 . S
H1637 C1652 0.960 . S
H1638 C1652 0.960 . S
H1639 C1652 0.960 . S
C1640 H1632 0.929 . S
C1640 C1641 1.377 . S
C1640 C1642 1.384 . S
C1641 C1640 1.377 . S
C1641 C1647 1.390 . S
C1642 H1633 0.930 . S
C1642 C1640 1.384 . S
C1642 C1643 1.372 . S
C1643 C1642 1.372 . S
C1643 C1644 1.400 . S
C1643 C1648 1.490 . S
C1644 H1634 0.930 . S
C1644 C1643 1.400 . S
C1644 C1647 1.386 . S
H1645 C1661 0.930 . S
H1646 C1662 0.931 . S
C1647 H1635 0.929 . S
C1647 C1641 1.390 . S
C1647 C1644 1.386 . S
C1648 C1643 1.490 . S
C1648 C1650 1.395 . S
C1648 C1651 1.403 . S
H1649 C1655 0.930 . S
C1650 H1636 0.930 . S
C1650 C1648 1.395 . S
C1650 C1653 1.403 . S
C1651 C1648 1.403 . S
C1651 C1652 1.524 . S
C1651 C1655 1.400 . S
C1652 H1637 0.960 . S
C1652 H1638 0.960 . S
C1652 H1639 0.960 . S
C1652 C1651 1.524 . S
C1653 C1650 1.403 . S
C1653 C1654 1.392 . S
C1653 C1657 1.495 . S
C1654 C1653 1.392 . S
C1654 C1655 1.385 . S
C1654 C1656 1.478 . S
C1655 H1649 0.930 . S
C1655 C1651 1.400 . S
C1655 C1654 1.385 . S
C1656 C1654 1.478 . S
C1656 C1658 1.381 . S
C1656 C1662 1.383 . S
C1657 C1653 1.495 . S
C1657 H1663 0.959 . S
C1657 H1664 0.961 . S
C1657 H1665 0.960 . S
C1658 C1656 1.381 . S
C1658 C1659 1.394 . S
C1658 H1666 0.930 . S
C1659 C1658 1.394 . S
C1659 C1660 1.383 . S
C1659 H1667 0.929 . S
C1660 C1659 1.383 . S
C1660 C1661 1.377 . S
C1661 H1645 0.930 . S
C1661 C1660 1.377 . S
C1661 C1662 1.379 . S
C1662 H1646 0.931 . S
C1662 C1656 1.383 . S
C1662 C1661 1.379 . S
H1663 C1657 0.959 . S
H1664 C1657 0.961 . S
H1665 C1657 0.960 . S
H1666 C1658 0.930 . S
H1667 C1659 0.929 . S
H1668 C1676 0.929 . S
H1669 C1678 0.930 . S
H1670 C1680 0.930 . S
H1671 C1683 0.929 . S
H1672 C1686 0.930 . S
H1673 C1688 0.960 . S
H1674 C1688 0.960 . S
H1675 C1688 0.960 . S
C1676 H1668 0.929 . S
C1676 C1677 1.377 . S
C1676 C1678 1.384 . S
C1677 C1676 1.377 . S
C1677 C1683 1.390 . S
C1678 H1669 0.930 . S
C1678 C1676 1.384 . S
C1678 C1679 1.372 . S
C1679 C1678 1.372 . S
C1679 C1680 1.400 . S
C1679 C1684 1.490 . S
C1680 H1670 0.930 . S
C1680 C1679 1.400 . S
C1680 C1683 1.386 . S
H1681 C1697 0.930 . S
H1682 C1698 0.931 . S
C1683 H1671 0.929 . S
C1683 C1677 1.390 . S
C1683 C1680 1.386 . S
C1684 C1679 1.490 . S
C1684 C1686 1.395 . S
C1684 C1687 1.403 . S
H1685 C1691 0.930 . S
C1686 H1672 0.930 . S
C1686 C1684 1.395 . S
C1686 C1689 1.403 . S
C1687 C1684 1.403 . S
C1687 C1688 1.524 . S
C1687 C1691 1.400 . S
C1688 H1673 0.960 . S
C1688 H1674 0.960 . S
C1688 H1675 0.960 . S
C1688 C1687 1.524 . S
C1689 C1686 1.403 . S
C1689 C1690 1.392 . S
C1689 C1693 1.495 . S
C1690 C1689 1.392 . S
C1690 C1691 1.385 . S
C1690 C1692 1.478 . S
C1691 H1685 0.930 . S
C1691 C1687 1.400 . S
C1691 C1690 1.385 . S
C1692 C1690 1.478 . S
C1692 C1694 1.381 . S
C1692 C1698 1.383 . S
C1693 C1689 1.495 . S
C1693 H1699 0.959 . S
C1693 H1700 0.961 . S
C1693 H1701 0.960 . S
C1694 C1692 1.381 . S
C1694 C1695 1.394 . S
C1694 H1702 0.930 . S
C1695 C1694 1.394 . S
C1695 C1696 1.383 . S
C1695 H1703 0.929 . S
C1696 C1695 1.383 . S
C1696 C1697 1.377 . S
C1697 H1681 0.930 . S
C1697 C1696 1.377 . S
C1697 C1698 1.379 . S
C1698 H1682 0.931 . S
C1698 C1692 1.383 . S
C1698 C1697 1.379 . S
H1699 C1693 0.959 . S
H1700 C1693 0.961 . S
H1701 C1693 0.960 . S
H1702 C1694 0.930 . S
H1703 C1695 0.929 . S
H1704 C1712 0.929 . S
H1705 C1714 0.930 . S
H1706 C1716 0.930 . S
H1707 C1719 0.929 . S
H1708 C1722 0.930 . S
H1709 C1724 0.960 . S
H1710 C1724 0.960 . S
H1711 C1724 0.960 . S
C1712 H1704 0.929 . S
C1712 C1713 1.377 . S
C1712 C1714 1.384 . S
C1713 C1712 1.377 . S
C1713 C1719 1.390 . S
C1714 H1705 0.930 . S
C1714 C1712 1.384 . S
C1714 C1715 1.372 . S
C1715 C1714 1.372 . S
C1715 C1716 1.400 . S
C1715 C1720 1.490 . S
C1716 H1706 0.930 . S
C1716 C1715 1.400 . S
C1716 C1719 1.386 . S
H1717 C1733 0.930 . S
H1718 C1734 0.931 . S
C1719 H1707 0.929 . S
C1719 C1713 1.390 . S
C1719 C1716 1.386 . S
C1720 C1715 1.490 . S
C1720 C1722 1.395 . S
C1720 C1723 1.403 . S
H1721 C1727 0.930 . S
C1722 H1708 0.930 . S
C1722 C1720 1.395 . S
C1722 C1725 1.403 . S
C1723 C1720 1.403 . S
C1723 C1724 1.524 . S
C1723 C1727 1.400 . S
C1724 H1709 0.960 . S
C1724 H1710 0.960 . S
C1724 H1711 0.960 . S
C1724 C1723 1.524 . S
C1725 C1722 1.403 . S
C1725 C1726 1.392 . S
C1725 C1729 1.495 . S
C1726 C1725 1.392 . S
C1726 C1727 1.385 . S
C1726 C1728 1.478 . S
C1727 H1721 0.930 . S
C1727 C1723 1.400 . S
C1727 C1726 1.385 . S
C1728 C1726 1.478 . S
C1728 C1730 1.381 . S
C1728 C1734 1.383 . S
C1729 C1725 1.495 . S
C1729 H1735 0.959 . S
C1729 H1736 0.961 . S
C1729 H1737 0.960 . S
C1730 C1728 1.381 . S
C1730 C1731 1.394 . S
C1730 H1738 0.930 . S
C1731 C1730 1.394 . S
C1731 C1732 1.383 . S
C1731 H1739 0.929 . S
C1732 C1731 1.383 . S
C1732 C1733 1.377 . S
C1733 H1717 0.930 . S
C1733 C1732 1.377 . S
C1733 C1734 1.379 . S
C1734 H1718 0.931 . S
C1734 C1728 1.383 . S
C1734 C1733 1.379 . S
H1735 C1729 0.959 . S
H1736 C1729 0.961 . S
H1737 C1729 0.960 . S
H1738 C1730 0.930 . S
H1739 C1731 0.929 . S
H1740 C1748 0.929 . S
H1741 C1750 0.930 . S
H1742 C1752 0.930 . S
H1743 C1755 0.929 . S
H1744 C1758 0.930 . S
H1745 C1760 0.960 . S
H1746 C1760 0.960 . S
H1747 C1760 0.960 . S
C1748 H1740 0.929 . S
C1748 C1749 1.377 . S
C1748 C1750 1.384 . S
C1749 C1748 1.377 . S
C1749 C1755 1.390 . S
C1750 H1741 0.930 . S
C1750 C1748 1.384 . S
C1750 C1751 1.372 . S
C1751 C1750 1.372 . S
C1751 C1752 1.400 . S
C1751 C1756 1.490 . S
C1752 H1742 0.930 . S
C1752 C1751 1.400 . S
C1752 C1755 1.386 . S
H1753 C1769 0.930 . S
H1754 C1770 0.931 . S
C1755 H1743 0.929 . S
C1755 C1749 1.390 . S
C1755 C1752 1.386 . S
C1756 C1751 1.490 . S
C1756 C1758 1.395 . S
C1756 C1759 1.403 . S
H1757 C1763 0.930 . S
C1758 H1744 0.930 . S
C1758 C1756 1.395 . S
C1758 C1761 1.403 . S
C1759 C1756 1.403 . S
C1759 C1760 1.524 . S
C1759 C1763 1.400 . S
C1760 H1745 0.960 . S
C1760 H1746 0.960 . S
C1760 H1747 0.960 . S
C1760 C1759 1.524 . S
C1761 C1758 1.403 . S
C1761 C1762 1.392 . S
C1761 C1765 1.495 . S
C1762 C1761 1.392 . S
C1762 C1763 1.385 . S
C1762 C1764 1.478 . S
C1763 H1757 0.930 . S
C1763 C1759 1.400 . S
C1763 C1762 1.385 . S
C1764 C1762 1.478 . S
C1764 C1766 1.381 . S
C1764 C1770 1.383 . S
C1765 C1761 1.495 . S
C1765 H1771 0.959 . S
C1765 H1772 0.961 . S
C1765 H1773 0.960 . S
C1766 C1764 1.381 . S
C1766 C1767 1.394 . S
C1766 H1774 0.930 . S
C1767 C1766 1.394 . S
C1767 C1768 1.383 . S
C1767 H1775 0.929 . S
C1768 C1767 1.383 . S
C1768 C1769 1.377 . S
C1769 H1753 0.930 . S
C1769 C1768 1.377 . S
C1769 C1770 1.379 . S
C1770 H1754 0.931 . S
C1770 C1764 1.383 . S
C1770 C1769 1.379 . S
H1771 C1765 0.959 . S
H1772 C1765 0.961 . S
H1773 C1765 0.960 . S
H1774 C1766 0.930 . S
H1775 C1767 0.929 . S
H1776 C1784 0.929 . S
H1777 C1786 0.930 . S
H1778 C1788 0.930 . S
H1779 C1791 0.929 . S
H1780 C1794 0.930 . S
H1781 C1796 0.960 . S
H1782 C1796 0.960 . S
H1783 C1796 0.960 . S
C1784 H1776 0.929 . S
C1784 C1785 1.377 . S
C1784 C1786 1.384 . S
C1785 C1784 1.377 . S
C1785 C1791 1.390 . S
C1786 H1777 0.930 . S
C1786 C1784 1.384 . S
C1786 C1787 1.372 . S
C1787 C1786 1.372 . S
C1787 C1788 1.400 . S
C1787 C1792 1.490 . S
C1788 H1778 0.930 . S
C1788 C1787 1.400 . S
C1788 C1791 1.386 . S
H1789 C1805 0.930 . S
H1790 C1806 0.931 . S
C1791 H1779 0.929 . S
C1791 C1785 1.390 . S
C1791 C1788 1.386 . S
C1792 C1787 1.490 . S
C1792 C1794 1.395 . S
C1792 C1795 1.403 . S
H1793 C1799 0.930 . S
C1794 H1780 0.930 . S
C1794 C1792 1.395 . S
C1794 C1797 1.403 . S
C1795 C1792 1.403 . S
C1795 C1796 1.524 . S
C1795 C1799 1.400 . S
C1796 H1781 0.960 . S
C1796 H1782 0.960 . S
C1796 H1783 0.960 . S
C1796 C1795 1.524 . S
C1797 C1794 1.403 . S
C1797 C1798 1.392 . S
C1797 C1801 1.495 . S
C1798 C1797 1.392 . S
C1798 C1799 1.385 . S
C1798 C1800 1.478 . S
C1799 H1793 0.930 . S
C1799 C1795 1.400 . S
C1799 C1798 1.385 . S
C1800 C1798 1.478 . S
C1800 C1802 1.381 . S
C1800 C1806 1.383 . S
C1801 C1797 1.495 . S
C1801 H1807 0.959 . S
C1801 H1808 0.961 . S
C1801 H1809 0.960 . S
C1802 C1800 1.381 . S
C1802 C1803 1.394 . S
C1802 H1810 0.930 . S
C1803 C1802 1.394 . S
C1803 C1804 1.383 . S
C1803 H1811 0.929 . S
C1804 C1803 1.383 . S
C1804 C1805 1.377 . S
C1805 H1789 0.930 . S
C1805 C1804 1.377 . S
C1805 C1806 1.379 . S
C1806 H1790 0.931 . S
C1806 C1800 1.383 . S
C1806 C1805 1.379 . S
H1807 C1801 0.959 . S
H1808 C1801 0.961 . S
H1809 C1801 0.960 . S
H1810 C1802 0.930 . S
H1811 C1803 0.929 . S
H1812 C1820 0.929 . S
H1813 C1822 0.930 . S
H1814 C1824 0.930 . S
H1815 C1827 0.929 . S
H1816 C1830 0.930 . S
H1817 C1832 0.960 . S
H1818 C1832 0.960 . S
H1819 C1832 0.960 . S
C1820 H1812 0.929 . S
C1820 C1821 1.377 . S
C1820 C1822 1.384 . S
C1821 C1820 1.377 . S
C1821 C1827 1.390 . S
C1822 H1813 0.930 . S
C1822 C1820 1.384 . S
C1822 C1823 1.372 . S
C1823 C1822 1.372 . S
C1823 C1824 1.400 . S
C1823 C1828 1.490 . S
C1824 H1814 0.930 . S
C1824 C1823 1.400 . S
C1824 C1827 1.386 . S
H1825 C1841 0.930 . S
H1826 C1842 0.931 . S
C1827 H1815 0.929 . S
C1827 C1821 1.390 . S
C1827 C1824 1.386 . S
C1828 C1823 1.490 . S
C1828 C1830 1.395 . S
C1828 C1831 1.403 . S
H1829 C1835 0.930 . S
C1830 H1816 0.930 . S
C1830 C1828 1.395 . S
C1830 C1833 1.403 . S
C1831 C1828 1.403 . S
C1831 C1832 1.524 . S
C1831 C1835 1.400 . S
C1832 H1817 0.960 . S
C1832 H1818 0.960 . S
C1832 H1819 0.960 . S
C1832 C1831 1.524 . S
C1833 C1830 1.403 . S
C1833 C1834 1.392 . S
C1833 C1837 1.495 . S
C1834 C1833 1.392 . S
C1834 C1835 1.385 . S
C1834 C1836 1.478 . S
C1835 H1829 0.930 . S
C1835 C1831 1.400 . S
C1835 C1834 1.385 . S
C1836 C1834 1.478 . S
C1836 C1838 1.381 . S
C1836 C1842 1.383 . S
C1837 C1833 1.495 . S
C1837 H1843 0.959 . S
C1837 H1844 0.961 . S
C1837 H1845 0.960 . S
C1838 C1836 1.381 . S
C1838 C1839 1.394 . S
C1838 H1846 0.930 . S
C1839 C1838 1.394 . S
C1839 C1840 1.383 . S
C1839 H1847 0.929 . S
C1840 C1839 1.383 . S
C1840 C1841 1.377 . S
C1841 H1825 0.930 . S
C1841 C1840 1.377 . S
C1841 C1842 1.379 . S
C1842 H1826 0.931 . S
C1842 C1836 1.383 . S
C1842 C1841 1.379 . S
H1843 C1837 0.959 . S
H1844 C1837 0.961 . S
H1845 C1837 0.960 . S
H1846 C1838 0.930 . S
H1847 C1839 0.929 . S
H1848 C1856 0.929 . S
H1849 C1858 0.930 . S
H1850 C1860 0.930 . S
H1851 C1863 0.929 . S
H1852 C1866 0.930 . S
H1853 C1868 0.960 . S
H1854 C1868 0.960 . S
H1855 C1868 0.960 . S
C1856 H1848 0.929 . S
C1856 C1857 1.377 . S
C1856 C1858 1.384 . S
C1857 C1856 1.377 . S
C1857 C1863 1.390 . S
C1858 H1849 0.930 . S
C1858 C1856 1.384 . S
C1858 C1859 1.372 . S
C1859 C1858 1.372 . S
C1859 C1860 1.400 . S
C1859 C1864 1.490 . S
C1860 H1850 0.930 . S
C1860 C1859 1.400 . S
C1860 C1863 1.386 . S
H1861 C1877 0.930 . S
H1862 C1878 0.931 . S
C1863 H1851 0.929 . S
C1863 C1857 1.390 . S
C1863 C1860 1.386 . S
C1864 C1859 1.490 . S
C1864 C1866 1.395 . S
C1864 C1867 1.403 . S
H1865 C1871 0.930 . S
C1866 H1852 0.930 . S
C1866 C1864 1.395 . S
C1866 C1869 1.403 . S
C1867 C1864 1.403 . S
C1867 C1868 1.524 . S
C1867 C1871 1.400 . S
C1868 H1853 0.960 . S
C1868 H1854 0.960 . S
C1868 H1855 0.960 . S
C1868 C1867 1.524 . S
C1869 C1866 1.403 . S
C1869 C1870 1.392 . S
C1869 C1873 1.495 . S
C1870 C1869 1.392 . S
C1870 C1871 1.385 . S
C1870 C1872 1.478 . S
C1871 H1865 0.930 . S
C1871 C1867 1.400 . S
C1871 C1870 1.385 . S
C1872 C1870 1.478 . S
C1872 C1874 1.381 . S
C1872 C1878 1.383 . S
C1873 C1869 1.495 . S
C1873 H1879 0.959 . S
C1873 H1880 0.961 . S
C1873 H1881 0.960 . S
C1874 C1872 1.381 . S
C1874 C1875 1.394 . S
C1874 H1882 0.930 . S
C1875 C1874 1.394 . S
C1875 C1876 1.383 . S
C1875 H1883 0.929 . S
C1876 C1875 1.383 . S
C1876 C1877 1.377 . S
C1877 H1861 0.930 . S
C1877 C1876 1.377 . S
C1877 C1878 1.379 . S
C1878 H1862 0.931 . S
C1878 C1872 1.383 . S
C1878 C1877 1.379 . S
H1879 C1873 0.959 . S
H1880 C1873 0.961 . S
H1881 C1873 0.960 . S
H1882 C1874 0.930 . S
H1883 C1875 0.929 . S
H1884 C1892 0.929 . S
H1885 C1894 0.930 . S
H1886 C1896 0.930 . S
H1887 C1899 0.929 . S
H1888 C1902 0.930 . S
H1889 C1904 0.960 . S
H1890 C1904 0.960 . S
H1891 C1904 0.960 . S
C1892 H1884 0.929 . S
C1892 C1893 1.377 . S
C1892 C1894 1.384 . S
C1893 C1892 1.377 . S
C1893 C1899 1.390 . S
C1894 H1885 0.930 . S
C1894 C1892 1.384 . S
C1894 C1895 1.372 . S
C1895 C1894 1.372 . S
C1895 C1896 1.400 . S
C1895 C1900 1.490 . S
C1896 H1886 0.930 . S
C1896 C1895 1.400 . S
C1896 C1899 1.386 . S
H1897 C1913 0.930 . S
H1898 C1914 0.931 . S
C1899 H1887 0.929 . S
C1899 C1893 1.390 . S
C1899 C1896 1.386 . S
C1900 C1895 1.490 . S
C1900 C1902 1.395 . S
C1900 C1903 1.403 . S
H1901 C1907 0.930 . S
C1902 H1888 0.930 . S
C1902 C1900 1.395 . S
C1902 C1905 1.403 . S
C1903 C1900 1.403 . S
C1903 C1904 1.524 . S
C1903 C1907 1.400 . S
C1904 H1889 0.960 . S
C1904 H1890 0.960 . S
C1904 H1891 0.960 . S
C1904 C1903 1.524 . S
C1905 C1902 1.403 . S
C1905 C1906 1.392 . S
C1905 C1909 1.495 . S
C1906 C1905 1.392 . S
C1906 C1907 1.385 . S
C1906 C1908 1.478 . S
C1907 H1901 0.930 . S
C1907 C1903 1.400 . S
C1907 C1906 1.385 . S
C1908 C1906 1.478 . S
C1908 C1910 1.381 . S
C1908 C1914 1.383 . S
C1909 C1905 1.495 . S
C1909 H1915 0.959 . S
C1909 H1916 0.961 . S
C1909 H1917 0.960 . S
C1910 C1908 1.381 . S
C1910 C1911 1.394 . S
C1910 H1918 0.930 . S
C1911 C1910 1.394 . S
C1911 C1912 1.383 . S
C1911 H1919 0.929 . S
C1912 C1911 1.383 . S
C1912 C1913 1.377 . S
C1913 H1897 0.930 . S
C1913 C1912 1.377 . S
C1913 C1914 1.379 . S
C1914 H1898 0.931 . S
C1914 C1908 1.383 . S
C1914 C1913 1.379 . S
H1915 C1909 0.959 . S
H1916 C1909 0.961 . S
H1917 C1909 0.960 . S
H1918 C1910 0.930 . S
H1919 C1911 0.929 . S
H1920 C1928 0.929 . S
H1921 C1930 0.930 . S
H1922 C1932 0.930 . S
H1923 C1935 0.929 . S
H1924 C1938 0.930 . S
H1925 C1940 0.960 . S
H1926 C1940 0.960 . S
H1927 C1940 0.960 . S
C1928 H1920 0.929 . S
C1928 C1929 1.377 . S
C1928 C1930 1.384 . S
C1929 C1928 1.377 . S
C1929 C1935 1.390 . S
C1930 H1921 0.930 . S
C1930 C1928 1.384 . S
C1930 C1931 1.372 . S
C1931 C1930 1.372 . S
C1931 C1932 1.400 . S
C1931 C1936 1.490 . S
C1932 H1922 0.930 . S
C1932 C1931 1.400 . S
C1932 C1935 1.386 . S
H1933 C1949 0.930 . S
H1934 C1950 0.931 . S
C1935 H1923 0.929 . S
C1935 C1929 1.390 . S
C1935 C1932 1.386 . S
C1936 C1931 1.490 . S
C1936 C1938 1.395 . S
C1936 C1939 1.403 . S
H1937 C1943 0.930 . S
C1938 H1924 0.930 . S
C1938 C1936 1.395 . S
C1938 C1941 1.403 . S
C1939 C1936 1.403 . S
C1939 C1940 1.524 . S
C1939 C1943 1.400 . S
C1940 H1925 0.960 . S
C1940 H1926 0.960 . S
C1940 H1927 0.960 . S
C1940 C1939 1.524 . S
C1941 C1938 1.403 . S
C1941 C1942 1.392 . S
C1941 C1945 1.495 . S
C1942 C1941 1.392 . S
C1942 C1943 1.385 . S
C1942 C1944 1.478 . S
C1943 H1937 0.930 . S
C1943 C1939 1.400 . S
C1943 C1942 1.385 . S
C1944 C1942 1.478 . S
C1944 C1946 1.381 . S
C1944 C1950 1.383 . S
C1945 C1941 1.495 . S
C1945 H1951 0.959 . S
C1945 H1952 0.961 . S
C1945 H1953 0.960 . S
C1946 C1944 1.381 . S
C1946 C1947 1.394 . S
C1946 H1954 0.930 . S
C1947 C1946 1.394 . S
C1947 C1948 1.383 . S
C1947 H1955 0.929 . S
C1948 C1947 1.383 . S
C1948 C1949 1.377 . S
C1949 H1933 0.930 . S
C1949 C1948 1.377 . S
C1949 C1950 1.379 . S
C1950 H1934 0.931 . S
C1950 C1944 1.383 . S
C1950 C1949 1.379 . S
H1951 C1945 0.959 . S
H1952 C1945 0.961 . S
H1953 C1945 0.960 . S
H1954 C1946 0.930 . S
H1955 C1947 0.929 . S
H1956 C1964 0.929 . S
H1957 C1966 0.930 . S
H1958 C1968 0.930 . S
H1959 C1971 0.929 . S
H1960 C1974 0.930 . S
H1961 C1976 0.960 . S
H1962 C1976 0.960 . S
H1963 C1976 0.960 . S
C1964 H1956 0.929 . S
C1964 C1965 1.377 . S
C1964 C1966 1.384 . S
C1965 C1964 1.377 . S
C1965 C1971 1.390 . S
C1966 H1957 0.930 . S
C1966 C1964 1.384 . S
C1966 C1967 1.372 . S
C1967 C1966 1.372 . S
C1967 C1968 1.400 . S
C1967 C1972 1.490 . S
C1968 H1958 0.930 . S
C1968 C1967 1.400 . S
C1968 C1971 1.386 . S
H1969 C1985 0.930 . S
H1970 C1986 0.931 . S
C1971 H1959 0.929 . S
C1971 C1965 1.390 . S
C1971 C1968 1.386 . S
C1972 C1967 1.490 . S
C1972 C1974 1.395 . S
C1972 C1975 1.403 . S
H1973 C1979 0.930 . S
C1974 H1960 0.930 . S
C1974 C1972 1.395 . S
C1974 C1977 1.403 . S
C1975 C1972 1.403 . S
C1975 C1976 1.524 . S
C1975 C1979 1.400 . S
C1976 H1961 0.960 . S
C1976 H1962 0.960 . S
C1976 H1963 0.960 . S
C1976 C1975 1.524 . S
C1977 C1974 1.403 . S
C1977 C1978 1.392 . S
C1977 C1981 1.495 . S
C1978 C1977 1.392 . S
C1978 C1979 1.385 . S
C1978 C1980 1.478 . S
C1979 H1973 0.930 . S
C1979 C1975 1.400 . S
C1979 C1978 1.385 . S
C1980 C1978 1.478 . S
C1980 C1982 1.381 . S
C1980 C1986 1.383 . S
C1981 C1977 1.495 . S
C1981 H1987 0.959 . S
C1981 H1988 0.961 . S
C1981 H1989 0.960 . S
C1982 C1980 1.381 . S
C1982 C1983 1.394 . S
C1982 H1990 0.930 . S
C1983 C1982 1.394 . S
C1983 C1984 1.383 . S
C1983 H1991 0.929 . S
C1984 C1983 1.383 . S
C1984 C1985 1.377 . S
C1985 H1969 0.930 . S
C1985 C1984 1.377 . S
C1985 C1986 1.379 . S
C1986 H1970 0.931 . S
C1986 C1980 1.383 . S
C1986 C1985 1.379 . S
H1987 C1981 0.959 . S
H1988 C1981 0.961 . S
H1989 C1981 0.960 . S
H1990 C1982 0.930 . S
H1991 C1983 0.929 . S
H1992 C2000 0.929 . S
H1993 C2002 0.930 . S
H1994 C2004 0.930 . S
H1995 C2007 0.929 . S
H1996 C2010 0.930 . S
H1997 C2012 0.960 . S
H1998 C2012 0.960 . S
H1999 C2012 0.960 . S
C2000 H1992 0.929 . S
C2000 C2001 1.377 . S
C2000 C2002 1.384 . S
C2001 C2000 1.377 . S
C2001 C2007 1.390 . S
C2002 H1993 0.930 . S
C2002 C2000 1.384 . S
C2002 C2003 1.372 . S
C2003 C2002 1.372 . S
C2003 C2004 1.400 . S
C2003 C2008 1.490 . S
C2004 H1994 0.930 . S
C2004 C2003 1.400 . S
C2004 C2007 1.386 . S
H2005 C2021 0.930 . S
H2006 C2022 0.931 . S
C2007 H1995 0.929 . S
C2007 C2001 1.390 . S
C2007 C2004 1.386 . S
C2008 C2003 1.490 . S
C2008 C2010 1.395 . S
C2008 C2011 1.403 . S
H2009 C2015 0.930 . S
C2010 H1996 0.930 . S
C2010 C2008 1.395 . S
C2010 C2013 1.403 . S
C2011 C2008 1.403 . S
C2011 C2012 1.524 . S
C2011 C2015 1.400 . S
C2012 H1997 0.960 . S
C2012 H1998 0.960 . S
C2012 H1999 0.960 . S
C2012 C2011 1.524 . S
C2013 C2010 1.403 . S
C2013 C2014 1.392 . S
C2013 C2017 1.495 . S
C2014 C2013 1.392 . S
C2014 C2015 1.385 . S
C2014 C2016 1.478 . S
C2015 H2009 0.930 . S
C2015 C2011 1.400 . S
C2015 C2014 1.385 . S
C2016 C2014 1.478 . S
C2016 C2018 1.381 . S
C2016 C2022 1.383 . S
C2017 C2013 1.495 . S
C2017 H2023 0.959 . S
C2017 H2024 0.961 . S
C2017 H2025 0.960 . S
C2018 C2016 1.381 . S
C2018 C2019 1.394 . S
C2018 H2026 0.930 . S
C2019 C2018 1.394 . S
C2019 C2020 1.383 . S
C2019 H2027 0.929 . S
C2020 C2019 1.383 . S
C2020 C2021 1.377 . S
C2021 H2005 0.930 . S
C2021 C2020 1.377 . S
C2021 C2022 1.379 . S
C2022 H2006 0.931 . S
C2022 C2016 1.383 . S
C2022 C2021 1.379 . S
H2023 C2017 0.959 . S
H2024 C2017 0.961 . S
H2025 C2017 0.960 . S
H2026 C2018 0.930 . S
H2027 C2019 0.929 . S
H2028 C2036 0.929 . S
H2029 C2038 0.930 . S
H2030 C2040 0.930 . S
H2031 C2043 0.929 . S
H2032 C2046 0.930 . S
H2033 C2048 0.960 . S
H2034 C2048 0.960 . S
H2035 C2048 0.960 . S
C2036 H2028 0.929 . S
C2036 C2037 1.377 . S
C2036 C2038 1.384 . S
C2037 C2036 1.377 . S
C2037 C2043 1.390 . S
C2038 H2029 0.930 . S
C2038 C2036 1.384 . S
C2038 C2039 1.372 . S
C2039 C2038 1.372 . S
C2039 C2040 1.400 . S
C2039 C2044 1.490 . S
C2040 H2030 0.930 . S
C2040 C2039 1.400 . S
C2040 C2043 1.386 . S
H2041 C2057 0.930 . S
H2042 C2058 0.931 . S
C2043 H2031 0.929 . S
C2043 C2037 1.390 . S
C2043 C2040 1.386 . S
C2044 C2039 1.490 . S
C2044 C2046 1.395 . S
C2044 C2047 1.403 . S
H2045 C2051 0.930 . S
C2046 H2032 0.930 . S
C2046 C2044 1.395 . S
C2046 C2049 1.403 . S
C2047 C2044 1.403 . S
C2047 C2048 1.524 . S
C2047 C2051 1.400 . S
C2048 H2033 0.960 . S
C2048 H2034 0.960 . S
C2048 H2035 0.960 . S
C2048 C2047 1.524 . S
C2049 C2046 1.403 . S
C2049 C2050 1.392 . S
C2049 C2053 1.495 . S
C2050 C2049 1.392 . S
C2050 C2051 1.385 . S
C2050 C2052 1.478 . S
C2051 H2045 0.930 . S
C2051 C2047 1.400 . S
C2051 C2050 1.385 . S
C2052 C2050 1.478 . S
C2052 C2054 1.381 . S
C2052 C2058 1.383 . S
C2053 C2049 1.495 . S
C2053 H2059 0.959 . S
C2053 H2060 0.961 . S
C2053 H2061 0.960 . S
C2054 C2052 1.381 . S
C2054 C2055 1.394 . S
C2054 H2062 0.930 . S
C2055 C2054 1.394 . S
C2055 C2056 1.383 . S
C2055 H2063 0.929 . S
C2056 C2055 1.383 . S
C2056 C2057 1.377 . S
C2057 H2041 0.930 . S
C2057 C2056 1.377 . S
C2057 C2058 1.379 . S
C2058 H2042 0.931 . S
C2058 C2052 1.383 . S
C2058 C2057 1.379 . S
H2059 C2053 0.959 . S
H2060 C2053 0.961 . S
H2061 C2053 0.960 . S
H2062 C2054 0.930 . S
H2063 C2055 0.929 . S
C345 C218 1.180 . S
C364 C7 1.162 . S
C381 C175 1.285 . S
C400 C22 1.297 . S
C417 C189 1.289 . S
C436 C35 1.301 . S
C453 C203 1.289 . S
C472 C50 1.298 . S
C489 C204 1.287 . S
C508 C21 1.253 . S
C525 C36 1.281 . S
C544 C217 1.276 . S
C561 C176 1.281 . S
C580 C49 1.281 . S
C597 C190 1.160 . S
C616 C8 1.161 . S
C633 C260 1.098 . S
C652 C64 1.097 . S
C669 C77 1.372 . S
C688 C273 1.389 . S
C705 C92 1.124 . S
C724 C232 1.121 . S
C741 C245 1.368 . S
C760 C105 1.349 . S
C777 C315 1.412 . S
C796 C119 1.427 . S
C813 C133 1.128 . S
C832 C330 1.134 . S
C849 C147 1.430 . S
C868 C287 1.424 . S
C885 C161 1.102 . S
C904 C302 1.108 . S
C921 C246 1.163 . S
C940 C162 1.161 . S
C957 C329 1.333 . S
C976 C78 1.349 . S
C993 C91 1.294 . S
C1012 C288 1.303 . S
C1029 C301 1.323 . S
C1048 C106 1.339 . S
C1065 C316 1.237 . S
C1084 C63 1.209 . S
C1101 C134 1.239 . S
C1120 C274 1.237 . S
C1137 C231 1.257 . S
C1156 C148 1.260 . S
C1173 C259 1.248 . S
C1192 C120 1.253 . S
C1209 C3 0.657 . S
C1228 C59 0.692 . S
C1245 C79 0.726 . S
C1264 C23 0.752 . S
C1281 C31 0.729 . S
C1300 C87 0.726 . S
C1317 C51 0.724 . S
C1336 C107 0.766 . S
C1353 C121 0.715 . S
C1372 C17 0.711 . S
C1389 C135 0.670 . S
C1408 C37 0.635 . S
C1425 C149 0.726 . S
C1444 C45 0.752 . S
C1461 C9 0.630 . S
C1480 C163 0.678 . S
C1497 C157 0.611 . S
C1516 C65 0.586 . S
C1533 C73 0.796 . S
C1552 C115 0.827 . S
C1569 C93 0.640 . S
C1588 C129 0.623 . S
C1605 C143 0.794 . S
C1624 C101 0.775 . S
C1641 C227 0.660 . S
C1660 C177 0.726 . S
C1677 C247 0.659 . S
C1696 C191 0.704 . S
C1713 C205 0.670 . S
C1732 C255 0.692 . S
C1749 C213 0.695 . S
C1768 C275 0.722 . S
C1785 C185 0.726 . S
C1804 C289 0.660 . S
C1821 C199 0.754 . S
C1840 C297 0.733 . S
C1857 C317 0.700 . S
C1876 C219 0.626 . S
C1893 C171 0.741 . S
C1912 C325 0.789 . S
C1929 C233 0.648 . S
C1948 C331 0.575 . S
C1965 C283 0.760 . S
C1984 C241 0.799 . S
C2001 C261 0.612 . S
C2020 C303 0.638 . S
C2037 C311 0.773 . S
C2056 C269 0.732 . S
