# Generated by pormake.
# Topology yfy, (5)-cn, num edge types: 1
# Building blocks:
#     Node 0, Type 0, BuildingBlock: XOMCOT_clean_sbu_1, # of connection points: 5
#     Node 1, Type 0, BuildingBlock: XOMCOT_clean_sbu_1, # of connection points: 5
#     Node 2, Type 0, BuildingBlock: XOMCOT_clean_sbu_1, # of connection points: 5
#     Node 3, Type 0, BuildingBlock: XOMCOT_clean_sbu_1, # of connection points: 5
#     Node 4, Type 0, BuildingBlock: XOMCOT_clean_sbu_1, # of connection points: 5
#     Node 5, Type 0, BuildingBlock: XOMCOT_clean_sbu_1, # of connection points: 5
#     Node 6, Type 0, BuildingBlock: XOMCOT_clean_sbu_1, # of connection points: 5
#     Node 7, Type 0, BuildingBlock: XOMCOT_clean_sbu_1, # of connection points: 5
#     Node 8, Type 0, BuildingBlock: XOMCOT_clean_sbu_1, # of connection points: 5
#     Node 9, Type 0, BuildingBlock: XOMCOT_clean_sbu_1, # of connection points: 5
#     Node 10, Type 0, BuildingBlock: XOMCOT_clean_sbu_1, # of connection points: 5
#     Node 11, Type 0, BuildingBlock: XOMCOT_clean_sbu_1, # of connection points: 5
#     Node 12, Type 0, BuildingBlock: XOMCOT_clean_sbu_1, # of connection points: 5
#     Node 13, Type 0, BuildingBlock: XOMCOT_clean_sbu_1, # of connection points: 5
#     Node 14, Type 0, BuildingBlock: XOMCOT_clean_sbu_1, # of connection points: 5
#     Node 15, Type 0, BuildingBlock: XOMCOT_clean_sbu_1, # of connection points: 5
#     Edge 16, Type (0, 0), BuildingBlock: TEMPAE_clean_linker_10, # of connection points: 2
#     Edge 17, Type (0, 0), BuildingBlock: TEMPAE_clean_linker_10, # of connection points: 2
#     Edge 18, Type (0, 0), BuildingBlock: TEMPAE_clean_linker_10, # of connection points: 2
#     Edge 19, Type (0, 0), BuildingBlock: TEMPAE_clean_linker_10, # of connection points: 2
#     Edge 20, Type (0, 0), BuildingBlock: TEMPAE_clean_linker_10, # of connection points: 2
#     Edge 21, Type (0, 0), BuildingBlock: TEMPAE_clean_linker_10, # of connection points: 2
#     Edge 22, Type (0, 0), BuildingBlock: TEMPAE_clean_linker_10, # of connection points: 2
#     Edge 23, Type (0, 0), BuildingBlock: TEMPAE_clean_linker_10, # of connection points: 2
#     Edge 24, Type (0, 0), BuildingBlock: TEMPAE_clean_linker_10, # of connection points: 2
#     Edge 25, Type (0, 0), BuildingBlock: TEMPAE_clean_linker_10, # of connection points: 2
#     Edge 26, Type (0, 0), BuildingBlock: TEMPAE_clean_linker_10, # of connection points: 2
#     Edge 27, Type (0, 0), BuildingBlock: TEMPAE_clean_linker_10, # of connection points: 2
#     Edge 28, Type (0, 0), BuildingBlock: TEMPAE_clean_linker_10, # of connection points: 2
#     Edge 29, Type (0, 0), BuildingBlock: TEMPAE_clean_linker_10, # of connection points: 2
#     Edge 30, Type (0, 0), BuildingBlock: TEMPAE_clean_linker_10, # of connection points: 2
#     Edge 31, Type (0, 0), BuildingBlock: TEMPAE_clean_linker_10, # of connection points: 2
#     Edge 32, Type (0, 0), BuildingBlock: TEMPAE_clean_linker_10, # of connection points: 2
#     Edge 33, Type (0, 0), BuildingBlock: TEMPAE_clean_linker_10, # of connection points: 2
#     Edge 34, Type (0, 0), BuildingBlock: TEMPAE_clean_linker_10, # of connection points: 2
#     Edge 35, Type (0, 0), BuildingBlock: TEMPAE_clean_linker_10, # of connection points: 2
#     Edge 36, Type (0, 0), BuildingBlock: TEMPAE_clean_linker_10, # of connection points: 2
#     Edge 37, Type (0, 0), BuildingBlock: TEMPAE_clean_linker_10, # of connection points: 2
#     Edge 38, Type (0, 0), BuildingBlock: TEMPAE_clean_linker_10, # of connection points: 2
#     Edge 39, Type (0, 0), BuildingBlock: TEMPAE_clean_linker_10, # of connection points: 2
#     Edge 40, Type (0, 0), BuildingBlock: TEMPAE_clean_linker_10, # of connection points: 2
#     Edge 41, Type (0, 0), BuildingBlock: TEMPAE_clean_linker_10, # of connection points: 2
#     Edge 42, Type (0, 0), BuildingBlock: TEMPAE_clean_linker_10, # of connection points: 2
#     Edge 43, Type (0, 0), BuildingBlock: TEMPAE_clean_linker_10, # of connection points: 2
#     Edge 44, Type (0, 0), BuildingBlock: TEMPAE_clean_linker_10, # of connection points: 2
#     Edge 45, Type (0, 0), BuildingBlock: TEMPAE_clean_linker_10, # of connection points: 2
#     Edge 46, Type (0, 0), BuildingBlock: TEMPAE_clean_linker_10, # of connection points: 2
#     Edge 47, Type (0, 0), BuildingBlock: TEMPAE_clean_linker_10, # of connection points: 2
#     Edge 48, Type (0, 0), BuildingBlock: TEMPAE_clean_linker_10, # of connection points: 2
#     Edge 49, Type (0, 0), BuildingBlock: TEMPAE_clean_linker_10, # of connection points: 2
#     Edge 50, Type (0, 0), BuildingBlock: TEMPAE_clean_linker_10, # of connection points: 2
#     Edge 51, Type (0, 0), BuildingBlock: TEMPAE_clean_linker_10, # of connection points: 2
#     Edge 52, Type (0, 0), BuildingBlock: TEMPAE_clean_linker_10, # of connection points: 2
#     Edge 53, Type (0, 0), BuildingBlock: TEMPAE_clean_linker_10, # of connection points: 2
#     Edge 54, Type (0, 0), BuildingBlock: TEMPAE_clean_linker_10, # of connection points: 2
#     Edge 55, Type (0, 0), BuildingBlock: TEMPAE_clean_linker_10, # of connection points: 2
# Relax obj value: 0.170
# Max RMSD: 0.197
# Mean RMSD: 0.197
data_MOF--net-yfy--node1-XOMCOT_clean_sbu_1--edge1-TEMPAE_clean_linker_10
_symmetry_space_group_name_H-M    P1
_symmetry_Int_Tables_number       1
_symmetry_cell_setting            triclinic
loop_
_symmetry_equiv_pos_as_xyz
'x, y, z'
_cell_length_a     43.658566
_cell_length_b     43.7401
_cell_length_c     50.798289
_cell_angle_alpha  90.057745
_cell_angle_beta   90.040154
_cell_angle_gamma 90.133842
loop_
_atom_site_label
_atom_site_type_symbol
_atom_site_fract_x
_atom_site_fract_y
_atom_site_fract_z
_atom_type_partial_charge
C0 C 0.98272 0.3008 0.33644 0.0
C1 C 0.96433 0.27557 0.33416 0.0
N2 N 0.97692 0.2564 0.3165 0.0
N3 N 1.00707 0.29789 0.32037 0.0
C4 C 1.00283 0.27057 0.30816 0.0
H5 H 0.97879 0.32 0.34941 0.0
Co6 Co 0.0377 0.32798 0.32032 0.0
C7 C 0.09492 0.29941 0.30227 0.0
O8 O 0.10916 0.31727 0.31908 0.0
N9 N 0.06789 0.35998 0.32041 0.0
C10 C 0.10289 0.39498 0.33158 0.0
C11 C 0.08218 0.37396 0.34086 0.0
C12 C 0.08013 0.37379 0.29886 0.0
N13 N 0.10164 0.39486 0.30518 0.0
O14 O 0.0201 0.34537 0.28924 0.0
H15 H 0.07886 0.36915 0.36141 0.0
H16 H 0.07423 0.36767 0.27883 0.0
O17 O 0.06563 0.30071 0.30021 0.0
C18 C 1.00073 0.36458 0.29822 0.0
O19 O 0.99902 0.36856 0.32381 0.0
N20 N 0.05111 0.3123 0.3526 0.0
C21 C 0.05328 0.29005 0.40405 0.0
C22 C 0.06455 0.27246 0.38306 0.0
C23 C 0.06277 0.28382 0.35731 0.0
C24 C 0.0395 0.32917 0.37275 0.0
C25 C 0.04121 0.31902 0.39856 0.0
H26 H 0.06886 0.26883 0.34132 0.0
H27 H 0.02814 0.35058 0.36861 0.0
H28 H 1.01865 0.26094 0.29403 0.0
H29 H 0.9431 0.27167 0.34466 0.0
H30 H 0.11786 0.40925 0.34338 0.0
H31 H 0.07326 0.24961 0.38631 0.0
H32 H 0.03251 0.33368 0.41402 0.0
C33 C 0.82638 0.98317 0.33207 0.0
C34 C 0.85179 0.96516 0.32932 0.0
N35 N 0.87045 0.97815 0.31145 0.0
N36 N 0.82877 1.00768 0.31613 0.0
C37 C 0.85589 1.00389 0.30352 0.0
H38 H 0.80746 0.9789 0.34528 0.0
Co39 Co 0.79857 0.03802 0.31623 0.0
C40 C 0.82717 0.0954 0.29791 0.0
O41 O 0.80863 0.10972 0.31406 0.0
N42 N 0.7664 0.06777 0.31647 0.0
C43 C 0.72827 0.09893 0.32795 0.0
C44 C 0.75075 0.07977 0.33702 0.0
C45 C 0.75252 0.08018 0.29503 0.0
N46 N 0.72929 0.09922 0.30152 0.0
O47 O 0.7808 0.0202 0.28523 0.0
H48 H 0.75485 0.07533 0.35754 0.0
H49 H 0.75915 0.07507 0.27498 0.0
O50 O 0.82582 0.06612 0.29607 0.0
C51 C 0.76178 1.00078 0.29459 0.0
O52 O 0.75837 0.99929 0.32025 0.0
N53 N 0.81448 0.05158 0.3485 0.0
C54 C 0.83722 0.0539 0.39984 0.0
C55 C 0.85431 0.06595 0.37887 0.0
C56 C 0.84276 0.06404 0.35316 0.0
C57 C 0.79808 0.03933 0.36868 0.0
C58 C 0.8085 0.04101 0.39443 0.0
H59 H 0.85752 0.07067 0.33716 0.0
H60 H 0.77697 0.02727 0.36459 0.0
H61 H 0.86517 0.01998 0.28945 0.0
H62 H 0.85625 0.94404 0.33974 0.0
H63 H 0.71253 0.11192 0.34001 0.0
H64 H 0.87699 0.07532 0.38209 0.0
H65 H 0.79431 0.03158 0.40992 0.0
C66 C 0.13858 0.8333 0.33834 0.0
C67 C 0.16358 0.85205 0.3352 0.0
N68 N 0.16486 0.86094 0.30983 0.0
N69 N 0.12353 0.8308 0.31523 0.0
C70 C 0.14094 0.84679 0.298 0.0
H71 H 0.13145 0.8228 0.3566 0.0
Co72 Co 0.08716 0.80829 0.30955 0.0
C73 C 0.06865 0.87113 0.28617 0.0
O74 O 0.09346 0.8862 0.29289 0.0
N75 N 0.05102 0.78559 0.30386 0.0
C76 C 1.00134 0.77484 0.30171 0.0
C77 C 0.02266 0.79626 0.30896 0.0
C78 C 0.04625 0.75741 0.29347 0.0
N79 N 1.01606 0.75026 0.29198 0.0
O80 O 0.10475 0.79171 0.27793 0.0
H81 H 1.01768 0.81859 0.31703 0.0
H82 H 0.06449 0.74254 0.28696 0.0
O83 O 0.06643 0.84252 0.29129 0.0
C84 C 0.12257 0.77089 0.28675 0.0
O85 O 0.12295 0.76568 0.31223 0.0
N86 N 0.0721 0.82132 0.34224 0.0
C87 C 0.06329 0.83292 0.39559 0.0
C88 C 0.06371 0.85703 0.3774 0.0
C89 C 0.06829 0.85074 0.35068 0.0
C90 C 0.07007 0.79762 0.3595 0.0
C91 C 0.06537 0.80286 0.38619 0.0
H92 H 0.07093 0.86966 0.3374 0.0
H93 H 0.07376 0.77449 0.35266 0.0
H94 H 0.13546 0.84892 0.2773 0.0
H95 H 0.17867 0.8598 0.35076 0.0
H96 H 0.97676 0.77776 0.30268 0.0
H97 H 0.06245 0.88058 0.38391 0.0
H98 H 0.06462 0.78354 0.3995 0.0
C99 C 0.30387 0.1429 0.33801 0.0
C100 C 0.28031 0.16351 0.33646 0.0
N101 N 0.26038 0.15383 0.31794 0.0
N102 N 0.29905 0.12021 0.32055 0.0
C103 C 0.27244 0.12757 0.30839 0.0
H104 H 0.32308 0.14401 0.35143 0.0
Co105 Co 0.32464 0.08613 0.31788 0.0
C106 C 0.29305 0.04599 0.28051 0.0
O107 O 0.31716 0.04682 0.26506 0.0
N108 N 0.35039 0.05133 0.31528 0.0
C109 C 0.3664 1.00318 0.3187 0.0
C110 C 0.34442 0.02377 0.3262 0.0
C111 C 0.37609 0.0466 0.30084 0.0
N112 N 0.38627 1.01748 0.30265 0.0
O113 O 0.34027 0.10193 0.28543 0.0
H114 H 0.32452 1.01842 0.338 0.0
H115 H 0.38669 0.06378 0.28853 0.0
O116 O 0.29247 0.06257 0.30117 0.0
C117 C 0.36068 0.1211 0.29276 0.0
O118 O 0.36718 0.12323 0.31796 0.0
N119 N 0.31143 0.0739 0.35108 0.0
C120 C 0.29634 0.07027 0.40418 0.0
C121 C 0.27363 0.06686 0.3848 0.0
C122 C 0.28166 0.06897 0.35818 0.0
C123 C 0.33384 0.07611 0.36959 0.0
C124 C 0.32688 0.07396 0.39622 0.0
H125 H 0.26378 0.06862 0.34348 0.0
H126 H 0.35714 0.08089 0.36361 0.0
H127 H 0.26164 0.11354 0.29347 0.0
H128 H 0.27804 0.1841 0.34813 0.0
H129 H 0.36674 0.97907 0.32348 0.0
H130 H 0.24976 0.0643 0.39016 0.0
H131 H 0.3452 0.07618 0.41049 0.0
C132 C 0.98897 0.82056 0.66011 0.0
C133 C 0.96721 0.84312 0.66249 0.0
N134 N 0.97682 0.86335 0.68077 0.0
N135 N 1.01233 0.82661 0.67667 0.0
C136 C 1.00414 0.85264 0.68921 0.0
H137 H 0.98825 0.80137 0.64668 0.0
Co138 Co 0.04842 0.80392 0.67888 0.0
C139 C 0.08726 0.84037 0.71468 0.0
O140 O 0.0893 0.81719 0.73101 0.0
N141 N 0.08557 0.78111 0.68135 0.0
C142 C 0.13496 0.76909 0.67725 0.0
C143 C 0.11245 0.78933 0.67013 0.0
C144 C 0.09274 0.7559 0.69568 0.0
N145 N 0.1226 0.7481 0.6934 0.0
O146 O 0.03411 0.78755 0.71154 0.0
H147 H 0.11589 0.80952 0.65822 0.0
H148 H 0.07673 0.74375 0.70807 0.0
O149 O 0.06989 0.83826 0.69456 0.0
C150 C 1.01943 0.76388 0.70366 0.0
O151 O 0.02099 0.75644 0.67862 0.0
N152 N 0.05892 0.81739 0.64533 0.0
C153 C 0.06084 0.83163 0.59201 0.0
C154 C 0.06153 0.85494 0.611 0.0
C155 C 0.06025 0.84731 0.63773 0.0
C156 C 0.05919 0.79453 0.62715 0.0
C157 C 0.06053 0.80111 0.60042 0.0
H158 H 0.05822 0.86537 0.6521 0.0
H159 H 0.0571 0.77101 0.63347 0.0
H160 H 1.01844 0.86422 0.7035 0.0
H161 H 0.9461 0.84467 0.65139 0.0
H162 H 0.15893 0.77057 0.67196 0.0
H163 H 0.06132 0.87878 0.60526 0.0
H164 H 0.06037 0.78242 0.58641 0.0
C165 C 0.30643 0.99684 0.66293 0.0
C166 C 0.28575 0.97321 0.66496 0.0
N167 N 0.26698 0.97876 0.68554 0.0
N168 N 0.30075 1.01746 0.68196 0.0
C169 C 0.27678 1.0058 0.69555 0.0
H170 H 0.32411 0.99923 0.64816 0.0
Co171 Co 0.32196 0.05415 0.68643 0.0
C172 C 0.28553 0.08829 0.72461 0.0
O173 O 0.30897 0.08811 0.74085 0.0
N174 N 0.34319 0.09184 0.69117 0.0
C175 C 0.35073 0.14221 0.69321 0.0
C176 C 0.33217 0.11938 0.68367 0.0
C177 C 0.36884 0.09875 0.70509 0.0
N178 N 0.37373 0.12923 0.70679 0.0
O179 O 0.33868 0.03816 0.71828 0.0
H180 H 0.31098 0.12283 0.67305 0.0
H181 H 0.38275 0.08207 0.71518 0.0
O182 O 0.28685 0.07267 0.70342 0.0
C183 C 0.36309 0.02472 0.7107 0.0
O184 O 0.37144 0.02739 0.68595 0.0
N185 N 0.30803 0.06692 0.65361 0.0
C186 C 0.294 0.07115 0.60033 0.0
C187 C 0.27052 0.06977 0.61918 0.0
C188 C 0.27806 0.06748 0.6459 0.0
C189 C 0.33099 0.06974 0.63569 0.0
C190 C 0.32449 0.07229 0.609 0.0
H191 H 0.25999 0.06396 0.66011 0.0
H192 H 0.35459 0.0684 0.64208 0.0
H193 H 0.26678 1.01702 0.71244 0.0
H194 H 0.28424 0.9539 0.6517 0.0
H195 H 0.34711 0.16653 0.69091 0.0
H196 H 0.24672 0.06856 0.61325 0.0
H197 H 0.3433 0.07388 0.59517 0.0
C198 C 0.14215 0.30432 0.65673 0.0
C199 C 0.16602 0.28465 0.66138 0.0
N200 N 0.16471 0.27552 0.68668 0.0
N201 N 0.1252 0.30715 0.67879 0.0
C202 C 0.14035 0.29041 0.69699 0.0
H203 H 0.13682 0.31501 0.6381 0.0
Co204 Co 0.08889 0.33009 0.6814 0.0
C205 C 0.06605 0.27109 0.7099 0.0
O206 O 0.09004 0.2534 0.70699 0.0
N207 N 0.05206 0.35325 0.68439 0.0
C208 C 1.0023 0.36408 0.68269 0.0
C209 C 0.02455 0.34397 0.67509 0.0
C210 C 0.04551 0.37908 0.69814 0.0
N211 N 1.01526 0.38616 0.69751 0.0
O212 O 0.10589 0.35035 0.71171 0.0
H213 H 0.02044 0.32308 0.66425 0.0
H214 H 0.06225 0.39164 0.7095 0.0
O215 O 0.06674 0.29857 0.70134 0.0
C216 C 0.12043 0.37222 0.70042 0.0
O217 O 0.11753 0.3751 0.67477 0.0
N218 N 0.0753 0.3131 0.64954 0.0
C219 C 0.06797 0.29469 0.59732 0.0
C220 C 0.07065 0.27294 0.61752 0.0
C221 C 0.07419 0.28264 0.64361 0.0
C222 C 0.07187 0.33443 0.63028 0.0
C223 C 0.06728 0.32576 0.60427 0.0
H224 H 0.07843 0.26572 0.65852 0.0
H225 H 0.07366 0.35847 0.63507 0.0
H226 H 0.13325 0.2887 0.71734 0.0
H227 H 0.18208 0.27647 0.64678 0.0
H228 H 0.97824 0.36197 0.67796 0.0
H229 H 0.07175 0.24874 0.61316 0.0
H230 H 0.0643 0.34349 0.58964 0.0
C231 C 0.83596 0.13938 0.65242 0.0
C232 C 0.85533 0.16406 0.65444 0.0
N233 N 0.86814 0.16396 0.67861 0.0
N234 N 0.83684 0.12318 0.67496 0.0
C235 C 0.85539 0.13966 0.69101 0.0
H236 H 0.82276 0.13307 0.63522 0.0
Co237 Co 0.81554 0.08612 0.6803 0.0
C238 C 0.87848 0.06711 0.70442 0.0
O239 O 0.89501 0.09126 0.69861 0.0
N240 N 0.79379 0.049 0.68585 0.0
C241 C 0.7847 0.99907 0.68911 0.0
C242 C 0.80551 0.02091 0.68157 0.0
C243 C 0.76549 0.04347 0.69581 0.0
N244 N 0.75936 1.01317 0.69814 0.0
O245 O 0.79821 0.10308 0.7117 0.0
H246 H 0.8282 1.01649 0.67393 0.0
H247 H 0.74975 0.06127 0.7015 0.0
O248 O 0.84999 0.0663 0.69849 0.0
C249 C 0.7748 0.11705 0.70253 0.0
O250 O 0.76929 0.11516 0.67712 0.0
N251 N 0.82966 0.07156 0.64772 0.0
C252 C 0.84304 0.06297 0.59454 0.0
C253 C 0.86657 0.06845 0.61282 0.0
C254 C 0.8594 0.07255 0.63941 0.0
C255 C 0.80673 0.06498 0.63044 0.0
C256 C 0.81297 0.05986 0.60397 0.0
H257 H 0.87745 0.07912 0.65267 0.0
H258 H 0.78317 0.06511 0.63699 0.0
H259 H 0.86044 0.13318 0.71108 0.0
H260 H 0.86015 0.18035 0.63897 0.0
H261 H 0.78862 0.97467 0.68882 0.0
H262 H 0.89007 0.07148 0.60652 0.0
H263 H 0.79408 0.05478 0.59085 0.0
C264 C 0.48602 0.80385 0.83928 0.0
C265 C 0.46695 0.77943 0.835 0.0
N266 N 0.47646 0.76438 0.81332 0.0
N267 N 0.50791 0.8044 0.82065 0.0
C268 C 0.50158 0.78001 0.80501 0.0
H269 H 0.48405 0.82029 0.85508 0.0
Co270 Co 0.53754 0.83541 0.82023 0.0
C271 C 0.59388 0.80968 0.79779 0.0
O272 O 0.60869 0.82582 0.81553 0.0
N273 N 0.56672 0.86831 0.81977 0.0
C274 C 0.59947 0.90565 0.83018 0.0
C275 C 0.57874 0.88489 0.83982 0.0
C276 C 0.57987 0.88067 0.79795 0.0
N277 N 0.60035 0.90289 0.80386 0.0
O278 O 0.51676 0.85453 0.79141 0.0
H279 H 0.57346 0.88248 0.86037 0.0
H280 H 0.5756 0.87245 0.77818 0.0
O281 O 0.56448 0.81044 0.797 0.0
C282 C 0.49978 0.87413 0.80303 0.0
O283 O 0.50061 0.87523 0.82888 0.0
N284 N 0.55456 0.81817 0.85082 0.0
C285 C 0.5686 0.79564 0.90061 0.0
C286 C 0.57545 0.77842 0.87813 0.0
C287 C 0.56783 0.79 0.85326 0.0
C288 C 0.54566 0.83371 0.87273 0.0
C289 C 0.55329 0.82344 0.89773 0.0
H290 H 0.57128 0.77565 0.83633 0.0
H291 H 0.53189 0.85409 0.87078 0.0
H292 H 0.51476 0.77417 0.78769 0.0
H293 H 0.44771 0.7731 0.84727 0.0
H294 H 0.61307 0.9215 0.8417 0.0
H295 H 0.58602 0.75612 0.87981 0.0
H296 H 0.54623 0.83659 0.91476 0.0
C297 C 0.33233 0.47571 0.82245 0.0
C298 C 0.35345 0.4527 0.81938 0.0
N299 N 0.37626 0.46282 0.80368 0.0
N300 N 0.34146 0.50036 0.8087 0.0
C301 C 0.36821 0.49183 0.79738 0.0
H302 H 0.31165 0.47461 0.83413 0.0
Co303 Co 0.32009 0.53747 0.80736 0.0
C304 C 0.35714 0.57602 0.7718 0.0
O305 O 0.33389 0.57854 0.75551 0.0
N306 N 0.29868 0.57562 0.80563 0.0
C307 C 0.28923 0.62545 0.80963 0.0
C308 C 0.30842 0.60204 0.81666 0.0
C309 C 0.27354 0.58397 0.79162 0.0
N310 N 0.26727 0.61423 0.79363 0.0
O311 O 0.30165 0.52421 0.77486 0.0
H312 H 0.32891 0.60451 0.82845 0.0
H313 H 0.26088 0.56856 0.77906 0.0
O314 O 0.35502 0.55799 0.79144 0.0
C315 C 0.27744 0.51113 0.78372 0.0
O316 O 0.27192 0.51269 0.80913 0.0
N317 N 0.33483 0.54699 0.84084 0.0
C318 C 0.34945 0.55025 0.89422 0.0
C319 C 0.37268 0.54797 0.87515 0.0
C320 C 0.36484 0.54629 0.84842 0.0
C321 C 0.31214 0.54965 0.85902 0.0
C322 C 0.31894 0.55207 0.88565 0.0
H323 H 0.38267 0.5427 0.83403 0.0
H324 H 0.28844 0.54921 0.85281 0.0
H325 H 0.38186 0.50688 0.78524 0.0
H326 H 0.35183 0.43018 0.82805 0.0
H327 H 0.2918 0.64905 0.81562 0.0
H328 H 0.3965 0.54609 0.88082 0.0
H329 H 0.30021 0.55464 0.89943 0.0
C330 C 0.66626 0.3241 0.81473 0.0
C331 C 0.68556 0.3485 0.81063 0.0
N332 N 0.66871 0.37212 0.80191 0.0
N333 N 0.63729 0.33241 0.80897 0.0
C334 C 0.63953 0.36186 0.80102 0.0
H335 H 0.67282 0.30191 0.82216 0.0
Co336 Co 0.60336 0.30702 0.81398 0.0
C337 C 0.56418 0.33702 0.7718 0.0
O338 O 0.5679 0.31622 0.75342 0.0
N339 N 0.56915 0.28107 0.81883 0.0
C340 C 0.53218 0.25218 0.8359 0.0
C341 C 0.55613 0.27169 0.84151 0.0
C342 C 0.55302 0.2665 0.79982 0.0
N343 N 0.53022 0.24884 0.80955 0.0
O344 O 0.61628 0.28307 0.78436 0.0
H345 H 0.56361 0.27836 0.86099 0.0
H346 H 0.55865 0.268 0.7792 0.0
O347 O 0.57783 0.33439 0.79383 0.0
C348 C 0.62914 0.25956 0.79442 0.0
O349 O 0.62852 0.25638 0.82015 0.0
N350 N 0.59363 0.32851 0.84456 0.0
C351 C 0.58507 0.35396 0.89423 0.0
C352 C 0.56362 0.35906 0.87409 0.0
C353 C 0.56836 0.3461 0.84919 0.0
C354 C 0.61442 0.32322 0.86397 0.0
C355 C 0.6108 0.33596 0.8888 0.0
H356 H 0.55121 0.34929 0.83413 0.0
H357 H 0.63361 0.30825 0.86031 0.0
H358 H 0.62014 0.37592 0.79565 0.0
H359 H 0.71004 0.34903 0.81404 0.0
H360 H 0.51735 0.2415 0.85027 0.0
H361 H 0.54318 0.3724 0.87771 0.0
H362 H 0.62734 0.33055 0.904 0.0
C363 C 0.79386 0.64816 0.84244 0.0
C364 C 0.77383 0.67206 0.84 0.0
N365 N 0.76549 0.67461 0.81451 0.0
N366 N 0.79777 0.63476 0.81879 0.0
C367 C 0.78145 0.65238 0.80196 0.0
H368 H 0.80407 0.64044 0.86064 0.0
Co369 Co 0.82117 0.59914 0.81285 0.0
C370 C 0.76013 0.58001 0.78684 0.0
O371 O 0.74385 0.60385 0.79381 0.0
N372 N 0.84474 0.5634 0.80681 0.0
C373 C 0.8574 0.51409 0.80582 0.0
C374 C 0.83539 0.53479 0.81302 0.0
C375 C 0.87239 0.55924 0.79516 0.0
N376 N 0.8806 0.52946 0.79456 0.0
O377 O 0.83948 0.6185 0.78281 0.0
H378 H 0.81357 0.52913 0.82184 0.0
H379 H 0.88624 0.57743 0.78703 0.0
O380 O 0.78861 0.57871 0.79266 0.0
C381 C 0.86123 0.63328 0.79407 0.0
O382 O 0.86397 0.63088 0.81978 0.0
N383 N 0.80661 0.58247 0.84444 0.0
C384 C 0.79299 0.57225 0.89716 0.0
C385 C 0.76955 0.57255 0.87827 0.0
C386 C 0.77685 0.57786 0.85185 0.0
C387 C 0.82967 0.58033 0.86239 0.0
C388 C 0.82343 0.57492 0.88876 0.0
H389 H 0.75841 0.58051 0.83805 0.0
H390 H 0.85306 0.58456 0.85638 0.0
H391 H 0.78034 0.64798 0.78102 0.0
H392 H 0.76504 0.68538 0.85625 0.0
H393 H 0.85598 0.48947 0.80776 0.0
H394 H 0.74575 0.57075 0.88407 0.0
H395 H 0.84223 0.57425 0.90268 0.0
C396 C 0.48708 0.33175 0.14878 0.0
C397 C 0.47069 0.35818 0.151 0.0
N398 N 0.48209 0.3746 0.17121 0.0
N399 N 0.50907 0.33102 0.16738 0.0
C400 C 0.50532 0.35746 0.1811 0.0
H401 H 0.48315 0.31396 0.13438 0.0
Co402 Co 0.53561 0.29732 0.16851 0.0
C403 C 0.59527 0.31886 0.18751 0.0
O404 O 0.60718 0.30058 0.16974 0.0
N405 N 0.56106 0.26175 0.16954 0.0
C406 C 0.58504 0.21803 0.16032 0.0
C407 C 0.56696 0.24097 0.15046 0.0
C408 C 0.57526 0.25005 0.19112 0.0
N409 N 0.59044 0.22379 0.18589 0.0
O410 O 0.5149 0.28207 0.19891 0.0
H411 H 0.55862 0.24157 0.13055 0.0
H412 H 0.57447 0.26068 0.21036 0.0
O413 O 0.56601 0.32073 0.18973 0.0
C414 C 0.49298 0.26578 0.18983 0.0
O415 O 0.48967 0.26378 0.16417 0.0
N416 N 0.55286 0.31126 0.13672 0.0
C417 C 0.56553 0.33181 0.08591 0.0
C418 C 0.57509 0.3488 0.10784 0.0
C419 C 0.56804 0.33838 0.13316 0.0
C420 C 0.54178 0.29577 0.11547 0.0
C421 C 0.54853 0.30509 0.08998 0.0
H422 H 0.57339 0.35304 0.14962 0.0
H423 H 0.5261 0.27692 0.11833 0.0
H424 H 0.51941 0.36412 0.19768 0.0
H425 H 0.4513 0.36457 0.13891 0.0
H426 H 0.59385 0.19873 0.14935 0.0
H427 H 0.58728 0.37021 0.10542 0.0
H428 H 0.53926 0.29224 0.07354 0.0
C429 C 0.79854 0.48667 0.14987 0.0
C430 C 0.77897 0.46218 0.1511 0.0
N431 N 0.76547 0.4619 0.17498 0.0
N432 N 0.79736 0.50235 0.17269 0.0
C433 C 0.77826 0.48574 0.18809 0.0
H434 H 0.81243 0.49298 0.13311 0.0
Co435 Co 0.81969 0.53866 0.17866 0.0
C436 C 0.75735 0.55868 0.20314 0.0
O437 O 0.74039 0.5348 0.19736 0.0
N438 N 0.8423 0.57485 0.18449 0.0
C439 C 0.85278 0.62452 0.1866 0.0
C440 C 0.83154 0.60309 0.17921 0.0
C441 C 0.87037 0.57981 0.19514 0.0
N442 N 0.87735 0.60999 0.1966 0.0
O443 O 0.83597 0.52124 0.2102 0.0
H444 H 0.80923 0.60793 0.17095 0.0
H445 H 0.88528 0.56172 0.20186 0.0
O446 O 0.7857 0.55917 0.19681 0.0
C447 C 0.85709 0.50368 0.20159 0.0
O448 O 0.86283 0.50341 0.17619 0.0
N449 N 0.80644 0.55369 0.14613 0.0
C450 C 0.79349 0.56206 0.09302 0.0
C451 C 0.7697 0.56032 0.11148 0.0
C452 C 0.77667 0.55596 0.13806 0.0
C453 C 0.8298 0.55693 0.12861 0.0
C454 C 0.82385 0.56147 0.10201 0.0
H455 H 0.75812 0.55208 0.15156 0.0
H456 H 0.85322 0.55429 0.13514 0.0
H457 H 0.77325 0.49157 0.20831 0.0
H458 H 0.77485 0.44611 0.1353 0.0
H459 H 0.84974 0.64903 0.18554 0.0
H460 H 0.74596 0.56033 0.10527 0.0
H461 H 0.84291 0.56323 0.08845 0.0
C462 C 0.64296 0.80162 0.15659 0.0
C463 C 0.66536 0.77971 0.15886 0.0
N464 N 0.65777 0.76083 0.17879 0.0
N465 N 0.62125 0.79654 0.17492 0.0
C466 C 0.63104 0.77173 0.18833 0.0
H467 H 0.64209 0.81964 0.14205 0.0
Co468 Co 0.5849 0.81866 0.17829 0.0
C469 C 0.5491 0.78178 0.21649 0.0
O470 O 0.54703 0.80504 0.23278 0.0
N471 N 0.54785 0.84081 0.18196 0.0
C472 C 0.49813 0.8517 0.18111 0.0
C473 C 0.52021 0.83153 0.17304 0.0
C474 C 0.54174 0.8667 0.19569 0.0
N475 N 0.51153 0.8738 0.19566 0.0
O476 O 0.60068 0.83635 0.21007 0.0
H477 H 0.51606 0.81076 0.16202 0.0
H478 H 0.55888 0.87931 0.20656 0.0
O479 O 0.56518 0.78439 0.19567 0.0
C480 C 0.61755 0.85805 0.20139 0.0
O481 O 0.61735 0.86384 0.17601 0.0
N482 N 0.57236 0.80356 0.1456 0.0
C483 C 0.56417 0.78591 0.09344 0.0
C484 C 0.56808 0.76387 0.11316 0.0
C485 C 0.5722 0.77321 0.13924 0.0
C486 C 0.56849 0.82524 0.12669 0.0
C487 C 0.56388 0.8169 0.10052 0.0
H488 H 0.57719 0.75618 0.15396 0.0
H489 H 0.57006 0.84919 0.13185 0.0
H490 H 0.61821 0.76106 0.20406 0.0
H491 H 0.68545 0.7776 0.14653 0.0
H492 H 0.47394 0.84969 0.17684 0.0
H493 H 0.56888 0.73976 0.10834 0.0
H494 H 0.56172 0.83463 0.08577 0.0
C495 C 0.33029 0.6407 0.15269 0.0
C496 C 0.35344 0.66103 0.15767 0.0
N497 N 0.36814 0.65231 0.17975 0.0
N498 N 0.33028 0.61874 0.17125 0.0
C499 C 0.35368 0.62636 0.18759 0.0
H500 H 0.31417 0.64205 0.13658 0.0
Co501 Co 0.30049 0.58787 0.17151 0.0
C502 C 0.3302 0.53148 0.19027 0.0
O503 O 0.31229 0.51695 0.17368 0.0
N504 N 0.26876 0.55737 0.17182 0.0
C505 C 0.23415 0.52166 0.1614 0.0
C506 C 0.25507 0.54219 0.1517 0.0
C507 C 0.25488 0.54578 0.19361 0.0
N508 N 0.23403 0.52388 0.18775 0.0
O509 O 0.28231 0.60626 0.20211 0.0
H510 H 0.26 0.5447 0.13109 0.0
H511 H 0.26074 0.55247 0.21351 0.0
O512 O 0.32818 0.56071 0.19233 0.0
C513 C 0.26434 0.62648 0.19257 0.0
O514 O 0.26212 0.6288 0.16685 0.0
N515 N 0.31681 0.57363 0.13952 0.0
C516 C 0.33949 0.5687 0.08824 0.0
C517 C 0.35733 0.55951 0.10983 0.0
C518 C 0.34576 0.56268 0.13543 0.0
C519 C 0.29976 0.58346 0.11877 0.0
C520 C 0.31012 0.58032 0.09308 0.0
H521 H 0.3609 0.55817 0.15174 0.0
H522 H 0.27802 0.59453 0.12231 0.0
H523 H 0.35948 0.61361 0.20513 0.0
H524 H 0.35907 0.68069 0.14568 0.0
H525 H 0.2201 0.50616 0.14993 0.0
H526 H 0.38051 0.55136 0.10711 0.0
H527 H 0.29529 0.58757 0.07719 0.0
C528 C 0.0785 0.26289 0.44195 0.0
C529 C 0.05329 0.27868 0.43162 0.0
C530 C 0.08077 0.25725 0.46912 0.0
C531 C 0.0578 0.26854 0.48621 0.0
C532 C 0.03104 0.28185 0.47557 0.0
C533 C 0.02886 0.28616 0.44837 0.0
C534 C 0.10875 0.24123 0.47969 0.0
C535 C 1.00596 0.29428 0.49302 0.0
C536 C 0.05338 0.25869 0.56039 0.0
C537 C 0.06779 0.28566 0.56903 0.0
C538 C 0.0519 0.25139 0.53345 0.0
C539 C 0.06407 0.27212 0.51477 0.0
C540 C 0.07968 0.29866 0.52344 0.0
C541 C 0.08198 0.30464 0.55039 0.0
C542 C 0.03625 0.22215 0.52512 0.0
C543 C 0.09266 0.32171 0.50425 0.0
H544 H 0.09727 0.25651 0.42914 0.0
H545 H 1.00862 0.29704 0.44037 0.0
H546 H 0.12521 0.25841 0.48738 0.0
H547 H 0.10253 0.22577 0.49617 0.0
H548 H 0.12045 0.22773 0.46413 0.0
H549 H 0.98577 0.30212 0.48157 0.0
H550 H 0.99831 0.27664 0.50722 0.0
H551 H 1.01493 0.31393 0.50456 0.0
H552 H 0.04249 0.24366 0.57453 0.0
H553 H 0.09449 0.32474 0.55678 0.0
H554 H 0.04666 0.21259 0.50697 0.0
H555 H 1.01175 0.22678 0.52105 0.0
H556 H 0.03738 0.20465 0.54093 0.0
H557 H 0.10967 0.31064 0.49118 0.0
H558 H 0.10395 0.34129 0.51431 0.0
H559 H 0.07405 0.33076 0.49157 0.0
C560 C 0.87625 0.05081 0.5552 0.0
C561 C 0.84908 0.06292 0.56568 0.0
C562 C 0.88132 0.05027 0.52786 0.0
C563 C 0.8583 0.06124 0.51068 0.0
C564 C 0.8313 0.07427 0.52117 0.0
C565 C 0.82734 0.07547 0.54845 0.0
C566 C 0.91085 0.03715 0.51742 0.0
C567 C 0.80595 0.08596 0.50358 0.0
C568 C 0.86355 0.07943 0.43808 0.0
C569 C 0.849 0.05369 0.42728 0.0
C570 C 0.86973 0.08105 0.46521 0.0
C571 C 0.8605 0.05669 0.48178 0.0
C572 C 0.84828 0.02967 0.4706 0.0
C573 C 0.84316 0.02834 0.44345 0.0
C574 C 0.88407 0.10971 0.47633 0.0
C575 C 0.83789 1.00321 0.48751 0.0
H576 H 0.89329 0.04113 0.56825 0.0
H577 H 0.80687 0.08609 0.55625 0.0
H578 H 0.90668 1.01373 0.50985 0.0
H579 H 0.91973 0.05111 0.50085 0.0
H580 H 0.92872 0.03584 0.53296 0.0
H581 H 0.78646 0.09553 0.51494 0.0
H582 H 0.81486 0.104 0.4903 0.0
H583 H 0.79719 0.06707 0.49102 0.0
H584 H 0.8685 0.09897 0.42568 0.0
H585 H 0.83305 1.00788 0.43505 0.0
H586 H 0.90075 0.10405 0.49208 0.0
H587 H 0.866 0.12423 0.48519 0.0
H588 H 0.8959 0.12323 0.46086 0.0
H589 H 0.85609 0.99662 0.5016 0.0
H590 H 0.83157 0.98283 0.47561 0.0
H591 H 0.8176 1.01022 0.4992 0.0
C592 C 0.03811 0.82203 0.54774 0.0
C593 C 0.05862 0.83863 0.56352 0.0
C594 C 0.03765 0.82571 0.52039 0.0
C595 C 0.05804 0.84674 0.5085 0.0
C596 C 0.07741 0.86506 0.52444 0.0
C597 C 0.07751 0.86075 0.55186 0.0
C598 C 1.01659 0.80575 0.50414 0.0
C599 C 0.09918 0.88797 0.51245 0.0
C600 C 0.08305 0.82204 0.44062 0.0
C601 C 0.06328 0.83877 0.42435 0.0
C602 C 0.0824 0.82546 0.46798 0.0
C603 C 0.06165 0.84639 0.47944 0.0
C604 C 0.04266 0.86451 0.46312 0.0
C605 C 0.04366 0.86045 0.43567 0.0
C606 C 0.10308 0.8057 0.48466 0.0
C607 C 0.0205 0.88727 0.47469 0.0
H608 H 0.02284 0.80551 0.55677 0.0
H609 H 0.09328 0.87374 0.56402 0.0
H610 H 1.00333 0.81982 0.49004 0.0
H611 H 0.03041 0.78935 0.49247 0.0
H612 H 1.00028 0.79256 0.51652 0.0
H613 H 0.10914 0.90355 0.52749 0.0
H614 H 0.11819 0.8757 0.50256 0.0
H615 H 0.08737 0.90185 0.49727 0.0
H616 H 0.09891 0.8059 0.43192 0.0
H617 H 0.02844 0.87352 0.42315 0.0
H618 H 0.08899 0.78991 0.49675 0.0
H619 H 0.11665 0.82007 0.49839 0.0
H620 H 0.11913 0.79186 0.4726 0.0
H621 H 1.0017 0.87491 0.48482 0.0
H622 H 1.01031 0.90227 0.45939 0.0
H623 H 0.03211 0.90177 0.48961 0.0
C624 C 0.26397 0.08633 0.5601 0.0
C625 C 0.28741 0.06911 0.57171 0.0
C626 C 0.2597 0.08613 0.53264 0.0
C627 C 0.27944 0.06843 0.51662 0.0
C628 C 0.302 0.04977 0.52844 0.0
C629 C 0.30555 0.0502 0.5558 0.0
C630 C 0.23507 0.10592 0.52073 0.0
C631 C 0.32356 0.03054 0.51212 0.0
C632 C 0.26797 0.0511 0.44401 0.0
C633 C 0.28854 0.07186 0.43258 0.0
C634 C 0.26307 0.05092 0.47137 0.0
C635 C 0.2793 0.07185 0.48752 0.0
C636 C 0.29868 0.09397 0.47585 0.0
C637 C 0.30289 0.09381 0.44856 0.0
C638 C 0.24184 0.02733 0.4831 0.0
C639 C 0.31646 0.1167 0.49231 0.0
H640 H 0.24976 0.10083 0.57233 0.0
H641 H 0.32308 0.0361 0.56475 0.0
H642 H 0.24578 0.12589 0.51088 0.0
H643 H 0.22209 0.09305 0.50553 0.0
H644 H 0.21878 0.11448 0.53581 0.0
H645 H 0.33843 1.01575 0.52445 0.0
H646 H 0.31045 1.0158 0.49834 0.0
H647 H 0.33843 0.04566 0.50009 0.0
H648 H 0.25668 0.0342 0.43173 0.0
H649 H 0.3181 0.11053 0.43973 0.0
H650 H 0.22684 0.03785 0.49821 0.0
H651 H 0.25553 1.00936 0.493 0.0
H652 H 0.22726 1.01625 0.46788 0.0
H653 H 0.30093 0.12888 0.50601 0.0
H654 H 0.32863 0.13389 0.48006 0.0
H655 H 0.33364 0.10441 0.50442 0.0
C656 C 0.5601 0.75813 0.9368 0.0
C657 C 0.57487 0.78439 0.92741 0.0
C658 C 0.5596 0.75163 0.96389 0.0
C659 C 0.5743 0.77188 0.98166 0.0
C660 C 0.59152 0.79687 0.97185 0.0
C661 C 0.59142 0.80292 0.94481 0.0
C662 C 0.54121 0.72465 0.97357 0.0
C663 C 0.60791 0.81879 0.99007 0.0
C664 C 0.5418 0.79088 0.04851 0.0
C665 C 0.56326 0.77729 0.06528 0.0
C666 C 0.54391 0.78738 0.02117 0.0
C667 C 0.56822 0.77002 0.01037 0.0
C668 C 0.58869 0.75448 0.02729 0.0
C669 C 0.58594 0.75828 0.05464 0.0
C670 C 0.52134 0.80403 0.00381 0.0
C671 C 0.6148 0.73569 0.01654 0.0
H672 H 0.54713 0.74396 0.92325 0.0
H673 H 0.60286 0.82318 0.93738 0.0
H674 H 0.55348 0.71255 0.98959 0.0
H675 H 0.51914 0.73286 0.98172 0.0
H676 H 0.53619 0.70816 0.95748 0.0
H677 H 0.62319 0.83473 0.97921 0.0
H678 H 0.59081 0.8325 0.00109 0.0
H679 H 0.62179 0.80609 0.00471 0.0
H680 H 0.52404 0.80527 0.05678 0.0
H681 H 0.60268 0.74788 0.0676 0.0
H682 H 0.51191 0.78837 0.98863 0.0
H683 H 0.53321 0.82294 0.9934 0.0
H684 H 0.50201 0.81383 0.01524 0.0
H685 H 0.60701 0.72119 -0.00011 0.0
H686 H 0.62511 0.72082 0.03188 0.0
H687 H 0.63288 0.7512 0.00893 0.0
C688 C 0.38194 0.56462 0.93351 0.0
C689 C 0.35627 0.54958 0.92295 0.0
C690 C 0.38639 0.56641 0.96091 0.0
C691 C 0.3642 0.55362 0.97802 0.0
C692 C 0.33922 0.53701 0.96743 0.0
C693 C 0.33595 0.53469 0.94012 0.0
C694 C 0.41402 0.5832 0.97146 0.0
C695 C 0.31478 0.52324 0.98488 0.0
C696 C 0.36844 0.54223 0.05186 0.0
C697 C 0.35118 0.56724 0.06073 0.0
C698 C 0.37556 0.53886 0.02502 0.0
C699 C 0.36444 0.56055 0.00668 0.0
C700 C 0.34905 0.58693 0.01581 0.0
C701 C 0.34315 0.5902 0.04273 0.0
C702 C 0.39332 0.51116 0.01614 0.0
C703 C 0.33656 0.61056 -0.00302 0.0
H704 H 0.39796 0.57601 0.92049 0.0
H705 H 0.31678 0.52186 0.93221 0.0
H706 H 0.40733 0.6067 0.97728 0.0
H707 H 0.42332 0.57163 0.98917 0.0
H708 H 0.43242 0.58497 0.95644 0.0
H709 H 0.29727 0.51033 0.9735 0.0
H710 H 0.32524 0.50757 -0.00055 0.0
H711 H 0.30306 0.54166 0.99602 0.0
H712 H 0.37509 0.52452 0.06561 0.0
H713 H 0.33101 0.61029 0.04953 0.0
H714 H 0.40972 0.51728 0.00031 0.0
H715 H 0.37727 0.49383 0.00807 0.0
H716 H 0.40612 0.50058 0.03269 0.0
H717 H 0.35479 0.61863 0.98349 0.0
H718 H 0.32681 0.63067 0.00738 0.0
H719 H 0.31827 0.60011 0.98471 0.0
C720 C 0.60394 0.37531 0.93688 0.0
C721 C 0.57959 0.36395 0.92169 0.0
C722 C 0.60177 0.3769 0.96437 0.0
C723 C 0.57459 0.36689 0.97684 0.0
C724 C 0.54882 0.35862 0.96141 0.0
C725 C 0.55163 0.35724 0.93392 0.0
C726 C 0.62961 0.38632 0.98006 0.0
C727 C 0.51928 0.34818 0.97397 0.0
C728 C 0.58181 0.32158 0.03987 0.0
C729 C 0.57125 0.3424 0.05871 0.0
C730 C 0.58383 0.32973 0.01331 0.0
C731 C 0.57498 0.35946 0.00536 0.0
C732 C 0.56546 0.38105 0.02444 0.0
C733 C 0.56375 0.37225 0.05101 0.0
C734 C 0.5945 0.3061 0.99364 0.0
C735 C 0.55589 0.41292 0.01669 0.0
H736 H 0.62543 0.38104 0.92736 0.0
H737 H 0.53276 0.34842 0.92227 0.0
H738 H 0.62306 0.40097 -0.00303 0.0
H739 H 0.64087 0.36561 0.9881 0.0
H740 H 0.64653 0.39883 0.96777 0.0
H741 H 0.50011 0.34747 0.95958 0.0
H742 H 0.52239 0.32487 0.98215 0.0
H743 H 0.51287 0.36347 0.99049 0.0
H744 H 0.5879 0.29861 0.0459 0.0
H745 H 0.55531 0.38828 0.06557 0.0
H746 H 0.61405 0.31516 0.98206 0.0
H747 H 0.57574 0.30082 0.97959 0.0
H748 H 0.60173 0.28447 0.00323 0.0
H749 H 0.573 0.42332 0.00326 0.0
H750 H 0.55297 0.42806 0.03408 0.0
H751 H 0.53382 0.41184 0.00589 0.0
C752 C 0.76409 0.58046 0.05357 0.0
C753 C 0.78707 0.56197 0.06438 0.0
C754 C 0.75949 0.58162 0.02621 0.0
C755 C 0.77845 0.56399 0.00947 0.0
C756 C 0.8006 0.54416 0.02042 0.0
C757 C 0.80451 0.54329 0.04772 0.0
C758 C 0.7354 0.60273 0.01519 0.0
C759 C 0.82131 0.525 0.00325 0.0
C760 C 0.76512 0.55119 0.93645 0.0
C761 C 0.78614 0.57195 0.92569 0.0
C762 C 0.76086 0.54944 0.96384 0.0
C763 C 0.77813 0.56885 0.98059 0.0
C764 C 0.79807 0.59095 0.96964 0.0
C765 C 0.80168 0.59232 0.94234 0.0
C766 C 0.73909 0.52588 0.97487 0.0
C767 C 0.81692 0.61209 0.98679 0.0
H768 H 0.75044 0.5948 0.06641 0.0
H769 H 0.82166 0.52824 0.05605 0.0
H770 H 0.74667 0.62266 0.00575 0.0
H771 H 0.72171 0.59091 -0.00017 0.0
H772 H 0.71969 0.6113 0.03072 0.0
H773 H 0.83573 0.50909 0.01492 0.0
H774 H 0.80758 0.51145 0.98902 0.0
H775 H 0.83664 0.54017 0.99169 0.0
H776 H 0.75292 0.53557 0.92358 0.0
H777 H 0.81728 0.60902 0.934 0.0
H778 H 0.72447 0.53612 0.9904 0.0
H779 H 0.75236 0.50715 0.98412 0.0
H780 H 0.72414 0.51586 0.95939 0.0
H781 H 0.80203 0.62412 0.0011 0.0
H782 H 0.82961 0.62945 0.97511 0.0
H783 H 0.83375 0.59854 -0.00177 0.0
C784 C 0.14357 0.27989 0.28426 0.0
C785 C 0.11302 0.27405 0.29108 0.0
C786 C 0.1651 0.25623 0.28296 0.0
C787 C 0.15589 0.22593 0.28882 0.0
C788 C 0.12432 0.21944 0.29251 0.0
C789 C 0.10311 0.24369 0.29355 0.0
C790 C 0.19834 0.26433 0.27851 0.0
C791 C 0.11336 0.18741 0.29817 0.0
C792 C 0.2205 0.16737 0.28506 0.0
C793 C 0.23192 0.16855 0.31089 0.0
C794 C 0.19452 0.18449 0.27769 0.0
C795 C 0.17978 0.20324 0.2966 0.0
C796 C 0.19025 0.20302 0.32301 0.0
C797 C 0.21602 0.18569 0.32977 0.0
C798 C 0.18388 0.18367 0.24945 0.0
C799 C 0.17519 0.22238 0.34398 0.0
H800 H 0.1512 0.30338 0.28218 0.0
H801 H 0.0795 0.23906 0.29886 0.0
H802 H 0.2108 0.26333 0.29754 0.0
H803 H 0.20927 0.24775 0.26495 0.0
H804 H 0.20107 0.28769 0.27025 0.0
H805 H 0.08842 0.18491 0.29434 0.0
H806 H 0.12598 0.17045 0.2861 0.0
H807 H 0.11764 0.182 0.31919 0.0
H808 H 0.2326 0.15412 0.27037 0.0
H809 H 0.22414 0.18602 0.34992 0.0
H810 H 0.19185 0.20461 0.23921 0.0
H811 H 0.15851 0.18321 0.2483 0.0
H812 H 0.19312 0.16351 0.23878 0.0
H813 H 0.17828 0.24695 0.33922 0.0
H814 H 0.18489 0.21814 0.36386 0.0
H815 H 0.15022 0.21774 0.34461 0.0
C816 C 0.88337 0.10172 0.28853 0.0
C817 C 0.85344 0.11328 0.28763 0.0
C818 C 0.90883 0.12165 0.28762 0.0
C819 C 0.90407 0.15367 0.28586 0.0
C820 C 0.874 0.16481 0.28175 0.0
C821 C 0.84914 0.14449 0.28269 0.0
C822 C 0.94051 0.10864 0.29115 0.0
C823 C 0.86762 0.19863 0.27944 0.0
C824 C 0.94865 0.20964 0.32788 0.0
C825 C 0.96421 0.22712 0.30901 0.0
C826 C 0.93083 0.18428 0.3207 0.0
C827 C 0.92859 0.17581 0.29384 0.0
C828 C 0.94644 0.1917 0.2749 0.0
C829 C 0.96403 0.21731 0.28271 0.0
C830 C 0.91254 0.16805 0.34175 0.0
C831 C 0.94547 0.18297 0.24619 0.0
H832 H 0.88689 0.0776 0.29232 0.0
H833 H 0.82603 0.15347 0.28168 0.0
H834 H 0.95755 0.12149 0.2793 0.0
H835 H 0.94728 0.11054 0.31214 0.0
H836 H 0.94132 0.08411 0.28549 0.0
H837 H 0.84378 0.20323 0.27291 0.0
H838 H 0.87115 0.20969 0.29889 0.0
H839 H 0.88364 0.20949 0.26532 0.0
H840 H 0.94936 0.2167 0.34832 0.0
H841 H 0.97613 0.23065 0.26805 0.0
H842 H 0.91628 0.14302 0.34063 0.0
H843 H 0.88774 0.17223 0.33858 0.0
H844 H 0.91865 0.17594 0.36188 0.0
H845 H 0.94416 0.15779 0.24375 0.0
H846 H 0.96588 0.19168 0.23548 0.0
H847 H 0.92477 0.19299 0.23697 0.0
C848 C 0.91875 0.95252 0.32274 0.0
C849 C 0.90013 0.96666 0.30386 0.0
C850 C 0.94641 0.9385 0.31576 0.0
C851 C 0.95581 0.93832 0.28908 0.0
C852 C 0.93752 0.95325 0.26992 0.0
C853 C 0.90992 0.96744 0.27759 0.0
C854 C 0.96536 0.92341 0.33698 0.0
C855 C 0.94665 0.95344 0.24129 0.0
C856 C 0.04054 0.92089 0.2826 0.0
C857 C 0.0403 0.88885 0.28044 0.0
C858 C 1.01314 0.93768 0.28338 0.0
C859 C 0.98472 0.92215 0.28175 0.0
C860 C 0.9844 0.89018 0.27711 0.0
C861 C 1.01217 0.87393 0.27648 0.0
C862 C 1.01467 0.97171 0.28827 0.0
C863 C 0.95466 0.87273 0.27485 0.0
H864 H 0.91148 0.95229 0.34313 0.0
H865 H 0.89545 0.97816 0.26294 0.0
H866 H 0.96747 0.89859 0.33286 0.0
H867 H 0.98884 0.93316 0.33715 0.0
H868 H 0.95523 0.92631 0.35689 0.0
H869 H 0.93106 0.96765 0.22912 0.0
H870 H 0.97037 0.96219 0.23907 0.0
H871 H 0.94634 0.92972 0.23352 0.0
H872 H 0.06208 0.93285 0.28536 0.0
H873 H 1.01168 0.8493 0.27423 0.0
H874 H 1.00806 0.97651 0.30895 0.0
H875 H 0.99835 0.98403 0.27536 0.0
H876 H 0.03804 0.98102 0.28493 0.0
H877 H 0.94366 0.87135 0.2945 0.0
H878 H 0.95819 0.8491 0.26743 0.0
H879 H 0.93856 0.88475 0.26152 0.0
C880 C 0.27579 0.99629 0.26061 0.0
C881 C 0.27037 0.0208 0.27786 0.0
C882 C 0.2578 0.9696 0.2616 0.0
C883 C 0.23388 0.96734 0.28033 0.0
C884 C 0.22704 0.99278 0.29654 0.0
C885 C 0.24526 0.0192 0.29503 0.0
C886 C 0.26559 0.94316 0.24373 0.0
C887 C 0.20164 0.99146 0.31668 0.0
C888 C 0.17343 0.90445 0.27948 0.0
C889 C 0.18417 0.88491 0.29937 0.0
C890 C 0.19002 0.93069 0.27212 0.0
C891 C 0.21799 0.9376 0.28497 0.0
C892 C 0.22974 0.91707 0.30399 0.0
C893 C 0.21276 0.891 0.31087 0.0
C894 C 0.17683 0.95181 0.25158 0.0
C895 C 0.25959 0.92341 0.31805 0.0
H896 H 0.29506 0.99727 0.24719 0.0
H897 H 0.24059 0.03813 0.30818 0.0
H898 H 0.27635 0.92467 0.25544 0.0
H899 H 0.24456 0.93357 0.23461 0.0
H900 H 0.28172 0.94996 0.22786 0.0
H901 H 0.19757 1.01398 0.32618 0.0
H902 H 0.18001 0.98362 0.3074 0.0
H903 H 0.20763 0.97468 0.33222 0.0
H904 H 0.15134 0.90012 0.27053 0.0
H905 H 0.22151 0.87575 0.32587 0.0
H906 H 0.19456 0.95816 0.23692 0.0
H907 H 0.16901 0.97323 0.26114 0.0
H908 H 0.15706 0.94136 0.2411 0.0
H909 H 0.27815 0.92759 0.30359 0.0
H910 H 0.26653 0.90425 0.33109 0.0
H911 H 0.25733 0.94439 0.3302 0.0
C912 C 0.2387 0.92955 0.68611 0.0
C913 C 0.24112 0.96029 0.69394 0.0
C914 C 0.21283 0.91186 0.69233 0.0
C915 C 0.18877 0.92488 0.70724 0.0
C916 C 0.19148 0.95545 0.71618 0.0
C917 C 0.21746 0.97284 0.70928 0.0
C918 C 0.21087 0.8794 0.68224 0.0
C919 C 0.16658 0.97004 0.73248 0.0
C920 C 0.11133 0.8875 0.69562 0.0
C921 C 0.11019 0.86562 0.71581 0.0
C922 C 0.1361 0.90784 0.6933 0.0
C923 C 0.16018 0.90685 0.71196 0.0
C924 C 0.15807 0.88645 0.73354 0.0
C925 C 0.13323 0.86593 0.73512 0.0
C926 C 0.1374 0.92903 0.66986 0.0
C927 C 0.18288 0.88513 0.75421 0.0
H928 H 0.25696 0.91919 0.67485 0.0
H929 H 0.21875 0.9965 0.71541 0.0
H930 H 0.2074 0.86335 0.69887 0.0
H931 H 0.19084 0.87699 0.66893 0.0
H932 H 0.23177 0.87245 0.67133 0.0
H933 H 0.17347 0.99283 0.74016 0.0
H934 H 0.14564 0.97283 0.72035 0.0
H935 H 0.16049 0.9551 0.74934 0.0
H936 H 0.09358 0.88785 0.68077 0.0
H937 H 0.13255 0.84933 0.75094 0.0
H938 H 0.15653 0.92212 0.65677 0.0
H939 H 0.14198 0.95283 0.67632 0.0
H940 H 0.11583 0.92868 0.65824 0.0
H941 H 0.20374 0.87465 0.74567 0.0
H942 H 0.1758 0.87143 0.77159 0.0
H943 H 0.18912 0.9085 0.76087 0.0
C944 C 0.16935 0.23201 0.71771 0.0
C945 C 0.18223 0.25091 0.69828 0.0
C946 C 0.18434 0.20532 0.72619 0.0
C947 C 0.21291 0.19731 0.71499 0.0
C948 C 0.22677 0.21713 0.69643 0.0
C949 C 0.21133 0.24365 0.68839 0.0
C950 C 0.16892 0.18497 0.74619 0.0
C951 C 0.25736 0.20963 0.68415 0.0
C952 C 0.2672 0.13802 0.7435 0.0
C953 C 0.26262 0.11331 0.72625 0.0
C954 C 0.24991 0.16498 0.74114 0.0
C955 C 0.22752 0.1673 0.72106 0.0
C956 C 0.22128 0.14162 0.70489 0.0
C957 C 0.2388 0.11495 0.70774 0.0
C958 C 0.25708 0.19166 0.75899 0.0
C959 C 0.19751 0.14299 0.68332 0.0
H960 H 0.14689 0.23723 0.72547 0.0
H961 H 0.22176 0.25838 0.6738 0.0
H962 H 0.16145 0.16343 0.73656 0.0
H963 H 0.18521 0.17872 0.76206 0.0
H964 H 0.14857 0.19603 0.75519 0.0
H965 H 0.26583 0.22823 0.67116 0.0
H966 H 0.2747 0.20537 0.69968 0.0
H967 H 0.25531 0.18839 0.6723 0.0
H968 H 0.28549 0.13706 0.75791 0.0
H969 H 0.23482 0.09591 0.6945 0.0
H970 H 0.2357 0.20215 0.76652 0.0
H971 H 0.26951 0.20947 0.74767 0.0
H972 H 0.27155 0.18482 0.77598 0.0
H973 H 0.17551 0.15178 0.69114 0.0
H974 H 0.19337 0.12028 0.67415 0.0
H975 H 0.20526 0.15904 0.66777 0.0
C976 C 0.91451 0.1944 0.66869 0.0
C977 C 0.89401 0.18221 0.68726 0.0
C978 C 0.94109 0.2101 0.67646 0.0
C979 C 0.94762 0.21391 0.70357 0.0
C980 C 0.92673 0.20243 0.72251 0.0
C981 C 0.90025 0.18662 0.71414 0.0
C982 C 0.96274 0.22175 0.65551 0.0
C983 C 0.93269 0.20628 0.75158 0.0
C984 C 0.0328 0.22468 0.7154 0.0
C985 C 0.03563 0.25666 0.71484 0.0
C986 C 1.00398 0.2104 0.71371 0.0
C987 C 0.97721 0.22849 0.71159 0.0
C988 C 0.97971 0.26073 0.71343 0.0
C989 C 1.00886 0.27441 0.71508 0.0
C990 C 1.00248 0.17597 0.71195 0.0
C991 C 0.95182 0.28093 0.71163 0.0
H992 H 0.91046 0.19073 0.64792 0.0
H993 H 0.88451 0.17757 0.72866 0.0
H994 H 0.96695 0.24657 0.65823 0.0
H995 H 0.98516 0.21001 0.65731 0.0
H996 H 0.95379 0.21795 0.63529 0.0
H997 H 0.91309 0.19835 0.76374 0.0
H998 H 0.95332 0.19308 0.75726 0.0
H999 H 0.93739 0.23064 0.75623 0.0
H1000 H 0.05322 0.21062 0.71547 0.0
H1001 H 1.01066 0.29911 0.71518 0.0
H1002 H 0.99663 0.16916 0.69149 0.0
H1003 H 0.98429 0.16685 0.725 0.0
H1004 H 0.02459 0.16511 0.71734 0.0
H1005 H 0.94332 0.2811 0.69104 0.0
H1006 H 0.95695 0.30487 0.71754 0.0
H1007 H 0.9331 0.27198 0.72423 0.0
C1008 C 0.9453 0.90816 0.66925 0.0
C1009 C 0.96226 0.89179 0.68795 0.0
C1010 C 0.93183 0.93636 0.6755 0.0
C1011 C 0.93506 0.94849 0.70123 0.0
C1012 C 0.95166 0.93181 0.7204 0.0
C1013 C 0.96527 0.90377 0.71347 0.0
C1014 C 0.91468 0.95352 0.65433 0.0
C1015 C 0.95523 0.94371 0.74812 0.0
C1016 C 0.92568 0.0347 0.70393 0.0
C1017 C 0.89433 0.03763 0.70953 0.0
C1018 C 0.93968 1.00585 0.70267 0.0
C1019 C 0.92204 0.97921 0.70743 0.0
C1020 C 0.89103 0.98218 0.71522 0.0
C1021 C 0.87755 1.01134 0.71619 0.0
C1022 C 0.97278 1.00382 0.69426 0.0
C1023 C 0.87149 0.95445 0.72088 0.0
H1024 H 0.94324 0.89929 0.64942 0.0
H1025 H 0.97808 0.89106 0.72807 0.0
H1026 H 0.89088 0.95814 0.66083 0.0
H1027 H 0.92586 0.97595 0.65078 0.0
H1028 H 0.91381 0.94073 0.63544 0.0
H1029 H 0.96751 0.92733 0.76105 0.0
H1030 H 0.96811 0.9656 0.74792 0.0
H1031 H 0.9324 0.94848 0.75677 0.0
H1032 H 0.93897 0.0548 0.69884 0.0
H1033 H 0.85348 1.0134 0.72104 0.0
H1034 H 0.97404 0.99398 0.67414 0.0
H1035 H 0.98573 0.98843 0.70753 0.0
H1036 H 0.9842 0.02655 0.69408 0.0
H1037 H 0.86655 0.94222 0.70221 0.0
H1038 H 0.84935 0.96067 0.73021 0.0
H1039 H 0.88382 0.93833 0.73397 0.0
C1040 C 0.60728 0.75533 0.7901 0.0
C1041 C 0.6119 0.78619 0.78396 0.0
C1042 C 0.63169 0.73443 0.78864 0.0
C1043 C 0.66085 0.7446 0.77992 0.0
C1044 C 0.66386 0.77447 0.76952 0.0
C1045 C 0.63951 0.79513 0.77217 0.0
C1046 C 0.62729 0.70279 0.7998 0.0
C1047 C 0.69395 0.78581 0.75863 0.0
C1048 C 0.72944 0.71783 0.81953 0.0
C1049 C 0.74113 0.69377 0.80423 0.0
C1050 C 0.70336 0.73415 0.8118 0.0
C1051 C 0.68898 0.72731 0.78748 0.0
C1052 C 0.70153 0.70433 0.77109 0.0
C1053 C 0.72713 0.68751 0.77982 0.0
C1054 C 0.69084 0.7584 0.83009 0.0
C1055 C 0.6876 0.69687 0.74466 0.0
H1056 H 0.58586 0.74827 0.79899 0.0
H1057 H 0.64306 0.81902 0.76731 0.0
H1058 H 0.63884 0.68546 0.78738 0.0
H1059 H 0.63776 0.70178 0.8197 0.0
H1060 H 0.60266 0.69669 0.80155 0.0
H1061 H 0.69077 0.80636 0.74609 0.0
H1062 H 0.70942 0.79204 0.77514 0.0
H1063 H 0.70538 0.76772 0.74689 0.0
H1064 H 0.74029 0.72378 0.83797 0.0
H1065 H 0.73559 0.66907 0.76767 0.0
H1066 H 0.66645 0.75358 0.83466 0.0
H1067 H 0.69188 0.7811 0.82041 0.0
H1068 H 0.70374 0.75978 0.84891 0.0
H1069 H 0.66722 0.68207 0.74752 0.0
H1070 H 0.70399 0.68445 0.73181 0.0
H1071 H 0.68 0.7179 0.73437 0.0
C1072 C 0.4789 0.71607 0.78735 0.0
C1073 C 0.4621 0.73738 0.80215 0.0
C1074 C 0.4653 0.68858 0.77848 0.0
C1075 C 0.4343 0.6821 0.78478 0.0
C1076 C 0.41706 0.704 0.79892 0.0
C1077 C 0.43102 0.73132 0.80713 0.0
C1078 C 0.48433 0.66612 0.76303 0.0
C1079 C 0.38397 0.69822 0.80617 0.0
C1080 C 0.38249 0.62274 0.75253 0.0
C1081 C 0.38177 0.59976 0.77183 0.0
C1082 C 0.4015 0.64863 0.75535 0.0
C1083 C 0.41991 0.65192 0.77818 0.0
C1084 C 0.42089 0.62778 0.79673 0.0
C1085 C 0.40209 0.60197 0.79321 0.0
C1086 C 0.40024 0.67342 0.73474 0.0
C1087 C 0.43991 0.63026 0.82149 0.0
H1088 H 0.50287 0.72042 0.78336 0.0
H1089 H 0.41746 0.74787 0.81781 0.0
H1090 H 0.48858 0.64546 0.77513 0.0
H1091 H 0.47183 0.65862 0.74511 0.0
H1092 H 0.50677 0.67595 0.75708 0.0
H1093 H 0.37361 0.71776 0.81691 0.0
H1094 H 0.37022 0.69379 0.78819 0.0
H1095 H 0.38229 0.67756 0.81877 0.0
H1096 H 0.36715 0.62125 0.73579 0.0
H1097 H 0.40207 0.58437 0.80816 0.0
H1098 H 0.42356 0.68213 0.7303 0.0
H1099 H 0.38658 0.6929 0.7423 0.0
H1100 H 0.38951 0.66521 0.71619 0.0
H1101 H 0.4636 0.63756 0.81676 0.0
H1102 H 0.44087 0.60831 0.83245 0.0
H1103 H 0.42987 0.6479 0.8346 0.0
C1104 C 0.54012 0.38623 0.78567 0.0
C1105 C 0.53913 0.35983 0.76996 0.0
C1106 C 0.51435 0.40515 0.78846 0.0
C1107 C 0.48669 0.39736 0.77546 0.0
C1108 C 0.48609 0.3717 0.75836 0.0
C1109 C 0.51238 0.35335 0.75568 0.0
C1110 C 0.51626 0.43243 0.80662 0.0
C1111 C 0.45707 0.36239 0.74429 0.0
C1112 C 0.4134 0.42071 0.81063 0.0
C1113 C 0.40375 0.44633 0.79616 0.0
C1114 C 0.43992 0.40442 0.80378 0.0
C1115 C 0.45778 0.41403 0.78204 0.0
C1116 C 0.44838 0.43985 0.76732 0.0
C1117 C 0.42147 0.45558 0.77445 0.0
C1118 C 0.44901 0.37699 0.82006 0.0
C1119 C 0.46691 0.45101 0.74415 0.0
H1120 H 0.56077 0.39147 0.79667 0.0
H1121 H 0.51133 0.33284 0.74371 0.0
H1122 H 0.50638 0.45295 0.79704 0.0
H1123 H 0.50269 0.42787 0.82466 0.0
H1124 H 0.54022 0.43761 0.81255 0.0
H1125 H 0.46118 0.34415 0.72948 0.0
H1126 H 0.4402 0.3538 0.75886 0.0
H1127 H 0.44661 0.38234 0.73429 0.0
H1128 H 0.4005 0.41346 0.82769 0.0
H1129 H 0.41431 0.47502 0.76285 0.0
H1130 H 0.47159 0.38114 0.82944 0.0
H1131 H 0.45141 0.35658 0.80723 0.0
H1132 H 0.43207 0.37174 0.83573 0.0
H1133 H 0.49039 0.45713 0.75071 0.0
H1134 H 0.45645 0.47127 0.73456 0.0
H1135 H 0.46916 0.43252 0.72932 0.0
C1136 C 0.71308 0.54741 0.78809 0.0
C1137 C 0.74394 0.55092 0.7809 0.0
C1138 C 0.69914 0.51847 0.78856 0.0
C1139 C 0.71618 0.49243 0.78097 0.0
C1140 C 0.74651 0.49616 0.77153 0.0
C1141 C 0.76017 0.5253 0.77192 0.0
C1142 C 0.66702 0.51554 0.79932 0.0
C1143 C 0.76519 0.46912 0.76252 0.0
C1144 C 0.69857 0.41719 0.81508 0.0
C1145 C 0.6797 0.40251 0.79671 0.0
C1146 C 0.71025 0.44655 0.81026 0.0
C1147 C 0.70367 0.46122 0.78605 0.0
C1148 C 0.68483 0.44628 0.76725 0.0
C1149 C 0.67262 0.41723 0.77302 0.0
C1150 C 0.72944 0.46196 0.83121 0.0
C1151 C 0.67804 0.46075 0.74094 0.0
H1152 H 0.70032 0.56698 0.79519 0.0
H1153 H 0.78396 0.52782 0.7662 0.0
H1154 H 0.65265 0.50118 0.7862 0.0
H1155 H 0.66784 0.50408 0.81879 0.0
H1156 H 0.65576 0.53811 0.80179 0.0
H1157 H 0.78618 0.47631 0.7518 0.0
H1158 H 0.77223 0.45542 0.77986 0.0
H1159 H 0.75137 0.45404 0.74954 0.0
H1160 H 0.70379 0.40572 0.83345 0.0
H1161 H 0.65825 0.40557 0.75877 0.0
H1162 H 0.71924 0.48434 0.83654 0.0
H1163 H 0.7528 0.4665 0.82357 0.0
H1164 H 0.73143 0.44789 0.84933 0.0
H1165 H 0.66632 0.48297 0.74377 0.0
H1166 H 0.66343 0.44594 0.72832 0.0
H1167 H 0.69981 0.4655 0.73041 0.0
C1168 C 0.60911 0.37231 0.20062 0.0
C1169 C 0.6163 0.34113 0.19989 0.0
C1170 C 0.63249 0.39441 0.20308 0.0
C1171 C 0.66349 0.38489 0.20478 0.0
C1172 C 0.67016 0.3534 0.20746 0.0
C1173 C 0.64645 0.33193 0.20497 0.0
C1174 C 0.62428 0.42777 0.20088 0.0
C1175 C 0.7027 0.34204 0.20953 0.0
C1176 C 0.72201 0.42786 0.1639 0.0
C1177 C 0.73984 0.44291 0.18299 0.0
C1178 C 0.69692 0.40958 0.17086 0.0
C1179 C 0.68878 0.4064 0.19769 0.0
C1180 C 0.70597 0.4221 0.21715 0.0
C1181 C 0.73143 0.43999 0.2096 0.0
C1182 C 0.67935 0.39325 0.14933 0.0
C1183 C 0.69782 0.41962 0.24592 0.0
H1184 H 0.58581 0.37953 0.1967 0.0
H1185 H 0.65197 0.30775 0.20468 0.0
H1186 H 0.63883 0.44192 0.21406 0.0
H1187 H 0.62827 0.43556 0.18039 0.0
H1188 H 0.59981 0.4318 0.20578 0.0
H1189 H 0.70366 0.31784 0.21609 0.0
H1190 H 0.71383 0.34368 0.18994 0.0
H1191 H 0.71617 0.35626 0.22343 0.0
H1192 H 0.72735 0.43047 0.14326 0.0
H1193 H 0.74484 0.45139 0.22462 0.0
H1194 H 0.65486 0.39989 0.14994 0.0
H1195 H 0.68049 0.36817 0.15242 0.0
H1196 H 0.68841 0.39843 0.12939 0.0
H1197 H 0.6728 0.42252 0.24879 0.0
H1198 H 0.71011 0.43687 0.25806 0.0
H1199 H 0.70393 0.39655 0.25325 0.0
C1200 C 0.75928 0.61458 0.21425 0.0
C1201 C 0.74197 0.58825 0.20873 0.0
C1202 C 0.74592 0.64377 0.21343 0.0
C1203 C 0.71448 0.64668 0.20699 0.0
C1204 C 0.69639 0.62005 0.20362 0.0
C1205 C 0.7103 0.59118 0.20467 0.0
C1206 C 0.76595 0.67152 0.21758 0.0
C1207 C 0.66279 0.62206 0.19676 0.0
C1208 C 0.67197 0.72246 0.21244 0.0
C1209 C 0.67322 0.73306 0.18639 0.0
C1210 C 0.68604 0.69481 0.21973 0.0
C1211 C 0.70138 0.67719 0.20043 0.0
C1212 C 0.70303 0.68801 0.17419 0.0
C1213 C 0.68907 0.7158 0.16755 0.0
C1214 C 0.68415 0.68426 0.24796 0.0
C1215 C 0.71888 0.6698 0.1529 0.0
H1216 H 0.78362 0.61252 0.21798 0.0
H1217 H 0.69659 0.57105 0.20057 0.0
H1218 H 0.77005 0.68291 0.1984 0.0
H1219 H 0.75445 0.6883 0.23062 0.0
H1220 H 0.78849 0.66545 0.22627 0.0
H1221 H 0.6512 0.59946 0.19781 0.0
H1222 H 0.65087 0.63813 0.21017 0.0
H1223 H 0.66027 0.63106 0.17645 0.0
H1224 H 0.66006 0.73587 0.22714 0.0
H1225 H 0.68977 0.72357 0.14733 0.0
H1226 H 0.70742 0.67938 0.25565 0.0
H1227 H 0.67084 0.66267 0.24908 0.0
H1228 H 0.67309 0.70148 0.26091 0.0
H1229 H 0.74297 0.66522 0.1586 0.0
H1230 H 0.71883 0.68178 0.13363 0.0
H1231 H 0.70733 0.64735 0.15045 0.0
C1232 C 0.5253 0.73421 0.19798 0.0
C1233 C 0.52702 0.75582 0.2184 0.0
C1234 C 0.50047 0.71393 0.19589 0.0
C1235 C 0.47701 0.71454 0.21511 0.0
C1236 C 0.48022 0.73402 0.23726 0.0
C1237 C 0.505 0.75468 0.23852 0.0
C1238 C 0.49803 0.69386 0.17176 0.0
C1239 C 0.45635 0.73463 0.25872 0.0
C1240 C 0.39789 0.69959 0.18711 0.0
C1241 C 0.39376 0.66819 0.19172 0.0
C1242 C 0.42434 0.71499 0.19546 0.0
C1243 C 0.44722 0.69892 0.20949 0.0
C1244 C 0.44239 0.6677 0.21584 0.0
C1245 C 0.4158 0.65261 0.2067 0.0
C1246 C 0.42839 0.74825 0.1881 0.0
C1247 C 0.46579 0.64993 0.23138 0.0
H1248 H 0.54238 0.73432 0.18259 0.0
H1249 H 0.50623 0.77091 0.25462 0.0
H1250 H 0.49236 0.67003 0.17737 0.0
H1251 H 0.47921 0.7023 0.159 0.0
H1252 H 0.51953 0.69372 0.16006 0.0
H1253 H 0.46518 0.74568 0.27691 0.0
H1254 H 0.43613 0.74771 0.25185 0.0
H1255 H 0.44851 0.71114 0.26353 0.0
H1256 H 0.38061 0.71218 0.17638 0.0
H1257 H 0.41284 0.62842 0.21048 0.0
H1258 H 0.44873 0.75087 0.17519 0.0
H1259 H 0.43249 0.76223 0.20598 0.0
H1260 H 0.40813 0.7576 0.17762 0.0
H1261 H 0.48584 0.64492 0.21871 0.0
H1262 H 0.45637 0.62791 0.2387 0.0
H1263 H 0.47412 0.66355 0.2484 0.0
C1264 C 0.46739 0.41105 0.20667 0.0
C1265 C 0.46994 0.40369 0.17986 0.0
C1266 C 0.44963 0.43628 0.21495 0.0
C1267 C 0.4337 0.45406 0.19601 0.0
C1268 C 0.43856 0.44819 0.1689 0.0
C1269 C 0.45683 0.42343 0.16127 0.0
C1270 C 0.44637 0.44252 0.244 0.0
C1271 C 0.4223 0.46634 0.14781 0.0
C1272 C 0.35275 0.48226 0.20428 0.0
C1273 C 0.35643 0.51389 0.20101 0.0
C1274 C 0.37806 0.46264 0.20545 0.0
C1275 C 0.40803 0.47494 0.20371 0.0
C1276 C 0.41194 0.50719 0.20391 0.0
C1277 C 0.38601 0.52639 0.20233 0.0
C1278 C 0.37245 0.42855 0.20543 0.0
C1279 C 0.44342 0.5214 0.20343 0.0
H1280 H 0.47769 0.39613 0.22118 0.0
H1281 H 0.45953 0.41843 0.14051 0.0
H1282 H 0.44356 0.46733 0.24794 0.0
H1283 H 0.42578 0.43052 0.25158 0.0
H1284 H 0.46655 0.43402 0.25511 0.0
H1285 H 0.42996 0.46005 0.12768 0.0
H1286 H 0.39724 0.46227 0.14916 0.0
H1287 H 0.42627 0.49116 0.15068 0.0
H1288 H 0.32989 0.47251 0.20368 0.0
H1289 H 0.3891 0.55084 0.19994 0.0
H1290 H 0.38691 0.4172 0.22044 0.0
H1291 H 0.37877 0.41896 0.18594 0.0
H1292 H 0.3481 0.42275 0.20941 0.0
H1293 H 0.45991 0.50767 0.2151 0.0
H1294 H 0.44301 0.54513 0.21125 0.0
H1295 H 0.45182 0.52231 0.18285 0.0
C1296 C 0.20158 0.5185 0.22736 0.0
C1297 C 0.21603 0.50543 0.20548 0.0
C1298 C 0.18223 0.50092 0.2436 0.0
C1299 C 0.17785 0.46937 0.23815 0.0
C1300 C 0.19306 0.456 0.2164 0.0
C1301 C 0.21166 0.47424 0.20022 0.0
C1302 C 0.16609 0.51617 0.26634 0.0
C1303 C 0.18978 0.42236 0.21026 0.0
C1304 C 0.15165 0.41754 0.29396 0.0
C1305 C 0.12069 0.41272 0.2878 0.0
C1306 C 0.17048 0.43577 0.27794 0.0
C1307 C 0.15792 0.45012 0.25543 0.0
C1308 C 0.12659 0.44537 0.24912 0.0
C1309 C 0.10843 0.42641 0.26523 0.0
C1310 C 0.20388 0.43946 0.28503 0.0
C1311 C 0.11219 0.46061 0.22553 0.0
H1312 H 0.20474 0.54267 0.23126 0.0
H1313 H 0.2231 0.46406 0.18346 0.0
H1314 H 0.14095 0.51322 0.26426 0.0
H1315 H 0.17289 0.5052 0.28513 0.0
H1316 H 0.17136 0.541 0.26759 0.0
H1317 H 0.20368 0.41537 0.19297 0.0
H1318 H 0.19698 0.40857 0.2275 0.0
H1319 H 0.16543 0.41675 0.20625 0.0
H1320 H 0.16123 0.40667 0.31125 0.0
H1321 H 0.08444 0.42292 0.26062 0.0
H1322 H 0.20927 0.46395 0.28839 0.0
H1323 H 0.21844 0.43155 0.26849 0.0
H1324 H 0.21018 0.42641 0.30298 0.0
H1325 H 0.11514 0.48576 0.22695 0.0
H1326 H 0.08736 0.45535 0.22377 0.0
H1327 H 0.12384 0.45306 0.20726 0.0
C1328 C 0.71996 0.12805 0.2603 0.0
C1329 C 0.7093 0.11636 0.28431 0.0
C1330 C 0.70094 0.14609 0.24417 0.0
C1331 C 0.67044 0.15232 0.25211 0.0
C1332 C 0.65948 0.14019 0.27616 0.0
C1333 C 0.67901 0.12249 0.29193 0.0
C1334 C 0.71357 0.15871 0.21875 0.0
C1335 C 0.62705 0.14586 0.28523 0.0
C1336 C 0.62732 0.22013 0.22281 0.0
C1337 C 0.60954 0.20595 0.20328 0.0
C1338 C 0.64748 0.20306 0.23866 0.0
C1339 C 0.64968 0.17097 0.2351 0.0
C1340 C 0.63144 0.15652 0.21565 0.0
C1341 C 0.61174 0.17416 0.19997 0.0
C1342 C 0.66664 0.2194 0.25905 0.0
C1343 C 0.63269 0.12237 0.21142 0.0
H1344 H 0.74339 0.12368 0.25443 0.0
H1345 H 0.67044 0.11315 0.31024 0.0
H1346 H 0.69968 0.15036 0.2019 0.0
H1347 H 0.71203 0.18403 0.21883 0.0
H1348 H 0.73782 0.15209 0.2155 0.0
H1349 H 0.62205 0.13481 0.30444 0.0
H1350 H 0.62295 0.17078 0.28716 0.0
H1351 H 0.61062 0.137 0.27038 0.0
H1352 H 0.62604 0.24471 0.22521 0.0
H1353 H 0.59781 0.16302 0.18512 0.0
H1354 H 0.6913 0.2151 0.25535 0.0
H1355 H 0.66133 0.21035 0.27893 0.0
H1356 H 0.66268 0.24448 0.25906 0.0
H1357 H 0.65638 0.11537 0.20637 0.0
H1358 H 0.61707 0.11464 0.19546 0.0
H1359 H 0.62636 0.11033 0.22985 0.0
C1360 C 0.92069 0.61051 0.22839 0.0
C1361 C 0.90391 0.62462 0.20819 0.0
C1362 C 0.94377 0.62656 0.2421 0.0
C1363 C 0.94984 0.65754 0.23573 0.0
C1364 C 0.9343 0.67117 0.2143 0.0
C1365 C 0.91189 0.65448 0.20068 0.0
C1366 C 0.96045 0.61086 0.2643 0.0
C1367 C 0.93987 0.70413 0.20677 0.0
C1368 C 0.97163 0.71559 0.28785 0.0
C1369 C 1.00162 0.72354 0.28054 0.0
C1370 C 0.95517 0.69295 0.27432 0.0
C1371 C 0.96918 0.67714 0.25321 0.0
C1372 C 1.00028 0.6832 0.24708 0.0
C1373 C 1.01609 0.70651 0.26068 0.0
C1374 C 0.92205 0.68741 0.28157 0.0
C1375 C 1.01638 0.66625 0.22525 0.0
H1376 H 0.91491 0.58744 0.23432 0.0
H1377 H 0.89984 0.66529 0.18456 0.0
H1378 H 0.98525 0.61643 0.26379 0.0
H1379 H 0.95132 0.61905 0.28341 0.0
H1380 H 0.9576 0.58562 0.26347 0.0
H1381 H 0.92736 0.71072 0.18859 0.0
H1382 H 0.93232 0.71932 0.22303 0.0
H1383 H 0.96466 0.70831 0.20365 0.0
H1384 H 0.96053 0.72783 0.30371 0.0
H1385 H 0.03926 0.71225 0.2549 0.0
H1386 H 0.91788 0.66271 0.2849 0.0
H1387 H 0.90706 0.69468 0.26507 0.0
H1388 H 0.91517 0.70014 0.29954 0.0
H1389 H 1.01083 0.64149 0.22596 0.0
H1390 H 0.04164 0.66916 0.22632 0.0
H1391 H 1.00844 0.67505 0.20595 0.0
C1392 C 0.41515 1.00996 0.2613 0.0
C1393 C 0.4103 1.0028 0.28787 0.0
C1394 C 0.43477 0.9921 0.24561 0.0
C1395 C 0.45007 0.96671 0.25686 0.0
C1396 C 0.44687 0.96081 0.28413 0.0
C1397 C 0.42691 0.9788 0.29922 0.0
C1398 C 0.43741 0.99914 0.21662 0.0
C1399 C 0.46303 0.93429 0.29708 0.0
C1400 C 0.46464 0.89603 0.21533 0.0
C1401 C 0.4962 0.89798 0.21009 0.0
C1402 C 0.44939 0.91868 0.22979 0.0
C1403 C 0.46602 0.94397 0.23977 0.0
C1404 C 0.49778 0.94641 0.23448 0.0
C1405 C 0.51246 0.9235 0.21961 0.0
C1406 C 0.41547 0.91511 0.2349 0.0
C1407 C 0.51634 0.97294 0.2449 0.0
H1408 H 0.4022 0.02836 0.25241 0.0
H1409 H 0.42349 0.9735 0.31985 0.0
H1410 H 0.46168 0.99844 0.21023 0.0
H1411 H 0.42482 0.9815 0.20519 0.0
H1412 H 0.42775 0.0219 0.21169 0.0
H1413 H 0.46121 0.9351 0.31888 0.0
H1414 H 0.4528 0.91249 0.2901 0.0
H1415 H 0.48761 0.93407 0.29158 0.0
H1416 H 0.45168 0.8764 0.20867 0.0
H1417 H 0.53669 0.92565 0.21553 0.0
H1418 H 0.40306 0.93592 0.22847 0.0
H1419 H 0.41137 0.91239 0.25633 0.0
H1420 H 0.40551 0.89504 0.22454 0.0
H1421 H 0.50614 0.99486 0.23836 0.0
H1422 H 0.54058 0.97213 0.2383 0.0
H1423 H 0.51589 0.97286 0.26674 0.0
C1424 C 0.21814 0.61686 0.76878 0.0
C1425 C 0.24381 0.63149 0.7799 0.0
C1426 C 0.19585 0.63342 0.75471 0.0
C1427 C 0.19898 0.6655 0.75189 0.0
C1428 C 0.22443 0.68047 0.76344 0.0
C1429 C 0.24651 0.66336 0.77706 0.0
C1430 C 0.16917 0.61654 0.74253 0.0
C1431 C 0.22868 0.71466 0.76104 0.0
C1432 C 0.16392 0.70982 0.69507 0.0
C1433 C 0.13914 0.72449 0.70723 0.0
C1434 C 0.18255 0.68929 0.70901 0.0
C1435 C 0.17658 0.68353 0.73596 0.0
C1436 C 0.15082 0.69733 0.74808 0.0
C1437 C 0.13229 0.7175 0.73352 0.0
C1438 C 0.20941 0.67475 0.69513 0.0
C1439 C 0.14378 0.69208 0.77681 0.0
H1440 H 0.21536 0.59241 0.77104 0.0
H1441 H 0.26625 0.67514 0.78501 0.0
H1442 H 0.14726 0.62622 0.74973 0.0
H1443 H 0.16955 0.61952 0.72084 0.0
H1444 H 0.16959 0.5917 0.74702 0.0
H1445 H 0.24879 0.72308 0.77235 0.0
H1446 H 0.23181 0.72094 0.74006 0.0
H1447 H 0.20794 0.72669 0.7682 0.0
H1448 H 0.16902 0.71485 0.67466 0.0
H1449 H 0.11334 0.72897 0.74307 0.0
H1450 H 0.20942 0.64968 0.69842 0.0
H1451 H 0.23111 0.68393 0.70337 0.0
H1452 H 0.20915 0.67917 0.6736 0.0
H1453 H 0.14363 0.66727 0.7813 0.0
H1454 H 0.12136 0.70196 0.78261 0.0
H1455 H 0.16196 0.70273 0.78906 0.0
C1456 C 0.42644 0.13321 0.72441 0.0
C1457 C 0.39671 0.14498 0.72213 0.0
C1458 C 0.44918 0.149 0.73868 0.0
C1459 C 0.44183 0.17695 0.75133 0.0
C1460 C 0.41165 0.18854 0.74953 0.0
C1461 C 0.38957 0.17254 0.73485 0.0
C1462 C 0.48117 0.13608 0.73982 0.0
C1463 C 0.40264 0.21792 0.76309 0.0
C1464 C 0.492 0.20673 0.80721 0.0
C1465 C 0.50863 0.23022 0.79482 0.0
C1466 C 0.4705 0.189 0.79327 0.0
C1467 C 0.46569 0.19448 0.76612 0.0
C1468 C 0.48273 0.21769 0.75334 0.0
C1469 C 0.50371 0.23539 0.76783 0.0
C1470 C 0.45254 0.16471 0.80771 0.0
C1471 C 0.47847 0.22415 0.72437 0.0
H1472 H 0.43205 0.11201 0.71449 0.0
H1473 H 0.36648 0.18142 0.73358 0.0
H1474 H 0.49755 0.15251 0.73089 0.0
H1475 H 0.48824 0.13274 0.76059 0.0
H1476 H 0.48306 0.11389 0.7293 0.0
H1477 H 0.37798 0.22333 0.76044 0.0
H1478 H 0.40757 0.21634 0.78448 0.0
H1479 H 0.4164 0.2372 0.75521 0.0
H1480 H 0.49572 0.20204 0.82786 0.0
H1481 H 0.51585 0.25365 0.75795 0.0
H1482 H 0.45593 0.14215 0.79819 0.0
H1483 H 0.42771 0.16994 0.80669 0.0
H1484 H 0.4593 0.16292 0.82874 0.0
H1485 H 0.48155 0.20286 0.71278 0.0
H1486 H 0.49481 0.24166 0.71698 0.0
H1487 H 0.45482 0.23235 0.72071 0.0
C1488 C 0.96759 0.40812 0.71589 0.0
C1489 C 0.99932 0.41029 0.71151 0.0
C1490 C 0.95152 0.43101 0.72932 0.0
C1491 C 0.96746 0.45673 0.73928 0.0
C1492 C 0.99946 0.45923 0.73515 0.0
C1493 C 1.01499 0.43609 0.72118 0.0
C1494 C 0.91736 0.42736 0.73316 0.0
C1495 C 1.01732 0.48612 0.74577 0.0
C1496 C 0.91419 0.52258 0.75605 0.0
C1497 C 0.90681 0.5157 0.7822 0.0
C1498 C 0.9356 0.5048 0.74212 0.0
C1499 C 0.95032 0.48002 0.75491 0.0
C1500 C 0.94474 0.47478 0.782 0.0
C1501 C 0.92273 0.4924 0.79519 0.0
C1502 C 0.94048 0.51094 0.71321 0.0
C1503 C 0.96036 0.44915 0.79662 0.0
H1504 H 0.95508 0.38821 0.70924 0.0
H1505 H 0.03936 0.43832 0.71782 0.0
H1506 H 0.91212 0.42521 0.75445 0.0
H1507 H 0.90519 0.44787 0.72578 0.0
H1508 H 0.90809 0.40691 0.72287 0.0
H1509 H 0.042 0.485 0.74054 0.0
H1510 H 1.00771 0.50778 0.73803 0.0
H1511 H 1.01523 0.48694 0.76753 0.0
H1512 H 0.90164 0.54045 0.746 0.0
H1513 H 0.91706 0.48731 0.81549 0.0
H1514 H 0.92895 0.49281 0.70151 0.0
H1515 H 0.9652 0.51028 0.70824 0.0
H1516 H 0.93104 0.53343 0.70717 0.0
H1517 H 0.95059 0.42692 0.7902 0.0
H1518 H 0.95735 0.45118 0.81827 0.0
H1519 H 0.98522 0.44879 0.79212 0.0
C1520 C 0.61174 0.92896 0.76171 0.0
C1521 C 0.62126 0.91852 0.78647 0.0
C1522 C 0.63188 0.94548 0.74531 0.0
C1523 C 0.6624 0.95105 0.7537 0.0
C1524 C 0.67217 0.93994 0.77849 0.0
C1525 C 0.65146 0.92408 0.79459 0.0
C1526 C 0.62044 0.95735 0.71923 0.0
C1527 C 0.70463 0.94467 0.78802 0.0
C1528 C 0.72688 0.96732 0.70539 0.0
C1529 C 0.73275 0.99855 0.7098 0.0
C1530 C 0.70331 0.95186 0.71874 0.0
C1531 C 0.68455 0.96803 0.73666 0.0
C1532 C 0.68908 0.99987 0.7401 0.0
C1533 C 0.7132 1.01469 0.72681 0.0
C1534 C 0.69949 0.91787 0.71459 0.0
C1535 C 0.66929 1.01809 0.75872 0.0
H1536 H 0.58833 0.92483 0.75551 0.0
H1537 H 0.65899 0.91562 0.81355 0.0
H1538 H 0.62281 0.9826 0.71861 0.0
H1539 H 0.63452 0.94798 0.70296 0.0
H1540 H 0.59607 0.95126 0.71563 0.0
H1541 H 0.70871 0.93413 0.8076 0.0
H1542 H 0.72099 0.93467 0.77372 0.0
H1543 H 0.70975 0.96947 0.78942 0.0
H1544 H 0.74109 0.95462 0.69183 0.0
H1545 H 0.71727 0.0387 0.73057 0.0
H1546 H 0.67534 0.91231 0.70974 0.0
H1547 H 0.70522 0.9056 0.73306 0.0
H1548 H 0.71441 0.90904 0.69861 0.0
H1549 H 0.6447 1.01316 0.75508 0.0
H1550 H 0.67318 0.0431 0.75678 0.0
H1551 H 0.67439 1.01133 0.7793 0.0
C1552 C 0.97918 0.75849 0.73849 0.0
C1553 C 0.99967 0.74508 0.72075 0.0
C1554 C 0.95581 0.74091 0.75024 0.0
C1555 C 0.9533 0.70928 0.74428 0.0
C1556 C 0.97485 0.69556 0.72721 0.0
C1557 C 0.99758 0.71366 0.71556 0.0
C1558 C 0.93323 0.75631 0.76837 0.0
C1559 C 0.97354 0.66183 0.72081 0.0
C1560 C 0.9129 0.65667 0.79223 0.0
C1561 C 0.88457 0.65148 0.77985 0.0
C1562 C 0.93518 0.6756 0.78098 0.0
C1563 C 0.92908 0.69002 0.75668 0.0
C1564 C 0.90064 0.68473 0.74383 0.0
C1565 C 0.87869 0.66528 0.75552 0.0
C1566 C 0.96536 0.68003 0.79511 0.0
C1567 C 0.89337 0.6998 0.71788 0.0
H1568 H 0.9804 0.7829 0.74204 0.0
H1569 H 1.01339 0.70332 0.70172 0.0
H1570 H 0.90974 0.75396 0.76025 0.0
H1571 H 0.93336 0.74501 0.7879 0.0
H1572 H 0.93838 0.781 0.77111 0.0
H1573 H 0.9924 0.65464 0.70752 0.0
H1574 H 0.97491 0.64818 0.73917 0.0
H1575 H 0.95138 0.65623 0.71124 0.0
H1576 H 0.91779 0.64584 0.81095 0.0
H1577 H 0.85677 0.66153 0.74601 0.0
H1578 H 0.96926 0.70466 0.79913 0.0
H1579 H 0.98445 0.67207 0.78245 0.0
H1580 H 0.96632 0.66741 0.81406 0.0
H1581 H 0.89536 0.72499 0.71986 0.0
H1582 H 0.86997 0.69409 0.71078 0.0
H1583 H 0.91018 0.69253 0.70277 0.0
C1584 C 0.41396 1.00766 0.7259 0.0
C1585 C 0.38204 1.0057 0.7281 0.0
C1586 C 0.43305 0.98622 0.73811 0.0
C1587 C 0.41983 0.96173 0.75233 0.0
C1588 C 0.38752 0.96 0.75508 0.0
C1589 C 0.36894 0.98227 0.7431 0.0
C1590 C 0.46735 0.98949 0.73534 0.0
C1591 C 0.37261 0.93406 0.7699 0.0
C1592 C 0.47041 0.89173 0.76304 0.0
C1593 C 0.48012 0.89635 0.78902 0.0
C1594 C 0.45022 0.91253 0.75091 0.0
C1595 C 0.44003 0.93864 0.76502 0.0
C1596 C 0.4502 0.94351 0.79109 0.0
C1597 C 0.46992 0.92231 0.80275 0.0
C1598 C 0.43965 0.90654 0.72309 0.0
C1599 C 0.44047 0.97132 0.80665 0.0
H1600 H 0.424 0.02573 0.71408 0.0
H1601 H 0.3442 0.98042 0.74422 0.0
H1602 H 0.47826 0.99023 0.75507 0.0
H1603 H 0.47679 0.96937 0.72484 0.0
H1604 H 0.47395 1.01047 0.72439 0.0
H1605 H 0.34724 0.93602 0.77028 0.0
H1606 H 0.37883 0.91195 0.76062 0.0
H1607 H 0.38115 0.93346 0.79046 0.0
H1608 H 0.47808 0.87165 0.75243 0.0
H1609 H 0.47752 0.92626 0.82279 0.0
H1610 H 0.44716 0.92547 0.71007 0.0
H1611 H 0.41426 0.90578 0.72238 0.0
H1612 H 0.44875 0.8847 0.71515 0.0
H1613 H 0.44779 0.99242 0.79628 0.0
H1614 H 0.45032 0.97162 0.82681 0.0
H1615 H 0.41515 0.97204 0.80824 0.0
C1616 C 0.148 0.42185 0.70187 0.0
C1617 C 0.14115 0.39391 0.7142 0.0
C1618 C 0.17051 0.44162 0.71178 0.0
C1619 C 0.18679 0.43344 0.73476 0.0
C1620 C 0.17953 0.40561 0.74778 0.0
C1621 C 0.15667 0.38614 0.73737 0.0
C1622 C 0.17707 0.47118 0.69745 0.0
C1623 C 0.19626 0.39623 0.77246 0.0
C1624 C 0.26332 0.47333 0.74843 0.0
C1625 C 0.25463 0.49501 0.76725 0.0
C1626 C 0.24147 0.45309 0.73754 0.0
C1627 C 0.21037 0.45483 0.74563 0.0
C1628 C 0.20146 0.47771 0.76375 0.0
C1629 C 0.22366 0.49737 0.77433 0.0
C1630 C 0.2518 0.42915 0.7181 0.0
C1631 C 0.16858 0.48086 0.7726 0.0
H1632 H 0.13598 0.42817 0.68401 0.0
H1633 H 0.15174 0.36446 0.7468 0.0
H1634 H 0.17322 0.49091 0.71079 0.0
H1635 H 0.20144 0.47193 0.6913 0.0
H1636 H 0.16247 0.47409 0.67972 0.0
H1637 H 0.18811 0.37389 0.78018 0.0
H1638 H 0.22118 0.3946 0.76842 0.0
H1639 H 0.19319 0.41385 0.78796 0.0
H1640 H 0.28732 0.47108 0.74334 0.0
H1641 H 0.21691 0.51412 0.78897 0.0
H1642 H 0.23833 0.43097 0.69964 0.0
H1643 H 0.24756 0.40603 0.72631 0.0
H1644 H 0.27652 0.4313 0.71325 0.0
H1645 H 0.15338 0.48414 0.75533 0.0
H1646 H 0.16532 0.50039 0.78631 0.0
H1647 H 0.1611 0.4596 0.78262 0.0
C1648 C 0.65138 0.20782 0.78923 0.0
C1649 C 0.64713 0.23729 0.77896 0.0
C1650 C 0.67199 0.18727 0.77772 0.0
C1651 C 0.68911 0.19646 0.75548 0.0
C1652 C 0.68437 0.22594 0.74454 0.0
C1653 C 0.66323 0.24601 0.75635 0.0
C1654 C 0.67579 0.15589 0.78967 0.0
C1655 C 0.7022 0.2365 0.72078 0.0
C1656 C 0.76271 0.1531 0.73964 0.0
C1657 C 0.75294 0.13439 0.7189 0.0
C1658 C 0.74216 0.17349 0.75185 0.0
C1659 C 0.71122 0.17475 0.74324 0.0
C1660 C 0.70113 0.15487 0.72305 0.0
C1661 C 0.72213 0.13512 0.71108 0.0
C1662 C 0.75372 0.19436 0.77336 0.0
C1663 C 0.66829 0.15491 0.71366 0.0
H1664 H 0.63888 0.20095 0.8067 0.0
H1665 H 0.66031 0.26891 0.74861 0.0
H1666 H 0.67115 0.13802 0.77465 0.0
H1667 H 0.69976 0.1528 0.79639 0.0
H1668 H 0.66025 0.15209 0.80667 0.0
H1669 H 0.69588 0.26004 0.71466 0.0
H1670 H 0.72709 0.23597 0.72517 0.0
H1671 H 0.69811 0.22075 0.704 0.0
H1672 H 0.78661 0.15282 0.74545 0.0
H1673 H 0.71449 0.12052 0.69509 0.0
H1674 H 0.73996 0.1911 0.79149 0.0
H1675 H 0.75097 0.21855 0.76724 0.0
H1676 H 0.77821 0.19025 0.77809 0.0
H1677 H 0.65257 0.15073 0.73043 0.0
H1678 H 0.66393 0.13727 0.69835 0.0
H1679 H 0.66248 0.17764 0.70539 0.0
C1680 C 0.98825 0.39813 0.25976 0.0
C1681 C 0.97873 0.38114 0.28158 0.0
C1682 C 0.96782 0.41825 0.24712 0.0
C1683 C 0.93721 0.4208 0.25633 0.0
C1684 C 0.92736 0.40261 0.27771 0.0
C1685 C 0.94833 0.38329 0.29023 0.0
C1686 C 0.9792 0.4375 0.2245 0.0
C1687 C 0.89481 0.40395 0.28772 0.0
C1688 C 0.89034 0.49197 0.24041 0.0
C1689 C 0.87401 0.48208 0.21829 0.0
C1690 C 0.9112 0.47227 0.25302 0.0
C1691 C 0.9152 0.44202 0.24344 0.0
C1692 C 0.89768 0.43175 0.22173 0.0
C1693 C 0.87758 0.45202 0.20927 0.0
C1694 C 0.92969 0.4841 0.27599 0.0
C1695 C 0.90059 0.39953 0.2113 0.0
H1696 H 1.01193 0.39683 0.25345 0.0
H1697 H 0.94107 0.37012 0.30721 0.0
H1698 H 0.96515 0.43309 0.20669 0.0
H1699 H 0.97672 0.4621 0.22942 0.0
H1700 H 1.00359 0.43289 0.21975 0.0
H1701 H 0.89055 0.38737 0.30387 0.0
H1702 H 0.88971 0.42727 0.29507 0.0
H1703 H 0.87854 0.39907 0.27144 0.0
H1704 H 0.88798 0.51544 0.24697 0.0
H1705 H 0.86498 0.44453 0.19201 0.0
H1706 H 0.95448 0.48278 0.27132 0.0
H1707 H 0.92566 0.46962 0.29357 0.0
H1708 H 0.92394 0.50814 0.281 0.0
H1709 H 0.92425 0.39562 0.20411 0.0
H1710 H 0.88438 0.39482 0.19492 0.0
H1711 H 0.89627 0.38282 0.2273 0.0
C1712 C 0.63037 0.89244 0.23927 0.0
C1713 C 0.63974 0.87482 0.21777 0.0
C1714 C 0.65083 0.91316 0.25129 0.0
C1715 C 0.6813 0.91578 0.24173 0.0
C1716 C 0.69099 0.89702 0.22065 0.0
C1717 C 0.66999 0.87705 0.20878 0.0
C1718 C 0.63962 0.93295 0.27363 0.0
C1719 C 0.72337 0.89847 0.21025 0.0
C1720 C 0.72791 0.98791 0.2562 0.0
C1721 C 0.74452 0.97873 0.27837 0.0
C1722 C 0.70708 0.96766 0.24401 0.0
C1723 C 0.70337 0.93757 0.25407 0.0
C1724 C 0.72118 0.92801 0.27578 0.0
C1725 C 0.74127 0.94878 0.28778 0.0
C1726 C 0.68832 0.97872 0.22097 0.0
C1727 C 0.7186 0.89599 0.28671 0.0
H1728 H 0.60675 0.89115 0.24576 0.0
H1729 H 0.67706 0.8635 0.19195 0.0
H1730 H 0.65397 0.92926 0.29136 0.0
H1731 H 0.64181 0.95742 0.26817 0.0
H1732 H 0.61534 0.92816 0.27875 0.0
H1733 H 0.72751 0.88149 0.19437 0.0
H1734 H 0.72817 0.92164 0.20239 0.0
H1735 H 0.73992 0.89426 0.22643 0.0
H1736 H 0.73006 1.01124 0.24925 0.0
H1737 H 0.75416 0.94173 0.30499 0.0
H1738 H 0.6636 0.97746 0.22592 0.0
H1739 H 0.6921 0.96372 0.20367 0.0
H1740 H 0.69404 1.00262 0.21541 0.0
H1741 H 0.69504 0.89196 0.2941 0.0
H1742 H 0.73498 0.89185 0.30307 0.0
H1743 H 0.72293 0.87897 0.27095 0.0
C1744 C 0.13495 0.7376 0.24791 0.0
C1745 C 0.14443 0.75376 0.27027 0.0
C1746 C 0.15481 0.7166 0.23558 0.0
C1747 C 0.18484 0.71219 0.24569 0.0
C1748 C 0.19471 0.7295 0.26765 0.0
C1749 C 0.17431 0.74978 0.27978 0.0
C1750 C 0.14337 0.69842 0.2123 0.0
C1751 C 0.22666 0.72617 0.2787 0.0
C1752 C 0.22906 0.63899 0.2301 0.0
C1753 C 0.24697 0.64847 0.20877 0.0
C1754 C 0.20845 0.65942 0.24224 0.0
C1755 C 0.2063 0.69003 0.23308 0.0
C1756 C 0.22533 0.69982 0.21219 0.0
C1757 C 0.24511 0.67885 0.20015 0.0
C1758 C 0.18836 0.64805 0.26433 0.0
C1759 C 0.22449 0.73235 0.20226 0.0
H1760 H 0.11163 0.74022 0.24093 0.0
H1761 H 0.18156 0.76222 0.2972 0.0
H1762 H 0.15842 0.70233 0.19504 0.0
H1763 H 0.14425 0.67364 0.21691 0.0
H1764 H 0.1195 0.70449 0.20683 0.0
H1765 H 0.23111 0.74218 0.29528 0.0
H1766 H 0.23015 0.70247 0.28581 0.0
H1767 H 0.24389 0.73045 0.26307 0.0
H1768 H 0.23008 0.61534 0.23642 0.0
H1769 H 0.25897 0.68616 0.18358 0.0
H1770 H 0.1639 0.65088 0.2589 0.0
H1771 H 0.19243 0.66184 0.28234 0.0
H1772 H 0.19256 0.6236 0.26898 0.0
H1773 H 0.20133 0.73768 0.19454 0.0
H1774 H 0.24149 0.73652 0.18639 0.0
H1775 H 0.22915 0.74848 0.21866 0.0
C1776 C 0.37637 0.17371 0.28196 0.0
C1777 C 0.37553 0.1428 0.27475 0.0
C1778 C 0.39458 0.19472 0.26826 0.0
C1779 C 0.41301 0.18439 0.24718 0.0
C1780 C 0.41169 0.15323 0.23938 0.0
C1781 C 0.39264 0.13274 0.25318 0.0
C1782 C 0.39463 0.22782 0.27678 0.0
C1783 C 0.43124 0.14135 0.21715 0.0
C1784 C 0.44214 0.24244 0.19774 0.0
C1785 C 0.4721 0.24783 0.20661 0.0
C1786 C 0.42261 0.22217 0.21093 0.0
C1787 C 0.43348 0.20638 0.23332 0.0
C1788 C 0.46358 0.21215 0.24272 0.0
C1789 C 0.48252 0.23311 0.22935 0.0
C1790 C 0.39046 0.21735 0.20068 0.0
C1791 C 0.47604 0.19554 0.26644 0.0
H1792 H 0.36317 0.18132 0.29882 0.0
H1793 H 0.39237 0.10868 0.24803 0.0
H1794 H 0.41773 0.2343 0.28403 0.0
H1795 H 0.38934 0.24282 0.25978 0.0
H1796 H 0.37773 0.23238 0.29264 0.0
H1797 H 0.42727 0.11665 0.21329 0.0
H1798 H 0.42644 0.15431 0.19885 0.0
H1799 H 0.4558 0.14484 0.22193 0.0
H1800 H 0.43404 0.25389 0.18014 0.0
H1801 H 0.50584 0.23692 0.23596 0.0
H1802 H 0.37357 0.22216 0.21644 0.0
H1803 H 0.3873 0.19314 0.19471 0.0
H1804 H 0.38525 0.23217 0.18351 0.0
H1805 H 0.46144 0.20013 0.28386 0.0
H1806 H 0.49994 0.20242 0.27113 0.0
H1807 H 0.47546 0.17051 0.26287 0.0
loop_
_geom_bond_atom_site_label_1
_geom_bond_atom_site_label_2
_geom_bond_distance
_geom_bond_site_symmetry_2
_ccdc_geom_bond_type
C0 C1 1.351 . S
C0 N3 1.368 . S
C0 H5 0.931 . S
C1 C0 1.351 . S
C1 N2 1.373 . S
C1 H29 0.930 . S
N2 C1 1.373 . S
N2 C4 1.340 . S
N3 C0 1.368 . S
N3 C4 1.321 . S
N3 Co6 2.135 1_655 S
C4 N2 1.340 . S
C4 N3 1.321 . S
C4 H28 0.930 1_655 S
H5 C0 0.931 . S
Co6 N3 2.135 1_455 S
Co6 N9 2.121 . S
Co6 O14 2.055 . S
Co6 O17 2.039 . S
Co6 N20 2.140 . S
C7 O8 1.227 . S
C7 O17 1.265 . S
O8 C7 1.227 . S
N9 Co6 2.121 . S
N9 C11 1.375 . S
N9 C12 1.313 . S
C10 C11 1.338 . S
C10 N13 1.377 . S
C10 H30 0.930 . S
C11 N9 1.375 . S
C11 C10 1.338 . S
C11 H15 0.931 . S
C12 N9 1.313 . S
C12 N13 1.344 . S
C12 H16 0.930 . S
N13 C10 1.377 . S
N13 C12 1.344 . S
O14 Co6 2.055 . S
O14 C18 1.253 1_455 S
H15 C11 0.931 . S
H16 C12 0.930 . S
O17 Co6 2.039 . S
O17 C7 1.265 . S
C18 O14 1.253 1_655 S
C18 O19 1.227 . S
O19 C18 1.227 . S
N20 Co6 2.140 . S
N20 C23 1.346 . S
N20 C24 1.345 . S
C21 C22 1.387 . S
C21 C25 1.391 . S
C22 C21 1.387 . S
C22 C23 1.369 . S
C22 H31 0.929 . S
C23 N20 1.346 . S
C23 C22 1.369 . S
C23 H26 0.928 . S
C24 N20 1.345 . S
C24 C25 1.371 . S
C24 H27 0.931 . S
C25 C21 1.391 . S
C25 C24 1.371 . S
C25 H32 0.930 . S
H26 C23 0.928 . S
H27 C24 0.931 . S
H28 C4 0.930 1_455 S
H29 C1 0.930 . S
H30 C10 0.930 . S
H31 C22 0.929 . S
H32 C25 0.930 . S
C33 C34 1.351 . S
C33 N36 1.368 . S
C33 H38 0.931 . S
C34 C33 1.351 . S
C34 N35 1.373 . S
C34 H62 0.930 . S
N35 C34 1.373 . S
N35 C37 1.340 . S
N36 C33 1.368 . S
N36 C37 1.321 . S
N36 Co39 2.135 1_565 S
C37 N35 1.340 . S
C37 N36 1.321 . S
C37 H61 0.930 1_565 S
H38 C33 0.931 . S
Co39 N36 2.135 1_545 S
Co39 N42 2.121 . S
Co39 O47 2.055 . S
Co39 O50 2.039 . S
Co39 N53 2.140 . S
C40 O41 1.227 . S
C40 O50 1.265 . S
O41 C40 1.227 . S
N42 Co39 2.121 . S
N42 C44 1.375 . S
N42 C45 1.313 . S
C43 C44 1.338 . S
C43 N46 1.377 . S
C43 H63 0.930 . S
C44 N42 1.375 . S
C44 C43 1.338 . S
C44 H48 0.931 . S
C45 N42 1.313 . S
C45 N46 1.344 . S
C45 H49 0.930 . S
N46 C43 1.377 . S
N46 C45 1.344 . S
O47 Co39 2.055 . S
O47 C51 1.253 1_545 S
H48 C44 0.931 . S
H49 C45 0.930 . S
O50 Co39 2.039 . S
O50 C40 1.265 . S
C51 O47 1.253 1_565 S
C51 O52 1.227 . S
O52 C51 1.227 . S
N53 Co39 2.140 . S
N53 C56 1.346 . S
N53 C57 1.345 . S
C54 C55 1.387 . S
C54 C58 1.391 . S
C55 C54 1.387 . S
C55 C56 1.369 . S
C55 H64 0.929 . S
C56 N53 1.346 . S
C56 C55 1.369 . S
C56 H59 0.928 . S
C57 N53 1.345 . S
C57 C58 1.371 . S
C57 H60 0.931 . S
C58 C54 1.391 . S
C58 C57 1.371 . S
C58 H65 0.930 . S
H59 C56 0.928 . S
H60 C57 0.931 . S
H61 C37 0.930 1_545 S
H62 C34 0.930 . S
H63 C43 0.930 . S
H64 C55 0.929 . S
H65 C58 0.930 . S
C66 C67 1.351 . S
C66 N69 1.368 . S
C66 H71 0.931 . S
C67 C66 1.351 . S
C67 N68 1.373 . S
C67 H95 0.930 . S
N68 C67 1.373 . S
N68 C70 1.340 . S
N69 C66 1.368 . S
N69 C70 1.321 . S
N69 Co72 2.135 . S
C70 N68 1.340 . S
C70 N69 1.321 . S
C70 H94 0.930 . S
H71 C66 0.931 . S
Co72 N69 2.135 . S
Co72 N75 2.121 . S
Co72 O80 2.055 . S
Co72 O83 2.039 . S
Co72 N86 2.140 . S
C73 O74 1.227 . S
C73 O83 1.265 . S
O74 C73 1.227 . S
N75 Co72 2.121 . S
N75 C77 1.375 . S
N75 C78 1.313 . S
C76 C77 1.338 1_655 S
C76 N79 1.377 1_655 S
C76 H96 0.930 . S
C77 N75 1.375 . S
C77 C76 1.338 1_455 S
C77 H81 0.931 1_455 S
C78 N75 1.313 . S
C78 N79 1.344 . S
C78 H82 0.930 . S
N79 C76 1.377 1_455 S
N79 C78 1.344 . S
O80 Co72 2.055 . S
O80 C84 1.253 . S
H81 C77 0.931 1_655 S
H82 C78 0.930 . S
O83 Co72 2.039 . S
O83 C73 1.265 . S
C84 O80 1.253 . S
C84 O85 1.227 . S
O85 C84 1.227 . S
N86 Co72 2.140 . S
N86 C89 1.346 . S
N86 C90 1.345 . S
C87 C88 1.387 . S
C87 C91 1.391 . S
C88 C87 1.387 . S
C88 C89 1.369 . S
C88 H97 0.929 . S
C89 N86 1.346 . S
C89 C88 1.369 . S
C89 H92 0.928 . S
C90 N86 1.345 . S
C90 C91 1.371 . S
C90 H93 0.931 . S
C91 C87 1.391 . S
C91 C90 1.371 . S
C91 H98 0.930 . S
H92 C89 0.928 . S
H93 C90 0.931 . S
H94 C70 0.930 . S
H95 C67 0.930 . S
H96 C76 0.930 . S
H97 C88 0.929 . S
H98 C91 0.930 . S
C99 C100 1.351 . S
C99 N102 1.368 . S
C99 H104 0.931 . S
C100 C99 1.351 . S
C100 N101 1.373 . S
C100 H128 0.930 . S
N101 C100 1.373 . S
N101 C103 1.340 . S
N102 C99 1.368 . S
N102 C103 1.321 . S
N102 Co105 2.135 . S
C103 N101 1.340 . S
C103 N102 1.321 . S
C103 H127 0.930 . S
H104 C99 0.931 . S
Co105 N102 2.135 . S
Co105 N108 2.121 . S
Co105 O113 2.055 . S
Co105 O116 2.039 . S
Co105 N119 2.140 . S
C106 O107 1.227 . S
C106 O116 1.265 . S
O107 C106 1.227 . S
N108 Co105 2.121 . S
N108 C110 1.375 . S
N108 C111 1.313 . S
C109 C110 1.338 1_565 S
C109 N112 1.377 1_565 S
C109 H129 0.930 . S
C110 N108 1.375 . S
C110 C109 1.338 1_545 S
C110 H114 0.931 1_545 S
C111 N108 1.313 . S
C111 N112 1.344 . S
C111 H115 0.930 . S
N112 C109 1.377 1_545 S
N112 C111 1.344 . S
O113 Co105 2.055 . S
O113 C117 1.253 . S
H114 C110 0.931 1_565 S
H115 C111 0.930 . S
O116 Co105 2.039 . S
O116 C106 1.265 . S
C117 O113 1.253 . S
C117 O118 1.227 . S
O118 C117 1.227 . S
N119 Co105 2.140 . S
N119 C122 1.346 . S
N119 C123 1.345 . S
C120 C121 1.387 . S
C120 C124 1.391 . S
C121 C120 1.387 . S
C121 C122 1.369 . S
C121 H130 0.929 . S
C122 N119 1.346 . S
C122 C121 1.369 . S
C122 H125 0.928 . S
C123 N119 1.345 . S
C123 C124 1.371 . S
C123 H126 0.931 . S
C124 C120 1.391 . S
C124 C123 1.371 . S
C124 H131 0.930 . S
H125 C122 0.928 . S
H126 C123 0.931 . S
H127 C103 0.930 . S
H128 C100 0.930 . S
H129 C109 0.930 . S
H130 C121 0.929 . S
H131 C124 0.930 . S
C132 C133 1.351 . S
C132 N135 1.368 . S
C132 H137 0.931 . S
C133 C132 1.351 . S
C133 N134 1.373 . S
C133 H161 0.930 . S
N134 C133 1.373 . S
N134 C136 1.340 . S
N135 C132 1.368 . S
N135 C136 1.321 . S
N135 Co138 2.135 1_655 S
C136 N134 1.340 . S
C136 N135 1.321 . S
C136 H160 0.930 1_655 S
H137 C132 0.931 . S
Co138 N135 2.135 1_455 S
Co138 N141 2.121 . S
Co138 O146 2.055 . S
Co138 O149 2.039 . S
Co138 N152 2.140 . S
C139 O140 1.227 . S
C139 O149 1.265 . S
O140 C139 1.227 . S
N141 Co138 2.121 . S
N141 C143 1.375 . S
N141 C144 1.313 . S
C142 C143 1.338 . S
C142 N145 1.377 . S
C142 H162 0.930 . S
C143 N141 1.375 . S
C143 C142 1.338 . S
C143 H147 0.931 . S
C144 N141 1.313 . S
C144 N145 1.344 . S
C144 H148 0.930 . S
N145 C142 1.377 . S
N145 C144 1.344 . S
O146 Co138 2.055 . S
O146 C150 1.253 1_455 S
H147 C143 0.931 . S
H148 C144 0.930 . S
O149 Co138 2.039 . S
O149 C139 1.265 . S
C150 O146 1.253 1_655 S
C150 O151 1.227 . S
O151 C150 1.227 . S
N152 Co138 2.140 . S
N152 C155 1.346 . S
N152 C156 1.345 . S
C153 C154 1.387 . S
C153 C157 1.391 . S
C154 C153 1.387 . S
C154 C155 1.369 . S
C154 H163 0.929 . S
C155 N152 1.346 . S
C155 C154 1.369 . S
C155 H158 0.928 . S
C156 N152 1.345 . S
C156 C157 1.371 . S
C156 H159 0.931 . S
C157 C153 1.391 . S
C157 C156 1.371 . S
C157 H164 0.930 . S
H158 C155 0.928 . S
H159 C156 0.931 . S
H160 C136 0.930 1_455 S
H161 C133 0.930 . S
H162 C142 0.930 . S
H163 C154 0.929 . S
H164 C157 0.930 . S
C165 C166 1.351 . S
C165 N168 1.368 . S
C165 H170 0.931 . S
C166 C165 1.351 . S
C166 N167 1.373 . S
C166 H194 0.930 . S
N167 C166 1.373 . S
N167 C169 1.340 . S
N168 C165 1.368 . S
N168 C169 1.321 . S
N168 Co171 2.135 1_565 S
C169 N167 1.340 . S
C169 N168 1.321 . S
C169 H193 0.930 1_565 S
H170 C165 0.931 . S
Co171 N168 2.135 1_545 S
Co171 N174 2.121 . S
Co171 O179 2.055 . S
Co171 O182 2.039 . S
Co171 N185 2.140 . S
C172 O173 1.227 . S
C172 O182 1.265 . S
O173 C172 1.227 . S
N174 Co171 2.121 . S
N174 C176 1.375 . S
N174 C177 1.313 . S
C175 C176 1.338 . S
C175 N178 1.377 . S
C175 H195 0.930 . S
C176 N174 1.375 . S
C176 C175 1.338 . S
C176 H180 0.931 . S
C177 N174 1.313 . S
C177 N178 1.344 . S
C177 H181 0.930 . S
N178 C175 1.377 . S
N178 C177 1.344 . S
O179 Co171 2.055 . S
O179 C183 1.253 1_545 S
H180 C176 0.931 . S
H181 C177 0.930 . S
O182 Co171 2.039 . S
O182 C172 1.265 . S
C183 O179 1.253 1_565 S
C183 O184 1.227 . S
O184 C183 1.227 . S
N185 Co171 2.140 . S
N185 C188 1.346 . S
N185 C189 1.345 . S
C186 C187 1.387 . S
C186 C190 1.391 . S
C187 C186 1.387 . S
C187 C188 1.369 . S
C187 H196 0.929 . S
C188 N185 1.346 . S
C188 C187 1.369 . S
C188 H191 0.928 . S
C189 N185 1.345 . S
C189 C190 1.371 . S
C189 H192 0.931 . S
C190 C186 1.391 . S
C190 C189 1.371 . S
C190 H197 0.930 . S
H191 C188 0.928 . S
H192 C189 0.931 . S
H193 C169 0.930 1_545 S
H194 C166 0.930 . S
H195 C175 0.930 . S
H196 C187 0.929 . S
H197 C190 0.930 . S
C198 C199 1.351 . S
C198 N201 1.368 . S
C198 H203 0.931 . S
C199 C198 1.351 . S
C199 N200 1.373 . S
C199 H227 0.930 . S
N200 C199 1.373 . S
N200 C202 1.340 . S
N201 C198 1.368 . S
N201 C202 1.321 . S
N201 Co204 2.135 . S
C202 N200 1.340 . S
C202 N201 1.321 . S
C202 H226 0.930 . S
H203 C198 0.931 . S
Co204 N201 2.135 . S
Co204 N207 2.121 . S
Co204 O212 2.055 . S
Co204 O215 2.039 . S
Co204 N218 2.140 . S
C205 O206 1.227 . S
C205 O215 1.265 . S
O206 C205 1.227 . S
N207 Co204 2.121 . S
N207 C209 1.375 . S
N207 C210 1.313 . S
C208 C209 1.338 1_655 S
C208 N211 1.377 1_655 S
C208 H228 0.930 . S
C209 N207 1.375 . S
C209 C208 1.338 1_455 S
C209 H213 0.931 1_455 S
C210 N207 1.313 . S
C210 N211 1.344 . S
C210 H214 0.930 . S
N211 C208 1.377 1_455 S
N211 C210 1.344 . S
O212 Co204 2.055 . S
O212 C216 1.253 . S
H213 C209 0.931 1_655 S
H214 C210 0.930 . S
O215 Co204 2.039 . S
O215 C205 1.265 . S
C216 O212 1.253 . S
C216 O217 1.227 . S
O217 C216 1.227 . S
N218 Co204 2.140 . S
N218 C221 1.346 . S
N218 C222 1.345 . S
C219 C220 1.387 . S
C219 C223 1.391 . S
C220 C219 1.387 . S
C220 C221 1.369 . S
C220 H229 0.929 . S
C221 N218 1.346 . S
C221 C220 1.369 . S
C221 H224 0.928 . S
C222 N218 1.345 . S
C222 C223 1.371 . S
C222 H225 0.931 . S
C223 C219 1.391 . S
C223 C222 1.371 . S
C223 H230 0.930 . S
H224 C221 0.928 . S
H225 C222 0.931 . S
H226 C202 0.930 . S
H227 C199 0.930 . S
H228 C208 0.930 . S
H229 C220 0.929 . S
H230 C223 0.930 . S
C231 C232 1.351 . S
C231 N234 1.368 . S
C231 H236 0.931 . S
C232 C231 1.351 . S
C232 N233 1.373 . S
C232 H260 0.930 . S
N233 C232 1.373 . S
N233 C235 1.340 . S
N234 C231 1.368 . S
N234 C235 1.321 . S
N234 Co237 2.135 . S
C235 N233 1.340 . S
C235 N234 1.321 . S
C235 H259 0.930 . S
H236 C231 0.931 . S
Co237 N234 2.135 . S
Co237 N240 2.121 . S
Co237 O245 2.055 . S
Co237 O248 2.039 . S
Co237 N251 2.140 . S
C238 O239 1.227 . S
C238 O248 1.265 . S
O239 C238 1.227 . S
N240 Co237 2.121 . S
N240 C242 1.375 . S
N240 C243 1.313 . S
C241 C242 1.338 1_565 S
C241 N244 1.377 1_565 S
C241 H261 0.930 . S
C242 N240 1.375 . S
C242 C241 1.338 1_545 S
C242 H246 0.931 1_545 S
C243 N240 1.313 . S
C243 N244 1.344 . S
C243 H247 0.930 . S
N244 C241 1.377 1_545 S
N244 C243 1.344 . S
O245 Co237 2.055 . S
O245 C249 1.253 . S
H246 C242 0.931 1_565 S
H247 C243 0.930 . S
O248 Co237 2.039 . S
O248 C238 1.265 . S
C249 O245 1.253 . S
C249 O250 1.227 . S
O250 C249 1.227 . S
N251 Co237 2.140 . S
N251 C254 1.346 . S
N251 C255 1.345 . S
C252 C253 1.387 . S
C252 C256 1.391 . S
C253 C252 1.387 . S
C253 C254 1.369 . S
C253 H262 0.929 . S
C254 N251 1.346 . S
C254 C253 1.369 . S
C254 H257 0.928 . S
C255 N251 1.345 . S
C255 C256 1.371 . S
C255 H258 0.931 . S
C256 C252 1.391 . S
C256 C255 1.371 . S
C256 H263 0.930 . S
H257 C254 0.928 . S
H258 C255 0.931 . S
H259 C235 0.930 . S
H260 C232 0.930 . S
H261 C241 0.930 . S
H262 C253 0.929 . S
H263 C256 0.930 . S
C264 C265 1.351 . S
C264 N267 1.368 . S
C264 H269 0.931 . S
C265 C264 1.351 . S
C265 N266 1.373 . S
C265 H293 0.930 . S
N266 C265 1.373 . S
N266 C268 1.340 . S
N267 C264 1.368 . S
N267 C268 1.321 . S
N267 Co270 2.135 . S
C268 N266 1.340 . S
C268 N267 1.321 . S
C268 H292 0.930 . S
H269 C264 0.931 . S
Co270 N267 2.135 . S
Co270 N273 2.121 . S
Co270 O278 2.055 . S
Co270 O281 2.039 . S
Co270 N284 2.140 . S
C271 O272 1.227 . S
C271 O281 1.265 . S
O272 C271 1.227 . S
N273 Co270 2.121 . S
N273 C275 1.375 . S
N273 C276 1.313 . S
C274 C275 1.338 . S
C274 N277 1.377 . S
C274 H294 0.930 . S
C275 N273 1.375 . S
C275 C274 1.338 . S
C275 H279 0.931 . S
C276 N273 1.313 . S
C276 N277 1.344 . S
C276 H280 0.930 . S
N277 C274 1.377 . S
N277 C276 1.344 . S
O278 Co270 2.055 . S
O278 C282 1.253 . S
H279 C275 0.931 . S
H280 C276 0.930 . S
O281 Co270 2.039 . S
O281 C271 1.265 . S
C282 O278 1.253 . S
C282 O283 1.227 . S
O283 C282 1.227 . S
N284 Co270 2.140 . S
N284 C287 1.346 . S
N284 C288 1.345 . S
C285 C286 1.387 . S
C285 C289 1.391 . S
C286 C285 1.387 . S
C286 C287 1.369 . S
C286 H295 0.929 . S
C287 N284 1.346 . S
C287 C286 1.369 . S
C287 H290 0.928 . S
C288 N284 1.345 . S
C288 C289 1.371 . S
C288 H291 0.931 . S
C289 C285 1.391 . S
C289 C288 1.371 . S
C289 H296 0.930 . S
H290 C287 0.928 . S
H291 C288 0.931 . S
H292 C268 0.930 . S
H293 C265 0.930 . S
H294 C274 0.930 . S
H295 C286 0.929 . S
H296 C289 0.930 . S
C297 C298 1.351 . S
C297 N300 1.368 . S
C297 H302 0.931 . S
C298 C297 1.351 . S
C298 N299 1.373 . S
C298 H326 0.930 . S
N299 C298 1.373 . S
N299 C301 1.340 . S
N300 C297 1.368 . S
N300 C301 1.321 . S
N300 Co303 2.135 . S
C301 N299 1.340 . S
C301 N300 1.321 . S
C301 H325 0.930 . S
H302 C297 0.931 . S
Co303 N300 2.135 . S
Co303 N306 2.121 . S
Co303 O311 2.055 . S
Co303 O314 2.039 . S
Co303 N317 2.140 . S
C304 O305 1.227 . S
C304 O314 1.265 . S
O305 C304 1.227 . S
N306 Co303 2.121 . S
N306 C308 1.375 . S
N306 C309 1.313 . S
C307 C308 1.338 . S
C307 N310 1.377 . S
C307 H327 0.930 . S
C308 N306 1.375 . S
C308 C307 1.338 . S
C308 H312 0.931 . S
C309 N306 1.313 . S
C309 N310 1.344 . S
C309 H313 0.930 . S
N310 C307 1.377 . S
N310 C309 1.344 . S
O311 Co303 2.055 . S
O311 C315 1.253 . S
H312 C308 0.931 . S
H313 C309 0.930 . S
O314 Co303 2.039 . S
O314 C304 1.265 . S
C315 O311 1.253 . S
C315 O316 1.227 . S
O316 C315 1.227 . S
N317 Co303 2.140 . S
N317 C320 1.346 . S
N317 C321 1.345 . S
C318 C319 1.387 . S
C318 C322 1.391 . S
C319 C318 1.387 . S
C319 C320 1.369 . S
C319 H328 0.929 . S
C320 N317 1.346 . S
C320 C319 1.369 . S
C320 H323 0.928 . S
C321 N317 1.345 . S
C321 C322 1.371 . S
C321 H324 0.931 . S
C322 C318 1.391 . S
C322 C321 1.371 . S
C322 H329 0.930 . S
H323 C320 0.928 . S
H324 C321 0.931 . S
H325 C301 0.930 . S
H326 C298 0.930 . S
H327 C307 0.930 . S
H328 C319 0.929 . S
H329 C322 0.930 . S
C330 C331 1.351 . S
C330 N333 1.368 . S
C330 H335 0.931 . S
C331 C330 1.351 . S
C331 N332 1.373 . S
C331 H359 0.930 . S
N332 C331 1.373 . S
N332 C334 1.340 . S
N333 C330 1.368 . S
N333 C334 1.321 . S
N333 Co336 2.135 . S
C334 N332 1.340 . S
C334 N333 1.321 . S
C334 H358 0.930 . S
H335 C330 0.931 . S
Co336 N333 2.135 . S
Co336 N339 2.121 . S
Co336 O344 2.055 . S
Co336 O347 2.039 . S
Co336 N350 2.140 . S
C337 O338 1.227 . S
C337 O347 1.265 . S
O338 C337 1.227 . S
N339 Co336 2.121 . S
N339 C341 1.375 . S
N339 C342 1.313 . S
C340 C341 1.338 . S
C340 N343 1.377 . S
C340 H360 0.930 . S
C341 N339 1.375 . S
C341 C340 1.338 . S
C341 H345 0.931 . S
C342 N339 1.313 . S
C342 N343 1.344 . S
C342 H346 0.930 . S
N343 C340 1.377 . S
N343 C342 1.344 . S
O344 Co336 2.055 . S
O344 C348 1.253 . S
H345 C341 0.931 . S
H346 C342 0.930 . S
O347 Co336 2.039 . S
O347 C337 1.265 . S
C348 O344 1.253 . S
C348 O349 1.227 . S
O349 C348 1.227 . S
N350 Co336 2.140 . S
N350 C353 1.346 . S
N350 C354 1.345 . S
C351 C352 1.387 . S
C351 C355 1.391 . S
C352 C351 1.387 . S
C352 C353 1.369 . S
C352 H361 0.929 . S
C353 N350 1.346 . S
C353 C352 1.369 . S
C353 H356 0.928 . S
C354 N350 1.345 . S
C354 C355 1.371 . S
C354 H357 0.931 . S
C355 C351 1.391 . S
C355 C354 1.371 . S
C355 H362 0.930 . S
H356 C353 0.928 . S
H357 C354 0.931 . S
H358 C334 0.930 . S
H359 C331 0.930 . S
H360 C340 0.930 . S
H361 C352 0.929 . S
H362 C355 0.930 . S
C363 C364 1.351 . S
C363 N366 1.368 . S
C363 H368 0.931 . S
C364 C363 1.351 . S
C364 N365 1.373 . S
C364 H392 0.930 . S
N365 C364 1.373 . S
N365 C367 1.340 . S
N366 C363 1.368 . S
N366 C367 1.321 . S
N366 Co369 2.135 . S
C367 N365 1.340 . S
C367 N366 1.321 . S
C367 H391 0.930 . S
H368 C363 0.931 . S
Co369 N366 2.135 . S
Co369 N372 2.121 . S
Co369 O377 2.055 . S
Co369 O380 2.039 . S
Co369 N383 2.140 . S
C370 O371 1.227 . S
C370 O380 1.265 . S
O371 C370 1.227 . S
N372 Co369 2.121 . S
N372 C374 1.375 . S
N372 C375 1.313 . S
C373 C374 1.338 . S
C373 N376 1.377 . S
C373 H393 0.930 . S
C374 N372 1.375 . S
C374 C373 1.338 . S
C374 H378 0.931 . S
C375 N372 1.313 . S
C375 N376 1.344 . S
C375 H379 0.930 . S
N376 C373 1.377 . S
N376 C375 1.344 . S
O377 Co369 2.055 . S
O377 C381 1.253 . S
H378 C374 0.931 . S
H379 C375 0.930 . S
O380 Co369 2.039 . S
O380 C370 1.265 . S
C381 O377 1.253 . S
C381 O382 1.227 . S
O382 C381 1.227 . S
N383 Co369 2.140 . S
N383 C386 1.346 . S
N383 C387 1.345 . S
C384 C385 1.387 . S
C384 C388 1.391 . S
C385 C384 1.387 . S
C385 C386 1.369 . S
C385 H394 0.929 . S
C386 N383 1.346 . S
C386 C385 1.369 . S
C386 H389 0.928 . S
C387 N383 1.345 . S
C387 C388 1.371 . S
C387 H390 0.931 . S
C388 C384 1.391 . S
C388 C387 1.371 . S
C388 H395 0.930 . S
H389 C386 0.928 . S
H390 C387 0.931 . S
H391 C367 0.930 . S
H392 C364 0.930 . S
H393 C373 0.930 . S
H394 C385 0.929 . S
H395 C388 0.930 . S
C396 C397 1.351 . S
C396 N399 1.368 . S
C396 H401 0.931 . S
C397 C396 1.351 . S
C397 N398 1.373 . S
C397 H425 0.930 . S
N398 C397 1.373 . S
N398 C400 1.340 . S
N399 C396 1.368 . S
N399 C400 1.321 . S
N399 Co402 2.135 . S
C400 N398 1.340 . S
C400 N399 1.321 . S
C400 H424 0.930 . S
H401 C396 0.931 . S
Co402 N399 2.135 . S
Co402 N405 2.121 . S
Co402 O410 2.055 . S
Co402 O413 2.039 . S
Co402 N416 2.140 . S
C403 O404 1.227 . S
C403 O413 1.265 . S
O404 C403 1.227 . S
N405 Co402 2.121 . S
N405 C407 1.375 . S
N405 C408 1.313 . S
C406 C407 1.338 . S
C406 N409 1.377 . S
C406 H426 0.930 . S
C407 N405 1.375 . S
C407 C406 1.338 . S
C407 H411 0.931 . S
C408 N405 1.313 . S
C408 N409 1.344 . S
C408 H412 0.930 . S
N409 C406 1.377 . S
N409 C408 1.344 . S
O410 Co402 2.055 . S
O410 C414 1.253 . S
H411 C407 0.931 . S
H412 C408 0.930 . S
O413 Co402 2.039 . S
O413 C403 1.265 . S
C414 O410 1.253 . S
C414 O415 1.227 . S
O415 C414 1.227 . S
N416 Co402 2.140 . S
N416 C419 1.346 . S
N416 C420 1.345 . S
C417 C418 1.387 . S
C417 C421 1.391 . S
C418 C417 1.387 . S
C418 C419 1.369 . S
C418 H427 0.929 . S
C419 N416 1.346 . S
C419 C418 1.369 . S
C419 H422 0.928 . S
C420 N416 1.345 . S
C420 C421 1.371 . S
C420 H423 0.931 . S
C421 C417 1.391 . S
C421 C420 1.371 . S
C421 H428 0.930 . S
H422 C419 0.928 . S
H423 C420 0.931 . S
H424 C400 0.930 . S
H425 C397 0.930 . S
H426 C406 0.930 . S
H427 C418 0.929 . S
H428 C421 0.930 . S
C429 C430 1.351 . S
C429 N432 1.368 . S
C429 H434 0.931 . S
C430 C429 1.351 . S
C430 N431 1.373 . S
C430 H458 0.930 . S
N431 C430 1.373 . S
N431 C433 1.340 . S
N432 C429 1.368 . S
N432 C433 1.321 . S
N432 Co435 2.135 . S
C433 N431 1.340 . S
C433 N432 1.321 . S
C433 H457 0.930 . S
H434 C429 0.931 . S
Co435 N432 2.135 . S
Co435 N438 2.121 . S
Co435 O443 2.055 . S
Co435 O446 2.039 . S
Co435 N449 2.140 . S
C436 O437 1.227 . S
C436 O446 1.265 . S
O437 C436 1.227 . S
N438 Co435 2.121 . S
N438 C440 1.375 . S
N438 C441 1.313 . S
C439 C440 1.338 . S
C439 N442 1.377 . S
C439 H459 0.930 . S
C440 N438 1.375 . S
C440 C439 1.338 . S
C440 H444 0.931 . S
C441 N438 1.313 . S
C441 N442 1.344 . S
C441 H445 0.930 . S
N442 C439 1.377 . S
N442 C441 1.344 . S
O443 Co435 2.055 . S
O443 C447 1.253 . S
H444 C440 0.931 . S
H445 C441 0.930 . S
O446 Co435 2.039 . S
O446 C436 1.265 . S
C447 O443 1.253 . S
C447 O448 1.227 . S
O448 C447 1.227 . S
N449 Co435 2.140 . S
N449 C452 1.346 . S
N449 C453 1.345 . S
C450 C451 1.387 . S
C450 C454 1.391 . S
C451 C450 1.387 . S
C451 C452 1.369 . S
C451 H460 0.929 . S
C452 N449 1.346 . S
C452 C451 1.369 . S
C452 H455 0.928 . S
C453 N449 1.345 . S
C453 C454 1.371 . S
C453 H456 0.931 . S
C454 C450 1.391 . S
C454 C453 1.371 . S
C454 H461 0.930 . S
H455 C452 0.928 . S
H456 C453 0.931 . S
H457 C433 0.930 . S
H458 C430 0.930 . S
H459 C439 0.930 . S
H460 C451 0.929 . S
H461 C454 0.930 . S
C462 C463 1.351 . S
C462 N465 1.368 . S
C462 H467 0.931 . S
C463 C462 1.351 . S
C463 N464 1.373 . S
C463 H491 0.930 . S
N464 C463 1.373 . S
N464 C466 1.340 . S
N465 C462 1.368 . S
N465 C466 1.321 . S
N465 Co468 2.135 . S
C466 N464 1.340 . S
C466 N465 1.321 . S
C466 H490 0.930 . S
H467 C462 0.931 . S
Co468 N465 2.135 . S
Co468 N471 2.121 . S
Co468 O476 2.055 . S
Co468 O479 2.039 . S
Co468 N482 2.140 . S
C469 O470 1.227 . S
C469 O479 1.265 . S
O470 C469 1.227 . S
N471 Co468 2.121 . S
N471 C473 1.375 . S
N471 C474 1.313 . S
C472 C473 1.338 . S
C472 N475 1.377 . S
C472 H492 0.930 . S
C473 N471 1.375 . S
C473 C472 1.338 . S
C473 H477 0.931 . S
C474 N471 1.313 . S
C474 N475 1.344 . S
C474 H478 0.930 . S
N475 C472 1.377 . S
N475 C474 1.344 . S
O476 Co468 2.055 . S
O476 C480 1.253 . S
H477 C473 0.931 . S
H478 C474 0.930 . S
O479 Co468 2.039 . S
O479 C469 1.265 . S
C480 O476 1.253 . S
C480 O481 1.227 . S
O481 C480 1.227 . S
N482 Co468 2.140 . S
N482 C485 1.346 . S
N482 C486 1.345 . S
C483 C484 1.387 . S
C483 C487 1.391 . S
C484 C483 1.387 . S
C484 C485 1.369 . S
C484 H493 0.929 . S
C485 N482 1.346 . S
C485 C484 1.369 . S
C485 H488 0.928 . S
C486 N482 1.345 . S
C486 C487 1.371 . S
C486 H489 0.931 . S
C487 C483 1.391 . S
C487 C486 1.371 . S
C487 H494 0.930 . S
H488 C485 0.928 . S
H489 C486 0.931 . S
H490 C466 0.930 . S
H491 C463 0.930 . S
H492 C472 0.930 . S
H493 C484 0.929 . S
H494 C487 0.930 . S
C495 C496 1.351 . S
C495 N498 1.368 . S
C495 H500 0.931 . S
C496 C495 1.351 . S
C496 N497 1.373 . S
C496 H524 0.930 . S
N497 C496 1.373 . S
N497 C499 1.340 . S
N498 C495 1.368 . S
N498 C499 1.321 . S
N498 Co501 2.135 . S
C499 N497 1.340 . S
C499 N498 1.321 . S
C499 H523 0.930 . S
H500 C495 0.931 . S
Co501 N498 2.135 . S
Co501 N504 2.121 . S
Co501 O509 2.055 . S
Co501 O512 2.039 . S
Co501 N515 2.140 . S
C502 O503 1.227 . S
C502 O512 1.265 . S
O503 C502 1.227 . S
N504 Co501 2.121 . S
N504 C506 1.375 . S
N504 C507 1.313 . S
C505 C506 1.338 . S
C505 N508 1.377 . S
C505 H525 0.930 . S
C506 N504 1.375 . S
C506 C505 1.338 . S
C506 H510 0.931 . S
C507 N504 1.313 . S
C507 N508 1.344 . S
C507 H511 0.930 . S
N508 C505 1.377 . S
N508 C507 1.344 . S
O509 Co501 2.055 . S
O509 C513 1.253 . S
H510 C506 0.931 . S
H511 C507 0.930 . S
O512 Co501 2.039 . S
O512 C502 1.265 . S
C513 O509 1.253 . S
C513 O514 1.227 . S
O514 C513 1.227 . S
N515 Co501 2.140 . S
N515 C518 1.346 . S
N515 C519 1.345 . S
C516 C517 1.387 . S
C516 C520 1.391 . S
C517 C516 1.387 . S
C517 C518 1.369 . S
C517 H526 0.929 . S
C518 N515 1.346 . S
C518 C517 1.369 . S
C518 H521 0.928 . S
C519 N515 1.345 . S
C519 C520 1.371 . S
C519 H522 0.931 . S
C520 C516 1.391 . S
C520 C519 1.371 . S
C520 H527 0.930 . S
H521 C518 0.928 . S
H522 C519 0.931 . S
H523 C499 0.930 . S
H524 C496 0.930 . S
H525 C505 0.930 . S
H526 C517 0.929 . S
H527 C520 0.930 . S
C528 C529 1.391 . S
C528 C530 1.394 . S
C528 H544 0.931 . S
C529 C528 1.391 . S
C529 C533 1.376 . S
C530 C528 1.394 . S
C530 C531 1.369 . S
C530 C534 1.531 . S
C531 C530 1.369 . S
C531 C532 1.410 . S
C531 C539 1.503 . S
C532 C531 1.410 . S
C532 C533 1.392 . S
C532 C535 1.511 1_455 S
C533 C529 1.376 . S
C533 C532 1.392 . S
C533 H545 0.929 1_455 S
C534 C530 1.531 . S
C534 H546 0.960 . S
C534 H547 0.962 . S
C534 H548 0.960 . S
C535 C532 1.511 1_655 S
C535 H549 0.961 . S
C535 H550 0.961 . S
C535 H551 0.961 . S
C536 C537 1.370 . S
C536 C538 1.363 . S
C536 H552 0.931 . S
C537 C536 1.370 . S
C537 C541 1.408 . S
C538 C536 1.363 . S
C538 C539 1.370 . S
C538 C542 1.524 . S
C539 C531 1.503 . S
C539 C538 1.370 . S
C539 C540 1.403 . S
C540 C539 1.403 . S
C540 C541 1.404 . S
C540 C543 1.539 . S
C541 C537 1.408 . S
C541 C540 1.404 . S
C541 H553 0.930 . S
C542 C538 1.524 . S
C542 H554 0.956 . S
C542 H555 0.961 . S
C542 H556 0.961 . S
C543 C540 1.539 . S
C543 H557 0.958 . S
C543 H558 0.961 . S
C543 H559 0.960 . S
H544 C528 0.931 . S
H545 C533 0.929 1_655 S
H546 C534 0.960 . S
H547 C534 0.962 . S
H548 C534 0.960 . S
H549 C535 0.961 . S
H550 C535 0.961 . S
H551 C535 0.961 . S
H552 C536 0.931 . S
H553 C541 0.930 . S
H554 C542 0.956 . S
H555 C542 0.961 . S
H556 C542 0.961 . S
H557 C543 0.958 . S
H558 C543 0.961 . S
H559 C543 0.960 . S
C560 C561 1.391 . S
C560 C562 1.394 . S
C560 H576 0.931 . S
C561 C560 1.391 . S
C561 C565 1.376 . S
C562 C560 1.394 . S
C562 C563 1.369 . S
C562 C566 1.531 . S
C563 C562 1.369 . S
C563 C564 1.410 . S
C563 C571 1.503 . S
C564 C563 1.410 . S
C564 C565 1.392 . S
C564 C567 1.511 . S
C565 C561 1.376 . S
C565 C564 1.392 . S
C565 H577 0.929 . S
C566 C562 1.531 . S
C566 H578 0.960 . S
C566 H579 0.962 . S
C566 H580 0.939 1_545 S
C567 C564 1.511 . S
C567 H581 0.961 . S
C567 H582 0.961 . S
C567 H583 0.961 . S
C568 C569 1.370 . S
C568 C570 1.363 . S
C568 H584 0.931 . S
C569 C568 1.370 . S
C569 C573 1.408 . S
C570 C568 1.363 . S
C570 C571 1.370 . S
C570 C574 1.524 . S
C571 C563 1.503 . S
C571 C570 1.370 . S
C571 C572 1.403 . S
C572 C571 1.403 . S
C572 C573 1.404 . S
C572 C575 1.539 1_545 S
C573 C569 1.408 . S
C573 C572 1.404 . S
C573 H585 0.930 1_545 S
C574 C570 1.524 . S
C574 H586 0.956 . S
C574 H587 0.961 . S
C574 H588 0.961 . S
C575 C572 1.539 1_565 S
C575 H589 0.958 . S
C575 H590 0.961 . S
C575 H591 0.960 1_565 S
H576 C560 0.931 . S
H577 C565 0.929 . S
H578 C566 0.960 . S
H579 C566 0.962 . S
H580 C566 0.939 1_565 S
H581 C567 0.961 . S
H582 C567 0.961 . S
H583 C567 0.961 . S
H584 C568 0.931 . S
H585 C573 0.930 1_565 S
H586 C574 0.956 . S
H587 C574 0.961 . S
H588 C574 0.961 . S
H589 C575 0.958 . S
H590 C575 0.961 . S
H591 C575 0.960 1_545 S
C592 C593 1.391 . S
C592 C594 1.394 . S
C592 H608 0.931 1_455 S
C593 C592 1.391 . S
C593 C597 1.376 . S
C594 C592 1.394 . S
C594 C595 1.369 . S
C594 C598 1.531 1_455 S
C595 C594 1.369 . S
C595 C596 1.410 . S
C595 C603 1.503 . S
C596 C595 1.410 . S
C596 C597 1.392 . S
C596 C599 1.511 . S
C597 C593 1.376 . S
C597 C596 1.392 . S
C597 H609 0.929 . S
C598 C594 1.531 1_655 S
C598 H610 0.960 . S
C598 H611 0.962 . S
C598 H612 0.960 . S
C599 C596 1.511 . S
C599 H613 0.961 . S
C599 H614 0.961 . S
C599 H615 0.961 . S
C600 C601 1.370 . S
C600 C602 1.363 . S
C600 H616 0.931 . S
C601 C600 1.370 . S
C601 C605 1.408 . S
C602 C600 1.363 . S
C602 C603 1.370 . S
C602 C606 1.524 . S
C603 C595 1.503 . S
C603 C602 1.370 . S
C603 C604 1.403 . S
C604 C603 1.403 . S
C604 C605 1.404 . S
C604 C607 1.539 . S
C605 C601 1.408 . S
C605 C604 1.404 . S
C605 H617 0.930 . S
C606 C602 1.524 . S
C606 H618 0.956 . S
C606 H619 0.961 . S
C606 H620 0.961 . S
C607 C604 1.539 . S
C607 H621 0.958 . S
C607 H622 0.961 . S
C607 H623 0.960 . S
H608 C592 0.931 1_655 S
H609 C597 0.929 . S
H610 C598 0.960 . S
H611 C598 0.962 . S
H612 C598 0.960 . S
H613 C599 0.961 . S
H614 C599 0.961 . S
H615 C599 0.961 . S
H616 C600 0.931 . S
H617 C605 0.930 . S
H618 C606 0.956 . S
H619 C606 0.961 . S
H620 C606 0.961 . S
H621 C607 0.958 . S
H622 C607 0.961 . S
H623 C607 0.960 . S
C624 C625 1.391 . S
C624 C626 1.394 . S
C624 H640 0.931 . S
C625 C624 1.391 . S
C625 C629 1.376 . S
C626 C624 1.394 . S
C626 C627 1.369 . S
C626 C630 1.531 . S
C627 C626 1.369 . S
C627 C628 1.410 . S
C627 C635 1.503 . S
C628 C627 1.410 . S
C628 C629 1.392 . S
C628 C631 1.511 . S
C629 C625 1.376 . S
C629 C628 1.392 . S
C629 H641 0.929 . S
C630 C626 1.531 . S
C630 H642 0.960 . S
C630 H643 0.962 . S
C630 H644 0.960 . S
C631 C628 1.511 . S
C631 H645 0.961 . S
C631 H646 0.961 . S
C631 H647 0.961 . S
C632 C633 1.370 . S
C632 C634 1.363 . S
C632 H648 0.931 . S
C633 C632 1.370 . S
C633 C637 1.408 . S
C634 C632 1.363 . S
C634 C635 1.370 . S
C634 C638 1.524 . S
C635 C627 1.503 . S
C635 C634 1.370 . S
C635 C636 1.403 . S
C636 C635 1.403 . S
C636 C637 1.404 . S
C636 C639 1.539 . S
C637 C633 1.408 . S
C637 C636 1.404 . S
C637 H649 0.930 . S
C638 C634 1.524 . S
C638 H650 0.956 . S
C638 H651 0.961 1_545 S
C638 H652 0.961 1_545 S
C639 C636 1.539 . S
C639 H653 0.958 . S
C639 H654 0.961 . S
C639 H655 0.960 . S
H640 C624 0.931 . S
H641 C629 0.929 . S
H642 C630 0.960 . S
H643 C630 0.962 . S
H644 C630 0.960 . S
H645 C631 0.961 . S
H646 C631 0.961 . S
H647 C631 0.961 . S
H648 C632 0.931 . S
H649 C637 0.930 . S
H650 C638 0.956 . S
H651 C638 0.961 1_565 S
H652 C638 0.961 1_565 S
H653 C639 0.958 . S
H654 C639 0.961 . S
H655 C639 0.960 . S
C656 C657 1.391 . S
C656 C658 1.394 . S
C656 H672 0.931 . S
C657 C656 1.391 . S
C657 C661 1.376 . S
C658 C656 1.394 . S
C658 C659 1.369 . S
C658 C662 1.531 . S
C659 C658 1.369 . S
C659 C660 1.410 . S
C659 C667 1.503 1_556 S
C660 C659 1.410 . S
C660 C661 1.392 . S
C660 C663 1.511 . S
C661 C657 1.376 . S
C661 C660 1.392 . S
C661 H673 0.929 . S
C662 C658 1.531 . S
C662 H674 0.960 1_556 S
C662 H675 0.962 1_556 S
C662 H676 0.960 . S
C663 C660 1.511 . S
C663 H677 0.961 . S
C663 H678 0.961 . S
C663 H679 0.961 . S
C664 C665 1.370 . S
C664 C666 1.363 . S
C664 H680 0.931 . S
C665 C664 1.370 . S
C665 C669 1.408 . S
C666 C664 1.363 . S
C666 C667 1.370 . S
C666 C670 1.524 . S
C667 C659 1.503 1_554 S
C667 C666 1.370 . S
C667 C668 1.403 . S
C668 C667 1.403 . S
C668 C669 1.404 . S
C668 C671 1.539 . S
C669 C665 1.408 . S
C669 C668 1.404 . S
C669 H681 0.930 . S
C670 C666 1.524 . S
C670 H682 0.956 . S
C670 H683 0.960 1_554 S
C670 H684 0.961 . S
C671 C668 1.539 . S
C671 H685 0.958 . S
C671 H686 0.961 . S
C671 H687 0.960 1_554 S
H672 C656 0.931 . S
H673 C661 0.929 . S
H674 C662 0.960 1_554 S
H675 C662 0.962 1_554 S
H676 C662 0.960 . S
H677 C663 0.961 . S
H678 C663 0.961 . S
H679 C663 0.961 . S
H680 C664 0.931 . S
H681 C669 0.930 . S
H682 C670 0.956 . S
H683 C670 0.960 1_556 S
H684 C670 0.961 . S
H685 C671 0.958 . S
H686 C671 0.961 . S
H687 C671 0.960 1_556 S
C688 C689 1.391 . S
C688 C690 1.394 . S
C688 H704 0.931 . S
C689 C688 1.391 . S
C689 C693 1.376 . S
C690 C688 1.394 . S
C690 C691 1.369 . S
C690 C694 1.531 . S
C691 C690 1.369 . S
C691 C692 1.410 . S
C691 C699 1.503 1_556 S
C692 C691 1.410 . S
C692 C693 1.392 . S
C692 C695 1.511 . S
C693 C689 1.376 . S
C693 C692 1.392 . S
C693 H705 0.929 . S
C694 C690 1.531 . S
C694 H706 0.960 . S
C694 H707 0.962 . S
C694 H708 0.960 . S
C695 C692 1.511 . S
C695 H709 0.961 . S
C695 H710 0.961 1_556 S
C695 H711 0.961 . S
C696 C697 1.370 . S
C696 C698 1.363 . S
C696 H712 0.931 . S
C697 C696 1.370 . S
C697 C701 1.408 . S
C698 C696 1.363 . S
C698 C699 1.370 . S
C698 C702 1.524 . S
C699 C691 1.503 1_554 S
C699 C698 1.370 . S
C699 C700 1.403 . S
C700 C699 1.403 . S
C700 C701 1.404 . S
C700 C703 1.539 . S
C701 C697 1.408 . S
C701 C700 1.404 . S
C701 H713 0.930 . S
C702 C698 1.524 . S
C702 H714 0.956 . S
C702 H715 0.961 . S
C702 H716 0.961 . S
C703 C700 1.539 . S
C703 H717 0.958 . S
C703 H718 0.961 . S
C703 H719 0.960 1_554 S
H704 C688 0.931 . S
H705 C693 0.929 . S
H706 C694 0.960 . S
H707 C694 0.962 . S
H708 C694 0.960 . S
H709 C695 0.961 . S
H710 C695 0.961 1_554 S
H711 C695 0.961 . S
H712 C696 0.931 . S
H713 C701 0.930 . S
H714 C702 0.956 . S
H715 C702 0.961 . S
H716 C702 0.961 . S
H717 C703 0.958 . S
H718 C703 0.961 . S
H719 C703 0.960 1_556 S
C720 C721 1.391 . S
C720 C722 1.394 . S
C720 H736 0.931 . S
C721 C720 1.391 . S
C721 C725 1.376 . S
C722 C720 1.394 . S
C722 C723 1.369 . S
C722 C726 1.531 . S
C723 C722 1.369 . S
C723 C724 1.410 . S
C723 C731 1.503 1_556 S
C724 C723 1.410 . S
C724 C725 1.392 . S
C724 C727 1.511 . S
C725 C721 1.376 . S
C725 C724 1.392 . S
C725 H737 0.929 . S
C726 C722 1.531 . S
C726 H738 0.960 1_556 S
C726 H739 0.962 1_556 S
C726 H740 0.960 . S
C727 C724 1.511 . S
C727 H741 0.961 . S
C727 H742 0.961 . S
C727 H743 0.961 . S
C728 C729 1.370 . S
C728 C730 1.363 . S
C728 H744 0.931 . S
C729 C728 1.370 . S
C729 C733 1.408 . S
C730 C728 1.363 . S
C730 C731 1.370 . S
C730 C734 1.524 . S
C731 C723 1.503 1_554 S
C731 C730 1.370 . S
C731 C732 1.403 . S
C732 C731 1.403 . S
C732 C733 1.404 . S
C732 C735 1.539 . S
C733 C729 1.408 . S
C733 C732 1.404 . S
C733 H745 0.930 . S
C734 C730 1.524 . S
C734 H746 0.956 . S
C734 H747 0.961 1_554 S
C734 H748 0.961 . S
C735 C732 1.539 . S
C735 H749 0.958 . S
C735 H750 0.961 . S
C735 H751 0.960 1_554 S
H736 C720 0.931 . S
H737 C725 0.929 . S
H738 C726 0.960 1_554 S
H739 C726 0.962 1_554 S
H740 C726 0.960 . S
H741 C727 0.961 . S
H742 C727 0.961 . S
H743 C727 0.961 . S
H744 C728 0.931 . S
H745 C733 0.930 . S
H746 C734 0.956 . S
H747 C734 0.961 1_556 S
H748 C734 0.961 . S
H749 C735 0.958 . S
H750 C735 0.961 . S
H751 C735 0.960 1_556 S
C752 C753 1.391 . S
C752 C754 1.394 . S
C752 H768 0.931 . S
C753 C752 1.391 . S
C753 C757 1.376 . S
C754 C752 1.394 . S
C754 C755 1.369 . S
C754 C758 1.531 . S
C755 C754 1.369 . S
C755 C756 1.410 . S
C755 C763 1.503 1_554 S
C756 C755 1.410 . S
C756 C757 1.392 . S
C756 C759 1.511 . S
C757 C753 1.376 . S
C757 C756 1.392 . S
C757 H769 0.929 . S
C758 C754 1.531 . S
C758 H770 0.960 . S
C758 H771 0.962 . S
C758 H772 0.960 . S
C759 C756 1.511 . S
C759 H773 0.961 . S
C759 H774 0.961 1_554 S
C759 H775 0.961 . S
C760 C761 1.370 . S
C760 C762 1.363 . S
C760 H776 0.931 . S
C761 C760 1.370 . S
C761 C765 1.408 . S
C762 C760 1.363 . S
C762 C763 1.370 . S
C762 C766 1.524 . S
C763 C755 1.503 1_556 S
C763 C762 1.370 . S
C763 C764 1.403 . S
C764 C763 1.403 . S
C764 C765 1.404 . S
C764 C767 1.539 . S
C765 C761 1.408 . S
C765 C764 1.404 . S
C765 H777 0.930 . S
C766 C762 1.524 . S
C766 H778 0.956 . S
C766 H779 0.961 . S
C766 H780 0.961 . S
C767 C764 1.539 . S
C767 H781 0.958 . S
C767 H782 0.961 . S
C767 H783 0.960 1_556 S
H768 C752 0.931 . S
H769 C757 0.929 . S
H770 C758 0.960 . S
H771 C758 0.962 . S
H772 C758 0.960 . S
H773 C759 0.961 . S
H774 C759 0.961 1_556 S
H775 C759 0.961 . S
H776 C760 0.931 . S
H777 C765 0.930 . S
H778 C766 0.956 . S
H779 C766 0.961 . S
H780 C766 0.961 . S
H781 C767 0.958 . S
H782 C767 0.961 . S
H783 C767 0.960 1_554 S
C784 C785 1.391 . S
C784 C786 1.394 . S
C784 H800 0.931 . S
C785 C784 1.391 . S
C785 C789 1.376 . S
C786 C784 1.394 . S
C786 C787 1.369 . S
C786 C790 1.531 . S
C787 C786 1.369 . S
C787 C788 1.410 . S
C787 C795 1.503 . S
C788 C787 1.410 . S
C788 C789 1.392 . S
C788 C791 1.511 . S
C789 C785 1.376 . S
C789 C788 1.392 . S
C789 H801 0.929 . S
C790 C786 1.531 . S
C790 H802 0.960 . S
C790 H803 0.962 . S
C790 H804 0.960 . S
C791 C788 1.511 . S
C791 H805 0.961 . S
C791 H806 0.961 . S
C791 H807 0.961 . S
C792 C793 1.370 . S
C792 C794 1.363 . S
C792 H808 0.931 . S
C793 C792 1.370 . S
C793 C797 1.408 . S
C794 C792 1.363 . S
C794 C795 1.370 . S
C794 C798 1.524 . S
C795 C787 1.503 . S
C795 C794 1.370 . S
C795 C796 1.403 . S
C796 C795 1.403 . S
C796 C797 1.404 . S
C796 C799 1.539 . S
C797 C793 1.408 . S
C797 C796 1.404 . S
C797 H809 0.930 . S
C798 C794 1.524 . S
C798 H810 0.956 . S
C798 H811 0.961 . S
C798 H812 0.961 . S
C799 C796 1.539 . S
C799 H813 0.958 . S
C799 H814 0.961 . S
C799 H815 0.960 . S
H800 C784 0.931 . S
H801 C789 0.929 . S
H802 C790 0.960 . S
H803 C790 0.962 . S
H804 C790 0.960 . S
H805 C791 0.961 . S
H806 C791 0.961 . S
H807 C791 0.961 . S
H808 C792 0.931 . S
H809 C797 0.930 . S
H810 C798 0.956 . S
H811 C798 0.961 . S
H812 C798 0.961 . S
H813 C799 0.958 . S
H814 C799 0.961 . S
H815 C799 0.960 . S
C816 C817 1.391 . S
C816 C818 1.394 . S
C816 H832 0.931 . S
C817 C816 1.391 . S
C817 C821 1.376 . S
C818 C816 1.394 . S
C818 C819 1.369 . S
C818 C822 1.531 . S
C819 C818 1.369 . S
C819 C820 1.410 . S
C819 C827 1.503 . S
C820 C819 1.410 . S
C820 C821 1.392 . S
C820 C823 1.511 . S
C821 C817 1.376 . S
C821 C820 1.392 . S
C821 H833 0.929 . S
C822 C818 1.531 . S
C822 H834 0.960 . S
C822 H835 0.962 . S
C822 H836 0.960 . S
C823 C820 1.511 . S
C823 H837 0.961 . S
C823 H838 0.961 . S
C823 H839 0.961 . S
C824 C825 1.370 . S
C824 C826 1.363 . S
C824 H840 0.931 . S
C825 C824 1.370 . S
C825 C829 1.408 . S
C826 C824 1.363 . S
C826 C827 1.370 . S
C826 C830 1.524 . S
C827 C819 1.503 . S
C827 C826 1.370 . S
C827 C828 1.403 . S
C828 C827 1.403 . S
C828 C829 1.404 . S
C828 C831 1.539 . S
C829 C825 1.408 . S
C829 C828 1.404 . S
C829 H841 0.930 . S
C830 C826 1.524 . S
C830 H842 0.956 . S
C830 H843 0.961 . S
C830 H844 0.961 . S
C831 C828 1.539 . S
C831 H845 0.958 . S
C831 H846 0.961 . S
C831 H847 0.960 . S
H832 C816 0.931 . S
H833 C821 0.929 . S
H834 C822 0.960 . S
H835 C822 0.962 . S
H836 C822 0.960 . S
H837 C823 0.961 . S
H838 C823 0.961 . S
H839 C823 0.961 . S
H840 C824 0.931 . S
H841 C829 0.930 . S
H842 C830 0.956 . S
H843 C830 0.961 . S
H844 C830 0.961 . S
H845 C831 0.958 . S
H846 C831 0.961 . S
H847 C831 0.960 . S
C848 C849 1.391 . S
C848 C850 1.394 . S
C848 H864 0.931 . S
C849 C848 1.391 . S
C849 C853 1.376 . S
C850 C848 1.394 . S
C850 C851 1.369 . S
C850 C854 1.531 . S
C851 C850 1.369 . S
C851 C852 1.410 . S
C851 C859 1.503 . S
C852 C851 1.410 . S
C852 C853 1.392 . S
C852 C855 1.511 . S
C853 C849 1.376 . S
C853 C852 1.392 . S
C853 H865 0.929 . S
C854 C850 1.531 . S
C854 H866 0.960 . S
C854 H867 0.962 . S
C854 H868 0.960 . S
C855 C852 1.511 . S
C855 H869 0.961 . S
C855 H870 0.961 . S
C855 H871 0.961 . S
C856 C857 1.370 . S
C856 C858 1.363 1_455 S
C856 H872 0.931 . S
C857 C856 1.370 . S
C857 C861 1.408 1_455 S
C858 C856 1.363 1_655 S
C858 C859 1.370 . S
C858 C862 1.524 . S
C859 C851 1.503 . S
C859 C858 1.370 . S
C859 C860 1.403 . S
C860 C859 1.403 . S
C860 C861 1.404 . S
C860 C863 1.539 . S
C861 C857 1.408 1_655 S
C861 C860 1.404 . S
C861 H873 0.930 . S
C862 C858 1.524 . S
C862 H874 0.956 . S
C862 H875 0.961 . S
C862 H876 0.961 1_655 S
C863 C860 1.539 . S
C863 H877 0.958 . S
C863 H878 0.961 . S
C863 H879 0.960 . S
H864 C848 0.931 . S
H865 C853 0.929 . S
H866 C854 0.960 . S
H867 C854 0.962 . S
H868 C854 0.960 . S
H869 C855 0.961 . S
H870 C855 0.961 . S
H871 C855 0.961 . S
H872 C856 0.931 . S
H873 C861 0.930 . S
H874 C862 0.956 . S
H875 C862 0.961 . S
H876 C862 0.961 1_455 S
H877 C863 0.958 . S
H878 C863 0.961 . S
H879 C863 0.960 . S
C880 C881 1.391 1_565 S
C880 C882 1.394 . S
C880 H896 0.931 . S
C881 C880 1.391 1_545 S
C881 C885 1.376 1_545 S
C882 C880 1.394 . S
C882 C883 1.369 . S
C882 C886 1.531 . S
C883 C882 1.369 . S
C883 C884 1.410 . S
C883 C891 1.503 . S
C884 C883 1.410 . S
C884 C885 1.392 . S
C884 C887 1.511 . S
C885 C881 1.376 1_565 S
C885 C884 1.392 . S
C885 H897 0.929 . S
C886 C882 1.531 . S
C886 H898 0.960 . S
C886 H899 0.962 . S
C886 H900 0.960 . S
C887 C884 1.511 . S
C887 H901 0.961 . S
C887 H902 0.961 . S
C887 H903 0.961 . S
C888 C889 1.370 . S
C888 C890 1.363 . S
C888 H904 0.931 . S
C889 C888 1.370 . S
C889 C893 1.408 . S
C890 C888 1.363 . S
C890 C891 1.370 . S
C890 C894 1.524 . S
C891 C883 1.503 . S
C891 C890 1.370 . S
C891 C892 1.403 . S
C892 C891 1.403 . S
C892 C893 1.404 . S
C892 C895 1.539 . S
C893 C889 1.408 . S
C893 C892 1.404 . S
C893 H905 0.930 . S
C894 C890 1.524 . S
C894 H906 0.956 . S
C894 H907 0.961 . S
C894 H908 0.961 . S
C895 C892 1.539 . S
C895 H909 0.958 . S
C895 H910 0.961 . S
C895 H911 0.960 . S
H896 C880 0.931 . S
H897 C885 0.929 . S
H898 C886 0.960 . S
H899 C886 0.962 . S
H900 C886 0.960 . S
H901 C887 0.961 . S
H902 C887 0.961 . S
H903 C887 0.961 . S
H904 C888 0.931 . S
H905 C893 0.930 . S
H906 C894 0.956 . S
H907 C894 0.961 . S
H908 C894 0.961 . S
H909 C895 0.958 . S
H910 C895 0.961 . S
H911 C895 0.960 . S
C912 C913 1.391 . S
C912 C914 1.394 . S
C912 H928 0.931 . S
C913 C912 1.391 . S
C913 C917 1.376 . S
C914 C912 1.394 . S
C914 C915 1.369 . S
C914 C918 1.531 . S
C915 C914 1.369 . S
C915 C916 1.410 . S
C915 C923 1.503 . S
C916 C915 1.410 . S
C916 C917 1.392 . S
C916 C919 1.511 . S
C917 C913 1.376 . S
C917 C916 1.392 . S
C917 H929 0.929 . S
C918 C914 1.531 . S
C918 H930 0.960 . S
C918 H931 0.962 . S
C918 H932 0.960 . S
C919 C916 1.511 . S
C919 H933 0.961 . S
C919 H934 0.961 . S
C919 H935 0.961 . S
C920 C921 1.370 . S
C920 C922 1.363 . S
C920 H936 0.931 . S
C921 C920 1.370 . S
C921 C925 1.408 . S
C922 C920 1.363 . S
C922 C923 1.370 . S
C922 C926 1.524 . S
C923 C915 1.503 . S
C923 C922 1.370 . S
C923 C924 1.403 . S
C924 C923 1.403 . S
C924 C925 1.404 . S
C924 C927 1.539 . S
C925 C921 1.408 . S
C925 C924 1.404 . S
C925 H937 0.930 . S
C926 C922 1.524 . S
C926 H938 0.956 . S
C926 H939 0.961 . S
C926 H940 0.961 . S
C927 C924 1.539 . S
C927 H941 0.958 . S
C927 H942 0.961 . S
C927 H943 0.960 . S
H928 C912 0.931 . S
H929 C917 0.929 . S
H930 C918 0.960 . S
H931 C918 0.962 . S
H932 C918 0.960 . S
H933 C919 0.961 . S
H934 C919 0.961 . S
H935 C919 0.961 . S
H936 C920 0.931 . S
H937 C925 0.930 . S
H938 C926 0.956 . S
H939 C926 0.961 . S
H940 C926 0.961 . S
H941 C927 0.958 . S
H942 C927 0.961 . S
H943 C927 0.960 . S
C944 C945 1.391 . S
C944 C946 1.394 . S
C944 H960 0.931 . S
C945 C944 1.391 . S
C945 C949 1.376 . S
C946 C944 1.394 . S
C946 C947 1.369 . S
C946 C950 1.531 . S
C947 C946 1.369 . S
C947 C948 1.410 . S
C947 C955 1.503 . S
C948 C947 1.410 . S
C948 C949 1.392 . S
C948 C951 1.511 . S
C949 C945 1.376 . S
C949 C948 1.392 . S
C949 H961 0.929 . S
C950 C946 1.531 . S
C950 H962 0.960 . S
C950 H963 0.962 . S
C950 H964 0.960 . S
C951 C948 1.511 . S
C951 H965 0.961 . S
C951 H966 0.961 . S
C951 H967 0.961 . S
C952 C953 1.370 . S
C952 C954 1.363 . S
C952 H968 0.931 . S
C953 C952 1.370 . S
C953 C957 1.408 . S
C954 C952 1.363 . S
C954 C955 1.370 . S
C954 C958 1.524 . S
C955 C947 1.503 . S
C955 C954 1.370 . S
C955 C956 1.403 . S
C956 C955 1.403 . S
C956 C957 1.404 . S
C956 C959 1.539 . S
C957 C953 1.408 . S
C957 C956 1.404 . S
C957 H969 0.930 . S
C958 C954 1.524 . S
C958 H970 0.956 . S
C958 H971 0.961 . S
C958 H972 0.961 . S
C959 C956 1.539 . S
C959 H973 0.958 . S
C959 H974 0.961 . S
C959 H975 0.960 . S
H960 C944 0.931 . S
H961 C949 0.929 . S
H962 C950 0.960 . S
H963 C950 0.962 . S
H964 C950 0.960 . S
H965 C951 0.961 . S
H966 C951 0.961 . S
H967 C951 0.961 . S
H968 C952 0.931 . S
H969 C957 0.930 . S
H970 C958 0.956 . S
H971 C958 0.961 . S
H972 C958 0.961 . S
H973 C959 0.958 . S
H974 C959 0.961 . S
H975 C959 0.960 . S
C976 C977 1.391 . S
C976 C978 1.394 . S
C976 H992 0.931 . S
C977 C976 1.391 . S
C977 C981 1.376 . S
C978 C976 1.394 . S
C978 C979 1.369 . S
C978 C982 1.531 . S
C979 C978 1.369 . S
C979 C980 1.410 . S
C979 C987 1.503 . S
C980 C979 1.410 . S
C980 C981 1.392 . S
C980 C983 1.511 . S
C981 C977 1.376 . S
C981 C980 1.392 . S
C981 H993 0.929 . S
C982 C978 1.531 . S
C982 H994 0.960 . S
C982 H995 0.962 . S
C982 H996 0.960 . S
C983 C980 1.511 . S
C983 H997 0.961 . S
C983 H998 0.961 . S
C983 H999 0.961 . S
C984 C985 1.370 1_655 S
C984 C986 1.363 . S
C984 H1000 0.931 1_655 S
C985 C984 1.370 1_455 S
C985 C989 1.408 1_455 S
C986 C984 1.363 . S
C986 C987 1.370 . S
C986 C990 1.524 . S
C987 C979 1.503 . S
C987 C986 1.370 . S
C987 C988 1.403 . S
C988 C987 1.403 . S
C988 C989 1.404 . S
C988 C991 1.539 . S
C989 C985 1.408 1_655 S
C989 C988 1.404 . S
C989 H1001 0.930 . S
C990 C986 1.524 . S
C990 H1002 0.956 . S
C990 H1003 0.961 . S
C990 H1004 0.961 . S
C991 C988 1.539 . S
C991 H1005 0.958 . S
C991 H1006 0.961 . S
C991 H1007 0.960 . S
H992 C976 0.931 . S
H993 C981 0.929 . S
H994 C982 0.960 . S
H995 C982 0.962 . S
H996 C982 0.960 . S
H997 C983 0.961 . S
H998 C983 0.961 . S
H999 C983 0.961 . S
H1000 C984 0.931 1_455 S
H1001 C989 0.930 . S
H1002 C990 0.956 . S
H1003 C990 0.961 . S
H1004 C990 0.961 . S
H1005 C991 0.958 . S
H1006 C991 0.961 . S
H1007 C991 0.960 . S
C1008 C1009 1.391 . S
C1008 C1010 1.394 . S
C1008 H1024 0.931 . S
C1009 C1008 1.391 . S
C1009 C1013 1.376 . S
C1010 C1008 1.394 . S
C1010 C1011 1.369 . S
C1010 C1014 1.531 . S
C1011 C1010 1.369 . S
C1011 C1012 1.410 . S
C1011 C1019 1.503 . S
C1012 C1011 1.410 . S
C1012 C1013 1.392 . S
C1012 C1015 1.511 . S
C1013 C1009 1.376 . S
C1013 C1012 1.392 . S
C1013 H1025 0.929 . S
C1014 C1010 1.531 . S
C1014 H1026 0.960 . S
C1014 H1027 0.962 . S
C1014 H1028 0.960 . S
C1015 C1012 1.511 . S
C1015 H1029 0.961 . S
C1015 H1030 0.961 . S
C1015 H1031 0.961 . S
C1016 C1017 1.370 1_565 S
C1016 C1018 1.363 . S
C1016 H1032 0.931 1_565 S
C1017 C1016 1.370 1_545 S
C1017 C1021 1.408 1_545 S
C1018 C1016 1.363 . S
C1018 C1019 1.370 . S
C1018 C1022 1.524 . S
C1019 C1011 1.503 . S
C1019 C1018 1.370 . S
C1019 C1020 1.403 . S
C1020 C1019 1.403 . S
C1020 C1021 1.404 . S
C1020 C1023 1.539 . S
C1021 C1017 1.408 1_565 S
C1021 C1020 1.404 . S
C1021 H1033 0.930 . S
C1022 C1018 1.524 . S
C1022 H1034 0.956 . S
C1022 H1035 0.961 . S
C1022 H1036 0.961 . S
C1023 C1020 1.539 . S
C1023 H1037 0.958 . S
C1023 H1038 0.961 . S
C1023 H1039 0.960 . S
H1024 C1008 0.931 . S
H1025 C1013 0.929 . S
H1026 C1014 0.960 . S
H1027 C1014 0.962 . S
H1028 C1014 0.960 . S
H1029 C1015 0.961 . S
H1030 C1015 0.961 . S
H1031 C1015 0.961 . S
H1032 C1016 0.931 1_545 S
H1033 C1021 0.930 . S
H1034 C1022 0.956 . S
H1035 C1022 0.961 . S
H1036 C1022 0.961 . S
H1037 C1023 0.958 . S
H1038 C1023 0.961 . S
H1039 C1023 0.960 . S
C1040 C1041 1.391 . S
C1040 C1042 1.394 . S
C1040 H1056 0.931 . S
C1041 C1040 1.391 . S
C1041 C1045 1.376 . S
C1042 C1040 1.394 . S
C1042 C1043 1.369 . S
C1042 C1046 1.531 . S
C1043 C1042 1.369 . S
C1043 C1044 1.410 . S
C1043 C1051 1.503 . S
C1044 C1043 1.410 . S
C1044 C1045 1.392 . S
C1044 C1047 1.511 . S
C1045 C1041 1.376 . S
C1045 C1044 1.392 . S
C1045 H1057 0.929 . S
C1046 C1042 1.531 . S
C1046 H1058 0.960 . S
C1046 H1059 0.962 . S
C1046 H1060 0.960 . S
C1047 C1044 1.511 . S
C1047 H1061 0.961 . S
C1047 H1062 0.961 . S
C1047 H1063 0.961 . S
C1048 C1049 1.370 . S
C1048 C1050 1.363 . S
C1048 H1064 0.931 . S
C1049 C1048 1.370 . S
C1049 C1053 1.408 . S
C1050 C1048 1.363 . S
C1050 C1051 1.370 . S
C1050 C1054 1.524 . S
C1051 C1043 1.503 . S
C1051 C1050 1.370 . S
C1051 C1052 1.403 . S
C1052 C1051 1.403 . S
C1052 C1053 1.404 . S
C1052 C1055 1.539 . S
C1053 C1049 1.408 . S
C1053 C1052 1.404 . S
C1053 H1065 0.930 . S
C1054 C1050 1.524 . S
C1054 H1066 0.956 . S
C1054 H1067 0.961 . S
C1054 H1068 0.961 . S
C1055 C1052 1.539 . S
C1055 H1069 0.958 . S
C1055 H1070 0.961 . S
C1055 H1071 0.960 . S
H1056 C1040 0.931 . S
H1057 C1045 0.929 . S
H1058 C1046 0.960 . S
H1059 C1046 0.962 . S
H1060 C1046 0.960 . S
H1061 C1047 0.961 . S
H1062 C1047 0.961 . S
H1063 C1047 0.961 . S
H1064 C1048 0.931 . S
H1065 C1053 0.930 . S
H1066 C1054 0.956 . S
H1067 C1054 0.961 . S
H1068 C1054 0.961 . S
H1069 C1055 0.958 . S
H1070 C1055 0.961 . S
H1071 C1055 0.960 . S
C1072 C1073 1.391 . S
C1072 C1074 1.394 . S
C1072 H1088 0.931 . S
C1073 C1072 1.391 . S
C1073 C1077 1.376 . S
C1074 C1072 1.394 . S
C1074 C1075 1.369 . S
C1074 C1078 1.531 . S
C1075 C1074 1.369 . S
C1075 C1076 1.410 . S
C1075 C1083 1.503 . S
C1076 C1075 1.410 . S
C1076 C1077 1.392 . S
C1076 C1079 1.511 . S
C1077 C1073 1.376 . S
C1077 C1076 1.392 . S
C1077 H1089 0.929 . S
C1078 C1074 1.531 . S
C1078 H1090 0.960 . S
C1078 H1091 0.962 . S
C1078 H1092 0.960 . S
C1079 C1076 1.511 . S
C1079 H1093 0.961 . S
C1079 H1094 0.961 . S
C1079 H1095 0.961 . S
C1080 C1081 1.370 . S
C1080 C1082 1.363 . S
C1080 H1096 0.931 . S
C1081 C1080 1.370 . S
C1081 C1085 1.408 . S
C1082 C1080 1.363 . S
C1082 C1083 1.370 . S
C1082 C1086 1.524 . S
C1083 C1075 1.503 . S
C1083 C1082 1.370 . S
C1083 C1084 1.403 . S
C1084 C1083 1.403 . S
C1084 C1085 1.404 . S
C1084 C1087 1.539 . S
C1085 C1081 1.408 . S
C1085 C1084 1.404 . S
C1085 H1097 0.930 . S
C1086 C1082 1.524 . S
C1086 H1098 0.956 . S
C1086 H1099 0.961 . S
C1086 H1100 0.961 . S
C1087 C1084 1.539 . S
C1087 H1101 0.958 . S
C1087 H1102 0.961 . S
C1087 H1103 0.960 . S
H1088 C1072 0.931 . S
H1089 C1077 0.929 . S
H1090 C1078 0.960 . S
H1091 C1078 0.962 . S
H1092 C1078 0.960 . S
H1093 C1079 0.961 . S
H1094 C1079 0.961 . S
H1095 C1079 0.961 . S
H1096 C1080 0.931 . S
H1097 C1085 0.930 . S
H1098 C1086 0.956 . S
H1099 C1086 0.961 . S
H1100 C1086 0.961 . S
H1101 C1087 0.958 . S
H1102 C1087 0.961 . S
H1103 C1087 0.960 . S
C1104 C1105 1.391 . S
C1104 C1106 1.394 . S
C1104 H1120 0.931 . S
C1105 C1104 1.391 . S
C1105 C1109 1.376 . S
C1106 C1104 1.394 . S
C1106 C1107 1.369 . S
C1106 C1110 1.531 . S
C1107 C1106 1.369 . S
C1107 C1108 1.410 . S
C1107 C1115 1.503 . S
C1108 C1107 1.410 . S
C1108 C1109 1.392 . S
C1108 C1111 1.511 . S
C1109 C1105 1.376 . S
C1109 C1108 1.392 . S
C1109 H1121 0.929 . S
C1110 C1106 1.531 . S
C1110 H1122 0.960 . S
C1110 H1123 0.962 . S
C1110 H1124 0.960 . S
C1111 C1108 1.511 . S
C1111 H1125 0.961 . S
C1111 H1126 0.961 . S
C1111 H1127 0.961 . S
C1112 C1113 1.370 . S
C1112 C1114 1.363 . S
C1112 H1128 0.931 . S
C1113 C1112 1.370 . S
C1113 C1117 1.408 . S
C1114 C1112 1.363 . S
C1114 C1115 1.370 . S
C1114 C1118 1.524 . S
C1115 C1107 1.503 . S
C1115 C1114 1.370 . S
C1115 C1116 1.403 . S
C1116 C1115 1.403 . S
C1116 C1117 1.404 . S
C1116 C1119 1.539 . S
C1117 C1113 1.408 . S
C1117 C1116 1.404 . S
C1117 H1129 0.930 . S
C1118 C1114 1.524 . S
C1118 H1130 0.956 . S
C1118 H1131 0.961 . S
C1118 H1132 0.961 . S
C1119 C1116 1.539 . S
C1119 H1133 0.958 . S
C1119 H1134 0.961 . S
C1119 H1135 0.960 . S
H1120 C1104 0.931 . S
H1121 C1109 0.929 . S
H1122 C1110 0.960 . S
H1123 C1110 0.962 . S
H1124 C1110 0.960 . S
H1125 C1111 0.961 . S
H1126 C1111 0.961 . S
H1127 C1111 0.961 . S
H1128 C1112 0.931 . S
H1129 C1117 0.930 . S
H1130 C1118 0.956 . S
H1131 C1118 0.961 . S
H1132 C1118 0.961 . S
H1133 C1119 0.958 . S
H1134 C1119 0.961 . S
H1135 C1119 0.960 . S
C1136 C1137 1.391 . S
C1136 C1138 1.394 . S
C1136 H1152 0.931 . S
C1137 C1136 1.391 . S
C1137 C1141 1.376 . S
C1138 C1136 1.394 . S
C1138 C1139 1.369 . S
C1138 C1142 1.531 . S
C1139 C1138 1.369 . S
C1139 C1140 1.410 . S
C1139 C1147 1.503 . S
C1140 C1139 1.410 . S
C1140 C1141 1.392 . S
C1140 C1143 1.511 . S
C1141 C1137 1.376 . S
C1141 C1140 1.392 . S
C1141 H1153 0.929 . S
C1142 C1138 1.531 . S
C1142 H1154 0.960 . S
C1142 H1155 0.962 . S
C1142 H1156 0.960 . S
C1143 C1140 1.511 . S
C1143 H1157 0.961 . S
C1143 H1158 0.961 . S
C1143 H1159 0.961 . S
C1144 C1145 1.370 . S
C1144 C1146 1.363 . S
C1144 H1160 0.931 . S
C1145 C1144 1.370 . S
C1145 C1149 1.408 . S
C1146 C1144 1.363 . S
C1146 C1147 1.370 . S
C1146 C1150 1.524 . S
C1147 C1139 1.503 . S
C1147 C1146 1.370 . S
C1147 C1148 1.403 . S
C1148 C1147 1.403 . S
C1148 C1149 1.404 . S
C1148 C1151 1.539 . S
C1149 C1145 1.408 . S
C1149 C1148 1.404 . S
C1149 H1161 0.930 . S
C1150 C1146 1.524 . S
C1150 H1162 0.956 . S
C1150 H1163 0.961 . S
C1150 H1164 0.961 . S
C1151 C1148 1.539 . S
C1151 H1165 0.958 . S
C1151 H1166 0.961 . S
C1151 H1167 0.960 . S
H1152 C1136 0.931 . S
H1153 C1141 0.929 . S
H1154 C1142 0.960 . S
H1155 C1142 0.962 . S
H1156 C1142 0.960 . S
H1157 C1143 0.961 . S
H1158 C1143 0.961 . S
H1159 C1143 0.961 . S
H1160 C1144 0.931 . S
H1161 C1149 0.930 . S
H1162 C1150 0.956 . S
H1163 C1150 0.961 . S
H1164 C1150 0.961 . S
H1165 C1151 0.958 . S
H1166 C1151 0.961 . S
H1167 C1151 0.960 . S
C1168 C1169 1.391 . S
C1168 C1170 1.394 . S
C1168 H1184 0.931 . S
C1169 C1168 1.391 . S
C1169 C1173 1.376 . S
C1170 C1168 1.394 . S
C1170 C1171 1.369 . S
C1170 C1174 1.531 . S
C1171 C1170 1.369 . S
C1171 C1172 1.410 . S
C1171 C1179 1.503 . S
C1172 C1171 1.410 . S
C1172 C1173 1.392 . S
C1172 C1175 1.511 . S
C1173 C1169 1.376 . S
C1173 C1172 1.392 . S
C1173 H1185 0.929 . S
C1174 C1170 1.531 . S
C1174 H1186 0.960 . S
C1174 H1187 0.962 . S
C1174 H1188 0.960 . S
C1175 C1172 1.511 . S
C1175 H1189 0.961 . S
C1175 H1190 0.961 . S
C1175 H1191 0.961 . S
C1176 C1177 1.370 . S
C1176 C1178 1.363 . S
C1176 H1192 0.931 . S
C1177 C1176 1.370 . S
C1177 C1181 1.408 . S
C1178 C1176 1.363 . S
C1178 C1179 1.370 . S
C1178 C1182 1.524 . S
C1179 C1171 1.503 . S
C1179 C1178 1.370 . S
C1179 C1180 1.403 . S
C1180 C1179 1.403 . S
C1180 C1181 1.404 . S
C1180 C1183 1.539 . S
C1181 C1177 1.408 . S
C1181 C1180 1.404 . S
C1181 H1193 0.930 . S
C1182 C1178 1.524 . S
C1182 H1194 0.956 . S
C1182 H1195 0.961 . S
C1182 H1196 0.961 . S
C1183 C1180 1.539 . S
C1183 H1197 0.958 . S
C1183 H1198 0.961 . S
C1183 H1199 0.960 . S
H1184 C1168 0.931 . S
H1185 C1173 0.929 . S
H1186 C1174 0.960 . S
H1187 C1174 0.962 . S
H1188 C1174 0.960 . S
H1189 C1175 0.961 . S
H1190 C1175 0.961 . S
H1191 C1175 0.961 . S
H1192 C1176 0.931 . S
H1193 C1181 0.930 . S
H1194 C1182 0.956 . S
H1195 C1182 0.961 . S
H1196 C1182 0.961 . S
H1197 C1183 0.958 . S
H1198 C1183 0.961 . S
H1199 C1183 0.960 . S
C1200 C1201 1.391 . S
C1200 C1202 1.394 . S
C1200 H1216 0.931 . S
C1201 C1200 1.391 . S
C1201 C1205 1.376 . S
C1202 C1200 1.394 . S
C1202 C1203 1.369 . S
C1202 C1206 1.531 . S
C1203 C1202 1.369 . S
C1203 C1204 1.410 . S
C1203 C1211 1.503 . S
C1204 C1203 1.410 . S
C1204 C1205 1.392 . S
C1204 C1207 1.511 . S
C1205 C1201 1.376 . S
C1205 C1204 1.392 . S
C1205 H1217 0.929 . S
C1206 C1202 1.531 . S
C1206 H1218 0.960 . S
C1206 H1219 0.962 . S
C1206 H1220 0.960 . S
C1207 C1204 1.511 . S
C1207 H1221 0.961 . S
C1207 H1222 0.961 . S
C1207 H1223 0.961 . S
C1208 C1209 1.370 . S
C1208 C1210 1.363 . S
C1208 H1224 0.931 . S
C1209 C1208 1.370 . S
C1209 C1213 1.408 . S
C1210 C1208 1.363 . S
C1210 C1211 1.370 . S
C1210 C1214 1.524 . S
C1211 C1203 1.503 . S
C1211 C1210 1.370 . S
C1211 C1212 1.403 . S
C1212 C1211 1.403 . S
C1212 C1213 1.404 . S
C1212 C1215 1.539 . S
C1213 C1209 1.408 . S
C1213 C1212 1.404 . S
C1213 H1225 0.930 . S
C1214 C1210 1.524 . S
C1214 H1226 0.956 . S
C1214 H1227 0.961 . S
C1214 H1228 0.961 . S
C1215 C1212 1.539 . S
C1215 H1229 0.958 . S
C1215 H1230 0.961 . S
C1215 H1231 0.960 . S
H1216 C1200 0.931 . S
H1217 C1205 0.929 . S
H1218 C1206 0.960 . S
H1219 C1206 0.962 . S
H1220 C1206 0.960 . S
H1221 C1207 0.961 . S
H1222 C1207 0.961 . S
H1223 C1207 0.961 . S
H1224 C1208 0.931 . S
H1225 C1213 0.930 . S
H1226 C1214 0.956 . S
H1227 C1214 0.961 . S
H1228 C1214 0.961 . S
H1229 C1215 0.958 . S
H1230 C1215 0.961 . S
H1231 C1215 0.960 . S
C1232 C1233 1.391 . S
C1232 C1234 1.394 . S
C1232 H1248 0.931 . S
C1233 C1232 1.391 . S
C1233 C1237 1.376 . S
C1234 C1232 1.394 . S
C1234 C1235 1.369 . S
C1234 C1238 1.531 . S
C1235 C1234 1.369 . S
C1235 C1236 1.410 . S
C1235 C1243 1.503 . S
C1236 C1235 1.410 . S
C1236 C1237 1.392 . S
C1236 C1239 1.511 . S
C1237 C1233 1.376 . S
C1237 C1236 1.392 . S
C1237 H1249 0.929 . S
C1238 C1234 1.531 . S
C1238 H1250 0.960 . S
C1238 H1251 0.962 . S
C1238 H1252 0.960 . S
C1239 C1236 1.511 . S
C1239 H1253 0.961 . S
C1239 H1254 0.961 . S
C1239 H1255 0.961 . S
C1240 C1241 1.370 . S
C1240 C1242 1.363 . S
C1240 H1256 0.931 . S
C1241 C1240 1.370 . S
C1241 C1245 1.408 . S
C1242 C1240 1.363 . S
C1242 C1243 1.370 . S
C1242 C1246 1.524 . S
C1243 C1235 1.503 . S
C1243 C1242 1.370 . S
C1243 C1244 1.403 . S
C1244 C1243 1.403 . S
C1244 C1245 1.404 . S
C1244 C1247 1.539 . S
C1245 C1241 1.408 . S
C1245 C1244 1.404 . S
C1245 H1257 0.930 . S
C1246 C1242 1.524 . S
C1246 H1258 0.956 . S
C1246 H1259 0.961 . S
C1246 H1260 0.961 . S
C1247 C1244 1.539 . S
C1247 H1261 0.958 . S
C1247 H1262 0.961 . S
C1247 H1263 0.960 . S
H1248 C1232 0.931 . S
H1249 C1237 0.929 . S
H1250 C1238 0.960 . S
H1251 C1238 0.962 . S
H1252 C1238 0.960 . S
H1253 C1239 0.961 . S
H1254 C1239 0.961 . S
H1255 C1239 0.961 . S
H1256 C1240 0.931 . S
H1257 C1245 0.930 . S
H1258 C1246 0.956 . S
H1259 C1246 0.961 . S
H1260 C1246 0.961 . S
H1261 C1247 0.958 . S
H1262 C1247 0.961 . S
H1263 C1247 0.960 . S
C1264 C1265 1.391 . S
C1264 C1266 1.394 . S
C1264 H1280 0.931 . S
C1265 C1264 1.391 . S
C1265 C1269 1.376 . S
C1266 C1264 1.394 . S
C1266 C1267 1.369 . S
C1266 C1270 1.531 . S
C1267 C1266 1.369 . S
C1267 C1268 1.410 . S
C1267 C1275 1.503 . S
C1268 C1267 1.410 . S
C1268 C1269 1.392 . S
C1268 C1271 1.511 . S
C1269 C1265 1.376 . S
C1269 C1268 1.392 . S
C1269 H1281 0.929 . S
C1270 C1266 1.531 . S
C1270 H1282 0.960 . S
C1270 H1283 0.962 . S
C1270 H1284 0.960 . S
C1271 C1268 1.511 . S
C1271 H1285 0.961 . S
C1271 H1286 0.961 . S
C1271 H1287 0.961 . S
C1272 C1273 1.370 . S
C1272 C1274 1.363 . S
C1272 H1288 0.931 . S
C1273 C1272 1.370 . S
C1273 C1277 1.408 . S
C1274 C1272 1.363 . S
C1274 C1275 1.370 . S
C1274 C1278 1.524 . S
C1275 C1267 1.503 . S
C1275 C1274 1.370 . S
C1275 C1276 1.403 . S
C1276 C1275 1.403 . S
C1276 C1277 1.404 . S
C1276 C1279 1.539 . S
C1277 C1273 1.408 . S
C1277 C1276 1.404 . S
C1277 H1289 0.930 . S
C1278 C1274 1.524 . S
C1278 H1290 0.956 . S
C1278 H1291 0.961 . S
C1278 H1292 0.961 . S
C1279 C1276 1.539 . S
C1279 H1293 0.958 . S
C1279 H1294 0.961 . S
C1279 H1295 0.960 . S
H1280 C1264 0.931 . S
H1281 C1269 0.929 . S
H1282 C1270 0.960 . S
H1283 C1270 0.962 . S
H1284 C1270 0.960 . S
H1285 C1271 0.961 . S
H1286 C1271 0.961 . S
H1287 C1271 0.961 . S
H1288 C1272 0.931 . S
H1289 C1277 0.930 . S
H1290 C1278 0.956 . S
H1291 C1278 0.961 . S
H1292 C1278 0.961 . S
H1293 C1279 0.958 . S
H1294 C1279 0.961 . S
H1295 C1279 0.960 . S
C1296 C1297 1.391 . S
C1296 C1298 1.394 . S
C1296 H1312 0.931 . S
C1297 C1296 1.391 . S
C1297 C1301 1.376 . S
C1298 C1296 1.394 . S
C1298 C1299 1.369 . S
C1298 C1302 1.531 . S
C1299 C1298 1.369 . S
C1299 C1300 1.410 . S
C1299 C1307 1.503 . S
C1300 C1299 1.410 . S
C1300 C1301 1.392 . S
C1300 C1303 1.511 . S
C1301 C1297 1.376 . S
C1301 C1300 1.392 . S
C1301 H1313 0.929 . S
C1302 C1298 1.531 . S
C1302 H1314 0.960 . S
C1302 H1315 0.962 . S
C1302 H1316 0.960 . S
C1303 C1300 1.511 . S
C1303 H1317 0.961 . S
C1303 H1318 0.961 . S
C1303 H1319 0.961 . S
C1304 C1305 1.370 . S
C1304 C1306 1.363 . S
C1304 H1320 0.931 . S
C1305 C1304 1.370 . S
C1305 C1309 1.408 . S
C1306 C1304 1.363 . S
C1306 C1307 1.370 . S
C1306 C1310 1.524 . S
C1307 C1299 1.503 . S
C1307 C1306 1.370 . S
C1307 C1308 1.403 . S
C1308 C1307 1.403 . S
C1308 C1309 1.404 . S
C1308 C1311 1.539 . S
C1309 C1305 1.408 . S
C1309 C1308 1.404 . S
C1309 H1321 0.930 . S
C1310 C1306 1.524 . S
C1310 H1322 0.956 . S
C1310 H1323 0.961 . S
C1310 H1324 0.961 . S
C1311 C1308 1.539 . S
C1311 H1325 0.958 . S
C1311 H1326 0.961 . S
C1311 H1327 0.960 . S
H1312 C1296 0.931 . S
H1313 C1301 0.929 . S
H1314 C1302 0.960 . S
H1315 C1302 0.962 . S
H1316 C1302 0.960 . S
H1317 C1303 0.961 . S
H1318 C1303 0.961 . S
H1319 C1303 0.961 . S
H1320 C1304 0.931 . S
H1321 C1309 0.930 . S
H1322 C1310 0.956 . S
H1323 C1310 0.961 . S
H1324 C1310 0.961 . S
H1325 C1311 0.958 . S
H1326 C1311 0.961 . S
H1327 C1311 0.960 . S
C1328 C1329 1.391 . S
C1328 C1330 1.394 . S
C1328 H1344 0.931 . S
C1329 C1328 1.391 . S
C1329 C1333 1.376 . S
C1330 C1328 1.394 . S
C1330 C1331 1.369 . S
C1330 C1334 1.531 . S
C1331 C1330 1.369 . S
C1331 C1332 1.410 . S
C1331 C1339 1.503 . S
C1332 C1331 1.410 . S
C1332 C1333 1.392 . S
C1332 C1335 1.511 . S
C1333 C1329 1.376 . S
C1333 C1332 1.392 . S
C1333 H1345 0.929 . S
C1334 C1330 1.531 . S
C1334 H1346 0.960 . S
C1334 H1347 0.962 . S
C1334 H1348 0.960 . S
C1335 C1332 1.511 . S
C1335 H1349 0.961 . S
C1335 H1350 0.961 . S
C1335 H1351 0.961 . S
C1336 C1337 1.370 . S
C1336 C1338 1.363 . S
C1336 H1352 0.931 . S
C1337 C1336 1.370 . S
C1337 C1341 1.408 . S
C1338 C1336 1.363 . S
C1338 C1339 1.370 . S
C1338 C1342 1.524 . S
C1339 C1331 1.503 . S
C1339 C1338 1.370 . S
C1339 C1340 1.403 . S
C1340 C1339 1.403 . S
C1340 C1341 1.404 . S
C1340 C1343 1.539 . S
C1341 C1337 1.408 . S
C1341 C1340 1.404 . S
C1341 H1353 0.930 . S
C1342 C1338 1.524 . S
C1342 H1354 0.956 . S
C1342 H1355 0.961 . S
C1342 H1356 0.961 . S
C1343 C1340 1.539 . S
C1343 H1357 0.958 . S
C1343 H1358 0.961 . S
C1343 H1359 0.960 . S
H1344 C1328 0.931 . S
H1345 C1333 0.929 . S
H1346 C1334 0.960 . S
H1347 C1334 0.962 . S
H1348 C1334 0.960 . S
H1349 C1335 0.961 . S
H1350 C1335 0.961 . S
H1351 C1335 0.961 . S
H1352 C1336 0.931 . S
H1353 C1341 0.930 . S
H1354 C1342 0.956 . S
H1355 C1342 0.961 . S
H1356 C1342 0.961 . S
H1357 C1343 0.958 . S
H1358 C1343 0.961 . S
H1359 C1343 0.960 . S
C1360 C1361 1.391 . S
C1360 C1362 1.394 . S
C1360 H1376 0.931 . S
C1361 C1360 1.391 . S
C1361 C1365 1.376 . S
C1362 C1360 1.394 . S
C1362 C1363 1.369 . S
C1362 C1366 1.531 . S
C1363 C1362 1.369 . S
C1363 C1364 1.410 . S
C1363 C1371 1.503 . S
C1364 C1363 1.410 . S
C1364 C1365 1.392 . S
C1364 C1367 1.511 . S
C1365 C1361 1.376 . S
C1365 C1364 1.392 . S
C1365 H1377 0.929 . S
C1366 C1362 1.531 . S
C1366 H1378 0.960 . S
C1366 H1379 0.962 . S
C1366 H1380 0.960 . S
C1367 C1364 1.511 . S
C1367 H1381 0.961 . S
C1367 H1382 0.961 . S
C1367 H1383 0.961 . S
C1368 C1369 1.370 . S
C1368 C1370 1.363 . S
C1368 H1384 0.931 . S
C1369 C1368 1.370 . S
C1369 C1373 1.408 1_655 S
C1370 C1368 1.363 . S
C1370 C1371 1.370 . S
C1370 C1374 1.524 . S
C1371 C1363 1.503 . S
C1371 C1370 1.370 . S
C1371 C1372 1.403 . S
C1372 C1371 1.403 . S
C1372 C1373 1.404 1_655 S
C1372 C1375 1.539 1_655 S
C1373 C1369 1.408 1_455 S
C1373 C1372 1.404 1_455 S
C1373 H1385 0.930 . S
C1374 C1370 1.524 . S
C1374 H1386 0.956 . S
C1374 H1387 0.961 . S
C1374 H1388 0.961 . S
C1375 C1372 1.539 1_455 S
C1375 H1389 0.958 . S
C1375 H1390 0.961 . S
C1375 H1391 0.960 1_455 S
H1376 C1360 0.931 . S
H1377 C1365 0.929 . S
H1378 C1366 0.960 . S
H1379 C1366 0.962 . S
H1380 C1366 0.960 . S
H1381 C1367 0.961 . S
H1382 C1367 0.961 . S
H1383 C1367 0.961 . S
H1384 C1368 0.931 . S
H1385 C1373 0.930 . S
H1386 C1374 0.956 . S
H1387 C1374 0.961 . S
H1388 C1374 0.961 . S
H1389 C1375 0.958 . S
H1390 C1375 0.961 . S
H1391 C1375 0.960 1_655 S
C1392 C1393 1.391 1_545 S
C1392 C1394 1.394 1_545 S
C1392 H1408 0.931 . S
C1393 C1392 1.391 1_565 S
C1393 C1397 1.376 . S
C1394 C1392 1.394 1_565 S
C1394 C1395 1.369 . S
C1394 C1398 1.531 . S
C1395 C1394 1.369 . S
C1395 C1396 1.410 . S
C1395 C1403 1.503 . S
C1396 C1395 1.410 . S
C1396 C1397 1.392 . S
C1396 C1399 1.511 . S
C1397 C1393 1.376 . S
C1397 C1396 1.392 . S
C1397 H1409 0.929 . S
C1398 C1394 1.531 . S
C1398 H1410 0.960 . S
C1398 H1411 0.962 . S
C1398 H1412 0.960 1_565 S
C1399 C1396 1.511 . S
C1399 H1413 0.961 . S
C1399 H1414 0.961 . S
C1399 H1415 0.961 . S
C1400 C1401 1.370 . S
C1400 C1402 1.363 . S
C1400 H1416 0.931 . S
C1401 C1400 1.370 . S
C1401 C1405 1.408 . S
C1402 C1400 1.363 . S
C1402 C1403 1.370 . S
C1402 C1406 1.524 . S
C1403 C1395 1.503 . S
C1403 C1402 1.370 . S
C1403 C1404 1.403 . S
C1404 C1403 1.403 . S
C1404 C1405 1.404 . S
C1404 C1407 1.539 . S
C1405 C1401 1.408 . S
C1405 C1404 1.404 . S
C1405 H1417 0.930 . S
C1406 C1402 1.524 . S
C1406 H1418 0.956 . S
C1406 H1419 0.961 . S
C1406 H1420 0.961 . S
C1407 C1404 1.539 . S
C1407 H1421 0.958 . S
C1407 H1422 0.961 . S
C1407 H1423 0.960 . S
H1408 C1392 0.931 . S
H1409 C1397 0.929 . S
H1410 C1398 0.960 . S
H1411 C1398 0.962 . S
H1412 C1398 0.960 1_545 S
H1413 C1399 0.961 . S
H1414 C1399 0.961 . S
H1415 C1399 0.961 . S
H1416 C1400 0.931 . S
H1417 C1405 0.930 . S
H1418 C1406 0.956 . S
H1419 C1406 0.961 . S
H1420 C1406 0.961 . S
H1421 C1407 0.958 . S
H1422 C1407 0.961 . S
H1423 C1407 0.960 . S
C1424 C1425 1.391 . S
C1424 C1426 1.394 . S
C1424 H1440 0.931 . S
C1425 C1424 1.391 . S
C1425 C1429 1.376 . S
C1426 C1424 1.394 . S
C1426 C1427 1.369 . S
C1426 C1430 1.531 . S
C1427 C1426 1.369 . S
C1427 C1428 1.410 . S
C1427 C1435 1.503 . S
C1428 C1427 1.410 . S
C1428 C1429 1.392 . S
C1428 C1431 1.511 . S
C1429 C1425 1.376 . S
C1429 C1428 1.392 . S
C1429 H1441 0.929 . S
C1430 C1426 1.531 . S
C1430 H1442 0.960 . S
C1430 H1443 0.962 . S
C1430 H1444 0.960 . S
C1431 C1428 1.511 . S
C1431 H1445 0.961 . S
C1431 H1446 0.961 . S
C1431 H1447 0.961 . S
C1432 C1433 1.370 . S
C1432 C1434 1.363 . S
C1432 H1448 0.931 . S
C1433 C1432 1.370 . S
C1433 C1437 1.408 . S
C1434 C1432 1.363 . S
C1434 C1435 1.370 . S
C1434 C1438 1.524 . S
C1435 C1427 1.503 . S
C1435 C1434 1.370 . S
C1435 C1436 1.403 . S
C1436 C1435 1.403 . S
C1436 C1437 1.404 . S
C1436 C1439 1.539 . S
C1437 C1433 1.408 . S
C1437 C1436 1.404 . S
C1437 H1449 0.930 . S
C1438 C1434 1.524 . S
C1438 H1450 0.956 . S
C1438 H1451 0.961 . S
C1438 H1452 0.961 . S
C1439 C1436 1.539 . S
C1439 H1453 0.958 . S
C1439 H1454 0.961 . S
C1439 H1455 0.960 . S
H1440 C1424 0.931 . S
H1441 C1429 0.929 . S
H1442 C1430 0.960 . S
H1443 C1430 0.962 . S
H1444 C1430 0.960 . S
H1445 C1431 0.961 . S
H1446 C1431 0.961 . S
H1447 C1431 0.961 . S
H1448 C1432 0.931 . S
H1449 C1437 0.930 . S
H1450 C1438 0.956 . S
H1451 C1438 0.961 . S
H1452 C1438 0.961 . S
H1453 C1439 0.958 . S
H1454 C1439 0.961 . S
H1455 C1439 0.960 . S
C1456 C1457 1.391 . S
C1456 C1458 1.394 . S
C1456 H1472 0.931 . S
C1457 C1456 1.391 . S
C1457 C1461 1.376 . S
C1458 C1456 1.394 . S
C1458 C1459 1.369 . S
C1458 C1462 1.531 . S
C1459 C1458 1.369 . S
C1459 C1460 1.410 . S
C1459 C1467 1.503 . S
C1460 C1459 1.410 . S
C1460 C1461 1.392 . S
C1460 C1463 1.511 . S
C1461 C1457 1.376 . S
C1461 C1460 1.392 . S
C1461 H1473 0.929 . S
C1462 C1458 1.531 . S
C1462 H1474 0.960 . S
C1462 H1475 0.962 . S
C1462 H1476 0.960 . S
C1463 C1460 1.511 . S
C1463 H1477 0.961 . S
C1463 H1478 0.961 . S
C1463 H1479 0.961 . S
C1464 C1465 1.370 . S
C1464 C1466 1.363 . S
C1464 H1480 0.931 . S
C1465 C1464 1.370 . S
C1465 C1469 1.408 . S
C1466 C1464 1.363 . S
C1466 C1467 1.370 . S
C1466 C1470 1.524 . S
C1467 C1459 1.503 . S
C1467 C1466 1.370 . S
C1467 C1468 1.403 . S
C1468 C1467 1.403 . S
C1468 C1469 1.404 . S
C1468 C1471 1.539 . S
C1469 C1465 1.408 . S
C1469 C1468 1.404 . S
C1469 H1481 0.930 . S
C1470 C1466 1.524 . S
C1470 H1482 0.956 . S
C1470 H1483 0.961 . S
C1470 H1484 0.961 . S
C1471 C1468 1.539 . S
C1471 H1485 0.958 . S
C1471 H1486 0.961 . S
C1471 H1487 0.960 . S
H1472 C1456 0.931 . S
H1473 C1461 0.929 . S
H1474 C1462 0.960 . S
H1475 C1462 0.962 . S
H1476 C1462 0.960 . S
H1477 C1463 0.961 . S
H1478 C1463 0.961 . S
H1479 C1463 0.961 . S
H1480 C1464 0.931 . S
H1481 C1469 0.930 . S
H1482 C1470 0.956 . S
H1483 C1470 0.961 . S
H1484 C1470 0.961 . S
H1485 C1471 0.958 . S
H1486 C1471 0.961 . S
H1487 C1471 0.960 . S
C1488 C1489 1.391 . S
C1488 C1490 1.394 . S
C1488 H1504 0.931 . S
C1489 C1488 1.391 . S
C1489 C1493 1.376 . S
C1490 C1488 1.394 . S
C1490 C1491 1.369 . S
C1490 C1494 1.531 . S
C1491 C1490 1.369 . S
C1491 C1492 1.410 . S
C1491 C1499 1.503 . S
C1492 C1491 1.410 . S
C1492 C1493 1.392 . S
C1492 C1495 1.511 . S
C1493 C1489 1.376 . S
C1493 C1492 1.392 . S
C1493 H1505 0.913 1_655 S
C1494 C1490 1.531 . S
C1494 H1506 0.960 . S
C1494 H1507 0.962 . S
C1494 H1508 0.960 . S
C1495 C1492 1.511 . S
C1495 H1509 0.961 . S
C1495 H1510 0.961 . S
C1495 H1511 0.961 . S
C1496 C1497 1.370 . S
C1496 C1498 1.363 . S
C1496 H1512 0.931 . S
C1497 C1496 1.370 . S
C1497 C1501 1.408 . S
C1498 C1496 1.363 . S
C1498 C1499 1.370 . S
C1498 C1502 1.524 . S
C1499 C1491 1.503 . S
C1499 C1498 1.370 . S
C1499 C1500 1.403 . S
C1500 C1499 1.403 . S
C1500 C1501 1.404 . S
C1500 C1503 1.539 . S
C1501 C1497 1.408 . S
C1501 C1500 1.404 . S
C1501 H1513 0.930 . S
C1502 C1498 1.524 . S
C1502 H1514 0.956 . S
C1502 H1515 0.961 . S
C1502 H1516 0.961 . S
C1503 C1500 1.539 . S
C1503 H1517 0.958 . S
C1503 H1518 0.961 . S
C1503 H1519 0.960 . S
H1504 C1488 0.931 . S
H1505 C1493 0.913 1_455 S
H1506 C1494 0.960 . S
H1507 C1494 0.962 . S
H1508 C1494 0.960 . S
H1509 C1495 0.961 . S
H1510 C1495 0.961 . S
H1511 C1495 0.961 . S
H1512 C1496 0.931 . S
H1513 C1501 0.930 . S
H1514 C1502 0.956 . S
H1515 C1502 0.961 . S
H1516 C1502 0.961 . S
H1517 C1503 0.958 . S
H1518 C1503 0.961 . S
H1519 C1503 0.960 . S
C1520 C1521 1.391 . S
C1520 C1522 1.394 . S
C1520 H1536 0.931 . S
C1521 C1520 1.391 . S
C1521 C1525 1.376 . S
C1522 C1520 1.394 . S
C1522 C1523 1.369 . S
C1522 C1526 1.531 . S
C1523 C1522 1.369 . S
C1523 C1524 1.410 . S
C1523 C1531 1.503 . S
C1524 C1523 1.410 . S
C1524 C1525 1.392 . S
C1524 C1527 1.511 . S
C1525 C1521 1.376 . S
C1525 C1524 1.392 . S
C1525 H1537 0.929 . S
C1526 C1522 1.531 . S
C1526 H1538 0.960 . S
C1526 H1539 0.962 . S
C1526 H1540 0.960 . S
C1527 C1524 1.511 . S
C1527 H1541 0.961 . S
C1527 H1542 0.961 . S
C1527 H1543 0.961 . S
C1528 C1529 1.370 . S
C1528 C1530 1.363 . S
C1528 H1544 0.931 . S
C1529 C1528 1.370 . S
C1529 C1533 1.408 . S
C1530 C1528 1.363 . S
C1530 C1531 1.370 . S
C1530 C1534 1.524 . S
C1531 C1523 1.503 . S
C1531 C1530 1.370 . S
C1531 C1532 1.403 . S
C1532 C1531 1.403 . S
C1532 C1533 1.404 . S
C1532 C1535 1.539 . S
C1533 C1529 1.408 . S
C1533 C1532 1.404 . S
C1533 H1545 0.930 1_565 S
C1534 C1530 1.524 . S
C1534 H1546 0.956 . S
C1534 H1547 0.961 . S
C1534 H1548 0.961 . S
C1535 C1532 1.539 . S
C1535 H1549 0.958 . S
C1535 H1550 0.961 . S
C1535 H1551 0.960 . S
H1536 C1520 0.931 . S
H1537 C1525 0.929 . S
H1538 C1526 0.960 . S
H1539 C1526 0.962 . S
H1540 C1526 0.960 . S
H1541 C1527 0.961 . S
H1542 C1527 0.961 . S
H1543 C1527 0.961 . S
H1544 C1528 0.931 . S
H1545 C1533 0.930 1_545 S
H1546 C1534 0.956 . S
H1547 C1534 0.961 . S
H1548 C1534 0.961 . S
H1549 C1535 0.958 . S
H1550 C1535 0.961 . S
H1551 C1535 0.960 . S
C1552 C1553 1.391 . S
C1552 C1554 1.394 . S
C1552 H1568 0.931 . S
C1553 C1552 1.391 . S
C1553 C1557 1.376 . S
C1554 C1552 1.394 . S
C1554 C1555 1.369 . S
C1554 C1558 1.531 . S
C1555 C1554 1.369 . S
C1555 C1556 1.410 . S
C1555 C1563 1.503 . S
C1556 C1555 1.410 . S
C1556 C1557 1.392 . S
C1556 C1559 1.511 . S
C1557 C1553 1.376 . S
C1557 C1556 1.392 . S
C1557 H1569 0.929 . S
C1558 C1554 1.531 . S
C1558 H1570 0.960 . S
C1558 H1571 0.962 . S
C1558 H1572 0.960 . S
C1559 C1556 1.511 . S
C1559 H1573 0.961 . S
C1559 H1574 0.961 . S
C1559 H1575 0.961 . S
C1560 C1561 1.370 . S
C1560 C1562 1.363 . S
C1560 H1576 0.931 . S
C1561 C1560 1.370 . S
C1561 C1565 1.408 . S
C1562 C1560 1.363 . S
C1562 C1563 1.370 . S
C1562 C1566 1.524 . S
C1563 C1555 1.503 . S
C1563 C1562 1.370 . S
C1563 C1564 1.403 . S
C1564 C1563 1.403 . S
C1564 C1565 1.404 . S
C1564 C1567 1.539 . S
C1565 C1561 1.408 . S
C1565 C1564 1.404 . S
C1565 H1577 0.930 . S
C1566 C1562 1.524 . S
C1566 H1578 0.956 . S
C1566 H1579 0.961 . S
C1566 H1580 0.961 . S
C1567 C1564 1.539 . S
C1567 H1581 0.958 . S
C1567 H1582 0.961 . S
C1567 H1583 0.960 . S
H1568 C1552 0.931 . S
H1569 C1557 0.929 . S
H1570 C1558 0.960 . S
H1571 C1558 0.962 . S
H1572 C1558 0.960 . S
H1573 C1559 0.961 . S
H1574 C1559 0.961 . S
H1575 C1559 0.961 . S
H1576 C1560 0.931 . S
H1577 C1565 0.930 . S
H1578 C1566 0.956 . S
H1579 C1566 0.961 . S
H1580 C1566 0.961 . S
H1581 C1567 0.958 . S
H1582 C1567 0.961 . S
H1583 C1567 0.960 . S
C1584 C1585 1.391 . S
C1584 C1586 1.394 . S
C1584 H1600 0.931 . S
C1585 C1584 1.391 . S
C1585 C1589 1.376 . S
C1586 C1584 1.394 . S
C1586 C1587 1.369 . S
C1586 C1590 1.531 . S
C1587 C1586 1.369 . S
C1587 C1588 1.410 . S
C1587 C1595 1.503 . S
C1588 C1587 1.410 . S
C1588 C1589 1.392 . S
C1588 C1591 1.511 . S
C1589 C1585 1.376 . S
C1589 C1588 1.392 . S
C1589 H1601 0.929 . S
C1590 C1586 1.531 . S
C1590 H1602 0.960 . S
C1590 H1603 0.962 . S
C1590 H1604 0.960 . S
C1591 C1588 1.511 . S
C1591 H1605 0.961 . S
C1591 H1606 0.961 . S
C1591 H1607 0.961 . S
C1592 C1593 1.370 . S
C1592 C1594 1.363 . S
C1592 H1608 0.931 . S
C1593 C1592 1.370 . S
C1593 C1597 1.408 . S
C1594 C1592 1.363 . S
C1594 C1595 1.370 . S
C1594 C1598 1.524 . S
C1595 C1587 1.503 . S
C1595 C1594 1.370 . S
C1595 C1596 1.403 . S
C1596 C1595 1.403 . S
C1596 C1597 1.404 . S
C1596 C1599 1.539 . S
C1597 C1593 1.408 . S
C1597 C1596 1.404 . S
C1597 H1609 0.930 . S
C1598 C1594 1.524 . S
C1598 H1610 0.956 . S
C1598 H1611 0.961 . S
C1598 H1612 0.961 . S
C1599 C1596 1.539 . S
C1599 H1613 0.958 . S
C1599 H1614 0.961 . S
C1599 H1615 0.960 . S
H1600 C1584 0.931 . S
H1601 C1589 0.929 . S
H1602 C1590 0.960 . S
H1603 C1590 0.962 . S
H1604 C1590 0.960 . S
H1605 C1591 0.961 . S
H1606 C1591 0.961 . S
H1607 C1591 0.961 . S
H1608 C1592 0.931 . S
H1609 C1597 0.930 . S
H1610 C1598 0.956 . S
H1611 C1598 0.961 . S
H1612 C1598 0.961 . S
H1613 C1599 0.958 . S
H1614 C1599 0.961 . S
H1615 C1599 0.960 . S
C1616 C1617 1.391 . S
C1616 C1618 1.394 . S
C1616 H1632 0.931 . S
C1617 C1616 1.391 . S
C1617 C1621 1.376 . S
C1618 C1616 1.394 . S
C1618 C1619 1.369 . S
C1618 C1622 1.531 . S
C1619 C1618 1.369 . S
C1619 C1620 1.410 . S
C1619 C1627 1.503 . S
C1620 C1619 1.410 . S
C1620 C1621 1.392 . S
C1620 C1623 1.511 . S
C1621 C1617 1.376 . S
C1621 C1620 1.392 . S
C1621 H1633 0.929 . S
C1622 C1618 1.531 . S
C1622 H1634 0.960 . S
C1622 H1635 0.962 . S
C1622 H1636 0.960 . S
C1623 C1620 1.511 . S
C1623 H1637 0.961 . S
C1623 H1638 0.961 . S
C1623 H1639 0.961 . S
C1624 C1625 1.370 . S
C1624 C1626 1.363 . S
C1624 H1640 0.931 . S
C1625 C1624 1.370 . S
C1625 C1629 1.408 . S
C1626 C1624 1.363 . S
C1626 C1627 1.370 . S
C1626 C1630 1.524 . S
C1627 C1619 1.503 . S
C1627 C1626 1.370 . S
C1627 C1628 1.403 . S
C1628 C1627 1.403 . S
C1628 C1629 1.404 . S
C1628 C1631 1.539 . S
C1629 C1625 1.408 . S
C1629 C1628 1.404 . S
C1629 H1641 0.930 . S
C1630 C1626 1.524 . S
C1630 H1642 0.956 . S
C1630 H1643 0.961 . S
C1630 H1644 0.961 . S
C1631 C1628 1.539 . S
C1631 H1645 0.958 . S
C1631 H1646 0.961 . S
C1631 H1647 0.960 . S
H1632 C1616 0.931 . S
H1633 C1621 0.929 . S
H1634 C1622 0.960 . S
H1635 C1622 0.962 . S
H1636 C1622 0.960 . S
H1637 C1623 0.961 . S
H1638 C1623 0.961 . S
H1639 C1623 0.961 . S
H1640 C1624 0.931 . S
H1641 C1629 0.930 . S
H1642 C1630 0.956 . S
H1643 C1630 0.961 . S
H1644 C1630 0.961 . S
H1645 C1631 0.958 . S
H1646 C1631 0.961 . S
H1647 C1631 0.960 . S
C1648 C1649 1.391 . S
C1648 C1650 1.394 . S
C1648 H1664 0.931 . S
C1649 C1648 1.391 . S
C1649 C1653 1.376 . S
C1650 C1648 1.394 . S
C1650 C1651 1.369 . S
C1650 C1654 1.531 . S
C1651 C1650 1.369 . S
C1651 C1652 1.410 . S
C1651 C1659 1.503 . S
C1652 C1651 1.410 . S
C1652 C1653 1.392 . S
C1652 C1655 1.511 . S
C1653 C1649 1.376 . S
C1653 C1652 1.392 . S
C1653 H1665 0.929 . S
C1654 C1650 1.531 . S
C1654 H1666 0.960 . S
C1654 H1667 0.962 . S
C1654 H1668 0.960 . S
C1655 C1652 1.511 . S
C1655 H1669 0.961 . S
C1655 H1670 0.961 . S
C1655 H1671 0.961 . S
C1656 C1657 1.370 . S
C1656 C1658 1.363 . S
C1656 H1672 0.931 . S
C1657 C1656 1.370 . S
C1657 C1661 1.408 . S
C1658 C1656 1.363 . S
C1658 C1659 1.370 . S
C1658 C1662 1.524 . S
C1659 C1651 1.503 . S
C1659 C1658 1.370 . S
C1659 C1660 1.403 . S
C1660 C1659 1.403 . S
C1660 C1661 1.404 . S
C1660 C1663 1.539 . S
C1661 C1657 1.408 . S
C1661 C1660 1.404 . S
C1661 H1673 0.930 . S
C1662 C1658 1.524 . S
C1662 H1674 0.956 . S
C1662 H1675 0.961 . S
C1662 H1676 0.961 . S
C1663 C1660 1.539 . S
C1663 H1677 0.958 . S
C1663 H1678 0.961 . S
C1663 H1679 0.960 . S
H1664 C1648 0.931 . S
H1665 C1653 0.929 . S
H1666 C1654 0.960 . S
H1667 C1654 0.962 . S
H1668 C1654 0.960 . S
H1669 C1655 0.961 . S
H1670 C1655 0.961 . S
H1671 C1655 0.961 . S
H1672 C1656 0.931 . S
H1673 C1661 0.930 . S
H1674 C1662 0.956 . S
H1675 C1662 0.961 . S
H1676 C1662 0.961 . S
H1677 C1663 0.958 . S
H1678 C1663 0.961 . S
H1679 C1663 0.960 . S
C1680 C1681 1.391 . S
C1680 C1682 1.394 . S
C1680 H1696 0.931 . S
C1681 C1680 1.391 . S
C1681 C1685 1.376 . S
C1682 C1680 1.394 . S
C1682 C1683 1.369 . S
C1682 C1686 1.531 . S
C1683 C1682 1.369 . S
C1683 C1684 1.410 . S
C1683 C1691 1.503 . S
C1684 C1683 1.410 . S
C1684 C1685 1.392 . S
C1684 C1687 1.511 . S
C1685 C1681 1.376 . S
C1685 C1684 1.392 . S
C1685 H1697 0.929 . S
C1686 C1682 1.531 . S
C1686 H1698 0.960 . S
C1686 H1699 0.962 . S
C1686 H1700 0.960 . S
C1687 C1684 1.511 . S
C1687 H1701 0.961 . S
C1687 H1702 0.961 . S
C1687 H1703 0.961 . S
C1688 C1689 1.370 . S
C1688 C1690 1.363 . S
C1688 H1704 0.931 . S
C1689 C1688 1.370 . S
C1689 C1693 1.408 . S
C1690 C1688 1.363 . S
C1690 C1691 1.370 . S
C1690 C1694 1.524 . S
C1691 C1683 1.503 . S
C1691 C1690 1.370 . S
C1691 C1692 1.403 . S
C1692 C1691 1.403 . S
C1692 C1693 1.404 . S
C1692 C1695 1.539 . S
C1693 C1689 1.408 . S
C1693 C1692 1.404 . S
C1693 H1705 0.930 . S
C1694 C1690 1.524 . S
C1694 H1706 0.956 . S
C1694 H1707 0.961 . S
C1694 H1708 0.961 . S
C1695 C1692 1.539 . S
C1695 H1709 0.958 . S
C1695 H1710 0.961 . S
C1695 H1711 0.960 . S
H1696 C1680 0.931 . S
H1697 C1685 0.929 . S
H1698 C1686 0.960 . S
H1699 C1686 0.962 . S
H1700 C1686 0.960 . S
H1701 C1687 0.961 . S
H1702 C1687 0.961 . S
H1703 C1687 0.961 . S
H1704 C1688 0.931 . S
H1705 C1693 0.930 . S
H1706 C1694 0.956 . S
H1707 C1694 0.961 . S
H1708 C1694 0.961 . S
H1709 C1695 0.958 . S
H1710 C1695 0.961 . S
H1711 C1695 0.960 . S
C1712 C1713 1.391 . S
C1712 C1714 1.394 . S
C1712 H1728 0.931 . S
C1713 C1712 1.391 . S
C1713 C1717 1.376 . S
C1714 C1712 1.394 . S
C1714 C1715 1.369 . S
C1714 C1718 1.531 . S
C1715 C1714 1.369 . S
C1715 C1716 1.410 . S
C1715 C1723 1.503 . S
C1716 C1715 1.410 . S
C1716 C1717 1.392 . S
C1716 C1719 1.511 . S
C1717 C1713 1.376 . S
C1717 C1716 1.392 . S
C1717 H1729 0.929 . S
C1718 C1714 1.531 . S
C1718 H1730 0.960 . S
C1718 H1731 0.962 . S
C1718 H1732 0.960 . S
C1719 C1716 1.511 . S
C1719 H1733 0.961 . S
C1719 H1734 0.961 . S
C1719 H1735 0.961 . S
C1720 C1721 1.370 . S
C1720 C1722 1.363 . S
C1720 H1736 0.931 . S
C1721 C1720 1.370 . S
C1721 C1725 1.408 . S
C1722 C1720 1.363 . S
C1722 C1723 1.370 . S
C1722 C1726 1.524 . S
C1723 C1715 1.503 . S
C1723 C1722 1.370 . S
C1723 C1724 1.403 . S
C1724 C1723 1.403 . S
C1724 C1725 1.404 . S
C1724 C1727 1.539 . S
C1725 C1721 1.408 . S
C1725 C1724 1.404 . S
C1725 H1737 0.930 . S
C1726 C1722 1.524 . S
C1726 H1738 0.956 . S
C1726 H1739 0.961 . S
C1726 H1740 0.961 . S
C1727 C1724 1.539 . S
C1727 H1741 0.958 . S
C1727 H1742 0.961 . S
C1727 H1743 0.960 . S
H1728 C1712 0.931 . S
H1729 C1717 0.929 . S
H1730 C1718 0.960 . S
H1731 C1718 0.962 . S
H1732 C1718 0.960 . S
H1733 C1719 0.961 . S
H1734 C1719 0.961 . S
H1735 C1719 0.961 . S
H1736 C1720 0.931 . S
H1737 C1725 0.930 . S
H1738 C1726 0.956 . S
H1739 C1726 0.961 . S
H1740 C1726 0.961 . S
H1741 C1727 0.958 . S
H1742 C1727 0.961 . S
H1743 C1727 0.960 . S
C1744 C1745 1.391 . S
C1744 C1746 1.394 . S
C1744 H1760 0.931 . S
C1745 C1744 1.391 . S
C1745 C1749 1.376 . S
C1746 C1744 1.394 . S
C1746 C1747 1.369 . S
C1746 C1750 1.531 . S
C1747 C1746 1.369 . S
C1747 C1748 1.410 . S
C1747 C1755 1.503 . S
C1748 C1747 1.410 . S
C1748 C1749 1.392 . S
C1748 C1751 1.511 . S
C1749 C1745 1.376 . S
C1749 C1748 1.392 . S
C1749 H1761 0.929 . S
C1750 C1746 1.531 . S
C1750 H1762 0.960 . S
C1750 H1763 0.962 . S
C1750 H1764 0.960 . S
C1751 C1748 1.511 . S
C1751 H1765 0.961 . S
C1751 H1766 0.961 . S
C1751 H1767 0.961 . S
C1752 C1753 1.370 . S
C1752 C1754 1.363 . S
C1752 H1768 0.931 . S
C1753 C1752 1.370 . S
C1753 C1757 1.408 . S
C1754 C1752 1.363 . S
C1754 C1755 1.370 . S
C1754 C1758 1.524 . S
C1755 C1747 1.503 . S
C1755 C1754 1.370 . S
C1755 C1756 1.403 . S
C1756 C1755 1.403 . S
C1756 C1757 1.404 . S
C1756 C1759 1.539 . S
C1757 C1753 1.408 . S
C1757 C1756 1.404 . S
C1757 H1769 0.930 . S
C1758 C1754 1.524 . S
C1758 H1770 0.956 . S
C1758 H1771 0.961 . S
C1758 H1772 0.961 . S
C1759 C1756 1.539 . S
C1759 H1773 0.958 . S
C1759 H1774 0.961 . S
C1759 H1775 0.960 . S
H1760 C1744 0.931 . S
H1761 C1749 0.929 . S
H1762 C1750 0.960 . S
H1763 C1750 0.962 . S
H1764 C1750 0.960 . S
H1765 C1751 0.961 . S
H1766 C1751 0.961 . S
H1767 C1751 0.961 . S
H1768 C1752 0.931 . S
H1769 C1757 0.930 . S
H1770 C1758 0.956 . S
H1771 C1758 0.961 . S
H1772 C1758 0.961 . S
H1773 C1759 0.958 . S
H1774 C1759 0.961 . S
H1775 C1759 0.960 . S
C1776 C1777 1.391 . S
C1776 C1778 1.394 . S
C1776 H1792 0.931 . S
C1777 C1776 1.391 . S
C1777 C1781 1.376 . S
C1778 C1776 1.394 . S
C1778 C1779 1.369 . S
C1778 C1782 1.531 . S
C1779 C1778 1.369 . S
C1779 C1780 1.410 . S
C1779 C1787 1.503 . S
C1780 C1779 1.410 . S
C1780 C1781 1.392 . S
C1780 C1783 1.511 . S
C1781 C1777 1.376 . S
C1781 C1780 1.392 . S
C1781 H1793 0.929 . S
C1782 C1778 1.531 . S
C1782 H1794 0.960 . S
C1782 H1795 0.962 . S
C1782 H1796 0.960 . S
C1783 C1780 1.511 . S
C1783 H1797 0.961 . S
C1783 H1798 0.961 . S
C1783 H1799 0.961 . S
C1784 C1785 1.370 . S
C1784 C1786 1.363 . S
C1784 H1800 0.931 . S
C1785 C1784 1.370 . S
C1785 C1789 1.408 . S
C1786 C1784 1.363 . S
C1786 C1787 1.370 . S
C1786 C1790 1.524 . S
C1787 C1779 1.503 . S
C1787 C1786 1.370 . S
C1787 C1788 1.403 . S
C1788 C1787 1.403 . S
C1788 C1789 1.404 . S
C1788 C1791 1.539 . S
C1789 C1785 1.408 . S
C1789 C1788 1.404 . S
C1789 H1801 0.930 . S
C1790 C1786 1.524 . S
C1790 H1802 0.956 . S
C1790 H1803 0.961 . S
C1790 H1804 0.961 . S
C1791 C1788 1.539 . S
C1791 H1805 0.958 . S
C1791 H1806 0.961 . S
C1791 H1807 0.960 . S
H1792 C1776 0.931 . S
H1793 C1781 0.929 . S
H1794 C1782 0.960 . S
H1795 C1782 0.962 . S
H1796 C1782 0.960 . S
H1797 C1783 0.961 . S
H1798 C1783 0.961 . S
H1799 C1783 0.961 . S
H1800 C1784 0.931 . S
H1801 C1789 0.930 . S
H1802 C1790 0.956 . S
H1803 C1790 0.961 . S
H1804 C1790 0.961 . S
H1805 C1791 0.958 . S
H1806 C1791 0.961 . S
H1807 C1791 0.960 . S
C529 C21 1.483 . S
C537 C219 1.480 . S
C561 C252 1.469 . S
C569 C54 1.483 . S
C593 C153 1.461 . S
C601 C87 1.474 . S
C625 C186 1.466 . S
C633 C120 1.483 . S
C657 C285 1.459 . S
C665 C483 1.476 . S
C689 C318 1.475 . S
C697 C516 1.482 . S
C721 C351 1.461 . S
C729 C417 1.474 . S
C753 C450 1.474 . S
C761 C384 1.482 . S
C785 C7 1.384 . S
C793 N101 1.434 . S
C817 C40 1.453 . S
C825 N2 1.409 . S
C849 N35 1.396 . S
C857 C73 1.422 . S
C881 C106 1.424 . S
C889 N68 1.410 . S
C913 N167 1.404 . S
C921 C139 1.435 . S
C945 N200 1.426 . S
C953 C172 1.410 . S
C977 N233 1.391 . S
C985 C205 1.437 . S
C1009 N134 1.416 . S
C1017 C238 1.413 . S
C1041 C271 1.453 . S
C1049 N365 1.410 . S
C1073 N266 1.437 . S
C1081 C304 1.408 . S
C1105 C337 1.435 . S
C1113 N299 1.425 . S
C1137 C370 1.448 . S
C1145 N332 1.407 . S
C1169 C403 1.451 . S
C1177 N431 1.414 . S
C1201 C436 1.388 . S
C1209 N464 1.436 . S
C1233 C469 1.396 . S
C1241 N497 1.436 . S
C1265 N398 1.428 . S
C1273 C502 1.428 . S
C1297 N508 1.298 . S
C1305 N13 1.274 . S
C1329 N46 1.286 . S
C1337 N409 1.279 . S
C1361 N442 1.298 . S
C1369 N79 1.271 1_655 S
C1393 N112 1.298 1_565 S
C1401 N475 1.272 . S
C1425 N310 1.251 . S
C1433 N145 1.249 . S
C1457 N178 1.264 . S
C1465 N343 1.252 . S
C1489 N211 1.276 1_655 S
C1497 N376 1.279 . S
C1521 N277 1.272 . S
C1529 N244 1.254 1_565 S
C1553 C150 1.455 . S
C1561 C381 1.482 . S
C1585 C183 1.491 . S
C1593 C282 1.464 . S
C1617 C216 1.488 . S
C1625 C315 1.464 . S
C1649 C348 1.475 . S
C1657 C249 1.467 . S
C1681 C18 1.487 . S
C1689 C447 1.470 . S
C1713 C480 1.487 . S
C1721 C51 1.470 . S
C1745 C84 1.480 . S
C1753 C513 1.473 . S
C1777 C117 1.447 . S
C1785 C414 1.480 . S
