# Generated by pormake.
# Topology una, (4)-cn, num edge types: 1
# Building blocks:
#     Node 0, Type 0, BuildingBlock: TATPOV_clean_sbu_0, # of connection points: 4
#     Node 1, Type 0, BuildingBlock: TATPOV_clean_sbu_0, # of connection points: 4
#     Node 2, Type 0, BuildingBlock: TATPOV_clean_sbu_0, # of connection points: 4
#     Node 3, Type 0, BuildingBlock: TATPOV_clean_sbu_0, # of connection points: 4
#     Node 4, Type 0, BuildingBlock: TATPOV_clean_sbu_0, # of connection points: 4
#     Node 5, Type 0, BuildingBlock: TATPOV_clean_sbu_0, # of connection points: 4
#     Node 6, Type 0, BuildingBlock: TATPOV_clean_sbu_0, # of connection points: 4
#     Node 7, Type 0, BuildingBlock: TATPOV_clean_sbu_0, # of connection points: 4
#     Node 8, Type 0, BuildingBlock: TATPOV_clean_sbu_0, # of connection points: 4
#     Node 9, Type 0, BuildingBlock: TATPOV_clean_sbu_0, # of connection points: 4
#     Node 10, Type 0, BuildingBlock: TATPOV_clean_sbu_0, # of connection points: 4
#     Node 11, Type 0, BuildingBlock: TATPOV_clean_sbu_0, # of connection points: 4
#     Edge 12, Type (0, 0), BuildingBlock: ZUJKAS_clean_linker_0, # of connection points: 2
#     Edge 13, Type (0, 0), BuildingBlock: ZUJKAS_clean_linker_0, # of connection points: 2
#     Edge 14, Type (0, 0), BuildingBlock: ZUJKAS_clean_linker_0, # of connection points: 2
#     Edge 15, Type (0, 0), BuildingBlock: ZUJKAS_clean_linker_0, # of connection points: 2
#     Edge 16, Type (0, 0), BuildingBlock: ZUJKAS_clean_linker_0, # of connection points: 2
#     Edge 17, Type (0, 0), BuildingBlock: ZUJKAS_clean_linker_0, # of connection points: 2
#     Edge 18, Type (0, 0), BuildingBlock: ZUJKAS_clean_linker_0, # of connection points: 2
#     Edge 19, Type (0, 0), BuildingBlock: ZUJKAS_clean_linker_0, # of connection points: 2
#     Edge 20, Type (0, 0), BuildingBlock: ZUJKAS_clean_linker_0, # of connection points: 2
#     Edge 21, Type (0, 0), BuildingBlock: ZUJKAS_clean_linker_0, # of connection points: 2
#     Edge 22, Type (0, 0), BuildingBlock: ZUJKAS_clean_linker_0, # of connection points: 2
#     Edge 23, Type (0, 0), BuildingBlock: ZUJKAS_clean_linker_0, # of connection points: 2
#     Edge 24, Type (0, 0), BuildingBlock: ZUJKAS_clean_linker_0, # of connection points: 2
#     Edge 25, Type (0, 0), BuildingBlock: ZUJKAS_clean_linker_0, # of connection points: 2
#     Edge 26, Type (0, 0), BuildingBlock: ZUJKAS_clean_linker_0, # of connection points: 2
#     Edge 27, Type (0, 0), BuildingBlock: ZUJKAS_clean_linker_0, # of connection points: 2
#     Edge 28, Type (0, 0), BuildingBlock: ZUJKAS_clean_linker_0, # of connection points: 2
#     Edge 29, Type (0, 0), BuildingBlock: ZUJKAS_clean_linker_0, # of connection points: 2
#     Edge 30, Type (0, 0), BuildingBlock: ZUJKAS_clean_linker_0, # of connection points: 2
#     Edge 31, Type (0, 0), BuildingBlock: ZUJKAS_clean_linker_0, # of connection points: 2
#     Edge 32, Type (0, 0), BuildingBlock: ZUJKAS_clean_linker_0, # of connection points: 2
#     Edge 33, Type (0, 0), BuildingBlock: ZUJKAS_clean_linker_0, # of connection points: 2
#     Edge 34, Type (0, 0), BuildingBlock: ZUJKAS_clean_linker_0, # of connection points: 2
#     Edge 35, Type (0, 0), BuildingBlock: ZUJKAS_clean_linker_0, # of connection points: 2
# Relax obj value: 0.133
# Max RMSD: 0.163
# Mean RMSD: 0.163
data_MOF--net-una--node1-TATPOV_clean_sbu_0--edge1-ZUJKAS_clean_linker_0
_symmetry_space_group_name_H-M    P1
_symmetry_Int_Tables_number       1
_symmetry_cell_setting            triclinic
loop_
_symmetry_equiv_pos_as_xyz
'x, y, z'
_cell_length_a     75.613846
_cell_length_b     75.625506
_cell_length_c     26.11986
_cell_angle_alpha  90.01283
_cell_angle_beta   90.009391
_cell_angle_gamma 120.00534
loop_
_atom_site_label
_atom_site_type_symbol
_atom_site_fract_x
_atom_site_fract_y
_atom_site_fract_z
_atom_type_partial_charge
Zn0 Zn 0.16182 0.46348 0.1123 0.0
Zn1 Zn 0.12809 0.43596 0.06464 0.0
O2 O 0.1497 0.44459 0.00822 0.0
O3 O 0.17778 0.46749 0.04687 0.0
O4 O 0.10183 0.41698 0.02802 0.0
O5 O 0.15018 0.48143 0.12855 0.0
O6 O 0.12212 0.45859 0.09001 0.0
C7 C 0.16885 0.45716 0.00732 0.0
C8 C 0.14493 0.42308 0.15477 0.0
O9 O 0.13207 0.41813 0.11835 0.0
O10 O 0.15841 0.44159 0.16169 0.0
C11 C 0.0971 0.39954 0.01009 0.0
O12 O 0.10976 0.39255 0.01616 0.0
C13 C 0.1321 0.47547 0.11403 0.0
Zn14 Zn 0.70046 0.16202 0.28254 0.0
Zn15 Zn 0.69354 0.12698 0.24121 0.0
O16 O 0.70803 0.14746 0.18288 0.0
O17 O 0.71347 0.1765 0.21621 0.0
O18 O 0.68573 0.09977 0.2092 0.0
O19 O 0.67083 0.1516 0.29581 0.0
O20 O 0.66499 0.12259 0.26169 0.0
C21 C 0.71509 0.16664 0.17904 0.0
C22 C 0.72181 0.14444 0.33395 0.0
O23 O 0.71388 0.13083 0.29916 0.0
O24 O 0.71776 0.15878 0.33597 0.0
C25 C 0.69781 0.09602 0.18372 0.0
O26 O 0.717 0.11038 0.17859 0.0
C27 C 0.65839 0.13345 0.28247 0.0
Zn28 Zn 0.53697 0.7 0.44044 0.0
Zn29 Zn 0.56489 0.69318 0.39634 0.0
O30 O 0.55659 0.7061 0.33857 0.0
O31 O 0.53174 0.70936 0.37271 0.0
O32 O 0.58361 0.68528 0.36048 0.0
O33 O 0.51987 0.67076 0.46213 0.0
O34 O 0.54194 0.66491 0.42176 0.0
C35 C 0.54305 0.71139 0.33482 0.0
C36 C 0.57766 0.72458 0.4821 0.0
O37 O 0.58254 0.71482 0.45072 0.0
O38 O 0.55943 0.72097 0.48478 0.0
C39 C 0.603 0.69552 0.35838 0.0
O40 O 0.61281 0.71331 0.38149 0.0
C41 C 0.52542 0.65837 0.44714 0.0
Zn42 Zn 0.83971 0.5376 0.61476 0.0
Zn43 Zn 0.87448 0.56598 0.57457 0.0
O44 O 0.85409 0.55972 0.51557 0.0
O45 O 0.82518 0.53568 0.54844 0.0
O46 O 0.9017 0.58575 0.54321 0.0
O47 O 0.85032 0.51868 0.62879 0.0
O48 O 0.87935 0.54212 0.59545 0.0
C49 C 0.83497 0.54727 0.51141 0.0
C50 C 0.85631 0.5763 0.66659 0.0
O51 O 0.87017 0.58225 0.6324 0.0
O52 O 0.84216 0.55782 0.66799 0.0
C53 C 0.90531 0.60163 0.51818 0.0
O54 O 0.89079 0.60622 0.513 0.0
C55 C 0.86857 0.52461 0.61607 0.0
Zn56 Zn 0.29889 0.8394 0.77866 0.0
Zn57 Zn 0.30603 0.8741 0.73329 0.0
O58 O 0.29463 0.85316 0.6743 0.0
O59 O 0.28947 0.82476 0.711 0.0
O60 O 0.31349 0.90116 0.70033 0.0
O61 O 0.3282 0.85178 0.80048 0.0
O62 O 0.33414 0.8799 0.761 0.0
C63 C 0.28868 0.83415 0.67171 0.0
C64 C 0.27387 0.85501 0.81813 0.0
O65 O 0.28346 0.86927 0.78571 0.0
O66 O 0.27788 0.84073 0.82288 0.0
C67 C 0.30558 0.90317 0.65932 0.0
O68 O 0.29107 0.88686 0.63657 0.0
C69 C 0.34059 0.86987 0.78653 0.0
Zn70 Zn 0.46109 0.2988 0.94626 0.0
Zn71 Zn 0.43431 0.30627 0.90059 0.0
O72 O 0.44125 0.29198 0.8434 0.0
O73 O 0.4626 0.28462 0.88224 0.0
O74 O 0.41563 0.31445 0.86607 0.0
O75 O 0.48092 0.32839 0.95806 0.0
O76 O 0.4582 0.33466 0.92299 0.0
C77 C 0.45252 0.28387 0.84275 0.0
C78 C 0.42174 0.2783 0.99448 0.0
O79 O 0.41669 0.28584 0.95739 0.0
O80 O 0.44009 0.28252 -0.00044 0.0
C81 C 0.39816 0.30219 0.84744 0.0
O82 O 0.391 0.28242 0.85088 0.0
C83 C 0.47552 0.34104 0.94438 0.0
Zn84 Zn 0.53487 0.84088 0.81136 0.0
Zn85 Zn 0.56272 0.87456 0.85907 0.0
O86 O 0.55443 0.85276 0.9148 0.0
O87 O 0.5313 0.82476 0.8763 0.0
O88 O 0.58196 0.90066 0.89625 0.0
O89 O 0.51686 0.8526 0.7971 0.0
O90 O 0.53981 0.8805 0.836 0.0
C91 C 0.54187 0.83361 0.91561 0.0
C92 C 0.57491 0.85786 0.76695 0.0
O93 O 0.58006 0.87062 0.80367 0.0
O94 O 0.55637 0.84437 0.76057 0.0
C95 C 0.60121 0.90855 0.90033 0.0
O96 O 0.61027 0.89954 0.87846 0.0
C97 C 0.52279 0.87056 0.81252 0.0
Zn98 Zn 0.70027 0.53767 0.98247 0.0
Zn99 Zn 0.69355 0.56577 0.0231 0.0
O100 O 0.70772 0.55944 0.08188 0.0
O101 O 0.71285 0.53562 0.04867 0.0
O102 O 0.68579 0.58517 0.05536 0.0
O103 O 0.67081 0.51861 0.96798 0.0
O104 O 0.66494 0.54184 0.00151 0.0
C105 C 0.71451 0.5471 0.08588 0.0
C106 C 0.72217 0.57656 0.93135 0.0
O107 O 0.71417 0.58237 0.96565 0.0
O108 O 0.71797 0.55813 0.92968 0.0
C109 C 0.69785 0.60084 0.08138 0.0
O110 O 0.717 0.60555 0.08677 0.0
C111 C 0.65836 0.52439 0.9806 0.0
Zn112 Zn 0.1602 0.69847 0.14195 0.0
Zn113 Zn 0.12753 0.69217 0.19473 0.0
O114 O 0.15026 0.70572 0.24846 0.0
O115 O 0.17768 0.71235 0.20424 0.0
O116 O 0.10192 0.68514 0.23459 0.0
O117 O 0.14895 0.66865 0.12936 0.0
O118 O 0.12136 0.66341 0.17038 0.0
C119 C 0.16956 0.71337 0.24573 0.0
C120 C 0.14187 0.72058 0.1011 0.0
O121 O 0.13033 0.71336 0.1402 0.0
O122 O 0.15506 0.71541 0.09144 0.0
C123 C 0.09357 0.69609 0.23833 0.0
O124 O 0.1018 0.7138 0.21479 0.0
C125 C 0.1312 0.65648 0.14584 0.0
Zn126 Zn 0.46286 0.16385 0.30045 0.0
Zn127 Zn 0.43515 0.12913 0.34416 0.0
O128 O 0.44235 0.14991 0.40255 0.0
O129 O 0.46443 0.17888 0.36591 0.0
O130 O 0.41552 0.10188 0.37602 0.0
O131 O 0.48204 0.15325 0.28795 0.0
O132 O 0.45883 0.12429 0.32219 0.0
C133 C 0.454 0.16922 0.40468 0.0
C134 C 0.42371 0.14616 0.2512 0.0
O135 O 0.41832 0.13309 0.28725 0.0
O136 O 0.44217 0.16019 0.24716 0.0
C137 C 0.4036 0.09943 0.41309 0.0
O138 O 0.40317 0.11534 0.43178 0.0
C139 C 0.47626 0.13507 0.30118 0.0
Zn140 Zn 0.30227 0.46349 0.48239 0.0
Zn141 Zn 0.30928 0.43554 0.52405 0.0
O142 O 0.29648 0.4436 0.58282 0.0
O143 O 0.29384 0.4691 0.55079 0.0
O144 O 0.31711 0.41661 0.55878 0.0
O145 O 0.33122 0.4804 0.45829 0.0
O146 O 0.33747 0.45856 0.49833 0.0
C147 C 0.2916 0.45739 0.5879 0.0
C148 C 0.27712 0.42289 0.44067 0.0
O149 O 0.28752 0.41798 0.46976 0.0
O150 O 0.2805 0.44105 0.43969 0.0
C151 C 0.30495 0.39801 0.56998 0.0
O152 O 0.28557 0.38967 0.55758 0.0
C153 C 0.34378 0.47499 0.4727 0.0
Zn154 Zn 0.83933 0.29937 0.64603 0.0
Zn155 Zn 0.87421 0.30622 0.68786 0.0
O156 O 0.8535 0.29176 0.74584 0.0
O157 O 0.82454 0.28631 0.71191 0.0
O158 O 0.90124 0.3142 0.72124 0.0
O159 O 0.84971 0.32896 0.63287 0.0
O160 O 0.87877 0.33476 0.66659 0.0
C161 C 0.8343 0.28471 0.74934 0.0
C162 C 0.85707 0.27802 0.59514 0.0
O163 O 0.87058 0.28586 0.63019 0.0
O164 O 0.84279 0.28215 0.59279 0.0
C165 C 0.90822 0.30241 0.73152 0.0
O166 O 0.89749 0.283 0.7192 0.0
C167 C 0.86791 0.34139 0.64587 0.0
H168 H 0.15412 0.42461 0.25531 0.0
H169 H 0.16819 0.40548 0.29704 0.0
H170 H 0.15585 0.36837 0.16185 0.0
H171 H 0.1413 0.38736 0.12 0.0
H172 H 0.15613 0.35976 0.31036 0.0
H173 H 0.22068 0.4074 0.17807 0.0
H174 H 0.20128 0.41409 0.19038 0.0
H175 H 0.19516 0.3917 0.15369 0.0
C176 C 0.15356 0.41179 0.23532 0.0
C177 C 0.14673 0.40749 0.18447 0.0
C178 C 0.16159 0.40085 0.25916 0.0
C179 C 0.16322 0.38567 0.2323 0.0
C180 C 0.15467 0.38002 0.18317 0.0
H181 H 0.2744 0.39794 0.36069 0.0
H182 H 0.24416 0.37835 0.30582 0.0
C183 C 0.14627 0.3908 0.15946 0.0
C184 C 0.17729 0.3791 0.25263 0.0
H185 H 0.22849 0.39674 0.25441 0.0
C186 C 0.17183 0.3672 0.29721 0.0
C187 C 0.19768 0.38848 0.23491 0.0
C188 C 0.20422 0.40116 0.18664 0.0
C189 C 0.18671 0.36621 0.32733 0.0
C190 C 0.20755 0.37806 0.3134 0.0
C191 C 0.21258 0.38782 0.26556 0.0
C192 C 0.22418 0.38477 0.3519 0.0
C193 C 0.18007 0.35353 0.37547 0.0
C194 C 0.22293 0.39446 0.39647 0.0
C195 C 0.24003 0.40557 0.42719 0.0
C196 C 0.25879 0.40727 0.41418 0.0
C197 C 0.25995 0.39656 0.37166 0.0
C198 C 0.24272 0.38543 0.34042 0.0
H199 H 0.16547 0.3391 0.3689 0.0
H200 H 0.19174 0.34978 0.38891 0.0
H201 H 0.17729 0.36204 0.40606 0.0
H202 H 0.20917 0.39488 0.40551 0.0
H203 H 0.2389 0.4139 0.45963 0.0
H204 H 0.86821 0.24931 0.61515 0.0
H205 H 0.85643 0.21724 0.56785 0.0
H206 H 0.83022 0.23816 0.45255 0.0
H207 H 0.84212 0.2699 0.4988 0.0
H208 H 0.81758 0.19123 0.55889 0.0
H209 H 0.84683 0.20669 0.36322 0.0
H210 H 0.8595 0.225 0.41403 0.0
H211 H 0.83929 0.22513 0.37731 0.0
C212 C 0.86078 0.24737 0.57846 0.0
C213 C 0.85593 0.26199 0.56072 0.0
C214 C 0.85397 0.22901 0.55158 0.0
C215 C 0.84256 0.22525 0.50627 0.0
C216 C 0.83942 0.24075 0.48651 0.0
H217 H 0.73051 0.16028 0.42945 0.0
H218 H 0.76212 0.17161 0.47591 0.0
C219 C 0.84607 0.2589 0.51333 0.0
C220 C 0.83022 0.20428 0.48507 0.0
H221 H 0.80884 0.18221 0.3709 0.0
C222 C 0.81618 0.18891 0.51778 0.0
C223 C 0.82866 0.2006 0.4317 0.0
C224 C 0.84461 0.21523 0.39482 0.0
C225 C 0.7989 0.17164 0.49812 0.0
C226 C 0.79536 0.17007 0.44469 0.0
C227 C 0.81107 0.18365 0.41203 0.0
C228 C 0.77438 0.15827 0.42324 0.0
C229 C 0.78382 0.15609 0.53504 0.0
C230 C 0.77031 0.14654 0.3784 0.0
C231 C 0.75203 0.14006 0.35139 0.0
C232 C 0.7378 0.14556 0.3685 0.0
C233 C 0.7412 0.15583 0.41538 0.0
C234 C 0.75928 0.16214 0.44234 0.0
H235 H 0.79199 0.15359 0.56708 0.0
H236 H 0.77428 0.16195 0.55191 0.0
H237 H 0.77371 0.14124 0.51601 0.0
H238 H 0.78179 0.14352 0.36264 0.0
H239 H 0.74986 0.1323 0.31509 0.0
H240 H 0.59012 0.76319 0.45682 0.0
H241 H 0.60759 0.79294 0.5117 0.0
H242 H 0.61721 0.7568 0.62442 0.0
H243 H 0.59882 0.72653 0.56925 0.0
H244 H 0.5984 0.77296 0.6658 0.0
H245 H 0.66086 0.83591 0.56182 0.0
H246 H 0.63939 0.82509 0.51953 0.0
H247 H 0.65024 0.80978 0.54077 0.0
C248 C 0.59674 0.76182 0.49238 0.0
C249 C 0.59334 0.74275 0.50885 0.0
C250 C 0.60695 0.77893 0.52369 0.0
C251 C 0.61413 0.77737 0.57214 0.0
C252 C 0.61204 0.7585 0.58702 0.0
H253 H 0.61068 0.86133 0.80055 0.0
H254 H 0.62906 0.84621 0.75835 0.0
C255 C 0.60163 0.74124 0.55555 0.0
C256 C 0.6194 0.794 0.61003 0.0
H257 H 0.63894 0.84566 0.61405 0.0
C258 C 0.60802 0.78889 0.65558 0.0
C259 C 0.63207 0.8149 0.5974 0.0
C260 C 0.64647 0.82164 0.55241 0.0
C261 C 0.60697 0.80383 0.68508 0.0
C262 C 0.61752 0.82437 0.66851 0.0
C263 C 0.63063 0.82983 0.62623 0.0
C264 C 0.61155 0.83896 0.68829 0.0
C265 C 0.59296 0.79731 0.73095 0.0
C266 C 0.59643 0.84079 0.66173 0.0
C267 C 0.58579 0.84911 0.68584 0.0
C268 C 0.59034 0.85602 0.73661 0.0
C269 C 0.60705 0.85632 0.76115 0.0
C270 C 0.6175 0.84763 0.73722 0.0
H271 H 0.58615 0.78077 0.73941 0.0
H272 H 0.60154 0.80612 0.76518 0.0
H273 H 0.5804 0.80061 0.7241 0.0
H274 H 0.59157 0.83409 0.62404 0.0
H275 H 0.57294 0.84866 0.66622 0.0
H276 H 0.83755 0.56792 0.75864 0.0
H277 H 0.82598 0.58825 0.80391 0.0
H278 H 0.85959 0.63825 0.69921 0.0
H279 H 0.8708 0.61739 0.65215 0.0
H280 H 0.8408 0.62478 0.85179 0.0
H281 H 0.80179 0.6248 0.67042 0.0
H282 H 0.8145 0.61011 0.67549 0.0
H283 H 0.8292 0.63749 0.67219 0.0
C284 C 0.84291 0.58341 0.74582 0.0
C285 C 0.85471 0.5909 0.70121 0.0
C286 C 0.83635 0.59511 0.77195 0.0
C287 C 0.84145 0.61462 0.75425 0.0
C288 C 0.85504 0.62305 0.71283 0.0
H289 H 0.749 0.61754 0.94695 0.0
H290 H 0.78115 0.63838 0.90019 0.0
C291 C 0.86162 0.61121 0.68633 0.0
C292 C 0.82986 0.62407 0.77547 0.0
H293 H 0.78655 0.62549 0.74698 0.0
C294 C 0.82932 0.62573 0.82892 0.0
C295 C 0.81515 0.62571 0.74539 0.0
C296 C 0.81502 0.62443 0.6877 0.0
C297 C 0.81267 0.62549 0.8534 0.0
C298 C 0.79649 0.62424 0.82328 0.0
C299 C 0.79883 0.62612 0.76988 0.0
C300 C 0.77543 0.61496 0.84424 0.0
C301 C 0.81138 0.62395 0.91105 0.0
C302 C 0.76085 0.59563 0.82589 0.0
C303 C 0.74255 0.58394 0.85185 0.0
C304 C 0.73836 0.59128 0.8969 0.0
C305 C 0.7519 0.61147 0.91241 0.0
C306 C 0.77037 0.6233 0.88608 0.0
H307 H 0.82484 0.62401 0.92832 0.0
H308 H 0.81048 0.63707 0.92698 0.0
H309 H 0.79743 0.60969 0.92284 0.0
H310 H 0.76427 0.58883 0.79358 0.0
H311 H 0.73229 0.56854 0.83857 0.0
H312 H 0.2354 0.82803 0.79338 0.0
H313 H 0.20547 0.81624 0.84738 0.0
H314 H 0.241 0.86371 0.95703 0.0
H315 H 0.27144 0.87515 0.90277 0.0
H316 H 0.22499 0.82915 0.00127 0.0
H317 H 0.16209 0.82692 0.89276 0.0
H318 H 0.17326 0.81601 0.85248 0.0
H319 H 0.18829 0.8424 0.87216 0.0
C320 C 0.23659 0.83647 0.828 0.0
C321 C 0.25554 0.85253 0.84395 0.0
C322 C 0.21938 0.82986 0.85877 0.0
C323 C 0.22072 0.83925 0.90615 0.0
C324 C 0.23948 0.85635 0.92041 0.0
H325 H 0.13875 0.75276 0.13735 0.0
H326 H 0.15306 0.78621 0.09535 0.0
C327 C 0.25683 0.86294 0.88946 0.0
C328 C 0.20402 0.82831 0.94408 0.0
H329 H 0.15243 0.79591 0.94756 0.0
C330 C 0.20907 0.8226 0.99059 0.0
C331 C 0.18316 0.81981 0.9308 0.0
C332 C 0.17648 0.82686 0.8845 0.0
C333 C 0.19412 0.80681 0.02053 0.0
C334 C 0.17361 0.79649 0.0035 0.0
C335 C 0.16821 0.80368 0.96017 0.0
C336 C 0.15913 0.77595 0.02365 0.0
C337 C 0.20067 0.79982 0.06734 0.0
C338 C 0.15672 0.75896 0.99612 0.0
C339 C 0.14882 0.74002 0.02004 0.0
C340 C 0.14292 0.73771 0.07167 0.0
C341 C 0.14302 0.75411 0.09735 0.0
C342 C 0.15127 0.77323 0.07352 0.0
H343 H 0.21731 0.80933 0.07495 0.0
H344 H 0.19227 0.80051 0.1014 0.0
H345 H 0.19688 0.78371 0.06243 0.0
H346 H 0.16276 0.76078 0.95765 0.0
H347 H 0.1489 0.72761 -0.00053 0.0
H348 H 0.38352 0.13367 0.2718 0.0
H349 H 0.36214 0.14423 0.225 0.0
H350 H 0.40913 0.17251 0.10995 0.0
H351 H 0.43002 0.16175 0.1555 0.0
H352 H 0.37249 0.18229 0.21622 0.0
H353 H 0.361 0.15386 0.02016 0.0
H354 H 0.36751 0.14183 0.07079 0.0
H355 H 0.38725 0.16272 0.03437 0.0
C356 C 0.38881 0.14135 0.23531 0.0
C357 C 0.4085 0.14705 0.21742 0.0
C358 C 0.37662 0.14745 0.2087 0.0
C359 C 0.38385 0.15902 0.16353 0.0
C360 C 0.40281 0.16314 0.14376 0.0
H361 H 0.42703 0.2702 0.0922 0.0
H362 H 0.40654 0.23842 0.13748 0.0
C363 C 0.41494 0.15717 0.17025 0.0
C364 C 0.37423 0.17045 0.14229 0.0
H365 H 0.37309 0.19165 0.02833 0.0
C366 C 0.37176 0.1838 0.17509 0.0
C367 C 0.37223 0.17204 0.08889 0.0
C368 C 0.3719 0.1566 0.0518 0.0
C369 C 0.37091 0.20065 0.15559 0.0
C370 C 0.37324 0.20452 0.10231 0.0
C371 C 0.37208 0.18925 0.06941 0.0
C372 C 0.38204 0.22558 0.08157 0.0
C373 C 0.36914 0.21497 0.19262 0.0
C374 C 0.37504 0.22946 0.03532 0.0
C375 C 0.38702 0.24783 0.00887 0.0
C376 C 0.40625 0.26238 0.02809 0.0
C377 C 0.41228 0.25925 0.07646 0.0
C378 C 0.40037 0.24106 0.10277 0.0
H379 H 0.35798 0.20616 0.22325 0.0
H380 H 0.38412 0.2247 0.21145 0.0
H381 H 0.36426 0.22491 0.17327 0.0
H382 H 0.36104 0.21773 0.01797 0.0
H383 H 0.38207 0.24981 0.97145 0.0
H384 H 0.14868 0.51059 0.16963 0.0
H385 H 0.13665 0.53481 0.17708 0.0
H386 H 0.08361 0.49547 0.08642 0.0
H387 H 0.09587 0.47104 0.07777 0.0
H388 H 0.10224 0.5338 0.05114 0.0
H389 H 0.09299 0.53696 0.25916 0.0
H390 H 0.11762 0.54001 0.24617 0.0
H391 H 0.09492 0.51645 0.22927 0.0
C392 C 0.13428 0.50683 0.15183 0.0
C393 C 0.12328 0.48886 0.12293 0.0
C394 C 0.12728 0.52066 0.15665 0.0
C395 C 0.109 0.51681 0.13323 0.0
C396 C 0.09765 0.49864 0.10531 0.0
H397 H 0.09574 0.62474 0.1857 0.0
H398 H 0.08378 0.58806 0.17862 0.0
C399 C 0.10467 0.48471 0.10042 0.0
C400 C 0.10334 0.533 0.13354 0.0
H401 H 0.10326 0.5689 0.2125 0.0
C402 C 0.10187 0.54114 0.08649 0.0
C403 C 0.10228 0.54234 0.17952 0.0
C404 C 0.1018 0.53329 0.23131 0.0
C405 C 0.10151 0.5595 0.0842 0.0
C406 C 0.10316 0.5702 0.13005 0.0
C407 C 0.10245 0.56097 0.17721 0.0
C408 C 0.10863 0.592 0.12983 0.0
C409 C 0.1002 0.56765 0.03249 0.0
C410 C 0.12653 0.60636 0.10485 0.0
C411 C 0.13336 0.62717 0.10879 0.0
C412 C 0.12258 0.63421 0.13833 0.0
C413 C 0.10437 0.61982 0.16252 0.0
C414 C 0.09751 0.59887 0.15853 0.0
H415 H 0.0911 0.55495 0.00541 0.0
H416 H 0.09321 0.5775 0.03515 0.0
H417 H 0.11579 0.57677 0.01629 0.0
H418 H 0.13572 0.60154 0.08376 0.0
H419 H 0.14745 0.63777 0.0897 0.0
H420 H 0.64031 0.15124 0.33502 0.0
H421 H 0.60423 0.1405 0.33925 0.0
H422 H 0.58972 0.08707 0.24938 0.0
H423 H 0.62621 0.09795 0.24427 0.0
H424 H 0.57197 0.10799 0.21154 0.0
H425 H 0.55665 0.09675 0.41865 0.0
H426 H 0.57901 0.12097 0.40692 0.0
H427 H 0.57889 0.0978 0.38996 0.0
C428 C 0.6295 0.13703 0.31669 0.0
C429 C 0.63619 0.12549 0.28916 0.0
C430 C 0.60879 0.13079 0.31963 0.0
C431 C 0.59421 0.11278 0.29547 0.0
C432 C 0.60072 0.10092 0.26879 0.0
H433 H 0.47218 0.09897 0.33695 0.0
H434 H 0.4974 0.08762 0.33112 0.0
C435 C 0.62155 0.10714 0.26594 0.0
C436 C 0.5726 0.10786 0.29403 0.0
H437 H 0.53578 0.10737 0.37051 0.0
C438 C 0.5638 0.10729 0.2463 0.0
C439 C 0.56166 0.10648 0.33924 0.0
C440 C 0.56948 0.1053 0.39152 0.0
C441 C 0.5453 0.10734 0.24273 0.0
C442 C 0.5356 0.10837 0.28805 0.0
C443 C 0.54338 0.10695 0.3357 0.0
C444 C 0.51919 0.11371 0.28705 0.0
C445 C 0.53674 0.10706 0.19039 0.0
C446 C 0.52307 0.13211 0.2643 0.0
C447 C 0.50882 0.13861 0.26761 0.0
C448 C 0.49035 0.12696 0.29417 0.0
C449 C 0.48623 0.10827 0.31606 0.0
C450 C 0.50061 0.10177 0.31279 0.0
H451 H 0.54096 0.09867 0.16253 0.0
H452 H 0.51984 0.09986 0.19132 0.0
H453 H 0.54329 0.12296 0.17634 0.0
H454 H 0.53751 0.14187 0.24546 0.0
H455 H 0.51255 0.1531 0.25035 0.0
H456 H 0.36147 0.50982 0.41573 0.0
H457 H 0.39751 0.53515 0.40979 0.0
H458 H 0.41258 0.49728 0.50232 0.0
H459 H 0.37618 0.47181 0.50947 0.0
H460 H 0.43024 0.53538 0.53866 0.0
H461 H 0.4453 0.53989 0.33154 0.0
H462 H 0.42307 0.54199 0.34315 0.0
H463 H 0.4229 0.51877 0.35989 0.0
C464 C 0.37241 0.50662 0.43412 0.0
C465 C 0.36589 0.48878 0.46327 0.0
C466 C 0.3931 0.52109 0.43023 0.0
C467 C 0.40784 0.51801 0.45485 0.0
C468 C 0.40149 0.4999 0.48261 0.0
H469 H 0.52926 0.62636 0.41024 0.0
H470 H 0.50417 0.58983 0.41682 0.0
C471 C 0.38068 0.48534 0.48659 0.0
C472 C 0.42941 0.53486 0.45613 0.0
H473 H 0.46605 0.57144 0.37985 0.0
C474 C 0.43831 0.54297 0.50389 0.0
C475 C 0.44025 0.54456 0.41094 0.0
C476 C 0.43244 0.53567 0.35856 0.0
C477 C 0.45684 0.56148 0.50757 0.0
C478 C 0.46644 0.57238 0.46236 0.0
C479 C 0.45852 0.56332 0.41462 0.0
C480 C 0.48297 0.59408 0.46361 0.0
C481 C 0.46556 0.56949 0.55997 0.0
C482 C 0.47947 0.60859 0.48795 0.0
C483 C 0.49371 0.62936 0.48439 0.0
C484 C 0.51174 0.63619 0.45585 0.0
C485 C 0.51556 0.62162 0.43266 0.0
C486 C 0.50123 0.60074 0.43631 0.0
H487 H 0.46154 0.55674 0.58718 0.0
H488 H 0.48244 0.5793 0.55878 0.0
H489 H 0.45893 0.57864 0.57506 0.0
H490 H 0.46527 0.60393 0.50802 0.0
H491 H 0.4902 0.64011 0.50263 0.0
H492 H 0.9053 0.52916 0.58318 0.0
H493 H 0.91658 0.50386 0.58921 0.0
H494 H 0.86121 0.46297 0.67001 0.0
H495 H 0.8501 0.488 0.66515 0.0
H496 H 0.89557 0.46393 0.71111 0.0
H497 H 0.89094 0.45241 0.49963 0.0
H498 H 0.90763 0.47776 0.5234 0.0
H499 H 0.88051 0.46645 0.53084 0.0
C500 C 0.89567 0.51486 0.60274 0.0
C501 C 0.87669 0.51053 0.62318 0.0
C502 C 0.90209 0.5004 0.60592 0.0
C503 C 0.88959 0.48142 0.62945 0.0
C504 C 0.8711 0.4775 0.65166 0.0
H505 H 0.84885 0.35949 0.59935 0.0
H506 H 0.86013 0.39567 0.59404 0.0
C507 C 0.86472 0.49184 0.64859 0.0
C508 C 0.89467 0.46484 0.62888 0.0
H509 H 0.89403 0.42856 0.54991 0.0
C510 C 0.89575 0.45642 0.67588 0.0
C511 C 0.89484 0.4551 0.58278 0.0
C512 C 0.89332 0.46323 0.53118 0.0
C513 C 0.89541 0.4377 0.67821 0.0
C514 C 0.89435 0.42735 0.63216 0.0
C515 C 0.89488 0.43657 0.58509 0.0
C516 C 0.88903 0.40562 0.63207 0.0
C517 C 0.89452 0.42838 0.72992 0.0
C518 C 0.90173 0.39913 0.65438 0.0
C519 C 0.89522 0.37824 0.65784 0.0
C520 C 0.87595 0.36358 0.63884 0.0
C521 C 0.86372 0.37029 0.61474 0.0
C522 C 0.87019 0.39103 0.61143 0.0
H523 H 0.89272 0.43714 0.76164 0.0
H524 H 0.8816 0.41242 0.73143 0.0
H525 H 0.90885 0.42804 0.73644 0.0
H526 H 0.91648 0.41017 0.66985 0.0
H527 H 0.90506 0.37359 0.67634 0.0
H528 H 0.35866 0.85271 0.84204 0.0
H529 H 0.39485 0.86433 0.84956 0.0
H530 H 0.40925 0.91818 0.76169 0.0
H531 H 0.37269 0.90634 0.7529 0.0
H532 H 0.42834 0.89951 0.72425 0.0
H533 H 0.44122 0.90685 0.93234 0.0
H534 H 0.41955 0.8824 0.91831 0.0
H535 H 0.41877 0.9053 0.90357 0.0
C536 C 0.36946 0.86723 0.82501 0.0
C537 C 0.36272 0.87855 0.79668 0.0
C538 C 0.39024 0.87397 0.82983 0.0
C539 C 0.40485 0.89234 0.80704 0.0
C540 C 0.39825 0.90406 0.78004 0.0
H541 H 0.5265 0.90581 0.85375 0.0
H542 H 0.50152 0.9175 0.84869 0.0
C543 C 0.37736 0.89728 0.7751 0.0
C544 C 0.42663 0.8977 0.80665 0.0
H545 H 0.46286 0.89719 0.88351 0.0
C546 C 0.43613 0.89957 0.75919 0.0
C547 C 0.43712 0.89834 0.8521 0.0
C548 C 0.42868 0.89835 0.9044 0.0
C549 C 0.45487 0.90002 0.75585 0.0
C550 C 0.46409 0.89807 0.80103 0.0
C551 C 0.45562 0.89827 0.84871 0.0
C552 C 0.48058 0.89285 0.79941 0.0
C553 C 0.46421 0.90179 0.70373 0.0
C554 C 0.47715 0.87519 0.77336 0.0
C555 C 0.49128 0.86852 0.77614 0.0
C556 C 0.50916 0.87923 0.80555 0.0
C557 C 0.51292 0.89726 0.83062 0.0
C558 C 0.49866 0.90394 0.82782 0.0
H559 H 0.4604 0.91098 0.6775 0.0
H560 H 0.48107 0.90893 0.70597 0.0
H561 H 0.45784 0.88634 0.68676 0.0
H562 H 0.46309 0.86603 0.75239 0.0
H563 H 0.48784 0.85456 0.75637 0.0
H564 H 0.47102 0.37353 0.91442 0.0
H565 H 0.49637 0.41002 0.92192 0.0
H566 H 0.53779 0.39483 0.99724 0.0
H567 H 0.5127 0.35872 0.99092 0.0
H568 H 0.53674 0.42754 0.04263 0.0
H569 H 0.54744 0.43736 0.83131 0.0
H570 H 0.52212 0.42817 0.85597 0.0
H571 H 0.53366 0.41247 0.86058 0.0
C572 C 0.48547 0.37801 0.93298 0.0
C573 C 0.48989 0.36318 0.95163 0.0
C574 C 0.49995 0.39885 0.93702 0.0
C575 C 0.51906 0.40512 0.95956 0.0
C576 C 0.52315 0.39036 0.97971 0.0
H577 H 0.64058 0.48802 0.9304 0.0
H578 H 0.6045 0.46287 0.92443 0.0
C579 C 0.50877 0.36966 0.97583 0.0
C580 C 0.53552 0.42683 0.96034 0.0
H581 H 0.57114 0.4639 0.88294 0.0
C582 C 0.54404 0.43577 0.00779 0.0
C583 C 0.54498 0.43745 0.91473 0.0
C584 C 0.53674 0.42843 0.86264 0.0
C585 C 0.56258 0.45431 0.01088 0.0
C586 C 0.57264 0.46434 0.9652 0.0
C587 C 0.56333 0.45617 0.91784 0.0
C588 C 0.59427 0.481 0.96538 0.0
C589 C 0.57203 0.46216 0.06283 0.0
C590 C 0.60056 0.49983 0.98952 0.0
C591 C 0.62141 0.51437 0.99333 0.0
C592 C 0.6362 0.51024 0.97293 0.0
C593 C 0.62968 0.4917 0.94695 0.0
C594 C 0.60899 0.47729 0.94324 0.0
H595 H 0.56348 0.45113 0.09393 0.0
H596 H 0.58807 0.46543 0.06339 0.0
H597 H 0.57216 0.47661 0.07112 0.0
H598 H 0.58941 0.50312 0.00621 0.0
H599 H 0.62593 0.52855 0.01333 0.0
H600 H 0.27584 0.42969 0.66632 0.0
H601 H 0.25513 0.42988 0.73816 0.0
H602 H 0.26397 0.48813 0.68836 0.0
H603 H 0.28428 0.48789 0.61604 0.0
H604 H 0.26258 0.45626 0.81815 0.0
H605 H 0.20209 0.45304 0.69196 0.0
H606 H 0.22206 0.4487 0.6686 0.0
H607 H 0.22692 0.47431 0.67836 0.0
C608 C 0.27356 0.44264 0.67098 0.0
C609 C 0.28151 0.45866 0.63515 0.0
C610 C 0.26167 0.4427 0.71195 0.0
C611 C 0.25759 0.45877 0.71776 0.0
C612 C 0.26645 0.4753 0.68371 0.0
H613 H 0.20857 0.48566 0.98748 0.0
H614 H 0.22975 0.48602 0.91647 0.0
C615 C 0.27819 0.4752 0.64261 0.0
C616 C 0.24381 0.45814 0.75888 0.0
H617 H 0.20004 0.45966 0.78022 0.0
C618 C 0.24886 0.45692 0.80992 0.0
C619 C 0.22571 0.45861 0.74793 0.0
C620 C 0.21872 0.45852 0.69373 0.0
C621 C 0.23655 0.45665 0.85045 0.0
C622 C 0.21898 0.45812 0.83957 0.0
C623 C 0.21367 0.45884 0.78848 0.0
C624 C 0.20578 0.45868 0.88071 0.0
C625 C 0.2423 0.45442 0.90442 0.0
C626 C 0.18499 0.4438 0.88269 0.0
C627 C 0.17272 0.44374 0.92281 0.0
C628 C 0.18108 0.45855 0.96171 0.0
C629 C 0.20171 0.47391 0.95844 0.0
C630 C 0.2139 0.47404 0.91811 0.0
H631 H 0.25236 0.44763 0.90509 0.0
H632 H 0.25075 0.46973 0.92251 0.0
H633 H 0.22853 0.44474 0.92787 0.0
H634 H 0.17838 0.43191 0.8539 0.0
H635 H 0.15689 0.4317 0.9242 0.0
H636 H 0.72907 0.15274 0.10079 0.0
H637 H 0.75035 0.17242 0.02828 0.0
H638 H 0.74745 0.22516 0.07928 0.0
H639 H 0.72667 0.20584 0.15235 0.0
H640 H 0.74381 0.19168 0.94959 0.0
H641 H 0.80837 0.24816 0.06724 0.0
H642 H 0.78774 0.22495 0.09376 0.0
H643 H 0.7847 0.24683 0.08368 0.0
C644 C 0.7329 0.16851 0.09643 0.0
C645 C 0.72634 0.17779 0.1326 0.0
C646 C 0.74509 0.17974 0.05506 0.0
C647 C 0.75091 0.2004 0.04913 0.0
C648 C 0.74367 0.20943 0.08399 0.0
H649 H 0.79505 0.27325 0.77524 0.0
H650 H 0.77553 0.25266 0.84833 0.0
C651 C 0.73165 0.19829 0.12552 0.0
C652 C 0.76436 0.21252 0.00625 0.0
H653 H 0.80869 0.2565 0.97884 0.0
C654 C 0.75807 0.20578 0.95597 0.0
C655 C 0.78317 0.23069 0.01465 0.0
C656 C 0.79152 0.23798 0.06776 0.0
C657 C 0.76975 0.21706 0.91379 0.0
C658 C 0.78794 0.23586 0.92218 0.0
C659 C 0.79458 0.24225 0.97247 0.0
C660 C 0.80018 0.24919 0.87926 0.0
C661 C 0.76256 0.2086 0.86072 0.0
C662 C 0.82084 0.25493 0.87373 0.0
C663 C 0.83219 0.26702 0.83234 0.0
C664 C 0.82303 0.27354 0.79574 0.0
C665 C 0.80251 0.2683 0.8024 0.0
C666 C 0.79127 0.25638 0.84395 0.0
H667 H 0.75235 0.19176 0.86144 0.0
H668 H 0.75378 0.21542 0.84435 0.0
H669 H 0.77565 0.21228 0.83499 0.0
H670 H 0.82807 0.2497 0.90086 0.0
H671 H 0.84796 0.2708 0.82831 0.0
H672 H 0.5701 0.72669 0.25498 0.0
H673 H 0.56954 0.74727 0.1833 0.0
H674 H 0.51209 0.73945 0.23668 0.0
H675 H 0.51273 0.71932 0.30894 0.0
H676 H 0.54277 0.73977 0.10505 0.0
H677 H 0.54736 0.80111 0.23029 0.0
H678 H 0.55158 0.78109 0.25383 0.0
H679 H 0.526 0.77646 0.24495 0.0
C680 C 0.55726 0.7292 0.2512 0.0
C681 C 0.54157 0.72157 0.28797 0.0
C682 C 0.55699 0.74099 0.2103 0.0
C683 C 0.54103 0.74531 0.20546 0.0
C684 C 0.52484 0.7368 0.24056 0.0
H685 H 0.51339 0.79389 0.93565 0.0
H686 H 0.51313 0.77274 0.0066 0.0
C687 C 0.52517 0.72517 0.28162 0.0
C688 C 0.54143 0.75892 0.16415 0.0
H689 H 0.54019 0.80279 0.14227 0.0
C690 C 0.54228 0.75359 0.11313 0.0
C691 C 0.54119 0.77715 0.17487 0.0
C692 C 0.5417 0.78443 0.22895 0.0
C693 C 0.54245 0.76579 0.07244 0.0
C694 C 0.54123 0.78351 0.08312 0.0
C695 C 0.54082 0.78905 0.13417 0.0
C696 C 0.54066 0.79665 0.04185 0.0
C697 C 0.54433 0.75977 0.01848 0.0
C698 C 0.55563 0.8174 0.03956 0.0
C699 C 0.55563 0.82965 -0.0005 0.0
C700 C 0.54066 0.82133 0.96094 0.0
C701 C 0.52526 0.80072 0.96443 0.0
C702 C 0.52518 0.78855 0.00472 0.0
H703 H 0.55101 0.74959 0.01779 0.0
H704 H 0.52893 0.75134 0.00091 0.0
H705 H 0.55398 0.7734 0.9946 0.0
H706 H 0.56761 0.824 0.06812 0.0
H707 H 0.56771 0.84546 0.99794 0.0
H708 H 0.79605 0.51897 0.48471 0.0
H709 H 0.77642 0.51976 0.41155 0.0
H710 H 0.82828 0.57611 0.36051 0.0
H711 H 0.84828 0.57521 0.43323 0.0
H712 H 0.76619 0.5486 0.38973 0.0
H713 H 0.81131 0.54227 0.23041 0.0
H714 H 0.81465 0.53716 0.29612 0.0
H715 H 0.82595 0.56303 0.2736 0.0
C716 C 0.8034 0.53143 0.45763 0.0
C717 C 0.82376 0.54702 0.46473 0.0
C718 C 0.79212 0.53188 0.4159 0.0
C719 C 0.80091 0.5479 0.38039 0.0
C720 C 0.82131 0.56339 0.38692 0.0
H721 H 0.72891 0.57491 0.16438 0.0
H722 H 0.74982 0.57586 0.23712 0.0
C723 C 0.8327 0.56288 0.42856 0.0
C724 C 0.78834 0.54865 0.33782 0.0
H725 H 0.78477 0.54876 0.20762 0.0
C726 C 0.77023 0.54864 0.34987 0.0
C727 C 0.79358 0.54852 0.28592 0.0
C728 C 0.81233 0.54756 0.27056 0.0
C729 C 0.75713 0.54837 0.31143 0.0
C730 C 0.76254 0.54858 0.25953 0.0
C731 C 0.78072 0.54872 0.24748 0.0
C732 C 0.7492 0.54779 0.21695 0.0
C733 C 0.73735 0.54724 0.32679 0.0
C734 C 0.74209 0.53182 0.18126 0.0
C735 C 0.73037 0.53135 0.1395 0.0
C736 C 0.72547 0.54685 0.13257 0.0
C737 C 0.73226 0.56265 0.16892 0.0
C738 C 0.74416 0.56318 0.21058 0.0
H739 H 0.73307 0.54189 0.36688 0.0
H740 H 0.7391 0.56268 0.32392 0.0
H741 H 0.72467 0.53682 0.30112 0.0
H742 H 0.74579 0.51978 0.18549 0.0
H743 H 0.72536 0.51894 0.11229 0.0
H744 H 0.15784 0.71634 0.34325 0.0
H745 H 0.17975 0.7372 0.41356 0.0
H746 H 0.23281 0.75757 0.31737 0.0
H747 H 0.21117 0.73638 0.24754 0.0
H748 H 0.23987 0.74876 0.41167 0.0
H749 H 0.20554 0.79844 0.42426 0.0
H750 H 0.18716 0.77188 0.43241 0.0
H751 H 0.20016 0.78081 0.37211 0.0
C752 C 0.17418 0.72517 0.33716 0.0
C753 C 0.18273 0.72477 0.28967 0.0
C754 C 0.18667 0.73722 0.37724 0.0
C755 C 0.20787 0.74932 0.3703 0.0
C756 C 0.21648 0.74848 0.32346 0.0
H757 H 0.2859 0.8489 0.57776 0.0
H758 H 0.26815 0.829 0.50156 0.0
C759 C 0.20406 0.73632 0.28358 0.0
C760 C 0.22116 0.76283 0.41177 0.0
H761 H 0.22832 0.80169 0.49136 0.0
C762 C 0.23742 0.76042 0.42891 0.0
C763 C 0.21823 0.77834 0.43346 0.0
C764 C 0.20197 0.7827 0.41429 0.0
C765 C 0.25051 0.77271 0.46806 0.0
C766 C 0.24691 0.78747 0.49162 0.0
C767 C 0.23098 0.79025 0.47357 0.0
C768 C 0.25894 0.79965 0.53631 0.0
C769 C 0.2682 0.7699 0.48329 0.0
C770 C 0.25967 0.78979 0.58103 0.0
C771 C 0.26994 0.80109 0.62428 0.0
C772 C 0.27943 0.82253 0.6241 0.0
C773 C 0.27881 0.83243 0.57913 0.0
C774 C 0.26864 0.82108 0.53562 0.0
H775 H 0.27282 0.76333 0.45142 0.0
H776 H 0.28165 0.78458 0.49511 0.0
H777 H 0.26354 0.75911 0.51597 0.0
H778 H 0.25183 0.77328 0.583 0.0
H779 H 0.26991 0.79292 0.65837 0.0
H780 H 0.43589 0.2816 0.74779 0.0
H781 H 0.43641 0.26205 0.6736 0.0
H782 H 0.47068 0.24085 0.76062 0.0
H783 H 0.47075 0.2607 0.83417 0.0
H784 H 0.48615 0.25248 0.66666 0.0
H785 H 0.40234 0.20097 0.65388 0.0
H786 H 0.40993 0.22753 0.65032 0.0
H787 H 0.41439 0.21743 0.70816 0.0
C788 C 0.44357 0.2728 0.75106 0.0
C789 C 0.45323 0.27268 0.79697 0.0
C790 C 0.44371 0.26151 0.70876 0.0
C791 C 0.45324 0.24966 0.7119 0.0
C792 C 0.46315 0.24979 0.7574 0.0
H793 H 0.43615 0.15385 0.4979 0.0
H794 H 0.43666 0.17316 0.57378 0.0
C795 C 0.46317 0.26118 0.79944 0.0
C796 C 0.4533 0.23737 0.6677 0.0
H797 H 0.4222 0.1993 0.58544 0.0
C798 C 0.47216 0.24081 0.64899 0.0
C799 C 0.43503 0.22188 0.64531 0.0
C800 C 0.41427 0.21655 0.66572 0.0
C801 C 0.47329 0.22941 0.60805 0.0
C802 C 0.45505 0.21452 0.58426 0.0
C803 C 0.43617 0.21084 0.60346 0.0
C804 C 0.45524 0.20282 0.5389 0.0
C805 C 0.49402 0.2332 0.59136 0.0
C806 C 0.4654 0.21308 0.49409 0.0
C807 C 0.46531 0.20214 0.45098 0.0
C808 C 0.45478 0.18066 0.45147 0.0
C809 C 0.44447 0.17038 0.49631 0.0
C810 C 0.44471 0.18138 0.53964 0.0
H811 H 0.50546 0.24013 0.62259 0.0
H812 H 0.49335 0.21883 0.57897 0.0
H813 H 0.49944 0.244 0.55864 0.0
H814 H 0.47317 0.22959 0.49217 0.0
H815 H 0.47321 0.21056 0.41695 0.0
H816 H 0.08102 0.36095 0.96994 0.0
H817 H 0.04957 0.34207 0.9196 0.0
H818 H 0.03828 0.39235 0.93412 0.0
H819 H 0.06951 0.4113 0.98424 0.0
H820 H 0.00777 0.33167 0.94873 0.0
H821 H 0.03674 0.38129 0.77691 0.0
H822 H 0.05347 0.38059 0.82525 0.0
H823 H 0.04054 0.39473 0.83631 0.0
C824 C 0.07183 0.36799 0.96245 0.0
C825 C 0.07784 0.38769 0.98093 0.0
C826 C 0.05388 0.35717 0.93374 0.0
C827 C 0.0418 0.36596 0.92262 0.0
C828 C 0.04758 0.38545 0.94166 0.0
H829 H 0.93235 0.34102 0.76835 0.0
H830 H 0.96477 0.3546 0.81364 0.0
C831 C 0.06541 0.39621 0.9705 0.0
C832 C 0.02302 0.35486 0.89141 0.0
H833 H 0.00094 0.35826 0.78069 0.0
C834 C 0.00628 0.33727 0.91169 0.0
C835 C 0.02122 0.36226 0.84314 0.0
C836 C 0.03899 0.38066 0.81877 0.0
C837 C 0.98742 0.32741 0.88596 0.0
C838 C 0.98546 0.33516 0.83825 0.0
C839 C 0.00244 0.35238 0.81732 0.0
C840 C 0.96567 0.32646 0.81075 0.0
C841 C 0.96955 0.30937 0.91114 0.0
C842 C 0.95544 0.30613 0.79358 0.0
C843 C 0.93676 0.29824 0.76777 0.0
C844 C 0.92809 0.31061 0.75828 0.0
C845 C 0.93855 0.33103 0.77498 0.0
C846 C 0.95712 0.33885 0.80088 0.0
H847 H 0.97234 0.30827 0.95246 0.0
H848 H 0.95543 0.31034 0.9072 0.0
H849 H 0.96689 0.29511 0.89219 0.0
H850 H 0.96197 0.29642 0.79981 0.0
H851 H 0.92916 0.28249 0.75514 0.0
H852 H 0.58661 0.92886 0.95699 0.0
H853 H 0.60615 0.96026 0.00626 0.0
H854 H 0.66227 0.96297 0.96093 0.0
H855 H 0.64283 0.93145 0.91131 0.0
H856 H 0.63562 0.96724 0.08847 0.0
H857 H 0.66929 0.02018 0.92288 0.0
H858 H 0.64691 0.99519 0.91653 0.0
H859 H 0.67164 0.99764 0.92345 0.0
C860 C 0.60311 0.93611 0.9573 0.0
C861 C 0.61316 0.92765 0.93004 0.0
C862 C 0.61424 0.95404 0.98559 0.0
C863 C 0.63562 0.96399 0.98686 0.0
C864 C 0.64576 0.95562 0.95992 0.0
H865 H 0.71925 0.08235 0.1275 0.0
H866 H 0.70572 0.04968 0.08244 0.0
C867 C 0.63463 0.93758 0.93176 0.0
C868 C 0.64714 0.98301 0.01697 0.0
H869 H 0.67763 0.03465 0.00524 0.0
C870 C 0.64492 0.98198 0.07038 0.0
C871 C 0.65937 0.00215 0.9932 0.0
C872 C 0.66195 0.00405 0.93584 0.0
C873 C 0.65441 0.99966 0.10073 0.0
C874 C 0.66599 0.01893 0.07683 0.0
C875 C 0.66871 0.01988 0.02349 0.0
C876 C 0.67443 0.03833 0.10605 0.0
C877 C 0.65198 0.99749 0.15811 0.0
C878 C 0.66134 0.04286 0.13398 0.0
C879 C 0.66901 0.06142 0.15992 0.0
C880 C 0.68995 0.07599 0.15798 0.0
C881 C 0.70307 0.07145 0.12991 0.0
C882 C 0.69536 0.0528 0.10409 0.0
H883 H 0.6487 0.98213 0.17092 0.0
H884 H 0.66591 0.00922 0.17808 0.0
H885 H 0.63893 0.9994 0.16986 0.0
H886 H 0.64506 0.03218 0.13497 0.0
H887 H 0.65844 0.06445 0.18078 0.0
H888 H 0.65851 0.59316 0.08383 0.0
H889 H 0.64498 0.61156 0.13161 0.0
H890 H 0.70535 0.65369 0.18766 0.0
H891 H 0.71914 0.63536 0.13981 0.0
H892 H 0.64889 0.61786 0.24177 0.0
H893 H 0.68289 0.69056 0.13154 0.0
H894 H 0.68032 0.66731 0.10509 0.0
H895 H 0.69989 0.68165 0.15132 0.0
C896 C 0.66899 0.60645 0.1059 0.0
C897 C 0.68993 0.61278 0.10799 0.0
C898 C 0.66121 0.61692 0.13323 0.0
C899 C 0.67419 0.63405 0.16281 0.0
C900 C 0.69513 0.64065 0.16448 0.0
H901 H 0.64449 0.71146 0.35201 0.0
H902 H 0.66276 0.69697 0.3069 0.0
C903 C 0.70296 0.63011 0.13727 0.0
C904 C 0.66548 0.64427 0.19377 0.0
H905 H 0.66315 0.68808 0.20398 0.0
C906 C 0.65204 0.63323 0.23364 0.0
C907 C 0.6698 0.66438 0.18331 0.0
C908 C 0.6839 0.67672 0.14032 0.0
C909 C 0.64263 0.6417 0.26318 0.0
C910 C 0.64638 0.66158 0.25168 0.0
C911 C 0.66023 0.67283 0.21259 0.0
C912 C 0.63542 0.67057 0.2785 0.0
C913 C 0.62888 0.62932 0.30673 0.0
C914 C 0.61403 0.66074 0.27669 0.0
C915 C 0.60357 0.66888 0.30254 0.0
C916 C 0.61429 0.6872 0.33033 0.0
C917 C 0.63576 0.69729 0.33114 0.0
C918 C 0.64624 0.68906 0.30536 0.0
H919 H 0.63253 0.61758 0.32026 0.0
H920 H 0.63017 0.63922 0.33957 0.0
H921 H 0.6128 0.62128 0.29335 0.0
H922 H 0.60539 0.64673 0.25513 0.0
H923 H 0.58705 0.6608 0.30063 0.0
H924 H 0.0744 0.66163 0.29703 0.0
H925 H 0.0429 0.64916 0.34623 0.0
H926 H 0.03822 0.70121 0.29826 0.0
H927 H 0.0698 0.71387 0.24864 0.0
H928 H 0.0345 0.67068 0.42699 0.0
H929 H 0.98209 0.65021 0.25982 0.0
H930 H 0.00755 0.65394 0.25422 0.0
H931 H 0.00395 0.67555 0.26092 0.0
C932 C 0.0667 0.67046 0.29681 0.0
C933 C 0.07459 0.68873 0.26869 0.0
C934 C 0.04872 0.66332 0.32505 0.0
C935 C 0.03816 0.67417 0.32545 0.0
C936 C 0.04603 0.69249 0.29788 0.0
H937 H 0.91866 0.63682 0.46253 0.0
H938 H 0.95149 0.65657 0.41855 0.0
C939 C 0.06411 0.69973 0.26974 0.0
C940 C 0.01895 0.66618 0.35501 0.0
H941 H 0.96726 0.64403 0.34175 0.0
C942 C 0.01979 0.66495 0.40846 0.0
C943 C 0.99984 0.65888 0.33066 0.0
C944 C 0.99813 0.65953 0.27322 0.0
C945 C 0.00196 0.65638 0.43828 0.0
C946 C 0.98276 0.64836 0.41381 0.0
C947 C 0.98198 0.65014 0.36044 0.0
C948 C 0.96326 0.63704 0.44246 0.0
C949 C 0.0039 0.65607 0.49573 0.0
C950 C 0.95893 0.61943 0.47018 0.0
C951 C 0.94027 0.60818 0.49547 0.0
C952 C 0.92542 0.61417 0.49309 0.0
C953 C 0.92977 0.63182 0.46526 0.0
C954 C 0.94852 0.64312 0.44007 0.0
H955 H 0.01911 0.66831 0.50899 0.0
H956 H 0.99192 0.65797 0.51529 0.0
H957 H 0.00221 0.6412 0.50749 0.0
H958 H 0.96984 0.61413 0.47148 0.0
H959 H 0.93739 0.59459 0.51619 0.0
H960 H 0.3796 0.08939 0.49883 0.0
H961 H 0.36149 0.05614 0.54142 0.0
H962 H 0.38156 0.03008 0.42394 0.0
H963 H 0.39997 0.06326 0.38157 0.0
H964 H 0.3307 0.01797 0.50803 0.0
H965 H 0.4014 0.01636 0.55549 0.0
H966 H 0.40176 0.03918 0.53366 0.0
H967 H 0.39872 0.01988 0.48856 0.0
C968 C 0.38011 0.07657 0.48192 0.0
C969 C 0.39141 0.07905 0.43705 0.0
C970 C 0.36973 0.05758 0.50631 0.0
C971 C 0.3705 0.04074 0.48636 0.0
C972 C 0.38115 0.04299 0.44061 0.0
H973 H 0.29549 0.91258 0.56656 0.0
H974 H 0.31034 0.94616 0.52604 0.0
C975 C 0.39158 0.06196 0.41631 0.0
C976 C 0.36046 0.02091 0.51379 0.0
H977 H 0.37001 0.98581 0.57016 0.0
C978 C 0.33927 0.01095 0.52181 0.0
C979 C 0.37174 0.01195 0.53243 0.0
C980 C 0.39468 0.02246 0.52761 0.0
C981 C 0.32899 0.99203 0.54709 0.0
C982 C 0.34018 0.98271 0.56402 0.0
C983 C 0.36141 0.99288 0.55679 0.0
C984 C 0.33029 0.96247 0.58956 0.0
C985 C 0.30632 0.98236 0.55614 0.0
C986 C 0.33677 0.96039 0.63841 0.0
C987 C 0.32848 0.94119 0.66145 0.0
C988 C 0.31354 0.92364 0.63603 0.0
C989 C 0.30687 0.92579 0.58735 0.0
C990 C 0.31525 0.94501 0.56423 0.0
H991 H 0.30121 0.99381 0.55416 0.0
H992 H 0.29802 0.97071 0.52614 0.0
H993 H 0.30198 0.9747 0.59404 0.0
H994 H 0.34842 0.97364 0.65857 0.0
H995 H 0.33397 0.9401 0.69897 0.0
H996 H 0.34309 0.412 0.60969 0.0
H997 H 0.35561 0.39282 0.65798 0.0
H998 H 0.29691 0.33818 0.6432 0.0
H999 H 0.28413 0.35728 0.59471 0.0
H1000 H 0.33696 0.36939 0.75277 0.0
H1001 H 0.34035 0.32256 0.59246 0.0
H1002 H 0.34013 0.34603 0.5816 0.0
H1003 H 0.31714 0.32341 0.6004 0.0
C1004 C 0.33282 0.39588 0.61641 0.0
C1005 C 0.3126 0.38617 0.59822 0.0
C1006 C 0.34002 0.38497 0.64412 0.0
C1007 C 0.32723 0.36409 0.65378 0.0
C1008 C 0.30707 0.35426 0.63561 0.0
H1009 H 0.35982 0.28069 0.80537 0.0
H1010 H 0.34073 0.29447 0.76113 0.0
C1011 C 0.29979 0.36521 0.60809 0.0
C1012 C 0.33506 0.35287 0.68394 0.0
H1013 H 0.35084 0.31788 0.67371 0.0
C1014 C 0.3399 0.35803 0.73564 0.0
C1015 C 0.33866 0.33796 0.6615 0.0
C1016 C 0.33394 0.33214 0.60587 0.0
C1017 C 0.34855 0.34886 0.76545 0.0
C1018 C 0.35295 0.33453 0.74252 0.0
C1019 C 0.34752 0.32891 0.69117 0.0
C1020 C 0.36421 0.32609 0.77033 0.0
C1021 C 0.35283 0.35457 0.82128 0.0
C1022 C 0.38384 0.33927 0.7896 0.0
C1023 C 0.39472 0.33148 0.81498 0.0
C1024 C 0.38631 0.3103 0.82118 0.0
C1025 C 0.36672 0.29708 0.8014 0.0
C1026 C 0.35579 0.30492 0.77608 0.0
H1027 H 0.34286 0.36027 0.83643 0.0
H1028 H 0.35055 0.34137 0.84484 0.0
H1029 H 0.36891 0.36698 0.82565 0.0
H1030 H 0.39087 0.35563 0.78446 0.0
H1031 H 0.40984 0.34211 0.82931 0.0
loop_
_geom_bond_atom_site_label_1
_geom_bond_atom_site_label_2
_geom_bond_distance
_geom_bond_site_symmetry_2
_ccdc_geom_bond_type
Zn0 O3 2.031 . S
Zn0 O5 2.049 . S
Zn0 O10 2.067 . S
Zn1 O2 1.962 1_554 S
Zn1 O4 1.986 . S
Zn1 O6 1.996 . S
Zn1 O9 1.943 . S
O2 Zn1 1.962 1_556 S
O2 C7 1.254 . S
O3 Zn0 2.031 . S
O3 C7 1.269 1_554 S
O4 Zn1 1.986 . S
O4 C11 1.262 . S
O5 Zn0 2.049 . S
O5 C13 1.260 . S
O6 Zn1 1.996 . S
O6 C13 1.257 . S
C7 O2 1.254 . S
C7 O3 1.269 1_556 S
C8 O9 1.249 . S
C8 O10 1.270 . S
O9 Zn1 1.943 . S
O9 C8 1.249 . S
O10 Zn0 2.067 . S
O10 C8 1.270 . S
C11 O4 1.262 . S
C11 O12 1.232 . S
O12 C11 1.232 . S
C13 O5 1.260 . S
C13 O6 1.257 . S
Zn14 O17 2.031 . S
Zn14 O19 2.049 . S
Zn14 O24 2.067 . S
Zn15 O16 1.962 . S
Zn15 O18 1.986 . S
Zn15 O20 1.996 . S
Zn15 O23 1.943 . S
O16 Zn15 1.962 . S
O16 C21 1.254 . S
O17 Zn14 2.031 . S
O17 C21 1.269 . S
O18 Zn15 1.986 . S
O18 C25 1.262 . S
O19 Zn14 2.049 . S
O19 C27 1.260 . S
O20 Zn15 1.996 . S
O20 C27 1.257 . S
C21 O16 1.254 . S
C21 O17 1.269 . S
C22 O23 1.249 . S
C22 O24 1.270 . S
O23 Zn15 1.943 . S
O23 C22 1.249 . S
O24 Zn14 2.067 . S
O24 C22 1.270 . S
C25 O18 1.262 . S
C25 O26 1.232 . S
O26 C25 1.232 . S
C27 O19 1.260 . S
C27 O20 1.257 . S
Zn28 O31 2.031 . S
Zn28 O33 2.049 . S
Zn28 O38 2.067 . S
Zn29 O30 1.962 . S
Zn29 O32 1.986 . S
Zn29 O34 1.996 . S
Zn29 O37 1.943 . S
O30 Zn29 1.962 . S
O30 C35 1.254 . S
O31 Zn28 2.031 . S
O31 C35 1.269 . S
O32 Zn29 1.986 . S
O32 C39 1.262 . S
O33 Zn28 2.049 . S
O33 C41 1.260 . S
O34 Zn29 1.996 . S
O34 C41 1.257 . S
C35 O30 1.254 . S
C35 O31 1.269 . S
C36 O37 1.249 . S
C36 O38 1.270 . S
O37 Zn29 1.943 . S
O37 C36 1.249 . S
O38 Zn28 2.067 . S
O38 C36 1.270 . S
C39 O32 1.262 . S
C39 O40 1.232 . S
O40 C39 1.232 . S
C41 O33 1.260 . S
C41 O34 1.257 . S
Zn42 O45 2.031 . S
Zn42 O47 2.049 . S
Zn42 O52 2.067 . S
Zn43 O44 1.962 . S
Zn43 O46 1.986 . S
Zn43 O48 1.996 . S
Zn43 O51 1.943 . S
O44 Zn43 1.962 . S
O44 C49 1.254 . S
O45 Zn42 2.031 . S
O45 C49 1.269 . S
O46 Zn43 1.986 . S
O46 C53 1.262 . S
O47 Zn42 2.049 . S
O47 C55 1.260 . S
O48 Zn43 1.996 . S
O48 C55 1.257 . S
C49 O44 1.254 . S
C49 O45 1.269 . S
C50 O51 1.249 . S
C50 O52 1.270 . S
O51 Zn43 1.943 . S
O51 C50 1.249 . S
O52 Zn42 2.067 . S
O52 C50 1.270 . S
C53 O46 1.262 . S
C53 O54 1.232 . S
O54 C53 1.232 . S
C55 O47 1.260 . S
C55 O48 1.257 . S
Zn56 O59 2.031 . S
Zn56 O61 2.049 . S
Zn56 O66 2.067 . S
Zn57 O58 1.962 . S
Zn57 O60 1.986 . S
Zn57 O62 1.996 . S
Zn57 O65 1.943 . S
O58 Zn57 1.962 . S
O58 C63 1.254 . S
O59 Zn56 2.031 . S
O59 C63 1.269 . S
O60 Zn57 1.986 . S
O60 C67 1.262 . S
O61 Zn56 2.049 . S
O61 C69 1.260 . S
O62 Zn57 1.996 . S
O62 C69 1.257 . S
C63 O58 1.254 . S
C63 O59 1.269 . S
C64 O65 1.249 . S
C64 O66 1.270 . S
O65 Zn57 1.943 . S
O65 C64 1.249 . S
O66 Zn56 2.067 . S
O66 C64 1.270 . S
C67 O60 1.262 . S
C67 O68 1.232 . S
O68 C67 1.232 . S
C69 O61 1.260 . S
C69 O62 1.257 . S
Zn70 O73 2.031 . S
Zn70 O75 2.049 . S
Zn70 O80 2.067 . S
Zn71 O72 1.962 . S
Zn71 O74 1.986 . S
Zn71 O76 1.996 . S
Zn71 O79 1.943 . S
O72 Zn71 1.962 . S
O72 C77 1.254 . S
O73 Zn70 2.031 . S
O73 C77 1.269 . S
O74 Zn71 1.986 . S
O74 C81 1.262 . S
O75 Zn70 2.049 . S
O75 C83 1.260 . S
O76 Zn71 1.996 . S
O76 C83 1.257 . S
C77 O72 1.254 . S
C77 O73 1.269 . S
C78 O79 1.249 . S
C78 O80 1.270 . S
O79 Zn71 1.943 . S
O79 C78 1.249 . S
O80 Zn70 2.067 . S
O80 C78 1.270 . S
C81 O74 1.262 . S
C81 O82 1.232 . S
O82 C81 1.232 . S
C83 O75 1.260 . S
C83 O76 1.257 . S
Zn84 O87 2.031 . S
Zn84 O89 2.049 . S
Zn84 O94 2.067 . S
Zn85 O86 1.962 . S
Zn85 O88 1.986 . S
Zn85 O90 1.996 . S
Zn85 O93 1.943 . S
O86 Zn85 1.962 . S
O86 C91 1.254 . S
O87 Zn84 2.031 . S
O87 C91 1.269 . S
O88 Zn85 1.986 . S
O88 C95 1.262 . S
O89 Zn84 2.049 . S
O89 C97 1.260 . S
O90 Zn85 1.996 . S
O90 C97 1.257 . S
C91 O86 1.254 . S
C91 O87 1.269 . S
C92 O93 1.249 . S
C92 O94 1.270 . S
O93 Zn85 1.943 . S
O93 C92 1.249 . S
O94 Zn84 2.067 . S
O94 C92 1.270 . S
C95 O88 1.262 . S
C95 O96 1.232 . S
O96 C95 1.232 . S
C97 O89 1.260 . S
C97 O90 1.257 . S
Zn98 O101 2.031 . S
Zn98 O103 2.049 . S
Zn98 O108 2.067 1_554 S
Zn99 O100 1.962 . S
Zn99 O102 1.986 . S
Zn99 O104 1.996 . S
Zn99 O107 1.943 . S
O100 Zn99 1.962 . S
O100 C105 1.254 . S
O101 Zn98 2.031 . S
O101 C105 1.269 . S
O102 Zn99 1.986 . S
O102 C109 1.262 . S
O103 Zn98 2.049 . S
O103 C111 1.260 . S
O104 Zn99 1.996 . S
O104 C111 1.257 . S
C105 O100 1.254 . S
C105 O101 1.269 . S
C106 O107 1.249 1_556 S
C106 O108 1.270 . S
O107 Zn99 1.943 . S
O107 C106 1.249 1_554 S
O108 Zn98 2.067 1_556 S
O108 C106 1.270 . S
C109 O102 1.262 . S
C109 O110 1.232 . S
O110 C109 1.232 . S
C111 O103 1.260 . S
C111 O104 1.257 . S
Zn112 O115 2.031 . S
Zn112 O117 2.049 . S
Zn112 O122 2.067 . S
Zn113 O114 1.962 . S
Zn113 O116 1.986 . S
Zn113 O118 1.996 . S
Zn113 O121 1.943 . S
O114 Zn113 1.962 . S
O114 C119 1.254 . S
O115 Zn112 2.031 . S
O115 C119 1.269 . S
O116 Zn113 1.986 . S
O116 C123 1.262 . S
O117 Zn112 2.049 . S
O117 C125 1.260 . S
O118 Zn113 1.996 . S
O118 C125 1.257 . S
C119 O114 1.254 . S
C119 O115 1.269 . S
C120 O121 1.249 . S
C120 O122 1.270 . S
O121 Zn113 1.943 . S
O121 C120 1.249 . S
O122 Zn112 2.067 . S
O122 C120 1.270 . S
C123 O116 1.262 . S
C123 O124 1.232 . S
O124 C123 1.232 . S
C125 O117 1.260 . S
C125 O118 1.257 . S
Zn126 O129 2.031 . S
Zn126 O131 2.049 . S
Zn126 O136 2.067 . S
Zn127 O128 1.962 . S
Zn127 O130 1.986 . S
Zn127 O132 1.996 . S
Zn127 O135 1.943 . S
O128 Zn127 1.962 . S
O128 C133 1.254 . S
O129 Zn126 2.031 . S
O129 C133 1.269 . S
O130 Zn127 1.986 . S
O130 C137 1.262 . S
O131 Zn126 2.049 . S
O131 C139 1.260 . S
O132 Zn127 1.996 . S
O132 C139 1.257 . S
C133 O128 1.254 . S
C133 O129 1.269 . S
C134 O135 1.249 . S
C134 O136 1.270 . S
O135 Zn127 1.943 . S
O135 C134 1.249 . S
O136 Zn126 2.067 . S
O136 C134 1.270 . S
C137 O130 1.262 . S
C137 O138 1.232 . S
O138 C137 1.232 . S
C139 O131 1.260 . S
C139 O132 1.257 . S
Zn140 O143 2.031 . S
Zn140 O145 2.049 . S
Zn140 O150 2.067 . S
Zn141 O142 1.962 . S
Zn141 O144 1.986 . S
Zn141 O146 1.996 . S
Zn141 O149 1.943 . S
O142 Zn141 1.962 . S
O142 C147 1.254 . S
O143 Zn140 2.031 . S
O143 C147 1.269 . S
O144 Zn141 1.986 . S
O144 C151 1.262 . S
O145 Zn140 2.049 . S
O145 C153 1.260 . S
O146 Zn141 1.996 . S
O146 C153 1.257 . S
C147 O142 1.254 . S
C147 O143 1.269 . S
C148 O149 1.249 . S
C148 O150 1.270 . S
O149 Zn141 1.943 . S
O149 C148 1.249 . S
O150 Zn140 2.067 . S
O150 C148 1.270 . S
C151 O144 1.262 . S
C151 O152 1.232 . S
O152 C151 1.232 . S
C153 O145 1.260 . S
C153 O146 1.257 . S
Zn154 O157 2.031 . S
Zn154 O159 2.049 . S
Zn154 O164 2.067 . S
Zn155 O156 1.962 . S
Zn155 O158 1.986 . S
Zn155 O160 1.996 . S
Zn155 O163 1.943 . S
O156 Zn155 1.962 . S
O156 C161 1.254 . S
O157 Zn154 2.031 . S
O157 C161 1.269 . S
O158 Zn155 1.986 . S
O158 C165 1.262 . S
O159 Zn154 2.049 . S
O159 C167 1.260 . S
O160 Zn155 1.996 . S
O160 C167 1.257 . S
C161 O156 1.254 . S
C161 O157 1.269 . S
C162 O163 1.249 . S
C162 O164 1.270 . S
O163 Zn155 1.943 . S
O163 C162 1.249 . S
O164 Zn154 2.067 . S
O164 C162 1.270 . S
C165 O158 1.262 . S
C165 O166 1.232 . S
O166 C165 1.232 . S
C167 O159 1.260 . S
C167 O160 1.257 . S
H168 C176 0.929 . S
H169 C178 0.930 . S
H170 C180 0.930 . S
H171 C183 0.929 . S
H172 C186 0.930 . S
H173 C188 0.960 . S
H174 C188 0.960 . S
H175 C188 0.960 . S
C176 H168 0.929 . S
C176 C177 1.377 . S
C176 C178 1.384 . S
C177 C176 1.377 . S
C177 C183 1.390 . S
C178 H169 0.930 . S
C178 C176 1.384 . S
C178 C179 1.372 . S
C179 C178 1.372 . S
C179 C180 1.400 . S
C179 C184 1.490 . S
C180 H170 0.930 . S
C180 C179 1.400 . S
C180 C183 1.386 . S
H181 C197 0.930 . S
H182 C198 0.931 . S
C183 H171 0.929 . S
C183 C177 1.390 . S
C183 C180 1.386 . S
C184 C179 1.490 . S
C184 C186 1.395 . S
C184 C187 1.403 . S
H185 C191 0.930 . S
C186 H172 0.930 . S
C186 C184 1.395 . S
C186 C189 1.403 . S
C187 C184 1.403 . S
C187 C188 1.524 . S
C187 C191 1.400 . S
C188 H173 0.960 . S
C188 H174 0.960 . S
C188 H175 0.960 . S
C188 C187 1.524 . S
C189 C186 1.403 . S
C189 C190 1.392 . S
C189 C193 1.495 . S
C190 C189 1.392 . S
C190 C191 1.385 . S
C190 C192 1.478 . S
C191 H185 0.930 . S
C191 C187 1.400 . S
C191 C190 1.385 . S
C192 C190 1.478 . S
C192 C194 1.381 . S
C192 C198 1.383 . S
C193 C189 1.495 . S
C193 H199 0.959 . S
C193 H200 0.961 . S
C193 H201 0.960 . S
C194 C192 1.381 . S
C194 C195 1.394 . S
C194 H202 0.930 . S
C195 C194 1.394 . S
C195 C196 1.383 . S
C195 H203 0.929 . S
C196 C195 1.383 . S
C196 C197 1.377 . S
C197 H181 0.930 . S
C197 C196 1.377 . S
C197 C198 1.379 . S
C198 H182 0.931 . S
C198 C192 1.383 . S
C198 C197 1.379 . S
H199 C193 0.959 . S
H200 C193 0.961 . S
H201 C193 0.960 . S
H202 C194 0.930 . S
H203 C195 0.929 . S
H204 C212 0.929 . S
H205 C214 0.930 . S
H206 C216 0.930 . S
H207 C219 0.929 . S
H208 C222 0.930 . S
H209 C224 0.960 . S
H210 C224 0.960 . S
H211 C224 0.960 . S
C212 H204 0.929 . S
C212 C213 1.377 . S
C212 C214 1.384 . S
C213 C212 1.377 . S
C213 C219 1.390 . S
C214 H205 0.930 . S
C214 C212 1.384 . S
C214 C215 1.372 . S
C215 C214 1.372 . S
C215 C216 1.400 . S
C215 C220 1.490 . S
C216 H206 0.930 . S
C216 C215 1.400 . S
C216 C219 1.386 . S
H217 C233 0.930 . S
H218 C234 0.931 . S
C219 H207 0.929 . S
C219 C213 1.390 . S
C219 C216 1.386 . S
C220 C215 1.490 . S
C220 C222 1.395 . S
C220 C223 1.403 . S
H221 C227 0.930 . S
C222 H208 0.930 . S
C222 C220 1.395 . S
C222 C225 1.403 . S
C223 C220 1.403 . S
C223 C224 1.524 . S
C223 C227 1.400 . S
C224 H209 0.960 . S
C224 H210 0.960 . S
C224 H211 0.960 . S
C224 C223 1.524 . S
C225 C222 1.403 . S
C225 C226 1.392 . S
C225 C229 1.495 . S
C226 C225 1.392 . S
C226 C227 1.385 . S
C226 C228 1.478 . S
C227 H221 0.930 . S
C227 C223 1.400 . S
C227 C226 1.385 . S
C228 C226 1.478 . S
C228 C230 1.381 . S
C228 C234 1.383 . S
C229 C225 1.495 . S
C229 H235 0.959 . S
C229 H236 0.961 . S
C229 H237 0.960 . S
C230 C228 1.381 . S
C230 C231 1.394 . S
C230 H238 0.930 . S
C231 C230 1.394 . S
C231 C232 1.383 . S
C231 H239 0.929 . S
C232 C231 1.383 . S
C232 C233 1.377 . S
C233 H217 0.930 . S
C233 C232 1.377 . S
C233 C234 1.379 . S
C234 H218 0.931 . S
C234 C228 1.383 . S
C234 C233 1.379 . S
H235 C229 0.959 . S
H236 C229 0.961 . S
H237 C229 0.960 . S
H238 C230 0.930 . S
H239 C231 0.929 . S
H240 C248 0.929 . S
H241 C250 0.930 . S
H242 C252 0.930 . S
H243 C255 0.929 . S
H244 C258 0.930 . S
H245 C260 0.960 . S
H246 C260 0.960 . S
H247 C260 0.960 . S
C248 H240 0.929 . S
C248 C249 1.377 . S
C248 C250 1.384 . S
C249 C248 1.377 . S
C249 C255 1.390 . S
C250 H241 0.930 . S
C250 C248 1.384 . S
C250 C251 1.372 . S
C251 C250 1.372 . S
C251 C252 1.400 . S
C251 C256 1.490 . S
C252 H242 0.930 . S
C252 C251 1.400 . S
C252 C255 1.386 . S
H253 C269 0.930 . S
H254 C270 0.931 . S
C255 H243 0.929 . S
C255 C249 1.390 . S
C255 C252 1.386 . S
C256 C251 1.490 . S
C256 C258 1.395 . S
C256 C259 1.403 . S
H257 C263 0.930 . S
C258 H244 0.930 . S
C258 C256 1.395 . S
C258 C261 1.403 . S
C259 C256 1.403 . S
C259 C260 1.524 . S
C259 C263 1.400 . S
C260 H245 0.960 . S
C260 H246 0.960 . S
C260 H247 0.960 . S
C260 C259 1.524 . S
C261 C258 1.403 . S
C261 C262 1.392 . S
C261 C265 1.495 . S
C262 C261 1.392 . S
C262 C263 1.385 . S
C262 C264 1.478 . S
C263 H257 0.930 . S
C263 C259 1.400 . S
C263 C262 1.385 . S
C264 C262 1.478 . S
C264 C266 1.381 . S
C264 C270 1.383 . S
C265 C261 1.495 . S
C265 H271 0.959 . S
C265 H272 0.961 . S
C265 H273 0.960 . S
C266 C264 1.381 . S
C266 C267 1.394 . S
C266 H274 0.930 . S
C267 C266 1.394 . S
C267 C268 1.383 . S
C267 H275 0.929 . S
C268 C267 1.383 . S
C268 C269 1.377 . S
C269 H253 0.930 . S
C269 C268 1.377 . S
C269 C270 1.379 . S
C270 H254 0.931 . S
C270 C264 1.383 . S
C270 C269 1.379 . S
H271 C265 0.959 . S
H272 C265 0.961 . S
H273 C265 0.960 . S
H274 C266 0.930 . S
H275 C267 0.929 . S
H276 C284 0.929 . S
H277 C286 0.930 . S
H278 C288 0.930 . S
H279 C291 0.929 . S
H280 C294 0.930 . S
H281 C296 0.960 . S
H282 C296 0.960 . S
H283 C296 0.960 . S
C284 H276 0.929 . S
C284 C285 1.377 . S
C284 C286 1.384 . S
C285 C284 1.377 . S
C285 C291 1.390 . S
C286 H277 0.930 . S
C286 C284 1.384 . S
C286 C287 1.372 . S
C287 C286 1.372 . S
C287 C288 1.400 . S
C287 C292 1.490 . S
C288 H278 0.930 . S
C288 C287 1.400 . S
C288 C291 1.386 . S
H289 C305 0.930 . S
H290 C306 0.931 . S
C291 H279 0.929 . S
C291 C285 1.390 . S
C291 C288 1.386 . S
C292 C287 1.490 . S
C292 C294 1.395 . S
C292 C295 1.403 . S
H293 C299 0.930 . S
C294 H280 0.930 . S
C294 C292 1.395 . S
C294 C297 1.403 . S
C295 C292 1.403 . S
C295 C296 1.524 . S
C295 C299 1.400 . S
C296 H281 0.960 . S
C296 H282 0.960 . S
C296 H283 0.960 . S
C296 C295 1.524 . S
C297 C294 1.403 . S
C297 C298 1.392 . S
C297 C301 1.495 . S
C298 C297 1.392 . S
C298 C299 1.385 . S
C298 C300 1.478 . S
C299 H293 0.930 . S
C299 C295 1.400 . S
C299 C298 1.385 . S
C300 C298 1.478 . S
C300 C302 1.381 . S
C300 C306 1.383 . S
C301 C297 1.495 . S
C301 H307 0.959 . S
C301 H308 0.961 . S
C301 H309 0.960 . S
C302 C300 1.381 . S
C302 C303 1.394 . S
C302 H310 0.930 . S
C303 C302 1.394 . S
C303 C304 1.383 . S
C303 H311 0.929 . S
C304 C303 1.383 . S
C304 C305 1.377 . S
C305 H289 0.930 . S
C305 C304 1.377 . S
C305 C306 1.379 . S
C306 H290 0.931 . S
C306 C300 1.383 . S
C306 C305 1.379 . S
H307 C301 0.959 . S
H308 C301 0.961 . S
H309 C301 0.960 . S
H310 C302 0.930 . S
H311 C303 0.929 . S
H312 C320 0.929 . S
H313 C322 0.930 . S
H314 C324 0.930 . S
H315 C327 0.929 . S
H316 C330 0.930 . S
H317 C332 0.960 1_554 S
H318 C332 0.960 . S
H319 C332 0.960 . S
C320 H312 0.929 . S
C320 C321 1.377 . S
C320 C322 1.384 . S
C321 C320 1.377 . S
C321 C327 1.390 . S
C322 H313 0.930 . S
C322 C320 1.384 . S
C322 C323 1.372 . S
C323 C322 1.372 . S
C323 C324 1.400 . S
C323 C328 1.490 . S
C324 H314 0.930 . S
C324 C323 1.400 . S
C324 C327 1.386 . S
H325 C341 0.930 . S
H326 C342 0.931 . S
C327 H315 0.929 . S
C327 C321 1.390 . S
C327 C324 1.386 . S
C328 C323 1.490 . S
C328 C330 1.395 . S
C328 C331 1.403 . S
H329 C335 0.949 . S
C330 H316 0.930 . S
C330 C328 1.395 . S
C330 C333 1.403 . S
C331 C328 1.403 . S
C331 C332 1.524 . S
C331 C335 1.386 1_556 S
C332 H317 0.960 1_556 S
C332 H318 0.960 . S
C332 H319 0.960 . S
C332 C331 1.524 . S
C333 C330 1.403 . S
C333 C334 1.392 . S
C333 C337 1.495 . S
C334 C333 1.392 . S
C334 C335 1.382 1_556 S
C334 C336 1.478 1_556 S
C335 H329 0.949 . S
C335 C331 1.386 1_554 S
C335 C334 1.382 1_554 S
C336 C334 1.478 1_554 S
C336 C338 1.381 . S
C336 C342 1.383 . S
C337 C333 1.495 . S
C337 H343 0.959 . S
C337 H344 0.961 . S
C337 H345 0.960 . S
C338 C336 1.381 . S
C338 C339 1.394 . S
C338 H346 0.930 1_554 S
C339 C338 1.394 . S
C339 C340 1.383 . S
C339 H347 0.929 . S
C340 C339 1.383 . S
C340 C341 1.377 . S
C341 H325 0.930 . S
C341 C340 1.377 . S
C341 C342 1.379 . S
C342 H326 0.931 . S
C342 C336 1.383 . S
C342 C341 1.379 . S
H343 C337 0.959 . S
H344 C337 0.961 . S
H345 C337 0.960 . S
H346 C338 0.930 1_556 S
H347 C339 0.929 . S
H348 C356 0.929 . S
H349 C358 0.930 . S
H350 C360 0.930 . S
H351 C363 0.929 . S
H352 C366 0.930 . S
H353 C368 0.960 . S
H354 C368 0.960 . S
H355 C368 0.960 . S
C356 H348 0.929 . S
C356 C357 1.377 . S
C356 C358 1.384 . S
C357 C356 1.377 . S
C357 C363 1.390 . S
C358 H349 0.930 . S
C358 C356 1.384 . S
C358 C359 1.372 . S
C359 C358 1.372 . S
C359 C360 1.400 . S
C359 C364 1.490 . S
C360 H350 0.930 . S
C360 C359 1.400 . S
C360 C363 1.386 . S
H361 C377 0.930 . S
H362 C378 0.931 . S
C363 H351 0.929 . S
C363 C357 1.390 . S
C363 C360 1.386 . S
C364 C359 1.490 . S
C364 C366 1.395 . S
C364 C367 1.403 . S
H365 C371 0.930 . S
C366 H352 0.930 . S
C366 C364 1.395 . S
C366 C369 1.403 . S
C367 C364 1.403 . S
C367 C368 1.524 . S
C367 C371 1.400 . S
C368 H353 0.960 . S
C368 H354 0.960 . S
C368 H355 0.960 . S
C368 C367 1.524 . S
C369 C366 1.403 . S
C369 C370 1.392 . S
C369 C373 1.495 . S
C370 C369 1.392 . S
C370 C371 1.385 . S
C370 C372 1.478 . S
C371 H365 0.930 . S
C371 C367 1.400 . S
C371 C370 1.385 . S
C372 C370 1.478 . S
C372 C374 1.381 . S
C372 C378 1.383 . S
C373 C369 1.495 . S
C373 H379 0.959 . S
C373 H380 0.961 . S
C373 H381 0.960 . S
C374 C372 1.381 . S
C374 C375 1.394 1_554 S
C374 H382 0.930 . S
C375 C374 1.394 1_556 S
C375 C376 1.383 . S
C375 H383 0.929 . S
C376 C375 1.383 . S
C376 C377 1.377 1_556 S
C377 H361 0.930 . S
C377 C376 1.377 1_554 S
C377 C378 1.379 . S
C378 H362 0.931 . S
C378 C372 1.383 . S
C378 C377 1.379 . S
H379 C373 0.959 . S
H380 C373 0.961 . S
H381 C373 0.960 . S
H382 C374 0.930 . S
H383 C375 0.929 . S
H384 C392 0.929 . S
H385 C394 0.930 . S
H386 C396 0.930 . S
H387 C399 0.929 . S
H388 C402 0.930 . S
H389 C404 0.960 . S
H390 C404 0.960 . S
H391 C404 0.960 . S
C392 H384 0.929 . S
C392 C393 1.377 . S
C392 C394 1.384 . S
C393 C392 1.377 . S
C393 C399 1.390 . S
C394 H385 0.930 . S
C394 C392 1.384 . S
C394 C395 1.372 . S
C395 C394 1.372 . S
C395 C396 1.400 . S
C395 C400 1.490 . S
C396 H386 0.930 . S
C396 C395 1.400 . S
C396 C399 1.386 . S
H397 C413 0.930 . S
H398 C414 0.931 . S
C399 H387 0.929 . S
C399 C393 1.390 . S
C399 C396 1.386 . S
C400 C395 1.490 . S
C400 C402 1.395 . S
C400 C403 1.403 . S
H401 C407 0.930 . S
C402 H388 0.930 . S
C402 C400 1.395 . S
C402 C405 1.403 . S
C403 C400 1.403 . S
C403 C404 1.524 . S
C403 C407 1.400 . S
C404 H389 0.960 . S
C404 H390 0.960 . S
C404 H391 0.960 . S
C404 C403 1.524 . S
C405 C402 1.403 . S
C405 C406 1.392 . S
C405 C409 1.495 . S
C406 C405 1.392 . S
C406 C407 1.385 . S
C406 C408 1.478 . S
C407 H401 0.930 . S
C407 C403 1.400 . S
C407 C406 1.385 . S
C408 C406 1.478 . S
C408 C410 1.381 . S
C408 C414 1.383 . S
C409 C405 1.495 . S
C409 H415 0.959 . S
C409 H416 0.961 . S
C409 H417 0.960 . S
C410 C408 1.381 . S
C410 C411 1.394 . S
C410 H418 0.930 . S
C411 C410 1.394 . S
C411 C412 1.383 . S
C411 H419 0.929 . S
C412 C411 1.383 . S
C412 C413 1.377 . S
C413 H397 0.930 . S
C413 C412 1.377 . S
C413 C414 1.379 . S
C414 H398 0.931 . S
C414 C408 1.383 . S
C414 C413 1.379 . S
H415 C409 0.959 . S
H416 C409 0.961 . S
H417 C409 0.960 . S
H418 C410 0.930 . S
H419 C411 0.929 . S
H420 C428 0.929 . S
H421 C430 0.930 . S
H422 C432 0.930 . S
H423 C435 0.929 . S
H424 C438 0.930 . S
H425 C440 0.960 . S
H426 C440 0.960 . S
H427 C440 0.960 . S
C428 H420 0.929 . S
C428 C429 1.377 . S
C428 C430 1.384 . S
C429 C428 1.377 . S
C429 C435 1.390 . S
C430 H421 0.930 . S
C430 C428 1.384 . S
C430 C431 1.372 . S
C431 C430 1.372 . S
C431 C432 1.400 . S
C431 C436 1.490 . S
C432 H422 0.930 . S
C432 C431 1.400 . S
C432 C435 1.386 . S
H433 C449 0.930 . S
H434 C450 0.931 . S
C435 H423 0.929 . S
C435 C429 1.390 . S
C435 C432 1.386 . S
C436 C431 1.490 . S
C436 C438 1.395 . S
C436 C439 1.403 . S
H437 C443 0.930 . S
C438 H424 0.930 . S
C438 C436 1.395 . S
C438 C441 1.403 . S
C439 C436 1.403 . S
C439 C440 1.524 . S
C439 C443 1.400 . S
C440 H425 0.960 . S
C440 H426 0.960 . S
C440 H427 0.960 . S
C440 C439 1.524 . S
C441 C438 1.403 . S
C441 C442 1.392 . S
C441 C445 1.495 . S
C442 C441 1.392 . S
C442 C443 1.385 . S
C442 C444 1.478 . S
C443 H437 0.930 . S
C443 C439 1.400 . S
C443 C442 1.385 . S
C444 C442 1.478 . S
C444 C446 1.381 . S
C444 C450 1.383 . S
C445 C441 1.495 . S
C445 H451 0.959 . S
C445 H452 0.961 . S
C445 H453 0.960 . S
C446 C444 1.381 . S
C446 C447 1.394 . S
C446 H454 0.930 . S
C447 C446 1.394 . S
C447 C448 1.383 . S
C447 H455 0.929 . S
C448 C447 1.383 . S
C448 C449 1.377 . S
C449 H433 0.930 . S
C449 C448 1.377 . S
C449 C450 1.379 . S
C450 H434 0.931 . S
C450 C444 1.383 . S
C450 C449 1.379 . S
H451 C445 0.959 . S
H452 C445 0.961 . S
H453 C445 0.960 . S
H454 C446 0.930 . S
H455 C447 0.929 . S
H456 C464 0.929 . S
H457 C466 0.930 . S
H458 C468 0.930 . S
H459 C471 0.929 . S
H460 C474 0.930 . S
H461 C476 0.960 . S
H462 C476 0.960 . S
H463 C476 0.960 . S
C464 H456 0.929 . S
C464 C465 1.377 . S
C464 C466 1.384 . S
C465 C464 1.377 . S
C465 C471 1.390 . S
C466 H457 0.930 . S
C466 C464 1.384 . S
C466 C467 1.372 . S
C467 C466 1.372 . S
C467 C468 1.400 . S
C467 C472 1.490 . S
C468 H458 0.930 . S
C468 C467 1.400 . S
C468 C471 1.386 . S
H469 C485 0.930 . S
H470 C486 0.931 . S
C471 H459 0.929 . S
C471 C465 1.390 . S
C471 C468 1.386 . S
C472 C467 1.490 . S
C472 C474 1.395 . S
C472 C475 1.403 . S
H473 C479 0.930 . S
C474 H460 0.930 . S
C474 C472 1.395 . S
C474 C477 1.403 . S
C475 C472 1.403 . S
C475 C476 1.524 . S
C475 C479 1.400 . S
C476 H461 0.960 . S
C476 H462 0.960 . S
C476 H463 0.960 . S
C476 C475 1.524 . S
C477 C474 1.403 . S
C477 C478 1.392 . S
C477 C481 1.495 . S
C478 C477 1.392 . S
C478 C479 1.385 . S
C478 C480 1.478 . S
C479 H473 0.930 . S
C479 C475 1.400 . S
C479 C478 1.385 . S
C480 C478 1.478 . S
C480 C482 1.381 . S
C480 C486 1.383 . S
C481 C477 1.495 . S
C481 H487 0.959 . S
C481 H488 0.961 . S
C481 H489 0.960 . S
C482 C480 1.381 . S
C482 C483 1.394 . S
C482 H490 0.930 . S
C483 C482 1.394 . S
C483 C484 1.383 . S
C483 H491 0.929 . S
C484 C483 1.383 . S
C484 C485 1.377 . S
C485 H469 0.930 . S
C485 C484 1.377 . S
C485 C486 1.379 . S
C486 H470 0.931 . S
C486 C480 1.383 . S
C486 C485 1.379 . S
H487 C481 0.959 . S
H488 C481 0.961 . S
H489 C481 0.960 . S
H490 C482 0.930 . S
H491 C483 0.929 . S
H492 C500 0.929 . S
H493 C502 0.930 . S
H494 C504 0.930 . S
H495 C507 0.929 . S
H496 C510 0.930 . S
H497 C512 0.960 . S
H498 C512 0.960 . S
H499 C512 0.960 . S
C500 H492 0.929 . S
C500 C501 1.377 . S
C500 C502 1.384 . S
C501 C500 1.377 . S
C501 C507 1.390 . S
C502 H493 0.930 . S
C502 C500 1.384 . S
C502 C503 1.372 . S
C503 C502 1.372 . S
C503 C504 1.400 . S
C503 C508 1.490 . S
C504 H494 0.930 . S
C504 C503 1.400 . S
C504 C507 1.386 . S
H505 C521 0.930 . S
H506 C522 0.931 . S
C507 H495 0.929 . S
C507 C501 1.390 . S
C507 C504 1.386 . S
C508 C503 1.490 . S
C508 C510 1.395 . S
C508 C511 1.403 . S
H509 C515 0.930 . S
C510 H496 0.930 . S
C510 C508 1.395 . S
C510 C513 1.403 . S
C511 C508 1.403 . S
C511 C512 1.524 . S
C511 C515 1.400 . S
C512 H497 0.960 . S
C512 H498 0.960 . S
C512 H499 0.960 . S
C512 C511 1.524 . S
C513 C510 1.403 . S
C513 C514 1.392 . S
C513 C517 1.495 . S
C514 C513 1.392 . S
C514 C515 1.385 . S
C514 C516 1.478 . S
C515 H509 0.930 . S
C515 C511 1.400 . S
C515 C514 1.385 . S
C516 C514 1.478 . S
C516 C518 1.381 . S
C516 C522 1.383 . S
C517 C513 1.495 . S
C517 H523 0.959 . S
C517 H524 0.961 . S
C517 H525 0.960 . S
C518 C516 1.381 . S
C518 C519 1.394 . S
C518 H526 0.930 . S
C519 C518 1.394 . S
C519 C520 1.383 . S
C519 H527 0.929 . S
C520 C519 1.383 . S
C520 C521 1.377 . S
C521 H505 0.930 . S
C521 C520 1.377 . S
C521 C522 1.379 . S
C522 H506 0.931 . S
C522 C516 1.383 . S
C522 C521 1.379 . S
H523 C517 0.959 . S
H524 C517 0.961 . S
H525 C517 0.960 . S
H526 C518 0.930 . S
H527 C519 0.929 . S
H528 C536 0.929 . S
H529 C538 0.930 . S
H530 C540 0.930 . S
H531 C543 0.929 . S
H532 C546 0.930 . S
H533 C548 0.960 . S
H534 C548 0.960 . S
H535 C548 0.960 . S
C536 H528 0.929 . S
C536 C537 1.377 . S
C536 C538 1.384 . S
C537 C536 1.377 . S
C537 C543 1.390 . S
C538 H529 0.930 . S
C538 C536 1.384 . S
C538 C539 1.372 . S
C539 C538 1.372 . S
C539 C540 1.400 . S
C539 C544 1.490 . S
C540 H530 0.930 . S
C540 C539 1.400 . S
C540 C543 1.386 . S
H541 C557 0.930 . S
H542 C558 0.931 . S
C543 H531 0.929 . S
C543 C537 1.390 . S
C543 C540 1.386 . S
C544 C539 1.490 . S
C544 C546 1.395 . S
C544 C547 1.403 . S
H545 C551 0.930 . S
C546 H532 0.930 . S
C546 C544 1.395 . S
C546 C549 1.403 . S
C547 C544 1.403 . S
C547 C548 1.524 . S
C547 C551 1.400 . S
C548 H533 0.960 . S
C548 H534 0.960 . S
C548 H535 0.960 . S
C548 C547 1.524 . S
C549 C546 1.403 . S
C549 C550 1.392 . S
C549 C553 1.495 . S
C550 C549 1.392 . S
C550 C551 1.385 . S
C550 C552 1.478 . S
C551 H545 0.930 . S
C551 C547 1.400 . S
C551 C550 1.385 . S
C552 C550 1.478 . S
C552 C554 1.381 . S
C552 C558 1.383 . S
C553 C549 1.495 . S
C553 H559 0.959 . S
C553 H560 0.961 . S
C553 H561 0.960 . S
C554 C552 1.381 . S
C554 C555 1.394 . S
C554 H562 0.930 . S
C555 C554 1.394 . S
C555 C556 1.383 . S
C555 H563 0.929 . S
C556 C555 1.383 . S
C556 C557 1.377 . S
C557 H541 0.930 . S
C557 C556 1.377 . S
C557 C558 1.379 . S
C558 H542 0.931 . S
C558 C552 1.383 . S
C558 C557 1.379 . S
H559 C553 0.959 . S
H560 C553 0.961 . S
H561 C553 0.960 . S
H562 C554 0.930 . S
H563 C555 0.929 . S
H564 C572 0.929 . S
H565 C574 0.930 1_554 S
H566 C576 0.930 . S
H567 C579 0.929 . S
H568 C582 0.930 . S
H569 C584 0.960 . S
H570 C584 0.960 . S
H571 C584 0.960 . S
C572 H564 0.929 . S
C572 C573 1.377 . S
C572 C574 1.384 . S
C573 C572 1.377 . S
C573 C579 1.390 . S
C574 H565 0.930 1_556 S
C574 C572 1.384 . S
C574 C575 1.372 . S
C575 C574 1.372 . S
C575 C576 1.400 . S
C575 C580 1.490 . S
C576 H566 0.930 . S
C576 C575 1.400 . S
C576 C579 1.386 . S
H577 C593 0.930 . S
H578 C594 0.931 . S
C579 H567 0.929 . S
C579 C573 1.390 . S
C579 C576 1.386 . S
C580 C575 1.490 . S
C580 C582 1.395 . S
C580 C583 1.403 . S
H581 C587 0.930 . S
C582 H568 0.930 . S
C582 C580 1.395 . S
C582 C585 1.403 . S
C583 C580 1.403 . S
C583 C584 1.524 . S
C583 C587 1.400 . S
C584 H569 0.960 . S
C584 H570 0.960 . S
C584 H571 0.960 . S
C584 C583 1.524 . S
C585 C582 1.403 . S
C585 C586 1.392 . S
C585 C589 1.495 1_556 S
C586 C585 1.392 . S
C586 C587 1.385 . S
C586 C588 1.478 . S
C587 H581 0.930 . S
C587 C583 1.400 . S
C587 C586 1.385 . S
C588 C586 1.478 . S
C588 C590 1.381 1_556 S
C588 C594 1.383 . S
C589 C585 1.495 1_554 S
C589 H595 0.959 . S
C589 H596 0.961 1_554 S
C589 H597 0.960 . S
C590 C588 1.381 1_554 S
C590 C591 1.394 . S
C590 H598 0.930 . S
C591 C590 1.394 . S
C591 C592 1.383 . S
C591 H599 0.929 . S
C592 C591 1.383 . S
C592 C593 1.377 1_554 S
C593 H577 0.930 . S
C593 C592 1.377 1_556 S
C593 C594 1.379 . S
C594 H578 0.931 . S
C594 C588 1.383 . S
C594 C593 1.379 . S
H595 C589 0.959 . S
H596 C589 0.961 1_556 S
H597 C589 0.960 . S
H598 C590 0.930 . S
H599 C591 0.929 . S
H600 C608 0.929 . S
H601 C610 0.930 . S
H602 C612 0.930 . S
H603 C615 0.929 . S
H604 C618 0.930 . S
H605 C620 0.960 . S
H606 C620 0.960 . S
H607 C620 0.960 . S
C608 H600 0.929 . S
C608 C609 1.377 . S
C608 C610 1.384 . S
C609 C608 1.377 . S
C609 C615 1.390 . S
C610 H601 0.930 . S
C610 C608 1.384 . S
C610 C611 1.372 . S
C611 C610 1.372 . S
C611 C612 1.400 . S
C611 C616 1.490 . S
C612 H602 0.930 . S
C612 C611 1.400 . S
C612 C615 1.386 . S
H613 C629 0.930 . S
H614 C630 0.931 . S
C615 H603 0.929 . S
C615 C609 1.390 . S
C615 C612 1.386 . S
C616 C611 1.490 . S
C616 C618 1.395 . S
C616 C619 1.403 . S
H617 C623 0.930 . S
C618 H604 0.930 . S
C618 C616 1.395 . S
C618 C621 1.403 . S
C619 C616 1.403 . S
C619 C620 1.524 . S
C619 C623 1.400 . S
C620 H605 0.960 . S
C620 H606 0.960 . S
C620 H607 0.960 . S
C620 C619 1.524 . S
C621 C618 1.403 . S
C621 C622 1.392 . S
C621 C625 1.495 . S
C622 C621 1.392 . S
C622 C623 1.385 . S
C622 C624 1.478 . S
C623 H617 0.930 . S
C623 C619 1.400 . S
C623 C622 1.385 . S
C624 C622 1.478 . S
C624 C626 1.381 . S
C624 C630 1.383 . S
C625 C621 1.495 . S
C625 H631 0.959 . S
C625 H632 0.961 . S
C625 H633 0.960 . S
C626 C624 1.381 . S
C626 C627 1.394 . S
C626 H634 0.930 . S
C627 C626 1.394 . S
C627 C628 1.383 . S
C627 H635 0.929 . S
C628 C627 1.383 . S
C628 C629 1.377 . S
C629 H613 0.930 . S
C629 C628 1.377 . S
C629 C630 1.379 . S
C630 H614 0.931 . S
C630 C624 1.383 . S
C630 C629 1.379 . S
H631 C625 0.959 . S
H632 C625 0.961 . S
H633 C625 0.960 . S
H634 C626 0.930 . S
H635 C627 0.929 . S
H636 C644 0.929 . S
H637 C646 0.930 . S
H638 C648 0.930 . S
H639 C651 0.929 . S
H640 C654 0.930 . S
H641 C656 0.960 . S
H642 C656 0.960 . S
H643 C656 0.960 . S
C644 H636 0.929 . S
C644 C645 1.377 . S
C644 C646 1.384 . S
C645 C644 1.377 . S
C645 C651 1.390 . S
C646 H637 0.930 . S
C646 C644 1.384 . S
C646 C647 1.372 . S
C647 C646 1.372 . S
C647 C648 1.400 . S
C647 C652 1.490 1_554 S
C648 H638 0.930 . S
C648 C647 1.400 . S
C648 C651 1.386 . S
H649 C665 0.930 . S
H650 C666 0.931 . S
C651 H639 0.929 . S
C651 C645 1.390 . S
C651 C648 1.386 . S
C652 C647 1.490 1_556 S
C652 C654 1.395 . S
C652 C655 1.403 1_556 S
H653 C659 0.930 . S
C654 H640 0.930 . S
C654 C652 1.395 . S
C654 C657 1.403 . S
C655 C652 1.403 1_554 S
C655 C656 1.524 . S
C655 C659 1.400 1_554 S
C656 H641 0.960 . S
C656 H642 0.960 . S
C656 H643 0.960 . S
C656 C655 1.524 . S
C657 C654 1.403 . S
C657 C658 1.392 . S
C657 C661 1.495 . S
C658 C657 1.392 . S
C658 C659 1.385 . S
C658 C660 1.478 . S
C659 H653 0.930 . S
C659 C655 1.400 1_556 S
C659 C658 1.385 . S
C660 C658 1.478 . S
C660 C662 1.381 . S
C660 C666 1.383 . S
C661 C657 1.495 . S
C661 H667 0.959 . S
C661 H668 0.961 . S
C661 H669 0.960 . S
C662 C660 1.381 . S
C662 C663 1.394 . S
C662 H670 0.930 . S
C663 C662 1.394 . S
C663 C664 1.383 . S
C663 H671 0.929 . S
C664 C663 1.383 . S
C664 C665 1.377 . S
C665 H649 0.930 . S
C665 C664 1.377 . S
C665 C666 1.379 . S
C666 H650 0.931 . S
C666 C660 1.383 . S
C666 C665 1.379 . S
H667 C661 0.959 . S
H668 C661 0.961 . S
H669 C661 0.960 . S
H670 C662 0.930 . S
H671 C663 0.929 . S
H672 C680 0.929 . S
H673 C682 0.930 . S
H674 C684 0.930 . S
H675 C687 0.929 . S
H676 C690 0.930 . S
H677 C692 0.960 . S
H678 C692 0.960 . S
H679 C692 0.960 . S
C680 H672 0.929 . S
C680 C681 1.377 . S
C680 C682 1.384 . S
C681 C680 1.377 . S
C681 C687 1.390 . S
C682 H673 0.930 . S
C682 C680 1.384 . S
C682 C683 1.372 . S
C683 C682 1.372 . S
C683 C684 1.400 . S
C683 C688 1.490 . S
C684 H674 0.930 . S
C684 C683 1.400 . S
C684 C687 1.386 . S
H685 C701 0.930 . S
H686 C702 0.931 . S
C687 H675 0.929 . S
C687 C681 1.390 . S
C687 C684 1.386 . S
C688 C683 1.490 . S
C688 C690 1.395 . S
C688 C691 1.403 . S
H689 C695 0.930 . S
C690 H676 0.930 . S
C690 C688 1.395 . S
C690 C693 1.403 . S
C691 C688 1.403 . S
C691 C692 1.524 . S
C691 C695 1.400 . S
C692 H677 0.960 . S
C692 H678 0.960 . S
C692 H679 0.960 . S
C692 C691 1.524 . S
C693 C690 1.403 . S
C693 C694 1.392 . S
C693 C697 1.495 . S
C694 C693 1.392 . S
C694 C695 1.385 . S
C694 C696 1.478 . S
C695 H689 0.930 . S
C695 C691 1.400 . S
C695 C694 1.385 . S
C696 C694 1.478 . S
C696 C698 1.381 . S
C696 C702 1.383 . S
C697 C693 1.495 . S
C697 H703 0.959 . S
C697 H704 0.961 . S
C697 H705 0.960 . S
C698 C696 1.381 . S
C698 C699 1.394 1_554 S
C698 H706 0.930 . S
C699 C698 1.394 1_556 S
C699 C700 1.383 . S
C699 H707 0.929 . S
C700 C699 1.383 . S
C700 C701 1.377 . S
C701 H685 0.930 . S
C701 C700 1.377 . S
C701 C702 1.379 1_556 S
C702 H686 0.931 . S
C702 C696 1.383 . S
C702 C701 1.379 1_554 S
H703 C697 0.959 . S
H704 C697 0.961 . S
H705 C697 0.960 . S
H706 C698 0.930 . S
H707 C699 0.929 . S
H708 C716 0.929 . S
H709 C718 0.930 . S
H710 C720 0.930 . S
H711 C723 0.929 . S
H712 C726 0.930 . S
H713 C728 0.960 . S
H714 C728 0.960 . S
H715 C728 0.960 . S
C716 H708 0.929 . S
C716 C717 1.377 . S
C716 C718 1.384 . S
C717 C716 1.377 . S
C717 C723 1.390 . S
C718 H709 0.930 . S
C718 C716 1.384 . S
C718 C719 1.372 . S
C719 C718 1.372 . S
C719 C720 1.400 . S
C719 C724 1.490 . S
C720 H710 0.930 . S
C720 C719 1.400 . S
C720 C723 1.386 . S
H721 C737 0.930 . S
H722 C738 0.931 . S
C723 H711 0.929 . S
C723 C717 1.390 . S
C723 C720 1.386 . S
C724 C719 1.490 . S
C724 C726 1.395 . S
C724 C727 1.403 . S
H725 C731 0.930 . S
C726 H712 0.930 . S
C726 C724 1.395 . S
C726 C729 1.403 . S
C727 C724 1.403 . S
C727 C728 1.524 . S
C727 C731 1.400 . S
C728 H713 0.960 . S
C728 H714 0.960 . S
C728 H715 0.960 . S
C728 C727 1.524 . S
C729 C726 1.403 . S
C729 C730 1.392 . S
C729 C733 1.495 . S
C730 C729 1.392 . S
C730 C731 1.385 . S
C730 C732 1.478 . S
C731 H725 0.930 . S
C731 C727 1.400 . S
C731 C730 1.385 . S
C732 C730 1.478 . S
C732 C734 1.381 . S
C732 C738 1.383 . S
C733 C729 1.495 . S
C733 H739 0.959 . S
C733 H740 0.961 . S
C733 H741 0.960 . S
C734 C732 1.381 . S
C734 C735 1.394 . S
C734 H742 0.930 . S
C735 C734 1.394 . S
C735 C736 1.383 . S
C735 H743 0.929 . S
C736 C735 1.383 . S
C736 C737 1.377 . S
C737 H721 0.930 . S
C737 C736 1.377 . S
C737 C738 1.379 . S
C738 H722 0.931 . S
C738 C732 1.383 . S
C738 C737 1.379 . S
H739 C733 0.959 . S
H740 C733 0.961 . S
H741 C733 0.960 . S
H742 C734 0.930 . S
H743 C735 0.929 . S
H744 C752 0.929 . S
H745 C754 0.930 . S
H746 C756 0.930 . S
H747 C759 0.929 . S
H748 C762 0.930 . S
H749 C764 0.960 . S
H750 C764 0.960 . S
H751 C764 0.960 . S
C752 H744 0.929 . S
C752 C753 1.377 . S
C752 C754 1.384 . S
C753 C752 1.377 . S
C753 C759 1.390 . S
C754 H745 0.930 . S
C754 C752 1.384 . S
C754 C755 1.372 . S
C755 C754 1.372 . S
C755 C756 1.400 . S
C755 C760 1.490 . S
C756 H746 0.930 . S
C756 C755 1.400 . S
C756 C759 1.386 . S
H757 C773 0.930 . S
H758 C774 0.931 . S
C759 H747 0.929 . S
C759 C753 1.390 . S
C759 C756 1.386 . S
C760 C755 1.490 . S
C760 C762 1.395 . S
C760 C763 1.403 . S
H761 C767 0.930 . S
C762 H748 0.930 . S
C762 C760 1.395 . S
C762 C765 1.403 . S
C763 C760 1.403 . S
C763 C764 1.524 . S
C763 C767 1.400 . S
C764 H749 0.960 . S
C764 H750 0.960 . S
C764 H751 0.960 . S
C764 C763 1.524 . S
C765 C762 1.403 . S
C765 C766 1.392 . S
C765 C769 1.495 . S
C766 C765 1.392 . S
C766 C767 1.385 . S
C766 C768 1.478 . S
C767 H761 0.930 . S
C767 C763 1.400 . S
C767 C766 1.385 . S
C768 C766 1.478 . S
C768 C770 1.381 . S
C768 C774 1.383 . S
C769 C765 1.495 . S
C769 H775 0.959 . S
C769 H776 0.961 . S
C769 H777 0.960 . S
C770 C768 1.381 . S
C770 C771 1.394 . S
C770 H778 0.930 . S
C771 C770 1.394 . S
C771 C772 1.383 . S
C771 H779 0.929 . S
C772 C771 1.383 . S
C772 C773 1.377 . S
C773 H757 0.930 . S
C773 C772 1.377 . S
C773 C774 1.379 . S
C774 H758 0.931 . S
C774 C768 1.383 . S
C774 C773 1.379 . S
H775 C769 0.959 . S
H776 C769 0.961 . S
H777 C769 0.960 . S
H778 C770 0.930 . S
H779 C771 0.929 . S
H780 C788 0.929 . S
H781 C790 0.930 . S
H782 C792 0.930 . S
H783 C795 0.929 . S
H784 C798 0.930 . S
H785 C800 0.960 . S
H786 C800 0.960 . S
H787 C800 0.960 . S
C788 H780 0.929 . S
C788 C789 1.377 . S
C788 C790 1.384 . S
C789 C788 1.377 . S
C789 C795 1.390 . S
C790 H781 0.930 . S
C790 C788 1.384 . S
C790 C791 1.372 . S
C791 C790 1.372 . S
C791 C792 1.400 . S
C791 C796 1.490 . S
C792 H782 0.930 . S
C792 C791 1.400 . S
C792 C795 1.386 . S
H793 C809 0.930 . S
H794 C810 0.931 . S
C795 H783 0.929 . S
C795 C789 1.390 . S
C795 C792 1.386 . S
C796 C791 1.490 . S
C796 C798 1.395 . S
C796 C799 1.403 . S
H797 C803 0.930 . S
C798 H784 0.930 . S
C798 C796 1.395 . S
C798 C801 1.403 . S
C799 C796 1.403 . S
C799 C800 1.524 . S
C799 C803 1.400 . S
C800 H785 0.960 . S
C800 H786 0.960 . S
C800 H787 0.960 . S
C800 C799 1.524 . S
C801 C798 1.403 . S
C801 C802 1.392 . S
C801 C805 1.495 . S
C802 C801 1.392 . S
C802 C803 1.385 . S
C802 C804 1.478 . S
C803 H797 0.930 . S
C803 C799 1.400 . S
C803 C802 1.385 . S
C804 C802 1.478 . S
C804 C806 1.381 . S
C804 C810 1.383 . S
C805 C801 1.495 . S
C805 H811 0.959 . S
C805 H812 0.961 . S
C805 H813 0.960 . S
C806 C804 1.381 . S
C806 C807 1.394 . S
C806 H814 0.930 . S
C807 C806 1.394 . S
C807 C808 1.383 . S
C807 H815 0.929 . S
C808 C807 1.383 . S
C808 C809 1.377 . S
C809 H793 0.930 . S
C809 C808 1.377 . S
C809 C810 1.379 . S
C810 H794 0.931 . S
C810 C804 1.383 . S
C810 C809 1.379 . S
H811 C805 0.959 . S
H812 C805 0.961 . S
H813 C805 0.960 . S
H814 C806 0.930 . S
H815 C807 0.929 . S
H816 C824 0.929 . S
H817 C826 0.930 . S
H818 C828 0.930 . S
H819 C831 0.929 . S
H820 C834 0.930 . S
H821 C836 0.960 . S
H822 C836 0.960 . S
H823 C836 0.960 . S
C824 H816 0.929 . S
C824 C825 1.377 . S
C824 C826 1.384 . S
C825 C824 1.377 . S
C825 C831 1.390 1_556 S
C826 H817 0.930 . S
C826 C824 1.384 . S
C826 C827 1.372 . S
C827 C826 1.372 . S
C827 C828 1.400 . S
C827 C832 1.490 . S
C828 H818 0.930 . S
C828 C827 1.400 . S
C828 C831 1.386 1_556 S
H829 C845 0.930 . S
H830 C846 0.931 . S
C831 H819 0.929 . S
C831 C825 1.390 1_554 S
C831 C828 1.386 1_554 S
C832 C827 1.490 . S
C832 C834 1.395 . S
C832 C835 1.403 . S
H833 C839 0.930 . S
C834 H820 0.930 . S
C834 C832 1.395 . S
C834 C837 1.403 1_455 S
C835 C832 1.403 . S
C835 C836 1.524 . S
C835 C839 1.400 1_455 S
C836 H821 0.960 . S
C836 H822 0.960 . S
C836 H823 0.960 . S
C836 C835 1.524 . S
C837 C834 1.403 1_655 S
C837 C838 1.392 . S
C837 C841 1.495 . S
C838 C837 1.392 . S
C838 C839 1.385 . S
C838 C840 1.478 . S
C839 H833 0.930 . S
C839 C835 1.400 1_655 S
C839 C838 1.385 . S
C840 C838 1.478 . S
C840 C842 1.381 . S
C840 C846 1.383 . S
C841 C837 1.495 . S
C841 H847 0.959 . S
C841 H848 0.961 . S
C841 H849 0.960 . S
C842 C840 1.381 . S
C842 C843 1.394 . S
C842 H850 0.930 . S
C843 C842 1.394 . S
C843 C844 1.383 . S
C843 H851 0.929 . S
C844 C843 1.383 . S
C844 C845 1.377 . S
C845 H829 0.930 . S
C845 C844 1.377 . S
C845 C846 1.379 . S
C846 H830 0.931 . S
C846 C840 1.383 . S
C846 C845 1.379 . S
H847 C841 0.959 . S
H848 C841 0.961 . S
H849 C841 0.960 . S
H850 C842 0.930 . S
H851 C843 0.929 . S
H852 C860 0.929 . S
H853 C862 0.930 . S
H854 C864 0.930 . S
H855 C867 0.929 . S
H856 C870 0.930 . S
H857 C872 0.960 . S
H858 C872 0.960 1_565 S
H859 C872 0.960 1_565 S
C860 H852 0.929 . S
C860 C861 1.377 . S
C860 C862 1.384 1_556 S
C861 C860 1.377 . S
C861 C867 1.390 . S
C862 H853 0.930 . S
C862 C860 1.384 1_554 S
C862 C863 1.372 1_554 S
C863 C862 1.372 1_556 S
C863 C864 1.400 . S
C863 C868 1.490 1_556 S
C864 H854 0.930 . S
C864 C863 1.400 . S
C864 C867 1.386 . S
H865 C881 0.930 . S
H866 C882 0.931 . S
C867 H855 0.929 . S
C867 C861 1.390 . S
C867 C864 1.386 . S
C868 C863 1.490 1_554 S
C868 C870 1.395 . S
C868 C871 1.381 1_564 S
H869 C875 0.930 . S
C870 H856 0.930 . S
C870 C868 1.395 . S
C870 C873 1.403 . S
C871 C868 1.381 1_546 S
C871 C872 1.537 . S
C871 C875 1.409 1_556 S
C872 H857 0.960 . S
C872 H858 0.960 1_545 S
C872 H859 0.960 1_545 S
C872 C871 1.537 . S
C873 C870 1.403 . S
C873 C874 1.392 1_565 S
C873 C877 1.495 . S
C874 C873 1.392 1_545 S
C874 C875 1.385 . S
C874 C876 1.478 . S
C875 H869 0.930 . S
C875 C871 1.409 1_554 S
C875 C874 1.385 . S
C876 C874 1.478 . S
C876 C878 1.381 . S
C876 C882 1.383 . S
C877 C873 1.495 . S
C877 H883 0.959 . S
C877 H884 0.961 1_565 S
C877 H885 0.980 . S
C878 C876 1.381 . S
C878 C879 1.394 . S
C878 H886 0.930 . S
C879 C878 1.394 . S
C879 C880 1.383 . S
C879 H887 0.929 . S
C880 C879 1.383 . S
C880 C881 1.377 . S
C881 H865 0.930 . S
C881 C880 1.377 . S
C881 C882 1.379 . S
C882 H866 0.931 . S
C882 C876 1.383 . S
C882 C881 1.379 . S
H883 C877 0.959 . S
H884 C877 0.961 1_545 S
H885 C877 0.980 . S
H886 C878 0.930 . S
H887 C879 0.929 . S
H888 C896 0.929 . S
H889 C898 0.930 . S
H890 C900 0.930 . S
H891 C903 0.929 . S
H892 C906 0.930 . S
H893 C908 0.960 . S
H894 C908 0.960 . S
H895 C908 0.960 . S
C896 H888 0.929 . S
C896 C897 1.377 . S
C896 C898 1.384 . S
C897 C896 1.377 . S
C897 C903 1.390 . S
C898 H889 0.930 . S
C898 C896 1.384 . S
C898 C899 1.372 . S
C899 C898 1.372 . S
C899 C900 1.400 . S
C899 C904 1.490 . S
C900 H890 0.930 . S
C900 C899 1.400 . S
C900 C903 1.386 . S
H901 C917 0.930 . S
H902 C918 0.931 . S
C903 H891 0.929 . S
C903 C897 1.390 . S
C903 C900 1.386 . S
C904 C899 1.490 . S
C904 C906 1.395 . S
C904 C907 1.403 . S
H905 C911 0.930 . S
C906 H892 0.930 . S
C906 C904 1.395 . S
C906 C909 1.403 . S
C907 C904 1.403 . S
C907 C908 1.524 . S
C907 C911 1.400 . S
C908 H893 0.960 . S
C908 H894 0.960 . S
C908 H895 0.960 . S
C908 C907 1.524 . S
C909 C906 1.403 . S
C909 C910 1.392 . S
C909 C913 1.495 . S
C910 C909 1.392 . S
C910 C911 1.385 . S
C910 C912 1.478 . S
C911 H905 0.930 . S
C911 C907 1.400 . S
C911 C910 1.385 . S
C912 C910 1.478 . S
C912 C914 1.381 . S
C912 C918 1.383 . S
C913 C909 1.495 . S
C913 H919 0.959 . S
C913 H920 0.961 . S
C913 H921 0.960 . S
C914 C912 1.381 . S
C914 C915 1.394 . S
C914 H922 0.930 . S
C915 C914 1.394 . S
C915 C916 1.383 . S
C915 H923 0.929 . S
C916 C915 1.383 . S
C916 C917 1.377 . S
C917 H901 0.930 . S
C917 C916 1.377 . S
C917 C918 1.379 . S
C918 H902 0.931 . S
C918 C912 1.383 . S
C918 C917 1.379 . S
H919 C913 0.959 . S
H920 C913 0.961 . S
H921 C913 0.960 . S
H922 C914 0.930 . S
H923 C915 0.929 . S
H924 C932 0.929 . S
H925 C934 0.930 . S
H926 C936 0.930 . S
H927 C939 0.929 . S
H928 C942 0.930 . S
H929 C944 0.960 . S
H930 C944 0.960 1_455 S
H931 C944 0.960 1_455 S
C932 H924 0.929 . S
C932 C933 1.377 . S
C932 C934 1.384 . S
C933 C932 1.377 . S
C933 C939 1.390 . S
C934 H925 0.930 . S
C934 C932 1.384 . S
C934 C935 1.372 . S
C935 C934 1.372 . S
C935 C936 1.400 . S
C935 C940 1.490 . S
C936 H926 0.930 . S
C936 C935 1.400 . S
C936 C939 1.386 . S
H937 C953 0.930 . S
H938 C954 0.931 . S
C939 H927 0.929 . S
C939 C933 1.390 . S
C939 C936 1.386 . S
C940 C935 1.490 . S
C940 C942 1.395 . S
C940 C943 1.368 1_455 S
H941 C947 0.930 . S
C942 H928 0.930 . S
C942 C940 1.395 . S
C942 C945 1.403 . S
C943 C940 1.368 1_655 S
C943 C944 1.526 . S
C943 C947 1.435 . S
C944 H929 0.960 . S
C944 H930 0.960 1_655 S
C944 H931 0.960 1_655 S
C944 C943 1.526 . S
C945 C942 1.403 . S
C945 C946 1.392 1_455 S
C945 C949 1.495 . S
C946 C945 1.392 1_655 S
C946 C947 1.385 . S
C946 C948 1.478 . S
C947 H941 0.930 . S
C947 C943 1.435 . S
C947 C946 1.385 . S
C948 C946 1.478 . S
C948 C950 1.381 . S
C948 C954 1.383 . S
C949 C945 1.495 . S
C949 H955 0.959 . S
C949 H956 0.961 1_455 S
C949 H957 0.959 . S
C950 C948 1.381 . S
C950 C951 1.394 . S
C950 H958 0.930 . S
C951 C950 1.394 . S
C951 C952 1.383 . S
C951 H959 0.929 . S
C952 C951 1.383 . S
C952 C953 1.377 . S
C953 H937 0.930 . S
C953 C952 1.377 . S
C953 C954 1.379 . S
C954 H938 0.931 . S
C954 C948 1.383 . S
C954 C953 1.379 . S
H955 C949 0.959 . S
H956 C949 0.961 1_655 S
H957 C949 0.959 . S
H958 C950 0.930 . S
H959 C951 0.929 . S
H960 C968 0.929 . S
H961 C970 0.930 . S
H962 C972 0.930 . S
H963 C975 0.929 . S
H964 C978 0.930 . S
H965 C980 0.960 . S
H966 C980 0.960 . S
H967 C980 0.960 . S
C968 H960 0.929 . S
C968 C969 1.377 . S
C968 C970 1.384 . S
C969 C968 1.377 . S
C969 C975 1.390 . S
C970 H961 0.930 . S
C970 C968 1.384 . S
C970 C971 1.372 . S
C971 C970 1.372 . S
C971 C972 1.400 . S
C971 C976 1.490 . S
C972 H962 0.930 . S
C972 C971 1.400 . S
C972 C975 1.386 . S
H973 C989 0.930 . S
H974 C990 0.931 . S
C975 H963 0.929 . S
C975 C969 1.390 . S
C975 C972 1.386 . S
C976 C971 1.490 . S
C976 C978 1.395 . S
C976 C979 1.403 . S
H977 C983 0.930 . S
C978 H964 0.930 . S
C978 C976 1.395 . S
C978 C981 1.403 1_545 S
C979 C976 1.403 . S
C979 C980 1.524 . S
C979 C983 1.400 1_545 S
C980 H965 0.960 . S
C980 H966 0.960 . S
C980 H967 0.960 . S
C980 C979 1.524 . S
C981 C978 1.403 1_565 S
C981 C982 1.392 . S
C981 C985 1.495 . S
C982 C981 1.392 . S
C982 C983 1.385 . S
C982 C984 1.478 . S
C983 H977 0.930 . S
C983 C979 1.400 1_565 S
C983 C982 1.385 . S
C984 C982 1.478 . S
C984 C986 1.381 . S
C984 C990 1.383 . S
C985 C981 1.495 . S
C985 H991 0.959 . S
C985 H992 0.961 . S
C985 H993 0.960 . S
C986 C984 1.381 . S
C986 C987 1.394 . S
C986 H994 0.930 . S
C987 C986 1.394 . S
C987 C988 1.383 . S
C987 H995 0.929 . S
C988 C987 1.383 . S
C988 C989 1.377 . S
C989 H973 0.930 . S
C989 C988 1.377 . S
C989 C990 1.379 . S
C990 H974 0.931 . S
C990 C984 1.383 . S
C990 C989 1.379 . S
H991 C985 0.959 . S
H992 C985 0.961 . S
H993 C985 0.960 . S
H994 C986 0.930 . S
H995 C987 0.929 . S
H996 C1004 0.929 . S
H997 C1006 0.930 . S
H998 C1008 0.930 . S
H999 C1011 0.929 . S
H1000 C1014 0.930 . S
H1001 C1016 0.960 . S
H1002 C1016 0.960 . S
H1003 C1016 0.960 . S
C1004 H996 0.929 . S
C1004 C1005 1.377 . S
C1004 C1006 1.384 . S
C1005 C1004 1.377 . S
C1005 C1011 1.390 . S
C1006 H997 0.930 . S
C1006 C1004 1.384 . S
C1006 C1007 1.372 . S
C1007 C1006 1.372 . S
C1007 C1008 1.400 . S
C1007 C1012 1.490 . S
C1008 H998 0.930 . S
C1008 C1007 1.400 . S
C1008 C1011 1.386 . S
H1009 C1025 0.930 . S
H1010 C1026 0.931 . S
C1011 H999 0.929 . S
C1011 C1005 1.390 . S
C1011 C1008 1.386 . S
C1012 C1007 1.490 . S
C1012 C1014 1.395 . S
C1012 C1015 1.403 . S
H1013 C1019 0.930 . S
C1014 H1000 0.930 . S
C1014 C1012 1.395 . S
C1014 C1017 1.403 . S
C1015 C1012 1.403 . S
C1015 C1016 1.524 . S
C1015 C1019 1.400 . S
C1016 H1001 0.960 . S
C1016 H1002 0.960 . S
C1016 H1003 0.960 . S
C1016 C1015 1.524 . S
C1017 C1014 1.403 . S
C1017 C1018 1.392 . S
C1017 C1021 1.495 . S
C1018 C1017 1.392 . S
C1018 C1019 1.385 . S
C1018 C1020 1.478 . S
C1019 H1013 0.930 . S
C1019 C1015 1.400 . S
C1019 C1018 1.385 . S
C1020 C1018 1.478 . S
C1020 C1022 1.381 . S
C1020 C1026 1.383 . S
C1021 C1017 1.495 . S
C1021 H1027 0.959 . S
C1021 H1028 0.961 . S
C1021 H1029 0.960 . S
C1022 C1020 1.381 . S
C1022 C1023 1.394 . S
C1022 H1030 0.930 . S
C1023 C1022 1.394 . S
C1023 C1024 1.383 . S
C1023 H1031 0.929 . S
C1024 C1023 1.383 . S
C1024 C1025 1.377 . S
C1025 H1009 0.930 . S
C1025 C1024 1.377 . S
C1025 C1026 1.379 . S
C1026 H1010 0.931 . S
C1026 C1020 1.383 . S
C1026 C1025 1.379 . S
H1027 C1021 0.959 . S
H1028 C1021 0.961 . S
H1029 C1021 0.960 . S
H1030 C1022 0.930 . S
H1031 C1023 0.929 . S
C177 C8 1.280 . S
C196 C148 1.312 . S
C213 C162 1.290 . S
C232 C22 1.309 . S
C249 C36 1.292 . S
C268 C92 1.254 . S
C285 C50 1.278 . S
C304 C106 1.288 . S
C321 C64 1.292 . S
C340 C120 1.259 . S
C357 C134 1.288 . S
C376 C78 1.316 . S
C393 C13 1.480 . S
C412 C125 1.511 . S
C429 C27 1.487 . S
C448 C139 1.452 . S
C465 C153 1.479 . S
C484 C41 1.491 . S
C501 C55 1.483 . S
C520 C167 1.514 . S
C537 C69 1.480 . S
C556 C97 1.489 . S
C573 C83 1.490 . S
C592 C111 1.452 . S
C609 C147 0.707 . S
C628 C7 0.702 . S
C645 C21 0.708 . S
C664 C161 0.699 . S
C681 C35 0.707 . S
C700 C91 0.707 . S
C717 C49 0.703 . S
C736 C105 0.710 . S
C753 C119 0.709 . S
C772 C63 0.687 . S
C789 C77 0.709 . S
C808 C133 0.691 . S
C825 C11 1.350 1_556 S
C844 C165 1.346 . S
C861 C95 1.356 . S
C880 C25 1.379 . S
C897 C109 1.361 . S
C916 C39 1.351 . S
C933 C123 1.356 . S
C952 C53 1.379 . S
C969 C137 1.351 . S
C988 C67 1.361 . S
C1005 C151 1.358 . S
C1024 C81 1.377 . S
