# Generated by pormake.
# Topology ske, (6)-cn, num edge types: 1
# Building blocks:
#     Node 0, Type 0, BuildingBlock: BETFAJ_clean_sbu_0, # of connection points: 6
#     Node 1, Type 0, BuildingBlock: BETFAJ_clean_sbu_0, # of connection points: 6
#     Node 2, Type 0, BuildingBlock: BETFAJ_clean_sbu_0, # of connection points: 6
#     Node 3, Type 0, BuildingBlock: BETFAJ_clean_sbu_0, # of connection points: 6
#     Node 4, Type 0, BuildingBlock: BETFAJ_clean_sbu_0, # of connection points: 6
#     Node 5, Type 0, BuildingBlock: BETFAJ_clean_sbu_0, # of connection points: 6
#     Node 6, Type 0, BuildingBlock: BETFAJ_clean_sbu_0, # of connection points: 6
#     Node 7, Type 0, BuildingBlock: BETFAJ_clean_sbu_0, # of connection points: 6
#     Edge 8, Type (0, 0), BuildingBlock: ZUJKAS_clean_linker_0, # of connection points: 2
#     Edge 9, Type (0, 0), BuildingBlock: ZUJKAS_clean_linker_0, # of connection points: 2
#     Edge 10, Type (0, 0), BuildingBlock: ZUJKAS_clean_linker_0, # of connection points: 2
#     Edge 11, Type (0, 0), BuildingBlock: ZUJKAS_clean_linker_0, # of connection points: 2
#     Edge 12, Type (0, 0), BuildingBlock: ZUJKAS_clean_linker_0, # of connection points: 2
#     Edge 13, Type (0, 0), BuildingBlock: ZUJKAS_clean_linker_0, # of connection points: 2
#     Edge 14, Type (0, 0), BuildingBlock: ZUJKAS_clean_linker_0, # of connection points: 2
#     Edge 15, Type (0, 0), BuildingBlock: ZUJKAS_clean_linker_0, # of connection points: 2
#     Edge 16, Type (0, 0), BuildingBlock: ZUJKAS_clean_linker_0, # of connection points: 2
#     Edge 17, Type (0, 0), BuildingBlock: ZUJKAS_clean_linker_0, # of connection points: 2
#     Edge 18, Type (0, 0), BuildingBlock: ZUJKAS_clean_linker_0, # of connection points: 2
#     Edge 19, Type (0, 0), BuildingBlock: ZUJKAS_clean_linker_0, # of connection points: 2
#     Edge 20, Type (0, 0), BuildingBlock: ZUJKAS_clean_linker_0, # of connection points: 2
#     Edge 21, Type (0, 0), BuildingBlock: ZUJKAS_clean_linker_0, # of connection points: 2
#     Edge 22, Type (0, 0), BuildingBlock: ZUJKAS_clean_linker_0, # of connection points: 2
#     Edge 23, Type (0, 0), BuildingBlock: ZUJKAS_clean_linker_0, # of connection points: 2
#     Edge 24, Type (0, 0), BuildingBlock: ZUJKAS_clean_linker_0, # of connection points: 2
#     Edge 25, Type (0, 0), BuildingBlock: ZUJKAS_clean_linker_0, # of connection points: 2
#     Edge 26, Type (0, 0), BuildingBlock: ZUJKAS_clean_linker_0, # of connection points: 2
#     Edge 27, Type (0, 0), BuildingBlock: ZUJKAS_clean_linker_0, # of connection points: 2
#     Edge 28, Type (0, 0), BuildingBlock: ZUJKAS_clean_linker_0, # of connection points: 2
#     Edge 29, Type (0, 0), BuildingBlock: ZUJKAS_clean_linker_0, # of connection points: 2
#     Edge 30, Type (0, 0), BuildingBlock: ZUJKAS_clean_linker_0, # of connection points: 2
#     Edge 31, Type (0, 0), BuildingBlock: ZUJKAS_clean_linker_0, # of connection points: 2
# Relax obj value: 0.203
# Max RMSD: 0.204
# Mean RMSD: 0.197
data_MOF--net-ske--node1-BETFAJ_clean_sbu_0--edge1-ZUJKAS_clean_linker_0
_symmetry_space_group_name_H-M    P1
_symmetry_Int_Tables_number       1
_symmetry_cell_setting            triclinic
loop_
_symmetry_equiv_pos_as_xyz
'x, y, z'
_cell_length_a     121.1403
_cell_length_b     38.459849
_cell_length_c     20.265817
_cell_angle_alpha  90.012088
_cell_angle_beta   90.027661
_cell_angle_gamma 84.49189
loop_
_atom_site_label
_atom_site_type_symbol
_atom_site_fract_x
_atom_site_fract_y
_atom_site_fract_z
_atom_type_partial_charge
Sm0 Sm 0.15069 0.25432 0.53965 0.0
Sm1 Sm 0.12626 0.24735 0.54534 0.0
C2 C 0.17137 0.27201 0.55007 0.0
C3 C 0.18214 0.26625 0.58591 0.0
C4 C 0.18534 0.29168 0.62999 0.0
C5 C 0.19602 0.28886 0.65748 0.0
C6 C 0.20384 0.26062 0.64131 0.0
C7 C 0.20051 0.23473 0.59846 0.0
C8 C 0.18983 0.23754 0.57103 0.0
C9 C 0.1456 0.1857 0.53128 0.0
C10 C 0.13903 0.24685 0.68475 0.0
C11 C 0.10561 0.22916 0.54036 0.0
C12 C 0.09395 0.23445 0.51719 0.0
C13 C 0.08861 0.20519 0.49839 0.0
C14 C 0.07714 0.20799 0.48747 0.0
C15 C 0.0707 0.2402 0.49512 0.0
C16 C 0.07615 0.26988 0.5109 0.0
C17 C 0.08765 0.26703 0.52207 0.0
C18 C 0.13142 0.31632 0.54905 0.0
C19 C 0.13806 0.25349 0.39989 0.0
O20 O 0.16289 0.2889 0.5799 0.0
O21 O 0.16848 0.24715 0.5116 0.0
O22 O 0.14092 0.20853 0.56954 0.0
O23 O 0.15365 0.19817 0.49983 0.0
O24 O 0.14704 0.2601 0.65178 0.0
O25 O 0.13087 0.2338 0.65298 0.0
O26 O 0.11343 0.21607 0.50048 0.0
O27 O 0.10901 0.25157 0.58242 0.0
O28 O 0.13603 0.29255 0.51284 0.0
O29 O 0.12336 0.30456 0.58149 0.0
O30 O 0.12997 0.24067 0.43319 0.0
O31 O 0.14626 0.26669 0.4313 0.0
H32 H 0.17968 0.31432 0.64199 0.0
H33 H 0.19819 0.30906 0.69098 0.0
H34 H 0.2063 0.21284 0.58405 0.0
H35 H 0.18774 0.21767 0.53655 0.0
H36 H 0.09326 0.17974 0.49471 0.0
H37 H 0.07328 0.1847 0.47429 0.0
H38 H 0.07147 0.29507 0.51761 0.0
H39 H 0.09152 0.29003 0.53697 0.0
Sm40 Sm 0.87055 0.25019 0.5408 0.0
Sm41 Sm 0.89498 0.25666 0.54667 0.0
C42 C 0.84989 0.23238 0.55085 0.0
C43 C 0.83923 0.23688 0.58764 0.0
C44 C 0.83474 0.2073 0.61291 0.0
C45 C 0.82408 0.20997 0.64044 0.0
C46 C 0.81758 0.24233 0.64318 0.0
C47 C 0.82224 0.27216 0.61963 0.0
C48 C 0.83292 0.26947 0.5921 0.0
C49 C 0.87575 0.3186 0.53232 0.0
C50 C 0.88224 0.25769 0.68599 0.0
C51 C 0.91573 0.27401 0.54247 0.0
C52 C 0.92734 0.26881 0.51875 0.0
C53 C 0.93322 0.29818 0.51044 0.0
C54 C 0.94467 0.29439 0.49886 0.0
C55 C 0.95056 0.26103 0.49512 0.0
C56 C 0.94452 0.23156 0.50073 0.0
C57 C 0.93305 0.2354 0.51264 0.0
C58 C 0.88955 0.18795 0.54969 0.0
C59 C 0.88315 0.25109 0.40096 0.0
O60 O 0.85842 0.21457 0.57845 0.0
O61 O 0.85268 0.25848 0.51521 0.0
O62 O 0.8804 0.29576 0.57075 0.0
O63 O 0.8677 0.30625 0.50065 0.0
O64 O 0.8742 0.24449 0.65309 0.0
O65 O 0.89041 0.27058 0.6541 0.0
O66 O 0.9079 0.28819 0.5037 0.0
O67 O 0.91231 0.25076 0.58263 0.0
O68 O 0.88514 0.21191 0.51323 0.0
O69 O 0.89747 0.19945 0.58384 0.0
O70 O 0.89132 0.26346 0.43435 0.0
O71 O 0.87489 0.23822 0.43227 0.0
H72 H 0.83937 0.18182 0.6098 0.0
H73 H 0.82089 0.18651 0.65904 0.0
H74 H 0.81748 0.29748 0.62026 0.0
H75 H 0.83609 0.29279 0.57267 0.0
H76 H 0.92904 0.32422 0.51582 0.0
H77 H 0.94897 0.31776 0.49583 0.0
H78 H 0.94869 0.20544 0.49701 0.0
H79 H 0.92872 0.21227 0.51905 0.0
Sm80 Sm 0.12634 0.74709 0.4879 0.0
Sm81 Sm 0.15064 0.75451 0.49315 0.0
C82 C 0.10571 0.72874 0.49432 0.0
C83 C 0.09405 0.7365 0.51616 0.0
C84 C 0.08863 0.70996 0.5461 0.0
C85 C 0.07716 0.71426 0.55711 0.0
C86 C 0.07081 0.74522 0.53808 0.0
C87 C 0.07635 0.77239 0.51065 0.0
C88 C 0.08783 0.76808 0.49978 0.0
C89 C 0.13123 0.8163 0.48427 0.0
C90 C 0.13822 0.75308 0.63296 0.0
C91 C 0.17126 0.77255 0.48256 0.0
C92 C 0.18197 0.76691 0.44634 0.0
C93 C 0.18519 0.79277 0.40335 0.0
C94 C 0.19583 0.79 0.37548 0.0
C95 C 0.20358 0.76136 0.39021 0.0
C96 C 0.20024 0.73503 0.4319 0.0
C97 C 0.18959 0.73779 0.45971 0.0
C98 C 0.14568 0.68573 0.5021 0.0
C99 C 0.13899 0.7465 0.34826 0.0
O100 O 0.11337 0.71831 0.53745 0.0
O101 O 0.10934 0.74807 0.44761 0.0
O102 O 0.13599 0.79263 0.5201 0.0
O103 O 0.12315 0.80435 0.4523 0.0
O104 O 0.13027 0.73948 0.59967 0.0
O105 O 0.14623 0.76711 0.60138 0.0
O106 O 0.16275 0.78936 0.45293 0.0
O107 O 0.16844 0.7476 0.521 0.0
O108 O 0.141 0.70838 0.46351 0.0
O109 O 0.15367 0.69845 0.5337 0.0
O110 O 0.14694 0.76021 0.38101 0.0
O111 O 0.13093 0.73312 0.38038 0.0
H112 H 0.0932 0.6852 0.55845 0.0
H113 H 0.07321 0.69263 0.57771 0.0
H114 H 0.07177 0.7968 0.4964 0.0
H115 H 0.09176 0.78905 0.47651 0.0
H116 H 0.17958 0.81571 0.39254 0.0
H117 H 0.19802 0.81055 0.34286 0.0
H118 H 0.20598 0.71281 0.44515 0.0
H119 H 0.18748 0.71756 0.49329 0.0
Sm120 Sm 0.89544 0.75645 0.48581 0.0
Sm121 Sm 0.87111 0.74992 0.49248 0.0
C122 C 0.91611 0.77436 0.4913 0.0
C123 C 0.92773 0.76732 0.51434 0.0
C124 C 0.93322 0.79507 0.53919 0.0
C125 C 0.94467 0.79098 0.55087 0.0
C126 C 0.95094 0.75899 0.53773 0.0
C127 C 0.94533 0.73074 0.51548 0.0
C128 C 0.93386 0.73485 0.50386 0.0
C129 C 0.89032 0.68749 0.48203 0.0
C130 C 0.88378 0.75004 0.63161 0.0
C131 C 0.85028 0.7335 0.48298 0.0
C132 C 0.83954 0.73977 0.44707 0.0
C133 C 0.83718 0.71933 0.39215 0.0
C134 C 0.82656 0.72236 0.36381 0.0
C135 C 0.81799 0.74568 0.39 0.0
C136 C 0.82046 0.76671 0.44385 0.0
C137 C 0.83106 0.76372 0.47209 0.0
C138 C 0.87645 0.81821 0.50181 0.0
C139 C 0.88258 0.7574 0.34684 0.0
O140 O 0.90839 0.78634 0.53282 0.0
O141 O 0.91255 0.75354 0.4468 0.0
O142 O 0.88568 0.71118 0.51833 0.0
O143 O 0.89836 0.6993 0.44958 0.0
O144 O 0.89178 0.76324 0.59811 0.0
O145 O 0.87562 0.73665 0.60026 0.0
O146 O 0.85867 0.71583 0.45372 0.0
O147 O 0.85333 0.75849 0.52056 0.0
O148 O 0.88085 0.79563 0.4621 0.0
O149 O 0.86865 0.80557 0.53523 0.0
O150 O 0.87459 0.74419 0.38007 0.0
O151 O 0.89078 0.77034 0.37844 0.0
H152 H 0.92871 0.82048 0.5469 0.0
H153 H 0.94867 0.81345 0.56729 0.0
H154 H 0.94984 0.70556 0.50586 0.0
H155 H 0.92987 0.71295 0.48459 0.0
H156 H 0.84345 0.70023 0.37216 0.0
H157 H 0.82496 0.70545 0.32287 0.0
H158 H 0.81415 0.78534 0.46479 0.0
H159 H 0.83252 0.77961 0.51476 0.0
Sm160 Sm 0.65245 0.7539 0.0464 0.0
Sm161 Sm 0.62633 0.75292 0.04616 0.0
C162 C 0.67267 0.77493 0.05336 0.0
C163 C 0.68374 0.76791 0.0853 0.0
C164 C 0.68653 0.78747 0.14051 0.0
C165 C 0.69729 0.78356 0.1668 0.0
C166 C 0.70559 0.76015 0.13831 0.0
C167 C 0.70274 0.74014 0.08378 0.0
C168 C 0.69198 0.74403 0.05754 0.0
C169 C 0.6473 0.68477 0.05031 0.0
C170 C 0.63894 0.74933 0.18825 0.0
C171 C 0.60498 0.74561 0.03278 0.0
C172 C 0.59294 0.74235 0.02435 0.0
C173 C 0.58795 0.71428 0.05227 0.0
C174 C 0.57643 0.71289 0.04845 0.0
C175 C 0.56963 0.73966 0.01691 0.0
C176 C 0.57469 0.76729 0.98776 0.0
C177 C 0.58618 0.76861 0.99142 0.0
C178 C 0.63411 0.81802 0.06136 0.0
C179 C 0.63983 0.74975 0.9044 0.0
O180 O 0.66434 0.78811 0.08986 0.0
O181 O 0.66974 0.75263 1.00918 0.0
O182 O 0.64064 0.712 0.049 0.0
O183 O 0.65735 0.69384 0.05139 0.0
O184 O 0.64785 0.75857 0.15728 0.0
O185 O 0.63001 0.74159 0.15588 0.0
O186 O 0.61166 0.72305 0.06584 0.0
O187 O 0.60976 0.77116 1.00566 0.0
O188 O 0.63805 0.79417 0.02274 0.0
O189 O 0.62569 0.80779 0.09298 0.0
O190 O 0.63098 0.74131 0.93694 0.0
O191 O 0.6486 0.75986 0.93537 0.0
H192 H 0.68046 0.80653 0.16254 0.0
H193 H 0.69918 0.79978 0.2082 0.0
H194 H 0.70885 0.72152 0.061 0.0
H195 H 0.69019 0.72874 0.01462 0.0
H196 H 0.59292 0.6937 0.07822 0.0
H197 H 0.57282 0.69135 0.07188 0.0
H198 H 0.56976 0.78805 0.96211 0.0
H199 H 0.58974 0.79061 0.96932 0.0
Sm200 Sm 0.36973 0.7506 0.04807 0.0
Sm201 Sm 0.39388 0.75589 0.05582 0.0
C202 C 0.34884 0.73488 0.05761 0.0
C203 C 0.3383 0.74037 0.09566 0.0
C204 C 0.33528 0.71457 0.1395 0.0
C205 C 0.32476 0.71735 0.16902 0.0
C206 C 0.31694 0.74592 0.15517 0.0
C207 C 0.32008 0.77217 0.11262 0.0
C208 C 0.33059 0.7694 0.08313 0.0
C209 C 0.37524 0.81863 0.03732 0.0
C210 C 0.381 0.75851 0.1941 0.0
C211 C 0.4148 0.7716 0.05175 0.0
C212 C 0.42651 0.76323 0.03108 0.0
C213 C 0.43192 0.78866 0.99764 0.0
C214 C 0.44342 0.7843 0.98794 0.0
C215 C 0.44981 0.75442 1.01181 0.0
C216 C 0.44429 0.7282 0.04262 0.0
C217 C 0.43278 0.73257 0.05225 0.0
C218 C 0.38835 0.68721 0.05837 0.0
C219 C 0.38239 0.75061 0.90927 0.0
O220 O 0.35725 0.71586 0.08382 0.0
O221 O 0.35188 0.76089 0.02272 0.0
O222 O 0.37954 0.79633 0.07796 0.0
O223 O 0.36752 0.80582 1.00349 0.0
O224 O 0.37306 0.74506 0.16079 0.0
O225 O 0.38919 0.77125 0.16238 0.0
O226 O 0.40735 0.78336 1.00839 0.0
O227 O 0.41085 0.75223 0.09725 0.0
O228 O 0.38409 0.71118 0.02151 0.0
O229 O 0.39614 0.69872 0.09357 0.0
O230 O 0.3904 0.76345 0.94331 0.0
O231 O 0.37416 0.73744 0.94023 0.0
H232 H 0.34095 0.69169 0.14974 0.0
H233 H 0.32273 0.69685 0.2022 0.0
H234 H 0.31426 0.79432 0.09997 0.0
H235 H 0.33254 0.78954 0.04888 0.0
H236 H 0.42732 0.81265 0.98125 0.0
H237 H 0.44733 0.80475 0.96292 0.0
H238 H 0.44892 0.70496 0.06211 0.0
H239 H 0.42888 0.71255 0.07866 0.0
Sm240 Sm 0.62662 0.24892 0.97355 0.0
Sm241 Sm 0.65101 0.25688 0.9786 0.0
C242 C 0.60605 0.22996 0.97839 0.0
C243 C 0.59433 0.23542 1.0001 0.0
C244 C 0.5886 0.20609 1.01244 0.0
C245 C 0.57711 0.20963 0.02258 0.0
C246 C 0.57101 0.24272 0.02077 0.0
C247 C 0.57687 0.27228 1.01087 0.0
C248 C 0.58839 0.26867 1.00044 0.0
C249 C 0.6315 0.31829 0.97039 0.0
C250 C 0.63851 0.25529 0.11868 0.0
C251 C 0.67153 0.27573 0.96754 0.0
C252 C 0.68213 0.27122 0.9301 0.0
C253 C 0.68659 0.30079 0.90457 0.0
C254 C 0.69719 0.29807 0.87623 0.0
C255 C 0.70366 0.26567 0.87292 0.0
C256 C 0.69902 0.23584 0.89669 0.0
C257 C 0.6884 0.23858 0.92502 0.0
C258 C 0.64627 0.1881 0.98932 0.0
C259 C 0.63933 0.24818 0.83385 0.0
O260 O 0.61379 0.21826 0.02007 0.0
O261 O 0.60947 0.25159 0.93496 0.0
O262 O 0.63627 0.29447 1.00585 0.0
O263 O 0.62342 0.30636 0.93832 0.0
O264 O 0.63047 0.24209 0.08552 0.0
O265 O 0.64661 0.26896 0.08713 0.0
O266 O 0.66291 0.29297 0.93983 0.0
O267 O 0.6689 0.24979 1.00412 0.0
O268 O 0.64142 0.21029 0.95015 0.0
O269 O 0.65425 0.20136 0.02004 0.0
O270 O 0.64731 0.26185 0.86642 0.0
O271 O 0.63123 0.23506 0.86602 0.0
H272 H 0.59296 0.18014 1.01149 0.0
H273 H 0.57296 0.18616 0.02903 0.0
H274 H 0.57255 0.29825 1.01024 0.0
H275 H 0.5926 0.29176 0.99077 0.0
H276 H 0.68198 0.32629 0.90809 0.0
H277 H 0.70036 0.32153 0.85747 0.0
H278 H 0.70375 0.21049 0.89563 0.0
H279 H 0.68525 0.21526 0.94455 0.0
Sm280 Sm 0.39494 0.25539 0.97413 0.0
Sm281 Sm 0.37045 0.25029 0.98118 0.0
C282 C 0.41579 0.27184 0.97757 0.0
C283 C 0.42752 0.2671 0.99957 0.0
C284 C 0.43289 0.29679 0.01527 0.0
C285 C 0.44439 0.29431 0.02489 0.0
C286 C 0.45084 0.26201 0.01906 0.0
C287 C 0.44538 0.23197 1.00631 0.0
C288 C 0.43385 0.2345 0.99635 0.0
C289 C 0.38919 0.18701 0.97162 0.0
C290 C 0.38325 0.24987 0.12037 0.0
C291 C 0.34953 0.23473 0.97141 0.0
C292 C 0.33893 0.24015 0.93368 0.0
C293 C 0.33594 0.21459 0.8892 0.0
C294 C 0.32537 0.21726 0.8601 0.0
C295 C 0.31747 0.24547 0.87499 0.0
C296 C 0.32059 0.27148 0.91824 0.0
C297 C 0.33114 0.26882 0.9473 0.0
C298 C 0.37619 0.31795 0.99169 0.0
C299 C 0.38199 0.25734 0.83541 0.0
O300 O 0.40806 0.28636 0.01662 0.0
O301 O 0.41223 0.24865 0.93773 0.0
O302 O 0.38487 0.21122 1.00782 0.0
O303 O 0.39716 0.19806 0.93736 0.0
O304 O 0.39146 0.26189 0.08676 0.0
O305 O 0.37487 0.2375 0.08927 0.0
O306 O 0.35794 0.21564 0.94524 0.0
O307 O 0.35259 0.26077 1.0062 0.0
O308 O 0.3805 0.29544 0.95136 0.0
O309 O 0.36831 0.30559 0.0248 0.0
O310 O 0.37388 0.24476 0.86866 0.0
O311 O 0.39033 0.26949 0.86689 0.0
H312 H 0.42823 0.32227 0.01753 0.0
H313 H 0.44826 0.3179 0.03572 0.0
H314 H 0.45007 0.20669 1.0011 0.0
H315 H 0.42996 0.21116 0.98377 0.0
H316 H 0.34166 0.19195 0.87811 0.0
H317 H 0.32337 0.19695 0.82638 0.0
H318 H 0.31472 0.29335 0.93176 0.0
H319 H 0.33306 0.28875 0.98209 0.0
H320 H 0.21695 0.31451 0.65836 0.0
H321 H 0.23614 0.31144 0.69704 0.0
H322 H 0.23652 0.19995 0.72021 0.0
H323 H 0.21729 0.20275 0.68217 0.0
H324 H 0.24557 0.28778 0.8156 0.0
H325 H 0.26403 0.20853 0.60748 0.0
H326 H 0.25006 0.22962 0.60501 0.0
H327 H 0.25305 0.1893 0.6493 0.0
C328 C 0.22105 0.28931 0.67228 0.0
C329 C 0.2155 0.25886 0.66682 0.0
C330 C 0.23207 0.2876 0.69404 0.0
C331 C 0.23788 0.2554 0.71051 0.0
C332 C 0.23234 0.22502 0.70627 0.0
H333 H 0.30446 0.19145 0.85646 0.0
H334 H 0.28535 0.1944 0.81633 0.0
C335 C 0.2213 0.22669 0.68451 0.0
C336 C 0.24967 0.25378 0.73304 0.0
H337 H 0.27595 0.21804 0.69727 0.0
C338 C 0.25221 0.27265 0.78953 0.0
C339 C 0.25838 0.23403 0.69915 0.0
C340 C 0.2563 0.21446 0.63652 0.0
C341 C 0.26314 0.27179 0.8137 0.0
C342 C 0.27185 0.25204 0.77982 0.0
C343 C 0.26931 0.23317 0.72332 0.0
C344 C 0.28363 0.25041 0.80249 0.0
C345 C 0.26521 0.29137 0.87633 0.0
C346 C 0.28917 0.2808 0.80687 0.0
C347 C 0.30015 0.2792 0.82947 0.0
C348 C 0.30591 0.24709 0.84792 0.0
C349 C 0.30039 0.2166 0.84205 0.0
C350 C 0.28941 0.21825 0.81944 0.0
H351 H 0.25748 0.29735 0.90531 0.0
H352 H 0.27143 0.27619 0.9079 0.0
H353 H 0.26848 0.3165 0.86356 0.0
H354 H 0.285 0.30584 0.79256 0.0
H355 H 0.30415 0.30315 0.83206 0.0
H356 H 0.71934 0.31178 0.89185 0.0
H357 H 0.73839 0.30782 0.85095 0.0
H358 H 0.73377 0.20953 0.75771 0.0
H359 H 0.71455 0.21384 0.7965 0.0
H360 H 0.75567 0.2577 0.87598 0.0
H361 H 0.74665 0.26305 0.60761 0.0
H362 H 0.73614 0.27429 0.66912 0.0
H363 H 0.74035 0.22924 0.65059 0.0
C364 C 0.72228 0.28958 0.86165 0.0
C365 C 0.7153 0.26329 0.84712 0.0
C366 C 0.73324 0.28722 0.83874 0.0
C367 C 0.73752 0.25864 0.80037 0.0
C368 C 0.73063 0.2322 0.78609 0.0
H369 H 0.80195 0.1961 0.62345 0.0
H370 H 0.78285 0.19992 0.66364 0.0
C371 C 0.71965 0.23452 0.80903 0.0
C372 C 0.74927 0.25615 0.77704 0.0
H373 H 0.76548 0.2499 0.63852 0.0
C374 C 0.75781 0.25615 0.82403 0.0
C375 C 0.7521 0.25407 0.70924 0.0
C376 C 0.74334 0.25547 0.65611 0.0
C377 C 0.76905 0.25352 0.80526 0.0
C378 C 0.77188 0.25148 0.73746 0.0
C379 C 0.76334 0.25144 0.69047 0.0
C380 C 0.78363 0.24915 0.71421 0.0
C381 C 0.77781 0.25209 0.85841 0.0
C382 C 0.79048 0.27568 0.72865 0.0
C383 C 0.80148 0.27344 0.70614 0.0
C384 C 0.80589 0.24467 0.66829 0.0
C385 C 0.79896 0.21831 0.65348 0.0
C386 C 0.78797 0.22059 0.67598 0.0
H387 H 0.7745 0.24443 0.90686 0.0
H388 H 0.78502 0.23332 0.84533 0.0
H389 H 0.78078 0.27833 0.86406 0.0
H390 H 0.78729 0.29834 0.75693 0.0
H391 H 0.80654 0.29417 0.71885 0.0
H392 H 0.30377 0.69221 0.17133 0.0
H393 H 0.28469 0.69531 0.21184 0.0
H394 H 0.28476 0.80631 0.24082 0.0
H395 H 0.30389 0.80345 0.2009 0.0
H396 H 0.27553 0.71784 0.33225 0.0
H397 H 0.25712 0.8 0.12765 0.0
H398 H 0.271 0.77841 0.124 0.0
H399 H 0.26823 0.81824 0.17007 0.0
C400 C 0.2998 0.71727 0.18698 0.0
C401 C 0.30542 0.74761 0.18248 0.0
C402 C 0.28884 0.71902 0.2098 0.0
C403 C 0.28319 0.75112 0.22831 0.0
C404 C 0.28883 0.78135 0.2253 0.0
H405 H 0.21683 0.81504 0.37616 0.0
H406 H 0.23599 0.81201 0.33722 0.0
C407 C 0.29979 0.77965 0.20247 0.0
C408 C 0.27144 0.75285 0.25114 0.0
H409 H 0.24522 0.7896 0.21689 0.0
C410 C 0.26889 0.73342 0.30687 0.0
C411 C 0.26277 0.77319 0.21808 0.0
C412 C 0.26486 0.79342 0.15628 0.0
C413 C 0.25798 0.73426 0.33107 0.0
C414 C 0.2493 0.75459 0.29799 0.0
C415 C 0.25185 0.77403 0.2423 0.0
C416 C 0.23754 0.75621 0.32057 0.0
C417 C 0.25588 0.71402 0.39284 0.0
C418 C 0.23191 0.72596 0.32309 0.0
C419 C 0.22089 0.72762 0.34497 0.0
C420 C 0.21521 0.75964 0.3645 0.0
C421 C 0.22084 0.78999 0.36078 0.0
C422 C 0.23185 0.78828 0.33888 0.0
H423 H 0.26362 0.70747 0.42154 0.0
H424 H 0.24972 0.729 0.42507 0.0
H425 H 0.25252 0.68918 0.379 0.0
H426 H 0.23602 0.70102 0.30774 0.0
H427 H 0.2168 0.70381 0.346 0.0
H428 H 0.71267 0.76113 0.26739 0.0
H429 H 0.73174 0.75895 0.30846 0.0
H430 H 0.74402 0.74995 0.10903 0.0
H431 H 0.72501 0.75323 0.0674 0.0
H432 H 0.74932 0.70734 0.29432 0.0
H433 H 0.75975 0.83119 0.18042 0.0
H434 H 0.74568 0.81971 0.18656 0.0
H435 H 0.75472 0.80088 0.12293 0.0
C436 C 0.71941 0.75905 0.23213 0.0
C437 C 0.71724 0.75753 0.16393 0.0
C438 C 0.73033 0.75759 0.25577 0.0
C439 C 0.73934 0.75486 0.21186 0.0
C440 C 0.73723 0.75274 0.1439 0.0
H441 H 0.81132 0.74269 0.26028 0.0
H442 H 0.79237 0.74382 0.21741 0.0
C443 C 0.72632 0.75416 0.1202 0.0
C444 C 0.75094 0.75374 0.23719 0.0
H445 H 0.77459 0.79566 0.22987 0.0
C446 C 0.75483 0.72674 0.28044 0.0
C447 C 0.75816 0.779 0.21904 0.0
C448 C 0.75436 0.80953 0.17518 0.0
C449 C 0.76575 0.72399 0.30508 0.0
C450 C 0.77296 0.74927 0.28698 0.0
C451 C 0.76909 0.77622 0.24363 0.0
C452 C 0.78449 0.74848 0.31321 0.0
C453 C 0.76953 0.69356 0.3492 0.0
C454 C 0.78641 0.75119 0.38127 0.0
C455 C 0.79723 0.75042 0.40594 0.0
C456 C 0.80644 0.74712 0.36313 0.0
C457 C 0.80448 0.74481 0.29482 0.0
C458 C 0.79363 0.74566 0.27017 0.0
H459 H 0.76419 0.67181 0.3438 0.0
H460 H 0.77824 0.6835 0.33824 0.0
H461 H 0.7691 0.70228 0.4014 0.0
H462 H 0.77952 0.75404 0.41546 0.0
H463 H 0.79839 0.75191 0.45882 0.0
H464 H 0.11848 0.87124 0.42962 0.0
H465 H 0.12054 0.93358 0.44079 0.0
H466 H 0.14946 0.90975 0.56275 0.0
H467 H 0.14722 0.84711 0.55316 0.0
H468 H 0.13629 0.96403 0.61319 0.0
H469 H 0.14243 0.98795 0.34704 0.0
H470 H 0.12967 0.96954 0.36346 0.0
H471 H 0.14268 0.94453 0.38087 0.0
C472 C 0.12531 0.87922 0.45867 0.0
C473 C 0.13272 0.85415 0.49025 0.0
C474 C 0.12652 0.91497 0.46471 0.0
C475 C 0.13529 0.92662 0.5016 0.0
C476 C 0.14265 0.90158 0.53374 0.0
H477 H 0.15808 0.13315 0.46895 0.0
H478 H 0.15538 0.07114 0.46566 0.0
C479 C 0.14139 0.86575 0.52809 0.0
C480 C 0.13669 0.96483 0.50701 0.0
H481 H 0.1394 0.03821 0.41527 0.0
C482 C 0.13701 0.98022 0.56988 0.0
C483 C 0.13776 0.9861 0.45069 0.0
C484 C 0.13824 0.97115 0.38176 0.0
C485 C 0.13827 0.01609 0.57791 0.0
C486 C 0.13897 0.03757 0.52148 0.0
C487 C 0.13873 0.02206 0.45869 0.0
C488 C 0.14057 0.0757 0.52593 0.0
C489 C 0.13913 0.03033 0.64689 0.0
C490 C 0.13313 0.09948 0.56071 0.0
C491 C 0.13474 0.13523 0.56327 0.0
C492 C 0.14374 0.14799 0.53034 0.0
C493 C 0.15107 0.12425 0.49504 0.0
C494 C 0.14952 0.08866 0.493 0.0
H495 H 0.14153 0.00926 0.68309 0.0
H496 H 0.14531 0.04986 0.6493 0.0
H497 H 0.13095 0.04331 0.66198 0.0
H498 H 0.12598 0.09052 0.58517 0.0
H499 H 0.12888 0.15291 0.59031 0.0
H500 H 0.8636 0.37113 0.46802 0.0
H501 H 0.86662 0.43286 0.46307 0.0
H502 H 0.89558 0.4134 0.58626 0.0
H503 H 0.89239 0.3512 0.59287 0.0
H504 H 0.8832 0.47317 0.62288 0.0
H505 H 0.88931 0.47547 0.3527 0.0
H506 H 0.8763 0.45996 0.37435 0.0
H507 H 0.88907 0.43527 0.39825 0.0
C508 C 0.87063 0.37988 0.4941 0.0
C509 C 0.87778 0.35616 0.53062 0.0
C510 C 0.8724 0.41527 0.49081 0.0
C511 C 0.88147 0.42791 0.52299 0.0
C512 C 0.88856 0.40437 0.56054 0.0
H513 H 0.90322 0.63247 0.42896 0.0
H514 H 0.90142 0.5701 0.44238 0.0
C515 C 0.88674 0.36881 0.56426 0.0
C516 C 0.88342 0.4657 0.51762 0.0
H517 H 0.88607 0.53096 0.40568 0.0
C518 C 0.88391 0.48574 0.57539 0.0
C519 C 0.88453 0.48224 0.45578 0.0
C520 C 0.8849 0.46204 0.39181 0.0
C521 C 0.88519 0.52181 0.57295 0.0
C522 C 0.88573 0.53869 0.51094 0.0
C523 C 0.8855 0.5184 0.45331 0.0
C524 C 0.88682 0.57706 0.50432 0.0
C525 C 0.88617 0.54124 0.63704 0.0
C526 C 0.87915 0.6022 0.53386 0.0
C527 C 0.88024 0.63807 0.52672 0.0
C528 C 0.88893 0.64962 0.48903 0.0
C529 C 0.89645 0.6245 0.45845 0.0
C530 C 0.89542 0.58873 0.46609 0.0
H531 H 0.88899 0.52325 0.67787 0.0
H532 H 0.89206 0.56152 0.63253 0.0
H533 H 0.87791 0.55424 0.65074 0.0
H534 H 0.87224 0.59415 0.56196 0.0
H535 H 0.87425 0.65676 0.55039 0.0
H536 H 0.86834 0.86715 0.59035 0.0
H537 H 0.87081 0.92938 0.59263 0.0
H538 H 0.89116 0.91735 0.41802 0.0
H539 H 0.88897 0.85439 0.41682 0.0
H540 H 0.89989 0.95949 0.50425 0.0
H541 H 0.85537 0.00398 0.47929 0.0
H542 H 0.85788 0.97593 0.54939 0.0
H543 H 0.86068 0.95898 0.46756 0.0
C544 C 0.87333 0.87771 0.55228 0.0
C545 C 0.87836 0.85585 0.50298 0.0
C546 C 0.87467 0.91347 0.55333 0.0
C547 C 0.88091 0.92854 0.50445 0.0
C548 C 0.88619 0.90657 0.45595 0.0
H549 H 0.87713 0.15695 0.45726 0.0
H550 H 0.87542 0.09438 0.44229 0.0
C551 C 0.88494 0.87057 0.45524 0.0
C552 C 0.88205 0.96701 0.50513 0.0
H553 H 0.86709 0.04701 0.5153 0.0
C554 C 0.89271 0.9786 0.50611 0.0
C555 C 0.87272 0.99229 0.50618 0.0
C556 C 0.86103 0.98219 0.49981 0.0
C557 C 0.89427 0.0144 0.51035 0.0
C558 C 0.88493 0.03951 0.51567 0.0
C559 C 0.87428 0.02797 0.5124 0.0
C560 C 0.886 0.07775 0.52481 0.0
C561 C 0.90596 0.02487 0.50795 0.0
C562 C 0.89233 0.08966 0.57694 0.0
C563 C 0.8934 0.1254 0.58512 0.0
C564 C 0.88801 0.15023 0.54211 0.0
C565 C 0.88141 0.13849 0.49113 0.0
C566 C 0.88043 0.10267 0.48255 0.0
H567 H 0.91164 0.00484 0.48232 0.0
H568 H 0.9063 0.05026 0.48236 0.0
H569 H 0.90908 0.02736 0.55905 0.0
H570 H 0.89641 0.07132 0.61171 0.0
H571 H 0.89844 0.1336 0.62532 0.0
H572 H 0.12922 0.6526 0.44112 0.0
H573 H 0.12624 0.59023 0.44722 0.0
H574 H 0.15518 0.57151 0.57082 0.0
H575 H 0.15799 0.63343 0.56638 0.0
H576 H 0.13875 0.53097 0.41033 0.0
H577 H 0.13266 0.52778 0.68052 0.0
H578 H 0.13282 0.56814 0.63538 0.0
H579 H 0.14563 0.54362 0.65893 0.0
C580 C 0.13491 0.63512 0.46972 0.0
C581 C 0.14379 0.64804 0.50362 0.0
C582 C 0.13321 0.59946 0.47315 0.0
C583 C 0.14035 0.57605 0.51064 0.0
C584 C 0.14936 0.58896 0.5431 0.0
H585 H 0.14755 0.34696 0.48097 0.0
H586 H 0.14967 0.40955 0.47004 0.0
C587 C 0.151 0.62447 0.54011 0.0
C588 C 0.13852 0.53815 0.51566 0.0
H589 H 0.13591 0.47251 0.62691 0.0
C590 C 0.13805 0.51824 0.4577 0.0
C591 C 0.13743 0.5214 0.57733 0.0
C592 C 0.13704 0.54141 0.64151 0.0
C593 C 0.1368 0.48215 0.45974 0.0
C594 C 0.13625 0.46509 0.52158 0.0
C595 C 0.13648 0.48521 0.57941 0.0
C596 C 0.13511 0.42672 0.52779 0.0
C597 C 0.13583 0.4629 0.39545 0.0
C598 C 0.12648 0.41506 0.56584 0.0
C599 C 0.12539 0.37931 0.57311 0.0
C600 C 0.13288 0.35416 0.54232 0.0
C601 C 0.14159 0.36567 0.50479 0.0
C602 C 0.14274 0.40154 0.49803 0.0
H603 H 0.13304 0.481 0.35473 0.0
H604 H 0.14408 0.44985 0.38178 0.0
H605 H 0.12991 0.44267 0.39967 0.0
H606 H 0.1205 0.43372 0.5897 0.0
H607 H 0.1186 0.37138 0.60248 0.0
H608 H 0.62735 0.65949 0.01921 0.0
H609 H 0.62369 0.59776 1.00747 0.0
H610 H 0.65745 0.56531 0.06286 0.0
H611 H 0.66118 0.62644 0.07365 0.0
H612 H 0.63762 0.54424 0.91971 0.0
H613 H 0.63677 0.50878 0.18542 0.0
H614 H 0.63375 0.55318 0.15673 0.0
H615 H 0.64781 0.53373 0.15908 0.0
C616 C 0.63394 0.63914 0.02948 0.0
C617 C 0.64454 0.64787 0.04753 0.0
C618 C 0.63186 0.60389 0.02255 0.0
C619 C 0.64028 0.57681 0.0347 0.0
C620 C 0.65079 0.58562 0.05378 0.0
H621 H 0.64775 0.34873 0.03755 0.0
H622 H 0.64973 0.4113 0.05082 0.0
C623 C 0.65291 0.62065 0.05984 0.0
C624 C 0.63835 0.53931 0.02529 0.0
H625 H 0.63701 0.46244 0.10861 0.0
C626 C 0.63737 0.52638 0.96098 0.0
C627 C 0.63821 0.51588 0.07903 0.0
C628 C 0.63912 0.52844 0.14913 0.0
C629 C 0.63651 0.49059 0.94887 0.0
C630 C 0.63628 0.46704 1.00272 0.0
C631 C 0.63718 0.48019 0.06713 0.0
C632 C 0.63516 0.42877 0.99348 0.0
C633 C 0.63632 0.47829 0.8782 0.0
C634 C 0.62627 0.41732 0.95731 0.0
C635 C 0.62521 0.38156 0.94903 0.0
C636 C 0.63289 0.35621 0.97777 0.0
C637 C 0.64171 0.36756 0.01466 0.0
C638 C 0.64283 0.40339 0.02239 0.0
H639 H 0.64006 0.49662 0.84438 0.0
H640 H 0.64085 0.45197 0.87245 0.0
H641 H 0.62759 0.47694 0.86257 0.0
H642 H 0.62003 0.43607 0.93604 0.0
H643 H 0.61826 0.37377 0.92084 0.0
H644 H 0.38728 0.85605 0.12319 0.0
H645 H 0.38964 0.91888 0.11878 0.0
H646 H 0.37064 0.92795 0.93857 0.0
H647 H 0.36797 0.86594 0.94402 0.0
H648 H 0.39908 0.95942 0.03245 0.0
H649 H 0.35444 0.00462 0.04341 0.0
H650 H 0.35961 0.95983 0.05907 0.0
H651 H 0.35744 0.97528 0.97567 0.0
C652 C 0.38358 0.87156 0.08285 0.0
C653 C 0.37731 0.85611 0.03445 0.0
C654 C 0.38494 0.90748 0.08029 0.0
C655 C 0.38007 0.92861 0.02924 0.0
C656 C 0.37416 0.91274 0.97974 0.0
H657 H 0.39851 0.13141 0.90043 0.0
H658 H 0.39639 0.06935 0.91704 0.0
C659 C 0.37271 0.8771 0.98265 0.0
C660 C 0.38126 0.96702 0.02661 0.0
H661 H 0.36647 0.04683 1.00772 0.0
C662 C 0.39193 0.97852 0.0276 0.0
C663 C 0.37197 0.9923 0.02161 0.0
C664 C 0.36023 0.98242 0.02562 0.0
C665 C 0.39356 0.0142 0.0215 0.0
C666 C 0.3843 0.03922 1.0123 0.0
C667 C 0.37362 0.02782 0.01359 0.0
C668 C 0.38546 0.07726 1.00135 0.0
C669 C 0.40523 0.02468 0.0261 0.0
C670 C 0.37966 0.10286 0.04115 0.0
C671 C 0.38071 0.13851 0.0309 0.0
C672 C 0.3876 0.1494 0.98062 0.0
C673 C 0.39322 0.12387 0.94 0.0
C674 C 0.3921 0.08828 0.94992 0.0
H675 H 0.41072 0.00506 0.05397 0.0
H676 H 0.40869 0.0264 0.97566 0.0
H677 H 0.4054 0.05046 0.05052 0.0
H678 H 0.3744 0.09525 0.08079 0.0
H679 H 0.37623 0.1575 0.06294 0.0
H680 H 0.36835 0.36586 0.0824 0.0
H681 H 0.37089 0.42794 0.08712 0.0
H682 H 0.39112 0.41773 0.91189 0.0
H683 H 0.38883 0.35478 0.90802 0.0
H684 H 0.39983 0.45941 1.00181 0.0
H685 H 0.35528 0.50298 0.97424 0.0
H686 H 0.35772 0.47399 0.04306 0.0
H687 H 0.36077 0.45829 0.96066 0.0
C688 C 0.37334 0.37675 0.0447 0.0
C689 C 0.37829 0.35542 0.99436 0.0
C690 C 0.37472 0.41243 0.04721 0.0
C691 C 0.38093 0.42798 0.99885 0.0
C692 C 0.38617 0.40654 0.94943 0.0
H693 H 0.37644 0.6568 0.96283 0.0
H694 H 0.37512 0.59434 0.94421 0.0
C695 C 0.38487 0.37056 0.94719 0.0
C696 C 0.38199 0.46645 1.00098 0.0
H697 H 0.36677 0.54587 0.01375 0.0
C698 C 0.3926 0.47832 1.00381 0.0
C699 C 0.37259 0.49145 1.0023 0.0
C700 C 0.36096 0.48107 0.99417 0.0
C701 C 0.39404 0.51412 1.01029 0.0
C702 C 0.38461 0.53889 0.01588 0.0
C703 C 0.37402 0.52709 1.01065 0.0
C704 C 0.38552 0.57705 0.02716 0.0
C705 C 0.40568 0.52498 1.01005 0.0
C706 C 0.39161 0.58854 0.08074 0.0
C707 C 0.39245 0.62426 0.09107 0.0
C708 C 0.38707 0.64945 0.04875 0.0
C709 C 0.38071 0.63808 0.99626 0.0
C710 C 0.37996 0.60231 0.98556 0.0
H711 H 0.41151 0.50547 0.98416 0.0
H712 H 0.40602 0.55075 0.98587 0.0
H713 H 0.40862 0.52688 0.06168 0.0
H714 H 0.39567 0.56988 0.11499 0.0
H715 H 0.39731 0.63217 0.13234 0.0
H716 H 0.65972 0.13715 0.04927 0.0
H717 H 0.65766 0.07491 0.05652 0.0
H718 H 0.6272 0.09014 0.94549 0.0
H719 H 0.62947 0.1529 0.93607 0.0
H720 H 0.64275 0.04163 0.11445 0.0
H721 H 0.64213 0.00778 0.84879 0.0
H722 H 0.64584 0.04947 0.87773 0.0
H723 H 0.63149 0.0413 0.87169 0.0
C724 C 0.65261 0.12732 0.02576 0.0
C725 C 0.64479 0.15007 0.99168 0.0
C726 C 0.65143 0.09156 0.0301 0.0
C727 C 0.64235 0.07732 1.00091 0.0
C728 C 0.63444 0.10005 0.96708 0.0
H729 H 0.62265 0.87373 0.12134 0.0
H730 H 0.62464 0.93574 0.10595 0.0
C731 C 0.63569 0.13603 0.96207 0.0
C732 C 0.64113 0.03903 1.00877 0.0
H733 H 0.63809 0.96337 0.92413 0.0
C734 C 0.64175 0.02461 0.07263 0.0
C735 C 0.63999 0.01635 0.95447 0.0
C736 C 0.63993 0.02938 0.88426 0.0
C737 C 0.64124 0.98864 0.08376 0.0
C738 C 0.63971 0.96615 0.02974 0.0
C739 C 0.63917 0.98044 0.96576 0.0
C740 C 0.63855 0.92794 0.03882 0.0
C741 C 0.64265 0.97505 0.15342 0.0
C742 C 0.6455 0.90239 1.00499 0.0
C743 C 0.64427 0.86661 1.01315 0.0
C744 C 0.63605 0.8556 0.05523 0.0
C745 C 0.62915 0.88119 0.08907 0.0
C746 C 0.63031 0.91681 0.08054 0.0
H747 H 0.64724 0.99265 0.18453 0.0
H748 H 0.63436 0.97367 0.17598 0.0
H749 H 0.64718 0.94855 0.15445 0.0
H750 H 0.65189 0.91013 0.97228 0.0
H751 H 0.64969 0.84761 0.98608 0.0
H752 H 0.12225 0.23076 0.31716 0.0
H753 H 0.12232 0.22953 0.19639 0.0
H754 H 0.15365 0.27402 0.1947 0.0
H755 H 0.15357 0.27591 0.3153 0.0
H756 H 0.13902 0.30532 0.1042 0.0
H757 H 0.14084 0.16129 0.07875 0.0
H758 H 0.12938 0.17992 0.12743 0.0
H759 H 0.14334 0.18233 0.15621 0.0
C760 C 0.12917 0.24029 0.29121 0.0
C761 C 0.13792 0.25331 0.32629 0.0
C762 C 0.12923 0.23932 0.22199 0.0
C763 C 0.13809 0.25106 0.18617 0.0
C764 C 0.14675 0.26461 0.22104 0.0
H765 H 0.15484 0.26917 0.76785 0.0
H766 H 0.15474 0.27019 0.8886 0.0
C767 C 0.14668 0.26565 0.29019 0.0
C768 C 0.13829 0.24979 0.11247 0.0
H769 H 0.13799 0.19441 0.98042 0.0
C770 C 0.13884 0.28103 0.07717 0.0
C771 C 0.13805 0.21813 0.07695 0.0
C772 C 0.13797 0.18345 0.11166 0.0
C773 C 0.13895 0.2816 1.00768 0.0
C774 C 0.13872 0.24993 0.97216 0.0
C775 C 0.13816 0.21869 1.00745 0.0
C776 C 0.13895 0.24866 0.89846 0.0
C777 C 0.13903 0.31628 0.97298 0.0
C778 C 0.13031 0.23516 0.8634 0.0
C779 C 0.1304 0.23423 0.79423 0.0
C780 C 0.13917 0.24666 0.75835 0.0
C781 C 0.14792 0.25959 0.79364 0.0
C782 C 0.14783 0.26043 0.86285 0.0
H783 H 0.13615 0.33843 1.00586 0.0
H784 H 0.14762 0.31985 0.95733 0.0
H785 H 0.13368 0.31738 0.92836 0.0
H786 H 0.1234 0.22572 0.88959 0.0
H787 H 0.12352 0.22405 0.76894 0.0
H788 H 0.89869 0.27514 0.31786 0.0
H789 H 0.89842 0.27683 0.19695 0.0
H790 H 0.86769 0.22888 0.19621 0.0
H791 H 0.86781 0.22741 0.31671 0.0
H792 H 0.89819 0.22272 0.10513 0.0
H793 H 0.86024 0.3146 0.08021 0.0
H794 H 0.86758 0.30788 0.15736 0.0
H795 H 0.85838 0.27687 0.12965 0.0
C796 C 0.89186 0.26498 0.29205 0.0
C797 C 0.88324 0.25131 0.32735 0.0
C798 C 0.89172 0.26596 0.22281 0.0
C799 C 0.88293 0.25356 0.18727 0.0
C800 C 0.87443 0.23935 0.22234 0.0
H801 H 0.86673 0.23409 0.76976 0.0
H802 H 0.86706 0.23287 0.89066 0.0
C803 C 0.87456 0.23832 0.29146 0.0
C804 C 0.88272 0.25495 0.11362 0.0
H805 H 0.86731 0.2873 0.98184 0.0
C806 C 0.89147 0.23701 0.0782 0.0
C807 C 0.87394 0.27351 0.07826 0.0
C808 C 0.86455 0.29459 0.1132 0.0
C809 C 0.89157 0.23654 1.0087 0.0
C810 C 0.88278 0.25506 0.97335 0.0
C811 C 0.87404 0.27303 1.00876 0.0
C812 C 0.88253 0.25628 0.89969 0.0
C813 C 0.90095 0.21544 0.97375 0.0
C814 C 0.891 0.27044 0.86424 0.0
C815 C 0.89083 0.27121 0.7951 0.0
C816 C 0.88215 0.258 0.75959 0.0
C817 C 0.87356 0.24442 0.79527 0.0
C818 C 0.87374 0.24371 0.86451 0.0
H819 H 0.9053 0.19555 1.00681 0.0
H820 H 0.8979 0.20202 0.92979 0.0
H821 H 0.90709 0.23318 0.95696 0.0
H822 H 0.89775 0.28103 0.8901 0.0
H823 H 0.89757 0.28203 0.76953 0.0
H824 H 0.15425 0.7714 0.26448 0.0
H825 H 0.15394 0.77253 0.14362 0.0
H826 H 0.12376 0.72161 0.14401 0.0
H827 H 0.12391 0.72073 0.26464 0.0
H828 H 0.15428 0.71836 0.05253 0.0
H829 H 0.11544 0.80616 0.0268 0.0
H830 H 0.1228 0.80035 0.10407 0.0
H831 H 0.11401 0.76816 0.07633 0.0
C832 C 0.14753 0.76045 0.23896 0.0
C833 C 0.13907 0.74614 0.27462 0.0
C834 C 0.14737 0.76111 0.16972 0.0
C835 C 0.13872 0.74773 0.13446 0.0
C836 C 0.13039 0.73284 0.16989 0.0
H837 H 0.12304 0.72713 0.71602 0.0
H838 H 0.12332 0.72543 0.8369 0.0
C839 C 0.13054 0.73214 0.23907 0.0
C840 C 0.1385 0.7489 0.06075 0.0
H841 H 0.12288 0.77969 0.92861 0.0
C842 C 0.14743 0.73192 0.02547 0.0
C843 C 0.12956 0.76653 0.02519 0.0
C844 C 0.11995 0.78662 0.05991 0.0
C845 C 0.14759 0.73152 0.95596 0.0
C846 C 0.13866 0.74915 0.92041 0.0
C847 C 0.12972 0.76611 0.95567 0.0
C848 C 0.13847 0.7505 0.84672 0.0
C849 C 0.15721 0.71149 0.92121 0.0
C850 C 0.14679 0.7657 0.81168 0.0
C851 C 0.14665 0.76673 0.74254 0.0
C852 C 0.13816 0.75276 0.70659 0.0
C853 C 0.12973 0.73807 0.74185 0.0
C854 C 0.12987 0.73709 0.8111 0.0
H855 H 0.16173 0.69194 0.95427 0.0
H856 H 0.15437 0.69781 0.87698 0.0
H857 H 0.16315 0.73 0.90488 0.0
H858 H 0.15338 0.77695 0.83787 0.0
H859 H 0.15325 0.77844 0.7173 0.0
H860 H 0.86837 0.72709 0.71616 0.0
H861 H 0.86824 0.72911 0.83672 0.0
H862 H 0.89939 0.77466 0.83519 0.0
H863 H 0.8995 0.77331 0.71439 0.0
H864 H 0.88284 0.69844 0.92762 0.0
H865 H 0.88068 0.84255 0.95229 0.0
H866 H 0.8783 0.82132 0.87485 0.0
H867 H 0.89221 0.82411 0.90404 0.0
C868 C 0.8752 0.7376 0.74129 0.0
C869 C 0.88392 0.75022 0.70522 0.0
C870 C 0.87511 0.73872 0.81043 0.0
C871 C 0.8837 0.75261 0.84535 0.0
C872 C 0.89253 0.7646 0.80956 0.0
H873 H 0.89802 0.78047 0.26255 0.0
H874 H 0.89815 0.77869 0.14194 0.0
C875 C 0.89262 0.76357 0.74033 0.0
C876 C 0.88345 0.754 0.91906 0.0
H877 H 0.88353 0.80964 0.05085 0.0
C878 C 0.88294 0.72279 0.95452 0.0
C879 C 0.88359 0.78574 0.95444 0.0
C880 C 0.88362 0.82039 0.91957 0.0
C881 C 0.88277 0.72234 0.02402 0.0
C882 C 0.88291 0.75408 0.05939 0.0
C883 C 0.88343 0.78529 0.02394 0.0
C884 C 0.88265 0.75546 0.1331 0.0
C885 C 0.88274 0.68769 0.0589 0.0
C886 C 0.87379 0.74356 0.16875 0.0
C887 C 0.87369 0.74447 0.23798 0.0
C888 C 0.88242 0.75758 0.27323 0.0
C889 C 0.89116 0.77015 0.2373 0.0
C890 C 0.89125 0.76916 0.16814 0.0
H891 H 0.88566 0.66552 0.02616 0.0
H892 H 0.88807 0.68674 0.10357 0.0
H893 H 0.87415 0.68402 0.07449 0.0
H894 H 0.86691 0.73364 0.14302 0.0
H895 H 0.86679 0.73477 0.26381 0.0
H896 H 0.65579 0.76251 0.27279 0.0
H897 H 0.65579 0.76119 0.39341 0.0
H898 H 0.62217 0.7333 0.39232 0.0
H899 H 0.62214 0.73403 0.2716 0.0
H900 H 0.64254 0.80024 0.48151 0.0
H901 H 0.63718 0.65973 0.51487 0.0
H902 H 0.64084 0.67767 0.43646 0.0
H903 H 0.62669 0.6827 0.46448 0.0
C904 C 0.6484 0.75587 0.29799 0.0
C905 C 0.63898 0.74819 0.26198 0.0
C906 C 0.64842 0.75518 0.3672 0.0
C907 C 0.63905 0.74661 0.40232 0.0
C908 C 0.6296 0.7392 0.36661 0.0
H909 H 0.62301 0.73387 0.82167 0.0
H910 H 0.62285 0.73369 0.70091 0.0
C911 C 0.62958 0.73984 0.29735 0.0
C912 C 0.6391 0.74644 0.47615 0.0
H913 H 0.63587 0.69494 0.61123 0.0
C914 C 0.64113 0.77715 0.50982 0.0
C915 C 0.63723 0.71638 0.51342 0.0
C916 C 0.63546 0.68214 0.48059 0.0
C917 C 0.64116 0.77881 0.57927 0.0
C918 C 0.63933 0.74872 0.61655 0.0
C919 C 0.63727 0.71803 0.5829 0.0
C920 C 0.63954 0.74853 0.69037 0.0
C921 C 0.64289 0.81312 0.61201 0.0
C922 C 0.64903 0.75634 0.72517 0.0
C923 C 0.64915 0.75657 0.79439 0.0
C924 C 0.63979 0.74867 0.83069 0.0
C925 C 0.63037 0.74017 0.79567 0.0
C926 C 0.63026 0.74003 0.72641 0.0
H927 H 0.64102 0.83552 0.57786 0.0
H928 H 0.63759 0.81742 0.65654 0.0
H929 H 0.65168 0.81284 0.62742 0.0
H930 H 0.6564 0.76215 0.69877 0.0
H931 H 0.65659 0.76297 0.81937 0.0
H932 H 0.36724 0.72654 0.82429 0.0
H933 H 0.36727 0.72795 0.70372 0.0
H934 H 0.39776 0.77722 0.70607 0.0
H935 H 0.39787 0.77558 0.82693 0.0
H936 H 0.36666 0.78489 0.61991 0.0
H937 H 0.405 0.69676 0.57729 0.0
H938 H 0.39811 0.70018 0.65631 0.0
H939 H 0.40682 0.733 0.63076 0.0
C940 C 0.37401 0.73749 0.79935 0.0
C941 C 0.38259 0.75079 0.83566 0.0
C942 C 0.37399 0.73833 0.7302 0.0
C943 C 0.38258 0.75226 0.69547 0.0
C944 C 0.39115 0.76567 0.7315 0.0
H945 H 0.39619 0.78324 0.27808 0.0
H946 H 0.39626 0.7825 0.39873 0.0
C947 C 0.39117 0.76487 0.80077 0.0
C948 C 0.38237 0.75355 0.62175 0.0
H949 H 0.3969 0.72603 0.48355 0.0
C950 C 0.37326 0.77189 0.59012 0.0
C951 C 0.39097 0.73666 0.58264 0.0
C952 C 0.40074 0.71526 0.6133 0.0
C953 C 0.3726 0.77429 0.52083 0.0
C954 C 0.38119 0.75735 0.48171 0.0
C955 C 0.39031 0.73905 0.51335 0.0
C956 C 0.38092 0.75838 0.40797 0.0
C957 C 0.36283 0.79568 0.49022 0.0
C958 C 0.37231 0.74489 0.37248 0.0
C959 C 0.37223 0.74532 0.30321 0.0
C960 C 0.38081 0.75911 0.26773 0.0
C961 C 0.38942 0.77255 0.30349 0.0
C962 C 0.38949 0.77207 0.37267 0.0
H963 H 0.35862 0.81436 0.52613 0.0
H964 H 0.36543 0.81055 0.44687 0.0
H965 H 0.35669 0.77795 0.4733 0.0
H966 H 0.36571 0.73351 0.39834 0.0
H967 H 0.36551 0.7345 0.27751 0.0
H968 H 0.65373 0.27962 0.20307 0.0
H969 H 0.65387 0.27794 0.32365 0.0
H970 H 0.62342 0.22844 0.32251 0.0
H971 H 0.62314 0.23032 0.20167 0.0
H972 H 0.62335 0.28248 0.4145 0.0
H973 H 0.66169 0.1923 0.43945 0.0
H974 H 0.66335 0.23026 0.39024 0.0
H975 H 0.65434 0.19876 0.36226 0.0
C976 C 0.64705 0.26833 0.22828 0.0
C977 C 0.63845 0.25496 0.1923 0.0
C978 C 0.64719 0.26718 0.29742 0.0
C979 C 0.63877 0.25248 0.33239 0.0
C980 C 0.63006 0.23969 0.29674 0.0
H981 H 0.6241 0.22309 0.75034 0.0
H982 H 0.62393 0.22396 0.6297 0.0
C983 C 0.62992 0.24078 0.22752 0.0
C984 C 0.63895 0.25099 0.40606 0.0
H985 H 0.65442 0.219 0.53791 0.0
C986 C 0.63011 0.26843 0.44145 0.0
C987 C 0.64779 0.23273 0.44146 0.0
C988 C 0.65729 0.21216 0.40653 0.0
C989 C 0.62997 0.26872 0.51097 0.0
C990 C 0.63881 0.2505 0.54637 0.0
C991 C 0.64765 0.23302 0.51097 0.0
C992 C 0.63905 0.24926 0.62006 0.0
C993 C 0.62048 0.28932 0.54587 0.0
C994 C 0.64779 0.26218 0.65524 0.0
C995 C 0.64795 0.26154 0.72448 0.0
C996 C 0.63941 0.2477 0.76021 0.0
C997 C 0.63079 0.23412 0.72473 0.0
C998 C 0.63064 0.23481 0.65555 0.0
H999 H 0.61605 0.30909 0.51286 0.0
H1000 H 0.61443 0.27123 0.56242 0.0
H1001 H 0.62343 0.30284 0.58997 0.0
H1002 H 0.65442 0.27325 0.6291 0.0
H1003 H 0.65474 0.27215 0.74994 0.0
H1004 H 0.36752 0.22892 0.2049 0.0
H1005 H 0.3674 0.23102 0.3254 0.0
H1006 H 0.39919 0.27265 0.32393 0.0
H1007 H 0.3993 0.27124 0.20311 0.0
H1008 H 0.38168 0.19871 0.41621 0.0
H1009 H 0.38118 0.34249 0.44093 0.0
H1010 H 0.37854 0.32162 0.36349 0.0
H1011 H 0.39253 0.32274 0.39271 0.0
C1012 C 0.3745 0.23859 0.23002 0.0
C1013 C 0.3834 0.25009 0.19396 0.0
C1014 C 0.37441 0.23975 0.29913 0.0
C1015 C 0.38319 0.25256 0.33404 0.0
C1016 C 0.39219 0.26344 0.29829 0.0
H1017 H 0.39771 0.27877 0.75121 0.0
H1018 H 0.39783 0.27704 0.63063 0.0
C1019 C 0.39228 0.26237 0.22906 0.0
C1020 C 0.38294 0.25397 0.40772 0.0
H1021 H 0.38357 0.30939 0.53951 0.0
C1022 C 0.38205 0.22295 0.44314 0.0
C1023 C 0.38342 0.28558 0.4431 0.0
C1024 C 0.38387 0.32007 0.40822 0.0
C1025 C 0.38184 0.22252 0.51262 0.0
C1026 C 0.38231 0.25413 0.548 0.0
C1027 C 0.38321 0.28515 0.51259 0.0
C1028 C 0.38204 0.25553 0.62169 0.0
C1029 C 0.38139 0.18802 0.54747 0.0
C1030 C 0.37303 0.2446 0.65728 0.0
C1031 C 0.37294 0.24548 0.72651 0.0
C1032 C 0.38182 0.2576 0.76181 0.0
C1033 C 0.39072 0.26923 0.72592 0.0
C1034 C 0.39081 0.26826 0.65679 0.0
H1035 H 0.38409 0.16561 0.51478 0.0
H1036 H 0.3867 0.18648 0.59226 0.0
H1037 H 0.37272 0.18532 0.56286 0.0
H1038 H 0.36603 0.23545 0.6315 0.0
H1039 H 0.36591 0.23652 0.75231 0.0
H1040 H 0.05685 0.194 0.54358 0.0
H1041 H 0.03661 0.19765 0.53827 0.0
H1042 H 0.03608 0.29517 0.43311 0.0
H1043 H 0.05641 0.29145 0.43718 0.0
H1044 H 0.02137 0.2522 0.58938 0.0
H1045 H 0.01641 0.23637 0.31873 0.0
H1046 H 0.02939 0.22457 0.36066 0.0
H1047 H 0.02499 0.26962 0.344 0.0
C1048 C 0.05247 0.216 0.51835 0.0
C1049 C 0.05832 0.24229 0.4903 0.0
C1050 C 0.04087 0.21815 0.51579 0.0
C1051 C 0.03481 0.24645 0.48462 0.0
C1052 C 0.04058 0.2728 0.45656 0.0
H1053 H 0.96387 0.30156 0.42364 0.0
H1054 H 0.98412 0.29828 0.42205 0.0
C1055 C 0.0522 0.27078 0.45944 0.0
C1056 C 0.02244 0.24878 0.4836 0.0
H1057 H 1.00001 0.24884 0.38098 0.0
C1058 C 0.01669 0.25138 0.54382 0.0
C1059 C 0.01633 0.24792 0.42416 0.0
C1060 C 0.02206 0.2442 0.35811 0.0
C1061 C 1.00503 0.25359 0.54628 0.0
C1062 C 0.9989 0.25216 0.48688 0.0
C1063 C 1.00466 0.24979 0.42656 0.0
C1064 C 0.98653 0.25331 0.48636 0.0
C1065 C 0.99941 0.25834 0.61254 0.0
C1066 C 0.98105 0.22864 0.52172 0.0
C1067 C 0.96943 0.2307 0.52347 0.0
C1068 C 0.96297 0.25727 0.48918 0.0
C1069 C 0.96851 0.28115 0.45177 0.0
C1070 C 0.98013 0.27916 0.45038 0.0
H1071 H 1.00489 0.2693 0.6496 0.0
H1072 H 0.99161 0.2759 0.60889 0.0
H1073 H 0.99736 0.23257 0.63097 0.0
H1074 H 0.98576 0.20786 0.54856 0.0
H1075 H 0.96554 0.21196 0.55327 0.0
H1076 H 0.96376 0.78661 0.63306 0.0
H1077 H 0.98401 0.78447 0.63781 0.0
H1078 H 0.98647 0.72234 0.46046 0.0
H1079 H 0.96626 0.7245 0.45503 0.0
H1080 H 1.00156 0.69742 0.55583 0.0
H1081 H 1.00318 0.83982 0.51903 0.0
H1082 H 0.99477 0.82885 0.58748 0.0
H1083 H 0.99076 0.81848 0.50491 0.0
C1084 C 0.9686 0.77261 0.59484 0.0
C1085 C 0.96332 0.75587 0.54348 0.0
C1086 C 0.98019 0.77146 0.5976 0.0
C1087 C 0.98679 0.75375 0.54886 0.0
C1088 C 0.98157 0.73625 0.49857 0.0
H1089 H 0.05554 0.7743 0.44897 0.0
H1090 H 0.03533 0.77639 0.45426 0.0
C1091 C 0.96999 0.73735 0.49578 0.0
C1092 C 0.99911 0.7535 0.54994 0.0
H1093 H 0.02019 0.80659 0.54334 0.0
C1094 C 1.00563 0.7213 0.5532 0.0
C1095 C 1.00445 0.78462 0.54554 0.0
C1096 C 0.99796 0.81991 0.53841 0.0
C1097 C 0.01729 0.71936 0.55274 0.0
C1098 C 0.02263 0.75053 0.55 0.0
C1099 C 0.01612 0.78272 0.54618 0.0
C1100 C 0.03496 0.75025 0.54862 0.0
C1101 C 0.02379 0.68386 0.55341 0.0
C1102 C 0.04153 0.73554 0.60057 0.0
C1103 C 0.05313 0.73441 0.59782 0.0
C1104 C 0.05843 0.74825 0.54327 0.0
C1105 C 0.05179 0.76378 0.49215 0.0
C1106 C 0.04021 0.76482 0.4949 0.0
H1107 H 0.01859 0.66291 0.53852 0.0
H1108 H 0.03105 0.68318 0.51984 0.0
H1109 H 0.02688 0.67799 0.60413 0.0
H1110 H 0.03769 0.72489 0.64333 0.0
H1111 H 0.05794 0.72277 0.63858 0.0
H1112 H 0.55384 0.79484 0.03489 0.0
H1113 H 0.53368 0.79472 0.03181 0.0
H1114 H 0.53721 0.684 0.99294 0.0
H1115 H 0.55743 0.68388 0.99595 0.0
H1116 H 0.52024 0.77679 0.93062 0.0
H1117 H 0.51555 0.69072 0.14662 0.0
H1118 H 0.52826 0.70993 0.12949 0.0
H1119 H 0.52488 0.67207 0.0845 0.0
C1120 C 0.55035 0.77044 0.02534 0.0
C1121 C 0.5573 0.73935 0.01563 0.0
C1122 C 0.5388 0.7704 0.02391 0.0
C1123 C 0.53389 0.73929 1.01305 0.0
C1124 C 0.54078 0.70821 1.00296 0.0
H1125 H 0.46425 0.69617 0.98583 0.0
H1126 H 0.48457 0.69183 0.9836 0.0
C1127 C 0.55235 0.70819 1.00459 0.0
C1128 C 0.52157 0.73978 1.01057 0.0
H1129 H 0.49937 0.7067 0.08369 0.0
C1130 C 0.51569 0.76149 0.96418 0.0
C1131 C 0.51559 0.71974 0.05419 0.0
C1132 C 0.52136 0.69702 0.10694 0.0
C1133 C 0.50405 0.76357 0.95992 0.0
C1134 C 0.49807 0.74384 1.00398 0.0
C1135 C 0.50395 0.72178 0.04985 0.0
C1136 C 0.48571 0.74652 1.00453 0.0
C1137 C 0.49828 0.78658 0.90761 0.0
C1138 C 0.47958 0.77859 0.0178 0.0
C1139 C 0.46798 0.78114 0.01932 0.0
C1140 C 0.4622 0.75161 1.00796 0.0
C1141 C 0.46839 0.71941 0.99517 0.0
C1142 C 0.48002 0.7169 0.99366 0.0
H1143 H 0.504 0.7919 0.86679 0.0
H1144 H 0.49109 0.77446 0.88663 0.0
H1145 H 0.49518 0.81199 0.92997 0.0
H1146 H 0.48377 0.80164 0.02804 0.0
H1147 H 0.46354 0.80619 0.03097 0.0
H1148 H 0.46527 0.21239 0.08044 0.0
H1149 H 0.48557 0.20967 0.08545 0.0
H1150 H 0.48477 0.30388 0.96959 0.0
H1151 H 0.46457 0.30695 0.965 0.0
H1152 H 0.50108 0.2036 0.98953 0.0
H1153 H 0.5041 0.32877 0.12009 0.0
H1154 H 0.49122 0.30912 0.11295 0.0
H1155 H 0.4961 0.33412 0.04569 0.0
C1156 C 0.46942 0.23257 0.05613 0.0
C1157 C 0.46323 0.26014 0.02302 0.0
C1158 C 0.48104 0.23104 0.05916 0.0
C1159 C 0.48675 0.257 0.02918 0.0
C1160 C 0.4806 0.28413 0.99502 0.0
H1161 H 0.55584 0.28819 0.95492 0.0
H1162 H 0.53559 0.29139 0.95943 0.0
C1163 C 0.469 0.28581 0.99234 0.0
C1164 C 0.49914 0.2552 0.03177 0.0
H1165 H 0.52082 0.30209 0.07227 0.0
C1166 C 0.50538 0.22503 1.00821 0.0
C1167 C 0.50482 0.28313 0.0561 0.0
C1168 C 0.49872 0.31546 0.08575 0.0
C1169 C 0.51706 0.2224 1.0068 0.0
C1170 C 0.52271 0.25053 0.03016 0.0
C1171 C 0.5165 0.28059 0.0541 0.0
C1172 C 0.53506 0.2493 0.02969 0.0
C1173 C 0.52327 0.18986 0.97875 0.0
C1174 C 0.54154 0.22511 0.06886 0.0
C1175 C 0.55315 0.22348 0.06713 0.0
C1176 C 0.55859 0.24599 0.02603 0.0
C1177 C 0.55203 0.27071 0.98789 0.0
C1178 C 0.54041 0.27243 0.98998 0.0
H1179 H 0.51775 0.17396 0.95016 0.0
H1180 H 0.53012 0.19663 0.9462 0.0
H1181 H 0.52697 0.17355 0.01978 0.0
H1182 H 0.5376 0.20744 0.1009 0.0
H1183 H 0.55785 0.20456 0.09824 0.0
loop_
_geom_bond_atom_site_label_1
_geom_bond_atom_site_label_2
_geom_bond_distance
_geom_bond_site_symmetry_2
_ccdc_geom_bond_type
Sm0 C2 2.846 . S
Sm0 O20 2.543 . S
Sm0 O21 2.450 . S
Sm0 O22 2.681 . S
Sm0 O23 2.464 . S
Sm0 O24 2.396 . S
Sm0 O28 2.386 . S
Sm0 O31 2.408 . S
Sm1 C11 2.846 . S
Sm1 O22 2.386 . S
Sm1 O25 2.408 . S
Sm1 O26 2.543 . S
Sm1 O27 2.450 . S
Sm1 O28 2.681 . S
Sm1 O29 2.464 . S
Sm1 O30 2.396 . S
C2 Sm0 2.846 . S
C2 C3 1.506 . S
C2 O20 1.261 . S
C2 O21 1.242 . S
C3 C2 1.506 . S
C3 C4 1.358 . S
C3 C8 1.382 . S
C4 C3 1.358 . S
C4 C5 1.385 . S
C4 H32 0.930 . S
C5 C4 1.385 . S
C5 C6 1.395 . S
C5 H33 0.929 . S
C6 C5 1.395 . S
C6 C7 1.335 . S
C7 C6 1.335 . S
C7 C8 1.398 . S
C7 H34 0.930 . S
C8 C3 1.382 . S
C8 C7 1.398 . S
C8 H35 0.929 . S
C9 O22 1.271 . S
C9 O23 1.251 . S
C10 O24 1.252 . S
C10 O25 1.272 . S
C11 Sm1 2.846 . S
C11 C12 1.506 . S
C11 O26 1.261 . S
C11 O27 1.242 . S
C12 C11 1.506 . S
C12 C13 1.358 . S
C12 C17 1.382 . S
C13 C12 1.358 . S
C13 C14 1.385 . S
C13 H36 0.930 . S
C14 C13 1.385 . S
C14 C15 1.395 . S
C14 H37 0.929 . S
C15 C14 1.395 . S
C15 C16 1.335 . S
C16 C15 1.335 . S
C16 C17 1.398 . S
C16 H38 0.930 . S
C17 C12 1.382 . S
C17 C16 1.398 . S
C17 H39 0.929 . S
C18 O28 1.271 . S
C18 O29 1.251 . S
C19 O30 1.252 . S
C19 O31 1.272 . S
O20 Sm0 2.543 . S
O20 C2 1.261 . S
O21 Sm0 2.450 . S
O21 C2 1.242 . S
O22 Sm0 2.681 . S
O22 Sm1 2.386 . S
O22 C9 1.271 . S
O23 Sm0 2.464 . S
O23 C9 1.251 . S
O24 Sm0 2.396 . S
O24 C10 1.252 . S
O25 Sm1 2.408 . S
O25 C10 1.272 . S
O26 Sm1 2.543 . S
O26 C11 1.261 . S
O27 Sm1 2.450 . S
O27 C11 1.242 . S
O28 Sm0 2.386 . S
O28 Sm1 2.681 . S
O28 C18 1.271 . S
O29 Sm1 2.464 . S
O29 C18 1.251 . S
O30 Sm1 2.396 . S
O30 C19 1.252 . S
O31 Sm0 2.408 . S
O31 C19 1.272 . S
H32 C4 0.930 . S
H33 C5 0.929 . S
H34 C7 0.930 . S
H35 C8 0.929 . S
H36 C13 0.930 . S
H37 C14 0.929 . S
H38 C16 0.930 . S
H39 C17 0.929 . S
Sm40 C42 2.846 . S
Sm40 O60 2.543 . S
Sm40 O61 2.450 . S
Sm40 O62 2.681 . S
Sm40 O63 2.464 . S
Sm40 O64 2.396 . S
Sm40 O68 2.386 . S
Sm40 O71 2.408 . S
Sm41 C51 2.846 . S
Sm41 O62 2.386 . S
Sm41 O65 2.408 . S
Sm41 O66 2.543 . S
Sm41 O67 2.450 . S
Sm41 O68 2.681 . S
Sm41 O69 2.464 . S
Sm41 O70 2.396 . S
C42 Sm40 2.846 . S
C42 C43 1.506 . S
C42 O60 1.261 . S
C42 O61 1.242 . S
C43 C42 1.506 . S
C43 C44 1.358 . S
C43 C48 1.382 . S
C44 C43 1.358 . S
C44 C45 1.385 . S
C44 H72 0.930 . S
C45 C44 1.385 . S
C45 C46 1.395 . S
C45 H73 0.929 . S
C46 C45 1.395 . S
C46 C47 1.335 . S
C47 C46 1.335 . S
C47 C48 1.398 . S
C47 H74 0.930 . S
C48 C43 1.382 . S
C48 C47 1.398 . S
C48 H75 0.929 . S
C49 O62 1.271 . S
C49 O63 1.251 . S
C50 O64 1.252 . S
C50 O65 1.272 . S
C51 Sm41 2.846 . S
C51 C52 1.506 . S
C51 O66 1.261 . S
C51 O67 1.242 . S
C52 C51 1.506 . S
C52 C53 1.358 . S
C52 C57 1.382 . S
C53 C52 1.358 . S
C53 C54 1.385 . S
C53 H76 0.930 . S
C54 C53 1.385 . S
C54 C55 1.395 . S
C54 H77 0.929 . S
C55 C54 1.395 . S
C55 C56 1.335 . S
C56 C55 1.335 . S
C56 C57 1.398 . S
C56 H78 0.930 . S
C57 C52 1.382 . S
C57 C56 1.398 . S
C57 H79 0.929 . S
C58 O68 1.271 . S
C58 O69 1.251 . S
C59 O70 1.252 . S
C59 O71 1.272 . S
O60 Sm40 2.543 . S
O60 C42 1.261 . S
O61 Sm40 2.450 . S
O61 C42 1.242 . S
O62 Sm40 2.681 . S
O62 Sm41 2.386 . S
O62 C49 1.271 . S
O63 Sm40 2.464 . S
O63 C49 1.251 . S
O64 Sm40 2.396 . S
O64 C50 1.252 . S
O65 Sm41 2.408 . S
O65 C50 1.272 . S
O66 Sm41 2.543 . S
O66 C51 1.261 . S
O67 Sm41 2.450 . S
O67 C51 1.242 . S
O68 Sm40 2.386 . S
O68 Sm41 2.681 . S
O68 C58 1.271 . S
O69 Sm41 2.464 . S
O69 C58 1.251 . S
O70 Sm41 2.396 . S
O70 C59 1.252 . S
O71 Sm40 2.408 . S
O71 C59 1.272 . S
H72 C44 0.930 . S
H73 C45 0.929 . S
H74 C47 0.930 . S
H75 C48 0.929 . S
H76 C53 0.930 . S
H77 C54 0.929 . S
H78 C56 0.930 . S
H79 C57 0.929 . S
Sm80 C82 2.846 . S
Sm80 O100 2.543 . S
Sm80 O101 2.450 . S
Sm80 O102 2.681 . S
Sm80 O103 2.464 . S
Sm80 O104 2.396 . S
Sm80 O108 2.386 . S
Sm80 O111 2.408 . S
Sm81 C91 2.846 . S
Sm81 O102 2.386 . S
Sm81 O105 2.408 . S
Sm81 O106 2.543 . S
Sm81 O107 2.450 . S
Sm81 O108 2.681 . S
Sm81 O109 2.464 . S
Sm81 O110 2.396 . S
C82 Sm80 2.846 . S
C82 C83 1.506 . S
C82 O100 1.261 . S
C82 O101 1.242 . S
C83 C82 1.506 . S
C83 C84 1.358 . S
C83 C88 1.382 . S
C84 C83 1.358 . S
C84 C85 1.385 . S
C84 H112 0.930 . S
C85 C84 1.385 . S
C85 C86 1.395 . S
C85 H113 0.929 . S
C86 C85 1.395 . S
C86 C87 1.335 . S
C87 C86 1.335 . S
C87 C88 1.398 . S
C87 H114 0.930 . S
C88 C83 1.382 . S
C88 C87 1.398 . S
C88 H115 0.929 . S
C89 O102 1.271 . S
C89 O103 1.251 . S
C90 O104 1.252 . S
C90 O105 1.272 . S
C91 Sm81 2.846 . S
C91 C92 1.506 . S
C91 O106 1.261 . S
C91 O107 1.242 . S
C92 C91 1.506 . S
C92 C93 1.358 . S
C92 C97 1.382 . S
C93 C92 1.358 . S
C93 C94 1.385 . S
C93 H116 0.930 . S
C94 C93 1.385 . S
C94 C95 1.395 . S
C94 H117 0.929 . S
C95 C94 1.395 . S
C95 C96 1.335 . S
C96 C95 1.335 . S
C96 C97 1.398 . S
C96 H118 0.930 . S
C97 C92 1.382 . S
C97 C96 1.398 . S
C97 H119 0.929 . S
C98 O108 1.271 . S
C98 O109 1.251 . S
C99 O110 1.252 . S
C99 O111 1.272 . S
O100 Sm80 2.543 . S
O100 C82 1.261 . S
O101 Sm80 2.450 . S
O101 C82 1.242 . S
O102 Sm80 2.681 . S
O102 Sm81 2.386 . S
O102 C89 1.271 . S
O103 Sm80 2.464 . S
O103 C89 1.251 . S
O104 Sm80 2.396 . S
O104 C90 1.252 . S
O105 Sm81 2.408 . S
O105 C90 1.272 . S
O106 Sm81 2.543 . S
O106 C91 1.261 . S
O107 Sm81 2.450 . S
O107 C91 1.242 . S
O108 Sm80 2.386 . S
O108 Sm81 2.681 . S
O108 C98 1.271 . S
O109 Sm81 2.464 . S
O109 C98 1.251 . S
O110 Sm81 2.396 . S
O110 C99 1.252 . S
O111 Sm80 2.408 . S
O111 C99 1.272 . S
H112 C84 0.930 . S
H113 C85 0.929 . S
H114 C87 0.930 . S
H115 C88 0.929 . S
H116 C93 0.930 . S
H117 C94 0.929 . S
H118 C96 0.930 . S
H119 C97 0.929 . S
Sm120 C122 2.846 . S
Sm120 O140 2.543 . S
Sm120 O141 2.450 . S
Sm120 O142 2.681 . S
Sm120 O143 2.464 . S
Sm120 O144 2.396 . S
Sm120 O148 2.386 . S
Sm120 O151 2.408 . S
Sm121 C131 2.846 . S
Sm121 O142 2.386 . S
Sm121 O145 2.408 . S
Sm121 O146 2.543 . S
Sm121 O147 2.450 . S
Sm121 O148 2.681 . S
Sm121 O149 2.464 . S
Sm121 O150 2.396 . S
C122 Sm120 2.846 . S
C122 C123 1.506 . S
C122 O140 1.261 . S
C122 O141 1.242 . S
C123 C122 1.506 . S
C123 C124 1.358 . S
C123 C128 1.382 . S
C124 C123 1.358 . S
C124 C125 1.385 . S
C124 H152 0.930 . S
C125 C124 1.385 . S
C125 C126 1.395 . S
C125 H153 0.929 . S
C126 C125 1.395 . S
C126 C127 1.335 . S
C127 C126 1.335 . S
C127 C128 1.398 . S
C127 H154 0.930 . S
C128 C123 1.382 . S
C128 C127 1.398 . S
C128 H155 0.929 . S
C129 O142 1.271 . S
C129 O143 1.251 . S
C130 O144 1.252 . S
C130 O145 1.272 . S
C131 Sm121 2.846 . S
C131 C132 1.506 . S
C131 O146 1.261 . S
C131 O147 1.242 . S
C132 C131 1.506 . S
C132 C133 1.358 . S
C132 C137 1.382 . S
C133 C132 1.358 . S
C133 C134 1.385 . S
C133 H156 0.930 . S
C134 C133 1.385 . S
C134 C135 1.395 . S
C134 H157 0.929 . S
C135 C134 1.395 . S
C135 C136 1.335 . S
C136 C135 1.335 . S
C136 C137 1.398 . S
C136 H158 0.930 . S
C137 C132 1.382 . S
C137 C136 1.398 . S
C137 H159 0.929 . S
C138 O148 1.271 . S
C138 O149 1.251 . S
C139 O150 1.252 . S
C139 O151 1.272 . S
O140 Sm120 2.543 . S
O140 C122 1.261 . S
O141 Sm120 2.450 . S
O141 C122 1.242 . S
O142 Sm120 2.681 . S
O142 Sm121 2.386 . S
O142 C129 1.271 . S
O143 Sm120 2.464 . S
O143 C129 1.251 . S
O144 Sm120 2.396 . S
O144 C130 1.252 . S
O145 Sm121 2.408 . S
O145 C130 1.272 . S
O146 Sm121 2.543 . S
O146 C131 1.261 . S
O147 Sm121 2.450 . S
O147 C131 1.242 . S
O148 Sm120 2.386 . S
O148 Sm121 2.681 . S
O148 C138 1.271 . S
O149 Sm121 2.464 . S
O149 C138 1.251 . S
O150 Sm121 2.396 . S
O150 C139 1.252 . S
O151 Sm120 2.408 . S
O151 C139 1.272 . S
H152 C124 0.930 . S
H153 C125 0.929 . S
H154 C127 0.930 . S
H155 C128 0.929 . S
H156 C133 0.930 . S
H157 C134 0.929 . S
H158 C136 0.930 . S
H159 C137 0.929 . S
Sm160 C162 2.846 1_556 S
Sm160 O180 2.543 1_556 S
Sm160 O181 2.450 1_556 S
Sm160 O182 2.681 . S
Sm160 O183 2.464 . S
Sm160 O184 2.396 1_556 S
Sm160 O188 2.386 1_556 S
Sm160 O191 2.408 . S
Sm161 C171 2.846 1_554 S
Sm161 O182 2.386 1_554 S
Sm161 O185 2.408 . S
Sm161 O186 2.543 1_554 S
Sm161 O187 2.450 1_554 S
Sm161 O188 2.681 . S
Sm161 O189 2.464 . S
Sm161 O190 2.396 1_554 S
C162 Sm160 2.846 1_554 S
C162 C163 1.506 . S
C162 O180 1.261 . S
C162 O181 1.242 . S
C163 C162 1.506 . S
C163 C164 1.358 . S
C163 C168 1.382 . S
C164 C163 1.358 . S
C164 C165 1.385 . S
C164 H192 0.930 . S
C165 C164 1.385 . S
C165 C166 1.395 . S
C165 H193 0.929 . S
C166 C165 1.395 . S
C166 C167 1.335 . S
C167 C166 1.335 . S
C167 C168 1.398 . S
C167 H194 0.930 . S
C168 C163 1.382 . S
C168 C167 1.398 . S
C168 H195 0.929 . S
C169 O182 1.271 . S
C169 O183 1.251 . S
C170 O184 1.252 . S
C170 O185 1.272 . S
C171 Sm161 2.846 1_556 S
C171 C172 1.506 . S
C171 O186 1.261 . S
C171 O187 1.242 . S
C172 C171 1.506 . S
C172 C173 1.358 . S
C172 C177 1.382 . S
C173 C172 1.358 . S
C173 C174 1.385 . S
C173 H196 0.930 . S
C174 C173 1.385 . S
C174 C175 1.395 . S
C174 H197 0.929 . S
C175 C174 1.395 . S
C175 C176 1.335 . S
C176 C175 1.335 . S
C176 C177 1.398 . S
C176 H198 0.930 . S
C177 C172 1.382 . S
C177 C176 1.398 . S
C177 H199 0.929 . S
C178 O188 1.271 . S
C178 O189 1.251 . S
C179 O190 1.252 . S
C179 O191 1.272 . S
O180 Sm160 2.543 1_554 S
O180 C162 1.261 . S
O181 Sm160 2.450 1_554 S
O181 C162 1.242 . S
O182 Sm160 2.681 . S
O182 Sm161 2.386 1_556 S
O182 C169 1.271 . S
O183 Sm160 2.464 . S
O183 C169 1.251 . S
O184 Sm160 2.396 1_554 S
O184 C170 1.252 . S
O185 Sm161 2.408 . S
O185 C170 1.272 . S
O186 Sm161 2.543 1_556 S
O186 C171 1.261 . S
O187 Sm161 2.450 1_556 S
O187 C171 1.242 . S
O188 Sm160 2.386 1_554 S
O188 Sm161 2.681 . S
O188 C178 1.271 . S
O189 Sm161 2.464 . S
O189 C178 1.251 . S
O190 Sm161 2.396 1_556 S
O190 C179 1.252 . S
O191 Sm160 2.408 . S
O191 C179 1.272 . S
H192 C164 0.930 . S
H193 C165 0.929 . S
H194 C167 0.930 . S
H195 C168 0.929 . S
H196 C173 0.930 . S
H197 C174 0.929 . S
H198 C176 0.930 . S
H199 C177 0.929 . S
Sm200 C202 2.846 1_556 S
Sm200 O220 2.543 1_556 S
Sm200 O221 2.450 1_556 S
Sm200 O222 2.681 . S
Sm200 O223 2.464 . S
Sm200 O224 2.396 1_556 S
Sm200 O228 2.386 1_556 S
Sm200 O231 2.408 . S
Sm201 C211 2.846 1_554 S
Sm201 O222 2.386 1_554 S
Sm201 O225 2.408 . S
Sm201 O226 2.543 1_554 S
Sm201 O227 2.450 1_554 S
Sm201 O228 2.681 . S
Sm201 O229 2.464 . S
Sm201 O230 2.396 1_554 S
C202 Sm200 2.846 1_554 S
C202 C203 1.506 . S
C202 O220 1.261 . S
C202 O221 1.242 . S
C203 C202 1.506 . S
C203 C204 1.358 . S
C203 C208 1.382 . S
C204 C203 1.358 . S
C204 C205 1.385 . S
C204 H232 0.930 . S
C205 C204 1.385 . S
C205 C206 1.395 . S
C205 H233 0.929 . S
C206 C205 1.395 . S
C206 C207 1.335 . S
C207 C206 1.335 . S
C207 C208 1.398 . S
C207 H234 0.930 . S
C208 C203 1.382 . S
C208 C207 1.398 . S
C208 H235 0.929 . S
C209 O222 1.271 . S
C209 O223 1.251 . S
C210 O224 1.252 . S
C210 O225 1.272 . S
C211 Sm201 2.846 1_556 S
C211 C212 1.506 . S
C211 O226 1.261 . S
C211 O227 1.242 . S
C212 C211 1.506 . S
C212 C213 1.358 . S
C212 C217 1.382 . S
C213 C212 1.358 . S
C213 C214 1.385 . S
C213 H236 0.930 . S
C214 C213 1.385 . S
C214 C215 1.395 . S
C214 H237 0.929 . S
C215 C214 1.395 . S
C215 C216 1.335 . S
C216 C215 1.335 . S
C216 C217 1.398 . S
C216 H238 0.930 . S
C217 C212 1.382 . S
C217 C216 1.398 . S
C217 H239 0.929 . S
C218 O228 1.271 . S
C218 O229 1.251 . S
C219 O230 1.252 . S
C219 O231 1.272 . S
O220 Sm200 2.543 1_554 S
O220 C202 1.261 . S
O221 Sm200 2.450 1_554 S
O221 C202 1.242 . S
O222 Sm200 2.681 . S
O222 Sm201 2.386 1_556 S
O222 C209 1.271 . S
O223 Sm200 2.464 . S
O223 C209 1.251 . S
O224 Sm200 2.396 1_554 S
O224 C210 1.252 . S
O225 Sm201 2.408 . S
O225 C210 1.272 . S
O226 Sm201 2.543 1_556 S
O226 C211 1.261 . S
O227 Sm201 2.450 1_556 S
O227 C211 1.242 . S
O228 Sm200 2.386 1_554 S
O228 Sm201 2.681 . S
O228 C218 1.271 . S
O229 Sm201 2.464 . S
O229 C218 1.251 . S
O230 Sm201 2.396 1_556 S
O230 C219 1.252 . S
O231 Sm200 2.408 . S
O231 C219 1.272 . S
H232 C204 0.930 . S
H233 C205 0.929 . S
H234 C207 0.930 . S
H235 C208 0.929 . S
H236 C213 0.930 . S
H237 C214 0.929 . S
H238 C216 0.930 . S
H239 C217 0.929 . S
Sm240 C242 2.846 1_556 S
Sm240 O260 2.543 1_556 S
Sm240 O261 2.450 1_556 S
Sm240 O262 2.681 . S
Sm240 O263 2.464 . S
Sm240 O264 2.396 1_556 S
Sm240 O268 2.386 1_556 S
Sm240 O271 2.408 . S
Sm241 C251 2.846 1_554 S
Sm241 O262 2.386 1_554 S
Sm241 O265 2.408 . S
Sm241 O266 2.543 1_554 S
Sm241 O267 2.450 1_554 S
Sm241 O268 2.681 . S
Sm241 O269 2.464 . S
Sm241 O270 2.396 1_554 S
C242 Sm240 2.846 1_554 S
C242 C243 1.506 . S
C242 O260 1.261 . S
C242 O261 1.242 . S
C243 C242 1.506 . S
C243 C244 1.358 . S
C243 C248 1.382 . S
C244 C243 1.358 . S
C244 C245 1.385 . S
C244 H272 0.930 . S
C245 C244 1.385 . S
C245 C246 1.395 . S
C245 H273 0.929 . S
C246 C245 1.395 . S
C246 C247 1.335 . S
C247 C246 1.335 . S
C247 C248 1.398 . S
C247 H274 0.930 . S
C248 C243 1.382 . S
C248 C247 1.398 . S
C248 H275 0.929 . S
C249 O262 1.271 . S
C249 O263 1.251 . S
C250 O264 1.252 . S
C250 O265 1.272 . S
C251 Sm241 2.846 1_556 S
C251 C252 1.506 . S
C251 O266 1.261 . S
C251 O267 1.242 . S
C252 C251 1.506 . S
C252 C253 1.358 . S
C252 C257 1.382 . S
C253 C252 1.358 . S
C253 C254 1.385 . S
C253 H276 0.930 . S
C254 C253 1.385 . S
C254 C255 1.395 . S
C254 H277 0.929 . S
C255 C254 1.395 . S
C255 C256 1.335 . S
C256 C255 1.335 . S
C256 C257 1.398 . S
C256 H278 0.930 . S
C257 C252 1.382 . S
C257 C256 1.398 . S
C257 H279 0.929 . S
C258 O268 1.271 . S
C258 O269 1.251 . S
C259 O270 1.252 . S
C259 O271 1.272 . S
O260 Sm240 2.543 1_554 S
O260 C242 1.261 . S
O261 Sm240 2.450 1_554 S
O261 C242 1.242 . S
O262 Sm240 2.681 . S
O262 Sm241 2.386 1_556 S
O262 C249 1.271 . S
O263 Sm240 2.464 . S
O263 C249 1.251 . S
O264 Sm240 2.396 1_554 S
O264 C250 1.252 . S
O265 Sm241 2.408 . S
O265 C250 1.272 . S
O266 Sm241 2.543 1_556 S
O266 C251 1.261 . S
O267 Sm241 2.450 1_556 S
O267 C251 1.242 . S
O268 Sm240 2.386 1_554 S
O268 Sm241 2.681 . S
O268 C258 1.271 . S
O269 Sm241 2.464 . S
O269 C258 1.251 . S
O270 Sm241 2.396 1_556 S
O270 C259 1.252 . S
O271 Sm240 2.408 . S
O271 C259 1.272 . S
H272 C244 0.930 . S
H273 C245 0.929 . S
H274 C247 0.930 . S
H275 C248 0.929 . S
H276 C253 0.930 . S
H277 C254 0.929 . S
H278 C256 0.930 . S
H279 C257 0.929 . S
Sm280 C282 2.846 1_556 S
Sm280 O300 2.543 1_556 S
Sm280 O301 2.450 1_556 S
Sm280 O302 2.681 . S
Sm280 O303 2.464 . S
Sm280 O304 2.396 1_556 S
Sm280 O308 2.386 1_556 S
Sm280 O311 2.408 . S
Sm281 C291 2.846 1_554 S
Sm281 O302 2.386 1_554 S
Sm281 O305 2.408 . S
Sm281 O306 2.543 1_554 S
Sm281 O307 2.450 1_554 S
Sm281 O308 2.681 . S
Sm281 O309 2.464 . S
Sm281 O310 2.396 1_554 S
C282 Sm280 2.846 1_554 S
C282 C283 1.506 . S
C282 O300 1.261 . S
C282 O301 1.242 . S
C283 C282 1.506 . S
C283 C284 1.358 . S
C283 C288 1.382 . S
C284 C283 1.358 . S
C284 C285 1.385 . S
C284 H312 0.930 . S
C285 C284 1.385 . S
C285 C286 1.395 . S
C285 H313 0.929 . S
C286 C285 1.395 . S
C286 C287 1.335 . S
C287 C286 1.335 . S
C287 C288 1.398 . S
C287 H314 0.930 . S
C288 C283 1.382 . S
C288 C287 1.398 . S
C288 H315 0.929 . S
C289 O302 1.271 . S
C289 O303 1.251 . S
C290 O304 1.252 . S
C290 O305 1.272 . S
C291 Sm281 2.846 1_556 S
C291 C292 1.506 . S
C291 O306 1.261 . S
C291 O307 1.242 . S
C292 C291 1.506 . S
C292 C293 1.358 . S
C292 C297 1.382 . S
C293 C292 1.358 . S
C293 C294 1.385 . S
C293 H316 0.930 . S
C294 C293 1.385 . S
C294 C295 1.395 . S
C294 H317 0.929 . S
C295 C294 1.395 . S
C295 C296 1.335 . S
C296 C295 1.335 . S
C296 C297 1.398 . S
C296 H318 0.930 . S
C297 C292 1.382 . S
C297 C296 1.398 . S
C297 H319 0.929 . S
C298 O308 1.271 . S
C298 O309 1.251 . S
C299 O310 1.252 . S
C299 O311 1.272 . S
O300 Sm280 2.543 1_554 S
O300 C282 1.261 . S
O301 Sm280 2.450 1_554 S
O301 C282 1.242 . S
O302 Sm280 2.681 . S
O302 Sm281 2.386 1_556 S
O302 C289 1.271 . S
O303 Sm280 2.464 . S
O303 C289 1.251 . S
O304 Sm280 2.396 1_554 S
O304 C290 1.252 . S
O305 Sm281 2.408 . S
O305 C290 1.272 . S
O306 Sm281 2.543 1_556 S
O306 C291 1.261 . S
O307 Sm281 2.450 1_556 S
O307 C291 1.242 . S
O308 Sm280 2.386 1_554 S
O308 Sm281 2.681 . S
O308 C298 1.271 . S
O309 Sm281 2.464 . S
O309 C298 1.251 . S
O310 Sm281 2.396 1_556 S
O310 C299 1.252 . S
O311 Sm280 2.408 . S
O311 C299 1.272 . S
H312 C284 0.930 . S
H313 C285 0.929 . S
H314 C287 0.930 . S
H315 C288 0.929 . S
H316 C293 0.930 . S
H317 C294 0.929 . S
H318 C296 0.930 . S
H319 C297 0.929 . S
H320 C328 0.929 . S
H321 C330 0.930 . S
H322 C332 0.930 . S
H323 C335 0.929 . S
H324 C338 0.930 . S
H325 C340 0.960 . S
H326 C340 0.960 . S
H327 C340 0.960 . S
C328 H320 0.929 . S
C328 C329 1.377 . S
C328 C330 1.384 . S
C329 C328 1.377 . S
C329 C335 1.390 . S
C330 H321 0.930 . S
C330 C328 1.384 . S
C330 C331 1.372 . S
C331 C330 1.372 . S
C331 C332 1.400 . S
C331 C336 1.490 . S
C332 H322 0.930 . S
C332 C331 1.400 . S
C332 C335 1.386 . S
H333 C349 0.930 . S
H334 C350 0.931 . S
C335 H323 0.929 . S
C335 C329 1.390 . S
C335 C332 1.386 . S
C336 C331 1.490 . S
C336 C338 1.395 . S
C336 C339 1.403 . S
H337 C343 0.930 . S
C338 H324 0.930 . S
C338 C336 1.395 . S
C338 C341 1.403 . S
C339 C336 1.403 . S
C339 C340 1.524 . S
C339 C343 1.400 . S
C340 H325 0.960 . S
C340 H326 0.960 . S
C340 H327 0.960 . S
C340 C339 1.524 . S
C341 C338 1.403 . S
C341 C342 1.392 . S
C341 C345 1.495 . S
C342 C341 1.392 . S
C342 C343 1.385 . S
C342 C344 1.478 . S
C343 H337 0.930 . S
C343 C339 1.400 . S
C343 C342 1.385 . S
C344 C342 1.478 . S
C344 C346 1.381 . S
C344 C350 1.383 . S
C345 C341 1.495 . S
C345 H351 0.959 . S
C345 H352 0.961 . S
C345 H353 0.960 . S
C346 C344 1.381 . S
C346 C347 1.394 . S
C346 H354 0.930 . S
C347 C346 1.394 . S
C347 C348 1.383 . S
C347 H355 0.929 . S
C348 C347 1.383 . S
C348 C349 1.377 . S
C349 H333 0.930 . S
C349 C348 1.377 . S
C349 C350 1.379 . S
C350 H334 0.931 . S
C350 C344 1.383 . S
C350 C349 1.379 . S
H351 C345 0.959 . S
H352 C345 0.961 . S
H353 C345 0.960 . S
H354 C346 0.930 . S
H355 C347 0.929 . S
H356 C364 0.929 . S
H357 C366 0.930 . S
H358 C368 0.930 . S
H359 C371 0.929 . S
H360 C374 0.930 . S
H361 C376 0.960 . S
H362 C376 0.960 . S
H363 C376 0.960 . S
C364 H356 0.929 . S
C364 C365 1.377 . S
C364 C366 1.384 . S
C365 C364 1.377 . S
C365 C371 1.390 . S
C366 H357 0.930 . S
C366 C364 1.384 . S
C366 C367 1.372 . S
C367 C366 1.372 . S
C367 C368 1.400 . S
C367 C372 1.490 . S
C368 H358 0.930 . S
C368 C367 1.400 . S
C368 C371 1.386 . S
H369 C385 0.930 . S
H370 C386 0.931 . S
C371 H359 0.929 . S
C371 C365 1.390 . S
C371 C368 1.386 . S
C372 C367 1.490 . S
C372 C374 1.395 . S
C372 C375 1.403 . S
H373 C379 0.930 . S
C374 H360 0.930 . S
C374 C372 1.395 . S
C374 C377 1.403 . S
C375 C372 1.403 . S
C375 C376 1.524 . S
C375 C379 1.400 . S
C376 H361 0.960 . S
C376 H362 0.960 . S
C376 H363 0.960 . S
C376 C375 1.524 . S
C377 C374 1.403 . S
C377 C378 1.392 . S
C377 C381 1.495 . S
C378 C377 1.392 . S
C378 C379 1.385 . S
C378 C380 1.478 . S
C379 H373 0.930 . S
C379 C375 1.400 . S
C379 C378 1.385 . S
C380 C378 1.478 . S
C380 C382 1.381 . S
C380 C386 1.383 . S
C381 C377 1.495 . S
C381 H387 0.959 . S
C381 H388 0.961 . S
C381 H389 0.960 . S
C382 C380 1.381 . S
C382 C383 1.394 . S
C382 H390 0.930 . S
C383 C382 1.394 . S
C383 C384 1.383 . S
C383 H391 0.929 . S
C384 C383 1.383 . S
C384 C385 1.377 . S
C385 H369 0.930 . S
C385 C384 1.377 . S
C385 C386 1.379 . S
C386 H370 0.931 . S
C386 C380 1.383 . S
C386 C385 1.379 . S
H387 C381 0.959 . S
H388 C381 0.961 . S
H389 C381 0.960 . S
H390 C382 0.930 . S
H391 C383 0.929 . S
H392 C400 0.929 . S
H393 C402 0.930 . S
H394 C404 0.930 . S
H395 C407 0.929 . S
H396 C410 0.930 . S
H397 C412 0.960 . S
H398 C412 0.960 . S
H399 C412 0.960 . S
C400 H392 0.929 . S
C400 C401 1.377 . S
C400 C402 1.384 . S
C401 C400 1.377 . S
C401 C407 1.390 . S
C402 H393 0.930 . S
C402 C400 1.384 . S
C402 C403 1.372 . S
C403 C402 1.372 . S
C403 C404 1.400 . S
C403 C408 1.490 . S
C404 H394 0.930 . S
C404 C403 1.400 . S
C404 C407 1.386 . S
H405 C421 0.930 . S
H406 C422 0.931 . S
C407 H395 0.929 . S
C407 C401 1.390 . S
C407 C404 1.386 . S
C408 C403 1.490 . S
C408 C410 1.395 . S
C408 C411 1.403 . S
H409 C415 0.930 . S
C410 H396 0.930 . S
C410 C408 1.395 . S
C410 C413 1.403 . S
C411 C408 1.403 . S
C411 C412 1.524 . S
C411 C415 1.400 . S
C412 H397 0.960 . S
C412 H398 0.960 . S
C412 H399 0.960 . S
C412 C411 1.524 . S
C413 C410 1.403 . S
C413 C414 1.392 . S
C413 C417 1.495 . S
C414 C413 1.392 . S
C414 C415 1.385 . S
C414 C416 1.478 . S
C415 H409 0.930 . S
C415 C411 1.400 . S
C415 C414 1.385 . S
C416 C414 1.478 . S
C416 C418 1.381 . S
C416 C422 1.383 . S
C417 C413 1.495 . S
C417 H423 0.959 . S
C417 H424 0.961 . S
C417 H425 0.960 . S
C418 C416 1.381 . S
C418 C419 1.394 . S
C418 H426 0.930 . S
C419 C418 1.394 . S
C419 C420 1.383 . S
C419 H427 0.929 . S
C420 C419 1.383 . S
C420 C421 1.377 . S
C421 H405 0.930 . S
C421 C420 1.377 . S
C421 C422 1.379 . S
C422 H406 0.931 . S
C422 C416 1.383 . S
C422 C421 1.379 . S
H423 C417 0.959 . S
H424 C417 0.961 . S
H425 C417 0.960 . S
H426 C418 0.930 . S
H427 C419 0.929 . S
H428 C436 0.929 . S
H429 C438 0.930 . S
H430 C440 0.930 . S
H431 C443 0.929 . S
H432 C446 0.930 . S
H433 C448 0.960 . S
H434 C448 0.960 . S
H435 C448 0.960 . S
C436 H428 0.929 . S
C436 C437 1.377 . S
C436 C438 1.384 . S
C437 C436 1.377 . S
C437 C443 1.390 . S
C438 H429 0.930 . S
C438 C436 1.384 . S
C438 C439 1.372 . S
C439 C438 1.372 . S
C439 C440 1.400 . S
C439 C444 1.490 . S
C440 H430 0.930 . S
C440 C439 1.400 . S
C440 C443 1.386 . S
H441 C457 0.930 . S
H442 C458 0.931 . S
C443 H431 0.929 . S
C443 C437 1.390 . S
C443 C440 1.386 . S
C444 C439 1.490 . S
C444 C446 1.395 . S
C444 C447 1.403 . S
H445 C451 0.930 . S
C446 H432 0.930 . S
C446 C444 1.395 . S
C446 C449 1.403 . S
C447 C444 1.403 . S
C447 C448 1.524 . S
C447 C451 1.400 . S
C448 H433 0.960 . S
C448 H434 0.960 . S
C448 H435 0.960 . S
C448 C447 1.524 . S
C449 C446 1.403 . S
C449 C450 1.392 . S
C449 C453 1.495 . S
C450 C449 1.392 . S
C450 C451 1.385 . S
C450 C452 1.478 . S
C451 H445 0.930 . S
C451 C447 1.400 . S
C451 C450 1.385 . S
C452 C450 1.478 . S
C452 C454 1.381 . S
C452 C458 1.383 . S
C453 C449 1.495 . S
C453 H459 0.959 . S
C453 H460 0.961 . S
C453 H461 0.960 . S
C454 C452 1.381 . S
C454 C455 1.394 . S
C454 H462 0.930 . S
C455 C454 1.394 . S
C455 C456 1.383 . S
C455 H463 0.929 . S
C456 C455 1.383 . S
C456 C457 1.377 . S
C457 H441 0.930 . S
C457 C456 1.377 . S
C457 C458 1.379 . S
C458 H442 0.931 . S
C458 C452 1.383 . S
C458 C457 1.379 . S
H459 C453 0.959 . S
H460 C453 0.961 . S
H461 C453 0.960 . S
H462 C454 0.930 . S
H463 C455 0.929 . S
H464 C472 0.929 . S
H465 C474 0.930 . S
H466 C476 0.930 . S
H467 C479 0.929 . S
H468 C482 0.930 . S
H469 C484 0.960 . S
H470 C484 0.960 . S
H471 C484 0.960 . S
C472 H464 0.929 . S
C472 C473 1.377 . S
C472 C474 1.384 . S
C473 C472 1.377 . S
C473 C479 1.390 . S
C474 H465 0.930 . S
C474 C472 1.384 . S
C474 C475 1.372 . S
C475 C474 1.372 . S
C475 C476 1.400 . S
C475 C480 1.490 . S
C476 H466 0.930 . S
C476 C475 1.400 . S
C476 C479 1.386 . S
H477 C493 0.930 . S
H478 C494 0.931 . S
C479 H467 0.929 . S
C479 C473 1.390 . S
C479 C476 1.386 . S
C480 C475 1.490 . S
C480 C482 1.395 . S
C480 C483 1.403 . S
H481 C487 0.930 . S
C482 H468 0.930 . S
C482 C480 1.395 . S
C482 C485 1.403 1_565 S
C483 C480 1.403 . S
C483 C484 1.524 . S
C483 C487 1.400 1_565 S
C484 H469 0.960 . S
C484 H470 0.960 . S
C484 H471 0.960 . S
C484 C483 1.524 . S
C485 C482 1.403 1_545 S
C485 C486 1.392 . S
C485 C489 1.495 . S
C486 C485 1.392 . S
C486 C487 1.385 . S
C486 C488 1.478 . S
C487 H481 0.930 . S
C487 C483 1.400 1_545 S
C487 C486 1.385 . S
C488 C486 1.478 . S
C488 C490 1.381 . S
C488 C494 1.383 . S
C489 C485 1.495 . S
C489 H495 0.959 . S
C489 H496 0.961 . S
C489 H497 0.960 . S
C490 C488 1.381 . S
C490 C491 1.394 . S
C490 H498 0.930 . S
C491 C490 1.394 . S
C491 C492 1.383 . S
C491 H499 0.929 . S
C492 C491 1.383 . S
C492 C493 1.377 . S
C493 H477 0.930 . S
C493 C492 1.377 . S
C493 C494 1.379 . S
C494 H478 0.931 . S
C494 C488 1.383 . S
C494 C493 1.379 . S
H495 C489 0.959 . S
H496 C489 0.961 . S
H497 C489 0.960 . S
H498 C490 0.930 . S
H499 C491 0.929 . S
H500 C508 0.929 . S
H501 C510 0.930 . S
H502 C512 0.930 . S
H503 C515 0.929 . S
H504 C518 0.930 . S
H505 C520 0.960 . S
H506 C520 0.960 . S
H507 C520 0.960 . S
C508 H500 0.929 . S
C508 C509 1.377 . S
C508 C510 1.384 . S
C509 C508 1.377 . S
C509 C515 1.390 . S
C510 H501 0.930 . S
C510 C508 1.384 . S
C510 C511 1.372 . S
C511 C510 1.372 . S
C511 C512 1.400 . S
C511 C516 1.490 . S
C512 H502 0.930 . S
C512 C511 1.400 . S
C512 C515 1.386 . S
H513 C529 0.930 . S
H514 C530 0.931 . S
C515 H503 0.929 . S
C515 C509 1.390 . S
C515 C512 1.386 . S
C516 C511 1.490 . S
C516 C518 1.395 . S
C516 C519 1.403 . S
H517 C523 0.930 . S
C518 H504 0.930 . S
C518 C516 1.395 . S
C518 C521 1.403 . S
C519 C516 1.403 . S
C519 C520 1.524 . S
C519 C523 1.400 . S
C520 H505 0.960 . S
C520 H506 0.960 . S
C520 H507 0.960 . S
C520 C519 1.524 . S
C521 C518 1.403 . S
C521 C522 1.392 . S
C521 C525 1.495 . S
C522 C521 1.392 . S
C522 C523 1.385 . S
C522 C524 1.478 . S
C523 H517 0.930 . S
C523 C519 1.400 . S
C523 C522 1.385 . S
C524 C522 1.478 . S
C524 C526 1.381 . S
C524 C530 1.383 . S
C525 C521 1.495 . S
C525 H531 0.959 . S
C525 H532 0.961 . S
C525 H533 0.960 . S
C526 C524 1.381 . S
C526 C527 1.394 . S
C526 H534 0.930 . S
C527 C526 1.394 . S
C527 C528 1.383 . S
C527 H535 0.929 . S
C528 C527 1.383 . S
C528 C529 1.377 . S
C529 H513 0.930 . S
C529 C528 1.377 . S
C529 C530 1.379 . S
C530 H514 0.931 . S
C530 C524 1.383 . S
C530 C529 1.379 . S
H531 C525 0.959 . S
H532 C525 0.961 . S
H533 C525 0.960 . S
H534 C526 0.930 . S
H535 C527 0.929 . S
H536 C544 0.929 . S
H537 C546 0.930 . S
H538 C548 0.930 . S
H539 C551 0.929 . S
H540 C554 0.930 . S
H541 C556 0.960 . S
H542 C556 0.960 . S
H543 C556 0.960 . S
C544 H536 0.929 . S
C544 C545 1.377 . S
C544 C546 1.384 . S
C545 C544 1.377 . S
C545 C551 1.390 . S
C546 H537 0.930 . S
C546 C544 1.384 . S
C546 C547 1.372 . S
C547 C546 1.372 . S
C547 C548 1.400 . S
C547 C552 1.490 . S
C548 H538 0.930 . S
C548 C547 1.400 . S
C548 C551 1.386 . S
H549 C565 0.930 . S
H550 C566 0.931 . S
C551 H539 0.929 . S
C551 C545 1.390 . S
C551 C548 1.386 . S
C552 C547 1.490 . S
C552 C554 1.395 . S
C552 C555 1.403 . S
H553 C559 0.930 . S
C554 H540 0.930 . S
C554 C552 1.395 . S
C554 C557 1.403 1_565 S
C555 C552 1.403 . S
C555 C556 1.524 . S
C555 C559 1.400 1_565 S
C556 H541 0.960 . S
C556 H542 0.960 . S
C556 H543 0.960 . S
C556 C555 1.524 . S
C557 C554 1.403 1_545 S
C557 C558 1.392 . S
C557 C561 1.495 . S
C558 C557 1.392 . S
C558 C559 1.385 . S
C558 C560 1.478 . S
C559 H553 0.930 . S
C559 C555 1.400 1_545 S
C559 C558 1.385 . S
C560 C558 1.478 . S
C560 C562 1.381 . S
C560 C566 1.383 . S
C561 C557 1.495 . S
C561 H567 0.959 . S
C561 H568 0.961 . S
C561 H569 0.960 . S
C562 C560 1.381 . S
C562 C563 1.394 . S
C562 H570 0.930 . S
C563 C562 1.394 . S
C563 C564 1.383 . S
C563 H571 0.929 . S
C564 C563 1.383 . S
C564 C565 1.377 . S
C565 H549 0.930 . S
C565 C564 1.377 . S
C565 C566 1.379 . S
C566 H550 0.931 . S
C566 C560 1.383 . S
C566 C565 1.379 . S
H567 C561 0.959 . S
H568 C561 0.961 . S
H569 C561 0.960 . S
H570 C562 0.930 . S
H571 C563 0.929 . S
H572 C580 0.929 . S
H573 C582 0.930 . S
H574 C584 0.930 . S
H575 C587 0.929 . S
H576 C590 0.930 . S
H577 C592 0.960 . S
H578 C592 0.960 . S
H579 C592 0.960 . S
C580 H572 0.929 . S
C580 C581 1.377 . S
C580 C582 1.384 . S
C581 C580 1.377 . S
C581 C587 1.390 . S
C582 H573 0.930 . S
C582 C580 1.384 . S
C582 C583 1.372 . S
C583 C582 1.372 . S
C583 C584 1.400 . S
C583 C588 1.490 . S
C584 H574 0.930 . S
C584 C583 1.400 . S
C584 C587 1.386 . S
H585 C601 0.930 . S
H586 C602 0.931 . S
C587 H575 0.929 . S
C587 C581 1.390 . S
C587 C584 1.386 . S
C588 C583 1.490 . S
C588 C590 1.395 . S
C588 C591 1.403 . S
H589 C595 0.930 . S
C590 H576 0.930 . S
C590 C588 1.395 . S
C590 C593 1.403 . S
C591 C588 1.403 . S
C591 C592 1.524 . S
C591 C595 1.400 . S
C592 H577 0.960 . S
C592 H578 0.960 . S
C592 H579 0.960 . S
C592 C591 1.524 . S
C593 C590 1.403 . S
C593 C594 1.392 . S
C593 C597 1.495 . S
C594 C593 1.392 . S
C594 C595 1.385 . S
C594 C596 1.478 . S
C595 H589 0.930 . S
C595 C591 1.400 . S
C595 C594 1.385 . S
C596 C594 1.478 . S
C596 C598 1.381 . S
C596 C602 1.383 . S
C597 C593 1.495 . S
C597 H603 0.959 . S
C597 H604 0.961 . S
C597 H605 0.960 . S
C598 C596 1.381 . S
C598 C599 1.394 . S
C598 H606 0.930 . S
C599 C598 1.394 . S
C599 C600 1.383 . S
C599 H607 0.929 . S
C600 C599 1.383 . S
C600 C601 1.377 . S
C601 H585 0.930 . S
C601 C600 1.377 . S
C601 C602 1.379 . S
C602 H586 0.931 . S
C602 C596 1.383 . S
C602 C601 1.379 . S
H603 C597 0.959 . S
H604 C597 0.961 . S
H605 C597 0.960 . S
H606 C598 0.930 . S
H607 C599 0.929 . S
H608 C616 0.929 . S
H609 C618 0.930 . S
H610 C620 0.930 . S
H611 C623 0.929 . S
H612 C626 0.930 . S
H613 C628 0.960 . S
H614 C628 0.960 . S
H615 C628 0.960 . S
C616 H608 0.929 . S
C616 C617 1.377 1_554 S
C616 C618 1.384 . S
C617 C616 1.377 1_556 S
C617 C623 1.390 . S
C618 H609 0.930 . S
C618 C616 1.384 . S
C618 C619 1.372 1_554 S
C619 C618 1.372 1_556 S
C619 C620 1.400 . S
C619 C624 1.490 . S
C620 H610 0.930 . S
C620 C619 1.400 . S
C620 C623 1.386 . S
H621 C637 0.930 . S
H622 C638 0.931 . S
C623 H611 0.929 . S
C623 C617 1.390 . S
C623 C620 1.386 . S
C624 C619 1.490 . S
C624 C626 1.395 . S
C624 C627 1.403 1_556 S
H625 C631 0.930 . S
C626 H612 0.930 . S
C626 C624 1.395 . S
C626 C629 1.403 . S
C627 C624 1.403 1_554 S
C627 C628 1.524 . S
C627 C631 1.400 . S
C628 H613 0.960 . S
C628 H614 0.960 . S
C628 H615 0.960 . S
C628 C627 1.524 . S
C629 C626 1.403 . S
C629 C630 1.392 . S
C629 C633 1.495 . S
C630 C629 1.392 . S
C630 C631 1.385 1_556 S
C630 C632 1.478 . S
C631 H625 0.930 . S
C631 C627 1.400 . S
C631 C630 1.385 1_554 S
C632 C630 1.478 . S
C632 C634 1.381 1_556 S
C632 C638 1.383 . S
C633 C629 1.495 . S
C633 H639 0.959 . S
C633 H640 0.961 . S
C633 H641 0.960 . S
C634 C632 1.381 1_554 S
C634 C635 1.394 . S
C634 H642 0.930 . S
C635 C634 1.394 . S
C635 C636 1.383 1_554 S
C635 H643 0.929 . S
C636 C635 1.383 1_556 S
C636 C637 1.377 . S
C637 H621 0.930 . S
C637 C636 1.377 . S
C637 C638 1.379 . S
C638 H622 0.931 . S
C638 C632 1.383 . S
C638 C637 1.379 . S
H639 C633 0.959 . S
H640 C633 0.961 . S
H641 C633 0.960 . S
H642 C634 0.930 . S
H643 C635 0.929 . S
H644 C652 0.929 . S
H645 C654 0.930 . S
H646 C656 0.930 . S
H647 C659 0.929 . S
H648 C662 0.930 . S
H649 C664 0.960 . S
H650 C664 0.960 . S
H651 C664 0.960 . S
C652 H644 0.929 . S
C652 C653 1.377 1_554 S
C652 C654 1.384 . S
C653 C652 1.377 1_556 S
C653 C659 1.390 . S
C654 H645 0.930 . S
C654 C652 1.384 . S
C654 C655 1.360 1_554 S
C655 C654 1.360 1_556 S
C655 C656 1.412 . S
C655 C660 1.489 1_556 S
C656 H646 0.930 . S
C656 C655 1.412 . S
C656 C659 1.386 . S
H657 C673 0.930 . S
H658 C674 0.931 . S
C659 H647 0.929 . S
C659 C653 1.390 . S
C659 C656 1.386 . S
C660 C655 1.489 1_554 S
C660 C662 1.395 . S
C660 C663 1.403 1_554 S
H661 C667 0.930 . S
C662 H648 0.930 . S
C662 C660 1.395 . S
C662 C665 1.403 1_565 S
C663 C660 1.403 1_556 S
C663 C664 1.524 . S
C663 C667 1.400 1_565 S
C664 H649 0.960 . S
C664 H650 0.960 . S
C664 H651 0.960 . S
C664 C663 1.524 . S
C665 C662 1.403 1_545 S
C665 C666 1.392 . S
C665 C669 1.495 . S
C666 C665 1.392 . S
C666 C667 1.385 1_554 S
C666 C668 1.478 . S
C667 H661 0.930 . S
C667 C663 1.400 1_545 S
C667 C666 1.385 1_556 S
C668 C666 1.478 . S
C668 C670 1.381 . S
C668 C674 1.383 1_554 S
C669 C665 1.495 . S
C669 H675 0.959 . S
C669 H676 0.961 . S
C669 H677 0.960 . S
C670 C668 1.381 . S
C670 C671 1.394 . S
C670 H678 0.930 . S
C671 C670 1.394 . S
C671 C672 1.383 . S
C671 H679 0.929 . S
C672 C671 1.383 . S
C672 C673 1.377 1_554 S
C673 H657 0.930 . S
C673 C672 1.377 1_556 S
C673 C674 1.379 . S
C674 H658 0.931 . S
C674 C668 1.383 1_556 S
C674 C673 1.379 . S
H675 C669 0.959 . S
H676 C669 0.961 . S
H677 C669 0.960 . S
H678 C670 0.930 . S
H679 C671 0.929 . S
H680 C688 0.929 . S
H681 C690 0.930 . S
H682 C692 0.930 . S
H683 C695 0.929 . S
H684 C698 0.930 . S
H685 C700 0.960 . S
H686 C700 0.960 . S
H687 C700 0.960 . S
C688 H680 0.929 . S
C688 C689 1.377 . S
C688 C690 1.384 . S
C689 C688 1.377 . S
C689 C695 1.390 1_554 S
C690 H681 0.930 . S
C690 C688 1.384 . S
C690 C691 1.372 . S
C691 C690 1.372 . S
C691 C692 1.400 1_554 S
C691 C696 1.490 . S
C692 H682 0.930 . S
C692 C691 1.400 1_556 S
C692 C695 1.386 . S
H693 C709 0.930 . S
H694 C710 0.931 . S
C695 H683 0.929 . S
C695 C689 1.390 1_556 S
C695 C692 1.386 . S
C696 C691 1.490 . S
C696 C698 1.395 . S
C696 C699 1.403 1_554 S
H697 C703 0.930 . S
C698 H684 0.930 . S
C698 C696 1.395 . S
C698 C701 1.403 . S
C699 C696 1.403 1_556 S
C699 C700 1.524 . S
C699 C703 1.400 . S
C700 H685 0.960 . S
C700 H686 0.960 . S
C700 H687 0.960 . S
C700 C699 1.524 . S
C701 C698 1.403 . S
C701 C702 1.392 . S
C701 C705 1.495 . S
C702 C701 1.392 . S
C702 C703 1.385 1_554 S
C702 C704 1.478 . S
C703 H697 0.930 . S
C703 C699 1.400 . S
C703 C702 1.385 1_556 S
C704 C702 1.478 . S
C704 C706 1.381 . S
C704 C710 1.383 1_554 S
C705 C701 1.495 . S
C705 H711 0.959 . S
C705 H712 0.961 . S
C705 H713 0.960 . S
C706 C704 1.381 . S
C706 C707 1.394 . S
C706 H714 0.930 . S
C707 C706 1.394 . S
C707 C708 1.383 . S
C707 H715 0.929 . S
C708 C707 1.383 . S
C708 C709 1.377 1_554 S
C709 H693 0.930 . S
C709 C708 1.377 1_556 S
C709 C710 1.379 . S
C710 H694 0.931 . S
C710 C704 1.383 1_556 S
C710 C709 1.379 . S
H711 C705 0.959 . S
H712 C705 0.961 . S
H713 C705 0.960 . S
H714 C706 0.930 . S
H715 C707 0.929 . S
H716 C724 0.929 . S
H717 C726 0.930 . S
H718 C728 0.930 . S
H719 C731 0.929 . S
H720 C734 0.930 . S
H721 C736 0.960 . S
H722 C736 0.960 . S
H723 C736 0.960 . S
C724 H716 0.929 . S
C724 C725 1.377 . S
C724 C726 1.384 . S
C725 C724 1.377 . S
C725 C731 1.390 1_554 S
C726 H717 0.930 . S
C726 C724 1.384 . S
C726 C727 1.372 . S
C727 C726 1.372 . S
C727 C728 1.400 1_554 S
C727 C732 1.490 . S
C728 H718 0.930 . S
C728 C727 1.400 1_556 S
C728 C731 1.386 . S
H729 C745 0.930 . S
H730 C746 0.931 . S
C731 H719 0.929 . S
C731 C725 1.390 1_556 S
C731 C728 1.386 . S
C732 C727 1.490 . S
C732 C734 1.395 . S
C732 C735 1.403 1_554 S
H733 C739 0.930 . S
C734 H720 0.930 . S
C734 C732 1.395 . S
C734 C737 1.403 1_545 S
C735 C732 1.403 1_556 S
C735 C736 1.524 . S
C735 C739 1.400 1_545 S
C736 H721 0.960 . S
C736 H722 0.960 . S
C736 H723 0.960 . S
C736 C735 1.524 . S
C737 C734 1.403 1_565 S
C737 C738 1.392 . S
C737 C741 1.495 . S
C738 C737 1.392 . S
C738 C739 1.385 1_554 S
C738 C740 1.478 . S
C739 H733 0.930 . S
C739 C735 1.400 1_565 S
C739 C738 1.385 1_556 S
C740 C738 1.478 . S
C740 C742 1.381 . S
C740 C746 1.383 1_554 S
C741 C737 1.495 . S
C741 H747 0.959 . S
C741 H748 0.961 . S
C741 H749 0.960 . S
C742 C740 1.381 . S
C742 C743 1.394 . S
C742 H750 0.930 . S
C743 C742 1.394 . S
C743 C744 1.383 . S
C743 H751 0.929 . S
C744 C743 1.383 . S
C744 C745 1.377 1_554 S
C745 H729 0.930 . S
C745 C744 1.377 1_556 S
C745 C746 1.379 . S
C746 H730 0.931 . S
C746 C740 1.383 1_556 S
C746 C745 1.379 . S
H747 C741 0.959 . S
H748 C741 0.961 . S
H749 C741 0.960 . S
H750 C742 0.930 . S
H751 C743 0.929 . S
H752 C760 0.929 . S
H753 C762 0.930 . S
H754 C764 0.930 . S
H755 C767 0.929 . S
H756 C770 0.930 1_554 S
H757 C772 0.960 . S
H758 C772 0.960 1_554 S
H759 C772 0.960 1_554 S
C760 H752 0.929 . S
C760 C761 1.377 . S
C760 C762 1.384 . S
C761 C760 1.377 . S
C761 C767 1.390 . S
C762 H753 0.930 . S
C762 C760 1.384 . S
C762 C763 1.372 . S
C763 C762 1.372 . S
C763 C764 1.400 . S
C763 C768 1.490 . S
C764 H754 0.930 . S
C764 C763 1.400 . S
C764 C767 1.386 . S
H765 C781 0.930 . S
H766 C782 0.931 . S
C767 H755 0.929 . S
C767 C761 1.390 . S
C767 C764 1.386 . S
C768 C763 1.490 . S
C768 C770 1.395 1_554 S
C768 C771 1.403 1_554 S
H769 C775 0.930 . S
C770 H756 0.930 1_556 S
C770 C768 1.395 1_556 S
C770 C773 1.403 . S
C771 C768 1.403 1_556 S
C771 C772 1.524 . S
C771 C775 1.400 . S
C772 H757 0.960 . S
C772 H758 0.960 1_556 S
C772 H759 0.960 1_556 S
C772 C771 1.524 . S
C773 C770 1.403 . S
C773 C774 1.392 . S
C773 C777 1.495 . S
C774 C773 1.392 . S
C774 C775 1.385 . S
C774 C776 1.478 . S
C775 H769 0.930 . S
C775 C771 1.400 . S
C775 C774 1.385 . S
C776 C774 1.478 . S
C776 C778 1.381 . S
C776 C782 1.383 . S
C777 C773 1.495 . S
C777 H783 0.959 . S
C777 H784 0.961 . S
C777 H785 0.960 . S
C778 C776 1.381 . S
C778 C779 1.394 . S
C778 H786 0.930 . S
C779 C778 1.394 . S
C779 C780 1.383 . S
C779 H787 0.929 . S
C780 C779 1.383 . S
C780 C781 1.377 . S
C781 H765 0.930 . S
C781 C780 1.377 . S
C781 C782 1.379 . S
C782 H766 0.931 . S
C782 C776 1.383 . S
C782 C781 1.379 . S
H783 C777 0.959 . S
H784 C777 0.961 . S
H785 C777 0.960 . S
H786 C778 0.930 . S
H787 C779 0.929 . S
H788 C796 0.929 . S
H789 C798 0.930 . S
H790 C800 0.930 . S
H791 C803 0.929 . S
H792 C806 0.930 . S
H793 C808 0.960 1_556 S
H794 C808 0.960 . S
H795 C808 0.960 . S
C796 H788 0.929 . S
C796 C797 1.377 . S
C796 C798 1.384 . S
C797 C796 1.377 . S
C797 C803 1.390 . S
C798 H789 0.930 . S
C798 C796 1.384 . S
C798 C799 1.372 . S
C799 C798 1.372 . S
C799 C800 1.400 . S
C799 C804 1.490 . S
C800 H790 0.930 . S
C800 C799 1.400 . S
C800 C803 1.386 . S
H801 C817 0.930 . S
H802 C818 0.931 . S
C803 H791 0.929 . S
C803 C797 1.390 . S
C803 C800 1.386 . S
C804 C799 1.490 . S
C804 C806 1.395 1_554 S
C804 C807 1.403 1_554 S
H805 C811 0.930 . S
C806 H792 0.930 . S
C806 C804 1.395 1_556 S
C806 C809 1.403 . S
C807 C804 1.403 1_556 S
C807 C808 1.524 1_556 S
C807 C811 1.400 . S
C808 H793 0.960 1_554 S
C808 H794 0.960 . S
C808 H795 0.960 . S
C808 C807 1.524 1_554 S
C809 C806 1.403 . S
C809 C810 1.392 . S
C809 C813 1.495 . S
C810 C809 1.392 . S
C810 C811 1.385 . S
C810 C812 1.478 . S
C811 H805 0.930 . S
C811 C807 1.400 . S
C811 C810 1.385 . S
C812 C810 1.478 . S
C812 C814 1.381 . S
C812 C818 1.383 . S
C813 C809 1.495 . S
C813 H819 0.959 . S
C813 H820 0.961 . S
C813 H821 0.960 . S
C814 C812 1.381 . S
C814 C815 1.394 . S
C814 H822 0.930 . S
C815 C814 1.394 . S
C815 C816 1.383 . S
C815 H823 0.929 . S
C816 C815 1.383 . S
C816 C817 1.377 . S
C817 H801 0.930 . S
C817 C816 1.377 . S
C817 C818 1.379 . S
C818 H802 0.931 . S
C818 C812 1.383 . S
C818 C817 1.379 . S
H819 C813 0.959 . S
H820 C813 0.961 . S
H821 C813 0.960 . S
H822 C814 0.930 . S
H823 C815 0.929 . S
H824 C832 0.929 . S
H825 C834 0.930 . S
H826 C836 0.930 . S
H827 C839 0.929 . S
H828 C842 0.930 . S
H829 C844 0.960 . S
H830 C844 0.960 . S
H831 C844 0.960 . S
C832 H824 0.929 . S
C832 C833 1.377 . S
C832 C834 1.384 . S
C833 C832 1.377 . S
C833 C839 1.390 . S
C834 H825 0.930 . S
C834 C832 1.384 . S
C834 C835 1.372 . S
C835 C834 1.372 . S
C835 C836 1.400 . S
C835 C840 1.490 . S
C836 H826 0.930 . S
C836 C835 1.400 . S
C836 C839 1.386 . S
H837 C853 0.930 . S
H838 C854 0.931 . S
C839 H827 0.929 . S
C839 C833 1.390 . S
C839 C836 1.386 . S
C840 C835 1.490 . S
C840 C842 1.395 . S
C840 C843 1.403 . S
H841 C847 0.930 . S
C842 H828 0.930 . S
C842 C840 1.395 . S
C842 C845 1.403 . S
C843 C840 1.403 . S
C843 C844 1.524 . S
C843 C847 1.400 . S
C844 H829 0.960 . S
C844 H830 0.960 . S
C844 H831 0.960 . S
C844 C843 1.524 . S
C845 C842 1.403 . S
C845 C846 1.392 1_554 S
C845 C849 1.495 1_554 S
C846 C845 1.392 1_556 S
C846 C847 1.385 1_556 S
C846 C848 1.478 . S
C847 H841 0.930 . S
C847 C843 1.400 . S
C847 C846 1.385 1_554 S
C848 C846 1.478 . S
C848 C850 1.381 . S
C848 C854 1.383 . S
C849 C845 1.495 1_556 S
C849 H855 0.959 1_556 S
C849 H856 0.961 . S
C849 H857 0.960 . S
C850 C848 1.381 . S
C850 C851 1.394 . S
C850 H858 0.930 . S
C851 C850 1.394 . S
C851 C852 1.383 . S
C851 H859 0.929 . S
C852 C851 1.383 . S
C852 C853 1.377 . S
C853 H837 0.930 . S
C853 C852 1.377 . S
C853 C854 1.379 . S
C854 H838 0.931 . S
C854 C848 1.383 . S
C854 C853 1.379 . S
H855 C849 0.959 1_554 S
H856 C849 0.961 . S
H857 C849 0.960 . S
H858 C850 0.930 . S
H859 C851 0.929 . S
H860 C868 0.929 . S
H861 C870 0.930 . S
H862 C872 0.930 . S
H863 C875 0.929 . S
H864 C878 0.930 1_556 S
H865 C880 0.962 . S
H866 C880 0.959 1_556 S
H867 C880 0.959 1_556 S
C868 H860 0.929 . S
C868 C869 1.377 . S
C868 C870 1.384 . S
C869 C868 1.377 . S
C869 C875 1.390 . S
C870 H861 0.930 . S
C870 C868 1.384 . S
C870 C871 1.372 . S
C871 C870 1.372 . S
C871 C872 1.400 . S
C871 C876 1.490 . S
C872 H862 0.930 . S
C872 C871 1.400 . S
C872 C875 1.386 . S
H873 C889 0.930 . S
H874 C890 0.931 . S
C875 H863 0.929 . S
C875 C869 1.390 . S
C875 C872 1.386 . S
C876 C871 1.490 . S
C876 C878 1.395 1_556 S
C876 C879 1.403 1_556 S
H877 C883 0.930 . S
C878 H864 0.930 1_554 S
C878 C876 1.395 1_554 S
C878 C881 1.403 . S
C879 C876 1.403 1_554 S
C879 C880 1.524 . S
C879 C883 1.400 . S
C880 H865 0.962 . S
C880 H866 0.959 1_554 S
C880 H867 0.959 1_554 S
C880 C879 1.524 . S
C881 C878 1.403 . S
C881 C882 1.392 . S
C881 C885 1.495 . S
C882 C881 1.392 . S
C882 C883 1.385 . S
C882 C884 1.478 . S
C883 H877 0.930 . S
C883 C879 1.400 . S
C883 C882 1.385 . S
C884 C882 1.478 . S
C884 C886 1.381 . S
C884 C890 1.383 . S
C885 C881 1.495 . S
C885 H891 0.959 . S
C885 H892 0.961 . S
C885 H893 0.960 . S
C886 C884 1.381 . S
C886 C887 1.394 . S
C886 H894 0.930 . S
C887 C886 1.394 . S
C887 C888 1.383 . S
C887 H895 0.929 . S
C888 C887 1.383 . S
C888 C889 1.377 . S
C889 H873 0.930 . S
C889 C888 1.377 . S
C889 C890 1.379 . S
C890 H874 0.931 . S
C890 C884 1.383 . S
C890 C889 1.379 . S
H891 C885 0.959 . S
H892 C885 0.961 . S
H893 C885 0.960 . S
H894 C886 0.930 . S
H895 C887 0.929 . S
H896 C904 0.929 . S
H897 C906 0.930 . S
H898 C908 0.930 . S
H899 C911 0.929 . S
H900 C914 0.930 . S
H901 C916 0.960 . S
H902 C916 0.960 . S
H903 C916 0.960 . S
C904 H896 0.929 . S
C904 C905 1.377 . S
C904 C906 1.384 . S
C905 C904 1.377 . S
C905 C911 1.390 . S
C906 H897 0.930 . S
C906 C904 1.384 . S
C906 C907 1.372 . S
C907 C906 1.372 . S
C907 C908 1.400 . S
C907 C912 1.490 . S
C908 H898 0.930 . S
C908 C907 1.400 . S
C908 C911 1.386 . S
H909 C925 0.930 . S
H910 C926 0.931 . S
C911 H899 0.929 . S
C911 C905 1.390 . S
C911 C908 1.386 . S
C912 C907 1.490 . S
C912 C914 1.395 . S
C912 C915 1.403 . S
H913 C919 0.930 . S
C914 H900 0.930 . S
C914 C912 1.395 . S
C914 C917 1.403 . S
C915 C912 1.403 . S
C915 C916 1.524 . S
C915 C919 1.400 . S
C916 H901 0.960 . S
C916 H902 0.960 . S
C916 H903 0.960 . S
C916 C915 1.524 . S
C917 C914 1.403 . S
C917 C918 1.392 . S
C917 C921 1.495 . S
C918 C917 1.392 . S
C918 C919 1.385 . S
C918 C920 1.478 . S
C919 H913 0.930 . S
C919 C915 1.400 . S
C919 C918 1.385 . S
C920 C918 1.478 . S
C920 C922 1.381 . S
C920 C926 1.383 . S
C921 C917 1.495 . S
C921 H927 0.959 . S
C921 H928 0.961 . S
C921 H929 0.960 . S
C922 C920 1.381 . S
C922 C923 1.394 . S
C922 H930 0.930 . S
C923 C922 1.394 . S
C923 C924 1.383 . S
C923 H931 0.929 . S
C924 C923 1.383 . S
C924 C925 1.377 . S
C925 H909 0.930 . S
C925 C924 1.377 . S
C925 C926 1.379 . S
C926 H910 0.931 . S
C926 C920 1.383 . S
C926 C925 1.379 . S
H927 C921 0.959 . S
H928 C921 0.961 . S
H929 C921 0.960 . S
H930 C922 0.930 . S
H931 C923 0.929 . S
H932 C940 0.929 . S
H933 C942 0.930 . S
H934 C944 0.930 . S
H935 C947 0.929 . S
H936 C950 0.930 . S
H937 C952 0.960 . S
H938 C952 0.960 . S
H939 C952 0.960 . S
C940 H932 0.929 . S
C940 C941 1.377 . S
C940 C942 1.384 . S
C941 C940 1.377 . S
C941 C947 1.390 . S
C942 H933 0.930 . S
C942 C940 1.384 . S
C942 C943 1.372 . S
C943 C942 1.372 . S
C943 C944 1.400 . S
C943 C948 1.490 . S
C944 H934 0.930 . S
C944 C943 1.400 . S
C944 C947 1.386 . S
H945 C961 0.930 . S
H946 C962 0.931 . S
C947 H935 0.929 . S
C947 C941 1.390 . S
C947 C944 1.386 . S
C948 C943 1.490 . S
C948 C950 1.395 . S
C948 C951 1.403 . S
H949 C955 0.930 . S
C950 H936 0.930 . S
C950 C948 1.395 . S
C950 C953 1.403 . S
C951 C948 1.403 . S
C951 C952 1.524 . S
C951 C955 1.400 . S
C952 H937 0.960 . S
C952 H938 0.960 . S
C952 H939 0.960 . S
C952 C951 1.524 . S
C953 C950 1.403 . S
C953 C954 1.392 . S
C953 C957 1.495 . S
C954 C953 1.392 . S
C954 C955 1.385 . S
C954 C956 1.478 . S
C955 H949 0.930 . S
C955 C951 1.400 . S
C955 C954 1.385 . S
C956 C954 1.478 . S
C956 C958 1.381 . S
C956 C962 1.383 . S
C957 C953 1.495 . S
C957 H963 0.959 . S
C957 H964 0.961 . S
C957 H965 0.960 . S
C958 C956 1.381 . S
C958 C959 1.394 . S
C958 H966 0.930 . S
C959 C958 1.394 . S
C959 C960 1.383 . S
C959 H967 0.929 . S
C960 C959 1.383 . S
C960 C961 1.377 . S
C961 H945 0.930 . S
C961 C960 1.377 . S
C961 C962 1.379 . S
C962 H946 0.931 . S
C962 C956 1.383 . S
C962 C961 1.379 . S
H963 C957 0.959 . S
H964 C957 0.961 . S
H965 C957 0.960 . S
H966 C958 0.930 . S
H967 C959 0.929 . S
H968 C976 0.929 . S
H969 C978 0.930 . S
H970 C980 0.930 . S
H971 C983 0.929 . S
H972 C986 0.930 . S
H973 C988 0.960 . S
H974 C988 0.960 . S
H975 C988 0.960 . S
C976 H968 0.929 . S
C976 C977 1.377 . S
C976 C978 1.384 . S
C977 C976 1.377 . S
C977 C983 1.390 . S
C978 H969 0.930 . S
C978 C976 1.384 . S
C978 C979 1.372 . S
C979 C978 1.372 . S
C979 C980 1.400 . S
C979 C984 1.490 . S
C980 H970 0.930 . S
C980 C979 1.400 . S
C980 C983 1.386 . S
H981 C997 0.930 . S
H982 C998 0.931 . S
C983 H971 0.929 . S
C983 C977 1.390 . S
C983 C980 1.386 . S
C984 C979 1.490 . S
C984 C986 1.395 . S
C984 C987 1.403 . S
H985 C991 0.930 . S
C986 H972 0.930 . S
C986 C984 1.395 . S
C986 C989 1.403 . S
C987 C984 1.403 . S
C987 C988 1.524 . S
C987 C991 1.400 . S
C988 H973 0.960 . S
C988 H974 0.960 . S
C988 H975 0.960 . S
C988 C987 1.524 . S
C989 C986 1.403 . S
C989 C990 1.392 . S
C989 C993 1.495 . S
C990 C989 1.392 . S
C990 C991 1.385 . S
C990 C992 1.478 . S
C991 H985 0.930 . S
C991 C987 1.400 . S
C991 C990 1.385 . S
C992 C990 1.478 . S
C992 C994 1.381 . S
C992 C998 1.383 . S
C993 C989 1.495 . S
C993 H999 0.959 . S
C993 H1000 0.961 . S
C993 H1001 0.960 . S
C994 C992 1.381 . S
C994 C995 1.394 . S
C994 H1002 0.930 . S
C995 C994 1.394 . S
C995 C996 1.383 . S
C995 H1003 0.929 . S
C996 C995 1.383 . S
C996 C997 1.377 . S
C997 H981 0.930 . S
C997 C996 1.377 . S
C997 C998 1.379 . S
C998 H982 0.931 . S
C998 C992 1.383 . S
C998 C997 1.379 . S
H999 C993 0.959 . S
H1000 C993 0.961 . S
H1001 C993 0.960 . S
H1002 C994 0.930 . S
H1003 C995 0.929 . S
H1004 C1012 0.929 . S
H1005 C1014 0.930 . S
H1006 C1016 0.930 . S
H1007 C1019 0.929 . S
H1008 C1022 0.930 . S
H1009 C1024 0.960 . S
H1010 C1024 0.960 . S
H1011 C1024 0.960 . S
C1012 H1004 0.929 . S
C1012 C1013 1.377 . S
C1012 C1014 1.384 . S
C1013 C1012 1.377 . S
C1013 C1019 1.390 . S
C1014 H1005 0.930 . S
C1014 C1012 1.384 . S
C1014 C1015 1.372 . S
C1015 C1014 1.372 . S
C1015 C1016 1.400 . S
C1015 C1020 1.490 . S
C1016 H1006 0.930 . S
C1016 C1015 1.400 . S
C1016 C1019 1.386 . S
H1017 C1033 0.930 . S
H1018 C1034 0.931 . S
C1019 H1007 0.929 . S
C1019 C1013 1.390 . S
C1019 C1016 1.386 . S
C1020 C1015 1.490 . S
C1020 C1022 1.395 . S
C1020 C1023 1.403 . S
H1021 C1027 0.930 . S
C1022 H1008 0.930 . S
C1022 C1020 1.395 . S
C1022 C1025 1.403 . S
C1023 C1020 1.403 . S
C1023 C1024 1.524 . S
C1023 C1027 1.400 . S
C1024 H1009 0.960 . S
C1024 H1010 0.960 . S
C1024 H1011 0.960 . S
C1024 C1023 1.524 . S
C1025 C1022 1.403 . S
C1025 C1026 1.392 . S
C1025 C1029 1.495 . S
C1026 C1025 1.392 . S
C1026 C1027 1.385 . S
C1026 C1028 1.478 . S
C1027 H1021 0.930 . S
C1027 C1023 1.400 . S
C1027 C1026 1.385 . S
C1028 C1026 1.478 . S
C1028 C1030 1.381 . S
C1028 C1034 1.383 . S
C1029 C1025 1.495 . S
C1029 H1035 0.959 . S
C1029 H1036 0.961 . S
C1029 H1037 0.960 . S
C1030 C1028 1.381 . S
C1030 C1031 1.394 . S
C1030 H1038 0.930 . S
C1031 C1030 1.394 . S
C1031 C1032 1.383 . S
C1031 H1039 0.929 . S
C1032 C1031 1.383 . S
C1032 C1033 1.377 . S
C1033 H1017 0.930 . S
C1033 C1032 1.377 . S
C1033 C1034 1.379 . S
C1034 H1018 0.931 . S
C1034 C1028 1.383 . S
C1034 C1033 1.379 . S
H1035 C1029 0.959 . S
H1036 C1029 0.961 . S
H1037 C1029 0.960 . S
H1038 C1030 0.930 . S
H1039 C1031 0.929 . S
H1040 C1048 0.929 . S
H1041 C1050 0.930 . S
H1042 C1052 0.930 . S
H1043 C1055 0.929 . S
H1044 C1058 0.930 . S
H1045 C1060 0.960 . S
H1046 C1060 0.960 . S
H1047 C1060 0.960 . S
C1048 H1040 0.929 . S
C1048 C1049 1.377 . S
C1048 C1050 1.384 . S
C1049 C1048 1.377 . S
C1049 C1055 1.390 . S
C1050 H1041 0.930 . S
C1050 C1048 1.384 . S
C1050 C1051 1.372 . S
C1051 C1050 1.372 . S
C1051 C1052 1.400 . S
C1051 C1056 1.490 . S
C1052 H1042 0.930 . S
C1052 C1051 1.400 . S
C1052 C1055 1.386 . S
H1053 C1069 0.930 . S
H1054 C1070 0.931 . S
C1055 H1043 0.929 . S
C1055 C1049 1.390 . S
C1055 C1052 1.386 . S
C1056 C1051 1.490 . S
C1056 C1058 1.395 . S
C1056 C1059 1.403 . S
H1057 C1063 0.930 . S
C1058 H1044 0.930 . S
C1058 C1056 1.395 . S
C1058 C1061 1.403 1_455 S
C1059 C1056 1.403 . S
C1059 C1060 1.524 . S
C1059 C1063 1.400 1_455 S
C1060 H1045 0.960 . S
C1060 H1046 0.960 . S
C1060 H1047 0.960 . S
C1060 C1059 1.524 . S
C1061 C1058 1.403 1_655 S
C1061 C1062 1.392 . S
C1061 C1065 1.495 . S
C1062 C1061 1.392 . S
C1062 C1063 1.385 . S
C1062 C1064 1.478 . S
C1063 H1057 0.930 . S
C1063 C1059 1.400 1_655 S
C1063 C1062 1.385 . S
C1064 C1062 1.478 . S
C1064 C1066 1.381 . S
C1064 C1070 1.383 . S
C1065 C1061 1.495 . S
C1065 H1071 0.959 . S
C1065 H1072 0.961 . S
C1065 H1073 0.960 . S
C1066 C1064 1.381 . S
C1066 C1067 1.394 . S
C1066 H1074 0.930 . S
C1067 C1066 1.394 . S
C1067 C1068 1.383 . S
C1067 H1075 0.929 . S
C1068 C1067 1.383 . S
C1068 C1069 1.377 . S
C1069 H1053 0.930 . S
C1069 C1068 1.377 . S
C1069 C1070 1.379 . S
C1070 H1054 0.931 . S
C1070 C1064 1.383 . S
C1070 C1069 1.379 . S
H1071 C1065 0.959 . S
H1072 C1065 0.961 . S
H1073 C1065 0.960 . S
H1074 C1066 0.930 . S
H1075 C1067 0.929 . S
H1076 C1084 0.929 . S
H1077 C1086 0.930 . S
H1078 C1088 0.930 . S
H1079 C1091 0.929 . S
H1080 C1094 0.930 . S
H1081 C1096 0.960 . S
H1082 C1096 0.960 . S
H1083 C1096 0.960 . S
C1084 H1076 0.929 . S
C1084 C1085 1.377 . S
C1084 C1086 1.384 . S
C1085 C1084 1.377 . S
C1085 C1091 1.390 . S
C1086 H1077 0.930 . S
C1086 C1084 1.384 . S
C1086 C1087 1.372 . S
C1087 C1086 1.372 . S
C1087 C1088 1.400 . S
C1087 C1092 1.490 . S
C1088 H1078 0.930 . S
C1088 C1087 1.400 . S
C1088 C1091 1.386 . S
H1089 C1105 0.930 . S
H1090 C1106 0.931 . S
C1091 H1079 0.929 . S
C1091 C1085 1.390 . S
C1091 C1088 1.386 . S
C1092 C1087 1.490 . S
C1092 C1094 1.395 . S
C1092 C1095 1.403 . S
H1093 C1099 0.930 . S
C1094 H1080 0.930 . S
C1094 C1092 1.395 . S
C1094 C1097 1.403 1_655 S
C1095 C1092 1.403 . S
C1095 C1096 1.524 . S
C1095 C1099 1.400 1_655 S
C1096 H1081 0.960 . S
C1096 H1082 0.960 . S
C1096 H1083 0.960 . S
C1096 C1095 1.524 . S
C1097 C1094 1.403 1_455 S
C1097 C1098 1.392 . S
C1097 C1101 1.495 . S
C1098 C1097 1.392 . S
C1098 C1099 1.385 . S
C1098 C1100 1.478 . S
C1099 H1093 0.930 . S
C1099 C1095 1.400 1_455 S
C1099 C1098 1.385 . S
C1100 C1098 1.478 . S
C1100 C1102 1.381 . S
C1100 C1106 1.383 . S
C1101 C1097 1.495 . S
C1101 H1107 0.959 . S
C1101 H1108 0.961 . S
C1101 H1109 0.960 . S
C1102 C1100 1.381 . S
C1102 C1103 1.394 . S
C1102 H1110 0.930 . S
C1103 C1102 1.394 . S
C1103 C1104 1.383 . S
C1103 H1111 0.929 . S
C1104 C1103 1.383 . S
C1104 C1105 1.377 . S
C1105 H1089 0.930 . S
C1105 C1104 1.377 . S
C1105 C1106 1.379 . S
C1106 H1090 0.931 . S
C1106 C1100 1.383 . S
C1106 C1105 1.379 . S
H1107 C1101 0.959 . S
H1108 C1101 0.961 . S
H1109 C1101 0.960 . S
H1110 C1102 0.930 . S
H1111 C1103 0.929 . S
H1112 C1120 0.929 . S
H1113 C1122 0.930 . S
H1114 C1124 0.930 . S
H1115 C1127 0.929 . S
H1116 C1130 0.930 . S
H1117 C1132 0.960 . S
H1118 C1132 0.960 . S
H1119 C1132 0.960 . S
C1120 H1112 0.929 . S
C1120 C1121 1.377 . S
C1120 C1122 1.384 . S
C1121 C1120 1.377 . S
C1121 C1127 1.390 . S
C1122 H1113 0.930 . S
C1122 C1120 1.384 . S
C1122 C1123 1.372 . S
C1123 C1122 1.372 . S
C1123 C1124 1.400 . S
C1123 C1128 1.490 . S
C1124 H1114 0.930 . S
C1124 C1123 1.400 . S
C1124 C1127 1.386 . S
H1125 C1141 0.930 . S
H1126 C1142 0.931 . S
C1127 H1115 0.929 . S
C1127 C1121 1.390 . S
C1127 C1124 1.386 . S
C1128 C1123 1.490 . S
C1128 C1130 1.395 . S
C1128 C1131 1.403 . S
H1129 C1135 0.930 . S
C1130 H1116 0.930 . S
C1130 C1128 1.395 . S
C1130 C1133 1.403 . S
C1131 C1128 1.403 . S
C1131 C1132 1.524 . S
C1131 C1135 1.400 . S
C1132 H1117 0.960 . S
C1132 H1118 0.960 . S
C1132 H1119 0.960 . S
C1132 C1131 1.524 . S
C1133 C1130 1.403 . S
C1133 C1134 1.392 . S
C1133 C1137 1.495 . S
C1134 C1133 1.392 . S
C1134 C1135 1.385 . S
C1134 C1136 1.478 . S
C1135 H1129 0.930 . S
C1135 C1131 1.400 . S
C1135 C1134 1.385 . S
C1136 C1134 1.478 . S
C1136 C1138 1.381 . S
C1136 C1142 1.383 . S
C1137 C1133 1.495 . S
C1137 H1143 0.959 . S
C1137 H1144 0.961 . S
C1137 H1145 0.960 . S
C1138 C1136 1.381 . S
C1138 C1139 1.394 . S
C1138 H1146 0.930 . S
C1139 C1138 1.394 . S
C1139 C1140 1.383 . S
C1139 H1147 0.929 . S
C1140 C1139 1.383 . S
C1140 C1141 1.377 . S
C1141 H1125 0.930 . S
C1141 C1140 1.377 . S
C1141 C1142 1.379 . S
C1142 H1126 0.931 . S
C1142 C1136 1.383 . S
C1142 C1141 1.379 . S
H1143 C1137 0.959 . S
H1144 C1137 0.961 . S
H1145 C1137 0.960 . S
H1146 C1138 0.930 . S
H1147 C1139 0.929 . S
H1148 C1156 0.929 . S
H1149 C1158 0.930 . S
H1150 C1160 0.930 . S
H1151 C1163 0.929 . S
H1152 C1166 0.930 . S
H1153 C1168 0.960 . S
H1154 C1168 0.960 . S
H1155 C1168 0.960 . S
C1156 H1148 0.929 . S
C1156 C1157 1.377 . S
C1156 C1158 1.384 . S
C1157 C1156 1.377 . S
C1157 C1163 1.390 . S
C1158 H1149 0.930 . S
C1158 C1156 1.384 . S
C1158 C1159 1.372 . S
C1159 C1158 1.372 . S
C1159 C1160 1.400 . S
C1159 C1164 1.490 . S
C1160 H1150 0.930 . S
C1160 C1159 1.400 . S
C1160 C1163 1.386 . S
H1161 C1177 0.930 . S
H1162 C1178 0.931 . S
C1163 H1151 0.929 . S
C1163 C1157 1.390 . S
C1163 C1160 1.386 . S
C1164 C1159 1.490 . S
C1164 C1166 1.395 . S
C1164 C1167 1.403 . S
H1165 C1171 0.930 . S
C1166 H1152 0.930 . S
C1166 C1164 1.395 . S
C1166 C1169 1.403 . S
C1167 C1164 1.403 . S
C1167 C1168 1.524 . S
C1167 C1171 1.400 . S
C1168 H1153 0.960 . S
C1168 H1154 0.960 . S
C1168 H1155 0.960 . S
C1168 C1167 1.524 . S
C1169 C1166 1.403 . S
C1169 C1170 1.392 . S
C1169 C1173 1.495 . S
C1170 C1169 1.392 . S
C1170 C1171 1.385 . S
C1170 C1172 1.478 . S
C1171 H1165 0.930 . S
C1171 C1167 1.400 . S
C1171 C1170 1.385 . S
C1172 C1170 1.478 . S
C1172 C1174 1.381 . S
C1172 C1178 1.383 . S
C1173 C1169 1.495 . S
C1173 H1179 0.959 . S
C1173 H1180 0.961 . S
C1173 H1181 0.960 . S
C1174 C1172 1.381 . S
C1174 C1175 1.394 . S
C1174 H1182 0.930 . S
C1175 C1174 1.394 . S
C1175 C1176 1.383 . S
C1175 H1183 0.929 . S
C1176 C1175 1.383 . S
C1176 C1177 1.377 . S
C1177 H1161 0.930 . S
C1177 C1176 1.377 . S
C1177 C1178 1.379 . S
C1178 H1162 0.931 . S
C1178 C1172 1.383 . S
C1178 C1177 1.379 . S
H1179 C1173 0.959 . S
H1180 C1173 0.961 . S
H1181 C1173 0.960 . S
H1182 C1174 0.930 . S
H1183 C1175 0.929 . S
C329 C6 1.704 . S
C348 C295 1.693 . S
C365 C255 1.705 . S
C384 C46 1.707 . S
C401 C206 1.704 . S
C420 C95 1.694 . S
C437 C166 1.706 . S
C456 C135 1.700 . S
C473 C89 1.529 . S
C492 C9 1.542 . S
C509 C49 1.541 . S
C528 C129 1.534 . S
C545 C138 1.544 . S
C564 C58 1.509 . S
C581 C98 1.550 . S
C600 C18 1.544 . S
C617 C169 1.447 . S
C636 C249 1.423 . S
C653 C209 1.439 . S
C672 C289 1.435 1_554 S
C689 C298 1.438 . S
C708 C218 1.419 . S
C725 C258 1.439 . S
C744 C178 1.428 . S
C761 C19 2.078 . S
C780 C10 2.088 . S
C797 C59 2.078 . S
C816 C50 2.071 . S
C833 C99 2.077 . S
C852 C90 2.062 . S
C869 C130 2.074 . S
C888 C139 2.081 . S
C905 C170 2.074 . S
C924 C179 2.054 . S
C941 C219 2.076 . S
C960 C210 2.088 . S
C977 C250 2.071 . S
C996 C259 2.061 . S
C1013 C290 2.077 . S
C1032 C299 2.088 . S
C1049 C15 2.379 . S
C1068 C55 2.361 . S
C1085 C126 2.380 . S
C1104 C86 2.380 . S
C1121 C175 2.376 . S
C1140 C215 2.385 . S
C1157 C286 2.383 . S
C1176 C246 2.368 . S
