# Generated by pormake.
# Topology cbo, (4)-cn, num edge types: 1
# Building blocks:
#     Node 0, Type 0, BuildingBlock: TATPOV_clean_sbu_0, # of connection points: 4
#     Node 1, Type 0, BuildingBlock: TATPOV_clean_sbu_0, # of connection points: 4
#     Node 2, Type 0, BuildingBlock: TATPOV_clean_sbu_0, # of connection points: 4
#     Node 3, Type 0, BuildingBlock: TATPOV_clean_sbu_0, # of connection points: 4
#     Node 4, Type 0, BuildingBlock: TATPOV_clean_sbu_0, # of connection points: 4
#     Node 5, Type 0, BuildingBlock: TATPOV_clean_sbu_0, # of connection points: 4
#     Node 6, Type 0, BuildingBlock: TATPOV_clean_sbu_0, # of connection points: 4
#     Node 7, Type 0, BuildingBlock: TATPOV_clean_sbu_0, # of connection points: 4
#     Node 8, Type 0, BuildingBlock: TATPOV_clean_sbu_0, # of connection points: 4
#     Node 9, Type 0, BuildingBlock: TATPOV_clean_sbu_0, # of connection points: 4
#     Node 10, Type 0, BuildingBlock: TATPOV_clean_sbu_0, # of connection points: 4
#     Node 11, Type 0, BuildingBlock: TATPOV_clean_sbu_0, # of connection points: 4
#     Node 12, Type 0, BuildingBlock: TATPOV_clean_sbu_0, # of connection points: 4
#     Node 13, Type 0, BuildingBlock: TATPOV_clean_sbu_0, # of connection points: 4
#     Node 14, Type 0, BuildingBlock: TATPOV_clean_sbu_0, # of connection points: 4
#     Node 15, Type 0, BuildingBlock: TATPOV_clean_sbu_0, # of connection points: 4
#     Node 16, Type 0, BuildingBlock: TATPOV_clean_sbu_0, # of connection points: 4
#     Node 17, Type 0, BuildingBlock: TATPOV_clean_sbu_0, # of connection points: 4
#     Node 18, Type 0, BuildingBlock: TATPOV_clean_sbu_0, # of connection points: 4
#     Node 19, Type 0, BuildingBlock: TATPOV_clean_sbu_0, # of connection points: 4
#     Node 20, Type 0, BuildingBlock: TATPOV_clean_sbu_0, # of connection points: 4
#     Node 21, Type 0, BuildingBlock: TATPOV_clean_sbu_0, # of connection points: 4
#     Node 22, Type 0, BuildingBlock: TATPOV_clean_sbu_0, # of connection points: 4
#     Node 23, Type 0, BuildingBlock: TATPOV_clean_sbu_0, # of connection points: 4
#     Edge 24, Type (0, 0), BuildingBlock: EZIPEK_clean_linker_0, # of connection points: 2
#     Edge 25, Type (0, 0), BuildingBlock: EZIPEK_clean_linker_0, # of connection points: 2
#     Edge 26, Type (0, 0), BuildingBlock: EZIPEK_clean_linker_0, # of connection points: 2
#     Edge 27, Type (0, 0), BuildingBlock: EZIPEK_clean_linker_0, # of connection points: 2
#     Edge 28, Type (0, 0), BuildingBlock: EZIPEK_clean_linker_0, # of connection points: 2
#     Edge 29, Type (0, 0), BuildingBlock: EZIPEK_clean_linker_0, # of connection points: 2
#     Edge 30, Type (0, 0), BuildingBlock: EZIPEK_clean_linker_0, # of connection points: 2
#     Edge 31, Type (0, 0), BuildingBlock: EZIPEK_clean_linker_0, # of connection points: 2
#     Edge 32, Type (0, 0), BuildingBlock: EZIPEK_clean_linker_0, # of connection points: 2
#     Edge 33, Type (0, 0), BuildingBlock: EZIPEK_clean_linker_0, # of connection points: 2
#     Edge 34, Type (0, 0), BuildingBlock: EZIPEK_clean_linker_0, # of connection points: 2
#     Edge 35, Type (0, 0), BuildingBlock: EZIPEK_clean_linker_0, # of connection points: 2
#     Edge 36, Type (0, 0), BuildingBlock: EZIPEK_clean_linker_0, # of connection points: 2
#     Edge 37, Type (0, 0), BuildingBlock: EZIPEK_clean_linker_0, # of connection points: 2
#     Edge 38, Type (0, 0), BuildingBlock: EZIPEK_clean_linker_0, # of connection points: 2
#     Edge 39, Type (0, 0), BuildingBlock: EZIPEK_clean_linker_0, # of connection points: 2
#     Edge 40, Type (0, 0), BuildingBlock: EZIPEK_clean_linker_0, # of connection points: 2
#     Edge 41, Type (0, 0), BuildingBlock: EZIPEK_clean_linker_0, # of connection points: 2
#     Edge 42, Type (0, 0), BuildingBlock: EZIPEK_clean_linker_0, # of connection points: 2
#     Edge 43, Type (0, 0), BuildingBlock: EZIPEK_clean_linker_0, # of connection points: 2
#     Edge 44, Type (0, 0), BuildingBlock: EZIPEK_clean_linker_0, # of connection points: 2
#     Edge 45, Type (0, 0), BuildingBlock: EZIPEK_clean_linker_0, # of connection points: 2
#     Edge 46, Type (0, 0), BuildingBlock: EZIPEK_clean_linker_0, # of connection points: 2
#     Edge 47, Type (0, 0), BuildingBlock: EZIPEK_clean_linker_0, # of connection points: 2
#     Edge 48, Type (0, 0), BuildingBlock: EZIPEK_clean_linker_0, # of connection points: 2
#     Edge 49, Type (0, 0), BuildingBlock: EZIPEK_clean_linker_0, # of connection points: 2
#     Edge 50, Type (0, 0), BuildingBlock: EZIPEK_clean_linker_0, # of connection points: 2
#     Edge 51, Type (0, 0), BuildingBlock: EZIPEK_clean_linker_0, # of connection points: 2
#     Edge 52, Type (0, 0), BuildingBlock: EZIPEK_clean_linker_0, # of connection points: 2
#     Edge 53, Type (0, 0), BuildingBlock: EZIPEK_clean_linker_0, # of connection points: 2
#     Edge 54, Type (0, 0), BuildingBlock: EZIPEK_clean_linker_0, # of connection points: 2
#     Edge 55, Type (0, 0), BuildingBlock: EZIPEK_clean_linker_0, # of connection points: 2
#     Edge 56, Type (0, 0), BuildingBlock: EZIPEK_clean_linker_0, # of connection points: 2
#     Edge 57, Type (0, 0), BuildingBlock: EZIPEK_clean_linker_0, # of connection points: 2
#     Edge 58, Type (0, 0), BuildingBlock: EZIPEK_clean_linker_0, # of connection points: 2
#     Edge 59, Type (0, 0), BuildingBlock: EZIPEK_clean_linker_0, # of connection points: 2
#     Edge 60, Type (0, 0), BuildingBlock: EZIPEK_clean_linker_0, # of connection points: 2
#     Edge 61, Type (0, 0), BuildingBlock: EZIPEK_clean_linker_0, # of connection points: 2
#     Edge 62, Type (0, 0), BuildingBlock: EZIPEK_clean_linker_0, # of connection points: 2
#     Edge 63, Type (0, 0), BuildingBlock: EZIPEK_clean_linker_0, # of connection points: 2
#     Edge 64, Type (0, 0), BuildingBlock: EZIPEK_clean_linker_0, # of connection points: 2
#     Edge 65, Type (0, 0), BuildingBlock: EZIPEK_clean_linker_0, # of connection points: 2
#     Edge 66, Type (0, 0), BuildingBlock: EZIPEK_clean_linker_0, # of connection points: 2
#     Edge 67, Type (0, 0), BuildingBlock: EZIPEK_clean_linker_0, # of connection points: 2
#     Edge 68, Type (0, 0), BuildingBlock: EZIPEK_clean_linker_0, # of connection points: 2
#     Edge 69, Type (0, 0), BuildingBlock: EZIPEK_clean_linker_0, # of connection points: 2
#     Edge 70, Type (0, 0), BuildingBlock: EZIPEK_clean_linker_0, # of connection points: 2
#     Edge 71, Type (0, 0), BuildingBlock: EZIPEK_clean_linker_0, # of connection points: 2
# Relax obj value: 0.197
# Max RMSD: 0.250
# Mean RMSD: 0.242
data_MOF--net-cbo--node1-TATPOV_clean_sbu_0--edge1-EZIPEK_clean_linker_0
_symmetry_space_group_name_H-M    P1
_symmetry_Int_Tables_number       1
_symmetry_cell_setting            triclinic
loop_
_symmetry_equiv_pos_as_xyz
'x, y, z'
_cell_length_a     37.574918
_cell_length_b     37.427845
_cell_length_c     37.343878
_cell_angle_alpha  89.956929
_cell_angle_beta   90.022612
_cell_angle_gamma 89.988112
loop_
_atom_site_label
_atom_site_type_symbol
_atom_site_fract_x
_atom_site_fract_y
_atom_site_fract_z
_atom_type_partial_charge
Zn0 Zn 0.17417 0.19915 0.37912 0.0
Zn1 Zn 0.11355 0.17333 0.35928 0.0
O2 O 0.11696 0.22313 0.33481 0.0
O3 O 0.16537 0.24669 0.35673 0.0
O4 O 0.06263 0.16011 0.34892 0.0
O5 O 0.1668 0.19074 0.43106 0.0
O6 O 0.1152 0.16799 0.41489 0.0
C7 C 0.1383 0.24949 0.33676 0.0
C8 C 0.17992 0.13754 0.33217 0.0
O9 O 0.14599 0.13718 0.33336 0.0
O10 O 0.19729 0.16096 0.34928 0.0
C11 C 0.04822 0.16326 0.31828 0.0
O12 O 0.06752 0.17295 0.29063 0.0
C13 C 0.13773 0.17593 0.43917 0.0
Zn14 Zn 0.40035 0.72916 0.86107 0.0
Zn15 Zn 0.41909 0.78965 0.82925 0.0
O16 O 0.44361 0.75028 0.80024 0.0
O17 O 0.42821 0.69958 0.82476 0.0
O18 O 0.44377 0.83344 0.81094 0.0
O19 O 0.42068 0.74327 0.90915 0.0
O20 O 0.42777 0.79505 0.88314 0.0
C21 C 0.44513 0.71634 0.80068 0.0
C22 C 0.34189 0.7728 0.82968 0.0
O23 O 0.3664 0.79291 0.81744 0.0
O24 O 0.34968 0.74629 0.84946 0.0
C25 C 0.45442 0.83631 0.77878 0.0
O26 O 0.44317 0.81259 0.75551 0.0
C27 C 0.4289 0.77599 0.91134 0.0
Zn28 Zn 0.64743 0.28111 0.64658 0.0
Zn29 Zn 0.58828 0.31831 0.65779 0.0
O30 O 0.58405 0.27438 0.69037 0.0
O31 O 0.63282 0.24299 0.68202 0.0
O32 O 0.53925 0.33842 0.66409 0.0
O33 O 0.63741 0.27727 0.59372 0.0
O34 O 0.5913 0.31161 0.60308 0.0
C35 C 0.60359 0.24774 0.69813 0.0
C36 C 0.65798 0.35208 0.67834 0.0
O37 O 0.62416 0.35456 0.67773 0.0
O38 O 0.67321 0.32453 0.66588 0.0
C39 C 0.52611 0.34471 0.6948 0.0
O40 O 0.54658 0.34339 0.72329 0.0
C41 C 0.61089 0.29417 0.58144 0.0
Zn42 Zn 0.84844 0.7552 0.14001 0.0
Zn43 Zn 0.90403 0.71143 0.14122 0.0
O44 O 0.91433 0.74878 0.18052 0.0
O45 O 0.86907 0.78607 0.17902 0.0
O46 O 0.95126 0.68634 0.13764 0.0
O47 O 0.85392 0.7665 0.08761 0.0
O48 O 0.897 0.72735 0.08885 0.0
C49 C 0.89808 0.77593 0.19291 0.0
C50 C 0.83295 0.68104 0.16118 0.0
O51 O 0.86618 0.67521 0.15743 0.0
O52 O 0.82003 0.71167 0.15474 0.0
C53 C 0.97092 0.6802 0.16464 0.0
O54 O 0.95889 0.68657 0.19702 0.0
C55 C 0.87776 0.74919 0.07119 0.0
Zn56 Zn 0.36187 0.13956 0.23358 0.0
Zn57 Zn 0.34297 0.09155 0.18399 0.0
O58 O 0.30322 0.08701 0.22114 0.0
O59 O 0.31737 0.12718 0.2618 0.0
O60 O 0.32778 0.05457 0.14852 0.0
O61 O 0.4084 0.11343 0.24113 0.0
O62 O 0.39377 0.07665 0.19798 0.0
C63 C 0.29617 0.10373 0.24989 0.0
C64 C 0.34709 0.17058 0.16396 0.0
O65 O 0.33979 0.13832 0.15625 0.0
O66 O 0.35793 0.17813 0.19523 0.0
C67 C 0.30024 0.05972 0.12944 0.0
O68 O 0.28336 0.09039 0.13117 0.0
C69 C 0.41611 0.08697 0.22146 0.0
Zn70 Zn 0.15844 0.7711 0.71531 0.0
Zn71 Zn 0.17606 0.83786 0.70485 0.0
O72 O 0.20269 0.82497 0.75143 0.0
O73 O 0.18761 0.76931 0.76028 0.0
O74 O 0.1869 0.89001 0.69842 0.0
O75 O 0.10656 0.78133 0.71617 0.0
O76 O 0.12082 0.83715 0.70409 0.0
C77 C 0.20482 0.7966 0.77021 0.0
C78 C 0.19937 0.78153 0.65108 0.0
O79 O 0.20007 0.81375 0.66191 0.0
O80 O 0.18214 0.75838 0.66875 0.0
C81 C 0.21726 0.90136 0.68871 0.0
O82 O 0.24331 0.8787 0.68291 0.0
C83 C 0.09739 0.8131 0.70942 0.0
Zn84 Zn 0.82017 0.31759 0.78252 0.0
Zn85 Zn 0.81765 0.37105 0.83004 0.0
O86 O 0.78212 0.38557 0.79045 0.0
O87 O 0.78535 0.34263 0.75034 0.0
O88 O 0.81681 0.41461 0.86112 0.0
O89 O 0.87314 0.32238 0.77748 0.0
O90 O 0.87082 0.36459 0.81859 0.0
C91 C 0.77165 0.37149 0.76127 0.0
C92 C 0.79267 0.29819 0.85285 0.0
O93 O 0.79825 0.33069 0.86099 0.0
O94 O 0.8003 0.28647 0.82197 0.0
C95 C 0.81021 0.41676 0.89441 0.0
O96 O 0.8043 0.38785 0.91342 0.0
C97 C 0.88865 0.34461 0.79763 0.0
Zn98 Zn 0.66156 0.70207 0.2541 0.0
Zn99 Zn 0.66143 0.64413 0.29561 0.0
O100 O 0.69915 0.63325 0.25699 0.0
O101 O 0.69846 0.68046 0.22181 0.0
O102 O 0.6598 0.59759 0.32233 0.0
O103 O 0.60903 0.69866 0.24516 0.0
O104 O 0.60891 0.65259 0.28197 0.0
C105 C 0.71161 0.65055 0.23044 0.0
C106 C 0.68663 0.71412 0.32678 0.0
O107 O 0.68059 0.68095 0.33104 0.0
O108 O 0.67977 0.72915 0.29715 0.0
C109 C 0.66645 0.59222 0.35526 0.0
O110 O 0.67423 0.61903 0.37651 0.0
C111 C 0.59234 0.67459 0.26196 0.0
Zn112 Zn 0.23557 0.34974 0.17196 0.0
Zn113 Zn 0.19122 0.31969 0.13172 0.0
O114 O 0.23703 0.29309 0.11889 0.0
O115 O 0.26898 0.30761 0.16571 0.0
O116 O 0.15682 0.29892 0.09622 0.0
O117 O 0.23928 0.39376 0.14186 0.0
O118 O 0.18999 0.37299 0.11803 0.0
C119 C 0.26428 0.28813 0.13841 0.0
C120 C 0.17828 0.32354 0.21186 0.0
O121 O 0.17324 0.30655 0.18266 0.0
O122 O 0.1998 0.34948 0.21224 0.0
C123 C 0.12903 0.31568 0.08644 0.0
O124 O 0.12145 0.34569 0.10293 0.0
C125 C 0.21248 0.39805 0.12189 0.0
Zn126 Zn 0.68505 0.13058 0.84336 0.0
Zn127 Zn 0.63854 0.149 0.89464 0.0
O128 O 0.68134 0.18132 0.90354 0.0
O129 O 0.7209 0.16534 0.86354 0.0
O130 O 0.60937 0.16094 0.9375 0.0
O131 O 0.68479 0.07985 0.86067 0.0
O132 O 0.64649 0.09553 0.9025 0.0
C133 C 0.7121 0.18468 0.88991 0.0
C134 C 0.61842 0.16136 0.81697 0.0
O135 O 0.61013 0.16337 0.84998 0.0
O136 O 0.64823 0.14831 0.80789 0.0
C137 C 0.58012 0.14677 0.94673 0.0
O138 O 0.56353 0.12498 0.92482 0.0
C139 C 0.66537 0.07192 0.88714 0.0
Zn140 Zn 0.81661 0.87897 0.33862 0.0
Zn141 Zn 0.85293 0.84954 0.39306 0.0
O142 O 0.80742 0.81995 0.3899 0.0
O143 O 0.77763 0.84221 0.34428 0.0
O144 O 0.87424 0.82713 0.43663 0.0
O145 O 0.81484 0.92551 0.36538 0.0
O146 O 0.84739 0.90187 0.40847 0.0
C147 C 0.78082 0.81919 0.36891 0.0
C148 C 0.8847 0.84825 0.31793 0.0
O149 O 0.88656 0.83924 0.3508 0.0
O150 O 0.85837 0.86639 0.30692 0.0
C151 C 0.8818 0.7941 0.43754 0.0
O152 O 0.88098 0.77521 0.40793 0.0
C153 C 0.83109 0.92841 0.39489 0.0
Zn154 Zn 0.33541 0.63643 0.66543 0.0
Zn155 Zn 0.3738 0.6497 0.60572 0.0
O156 O 0.33285 0.68613 0.60559 0.0
O157 O 0.30017 0.6748 0.65317 0.0
O158 O 0.3944 0.65996 0.55707 0.0
O159 O 0.32619 0.58668 0.64819 0.0
O160 O 0.35756 0.5975 0.59947 0.0
C161 C 0.30606 0.69283 0.62518 0.0
C162 C 0.40911 0.6574 0.67857 0.0
O163 O 0.41222 0.65865 0.64454 0.0
O164 O 0.37979 0.64861 0.6928 0.0
C165 C 0.39346 0.69178 0.54519 0.0
O166 O 0.38755 0.71826 0.56744 0.0
C167 C 0.33878 0.5765 0.6185 0.0
Zn168 Zn 0.81909 0.76454 0.64306 0.0
Zn169 Zn 0.88136 0.79732 0.65768 0.0
O170 O 0.88014 0.75662 0.69413 0.0
O171 O 0.82888 0.72994 0.6837 0.0
O172 O 0.92963 0.81886 0.66538 0.0
O173 O 0.83633 0.75327 0.59286 0.0
O174 O 0.88558 0.78162 0.60544 0.0
C175 C 0.85731 0.73272 0.70171 0.0
C176 C 0.8117 0.83871 0.66572 0.0
O177 O 0.8454 0.83674 0.66884 0.0
O178 O 0.79462 0.81157 0.65488 0.0
C179 C 0.94532 0.81777 0.6955 0.0
O180 O 0.92787 0.80713 0.72402 0.0
C181 C 0.86714 0.76334 0.58354 0.0
Zn182 Zn 0.64655 0.20617 0.14061 0.0
Zn183 Zn 0.5979 0.16733 0.17432 0.0
O184 O 0.58759 0.2166 0.19493 0.0
O185 O 0.63325 0.24701 0.17417 0.0
O186 O 0.55967 0.13726 0.19641 0.0
O187 O 0.62204 0.19844 0.09314 0.0
O188 O 0.58637 0.16103 0.12107 0.0
C189 C 0.60629 0.2449 0.19447 0.0
C190 C 0.67773 0.15143 0.18308 0.0
O191 O 0.64557 0.1476 0.19337 0.0
O192 O 0.6849 0.17187 0.15703 0.0
C193 C 0.55872 0.10336 0.19527 0.0
O194 O 0.58569 0.08545 0.18195 0.0
C195 C 0.59725 0.17559 0.09231 0.0
Zn196 Zn 0.32061 0.74717 0.33875 0.0
Zn197 Zn 0.37989 0.71341 0.31658 0.0
O198 O 0.38074 0.76133 0.29084 0.0
O199 O 0.33496 0.79144 0.3108 0.0
O200 O 0.42765 0.69306 0.30454 0.0
O201 O 0.33347 0.7391 0.39076 0.0
O202 O 0.38146 0.71148 0.37134 0.0
C203 C 0.36172 0.78943 0.29022 0.0
C204 C 0.30912 0.68682 0.2904 0.0
O205 O 0.34279 0.68313 0.29136 0.0
O206 O 0.29372 0.7104 0.30922 0.0
C207 C 0.44 0.69012 0.27304 0.0
O208 O 0.41989 0.698 0.24538 0.0
C209 C 0.36213 0.72247 0.39698 0.0
Zn210 Zn 0.17011 0.29892 0.87498 0.0
Zn211 Zn 0.10199 0.31471 0.85871 0.0
O212 O 0.10803 0.26773 0.83236 0.0
O213 O 0.164 0.25444 0.84443 0.0
O214 O 0.0513 0.32731 0.84825 0.0
O215 O 0.15823 0.29928 0.92786 0.0
O216 O 0.10282 0.31232 0.91362 0.0
C217 C 0.13508 0.24774 0.82832 0.0
C218 C 0.16373 0.36082 0.83004 0.0
O219 O 0.13089 0.35286 0.83256 0.0
O220 O 0.18637 0.34303 0.84783 0.0
C221 C 0.04048 0.33329 0.81659 0.0
O222 O 0.06288 0.33172 0.78967 0.0
C223 C 0.12653 0.30604 0.93713 0.0
Zn224 Zn 0.73456 0.87739 0.8507 0.0
Zn225 Zn 0.66891 0.87749 0.81975 0.0
O226 O 0.67182 0.82686 0.84044 0.0
O227 O 0.72587 0.82546 0.86346 0.0
O228 O 0.61969 0.88242 0.79869 0.0
O229 O 0.71915 0.91669 0.88468 0.0
O230 O 0.6675 0.91629 0.85759 0.0
C231 C 0.69669 0.81004 0.85634 0.0
C232 C 0.7356 0.89281 0.77448 0.0
O233 O 0.70232 0.88715 0.77747 0.0
O234 O 0.75519 0.88996 0.80198 0.0
C235 C 0.59931 0.85615 0.79229 0.0
O236 O 0.61104 0.82341 0.79671 0.0
C237 C 0.68776 0.92864 0.88191 0.0
Zn238 Zn 0.76167 0.11727 0.3676 0.0
Zn239 Zn 0.82911 0.12625 0.34571 0.0
O240 O 0.81578 0.17668 0.36212 0.0
O241 O 0.75987 0.1701 0.3788 0.0
O242 O 0.88123 0.12975 0.33363 0.0
O243 O 0.77565 0.07934 0.40351 0.0
O244 O 0.82946 0.08559 0.38221 0.0
C245 C 0.78649 0.18997 0.37287 0.0
C246 C 0.77152 0.10742 0.29124 0.0
O247 O 0.80363 0.1155 0.29853 0.0
O248 O 0.74897 0.10439 0.31633 0.0
C249 C 0.8947 0.15549 0.31612 0.0
O250 O 0.87413 0.18108 0.30381 0.0
C251 C 0.80804 0.07009 0.40355 0.0
Zn252 Zn 0.25091 0.60969 0.08901 0.0
Zn253 Zn 0.18264 0.62126 0.11036 0.0
O254 O 0.19224 0.65883 0.07176 0.0
O255 O 0.24582 0.64843 0.05133 0.0
O256 O 0.13097 0.62867 0.12241 0.0
O257 O 0.23976 0.55753 0.08114 0.0
O258 O 0.18469 0.56832 0.09838 0.0
C259 C 0.21749 0.66673 0.05042 0.0
C260 C 0.24267 0.6323 0.16318 0.0
O261 O 0.20948 0.63233 0.15642 0.0
O262 O 0.26525 0.62447 0.13926 0.0
C263 C 0.12098 0.65542 0.14072 0.0
O264 O 0.14466 0.67858 0.15215 0.0
C265 C 0.20881 0.54655 0.08866 0.0
Zn266 Zn 0.24623 0.37679 0.62198 0.0
Zn267 Zn 0.30461 0.3703 0.66238 0.0
O268 O 0.30378 0.32382 0.63303 0.0
O269 O 0.25328 0.32574 0.60409 0.0
O270 O 0.35321 0.37147 0.68532 0.0
O271 O 0.26569 0.41892 0.59393 0.0
O272 O 0.30671 0.41782 0.63584 0.0
C273 C 0.28185 0.30932 0.61146 0.0
C274 C 0.23537 0.38081 0.70035 0.0
O275 O 0.26782 0.37111 0.70232 0.0
O276 O 0.22146 0.38726 0.67003 0.0
C277 C 0.37306 0.34415 0.6879 0.0
O278 O 0.35997 0.3124 0.68096 0.0
C279 C 0.29164 0.43353 0.60974 0.0
Zn280 Zn 0.76762 0.61312 0.84508 0.0
Zn281 Zn 0.8063 0.64378 0.89747 0.0
O282 O 0.75889 0.67063 0.89661 0.0
O283 O 0.72587 0.64558 0.8554 0.0
O284 O 0.83187 0.66891 0.93746 0.0
O285 O 0.77394 0.56588 0.86993 0.0
O286 O 0.80618 0.59095 0.91243 0.0
C287 C 0.72962 0.66906 0.87946 0.0
C288 C 0.83245 0.64727 0.82017 0.0
O289 O 0.83639 0.65452 0.85321 0.0
O290 O 0.80517 0.63009 0.81003 0.0
C291 C 0.84067 0.70151 0.9339 0.0
O292 O 0.8347 0.71797 0.90341 0.0
C293 C 0.79243 0.56332 0.89815 0.0
Zn294 Zn 0.25018 0.85575 0.11698 0.0
Zn295 Zn 0.31108 0.85349 0.07845 0.0
O296 O 0.27736 0.81649 0.05546 0.0
O297 O 0.2277 0.81758 0.08585 0.0
O298 O 0.35531 0.84932 0.04817 0.0
O299 O 0.2462 0.908 0.10292 0.0
O300 O 0.29597 0.90539 0.07248 0.0
C301 C 0.24559 0.8055 0.05981 0.0
C302 C 0.31301 0.8396 0.1591 0.0
O303 O 0.32877 0.84339 0.12917 0.0
O304 O 0.27945 0.84253 0.16108 0.0
C305 C 0.36361 0.81893 0.03557 0.0
O306 O 0.34547 0.79073 0.04582 0.0
C307 C 0.26921 0.92321 0.08331 0.0
Zn308 Zn 0.24818 0.12641 0.69484 0.0
Zn309 Zn 0.19409 0.1225 0.64651 0.0
O310 O 0.23244 0.15611 0.6263 0.0
O311 O 0.27808 0.15793 0.66238 0.0
O312 O 0.16047 0.12072 0.60448 0.0
O313 O 0.25149 0.0723 0.6944 0.0
O314 O 0.20706 0.07015 0.65575 0.0
C315 C 0.26352 0.16761 0.63338 0.0
C316 C 0.17886 0.1552 0.71812 0.0
O317 O 0.16695 0.14467 0.68802 0.0
O318 O 0.21126 0.15055 0.72648 0.0
C319 C 0.15503 0.15 0.58809 0.0
O320 O 0.16515 0.18007 0.60306 0.0
C321 C 0.22992 0.05447 0.67543 0.0
Zn322 Zn 0.69439 0.38473 0.31608 0.0
Zn323 Zn 0.65264 0.36325 0.37069 0.0
O324 O 0.69664 0.33096 0.37184 0.0
O325 O 0.73436 0.352 0.33198 0.0
O326 O 0.62561 0.34562 0.41368 0.0
O327 O 0.69099 0.43527 0.33369 0.0
O328 O 0.65778 0.41743 0.37903 0.0
C329 C 0.72646 0.32928 0.35582 0.0
C330 C 0.62716 0.35122 0.29459 0.0
O331 O 0.62163 0.34969 0.32816 0.0
O332 O 0.65608 0.36445 0.28306 0.0
C333 C 0.64266 0.34355 0.44298 0.0
O334 O 0.67603 0.3539 0.44418 0.0
C335 C 0.67321 0.44225 0.36158 0.0
C336 C 0.18218 0.31346 0.27867 0.0
C337 C 0.16227 0.31103 0.24626 0.0
C338 C 0.11541 0.27865 0.27906 0.0
C339 C 0.13708 0.27972 0.31027 0.0
N340 N 0.17749 0.31733 0.34298 0.0
N341 N 0.10432 0.30255 0.21945 0.0
C342 C 0.16554 0.30419 0.31114 0.0
C343 C 0.12701 0.29701 0.24751 0.0
N344 N 0.21778 0.32095 0.27877 0.0
N345 N 0.0838 0.2608 0.2797 0.0
H346 H 0.11124 0.31785 0.19717 0.0
H347 H 0.07759 0.29527 0.21979 0.0
H348 H 0.07178 0.25307 0.30363 0.0
H349 H 0.06937 0.2544 0.25677 0.0
H350 H 0.23294 0.32051 0.30218 0.0
H351 H 0.23328 0.32229 0.25571 0.0
H352 H 0.1973 0.33681 0.34453 0.0
H353 H 0.16435 0.3118 0.367 0.0
C354 C 0.46558 0.71608 0.73667 0.0
C355 C 0.45892 0.6968 0.76852 0.0
C356 C 0.44472 0.64408 0.73292 0.0
C357 C 0.43857 0.66705 0.70326 0.0
N358 N 0.44996 0.72369 0.67425 0.0
N359 N 0.46135 0.639 0.79597 0.0
C360 C 0.45225 0.7024 0.70383 0.0
C361 C 0.45514 0.6593 0.76626 0.0
N362 N 0.48493 0.74684 0.73807 0.0
N363 N 0.43858 0.60832 0.72914 0.0
H364 H 0.47154 0.65033 0.81939 0.0
H365 H 0.4588 0.61136 0.79697 0.0
H366 H 0.43211 0.59723 0.70431 0.0
H367 H 0.44055 0.58975 0.74975 0.0
H368 H 0.49286 0.76092 0.71536 0.0
H369 H 0.49645 0.75562 0.76196 0.0
H370 H 0.45519 0.75103 0.67478 0.0
H371 H 0.44202 0.71415 0.64932 0.0
C372 C 0.59006 0.23854 0.76361 0.0
C373 C 0.59428 0.22412 0.72859 0.0
C374 C 0.59687 0.16374 0.75371 0.0
C375 C 0.59661 0.17878 0.78855 0.0
N376 N 0.57359 0.22649 0.82512 0.0
N377 N 0.58993 0.17315 0.6896 0.0
C378 C 0.58643 0.21484 0.79302 0.0
C379 C 0.59359 0.18659 0.7234 0.0
N380 N 0.59254 0.27451 0.76949 0.0
N381 N 0.60157 0.12776 0.75001 0.0
H382 H 0.58689 0.18961 0.66723 0.0
H383 H 0.58692 0.14609 0.68397 0.0
H384 H 0.60138 0.11063 0.77212 0.0
H385 H 0.60619 0.11509 0.72566 0.0
H386 H 0.5937 0.28559 0.79506 0.0
H387 H 0.59672 0.29321 0.7493 0.0
H388 H 0.56362 0.25219 0.82893 0.0
H389 H 0.56808 0.2091 0.84619 0.0
C390 C 0.91603 0.83153 0.22514 0.0
C391 C 0.91067 0.79404 0.22586 0.0
C392 C 0.91495 0.79515 0.29127 0.0
C393 C 0.90863 0.83234 0.29033 0.0
N394 N 0.91377 0.88756 0.25828 0.0
N395 N 0.9062 0.73924 0.26031 0.0
C396 C 0.91344 0.85109 0.25772 0.0
C397 C 0.91155 0.77534 0.25906 0.0
N398 N 0.92294 0.84804 0.19326 0.0
N399 N 0.92398 0.77893 0.3227 0.0
H400 H 0.90322 0.72337 0.23764 0.0
H401 H 0.90222 0.72534 0.28417 0.0
H402 H 0.92936 0.79353 0.34584 0.0
H403 H 0.93098 0.75204 0.32445 0.0
H404 H 0.92884 0.87507 0.19072 0.0
H405 H 0.9254 0.83375 0.16939 0.0
H406 H 0.91356 0.90358 0.23551 0.0
H407 H 0.91399 0.90169 0.2824 0.0
C408 C 0.2603 0.08679 0.3035 0.0
C409 C 0.26127 0.09911 0.26767 0.0
C410 C 0.19845 0.11641 0.27174 0.0
C411 C 0.20066 0.1127 0.30936 0.0
N412 N 0.22984 0.08823 0.36099 0.0
N413 N 0.23097 0.1242 0.2163 0.0
C414 C 0.23022 0.09511 0.32506 0.0
C415 C 0.22993 0.1125 0.25099 0.0
N416 N 0.28837 0.06766 0.31668 0.0
N417 N 0.16661 0.12453 0.25611 0.0
H418 H 0.25324 0.12157 0.19991 0.0
H419 H 0.21043 0.13845 0.20422 0.0
H420 H 0.14315 0.12691 0.27074 0.0
H421 H 0.16262 0.1249 0.22852 0.0
H422 H 0.28882 0.05593 0.34193 0.0
H423 H 0.3104 0.06117 0.30092 0.0
H424 H 0.25169 0.07905 0.37543 0.0
H425 H 0.20711 0.09246 0.37652 0.0
C426 C 0.28981 0.81521 0.82248 0.0
C427 C 0.30395 0.77991 0.82068 0.0
C428 C 0.24429 0.75781 0.80771 0.0
C429 C 0.23325 0.79268 0.79826 0.0
N430 N 0.24225 0.85599 0.80572 0.0
N431 N 0.29391 0.71749 0.80595 0.0
C432 C 0.25504 0.82198 0.80852 0.0
C433 C 0.28094 0.75102 0.81216 0.0
N434 N 0.30871 0.84166 0.83906 0.0
N435 N 0.21991 0.73138 0.81322 0.0
H436 H 0.32098 0.71148 0.80531 0.0
H437 H 0.27777 0.69665 0.79701 0.0
H438 H 0.19265 0.73666 0.81413 0.0
H439 H 0.22705 0.70594 0.82211 0.0
H440 H 0.29872 0.86717 0.84374 0.0
H441 H 0.33313 0.83714 0.85153 0.0
H442 H 0.2582 0.87866 0.80758 0.0
H443 H 0.21527 0.86129 0.80176 0.0
C444 C 0.70589 0.38328 0.75738 0.0
C445 C 0.74033 0.38559 0.7417 0.0
C446 C 0.71394 0.3871 0.68192 0.0
C447 C 0.68069 0.37838 0.69742 0.0
N448 N 0.64196 0.3863 0.748 0.0
N449 N 0.77625 0.40243 0.69137 0.0
C450 C 0.67558 0.38301 0.7346 0.0
C451 C 0.74391 0.39231 0.70458 0.0
N452 N 0.70216 0.37823 0.79342 0.0
N453 N 0.71679 0.38804 0.64549 0.0
H454 H 0.79814 0.40649 0.70814 0.0
H455 H 0.78079 0.40934 0.66478 0.0
H456 H 0.69441 0.38566 0.62904 0.0
H457 H 0.7407 0.39077 0.63172 0.0
H458 H 0.67813 0.37134 0.80548 0.0
H459 H 0.72333 0.37937 0.81135 0.0
H460 H 0.63659 0.39206 0.77473 0.0
H461 H 0.61967 0.38773 0.73145 0.0
C462 C 0.81005 0.64546 0.21238 0.0
C463 C 0.8083 0.65366 0.1755 0.0
C464 C 0.7452 0.63745 0.17475 0.0
C465 C 0.74506 0.63941 0.21258 0.0
N466 N 0.77786 0.64154 0.26837 0.0
N467 N 0.77715 0.65049 0.11958 0.0
C468 C 0.77778 0.64098 0.23177 0.0
C469 C 0.77684 0.64645 0.15592 0.0
N470 N 0.8424 0.64329 0.2289 0.0
N471 N 0.71466 0.62811 0.15729 0.0
H472 H 0.8007 0.65559 0.10561 0.0
H473 H 0.75455 0.64938 0.10351 0.0
H474 H 0.69152 0.62132 0.17122 0.0
H475 H 0.71293 0.62435 0.12975 0.0
H476 H 0.84577 0.63478 0.25523 0.0
H477 H 0.86623 0.64631 0.21496 0.0
H478 H 0.80014 0.64792 0.28365 0.0
H479 H 0.75529 0.63692 0.28382 0.0
C480 C 0.3491 0.23513 0.14528 0.0
C481 C 0.33569 0.20024 0.13982 0.0
C482 C 0.27853 0.22387 0.12093 0.0
C483 C 0.29001 0.25885 0.13084 0.0
N484 N 0.34002 0.29885 0.13683 0.0
N485 N 0.29831 0.16581 0.10055 0.0
C486 C 0.32676 0.26489 0.13777 0.0
C487 C 0.30401 0.19605 0.12003 0.0
N488 N 0.38273 0.23945 0.15836 0.0
N489 N 0.24348 0.21591 0.11533 0.0
H490 H 0.31824 0.14672 0.09702 0.0
H491 H 0.27617 0.16251 0.08402 0.0
H492 H 0.22277 0.23417 0.11732 0.0
H493 H 0.23457 0.18976 0.11182 0.0
H494 H 0.39285 0.26384 0.16706 0.0
H495 H 0.40022 0.2179 0.16085 0.0
H496 H 0.36695 0.30482 0.13946 0.0
H497 H 0.32434 0.32074 0.12965 0.0
C498 C 0.7938 0.24062 0.88577 0.0
C499 C 0.77612 0.27328 0.87854 0.0
C500 C 0.7218 0.24914 0.90493 0.0
C501 C 0.73611 0.21444 0.9006 0.0
N502 N 0.7879 0.17707 0.89837 0.0
N503 N 0.72341 0.31013 0.88374 0.0
C504 C 0.77319 0.21029 0.89539 0.0
C505 C 0.74042 0.27844 0.88983 0.0
N506 N 0.82998 0.23889 0.88259 0.0
N507 N 0.69091 0.25408 0.92344 0.0
H508 H 0.73604 0.33257 0.87324 0.0
H509 H 0.6961 0.31348 0.88727 0.0
H510 H 0.67868 0.23345 0.93757 0.0
H511 H 0.68048 0.27925 0.9291 0.0
H512 H 0.84506 0.21643 0.88884 0.0
H513 H 0.84521 0.26133 0.87616 0.0
H514 H 0.81404 0.17095 0.89156 0.0
H515 H 0.77318 0.15535 0.90783 0.0
C516 C 0.71836 0.79666 0.37285 0.0
C517 C 0.75528 0.78919 0.37051 0.0
C518 C 0.74179 0.72589 0.36145 0.0
C519 C 0.70609 0.73525 0.35397 0.0
N520 N 0.65835 0.77767 0.3577 0.0
N521 N 0.80264 0.74629 0.3604 0.0
C522 C 0.69363 0.77003 0.36204 0.0
C523 C 0.76728 0.75353 0.36521 0.0
N524 N 0.70726 0.82916 0.38517 0.0
N525 N 0.75155 0.69084 0.36391 0.0
H526 H 0.82253 0.7656 0.36136 0.0
H527 H 0.81205 0.72143 0.35219 0.0
H528 H 0.73327 0.66999 0.36251 0.0
H529 H 0.77684 0.68272 0.37197 0.0
H530 H 0.68072 0.83553 0.38993 0.0
H531 H 0.7251 0.8488 0.39365 0.0
H532 H 0.64781 0.80337 0.35891 0.0
H533 H 0.63971 0.7578 0.35186 0.0
C534 C 0.21741 0.73472 0.60769 0.0
C535 C 0.22437 0.7685 0.62309 0.0
C536 C 0.28809 0.75714 0.62199 0.0
C537 C 0.28045 0.72077 0.61483 0.0
N538 N 0.24108 0.67679 0.58972 0.0
N539 N 0.26514 0.81786 0.62347 0.0
C540 C 0.24606 0.71031 0.60331 0.0
C541 C 0.25949 0.78189 0.6229 0.0
N542 N 0.18314 0.72608 0.59924 0.0
N543 N 0.32199 0.76742 0.63015 0.0
H544 H 0.2441 0.83591 0.62117 0.0
H545 H 0.29026 0.82945 0.62159 0.0
H546 H 0.34356 0.74992 0.62876 0.0
H547 H 0.32843 0.79278 0.63962 0.0
H548 H 0.17505 0.7015 0.58919 0.0
H549 H 0.16268 0.74485 0.60165 0.0
H550 H 0.21672 0.66681 0.58114 0.0
H551 H 0.26227 0.65919 0.58569 0.0
C552 C 0.8567 0.64852 0.7576 0.0
C553 C 0.85577 0.66377 0.79234 0.0
C554 C 0.86668 0.72297 0.76772 0.0
C555 C 0.86297 0.70871 0.73265 0.0
N556 N 0.86622 0.65753 0.69375 0.0
N557 N 0.88118 0.70986 0.82946 0.0
C558 C 0.86198 0.67116 0.72742 0.0
C559 C 0.86793 0.69918 0.79719 0.0
N560 N 0.85187 0.61256 0.7539 0.0
N561 N 0.86639 0.75904 0.77336 0.0
H562 H 0.88602 0.69184 0.8502 0.0
H563 H 0.89232 0.73502 0.83363 0.0
H564 H 0.86429 0.77776 0.75283 0.0
H565 H 0.8651 0.77029 0.79886 0.0
H566 H 0.8482 0.59971 0.72949 0.0
H567 H 0.8515 0.59551 0.77606 0.0
H568 H 0.86781 0.63038 0.68806 0.0
H569 H 0.87095 0.67376 0.67151 0.0
C570 C 0.60051 0.3105 0.20689 0.0
C571 C 0.5986 0.27472 0.21956 0.0
C572 C 0.59005 0.29776 0.28017 0.0
C573 C 0.60411 0.33095 0.26909 0.0
N574 N 0.61344 0.3726 0.22111 0.0
N575 N 0.59346 0.23441 0.27059 0.0
C576 C 0.60587 0.33863 0.23198 0.0
C577 C 0.59297 0.26822 0.25674 0.0
N578 N 0.59693 0.31732 0.17112 0.0
N579 N 0.57407 0.2944 0.31277 0.0
H580 H 0.59791 0.21149 0.25555 0.0
H581 H 0.59304 0.22946 0.29807 0.0
H582 H 0.56863 0.31649 0.32887 0.0
H583 H 0.56161 0.2709 0.32104 0.0
H584 H 0.59578 0.34294 0.16032 0.0
H585 H 0.59169 0.29715 0.15256 0.0
H586 H 0.6194 0.37952 0.19479 0.0
H587 H 0.61412 0.39387 0.2392 0.0
C588 C 0.34141 0.84431 0.25671 0.0
C589 C 0.36382 0.81393 0.25854 0.0
C590 C 0.35992 0.80591 0.19394 0.0
C591 C 0.33396 0.83345 0.19228 0.0
N592 N 0.31036 0.8872 0.21901 0.0
N593 N 0.41025 0.78277 0.22704 0.0
C594 C 0.32797 0.85546 0.22279 0.0
C595 C 0.37851 0.80041 0.22644 0.0
N596 N 0.3329 0.86198 0.28749 0.0
N597 N 0.36532 0.78339 0.16568 0.0
H598 H 0.42568 0.78151 0.25024 0.0
H599 H 0.42314 0.77413 0.20389 0.0
H600 H 0.35113 0.78498 0.14177 0.0
H601 H 0.38159 0.76089 0.16743 0.0
H602 H 0.31332 0.88158 0.2892 0.0
H603 H 0.34582 0.85643 0.31164 0.0
H604 H 0.30713 0.90561 0.23962 0.0
H605 H 0.30171 0.89672 0.19422 0.0
C606 C 0.14468 0.2099 0.73485 0.0
C607 C 0.15593 0.17481 0.7436 0.0
C608 C 0.14006 0.18487 0.80653 0.0
C609 C 0.13574 0.22162 0.79878 0.0
N610 N 0.13554 0.27023 0.75598 0.0
N611 N 0.16125 0.12693 0.78629 0.0
C612 C 0.13755 0.23435 0.76294 0.0
C613 C 0.15216 0.16155 0.77903 0.0
N614 N 0.14174 0.22023 0.69985 0.0
N615 N 0.1326 0.1726 0.84017 0.0
H616 H 0.16778 0.10874 0.76615 0.0
H617 H 0.16318 0.11639 0.81201 0.0
H618 H 0.12354 0.18943 0.86051 0.0
H619 H 0.13263 0.14572 0.84729 0.0
H620 H 0.13 0.24418 0.69193 0.0
H621 H 0.14777 0.20363 0.67836 0.0
H622 H 0.1417 0.28145 0.73124 0.0
H623 H 0.13035 0.28945 0.77545 0.0
C624 C 0.73419 0.88702 0.70683 0.0
C625 C 0.75257 0.89731 0.73836 0.0
C626 C 0.80876 0.89325 0.70545 0.0
C627 C 0.79163 0.86965 0.68132 0.0
N628 N 0.7376 0.85741 0.64896 0.0
N629 N 0.80517 0.92583 0.76164 0.0
C630 C 0.75398 0.87111 0.67853 0.0
C631 C 0.78932 0.90579 0.73563 0.0
N632 N 0.69872 0.89413 0.70345 0.0
N633 N 0.84258 0.90456 0.69851 0.0
H634 H 0.79028 0.93942 0.78091 0.0
H635 H 0.83255 0.92943 0.76383 0.0
H636 H 0.85516 0.89888 0.67427 0.0
H637 H 0.85641 0.92274 0.71433 0.0
H638 H 0.68384 0.88833 0.6807 0.0
H639 H 0.6852 0.91011 0.72183 0.0
H640 H 0.71026 0.85349 0.64687 0.0
H641 H 0.75198 0.85034 0.62612 0.0
C642 C 0.73705 0.15668 0.21436 0.0
C643 C 0.70723 0.13542 0.20432 0.0
C644 C 0.72877 0.08748 0.24359 0.0
C645 C 0.7578 0.10943 0.25384 0.0
N646 N 0.79819 0.1556 0.23405 0.0
N647 N 0.68114 0.0766 0.20092 0.0
C648 C 0.76506 0.14071 0.23393 0.0
C649 C 0.70515 0.09938 0.21616 0.0
N650 N 0.7376 0.19272 0.20836 0.0
N651 N 0.72351 0.05572 0.26077 0.0
H652 H 0.6645 0.08433 0.17992 0.0
H653 H 0.68014 0.04938 0.20658 0.0
H654 H 0.74209 0.04549 0.27888 0.0
H655 H 0.70061 0.04032 0.25784 0.0
H656 H 0.75761 0.20923 0.2184 0.0
H657 H 0.71633 0.20697 0.19762 0.0
H658 H 0.80477 0.17761 0.21824 0.0
H659 H 0.82013 0.1429 0.24544 0.0
C660 C 0.28085 0.63552 0.25751 0.0
C661 C 0.28968 0.67225 0.25939 0.0
C662 C 0.26119 0.68307 0.20139 0.0
C663 C 0.25564 0.64587 0.19777 0.0
N664 N 0.26152 0.58585 0.22033 0.0
N665 N 0.29441 0.73002 0.23048 0.0
C666 C 0.26573 0.62178 0.22534 0.0
C667 C 0.28131 0.69587 0.23073 0.0
N668 N 0.28641 0.61411 0.28665 0.0
N669 N 0.24721 0.70623 0.17673 0.0
H670 H 0.30984 0.74067 0.25107 0.0
H671 H 0.29285 0.74692 0.20836 0.0
H672 H 0.23306 0.69784 0.15422 0.0
H673 H 0.24696 0.73384 0.18015 0.0
H674 H 0.27761 0.58781 0.2884 0.0
H675 H 0.29786 0.62357 0.31028 0.0
H676 H 0.27169 0.56654 0.23759 0.0
H677 H 0.24924 0.57518 0.19766 0.0
C678 C 0.17743 0.37462 0.73473 0.0
C679 C 0.2139 0.38492 0.73371 0.0
C680 C 0.21213 0.39545 0.79864 0.0
C681 C 0.17658 0.38288 0.79924 0.0
N682 N 0.12177 0.38359 0.76576 0.0
N683 N 0.2605 0.41901 0.76265 0.0
C684 C 0.15789 0.38039 0.76653 0.0
C685 C 0.22969 0.39977 0.76508 0.0
N686 N 0.16181 0.35694 0.70687 0.0
N687 N 0.22897 0.40289 0.83013 0.0
H688 H 0.27259 0.4249 0.73822 0.0
H689 H 0.27177 0.43252 0.78422 0.0
H690 H 0.21529 0.40325 0.85447 0.0
H691 H 0.25619 0.40784 0.83205 0.0
H692 H 0.13592 0.347 0.70833 0.0
H693 H 0.17558 0.34826 0.68433 0.0
H694 H 0.10728 0.38363 0.74192 0.0
H695 H 0.10738 0.39151 0.78829 0.0
C696 C 0.70831 0.72514 0.90973 0.0
C697 C 0.70425 0.69976 0.88191 0.0
C698 C 0.68278 0.74573 0.8412 0.0
C699 C 0.6922 0.77212 0.86688 0.0
N700 N 0.70134 0.78687 0.92903 0.0
N701 N 0.66686 0.6837 0.83215 0.0
C702 C 0.70072 0.76173 0.90251 0.0
C703 C 0.68435 0.70929 0.85126 0.0
N704 N 0.71989 0.71397 0.94254 0.0
N705 N 0.67514 0.75484 0.80661 0.0
H706 H 0.66527 0.65733 0.84113 0.0
H707 H 0.65008 0.68965 0.81073 0.0
H708 H 0.67494 0.78102 0.79722 0.0
H709 H 0.67194 0.73591 0.7864 0.0
H710 H 0.7272 0.73101 0.96326 0.0
H711 H 0.72188 0.68684 0.94882 0.0
H712 H 0.70587 0.78119 0.95591 0.0
H713 H 0.69449 0.81351 0.92437 0.0
C714 C 0.18835 0.72583 0.0379 0.0
C715 C 0.21702 0.70213 0.03161 0.0
C716 C 0.25477 0.75341 0.01739 0.0
C717 C 0.23142 0.77479 0.03819 0.0
N718 N 0.16996 0.78635 0.05255 0.0
N719 N 0.27156 0.69336 -0.001 0.0
C720 C 0.19592 0.7627 0.04306 0.0
C721 C 0.24837 0.71595 0.0156 0.0
N722 N 0.15439 0.71294 0.03789 0.0
N723 N 0.28141 0.76916 -0.00178 0.0
H724 H 0.26462 0.667 0.99309 0.0
H725 H 0.29693 0.70073 0.99062 0.0
H726 H 0.28329 0.79687 0.99577 0.0
H727 H 0.29878 0.75534 0.98154 0.0
H728 H 0.13184 0.72887 0.04048 0.0
H729 H 0.14897 0.68635 0.03143 0.0
H730 H 0.14456 0.77885 0.06074 0.0
H731 H 0.17405 0.81391 0.05136 0.0
C732 C 0.26037 0.25229 0.5808 0.0
C733 C 0.28703 0.27107 0.60016 0.0
C734 C 0.31133 0.21442 0.62187 0.0
C735 C 0.27893 0.19774 0.61173 0.0
N736 N 0.23718 0.19419 0.56306 0.0
N737 N 0.34877 0.26718 0.6166 0.0
C738 C 0.25782 0.21457 0.58512 0.0
C739 C 0.31624 0.25126 0.61374 0.0
N740 N 0.2382 0.27024 0.55814 0.0
N741 N 0.33713 0.19513 0.63879 0.0
H742 H 0.35332 0.29293 0.60685 0.0
H743 H 0.37179 0.25384 0.62446 0.0
H744 H 0.33643 0.16727 0.63977 0.0
H745 H 0.35921 0.20658 0.65111 0.0
H746 H 0.21524 0.25916 0.54716 0.0
H747 H 0.24364 0.2962 0.54956 0.0
H748 H 0.22215 0.20436 0.54197 0.0
H749 H 0.23859 0.16635 0.56346 0.0
C750 C 0.7595 0.28548 0.39465 0.0
C751 C 0.74836 0.29662 0.36006 0.0
C752 C 0.77393 0.24232 0.33403 0.0
C753 C 0.77995 0.22874 0.36902 0.0
N754 N 0.77755 0.23612 0.43294 0.0
N755 N 0.73837 0.28176 0.29766 0.0
C756 C 0.77269 0.25009 0.39949 0.0
C757 C 0.75434 0.27437 0.32981 0.0
N758 N 0.7578 0.3089 0.42264 0.0
N759 N 0.78563 0.22405 0.30457 0.0
H760 H 0.72176 0.3036 0.29325 0.0
H761 H 0.73827 0.26402 0.27617 0.0
H762 H 0.79815 0.19928 0.30574 0.0
H763 H 0.78567 0.23504 0.27892 0.0
H764 H 0.76816 0.30352 0.44794 0.0
H765 H 0.74872 0.33509 0.41965 0.0
H766 H 0.76884 0.24857 0.45628 0.0
H767 H 0.78893 0.21102 0.43713 0.0
C768 C 0.16364 0.13038 0.52406 0.0
C769 C 0.14407 0.15032 0.5499 0.0
C770 C 0.11374 0.18292 0.50159 0.0
C771 C 0.13338 0.16295 0.47625 0.0
N772 N 0.16771 0.11054 0.46245 0.0
N773 N 0.09428 0.18864 0.56334 0.0
C774 C 0.15496 0.13407 0.48732 0.0
C775 C 0.11698 0.17436 0.53862 0.0
N776 N 0.19259 0.11046 0.53388 0.0
N777 N 0.09326 0.21093 0.49037 0.0
H778 H 0.0957 0.18227 0.59052 0.0
H779 H 0.07216 0.20401 0.5566 0.0
H780 H 0.08943 0.2168 0.46331 0.0
H781 H 0.08156 0.22924 0.50773 0.0
H782 H 0.20999 0.09906 0.51542 0.0
H783 H 0.20175 0.10805 0.56004 0.0
H784 H 0.1808 0.08694 0.46924 0.0
H785 H 0.16185 0.11281 0.43521 0.0
C786 C 0.39458 0.83796 0.97805 0.0
C787 C 0.39205 0.81471 0.00819 0.0
C788 C 0.43238 0.77235 0.97874 0.0
C789 C 0.43043 0.79346 0.94734 0.0
N790 N 0.4305 0.85444 0.92684 0.0
N791 N 0.42007 0.76788 0.04252 0.0
C792 C 0.41872 0.82918 0.95034 0.0
C793 C 0.41491 0.78446 0.01033 0.0
N794 N 0.37232 0.86653 0.97387 0.0
N795 N 0.45039 0.74071 0.9779 0.0
H796 H 0.4088 0.77744 0.0662 0.0
H797 H 0.43799 0.74704 0.04645 0.0
H798 H 0.46627 0.73363 0.95609 0.0
H799 H 0.44946 0.72177 -0.0017 0.0
H800 H 0.37139 0.88145 0.95029 0.0
H801 H 0.35256 0.87364 0.99196 0.0
H802 H 0.42419 0.88146 0.92935 0.0
H803 H 0.45049 0.84892 0.90824 0.0
C804 C 0.64016 0.29205 0.48557 0.0
C805 C 0.62671 0.32574 0.47445 0.0
C806 C 0.58764 0.3274 0.52692 0.0
C807 C 0.60702 0.29838 0.54166 0.0
N808 N 0.63583 0.24283 0.5278 0.0
N809 N 0.58655 0.37529 0.48318 0.0
C810 C 0.6285 0.2774 0.51866 0.0
C811 C 0.59953 0.34303 0.49433 0.0
N812 N 0.6649 0.27475 0.46506 0.0
N813 N 0.55675 0.33835 0.54272 0.0
H814 H 0.59415 0.38725 0.45913 0.0
H815 H 0.57 0.39124 0.4988 0.0
H816 H 0.54501 0.32413 0.56361 0.0
H817 H 0.54017 0.35788 0.53193 0.0
H818 H 0.67912 0.25249 0.47372 0.0
H819 H 0.67234 0.28357 0.43963 0.0
H820 H 0.64927 0.22496 0.51131 0.0
H821 H 0.6245 0.23087 0.55035 0.0
C822 C 0.85091 0.76621 0.01168 0.0
C823 C 0.87815 0.7486 0.03101 0.0
C824 C 0.88892 0.70933 0.9797 0.0
C825 C 0.8562 0.72106 0.9646 0.0
N826 N 0.80558 0.7611 0.96608 0.0
N827 N 0.93428 0.71847 0.02533 0.0
C828 C 0.83747 0.75026 0.98 0.0
C829 C 0.90078 0.72461 0.01252 0.0
N830 N 0.83925 0.79893 0.02272 0.0
N831 N 0.90801 0.68303 0.9631 0.0
H832 H 0.94454 0.73279 0.04697 0.0
H833 H 0.95321 0.70287 0.01236 0.0
H834 H 0.90135 0.67316 0.93785 0.0
H835 H 0.92972 0.67017 0.97465 0.0
H836 H 0.82125 0.81439 0.00819 0.0
H837 H 0.85151 0.8126 0.04371 0.0
H838 H 0.78892 0.77929 0.97891 0.0
H839 H 0.79427 0.74998 0.94318 0.0
C840 C 0.47664 0.08331 0.24978 0.0
C841 C 0.45357 0.0733 0.22155 0.0
C842 C 0.50385 0.06779 0.18069 0.0
C843 C 0.52564 0.08508 0.20654 0.0
N844 N 0.53585 0.10288 0.26761 0.0
N845 N 0.44904 0.03535 0.16979 0.0
C846 C 0.51312 0.09013 0.24205 0.0
C847 C 0.46837 0.0587 0.18999 0.0
N848 N 0.46339 0.08539 0.28375 0.0
N849 N 0.51582 0.06263 0.14653 0.0
H850 H 0.42451 0.0255 0.17836 0.0
H851 H 0.45938 0.02197 0.14766 0.0
H852 H 0.54161 0.0687 0.13835 0.0
H853 H 0.49937 0.05437 0.12565 0.0
H854 H 0.4785 0.09132 0.30631 0.0
H855 H 0.43723 0.07793 0.28954 0.0
H856 H 0.5281 0.11049 0.29322 0.0
H857 H 0.56303 0.10613 0.26283 0.0
C858 C 0.00146 0.84401 0.7211 0.0
C859 C 0.98459 0.82028 0.69676 0.0
C860 C 0.04271 0.8011 0.67456 0.0
C861 C 0.05936 0.82023 0.7026 0.0
N862 N 0.05521 0.85859 0.75419 0.0
N863 N 0.98959 0.77065 0.65534 0.0
C864 C 0.03898 0.84171 0.72618 0.0
C865 C 0.00527 0.79753 0.67452 0.0
N866 N 0.98172 0.86908 0.73877 0.0
N867 N 0.06278 0.78643 0.6478 0.0
H868 H 0.96244 0.76507 0.65613 0.0
H869 H 0.00407 0.7512 0.64171 0.0
H870 H 0.09042 0.78897 0.64675 0.0
H871 H 0.05173 0.77517 0.62482 0.0
H872 H 0.99286 0.8893 0.75429 0.0
H873 H 0.95426 0.87155 0.7354 0.0
H874 H 0.04132 0.8713 0.77467 0.0
H875 H 0.08269 0.85801 0.75813 0.0
C876 C 0.98712 0.36888 0.79719 0.0
C877 C 0.00192 0.3363 0.80977 0.0
C878 C 0.94246 0.31086 0.81678 0.0
C879 C 0.92765 0.34234 0.80167 0.0
N880 N 0.9353 0.39958 0.77322 0.0
N881 N 0.9947 0.27381 0.82397 0.0
C882 C 0.94982 0.37096 0.79066 0.0
C883 C 0.97987 0.30656 0.81738 0.0
N884 N 0.00854 0.39806 0.79267 0.0
N885 N 0.92081 0.28568 0.83202 0.0
H886 H 0.02211 0.26936 0.8241 0.0
H887 H 0.97987 0.25038 0.8258 0.0
H888 H 0.89315 0.28789 0.83275 0.0
H889 H 0.93038 0.26424 0.84699 0.0
H890 H 0.99894 0.42359 0.78727 0.0
H891 H 0.03599 0.39728 0.79677 0.0
H892 H 0.95034 0.41963 0.7612 0.0
H893 H 0.90804 0.40198 0.76847 0.0
C894 C 0.50163 0.71229 0.28354 0.0
C895 C 0.47887 0.686 0.26854 0.0
C896 C 0.53082 0.65272 0.24668 0.0
C897 C 0.55327 0.67739 0.26455 0.0
N898 N 0.5603 0.72651 0.30587 0.0
N899 N 0.47096 0.62927 0.23911 0.0
C900 C 0.53874 0.706 0.28465 0.0
C901 C 0.4932 0.65569 0.25083 0.0
N902 N 0.48794 0.744 0.29546 0.0
N903 N 0.54546 0.62709 0.22521 0.0
H904 H 0.44333 0.63087 0.24142 0.0
H905 H 0.47981 0.60479 0.22935 0.0
H906 H 0.57291 0.62391 0.22234 0.0
H907 H 0.53063 0.61059 0.20848 0.0
H908 H 0.50368 0.76569 0.30281 0.0
H909 H 0.46088 0.7501 0.29476 0.0
H910 H 0.55061 0.74502 0.32426 0.0
H911 H 0.58777 0.72282 0.30769 0.0
C912 C 0.19075 0.45861 0.13554 0.0
C913 C 0.20392 0.43442 0.10978 0.0
C914 C 0.21044 0.4832 0.06661 0.0
C915 C 0.20335 0.50792 0.09452 0.0
N916 N 0.19322 0.51881 0.15786 0.0
N917 N 0.22645 0.42226 0.05077 0.0
C918 C 0.19463 0.49565 0.12952 0.0
C919 C 0.21346 0.4462 0.07506 0.0
N920 N 0.17497 0.44611 0.16607 0.0
N921 N 0.2139 0.49514 0.03221 0.0
H922 H 0.22757 0.39487 0.05596 0.0
H923 H 0.23759 0.4296 0.02632 0.0
H924 H 0.21146 0.52208 0.02541 0.0
H925 H 0.21615 0.47826 0.01018 0.0
H926 H 0.16169 0.46263 0.18413 0.0
H927 H 0.17191 0.41891 0.17142 0.0
H928 H 0.19094 0.51035 0.18435 0.0
H929 H 0.19819 0.5461 0.15587 0.0
C930 C 0.70217 0.98362 0.91795 0.0
C931 C 0.67645 0.96131 0.90178 0.0
C932 C 0.63651 0.01207 0.89369 0.0
C933 C 0.66584 0.03493 0.9005 0.0
N934 N 0.72443 0.04406 0.92513 0.0
N935 N 0.61375 0.95125 0.89508 0.0
C936 C 0.69784 0.02119 0.91527 0.0
C937 C 0.64159 0.97462 0.89658 0.0
N938 N 0.72951 0.96879 0.93688 0.0
N939 N 0.60496 0.02593 0.88192 0.0
H940 H 0.61741 0.92393 0.8995 0.0
H941 H 0.5872 0.95904 0.89351 0.0
H942 H 0.60019 0.05333 0.88028 0.0
H943 H 0.584 0.01039 0.87247 0.0
H944 H 0.74826 0.98359 0.95104 0.0
H945 H 0.73054 0.94142 0.94211 0.0
H946 H 0.74997 0.03577 0.93206 0.0
H947 H 0.72104 0.07175 0.92529 0.0
C948 C 0.79333 0.01238 0.43469 0.0
C949 C 0.81937 0.03631 0.42162 0.0
C950 C 0.85982 0.98667 0.40996 0.0
C951 C 0.83041 0.96319 0.41332 0.0
N952 N 0.77118 0.95143 0.4349 0.0
N953 N 0.88215 0.04718 0.41799 0.0
C954 C 0.79796 0.97525 0.42844 0.0
C955 C 0.85445 0.02368 0.41637 0.0
N956 N 0.76512 0.02529 0.45366 0.0
N957 N 0.89182 0.97402 0.39814 0.0
H958 H 0.87814 0.07393 0.42486 0.0
H959 H 0.90878 0.03967 0.41648 0.0
H960 H 0.89665 0.94685 0.39421 0.0
H961 H 0.91311 0.99038 0.39113 0.0
H962 H 0.74597 0.00918 0.46569 0.0
H963 H 0.76348 0.05221 0.4608 0.0
H964 H 0.74545 0.95887 0.44202 0.0
H965 H 0.77472 0.9239 0.43207 0.0
C966 C 0.34006 0.47739 0.59721 0.0
C967 C 0.30308 0.47036 0.6008 0.0
C968 C 0.29129 0.53462 0.60009 0.0
C969 C 0.32804 0.54108 0.60497 0.0
N970 N 0.38827 0.51918 0.60783 0.0
N971 N 0.24306 0.49313 0.60876 0.0
C972 C 0.35285 0.51271 0.6027 0.0
C973 C 0.27836 0.49914 0.60219 0.0
N974 N 0.36275 0.45019 0.58862 0.0
N975 N 0.26874 0.56263 0.59392 0.0
H976 H 0.2319 0.46789 0.61175 0.0
H977 H 0.22508 0.51357 0.61437 0.0
H978 H 0.27773 0.58896 0.59209 0.0
H979 H 0.24211 0.55933 0.58686 0.0
H980 H 0.38961 0.454 0.58288 0.0
H981 H 0.35381 0.42423 0.58377 0.0
H982 H 0.40715 0.49902 0.61078 0.0
H983 H 0.39852 0.54485 0.61116 0.0
C984 C 0.85705 0.75311 0.48448 0.0
C985 C 0.8846 0.77644 0.47284 0.0
C986 C 0.91076 0.77526 0.53299 0.0
C987 C 0.8794 0.75835 0.54563 0.0
N988 N 0.83678 0.71274 0.53089 0.0
N989 N 0.93974 0.8072 0.48444 0.0
C990 C 0.85686 0.74133 0.52056 0.0
C991 C 0.91245 0.7863 0.49655 0.0
N992 N 0.82948 0.74447 0.46221 0.0
N993 N 0.9396 0.77824 0.55506 0.0
H994 H 0.94279 0.8138 0.45745 0.0
H995 H 0.95847 0.8191 0.50115 0.0
H996 H 0.94046 0.76587 0.58009 0.0
H997 H 0.9641 0.78839 0.54702 0.0
H998 H 0.80665 0.7313 0.47096 0.0
H999 H 0.82787 0.75275 0.43564 0.0
H1000 H 0.82185 0.69743 0.51309 0.0
H1001 H 0.83926 0.70135 0.55629 0.0
C1002 C 0.56322 0.18565 -0.00209 0.0
C1003 C 0.56938 0.15078 0.98459 0.0
C1004 C 0.5855 0.12981 0.04448 0.0
C1005 C 0.58183 0.16533 0.05734 0.0
N1006 N 0.55687 0.22411 0.04988 0.0
N1007 N 0.57405 0.08765 0.99657 0.0
C1008 C 0.56712 0.19231 0.03515 0.0
C1009 C 0.57594 0.1221 0.00849 0.0
N1010 N 0.55518 0.21256 0.97452 0.0
N1011 N 0.60081 0.1041 0.06551 0.0
H1012 H 0.56731 0.08108 0.97036 0.0
H1013 H 0.5754 0.06555 0.01347 0.0
H1014 H 0.60854 0.1084 0.09194 0.0
H1015 H 0.60833 0.07907 0.05602 0.0
H1016 H 0.55466 0.23946 0.98153 0.0
H1017 H 0.55011 0.20772 0.94745 0.0
H1018 H 0.54341 0.24394 0.03578 0.0
H1019 H 0.55901 0.22929 0.07726 0.0
C1020 C 0.40227 0.72852 0.45055 0.0
C1021 C 0.37172 0.71323 0.43423 0.0
C1022 C 0.35538 0.68446 0.49066 0.0
C1023 C 0.38718 0.69769 0.50652 0.0
N1024 N 0.44344 0.72791 0.50078 0.0
N1025 N 0.32387 0.67032 0.43598 0.0
C1026 C 0.41142 0.71846 0.48619 0.0
C1027 C 0.34967 0.68931 0.45347 0.0
N1028 N 0.42166 0.75363 0.43248 0.0
N1029 N 0.32963 0.6689 0.51134 0.0
H1030 H 0.31894 0.67291 0.40861 0.0
H1031 H 0.30971 0.64952 0.44784 0.0
H1032 H 0.33214 0.66491 0.53881 0.0
H1033 H 0.30426 0.66286 0.50185 0.0
H1034 H 0.4419 0.76861 0.44417 0.0
H1035 H 0.41582 0.76145 0.40631 0.0
H1036 H 0.46385 0.73993 0.48628 0.0
H1037 H 0.45071 0.72111 0.52688 0.0
C1038 C 0.12172 0.27444 0.03356 0.0
C1039 C 0.11305 0.30714 0.05067 0.0
C1040 C 0.10319 0.33581 0.99285 0.0
C1041 C 0.11699 0.305 0.9756 0.0
N1042 N 0.1285 0.24168 0.97762 0.0
N1043 N 0.07529 0.35896 0.04644 0.0
C1044 C 0.12271 0.27307 0.99542 0.0
C1045 C 0.09715 0.33474 0.0303 0.0
N1046 N 0.12885 0.24505 0.05404 0.0
N1047 N 0.09782 0.36672 0.97412 0.0
H1048 H 0.06726 0.35607 0.07302 0.0
H1049 H 0.06116 0.37835 0.03231 0.0
H1050 H 0.10232 0.369 0.94668 0.0
H1051 H 0.09157 0.39089 0.98646 0.0
H1052 H 0.1391 0.22119 0.04422 0.0
H1053 H 0.12377 0.24473 0.08153 0.0
H1054 H 0.13134 0.21697 0.99001 0.0
H1055 H 0.12811 0.23993 0.94973 0.0
C1056 C 0.54829 0.84791 0.74978 0.0
C1057 C 0.5616 0.86218 0.78242 0.0
C1058 C 0.50107 0.879 0.79982 0.0
C1059 C 0.48787 0.85695 0.77218 0.0
N1060 N 0.49681 0.839 0.7112 0.0
N1061 N 0.55077 0.89316 0.83837 0.0
C1062 C 0.51087 0.84715 0.74388 0.0
C1063 C 0.53817 0.87938 0.80692 0.0
N1064 N 0.57139 0.83413 0.72513 0.0
N1065 N 0.47781 0.89953 0.81891 0.0
H1066 H 0.57762 0.89354 0.84526 0.0
H1067 H 0.53434 0.90212 0.85893 0.0
H1068 H 0.45073 0.90023 0.81259 0.0
H1069 H 0.48568 0.91845 0.83774 0.0
H1070 H 0.56342 0.81949 0.70285 0.0
H1071 H 0.59896 0.83648 0.72766 0.0
H1072 H 0.51198 0.83337 0.68859 0.0
H1073 H 0.46974 0.84224 0.70582 0.0
C1074 C 0.95111 0.18548 0.33515 0.0
C1075 C 0.93388 0.15895 0.3143 0.0
C1076 C 0.99182 0.13472 0.29596 0.0
C1077 C 0.00893 0.16235 0.31543 0.0
N1078 N 0.00527 0.21839 0.34717 0.0
N1079 N 0.93684 0.11193 0.27041 0.0
C1080 C 0.98867 0.18903 0.33314 0.0
C1081 C 0.95398 0.13458 0.29336 0.0
N1082 N 0.93179 0.20619 0.35823 0.0
N1083 N 0.01167 0.10792 0.28115 0.0
H1084 H 0.90918 0.11114 0.26801 0.0
H1085 H 0.94989 0.096 0.25173 0.0
H1086 H 0.03942 0.10749 0.28217 0.0
H1087 H 0.00076 0.0849 0.27004 0.0
H1088 H 0.94332 0.22292 0.37724 0.0
H1089 H 0.90419 0.20456 0.36059 0.0
H1090 H 0.99164 0.24066 0.3567 0.0
H1091 H 0.03277 0.22202 0.34641 0.0
C1092 C 0.06628 0.69297 0.13363 0.0
C1093 C 0.0826 0.6616 0.14723 0.0
C1094 C 0.02491 0.64093 0.17021 0.0
C1095 C 0.00936 0.67362 0.15912 0.0
N1096 N 0.01663 0.73395 0.13724 0.0
N1097 N 0.07915 0.60826 0.18341 0.0
C1098 C 0.03043 0.70056 0.14276 0.0
C1099 C 0.06237 0.63617 0.16685 0.0
N1100 N 0.08455 0.71484 0.11075 0.0
N1101 N 0.00376 0.61409 0.18298 0.0
H1102 H 0.10656 0.6041 0.18184 0.0
H1103 H 0.0665 0.59098 0.20117 0.0
H1104 H 0.97631 0.61687 0.18615 0.0
H1105 H 0.01286 0.58825 0.18781 0.0
H1106 H 0.07271 0.73582 0.0968 0.0
H1107 H 0.11079 0.7101 0.10303 0.0
H1108 H 0.03192 0.75568 0.12907 0.0
H1109 H 0.99065 0.74096 0.14412 0.0
C1110 C 0.43217 0.37116 0.6709 0.0
C1111 C 0.41191 0.34834 0.69359 0.0
C1112 C 0.46693 0.32416 0.71911 0.0
C1113 C 0.48701 0.34869 0.69816 0.0
N1114 N 0.48822 0.4017 0.66157 0.0
N1115 N 0.40974 0.31012 0.74552 0.0
C1116 C 0.46938 0.37429 0.67657 0.0
C1117 C 0.42924 0.32713 0.71976 0.0
N1118 N 0.41663 0.38784 0.64228 0.0
N1119 N 0.48337 0.29648 0.73641 0.0
H1120 H 0.38209 0.31222 0.7471 0.0
H1121 H 0.42123 0.2971 0.76732 0.0
H1122 H 0.51074 0.29215 0.73579 0.0
H1123 H 0.46944 0.27573 0.74863 0.0
H1124 H 0.43112 0.40168 0.62295 0.0
H1125 H 0.38992 0.38491 0.63546 0.0
H1126 H 0.47618 0.42308 0.64839 0.0
H1127 H 0.51551 0.40498 0.66562 0.0
C1128 C 0.83427 0.51215 0.90848 0.0
C1129 C 0.79975 0.52715 0.91221 0.0
C1130 C 0.77354 0.46758 0.91753 0.0
C1131 C 0.80749 0.45269 0.91038 0.0
N1132 N 0.87104 0.45877 0.91134 0.0
N1133 N 0.73937 0.52076 0.93216 0.0
C1134 C 0.83822 0.47446 0.91032 0.0
C1135 C 0.77035 0.50522 0.92105 0.0
N1136 N 0.86266 0.53347 0.9003 0.0
N1137 N 0.74416 0.44608 0.91831 0.0
H1138 H 0.73689 0.54841 0.93498 0.0
H1139 H 0.7176 0.50642 0.94168 0.0
H1140 H 0.74571 0.41832 0.91674 0.0
H1141 H 0.71819 0.45573 0.91896 0.0
H1142 H 0.88743 0.52362 0.89267 0.0
H1143 H 0.86116 0.56124 0.89949 0.0
H1144 H 0.89468 0.47297 0.91431 0.0
H1145 H 0.87417 0.43108 0.91271 0.0
C1146 C 0.29862 0.98122 0.06554 0.0
C1147 C 0.26872 0.96302 0.07961 0.0
C1148 C 0.2524 0.01515 0.11503 0.0
C1149 C 0.28629 0.03019 0.10729 0.0
N1150 N 0.33934 0.03138 0.07099 0.0
N1151 N 0.2081 0.97116 0.09811 0.0
C1152 C 0.30848 0.01466 0.08069 0.0
C1153 C 0.24249 0.98286 0.09797 0.0
N1154 N 0.31609 0.96724 0.03673 0.0
N1155 N 0.23101 0.02973 0.14077 0.0
H1156 H 0.20022 0.94891 0.08323 0.0
H1157 H 0.18709 0.98585 0.1088 0.0
H1158 H 0.23724 0.05302 0.15466 0.0
H1159 H 0.20814 0.01718 0.15029 0.0
H1160 H 0.33717 0.97974 0.02374 0.0
H1161 H 0.30651 0.94479 0.02325 0.0
H1162 H 0.35879 0.01978 0.05494 0.0
H1163 H 0.34591 0.05697 0.0799 0.0
C1164 C 0.21996 0.96201 0.7163 0.0
C1165 C 0.22337 0.94024 0.68547 0.0
C1166 C 0.23636 0.99317 0.64897 0.0
C1167 C 0.22887 0.01512 0.67898 0.0
N1168 N 0.20768 0.02093 0.7398 0.0
N1169 N 0.23076 0.93472 0.62153 0.0
C1170 C 0.21925 -0.0003 0.71236 0.0
C1171 C 0.23071 0.95566 0.65152 0.0
N1172 N 0.2184 0.94665 0.74951 0.0
N1173 N 0.24973 0.00811 0.61838 0.0
H1174 H 0.22685 0.90714 0.62232 0.0
H1175 H 0.23193 0.94492 0.59561 0.0
H1176 H 0.25416 0.0355 0.61564 0.0
H1177 H 0.25924 0.9932 0.59689 0.0
H1178 H 0.21975 0.96122 0.77323 0.0
H1179 H 0.21924 0.91906 0.7535 0.0
H1180 H 0.19652 0.01087 0.76326 0.0
H1181 H 0.20612 0.04869 0.738 0.0
C1182 C 0.63586 0.49753 0.36661 0.0
C1183 C 0.66902 0.48011 0.37191 0.0
C1184 C 0.69952 0.53775 0.37579 0.0
C1185 C 0.66671 0.55505 0.36852 0.0
N1186 N 0.60279 0.55328 0.36793 0.0
N1187 N 0.72967 0.48266 0.39214 0.0
C1188 C 0.63452 0.53544 0.36776 0.0
C1189 C 0.69995 0.50005 0.38023 0.0
N1190 N 0.60627 0.47813 0.35794 0.0
N1191 N 0.73046 0.55696 0.37606 0.0
H1192 H 0.7303 0.455 0.39575 0.0
H1193 H 0.75226 0.4957 0.40159 0.0
H1194 H 0.73114 0.58469 0.37357 0.0
H1195 H 0.75562 0.54533 0.37681 0.0
H1196 H 0.58251 0.48958 0.34931 0.0
H1197 H 0.6059 0.4503 0.3574 0.0
H1198 H 0.57823 0.54069 0.3706 0.0
H1199 H 0.60132 0.58112 0.36887 0.0
loop_
_geom_bond_atom_site_label_1
_geom_bond_atom_site_label_2
_geom_bond_distance
_geom_bond_site_symmetry_2
_ccdc_geom_bond_type
Zn0 O3 2.031 . S
Zn0 O5 2.049 . S
Zn0 O10 2.067 . S
Zn1 O2 1.962 . S
Zn1 O4 1.986 . S
Zn1 O6 1.996 . S
Zn1 O9 1.943 . S
O2 Zn1 1.962 . S
O2 C7 1.254 . S
O3 Zn0 2.031 . S
O3 C7 1.269 . S
O4 Zn1 1.986 . S
O4 C11 1.262 . S
O5 Zn0 2.049 . S
O5 C13 1.260 . S
O6 Zn1 1.996 . S
O6 C13 1.257 . S
C7 O2 1.254 . S
C7 O3 1.269 . S
C8 O9 1.249 . S
C8 O10 1.270 . S
O9 Zn1 1.943 . S
O9 C8 1.249 . S
O10 Zn0 2.067 . S
O10 C8 1.270 . S
C11 O4 1.262 . S
C11 O12 1.232 . S
O12 C11 1.232 . S
C13 O5 1.260 . S
C13 O6 1.257 . S
Zn14 O17 2.031 . S
Zn14 O19 2.049 . S
Zn14 O24 2.067 . S
Zn15 O16 1.962 . S
Zn15 O18 1.986 . S
Zn15 O20 1.996 . S
Zn15 O23 1.943 . S
O16 Zn15 1.962 . S
O16 C21 1.254 . S
O17 Zn14 2.031 . S
O17 C21 1.269 . S
O18 Zn15 1.986 . S
O18 C25 1.262 . S
O19 Zn14 2.049 . S
O19 C27 1.260 . S
O20 Zn15 1.996 . S
O20 C27 1.257 . S
C21 O16 1.254 . S
C21 O17 1.269 . S
C22 O23 1.249 . S
C22 O24 1.270 . S
O23 Zn15 1.943 . S
O23 C22 1.249 . S
O24 Zn14 2.067 . S
O24 C22 1.270 . S
C25 O18 1.262 . S
C25 O26 1.232 . S
O26 C25 1.232 . S
C27 O19 1.260 . S
C27 O20 1.257 . S
Zn28 O31 2.031 . S
Zn28 O33 2.049 . S
Zn28 O38 2.067 . S
Zn29 O30 1.962 . S
Zn29 O32 1.986 . S
Zn29 O34 1.996 . S
Zn29 O37 1.943 . S
O30 Zn29 1.962 . S
O30 C35 1.254 . S
O31 Zn28 2.031 . S
O31 C35 1.269 . S
O32 Zn29 1.986 . S
O32 C39 1.262 . S
O33 Zn28 2.049 . S
O33 C41 1.260 . S
O34 Zn29 1.996 . S
O34 C41 1.257 . S
C35 O30 1.254 . S
C35 O31 1.269 . S
C36 O37 1.249 . S
C36 O38 1.270 . S
O37 Zn29 1.943 . S
O37 C36 1.249 . S
O38 Zn28 2.067 . S
O38 C36 1.270 . S
C39 O32 1.262 . S
C39 O40 1.232 . S
O40 C39 1.232 . S
C41 O33 1.260 . S
C41 O34 1.257 . S
Zn42 O45 2.031 . S
Zn42 O47 2.049 . S
Zn42 O52 2.067 . S
Zn43 O44 1.962 . S
Zn43 O46 1.986 . S
Zn43 O48 1.996 . S
Zn43 O51 1.943 . S
O44 Zn43 1.962 . S
O44 C49 1.254 . S
O45 Zn42 2.031 . S
O45 C49 1.269 . S
O46 Zn43 1.986 . S
O46 C53 1.262 . S
O47 Zn42 2.049 . S
O47 C55 1.260 . S
O48 Zn43 1.996 . S
O48 C55 1.257 . S
C49 O44 1.254 . S
C49 O45 1.269 . S
C50 O51 1.249 . S
C50 O52 1.270 . S
O51 Zn43 1.943 . S
O51 C50 1.249 . S
O52 Zn42 2.067 . S
O52 C50 1.270 . S
C53 O46 1.262 . S
C53 O54 1.232 . S
O54 C53 1.232 . S
C55 O47 1.260 . S
C55 O48 1.257 . S
Zn56 O59 2.031 . S
Zn56 O61 2.049 . S
Zn56 O66 2.067 . S
Zn57 O58 1.962 . S
Zn57 O60 1.986 . S
Zn57 O62 1.996 . S
Zn57 O65 1.943 . S
O58 Zn57 1.962 . S
O58 C63 1.254 . S
O59 Zn56 2.031 . S
O59 C63 1.269 . S
O60 Zn57 1.986 . S
O60 C67 1.262 . S
O61 Zn56 2.049 . S
O61 C69 1.260 . S
O62 Zn57 1.996 . S
O62 C69 1.257 . S
C63 O58 1.254 . S
C63 O59 1.269 . S
C64 O65 1.249 . S
C64 O66 1.270 . S
O65 Zn57 1.943 . S
O65 C64 1.249 . S
O66 Zn56 2.067 . S
O66 C64 1.270 . S
C67 O60 1.262 . S
C67 O68 1.232 . S
O68 C67 1.232 . S
C69 O61 1.260 . S
C69 O62 1.257 . S
Zn70 O73 2.031 . S
Zn70 O75 2.049 . S
Zn70 O80 2.067 . S
Zn71 O72 1.962 . S
Zn71 O74 1.986 . S
Zn71 O76 1.996 . S
Zn71 O79 1.943 . S
O72 Zn71 1.962 . S
O72 C77 1.254 . S
O73 Zn70 2.031 . S
O73 C77 1.269 . S
O74 Zn71 1.986 . S
O74 C81 1.262 . S
O75 Zn70 2.049 . S
O75 C83 1.260 . S
O76 Zn71 1.996 . S
O76 C83 1.257 . S
C77 O72 1.254 . S
C77 O73 1.269 . S
C78 O79 1.249 . S
C78 O80 1.270 . S
O79 Zn71 1.943 . S
O79 C78 1.249 . S
O80 Zn70 2.067 . S
O80 C78 1.270 . S
C81 O74 1.262 . S
C81 O82 1.232 . S
O82 C81 1.232 . S
C83 O75 1.260 . S
C83 O76 1.257 . S
Zn84 O87 2.031 . S
Zn84 O89 2.049 . S
Zn84 O94 2.067 . S
Zn85 O86 1.962 . S
Zn85 O88 1.986 . S
Zn85 O90 1.996 . S
Zn85 O93 1.943 . S
O86 Zn85 1.962 . S
O86 C91 1.254 . S
O87 Zn84 2.031 . S
O87 C91 1.269 . S
O88 Zn85 1.986 . S
O88 C95 1.262 . S
O89 Zn84 2.049 . S
O89 C97 1.260 . S
O90 Zn85 1.996 . S
O90 C97 1.257 . S
C91 O86 1.254 . S
C91 O87 1.269 . S
C92 O93 1.249 . S
C92 O94 1.270 . S
O93 Zn85 1.943 . S
O93 C92 1.249 . S
O94 Zn84 2.067 . S
O94 C92 1.270 . S
C95 O88 1.262 . S
C95 O96 1.232 . S
O96 C95 1.232 . S
C97 O89 1.260 . S
C97 O90 1.257 . S
Zn98 O101 2.031 . S
Zn98 O103 2.049 . S
Zn98 O108 2.067 . S
Zn99 O100 1.962 . S
Zn99 O102 1.986 . S
Zn99 O104 1.996 . S
Zn99 O107 1.943 . S
O100 Zn99 1.962 . S
O100 C105 1.254 . S
O101 Zn98 2.031 . S
O101 C105 1.269 . S
O102 Zn99 1.986 . S
O102 C109 1.262 . S
O103 Zn98 2.049 . S
O103 C111 1.260 . S
O104 Zn99 1.996 . S
O104 C111 1.257 . S
C105 O100 1.254 . S
C105 O101 1.269 . S
C106 O107 1.249 . S
C106 O108 1.270 . S
O107 Zn99 1.943 . S
O107 C106 1.249 . S
O108 Zn98 2.067 . S
O108 C106 1.270 . S
C109 O102 1.262 . S
C109 O110 1.232 . S
O110 C109 1.232 . S
C111 O103 1.260 . S
C111 O104 1.257 . S
Zn112 O115 2.031 . S
Zn112 O117 2.049 . S
Zn112 O122 2.067 . S
Zn113 O114 1.962 . S
Zn113 O116 1.986 . S
Zn113 O118 1.996 . S
Zn113 O121 1.943 . S
O114 Zn113 1.962 . S
O114 C119 1.254 . S
O115 Zn112 2.031 . S
O115 C119 1.269 . S
O116 Zn113 1.986 . S
O116 C123 1.262 . S
O117 Zn112 2.049 . S
O117 C125 1.260 . S
O118 Zn113 1.996 . S
O118 C125 1.257 . S
C119 O114 1.254 . S
C119 O115 1.269 . S
C120 O121 1.249 . S
C120 O122 1.270 . S
O121 Zn113 1.943 . S
O121 C120 1.249 . S
O122 Zn112 2.067 . S
O122 C120 1.270 . S
C123 O116 1.262 . S
C123 O124 1.232 . S
O124 C123 1.232 . S
C125 O117 1.260 . S
C125 O118 1.257 . S
Zn126 O129 2.031 . S
Zn126 O131 2.049 . S
Zn126 O136 2.067 . S
Zn127 O128 1.962 . S
Zn127 O130 1.986 . S
Zn127 O132 1.996 . S
Zn127 O135 1.943 . S
O128 Zn127 1.962 . S
O128 C133 1.254 . S
O129 Zn126 2.031 . S
O129 C133 1.269 . S
O130 Zn127 1.986 . S
O130 C137 1.262 . S
O131 Zn126 2.049 . S
O131 C139 1.260 . S
O132 Zn127 1.996 . S
O132 C139 1.257 . S
C133 O128 1.254 . S
C133 O129 1.269 . S
C134 O135 1.249 . S
C134 O136 1.270 . S
O135 Zn127 1.943 . S
O135 C134 1.249 . S
O136 Zn126 2.067 . S
O136 C134 1.270 . S
C137 O130 1.262 . S
C137 O138 1.232 . S
O138 C137 1.232 . S
C139 O131 1.260 . S
C139 O132 1.257 . S
Zn140 O143 2.031 . S
Zn140 O145 2.049 . S
Zn140 O150 2.067 . S
Zn141 O142 1.962 . S
Zn141 O144 1.986 . S
Zn141 O146 1.996 . S
Zn141 O149 1.943 . S
O142 Zn141 1.962 . S
O142 C147 1.254 . S
O143 Zn140 2.031 . S
O143 C147 1.269 . S
O144 Zn141 1.986 . S
O144 C151 1.262 . S
O145 Zn140 2.049 . S
O145 C153 1.260 . S
O146 Zn141 1.996 . S
O146 C153 1.257 . S
C147 O142 1.254 . S
C147 O143 1.269 . S
C148 O149 1.249 . S
C148 O150 1.270 . S
O149 Zn141 1.943 . S
O149 C148 1.249 . S
O150 Zn140 2.067 . S
O150 C148 1.270 . S
C151 O144 1.262 . S
C151 O152 1.232 . S
O152 C151 1.232 . S
C153 O145 1.260 . S
C153 O146 1.257 . S
Zn154 O157 2.031 . S
Zn154 O159 2.049 . S
Zn154 O164 2.067 . S
Zn155 O156 1.962 . S
Zn155 O158 1.986 . S
Zn155 O160 1.996 . S
Zn155 O163 1.943 . S
O156 Zn155 1.962 . S
O156 C161 1.254 . S
O157 Zn154 2.031 . S
O157 C161 1.269 . S
O158 Zn155 1.986 . S
O158 C165 1.262 . S
O159 Zn154 2.049 . S
O159 C167 1.260 . S
O160 Zn155 1.996 . S
O160 C167 1.257 . S
C161 O156 1.254 . S
C161 O157 1.269 . S
C162 O163 1.249 . S
C162 O164 1.270 . S
O163 Zn155 1.943 . S
O163 C162 1.249 . S
O164 Zn154 2.067 . S
O164 C162 1.270 . S
C165 O158 1.262 . S
C165 O166 1.232 . S
O166 C165 1.232 . S
C167 O159 1.260 . S
C167 O160 1.257 . S
Zn168 O171 2.031 . S
Zn168 O173 2.049 . S
Zn168 O178 2.067 . S
Zn169 O170 1.962 . S
Zn169 O172 1.986 . S
Zn169 O174 1.996 . S
Zn169 O177 1.943 . S
O170 Zn169 1.962 . S
O170 C175 1.254 . S
O171 Zn168 2.031 . S
O171 C175 1.269 . S
O172 Zn169 1.986 . S
O172 C179 1.262 . S
O173 Zn168 2.049 . S
O173 C181 1.260 . S
O174 Zn169 1.996 . S
O174 C181 1.257 . S
C175 O170 1.254 . S
C175 O171 1.269 . S
C176 O177 1.249 . S
C176 O178 1.270 . S
O177 Zn169 1.943 . S
O177 C176 1.249 . S
O178 Zn168 2.067 . S
O178 C176 1.270 . S
C179 O172 1.262 . S
C179 O180 1.232 . S
O180 C179 1.232 . S
C181 O173 1.260 . S
C181 O174 1.257 . S
Zn182 O185 2.031 . S
Zn182 O187 2.049 . S
Zn182 O192 2.067 . S
Zn183 O184 1.962 . S
Zn183 O186 1.986 . S
Zn183 O188 1.996 . S
Zn183 O191 1.943 . S
O184 Zn183 1.962 . S
O184 C189 1.254 . S
O185 Zn182 2.031 . S
O185 C189 1.269 . S
O186 Zn183 1.986 . S
O186 C193 1.262 . S
O187 Zn182 2.049 . S
O187 C195 1.260 . S
O188 Zn183 1.996 . S
O188 C195 1.257 . S
C189 O184 1.254 . S
C189 O185 1.269 . S
C190 O191 1.249 . S
C190 O192 1.270 . S
O191 Zn183 1.943 . S
O191 C190 1.249 . S
O192 Zn182 2.067 . S
O192 C190 1.270 . S
C193 O186 1.262 . S
C193 O194 1.232 . S
O194 C193 1.232 . S
C195 O187 1.260 . S
C195 O188 1.257 . S
Zn196 O199 2.031 . S
Zn196 O201 2.049 . S
Zn196 O206 2.067 . S
Zn197 O198 1.962 . S
Zn197 O200 1.986 . S
Zn197 O202 1.996 . S
Zn197 O205 1.943 . S
O198 Zn197 1.962 . S
O198 C203 1.254 . S
O199 Zn196 2.031 . S
O199 C203 1.269 . S
O200 Zn197 1.986 . S
O200 C207 1.262 . S
O201 Zn196 2.049 . S
O201 C209 1.260 . S
O202 Zn197 1.996 . S
O202 C209 1.257 . S
C203 O198 1.254 . S
C203 O199 1.269 . S
C204 O205 1.249 . S
C204 O206 1.270 . S
O205 Zn197 1.943 . S
O205 C204 1.249 . S
O206 Zn196 2.067 . S
O206 C204 1.270 . S
C207 O200 1.262 . S
C207 O208 1.232 . S
O208 C207 1.232 . S
C209 O201 1.260 . S
C209 O202 1.257 . S
Zn210 O213 2.031 . S
Zn210 O215 2.049 . S
Zn210 O220 2.067 . S
Zn211 O212 1.962 . S
Zn211 O214 1.986 . S
Zn211 O216 1.996 . S
Zn211 O219 1.943 . S
O212 Zn211 1.962 . S
O212 C217 1.254 . S
O213 Zn210 2.031 . S
O213 C217 1.269 . S
O214 Zn211 1.986 . S
O214 C221 1.262 . S
O215 Zn210 2.049 . S
O215 C223 1.260 . S
O216 Zn211 1.996 . S
O216 C223 1.257 . S
C217 O212 1.254 . S
C217 O213 1.269 . S
C218 O219 1.249 . S
C218 O220 1.270 . S
O219 Zn211 1.943 . S
O219 C218 1.249 . S
O220 Zn210 2.067 . S
O220 C218 1.270 . S
C221 O214 1.262 . S
C221 O222 1.232 . S
O222 C221 1.232 . S
C223 O215 1.260 . S
C223 O216 1.257 . S
Zn224 O227 2.031 . S
Zn224 O229 2.049 . S
Zn224 O234 2.067 . S
Zn225 O226 1.962 . S
Zn225 O228 1.986 . S
Zn225 O230 1.996 . S
Zn225 O233 1.943 . S
O226 Zn225 1.962 . S
O226 C231 1.254 . S
O227 Zn224 2.031 . S
O227 C231 1.269 . S
O228 Zn225 1.986 . S
O228 C235 1.262 . S
O229 Zn224 2.049 . S
O229 C237 1.260 . S
O230 Zn225 1.996 . S
O230 C237 1.257 . S
C231 O226 1.254 . S
C231 O227 1.269 . S
C232 O233 1.249 . S
C232 O234 1.270 . S
O233 Zn225 1.943 . S
O233 C232 1.249 . S
O234 Zn224 2.067 . S
O234 C232 1.270 . S
C235 O228 1.262 . S
C235 O236 1.232 . S
O236 C235 1.232 . S
C237 O229 1.260 . S
C237 O230 1.257 . S
Zn238 O241 2.031 . S
Zn238 O243 2.049 . S
Zn238 O248 2.067 . S
Zn239 O240 1.962 . S
Zn239 O242 1.986 . S
Zn239 O244 1.996 . S
Zn239 O247 1.943 . S
O240 Zn239 1.962 . S
O240 C245 1.254 . S
O241 Zn238 2.031 . S
O241 C245 1.269 . S
O242 Zn239 1.986 . S
O242 C249 1.262 . S
O243 Zn238 2.049 . S
O243 C251 1.260 . S
O244 Zn239 1.996 . S
O244 C251 1.257 . S
C245 O240 1.254 . S
C245 O241 1.269 . S
C246 O247 1.249 . S
C246 O248 1.270 . S
O247 Zn239 1.943 . S
O247 C246 1.249 . S
O248 Zn238 2.067 . S
O248 C246 1.270 . S
C249 O242 1.262 . S
C249 O250 1.232 . S
O250 C249 1.232 . S
C251 O243 1.260 . S
C251 O244 1.257 . S
Zn252 O255 2.031 . S
Zn252 O257 2.049 . S
Zn252 O262 2.067 . S
Zn253 O254 1.962 . S
Zn253 O256 1.986 . S
Zn253 O258 1.996 . S
Zn253 O261 1.943 . S
O254 Zn253 1.962 . S
O254 C259 1.254 . S
O255 Zn252 2.031 . S
O255 C259 1.269 . S
O256 Zn253 1.986 . S
O256 C263 1.262 . S
O257 Zn252 2.049 . S
O257 C265 1.260 . S
O258 Zn253 1.996 . S
O258 C265 1.257 . S
C259 O254 1.254 . S
C259 O255 1.269 . S
C260 O261 1.249 . S
C260 O262 1.270 . S
O261 Zn253 1.943 . S
O261 C260 1.249 . S
O262 Zn252 2.067 . S
O262 C260 1.270 . S
C263 O256 1.262 . S
C263 O264 1.232 . S
O264 C263 1.232 . S
C265 O257 1.260 . S
C265 O258 1.257 . S
Zn266 O269 2.031 . S
Zn266 O271 2.049 . S
Zn266 O276 2.067 . S
Zn267 O268 1.962 . S
Zn267 O270 1.986 . S
Zn267 O272 1.996 . S
Zn267 O275 1.943 . S
O268 Zn267 1.962 . S
O268 C273 1.254 . S
O269 Zn266 2.031 . S
O269 C273 1.269 . S
O270 Zn267 1.986 . S
O270 C277 1.262 . S
O271 Zn266 2.049 . S
O271 C279 1.260 . S
O272 Zn267 1.996 . S
O272 C279 1.257 . S
C273 O268 1.254 . S
C273 O269 1.269 . S
C274 O275 1.249 . S
C274 O276 1.270 . S
O275 Zn267 1.943 . S
O275 C274 1.249 . S
O276 Zn266 2.067 . S
O276 C274 1.270 . S
C277 O270 1.262 . S
C277 O278 1.232 . S
O278 C277 1.232 . S
C279 O271 1.260 . S
C279 O272 1.257 . S
Zn280 O283 2.031 . S
Zn280 O285 2.049 . S
Zn280 O290 2.067 . S
Zn281 O282 1.962 . S
Zn281 O284 1.986 . S
Zn281 O286 1.996 . S
Zn281 O289 1.943 . S
O282 Zn281 1.962 . S
O282 C287 1.254 . S
O283 Zn280 2.031 . S
O283 C287 1.269 . S
O284 Zn281 1.986 . S
O284 C291 1.262 . S
O285 Zn280 2.049 . S
O285 C293 1.260 . S
O286 Zn281 1.996 . S
O286 C293 1.257 . S
C287 O282 1.254 . S
C287 O283 1.269 . S
C288 O289 1.249 . S
C288 O290 1.270 . S
O289 Zn281 1.943 . S
O289 C288 1.249 . S
O290 Zn280 2.067 . S
O290 C288 1.270 . S
C291 O284 1.262 . S
C291 O292 1.232 . S
O292 C291 1.232 . S
C293 O285 1.260 . S
C293 O286 1.257 . S
Zn294 O297 2.031 . S
Zn294 O299 2.049 . S
Zn294 O304 2.067 . S
Zn295 O296 1.962 . S
Zn295 O298 1.986 . S
Zn295 O300 1.996 . S
Zn295 O303 1.943 . S
O296 Zn295 1.962 . S
O296 C301 1.254 . S
O297 Zn294 2.031 . S
O297 C301 1.269 . S
O298 Zn295 1.986 . S
O298 C305 1.262 . S
O299 Zn294 2.049 . S
O299 C307 1.260 . S
O300 Zn295 1.996 . S
O300 C307 1.257 . S
C301 O296 1.254 . S
C301 O297 1.269 . S
C302 O303 1.249 . S
C302 O304 1.270 . S
O303 Zn295 1.943 . S
O303 C302 1.249 . S
O304 Zn294 2.067 . S
O304 C302 1.270 . S
C305 O298 1.262 . S
C305 O306 1.232 . S
O306 C305 1.232 . S
C307 O299 1.260 . S
C307 O300 1.257 . S
Zn308 O311 2.031 . S
Zn308 O313 2.049 . S
Zn308 O318 2.067 . S
Zn309 O310 1.962 . S
Zn309 O312 1.986 . S
Zn309 O314 1.996 . S
Zn309 O317 1.943 . S
O310 Zn309 1.962 . S
O310 C315 1.254 . S
O311 Zn308 2.031 . S
O311 C315 1.269 . S
O312 Zn309 1.986 . S
O312 C319 1.262 . S
O313 Zn308 2.049 . S
O313 C321 1.260 . S
O314 Zn309 1.996 . S
O314 C321 1.257 . S
C315 O310 1.254 . S
C315 O311 1.269 . S
C316 O317 1.249 . S
C316 O318 1.270 . S
O317 Zn309 1.943 . S
O317 C316 1.249 . S
O318 Zn308 2.067 . S
O318 C316 1.270 . S
C319 O312 1.262 . S
C319 O320 1.232 . S
O320 C319 1.232 . S
C321 O313 1.260 . S
C321 O314 1.257 . S
Zn322 O325 2.031 . S
Zn322 O327 2.049 . S
Zn322 O332 2.067 . S
Zn323 O324 1.962 . S
Zn323 O326 1.986 . S
Zn323 O328 1.996 . S
Zn323 O331 1.943 . S
O324 Zn323 1.962 . S
O324 C329 1.254 . S
O325 Zn322 2.031 . S
O325 C329 1.269 . S
O326 Zn323 1.986 . S
O326 C333 1.262 . S
O327 Zn322 2.049 . S
O327 C335 1.260 . S
O328 Zn323 1.996 . S
O328 C335 1.257 . S
C329 O324 1.254 . S
C329 O325 1.269 . S
C330 O331 1.249 . S
C330 O332 1.270 . S
O331 Zn323 1.943 . S
O331 C330 1.249 . S
O332 Zn322 2.067 . S
O332 C330 1.270 . S
C333 O326 1.262 . S
C333 O334 1.232 . S
O334 C333 1.232 . S
C335 O327 1.260 . S
C335 O328 1.257 . S
C336 C337 1.363 . S
C336 C342 1.379 . S
C336 N344 1.356 . S
C337 C336 1.363 . S
C337 C343 1.363 . S
C338 C339 1.363 . S
C338 C343 1.379 . S
C338 N345 1.356 . S
C339 C338 1.363 . S
C339 C342 1.363 . S
N340 C342 1.356 . S
N340 H352 0.984 . S
N340 H353 0.985 . S
N341 C343 1.356 . S
N341 H346 0.984 . S
N341 H347 0.985 . S
C342 C336 1.379 . S
C342 C339 1.363 . S
C342 N340 1.356 . S
C343 C337 1.363 . S
C343 C338 1.379 . S
C343 N341 1.356 . S
N344 C336 1.356 . S
N344 H350 0.984 . S
N344 H351 0.984 . S
N345 C338 1.356 . S
N345 H348 0.984 . S
N345 H349 0.985 . S
H346 N341 0.984 . S
H347 N341 0.985 . S
H348 N345 0.984 . S
H349 N345 0.985 . S
H350 N344 0.984 . S
H351 N344 0.984 . S
H352 N340 0.984 . S
H353 N340 0.985 . S
C354 C355 1.363 . S
C354 C360 1.379 . S
C354 N362 1.356 . S
C355 C354 1.363 . S
C355 C361 1.363 . S
C356 C357 1.363 . S
C356 C361 1.379 . S
C356 N363 1.356 . S
C357 C356 1.363 . S
C357 C360 1.363 . S
N358 C360 1.356 . S
N358 H370 0.984 . S
N358 H371 0.985 . S
N359 C361 1.356 . S
N359 H364 0.984 . S
N359 H365 0.985 . S
C360 C354 1.379 . S
C360 C357 1.363 . S
C360 N358 1.356 . S
C361 C355 1.363 . S
C361 C356 1.379 . S
C361 N359 1.356 . S
N362 C354 1.356 . S
N362 H368 0.984 . S
N362 H369 0.984 . S
N363 C356 1.356 . S
N363 H366 0.984 . S
N363 H367 0.985 . S
H364 N359 0.984 . S
H365 N359 0.985 . S
H366 N363 0.984 . S
H367 N363 0.985 . S
H368 N362 0.984 . S
H369 N362 0.984 . S
H370 N358 0.984 . S
H371 N358 0.985 . S
C372 C373 1.363 . S
C372 C378 1.379 . S
C372 N380 1.356 . S
C373 C372 1.363 . S
C373 C379 1.363 . S
C374 C375 1.363 . S
C374 C379 1.379 . S
C374 N381 1.356 . S
C375 C374 1.363 . S
C375 C378 1.363 . S
N376 C378 1.356 . S
N376 H388 0.984 . S
N376 H389 0.985 . S
N377 C379 1.356 . S
N377 H382 0.984 . S
N377 H383 0.985 . S
C378 C372 1.379 . S
C378 C375 1.363 . S
C378 N376 1.356 . S
C379 C373 1.363 . S
C379 C374 1.379 . S
C379 N377 1.356 . S
N380 C372 1.356 . S
N380 H386 0.984 . S
N380 H387 0.984 . S
N381 C374 1.356 . S
N381 H384 0.984 . S
N381 H385 0.985 . S
H382 N377 0.984 . S
H383 N377 0.985 . S
H384 N381 0.984 . S
H385 N381 0.985 . S
H386 N380 0.984 . S
H387 N380 0.984 . S
H388 N376 0.984 . S
H389 N376 0.985 . S
C390 C391 1.363 . S
C390 C396 1.379 . S
C390 N398 1.356 . S
C391 C390 1.363 . S
C391 C397 1.363 . S
C392 C393 1.363 . S
C392 C397 1.379 . S
C392 N399 1.356 . S
C393 C392 1.363 . S
C393 C396 1.363 . S
N394 C396 1.356 . S
N394 H406 0.984 . S
N394 H407 0.985 . S
N395 C397 1.356 . S
N395 H400 0.984 . S
N395 H401 0.985 . S
C396 C390 1.379 . S
C396 C393 1.363 . S
C396 N394 1.356 . S
C397 C391 1.363 . S
C397 C392 1.379 . S
C397 N395 1.356 . S
N398 C390 1.356 . S
N398 H404 0.984 . S
N398 H405 0.984 . S
N399 C392 1.356 . S
N399 H402 0.984 . S
N399 H403 0.985 . S
H400 N395 0.984 . S
H401 N395 0.985 . S
H402 N399 0.984 . S
H403 N399 0.985 . S
H404 N398 0.984 . S
H405 N398 0.984 . S
H406 N394 0.984 . S
H407 N394 0.985 . S
C408 C409 1.363 . S
C408 C414 1.379 . S
C408 N416 1.356 . S
C409 C408 1.363 . S
C409 C415 1.363 . S
C410 C411 1.363 . S
C410 C415 1.379 . S
C410 N417 1.356 . S
C411 C410 1.363 . S
C411 C414 1.363 . S
N412 C414 1.356 . S
N412 H424 0.984 . S
N412 H425 0.985 . S
N413 C415 1.356 . S
N413 H418 0.984 . S
N413 H419 0.985 . S
C414 C408 1.379 . S
C414 C411 1.363 . S
C414 N412 1.356 . S
C415 C409 1.363 . S
C415 C410 1.379 . S
C415 N413 1.356 . S
N416 C408 1.356 . S
N416 H422 0.984 . S
N416 H423 0.984 . S
N417 C410 1.356 . S
N417 H420 0.984 . S
N417 H421 0.985 . S
H418 N413 0.984 . S
H419 N413 0.985 . S
H420 N417 0.984 . S
H421 N417 0.985 . S
H422 N416 0.984 . S
H423 N416 0.984 . S
H424 N412 0.984 . S
H425 N412 0.985 . S
C426 C427 1.363 . S
C426 C432 1.379 . S
C426 N434 1.356 . S
C427 C426 1.363 . S
C427 C433 1.363 . S
C428 C429 1.363 . S
C428 C433 1.379 . S
C428 N435 1.356 . S
C429 C428 1.363 . S
C429 C432 1.363 . S
N430 C432 1.356 . S
N430 H442 0.984 . S
N430 H443 0.985 . S
N431 C433 1.356 . S
N431 H436 0.984 . S
N431 H437 0.985 . S
C432 C426 1.379 . S
C432 C429 1.363 . S
C432 N430 1.356 . S
C433 C427 1.363 . S
C433 C428 1.379 . S
C433 N431 1.356 . S
N434 C426 1.356 . S
N434 H440 0.984 . S
N434 H441 0.984 . S
N435 C428 1.356 . S
N435 H438 0.984 . S
N435 H439 0.985 . S
H436 N431 0.984 . S
H437 N431 0.985 . S
H438 N435 0.984 . S
H439 N435 0.985 . S
H440 N434 0.984 . S
H441 N434 0.984 . S
H442 N430 0.984 . S
H443 N430 0.985 . S
C444 C445 1.363 . S
C444 C450 1.379 . S
C444 N452 1.356 . S
C445 C444 1.363 . S
C445 C451 1.363 . S
C446 C447 1.363 . S
C446 C451 1.379 . S
C446 N453 1.356 . S
C447 C446 1.363 . S
C447 C450 1.363 . S
N448 C450 1.356 . S
N448 H460 0.984 . S
N448 H461 0.985 . S
N449 C451 1.356 . S
N449 H454 0.984 . S
N449 H455 0.985 . S
C450 C444 1.379 . S
C450 C447 1.363 . S
C450 N448 1.356 . S
C451 C445 1.363 . S
C451 C446 1.379 . S
C451 N449 1.356 . S
N452 C444 1.356 . S
N452 H458 0.984 . S
N452 H459 0.984 . S
N453 C446 1.356 . S
N453 H456 0.984 . S
N453 H457 0.985 . S
H454 N449 0.984 . S
H455 N449 0.985 . S
H456 N453 0.984 . S
H457 N453 0.985 . S
H458 N452 0.984 . S
H459 N452 0.984 . S
H460 N448 0.984 . S
H461 N448 0.985 . S
C462 C463 1.363 . S
C462 C468 1.379 . S
C462 N470 1.356 . S
C463 C462 1.363 . S
C463 C469 1.363 . S
C464 C465 1.363 . S
C464 C469 1.379 . S
C464 N471 1.356 . S
C465 C464 1.363 . S
C465 C468 1.363 . S
N466 C468 1.356 . S
N466 H478 0.984 . S
N466 H479 0.985 . S
N467 C469 1.356 . S
N467 H472 0.984 . S
N467 H473 0.985 . S
C468 C462 1.379 . S
C468 C465 1.363 . S
C468 N466 1.356 . S
C469 C463 1.363 . S
C469 C464 1.379 . S
C469 N467 1.356 . S
N470 C462 1.356 . S
N470 H476 0.984 . S
N470 H477 0.984 . S
N471 C464 1.356 . S
N471 H474 0.984 . S
N471 H475 0.985 . S
H472 N467 0.984 . S
H473 N467 0.985 . S
H474 N471 0.984 . S
H475 N471 0.985 . S
H476 N470 0.984 . S
H477 N470 0.984 . S
H478 N466 0.984 . S
H479 N466 0.985 . S
C480 C481 1.363 . S
C480 C486 1.379 . S
C480 N488 1.356 . S
C481 C480 1.363 . S
C481 C487 1.363 . S
C482 C483 1.363 . S
C482 C487 1.379 . S
C482 N489 1.356 . S
C483 C482 1.363 . S
C483 C486 1.363 . S
N484 C486 1.356 . S
N484 H496 0.984 . S
N484 H497 0.985 . S
N485 C487 1.356 . S
N485 H490 0.984 . S
N485 H491 0.985 . S
C486 C480 1.379 . S
C486 C483 1.363 . S
C486 N484 1.356 . S
C487 C481 1.363 . S
C487 C482 1.379 . S
C487 N485 1.356 . S
N488 C480 1.356 . S
N488 H494 0.984 . S
N488 H495 0.984 . S
N489 C482 1.356 . S
N489 H492 0.984 . S
N489 H493 0.985 . S
H490 N485 0.984 . S
H491 N485 0.985 . S
H492 N489 0.984 . S
H493 N489 0.985 . S
H494 N488 0.984 . S
H495 N488 0.984 . S
H496 N484 0.984 . S
H497 N484 0.985 . S
C498 C499 1.363 . S
C498 C504 1.379 . S
C498 N506 1.356 . S
C499 C498 1.363 . S
C499 C505 1.363 . S
C500 C501 1.363 . S
C500 C505 1.379 . S
C500 N507 1.356 . S
C501 C500 1.363 . S
C501 C504 1.363 . S
N502 C504 1.356 . S
N502 H514 0.984 . S
N502 H515 0.985 . S
N503 C505 1.356 . S
N503 H508 0.984 . S
N503 H509 0.985 . S
C504 C498 1.379 . S
C504 C501 1.363 . S
C504 N502 1.356 . S
C505 C499 1.363 . S
C505 C500 1.379 . S
C505 N503 1.356 . S
N506 C498 1.356 . S
N506 H512 0.984 . S
N506 H513 0.984 . S
N507 C500 1.356 . S
N507 H510 0.984 . S
N507 H511 0.985 . S
H508 N503 0.984 . S
H509 N503 0.985 . S
H510 N507 0.984 . S
H511 N507 0.985 . S
H512 N506 0.984 . S
H513 N506 0.984 . S
H514 N502 0.984 . S
H515 N502 0.985 . S
C516 C517 1.363 . S
C516 C522 1.379 . S
C516 N524 1.356 . S
C517 C516 1.363 . S
C517 C523 1.363 . S
C518 C519 1.363 . S
C518 C523 1.379 . S
C518 N525 1.356 . S
C519 C518 1.363 . S
C519 C522 1.363 . S
N520 C522 1.356 . S
N520 H532 0.984 . S
N520 H533 0.985 . S
N521 C523 1.356 . S
N521 H526 0.984 . S
N521 H527 0.985 . S
C522 C516 1.379 . S
C522 C519 1.363 . S
C522 N520 1.356 . S
C523 C517 1.363 . S
C523 C518 1.379 . S
C523 N521 1.356 . S
N524 C516 1.356 . S
N524 H530 0.984 . S
N524 H531 0.984 . S
N525 C518 1.356 . S
N525 H528 0.984 . S
N525 H529 0.985 . S
H526 N521 0.984 . S
H527 N521 0.985 . S
H528 N525 0.984 . S
H529 N525 0.985 . S
H530 N524 0.984 . S
H531 N524 0.984 . S
H532 N520 0.984 . S
H533 N520 0.985 . S
C534 C535 1.363 . S
C534 C540 1.379 . S
C534 N542 1.356 . S
C535 C534 1.363 . S
C535 C541 1.363 . S
C536 C537 1.363 . S
C536 C541 1.379 . S
C536 N543 1.356 . S
C537 C536 1.363 . S
C537 C540 1.363 . S
N538 C540 1.356 . S
N538 H550 0.984 . S
N538 H551 0.985 . S
N539 C541 1.356 . S
N539 H544 0.984 . S
N539 H545 0.985 . S
C540 C534 1.379 . S
C540 C537 1.363 . S
C540 N538 1.356 . S
C541 C535 1.363 . S
C541 C536 1.379 . S
C541 N539 1.356 . S
N542 C534 1.356 . S
N542 H548 0.984 . S
N542 H549 0.984 . S
N543 C536 1.356 . S
N543 H546 0.984 . S
N543 H547 0.985 . S
H544 N539 0.984 . S
H545 N539 0.985 . S
H546 N543 0.984 . S
H547 N543 0.985 . S
H548 N542 0.984 . S
H549 N542 0.984 . S
H550 N538 0.984 . S
H551 N538 0.985 . S
C552 C553 1.363 . S
C552 C558 1.379 . S
C552 N560 1.356 . S
C553 C552 1.363 . S
C553 C559 1.363 . S
C554 C555 1.363 . S
C554 C559 1.379 . S
C554 N561 1.356 . S
C555 C554 1.363 . S
C555 C558 1.363 . S
N556 C558 1.356 . S
N556 H568 0.984 . S
N556 H569 0.985 . S
N557 C559 1.356 . S
N557 H562 0.984 . S
N557 H563 0.985 . S
C558 C552 1.379 . S
C558 C555 1.363 . S
C558 N556 1.356 . S
C559 C553 1.363 . S
C559 C554 1.379 . S
C559 N557 1.356 . S
N560 C552 1.356 . S
N560 H566 0.984 . S
N560 H567 0.984 . S
N561 C554 1.356 . S
N561 H564 0.984 . S
N561 H565 0.985 . S
H562 N557 0.984 . S
H563 N557 0.985 . S
H564 N561 0.984 . S
H565 N561 0.985 . S
H566 N560 0.984 . S
H567 N560 0.984 . S
H568 N556 0.984 . S
H569 N556 0.985 . S
C570 C571 1.363 . S
C570 C576 1.379 . S
C570 N578 1.356 . S
C571 C570 1.363 . S
C571 C577 1.363 . S
C572 C573 1.363 . S
C572 C577 1.379 . S
C572 N579 1.356 . S
C573 C572 1.363 . S
C573 C576 1.363 . S
N574 C576 1.356 . S
N574 H586 0.984 . S
N574 H587 0.985 . S
N575 C577 1.356 . S
N575 H580 0.984 . S
N575 H581 0.985 . S
C576 C570 1.379 . S
C576 C573 1.363 . S
C576 N574 1.356 . S
C577 C571 1.363 . S
C577 C572 1.379 . S
C577 N575 1.356 . S
N578 C570 1.356 . S
N578 H584 0.984 . S
N578 H585 0.984 . S
N579 C572 1.356 . S
N579 H582 0.984 . S
N579 H583 0.985 . S
H580 N575 0.984 . S
H581 N575 0.985 . S
H582 N579 0.984 . S
H583 N579 0.985 . S
H584 N578 0.984 . S
H585 N578 0.984 . S
H586 N574 0.984 . S
H587 N574 0.985 . S
C588 C589 1.363 . S
C588 C594 1.379 . S
C588 N596 1.356 . S
C589 C588 1.363 . S
C589 C595 1.363 . S
C590 C591 1.363 . S
C590 C595 1.379 . S
C590 N597 1.356 . S
C591 C590 1.363 . S
C591 C594 1.363 . S
N592 C594 1.356 . S
N592 H604 0.984 . S
N592 H605 0.985 . S
N593 C595 1.356 . S
N593 H598 0.984 . S
N593 H599 0.985 . S
C594 C588 1.379 . S
C594 C591 1.363 . S
C594 N592 1.356 . S
C595 C589 1.363 . S
C595 C590 1.379 . S
C595 N593 1.356 . S
N596 C588 1.356 . S
N596 H602 0.984 . S
N596 H603 0.984 . S
N597 C590 1.356 . S
N597 H600 0.984 . S
N597 H601 0.985 . S
H598 N593 0.984 . S
H599 N593 0.985 . S
H600 N597 0.984 . S
H601 N597 0.985 . S
H602 N596 0.984 . S
H603 N596 0.984 . S
H604 N592 0.984 . S
H605 N592 0.985 . S
C606 C607 1.363 . S
C606 C612 1.379 . S
C606 N614 1.356 . S
C607 C606 1.363 . S
C607 C613 1.363 . S
C608 C609 1.363 . S
C608 C613 1.379 . S
C608 N615 1.356 . S
C609 C608 1.363 . S
C609 C612 1.363 . S
N610 C612 1.356 . S
N610 H622 0.984 . S
N610 H623 0.985 . S
N611 C613 1.356 . S
N611 H616 0.984 . S
N611 H617 0.985 . S
C612 C606 1.379 . S
C612 C609 1.363 . S
C612 N610 1.356 . S
C613 C607 1.363 . S
C613 C608 1.379 . S
C613 N611 1.356 . S
N614 C606 1.356 . S
N614 H620 0.984 . S
N614 H621 0.984 . S
N615 C608 1.356 . S
N615 H618 0.984 . S
N615 H619 0.985 . S
H616 N611 0.984 . S
H617 N611 0.985 . S
H618 N615 0.984 . S
H619 N615 0.985 . S
H620 N614 0.984 . S
H621 N614 0.984 . S
H622 N610 0.984 . S
H623 N610 0.985 . S
C624 C625 1.363 . S
C624 C630 1.379 . S
C624 N632 1.356 . S
C625 C624 1.363 . S
C625 C631 1.363 . S
C626 C627 1.363 . S
C626 C631 1.379 . S
C626 N633 1.356 . S
C627 C626 1.363 . S
C627 C630 1.363 . S
N628 C630 1.356 . S
N628 H640 0.984 . S
N628 H641 0.985 . S
N629 C631 1.356 . S
N629 H634 0.984 . S
N629 H635 0.985 . S
C630 C624 1.379 . S
C630 C627 1.363 . S
C630 N628 1.356 . S
C631 C625 1.363 . S
C631 C626 1.379 . S
C631 N629 1.356 . S
N632 C624 1.356 . S
N632 H638 0.984 . S
N632 H639 0.984 . S
N633 C626 1.356 . S
N633 H636 0.984 . S
N633 H637 0.985 . S
H634 N629 0.984 . S
H635 N629 0.985 . S
H636 N633 0.984 . S
H637 N633 0.985 . S
H638 N632 0.984 . S
H639 N632 0.984 . S
H640 N628 0.984 . S
H641 N628 0.985 . S
C642 C643 1.363 . S
C642 C648 1.379 . S
C642 N650 1.356 . S
C643 C642 1.363 . S
C643 C649 1.363 . S
C644 C645 1.363 . S
C644 C649 1.379 . S
C644 N651 1.356 . S
C645 C644 1.363 . S
C645 C648 1.363 . S
N646 C648 1.356 . S
N646 H658 0.984 . S
N646 H659 0.985 . S
N647 C649 1.356 . S
N647 H652 0.984 . S
N647 H653 0.985 . S
C648 C642 1.379 . S
C648 C645 1.363 . S
C648 N646 1.356 . S
C649 C643 1.363 . S
C649 C644 1.379 . S
C649 N647 1.356 . S
N650 C642 1.356 . S
N650 H656 0.984 . S
N650 H657 0.984 . S
N651 C644 1.356 . S
N651 H654 0.984 . S
N651 H655 0.985 . S
H652 N647 0.984 . S
H653 N647 0.985 . S
H654 N651 0.984 . S
H655 N651 0.985 . S
H656 N650 0.984 . S
H657 N650 0.984 . S
H658 N646 0.984 . S
H659 N646 0.985 . S
C660 C661 1.363 . S
C660 C666 1.379 . S
C660 N668 1.356 . S
C661 C660 1.363 . S
C661 C667 1.363 . S
C662 C663 1.363 . S
C662 C667 1.379 . S
C662 N669 1.356 . S
C663 C662 1.363 . S
C663 C666 1.363 . S
N664 C666 1.356 . S
N664 H676 0.984 . S
N664 H677 0.985 . S
N665 C667 1.356 . S
N665 H670 0.984 . S
N665 H671 0.985 . S
C666 C660 1.379 . S
C666 C663 1.363 . S
C666 N664 1.356 . S
C667 C661 1.363 . S
C667 C662 1.379 . S
C667 N665 1.356 . S
N668 C660 1.356 . S
N668 H674 0.984 . S
N668 H675 0.984 . S
N669 C662 1.356 . S
N669 H672 0.984 . S
N669 H673 0.985 . S
H670 N665 0.984 . S
H671 N665 0.985 . S
H672 N669 0.984 . S
H673 N669 0.985 . S
H674 N668 0.984 . S
H675 N668 0.984 . S
H676 N664 0.984 . S
H677 N664 0.985 . S
C678 C679 1.363 . S
C678 C684 1.379 . S
C678 N686 1.356 . S
C679 C678 1.363 . S
C679 C685 1.363 . S
C680 C681 1.363 . S
C680 C685 1.379 . S
C680 N687 1.356 . S
C681 C680 1.363 . S
C681 C684 1.363 . S
N682 C684 1.356 . S
N682 H694 0.984 . S
N682 H695 0.985 . S
N683 C685 1.356 . S
N683 H688 0.984 . S
N683 H689 0.985 . S
C684 C678 1.379 . S
C684 C681 1.363 . S
C684 N682 1.356 . S
C685 C679 1.363 . S
C685 C680 1.379 . S
C685 N683 1.356 . S
N686 C678 1.356 . S
N686 H692 0.984 . S
N686 H693 0.984 . S
N687 C680 1.356 . S
N687 H690 0.984 . S
N687 H691 0.985 . S
H688 N683 0.984 . S
H689 N683 0.985 . S
H690 N687 0.984 . S
H691 N687 0.985 . S
H692 N686 0.984 . S
H693 N686 0.984 . S
H694 N682 0.984 . S
H695 N682 0.985 . S
C696 C697 1.363 . S
C696 C702 1.379 . S
C696 N704 1.356 . S
C697 C696 1.363 . S
C697 C703 1.363 . S
C698 C699 1.363 . S
C698 C703 1.379 . S
C698 N705 1.356 . S
C699 C698 1.363 . S
C699 C702 1.363 . S
N700 C702 1.356 . S
N700 H712 0.984 . S
N700 H713 0.985 . S
N701 C703 1.356 . S
N701 H706 0.984 . S
N701 H707 0.985 . S
C702 C696 1.379 . S
C702 C699 1.363 . S
C702 N700 1.356 . S
C703 C697 1.363 . S
C703 C698 1.379 . S
C703 N701 1.356 . S
N704 C696 1.356 . S
N704 H710 0.984 . S
N704 H711 0.984 . S
N705 C698 1.356 . S
N705 H708 0.984 . S
N705 H709 0.985 . S
H706 N701 0.984 . S
H707 N701 0.985 . S
H708 N705 0.984 . S
H709 N705 0.985 . S
H710 N704 0.984 . S
H711 N704 0.984 . S
H712 N700 0.984 . S
H713 N700 0.985 . S
C714 C715 1.363 . S
C714 C720 1.379 . S
C714 N722 1.356 . S
C715 C714 1.363 . S
C715 C721 1.363 . S
C716 C717 1.363 . S
C716 C721 1.379 . S
C716 N723 1.356 . S
C717 C716 1.363 . S
C717 C720 1.363 . S
N718 C720 1.356 . S
N718 H730 0.984 . S
N718 H731 0.985 . S
N719 C721 1.356 . S
N719 H724 0.984 . S
N719 H725 0.985 . S
C720 C714 1.379 . S
C720 C717 1.363 . S
C720 N718 1.356 . S
C721 C715 1.363 . S
C721 C716 1.379 . S
C721 N719 1.356 . S
N722 C714 1.356 . S
N722 H728 0.984 . S
N722 H729 0.984 . S
N723 C716 1.356 . S
N723 H726 0.984 . S
N723 H727 0.985 . S
H724 N719 0.984 . S
H725 N719 0.985 . S
H726 N723 0.984 . S
H727 N723 0.985 . S
H728 N722 0.984 . S
H729 N722 0.984 . S
H730 N718 0.984 . S
H731 N718 0.985 . S
C732 C733 1.363 . S
C732 C738 1.379 . S
C732 N740 1.356 . S
C733 C732 1.363 . S
C733 C739 1.363 . S
C734 C735 1.363 . S
C734 C739 1.379 . S
C734 N741 1.356 . S
C735 C734 1.363 . S
C735 C738 1.363 . S
N736 C738 1.356 . S
N736 H748 0.984 . S
N736 H749 0.985 . S
N737 C739 1.356 . S
N737 H742 0.984 . S
N737 H743 0.985 . S
C738 C732 1.379 . S
C738 C735 1.363 . S
C738 N736 1.356 . S
C739 C733 1.363 . S
C739 C734 1.379 . S
C739 N737 1.356 . S
N740 C732 1.356 . S
N740 H746 0.984 . S
N740 H747 0.984 . S
N741 C734 1.356 . S
N741 H744 0.984 . S
N741 H745 0.985 . S
H742 N737 0.984 . S
H743 N737 0.985 . S
H744 N741 0.984 . S
H745 N741 0.985 . S
H746 N740 0.984 . S
H747 N740 0.984 . S
H748 N736 0.984 . S
H749 N736 0.985 . S
C750 C751 1.363 . S
C750 C756 1.379 . S
C750 N758 1.356 . S
C751 C750 1.363 . S
C751 C757 1.363 . S
C752 C753 1.363 . S
C752 C757 1.379 . S
C752 N759 1.356 . S
C753 C752 1.363 . S
C753 C756 1.363 . S
N754 C756 1.356 . S
N754 H766 0.984 . S
N754 H767 0.985 . S
N755 C757 1.356 . S
N755 H760 0.984 . S
N755 H761 0.985 . S
C756 C750 1.379 . S
C756 C753 1.363 . S
C756 N754 1.356 . S
C757 C751 1.363 . S
C757 C752 1.379 . S
C757 N755 1.356 . S
N758 C750 1.356 . S
N758 H764 0.984 . S
N758 H765 0.984 . S
N759 C752 1.356 . S
N759 H762 0.984 . S
N759 H763 0.985 . S
H760 N755 0.984 . S
H761 N755 0.985 . S
H762 N759 0.984 . S
H763 N759 0.985 . S
H764 N758 0.984 . S
H765 N758 0.984 . S
H766 N754 0.984 . S
H767 N754 0.985 . S
C768 C769 1.363 . S
C768 C774 1.379 . S
C768 N776 1.356 . S
C769 C768 1.363 . S
C769 C775 1.363 . S
C770 C771 1.363 . S
C770 C775 1.379 . S
C770 N777 1.356 . S
C771 C770 1.363 . S
C771 C774 1.363 . S
N772 C774 1.356 . S
N772 H784 0.984 . S
N772 H785 0.985 . S
N773 C775 1.356 . S
N773 H778 0.984 . S
N773 H779 0.985 . S
C774 C768 1.379 . S
C774 C771 1.363 . S
C774 N772 1.356 . S
C775 C769 1.363 . S
C775 C770 1.379 . S
C775 N773 1.356 . S
N776 C768 1.356 . S
N776 H782 0.984 . S
N776 H783 0.984 . S
N777 C770 1.356 . S
N777 H780 0.984 . S
N777 H781 0.985 . S
H778 N773 0.984 . S
H779 N773 0.985 . S
H780 N777 0.984 . S
H781 N777 0.985 . S
H782 N776 0.984 . S
H783 N776 0.984 . S
H784 N772 0.984 . S
H785 N772 0.985 . S
C786 C787 1.363 . S
C786 C792 1.379 . S
C786 N794 1.356 . S
C787 C786 1.363 . S
C787 C793 1.363 . S
C788 C789 1.363 . S
C788 C793 1.379 . S
C788 N795 1.356 . S
C789 C788 1.363 . S
C789 C792 1.363 . S
N790 C792 1.356 . S
N790 H802 0.984 . S
N790 H803 0.985 . S
N791 C793 1.356 1_554 S
N791 H796 0.984 . S
N791 H797 0.985 . S
C792 C786 1.379 . S
C792 C789 1.363 . S
C792 N790 1.356 . S
C793 C787 1.363 . S
C793 C788 1.379 . S
C793 N791 1.356 1_556 S
N794 C786 1.356 . S
N794 H800 0.984 . S
N794 H801 0.984 1_556 S
N795 C788 1.356 . S
N795 H798 0.984 . S
N795 H799 0.985 . S
H796 N791 0.984 . S
H797 N791 0.985 . S
H798 N795 0.984 . S
H799 N795 0.985 . S
H800 N794 0.984 . S
H801 N794 0.984 1_554 S
H802 N790 0.984 . S
H803 N790 0.985 . S
C804 C805 1.363 . S
C804 C810 1.379 . S
C804 N812 1.356 . S
C805 C804 1.363 . S
C805 C811 1.363 . S
C806 C807 1.363 . S
C806 C811 1.379 . S
C806 N813 1.356 . S
C807 C806 1.363 . S
C807 C810 1.363 . S
N808 C810 1.356 . S
N808 H820 0.984 . S
N808 H821 0.985 . S
N809 C811 1.356 . S
N809 H814 0.984 . S
N809 H815 0.985 . S
C810 C804 1.379 . S
C810 C807 1.363 . S
C810 N808 1.356 . S
C811 C805 1.363 . S
C811 C806 1.379 . S
C811 N809 1.356 . S
N812 C804 1.356 . S
N812 H818 0.984 . S
N812 H819 0.984 . S
N813 C806 1.356 . S
N813 H816 0.984 . S
N813 H817 0.985 . S
H814 N809 0.984 . S
H815 N809 0.985 . S
H816 N813 0.984 . S
H817 N813 0.985 . S
H818 N812 0.984 . S
H819 N812 0.984 . S
H820 N808 0.984 . S
H821 N808 0.985 . S
C822 C823 1.363 . S
C822 C828 1.379 . S
C822 N830 1.356 . S
C823 C822 1.363 . S
C823 C829 1.363 . S
C824 C825 1.363 . S
C824 C829 1.379 . S
C824 N831 1.356 . S
C825 C824 1.363 . S
C825 C828 1.363 . S
N826 C828 1.356 . S
N826 H838 0.984 . S
N826 H839 0.985 1_554 S
N827 C829 1.356 . S
N827 H832 0.984 . S
N827 H833 0.985 . S
C828 C822 1.379 . S
C828 C825 1.363 . S
C828 N826 1.356 . S
C829 C823 1.363 . S
C829 C824 1.379 . S
C829 N827 1.356 . S
N830 C822 1.356 . S
N830 H836 0.984 . S
N830 H837 0.984 . S
N831 C824 1.356 . S
N831 H834 0.984 1_554 S
N831 H835 0.985 . S
H832 N827 0.984 . S
H833 N827 0.985 . S
H834 N831 0.984 1_556 S
H835 N831 0.985 . S
H836 N830 0.984 . S
H837 N830 0.984 . S
H838 N826 0.984 . S
H839 N826 0.985 1_556 S
C840 C841 1.363 . S
C840 C846 1.379 . S
C840 N848 1.356 . S
C841 C840 1.363 . S
C841 C847 1.363 . S
C842 C843 1.363 . S
C842 C847 1.379 . S
C842 N849 1.356 . S
C843 C842 1.363 . S
C843 C846 1.363 . S
N844 C846 1.356 . S
N844 H856 0.984 . S
N844 H857 0.985 . S
N845 C847 1.356 . S
N845 H850 0.984 . S
N845 H851 0.985 . S
C846 C840 1.379 . S
C846 C843 1.363 . S
C846 N844 1.356 . S
C847 C841 1.363 . S
C847 C842 1.379 . S
C847 N845 1.356 . S
N848 C840 1.356 . S
N848 H854 0.984 . S
N848 H855 0.984 . S
N849 C842 1.356 . S
N849 H852 0.984 . S
N849 H853 0.985 . S
H850 N845 0.984 . S
H851 N845 0.985 . S
H852 N849 0.984 . S
H853 N849 0.985 . S
H854 N848 0.984 . S
H855 N848 0.984 . S
H856 N844 0.984 . S
H857 N844 0.985 . S
C858 C859 1.363 . S
C858 C864 1.379 . S
C858 N866 1.356 1_455 S
C859 C858 1.363 . S
C859 C865 1.363 . S
C860 C861 1.363 . S
C860 C865 1.379 . S
C860 N867 1.356 . S
C861 C860 1.363 . S
C861 C864 1.363 . S
N862 C864 1.356 . S
N862 H874 0.984 . S
N862 H875 0.985 . S
N863 C865 1.356 . S
N863 H868 0.984 1_455 S
N863 H869 0.985 . S
C864 C858 1.379 . S
C864 C861 1.363 . S
C864 N862 1.356 . S
C865 C859 1.363 . S
C865 C860 1.379 . S
C865 N863 1.356 . S
N866 C858 1.356 1_655 S
N866 H872 0.984 . S
N866 H873 0.984 . S
N867 C860 1.356 . S
N867 H870 0.984 . S
N867 H871 0.985 . S
H868 N863 0.984 1_655 S
H869 N863 0.985 . S
H870 N867 0.984 . S
H871 N867 0.985 . S
H872 N866 0.984 . S
H873 N866 0.984 . S
H874 N862 0.984 . S
H875 N862 0.985 . S
C876 C877 1.363 . S
C876 C882 1.379 . S
C876 N884 1.356 1_655 S
C877 C876 1.363 . S
C877 C883 1.363 . S
C878 C879 1.363 . S
C878 C883 1.379 . S
C878 N885 1.356 . S
C879 C878 1.363 . S
C879 C882 1.363 . S
N880 C882 1.356 . S
N880 H892 0.984 . S
N880 H893 0.985 . S
N881 C883 1.356 . S
N881 H886 0.984 1_655 S
N881 H887 0.985 . S
C882 C876 1.379 . S
C882 C879 1.363 . S
C882 N880 1.356 . S
C883 C877 1.363 . S
C883 C878 1.379 . S
C883 N881 1.356 . S
N884 C876 1.356 1_455 S
N884 H890 0.984 . S
N884 H891 0.984 . S
N885 C878 1.356 . S
N885 H888 0.984 . S
N885 H889 0.985 . S
H886 N881 0.984 1_455 S
H887 N881 0.985 . S
H888 N885 0.984 . S
H889 N885 0.985 . S
H890 N884 0.984 . S
H891 N884 0.984 . S
H892 N880 0.984 . S
H893 N880 0.985 . S
C894 C895 1.363 . S
C894 C900 1.379 . S
C894 N902 1.356 . S
C895 C894 1.363 . S
C895 C901 1.363 . S
C896 C897 1.363 . S
C896 C901 1.379 . S
C896 N903 1.356 . S
C897 C896 1.363 . S
C897 C900 1.363 . S
N898 C900 1.356 . S
N898 H910 0.984 . S
N898 H911 0.985 . S
N899 C901 1.356 . S
N899 H904 0.984 . S
N899 H905 0.985 . S
C900 C894 1.379 . S
C900 C897 1.363 . S
C900 N898 1.356 . S
C901 C895 1.363 . S
C901 C896 1.379 . S
C901 N899 1.356 . S
N902 C894 1.356 . S
N902 H908 0.984 . S
N902 H909 0.984 . S
N903 C896 1.356 . S
N903 H906 0.984 . S
N903 H907 0.985 . S
H904 N899 0.984 . S
H905 N899 0.985 . S
H906 N903 0.984 . S
H907 N903 0.985 . S
H908 N902 0.984 . S
H909 N902 0.984 . S
H910 N898 0.984 . S
H911 N898 0.985 . S
C912 C913 1.363 . S
C912 C918 1.379 . S
C912 N920 1.356 . S
C913 C912 1.363 . S
C913 C919 1.363 . S
C914 C915 1.363 . S
C914 C919 1.379 . S
C914 N921 1.356 . S
C915 C914 1.363 . S
C915 C918 1.363 . S
N916 C918 1.356 . S
N916 H928 0.984 . S
N916 H929 0.985 . S
N917 C919 1.356 . S
N917 H922 0.984 . S
N917 H923 0.985 . S
C918 C912 1.379 . S
C918 C915 1.363 . S
C918 N916 1.356 . S
C919 C913 1.363 . S
C919 C914 1.379 . S
C919 N917 1.356 . S
N920 C912 1.356 . S
N920 H926 0.984 . S
N920 H927 0.984 . S
N921 C914 1.356 . S
N921 H924 0.984 . S
N921 H925 0.985 . S
H922 N917 0.984 . S
H923 N917 0.985 . S
H924 N921 0.984 . S
H925 N921 0.985 . S
H926 N920 0.984 . S
H927 N920 0.984 . S
H928 N916 0.984 . S
H929 N916 0.985 . S
C930 C931 1.363 . S
C930 C936 1.379 . S
C930 N938 1.356 . S
C931 C930 1.363 . S
C931 C937 1.363 . S
C932 C933 1.363 . S
C932 C937 1.379 . S
C932 N939 1.356 . S
C933 C932 1.363 . S
C933 C936 1.363 . S
N934 C936 1.356 . S
N934 H946 0.984 . S
N934 H947 0.985 . S
N935 C937 1.356 1_565 S
N935 H940 0.984 . S
N935 H941 0.985 . S
C936 C930 1.379 . S
C936 C933 1.363 . S
C936 N934 1.356 . S
C937 C931 1.363 . S
C937 C932 1.379 . S
C937 N935 1.356 1_545 S
N938 C930 1.356 . S
N938 H944 0.984 . S
N938 H945 0.984 1_545 S
N939 C932 1.356 . S
N939 H942 0.984 . S
N939 H943 0.985 . S
H940 N935 0.984 . S
H941 N935 0.985 . S
H942 N939 0.984 . S
H943 N939 0.985 . S
H944 N938 0.984 . S
H945 N938 0.984 1_565 S
H946 N934 0.984 . S
H947 N934 0.985 . S
C948 C949 1.363 . S
C948 C954 1.379 . S
C948 N956 1.356 . S
C949 C948 1.363 . S
C949 C955 1.363 . S
C950 C951 1.363 . S
C950 C955 1.379 . S
C950 N957 1.356 . S
C951 C950 1.363 . S
C951 C954 1.363 . S
N952 C954 1.356 . S
N952 H964 0.984 . S
N952 H965 0.985 . S
N953 C955 1.356 1_545 S
N953 H958 0.984 . S
N953 H959 0.985 . S
C954 C948 1.379 . S
C954 C951 1.363 . S
C954 N952 1.356 . S
C955 C949 1.363 . S
C955 C950 1.379 . S
C955 N953 1.356 1_565 S
N956 C948 1.356 . S
N956 H962 0.984 . S
N956 H963 0.984 1_565 S
N957 C950 1.356 . S
N957 H960 0.984 . S
N957 H961 0.985 . S
H958 N953 0.984 . S
H959 N953 0.985 . S
H960 N957 0.984 . S
H961 N957 0.985 . S
H962 N956 0.984 . S
H963 N956 0.984 1_545 S
H964 N952 0.984 . S
H965 N952 0.985 . S
C966 C967 1.363 . S
C966 C972 1.379 . S
C966 N974 1.356 . S
C967 C966 1.363 . S
C967 C973 1.363 . S
C968 C969 1.363 . S
C968 C973 1.379 . S
C968 N975 1.356 . S
C969 C968 1.363 . S
C969 C972 1.363 . S
N970 C972 1.356 . S
N970 H982 0.984 . S
N970 H983 0.985 . S
N971 C973 1.356 . S
N971 H976 0.984 . S
N971 H977 0.985 . S
C972 C966 1.379 . S
C972 C969 1.363 . S
C972 N970 1.356 . S
C973 C967 1.363 . S
C973 C968 1.379 . S
C973 N971 1.356 . S
N974 C966 1.356 . S
N974 H980 0.984 . S
N974 H981 0.984 . S
N975 C968 1.356 . S
N975 H978 0.984 . S
N975 H979 0.985 . S
H976 N971 0.984 . S
H977 N971 0.985 . S
H978 N975 0.984 . S
H979 N975 0.985 . S
H980 N974 0.984 . S
H981 N974 0.984 . S
H982 N970 0.984 . S
H983 N970 0.985 . S
C984 C985 1.363 . S
C984 C990 1.379 . S
C984 N992 1.356 . S
C985 C984 1.363 . S
C985 C991 1.363 . S
C986 C987 1.363 . S
C986 C991 1.379 . S
C986 N993 1.356 . S
C987 C986 1.363 . S
C987 C990 1.363 . S
N988 C990 1.356 . S
N988 H1000 0.984 . S
N988 H1001 0.985 . S
N989 C991 1.356 . S
N989 H994 0.984 . S
N989 H995 0.985 . S
C990 C984 1.379 . S
C990 C987 1.363 . S
C990 N988 1.356 . S
C991 C985 1.363 . S
C991 C986 1.379 . S
C991 N989 1.356 . S
N992 C984 1.356 . S
N992 H998 0.984 . S
N992 H999 0.984 . S
N993 C986 1.356 . S
N993 H996 0.984 . S
N993 H997 0.985 . S
H994 N989 0.984 . S
H995 N989 0.985 . S
H996 N993 0.984 . S
H997 N993 0.985 . S
H998 N992 0.984 . S
H999 N992 0.984 . S
H1000 N988 0.984 . S
H1001 N988 0.985 . S
C1002 C1003 1.363 . S
C1002 C1008 1.379 . S
C1002 N1010 1.356 . S
C1003 C1002 1.363 . S
C1003 C1009 1.363 . S
C1004 C1005 1.363 . S
C1004 C1009 1.379 . S
C1004 N1011 1.356 . S
C1005 C1004 1.363 . S
C1005 C1008 1.363 . S
N1006 C1008 1.356 . S
N1006 H1018 0.984 . S
N1006 H1019 0.985 . S
N1007 C1009 1.356 1_556 S
N1007 H1012 0.984 . S
N1007 H1013 0.985 1_556 S
C1008 C1002 1.379 . S
C1008 C1005 1.363 . S
C1008 N1006 1.356 . S
C1009 C1003 1.363 . S
C1009 C1004 1.379 . S
C1009 N1007 1.356 1_554 S
N1010 C1002 1.356 . S
N1010 H1016 0.984 . S
N1010 H1017 0.984 1_554 S
N1011 C1004 1.356 . S
N1011 H1014 0.984 . S
N1011 H1015 0.985 . S
H1012 N1007 0.984 . S
H1013 N1007 0.985 1_554 S
H1014 N1011 0.984 . S
H1015 N1011 0.985 . S
H1016 N1010 0.984 . S
H1017 N1010 0.984 1_556 S
H1018 N1006 0.984 . S
H1019 N1006 0.985 . S
C1020 C1021 1.363 . S
C1020 C1026 1.379 . S
C1020 N1028 1.356 . S
C1021 C1020 1.363 . S
C1021 C1027 1.363 . S
C1022 C1023 1.363 . S
C1022 C1027 1.379 . S
C1022 N1029 1.356 . S
C1023 C1022 1.363 . S
C1023 C1026 1.363 . S
N1024 C1026 1.356 . S
N1024 H1036 0.984 . S
N1024 H1037 0.985 . S
N1025 C1027 1.356 . S
N1025 H1030 0.984 . S
N1025 H1031 0.985 . S
C1026 C1020 1.379 . S
C1026 C1023 1.363 . S
C1026 N1024 1.356 . S
C1027 C1021 1.363 . S
C1027 C1022 1.379 . S
C1027 N1025 1.356 . S
N1028 C1020 1.356 . S
N1028 H1034 0.984 . S
N1028 H1035 0.984 . S
N1029 C1022 1.356 . S
N1029 H1032 0.984 . S
N1029 H1033 0.985 . S
H1030 N1025 0.984 . S
H1031 N1025 0.985 . S
H1032 N1029 0.984 . S
H1033 N1029 0.985 . S
H1034 N1028 0.984 . S
H1035 N1028 0.984 . S
H1036 N1024 0.984 . S
H1037 N1024 0.985 . S
C1038 C1039 1.363 . S
C1038 C1044 1.379 . S
C1038 N1046 1.356 . S
C1039 C1038 1.363 . S
C1039 C1045 1.363 . S
C1040 C1041 1.363 . S
C1040 C1045 1.379 . S
C1040 N1047 1.356 . S
C1041 C1040 1.363 . S
C1041 C1044 1.363 . S
N1042 C1044 1.356 . S
N1042 H1054 0.984 . S
N1042 H1055 0.985 . S
N1043 C1045 1.356 1_554 S
N1043 H1048 0.984 . S
N1043 H1049 0.985 . S
C1044 C1038 1.379 . S
C1044 C1041 1.363 . S
C1044 N1042 1.356 . S
C1045 C1039 1.363 . S
C1045 C1040 1.379 . S
C1045 N1043 1.356 1_556 S
N1046 C1038 1.356 . S
N1046 H1052 0.984 . S
N1046 H1053 0.984 1_556 S
N1047 C1040 1.356 . S
N1047 H1050 0.984 . S
N1047 H1051 0.985 . S
H1048 N1043 0.984 . S
H1049 N1043 0.985 . S
H1050 N1047 0.984 . S
H1051 N1047 0.985 . S
H1052 N1046 0.984 . S
H1053 N1046 0.984 1_554 S
H1054 N1042 0.984 . S
H1055 N1042 0.985 . S
C1056 C1057 1.363 . S
C1056 C1062 1.379 . S
C1056 N1064 1.356 . S
C1057 C1056 1.363 . S
C1057 C1063 1.363 . S
C1058 C1059 1.363 . S
C1058 C1063 1.379 . S
C1058 N1065 1.356 . S
C1059 C1058 1.363 . S
C1059 C1062 1.363 . S
N1060 C1062 1.356 . S
N1060 H1072 0.984 . S
N1060 H1073 0.985 . S
N1061 C1063 1.356 . S
N1061 H1066 0.984 . S
N1061 H1067 0.985 . S
C1062 C1056 1.379 . S
C1062 C1059 1.363 . S
C1062 N1060 1.356 . S
C1063 C1057 1.363 . S
C1063 C1058 1.379 . S
C1063 N1061 1.356 . S
N1064 C1056 1.356 . S
N1064 H1070 0.984 . S
N1064 H1071 0.984 . S
N1065 C1058 1.356 . S
N1065 H1068 0.984 . S
N1065 H1069 0.985 . S
H1066 N1061 0.984 . S
H1067 N1061 0.985 . S
H1068 N1065 0.984 . S
H1069 N1065 0.985 . S
H1070 N1064 0.984 . S
H1071 N1064 0.984 . S
H1072 N1060 0.984 . S
H1073 N1060 0.985 . S
C1074 C1075 1.363 . S
C1074 C1080 1.379 . S
C1074 N1082 1.356 . S
C1075 C1074 1.363 . S
C1075 C1081 1.363 . S
C1076 C1077 1.363 . S
C1076 C1081 1.379 . S
C1076 N1083 1.356 1_655 S
C1077 C1076 1.363 . S
C1077 C1080 1.363 . S
N1078 C1080 1.356 . S
N1078 H1090 0.984 . S
N1078 H1091 0.985 1_655 S
N1079 C1081 1.356 . S
N1079 H1084 0.984 . S
N1079 H1085 0.985 . S
C1080 C1074 1.379 . S
C1080 C1077 1.363 . S
C1080 N1078 1.356 . S
C1081 C1075 1.363 . S
C1081 C1076 1.379 . S
C1081 N1079 1.356 . S
N1082 C1074 1.356 . S
N1082 H1088 0.984 . S
N1082 H1089 0.984 . S
N1083 C1076 1.356 1_455 S
N1083 H1086 0.984 . S
N1083 H1087 0.985 . S
H1084 N1079 0.984 . S
H1085 N1079 0.985 . S
H1086 N1083 0.984 . S
H1087 N1083 0.985 . S
H1088 N1082 0.984 . S
H1089 N1082 0.984 . S
H1090 N1078 0.984 . S
H1091 N1078 0.985 1_455 S
C1092 C1093 1.363 . S
C1092 C1098 1.379 . S
C1092 N1100 1.356 . S
C1093 C1092 1.363 . S
C1093 C1099 1.363 . S
C1094 C1095 1.363 . S
C1094 C1099 1.379 . S
C1094 N1101 1.356 1_455 S
C1095 C1094 1.363 . S
C1095 C1098 1.363 . S
N1096 C1098 1.356 . S
N1096 H1108 0.984 . S
N1096 H1109 0.985 1_455 S
N1097 C1099 1.356 . S
N1097 H1102 0.984 . S
N1097 H1103 0.985 . S
C1098 C1092 1.379 . S
C1098 C1095 1.363 . S
C1098 N1096 1.356 . S
C1099 C1093 1.363 . S
C1099 C1094 1.379 . S
C1099 N1097 1.356 . S
N1100 C1092 1.356 . S
N1100 H1106 0.984 . S
N1100 H1107 0.984 . S
N1101 C1094 1.356 1_655 S
N1101 H1104 0.984 . S
N1101 H1105 0.985 . S
H1102 N1097 0.984 . S
H1103 N1097 0.985 . S
H1104 N1101 0.984 . S
H1105 N1101 0.985 . S
H1106 N1100 0.984 . S
H1107 N1100 0.984 . S
H1108 N1096 0.984 . S
H1109 N1096 0.985 1_655 S
C1110 C1111 1.363 . S
C1110 C1116 1.379 . S
C1110 N1118 1.356 . S
C1111 C1110 1.363 . S
C1111 C1117 1.363 . S
C1112 C1113 1.363 . S
C1112 C1117 1.379 . S
C1112 N1119 1.356 . S
C1113 C1112 1.363 . S
C1113 C1116 1.363 . S
N1114 C1116 1.356 . S
N1114 H1126 0.984 . S
N1114 H1127 0.985 . S
N1115 C1117 1.356 . S
N1115 H1120 0.984 . S
N1115 H1121 0.985 . S
C1116 C1110 1.379 . S
C1116 C1113 1.363 . S
C1116 N1114 1.356 . S
C1117 C1111 1.363 . S
C1117 C1112 1.379 . S
C1117 N1115 1.356 . S
N1118 C1110 1.356 . S
N1118 H1124 0.984 . S
N1118 H1125 0.984 . S
N1119 C1112 1.356 . S
N1119 H1122 0.984 . S
N1119 H1123 0.985 . S
H1120 N1115 0.984 . S
H1121 N1115 0.985 . S
H1122 N1119 0.984 . S
H1123 N1119 0.985 . S
H1124 N1118 0.984 . S
H1125 N1118 0.984 . S
H1126 N1114 0.984 . S
H1127 N1114 0.985 . S
C1128 C1129 1.363 . S
C1128 C1134 1.379 . S
C1128 N1136 1.356 . S
C1129 C1128 1.363 . S
C1129 C1135 1.363 . S
C1130 C1131 1.363 . S
C1130 C1135 1.379 . S
C1130 N1137 1.356 . S
C1131 C1130 1.363 . S
C1131 C1134 1.363 . S
N1132 C1134 1.356 . S
N1132 H1144 0.984 . S
N1132 H1145 0.985 . S
N1133 C1135 1.356 . S
N1133 H1138 0.984 . S
N1133 H1139 0.985 . S
C1134 C1128 1.379 . S
C1134 C1131 1.363 . S
C1134 N1132 1.356 . S
C1135 C1129 1.363 . S
C1135 C1130 1.379 . S
C1135 N1133 1.356 . S
N1136 C1128 1.356 . S
N1136 H1142 0.984 . S
N1136 H1143 0.984 . S
N1137 C1130 1.356 . S
N1137 H1140 0.984 . S
N1137 H1141 0.985 . S
H1138 N1133 0.984 . S
H1139 N1133 0.985 . S
H1140 N1137 0.984 . S
H1141 N1137 0.985 . S
H1142 N1136 0.984 . S
H1143 N1136 0.984 . S
H1144 N1132 0.984 . S
H1145 N1132 0.985 . S
C1146 C1147 1.363 . S
C1146 C1152 1.379 . S
C1146 N1154 1.356 . S
C1147 C1146 1.363 . S
C1147 C1153 1.363 . S
C1148 C1149 1.363 . S
C1148 C1153 1.379 . S
C1148 N1155 1.356 . S
C1149 C1148 1.363 . S
C1149 C1152 1.363 . S
N1150 C1152 1.356 1_545 S
N1150 H1162 0.984 . S
N1150 H1163 0.985 . S
N1151 C1153 1.356 . S
N1151 H1156 0.984 . S
N1151 H1157 0.985 . S
C1152 C1146 1.379 . S
C1152 C1149 1.363 . S
C1152 N1150 1.356 1_565 S
C1153 C1147 1.363 . S
C1153 C1148 1.379 . S
C1153 N1151 1.356 . S
N1154 C1146 1.356 . S
N1154 H1160 0.984 . S
N1154 H1161 0.984 . S
N1155 C1148 1.356 . S
N1155 H1158 0.984 1_565 S
N1155 H1159 0.985 . S
H1156 N1151 0.984 . S
H1157 N1151 0.985 . S
H1158 N1155 0.984 1_545 S
H1159 N1155 0.985 . S
H1160 N1154 0.984 . S
H1161 N1154 0.984 . S
H1162 N1150 0.984 . S
H1163 N1150 0.985 . S
C1164 C1165 1.363 . S
C1164 C1170 1.379 . S
C1164 N1172 1.356 . S
C1165 C1164 1.363 . S
C1165 C1171 1.363 . S
C1166 C1167 1.363 . S
C1166 C1171 1.379 . S
C1166 N1173 1.356 . S
C1167 C1166 1.363 . S
C1167 C1170 1.363 . S
N1168 C1170 1.356 . S
N1168 H1180 0.984 . S
N1168 H1181 0.985 . S
N1169 C1171 1.356 1_565 S
N1169 H1174 0.984 . S
N1169 H1175 0.985 . S
C1170 C1164 1.379 . S
C1170 C1167 1.363 . S
C1170 N1168 1.356 . S
C1171 C1165 1.363 . S
C1171 C1166 1.379 . S
C1171 N1169 1.356 1_545 S
N1172 C1164 1.356 . S
N1172 H1178 0.984 . S
N1172 H1179 0.984 1_545 S
N1173 C1166 1.356 . S
N1173 H1176 0.984 . S
N1173 H1177 0.985 . S
H1174 N1169 0.984 . S
H1175 N1169 0.985 . S
H1176 N1173 0.984 . S
H1177 N1173 0.985 . S
H1178 N1172 0.984 . S
H1179 N1172 0.984 1_565 S
H1180 N1168 0.984 . S
H1181 N1168 0.985 . S
C1182 C1183 1.363 . S
C1182 C1188 1.379 . S
C1182 N1190 1.356 . S
C1183 C1182 1.363 . S
C1183 C1189 1.363 . S
C1184 C1185 1.363 . S
C1184 C1189 1.379 . S
C1184 N1191 1.356 . S
C1185 C1184 1.363 . S
C1185 C1188 1.363 . S
N1186 C1188 1.356 . S
N1186 H1198 0.984 . S
N1186 H1199 0.985 . S
N1187 C1189 1.356 . S
N1187 H1192 0.984 . S
N1187 H1193 0.985 . S
C1188 C1182 1.379 . S
C1188 C1185 1.363 . S
C1188 N1186 1.356 . S
C1189 C1183 1.363 . S
C1189 C1184 1.379 . S
C1189 N1187 1.356 . S
N1190 C1182 1.356 . S
N1190 H1196 0.984 . S
N1190 H1197 0.984 . S
N1191 C1184 1.356 . S
N1191 H1194 0.984 . S
N1191 H1195 0.985 . S
H1192 N1187 0.984 . S
H1193 N1187 0.985 . S
H1194 N1191 0.984 . S
H1195 N1191 0.985 . S
H1196 N1190 0.984 . S
H1197 N1190 0.984 . S
H1198 N1186 0.984 . S
H1199 N1186 0.985 . S
C337 C120 1.151 . S
C339 C7 1.197 . S
C355 C21 1.197 . S
C357 C162 1.151 . S
C373 C35 1.197 . S
C375 C134 1.151 . S
C391 C49 1.197 . S
C393 C148 1.151 . S
C409 C63 1.197 . S
C411 C8 1.141 . S
C427 C22 1.141 . S
C429 C77 1.197 . S
C445 C91 1.197 . S
C447 C36 1.141 . S
C463 C50 1.141 . S
C465 C105 1.197 . S
C481 C64 1.207 . S
C483 C119 1.251 . S
C499 C92 1.207 . S
C501 C133 1.251 . S
C517 C147 1.251 . S
C519 C106 1.207 . S
C535 C78 1.207 . S
C537 C161 1.251 . S
C553 C288 1.133 . S
C555 C175 1.203 . S
C571 C189 1.203 . S
C573 C330 1.133 . S
C589 C203 1.203 . S
C591 C302 1.133 . S
C607 C316 1.133 . S
C609 C217 1.203 . S
C625 C232 1.183 . S
C627 C176 1.201 . S
C643 C190 1.201 . S
C645 C246 1.183 . S
C661 C204 1.201 . S
C663 C260 1.183 . S
C679 C274 1.183 . S
C681 C218 1.201 . S
C697 C287 1.156 . S
C699 C231 1.209 . S
C715 C259 1.209 . S
C717 C301 1.156 . S
C733 C273 1.209 . S
C735 C315 1.156 . S
C751 C329 1.156 . S
C753 C245 1.209 . S
C769 C319 1.377 . S
C771 C13 1.321 . S
C787 C305 1.377 1_556 S
C789 C27 1.321 . S
C805 C333 1.377 . S
C807 C41 1.321 . S
C823 C55 1.321 . S
C825 C291 1.377 1_554 S
C841 C69 1.372 . S
C843 C193 1.424 . S
C859 C179 1.424 1_455 S
C861 C83 1.372 . S
C877 C221 1.424 1_655 S
C879 C97 1.372 . S
C895 C207 1.424 . S
C897 C111 1.372 . S
C913 C125 1.380 . S
C915 C265 1.342 . S
C931 C237 1.342 1_545 S
C933 C139 1.380 . S
C949 C251 1.342 1_565 S
C951 C153 1.380 . S
C967 C279 1.342 . S
C969 C167 1.380 . S
C985 C151 1.448 . S
C987 C181 1.372 . S
C1003 C137 1.448 1_554 S
C1005 C195 1.372 . S
C1021 C209 1.372 . S
C1023 C165 1.448 . S
C1039 C123 1.448 1_556 S
C1041 C223 1.372 . S
C1057 C235 1.395 . S
C1059 C25 1.432 . S
C1075 C249 1.395 . S
C1077 C11 1.432 1_655 S
C1093 C263 1.395 . S
C1095 C53 1.432 1_455 S
C1111 C277 1.395 . S
C1113 C39 1.432 . S
C1129 C293 1.317 . S
C1131 C95 1.382 . S
C1147 C307 1.317 . S
C1149 C67 1.382 1_565 S
C1165 C81 1.382 1_545 S
C1167 C321 1.317 . S
C1183 C335 1.317 . S
C1185 C109 1.382 . S
