# Generated by pormake.
# Topology whw, (6)-cn, num edge types: 1
# Building blocks:
#     Node 0, Type 0, BuildingBlock: BETFAJ_clean_sbu_0, # of connection points: 6
#     Node 1, Type 0, BuildingBlock: BETFAJ_clean_sbu_0, # of connection points: 6
#     Node 2, Type 0, BuildingBlock: BETFAJ_clean_sbu_0, # of connection points: 6
#     Node 3, Type 0, BuildingBlock: BETFAJ_clean_sbu_0, # of connection points: 6
#     Node 4, Type 0, BuildingBlock: BETFAJ_clean_sbu_0, # of connection points: 6
#     Node 5, Type 0, BuildingBlock: BETFAJ_clean_sbu_0, # of connection points: 6
#     Node 6, Type 0, BuildingBlock: BETFAJ_clean_sbu_0, # of connection points: 6
#     Node 7, Type 0, BuildingBlock: BETFAJ_clean_sbu_0, # of connection points: 6
#     Node 8, Type 0, BuildingBlock: BETFAJ_clean_sbu_0, # of connection points: 6
#     Node 9, Type 0, BuildingBlock: BETFAJ_clean_sbu_0, # of connection points: 6
#     Node 10, Type 0, BuildingBlock: BETFAJ_clean_sbu_0, # of connection points: 6
#     Node 11, Type 0, BuildingBlock: BETFAJ_clean_sbu_0, # of connection points: 6
#     Node 12, Type 0, BuildingBlock: BETFAJ_clean_sbu_0, # of connection points: 6
#     Node 13, Type 0, BuildingBlock: BETFAJ_clean_sbu_0, # of connection points: 6
#     Node 14, Type 0, BuildingBlock: BETFAJ_clean_sbu_0, # of connection points: 6
#     Node 15, Type 0, BuildingBlock: BETFAJ_clean_sbu_0, # of connection points: 6
#     Edge 16, Type (0, 0), BuildingBlock: TEMPAE_clean_linker_10, # of connection points: 2
#     Edge 17, Type (0, 0), BuildingBlock: TEMPAE_clean_linker_10, # of connection points: 2
#     Edge 18, Type (0, 0), BuildingBlock: TEMPAE_clean_linker_10, # of connection points: 2
#     Edge 19, Type (0, 0), BuildingBlock: TEMPAE_clean_linker_10, # of connection points: 2
#     Edge 20, Type (0, 0), BuildingBlock: TEMPAE_clean_linker_10, # of connection points: 2
#     Edge 21, Type (0, 0), BuildingBlock: TEMPAE_clean_linker_10, # of connection points: 2
#     Edge 22, Type (0, 0), BuildingBlock: TEMPAE_clean_linker_10, # of connection points: 2
#     Edge 23, Type (0, 0), BuildingBlock: TEMPAE_clean_linker_10, # of connection points: 2
#     Edge 24, Type (0, 0), BuildingBlock: TEMPAE_clean_linker_10, # of connection points: 2
#     Edge 25, Type (0, 0), BuildingBlock: TEMPAE_clean_linker_10, # of connection points: 2
#     Edge 26, Type (0, 0), BuildingBlock: TEMPAE_clean_linker_10, # of connection points: 2
#     Edge 27, Type (0, 0), BuildingBlock: TEMPAE_clean_linker_10, # of connection points: 2
#     Edge 28, Type (0, 0), BuildingBlock: TEMPAE_clean_linker_10, # of connection points: 2
#     Edge 29, Type (0, 0), BuildingBlock: TEMPAE_clean_linker_10, # of connection points: 2
#     Edge 30, Type (0, 0), BuildingBlock: TEMPAE_clean_linker_10, # of connection points: 2
#     Edge 31, Type (0, 0), BuildingBlock: TEMPAE_clean_linker_10, # of connection points: 2
#     Edge 32, Type (0, 0), BuildingBlock: TEMPAE_clean_linker_10, # of connection points: 2
#     Edge 33, Type (0, 0), BuildingBlock: TEMPAE_clean_linker_10, # of connection points: 2
#     Edge 34, Type (0, 0), BuildingBlock: TEMPAE_clean_linker_10, # of connection points: 2
#     Edge 35, Type (0, 0), BuildingBlock: TEMPAE_clean_linker_10, # of connection points: 2
#     Edge 36, Type (0, 0), BuildingBlock: TEMPAE_clean_linker_10, # of connection points: 2
#     Edge 37, Type (0, 0), BuildingBlock: TEMPAE_clean_linker_10, # of connection points: 2
#     Edge 38, Type (0, 0), BuildingBlock: TEMPAE_clean_linker_10, # of connection points: 2
#     Edge 39, Type (0, 0), BuildingBlock: TEMPAE_clean_linker_10, # of connection points: 2
#     Edge 40, Type (0, 0), BuildingBlock: TEMPAE_clean_linker_10, # of connection points: 2
#     Edge 41, Type (0, 0), BuildingBlock: TEMPAE_clean_linker_10, # of connection points: 2
#     Edge 42, Type (0, 0), BuildingBlock: TEMPAE_clean_linker_10, # of connection points: 2
#     Edge 43, Type (0, 0), BuildingBlock: TEMPAE_clean_linker_10, # of connection points: 2
#     Edge 44, Type (0, 0), BuildingBlock: TEMPAE_clean_linker_10, # of connection points: 2
#     Edge 45, Type (0, 0), BuildingBlock: TEMPAE_clean_linker_10, # of connection points: 2
#     Edge 46, Type (0, 0), BuildingBlock: TEMPAE_clean_linker_10, # of connection points: 2
#     Edge 47, Type (0, 0), BuildingBlock: TEMPAE_clean_linker_10, # of connection points: 2
#     Edge 48, Type (0, 0), BuildingBlock: TEMPAE_clean_linker_10, # of connection points: 2
#     Edge 49, Type (0, 0), BuildingBlock: TEMPAE_clean_linker_10, # of connection points: 2
#     Edge 50, Type (0, 0), BuildingBlock: TEMPAE_clean_linker_10, # of connection points: 2
#     Edge 51, Type (0, 0), BuildingBlock: TEMPAE_clean_linker_10, # of connection points: 2
#     Edge 52, Type (0, 0), BuildingBlock: TEMPAE_clean_linker_10, # of connection points: 2
#     Edge 53, Type (0, 0), BuildingBlock: TEMPAE_clean_linker_10, # of connection points: 2
#     Edge 54, Type (0, 0), BuildingBlock: TEMPAE_clean_linker_10, # of connection points: 2
#     Edge 55, Type (0, 0), BuildingBlock: TEMPAE_clean_linker_10, # of connection points: 2
#     Edge 56, Type (0, 0), BuildingBlock: TEMPAE_clean_linker_10, # of connection points: 2
#     Edge 57, Type (0, 0), BuildingBlock: TEMPAE_clean_linker_10, # of connection points: 2
#     Edge 58, Type (0, 0), BuildingBlock: TEMPAE_clean_linker_10, # of connection points: 2
#     Edge 59, Type (0, 0), BuildingBlock: TEMPAE_clean_linker_10, # of connection points: 2
#     Edge 60, Type (0, 0), BuildingBlock: TEMPAE_clean_linker_10, # of connection points: 2
#     Edge 61, Type (0, 0), BuildingBlock: TEMPAE_clean_linker_10, # of connection points: 2
#     Edge 62, Type (0, 0), BuildingBlock: TEMPAE_clean_linker_10, # of connection points: 2
#     Edge 63, Type (0, 0), BuildingBlock: TEMPAE_clean_linker_10, # of connection points: 2
# Relax obj value: 0.348
# Max RMSD: 0.237
# Mean RMSD: 0.208
data_MOF--net-whw--node1-BETFAJ_clean_sbu_0--edge1-TEMPAE_clean_linker_10
_symmetry_space_group_name_H-M    P1
_symmetry_Int_Tables_number       1
_symmetry_cell_setting            triclinic
loop_
_symmetry_equiv_pos_as_xyz
'x, y, z'
_cell_length_a     46.890212
_cell_length_b     46.85613
_cell_length_c     35.120691
_cell_angle_alpha  89.882014
_cell_angle_beta   96.069413
_cell_angle_gamma 93.791655
loop_
_atom_site_label
_atom_site_type_symbol
_atom_site_fract_x
_atom_site_fract_y
_atom_site_fract_z
_atom_type_partial_charge
Sm0 Sm 0.03987 0.13607 0.14653 0.0
Sm1 Sm 0.97632 0.12308 0.16352 0.0
C2 C 0.09362 0.12858 0.13574 0.0
C3 C 0.10792 0.12322 0.10155 0.0
C4 C 0.09907 0.09936 0.07795 0.0
C5 C 0.10818 0.09775 0.04165 0.0
C6 C 0.1263 0.11982 1.02872 0.0
C7 C 0.13696 0.14247 0.05327 0.0
C8 C 0.12782 0.14414 0.08961 0.0
C9 C 0.01077 0.18195 0.16336 0.0
C10 C 0.98847 0.14952 0.07829 0.0
C11 C 0.92512 0.11268 0.18647 0.0
C12 C 0.91062 0.11767 0.22019 0.0
C13 C 0.92335 0.1368 0.24848 0.0
C14 C 0.91043 0.14025 0.28183 0.0
C15 C 0.88496 0.12411 0.28758 0.0
C16 C 0.87213 0.105 0.25914 0.0
C17 C 0.88485 0.10196 0.22534 0.0
C18 C -0.00136 0.08254 0.12143 0.0
C19 C 0.02903 0.13579 0.23887 0.0
O20 O 0.07587 0.10794 0.14609 0.0
O21 O 0.08358 0.1539 0.1376 0.0
O22 O 0.00892 0.15752 0.17677 0.0
O23 O 0.03181 0.18442 0.14179 0.0
O24 O 0.01541 0.1418 0.0856 0.0
O25 O 0.97041 0.14811 0.10536 0.0
O26 O 0.93205 0.13557 0.16684 0.0
O27 O 0.94541 0.09457 0.19124 0.0
O28 O 0.01185 0.09546 0.1501 0.0
O29 O 0.97272 0.09025 0.11515 0.0
O30 O 0.00084 0.13141 0.22688 0.0
O31 O 0.04811 0.13663 0.21339 0.0
H32 H 0.0838 0.0828 0.08641 0.0
H33 H 0.0998 0.08015 1.02285 0.0
H34 H 0.15068 0.15985 0.04336 0.0
H35 H 0.13481 0.1627 0.10737 0.0
H36 H 0.9437 0.14834 0.24531 0.0
H37 H 0.92111 0.15446 0.30398 0.0
H38 H 0.85273 0.09207 0.26347 0.0
H39 H 0.87508 0.08682 0.20375 0.0
Sm40 Sm 0.15542 0.78156 0.43893 0.0
Sm41 Sm 0.15871 0.72533 0.39418 0.0
C42 C 0.14892 0.82357 0.48679 0.0
C43 C 0.14464 0.8294 0.52677 0.0
C44 C 0.12995 0.80952 0.54891 0.0
C45 C 0.12497 0.81661 0.58627 0.0
C46 C 0.13462 0.84365 0.60186 0.0
C47 C 0.15017 0.86295 0.57987 0.0
C48 C 0.15506 0.85589 0.54268 0.0
C49 C 0.2048 0.77603 0.4051 0.0
C50 C 0.16779 0.72092 0.4846 0.0
C51 C 0.16855 0.68734 0.34246 0.0
C52 C 0.15795 0.68206 0.30169 0.0
C53 C 0.17625 0.68796 0.27306 0.0
C54 C 0.16648 0.68288 0.23447 0.0
C55 C 0.1381 0.67205 0.22385 0.0
C56 C 0.11968 0.66652 0.25238 0.0
C57 C 0.1295 0.67134 0.2909 0.0
C58 C 0.10841 0.73067 0.42526 0.0
C59 C 0.13669 0.78393 0.34836 0.0
O60 O 0.12747 0.81049 0.46532 0.0
O61 O 0.17404 0.81509 0.48055 0.0
O62 O 0.19213 0.75663 0.42318 0.0
O63 O 0.1917 0.79955 0.405 0.0
O64 O 0.15659 0.74609 0.48481 0.0
O65 O 0.17598 0.70988 0.45329 0.0
O66 O 0.18537 0.71049 0.35024 0.0
O67 O 0.15001 0.68246 0.36745 0.0
O68 O 0.12224 0.75038 0.40931 0.0
O69 O 0.11914 0.70617 0.42117 0.0
O70 O 0.14686 0.7583 0.34669 0.0
O71 O 0.13438 0.79669 0.38129 0.0
H72 H 0.12189 0.78883 0.5371 0.0
H73 H 0.11274 0.80136 0.60241 0.0
H74 H 0.15828 0.88374 0.59126 0.0
H75 H 0.16662 0.87138 0.52606 0.0
H76 H 0.19813 0.69644 0.28058 0.0
H77 H 0.18104 0.68745 0.21293 0.0
H78 H 0.09781 0.65784 0.24494 0.0
H79 H 0.11476 0.66653 0.31214 0.0
Sm80 Sm 0.49528 0.87882 0.69526 0.0
Sm81 Sm 0.52207 0.86311 0.61025 0.0
C82 C 0.477 0.87144 0.76529 0.0
C83 C 0.46704 0.86727 0.8052 0.0
C84 C 0.48699 0.86537 0.83804 0.0
C85 C 0.4782 0.8572 0.87423 0.0
C86 C 0.44893 0.85056 0.87958 0.0
C87 C 0.42891 0.85334 0.8468 0.0
C88 C 0.43775 0.86141 0.81055 0.0
C89 C 0.51221 0.92429 0.65194 0.0
C90 C 0.56273 0.85936 0.68956 0.0
C91 C 0.53427 0.85543 0.53717 0.0
C92 C 0.54493 0.8435 0.50067 0.0
C93 C 0.55593 0.86192 0.47298 0.0
C94 C 0.56314 0.8516 0.43725 0.0
C95 C 0.55996 0.82209 0.42701 0.0
C96 C 0.5493 0.80367 0.45531 0.0
C97 C 0.54185 0.81408 0.49089 0.0
C98 C 0.50181 0.82026 0.65551 0.0
C99 C 0.45547 0.88248 0.61489 0.0
O100 O 0.5027 0.8825 0.75971 0.0
O101 O 0.46047 0.86577 0.73331 0.0
O102 O 0.52294 0.90016 0.65314 0.0
O103 O 0.49512 0.92644 0.67883 0.0
O104 O 0.53934 0.85978 0.70788 0.0
O105 O 0.56321 0.86439 0.65234 0.0
O106 O 0.549 0.87423 0.56068 0.0
O107 O 0.51367 0.8413 0.5532 0.0
O108 O 0.49271 0.84443 0.65116 0.0
O109 O 0.521 0.81605 0.63234 0.0
O110 O 0.47889 0.88419 0.59633 0.0
O111 O 0.45557 0.8759 0.65164 0.0
H112 H 0.50974 0.86928 0.83557 0.0
H113 H 0.49465 0.85603 0.89812 0.0
H114 H 0.40625 0.84833 0.84866 0.0
H115 H 0.42155 0.86214 0.78626 0.0
H116 H 0.55832 0.88473 0.47854 0.0
H117 H 0.5706 0.86725 0.41729 0.0
H118 H 0.54667 0.78085 0.45035 0.0
H119 H 0.53335 0.79888 0.51077 0.0
Sm120 Sm 0.35528 0.20257 0.9021 0.0
Sm121 Sm 0.35797 0.25945 0.86051 0.0
C122 C 0.35898 0.16086 0.95283 0.0
C123 C 0.36921 0.15699 0.99356 0.0
C124 C 0.39609 0.16892 1.00965 0.0
C125 C 0.40597 0.16327 0.04777 0.0
C126 C 0.3891 0.14573 0.0705 0.0
C127 C 0.36172 0.13493 0.05463 0.0
C128 C 0.35196 0.14041 1.01654 0.0
C129 C 0.30754 0.20999 0.85195 0.0
C130 C 0.35116 0.26312 0.94911 0.0
C131 C 0.35426 0.30112 0.80936 0.0
C132 C 0.3645 0.30685 0.77155 0.0
C133 C 0.36072 0.28625 0.74207 0.0
C134 C 0.37169 0.29193 0.70705 0.0
C135 C 0.38679 0.31825 0.70088 0.0
C136 C 0.39057 0.33868 0.73063 0.0
C137 C 0.37945 0.33307 0.76545 0.0
C138 C 0.40712 0.2483 0.90583 0.0
C139 C 0.3762 0.20056 0.81815 0.0
O140 O 0.37847 0.16693 0.92941 0.0
O141 O 0.33592 0.17506 0.94552 0.0
O142 O 0.32027 0.22971 0.87352 0.0
O143 O 0.31852 0.18567 0.85911 0.0
O144 O 0.35925 0.23668 0.94967 0.0
O145 O 0.34338 0.27589 0.91641 0.0
O146 O 0.33409 0.2807 0.81146 0.0
O147 O 0.37415 0.30123 0.83831 0.0
O148 O 0.39198 0.23061 0.88424 0.0
O149 O 0.39783 0.27371 0.90203 0.0
O150 O 0.36913 0.22742 0.81498 0.0
O151 O 0.37529 0.1863 0.85048 0.0
H152 H 0.40971 0.18209 0.99261 0.0
H153 H 0.42722 0.17183 0.05898 0.0
H154 H 0.34791 0.1219 0.07155 0.0
H155 H 0.33103 0.1313 1.00482 0.0
H156 H 0.34946 0.26571 0.74611 0.0
H157 H 0.36815 0.27577 0.68475 0.0
H158 H 0.4026 0.35891 0.72734 0.0
H159 H 0.3829 0.34914 0.78791 0.0
Sm160 Sm 0.03964 0.90269 0.92748 0.0
Sm161 Sm 0.98386 0.89543 0.87097 0.0
C162 C 0.08248 0.91674 0.98021 0.0
C163 C 0.08886 0.90489 1.0191 0.0
C164 C 0.09266 0.9231 0.05121 0.0
C165 C 0.09591 0.91179 0.08831 0.0
C166 C 0.09529 0.882 0.09404 0.0
C167 C 0.09171 0.86388 0.06179 0.0
C168 C 0.08845 0.87514 1.02483 0.0
C169 C 0.02166 0.84709 0.91022 0.0
C170 C 0.97858 0.88188 0.95894 0.0
C171 C 0.94147 0.8863 0.81546 0.0
C172 C 0.93449 0.87462 0.77655 0.0
C173 C 0.95492 0.86168 0.75713 0.0
C174 C 0.94761 0.85139 0.71964 0.0
C175 C 0.91966 0.85375 0.70115 0.0
C176 C 0.89927 0.86635 0.7213 0.0
C177 C 0.90668 0.87678 0.75846 0.0
C178 C 0.99334 0.94635 0.91108 0.0
C179 C 0.04718 0.90053 0.83651 0.0
O180 O 0.05936 0.9311 0.97514 0.0
O181 O 0.08514 0.89978 0.9513 0.0
O182 O 0.02037 0.86749 0.88708 0.0
O183 O 0.03394 0.85547 0.94347 0.0
O184 O 0.00255 0.89839 0.96593 0.0
O185 O 0.96901 0.87308 0.92399 0.0
O186 O 0.94723 0.86798 0.84303 0.0
O187 O 0.95789 0.91009 0.81902 0.0
O188 O 0.01182 0.93352 0.89568 0.0
O189 O 0.96835 0.93283 0.90412 0.0
O190 O 0.0191 0.89458 0.83083 0.0
O191 O 0.06046 0.90758 0.87075 0.0
H192 H 0.09253 0.94606 0.0476 0.0
H193 H 0.0983 0.92635 0.11252 0.0
H194 H 0.09154 0.84088 0.06507 0.0
H195 H 0.08515 0.86045 1.00076 0.0
H196 H 0.97644 0.85965 0.77089 0.0
H197 H 0.96393 0.84198 0.70503 0.0
H198 H 0.87738 0.86792 0.70855 0.0
H199 H 0.89058 0.88654 0.77316 0.0
Sm200 Sm 0.40958 0.78615 0.24402 0.0
Sm201 Sm 0.40846 0.72571 0.21394 0.0
C202 C 0.39668 0.83234 0.27931 0.0
C203 C 0.38076 0.83384 0.31261 0.0
C204 C 0.37149 0.8083 0.32974 0.0
C205 C 0.35996 0.80889 0.3645 0.0
C206 C 0.35771 0.83508 0.38269 0.0
C207 C 0.36476 0.86076 0.36394 0.0
C208 C 0.37638 0.86013 0.32897 0.0
C209 C 0.46124 0.77173 0.22243 0.0
C210 C 0.42447 0.73299 0.30652 0.0
C211 C 0.41399 0.67691 0.17905 0.0
C212 C 0.40448 0.66579 0.14045 0.0
C213 C 0.41235 0.68076 0.10823 0.0
C214 C 0.40139 0.67158 0.07172 0.0
C215 C 0.38202 0.64733 0.06658 0.0
C216 C 0.37431 0.63212 0.09887 0.0
C217 C 0.38552 0.64129 0.13558 0.0
C218 C 0.35778 0.73876 0.23978 0.0
C219 C 0.40035 0.7795 0.14928 0.0
O220 O 0.38158 0.82201 0.24848 0.0
O221 O 0.42163 0.82131 0.28596 0.0
O222 O 0.44411 0.75599 0.23977 0.0
O223 O 0.45217 0.79736 0.21915 0.0
O224 O 0.41467 0.75893 0.30116 0.0
O225 O 0.42754 0.71684 0.27645 0.0
O226 O 0.43413 0.69781 0.18205 0.0
O227 O 0.39331 0.68078 0.20025 0.0
O228 O 0.37295 0.75544 0.22053 0.0
O229 O 0.36845 0.71406 0.24414 0.0
O230 O 0.40196 0.75149 0.15554 0.0
O231 O 0.40243 0.7975 0.17881 0.0
H232 H 0.37433 0.78783 0.31709 0.0
H233 H 0.3549 0.78889 0.3786 0.0
H234 H 0.36375 0.88122 0.37789 0.0
H235 H 0.38337 0.87998 0.3159 0.0
H236 H 0.42693 0.69965 0.1112 0.0
H237 H 0.40852 0.68333 0.04748 0.0
H238 H 0.35943 0.61338 0.09581 0.0
H239 H 0.37901 0.62956 0.16019 0.0
Sm240 Sm 0.48515 0.09581 0.41802 0.0
Sm241 Sm 0.5438 0.09842 0.38411 0.0
C242 C 0.44287 0.08634 0.46169 0.0
C243 C 0.43707 0.09442 0.5007 0.0
C244 C 0.45322 0.08468 0.53368 0.0
C245 C 0.44765 0.0935 0.57013 0.0
C246 C 0.42592 0.11228 0.57427 0.0
C247 C 0.40993 0.12193 0.54115 0.0
C248 C 0.41531 0.11295 0.50491 0.0
C249 C 0.49928 0.14558 0.38184 0.0
C250 C 0.54539 0.11761 0.47232 0.0
C251 C 0.58819 0.1052 0.34373 0.0
C252 C 0.59473 0.11289 0.30498 0.0
C253 C 0.57666 0.12954 0.281 0.0
C254 C 0.58423 0.13764 0.24484 0.0
C255 C 0.6099 0.12909 0.23219 0.0
C256 C 0.6273 0.11158 0.25598 0.0
C257 C 0.6198 0.10365 0.29208 0.0
C258 C 0.53119 0.05027 0.42505 0.0
C259 C 0.48269 0.08805 0.32794 0.0
O260 O 0.46249 0.06811 0.45839 0.0
O261 O 0.44375 0.10721 0.43698 0.0
O262 O 0.51633 0.13167 0.40346 0.0
O263 O 0.47299 0.13487 0.38129 0.0
O264 O 0.51813 0.10773 0.47034 0.0
O265 O 0.55969 0.11939 0.44186 0.0
O266 O 0.57977 0.12561 0.36452 0.0
O267 O 0.57396 0.08053 0.34731 0.0
O268 O 0.51355 0.06235 0.40168 0.0
O269 O 0.55684 0.06232 0.42464 0.0
O270 O 0.50977 0.09836 0.33174 0.0
O271 O 0.46925 0.07965 0.35768 0.0
H272 H 0.47022 0.0704 0.53141 0.0
H273 H 0.46023 0.08545 0.59501 0.0
H274 H 0.39348 0.13687 0.5431 0.0
H275 H 0.40262 0.12086 0.48 0.0
H276 H 0.55705 0.13668 0.29049 0.0
H277 H 0.57047 0.15131 0.22735 0.0
H278 H 0.64691 0.1042 0.24684 0.0
H279 H 0.63381 0.09056 0.31016 0.0
Sm280 Sm 0.10211 0.21069 0.59889 0.0
Sm281 Sm 0.12744 0.26764 0.57702 0.0
C282 C 0.09376 0.16141 0.63284 0.0
C283 C 0.10093 0.15366 0.67299 0.0
C284 C 0.12248 0.13469 0.68266 0.0
C285 C 0.13282 0.13085 0.7209 0.0
C286 C 0.12169 0.14596 0.7498 0.0
C287 C 0.09968 0.16435 0.74014 0.0
C288 C 0.08937 0.16813 0.70212 0.0
C289 C 0.06394 0.24408 0.55752 0.0
C290 C 0.10457 0.26459 0.66315 0.0
C291 C 0.14846 0.31534 0.54704 0.0
C292 C 0.15223 0.32697 0.50915 0.0
C293 C 0.13911 0.31275 0.4762 0.0
C294 C 0.14479 0.32262 0.44013 0.0
C295 C 0.16373 0.34684 0.4365 0.0
C296 C 0.17666 0.36113 0.46965 0.0
C297 C 0.17105 0.35113 0.50579 0.0
C298 C 0.16392 0.23828 0.6258 0.0
C299 C 0.10838 0.21599 0.50858 0.0
O300 O 0.11606 0.16759 0.61411 0.0
O301 O 0.07339 0.17915 0.62586 0.0
O302 O 0.08293 0.25223 0.58396 0.0
O303 O 0.06216 0.2163 0.55526 0.0
O304 O 0.10231 0.23644 0.65686 0.0
O305 O 0.11114 0.28219 0.63494 0.0
O306 O 0.12213 0.3121 0.5565 0.0
O307 O 0.1637 0.29357 0.55651 0.0
O308 O 0.14841 0.22693 0.59723 0.0
O309 O 0.16087 0.26531 0.62834 0.0
O310 O 0.11469 0.24376 0.5165 0.0
O311 O 0.10705 0.19767 0.53699 0.0
H312 H 0.13194 0.12358 0.66057 0.0
H313 H 0.14981 0.11652 0.72785 0.0
H314 H 0.0903 0.17575 0.76204 0.0
H315 H 0.07285 0.18295 0.69566 0.0
H316 H 0.12463 0.29398 0.4784 0.0
H317 H 0.1339 0.31165 0.41503 0.0
H318 H 0.19114 0.37993 0.46757 0.0
H319 H 0.18159 0.36208 0.53111 0.0
Sm320 Sm 0.90754 0.27603 0.74489 0.0
Sm321 Sm 0.90769 0.21751 0.71592 0.0
C322 C 0.89232 0.32503 0.77054 0.0
C323 C 0.87774 0.3281 0.805 0.0
C324 C 0.86487 0.30353 0.82037 0.0
C325 C 0.85302 0.30463 0.85483 0.0
C326 C 0.85597 0.32986 0.87675 0.0
C327 C 0.86877 0.35478 0.86095 0.0
C328 C 0.87924 0.35395 0.82509 0.0
C329 C 0.96234 0.26131 0.73767 0.0
C330 C 0.92399 0.22548 0.8071 0.0
C331 C 0.90849 0.16723 0.68265 0.0
C332 C 0.90957 0.15697 0.64385 0.0
C333 C 0.9221 0.17457 0.61706 0.0
C334 C 0.91746 0.16762 0.57831 0.0
C335 C 0.89991 0.14322 0.56604 0.0
C336 C 0.8883 0.12507 0.59309 0.0
C337 C 0.89319 0.1319 0.63188 0.0
C338 C 0.8579 0.22857 0.74676 0.0
C339 C 0.90777 0.27009 0.65 0.0
O340 O 0.87724 0.31064 0.74266 0.0
O341 O 0.91841 0.3168 0.77707 0.0
O342 O 0.94025 0.25464 0.71499 0.0
O343 O 0.95543 0.27599 0.76615 0.0
O344 O 0.90903 0.24858 0.80151 0.0
O345 O 0.93122 0.21194 0.77687 0.0
O346 O 0.93171 0.18082 0.69968 0.0
O347 O 0.88496 0.17969 0.68705 0.0
O348 O 0.8707 0.24489 0.72464 0.0
O349 O 0.87181 0.20606 0.75448 0.0
O350 O 0.90567 0.24197 0.65644 0.0
O351 O 0.90949 0.28807 0.67969 0.0
H352 H 0.86505 0.28305 0.80641 0.0
H353 H 0.84299 0.28514 0.86504 0.0
H354 H 0.87242 0.37458 0.87704 0.0
H355 H 0.88987 0.373 0.81412 0.0
H356 H 0.93413 0.1944 0.6259 0.0
H357 H 0.92635 0.18207 0.55782 0.0
H358 H 0.87483 0.10608 0.58412 0.0
H359 H 0.88293 0.11846 0.65233 0.0
Sm360 Sm 0.62788 0.70079 0.09526 0.0
Sm361 Sm 0.62477 0.76198 0.07238 0.0
C362 C 0.6403 0.65254 0.1293 0.0
C363 C 0.64828 0.64849 0.16987 0.0
C364 C 0.65777 0.67282 0.19212 0.0
C365 C 0.65475 0.67309 0.23088 0.0
C366 C 0.64178 0.64924 0.24738 0.0
C367 C 0.63466 0.62398 0.22624 0.0
C368 C 0.63809 0.62354 0.18735 0.0
C369 C 0.57677 0.71184 0.05688 0.0
C370 C 0.60804 0.74948 0.15846 0.0
C371 C 0.62465 0.81321 0.0403 0.0
C372 C 0.63021 0.82393 1.00238 0.0
C373 C 0.62524 0.80578 0.9704 0.0
C374 C 0.63449 0.81442 0.93552 0.0
C375 C 0.64879 0.84146 0.93197 0.0
C376 C 0.65336 0.85986 0.96385 0.0
C377 C 0.64436 0.85101 0.99898 0.0
C378 C 0.67515 0.75049 0.11498 0.0
C379 C 0.62355 0.71184 1.00318 0.0
O380 O 0.65885 0.66782 0.11108 0.0
O381 O 0.61402 0.66029 0.12203 0.0
O382 O 0.59092 0.72784 0.08218 0.0
O383 O 0.5877 0.68728 0.05481 0.0
O384 O 0.62018 0.72479 0.15351 0.0
O385 O 0.60303 0.76658 0.1286 0.0
O386 O 0.60112 0.79691 0.0428 0.0
O387 O 0.64708 0.80334 0.05966 0.0
O388 O 0.66319 0.7346 0.08775 0.0
O389 O 0.66047 0.77226 0.11998 0.0
O390 O 0.61956 0.73864 1.01242 0.0
O391 O 0.63196 0.69362 0.03041 0.0
H392 H 0.66425 0.69268 0.17892 0.0
H393 H 0.6597 0.69275 0.24707 0.0
H394 H 0.62431 0.60552 0.23905 0.0
H395 H 0.62996 0.60491 0.17033 0.0
H396 H 0.61454 0.78479 0.97248 0.0
H397 H 0.62992 0.80016 0.91106 0.0
H398 H 0.66401 0.88094 0.9616 0.0
H399 H 0.64887 0.86507 1.02364 0.0
Sm400 Sm 0.65736 0.28548 0.94386 0.0
Sm401 Sm 0.65939 0.22738 0.90408 0.0
C402 C 0.65264 0.32863 0.9906 0.0
C403 C 0.64618 0.33363 0.03003 0.0
C404 C 0.62352 0.31822 0.04569 0.0
C405 C 0.61682 0.32482 0.08242 0.0
C406 C 0.6328 0.34681 0.10411 0.0
C407 C 0.65624 0.36122 0.08883 0.0
C408 C 0.66276 0.35477 0.0521 0.0
C409 C 0.70637 0.27729 0.91033 0.0
C410 C 0.6671 0.22669 0.99445 0.0
C411 C 0.66904 0.18786 0.85431 0.0
C412 C 0.65836 0.18254 0.81366 0.0
C413 C 0.67788 0.17995 0.78636 0.0
C414 C 0.66793 0.17532 0.74771 0.0
C415 C 0.6383 0.17348 0.73573 0.0
C416 C 0.61883 0.17651 0.76296 0.0
C417 C 0.62873 0.18097 0.80152 0.0
C418 C 0.60933 0.23464 0.9349 0.0
C419 C 0.63659 0.28433 0.85445 0.0
O420 O 0.63147 0.31831 0.96611 0.0
O421 O 0.67711 0.31761 0.98681 0.0
O422 O 0.69356 0.25916 0.93015 0.0
O423 O 0.69347 0.30095 0.90781 0.0
O424 O 0.65628 0.25203 0.99163 0.0
O425 O 0.67616 0.21422 0.96464 0.0
O426 O 0.68625 0.21079 0.86148 0.0
O427 O 0.65029 0.18389 0.87922 0.0
O428 O 0.6232 0.25354 0.91746 0.0
O429 O 0.62002 0.20988 0.93284 0.0
O430 O 0.64621 0.25836 0.85439 0.0
O431 O 0.6356 0.29879 0.88635 0.0
H432 H 0.61061 0.30154 0.0293 0.0
H433 H 0.59853 0.31341 0.0932 0.0
H434 H 0.66935 0.37783 0.10506 0.0
H435 H 0.68053 0.36665 0.04065 0.0
H436 H 0.7008 0.18153 0.79493 0.0
H437 H 0.68335 0.17331 0.72714 0.0
H438 H 0.59588 0.17491 0.7545 0.0
H439 H 0.61312 0.18318 0.82178 0.0
Sm440 Sm 0.85397 0.70204 0.40013 0.0
Sm441 Sm 0.86104 0.75897 0.35697 0.0
C442 C 0.85378 0.65995 0.45048 0.0
C443 C 0.86289 0.655 0.49123 0.0
C444 C 0.88746 0.66959 0.5102 0.0
C445 C 0.89672 0.66297 0.54822 0.0
C446 C 0.88149 0.64175 0.56792 0.0
C447 C 0.85631 0.62805 0.54909 0.0
C448 C 0.84718 0.63457 0.51111 0.0
C449 C 0.80771 0.71405 0.34917 0.0
C450 C 0.85175 0.76406 0.44463 0.0
C451 C 0.85764 0.79933 0.30419 0.0
C452 C 0.86874 0.80465 0.26667 0.0
C453 C 0.85045 0.80037 0.2325 0.0
C454 C 0.8607 0.80592 0.19704 0.0
C455 C 0.88945 0.81595 0.19505 0.0
C456 C 0.90775 0.82 0.22923 0.0
C457 C 0.89753 0.81447 0.2646 0.0
C458 C 0.90806 0.74598 0.405 0.0
C459 C 0.8782 0.69822 0.31794 0.0
O460 O 0.87423 0.66502 0.42822 0.0
O461 O 0.83199 0.67584 0.44268 0.0
O462 O 0.8224 0.73193 0.37138 0.0
O463 O 0.81658 0.68863 0.35474 0.0
O464 O 0.8584 0.7371 0.44703 0.0
O465 O 0.84603 0.77674 0.41137 0.0
O466 O 0.83786 0.77842 0.30581 0.0
O467 O 0.87645 0.80075 0.33453 0.0
O468 O 0.89233 0.7285 0.38368 0.0
O469 O 0.90108 0.77203 0.39844 0.0
O470 O 0.87398 0.72578 0.31408 0.0
O471 O 0.87429 0.68397 0.34961 0.0
H472 H 0.89981 0.68562 0.49541 0.0
H473 H 0.9163 0.67381 0.56173 0.0
H474 H 0.84376 0.61204 0.56361 0.0
H475 H 0.82804 0.62328 0.49703 0.0
H476 H 0.82816 0.79287 0.23319 0.0
H477 H 0.84614 0.80235 0.17119 0.0
H478 H 0.92987 0.82814 0.22873 0.0
H479 H 0.91221 0.81817 0.29031 0.0
Sm480 Sm 0.54234 0.64055 0.64657 0.0
Sm481 Sm 0.48109 0.63022 0.66367 0.0
C482 C 0.5917 0.63286 0.62102 0.0
C483 C 0.5963 0.623 0.58331 0.0
C484 C 0.57276 0.60978 0.56041 0.0
C485 C 0.57229 0.60993 0.52089 0.0
C486 C 0.59528 0.62362 0.50443 0.0
C487 C 0.62026 0.63366 0.52737 0.0
C488 C 0.62076 0.63337 0.56697 0.0
C489 C 0.52323 0.68518 0.68405 0.0
C490 C 0.49034 0.65803 0.57898 0.0
C491 C 0.43051 0.61684 0.68811 0.0
C492 C 0.41922 0.61659 0.72518 0.0
C493 C 0.43575 0.62948 0.75664 0.0
C494 C 0.42615 0.62797 0.79261 0.0
C495 C 0.40056 0.6119 0.79849 0.0
C496 C 0.38426 0.59834 0.76679 0.0
C497 C 0.39344 0.60093 0.73027 0.0
C498 C 0.49927 0.58961 0.61798 0.0
C499 C 0.53463 0.63483 0.73703 0.0
O500 O 0.5789 0.61379 0.64188 0.0
O501 O 0.58072 0.6579 0.62075 0.0
O502 O 0.50856 0.67011 0.65852 0.0
O503 O 0.55017 0.67976 0.68655 0.0
O504 O 0.51752 0.65126 0.58684 0.0
O505 O 0.47221 0.65505 0.60582 0.0
O506 O 0.4372 0.64196 0.67376 0.0
O507 O 0.45 0.59849 0.6853 0.0
O508 O 0.51404 0.59976 0.64784 0.0
O509 O 0.47482 0.60077 0.61236 0.0
O510 O 0.5065 0.63459 0.7262 0.0
O511 O 0.55272 0.63238 0.71107 0.0
H512 H 0.5535 0.60227 0.57276 0.0
H513 H 0.55294 0.60208 0.50339 0.0
H514 H 0.63833 0.64391 0.5146 0.0
H515 H 0.63891 0.64378 0.58444 0.0
H516 H 0.45627 0.6406 0.75362 0.0
H517 H 0.43905 0.6395 0.81571 0.0
H518 H 0.36479 0.58529 0.77015 0.0
H519 H 0.38087 0.59008 0.70625 0.0
Sm520 Sm 0.9917 0.38435 0.19385 0.0
Sm521 Sm 0.02985 0.3739 0.11628 0.0
C522 C 0.97387 0.37326 0.26347 0.0
C523 C 0.96368 0.36692 0.303 0.0
C524 C 0.93897 0.34868 0.30733 0.0
C525 C 0.93191 0.33909 0.34391 0.0
C526 C 0.94919 0.34715 0.37835 0.0
C527 C 0.97365 0.36592 0.37386 0.0
C528 C 0.98068 0.3755 0.33725 0.0
C529 C 0.99317 0.42747 0.14088 0.0
C530 C 0.06431 0.39011 0.20057 0.0
C531 C 0.05606 0.37198 0.05121 0.0
C532 C 0.05762 0.35961 1.01086 0.0
C533 C 0.0493 0.37505 0.97722 0.0
C534 C 0.05374 0.36511 0.94004 0.0
C535 C 0.06708 0.33933 0.93439 0.0
C536 C 0.07514 0.32384 0.96815 0.0
C537 C 0.07058 0.3337 1.00524 0.0
C538 C 0.01162 0.32924 0.16027 0.0
C539 C 0.95999 0.36131 0.11069 0.0
O540 O 0.96236 0.36028 0.2319 0.0
O541 O 0.9927 0.39434 0.25711 0.0
O542 O 0.01267 0.41036 0.14882 0.0
O543 O 0.97351 0.42474 0.16479 0.0
O544 O 0.03938 0.39039 0.21527 0.0
O545 O 0.06693 0.38676 0.16343 0.0
O546 O 0.03719 0.39067 0.05731 0.0
O547 O 0.06217 0.35607 0.08151 0.0
O548 O 0.01999 0.35376 0.17086 0.0
O549 O 0.01373 0.3261 0.12383 0.0
O550 O 0.9829 0.37065 0.09419 0.0
O551 O 0.95894 0.36075 0.14842 0.0
H552 H 0.92546 0.34083 0.28212 0.0
H553 H 0.91319 0.32443 0.34483 0.0
H554 H 0.98767 0.37339 0.39879 0.0
H555 H 0.00014 0.38907 0.33576 0.0
H556 H 0.03984 0.39535 0.97962 0.0
H557 H 0.04737 0.37829 0.91568 0.0
H558 H 0.08506 0.30377 0.96611 0.0
H559 H 0.0778 0.32105 0.02979 0.0
Sm560 Sm 0.54113 0.39703 0.4255 0.0
Sm561 Sm 0.48248 0.39303 0.37558 0.0
C562 C 0.58101 0.40803 0.48328 0.0
C563 C 0.58403 0.39722 0.52283 0.0
C564 C 0.59172 0.41616 0.55361 0.0
C565 C 0.59398 0.40602 0.59125 0.0
C566 C 0.58861 0.37673 0.59871 0.0
C567 C 0.58035 0.35795 0.56774 0.0
C568 C 0.57792 0.3681 0.53026 0.0
C569 C 0.5287 0.34691 0.38628 0.0
C570 C 0.48104 0.37285 0.46288 0.0
C571 C 0.43935 0.38523 0.32071 0.0
C572 C 0.43368 0.37701 0.27992 0.0
C573 C 0.4491 0.35625 0.26369 0.0
C574 C 0.44166 0.34741 0.22559 0.0
C575 C 0.41871 0.35923 0.20304 0.0
C576 C 0.40423 0.38085 0.21915 0.0
C577 C 0.41158 0.38954 0.25715 0.0
C578 C 0.49534 0.44181 0.4189 0.0
C579 C 0.54352 0.40504 0.33669 0.0
O580 O 0.55977 0.42447 0.47476 0.0
O581 O 0.58369 0.3895 0.45623 0.0
O582 O 0.51099 0.36033 0.40261 0.0
O583 O 0.55475 0.35824 0.39353 0.0
O584 O 0.50841 0.38249 0.4681 0.0
O585 O 0.46625 0.37213 0.42869 0.0
O586 O 0.44736 0.36526 0.34495 0.0
O587 O 0.45292 0.41019 0.32855 0.0
O588 O 0.51248 0.42972 0.39992 0.0
O589 O 0.46979 0.42908 0.41335 0.0
O590 O 0.51688 0.39349 0.33345 0.0
O591 O 0.55675 0.41415 0.36995 0.0
H592 H 0.5959 0.43879 0.54852 0.0
H593 H 0.59989 0.42113 0.6145 0.0
H594 H 0.57636 0.33524 0.57234 0.0
H595 H 0.57137 0.35307 0.50708 0.0
H596 H 0.46644 0.34643 0.28067 0.0
H597 H 0.45321 0.33064 0.21426 0.0
H598 H 0.3869 0.39087 0.20248 0.0
H599 H 0.3996 0.40576 0.26902 0.0
Sm600 Sm 0.9855 0.58826 0.91465 0.0
Sm601 Sm 0.0411 0.58954 0.87476 0.0
C602 C 0.94643 0.58072 0.96388 0.0
C603 C 0.94193 0.59264 1.00178 0.0
C604 C 0.95503 0.58106 0.03577 0.0
C605 C 0.95076 0.59225 0.07147 0.0
C606 C 0.93315 0.61516 0.07414 0.0
C607 C 0.92003 0.6267 0.04016 0.0
C608 C 0.9243 0.61553 1.00444 0.0
C609 C 0.00047 0.64 0.88418 0.0
C610 C 0.04903 0.60388 0.96468 0.0
C611 C 0.08371 0.59659 0.83098 0.0
C612 C 0.09058 0.60716 0.79348 0.0
C613 C 0.0704 0.62052 0.7683 0.0
C614 C 0.07796 0.63073 0.73294 0.0
C615 C 0.1058 0.62774 0.72238 0.0
C616 C 0.12579 0.61433 0.74799 0.0
C617 C 0.11819 0.60409 0.78309 0.0
C618 C 0.02549 0.5381 0.90718 0.0
C619 C 0.97799 0.58504 0.82381 0.0
O620 O 0.96827 0.56495 0.96301 0.0
O621 O 0.94331 0.59757 0.93421 0.0
O622 O 0.01785 0.62368 0.90121 0.0
O623 O 0.97418 0.63055 0.8868 0.0
O624 O 0.0217 0.59493 0.96472 0.0
O625 O 0.06147 0.60661 0.93284 0.0
O626 O 0.07804 0.61573 0.85567 0.0
O627 O 0.0671 0.57306 0.83131 0.0
O628 O 0.00862 0.55418 0.88858 0.0
O629 O 0.05187 0.54852 0.90781 0.0
O630 O 0.00508 0.59525 0.82645 0.0
O631 O 0.96592 0.57512 0.85405 0.0
H632 H 0.96863 0.56332 0.03488 0.0
H633 H 0.96142 0.58303 0.09701 0.0
H634 H 0.90596 0.64404 0.04118 0.0
H635 H 0.91367 0.62476 0.97889 0.0
H636 H 0.04894 0.62308 0.776 0.0
H637 H 0.06196 0.64073 0.71379 0.0
H638 H 0.14755 0.61215 0.74126 0.0
H639 H 0.13405 0.59395 0.80235 0.0
C640 C 0.10587 0.12409 0.96172 0.0
C641 C 0.13012 0.1217 0.98802 0.0
C642 C 0.10868 0.12809 0.92293 0.0
C643 C 0.13643 0.12917 0.91039 0.0
C644 C 0.16101 0.12644 0.93684 0.0
C645 C 0.15757 0.12304 0.97574 0.0
C646 C 0.08202 0.13166 0.89555 0.0
C647 C 0.19079 0.12743 0.92404 0.0
C648 C 0.13256 0.11395 0.80498 0.0
C649 C 0.13163 0.14168 0.79032 0.0
C650 C 0.1362 0.1095 0.8445 0.0
C651 C 0.13934 0.13342 0.86945 0.0
C652 C 0.14087 0.16148 0.85464 0.0
C653 C 0.1367 0.16527 0.81509 0.0
C654 C 0.13403 0.07929 0.85947 0.0
C655 C 0.14428 0.18754 0.8804 0.0
H656 H 0.08473 0.12359 0.97176 0.0
H657 H 0.17618 0.12141 0.99654 0.0
H658 H 0.08356 0.15288 0.88155 0.0
H659 H 0.08016 0.1152 0.87261 0.0
H660 H 0.06206 0.12994 0.91011 0.0
H661 H 0.20754 0.124 0.94813 0.0
H662 H 0.19183 0.11083 0.90183 0.0
H663 H 0.19577 0.14846 0.91085 0.0
H664 H 0.12835 0.09574 0.78574 0.0
H665 H 0.13591 0.18671 0.80365 0.0
H666 H 0.11292 0.07506 0.87074 0.0
H667 H 0.15096 0.07634 0.88342 0.0
H668 H 0.13588 0.06323 0.83679 0.0
H669 H 0.12355 0.19068 0.89189 0.0
H670 H 0.15057 0.20723 0.86476 0.0
H671 H 0.16061 0.18474 0.90511 0.0
C672 C 0.1411 0.79209 0.27894 0.0
C673 C 0.1286 0.79891 0.31203 0.0
C674 C 0.1348 0.80675 0.24453 0.0
C675 C 0.11485 0.82825 0.24275 0.0
C676 C 0.10169 0.83486 0.27588 0.0
C677 C 0.10902 0.82036 0.3103 0.0
C678 C 0.14985 0.79947 0.2102 0.0
C679 C 0.07977 0.85711 0.2749 0.0
C680 C 0.11942 0.88168 0.16149 0.0
C681 C 0.09865 0.86967 0.13333 0.0
C682 C 0.12427 0.86897 0.1977 0.0
C683 C 0.1079 0.84367 0.20606 0.0
C684 C 0.08615 0.83205 0.17831 0.0
C685 C 0.08181 0.84516 0.14232 0.0
C686 C 0.14766 0.88203 0.22649 0.0
C687 C 0.06801 0.80528 0.18621 0.0
H688 H 0.15637 0.77564 0.2801 0.0
H689 H 0.09913 0.82556 0.33573 0.0
H690 H 0.13384 0.79313 0.18565 0.0
H691 H 0.16273 0.8186 0.20138 0.0
H692 H 0.16437 0.78182 0.21612 0.0
H693 H 0.07138 0.85962 0.30304 0.0
H694 H 0.08943 0.87809 0.26635 0.0
H695 H 0.06145 0.8511 0.25314 0.0
H696 H 0.13264 0.90049 0.15477 0.0
H697 H 0.06532 0.83604 0.12104 0.0
H698 H 0.1649 0.86698 0.23211 0.0
H699 H 0.13901 0.8858 0.25411 0.0
H700 H 0.1573 0.90262 0.21646 0.0
H701 H 0.08175 0.78686 0.18962 0.0
H702 H 0.05054 0.80024 0.16283 0.0
H703 H 0.0583 0.80763 0.21341 0.0
C704 C 0.37696 0.82176 0.44745 0.0
C705 C 0.35613 0.83566 0.42421 0.0
C706 C 0.38396 0.82984 0.48561 0.0
C707 C 0.36901 0.85174 0.50087 0.0
C708 C 0.3448 0.86229 0.47929 0.0
C709 C 0.33897 0.85459 0.44056 0.0
C710 C 0.41008 0.81791 0.50746 0.0
C711 C 0.32711 0.88399 0.49571 0.0
C712 C 0.40452 0.86473 0.59998 0.0
C713 C 0.42779 0.88311 0.59141 0.0
C714 C 0.38212 0.85702 0.57153 0.0
C715 C 0.38347 0.86798 0.53421 0.0
C716 C 0.40459 0.88995 0.5274 0.0
C717 C 0.42657 0.8973 0.55633 0.0
C718 C 0.35934 0.83441 0.58027 0.0
C719 C 0.40663 0.90263 0.48809 0.0
H720 H 0.39023 0.80707 0.43472 0.0
H721 H 0.3225 0.86491 0.42253 0.0
H722 H 0.42798 0.83475 0.51081 0.0
H723 H 0.40538 0.8111 0.53649 0.0
H724 H 0.41754 0.79931 0.4926 0.0
H725 H 0.30498 0.88317 0.48071 0.0
H726 H 0.32587 0.88044 0.52676 0.0
H727 H 0.33719 0.90577 0.49206 0.0
H728 H 0.40524 0.85401 0.62743 0.0
H729 H 0.44429 0.91211 0.55023 0.0
H730 H 0.36709 0.81293 0.57583 0.0
H731 H 0.33905 0.83627 0.56136 0.0
H732 H 0.35485 0.83585 0.61061 0.0
H733 H 0.41397 0.88641 0.46896 0.0
H734 H 0.42203 0.92175 0.48889 0.0
H735 H 0.38534 0.90888 0.47528 0.0
C736 C 0.38786 0.15675 0.78374 0.0
C737 C 0.38588 0.18647 0.78455 0.0
C738 C 0.39586 0.14309 0.75131 0.0
C739 C 0.40222 0.15961 0.7191 0.0
C740 C 0.40101 0.18971 0.72018 0.0
C741 C 0.39273 0.20275 0.75281 0.0
C742 C 0.39676 0.11094 0.75115 0.0
C743 C 0.40778 0.20812 0.68651 0.0
C744 C 0.44249 0.12951 0.64135 0.0
C745 C 0.41996 0.12226 0.61272 0.0
C746 C 0.43702 0.14089 0.67667 0.0
C747 C 0.40839 0.14539 0.68333 0.0
C748 C 0.38553 0.13741 0.655 0.0
C749 C 0.39157 0.12576 0.62025 0.0
C750 C 0.46192 0.14888 0.7064 0.0
C751 C 0.3547 0.14187 0.66101 0.0
H752 H 0.38256 0.14402 0.80814 0.0
H753 H 0.39152 0.22577 0.75331 0.0
H754 H 0.38024 0.10155 0.72894 0.0
H755 H 0.41795 0.10482 0.74373 0.0
H756 H 0.39281 0.10138 0.77924 0.0
H757 H 0.40748 0.23132 0.69281 0.0
H758 H 0.42926 0.20387 0.67812 0.0
H759 H 0.39183 0.20272 0.66152 0.0
H760 H 0.46451 0.12711 0.63577 0.0
H761 H 0.37396 0.11962 0.59871 0.0
H762 H 0.45823 0.13874 0.73419 0.0
H763 H 0.46365 0.17237 0.71108 0.0
H764 H 0.48268 0.14232 0.69783 0.0
H765 H 0.34902 0.13095 0.6875 0.0
H766 H 0.33933 0.13371 0.63661 0.0
H767 H 0.35199 0.16501 0.66477 0.0
C768 C 0.8837 0.83881 0.13031 0.0
C769 C 0.90023 0.82331 0.15771 0.0
C770 C 0.89458 0.84795 0.09627 0.0
C771 C 0.92266 0.84141 0.0895 0.0
C772 C 0.93913 0.82504 0.1165 0.0
C773 C 0.92771 0.81618 0.15026 0.0
C774 C 0.87641 0.86538 0.06815 0.0
C775 C 0.96909 0.81744 0.11013 0.0
C776 C 0.94567 0.84665 0.98907 0.0
C777 C 0.96271 0.87244 0.99131 0.0
C778 C 0.93215 0.83641 1.02067 0.0
C779 C 0.93538 0.85266 0.05499 0.0
C780 C 0.95175 0.87923 0.05688 0.0
C781 C 0.96546 0.88867 1.02511 0.0
C782 C 0.91514 0.80785 1.01771 0.0
C783 C 0.95529 0.89743 0.09271 0.0
H784 H 0.86258 0.84465 0.13605 0.0
H785 H 0.94041 0.80381 0.17104 0.0
H786 H 0.88699 0.88711 0.06577 0.0
H787 H 0.87439 0.85544 0.03927 0.0
H788 H 0.85452 0.86747 0.07679 0.0
H789 H 0.97859 0.80355 0.13312 0.0
H790 H 0.96874 0.80628 0.08224 0.0
H791 H 0.98333 0.83724 0.10899 0.0
H792 H 0.94366 0.83398 0.96301 0.0
H793 H 0.97839 0.90878 1.02674 0.0
H794 H 0.89312 0.81008 1.02566 0.0
H795 H 0.9255 0.7926 0.03814 0.0
H796 H 0.91355 0.79853 0.98844 0.0
H797 H 0.93396 0.90118 0.10204 0.0
H798 H 0.9669 0.91847 0.08851 0.0
H799 H 0.96744 0.88605 0.11625 0.0
C800 C 0.92358 0.22648 0.88019 0.0
C801 C 0.93253 0.2142 0.84721 0.0
C802 C 0.93176 0.21603 0.91764 0.0
C803 C 0.94952 0.1925 0.9231 0.0
C804 C 0.95835 0.17987 0.88983 0.0
C805 C 0.94989 0.19074 0.85281 0.0
C806 C 0.92146 0.23043 0.95154 0.0
C807 C 0.97684 0.15462 0.89329 0.0
C808 C 0.99535 0.18077 1.02003 0.0
C809 C 0.97838 0.16038 0.03867 0.0
C810 C 0.98597 0.19177 0.98335 0.0
C811 C 0.95932 0.18146 0.96328 0.0
C812 C 0.94246 0.16023 0.98163 0.0
C813 C 0.9518 0.15054 1.01909 0.0
C814 C 0.00463 0.21475 0.96615 0.0
C815 C 0.91451 0.14747 0.96156 0.0
H816 H 0.91009 0.24442 0.87681 0.0
H817 H 0.95707 0.18075 0.82804 0.0
H818 H 0.90828 0.2148 0.96719 0.0
H819 H 0.94012 0.23823 0.97176 0.0
H820 H 0.90837 0.24875 0.94293 0.0
H821 H 0.98122 0.14647 0.86495 0.0
H822 H -0.00233 0.16075 0.91022 0.0
H823 H 0.96615 0.137 0.90883 0.0
H824 H 0.01584 0.18874 0.03465 0.0
H825 H 0.93851 0.13462 0.03275 0.0
H826 H 0.99204 0.23358 0.9586 0.0
H827 H 0.01187 0.20676 0.9393 0.0
H828 H 0.02387 0.22179 0.98593 0.0
H829 H 0.89849 0.16393 0.95866 0.0
H830 H 0.90557 0.12895 0.97733 0.0
H831 H 0.91761 0.14034 0.93225 0.0
C832 C 0.63633 0.1438 0.67636 0.0
C833 C 0.62741 0.16744 0.69521 0.0
C834 C 0.62411 0.13614 0.63927 0.0
C835 C 0.60285 0.15284 0.62041 0.0
C836 C 0.59461 0.17741 0.63879 0.0
C837 C 0.60681 0.18427 0.67615 0.0
C838 C 0.6332 0.1096 0.6208 0.0
C839 C 0.57242 0.19607 0.61935 0.0
C840 C 0.58568 0.14439 0.5126 0.0
C841 C 0.56016 0.12679 0.51003 0.0
C842 C 0.59976 0.1532 0.54834 0.0
C843 C 0.58823 0.14385 0.58225 0.0
C844 C 0.56261 0.12585 0.57979 0.0
C845 C 0.54879 0.11771 0.54372 0.0
C846 C 0.62684 0.17266 0.54981 0.0
C847 C 0.54984 0.11505 0.61526 0.0
H848 H 0.6521 0.13067 0.69124 0.0
H849 H 0.6001 0.20271 0.69064 0.0
H850 H 0.61448 0.09381 0.61549 0.0
H851 H 0.64082 0.11491 0.59264 0.0
H852 H 0.65056 0.0994 0.63885 0.0
H853 H 0.56991 0.2155 0.63643 0.0
H854 H 0.57845 0.20277 0.5908 0.0
H855 H 0.55131 0.18374 0.61471 0.0
H856 H 0.5945 0.15157 0.48665 0.0
H857 H 0.52924 0.10385 0.54197 0.0
H858 H 0.64492 0.16232 0.56607 0.0
H859 H 0.62387 0.19277 0.56512 0.0
H860 H 0.63292 0.17812 0.52082 0.0
H861 H 0.56582 0.10319 0.63345 0.0
H862 H 0.53014 0.1007 0.60836 0.0
H863 H 0.54433 0.13335 0.63243 0.0
C864 C 0.58617 0.82651 0.36486 0.0
C865 C 0.56734 0.81082 0.38755 0.0
C866 C 0.59299 0.81648 0.32859 0.0
C867 C 0.58093 0.78973 0.31296 0.0
C868 C 0.56218 0.77364 0.3356 0.0
C869 C 0.55564 0.78417 0.37175 0.0
C870 C 0.61343 0.8348 0.30695 0.0
C871 C 0.54871 0.74501 0.32137 0.0
C872 C 0.57903 0.77788 0.20209 0.0
C873 C 0.60064 0.75879 0.19819 0.0
C874 C 0.57202 0.78721 0.23852 0.0
C875 C 0.58774 0.77872 0.27328 0.0
C876 C 0.60988 0.75962 0.26947 0.0
C877 C 0.61555 0.74965 0.23263 0.0
C878 C 0.54736 0.80619 0.2396 0.0
C879 C 0.62793 0.74918 0.30417 0.0
H880 H 0.59622 0.84678 0.37554 0.0
H881 H 0.54076 0.77135 0.38728 0.0
H882 H 0.6294 0.82159 0.29547 0.0
H883 H 0.60119 0.84483 0.28228 0.0
H884 H 0.62508 0.8521 0.32516 0.0
H885 H 0.53438 0.73487 0.3415 0.0
H886 H 0.53613 0.74755 0.29311 0.0
H887 H 0.56581 0.7304 0.31722 0.0
H888 H 0.56714 0.7854 0.17636 0.0
H889 H 0.63244 0.73518 0.23087 0.0
H890 H 0.5558 0.82808 0.24856 0.0
H891 H 0.53289 0.79812 0.26086 0.0
H892 H 0.53453 0.80748 0.21125 0.0
H893 H 0.65027 0.74655 0.29757 0.0
H894 H 0.61879 0.72785 0.31233 0.0
H895 H 0.62871 0.76381 0.3291 0.0
C896 C 0.64876 0.6504 0.31767 0.0
C897 C 0.63071 0.65263 0.28393 0.0
C898 C 0.63752 0.6511 0.35278 0.0
C899 C 0.60767 0.65417 0.35336 0.0
C900 C 0.58998 0.65918 0.31931 0.0
C901 C 0.60179 0.6581 0.28458 0.0
C902 C 0.65717 0.64655 0.38895 0.0
C903 C 0.55839 0.66373 0.31921 0.0
C904 C 0.5868 0.61089 0.43582 0.0
C905 C 0.5916 0.63176 0.46437 0.0
C906 C 0.58841 0.61859 0.39769 0.0
C907 C 0.5949 0.64767 0.38887 0.0
C908 C 0.59573 0.66911 0.41715 0.0
C909 C 0.59429 0.66079 0.45499 0.0
C910 C 0.58653 0.59531 0.3677 0.0
C911 C 0.60135 0.70043 0.40845 0.0
H912 H 0.6713 0.64696 0.31642 0.0
H913 H 0.58832 0.66069 0.25788 0.0
H914 H 0.65479 0.6633 0.41045 0.0
H915 H 0.6512 0.62554 0.40157 0.0
H916 H 0.68012 0.64697 0.38357 0.0
H917 H 0.55 0.67509 0.29299 0.0
H918 H 0.5462 0.64267 0.31996 0.0
H919 H 0.55419 0.67611 0.3447 0.0
H920 H 0.5839 0.58854 0.44355 0.0
H921 H 0.5968 0.67685 0.47752 0.0
H922 H 0.60841 0.59195 0.35991 0.0
H923 H 0.57329 0.60158 0.34135 0.0
H924 H 0.57717 0.57469 0.37807 0.0
H925 H 0.6249 0.70576 0.41129 0.0
H926 H 0.59184 0.7141 0.42894 0.0
H927 H 0.59261 0.70574 0.37889 0.0
C928 C 0.63651 0.28804 0.78357 0.0
C929 C 0.62722 0.29778 0.81758 0.0
C930 C 0.62912 0.30162 0.74863 0.0
C931 C 0.61161 0.32517 0.74764 0.0
C932 C 0.60167 0.33472 0.78177 0.0
C933 C 0.60977 0.32103 0.81642 0.0
C934 C 0.64045 0.29102 0.71291 0.0
C935 C 0.58269 0.35953 0.78173 0.0
C936 C 0.61667 0.3754 0.66345 0.0
C937 C 0.59286 0.36538 0.63834 0.0
C938 C 0.62252 0.36308 0.69963 0.0
C939 C 0.60421 0.34007 0.71089 0.0
C940 C 0.5796 0.33049 0.68629 0.0
C941 C 0.57416 0.34333 0.65036 0.0
C942 C 0.64886 0.37403 0.72524 0.0
C943 C 0.55949 0.30612 0.69745 0.0
H944 H 0.65015 0.2702 0.78434 0.0
H945 H 0.60238 0.32851 0.84263 0.0
H946 H 0.62228 0.28447 0.69119 0.0
H947 H 0.65347 0.30852 0.70028 0.0
H948 H 0.65397 0.27257 0.71865 0.0
H949 H 0.5763 0.36392 0.81062 0.0
H950 H 0.59406 0.37911 0.77146 0.0
H951 H 0.56296 0.35508 0.76172 0.0
H952 H 0.6314 0.3922 0.65429 0.0
H953 H 0.55541 0.33583 0.63144 0.0
H954 H 0.66418 0.35696 0.72953 0.0
H955 H 0.64288 0.37975 0.75385 0.0
H956 H 0.65999 0.39309 0.71314 0.0
H957 H 0.57105 0.28619 0.70034 0.0
H958 H 0.54039 0.30235 0.67606 0.0
H959 H 0.55205 0.31053 0.72568 0.0
C960 C 0.93921 0.34857 0.04515 0.0
C961 C 0.93494 0.35149 0.08384 0.0
C962 C 0.91647 0.34229 1.0173 0.0
C963 C 0.88834 0.33772 1.0283 0.0
C964 C 0.88382 0.33877 0.06756 0.0
C965 C 0.9073 0.34605 0.09507 0.0
C966 C 0.92292 0.34104 0.97593 0.0
C967 C 0.85437 0.3329 0.08051 0.0
C968 C 0.8465 0.35405 0.93761 0.0
C969 C 0.85085 0.32889 0.91801 0.0
C970 C 0.85378 0.35625 0.9773 0.0
C971 C 0.86451 0.33239 0.99749 0.0
C972 C 0.86188 0.30535 0.97941 0.0
C973 C 0.85589 0.30397 0.93957 0.0
C974 C 0.85534 0.38537 0.99584 0.0
C975 C 0.87125 0.27897 1.00068 0.0
H976 H 0.96056 0.35177 0.03604 0.0
H977 H 0.90393 0.34791 0.125 0.0
H978 H 0.91796 0.31904 0.96447 0.0
H979 H 0.9096 0.3557 0.95803 0.0
H980 H 0.94582 0.34711 0.97252 0.0
H981 H 0.85574 0.32621 0.11098 0.0
H982 H 0.84261 0.35269 0.07779 0.0
H983 H 0.84163 0.31607 0.06269 0.0
H984 H 0.84063 0.37298 0.92167 0.0
H985 H 0.8588 0.28394 0.9257 0.0
H986 H 0.87753 0.39529 0.996 0.0
H987 H 0.85026 0.38375 1.02591 0.0
H988 H 0.84037 0.39971 0.97991 0.0
H989 H 0.86592 0.27938 0.0307 0.0
H990 H 0.8949 0.27815 1.00132 0.0
H991 H 0.86101 0.25919 0.98633 0.0
C992 C 0.86721 0.67425 0.25494 0.0
C993 C 0.88749 0.68317 0.28533 0.0
C994 C 0.87575 0.66214 0.22183 0.0
C995 C 0.90533 0.65895 0.2192 0.0
C996 C 0.92584 0.66734 0.25043 0.0
C997 C 0.91662 0.67944 0.28325 0.0
C998 C 0.85317 0.65344 0.18933 0.0
C999 C 0.95752 0.66428 0.24876 0.0
C1000 C 0.92279 0.60778 0.14235 0.0
C1001 C 0.92782 0.62652 0.11217 0.0
C1002 C 0.91627 0.61808 0.17775 0.0
C1003 C 0.91467 0.64784 0.18312 0.0
C1004 C 0.92042 0.66693 0.15316 0.0
C1005 C 0.92695 0.65606 0.11809 0.0
C1006 C 0.91028 0.59704 0.209 0.0
C1007 C 0.91906 0.69884 0.15786 0.0
H1008 H 0.84466 0.67704 0.25688 0.0
H1009 H 0.93219 0.68658 0.30691 0.0
H1010 H 0.85472 0.63069 0.1816 0.0
H1011 H 0.83103 0.65632 0.19657 0.0
H1012 H 0.85686 0.6664 0.16362 0.0
H1013 H 0.97044 0.67009 0.27634 0.0
H1014 H 0.96134 0.64197 0.24126 0.0
H1015 H 0.96531 0.67827 0.22599 0.0
H1016 H 0.92312 0.58492 0.13796 0.0
H1017 H 0.93129 0.67072 0.09518 0.0
H1018 H 0.88757 0.59766 0.21503 0.0
H1019 H 0.92397 0.60301 0.23588 0.0
H1020 H 0.91418 0.57478 0.20117 0.0
H1021 H 0.89693 0.70381 0.16281 0.0
H1022 H 0.9252 0.71089 0.13237 0.0
H1023 H 0.93355 0.70656 0.18329 0.0
C1024 C 0.48211 0.36333 0.5332 0.0
C1025 C 0.46682 0.36251 0.49658 0.0
C1026 C 0.46878 0.35459 0.56562 0.0
C1027 C 0.43939 0.34475 0.56141 0.0
C1028 C 0.42396 0.34333 0.52448 0.0
C1029 C 0.43784 0.35225 0.49252 0.0
C1030 C 0.48603 0.35644 0.60448 0.0
C1031 C 0.39265 0.33285 0.5188 0.0
C1032 C 0.4116 0.30314 0.64467 0.0
C1033 C 0.39891 0.32445 0.6639 0.0
C1034 C 0.42426 0.30922 0.61076 0.0
C1035 C 0.42453 0.33735 0.59592 0.0
C1036 C 0.41132 0.3588 0.61476 0.0
C1037 C 0.39852 0.35205 0.64827 0.0
C1038 C 0.43783 0.28568 0.59124 0.0
C1039 C 0.41116 0.38907 0.59986 0.0
H1040 H 0.50452 0.37114 0.53674 0.0
H1041 H 0.42584 0.35143 0.46439 0.0
H1042 H 0.47649 0.37153 0.62306 0.0
H1043 H 0.4853 0.33524 0.6186 0.0
H1044 H 0.50887 0.36377 0.60272 0.0
H1045 H 0.3841 0.33171 0.48807 0.0
H1046 H 0.38965 0.31132 0.53155 0.0
H1047 H 0.3797 0.34737 0.53374 0.0
H1048 H 0.41231 0.28182 0.65661 0.0
H1049 H 0.38823 0.36852 0.66234 0.0
H1050 H 0.46129 0.29091 0.59176 0.0
H1051 H 0.42886 0.28388 0.56075 0.0
H1052 H 0.43437 0.2646 0.60516 0.0
H1053 H 0.43355 0.39823 0.59938 0.0
H1054 H 0.39968 0.40318 0.61759 0.0
H1055 H 0.40073 0.38919 0.57001 0.0
C1056 C 0.4995 0.67419 0.51114 0.0
C1057 C 0.48018 0.66895 0.53901 0.0
C1058 C 0.49052 0.68451 0.47387 0.0
C1059 C 0.46118 0.68964 0.46297 0.0
C1060 C 0.4415 0.68398 0.49076 0.0
C1061 C 0.45113 0.67401 0.52802 0.0
C1062 C 0.51268 0.69002 0.44606 0.0
C1063 C 0.40996 0.6882 0.48097 0.0
C1064 C 0.44028 0.74072 0.37824 0.0
C1065 C 0.43306 0.72199 0.34683 0.0
C1066 C 0.44959 0.73066 0.41555 0.0
C1067 C 0.45116 0.70082 0.42282 0.0
C1068 C 0.44322 0.68179 0.39135 0.0
C1069 C 0.43481 0.69249 0.35412 0.0
C1070 C 0.45829 0.75217 0.44723 0.0
C1071 C 0.44355 0.64988 0.39692 0.0
H1072 H 0.52195 0.67036 0.51849 0.0
H1073 H 0.43568 0.66998 0.54857 0.0
H1074 H 0.50777 0.67546 0.42104 0.0
H1075 H 0.51201 0.71224 0.43515 0.0
H1076 H 0.53482 0.68676 0.45923 0.0
H1077 H 0.39716 0.68245 0.50506 0.0
H1078 H 0.40693 0.71084 0.4732 0.0
H1079 H 0.40139 0.67492 0.45568 0.0
H1080 H 0.43932 0.76352 0.37349 0.0
H1081 H 0.42925 0.67753 0.3306 0.0
H1082 H 0.48099 0.74982 0.45875 0.0
H1083 H 0.44492 0.74812 0.47115 0.0
H1084 H 0.45608 0.77454 0.43739 0.0
H1085 H 0.46594 0.64396 0.4046 0.0
H1086 H 0.43446 0.63775 0.37079 0.0
H1087 H 0.43107 0.64316 0.42093 0.0
C1088 C 0.10165 0.67462 0.16681 0.0
C1089 C 0.12787 0.66519 0.18337 0.0
C1090 C 0.09039 0.66601 0.1297 0.0
C1091 C 0.10546 0.64706 0.10907 0.0
C1092 C 0.13236 0.63817 0.12526 0.0
C1093 C 0.14338 0.64757 0.16215 0.0
C1094 C 0.06198 0.67653 0.11301 0.0
C1095 C 0.14888 0.61771 0.10435 0.0
C1096 C 0.05928 0.60024 0.03544 0.0
C1097 C 0.06508 0.6136 1.00116 0.0
C1098 C 0.07297 0.61045 0.07068 0.0
C1099 C 0.09219 0.63515 0.07164 0.0
C1100 C 0.09812 0.6487 0.03701 0.0
C1101 C 0.08478 0.63748 1.00206 0.0
C1102 C 0.06657 0.59501 0.10691 0.0
C1103 C 0.11777 0.67557 0.03694 0.0
H1104 H 0.08981 0.68849 0.18313 0.0
H1105 H 0.16356 0.64013 0.17509 0.0
H1106 H 0.06386 0.68548 0.08404 0.0
H1107 H 0.04546 0.65839 0.10987 0.0
H1108 H 0.05435 0.69319 0.13124 0.0
H1109 H 0.17006 0.61388 0.12017 0.0
H1110 H 0.13616 0.59692 0.10012 0.0
H1111 H 0.15242 0.6261 0.07556 0.0
H1112 H 0.04405 0.58174 0.03466 0.0
H1113 H 0.08889 0.64808 0.97552 0.0
H1114 H 0.05569 0.6092 0.12519 0.0
H1115 H 0.08689 0.58945 0.12354 0.0
H1116 H 0.0526 0.5751 0.10098 0.0
H1117 H 0.10877 0.69285 0.05258 0.0
H1118 H 0.12068 0.68309 1.00749 0.0
H1119 H 0.13916 0.67186 0.05212 0.0
C1120 C 0.08664 0.25864 0.72987 0.0
C1121 C 0.09951 0.27621 0.7028 0.0
C1122 C 0.0804 0.2691 0.76602 0.0
C1123 C 0.08927 0.29761 0.77815 0.0
C1124 C 0.10373 0.31509 0.75182 0.0
C1125 C 0.10785 0.30461 0.71462 0.0
C1126 C 0.06389 0.24943 0.79114 0.0
C1127 C 0.11557 0.34487 0.76331 0.0
C1128 C 0.05443 0.33426 0.86064 0.0
C1129 C 0.07287 0.32888 0.89411 0.0
C1130 C 0.05938 0.32435 0.8235 0.0
C1131 C 0.08382 0.3088 0.8182 0.0
C1132 C 0.10271 0.30358 0.85169 0.0
C1133 C 0.09697 0.31328 0.88857 0.0
C1134 C 0.03785 0.33003 0.78976 0.0
C1135 C 0.12929 0.28758 0.84877 0.0
H1136 H 0.08115 0.2364 0.72284 0.0
H1137 H 0.11842 0.31861 0.69508 0.0
H1138 H 0.07805 0.24381 0.81698 0.0
H1139 H 0.04563 0.26035 0.8009 0.0
H1140 H 0.05534 0.22934 0.77607 0.0
H1141 H 0.12797 0.35523 0.74118 0.0
H1142 H 0.09778 0.35836 0.76839 0.0
H1143 H 0.12983 0.34411 0.79058 0.0
H1144 H 0.03549 0.34578 0.86344 0.0
H1145 H 0.11195 0.30893 0.91319 0.0
H1146 H 0.02932 0.30948 0.77596 0.0
H1147 H 0.04846 0.34282 0.76799 0.0
H1148 H 0.01957 0.34167 0.7981 0.0
H1149 H 0.12305 0.26458 0.84342 0.0
H1150 H 0.14435 0.28944 0.87541 0.0
H1151 H 0.14076 0.29562 0.82442 0.0
C1152 C -0.00204 0.31525 0.22398 0.0
C1153 C 0.99439 0.31127 0.18392 0.0
C1154 C 0.98407 0.29587 0.24746 0.0
C1155 C 0.97092 0.27084 0.23011 0.0
C1156 C 0.95873 0.27319 0.19148 0.0
C1157 C 0.97278 0.29192 0.16759 0.0
C1158 C 0.98845 0.29844 0.29045 0.0
C1159 C 0.93426 0.25341 0.17413 0.0
C1160 C 0.02159 0.22742 0.19719 0.0
C1161 C 0.00205 0.20462 0.18642 0.0
C1162 C 0.01568 0.24641 0.22521 0.0
C1163 C 0.98746 0.24508 0.23733 0.0
C1164 C 0.97118 0.21883 0.23351 0.0
C1165 C 0.97799 0.19913 0.2067 0.0
C1166 C 0.04009 0.26705 0.24114 0.0
C1167 C 0.94531 0.21282 0.25499 0.0
H1168 H 0.01267 0.33219 0.23692 0.0
H1169 H 0.96704 0.29133 0.13684 0.0
H1170 H 0.96719 0.29896 0.30141 0.0
H1171 H -0.00181 0.2793 0.30348 0.0
H1172 H 0.00204 0.31794 0.3001 0.0
H1173 H 0.921 0.2646 0.15141 0.0
H1174 H 0.9428 0.23495 0.16038 0.0
H1175 H 0.92031 0.24564 0.19607 0.0
H1176 H 0.04223 0.22936 0.18572 0.0
H1177 H 0.96448 0.17962 0.20139 0.0
H1178 H 0.03646 0.27665 0.26874 0.0
H1179 H 0.04412 0.28397 0.21986 0.0
H1180 H 0.06025 0.25574 0.24598 0.0
H1181 H 0.95099 0.19761 0.2784 0.0
H1182 H 0.92715 0.20248 0.23594 0.0
H1183 H 0.93841 0.23244 0.26808 0.0
C1184 C 0.94663 0.75028 0.45908 0.0
C1185 C 0.9363 0.73947 0.42281 0.0
C1186 C 0.97518 0.74705 0.47393 0.0
C1187 C 0.99378 0.73427 0.45071 0.0
C1188 C 0.98271 0.72206 0.41474 0.0
C1189 C 0.95382 0.72426 0.40172 0.0
C1190 C 0.98526 0.75851 0.51351 0.0
C1191 C 0.00173 0.70871 0.38841 0.0
C1192 C 0.06841 0.76013 0.43733 0.0
C1193 C 0.08173 0.73438 0.44234 0.0
C1194 C 0.04015 0.76199 0.44583 0.0
C1195 C 0.02531 0.73749 0.45975 0.0
C1196 C 0.04043 0.71326 0.47109 0.0
C1197 C 0.0685 0.71167 0.46141 0.0
C1198 C 0.02518 0.78893 0.43549 0.0
C1199 C 0.02604 0.68797 0.48973 0.0
H1200 H 0.93258 0.76159 0.47555 0.0
H1201 H 0.94545 0.71591 0.37366 0.0
H1202 H 0.00643 0.75103 0.52495 0.0
H1203 H 0.9867 0.78224 0.51289 0.0
H1204 H 0.96923 0.7519 0.53352 0.0
H1205 H 0.98967 0.70123 0.36091 0.0
H1206 H 0.01927 0.72443 0.38186 0.0
H1207 H 0.01178 0.69014 0.40252 0.0
H1208 H 0.07915 0.77807 0.42389 0.0
H1209 H 0.07934 0.69212 0.46684 0.0
H1210 H 0.01403 0.79593 0.4598 0.0
H1211 H 0.00872 0.78465 0.41069 0.0
H1212 H 0.04039 0.80671 0.42793 0.0
H1213 H 0.01031 0.69504 0.50868 0.0
H1214 H 0.04208 0.67535 0.50674 0.0
H1215 H 0.01425 0.67372 0.46736 0.0
C1216 C 0.48322 0.69195 0.72401 0.0
C1217 C 0.51088 0.70006 0.71424 0.0
C1218 C 0.46993 0.70944 0.7482 0.0
C1219 C 0.48266 0.73701 0.75534 0.0
C1220 C 0.51324 0.73934 0.75861 0.0
C1221 C 0.52705 0.72188 0.73516 0.0
C1222 C 0.44042 0.70146 0.75955 0.0
C1223 C 0.53095 0.76184 0.78274 0.0
C1224 C 0.47644 0.77452 0.6672 0.0
C1225 C 0.49044 0.79974 0.6818 0.0
C1226 C 0.46325 0.75556 0.69155 0.0
C1227 C 0.46868 0.76002 0.73202 0.0
C1228 C 0.47612 0.78816 0.74481 0.0
C1229 C 0.48842 0.80753 0.71985 0.0
C1230 C 0.44245 0.73245 0.6731 0.0
C1231 C 0.47333 0.79671 0.78544 0.0
H1232 H 0.47159 0.67331 0.71123 0.0
H1233 H 0.54973 0.726 0.73215 0.0
H1234 H 0.42847 0.72069 0.76387 0.0
H1235 H 0.42776 0.68708 0.73802 0.0
H1236 H 0.44275 0.69 0.78724 0.0
H1237 H 0.55287 0.75482 0.79131 0.0
H1238 H 0.53346 0.78175 0.76602 0.0
H1239 H 0.52078 0.76637 0.80898 0.0
H1240 H 0.47446 0.77034 0.63661 0.0
H1241 H 0.49755 0.82803 0.73045 0.0
H1242 H 0.42628 0.72497 0.69223 0.0
H1243 H 0.45422 0.7144 0.66379 0.0
H1244 H 0.43059 0.74069 0.6467 0.0
H1245 H 0.47047 0.77796 0.80438 0.0
H1246 H 0.45386 0.80884 0.78544 0.0
H1247 H 0.49218 0.81076 0.79721 0.0
C1248 C 0.56844 0.21729 0.9704 0.0
C1249 C 0.58185 0.23893 0.94967 0.0
C1250 C 0.53983 0.2189 0.9779 0.0
C1251 C 0.52441 0.24206 0.9629 0.0
C1252 C 0.53917 0.26572 0.94683 0.0
C1253 C 0.56794 0.26392 0.94058 0.0
C1254 C 0.52546 0.19471 0.99872 0.0
C1255 C 0.52381 0.29156 0.93229 0.0
C1256 C 0.45303 0.22592 0.90551 0.0
C1257 C 0.43547 0.24269 0.9245 0.0
C1258 C 0.48187 0.22407 0.91929 0.0
C1259 C 0.49286 0.23832 0.95392 0.0
C1260 C 0.47418 0.25265 0.97537 0.0
C1261 C 0.44571 0.25538 0.95975 0.0
C1262 C 0.50099 0.20884 0.895 0.0
C1263 C 0.48414 0.26625 1.01378 0.0
H1264 H 0.57975 0.19848 0.97904 0.0
H1265 H 0.57877 0.28112 0.92583 0.0
H1266 H 0.5087 0.20257 1.0154 0.0
H1267 H 0.51494 0.17867 0.97769 0.0
H1268 H 0.54137 0.1838 1.01839 0.0
H1269 H 0.53883 0.30881 0.92279 0.0
H1270 H 0.50773 0.28527 0.90775 0.0
H1271 H 0.51215 0.30025 0.95507 0.0
H1272 H 0.44476 0.21596 0.87835 0.0
H1273 H 0.43162 0.26773 0.97483 0.0
H1274 H 0.51123 0.19139 0.91155 0.0
H1275 H 0.51841 0.22401 0.8866 0.0
H1276 H 0.48898 0.19944 0.86852 0.0
H1277 H 0.505 0.2588 1.02653 0.0
H1278 H 0.46778 0.26142 0.03399 0.0
H1279 H 0.48622 0.28984 1.01062 0.0
C1280 C 0.04604 0.80222 0.90964 0.0
C1281 C 0.02257 0.8179 0.89691 0.0
C1282 C 0.04672 0.77372 0.89868 0.0
C1283 C 0.02279 0.76068 0.87584 0.0
C1284 C 0.00024 0.77722 0.86021 0.0
C1285 C 0.00058 0.80601 0.87071 0.0
C1286 C 0.07164 0.75694 0.91467 0.0
C1287 C 0.97438 0.76391 0.83576 0.0
C1288 C 0.02156 0.68192 0.85161 0.0
C1289 C 0.00743 0.67041 0.88175 0.0
C1290 C 0.02685 0.7116 0.84887 0.0
C1291 C 0.01785 0.72943 0.87719 0.0
C1292 C 0.00406 0.71749 0.90807 0.0
C1293 C -0.00111 0.688 0.90979 0.0
C1294 C 0.04153 0.72381 0.81565 0.0
C1295 C 0.99469 0.73581 0.93934 0.0
H1296 H 0.06361 0.81208 0.92877 0.0
H1297 H 0.9829 0.81872 0.86025 0.0
H1298 H 0.06551 0.74454 0.93984 0.0
H1299 H 0.0773 0.74154 0.89319 0.0
H1300 H 0.09097 0.77123 0.92402 0.0
H1301 H 0.96175 0.78033 0.8201 0.0
H1302 H 0.98095 0.74864 0.81478 0.0
H1303 H 0.96021 0.75178 0.85437 0.0
H1304 H 0.02794 0.6678 0.83005 0.0
H1305 H 0.98813 0.67856 0.93313 0.0
H1306 H 0.05918 0.7398 0.82581 0.0
H1307 H 0.02586 0.73501 0.79609 0.0
H1308 H 0.05042 0.70693 0.79907 0.0
H1309 H 0.01361 0.74811 0.95432 0.0
H1310 H 0.98391 0.72292 0.96094 0.0
H1311 H 0.97964 0.75144 0.92677 0.0
C1312 C 0.52732 0.69434 0.05269 0.0
C1313 C 0.54705 0.71641 0.04397 0.0
C1314 C 0.50865 0.69938 0.08011 0.0
C1315 C 0.51066 0.72682 0.09732 0.0
C1316 C 0.52578 0.75008 0.08043 0.0
C1317 C 0.54053 0.74451 0.04928 0.0
C1318 C 0.48754 0.67568 0.09045 0.0
C1319 C 0.52822 0.78028 0.09628 0.0
C1320 C 0.46664 0.76734 0.15462 0.0
C1321 C 0.47583 0.75991 0.19206 0.0
C1322 C 0.4732 0.75132 0.12408 0.0
C1323 C 0.49529 0.73267 0.13024 0.0
C1324 C 0.50687 0.72634 0.16807 0.0
C1325 C 0.49539 0.73875 0.19901 0.0
C1326 C 0.45734 0.75544 0.08511 0.0
C1327 C 0.53192 0.70777 0.17566 0.0
H1328 H 0.52988 0.67263 0.04366 0.0
H1329 H 0.55381 0.76162 0.03791 0.0
H1330 H 0.48347 0.6765 0.12093 0.0
H1331 H 0.46678 0.67814 0.07285 0.0
H1332 H 0.49481 0.65429 0.08401 0.0
H1333 H 0.54812 0.79232 0.08904 0.0
H1334 H 0.50971 0.7919 0.08363 0.0
H1335 H 0.52821 0.78054 0.12783 0.0
H1336 H 0.45366 0.78522 0.14915 0.0
H1337 H 0.5026 0.73307 0.22822 0.0
H1338 H 0.46738 0.74648 0.06106 0.0
H1339 H 0.45462 0.77841 0.08009 0.0
H1340 H 0.43598 0.74396 0.08458 0.0
H1341 H 0.52607 0.68605 0.16364 0.0
H1342 H 0.53892 0.70586 0.20674 0.0
H1343 H 0.55034 0.71688 0.16115 0.0
C1344 C 0.53148 0.18935 0.38201 0.0
C1345 C 0.50739 0.17314 0.36515 0.0
C1346 C 0.53617 0.21806 0.37234 0.0
C1347 C 0.51666 0.23028 0.34433 0.0
C1348 C 0.49513 0.21262 0.32295 0.0
C1349 C 0.49015 0.18422 0.33439 0.0
C1350 C 0.56016 0.2359 0.39493 0.0
C1351 C 0.47604 0.22407 0.28997 0.0
C1352 C 0.49918 0.30139 0.38046 0.0
C1353 C 0.52172 0.31887 0.3684 0.0
C1354 C 0.49562 0.2726 0.36983 0.0
C1355 C 0.51444 0.26156 0.34526 0.0
C1356 C 0.53474 0.28023 0.32894 0.0
C1357 C 0.53867 0.30872 0.34153 0.0
C1358 C 0.47354 0.25356 0.38796 0.0
C1359 C 0.55352 0.27017 0.30005 0.0
H1360 H 0.54529 0.18032 0.40505 0.0
H1361 H 0.47222 0.1711 0.32021 0.0
H1362 H 0.57433 0.24665 0.37519 0.0
H1363 H 0.55109 0.25278 0.41126 0.0
H1364 H 0.57351 0.22291 0.41544 0.0
H1365 H 0.47093 0.20751 0.26726 0.0
H1366 H 0.45542 0.22957 0.29998 0.0
H1367 H 0.48622 0.24344 0.27738 0.0
H1368 H 0.48578 0.30962 0.40071 0.0
H1369 H 0.55547 0.32276 0.33117 0.0
H1370 H 0.48426 0.23658 0.40503 0.0
H1371 H 0.45815 0.24294 0.36544 0.0
H1372 H 0.46115 0.26561 0.40707 0.0
H1373 H 0.57606 0.27013 0.31338 0.0
H1374 H 0.55341 0.2854 0.27579 0.0
H1375 H 0.54647 0.24851 0.28857 0.0
C1376 C 0.04518 0.29016 0.55925 0.0
C1377 C 0.03978 0.26182 0.54675 0.0
C1378 C 0.03447 0.2977 0.59332 0.0
C1379 C 0.01249 0.27931 0.60694 0.0
C1380 C -0.00086 0.2568 0.58272 0.0
C1381 C 0.0129 0.24863 0.55141 0.0
C1382 C 0.04961 0.32256 0.61622 0.0
C1383 C 0.97327 0.23853 0.59233 0.0
C1384 C 0.00394 0.25091 0.70565 0.0
C1385 C 0.98728 0.27132 0.71917 0.0
C1386 C 0.01511 0.25489 0.67059 0.0
C1387 C 0.00782 0.27915 0.64796 0.0
C1388 C 0.99382 0.30135 0.66403 0.0
C1389 C 0.98519 0.29771 0.70069 0.0
C1390 C 0.03204 0.23145 0.65664 0.0
C1391 C 0.98547 0.32784 0.64214 0.0
H1392 H 0.06391 0.30225 0.55059 0.0
H1393 H 0.00623 0.22838 0.5372 0.0
H1394 H 0.03892 0.34233 0.60755 0.0
H1395 H 0.04941 0.31963 0.64752 0.0
H1396 H 0.07238 0.32597 0.61022 0.0
H1397 H 0.95808 0.23506 0.56621 0.0
H1398 H 0.97953 0.21688 0.60091 0.0
H1399 H 0.96236 0.24793 0.61536 0.0
H1400 H 0.00562 0.23059 0.72031 0.0
H1401 H 0.97232 0.31356 0.71181 0.0
H1402 H 0.04657 0.23935 0.63556 0.0
H1403 H 0.01731 0.21394 0.64355 0.0
H1404 H 0.04467 0.22156 0.68088 0.0
H1405 H 0.00227 0.34532 0.64935 0.0
H1406 H 0.96519 0.33545 0.65085 0.0
H1407 H 0.98282 0.32442 0.6107 0.0
C1408 C 0.02486 0.04116 0.10253 0.0
C1409 C 0.01135 0.06627 0.09278 0.0
C1410 C 0.02837 0.02102 0.074 0.0
C1411 C 0.01822 0.02662 0.0354 0.0
C1412 C 0.00735 0.05337 1.02538 0.0
C1413 C 0.00391 0.07277 0.05429 0.0
C1414 C 0.04036 0.99279 0.08551 0.0
C1415 C -0.00375 0.0603 0.98464 0.0
C1416 C 0.02722 0.98174 0.94858 0.0
C1417 C 0.00044 0.96634 0.94337 0.0
C1418 C 0.0343 0.00018 0.98011 0.0
C1419 C 0.01392 0.00337 1.00649 0.0
C1420 C 0.9872 0.98711 1.00188 0.0
C1421 C 0.98077 0.96888 0.97025 0.0
C1422 C 0.06313 0.01684 0.98463 0.0
C1423 C 0.96481 0.98983 0.0294 0.0
H1424 H 0.03031 0.03615 0.13247 0.0
H1425 H 0.99331 0.09221 0.04693 0.0
H1426 H 0.02265 0.97577 0.08381 0.0
H1427 H 0.05584 0.98671 0.06564 0.0
H1428 H 0.05123 0.99344 0.11521 0.0
H1429 H 0.99174 0.0832 0.98115 0.0
H1430 H 0.01195 0.05513 0.96462 0.0
H1431 H 0.97603 0.04711 0.97622 0.0
H1432 H 0.04255 0.97945 0.92792 0.0
H1433 H 0.96024 0.95658 0.9666 0.0
H1434 H 0.07391 0.01405 1.01394 0.0
H1435 H 0.06012 0.04 0.98082 0.0
H1436 H 0.07748 0.01011 0.96357 0.0
H1437 H 0.9744 0.98709 0.05931 0.0
H1438 H 0.9463 0.97382 1.02357 0.0
H1439 H 0.95664 0.01153 1.02715 0.0
C1440 C 0.24983 0.75693 0.38793 0.0
C1441 C 0.22453 0.7702 0.37687 0.0
C1442 C 0.26923 0.75219 0.36122 0.0
C1443 C 0.26221 0.75946 0.32221 0.0
C1444 C 0.23587 0.77173 0.31077 0.0
C1445 C 0.21773 0.77768 0.33856 0.0
C1446 C 0.29725 0.73943 0.37484 0.0
C1447 C 0.22586 0.77767 0.26939 0.0
C1448 C 0.32488 0.77301 0.26341 0.0
C1449 C 0.33039 0.7451 0.254 0.0
C1450 C 0.302 0.77826 0.2846 0.0
C1451 C 0.28321 0.75507 0.2943 0.0
C1452 C 0.28662 0.7273 0.28048 0.0
C1453 C 0.31063 0.72253 0.2613 0.0
C1454 C 0.29877 0.80833 0.29819 0.0
C1455 C 0.26486 0.7027 0.28531 0.0
H1456 H 0.2548 0.75106 0.41766 0.0
H1457 H 0.19785 0.78763 0.33013 0.0
H1458 H 0.29685 0.71717 0.36401 0.0
H1459 H 0.31551 0.75172 0.36345 0.0
H1460 H 0.30123 0.739 0.40658 0.0
H1461 H 0.2137 0.79728 0.26692 0.0
H1462 H 0.24364 0.78003 0.25098 0.0
H1463 H 0.21097 0.75954 0.25803 0.0
H1464 H 0.3394 0.7905 0.25634 0.0
H1465 H 0.31413 0.70101 0.2524 0.0
H1466 H 0.29961 0.80878 0.3299 0.0
H1467 H 0.27757 0.81558 0.28657 0.0
H1468 H 0.31573 0.82382 0.28922 0.0
H1469 H 0.27364 0.68169 0.28065 0.0
H1470 H 0.2461 0.70494 0.26372 0.0
H1471 H 0.25696 0.70273 0.31397 0.0
C1472 C 0.53851 0.0406 0.49432 0.0
C1473 C 0.52328 0.03406 0.4586 0.0
C1474 C 0.53351 0.02441 0.52664 0.0
C1475 C 0.51343 0.00046 0.52282 0.0
C1476 C 0.49698 -0.00552 0.48713 0.0
C1477 C 0.50189 0.0117 0.45531 0.0
C1478 C 0.55068 0.03222 0.56447 0.0
C1479 C 0.47522 0.9692 0.48226 0.0
C1480 C 0.53159 0.94049 0.59169 0.0
C1481 C 0.51287 0.94419 0.61946 0.0
C1482 C 0.53132 0.95819 0.55948 0.0
C1483 C 0.512 0.98026 0.55522 0.0
C1484 C 0.49296 0.98409 0.58318 0.0
C1485 C 0.49369 0.96599 0.61512 0.0
C1486 C 0.552 0.9535 0.53026 0.0
C1487 C 0.4723 0.00761 0.57986 0.0
H1488 H 0.55474 0.05826 0.49697 0.0
H1489 H 0.49 0.00691 0.42764 0.0
H1490 H 0.56517 0.01505 0.57326 0.0
H1491 H 0.56391 0.0527 0.56306 0.0
H1492 H 0.5361 0.03417 0.58708 0.0
H1493 H 0.48637 0.94907 0.48628 0.0
H1494 H 0.46003 0.96971 0.50439 0.0
H1495 H 0.46276 0.96867 0.45352 0.0
H1496 H 0.54654 0.9238 0.59527 0.0
H1497 H 0.47907 0.96881 0.63654 0.0
H1498 H 0.56708 0.97268 0.52897 0.0
H1499 H 0.54007 0.95042 0.5014 0.0
H1500 H 0.56474 0.93462 0.53699 0.0
H1501 H 0.4844 0.02855 0.58589 0.0
H1502 H 0.45584 0.00474 0.60033 0.0
H1503 H 0.46124 0.00856 0.55041 0.0
C1504 C 0.27148 0.18812 0.80173 0.0
C1505 C 0.28409 0.21296 0.82062 0.0
C1506 C 0.25098 0.18951 0.76982 0.0
C1507 C 0.24313 0.21646 0.75575 0.0
C1508 C 0.25534 0.24171 0.77508 0.0
C1509 C 0.27535 0.23963 0.80775 0.0
C1510 C 0.23805 0.16206 0.75079 0.0
C1511 C 0.2476 0.27091 0.76087 0.0
C1512 C 0.21144 0.22245 0.65164 0.0
C1513 C 0.18218 0.22394 0.65556 0.0
C1514 C 0.2315 0.21929 0.68392 0.0
C1515 C 0.22201 0.21804 0.72096 0.0
C1516 C 0.19228 0.21838 0.72476 0.0
C1517 C 0.17276 0.2212 0.692 0.0
C1518 C 0.26301 0.219 0.67859 0.0
C1519 C 0.18117 0.21714 0.76356 0.0
H1520 H 0.27785 0.16734 0.8117 0.0
H1521 H 0.28448 0.25881 0.82272 0.0
H1522 H 0.21428 0.16119 0.74978 0.0
H1523 H 0.24341 0.16134 0.7208 0.0
H1524 H 0.24588 0.14278 0.76593 0.0
H1525 H 0.25915 0.28842 0.7788 0.0
H1526 H 0.25287 0.27375 0.73097 0.0
H1527 H 0.22413 0.27285 0.76064 0.0
H1528 H 0.21887 0.22571 0.62365 0.0
H1529 H 0.15026 0.22322 0.69524 0.0
H1530 H 0.27228 0.20003 0.69279 0.0
H1531 H 0.27481 0.23825 0.69231 0.0
H1532 H 0.26675 0.21868 0.64789 0.0
H1533 H 0.1577 0.21977 0.76165 0.0
H1534 H 0.19237 0.23416 0.78257 0.0
H1535 H 0.18569 0.19632 0.77723 0.0
C1536 C 0.71822 0.27129 0.84385 0.0
C1537 C 0.72621 0.26945 0.88321 0.0
C1538 C 0.73618 0.26231 0.81741 0.0
C1539 C 0.7638 0.25334 0.8308 0.0
C1540 C 0.77194 0.25183 0.87095 0.0
C1541 C 0.75263 0.25921 0.89657 0.0
C1542 C 0.72461 0.26192 0.77559 0.0
C1543 C 0.80071 0.24236 0.88799 0.0
C1544 C 0.81543 0.21201 0.78 0.0
C1545 C 0.83065 0.23406 0.76219 0.0
C1546 C 0.79162 0.21758 0.79919 0.0
C1547 C 0.78441 0.24623 0.80332 0.0
C1548 C 0.79867 0.26829 0.78334 0.0
C1549 C 0.82063 0.26154 0.76131 0.0
C1550 C 0.77528 0.19284 0.81647 0.0
C1551 C 0.79193 0.29924 0.7866 0.0
H1552 H 0.69744 0.27884 0.83364 0.0
H1553 H 0.75852 0.2576 0.92718 0.0
H1554 H 0.73866 0.25188 0.75674 0.0
H1555 H 0.70315 0.25009 0.77198 0.0
H1556 H 0.72131 0.28414 0.7659 0.0
H1557 H 0.80987 0.25718 0.91144 0.0
H1558 H 0.79751 0.22098 0.90113 0.0
H1559 H 0.81665 0.24109 0.86706 0.0
H1560 H 0.82231 0.19039 0.77937 0.0
H1561 H 0.83148 0.27831 0.74598 0.0
H1562 H 0.75272 0.19753 0.81944 0.0
H1563 H 0.78608 0.18818 0.84523 0.0
H1564 H 0.77515 0.17324 0.79869 0.0
H1565 H 0.77143 0.30278 0.76906 0.0
H1566 H 0.80886 0.31406 0.77618 0.0
H1567 H 0.78955 0.30493 0.81673 0.0
C1568 C 0.76148 0.72554 0.31261 0.0
C1569 C 0.79078 0.72156 0.31335 0.0
C1570 C 0.74464 0.72963 0.27769 0.0
C1571 C 0.75773 0.73035 0.24296 0.0
C1572 C 0.78757 0.72707 0.24397 0.0
C1573 C 0.80351 0.72211 0.27908 0.0
C1574 C 0.71299 0.73351 0.27845 0.0
C1575 C 0.80278 0.729 0.20813 0.0
C1576 C 0.70964 0.71761 0.14933 0.0
C1577 C 0.70092 0.74516 0.14154 0.0
C1578 C 0.72833 0.71227 0.1823 0.0
C1579 C 0.74042 0.73549 0.20586 0.0
C1580 C 0.7345 0.76373 0.19511 0.0
C1581 C 0.71434 0.76816 0.16366 0.0
C1582 C 0.73313 0.68174 0.19367 0.0
C1583 C 0.74822 0.78923 0.21799 0.0
H1584 H 0.7516 0.72482 0.33919 0.0
H1585 H 0.82603 0.71877 0.27964 0.0
H1586 H 0.70982 0.75661 0.2816 0.0
H1587 H 0.70017 0.72575 0.25174 0.0
H1588 H 0.70449 0.72221 0.30315 0.0
H1589 H 0.82652 0.72933 0.21457 0.0
H1590 H 0.79564 0.71041 0.18923 0.0
H1591 H 0.79731 0.74861 0.19191 0.0
H1592 H 0.70018 0.70002 0.13156 0.0
H1593 H 0.70834 0.78973 0.15715 0.0
H1594 H 0.72436 0.67721 0.22138 0.0
H1595 H 0.75642 0.67838 0.19798 0.0
H1596 H 0.72258 0.66613 0.17199 0.0
H1597 H 0.7382 0.79072 0.24508 0.0
H1598 H 0.74548 0.80956 0.2021 0.0
H1599 H 0.77153 0.78686 0.22556 0.0
C1600 C 0.52892 0.54913 0.60083 0.0
C1601 C 0.50686 0.56753 0.59158 0.0
C1602 C 0.53329 0.52681 0.57552 0.0
C1603 C 0.51516 0.52313 0.54061 0.0
C1604 C 0.49358 0.54236 0.53094 0.0
C1605 C 0.48988 0.56426 0.55635 0.0
C1606 C 0.55674 0.50685 0.58634 0.0
C1607 C 0.47348 0.53923 0.49431 0.0
C1608 C 0.52561 0.48258 0.45098 0.0
C1609 C 0.50456 0.46012 0.45251 0.0
C1610 C 0.53172 0.50208 0.48161 0.0
C1611 C 0.51679 0.49846 0.51455 0.0
C1612 C 0.49777 0.47398 0.51757 0.0
C1613 C 0.49155 0.45536 0.48624 0.0
C1614 C 0.552 0.52797 0.47718 0.0
C1615 C 0.48178 0.46884 0.55235 0.0
H1616 H 0.54217 0.55177 0.62796 0.0
H1617 H 0.47303 0.57866 0.54873 0.0
H1618 H 0.5475 0.48445 0.58681 0.0
H1619 H 0.57223 0.5079 0.56453 0.0
H1620 H 0.56857 0.51217 0.6148 0.0
H1621 H 0.45857 0.55673 0.49052 0.0
H1622 H 0.48594 0.53906 0.46918 0.0
H1623 H 0.46042 0.51859 0.4944 0.0
H1624 H 0.53599 0.48588 0.42502 0.0
H1625 H 0.47585 0.43744 0.48779 0.0
H1626 H 0.56588 0.53279 0.50427 0.0
H1627 H 0.53936 0.54687 0.47024 0.0
H1628 H 0.56582 0.52503 0.45387 0.0
H1629 H 0.49596 0.47404 0.57907 0.0
H1630 H 0.47296 0.4463 0.55378 0.0
H1631 H 0.4636 0.48294 0.55104 0.0
C1632 C 0.98765 0.51198 0.94099 0.0
C1633 C 0.0165 0.51613 0.93426 0.0
C1634 C 0.98004 0.49776 0.974 0.0
C1635 C 0.00149 0.4846 0.99811 0.0
C1636 C 0.02985 0.48478 0.98754 0.0
C1637 C 0.03727 0.50149 0.95656 0.0
C1638 C 0.94945 0.49811 0.98376 0.0
C1639 C 0.05281 0.46832 1.00952 0.0
C1640 C 0.00546 0.47141 0.10481 0.0
C1641 C 0.99066 0.44463 0.10587 0.0
C1642 C 0.00658 0.486 0.07002 0.0
C1643 C 0.99505 0.47206 0.03532 0.0
C1644 C 0.97915 0.44536 0.03676 0.0
C1645 C 0.97566 0.43303 0.07238 0.0
C1646 C 0.02086 0.51589 0.07079 0.0
C1647 C 0.96683 0.42852 1.00148 0.0
H1648 H 0.97134 0.52183 0.92215 0.0
H1649 H 0.05949 0.50362 0.95043 0.0
H1650 H 0.93794 0.4771 0.97652 0.0
H1651 H 0.94884 0.50214 1.0148 0.0
H1652 H 0.93745 0.5146 0.96736 0.0
H1653 H 0.06472 0.48224 0.03215 0.0
H1654 H 0.04358 0.44895 1.0232 0.0
H1655 H 0.06862 0.46165 0.9904 0.0
H1656 H 0.01629 0.48085 0.13106 0.0
H1657 H 0.96214 0.4136 0.07349 0.0
H1658 H 0.01309 0.52861 0.04555 0.0
H1659 H 0.04444 0.51472 0.07138 0.0
H1660 H 0.01689 0.52745 0.09712 0.0
H1661 H 0.94303 0.42852 0.99883 0.0
H1662 H 0.97219 0.40583 1.00466 0.0
H1663 H 0.97468 0.43682 0.97464 0.0
C1664 C 0.06932 0.14767 0.29232 0.0
C1665 C 0.03966 0.14587 0.27963 0.0
C1666 C 0.08057 0.15974 0.32836 0.0
C1667 C 0.06207 0.17088 0.35342 0.0
C1668 C 0.03203 0.16912 0.3409 0.0
C1669 C 0.02129 0.15674 0.30461 0.0
C1670 C 0.11258 0.16069 0.33956 0.0
C1671 C 0.01108 0.18061 0.3658 0.0
C1672 C 0.08924 0.17581 0.46178 0.0
C1673 C 0.09833 0.20497 0.46795 0.0
C1674 C 0.07733 0.16484 0.42542 0.0
C1675 C 0.07416 0.18305 0.39305 0.0
C1676 C 0.08349 0.2125 0.39878 0.0
C1677 C 0.09523 0.22303 0.43576 0.0
C1678 C 0.0679 0.13345 0.42176 0.0
C1679 C 0.08093 0.23307 0.36571 0.0
H1680 H 0.08409 0.13977 0.27371 0.0
H1681 H -0.00155 0.15625 0.29541 0.0
H1682 H 0.12105 0.18308 0.34554 0.0
H1683 H 0.11722 0.14835 0.36625 0.0
H1684 H 0.12433 0.15178 0.31693 0.0
H1685 H 0.98861 0.17857 0.35195 0.0
H1686 H 0.01209 0.16895 0.39339 0.0
H1687 H 0.01705 0.20349 0.37253 0.0
H1688 H 0.09102 0.16128 0.48581 0.0
H1689 H 0.10168 0.24557 0.43948 0.0
H1690 H 0.07998 0.12317 0.40062 0.0
H1691 H 0.04476 0.13081 0.41096 0.0
H1692 H 0.07128 0.12199 0.44942 0.0
H1693 H 0.09335 0.22594 0.34268 0.0
H1694 H 0.08888 0.25522 0.37435 0.0
H1695 H 0.05815 0.23325 0.35341 0.0
C1696 C 0.11719 0.87998 0.64421 0.0
C1697 C 0.12695 0.85264 0.6398 0.0
C1698 C 0.10818 0.88859 0.6789 0.0
C1699 C 0.10879 0.86937 0.71005 0.0
C1700 C 0.11955 0.84207 0.70632 0.0
C1701 C 0.12843 0.83397 0.67112 0.0
C1702 C 0.09638 0.91768 0.68144 0.0
C1703 C 0.12041 0.82095 0.73887 0.0
C1704 C 0.09359 0.89995 0.8059 0.0
C1705 C 0.0638 0.89387 0.80433 0.0
C1706 C 0.1089 0.89154 0.77579 0.0
C1707 C 0.09407 0.8764 0.74394 0.0
C1708 C 0.06419 0.86969 0.74278 0.0
C1709 C 0.0495 0.87874 0.77261 0.0
C1710 C 0.1408 0.89906 0.77778 0.0
C1711 C 0.04749 0.85321 0.7097 0.0
H1712 H 0.11552 0.89435 0.61998 0.0
H1713 H 0.13622 0.81292 0.66797 0.0
H1714 H 0.07288 0.9151 0.68343 0.0
H1715 H 0.10633 0.92912 0.70765 0.0
H1716 H 0.10012 0.93115 0.65616 0.0
H1717 H 0.13269 0.80222 0.73313 0.0
H1718 H 0.13021 0.8314 0.76587 0.0
H1719 H 0.09817 0.81312 0.7434 0.0
H1720 H 0.10488 0.91127 0.83047 0.0
H1721 H 0.02661 0.87336 0.77114 0.0
H1722 H 0.14537 0.91387 0.75416 0.0
H1723 H 0.15239 0.87956 0.77387 0.0
H1724 H 0.14949 0.90936 0.80543 0.0
H1725 H 0.04818 0.86578 0.68297 0.0
H1726 H 0.02461 0.84829 0.71438 0.0
H1727 H 0.05736 0.83278 0.7052 0.0
C1728 C 0.39241 0.77509 0.07523 0.0
C1729 C 0.4016 0.79152 0.10851 0.0
C1730 C 0.39863 0.78425 0.03785 0.0
C1731 C 0.41398 0.81106 0.03241 0.0
C1732 C 0.42158 0.82847 0.06565 0.0
C1733 C 0.41533 0.8187 0.10261 0.0
C1734 C 0.39017 0.7643 1.00436 0.0
C1735 C 0.43761 0.8572 0.06248 0.0
C1736 C 0.4576 0.82436 0.9441 0.0
C1737 C 0.43963 0.8403 0.91857 0.0
C1738 C 0.44965 0.81477 0.98029 0.0
C1739 C 0.4226 0.82071 0.99264 0.0
C1740 C 0.40422 0.83665 0.96695 0.0
C1741 C 0.41277 0.84605 0.93081 0.0
C1742 C 0.47043 0.79782 1.00511 0.0
C1743 C 0.37536 0.84411 0.97784 0.0
H1744 H 0.38176 0.75414 0.0786 0.0
H1745 H 0.42267 0.83197 0.1274 0.0
H1746 H 0.37812 0.77562 0.98068 0.0
H1747 H 0.40983 0.75704 0.99335 0.0
H1748 H 0.3768 0.74517 1.01223 0.0
H1749 H 0.44022 0.86927 0.08995 0.0
H1750 H 0.45925 0.85418 0.05367 0.0
H1751 H 0.42616 0.87025 0.04012 0.0
H1752 H 0.47808 0.81882 0.93559 0.0
H1753 H 0.39837 0.85847 0.91236 0.0
H1754 H 0.46097 0.77568 1.00743 0.0
H1755 H 0.47429 0.80741 0.03414 0.0
H1756 H 0.49145 0.79689 0.99339 0.0
H1757 H 0.36221 0.82429 0.98342 0.0
H1758 H 0.36332 0.85649 0.9552 0.0
H1759 H 0.37828 0.85688 1.00472 0.0
C1760 C 0.43805 0.10092 0.28838 0.0
C1761 C 0.46608 0.09187 0.29039 0.0
C1762 C 0.42414 0.1103 0.25362 0.0
C1763 C 0.43844 0.11004 0.22006 0.0
C1764 C 0.46639 0.10004 0.2218 0.0
C1765 C 0.47996 0.09134 0.25701 0.0
C1766 C 0.39461 0.12145 0.25306 0.0
C1767 C 0.48228 0.0992 0.18664 0.0
C1768 C 0.39585 0.10899 0.122 0.0
C1769 C 0.40055 0.13731 0.1098 0.0
C1770 C 0.40737 0.10011 0.15821 0.0
C1771 C 0.42422 0.11992 0.1829 0.0
C1772 C 0.4287 0.14868 0.17115 0.0
C1773 C 0.4168 0.15704 0.13472 0.0
C1774 C 0.40213 0.06928 0.16967 0.0
C1775 C 0.44629 0.17052 0.19691 0.0
H1776 H 0.42757 0.10215 0.31436 0.0
H1777 H 0.50178 0.08472 0.25864 0.0
H1778 H 0.39543 0.14429 0.24459 0.0
H1779 H 0.37933 0.10961 0.23148 0.0
H1780 H 0.38613 0.11956 0.28139 0.0
H1781 H 0.50353 0.09002 0.19264 0.0
H1782 H 0.46929 0.08627 0.1638 0.0
H1783 H 0.48568 0.12115 0.17532 0.0
H1784 H 0.38376 0.09346 0.10277 0.0
H1785 H 0.42021 0.17904 0.12575 0.0
H1786 H 0.39247 0.06812 0.19718 0.0
H1787 H 0.42287 0.05902 0.17414 0.0
H1788 H 0.38764 0.0568 0.14775 0.0
H1789 H 0.43676 0.17216 0.22435 0.0
H1790 H 0.44758 0.19206 0.18367 0.0
H1791 H 0.46843 0.16365 0.20385 0.0
C1792 C 0.88136 0.80254 0.48121 0.0
C1793 C 0.85843 0.78167 0.47946 0.0
C1794 C 0.8926 0.81537 0.51618 0.0
C1795 C 0.87981 0.80791 0.5499 0.0
C1796 C 0.85573 0.78778 0.54784 0.0
C1797 C 0.84578 0.77435 0.51275 0.0
C1798 C 0.91907 0.83567 0.51734 0.0
C1799 C 0.84095 0.77988 0.5829 0.0
C1800 C 0.92139 0.8174 0.64868 0.0
C1801 C 0.91137 0.84298 0.66125 0.0
C1802 C 0.91206 0.80623 0.61199 0.0
C1803 C 0.89182 0.8207 0.58751 0.0
C1804 C 0.88226 0.84688 0.59957 0.0
C1805 C 0.89238 0.85783 0.63602 0.0
C1806 C 0.9234 0.77864 0.59972 0.0
C1807 C 0.86075 0.86298 0.57434 0.0
H1808 H 0.89167 0.80757 0.45559 0.0
H1809 H 0.8284 0.75781 0.51139 0.0
H1810 H 0.91547 0.85605 0.53153 0.0
H1811 H 0.93726 0.8261 0.53449 0.0
H1812 H 0.92544 0.84047 0.4883 0.0
H1813 H 0.82116 0.7657 0.57588 0.0
H1814 H 0.85579 0.76876 0.60373 0.0
H1815 H 0.83514 0.79948 0.59717 0.0
H1816 H 0.93593 0.80563 0.66786 0.0
H1817 H 0.88512 0.87802 0.6449 0.0
H1818 H 0.93202 0.78143 0.57162 0.0
H1819 H 0.90566 0.76168 0.59607 0.0
H1820 H 0.94062 0.77119 0.62084 0.0
H1821 H 0.86927 0.86839 0.54676 0.0
H1822 H 0.85545 0.88307 0.58797 0.0
H1823 H 0.84063 0.84926 0.56766 0.0
C1824 C 0.86366 0.1327 0.51001 0.0
C1825 C 0.89249 0.13772 0.52494 0.0
C1826 C 0.85623 0.12928 0.47055 0.0
C1827 C 0.87825 0.13071 0.44596 0.0
C1828 C 0.90742 0.13532 0.46107 0.0
C1829 C 0.91416 0.13887 0.5005 0.0
C1830 C 0.82497 0.12468 0.45512 0.0
C1831 C 0.93152 0.13684 0.43559 0.0
C1832 C 0.87328 0.09973 0.34696 0.0
C1833 C 0.87444 0.12484 0.3254 0.0
C1834 C 0.87181 0.10101 0.38647 0.0
C1835 C 0.87124 0.12801 0.40419 0.0
C1836 C 0.86919 0.15306 0.38178 0.0
C1837 C 0.87101 0.15117 0.34243 0.0
C1838 C 0.87415 0.07391 0.40961 0.0
C1839 C 0.86817 0.18217 0.39978 0.0
H1840 H 0.84692 0.13221 0.52911 0.0
H1841 H 0.93641 0.14261 0.51231 0.0
H1842 H 0.81905 0.14178 0.43444 0.0
H1843 H 0.82128 0.10405 0.43936 0.0
H1844 H 0.81045 0.12455 0.47816 0.0
H1845 H 0.95304 0.13993 0.45216 0.0
H1846 H 0.93081 0.1169 0.41844 0.0
H1847 H 0.9289 0.15484 0.41521 0.0
H1848 H 0.87617 0.07942 0.33361 0.0
H1849 H 0.87177 0.17049 0.3254 0.0
H1850 H 0.85894 0.07306 0.43178 0.0
H1851 H 0.89618 0.07355 0.4246 0.0
H1852 H 0.86987 0.05447 0.39131 0.0
H1853 H 0.85281 0.18143 0.42176 0.0
H1854 H 0.8619 0.19857 0.37814 0.0
H1855 H 0.88972 0.18899 0.4143 0.0
C1856 C 0.66545 0.18069 0.03135 0.0
C1857 C 0.66336 0.21041 0.02993 0.0
C1858 C 0.65723 0.16483 0.06292 0.0
C1859 C 0.64658 0.17908 0.09348 0.0
C1860 C 0.64499 0.2091 0.09248 0.0
C1861 C 0.65363 0.22437 0.06098 0.0
C1862 C 0.65929 0.13282 0.06323 0.0
C1863 C 0.63355 0.22512 0.12434 0.0
C1864 C 0.5998 0.14151 0.1626 0.0
C1865 C 0.61946 0.13965 0.19539 0.0
C1866 C 0.60856 0.15313 0.12848 0.0
C1867 C 0.63766 0.16304 0.12722 0.0
C1868 C 0.65773 0.16034 0.15981 0.0
C1869 C 0.64837 0.14882 0.1935 0.0
C1870 C 0.58651 0.15576 0.09427 0.0
C1871 C 0.68888 0.17079 0.15962 0.0
H1872 H 0.67259 0.1697 1.00731 0.0
H1873 H 0.65188 0.24732 0.06024 0.0
H1874 H 0.67258 0.12638 0.08947 0.0
H1875 H 0.63758 0.12199 0.06385 0.0
H1876 H 0.66878 0.12508 0.03781 0.0
H1877 H 0.63333 0.24847 0.11884 0.0
H1878 H 0.61131 0.21672 0.12791 0.0
H1879 H 0.64687 0.22181 0.15181 0.0
H1880 H 0.57751 0.13412 0.16373 0.0
H1881 H 0.66361 0.14791 0.21885 0.0
H1882 H 0.59404 0.14627 0.06851 0.0
H1883 H 0.58362 0.17869 0.08808 0.0
H1884 H 0.5653 0.1451 0.09896 0.0
H1885 H 0.69793 0.16183 0.13461 0.0
H1886 H 0.70222 0.16487 0.18614 0.0
H1887 H 0.69055 0.19442 0.15691 0.0
C1888 C 0.58559 0.83426 0.7446 0.0
C1889 C 0.58895 0.85285 0.71397 0.0
C1890 C 0.606 0.83451 0.77645 0.0
C1891 C 0.63129 0.85291 0.77683 0.0
C1892 C 0.63671 0.86872 0.74358 0.0
C1893 C 0.61509 0.86892 0.71248 0.0
C1894 C 0.59884 0.81719 0.81108 0.0
C1895 C 0.66419 0.887 0.74159 0.0
C1896 C 0.64335 0.87567 0.87826 0.0
C1897 C 0.65548 0.85116 0.89372 0.0
C1898 C 0.63965 0.87956 0.83854 0.0
C1899 C 0.64859 0.85849 0.81428 0.0
C1900 C 0.66596 0.83705 0.83027 0.0
C1901 C 0.6687 0.83316 0.87006 0.0
C1902 C 0.62195 0.90349 0.82276 0.0
C1903 C 0.67808 0.81578 0.80526 0.0
H1904 H 0.56558 0.82133 0.74517 0.0
H1905 H 0.61784 0.88316 0.68857 0.0
H1906 H 0.61503 0.80126 0.81798 0.0
H1907 H 0.59907 0.83134 0.83642 0.0
H1908 H 0.57736 0.80557 0.80658 0.0
H1909 H 0.67111 0.8861 0.71235 0.0
H1910 H 0.66043 0.90962 0.74744 0.0
H1911 H 0.68186 0.88024 0.76253 0.0
H1912 H 0.63362 0.88989 0.8967 0.0
H1913 H 0.67896 0.81467 0.88226 0.0
H1914 H 0.6001 0.89462 0.81168 0.0
H1915 H 0.63182 0.91408 0.79867 0.0
H1916 H 0.61976 0.91988 0.84491 0.0
H1917 H 0.66186 0.79777 0.79802 0.0
H1918 H 0.69754 0.80684 0.82029 0.0
H1919 H 0.68361 0.82583 0.7781 0.0
C1920 C 0.57582 0.65576 0.78357 0.0
C1921 C 0.54718 0.64404 0.77731 0.0
C1922 C 0.588 0.66702 0.81954 0.0
C1923 C 0.57174 0.66625 0.85144 0.0
C1924 C 0.54281 0.6543 0.84556 0.0
C1925 C 0.53082 0.64384 0.80875 0.0
C1926 C 0.6184 0.68029 0.82316 0.0
C1927 C 0.52437 0.65262 0.87825 0.0
C1928 C 0.61425 0.67189 0.95269 0.0
C1929 C 0.61246 0.7007 0.96315 0.0
C1930 C 0.60103 0.6605 0.91707 0.0
C1931 C 0.58518 0.67801 0.89049 0.0
C1932 C 0.58342 0.70714 0.90079 0.0
C1933 C 0.5969 0.71798 0.93651 0.0
C1934 C 0.60389 0.62945 0.90796 0.0
C1935 C 0.56725 0.72708 0.87391 0.0
H1936 H 0.58879 0.65698 0.75978 0.0
H1937 H 0.50862 0.63542 0.80467 0.0
H1938 H 0.61868 0.70289 0.83264 0.0
H1939 H 0.63195 0.66889 0.84526 0.0
H1940 H 0.62823 0.67973 0.79578 0.0
H1941 H 0.50265 0.64223 0.86969 0.0
H1942 H 0.53497 0.64039 0.90222 0.0
H1943 H 0.52196 0.67442 0.88919 0.0
H1944 H 0.6257 0.65794 0.97268 0.0
H1945 H 0.59463 0.74007 0.94385 0.0
H1946 H 0.61501 0.62771 0.88178 0.0
H1947 H 0.58226 0.61829 0.90195 0.0
H1948 H 0.61611 0.61828 0.9317 0.0
H1949 H 0.57793 0.72953 0.84728 0.0
H1950 H 0.56623 0.74861 0.8867 0.0
H1951 H 0.54502 0.71797 0.86565 0.0
C1952 C 0.58959 0.39875 0.30855 0.0
C1953 C 0.5599 0.40197 0.30344 0.0
C1954 C 0.60411 0.38996 0.27801 0.0
C1955 C 0.58855 0.3845 0.24167 0.0
C1956 C 0.5588 0.38868 0.23615 0.0
C1957 C 0.54489 0.3974 0.26705 0.0
C1958 C 0.63582 0.38547 0.28495 0.0
C1959 C 0.5414 0.3831 0.19785 0.0
C1960 C 0.62428 0.38534 0.14998 0.0
C1961 C 0.62393 0.35608 0.14133 0.0
C1962 C 0.61415 0.39481 0.18356 0.0
C1963 C 0.60311 0.37456 0.20903 0.0
C1964 C 0.60352 0.34495 0.20123 0.0
C1965 C 0.61395 0.33604 0.16743 0.0
C1966 C 0.61406 0.42655 0.1909 0.0
C1967 C 0.59186 0.32271 0.22774 0.0
H1968 H 0.60119 0.40169 0.33679 0.0
H1969 H 0.52191 0.39974 0.26299 0.0
H1970 H 0.63939 0.36259 0.28049 0.0
H1971 H 0.6477 0.39798 0.26411 0.0
H1972 H 0.64505 0.39179 0.31439 0.0
H1973 H 0.5185 0.38772 0.19828 0.0
H1974 H 0.55063 0.39645 0.17547 0.0
H1975 H 0.5423 0.3604 0.18941 0.0
H1976 H 0.6315 0.40101 0.12975 0.0
H1977 H 0.61397 0.31339 0.16122 0.0
H1978 H 0.62429 0.43192 0.22016 0.0
H1979 H 0.59157 0.43288 0.18918 0.0
H1980 H 0.62553 0.43943 0.16994 0.0
H1981 H 0.60109 0.32701 0.25774 0.0
H1982 H 0.59649 0.30068 0.21977 0.0
H1983 H 0.56823 0.32375 0.22681 0.0
C1984 C 0.96351 0.33255 0.44896 0.0
C1985 C 0.942 0.3359 0.41813 0.0
C1986 C 0.9572 0.32196 0.48559 0.0
C1987 C 0.92837 0.31442 0.49327 0.0
C1988 C 0.90649 0.31801 0.46243 0.0
C1989 C 0.91349 0.32822 0.42591 0.0
C1990 C 0.98182 0.31892 0.5162 0.0
C1991 C 0.87517 0.31127 0.46718 0.0
C1992 C 0.90985 0.26323 0.57716 0.0
C1993 C 0.91064 0.28159 0.6092 0.0
C1994 C 0.9155 0.27342 0.54003 0.0
C1995 C 0.92133 0.30317 0.53317 0.0
C1996 C 0.92046 0.32194 0.56496 0.0
C1997 C 0.91543 0.31107 0.60193 0.0
C1998 C 0.91621 0.25198 0.50822 0.0
C1999 C 0.92512 0.35388 0.56067 0.0
H2000 H 0.98575 0.33772 0.44446 0.0
H2001 H 0.8961 0.33072 0.40354 0.0
H2002 H 0.98342 0.33751 0.53597 0.0
H2003 H 0.97825 0.29931 0.53317 0.0
H2004 H 0.00264 0.31819 0.50393 0.0
H2005 H 0.86804 0.29044 0.45311 0.0
H2006 H 0.87077 0.3101 0.49756 0.0
H2007 H 0.86188 0.32765 0.45259 0.0
H2008 H 0.90584 0.24046 0.58134 0.0
H2009 H 0.91549 0.32601 0.62544 0.0
H2010 H 0.93714 0.25468 0.49604 0.0
H2011 H 0.89909 0.25575 0.48485 0.0
H2012 H 0.91308 0.22957 0.51811 0.0
H2013 H 0.9481 0.36035 0.56911 0.0
H2014 H 0.91231 0.36527 0.57994 0.0
H2015 H 0.91935 0.36101 0.53087 0.0
C2016 C 0.97483 0.59169 0.75344 0.0
C2017 C 0.96071 0.58864 0.78662 0.0
C2018 C 0.96036 0.59994 0.71868 0.0
C2019 C 0.93091 0.60531 0.71692 0.0
C2020 C 0.91621 0.60143 0.75001 0.0
C2021 C 0.9313 0.593 0.78457 0.0
C2022 C 0.97686 0.6037 0.6841 0.0
C2023 C 0.88486 0.60714 0.7492 0.0
C2024 C 0.90463 0.65305 0.63465 0.0
C2025 C 0.89251 0.63281 0.60717 0.0
C2026 C 0.9163 0.64449 0.67108 0.0
C2027 C 0.91581 0.615 0.68023 0.0
C2028 C 0.90299 0.59457 0.65298 0.0
C2029 C 0.89161 0.60369 0.61681 0.0
C2030 C 0.92984 0.66694 0.69939 0.0
C2031 C 0.90222 0.56295 0.66156 0.0
H2032 H -0.00242 0.58831 0.75485 0.0
H2033 H 0.92041 0.59112 0.81028 0.0
H2034 H 0.96641 0.59004 0.66016 0.0
H2035 H 0.97668 0.62621 0.67427 0.0
H2036 H -0.00043 0.59818 0.69018 0.0
H2037 H 0.87628 0.6021 0.77691 0.0
H2038 H 0.88193 0.62998 0.74251 0.0
H2039 H 0.87194 0.59426 0.72624 0.0
H2040 H 0.90511 0.6756 0.62762 0.0
H2041 H 0.88275 0.58785 0.59561 0.0
H2042 H 0.95319 0.66407 0.70545 0.0
H2043 H 0.92033 0.66449 0.72692 0.0
H2044 H 0.92704 0.68901 0.68869 0.0
H2045 H 0.92445 0.55587 0.66552 0.0
H2046 H 0.88977 0.54995 0.63828 0.0
H2047 H 0.89255 0.55854 0.68864 0.0
C2048 C 0.37916 0.34406 0.15188 0.0
C2049 C 0.40871 0.34805 0.16375 0.0
C2050 C 0.36903 0.33255 0.11574 0.0
C2051 C 0.38885 0.32453 0.09066 0.0
C2052 C 0.41875 0.32893 0.10203 0.0
C2053 C 0.42832 0.34063 0.13843 0.0
C2054 C 0.33701 0.32804 0.10493 0.0
C2055 C 0.44061 0.32061 0.07615 0.0
C2056 C 0.36294 0.26476 1.01998 0.0
C2057 C 0.35705 0.27961 0.98554 0.0
C2058 C 0.37351 0.27912 0.05406 0.0
C2059 C 0.37812 0.30926 0.05412 0.0
C2060 C 0.37163 0.32456 1.01973 0.0
C2061 C 0.36115 0.30956 0.9858 0.0
C2062 C 0.38026 0.26187 0.08992 0.0
C2063 C 0.3764 0.35671 1.01865 0.0
H2064 H 0.36378 0.34918 0.17137 0.0
H2065 H 0.45118 0.34391 0.14709 0.0
H2066 H 0.33093 0.33807 0.07686 0.0
H2067 H 0.33086 0.30482 0.1019 0.0
H2068 H 0.32444 0.33709 0.12657 0.0
H2069 H 0.463 0.32697 0.08819 0.0
H2070 H 0.43869 0.29711 0.07161 0.0
H2071 H 0.43646 0.33067 0.04766 0.0
H2072 H 0.36002 0.24161 1.02017 0.0
H2073 H 0.35721 0.32119 0.95927 0.0
H2074 H 0.36736 0.26862 0.11263 0.0
H2075 H 0.40325 0.26586 0.10089 0.0
H2076 H 0.37578 0.23852 0.08495 0.0
H2077 H 0.36378 0.36659 0.03952 0.0
H2078 H 0.37019 0.3655 0.98978 0.0
H2079 H 0.39939 0.36311 1.02722 0.0
C2080 C 0.37109 0.60829 1.01772 0.0
C2081 C 0.37164 0.63738 1.02732 0.0
C2082 C 0.36822 0.59958 0.9793 0.0
C2083 C 0.36687 0.62056 0.95031 0.0
C2084 C 0.36421 0.64952 0.9598 0.0
C2085 C 0.36603 0.65747 0.99832 0.0
C2086 C 0.36961 0.56831 0.96995 0.0
C2087 C 0.36307 0.67267 0.92976 0.0
C2088 C 0.41208 0.61129 0.86954 0.0
C2089 C 0.39132 0.60972 0.83762 0.0
C2090 C 0.40427 0.61445 0.90642 0.0
C2091 C 0.37479 0.61364 0.91198 0.0
C2092 C 0.35359 0.60887 0.88055 0.0
C2093 C 0.36207 0.60781 0.8435 0.0
C2094 C 0.42772 0.62032 0.93904 0.0
C2095 C 0.32198 0.60615 0.88572 0.0
H2096 H 0.37507 0.59254 0.03995 0.0
H2097 H 0.3653 0.67984 1.00575 0.0
H2098 H 0.35547 0.5623 0.94344 0.0
H2099 H 0.39193 0.56403 0.96507 0.0
H2100 H 0.36327 0.55445 0.99375 0.0
H2101 H 0.35806 0.69355 0.9415 0.0
H2102 H 0.38421 0.67547 0.91819 0.0
H2103 H 0.34672 0.66661 0.90554 0.0
H2104 H 0.43469 0.61114 0.86576 0.0
H2105 H 0.3457 0.60648 0.81929 0.0
H2106 H 0.42663 0.60331 0.96091 0.0
H2107 H 0.42472 0.64092 0.95317 0.0
H2108 H 0.44957 0.62146 0.92933 0.0
H2109 H 0.31812 0.59451 0.91246 0.0
H2110 H 0.3093 0.59478 0.86114 0.0
H2111 H 0.3139 0.62774 0.8877 0.0
C2112 C 0.14027 0.68155 0.5137 0.0
C2113 C 0.16343 0.70215 0.51727 0.0
C2114 C 0.13066 0.66795 0.54604 0.0
C2115 C 0.14545 0.67427 0.5826 0.0
C2116 C 0.17009 0.69374 0.58594 0.0
C2117 C 0.17834 0.70807 0.55325 0.0
C2118 C 0.10366 0.64829 0.5413 0.0
C2119 C 0.18703 0.70026 0.62424 0.0
C2120 C 0.10578 0.66542 0.67128 0.0
C2121 C 0.11446 0.63894 0.68527 0.0
C2122 C 0.1153 0.67691 0.6375 0.0
C2123 C 0.13427 0.66174 0.61751 0.0
C2124 C 0.14272 0.63481 0.63106 0.0
C2125 C 0.1325 0.62363 0.66453 0.0
C2126 C 0.10531 0.70545 0.62345 0.0
C2127 C 0.16293 0.61801 0.61058 0.0
H2128 H 0.12853 0.67736 0.48583 0.0
H2129 H 0.19599 0.72435 0.55588 0.0
H2130 H 0.10757 0.62736 0.55499 0.0
H2131 H 0.08661 0.65778 0.55585 0.0
H2132 H 0.0955 0.64457 0.51073 0.0
H2133 H 0.20743 0.71314 0.62133 0.0
H2134 H 0.17397 0.71232 0.64239 0.0
H2135 H 0.19211 0.68011 0.6394 0.0
H2136 H 0.09208 0.67755 0.68722 0.0
H2137 H 0.13883 0.60286 0.6746 0.0
H2138 H 0.09521 0.70342 0.59346 0.0
H2139 H 0.12398 0.72128 0.62359 0.0
H2140 H 0.08959 0.71393 0.64135 0.0
H2141 H 0.1533 0.61286 0.58098 0.0
H2142 H 0.168 0.59771 0.62542 0.0
H2143 H 0.18329 0.63108 0.60837 0.0
C2144 C 0.11745 0.3956 0.22443 0.0
C2145 C 0.08898 0.38679 0.2296 0.0
C2146 C 0.1397 0.39195 0.25412 0.0
C2147 C 0.13295 0.37919 0.28904 0.0
C2148 C 0.10429 0.36952 0.29349 0.0
C2149 C 0.08299 0.37323 0.26379 0.0
C2150 C 0.1702 0.40183 0.24836 0.0
C2151 C 0.09568 0.35532 0.3298 0.0
C2152 C 0.17073 0.33985 0.36778 0.0
C2153 C 0.16744 0.35841 0.39801 0.0
C2154 C 0.16476 0.34845 0.32971 0.0
C2155 C 0.15478 0.37597 0.32219 0.0
C2156 C 0.15633 0.39621 0.35237 0.0
C2157 C 0.16262 0.38711 0.39018 0.0
C2158 C 0.16408 0.32639 0.29835 0.0
C2159 C 0.14603 0.42582 0.34571 0.0
H2160 H 0.12219 0.40559 0.19777 0.0
H2161 H 0.06126 0.36516 0.26757 0.0
H2162 H 0.17813 0.41906 0.26916 0.0
H2163 H 0.18445 0.38397 0.25387 0.0
H2164 H 0.1721 0.40997 0.21895 0.0
H2165 H 0.07218 0.34978 0.32847 0.0
H2166 H 0.10683 0.33533 0.33505 0.0
H2167 H 0.10185 0.36969 0.35478 0.0
H2168 H 0.17533 0.31782 0.37389 0.0
H2169 H 0.16041 0.40164 0.41352 0.0
H2170 H 0.1692 0.3364 0.27104 0.0
H2171 H 0.14218 0.31563 0.29352 0.0
H2172 H 0.17944 0.30977 0.30634 0.0
H2173 H 0.15172 0.43451 0.31793 0.0
H2174 H 0.15522 0.44077 0.36901 0.0
H2175 H 0.12226 0.42477 0.34507 0.0
loop_
_geom_bond_atom_site_label_1
_geom_bond_atom_site_label_2
_geom_bond_distance
_geom_bond_site_symmetry_2
_ccdc_geom_bond_type
Sm0 C2 2.846 . S
Sm0 O20 2.543 . S
Sm0 O21 2.450 . S
Sm0 O22 2.698 . S
Sm0 O23 2.464 . S
Sm0 O24 2.396 1_455 S
Sm0 O28 2.386 . S
Sm0 O31 2.408 . S
Sm1 C11 2.846 . S
Sm1 O22 2.373 1_655 S
Sm1 O25 2.408 . S
Sm1 O26 2.543 . S
Sm1 O27 2.450 . S
Sm1 O28 2.681 1_655 S
Sm1 O29 2.464 . S
Sm1 O30 2.396 1_655 S
C2 Sm0 2.846 . S
C2 C3 1.506 1_554 S
C2 O20 1.261 . S
C2 O21 1.242 . S
C3 C2 1.506 1_556 S
C3 C4 1.358 . S
C3 C8 1.382 . S
C4 C3 1.358 . S
C4 C5 1.385 . S
C4 H32 0.930 . S
C5 C4 1.385 . S
C5 C6 1.395 . S
C5 H33 0.929 . S
C6 C5 1.395 . S
C6 C7 1.335 . S
C7 C6 1.335 . S
C7 C8 1.398 . S
C7 H34 0.930 . S
C8 C3 1.382 . S
C8 C7 1.398 . S
C8 H35 0.929 . S
C9 O22 1.279 . S
C9 O23 1.251 . S
C10 O24 1.252 . S
C10 O25 1.272 . S
C11 Sm1 2.846 . S
C11 C12 1.506 . S
C11 O26 1.261 . S
C11 O27 1.242 . S
C12 C11 1.506 . S
C12 C13 1.358 . S
C12 C17 1.382 . S
C13 C12 1.358 . S
C13 C14 1.385 . S
C13 H36 0.930 . S
C14 C13 1.385 . S
C14 C15 1.395 . S
C14 H37 0.929 . S
C15 C14 1.395 . S
C15 C16 1.335 . S
C16 C15 1.335 . S
C16 C17 1.398 . S
C16 H38 0.930 . S
C17 C12 1.382 . S
C17 C16 1.398 . S
C17 H39 0.929 . S
C18 O28 1.271 1_655 S
C18 O29 1.251 . S
C19 O30 1.252 . S
C19 O31 1.272 . S
O20 Sm0 2.543 . S
O20 C2 1.261 . S
O21 Sm0 2.450 . S
O21 C2 1.242 . S
O22 Sm0 2.698 . S
O22 Sm1 2.373 1_455 S
O22 C9 1.279 . S
O23 Sm0 2.464 . S
O23 C9 1.251 . S
O24 Sm0 2.396 1_655 S
O24 C10 1.252 . S
O25 Sm1 2.408 . S
O25 C10 1.272 . S
O26 Sm1 2.543 . S
O26 C11 1.261 . S
O27 Sm1 2.450 . S
O27 C11 1.242 . S
O28 Sm0 2.386 . S
O28 Sm1 2.681 1_455 S
O28 C18 1.271 1_455 S
O29 Sm1 2.464 . S
O29 C18 1.251 . S
O30 Sm1 2.396 1_455 S
O30 C19 1.252 . S
O31 Sm0 2.408 . S
O31 C19 1.272 . S
H32 C4 0.930 . S
H33 C5 0.929 . S
H34 C7 0.930 . S
H35 C8 0.929 . S
H36 C13 0.930 . S
H37 C14 0.929 . S
H38 C16 0.930 . S
H39 C17 0.929 . S
Sm40 C42 2.846 . S
Sm40 O60 2.543 . S
Sm40 O61 2.450 . S
Sm40 O62 2.681 . S
Sm40 O63 2.464 . S
Sm40 O64 2.396 . S
Sm40 O68 2.386 . S
Sm40 O71 2.408 . S
Sm41 C51 2.846 . S
Sm41 O62 2.386 . S
Sm41 O65 2.408 . S
Sm41 O66 2.543 . S
Sm41 O67 2.450 . S
Sm41 O68 2.681 . S
Sm41 O69 2.464 . S
Sm41 O70 2.396 . S
C42 Sm40 2.846 . S
C42 C43 1.506 . S
C42 O60 1.261 . S
C42 O61 1.242 . S
C43 C42 1.506 . S
C43 C44 1.358 . S
C43 C48 1.382 . S
C44 C43 1.358 . S
C44 C45 1.385 . S
C44 H72 0.930 . S
C45 C44 1.385 . S
C45 C46 1.395 . S
C45 H73 0.929 . S
C46 C45 1.395 . S
C46 C47 1.335 . S
C47 C46 1.335 . S
C47 C48 1.398 . S
C47 H74 0.930 . S
C48 C43 1.382 . S
C48 C47 1.398 . S
C48 H75 0.929 . S
C49 O62 1.271 . S
C49 O63 1.251 . S
C50 O64 1.252 . S
C50 O65 1.272 . S
C51 Sm41 2.846 . S
C51 C52 1.506 . S
C51 O66 1.261 . S
C51 O67 1.242 . S
C52 C51 1.506 . S
C52 C53 1.358 . S
C52 C57 1.382 . S
C53 C52 1.358 . S
C53 C54 1.385 . S
C53 H76 0.930 . S
C54 C53 1.385 . S
C54 C55 1.395 . S
C54 H77 0.929 . S
C55 C54 1.395 . S
C55 C56 1.335 . S
C56 C55 1.335 . S
C56 C57 1.398 . S
C56 H78 0.930 . S
C57 C52 1.382 . S
C57 C56 1.398 . S
C57 H79 0.929 . S
C58 O68 1.271 . S
C58 O69 1.251 . S
C59 O70 1.252 . S
C59 O71 1.272 . S
O60 Sm40 2.543 . S
O60 C42 1.261 . S
O61 Sm40 2.450 . S
O61 C42 1.242 . S
O62 Sm40 2.681 . S
O62 Sm41 2.386 . S
O62 C49 1.271 . S
O63 Sm40 2.464 . S
O63 C49 1.251 . S
O64 Sm40 2.396 . S
O64 C50 1.252 . S
O65 Sm41 2.408 . S
O65 C50 1.272 . S
O66 Sm41 2.543 . S
O66 C51 1.261 . S
O67 Sm41 2.450 . S
O67 C51 1.242 . S
O68 Sm40 2.386 . S
O68 Sm41 2.681 . S
O68 C58 1.271 . S
O69 Sm41 2.464 . S
O69 C58 1.251 . S
O70 Sm41 2.396 . S
O70 C59 1.252 . S
O71 Sm40 2.408 . S
O71 C59 1.272 . S
H72 C44 0.930 . S
H73 C45 0.929 . S
H74 C47 0.930 . S
H75 C48 0.929 . S
H76 C53 0.930 . S
H77 C54 0.929 . S
H78 C56 0.930 . S
H79 C57 0.929 . S
Sm80 C82 2.846 . S
Sm80 O100 2.543 . S
Sm80 O101 2.450 . S
Sm80 O102 2.681 . S
Sm80 O103 2.464 . S
Sm80 O104 2.396 . S
Sm80 O108 2.386 . S
Sm80 O111 2.408 . S
Sm81 C91 2.846 . S
Sm81 O102 2.386 . S
Sm81 O105 2.408 . S
Sm81 O106 2.543 . S
Sm81 O107 2.450 . S
Sm81 O108 2.681 . S
Sm81 O109 2.464 . S
Sm81 O110 2.396 . S
C82 Sm80 2.846 . S
C82 C83 1.506 . S
C82 O100 1.261 . S
C82 O101 1.242 . S
C83 C82 1.506 . S
C83 C84 1.358 . S
C83 C88 1.382 . S
C84 C83 1.358 . S
C84 C85 1.385 . S
C84 H112 0.930 . S
C85 C84 1.385 . S
C85 C86 1.395 . S
C85 H113 0.929 . S
C86 C85 1.395 . S
C86 C87 1.335 . S
C87 C86 1.335 . S
C87 C88 1.398 . S
C87 H114 0.930 . S
C88 C83 1.382 . S
C88 C87 1.398 . S
C88 H115 0.929 . S
C89 O102 1.271 . S
C89 O103 1.251 . S
C90 O104 1.252 . S
C90 O105 1.272 . S
C91 Sm81 2.846 . S
C91 C92 1.506 . S
C91 O106 1.261 . S
C91 O107 1.242 . S
C92 C91 1.506 . S
C92 C93 1.358 . S
C92 C97 1.382 . S
C93 C92 1.358 . S
C93 C94 1.385 . S
C93 H116 0.930 . S
C94 C93 1.385 . S
C94 C95 1.395 . S
C94 H117 0.929 . S
C95 C94 1.395 . S
C95 C96 1.335 . S
C96 C95 1.335 . S
C96 C97 1.398 . S
C96 H118 0.930 . S
C97 C92 1.382 . S
C97 C96 1.398 . S
C97 H119 0.929 . S
C98 O108 1.271 . S
C98 O109 1.251 . S
C99 O110 1.252 . S
C99 O111 1.272 . S
O100 Sm80 2.543 . S
O100 C82 1.261 . S
O101 Sm80 2.450 . S
O101 C82 1.242 . S
O102 Sm80 2.681 . S
O102 Sm81 2.386 . S
O102 C89 1.271 . S
O103 Sm80 2.464 . S
O103 C89 1.251 . S
O104 Sm80 2.396 . S
O104 C90 1.252 . S
O105 Sm81 2.408 . S
O105 C90 1.272 . S
O106 Sm81 2.543 . S
O106 C91 1.261 . S
O107 Sm81 2.450 . S
O107 C91 1.242 . S
O108 Sm80 2.386 . S
O108 Sm81 2.681 . S
O108 C98 1.271 . S
O109 Sm81 2.464 . S
O109 C98 1.251 . S
O110 Sm81 2.396 . S
O110 C99 1.252 . S
O111 Sm80 2.408 . S
O111 C99 1.272 . S
H112 C84 0.930 . S
H113 C85 0.929 . S
H114 C87 0.930 . S
H115 C88 0.929 . S
H116 C93 0.930 . S
H117 C94 0.929 . S
H118 C96 0.930 . S
H119 C97 0.929 . S
Sm120 C122 2.846 . S
Sm120 O140 2.543 . S
Sm120 O141 2.450 . S
Sm120 O142 2.681 . S
Sm120 O143 2.464 . S
Sm120 O144 2.396 . S
Sm120 O148 2.386 . S
Sm120 O151 2.408 . S
Sm121 C131 2.846 . S
Sm121 O142 2.386 . S
Sm121 O145 2.408 . S
Sm121 O146 2.543 . S
Sm121 O147 2.450 . S
Sm121 O148 2.681 . S
Sm121 O149 2.464 . S
Sm121 O150 2.396 . S
C122 Sm120 2.846 . S
C122 C123 1.506 . S
C122 O140 1.261 . S
C122 O141 1.242 . S
C123 C122 1.506 . S
C123 C124 1.358 1_556 S
C123 C128 1.382 . S
C124 C123 1.358 1_554 S
C124 C125 1.385 . S
C124 H152 0.930 . S
C125 C124 1.385 . S
C125 C126 1.395 . S
C125 H153 0.929 . S
C126 C125 1.395 . S
C126 C127 1.335 . S
C127 C126 1.335 . S
C127 C128 1.398 1_554 S
C127 H154 0.930 . S
C128 C123 1.382 . S
C128 C127 1.398 1_556 S
C128 H155 0.929 . S
C129 O142 1.271 . S
C129 O143 1.251 . S
C130 O144 1.252 . S
C130 O145 1.272 . S
C131 Sm121 2.846 . S
C131 C132 1.506 . S
C131 O146 1.261 . S
C131 O147 1.242 . S
C132 C131 1.506 . S
C132 C133 1.358 . S
C132 C137 1.382 . S
C133 C132 1.358 . S
C133 C134 1.385 . S
C133 H156 0.930 . S
C134 C133 1.385 . S
C134 C135 1.395 . S
C134 H157 0.929 . S
C135 C134 1.395 . S
C135 C136 1.335 . S
C136 C135 1.335 . S
C136 C137 1.398 . S
C136 H158 0.930 . S
C137 C132 1.382 . S
C137 C136 1.398 . S
C137 H159 0.929 . S
C138 O148 1.271 . S
C138 O149 1.251 . S
C139 O150 1.252 . S
C139 O151 1.272 . S
O140 Sm120 2.543 . S
O140 C122 1.261 . S
O141 Sm120 2.450 . S
O141 C122 1.242 . S
O142 Sm120 2.681 . S
O142 Sm121 2.386 . S
O142 C129 1.271 . S
O143 Sm120 2.464 . S
O143 C129 1.251 . S
O144 Sm120 2.396 . S
O144 C130 1.252 . S
O145 Sm121 2.408 . S
O145 C130 1.272 . S
O146 Sm121 2.543 . S
O146 C131 1.261 . S
O147 Sm121 2.450 . S
O147 C131 1.242 . S
O148 Sm120 2.386 . S
O148 Sm121 2.681 . S
O148 C138 1.271 . S
O149 Sm121 2.464 . S
O149 C138 1.251 . S
O150 Sm121 2.396 . S
O150 C139 1.252 . S
O151 Sm120 2.408 . S
O151 C139 1.272 . S
H152 C124 0.930 . S
H153 C125 0.929 . S
H154 C127 0.930 . S
H155 C128 0.929 . S
H156 C133 0.930 . S
H157 C134 0.929 . S
H158 C136 0.930 . S
H159 C137 0.929 . S
Sm160 C162 2.846 . S
Sm160 O180 2.543 . S
Sm160 O181 2.450 . S
Sm160 O182 2.681 . S
Sm160 O183 2.464 . S
Sm160 O184 2.396 . S
Sm160 O188 2.386 . S
Sm160 O191 2.408 . S
Sm161 C171 2.846 . S
Sm161 O182 2.386 1_655 S
Sm161 O185 2.408 . S
Sm161 O186 2.543 . S
Sm161 O187 2.450 . S
Sm161 O188 2.681 1_655 S
Sm161 O189 2.464 . S
Sm161 O190 2.396 1_655 S
C162 Sm160 2.846 . S
C162 C163 1.506 1_556 S
C162 O180 1.261 . S
C162 O181 1.242 . S
C163 C162 1.506 1_554 S
C163 C164 1.358 . S
C163 C168 1.382 . S
C164 C163 1.358 . S
C164 C165 1.385 . S
C164 H192 0.930 . S
C165 C164 1.385 . S
C165 C166 1.395 . S
C165 H193 0.929 . S
C166 C165 1.395 . S
C166 C167 1.335 . S
C167 C166 1.335 . S
C167 C168 1.398 . S
C167 H194 0.930 . S
C168 C163 1.382 . S
C168 C167 1.398 . S
C168 H195 0.929 . S
C169 O182 1.271 . S
C169 O183 1.251 . S
C170 O184 1.252 1_655 S
C170 O185 1.272 . S
C171 Sm161 2.846 . S
C171 C172 1.506 . S
C171 O186 1.261 . S
C171 O187 1.242 . S
C172 C171 1.506 . S
C172 C173 1.358 . S
C172 C177 1.382 . S
C173 C172 1.358 . S
C173 C174 1.385 . S
C173 H196 0.930 . S
C174 C173 1.385 . S
C174 C175 1.395 . S
C174 H197 0.929 . S
C175 C174 1.395 . S
C175 C176 1.335 . S
C176 C175 1.335 . S
C176 C177 1.398 . S
C176 H198 0.930 . S
C177 C172 1.382 . S
C177 C176 1.398 . S
C177 H199 0.929 . S
C178 O188 1.271 . S
C178 O189 1.251 1_455 S
C179 O190 1.252 . S
C179 O191 1.272 . S
O180 Sm160 2.543 . S
O180 C162 1.261 . S
O181 Sm160 2.450 . S
O181 C162 1.242 . S
O182 Sm160 2.681 . S
O182 Sm161 2.386 1_455 S
O182 C169 1.271 . S
O183 Sm160 2.464 . S
O183 C169 1.251 . S
O184 Sm160 2.396 . S
O184 C170 1.252 1_455 S
O185 Sm161 2.408 . S
O185 C170 1.272 . S
O186 Sm161 2.543 . S
O186 C171 1.261 . S
O187 Sm161 2.450 . S
O187 C171 1.242 . S
O188 Sm160 2.386 . S
O188 Sm161 2.681 1_455 S
O188 C178 1.271 . S
O189 Sm161 2.464 . S
O189 C178 1.251 1_655 S
O190 Sm161 2.396 1_455 S
O190 C179 1.252 . S
O191 Sm160 2.408 . S
O191 C179 1.272 . S
H192 C164 0.930 . S
H193 C165 0.929 . S
H194 C167 0.930 . S
H195 C168 0.929 . S
H196 C173 0.930 . S
H197 C174 0.929 . S
H198 C176 0.930 . S
H199 C177 0.929 . S
Sm200 C202 2.846 . S
Sm200 O220 2.543 . S
Sm200 O221 2.450 . S
Sm200 O222 2.681 . S
Sm200 O223 2.464 . S
Sm200 O224 2.396 . S
Sm200 O228 2.386 . S
Sm200 O231 2.408 . S
Sm201 C211 2.846 . S
Sm201 O222 2.386 . S
Sm201 O225 2.408 . S
Sm201 O226 2.543 . S
Sm201 O227 2.450 . S
Sm201 O228 2.681 . S
Sm201 O229 2.464 . S
Sm201 O230 2.396 . S
C202 Sm200 2.846 . S
C202 C203 1.506 . S
C202 O220 1.261 . S
C202 O221 1.242 . S
C203 C202 1.506 . S
C203 C204 1.358 . S
C203 C208 1.382 . S
C204 C203 1.358 . S
C204 C205 1.385 . S
C204 H232 0.930 . S
C205 C204 1.385 . S
C205 C206 1.395 . S
C205 H233 0.929 . S
C206 C205 1.395 . S
C206 C207 1.335 . S
C207 C206 1.335 . S
C207 C208 1.398 . S
C207 H234 0.930 . S
C208 C203 1.382 . S
C208 C207 1.398 . S
C208 H235 0.929 . S
C209 O222 1.271 . S
C209 O223 1.251 . S
C210 O224 1.252 . S
C210 O225 1.272 . S
C211 Sm201 2.846 . S
C211 C212 1.506 . S
C211 O226 1.261 . S
C211 O227 1.242 . S
C212 C211 1.506 . S
C212 C213 1.358 . S
C212 C217 1.382 . S
C213 C212 1.358 . S
C213 C214 1.385 1_554 S
C213 H236 0.930 . S
C214 C213 1.385 1_556 S
C214 C215 1.395 . S
C214 H237 0.929 . S
C215 C214 1.395 . S
C215 C216 1.335 . S
C216 C215 1.335 . S
C216 C217 1.398 1_556 S
C216 H238 0.930 . S
C217 C212 1.382 . S
C217 C216 1.398 1_554 S
C217 H239 0.929 . S
C218 O228 1.271 . S
C218 O229 1.251 . S
C219 O230 1.252 . S
C219 O231 1.272 . S
O220 Sm200 2.543 . S
O220 C202 1.261 . S
O221 Sm200 2.450 . S
O221 C202 1.242 . S
O222 Sm200 2.681 . S
O222 Sm201 2.386 . S
O222 C209 1.271 . S
O223 Sm200 2.464 . S
O223 C209 1.251 . S
O224 Sm200 2.396 . S
O224 C210 1.252 . S
O225 Sm201 2.408 . S
O225 C210 1.272 . S
O226 Sm201 2.543 . S
O226 C211 1.261 . S
O227 Sm201 2.450 . S
O227 C211 1.242 . S
O228 Sm200 2.386 . S
O228 Sm201 2.681 . S
O228 C218 1.271 . S
O229 Sm201 2.464 . S
O229 C218 1.251 . S
O230 Sm201 2.396 . S
O230 C219 1.252 . S
O231 Sm200 2.408 . S
O231 C219 1.272 . S
H232 C204 0.930 . S
H233 C205 0.929 . S
H234 C207 0.930 . S
H235 C208 0.929 . S
H236 C213 0.930 . S
H237 C214 0.929 . S
H238 C216 0.930 . S
H239 C217 0.929 . S
Sm240 C242 2.846 . S
Sm240 O260 2.543 . S
Sm240 O261 2.450 . S
Sm240 O262 2.681 . S
Sm240 O263 2.464 . S
Sm240 O264 2.396 . S
Sm240 O268 2.386 . S
Sm240 O271 2.408 . S
Sm241 C251 2.846 . S
Sm241 O262 2.386 . S
Sm241 O265 2.408 . S
Sm241 O266 2.543 . S
Sm241 O267 2.450 . S
Sm241 O268 2.681 . S
Sm241 O269 2.464 . S
Sm241 O270 2.396 . S
C242 Sm240 2.846 . S
C242 C243 1.506 . S
C242 O260 1.261 . S
C242 O261 1.242 . S
C243 C242 1.506 . S
C243 C244 1.358 . S
C243 C248 1.382 . S
C244 C243 1.358 . S
C244 C245 1.385 . S
C244 H272 0.930 . S
C245 C244 1.385 . S
C245 C246 1.395 . S
C245 H273 0.929 . S
C246 C245 1.395 . S
C246 C247 1.335 . S
C247 C246 1.335 . S
C247 C248 1.398 . S
C247 H274 0.930 . S
C248 C243 1.382 . S
C248 C247 1.398 . S
C248 H275 0.929 . S
C249 O262 1.271 . S
C249 O263 1.251 . S
C250 O264 1.252 . S
C250 O265 1.272 . S
C251 Sm241 2.846 . S
C251 C252 1.506 . S
C251 O266 1.261 . S
C251 O267 1.242 . S
C252 C251 1.506 . S
C252 C253 1.358 . S
C252 C257 1.382 . S
C253 C252 1.358 . S
C253 C254 1.385 . S
C253 H276 0.930 . S
C254 C253 1.385 . S
C254 C255 1.395 . S
C254 H277 0.929 . S
C255 C254 1.395 . S
C255 C256 1.335 . S
C256 C255 1.335 . S
C256 C257 1.398 . S
C256 H278 0.930 . S
C257 C252 1.382 . S
C257 C256 1.398 . S
C257 H279 0.929 . S
C258 O268 1.271 . S
C258 O269 1.251 . S
C259 O270 1.252 . S
C259 O271 1.272 . S
O260 Sm240 2.543 . S
O260 C242 1.261 . S
O261 Sm240 2.450 . S
O261 C242 1.242 . S
O262 Sm240 2.681 . S
O262 Sm241 2.386 . S
O262 C249 1.271 . S
O263 Sm240 2.464 . S
O263 C249 1.251 . S
O264 Sm240 2.396 . S
O264 C250 1.252 . S
O265 Sm241 2.408 . S
O265 C250 1.272 . S
O266 Sm241 2.543 . S
O266 C251 1.261 . S
O267 Sm241 2.450 . S
O267 C251 1.242 . S
O268 Sm240 2.386 . S
O268 Sm241 2.681 . S
O268 C258 1.271 . S
O269 Sm241 2.464 . S
O269 C258 1.251 . S
O270 Sm241 2.396 . S
O270 C259 1.252 . S
O271 Sm240 2.408 . S
O271 C259 1.272 . S
H272 C244 0.930 . S
H273 C245 0.929 . S
H274 C247 0.930 . S
H275 C248 0.929 . S
H276 C253 0.930 . S
H277 C254 0.929 . S
H278 C256 0.930 . S
H279 C257 0.929 . S
Sm280 C282 2.846 . S
Sm280 O300 2.543 . S
Sm280 O301 2.450 . S
Sm280 O302 2.681 . S
Sm280 O303 2.464 . S
Sm280 O304 2.396 . S
Sm280 O308 2.386 . S
Sm280 O311 2.408 . S
Sm281 C291 2.846 . S
Sm281 O302 2.386 . S
Sm281 O305 2.408 . S
Sm281 O306 2.543 . S
Sm281 O307 2.450 . S
Sm281 O308 2.681 . S
Sm281 O309 2.464 . S
Sm281 O310 2.396 . S
C282 Sm280 2.846 . S
C282 C283 1.506 . S
C282 O300 1.261 . S
C282 O301 1.242 . S
C283 C282 1.506 . S
C283 C284 1.358 . S
C283 C288 1.382 . S
C284 C283 1.358 . S
C284 C285 1.385 . S
C284 H312 0.930 . S
C285 C284 1.385 . S
C285 C286 1.395 . S
C285 H313 0.929 . S
C286 C285 1.395 . S
C286 C287 1.335 . S
C287 C286 1.335 . S
C287 C288 1.398 . S
C287 H314 0.930 . S
C288 C283 1.382 . S
C288 C287 1.398 . S
C288 H315 0.929 . S
C289 O302 1.271 . S
C289 O303 1.251 . S
C290 O304 1.252 . S
C290 O305 1.272 . S
C291 Sm281 2.846 . S
C291 C292 1.506 . S
C291 O306 1.261 . S
C291 O307 1.242 . S
C292 C291 1.506 . S
C292 C293 1.358 . S
C292 C297 1.382 . S
C293 C292 1.358 . S
C293 C294 1.385 . S
C293 H316 0.930 . S
C294 C293 1.385 . S
C294 C295 1.395 . S
C294 H317 0.929 . S
C295 C294 1.395 . S
C295 C296 1.335 . S
C296 C295 1.335 . S
C296 C297 1.398 . S
C296 H318 0.930 . S
C297 C292 1.382 . S
C297 C296 1.398 . S
C297 H319 0.929 . S
C298 O308 1.271 . S
C298 O309 1.251 . S
C299 O310 1.252 . S
C299 O311 1.272 . S
O300 Sm280 2.543 . S
O300 C282 1.261 . S
O301 Sm280 2.450 . S
O301 C282 1.242 . S
O302 Sm280 2.681 . S
O302 Sm281 2.386 . S
O302 C289 1.271 . S
O303 Sm280 2.464 . S
O303 C289 1.251 . S
O304 Sm280 2.396 . S
O304 C290 1.252 . S
O305 Sm281 2.408 . S
O305 C290 1.272 . S
O306 Sm281 2.543 . S
O306 C291 1.261 . S
O307 Sm281 2.450 . S
O307 C291 1.242 . S
O308 Sm280 2.386 . S
O308 Sm281 2.681 . S
O308 C298 1.271 . S
O309 Sm281 2.464 . S
O309 C298 1.251 . S
O310 Sm281 2.396 . S
O310 C299 1.252 . S
O311 Sm280 2.408 . S
O311 C299 1.272 . S
H312 C284 0.930 . S
H313 C285 0.929 . S
H314 C287 0.930 . S
H315 C288 0.929 . S
H316 C293 0.930 . S
H317 C294 0.929 . S
H318 C296 0.930 . S
H319 C297 0.929 . S
Sm320 C322 2.846 . S
Sm320 O340 2.543 . S
Sm320 O341 2.450 . S
Sm320 O342 2.681 . S
Sm320 O343 2.464 . S
Sm320 O344 2.396 . S
Sm320 O348 2.386 . S
Sm320 O351 2.408 . S
Sm321 C331 2.846 . S
Sm321 O342 2.386 . S
Sm321 O345 2.408 . S
Sm321 O346 2.543 . S
Sm321 O347 2.450 . S
Sm321 O348 2.681 . S
Sm321 O349 2.464 . S
Sm321 O350 2.396 . S
C322 Sm320 2.846 . S
C322 C323 1.506 . S
C322 O340 1.261 . S
C322 O341 1.242 . S
C323 C322 1.506 . S
C323 C324 1.358 . S
C323 C328 1.382 . S
C324 C323 1.358 . S
C324 C325 1.385 . S
C324 H352 0.930 . S
C325 C324 1.385 . S
C325 C326 1.395 . S
C325 H353 0.929 . S
C326 C325 1.395 . S
C326 C327 1.335 . S
C327 C326 1.335 . S
C327 C328 1.398 . S
C327 H354 0.930 . S
C328 C323 1.382 . S
C328 C327 1.398 . S
C328 H355 0.929 . S
C329 O342 1.271 . S
C329 O343 1.251 . S
C330 O344 1.252 . S
C330 O345 1.272 . S
C331 Sm321 2.846 . S
C331 C332 1.506 . S
C331 O346 1.261 . S
C331 O347 1.242 . S
C332 C331 1.506 . S
C332 C333 1.358 . S
C332 C337 1.382 . S
C333 C332 1.358 . S
C333 C334 1.385 . S
C333 H356 0.930 . S
C334 C333 1.385 . S
C334 C335 1.395 . S
C334 H357 0.929 . S
C335 C334 1.395 . S
C335 C336 1.335 . S
C336 C335 1.335 . S
C336 C337 1.398 . S
C336 H358 0.930 . S
C337 C332 1.382 . S
C337 C336 1.398 . S
C337 H359 0.929 . S
C338 O348 1.271 . S
C338 O349 1.251 . S
C339 O350 1.252 . S
C339 O351 1.272 . S
O340 Sm320 2.543 . S
O340 C322 1.261 . S
O341 Sm320 2.450 . S
O341 C322 1.242 . S
O342 Sm320 2.681 . S
O342 Sm321 2.386 . S
O342 C329 1.271 . S
O343 Sm320 2.464 . S
O343 C329 1.251 . S
O344 Sm320 2.396 . S
O344 C330 1.252 . S
O345 Sm321 2.408 . S
O345 C330 1.272 . S
O346 Sm321 2.543 . S
O346 C331 1.261 . S
O347 Sm321 2.450 . S
O347 C331 1.242 . S
O348 Sm320 2.386 . S
O348 Sm321 2.681 . S
O348 C338 1.271 . S
O349 Sm321 2.464 . S
O349 C338 1.251 . S
O350 Sm321 2.396 . S
O350 C339 1.252 . S
O351 Sm320 2.408 . S
O351 C339 1.272 . S
H352 C324 0.930 . S
H353 C325 0.929 . S
H354 C327 0.930 . S
H355 C328 0.929 . S
H356 C333 0.930 . S
H357 C334 0.929 . S
H358 C336 0.930 . S
H359 C337 0.929 . S
Sm360 C362 2.846 . S
Sm360 O380 2.543 . S
Sm360 O381 2.450 . S
Sm360 O382 2.681 . S
Sm360 O383 2.464 . S
Sm360 O384 2.396 . S
Sm360 O388 2.386 . S
Sm360 O391 2.408 . S
Sm361 C371 2.846 1_554 S
Sm361 O382 2.386 . S
Sm361 O385 2.408 . S
Sm361 O386 2.543 . S
Sm361 O387 2.450 . S
Sm361 O388 2.681 . S
Sm361 O389 2.464 . S
Sm361 O390 2.396 . S
C362 Sm360 2.846 . S
C362 C363 1.506 . S
C362 O380 1.261 . S
C362 O381 1.242 . S
C363 C362 1.506 . S
C363 C364 1.358 . S
C363 C368 1.382 . S
C364 C363 1.358 . S
C364 C365 1.385 . S
C364 H392 0.930 . S
C365 C364 1.385 . S
C365 C366 1.395 . S
C365 H393 0.929 . S
C366 C365 1.395 . S
C366 C367 1.335 . S
C367 C366 1.335 . S
C367 C368 1.398 . S
C367 H394 0.930 . S
C368 C363 1.382 . S
C368 C367 1.398 . S
C368 H395 0.929 . S
C369 O382 1.271 . S
C369 O383 1.251 . S
C370 O384 1.252 . S
C370 O385 1.272 . S
C371 Sm361 2.846 1_556 S
C371 C372 1.506 . S
C371 O386 1.261 1_556 S
C371 O387 1.242 1_556 S
C372 C371 1.506 . S
C372 C373 1.358 . S
C372 C377 1.382 . S
C373 C372 1.358 . S
C373 C374 1.385 . S
C373 H396 0.930 . S
C374 C373 1.385 . S
C374 C375 1.395 . S
C374 H397 0.929 . S
C375 C374 1.395 . S
C375 C376 1.335 . S
C376 C375 1.335 . S
C376 C377 1.398 . S
C376 H398 0.930 . S
C377 C372 1.382 . S
C377 C376 1.398 . S
C377 H399 0.929 . S
C378 O388 1.271 . S
C378 O389 1.251 . S
C379 O390 1.252 . S
C379 O391 1.272 . S
O380 Sm360 2.543 . S
O380 C362 1.261 . S
O381 Sm360 2.450 . S
O381 C362 1.242 . S
O382 Sm360 2.681 . S
O382 Sm361 2.386 . S
O382 C369 1.271 . S
O383 Sm360 2.464 . S
O383 C369 1.251 . S
O384 Sm360 2.396 . S
O384 C370 1.252 . S
O385 Sm361 2.408 . S
O385 C370 1.272 . S
O386 Sm361 2.543 . S
O386 C371 1.261 1_554 S
O387 Sm361 2.450 . S
O387 C371 1.242 1_554 S
O388 Sm360 2.386 . S
O388 Sm361 2.681 . S
O388 C378 1.271 . S
O389 Sm361 2.464 . S
O389 C378 1.251 . S
O390 Sm361 2.396 . S
O390 C379 1.252 . S
O391 Sm360 2.408 . S
O391 C379 1.272 . S
H392 C364 0.930 . S
H393 C365 0.929 . S
H394 C367 0.930 . S
H395 C368 0.929 . S
H396 C373 0.930 . S
H397 C374 0.929 . S
H398 C376 0.930 . S
H399 C377 0.929 . S
Sm400 C402 2.846 . S
Sm400 O420 2.543 . S
Sm400 O421 2.450 . S
Sm400 O422 2.681 . S
Sm400 O423 2.464 . S
Sm400 O424 2.396 . S
Sm400 O428 2.386 . S
Sm400 O431 2.408 . S
Sm401 C411 2.846 . S
Sm401 O422 2.386 . S
Sm401 O425 2.408 . S
Sm401 O426 2.543 . S
Sm401 O427 2.450 . S
Sm401 O428 2.681 . S
Sm401 O429 2.464 . S
Sm401 O430 2.396 . S
C402 Sm400 2.846 . S
C402 C403 1.506 1_556 S
C402 O420 1.261 . S
C402 O421 1.242 . S
C403 C402 1.506 1_554 S
C403 C404 1.358 . S
C403 C408 1.382 . S
C404 C403 1.358 . S
C404 C405 1.385 . S
C404 H432 0.930 . S
C405 C404 1.385 . S
C405 C406 1.395 . S
C405 H433 0.929 . S
C406 C405 1.395 . S
C406 C407 1.335 . S
C407 C406 1.335 . S
C407 C408 1.398 . S
C407 H434 0.930 . S
C408 C403 1.382 . S
C408 C407 1.398 . S
C408 H435 0.929 . S
C409 O422 1.271 . S
C409 O423 1.251 . S
C410 O424 1.252 . S
C410 O425 1.272 . S
C411 Sm401 2.846 . S
C411 C412 1.506 . S
C411 O426 1.261 . S
C411 O427 1.242 . S
C412 C411 1.506 . S
C412 C413 1.358 . S
C412 C417 1.382 . S
C413 C412 1.358 . S
C413 C414 1.385 . S
C413 H436 0.930 . S
C414 C413 1.385 . S
C414 C415 1.395 . S
C414 H437 0.929 . S
C415 C414 1.395 . S
C415 C416 1.335 . S
C416 C415 1.335 . S
C416 C417 1.398 . S
C416 H438 0.930 . S
C417 C412 1.382 . S
C417 C416 1.398 . S
C417 H439 0.929 . S
C418 O428 1.271 . S
C418 O429 1.251 . S
C419 O430 1.252 . S
C419 O431 1.272 . S
O420 Sm400 2.543 . S
O420 C402 1.261 . S
O421 Sm400 2.450 . S
O421 C402 1.242 . S
O422 Sm400 2.681 . S
O422 Sm401 2.386 . S
O422 C409 1.271 . S
O423 Sm400 2.464 . S
O423 C409 1.251 . S
O424 Sm400 2.396 . S
O424 C410 1.252 . S
O425 Sm401 2.408 . S
O425 C410 1.272 . S
O426 Sm401 2.543 . S
O426 C411 1.261 . S
O427 Sm401 2.450 . S
O427 C411 1.242 . S
O428 Sm400 2.386 . S
O428 Sm401 2.681 . S
O428 C418 1.271 . S
O429 Sm401 2.464 . S
O429 C418 1.251 . S
O430 Sm401 2.396 . S
O430 C419 1.252 . S
O431 Sm400 2.408 . S
O431 C419 1.272 . S
H432 C404 0.930 . S
H433 C405 0.929 . S
H434 C407 0.930 . S
H435 C408 0.929 . S
H436 C413 0.930 . S
H437 C414 0.929 . S
H438 C416 0.930 . S
H439 C417 0.929 . S
Sm440 C442 2.846 . S
Sm440 O460 2.543 . S
Sm440 O461 2.450 . S
Sm440 O462 2.681 . S
Sm440 O463 2.464 . S
Sm440 O464 2.396 . S
Sm440 O468 2.386 . S
Sm440 O471 2.408 . S
Sm441 C451 2.846 . S
Sm441 O462 2.386 . S
Sm441 O465 2.408 . S
Sm441 O466 2.543 . S
Sm441 O467 2.450 . S
Sm441 O468 2.681 . S
Sm441 O469 2.464 . S
Sm441 O470 2.396 . S
C442 Sm440 2.846 . S
C442 C443 1.506 . S
C442 O460 1.261 . S
C442 O461 1.242 . S
C443 C442 1.506 . S
C443 C444 1.358 . S
C443 C448 1.382 . S
C444 C443 1.358 . S
C444 C445 1.385 . S
C444 H472 0.930 . S
C445 C444 1.385 . S
C445 C446 1.395 . S
C445 H473 0.929 . S
C446 C445 1.395 . S
C446 C447 1.335 . S
C447 C446 1.335 . S
C447 C448 1.398 . S
C447 H474 0.930 . S
C448 C443 1.382 . S
C448 C447 1.398 . S
C448 H475 0.929 . S
C449 O462 1.271 . S
C449 O463 1.251 . S
C450 O464 1.252 . S
C450 O465 1.272 . S
C451 Sm441 2.846 . S
C451 C452 1.506 . S
C451 O466 1.261 . S
C451 O467 1.242 . S
C452 C451 1.506 . S
C452 C453 1.358 . S
C452 C457 1.382 . S
C453 C452 1.358 . S
C453 C454 1.385 . S
C453 H476 0.930 . S
C454 C453 1.385 . S
C454 C455 1.395 . S
C454 H477 0.929 . S
C455 C454 1.395 . S
C455 C456 1.335 . S
C456 C455 1.335 . S
C456 C457 1.398 . S
C456 H478 0.930 . S
C457 C452 1.382 . S
C457 C456 1.398 . S
C457 H479 0.929 . S
C458 O468 1.271 . S
C458 O469 1.251 . S
C459 O470 1.252 . S
C459 O471 1.272 . S
O460 Sm440 2.543 . S
O460 C442 1.261 . S
O461 Sm440 2.450 . S
O461 C442 1.242 . S
O462 Sm440 2.681 . S
O462 Sm441 2.386 . S
O462 C449 1.271 . S
O463 Sm440 2.464 . S
O463 C449 1.251 . S
O464 Sm440 2.396 . S
O464 C450 1.252 . S
O465 Sm441 2.408 . S
O465 C450 1.272 . S
O466 Sm441 2.543 . S
O466 C451 1.261 . S
O467 Sm441 2.450 . S
O467 C451 1.242 . S
O468 Sm440 2.386 . S
O468 Sm441 2.681 . S
O468 C458 1.271 . S
O469 Sm441 2.464 . S
O469 C458 1.251 . S
O470 Sm441 2.396 . S
O470 C459 1.252 . S
O471 Sm440 2.408 . S
O471 C459 1.272 . S
H472 C444 0.930 . S
H473 C445 0.929 . S
H474 C447 0.930 . S
H475 C448 0.929 . S
H476 C453 0.930 . S
H477 C454 0.929 . S
H478 C456 0.930 . S
H479 C457 0.929 . S
Sm480 C482 2.846 . S
Sm480 O500 2.543 . S
Sm480 O501 2.450 . S
Sm480 O502 2.681 . S
Sm480 O503 2.464 . S
Sm480 O504 2.396 . S
Sm480 O508 2.386 . S
Sm480 O511 2.408 . S
Sm481 C491 2.846 . S
Sm481 O502 2.386 . S
Sm481 O505 2.408 . S
Sm481 O506 2.543 . S
Sm481 O507 2.450 . S
Sm481 O508 2.681 . S
Sm481 O509 2.464 . S
Sm481 O510 2.396 . S
C482 Sm480 2.846 . S
C482 C483 1.506 . S
C482 O500 1.261 . S
C482 O501 1.242 . S
C483 C482 1.506 . S
C483 C484 1.358 . S
C483 C488 1.382 . S
C484 C483 1.358 . S
C484 C485 1.385 . S
C484 H512 0.930 . S
C485 C484 1.385 . S
C485 C486 1.395 . S
C485 H513 0.929 . S
C486 C485 1.395 . S
C486 C487 1.335 . S
C487 C486 1.335 . S
C487 C488 1.398 . S
C487 H514 0.930 . S
C488 C483 1.382 . S
C488 C487 1.398 . S
C488 H515 0.929 . S
C489 O502 1.271 . S
C489 O503 1.251 . S
C490 O504 1.252 . S
C490 O505 1.272 . S
C491 Sm481 2.846 . S
C491 C492 1.506 . S
C491 O506 1.261 . S
C491 O507 1.242 . S
C492 C491 1.506 . S
C492 C493 1.358 . S
C492 C497 1.382 . S
C493 C492 1.358 . S
C493 C494 1.385 . S
C493 H516 0.930 . S
C494 C493 1.385 . S
C494 C495 1.395 . S
C494 H517 0.929 . S
C495 C494 1.395 . S
C495 C496 1.335 . S
C496 C495 1.335 . S
C496 C497 1.398 . S
C496 H518 0.930 . S
C497 C492 1.382 . S
C497 C496 1.398 . S
C497 H519 0.929 . S
C498 O508 1.271 . S
C498 O509 1.251 . S
C499 O510 1.252 . S
C499 O511 1.272 . S
O500 Sm480 2.543 . S
O500 C482 1.261 . S
O501 Sm480 2.450 . S
O501 C482 1.242 . S
O502 Sm480 2.681 . S
O502 Sm481 2.386 . S
O502 C489 1.271 . S
O503 Sm480 2.464 . S
O503 C489 1.251 . S
O504 Sm480 2.396 . S
O504 C490 1.252 . S
O505 Sm481 2.408 . S
O505 C490 1.272 . S
O506 Sm481 2.543 . S
O506 C491 1.261 . S
O507 Sm481 2.450 . S
O507 C491 1.242 . S
O508 Sm480 2.386 . S
O508 Sm481 2.681 . S
O508 C498 1.271 . S
O509 Sm481 2.464 . S
O509 C498 1.251 . S
O510 Sm481 2.396 . S
O510 C499 1.252 . S
O511 Sm480 2.408 . S
O511 C499 1.272 . S
H512 C484 0.930 . S
H513 C485 0.929 . S
H514 C487 0.930 . S
H515 C488 0.929 . S
H516 C493 0.930 . S
H517 C494 0.929 . S
H518 C496 0.930 . S
H519 C497 0.929 . S
Sm520 C522 2.846 . S
Sm520 O540 2.543 . S
Sm520 O541 2.450 . S
Sm520 O542 2.681 1_655 S
Sm520 O543 2.464 . S
Sm520 O544 2.396 1_655 S
Sm520 O548 2.386 1_655 S
Sm520 O551 2.408 . S
Sm521 C531 2.846 . S
Sm521 O542 2.386 . S
Sm521 O545 2.408 . S
Sm521 O546 2.543 . S
Sm521 O547 2.450 . S
Sm521 O548 2.681 . S
Sm521 O549 2.464 . S
Sm521 O550 2.396 . S
C522 Sm520 2.846 . S
C522 C523 1.506 . S
C522 O540 1.261 . S
C522 O541 1.242 . S
C523 C522 1.506 . S
C523 C524 1.358 . S
C523 C528 1.382 . S
C524 C523 1.358 . S
C524 C525 1.385 . S
C524 H552 0.930 . S
C525 C524 1.385 . S
C525 C526 1.395 . S
C525 H553 0.929 . S
C526 C525 1.395 . S
C526 C527 1.335 . S
C527 C526 1.335 . S
C527 C528 1.398 . S
C527 H554 0.930 . S
C528 C523 1.382 . S
C528 C527 1.398 . S
C528 H555 0.929 . S
C529 O542 1.271 . S
C529 O543 1.251 1_455 S
C530 O544 1.252 . S
C530 O545 1.272 . S
C531 Sm521 2.846 . S
C531 C532 1.506 1_554 S
C531 O546 1.261 . S
C531 O547 1.242 . S
C532 C531 1.506 1_556 S
C532 C533 1.358 . S
C532 C537 1.382 . S
C533 C532 1.358 . S
C533 C534 1.385 . S
C533 H556 0.930 . S
C534 C533 1.385 . S
C534 C535 1.395 . S
C534 H557 0.929 . S
C535 C534 1.395 . S
C535 C536 1.335 . S
C536 C535 1.335 . S
C536 C537 1.398 . S
C536 H558 0.930 . S
C537 C532 1.382 . S
C537 C536 1.398 . S
C537 H559 0.929 . S
C538 O548 1.271 . S
C538 O549 1.251 . S
C539 O550 1.252 1_655 S
C539 O551 1.272 . S
O540 Sm520 2.543 . S
O540 C522 1.261 . S
O541 Sm520 2.450 . S
O541 C522 1.242 . S
O542 Sm520 2.681 1_455 S
O542 Sm521 2.386 . S
O542 C529 1.271 . S
O543 Sm520 2.464 . S
O543 C529 1.251 1_655 S
O544 Sm520 2.396 1_455 S
O544 C530 1.252 . S
O545 Sm521 2.408 . S
O545 C530 1.272 . S
O546 Sm521 2.543 . S
O546 C531 1.261 . S
O547 Sm521 2.450 . S
O547 C531 1.242 . S
O548 Sm520 2.386 1_455 S
O548 Sm521 2.681 . S
O548 C538 1.271 . S
O549 Sm521 2.464 . S
O549 C538 1.251 . S
O550 Sm521 2.396 . S
O550 C539 1.252 1_455 S
O551 Sm520 2.408 . S
O551 C539 1.272 . S
H552 C524 0.930 . S
H553 C525 0.929 . S
H554 C527 0.930 . S
H555 C528 0.929 . S
H556 C533 0.930 . S
H557 C534 0.929 . S
H558 C536 0.930 . S
H559 C537 0.929 . S
Sm560 C562 2.846 . S
Sm560 O580 2.543 . S
Sm560 O581 2.450 . S
Sm560 O582 2.681 . S
Sm560 O583 2.464 . S
Sm560 O584 2.396 . S
Sm560 O588 2.386 . S
Sm560 O591 2.408 . S
Sm561 C571 2.846 . S
Sm561 O582 2.386 . S
Sm561 O585 2.408 . S
Sm561 O586 2.543 . S
Sm561 O587 2.450 . S
Sm561 O588 2.681 . S
Sm561 O589 2.464 . S
Sm561 O590 2.396 . S
C562 Sm560 2.846 . S
C562 C563 1.506 . S
C562 O580 1.261 . S
C562 O581 1.242 . S
C563 C562 1.506 . S
C563 C564 1.358 . S
C563 C568 1.382 . S
C564 C563 1.358 . S
C564 C565 1.385 . S
C564 H592 0.930 . S
C565 C564 1.385 . S
C565 C566 1.395 . S
C565 H593 0.929 . S
C566 C565 1.395 . S
C566 C567 1.335 . S
C567 C566 1.335 . S
C567 C568 1.398 . S
C567 H594 0.930 . S
C568 C563 1.382 . S
C568 C567 1.398 . S
C568 H595 0.929 . S
C569 O582 1.271 . S
C569 O583 1.251 . S
C570 O584 1.252 . S
C570 O585 1.272 . S
C571 Sm561 2.846 . S
C571 C572 1.506 . S
C571 O586 1.261 . S
C571 O587 1.242 . S
C572 C571 1.506 . S
C572 C573 1.358 . S
C572 C577 1.382 . S
C573 C572 1.358 . S
C573 C574 1.385 . S
C573 H596 0.930 . S
C574 C573 1.385 . S
C574 C575 1.395 . S
C574 H597 0.929 . S
C575 C574 1.395 . S
C575 C576 1.335 . S
C576 C575 1.335 . S
C576 C577 1.398 . S
C576 H598 0.930 . S
C577 C572 1.382 . S
C577 C576 1.398 . S
C577 H599 0.929 . S
C578 O588 1.271 . S
C578 O589 1.251 . S
C579 O590 1.252 . S
C579 O591 1.272 . S
O580 Sm560 2.543 . S
O580 C562 1.261 . S
O581 Sm560 2.450 . S
O581 C562 1.242 . S
O582 Sm560 2.681 . S
O582 Sm561 2.386 . S
O582 C569 1.271 . S
O583 Sm560 2.464 . S
O583 C569 1.251 . S
O584 Sm560 2.396 . S
O584 C570 1.252 . S
O585 Sm561 2.408 . S
O585 C570 1.272 . S
O586 Sm561 2.543 . S
O586 C571 1.261 . S
O587 Sm561 2.450 . S
O587 C571 1.242 . S
O588 Sm560 2.386 . S
O588 Sm561 2.681 . S
O588 C578 1.271 . S
O589 Sm561 2.464 . S
O589 C578 1.251 . S
O590 Sm561 2.396 . S
O590 C579 1.252 . S
O591 Sm560 2.408 . S
O591 C579 1.272 . S
H592 C564 0.930 . S
H593 C565 0.929 . S
H594 C567 0.930 . S
H595 C568 0.929 . S
H596 C573 0.930 . S
H597 C574 0.929 . S
H598 C576 0.930 . S
H599 C577 0.929 . S
Sm600 C602 2.846 . S
Sm600 O620 2.543 . S
Sm600 O621 2.450 . S
Sm600 O622 2.681 1_655 S
Sm600 O623 2.464 . S
Sm600 O624 2.396 1_655 S
Sm600 O628 2.386 1_655 S
Sm600 O631 2.408 . S
Sm601 C611 2.846 . S
Sm601 O622 2.386 . S
Sm601 O625 2.408 . S
Sm601 O626 2.543 . S
Sm601 O627 2.450 . S
Sm601 O628 2.681 . S
Sm601 O629 2.464 . S
Sm601 O630 2.396 . S
C602 Sm600 2.846 . S
C602 C603 1.506 1_556 S
C602 O620 1.261 . S
C602 O621 1.242 . S
C603 C602 1.506 1_554 S
C603 C604 1.358 . S
C603 C608 1.382 . S
C604 C603 1.358 . S
C604 C605 1.385 . S
C604 H632 0.930 . S
C605 C604 1.385 . S
C605 C606 1.395 . S
C605 H633 0.929 . S
C606 C605 1.395 . S
C606 C607 1.335 . S
C607 C606 1.335 . S
C607 C608 1.398 . S
C607 H634 0.930 . S
C608 C603 1.382 . S
C608 C607 1.398 . S
C608 H635 0.929 . S
C609 O622 1.271 . S
C609 O623 1.251 1_455 S
C610 O624 1.252 . S
C610 O625 1.272 . S
C611 Sm601 2.846 . S
C611 C612 1.506 . S
C611 O626 1.261 . S
C611 O627 1.242 . S
C612 C611 1.506 . S
C612 C613 1.358 . S
C612 C617 1.382 . S
C613 C612 1.358 . S
C613 C614 1.385 . S
C613 H636 0.930 . S
C614 C613 1.385 . S
C614 C615 1.395 . S
C614 H637 0.929 . S
C615 C614 1.395 . S
C615 C616 1.335 . S
C616 C615 1.335 . S
C616 C617 1.398 . S
C616 H638 0.930 . S
C617 C612 1.382 . S
C617 C616 1.398 . S
C617 H639 0.929 . S
C618 O628 1.271 . S
C618 O629 1.251 . S
C619 O630 1.252 1_655 S
C619 O631 1.272 . S
O620 Sm600 2.543 . S
O620 C602 1.261 . S
O621 Sm600 2.450 . S
O621 C602 1.242 . S
O622 Sm600 2.681 1_455 S
O622 Sm601 2.386 . S
O622 C609 1.271 . S
O623 Sm600 2.464 . S
O623 C609 1.251 1_655 S
O624 Sm600 2.396 1_455 S
O624 C610 1.252 . S
O625 Sm601 2.408 . S
O625 C610 1.272 . S
O626 Sm601 2.543 . S
O626 C611 1.261 . S
O627 Sm601 2.450 . S
O627 C611 1.242 . S
O628 Sm600 2.386 1_455 S
O628 Sm601 2.681 . S
O628 C618 1.271 . S
O629 Sm601 2.464 . S
O629 C618 1.251 . S
O630 Sm601 2.396 . S
O630 C619 1.252 1_455 S
O631 Sm600 2.408 . S
O631 C619 1.272 . S
H632 C604 0.930 . S
H633 C605 0.929 . S
H634 C607 0.930 . S
H635 C608 0.929 . S
H636 C613 0.930 . S
H637 C614 0.929 . S
H638 C616 0.930 . S
H639 C617 0.929 . S
C640 C641 1.391 . S
C640 C642 1.394 . S
C640 H656 0.931 . S
C641 C640 1.391 . S
C641 C645 1.376 . S
C642 C640 1.394 . S
C642 C643 1.369 . S
C642 C646 1.531 . S
C643 C642 1.369 . S
C643 C644 1.410 . S
C643 C651 1.503 . S
C644 C643 1.410 . S
C644 C645 1.392 . S
C644 C647 1.511 . S
C645 C641 1.376 . S
C645 C644 1.392 . S
C645 H657 0.929 . S
C646 C642 1.531 . S
C646 H658 0.960 . S
C646 H659 0.962 . S
C646 H660 0.960 . S
C647 C644 1.511 . S
C647 H661 0.961 . S
C647 H662 0.961 . S
C647 H663 0.961 . S
C648 C649 1.370 . S
C648 C650 1.363 . S
C648 H664 0.931 . S
C649 C648 1.370 . S
C649 C653 1.408 . S
C650 C648 1.363 . S
C650 C651 1.370 . S
C650 C654 1.524 . S
C651 C643 1.503 . S
C651 C650 1.370 . S
C651 C652 1.403 . S
C652 C651 1.403 . S
C652 C653 1.404 . S
C652 C655 1.539 . S
C653 C649 1.408 . S
C653 C652 1.404 . S
C653 H665 0.930 . S
C654 C650 1.524 . S
C654 H666 0.956 . S
C654 H667 0.961 . S
C654 H668 0.961 . S
C655 C652 1.539 . S
C655 H669 0.958 . S
C655 H670 0.961 . S
C655 H671 0.960 . S
H656 C640 0.931 . S
H657 C645 0.929 . S
H658 C646 0.960 . S
H659 C646 0.962 . S
H660 C646 0.960 . S
H661 C647 0.961 . S
H662 C647 0.961 . S
H663 C647 0.961 . S
H664 C648 0.931 . S
H665 C653 0.930 . S
H666 C654 0.956 . S
H667 C654 0.961 . S
H668 C654 0.961 . S
H669 C655 0.958 . S
H670 C655 0.961 . S
H671 C655 0.960 . S
C672 C673 1.391 . S
C672 C674 1.394 . S
C672 H688 0.931 . S
C673 C672 1.391 . S
C673 C677 1.376 . S
C674 C672 1.394 . S
C674 C675 1.369 . S
C674 C678 1.531 . S
C675 C674 1.369 . S
C675 C676 1.410 . S
C675 C683 1.503 . S
C676 C675 1.410 . S
C676 C677 1.392 . S
C676 C679 1.511 . S
C677 C673 1.376 . S
C677 C676 1.392 . S
C677 H689 0.929 . S
C678 C674 1.531 . S
C678 H690 0.960 . S
C678 H691 0.962 . S
C678 H692 0.960 . S
C679 C676 1.511 . S
C679 H693 0.961 . S
C679 H694 0.961 . S
C679 H695 0.961 . S
C680 C681 1.370 . S
C680 C682 1.363 . S
C680 H696 0.931 . S
C681 C680 1.370 . S
C681 C685 1.408 . S
C682 C680 1.363 . S
C682 C683 1.370 . S
C682 C686 1.524 . S
C683 C675 1.503 . S
C683 C682 1.370 . S
C683 C684 1.403 . S
C684 C683 1.403 . S
C684 C685 1.404 . S
C684 C687 1.539 . S
C685 C681 1.408 . S
C685 C684 1.404 . S
C685 H697 0.930 . S
C686 C682 1.524 . S
C686 H698 0.956 . S
C686 H699 0.961 . S
C686 H700 0.961 . S
C687 C684 1.539 . S
C687 H701 0.958 . S
C687 H702 0.961 . S
C687 H703 0.960 . S
H688 C672 0.931 . S
H689 C677 0.929 . S
H690 C678 0.960 . S
H691 C678 0.962 . S
H692 C678 0.960 . S
H693 C679 0.961 . S
H694 C679 0.961 . S
H695 C679 0.961 . S
H696 C680 0.931 . S
H697 C685 0.930 . S
H698 C686 0.956 . S
H699 C686 0.961 . S
H700 C686 0.961 . S
H701 C687 0.958 . S
H702 C687 0.961 . S
H703 C687 0.960 . S
C704 C705 1.391 . S
C704 C706 1.394 . S
C704 H720 0.931 . S
C705 C704 1.391 . S
C705 C709 1.376 . S
C706 C704 1.394 . S
C706 C707 1.369 . S
C706 C710 1.531 . S
C707 C706 1.369 . S
C707 C708 1.410 . S
C707 C715 1.503 . S
C708 C707 1.410 . S
C708 C709 1.392 . S
C708 C711 1.511 . S
C709 C705 1.376 . S
C709 C708 1.392 . S
C709 H721 0.929 . S
C710 C706 1.531 . S
C710 H722 0.960 . S
C710 H723 0.962 . S
C710 H724 0.960 . S
C711 C708 1.511 . S
C711 H725 0.961 . S
C711 H726 0.961 . S
C711 H727 0.961 . S
C712 C713 1.370 . S
C712 C714 1.363 . S
C712 H728 0.931 . S
C713 C712 1.370 . S
C713 C717 1.408 . S
C714 C712 1.363 . S
C714 C715 1.370 . S
C714 C718 1.524 . S
C715 C707 1.503 . S
C715 C714 1.370 . S
C715 C716 1.403 . S
C716 C715 1.403 . S
C716 C717 1.404 . S
C716 C719 1.539 . S
C717 C713 1.408 . S
C717 C716 1.404 . S
C717 H729 0.930 . S
C718 C714 1.524 . S
C718 H730 0.956 . S
C718 H731 0.961 . S
C718 H732 0.961 . S
C719 C716 1.539 . S
C719 H733 0.958 . S
C719 H734 0.961 . S
C719 H735 0.960 . S
H720 C704 0.931 . S
H721 C709 0.929 . S
H722 C710 0.960 . S
H723 C710 0.962 . S
H724 C710 0.960 . S
H725 C711 0.961 . S
H726 C711 0.961 . S
H727 C711 0.961 . S
H728 C712 0.931 . S
H729 C717 0.930 . S
H730 C718 0.956 . S
H731 C718 0.961 . S
H732 C718 0.961 . S
H733 C719 0.958 . S
H734 C719 0.961 . S
H735 C719 0.960 . S
C736 C737 1.391 . S
C736 C738 1.394 . S
C736 H752 0.931 . S
C737 C736 1.391 . S
C737 C741 1.376 . S
C738 C736 1.394 . S
C738 C739 1.369 . S
C738 C742 1.531 . S
C739 C738 1.369 . S
C739 C740 1.410 . S
C739 C747 1.503 . S
C740 C739 1.410 . S
C740 C741 1.392 . S
C740 C743 1.511 . S
C741 C737 1.376 . S
C741 C740 1.392 . S
C741 H753 0.929 . S
C742 C738 1.531 . S
C742 H754 0.960 . S
C742 H755 0.962 . S
C742 H756 0.960 . S
C743 C740 1.511 . S
C743 H757 0.961 . S
C743 H758 0.961 . S
C743 H759 0.961 . S
C744 C745 1.370 . S
C744 C746 1.363 . S
C744 H760 0.931 . S
C745 C744 1.370 . S
C745 C749 1.408 . S
C746 C744 1.363 . S
C746 C747 1.370 . S
C746 C750 1.524 . S
C747 C739 1.503 . S
C747 C746 1.370 . S
C747 C748 1.403 . S
C748 C747 1.403 . S
C748 C749 1.404 . S
C748 C751 1.539 . S
C749 C745 1.408 . S
C749 C748 1.404 . S
C749 H761 0.930 . S
C750 C746 1.524 . S
C750 H762 0.956 . S
C750 H763 0.961 . S
C750 H764 0.961 . S
C751 C748 1.539 . S
C751 H765 0.958 . S
C751 H766 0.961 . S
C751 H767 0.960 . S
H752 C736 0.931 . S
H753 C741 0.929 . S
H754 C742 0.960 . S
H755 C742 0.962 . S
H756 C742 0.960 . S
H757 C743 0.961 . S
H758 C743 0.961 . S
H759 C743 0.961 . S
H760 C744 0.931 . S
H761 C749 0.930 . S
H762 C750 0.956 . S
H763 C750 0.961 . S
H764 C750 0.961 . S
H765 C751 0.958 . S
H766 C751 0.961 . S
H767 C751 0.960 . S
C768 C769 1.391 . S
C768 C770 1.394 . S
C768 H784 0.931 . S
C769 C768 1.391 . S
C769 C773 1.376 . S
C770 C768 1.394 . S
C770 C771 1.369 . S
C770 C774 1.531 . S
C771 C770 1.369 . S
C771 C772 1.410 . S
C771 C779 1.503 . S
C772 C771 1.410 . S
C772 C773 1.392 . S
C772 C775 1.511 . S
C773 C769 1.376 . S
C773 C772 1.392 . S
C773 H785 0.929 . S
C774 C770 1.531 . S
C774 H786 0.960 . S
C774 H787 0.962 . S
C774 H788 0.960 . S
C775 C772 1.511 . S
C775 H789 0.961 . S
C775 H790 0.961 . S
C775 H791 0.961 . S
C776 C777 1.370 . S
C776 C778 1.363 1_556 S
C776 H792 0.931 . S
C777 C776 1.370 . S
C777 C781 1.408 . S
C778 C776 1.363 1_554 S
C778 C779 1.370 . S
C778 C782 1.524 . S
C779 C771 1.503 . S
C779 C778 1.370 . S
C779 C780 1.403 . S
C780 C779 1.403 . S
C780 C781 1.404 1_554 S
C780 C783 1.539 . S
C781 C777 1.408 . S
C781 C780 1.404 1_556 S
C781 H793 0.930 . S
C782 C778 1.524 . S
C782 H794 0.956 . S
C782 H795 0.961 . S
C782 H796 0.961 1_554 S
C783 C780 1.539 . S
C783 H797 0.958 . S
C783 H798 0.961 . S
C783 H799 0.960 . S
H784 C768 0.931 . S
H785 C773 0.929 . S
H786 C774 0.960 . S
H787 C774 0.962 . S
H788 C774 0.960 . S
H789 C775 0.961 . S
H790 C775 0.961 . S
H791 C775 0.961 . S
H792 C776 0.931 . S
H793 C781 0.930 . S
H794 C782 0.956 . S
H795 C782 0.961 . S
H796 C782 0.961 1_556 S
H797 C783 0.958 . S
H798 C783 0.961 . S
H799 C783 0.960 . S
C800 C801 1.391 . S
C800 C802 1.394 . S
C800 H816 0.931 . S
C801 C800 1.391 . S
C801 C805 1.376 . S
C802 C800 1.394 . S
C802 C803 1.369 . S
C802 C806 1.531 . S
C803 C802 1.369 . S
C803 C804 1.410 . S
C803 C811 1.503 . S
C804 C803 1.410 . S
C804 C805 1.392 . S
C804 C807 1.511 . S
C805 C801 1.376 . S
C805 C804 1.392 . S
C805 H817 0.929 . S
C806 C802 1.531 . S
C806 H818 0.960 . S
C806 H819 0.962 . S
C806 H820 0.960 . S
C807 C804 1.511 . S
C807 H821 0.961 . S
C807 H822 0.961 . S
C807 H823 0.961 . S
C808 C809 1.370 . S
C808 C810 1.363 . S
C808 H824 0.931 . S
C809 C808 1.370 . S
C809 C813 1.408 . S
C810 C808 1.363 . S
C810 C811 1.370 . S
C810 C814 1.524 . S
C811 C803 1.503 . S
C811 C810 1.370 . S
C811 C812 1.403 . S
C812 C811 1.403 . S
C812 C813 1.404 . S
C812 C815 1.539 . S
C813 C809 1.408 . S
C813 C812 1.404 . S
C813 H825 0.930 . S
C814 C810 1.524 . S
C814 H826 0.956 . S
C814 H827 0.961 . S
C814 H828 0.961 . S
C815 C812 1.539 . S
C815 H829 0.958 . S
C815 H830 0.961 . S
C815 H831 0.960 . S
H816 C800 0.931 . S
H817 C805 0.929 . S
H818 C806 0.960 . S
H819 C806 0.962 . S
H820 C806 0.960 . S
H821 C807 0.961 . S
H822 C807 0.961 . S
H823 C807 0.961 . S
H824 C808 0.931 . S
H825 C813 0.930 . S
H826 C814 0.956 . S
H827 C814 0.961 . S
H828 C814 0.961 . S
H829 C815 0.958 . S
H830 C815 0.961 . S
H831 C815 0.960 . S
C832 C833 1.391 . S
C832 C834 1.394 . S
C832 H848 0.931 . S
C833 C832 1.391 . S
C833 C837 1.376 . S
C834 C832 1.394 . S
C834 C835 1.369 . S
C834 C838 1.531 . S
C835 C834 1.369 . S
C835 C836 1.410 . S
C835 C843 1.503 . S
C836 C835 1.410 . S
C836 C837 1.392 . S
C836 C839 1.511 . S
C837 C833 1.376 . S
C837 C836 1.392 . S
C837 H849 0.929 . S
C838 C834 1.531 . S
C838 H850 0.960 . S
C838 H851 0.962 . S
C838 H852 0.960 . S
C839 C836 1.511 . S
C839 H853 0.961 . S
C839 H854 0.961 . S
C839 H855 0.961 . S
C840 C841 1.370 . S
C840 C842 1.363 . S
C840 H856 0.931 . S
C841 C840 1.370 . S
C841 C845 1.408 . S
C842 C840 1.363 . S
C842 C843 1.370 . S
C842 C846 1.524 . S
C843 C835 1.503 . S
C843 C842 1.370 . S
C843 C844 1.403 . S
C844 C843 1.403 . S
C844 C845 1.404 . S
C844 C847 1.539 . S
C845 C841 1.408 . S
C845 C844 1.404 . S
C845 H857 0.930 . S
C846 C842 1.524 . S
C846 H858 0.956 . S
C846 H859 0.961 . S
C846 H860 0.961 . S
C847 C844 1.539 . S
C847 H861 0.958 . S
C847 H862 0.961 . S
C847 H863 0.960 . S
H848 C832 0.931 . S
H849 C837 0.929 . S
H850 C838 0.960 . S
H851 C838 0.962 . S
H852 C838 0.960 . S
H853 C839 0.961 . S
H854 C839 0.961 . S
H855 C839 0.961 . S
H856 C840 0.931 . S
H857 C845 0.930 . S
H858 C846 0.956 . S
H859 C846 0.961 . S
H860 C846 0.961 . S
H861 C847 0.958 . S
H862 C847 0.961 . S
H863 C847 0.960 . S
C864 C865 1.391 . S
C864 C866 1.394 . S
C864 H880 0.931 . S
C865 C864 1.391 . S
C865 C869 1.376 . S
C866 C864 1.394 . S
C866 C867 1.369 . S
C866 C870 1.531 . S
C867 C866 1.369 . S
C867 C868 1.410 . S
C867 C875 1.503 . S
C868 C867 1.410 . S
C868 C869 1.392 . S
C868 C871 1.511 . S
C869 C865 1.376 . S
C869 C868 1.392 . S
C869 H881 0.929 . S
C870 C866 1.531 . S
C870 H882 0.960 . S
C870 H883 0.962 . S
C870 H884 0.960 . S
C871 C868 1.511 . S
C871 H885 0.961 . S
C871 H886 0.961 . S
C871 H887 0.961 . S
C872 C873 1.370 . S
C872 C874 1.363 . S
C872 H888 0.931 . S
C873 C872 1.370 . S
C873 C877 1.408 . S
C874 C872 1.363 . S
C874 C875 1.370 . S
C874 C878 1.524 . S
C875 C867 1.503 . S
C875 C874 1.370 . S
C875 C876 1.403 . S
C876 C875 1.403 . S
C876 C877 1.404 . S
C876 C879 1.539 . S
C877 C873 1.408 . S
C877 C876 1.404 . S
C877 H889 0.930 . S
C878 C874 1.524 . S
C878 H890 0.956 . S
C878 H891 0.961 . S
C878 H892 0.961 . S
C879 C876 1.539 . S
C879 H893 0.958 . S
C879 H894 0.961 . S
C879 H895 0.960 . S
H880 C864 0.931 . S
H881 C869 0.929 . S
H882 C870 0.960 . S
H883 C870 0.962 . S
H884 C870 0.960 . S
H885 C871 0.961 . S
H886 C871 0.961 . S
H887 C871 0.961 . S
H888 C872 0.931 . S
H889 C877 0.930 . S
H890 C878 0.956 . S
H891 C878 0.961 . S
H892 C878 0.961 . S
H893 C879 0.958 . S
H894 C879 0.961 . S
H895 C879 0.960 . S
C896 C897 1.391 . S
C896 C898 1.394 . S
C896 H912 0.931 . S
C897 C896 1.391 . S
C897 C901 1.376 . S
C898 C896 1.394 . S
C898 C899 1.369 . S
C898 C902 1.531 . S
C899 C898 1.369 . S
C899 C900 1.410 . S
C899 C907 1.503 . S
C900 C899 1.410 . S
C900 C901 1.392 . S
C900 C903 1.511 . S
C901 C897 1.376 . S
C901 C900 1.392 . S
C901 H913 0.929 . S
C902 C898 1.531 . S
C902 H914 0.960 . S
C902 H915 0.962 . S
C902 H916 0.960 . S
C903 C900 1.511 . S
C903 H917 0.961 . S
C903 H918 0.961 . S
C903 H919 0.961 . S
C904 C905 1.370 . S
C904 C906 1.363 . S
C904 H920 0.931 . S
C905 C904 1.370 . S
C905 C909 1.408 . S
C906 C904 1.363 . S
C906 C907 1.370 . S
C906 C910 1.524 . S
C907 C899 1.503 . S
C907 C906 1.370 . S
C907 C908 1.403 . S
C908 C907 1.403 . S
C908 C909 1.404 . S
C908 C911 1.539 . S
C909 C905 1.408 . S
C909 C908 1.404 . S
C909 H921 0.930 . S
C910 C906 1.524 . S
C910 H922 0.956 . S
C910 H923 0.961 . S
C910 H924 0.961 . S
C911 C908 1.539 . S
C911 H925 0.958 . S
C911 H926 0.961 . S
C911 H927 0.960 . S
H912 C896 0.931 . S
H913 C901 0.929 . S
H914 C902 0.960 . S
H915 C902 0.962 . S
H916 C902 0.960 . S
H917 C903 0.961 . S
H918 C903 0.961 . S
H919 C903 0.961 . S
H920 C904 0.931 . S
H921 C909 0.930 . S
H922 C910 0.956 . S
H923 C910 0.961 . S
H924 C910 0.961 . S
H925 C911 0.958 . S
H926 C911 0.961 . S
H927 C911 0.960 . S
C928 C929 1.391 . S
C928 C930 1.394 . S
C928 H944 0.931 . S
C929 C928 1.391 . S
C929 C933 1.376 . S
C930 C928 1.394 . S
C930 C931 1.369 . S
C930 C934 1.531 . S
C931 C930 1.369 . S
C931 C932 1.410 . S
C931 C939 1.503 . S
C932 C931 1.410 . S
C932 C933 1.392 . S
C932 C935 1.511 . S
C933 C929 1.376 . S
C933 C932 1.392 . S
C933 H945 0.929 . S
C934 C930 1.531 . S
C934 H946 0.960 . S
C934 H947 0.962 . S
C934 H948 0.960 . S
C935 C932 1.511 . S
C935 H949 0.961 . S
C935 H950 0.961 . S
C935 H951 0.961 . S
C936 C937 1.370 . S
C936 C938 1.363 . S
C936 H952 0.931 . S
C937 C936 1.370 . S
C937 C941 1.408 . S
C938 C936 1.363 . S
C938 C939 1.370 . S
C938 C942 1.524 . S
C939 C931 1.503 . S
C939 C938 1.370 . S
C939 C940 1.403 . S
C940 C939 1.403 . S
C940 C941 1.404 . S
C940 C943 1.539 . S
C941 C937 1.408 . S
C941 C940 1.404 . S
C941 H953 0.930 . S
C942 C938 1.524 . S
C942 H954 0.956 . S
C942 H955 0.961 . S
C942 H956 0.961 . S
C943 C940 1.539 . S
C943 H957 0.958 . S
C943 H958 0.961 . S
C943 H959 0.960 . S
H944 C928 0.931 . S
H945 C933 0.929 . S
H946 C934 0.960 . S
H947 C934 0.962 . S
H948 C934 0.960 . S
H949 C935 0.961 . S
H950 C935 0.961 . S
H951 C935 0.961 . S
H952 C936 0.931 . S
H953 C941 0.930 . S
H954 C942 0.956 . S
H955 C942 0.961 . S
H956 C942 0.961 . S
H957 C943 0.958 . S
H958 C943 0.961 . S
H959 C943 0.960 . S
C960 C961 1.391 . S
C960 C962 1.394 1_554 S
C960 H976 0.931 1_655 S
C961 C960 1.391 . S
C961 C965 1.376 . S
C962 C960 1.394 1_556 S
C962 C963 1.369 . S
C962 C966 1.531 . S
C963 C962 1.369 . S
C963 C964 1.410 1_556 S
C963 C971 1.503 . S
C964 C963 1.410 1_554 S
C964 C965 1.392 . S
C964 C967 1.511 . S
C965 C961 1.376 . S
C965 C964 1.392 . S
C965 H977 0.929 . S
C966 C962 1.531 . S
C966 H978 0.960 . S
C966 H979 0.962 . S
C966 H980 0.960 1_655 S
C967 C964 1.511 . S
C967 H981 0.961 . S
C967 H982 0.961 1_554 S
C967 H983 0.961 . S
C968 C969 1.370 . S
C968 C970 1.363 . S
C968 H984 0.931 . S
C969 C968 1.370 . S
C969 C973 1.408 . S
C970 C968 1.363 . S
C970 C971 1.370 . S
C970 C974 1.524 . S
C971 C963 1.503 . S
C971 C970 1.370 . S
C971 C972 1.403 . S
C972 C971 1.403 . S
C972 C973 1.404 . S
C972 C975 1.539 . S
C973 C969 1.408 . S
C973 C972 1.404 . S
C973 H985 0.930 . S
C974 C970 1.524 . S
C974 H986 0.956 . S
C974 H987 0.961 . S
C974 H988 0.961 . S
C975 C972 1.539 . S
C975 H989 0.958 . S
C975 H990 0.961 . S
C975 H991 0.960 . S
H976 C960 0.931 1_455 S
H977 C965 0.929 . S
H978 C966 0.960 . S
H979 C966 0.962 . S
H980 C966 0.960 1_455 S
H981 C967 0.961 . S
H982 C967 0.961 1_556 S
H983 C967 0.961 . S
H984 C968 0.931 . S
H985 C973 0.930 . S
H986 C974 0.956 . S
H987 C974 0.961 . S
H988 C974 0.961 . S
H989 C975 0.958 . S
H990 C975 0.961 . S
H991 C975 0.960 . S
C992 C993 1.391 . S
C992 C994 1.394 . S
C992 H1008 0.931 . S
C993 C992 1.391 . S
C993 C997 1.376 . S
C994 C992 1.394 . S
C994 C995 1.369 . S
C994 C998 1.531 . S
C995 C994 1.369 . S
C995 C996 1.410 . S
C995 C1003 1.503 . S
C996 C995 1.410 . S
C996 C997 1.392 . S
C996 C999 1.511 . S
C997 C993 1.376 . S
C997 C996 1.392 . S
C997 H1009 0.929 . S
C998 C994 1.531 . S
C998 H1010 0.960 . S
C998 H1011 0.962 . S
C998 H1012 0.960 . S
C999 C996 1.511 . S
C999 H1013 0.961 . S
C999 H1014 0.961 . S
C999 H1015 0.961 . S
C1000 C1001 1.370 . S
C1000 C1002 1.363 . S
C1000 H1016 0.931 . S
C1001 C1000 1.370 . S
C1001 C1005 1.408 . S
C1002 C1000 1.363 . S
C1002 C1003 1.370 . S
C1002 C1006 1.524 . S
C1003 C995 1.503 . S
C1003 C1002 1.370 . S
C1003 C1004 1.403 . S
C1004 C1003 1.403 . S
C1004 C1005 1.404 . S
C1004 C1007 1.539 . S
C1005 C1001 1.408 . S
C1005 C1004 1.404 . S
C1005 H1017 0.930 . S
C1006 C1002 1.524 . S
C1006 H1018 0.956 . S
C1006 H1019 0.961 . S
C1006 H1020 0.961 . S
C1007 C1004 1.539 . S
C1007 H1021 0.958 . S
C1007 H1022 0.961 . S
C1007 H1023 0.960 . S
H1008 C992 0.931 . S
H1009 C997 0.929 . S
H1010 C998 0.960 . S
H1011 C998 0.962 . S
H1012 C998 0.960 . S
H1013 C999 0.961 . S
H1014 C999 0.961 . S
H1015 C999 0.961 . S
H1016 C1000 0.931 . S
H1017 C1005 0.930 . S
H1018 C1006 0.956 . S
H1019 C1006 0.961 . S
H1020 C1006 0.961 . S
H1021 C1007 0.958 . S
H1022 C1007 0.961 . S
H1023 C1007 0.960 . S
C1024 C1025 1.391 . S
C1024 C1026 1.394 . S
C1024 H1040 0.931 . S
C1025 C1024 1.391 . S
C1025 C1029 1.376 . S
C1026 C1024 1.394 . S
C1026 C1027 1.369 . S
C1026 C1030 1.531 . S
C1027 C1026 1.369 . S
C1027 C1028 1.410 . S
C1027 C1035 1.503 . S
C1028 C1027 1.410 . S
C1028 C1029 1.392 . S
C1028 C1031 1.511 . S
C1029 C1025 1.376 . S
C1029 C1028 1.392 . S
C1029 H1041 0.929 . S
C1030 C1026 1.531 . S
C1030 H1042 0.960 . S
C1030 H1043 0.962 . S
C1030 H1044 0.960 . S
C1031 C1028 1.511 . S
C1031 H1045 0.961 . S
C1031 H1046 0.961 . S
C1031 H1047 0.961 . S
C1032 C1033 1.370 . S
C1032 C1034 1.363 . S
C1032 H1048 0.931 . S
C1033 C1032 1.370 . S
C1033 C1037 1.408 . S
C1034 C1032 1.363 . S
C1034 C1035 1.370 . S
C1034 C1038 1.524 . S
C1035 C1027 1.503 . S
C1035 C1034 1.370 . S
C1035 C1036 1.403 . S
C1036 C1035 1.403 . S
C1036 C1037 1.404 . S
C1036 C1039 1.539 . S
C1037 C1033 1.408 . S
C1037 C1036 1.404 . S
C1037 H1049 0.930 . S
C1038 C1034 1.524 . S
C1038 H1050 0.956 . S
C1038 H1051 0.961 . S
C1038 H1052 0.961 . S
C1039 C1036 1.539 . S
C1039 H1053 0.958 . S
C1039 H1054 0.961 . S
C1039 H1055 0.960 . S
H1040 C1024 0.931 . S
H1041 C1029 0.929 . S
H1042 C1030 0.960 . S
H1043 C1030 0.962 . S
H1044 C1030 0.960 . S
H1045 C1031 0.961 . S
H1046 C1031 0.961 . S
H1047 C1031 0.961 . S
H1048 C1032 0.931 . S
H1049 C1037 0.930 . S
H1050 C1038 0.956 . S
H1051 C1038 0.961 . S
H1052 C1038 0.961 . S
H1053 C1039 0.958 . S
H1054 C1039 0.961 . S
H1055 C1039 0.960 . S
C1056 C1057 1.391 . S
C1056 C1058 1.394 . S
C1056 H1072 0.931 . S
C1057 C1056 1.391 . S
C1057 C1061 1.376 . S
C1058 C1056 1.394 . S
C1058 C1059 1.369 . S
C1058 C1062 1.531 . S
C1059 C1058 1.369 . S
C1059 C1060 1.410 . S
C1059 C1067 1.503 . S
C1060 C1059 1.410 . S
C1060 C1061 1.392 . S
C1060 C1063 1.511 . S
C1061 C1057 1.376 . S
C1061 C1060 1.392 . S
C1061 H1073 0.929 . S
C1062 C1058 1.531 . S
C1062 H1074 0.960 . S
C1062 H1075 0.962 . S
C1062 H1076 0.960 . S
C1063 C1060 1.511 . S
C1063 H1077 0.961 . S
C1063 H1078 0.961 . S
C1063 H1079 0.961 . S
C1064 C1065 1.370 . S
C1064 C1066 1.363 . S
C1064 H1080 0.931 . S
C1065 C1064 1.370 . S
C1065 C1069 1.408 . S
C1066 C1064 1.363 . S
C1066 C1067 1.370 . S
C1066 C1070 1.524 . S
C1067 C1059 1.503 . S
C1067 C1066 1.370 . S
C1067 C1068 1.403 . S
C1068 C1067 1.403 . S
C1068 C1069 1.404 . S
C1068 C1071 1.539 . S
C1069 C1065 1.408 . S
C1069 C1068 1.404 . S
C1069 H1081 0.930 . S
C1070 C1066 1.524 . S
C1070 H1082 0.956 . S
C1070 H1083 0.961 . S
C1070 H1084 0.961 . S
C1071 C1068 1.539 . S
C1071 H1085 0.958 . S
C1071 H1086 0.961 . S
C1071 H1087 0.960 . S
H1072 C1056 0.931 . S
H1073 C1061 0.929 . S
H1074 C1062 0.960 . S
H1075 C1062 0.962 . S
H1076 C1062 0.960 . S
H1077 C1063 0.961 . S
H1078 C1063 0.961 . S
H1079 C1063 0.961 . S
H1080 C1064 0.931 . S
H1081 C1069 0.930 . S
H1082 C1070 0.956 . S
H1083 C1070 0.961 . S
H1084 C1070 0.961 . S
H1085 C1071 0.958 . S
H1086 C1071 0.961 . S
H1087 C1071 0.960 . S
C1088 C1089 1.391 . S
C1088 C1090 1.394 . S
C1088 H1104 0.931 . S
C1089 C1088 1.391 . S
C1089 C1093 1.376 . S
C1090 C1088 1.394 . S
C1090 C1091 1.369 . S
C1090 C1094 1.531 . S
C1091 C1090 1.369 . S
C1091 C1092 1.410 . S
C1091 C1099 1.503 . S
C1092 C1091 1.410 . S
C1092 C1093 1.392 . S
C1092 C1095 1.511 . S
C1093 C1089 1.376 . S
C1093 C1092 1.392 . S
C1093 H1105 0.929 . S
C1094 C1090 1.531 . S
C1094 H1106 0.960 . S
C1094 H1107 0.962 . S
C1094 H1108 0.960 . S
C1095 C1092 1.511 . S
C1095 H1109 0.961 . S
C1095 H1110 0.961 . S
C1095 H1111 0.961 . S
C1096 C1097 1.370 1_554 S
C1096 C1098 1.363 . S
C1096 H1112 0.931 . S
C1097 C1096 1.370 1_556 S
C1097 C1101 1.408 . S
C1098 C1096 1.363 . S
C1098 C1099 1.370 . S
C1098 C1102 1.524 . S
C1099 C1091 1.503 . S
C1099 C1098 1.370 . S
C1099 C1100 1.403 . S
C1100 C1099 1.403 . S
C1100 C1101 1.404 1_554 S
C1100 C1103 1.539 . S
C1101 C1097 1.408 . S
C1101 C1100 1.404 1_556 S
C1101 H1113 0.930 . S
C1102 C1098 1.524 . S
C1102 H1114 0.956 . S
C1102 H1115 0.961 . S
C1102 H1116 0.961 . S
C1103 C1100 1.539 . S
C1103 H1117 0.958 . S
C1103 H1118 0.961 1_554 S
C1103 H1119 0.960 . S
H1104 C1088 0.931 . S
H1105 C1093 0.929 . S
H1106 C1094 0.960 . S
H1107 C1094 0.962 . S
H1108 C1094 0.960 . S
H1109 C1095 0.961 . S
H1110 C1095 0.961 . S
H1111 C1095 0.961 . S
H1112 C1096 0.931 . S
H1113 C1101 0.930 . S
H1114 C1102 0.956 . S
H1115 C1102 0.961 . S
H1116 C1102 0.961 . S
H1117 C1103 0.958 . S
H1118 C1103 0.961 1_556 S
H1119 C1103 0.960 . S
C1120 C1121 1.391 . S
C1120 C1122 1.394 . S
C1120 H1136 0.931 . S
C1121 C1120 1.391 . S
C1121 C1125 1.376 . S
C1122 C1120 1.394 . S
C1122 C1123 1.369 . S
C1122 C1126 1.531 . S
C1123 C1122 1.369 . S
C1123 C1124 1.410 . S
C1123 C1131 1.503 . S
C1124 C1123 1.410 . S
C1124 C1125 1.392 . S
C1124 C1127 1.511 . S
C1125 C1121 1.376 . S
C1125 C1124 1.392 . S
C1125 H1137 0.929 . S
C1126 C1122 1.531 . S
C1126 H1138 0.960 . S
C1126 H1139 0.962 . S
C1126 H1140 0.960 . S
C1127 C1124 1.511 . S
C1127 H1141 0.961 . S
C1127 H1142 0.961 . S
C1127 H1143 0.961 . S
C1128 C1129 1.370 . S
C1128 C1130 1.363 . S
C1128 H1144 0.931 . S
C1129 C1128 1.370 . S
C1129 C1133 1.408 . S
C1130 C1128 1.363 . S
C1130 C1131 1.370 . S
C1130 C1134 1.524 . S
C1131 C1123 1.503 . S
C1131 C1130 1.370 . S
C1131 C1132 1.403 . S
C1132 C1131 1.403 . S
C1132 C1133 1.404 . S
C1132 C1135 1.539 . S
C1133 C1129 1.408 . S
C1133 C1132 1.404 . S
C1133 H1145 0.930 . S
C1134 C1130 1.524 . S
C1134 H1146 0.956 . S
C1134 H1147 0.961 . S
C1134 H1148 0.961 . S
C1135 C1132 1.539 . S
C1135 H1149 0.958 . S
C1135 H1150 0.961 . S
C1135 H1151 0.960 . S
H1136 C1120 0.931 . S
H1137 C1125 0.929 . S
H1138 C1126 0.960 . S
H1139 C1126 0.962 . S
H1140 C1126 0.960 . S
H1141 C1127 0.961 . S
H1142 C1127 0.961 . S
H1143 C1127 0.961 . S
H1144 C1128 0.931 . S
H1145 C1133 0.930 . S
H1146 C1134 0.956 . S
H1147 C1134 0.961 . S
H1148 C1134 0.961 . S
H1149 C1135 0.958 . S
H1150 C1135 0.961 . S
H1151 C1135 0.960 . S
C1152 C1153 1.391 . S
C1152 C1154 1.394 . S
C1152 H1168 0.931 . S
C1153 C1152 1.391 . S
C1153 C1157 1.376 1_455 S
C1154 C1152 1.394 . S
C1154 C1155 1.369 1_455 S
C1154 C1158 1.531 . S
C1155 C1154 1.369 1_655 S
C1155 C1156 1.410 . S
C1155 C1163 1.504 . S
C1156 C1155 1.410 . S
C1156 C1157 1.392 . S
C1156 C1159 1.511 . S
C1157 C1153 1.376 1_655 S
C1157 C1156 1.392 . S
C1157 H1169 0.929 . S
C1158 C1154 1.531 . S
C1158 H1170 0.960 . S
C1158 H1171 0.962 . S
C1158 H1172 0.960 . S
C1159 C1156 1.511 . S
C1159 H1173 0.961 . S
C1159 H1174 0.961 . S
C1159 H1175 0.961 . S
C1160 C1161 1.370 . S
C1160 C1162 1.363 . S
C1160 H1176 0.931 . S
C1161 C1160 1.370 . S
C1161 C1165 1.408 1_455 S
C1162 C1160 1.363 . S
C1162 C1163 1.361 1_455 S
C1162 C1166 1.524 . S
C1163 C1155 1.504 . S
C1163 C1162 1.361 1_655 S
C1163 C1164 1.411 . S
C1164 C1163 1.411 . S
C1164 C1165 1.404 . S
C1164 C1167 1.539 . S
C1165 C1161 1.408 1_655 S
C1165 C1164 1.404 . S
C1165 H1177 0.930 . S
C1166 C1162 1.524 . S
C1166 H1178 0.956 . S
C1166 H1179 0.961 . S
C1166 H1180 0.961 . S
C1167 C1164 1.539 . S
C1167 H1181 0.958 . S
C1167 H1182 0.961 . S
C1167 H1183 0.960 . S
H1168 C1152 0.931 . S
H1169 C1157 0.929 . S
H1170 C1158 0.960 . S
H1171 C1158 0.962 . S
H1172 C1158 0.960 . S
H1173 C1159 0.961 . S
H1174 C1159 0.961 . S
H1175 C1159 0.961 . S
H1176 C1160 0.931 . S
H1177 C1165 0.930 . S
H1178 C1166 0.956 . S
H1179 C1166 0.961 . S
H1180 C1166 0.961 . S
H1181 C1167 0.958 . S
H1182 C1167 0.961 . S
H1183 C1167 0.960 . S
C1184 C1185 1.391 . S
C1184 C1186 1.394 . S
C1184 H1200 0.931 . S
C1185 C1184 1.391 . S
C1185 C1189 1.376 . S
C1186 C1184 1.394 . S
C1186 C1187 1.369 1_655 S
C1186 C1190 1.531 1_655 S
C1187 C1186 1.369 1_455 S
C1187 C1188 1.410 1_455 S
C1187 C1195 1.503 . S
C1188 C1187 1.410 1_655 S
C1188 C1189 1.392 . S
C1188 C1191 1.511 1_655 S
C1189 C1185 1.376 . S
C1189 C1188 1.392 . S
C1189 H1201 0.929 . S
C1190 C1186 1.531 1_455 S
C1190 H1202 0.960 . S
C1190 H1203 0.962 . S
C1190 H1204 0.960 1_455 S
C1191 C1188 1.511 1_455 S
C1191 H1205 0.961 1_455 S
C1191 H1206 0.961 . S
C1191 H1207 0.961 . S
C1192 C1193 1.370 . S
C1192 C1194 1.363 . S
C1192 H1208 0.931 . S
C1193 C1192 1.370 . S
C1193 C1197 1.408 . S
C1194 C1192 1.363 . S
C1194 C1195 1.370 . S
C1194 C1198 1.524 . S
C1195 C1187 1.503 . S
C1195 C1194 1.370 . S
C1195 C1196 1.403 . S
C1196 C1195 1.403 . S
C1196 C1197 1.404 . S
C1196 C1199 1.539 . S
C1197 C1193 1.408 . S
C1197 C1196 1.404 . S
C1197 H1209 0.930 . S
C1198 C1194 1.524 . S
C1198 H1210 0.956 . S
C1198 H1211 0.961 . S
C1198 H1212 0.961 . S
C1199 C1196 1.539 . S
C1199 H1213 0.958 . S
C1199 H1214 0.961 . S
C1199 H1215 0.960 . S
H1200 C1184 0.931 . S
H1201 C1189 0.929 . S
H1202 C1190 0.960 . S
H1203 C1190 0.962 . S
H1204 C1190 0.960 1_655 S
H1205 C1191 0.961 1_655 S
H1206 C1191 0.961 . S
H1207 C1191 0.961 . S
H1208 C1192 0.931 . S
H1209 C1197 0.930 . S
H1210 C1198 0.956 . S
H1211 C1198 0.961 . S
H1212 C1198 0.961 . S
H1213 C1199 0.958 . S
H1214 C1199 0.961 . S
H1215 C1199 0.960 . S
C1216 C1217 1.391 . S
C1216 C1218 1.394 . S
C1216 H1232 0.931 . S
C1217 C1216 1.391 . S
C1217 C1221 1.376 . S
C1218 C1216 1.394 . S
C1218 C1219 1.369 . S
C1218 C1222 1.531 . S
C1219 C1218 1.369 . S
C1219 C1220 1.410 . S
C1219 C1227 1.503 . S
C1220 C1219 1.410 . S
C1220 C1221 1.392 . S
C1220 C1223 1.511 . S
C1221 C1217 1.376 . S
C1221 C1220 1.392 . S
C1221 H1233 0.929 . S
C1222 C1218 1.531 . S
C1222 H1234 0.960 . S
C1222 H1235 0.962 . S
C1222 H1236 0.960 . S
C1223 C1220 1.511 . S
C1223 H1237 0.961 . S
C1223 H1238 0.961 . S
C1223 H1239 0.961 . S
C1224 C1225 1.370 . S
C1224 C1226 1.363 . S
C1224 H1240 0.931 . S
C1225 C1224 1.370 . S
C1225 C1229 1.408 . S
C1226 C1224 1.363 . S
C1226 C1227 1.370 . S
C1226 C1230 1.524 . S
C1227 C1219 1.503 . S
C1227 C1226 1.370 . S
C1227 C1228 1.403 . S
C1228 C1227 1.403 . S
C1228 C1229 1.404 . S
C1228 C1231 1.539 . S
C1229 C1225 1.408 . S
C1229 C1228 1.404 . S
C1229 H1241 0.930 . S
C1230 C1226 1.524 . S
C1230 H1242 0.956 . S
C1230 H1243 0.961 . S
C1230 H1244 0.961 . S
C1231 C1228 1.539 . S
C1231 H1245 0.958 . S
C1231 H1246 0.961 . S
C1231 H1247 0.960 . S
H1232 C1216 0.931 . S
H1233 C1221 0.929 . S
H1234 C1222 0.960 . S
H1235 C1222 0.962 . S
H1236 C1222 0.960 . S
H1237 C1223 0.961 . S
H1238 C1223 0.961 . S
H1239 C1223 0.961 . S
H1240 C1224 0.931 . S
H1241 C1229 0.930 . S
H1242 C1230 0.956 . S
H1243 C1230 0.961 . S
H1244 C1230 0.961 . S
H1245 C1231 0.958 . S
H1246 C1231 0.961 . S
H1247 C1231 0.960 . S
C1248 C1249 1.391 . S
C1248 C1250 1.394 . S
C1248 H1264 0.931 . S
C1249 C1248 1.391 . S
C1249 C1253 1.376 . S
C1250 C1248 1.394 . S
C1250 C1251 1.369 . S
C1250 C1254 1.531 . S
C1251 C1250 1.369 . S
C1251 C1252 1.410 . S
C1251 C1259 1.503 . S
C1252 C1251 1.410 . S
C1252 C1253 1.392 . S
C1252 C1255 1.511 . S
C1253 C1249 1.376 . S
C1253 C1252 1.392 . S
C1253 H1265 0.929 . S
C1254 C1250 1.531 . S
C1254 H1266 0.960 . S
C1254 H1267 0.962 . S
C1254 H1268 0.960 . S
C1255 C1252 1.511 . S
C1255 H1269 0.961 . S
C1255 H1270 0.961 . S
C1255 H1271 0.961 . S
C1256 C1257 1.370 . S
C1256 C1258 1.363 . S
C1256 H1272 0.931 . S
C1257 C1256 1.370 . S
C1257 C1261 1.408 . S
C1258 C1256 1.363 . S
C1258 C1259 1.370 . S
C1258 C1262 1.524 . S
C1259 C1251 1.503 . S
C1259 C1258 1.370 . S
C1259 C1260 1.403 . S
C1260 C1259 1.403 . S
C1260 C1261 1.404 . S
C1260 C1263 1.539 . S
C1261 C1257 1.408 . S
C1261 C1260 1.404 . S
C1261 H1273 0.930 . S
C1262 C1258 1.524 . S
C1262 H1274 0.956 . S
C1262 H1275 0.961 . S
C1262 H1276 0.961 . S
C1263 C1260 1.539 . S
C1263 H1277 0.958 . S
C1263 H1278 0.961 . S
C1263 H1279 0.960 . S
H1264 C1248 0.931 . S
H1265 C1253 0.929 . S
H1266 C1254 0.960 . S
H1267 C1254 0.962 . S
H1268 C1254 0.960 . S
H1269 C1255 0.961 . S
H1270 C1255 0.961 . S
H1271 C1255 0.961 . S
H1272 C1256 0.931 . S
H1273 C1261 0.930 . S
H1274 C1262 0.956 . S
H1275 C1262 0.961 . S
H1276 C1262 0.961 . S
H1277 C1263 0.958 . S
H1278 C1263 0.961 . S
H1279 C1263 0.960 . S
C1280 C1281 1.391 . S
C1280 C1282 1.394 . S
C1280 H1296 0.931 . S
C1281 C1280 1.391 . S
C1281 C1285 1.376 1_455 S
C1282 C1280 1.394 . S
C1282 C1283 1.369 . S
C1282 C1286 1.531 . S
C1283 C1282 1.369 . S
C1283 C1284 1.410 1_455 S
C1283 C1291 1.503 . S
C1284 C1283 1.410 1_655 S
C1284 C1285 1.392 . S
C1284 C1287 1.511 . S
C1285 C1281 1.376 1_655 S
C1285 C1284 1.392 . S
C1285 H1297 0.929 . S
C1286 C1282 1.531 . S
C1286 H1298 0.960 . S
C1286 H1299 0.962 . S
C1286 H1300 0.960 . S
C1287 C1284 1.511 . S
C1287 H1301 0.961 . S
C1287 H1302 0.961 . S
C1287 H1303 0.961 . S
C1288 C1289 1.370 . S
C1288 C1290 1.363 . S
C1288 H1304 0.931 . S
C1289 C1288 1.370 . S
C1289 C1293 1.408 . S
C1290 C1288 1.363 . S
C1290 C1291 1.370 . S
C1290 C1294 1.524 . S
C1291 C1283 1.503 . S
C1291 C1290 1.370 . S
C1291 C1292 1.403 . S
C1292 C1291 1.403 . S
C1292 C1293 1.404 . S
C1292 C1295 1.539 1_455 S
C1293 C1289 1.408 . S
C1293 C1292 1.404 . S
C1293 H1305 0.930 . S
C1294 C1290 1.524 . S
C1294 H1306 0.956 . S
C1294 H1307 0.961 . S
C1294 H1308 0.961 . S
C1295 C1292 1.539 1_655 S
C1295 H1309 0.958 1_655 S
C1295 H1310 0.961 . S
C1295 H1311 0.960 . S
H1296 C1280 0.931 . S
H1297 C1285 0.929 . S
H1298 C1286 0.960 . S
H1299 C1286 0.962 . S
H1300 C1286 0.960 . S
H1301 C1287 0.961 . S
H1302 C1287 0.961 . S
H1303 C1287 0.961 . S
H1304 C1288 0.931 . S
H1305 C1293 0.930 . S
H1306 C1294 0.956 . S
H1307 C1294 0.961 . S
H1308 C1294 0.961 . S
H1309 C1295 0.958 1_455 S
H1310 C1295 0.961 . S
H1311 C1295 0.960 . S
C1312 C1313 1.391 . S
C1312 C1314 1.394 . S
C1312 H1328 0.931 . S
C1313 C1312 1.391 . S
C1313 C1317 1.376 . S
C1314 C1312 1.394 . S
C1314 C1315 1.369 . S
C1314 C1318 1.531 . S
C1315 C1314 1.369 . S
C1315 C1316 1.410 . S
C1315 C1323 1.503 . S
C1316 C1315 1.410 . S
C1316 C1317 1.392 . S
C1316 C1319 1.511 . S
C1317 C1313 1.376 . S
C1317 C1316 1.392 . S
C1317 H1329 0.929 . S
C1318 C1314 1.531 . S
C1318 H1330 0.960 . S
C1318 H1331 0.962 . S
C1318 H1332 0.960 . S
C1319 C1316 1.511 . S
C1319 H1333 0.961 . S
C1319 H1334 0.961 . S
C1319 H1335 0.961 . S
C1320 C1321 1.370 . S
C1320 C1322 1.363 . S
C1320 H1336 0.931 . S
C1321 C1320 1.370 . S
C1321 C1325 1.408 . S
C1322 C1320 1.363 . S
C1322 C1323 1.370 . S
C1322 C1326 1.524 . S
C1323 C1315 1.503 . S
C1323 C1322 1.370 . S
C1323 C1324 1.403 . S
C1324 C1323 1.403 . S
C1324 C1325 1.404 . S
C1324 C1327 1.539 . S
C1325 C1321 1.408 . S
C1325 C1324 1.404 . S
C1325 H1337 0.930 . S
C1326 C1322 1.524 . S
C1326 H1338 0.956 . S
C1326 H1339 0.961 . S
C1326 H1340 0.961 . S
C1327 C1324 1.539 . S
C1327 H1341 0.958 . S
C1327 H1342 0.961 . S
C1327 H1343 0.960 . S
H1328 C1312 0.931 . S
H1329 C1317 0.929 . S
H1330 C1318 0.960 . S
H1331 C1318 0.962 . S
H1332 C1318 0.960 . S
H1333 C1319 0.961 . S
H1334 C1319 0.961 . S
H1335 C1319 0.961 . S
H1336 C1320 0.931 . S
H1337 C1325 0.930 . S
H1338 C1326 0.956 . S
H1339 C1326 0.961 . S
H1340 C1326 0.961 . S
H1341 C1327 0.958 . S
H1342 C1327 0.961 . S
H1343 C1327 0.960 . S
C1344 C1345 1.391 . S
C1344 C1346 1.394 . S
C1344 H1360 0.931 . S
C1345 C1344 1.391 . S
C1345 C1349 1.376 . S
C1346 C1344 1.394 . S
C1346 C1347 1.369 . S
C1346 C1350 1.531 . S
C1347 C1346 1.369 . S
C1347 C1348 1.410 . S
C1347 C1355 1.503 . S
C1348 C1347 1.410 . S
C1348 C1349 1.392 . S
C1348 C1351 1.511 . S
C1349 C1345 1.376 . S
C1349 C1348 1.392 . S
C1349 H1361 0.929 . S
C1350 C1346 1.531 . S
C1350 H1362 0.960 . S
C1350 H1363 0.962 . S
C1350 H1364 0.960 . S
C1351 C1348 1.511 . S
C1351 H1365 0.961 . S
C1351 H1366 0.961 . S
C1351 H1367 0.961 . S
C1352 C1353 1.370 . S
C1352 C1354 1.363 . S
C1352 H1368 0.931 . S
C1353 C1352 1.370 . S
C1353 C1357 1.408 . S
C1354 C1352 1.363 . S
C1354 C1355 1.370 . S
C1354 C1358 1.524 . S
C1355 C1347 1.503 . S
C1355 C1354 1.370 . S
C1355 C1356 1.403 . S
C1356 C1355 1.403 . S
C1356 C1357 1.404 . S
C1356 C1359 1.539 . S
C1357 C1353 1.408 . S
C1357 C1356 1.404 . S
C1357 H1369 0.930 . S
C1358 C1354 1.524 . S
C1358 H1370 0.956 . S
C1358 H1371 0.961 . S
C1358 H1372 0.961 . S
C1359 C1356 1.539 . S
C1359 H1373 0.958 . S
C1359 H1374 0.961 . S
C1359 H1375 0.960 . S
H1360 C1344 0.931 . S
H1361 C1349 0.929 . S
H1362 C1350 0.960 . S
H1363 C1350 0.962 . S
H1364 C1350 0.960 . S
H1365 C1351 0.961 . S
H1366 C1351 0.961 . S
H1367 C1351 0.961 . S
H1368 C1352 0.931 . S
H1369 C1357 0.930 . S
H1370 C1358 0.956 . S
H1371 C1358 0.961 . S
H1372 C1358 0.961 . S
H1373 C1359 0.958 . S
H1374 C1359 0.961 . S
H1375 C1359 0.960 . S
C1376 C1377 1.391 . S
C1376 C1378 1.394 . S
C1376 H1392 0.931 . S
C1377 C1376 1.391 . S
C1377 C1381 1.376 . S
C1378 C1376 1.394 . S
C1378 C1379 1.369 . S
C1378 C1382 1.531 . S
C1379 C1378 1.369 . S
C1379 C1380 1.410 . S
C1379 C1387 1.503 1_455 S
C1380 C1379 1.410 . S
C1380 C1381 1.392 . S
C1380 C1383 1.511 1_455 S
C1381 C1377 1.376 . S
C1381 C1380 1.392 . S
C1381 H1393 0.929 . S
C1382 C1378 1.531 . S
C1382 H1394 0.960 . S
C1382 H1395 0.962 . S
C1382 H1396 0.960 . S
C1383 C1380 1.511 1_655 S
C1383 H1397 0.961 . S
C1383 H1398 0.961 . S
C1383 H1399 0.961 . S
C1384 C1385 1.370 . S
C1384 C1386 1.363 . S
C1384 H1400 0.931 . S
C1385 C1384 1.370 . S
C1385 C1389 1.408 . S
C1386 C1384 1.363 . S
C1386 C1387 1.370 . S
C1386 C1390 1.524 1_655 S
C1387 C1379 1.503 1_655 S
C1387 C1386 1.370 . S
C1387 C1388 1.403 . S
C1388 C1387 1.403 . S
C1388 C1389 1.404 . S
C1388 C1391 1.539 . S
C1389 C1385 1.408 . S
C1389 C1388 1.404 . S
C1389 H1401 0.930 . S
C1390 C1386 1.524 1_455 S
C1390 H1402 0.956 . S
C1390 H1403 0.961 . S
C1390 H1404 0.961 . S
C1391 C1388 1.539 . S
C1391 H1405 0.958 . S
C1391 H1406 0.961 . S
C1391 H1407 0.960 . S
H1392 C1376 0.931 . S
H1393 C1381 0.929 . S
H1394 C1382 0.960 . S
H1395 C1382 0.962 . S
H1396 C1382 0.960 . S
H1397 C1383 0.961 . S
H1398 C1383 0.961 . S
H1399 C1383 0.961 . S
H1400 C1384 0.931 . S
H1401 C1389 0.930 . S
H1402 C1390 0.956 . S
H1403 C1390 0.961 . S
H1404 C1390 0.961 . S
H1405 C1391 0.958 . S
H1406 C1391 0.961 . S
H1407 C1391 0.960 . S
C1408 C1409 1.391 . S
C1408 C1410 1.394 1_545 S
C1408 H1424 0.931 . S
C1409 C1408 1.391 . S
C1409 C1413 1.376 1_455 S
C1410 C1408 1.394 1_565 S
C1410 C1411 1.374 . S
C1410 C1414 1.531 . S
C1411 C1410 1.374 . S
C1411 C1412 1.393 1_465 S
C1411 C1419 1.514 1_554 S
C1412 C1411 1.393 1_645 S
C1412 C1413 1.392 . S
C1412 C1415 1.511 1_554 S
C1413 C1409 1.376 1_655 S
C1413 C1412 1.392 . S
C1413 H1425 0.929 . S
C1414 C1410 1.531 . S
C1414 H1426 0.960 . S
C1414 H1427 0.962 . S
C1414 H1428 0.960 . S
C1415 C1412 1.511 1_556 S
C1415 H1429 0.961 . S
C1415 H1430 0.961 . S
C1415 H1431 0.961 . S
C1416 C1417 1.370 . S
C1416 C1418 1.363 . S
C1416 H1432 0.931 . S
C1417 C1416 1.370 . S
C1417 C1421 1.408 1_455 S
C1418 C1416 1.363 . S
C1418 C1419 1.370 . S
C1418 C1422 1.524 1_565 S
C1419 C1411 1.514 1_556 S
C1419 C1418 1.370 . S
C1419 C1420 1.403 1_455 S
C1420 C1419 1.403 1_655 S
C1420 C1421 1.404 . S
C1420 C1423 1.539 1_556 S
C1421 C1417 1.408 1_655 S
C1421 C1420 1.404 . S
C1421 H1433 0.930 . S
C1422 C1418 1.524 1_545 S
C1422 H1434 0.956 . S
C1422 H1435 0.961 . S
C1422 H1436 0.961 . S
C1423 C1420 1.539 1_554 S
C1423 H1437 0.958 . S
C1423 H1438 0.961 1_554 S
C1423 H1439 0.960 . S
H1424 C1408 0.931 . S
H1425 C1413 0.929 . S
H1426 C1414 0.960 . S
H1427 C1414 0.962 . S
H1428 C1414 0.960 . S
H1429 C1415 0.961 . S
H1430 C1415 0.961 . S
H1431 C1415 0.961 . S
H1432 C1416 0.931 . S
H1433 C1421 0.930 . S
H1434 C1422 0.956 . S
H1435 C1422 0.961 . S
H1436 C1422 0.961 . S
H1437 C1423 0.958 . S
H1438 C1423 0.961 1_556 S
H1439 C1423 0.960 . S
C1440 C1441 1.391 . S
C1440 C1442 1.394 . S
C1440 H1456 0.931 . S
C1441 C1440 1.391 . S
C1441 C1445 1.376 . S
C1442 C1440 1.394 . S
C1442 C1443 1.369 . S
C1442 C1446 1.531 . S
C1443 C1442 1.369 . S
C1443 C1444 1.410 . S
C1443 C1451 1.503 . S
C1444 C1443 1.410 . S
C1444 C1445 1.392 . S
C1444 C1447 1.511 . S
C1445 C1441 1.376 . S
C1445 C1444 1.392 . S
C1445 H1457 0.929 . S
C1446 C1442 1.531 . S
C1446 H1458 0.960 . S
C1446 H1459 0.962 . S
C1446 H1460 0.960 . S
C1447 C1444 1.511 . S
C1447 H1461 0.961 . S
C1447 H1462 0.961 . S
C1447 H1463 0.961 . S
C1448 C1449 1.370 . S
C1448 C1450 1.363 . S
C1448 H1464 0.931 . S
C1449 C1448 1.370 . S
C1449 C1453 1.408 . S
C1450 C1448 1.363 . S
C1450 C1451 1.370 . S
C1450 C1454 1.524 . S
C1451 C1443 1.503 . S
C1451 C1450 1.370 . S
C1451 C1452 1.403 . S
C1452 C1451 1.403 . S
C1452 C1453 1.404 . S
C1452 C1455 1.539 . S
C1453 C1449 1.408 . S
C1453 C1452 1.404 . S
C1453 H1465 0.930 . S
C1454 C1450 1.524 . S
C1454 H1466 0.956 . S
C1454 H1467 0.961 . S
C1454 H1468 0.961 . S
C1455 C1452 1.539 . S
C1455 H1469 0.958 . S
C1455 H1470 0.961 . S
C1455 H1471 0.960 . S
H1456 C1440 0.931 . S
H1457 C1445 0.929 . S
H1458 C1446 0.960 . S
H1459 C1446 0.962 . S
H1460 C1446 0.960 . S
H1461 C1447 0.961 . S
H1462 C1447 0.961 . S
H1463 C1447 0.961 . S
H1464 C1448 0.931 . S
H1465 C1453 0.930 . S
H1466 C1454 0.956 . S
H1467 C1454 0.961 . S
H1468 C1454 0.961 . S
H1469 C1455 0.958 . S
H1470 C1455 0.961 . S
H1471 C1455 0.960 . S
C1472 C1473 1.391 . S
C1472 C1474 1.394 . S
C1472 H1488 0.931 . S
C1473 C1472 1.391 . S
C1473 C1477 1.376 . S
C1474 C1472 1.394 . S
C1474 C1475 1.369 . S
C1474 C1478 1.531 . S
C1475 C1474 1.369 . S
C1475 C1476 1.410 1_545 S
C1475 C1483 1.503 1_545 S
C1476 C1475 1.410 1_565 S
C1476 C1477 1.392 1_565 S
C1476 C1479 1.511 . S
C1477 C1473 1.376 . S
C1477 C1476 1.392 1_545 S
C1477 H1489 0.929 . S
C1478 C1474 1.531 . S
C1478 H1490 0.960 . S
C1478 H1491 0.962 . S
C1478 H1492 0.960 . S
C1479 C1476 1.511 . S
C1479 H1493 0.961 . S
C1479 H1494 0.961 . S
C1479 H1495 0.961 . S
C1480 C1481 1.370 . S
C1480 C1482 1.363 . S
C1480 H1496 0.931 . S
C1481 C1480 1.370 . S
C1481 C1485 1.408 . S
C1482 C1480 1.363 . S
C1482 C1483 1.370 . S
C1482 C1486 1.524 . S
C1483 C1475 1.503 1_565 S
C1483 C1482 1.370 . S
C1483 C1484 1.403 . S
C1484 C1483 1.403 . S
C1484 C1485 1.404 . S
C1484 C1487 1.539 1_565 S
C1485 C1481 1.408 . S
C1485 C1484 1.404 . S
C1485 H1497 0.930 . S
C1486 C1482 1.524 . S
C1486 H1498 0.956 . S
C1486 H1499 0.961 . S
C1486 H1500 0.961 . S
C1487 C1484 1.539 1_545 S
C1487 H1501 0.958 . S
C1487 H1502 0.961 1_545 S
C1487 H1503 0.960 . S
H1488 C1472 0.931 . S
H1489 C1477 0.929 . S
H1490 C1478 0.960 . S
H1491 C1478 0.962 . S
H1492 C1478 0.960 . S
H1493 C1479 0.961 . S
H1494 C1479 0.961 . S
H1495 C1479 0.961 . S
H1496 C1480 0.931 . S
H1497 C1485 0.930 . S
H1498 C1486 0.956 . S
H1499 C1486 0.961 . S
H1500 C1486 0.961 . S
H1501 C1487 0.958 . S
H1502 C1487 0.961 1_565 S
H1503 C1487 0.960 . S
C1504 C1505 1.391 . S
C1504 C1506 1.394 . S
C1504 H1520 0.931 . S
C1505 C1504 1.391 . S
C1505 C1509 1.376 . S
C1506 C1504 1.394 . S
C1506 C1507 1.369 . S
C1506 C1510 1.531 . S
C1507 C1506 1.369 . S
C1507 C1508 1.410 . S
C1507 C1515 1.503 . S
C1508 C1507 1.410 . S
C1508 C1509 1.392 . S
C1508 C1511 1.511 . S
C1509 C1505 1.376 . S
C1509 C1508 1.392 . S
C1509 H1521 0.929 . S
C1510 C1506 1.531 . S
C1510 H1522 0.960 . S
C1510 H1523 0.962 . S
C1510 H1524 0.960 . S
C1511 C1508 1.511 . S
C1511 H1525 0.961 . S
C1511 H1526 0.961 . S
C1511 H1527 0.961 . S
C1512 C1513 1.370 . S
C1512 C1514 1.363 . S
C1512 H1528 0.931 . S
C1513 C1512 1.370 . S
C1513 C1517 1.408 . S
C1514 C1512 1.363 . S
C1514 C1515 1.370 . S
C1514 C1518 1.524 . S
C1515 C1507 1.503 . S
C1515 C1514 1.370 . S
C1515 C1516 1.403 . S
C1516 C1515 1.403 . S
C1516 C1517 1.404 . S
C1516 C1519 1.539 . S
C1517 C1513 1.408 . S
C1517 C1516 1.404 . S
C1517 H1529 0.930 . S
C1518 C1514 1.524 . S
C1518 H1530 0.956 . S
C1518 H1531 0.961 . S
C1518 H1532 0.961 . S
C1519 C1516 1.539 . S
C1519 H1533 0.958 . S
C1519 H1534 0.961 . S
C1519 H1535 0.960 . S
H1520 C1504 0.931 . S
H1521 C1509 0.929 . S
H1522 C1510 0.960 . S
H1523 C1510 0.962 . S
H1524 C1510 0.960 . S
H1525 C1511 0.961 . S
H1526 C1511 0.961 . S
H1527 C1511 0.961 . S
H1528 C1512 0.931 . S
H1529 C1517 0.930 . S
H1530 C1518 0.956 . S
H1531 C1518 0.961 . S
H1532 C1518 0.961 . S
H1533 C1519 0.958 . S
H1534 C1519 0.961 . S
H1535 C1519 0.960 . S
C1536 C1537 1.391 . S
C1536 C1538 1.394 . S
C1536 H1552 0.931 . S
C1537 C1536 1.391 . S
C1537 C1541 1.376 . S
C1538 C1536 1.394 . S
C1538 C1539 1.369 . S
C1538 C1542 1.531 . S
C1539 C1538 1.369 . S
C1539 C1540 1.410 . S
C1539 C1547 1.503 . S
C1540 C1539 1.410 . S
C1540 C1541 1.392 . S
C1540 C1543 1.511 . S
C1541 C1537 1.376 . S
C1541 C1540 1.392 . S
C1541 H1553 0.929 . S
C1542 C1538 1.531 . S
C1542 H1554 0.960 . S
C1542 H1555 0.962 . S
C1542 H1556 0.960 . S
C1543 C1540 1.511 . S
C1543 H1557 0.961 . S
C1543 H1558 0.961 . S
C1543 H1559 0.961 . S
C1544 C1545 1.370 . S
C1544 C1546 1.363 . S
C1544 H1560 0.931 . S
C1545 C1544 1.370 . S
C1545 C1549 1.408 . S
C1546 C1544 1.363 . S
C1546 C1547 1.370 . S
C1546 C1550 1.524 . S
C1547 C1539 1.503 . S
C1547 C1546 1.370 . S
C1547 C1548 1.403 . S
C1548 C1547 1.403 . S
C1548 C1549 1.404 . S
C1548 C1551 1.539 . S
C1549 C1545 1.408 . S
C1549 C1548 1.404 . S
C1549 H1561 0.930 . S
C1550 C1546 1.524 . S
C1550 H1562 0.956 . S
C1550 H1563 0.961 . S
C1550 H1564 0.961 . S
C1551 C1548 1.539 . S
C1551 H1565 0.958 . S
C1551 H1566 0.961 . S
C1551 H1567 0.960 . S
H1552 C1536 0.931 . S
H1553 C1541 0.929 . S
H1554 C1542 0.960 . S
H1555 C1542 0.962 . S
H1556 C1542 0.960 . S
H1557 C1543 0.961 . S
H1558 C1543 0.961 . S
H1559 C1543 0.961 . S
H1560 C1544 0.931 . S
H1561 C1549 0.930 . S
H1562 C1550 0.956 . S
H1563 C1550 0.961 . S
H1564 C1550 0.961 . S
H1565 C1551 0.958 . S
H1566 C1551 0.961 . S
H1567 C1551 0.960 . S
C1568 C1569 1.391 . S
C1568 C1570 1.394 . S
C1568 H1584 0.931 . S
C1569 C1568 1.391 . S
C1569 C1573 1.376 . S
C1570 C1568 1.394 . S
C1570 C1571 1.369 . S
C1570 C1574 1.531 . S
C1571 C1570 1.369 . S
C1571 C1572 1.410 . S
C1571 C1579 1.503 . S
C1572 C1571 1.410 . S
C1572 C1573 1.392 . S
C1572 C1575 1.511 . S
C1573 C1569 1.376 . S
C1573 C1572 1.392 . S
C1573 H1585 0.929 . S
C1574 C1570 1.531 . S
C1574 H1586 0.960 . S
C1574 H1587 0.962 . S
C1574 H1588 0.960 . S
C1575 C1572 1.511 . S
C1575 H1589 0.961 . S
C1575 H1590 0.961 . S
C1575 H1591 0.961 . S
C1576 C1577 1.370 . S
C1576 C1578 1.363 . S
C1576 H1592 0.931 . S
C1577 C1576 1.370 . S
C1577 C1581 1.408 . S
C1578 C1576 1.363 . S
C1578 C1579 1.370 . S
C1578 C1582 1.524 . S
C1579 C1571 1.503 . S
C1579 C1578 1.370 . S
C1579 C1580 1.403 . S
C1580 C1579 1.403 . S
C1580 C1581 1.404 . S
C1580 C1583 1.539 . S
C1581 C1577 1.408 . S
C1581 C1580 1.404 . S
C1581 H1593 0.930 . S
C1582 C1578 1.524 . S
C1582 H1594 0.956 . S
C1582 H1595 0.961 . S
C1582 H1596 0.961 . S
C1583 C1580 1.539 . S
C1583 H1597 0.958 . S
C1583 H1598 0.961 . S
C1583 H1599 0.960 . S
H1584 C1568 0.931 . S
H1585 C1573 0.929 . S
H1586 C1574 0.960 . S
H1587 C1574 0.962 . S
H1588 C1574 0.960 . S
H1589 C1575 0.961 . S
H1590 C1575 0.961 . S
H1591 C1575 0.961 . S
H1592 C1576 0.931 . S
H1593 C1581 0.930 . S
H1594 C1582 0.956 . S
H1595 C1582 0.961 . S
H1596 C1582 0.961 . S
H1597 C1583 0.958 . S
H1598 C1583 0.961 . S
H1599 C1583 0.960 . S
C1600 C1601 1.391 . S
C1600 C1602 1.394 . S
C1600 H1616 0.931 . S
C1601 C1600 1.391 . S
C1601 C1605 1.376 . S
C1602 C1600 1.394 . S
C1602 C1603 1.369 . S
C1602 C1606 1.531 . S
C1603 C1602 1.369 . S
C1603 C1604 1.410 . S
C1603 C1611 1.503 . S
C1604 C1603 1.410 . S
C1604 C1605 1.392 . S
C1604 C1607 1.511 . S
C1605 C1601 1.376 . S
C1605 C1604 1.392 . S
C1605 H1617 0.929 . S
C1606 C1602 1.531 . S
C1606 H1618 0.960 . S
C1606 H1619 0.962 . S
C1606 H1620 0.960 . S
C1607 C1604 1.511 . S
C1607 H1621 0.961 . S
C1607 H1622 0.961 . S
C1607 H1623 0.961 . S
C1608 C1609 1.370 . S
C1608 C1610 1.363 . S
C1608 H1624 0.931 . S
C1609 C1608 1.370 . S
C1609 C1613 1.408 . S
C1610 C1608 1.363 . S
C1610 C1611 1.370 . S
C1610 C1614 1.524 . S
C1611 C1603 1.503 . S
C1611 C1610 1.370 . S
C1611 C1612 1.403 . S
C1612 C1611 1.403 . S
C1612 C1613 1.404 . S
C1612 C1615 1.539 . S
C1613 C1609 1.408 . S
C1613 C1612 1.404 . S
C1613 H1625 0.930 . S
C1614 C1610 1.524 . S
C1614 H1626 0.956 . S
C1614 H1627 0.961 . S
C1614 H1628 0.961 . S
C1615 C1612 1.539 . S
C1615 H1629 0.958 . S
C1615 H1630 0.961 . S
C1615 H1631 0.960 . S
H1616 C1600 0.931 . S
H1617 C1605 0.929 . S
H1618 C1606 0.960 . S
H1619 C1606 0.962 . S
H1620 C1606 0.960 . S
H1621 C1607 0.961 . S
H1622 C1607 0.961 . S
H1623 C1607 0.961 . S
H1624 C1608 0.931 . S
H1625 C1613 0.930 . S
H1626 C1614 0.956 . S
H1627 C1614 0.961 . S
H1628 C1614 0.961 . S
H1629 C1615 0.958 . S
H1630 C1615 0.961 . S
H1631 C1615 0.960 . S
C1632 C1633 1.391 1_655 S
C1632 C1634 1.394 . S
C1632 H1648 0.931 . S
C1633 C1632 1.391 1_455 S
C1633 C1637 1.376 . S
C1634 C1632 1.394 . S
C1634 C1635 1.369 1_655 S
C1634 C1638 1.531 . S
C1635 C1634 1.369 1_455 S
C1635 C1636 1.410 . S
C1635 C1643 1.503 1_556 S
C1636 C1635 1.410 . S
C1636 C1637 1.392 . S
C1636 C1639 1.511 . S
C1637 C1633 1.376 . S
C1637 C1636 1.392 . S
C1637 H1649 0.929 . S
C1638 C1634 1.531 . S
C1638 H1650 0.960 . S
C1638 H1651 0.951 1_556 S
C1638 H1652 0.960 . S
C1639 C1636 1.511 . S
C1639 H1653 0.961 . S
C1639 H1654 0.961 1_556 S
C1639 H1655 0.961 . S
C1640 C1641 1.370 . S
C1640 C1642 1.363 . S
C1640 H1656 0.931 . S
C1641 C1640 1.370 . S
C1641 C1645 1.408 . S
C1642 C1640 1.363 . S
C1642 C1643 1.370 . S
C1642 C1646 1.524 . S
C1643 C1635 1.503 1_554 S
C1643 C1642 1.370 . S
C1643 C1644 1.403 . S
C1644 C1643 1.403 . S
C1644 C1645 1.404 . S
C1644 C1647 1.539 1_454 S
C1645 C1641 1.408 . S
C1645 C1644 1.404 . S
C1645 H1657 0.930 1_455 S
C1646 C1642 1.524 . S
C1646 H1658 0.956 . S
C1646 H1659 0.961 . S
C1646 H1660 0.961 . S
C1647 C1644 1.539 1_656 S
C1647 H1661 0.958 . S
C1647 H1662 0.961 1_655 S
C1647 H1663 0.960 1_655 S
H1648 C1632 0.931 . S
H1649 C1637 0.929 . S
H1650 C1638 0.960 . S
H1651 C1638 0.951 1_554 S
H1652 C1638 0.960 . S
H1653 C1639 0.961 . S
H1654 C1639 0.961 1_554 S
H1655 C1639 0.961 . S
H1656 C1640 0.931 . S
H1657 C1645 0.930 1_655 S
H1658 C1646 0.956 . S
H1659 C1646 0.961 . S
H1660 C1646 0.961 . S
H1661 C1647 0.958 . S
H1662 C1647 0.961 1_455 S
H1663 C1647 0.960 1_455 S
C1664 C1665 1.391 . S
C1664 C1666 1.394 . S
C1664 H1680 0.931 . S
C1665 C1664 1.391 . S
C1665 C1669 1.376 . S
C1666 C1664 1.394 . S
C1666 C1667 1.369 . S
C1666 C1670 1.531 . S
C1667 C1666 1.369 . S
C1667 C1668 1.410 . S
C1667 C1675 1.503 . S
C1668 C1667 1.410 . S
C1668 C1669 1.392 . S
C1668 C1671 1.511 . S
C1669 C1665 1.376 . S
C1669 C1668 1.392 . S
C1669 H1681 0.929 . S
C1670 C1666 1.531 . S
C1670 H1682 0.960 . S
C1670 H1683 0.962 . S
C1670 H1684 0.960 . S
C1671 C1668 1.511 . S
C1671 H1685 0.961 . S
C1671 H1686 0.961 . S
C1671 H1687 0.961 . S
C1672 C1673 1.370 . S
C1672 C1674 1.363 . S
C1672 H1688 0.931 . S
C1673 C1672 1.370 . S
C1673 C1677 1.408 . S
C1674 C1672 1.363 . S
C1674 C1675 1.370 . S
C1674 C1678 1.524 . S
C1675 C1667 1.503 . S
C1675 C1674 1.370 . S
C1675 C1676 1.403 . S
C1676 C1675 1.403 . S
C1676 C1677 1.404 . S
C1676 C1679 1.539 . S
C1677 C1673 1.408 . S
C1677 C1676 1.404 . S
C1677 H1689 0.930 . S
C1678 C1674 1.524 . S
C1678 H1690 0.956 . S
C1678 H1691 0.961 . S
C1678 H1692 0.961 . S
C1679 C1676 1.539 . S
C1679 H1693 0.958 . S
C1679 H1694 0.961 . S
C1679 H1695 0.960 . S
H1680 C1664 0.931 . S
H1681 C1669 0.929 . S
H1682 C1670 0.960 . S
H1683 C1670 0.962 . S
H1684 C1670 0.960 . S
H1685 C1671 0.961 . S
H1686 C1671 0.961 . S
H1687 C1671 0.961 . S
H1688 C1672 0.931 . S
H1689 C1677 0.930 . S
H1690 C1678 0.956 . S
H1691 C1678 0.961 . S
H1692 C1678 0.961 . S
H1693 C1679 0.958 . S
H1694 C1679 0.961 . S
H1695 C1679 0.960 . S
C1696 C1697 1.391 . S
C1696 C1698 1.394 . S
C1696 H1712 0.931 . S
C1697 C1696 1.391 . S
C1697 C1701 1.376 . S
C1698 C1696 1.394 . S
C1698 C1699 1.369 . S
C1698 C1702 1.531 . S
C1699 C1698 1.369 . S
C1699 C1700 1.410 . S
C1699 C1707 1.503 . S
C1700 C1699 1.410 . S
C1700 C1701 1.392 . S
C1700 C1703 1.511 . S
C1701 C1697 1.376 . S
C1701 C1700 1.392 . S
C1701 H1713 0.929 . S
C1702 C1698 1.531 . S
C1702 H1714 0.960 . S
C1702 H1715 0.962 . S
C1702 H1716 0.960 . S
C1703 C1700 1.511 . S
C1703 H1717 0.961 . S
C1703 H1718 0.961 . S
C1703 H1719 0.961 . S
C1704 C1705 1.370 . S
C1704 C1706 1.363 . S
C1704 H1720 0.931 . S
C1705 C1704 1.370 . S
C1705 C1709 1.408 . S
C1706 C1704 1.363 . S
C1706 C1707 1.370 . S
C1706 C1710 1.524 . S
C1707 C1699 1.503 . S
C1707 C1706 1.370 . S
C1707 C1708 1.403 . S
C1708 C1707 1.403 . S
C1708 C1709 1.404 . S
C1708 C1711 1.539 . S
C1709 C1705 1.408 . S
C1709 C1708 1.404 . S
C1709 H1721 0.930 . S
C1710 C1706 1.524 . S
C1710 H1722 0.956 . S
C1710 H1723 0.961 . S
C1710 H1724 0.961 . S
C1711 C1708 1.539 . S
C1711 H1725 0.958 . S
C1711 H1726 0.961 . S
C1711 H1727 0.960 . S
H1712 C1696 0.931 . S
H1713 C1701 0.929 . S
H1714 C1702 0.960 . S
H1715 C1702 0.962 . S
H1716 C1702 0.960 . S
H1717 C1703 0.961 . S
H1718 C1703 0.961 . S
H1719 C1703 0.961 . S
H1720 C1704 0.931 . S
H1721 C1709 0.930 . S
H1722 C1710 0.956 . S
H1723 C1710 0.961 . S
H1724 C1710 0.961 . S
H1725 C1711 0.958 . S
H1726 C1711 0.961 . S
H1727 C1711 0.960 . S
C1728 C1729 1.391 . S
C1728 C1730 1.394 1_554 S
C1728 H1744 0.931 . S
C1729 C1728 1.391 . S
C1729 C1733 1.376 . S
C1730 C1728 1.394 1_556 S
C1730 C1731 1.369 . S
C1730 C1734 1.531 . S
C1731 C1730 1.369 . S
C1731 C1732 1.410 1_556 S
C1731 C1739 1.503 . S
C1732 C1731 1.410 1_554 S
C1732 C1733 1.392 . S
C1732 C1735 1.511 . S
C1733 C1729 1.376 . S
C1733 C1732 1.392 . S
C1733 H1745 0.929 . S
C1734 C1730 1.531 . S
C1734 H1746 0.960 . S
C1734 H1747 0.962 . S
C1734 H1748 0.960 . S
C1735 C1732 1.511 . S
C1735 H1749 0.961 . S
C1735 H1750 0.961 1_554 S
C1735 H1751 0.961 . S
C1736 C1737 1.370 . S
C1736 C1738 1.363 . S
C1736 H1752 0.931 . S
C1737 C1736 1.370 . S
C1737 C1741 1.408 . S
C1738 C1736 1.363 . S
C1738 C1739 1.370 . S
C1738 C1742 1.524 . S
C1739 C1731 1.503 . S
C1739 C1738 1.370 . S
C1739 C1740 1.403 . S
C1740 C1739 1.403 . S
C1740 C1741 1.404 . S
C1740 C1743 1.539 . S
C1741 C1737 1.408 . S
C1741 C1740 1.404 . S
C1741 H1753 0.930 . S
C1742 C1738 1.524 . S
C1742 H1754 0.956 . S
C1742 H1755 0.961 . S
C1742 H1756 0.961 . S
C1743 C1740 1.539 . S
C1743 H1757 0.958 . S
C1743 H1758 0.961 . S
C1743 H1759 0.960 . S
H1744 C1728 0.931 . S
H1745 C1733 0.929 . S
H1746 C1734 0.960 . S
H1747 C1734 0.962 . S
H1748 C1734 0.960 . S
H1749 C1735 0.961 . S
H1750 C1735 0.961 1_556 S
H1751 C1735 0.961 . S
H1752 C1736 0.931 . S
H1753 C1741 0.930 . S
H1754 C1742 0.956 . S
H1755 C1742 0.961 . S
H1756 C1742 0.961 . S
H1757 C1743 0.958 . S
H1758 C1743 0.961 . S
H1759 C1743 0.960 . S
C1760 C1761 1.391 . S
C1760 C1762 1.394 . S
C1760 H1776 0.931 . S
C1761 C1760 1.391 . S
C1761 C1765 1.376 . S
C1762 C1760 1.394 . S
C1762 C1763 1.369 . S
C1762 C1766 1.531 . S
C1763 C1762 1.369 . S
C1763 C1764 1.410 . S
C1763 C1771 1.503 . S
C1764 C1763 1.410 . S
C1764 C1765 1.392 . S
C1764 C1767 1.511 . S
C1765 C1761 1.376 . S
C1765 C1764 1.392 . S
C1765 H1777 0.929 . S
C1766 C1762 1.531 . S
C1766 H1778 0.960 . S
C1766 H1779 0.962 . S
C1766 H1780 0.960 . S
C1767 C1764 1.511 . S
C1767 H1781 0.961 . S
C1767 H1782 0.961 . S
C1767 H1783 0.961 . S
C1768 C1769 1.370 . S
C1768 C1770 1.363 . S
C1768 H1784 0.931 . S
C1769 C1768 1.370 . S
C1769 C1773 1.408 . S
C1770 C1768 1.363 . S
C1770 C1771 1.370 . S
C1770 C1774 1.524 . S
C1771 C1763 1.503 . S
C1771 C1770 1.370 . S
C1771 C1772 1.403 . S
C1772 C1771 1.403 . S
C1772 C1773 1.404 . S
C1772 C1775 1.539 . S
C1773 C1769 1.408 . S
C1773 C1772 1.404 . S
C1773 H1785 0.930 . S
C1774 C1770 1.524 . S
C1774 H1786 0.956 . S
C1774 H1787 0.961 . S
C1774 H1788 0.961 . S
C1775 C1772 1.539 . S
C1775 H1789 0.958 . S
C1775 H1790 0.961 . S
C1775 H1791 0.960 . S
H1776 C1760 0.931 . S
H1777 C1765 0.929 . S
H1778 C1766 0.960 . S
H1779 C1766 0.962 . S
H1780 C1766 0.960 . S
H1781 C1767 0.961 . S
H1782 C1767 0.961 . S
H1783 C1767 0.961 . S
H1784 C1768 0.931 . S
H1785 C1773 0.930 . S
H1786 C1774 0.956 . S
H1787 C1774 0.961 . S
H1788 C1774 0.961 . S
H1789 C1775 0.958 . S
H1790 C1775 0.961 . S
H1791 C1775 0.960 . S
C1792 C1793 1.391 . S
C1792 C1794 1.394 . S
C1792 H1808 0.931 . S
C1793 C1792 1.391 . S
C1793 C1797 1.376 . S
C1794 C1792 1.394 . S
C1794 C1795 1.369 . S
C1794 C1798 1.531 . S
C1795 C1794 1.369 . S
C1795 C1796 1.410 . S
C1795 C1803 1.503 . S
C1796 C1795 1.410 . S
C1796 C1797 1.392 . S
C1796 C1799 1.511 . S
C1797 C1793 1.376 . S
C1797 C1796 1.392 . S
C1797 H1809 0.929 . S
C1798 C1794 1.531 . S
C1798 H1810 0.960 . S
C1798 H1811 0.962 . S
C1798 H1812 0.960 . S
C1799 C1796 1.511 . S
C1799 H1813 0.961 . S
C1799 H1814 0.961 . S
C1799 H1815 0.961 . S
C1800 C1801 1.370 . S
C1800 C1802 1.363 . S
C1800 H1816 0.931 . S
C1801 C1800 1.370 . S
C1801 C1805 1.408 . S
C1802 C1800 1.363 . S
C1802 C1803 1.370 . S
C1802 C1806 1.524 . S
C1803 C1795 1.503 . S
C1803 C1802 1.370 . S
C1803 C1804 1.403 . S
C1804 C1803 1.403 . S
C1804 C1805 1.404 . S
C1804 C1807 1.539 . S
C1805 C1801 1.408 . S
C1805 C1804 1.404 . S
C1805 H1817 0.930 . S
C1806 C1802 1.524 . S
C1806 H1818 0.956 . S
C1806 H1819 0.961 . S
C1806 H1820 0.961 . S
C1807 C1804 1.539 . S
C1807 H1821 0.958 . S
C1807 H1822 0.961 . S
C1807 H1823 0.960 . S
H1808 C1792 0.931 . S
H1809 C1797 0.929 . S
H1810 C1798 0.960 . S
H1811 C1798 0.962 . S
H1812 C1798 0.960 . S
H1813 C1799 0.961 . S
H1814 C1799 0.961 . S
H1815 C1799 0.961 . S
H1816 C1800 0.931 . S
H1817 C1805 0.930 . S
H1818 C1806 0.956 . S
H1819 C1806 0.961 . S
H1820 C1806 0.961 . S
H1821 C1807 0.958 . S
H1822 C1807 0.961 . S
H1823 C1807 0.960 . S
C1824 C1825 1.391 . S
C1824 C1826 1.394 . S
C1824 H1840 0.931 . S
C1825 C1824 1.391 . S
C1825 C1829 1.376 . S
C1826 C1824 1.394 . S
C1826 C1827 1.369 . S
C1826 C1830 1.531 . S
C1827 C1826 1.369 . S
C1827 C1828 1.410 . S
C1827 C1835 1.503 . S
C1828 C1827 1.410 . S
C1828 C1829 1.392 . S
C1828 C1831 1.511 . S
C1829 C1825 1.376 . S
C1829 C1828 1.392 . S
C1829 H1841 0.929 . S
C1830 C1826 1.531 . S
C1830 H1842 0.960 . S
C1830 H1843 0.962 . S
C1830 H1844 0.960 . S
C1831 C1828 1.511 . S
C1831 H1845 0.961 . S
C1831 H1846 0.961 . S
C1831 H1847 0.961 . S
C1832 C1833 1.370 . S
C1832 C1834 1.363 . S
C1832 H1848 0.931 . S
C1833 C1832 1.370 . S
C1833 C1837 1.408 . S
C1834 C1832 1.363 . S
C1834 C1835 1.370 . S
C1834 C1838 1.524 . S
C1835 C1827 1.503 . S
C1835 C1834 1.370 . S
C1835 C1836 1.403 . S
C1836 C1835 1.403 . S
C1836 C1837 1.404 . S
C1836 C1839 1.539 . S
C1837 C1833 1.408 . S
C1837 C1836 1.404 . S
C1837 H1849 0.930 . S
C1838 C1834 1.524 . S
C1838 H1850 0.956 . S
C1838 H1851 0.961 . S
C1838 H1852 0.961 . S
C1839 C1836 1.539 . S
C1839 H1853 0.958 . S
C1839 H1854 0.961 . S
C1839 H1855 0.960 . S
H1840 C1824 0.931 . S
H1841 C1829 0.929 . S
H1842 C1830 0.960 . S
H1843 C1830 0.962 . S
H1844 C1830 0.960 . S
H1845 C1831 0.961 . S
H1846 C1831 0.961 . S
H1847 C1831 0.961 . S
H1848 C1832 0.931 . S
H1849 C1837 0.930 . S
H1850 C1838 0.956 . S
H1851 C1838 0.961 . S
H1852 C1838 0.961 . S
H1853 C1839 0.958 . S
H1854 C1839 0.961 . S
H1855 C1839 0.960 . S
C1856 C1857 1.391 . S
C1856 C1858 1.394 1_556 S
C1856 H1872 0.931 . S
C1857 C1856 1.391 . S
C1857 C1861 1.376 1_556 S
C1858 C1856 1.394 1_554 S
C1858 C1859 1.369 . S
C1858 C1862 1.531 . S
C1859 C1858 1.369 . S
C1859 C1860 1.410 . S
C1859 C1867 1.503 . S
C1860 C1859 1.410 . S
C1860 C1861 1.392 . S
C1860 C1863 1.511 . S
C1861 C1857 1.376 1_554 S
C1861 C1860 1.392 . S
C1861 H1873 0.929 . S
C1862 C1858 1.531 . S
C1862 H1874 0.960 . S
C1862 H1875 0.962 . S
C1862 H1876 0.960 . S
C1863 C1860 1.511 . S
C1863 H1877 0.961 . S
C1863 H1878 0.961 . S
C1863 H1879 0.961 . S
C1864 C1865 1.370 . S
C1864 C1866 1.363 . S
C1864 H1880 0.931 . S
C1865 C1864 1.370 . S
C1865 C1869 1.408 . S
C1866 C1864 1.363 . S
C1866 C1867 1.370 . S
C1866 C1870 1.524 . S
C1867 C1859 1.503 . S
C1867 C1866 1.370 . S
C1867 C1868 1.403 . S
C1868 C1867 1.403 . S
C1868 C1869 1.404 . S
C1868 C1871 1.539 . S
C1869 C1865 1.408 . S
C1869 C1868 1.404 . S
C1869 H1881 0.930 . S
C1870 C1866 1.524 . S
C1870 H1882 0.956 . S
C1870 H1883 0.961 . S
C1870 H1884 0.961 . S
C1871 C1868 1.539 . S
C1871 H1885 0.958 . S
C1871 H1886 0.961 . S
C1871 H1887 0.960 . S
H1872 C1856 0.931 . S
H1873 C1861 0.929 . S
H1874 C1862 0.960 . S
H1875 C1862 0.962 . S
H1876 C1862 0.960 . S
H1877 C1863 0.961 . S
H1878 C1863 0.961 . S
H1879 C1863 0.961 . S
H1880 C1864 0.931 . S
H1881 C1869 0.930 . S
H1882 C1870 0.956 . S
H1883 C1870 0.961 . S
H1884 C1870 0.961 . S
H1885 C1871 0.958 . S
H1886 C1871 0.961 . S
H1887 C1871 0.960 . S
C1888 C1889 1.391 . S
C1888 C1890 1.394 . S
C1888 H1904 0.931 . S
C1889 C1888 1.391 . S
C1889 C1893 1.376 . S
C1890 C1888 1.394 . S
C1890 C1891 1.369 . S
C1890 C1894 1.531 . S
C1891 C1890 1.369 . S
C1891 C1892 1.410 . S
C1891 C1899 1.503 . S
C1892 C1891 1.410 . S
C1892 C1893 1.392 . S
C1892 C1895 1.511 . S
C1893 C1889 1.376 . S
C1893 C1892 1.392 . S
C1893 H1905 0.929 . S
C1894 C1890 1.531 . S
C1894 H1906 0.960 . S
C1894 H1907 0.962 . S
C1894 H1908 0.960 . S
C1895 C1892 1.511 . S
C1895 H1909 0.961 . S
C1895 H1910 0.961 . S
C1895 H1911 0.961 . S
C1896 C1897 1.370 . S
C1896 C1898 1.363 . S
C1896 H1912 0.931 . S
C1897 C1896 1.370 . S
C1897 C1901 1.408 . S
C1898 C1896 1.363 . S
C1898 C1899 1.370 . S
C1898 C1902 1.524 . S
C1899 C1891 1.503 . S
C1899 C1898 1.370 . S
C1899 C1900 1.403 . S
C1900 C1899 1.403 . S
C1900 C1901 1.404 . S
C1900 C1903 1.539 . S
C1901 C1897 1.408 . S
C1901 C1900 1.404 . S
C1901 H1913 0.930 . S
C1902 C1898 1.524 . S
C1902 H1914 0.956 . S
C1902 H1915 0.961 . S
C1902 H1916 0.961 . S
C1903 C1900 1.539 . S
C1903 H1917 0.958 . S
C1903 H1918 0.961 . S
C1903 H1919 0.960 . S
H1904 C1888 0.931 . S
H1905 C1893 0.929 . S
H1906 C1894 0.960 . S
H1907 C1894 0.962 . S
H1908 C1894 0.960 . S
H1909 C1895 0.961 . S
H1910 C1895 0.961 . S
H1911 C1895 0.961 . S
H1912 C1896 0.931 . S
H1913 C1901 0.930 . S
H1914 C1902 0.956 . S
H1915 C1902 0.961 . S
H1916 C1902 0.961 . S
H1917 C1903 0.958 . S
H1918 C1903 0.961 . S
H1919 C1903 0.960 . S
C1920 C1921 1.391 . S
C1920 C1922 1.394 . S
C1920 H1936 0.931 . S
C1921 C1920 1.391 . S
C1921 C1925 1.376 . S
C1922 C1920 1.394 . S
C1922 C1923 1.369 . S
C1922 C1926 1.531 . S
C1923 C1922 1.369 . S
C1923 C1924 1.410 . S
C1923 C1931 1.503 . S
C1924 C1923 1.410 . S
C1924 C1925 1.392 . S
C1924 C1927 1.511 . S
C1925 C1921 1.376 . S
C1925 C1924 1.392 . S
C1925 H1937 0.929 . S
C1926 C1922 1.531 . S
C1926 H1938 0.960 . S
C1926 H1939 0.962 . S
C1926 H1940 0.960 . S
C1927 C1924 1.511 . S
C1927 H1941 0.961 . S
C1927 H1942 0.961 . S
C1927 H1943 0.961 . S
C1928 C1929 1.370 . S
C1928 C1930 1.363 . S
C1928 H1944 0.931 . S
C1929 C1928 1.370 . S
C1929 C1933 1.408 . S
C1930 C1928 1.363 . S
C1930 C1931 1.370 . S
C1930 C1934 1.524 . S
C1931 C1923 1.503 . S
C1931 C1930 1.370 . S
C1931 C1932 1.403 . S
C1932 C1931 1.403 . S
C1932 C1933 1.404 . S
C1932 C1935 1.539 . S
C1933 C1929 1.408 . S
C1933 C1932 1.404 . S
C1933 H1945 0.930 . S
C1934 C1930 1.524 . S
C1934 H1946 0.956 . S
C1934 H1947 0.961 . S
C1934 H1948 0.961 . S
C1935 C1932 1.539 . S
C1935 H1949 0.958 . S
C1935 H1950 0.961 . S
C1935 H1951 0.960 . S
H1936 C1920 0.931 . S
H1937 C1925 0.929 . S
H1938 C1926 0.960 . S
H1939 C1926 0.962 . S
H1940 C1926 0.960 . S
H1941 C1927 0.961 . S
H1942 C1927 0.961 . S
H1943 C1927 0.961 . S
H1944 C1928 0.931 . S
H1945 C1933 0.930 . S
H1946 C1934 0.956 . S
H1947 C1934 0.961 . S
H1948 C1934 0.961 . S
H1949 C1935 0.958 . S
H1950 C1935 0.961 . S
H1951 C1935 0.960 . S
C1952 C1953 1.391 . S
C1952 C1954 1.394 . S
C1952 H1968 0.931 . S
C1953 C1952 1.391 . S
C1953 C1957 1.376 . S
C1954 C1952 1.394 . S
C1954 C1955 1.369 . S
C1954 C1958 1.531 . S
C1955 C1954 1.369 . S
C1955 C1956 1.410 . S
C1955 C1963 1.503 . S
C1956 C1955 1.410 . S
C1956 C1957 1.392 . S
C1956 C1959 1.511 . S
C1957 C1953 1.376 . S
C1957 C1956 1.392 . S
C1957 H1969 0.929 . S
C1958 C1954 1.531 . S
C1958 H1970 0.960 . S
C1958 H1971 0.962 . S
C1958 H1972 0.960 . S
C1959 C1956 1.511 . S
C1959 H1973 0.961 . S
C1959 H1974 0.961 . S
C1959 H1975 0.961 . S
C1960 C1961 1.370 . S
C1960 C1962 1.363 . S
C1960 H1976 0.931 . S
C1961 C1960 1.370 . S
C1961 C1965 1.408 . S
C1962 C1960 1.363 . S
C1962 C1963 1.370 . S
C1962 C1966 1.524 . S
C1963 C1955 1.503 . S
C1963 C1962 1.370 . S
C1963 C1964 1.403 . S
C1964 C1963 1.403 . S
C1964 C1965 1.404 . S
C1964 C1967 1.539 . S
C1965 C1961 1.408 . S
C1965 C1964 1.404 . S
C1965 H1977 0.930 . S
C1966 C1962 1.524 . S
C1966 H1978 0.956 . S
C1966 H1979 0.961 . S
C1966 H1980 0.961 . S
C1967 C1964 1.539 . S
C1967 H1981 0.958 . S
C1967 H1982 0.961 . S
C1967 H1983 0.960 . S
H1968 C1952 0.931 . S
H1969 C1957 0.929 . S
H1970 C1958 0.960 . S
H1971 C1958 0.962 . S
H1972 C1958 0.960 . S
H1973 C1959 0.961 . S
H1974 C1959 0.961 . S
H1975 C1959 0.961 . S
H1976 C1960 0.931 . S
H1977 C1965 0.930 . S
H1978 C1966 0.956 . S
H1979 C1966 0.961 . S
H1980 C1966 0.961 . S
H1981 C1967 0.958 . S
H1982 C1967 0.961 . S
H1983 C1967 0.960 . S
C1984 C1985 1.391 . S
C1984 C1986 1.394 . S
C1984 H2000 0.931 . S
C1985 C1984 1.391 . S
C1985 C1989 1.376 . S
C1986 C1984 1.394 . S
C1986 C1987 1.369 . S
C1986 C1990 1.531 . S
C1987 C1986 1.369 . S
C1987 C1988 1.410 . S
C1987 C1995 1.503 . S
C1988 C1987 1.410 . S
C1988 C1989 1.392 . S
C1988 C1991 1.511 . S
C1989 C1985 1.376 . S
C1989 C1988 1.392 . S
C1989 H2001 0.929 . S
C1990 C1986 1.531 . S
C1990 H2002 0.960 . S
C1990 H2003 0.962 . S
C1990 H2004 0.960 . S
C1991 C1988 1.511 . S
C1991 H2005 0.961 . S
C1991 H2006 0.961 . S
C1991 H2007 0.961 . S
C1992 C1993 1.370 . S
C1992 C1994 1.363 . S
C1992 H2008 0.931 . S
C1993 C1992 1.370 . S
C1993 C1997 1.408 . S
C1994 C1992 1.363 . S
C1994 C1995 1.370 . S
C1994 C1998 1.524 . S
C1995 C1987 1.503 . S
C1995 C1994 1.370 . S
C1995 C1996 1.403 . S
C1996 C1995 1.403 . S
C1996 C1997 1.404 . S
C1996 C1999 1.539 . S
C1997 C1993 1.408 . S
C1997 C1996 1.404 . S
C1997 H2009 0.930 . S
C1998 C1994 1.524 . S
C1998 H2010 0.956 . S
C1998 H2011 0.961 . S
C1998 H2012 0.961 . S
C1999 C1996 1.539 . S
C1999 H2013 0.958 . S
C1999 H2014 0.961 . S
C1999 H2015 0.960 . S
H2000 C1984 0.931 . S
H2001 C1989 0.929 . S
H2002 C1990 0.960 . S
H2003 C1990 0.962 . S
H2004 C1990 0.960 . S
H2005 C1991 0.961 . S
H2006 C1991 0.961 . S
H2007 C1991 0.961 . S
H2008 C1992 0.931 . S
H2009 C1997 0.930 . S
H2010 C1998 0.956 . S
H2011 C1998 0.961 . S
H2012 C1998 0.961 . S
H2013 C1999 0.958 . S
H2014 C1999 0.961 . S
H2015 C1999 0.960 . S
C2016 C2017 1.391 . S
C2016 C2018 1.394 . S
C2016 H2032 0.931 1_655 S
C2017 C2016 1.391 . S
C2017 C2021 1.376 . S
C2018 C2016 1.394 . S
C2018 C2019 1.369 . S
C2018 C2022 1.531 . S
C2019 C2018 1.369 . S
C2019 C2020 1.410 . S
C2019 C2027 1.503 . S
C2020 C2019 1.410 . S
C2020 C2021 1.392 . S
C2020 C2023 1.511 . S
C2021 C2017 1.376 . S
C2021 C2020 1.392 . S
C2021 H2033 0.929 . S
C2022 C2018 1.531 . S
C2022 H2034 0.960 . S
C2022 H2035 0.962 . S
C2022 H2036 0.960 1_655 S
C2023 C2020 1.511 . S
C2023 H2037 0.961 . S
C2023 H2038 0.961 . S
C2023 H2039 0.961 . S
C2024 C2025 1.370 . S
C2024 C2026 1.363 . S
C2024 H2040 0.931 . S
C2025 C2024 1.370 . S
C2025 C2029 1.408 . S
C2026 C2024 1.363 . S
C2026 C2027 1.370 . S
C2026 C2030 1.524 . S
C2027 C2019 1.503 . S
C2027 C2026 1.370 . S
C2027 C2028 1.403 . S
C2028 C2027 1.403 . S
C2028 C2029 1.404 . S
C2028 C2031 1.539 . S
C2029 C2025 1.408 . S
C2029 C2028 1.404 . S
C2029 H2041 0.930 . S
C2030 C2026 1.524 . S
C2030 H2042 0.956 . S
C2030 H2043 0.961 . S
C2030 H2044 0.961 . S
C2031 C2028 1.539 . S
C2031 H2045 0.958 . S
C2031 H2046 0.961 . S
C2031 H2047 0.960 . S
H2032 C2016 0.931 1_455 S
H2033 C2021 0.929 . S
H2034 C2022 0.960 . S
H2035 C2022 0.962 . S
H2036 C2022 0.960 1_455 S
H2037 C2023 0.961 . S
H2038 C2023 0.961 . S
H2039 C2023 0.961 . S
H2040 C2024 0.931 . S
H2041 C2029 0.930 . S
H2042 C2030 0.956 . S
H2043 C2030 0.961 . S
H2044 C2030 0.961 . S
H2045 C2031 0.958 . S
H2046 C2031 0.961 . S
H2047 C2031 0.960 . S
C2048 C2049 1.391 . S
C2048 C2050 1.394 . S
C2048 H2064 0.931 . S
C2049 C2048 1.391 . S
C2049 C2053 1.376 . S
C2050 C2048 1.394 . S
C2050 C2051 1.369 . S
C2050 C2054 1.531 . S
C2051 C2050 1.369 . S
C2051 C2052 1.410 . S
C2051 C2059 1.503 . S
C2052 C2051 1.410 . S
C2052 C2053 1.392 . S
C2052 C2055 1.511 . S
C2053 C2049 1.376 . S
C2053 C2052 1.392 . S
C2053 H2065 0.929 . S
C2054 C2050 1.531 . S
C2054 H2066 0.960 . S
C2054 H2067 0.962 . S
C2054 H2068 0.960 . S
C2055 C2052 1.511 . S
C2055 H2069 0.961 . S
C2055 H2070 0.961 . S
C2055 H2071 0.961 . S
C2056 C2057 1.370 . S
C2056 C2058 1.363 1_556 S
C2056 H2072 0.931 . S
C2057 C2056 1.370 . S
C2057 C2061 1.408 . S
C2058 C2056 1.363 1_554 S
C2058 C2059 1.370 . S
C2058 C2062 1.524 . S
C2059 C2051 1.503 . S
C2059 C2058 1.370 . S
C2059 C2060 1.403 1_554 S
C2060 C2059 1.403 1_556 S
C2060 C2061 1.404 . S
C2060 C2063 1.539 . S
C2061 C2057 1.408 . S
C2061 C2060 1.404 . S
C2061 H2073 0.930 . S
C2062 C2058 1.524 . S
C2062 H2074 0.956 . S
C2062 H2075 0.961 . S
C2062 H2076 0.961 . S
C2063 C2060 1.539 . S
C2063 H2077 0.958 . S
C2063 H2078 0.961 . S
C2063 H2079 0.960 . S
H2064 C2048 0.931 . S
H2065 C2053 0.929 . S
H2066 C2054 0.960 . S
H2067 C2054 0.962 . S
H2068 C2054 0.960 . S
H2069 C2055 0.961 . S
H2070 C2055 0.961 . S
H2071 C2055 0.961 . S
H2072 C2056 0.931 . S
H2073 C2061 0.930 . S
H2074 C2062 0.956 . S
H2075 C2062 0.961 . S
H2076 C2062 0.961 . S
H2077 C2063 0.958 . S
H2078 C2063 0.961 . S
H2079 C2063 0.960 . S
C2080 C2081 1.391 . S
C2080 C2082 1.394 . S
C2080 H2096 0.931 . S
C2081 C2080 1.391 . S
C2081 C2085 1.376 . S
C2082 C2080 1.394 . S
C2082 C2083 1.369 . S
C2082 C2086 1.531 . S
C2083 C2082 1.369 . S
C2083 C2084 1.410 . S
C2083 C2091 1.503 . S
C2084 C2083 1.410 . S
C2084 C2085 1.392 . S
C2084 C2087 1.511 . S
C2085 C2081 1.376 . S
C2085 C2084 1.392 . S
C2085 H2097 0.929 . S
C2086 C2082 1.531 . S
C2086 H2098 0.960 . S
C2086 H2099 0.962 . S
C2086 H2100 0.960 . S
C2087 C2084 1.511 . S
C2087 H2101 0.961 . S
C2087 H2102 0.961 . S
C2087 H2103 0.961 . S
C2088 C2089 1.370 . S
C2088 C2090 1.363 . S
C2088 H2104 0.931 . S
C2089 C2088 1.370 . S
C2089 C2093 1.408 . S
C2090 C2088 1.363 . S
C2090 C2091 1.370 . S
C2090 C2094 1.524 . S
C2091 C2083 1.503 . S
C2091 C2090 1.370 . S
C2091 C2092 1.403 . S
C2092 C2091 1.403 . S
C2092 C2093 1.404 . S
C2092 C2095 1.539 . S
C2093 C2089 1.408 . S
C2093 C2092 1.404 . S
C2093 H2105 0.930 . S
C2094 C2090 1.524 . S
C2094 H2106 0.956 . S
C2094 H2107 0.961 . S
C2094 H2108 0.961 . S
C2095 C2092 1.539 . S
C2095 H2109 0.958 . S
C2095 H2110 0.961 . S
C2095 H2111 0.960 . S
H2096 C2080 0.931 . S
H2097 C2085 0.929 . S
H2098 C2086 0.960 . S
H2099 C2086 0.962 . S
H2100 C2086 0.960 . S
H2101 C2087 0.961 . S
H2102 C2087 0.961 . S
H2103 C2087 0.961 . S
H2104 C2088 0.931 . S
H2105 C2093 0.930 . S
H2106 C2094 0.956 . S
H2107 C2094 0.961 . S
H2108 C2094 0.961 . S
H2109 C2095 0.958 . S
H2110 C2095 0.961 . S
H2111 C2095 0.960 . S
C2112 C2113 1.391 . S
C2112 C2114 1.394 . S
C2112 H2128 0.931 . S
C2113 C2112 1.391 . S
C2113 C2117 1.376 . S
C2114 C2112 1.394 . S
C2114 C2115 1.369 . S
C2114 C2118 1.531 . S
C2115 C2114 1.369 . S
C2115 C2116 1.410 . S
C2115 C2123 1.503 . S
C2116 C2115 1.410 . S
C2116 C2117 1.392 . S
C2116 C2119 1.511 . S
C2117 C2113 1.376 . S
C2117 C2116 1.392 . S
C2117 H2129 0.929 . S
C2118 C2114 1.531 . S
C2118 H2130 0.960 . S
C2118 H2131 0.962 . S
C2118 H2132 0.960 . S
C2119 C2116 1.511 . S
C2119 H2133 0.961 . S
C2119 H2134 0.961 . S
C2119 H2135 0.961 . S
C2120 C2121 1.370 . S
C2120 C2122 1.363 . S
C2120 H2136 0.931 . S
C2121 C2120 1.370 . S
C2121 C2125 1.408 . S
C2122 C2120 1.363 . S
C2122 C2123 1.370 . S
C2122 C2126 1.524 . S
C2123 C2115 1.503 . S
C2123 C2122 1.370 . S
C2123 C2124 1.403 . S
C2124 C2123 1.403 . S
C2124 C2125 1.404 . S
C2124 C2127 1.539 . S
C2125 C2121 1.408 . S
C2125 C2124 1.404 . S
C2125 H2137 0.930 . S
C2126 C2122 1.524 . S
C2126 H2138 0.956 . S
C2126 H2139 0.961 . S
C2126 H2140 0.961 . S
C2127 C2124 1.539 . S
C2127 H2141 0.958 . S
C2127 H2142 0.961 . S
C2127 H2143 0.960 . S
H2128 C2112 0.931 . S
H2129 C2117 0.929 . S
H2130 C2118 0.960 . S
H2131 C2118 0.962 . S
H2132 C2118 0.960 . S
H2133 C2119 0.961 . S
H2134 C2119 0.961 . S
H2135 C2119 0.961 . S
H2136 C2120 0.931 . S
H2137 C2125 0.930 . S
H2138 C2126 0.956 . S
H2139 C2126 0.961 . S
H2140 C2126 0.961 . S
H2141 C2127 0.958 . S
H2142 C2127 0.961 . S
H2143 C2127 0.960 . S
C2144 C2145 1.391 . S
C2144 C2146 1.394 . S
C2144 H2160 0.931 . S
C2145 C2144 1.391 . S
C2145 C2149 1.376 . S
C2146 C2144 1.394 . S
C2146 C2147 1.369 . S
C2146 C2150 1.531 . S
C2147 C2146 1.369 . S
C2147 C2148 1.410 . S
C2147 C2155 1.503 . S
C2148 C2147 1.410 . S
C2148 C2149 1.392 . S
C2148 C2151 1.511 . S
C2149 C2145 1.376 . S
C2149 C2148 1.392 . S
C2149 H2161 0.929 . S
C2150 C2146 1.531 . S
C2150 H2162 0.960 . S
C2150 H2163 0.962 . S
C2150 H2164 0.960 . S
C2151 C2148 1.511 . S
C2151 H2165 0.961 . S
C2151 H2166 0.961 . S
C2151 H2167 0.961 . S
C2152 C2153 1.370 . S
C2152 C2154 1.363 . S
C2152 H2168 0.931 . S
C2153 C2152 1.370 . S
C2153 C2157 1.408 . S
C2154 C2152 1.363 . S
C2154 C2155 1.370 . S
C2154 C2158 1.524 . S
C2155 C2147 1.503 . S
C2155 C2154 1.370 . S
C2155 C2156 1.403 . S
C2156 C2155 1.403 . S
C2156 C2157 1.404 . S
C2156 C2159 1.539 . S
C2157 C2153 1.408 . S
C2157 C2156 1.404 . S
C2157 H2169 0.930 . S
C2158 C2154 1.524 . S
C2158 H2170 0.956 . S
C2158 H2171 0.961 . S
C2158 H2172 0.961 . S
C2159 C2156 1.539 . S
C2159 H2173 0.958 . S
C2159 H2174 0.961 . S
C2159 H2175 0.960 . S
H2160 C2144 0.931 . S
H2161 C2149 0.929 . S
H2162 C2150 0.960 . S
H2163 C2150 0.962 . S
H2164 C2150 0.960 . S
H2165 C2151 0.961 . S
H2166 C2151 0.961 . S
H2167 C2151 0.961 . S
H2168 C2152 0.931 . S
H2169 C2157 0.930 . S
H2170 C2158 0.956 . S
H2171 C2158 0.961 . S
H2172 C2158 0.961 . S
H2173 C2159 0.958 . S
H2174 C2159 0.961 . S
H2175 C2159 0.960 . S
C641 C6 0.803 . S
C649 C286 0.939 . S
C673 C59 0.981 . S
C681 C166 0.953 . S
C705 C206 0.489 . S
C713 C99 0.491 . S
C737 C139 0.956 . S
C745 C246 0.915 . S
C769 C455 0.925 . S
C777 C170 0.943 . S
C801 C330 2.725 . S
C809 C10 2.681 1_556 S
C833 C415 0.935 . S
C841 C250 0.978 . S
C865 C95 1.965 . S
C873 C370 1.954 . S
C897 C366 0.943 . S
C905 C486 0.814 . S
C929 C419 0.968 . S
C937 C566 0.955 . S
C961 C539 0.432 . S
C969 C326 0.475 . S
C993 C459 0.926 . S
C1001 C606 0.896 . S
C1025 C570 0.956 . S
C1033 C135 0.936 . S
C1057 C490 2.687 . S
C1065 C210 2.727 . S
C1089 C55 0.963 . S
C1097 C610 0.953 . S
C1121 C290 1.955 . S
C1129 C535 1.965 . S
C1153 C538 0.559 . S
C1161 C9 0.477 . S
C1185 C458 0.620 . S
C1193 C58 0.468 . S
C1217 C489 0.509 . S
C1225 C98 0.466 . S
C1249 C418 0.591 . S
C1257 C138 0.536 . S
C1281 C169 0.448 . S
C1289 C609 0.427 . S
C1313 C369 0.596 . S
C1321 C209 0.683 . S
C1345 C249 0.587 . S
C1353 C569 0.466 . S
C1377 C289 0.805 . S
C1385 C329 0.638 . S
C1409 C18 1.502 1_455 S
C1417 C178 1.475 . S
C1441 C49 1.389 . S
C1449 C218 1.413 . S
C1473 C258 1.572 . S
C1481 C89 1.559 . S
C1505 C129 1.790 . S
C1513 C298 1.729 . S
C1537 C409 1.391 . S
C1545 C338 1.412 . S
C1569 C449 1.766 . S
C1577 C378 1.741 . S
C1601 C498 1.514 . S
C1609 C578 1.474 . S
C1633 C618 1.595 . S
C1641 C529 1.554 . S
C1665 C19 3.618 . S
C1673 C299 3.646 . S
C1697 C46 1.960 . S
C1705 C179 2.073 . S
C1729 C219 2.903 . S
C1737 C86 2.851 . S
C1761 C259 2.036 . S
C1769 C126 1.945 . S
C1793 C450 2.026 . S
C1801 C175 1.970 . S
C1825 C335 0.599 . S
C1833 C15 0.532 . S
C1857 C410 2.044 . S
C1865 C255 1.963 . S
C1889 C90 0.983 . S
C1897 C375 0.979 . S
C1921 C499 3.619 . S
C1929 C379 3.644 1_556 S
C1953 C579 2.063 . S
C1961 C406 1.984 . S
C1985 C526 2.854 . S
C1993 C339 2.906 . S
C2017 C619 2.035 . S
C2025 C446 1.962 . S
C2049 C575 1.979 . S
C2057 C130 2.034 . S
C2081 C215 0.648 . S
C2089 C495 0.568 . S
C2113 C50 2.030 . S
C2121 C615 1.976 . S
C2145 C530 1.021 . S
C2153 C295 0.966 . S
