# Generated by pormake.
# Topology mmt, (4)-cn, num edge types: 1
# Building blocks:
#     Node 0, Type 0, BuildingBlock: KUFVIS_clean_sbu_0, # of connection points: 4
#     Node 1, Type 0, BuildingBlock: KUFVIS_clean_sbu_0, # of connection points: 4
#     Node 2, Type 0, BuildingBlock: KUFVIS_clean_sbu_0, # of connection points: 4
#     Node 3, Type 0, BuildingBlock: KUFVIS_clean_sbu_0, # of connection points: 4
#     Node 4, Type 0, BuildingBlock: KUFVIS_clean_sbu_0, # of connection points: 4
#     Node 5, Type 0, BuildingBlock: KUFVIS_clean_sbu_0, # of connection points: 4
#     Node 6, Type 0, BuildingBlock: KUFVIS_clean_sbu_0, # of connection points: 4
#     Node 7, Type 0, BuildingBlock: KUFVIS_clean_sbu_0, # of connection points: 4
#     Edge 8, Type (0, 0), BuildingBlock: TEMPAE_clean_linker_10, # of connection points: 2
#     Edge 9, Type (0, 0), BuildingBlock: TEMPAE_clean_linker_10, # of connection points: 2
#     Edge 10, Type (0, 0), BuildingBlock: TEMPAE_clean_linker_10, # of connection points: 2
#     Edge 11, Type (0, 0), BuildingBlock: TEMPAE_clean_linker_10, # of connection points: 2
#     Edge 12, Type (0, 0), BuildingBlock: TEMPAE_clean_linker_10, # of connection points: 2
#     Edge 13, Type (0, 0), BuildingBlock: TEMPAE_clean_linker_10, # of connection points: 2
#     Edge 14, Type (0, 0), BuildingBlock: TEMPAE_clean_linker_10, # of connection points: 2
#     Edge 15, Type (0, 0), BuildingBlock: TEMPAE_clean_linker_10, # of connection points: 2
#     Edge 16, Type (0, 0), BuildingBlock: TEMPAE_clean_linker_10, # of connection points: 2
#     Edge 17, Type (0, 0), BuildingBlock: TEMPAE_clean_linker_10, # of connection points: 2
#     Edge 18, Type (0, 0), BuildingBlock: TEMPAE_clean_linker_10, # of connection points: 2
#     Edge 19, Type (0, 0), BuildingBlock: TEMPAE_clean_linker_10, # of connection points: 2
#     Edge 20, Type (0, 0), BuildingBlock: TEMPAE_clean_linker_10, # of connection points: 2
#     Edge 21, Type (0, 0), BuildingBlock: TEMPAE_clean_linker_10, # of connection points: 2
#     Edge 22, Type (0, 0), BuildingBlock: TEMPAE_clean_linker_10, # of connection points: 2
#     Edge 23, Type (0, 0), BuildingBlock: TEMPAE_clean_linker_10, # of connection points: 2
# Relax obj value: 0.034
# Max RMSD: 0.059
# Mean RMSD: 0.059
data_MOF--net-mmt--node1-KUFVIS_clean_sbu_0--edge1-TEMPAE_clean_linker_10
_symmetry_space_group_name_H-M    P1
_symmetry_Int_Tables_number       1
_symmetry_cell_setting            triclinic
loop_
_symmetry_equiv_pos_as_xyz
'x, y, z'
_cell_length_a     22.497778
_cell_length_b     37.506734
_cell_length_c     44.135938
_cell_angle_alpha  89.985873
_cell_angle_beta   90.001734
_cell_angle_gamma 90.012462
loop_
_atom_site_label
_atom_site_type_symbol
_atom_site_fract_x
_atom_site_fract_y
_atom_site_fract_z
_atom_type_partial_charge
Mn0 Mn 0.09506 0.57075 0.35633 0.0
Mn1 Mn 0.0741 0.62017 0.29313 0.0
C2 C 0.02979 0.55136 0.31899 0.0
C3 C 0.07224 0.55536 0.40626 0.0
C4 C 0.18109 0.5724 0.30236 0.0
O5 O 0.13143 0.61881 0.36838 0.0
O6 O 0.11095 0.64916 0.32566 0.0
C7 C 0.98269 0.66875 0.31813 0.0
N8 N 1.00048 0.6452 0.29648 0.0
C9 C 0.91016 0.65373 0.26824 0.0
C10 C 0.89094 0.67824 0.29014 0.0
C11 C 0.92724 0.68561 0.31529 0.0
C12 C 0.96545 0.63741 0.27252 0.0
H13 H 0.01066 0.67463 0.33738 0.0
C14 C 0.13202 0.64734 0.35255 0.0
O15 O 0.12324 0.54754 0.39428 0.0
O16 O 0.03532 0.57355 0.38977 0.0
N17 N 0.03868 0.59643 0.25935 0.0
C18 C 0.06315 0.57146 0.24072 0.0
C19 C 0.03305 0.5615 0.21419 0.0
C20 C 0.97863 0.57768 0.20689 0.0
C21 C 0.95392 0.60297 0.22659 0.0
C22 C 0.98618 0.61203 0.25257 0.0
H23 H 0.10561 0.55952 0.24588 0.0
O24 O 0.05175 0.52931 0.33861 0.0
O25 O 0.04497 0.58466 0.32225 0.0
O26 O 0.16601 0.56103 0.32851 0.0
O27 O 0.15023 0.59477 0.28722 0.0
C28 C 0.89883 0.61977 0.22136 0.0
C29 C 0.87665 0.64484 0.24235 0.0
H30 H 0.84836 0.69146 0.28793 0.0
H31 H 0.91265 0.70441 0.33234 0.0
H32 H 0.05218 0.54181 0.19916 0.0
H33 H 0.95634 0.57058 0.18601 0.0
H34 H 0.87292 0.61342 0.2014 0.0
H35 H 0.83386 0.65718 0.23831 0.0
Mn36 Mn 0.41172 0.94101 0.35655 0.0
Mn37 Mn 0.42951 0.89575 0.29101 0.0
C38 C 0.47309 0.96348 0.31878 0.0
C39 C 0.43901 0.95409 0.4064 0.0
C40 C 0.32221 0.9419 0.3039 0.0
O41 O 0.37957 0.89163 0.36761 0.0
O42 O 0.39404 0.86481 0.32268 0.0
C43 C 0.52183 0.84565 0.31281 0.0
N44 N 0.50325 0.87058 0.29247 0.0
C45 C 0.59226 0.86371 0.26286 0.0
C46 C 0.61232 0.83786 0.28342 0.0
C47 C 0.57708 0.82894 0.30859 0.0
C48 C 0.53724 0.8798 0.26849 0.0
H49 H 0.49464 0.83853 0.33204 0.0
C50 C 0.37645 0.86445 0.35026 0.0
O51 O 0.38586 0.96077 0.39648 0.0
O52 O 0.4753 0.93835 0.38791 0.0
N53 N 0.4635 0.92148 0.25789 0.0
C54 C 0.43837 0.94762 0.24069 0.0
C55 C 0.46749 0.95929 0.21437 0.0
C56 C 0.52158 0.94359 0.20579 0.0
C57 C 0.54694 0.91703 0.22402 0.0
C58 C 0.51572 0.90636 0.24989 0.0
H59 H 0.39612 0.9592 0.24682 0.0
O60 O 0.45103 0.98423 0.3394 0.0
O61 O 0.45964 0.92982 0.32106 0.0
O62 O 0.33753 0.95077 0.33073 0.0
O63 O 0.35341 0.92148 0.28708 0.0
C64 C 0.60169 0.90049 0.21743 0.0
C65 C 0.62465 0.87414 0.23701 0.0
H66 H 0.65472 0.82474 0.28013 0.0
H67 H 0.59229 0.80907 0.32459 0.0
H68 H 0.44784 0.97994 0.20048 0.0
H69 H 0.54315 0.95209 0.18509 0.0
H70 H 0.62674 0.90802 0.19747 0.0
H71 H 0.66718 0.86201 0.23194 0.0
Mn72 Mn 0.59388 0.44367 0.15576 0.0
Mn73 Mn 0.57428 0.3968 0.22038 0.0
C74 C 0.53194 0.4654 0.19362 0.0
C75 C 0.56778 0.45803 0.106 0.0
C76 C 0.68243 0.4428 0.20881 0.0
O77 O 0.62599 0.39449 0.14404 0.0
O78 O 0.60966 0.36648 0.18831 0.0
C79 C 0.48135 0.34793 0.19726 0.0
N80 N 0.50017 0.37209 0.21819 0.0
C81 C 0.41093 0.36468 0.24752 0.0
C82 C 0.39063 0.33959 0.22636 0.0
C83 C 0.42586 0.33135 0.20102 0.0
C84 C 0.46616 0.38072 0.24232 0.0
H85 H 0.50852 0.34134 0.17789 0.0
C86 C 0.62805 0.36681 0.16087 0.0
O87 O 0.62077 0.46432 0.11633 0.0
O88 O 0.53095 0.44196 0.12402 0.0
N89 N 0.54027 0.42183 0.25386 0.0
C90 C 0.56561 0.44735 0.27163 0.0
C91 C 0.53656 0.45827 0.29819 0.0
C92 C 0.48233 0.44247 0.30641 0.0
C93 C 0.45671 0.41659 0.28757 0.0
C94 C 0.48787 0.40664 0.26149 0.0
H95 H 0.608 0.45896 0.26579 0.0
O96 O 0.55455 0.48658 0.17346 0.0
O97 O 0.54516 0.43177 0.19082 0.0
O98 O 0.66756 0.45255 0.18213 0.0
O99 O 0.65079 0.42198 0.22507 0.0
C100 C 0.40178 0.40004 0.29376 0.0
C101 C 0.37857 0.37442 0.27357 0.0
H102 H 0.34804 0.32656 0.2293 0.0
H103 H 0.41045 0.31208 0.18455 0.0
H104 H 0.55639 0.47841 0.31255 0.0
H105 H 0.46083 0.45037 0.3273 0.0
H106 H 0.37676 0.40702 0.31387 0.0
H107 H 0.33588 0.36229 0.27834 0.0
Mn108 Mn 0.91061 0.07357 0.1585 0.0
Mn109 Mn 0.92996 0.12156 0.2226 0.0
C110 C 0.97522 0.05352 0.19587 0.0
C111 C 0.9345 0.05916 0.10849 0.0
C112 C 0.82366 0.07362 0.21216 0.0
O113 O 0.87446 0.12184 0.14694 0.0
O114 O 0.89297 0.15107 0.19043 0.0
C115 C 0.02073 0.17139 0.19874 0.0
N116 N 0.00323 0.14709 0.21987 0.0
C117 C 0.09342 0.15521 0.24831 0.0
C118 C 0.11237 0.18044 0.22693 0.0
C119 C 0.07597 0.18842 0.20196 0.0
C120 C 0.0383 0.13878 0.24369 0.0
H121 H 0.99269 0.17774 0.17963 0.0
C122 C 0.87278 0.14991 0.16332 0.0
O123 O 0.88327 0.05109 0.12009 0.0
O124 O 0.97104 0.07708 0.12541 0.0
N125 N 0.96542 0.09723 0.25608 0.0
C126 C 0.94116 0.07169 0.27424 0.0
C127 C 0.9714 0.06108 0.30055 0.0
C128 C 0.02573 0.07719 0.30813 0.0
C129 C 0.05017 0.10312 0.28894 0.0
C130 C 0.0178 0.11281 0.26316 0.0
H131 H 0.8988 0.05975 0.26885 0.0
O132 O 0.95367 0.03183 0.17584 0.0
O133 O 0.95998 0.08686 0.19303 0.0
O134 O 0.83907 0.06314 0.1858 0.0
O135 O 0.85421 0.09558 0.22787 0.0
C136 C 0.10512 0.11995 0.29448 0.0
C137 C 0.12703 0.1457 0.27401 0.0
H138 H 0.15479 0.19379 0.22943 0.0
H139 H 0.09033 0.2078 0.18532 0.0
H140 H 0.95245 0.04091 0.31519 0.0
H141 H 0.04814 0.06955 0.32884 0.0
H142 H 0.13113 0.11311 0.3143 0.0
H143 H 0.1697 0.15809 0.2783 0.0
Mn144 Mn 0.9129 0.44095 0.65715 0.0
Mn145 Mn 0.93107 0.39576 0.72272 0.0
C146 C 0.97444 0.46348 0.69482 0.0
C147 C 0.93981 0.45403 0.60725 0.0
C148 C 0.82368 0.44187 0.70993 0.0
O149 O 0.88079 0.39154 0.64618 0.0
O150 O 0.89539 0.3648 0.69114 0.0
C151 C 0.02324 0.34564 0.70082 0.0
N152 N 0.00479 0.37059 0.72116 0.0
C153 C 0.09399 0.36374 0.75063 0.0
C154 C 0.11392 0.33787 0.73007 0.0
C155 C 0.07851 0.32893 0.70496 0.0
C156 C 0.03894 0.37982 0.74508 0.0
H157 H 0.99593 0.3385 0.68164 0.0
C158 C 0.8777 0.36439 0.66357 0.0
O159 O 0.88672 0.46067 0.61727 0.0
O160 O 0.97627 0.43832 0.62568 0.0
N161 N 0.96526 0.42151 0.75576 0.0
C162 C 0.94021 0.44764 0.77299 0.0
C163 C 0.96947 0.45929 0.79927 0.0
C164 C 0.0236 0.4436 0.80778 0.0
C165 C 0.04889 0.41705 0.78951 0.0
C166 C 0.01753 0.40639 0.76369 0.0
H167 H 0.89793 0.45921 0.76692 0.0
O168 O 0.95222 0.4842 0.6742 0.0
O169 O 0.96104 0.42981 0.69259 0.0
O170 O 0.83885 0.45068 0.68307 0.0
O171 O 0.85499 0.42149 0.72675 0.0
C172 C 0.10368 0.40053 0.79603 0.0
C173 C 0.12654 0.37418 0.77642 0.0
H174 H 0.15634 0.32475 0.7333 0.0
H175 H 0.09362 0.30904 0.68896 0.0
H176 H 0.94988 0.47993 0.81319 0.0
H177 H 0.04527 0.45209 0.82846 0.0
H178 H 0.12886 0.40807 0.81594 0.0
H179 H 0.1691 0.36205 0.78144 0.0
Mn180 Mn 0.59642 0.07065 0.65702 0.0
Mn181 Mn 0.57572 0.12024 0.72013 0.0
C182 C 0.53123 0.05139 0.69445 0.0
C183 C 0.57333 0.05523 0.60712 0.0
C184 C 0.68264 0.07238 0.71091 0.0
O185 O 0.63289 0.11865 0.64486 0.0
O186 O 0.61244 0.14915 0.6875 0.0
C187 C 0.48421 0.16874 0.69511 0.0
N188 N 0.50209 0.14526 0.7168 0.0
C189 C 0.4119 0.15388 0.74512 0.0
C190 C 0.39259 0.17832 0.72318 0.0
C191 C 0.42877 0.18562 0.69797 0.0
C192 C 0.46717 0.13754 0.74082 0.0
H193 H 0.51208 0.17455 0.67581 0.0
C194 C 0.63349 0.14723 0.66061 0.0
O195 O 0.62436 0.04735 0.61905 0.0
O196 O 0.53655 0.07346 0.62364 0.0
N197 N 0.54043 0.09658 0.75399 0.0
C198 C 0.56495 0.07163 0.77264 0.0
C199 C 0.53494 0.06172 0.79921 0.0
C200 C 0.48057 0.07793 0.80654 0.0
C201 C 0.45581 0.1032 0.78683 0.0
C202 C 0.48797 0.1122 0.7608 0.0
H203 H 0.60738 0.05967 0.76745 0.0
O204 O 0.55305 0.02928 0.67484 0.0
O205 O 0.54649 0.08466 0.69112 0.0
O206 O 0.66745 0.06092 0.68481 0.0
O207 O 0.65187 0.09483 0.726 0.0
C208 C 0.40076 0.12003 0.79208 0.0
C209 C 0.3785 0.14505 0.77107 0.0
H210 H 0.35002 0.19156 0.72541 0.0
H211 H 0.41411 0.20436 0.68089 0.0
H212 H 0.55412 0.04205 0.81426 0.0
H213 H 0.45834 0.07086 0.82745 0.0
H214 H 0.37492 0.11373 0.81208 0.0
H215 H 0.33573 0.15741 0.77513 0.0
Mn216 Mn 0.4118 0.57383 0.85497 0.0
Mn217 Mn 0.43152 0.62172 0.79082 0.0
C218 C 0.4765 0.55367 0.81769 0.0
C219 C 0.43534 0.55939 0.90502 0.0
C220 C 0.32508 0.57389 0.8012 0.0
O221 O 0.3758 0.62215 0.86644 0.0
O222 O 0.39439 0.65128 0.82291 0.0
C223 C 0.52222 0.67154 0.81475 0.0
N224 N 0.50481 0.64723 0.79363 0.0
C225 C 0.59514 0.6553 0.76529 0.0
C226 C 0.614 0.68054 0.78667 0.0
C227 C 0.5775 0.68855 0.81159 0.0
C228 C 0.53999 0.63889 0.76986 0.0
H229 H 0.49409 0.67792 0.83382 0.0
C230 C 0.37416 0.65019 0.85001 0.0
O231 O 0.38412 0.55142 0.89334 0.0
O232 O 0.47207 0.57724 0.88814 0.0
N233 N 0.46712 0.59735 0.75742 0.0
C234 C 0.44292 0.57181 0.73925 0.0
C235 C 0.47325 0.56119 0.71298 0.0
C236 C 0.52762 0.57729 0.70545 0.0
C237 C 0.55202 0.6032 0.72466 0.0
C238 C 0.51954 0.61291 0.75039 0.0
H239 H 0.40053 0.55989 0.7446 0.0
O240 O 0.45477 0.53202 0.83771 0.0
O241 O 0.46137 0.58703 0.82048 0.0
O242 O 0.34035 0.56348 0.8276 0.0
O243 O 0.35576 0.59577 0.78547 0.0
C244 C 0.60701 0.62001 0.71916 0.0
C245 C 0.62885 0.64576 0.73964 0.0
H246 H 0.65644 0.69387 0.78421 0.0
H247 H 0.59179 0.70794 0.82822 0.0
H248 H 0.45434 0.54102 0.69833 0.0
H249 H 0.55009 0.56964 0.68476 0.0
H250 H 0.6331 0.61315 0.69938 0.0
H251 H 0.67155 0.65814 0.73539 0.0
Mn252 Mn 0.09525 0.94402 0.85793 0.0
Mn253 Mn 0.07594 0.89707 0.79334 0.0
C254 C 0.03332 0.96566 0.82 0.0
C255 C 0.06887 0.95833 0.90767 0.0
C256 C 0.18396 0.94319 0.80496 0.0
O257 O 0.12757 0.89489 0.86969 0.0
O258 O 0.11121 0.86679 0.82548 0.0
C259 C 0.98295 0.8482 0.81641 0.0
N260 N 0.00185 0.87234 0.79546 0.0
C261 C 0.91275 0.86487 0.76603 0.0
C262 C 0.89238 0.83979 0.7872 0.0
C263 C 0.9275 0.83159 0.81259 0.0
C264 C 0.96794 0.88093 0.77129 0.0
H265 H 0.01004 0.84165 0.83582 0.0
C266 C 0.12961 0.86718 0.85291 0.0
O267 O 0.12187 0.96473 0.89739 0.0
O268 O 0.03223 0.94218 0.88961 0.0
N269 N 0.04205 0.92207 0.7598 0.0
C270 C 0.06742 0.9476 0.74204 0.0
C271 C 0.03848 0.9585 0.71544 0.0
C272 C 0.9843 0.94266 0.70717 0.0
C273 C 0.95864 0.91678 0.726 0.0
C274 C 0.9897 0.90685 0.75212 0.0
H275 H 0.10977 0.95924 0.74792 0.0
O276 O 0.05576 0.98686 0.84018 0.0
O277 O 0.04668 0.93205 0.82284 0.0
O278 O 0.16897 0.95301 0.83159 0.0
O279 O 0.15243 0.92228 0.78872 0.0
C280 C 0.90377 0.90019 0.71974 0.0
C281 C 0.8805 0.87456 0.73993 0.0
H282 H 0.84983 0.82673 0.78422 0.0
H283 H 0.91204 0.81233 0.82907 0.0
H284 H 0.05833 0.97864 0.70109 0.0
H285 H 0.96287 0.95055 0.68625 0.0
H286 H 0.87883 0.90713 0.6996 0.0
H287 H 0.83786 0.86241 0.73512 0.0
C288 C 0.2488 0.56387 0.25768 0.0
C289 C 0.23625 0.55805 0.28846 0.0
C290 C 0.29919 0.54874 0.24396 0.0
C291 C 0.33832 0.52745 0.26142 0.0
C292 C 0.32683 0.52247 0.29266 0.0
C293 C 0.27586 0.53754 0.30573 0.0
C294 C 0.31005 0.5551 0.21062 0.0
C295 C 0.3673 0.50035 0.31222 0.0
C296 C 0.4307 0.46122 0.21625 0.0
C297 C 0.48529 0.47892 0.21411 0.0
C298 C 0.38336 0.47593 0.23281 0.0
C299 C 0.39022 0.50976 0.24667 0.0
C300 C 0.44561 0.5276 0.24474 0.0
C301 C 0.49242 0.512 0.22835 0.0
C302 C 0.32541 0.45577 0.23465 0.0
C303 C 0.45479 0.56371 0.25909 0.0
H304 H 0.21863 0.57971 0.24407 0.0
H305 H 0.26693 0.53302 0.32956 0.0
H306 H 0.3087 0.52937 0.19824 0.0
H307 H 0.2766 0.57332 0.20047 0.0
H308 H 0.35492 0.56668 0.20717 0.0
H309 H 0.3573 0.50333 0.33674 0.0
H310 H 0.3616 0.47196 0.30603 0.0
H311 H 0.4144 0.50772 0.3083 0.0
H312 H 0.42448 0.43631 0.20422 0.0
H313 H 0.5344 0.52597 0.22618 0.0
H314 H 0.28987 0.4711 0.22308 0.0
H315 H 0.31192 0.45256 0.25868 0.0
H316 H 0.32839 0.42895 0.22408 0.0
H317 H 0.42521 0.58353 0.2481 0.0
H318 H 0.50146 0.57308 0.25702 0.0
H319 H 0.44272 0.5628 0.28344 0.0
C320 C 0.07608 0.05779 0.21907 0.0
C321 C 0.02107 0.04055 0.21707 0.0
C322 C 0.12284 0.04299 0.23605 0.0
C323 C 0.11484 0.00958 0.25054 0.0
C324 C 0.05882 0.99243 0.24898 0.0
C325 C 0.01274 0.00804 0.23209 0.0
C326 C 0.18152 0.0624 0.23744 0.0
C327 C 0.04834 0.95681 0.26397 0.0
C328 C 0.25295 0.95224 0.26017 0.0
C329 C 0.26711 0.95754 0.29085 0.0
C330 C 0.20329 0.96874 0.24696 0.0
C331 C 0.1665 0.99105 0.2648 0.0
C332 C 0.17964 0.99574 0.29591 0.0
C333 C 0.22982 0.97912 0.30852 0.0
C334 C 0.19068 0.96267 0.21374 0.0
C335 C 0.14161 0.01899 0.3158 0.0
H336 H 0.08313 0.08229 0.20655 0.0
H337 H 0.97039 0.99443 0.23005 0.0
H338 H 0.19602 0.06535 0.26133 0.0
H339 H 0.21607 0.04666 0.22549 0.0
H340 H 0.1791 0.08929 0.22694 0.0
H341 H 1.001 0.9485 0.26282 0.0
H342 H 0.07583 0.93615 0.25269 0.0
H343 H 0.06211 0.95777 0.28809 0.0
H344 H 0.28129 0.93565 0.2462 0.0
H345 H 0.24013 0.9834 0.33223 0.0
H346 H 0.19275 0.98839 0.20136 0.0
H347 H 0.14512 0.95189 0.21079 0.0
H348 H 0.22274 0.94388 0.20319 0.0
H349 H 0.14683 0.04709 0.30857 0.0
H350 H 0.15397 0.01698 0.34011 0.0
H351 H 0.09412 0.01165 0.3133 0.0
C352 C 0.77532 0.47966 0.20513 0.0
C353 C 0.73756 0.45781 0.22232 0.0
C354 C 0.82554 0.49576 0.21817 0.0
C355 C 0.83826 0.49027 0.24924 0.0
C356 C 0.80105 0.46765 0.26657 0.0
C357 C 0.75132 0.45168 0.25293 0.0
C358 C 0.86397 0.51937 0.1988 0.0
C359 C 0.81325 0.46069 0.2997 0.0
C360 C 0.99202 0.50651 0.28228 0.0
C361 C 0.98377 0.53873 0.29773 0.0
C362 C 0.94585 0.4912 0.26526 0.0
C363 C 0.88984 0.50838 0.26396 0.0
C364 C 0.88188 0.54148 0.27893 0.0
C365 C 0.92871 0.55596 0.29607 0.0
C366 C 0.95626 0.45587 0.24977 0.0
C367 C 0.82323 0.56093 0.27782 0.0
H368 H 0.76535 0.48458 0.18147 0.0
H369 H 0.72262 0.43486 0.26652 0.0
H370 H 0.85827 0.54734 0.20627 0.0
H371 H 0.91145 0.51215 0.20156 0.0
H372 H 0.85229 0.51769 0.17438 0.0
H373 H 0.78102 0.44164 0.3098 0.0
H374 H 0.85875 0.4498 0.30259 0.0
H375 H 0.81109 0.48607 0.31256 0.0
H376 H 0.03439 0.49289 0.28407 0.0
H377 H 0.9217 0.58019 0.30894 0.0
H378 H 0.94293 0.45742 0.22561 0.0
H379 H 0.92836 0.43505 0.26059 0.0
H380 H 0.00351 0.44738 0.251 0.0
H381 H 0.80893 0.56454 0.25396 0.0
H382 H 0.82559 0.58751 0.28885 0.0
H383 H 0.78857 0.54487 0.28938 0.0
C384 C 0.7557 0.06354 0.25649 0.0
C385 C 0.76852 0.05865 0.22563 0.0
C386 C 0.70535 0.04787 0.26981 0.0
C387 C 0.66651 0.02697 0.25185 0.0
C388 C 0.67829 0.02287 0.22054 0.0
C389 C 0.72924 0.03848 0.20787 0.0
C390 C 0.69423 0.05324 0.30324 0.0
C391 C 0.63807 1.0012 0.20048 0.0
C392 C 0.57404 0.95963 0.2958 0.0
C393 C 0.51955 0.97735 0.29835 0.0
C394 C 0.62134 0.97468 0.27941 0.0
C395 C 0.61451 0.00885 0.26614 0.0
C396 C 0.55917 0.02667 0.26841 0.0
C397 C 0.51243 0.01075 0.28464 0.0
C398 C 0.67925 0.95455 0.27721 0.0
C399 C 0.55001 0.06311 0.25468 0.0
H400 H 0.78562 0.0791 0.27048 0.0
H401 H 0.7384 0.03466 0.18398 0.0
H402 H 0.64934 0.06473 0.30684 0.0
H403 H 0.69544 0.02715 0.31509 0.0
H404 H 0.7276 0.07116 0.31385 0.0
H405 H 0.64871 1.00451 0.17607 0.0
H406 H 0.64318 0.97269 0.20642 0.0
H407 H 0.59098 0.00873 0.20419 0.0
H408 H 0.58025 0.93444 0.30741 0.0
H409 H 0.47052 0.02471 0.28712 0.0
H410 H 0.71475 0.96951 0.28916 0.0
H411 H 0.69288 0.95206 0.25315 0.0
H412 H 0.67615 0.92742 0.2872 0.0
H413 H 0.57928 0.08272 0.26617 0.0
H414 H 0.50325 0.07233 0.25672 0.0
H415 H 0.56249 0.06288 0.23037 0.0
C416 C 0.57748 0.55786 0.7946 0.0
C417 C 0.52245 0.54063 0.79659 0.0
C418 C 0.62431 0.54301 0.77771 0.0
C419 C 0.61636 0.50957 0.76329 0.0
C420 C 0.56034 0.49241 0.76485 0.0
C421 C 0.51419 0.50807 0.78164 0.0
C422 C 0.68298 0.56243 0.77632 0.0
C423 C 0.54992 0.45675 0.74993 0.0
C424 C 0.73127 0.47905 0.70532 0.0
C425 C 0.76862 0.45751 0.723 0.0
C426 C 0.68111 0.49568 0.71792 0.0
C427 C 0.66803 0.49103 0.74905 0.0
C428 C 0.70488 0.46877 0.76691 0.0
C429 C 0.75453 0.45227 0.7537 0.0
C430 C 0.64304 0.5189 0.69802 0.0
C431 C 0.69233 0.46275 0.80014 0.0
H432 H 0.58448 0.58239 0.80708 0.0
H433 H 0.47183 0.49448 0.78367 0.0
H434 H 0.71752 0.54671 0.78829 0.0
H435 H 0.6975 0.56535 0.75242 0.0
H436 H 0.68054 0.58933 0.78679 0.0
H437 H 0.50261 0.44838 0.75114 0.0
H438 H 0.5636 0.45768 0.7258 0.0
H439 H 0.57753 0.43614 0.76123 0.0
H440 H 0.74151 0.4833 0.68159 0.0
H441 H 0.78293 0.43571 0.76768 0.0
H442 H 0.64841 0.54701 0.70516 0.0
H443 H 0.59554 0.51163 0.70061 0.0
H444 H 0.65527 0.51678 0.6737 0.0
H445 H 0.6944 0.48848 0.81249 0.0
H446 H 0.72442 0.44398 0.81071 0.0
H447 H 0.64679 0.45195 0.80312 0.0
C448 C 0.75036 0.06392 0.75559 0.0
C449 C 0.73781 0.05805 0.72482 0.0
C450 C 0.80075 0.04882 0.76934 0.0
C451 C 0.83988 0.0275 0.75192 0.0
C452 C 0.82841 0.02248 0.72068 0.0
C453 C 0.77742 0.03752 0.70758 0.0
C454 C 0.81159 0.05522 0.80267 0.0
C455 C 0.8689 1.00034 0.70115 0.0
C456 C 0.9939 0.01216 0.78513 0.0
C457 C 0.98675 0.9791 0.79943 0.0
C458 C 0.94715 0.0277 0.76865 0.0
C459 C 0.89178 0.00984 0.7667 0.0
C460 C 0.8849 0.97603 0.78062 0.0
C461 C 0.93219 0.96138 0.79726 0.0
C462 C 0.95635 0.06378 0.75425 0.0
C463 C 0.82697 0.95586 0.77877 0.0
H464 H 0.72019 0.07979 0.76918 0.0
H465 H 0.76849 0.03296 0.68376 0.0
H466 H 0.85645 0.06682 0.80611 0.0
H467 H 0.77813 0.07346 0.81279 0.0
H468 H 0.81025 0.02951 0.81509 0.0
H469 H 0.85885 1.00325 0.67663 0.0
H470 H 0.91598 0.00779 0.70504 0.0
H471 H 0.86332 0.97197 0.70742 0.0
H472 H 0.03586 0.02615 0.78733 0.0
H473 H 0.92595 0.93649 0.80934 0.0
H474 H 0.9268 0.08364 0.76522 0.0
H475 H 0.94425 0.06284 0.7299 0.0
H476 H 0.00303 0.07314 0.75629 0.0
H477 H 0.7914 0.97119 0.7903 0.0
H478 H 0.82995 0.92905 0.78938 0.0
H479 H 0.81353 0.95261 0.75474 0.0
C480 C 0.23067 0.53875 0.80547 0.0
C481 C 0.26997 0.5589 0.78771 0.0
C482 C 0.17977 0.5231 0.7928 0.0
C483 C 0.16804 0.52715 0.76149 0.0
C484 C 0.2069 0.54804 0.74351 0.0
C485 C 0.25722 0.56375 0.75683 0.0
C486 C 0.13957 0.50142 0.81287 0.0
C487 C 0.19581 0.55337 0.71007 0.0
C488 C 0.0755 0.45972 0.71769 0.0
C489 C 0.02098 0.47741 0.71517 0.0
C490 C 0.12285 0.47482 0.734 0.0
C491 C 0.11605 0.50902 0.74721 0.0
C492 C 0.06068 0.52682 0.74495 0.0
C493 C 0.01389 0.51084 0.72881 0.0
C494 C 0.18078 0.45471 0.7362 0.0
C495 C 0.05155 0.56329 0.75862 0.0
H496 H 0.23979 0.53496 0.82937 0.0
H497 H 0.28715 0.57929 0.74284 0.0
H498 H 0.09246 0.50887 0.8091 0.0
H499 H 0.14483 0.4729 0.80701 0.0
H500 H 0.15011 0.50481 0.83729 0.0
H501 H 0.22919 0.57128 0.69945 0.0
H502 H 0.19704 0.52727 0.69826 0.0
H503 H 0.15092 0.56485 0.70644 0.0
H504 H 0.08168 0.4345 0.70613 0.0
H505 H 0.97195 0.52479 0.72634 0.0
H506 H 0.19444 0.45224 0.76026 0.0
H507 H 0.21625 0.46966 0.72422 0.0
H508 H 0.17768 0.42757 0.72624 0.0
H509 H 0.06395 0.56307 0.78294 0.0
H510 H 0.00481 0.57253 0.75653 0.0
H511 H 0.08089 0.58286 0.74713 0.0
C512 C 0.25293 0.95197 0.76085 0.0
C513 C 0.2391 0.9582 0.79144 0.0
C514 C 0.30266 0.96791 0.7472 0.0
C515 C 0.33983 0.99059 0.76449 0.0
C516 C 0.32705 0.99617 0.79554 0.0
C517 C 0.27681 0.98011 0.80859 0.0
C518 C 0.31491 0.96085 0.71409 0.0
C519 C 0.36547 0.01984 0.81486 0.0
C520 C 0.49354 1.00669 0.73134 0.0
C521 C 0.48526 0.03885 0.71578 0.0
C522 C 0.44742 0.99147 0.74846 0.0
C523 C 0.39142 0.00866 0.74974 0.0
C524 C 0.38344 0.0417 0.73466 0.0
C525 C 0.43023 0.0561 0.71744 0.0
C526 C 0.45785 0.9562 0.76406 0.0
C527 C 0.32479 0.06116 0.73573 0.0
H528 H 0.22426 0.9351 0.7473 0.0
H529 H 0.26679 0.9851 0.83223 0.0
H530 H 0.31277 0.9862 0.70117 0.0
H531 H 0.36042 0.94996 0.71125 0.0
H532 H 0.2827 0.94178 0.70403 0.0
H533 H 0.41293 0.01254 0.81219 0.0
H534 H 0.35991 0.04778 0.80727 0.0
H535 H 0.35366 0.01829 0.83927 0.0
H536 H 0.5359 0.99306 0.72957 0.0
H537 H 0.4232 0.08029 0.70449 0.0
H538 H 0.43004 0.93533 0.75327 0.0
H539 H 0.44445 0.95782 0.7882 0.0
H540 H 0.50512 0.94774 0.76289 0.0
H541 H 0.29012 0.04507 0.72422 0.0
H542 H 0.32716 0.08772 0.72463 0.0
H543 H 0.31052 0.06484 0.75959 0.0
C544 C 0.06942 0.50595 0.44385 0.0
C545 C 0.05483 0.54112 0.43618 0.0
C546 C 0.04975 0.49077 0.47117 0.0
C547 C 0.01688 0.51178 0.49191 0.0
C548 C 0.00342 0.5477 0.48456 0.0
C549 C 0.02139 0.56169 0.45641 0.0
C550 C 0.06307 0.45202 0.47753 0.0
C551 C 0.97058 0.57144 0.50651 0.0
C552 C 0.92096 0.46768 0.55254 0.0
C553 C 0.95982 0.46702 0.57732 0.0
C554 C 0.93938 0.48139 0.52437 0.0
C555 C 0.99709 0.49621 0.52138 0.0
C556 C 0.03611 0.496 0.54657 0.0
C557 C 0.0174 0.48075 0.57404 0.0
C558 C 0.89724 0.4798 0.49779 0.0
C559 C 0.09713 0.51265 0.54475 0.0
H560 H 0.09453 0.48987 0.42795 0.0
H561 H 0.01019 0.58892 0.45043 0.0
H562 H 0.09085 0.44959 0.49818 0.0
H563 H 0.02107 0.43736 0.4819 0.0
H564 H 0.08669 0.43892 0.45844 0.0
H565 H 0.96652 0.59924 0.49808 0.0
H566 H 0.92533 0.56077 0.51063 0.0
H567 H 0.99401 0.57185 0.52864 0.0
H568 H 0.87644 0.45703 0.55509 0.0
H569 H 0.04718 0.48074 0.59336 0.0
H570 H 0.91891 0.4661 0.47843 0.0
H571 H 0.88598 0.50716 0.4902 0.0
H572 H 0.85536 0.46555 0.50338 0.0
H573 H 0.12432 0.49874 0.52746 0.0
H574 H 0.12108 0.51163 0.56675 0.0
H575 H 0.09329 0.54092 0.53757 0.0
C576 C 0.51659 0.98138 0.43924 0.0
C577 C 0.45932 0.96712 0.43626 0.0
C578 C 0.53556 0.99662 0.46666 0.0
C579 C 0.49718 0.99623 0.49211 0.0
C580 C 0.43981 0.98087 0.4894 0.0
C581 C 0.42105 0.96722 0.46128 0.0
C582 C 0.59614 0.01388 0.46818 0.0
C583 C 0.39841 0.97863 0.51625 0.0
C584 C 0.57115 1.0061 0.56923 0.0
C585 C 0.55575 0.04105 0.5772 0.0
C586 C 0.55127 0.99093 0.54195 0.0
C587 C 0.51728 0.01177 0.52153 0.0
C588 C 0.50301 0.04749 0.52917 0.0
C589 C 0.52127 0.06144 0.55727 0.0
C590 C 0.56554 0.95238 0.53528 0.0
C591 C 0.46894 0.07106 0.50756 0.0
H592 H 0.54589 0.98181 0.41973 0.0
H593 H 0.37677 0.95614 0.45895 0.0
H594 H 0.59169 0.04205 0.47555 0.0
H595 H 0.62418 1.0001 0.4852 0.0
H596 H 0.61953 0.01329 0.44602 0.0
H597 H 0.35678 0.96401 0.51085 0.0
H598 H 0.42095 0.96498 0.53539 0.0
H599 H 0.38658 1.0058 0.52407 0.0
H600 H 0.59707 0.99014 0.58489 0.0
H601 H 0.50944 0.08849 0.56346 0.0
H602 H 0.59282 0.95041 0.51443 0.0
H603 H 0.52386 0.93733 0.53112 0.0
H604 H 0.59005 0.93938 0.55414 0.0
H605 H 0.49177 0.07186 0.48527 0.0
H606 H 0.46435 0.09876 0.51616 0.0
H607 H 0.42389 0.05997 0.50369 0.0
C608 C 0.49168 0.48696 0.07331 0.0
C609 C 0.54825 0.47173 0.07624 0.0
C610 C 0.47336 0.50252 0.0459 0.0
C611 C 0.51158 0.50144 0.02041 0.0
C612 C 0.56832 0.48526 0.0231 0.0
C613 C 0.58652 0.47132 0.05123 0.0
C614 C 0.41352 0.52068 0.0444 0.0
C615 C 0.60947 0.48228 0.99621 0.0
C616 C 0.43684 0.51089 0.94348 0.0
C617 C 0.45317 0.54555 0.93501 0.0
C618 C 0.45671 0.49596 0.97085 0.0
C619 C 0.49167 0.51674 0.99087 0.0
C620 C 0.50696 0.55217 0.98273 0.0
C621 C 0.48865 0.56587 0.95453 0.0
C622 C 0.44126 0.4577 0.97805 0.0
C623 C 0.54211 0.5757 1.00391 0.0
H624 H 0.46244 0.48779 0.09283 0.0
H625 H 0.63027 0.4595 0.05354 0.0
H626 H 0.419 0.5486 0.03654 0.0
H627 H 0.38457 0.50693 0.02777 0.0
H628 H 0.39056 0.52093 0.06669 0.0
H629 H 0.65082 0.46745 1.00171 0.0
H630 H 0.58647 0.46848 0.9773 0.0
H631 H 0.6218 0.50923 0.98801 0.0
H632 H 0.41014 0.49497 0.92814 0.0
H633 H 0.5012 0.59269 0.94796 0.0
H634 H 0.41398 0.45642 0.99895 0.0
H635 H 0.48248 0.44226 0.98239 0.0
H636 H 0.41628 0.44463 0.9594 0.0
H637 H 0.51954 0.57722 0.02623 0.0
H638 H 0.54762 0.60317 0.9949 0.0
H639 H 0.58679 0.56411 0.00782 0.0
C640 C 0.99181 0.98603 0.94057 0.0
C641 C 0.04915 0.97192 0.93745 0.0
C642 C 0.97314 1.00147 0.96796 0.0
C643 C 0.01191 1.00144 0.99325 0.0
C644 C 0.06947 0.98639 0.99038 0.0
C645 C 0.08789 0.97252 0.96227 0.0
C646 C 0.91233 0.01839 0.96964 0.0
C647 C 0.11132 0.98455 0.01707 0.0
C648 C 0.98662 0.06612 0.05871 0.0
C649 C 0.95263 0.04533 0.07856 0.0
C650 C 0.00517 0.05247 0.03054 0.0
C651 C 0.99175 0.01666 0.02278 0.0
C652 C 0.95836 0.99542 0.04315 0.0
C653 C 0.93812 0.01027 0.07048 0.0
C654 C 0.03854 0.07646 0.00898 0.0
C655 C 0.94499 0.95677 0.03637 0.0
H656 H 0.96214 0.98608 0.9212 0.0
H657 H 0.13223 0.96157 0.95983 0.0
H658 H 0.88454 1.00424 0.98655 0.0
H659 H 0.91635 0.0465 0.97725 0.0
H660 H 0.88889 0.01792 0.94749 0.0
H661 H 0.15338 0.97051 0.01147 0.0
H662 H 0.12227 0.01183 0.02498 0.0
H663 H 0.08951 0.9705 0.03622 0.0
H664 H 0.99776 0.09325 0.06499 0.0
H665 H 0.91259 0.99401 0.08608 0.0
H666 H 0.01544 0.07727 0.98676 0.0
H667 H 0.08376 0.06574 1.00491 0.0
H668 H 0.04268 0.10412 0.01773 0.0
H669 H 0.91736 0.95468 0.01564 0.0
H670 H 0.92118 0.94341 0.05527 0.0
H671 H 0.98698 0.94215 0.03193 0.0
C672 C 0.20918 0.6781 0.38477 0.0
C673 C 0.16178 0.67997 0.36416 0.0
C674 C 0.24516 0.70818 0.39043 0.0
C675 C 0.23344 0.74062 0.37502 0.0
C676 C 0.1824 0.74332 0.35641 0.0
C677 C 0.14727 0.71308 0.3513 0.0
C678 C 0.29817 0.70443 0.41109 0.0
C679 C 0.16768 0.77731 0.33963 0.0
C680 C 0.3089 0.83066 0.38591 0.0
C681 C 0.34802 0.83096 0.36112 0.0
C682 C 0.27434 0.80024 0.3925 0.0
C683 C 0.2788 0.76967 0.37373 0.0
C684 C 0.32163 0.76901 0.35024 0.0
C685 C 0.35573 0.79947 0.34436 0.0
C686 C 0.23042 0.80171 0.41828 0.0
C687 C 0.32833 0.73706 0.32966 0.0
H688 H 0.22052 0.65271 0.39497 0.0
H689 H 0.10998 0.71499 0.33582 0.0
H690 H 0.33886 0.70073 0.39725 0.0
H691 H 0.30442 0.7288 0.42498 0.0
H692 H 0.29362 0.68107 0.42641 0.0
H693 H 0.12327 0.77617 0.32866 0.0
H694 H 0.16862 0.80044 0.35526 0.0
H695 H 0.20158 0.7821 0.32181 0.0
H696 H 0.30293 0.8547 0.39918 0.0
H697 H 0.38674 0.79906 0.32556 0.0
H698 H 0.22885 0.77591 0.43056 0.0
H699 H 0.18533 0.80694 0.40914 0.0
H700 H 0.2415 0.82326 0.4346 0.0
H701 H 0.33356 0.71234 0.34318 0.0
H702 H 0.36711 0.73959 0.31422 0.0
H703 H 0.28764 0.73401 0.31567 0.0
C704 C 0.8533 0.21521 0.16696 0.0
C705 C 0.84309 0.18275 0.15197 0.0
C706 C 0.8184 0.24534 0.16109 0.0
C707 C 0.77215 0.24332 0.13941 0.0
C708 C 0.76493 0.21166 0.12223 0.0
C709 C 0.80041 0.18161 0.12878 0.0
C710 C 0.82815 0.27848 0.17993 0.0
C711 C 0.71725 0.20869 0.09835 0.0
C712 C 0.64413 0.30123 0.16451 0.0
C713 C 0.65645 0.33353 0.1497 0.0
C714 C 0.67857 0.27073 0.15936 0.0
C715 C 0.72662 0.27229 0.13869 0.0
C716 C 0.73582 0.30377 0.1215 0.0
C717 C 0.70064 0.33415 0.12726 0.0
C718 C 0.6666 0.23778 0.1781 0.0
C719 C 0.78551 0.30626 0.09867 0.0
H720 H 0.88701 0.21669 0.18447 0.0
H721 H 0.79245 0.15679 0.11688 0.0
H722 H 0.83119 0.30235 0.16519 0.0
H723 H 0.78974 0.28239 0.19536 0.0
H724 H 0.8692 0.27684 0.19385 0.0
H725 H 0.72594 0.18621 0.08258 0.0
H726 H 0.6737 0.20402 0.10945 0.0
H727 H 0.7137 0.23374 0.08509 0.0
H728 H 0.60925 0.30023 0.18145 0.0
H729 H 0.71025 0.35889 0.11554 0.0
H730 H 0.70318 0.23401 0.19468 0.0
H731 H 0.66519 0.21375 0.16349 0.0
H732 H 0.62404 0.2396 0.19077 0.0
H733 H 0.82816 0.31075 0.11069 0.0
H734 H 0.77854 0.32869 0.08261 0.0
H735 H 0.78971 0.28109 0.08563 0.0
C736 C 0.64809 0.21301 0.6614 0.0
C737 C 0.66324 0.17982 0.64893 0.0
C738 C 0.68322 0.24328 0.65639 0.0
C739 C 0.73497 0.2405 0.6383 0.0
C740 C 0.74739 0.20794 0.62323 0.0
C741 C 0.71136 0.17785 0.62877 0.0
C742 C 0.66772 0.2774 0.67278 0.0
C743 C 0.8012 0.20408 0.60313 0.0
C744 C 0.811 0.33042 0.62762 0.0
C745 C 0.84925 0.33088 0.65276 0.0
C746 C 0.77657 0.29998 0.6209 0.0
C747 C 0.78024 0.26957 0.6399 0.0
C748 C 0.82214 0.26907 0.66383 0.0
C749 C 0.85617 0.29953 0.66982 0.0
C750 C 0.73366 0.30128 0.59467 0.0
C751 C 0.82796 0.23729 0.68469 0.0
H752 H 0.61028 0.21498 0.67654 0.0
H753 H 0.72322 0.15237 0.61888 0.0
H754 H 0.70081 0.28233 0.69096 0.0
H755 H 0.66933 0.30041 0.65703 0.0
H756 H 0.62284 0.27632 0.68324 0.0
H757 H 0.79734 0.18057 0.58794 0.0
H758 H 0.80788 0.22834 0.58913 0.0
H759 H 0.84136 0.20057 0.61741 0.0
H760 H 0.80564 0.35434 0.61411 0.0
H761 H 0.88651 0.29922 0.6889 0.0
H762 H 0.68823 0.3066 0.60333 0.0
H763 H 0.73253 0.27538 0.58253 0.0
H764 H 0.74541 0.32269 0.57834 0.0
H765 H 0.78666 0.23434 0.69823 0.0
H766 H 0.86604 0.23995 0.70055 0.0
H767 H 0.83379 0.21247 0.67138 0.0
C768 C 0.30238 0.68206 0.88477 0.0
C769 C 0.3445 0.68307 0.8613 0.0
C770 C 0.26703 0.71213 0.8914 0.0
C771 C 0.27376 0.74368 0.87402 0.0
C772 C 0.31944 0.74558 0.85202 0.0
C773 C 0.35426 0.71544 0.84609 0.0
C774 C 0.21998 0.70929 0.91562 0.0
C775 C 0.32866 0.77861 0.83296 0.0
C776 C 0.14523 0.80155 0.84955 0.0
C777 C 0.15804 0.83392 0.86411 0.0
C778 C 0.17969 0.77103 0.85462 0.0
C779 C 0.22828 0.77267 0.87495 0.0
C780 C 0.23802 0.80424 0.89193 0.0
C781 C 0.20278 0.83463 0.88627 0.0
C782 C 0.16714 0.73799 0.83611 0.0
C783 C 0.28833 0.80682 0.9144 0.0
H784 H 0.29479 0.65731 0.89686 0.0
H785 H 0.38754 0.71684 0.82836 0.0
H786 H 0.21681 0.73441 0.9288 0.0
H787 H 0.17613 0.70458 0.90484 0.0
H788 H 0.22907 0.68688 0.93142 0.0
H789 H 0.36929 0.77688 0.81872 0.0
H790 H 0.28979 0.78245 0.81781 0.0
H791 H 0.33215 0.80256 0.84756 0.0
H792 H 0.10994 0.80051 0.83284 0.0
H793 H 0.21278 0.85943 0.8978 0.0
H794 H 0.16615 0.71405 0.85084 0.0
H795 H 0.20322 0.73413 0.81927 0.0
H796 H 0.1242 0.73976 0.82377 0.0
H797 H 0.29284 0.78172 0.92752 0.0
H798 H 0.28184 0.82934 0.93041 0.0
H799 H 0.33066 0.81121 0.90207 0.0
loop_
_geom_bond_atom_site_label_1
_geom_bond_atom_site_label_2
_geom_bond_distance
_geom_bond_site_symmetry_2
_ccdc_geom_bond_type
Mn0 O5 2.095 . S
Mn0 O15 2.162 . S
Mn0 O16 2.297 . S
Mn0 O24 2.385 . S
Mn0 O25 2.209 . S
Mn0 O26 2.094 . S
Mn1 O6 2.121 . S
Mn1 N8 2.257 . S
Mn1 N17 2.282 . S
Mn1 O25 2.215 . S
Mn1 O27 2.117 . S
C2 O24 1.234 . S
C2 O25 1.283 . S
C3 O15 1.281 . S
C3 O16 1.236 . S
C4 O26 1.240 . S
C4 O27 1.264 . S
O5 Mn0 2.095 . S
O5 C14 1.250 . S
O6 Mn1 2.121 . S
O6 C14 1.258 . S
C7 N8 1.326 . S
C7 C11 1.460 . S
C7 H13 0.929 . S
N8 Mn1 2.257 . S
N8 C7 1.326 . S
N8 C12 1.362 . S
C9 C10 1.258 1_455 S
C9 C12 1.431 . S
C9 C29 1.449 1_455 S
C10 C9 1.258 1_655 S
C10 C11 1.477 1_655 S
C10 H30 0.931 . S
C11 C7 1.460 . S
C11 C10 1.477 1_455 S
C11 H31 0.935 . S
C12 N8 1.362 . S
C12 C9 1.431 . S
C12 C22 1.476 . S
H13 C7 0.929 . S
C14 O5 1.250 . S
C14 O6 1.258 . S
O15 Mn0 2.162 . S
O15 C3 1.281 . S
O16 Mn0 2.297 . S
O16 C3 1.236 . S
N17 Mn1 2.282 . S
N17 C18 1.328 . S
N17 C22 1.318 . S
C18 N17 1.328 . S
C18 C19 1.457 . S
C18 H23 0.929 . S
C19 C18 1.457 . S
C19 C20 1.291 . S
C19 H32 0.931 . S
C20 C19 1.291 . S
C20 C21 1.373 . S
C20 H33 0.929 . S
C21 C20 1.373 . S
C21 C22 1.396 . S
C21 C28 1.404 . S
C22 C12 1.476 . S
C22 N17 1.318 . S
C22 C21 1.396 . S
H23 C18 0.929 . S
O24 Mn0 2.385 . S
O24 C2 1.234 . S
O25 Mn0 2.209 . S
O25 Mn1 2.215 . S
O25 C2 1.283 . S
O26 Mn0 2.094 . S
O26 C4 1.240 . S
O27 Mn1 2.117 . S
O27 C4 1.264 . S
C28 C21 1.404 . S
C28 C29 1.399 1_455 S
C28 H34 0.928 1_455 S
C29 C9 1.449 1_655 S
C29 C28 1.399 1_655 S
C29 H35 0.930 . S
H30 C10 0.931 . S
H31 C11 0.935 . S
H32 C19 0.931 . S
H33 C20 0.929 . S
H34 C28 0.928 1_655 S
H35 C29 0.930 . S
Mn36 O41 2.095 . S
Mn36 O51 2.162 . S
Mn36 O52 2.297 . S
Mn36 O60 2.385 . S
Mn36 O61 2.209 . S
Mn36 O62 2.094 . S
Mn37 O42 2.121 . S
Mn37 N44 2.257 . S
Mn37 N53 2.282 . S
Mn37 O61 2.215 . S
Mn37 O63 2.117 . S
C38 O60 1.234 . S
C38 O61 1.283 . S
C39 O51 1.281 . S
C39 O52 1.236 . S
C40 O62 1.240 . S
C40 O63 1.264 . S
O41 Mn36 2.095 . S
O41 C50 1.250 . S
O42 Mn37 2.121 . S
O42 C50 1.258 . S
C43 N44 1.326 . S
C43 C47 1.460 . S
C43 H49 0.929 . S
N44 Mn37 2.257 . S
N44 C43 1.326 . S
N44 C48 1.362 . S
C45 C46 1.258 . S
C45 C48 1.431 . S
C45 C65 1.449 . S
C46 C45 1.258 . S
C46 C47 1.477 . S
C46 H66 0.931 . S
C47 C43 1.460 . S
C47 C46 1.477 . S
C47 H67 0.930 . S
C48 N44 1.362 . S
C48 C45 1.431 . S
C48 C58 1.476 . S
H49 C43 0.929 . S
C50 O41 1.250 . S
C50 O42 1.258 . S
O51 Mn36 2.162 . S
O51 C39 1.281 . S
O52 Mn36 2.297 . S
O52 C39 1.236 . S
N53 Mn37 2.282 . S
N53 C54 1.328 . S
N53 C58 1.318 . S
C54 N53 1.328 . S
C54 C55 1.457 . S
C54 H59 0.929 . S
C55 C54 1.457 . S
C55 C56 1.291 . S
C55 H68 0.931 1_565 S
C56 C55 1.291 . S
C56 C57 1.373 . S
C56 H69 0.929 . S
C57 C56 1.373 . S
C57 C58 1.396 . S
C57 C64 1.403 . S
C58 C48 1.476 . S
C58 N53 1.318 . S
C58 C57 1.396 . S
H59 C54 0.929 . S
O60 Mn36 2.385 . S
O60 C38 1.234 . S
O61 Mn36 2.209 . S
O61 Mn37 2.215 . S
O61 C38 1.283 . S
O62 Mn36 2.094 . S
O62 C40 1.240 . S
O63 Mn37 2.117 . S
O63 C40 1.264 . S
C64 C57 1.403 . S
C64 C65 1.399 . S
C64 H70 0.929 . S
C65 C45 1.449 . S
C65 C64 1.399 . S
C65 H71 0.930 . S
H66 C46 0.931 . S
H67 C47 0.930 . S
H68 C55 0.931 1_545 S
H69 C56 0.929 . S
H70 C64 0.929 . S
H71 C65 0.930 . S
Mn72 O77 2.095 . S
Mn72 O87 2.162 . S
Mn72 O88 2.297 . S
Mn72 O96 2.385 . S
Mn72 O97 2.209 . S
Mn72 O98 2.094 . S
Mn73 O78 2.121 . S
Mn73 N80 2.257 . S
Mn73 N89 2.282 . S
Mn73 O97 2.215 . S
Mn73 O99 2.117 . S
C74 O96 1.234 . S
C74 O97 1.283 . S
C75 O87 1.281 . S
C75 O88 1.236 . S
C76 O98 1.240 . S
C76 O99 1.264 . S
O77 Mn72 2.095 . S
O77 C86 1.250 . S
O78 Mn73 2.121 . S
O78 C86 1.258 . S
C79 N80 1.326 . S
C79 C83 1.460 . S
C79 H85 0.929 . S
N80 Mn73 2.257 . S
N80 C79 1.326 . S
N80 C84 1.362 . S
C81 C82 1.258 . S
C81 C84 1.431 . S
C81 C101 1.449 . S
C82 C81 1.258 . S
C82 C83 1.477 . S
C82 H102 0.931 . S
C83 C79 1.460 . S
C83 C82 1.477 . S
C83 H103 0.930 . S
C84 N80 1.362 . S
C84 C81 1.431 . S
C84 C94 1.476 . S
H85 C79 0.929 . S
C86 O77 1.250 . S
C86 O78 1.258 . S
O87 Mn72 2.162 . S
O87 C75 1.281 . S
O88 Mn72 2.297 . S
O88 C75 1.236 . S
N89 Mn73 2.282 . S
N89 C90 1.328 . S
N89 C94 1.318 . S
C90 N89 1.328 . S
C90 C91 1.457 . S
C90 H95 0.929 . S
C91 C90 1.457 . S
C91 C92 1.291 . S
C91 H104 0.931 . S
C92 C91 1.291 . S
C92 C93 1.373 . S
C92 H105 0.929 . S
C93 C92 1.373 . S
C93 C94 1.396 . S
C93 C100 1.403 . S
C94 C84 1.476 . S
C94 N89 1.318 . S
C94 C93 1.396 . S
H95 C90 0.929 . S
O96 Mn72 2.385 . S
O96 C74 1.234 . S
O97 Mn72 2.209 . S
O97 Mn73 2.215 . S
O97 C74 1.283 . S
O98 Mn72 2.094 . S
O98 C76 1.240 . S
O99 Mn73 2.117 . S
O99 C76 1.264 . S
C100 C93 1.403 . S
C100 C101 1.399 . S
C100 H106 0.929 . S
C101 C81 1.449 . S
C101 C100 1.399 . S
C101 H107 0.930 . S
H102 C82 0.931 . S
H103 C83 0.930 . S
H104 C91 0.931 . S
H105 C92 0.929 . S
H106 C100 0.929 . S
H107 C101 0.930 . S
Mn108 O113 2.095 . S
Mn108 O123 2.162 . S
Mn108 O124 2.297 . S
Mn108 O132 2.385 . S
Mn108 O133 2.209 . S
Mn108 O134 2.094 . S
Mn109 O114 2.121 . S
Mn109 N116 2.257 . S
Mn109 N125 2.282 . S
Mn109 O133 2.215 . S
Mn109 O135 2.117 . S
C110 O132 1.234 . S
C110 O133 1.283 . S
C111 O123 1.281 . S
C111 O124 1.236 . S
C112 O134 1.240 . S
C112 O135 1.264 . S
O113 Mn108 2.095 . S
O113 C122 1.250 . S
O114 Mn109 2.121 . S
O114 C122 1.258 . S
C115 N116 1.326 . S
C115 C119 1.460 . S
C115 H121 0.929 . S
N116 Mn109 2.257 . S
N116 C115 1.326 . S
N116 C120 1.362 . S
C117 C118 1.258 1_655 S
C117 C120 1.431 . S
C117 C137 1.449 1_655 S
C118 C117 1.258 1_455 S
C118 C119 1.477 1_455 S
C118 H138 0.931 . S
C119 C115 1.460 . S
C119 C118 1.477 1_655 S
C119 H139 0.935 . S
C120 N116 1.362 . S
C120 C117 1.431 . S
C120 C130 1.476 . S
H121 C115 0.929 . S
C122 O113 1.250 . S
C122 O114 1.258 . S
O123 Mn108 2.162 . S
O123 C111 1.281 . S
O124 Mn108 2.297 . S
O124 C111 1.236 . S
N125 Mn109 2.282 . S
N125 C126 1.328 . S
N125 C130 1.318 . S
C126 N125 1.328 . S
C126 C127 1.457 . S
C126 H131 0.929 . S
C127 C126 1.457 . S
C127 C128 1.291 . S
C127 H140 0.931 1_545 S
C128 C127 1.291 . S
C128 C129 1.373 . S
C128 H141 0.929 . S
C129 C128 1.373 . S
C129 C130 1.396 . S
C129 C136 1.404 . S
C130 C120 1.476 . S
C130 N125 1.318 . S
C130 C129 1.396 . S
H131 C126 0.929 . S
O132 Mn108 2.385 . S
O132 C110 1.234 . S
O133 Mn108 2.209 . S
O133 Mn109 2.215 . S
O133 C110 1.283 . S
O134 Mn108 2.094 . S
O134 C112 1.240 . S
O135 Mn109 2.117 . S
O135 C112 1.264 . S
C136 C129 1.404 . S
C136 C137 1.399 1_655 S
C136 H142 0.928 1_655 S
C137 C117 1.449 1_455 S
C137 C136 1.399 1_455 S
C137 H143 0.930 . S
H138 C118 0.931 . S
H139 C119 0.935 . S
H140 C127 0.931 1_565 S
H141 C128 0.929 . S
H142 C136 0.928 1_455 S
H143 C137 0.930 . S
Mn144 O149 2.095 . S
Mn144 O159 2.162 . S
Mn144 O160 2.297 . S
Mn144 O168 2.385 . S
Mn144 O169 2.209 . S
Mn144 O170 2.094 . S
Mn145 O150 2.121 . S
Mn145 N152 2.257 . S
Mn145 N161 2.282 . S
Mn145 O169 2.215 . S
Mn145 O171 2.117 . S
C146 O168 1.234 . S
C146 O169 1.283 . S
C147 O159 1.281 . S
C147 O160 1.236 . S
C148 O170 1.240 . S
C148 O171 1.264 . S
O149 Mn144 2.095 . S
O149 C158 1.250 . S
O150 Mn145 2.121 . S
O150 C158 1.258 . S
C151 N152 1.326 . S
C151 C155 1.460 . S
C151 H157 0.929 . S
N152 Mn145 2.257 . S
N152 C151 1.326 . S
N152 C156 1.362 . S
C153 C154 1.258 1_655 S
C153 C156 1.431 . S
C153 C173 1.449 1_655 S
C154 C153 1.258 1_455 S
C154 C155 1.477 1_455 S
C154 H174 0.931 . S
C155 C151 1.460 . S
C155 C154 1.477 1_655 S
C155 H175 0.935 . S
C156 N152 1.362 . S
C156 C153 1.431 . S
C156 C166 1.476 . S
H157 C151 0.929 . S
C158 O149 1.250 . S
C158 O150 1.258 . S
O159 Mn144 2.162 . S
O159 C147 1.281 . S
O160 Mn144 2.297 . S
O160 C147 1.236 . S
N161 Mn145 2.282 . S
N161 C162 1.328 . S
N161 C166 1.318 . S
C162 N161 1.328 . S
C162 C163 1.457 . S
C162 H167 0.929 . S
C163 C162 1.457 . S
C163 C164 1.291 . S
C163 H176 0.931 . S
C164 C163 1.291 . S
C164 C165 1.373 . S
C164 H177 0.929 . S
C165 C164 1.373 . S
C165 C166 1.396 . S
C165 C172 1.404 . S
C166 C156 1.476 . S
C166 N161 1.318 . S
C166 C165 1.396 . S
H167 C162 0.929 . S
O168 Mn144 2.385 . S
O168 C146 1.234 . S
O169 Mn144 2.209 . S
O169 Mn145 2.215 . S
O169 C146 1.283 . S
O170 Mn144 2.094 . S
O170 C148 1.240 . S
O171 Mn145 2.117 . S
O171 C148 1.264 . S
C172 C165 1.404 . S
C172 C173 1.399 1_655 S
C172 H178 0.928 1_655 S
C173 C153 1.449 1_455 S
C173 C172 1.399 1_455 S
C173 H179 0.930 . S
H174 C154 0.931 . S
H175 C155 0.935 . S
H176 C163 0.931 . S
H177 C164 0.929 . S
H178 C172 0.928 1_455 S
H179 C173 0.930 . S
Mn180 O185 2.095 . S
Mn180 O195 2.162 . S
Mn180 O196 2.297 . S
Mn180 O204 2.385 . S
Mn180 O205 2.209 . S
Mn180 O206 2.094 . S
Mn181 O186 2.121 . S
Mn181 N188 2.257 . S
Mn181 N197 2.282 . S
Mn181 O205 2.215 . S
Mn181 O207 2.117 . S
C182 O204 1.234 . S
C182 O205 1.283 . S
C183 O195 1.281 . S
C183 O196 1.236 . S
C184 O206 1.240 . S
C184 O207 1.264 . S
O185 Mn180 2.095 . S
O185 C194 1.250 . S
O186 Mn181 2.121 . S
O186 C194 1.258 . S
C187 N188 1.326 . S
C187 C191 1.460 . S
C187 H193 0.929 . S
N188 Mn181 2.257 . S
N188 C187 1.326 . S
N188 C192 1.362 . S
C189 C190 1.258 . S
C189 C192 1.431 . S
C189 C209 1.449 . S
C190 C189 1.258 . S
C190 C191 1.477 . S
C190 H210 0.931 . S
C191 C187 1.460 . S
C191 C190 1.477 . S
C191 H211 0.930 . S
C192 N188 1.362 . S
C192 C189 1.431 . S
C192 C202 1.476 . S
H193 C187 0.929 . S
C194 O185 1.250 . S
C194 O186 1.258 . S
O195 Mn180 2.162 . S
O195 C183 1.281 . S
O196 Mn180 2.297 . S
O196 C183 1.236 . S
N197 Mn181 2.282 . S
N197 C198 1.328 . S
N197 C202 1.318 . S
C198 N197 1.328 . S
C198 C199 1.457 . S
C198 H203 0.929 . S
C199 C198 1.457 . S
C199 C200 1.291 . S
C199 H212 0.931 1_545 S
C200 C199 1.291 . S
C200 C201 1.373 . S
C200 H213 0.929 . S
C201 C200 1.373 . S
C201 C202 1.396 . S
C201 C208 1.403 . S
C202 C192 1.476 . S
C202 N197 1.318 . S
C202 C201 1.396 . S
H203 C198 0.929 . S
O204 Mn180 2.385 . S
O204 C182 1.234 . S
O205 Mn180 2.209 . S
O205 Mn181 2.215 . S
O205 C182 1.283 . S
O206 Mn180 2.094 . S
O206 C184 1.240 . S
O207 Mn181 2.117 . S
O207 C184 1.264 . S
C208 C201 1.403 . S
C208 C209 1.399 . S
C208 H214 0.929 . S
C209 C189 1.449 . S
C209 C208 1.399 . S
C209 H215 0.930 . S
H210 C190 0.931 . S
H211 C191 0.930 . S
H212 C199 0.931 1_565 S
H213 C200 0.929 . S
H214 C208 0.929 . S
H215 C209 0.930 . S
Mn216 O221 2.095 . S
Mn216 O231 2.162 . S
Mn216 O232 2.297 . S
Mn216 O240 2.385 . S
Mn216 O241 2.209 . S
Mn216 O242 2.094 . S
Mn217 O222 2.121 . S
Mn217 N224 2.257 . S
Mn217 N233 2.282 . S
Mn217 O241 2.215 . S
Mn217 O243 2.117 . S
C218 O240 1.234 . S
C218 O241 1.283 . S
C219 O231 1.281 . S
C219 O232 1.236 . S
C220 O242 1.240 . S
C220 O243 1.264 . S
O221 Mn216 2.095 . S
O221 C230 1.250 . S
O222 Mn217 2.121 . S
O222 C230 1.258 . S
C223 N224 1.326 . S
C223 C227 1.460 . S
C223 H229 0.929 . S
N224 Mn217 2.257 . S
N224 C223 1.326 . S
N224 C228 1.362 . S
C225 C226 1.258 . S
C225 C228 1.431 . S
C225 C245 1.449 . S
C226 C225 1.258 . S
C226 C227 1.477 . S
C226 H246 0.931 . S
C227 C223 1.460 . S
C227 C226 1.477 . S
C227 H247 0.930 . S
C228 N224 1.362 . S
C228 C225 1.431 . S
C228 C238 1.476 . S
H229 C223 0.929 . S
C230 O221 1.250 . S
C230 O222 1.258 . S
O231 Mn216 2.162 . S
O231 C219 1.281 . S
O232 Mn216 2.297 . S
O232 C219 1.236 . S
N233 Mn217 2.282 . S
N233 C234 1.328 . S
N233 C238 1.318 . S
C234 N233 1.328 . S
C234 C235 1.457 . S
C234 H239 0.929 . S
C235 C234 1.457 . S
C235 C236 1.291 . S
C235 H248 0.931 . S
C236 C235 1.291 . S
C236 C237 1.373 . S
C236 H249 0.929 . S
C237 C236 1.373 . S
C237 C238 1.396 . S
C237 C244 1.403 . S
C238 C228 1.476 . S
C238 N233 1.318 . S
C238 C237 1.396 . S
H239 C234 0.929 . S
O240 Mn216 2.385 . S
O240 C218 1.234 . S
O241 Mn216 2.209 . S
O241 Mn217 2.215 . S
O241 C218 1.283 . S
O242 Mn216 2.094 . S
O242 C220 1.240 . S
O243 Mn217 2.117 . S
O243 C220 1.264 . S
C244 C237 1.403 . S
C244 C245 1.399 . S
C244 H250 0.929 . S
C245 C225 1.449 . S
C245 C244 1.399 . S
C245 H251 0.930 . S
H246 C226 0.931 . S
H247 C227 0.930 . S
H248 C235 0.931 . S
H249 C236 0.929 . S
H250 C244 0.929 . S
H251 C245 0.930 . S
Mn252 O257 2.095 . S
Mn252 O267 2.162 . S
Mn252 O268 2.297 . S
Mn252 O276 2.385 . S
Mn252 O277 2.209 . S
Mn252 O278 2.094 . S
Mn253 O258 2.121 . S
Mn253 N260 2.257 . S
Mn253 N269 2.282 . S
Mn253 O277 2.215 . S
Mn253 O279 2.117 . S
C254 O276 1.234 . S
C254 O277 1.283 . S
C255 O267 1.281 . S
C255 O268 1.236 . S
C256 O278 1.240 . S
C256 O279 1.264 . S
O257 Mn252 2.095 . S
O257 C266 1.250 . S
O258 Mn253 2.121 . S
O258 C266 1.258 . S
C259 N260 1.326 . S
C259 C263 1.460 . S
C259 H265 0.929 . S
N260 Mn253 2.257 . S
N260 C259 1.326 . S
N260 C264 1.362 . S
C261 C262 1.258 1_455 S
C261 C264 1.431 . S
C261 C281 1.449 1_455 S
C262 C261 1.258 1_655 S
C262 C263 1.477 1_655 S
C262 H282 0.931 . S
C263 C259 1.460 . S
C263 C262 1.477 1_455 S
C263 H283 0.935 . S
C264 N260 1.362 . S
C264 C261 1.431 . S
C264 C274 1.476 . S
H265 C259 0.929 . S
C266 O257 1.250 . S
C266 O258 1.258 . S
O267 Mn252 2.162 . S
O267 C255 1.281 . S
O268 Mn252 2.297 . S
O268 C255 1.236 . S
N269 Mn253 2.282 . S
N269 C270 1.328 . S
N269 C274 1.318 . S
C270 N269 1.328 . S
C270 C271 1.457 . S
C270 H275 0.929 . S
C271 C270 1.457 . S
C271 C272 1.291 . S
C271 H284 0.931 1_565 S
C272 C271 1.291 . S
C272 C273 1.373 . S
C272 H285 0.929 . S
C273 C272 1.373 . S
C273 C274 1.396 . S
C273 C280 1.404 . S
C274 C264 1.476 . S
C274 N269 1.318 . S
C274 C273 1.396 . S
H275 C270 0.929 . S
O276 Mn252 2.385 . S
O276 C254 1.234 . S
O277 Mn252 2.209 . S
O277 Mn253 2.215 . S
O277 C254 1.283 . S
O278 Mn252 2.094 . S
O278 C256 1.240 . S
O279 Mn253 2.117 . S
O279 C256 1.264 . S
C280 C273 1.404 . S
C280 C281 1.399 1_455 S
C280 H286 0.928 1_455 S
C281 C261 1.449 1_655 S
C281 C280 1.399 1_655 S
C281 H287 0.930 . S
H282 C262 0.931 . S
H283 C263 0.935 . S
H284 C271 0.931 1_545 S
H285 C272 0.929 . S
H286 C280 0.928 1_655 S
H287 C281 0.930 . S
C288 C289 1.391 . S
C288 C290 1.394 . S
C288 H304 0.931 . S
C289 C288 1.391 . S
C289 C293 1.376 . S
C290 C288 1.394 . S
C290 C291 1.369 . S
C290 C294 1.531 . S
C291 C290 1.369 . S
C291 C292 1.410 . S
C291 C299 1.503 . S
C292 C291 1.410 . S
C292 C293 1.392 . S
C292 C295 1.511 . S
C293 C289 1.376 . S
C293 C292 1.392 . S
C293 H305 0.929 . S
C294 C290 1.531 . S
C294 H306 0.960 . S
C294 H307 0.962 . S
C294 H308 0.960 . S
C295 C292 1.511 . S
C295 H309 0.961 . S
C295 H310 0.961 . S
C295 H311 0.961 . S
C296 C297 1.370 . S
C296 C298 1.363 . S
C296 H312 0.931 . S
C297 C296 1.370 . S
C297 C301 1.408 . S
C298 C296 1.363 . S
C298 C299 1.370 . S
C298 C302 1.524 . S
C299 C291 1.503 . S
C299 C298 1.370 . S
C299 C300 1.403 . S
C300 C299 1.403 . S
C300 C301 1.404 . S
C300 C303 1.539 . S
C301 C297 1.408 . S
C301 C300 1.404 . S
C301 H313 0.930 . S
C302 C298 1.524 . S
C302 H314 0.956 . S
C302 H315 0.961 . S
C302 H316 0.961 . S
C303 C300 1.539 . S
C303 H317 0.958 . S
C303 H318 0.961 . S
C303 H319 0.960 . S
H304 C288 0.931 . S
H305 C293 0.929 . S
H306 C294 0.960 . S
H307 C294 0.962 . S
H308 C294 0.960 . S
H309 C295 0.961 . S
H310 C295 0.961 . S
H311 C295 0.961 . S
H312 C296 0.931 . S
H313 C301 0.930 . S
H314 C302 0.956 . S
H315 C302 0.961 . S
H316 C302 0.961 . S
H317 C303 0.958 . S
H318 C303 0.961 . S
H319 C303 0.960 . S
C320 C321 1.391 1_455 S
C320 C322 1.394 . S
C320 H336 0.931 . S
C321 C320 1.391 1_655 S
C321 C325 1.376 . S
C322 C320 1.394 . S
C322 C323 1.369 . S
C322 C326 1.531 . S
C323 C322 1.369 . S
C323 C324 1.410 1_545 S
C323 C331 1.503 . S
C324 C323 1.410 1_565 S
C324 C325 1.392 1_465 S
C324 C327 1.511 . S
C325 C321 1.376 . S
C325 C324 1.392 1_645 S
C325 H337 0.929 1_545 S
C326 C322 1.531 . S
C326 H338 0.960 . S
C326 H339 0.962 . S
C326 H340 0.960 . S
C327 C324 1.511 . S
C327 H341 0.961 1_455 S
C327 H342 0.961 . S
C327 H343 0.961 1_455 S
C328 C329 1.370 . S
C328 C330 1.363 . S
C328 H344 0.931 . S
C329 C328 1.370 . S
C329 C333 1.408 1_565 S
C330 C328 1.363 . S
C330 C331 1.370 1_565 S
C330 C334 1.524 . S
C331 C323 1.503 . S
C331 C330 1.370 1_545 S
C331 C332 1.403 . S
C332 C331 1.403 . S
C332 C333 1.404 . S
C332 C335 1.539 . S
C333 C329 1.408 1_545 S
C333 C332 1.404 . S
C333 H345 0.930 . S
C334 C330 1.524 . S
C334 H346 0.956 . S
C334 H347 0.961 . S
C334 H348 0.961 . S
C335 C332 1.539 . S
C335 H349 0.958 . S
C335 H350 0.961 . S
C335 H351 0.960 . S
H336 C320 0.931 . S
H337 C325 0.929 1_565 S
H338 C326 0.960 . S
H339 C326 0.962 . S
H340 C326 0.960 . S
H341 C327 0.961 1_655 S
H342 C327 0.961 . S
H343 C327 0.961 1_655 S
H344 C328 0.931 . S
H345 C333 0.930 . S
H346 C334 0.956 . S
H347 C334 0.961 . S
H348 C334 0.961 . S
H349 C335 0.958 . S
H350 C335 0.961 . S
H351 C335 0.960 . S
C352 C353 1.391 . S
C352 C354 1.394 . S
C352 H368 0.931 . S
C353 C352 1.391 . S
C353 C357 1.376 . S
C354 C352 1.394 . S
C354 C355 1.369 . S
C354 C358 1.531 . S
C355 C354 1.369 . S
C355 C356 1.410 . S
C355 C363 1.503 . S
C356 C355 1.410 . S
C356 C357 1.392 . S
C356 C359 1.511 . S
C357 C353 1.376 . S
C357 C356 1.392 . S
C357 H369 0.929 . S
C358 C354 1.531 . S
C358 H370 0.960 . S
C358 H371 0.962 . S
C358 H372 0.960 . S
C359 C356 1.511 . S
C359 H373 0.961 . S
C359 H374 0.961 . S
C359 H375 0.961 . S
C360 C361 1.370 . S
C360 C362 1.363 1_455 S
C360 H376 0.931 . S
C361 C360 1.370 . S
C361 C365 1.408 1_455 S
C362 C360 1.363 1_655 S
C362 C363 1.370 . S
C362 C366 1.524 . S
C363 C355 1.503 . S
C363 C362 1.370 . S
C363 C364 1.403 . S
C364 C363 1.403 . S
C364 C365 1.404 . S
C364 C367 1.539 . S
C365 C361 1.408 1_655 S
C365 C364 1.404 . S
C365 H377 0.930 . S
C366 C362 1.524 . S
C366 H378 0.956 . S
C366 H379 0.961 . S
C366 H380 0.961 . S
C367 C364 1.539 . S
C367 H381 0.958 . S
C367 H382 0.961 . S
C367 H383 0.960 . S
H368 C352 0.931 . S
H369 C357 0.929 . S
H370 C358 0.960 . S
H371 C358 0.962 . S
H372 C358 0.960 . S
H373 C359 0.961 . S
H374 C359 0.961 . S
H375 C359 0.961 . S
H376 C360 0.931 . S
H377 C365 0.930 . S
H378 C366 0.956 . S
H379 C366 0.961 . S
H380 C366 0.961 . S
H381 C367 0.958 . S
H382 C367 0.961 . S
H383 C367 0.960 . S
C384 C385 1.391 1_565 S
C384 C386 1.394 . S
C384 H400 0.931 . S
C385 C384 1.391 1_545 S
C385 C389 1.376 . S
C386 C384 1.394 . S
C386 C387 1.369 1_565 S
C386 C390 1.531 . S
C387 C386 1.369 1_545 S
C387 C388 1.410 . S
C387 C395 1.503 1_545 S
C388 C387 1.410 . S
C388 C389 1.392 . S
C388 C391 1.511 . S
C389 C385 1.376 . S
C389 C388 1.392 . S
C389 H401 0.929 . S
C390 C386 1.531 . S
C390 H402 0.960 . S
C390 H403 0.962 . S
C390 H404 0.960 . S
C391 C388 1.511 . S
C391 H405 0.961 . S
C391 H406 0.961 . S
C391 H407 0.961 . S
C392 C393 1.370 . S
C392 C394 1.363 . S
C392 H408 0.931 . S
C393 C392 1.370 . S
C393 C397 1.408 . S
C394 C392 1.363 . S
C394 C395 1.370 . S
C394 C398 1.524 . S
C395 C387 1.503 1_565 S
C395 C394 1.370 . S
C395 C396 1.403 1_565 S
C396 C395 1.403 1_545 S
C396 C397 1.404 1_545 S
C396 C399 1.539 . S
C397 C393 1.408 . S
C397 C396 1.404 1_565 S
C397 H409 0.930 1_565 S
C398 C394 1.524 . S
C398 H410 0.956 . S
C398 H411 0.961 . S
C398 H412 0.961 . S
C399 C396 1.539 . S
C399 H413 0.958 . S
C399 H414 0.961 . S
C399 H415 0.960 . S
H400 C384 0.931 . S
H401 C389 0.929 . S
H402 C390 0.960 . S
H403 C390 0.962 . S
H404 C390 0.960 . S
H405 C391 0.961 . S
H406 C391 0.961 . S
H407 C391 0.961 . S
H408 C392 0.931 . S
H409 C397 0.930 1_545 S
H410 C398 0.956 . S
H411 C398 0.961 . S
H412 C398 0.961 . S
H413 C399 0.958 . S
H414 C399 0.961 . S
H415 C399 0.960 . S
C416 C417 1.391 . S
C416 C418 1.394 . S
C416 H432 0.931 . S
C417 C416 1.391 . S
C417 C421 1.376 . S
C418 C416 1.394 . S
C418 C419 1.369 . S
C418 C422 1.531 . S
C419 C418 1.369 . S
C419 C420 1.410 . S
C419 C427 1.503 . S
C420 C419 1.410 . S
C420 C421 1.392 . S
C420 C423 1.511 . S
C421 C417 1.376 . S
C421 C420 1.392 . S
C421 H433 0.929 . S
C422 C418 1.531 . S
C422 H434 0.960 . S
C422 H435 0.962 . S
C422 H436 0.960 . S
C423 C420 1.511 . S
C423 H437 0.961 . S
C423 H438 0.961 . S
C423 H439 0.961 . S
C424 C425 1.370 . S
C424 C426 1.363 . S
C424 H440 0.931 . S
C425 C424 1.370 . S
C425 C429 1.408 . S
C426 C424 1.363 . S
C426 C427 1.370 . S
C426 C430 1.524 . S
C427 C419 1.503 . S
C427 C426 1.370 . S
C427 C428 1.403 . S
C428 C427 1.403 . S
C428 C429 1.404 . S
C428 C431 1.539 . S
C429 C425 1.408 . S
C429 C428 1.404 . S
C429 H441 0.930 . S
C430 C426 1.524 . S
C430 H442 0.956 . S
C430 H443 0.961 . S
C430 H444 0.961 . S
C431 C428 1.539 . S
C431 H445 0.958 . S
C431 H446 0.961 . S
C431 H447 0.960 . S
H432 C416 0.931 . S
H433 C421 0.929 . S
H434 C422 0.960 . S
H435 C422 0.962 . S
H436 C422 0.960 . S
H437 C423 0.961 . S
H438 C423 0.961 . S
H439 C423 0.961 . S
H440 C424 0.931 . S
H441 C429 0.930 . S
H442 C430 0.956 . S
H443 C430 0.961 . S
H444 C430 0.961 . S
H445 C431 0.958 . S
H446 C431 0.961 . S
H447 C431 0.960 . S
C448 C449 1.391 1_565 S
C448 C450 1.394 . S
C448 H464 0.931 . S
C449 C448 1.391 1_545 S
C449 C453 1.376 . S
C450 C448 1.394 . S
C450 C451 1.369 . S
C450 C454 1.531 . S
C451 C450 1.369 . S
C451 C452 1.410 1_565 S
C451 C459 1.503 . S
C452 C451 1.410 1_545 S
C452 C453 1.392 . S
C452 C455 1.511 . S
C453 C449 1.376 . S
C453 C452 1.392 . S
C453 H465 0.929 . S
C454 C450 1.531 . S
C454 H466 0.960 . S
C454 H467 0.962 . S
C454 H468 0.960 . S
C455 C452 1.511 . S
C455 H469 0.961 . S
C455 H470 0.961 . S
C455 H471 0.961 . S
C456 C457 1.370 1_655 S
C456 C458 1.362 . S
C456 H472 0.930 . S
C457 C456 1.370 1_455 S
C457 C461 1.408 . S
C458 C456 1.362 . S
C458 C459 1.369 . S
C458 C462 1.527 1_565 S
C459 C451 1.503 . S
C459 C458 1.369 . S
C459 C460 1.403 . S
C460 C459 1.403 . S
C460 C461 1.404 1_655 S
C460 C463 1.539 . S
C461 C457 1.408 . S
C461 C460 1.404 1_455 S
C461 H473 0.930 . S
C462 C458 1.527 1_545 S
C462 H474 0.956 . S
C462 H475 0.961 . S
C462 H476 0.961 . S
C463 C460 1.539 . S
C463 H477 0.958 . S
C463 H478 0.961 1_655 S
C463 H479 0.960 . S
H464 C448 0.931 . S
H465 C453 0.929 . S
H466 C454 0.960 . S
H467 C454 0.962 . S
H468 C454 0.960 . S
H469 C455 0.961 . S
H470 C455 0.961 . S
H471 C455 0.961 . S
H472 C456 0.930 . S
H473 C461 0.930 . S
H474 C462 0.956 . S
H475 C462 0.961 . S
H476 C462 0.961 . S
H477 C463 0.958 . S
H478 C463 0.961 1_455 S
H479 C463 0.960 . S
C480 C481 1.391 . S
C480 C482 1.394 . S
C480 H496 0.931 . S
C481 C480 1.391 . S
C481 C485 1.376 . S
C482 C480 1.394 . S
C482 C483 1.369 . S
C482 C486 1.531 . S
C483 C482 1.369 . S
C483 C484 1.410 . S
C483 C491 1.503 . S
C484 C483 1.410 . S
C484 C485 1.392 . S
C484 C487 1.511 . S
C485 C481 1.376 . S
C485 C484 1.392 . S
C485 H497 0.929 . S
C486 C482 1.531 . S
C486 H498 0.960 . S
C486 H499 0.962 . S
C486 H500 0.960 . S
C487 C484 1.511 . S
C487 H501 0.961 . S
C487 H502 0.961 . S
C487 H503 0.961 . S
C488 C489 1.370 1_455 S
C488 C490 1.363 . S
C488 H504 0.931 . S
C489 C488 1.370 1_655 S
C489 C493 1.408 . S
C490 C488 1.363 . S
C490 C491 1.370 . S
C490 C494 1.524 . S
C491 C483 1.503 . S
C491 C490 1.370 . S
C491 C492 1.403 . S
C492 C491 1.403 . S
C492 C493 1.404 1_455 S
C492 C495 1.539 . S
C493 C489 1.408 . S
C493 C492 1.404 1_655 S
C493 H505 0.930 . S
C494 C490 1.524 . S
C494 H506 0.956 . S
C494 H507 0.961 . S
C494 H508 0.961 . S
C495 C492 1.539 . S
C495 H509 0.958 1_455 S
C495 H510 0.961 . S
C495 H511 0.960 . S
H496 C480 0.931 . S
H497 C485 0.929 . S
H498 C486 0.960 . S
H499 C486 0.962 . S
H500 C486 0.960 . S
H501 C487 0.961 . S
H502 C487 0.961 . S
H503 C487 0.961 . S
H504 C488 0.931 . S
H505 C493 0.930 . S
H506 C494 0.956 . S
H507 C494 0.961 . S
H508 C494 0.961 . S
H509 C495 0.958 1_655 S
H510 C495 0.961 . S
H511 C495 0.960 . S
C512 C513 1.391 . S
C512 C514 1.394 . S
C512 H528 0.931 . S
C513 C512 1.391 . S
C513 C517 1.376 1_565 S
C514 C512 1.394 . S
C514 C515 1.365 1_565 S
C514 C518 1.531 . S
C515 C514 1.365 1_545 S
C515 C516 1.413 . S
C515 C523 1.505 . S
C516 C515 1.413 . S
C516 C517 1.392 . S
C516 C519 1.511 . S
C517 C513 1.376 1_545 S
C517 C516 1.392 . S
C517 H529 0.929 . S
C518 C514 1.531 . S
C518 H530 0.960 . S
C518 H531 0.962 . S
C518 H532 0.960 . S
C519 C516 1.511 . S
C519 H533 0.961 . S
C519 H534 0.961 . S
C519 H535 0.961 . S
C520 C521 1.370 . S
C520 C522 1.363 . S
C520 H536 0.931 . S
C521 C520 1.370 . S
C521 C525 1.408 . S
C522 C520 1.363 . S
C522 C523 1.370 . S
C522 C526 1.524 . S
C523 C515 1.505 . S
C523 C522 1.370 . S
C523 C524 1.403 . S
C524 C523 1.403 . S
C524 C525 1.404 . S
C524 C527 1.539 . S
C525 C521 1.408 . S
C525 C524 1.404 . S
C525 H537 0.930 . S
C526 C522 1.524 . S
C526 H538 0.957 1_545 S
C526 H539 0.960 . S
C526 H540 0.960 . S
C527 C524 1.539 . S
C527 H541 0.958 . S
C527 H542 0.961 . S
C527 H543 0.960 . S
H528 C512 0.931 . S
H529 C517 0.929 . S
H530 C518 0.960 . S
H531 C518 0.962 . S
H532 C518 0.960 . S
H533 C519 0.961 . S
H534 C519 0.961 . S
H535 C519 0.961 . S
H536 C520 0.931 . S
H537 C525 0.930 . S
H538 C526 0.957 1_565 S
H539 C526 0.960 . S
H540 C526 0.960 . S
H541 C527 0.958 . S
H542 C527 0.961 . S
H543 C527 0.960 . S
C544 C545 1.391 . S
C544 C546 1.394 . S
C544 H560 0.931 . S
C545 C544 1.391 . S
C545 C549 1.376 . S
C546 C544 1.394 . S
C546 C547 1.369 . S
C546 C550 1.531 1_455 S
C547 C546 1.369 . S
C547 C548 1.410 . S
C547 C555 1.503 1_455 S
C548 C547 1.410 . S
C548 C549 1.392 . S
C548 C551 1.511 . S
C549 C545 1.376 . S
C549 C548 1.392 . S
C549 H561 0.929 . S
C550 C546 1.531 1_655 S
C550 H562 0.960 . S
C550 H563 0.962 . S
C550 H564 0.960 1_655 S
C551 C548 1.511 . S
C551 H565 0.961 . S
C551 H566 0.961 . S
C551 H567 0.961 . S
C552 C553 1.370 . S
C552 C554 1.363 . S
C552 H568 0.931 . S
C553 C552 1.370 . S
C553 C557 1.408 . S
C554 C552 1.363 . S
C554 C555 1.370 . S
C554 C558 1.524 . S
C555 C547 1.503 1_655 S
C555 C554 1.370 . S
C555 C556 1.403 1_655 S
C556 C555 1.403 1_455 S
C556 C557 1.404 1_455 S
C556 C559 1.539 . S
C557 C553 1.408 . S
C557 C556 1.404 1_655 S
C557 H569 0.930 1_655 S
C558 C554 1.524 . S
C558 H570 0.956 . S
C558 H571 0.961 . S
C558 H572 0.961 . S
C559 C556 1.539 . S
C559 H573 0.958 . S
C559 H574 0.961 . S
C559 H575 0.960 . S
H560 C544 0.931 . S
H561 C549 0.929 . S
H562 C550 0.960 . S
H563 C550 0.962 . S
H564 C550 0.960 1_455 S
H565 C551 0.961 . S
H566 C551 0.961 . S
H567 C551 0.961 . S
H568 C552 0.931 . S
H569 C557 0.930 1_455 S
H570 C558 0.956 . S
H571 C558 0.961 . S
H572 C558 0.961 . S
H573 C559 0.958 . S
H574 C559 0.961 . S
H575 C559 0.960 . S
C576 C577 1.391 . S
C576 C578 1.394 . S
C576 H592 0.931 . S
C577 C576 1.391 . S
C577 C581 1.376 . S
C578 C576 1.394 . S
C578 C579 1.360 1_565 S
C578 C582 1.531 . S
C579 C578 1.360 1_545 S
C579 C580 1.412 . S
C579 C587 1.508 . S
C580 C579 1.412 . S
C580 C581 1.392 1_545 S
C580 C583 1.511 . S
C581 C577 1.376 . S
C581 C580 1.392 1_565 S
C581 H593 0.929 . S
C582 C578 1.531 . S
C582 H594 0.960 . S
C582 H595 0.962 . S
C582 H596 0.960 . S
C583 C580 1.511 . S
C583 H597 0.961 . S
C583 H598 0.961 . S
C583 H599 0.961 . S
C584 C585 1.370 1_565 S
C584 C586 1.363 . S
C584 H600 0.931 . S
C585 C584 1.370 1_545 S
C585 C589 1.408 . S
C586 C584 1.363 . S
C586 C587 1.370 1_565 S
C586 C590 1.524 . S
C587 C579 1.508 . S
C587 C586 1.370 1_545 S
C587 C588 1.403 . S
C588 C587 1.403 . S
C588 C589 1.404 . S
C588 C591 1.539 . S
C589 C585 1.408 . S
C589 C588 1.404 . S
C589 H601 0.930 . S
C590 C586 1.524 . S
C590 H602 0.956 . S
C590 H603 0.961 . S
C590 H604 0.961 . S
C591 C588 1.539 . S
C591 H605 0.958 . S
C591 H606 0.961 . S
C591 H607 0.960 . S
H592 C576 0.931 . S
H593 C581 0.929 . S
H594 C582 0.960 . S
H595 C582 0.962 . S
H596 C582 0.960 . S
H597 C583 0.961 . S
H598 C583 0.961 . S
H599 C583 0.961 . S
H600 C584 0.931 . S
H601 C589 0.930 . S
H602 C590 0.956 . S
H603 C590 0.961 . S
H604 C590 0.961 . S
H605 C591 0.958 . S
H606 C591 0.961 . S
H607 C591 0.960 . S
C608 C609 1.391 . S
C608 C610 1.394 . S
C608 H624 0.931 . S
C609 C608 1.391 . S
C609 C613 1.376 . S
C610 C608 1.394 . S
C610 C611 1.369 . S
C610 C614 1.531 . S
C611 C610 1.369 . S
C611 C612 1.410 . S
C611 C619 1.503 1_554 S
C612 C611 1.410 . S
C612 C613 1.392 . S
C612 C615 1.511 1_554 S
C613 C609 1.376 . S
C613 C612 1.392 . S
C613 H625 0.929 . S
C614 C610 1.531 . S
C614 H626 0.960 . S
C614 H627 0.962 . S
C614 H628 0.960 . S
C615 C612 1.511 1_556 S
C615 H629 0.961 . S
C615 H630 0.961 . S
C615 H631 0.961 . S
C616 C617 1.370 . S
C616 C618 1.363 . S
C616 H632 0.931 . S
C617 C616 1.370 . S
C617 C621 1.408 . S
C618 C616 1.363 . S
C618 C619 1.370 . S
C618 C622 1.524 . S
C619 C611 1.503 1_556 S
C619 C618 1.370 . S
C619 C620 1.403 . S
C620 C619 1.403 . S
C620 C621 1.404 . S
C620 C623 1.539 . S
C621 C617 1.408 . S
C621 C620 1.404 . S
C621 H633 0.930 . S
C622 C618 1.524 . S
C622 H634 0.956 1_556 S
C622 H635 0.961 . S
C622 H636 0.961 . S
C623 C620 1.539 . S
C623 H637 0.958 . S
C623 H638 0.961 . S
C623 H639 0.960 . S
H624 C608 0.931 . S
H625 C613 0.929 . S
H626 C614 0.960 . S
H627 C614 0.962 . S
H628 C614 0.960 . S
H629 C615 0.961 . S
H630 C615 0.961 . S
H631 C615 0.961 . S
H632 C616 0.931 . S
H633 C621 0.930 . S
H634 C622 0.956 1_554 S
H635 C622 0.961 . S
H636 C622 0.961 . S
H637 C623 0.958 . S
H638 C623 0.961 . S
H639 C623 0.960 . S
C640 C641 1.391 . S
C640 C642 1.394 1_455 S
C640 H656 0.931 1_455 S
C641 C640 1.391 . S
C641 C645 1.376 . S
C642 C640 1.394 1_655 S
C642 C643 1.369 1_655 S
C642 C646 1.531 . S
C643 C642 1.369 1_455 S
C643 C644 1.410 . S
C643 C651 1.503 1_466 S
C644 C643 1.410 . S
C644 C645 1.392 . S
C644 C647 1.511 1_566 S
C645 C641 1.376 . S
C645 C644 1.392 . S
C645 H657 0.929 . S
C646 C642 1.531 . S
C646 H658 0.960 . S
C646 H659 0.962 . S
C646 H660 0.960 . S
C647 C644 1.511 1_544 S
C647 H661 0.961 . S
C647 H662 0.961 . S
C647 H663 0.961 1_545 S
C648 C649 1.370 . S
C648 C650 1.363 . S
C648 H664 0.931 . S
C649 C648 1.370 . S
C649 C653 1.408 1_545 S
C650 C648 1.363 . S
C650 C651 1.370 . S
C650 C654 1.524 1_554 S
C651 C643 1.503 1_644 S
C651 C650 1.370 . S
C651 C652 1.403 1_545 S
C652 C651 1.403 1_565 S
C652 C653 1.404 . S
C652 C655 1.539 1_655 S
C653 C649 1.408 1_565 S
C653 C652 1.404 . S
C653 H665 0.930 . S
C654 C650 1.524 1_556 S
C654 H666 0.956 . S
C654 H667 0.961 1_655 S
C654 H668 0.961 . S
C655 C652 1.539 1_455 S
C655 H669 0.958 1_455 S
C655 H670 0.961 . S
C655 H671 0.960 . S
H656 C640 0.931 1_655 S
H657 C645 0.929 . S
H658 C646 0.960 . S
H659 C646 0.962 . S
H660 C646 0.960 . S
H661 C647 0.961 . S
H662 C647 0.961 . S
H663 C647 0.961 1_565 S
H664 C648 0.931 . S
H665 C653 0.930 . S
H666 C654 0.956 . S
H667 C654 0.961 1_455 S
H668 C654 0.961 . S
H669 C655 0.958 1_655 S
H670 C655 0.961 . S
H671 C655 0.960 . S
C672 C673 1.391 . S
C672 C674 1.394 . S
C672 H688 0.931 . S
C673 C672 1.391 . S
C673 C677 1.376 . S
C674 C672 1.394 . S
C674 C675 1.369 . S
C674 C678 1.531 . S
C675 C674 1.369 . S
C675 C676 1.410 . S
C675 C683 1.503 . S
C676 C675 1.410 . S
C676 C677 1.392 . S
C676 C679 1.511 . S
C677 C673 1.376 . S
C677 C676 1.392 . S
C677 H689 0.929 . S
C678 C674 1.531 . S
C678 H690 0.960 . S
C678 H691 0.962 . S
C678 H692 0.960 . S
C679 C676 1.511 . S
C679 H693 0.961 . S
C679 H694 0.961 . S
C679 H695 0.961 . S
C680 C681 1.370 . S
C680 C682 1.363 . S
C680 H696 0.931 . S
C681 C680 1.370 . S
C681 C685 1.408 . S
C682 C680 1.363 . S
C682 C683 1.370 . S
C682 C686 1.524 . S
C683 C675 1.503 . S
C683 C682 1.370 . S
C683 C684 1.403 . S
C684 C683 1.403 . S
C684 C685 1.404 . S
C684 C687 1.539 . S
C685 C681 1.408 . S
C685 C684 1.404 . S
C685 H697 0.930 . S
C686 C682 1.524 . S
C686 H698 0.956 . S
C686 H699 0.961 . S
C686 H700 0.961 . S
C687 C684 1.539 . S
C687 H701 0.958 . S
C687 H702 0.961 . S
C687 H703 0.960 . S
H688 C672 0.931 . S
H689 C677 0.929 . S
H690 C678 0.960 . S
H691 C678 0.962 . S
H692 C678 0.960 . S
H693 C679 0.961 . S
H694 C679 0.961 . S
H695 C679 0.961 . S
H696 C680 0.931 . S
H697 C685 0.930 . S
H698 C686 0.956 . S
H699 C686 0.961 . S
H700 C686 0.961 . S
H701 C687 0.958 . S
H702 C687 0.961 . S
H703 C687 0.960 . S
C704 C705 1.391 . S
C704 C706 1.394 . S
C704 H720 0.931 . S
C705 C704 1.391 . S
C705 C709 1.376 . S
C706 C704 1.394 . S
C706 C707 1.369 . S
C706 C710 1.531 . S
C707 C706 1.369 . S
C707 C708 1.410 . S
C707 C715 1.503 . S
C708 C707 1.410 . S
C708 C709 1.392 . S
C708 C711 1.511 . S
C709 C705 1.376 . S
C709 C708 1.392 . S
C709 H721 0.929 . S
C710 C706 1.531 . S
C710 H722 0.960 . S
C710 H723 0.962 . S
C710 H724 0.960 . S
C711 C708 1.511 . S
C711 H725 0.961 . S
C711 H726 0.961 . S
C711 H727 0.961 . S
C712 C713 1.370 . S
C712 C714 1.363 . S
C712 H728 0.931 . S
C713 C712 1.370 . S
C713 C717 1.408 . S
C714 C712 1.363 . S
C714 C715 1.370 . S
C714 C718 1.524 . S
C715 C707 1.503 . S
C715 C714 1.370 . S
C715 C716 1.403 . S
C716 C715 1.403 . S
C716 C717 1.404 . S
C716 C719 1.539 . S
C717 C713 1.408 . S
C717 C716 1.404 . S
C717 H729 0.930 . S
C718 C714 1.524 . S
C718 H730 0.956 . S
C718 H731 0.961 . S
C718 H732 0.961 . S
C719 C716 1.539 . S
C719 H733 0.958 . S
C719 H734 0.961 . S
C719 H735 0.960 . S
H720 C704 0.931 . S
H721 C709 0.929 . S
H722 C710 0.960 . S
H723 C710 0.962 . S
H724 C710 0.960 . S
H725 C711 0.961 . S
H726 C711 0.961 . S
H727 C711 0.961 . S
H728 C712 0.931 . S
H729 C717 0.930 . S
H730 C718 0.956 . S
H731 C718 0.961 . S
H732 C718 0.961 . S
H733 C719 0.958 . S
H734 C719 0.961 . S
H735 C719 0.960 . S
C736 C737 1.391 . S
C736 C738 1.394 . S
C736 H752 0.931 . S
C737 C736 1.391 . S
C737 C741 1.376 . S
C738 C736 1.394 . S
C738 C739 1.369 . S
C738 C742 1.531 . S
C739 C738 1.369 . S
C739 C740 1.410 . S
C739 C747 1.503 . S
C740 C739 1.410 . S
C740 C741 1.392 . S
C740 C743 1.511 . S
C741 C737 1.376 . S
C741 C740 1.392 . S
C741 H753 0.929 . S
C742 C738 1.531 . S
C742 H754 0.960 . S
C742 H755 0.962 . S
C742 H756 0.960 . S
C743 C740 1.511 . S
C743 H757 0.961 . S
C743 H758 0.961 . S
C743 H759 0.961 . S
C744 C745 1.370 . S
C744 C746 1.363 . S
C744 H760 0.931 . S
C745 C744 1.370 . S
C745 C749 1.408 . S
C746 C744 1.363 . S
C746 C747 1.370 . S
C746 C750 1.524 . S
C747 C739 1.503 . S
C747 C746 1.370 . S
C747 C748 1.403 . S
C748 C747 1.403 . S
C748 C749 1.404 . S
C748 C751 1.539 . S
C749 C745 1.408 . S
C749 C748 1.404 . S
C749 H761 0.930 . S
C750 C746 1.524 . S
C750 H762 0.956 . S
C750 H763 0.961 . S
C750 H764 0.961 . S
C751 C748 1.539 . S
C751 H765 0.958 . S
C751 H766 0.961 . S
C751 H767 0.960 . S
H752 C736 0.931 . S
H753 C741 0.929 . S
H754 C742 0.960 . S
H755 C742 0.962 . S
H756 C742 0.960 . S
H757 C743 0.961 . S
H758 C743 0.961 . S
H759 C743 0.961 . S
H760 C744 0.931 . S
H761 C749 0.930 . S
H762 C750 0.956 . S
H763 C750 0.961 . S
H764 C750 0.961 . S
H765 C751 0.958 . S
H766 C751 0.961 . S
H767 C751 0.960 . S
C768 C769 1.391 . S
C768 C770 1.394 . S
C768 H784 0.931 . S
C769 C768 1.391 . S
C769 C773 1.376 . S
C770 C768 1.394 . S
C770 C771 1.369 . S
C770 C774 1.531 . S
C771 C770 1.369 . S
C771 C772 1.410 . S
C771 C779 1.503 . S
C772 C771 1.410 . S
C772 C773 1.392 . S
C772 C775 1.511 . S
C773 C769 1.376 . S
C773 C772 1.392 . S
C773 H785 0.929 . S
C774 C770 1.531 . S
C774 H786 0.960 . S
C774 H787 0.962 . S
C774 H788 0.960 . S
C775 C772 1.511 . S
C775 H789 0.961 . S
C775 H790 0.961 . S
C775 H791 0.961 . S
C776 C777 1.370 . S
C776 C778 1.363 . S
C776 H792 0.931 . S
C777 C776 1.370 . S
C777 C781 1.408 . S
C778 C776 1.363 . S
C778 C779 1.370 . S
C778 C782 1.524 . S
C779 C771 1.503 . S
C779 C778 1.370 . S
C779 C780 1.403 . S
C780 C779 1.403 . S
C780 C781 1.404 . S
C780 C783 1.539 . S
C781 C777 1.408 . S
C781 C780 1.404 . S
C781 H793 0.930 . S
C782 C778 1.524 . S
C782 H794 0.956 . S
C782 H795 0.961 . S
C782 H796 0.961 . S
C783 C780 1.539 . S
C783 H797 0.958 . S
C783 H798 0.961 . S
C783 H799 0.960 . S
H784 C768 0.931 . S
H785 C773 0.929 . S
H786 C774 0.960 . S
H787 C774 0.962 . S
H788 C774 0.960 . S
H789 C775 0.961 . S
H790 C775 0.961 . S
H791 C775 0.961 . S
H792 C776 0.931 . S
H793 C781 0.930 . S
H794 C782 0.956 . S
H795 C782 0.961 . S
H796 C782 0.961 . S
H797 C783 0.958 . S
H798 C783 0.961 . S
H799 C783 0.960 . S
C289 C4 1.346 . S
C297 C74 1.340 . S
C321 C110 1.343 . S
C329 C40 1.341 . S
C353 C76 1.339 . S
C361 C2 1.348 . S
C385 C112 1.306 . S
C393 C38 1.339 . S
C417 C218 1.348 . S
C425 C148 1.324 . S
C449 C184 1.350 . S
C457 C254 1.343 . S
C481 C220 1.323 . S
C489 C146 1.336 . S
C513 C256 1.311 . S
C521 C182 1.346 . S
C545 C3 1.519 . S
C553 C147 1.519 . S
C577 C39 1.511 . S
C585 C183 1.523 . S
C609 C75 1.515 . S
C617 C219 1.521 . S
C641 C255 1.522 . S
C649 C111 1.518 . S
C673 C14 1.411 . S
C681 C50 1.432 . S
C705 C122 1.454 . S
C713 C86 1.445 . S
C737 C194 1.417 . S
C745 C158 1.431 . S
C769 C230 1.445 . S
C777 C266 1.437 . S
