# Generated by pormake.
# Topology gan, (5)-cn, num edge types: 1
# Building blocks:
#     Node 0, Type 0, BuildingBlock: XOMCOT_clean_sbu_0, # of connection points: 5
#     Node 1, Type 0, BuildingBlock: XOMCOT_clean_sbu_0, # of connection points: 5
#     Node 2, Type 0, BuildingBlock: XOMCOT_clean_sbu_0, # of connection points: 5
#     Node 3, Type 0, BuildingBlock: XOMCOT_clean_sbu_0, # of connection points: 5
#     Node 4, Type 0, BuildingBlock: XOMCOT_clean_sbu_0, # of connection points: 5
#     Node 5, Type 0, BuildingBlock: XOMCOT_clean_sbu_0, # of connection points: 5
#     Node 6, Type 0, BuildingBlock: XOMCOT_clean_sbu_0, # of connection points: 5
#     Node 7, Type 0, BuildingBlock: XOMCOT_clean_sbu_0, # of connection points: 5
#     Node 8, Type 0, BuildingBlock: XOMCOT_clean_sbu_0, # of connection points: 5
#     Node 9, Type 0, BuildingBlock: XOMCOT_clean_sbu_0, # of connection points: 5
#     Node 10, Type 0, BuildingBlock: XOMCOT_clean_sbu_0, # of connection points: 5
#     Node 11, Type 0, BuildingBlock: XOMCOT_clean_sbu_0, # of connection points: 5
#     Node 12, Type 0, BuildingBlock: XOMCOT_clean_sbu_0, # of connection points: 5
#     Node 13, Type 0, BuildingBlock: XOMCOT_clean_sbu_0, # of connection points: 5
#     Node 14, Type 0, BuildingBlock: XOMCOT_clean_sbu_0, # of connection points: 5
#     Node 15, Type 0, BuildingBlock: XOMCOT_clean_sbu_0, # of connection points: 5
#     Edge 16, Type (0, 0), BuildingBlock: XIVTED_clean_linker_0, # of connection points: 2
#     Edge 17, Type (0, 0), BuildingBlock: XIVTED_clean_linker_0, # of connection points: 2
#     Edge 18, Type (0, 0), BuildingBlock: XIVTED_clean_linker_0, # of connection points: 2
#     Edge 19, Type (0, 0), BuildingBlock: XIVTED_clean_linker_0, # of connection points: 2
#     Edge 20, Type (0, 0), BuildingBlock: XIVTED_clean_linker_0, # of connection points: 2
#     Edge 21, Type (0, 0), BuildingBlock: XIVTED_clean_linker_0, # of connection points: 2
#     Edge 22, Type (0, 0), BuildingBlock: XIVTED_clean_linker_0, # of connection points: 2
#     Edge 23, Type (0, 0), BuildingBlock: XIVTED_clean_linker_0, # of connection points: 2
#     Edge 24, Type (0, 0), BuildingBlock: XIVTED_clean_linker_0, # of connection points: 2
#     Edge 25, Type (0, 0), BuildingBlock: XIVTED_clean_linker_0, # of connection points: 2
#     Edge 26, Type (0, 0), BuildingBlock: XIVTED_clean_linker_0, # of connection points: 2
#     Edge 27, Type (0, 0), BuildingBlock: XIVTED_clean_linker_0, # of connection points: 2
#     Edge 28, Type (0, 0), BuildingBlock: XIVTED_clean_linker_0, # of connection points: 2
#     Edge 29, Type (0, 0), BuildingBlock: XIVTED_clean_linker_0, # of connection points: 2
#     Edge 30, Type (0, 0), BuildingBlock: XIVTED_clean_linker_0, # of connection points: 2
#     Edge 31, Type (0, 0), BuildingBlock: XIVTED_clean_linker_0, # of connection points: 2
#     Edge 32, Type (0, 0), BuildingBlock: XIVTED_clean_linker_0, # of connection points: 2
#     Edge 33, Type (0, 0), BuildingBlock: XIVTED_clean_linker_0, # of connection points: 2
#     Edge 34, Type (0, 0), BuildingBlock: XIVTED_clean_linker_0, # of connection points: 2
#     Edge 35, Type (0, 0), BuildingBlock: XIVTED_clean_linker_0, # of connection points: 2
#     Edge 36, Type (0, 0), BuildingBlock: XIVTED_clean_linker_0, # of connection points: 2
#     Edge 37, Type (0, 0), BuildingBlock: XIVTED_clean_linker_0, # of connection points: 2
#     Edge 38, Type (0, 0), BuildingBlock: XIVTED_clean_linker_0, # of connection points: 2
#     Edge 39, Type (0, 0), BuildingBlock: XIVTED_clean_linker_0, # of connection points: 2
#     Edge 40, Type (0, 0), BuildingBlock: XIVTED_clean_linker_0, # of connection points: 2
#     Edge 41, Type (0, 0), BuildingBlock: XIVTED_clean_linker_0, # of connection points: 2
#     Edge 42, Type (0, 0), BuildingBlock: XIVTED_clean_linker_0, # of connection points: 2
#     Edge 43, Type (0, 0), BuildingBlock: XIVTED_clean_linker_0, # of connection points: 2
#     Edge 44, Type (0, 0), BuildingBlock: XIVTED_clean_linker_0, # of connection points: 2
#     Edge 45, Type (0, 0), BuildingBlock: XIVTED_clean_linker_0, # of connection points: 2
#     Edge 46, Type (0, 0), BuildingBlock: XIVTED_clean_linker_0, # of connection points: 2
#     Edge 47, Type (0, 0), BuildingBlock: XIVTED_clean_linker_0, # of connection points: 2
#     Edge 48, Type (0, 0), BuildingBlock: XIVTED_clean_linker_0, # of connection points: 2
#     Edge 49, Type (0, 0), BuildingBlock: XIVTED_clean_linker_0, # of connection points: 2
#     Edge 50, Type (0, 0), BuildingBlock: XIVTED_clean_linker_0, # of connection points: 2
#     Edge 51, Type (0, 0), BuildingBlock: XIVTED_clean_linker_0, # of connection points: 2
#     Edge 52, Type (0, 0), BuildingBlock: XIVTED_clean_linker_0, # of connection points: 2
#     Edge 53, Type (0, 0), BuildingBlock: XIVTED_clean_linker_0, # of connection points: 2
#     Edge 54, Type (0, 0), BuildingBlock: XIVTED_clean_linker_0, # of connection points: 2
#     Edge 55, Type (0, 0), BuildingBlock: XIVTED_clean_linker_0, # of connection points: 2
# Relax obj value: 0.093
# Max RMSD: 0.110
# Mean RMSD: 0.099
data_MOF--net-gan--node1-XOMCOT_clean_sbu_0--edge1-XIVTED_clean_linker_0
_symmetry_space_group_name_H-M    P1
_symmetry_Int_Tables_number       1
_symmetry_cell_setting            triclinic
loop_
_symmetry_equiv_pos_as_xyz
'x, y, z'
_cell_length_a     42.115149
_cell_length_b     42.137744
_cell_length_c     41.513388
_cell_angle_alpha  90.710744
_cell_angle_beta   90.728263
_cell_angle_gamma 91.021356
loop_
_atom_site_label
_atom_site_type_symbol
_atom_site_fract_x
_atom_site_fract_y
_atom_site_fract_z
_atom_type_partial_charge
Co0 Co 0.10572 0.15383 0.15401 0.0
C1 C 0.15581 0.18391 0.19752 0.0
C2 C 0.17271 0.175 0.14972 0.0
C3 C 0.19685 0.18917 0.16771 0.0
N4 N 0.14701 0.1713 0.16836 0.0
N5 N 0.18636 0.19488 0.1978 0.0
H6 H 0.14026 0.18492 0.21804 0.0
H7 H 0.1738 0.16831 0.12453 0.0
C8 C 0.12959 0.09913 0.11201 0.0
O9 O 0.11563 0.07629 0.12809 0.0
N10 N 0.06376 0.13715 0.139 0.0
C11 C 0.03552 0.14362 0.15253 0.0
C12 C 1.01159 0.12708 0.13644 0.0
C13 C 0.05585 0.11781 0.11349 0.0
N14 N 0.02432 0.11066 0.11193 0.0
C15 C 0.08394 0.11236 0.20408 0.0
C16 C 0.13748 0.0755 0.20371 0.0
C17 C 0.11001 0.06406 0.21866 0.0
C18 C 0.08357 0.08366 0.22045 0.0
C19 C 0.13664 0.10406 0.18744 0.0
N20 N 0.10917 0.12061 0.18549 0.0
H21 H 0.06344 0.12716 0.20531 0.0
H22 H 0.1573 0.11145 0.17412 0.0
H23 H 0.03225 0.15916 0.17308 0.0
H24 H 0.07235 0.10915 0.09606 0.0
O25 O 0.08563 0.18662 0.1792 0.0
O26 O 0.10025 0.18988 0.12795 0.0
O27 O 0.12729 0.12823 0.1202 0.0
C28 C 0.0883 0.20346 0.15311 0.0
H29 H 0.22021 0.19549 0.159 0.0
H30 H 0.9866 0.12745 0.14218 0.0
H31 H 0.15898 0.06177 0.20322 0.0
H32 H 0.06229 0.07623 0.23287 0.0
Co33 Co 0.195 0.86403 0.3815 0.0
C34 C 0.15391 0.90737 0.42291 0.0
C35 C 0.19831 0.92862 0.4093 0.0
C36 C 0.18202 0.95017 0.42766 0.0
N37 N 0.18114 0.90149 0.40646 0.0
N38 N 0.15404 0.93704 0.43665 0.0
H39 H 0.13471 0.89015 0.42512 0.0
H40 H 0.22109 0.93273 0.39826 0.0
C41 C 0.25799 0.85431 0.41391 0.0
O42 O 0.25063 0.82436 0.41892 0.0
N43 N 0.20921 0.82752 0.35449 0.0
C44 C 0.18954 0.8095 0.33554 0.0
C45 C 0.20672 0.78958 0.31643 0.0
C46 C 0.23885 0.81881 0.34475 0.0
N47 N 0.23792 0.79502 0.322 0.0
C48 C 0.16461 0.81098 0.41135 0.0
C49 C 0.16942 0.83553 0.4733 0.0
C50 C 0.1475 0.81095 0.4664 0.0
C51 C 0.14692 0.79721 0.43562 0.0
C52 C 0.1882 0.84753 0.44846 0.0
N53 N 0.18374 0.83685 0.41741 0.0
H54 H 0.15989 0.80269 0.38729 0.0
H55 H 0.20352 0.86789 0.45355 0.0
H56 H 0.16401 0.81139 0.3343 0.0
H57 H 0.26062 0.83025 0.35315 0.0
O58 O 0.15444 0.86366 0.35968 0.0
O59 O 0.19801 0.8899 0.34416 0.0
O60 O 0.23899 0.87196 0.39861 0.0
C61 C 0.1681 0.88271 0.33943 0.0
H62 H 0.19016 0.97411 0.43328 0.0
H63 H 0.19668 0.77338 0.29846 0.0
H64 H 0.17025 0.84689 0.49685 0.0
H65 H 0.12985 0.77853 0.42929 0.0
Co66 Co 0.45904 0.92705 0.61157 0.0
C67 C 0.41305 0.89185 0.65607 0.0
C68 C 0.39186 0.90346 0.61073 0.0
C69 C 0.37071 0.885 0.62747 0.0
N70 N 0.4188 0.90813 0.62831 0.0
N71 N 0.38392 0.87708 0.65593 0.0
H72 H 0.43029 0.88953 0.67537 0.0
H73 H 0.38759 0.91206 0.58675 0.0
C74 C 0.4259 0.95387 0.55141 0.0
O75 O 0.4255 0.98355 0.56136 0.0
N76 N 0.49885 0.94488 0.59354 0.0
C77 C 0.52817 0.93266 0.59616 0.0
C78 C 0.54937 0.95099 0.5791 0.0
C79 C 0.50309 0.97085 0.57462 0.0
N80 N 0.5338 0.97517 0.56536 0.0
C81 C 0.47136 0.98338 0.64688 0.0
C82 C 0.40927 1.00276 0.65124 0.0
C83 C 0.43235 1.01641 0.67215 0.0
C84 C 0.46399 1.00748 0.66857 0.0
C85 C 0.41769 0.97855 0.62982 0.0
N86 N 0.44827 0.96842 0.62867 0.0
H87 H 0.49533 0.97466 0.64702 0.0
H88 H 0.39923 0.96674 0.61571 0.0
H89 H 0.53414 0.91153 0.60919 0.0
H90 H 0.48425 0.98658 0.56808 0.0
O91 O 0.48108 0.91225 0.64927 0.0
O92 O 0.47296 0.88464 0.60379 0.0
O93 O 0.43816 0.93233 0.56855 0.0
C94 C 0.4827 0.88529 0.63373 0.0
H95 H 0.34735 0.87764 0.61884 0.0
H96 H 0.57435 0.94618 0.57648 0.0
H97 H 0.38459 1.00931 0.65276 0.0
H98 H 0.48261 1.01679 0.68444 0.0
Co99 Co 0.33025 0.14524 0.9215 0.0
C100 C 0.28914 0.18946 0.88158 0.0
C101 C 0.29856 0.14524 0.85774 0.0
C102 C 0.27927 0.16286 0.8381 0.0
N103 N 0.30506 0.16169 0.88508 0.0
N104 N 0.27292 0.19078 0.85287 0.0
H105 H 0.28893 0.20793 0.89991 0.0
H106 H 0.30696 0.12167 0.85244 0.0
C107 C 0.38626 0.11953 0.88445 0.0
O108 O 0.40735 0.13454 0.9029 0.0
N109 N 0.35473 0.12803 0.95884 0.0
C110 C 0.35021 0.13729 0.98971 0.0
C111 C 0.369 0.12026 1.01011 0.0
C112 C 0.37584 0.10372 0.96167 0.0
N113 N 0.38551 0.0991 0.99285 0.0
C114 C 0.36559 0.19918 0.94743 0.0
C115 C 0.39864 0.21081 0.89168 0.0
C116 C 0.41038 0.2235 0.92097 0.0
C117 C 0.3922 0.21941 0.94869 0.0
C118 C 0.37189 0.19079 0.8916 0.0
N119 N 0.35799 0.18259 0.9199 0.0
H120 H 0.35227 0.19562 0.96903 0.0
H121 H 0.3643 0.1795 0.86921 0.0
H122 H 0.33356 0.15487 0.99757 0.0
H123 H 0.38367 0.08936 0.94166 0.0
O124 O 0.29818 0.16033 0.95034 0.0
O125 O 0.29914 0.1123 0.92735 0.0
O126 O 0.35665 0.12134 0.88995 0.0
C127 C 0.28527 0.13211 0.94652 0.0
H128 H 0.27075 0.15542 0.81447 0.0
H129 H 0.36958 0.12268 0.0361 0.0
H130 H 0.41122 0.21457 0.86941 0.0
H131 H 0.39972 0.22969 0.97164 0.0
Co132 Co 0.70222 0.38298 0.87218 0.0
C133 C 0.65924 0.42217 0.91525 0.0
C134 C 0.70883 0.42957 0.92573 0.0
C135 C 0.69169 0.44866 0.94597 0.0
N136 N 0.68872 0.41247 0.90658 0.0
N137 N 0.66039 0.44418 0.93968 0.0
H138 H 0.63749 0.41322 0.90402 0.0
H139 H 0.73444 0.42886 0.92472 0.0
C140 C 0.75299 0.3558 0.91627 0.0
O141 O 0.73717 0.32932 0.92161 0.0
N142 N 0.71702 0.35467 0.83674 0.0
C143 C 0.70392 0.35298 0.80683 0.0
C144 C 0.72017 0.33185 0.78809 0.0
C145 C 0.74217 0.33458 0.835 0.0
N146 N 0.74433 0.32007 0.8055 0.0
C147 C 0.66199 0.32798 0.87235 0.0
C148 C 0.64948 0.32853 0.93752 0.0
C149 C 0.63123 0.30877 0.91686 0.0
C150 C 0.63859 0.3078 0.88416 0.0
C151 C 0.67355 0.34782 0.92476 0.0
N152 N 0.67898 0.34812 0.89228 0.0
H153 H 0.66427 0.32901 0.84666 0.0
H154 H 0.68673 0.36363 0.94091 0.0
H155 H 0.68344 0.36591 0.79879 0.0
H156 H 0.75851 0.33047 0.85471 0.0
O157 O 0.66785 0.39786 0.84608 0.0
O158 O 0.71672 0.4191 0.84819 0.0
O159 O 0.7427 0.3763 0.89665 0.0
C160 C 0.68767 0.42003 0.83716 0.0
H161 H 0.7018 0.46537 0.96343 0.0
H162 H 0.7149 0.32608 0.76308 0.0
H163 H 0.64439 0.32994 0.963 0.0
H164 H 0.62451 0.29351 0.86722 0.0
Co165 Co 0.95209 0.4449 0.12338 0.0
C166 C 0.91062 0.39926 0.16376 0.0
C167 C 0.91167 0.38795 0.11342 0.0
C168 C 0.89178 0.36649 0.12815 0.0
N169 N 0.92338 0.40915 0.13533 0.0
N170 N 0.89093 0.37344 0.15987 0.0
H171 H 0.91506 0.41041 0.18687 0.0
H172 H 0.9174 0.38778 0.08814 0.0
C173 C 0.92507 0.4452 0.05821 0.0
O174 O 0.95223 0.4334 0.04935 0.0
N175 N 0.98087 0.48018 0.11088 0.0
C176 C 0.99301 0.50234 0.13151 0.0
C177 C 1.01314 0.52254 0.11532 0.0
C178 C 0.99477 0.48716 0.08221 0.0
N179 N 1.01439 0.51322 0.08416 0.0
C180 C 0.93665 0.46904 0.18486 0.0
C181 C 0.90572 0.52282 0.16498 0.0
C182 C 0.91134 0.51803 0.19789 0.0
C183 C 0.9265 0.49062 0.2077 0.0
C184 C 0.91557 0.49985 0.14261 0.0
N185 N 0.93093 0.47338 0.15281 0.0
H186 H 0.95039 0.44938 0.19316 0.0
H187 H 0.91242 0.50423 0.1172 0.0
H188 H 0.98814 0.50351 0.15699 0.0
H189 H 0.99116 0.47348 0.0604 0.0
O190 O 0.98427 0.4302 0.15264 0.0
O191 O 0.97878 0.41499 0.10163 0.0
O192 O 0.92124 0.45409 0.08741 0.0
C193 C 0.99371 0.41255 0.12903 0.0
H194 H 0.87931 0.34678 0.11638 0.0
H195 H 0.02656 0.54213 0.12615 0.0
H196 H 0.89452 0.54423 0.15671 0.0
H197 H 0.93188 0.48663 0.23293 0.0
Co198 Co 0.84526 0.67466 0.43728 0.0
C199 C 0.80813 0.72111 0.39525 0.0
C200 C 0.84304 0.69564 0.36892 0.0
C201 C 0.82604 0.71369 0.34771 0.0
N202 N 0.83228 0.70001 0.39914 0.0
N203 N 0.80367 0.72963 0.36387 0.0
H204 H 0.79318 0.72905 0.41464 0.0
H205 H 0.86177 0.67993 0.36201 0.0
C206 C 0.90003 0.64234 0.40131 0.0
O207 O 0.92376 0.65732 0.416 0.0
N208 N 0.85753 0.6482 0.47511 0.0
C209 C 0.84176 0.64705 0.50329 0.0
C210 C 0.85705 0.62745 0.52442 0.0
C211 C 0.8825 0.6283 0.48004 0.0
N212 N 0.88283 0.61549 0.51014 0.0
C213 C 0.88292 0.71356 0.47955 0.0
C214 C 0.92594 0.73574 0.43519 0.0
C215 C 0.93166 0.74184 0.4681 0.0
C216 C 0.90912 0.73153 0.49025 0.0
C217 C 0.89942 0.71732 0.42554 0.0
N218 N 0.87952 0.70471 0.44793 0.0
H219 H 0.86577 0.70592 0.49701 0.0
H220 H 0.89624 0.71163 0.40032 0.0
H221 H 0.82065 0.66005 0.50893 0.0
H222 H 0.90044 0.62351 0.46245 0.0
O223 O 0.81236 0.69437 0.46162 0.0
O224 O 0.80687 0.64995 0.43222 0.0
O225 O 0.87122 0.64719 0.40861 0.0
C226 C 0.79415 0.6711 0.45086 0.0
H227 H 0.82986 0.71463 0.32201 0.0
H228 H 0.8494 0.62219 0.5486 0.0
H229 H 0.94268 0.74359 0.41724 0.0
H230 H 0.91208 0.73672 0.51575 0.0
Co231 Co 0.82659 0.9088 0.92603 0.0
C232 C 0.87671 0.94965 0.95948 0.0
C233 C 0.85909 0.97075 0.91616 0.0
C234 C 0.88106 0.99125 0.93035 0.0
N235 N 0.85653 0.94437 0.93408 0.0
N236 N 0.89209 0.97816 0.95766 0.0
H237 H 0.8798 0.93319 0.97903 0.0
H238 H 0.84535 0.97537 0.89464 0.0
C239 C 0.83217 0.90644 0.85405 0.0
O240 O 0.83853 0.87603 0.85475 0.0
N241 N 0.79521 0.87376 0.91837 0.0
C242 C 0.78476 0.85327 0.94085 0.0
C243 C 0.76333 0.83197 0.9271 0.0
C244 C 0.77823 0.86515 0.89135 0.0
N245 N 0.75926 0.83914 0.8958 0.0
C246 C 0.86269 0.85136 0.93048 0.0
C247 C 0.91214 0.87225 0.89263 0.0
C248 C 0.91176 0.84074 0.90301 0.0
C249 C 0.88694 0.83055 0.9228 0.0
C250 C 0.88725 0.89203 0.90045 0.0
N251 N 0.86212 0.8811 0.91791 0.0
H252 H 0.84445 0.84335 0.94648 0.0
H253 H 0.88768 0.91587 0.89124 0.0
H254 H 0.79238 0.8533 0.96581 0.0
H255 H 0.77926 0.87759 0.86886 0.0
O256 O 0.82383 0.90361 0.97174 0.0
O257 O 0.79349 0.93509 0.94216 0.0
O258 O 0.82417 0.92125 0.8796 0.0
C259 C 0.80207 0.92516 0.97052 0.0
H260 H 0.88745 1.01467 0.92185 0.0
H261 H 0.75138 0.81284 0.93949 0.0
H262 H 0.93143 0.88168 0.87841 0.0
H263 H 0.88587 0.8066 0.93192 0.0
Co264 Co 0.94396 0.12859 0.61661 0.0
C265 C 0.90399 0.16402 0.66679 0.0
C266 C 0.94227 0.19154 0.64735 0.0
C267 C 0.92625 0.21029 0.66873 0.0
N268 N 0.92928 0.16211 0.64652 0.0
N269 N 0.90206 0.19328 0.68119 0.0
H270 H 0.88743 0.14458 0.67082 0.0
H271 H 0.96122 0.19948 0.63203 0.0
C272 C 1.00842 0.14307 0.64632 0.0
O273 O 1.01055 0.11688 0.66289 0.0
N274 N 0.95915 0.09663 0.58473 0.0
C275 C 0.94115 0.08338 0.56075 0.0
C276 C 0.95879 0.06236 0.54333 0.0
C277 C 0.98824 0.08314 0.58084 0.0
N278 N 0.9885 0.06179 0.55571 0.0
C279 C 0.9365 0.06734 0.64361 0.0
C280 C 0.94387 0.085 0.70754 0.0
C281 C 0.93394 0.05391 0.69969 0.0
C282 C 0.9311 0.04502 0.66729 0.0
C283 C 0.94964 0.10662 0.68292 0.0
N284 N 0.94589 0.09776 0.65122 0.0
H285 H 0.93065 0.06034 0.61924 0.0
H286 H 0.95641 0.13069 0.68955 0.0
H287 H 0.91642 0.08801 0.55605 0.0
H288 H 1.0086 0.08841 0.59627 0.0
O289 O 0.90053 0.12026 0.6047 0.0
O290 O 0.93237 0.1558 0.58156 0.0
O291 O 0.98884 0.14501 0.62276 0.0
C292 C 0.90419 0.14272 0.58376 0.0
H293 H 0.93123 0.2352 0.67361 0.0
H294 H 0.95025 0.04875 0.5226 0.0
H295 H 0.9461 0.0928 0.73244 0.0
H296 H 0.92232 1.02161 0.66018 0.0
Co297 Co 0.70243 0.18421 0.36356 0.0
C298 C 0.74323 0.2233 0.3185 0.0
C299 C 0.76803 0.18499 0.3405 0.0
C300 C 0.78929 0.20257 0.32275 0.0
N301 N 0.73911 0.19791 0.33818 0.0
N302 N 0.77391 0.22682 0.3089 0.0
H303 H 0.72458 0.23956 0.31234 0.0
H304 H 0.77355 0.16459 0.35498 0.0
C305 C 0.72529 0.18509 0.43221 0.0
O306 O 0.69695 0.193 0.44202 0.0
N307 N 0.66561 0.16961 0.38915 0.0
C308 C 0.63664 0.18269 0.39026 0.0
C309 C 0.61679 0.16417 0.40856 0.0
C310 C 0.66241 0.14254 0.40674 0.0
N311 N 0.63272 0.13873 0.41906 0.0
C312 C 0.66974 0.242 0.35323 0.0
C313 C 0.69934 0.27764 0.4016 0.0
C314 C 0.67287 0.28982 0.38564 0.0
C315 C 0.65911 0.27233 0.36005 0.0
C316 C 0.70979 0.24736 0.39329 0.0
N317 N 0.69303 0.22877 0.37152 0.0
H318 H 0.65768 0.2285 0.3344 0.0
H319 H 0.73106 0.23913 0.40483 0.0
H320 H 0.62953 0.20389 0.37816 0.0
H321 H 0.68131 0.12576 0.40998 0.0
O322 O 0.67748 0.17696 0.32486 0.0
O323 O 0.70708 0.14102 0.34891 0.0
O324 O 0.73111 0.18188 0.40228 0.0
C325 C 0.68672 0.14774 0.32628 0.0
H326 H 0.81435 0.19791 0.3204 0.0
H327 H 0.59229 0.16931 0.41375 0.0
H328 H 0.71125 0.29103 0.4208 0.0
H329 H 0.63871 0.28098 0.34688 0.0
Co330 Co 0.58858 0.91099 0.18264 0.0
C331 C 0.63758 0.87912 0.22577 0.0
C332 C 0.60193 0.90391 0.25195 0.0
C333 C 0.62164 0.88926 0.27363 0.0
N334 N 0.61189 0.8981 0.22181 0.0
N335 N 0.64426 0.8735 0.25749 0.0
H336 H 0.65076 0.86929 0.2059 0.0
H337 H 0.58084 0.91689 0.25787 0.0
C338 C 0.57819 0.9789 0.19659 0.0
O339 O 0.58636 0.98402 0.16662 0.0
N340 N 0.56329 0.92271 0.14329 0.0
C341 C 0.56389 0.90717 0.11459 0.0
C342 C 0.54342 0.9209 0.09301 0.0
C343 C 0.54012 0.94473 0.13863 0.0
N344 N 0.52845 0.94491 0.10777 0.0
C345 C 0.63599 0.9293 0.13761 0.0
C346 C 0.67141 0.96837 0.17909 0.0
C347 C 0.6801 0.96548 0.14688 0.0
C348 C 0.66237 0.94544 0.12617 0.0
C349 C 0.64425 0.9521 0.18949 0.0
N350 N 0.62626 0.93375 0.16843 0.0
H351 H 0.62407 0.91258 0.12178 0.0
H352 H 0.63755 0.95443 0.21443 0.0
H353 H 0.57828 0.88686 0.1092 0.0
H354 H 0.53129 0.96 0.15744 0.0
O355 O 0.598 0.87106 0.16357 0.0
O356 O 0.55551 0.88024 0.19328 0.0
O357 O 0.57433 0.95036 0.20636 0.0
C358 C 0.57247 0.86012 0.17689 0.0
H359 H 0.61854 0.88919 0.29946 0.0
H360 H 0.54033 0.91385 0.068 0.0
H361 H 0.68543 0.98282 0.19591 0.0
H362 H 0.66955 0.94143 0.10148 0.0
Co363 Co 0.44516 0.63267 0.11498 0.0
C364 C 0.40557 0.66778 0.16526 0.0
C365 C 0.44577 0.69441 0.14839 0.0
C366 C 0.42983 0.71286 0.17012 0.0
N367 N 0.43104 0.66589 0.14531 0.0
N368 N 0.40447 0.6964 0.18112 0.0
H369 H 0.38836 0.64868 0.16812 0.0
H370 H 0.4665 0.70176 0.13511 0.0
C371 C 0.51363 0.63822 0.13855 0.0
O372 O 0.51393 0.6099 0.15132 0.0
N373 N 0.45986 0.60045 0.08302 0.0
C374 C 0.44068 0.58434 0.0619 0.0
C375 C 0.45836 0.56525 0.04236 0.0
C376 C 0.48964 0.59058 0.07519 0.0
N377 N 0.48931 0.56903 0.0503 0.0
C378 C 0.43442 0.57243 0.14267 0.0
C379 C 0.4526 0.58839 0.20508 0.0
C380 C 0.44121 0.55761 0.19804 0.0
C381 C 0.43216 0.54974 0.16643 0.0
C382 C 0.45498 0.6104 0.18027 0.0
N383 N 0.4465 0.60204 0.14935 0.0
H384 H 0.42509 0.56638 0.11912 0.0
H385 H 0.46366 0.63413 0.18593 0.0
H386 H 0.41513 0.58565 0.06074 0.0
H387 H 0.5112 0.59934 0.08673 0.0
O388 O 0.40186 0.62521 0.1021 0.0
O389 O 0.43487 0.66049 0.08011 0.0
O390 O 0.4898 0.64795 0.12255 0.0
C391 C 0.40667 0.64731 0.08098 0.0
H392 H 0.43618 0.73714 0.17648 0.0
H393 H 0.4488 0.54933 1.02388 0.0
H394 H 0.45934 0.59538 0.22945 0.0
H395 H 0.42196 0.52661 0.16034 0.0
Co396 Co 0.21033 0.67856 0.8676 0.0
C397 C 0.16796 0.63917 0.91117 0.0
C398 C 0.19679 0.61106 0.88002 0.0
C399 C 0.17842 0.59102 0.89831 0.0
N400 N 0.19018 0.64132 0.88763 0.0
N401 N 0.15998 0.60846 0.91793 0.0
H402 H 0.15747 0.65961 0.9226 0.0
H403 H 0.21408 0.60397 0.86243 0.0
C404 C 0.19229 0.66407 0.79858 0.0
O405 O 0.18267 0.69327 0.79452 0.0
N406 N 0.23204 0.71596 0.84815 0.0
C407 C 0.24008 0.74265 0.865 0.0
C408 C 0.25907 0.76199 0.84695 0.0
C409 C 0.24774 0.71958 0.81967 0.0
N410 N 0.26429 0.74775 0.81839 0.0
C411 C 0.16364 0.72715 0.87486 0.0
C412 C 0.11303 0.69104 0.8507 0.0
C413 C 0.10791 0.72194 0.86168 0.0
C414 C 0.13352 0.74018 0.8737 0.0
C415 C 0.14369 0.67918 0.85157 0.0
N416 N 0.16872 0.69734 0.86309 0.0
H417 H 0.18239 0.74068 0.88646 0.0
H418 H 0.14712 0.65494 0.84379 0.0
H419 H 0.23415 0.74753 0.88977 0.0
H420 H 0.24852 0.70147 0.80103 0.0
O421 O 0.22188 0.6942 0.91003 0.0
O422 O 0.25097 0.66248 0.8793 0.0
O423 O 0.20587 0.65628 0.82485 0.0
C424 C 0.24756 0.67782 0.90638 0.0
H425 H 0.17911 0.56538 0.89746 0.0
H426 H 0.26893 0.78477 0.85472 0.0
H427 H 0.0935 0.67615 0.84185 0.0
H428 H 0.13002 0.76384 0.8834 0.0
Co429 Co 0.07404 0.40575 0.69137 0.0
C430 C 0.12085 0.36483 0.72838 0.0
C431 C 0.10421 0.40442 0.75597 0.0
C432 C 0.12448 0.38722 0.77501 0.0
N433 N 0.10198 0.39083 0.7265 0.0
N434 N 0.13518 0.36218 0.75793 0.0
H435 H 0.12396 0.34825 0.70861 0.0
H436 H 0.09133 0.42513 0.76352 0.0
C437 C 0.08918 0.47488 0.692 0.0
O438 O 0.09289 0.47234 0.66069 0.0
N439 N 0.04432 0.42036 0.65645 0.0
C440 C 0.03208 0.40161 0.63251 0.0
C441 C 1.01322 0.41898 0.61229 0.0
C442 C 0.03011 0.44895 0.65105 0.0
N443 N 1.01211 0.44907 0.62344 0.0
C444 C 0.10976 0.39657 0.63459 0.0
C445 C 0.16578 0.42474 0.65695 0.0
C446 C 0.16412 0.41183 0.62578 0.0
C447 C 0.13584 0.3975 0.61473 0.0
C448 C 0.13867 0.42379 0.67601 0.0
N449 N 0.11084 0.41056 0.66431 0.0
H450 H 0.08918 0.38338 0.62634 0.0
H451 H 0.14008 0.43348 0.70022 0.0
H452 H 0.03633 0.37655 0.62952 0.0
H453 H 0.03257 0.46938 0.66686 0.0
O454 O 0.06497 0.3627 0.68014 0.0
O455 O 0.03745 0.39066 0.71567 0.0
O456 O 0.07974 0.45086 0.70823 0.0
C457 C 0.04214 0.36372 0.70062 0.0
H458 H 0.1301 0.39237 0.80006 0.0
H459 H 1.00082 0.40979 0.59107 0.0
H460 H 0.18765 0.43534 0.66638 0.0
H461 H 0.13424 0.38602 0.59123 0.0
Co462 Co 0.56204 0.65023 0.69297 0.0
C463 C 0.51948 0.6055 0.6528 0.0
C464 C 0.51788 0.59631 0.70332 0.0
C465 C 0.49863 0.57425 0.68732 0.0
N466 N 0.53133 0.61592 0.68175 0.0
N467 N 0.49963 0.58002 0.65546 0.0
H468 H 0.52549 0.6154 0.62995 0.0
H469 H 0.52222 0.59763 0.72904 0.0
C470 C 0.59545 0.59083 0.70562 0.0
O471 O 0.58577 0.58113 0.67689 0.0
N472 N 0.59204 0.68468 0.70451 0.0
C473 C 0.60001 0.70845 0.68462 0.0
C474 C 0.61915 0.73006 0.70094 0.0
C475 C 0.60642 0.6925 0.73312 0.0
N476 N 0.62319 0.72041 0.7316 0.0
C477 C 0.56997 0.65541 0.62496 0.0
C478 C 0.63235 0.63662 0.62337 0.0
C479 C 0.61715 0.64541 0.59476 0.0
C480 C 0.58572 0.65522 0.59573 0.0
C481 C 0.6158 0.63762 0.65219 0.0
N482 N 0.58437 0.64514 0.65252 0.0
H483 H 0.54615 0.66439 0.62537 0.0
H484 H 0.62872 0.63351 0.67431 0.0
H485 H 0.59189 0.71038 0.65993 0.0
H486 H 0.60378 0.67867 0.75474 0.0
O487 O 0.53229 0.68075 0.67899 0.0
O488 O 0.53599 0.66284 0.72904 0.0
O489 O 0.58916 0.6187 0.71587 0.0
C490 C 0.52254 0.68162 0.70848 0.0
H491 H 0.48485 0.55552 0.6984 0.0
H492 H 0.62927 0.75143 0.69078 0.0
H493 H 0.65725 0.63058 0.6237 0.0
H494 H 0.57363 0.66323 0.57421 0.0
Co495 Co 0.35893 0.38006 0.42156 0.0
C496 C 0.3847 0.42724 0.47008 0.0
C497 C 0.35379 0.44857 0.43532 0.0
C498 C 0.36527 0.47188 0.4562 0.0
N499 N 0.36612 0.42063 0.44383 0.0
N500 N 0.38484 0.45858 0.47806 0.0
H501 H 0.39843 0.40959 0.48251 0.0
H502 H 0.33765 0.45183 0.41521 0.0
C503 C 0.37224 0.39292 0.35327 0.0
O504 O 0.38592 0.36515 0.352 0.0
N505 N 0.35006 0.33942 0.39901 0.0
C506 C 0.36414 0.31109 0.40228 0.0
C507 C 0.34948 0.2892 0.38186 0.0
C508 C 0.32632 0.33378 0.37697 0.0
N509 N 0.32569 0.30335 0.3658 0.0
C510 C 0.41971 0.35376 0.43924 0.0
C511 C 0.45548 0.39977 0.40875 0.0
C512 C 0.47124 0.37559 0.42483 0.0
C513 C 0.45289 0.35261 0.44078 0.0
C514 C 0.42255 0.3996 0.40731 0.0
N515 N 0.40489 0.37577 0.4208 0.0
H516 H 0.40601 0.33755 0.45368 0.0
H517 H 0.41134 0.41977 0.39657 0.0
H518 H 0.38344 0.30585 0.41839 0.0
H519 H 0.31023 0.35184 0.36884 0.0
O520 O 0.35028 0.36095 0.46242 0.0
O521 O 0.31469 0.38289 0.42981 0.0
O522 O 0.35908 0.40218 0.37917 0.0
C523 C 0.32111 0.36949 0.45713 0.0
H524 H 0.35937 0.49674 0.45539 0.0
H525 H 0.35565 0.26447 0.37946 0.0
H526 H 0.4684 0.41921 0.39782 0.0
H527 H 0.46391 0.33387 0.45431 0.0
H528 H 0.16545 0.23352 0.24643 0.0
H529 H 0.34026 0.25553 0.32461 0.0
H530 H 0.2497 0.19086 0.20876 0.0
H531 H 0.26376 0.3169 0.35089 0.0
H532 H 0.30539 0.22887 0.28519 0.0
H533 H 0.19861 0.26111 0.28796 0.0
C534 C 0.1908 0.22973 0.24703 0.0
C535 C 0.20475 0.20988 0.22386 0.0
C536 C 0.29606 0.24816 0.29948 0.0
C537 C 0.24287 0.2414 0.27129 0.0
C538 C 0.31602 0.26337 0.32223 0.0
C539 C 0.30504 0.28851 0.3414 0.0
C540 C 0.26444 0.25773 0.29568 0.0
C541 C 0.27337 0.29781 0.33658 0.0
C542 C 0.20976 0.24568 0.27057 0.0
C543 C 0.23784 0.20615 0.22572 0.0
N544 N 0.25415 0.28232 0.31439 0.0
N545 N 0.25557 0.22159 0.24887 0.0
H546 H 0.05304 0.07342 0.55686 0.0
H547 H 0.09049 0.92193 0.44234 0.0
H548 H 0.98231 1.0044 0.52504 0.0
H549 H 0.16249 0.98824 0.47745 0.0
H550 H 0.05096 0.95076 0.47388 0.0
H551 H 0.09388 0.04172 0.52984 0.0
C552 C 0.04606 0.05155 0.54456 0.0
C553 C 1.01387 0.04204 0.5431 0.0
C554 C 0.07546 0.95899 0.47467 0.0
C555 C 0.0607 1.00547 0.51159 0.0
C556 C 0.09817 0.94235 0.45665 0.0
C557 C 0.13018 0.95259 0.45652 0.0
C558 C 0.08454 0.98622 0.49299 0.0
C559 C 0.13824 0.97953 0.47584 0.0
C560 C 0.0694 0.03347 0.52888 0.0
C561 C 1.00652 1.01332 0.52643 0.0
N562 N 0.11578 0.99527 0.49297 0.0
N563 N 0.02948 0.99637 0.51138 0.0
H564 H 0.25744 0.74303 0.75265 0.0
H565 H 0.3978 0.87211 0.72053 0.0
H566 H 0.31803 0.78361 0.82733 0.0
H567 H 0.33741 0.83178 0.64536 0.0
H568 H 0.37113 0.83745 0.75944 0.0
H569 H 0.28864 0.77236 0.71237 0.0
C570 C 0.27751 0.75766 0.76057 0.0
C571 C 0.28475 0.76096 0.7936 0.0
C572 C 0.36374 0.83619 0.73438 0.0
C573 C 0.32055 0.79511 0.74758 0.0
C574 C 0.37913 0.856 0.71206 0.0
C575 C 0.36976 0.85559 0.6794 0.0
C576 C 0.33874 0.81549 0.72418 0.0
C577 C 0.34519 0.83389 0.6702 0.0
C578 C 0.29523 0.77467 0.73759 0.0
C579 C 0.31104 0.78065 0.8023 0.0
N580 N 0.33062 0.81502 0.6923 0.0
N581 N 0.32769 0.79695 0.77966 0.0
H582 H 0.40067 0.03903 0.97158 0.0
H583 H 0.51342 1.00542 0.12673 0.0
H584 H 0.422 0.10772 0.04689 0.0
H585 H 0.49279 0.93517 0.05261 0.0
H586 H 0.47961 0.0428 0.09782 0.0
H587 H 0.43494 1.00088 0.99964 0.0
C588 C 0.41267 0.04626 0.99375 0.0
C589 C 0.40791 0.07676 1.00685 0.0
C590 C 0.48244 1.01917 0.08786 0.0
C591 C 0.44718 0.0329 0.03954 0.0
C592 C 0.50166 0.99762 0.10462 0.0
C593 C 0.50643 0.9668 0.09235 0.0
C594 C 0.46755 1.01014 0.05839 0.0
C595 C 0.49053 0.95861 0.06309 0.0
C596 C 0.43211 1.02436 1.00998 0.0
C597 C 0.42419 0.08445 0.03597 0.0
N598 N 0.47205 0.97997 0.04727 0.0
N599 N 0.44278 0.06287 0.05116 0.0
H600 H 0.41281 0.74549 0.2244 0.0
H601 H 0.23553 0.73669 0.29264 0.0
H602 H 0.34307 0.67567 0.19175 0.0
H603 H 0.29938 0.81606 0.31174 0.0
H604 H 0.27591 0.71195 0.25978 0.0
H605 H 0.37352 0.76873 0.25966 0.0
C606 C 0.38922 0.73496 0.22432 0.0
C607 C 0.38148 0.70858 0.20419 0.0
C608 C 0.28122 0.73476 0.2711 0.0
C609 C 0.33583 0.73537 0.2459 0.0
C610 C 0.25797 0.74918 0.28992 0.0
C611 C 0.26345 0.77911 0.30487 0.0
C612 C 0.3108 0.74991 0.26702 0.0
C613 C 0.29374 0.79315 0.30089 0.0
C614 C 0.3667 0.74835 0.24483 0.0
C615 C 0.35045 0.69585 0.20654 0.0
N616 N 0.31608 0.77854 0.28234 0.0
N617 N 0.3289 0.70936 0.2268 0.0
H618 H 0.50332 1.01332 0.52206 0.0
H619 H 0.66427 0.09925 0.46027 0.0
H620 H 0.59644 0.99316 0.56029 0.0
H621 H 0.5706 0.1199 0.424 0.0
H622 H 0.64041 0.05942 0.49605 0.0
H623 H 0.52766 0.05224 0.48603 0.0
C624 C 0.52879 1.01704 0.52315 0.0
C625 C 0.54759 0.99941 0.54449 0.0
C626 C 0.62509 0.07269 0.48022 0.0
C627 C 0.57601 0.04425 0.50256 0.0
C628 C 0.6388 0.09536 0.45957 0.0
C629 C 0.61961 0.11346 0.43904 0.0
C630 C 0.59185 0.06776 0.48041 0.0
C631 C 0.58655 0.10723 0.43964 0.0
C632 C 0.54279 0.03927 0.50231 0.0
C633 C 0.58071 1.0055 0.54416 0.0
N634 N 0.57389 0.08517 0.45983 0.0
N635 N 0.5937 1.02718 0.52369 0.0
H636 H 0.22726 0.18469 0.80541 0.0
H637 H 0.1794 0.36864 0.80641 0.0
H638 H 0.2708 0.25425 0.86989 0.0
H639 H 0.1405 0.29981 0.7384 0.0
H640 H 0.21236 0.32754 0.82989 0.0
H641 H 0.19539 0.22609 0.78153 0.0
C642 C 0.23049 0.20866 0.8146 0.0
C643 C 0.25253 0.21557 0.8398 0.0
C644 C 0.1967 0.3213 0.80982 0.0
C645 C 0.21481 0.26394 0.81211 0.0
C646 C 0.1776 0.34487 0.79633 0.0
C647 C 0.15658 0.33799 0.77029 0.0
C648 C 0.19511 0.29009 0.79753 0.0
C649 C 0.15623 0.30658 0.75821 0.0
C650 C 0.21191 0.23245 0.80084 0.0
C651 C 0.25435 0.24739 0.85073 0.0
N652 N 0.17494 0.28395 0.77197 0.0
N653 N 0.23593 0.2702 0.83685 0.0
H654 H 0.03847 0.0974 0.04922 0.0
H655 H 0.89192 0.97399 1.02317 0.0
H656 H 0.97157 0.07471 0.1236 0.0
H657 H 0.9417 1.01774 0.9448 0.0
H658 H 0.92595 1.00446 0.06148 0.0
H659 H 1.00823 0.06238 1.01178 0.0
C660 C 1.01758 0.08494 0.05777 0.0
C661 C 1.00747 0.08933 0.08962 0.0
C662 C 0.92954 1.00724 0.03588 0.0
C663 C 0.97273 0.04893 0.04685 0.0
C664 C 0.91028 0.98963 1.01403 0.0
C665 C 0.91383 0.99338 0.98068 0.0
C666 C 0.95288 1.02846 1.02439 0.0
C667 C 0.93786 1.01435 0.97025 0.0
C668 C 1.00021 0.06504 0.03633 0.0
C669 C 0.98002 0.07255 0.09919 0.0
N670 N 0.9564 0.03101 0.99192 0.0
N671 N 0.96373 0.05315 0.07802 0.0
H672 H 0.83806 0.18037 0.68419 0.0
H673 H 0.8081 0.31673 0.81926 0.0
H674 H 0.91309 0.23636 0.72938 0.0
H675 H 0.73325 0.2718 0.76255 0.0
H676 H 0.84675 0.28247 0.79212 0.0
H677 H 0.7993 0.20827 0.71794 0.0
C678 C 0.84647 0.1981 0.70153 0.0
C679 C 0.879 0.20604 0.70366 0.0
C680 C 0.82181 0.27993 0.78579 0.0
C681 C 0.83462 0.23845 0.74248 0.0
C682 C 0.79969 0.29939 0.80153 0.0
C683 C 0.76725 0.29749 0.79314 0.0
C684 C 0.81153 0.25803 0.76163 0.0
C685 C 0.75797 0.27457 0.7696 0.0
C686 C 0.8243 0.21428 0.72067 0.0
C687 C 0.8883 0.22962 0.7265 0.0
N688 N 0.77981 0.25599 0.75475 0.0
N689 N 0.86642 0.2449 0.74477 0.0
H690 H 0.13009 0.55037 0.91604 0.0
H691 H 0.03852 0.57396 0.08312 0.0
H692 H 0.13616 0.63709 0.97224 0.0
H693 H 0.03467 0.48698 0.02718 0.0
H694 H 0.07263 0.5978 0.04254 0.0
H695 H 0.09412 0.52785 0.95552 0.0
C696 C 0.1241 0.56479 0.93673 0.0
C697 C 0.13688 0.5958 0.94068 0.0
C698 C 0.06434 0.57351 0.03906 0.0
C699 C 0.09461 0.56971 0.98651 0.0
C700 C 0.04485 0.55966 0.06245 0.0
C701 C 0.03359 0.52801 0.05912 0.0
C702 C 0.07297 0.55586 1.01171 0.0
C703 C 0.0424 0.51135 0.03107 0.0
C704 C 0.10323 0.55181 0.95933 0.0
C705 C 0.12712 0.61322 0.96789 0.0
N706 N 0.06153 0.52537 1.00871 0.0
N707 N 0.10681 0.59993 0.98971 0.0
H708 H 0.78027 0.72616 0.3022 0.0
H709 H 0.66875 0.87827 0.31868 0.0
H710 H 0.77109 0.77922 0.39096 0.0
H711 H 0.67621 0.82323 0.23094 0.0
H712 H 0.70627 0.84315 0.34495 0.0
H713 H 0.7429 0.76142 0.27616 0.0
C714 C 0.77063 0.74533 0.31637 0.0
C715 C 0.77956 0.74965 0.34906 0.0
C716 C 0.69978 0.83865 0.31997 0.0
C717 C 0.73564 0.79063 0.31873 0.0
C718 C 0.67809 0.85875 0.30479 0.0
C719 C 0.66864 0.85383 0.27231 0.0
C720 C 0.71263 0.81306 0.30285 0.0
C721 C 0.68259 0.8283 0.25582 0.0
C722 C 0.74897 0.7655 0.30131 0.0
C723 C 0.76514 0.7747 0.36588 0.0
N724 N 0.70363 0.80896 0.27123 0.0
N725 N 0.74416 0.7942 0.35056 0.0
H726 H 0.91824 0.56905 0.48148 0.0
H727 H 0.98859 0.50377 0.65041 0.0
H728 H 0.89852 0.61141 0.57392 0.0
H729 H 0.99831 0.4549 0.55932 0.0
H730 H 0.95939 0.54575 0.62251 0.0
H731 H 0.9515 0.52975 0.50885 0.0
C732 C 0.92108 0.57038 0.50741 0.0
C733 C 0.90508 0.59365 0.52521 0.0
C734 C 0.96794 0.52581 0.60862 0.0
C735 C 0.94332 0.54833 0.55708 0.0
C736 C 0.9848 0.5018 0.62463 0.0
C737 C 0.99581 0.47519 0.60754 0.0
C738 C 0.96218 0.52366 0.57505 0.0
C739 C 0.98988 0.47434 0.57392 0.0
C740 C 0.93996 0.54773 0.52316 0.0
C741 C 0.90975 0.59376 0.559 0.0
N742 N 0.97365 0.49795 0.559 0.0
N743 N 0.92821 0.57165 0.57364 0.0
H744 H 0.60051 0.45628 0.91651 0.0
H745 H 0.54855 0.55576 0.0748 0.0
H746 H 0.66109 0.47055 1.00014 0.0
H747 H 0.49028 0.54458 0.98909 0.0
H748 H 0.59009 0.5248 0.04823 0.0
H749 H 0.55935 0.48731 0.94336 0.0
C750 C 0.60519 0.46567 0.94052 0.0
C751 C 0.6347 0.46078 0.95573 0.0
C752 C 0.56815 0.52914 0.03527 0.0
C753 C 0.58742 0.49688 0.98684 0.0
C754 C 0.54445 0.54707 0.05043 0.0
C755 C 0.51541 0.55274 0.03455 0.0
C756 C 0.56304 0.51672 1.00383 0.0
C757 C 0.51173 0.54046 1.00286 0.0
C758 C 0.58168 0.48365 0.95585 0.0
C759 C 0.63914 0.47398 0.98697 0.0
N760 N 0.53499 0.52315 0.98877 0.0
N761 N 0.61599 0.49128 1.0013 0.0
H762 H 0.63661 0.78392 0.73466 0.0
H763 H 0.74018 0.77694 0.89781 0.0
H764 H 0.65087 0.69712 0.7865 0.0
H765 H 0.73276 0.86072 0.83971 0.0
H766 H 0.70609 0.74797 0.85911 0.0
H767 H 0.66968 0.81238 0.77423 0.0
C768 C 0.6468 0.77063 0.75424 0.0
C769 C 0.64109 0.73769 0.75668 0.0
C770 C 0.71186 0.77269 0.8548 0.0
C771 C 0.67917 0.77088 0.80302 0.0
C772 C 0.73127 0.78945 0.87708 0.0
C773 C 0.73941 0.82166 0.87241 0.0
C774 C 0.70014 0.78803 0.82739 0.0
C775 C 0.72745 0.83603 0.84447 0.0
C776 C 0.66569 0.78712 0.77705 0.0
C777 C 0.65444 0.72239 0.78345 0.0
N778 N 0.70843 0.81921 0.82322 0.0
N779 N 0.67288 0.73904 0.80542 0.0
H780 H 0.74806 0.25783 0.25755 0.0
H781 H 0.90668 0.36206 0.22285 0.0
H782 H 0.83359 0.25224 0.31505 0.0
H783 H 0.83313 0.34442 0.15148 0.0
H784 H 0.8769 0.32861 0.26078 0.0
H785 H 0.77533 0.29611 0.22238 0.0
C786 C 0.7724 0.26487 0.26301 0.0
C787 C 0.7885 0.25144 0.28926 0.0
C788 C 0.86719 0.3322 0.23686 0.0
C789 C 0.82003 0.29557 0.24908 0.0
C790 C 0.88414 0.35151 0.21525 0.0
C791 C 0.87263 0.35603 0.18372 0.0
C792 C 0.83813 0.31761 0.22722 0.0
C793 C 0.84324 0.34139 0.1753 0.0
C794 C 0.78808 0.2866 0.2428 0.0
C795 C 0.82025 0.26148 0.29491 0.0
N796 N 0.82712 0.32303 0.19677 0.0
N797 N 0.83482 0.2828 0.27517 0.0
H798 H 0.40667 0.43433 0.53485 0.0
H799 H 0.483 0.60124 0.59586 0.0
H800 H 0.4038 0.5207 0.4803 0.0
H801 H 0.47898 0.51813 0.65542 0.0
H802 H 0.45612 0.57111 0.55256 0.0
H803 H 0.43526 0.46338 0.57828 0.0
C804 C 0.41214 0.4593 0.53186 0.0
C805 C 0.40249 0.475 0.50376 0.0
C806 C 0.4611 0.5594 0.57509 0.0
C807 C 0.43525 0.50858 0.55363 0.0
C808 C 0.47668 0.57662 0.59988 0.0
C809 C 0.48344 0.56237 0.62958 0.0
C810 C 0.45216 0.52746 0.5797 0.0
C811 C 0.47404 0.53036 0.63322 0.0
C812 C 0.42834 0.47595 0.55679 0.0
C813 C 0.41014 0.50756 0.50156 0.0
N814 N 0.45901 0.51405 0.60865 0.0
N815 N 0.42598 0.52312 0.526 0.0
H816 H 0.13246 1.01116 0.18925 0.0
H817 H 0.10756 0.90343 0.34303 0.0
H818 H 0.08405 0.04218 0.27481 0.0
H819 H 0.18807 0.89905 0.28009 0.0
H820 H 0.08324 0.9422 0.30703 0.0
H821 H 0.13693 0.95835 0.21212 0.0
C822 C 0.12263 1.00679 0.2128 0.0
C823 C 0.10888 0.0313 0.23074 0.0
C824 C 0.10578 0.93196 0.30071 0.0
C825 C 0.11319 0.97092 0.25644 0.0
C826 C 0.11951 0.90981 0.32102 0.0
C827 C 0.14993 0.89866 0.31447 0.0
C828 C 0.12252 0.9423 0.27369 0.0
C829 C 0.16473 0.90762 0.28598 0.0
C830 C 0.12487 0.97662 0.22559 0.0
C831 C 0.09527 1.02404 0.26046 0.0
N832 N 0.15099 0.92926 0.26669 0.0
N833 N 0.09824 0.9945 0.27271 0.0
H834 H 0.30737 0.8252 0.44499 0.0
H835 H 0.3798 0.98571 0.51762 0.0
H836 H 0.2751 0.91713 0.41515 0.0
H837 H 0.42893 0.89668 0.52067 0.0
H838 H 0.34218 0.962 0.47826 0.0
H839 H 0.35287 0.85126 0.47217 0.0
C840 C 0.30996 0.85078 0.44392 0.0
C841 C 0.28721 0.86897 0.42804 0.0
C842 C 0.36155 0.94788 0.4872 0.0
C843 C 0.33896 0.89898 0.45923 0.0
C844 C 0.3831 0.96147 0.50953 0.0
C845 C 0.40719 0.94302 0.52286 0.0
C846 C 0.36408 0.91563 0.47853 0.0
C847 C 0.41034 0.91167 0.51149 0.0
C848 C 0.33598 0.86567 0.45933 0.0
C849 C 0.29188 0.9021 0.4273 0.0
N850 N 0.38874 0.89883 0.49043 0.0
N851 N 0.31699 0.91606 0.44302 0.0
H852 H 0.38013 1.0082 0.70976 0.0
H853 H 0.44102 0.1276 0.84962 0.0
H854 H 0.46437 0.06729 0.7009 0.0
H855 H 0.35198 0.07526 0.85041 0.0
H856 H 0.45166 0.10478 0.79612 0.0
H857 H 0.36968 0.03345 0.76126 0.0
C858 C 0.39611 1.027 0.71823 0.0
C859 C 0.42321 0.03556 0.70079 0.0
C860 C 0.42988 0.09827 0.80815 0.0
C861 C 0.41192 0.06394 0.76076 0.0
C862 C 0.42398 0.111 0.83877 0.0
C863 C 0.39558 0.10332 0.85442 0.0
C864 C 0.40726 0.07768 0.79336 0.0
C865 C 0.37411 0.082 0.83915 0.0
C866 C 0.39035 0.04115 0.74799 0.0
C867 C 0.44341 0.0596 0.71367 0.0
N868 N 0.38037 0.07002 0.80953 0.0
N869 N 0.4375 0.07279 0.74302 0.0
H870 H 0.27009 0.07228 0.96554 0.0
H871 H 0.11646 0.12942 0.05714 0.0
H872 H 0.23794 0.16888 0.96944 0.0
H873 H 0.17569 0.05653 0.09629 0.0
H874 H 0.15015 0.13199 1.00992 0.0
H875 H 0.22592 0.05636 1.0003 0.0
C876 C 0.2534 0.08999 0.9733 0.0
C877 C 0.25755 0.12197 0.96494 0.0
C878 C 0.15534 0.1149 0.02846 0.0
C879 C 0.20718 0.10384 1.00366 0.0
C880 C 0.13611 0.11327 0.05525 0.0
C881 C 0.1438 0.09306 0.08063 0.0
C882 C 0.18249 0.09631 0.02719 0.0
C883 C 0.16924 0.07245 0.0771 0.0
C884 C 0.2284 0.08088 0.99307 0.0
C885 C 0.2356 0.14408 0.97565 0.0
N886 N 0.18826 0.075 0.05095 0.0
N887 N 0.21125 0.13456 0.99449 0.0
H888 H 0.09544 0.2422 0.10221 0.0
H889 H 1.01539 0.3906 0.18653 0.0
H890 H 0.06294 0.24122 0.2005 0.0
H891 H 0.0239 0.37754 0.0837 0.0
H892 H 0.04501 0.3419 0.19478 0.0
H893 H 0.08088 0.29737 0.09833 0.0
C894 C 0.08518 0.25361 0.12306 0.0
C895 C 0.07981 0.23699 0.1516 0.0
C896 C 0.0408 0.35004 0.17048 0.0
C897 C 0.06322 0.30033 0.1472 0.0
C898 C 0.02414 0.37787 0.16573 0.0
C899 C 1.01689 0.38767 0.13435 0.0
C900 C 0.05036 0.3323 0.14364 0.0
C901 C 0.0287 0.37047 0.10825 0.0
C902 C 0.07701 0.28519 0.1208 0.0
C903 C 0.06699 0.25315 0.17794 0.0
N904 N 0.04464 0.34337 0.11349 0.0
N905 N 0.05882 0.28406 0.17503 0.0
H906 H 0.61258 0.24741 0.905 0.0
H907 H 0.43232 0.27622 0.95523 0.0
H908 H 0.58254 0.33377 0.95132 0.0
H909 H 0.46332 0.2 0.89346 0.0
H910 H 0.48782 0.29456 0.96135 0.0
H911 H 0.55887 0.22545 0.90997 0.0
C912 C 0.59476 0.26144 0.91689 0.0
C913 C 0.60186 0.29249 0.92752 0.0
C914 C 0.48236 0.27386 0.94644 0.0
C915 C 0.54016 0.26791 0.93262 0.0
C916 C 0.45075 0.26347 0.94287 0.0
C917 C 0.44315 0.23685 0.92339 0.0
C918 C 0.50646 0.25722 0.93078 0.0
C919 C 0.46795 0.22108 0.90806 0.0
C920 C 0.56405 0.24905 0.91949 0.0
C921 C 0.57801 0.30966 0.94291 0.0
N922 N 0.4984 0.23148 0.91211 0.0
N923 N 0.54801 0.29732 0.94458 0.0
H924 H 0.97019 0.7215 0.51665 0.0
H925 H 0.12931 0.75525 0.49415 0.0
H926 H 0.96252 0.7948 0.44548 0.0
H927 H 0.10142 0.85212 0.48099 0.0
H928 H 0.07427 0.74086 0.50619 0.0
H929 H 0.02345 0.74162 0.53115 0.0
C930 C 0.97953 0.74216 0.50444 0.0
C931 C 0.96214 0.75631 0.47951 0.0
C932 C 0.08035 0.76556 0.50219 0.0
C933 C 0.02297 0.77912 0.49578 0.0
C934 C 0.11183 0.77375 0.49553 0.0
C935 C 0.11978 0.80488 0.48684 0.0
C936 C 0.05676 0.78857 0.49922 0.0
C937 C 0.09618 0.82792 0.48798 0.0
C938 C 1.00996 0.75343 0.51259 0.0
C939 C 0.97539 0.78291 0.46443 0.0
N940 N 0.06546 0.8191 0.49293 0.0
N941 N 1.00512 0.79339 0.47271 0.0
H942 H 0.46354 0.69362 0.68661 0.0
H943 H 0.5079 0.87764 0.6944 0.0
H944 H 0.53871 0.73057 0.74833 0.0
H945 H 0.46581 0.8259 0.61374 0.0
H946 H 0.5072 0.82835 0.72566 0.0
H947 H 0.44753 0.74774 0.67528 0.0
C948 C 0.47546 0.71318 0.69928 0.0
C949 C 0.50264 0.70794 0.718 0.0
C950 C 0.49808 0.82804 0.70114 0.0
C951 C 0.48592 0.76949 0.70375 0.0
C952 C 0.49892 0.85588 0.68318 0.0
C953 C 0.4875 0.85563 0.65125 0.0
C954 C 0.48504 0.80018 0.68718 0.0
C955 C 0.47548 0.82706 0.63803 0.0
C956 C 0.46681 0.74404 0.69228 0.0
C957 C 0.51761 0.73391 0.73365 0.0
N958 N 0.47446 0.80056 0.65609 0.0
N959 N 0.50978 0.76387 0.72525 0.0
H960 H 0.94589 0.99059 0.70533 0.0
H961 H 0.81406 0.96641 0.83998 0.0
H962 H 0.89397 0.06691 0.749 0.0
H963 H 0.87366 0.89088 0.80642 0.0
H964 H 0.83987 1.00241 0.80261 0.0
H965 H 0.91835 0.95292 0.74014 0.0
C966 C 0.929 0.99942 0.7226 0.0
C967 C 0.92219 0.03186 0.72439 0.0
C968 C 0.84713 0.9779 0.80316 0.0
C969 C 0.89025 0.98901 0.76371 0.0
C970 C 0.83221 0.95727 0.82428 0.0
C971 C 0.84195 0.92571 0.82647 0.0
C972 C 0.872 0.96691 0.78407 0.0
C973 C 0.86539 0.91503 0.80544 0.0
C974 C 0.91319 0.97793 0.74229 0.0
C975 C 0.90021 0.04215 0.74714 0.0
N976 N 0.87991 0.93573 0.78531 0.0
N977 N 0.88483 1.02074 0.76575 0.0
H978 H 0.84147 0.12989 0.59254 0.0
H979 H 0.78863 0.18916 0.42022 0.0
H980 H 0.90633 0.17691 0.52827 0.0
H981 H 0.72188 0.17486 0.49704 0.0
H982 H 0.83226 0.18216 0.45849 0.0
H983 H 0.79733 0.14356 0.55694 0.0
C984 C 0.84638 0.14316 0.57093 0.0
C985 C 0.87753 0.15213 0.5631 0.0
C986 C 0.80809 0.1808 0.46702 0.0
C987 C 0.8273 0.16767 0.52236 0.0
C988 C 0.78317 0.1846 0.4452 0.0
C989 C 0.75162 0.18236 0.45553 0.0
C990 C 0.80141 0.17423 0.49928 0.0
C991 C 0.74589 0.17675 0.48816 0.0
C992 C 0.82118 0.15109 0.55076 0.0
C993 C 0.88261 0.16953 0.53506 0.0
N994 N 0.77062 0.17253 0.50889 0.0
N995 N 0.85771 0.17649 0.51545 0.0
H996 H 0.69204 0.08368 0.3327 0.0
H997 H 0.58826 0.97473 0.26189 0.0
H998 H 0.64383 0.15445 0.27696 0.0
H999 H 0.58257 0.04228 0.1848 0.0
H1000 H 0.61291 1.01575 0.29635 0.0
H1001 H 0.66015 0.04244 0.30537 0.0
C1002 C 0.67484 0.09052 0.31457 0.0
C1003 C 0.67059 0.12252 0.30704 0.0
C1004 C 0.60632 1.02158 0.27188 0.0
C1005 C 0.63302 0.07555 0.27662 0.0
C1006 C 0.59162 0.99832 0.25238 0.0
C1007 C 0.58402 1.00489 0.22017 0.0
C1008 C 0.61342 0.05152 0.25898 0.0
C1009 C 0.58863 0.03603 0.20931 0.0
C1010 C 0.65614 0.06699 0.29944 0.0
C1011 C 0.64788 0.13004 0.28345 0.0
N1012 N 0.6034 0.05813 0.22857 0.0
N1013 N 0.63001 0.10668 0.26894 0.0
H1014 H 0.74043 0.94821 0.15984 0.0
H1015 H 0.76326 0.9761 0.97565 0.0
H1016 H 0.68517 1.01258 0.10332 0.0
H1017 H 0.81691 0.91031 0.03261 0.0
H1018 H 0.7453 1.0015 1.02514 0.0
H1019 H 0.7813 0.94906 0.11867 0.0
C1020 C 0.73781 0.96395 0.13958 0.0
C1021 C 0.70931 0.97974 0.13431 0.0
C1022 C 0.76127 0.98171 0.02685 0.0
C1023 C 0.7547 0.97959 0.08663 0.0
C1024 C 0.77116 0.96694 0.9986 0.0
C1025 C 0.79076 0.94046 1.00012 0.0
C1026 C 0.77076 0.96966 0.05681 0.0
C1027 C 0.80111 0.93017 0.0304 0.0
C1028 C 0.76084 0.96402 0.11576 0.0
C1029 C 0.7068 0.99972 0.10776 0.0
N1030 N 0.7906 0.9445 0.05759 0.0
N1031 N 0.72875 0.99826 0.08422 0.0
H1032 H 0.05731 0.69801 0.89395 0.0
H1033 H 0.94237 0.83794 0.8452 0.0
H1034 H 0.08621 0.77487 0.83268 0.0
H1035 H 0.93932 0.79354 0.93847 0.0
H1036 H 0.98756 0.80525 0.83135 0.0
H1037 H 1.00566 0.72331 0.90105 0.0
C1038 C 0.05243 0.7199 0.88156 0.0
C1039 C 0.07572 0.73463 0.86283 0.0
C1040 C 0.97673 0.8026 0.85472 0.0
C1041 C 1.01736 0.76325 0.87059 0.0
C1042 C 0.95114 0.82139 0.86281 0.0
C1043 C 0.93734 0.819 0.89335 0.0
C1044 C 0.98828 0.78088 0.87706 0.0
C1045 C 0.94905 0.7962 0.91464 0.0
C1046 C 0.02322 0.73433 0.88574 0.0
C1047 C 0.06869 0.76304 0.84741 0.0
N1048 N 0.97399 0.77807 0.90612 0.0
N1049 N 0.04003 0.77653 0.85164 0.0
H1050 H 0.52231 0.65909 0.19996 0.0
H1051 H 0.53235 0.82382 0.2141 0.0
H1052 H 0.55076 0.67604 0.1023 0.0
H1053 H 0.59706 0.81848 0.13448 0.0
H1054 H 0.52488 0.76589 0.21073 0.0
H1055 H 0.53922 0.7134 0.2147 0.0
C1056 C 0.53349 0.67386 0.18201 0.0
C1057 C 0.53552 0.66326 0.14997 0.0
C1058 C 0.54118 0.77738 0.19445 0.0
C1059 C 0.55303 0.72549 0.16599 0.0
C1060 C 0.54491 0.81046 0.19597 0.0
C1061 C 0.56523 0.82587 0.1745 0.0
C1062 C 0.55789 0.75993 0.17121 0.0
C1063 C 0.58118 0.80755 0.15157 0.0
C1064 C 0.54225 0.70509 0.19018 0.0
C1065 C 0.54922 0.68339 0.12731 0.0
N1066 N 0.57699 0.77564 0.15041 0.0
N1067 N 0.55722 0.71371 0.13569 0.0
H1068 H 1.01483 0.16012 0.71018 0.0
H1069 H 0.99523 0.3394 0.66304 0.0
H1070 H 0.02595 0.19593 0.61401 0.0
H1071 H 0.05277 0.32002 0.74671 0.0
H1072 H 0.98821 0.28229 0.65348 0.0
H1073 H 1.0168 0.21513 0.73114 0.0
C1074 C 1.01877 0.17942 0.69362 0.0
C1075 C 1.0201 0.17355 0.66025 0.0
C1076 C 1.00145 0.29058 0.67459 0.0
C1077 C 1.02054 0.23587 0.68382 0.0
C1078 C 1.00479 0.32308 0.68049 0.0
C1079 C 0.02421 0.33428 0.70591 0.0
C1080 C 1.01762 0.26925 0.69433 0.0
C1081 C 0.03708 0.31214 0.72722 0.0
C1082 C 1.0193 0.21069 0.70556 0.0
C1083 C 0.02472 0.19944 0.63985 0.0
N1084 N 0.03405 0.28046 0.72067 0.0
N1085 N 0.02404 0.22949 0.65186 0.0
H1086 H 0.51041 0.39255 0.37556 0.0
H1087 H 0.65445 0.30066 0.44727 0.0
H1088 H 0.51281 0.35587 0.47232 0.0
H1089 H 0.6515 0.34092 0.35236 0.0
H1090 H 0.60999 0.33373 0.46276 0.0
H1091 H 0.56727 0.38627 0.37241 0.0
C1092 C 0.52288 0.38368 0.39647 0.0
C1093 C 0.50647 0.37428 0.42412 0.0
C1094 C 0.61966 0.3361 0.43885 0.0
C1095 C 0.57203 0.36604 0.42013 0.0
C1096 C 0.6453 0.31749 0.43011 0.0
C1097 C 0.65601 0.3176 0.39826 0.0
C1098 C 0.6047 0.35461 0.4154 0.0
C1099 C 0.64335 0.33972 0.37696 0.0
C1100 C 0.55553 0.37997 0.39455 0.0
C1101 C 0.5242 0.36253 0.45012 0.0
N1102 N 0.61781 0.35681 0.38567 0.0
N1103 N 0.55596 0.35823 0.44728 0.0
H1104 H 0.72035 0.45198 0.79088 0.0
H1105 H 0.59375 0.58667 0.77087 0.0
H1106 H 0.63063 0.44805 0.83978 0.0
H1107 H 0.63689 0.54566 0.6867 0.0
H1108 H 0.61909 0.5462 0.80408 0.0
H1109 H 0.70079 0.49677 0.75895 0.0
C1110 C 0.69664 0.46066 0.79486 0.0
C1111 C 0.6768 0.44636 0.81751 0.0
C1112 C 0.62321 0.54645 0.77838 0.0
C1113 C 0.6551 0.49749 0.78245 0.0
C1114 C 0.60899 0.56948 0.75954 0.0
C1115 C 0.61316 0.56913 0.72613 0.0
C1116 C 0.64228 0.52366 0.76367 0.0
C1117 C 0.63294 0.54635 0.71242 0.0
C1118 C 0.6856 0.486 0.77678 0.0
C1119 C 0.64635 0.4583 0.82211 0.0
N1120 N 0.64694 0.52443 0.73133 0.0
N1121 N 0.63646 0.48346 0.80488 0.0
H1122 H 0.76387 0.34278 0.97989 0.0
H1123 H 0.92377 0.4458 0.9929 0.0
H1124 H 0.80337 0.39244 0.89904 0.0
H1125 H 0.86445 0.42851 0.07501 0.0
H1126 H 0.88216 0.4229 0.95772 0.0
H1127 H 0.80447 0.36825 1.01511 0.0
C1128 C 0.78155 0.35842 0.96947 0.0
C1129 C 0.78051 0.36542 0.93656 0.0
C1130 C 0.87803 0.42453 0.98338 0.0
C1131 C 0.82629 0.39493 0.97651 0.0
C1132 C 0.90163 0.43783 1.00339 0.0
C1133 C 0.89743 0.43914 0.03681 0.0
C1134 C 0.85033 0.41179 0.99697 0.0
C1135 C 0.86847 0.42821 0.0493 0.0
C1136 C 0.80431 0.37332 0.9896 0.0
C1137 C 0.80348 0.38638 0.92431 0.0
N1138 N 0.84615 0.41447 0.02939 0.0
N1139 N 0.82545 0.40038 0.94428 0.0
H1140 H 0.94062 0.57536 0.20848 0.0
H1141 H 0.86635 0.58967 0.38436 0.0
H1142 H 0.86831 0.51252 0.24526 0.0
H1143 H 0.94359 0.64991 0.35318 0.0
H1144 H 0.86626 0.56227 0.3325 0.0
H1145 H 0.93951 0.60625 0.2591 0.0
C1146 C 0.92372 0.56885 0.22682 0.0
C1147 C 0.90417 0.5418 0.2228 0.0
C1148 C 0.88348 0.58126 0.33692 0.0
C1149 C 0.90364 0.57586 0.28078 0.0
C1150 C 0.88373 0.5967 0.36666 0.0
C1151 C 0.90512 0.62191 0.373 0.0
C1152 C 0.90462 0.59124 0.31307 0.0
C1153 C 0.92702 0.63025 0.34927 0.0
C1154 C 0.92348 0.58606 0.25584 0.0
C1155 C 0.88337 0.53356 0.24745 0.0
N1156 N 0.92605 0.61508 0.3201 0.0
N1157 N 0.88382 0.55038 0.27549 0.0
H1158 H 0.62242 0.69608 0.55514 0.0
H1159 H 0.758 0.61693 0.45082 0.0
H1160 H 0.65302 0.59971 0.56691 0.0
H1161 H 0.75622 0.71661 0.47584 0.0
H1162 H 0.707 0.60934 0.4776 0.0
H1163 H 0.65912 0.70198 0.51019 0.0
C1164 C 0.63636 0.67596 0.5477 0.0
C1165 C 0.63519 0.64749 0.56478 0.0
C1166 C 0.71756 0.63294 0.47661 0.0
C1167 C 0.67674 0.65404 0.5138 0.0
C1168 C 0.74651 0.63732 0.46134 0.0
C1169 C 0.76141 0.66733 0.46178 0.0
C1170 C 0.70344 0.65886 0.49191 0.0
C1171 C 0.74563 0.693 0.47558 0.0
C1172 C 0.65726 0.67938 0.52224 0.0
C1173 C 0.65372 0.62215 0.55448 0.0
N1174 N 0.71751 0.68813 0.49042 0.0
N1175 N 0.67404 0.62609 0.52971 0.0
H1176 H 0.45816 0.49561 0.19785 0.0
H1177 H 0.35442 0.45494 0.35205 0.0
H1178 H 0.41093 0.56623 0.25506 0.0
H1179 H 0.40729 0.38521 0.29882 0.0
H1180 H 0.37367 0.4958 0.31582 0.0
H1181 H 0.44047 0.45482 0.23519 0.0
C1182 C 0.44441 0.5025 0.21861 0.0
C1183 C 0.43582 0.53417 0.22345 0.0
C1184 C 0.38095 0.47154 0.31198 0.0
C1185 C 0.41509 0.48778 0.26583 0.0
C1186 C 0.36975 0.44812 0.33248 0.0
C1187 C 0.3794 0.41661 0.32854 0.0
C1188 C 0.40187 0.46339 0.28732 0.0
C1189 C 0.39929 0.4092 0.30279 0.0
C1190 C 0.43421 0.47926 0.23979 0.0
C1191 C 0.41819 0.54205 0.25069 0.0
N1192 N 0.41001 0.43249 0.28323 0.0
N1193 N 0.4081 0.51889 0.27076 0.0
H1194 H 0.28362 0.62708 0.91908 0.0
H1195 H 0.40002 0.70197 0.04675 0.0
H1196 H 0.26455 0.72221 0.95233 0.0
H1197 H 0.35741 0.60941 0.06143 0.0
H1198 H 0.35971 0.71175 1.00461 0.0
H1199 H 0.32171 0.62149 0.96357 0.0
C1200 C 0.28772 0.64686 0.93564 0.0
C1201 C 0.27109 0.6751 0.93233 0.0
C1202 C 0.35925 0.68951 1.01741 0.0
C1203 C 0.31458 0.66901 0.98248 0.0
C1204 C 0.38214 0.68386 0.04117 0.0
C1205 C 0.38192 0.65484 0.05733 0.0
C1206 C 0.33695 0.66553 1.00939 0.0
C1207 C 0.35831 0.63211 0.0495 0.0
C1208 C 0.30919 0.64357 0.96097 0.0
C1209 C 0.27694 0.70001 0.95442 0.0
N1210 N 0.33701 0.63773 1.02564 0.0
N1211 N 0.29861 0.69654 0.97862 0.0
H1212 H 0.1501 0.6669 0.74727 0.0
H1213 H 0.11141 0.482 0.75381 0.0
H1214 H 0.20554 0.60116 0.80266 0.0
H1215 H 0.09334 0.5344 0.66703 0.0
H1216 H 0.13747 0.52929 0.77751 0.0
H1217 H 0.12265 0.62147 0.72074 0.0
C1218 C 0.15689 0.64305 0.75349 0.0
C1219 C 0.17996 0.63791 0.77751 0.0
C1220 C 0.12757 0.53045 0.75335 0.0
C1221 C 0.14802 0.58625 0.74818 0.0
C1222 C 0.11238 0.50362 0.74 0.0
C1223 C 0.10031 0.50432 0.70843 0.0
C1224 C 0.13025 0.55827 0.73519 0.0
C1225 C 0.10254 0.5329 0.69142 0.0
C1226 C 0.14105 0.61722 0.73854 0.0
C1227 C 0.18765 0.60642 0.78466 0.0
N1228 N 0.11726 0.55883 0.70503 0.0
N1229 N 0.17141 0.58186 0.77045 0.0
H1230 H 0.25817 0.38015 0.45087 0.0
H1231 H 0.22229 0.38676 0.63824 0.0
H1232 H 0.33103 0.36068 0.52168 0.0
H1233 H 0.16743 0.43368 0.56512 0.0
H1234 H 0.26207 0.37364 0.59751 0.0
H1235 H 0.22195 0.39277 0.49406 0.0
C1236 C 0.26636 0.37803 0.47559 0.0
C1237 C 0.29763 0.36969 0.48281 0.0
C1238 C 0.24156 0.38726 0.59062 0.0
C1239 C 0.25663 0.38479 0.53231 0.0
C1240 C 0.21919 0.39504 0.61382 0.0
C1241 C 0.19171 0.41109 0.60469 0.0
C1242 C 0.2359 0.39543 0.55839 0.0
C1243 C 0.18831 0.42104 0.57285 0.0
C1244 C 0.24582 0.38559 0.50023 0.0
C1245 C 0.30701 0.36706 0.51521 0.0
N1246 N 0.20997 0.41269 0.55071 0.0
N1247 N 0.28658 0.37491 0.53895 0.0
loop_
_geom_bond_atom_site_label_1
_geom_bond_atom_site_label_2
_geom_bond_distance
_geom_bond_site_symmetry_2
_ccdc_geom_bond_type
Co0 N4 2.148 . S
Co0 N10 2.128 . S
Co0 N20 2.194 . S
Co0 O25 2.351 . S
Co0 O26 2.155 . S
Co0 O27 2.096 . S
C1 N4 1.301 . S
C1 N5 1.328 . S
C1 H6 0.930 . S
C2 C3 1.333 . S
C2 N4 1.317 . S
C2 H7 0.930 . S
C3 C2 1.333 . S
C3 N5 1.350 . S
C3 H29 0.931 . S
N4 Co0 2.148 . S
N4 C1 1.301 . S
N4 C2 1.317 . S
N5 C1 1.328 . S
N5 C3 1.350 . S
H6 C1 0.930 . S
H7 C2 0.930 . S
C8 O9 1.224 . S
C8 O27 1.247 . S
O9 C8 1.224 . S
N10 Co0 2.128 . S
N10 C11 1.355 . S
N10 C13 1.311 . S
C11 N10 1.355 . S
C11 C12 1.363 . S
C11 H23 0.929 . S
C12 C11 1.363 . S
C12 N14 1.375 . S
C12 H30 0.931 . S
C13 N10 1.311 . S
C13 N14 1.347 . S
C13 H24 0.929 . S
N14 C12 1.375 . S
N14 C13 1.347 . S
C15 C18 1.365 . S
C15 N20 1.328 . S
C15 H21 0.929 . S
C16 C17 1.362 . S
C16 C19 1.378 . S
C16 H31 0.929 . S
C17 C16 1.362 . S
C17 C18 1.366 . S
C18 C15 1.365 . S
C18 C17 1.366 . S
C18 H32 0.930 . S
C19 C16 1.378 . S
C19 N20 1.315 . S
C19 H22 0.930 . S
N20 Co0 2.194 . S
N20 C15 1.328 . S
N20 C19 1.315 . S
H21 C15 0.929 . S
H22 C19 0.930 . S
H23 C11 0.929 . S
H24 C13 0.929 . S
O25 Co0 2.351 . S
O25 C28 1.244 . S
O26 Co0 2.155 . S
O26 C28 1.240 . S
O27 Co0 2.096 . S
O27 C8 1.247 . S
C28 O25 1.244 . S
C28 O26 1.240 . S
H29 C3 0.931 . S
H30 C12 0.931 . S
H31 C16 0.929 . S
H32 C18 0.930 . S
Co33 N37 2.148 . S
Co33 N43 2.128 . S
Co33 N53 2.194 . S
Co33 O58 2.351 . S
Co33 O59 2.155 . S
Co33 O60 2.096 . S
C34 N37 1.301 . S
C34 N38 1.328 . S
C34 H39 0.930 . S
C35 C36 1.333 . S
C35 N37 1.317 . S
C35 H40 0.930 . S
C36 C35 1.333 . S
C36 N38 1.350 . S
C36 H62 0.931 . S
N37 Co33 2.148 . S
N37 C34 1.301 . S
N37 C35 1.317 . S
N38 C34 1.328 . S
N38 C36 1.350 . S
H39 C34 0.930 . S
H40 C35 0.930 . S
C41 O42 1.224 . S
C41 O60 1.247 . S
O42 C41 1.224 . S
N43 Co33 2.128 . S
N43 C44 1.355 . S
N43 C46 1.311 . S
C44 N43 1.355 . S
C44 C45 1.363 . S
C44 H56 0.929 . S
C45 C44 1.363 . S
C45 N47 1.375 . S
C45 H63 0.931 . S
C46 N43 1.311 . S
C46 N47 1.347 . S
C46 H57 0.929 . S
N47 C45 1.375 . S
N47 C46 1.347 . S
C48 C51 1.365 . S
C48 N53 1.328 . S
C48 H54 0.929 . S
C49 C50 1.362 . S
C49 C52 1.378 . S
C49 H64 0.929 . S
C50 C49 1.362 . S
C50 C51 1.366 . S
C51 C48 1.365 . S
C51 C50 1.366 . S
C51 H65 0.930 . S
C52 C49 1.378 . S
C52 N53 1.315 . S
C52 H55 0.930 . S
N53 Co33 2.194 . S
N53 C48 1.328 . S
N53 C52 1.315 . S
H54 C48 0.929 . S
H55 C52 0.930 . S
H56 C44 0.929 . S
H57 C46 0.929 . S
O58 Co33 2.351 . S
O58 C61 1.244 . S
O59 Co33 2.155 . S
O59 C61 1.240 . S
O60 Co33 2.096 . S
O60 C41 1.247 . S
C61 O58 1.244 . S
C61 O59 1.240 . S
H62 C36 0.931 . S
H63 C45 0.931 . S
H64 C49 0.929 . S
H65 C51 0.930 . S
Co66 N70 2.148 . S
Co66 N76 2.128 . S
Co66 N86 2.194 . S
Co66 O91 2.351 . S
Co66 O92 2.155 . S
Co66 O93 2.096 . S
C67 N70 1.301 . S
C67 N71 1.328 . S
C67 H72 0.930 . S
C68 C69 1.333 . S
C68 N70 1.317 . S
C68 H73 0.930 . S
C69 C68 1.333 . S
C69 N71 1.350 . S
C69 H95 0.931 . S
N70 Co66 2.148 . S
N70 C67 1.301 . S
N70 C68 1.317 . S
N71 C67 1.328 . S
N71 C69 1.350 . S
H72 C67 0.930 . S
H73 C68 0.930 . S
C74 O75 1.224 . S
C74 O93 1.247 . S
O75 C74 1.224 . S
N76 Co66 2.128 . S
N76 C77 1.355 . S
N76 C79 1.311 . S
C77 N76 1.355 . S
C77 C78 1.363 . S
C77 H89 0.929 . S
C78 C77 1.363 . S
C78 N80 1.375 . S
C78 H96 0.931 . S
C79 N76 1.311 . S
C79 N80 1.347 . S
C79 H90 0.929 . S
N80 C78 1.375 . S
N80 C79 1.347 . S
C81 C84 1.365 . S
C81 N86 1.328 . S
C81 H87 0.929 . S
C82 C83 1.362 . S
C82 C85 1.378 . S
C82 H97 0.929 . S
C83 C82 1.362 . S
C83 C84 1.366 . S
C84 C81 1.365 . S
C84 C83 1.366 . S
C84 H98 0.930 . S
C85 C82 1.378 . S
C85 N86 1.315 . S
C85 H88 0.930 . S
N86 Co66 2.194 . S
N86 C81 1.328 . S
N86 C85 1.315 . S
H87 C81 0.929 . S
H88 C85 0.930 . S
H89 C77 0.929 . S
H90 C79 0.929 . S
O91 Co66 2.351 . S
O91 C94 1.244 . S
O92 Co66 2.155 . S
O92 C94 1.240 . S
O93 Co66 2.096 . S
O93 C74 1.247 . S
C94 O91 1.244 . S
C94 O92 1.240 . S
H95 C69 0.931 . S
H96 C78 0.931 . S
H97 C82 0.929 . S
H98 C84 0.930 . S
Co99 N103 2.148 . S
Co99 N109 2.128 . S
Co99 N119 2.194 . S
Co99 O124 2.351 . S
Co99 O125 2.155 . S
Co99 O126 2.096 . S
C100 N103 1.301 . S
C100 N104 1.328 . S
C100 H105 0.930 . S
C101 C102 1.333 . S
C101 N103 1.317 . S
C101 H106 0.930 . S
C102 C101 1.333 . S
C102 N104 1.350 . S
C102 H128 0.931 . S
N103 Co99 2.148 . S
N103 C100 1.301 . S
N103 C101 1.317 . S
N104 C100 1.328 . S
N104 C102 1.350 . S
H105 C100 0.930 . S
H106 C101 0.930 . S
C107 O108 1.224 . S
C107 O126 1.247 . S
O108 C107 1.224 . S
N109 Co99 2.128 . S
N109 C110 1.355 . S
N109 C112 1.311 . S
C110 N109 1.355 . S
C110 C111 1.363 . S
C110 H122 0.929 . S
C111 C110 1.363 . S
C111 N113 1.375 . S
C111 H129 0.931 . S
C112 N109 1.311 . S
C112 N113 1.347 . S
C112 H123 0.929 . S
N113 C111 1.375 . S
N113 C112 1.347 . S
C114 C117 1.365 . S
C114 N119 1.328 . S
C114 H120 0.929 . S
C115 C116 1.362 . S
C115 C118 1.378 . S
C115 H130 0.929 . S
C116 C115 1.362 . S
C116 C117 1.366 . S
C117 C114 1.365 . S
C117 C116 1.366 . S
C117 H131 0.930 . S
C118 C115 1.378 . S
C118 N119 1.315 . S
C118 H121 0.930 . S
N119 Co99 2.194 . S
N119 C114 1.328 . S
N119 C118 1.315 . S
H120 C114 0.929 . S
H121 C118 0.930 . S
H122 C110 0.929 . S
H123 C112 0.929 . S
O124 Co99 2.351 . S
O124 C127 1.244 . S
O125 Co99 2.155 . S
O125 C127 1.240 . S
O126 Co99 2.096 . S
O126 C107 1.247 . S
C127 O124 1.244 . S
C127 O125 1.240 . S
H128 C102 0.931 . S
H129 C111 0.931 . S
H130 C115 0.929 . S
H131 C117 0.930 . S
Co132 N136 2.148 . S
Co132 N142 2.128 . S
Co132 N152 2.194 . S
Co132 O157 2.351 . S
Co132 O158 2.155 . S
Co132 O159 2.096 . S
C133 N136 1.301 . S
C133 N137 1.328 . S
C133 H138 0.930 . S
C134 C135 1.333 . S
C134 N136 1.317 . S
C134 H139 0.930 . S
C135 C134 1.333 . S
C135 N137 1.350 . S
C135 H161 0.931 . S
N136 Co132 2.148 . S
N136 C133 1.301 . S
N136 C134 1.317 . S
N137 C133 1.328 . S
N137 C135 1.350 . S
H138 C133 0.930 . S
H139 C134 0.930 . S
C140 O141 1.224 . S
C140 O159 1.247 . S
O141 C140 1.224 . S
N142 Co132 2.128 . S
N142 C143 1.355 . S
N142 C145 1.311 . S
C143 N142 1.355 . S
C143 C144 1.363 . S
C143 H155 0.929 . S
C144 C143 1.363 . S
C144 N146 1.375 . S
C144 H162 0.931 . S
C145 N142 1.311 . S
C145 N146 1.347 . S
C145 H156 0.929 . S
N146 C144 1.375 . S
N146 C145 1.347 . S
C147 C150 1.365 . S
C147 N152 1.328 . S
C147 H153 0.929 . S
C148 C149 1.362 . S
C148 C151 1.378 . S
C148 H163 0.929 . S
C149 C148 1.362 . S
C149 C150 1.366 . S
C150 C147 1.365 . S
C150 C149 1.366 . S
C150 H164 0.930 . S
C151 C148 1.378 . S
C151 N152 1.315 . S
C151 H154 0.930 . S
N152 Co132 2.194 . S
N152 C147 1.328 . S
N152 C151 1.315 . S
H153 C147 0.929 . S
H154 C151 0.930 . S
H155 C143 0.929 . S
H156 C145 0.929 . S
O157 Co132 2.351 . S
O157 C160 1.244 . S
O158 Co132 2.155 . S
O158 C160 1.240 . S
O159 Co132 2.096 . S
O159 C140 1.247 . S
C160 O157 1.244 . S
C160 O158 1.240 . S
H161 C135 0.931 . S
H162 C144 0.931 . S
H163 C148 0.929 . S
H164 C150 0.930 . S
Co165 N169 2.148 . S
Co165 N175 2.128 . S
Co165 N185 2.194 . S
Co165 O190 2.351 . S
Co165 O191 2.155 . S
Co165 O192 2.096 . S
C166 N169 1.301 . S
C166 N170 1.328 . S
C166 H171 0.930 . S
C167 C168 1.333 . S
C167 N169 1.317 . S
C167 H172 0.930 . S
C168 C167 1.333 . S
C168 N170 1.350 . S
C168 H194 0.931 . S
N169 Co165 2.148 . S
N169 C166 1.301 . S
N169 C167 1.317 . S
N170 C166 1.328 . S
N170 C168 1.350 . S
H171 C166 0.930 . S
H172 C167 0.930 . S
C173 O174 1.224 . S
C173 O192 1.247 . S
O174 C173 1.224 . S
N175 Co165 2.128 . S
N175 C176 1.355 . S
N175 C178 1.311 . S
C176 N175 1.355 . S
C176 C177 1.363 . S
C176 H188 0.929 . S
C177 C176 1.363 . S
C177 N179 1.375 . S
C177 H195 0.931 . S
C178 N175 1.311 . S
C178 N179 1.347 . S
C178 H189 0.929 . S
N179 C177 1.375 . S
N179 C178 1.347 . S
C180 C183 1.365 . S
C180 N185 1.328 . S
C180 H186 0.929 . S
C181 C182 1.362 . S
C181 C184 1.378 . S
C181 H196 0.929 . S
C182 C181 1.362 . S
C182 C183 1.366 . S
C183 C180 1.365 . S
C183 C182 1.366 . S
C183 H197 0.930 . S
C184 C181 1.378 . S
C184 N185 1.315 . S
C184 H187 0.930 . S
N185 Co165 2.194 . S
N185 C180 1.328 . S
N185 C184 1.315 . S
H186 C180 0.929 . S
H187 C184 0.930 . S
H188 C176 0.929 . S
H189 C178 0.929 . S
O190 Co165 2.351 . S
O190 C193 1.244 . S
O191 Co165 2.155 . S
O191 C193 1.240 . S
O192 Co165 2.096 . S
O192 C173 1.247 . S
C193 O190 1.244 . S
C193 O191 1.240 . S
H194 C168 0.931 . S
H195 C177 0.931 . S
H196 C181 0.929 . S
H197 C183 0.930 . S
Co198 N202 2.148 . S
Co198 N208 2.128 . S
Co198 N218 2.194 . S
Co198 O223 2.351 . S
Co198 O224 2.155 . S
Co198 O225 2.096 . S
C199 N202 1.301 . S
C199 N203 1.328 . S
C199 H204 0.930 . S
C200 C201 1.333 . S
C200 N202 1.317 . S
C200 H205 0.930 . S
C201 C200 1.333 . S
C201 N203 1.350 . S
C201 H227 0.931 . S
N202 Co198 2.148 . S
N202 C199 1.301 . S
N202 C200 1.317 . S
N203 C199 1.328 . S
N203 C201 1.350 . S
H204 C199 0.930 . S
H205 C200 0.930 . S
C206 O207 1.224 . S
C206 O225 1.247 . S
O207 C206 1.224 . S
N208 Co198 2.128 . S
N208 C209 1.355 . S
N208 C211 1.311 . S
C209 N208 1.355 . S
C209 C210 1.363 . S
C209 H221 0.929 . S
C210 C209 1.363 . S
C210 N212 1.375 . S
C210 H228 0.931 . S
C211 N208 1.311 . S
C211 N212 1.347 . S
C211 H222 0.929 . S
N212 C210 1.375 . S
N212 C211 1.347 . S
C213 C216 1.365 . S
C213 N218 1.328 . S
C213 H219 0.929 . S
C214 C215 1.362 . S
C214 C217 1.378 . S
C214 H229 0.929 . S
C215 C214 1.362 . S
C215 C216 1.366 . S
C216 C213 1.365 . S
C216 C215 1.366 . S
C216 H230 0.930 . S
C217 C214 1.378 . S
C217 N218 1.315 . S
C217 H220 0.930 . S
N218 Co198 2.194 . S
N218 C213 1.328 . S
N218 C217 1.315 . S
H219 C213 0.929 . S
H220 C217 0.930 . S
H221 C209 0.929 . S
H222 C211 0.929 . S
O223 Co198 2.351 . S
O223 C226 1.244 . S
O224 Co198 2.155 . S
O224 C226 1.240 . S
O225 Co198 2.096 . S
O225 C206 1.247 . S
C226 O223 1.244 . S
C226 O224 1.240 . S
H227 C201 0.931 . S
H228 C210 0.931 . S
H229 C214 0.929 . S
H230 C216 0.930 . S
Co231 N235 2.148 . S
Co231 N241 2.128 . S
Co231 N251 2.194 . S
Co231 O256 2.351 . S
Co231 O257 2.155 . S
Co231 O258 2.096 . S
C232 N235 1.301 . S
C232 N236 1.328 . S
C232 H237 0.930 . S
C233 C234 1.333 . S
C233 N235 1.317 . S
C233 H238 0.930 . S
C234 C233 1.333 . S
C234 N236 1.350 . S
C234 H260 0.931 . S
N235 Co231 2.148 . S
N235 C232 1.301 . S
N235 C233 1.317 . S
N236 C232 1.328 . S
N236 C234 1.350 . S
H237 C232 0.930 . S
H238 C233 0.930 . S
C239 O240 1.224 . S
C239 O258 1.247 . S
O240 C239 1.224 . S
N241 Co231 2.128 . S
N241 C242 1.355 . S
N241 C244 1.311 . S
C242 N241 1.355 . S
C242 C243 1.363 . S
C242 H254 0.929 . S
C243 C242 1.363 . S
C243 N245 1.375 . S
C243 H261 0.931 . S
C244 N241 1.311 . S
C244 N245 1.347 . S
C244 H255 0.929 . S
N245 C243 1.375 . S
N245 C244 1.347 . S
C246 C249 1.365 . S
C246 N251 1.328 . S
C246 H252 0.929 . S
C247 C248 1.362 . S
C247 C250 1.378 . S
C247 H262 0.929 . S
C248 C247 1.362 . S
C248 C249 1.366 . S
C249 C246 1.365 . S
C249 C248 1.366 . S
C249 H263 0.930 . S
C250 C247 1.378 . S
C250 N251 1.315 . S
C250 H253 0.930 . S
N251 Co231 2.194 . S
N251 C246 1.328 . S
N251 C250 1.315 . S
H252 C246 0.929 . S
H253 C250 0.930 . S
H254 C242 0.929 . S
H255 C244 0.929 . S
O256 Co231 2.351 . S
O256 C259 1.244 . S
O257 Co231 2.155 . S
O257 C259 1.240 . S
O258 Co231 2.096 . S
O258 C239 1.247 . S
C259 O256 1.244 . S
C259 O257 1.240 . S
H260 C234 0.931 . S
H261 C243 0.931 . S
H262 C247 0.929 . S
H263 C249 0.930 . S
Co264 N268 2.148 . S
Co264 N274 2.128 . S
Co264 N284 2.194 . S
Co264 O289 2.351 . S
Co264 O290 2.155 . S
Co264 O291 2.096 . S
C265 N268 1.301 . S
C265 N269 1.328 . S
C265 H270 0.930 . S
C266 C267 1.333 . S
C266 N268 1.317 . S
C266 H271 0.930 . S
C267 C266 1.333 . S
C267 N269 1.350 . S
C267 H293 0.931 . S
N268 Co264 2.148 . S
N268 C265 1.301 . S
N268 C266 1.317 . S
N269 C265 1.328 . S
N269 C267 1.350 . S
H270 C265 0.930 . S
H271 C266 0.930 . S
C272 O273 1.224 . S
C272 O291 1.247 . S
O273 C272 1.224 . S
N274 Co264 2.128 . S
N274 C275 1.355 . S
N274 C277 1.311 . S
C275 N274 1.355 . S
C275 C276 1.363 . S
C275 H287 0.929 . S
C276 C275 1.363 . S
C276 N278 1.375 . S
C276 H294 0.931 . S
C277 N274 1.311 . S
C277 N278 1.347 . S
C277 H288 0.929 . S
N278 C276 1.375 . S
N278 C277 1.347 . S
C279 C282 1.365 . S
C279 N284 1.328 . S
C279 H285 0.929 . S
C280 C281 1.362 . S
C280 C283 1.378 . S
C280 H295 0.929 . S
C281 C280 1.362 . S
C281 C282 1.366 . S
C282 C279 1.365 . S
C282 C281 1.366 . S
C282 H296 0.930 . S
C283 C280 1.378 . S
C283 N284 1.315 . S
C283 H286 0.930 . S
N284 Co264 2.194 . S
N284 C279 1.328 . S
N284 C283 1.315 . S
H285 C279 0.929 . S
H286 C283 0.930 . S
H287 C275 0.929 . S
H288 C277 0.929 . S
O289 Co264 2.351 . S
O289 C292 1.244 . S
O290 Co264 2.155 . S
O290 C292 1.240 . S
O291 Co264 2.096 . S
O291 C272 1.247 . S
C292 O289 1.244 . S
C292 O290 1.240 . S
H293 C267 0.931 . S
H294 C276 0.931 . S
H295 C280 0.929 . S
H296 C282 0.930 . S
Co297 N301 2.148 . S
Co297 N307 2.128 . S
Co297 N317 2.194 . S
Co297 O322 2.351 . S
Co297 O323 2.155 . S
Co297 O324 2.096 . S
C298 N301 1.301 . S
C298 N302 1.328 . S
C298 H303 0.930 . S
C299 C300 1.333 . S
C299 N301 1.317 . S
C299 H304 0.930 . S
C300 C299 1.333 . S
C300 N302 1.350 . S
C300 H326 0.931 . S
N301 Co297 2.148 . S
N301 C298 1.301 . S
N301 C299 1.317 . S
N302 C298 1.328 . S
N302 C300 1.350 . S
H303 C298 0.930 . S
H304 C299 0.930 . S
C305 O306 1.224 . S
C305 O324 1.247 . S
O306 C305 1.224 . S
N307 Co297 2.128 . S
N307 C308 1.355 . S
N307 C310 1.311 . S
C308 N307 1.355 . S
C308 C309 1.363 . S
C308 H320 0.929 . S
C309 C308 1.363 . S
C309 N311 1.375 . S
C309 H327 0.931 . S
C310 N307 1.311 . S
C310 N311 1.347 . S
C310 H321 0.929 . S
N311 C309 1.375 . S
N311 C310 1.347 . S
C312 C315 1.365 . S
C312 N317 1.328 . S
C312 H318 0.929 . S
C313 C314 1.362 . S
C313 C316 1.378 . S
C313 H328 0.929 . S
C314 C313 1.362 . S
C314 C315 1.366 . S
C315 C312 1.365 . S
C315 C314 1.366 . S
C315 H329 0.930 . S
C316 C313 1.378 . S
C316 N317 1.315 . S
C316 H319 0.930 . S
N317 Co297 2.194 . S
N317 C312 1.328 . S
N317 C316 1.315 . S
H318 C312 0.929 . S
H319 C316 0.930 . S
H320 C308 0.929 . S
H321 C310 0.929 . S
O322 Co297 2.351 . S
O322 C325 1.244 . S
O323 Co297 2.155 . S
O323 C325 1.240 . S
O324 Co297 2.096 . S
O324 C305 1.247 . S
C325 O322 1.244 . S
C325 O323 1.240 . S
H326 C300 0.931 . S
H327 C309 0.931 . S
H328 C313 0.929 . S
H329 C315 0.930 . S
Co330 N334 2.148 . S
Co330 N340 2.128 . S
Co330 N350 2.194 . S
Co330 O355 2.351 . S
Co330 O356 2.155 . S
Co330 O357 2.096 . S
C331 N334 1.301 . S
C331 N335 1.328 . S
C331 H336 0.930 . S
C332 C333 1.333 . S
C332 N334 1.317 . S
C332 H337 0.930 . S
C333 C332 1.333 . S
C333 N335 1.350 . S
C333 H359 0.931 . S
N334 Co330 2.148 . S
N334 C331 1.301 . S
N334 C332 1.317 . S
N335 C331 1.328 . S
N335 C333 1.350 . S
H336 C331 0.930 . S
H337 C332 0.930 . S
C338 O339 1.224 . S
C338 O357 1.247 . S
O339 C338 1.224 . S
N340 Co330 2.128 . S
N340 C341 1.355 . S
N340 C343 1.311 . S
C341 N340 1.355 . S
C341 C342 1.363 . S
C341 H353 0.929 . S
C342 C341 1.363 . S
C342 N344 1.375 . S
C342 H360 0.931 . S
C343 N340 1.311 . S
C343 N344 1.347 . S
C343 H354 0.929 . S
N344 C342 1.375 . S
N344 C343 1.347 . S
C345 C348 1.365 . S
C345 N350 1.328 . S
C345 H351 0.929 . S
C346 C347 1.362 . S
C346 C349 1.378 . S
C346 H361 0.929 . S
C347 C346 1.362 . S
C347 C348 1.366 . S
C348 C345 1.365 . S
C348 C347 1.366 . S
C348 H362 0.930 . S
C349 C346 1.378 . S
C349 N350 1.315 . S
C349 H352 0.930 . S
N350 Co330 2.194 . S
N350 C345 1.328 . S
N350 C349 1.315 . S
H351 C345 0.929 . S
H352 C349 0.930 . S
H353 C341 0.929 . S
H354 C343 0.929 . S
O355 Co330 2.351 . S
O355 C358 1.244 . S
O356 Co330 2.155 . S
O356 C358 1.240 . S
O357 Co330 2.096 . S
O357 C338 1.247 . S
C358 O355 1.244 . S
C358 O356 1.240 . S
H359 C333 0.931 . S
H360 C342 0.931 . S
H361 C346 0.929 . S
H362 C348 0.930 . S
Co363 N367 2.148 . S
Co363 N373 2.128 . S
Co363 N383 2.194 . S
Co363 O388 2.351 . S
Co363 O389 2.155 . S
Co363 O390 2.096 . S
C364 N367 1.301 . S
C364 N368 1.328 . S
C364 H369 0.930 . S
C365 C366 1.333 . S
C365 N367 1.317 . S
C365 H370 0.930 . S
C366 C365 1.333 . S
C366 N368 1.350 . S
C366 H392 0.931 . S
N367 Co363 2.148 . S
N367 C364 1.301 . S
N367 C365 1.317 . S
N368 C364 1.328 . S
N368 C366 1.350 . S
H369 C364 0.930 . S
H370 C365 0.930 . S
C371 O372 1.224 . S
C371 O390 1.247 . S
O372 C371 1.224 . S
N373 Co363 2.128 . S
N373 C374 1.355 . S
N373 C376 1.311 . S
C374 N373 1.355 . S
C374 C375 1.363 . S
C374 H386 0.929 . S
C375 C374 1.363 . S
C375 N377 1.375 . S
C375 H393 0.931 . S
C376 N373 1.311 . S
C376 N377 1.347 . S
C376 H387 0.929 . S
N377 C375 1.375 . S
N377 C376 1.347 . S
C378 C381 1.365 . S
C378 N383 1.328 . S
C378 H384 0.929 . S
C379 C380 1.362 . S
C379 C382 1.378 . S
C379 H394 0.929 . S
C380 C379 1.362 . S
C380 C381 1.366 . S
C381 C378 1.365 . S
C381 C380 1.366 . S
C381 H395 0.930 . S
C382 C379 1.378 . S
C382 N383 1.315 . S
C382 H385 0.930 . S
N383 Co363 2.194 . S
N383 C378 1.328 . S
N383 C382 1.315 . S
H384 C378 0.929 . S
H385 C382 0.930 . S
H386 C374 0.929 . S
H387 C376 0.929 . S
O388 Co363 2.351 . S
O388 C391 1.244 . S
O389 Co363 2.155 . S
O389 C391 1.240 . S
O390 Co363 2.096 . S
O390 C371 1.247 . S
C391 O388 1.244 . S
C391 O389 1.240 . S
H392 C366 0.931 . S
H393 C375 0.931 . S
H394 C379 0.929 . S
H395 C381 0.930 . S
Co396 N400 2.148 . S
Co396 N406 2.128 . S
Co396 N416 2.194 . S
Co396 O421 2.351 . S
Co396 O422 2.155 . S
Co396 O423 2.096 . S
C397 N400 1.301 . S
C397 N401 1.328 . S
C397 H402 0.930 . S
C398 C399 1.333 . S
C398 N400 1.317 . S
C398 H403 0.930 . S
C399 C398 1.333 . S
C399 N401 1.350 . S
C399 H425 0.931 . S
N400 Co396 2.148 . S
N400 C397 1.301 . S
N400 C398 1.317 . S
N401 C397 1.328 . S
N401 C399 1.350 . S
H402 C397 0.930 . S
H403 C398 0.930 . S
C404 O405 1.224 . S
C404 O423 1.247 . S
O405 C404 1.224 . S
N406 Co396 2.128 . S
N406 C407 1.355 . S
N406 C409 1.311 . S
C407 N406 1.355 . S
C407 C408 1.363 . S
C407 H419 0.929 . S
C408 C407 1.363 . S
C408 N410 1.375 . S
C408 H426 0.931 . S
C409 N406 1.311 . S
C409 N410 1.347 . S
C409 H420 0.929 . S
N410 C408 1.375 . S
N410 C409 1.347 . S
C411 C414 1.365 . S
C411 N416 1.328 . S
C411 H417 0.929 . S
C412 C413 1.362 . S
C412 C415 1.378 . S
C412 H427 0.929 . S
C413 C412 1.362 . S
C413 C414 1.366 . S
C414 C411 1.365 . S
C414 C413 1.366 . S
C414 H428 0.930 . S
C415 C412 1.378 . S
C415 N416 1.315 . S
C415 H418 0.930 . S
N416 Co396 2.194 . S
N416 C411 1.328 . S
N416 C415 1.315 . S
H417 C411 0.929 . S
H418 C415 0.930 . S
H419 C407 0.929 . S
H420 C409 0.929 . S
O421 Co396 2.351 . S
O421 C424 1.244 . S
O422 Co396 2.155 . S
O422 C424 1.240 . S
O423 Co396 2.096 . S
O423 C404 1.247 . S
C424 O421 1.244 . S
C424 O422 1.240 . S
H425 C399 0.931 . S
H426 C408 0.931 . S
H427 C412 0.929 . S
H428 C414 0.930 . S
Co429 N433 2.148 . S
Co429 N439 2.128 . S
Co429 N449 2.194 . S
Co429 O454 2.351 . S
Co429 O455 2.155 . S
Co429 O456 2.096 . S
C430 N433 1.301 . S
C430 N434 1.328 . S
C430 H435 0.930 . S
C431 C432 1.333 . S
C431 N433 1.317 . S
C431 H436 0.930 . S
C432 C431 1.333 . S
C432 N434 1.350 . S
C432 H458 0.931 . S
N433 Co429 2.148 . S
N433 C430 1.301 . S
N433 C431 1.317 . S
N434 C430 1.328 . S
N434 C432 1.350 . S
H435 C430 0.930 . S
H436 C431 0.930 . S
C437 O438 1.224 . S
C437 O456 1.247 . S
O438 C437 1.224 . S
N439 Co429 2.128 . S
N439 C440 1.355 . S
N439 C442 1.311 . S
C440 N439 1.355 . S
C440 C441 1.363 . S
C440 H452 0.929 . S
C441 C440 1.363 . S
C441 N443 1.375 . S
C441 H459 0.931 . S
C442 N439 1.311 . S
C442 N443 1.347 . S
C442 H453 0.929 . S
N443 C441 1.375 . S
N443 C442 1.347 . S
C444 C447 1.365 . S
C444 N449 1.328 . S
C444 H450 0.929 . S
C445 C446 1.362 . S
C445 C448 1.378 . S
C445 H460 0.929 . S
C446 C445 1.362 . S
C446 C447 1.366 . S
C447 C444 1.365 . S
C447 C446 1.366 . S
C447 H461 0.930 . S
C448 C445 1.378 . S
C448 N449 1.315 . S
C448 H451 0.930 . S
N449 Co429 2.194 . S
N449 C444 1.328 . S
N449 C448 1.315 . S
H450 C444 0.929 . S
H451 C448 0.930 . S
H452 C440 0.929 . S
H453 C442 0.929 . S
O454 Co429 2.351 . S
O454 C457 1.244 . S
O455 Co429 2.155 . S
O455 C457 1.240 . S
O456 Co429 2.096 . S
O456 C437 1.247 . S
C457 O454 1.244 . S
C457 O455 1.240 . S
H458 C432 0.931 . S
H459 C441 0.931 . S
H460 C445 0.929 . S
H461 C447 0.930 . S
Co462 N466 2.148 . S
Co462 N472 2.128 . S
Co462 N482 2.194 . S
Co462 O487 2.351 . S
Co462 O488 2.155 . S
Co462 O489 2.096 . S
C463 N466 1.301 . S
C463 N467 1.328 . S
C463 H468 0.930 . S
C464 C465 1.333 . S
C464 N466 1.317 . S
C464 H469 0.930 . S
C465 C464 1.333 . S
C465 N467 1.350 . S
C465 H491 0.931 . S
N466 Co462 2.148 . S
N466 C463 1.301 . S
N466 C464 1.317 . S
N467 C463 1.328 . S
N467 C465 1.350 . S
H468 C463 0.930 . S
H469 C464 0.930 . S
C470 O471 1.224 . S
C470 O489 1.247 . S
O471 C470 1.224 . S
N472 Co462 2.128 . S
N472 C473 1.355 . S
N472 C475 1.311 . S
C473 N472 1.355 . S
C473 C474 1.363 . S
C473 H485 0.929 . S
C474 C473 1.363 . S
C474 N476 1.375 . S
C474 H492 0.931 . S
C475 N472 1.311 . S
C475 N476 1.347 . S
C475 H486 0.929 . S
N476 C474 1.375 . S
N476 C475 1.347 . S
C477 C480 1.365 . S
C477 N482 1.328 . S
C477 H483 0.929 . S
C478 C479 1.362 . S
C478 C481 1.378 . S
C478 H493 0.929 . S
C479 C478 1.362 . S
C479 C480 1.366 . S
C480 C477 1.365 . S
C480 C479 1.366 . S
C480 H494 0.930 . S
C481 C478 1.378 . S
C481 N482 1.315 . S
C481 H484 0.930 . S
N482 Co462 2.194 . S
N482 C477 1.328 . S
N482 C481 1.315 . S
H483 C477 0.929 . S
H484 C481 0.930 . S
H485 C473 0.929 . S
H486 C475 0.929 . S
O487 Co462 2.351 . S
O487 C490 1.244 . S
O488 Co462 2.155 . S
O488 C490 1.240 . S
O489 Co462 2.096 . S
O489 C470 1.247 . S
C490 O487 1.244 . S
C490 O488 1.240 . S
H491 C465 0.931 . S
H492 C474 0.931 . S
H493 C478 0.929 . S
H494 C480 0.930 . S
Co495 N499 2.148 . S
Co495 N505 2.128 . S
Co495 N515 2.194 . S
Co495 O520 2.351 . S
Co495 O521 2.155 . S
Co495 O522 2.096 . S
C496 N499 1.301 . S
C496 N500 1.328 . S
C496 H501 0.930 . S
C497 C498 1.333 . S
C497 N499 1.317 . S
C497 H502 0.930 . S
C498 C497 1.333 . S
C498 N500 1.350 . S
C498 H524 0.931 . S
N499 Co495 2.148 . S
N499 C496 1.301 . S
N499 C497 1.317 . S
N500 C496 1.328 . S
N500 C498 1.350 . S
H501 C496 0.930 . S
H502 C497 0.930 . S
C503 O504 1.224 . S
C503 O522 1.247 . S
O504 C503 1.224 . S
N505 Co495 2.128 . S
N505 C506 1.355 . S
N505 C508 1.311 . S
C506 N505 1.355 . S
C506 C507 1.363 . S
C506 H518 0.929 . S
C507 C506 1.363 . S
C507 N509 1.375 . S
C507 H525 0.931 . S
C508 N505 1.311 . S
C508 N509 1.347 . S
C508 H519 0.929 . S
N509 C507 1.375 . S
N509 C508 1.347 . S
C510 C513 1.365 . S
C510 N515 1.328 . S
C510 H516 0.929 . S
C511 C512 1.362 . S
C511 C514 1.378 . S
C511 H526 0.929 . S
C512 C511 1.362 . S
C512 C513 1.366 . S
C513 C510 1.365 . S
C513 C512 1.366 . S
C513 H527 0.930 . S
C514 C511 1.378 . S
C514 N515 1.315 . S
C514 H517 0.930 . S
N515 Co495 2.194 . S
N515 C510 1.328 . S
N515 C514 1.315 . S
H516 C510 0.929 . S
H517 C514 0.930 . S
H518 C506 0.929 . S
H519 C508 0.929 . S
O520 Co495 2.351 . S
O520 C523 1.244 . S
O521 Co495 2.155 . S
O521 C523 1.240 . S
O522 Co495 2.096 . S
O522 C503 1.247 . S
C523 O520 1.244 . S
C523 O521 1.240 . S
H524 C498 0.931 . S
H525 C507 0.931 . S
H526 C511 0.929 . S
H527 C513 0.930 . S
H528 C534 0.930 . S
H529 C538 0.930 . S
H530 C543 0.929 . S
H531 C541 0.929 . S
H532 C536 0.929 . S
H533 C542 0.929 . S
C534 H528 0.930 . S
C534 C535 1.367 . S
C534 C542 1.378 . S
C535 C534 1.367 . S
C535 C543 1.433 . S
C536 H532 0.929 . S
C536 C538 1.378 . S
C536 C540 1.350 . S
C537 C540 1.463 . S
C537 C542 1.350 . S
C537 N545 1.427 . S
C538 H529 0.930 . S
C538 C536 1.378 . S
C538 C539 1.367 . S
C539 C538 1.367 . S
C539 C541 1.433 . S
C540 C536 1.350 . S
C540 C537 1.463 . S
C540 N544 1.427 . S
C541 H531 0.929 . S
C541 C539 1.433 . S
C541 N544 1.384 . S
C542 H533 0.929 . S
C542 C534 1.378 . S
C542 C537 1.350 . S
C543 H530 0.929 . S
C543 C535 1.433 . S
C543 N545 1.384 . S
N544 C540 1.427 . S
N544 C541 1.384 . S
N545 C537 1.427 . S
N545 C543 1.384 . S
H546 C552 0.930 . S
H547 C556 0.930 . S
H548 C561 0.929 . S
H549 C559 0.929 . S
H550 C554 0.929 . S
H551 C560 0.929 . S
C552 H546 0.930 . S
C552 C553 1.367 . S
C552 C560 1.378 1_655 S
C553 C552 1.367 . S
C553 C561 1.433 . S
C554 H550 0.929 . S
C554 C556 1.378 . S
C554 C558 1.350 1_565 S
C555 C558 1.463 . S
C555 C560 1.350 . S
C555 N563 1.427 1_455 S
C556 H547 0.930 . S
C556 C554 1.378 . S
C556 C557 1.367 . S
C557 C556 1.367 . S
C557 C559 1.433 1_565 S
C558 C554 1.350 1_545 S
C558 C555 1.463 . S
C558 N562 1.427 . S
C559 H549 0.929 . S
C559 C557 1.433 1_545 S
C559 N562 1.384 . S
C560 H551 0.929 . S
C560 C552 1.378 1_455 S
C560 C555 1.350 . S
C561 H548 0.929 . S
C561 C553 1.433 . S
C561 N563 1.384 . S
N562 C558 1.427 . S
N562 C559 1.384 . S
N563 C555 1.427 1_655 S
N563 C561 1.384 . S
H564 C570 0.930 . S
H565 C574 0.930 . S
H566 C579 0.929 . S
H567 C577 0.929 . S
H568 C572 0.929 . S
H569 C578 0.929 . S
C570 H564 0.930 . S
C570 C571 1.367 . S
C570 C578 1.378 . S
C571 C570 1.367 . S
C571 C579 1.433 . S
C572 H568 0.929 . S
C572 C574 1.378 . S
C572 C576 1.350 . S
C573 C576 1.463 . S
C573 C578 1.350 . S
C573 N581 1.427 . S
C574 H565 0.930 . S
C574 C572 1.378 . S
C574 C575 1.367 . S
C575 C574 1.367 . S
C575 C577 1.433 . S
C576 C572 1.350 . S
C576 C573 1.463 . S
C576 N580 1.427 . S
C577 H567 0.929 . S
C577 C575 1.433 . S
C577 N580 1.384 . S
C578 H569 0.929 . S
C578 C570 1.378 . S
C578 C573 1.350 . S
C579 H566 0.929 . S
C579 C571 1.433 . S
C579 N581 1.384 . S
N580 C576 1.427 . S
N580 C577 1.384 . S
N581 C573 1.427 . S
N581 C579 1.384 . S
H582 C588 0.930 . S
H583 C592 0.944 . S
H584 C597 0.929 . S
H585 C595 0.929 . S
H586 C590 0.929 . S
H587 C596 0.929 . S
C588 H582 0.930 . S
C588 C589 1.367 1_565 S
C588 C596 1.378 . S
C589 C588 1.367 1_545 S
C589 C597 1.433 . S
C590 H586 0.929 . S
C590 C592 1.378 1_545 S
C590 C594 1.350 1_545 S
C591 C594 1.462 1_546 S
C591 C596 1.349 1_545 S
C591 N599 1.429 . S
C592 H583 0.944 . S
C592 C590 1.378 1_565 S
C592 C593 1.367 . S
C593 C592 1.367 . S
C593 C595 1.433 . S
C594 C590 1.350 1_565 S
C594 C591 1.462 1_564 S
C594 N598 1.427 . S
C595 H585 0.929 . S
C595 C593 1.433 . S
C595 N598 1.384 . S
C596 H587 0.929 . S
C596 C588 1.378 . S
C596 C591 1.349 1_565 S
C597 H584 0.929 . S
C597 C589 1.433 . S
C597 N599 1.384 . S
N598 C594 1.427 . S
N598 C595 1.384 . S
N599 C591 1.429 . S
N599 C597 1.384 . S
H600 C606 0.930 . S
H601 C610 0.930 . S
H602 C615 0.929 . S
H603 C613 0.929 . S
H604 C608 0.929 . S
H605 C614 0.929 . S
C606 H600 0.930 . S
C606 C607 1.367 . S
C606 C614 1.378 . S
C607 C606 1.367 . S
C607 C615 1.433 . S
C608 H604 0.929 . S
C608 C610 1.378 . S
C608 C612 1.350 . S
C609 C612 1.463 . S
C609 C614 1.350 . S
C609 N617 1.427 . S
C610 H601 0.930 . S
C610 C608 1.378 . S
C610 C611 1.367 . S
C611 C610 1.367 . S
C611 C613 1.433 . S
C612 C608 1.350 . S
C612 C609 1.463 . S
C612 N616 1.427 . S
C613 H603 0.929 . S
C613 C611 1.433 . S
C613 N616 1.384 . S
C614 H605 0.929 . S
C614 C606 1.378 . S
C614 C609 1.350 . S
C615 H602 0.929 . S
C615 C607 1.433 . S
C615 N617 1.384 . S
N616 C612 1.427 . S
N616 C613 1.384 . S
N617 C609 1.427 . S
N617 C615 1.384 . S
H618 C624 0.930 . S
H619 C628 0.930 . S
H620 C633 0.929 . S
H621 C631 0.929 . S
H622 C626 0.929 . S
H623 C632 0.929 . S
C624 H618 0.930 . S
C624 C625 1.367 . S
C624 C632 1.378 . S
C625 C624 1.367 . S
C625 C633 1.433 . S
C626 H622 0.929 . S
C626 C628 1.378 . S
C626 C630 1.350 1_545 S
C627 C630 1.463 . S
C627 C632 1.350 . S
C627 N635 1.427 . S
C628 H619 0.930 . S
C628 C626 1.378 . S
C628 C629 1.367 . S
C629 C628 1.367 . S
C629 C631 1.433 . S
C630 C626 1.350 1_565 S
C630 C627 1.463 . S
C630 N634 1.427 . S
C631 H621 0.929 . S
C631 C629 1.433 . S
C631 N634 1.384 1_545 S
C632 H623 0.929 . S
C632 C624 1.378 . S
C632 C627 1.350 . S
C633 H620 0.929 . S
C633 C625 1.433 . S
C633 N635 1.384 . S
N634 C630 1.427 . S
N634 C631 1.384 1_565 S
N635 C627 1.427 . S
N635 C633 1.384 . S
H636 C642 0.930 . S
H637 C646 0.930 . S
H638 C651 0.929 . S
H639 C649 0.929 . S
H640 C644 0.929 . S
H641 C650 0.929 . S
C642 H636 0.930 . S
C642 C643 1.367 . S
C642 C650 1.378 . S
C643 C642 1.367 . S
C643 C651 1.433 . S
C644 H640 0.929 . S
C644 C646 1.378 . S
C644 C648 1.350 . S
C645 C648 1.463 . S
C645 C650 1.350 . S
C645 N653 1.427 . S
C646 H637 0.930 . S
C646 C644 1.378 . S
C646 C647 1.367 . S
C647 C646 1.367 . S
C647 C649 1.433 . S
C648 C644 1.350 . S
C648 C645 1.463 . S
C648 N652 1.427 . S
C649 H639 0.929 . S
C649 C647 1.433 . S
C649 N652 1.384 . S
C650 H641 0.929 . S
C650 C642 1.378 . S
C650 C645 1.350 . S
C651 H638 0.929 . S
C651 C643 1.433 . S
C651 N653 1.384 . S
N652 C648 1.427 . S
N652 C649 1.384 . S
N653 C645 1.427 . S
N653 C651 1.384 . S
H654 C660 0.930 . S
H655 C664 0.930 . S
H656 C669 0.921 1_655 S
H657 C667 0.929 . S
H658 C662 0.929 1_544 S
H659 C668 0.929 1_556 S
C660 H654 0.930 . S
C660 C661 1.367 . S
C660 C668 1.378 . S
C661 C660 1.367 . S
C661 C669 1.433 . S
C662 H658 0.929 1_566 S
C662 C664 1.378 . S
C662 C666 1.350 . S
C663 C666 1.463 1_444 S
C663 C668 1.350 . S
C663 N671 1.427 1_455 S
C664 H655 0.930 . S
C664 C662 1.378 . S
C664 C665 1.367 . S
C665 C664 1.367 . S
C665 C667 1.433 . S
C666 C662 1.350 . S
C666 C663 1.463 1_666 S
C666 N670 1.427 . S
C667 H657 0.929 . S
C667 C665 1.433 . S
C667 N670 1.384 . S
C668 H659 0.929 1_554 S
C668 C660 1.378 . S
C668 C663 1.350 . S
C669 H656 0.921 1_455 S
C669 C661 1.433 . S
C669 N671 1.384 1_455 S
N670 C666 1.427 . S
N670 C667 1.384 . S
N671 C663 1.427 1_655 S
N671 C669 1.384 1_655 S
H672 C678 0.930 . S
H673 C682 0.930 . S
H674 C687 0.929 . S
H675 C685 0.929 . S
H676 C680 0.929 . S
H677 C686 0.929 . S
C678 H672 0.930 . S
C678 C679 1.367 . S
C678 C686 1.378 . S
C679 C678 1.367 . S
C679 C687 1.433 . S
C680 H676 0.929 . S
C680 C682 1.378 . S
C680 C684 1.350 . S
C681 C684 1.463 . S
C681 C686 1.350 . S
C681 N689 1.427 . S
C682 H673 0.930 . S
C682 C680 1.378 . S
C682 C683 1.367 . S
C683 C682 1.367 . S
C683 C685 1.433 . S
C684 C680 1.350 . S
C684 C681 1.463 . S
C684 N688 1.427 . S
C685 H675 0.929 . S
C685 C683 1.433 . S
C685 N688 1.384 . S
C686 H677 0.929 . S
C686 C678 1.378 . S
C686 C681 1.350 . S
C687 H674 0.929 . S
C687 C679 1.433 . S
C687 N689 1.384 . S
N688 C684 1.427 . S
N688 C685 1.384 . S
N689 C681 1.427 . S
N689 C687 1.384 . S
H690 C696 0.930 . S
H691 C700 0.930 . S
H692 C705 0.929 . S
H693 C703 0.929 . S
H694 C698 0.929 . S
H695 C704 0.929 . S
C696 H690 0.930 . S
C696 C697 1.367 . S
C696 C704 1.378 . S
C697 C696 1.367 . S
C697 C705 1.433 . S
C698 H694 0.929 . S
C698 C700 1.378 . S
C698 C702 1.350 1_655 S
C699 C702 1.463 1_556 S
C699 C704 1.350 . S
C699 N707 1.427 . S
C700 H691 0.930 . S
C700 C698 1.378 . S
C700 C701 1.367 . S
C701 C700 1.367 . S
C701 C703 1.433 . S
C702 C698 1.350 1_455 S
C702 C699 1.463 1_554 S
C702 N706 1.425 1_554 S
C703 H693 0.929 . S
C703 C701 1.433 . S
C703 N706 1.375 1_654 S
C704 H695 0.929 . S
C704 C696 1.378 . S
C704 C699 1.350 . S
C705 H692 0.929 . S
C705 C697 1.433 . S
C705 N707 1.384 . S
N706 C702 1.425 1_556 S
N706 C703 1.375 1_456 S
N707 C699 1.427 . S
N707 C705 1.384 . S
H708 C714 0.930 . S
H709 C718 0.930 . S
H710 C723 0.929 . S
H711 C721 0.929 . S
H712 C716 0.929 . S
H713 C722 0.929 . S
C714 H708 0.930 . S
C714 C715 1.367 . S
C714 C722 1.378 . S
C715 C714 1.367 . S
C715 C723 1.433 . S
C716 H712 0.929 . S
C716 C718 1.378 . S
C716 C720 1.350 . S
C717 C720 1.463 . S
C717 C722 1.350 . S
C717 N725 1.427 . S
C718 H709 0.930 . S
C718 C716 1.378 . S
C718 C719 1.367 . S
C719 C718 1.367 . S
C719 C721 1.433 . S
C720 C716 1.350 . S
C720 C717 1.463 . S
C720 N724 1.427 . S
C721 H711 0.929 . S
C721 C719 1.433 . S
C721 N724 1.384 . S
C722 H713 0.929 . S
C722 C714 1.378 . S
C722 C717 1.350 . S
C723 H710 0.929 . S
C723 C715 1.433 . S
C723 N725 1.384 . S
N724 C720 1.427 . S
N724 C721 1.384 . S
N725 C717 1.427 . S
N725 C723 1.384 . S
H726 C732 0.930 . S
H727 C736 0.930 . S
H728 C741 0.929 . S
H729 C739 0.929 . S
H730 C734 0.929 1_655 S
H731 C740 0.929 . S
C732 H726 0.930 . S
C732 C733 1.367 . S
C732 C740 1.378 . S
C733 C732 1.367 . S
C733 C741 1.433 . S
C734 H730 0.929 1_455 S
C734 C736 1.378 . S
C734 C738 1.350 . S
C735 C738 1.463 1_655 S
C735 C740 1.350 . S
C735 N743 1.427 . S
C736 H727 0.930 . S
C736 C734 1.378 . S
C736 C737 1.367 . S
C737 C736 1.367 . S
C737 C739 1.433 . S
C738 C734 1.350 . S
C738 C735 1.463 1_455 S
C738 N742 1.427 . S
C739 H729 0.929 . S
C739 C737 1.433 . S
C739 N742 1.384 . S
C740 H731 0.929 . S
C740 C732 1.378 . S
C740 C735 1.350 . S
C741 H728 0.929 . S
C741 C733 1.433 . S
C741 N743 1.384 . S
N742 C738 1.427 . S
N742 C739 1.384 . S
N743 C735 1.427 . S
N743 C741 1.384 . S
H744 C750 0.930 . S
H745 C754 0.930 . S
H746 C759 0.929 . S
H747 C757 0.938 . S
H748 C752 0.929 . S
H749 C758 0.929 . S
C750 H744 0.930 . S
C750 C751 1.367 . S
C750 C758 1.378 . S
C751 C750 1.367 . S
C751 C759 1.433 . S
C752 H748 0.929 . S
C752 C754 1.378 . S
C752 C756 1.350 . S
C753 C756 1.463 1_556 S
C753 C758 1.350 . S
C753 N761 1.427 . S
C754 H745 0.930 . S
C754 C752 1.378 . S
C754 C755 1.367 . S
C755 C754 1.367 . S
C755 C757 1.433 . S
C756 C752 1.350 . S
C756 C753 1.463 1_554 S
C756 N760 1.427 1_554 S
C757 H747 0.938 . S
C757 C755 1.433 . S
C757 N760 1.384 1_554 S
C758 H749 0.929 . S
C758 C750 1.378 . S
C758 C753 1.350 . S
C759 H746 0.929 . S
C759 C751 1.433 . S
C759 N761 1.384 . S
N760 C756 1.427 1_556 S
N760 C757 1.384 1_556 S
N761 C753 1.427 . S
N761 C759 1.384 . S
H762 C768 0.930 . S
H763 C772 0.930 . S
H764 C777 0.929 . S
H765 C775 0.929 . S
H766 C770 0.929 . S
H767 C776 0.929 . S
C768 H762 0.930 . S
C768 C769 1.367 . S
C768 C776 1.378 . S
C769 C768 1.367 . S
C769 C777 1.433 . S
C770 H766 0.929 . S
C770 C772 1.378 . S
C770 C774 1.350 . S
C771 C774 1.463 . S
C771 C776 1.350 . S
C771 N779 1.427 . S
C772 H763 0.930 . S
C772 C770 1.378 . S
C772 C773 1.367 . S
C773 C772 1.367 . S
C773 C775 1.433 . S
C774 C770 1.350 . S
C774 C771 1.463 . S
C774 N778 1.427 . S
C775 H765 0.929 . S
C775 C773 1.433 . S
C775 N778 1.384 . S
C776 H767 0.929 . S
C776 C768 1.378 . S
C776 C771 1.350 . S
C777 H764 0.929 . S
C777 C769 1.433 . S
C777 N779 1.384 . S
N778 C774 1.427 . S
N778 C775 1.384 . S
N779 C771 1.427 . S
N779 C777 1.384 . S
H780 C786 0.930 . S
H781 C790 0.930 . S
H782 C795 0.929 . S
H783 C793 0.929 . S
H784 C788 0.929 . S
H785 C794 0.929 . S
C786 H780 0.930 . S
C786 C787 1.367 . S
C786 C794 1.378 . S
C787 C786 1.367 . S
C787 C795 1.433 . S
C788 H784 0.929 . S
C788 C790 1.378 . S
C788 C792 1.350 . S
C789 C792 1.463 . S
C789 C794 1.350 . S
C789 N797 1.427 . S
C790 H781 0.930 . S
C790 C788 1.378 . S
C790 C791 1.367 . S
C791 C790 1.367 . S
C791 C793 1.433 . S
C792 C788 1.350 . S
C792 C789 1.463 . S
C792 N796 1.427 . S
C793 H783 0.929 . S
C793 C791 1.433 . S
C793 N796 1.384 . S
C794 H785 0.929 . S
C794 C786 1.378 . S
C794 C789 1.350 . S
C795 H782 0.929 . S
C795 C787 1.433 . S
C795 N797 1.384 . S
N796 C792 1.427 . S
N796 C793 1.384 . S
N797 C789 1.427 . S
N797 C795 1.384 . S
H798 C804 0.930 . S
H799 C808 0.930 . S
H800 C813 0.929 . S
H801 C811 0.929 . S
H802 C806 0.929 . S
H803 C812 0.929 . S
C804 H798 0.930 . S
C804 C805 1.367 . S
C804 C812 1.378 . S
C805 C804 1.367 . S
C805 C813 1.433 . S
C806 H802 0.929 . S
C806 C808 1.378 . S
C806 C810 1.350 . S
C807 C810 1.463 . S
C807 C812 1.350 . S
C807 N815 1.427 . S
C808 H799 0.930 . S
C808 C806 1.378 . S
C808 C809 1.367 . S
C809 C808 1.367 . S
C809 C811 1.433 . S
C810 C806 1.350 . S
C810 C807 1.463 . S
C810 N814 1.427 . S
C811 H801 0.929 . S
C811 C809 1.433 . S
C811 N814 1.384 . S
C812 H803 0.929 . S
C812 C804 1.378 . S
C812 C807 1.350 . S
C813 H800 0.929 . S
C813 C805 1.433 . S
C813 N815 1.384 . S
N814 C810 1.427 . S
N814 C811 1.384 . S
N815 C807 1.427 . S
N815 C813 1.384 . S
H816 C822 0.930 . S
H817 C826 0.930 . S
H818 C831 0.929 . S
H819 C829 0.929 . S
H820 C824 0.929 . S
H821 C830 0.929 1_565 S
C822 H816 0.930 . S
C822 C823 1.367 . S
C822 C830 1.378 . S
C823 C822 1.367 . S
C823 C831 1.433 . S
C824 H820 0.929 . S
C824 C826 1.378 1_545 S
C824 C828 1.350 1_545 S
C825 C828 1.463 1_545 S
C825 C830 1.350 . S
C825 N833 1.427 . S
C826 H817 0.930 . S
C826 C824 1.378 1_565 S
C826 C827 1.367 . S
C827 C826 1.367 . S
C827 C829 1.433 . S
C828 C824 1.350 1_565 S
C828 C825 1.463 1_565 S
C828 N832 1.427 . S
C829 H819 0.929 . S
C829 C827 1.433 . S
C829 N832 1.384 . S
C830 H821 0.929 1_545 S
C830 C822 1.378 . S
C830 C825 1.350 . S
C831 H818 0.929 . S
C831 C823 1.433 . S
C831 N833 1.384 . S
N832 C828 1.427 . S
N832 C829 1.384 . S
N833 C825 1.427 . S
N833 C831 1.384 . S
H834 C840 0.930 . S
H835 C844 0.930 . S
H836 C849 0.929 . S
H837 C847 0.929 . S
H838 C842 0.929 . S
H839 C848 0.929 . S
C840 H834 0.930 . S
C840 C841 1.367 . S
C840 C848 1.378 . S
C841 C840 1.367 . S
C841 C849 1.433 . S
C842 H838 0.929 . S
C842 C844 1.378 . S
C842 C846 1.350 . S
C843 C846 1.463 . S
C843 C848 1.350 . S
C843 N851 1.427 . S
C844 H835 0.930 . S
C844 C842 1.378 . S
C844 C845 1.367 . S
C845 C844 1.367 . S
C845 C847 1.433 . S
C846 C842 1.350 . S
C846 C843 1.463 . S
C846 N850 1.427 . S
C847 H837 0.929 . S
C847 C845 1.433 . S
C847 N850 1.384 . S
C848 H839 0.929 . S
C848 C840 1.378 . S
C848 C843 1.350 . S
C849 H836 0.929 . S
C849 C841 1.433 . S
C849 N851 1.384 . S
N850 C846 1.427 . S
N850 C847 1.384 . S
N851 C843 1.427 . S
N851 C849 1.384 . S
H852 C858 0.930 . S
H853 C862 0.930 . S
H854 C867 0.929 . S
H855 C865 0.929 . S
H856 C860 0.929 1_565 S
H857 C866 0.929 . S
C858 H852 0.930 . S
C858 C859 1.367 . S
C858 C866 1.378 . S
C859 C858 1.367 . S
C859 C867 1.433 . S
C860 H856 0.929 1_545 S
C860 C862 1.378 . S
C860 C864 1.350 . S
C861 C864 1.463 1_565 S
C861 C866 1.350 . S
C861 N869 1.427 . S
C862 H853 0.930 . S
C862 C860 1.378 . S
C862 C863 1.367 . S
C863 C862 1.367 . S
C863 C865 1.433 . S
C864 C860 1.350 . S
C864 C861 1.463 1_545 S
C864 N868 1.427 . S
C865 H855 0.929 . S
C865 C863 1.433 . S
C865 N868 1.384 . S
C866 H857 0.929 . S
C866 C858 1.378 . S
C866 C861 1.350 . S
C867 H854 0.929 . S
C867 C859 1.433 . S
C867 N869 1.384 . S
N868 C864 1.427 . S
N868 C865 1.384 . S
N869 C861 1.427 . S
N869 C867 1.384 . S
H870 C876 0.930 . S
H871 C880 0.930 . S
H872 C885 0.929 . S
H873 C883 0.929 . S
H874 C878 0.929 1_556 S
H875 C884 0.929 1_554 S
C876 H870 0.930 . S
C876 C877 1.367 . S
C876 C884 1.378 . S
C877 C876 1.367 . S
C877 C885 1.433 . S
C878 H874 0.929 1_554 S
C878 C880 1.378 . S
C878 C882 1.350 . S
C879 C882 1.463 1_556 S
C879 C884 1.350 . S
C879 N887 1.427 . S
C880 H871 0.930 . S
C880 C878 1.378 . S
C880 C881 1.367 . S
C881 C880 1.367 . S
C881 C883 1.433 . S
C882 C878 1.350 . S
C882 C879 1.463 1_554 S
C882 N886 1.427 . S
C883 H873 0.929 . S
C883 C881 1.433 . S
C883 N886 1.384 . S
C884 H875 0.929 1_556 S
C884 C876 1.378 . S
C884 C879 1.350 . S
C885 H872 0.929 . S
C885 C877 1.433 . S
C885 N887 1.384 . S
N886 C882 1.427 . S
N886 C883 1.384 . S
N887 C879 1.427 . S
N887 C885 1.384 . S
H888 C894 0.930 . S
H889 C898 0.930 . S
H890 C903 0.929 . S
H891 C901 0.929 . S
H892 C896 0.929 . S
H893 C902 0.929 . S
C894 H888 0.930 . S
C894 C895 1.367 . S
C894 C902 1.378 . S
C895 C894 1.367 . S
C895 C903 1.433 . S
C896 H892 0.929 . S
C896 C898 1.378 . S
C896 C900 1.350 . S
C897 C900 1.463 1_455 S
C897 C902 1.350 . S
C897 N905 1.427 . S
C898 H889 0.930 . S
C898 C896 1.378 . S
C898 C899 1.367 . S
C899 C898 1.367 . S
C899 C901 1.433 . S
C900 C896 1.350 . S
C900 C897 1.463 1_655 S
C900 N904 1.427 . S
C901 H891 0.929 . S
C901 C899 1.433 . S
C901 N904 1.384 . S
C902 H893 0.929 . S
C902 C894 1.378 . S
C902 C897 1.350 . S
C903 H890 0.929 . S
C903 C895 1.433 . S
C903 N905 1.384 . S
N904 C900 1.427 . S
N904 C901 1.384 . S
N905 C897 1.427 . S
N905 C903 1.384 . S
H906 C912 0.930 . S
H907 C916 0.930 . S
H908 C921 0.929 . S
H909 C919 0.929 . S
H910 C914 0.929 . S
H911 C920 0.929 . S
C912 H906 0.930 . S
C912 C913 1.367 . S
C912 C920 1.378 . S
C913 C912 1.367 . S
C913 C921 1.433 . S
C914 H910 0.929 . S
C914 C916 1.378 . S
C914 C918 1.350 . S
C915 C918 1.463 . S
C915 C920 1.350 . S
C915 N923 1.427 . S
C916 H907 0.930 . S
C916 C914 1.378 . S
C916 C917 1.367 . S
C917 C916 1.367 . S
C917 C919 1.433 . S
C918 C914 1.350 . S
C918 C915 1.463 . S
C918 N922 1.427 . S
C919 H909 0.929 . S
C919 C917 1.433 . S
C919 N922 1.384 . S
C920 H911 0.929 . S
C920 C912 1.378 . S
C920 C915 1.350 . S
C921 H908 0.929 . S
C921 C913 1.433 . S
C921 N923 1.384 . S
N922 C918 1.427 . S
N922 C919 1.384 . S
N923 C915 1.427 . S
N923 C921 1.384 . S
H924 C930 0.930 . S
H925 C934 0.930 . S
H926 C939 0.929 . S
H927 C937 0.929 . S
H928 C932 0.929 . S
H929 C938 0.929 . S
C930 H924 0.930 . S
C930 C931 1.367 . S
C930 C938 1.378 . S
C931 C930 1.367 . S
C931 C939 1.433 . S
C932 H928 0.929 . S
C932 C934 1.378 . S
C932 C936 1.350 . S
C933 C936 1.463 1_655 S
C933 C938 1.350 . S
C933 N941 1.427 . S
C934 H925 0.930 . S
C934 C932 1.378 . S
C934 C935 1.367 . S
C935 C934 1.367 . S
C935 C937 1.433 . S
C936 C932 1.350 . S
C936 C933 1.463 1_455 S
C936 N940 1.427 . S
C937 H927 0.929 . S
C937 C935 1.433 . S
C937 N940 1.384 . S
C938 H929 0.929 . S
C938 C930 1.378 . S
C938 C933 1.350 . S
C939 H926 0.929 . S
C939 C931 1.433 . S
C939 N941 1.384 . S
N940 C936 1.427 . S
N940 C937 1.384 . S
N941 C933 1.427 . S
N941 C939 1.384 . S
H942 C948 0.930 . S
H943 C952 0.930 . S
H944 C957 0.929 . S
H945 C955 0.929 . S
H946 C950 0.929 . S
H947 C956 0.929 . S
C948 H942 0.930 . S
C948 C949 1.367 . S
C948 C956 1.378 . S
C949 C948 1.367 . S
C949 C957 1.433 . S
C950 H946 0.929 . S
C950 C952 1.378 . S
C950 C954 1.350 . S
C951 C954 1.463 . S
C951 C956 1.350 . S
C951 N959 1.427 . S
C952 H943 0.930 . S
C952 C950 1.378 . S
C952 C953 1.367 . S
C953 C952 1.367 . S
C953 C955 1.433 . S
C954 C950 1.350 . S
C954 C951 1.463 . S
C954 N958 1.427 . S
C955 H945 0.929 . S
C955 C953 1.433 . S
C955 N958 1.384 . S
C956 H947 0.929 . S
C956 C948 1.378 . S
C956 C951 1.350 . S
C957 H944 0.929 . S
C957 C949 1.433 . S
C957 N959 1.384 . S
N958 C954 1.427 . S
N958 C955 1.384 . S
N959 C951 1.427 . S
N959 C957 1.384 . S
H960 C966 0.930 . S
H961 C970 0.930 . S
H962 C975 0.929 . S
H963 C973 0.929 . S
H964 C968 0.929 . S
H965 C974 0.929 . S
C966 H960 0.930 . S
C966 C967 1.367 . S
C966 C974 1.378 1_545 S
C967 C966 1.367 . S
C967 C975 1.433 . S
C968 H964 0.929 . S
C968 C970 1.378 . S
C968 C972 1.350 . S
C969 C972 1.463 . S
C969 C974 1.350 . S
C969 N977 1.427 1_565 S
C970 H961 0.930 . S
C970 C968 1.378 . S
C970 C971 1.367 . S
C971 C970 1.367 . S
C971 C973 1.433 . S
C972 C968 1.350 . S
C972 C969 1.463 . S
C972 N976 1.427 . S
C973 H963 0.929 . S
C973 C971 1.433 . S
C973 N976 1.384 . S
C974 H965 0.929 . S
C974 C966 1.378 1_565 S
C974 C969 1.350 . S
C975 H962 0.929 . S
C975 C967 1.433 . S
C975 N977 1.384 . S
N976 C972 1.427 . S
N976 C973 1.384 . S
N977 C969 1.427 1_545 S
N977 C975 1.384 . S
H978 C984 0.930 . S
H979 C988 0.930 . S
H980 C993 0.929 . S
H981 C991 0.929 . S
H982 C986 0.929 . S
H983 C992 0.929 . S
C984 H978 0.930 . S
C984 C985 1.367 . S
C984 C992 1.378 . S
C985 C984 1.367 . S
C985 C993 1.433 . S
C986 H982 0.929 . S
C986 C988 1.378 . S
C986 C990 1.350 . S
C987 C990 1.463 . S
C987 C992 1.350 . S
C987 N995 1.427 . S
C988 H979 0.930 . S
C988 C986 1.378 . S
C988 C989 1.367 . S
C989 C988 1.367 . S
C989 C991 1.433 . S
C990 C986 1.350 . S
C990 C987 1.463 . S
C990 N994 1.427 . S
C991 H981 0.929 . S
C991 C989 1.433 . S
C991 N994 1.384 . S
C992 H983 0.929 . S
C992 C984 1.378 . S
C992 C987 1.350 . S
C993 H980 0.929 . S
C993 C985 1.433 . S
C993 N995 1.384 . S
N994 C990 1.427 . S
N994 C991 1.384 . S
N995 C987 1.427 . S
N995 C993 1.384 . S
H996 C1002 0.930 . S
H997 C1006 0.930 . S
H998 C1011 0.929 . S
H999 C1009 0.929 . S
H1000 C1004 0.929 . S
H1001 C1010 0.929 . S
C1002 H996 0.930 . S
C1002 C1003 1.367 . S
C1002 C1010 1.378 . S
C1003 C1002 1.367 . S
C1003 C1011 1.433 . S
C1004 H1000 0.929 . S
C1004 C1006 1.378 . S
C1004 C1008 1.350 . S
C1005 C1008 1.463 1_545 S
C1005 C1010 1.350 . S
C1005 N1013 1.427 . S
C1006 H997 0.930 . S
C1006 C1004 1.378 . S
C1006 C1007 1.367 . S
C1007 C1006 1.367 . S
C1007 C1009 1.433 . S
C1008 C1004 1.350 . S
C1008 C1005 1.463 1_565 S
C1008 N1012 1.427 . S
C1009 H999 0.929 . S
C1009 C1007 1.433 . S
C1009 N1012 1.384 . S
C1010 H1001 0.929 . S
C1010 C1002 1.378 . S
C1010 C1005 1.350 . S
C1011 H998 0.929 . S
C1011 C1003 1.433 . S
C1011 N1013 1.384 . S
N1012 C1008 1.427 . S
N1012 C1009 1.384 . S
N1013 C1005 1.427 . S
N1013 C1011 1.384 . S
H1014 C1020 0.930 . S
H1015 C1024 0.930 . S
H1016 C1029 0.929 . S
H1017 C1027 0.929 . S
H1018 C1022 0.929 . S
H1019 C1028 0.929 1_556 S
C1020 H1014 0.930 . S
C1020 C1021 1.367 . S
C1020 C1028 1.378 . S
C1021 C1020 1.367 . S
C1021 C1029 1.433 . S
C1022 H1018 0.929 . S
C1022 C1024 1.378 . S
C1022 C1026 1.350 . S
C1023 C1026 1.463 1_554 S
C1023 C1028 1.350 . S
C1023 N1031 1.427 . S
C1024 H1015 0.930 . S
C1024 C1022 1.378 . S
C1024 C1025 1.367 . S
C1025 C1024 1.367 . S
C1025 C1027 1.433 . S
C1026 C1022 1.350 . S
C1026 C1023 1.463 1_556 S
C1026 N1030 1.427 . S
C1027 H1017 0.929 . S
C1027 C1025 1.433 . S
C1027 N1030 1.384 . S
C1028 H1019 0.929 1_554 S
C1028 C1020 1.378 . S
C1028 C1023 1.350 . S
C1029 H1016 0.929 . S
C1029 C1021 1.433 . S
C1029 N1031 1.384 . S
N1030 C1026 1.427 . S
N1030 C1027 1.384 . S
N1031 C1023 1.427 . S
N1031 C1029 1.384 . S
H1032 C1038 0.930 . S
H1033 C1042 0.930 . S
H1034 C1047 0.929 . S
H1035 C1045 0.929 . S
H1036 C1040 0.929 . S
H1037 C1046 0.929 . S
C1038 H1032 0.930 . S
C1038 C1039 1.367 . S
C1038 C1046 1.378 . S
C1039 C1038 1.367 . S
C1039 C1047 1.433 . S
C1040 H1036 0.929 . S
C1040 C1042 1.378 . S
C1040 C1044 1.350 . S
C1041 C1044 1.463 1_455 S
C1041 C1046 1.350 . S
C1041 N1049 1.427 . S
C1042 H1033 0.930 . S
C1042 C1040 1.378 . S
C1042 C1043 1.367 . S
C1043 C1042 1.367 . S
C1043 C1045 1.433 . S
C1044 C1040 1.350 . S
C1044 C1041 1.463 1_655 S
C1044 N1048 1.427 . S
C1045 H1035 0.929 . S
C1045 C1043 1.433 . S
C1045 N1048 1.384 . S
C1046 H1037 0.929 . S
C1046 C1038 1.378 . S
C1046 C1041 1.350 . S
C1047 H1034 0.929 . S
C1047 C1039 1.433 . S
C1047 N1049 1.384 . S
N1048 C1044 1.427 . S
N1048 C1045 1.384 . S
N1049 C1041 1.427 . S
N1049 C1047 1.384 . S
H1050 C1056 0.930 . S
H1051 C1060 0.930 . S
H1052 C1065 0.929 . S
H1053 C1063 0.929 . S
H1054 C1058 0.929 . S
H1055 C1064 0.929 . S
C1056 H1050 0.930 . S
C1056 C1057 1.367 . S
C1056 C1064 1.378 . S
C1057 C1056 1.367 . S
C1057 C1065 1.433 . S
C1058 H1054 0.929 . S
C1058 C1060 1.378 . S
C1058 C1062 1.350 . S
C1059 C1062 1.463 . S
C1059 C1064 1.350 . S
C1059 N1067 1.427 . S
C1060 H1051 0.930 . S
C1060 C1058 1.378 . S
C1060 C1061 1.367 . S
C1061 C1060 1.367 . S
C1061 C1063 1.433 . S
C1062 C1058 1.350 . S
C1062 C1059 1.463 . S
C1062 N1066 1.427 . S
C1063 H1053 0.929 . S
C1063 C1061 1.433 . S
C1063 N1066 1.384 . S
C1064 H1055 0.929 . S
C1064 C1056 1.378 . S
C1064 C1059 1.350 . S
C1065 H1052 0.929 . S
C1065 C1057 1.433 . S
C1065 N1067 1.384 . S
N1066 C1062 1.427 . S
N1066 C1063 1.384 . S
N1067 C1059 1.427 . S
N1067 C1065 1.384 . S
H1068 C1074 0.930 . S
H1069 C1078 0.930 . S
H1070 C1083 0.929 . S
H1071 C1081 0.929 . S
H1072 C1076 0.929 . S
H1073 C1082 0.929 . S
C1074 H1068 0.930 . S
C1074 C1075 1.367 . S
C1074 C1082 1.378 . S
C1075 C1074 1.367 . S
C1075 C1083 1.433 . S
C1076 H1072 0.929 . S
C1076 C1078 1.378 . S
C1076 C1080 1.350 . S
C1077 C1080 1.463 1_655 S
C1077 C1082 1.350 . S
C1077 N1085 1.427 . S
C1078 H1069 0.930 . S
C1078 C1076 1.378 . S
C1078 C1079 1.367 . S
C1079 C1078 1.367 . S
C1079 C1081 1.433 . S
C1080 C1076 1.350 . S
C1080 C1077 1.463 1_455 S
C1080 N1084 1.427 . S
C1081 H1071 0.929 . S
C1081 C1079 1.433 . S
C1081 N1084 1.384 . S
C1082 H1073 0.929 . S
C1082 C1074 1.378 . S
C1082 C1077 1.350 . S
C1083 H1070 0.929 . S
C1083 C1075 1.433 . S
C1083 N1085 1.384 . S
N1084 C1080 1.427 . S
N1084 C1081 1.384 . S
N1085 C1077 1.427 . S
N1085 C1083 1.384 . S
H1086 C1092 0.930 . S
H1087 C1096 0.930 . S
H1088 C1101 0.929 . S
H1089 C1099 0.929 . S
H1090 C1094 0.929 . S
H1091 C1100 0.929 . S
C1092 H1086 0.930 . S
C1092 C1093 1.367 . S
C1092 C1100 1.378 . S
C1093 C1092 1.367 . S
C1093 C1101 1.433 . S
C1094 H1090 0.929 . S
C1094 C1096 1.378 . S
C1094 C1098 1.350 . S
C1095 C1098 1.463 . S
C1095 C1100 1.350 . S
C1095 N1103 1.427 . S
C1096 H1087 0.930 . S
C1096 C1094 1.378 . S
C1096 C1097 1.367 . S
C1097 C1096 1.367 . S
C1097 C1099 1.433 . S
C1098 C1094 1.350 . S
C1098 C1095 1.463 . S
C1098 N1102 1.427 . S
C1099 H1089 0.929 . S
C1099 C1097 1.433 . S
C1099 N1102 1.384 . S
C1100 H1091 0.929 . S
C1100 C1092 1.378 . S
C1100 C1095 1.350 . S
C1101 H1088 0.929 . S
C1101 C1093 1.433 . S
C1101 N1103 1.384 . S
N1102 C1098 1.427 . S
N1102 C1099 1.384 . S
N1103 C1095 1.427 . S
N1103 C1101 1.384 . S
H1104 C1110 0.930 . S
H1105 C1114 0.930 . S
H1106 C1119 0.929 . S
H1107 C1117 0.929 . S
H1108 C1112 0.929 . S
H1109 C1118 0.929 . S
C1110 H1104 0.930 . S
C1110 C1111 1.367 . S
C1110 C1118 1.378 . S
C1111 C1110 1.367 . S
C1111 C1119 1.433 . S
C1112 H1108 0.929 . S
C1112 C1114 1.378 . S
C1112 C1116 1.350 . S
C1113 C1116 1.463 . S
C1113 C1118 1.350 . S
C1113 N1121 1.427 . S
C1114 H1105 0.930 . S
C1114 C1112 1.378 . S
C1114 C1115 1.367 . S
C1115 C1114 1.367 . S
C1115 C1117 1.433 . S
C1116 C1112 1.350 . S
C1116 C1113 1.463 . S
C1116 N1120 1.427 . S
C1117 H1107 0.929 . S
C1117 C1115 1.433 . S
C1117 N1120 1.384 . S
C1118 H1109 0.929 . S
C1118 C1110 1.378 . S
C1118 C1113 1.350 . S
C1119 H1106 0.929 . S
C1119 C1111 1.433 . S
C1119 N1121 1.384 . S
N1120 C1116 1.427 . S
N1120 C1117 1.384 . S
N1121 C1113 1.427 . S
N1121 C1119 1.384 . S
H1122 C1128 0.930 . S
H1123 C1132 0.930 . S
H1124 C1137 0.929 . S
H1125 C1135 0.929 . S
H1126 C1130 0.929 . S
H1127 C1136 0.929 . S
C1128 H1122 0.930 . S
C1128 C1129 1.367 . S
C1128 C1136 1.378 . S
C1129 C1128 1.367 . S
C1129 C1137 1.433 . S
C1130 H1126 0.929 . S
C1130 C1132 1.378 . S
C1130 C1134 1.350 . S
C1131 C1134 1.463 1_556 S
C1131 C1136 1.350 . S
C1131 N1139 1.427 . S
C1132 H1123 0.930 . S
C1132 C1130 1.378 . S
C1132 C1133 1.367 . S
C1133 C1132 1.367 . S
C1133 C1135 1.433 . S
C1134 C1130 1.350 . S
C1134 C1131 1.463 1_554 S
C1134 N1138 1.427 1_554 S
C1135 H1125 0.929 . S
C1135 C1133 1.433 . S
C1135 N1138 1.384 1_554 S
C1136 H1127 0.929 . S
C1136 C1128 1.378 . S
C1136 C1131 1.350 . S
C1137 H1124 0.929 . S
C1137 C1129 1.433 . S
C1137 N1139 1.384 . S
N1138 C1134 1.427 1_556 S
N1138 C1135 1.384 1_556 S
N1139 C1131 1.427 . S
N1139 C1137 1.384 . S
H1140 C1146 0.930 . S
H1141 C1150 0.930 . S
H1142 C1155 0.929 . S
H1143 C1153 0.929 . S
H1144 C1148 0.929 . S
H1145 C1154 0.929 . S
C1146 H1140 0.930 . S
C1146 C1147 1.367 . S
C1146 C1154 1.378 . S
C1147 C1146 1.367 . S
C1147 C1155 1.433 . S
C1148 H1144 0.929 . S
C1148 C1150 1.378 . S
C1148 C1152 1.350 . S
C1149 C1152 1.463 . S
C1149 C1154 1.350 . S
C1149 N1157 1.427 . S
C1150 H1141 0.930 . S
C1150 C1148 1.378 . S
C1150 C1151 1.367 . S
C1151 C1150 1.367 . S
C1151 C1153 1.433 . S
C1152 C1148 1.350 . S
C1152 C1149 1.463 . S
C1152 N1156 1.427 . S
C1153 H1143 0.929 . S
C1153 C1151 1.433 . S
C1153 N1156 1.384 . S
C1154 H1145 0.929 . S
C1154 C1146 1.378 . S
C1154 C1149 1.350 . S
C1155 H1142 0.929 . S
C1155 C1147 1.433 . S
C1155 N1157 1.384 . S
N1156 C1152 1.427 . S
N1156 C1153 1.384 . S
N1157 C1149 1.427 . S
N1157 C1155 1.384 . S
H1158 C1164 0.930 . S
H1159 C1168 0.930 . S
H1160 C1173 0.929 . S
H1161 C1171 0.929 . S
H1162 C1166 0.929 . S
H1163 C1172 0.929 . S
C1164 H1158 0.930 . S
C1164 C1165 1.367 . S
C1164 C1172 1.378 . S
C1165 C1164 1.367 . S
C1165 C1173 1.433 . S
C1166 H1162 0.929 . S
C1166 C1168 1.378 . S
C1166 C1170 1.350 . S
C1167 C1170 1.463 . S
C1167 C1172 1.350 . S
C1167 N1175 1.427 . S
C1168 H1159 0.930 . S
C1168 C1166 1.378 . S
C1168 C1169 1.367 . S
C1169 C1168 1.367 . S
C1169 C1171 1.433 . S
C1170 C1166 1.350 . S
C1170 C1167 1.463 . S
C1170 N1174 1.427 . S
C1171 H1161 0.929 . S
C1171 C1169 1.433 . S
C1171 N1174 1.384 . S
C1172 H1163 0.929 . S
C1172 C1164 1.378 . S
C1172 C1167 1.350 . S
C1173 H1160 0.929 . S
C1173 C1165 1.433 . S
C1173 N1175 1.384 . S
N1174 C1170 1.427 . S
N1174 C1171 1.384 . S
N1175 C1167 1.427 . S
N1175 C1173 1.384 . S
H1176 C1182 0.930 . S
H1177 C1186 0.930 . S
H1178 C1191 0.929 . S
H1179 C1189 0.929 . S
H1180 C1184 0.929 . S
H1181 C1190 0.929 . S
C1182 H1176 0.930 . S
C1182 C1183 1.367 . S
C1182 C1190 1.378 . S
C1183 C1182 1.367 . S
C1183 C1191 1.433 . S
C1184 H1180 0.929 . S
C1184 C1186 1.378 . S
C1184 C1188 1.350 . S
C1185 C1188 1.463 . S
C1185 C1190 1.350 . S
C1185 N1193 1.427 . S
C1186 H1177 0.930 . S
C1186 C1184 1.378 . S
C1186 C1187 1.367 . S
C1187 C1186 1.367 . S
C1187 C1189 1.433 . S
C1188 C1184 1.350 . S
C1188 C1185 1.463 . S
C1188 N1192 1.427 . S
C1189 H1179 0.929 . S
C1189 C1187 1.433 . S
C1189 N1192 1.384 . S
C1190 H1181 0.929 . S
C1190 C1182 1.378 . S
C1190 C1185 1.350 . S
C1191 H1178 0.929 . S
C1191 C1183 1.433 . S
C1191 N1193 1.384 . S
N1192 C1188 1.427 . S
N1192 C1189 1.384 . S
N1193 C1185 1.427 . S
N1193 C1191 1.384 . S
H1194 C1200 0.930 . S
H1195 C1204 0.930 . S
H1196 C1209 0.929 . S
H1197 C1207 0.929 . S
H1198 C1202 0.929 . S
H1199 C1208 0.929 . S
C1200 H1194 0.930 . S
C1200 C1201 1.367 . S
C1200 C1208 1.378 . S
C1201 C1200 1.367 . S
C1201 C1209 1.433 . S
C1202 H1198 0.929 . S
C1202 C1204 1.378 . S
C1202 C1206 1.350 . S
C1203 C1206 1.463 1_556 S
C1203 C1208 1.350 . S
C1203 N1211 1.427 . S
C1204 H1195 0.930 . S
C1204 C1202 1.378 . S
C1204 C1205 1.367 . S
C1205 C1204 1.367 . S
C1205 C1207 1.433 . S
C1206 C1202 1.350 . S
C1206 C1203 1.463 1_554 S
C1206 N1210 1.427 . S
C1207 H1197 0.929 . S
C1207 C1205 1.433 . S
C1207 N1210 1.384 . S
C1208 H1199 0.929 . S
C1208 C1200 1.378 . S
C1208 C1203 1.350 . S
C1209 H1196 0.929 . S
C1209 C1201 1.433 . S
C1209 N1211 1.384 . S
N1210 C1206 1.427 . S
N1210 C1207 1.384 . S
N1211 C1203 1.427 . S
N1211 C1209 1.384 . S
H1212 C1218 0.930 . S
H1213 C1222 0.930 . S
H1214 C1227 0.929 . S
H1215 C1225 0.929 . S
H1216 C1220 0.929 . S
H1217 C1226 0.929 . S
C1218 H1212 0.930 . S
C1218 C1219 1.367 . S
C1218 C1226 1.378 . S
C1219 C1218 1.367 . S
C1219 C1227 1.433 . S
C1220 H1216 0.929 . S
C1220 C1222 1.378 . S
C1220 C1224 1.350 . S
C1221 C1224 1.463 . S
C1221 C1226 1.350 . S
C1221 N1229 1.427 . S
C1222 H1213 0.930 . S
C1222 C1220 1.378 . S
C1222 C1223 1.367 . S
C1223 C1222 1.367 . S
C1223 C1225 1.433 . S
C1224 C1220 1.350 . S
C1224 C1221 1.463 . S
C1224 N1228 1.427 . S
C1225 H1215 0.929 . S
C1225 C1223 1.433 . S
C1225 N1228 1.384 . S
C1226 H1217 0.929 . S
C1226 C1218 1.378 . S
C1226 C1221 1.350 . S
C1227 H1214 0.929 . S
C1227 C1219 1.433 . S
C1227 N1229 1.384 . S
N1228 C1224 1.427 . S
N1228 C1225 1.384 . S
N1229 C1221 1.427 . S
N1229 C1227 1.384 . S
H1230 C1236 0.930 . S
H1231 C1240 0.930 . S
H1232 C1245 0.929 . S
H1233 C1243 0.929 . S
H1234 C1238 0.929 . S
H1235 C1244 0.929 . S
C1236 H1230 0.930 . S
C1236 C1237 1.367 . S
C1236 C1244 1.378 . S
C1237 C1236 1.367 . S
C1237 C1245 1.433 . S
C1238 H1234 0.929 . S
C1238 C1240 1.378 . S
C1238 C1242 1.350 . S
C1239 C1242 1.463 . S
C1239 C1244 1.350 . S
C1239 N1247 1.427 . S
C1240 H1231 0.930 . S
C1240 C1238 1.378 . S
C1240 C1241 1.367 . S
C1241 C1240 1.367 . S
C1241 C1243 1.433 . S
C1242 C1238 1.350 . S
C1242 C1239 1.463 . S
C1242 N1246 1.427 . S
C1243 H1233 0.929 . S
C1243 C1241 1.433 . S
C1243 N1246 1.384 . S
C1244 H1235 0.929 . S
C1244 C1236 1.378 . S
C1244 C1239 1.350 . S
C1245 H1232 0.929 . S
C1245 C1237 1.433 . S
C1245 N1247 1.384 . S
N1246 C1242 1.427 . S
N1246 C1243 1.384 . S
N1247 C1239 1.427 . S
N1247 C1245 1.384 . S
C535 N5 1.475 . S
C539 N509 1.460 . S
C553 N278 2.125 . S
C557 N38 2.120 . S
C571 N410 1.783 . S
C575 N71 1.782 . S
C589 N113 2.195 . S
C593 N344 2.191 . S
C607 N368 2.092 . S
C611 N47 2.099 . S
C625 N80 1.948 . S
C629 N311 1.945 . S
C643 N104 2.013 . S
C647 N434 2.011 . S
C661 N14 1.467 . S
C665 N236 1.455 . S
C679 N269 2.185 . S
C683 N146 2.194 . S
C697 N401 1.775 . S
C701 N179 1.779 . S
C715 N203 2.055 . S
C719 N335 2.055 . S
C733 N212 2.093 . S
C737 N443 2.086 . S
C751 N137 2.047 . S
C755 N377 2.049 . S
C769 N476 1.490 . S
C773 N245 1.486 . S
C787 N302 1.871 . S
C791 N170 1.873 . S
C805 N500 1.420 . S
C809 N467 1.420 . S
C823 C17 0.811 . S
C827 C61 0.813 . S
C841 C41 1.211 . S
C845 C74 1.208 . S
C859 C83 1.100 . S
C863 C107 1.102 . S
C877 C127 1.440 . S
C881 C8 1.441 . S
C895 C28 0.813 . S
C899 C193 0.820 . S
C913 C149 0.796 . S
C917 C116 0.792 . S
C931 C215 0.436 . S
C935 C50 0.436 . S
C949 C490 0.772 . S
C953 C94 0.767 . S
C967 C281 0.868 . S
C971 C239 0.865 . S
C985 C292 1.331 . S
C989 C305 1.330 . S
C1003 C325 1.204 . S
C1007 C338 1.206 . S
C1021 C347 0.614 . S
C1025 C259 0.621 . S
C1039 C413 0.536 . S
C1043 C248 0.539 . S
C1057 C371 1.184 . S
C1061 C358 1.180 . S
C1075 C272 1.251 . S
C1079 C457 1.255 . S
C1093 C512 0.790 . S
C1097 C314 0.790 . S
C1111 C160 1.288 . S
C1115 C470 1.286 . S
C1129 C140 1.385 . S
C1133 C173 1.384 . S
C1147 C182 0.883 . S
C1151 C206 0.885 . S
C1165 C479 0.924 . S
C1169 C226 0.920 . S
C1183 C380 0.708 . S
C1187 C503 0.708 . S
C1201 C424 1.250 . S
C1205 C391 1.247 . S
C1219 C404 1.197 . S
C1223 C437 1.195 . S
C1237 C523 0.505 . S
C1241 C446 0.501 . S
