# Generated by pormake.
# Topology ecf, (8)-cn, num edge types: 1
# Building blocks:
#     Node 0, Type 0, BuildingBlock: GIZVER_clean_sbu_0, # of connection points: 8
#     Node 1, Type 0, BuildingBlock: GIZVER_clean_sbu_0, # of connection points: 8
#     Node 2, Type 0, BuildingBlock: GIZVER_clean_sbu_0, # of connection points: 8
#     Node 3, Type 0, BuildingBlock: GIZVER_clean_sbu_0, # of connection points: 8
#     Node 4, Type 0, BuildingBlock: GIZVER_clean_sbu_0, # of connection points: 8
#     Node 5, Type 0, BuildingBlock: GIZVER_clean_sbu_0, # of connection points: 8
#     Edge 6, Type (0, 0), BuildingBlock: XIVTED_clean_linker_0, # of connection points: 2
#     Edge 7, Type (0, 0), BuildingBlock: XIVTED_clean_linker_0, # of connection points: 2
#     Edge 8, Type (0, 0), BuildingBlock: XIVTED_clean_linker_0, # of connection points: 2
#     Edge 9, Type (0, 0), BuildingBlock: XIVTED_clean_linker_0, # of connection points: 2
#     Edge 10, Type (0, 0), BuildingBlock: XIVTED_clean_linker_0, # of connection points: 2
#     Edge 11, Type (0, 0), BuildingBlock: XIVTED_clean_linker_0, # of connection points: 2
#     Edge 12, Type (0, 0), BuildingBlock: XIVTED_clean_linker_0, # of connection points: 2
#     Edge 13, Type (0, 0), BuildingBlock: XIVTED_clean_linker_0, # of connection points: 2
#     Edge 14, Type (0, 0), BuildingBlock: XIVTED_clean_linker_0, # of connection points: 2
#     Edge 15, Type (0, 0), BuildingBlock: XIVTED_clean_linker_0, # of connection points: 2
#     Edge 16, Type (0, 0), BuildingBlock: XIVTED_clean_linker_0, # of connection points: 2
#     Edge 17, Type (0, 0), BuildingBlock: XIVTED_clean_linker_0, # of connection points: 2
#     Edge 18, Type (0, 0), BuildingBlock: XIVTED_clean_linker_0, # of connection points: 2
#     Edge 19, Type (0, 0), BuildingBlock: XIVTED_clean_linker_0, # of connection points: 2
#     Edge 20, Type (0, 0), BuildingBlock: XIVTED_clean_linker_0, # of connection points: 2
#     Edge 21, Type (0, 0), BuildingBlock: XIVTED_clean_linker_0, # of connection points: 2
#     Edge 22, Type (0, 0), BuildingBlock: XIVTED_clean_linker_0, # of connection points: 2
#     Edge 23, Type (0, 0), BuildingBlock: XIVTED_clean_linker_0, # of connection points: 2
#     Edge 24, Type (0, 0), BuildingBlock: XIVTED_clean_linker_0, # of connection points: 2
#     Edge 25, Type (0, 0), BuildingBlock: XIVTED_clean_linker_0, # of connection points: 2
#     Edge 26, Type (0, 0), BuildingBlock: XIVTED_clean_linker_0, # of connection points: 2
#     Edge 27, Type (0, 0), BuildingBlock: XIVTED_clean_linker_0, # of connection points: 2
#     Edge 28, Type (0, 0), BuildingBlock: XIVTED_clean_linker_0, # of connection points: 2
#     Edge 29, Type (0, 0), BuildingBlock: XIVTED_clean_linker_0, # of connection points: 2
# Relax obj value: 0.385
# Max RMSD: 0.263
# Mean RMSD: 0.263
data_MOF--net-ecf--node1-GIZVER_clean_sbu_0--edge1-XIVTED_clean_linker_0
_symmetry_space_group_name_H-M    P1
_symmetry_Int_Tables_number       1
_symmetry_cell_setting            triclinic
loop_
_symmetry_equiv_pos_as_xyz
'x, y, z'
_cell_length_a     37.282232
_cell_length_b     37.265836
_cell_length_c     22.85004
_cell_angle_alpha  89.989562
_cell_angle_beta   89.991796
_cell_angle_gamma 119.96976
loop_
_atom_site_label
_atom_site_type_symbol
_atom_site_fract_x
_atom_site_fract_y
_atom_site_fract_z
_atom_type_partial_charge
Co0 Co 0.26462 0.44102 0.38477 0.0
Co1 Co 0.19016 0.42022 0.35148 0.0
Co2 Co 0.19508 0.33934 0.35208 0.0
O3 O 0.22362 0.399 0.33096 0.0
H4 H 0.23164 0.40392 0.29025 0.0
O5 O 0.17082 0.2822 0.37927 0.0
Co6 Co 0.1145 0.24971 0.40039 0.0
Co7 Co 0.15684 0.24531 0.3218 0.0
H8 H 0.18805 0.27847 0.40721 0.0
O9 O 0.19619 0.46472 0.31206 0.0
O10 O 0.22634 0.46421 0.3983 0.0
O11 O 0.13741 0.38351 0.38831 0.0
O12 O 0.16305 0.34492 0.42064 0.0
O13 O 0.14762 0.3271 0.2973 0.0
O14 O 0.06341 0.21857 0.4253 0.0
O15 O 0.12222 0.22982 0.46916 0.0
O16 O 0.09877 0.26585 0.33132 0.0
O17 O 0.22439 0.32963 0.28285 0.0
O18 O 0.17354 0.27015 0.24519 0.0
O19 O 0.11214 0.20151 0.35717 0.0
O20 O 0.1764 0.21135 0.33875 0.0
C21 C 0.31443 0.50024 0.37601 0.0
C22 C 0.24945 0.37143 0.45071 0.0
C23 C 0.13488 0.35511 0.42154 0.0
C24 C 0.21848 0.48427 0.35746 0.0
C25 C 0.08184 0.21154 0.46839 0.0
C26 C 0.11137 0.29517 0.29426 0.0
C27 C 0.20837 0.30347 0.24027 0.0
C28 C 0.14045 0.19067 0.36402 0.0
O29 O 0.30388 0.48195 0.4266 0.0
O30 O 0.29227 0.48109 0.32988 0.0
O31 O 0.24224 0.35108 0.40356 0.0
O32 O 0.24473 0.40321 0.45233 0.0
Co33 Co 0.89723 0.09891 0.77851 0.0
Co34 Co 0.94482 0.14227 0.85544 0.0
Co35 Co 0.88809 0.17964 0.82639 0.0
O36 O 0.92085 0.1554 0.79853 0.0
H37 H 0.94128 0.17246 0.76985 0.0
O38 O 0.8571 0.20826 0.84804 0.0
Co39 Co 0.85534 0.2487 0.79375 0.0
Co40 Co 0.80227 0.17455 0.82891 0.0
H41 H 0.8607 0.21668 0.88859 0.0
O42 O 0.99809 0.16212 0.83712 0.0
O43 O 0.94387 0.09737 0.82068 0.0
O44 O 0.93718 0.15899 0.93225 0.0
O45 O 0.92767 0.20942 0.89488 0.0
O46 O 0.92287 0.22657 0.77418 0.0
O47 O 0.85306 0.2874 0.75142 0.0
O48 O 0.84344 0.27689 0.84848 0.0
O49 O 0.87256 0.22824 0.7262 0.0
O50 O 0.84977 0.14706 0.75871 0.0
O51 O 0.78604 0.12155 0.79293 0.0
O52 O 0.79382 0.21017 0.78171 0.0
O53 O 0.76415 0.18087 0.86879 0.0
C54 C 0.90222 0.06583 0.71067 0.0
C55 C 0.84965 0.09636 0.88558 0.0
C56 C 0.93824 0.19362 0.9373 0.0
C57 C 0.98283 0.12586 0.81277 0.0
C58 C 0.84585 0.29849 0.80193 0.0
C59 C 0.90924 0.23346 0.72726 0.0
C60 C 0.81145 0.11881 0.75897 0.0
C61 C 0.76631 0.20265 0.82302 0.0
O62 O 0.87739 0.04762 0.75445 0.0
O63 O 0.92401 0.10622 0.7091 0.0
O64 O 0.85356 0.13245 0.88191 0.0
O65 O 0.86621 0.08359 0.84849 0.0
Co66 Co 0.63939 0.83985 0.38648 0.0
Co67 Co 0.65994 0.78632 0.35155 0.0
Co68 Co 0.74089 0.87179 0.35299 0.0
O69 O 0.68122 0.84113 0.33192 0.0
H70 H 0.67627 0.8446 0.29135 0.0
O71 O 0.798 0.90424 0.38029 0.0
Co72 Co 0.8303 0.88011 0.40081 0.0
Co73 Co 0.83501 0.92752 0.32313 0.0
H74 H 0.80174 0.92497 0.40859 0.0
O75 O 0.61519 0.74811 0.31242 0.0
O76 O 0.6163 0.77832 0.39933 0.0
O77 O 0.69665 0.7699 0.38724 0.0
O78 O 0.73504 0.83369 0.4211 0.0
O79 O 0.75295 0.83665 0.2978 0.0
O80 O 0.8613 0.85984 0.42527 0.0
O81 O 0.85 0.90714 0.46995 0.0
O82 O 0.81428 0.84881 0.33117 0.0
O83 O 0.75083 0.91109 0.28398 0.0
O84 O 0.81041 0.91976 0.2465 0.0
O85 O 0.87868 0.92623 0.35825 0.0
O86 O 0.86891 0.98085 0.34075 0.0
C87 C 0.58013 0.83041 0.3787 0.0
C88 C 0.70912 0.89403 0.45207 0.0
C89 C 0.72487 0.79532 0.42104 0.0
C90 C 0.59597 0.75052 0.35849 0.0
C91 C 0.86825 0.885 0.46874 0.0
C92 C 0.7849 0.83236 0.2942 0.0
C93 C 0.77703 0.92116 0.24144 0.0
C94 C 0.88954 0.96536 0.36562 0.0
O95 O 0.59868 0.83796 0.42903 0.0
O96 O 0.59906 0.82766 0.33209 0.0
O97 O 0.7294 0.90722 0.40489 0.0
O98 O 0.67742 0.8575 0.45369 0.0
Co99 Co 0.98262 0.8145 0.77834 0.0
Co100 Co 0.94028 0.81947 0.85634 0.0
Co101 Co 0.90172 0.72527 0.82678 0.0
O102 O 0.92629 0.78233 0.79927 0.0
H103 H 0.90922 0.78607 0.77112 0.0
O104 O 0.87283 0.66571 0.84833 0.0
Co105 Co 0.83189 0.62361 0.79467 0.0
Co106 Co 0.90612 0.64421 0.82859 0.0
H107 H 0.8647 0.66097 0.88902 0.0
O108 O 0.92087 0.85343 0.83875 0.0
O109 O 0.98511 0.86305 0.82076 0.0
O110 O 0.92346 0.79495 0.93311 0.0
O111 O 0.87252 0.73537 0.89576 0.0
O112 O 0.85469 0.71365 0.7751 0.0
O113 O 0.79263 0.58258 0.75301 0.0
O114 O 0.80421 0.58381 0.8498 0.0
O115 O 0.85186 0.66118 0.72683 0.0
O116 O 0.93373 0.71921 0.75857 0.0
O117 O 0.95907 0.68071 0.79233 0.0
O118 O 0.8701 0.60027 0.78164 0.0
O119 O 0.89975 0.59972 0.86834 0.0
C120 C 1.01542 0.85223 0.71006 0.0
C121 C 0.98526 0.76929 0.88506 0.0
C122 C 0.88869 0.76158 0.93824 0.0
C123 C 0.95686 0.87396 0.81357 0.0
C124 C 0.78207 0.5645 0.80375 0.0
C125 C 0.84733 0.69309 0.72814 0.0
C126 C 0.96186 0.70895 0.75853 0.0
C127 C 0.87775 0.5802 0.82272 0.0
O128 O 1.03377 0.84538 0.75345 0.0
O129 O 0.97506 0.83404 0.70919 0.0
O130 O 0.94899 0.73741 0.88172 0.0
O131 O 0.99814 0.79863 0.84796 0.0
Co132 Co 0.24105 0.81588 0.38609 0.0
Co133 Co 0.29451 0.8903 0.3522 0.0
Co134 Co 0.20875 0.88517 0.35256 0.0
O135 O 0.2399 0.85661 0.33176 0.0
H136 H 0.2368 0.84843 0.29111 0.0
O137 O 0.17585 0.90944 0.3795 0.0
Co138 Co 0.19964 0.9658 0.40019 0.0
Co139 Co 0.15264 0.92316 0.32221 0.0
H140 H 0.15506 0.89232 0.4077 0.0
O141 O 0.333 0.8843 0.31293 0.0
O142 O 0.30246 0.85434 0.39934 0.0
O143 O 0.31041 0.94313 0.3887 0.0
O144 O 0.24623 0.9173 0.42114 0.0
O145 O 0.24395 0.93256 0.29769 0.0
O146 O 0.21959 1.01697 0.4248 0.0
O147 O 0.17241 0.9582 0.46924 0.0
O148 O 0.23111 0.98139 0.33067 0.0
O149 O 0.16994 0.85584 0.28323 0.0
O150 O 0.16087 0.90652 0.24566 0.0
O151 O 0.15352 0.96791 0.35745 0.0
O152 O 0.09921 0.90349 0.33949 0.0
C153 C 0.2506 0.76609 0.37814 0.0
C154 C 0.18648 0.83102 0.45142 0.0
C155 C 0.28452 0.94557 0.42198 0.0
C156 C 0.33033 0.86212 0.35847 0.0
C157 C 0.19441 0.99859 0.4682 0.0
C158 C 0.24791 0.96867 0.29392 0.0
C159 C 0.15984 0.87191 0.24062 0.0
C160 C 0.11445 0.9395 0.3646 0.0
O161 O 0.24287 0.77694 0.42849 0.0
O162 O 0.2535 0.78793 0.33164 0.0
O163 O 0.17334 0.83803 0.40411 0.0
O164 O 0.22307 0.83602 0.45327 0.0
Co165 Co 0.26627 0.18362 0.77731 0.0
Co166 Co 0.26172 0.13643 0.85532 0.0
Co167 Co 0.35581 0.19278 0.82633 0.0
O168 O 0.29889 0.15988 0.79834 0.0
H169 H 0.29552 0.13921 0.77009 0.0
O170 O 0.41536 0.22383 0.84805 0.0
Co171 Co 0.45752 0.22545 0.79381 0.0
Co172 Co 0.43642 0.27862 0.82856 0.0
H173 H 0.42017 0.22032 0.88865 0.0
O174 O 0.22812 0.08305 0.83767 0.0
O175 O 0.21799 0.13741 0.81989 0.0
O176 O 0.28602 0.14433 0.93222 0.0
O177 O 0.3459 0.15346 0.89527 0.0
O178 O 0.36801 0.15775 0.77468 0.0
O179 O 0.49847 0.22764 0.75155 0.0
O180 O 0.49766 0.23764 0.84851 0.0
O181 O 0.41982 0.20794 0.72634 0.0
O182 O 0.36166 0.2309 0.75825 0.0
O183 O 0.39958 0.29469 0.7924 0.0
O184 O 0.4803 0.28687 0.78112 0.0
O185 O 0.481 0.31702 0.86789 0.0
C186 C 0.22838 0.17838 0.70909 0.0
C187 C 0.31103 0.23172 0.88412 0.0
C188 C 0.31952 0.1432 0.93761 0.0
C189 C 0.20735 0.09833 0.81266 0.0
C190 C 0.51681 0.23506 0.80204 0.0
C191 C 0.38843 0.17123 0.72766 0.0
C192 C 0.37159 0.26921 0.75838 0.0
C193 C 0.50042 0.31467 0.82202 0.0
O194 O 0.23508 0.20354 0.75246 0.0
O195 O 0.24679 0.15638 0.70819 0.0
O196 O 0.34308 0.22756 0.88131 0.0
O197 O 0.28195 0.21511 0.84673 0.0
H198 H 0.23236 0.53685 0.26703 0.0
H199 H 0.25612 0.72165 0.46936 0.0
H200 H 0.24013 0.53486 0.45521 0.0
H201 H 0.25604 0.72536 0.2806 0.0
H202 H 0.25703 0.65672 0.46522 0.0
H203 H 0.24823 0.60854 0.27145 0.0
C204 C 0.23772 0.55164 0.30946 0.0
C205 C 0.2342 0.52951 0.36099 0.0
C206 C 0.25718 0.67183 0.42467 0.0
C207 C 0.25216 0.61209 0.36632 0.0
C208 C 0.25659 0.70899 0.42688 0.0
C209 C 0.25545 0.72888 0.37513 0.0
C210 C 0.25639 0.65402 0.37028 0.0
C211 C 0.2566 0.71107 0.32159 0.0
C212 C 0.24686 0.59273 0.31187 0.0
C213 C 0.24226 0.55064 0.41447 0.0
N214 N 0.25657 0.67448 0.32058 0.0
N215 N 0.25027 0.59061 0.41583 0.0
H216 H 0.56731 0.24157 0.71105 0.0
H217 H 0.72705 0.21575 0.91349 0.0
H218 H 0.56233 0.23943 0.89977 0.0
H219 H 0.73756 0.22469 0.72541 0.0
H220 H 0.67129 0.23165 0.9091 0.0
H221 H 0.63301 0.24225 0.71537 0.0
C222 C 0.58014 0.24153 0.75356 0.0
C223 C 0.55883 0.23988 0.80524 0.0
C224 C 0.68587 0.23051 0.86869 0.0
C225 C 0.63446 0.24056 0.81029 0.0
C226 C 0.71779 0.22135 0.87109 0.0
C227 C 0.73661 0.21815 0.81957 0.0
C228 C 0.67205 0.23619 0.81427 0.0
C229 C 0.72374 0.22653 0.76614 0.0
C230 C 0.61782 0.242 0.75588 0.0
C231 C 0.57741 0.2404 0.85884 0.0
N232 N 0.69182 0.23459 0.76479 0.0
N233 N 0.6139 0.24026 0.85994 0.0
H234 H 0.35289 0.54652 0.27767 0.0
H235 H 0.54584 0.72394 0.45689 0.0
H236 H 0.36102 0.5499 0.46618 0.0
H237 H 0.54316 0.70879 0.26948 0.0
H238 H 0.47345 0.66714 0.46128 0.0
H239 H 0.41805 0.61277 0.27389 0.0
C240 C 0.36812 0.5613 0.31823 0.0
C241 C 0.35166 0.54223 0.37221 0.0
C242 C 0.48871 0.67659 0.41919 0.0
C243 C 0.42637 0.61813 0.36836 0.0
C244 C 0.52993 0.70911 0.41672 0.0
C245 C 0.55086 0.72063 0.36293 0.0
C246 C 0.46829 0.65584 0.36743 0.0
C247 C 0.5286 0.70045 0.31213 0.0
C248 C 0.4054 0.59912 0.31612 0.0
C249 C 0.37275 0.56309 0.42345 0.0
N250 N 0.48882 0.669 0.31568 0.0
N251 N 0.40904 0.59965 0.42025 0.0
H252 H 0.83971 0.34265 0.71084 0.0
H253 H 0.86387 0.52763 0.91318 0.0
H254 H 0.84104 0.3395 0.89959 0.0
H255 H 0.85622 0.52962 0.72498 0.0
H256 H 0.84808 0.45598 0.90879 0.0
H257 H 0.83877 0.40755 0.71505 0.0
C258 C 0.83952 0.35542 0.75333 0.0
C259 C 0.84101 0.3357 0.80505 0.0
C260 C 0.84946 0.47178 0.86836 0.0
C261 C 0.84002 0.41053 0.80997 0.0
C262 C 0.85855 0.51285 0.87075 0.0
C263 C 0.86209 0.53498 0.81921 0.0
C264 C 0.84422 0.45243 0.81392 0.0
C265 C 0.85408 0.51386 0.76573 0.0
C266 C 0.83891 0.39257 0.75559 0.0
C267 C 0.8402 0.35365 0.85863 0.0
N268 N 0.84611 0.4739 0.76439 0.0
N269 N 0.8402 0.39022 0.85966 0.0
H270 H 0.36873 0.84789 0.26805 0.0
H271 H 0.53022 0.82471 0.47007 0.0
H272 H 0.35952 0.84081 0.45631 0.0
H273 H 0.53391 0.82502 0.2813 0.0
H274 H 0.46434 0.82367 0.46612 0.0
H275 H 0.42458 0.83209 0.27242 0.0
C276 C 0.37829 0.84269 0.31049 0.0
C277 C 0.35983 0.8464 0.36204 0.0
C278 C 0.4793 0.8236 0.42553 0.0
C279 C 0.4245 0.82853 0.36733 0.0
C280 C 0.51708 0.82428 0.42763 0.0
C281 C 0.53807 0.82552 0.37582 0.0
C282 C 0.46222 0.82439 0.37119 0.0
C283 C 0.51909 0.82439 0.32233 0.0
C284 C 0.41026 0.8336 0.31288 0.0
C285 C 0.37305 0.83854 0.41555 0.0
N286 N 0.4825 0.82433 0.32143 0.0
N287 N 0.40503 0.83057 0.41688 0.0
H288 H 0.55093 0.34035 0.72404 0.0
H289 H 0.74346 0.51886 0.90243 0.0
H290 H 0.55282 0.35733 0.91102 0.0
H291 H 0.73568 0.51431 0.71388 0.0
H292 H 0.67824 0.4527 0.90661 0.0
H293 H 0.62337 0.39698 0.71964 0.0
C294 C 0.56667 0.35557 0.76413 0.0
C295 C 0.54552 0.34459 0.81776 0.0
C296 C 0.69099 0.46607 0.86429 0.0
C297 C 0.62815 0.40916 0.81324 0.0
C298 C 0.72829 0.50384 0.86195 0.0
C299 C 0.74485 0.52256 0.80783 0.0
C300 C 0.6701 0.44677 0.81214 0.0
C301 C 0.72387 0.50139 0.75671 0.0
C302 C 0.60793 0.38797 0.76165 0.0
C303 C 0.56756 0.36523 0.86847 0.0
N304 N 0.68754 0.46489 0.76012 0.0
N305 N 0.60739 0.39656 0.8649 0.0
H306 H 0.19021 0.21346 0.45766 0.0
H307 H 0.24829 0.07657 0.50591 0.0
H308 H 0.08667 0.10683 0.37928 0.0
H309 H 0.12112 0.98091 0.52185 0.0
H310 H 0.22757 0.12833 0.51421 0.0
H311 H 0.19785 0.16841 0.52774 0.0
C312 C 0.16873 0.18041 0.45582 0.0
C313 C 0.13813 0.16357 0.4123 0.0
C314 C 0.20381 0.09612 0.51788 0.0
C315 C 0.14828 0.11166 0.49007 0.0
C316 C 0.21589 0.06641 0.51346 0.0
C317 C 0.18583 1.02455 0.50799 0.0
C318 C 0.16139 0.08349 0.51546 0.0
C319 C 0.14471 1.01308 0.52057 0.0
C320 C 0.17324 0.15473 0.49566 0.0
C321 C 0.1108 0.1208 0.41201 0.0
N322 N 0.13312 0.04239 0.52016 0.0
N323 N 0.11711 0.09608 0.44963 0.0
H324 H 1.00943 0.17471 0.71811 0.0
H325 H 0.20439 0.23232 0.67102 0.0
H326 H 1.0127 0.07179 0.79867 0.0
H327 H 0.17269 0.105 0.65564 0.0
H328 H 0.13197 0.21171 0.66271 0.0
H329 H 0.06208 0.18182 0.64832 0.0
C330 C 1.02102 0.15324 0.72047 0.0
C331 C 1.00738 0.12302 0.76458 0.0
C332 C 0.14038 0.1879 0.65919 0.0
C333 C 0.06928 0.13252 0.68703 0.0
C334 C 0.18212 0.19991 0.6636 0.0
C335 C 0.19387 0.16978 0.66924 0.0
C336 C 0.11055 0.14548 0.66177 0.0
C337 C 0.16417 0.12865 0.65683 0.0
C338 C 0.05115 0.15743 0.68078 0.0
C339 C 1.02278 0.09564 0.7655 0.0
N340 N 0.12331 0.11713 0.65726 0.0
N341 N 0.05375 0.10165 0.72798 0.0
H342 H 1.00378 0.18719 0.50601 0.0
H343 H 0.8671 0.99206 0.45996 0.0
H344 H 0.0997 0.15597 0.52197 0.0
H345 H 0.97339 0.99525 0.38007 0.0
H346 H 0.91245 0.04487 0.52962 0.0
H347 H 0.95222 0.11471 0.51479 0.0
C348 C 1.01404 0.16502 0.51362 0.0
C349 C 0.05592 0.17689 0.50807 0.0
C350 C 0.92599 0.03389 0.49734 0.0
C351 C 0.99719 0.0935 0.51612 0.0
C352 C 0.90014 1.00365 0.45774 0.0
C353 C 0.9168 0.98992 0.41387 0.0
C354 C 0.96901 0.05209 0.49116 0.0
C355 C 0.95956 1.00538 0.41308 0.0
C356 C 0.98445 0.12324 0.51834 0.0
C357 C 0.06751 0.14733 0.52074 0.0
N358 N 0.98442 0.03648 0.45046 0.0
N359 N 1.0383 0.10641 0.52062 0.0
H360 H 0.84842 0.98755 0.674 0.0
H361 H 0.9074 0.85114 0.71961 0.0
H362 H 0.97531 0.08355 0.65632 0.0
H363 H 1.01065 0.9578 0.79838 0.0
H364 H 0.89952 0.89625 0.64987 0.0
H365 H 0.86939 0.93598 0.66513 0.0
C366 C 0.88079 0.99781 0.66597 0.0
C367 C 0.91075 0.03975 0.67101 0.0
C368 C 0.92417 0.90991 0.68191 0.0
C369 C 0.93549 0.98103 0.66289 0.0
C370 C 0.9288 0.88421 0.72155 0.0
C371 C 0.95935 0.90104 0.76515 0.0
C372 C 0.94893 0.95298 0.68777 0.0
C373 C 0.98658 0.94383 0.76559 0.0
C374 C 0.89301 0.96823 0.6612 0.0
C375 C 0.95183 0.05135 0.65788 0.0
N376 N 0.98012 0.96856 0.72818 0.0
N377 N 0.96359 1.02216 0.65797 0.0
H378 H 0.89268 0.83109 0.50542 0.0
H379 H 0.08793 0.89002 0.45862 0.0
H380 H 0.9237 0.95811 0.52296 0.0
H381 H 0.08411 0.9931 0.37963 0.0
H382 H 1.0351 0.88217 0.52858 0.0
H383 H 0.96518 0.852 0.51377 0.0
C384 C 0.91481 0.86348 0.5133 0.0
C385 C 0.90287 0.89349 0.5083 0.0
C386 C 1.04595 0.90676 0.49644 0.0
C387 C 0.98626 0.91815 0.51587 0.0
C388 C 0.07619 0.91138 0.45666 0.0
C389 C 0.08976 0.94187 0.41295 0.0
C390 C 1.02761 0.93151 0.49064 0.0
C391 C 0.07411 0.96905 0.41249 0.0
C392 C 0.95659 0.87566 0.51777 0.0
C393 C 0.93239 0.93458 0.5213 0.0
N394 N 1.04304 0.96263 0.45007 0.0
N395 N 0.9733 0.9463 0.52093 0.0
H396 H 0.23006 0.07157 0.71866 0.0
H397 H 0.0935 0.87637 0.67265 0.0
H398 H 0.12351 0.06824 0.79785 0.0
H399 H 0.99764 0.90763 0.65581 0.0
H400 H 0.1451 0.94883 0.6637 0.0
H401 H 0.18491 1.01869 0.6489 0.0
C402 C 0.197 0.05992 0.72071 0.0
C403 C 0.18021 0.07364 0.76441 0.0
C404 C 0.11287 0.9403 0.65998 0.0
C405 C 0.12824 1.01145 0.68698 0.0
C406 C 0.08326 0.89854 0.66479 0.0
C407 C 1.04138 0.8867 0.67017 0.0
C408 C 0.10014 0.97006 0.66195 0.0
C409 C 1.02982 0.91625 0.65717 0.0
C410 C 0.17128 1.02966 0.68105 0.0
C411 C 0.13744 0.05812 0.76499 0.0
N412 N 0.05904 0.95715 0.65722 0.0
N413 N 0.1127 1.02702 0.72753 0.0
H414 H 0.28919 0.32128 0.22926 0.0
H415 H 0.25906 0.26319 0.88798 0.0
H416 H 0.18031 0.29241 0.12868 0.0
H417 H 0.34845 0.25125 0.99368 0.0
H418 H 0.24075 0.2906 0.97218 0.0
H419 H 0.3213 0.31199 0.14029 0.0
C420 C 0.27262 0.31429 0.18811 0.0
C421 C 0.23214 0.30785 0.18611 0.0
C422 C 0.26465 0.28238 0.97708 0.0
C423 C 0.26833 0.29683 1.08479 0.0
C424 C 0.27523 0.2667 0.92883 0.0
C425 C 0.30507 0.2543 0.93366 0.0
C426 C 0.2838 0.28583 1.03127 0.0
C427 C 0.32525 0.26031 0.98785 0.0
C428 C 0.29072 0.3085 0.13761 0.0
C429 C 0.21161 0.29782 0.13205 0.0
N430 N 0.31394 0.27523 1.03478 0.0
N431 N 0.22983 0.29257 1.08381 0.0
H432 H 0.90493 0.26975 0.62213 0.0
H433 H 0.12467 0.30223 0.51194 0.0
H434 H 0.98029 0.23055 0.71505 0.0
H435 H 0.06461 0.36184 0.42782 0.0
H436 H 0.06671 0.26907 0.58014 0.0
H437 H 0.95792 0.29752 0.54393 0.0
C438 C 0.93206 0.26638 0.62586 0.0
C439 C 0.93776 0.24753 0.67558 0.0
C440 C 0.06611 0.28947 0.54686 0.0
C441 C 0.99838 0.27913 0.58655 0.0
C442 C 0.09931 0.30838 0.50771 0.0
C443 C 0.09984 0.3351 0.46403 0.0
C444 C 1.03291 0.29727 0.54286 0.0
C445 C 0.06583 0.34177 0.46104 0.0
C446 C 0.9624 0.2824 0.5814 0.0
C447 C 0.9739 0.24443 0.67794 0.0
N448 N 1.03386 0.32312 0.4999 0.0
N449 N 1.00248 0.25995 0.63453 0.0
H450 H 0.78368 0.9001 0.13038 0.0
H451 H 0.82923 0.11549 0.99352 0.0
H452 H 0.76362 0.987 0.22897 0.0
H453 H 0.82011 1.01325 0.89296 0.0
H454 H 0.80138 0.06922 1.079 0.0
H455 H 0.79253 0.94027 1.04176 0.0
C456 C 0.78013 0.92721 0.13295 0.0
C457 C 0.77246 0.93999 0.18686 0.0
C458 C 0.80495 0.05689 1.0379 0.0
C459 C 0.7843 0.98749 1.08567 0.0
C460 C 0.82074 0.08327 0.98903 0.0
C461 C 0.82748 0.06847 0.93591 0.0
C462 C 0.79598 1.01551 1.03361 0.0
C463 C 0.81608 1.02639 0.93297 0.0
C464 C 0.78545 0.95038 1.08238 0.0
C465 C 0.76884 0.97576 0.18798 0.0
N466 N 0.80138 1.00173 0.98099 0.0
N467 N 0.77549 0.99871 0.1383 0.0
H468 H 0.85348 0.76851 0.71535 0.0
H469 H 0.71808 0.71826 0.42474 0.0
H470 H 0.80847 0.65247 0.62401 0.0
H471 H 0.77711 0.83642 0.51287 0.0
H472 H 0.75094 0.69319 0.49396 0.0
H473 H 0.82761 0.79334 0.63829 0.0
C474 C 0.83865 0.74816 0.67866 0.0
C475 C 0.83371 0.70816 0.67662 0.0
C476 C 0.75683 0.72463 0.49795 0.0
C477 C 0.80192 0.73665 0.58731 0.0
C478 C 0.7379 0.739 0.45862 0.0
C479 C 0.7446 0.77962 0.46296 0.0
C480 C 0.7826 0.75093 0.54229 0.0
C481 C 0.77093 0.80498 0.50755 0.0
C482 C 0.82344 0.76251 0.63441 0.0
C483 C 0.8133 0.68354 0.62758 0.0
N484 N 0.78873 0.79021 0.54534 0.0
N485 N 0.79774 0.69801 0.58514 0.0
H486 H 0.96598 0.73003 0.99315 0.0
H487 H 0.18101 0.89964 0.12956 0.0
H488 H 0.0685 0.82206 0.89189 0.0
H489 H 0.09446 0.79255 0.22819 0.0
H490 H 0.14107 0.86811 1.04089 0.0
H491 H 1.01223 0.74837 1.07854 0.0
C492 C 0.99827 0.75348 0.98848 0.0
C493 C 1.01315 0.77477 0.93522 0.0
C494 C 0.13101 0.85095 1.08153 0.0
C495 C 0.06609 0.79617 1.03281 0.0
C496 C 0.15404 0.86891 0.13212 0.0
C497 C 0.14126 0.84848 0.18605 0.0
C498 C 0.09404 0.8126 1.08484 0.0
C499 C 0.10567 0.809 0.18718 0.0
C500 C 1.02463 0.76403 1.03731 0.0
C501 C 0.0553 0.8051 0.93205 0.0
N502 N 0.08284 0.7926 0.13749 0.0
N503 N 0.07997 0.81507 0.98003 0.0
H504 H 0.42858 0.17577 0.62206 0.0
H505 H 0.24194 0.95544 0.51281 0.0
H506 H 0.31484 0.09969 0.71628 0.0
H507 H 0.36126 1.01613 0.42788 0.0
H508 H 0.26668 1.01335 0.58113 0.0
H509 H 0.40331 0.12276 0.54392 0.0
C510 C 0.39825 0.14847 0.62611 0.0
C511 C 0.37395 0.14258 0.67615 0.0
C512 C 0.2876 1.01409 0.54765 0.0
C513 C 0.34486 0.08194 0.58717 0.0
C514 C 0.27336 0.98093 0.50842 0.0
C515 C 0.29948 0.9806 0.46449 0.0
C516 C 0.32849 0.04745 0.54344 0.0
C517 C 0.34003 1.01476 0.4613 0.0
C518 C 0.3839 0.11812 0.58167 0.0
C519 C 0.33491 0.10622 0.6789 0.0
N520 N 0.3533 0.04668 0.50021 0.0
N521 N 0.32181 0.07763 0.63548 0.0
H522 H 0.91653 0.76881 1.04934 0.0
H523 H 0.74609 0.81308 0.18579 0.0
H524 H 0.80921 0.74739 0.9506 0.0
H525 H 0.83742 0.80157 0.28731 0.0
H526 H 0.76484 0.78568 0.10014 0.0
H527 H 0.88473 0.777 0.13793 0.0
C528 C 0.88573 0.76487 1.04672 0.0
C529 C 0.86529 0.75699 0.99279 0.0
C530 C 0.78024 0.78859 0.14149 0.0
C531 C 0.82907 0.76802 0.09393 0.0
C532 C 0.76945 0.8041 0.19046 0.0
C533 C 0.79045 0.81009 0.24388 0.0
C534 C 0.81234 0.77918 0.14601 0.0
C535 C 0.82069 0.79813 0.24705 0.0
C536 C 0.86759 0.76977 0.09727 0.0
C537 C 0.82568 0.75281 0.9916 0.0
N538 N 0.83091 0.78376 0.19893 0.0
N539 N 0.8091 0.75908 1.04127 0.0
H540 H 0.1164 0.83587 0.46265 0.0
H541 H 1.03231 0.70255 0.75523 0.0
H542 H 0.18873 0.79354 0.55665 0.0
H543 H 0.97268 0.76078 0.66619 0.0
H544 H 0.09016 0.73538 0.68592 0.0
H545 H 0.06565 0.81014 0.53967 0.0
C546 C 0.12218 0.82166 0.49991 0.0
C547 C 0.15763 0.81743 0.50274 0.0
C548 C 0.06452 0.7411 0.68175 0.0
C549 C 0.09735 0.78582 0.59199 0.0
C550 C 1.03127 0.72219 0.72112 0.0
C551 C 0.99722 0.72865 0.71654 0.0
C552 C 0.06381 0.76661 0.63709 0.0
C553 C 0.99803 0.75477 0.67167 0.0
C554 C 0.09261 0.80655 0.54413 0.0
C555 C 0.16218 0.7978 0.55246 0.0
N556 N 1.03056 0.77254 0.63381 0.0
N557 N 0.13215 0.78231 0.59487 0.0
H558 H 0.31206 0.16393 1.04853 0.0
H559 H 0.26817 0.94942 0.18597 0.0
H560 H 0.33384 0.07796 0.95046 0.0
H561 H 0.2778 0.05183 0.28664 0.0
H562 H 0.29577 0.99558 0.10035 0.0
H563 H 0.3036 0.12399 0.13727 0.0
C564 C 0.31605 0.13708 1.0461 0.0
C565 C 0.3241 0.12448 0.9923 0.0
C566 C 0.29239 1.00798 0.14151 0.0
C567 C 0.31273 0.07726 0.09363 0.0
C568 C 0.27677 0.98167 0.19047 0.0
C569 C 0.27021 0.99655 0.24364 0.0
C570 C 0.30136 0.04936 0.14577 0.0
C571 C 0.28169 0.03864 0.24657 0.0
C572 C 0.31096 0.11405 0.09674 0.0
C573 C 0.32829 0.08904 0.99136 0.0
N574 N 0.2962 0.06324 0.19847 0.0
N575 N 0.32186 0.06621 1.0411 0.0
H576 H 0.37781 0.34602 0.75488 0.0
H577 H 0.24435 0.29638 0.46246 0.0
H578 H 0.31983 0.22811 0.66606 0.0
H579 H 0.28724 0.41144 0.55561 0.0
H580 H 0.27011 0.27145 0.53959 0.0
H581 H 0.345 0.37097 0.68542 0.0
C582 C 0.35823 0.32531 0.72079 0.0
C583 C 0.35184 0.28481 0.71632 0.0
C584 C 0.27382 0.30208 0.54384 0.0
C585 C 0.3139 0.31336 0.63668 0.0
C586 C 0.2587 0.31649 0.49955 0.0
C587 C 0.26308 0.35625 0.5021 0.0
C588 C 0.29469 0.32766 0.5915 0.0
C589 C 0.28286 0.38057 0.55163 0.0
C590 C 0.33933 0.33961 0.68132 0.0
C591 C 0.3258 0.25948 0.67147 0.0
N592 N 0.29834 0.36606 0.59411 0.0
N593 N 0.30803 0.27419 0.63351 0.0
H594 H 1.02792 0.24365 0.29009 0.0
H595 H 1.0014 0.27436 0.94848 0.0
H596 H 0.12968 0.33292 0.1849 0.0
H597 H 0.92064 0.16558 1.04882 0.0
H598 H 1.04247 0.30631 1.03771 0.0
H599 H 0.98248 0.22571 0.20565 0.0
C600 C 1.04074 0.25989 0.2493 0.0
C601 C 0.083 0.28957 0.24468 0.0
C602 C 1.01528 0.2758 1.04028 0.0
C603 C 1.03054 0.26871 0.1468 0.0
C604 C 0.99158 0.25779 0.98963 0.0
C605 C 0.95744 0.21738 0.9915 0.0
C606 C 1.00425 0.25338 0.09312 0.0
C607 C 0.94662 0.19684 1.04556 0.0
C608 C 1.01463 0.24951 0.20092 0.0
C609 C 0.09738 0.30984 0.19058 0.0
N610 N 0.96991 0.21496 0.09395 0.0
N611 N 0.07131 0.29872 0.1435 0.0
H612 H 0.73444 0.04855 0.75535 0.0
H613 H 0.78434 0.96358 0.46416 0.0
H614 H 0.85256 0.1076 0.66714 0.0
H615 H 0.66891 0.89213 0.55668 0.0
H616 H 0.80923 1.01433 0.54115 0.0
H617 H 0.70942 0.99063 0.68616 0.0
C618 C 0.75518 0.04946 0.72146 0.0
C619 C 0.79577 0.08337 0.71708 0.0
C620 C 0.77853 0.98756 0.5453 0.0
C621 C 0.76713 1.01669 0.63776 0.0
C622 C 0.76414 0.95798 0.5011 0.0
C623 C 0.72429 0.92278 0.5035 0.0
C624 C 0.75284 0.98309 0.59273 0.0
C625 C 0.69986 0.91847 0.55283 0.0
C626 C 0.74084 1.01616 0.68215 0.0
C627 C 0.82113 0.08237 0.67248 0.0
N628 N 0.71436 0.94851 0.59523 0.0
N629 N 0.80638 0.0498 0.63468 0.0
loop_
_geom_bond_atom_site_label_1
_geom_bond_atom_site_label_2
_geom_bond_distance
_geom_bond_site_symmetry_2
_ccdc_geom_bond_type
Co0 O3 2.042 . S
Co0 O10 2.264 . S
Co0 O29 2.286 . S
Co0 O30 2.069 . S
Co0 O32 2.015 . S
Co1 O3 2.122 . S
Co1 O9 2.073 . S
Co1 O10 2.327 . S
Co1 O11 1.976 . S
Co2 O3 2.087 . S
Co2 O5 2.087 . S
Co2 O12 2.111 . S
Co2 O13 2.143 . S
Co2 O17 2.111 . S
Co2 O31 2.143 . S
O3 Co0 2.042 . S
O3 Co1 2.122 . S
O3 Co2 2.087 . S
O3 H4 0.980 . S
H4 O3 0.980 . S
O5 Co2 2.087 . S
O5 Co6 2.042 . S
O5 Co7 2.122 . S
O5 H8 0.980 . S
Co6 O5 2.042 . S
Co6 O14 2.286 . S
Co6 O15 2.069 . S
Co6 O16 2.015 . S
Co6 O19 2.264 . S
Co7 O5 2.122 . S
Co7 O18 1.976 . S
Co7 O19 2.327 . S
Co7 O20 2.073 . S
H8 O5 0.980 . S
O9 Co1 2.073 . S
O9 C24 1.245 . S
O10 Co0 2.264 . S
O10 Co1 2.327 . S
O10 C24 1.257 . S
O11 Co1 1.976 . S
O11 C23 1.251 . S
O12 Co2 2.111 . S
O12 C23 1.274 . S
O13 Co2 2.143 . S
O13 C26 1.246 . S
O14 Co6 2.286 . S
O14 C25 1.259 . S
O15 Co6 2.069 . S
O15 C25 1.289 . S
O16 Co6 2.015 . S
O16 C26 1.257 . S
O17 Co2 2.111 . S
O17 C27 1.274 . S
O18 Co7 1.976 . S
O18 C27 1.251 . S
O19 Co6 2.264 . S
O19 Co7 2.327 . S
O19 C28 1.257 . S
O20 Co7 2.073 . S
O20 C28 1.245 . S
C21 O29 1.259 . S
C21 O30 1.289 . S
C22 O31 1.246 . S
C22 O32 1.257 . S
C23 O11 1.251 . S
C23 O12 1.274 . S
C24 O9 1.245 . S
C24 O10 1.257 . S
C25 O14 1.259 . S
C25 O15 1.289 . S
C26 O13 1.246 . S
C26 O16 1.257 . S
C27 O17 1.274 . S
C27 O18 1.251 . S
C28 O19 1.257 . S
C28 O20 1.245 . S
O29 Co0 2.286 . S
O29 C21 1.259 . S
O30 Co0 2.069 . S
O30 C21 1.289 . S
O31 Co2 2.143 . S
O31 C22 1.246 . S
O32 Co0 2.015 . S
O32 C22 1.257 . S
Co33 O36 2.042 . S
Co33 O43 2.264 . S
Co33 O62 2.286 . S
Co33 O63 2.069 . S
Co33 O65 2.015 . S
Co34 O36 2.122 . S
Co34 O42 2.073 . S
Co34 O43 2.327 . S
Co34 O44 1.976 . S
Co35 O36 2.087 . S
Co35 O38 2.087 . S
Co35 O45 2.111 . S
Co35 O46 2.143 . S
Co35 O50 2.111 . S
Co35 O64 2.143 . S
O36 Co33 2.042 . S
O36 Co34 2.122 . S
O36 Co35 2.087 . S
O36 H37 0.980 . S
H37 O36 0.980 . S
O38 Co35 2.087 . S
O38 Co39 2.042 . S
O38 Co40 2.122 . S
O38 H41 0.980 . S
Co39 O38 2.042 . S
Co39 O47 2.286 . S
Co39 O48 2.069 . S
Co39 O49 2.015 . S
Co39 O52 2.264 . S
Co40 O38 2.122 . S
Co40 O51 1.976 . S
Co40 O52 2.327 . S
Co40 O53 2.073 . S
H41 O38 0.980 . S
O42 Co34 2.073 . S
O42 C57 1.245 . S
O43 Co33 2.264 . S
O43 Co34 2.327 . S
O43 C57 1.257 . S
O44 Co34 1.976 . S
O44 C56 1.251 . S
O45 Co35 2.111 . S
O45 C56 1.274 . S
O46 Co35 2.143 . S
O46 C59 1.246 . S
O47 Co39 2.286 . S
O47 C58 1.259 . S
O48 Co39 2.069 . S
O48 C58 1.289 . S
O49 Co39 2.015 . S
O49 C59 1.257 . S
O50 Co35 2.111 . S
O50 C60 1.274 . S
O51 Co40 1.976 . S
O51 C60 1.251 . S
O52 Co39 2.264 . S
O52 Co40 2.327 . S
O52 C61 1.257 . S
O53 Co40 2.073 . S
O53 C61 1.245 . S
C54 O62 1.259 . S
C54 O63 1.289 . S
C55 O64 1.246 . S
C55 O65 1.257 . S
C56 O44 1.251 . S
C56 O45 1.274 . S
C57 O42 1.245 . S
C57 O43 1.257 . S
C58 O47 1.259 . S
C58 O48 1.289 . S
C59 O46 1.246 . S
C59 O49 1.257 . S
C60 O50 1.274 . S
C60 O51 1.251 . S
C61 O52 1.257 . S
C61 O53 1.245 . S
O62 Co33 2.286 . S
O62 C54 1.259 . S
O63 Co33 2.069 . S
O63 C54 1.289 . S
O64 Co35 2.143 . S
O64 C55 1.246 . S
O65 Co33 2.015 . S
O65 C55 1.257 . S
Co66 O69 2.042 . S
Co66 O76 2.264 . S
Co66 O95 2.286 . S
Co66 O96 2.069 . S
Co66 O98 2.015 . S
Co67 O69 2.122 . S
Co67 O75 2.073 . S
Co67 O76 2.327 . S
Co67 O77 1.976 . S
Co68 O69 2.087 . S
Co68 O71 2.087 . S
Co68 O78 2.111 . S
Co68 O79 2.143 . S
Co68 O83 2.111 . S
Co68 O97 2.143 . S
O69 Co66 2.042 . S
O69 Co67 2.122 . S
O69 Co68 2.087 . S
O69 H70 0.980 . S
H70 O69 0.980 . S
O71 Co68 2.087 . S
O71 Co72 2.042 . S
O71 Co73 2.122 . S
O71 H74 0.980 . S
Co72 O71 2.042 . S
Co72 O80 2.286 . S
Co72 O81 2.069 . S
Co72 O82 2.015 . S
Co72 O85 2.264 . S
Co73 O71 2.122 . S
Co73 O84 1.976 . S
Co73 O85 2.327 . S
Co73 O86 2.073 . S
H74 O71 0.980 . S
O75 Co67 2.073 . S
O75 C90 1.245 . S
O76 Co66 2.264 . S
O76 Co67 2.327 . S
O76 C90 1.257 . S
O77 Co67 1.976 . S
O77 C89 1.251 . S
O78 Co68 2.111 . S
O78 C89 1.274 . S
O79 Co68 2.143 . S
O79 C92 1.246 . S
O80 Co72 2.286 . S
O80 C91 1.259 . S
O81 Co72 2.069 . S
O81 C91 1.289 . S
O82 Co72 2.015 . S
O82 C92 1.257 . S
O83 Co68 2.111 . S
O83 C93 1.274 . S
O84 Co73 1.976 . S
O84 C93 1.251 . S
O85 Co72 2.264 . S
O85 Co73 2.327 . S
O85 C94 1.257 . S
O86 Co73 2.073 . S
O86 C94 1.245 . S
C87 O95 1.259 . S
C87 O96 1.289 . S
C88 O97 1.246 . S
C88 O98 1.257 . S
C89 O77 1.251 . S
C89 O78 1.274 . S
C90 O75 1.245 . S
C90 O76 1.257 . S
C91 O80 1.259 . S
C91 O81 1.289 . S
C92 O79 1.246 . S
C92 O82 1.257 . S
C93 O83 1.274 . S
C93 O84 1.251 . S
C94 O85 1.257 . S
C94 O86 1.245 . S
O95 Co66 2.286 . S
O95 C87 1.259 . S
O96 Co66 2.069 . S
O96 C87 1.289 . S
O97 Co68 2.143 . S
O97 C88 1.246 . S
O98 Co66 2.015 . S
O98 C88 1.257 . S
Co99 O102 2.042 . S
Co99 O109 2.264 . S
Co99 O128 2.286 . S
Co99 O129 2.069 . S
Co99 O131 2.015 . S
Co100 O102 2.122 . S
Co100 O108 2.073 . S
Co100 O109 2.327 . S
Co100 O110 1.976 . S
Co101 O102 2.087 . S
Co101 O104 2.087 . S
Co101 O111 2.111 . S
Co101 O112 2.143 . S
Co101 O116 2.111 . S
Co101 O130 2.143 . S
O102 Co99 2.042 . S
O102 Co100 2.122 . S
O102 Co101 2.087 . S
O102 H103 0.980 . S
H103 O102 0.980 . S
O104 Co101 2.087 . S
O104 Co105 2.042 . S
O104 Co106 2.122 . S
O104 H107 0.980 . S
Co105 O104 2.042 . S
Co105 O113 2.286 . S
Co105 O114 2.069 . S
Co105 O115 2.015 . S
Co105 O118 2.264 . S
Co106 O104 2.122 . S
Co106 O117 1.976 . S
Co106 O118 2.327 . S
Co106 O119 2.073 . S
H107 O104 0.980 . S
O108 Co100 2.073 . S
O108 C123 1.245 . S
O109 Co99 2.264 . S
O109 Co100 2.327 . S
O109 C123 1.257 . S
O110 Co100 1.976 . S
O110 C122 1.251 . S
O111 Co101 2.111 . S
O111 C122 1.274 . S
O112 Co101 2.143 . S
O112 C125 1.246 . S
O113 Co105 2.286 . S
O113 C124 1.259 . S
O114 Co105 2.069 . S
O114 C124 1.289 . S
O115 Co105 2.015 . S
O115 C125 1.257 . S
O116 Co101 2.111 . S
O116 C126 1.274 . S
O117 Co106 1.976 . S
O117 C126 1.251 . S
O118 Co105 2.264 . S
O118 Co106 2.327 . S
O118 C127 1.257 . S
O119 Co106 2.073 . S
O119 C127 1.245 . S
C120 O128 1.259 . S
C120 O129 1.289 . S
C121 O130 1.246 . S
C121 O131 1.257 . S
C122 O110 1.251 . S
C122 O111 1.274 . S
C123 O108 1.245 . S
C123 O109 1.257 . S
C124 O113 1.259 . S
C124 O114 1.289 . S
C125 O112 1.246 . S
C125 O115 1.257 . S
C126 O116 1.274 . S
C126 O117 1.251 . S
C127 O118 1.257 . S
C127 O119 1.245 . S
O128 Co99 2.286 . S
O128 C120 1.259 . S
O129 Co99 2.069 . S
O129 C120 1.289 . S
O130 Co101 2.143 . S
O130 C121 1.246 . S
O131 Co99 2.015 . S
O131 C121 1.257 . S
Co132 O135 2.042 . S
Co132 O142 2.264 . S
Co132 O161 2.286 . S
Co132 O162 2.069 . S
Co132 O164 2.015 . S
Co133 O135 2.122 . S
Co133 O141 2.073 . S
Co133 O142 2.327 . S
Co133 O143 1.976 . S
Co134 O135 2.087 . S
Co134 O137 2.087 . S
Co134 O144 2.111 . S
Co134 O145 2.143 . S
Co134 O149 2.111 . S
Co134 O163 2.143 . S
O135 Co132 2.042 . S
O135 Co133 2.122 . S
O135 Co134 2.087 . S
O135 H136 0.980 . S
H136 O135 0.980 . S
O137 Co134 2.087 . S
O137 Co138 2.042 . S
O137 Co139 2.122 . S
O137 H140 0.980 . S
Co138 O137 2.042 . S
Co138 O146 2.286 . S
Co138 O147 2.069 . S
Co138 O148 2.015 . S
Co138 O151 2.264 . S
Co139 O137 2.122 . S
Co139 O150 1.976 . S
Co139 O151 2.327 . S
Co139 O152 2.073 . S
H140 O137 0.980 . S
O141 Co133 2.073 . S
O141 C156 1.245 . S
O142 Co132 2.264 . S
O142 Co133 2.327 . S
O142 C156 1.257 . S
O143 Co133 1.976 . S
O143 C155 1.251 . S
O144 Co134 2.111 . S
O144 C155 1.274 . S
O145 Co134 2.143 . S
O145 C158 1.246 . S
O146 Co138 2.286 . S
O146 C157 1.259 . S
O147 Co138 2.069 . S
O147 C157 1.289 . S
O148 Co138 2.015 . S
O148 C158 1.257 . S
O149 Co134 2.111 . S
O149 C159 1.274 . S
O150 Co139 1.976 . S
O150 C159 1.251 . S
O151 Co138 2.264 . S
O151 Co139 2.327 . S
O151 C160 1.257 . S
O152 Co139 2.073 . S
O152 C160 1.245 . S
C153 O161 1.259 . S
C153 O162 1.289 . S
C154 O163 1.246 . S
C154 O164 1.257 . S
C155 O143 1.251 . S
C155 O144 1.274 . S
C156 O141 1.245 . S
C156 O142 1.257 . S
C157 O146 1.259 . S
C157 O147 1.289 . S
C158 O145 1.246 . S
C158 O148 1.257 . S
C159 O149 1.274 . S
C159 O150 1.251 . S
C160 O151 1.257 . S
C160 O152 1.245 . S
O161 Co132 2.286 . S
O161 C153 1.259 . S
O162 Co132 2.069 . S
O162 C153 1.289 . S
O163 Co134 2.143 . S
O163 C154 1.246 . S
O164 Co132 2.015 . S
O164 C154 1.257 . S
Co165 O168 2.042 . S
Co165 O175 2.264 . S
Co165 O194 2.286 . S
Co165 O195 2.069 . S
Co165 O197 2.015 . S
Co166 O168 2.122 . S
Co166 O174 2.073 . S
Co166 O175 2.327 . S
Co166 O176 1.976 . S
Co167 O168 2.087 . S
Co167 O170 2.087 . S
Co167 O177 2.111 . S
Co167 O178 2.143 . S
Co167 O182 2.111 . S
Co167 O196 2.143 . S
O168 Co165 2.042 . S
O168 Co166 2.122 . S
O168 Co167 2.087 . S
O168 H169 0.980 . S
H169 O168 0.980 . S
O170 Co167 2.087 . S
O170 Co171 2.042 . S
O170 Co172 2.122 . S
O170 H173 0.980 . S
Co171 O170 2.042 . S
Co171 O179 2.286 . S
Co171 O180 2.069 . S
Co171 O181 2.015 . S
Co171 O184 2.264 . S
Co172 O170 2.122 . S
Co172 O183 1.976 . S
Co172 O184 2.327 . S
Co172 O185 2.073 . S
H173 O170 0.980 . S
O174 Co166 2.073 . S
O174 C189 1.245 . S
O175 Co165 2.264 . S
O175 Co166 2.327 . S
O175 C189 1.257 . S
O176 Co166 1.976 . S
O176 C188 1.251 . S
O177 Co167 2.111 . S
O177 C188 1.274 . S
O178 Co167 2.143 . S
O178 C191 1.246 . S
O179 Co171 2.286 . S
O179 C190 1.259 . S
O180 Co171 2.069 . S
O180 C190 1.289 . S
O181 Co171 2.015 . S
O181 C191 1.257 . S
O182 Co167 2.111 . S
O182 C192 1.274 . S
O183 Co172 1.976 . S
O183 C192 1.251 . S
O184 Co171 2.264 . S
O184 Co172 2.327 . S
O184 C193 1.257 . S
O185 Co172 2.073 . S
O185 C193 1.245 . S
C186 O194 1.259 . S
C186 O195 1.289 . S
C187 O196 1.246 . S
C187 O197 1.257 . S
C188 O176 1.251 . S
C188 O177 1.274 . S
C189 O174 1.245 . S
C189 O175 1.257 . S
C190 O179 1.259 . S
C190 O180 1.289 . S
C191 O178 1.246 . S
C191 O181 1.257 . S
C192 O182 1.274 . S
C192 O183 1.251 . S
C193 O184 1.257 . S
C193 O185 1.245 . S
O194 Co165 2.286 . S
O194 C186 1.259 . S
O195 Co165 2.069 . S
O195 C186 1.289 . S
O196 Co167 2.143 . S
O196 C187 1.246 . S
O197 Co165 2.015 . S
O197 C187 1.257 . S
H198 C204 0.930 . S
H199 C208 0.930 . S
H200 C213 0.929 . S
H201 C211 0.929 . S
H202 C206 0.929 . S
H203 C212 0.929 . S
C204 H198 0.930 . S
C204 C205 1.367 . S
C204 C212 1.378 . S
C205 C204 1.367 . S
C205 C213 1.433 . S
C206 H202 0.929 . S
C206 C208 1.378 . S
C206 C210 1.350 . S
C207 C210 1.463 . S
C207 C212 1.350 . S
C207 N215 1.427 . S
C208 H199 0.930 . S
C208 C206 1.378 . S
C208 C209 1.367 . S
C209 C208 1.367 . S
C209 C211 1.433 . S
C210 C206 1.350 . S
C210 C207 1.463 . S
C210 N214 1.427 . S
C211 H201 0.929 . S
C211 C209 1.433 . S
C211 N214 1.384 . S
C212 H203 0.929 . S
C212 C204 1.378 . S
C212 C207 1.350 . S
C213 H200 0.929 . S
C213 C205 1.433 . S
C213 N215 1.384 . S
N214 C210 1.427 . S
N214 C211 1.384 . S
N215 C207 1.427 . S
N215 C213 1.384 . S
H216 C222 0.930 . S
H217 C226 0.930 . S
H218 C231 0.929 . S
H219 C229 0.929 . S
H220 C224 0.929 . S
H221 C230 0.929 . S
C222 H216 0.930 . S
C222 C223 1.367 . S
C222 C230 1.378 . S
C223 C222 1.367 . S
C223 C231 1.433 . S
C224 H220 0.929 . S
C224 C226 1.378 . S
C224 C228 1.350 . S
C225 C228 1.463 . S
C225 C230 1.350 . S
C225 N233 1.427 . S
C226 H217 0.930 . S
C226 C224 1.378 . S
C226 C227 1.367 . S
C227 C226 1.367 . S
C227 C229 1.433 . S
C228 C224 1.350 . S
C228 C225 1.463 . S
C228 N232 1.427 . S
C229 H219 0.929 . S
C229 C227 1.433 . S
C229 N232 1.384 . S
C230 H221 0.929 . S
C230 C222 1.378 . S
C230 C225 1.350 . S
C231 H218 0.929 . S
C231 C223 1.433 . S
C231 N233 1.384 . S
N232 C228 1.427 . S
N232 C229 1.384 . S
N233 C225 1.427 . S
N233 C231 1.384 . S
H234 C240 0.930 . S
H235 C244 0.930 . S
H236 C249 0.929 . S
H237 C247 0.929 . S
H238 C242 0.929 . S
H239 C248 0.929 . S
C240 H234 0.930 . S
C240 C241 1.367 . S
C240 C248 1.378 . S
C241 C240 1.367 . S
C241 C249 1.433 . S
C242 H238 0.929 . S
C242 C244 1.378 . S
C242 C246 1.350 . S
C243 C246 1.463 . S
C243 C248 1.350 . S
C243 N251 1.427 . S
C244 H235 0.930 . S
C244 C242 1.378 . S
C244 C245 1.367 . S
C245 C244 1.367 . S
C245 C247 1.433 . S
C246 C242 1.350 . S
C246 C243 1.463 . S
C246 N250 1.427 . S
C247 H237 0.929 . S
C247 C245 1.433 . S
C247 N250 1.384 . S
C248 H239 0.929 . S
C248 C240 1.378 . S
C248 C243 1.350 . S
C249 H236 0.929 . S
C249 C241 1.433 . S
C249 N251 1.384 . S
N250 C246 1.427 . S
N250 C247 1.384 . S
N251 C243 1.427 . S
N251 C249 1.384 . S
H252 C258 0.930 . S
H253 C262 0.930 . S
H254 C267 0.929 . S
H255 C265 0.929 . S
H256 C260 0.929 . S
H257 C266 0.929 . S
C258 H252 0.930 . S
C258 C259 1.367 . S
C258 C266 1.378 . S
C259 C258 1.367 . S
C259 C267 1.433 . S
C260 H256 0.929 . S
C260 C262 1.378 . S
C260 C264 1.350 . S
C261 C264 1.463 . S
C261 C266 1.350 . S
C261 N269 1.427 . S
C262 H253 0.930 . S
C262 C260 1.378 . S
C262 C263 1.367 . S
C263 C262 1.367 . S
C263 C265 1.433 . S
C264 C260 1.350 . S
C264 C261 1.463 . S
C264 N268 1.427 . S
C265 H255 0.929 . S
C265 C263 1.433 . S
C265 N268 1.384 . S
C266 H257 0.929 . S
C266 C258 1.378 . S
C266 C261 1.350 . S
C267 H254 0.929 . S
C267 C259 1.433 . S
C267 N269 1.384 . S
N268 C264 1.427 . S
N268 C265 1.384 . S
N269 C261 1.427 . S
N269 C267 1.384 . S
H270 C276 0.930 . S
H271 C280 0.930 . S
H272 C285 0.929 . S
H273 C283 0.929 . S
H274 C278 0.929 . S
H275 C284 0.929 . S
C276 H270 0.930 . S
C276 C277 1.367 . S
C276 C284 1.378 . S
C277 C276 1.367 . S
C277 C285 1.433 . S
C278 H274 0.929 . S
C278 C280 1.378 . S
C278 C282 1.350 . S
C279 C282 1.463 . S
C279 C284 1.350 . S
C279 N287 1.427 . S
C280 H271 0.930 . S
C280 C278 1.378 . S
C280 C281 1.367 . S
C281 C280 1.367 . S
C281 C283 1.433 . S
C282 C278 1.350 . S
C282 C279 1.463 . S
C282 N286 1.427 . S
C283 H273 0.929 . S
C283 C281 1.433 . S
C283 N286 1.384 . S
C284 H275 0.929 . S
C284 C276 1.378 . S
C284 C279 1.350 . S
C285 H272 0.929 . S
C285 C277 1.433 . S
C285 N287 1.384 . S
N286 C282 1.427 . S
N286 C283 1.384 . S
N287 C279 1.427 . S
N287 C285 1.384 . S
H288 C294 0.930 . S
H289 C298 0.930 . S
H290 C303 0.929 . S
H291 C301 0.929 . S
H292 C296 0.929 . S
H293 C302 0.929 . S
C294 H288 0.930 . S
C294 C295 1.367 . S
C294 C302 1.378 . S
C295 C294 1.367 . S
C295 C303 1.433 . S
C296 H292 0.929 . S
C296 C298 1.378 . S
C296 C300 1.350 . S
C297 C300 1.463 . S
C297 C302 1.350 . S
C297 N305 1.427 . S
C298 H289 0.930 . S
C298 C296 1.378 . S
C298 C299 1.367 . S
C299 C298 1.367 . S
C299 C301 1.433 . S
C300 C296 1.350 . S
C300 C297 1.463 . S
C300 N304 1.427 . S
C301 H291 0.929 . S
C301 C299 1.433 . S
C301 N304 1.384 . S
C302 H293 0.929 . S
C302 C294 1.378 . S
C302 C297 1.350 . S
C303 H290 0.929 . S
C303 C295 1.433 . S
C303 N305 1.384 . S
N304 C300 1.427 . S
N304 C301 1.384 . S
N305 C297 1.427 . S
N305 C303 1.384 . S
H306 C312 0.930 . S
H307 C316 0.930 . S
H308 C321 0.929 . S
H309 C319 0.929 . S
H310 C314 0.929 . S
H311 C320 0.929 . S
C312 H306 0.930 . S
C312 C313 1.367 . S
C312 C320 1.378 . S
C313 C312 1.367 . S
C313 C321 1.433 . S
C314 H310 0.929 . S
C314 C316 1.378 . S
C314 C318 1.350 . S
C315 C318 1.463 . S
C315 C320 1.350 . S
C315 N323 1.427 . S
C316 H307 0.930 . S
C316 C314 1.378 . S
C316 C317 1.367 1_545 S
C317 C316 1.367 1_565 S
C317 C319 1.433 . S
C318 C314 1.350 . S
C318 C315 1.463 . S
C318 N322 1.427 . S
C319 H309 0.929 . S
C319 C317 1.433 . S
C319 N322 1.384 1_565 S
C320 H311 0.929 . S
C320 C312 1.378 . S
C320 C315 1.350 . S
C321 H308 0.929 . S
C321 C313 1.433 . S
C321 N323 1.384 . S
N322 C318 1.427 . S
N322 C319 1.384 1_545 S
N323 C315 1.427 . S
N323 C321 1.384 . S
H324 C330 0.930 . S
H325 C334 0.930 . S
H326 C339 0.929 . S
H327 C337 0.929 . S
H328 C332 0.929 . S
H329 C338 0.929 1_455 S
C330 H324 0.930 . S
C330 C331 1.367 . S
C330 C338 1.378 . S
C331 C330 1.367 . S
C331 C339 1.433 . S
C332 H328 0.929 . S
C332 C334 1.378 . S
C332 C336 1.350 . S
C333 C336 1.463 . S
C333 C338 1.350 1_455 S
C333 N341 1.443 . S
C334 H325 0.930 . S
C334 C332 1.378 . S
C334 C335 1.367 . S
C335 C334 1.367 . S
C335 C337 1.433 . S
C336 C332 1.350 . S
C336 C333 1.463 . S
C336 N340 1.427 . S
C337 H327 0.929 . S
C337 C335 1.433 . S
C337 N340 1.384 . S
C338 H329 0.929 1_655 S
C338 C330 1.378 . S
C338 C333 1.350 1_655 S
C339 H326 0.929 . S
C339 C331 1.433 . S
C339 N341 1.355 1_655 S
N340 C336 1.427 . S
N340 C337 1.384 . S
N341 C333 1.443 . S
N341 C339 1.355 1_455 S
H342 C348 0.930 . S
H343 C352 0.930 . S
H344 C357 0.933 . S
H345 C355 0.929 . S
H346 C350 0.929 1_545 S
H347 C356 0.929 . S
C348 H342 0.930 . S
C348 C349 1.367 1_655 S
C348 C356 1.378 . S
C349 C348 1.367 1_455 S
C349 C357 1.432 . S
C350 H346 0.929 1_565 S
C350 C352 1.378 . S
C350 C354 1.350 1_565 S
C351 C354 1.463 . S
C351 C356 1.350 . S
C351 N359 1.427 . S
C352 H343 0.930 . S
C352 C350 1.378 . S
C352 C353 1.367 . S
C353 C352 1.367 . S
C353 C355 1.433 . S
C354 C350 1.350 1_545 S
C354 C351 1.463 . S
C354 N358 1.427 . S
C355 H345 0.929 . S
C355 C353 1.433 . S
C355 N358 1.384 1_565 S
C356 H347 0.929 . S
C356 C348 1.378 . S
C356 C351 1.350 . S
C357 H344 0.933 . S
C357 C349 1.432 . S
C357 N359 1.381 1_455 S
N358 C354 1.427 . S
N358 C355 1.384 1_545 S
N359 C351 1.427 . S
N359 C357 1.381 1_655 S
H360 C366 0.930 1_545 S
H361 C370 0.930 . S
H362 C375 0.929 . S
H363 C373 0.929 . S
H364 C368 0.929 . S
H365 C374 0.929 . S
C366 H360 0.930 1_565 S
C366 C367 1.367 1_565 S
C366 C374 1.378 . S
C367 C366 1.367 1_545 S
C367 C375 1.433 1_545 S
C368 H364 0.929 . S
C368 C370 1.378 . S
C368 C372 1.350 . S
C369 C372 1.463 . S
C369 C374 1.350 . S
C369 N377 1.427 . S
C370 H361 0.930 . S
C370 C368 1.378 . S
C370 C371 1.367 . S
C371 C370 1.367 . S
C371 C373 1.433 . S
C372 C368 1.350 . S
C372 C369 1.463 . S
C372 N376 1.427 . S
C373 H363 0.929 . S
C373 C371 1.433 . S
C373 N376 1.384 . S
C374 H365 0.929 . S
C374 C366 1.378 . S
C374 C369 1.350 . S
C375 H362 0.929 . S
C375 C367 1.433 1_565 S
C375 N377 1.384 . S
N376 C372 1.427 . S
N376 C373 1.384 . S
N377 C369 1.427 . S
N377 C375 1.384 . S
H378 C384 0.930 . S
H379 C388 0.930 . S
H380 C393 0.929 . S
H381 C391 0.929 . S
H382 C386 0.929 . S
H383 C392 0.929 . S
C384 H378 0.930 . S
C384 C385 1.367 . S
C384 C392 1.378 . S
C385 C384 1.367 . S
C385 C393 1.433 . S
C386 H382 0.929 . S
C386 C388 1.378 1_655 S
C386 C390 1.350 . S
C387 C390 1.463 . S
C387 C392 1.350 . S
C387 N395 1.427 . S
C388 H379 0.930 . S
C388 C386 1.378 1_455 S
C388 C389 1.367 . S
C389 C388 1.367 . S
C389 C391 1.433 . S
C390 C386 1.350 . S
C390 C387 1.463 . S
C390 N394 1.427 1_655 S
C391 H381 0.929 . S
C391 C389 1.433 . S
C391 N394 1.384 . S
C392 H383 0.929 . S
C392 C384 1.378 . S
C392 C387 1.350 . S
C393 H380 0.929 . S
C393 C385 1.433 . S
C393 N395 1.384 . S
N394 C390 1.427 1_455 S
N394 C391 1.384 . S
N395 C387 1.427 . S
N395 C393 1.384 . S
H396 C402 0.930 . S
H397 C406 0.930 . S
H398 C411 0.929 . S
H399 C409 0.929 . S
H400 C404 0.929 . S
H401 C410 0.929 . S
C402 H396 0.930 . S
C402 C403 1.367 . S
C402 C410 1.378 1_545 S
C403 C402 1.367 . S
C403 C411 1.433 . S
C404 H400 0.929 . S
C404 C406 1.378 1_455 S
C404 C408 1.350 . S
C405 C408 1.463 . S
C405 C410 1.350 . S
C405 N413 1.427 1_565 S
C406 H397 0.930 . S
C406 C404 1.378 1_655 S
C406 C407 1.367 . S
C407 C406 1.367 . S
C407 C409 1.433 1_655 S
C408 C404 1.350 . S
C408 C405 1.463 . S
C408 N412 1.427 . S
C409 H399 0.929 . S
C409 C407 1.433 1_455 S
C409 N412 1.384 . S
C410 H401 0.929 . S
C410 C402 1.378 1_565 S
C410 C405 1.350 . S
C411 H398 0.929 . S
C411 C403 1.433 . S
C411 N413 1.384 . S
N412 C408 1.427 . S
N412 C409 1.384 . S
N413 C405 1.427 1_545 S
N413 C411 1.384 . S
H414 C420 0.930 . S
H415 C424 0.930 . S
H416 C429 0.929 . S
H417 C427 0.929 . S
H418 C422 0.929 . S
H419 C428 0.929 . S
C420 H414 0.930 . S
C420 C421 1.367 . S
C420 C428 1.378 . S
C421 C420 1.367 . S
C421 C429 1.433 . S
C422 H418 0.929 . S
C422 C424 1.378 . S
C422 C426 1.350 . S
C423 C426 1.463 1_554 S
C423 C428 1.350 . S
C423 N431 1.427 . S
C424 H415 0.930 . S
C424 C422 1.378 . S
C424 C425 1.367 . S
C425 C424 1.367 . S
C425 C427 1.433 . S
C426 C422 1.350 . S
C426 C423 1.463 1_556 S
C426 N430 1.427 . S
C427 H417 0.929 . S
C427 C425 1.433 . S
C427 N430 1.384 . S
C428 H419 0.929 . S
C428 C420 1.378 . S
C428 C423 1.350 . S
C429 H416 0.929 . S
C429 C421 1.433 . S
C429 N431 1.384 . S
N430 C426 1.427 . S
N430 C427 1.384 . S
N431 C423 1.427 . S
N431 C429 1.384 . S
H432 C438 0.930 . S
H433 C442 0.930 . S
H434 C447 0.929 . S
H435 C445 0.929 . S
H436 C440 0.929 1_655 S
H437 C446 0.929 . S
C438 H432 0.930 . S
C438 C439 1.367 . S
C438 C446 1.378 . S
C439 C438 1.367 . S
C439 C447 1.433 . S
C440 H436 0.929 1_455 S
C440 C442 1.378 . S
C440 C444 1.351 1_455 S
C441 C444 1.461 . S
C441 C446 1.350 . S
C441 N449 1.427 . S
C442 H433 0.930 . S
C442 C440 1.378 . S
C442 C443 1.367 . S
C443 C442 1.367 . S
C443 C445 1.433 . S
C444 C440 1.351 1_655 S
C444 C441 1.461 . S
C444 N448 1.428 1_655 S
C445 H435 0.929 . S
C445 C443 1.433 . S
C445 N448 1.384 . S
C446 H437 0.929 . S
C446 C438 1.378 . S
C446 C441 1.350 . S
C447 H434 0.929 . S
C447 C439 1.433 . S
C447 N449 1.384 . S
N448 C444 1.428 1_455 S
N448 C445 1.384 . S
N449 C441 1.427 . S
N449 C447 1.384 . S
H450 C456 0.930 . S
H451 C460 0.930 . S
H452 C465 0.929 . S
H453 C463 0.929 . S
H454 C458 0.929 1_554 S
H455 C464 0.929 1_556 S
C456 H450 0.930 . S
C456 C457 1.367 . S
C456 C464 1.378 . S
C457 C456 1.367 . S
C457 C465 1.433 . S
C458 H454 0.929 1_556 S
C458 C460 1.378 . S
C458 C462 1.350 1_545 S
C459 C462 1.463 1_554 S
C459 C464 1.350 . S
C459 N467 1.427 . S
C460 H451 0.930 . S
C460 C458 1.378 . S
C460 C461 1.367 . S
C461 C460 1.367 . S
C461 C463 1.433 . S
C462 C458 1.350 1_565 S
C462 C459 1.463 1_556 S
C462 N466 1.427 . S
C463 H453 0.929 . S
C463 C461 1.433 . S
C463 N466 1.384 1_545 S
C464 H455 0.929 1_554 S
C464 C456 1.378 . S
C464 C459 1.350 . S
C465 H452 0.929 . S
C465 C457 1.433 . S
C465 N467 1.384 . S
N466 C462 1.427 . S
N466 C463 1.384 1_565 S
N467 C459 1.427 . S
N467 C465 1.384 . S
H468 C474 0.930 . S
H469 C478 0.930 . S
H470 C483 0.929 . S
H471 C481 0.929 . S
H472 C476 0.929 . S
H473 C482 0.929 . S
C474 H468 0.930 . S
C474 C475 1.367 . S
C474 C482 1.378 . S
C475 C474 1.367 . S
C475 C483 1.433 . S
C476 H472 0.929 . S
C476 C478 1.378 . S
C476 C480 1.350 . S
C477 C480 1.463 . S
C477 C482 1.350 . S
C477 N485 1.427 . S
C478 H469 0.930 . S
C478 C476 1.378 . S
C478 C479 1.367 . S
C479 C478 1.367 . S
C479 C481 1.433 . S
C480 C476 1.350 . S
C480 C477 1.463 . S
C480 N484 1.427 . S
C481 H471 0.929 . S
C481 C479 1.433 . S
C481 N484 1.384 . S
C482 H473 0.929 . S
C482 C474 1.378 . S
C482 C477 1.350 . S
C483 H470 0.929 . S
C483 C475 1.433 . S
C483 N485 1.384 . S
N484 C480 1.427 . S
N484 C481 1.384 . S
N485 C477 1.427 . S
N485 C483 1.384 . S
H486 C492 0.930 . S
H487 C496 0.930 . S
H488 C501 0.929 . S
H489 C499 0.929 . S
H490 C494 0.929 . S
H491 C500 0.929 1_455 S
C492 H486 0.930 . S
C492 C493 1.367 . S
C492 C500 1.378 . S
C493 C492 1.367 . S
C493 C501 1.433 . S
C494 H490 0.929 . S
C494 C496 1.378 . S
C494 C498 1.350 . S
C495 C498 1.463 1_556 S
C495 C500 1.350 1_455 S
C495 N503 1.427 1_455 S
C496 H487 0.930 . S
C496 C494 1.378 . S
C496 C497 1.367 . S
C497 C496 1.367 . S
C497 C499 1.433 . S
C498 C494 1.350 . S
C498 C495 1.463 1_554 S
C498 N502 1.427 . S
C499 H489 0.929 . S
C499 C497 1.433 . S
C499 N502 1.384 . S
C500 H491 0.929 1_655 S
C500 C492 1.378 . S
C500 C495 1.350 1_655 S
C501 H488 0.929 . S
C501 C493 1.433 . S
C501 N503 1.384 . S
N502 C498 1.427 . S
N502 C499 1.384 . S
N503 C495 1.427 1_655 S
N503 C501 1.384 . S
H504 C510 0.930 . S
H505 C514 0.930 . S
H506 C519 0.929 . S
H507 C517 0.929 . S
H508 C512 0.929 . S
H509 C518 0.929 . S
C510 H504 0.930 . S
C510 C511 1.367 . S
C510 C518 1.378 . S
C511 C510 1.367 . S
C511 C519 1.433 . S
C512 H508 0.929 . S
C512 C514 1.378 . S
C512 C516 1.360 . S
C513 C516 1.443 1_545 S
C513 C518 1.350 . S
C513 N521 1.427 . S
C514 H505 0.930 . S
C514 C512 1.378 . S
C514 C515 1.367 . S
C515 C514 1.367 . S
C515 C517 1.433 . S
C516 C512 1.360 . S
C516 C513 1.443 1_565 S
C516 N520 1.443 1_565 S
C517 H507 0.929 . S
C517 C515 1.433 . S
C517 N520 1.373 1_565 S
C518 H509 0.929 . S
C518 C510 1.378 . S
C518 C513 1.350 . S
C519 H506 0.929 . S
C519 C511 1.433 . S
C519 N521 1.384 . S
N520 C516 1.443 1_545 S
N520 C517 1.373 1_545 S
N521 C513 1.427 . S
N521 C519 1.384 . S
H522 C528 0.930 . S
H523 C532 0.930 . S
H524 C537 0.929 . S
H525 C535 0.929 . S
H526 C530 0.929 1_556 S
H527 C536 0.929 1_554 S
C528 H522 0.930 . S
C528 C529 1.367 . S
C528 C536 1.378 . S
C529 C528 1.367 . S
C529 C537 1.433 . S
C530 H526 0.929 1_554 S
C530 C532 1.378 . S
C530 C534 1.350 . S
C531 C534 1.463 1_556 S
C531 C536 1.350 . S
C531 N539 1.427 . S
C532 H523 0.930 . S
C532 C530 1.378 . S
C532 C533 1.367 . S
C533 C532 1.367 . S
C533 C535 1.433 . S
C534 C530 1.350 . S
C534 C531 1.463 1_554 S
C534 N538 1.427 . S
C535 H525 0.929 . S
C535 C533 1.433 . S
C535 N538 1.384 . S
C536 H527 0.929 1_556 S
C536 C528 1.378 . S
C536 C531 1.350 . S
C537 H524 0.929 . S
C537 C529 1.433 . S
C537 N539 1.384 . S
N538 C534 1.427 . S
N538 C535 1.384 . S
N539 C531 1.427 . S
N539 C537 1.384 . S
H540 C546 0.930 . S
H541 C550 0.930 . S
H542 C555 0.929 . S
H543 C553 0.929 . S
H544 C548 0.894 1_455 S
H545 C554 0.929 . S
C546 H540 0.930 . S
C546 C547 1.367 . S
C546 C554 1.378 . S
C547 C546 1.367 . S
C547 C555 1.433 . S
C548 H544 0.894 1_655 S
C548 C550 1.401 . S
C548 C552 1.362 1_655 S
C549 C552 1.462 . S
C549 C554 1.350 . S
C549 N557 1.427 . S
C550 H541 0.930 . S
C550 C548 1.401 . S
C550 C551 1.367 . S
C551 C550 1.367 . S
C551 C553 1.433 . S
C552 C548 1.362 1_455 S
C552 C549 1.462 . S
C552 N556 1.428 1_455 S
C553 H543 0.929 . S
C553 C551 1.433 . S
C553 N556 1.384 . S
C554 H545 0.929 . S
C554 C546 1.378 . S
C554 C549 1.350 . S
C555 H542 0.929 . S
C555 C547 1.433 . S
C555 N557 1.384 . S
N556 C552 1.428 1_655 S
N556 C553 1.384 . S
N557 C549 1.427 . S
N557 C555 1.384 . S
H558 C564 0.930 . S
H559 C568 0.930 . S
H560 C573 0.929 . S
H561 C571 0.929 . S
H562 C566 0.929 1_556 S
H563 C572 0.929 1_554 S
C564 H558 0.930 . S
C564 C565 1.367 . S
C564 C572 1.378 . S
C565 C564 1.367 . S
C565 C573 1.433 . S
C566 H562 0.929 1_554 S
C566 C568 1.378 . S
C566 C570 1.350 1_565 S
C567 C570 1.463 1_556 S
C567 C572 1.350 . S
C567 N575 1.427 . S
C568 H559 0.930 . S
C568 C566 1.378 . S
C568 C569 1.367 . S
C569 C568 1.367 . S
C569 C571 1.433 . S
C570 C566 1.350 1_545 S
C570 C567 1.463 1_554 S
C570 N574 1.427 . S
C571 H561 0.929 . S
C571 C569 1.433 . S
C571 N574 1.384 1_565 S
C572 H563 0.929 1_556 S
C572 C564 1.378 . S
C572 C567 1.350 . S
C573 H560 0.929 . S
C573 C565 1.433 . S
C573 N575 1.384 . S
N574 C570 1.427 . S
N574 C571 1.384 1_545 S
N575 C567 1.427 . S
N575 C573 1.384 . S
H576 C582 0.930 . S
H577 C586 0.930 . S
H578 C591 0.929 . S
H579 C589 0.929 . S
H580 C584 0.929 . S
H581 C590 0.929 . S
C582 H576 0.930 . S
C582 C583 1.367 . S
C582 C590 1.378 . S
C583 C582 1.367 . S
C583 C591 1.433 . S
C584 H580 0.929 . S
C584 C586 1.378 . S
C584 C588 1.350 . S
C585 C588 1.463 . S
C585 C590 1.350 . S
C585 N593 1.427 . S
C586 H577 0.930 . S
C586 C584 1.378 . S
C586 C587 1.367 . S
C587 C586 1.367 . S
C587 C589 1.433 . S
C588 C584 1.350 . S
C588 C585 1.463 . S
C588 N592 1.427 . S
C589 H579 0.929 . S
C589 C587 1.433 . S
C589 N592 1.384 . S
C590 H581 0.929 . S
C590 C582 1.378 . S
C590 C585 1.350 . S
C591 H578 0.929 . S
C591 C583 1.433 . S
C591 N593 1.384 . S
N592 C588 1.427 . S
N592 C589 1.384 . S
N593 C585 1.427 . S
N593 C591 1.384 . S
H594 C600 0.930 . S
H595 C604 0.930 . S
H596 C609 0.929 . S
H597 C607 0.929 . S
H598 C602 0.929 . S
H599 C608 0.929 . S
C600 H594 0.930 . S
C600 C601 1.367 . S
C600 C608 1.378 . S
C601 C600 1.367 . S
C601 C609 1.433 . S
C602 H598 0.929 . S
C602 C604 1.378 . S
C602 C606 1.350 . S
C603 C606 1.463 1_554 S
C603 C608 1.350 1_655 S
C603 N611 1.427 1_655 S
C604 H595 0.930 . S
C604 C602 1.378 . S
C604 C605 1.367 . S
C605 C604 1.367 . S
C605 C607 1.433 . S
C606 C602 1.350 . S
C606 C603 1.463 1_556 S
C606 N610 1.427 . S
C607 H597 0.929 . S
C607 C605 1.433 . S
C607 N610 1.384 . S
C608 H599 0.929 . S
C608 C600 1.378 . S
C608 C603 1.350 1_455 S
C609 H596 0.929 . S
C609 C601 1.433 . S
C609 N611 1.384 . S
N610 C606 1.427 . S
N610 C607 1.384 . S
N611 C603 1.427 1_455 S
N611 C609 1.384 . S
H612 C618 0.930 . S
H613 C622 0.930 . S
H614 C627 0.929 . S
H615 C625 0.929 . S
H616 C620 0.929 . S
H617 C626 0.929 . S
C618 H612 0.930 . S
C618 C619 1.367 . S
C618 C626 1.378 1_545 S
C619 C618 1.367 . S
C619 C627 1.433 . S
C620 H616 0.929 . S
C620 C622 1.378 . S
C620 C624 1.350 . S
C621 C624 1.466 . S
C621 C626 1.349 . S
C621 N629 1.425 1_565 S
C622 H613 0.930 . S
C622 C620 1.378 . S
C622 C623 1.367 . S
C623 C622 1.367 . S
C623 C625 1.433 . S
C624 C620 1.350 . S
C624 C621 1.466 . S
C624 N628 1.427 . S
C625 H615 0.929 . S
C625 C623 1.433 . S
C625 N628 1.384 . S
C626 H617 0.929 . S
C626 C618 1.378 1_565 S
C626 C621 1.349 . S
C627 H614 0.929 . S
C627 C619 1.433 . S
C627 N629 1.384 . S
N628 C624 1.427 . S
N628 C625 1.384 . S
N629 C621 1.425 1_545 S
N629 C627 1.384 . S
C205 C24 1.979 . S
C209 C153 2.040 . S
C223 C190 2.037 . S
C227 C61 1.984 . S
C241 C21 2.038 . S
C245 C90 1.985 . S
C259 C58 2.038 . S
C263 C127 1.983 . S
C277 C156 1.986 . S
C281 C87 2.037 . S
C295 C193 1.975 . S
C299 C124 2.044 . S
C313 C28 0.591 . S
C317 C157 0.205 . S
C331 C57 0.583 . S
C335 C186 0.205 . S
C349 C25 0.205 . S
C353 C94 0.586 . S
C367 C54 0.208 . S
C371 C123 0.573 . S
C385 C91 0.222 . S
C389 C160 0.549 . S
C403 C189 0.547 . S
C407 C120 0.224 . S
C421 C27 2.019 . S
C425 C187 2.122 . S
C439 C59 2.522 . S
C443 C23 2.409 . S
C457 C93 2.022 . S
C461 C55 2.129 . S
C475 C125 2.527 . S
C479 C89 2.405 . S
C493 C121 2.128 . S
C497 C159 2.007 . S
C511 C191 2.525 . S
C515 C155 2.414 . S
C529 C122 2.016 . S
C533 C92 2.132 . S
C547 C154 2.524 . S
C551 C126 2.402 . S
C565 C188 2.018 . S
C569 C158 2.132 . S
C583 C192 2.407 . S
C587 C22 2.527 . S
C601 C26 2.121 . S
C605 C56 2.019 . S
C619 C60 2.402 . S
C623 C88 2.524 . S
