# Generated by pormake.
# Topology sxc, (6)-cn, num edge types: 1
# Building blocks:
#     Node 0, Type 0, BuildingBlock: INOVEN_clean_sbu_0, # of connection points: 6
#     Node 1, Type 0, BuildingBlock: INOVEN_clean_sbu_0, # of connection points: 6
#     Node 2, Type 0, BuildingBlock: INOVEN_clean_sbu_0, # of connection points: 6
#     Edge 3, Type (0, 0), BuildingBlock: FUNLAD_clean_linker_0, # of connection points: 2
#     Edge 4, Type (0, 0), BuildingBlock: FUNLAD_clean_linker_0, # of connection points: 2
#     Edge 5, Type (0, 0), BuildingBlock: FUNLAD_clean_linker_0, # of connection points: 2
#     Edge 6, Type (0, 0), BuildingBlock: FUNLAD_clean_linker_0, # of connection points: 2
#     Edge 7, Type (0, 0), BuildingBlock: FUNLAD_clean_linker_0, # of connection points: 2
#     Edge 8, Type (0, 0), BuildingBlock: FUNLAD_clean_linker_0, # of connection points: 2
#     Edge 9, Type (0, 0), BuildingBlock: FUNLAD_clean_linker_0, # of connection points: 2
#     Edge 10, Type (0, 0), BuildingBlock: FUNLAD_clean_linker_0, # of connection points: 2
#     Edge 11, Type (0, 0), BuildingBlock: FUNLAD_clean_linker_0, # of connection points: 2
# Relax obj value: 0.242
# Max RMSD: 0.153
# Mean RMSD: 0.085
data_MOF--net-sxc--node1-INOVEN_clean_sbu_0--edge1-FUNLAD_clean_linker_0
_symmetry_space_group_name_H-M    P1
_symmetry_Int_Tables_number       1
_symmetry_cell_setting            triclinic
loop_
_symmetry_equiv_pos_as_xyz
'x, y, z'
_cell_length_a     20.374735
_cell_length_b     18.611936
_cell_length_c     52.274213
_cell_angle_alpha  90.534662
_cell_angle_beta   96.450025
_cell_angle_gamma 98.318162
loop_
_atom_site_label
_atom_site_type_symbol
_atom_site_fract_x
_atom_site_fract_y
_atom_site_fract_z
_atom_type_partial_charge
Gd0 Gd 0.1967 0.1048 0.01081 0.0
Gd1 Gd 1.05458 0.08565 0.01347 0.0
C2 C 0.12349 0.25201 0.01264 0.0
C3 C 0.3163 0.12874 -0.00221 0.0
C4 C 0.37868 0.17967 -3e-05 0.0
C5 C 0.43844 0.1538 0.00857 0.0
C6 C 0.38031 0.25192 0.99235 0.0
C7 C 0.50113 0.27143 0.00173 0.0
C8 C 0.44124 0.29744 -0.00683 0.0
C9 C 0.49927 0.19946 0.0096 0.0
C10 C 0.16489 0.09378 0.06011 0.0
C11 C 0.12698 0.9401 0.0112 0.0
C12 C 0.93569 0.05036 0.02621 0.0
C13 C 0.90058 0.9815 0.03414 0.0
C14 C 0.83308 0.96097 0.02517 0.0
C15 C 0.93611 0.9321 0.04787 0.0
C16 C 0.83926 0.83914 0.04058 0.0
C17 C 0.90559 0.86138 0.05111 0.0
C18 C 0.80248 0.89019 0.02842 0.0
C19 C 1.08745 0.09995 0.96455 0.0
O20 O 0.17849 0.22476 0.00849 0.0
O21 O 1.06916 0.20791 0.01696 0.0
O22 O 0.30146 0.09512 0.01867 0.0
O23 O 0.26429 0.14712 0.98372 0.0
O24 O 0.213 0.06546 0.05168 0.0
O25 O 0.138 0.12921 0.04241 0.0
O26 O 1.07711 0.96845 0.01969 0.0
O27 O 0.17578 0.9839 0.00245 0.0
O28 O 0.94904 0.05094 0.00233 0.0
O29 O 0.98601 0.0807 0.04231 0.0
O30 O 1.041 0.13047 0.97346 0.0
O31 O 0.11328 0.06198 0.98176 0.0
H32 H 0.43809 0.09792 0.01429 0.0
H33 H 0.33479 0.27311 0.98566 0.0
H34 H 0.44151 0.35323 0.9874 0.0
H35 H 0.54487 0.1783 0.0162 0.0
H36 H 0.80506 0.99852 0.01454 0.0
H37 H 0.98841 0.94691 0.05496 0.0
H38 H 0.93517 0.823 0.06038 0.0
H39 H 0.75091 0.87444 0.02045 0.0
Gd40 Gd 1.056 0.08452 0.34406 0.0
Gd41 Gd 0.19579 0.10161 0.35008 0.0
C42 C 0.12903 0.24753 0.34794 0.0
C43 C 0.92744 0.05232 0.34106 0.0
C44 C 0.87444 0.04983 0.31947 0.0
C45 C 0.82396 0.98974 0.31687 0.0
C46 C 0.87948 0.09935 0.29938 0.0
C47 C 0.78673 1.02552 0.2737 0.0
C48 C 0.83536 0.08762 0.27671 0.0
C49 C 0.78061 0.97754 0.29417 0.0
C50 C 0.10636 0.10591 0.29763 0.0
C51 C 0.12165 0.93522 0.34931 0.0
C52 C 0.3194 0.10044 0.34398 0.0
C53 C 0.34713 0.05512 0.32609 0.0
C54 C 0.41613 0.05923 0.32574 0.0
C55 C 0.30336 1.01071 0.30785 0.0
C56 C 0.39694 0.97892 0.28774 0.0
C57 C 0.32795 0.97354 0.28861 0.0
C58 C 0.44099 1.02076 0.30674 0.0
C59 C 0.14863 0.1243 0.39613 0.0
O60 O 1.07827 0.20477 0.35607 0.0
O61 O 0.17772 0.21675 0.33971 0.0
O62 O 0.96738 1.00467 0.33885 0.0
O63 O 0.95927 0.11583 0.34927 0.0
O64 O 1.05806 0.13573 0.30482 0.0
O65 O 0.12579 0.06567 0.31529 0.0
O66 O 0.17893 0.97755 0.34788 0.0
O67 O 1.06689 0.96519 0.35008 0.0
O68 O 0.29092 0.066 0.36246 0.0
O69 O 0.28345 0.14639 0.33266 0.0
O70 O 0.20054 0.16196 0.38819 0.0
O71 O 0.12433 0.0749 0.3796 0.0
H72 H 0.81987 0.95049 0.33201 0.0
H73 H 0.91887 0.14549 0.30082 0.0
H74 H 0.8407 0.12551 0.26121 0.0
H75 H 0.74261 0.93002 0.29249 0.0
H76 H 0.45054 0.09339 0.33966 0.0
H77 H 0.25001 1.00657 0.30815 0.0
H78 H 0.29316 0.94135 0.27425 0.0
H79 H 0.49449 1.02595 0.30628 0.0
Gd80 Gd 0.11116 1.0232 0.68314 0.0
Gd81 Gd 0.11914 0.16761 0.67517 0.0
C82 C 0.96018 0.093 0.67772 0.0
C83 C 1.08643 0.89235 0.69948 0.0
C84 C 1.02568 0.84531 0.70469 0.0
C85 C 1.01688 0.77183 0.69719 0.0
C86 C 0.9731 0.87473 0.71406 0.0
C87 C 0.90104 0.75943 0.70555 0.0
C88 C 0.9112 0.83198 0.71454 0.0
C89 C 0.95493 0.72906 0.69761 0.0
C90 C 0.11834 0.05199 0.63254 0.0
C91 C 0.27 0.09751 0.68041 0.0
C92 C 0.144 0.29881 0.65922 0.0
C93 C 0.20472 0.34511 0.65356 0.0
C94 C 0.21471 0.41858 0.66113 0.0
C95 C 0.25632 0.31487 0.64377 0.0
C96 C 0.33 0.42915 0.65215 0.0
C97 C 0.31855 0.35671 0.64301 0.0
C98 C 0.27698 0.46044 0.66042 0.0
C99 C 0.10905 0.138 0.72544 0.0
O100 O 0.99361 1.03623 0.68377 0.0
O101 O 0.99997 0.15283 0.67153 0.0
O102 O 1.08936 0.90736 0.67529 0.0
O103 O 0.106 0.94907 0.71481 0.0
O104 O 0.15251 1.00853 0.64564 0.0
O105 O 1.08146 0.07919 0.64682 0.0
O106 O 0.23656 0.15425 0.67435 0.0
O107 O 0.23026 1.0378 0.68666 0.0
O108 O 0.14255 0.28316 0.68342 0.0
O109 O 0.12275 0.24267 0.64376 0.0
O110 O 1.07464 0.18051 0.71198 0.0
O111 O 0.14771 0.11185 0.71162 0.0
H112 H 1.057 0.74845 0.68986 0.0
H113 H 0.9788 0.93152 0.71986 0.0
H114 H 0.87033 0.85693 0.7205 0.0
H115 H 0.94844 0.67301 0.69085 0.0
H116 H 0.17536 0.44259 0.66877 0.0
H117 H 0.24965 0.25807 0.6379 0.0
H118 H 0.35872 0.3311 0.63677 0.0
H119 H 0.28448 0.51644 0.66729 0.0
C120 C 0.17592 0.38556 0.00833 0.0
C121 C 0.12125 0.33334 0.01303 0.0
C122 C 0.17165 0.46116 0.00886 0.0
C123 C 0.11238 0.48723 0.01414 0.0
C124 C 1.05829 0.43463 0.01885 0.0
C125 C 1.06249 0.35978 0.01828 0.0
C126 C 0.10337 0.56729 0.0153 0.0
C127 C 0.14811 0.62511 0.0096 0.0
C128 C 0.13876 0.70511 0.01041 0.0
C129 C 0.1889 0.75691 0.00205 0.0
C130 C 0.18441 0.83172 0.00231 0.0
C131 C 0.12947 0.85887 0.01102 0.0
H132 H 1.04324 0.69526 0.02599 0.0
C133 C 1.07885 0.80748 0.01948 0.0
C134 C 1.0833 0.73194 0.01918 0.0
H135 H 1.03568 0.82558 0.0264 0.0
H136 H 0.22218 0.3681 0.00424 0.0
H137 H 0.21515 0.49855 0.00524 0.0
H138 H 1.0118 0.45147 0.02302 0.0
H139 H 1.01896 0.32242 0.02205 0.0
H140 H 1.05611 0.57839 0.0209 0.0
H141 H 0.19487 0.61391 0.00355 0.0
H142 H 0.23244 0.73947 -0.00482 0.0
H143 H 0.22477 0.86851 -0.00437 0.0
C144 C 0.47257 0.90015 0.27101 0.0
C145 C 0.42304 0.94483 0.26616 0.0
C146 C 0.50319 0.87539 0.25076 0.0
C147 C 0.48589 0.89639 0.22543 0.0
C148 C 0.43374 0.93779 0.22037 0.0
C149 C 0.40205 0.9613 0.24062 0.0
C150 C 0.53102 0.88569 0.20591 0.0
C151 C 0.56632 0.9459 0.19756 0.0
C152 C 0.63439 0.97052 0.21084 0.0
C153 C 0.64998 1.04272 0.22027 0.0
C154 C 0.70308 0.06244 0.23953 0.0
C155 C 0.74132 1.01018 0.24958 0.0
H156 H 0.66887 0.86538 0.2112 0.0
C157 C 0.7306 0.9403 0.23811 0.0
C158 C 0.678 0.92076 0.2187 0.0
H159 H 0.76076 0.89964 0.24513 0.0
H160 H 0.48909 0.88644 0.29055 0.0
H161 H 0.5438 0.84413 0.25513 0.0
H162 H 0.4198 0.95478 0.201 0.0
H163 H 0.36386 0.99581 0.23649 0.0
H164 H 0.55613 0.83839 0.2092 0.0
H165 H 0.53845 0.98978 0.19166 0.0
H166 H 0.61757 0.08238 0.21444 0.0
H167 H 0.7108 0.11686 0.24794 0.0
C168 C 0.80963 0.68127 0.67831 0.0
C169 C 0.83295 0.71837 0.70181 0.0
C170 C 0.74351 0.64819 0.67348 0.0
C171 C 0.69945 0.65091 0.69223 0.0
C172 C 0.72305 0.68742 0.71583 0.0
C173 C 0.78923 0.72083 0.72061 0.0
C174 C 0.62804 0.61943 0.6875 0.0
C175 C 0.60407 0.56616 0.66987 0.0
C176 C 0.53259 0.53484 0.66525 0.0
C177 C 0.5083 0.49913 0.64157 0.0
C178 C 0.44183 0.46648 0.63687 0.0
C179 C 0.39858 0.46897 0.65583 0.0
H180 H 0.50613 0.56148 0.7031 0.0
C181 C 0.42271 0.50496 0.67946 0.0
C182 C 0.48907 0.53719 0.68422 0.0
H183 H 0.3909 0.50582 0.69471 0.0
H184 H 0.84182 0.68027 0.66321 0.0
H185 H 0.72702 0.62307 0.65468 0.0
H186 H 0.69003 0.69061 0.73054 0.0
H187 H 0.80606 0.74919 0.73889 0.0
H188 H 0.5945 0.64134 0.69919 0.0
H189 H 0.6375 0.54431 0.65811 0.0
H190 H 0.54093 0.49614 0.62671 0.0
H191 H 0.42438 0.43882 0.61851 0.0
C192 C 0.8406 0.14952 0.67231 0.0
C193 C 0.87835 0.0901 0.67821 0.0
C194 C 0.76758 0.14642 0.673 0.0
C195 C 0.72347 0.08325 0.67972 0.0
C196 C 0.76166 1.02446 0.68556 0.0
C197 C 0.83403 1.02752 0.68489 0.0
C198 C 0.64131 0.07254 0.68125 0.0
C199 C 0.5889 0.11787 0.67688 0.0
C200 C 0.50673 0.10717 0.67841 0.0
C201 C 0.46856 0.16596 0.67255 0.0
C202 C 0.39618 0.16293 0.67322 0.0
C203 C 0.35184 0.10038 0.67991 0.0
H204 H 0.48435 0.99554 0.69003 0.0
C205 C 0.38959 1.04097 0.68584 0.0
C206 C 0.46261 0.04403 0.68515 0.0
H207 H 0.36224 0.99014 0.69118 0.0
H208 H 0.86795 0.20037 0.66699 0.0
H209 H 0.74584 0.19493 0.66815 0.0
H210 H 0.73472 0.97343 0.69095 0.0
H211 H 0.85551 0.97886 0.68982 0.0
H212 H 0.62247 1.0182 0.68693 0.0
H213 H 0.60774 0.17221 0.67121 0.0
H214 H 0.4955 0.21698 0.66714 0.0
H215 H 0.37472 0.21159 0.66828 0.0
C216 C 0.77892 0.72981 0.01611 0.0
C217 C 0.81144 0.76138 0.03946 0.0
C218 C 0.75574 0.65579 0.01417 0.0
C219 C 0.76507 0.61151 0.03553 0.0
C220 C 0.79664 0.64313 0.05902 0.0
C221 C 0.82031 0.7175 0.06093 0.0
C222 C 0.7361 0.53396 0.03426 0.0
C223 C 0.72688 0.49439 0.01215 0.0
C224 C 0.67745 0.428 0.00845 0.0
C225 C 0.63628 0.4176 0.98497 0.0
C226 C 0.58008 0.36458 0.98241 0.0
C227 C 0.56507 0.32038 0.00317 0.0
H228 H 0.69732 0.38593 0.0467 0.0
C229 C 0.60939 0.32662 0.02594 0.0
C230 C 0.66526 0.38023 0.0286 0.0
H231 H 0.59897 0.29266 0.04215 0.0
H232 H 0.77212 0.76221 -0.00083 0.0
H233 H 0.72912 0.63401 -0.00397 0.0
H234 H 0.80304 0.61024 0.07586 0.0
H235 H 0.84507 0.74079 0.07919 0.0
H236 H 0.71621 0.51161 0.0514 0.0
H237 H 0.74722 0.51713 -0.00486 0.0
H238 H 0.64513 0.45355 0.96913 0.0
H239 H 0.54715 0.35967 0.9645 0.0
C240 C 1.08031 0.36508 0.35572 0.0
C241 C 0.13211 0.32982 0.34794 0.0
C242 C 1.08407 0.44195 0.35552 0.0
C243 C 0.14001 0.48672 0.34752 0.0
C244 C 0.19153 0.45101 0.33985 0.0
C245 C 0.18768 0.37461 0.33999 0.0
C246 C 0.14841 0.56985 0.34703 0.0
C247 C 1.10163 0.61294 0.35142 0.0
C248 C 0.10992 0.69604 0.35059 0.0
C249 C 1.0538 0.73123 0.35288 0.0
C250 C 1.05775 0.80764 0.35247 0.0
C251 C 0.11827 0.85295 0.34988 0.0
H252 H 0.21587 0.7182 0.34636 0.0
C253 C 0.17479 0.81821 0.34765 0.0
C254 C 0.1708 0.74137 0.34798 0.0
H255 H 0.2225 0.85047 0.34558 0.0
H256 H 1.03655 0.3332 0.36203 0.0
H257 H 1.04307 0.46567 0.36184 0.0
H258 H 0.23558 0.48253 0.3336 0.0
H259 H 0.22887 0.35065 0.33384 0.0
H260 H 0.19626 0.59646 0.34226 0.0
H261 H 1.05315 0.58626 0.35551 0.0
H262 H 1.00596 0.69926 0.35498 0.0
H263 H 1.01284 0.83122 0.35424 0.0
C264 C 1.09753 0.15127 0.25222 0.0
C265 C 0.11966 0.10138 0.27011 0.0
C266 C 0.10765 0.14615 0.22609 0.0
C267 C 0.13995 0.09039 0.217 0.0
C268 C 0.16248 1.04101 0.23508 0.0
C269 C 0.15215 0.04611 0.26114 0.0
C270 C 0.15248 0.082 0.18926 0.0
C271 C 0.1228 0.1154 0.16902 0.0
C272 C 0.13459 0.10704 0.14115 0.0
C273 C 1.0964 0.14175 0.12218 0.0
C274 C 0.10572 0.13709 0.096 0.0
C275 C 0.15366 0.09748 0.08787 0.0
H276 H 0.21382 1.03961 0.14642 0.0
C277 C 0.19174 0.0623 0.10665 0.0
C278 C 0.18257 0.06703 0.13289 0.0
H279 H 0.22921 1.03134 0.1011 0.0
H280 H 1.07232 0.19463 0.25844 0.0
H281 H 1.09057 0.18662 0.21332 0.0
H282 H 0.18761 0.99744 0.22896 0.0
H283 H 0.16824 1.00557 0.27411 0.0
H284 H 0.18674 0.0447 0.1856 0.0
H285 H 1.08649 0.15027 0.17271 0.0
H286 H 1.0591 0.17313 0.12763 0.0
H287 H 1.07558 0.16505 0.08213 0.0
C288 C 1.10095 0.06314 0.43453 0.0
C289 C 0.13593 0.12416 0.42375 0.0
C290 C 1.09373 0.06205 0.46103 0.0
C291 C 0.12056 0.12246 0.47739 0.0
C292 C 0.15342 0.18418 0.46632 0.0
C293 C 0.16168 0.18474 0.44 0.0
C294 C 0.11477 0.12364 0.50585 0.0
C295 C 0.11326 0.0639 0.52047 0.0
C296 C 0.11407 0.0645 0.54929 0.0
C297 C 0.14261 1.01018 0.56314 0.0
C298 C 0.14406 1.00711 0.58997 0.0
C299 C 0.11549 0.05722 0.6039 0.0
H300 H 1.06208 0.15725 0.55318 0.0
C301 C 1.0859 0.11131 0.59015 0.0
C302 C 1.08564 0.11532 0.56315 0.0
H303 H 1.06335 0.1507 0.60025 0.0
H304 H 1.0803 1.0156 0.42257 0.0
H305 H 1.06666 1.01406 0.4686 0.0
H306 H 0.17416 0.23182 0.47822 0.0
H307 H 0.1886 0.23276 0.43235 0.0
H308 H 0.11734 0.17632 0.51532 0.0
H309 H 0.11691 1.01233 0.51123 0.0
H310 H 0.16461 0.97 0.55316 0.0
H311 H 0.16723 0.96462 0.5998 0.0
C312 C 0.15141 0.09441 0.76972 0.0
C313 C 0.1055 0.12853 0.75368 0.0
C314 C 0.14662 0.08914 0.79648 0.0
C315 C 1.09532 0.11741 0.80767 0.0
C316 C 1.04931 0.15017 0.79132 0.0
C317 C 1.05442 0.1559 0.76494 0.0
C318 C 1.08586 0.11444 0.83588 0.0
C319 C 0.1296 0.09589 0.85535 0.0
C320 C 0.11787 0.09763 0.88339 0.0
C321 C 0.15428 0.05796 0.90132 0.0
C322 C 0.14493 0.0587 0.92762 0.0
C323 C 1.09912 0.09958 0.9368 0.0
H324 H 1.04542 0.1734 0.88025 0.0
C325 C 1.06364 0.14031 0.91906 0.0
C326 C 1.07296 0.13964 0.89284 0.0
H327 H 1.02857 0.1731 0.92546 0.0
H328 H 0.19125 0.07248 0.76166 0.0
H329 H 0.18281 0.0626 0.80813 0.0
H330 H 1.00901 0.17228 0.79902 0.0
H331 H 1.0178 0.1821 0.7533 0.0
H332 H 1.03926 0.12963 0.84071 0.0
H333 H 0.17553 0.07823 0.85085 0.0
H334 H 0.18984 1.02575 0.89493 0.0
H335 H 0.17345 1.02699 0.94077 0.0
loop_
_geom_bond_atom_site_label_1
_geom_bond_atom_site_label_2
_geom_bond_distance
_geom_bond_site_symmetry_2
_ccdc_geom_bond_type
Gd0 C3 2.818 . S
Gd0 O20 2.377 . S
Gd0 O22 2.448 . S
Gd0 O23 2.506 1_554 S
Gd0 O24 2.435 . S
Gd0 O25 2.717 1_545 S
Gd0 O27 2.395 1_545 S
Gd0 O31 2.327 1_554 S
Gd1 C12 2.818 . S
Gd1 O21 2.395 1_565 S
Gd1 O25 2.327 1_655 S
Gd1 O26 2.377 1_554 S
Gd1 O28 2.448 1_554 S
Gd1 O29 2.506 . S
Gd1 O30 2.435 1_554 S
Gd1 O31 2.717 1_664 S
C2 O20 1.240 . S
C2 O21 1.240 1_455 S
C3 Gd0 2.818 . S
C3 C4 1.510 . S
C3 O22 1.249 . S
C3 O23 1.252 1_554 S
C4 C3 1.510 . S
C4 C5 1.404 . S
C4 C6 1.352 1_554 S
C5 C4 1.404 . S
C5 C9 1.389 . S
C5 H32 0.930 . S
C6 C4 1.352 1_556 S
C6 C8 1.374 . S
C6 H33 0.931 . S
C7 C8 1.359 1_554 S
C7 C9 1.364 . S
C8 C6 1.374 . S
C8 C7 1.359 1_556 S
C8 H34 0.931 . S
C9 C5 1.389 . S
C9 C7 1.364 . S
C9 H35 0.931 . S
C10 O24 1.256 . S
C10 O25 1.257 1_545 S
C11 O26 1.242 1_454 S
C11 O27 1.240 . S
C12 Gd1 2.818 . S
C12 C13 1.510 . S
C12 O28 1.249 1_554 S
C12 O29 1.252 . S
C13 C12 1.510 . S
C13 C14 1.404 1_554 S
C13 C15 1.352 . S
C14 C13 1.404 1_556 S
C14 C18 1.389 . S
C14 H36 0.930 . S
C15 C13 1.352 . S
C15 C17 1.374 . S
C15 H37 0.931 . S
C16 C17 1.359 . S
C16 C18 1.364 1_554 S
C17 C15 1.374 . S
C17 C16 1.359 . S
C17 H38 0.931 . S
C18 C14 1.389 . S
C18 C16 1.364 1_556 S
C18 H39 0.931 . S
C19 O30 1.256 1_445 S
C19 O31 1.257 . S
O20 Gd0 2.377 . S
O20 C2 1.240 . S
O21 Gd1 2.395 1_545 S
O21 C2 1.240 1_655 S
O22 Gd0 2.448 . S
O22 C3 1.249 . S
O23 Gd0 2.506 1_556 S
O23 C3 1.252 1_556 S
O24 Gd0 2.435 . S
O24 C10 1.256 . S
O25 Gd0 2.717 1_565 S
O25 Gd1 2.327 1_455 S
O25 C10 1.257 1_565 S
O26 Gd1 2.377 1_556 S
O26 C11 1.242 1_656 S
O27 Gd0 2.395 1_565 S
O27 C11 1.240 . S
O28 Gd1 2.448 1_556 S
O28 C12 1.249 1_556 S
O29 Gd1 2.506 . S
O29 C12 1.252 . S
O30 Gd1 2.435 1_556 S
O30 C19 1.256 1_665 S
O31 Gd0 2.327 1_556 S
O31 Gd1 2.717 1_446 S
O31 C19 1.257 . S
H32 C5 0.930 . S
H33 C6 0.931 . S
H34 C8 0.931 . S
H35 C9 0.931 . S
H36 C14 0.930 . S
H37 C15 0.931 . S
H38 C17 0.931 . S
H39 C18 0.931 . S
Gd40 C43 2.818 1_565 S
Gd40 O60 2.377 1_565 S
Gd40 O62 2.448 1_565 S
Gd40 O63 2.506 1_565 S
Gd40 O64 2.435 . S
Gd40 O65 2.717 1_665 S
Gd40 O67 2.395 . S
Gd40 O71 2.327 1_565 S
Gd41 C52 2.818 . S
Gd41 O61 2.395 . S
Gd41 O65 2.327 . S
Gd41 O66 2.377 1_545 S
Gd41 O68 2.448 . S
Gd41 O69 2.506 . S
Gd41 O70 2.435 . S
Gd41 O71 2.717 1_455 S
C42 O60 1.240 . S
C42 O61 1.240 1_655 S
C43 Gd40 2.818 1_545 S
C43 C44 1.510 . S
C43 O62 1.249 . S
C43 O63 1.252 . S
C44 C43 1.510 . S
C44 C45 1.404 . S
C44 C46 1.352 . S
C45 C44 1.404 . S
C45 C49 1.389 . S
C45 H72 0.930 . S
C46 C44 1.352 . S
C46 C48 1.374 . S
C46 H73 0.931 . S
C47 C48 1.359 . S
C47 C49 1.364 . S
C48 C46 1.374 . S
C48 C47 1.359 . S
C48 H74 0.931 . S
C49 C45 1.389 . S
C49 C47 1.364 . S
C49 H75 0.931 . S
C50 O64 1.256 1_545 S
C50 O65 1.257 1_655 S
C51 O66 1.240 . S
C51 O67 1.240 1_455 S
C52 Gd41 2.818 . S
C52 C53 1.510 1_545 S
C52 O68 1.249 . S
C52 O69 1.252 . S
C53 C52 1.510 1_565 S
C53 C54 1.404 1_565 S
C53 C55 1.352 . S
C54 C53 1.404 1_545 S
C54 C58 1.389 1_545 S
C54 H76 0.930 . S
C55 C53 1.352 . S
C55 C57 1.374 . S
C55 H77 0.931 . S
C56 C57 1.359 . S
C56 C58 1.364 . S
C57 C55 1.374 . S
C57 C56 1.359 . S
C57 H78 0.931 . S
C58 C54 1.389 1_565 S
C58 C56 1.364 . S
C58 H79 0.931 . S
C59 O70 1.256 . S
C59 O71 1.257 1_455 S
O60 Gd40 2.377 1_545 S
O60 C42 1.240 . S
O61 Gd41 2.395 . S
O61 C42 1.240 1_455 S
O62 Gd40 2.448 1_545 S
O62 C43 1.249 . S
O63 Gd40 2.506 1_545 S
O63 C43 1.252 . S
O64 Gd40 2.435 . S
O64 C50 1.256 1_565 S
O65 Gd40 2.717 1_445 S
O65 Gd41 2.327 . S
O65 C50 1.257 1_455 S
O66 Gd41 2.377 1_565 S
O66 C51 1.240 . S
O67 Gd40 2.395 . S
O67 C51 1.240 1_655 S
O68 Gd41 2.448 . S
O68 C52 1.249 . S
O69 Gd41 2.506 . S
O69 C52 1.252 . S
O70 Gd41 2.435 . S
O70 C59 1.256 . S
O71 Gd40 2.327 1_545 S
O71 Gd41 2.717 1_655 S
O71 C59 1.257 1_655 S
H72 C45 0.930 . S
H73 C46 0.931 . S
H74 C48 0.931 . S
H75 C49 0.931 . S
H76 C54 0.930 . S
H77 C55 0.931 . S
H78 C57 0.931 . S
H79 C58 0.931 . S
Gd80 C83 2.818 . S
Gd80 O100 2.377 1_565 S
Gd80 O102 2.448 . S
Gd80 O103 2.506 . S
Gd80 O104 2.435 . S
Gd80 O105 2.717 1_665 S
Gd80 O107 2.395 1_655 S
Gd80 O111 2.327 1_565 S
Gd81 C92 2.818 . S
Gd81 O101 2.395 1_455 S
Gd81 O105 2.327 . S
Gd81 O106 2.377 . S
Gd81 O108 2.448 . S
Gd81 O109 2.506 . S
Gd81 O110 2.435 . S
Gd81 O111 2.717 1_455 S
C82 O100 1.240 . S
C82 O101 1.240 . S
C83 Gd80 2.818 . S
C83 C84 1.510 . S
C83 O102 1.249 . S
C83 O103 1.252 . S
C84 C83 1.510 . S
C84 C85 1.404 . S
C84 C86 1.352 . S
C85 C84 1.404 . S
C85 C89 1.389 . S
C85 H112 0.930 . S
C86 C84 1.352 . S
C86 C88 1.374 . S
C86 H113 0.931 . S
C87 C88 1.359 . S
C87 C89 1.364 . S
C88 C86 1.374 . S
C88 C87 1.359 . S
C88 H114 0.931 . S
C89 C85 1.389 . S
C89 C87 1.364 . S
C89 H115 0.931 . S
C90 O104 1.256 1_445 S
C90 O105 1.257 . S
C91 O106 1.240 . S
C91 O107 1.240 1_545 S
C92 Gd81 2.818 . S
C92 C93 1.510 . S
C92 O108 1.249 . S
C92 O109 1.252 . S
C93 C92 1.510 . S
C93 C94 1.404 . S
C93 C95 1.352 . S
C94 C93 1.404 . S
C94 C98 1.389 . S
C94 H116 0.930 . S
C95 C93 1.352 . S
C95 C97 1.374 . S
C95 H117 0.931 . S
C96 C97 1.359 . S
C96 C98 1.364 . S
C97 C95 1.374 . S
C97 C96 1.359 . S
C97 H118 0.931 . S
C98 C94 1.389 . S
C98 C96 1.364 . S
C98 H119 0.931 . S
C99 O110 1.256 . S
C99 O111 1.257 1_455 S
O100 Gd80 2.377 1_545 S
O100 C82 1.240 . S
O101 Gd81 2.395 1_655 S
O101 C82 1.240 . S
O102 Gd80 2.448 . S
O102 C83 1.249 . S
O103 Gd80 2.506 . S
O103 C83 1.252 . S
O104 Gd80 2.435 . S
O104 C90 1.256 1_665 S
O105 Gd80 2.717 1_445 S
O105 Gd81 2.327 . S
O105 C90 1.257 . S
O106 Gd81 2.377 . S
O106 C91 1.240 . S
O107 Gd80 2.395 1_455 S
O107 C91 1.240 1_565 S
O108 Gd81 2.448 . S
O108 C92 1.249 . S
O109 Gd81 2.506 . S
O109 C92 1.252 . S
O110 Gd81 2.435 . S
O110 C99 1.256 . S
O111 Gd80 2.327 1_545 S
O111 Gd81 2.717 1_655 S
O111 C99 1.257 1_655 S
H112 C85 0.930 . S
H113 C86 0.931 . S
H114 C88 0.931 . S
H115 C89 0.931 . S
H116 C94 0.930 . S
H117 C95 0.931 . S
H118 C97 0.931 . S
H119 C98 0.931 . S
C120 C121 1.386 . S
C120 C122 1.383 . S
C120 H136 0.951 . S
C121 C120 1.386 . S
C121 C125 1.383 1_454 S
C122 C120 1.383 . S
C122 C123 1.402 . S
C122 H137 0.951 . S
C123 C122 1.402 . S
C123 C124 1.375 1_454 S
C123 C126 1.481 1_554 S
C124 C123 1.375 1_656 S
C124 C125 1.367 . S
C124 H138 0.951 . S
C125 C121 1.383 1_656 S
C125 C124 1.367 . S
C125 H139 0.950 . S
C126 C123 1.481 1_556 S
C126 C127 1.297 1_556 S
C126 H140 0.950 1_455 S
C127 C126 1.297 1_554 S
C127 C128 1.479 . S
C127 H141 0.950 . S
C128 C127 1.479 . S
C128 C129 1.375 . S
C128 C134 1.404 1_454 S
C129 C128 1.375 . S
C129 C130 1.369 . S
C129 H142 0.950 . S
C130 C129 1.369 . S
C130 C131 1.392 . S
C130 H143 0.951 . S
C131 C130 1.392 . S
C131 C133 1.384 1_454 S
H132 C134 0.949 . S
C133 C131 1.384 1_656 S
C133 C134 1.385 . S
C133 H135 0.950 . S
C134 C128 1.404 1_656 S
C134 H132 0.949 . S
C134 C133 1.385 . S
H135 C133 0.950 . S
H136 C120 0.951 . S
H137 C122 0.951 . S
H138 C124 0.951 . S
H139 C125 0.950 . S
H140 C126 0.950 1_655 S
H141 C127 0.950 . S
H142 C129 0.950 . S
H143 C130 0.951 . S
C144 C145 1.386 . S
C144 C146 1.383 . S
C144 H160 0.951 . S
C145 C144 1.386 . S
C145 C149 1.383 . S
C146 C144 1.383 . S
C146 C147 1.402 . S
C146 H161 0.951 . S
C147 C146 1.402 . S
C147 C148 1.375 . S
C147 C150 1.481 . S
C148 C147 1.375 . S
C148 C149 1.367 . S
C148 H162 0.951 . S
C149 C145 1.383 . S
C149 C148 1.367 . S
C149 H163 0.950 . S
C150 C147 1.481 . S
C150 C151 1.297 1_565 S
C150 H164 0.950 . S
C151 C150 1.297 1_545 S
C151 C152 1.479 . S
C151 H165 0.950 . S
C152 C151 1.479 . S
C152 C153 1.375 . S
C152 C158 1.404 . S
C153 C152 1.375 . S
C153 C154 1.369 . S
C153 H166 0.950 . S
C154 C153 1.369 . S
C154 C155 1.392 . S
C154 H167 0.951 . S
C155 C154 1.392 . S
C155 C157 1.384 . S
H156 C158 0.949 . S
C157 C155 1.384 . S
C157 C158 1.385 . S
C157 H159 0.950 . S
C158 C152 1.404 . S
C158 H156 0.949 . S
C158 C157 1.385 . S
H159 C157 0.950 . S
H160 C144 0.951 . S
H161 C146 0.951 . S
H162 C148 0.951 . S
H163 C149 0.950 . S
H164 C150 0.950 . S
H165 C151 0.950 . S
H166 C153 0.950 . S
H167 C154 0.951 . S
C168 C169 1.386 . S
C168 C170 1.383 . S
C168 H184 0.951 . S
C169 C168 1.386 . S
C169 C173 1.383 . S
C170 C168 1.383 . S
C170 C171 1.402 . S
C170 H185 0.951 . S
C171 C170 1.402 . S
C171 C172 1.375 . S
C171 C174 1.481 . S
C172 C171 1.375 . S
C172 C173 1.367 . S
C172 H186 0.951 . S
C173 C169 1.383 . S
C173 C172 1.367 . S
C173 H187 0.950 . S
C174 C171 1.481 . S
C174 C175 1.297 . S
C174 H188 0.950 . S
C175 C174 1.297 . S
C175 C176 1.479 . S
C175 H189 0.950 . S
C176 C175 1.479 . S
C176 C177 1.375 . S
C176 C182 1.404 . S
C177 C176 1.375 . S
C177 C178 1.369 . S
C177 H190 0.950 . S
C178 C177 1.369 . S
C178 C179 1.392 . S
C178 H191 0.951 . S
C179 C178 1.392 . S
C179 C181 1.384 . S
H180 C182 0.949 . S
C181 C179 1.384 . S
C181 C182 1.385 . S
C181 H183 0.950 . S
C182 C176 1.404 . S
C182 H180 0.949 . S
C182 C181 1.385 . S
H183 C181 0.950 . S
H184 C168 0.951 . S
H185 C170 0.951 . S
H186 C172 0.951 . S
H187 C173 0.950 . S
H188 C174 0.950 . S
H189 C175 0.950 . S
H190 C177 0.950 . S
H191 C178 0.951 . S
C192 C193 1.386 . S
C192 C194 1.383 . S
C192 H208 0.951 . S
C193 C192 1.386 . S
C193 C197 1.383 . S
C194 C192 1.383 . S
C194 C195 1.402 . S
C194 H209 0.951 . S
C195 C194 1.402 . S
C195 C196 1.375 . S
C195 C198 1.481 . S
C196 C195 1.375 . S
C196 C197 1.367 . S
C196 H210 0.951 1_545 S
C197 C193 1.383 . S
C197 C196 1.367 . S
C197 H211 0.950 . S
C198 C195 1.481 . S
C198 C199 1.297 . S
C198 H212 0.950 . S
C199 C198 1.297 . S
C199 C200 1.479 . S
C199 H213 0.950 . S
C200 C199 1.479 . S
C200 C201 1.375 . S
C200 C206 1.404 . S
C201 C200 1.375 . S
C201 C202 1.369 . S
C201 H214 0.950 . S
C202 C201 1.369 . S
C202 C203 1.392 . S
C202 H215 0.951 . S
C203 C202 1.392 . S
C203 C205 1.384 . S
H204 C206 0.949 . S
C205 C203 1.384 . S
C205 C206 1.385 . S
C205 H207 0.950 . S
C206 C200 1.404 . S
C206 H204 0.949 . S
C206 C205 1.385 . S
H207 C205 0.950 . S
H208 C192 0.951 . S
H209 C194 0.951 . S
H210 C196 0.951 1_565 S
H211 C197 0.950 . S
H212 C198 0.950 . S
H213 C199 0.950 . S
H214 C201 0.950 . S
H215 C202 0.951 . S
C216 C217 1.386 1_556 S
C216 C218 1.371 1_556 S
C216 H232 0.951 . S
C217 C216 1.386 1_554 S
C217 C221 1.383 . S
C218 C216 1.371 1_554 S
C218 C219 1.436 . S
C218 H233 0.929 1_554 S
C219 C218 1.436 . S
C219 C220 1.375 . S
C219 C222 1.481 . S
C220 C219 1.375 . S
C220 C221 1.367 . S
C220 H234 0.951 . S
C221 C217 1.383 . S
C221 C220 1.367 . S
C221 H235 0.950 . S
C222 C219 1.481 . S
C222 C223 1.297 . S
C222 H236 0.950 . S
C223 C222 1.297 . S
C223 C224 1.479 . S
C223 H237 0.950 . S
C224 C223 1.479 . S
C224 C225 1.375 1_554 S
C224 C230 1.404 . S
C225 C224 1.375 1_556 S
C225 C226 1.369 . S
C225 H238 0.950 . S
C226 C225 1.369 . S
C226 C227 1.392 1_556 S
C226 H239 0.951 . S
C227 C226 1.392 1_554 S
C227 C229 1.384 . S
H228 C230 0.949 . S
C229 C227 1.384 . S
C229 C230 1.385 . S
C229 H231 0.950 . S
C230 C224 1.404 . S
C230 H228 0.949 . S
C230 C229 1.385 . S
H231 C229 0.950 . S
H232 C216 0.951 . S
H233 C218 0.929 1_556 S
H234 C220 0.951 . S
H235 C221 0.950 . S
H236 C222 0.950 . S
H237 C223 0.950 . S
H238 C225 0.950 . S
H239 C226 0.951 . S
C240 C241 1.386 . S
C240 C242 1.383 1_655 S
C240 H256 0.951 . S
C241 C240 1.386 . S
C241 C245 1.383 1_655 S
C242 C240 1.383 1_455 S
C242 C243 1.402 . S
C242 H257 0.951 . S
C243 C242 1.402 . S
C243 C244 1.375 . S
C243 C246 1.481 . S
C244 C243 1.375 . S
C244 C245 1.367 . S
C244 H258 0.951 . S
C245 C241 1.383 1_455 S
C245 C244 1.367 . S
C245 H259 0.950 . S
C246 C243 1.481 . S
C246 C247 1.297 . S
C246 H260 0.950 . S
C247 C246 1.297 . S
C247 C248 1.479 . S
C247 H261 0.950 . S
C248 C247 1.479 . S
C248 C249 1.375 . S
C248 C254 1.404 . S
C249 C248 1.375 . S
C249 C250 1.369 . S
C249 H262 0.950 . S
C250 C249 1.369 . S
C250 C251 1.392 . S
C250 H263 0.951 . S
C251 C250 1.392 . S
C251 C253 1.384 . S
H252 C254 0.949 . S
C253 C251 1.384 . S
C253 C254 1.385 . S
C253 H255 0.950 . S
C254 C248 1.404 . S
C254 H252 0.949 . S
C254 C253 1.385 . S
H255 C253 0.950 . S
H256 C240 0.951 . S
H257 C242 0.951 . S
H258 C244 0.951 . S
H259 C245 0.950 . S
H260 C246 0.950 . S
H261 C247 0.950 . S
H262 C249 0.950 . S
H263 C250 0.951 . S
C264 C265 1.386 1_655 S
C264 C266 1.383 . S
C264 H280 0.951 . S
C265 C264 1.386 1_455 S
C265 C269 1.383 1_545 S
C266 C264 1.383 . S
C266 C267 1.402 1_655 S
C266 H281 0.951 . S
C267 C266 1.402 1_455 S
C267 C268 1.375 1_545 S
C267 C270 1.481 . S
C268 C267 1.375 1_565 S
C268 C269 1.367 . S
C268 H282 0.951 . S
C269 C265 1.383 1_565 S
C269 C268 1.367 . S
C269 H283 0.950 . S
C270 C267 1.481 . S
C270 C271 1.297 . S
C270 H284 0.950 1_545 S
C271 C270 1.297 . S
C271 C272 1.479 . S
C271 H285 0.952 1_455 S
C272 C271 1.479 . S
C272 C273 1.375 1_455 S
C272 C278 1.404 . S
C273 C272 1.375 1_655 S
C273 C274 1.369 . S
C273 H286 0.950 . S
C274 C273 1.369 . S
C274 C275 1.392 1_655 S
C274 H287 0.951 . S
C275 C274 1.392 1_455 S
C275 C277 1.384 . S
H276 C278 0.949 . S
C277 C275 1.384 . S
C277 C278 1.385 . S
C277 H279 0.950 1_545 S
C278 C272 1.404 . S
C278 H276 0.949 . S
C278 C277 1.385 . S
H279 C277 0.950 1_565 S
H280 C264 0.951 . S
H281 C266 0.951 . S
H282 C268 0.951 . S
H283 C269 0.950 . S
H284 C270 0.950 1_565 S
H285 C271 0.952 1_655 S
H286 C273 0.950 . S
H287 C274 0.951 . S
C288 C289 1.383 1_565 S
C288 C290 1.382 1_565 S
C288 H304 0.955 . S
C289 C288 1.383 1_545 S
C289 C293 1.383 1_455 S
C290 C288 1.382 1_545 S
C290 C291 1.402 . S
C290 H305 0.951 1_545 S
C291 C290 1.402 . S
C291 C292 1.375 1_455 S
C291 C294 1.481 . S
C292 C291 1.375 1_655 S
C292 C293 1.367 . S
C292 H306 0.951 . S
C293 C289 1.383 1_655 S
C293 C292 1.367 . S
C293 H307 0.950 . S
C294 C291 1.481 . S
C294 C295 1.297 . S
C294 H308 0.950 1_455 S
C295 C294 1.297 . S
C295 C296 1.479 . S
C295 H309 0.950 . S
C296 C295 1.479 . S
C296 C297 1.375 . S
C296 C302 1.404 . S
C297 C296 1.375 . S
C297 C298 1.369 . S
C297 H310 0.950 1_545 S
C298 C297 1.369 . S
C298 C299 1.392 . S
C298 H311 0.951 1_545 S
C299 C298 1.392 . S
C299 C301 1.384 . S
H300 C302 0.949 . S
C301 C299 1.384 . S
C301 C302 1.385 . S
C301 H303 0.950 1_455 S
C302 C296 1.404 . S
C302 H300 0.949 . S
C302 C301 1.385 . S
H303 C301 0.950 1_655 S
H304 C288 0.955 . S
H305 C290 0.951 1_565 S
H306 C292 0.951 . S
H307 C293 0.950 . S
H308 C294 0.950 1_655 S
H309 C295 0.950 . S
H310 C297 0.950 1_565 S
H311 C298 0.951 1_565 S
C312 C313 1.386 . S
C312 C314 1.383 . S
C312 H328 0.951 . S
C313 C312 1.386 . S
C313 C317 1.383 1_455 S
C314 C312 1.383 . S
C314 C315 1.402 . S
C314 H329 0.951 . S
C315 C314 1.402 . S
C315 C316 1.375 1_455 S
C315 C318 1.481 . S
C316 C315 1.375 1_655 S
C316 C317 1.367 . S
C316 H330 0.951 . S
C317 C313 1.383 1_655 S
C317 C316 1.367 . S
C317 H331 0.950 . S
C318 C315 1.481 . S
C318 C319 1.297 . S
C318 H332 0.950 1_455 S
C319 C318 1.297 . S
C319 C320 1.479 . S
C319 H333 0.950 . S
C320 C319 1.479 . S
C320 C321 1.375 . S
C320 C326 1.404 . S
C321 C320 1.375 . S
C321 C322 1.369 . S
C321 H334 0.950 . S
C322 C321 1.369 . S
C322 C323 1.392 . S
C322 H335 0.951 1_545 S
C323 C322 1.392 . S
C323 C325 1.384 . S
H324 C326 0.949 1_655 S
C325 C323 1.384 . S
C325 C326 1.385 . S
C325 H327 0.950 1_455 S
C326 C320 1.404 . S
C326 H324 0.949 1_455 S
C326 C325 1.385 . S
H327 C325 0.950 1_655 S
H328 C312 0.951 . S
H329 C314 0.951 . S
H330 C316 0.951 . S
H331 C317 0.950 . S
H332 C318 0.950 1_655 S
H333 C319 0.950 . S
H334 C321 0.950 . S
H335 C322 0.951 1_565 S
C121 C2 2.983 . S
C131 C11 2.959 . S
C145 C56 0.895 . S
C155 C47 0.755 . S
C169 C87 0.636 . S
C179 C96 0.598 . S
C193 C82 4.837 . S
C203 C91 4.828 . S
C217 C16 0.584 . S
C227 C7 0.569 . S
C241 C42 3.025 . S
C251 C51 3.036 . S
C265 C50 1.496 1_455 S
C275 C10 1.438 . S
C289 C59 1.455 . S
C299 C90 1.475 . S
C313 C99 1.460 . S
C323 C19 1.490 . S
