# Generated by pormake.
# Topology zni, (4)-cn, num edge types: 1
# Building blocks:
#     Node 0, Type 0, BuildingBlock: QUQFOY_clean_sbu_1, # of connection points: 4
#     Node 1, Type 0, BuildingBlock: QUQFOY_clean_sbu_1, # of connection points: 4
#     Node 2, Type 0, BuildingBlock: QUQFOY_clean_sbu_1, # of connection points: 4
#     Node 3, Type 0, BuildingBlock: QUQFOY_clean_sbu_1, # of connection points: 4
#     Node 4, Type 0, BuildingBlock: QUQFOY_clean_sbu_1, # of connection points: 4
#     Node 5, Type 0, BuildingBlock: QUQFOY_clean_sbu_1, # of connection points: 4
#     Node 6, Type 0, BuildingBlock: QUQFOY_clean_sbu_1, # of connection points: 4
#     Node 7, Type 0, BuildingBlock: QUQFOY_clean_sbu_1, # of connection points: 4
#     Node 8, Type 0, BuildingBlock: QUQFOY_clean_sbu_1, # of connection points: 4
#     Node 9, Type 0, BuildingBlock: QUQFOY_clean_sbu_1, # of connection points: 4
#     Node 10, Type 0, BuildingBlock: QUQFOY_clean_sbu_1, # of connection points: 4
#     Node 11, Type 0, BuildingBlock: QUQFOY_clean_sbu_1, # of connection points: 4
#     Node 12, Type 0, BuildingBlock: QUQFOY_clean_sbu_1, # of connection points: 4
#     Node 13, Type 0, BuildingBlock: QUQFOY_clean_sbu_1, # of connection points: 4
#     Node 14, Type 0, BuildingBlock: QUQFOY_clean_sbu_1, # of connection points: 4
#     Node 15, Type 0, BuildingBlock: QUQFOY_clean_sbu_1, # of connection points: 4
#     Node 16, Type 0, BuildingBlock: QUQFOY_clean_sbu_1, # of connection points: 4
#     Node 17, Type 0, BuildingBlock: QUQFOY_clean_sbu_1, # of connection points: 4
#     Node 18, Type 0, BuildingBlock: QUQFOY_clean_sbu_1, # of connection points: 4
#     Node 19, Type 0, BuildingBlock: QUQFOY_clean_sbu_1, # of connection points: 4
#     Node 20, Type 0, BuildingBlock: QUQFOY_clean_sbu_1, # of connection points: 4
#     Node 21, Type 0, BuildingBlock: QUQFOY_clean_sbu_1, # of connection points: 4
#     Node 22, Type 0, BuildingBlock: QUQFOY_clean_sbu_1, # of connection points: 4
#     Node 23, Type 0, BuildingBlock: QUQFOY_clean_sbu_1, # of connection points: 4
#     Node 24, Type 0, BuildingBlock: QUQFOY_clean_sbu_1, # of connection points: 4
#     Node 25, Type 0, BuildingBlock: QUQFOY_clean_sbu_1, # of connection points: 4
#     Node 26, Type 0, BuildingBlock: QUQFOY_clean_sbu_1, # of connection points: 4
#     Node 27, Type 0, BuildingBlock: QUQFOY_clean_sbu_1, # of connection points: 4
#     Node 28, Type 0, BuildingBlock: QUQFOY_clean_sbu_1, # of connection points: 4
#     Node 29, Type 0, BuildingBlock: QUQFOY_clean_sbu_1, # of connection points: 4
#     Node 30, Type 0, BuildingBlock: QUQFOY_clean_sbu_1, # of connection points: 4
#     Node 31, Type 0, BuildingBlock: QUQFOY_clean_sbu_1, # of connection points: 4
#     Edge 32, Type (0, 0), BuildingBlock: TEMPAE_clean_linker_10, # of connection points: 2
#     Edge 33, Type (0, 0), BuildingBlock: TEMPAE_clean_linker_10, # of connection points: 2
#     Edge 34, Type (0, 0), BuildingBlock: TEMPAE_clean_linker_10, # of connection points: 2
#     Edge 35, Type (0, 0), BuildingBlock: TEMPAE_clean_linker_10, # of connection points: 2
#     Edge 36, Type (0, 0), BuildingBlock: TEMPAE_clean_linker_10, # of connection points: 2
#     Edge 37, Type (0, 0), BuildingBlock: TEMPAE_clean_linker_10, # of connection points: 2
#     Edge 38, Type (0, 0), BuildingBlock: TEMPAE_clean_linker_10, # of connection points: 2
#     Edge 39, Type (0, 0), BuildingBlock: TEMPAE_clean_linker_10, # of connection points: 2
#     Edge 40, Type (0, 0), BuildingBlock: TEMPAE_clean_linker_10, # of connection points: 2
#     Edge 41, Type (0, 0), BuildingBlock: TEMPAE_clean_linker_10, # of connection points: 2
#     Edge 42, Type (0, 0), BuildingBlock: TEMPAE_clean_linker_10, # of connection points: 2
#     Edge 43, Type (0, 0), BuildingBlock: TEMPAE_clean_linker_10, # of connection points: 2
#     Edge 44, Type (0, 0), BuildingBlock: TEMPAE_clean_linker_10, # of connection points: 2
#     Edge 45, Type (0, 0), BuildingBlock: TEMPAE_clean_linker_10, # of connection points: 2
#     Edge 46, Type (0, 0), BuildingBlock: TEMPAE_clean_linker_10, # of connection points: 2
#     Edge 47, Type (0, 0), BuildingBlock: TEMPAE_clean_linker_10, # of connection points: 2
#     Edge 48, Type (0, 0), BuildingBlock: TEMPAE_clean_linker_10, # of connection points: 2
#     Edge 49, Type (0, 0), BuildingBlock: TEMPAE_clean_linker_10, # of connection points: 2
#     Edge 50, Type (0, 0), BuildingBlock: TEMPAE_clean_linker_10, # of connection points: 2
#     Edge 51, Type (0, 0), BuildingBlock: TEMPAE_clean_linker_10, # of connection points: 2
#     Edge 52, Type (0, 0), BuildingBlock: TEMPAE_clean_linker_10, # of connection points: 2
#     Edge 53, Type (0, 0), BuildingBlock: TEMPAE_clean_linker_10, # of connection points: 2
#     Edge 54, Type (0, 0), BuildingBlock: TEMPAE_clean_linker_10, # of connection points: 2
#     Edge 55, Type (0, 0), BuildingBlock: TEMPAE_clean_linker_10, # of connection points: 2
#     Edge 56, Type (0, 0), BuildingBlock: TEMPAE_clean_linker_10, # of connection points: 2
#     Edge 57, Type (0, 0), BuildingBlock: TEMPAE_clean_linker_10, # of connection points: 2
#     Edge 58, Type (0, 0), BuildingBlock: TEMPAE_clean_linker_10, # of connection points: 2
#     Edge 59, Type (0, 0), BuildingBlock: TEMPAE_clean_linker_10, # of connection points: 2
#     Edge 60, Type (0, 0), BuildingBlock: TEMPAE_clean_linker_10, # of connection points: 2
#     Edge 61, Type (0, 0), BuildingBlock: TEMPAE_clean_linker_10, # of connection points: 2
#     Edge 62, Type (0, 0), BuildingBlock: TEMPAE_clean_linker_10, # of connection points: 2
#     Edge 63, Type (0, 0), BuildingBlock: TEMPAE_clean_linker_10, # of connection points: 2
#     Edge 64, Type (0, 0), BuildingBlock: TEMPAE_clean_linker_10, # of connection points: 2
#     Edge 65, Type (0, 0), BuildingBlock: TEMPAE_clean_linker_10, # of connection points: 2
#     Edge 66, Type (0, 0), BuildingBlock: TEMPAE_clean_linker_10, # of connection points: 2
#     Edge 67, Type (0, 0), BuildingBlock: TEMPAE_clean_linker_10, # of connection points: 2
#     Edge 68, Type (0, 0), BuildingBlock: TEMPAE_clean_linker_10, # of connection points: 2
#     Edge 69, Type (0, 0), BuildingBlock: TEMPAE_clean_linker_10, # of connection points: 2
#     Edge 70, Type (0, 0), BuildingBlock: TEMPAE_clean_linker_10, # of connection points: 2
#     Edge 71, Type (0, 0), BuildingBlock: TEMPAE_clean_linker_10, # of connection points: 2
#     Edge 72, Type (0, 0), BuildingBlock: TEMPAE_clean_linker_10, # of connection points: 2
#     Edge 73, Type (0, 0), BuildingBlock: TEMPAE_clean_linker_10, # of connection points: 2
#     Edge 74, Type (0, 0), BuildingBlock: TEMPAE_clean_linker_10, # of connection points: 2
#     Edge 75, Type (0, 0), BuildingBlock: TEMPAE_clean_linker_10, # of connection points: 2
#     Edge 76, Type (0, 0), BuildingBlock: TEMPAE_clean_linker_10, # of connection points: 2
#     Edge 77, Type (0, 0), BuildingBlock: TEMPAE_clean_linker_10, # of connection points: 2
#     Edge 78, Type (0, 0), BuildingBlock: TEMPAE_clean_linker_10, # of connection points: 2
#     Edge 79, Type (0, 0), BuildingBlock: TEMPAE_clean_linker_10, # of connection points: 2
#     Edge 80, Type (0, 0), BuildingBlock: TEMPAE_clean_linker_10, # of connection points: 2
#     Edge 81, Type (0, 0), BuildingBlock: TEMPAE_clean_linker_10, # of connection points: 2
#     Edge 82, Type (0, 0), BuildingBlock: TEMPAE_clean_linker_10, # of connection points: 2
#     Edge 83, Type (0, 0), BuildingBlock: TEMPAE_clean_linker_10, # of connection points: 2
#     Edge 84, Type (0, 0), BuildingBlock: TEMPAE_clean_linker_10, # of connection points: 2
#     Edge 85, Type (0, 0), BuildingBlock: TEMPAE_clean_linker_10, # of connection points: 2
#     Edge 86, Type (0, 0), BuildingBlock: TEMPAE_clean_linker_10, # of connection points: 2
#     Edge 87, Type (0, 0), BuildingBlock: TEMPAE_clean_linker_10, # of connection points: 2
#     Edge 88, Type (0, 0), BuildingBlock: TEMPAE_clean_linker_10, # of connection points: 2
#     Edge 89, Type (0, 0), BuildingBlock: TEMPAE_clean_linker_10, # of connection points: 2
#     Edge 90, Type (0, 0), BuildingBlock: TEMPAE_clean_linker_10, # of connection points: 2
#     Edge 91, Type (0, 0), BuildingBlock: TEMPAE_clean_linker_10, # of connection points: 2
#     Edge 92, Type (0, 0), BuildingBlock: TEMPAE_clean_linker_10, # of connection points: 2
#     Edge 93, Type (0, 0), BuildingBlock: TEMPAE_clean_linker_10, # of connection points: 2
#     Edge 94, Type (0, 0), BuildingBlock: TEMPAE_clean_linker_10, # of connection points: 2
#     Edge 95, Type (0, 0), BuildingBlock: TEMPAE_clean_linker_10, # of connection points: 2
# Relax obj value: 0.190
# Max RMSD: 0.171
# Mean RMSD: 0.171
data_MOF--net-zni--node1-QUQFOY_clean_sbu_1--edge1-TEMPAE_clean_linker_10
_symmetry_space_group_name_H-M    P1
_symmetry_Int_Tables_number       1
_symmetry_cell_setting            triclinic
loop_
_symmetry_equiv_pos_as_xyz
'x, y, z'
_cell_length_a     60.535224
_cell_length_b     60.534553
_cell_length_c     34.585374
_cell_angle_alpha  90.010726
_cell_angle_beta   90.014418
_cell_angle_gamma 89.996589
loop_
_atom_site_label
_atom_site_type_symbol
_atom_site_fract_x
_atom_site_fract_y
_atom_site_fract_z
_atom_type_partial_charge
O0 O 0.06634 0.11096 0.34356 0.0
Cd1 Cd 0.10026 0.10966 0.33773 0.0
Cd2 Cd 0.09803 0.11206 0.41454 0.0
O3 O 0.06634 0.10091 0.40463 0.0
O4 O 0.10561 0.09465 0.28756 0.0
O5 O 0.11566 0.08053 0.34407 0.0
C6 C 0.11399 0.07847 0.30695 0.0
C7 C 0.11389 0.10143 0.47344 0.0
C8 C 0.05593 0.10477 0.37353 0.0
C9 C 0.11407 0.15195 0.36886 0.0
O10 O 0.1053 0.14448 0.39962 0.0
O11 O 0.11659 0.13943 0.33972 0.0
O12 O 0.097 0.11423 0.4717 0.0
O13 O 0.12193 0.09408 0.44137 0.0
O14 O 0.14935 0.81758 0.6141 0.0
Cd15 Cd 0.14581 0.85051 0.60111 0.0
Cd16 Cd 0.13676 0.85353 0.68159 0.0
O17 O 0.14118 0.81977 0.6761 0.0
O18 O 0.15938 0.85276 0.54895 0.0
O19 O 0.17264 0.87021 0.60017 0.0
C20 C 0.17442 0.86516 0.56399 0.0
C21 C 0.14647 0.86742 0.74257 0.0
C22 C 0.1463 0.80837 0.64661 0.0
C23 C 0.10161 0.86846 0.62435 0.0
O24 O 0.10818 0.86698 0.65915 0.0
O25 O 0.11388 0.86237 0.59648 0.0
O26 O 0.13016 0.85414 0.73776 0.0
O27 O 0.15762 0.87323 0.71248 0.0
O28 O 0.42872 0.89297 0.85899 0.0
Cd29 Cd 0.39468 0.8959 0.85635 0.0
Cd30 Cd 0.39998 0.89311 0.93271 0.0
O31 O 0.43146 0.90371 0.91949 0.0
O32 O 0.38896 0.90915 0.80476 0.0
O33 O 0.38069 0.92595 0.85985 0.0
C34 C 0.38161 0.9264 0.8225 0.0
C35 C 0.38524 0.9041 0.9922 0.0
C36 C 0.4405 0.89908 0.88742 0.0
C37 C 0.38057 0.85422 0.88969 0.0
O38 O 0.39172 0.86083 0.91862 0.0
O39 O 0.37674 0.8672 0.86165 0.0
O40 O 0.4022 0.89139 0.98983 0.0
O41 O 0.37669 0.91135 0.96047 0.0
O42 O 0.35074 0.18453 0.11228 0.0
Cd43 Cd 0.35007 0.15087 0.10217 0.0
Cd44 Cd 0.35542 0.15117 0.18188 0.0
O45 O 0.34332 0.18273 0.17448 0.0
O46 O 0.33736 0.14862 0.04928 0.0
O47 O 0.32099 0.1347 0.10106 0.0
C48 C 0.32063 0.13864 0.06433 0.0
C49 C 0.34799 0.13562 0.2426 0.0
C50 C 0.34558 0.19397 0.1438 0.0
C51 C 0.39334 0.13613 0.13008 0.0
O52 O 0.38707 0.14411 0.1623 0.0
O53 O 0.37993 0.13463 0.10196 0.0
O54 O 0.36056 0.15254 0.23851 0.0
O55 O 0.33917 0.12723 0.21198 0.0
O56 O 0.06939 0.89717 0.13868 0.0
Cd57 Cd 0.10234 0.89778 0.15227 0.0
Cd58 Cd 0.10733 0.89256 0.07167 0.0
O59 O 0.07374 0.89929 0.07552 0.0
O60 O 0.10396 0.9133 0.20279 0.0
O61 O 0.11915 0.92634 0.14912 0.0
C62 C 0.11454 0.9289 0.18536 0.0
C63 C 0.1221 0.90195 0.01127 0.0
C64 C 0.06127 0.89904 0.10504 0.0
C65 C 0.12287 0.85593 0.12741 0.0
O66 O 0.11979 0.86294 0.09314 0.0
O67 O 0.11759 0.86765 0.15644 0.0
O68 O 0.10791 0.88638 0.01537 0.0
O69 O 0.12838 0.91254 0.0417 0.0
O70 O 0.34913 0.82196 0.38943 0.0
Cd71 Cd 0.34896 0.85614 0.39303 0.0
Cd72 Cd 0.35681 0.85149 0.31472 0.0
O73 O 0.34932 0.81905 0.32591 0.0
O74 O 0.33544 0.86141 0.44455 0.0
O75 O 0.3198 0.87211 0.38984 0.0
C76 C 0.31882 0.87017 0.42701 0.0
C77 C 0.34716 0.86526 0.25372 0.0
C78 C 0.34839 0.81015 0.35908 0.0
C79 C 0.39286 0.8709 0.365 0.0
O80 O 0.38734 0.86199 0.33319 0.0
O81 O 0.37913 0.87232 0.3927 0.0
O82 O 0.36141 0.84973 0.25802 0.0
O83 O 0.3377 0.87299 0.2843 0.0
O84 O 0.4311 0.09958 0.64227 0.0
Cd85 Cd 0.39714 0.10059 0.64885 0.0
Cd86 Cd 0.39995 0.10857 0.569 0.0
O87 O 0.43253 0.1009 0.57861 0.0
O88 O 0.39317 0.08735 0.70098 0.0
O89 O 0.37992 0.07209 0.64766 0.0
C90 C 0.38316 0.07108 0.68456 0.0
C91 C 0.38624 0.09971 0.50747 0.0
C92 C 0.44215 0.09918 0.61106 0.0
C93 C 0.38255 0.14489 0.62174 0.0
O94 O 0.38976 0.13896 0.58884 0.0
O95 O 0.38224 0.1314 0.64993 0.0
O96 O 0.40159 0.11407 0.51248 0.0
O97 O 0.37848 0.08986 0.53762 0.0
O98 O 0.14725 0.1795 0.86902 0.0
Cd99 Cd 0.15022 0.14559 0.87467 0.0
Cd100 Cd 0.14606 0.1491 0.79625 0.0
O101 O 0.15643 0.18085 0.80757 0.0
O102 O 0.16239 0.14198 0.92771 0.0
O103 O 0.18047 0.13176 0.87504 0.0
C104 C 0.18009 0.13414 0.91218 0.0
C105 C 0.15548 0.13524 0.73521 0.0
C106 C 0.1526 0.19061 0.83931 0.0
C107 C 0.10828 0.12999 0.84311 0.0
O108 O 0.11433 0.14031 0.8129 0.0
O109 O 0.12161 0.1273 0.87108 0.0
O110 O 0.14226 0.15166 0.73951 0.0
O111 O 0.16396 0.12655 0.76586 0.0
O112 O 0.92775 0.88475 0.6549 0.0
Cd113 Cd 0.89445 0.88812 0.66417 0.0
Cd114 Cd 0.89221 0.88067 0.58181 0.0
O115 O 0.92592 0.88516 0.59099 0.0
O116 O 0.89 0.90464 0.71331 0.0
O117 O 0.88147 0.91818 0.65551 0.0
C118 C 0.88271 0.92077 0.69256 0.0
C119 C 0.88106 0.88636 0.51744 0.0
C120 C 0.93716 0.88513 0.62208 0.0
C121 C 0.87111 0.84769 0.6393 0.0
O122 O 0.87594 0.8536 0.60508 0.0
O123 O 0.87656 0.85949 0.66807 0.0
O124 O 0.89281 0.86971 0.52769 0.0
O125 O 0.87587 0.90057 0.54371 0.0
O126 O 0.84952 0.18401 0.38441 0.0
Cd127 Cd 0.85063 0.15076 0.39646 0.0
Cd128 Cd 0.86 0.14868 0.31479 0.0
O129 O 0.85666 0.18252 0.32187 0.0
O130 O 0.83663 0.14904 0.44835 0.0
O131 O 0.82248 0.13299 0.39644 0.0
C132 C 0.82089 0.13781 0.43274 0.0
C133 C 0.85195 0.13508 0.2529 0.0
C134 C 0.85258 0.19361 0.35224 0.0
C135 C 0.89343 0.13022 0.37277 0.0
O136 O 0.88739 0.13352 0.33809 0.0
O137 O 0.88139 0.13618 0.40102 0.0
O138 O 0.86799 0.14849 0.25911 0.0
O139 O 0.83977 0.12947 0.28186 0.0
O140 O 0.56581 0.1028 0.13645 0.0
Cd141 Cd 0.59929 0.1034 0.14659 0.0
Cd142 Cd 0.60045 0.11184 0.06523 0.0
O143 O 0.56666 0.10946 0.07373 0.0
O144 O 0.60201 0.08951 0.19841 0.0
O145 O 0.61652 0.07495 0.14548 0.0
C146 C 0.61257 0.07354 0.18213 0.0
C147 C 0.61288 0.10216 0.00332 0.0
C148 C 0.55587 0.10584 0.10459 0.0
C149 C 0.6204 0.14554 0.1209 0.0
O150 O 0.61658 0.13921 0.08654 0.0
O151 O 0.61452 0.13389 0.14969 0.0
O152 O 0.60014 0.11878 0.00915 0.0
O153 O 0.61855 0.09037 0.03277 0.0
O154 O 0.64722 0.81595 0.88798 0.0
Cd155 Cd 0.6458 0.84941 0.89808 0.0
Cd156 Cd 0.63717 0.8511 0.8182 0.0
O157 O 0.64014 0.8173 0.82547 0.0
O158 O 0.66087 0.85316 0.94869 0.0
O159 O 0.67371 0.86732 0.89412 0.0
C160 C 0.67617 0.86388 0.93077 0.0
C161 C 0.64785 0.86417 0.75735 0.0
C162 C 0.64421 0.80626 0.85587 0.0
C163 C 0.6029 0.86964 0.87379 0.0
O164 O 0.6092 0.86639 0.83922 0.0
O165 O 0.61489 0.86381 0.9022 0.0
O166 O 0.6312 0.8513 0.76185 0.0
O167 O 0.65896 0.86982 0.7876 0.0
O168 O 0.9342 0.09921 0.85426 0.0
Cd169 Cd 0.90003 0.09695 0.85711 0.0
Cd170 Cd 0.90738 0.10533 0.93218 0.0
O171 O 0.93943 0.09817 0.91736 0.0
O172 O 0.89007 0.08054 0.81038 0.0
O173 O 0.88816 0.06692 0.86989 0.0
C174 C 0.88541 0.0643 0.8331 0.0
C175 C 0.8938 0.09459 0.99258 0.0
C176 C 0.94713 0.09823 0.88321 0.0
C177 C 0.88481 0.14044 0.88581 0.0
O178 O 0.8962 0.13589 0.91556 0.0
O179 O 0.88188 0.12601 0.85961 0.0
O180 O 0.90972 0.10851 0.98916 0.0
O181 O 0.8859 0.08582 0.96149 0.0
O182 O 0.64227 0.18087 0.60603 0.0
Cd183 Cd 0.64549 0.14684 0.60425 0.0
Cd184 Cd 0.64145 0.15266 0.68045 0.0
O185 O 0.65215 0.1841 0.66692 0.0
O186 O 0.65893 0.14101 0.55288 0.0
O187 O 0.67573 0.13332 0.60819 0.0
C188 C 0.67626 0.13404 0.57084 0.0
C189 C 0.65186 0.13797 0.74023 0.0
C190 C 0.648 0.19288 0.63442 0.0
C191 C 0.60356 0.13234 0.63636 0.0
O192 O 0.60948 0.14398 0.66516 0.0
O193 O 0.61706 0.12846 0.6091 0.0
O194 O 0.6392 0.15495 0.73752 0.0
O195 O 0.65943 0.12942 0.70872 0.0
O196 O 0.56551 0.90006 0.36176 0.0
Cd197 Cd 0.59945 0.89896 0.35404 0.0
Cd198 Cd 0.59754 0.88934 0.43285 0.0
O199 O 0.56482 0.89702 0.42526 0.0
O200 O 0.60308 0.91273 0.3023 0.0
O201 O 0.61664 0.92746 0.35581 0.0
C202 C 0.61326 0.92881 0.31899 0.0
C203 C 0.61269 0.89844 0.49302 0.0
C204 C 0.55483 0.89971 0.39337 0.0
C205 C 0.61487 0.85425 0.37831 0.0
O206 O 0.60769 0.85926 0.41169 0.0
O207 O 0.61475 0.86837 0.3511 0.0
O208 O 0.59734 0.88393 0.48938 0.0
O209 O 0.61965 0.90826 0.46226 0.0
O210 O 0.8552 0.82567 0.10895 0.0
Cd211 Cd 0.85573 0.85801 0.09104 0.0
Cd212 Cd 0.8709 0.86397 0.1703 0.0
O213 O 0.86969 0.82973 0.16713 0.0
O214 O 0.83938 0.85676 0.04125 0.0
O215 O 0.82756 0.87583 0.09171 0.0
C216 C 0.82435 0.86895 0.05678 0.0
C217 C 0.86708 0.87798 0.23331 0.0
C218 C 0.86221 0.81741 0.14037 0.0
C219 C 0.89888 0.88093 0.10282 0.0
O220 O 0.89448 0.88061 0.13871 0.0
O221 O 0.88614 0.87175 0.07844 0.0
O222 O 0.88464 0.86799 0.22203 0.0
O223 O 0.85112 0.88 0.20885 0.0
O224 O 0.56788 0.59728 0.86295 0.0
Cd225 Cd 0.60174 0.59905 0.85462 0.0
Cd226 Cd 0.60035 0.60698 0.93367 0.0
O227 O 0.56777 0.59857 0.92663 0.0
O228 O 0.60547 0.58609 0.80224 0.0
O229 O 0.61952 0.57089 0.85493 0.0
C230 C 0.61607 0.57 0.81808 0.0
C231 C 0.6163 0.59751 0.99307 0.0
C232 C 0.5575 0.59661 0.89485 0.0
C233 C 0.616 0.64369 0.88085 0.0
O234 O 0.60925 0.63781 0.91406 0.0
O235 O 0.6162 0.63008 0.85286 0.0
O236 O 0.60042 0.6115 0.99043 0.0
O237 O 0.62333 0.58837 0.96171 0.0
O238 O 0.64189 0.31857 0.09498 0.0
Cd239 Cd 0.64352 0.35256 0.09076 0.0
Cd240 Cd 0.64395 0.34892 0.16699 0.0
O241 O 0.65483 0.31746 0.15429 0.0
O242 O 0.65698 0.35855 0.03948 0.0
O243 O 0.67305 0.36739 0.09503 0.0
C244 C 0.67392 0.36627 0.05771 0.0
C245 C 0.65674 0.36425 0.22495 0.0
C246 C 0.64937 0.30759 0.12338 0.0
C247 C 0.60251 0.36571 0.1271 0.0
O248 O 0.61097 0.35606 0.15622 0.0
O249 O 0.61408 0.36916 0.09706 0.0
O250 O 0.64423 0.34711 0.22421 0.0
O251 O 0.66261 0.37282 0.19238 0.0
O252 O 0.93239 0.39816 0.36423 0.0
Cd253 Cd 0.89863 0.39927 0.35522 0.0
Cd254 Cd 0.89901 0.39265 0.43371 0.0
O255 O 0.93075 0.40435 0.42683 0.0
O256 O 0.89538 0.41465 0.30477 0.0
O257 O 0.88259 0.42824 0.35989 0.0
C258 C 0.88583 0.43055 0.32316 0.0
C259 C 0.88377 0.39963 0.49479 0.0
C260 C 0.94193 0.40263 0.39598 0.0
C261 C 0.88352 0.35567 0.38018 0.0
O262 O 0.89145 0.36139 0.41276 0.0
O263 O 0.88225 0.36952 0.35269 0.0
O264 O 0.9004 0.38675 0.49006 0.0
O265 O 0.87544 0.40896 0.46459 0.0
O266 O 0.85139 0.67373 0.62241 0.0
Cd267 Cd 0.84881 0.63974 0.619 0.0
Cd268 Cd 0.85405 0.64532 0.69743 0.0
O269 O 0.8417 0.67612 0.68355 0.0
O270 O 0.83653 0.63514 0.56631 0.0
O271 O 0.81865 0.62569 0.61961 0.0
C272 C 0.81889 0.62753 0.58237 0.0
C273 C 0.84688 0.63316 0.7606 0.0
C274 C 0.84536 0.68526 0.65118 0.0
C275 C 0.89153 0.62615 0.64932 0.0
O276 O 0.88569 0.63717 0.67892 0.0
O277 O 0.87775 0.62212 0.62254 0.0
O278 O 0.85923 0.64995 0.75358 0.0
O279 O 0.838 0.62314 0.73157 0.0
O280 O 0.57253 0.40278 0.61607 0.0
Cd281 Cd 0.60525 0.40001 0.6314 0.0
Cd282 Cd 0.60963 0.3902 0.55032 0.0
O283 O 0.5758 0.39447 0.55425 0.0
O284 O 0.60564 0.41303 0.68417 0.0
O285 O 0.62398 0.42749 0.63503 0.0
C286 C 0.61795 0.42862 0.67082 0.0
C287 C 0.62384 0.39872 0.48911 0.0
C288 C 0.56389 0.39959 0.5831 0.0
C289 C 0.6248 0.35611 0.60958 0.0
O290 O 0.62333 0.36221 0.57452 0.0
O291 O 0.61817 0.36854 0.63686 0.0
O292 O 0.61068 0.3824 0.49472 0.0
O293 O 0.62936 0.41058 0.51854 0.0
O294 O 0.84962 0.31125 0.89032 0.0
Cd295 Cd 0.85156 0.3451 0.89798 0.0
Cd296 Cd 0.85989 0.34346 0.8191 0.0
O297 O 0.85176 0.31083 0.82672 0.0
O298 O 0.83688 0.3496 0.94877 0.0
O299 O 0.82375 0.36326 0.89402 0.0
C300 C 0.82149 0.36014 0.93078 0.0
C301 C 0.8507 0.35844 0.75871 0.0
C302 C 0.84937 0.30071 0.85856 0.0
C303 C 0.89639 0.35925 0.87294 0.0
O304 O 0.89043 0.35296 0.83947 0.0
O305 O 0.88278 0.3591 0.90096 0.0
O306 O 0.86507 0.34298 0.76246 0.0
O307 O 0.84111 0.36567 0.78953 0.0
O308 O 0.93125 0.61169 0.16259 0.0
Cd309 Cd 0.89732 0.61039 0.16747 0.0
Cd310 Cd 0.90078 0.61295 0.08993 0.0
O311 O 0.93194 0.60083 0.10193 0.0
O312 O 0.89191 0.59602 0.2182 0.0
O313 O 0.882 0.58112 0.16225 0.0
C314 C 0.88368 0.57953 0.19943 0.0
C315 C 0.88623 0.60355 0.02923 0.0
C316 C 0.94195 0.60493 0.13335 0.0
C317 C 0.88456 0.65284 0.13598 0.0
O318 O 0.89379 0.64535 0.10562 0.0
O319 O 0.88123 0.64023 0.16475 0.0
O320 O 0.90337 0.61589 0.03289 0.0
O321 O 0.87721 0.59596 0.06031 0.0
O322 O 0.65194 0.68424 0.38361 0.0
Cd323 Cd 0.64948 0.65104 0.39557 0.0
Cd324 Cd 0.64262 0.64846 0.31445 0.0
O325 O 0.64614 0.68225 0.32074 0.0
O326 O 0.66227 0.64865 0.44835 0.0
O327 O 0.67696 0.63228 0.39723 0.0
C328 C 0.67793 0.6369 0.43368 0.0
C329 C 0.65356 0.63463 0.25415 0.0
C330 C 0.64976 0.69358 0.35098 0.0
C331 C 0.6066 0.63172 0.36848 0.0
O332 O 0.61384 0.63426 0.3343 0.0
O333 O 0.61808 0.63758 0.39753 0.0
O334 O 0.63727 0.64803 0.25792 0.0
O335 O 0.66419 0.62889 0.28486 0.0
O336 O 0.42862 0.39479 0.16015 0.0
Cd337 Cd 0.39524 0.39656 0.17044 0.0
Cd338 Cd 0.39242 0.38476 0.08962 0.0
O339 O 0.42636 0.38514 0.0986 0.0
O340 O 0.39093 0.41424 0.21835 0.0
O341 O 0.38075 0.42576 0.16003 0.0
C342 C 0.38258 0.42943 0.19671 0.0
C343 C 0.38174 0.38911 0.02477 0.0
C344 C 0.43784 0.38965 0.1284 0.0
C345 C 0.37039 0.35559 0.15095 0.0
O346 O 0.37351 0.36081 0.11586 0.0
O347 O 0.37837 0.36724 0.1781 0.0
O348 O 0.39139 0.3716 0.0371 0.0
O349 O 0.37853 0.40495 0.04909 0.0
O350 O 0.35302 0.67985 0.89124 0.0
Cd351 Cd 0.35264 0.64565 0.89456 0.0
Cd352 Cd 0.36166 0.65048 0.81639 0.0
O353 O 0.35413 0.68287 0.82776 0.0
O354 O 0.33861 0.64031 0.94564 0.0
O355 O 0.32335 0.63004 0.89035 0.0
C356 C 0.32204 0.63182 0.92753 0.0
C357 C 0.35271 0.63708 0.75486 0.0
C358 C 0.35271 0.69171 0.86093 0.0
C359 C 0.39672 0.63039 0.86782 0.0
O360 O 0.39182 0.63961 0.83598 0.0
O361 O 0.38259 0.62902 0.8949 0.0
O362 O 0.367 0.6525 0.75992 0.0
O363 O 0.34284 0.62925 0.78493 0.0
O364 O 0.0658 0.60163 0.63955 0.0
Cd365 Cd 0.09992 0.60238 0.64362 0.0
Cd366 Cd 0.09494 0.61273 0.56545 0.0
O367 O 0.06255 0.60462 0.57626 0.0
O368 O 0.10506 0.58846 0.69488 0.0
O369 O 0.11654 0.57357 0.64007 0.0
C370 C 0.1143 0.57218 0.67715 0.0
C371 C 0.10937 0.60414 0.50444 0.0
C372 C 0.05387 0.60196 0.60933 0.0
C373 C 0.11407 0.64737 0.61908 0.0
O374 O 0.10542 0.6427 0.58663 0.0
O375 O 0.11538 0.6329 0.64562 0.0
O376 O 0.09372 0.61827 0.50886 0.0
O377 O 0.1168 0.59423 0.53481 0.0
O378 O 0.14637 0.32432 0.39625 0.0
Cd379 Cd 0.14643 0.35695 0.41271 0.0
Cd380 Cd 0.13314 0.36242 0.33212 0.0
O381 O 0.13392 0.32823 0.33659 0.0
O382 O 0.16257 0.35656 0.46279 0.0
O383 O 0.17491 0.37416 0.41108 0.0
C384 C 0.17788 0.36808 0.44653 0.0
C385 C 0.13681 0.37552 0.26851 0.0
C386 C 0.14018 0.31598 0.36437 0.0
C387 C 0.10424 0.38083 0.39743 0.0
O388 O 0.10937 0.37978 0.36191 0.0
O389 O 0.11622 0.37176 0.42308 0.0
O390 O 0.11941 0.36546 0.28028 0.0
O391 O 0.15281 0.37797 0.29277 0.0
O392 O 0.43096 0.61161 0.35444 0.0
Cd393 Cd 0.39701 0.60747 0.35682 0.0
Cd394 Cd 0.40426 0.61139 0.43105 0.0
O395 O 0.43517 0.60062 0.41459 0.0
O396 O 0.38713 0.59119 0.30994 0.0
O397 O 0.38668 0.57689 0.36911 0.0
C398 C 0.38349 0.57453 0.33236 0.0
C399 C 0.39063 0.60024 0.49115 0.0
C400 C 0.44344 0.60533 0.38189 0.0
C401 C 0.3826 0.64912 0.38992 0.0
O402 O 0.39541 0.64351 0.41732 0.0
O403 O 0.37786 0.63534 0.36353 0.0
O404 O 0.40761 0.61288 0.48803 0.0
O405 O 0.38154 0.59307 0.4598 0.0
O406 O 0.14403 0.68209 0.10263 0.0
Cd407 Cd 0.14558 0.64859 0.09445 0.0
Cd408 Cd 0.14235 0.64883 0.17657 0.0
O409 O 0.14924 0.68196 0.16577 0.0
O410 O 0.15956 0.64506 0.04287 0.0
O411 O 0.17464 0.63263 0.09713 0.0
C412 C 0.17591 0.63561 0.06017 0.0
C413 C 0.15123 0.63679 0.2392 0.0
C414 C 0.14722 0.69238 0.13407 0.0
C415 C 0.10491 0.62936 0.12604 0.0
O416 O 0.11248 0.63531 0.15874 0.0
O417 O 0.11597 0.63231 0.0953 0.0
O418 O 0.13648 0.65158 0.2329 0.0
O419 O 0.16171 0.62886 0.20984 0.0
O420 O 0.0675 0.39497 0.86059 0.0
Cd421 Cd 0.10004 0.39461 0.84342 0.0
Cd422 Cd 0.10571 0.38061 0.9229 0.0
O423 O 0.07148 0.38119 0.9193 0.0
O424 O 0.09932 0.41081 0.79344 0.0
O425 O 0.11797 0.42269 0.84438 0.0
C426 C 0.11155 0.42575 0.80915 0.0
C427 C 0.1197 0.38546 0.98564 0.0
C428 C 0.05919 0.38817 0.89212 0.0
C429 C 0.12369 0.35207 0.85707 0.0
O430 O 0.1229 0.35686 0.89277 0.0
O431 O 0.11447 0.36434 0.83201 0.0
O432 O 0.10958 0.36779 0.97527 0.0
O433 O 0.12172 0.40103 0.96041 0.0
O434 O 0.35685 0.31799 0.61682 0.0
Cd435 Cd 0.35817 0.35139 0.60342 0.0
Cd436 Cd 0.37366 0.35185 0.68171 0.0
O437 O 0.3668 0.31869 0.67827 0.0
O438 O 0.34161 0.35263 0.55378 0.0
O439 O 0.33022 0.3695 0.60682 0.0
C440 C 0.3268 0.36428 0.57109 0.0
C441 C 0.37036 0.36807 0.74302 0.0
C442 C 0.3606 0.30806 0.64855 0.0
C443 C 0.40411 0.36743 0.6167 0.0
O444 O 0.40091 0.36244 0.65187 0.0
O445 O 0.38872 0.36553 0.59191 0.0
O446 O 0.38593 0.35445 0.73475 0.0
O447 O 0.35596 0.37236 0.71655 0.0
C448 C 0.109 0.05217 0.25236 0.0
C449 C 0.11936 0.05739 0.28745 0.0
C450 C 0.11117 0.03115 0.23582 0.0
C451 C 0.12458 0.01511 0.2542 0.0
C452 C 0.13625 0.02075 0.28832 0.0
C453 C 0.13321 0.04174 0.30495 0.0
C454 C 0.09799 0.0257 0.19995 0.0
C455 C 0.15128 0.00436 0.30803 0.0
C456 C 0.10642 0.95598 0.23754 0.0
C457 C 0.11932 0.94987 0.20563 0.0
C458 C 0.10851 0.97693 0.25441 0.0
C459 C 0.12437 0.99194 0.23975 0.0
C460 C 0.1384 0.98537 0.20905 0.0
C461 C 0.13545 0.96451 0.19186 0.0
C462 C 0.09283 0.98342 0.28645 0.0
C463 C 0.156 0.00063 0.19352 0.0
H464 H 0.09818 0.06415 0.23881 0.0
H465 H 0.14138 0.04578 0.33193 0.0
H466 H 0.10896 0.0191 0.17705 0.0
H467 H 0.08568 0.01267 0.20677 0.0
H468 H 0.08908 0.0403 0.18829 0.0
H469 H 0.1617 0.01229 0.33053 0.0
H470 H 0.14124 0.99127 0.32197 0.0
H471 H 0.16219 0.99619 0.28656 0.0
H472 H 0.09384 0.94478 0.24817 0.0
H473 H 0.14557 0.95977 0.16738 0.0
H474 H 0.08226 0.99732 0.27666 0.0
H475 H 0.10219 0.98922 0.31207 0.0
H476 H 0.08197 0.96955 0.29544 0.0
H477 H 0.14815 0.01439 0.17741 0.0
H478 H 0.16756 0.99195 0.17374 0.0
H479 H 0.1656 0.00801 0.21763 0.0
C480 C 0.20824 0.8884 0.55327 0.0
C481 C 0.19413 0.87138 0.54118 0.0
C482 C 0.22823 0.89253 0.53381 0.0
C483 C 0.23451 0.87881 0.50249 0.0
C484 C 0.2199 0.86215 0.48937 0.0
C485 C 0.19978 0.85887 0.50852 0.0
C486 C 0.24301 0.91096 0.54774 0.0
C487 C 0.2261 0.8468 0.45667 0.0
C488 C 0.28189 0.88884 0.43259 0.0
C489 C 0.29842 0.87546 0.44868 0.0
C490 C 0.26143 0.89151 0.4513 0.0
C491 C 0.25723 0.87992 0.48612 0.0
C492 C 0.27421 0.86713 0.50319 0.0
C493 C 0.29467 0.86534 0.48455 0.0
C494 C 0.24401 0.90594 0.43296 0.0
C495 C 0.27033 0.85408 0.53981 0.0
H496 H 0.20385 0.89825 0.5783 0.0
H497 H 0.18899 0.84563 0.49909 0.0
H498 H 0.2574 0.9039 0.5633 0.0
H499 H 0.2495 0.92058 0.5229 0.0
H500 H 0.23422 0.92236 0.56767 0.0
H501 H 0.21248 0.83533 0.44889 0.0
H502 H 0.23071 0.8564 0.4306 0.0
H503 H 0.24073 0.83684 0.46512 0.0
H504 H 0.28478 0.89686 0.40503 0.0
H505 H 0.30734 0.85491 0.49711 0.0
H506 H 0.23588 0.91643 0.4551 0.0
H507 H 0.23106 0.89541 0.4197 0.0
H508 H 0.25103 0.91675 0.4101 0.0
H509 H 0.264 0.865 0.56303 0.0
H510 H 0.28558 0.84583 0.55034 0.0
H511 H 0.2576 0.84124 0.53445 0.0
C512 C 0.36182 0.03592 0.69408 0.0
C513 C 0.37782 0.05096 0.70692 0.0
C514 C 0.35848 0.01576 0.71349 0.0
C515 C 0.37207 0.01026 0.74544 0.0
C516 C 0.38782 0.0257 0.75906 0.0
C517 C 0.39023 0.04599 0.74002 0.0
C518 C 0.34096 1.00007 0.69904 0.0
C519 C 0.4031 0.02031 0.79231 0.0
C520 C 0.36262 0.96307 0.81601 0.0
C521 C 0.37654 0.94677 0.80065 0.0
C522 C 0.35968 0.98335 0.79683 0.0
C523 C 0.37161 0.98766 0.7624 0.0
C524 C 0.38513 0.97095 0.74625 0.0
C525 C 0.38713 0.9506 0.76526 0.0
C526 C 0.34446 0.00044 0.81415 0.0
C527 C 0.39864 0.97501 0.71021 0.0
H528 H 0.35209 0.03979 0.66865 0.0
H529 H 0.40274 0.05749 0.74991 0.0
H530 H 0.34888 0.98582 0.68444 0.0
H531 H 0.33116 0.99348 0.72357 0.0
H532 H 0.32957 0.00815 0.67817 0.0
H533 H 0.414 0.0344 0.80005 0.0
H534 H 0.39343 0.01558 0.81823 0.0
H535 H 0.41364 0.00598 0.78451 0.0
H536 H 0.35426 0.96007 0.84322 0.0
H537 H 0.39801 0.9381 0.75339 0.0
H538 H 0.33383 0.00783 0.79144 0.0
H539 H 0.35437 0.01398 0.82703 0.0
H540 H 0.33377 0.99333 0.83709 0.0
H541 H 0.38788 0.9807 0.68628 0.0
H542 H 0.40764 0.96 0.70055 0.0
H543 H 0.41088 0.98828 0.71584 0.0
C544 C 0.2024 0.14128 0.97129 0.0
C545 C 0.19994 0.13005 0.93609 0.0
C546 C 0.22214 0.14003 0.99239 0.0
C547 C 0.23965 0.12669 0.97856 0.0
C548 C 0.23677 0.11425 0.9442 0.0
C549 C 0.21706 0.11638 0.92296 0.0
C550 C 0.22467 0.15402 0.02831 0.0
C551 C 0.25478 0.09929 0.92921 0.0
C552 C 0.29693 0.14602 0.00701 0.0
C553 C 0.30096 0.13363 0.04052 0.0
C554 C 0.2773 0.14346 0.98602 0.0
C555 C 0.26154 0.12762 0.99813 0.0
C556 C 0.26605 0.11419 0.03076 0.0
C557 C 0.28557 0.11763 0.05201 0.0
C558 C 0.27293 0.15854 0.95204 0.0
C559 C 0.24999 0.09665 0.04381 0.0
H560 H 0.18928 0.15199 0.98147 0.0
H561 H 0.21514 0.10754 0.8959 0.0
H562 H 0.22972 0.14364 0.05319 0.0
H563 H 0.23788 0.16646 0.02369 0.0
H564 H 0.20918 0.16282 0.03602 0.0
H565 H 0.24885 0.08844 0.90548 0.0
H566 H 0.26869 0.1094 0.91812 0.0
H567 H 0.26135 0.08881 0.9529 0.0
H568 H 0.30871 0.15852 0.99813 0.0
H569 H 0.28872 0.1079 0.07775 0.0
H570 H 0.25824 0.16895 0.9581 0.0
H571 H 0.26923 0.14869 0.9258 0.0
H572 H 0.28715 0.16956 0.94571 0.0
H573 H 0.23497 0.10457 0.05589 0.0
H574 H 0.2572 0.08571 0.06629 0.0
H575 H 0.2447 0.08638 0.01888 0.0
C576 C 0.88936 0.96101 0.69818 0.0
C577 C 0.87802 0.94222 0.71072 0.0
C578 C 0.8881 0.98087 0.71902 0.0
C579 C 0.87438 0.98212 0.75218 0.0
C580 C 0.86176 0.96349 0.76339 0.0
C581 C 0.86421 0.94353 0.74309 0.0
C582 C 0.90244 1.00006 0.70683 0.0
C583 C 0.84618 0.96445 0.79741 0.0
C584 C 0.8915 0.02392 0.82834 0.0
C585 C 0.87969 0.04262 0.81667 0.0
C586 C 0.88953 0.00391 0.80811 0.0
C587 C 0.87466 0.00241 0.77654 0.0
C588 C 0.8615 0.02089 0.76652 0.0
C589 C 0.86462 0.041 0.78608 0.0
C590 C 0.90446 0.98489 0.8189 0.0
C591 C 0.84472 0.01967 0.73431 0.0
H592 H 0.90028 0.95979 0.67342 0.0
H593 H 0.85546 0.92888 0.75266 0.0
H594 H 0.89215 0.01488 0.70141 0.0
H595 H 0.91412 0.00425 0.73048 0.0
H596 H 0.91211 0.9964 0.6803 0.0
H597 H 0.83522 0.94975 0.79873 0.0
H598 H 0.85576 0.96532 0.82469 0.0
H599 H 0.83579 0.97954 0.79584 0.0
H600 H 0.9034 0.02535 0.85165 0.0
H601 H 0.8555 0.05555 0.77714 0.0
H602 H 0.91554 0.98097 0.79427 0.0
H603 H 0.89456 0.96989 0.82499 0.0
H604 H 0.91479 0.98861 0.84465 0.0
H605 H 0.85331 0.01909 0.70602 0.0
H606 H 0.83345 0.03415 0.73436 0.0
H607 H 0.83471 0.00438 0.73687 0.0
C608 C 0.7952 0.14568 0.48704 0.0
C609 C 0.80081 0.13251 0.4552 0.0
C610 C 0.77501 0.14293 0.50623 0.0
C611 C 0.76032 0.12611 0.49406 0.0
C612 C 0.76647 0.11187 0.46337 0.0
C613 C 0.78651 0.11549 0.44378 0.0
C614 C 0.7689 0.15887 0.53812 0.0
C615 C 0.75159 0.09327 0.45048 0.0
C616 C 0.71365 0.1164 0.56552 0.0
C617 C 0.69675 0.1292 0.54919 0.0
C618 C 0.73403 0.11387 0.5465 0.0
C619 C 0.73778 0.12506 0.51112 0.0
C620 C 0.72047 0.13737 0.49398 0.0
C621 C 0.70008 0.139 0.51294 0.0
C622 C 0.75182 0.09996 0.56499 0.0
C623 C 0.72389 0.15005 0.45681 0.0
H624 H 0.80613 0.15895 0.49584 0.0
H625 H 0.7909 0.10516 0.41936 0.0
H626 H 0.75409 0.1685 0.52946 0.0
H627 H 0.76461 0.14973 0.56486 0.0
H628 H 0.78246 0.17062 0.54487 0.0
H629 H 0.76012 0.08177 0.43039 0.0
H630 H 0.74556 0.0838 0.47584 0.0
H631 H 0.73691 0.10014 0.43551 0.0
H632 H 0.71106 0.10864 0.59339 0.0
H633 H 0.68712 0.14901 0.50027 0.0
H634 H 0.76488 0.11083 0.57696 0.0
H635 H 0.75969 0.08907 0.54316 0.0
H636 H 0.74523 0.08958 0.58883 0.0
H637 H 0.73651 0.1631 0.46139 0.0
H638 H 0.70846 0.15799 0.44638 0.0
H639 H 0.73017 0.13893 0.43383 0.0
C640 C 0.60762 0.95339 0.26226 0.0
C641 C 0.61874 0.94903 0.29699 0.0
C642 C 0.60992 0.97373 0.24341 0.0
C643 C 0.62421 0.98994 0.25908 0.0
C644 C 0.63667 0.98508 0.2927 0.0
C645 C 0.63351 0.96477 0.31168 0.0
C646 C 0.59594 0.97837 0.20813 0.0
C647 C 0.65263 0.00166 0.3095 0.0
C648 C 0.63371 0.03819 0.19078 0.0
C649 C 0.61803 0.05339 0.20433 0.0
C650 C 0.63711 0.01799 0.20998 0.0
C651 C 0.62399 0.01264 0.24257 0.0
C652 C 0.60871 0.02829 0.25706 0.0
C653 C 0.60616 0.04858 0.23809 0.0
C654 C 0.6541 0.00204 0.1945 0.0
C655 C 0.594 0.02311 0.29118 0.0
H656 H 0.59611 0.94133 0.25079 0.0
H657 H 0.6423 0.96139 0.33835 0.0
H658 H 0.58409 0.99187 0.21464 0.0
H659 H 0.60644 0.98399 0.18379 0.0
H660 H 0.58644 0.96364 0.19859 0.0
H661 H 0.66362 0.99409 0.33156 0.0
H662 H 0.66296 0.00903 0.28635 0.0
H663 H 0.6433 0.01529 0.32337 0.0
H664 H 0.64307 0.04195 0.16489 0.0
H665 H 0.59395 0.06022 0.24863 0.0
H666 H 0.64567 0.98803 0.18003 0.0
H667 H 0.66414 0.99511 0.21846 0.0
H668 H 0.66532 0.01 0.17324 0.0
H669 H 0.58289 0.00914 0.28376 0.0
H670 H 0.58367 0.03744 0.29988 0.0
H671 H 0.60407 0.01792 0.31636 0.0
C672 C 0.70188 0.8601 0.9866 0.0
C673 C 0.69676 0.87011 0.95115 0.0
C674 C 0.72256 0.86311 0.004 0.0
C675 C 0.73839 0.87691 0.986 0.0
C676 C 0.73279 0.88827 0.95154 0.0
C677 C 0.71211 0.8845 0.9342 0.0
C678 C 0.72795 0.85036 0.04036 0.0
C679 C 0.74899 0.90361 0.93211 0.0
C680 C 0.78841 0.88924 0.04902 0.0
C681 C 0.80337 0.87317 0.03607 0.0
C682 C 0.76758 0.89165 0.03142 0.0
C683 C 0.76144 0.87724 0.00097 0.0
C684 C 0.7768 0.8615 0.98704 0.0
C685 C 0.79763 0.85985 0.00444 0.0
C686 C 0.75189 0.90905 0.04629 0.0
C687 C 0.77082 0.84552 0.95513 0.0
H688 H 0.69012 0.84893 0.99988 0.0
H689 H 0.70817 0.89244 0.90697 0.0
H690 H 0.74116 0.83815 0.03413 0.0
H691 H 0.73428 0.86163 0.06306 0.0
H692 H 0.71339 0.84139 0.05199 0.0
H693 H 0.741 0.91377 0.9093 0.0
H694 H 0.75674 0.91478 0.95365 0.0
H695 H 0.76241 0.89382 0.91858 0.0
H696 H 0.79283 0.8997 0.07326 0.0
H697 H 0.80907 0.84735 0.99431 0.0
H698 H 0.73818 0.90104 0.06228 0.0
H699 H 0.74447 0.91834 0.02187 0.0
H700 H 0.76021 0.92091 0.06601 0.0
H701 H 0.75707 0.83473 0.96483 0.0
H702 H 0.78495 0.83489 0.94657 0.0
H703 H 0.76499 0.85462 0.92924 0.0
C704 C 0.61043 0.45226 0.7282 0.0
C705 C 0.62311 0.44811 0.69506 0.0
C706 C 0.61268 0.47203 0.74887 0.0
C707 C 0.62842 0.48787 0.73671 0.0
C708 C 0.64234 0.48315 0.70483 0.0
C709 C 0.63929 0.46342 0.68397 0.0
C710 C 0.5972 0.47654 0.78223 0.0
C711 C 0.65978 0.49931 0.69178 0.0
C712 C 0.6117 0.5467 0.7593 0.0
C713 C 0.62203 0.55027 0.79505 0.0
C714 C 0.61444 0.52679 0.73922 0.0
C715 C 0.62833 0.5102 0.75475 0.0
C716 C 0.64001 0.51428 0.78953 0.0
C717 C 0.63647 0.53418 0.80962 0.0
C718 C 0.60132 0.523 0.70263 0.0
C719 C 0.6555 0.49727 0.80634 0.0
H720 H 0.59786 0.44052 0.73694 0.0
H721 H 0.64928 0.4602 0.65858 0.0
H722 H 0.60668 0.48118 0.80843 0.0
H723 H 0.58628 0.49067 0.77493 0.0
H724 H 0.58668 0.46205 0.78926 0.0
H725 H 0.67149 0.49174 0.6709 0.0
H726 H 0.65178 0.51367 0.67762 0.0
H727 H 0.66922 0.50566 0.71694 0.0
H728 H 0.60048 0.55903 0.74786 0.0
H729 H 0.64466 0.53693 0.83708 0.0
H730 H 0.58925 0.50946 0.70735 0.0
H731 H 0.61239 0.51782 0.67876 0.0
H732 H 0.59215 0.53799 0.69336 0.0
H733 H 0.64579 0.4834 0.81862 0.0
H734 H 0.66599 0.50429 0.82966 0.0
H735 H 0.66633 0.49033 0.78349 0.0
C736 C 0.78676 0.38261 0.9366 0.0
C737 C 0.80093 0.3663 0.9512 0.0
C738 C 0.76618 0.38675 0.95411 0.0
C739 C 0.75937 0.37368 0.98595 0.0
C740 C 0.77394 0.35763 0.00136 0.0
C741 C 0.79465 0.35441 0.98419 0.0
C742 C 0.75146 0.40457 0.93779 0.0
C743 C 0.76717 0.34291 0.0346 0.0
C744 C 0.71079 0.38498 0.05263 0.0
C745 C 0.69458 0.37121 0.0366 0.0
C746 C 0.73153 0.38737 0.03474 0.0
C747 C 0.73636 0.37502 0.00098 0.0
C748 C 0.71971 0.36176 0.98397 0.0
C749 C 0.69893 0.36033 0.00165 0.0
C750 C 0.74855 0.40234 0.05289 0.0
C751 C 0.72428 0.34783 0.94861 0.0
H752 H 0.79164 0.39195 0.91126 0.0
H753 H 0.80547 0.34168 0.99546 0.0
H754 H 0.73742 0.39692 0.92216 0.0
H755 H 0.74446 0.41482 0.96143 0.0
H756 H 0.76047 0.4155 0.91736 0.0
H757 H 0.78066 0.33162 0.04379 0.0
H758 H 0.76212 0.35302 0.05981 0.0
H759 H 0.75269 0.33278 0.02599 0.0
H760 H 0.70742 0.39357 0.0795 0.0
H761 H 0.6865 0.34955 0.98926 0.0
H762 H 0.75693 0.41241 0.03043 0.0
H763 H 0.76137 0.39224 0.06745 0.0
H764 H 0.7411 0.4136 0.07467 0.0
H765 H 0.73102 0.35818 0.92495 0.0
H766 H 0.70925 0.33928 0.93787 0.0
H767 H 0.73693 0.33518 0.95565 0.0
C768 C 0.89298 0.45755 0.27046 0.0
C769 C 0.8807 0.45152 0.30315 0.0
C770 C 0.89052 0.47843 0.25352 0.0
C771 C 0.87487 0.49344 0.26887 0.0
C772 C 0.86146 0.48694 0.30047 0.0
C773 C 0.86483 0.46617 0.31775 0.0
C774 C 0.90559 0.48485 0.22055 0.0
C775 C 0.84406 0.50218 0.31675 0.0
C776 C 0.88958 0.55369 0.25437 0.0
C777 C 0.87865 0.5586 0.21968 0.0
C778 C 0.88783 0.53277 0.27143 0.0
C779 C 0.87424 0.51653 0.25404 0.0
C780 C 0.86197 0.52187 0.22041 0.0
C781 C 0.86464 0.54275 0.20318 0.0
C782 C 0.90167 0.52763 0.30666 0.0
C783 C 0.8467 0.50527 0.20183 0.0
H784 H 0.90538 0.44633 0.25923 0.0
H785 H 0.85519 0.46148 0.34284 0.0
H786 H 0.89575 0.49037 0.1953 0.0
H787 H 0.91617 0.49894 0.22949 0.0
H788 H 0.91645 0.47103 0.21129 0.0
H789 H 0.83293 0.49354 0.33733 0.0
H790 H 0.8521 0.51609 0.33216 0.0
H791 H 0.83397 0.50935 0.29308 0.0
H792 H 0.90056 0.56583 0.26712 0.0
H793 H 0.85603 0.54655 0.1765 0.0
H794 H 0.91394 0.51465 0.29942 0.0
H795 H 0.89115 0.52109 0.33026 0.0
H796 H 0.91066 0.54237 0.31758 0.0
H797 H 0.85657 0.4922 0.18747 0.0
H798 H 0.8358 0.51302 0.17983 0.0
H799 H 0.83627 0.49713 0.22403 0.0
C800 C 0.71141 0.6135 0.44637 0.0
C801 C 0.69729 0.63073 0.45744 0.0
C802 C 0.73085 0.60906 0.46727 0.0
C803 C 0.7366 0.62268 0.49905 0.0
C804 C 0.72205 0.6397 0.51088 0.0
C805 C 0.70244 0.64328 0.49029 0.0
C806 C 0.74557 0.59028 0.45462 0.0
C807 C 0.72776 0.65498 0.54396 0.0
C808 C 0.78132 0.6107 0.57333 0.0
C809 C 0.79887 0.62337 0.55892 0.0
C810 C 0.76135 0.60897 0.55274 0.0
C811 C 0.75869 0.6208 0.51769 0.0
C812 C 0.77667 0.63295 0.50242 0.0
C813 C 0.79662 0.6338 0.52294 0.0
C814 C 0.74282 0.59523 0.56925 0.0
C815 C 0.77443 0.64626 0.46567 0.0
H816 H 0.70738 0.60364 0.42116 0.0
H817 H 0.69165 0.65671 0.49887 0.0
H818 H 0.76076 0.59699 0.44107 0.0
H819 H 0.75075 0.58028 0.47994 0.0
H820 H 0.73725 0.5793 0.43338 0.0
H821 H 0.71432 0.66694 0.55031 0.0
H822 H 0.73122 0.64533 0.57052 0.0
H823 H 0.74296 0.66439 0.53684 0.0
H824 H 0.78306 0.60246 0.60099 0.0
H825 H 0.81008 0.64371 0.51171 0.0
H826 H 0.73519 0.5849 0.54635 0.0
H827 H 0.72975 0.60625 0.58082 0.0
H828 H 0.7486 0.58432 0.59301 0.0
H829 H 0.76842 0.63566 0.44173 0.0
H830 H 0.79029 0.65395 0.45672 0.0
H831 H 0.76205 0.65956 0.46997 0.0
C832 C 0.39021 0.46944 0.20178 0.0
C833 C 0.37763 0.45121 0.21324 0.0
C834 C 0.38868 0.48958 0.22167 0.0
C835 C 0.37356 0.49169 0.25276 0.0
C836 C 0.35982 0.47363 0.26277 0.0
C837 C 0.36244 0.45336 0.24349 0.0
C838 C 0.40418 0.50813 0.21088 0.0
C839 C 0.34284 0.47551 0.29455 0.0
C840 C 0.3888 0.5339 0.32941 0.0
C841 C 0.37809 0.55281 0.31562 0.0
C842 C 0.38702 0.5137 0.30972 0.0
C843 C 0.37346 0.51225 0.27639 0.0
C844 C 0.36137 0.53099 0.26402 0.0
C845 C 0.36426 0.55123 0.28327 0.0
C846 C 0.40076 0.49434 0.32317 0.0
C847 C 0.346 0.52987 0.22971 0.0
H848 H 0.40219 0.46752 0.17872 0.0
H849 H 0.35281 0.43912 0.25229 0.0
H850 H 0.39469 0.52325 0.20374 0.0
H851 H 0.41497 0.51215 0.23587 0.0
H852 H 0.41481 0.50387 0.18578 0.0
H853 H 0.33136 0.4612 0.29486 0.0
H854 H 0.35124 0.47638 0.32301 0.0
H855 H 0.33308 0.49091 0.29112 0.0
H856 H 0.39972 0.53523 0.35417 0.0
H857 H 0.35592 0.5659 0.27273 0.0
H858 H 0.41278 0.48977 0.30028 0.0
H859 H 0.39013 0.47974 0.32834 0.0
H860 H 0.41003 0.49804 0.35014 0.0
H861 H 0.35577 0.52846 0.2027 0.0
H862 H 0.33536 0.54477 0.22753 0.0
H863 H 0.3353 0.51503 0.23164 0.0
C864 C 0.21016 0.61302 0.05016 0.0
C865 C 0.19627 0.63033 0.03862 0.0
C866 C 0.23038 0.60923 0.03123 0.0
C867 C 0.23718 0.62371 0.00132 0.0
C868 C 0.22295 0.64093 0.98916 0.0
C869 C 0.20251 0.64376 0.0075 0.0
C870 C 0.24471 0.59018 0.04395 0.0
C871 C 0.2298 0.65718 0.95823 0.0
C872 C 0.2978 0.63589 0.98517 0.0
C873 C 0.30141 0.62659 0.94857 0.0
C874 C 0.27721 0.63423 0.00342 0.0
C875 C 0.25992 0.62244 0.98512 0.0
C876 C 0.26393 0.61166 0.94943 0.0
C877 C 0.28456 0.61416 0.93123 0.0
C878 C 0.27355 0.64639 0.04104 0.0
C879 C 0.24615 0.59832 0.92968 0.0
H880 H 0.20524 0.60251 0.07404 0.0
H881 H 0.19186 0.65727 0.99874 0.0
H882 H 0.25087 0.58091 0.01845 0.0
H883 H 0.25932 0.59653 0.05976 0.0
H884 H 0.23568 0.5786 0.06321 0.0
H885 H 0.21659 0.66933 0.95155 0.0
H886 H 0.24471 0.66633 0.96785 0.0
H887 H 0.23419 0.64832 0.93125 0.0
H888 H 0.31072 0.64558 0.99874 0.0
H889 H 0.28733 0.60678 0.90308 0.0
H890 H 0.26673 0.63508 0.06323 0.0
H891 H 0.26128 0.65978 0.03657 0.0
H892 H 0.28901 0.65383 0.05247 0.0
H893 H 0.23772 0.58737 0.95076 0.0
H894 H 0.25289 0.58806 0.9058 0.0
H895 H 0.2335 0.60959 0.91747 0.0
C896 C 0.13403 0.46017 0.79937 0.0
C897 C 0.11656 0.4464 0.78804 0.0
C898 C 0.13767 0.48054 0.78083 0.0
C899 C 0.12306 0.48751 0.75123 0.0
C900 C 0.10574 0.47338 0.73916 0.0
C901 C 0.1029 0.4529 0.75735 0.0
C902 C 0.15672 0.49485 0.79363 0.0
C903 C 0.08946 0.48034 0.70834 0.0
C904 C 0.1106 0.54806 0.73507 0.0
C905 C 0.11984 0.55169 0.69842 0.0
C906 C 0.11246 0.52751 0.75343 0.0
C907 C 0.12434 0.51029 0.73516 0.0
C908 C 0.13509 0.51434 0.69948 0.0
C909 C 0.13245 0.53493 0.68121 0.0
C910 C 0.10036 0.52382 0.79108 0.0
C911 C 0.14848 0.4966 0.67971 0.0
H912 H 0.14474 0.45511 0.82286 0.0
H913 H 0.08931 0.44237 0.74857 0.0
H914 H 0.16603 0.50099 0.76817 0.0
H915 H 0.15035 0.50949 0.80936 0.0
H916 H 0.16827 0.48583 0.81298 0.0
H917 H 0.0773 0.46715 0.70153 0.0
H918 H 0.08031 0.49521 0.71813 0.0
H919 H 0.0983 0.48483 0.68139 0.0
H920 H 0.1008 0.5609 0.74858 0.0
H921 H 0.13979 0.5377 0.65304 0.0
H922 H 0.11165 0.51679 0.81312 0.0
H923 H 0.08684 0.5117 0.78654 0.0
H924 H 0.09309 0.5393 0.80274 0.0
H925 H 0.15944 0.48816 0.70078 0.0
H926 H 0.15874 0.50338 0.65587 0.0
H927 H 0.13723 0.48395 0.66745 0.0
C928 C 0.21431 0.38763 0.45269 0.0
C929 C 0.19887 0.37246 0.46713 0.0
C930 C 0.23516 0.39004 0.47018 0.0
C931 C 0.24083 0.37654 0.50215 0.0
C932 C 0.22498 0.3618 0.51762 0.0
C933 C 0.20415 0.36013 0.5002 0.0
C934 C 0.25141 0.40637 0.45352 0.0
C935 C 0.23044 0.34681 0.55122 0.0
C936 C 0.30006 0.35838 0.51734 0.0
C937 C 0.30583 0.36974 0.55122 0.0
C938 C 0.27924 0.3611 0.50031 0.0
C939 C 0.2639 0.37595 0.51704 0.0
C940 C 0.27007 0.38845 0.54995 0.0
C941 C 0.2909 0.38499 0.56699 0.0
C942 C 0.27323 0.34714 0.46564 0.0
C943 C 0.25439 0.40487 0.56797 0.0
H944 H 0.21026 0.39734 0.42733 0.0
H945 H 0.19233 0.34834 0.51152 0.0
H946 H 0.25913 0.41625 0.47693 0.0
H947 H 0.26485 0.39736 0.43846 0.0
H948 H 0.24348 0.41778 0.43253 0.0
H949 H 0.21591 0.33713 0.56109 0.0
H950 H 0.24366 0.3351 0.54261 0.0
H951 H 0.23678 0.35658 0.57596 0.0
H952 H 0.31148 0.34652 0.50499 0.0
H953 H 0.29533 0.39395 0.593 0.0
H954 H 0.26729 0.35773 0.44165 0.0
H955 H 0.25956 0.33575 0.47338 0.0
H956 H 0.28739 0.33715 0.45505 0.0
H957 H 0.24702 0.41563 0.54541 0.0
H958 H 0.26269 0.41543 0.58986 0.0
H959 H 0.24064 0.39593 0.58228 0.0
C960 C 0.13505 0.18337 0.33887 0.0
C961 C 0.11999 0.17565 0.36657 0.0
C962 C 0.14021 0.20597 0.33625 0.0
C963 C 0.12966 0.22119 0.36128 0.0
C964 C 0.11439 0.21345 0.38915 0.0
C965 C 0.10994 0.19078 0.39174 0.0
C966 C 0.15697 0.21357 0.30679 0.0
C967 C 0.10246 0.22916 0.41592 0.0
C968 C 0.15235 0.27814 0.38403 0.0
C969 C 0.1392 0.29165 0.36045 0.0
C970 C 0.15029 0.25506 0.38299 0.0
C971 C 0.1343 0.24528 0.35848 0.0
C972 C 0.12144 0.2588 0.33377 0.0
C973 C 0.12423 0.28183 0.33473 0.0
C974 C 0.16468 0.24119 0.40911 0.0
C975 C 0.10392 0.24905 0.30777 0.0
H976 H 0.14293 0.17172 0.31947 0.0
H977 H 0.09814 0.18496 0.41298 0.0
H978 H 0.14911 0.22511 0.28602 0.0
H979 H 0.17048 0.22274 0.32139 0.0
H980 H 0.16425 0.19958 0.29038 0.0
H981 H 0.09071 0.22051 0.4354 0.0
H982 H 0.11456 0.2383 0.43393 0.0
H983 H 0.09316 0.24156 0.39877 0.0
H984 H 0.16412 0.28565 0.40367 0.0
H985 H 0.11396 0.2922 0.31655 0.0
H986 H 0.17239 0.22753 0.39251 0.0
H987 H 0.15441 0.2336 0.43211 0.0
H988 H 0.17794 0.25106 0.42306 0.0
H989 H 0.11103 0.23572 0.28963 0.0
H990 H 0.09633 0.26163 0.28853 0.0
H991 H 0.09071 0.24153 0.3257 0.0
C992 C 0.97267 0.89678 0.59137 0.0
C993 C 0.9615 0.88479 0.61998 0.0
C994 C 0.99586 0.89647 0.58923 0.0
C995 C 0.00799 0.88317 0.61538 0.0
C996 C 0.99669 0.8708 0.64398 0.0
C997 C 0.9736 0.8721 0.64637 0.0
C998 C 0.00737 0.91051 0.55932 0.0
C999 C 0.00894 0.8559 0.67169 0.0
C1000 C 0.06567 0.86295 0.59075 0.0
C1001 C 0.0785 0.87495 0.61711 0.0
C1002 C 0.0427 0.86598 0.58886 0.0
C1003 C 0.03251 0.88192 0.613 0.0
C1004 C 0.04569 0.89521 0.63759 0.0
C1005 C 0.0685 0.89124 0.63994 0.0
C1006 C 0.02919 0.85103 0.56311 0.0
C1007 C 0.03559 0.91292 0.66272 0.0
H1008 H 0.96328 0.90674 0.57114 0.0
H1009 H 0.96492 0.86267 0.66827 0.0
H1010 H 0.01933 0.92173 0.57367 0.0
H1011 H 0.0169 0.89988 0.53924 0.0
H1012 H 0.99558 0.9206 0.54217 0.0
H1013 H 0.99759 0.84662 0.69101 0.0
H1014 H 0.01914 0.84387 0.65532 0.0
H1015 H 0.02033 0.86581 0.68987 0.0
H1016 H 0.07339 0.85016 0.57346 0.0
H1017 H 0.07847 0.90056 0.66025 0.0
H1018 H 0.01788 0.86086 0.54469 0.0
H1019 H 0.01881 0.84004 0.58127 0.0
H1020 H 0.03971 0.84059 0.54415 0.0
H1021 H 0.02394 0.92319 0.64567 0.0
H1022 H 0.04833 0.92386 0.67571 0.0
H1023 H 0.02605 0.90515 0.68647 0.0
C1024 C 0.38624 0.81454 0.90566 0.0
C1025 C 0.37349 0.8309 0.88765 0.0
C1026 C 0.38093 0.79212 0.90173 0.0
C1027 C 0.36199 0.78594 0.88027 0.0
C1028 C 0.34849 0.80246 0.86342 0.0
C1029 C 0.35463 0.82477 0.86673 0.0
C1030 C 0.39611 0.77502 0.91925 0.0
C1031 C 0.32779 0.79653 0.8414 0.0
C1032 C 0.36351 0.72871 0.83589 0.0
C1033 C 0.35286 0.71605 0.86424 0.0
C1034 C 0.36614 0.75157 0.84037 0.0
C1035 C 0.3573 0.76214 0.87345 0.0
C1036 C 0.3455 0.74961 0.90119 0.0
C1037 C 0.34374 0.7266 0.89659 0.0
C1038 C 0.37935 0.76421 0.81064 0.0
C1039 C 0.33525 0.7604 0.93621 0.0
H1040 H 0.40093 0.81924 0.92162 0.0
H1041 H 0.34465 0.83743 0.85307 0.0
H1042 H 0.38676 0.76415 0.93919 0.0
H1043 H 0.40302 0.76439 0.89607 0.0
H1044 H 0.41002 0.7826 0.93547 0.0
H1045 H 0.31794 0.81135 0.83352 0.0
H1046 H 0.33222 0.78761 0.81449 0.0
H1047 H 0.31731 0.78529 0.8589 0.0
H1048 H 0.37074 0.72059 0.81099 0.0
H1049 H 0.33536 0.71686 0.91841 0.0
H1050 H 0.39434 0.77126 0.82441 0.0
H1051 H 0.36954 0.77822 0.79917 0.0
H1052 H 0.38456 0.75364 0.78602 0.0
H1053 H 0.34844 0.76632 0.95592 0.0
H1054 H 0.32443 0.74886 0.95247 0.0
H1055 H 0.32538 0.77501 0.92742 0.0
C1056 C 0.42272 0.11334 0.09817 0.0
C1057 C 0.4167 0.12961 0.12503 0.0
C1058 C 0.44498 0.10733 0.09315 0.0
C1059 C 0.46157 0.11836 0.11464 0.0
C1060 C 0.45554 0.13493 0.14156 0.0
C1061 C 0.43317 0.14011 0.14682 0.0
C1062 C 0.45074 0.08916 0.06502 0.0
C1063 C 0.47274 0.14748 0.16436 0.0
C1064 C 0.51906 0.09529 0.13163 0.0
C1065 C 0.53147 0.10691 0.10413 0.0
C1066 C 0.49604 0.09787 0.13387 0.0
C1067 C 0.48533 0.11297 0.10884 0.0
C1068 C 0.49773 0.1243 0.08033 0.0
C1069 C 0.52062 0.12088 0.07797 0.0
C1070 C 0.48331 0.085 0.16388 0.0
C1071 C 0.48703 0.14095 0.05374 0.0
H1072 H 0.41 0.1051 0.08147 0.0
H1073 H 0.42859 0.15285 0.16736 0.0
H1074 H 0.46135 0.09577 0.0416 0.0
H1075 H 0.46032 0.07607 0.07998 0.0
H1076 H 0.43583 0.08157 0.05178 0.0
H1077 H 0.46532 0.16028 0.18335 0.0
H1078 H 0.48239 0.13591 0.1826 0.0
H1079 H 0.48451 0.15562 0.14432 0.0
H1080 H 0.52739 0.08434 0.15169 0.0
H1081 H 0.5302 0.13002 0.05686 0.0
H1082 H 0.46864 0.07705 0.15059 0.0
H1083 H 0.47724 0.09639 0.18665 0.0
H1084 H 0.49359 0.07205 0.17783 0.0
H1085 H 0.47272 0.13346 0.03862 0.0
H1086 H 0.49873 0.14743 0.03176 0.0
H1087 H 0.48068 0.15503 0.07101 0.0
C1088 C 0.15989 0.72903 0.15947 0.0
C1089 C 0.14665 0.71676 0.13409 0.0
C1090 C 0.15876 0.75224 0.16007 0.0
C1091 C 0.1434 0.76324 0.13587 0.0
C1092 C 0.12993 0.75082 0.11041 0.0
C1093 C 0.13202 0.72777 0.10934 0.0
C1094 C 0.17396 0.76498 0.18653 0.0
C1095 C 0.11285 0.7618 0.08498 0.0
C1096 C 0.12119 0.81992 0.16204 0.0
C1097 C 0.13067 0.83308 0.13316 0.0
C1098 C 0.12578 0.79722 0.16415 0.0
C1099 C 0.14081 0.78767 0.13757 0.0
C1100 C 0.15158 0.80125 0.11006 0.0
C1101 C 0.14603 0.82373 0.10765 0.0
C1102 C 0.11339 0.78324 0.19309 0.0
C1103 C 0.16829 0.79187 0.08214 0.0
H1104 H 0.17129 0.72049 0.17847 0.0
H1105 H 0.1216 0.71826 0.09001 0.0
H1106 H 0.18322 0.77757 0.16974 0.0
H1107 H 0.16416 0.77392 0.20864 0.0
H1108 H 0.18598 0.75407 0.20152 0.0
H1109 H 0.10322 0.74968 0.06773 0.0
H1110 H 0.10121 0.77152 0.10303 0.0
H1111 H 0.12098 0.77348 0.06481 0.0
H1112 H 0.10914 0.82711 0.18153 0.0
H1113 H 0.15347 0.83396 0.08545 0.0
H1114 H 0.12503 0.77305 0.21023 0.0
H1115 H 0.10222 0.77173 0.17752 0.0
H1116 H 0.10333 0.79338 0.21327 0.0
H1117 H 0.18027 0.78116 0.09761 0.0
H1118 H 0.17753 0.80504 0.06669 0.0
H1119 H 0.15977 0.78146 0.06036 0.0
C1120 C 0.51896 0.91058 0.36276 0.0
C1121 C 0.53043 0.90014 0.39284 0.0
C1122 C 0.49586 0.90898 0.36002 0.0
C1123 C 0.48414 0.89598 0.3872 0.0
C1124 C 0.4956 0.88605 0.41837 0.0
C1125 C 0.51857 0.88855 0.42113 0.0
C1126 C 0.48413 0.9204 0.3271 0.0
C1127 C 0.48385 0.87152 0.44732 0.0
C1128 C 0.42134 0.89603 0.39411 0.0
C1129 C 0.41596 0.87812 0.37021 0.0
C1130 C 0.44346 0.90262 0.39893 0.0
C1131 C 0.4605 0.89048 0.38052 0.0
C1132 C 0.45506 0.87231 0.35657 0.0
C1133 C 0.43286 0.8666 0.35124 0.0
C1134 C 0.44862 0.9225 0.42366 0.0
C1135 C 0.47271 0.85851 0.3373 0.0
H1136 H 0.52808 0.91974 0.34106 0.0
H1137 H 0.5274 0.88033 0.4443 0.0
H1138 H 0.47862 0.90795 0.30561 0.0
H1139 H 0.46918 0.92909 0.33777 0.0
H1140 H 0.49496 0.93251 0.3122 0.0
H1141 H 0.49485 0.86635 0.4714 0.0
H1142 H 0.46936 0.88021 0.45965 0.0
H1143 H 0.47763 0.85648 0.43255 0.0
H1144 H 0.40825 0.90504 0.40855 0.0
H1145 H 0.42874 0.85261 0.33302 0.0
H1146 H 0.45884 0.93443 0.4071 0.0
H1147 H 0.4584 0.91741 0.44927 0.0
H1148 H 0.43344 0.93103 0.4338 0.0
H1149 H 0.48278 0.86895 0.3177 0.0
H1150 H 0.46569 0.84464 0.32024 0.0
H1151 H 0.48403 0.8516 0.35947 0.0
C1152 C 0.38619 0.18459 0.60469 0.0
C1153 C 0.37621 0.16825 0.6275 0.0
C1154 C 0.38161 0.20701 0.61055 0.0
C1155 C 0.36615 0.21329 0.63923 0.0
C1156 C 0.35551 0.19685 0.66167 0.0
C1157 C 0.36095 0.17448 0.65597 0.0
C1158 C 0.39377 0.224 0.58663 0.0
C1159 C 0.33847 0.20291 0.69169 0.0
C1160 C 0.37347 0.27198 0.67508 0.0
C1161 C 0.35957 0.28367 0.64993 0.0
C1162 C 0.37504 0.24889 0.67316 0.0
C1163 C 0.36192 0.23717 0.64616 0.0
C1164 C 0.34672 0.24879 0.62257 0.0
C1165 C 0.34598 0.27196 0.62429 0.0
C1166 C 0.39187 0.23722 0.69813 0.0
C1167 C 0.33198 0.23684 0.59425 0.0
H1168 H 0.39817 0.17988 0.5829 0.0
H1169 H 0.35313 0.16186 0.67348 0.0
H1170 H 0.38183 0.23412 0.56996 0.0
H1171 H 0.40302 0.23538 0.60589 0.0
H1172 H 0.40559 0.21636 0.56604 0.0
H1173 H 0.33067 0.18812 0.70493 0.0
H1174 H 0.34624 0.21286 0.71493 0.0
H1175 H 0.32537 0.21327 0.67843 0.0
H1176 H 0.38409 0.28098 0.69483 0.0
H1177 H 0.33503 0.28094 0.60509 0.0
H1178 H 0.40518 0.23042 0.67955 0.0
H1179 H 0.38417 0.22312 0.71352 0.0
H1180 H 0.39945 0.24844 0.71981 0.0
H1181 H 0.34201 0.23061 0.56973 0.0
H1182 H 0.31884 0.24776 0.58252 0.0
H1183 H 0.32411 0.22234 0.60824 0.0
C1184 C 0.07972 0.1037 0.86815 0.0
C1185 C 0.08513 0.12255 0.84661 0.0
C1186 C 0.05759 0.09716 0.87271 0.0
C1187 C 0.04054 0.11028 0.85657 0.0
C1188 C 0.04599 0.12923 0.83456 0.0
C1189 C 0.06824 0.13491 0.82931 0.0
C1190 C 0.05245 0.07645 0.89526 0.0
C1191 C 0.02832 0.14407 0.81791 0.0
C1192 C 0.98125 0.09066 0.84435 0.0
C1193 C 0.97129 0.0994 0.87757 0.0
C1194 C 0.00407 0.09306 0.83803 0.0
C1195 C 0.01695 0.10521 0.86484 0.0
C1196 C 0.00695 0.11384 0.89861 0.0
C1197 C 0.98432 0.1105 0.90486 0.0
C1198 C 0.0143 0.08298 0.80237 0.0
C1199 C 0.01991 0.12748 0.92733 0.0
H1200 H 0.0928 0.09403 0.88126 0.0
H1201 H 0.0724 0.14959 0.81289 0.0
H1202 H 0.04399 0.08083 0.92265 0.0
H1203 H 0.04104 0.06573 0.87854 0.0
H1204 H 0.06757 0.06688 0.90235 0.0
H1205 H 0.03535 0.15804 0.80112 0.0
H1206 H 0.01721 0.13447 0.79872 0.0
H1207 H 0.01803 0.15089 0.84164 0.0
H1208 H 0.9712 0.08195 0.82335 0.0
H1209 H 0.97661 0.11747 0.93039 0.0
H1210 H 0.02919 0.07328 0.8103 0.0
H1211 H 0.0197 0.09624 0.78237 0.0
H1212 H 0.0026 0.07203 0.78674 0.0
H1213 H 0.03424 0.11795 0.93829 0.0
H1214 H 0.0097 0.13275 0.95239 0.0
H1215 H 0.02651 0.14245 0.91285 0.0
C1216 C 0.83024 0.72212 0.67054 0.0
C1217 C 0.84493 0.70957 0.6482 0.0
C1218 C 0.83098 0.74532 0.66987 0.0
C1219 C 0.84738 0.75608 0.64757 0.0
C1220 C 0.86208 0.74342 0.62465 0.0
C1221 C 0.8604 0.72033 0.62472 0.0
C1222 C 0.81449 0.75829 0.69346 0.0
C1223 C 0.88019 0.7542 0.60126 0.0
C1224 C 0.84717 0.81638 0.61816 0.0
C1225 C 0.86165 0.82552 0.64543 0.0
C1226 C 0.84092 0.79408 0.6203 0.0
C1227 C 0.85012 0.78048 0.64945 0.0
C1228 C 0.86401 0.7899 0.67802 0.0
C1229 C 0.8693 0.81243 0.67603 0.0
C1230 C 0.82538 0.78486 0.59022 0.0
C1231 C 0.87466 0.77587 0.70896 0.0
H1232 H 0.81819 0.71377 0.68853 0.0
H1233 H 0.87191 0.71063 0.60774 0.0
H1234 H 0.82305 0.76678 0.7176 0.0
H1235 H 0.80665 0.77124 0.67535 0.0
H1236 H 0.80136 0.74757 0.70575 0.0
H1237 H 0.89037 0.74195 0.58529 0.0
H1238 H 0.873 0.76593 0.58011 0.0
H1239 H 0.89119 0.76382 0.62066 0.0
H1240 H 0.84116 0.82656 0.5946 0.0
H1241 H 0.88069 0.81944 0.69689 0.0
H1242 H 0.81275 0.77413 0.60394 0.0
H1243 H 0.83477 0.77454 0.56944 0.0
H1244 H 0.81687 0.79815 0.5738 0.0
H1245 H 0.86205 0.76596 0.72438 0.0
H1246 H 0.88383 0.78596 0.73048 0.0
H1247 H 0.88638 0.76412 0.69532 0.0
C1248 C 0.92419 0.10505 0.3546 0.0
C1249 C 0.91569 0.12119 0.37953 0.0
C1250 C 0.94653 0.09899 0.35613 0.0
C1251 C 0.96081 0.10998 0.38221 0.0
C1252 C 0.95204 0.12551 0.40878 0.0
C1253 C 0.92944 0.13068 0.4075 0.0
C1254 C 0.95507 0.08178 0.3283 0.0
C1255 C 0.96679 0.13796 0.43645 0.0
C1256 C 0.01989 0.09106 0.39969 0.0
C1257 C 0.03154 0.10439 0.37352 0.0
C1258 C 0.99673 0.09208 0.40198 0.0
C1259 C 0.98513 0.1073 0.37847 0.0
C1260 C 0.99684 0.1206 0.35172 0.0
C1261 C 0.01986 0.11872 0.34916 0.0
C1262 C 0.98473 0.07711 0.42984 0.0
C1263 C 0.98514 0.13737 0.32667 0.0
H1264 H 0.91346 0.09761 0.33311 0.0
H1265 H 0.92287 0.14332 0.42653 0.0
H1266 H 0.96475 0.08993 0.30512 0.0
H1267 H 0.96625 0.07006 0.34332 0.0
H1268 H 0.94143 0.0723 0.3146 0.0
H1269 H 0.95719 0.14802 0.45742 0.0
H1270 H 0.9775 0.12638 0.45273 0.0
H1271 H 0.97779 0.14915 0.41985 0.0
H1272 H 0.0289 0.07989 0.41845 0.0
H1273 H 0.02883 0.12921 0.32919 0.0
H1274 H 0.97136 0.06807 0.41461 0.0
H1275 H 0.97685 0.0871 0.45291 0.0
H1276 H 0.99597 0.06491 0.4436 0.0
H1277 H 0.97278 0.12904 0.30804 0.0
H1278 H 0.99673 0.14669 0.30785 0.0
H1279 H 0.97609 0.14933 0.34515 0.0
C1280 C 0.63392 0.27216 0.09892 0.0
C1281 C 0.64931 0.2832 0.1222 0.0
C1282 C 0.63161 0.24915 0.10079 0.0
C1283 C 0.64549 0.23681 0.1257 0.0
C1284 C 0.66177 0.24776 0.14797 0.0
C1285 C 0.66325 0.27091 0.14643 0.0
C1286 C 0.61373 0.23815 0.07713 0.0
C1287 C 0.67735 0.23508 0.17384 0.0
C1288 C 0.62171 0.18149 0.15586 0.0
C1289 C 0.62995 0.16768 0.12676 0.0
C1290 C 0.62743 0.20395 0.157 0.0
C1291 C 0.64226 0.21254 0.12906 0.0
C1292 C 0.65198 0.19819 0.1016 0.0
C1293 C 0.64539 0.17599 0.10033 0.0
C1294 C 0.61632 0.21879 0.18622 0.0
C1295 C 0.66843 0.20653 0.07221 0.0
H1296 H 0.62296 0.28161 0.08045 0.0
H1297 H 0.67524 0.27942 0.16435 0.0
H1298 H 0.62109 0.22571 0.05744 0.0
H1299 H 0.60211 0.22931 0.09653 0.0
H1300 H 0.60418 0.25017 0.05951 0.0
H1301 H 0.69035 0.24583 0.18647 0.0
H1302 H 0.66797 0.22731 0.19778 0.0
H1303 H 0.68541 0.22158 0.15735 0.0
H1304 H 0.60962 0.17509 0.1761 0.0
H1305 H 0.65189 0.16524 0.07798 0.0
H1306 H 0.60498 0.2303 0.17103 0.0
H1307 H 0.62872 0.22897 0.20167 0.0
H1308 H 0.60664 0.20929 0.20785 0.0
H1309 H 0.65976 0.21668 0.05023 0.0
H1310 H 0.67701 0.19278 0.05713 0.0
H1311 H 0.68097 0.21722 0.08627 0.0
C1312 C 0.56732 0.87004 0.91007 0.0
C1313 C 0.58053 0.87856 0.88036 0.0
C1314 C 0.54482 0.87552 0.91252 0.0
C1315 C 0.53557 0.89039 0.88533 0.0
C1316 C 0.54927 0.90023 0.85698 0.0
C1317 C 0.57151 0.89388 0.85439 0.0
C1318 C 0.53067 0.86425 0.94258 0.0
C1319 C 0.54022 0.91672 0.82831 0.0
C1320 C 0.47501 0.88304 0.86015 0.0
C1321 C 0.46485 0.89846 0.88456 0.0
C1322 C 0.49801 0.88034 0.86009 0.0
C1323 C 0.51124 0.8939 0.88414 0.0
C1324 C 0.50114 0.91019 0.90761 0.0
C1325 C 0.47799 0.91202 0.90806 0.0
C1326 C 0.50807 0.86242 0.83529 0.0
C1327 C 0.51475 0.92546 0.93257 0.0
H1328 H 0.57425 0.85804 0.92993 0.0
H1329 H 0.58178 0.90058 0.83155 0.0
H1330 H 0.52111 0.87661 0.95929 0.0
H1331 H 0.51859 0.85325 0.92802 0.0
H1332 H 0.54062 0.8542 0.96306 0.0
H1333 H 0.55357 0.92516 0.81194 0.0
H1334 H 0.5293 0.90816 0.80737 0.0
H1335 H 0.53011 0.92938 0.84332 0.0
H1336 H 0.46488 0.87237 0.84226 0.0
H1337 H 0.47016 0.92403 0.92684 0.0
H1338 H 0.5173 0.85061 0.85377 0.0
H1339 H 0.52004 0.86969 0.81465 0.0
H1340 H 0.49544 0.85311 0.81863 0.0
H1341 H 0.52322 0.91585 0.95548 0.0
H1342 H 0.50452 0.93844 0.94656 0.0
H1343 H 0.52775 0.93357 0.91496 0.0
C1344 C 0.84 0.26471 0.8902 0.0
C1345 C 0.84895 0.2763 0.85882 0.0
C1346 C 0.8423 0.24167 0.89299 0.0
C1347 C 0.85446 0.23016 0.86439 0.0
C1348 C 0.86261 0.24167 0.83175 0.0
C1349 C 0.85947 0.26456 0.8291 0.0
C1350 C 0.83275 0.22986 0.92759 0.0
C1351 C 0.87614 0.23015 0.80109 0.0
C1352 C 0.88778 0.18077 0.8977 0.0
C1353 C 0.87625 0.16312 0.881 0.0
C1354 C 0.88076 0.2026 0.89255 0.0
C1355 C 0.86131 0.20688 0.87109 0.0
C1356 C 0.84919 0.18908 0.85503 0.0
C1357 C 0.85703 0.16735 0.85963 0.0
C1358 C 0.89451 0.22112 0.9093 0.0
C1359 C 0.82802 0.193 0.83301 0.0
H1360 H 0.83165 0.27371 0.91303 0.0
H1361 H 0.86651 0.27345 0.80485 0.0
H1362 H 0.82439 0.21438 0.91854 0.0
H1363 H 0.84625 0.22526 0.94773 0.0
H1364 H 0.82073 0.24033 0.94351 0.0
H1365 H 0.87954 0.241 0.77588 0.0
H1366 H 0.89217 0.22487 0.81369 0.0
H1367 H 0.86759 0.21507 0.79075 0.0
H1368 H 0.90276 0.17756 0.91397 0.0
H1369 H 0.84801 0.15368 0.84696 0.0
H1370 H 0.8845 0.23094 0.92993 0.0
H1371 H 0.89988 0.23244 0.88589 0.0
H1372 H 0.90942 0.21496 0.92464 0.0
H1373 H 0.81644 0.20293 0.85079 0.0
H1374 H 0.81977 0.17731 0.82469 0.0
H1375 H 0.83149 0.2026 0.8064 0.0
C1376 C 0.56358 0.13666 0.65116 0.0
C1377 C 0.58053 0.12445 0.63373 0.0
C1378 C 0.54143 0.13035 0.64712 0.0
C1379 C 0.53615 0.11096 0.62614 0.0
C1380 C 0.55328 0.09809 0.6097 0.0
C1381 C 0.57529 0.10521 0.61314 0.0
C1382 C 0.52363 0.14486 0.66424 0.0
C1383 C 0.54833 0.07697 0.58817 0.0
C1384 C 0.4778 0.09062 0.64463 0.0
C1385 C 0.46655 0.09929 0.61261 0.0
C1386 C 0.50079 0.09303 0.64823 0.0
C1387 C 0.5126 0.10503 0.61979 0.0
C1388 C 0.50139 0.11317 0.5868 0.0
C1389 C 0.47855 0.10991 0.58335 0.0
C1390 C 0.51229 0.08349 0.68317 0.0
C1391 C 0.51325 0.12652 0.5563 0.0
H1392 H 0.56757 0.15164 0.66688 0.0
H1393 H 0.58842 0.09564 0.59994 0.0
H1394 H 0.51251 0.15085 0.64097 0.0
H1395 H 0.51339 0.13524 0.6848 0.0
H1396 H 0.53052 0.1594 0.67971 0.0
H1397 H 0.56359 0.06788 0.58012 0.0
H1398 H 0.53781 0.06602 0.60614 0.0
H1399 H 0.53896 0.08073 0.56141 0.0
H1400 H 0.46857 0.08226 0.66715 0.0
H1401 H 0.4699 0.11679 0.55868 0.0
H1402 H 0.5175 0.09705 0.70272 0.0
H1403 H 0.52741 0.07443 0.67432 0.0
H1404 H 0.50142 0.07209 0.69964 0.0
H1405 H 0.51939 0.14214 0.56923 0.0
H1406 H 0.50238 0.13066 0.53144 0.0
H1407 H 0.52782 0.11737 0.54533 0.0
C1408 C 0.66032 0.73074 0.37653 0.0
C1409 C 0.64917 0.71795 0.34895 0.0
C1410 C 0.65747 0.75374 0.37799 0.0
C1411 C 0.64257 0.76404 0.35207 0.0
C1412 C 0.63203 0.75131 0.32307 0.0
C1413 C 0.63572 0.72844 0.32153 0.0
C1414 C 0.66953 0.76683 0.40857 0.0
C1415 C 0.61559 0.76153 0.29552 0.0
C1416 C 0.6123 0.814 0.39136 0.0
C1417 C 0.62227 0.83138 0.3711 0.0
C1418 C 0.61861 0.79205 0.38495 0.0
C1419 C 0.63582 0.78738 0.35847 0.0
C1420 C 0.64622 0.80489 0.33829 0.0
C1421 C 0.63905 0.82673 0.34438 0.0
C1422 C 0.60666 0.77385 0.40631 0.0
C1423 C 0.66505 0.80057 0.31072 0.0
H1424 H 0.6709 0.72268 0.39754 0.0
H1425 H 0.62696 0.71859 0.30029 0.0
H1426 H 0.67671 0.78208 0.39595 0.0
H1427 H 0.65774 0.77195 0.43143 0.0
H1428 H 0.68297 0.75709 0.42229 0.0
H1429 H 0.6105 0.74987 0.27235 0.0
H1430 H 0.60065 0.76665 0.3118 0.0
H1431 H 0.62258 0.77656 0.2819 0.0
H1432 H 0.59917 0.81755 0.41175 0.0
H1433 H 0.64686 0.8402 0.3289 0.0
H1434 H 0.61841 0.76473 0.42504 0.0
H1435 H 0.59968 0.76182 0.38539 0.0
H1436 H 0.59302 0.78024 0.42466 0.0
H1437 H 0.67861 0.7919 0.32607 0.0
H1438 H 0.67169 0.81604 0.29794 0.0
H1439 H 0.6595 0.78959 0.28696 0.0
C1440 C 0.93012 0.90727 0.10997 0.0
C1441 C 0.9208 0.88906 0.09103 0.0
C1442 C 0.95273 0.91196 0.10656 0.0
C1443 C 0.9664 0.89757 0.0849 0.0
C1444 C 0.95675 0.88011 0.06346 0.0
C1445 C 0.93393 0.87626 0.06635 0.0
C1446 C 0.96222 0.93124 0.12873 0.0
C1447 C 0.97075 0.86409 0.04067 0.0
C1448 C 0.02731 0.91033 0.06853 0.0
C1449 C 0.03703 0.89952 0.10011 0.0
C1450 C 0.00425 0.9103 0.06346 0.0
C1451 C 0.9908 0.89856 0.08989 0.0
C1452 C 0.00063 0.88747 0.1216 0.0
C1453 C 0.02357 0.88839 0.12664 0.0
C1454 C 0.99429 0.9229 0.03009 0.0
C1455 C 0.98695 0.87432 0.15 0.0
H1456 H 0.91991 0.91722 0.12897 0.0
H1457 H 0.92675 0.86203 0.05203 0.0
H1458 H 0.97066 0.92509 0.15509 0.0
H1459 H 0.97466 0.94013 0.11107 0.0
H1460 H 0.94918 0.94309 0.13774 0.0
H1461 H 0.96061 0.85345 0.02143 0.0
H1462 H 0.98311 0.87298 0.02288 0.0
H1463 H 0.97995 0.8533 0.06103 0.0
H1464 H 0.03772 0.91904 0.04808 0.0
H1465 H 0.03106 0.87982 0.15085 0.0
H1466 H 0.98211 0.93508 0.04107 0.0
H1467 H 0.98526 0.91144 0.0107 0.0
H1468 H 0.00698 0.93179 0.01286 0.0
H1469 H 0.97518 0.88537 0.16515 0.0
H1470 H 0.99727 0.86585 0.17205 0.0
H1471 H 0.97708 0.86169 0.13441 0.0
C1472 C 0.65584 0.7694 0.88131 0.0
C1473 C 0.64375 0.78186 0.85452 0.0
C1474 C 0.6538 0.74631 0.88272 0.0
C1475 C 0.63876 0.73556 0.85761 0.0
C1476 C 0.62706 0.74802 0.82964 0.0
C1477 C 0.62995 0.77101 0.82807 0.0
C1478 C 0.66705 0.73353 0.91218 0.0
C1479 C 0.61043 0.7373 0.80304 0.0
C1480 C 0.6383 0.6729 0.84725 0.0
C1481 C 0.62232 0.667 0.8747 0.0
C1482 C 0.64424 0.69515 0.84184 0.0
C1483 C 0.6334 0.71181 0.86349 0.0
C1484 C 0.61704 0.70588 0.89081 0.0
C1485 C 0.61196 0.68354 0.89648 0.0
C1486 C 0.66221 0.70084 0.81329 0.0
C1487 C 0.60465 0.72313 0.91376 0.0
H1488 H 0.6667 0.77774 0.90153 0.0
H1489 H 0.62048 0.78062 0.80746 0.0
H1490 H 0.65594 0.72745 0.93536 0.0
H1491 H 0.67484 0.71887 0.89856 0.0
H1492 H 0.68016 0.74381 0.92567 0.0
H1493 H 0.60398 0.74899 0.78099 0.0
H1494 H 0.61789 0.72295 0.788 0.0
H1495 H 0.59632 0.73102 0.82031 0.0
H1496 H 0.64641 0.66009 0.83056 0.0
H1497 H 0.59943 0.67904 0.91745 0.0
H1498 H 0.67552 0.71023 0.82803 0.0
H1499 H 0.65551 0.71161 0.79016 0.0
H1500 H 0.66954 0.68591 0.7997 0.0
H1501 H 0.61632 0.73269 0.93196 0.0
H1502 H 0.59185 0.71577 0.93283 0.0
H1503 H 0.59651 0.73498 0.89384 0.0
C1504 C 0.47537 0.4006 0.15188 0.0
C1505 C 0.46221 0.38832 0.12634 0.0
C1506 C 0.4985 0.39887 0.15106 0.0
C1507 C 0.50865 0.38407 0.12481 0.0
C1508 C 0.49544 0.37183 0.09866 0.0
C1509 C 0.47239 0.37432 0.09941 0.0
C1510 C 0.51206 0.4126 0.17875 0.0
C1511 C 0.50558 0.35548 0.07084 0.0
C1512 C 0.57012 0.38736 0.10226 0.0
C1513 C 0.57873 0.37142 0.12752 0.0
C1514 C 0.54738 0.39214 0.10176 0.0
C1515 C 0.53293 0.38026 0.12636 0.0
C1516 C 0.54158 0.3642 0.15196 0.0
C1517 C 0.56438 0.36018 0.15255 0.0
C1518 C 0.53881 0.40976 0.07478 0.0
C1519 C 0.5267 0.35085 0.17808 0.0
H1520 H 0.46758 0.41162 0.17247 0.0
H1521 H 0.46228 0.36472 0.07974 0.0
H1522 H 0.5204 0.40167 0.19994 0.0
H1523 H 0.52515 0.42165 0.16282 0.0
H1524 H 0.50181 0.42473 0.19486 0.0
H1525 H 0.49308 0.34774 0.05163 0.0
H1526 H 0.51818 0.36375 0.05262 0.0
H1527 H 0.51412 0.34225 0.08726 0.0
H1528 H 0.58116 0.39618 0.08301 0.0
H1529 H 0.57091 0.3477 0.17192 0.0
H1530 H 0.52912 0.42216 0.09124 0.0
H1531 H 0.52753 0.40228 0.05316 0.0
H1532 H 0.55234 0.41838 0.05918 0.0
H1533 H 0.51726 0.36198 0.19747 0.0
H1534 H 0.53605 0.3389 0.19615 0.0
H1535 H 0.5145 0.34157 0.16045 0.0
C1536 C 0.84151 0.23052 0.37817 0.0
C1537 C 0.85333 0.21801 0.35106 0.0
C1538 C 0.84411 0.25354 0.38032 0.0
C1539 C 0.85943 0.26416 0.35559 0.0
C1540 C 0.87083 0.25169 0.32724 0.0
C1541 C 0.8674 0.22879 0.32497 0.0
C1542 C 0.83117 0.26633 0.41017 0.0
C1543 C 0.88768 0.26229 0.30094 0.0
C1544 C 0.8607 0.32687 0.34661 0.0
C1545 C 0.87685 0.33243 0.37402 0.0
C1546 C 0.85448 0.30473 0.34074 0.0
C1547 C 0.86517 0.2878 0.36195 0.0
C1548 C 0.88164 0.29337 0.38934 0.0
C1549 C 0.88704 0.31562 0.39542 0.0
C1550 C 0.83642 0.29947 0.31209 0.0
C1551 C 0.89382 0.2758 0.41191 0.0
H1552 H 0.83047 0.22225 0.39817 0.0
H1553 H 0.87669 0.21915 0.30416 0.0
H1554 H 0.84244 0.27205 0.4334 0.0
H1555 H 0.82361 0.28122 0.39693 0.0
H1556 H 0.81791 0.2562 0.42352 0.0
H1557 H 0.89391 0.25065 0.27862 0.0
H1558 H 0.8805 0.2769 0.28624 0.0
H1559 H 0.9019 0.26817 0.31839 0.0
H1560 H 0.8527 0.33986 0.33019 0.0
H1561 H 0.89968 0.31982 0.41638 0.0
H1562 H 0.82302 0.29012 0.32664 0.0
H1563 H 0.84298 0.28879 0.28871 0.0
H1564 H 0.82925 0.31458 0.29887 0.0
H1565 H 0.88202 0.26625 0.42985 0.0
H1566 H 0.90669 0.28287 0.43118 0.0
H1567 H 0.90182 0.26401 0.39172 0.0
C1568 C 0.93154 0.63216 0.66235 0.0
C1569 C 0.9149 0.61954 0.64484 0.0
C1570 C 0.95391 0.62735 0.65616 0.0
C1571 C 0.9598 0.60907 0.6328 0.0
C1572 C 0.94307 0.59572 0.61626 0.0
C1573 C 0.92077 0.60134 0.62196 0.0
C1574 C 0.97123 0.64234 0.67354 0.0
C1575 C 0.94872 0.57571 0.59217 0.0
C1576 C 0.01635 0.61242 0.58596 0.0
C1577 C 0.02955 0.60133 0.61303 0.0
C1578 C 0.99349 0.61452 0.59149 0.0
C1579 C 0.98351 0.60474 0.62432 0.0
C1580 C 0.99658 0.59242 0.65057 0.0
C1581 C 0.01953 0.59117 0.64494 0.0
C1582 C 0.98025 0.62826 0.56334 0.0
C1583 C 0.98644 0.58119 0.68525 0.0
H1584 H 0.92708 0.64636 0.6798 0.0
H1585 H 0.90792 0.59146 0.60862 0.0
H1586 H 0.98256 0.63269 0.69224 0.0
H1587 H 0.98136 0.6498 0.65019 0.0
H1588 H 0.96388 0.65585 0.69105 0.0
H1589 H 0.93383 0.56599 0.58419 0.0
H1590 H 0.95718 0.58094 0.56524 0.0
H1591 H 0.9603 0.56483 0.60818 0.0
H1592 H 0.02404 0.62045 0.5614 0.0
H1593 H 0.02968 0.58243 0.66576 0.0
H1594 H 0.97353 0.64299 0.57839 0.0
H1595 H 0.96598 0.61868 0.55223 0.0
H1596 H 0.99031 0.63391 0.53837 0.0
H1597 H 0.98081 0.59381 0.70631 0.0
H1598 H 0.99832 0.57002 0.70002 0.0
H1599 H 0.97173 0.57147 0.67646 0.0
C1600 C 0.66122 0.23039 0.65444 0.0
C1601 C 0.64787 0.2172 0.63064 0.0
C1602 C 0.66012 0.25356 0.65255 0.0
C1603 C 0.64478 0.26369 0.62721 0.0
C1604 C 0.63137 0.25041 0.603 0.0
C1605 C 0.63333 0.22734 0.60459 0.0
C1606 C 0.6752 0.26718 0.67785 0.0
C1607 C 0.61444 0.26052 0.57622 0.0
C1608 C 0.6226 0.32119 0.64764 0.0
C1609 C 0.63246 0.33345 0.61794 0.0
C1610 C 0.62702 0.29855 0.65185 0.0
C1611 C 0.64218 0.28814 0.62648 0.0
C1612 C 0.6533 0.30083 0.59816 0.0
C1613 C 0.64801 0.32327 0.59378 0.0
C1614 C 0.61441 0.2855 0.68181 0.0
C1615 C 0.6701 0.29053 0.57141 0.0
H1616 H 0.67256 0.22257 0.67447 0.0
H1617 H 0.62282 0.2172 0.58644 0.0
H1618 H 0.68436 0.27936 0.66002 0.0
H1619 H 0.66529 0.27664 0.69914 0.0
H1620 H 0.6873 0.25682 0.69381 0.0
H1621 H 0.60507 0.24786 0.55973 0.0
H1622 H 0.60255 0.27059 0.59315 0.0
H1623 H 0.62264 0.27175 0.55536 0.0
H1624 H 0.61042 0.329 0.66612 0.0
H1625 H 0.65577 0.33279 0.57095 0.0
H1626 H 0.62593 0.27585 0.70012 0.0
H1627 H 0.60333 0.27354 0.66713 0.0
H1628 H 0.60424 0.29627 0.70079 0.0
H1629 H 0.68201 0.28035 0.58807 0.0
H1630 H 0.6794 0.30315 0.55472 0.0
H1631 H 0.66163 0.27941 0.55065 0.0
C1632 C 0.02137 0.40103 0.87381 0.0
C1633 C 0.03486 0.3871 0.89599 0.0
C1634 C 0.9983 0.39863 0.87396 0.0
C1635 C 0.98855 0.38151 0.89601 0.0
C1636 C 0.00203 0.36798 0.91969 0.0
C1637 C 0.02503 0.37112 0.91974 0.0
C1638 C 0.98448 0.41376 0.84907 0.0
C1639 C 0.99235 0.34926 0.94301 0.0
C1640 C 0.92608 0.3793 0.90982 0.0
C1641 C 0.91978 0.36544 0.87924 0.0
C1642 C 0.9484 0.38498 0.91549 0.0
C1643 C 0.96475 0.37608 0.89064 0.0
C1644 C 0.95844 0.36186 0.86008 0.0
C1645 C 0.93606 0.35695 0.85451 0.0
C1646 C 0.95448 0.40062 0.94777 0.0
C1647 C 0.97535 0.35165 0.83338 0.0
H1648 H 0.02888 0.41358 0.85574 0.0
H1649 H 0.03539 0.36026 0.93684 0.0
H1650 H 0.97794 0.40442 0.82396 0.0
H1651 H 0.9701 0.42008 0.86562 0.0
H1652 H 0.99414 0.42804 0.83804 0.0
H1653 H 0.0047 0.34162 0.96265 0.0
H1654 H 0.97817 0.35513 0.9605 0.0
H1655 H 0.98603 0.33633 0.92312 0.0
H1656 H 0.91354 0.38596 0.92891 0.0
H1657 H 0.93134 0.34603 0.83107 0.0
H1658 H 0.96318 0.41523 0.93576 0.0
H1659 H 0.96602 0.39243 0.96813 0.0
H1660 H 0.93979 0.40638 0.96416 0.0
H1661 H 0.98433 0.36479 0.81751 0.0
H1662 H 0.96776 0.34028 0.81193 0.0
H1663 H 0.98774 0.34229 0.85044 0.0
C1664 C 0.84877 0.7798 0.12207 0.0
C1665 C 0.86265 0.79309 0.14476 0.0
C1666 C 0.85034 0.75668 0.12323 0.0
C1667 C 0.8665 0.74662 0.147 0.0
C1668 C 0.88006 0.75992 0.17094 0.0
C1669 C 0.87781 0.78301 0.16982 0.0
C1670 C 0.83525 0.74306 0.09789 0.0
C1671 C 0.89773 0.74985 0.19621 0.0
C1672 C 0.86458 0.68473 0.16662 0.0
C1673 C 0.87911 0.67666 0.13835 0.0
C1674 C 0.86001 0.70746 0.16952 0.0
C1675 C 0.87059 0.72243 0.14409 0.0
C1676 C 0.88528 0.71435 0.11557 0.0
C1677 C 0.88918 0.69158 0.11282 0.0
C1678 C 0.84389 0.71545 0.19974 0.0
C1679 C 0.89717 0.72978 0.08826 0.0
H1680 H 0.83685 0.78749 0.10294 0.0
H1681 H 0.88862 0.7932 0.18733 0.0
H1682 H 0.845 0.73521 0.07446 0.0
H1683 H 0.82751 0.7296 0.11493 0.0
H1684 H 0.82199 0.75319 0.08451 0.0
H1685 H 0.90582 0.76229 0.21512 0.0
H1686 H 0.89063 0.73665 0.21464 0.0
H1687 H 0.91056 0.74208 0.17774 0.0
H1688 H 0.85668 0.67328 0.18634 0.0
H1689 H 0.90058 0.68552 0.0911 0.0
H1690 H 0.83036 0.7249 0.18576 0.0
H1691 H 0.85232 0.72683 0.22009 0.0
H1692 H 0.83656 0.70164 0.21653 0.0
H1693 H 0.88501 0.7392 0.07082 0.0
H1694 H 0.90841 0.72086 0.06823 0.0
H1695 H 0.907 0.74196 0.10497 0.0
C1696 C 0.57463 0.60882 0.34699 0.0
C1697 C 0.58379 0.62363 0.37372 0.0
C1698 C 0.55217 0.60313 0.34858 0.0
C1699 C 0.53845 0.61309 0.37676 0.0
C1700 C 0.54778 0.62756 0.40454 0.0
C1701 C 0.57045 0.63239 0.40303 0.0
C1702 C 0.54301 0.58705 0.31931 0.0
C1703 C 0.53363 0.63889 0.43452 0.0
C1704 C 0.47773 0.62099 0.35289 0.0
C1705 C 0.4677 0.60555 0.3774 0.0
C1706 C 0.50078 0.62344 0.35213 0.0
C1707 C 0.51412 0.60964 0.37559 0.0
C1708 C 0.50411 0.59325 0.39893 0.0
C1709 C 0.48097 0.59164 0.40004 0.0
C1710 C 0.51078 0.64143 0.32746 0.0
C1711 C 0.5178 0.57775 0.42332 0.0
H1712 H 0.58498 0.60193 0.32443 0.0
H1713 H 0.57748 0.64402 0.42347 0.0
H1714 H 0.53292 0.57423 0.33392 0.0
H1715 H 0.53201 0.5959 0.29885 0.0
H1716 H 0.55626 0.57879 0.30244 0.0
H1717 H 0.54355 0.64901 0.45493 0.0
H1718 H 0.52148 0.64981 0.41994 0.0
H1719 H 0.52413 0.62652 0.45133 0.0
H1720 H 0.46749 0.63191 0.33567 0.0
H1721 H 0.47324 0.5796 0.41888 0.0
H1722 H 0.52289 0.63427 0.30693 0.0
H1723 H 0.51985 0.6533 0.34609 0.0
H1724 H 0.49812 0.65065 0.3107 0.0
H1725 H 0.53081 0.56986 0.40542 0.0
H1726 H 0.50762 0.5646 0.43692 0.0
H1727 H 0.52625 0.58715 0.44653 0.0
C1728 C 0.34324 0.32605 0.13542 0.0
C1729 C 0.3603 0.33393 0.15907 0.0
C1730 C 0.33701 0.30373 0.13632 0.0
C1731 C 0.34874 0.28887 0.16035 0.0
C1732 C 0.365 0.29707 0.18613 0.0
C1733 C 0.37035 0.31964 0.18559 0.0
C1734 C 0.319 0.29582 0.1095 0.0
C1735 C 0.37824 0.28175 0.21162 0.0
C1736 C 0.33166 0.22889 0.17408 0.0
C1737 C 0.34451 0.21833 0.14584 0.0
C1738 C 0.33212 0.25199 0.17823 0.0
C1739 C 0.34637 0.26464 0.1545 0.0
C1740 C 0.35914 0.25402 0.12562 0.0
C1741 C 0.35778 0.23105 0.12125 0.0
C1742 C 0.31766 0.2628 0.20832 0.0
C1743 C 0.3749 0.26683 0.10021 0.0
H1744 H 0.33543 0.33716 0.11497 0.0
H1745 H 0.38373 0.3257 0.20356 0.0
H1746 H 0.3265 0.28723 0.0844 0.0
H1747 H 0.30804 0.28384 0.1244 0.0
H1748 H 0.30881 0.30972 0.09847 0.0
H1749 H 0.38852 0.29091 0.23287 0.0
H1750 H 0.36721 0.27031 0.22754 0.0
H1751 H 0.38931 0.27153 0.19333 0.0
H1752 H 0.3213 0.21907 0.193 0.0
H1753 H 0.3679 0.22291 0.09965 0.0
H1754 H 0.30812 0.27655 0.19521 0.0
H1755 H 0.32808 0.26999 0.2315 0.0
H1756 H 0.30593 0.25093 0.22167 0.0
H1757 H 0.36575 0.27947 0.08342 0.0
H1758 H 0.38392 0.25602 0.07961 0.0
H1759 H 0.38716 0.27565 0.1184 0.0
C1760 C 0.437 0.63422 0.85671 0.0
C1761 C 0.41954 0.62253 0.87366 0.0
C1762 C 0.45894 0.6276 0.8621 0.0
C1763 C 0.46353 0.60836 0.88394 0.0
C1764 C 0.44592 0.59616 0.90046 0.0
C1765 C 0.42407 0.60364 0.8957 0.0
C1766 C 0.47724 0.64148 0.84496 0.0
C1767 C 0.45016 0.57519 0.92285 0.0
C1768 C 0.52132 0.58722 0.86382 0.0
C1769 C 0.53309 0.59624 0.89494 0.0
C1770 C 0.49826 0.58947 0.86146 0.0
C1771 C 0.4869 0.60169 0.89019 0.0
C1772 C 0.49861 0.60998 0.92251 0.0
C1773 C 0.52153 0.60686 0.92477 0.0
C1774 C 0.48624 0.57976 0.82721 0.0
C1775 C 0.48728 0.62363 0.95322 0.0
H1776 H 0.43352 0.64894 0.83993 0.0
H1777 H 0.41053 0.59451 0.90853 0.0
H1778 H 0.48872 0.64692 0.8681 0.0
H1779 H 0.48695 0.63154 0.82407 0.0
H1780 H 0.47086 0.65635 0.82979 0.0
H1781 H 0.43461 0.56705 0.93221 0.0
H1782 H 0.45973 0.56343 0.90481 0.0
H1783 H 0.46026 0.57884 0.94883 0.0
H1784 H 0.5302 0.57882 0.84091 0.0
H1785 H 0.53057 0.61398 0.94879 0.0
H1786 H 0.48137 0.59317 0.8071 0.0
H1787 H 0.4709 0.57131 0.8367 0.0
H1788 H 0.49667 0.56778 0.8111 0.0
H1789 H 0.48188 0.63958 0.94053 0.0
H1790 H 0.49829 0.62715 0.97818 0.0
H1791 H 0.47229 0.61509 0.96398 0.0
C1792 C 0.11139 0.68765 0.60606 0.0
C1793 C 0.12148 0.67028 0.62621 0.0
C1794 C 0.11753 0.70962 0.61264 0.0
C1795 C 0.13462 0.71437 0.63932 0.0
C1796 C 0.14517 0.69689 0.65935 0.0
C1797 C 0.13823 0.675 0.65297 0.0
C1798 C 0.10549 0.72779 0.59131 0.0
C1799 C 0.16384 0.70131 0.68721 0.0
C1800 C 0.15818 0.77142 0.62195 0.0
C1801 C 0.14646 0.784 0.6491 0.0
C1802 C 0.15589 0.74836 0.62053 0.0
C1803 C 0.14103 0.73776 0.64613 0.0
C1804 C 0.13005 0.75026 0.67491 0.0
C1805 C 0.13312 0.77323 0.67635 0.0
C1806 C 0.16837 0.73553 0.59014 0.0
C1807 C 0.11372 0.73969 0.70223 0.0
H1808 H 0.09828 0.6841 0.58563 0.0
H1809 H 0.14614 0.66157 0.6684 0.0
H1810 H 0.09818 0.73959 0.61228 0.0
H1811 H 0.11725 0.73718 0.57303 0.0
H1812 H 0.09208 0.72132 0.57252 0.0
H1813 H 0.17072 0.68586 0.69968 0.0
H1814 H 0.1773 0.71035 0.67224 0.0
H1815 H 0.15802 0.71199 0.71118 0.0
H1816 H 0.16871 0.77967 0.60111 0.0
H1817 H 0.12396 0.78289 0.69731 0.0
H1818 H 0.15683 0.73034 0.56693 0.0
H1819 H 0.17566 0.72034 0.60277 0.0
H1820 H 0.18178 0.7455 0.57687 0.0
H1821 H 0.09886 0.73447 0.68579 0.0
H1822 H 0.10844 0.75117 0.72553 0.0
H1823 H 0.12088 0.72469 0.71567 0.0
C1824 C 0.06849 0.37825 0.43251 0.0
C1825 C 0.08235 0.38988 0.40731 0.0
C1826 C 0.04579 0.38294 0.43411 0.0
C1827 C 0.037 0.40006 0.41076 0.0
C1828 C 0.05139 0.41324 0.38823 0.0
C1829 C 0.07386 0.40773 0.38623 0.0
C1830 C 0.03098 0.36822 0.45798 0.0
C1831 C 0.04282 0.43214 0.36401 0.0
C1832 C 0.97907 0.39167 0.37161 0.0
C1833 C 0.9663 0.40375 0.39793 0.0
C1834 C 0.00209 0.39044 0.3755 0.0
C1835 C 0.01267 0.40214 0.40578 0.0
C1836 C 0.99995 0.41516 0.43147 0.0
C1837 C 0.97684 0.41553 0.42761 0.0
C1838 C 0.01499 0.37603 0.34788 0.0
C1839 C 0.01072 0.42843 0.46325 0.0
H1840 H 0.07501 0.36428 0.44847 0.0
H1841 H 0.08464 0.41677 0.36681 0.0
H1842 H 0.01934 0.37822 0.47547 0.0
H1843 H 0.02095 0.35769 0.43842 0.0
H1844 H 0.04054 0.35731 0.47767 0.0
H1845 H 0.05638 0.44308 0.35393 0.0
H1846 H 0.03415 0.42549 0.33825 0.0
H1847 H 0.03075 0.44216 0.3806 0.0
H1848 H 0.97096 0.38238 0.34886 0.0
H1849 H 0.967 0.42499 0.4479 0.0
H1850 H 0.02413 0.36319 0.36427 0.0
H1851 H 0.02738 0.38609 0.33215 0.0
H1852 H 0.00421 0.36772 0.32634 0.0
H1853 H 0.01848 0.41716 0.48456 0.0
H1854 H 0.99871 0.43915 0.47867 0.0
H1855 H 0.02404 0.43895 0.45114 0.0
C1856 C 0.35481 0.67715 0.36816 0.0
C1857 C 0.37454 0.67212 0.38748 0.0
C1858 C 0.34765 0.69913 0.36438 0.0
C1859 C 0.36095 0.71644 0.37913 0.0
C1860 C 0.38078 0.71138 0.39897 0.0
C1861 C 0.38715 0.68927 0.4034 0.0
C1862 C 0.32608 0.70386 0.34411 0.0
C1863 C 0.39573 0.72936 0.41427 0.0
C1864 C 0.35896 0.77324 0.33319 0.0
C1865 C 0.34889 0.7858 0.36233 0.0
C1866 C 0.3624 0.75049 0.33783 0.0
C1867 C 0.355 0.73993 0.37196 0.0
C1868 C 0.34361 0.75229 0.40047 0.0
C1869 C 0.34101 0.77519 0.39561 0.0
C1870 C 0.37509 0.73805 0.30716 0.0
C1871 C 0.33486 0.74146 0.43667 0.0
H1872 H 0.34493 0.66388 0.35612 0.0
H1873 H 0.4025 0.68544 0.41811 0.0
H1874 H 0.31565 0.71484 0.36218 0.0
H1875 H 0.32928 0.71263 0.31654 0.0
H1876 H 0.31669 0.68853 0.33766 0.0
H1877 H 0.4105 0.72263 0.42926 0.0
H1878 H 0.40135 0.74 0.39006 0.0
H1879 H 0.38657 0.74005 0.43479 0.0
H1880 H 0.36524 0.7814 0.30754 0.0
H1881 H 0.33306 0.78483 0.41806 0.0
H1882 H 0.36562 0.7234 0.29743 0.0
H1883 H 0.3909 0.73198 0.31947 0.0
H1884 H 0.37885 0.74848 0.28157 0.0
H1885 H 0.32549 0.72628 0.42927 0.0
H1886 H 0.32394 0.75269 0.45341 0.0
H1887 H 0.34884 0.73646 0.45545 0.0
C1888 C 0.97817 0.58928 0.11184 0.0
C1889 C 0.9663 0.60443 0.13435 0.0
C1890 C 0.00135 0.59007 0.11022 0.0
C1891 C 0.01273 0.60699 0.13032 0.0
C1892 C 0.00077 0.62214 0.15347 0.0
C1893 C 0.97772 0.62041 0.15574 0.0
C1894 C 0.01361 0.57311 0.0865 0.0
C1895 C 0.01219 0.6408 0.1745 0.0
C1896 C 0.07394 0.60716 0.15328 0.0
C1897 C 0.08218 0.62077 0.12387 0.0
C1898 C 0.05156 0.60114 0.15415 0.0
C1899 C 0.037 0.60974 0.12586 0.0
C1900 C 0.04544 0.6229 0.09538 0.0
C1901 C 0.06805 0.62793 0.09439 0.0
C1902 C 0.04335 0.58636 0.18622 0.0
C1903 C 0.03038 0.63293 0.0653 0.0
H1904 H 0.9693 0.57685 0.09543 0.0
H1905 H 0.96853 0.63229 0.17282 0.0
H1906 H 0.02119 0.58115 0.06094 0.0
H1907 H 0.02721 0.56576 0.10376 0.0
H1908 H 0.00259 0.55965 0.07628 0.0
H1909 H 0.00044 0.65126 0.19105 0.0
H1910 H 0.02468 0.63413 0.19484 0.0
H1911 H 0.02106 0.65141 0.15343 0.0
H1912 H 0.08496 0.6015 0.17595 0.0
H1913 H 0.07443 0.63863 0.07186 0.0
H1914 H 0.03237 0.57331 0.17444 0.0
H1915 H 0.03352 0.59621 0.20709 0.0
H1916 H 0.05715 0.57837 0.20214 0.0
H1917 H 0.02013 0.61997 0.05148 0.0
H1918 H 0.03969 0.64181 0.0424 0.0
H1919 H 0.01894 0.64478 0.07941 0.0
C1920 C 0.13884 0.22588 0.86755 0.0
C1921 C 0.15227 0.21502 0.8406 0.0
C1922 C 0.13642 0.2489 0.86678 0.0
C1923 C 0.1482 0.26145 0.83904 0.0
C1924 C 0.16247 0.25066 0.81269 0.0
C1925 C 0.16409 0.2275 0.8134 0.0
C1926 C 0.12073 0.25972 0.895 0.0
C1927 C 0.17581 0.26355 0.78353 0.0
C1928 C 0.12253 0.31735 0.81846 0.0
C1929 C 0.13316 0.33053 0.84604 0.0
C1930 C 0.12808 0.29495 0.81428 0.0
C1931 C 0.14506 0.2858 0.83753 0.0
C1932 C 0.15715 0.29961 0.86288 0.0
C1933 C 0.15081 0.32175 0.8673 0.0
C1934 C 0.11452 0.28071 0.78741 0.0
C1935 C 0.17582 0.29069 0.88725 0.0
H1936 H 0.12951 0.21629 0.88839 0.0
H1937 H 0.17458 0.21916 0.79262 0.0
H1938 H 0.12976 0.27181 0.91321 0.0
H1939 H 0.1078 0.26897 0.87899 0.0
H1940 H 0.11253 0.24755 0.91427 0.0
H1941 H 0.18731 0.25283 0.76695 0.0
H1942 H 0.16459 0.27194 0.76286 0.0
H1943 H 0.18553 0.2766 0.79833 0.0
H1944 H 0.10874 0.32409 0.80227 0.0
H1945 H 0.15913 0.332 0.8885 0.0
H1946 H 0.10414 0.2693 0.80475 0.0
H1947 H 0.12539 0.27043 0.76892 0.0
H1948 H 0.10353 0.29069 0.76852 0.0
H1949 H 0.16899 0.28036 0.91089 0.0
H1950 H 0.18582 0.30413 0.90038 0.0
H1951 H 0.18684 0.28003 0.86966 0.0
C1952 C 0.44461 0.36367 0.62317 0.0
C1953 C 0.42663 0.37385 0.60495 0.0
C1954 C 0.46632 0.36968 0.61433 0.0
C1955 C 0.47021 0.38679 0.58728 0.0
C1956 C 0.45212 0.39705 0.5684 0.0
C1957 C 0.43043 0.39021 0.57709 0.0
C1958 C 0.48509 0.35787 0.63442 0.0
C1959 C 0.45565 0.41567 0.54009 0.0
C1960 C 0.52655 0.41137 0.60591 0.0
C1961 C 0.53956 0.39975 0.57928 0.0
C1962 C 0.5035 0.40893 0.60635 0.0
C1963 C 0.49333 0.39405 0.58023 0.0
C1964 C 0.50625 0.38337 0.55167 0.0
C1965 C 0.52922 0.38655 0.55127 0.0
C1966 C 0.49024 0.42107 0.63661 0.0
C1967 C 0.49615 0.36709 0.52374 0.0
H1968 H 0.44167 0.3508 0.64438 0.0
H1969 H 0.41649 0.39813 0.56315 0.0
H1970 H 0.49692 0.35129 0.61278 0.0
H1971 H 0.49425 0.36963 0.65307 0.0
H1972 H 0.47924 0.34396 0.6527 0.0
H1973 H 0.44 0.42098 0.5261 0.0
H1974 H 0.46293 0.43005 0.55538 0.0
H1975 H 0.46753 0.41067 0.51731 0.0
H1976 H 0.53445 0.42184 0.62727 0.0
H1977 H 0.53921 0.37752 0.53061 0.0
H1978 H 0.48528 0.40937 0.65972 0.0
H1979 H 0.47492 0.428 0.62383 0.0
H1980 H 0.49984 0.4347 0.65006 0.0
H1981 H 0.49189 0.35168 0.53946 0.0
H1982 H 0.50763 0.36282 0.49982 0.0
H1983 H 0.48065 0.37372 0.51119 0.0
C1984 C 0.11119 0.09816 0.54457 0.0
C1985 C 0.12427 0.09708 0.51126 0.0
C1986 C 0.12078 0.09954 0.58127 0.0
C1987 C 0.14409 0.10015 0.58471 0.0
C1988 C 0.15738 0.09681 0.55149 0.0
C1989 C 0.14726 0.09524 0.51493 0.0
C1990 C 0.10589 0.10262 0.61593 0.0
C1991 C 0.18225 0.09691 0.554 0.0
C1992 C 0.15719 0.14021 0.66433 0.0
C1993 C 0.159 0.12609 0.6962 0.0
C1994 C 0.15475 0.13179 0.62692 0.0
C1995 C 0.1538 0.10863 0.62133 0.0
C1996 C 0.15793 0.0943 0.65291 0.0
C1997 C 0.16056 0.10324 0.69021 0.0
C1998 C 0.15088 0.14777 0.59404 0.0
C1999 C 0.1575 0.06955 0.64806 0.0
H2000 H 0.09337 0.0992 0.54177 0.0
H2001 H 0.15741 0.09432 0.48916 0.0
H2002 H 0.11121 0.09181 0.64009 0.0
H2003 H 0.10696 0.11998 0.62608 0.0
H2004 H 0.08835 0.09891 0.60908 0.0
H2005 H 0.18983 0.08857 0.52865 0.0
H2006 H 0.1882 0.11424 0.55465 0.0
H2007 H 0.18804 0.08869 0.58083 0.0
H2008 H 0.15633 0.15791 0.66894 0.0
H2009 H 0.16204 0.09229 0.71488 0.0
H2010 H 0.13322 0.14724 0.58543 0.0
H2011 H 0.16086 0.14307 0.56844 0.0
H2012 H 0.15505 0.16503 0.60217 0.0
H2013 H 0.14011 0.06376 0.64839 0.0
H2014 H 0.16646 0.06112 0.6719 0.0
H2015 H 0.16488 0.06454 0.62004 0.0
C2016 C 0.14754 0.86192 0.81329 0.0
C2017 C 0.15136 0.87579 0.78165 0.0
C2018 C 0.1477 0.87016 0.85106 0.0
C2019 C 0.15131 0.893 0.85731 0.0
C2020 C 0.1569 0.9068 0.82567 0.0
C2021 C 0.157 0.89795 0.78799 0.0
C2022 C 0.14214 0.85467 0.88393 0.0
C2023 C 0.16098 0.93117 0.8311 0.0
C2024 C 0.11583 0.90863 0.9419 0.0
C2025 C 0.13079 0.90663 0.97249 0.0
C2026 C 0.1229 0.90692 0.90351 0.0
C2027 C 0.14543 0.90245 0.89568 0.0
C2028 C 0.16095 0.90256 0.92639 0.0
C2029 C 0.15341 0.90478 0.9647 0.0
C2030 C 0.10581 0.90747 0.8717 0.0
C2031 C 0.1851 0.89804 0.91928 0.0
H2032 H 0.14347 0.8447 0.80835 0.0
H2033 H 0.15995 0.90868 0.76344 0.0
H2034 H 0.15389 0.85691 0.90822 0.0
H2035 H 0.12533 0.85846 0.89491 0.0
H2036 H 0.14252 0.83707 0.87483 0.0
H2037 H 0.17015 0.93833 0.80626 0.0
H2038 H 0.14489 0.93984 0.8335 0.0
H2039 H 0.17036 0.9344 0.85807 0.0
H2040 H 0.09833 0.91016 0.94813 0.0
H2041 H 0.16494 0.9031 0.98853 0.0
H2042 H 0.10269 0.8904 0.86133 0.0
H2043 H 0.11182 0.91729 0.84676 0.0
H2044 H 0.0899 0.91457 0.88177 0.0
H2045 H 0.18762 0.87998 0.91601 0.0
H2046 H 0.19549 0.90386 0.94373 0.0
H2047 H 0.19081 0.90609 0.89225 0.0
C2048 C 0.38863 0.90786 0.06318 0.0
C2049 C 0.37513 0.90811 0.03033 0.0
C2050 C 0.37956 0.90561 0.10017 0.0
C2051 C 0.35641 0.90315 0.1043 0.0
C2052 C 0.34255 0.90572 0.07159 0.0
C2053 C 0.35212 0.90827 0.03477 0.0
C2054 C 0.395 0.90351 0.13431 0.0
C2055 C 0.3178 0.90358 0.07482 0.0
C2056 C 0.34674 0.86117 0.18257 0.0
C2057 C 0.34351 0.87467 0.21492 0.0
C2058 C 0.34871 0.87024 0.14554 0.0
C2059 C 0.34777 0.89347 0.14083 0.0
C2060 C 0.34243 0.90703 0.1729 0.0
C2061 C 0.34027 0.89741 0.20978 0.0
C2062 C 0.3539 0.85504 0.11208 0.0
C2063 C 0.34097 0.9318 0.16904 0.0
H2064 H 0.40644 0.90805 0.05975 0.0
H2065 H 0.34165 0.90849 0.00934 0.0
H2066 H 0.38893 0.91344 0.15906 0.0
H2067 H 0.39566 0.88599 0.14372 0.0
H2068 H 0.41205 0.90893 0.12715 0.0
H2069 H 0.3093 0.91132 0.04978 0.0
H2070 H 0.3133 0.88582 0.07551 0.0
H2071 H 0.31164 0.91124 0.10189 0.0
H2072 H 0.34893 0.84353 0.1865 0.0
H2073 H 0.33775 0.90789 0.23483 0.0
H2074 H 0.37142 0.85723 0.10342 0.0
H2075 H 0.34348 0.85913 0.0867 0.0
H2076 H 0.35128 0.83739 0.11959 0.0
H2077 H 0.35786 0.93889 0.16965 0.0
H2078 H 0.33138 0.93922 0.19316 0.0
H2079 H 0.33323 0.93659 0.1412 0.0
C2080 C 0.35465 0.093 0.4622 0.0
C2081 C 0.37732 0.0961 0.46831 0.0
C2082 C 0.3456 0.09493 0.42483 0.0
C2083 C 0.35969 0.0998 0.39323 0.0
C2084 C 0.38284 0.10063 0.39901 0.0
C2085 C 0.39132 0.09899 0.43652 0.0
C2086 C 0.32089 0.09372 0.41985 0.0
C2087 C 0.39857 0.10533 0.36611 0.0
C2088 C 0.34517 0.10292 0.28665 0.0
C2089 C 0.34521 0.12586 0.28134 0.0
C2090 C 0.34797 0.09381 0.3238 0.0
C2091 C 0.35059 0.10809 0.35598 0.0
C2092 C 0.34832 0.13119 0.35092 0.0
C2093 C 0.34588 0.13978 0.31362 0.0
C2094 C 0.35011 0.06911 0.32799 0.0
C2095 C 0.35052 0.14706 0.38444 0.0
H2096 H 0.3438 0.09076 0.48682 0.0
H2097 H 0.40892 0.10107 0.44123 0.0
H2098 H 0.31406 0.11071 0.41861 0.0
H2099 H 0.31645 0.08529 0.39244 0.0
H2100 H 0.31291 0.08491 0.44433 0.0
H2101 H 0.41606 0.10246 0.37444 0.0
H2102 H 0.39464 0.0948 0.34077 0.0
H2103 H 0.3968 0.12282 0.357 0.0
H2104 H 0.34466 0.09214 0.26163 0.0
H2105 H 0.34562 0.15754 0.3095 0.0
H2106 H 0.34214 0.06327 0.35501 0.0
H2107 H 0.36787 0.06465 0.32954 0.0
H2108 H 0.34268 0.06028 0.30301 0.0
H2109 H 0.3404 0.14146 0.4093 0.0
H2110 H 0.34538 0.16409 0.37653 0.0
H2111 H 0.368 0.14759 0.39407 0.0
C2112 C 0.84528 0.88671 0.2931 0.0
C2113 C 0.86555 0.88596 0.27357 0.0
C2114 C 0.84455 0.8904 0.33327 0.0
C2115 C 0.86452 0.89366 0.35394 0.0
C2116 C 0.88475 0.89485 0.33357 0.0
C2117 C 0.88503 0.8908 0.29374 0.0
C2118 C 0.82264 0.88905 0.35392 0.0
C2119 C 0.90641 0.89863 0.35426 0.0
C2120 C 0.86869 0.90907 0.46046 0.0
C2121 C 0.87395 0.88852 0.47672 0.0
C2122 C 0.86434 0.91102 0.42058 0.0
C2123 C 0.86506 0.89193 0.39685 0.0
C2124 C 0.86901 0.87101 0.41378 0.0
C2125 C 0.87354 0.86961 0.45335 0.0
C2126 C 0.86021 0.93359 0.40358 0.0
C2127 C 0.86966 0.85016 0.38974 0.0
H2128 H 0.83018 0.88303 0.27751 0.0
H2129 H 0.9007 0.8906 0.27855 0.0
H2130 H 0.82133 0.87285 0.36874 0.0
H2131 H 0.82131 0.90209 0.37634 0.0
H2132 H 0.80853 0.89065 0.33358 0.0
H2133 H 0.92012 0.90216 0.33384 0.0
H2134 H 0.90499 0.91259 0.37488 0.0
H2135 H 0.91078 0.88366 0.37116 0.0
H2136 H 0.86892 0.92371 0.4785 0.0
H2137 H 0.87723 0.85361 0.46591 0.0
H2138 H 0.84626 0.93309 0.38279 0.0
H2139 H 0.87508 0.93902 0.38742 0.0
H2140 H 0.85656 0.94606 0.42626 0.0
H2141 H 0.85468 0.84894 0.37139 0.0
H2142 H 0.8708 0.83505 0.40785 0.0
H2143 H 0.88419 0.85061 0.37019 0.0
C2144 C 0.89707 0.09235 0.06383 0.0
C2145 C 0.88372 0.09107 0.03087 0.0
C2146 C 0.88775 0.09498 0.10059 0.0
C2147 C 0.86453 0.09696 0.1043 0.0
C2148 C 0.85089 0.09362 0.07151 0.0
C2149 C 0.8607 0.09053 0.03502 0.0
C2150 C 0.90294 0.09785 0.13488 0.0
C2151 C 0.8261 0.09548 0.07421 0.0
C2152 C 0.84642 0.10282 0.20891 0.0
C2153 C 0.84913 0.12562 0.21401 0.0
C2154 C 0.84967 0.0931 0.17235 0.0
C2155 C 0.85539 0.10665 0.14048 0.0
C2156 C 0.85588 0.12991 0.14503 0.0
C2157 C 0.85303 0.13906 0.18185 0.0
C2158 C 0.84895 0.06828 0.16876 0.0
C2159 C 0.86136 0.14509 0.11171 0.0
H2160 H 0.91489 0.09256 0.0606 0.0
H2161 H 0.85036 0.08962 0.00946 0.0
H2162 H 0.90333 0.11552 0.14343 0.0
H2163 H 0.89685 0.08825 0.16002 0.0
H2164 H 0.9201 0.09254 0.12829 0.0
H2165 H 0.81782 0.08764 0.04903 0.0
H2166 H 0.81984 0.08779 0.10117 0.0
H2167 H 0.82141 0.1132 0.07482 0.0
H2168 H 0.84355 0.09241 0.23392 0.0
H2169 H 0.85498 0.15673 0.18587 0.0
H2170 H 0.86606 0.06171 0.1696 0.0
H2171 H 0.84148 0.06317 0.14087 0.0
H2172 H 0.83949 0.06064 0.19282 0.0
H2173 H 0.8791 0.14333 0.1042 0.0
H2174 H 0.85812 0.16269 0.11881 0.0
H2175 H 0.85159 0.1406 0.08574 0.0
C2176 C 0.65404 0.10485 0.78307 0.0
C2177 C 0.65543 0.1278 0.77842 0.0
C2178 C 0.65098 0.09558 0.82 0.0
C2179 C 0.6496 0.10967 0.85264 0.0
C2180 C 0.6536 0.13259 0.84824 0.0
C2181 C 0.65619 0.1414 0.8111 0.0
C2182 C 0.647 0.07107 0.82346 0.0
C2183 C 0.65286 0.1482 0.88229 0.0
C2184 C 0.60794 0.10281 0.93243 0.0
C2185 C 0.62151 0.09815 0.96414 0.0
C2186 C 0.6167 0.10438 0.89511 0.0
C2187 C 0.63974 0.10174 0.88952 0.0
C2188 C 0.65323 0.09517 0.92098 0.0
C2189 C 0.64388 0.09331 0.95812 0.0
C2190 C 0.60154 0.11089 0.86231 0.0
C2191 C 0.6778 0.09207 0.91624 0.0
H2192 H 0.65339 0.09433 0.75772 0.0
H2193 H 0.6575 0.15915 0.80745 0.0
H2194 H 0.65458 0.06436 0.8502 0.0
H2195 H 0.62896 0.06795 0.82504 0.0
H2196 H 0.65367 0.06196 0.79812 0.0
H2197 H 0.65955 0.16476 0.87493 0.0
H2198 H 0.63549 0.15024 0.89193 0.0
H2199 H 0.6624 0.14142 0.90696 0.0
H2200 H 0.59058 0.10635 0.93714 0.0
H2201 H 0.65439 0.08979 0.98274 0.0
H2202 H 0.60465 0.10043 0.83655 0.0
H2203 H 0.60482 0.12829 0.854 0.0
H2204 H 0.58384 0.10941 0.87037 0.0
H2205 H 0.68173 0.08399 0.88829 0.0
H2206 H 0.68488 0.08206 0.94015 0.0
H2207 H 0.68598 0.10847 0.91642 0.0
C2208 C 0.60864 0.90129 0.56387 0.0
C2209 C 0.62239 0.90234 0.53144 0.0
C2210 C 0.61749 0.89962 0.60111 0.0
C2211 C 0.6407 0.89845 0.60592 0.0
C2212 C 0.65471 0.90151 0.57352 0.0
C2213 C 0.64533 0.90358 0.53644 0.0
C2214 C 0.60187 0.89695 0.63487 0.0
C2215 C 0.6795 0.90056 0.57742 0.0
C2216 C 0.65539 0.89545 0.71221 0.0
C2217 C 0.65277 0.87275 0.71853 0.0
C2218 C 0.65366 0.90423 0.67465 0.0
C2219 C 0.6495 0.88984 0.64315 0.0
C2220 C 0.64943 0.8667 0.64922 0.0
C2221 C 0.65077 0.85847 0.68694 0.0
C2222 C 0.65405 0.92896 0.66938 0.0
C2223 C 0.64559 0.85066 0.61644 0.0
H2224 H 0.59088 0.90059 0.55992 0.0
H2225 H 0.65596 0.90436 0.51125 0.0
H2226 H 0.60212 0.87952 0.64482 0.0
H2227 H 0.60712 0.90747 0.65947 0.0
H2228 H 0.5846 0.90131 0.62707 0.0
H2229 H 0.68784 0.90855 0.55247 0.0
H2230 H 0.68508 0.90863 0.60451 0.0
H2231 H 0.68481 0.88302 0.57851 0.0
H2232 H 0.65686 0.90648 0.73679 0.0
H2233 H 0.64894 0.84088 0.69196 0.0
H2234 H 0.63684 0.93523 0.66835 0.0
H2235 H 0.6622 0.93357 0.64181 0.0
H2236 H 0.6627 0.93728 0.69367 0.0
H2237 H 0.62805 0.85151 0.60723 0.0
H2238 H 0.64931 0.83336 0.62499 0.0
H2239 H 0.65596 0.85501 0.59112 0.0
C2240 C 0.64959 0.59263 0.03508 0.0
C2241 C 0.62658 0.59357 0.03104 0.0
C2242 C 0.65944 0.59491 0.07175 0.0
C2243 C 0.64585 0.59797 0.10467 0.0
C2244 C 0.6226 0.59638 0.10088 0.0
C2245 C 0.61327 0.59442 0.06405 0.0
C2246 C 0.68427 0.59616 0.0746 0.0
C2247 C 0.6074 0.59903 0.13523 0.0
C2248 C 0.66143 0.60277 0.21034 0.0
C2249 C 0.65847 0.62552 0.21568 0.0
C2250 C 0.65962 0.5934 0.17321 0.0
C2251 C 0.65497 0.60724 0.14117 0.0
C2252 C 0.65463 0.63047 0.14619 0.0
C2253 C 0.65614 0.63928 0.18347 0.0
C2254 C 0.66046 0.56862 0.16903 0.0
C2255 C 0.65024 0.64595 0.1128 0.0
H2256 H 0.65989 0.59195 0.00946 0.0
H2257 H 0.59545 0.59485 0.06087 0.0
H2258 H 0.68942 0.61375 0.07466 0.0
H2259 H 0.69029 0.58854 0.1018 0.0
H2260 H 0.69234 0.58788 0.04966 0.0
H2261 H 0.59011 0.59437 0.12825 0.0
H2262 H 0.61314 0.58876 0.1598 0.0
H2263 H 0.60752 0.61653 0.14484 0.0
H2264 H 0.66321 0.59213 0.23536 0.0
H2265 H 0.6541 0.65692 0.1877 0.0
H2266 H 0.66822 0.56375 0.14125 0.0
H2267 H 0.64338 0.56197 0.16928 0.0
H2268 H 0.66972 0.56087 0.19322 0.0
H2269 H 0.66052 0.64145 0.08747 0.0
H2270 H 0.65365 0.66344 0.12052 0.0
H2271 H 0.63265 0.64461 0.10401 0.0
C2272 C 0.61847 0.39861 0.41844 0.0
C2273 C 0.63237 0.40279 0.4499 0.0
C2274 C 0.62684 0.39745 0.38084 0.0
C2275 C 0.64982 0.40011 0.37464 0.0
C2276 C 0.66365 0.40627 0.40592 0.0
C2277 C 0.65469 0.40765 0.44343 0.0
C2278 C 0.61131 0.39134 0.34832 0.0
C2279 C 0.68815 0.40953 0.40051 0.0
C2280 C 0.66421 0.36077 0.29493 0.0
C2281 C 0.66215 0.37441 0.26248 0.0
C2282 C 0.66301 0.36951 0.33231 0.0
C2283 C 0.65922 0.39243 0.33725 0.0
C2284 C 0.65967 0.40659 0.30464 0.0
C2285 C 0.66122 0.39737 0.26737 0.0
C2286 C 0.66321 0.35381 0.36625 0.0
C2287 C 0.65614 0.43114 0.30871 0.0
H2288 H 0.60113 0.39516 0.4235 0.0
H2289 H 0.66543 0.41089 0.46787 0.0
H2290 H 0.61396 0.40226 0.323 0.0
H2291 H 0.61464 0.37412 0.33896 0.0
H2292 H 0.5937 0.39251 0.35713 0.0
H2293 H 0.69528 0.41983 0.42399 0.0
H2294 H 0.69649 0.39321 0.40108 0.0
H2295 H 0.69183 0.41737 0.37224 0.0
H2296 H 0.66526 0.34302 0.29107 0.0
H2297 H 0.65969 0.40795 0.24221 0.0
H2298 H 0.64611 0.35172 0.37727 0.0
H2299 H 0.6734 0.36051 0.39017 0.0
H2300 H 0.66971 0.33728 0.35816 0.0
H2301 H 0.63819 0.43454 0.31132 0.0
H2302 H 0.66248 0.44024 0.28312 0.0
H2303 H 0.66433 0.4376 0.33509 0.0
C2304 C 0.84918 0.35445 0.68761 0.0
C2305 C 0.84665 0.36797 0.72013 0.0
C2306 C 0.85033 0.36349 0.65045 0.0
C2307 C 0.84933 0.38671 0.64577 0.0
C2308 C 0.84478 0.4003 0.67818 0.0
C2309 C 0.84337 0.39071 0.71519 0.0
C2310 C 0.8547 0.34826 0.61668 0.0
C2311 C 0.84336 0.42508 0.67437 0.0
C2312 C 0.88854 0.40145 0.56565 0.0
C2313 C 0.87434 0.4023 0.53377 0.0
C2314 C 0.88028 0.39874 0.60311 0.0
C2315 C 0.85723 0.39636 0.60871 0.0
C2316 C 0.84267 0.39924 0.577 0.0
C2317 C 0.85144 0.40232 0.53968 0.0
C2318 C 0.89645 0.39627 0.63613 0.0
C2319 C 0.81801 0.39706 0.58179 0.0
H2320 H 0.85139 0.3368 0.69142 0.0
H2321 H 0.84137 0.40118 0.74038 0.0
H2322 H 0.84384 0.35248 0.59194 0.0
H2323 H 0.87206 0.35026 0.60699 0.0
H2324 H 0.85204 0.33063 0.62433 0.0
H2325 H 0.83468 0.43262 0.6994 0.0
H2326 H 0.8603 0.43204 0.67311 0.0
H2327 H 0.83472 0.42986 0.64736 0.0
H2328 H 0.90626 0.40175 0.56105 0.0
H2329 H 0.84045 0.40298 0.51495 0.0
H2330 H 0.89715 0.37869 0.64516 0.0
H2331 H 0.89103 0.4061 0.66147 0.0
H2332 H 0.91338 0.40158 0.62793 0.0
H2333 H 0.81355 0.37929 0.5826 0.0
H2334 H 0.80896 0.40487 0.55741 0.0
H2335 H 0.81242 0.40461 0.60933 0.0
C2336 C 0.89073 0.60076 0.9582 0.0
C2337 C 0.87677 0.59986 0.99043 0.0
C2338 C 0.88213 0.602 0.9207 0.0
C2339 C 0.85895 0.60277 0.91531 0.0
C2340 C 0.84475 0.60004 0.94754 0.0
C2341 C 0.85387 0.59848 0.9849 0.0
C2342 C 0.89794 0.60442 0.88716 0.0
C2343 C 0.81998 0.60063 0.94301 0.0
C2344 C 0.84684 0.64033 0.83112 0.0
C2345 C 0.84459 0.62521 0.80073 0.0
C2346 C 0.84943 0.63312 0.8693 0.0
C2347 C 0.8502 0.61018 0.87723 0.0
C2348 C 0.84613 0.59485 0.84707 0.0
C2349 C 0.84323 0.60259 0.80901 0.0
C2350 C 0.85325 0.65011 0.90061 0.0
C2351 C 0.84669 0.57029 0.85433 0.0
H2352 H 0.90846 0.60153 0.96243 0.0
H2353 H 0.84304 0.59779 0.00983 0.0
H2354 H 0.89309 0.59335 0.86305 0.0
H2355 H 0.89736 0.62164 0.87622 0.0
H2356 H 0.91524 0.60059 0.89555 0.0
H2357 H 0.81146 0.59364 0.96869 0.0
H2358 H 0.81454 0.61802 0.93943 0.0
H2359 H 0.8147 0.5914 0.91689 0.0
H2360 H 0.8476 0.65786 0.8248 0.0
H2361 H 0.8415 0.59087 0.7855 0.0
H2362 H 0.87084 0.64971 0.90963 0.0
H2363 H 0.84307 0.64632 0.92644 0.0
H2364 H 0.84928 0.66711 0.89072 0.0
H2365 H 0.86413 0.56478 0.8565 0.0
H2366 H 0.83865 0.56094 0.83054 0.0
H2367 H 0.83843 0.56611 0.88201 0.0
C2368 C 0.34918 0.38377 0.79905 0.0
C2369 C 0.36935 0.37791 0.78202 0.0
C2370 C 0.34818 0.38973 0.83837 0.0
C2371 C 0.36785 0.39006 0.86063 0.0
C2372 C 0.3884 0.38597 0.8425 0.0
C2373 C 0.38886 0.37977 0.80355 0.0
C2374 C 0.32597 0.39404 0.85664 0.0
C2375 C 0.40983 0.38647 0.8649 0.0
C2376 C 0.37368 0.41051 0.96411 0.0
C2377 C 0.3747 0.39036 0.98396 0.0
C2378 C 0.36998 0.41097 0.9239 0.0
C2379 C 0.367 0.39084 0.90359 0.0
C2380 C 0.36637 0.37067 0.92423 0.0
C2381 C 0.37039 0.37068 0.96404 0.0
C2382 C 0.37075 0.4328 0.9029 0.0
C2383 C 0.36291 0.34882 0.90394 0.0
H2384 H 0.33408 0.38243 0.78237 0.0
H2385 H 0.40454 0.37564 0.79021 0.0
H2386 H 0.32091 0.37933 0.8736 0.0
H2387 H 0.32683 0.40823 0.87687 0.0
H2388 H 0.31305 0.39738 0.83458 0.0
H2389 H 0.42449 0.38578 0.84561 0.0
H2390 H 0.41088 0.40165 0.88276 0.0
H2391 H 0.41049 0.3721 0.8848 0.0
H2392 H 0.37692 0.42576 0.97954 0.0
H2393 H 0.37077 0.3551 0.97948 0.0
H2394 H 0.35752 0.43375 0.88076 0.0
H2395 H 0.3868 0.43436 0.88768 0.0
H2396 H 0.36902 0.44698 0.92307 0.0
H2397 H 0.34842 0.34971 0.88437 0.0
H2398 H 0.36034 0.33502 0.92463 0.0
H2399 H 0.37759 0.34495 0.88596 0.0
C2400 C 0.35233 0.64185 0.68385 0.0
C2401 C 0.34941 0.62796 0.71577 0.0
C2402 C 0.35451 0.63319 0.64655 0.0
C2403 C 0.35418 0.60999 0.64115 0.0
C2404 C 0.34929 0.59598 0.67283 0.0
C2405 C 0.34682 0.60519 0.70997 0.0
C2406 C 0.35918 0.64884 0.61351 0.0
C2407 C 0.3486 0.57122 0.66826 0.0
C2408 C 0.35802 0.59564 0.53476 0.0
C2409 C 0.38099 0.59631 0.52968 0.0
C2410 C 0.34872 0.59801 0.57182 0.0
C2411 C 0.36281 0.60087 0.60416 0.0
C2412 C 0.38597 0.59904 0.59939 0.0
C2413 C 0.39477 0.59698 0.56215 0.0
C2414 C 0.32396 0.5996 0.57572 0.0
C2415 C 0.40164 0.60148 0.63313 0.0
H2416 H 0.35406 0.6595 0.68833 0.0
H2417 H 0.34459 0.59443 0.73472 0.0
H2418 H 0.37675 0.64726 0.60472 0.0
H2419 H 0.34885 0.64465 0.58805 0.0
H2420 H 0.35604 0.66633 0.62153 0.0
H2421 H 0.3396 0.56323 0.69251 0.0
H2422 H 0.34065 0.56646 0.64059 0.0
H2423 H 0.36573 0.5647 0.66791 0.0
H2424 H 0.34733 0.59512 0.50963 0.0
H2425 H 0.41255 0.5972 0.55824 0.0
H2426 H 0.3191 0.61726 0.57712 0.0
H2427 H 0.31819 0.59154 0.60269 0.0
H2428 H 0.3154 0.59195 0.55066 0.0
H2429 H 0.40192 0.61899 0.64266 0.0
H2430 H 0.41876 0.59653 0.62549 0.0
H2431 H 0.39605 0.59134 0.65797 0.0
C2432 C 0.1057 0.60344 0.43313 0.0
C2433 C 0.11913 0.60094 0.46577 0.0
C2434 C 0.11489 0.6051 0.3961 0.0
C2435 C 0.13816 0.60479 0.39171 0.0
C2436 C 0.15174 0.6006 0.42428 0.0
C2437 C 0.142 0.59854 0.46108 0.0
C2438 C 0.0997 0.60899 0.36211 0.0
C2439 C 0.17657 0.60015 0.42088 0.0
C2440 C 0.15491 0.60561 0.28602 0.0
C2441 C 0.15427 0.62837 0.27879 0.0
C2442 C 0.15153 0.59741 0.32366 0.0
C2443 C 0.1478 0.61242 0.35443 0.0
C2444 C 0.14955 0.63543 0.34762 0.0
C2445 C 0.15246 0.64311 0.30979 0.0
C2446 C 0.14984 0.57279 0.32965 0.0
C2447 C 0.14625 0.65207 0.37967 0.0
H2448 H 0.08798 0.60506 0.43674 0.0
H2449 H 0.15241 0.59668 0.48639 0.0
H2450 H 0.10126 0.62639 0.35234 0.0
H2451 H 0.10435 0.59821 0.33748 0.0
H2452 H 0.08212 0.60585 0.36952 0.0
H2453 H 0.18438 0.59218 0.44638 0.0
H2454 H 0.18183 0.59131 0.39434 0.0
H2455 H 0.18283 0.61734 0.41882 0.0
H2456 H 0.15616 0.59421 0.26194 0.0
H2457 H 0.15213 0.66073 0.30413 0.0
H2458 H 0.13215 0.56801 0.3308 0.0
H2459 H 0.15752 0.5678 0.35743 0.0
H2460 H 0.1578 0.56349 0.30572 0.0
H2461 H 0.12852 0.65256 0.38782 0.0
H2462 H 0.15135 0.66896 0.37084 0.0
H2463 H 0.15578 0.64725 0.40573 0.0
C2464 C 0.15823 0.38554 0.20882 0.0
C2465 C 0.138 0.38333 0.22812 0.0
C2466 C 0.15883 0.38954 0.16872 0.0
C2467 C 0.13875 0.39152 0.14791 0.0
C2468 C 0.1184 0.39109 0.16804 0.0
C2469 C 0.11829 0.38688 0.20779 0.0
C2470 C 0.18084 0.39006 0.14832 0.0
C2471 C 0.09659 0.39338 0.14717 0.0
C2472 C 0.13213 0.40812 0.04259 0.0
C2473 C 0.12813 0.38747 0.02561 0.0
C2474 C 0.13722 0.40979 0.08221 0.0
C2475 C 0.13841 0.39035 0.10497 0.0
C2476 C 0.13598 0.36944 0.08715 0.0
C2477 C 0.13079 0.36829 0.0478 0.0
C2478 C 0.13988 0.43235 0.10012 0.0
C2479 C 0.13732 0.34826 0.11015 0.0
H2480 H 0.1735 0.38292 0.22454 0.0
H2481 H 0.10261 0.3856 0.22278 0.0
H2482 H 0.18349 0.37412 0.13318 0.0
H2483 H 0.18122 0.40332 0.1262 0.0
H2484 H 0.19472 0.39263 0.16888 0.0
H2485 H 0.08251 0.39532 0.1675 0.0
H2486 H 0.0969 0.40783 0.12746 0.0
H2487 H 0.09361 0.37846 0.12926 0.0
H2488 H 0.13023 0.42298 0.02544 0.0
H2489 H 0.12812 0.35224 0.03465 0.0
H2490 H 0.15382 0.43251 0.12095 0.0
H2491 H 0.12467 0.43663 0.11637 0.0
H2492 H 0.14272 0.4453 0.07792 0.0
H2493 H 0.15242 0.34808 0.1283 0.0
H2494 H 0.13744 0.3334 0.0913 0.0
H2495 H 0.12289 0.34711 0.12984 0.0
loop_
_geom_bond_atom_site_label_1
_geom_bond_atom_site_label_2
_geom_bond_distance
_geom_bond_site_symmetry_2
_ccdc_geom_bond_type
O0 Cd1 2.223 . S
O0 C8 1.315 . S
Cd1 O0 2.223 . S
Cd1 O4 2.297 . S
Cd1 O5 2.439 . S
Cd1 O11 2.240 . S
Cd2 O3 2.240 . S
Cd2 O10 2.223 . S
Cd2 O12 2.297 . S
Cd2 O13 2.439 . S
O3 Cd2 2.240 . S
O3 C8 1.279 . S
O4 Cd1 2.297 . S
O4 C6 1.247 . S
O5 Cd1 2.439 . S
O5 C6 1.208 . S
C6 O4 1.247 . S
C6 O5 1.208 . S
C7 O12 1.247 . S
C7 O13 1.208 . S
C8 O0 1.315 . S
C8 O3 1.279 . S
C9 O10 1.315 . S
C9 O11 1.279 . S
O10 Cd2 2.223 . S
O10 C9 1.315 . S
O11 Cd1 2.240 . S
O11 C9 1.279 . S
O12 Cd2 2.297 . S
O12 C7 1.247 . S
O13 Cd2 2.439 . S
O13 C7 1.208 . S
O14 Cd15 2.223 . S
O14 C22 1.315 . S
Cd15 O14 2.223 . S
Cd15 O18 2.297 . S
Cd15 O19 2.439 . S
Cd15 O25 2.240 . S
Cd16 O17 2.240 . S
Cd16 O24 2.223 . S
Cd16 O26 2.297 . S
Cd16 O27 2.439 . S
O17 Cd16 2.240 . S
O17 C22 1.279 . S
O18 Cd15 2.297 . S
O18 C20 1.247 . S
O19 Cd15 2.439 . S
O19 C20 1.208 . S
C20 O18 1.247 . S
C20 O19 1.208 . S
C21 O26 1.247 . S
C21 O27 1.208 . S
C22 O14 1.315 . S
C22 O17 1.279 . S
C23 O24 1.315 . S
C23 O25 1.279 . S
O24 Cd16 2.223 . S
O24 C23 1.315 . S
O25 Cd15 2.240 . S
O25 C23 1.279 . S
O26 Cd16 2.297 . S
O26 C21 1.247 . S
O27 Cd16 2.439 . S
O27 C21 1.208 . S
O28 Cd29 2.223 . S
O28 C36 1.315 . S
Cd29 O28 2.223 . S
Cd29 O32 2.297 . S
Cd29 O33 2.439 . S
Cd29 O39 2.240 . S
Cd30 O31 2.240 . S
Cd30 O38 2.223 . S
Cd30 O40 2.297 1_556 S
Cd30 O41 2.439 . S
O31 Cd30 2.240 . S
O31 C36 1.279 . S
O32 Cd29 2.297 . S
O32 C34 1.247 . S
O33 Cd29 2.439 . S
O33 C34 1.208 . S
C34 O32 1.247 . S
C34 O33 1.208 . S
C35 O40 1.247 1_556 S
C35 O41 1.208 . S
C36 O28 1.315 . S
C36 O31 1.279 . S
C37 O38 1.315 . S
C37 O39 1.279 . S
O38 Cd30 2.223 . S
O38 C37 1.315 . S
O39 Cd29 2.240 . S
O39 C37 1.279 . S
O40 Cd30 2.297 1_554 S
O40 C35 1.247 1_554 S
O41 Cd30 2.439 . S
O41 C35 1.208 . S
O42 Cd43 2.223 . S
O42 C50 1.315 . S
Cd43 O42 2.223 . S
Cd43 O46 2.297 . S
Cd43 O47 2.439 . S
Cd43 O53 2.240 . S
Cd44 O45 2.240 . S
Cd44 O52 2.223 . S
Cd44 O54 2.297 . S
Cd44 O55 2.439 . S
O45 Cd44 2.240 . S
O45 C50 1.279 . S
O46 Cd43 2.297 . S
O46 C48 1.247 . S
O47 Cd43 2.439 . S
O47 C48 1.208 . S
C48 O46 1.247 . S
C48 O47 1.208 . S
C49 O54 1.247 . S
C49 O55 1.208 . S
C50 O42 1.315 . S
C50 O45 1.279 . S
C51 O52 1.315 . S
C51 O53 1.279 . S
O52 Cd44 2.223 . S
O52 C51 1.315 . S
O53 Cd43 2.240 . S
O53 C51 1.279 . S
O54 Cd44 2.297 . S
O54 C49 1.247 . S
O55 Cd44 2.439 . S
O55 C49 1.208 . S
O56 Cd57 2.223 . S
O56 C64 1.315 . S
Cd57 O56 2.223 . S
Cd57 O60 2.297 . S
Cd57 O61 2.439 . S
Cd57 O67 2.240 . S
Cd58 O59 2.240 . S
Cd58 O66 2.223 . S
Cd58 O68 2.297 1_554 S
Cd58 O69 2.439 . S
O59 Cd58 2.240 . S
O59 C64 1.279 . S
O60 Cd57 2.297 . S
O60 C62 1.247 . S
O61 Cd57 2.439 . S
O61 C62 1.208 . S
C62 O60 1.247 . S
C62 O61 1.208 . S
C63 O68 1.247 1_554 S
C63 O69 1.208 . S
C64 O56 1.315 . S
C64 O59 1.279 . S
C65 O66 1.315 . S
C65 O67 1.279 . S
O66 Cd58 2.223 . S
O66 C65 1.315 . S
O67 Cd57 2.240 . S
O67 C65 1.279 . S
O68 Cd58 2.297 1_556 S
O68 C63 1.247 1_556 S
O69 Cd58 2.439 . S
O69 C63 1.208 . S
O70 Cd71 2.223 . S
O70 C78 1.315 . S
Cd71 O70 2.223 . S
Cd71 O74 2.297 . S
Cd71 O75 2.439 . S
Cd71 O81 2.240 . S
Cd72 O73 2.240 . S
Cd72 O80 2.223 . S
Cd72 O82 2.297 . S
Cd72 O83 2.439 . S
O73 Cd72 2.240 . S
O73 C78 1.279 . S
O74 Cd71 2.297 . S
O74 C76 1.247 . S
O75 Cd71 2.439 . S
O75 C76 1.208 . S
C76 O74 1.247 . S
C76 O75 1.208 . S
C77 O82 1.247 . S
C77 O83 1.208 . S
C78 O70 1.315 . S
C78 O73 1.279 . S
C79 O80 1.315 . S
C79 O81 1.279 . S
O80 Cd72 2.223 . S
O80 C79 1.315 . S
O81 Cd71 2.240 . S
O81 C79 1.279 . S
O82 Cd72 2.297 . S
O82 C77 1.247 . S
O83 Cd72 2.439 . S
O83 C77 1.208 . S
O84 Cd85 2.223 . S
O84 C92 1.315 . S
Cd85 O84 2.223 . S
Cd85 O88 2.297 . S
Cd85 O89 2.439 . S
Cd85 O95 2.240 . S
Cd86 O87 2.240 . S
Cd86 O94 2.223 . S
Cd86 O96 2.297 . S
Cd86 O97 2.439 . S
O87 Cd86 2.240 . S
O87 C92 1.279 . S
O88 Cd85 2.297 . S
O88 C90 1.247 . S
O89 Cd85 2.439 . S
O89 C90 1.208 . S
C90 O88 1.247 . S
C90 O89 1.208 . S
C91 O96 1.247 . S
C91 O97 1.208 . S
C92 O84 1.315 . S
C92 O87 1.279 . S
C93 O94 1.315 . S
C93 O95 1.279 . S
O94 Cd86 2.223 . S
O94 C93 1.315 . S
O95 Cd85 2.240 . S
O95 C93 1.279 . S
O96 Cd86 2.297 . S
O96 C91 1.247 . S
O97 Cd86 2.439 . S
O97 C91 1.208 . S
O98 Cd99 2.223 . S
O98 C106 1.315 . S
Cd99 O98 2.223 . S
Cd99 O102 2.297 . S
Cd99 O103 2.439 . S
Cd99 O109 2.240 . S
Cd100 O101 2.240 . S
Cd100 O108 2.223 . S
Cd100 O110 2.297 . S
Cd100 O111 2.439 . S
O101 Cd100 2.240 . S
O101 C106 1.279 . S
O102 Cd99 2.297 . S
O102 C104 1.247 . S
O103 Cd99 2.439 . S
O103 C104 1.208 . S
C104 O102 1.247 . S
C104 O103 1.208 . S
C105 O110 1.247 . S
C105 O111 1.208 . S
C106 O98 1.315 . S
C106 O101 1.279 . S
C107 O108 1.315 . S
C107 O109 1.279 . S
O108 Cd100 2.223 . S
O108 C107 1.315 . S
O109 Cd99 2.240 . S
O109 C107 1.279 . S
O110 Cd100 2.297 . S
O110 C105 1.247 . S
O111 Cd100 2.439 . S
O111 C105 1.208 . S
O112 Cd113 2.223 . S
O112 C120 1.315 . S
Cd113 O112 2.223 . S
Cd113 O116 2.297 . S
Cd113 O117 2.439 . S
Cd113 O123 2.240 . S
Cd114 O115 2.240 . S
Cd114 O122 2.223 . S
Cd114 O124 2.297 . S
Cd114 O125 2.439 . S
O115 Cd114 2.240 . S
O115 C120 1.279 . S
O116 Cd113 2.297 . S
O116 C118 1.247 . S
O117 Cd113 2.439 . S
O117 C118 1.208 . S
C118 O116 1.247 . S
C118 O117 1.208 . S
C119 O124 1.247 . S
C119 O125 1.208 . S
C120 O112 1.315 . S
C120 O115 1.279 . S
C121 O122 1.315 . S
C121 O123 1.279 . S
O122 Cd114 2.223 . S
O122 C121 1.315 . S
O123 Cd113 2.240 . S
O123 C121 1.279 . S
O124 Cd114 2.297 . S
O124 C119 1.247 . S
O125 Cd114 2.439 . S
O125 C119 1.208 . S
O126 Cd127 2.223 . S
O126 C134 1.315 . S
Cd127 O126 2.223 . S
Cd127 O130 2.297 . S
Cd127 O131 2.439 . S
Cd127 O137 2.240 . S
Cd128 O129 2.240 . S
Cd128 O136 2.223 . S
Cd128 O138 2.297 . S
Cd128 O139 2.439 . S
O129 Cd128 2.240 . S
O129 C134 1.279 . S
O130 Cd127 2.297 . S
O130 C132 1.247 . S
O131 Cd127 2.439 . S
O131 C132 1.208 . S
C132 O130 1.247 . S
C132 O131 1.208 . S
C133 O138 1.247 . S
C133 O139 1.208 . S
C134 O126 1.315 . S
C134 O129 1.279 . S
C135 O136 1.315 . S
C135 O137 1.279 . S
O136 Cd128 2.223 . S
O136 C135 1.315 . S
O137 Cd127 2.240 . S
O137 C135 1.279 . S
O138 Cd128 2.297 . S
O138 C133 1.247 . S
O139 Cd128 2.439 . S
O139 C133 1.208 . S
O140 Cd141 2.223 . S
O140 C148 1.315 . S
Cd141 O140 2.223 . S
Cd141 O144 2.297 . S
Cd141 O145 2.439 . S
Cd141 O151 2.240 . S
Cd142 O143 2.240 . S
Cd142 O150 2.223 . S
Cd142 O152 2.297 1_554 S
Cd142 O153 2.439 . S
O143 Cd142 2.240 . S
O143 C148 1.279 . S
O144 Cd141 2.297 . S
O144 C146 1.247 . S
O145 Cd141 2.439 . S
O145 C146 1.208 . S
C146 O144 1.247 . S
C146 O145 1.208 . S
C147 O152 1.247 1_554 S
C147 O153 1.208 . S
C148 O140 1.315 . S
C148 O143 1.279 . S
C149 O150 1.315 . S
C149 O151 1.279 . S
O150 Cd142 2.223 . S
O150 C149 1.315 . S
O151 Cd141 2.240 . S
O151 C149 1.279 . S
O152 Cd142 2.297 1_556 S
O152 C147 1.247 1_556 S
O153 Cd142 2.439 . S
O153 C147 1.208 . S
O154 Cd155 2.223 . S
O154 C162 1.315 . S
Cd155 O154 2.223 . S
Cd155 O158 2.297 . S
Cd155 O159 2.439 . S
Cd155 O165 2.240 . S
Cd156 O157 2.240 . S
Cd156 O164 2.223 . S
Cd156 O166 2.297 . S
Cd156 O167 2.439 . S
O157 Cd156 2.240 . S
O157 C162 1.279 . S
O158 Cd155 2.297 . S
O158 C160 1.247 . S
O159 Cd155 2.439 . S
O159 C160 1.208 . S
C160 O158 1.247 . S
C160 O159 1.208 . S
C161 O166 1.247 . S
C161 O167 1.208 . S
C162 O154 1.315 . S
C162 O157 1.279 . S
C163 O164 1.315 . S
C163 O165 1.279 . S
O164 Cd156 2.223 . S
O164 C163 1.315 . S
O165 Cd155 2.240 . S
O165 C163 1.279 . S
O166 Cd156 2.297 . S
O166 C161 1.247 . S
O167 Cd156 2.439 . S
O167 C161 1.208 . S
O168 Cd169 2.223 . S
O168 C176 1.315 . S
Cd169 O168 2.223 . S
Cd169 O172 2.297 . S
Cd169 O173 2.439 . S
Cd169 O179 2.240 . S
Cd170 O171 2.240 . S
Cd170 O178 2.223 . S
Cd170 O180 2.297 1_556 S
Cd170 O181 2.439 . S
O171 Cd170 2.240 . S
O171 C176 1.279 . S
O172 Cd169 2.297 . S
O172 C174 1.247 . S
O173 Cd169 2.439 . S
O173 C174 1.208 . S
C174 O172 1.247 . S
C174 O173 1.208 . S
C175 O180 1.247 1_556 S
C175 O181 1.208 . S
C176 O168 1.315 . S
C176 O171 1.279 . S
C177 O178 1.315 . S
C177 O179 1.279 . S
O178 Cd170 2.223 . S
O178 C177 1.315 . S
O179 Cd169 2.240 . S
O179 C177 1.279 . S
O180 Cd170 2.297 1_554 S
O180 C175 1.247 1_554 S
O181 Cd170 2.439 . S
O181 C175 1.208 . S
O182 Cd183 2.223 . S
O182 C190 1.315 . S
Cd183 O182 2.223 . S
Cd183 O186 2.297 . S
Cd183 O187 2.439 . S
Cd183 O193 2.240 . S
Cd184 O185 2.240 . S
Cd184 O192 2.223 . S
Cd184 O194 2.297 . S
Cd184 O195 2.439 . S
O185 Cd184 2.240 . S
O185 C190 1.279 . S
O186 Cd183 2.297 . S
O186 C188 1.247 . S
O187 Cd183 2.439 . S
O187 C188 1.208 . S
C188 O186 1.247 . S
C188 O187 1.208 . S
C189 O194 1.247 . S
C189 O195 1.208 . S
C190 O182 1.315 . S
C190 O185 1.279 . S
C191 O192 1.315 . S
C191 O193 1.279 . S
O192 Cd184 2.223 . S
O192 C191 1.315 . S
O193 Cd183 2.240 . S
O193 C191 1.279 . S
O194 Cd184 2.297 . S
O194 C189 1.247 . S
O195 Cd184 2.439 . S
O195 C189 1.208 . S
O196 Cd197 2.223 . S
O196 C204 1.315 . S
Cd197 O196 2.223 . S
Cd197 O200 2.297 . S
Cd197 O201 2.439 . S
Cd197 O207 2.240 . S
Cd198 O199 2.240 . S
Cd198 O206 2.223 . S
Cd198 O208 2.297 . S
Cd198 O209 2.439 . S
O199 Cd198 2.240 . S
O199 C204 1.279 . S
O200 Cd197 2.297 . S
O200 C202 1.247 . S
O201 Cd197 2.439 . S
O201 C202 1.208 . S
C202 O200 1.247 . S
C202 O201 1.208 . S
C203 O208 1.247 . S
C203 O209 1.208 . S
C204 O196 1.315 . S
C204 O199 1.279 . S
C205 O206 1.315 . S
C205 O207 1.279 . S
O206 Cd198 2.223 . S
O206 C205 1.315 . S
O207 Cd197 2.240 . S
O207 C205 1.279 . S
O208 Cd198 2.297 . S
O208 C203 1.247 . S
O209 Cd198 2.439 . S
O209 C203 1.208 . S
O210 Cd211 2.223 . S
O210 C218 1.315 . S
Cd211 O210 2.223 . S
Cd211 O214 2.297 . S
Cd211 O215 2.439 . S
Cd211 O221 2.240 . S
Cd212 O213 2.240 . S
Cd212 O220 2.223 . S
Cd212 O222 2.297 . S
Cd212 O223 2.439 . S
O213 Cd212 2.240 . S
O213 C218 1.279 . S
O214 Cd211 2.297 . S
O214 C216 1.247 . S
O215 Cd211 2.439 . S
O215 C216 1.208 . S
C216 O214 1.247 . S
C216 O215 1.208 . S
C217 O222 1.247 . S
C217 O223 1.208 . S
C218 O210 1.315 . S
C218 O213 1.279 . S
C219 O220 1.315 . S
C219 O221 1.279 . S
O220 Cd212 2.223 . S
O220 C219 1.315 . S
O221 Cd211 2.240 . S
O221 C219 1.279 . S
O222 Cd212 2.297 . S
O222 C217 1.247 . S
O223 Cd212 2.439 . S
O223 C217 1.208 . S
O224 Cd225 2.223 . S
O224 C232 1.315 . S
Cd225 O224 2.223 . S
Cd225 O228 2.297 . S
Cd225 O229 2.439 . S
Cd225 O235 2.240 . S
Cd226 O227 2.240 . S
Cd226 O234 2.223 . S
Cd226 O236 2.297 1_556 S
Cd226 O237 2.439 . S
O227 Cd226 2.240 . S
O227 C232 1.279 . S
O228 Cd225 2.297 . S
O228 C230 1.247 . S
O229 Cd225 2.439 . S
O229 C230 1.208 . S
C230 O228 1.247 . S
C230 O229 1.208 . S
C231 O236 1.247 1_556 S
C231 O237 1.208 . S
C232 O224 1.315 . S
C232 O227 1.279 . S
C233 O234 1.315 . S
C233 O235 1.279 . S
O234 Cd226 2.223 . S
O234 C233 1.315 . S
O235 Cd225 2.240 . S
O235 C233 1.279 . S
O236 Cd226 2.297 1_554 S
O236 C231 1.247 1_554 S
O237 Cd226 2.439 . S
O237 C231 1.208 . S
O238 Cd239 2.223 . S
O238 C246 1.315 . S
Cd239 O238 2.223 . S
Cd239 O242 2.297 . S
Cd239 O243 2.439 . S
Cd239 O249 2.240 . S
Cd240 O241 2.240 . S
Cd240 O248 2.223 . S
Cd240 O250 2.297 . S
Cd240 O251 2.439 . S
O241 Cd240 2.240 . S
O241 C246 1.279 . S
O242 Cd239 2.297 . S
O242 C244 1.247 . S
O243 Cd239 2.439 . S
O243 C244 1.208 . S
C244 O242 1.247 . S
C244 O243 1.208 . S
C245 O250 1.247 . S
C245 O251 1.208 . S
C246 O238 1.315 . S
C246 O241 1.279 . S
C247 O248 1.315 . S
C247 O249 1.279 . S
O248 Cd240 2.223 . S
O248 C247 1.315 . S
O249 Cd239 2.240 . S
O249 C247 1.279 . S
O250 Cd240 2.297 . S
O250 C245 1.247 . S
O251 Cd240 2.439 . S
O251 C245 1.208 . S
O252 Cd253 2.223 . S
O252 C260 1.315 . S
Cd253 O252 2.223 . S
Cd253 O256 2.297 . S
Cd253 O257 2.439 . S
Cd253 O263 2.240 . S
Cd254 O255 2.240 . S
Cd254 O262 2.223 . S
Cd254 O264 2.297 . S
Cd254 O265 2.439 . S
O255 Cd254 2.240 . S
O255 C260 1.279 . S
O256 Cd253 2.297 . S
O256 C258 1.247 . S
O257 Cd253 2.439 . S
O257 C258 1.208 . S
C258 O256 1.247 . S
C258 O257 1.208 . S
C259 O264 1.247 . S
C259 O265 1.208 . S
C260 O252 1.315 . S
C260 O255 1.279 . S
C261 O262 1.315 . S
C261 O263 1.279 . S
O262 Cd254 2.223 . S
O262 C261 1.315 . S
O263 Cd253 2.240 . S
O263 C261 1.279 . S
O264 Cd254 2.297 . S
O264 C259 1.247 . S
O265 Cd254 2.439 . S
O265 C259 1.208 . S
O266 Cd267 2.223 . S
O266 C274 1.315 . S
Cd267 O266 2.223 . S
Cd267 O270 2.297 . S
Cd267 O271 2.439 . S
Cd267 O277 2.240 . S
Cd268 O269 2.240 . S
Cd268 O276 2.223 . S
Cd268 O278 2.297 . S
Cd268 O279 2.439 . S
O269 Cd268 2.240 . S
O269 C274 1.279 . S
O270 Cd267 2.297 . S
O270 C272 1.247 . S
O271 Cd267 2.439 . S
O271 C272 1.208 . S
C272 O270 1.247 . S
C272 O271 1.208 . S
C273 O278 1.247 . S
C273 O279 1.208 . S
C274 O266 1.315 . S
C274 O269 1.279 . S
C275 O276 1.315 . S
C275 O277 1.279 . S
O276 Cd268 2.223 . S
O276 C275 1.315 . S
O277 Cd267 2.240 . S
O277 C275 1.279 . S
O278 Cd268 2.297 . S
O278 C273 1.247 . S
O279 Cd268 2.439 . S
O279 C273 1.208 . S
O280 Cd281 2.223 . S
O280 C288 1.315 . S
Cd281 O280 2.223 . S
Cd281 O284 2.297 . S
Cd281 O285 2.439 . S
Cd281 O291 2.240 . S
Cd282 O283 2.240 . S
Cd282 O290 2.223 . S
Cd282 O292 2.297 . S
Cd282 O293 2.439 . S
O283 Cd282 2.240 . S
O283 C288 1.279 . S
O284 Cd281 2.297 . S
O284 C286 1.247 . S
O285 Cd281 2.439 . S
O285 C286 1.208 . S
C286 O284 1.247 . S
C286 O285 1.208 . S
C287 O292 1.247 . S
C287 O293 1.208 . S
C288 O280 1.315 . S
C288 O283 1.279 . S
C289 O290 1.315 . S
C289 O291 1.279 . S
O290 Cd282 2.223 . S
O290 C289 1.315 . S
O291 Cd281 2.240 . S
O291 C289 1.279 . S
O292 Cd282 2.297 . S
O292 C287 1.247 . S
O293 Cd282 2.439 . S
O293 C287 1.208 . S
O294 Cd295 2.223 . S
O294 C302 1.315 . S
Cd295 O294 2.223 . S
Cd295 O298 2.297 . S
Cd295 O299 2.439 . S
Cd295 O305 2.240 . S
Cd296 O297 2.240 . S
Cd296 O304 2.223 . S
Cd296 O306 2.297 . S
Cd296 O307 2.439 . S
O297 Cd296 2.240 . S
O297 C302 1.279 . S
O298 Cd295 2.297 . S
O298 C300 1.247 . S
O299 Cd295 2.439 . S
O299 C300 1.208 . S
C300 O298 1.247 . S
C300 O299 1.208 . S
C301 O306 1.247 . S
C301 O307 1.208 . S
C302 O294 1.315 . S
C302 O297 1.279 . S
C303 O304 1.315 . S
C303 O305 1.279 . S
O304 Cd296 2.223 . S
O304 C303 1.315 . S
O305 Cd295 2.240 . S
O305 C303 1.279 . S
O306 Cd296 2.297 . S
O306 C301 1.247 . S
O307 Cd296 2.439 . S
O307 C301 1.208 . S
O308 Cd309 2.223 . S
O308 C316 1.315 . S
Cd309 O308 2.223 . S
Cd309 O312 2.297 . S
Cd309 O313 2.439 . S
Cd309 O319 2.240 . S
Cd310 O311 2.240 . S
Cd310 O318 2.223 . S
Cd310 O320 2.297 1_554 S
Cd310 O321 2.439 . S
O311 Cd310 2.240 . S
O311 C316 1.279 . S
O312 Cd309 2.297 . S
O312 C314 1.247 . S
O313 Cd309 2.439 . S
O313 C314 1.208 . S
C314 O312 1.247 . S
C314 O313 1.208 . S
C315 O320 1.247 1_554 S
C315 O321 1.208 . S
C316 O308 1.315 . S
C316 O311 1.279 . S
C317 O318 1.315 . S
C317 O319 1.279 . S
O318 Cd310 2.223 . S
O318 C317 1.315 . S
O319 Cd309 2.240 . S
O319 C317 1.279 . S
O320 Cd310 2.297 1_556 S
O320 C315 1.247 1_556 S
O321 Cd310 2.439 . S
O321 C315 1.208 . S
O322 Cd323 2.223 . S
O322 C330 1.315 . S
Cd323 O322 2.223 . S
Cd323 O326 2.297 . S
Cd323 O327 2.439 . S
Cd323 O333 2.240 . S
Cd324 O325 2.240 . S
Cd324 O332 2.223 . S
Cd324 O334 2.297 . S
Cd324 O335 2.439 . S
O325 Cd324 2.240 . S
O325 C330 1.279 . S
O326 Cd323 2.297 . S
O326 C328 1.247 . S
O327 Cd323 2.439 . S
O327 C328 1.208 . S
C328 O326 1.247 . S
C328 O327 1.208 . S
C329 O334 1.247 . S
C329 O335 1.208 . S
C330 O322 1.315 . S
C330 O325 1.279 . S
C331 O332 1.315 . S
C331 O333 1.279 . S
O332 Cd324 2.223 . S
O332 C331 1.315 . S
O333 Cd323 2.240 . S
O333 C331 1.279 . S
O334 Cd324 2.297 . S
O334 C329 1.247 . S
O335 Cd324 2.439 . S
O335 C329 1.208 . S
O336 Cd337 2.223 . S
O336 C344 1.315 . S
Cd337 O336 2.223 . S
Cd337 O340 2.297 . S
Cd337 O341 2.439 . S
Cd337 O347 2.240 . S
Cd338 O339 2.240 . S
Cd338 O346 2.223 . S
Cd338 O348 2.297 1_554 S
Cd338 O349 2.439 . S
O339 Cd338 2.240 . S
O339 C344 1.279 . S
O340 Cd337 2.297 . S
O340 C342 1.247 . S
O341 Cd337 2.439 . S
O341 C342 1.208 . S
C342 O340 1.247 . S
C342 O341 1.208 . S
C343 O348 1.247 1_554 S
C343 O349 1.208 . S
C344 O336 1.315 . S
C344 O339 1.279 . S
C345 O346 1.315 . S
C345 O347 1.279 . S
O346 Cd338 2.223 . S
O346 C345 1.315 . S
O347 Cd337 2.240 . S
O347 C345 1.279 . S
O348 Cd338 2.297 1_556 S
O348 C343 1.247 1_556 S
O349 Cd338 2.439 . S
O349 C343 1.208 . S
O350 Cd351 2.223 . S
O350 C358 1.315 . S
Cd351 O350 2.223 . S
Cd351 O354 2.297 . S
Cd351 O355 2.439 . S
Cd351 O361 2.240 . S
Cd352 O353 2.240 . S
Cd352 O360 2.223 . S
Cd352 O362 2.297 . S
Cd352 O363 2.439 . S
O353 Cd352 2.240 . S
O353 C358 1.279 . S
O354 Cd351 2.297 . S
O354 C356 1.247 . S
O355 Cd351 2.439 . S
O355 C356 1.208 . S
C356 O354 1.247 . S
C356 O355 1.208 . S
C357 O362 1.247 . S
C357 O363 1.208 . S
C358 O350 1.315 . S
C358 O353 1.279 . S
C359 O360 1.315 . S
C359 O361 1.279 . S
O360 Cd352 2.223 . S
O360 C359 1.315 . S
O361 Cd351 2.240 . S
O361 C359 1.279 . S
O362 Cd352 2.297 . S
O362 C357 1.247 . S
O363 Cd352 2.439 . S
O363 C357 1.208 . S
O364 Cd365 2.223 . S
O364 C372 1.315 . S
Cd365 O364 2.223 . S
Cd365 O368 2.297 . S
Cd365 O369 2.439 . S
Cd365 O375 2.240 . S
Cd366 O367 2.240 . S
Cd366 O374 2.223 . S
Cd366 O376 2.297 . S
Cd366 O377 2.439 . S
O367 Cd366 2.240 . S
O367 C372 1.279 . S
O368 Cd365 2.297 . S
O368 C370 1.247 . S
O369 Cd365 2.439 . S
O369 C370 1.208 . S
C370 O368 1.247 . S
C370 O369 1.208 . S
C371 O376 1.247 . S
C371 O377 1.208 . S
C372 O364 1.315 . S
C372 O367 1.279 . S
C373 O374 1.315 . S
C373 O375 1.279 . S
O374 Cd366 2.223 . S
O374 C373 1.315 . S
O375 Cd365 2.240 . S
O375 C373 1.279 . S
O376 Cd366 2.297 . S
O376 C371 1.247 . S
O377 Cd366 2.439 . S
O377 C371 1.208 . S
O378 Cd379 2.223 . S
O378 C386 1.315 . S
Cd379 O378 2.223 . S
Cd379 O382 2.297 . S
Cd379 O383 2.439 . S
Cd379 O389 2.240 . S
Cd380 O381 2.240 . S
Cd380 O388 2.223 . S
Cd380 O390 2.297 . S
Cd380 O391 2.439 . S
O381 Cd380 2.240 . S
O381 C386 1.279 . S
O382 Cd379 2.297 . S
O382 C384 1.247 . S
O383 Cd379 2.439 . S
O383 C384 1.208 . S
C384 O382 1.247 . S
C384 O383 1.208 . S
C385 O390 1.247 . S
C385 O391 1.208 . S
C386 O378 1.315 . S
C386 O381 1.279 . S
C387 O388 1.315 . S
C387 O389 1.279 . S
O388 Cd380 2.223 . S
O388 C387 1.315 . S
O389 Cd379 2.240 . S
O389 C387 1.279 . S
O390 Cd380 2.297 . S
O390 C385 1.247 . S
O391 Cd380 2.439 . S
O391 C385 1.208 . S
O392 Cd393 2.223 . S
O392 C400 1.315 . S
Cd393 O392 2.223 . S
Cd393 O396 2.297 . S
Cd393 O397 2.439 . S
Cd393 O403 2.240 . S
Cd394 O395 2.240 . S
Cd394 O402 2.223 . S
Cd394 O404 2.297 . S
Cd394 O405 2.439 . S
O395 Cd394 2.240 . S
O395 C400 1.279 . S
O396 Cd393 2.297 . S
O396 C398 1.247 . S
O397 Cd393 2.439 . S
O397 C398 1.208 . S
C398 O396 1.247 . S
C398 O397 1.208 . S
C399 O404 1.247 . S
C399 O405 1.208 . S
C400 O392 1.315 . S
C400 O395 1.279 . S
C401 O402 1.315 . S
C401 O403 1.279 . S
O402 Cd394 2.223 . S
O402 C401 1.315 . S
O403 Cd393 2.240 . S
O403 C401 1.279 . S
O404 Cd394 2.297 . S
O404 C399 1.247 . S
O405 Cd394 2.439 . S
O405 C399 1.208 . S
O406 Cd407 2.223 . S
O406 C414 1.315 . S
Cd407 O406 2.223 . S
Cd407 O410 2.297 . S
Cd407 O411 2.439 . S
Cd407 O417 2.240 . S
Cd408 O409 2.240 . S
Cd408 O416 2.223 . S
Cd408 O418 2.297 . S
Cd408 O419 2.439 . S
O409 Cd408 2.240 . S
O409 C414 1.279 . S
O410 Cd407 2.297 . S
O410 C412 1.247 . S
O411 Cd407 2.439 . S
O411 C412 1.208 . S
C412 O410 1.247 . S
C412 O411 1.208 . S
C413 O418 1.247 . S
C413 O419 1.208 . S
C414 O406 1.315 . S
C414 O409 1.279 . S
C415 O416 1.315 . S
C415 O417 1.279 . S
O416 Cd408 2.223 . S
O416 C415 1.315 . S
O417 Cd407 2.240 . S
O417 C415 1.279 . S
O418 Cd408 2.297 . S
O418 C413 1.247 . S
O419 Cd408 2.439 . S
O419 C413 1.208 . S
O420 Cd421 2.223 . S
O420 C428 1.315 . S
Cd421 O420 2.223 . S
Cd421 O424 2.297 . S
Cd421 O425 2.439 . S
Cd421 O431 2.240 . S
Cd422 O423 2.240 . S
Cd422 O430 2.223 . S
Cd422 O432 2.297 1_556 S
Cd422 O433 2.439 . S
O423 Cd422 2.240 . S
O423 C428 1.279 . S
O424 Cd421 2.297 . S
O424 C426 1.247 . S
O425 Cd421 2.439 . S
O425 C426 1.208 . S
C426 O424 1.247 . S
C426 O425 1.208 . S
C427 O432 1.247 1_556 S
C427 O433 1.208 . S
C428 O420 1.315 . S
C428 O423 1.279 . S
C429 O430 1.315 . S
C429 O431 1.279 . S
O430 Cd422 2.223 . S
O430 C429 1.315 . S
O431 Cd421 2.240 . S
O431 C429 1.279 . S
O432 Cd422 2.297 1_554 S
O432 C427 1.247 1_554 S
O433 Cd422 2.439 . S
O433 C427 1.208 . S
O434 Cd435 2.223 . S
O434 C442 1.315 . S
Cd435 O434 2.223 . S
Cd435 O438 2.297 . S
Cd435 O439 2.439 . S
Cd435 O445 2.240 . S
Cd436 O437 2.240 . S
Cd436 O444 2.223 . S
Cd436 O446 2.297 . S
Cd436 O447 2.439 . S
O437 Cd436 2.240 . S
O437 C442 1.279 . S
O438 Cd435 2.297 . S
O438 C440 1.247 . S
O439 Cd435 2.439 . S
O439 C440 1.208 . S
C440 O438 1.247 . S
C440 O439 1.208 . S
C441 O446 1.247 . S
C441 O447 1.208 . S
C442 O434 1.315 . S
C442 O437 1.279 . S
C443 O444 1.315 . S
C443 O445 1.279 . S
O444 Cd436 2.223 . S
O444 C443 1.315 . S
O445 Cd435 2.240 . S
O445 C443 1.279 . S
O446 Cd436 2.297 . S
O446 C441 1.247 . S
O447 Cd436 2.439 . S
O447 C441 1.208 . S
C448 C449 1.391 . S
C448 C450 1.394 . S
C448 H464 0.931 . S
C449 C448 1.391 . S
C449 C453 1.376 . S
C450 C448 1.394 . S
C450 C451 1.369 . S
C450 C454 1.531 . S
C451 C450 1.369 . S
C451 C452 1.410 . S
C451 C459 1.503 1_545 S
C452 C451 1.410 . S
C452 C453 1.392 . S
C452 C455 1.511 1_545 S
C453 C449 1.376 . S
C453 C452 1.392 . S
C453 H465 0.929 . S
C454 C450 1.531 . S
C454 H466 0.960 . S
C454 H467 0.962 . S
C454 H468 0.960 . S
C455 C452 1.511 1_565 S
C455 H469 0.961 . S
C455 H470 0.961 . S
C455 H471 0.961 . S
C456 C457 1.370 . S
C456 C458 1.363 . S
C456 H472 0.931 . S
C457 C456 1.370 . S
C457 C461 1.408 . S
C458 C456 1.363 . S
C458 C459 1.370 . S
C458 C462 1.524 . S
C459 C451 1.503 1_565 S
C459 C458 1.370 . S
C459 C460 1.403 . S
C460 C459 1.403 . S
C460 C461 1.404 . S
C460 C463 1.539 . S
C461 C457 1.408 . S
C461 C460 1.404 . S
C461 H473 0.930 . S
C462 C458 1.524 . S
C462 H474 0.956 1_565 S
C462 H475 0.961 . S
C462 H476 0.961 . S
C463 C460 1.539 . S
C463 H477 0.958 1_565 S
C463 H478 0.961 . S
C463 H479 0.960 . S
H464 C448 0.931 . S
H465 C453 0.929 . S
H466 C454 0.960 . S
H467 C454 0.962 . S
H468 C454 0.960 . S
H469 C455 0.961 . S
H470 C455 0.961 . S
H471 C455 0.961 . S
H472 C456 0.931 . S
H473 C461 0.930 . S
H474 C462 0.956 1_545 S
H475 C462 0.961 . S
H476 C462 0.961 . S
H477 C463 0.958 1_545 S
H478 C463 0.961 . S
H479 C463 0.960 . S
C480 C481 1.391 . S
C480 C482 1.394 . S
C480 H496 0.931 . S
C481 C480 1.391 . S
C481 C485 1.376 . S
C482 C480 1.394 . S
C482 C483 1.369 . S
C482 C486 1.531 . S
C483 C482 1.369 . S
C483 C484 1.410 . S
C483 C491 1.503 . S
C484 C483 1.410 . S
C484 C485 1.392 . S
C484 C487 1.511 . S
C485 C481 1.376 . S
C485 C484 1.392 . S
C485 H497 0.929 . S
C486 C482 1.531 . S
C486 H498 0.960 . S
C486 H499 0.962 . S
C486 H500 0.960 . S
C487 C484 1.511 . S
C487 H501 0.961 . S
C487 H502 0.961 . S
C487 H503 0.961 . S
C488 C489 1.370 . S
C488 C490 1.363 . S
C488 H504 0.931 . S
C489 C488 1.370 . S
C489 C493 1.408 . S
C490 C488 1.363 . S
C490 C491 1.370 . S
C490 C494 1.524 . S
C491 C483 1.503 . S
C491 C490 1.370 . S
C491 C492 1.403 . S
C492 C491 1.403 . S
C492 C493 1.404 . S
C492 C495 1.539 . S
C493 C489 1.408 . S
C493 C492 1.404 . S
C493 H505 0.930 . S
C494 C490 1.524 . S
C494 H506 0.956 . S
C494 H507 0.961 . S
C494 H508 0.961 . S
C495 C492 1.539 . S
C495 H509 0.958 . S
C495 H510 0.961 . S
C495 H511 0.960 . S
H496 C480 0.931 . S
H497 C485 0.929 . S
H498 C486 0.960 . S
H499 C486 0.962 . S
H500 C486 0.960 . S
H501 C487 0.961 . S
H502 C487 0.961 . S
H503 C487 0.961 . S
H504 C488 0.931 . S
H505 C493 0.930 . S
H506 C494 0.956 . S
H507 C494 0.961 . S
H508 C494 0.961 . S
H509 C495 0.958 . S
H510 C495 0.961 . S
H511 C495 0.960 . S
C512 C513 1.391 . S
C512 C514 1.394 . S
C512 H528 0.931 . S
C513 C512 1.391 . S
C513 C517 1.376 . S
C514 C512 1.394 . S
C514 C515 1.369 . S
C514 C518 1.531 . S
C515 C514 1.369 . S
C515 C516 1.410 . S
C515 C523 1.503 1_545 S
C516 C515 1.410 . S
C516 C517 1.392 . S
C516 C519 1.511 1_545 S
C517 C513 1.376 . S
C517 C516 1.392 . S
C517 H529 0.929 . S
C518 C514 1.531 . S
C518 H530 0.960 1_545 S
C518 H531 0.962 . S
C518 H532 0.960 . S
C519 C516 1.511 1_565 S
C519 H533 0.961 1_565 S
C519 H534 0.961 . S
C519 H535 0.961 . S
C520 C521 1.370 . S
C520 C522 1.363 . S
C520 H536 0.931 . S
C521 C520 1.370 . S
C521 C525 1.408 . S
C522 C520 1.363 . S
C522 C523 1.370 . S
C522 C526 1.524 1_565 S
C523 C515 1.503 1_565 S
C523 C522 1.370 . S
C523 C524 1.403 . S
C524 C523 1.403 . S
C524 C525 1.404 . S
C524 C527 1.539 . S
C525 C521 1.408 . S
C525 C524 1.404 . S
C525 H537 0.930 . S
C526 C522 1.524 1_545 S
C526 H538 0.956 . S
C526 H539 0.961 . S
C526 H540 0.961 . S
C527 C524 1.539 . S
C527 H541 0.958 . S
C527 H542 0.961 . S
C527 H543 0.960 . S
H528 C512 0.931 . S
H529 C517 0.929 . S
H530 C518 0.960 1_565 S
H531 C518 0.962 . S
H532 C518 0.960 . S
H533 C519 0.961 1_545 S
H534 C519 0.961 . S
H535 C519 0.961 . S
H536 C520 0.931 . S
H537 C525 0.930 . S
H538 C526 0.956 . S
H539 C526 0.961 . S
H540 C526 0.961 . S
H541 C527 0.958 . S
H542 C527 0.961 . S
H543 C527 0.960 . S
C544 C545 1.391 . S
C544 C546 1.394 . S
C544 H560 0.931 . S
C545 C544 1.391 . S
C545 C549 1.376 . S
C546 C544 1.394 . S
C546 C547 1.369 . S
C546 C550 1.531 1_556 S
C547 C546 1.369 . S
C547 C548 1.410 . S
C547 C555 1.503 1_556 S
C548 C547 1.410 . S
C548 C549 1.392 . S
C548 C551 1.511 . S
C549 C545 1.376 . S
C549 C548 1.392 . S
C549 H561 0.929 . S
C550 C546 1.531 1_554 S
C550 H562 0.960 . S
C550 H563 0.962 . S
C550 H564 0.960 . S
C551 C548 1.511 . S
C551 H565 0.961 . S
C551 H566 0.961 . S
C551 H567 0.961 . S
C552 C553 1.370 . S
C552 C554 1.363 . S
C552 H568 0.931 . S
C553 C552 1.370 . S
C553 C557 1.408 . S
C554 C552 1.363 . S
C554 C555 1.370 . S
C554 C558 1.524 1_554 S
C555 C547 1.503 1_554 S
C555 C554 1.370 . S
C555 C556 1.403 . S
C556 C555 1.403 . S
C556 C557 1.404 . S
C556 C559 1.539 . S
C557 C553 1.408 . S
C557 C556 1.404 . S
C557 H569 0.930 . S
C558 C554 1.524 1_556 S
C558 H570 0.956 . S
C558 H571 0.961 . S
C558 H572 0.961 . S
C559 C556 1.539 . S
C559 H573 0.958 . S
C559 H574 0.961 . S
C559 H575 0.960 . S
H560 C544 0.931 . S
H561 C549 0.929 . S
H562 C550 0.960 . S
H563 C550 0.962 . S
H564 C550 0.960 . S
H565 C551 0.961 . S
H566 C551 0.961 . S
H567 C551 0.961 . S
H568 C552 0.931 . S
H569 C557 0.930 . S
H570 C558 0.956 . S
H571 C558 0.961 . S
H572 C558 0.961 . S
H573 C559 0.958 . S
H574 C559 0.961 . S
H575 C559 0.960 . S
C576 C577 1.391 . S
C576 C578 1.394 . S
C576 H592 0.931 . S
C577 C576 1.391 . S
C577 C581 1.376 . S
C578 C576 1.394 . S
C578 C579 1.369 . S
C578 C582 1.531 1_565 S
C579 C578 1.369 . S
C579 C580 1.410 . S
C579 C587 1.503 1_565 S
C580 C579 1.410 . S
C580 C581 1.392 . S
C580 C583 1.511 . S
C581 C577 1.376 . S
C581 C580 1.392 . S
C581 H593 0.929 . S
C582 C578 1.531 1_545 S
C582 H594 0.960 . S
C582 H595 0.962 . S
C582 H596 0.960 . S
C583 C580 1.511 . S
C583 H597 0.961 . S
C583 H598 0.961 . S
C583 H599 0.961 . S
C584 C585 1.370 . S
C584 C586 1.363 . S
C584 H600 0.931 . S
C585 C584 1.370 . S
C585 C589 1.408 . S
C586 C584 1.363 . S
C586 C587 1.370 . S
C586 C590 1.524 1_545 S
C587 C579 1.503 1_545 S
C587 C586 1.370 . S
C587 C588 1.403 . S
C588 C587 1.403 . S
C588 C589 1.404 . S
C588 C591 1.539 . S
C589 C585 1.408 . S
C589 C588 1.404 . S
C589 H601 0.930 . S
C590 C586 1.524 1_565 S
C590 H602 0.956 . S
C590 H603 0.961 . S
C590 H604 0.961 . S
C591 C588 1.539 . S
C591 H605 0.958 . S
C591 H606 0.961 . S
C591 H607 0.960 . S
H592 C576 0.931 . S
H593 C581 0.929 . S
H594 C582 0.960 . S
H595 C582 0.962 . S
H596 C582 0.960 . S
H597 C583 0.961 . S
H598 C583 0.961 . S
H599 C583 0.961 . S
H600 C584 0.931 . S
H601 C589 0.930 . S
H602 C590 0.956 . S
H603 C590 0.961 . S
H604 C590 0.961 . S
H605 C591 0.958 . S
H606 C591 0.961 . S
H607 C591 0.960 . S
C608 C609 1.391 . S
C608 C610 1.394 . S
C608 H624 0.931 . S
C609 C608 1.391 . S
C609 C613 1.376 . S
C610 C608 1.394 . S
C610 C611 1.369 . S
C610 C614 1.531 . S
C611 C610 1.369 . S
C611 C612 1.410 . S
C611 C619 1.503 . S
C612 C611 1.410 . S
C612 C613 1.392 . S
C612 C615 1.511 . S
C613 C609 1.376 . S
C613 C612 1.392 . S
C613 H625 0.929 . S
C614 C610 1.531 . S
C614 H626 0.960 . S
C614 H627 0.962 . S
C614 H628 0.960 . S
C615 C612 1.511 . S
C615 H629 0.961 . S
C615 H630 0.961 . S
C615 H631 0.961 . S
C616 C617 1.370 . S
C616 C618 1.363 . S
C616 H632 0.931 . S
C617 C616 1.370 . S
C617 C621 1.408 . S
C618 C616 1.363 . S
C618 C619 1.370 . S
C618 C622 1.524 . S
C619 C611 1.503 . S
C619 C618 1.370 . S
C619 C620 1.403 . S
C620 C619 1.403 . S
C620 C621 1.404 . S
C620 C623 1.539 . S
C621 C617 1.408 . S
C621 C620 1.404 . S
C621 H633 0.930 . S
C622 C618 1.524 . S
C622 H634 0.956 . S
C622 H635 0.961 . S
C622 H636 0.961 . S
C623 C620 1.539 . S
C623 H637 0.958 . S
C623 H638 0.961 . S
C623 H639 0.960 . S
H624 C608 0.931 . S
H625 C613 0.929 . S
H626 C614 0.960 . S
H627 C614 0.962 . S
H628 C614 0.960 . S
H629 C615 0.961 . S
H630 C615 0.961 . S
H631 C615 0.961 . S
H632 C616 0.931 . S
H633 C621 0.930 . S
H634 C622 0.956 . S
H635 C622 0.961 . S
H636 C622 0.961 . S
H637 C623 0.958 . S
H638 C623 0.961 . S
H639 C623 0.960 . S
C640 C641 1.391 . S
C640 C642 1.394 . S
C640 H656 0.931 . S
C641 C640 1.391 . S
C641 C645 1.376 . S
C642 C640 1.394 . S
C642 C643 1.369 . S
C642 C646 1.531 . S
C643 C642 1.369 . S
C643 C644 1.410 . S
C643 C651 1.503 1_565 S
C644 C643 1.410 . S
C644 C645 1.392 . S
C644 C647 1.511 1_565 S
C645 C641 1.376 . S
C645 C644 1.392 . S
C645 H657 0.929 . S
C646 C642 1.531 . S
C646 H658 0.960 . S
C646 H659 0.962 . S
C646 H660 0.960 . S
C647 C644 1.511 1_545 S
C647 H661 0.961 . S
C647 H662 0.961 . S
C647 H663 0.961 . S
C648 C649 1.370 . S
C648 C650 1.363 . S
C648 H664 0.931 . S
C649 C648 1.370 . S
C649 C653 1.408 . S
C650 C648 1.363 . S
C650 C651 1.370 . S
C650 C654 1.524 1_545 S
C651 C643 1.503 1_545 S
C651 C650 1.370 . S
C651 C652 1.403 . S
C652 C651 1.403 . S
C652 C653 1.404 . S
C652 C655 1.539 . S
C653 C649 1.408 . S
C653 C652 1.404 . S
C653 H665 0.930 . S
C654 C650 1.524 1_565 S
C654 H666 0.956 . S
C654 H667 0.961 . S
C654 H668 0.967 . S
C655 C652 1.539 . S
C655 H669 0.958 . S
C655 H670 0.961 . S
C655 H671 0.960 . S
H656 C640 0.931 . S
H657 C645 0.929 . S
H658 C646 0.960 . S
H659 C646 0.962 . S
H660 C646 0.960 . S
H661 C647 0.961 . S
H662 C647 0.961 . S
H663 C647 0.961 . S
H664 C648 0.931 . S
H665 C653 0.930 . S
H666 C654 0.956 . S
H667 C654 0.961 . S
H668 C654 0.967 . S
H669 C655 0.958 . S
H670 C655 0.961 . S
H671 C655 0.960 . S
C672 C673 1.391 . S
C672 C674 1.394 . S
C672 H688 0.931 . S
C673 C672 1.391 . S
C673 C677 1.376 . S
C674 C672 1.394 . S
C674 C675 1.369 . S
C674 C678 1.531 1_556 S
C675 C674 1.369 . S
C675 C676 1.410 . S
C675 C683 1.503 1_556 S
C676 C675 1.410 . S
C676 C677 1.392 . S
C676 C679 1.511 . S
C677 C673 1.376 . S
C677 C676 1.392 . S
C677 H689 0.929 . S
C678 C674 1.531 1_554 S
C678 H690 0.960 . S
C678 H691 0.962 . S
C678 H692 0.960 . S
C679 C676 1.511 . S
C679 H693 0.961 . S
C679 H694 0.961 . S
C679 H695 0.961 . S
C680 C681 1.370 . S
C680 C682 1.363 . S
C680 H696 0.931 . S
C681 C680 1.370 . S
C681 C685 1.408 . S
C682 C680 1.363 . S
C682 C683 1.370 . S
C682 C686 1.524 . S
C683 C675 1.503 1_554 S
C683 C682 1.370 . S
C683 C684 1.403 . S
C684 C683 1.403 . S
C684 C685 1.404 . S
C684 C687 1.539 1_554 S
C685 C681 1.408 . S
C685 C684 1.404 . S
C685 H697 0.930 . S
C686 C682 1.524 . S
C686 H698 0.956 . S
C686 H699 0.961 . S
C686 H700 0.961 . S
C687 C684 1.539 1_556 S
C687 H701 0.958 1_556 S
C687 H702 0.961 . S
C687 H703 0.960 . S
H688 C672 0.931 . S
H689 C677 0.929 . S
H690 C678 0.960 . S
H691 C678 0.962 . S
H692 C678 0.960 . S
H693 C679 0.961 . S
H694 C679 0.961 . S
H695 C679 0.961 . S
H696 C680 0.931 . S
H697 C685 0.930 . S
H698 C686 0.956 . S
H699 C686 0.961 . S
H700 C686 0.961 . S
H701 C687 0.958 1_554 S
H702 C687 0.961 . S
H703 C687 0.960 . S
C704 C705 1.391 . S
C704 C706 1.394 . S
C704 H720 0.931 . S
C705 C704 1.391 . S
C705 C709 1.376 . S
C706 C704 1.394 . S
C706 C707 1.369 . S
C706 C710 1.531 . S
C707 C706 1.369 . S
C707 C708 1.410 . S
C707 C715 1.503 . S
C708 C707 1.410 . S
C708 C709 1.392 . S
C708 C711 1.511 . S
C709 C705 1.376 . S
C709 C708 1.392 . S
C709 H721 0.929 . S
C710 C706 1.531 . S
C710 H722 0.960 . S
C710 H723 0.962 . S
C710 H724 0.960 . S
C711 C708 1.511 . S
C711 H725 0.961 . S
C711 H726 0.961 . S
C711 H727 0.961 . S
C712 C713 1.370 . S
C712 C714 1.363 . S
C712 H728 0.931 . S
C713 C712 1.370 . S
C713 C717 1.408 . S
C714 C712 1.363 . S
C714 C715 1.370 . S
C714 C718 1.524 . S
C715 C707 1.503 . S
C715 C714 1.370 . S
C715 C716 1.403 . S
C716 C715 1.403 . S
C716 C717 1.404 . S
C716 C719 1.539 . S
C717 C713 1.408 . S
C717 C716 1.404 . S
C717 H729 0.930 . S
C718 C714 1.524 . S
C718 H730 0.956 . S
C718 H731 0.961 . S
C718 H732 0.961 . S
C719 C716 1.539 . S
C719 H733 0.958 . S
C719 H734 0.961 . S
C719 H735 0.960 . S
H720 C704 0.931 . S
H721 C709 0.929 . S
H722 C710 0.960 . S
H723 C710 0.962 . S
H724 C710 0.960 . S
H725 C711 0.961 . S
H726 C711 0.961 . S
H727 C711 0.961 . S
H728 C712 0.931 . S
H729 C717 0.930 . S
H730 C718 0.956 . S
H731 C718 0.961 . S
H732 C718 0.961 . S
H733 C719 0.958 . S
H734 C719 0.961 . S
H735 C719 0.960 . S
C736 C737 1.391 . S
C736 C738 1.394 . S
C736 H752 0.931 . S
C737 C736 1.391 . S
C737 C741 1.376 . S
C738 C736 1.394 . S
C738 C739 1.369 . S
C738 C742 1.531 . S
C739 C738 1.369 . S
C739 C740 1.410 . S
C739 C747 1.503 1_556 S
C740 C739 1.410 . S
C740 C741 1.392 . S
C740 C743 1.511 1_556 S
C741 C737 1.376 . S
C741 C740 1.392 . S
C741 H753 0.929 . S
C742 C738 1.531 . S
C742 H754 0.960 . S
C742 H755 0.962 . S
C742 H756 0.960 . S
C743 C740 1.511 1_554 S
C743 H757 0.961 . S
C743 H758 0.961 . S
C743 H759 0.961 . S
C744 C745 1.370 . S
C744 C746 1.363 . S
C744 H760 0.931 . S
C745 C744 1.370 . S
C745 C749 1.408 . S
C746 C744 1.363 . S
C746 C747 1.370 . S
C746 C750 1.524 1_554 S
C747 C739 1.503 1_554 S
C747 C746 1.370 . S
C747 C748 1.403 . S
C748 C747 1.403 . S
C748 C749 1.404 . S
C748 C751 1.539 . S
C749 C745 1.408 . S
C749 C748 1.404 . S
C749 H761 0.930 . S
C750 C746 1.524 1_556 S
C750 H762 0.956 . S
C750 H763 0.962 . S
C750 H764 0.961 1_556 S
C751 C748 1.539 . S
C751 H765 0.958 . S
C751 H766 0.961 . S
C751 H767 0.960 . S
H752 C736 0.931 . S
H753 C741 0.929 . S
H754 C742 0.960 . S
H755 C742 0.962 . S
H756 C742 0.960 . S
H757 C743 0.961 . S
H758 C743 0.961 . S
H759 C743 0.961 . S
H760 C744 0.931 . S
H761 C749 0.930 . S
H762 C750 0.956 . S
H763 C750 0.962 . S
H764 C750 0.961 1_554 S
H765 C751 0.958 . S
H766 C751 0.961 . S
H767 C751 0.960 . S
C768 C769 1.391 . S
C768 C770 1.394 . S
C768 H784 0.931 . S
C769 C768 1.391 . S
C769 C773 1.376 . S
C770 C768 1.394 . S
C770 C771 1.369 . S
C770 C774 1.531 . S
C771 C770 1.369 . S
C771 C772 1.410 . S
C771 C779 1.503 . S
C772 C771 1.410 . S
C772 C773 1.392 . S
C772 C775 1.511 . S
C773 C769 1.376 . S
C773 C772 1.392 . S
C773 H785 0.929 . S
C774 C770 1.531 . S
C774 H786 0.960 . S
C774 H787 0.962 . S
C774 H788 0.960 . S
C775 C772 1.511 . S
C775 H789 0.961 . S
C775 H790 0.961 . S
C775 H791 0.961 . S
C776 C777 1.370 . S
C776 C778 1.363 . S
C776 H792 0.931 . S
C777 C776 1.370 . S
C777 C781 1.408 . S
C778 C776 1.363 . S
C778 C779 1.370 . S
C778 C782 1.524 . S
C779 C771 1.503 . S
C779 C778 1.370 . S
C779 C780 1.403 . S
C780 C779 1.403 . S
C780 C781 1.404 . S
C780 C783 1.539 . S
C781 C777 1.408 . S
C781 C780 1.404 . S
C781 H793 0.930 . S
C782 C778 1.524 . S
C782 H794 0.956 . S
C782 H795 0.961 . S
C782 H796 0.961 . S
C783 C780 1.539 . S
C783 H797 0.958 . S
C783 H798 0.961 . S
C783 H799 0.960 . S
H784 C768 0.931 . S
H785 C773 0.929 . S
H786 C774 0.960 . S
H787 C774 0.962 . S
H788 C774 0.960 . S
H789 C775 0.961 . S
H790 C775 0.961 . S
H791 C775 0.961 . S
H792 C776 0.931 . S
H793 C781 0.930 . S
H794 C782 0.956 . S
H795 C782 0.961 . S
H796 C782 0.961 . S
H797 C783 0.958 . S
H798 C783 0.961 . S
H799 C783 0.960 . S
C800 C801 1.391 . S
C800 C802 1.394 . S
C800 H816 0.931 . S
C801 C800 1.391 . S
C801 C805 1.376 . S
C802 C800 1.394 . S
C802 C803 1.369 . S
C802 C806 1.531 . S
C803 C802 1.369 . S
C803 C804 1.410 . S
C803 C811 1.503 . S
C804 C803 1.410 . S
C804 C805 1.392 . S
C804 C807 1.511 . S
C805 C801 1.376 . S
C805 C804 1.392 . S
C805 H817 0.929 . S
C806 C802 1.531 . S
C806 H818 0.960 . S
C806 H819 0.962 . S
C806 H820 0.960 . S
C807 C804 1.511 . S
C807 H821 0.961 . S
C807 H822 0.961 . S
C807 H823 0.961 . S
C808 C809 1.370 . S
C808 C810 1.363 . S
C808 H824 0.931 . S
C809 C808 1.370 . S
C809 C813 1.408 . S
C810 C808 1.363 . S
C810 C811 1.370 . S
C810 C814 1.524 . S
C811 C803 1.503 . S
C811 C810 1.370 . S
C811 C812 1.403 . S
C812 C811 1.403 . S
C812 C813 1.404 . S
C812 C815 1.539 . S
C813 C809 1.408 . S
C813 C812 1.404 . S
C813 H825 0.930 . S
C814 C810 1.524 . S
C814 H826 0.956 . S
C814 H827 0.961 . S
C814 H828 0.961 . S
C815 C812 1.539 . S
C815 H829 0.958 . S
C815 H830 0.961 . S
C815 H831 0.960 . S
H816 C800 0.931 . S
H817 C805 0.929 . S
H818 C806 0.960 . S
H819 C806 0.962 . S
H820 C806 0.960 . S
H821 C807 0.961 . S
H822 C807 0.961 . S
H823 C807 0.961 . S
H824 C808 0.931 . S
H825 C813 0.930 . S
H826 C814 0.956 . S
H827 C814 0.961 . S
H828 C814 0.961 . S
H829 C815 0.958 . S
H830 C815 0.961 . S
H831 C815 0.960 . S
C832 C833 1.391 . S
C832 C834 1.394 . S
C832 H848 0.931 . S
C833 C832 1.391 . S
C833 C837 1.376 . S
C834 C832 1.394 . S
C834 C835 1.369 . S
C834 C838 1.531 . S
C835 C834 1.369 . S
C835 C836 1.410 . S
C835 C843 1.503 . S
C836 C835 1.410 . S
C836 C837 1.392 . S
C836 C839 1.511 . S
C837 C833 1.376 . S
C837 C836 1.392 . S
C837 H849 0.929 . S
C838 C834 1.531 . S
C838 H850 0.960 . S
C838 H851 0.962 . S
C838 H852 0.960 . S
C839 C836 1.511 . S
C839 H853 0.961 . S
C839 H854 0.961 . S
C839 H855 0.961 . S
C840 C841 1.370 . S
C840 C842 1.363 . S
C840 H856 0.931 . S
C841 C840 1.370 . S
C841 C845 1.408 . S
C842 C840 1.363 . S
C842 C843 1.370 . S
C842 C846 1.524 . S
C843 C835 1.503 . S
C843 C842 1.370 . S
C843 C844 1.403 . S
C844 C843 1.403 . S
C844 C845 1.404 . S
C844 C847 1.539 . S
C845 C841 1.408 . S
C845 C844 1.404 . S
C845 H857 0.930 . S
C846 C842 1.524 . S
C846 H858 0.956 . S
C846 H859 0.961 . S
C846 H860 0.961 . S
C847 C844 1.539 . S
C847 H861 0.958 . S
C847 H862 0.961 . S
C847 H863 0.960 . S
H848 C832 0.931 . S
H849 C837 0.929 . S
H850 C838 0.960 . S
H851 C838 0.962 . S
H852 C838 0.960 . S
H853 C839 0.961 . S
H854 C839 0.961 . S
H855 C839 0.961 . S
H856 C840 0.931 . S
H857 C845 0.930 . S
H858 C846 0.956 . S
H859 C846 0.961 . S
H860 C846 0.961 . S
H861 C847 0.958 . S
H862 C847 0.961 . S
H863 C847 0.960 . S
C864 C865 1.391 . S
C864 C866 1.394 . S
C864 H880 0.931 . S
C865 C864 1.391 . S
C865 C869 1.376 . S
C866 C864 1.394 . S
C866 C867 1.369 . S
C866 C870 1.531 1_554 S
C867 C866 1.369 . S
C867 C868 1.410 . S
C867 C875 1.503 1_554 S
C868 C867 1.410 . S
C868 C869 1.392 . S
C868 C871 1.511 . S
C869 C865 1.376 . S
C869 C868 1.392 . S
C869 H881 0.929 . S
C870 C866 1.531 1_556 S
C870 H882 0.960 . S
C870 H883 0.962 1_556 S
C870 H884 0.960 . S
C871 C868 1.511 . S
C871 H885 0.961 . S
C871 H886 0.961 . S
C871 H887 0.961 . S
C872 C873 1.370 . S
C872 C874 1.363 . S
C872 H888 0.931 . S
C873 C872 1.370 . S
C873 C877 1.408 . S
C874 C872 1.363 . S
C874 C875 1.370 . S
C874 C878 1.524 1_556 S
C875 C867 1.503 1_556 S
C875 C874 1.370 . S
C875 C876 1.403 . S
C876 C875 1.403 . S
C876 C877 1.404 . S
C876 C879 1.539 . S
C877 C873 1.408 . S
C877 C876 1.404 . S
C877 H889 0.930 . S
C878 C874 1.524 1_554 S
C878 H890 0.956 . S
C878 H891 0.961 . S
C878 H892 0.961 . S
C879 C876 1.539 . S
C879 H893 0.958 . S
C879 H894 0.961 . S
C879 H895 0.960 . S
H880 C864 0.931 . S
H881 C869 0.929 . S
H882 C870 0.960 . S
H883 C870 0.962 1_554 S
H884 C870 0.960 . S
H885 C871 0.961 . S
H886 C871 0.961 . S
H887 C871 0.961 . S
H888 C872 0.931 . S
H889 C877 0.930 . S
H890 C878 0.956 . S
H891 C878 0.961 . S
H892 C878 0.961 . S
H893 C879 0.958 . S
H894 C879 0.961 . S
H895 C879 0.960 . S
C896 C897 1.391 . S
C896 C898 1.394 . S
C896 H912 0.931 . S
C897 C896 1.391 . S
C897 C901 1.376 . S
C898 C896 1.394 . S
C898 C899 1.369 . S
C898 C902 1.531 . S
C899 C898 1.369 . S
C899 C900 1.410 . S
C899 C907 1.503 . S
C900 C899 1.410 . S
C900 C901 1.392 . S
C900 C903 1.511 . S
C901 C897 1.376 . S
C901 C900 1.392 . S
C901 H913 0.929 . S
C902 C898 1.531 . S
C902 H914 0.960 . S
C902 H915 0.962 . S
C902 H916 0.960 . S
C903 C900 1.511 . S
C903 H917 0.961 . S
C903 H918 0.961 . S
C903 H919 0.961 . S
C904 C905 1.370 . S
C904 C906 1.363 . S
C904 H920 0.931 . S
C905 C904 1.370 . S
C905 C909 1.408 . S
C906 C904 1.363 . S
C906 C907 1.370 . S
C906 C910 1.524 . S
C907 C899 1.503 . S
C907 C906 1.370 . S
C907 C908 1.403 . S
C908 C907 1.403 . S
C908 C909 1.404 . S
C908 C911 1.539 . S
C909 C905 1.408 . S
C909 C908 1.404 . S
C909 H921 0.930 . S
C910 C906 1.524 . S
C910 H922 0.956 . S
C910 H923 0.961 . S
C910 H924 0.961 . S
C911 C908 1.539 . S
C911 H925 0.958 . S
C911 H926 0.961 . S
C911 H927 0.960 . S
H912 C896 0.931 . S
H913 C901 0.929 . S
H914 C902 0.960 . S
H915 C902 0.962 . S
H916 C902 0.960 . S
H917 C903 0.961 . S
H918 C903 0.961 . S
H919 C903 0.961 . S
H920 C904 0.931 . S
H921 C909 0.930 . S
H922 C910 0.956 . S
H923 C910 0.961 . S
H924 C910 0.961 . S
H925 C911 0.958 . S
H926 C911 0.961 . S
H927 C911 0.960 . S
C928 C929 1.391 . S
C928 C930 1.394 . S
C928 H944 0.931 . S
C929 C928 1.391 . S
C929 C933 1.376 . S
C930 C928 1.394 . S
C930 C931 1.369 . S
C930 C934 1.531 . S
C931 C930 1.369 . S
C931 C932 1.410 . S
C931 C939 1.503 . S
C932 C931 1.410 . S
C932 C933 1.392 . S
C932 C935 1.511 . S
C933 C929 1.376 . S
C933 C932 1.392 . S
C933 H945 0.929 . S
C934 C930 1.531 . S
C934 H946 0.960 . S
C934 H947 0.962 . S
C934 H948 0.960 . S
C935 C932 1.511 . S
C935 H949 0.961 . S
C935 H950 0.961 . S
C935 H951 0.961 . S
C936 C937 1.370 . S
C936 C938 1.363 . S
C936 H952 0.931 . S
C937 C936 1.370 . S
C937 C941 1.408 . S
C938 C936 1.363 . S
C938 C939 1.370 . S
C938 C942 1.524 . S
C939 C931 1.503 . S
C939 C938 1.370 . S
C939 C940 1.403 . S
C940 C939 1.403 . S
C940 C941 1.404 . S
C940 C943 1.539 . S
C941 C937 1.408 . S
C941 C940 1.404 . S
C941 H953 0.930 . S
C942 C938 1.524 . S
C942 H954 0.956 . S
C942 H955 0.961 . S
C942 H956 0.961 . S
C943 C940 1.539 . S
C943 H957 0.958 . S
C943 H958 0.961 . S
C943 H959 0.960 . S
H944 C928 0.931 . S
H945 C933 0.929 . S
H946 C934 0.960 . S
H947 C934 0.962 . S
H948 C934 0.960 . S
H949 C935 0.961 . S
H950 C935 0.961 . S
H951 C935 0.961 . S
H952 C936 0.931 . S
H953 C941 0.930 . S
H954 C942 0.956 . S
H955 C942 0.961 . S
H956 C942 0.961 . S
H957 C943 0.958 . S
H958 C943 0.961 . S
H959 C943 0.960 . S
C960 C961 1.391 . S
C960 C962 1.394 . S
C960 H976 0.931 . S
C961 C960 1.391 . S
C961 C965 1.376 . S
C962 C960 1.394 . S
C962 C963 1.369 . S
C962 C966 1.531 . S
C963 C962 1.369 . S
C963 C964 1.410 . S
C963 C971 1.503 . S
C964 C963 1.410 . S
C964 C965 1.392 . S
C964 C967 1.511 . S
C965 C961 1.376 . S
C965 C964 1.392 . S
C965 H977 0.929 . S
C966 C962 1.531 . S
C966 H978 0.960 . S
C966 H979 0.962 . S
C966 H980 0.960 . S
C967 C964 1.511 . S
C967 H981 0.961 . S
C967 H982 0.961 . S
C967 H983 0.961 . S
C968 C969 1.370 . S
C968 C970 1.363 . S
C968 H984 0.931 . S
C969 C968 1.370 . S
C969 C973 1.408 . S
C970 C968 1.363 . S
C970 C971 1.370 . S
C970 C974 1.524 . S
C971 C963 1.503 . S
C971 C970 1.370 . S
C971 C972 1.403 . S
C972 C971 1.403 . S
C972 C973 1.404 . S
C972 C975 1.539 . S
C973 C969 1.408 . S
C973 C972 1.404 . S
C973 H985 0.930 . S
C974 C970 1.524 . S
C974 H986 0.956 . S
C974 H987 0.961 . S
C974 H988 0.961 . S
C975 C972 1.539 . S
C975 H989 0.958 . S
C975 H990 0.961 . S
C975 H991 0.960 . S
H976 C960 0.931 . S
H977 C965 0.929 . S
H978 C966 0.960 . S
H979 C966 0.962 . S
H980 C966 0.960 . S
H981 C967 0.961 . S
H982 C967 0.961 . S
H983 C967 0.961 . S
H984 C968 0.931 . S
H985 C973 0.930 . S
H986 C974 0.956 . S
H987 C974 0.961 . S
H988 C974 0.961 . S
H989 C975 0.958 . S
H990 C975 0.961 . S
H991 C975 0.960 . S
C992 C993 1.391 . S
C992 C994 1.394 . S
C992 H1008 0.931 . S
C993 C992 1.391 . S
C993 C997 1.376 . S
C994 C992 1.394 . S
C994 C995 1.369 1_655 S
C994 C998 1.531 1_655 S
C995 C994 1.369 1_455 S
C995 C996 1.410 1_455 S
C995 C1003 1.503 . S
C996 C995 1.410 1_655 S
C996 C997 1.392 . S
C996 C999 1.506 1_655 S
C997 C993 1.376 . S
C997 C996 1.392 . S
C997 H1009 0.929 . S
C998 C994 1.531 1_455 S
C998 H1010 0.960 . S
C998 H1011 0.962 . S
C998 H1012 0.960 . S
C999 C996 1.506 1_455 S
C999 H1013 0.951 1_455 S
C999 H1014 0.975 . S
C999 H1015 0.962 . S
C1000 C1001 1.370 . S
C1000 C1002 1.363 . S
C1000 H1016 0.931 . S
C1001 C1000 1.370 . S
C1001 C1005 1.408 . S
C1002 C1000 1.363 . S
C1002 C1003 1.370 . S
C1002 C1006 1.524 . S
C1003 C995 1.503 . S
C1003 C1002 1.370 . S
C1003 C1004 1.403 . S
C1004 C1003 1.403 . S
C1004 C1005 1.404 . S
C1004 C1007 1.539 . S
C1005 C1001 1.408 . S
C1005 C1004 1.404 . S
C1005 H1017 0.930 . S
C1006 C1002 1.524 . S
C1006 H1018 0.956 . S
C1006 H1019 0.961 . S
C1006 H1020 0.961 . S
C1007 C1004 1.539 . S
C1007 H1021 0.958 . S
C1007 H1022 0.961 . S
C1007 H1023 0.960 . S
H1008 C992 0.931 . S
H1009 C997 0.929 . S
H1010 C998 0.960 . S
H1011 C998 0.962 . S
H1012 C998 0.960 . S
H1013 C999 0.951 1_655 S
H1014 C999 0.975 . S
H1015 C999 0.962 . S
H1016 C1000 0.931 . S
H1017 C1005 0.930 . S
H1018 C1006 0.956 . S
H1019 C1006 0.961 . S
H1020 C1006 0.961 . S
H1021 C1007 0.958 . S
H1022 C1007 0.961 . S
H1023 C1007 0.960 . S
C1024 C1025 1.391 . S
C1024 C1026 1.394 . S
C1024 H1040 0.931 . S
C1025 C1024 1.391 . S
C1025 C1029 1.376 . S
C1026 C1024 1.394 . S
C1026 C1027 1.369 . S
C1026 C1030 1.531 . S
C1027 C1026 1.369 . S
C1027 C1028 1.410 . S
C1027 C1035 1.503 . S
C1028 C1027 1.410 . S
C1028 C1029 1.392 . S
C1028 C1031 1.511 . S
C1029 C1025 1.376 . S
C1029 C1028 1.392 . S
C1029 H1041 0.929 . S
C1030 C1026 1.531 . S
C1030 H1042 0.960 . S
C1030 H1043 0.962 . S
C1030 H1044 0.960 . S
C1031 C1028 1.511 . S
C1031 H1045 0.961 . S
C1031 H1046 0.961 . S
C1031 H1047 0.961 . S
C1032 C1033 1.370 . S
C1032 C1034 1.363 . S
C1032 H1048 0.931 . S
C1033 C1032 1.370 . S
C1033 C1037 1.408 . S
C1034 C1032 1.363 . S
C1034 C1035 1.370 . S
C1034 C1038 1.524 . S
C1035 C1027 1.503 . S
C1035 C1034 1.370 . S
C1035 C1036 1.403 . S
C1036 C1035 1.403 . S
C1036 C1037 1.404 . S
C1036 C1039 1.539 . S
C1037 C1033 1.408 . S
C1037 C1036 1.404 . S
C1037 H1049 0.930 . S
C1038 C1034 1.524 . S
C1038 H1050 0.956 . S
C1038 H1051 0.961 . S
C1038 H1052 0.961 . S
C1039 C1036 1.539 . S
C1039 H1053 0.958 . S
C1039 H1054 0.961 . S
C1039 H1055 0.960 . S
H1040 C1024 0.931 . S
H1041 C1029 0.929 . S
H1042 C1030 0.960 . S
H1043 C1030 0.962 . S
H1044 C1030 0.960 . S
H1045 C1031 0.961 . S
H1046 C1031 0.961 . S
H1047 C1031 0.961 . S
H1048 C1032 0.931 . S
H1049 C1037 0.930 . S
H1050 C1038 0.956 . S
H1051 C1038 0.961 . S
H1052 C1038 0.961 . S
H1053 C1039 0.958 . S
H1054 C1039 0.961 . S
H1055 C1039 0.960 . S
C1056 C1057 1.391 . S
C1056 C1058 1.394 . S
C1056 H1072 0.931 . S
C1057 C1056 1.391 . S
C1057 C1061 1.376 . S
C1058 C1056 1.394 . S
C1058 C1059 1.369 . S
C1058 C1062 1.531 . S
C1059 C1058 1.369 . S
C1059 C1060 1.410 . S
C1059 C1067 1.503 . S
C1060 C1059 1.410 . S
C1060 C1061 1.392 . S
C1060 C1063 1.511 . S
C1061 C1057 1.376 . S
C1061 C1060 1.392 . S
C1061 H1073 0.929 . S
C1062 C1058 1.531 . S
C1062 H1074 0.960 . S
C1062 H1075 0.962 . S
C1062 H1076 0.960 . S
C1063 C1060 1.511 . S
C1063 H1077 0.961 . S
C1063 H1078 0.961 . S
C1063 H1079 0.961 . S
C1064 C1065 1.370 . S
C1064 C1066 1.363 . S
C1064 H1080 0.931 . S
C1065 C1064 1.370 . S
C1065 C1069 1.408 . S
C1066 C1064 1.363 . S
C1066 C1067 1.370 . S
C1066 C1070 1.524 . S
C1067 C1059 1.503 . S
C1067 C1066 1.370 . S
C1067 C1068 1.403 . S
C1068 C1067 1.403 . S
C1068 C1069 1.404 . S
C1068 C1071 1.539 . S
C1069 C1065 1.408 . S
C1069 C1068 1.404 . S
C1069 H1081 0.930 . S
C1070 C1066 1.524 . S
C1070 H1082 0.956 . S
C1070 H1083 0.961 . S
C1070 H1084 0.961 . S
C1071 C1068 1.539 . S
C1071 H1085 0.958 . S
C1071 H1086 0.961 . S
C1071 H1087 0.960 . S
H1072 C1056 0.931 . S
H1073 C1061 0.929 . S
H1074 C1062 0.960 . S
H1075 C1062 0.962 . S
H1076 C1062 0.960 . S
H1077 C1063 0.961 . S
H1078 C1063 0.961 . S
H1079 C1063 0.961 . S
H1080 C1064 0.931 . S
H1081 C1069 0.930 . S
H1082 C1070 0.956 . S
H1083 C1070 0.961 . S
H1084 C1070 0.961 . S
H1085 C1071 0.958 . S
H1086 C1071 0.961 . S
H1087 C1071 0.960 . S
C1088 C1089 1.391 . S
C1088 C1090 1.394 . S
C1088 H1104 0.931 . S
C1089 C1088 1.391 . S
C1089 C1093 1.376 . S
C1090 C1088 1.394 . S
C1090 C1091 1.369 . S
C1090 C1094 1.531 . S
C1091 C1090 1.369 . S
C1091 C1092 1.410 . S
C1091 C1099 1.503 . S
C1092 C1091 1.410 . S
C1092 C1093 1.392 . S
C1092 C1095 1.511 . S
C1093 C1089 1.376 . S
C1093 C1092 1.392 . S
C1093 H1105 0.929 . S
C1094 C1090 1.531 . S
C1094 H1106 0.960 . S
C1094 H1107 0.962 . S
C1094 H1108 0.960 . S
C1095 C1092 1.511 . S
C1095 H1109 0.961 . S
C1095 H1110 0.961 . S
C1095 H1111 0.961 . S
C1096 C1097 1.370 . S
C1096 C1098 1.363 . S
C1096 H1112 0.931 . S
C1097 C1096 1.370 . S
C1097 C1101 1.408 . S
C1098 C1096 1.363 . S
C1098 C1099 1.370 . S
C1098 C1102 1.524 . S
C1099 C1091 1.503 . S
C1099 C1098 1.370 . S
C1099 C1100 1.403 . S
C1100 C1099 1.403 . S
C1100 C1101 1.404 . S
C1100 C1103 1.539 . S
C1101 C1097 1.408 . S
C1101 C1100 1.404 . S
C1101 H1113 0.930 . S
C1102 C1098 1.524 . S
C1102 H1114 0.956 . S
C1102 H1115 0.961 . S
C1102 H1116 0.961 . S
C1103 C1100 1.539 . S
C1103 H1117 0.958 . S
C1103 H1118 0.961 . S
C1103 H1119 0.960 . S
H1104 C1088 0.931 . S
H1105 C1093 0.929 . S
H1106 C1094 0.960 . S
H1107 C1094 0.962 . S
H1108 C1094 0.960 . S
H1109 C1095 0.961 . S
H1110 C1095 0.961 . S
H1111 C1095 0.961 . S
H1112 C1096 0.931 . S
H1113 C1101 0.930 . S
H1114 C1102 0.956 . S
H1115 C1102 0.961 . S
H1116 C1102 0.961 . S
H1117 C1103 0.958 . S
H1118 C1103 0.961 . S
H1119 C1103 0.960 . S
C1120 C1121 1.391 . S
C1120 C1122 1.394 . S
C1120 H1136 0.931 . S
C1121 C1120 1.391 . S
C1121 C1125 1.376 . S
C1122 C1120 1.394 . S
C1122 C1123 1.369 . S
C1122 C1126 1.531 . S
C1123 C1122 1.369 . S
C1123 C1124 1.410 . S
C1123 C1131 1.503 . S
C1124 C1123 1.410 . S
C1124 C1125 1.392 . S
C1124 C1127 1.511 . S
C1125 C1121 1.376 . S
C1125 C1124 1.392 . S
C1125 H1137 0.929 . S
C1126 C1122 1.531 . S
C1126 H1138 0.960 . S
C1126 H1139 0.962 . S
C1126 H1140 0.960 . S
C1127 C1124 1.511 . S
C1127 H1141 0.961 . S
C1127 H1142 0.961 . S
C1127 H1143 0.961 . S
C1128 C1129 1.370 . S
C1128 C1130 1.363 . S
C1128 H1144 0.931 . S
C1129 C1128 1.370 . S
C1129 C1133 1.408 . S
C1130 C1128 1.363 . S
C1130 C1131 1.370 . S
C1130 C1134 1.524 . S
C1131 C1123 1.503 . S
C1131 C1130 1.370 . S
C1131 C1132 1.403 . S
C1132 C1131 1.403 . S
C1132 C1133 1.404 . S
C1132 C1135 1.539 . S
C1133 C1129 1.408 . S
C1133 C1132 1.404 . S
C1133 H1145 0.930 . S
C1134 C1130 1.524 . S
C1134 H1146 0.956 . S
C1134 H1147 0.961 . S
C1134 H1148 0.961 . S
C1135 C1132 1.539 . S
C1135 H1149 0.958 . S
C1135 H1150 0.961 . S
C1135 H1151 0.960 . S
H1136 C1120 0.931 . S
H1137 C1125 0.929 . S
H1138 C1126 0.960 . S
H1139 C1126 0.962 . S
H1140 C1126 0.960 . S
H1141 C1127 0.961 . S
H1142 C1127 0.961 . S
H1143 C1127 0.961 . S
H1144 C1128 0.931 . S
H1145 C1133 0.930 . S
H1146 C1134 0.956 . S
H1147 C1134 0.961 . S
H1148 C1134 0.961 . S
H1149 C1135 0.958 . S
H1150 C1135 0.961 . S
H1151 C1135 0.960 . S
C1152 C1153 1.391 . S
C1152 C1154 1.394 . S
C1152 H1168 0.931 . S
C1153 C1152 1.391 . S
C1153 C1157 1.376 . S
C1154 C1152 1.394 . S
C1154 C1155 1.369 . S
C1154 C1158 1.531 . S
C1155 C1154 1.369 . S
C1155 C1156 1.410 . S
C1155 C1163 1.503 . S
C1156 C1155 1.410 . S
C1156 C1157 1.392 . S
C1156 C1159 1.511 . S
C1157 C1153 1.376 . S
C1157 C1156 1.392 . S
C1157 H1169 0.929 . S
C1158 C1154 1.531 . S
C1158 H1170 0.960 . S
C1158 H1171 0.962 . S
C1158 H1172 0.960 . S
C1159 C1156 1.511 . S
C1159 H1173 0.961 . S
C1159 H1174 0.961 . S
C1159 H1175 0.961 . S
C1160 C1161 1.370 . S
C1160 C1162 1.363 . S
C1160 H1176 0.931 . S
C1161 C1160 1.370 . S
C1161 C1165 1.408 . S
C1162 C1160 1.363 . S
C1162 C1163 1.370 . S
C1162 C1166 1.524 . S
C1163 C1155 1.503 . S
C1163 C1162 1.370 . S
C1163 C1164 1.403 . S
C1164 C1163 1.403 . S
C1164 C1165 1.404 . S
C1164 C1167 1.539 . S
C1165 C1161 1.408 . S
C1165 C1164 1.404 . S
C1165 H1177 0.930 . S
C1166 C1162 1.524 . S
C1166 H1178 0.956 . S
C1166 H1179 0.961 . S
C1166 H1180 0.961 . S
C1167 C1164 1.539 . S
C1167 H1181 0.958 . S
C1167 H1182 0.961 . S
C1167 H1183 0.960 . S
H1168 C1152 0.931 . S
H1169 C1157 0.929 . S
H1170 C1158 0.960 . S
H1171 C1158 0.962 . S
H1172 C1158 0.960 . S
H1173 C1159 0.961 . S
H1174 C1159 0.961 . S
H1175 C1159 0.961 . S
H1176 C1160 0.931 . S
H1177 C1165 0.930 . S
H1178 C1166 0.956 . S
H1179 C1166 0.961 . S
H1180 C1166 0.961 . S
H1181 C1167 0.958 . S
H1182 C1167 0.961 . S
H1183 C1167 0.960 . S
C1184 C1185 1.391 . S
C1184 C1186 1.394 . S
C1184 H1200 0.931 . S
C1185 C1184 1.391 . S
C1185 C1189 1.376 . S
C1186 C1184 1.394 . S
C1186 C1187 1.369 . S
C1186 C1190 1.531 . S
C1187 C1186 1.369 . S
C1187 C1188 1.410 . S
C1187 C1195 1.503 . S
C1188 C1187 1.410 . S
C1188 C1189 1.392 . S
C1188 C1191 1.511 . S
C1189 C1185 1.376 . S
C1189 C1188 1.392 . S
C1189 H1201 0.929 . S
C1190 C1186 1.531 . S
C1190 H1202 0.960 . S
C1190 H1203 0.962 . S
C1190 H1204 0.960 . S
C1191 C1188 1.511 . S
C1191 H1205 0.961 . S
C1191 H1206 0.961 . S
C1191 H1207 0.961 . S
C1192 C1193 1.370 . S
C1192 C1194 1.363 . S
C1192 H1208 0.931 . S
C1193 C1192 1.370 . S
C1193 C1197 1.408 . S
C1194 C1192 1.363 . S
C1194 C1195 1.370 1_655 S
C1194 C1198 1.524 1_655 S
C1195 C1187 1.503 . S
C1195 C1194 1.370 1_455 S
C1195 C1196 1.403 1_455 S
C1196 C1195 1.403 1_655 S
C1196 C1197 1.404 . S
C1196 C1199 1.539 . S
C1197 C1193 1.408 . S
C1197 C1196 1.404 . S
C1197 H1209 0.930 . S
C1198 C1194 1.524 1_455 S
C1198 H1210 0.956 . S
C1198 H1211 0.961 . S
C1198 H1212 0.961 . S
C1199 C1196 1.539 . S
C1199 H1213 0.958 1_655 S
C1199 H1214 0.961 . S
C1199 H1215 0.960 1_655 S
H1200 C1184 0.931 . S
H1201 C1189 0.929 . S
H1202 C1190 0.960 . S
H1203 C1190 0.962 . S
H1204 C1190 0.960 . S
H1205 C1191 0.961 . S
H1206 C1191 0.961 . S
H1207 C1191 0.961 . S
H1208 C1192 0.931 . S
H1209 C1197 0.930 . S
H1210 C1198 0.956 . S
H1211 C1198 0.961 . S
H1212 C1198 0.961 . S
H1213 C1199 0.958 1_455 S
H1214 C1199 0.961 . S
H1215 C1199 0.960 1_455 S
C1216 C1217 1.391 . S
C1216 C1218 1.394 . S
C1216 H1232 0.931 . S
C1217 C1216 1.391 . S
C1217 C1221 1.376 . S
C1218 C1216 1.394 . S
C1218 C1219 1.369 . S
C1218 C1222 1.531 . S
C1219 C1218 1.369 . S
C1219 C1220 1.410 . S
C1219 C1227 1.503 . S
C1220 C1219 1.410 . S
C1220 C1221 1.392 . S
C1220 C1223 1.511 . S
C1221 C1217 1.376 . S
C1221 C1220 1.392 . S
C1221 H1233 0.929 . S
C1222 C1218 1.531 . S
C1222 H1234 0.960 . S
C1222 H1235 0.962 . S
C1222 H1236 0.960 . S
C1223 C1220 1.511 . S
C1223 H1237 0.961 . S
C1223 H1238 0.961 . S
C1223 H1239 0.961 . S
C1224 C1225 1.370 . S
C1224 C1226 1.363 . S
C1224 H1240 0.931 . S
C1225 C1224 1.370 . S
C1225 C1229 1.408 . S
C1226 C1224 1.363 . S
C1226 C1227 1.370 . S
C1226 C1230 1.524 . S
C1227 C1219 1.503 . S
C1227 C1226 1.370 . S
C1227 C1228 1.403 . S
C1228 C1227 1.403 . S
C1228 C1229 1.404 . S
C1228 C1231 1.539 . S
C1229 C1225 1.408 . S
C1229 C1228 1.404 . S
C1229 H1241 0.930 . S
C1230 C1226 1.524 . S
C1230 H1242 0.956 . S
C1230 H1243 0.961 . S
C1230 H1244 0.961 . S
C1231 C1228 1.539 . S
C1231 H1245 0.958 . S
C1231 H1246 0.961 . S
C1231 H1247 0.960 . S
H1232 C1216 0.931 . S
H1233 C1221 0.929 . S
H1234 C1222 0.960 . S
H1235 C1222 0.962 . S
H1236 C1222 0.960 . S
H1237 C1223 0.961 . S
H1238 C1223 0.961 . S
H1239 C1223 0.961 . S
H1240 C1224 0.931 . S
H1241 C1229 0.930 . S
H1242 C1230 0.956 . S
H1243 C1230 0.961 . S
H1244 C1230 0.961 . S
H1245 C1231 0.958 . S
H1246 C1231 0.961 . S
H1247 C1231 0.960 . S
C1248 C1249 1.391 . S
C1248 C1250 1.394 . S
C1248 H1264 0.931 . S
C1249 C1248 1.391 . S
C1249 C1253 1.376 . S
C1250 C1248 1.394 . S
C1250 C1251 1.369 . S
C1250 C1254 1.531 . S
C1251 C1250 1.369 . S
C1251 C1252 1.410 . S
C1251 C1259 1.503 . S
C1252 C1251 1.410 . S
C1252 C1253 1.392 . S
C1252 C1255 1.511 . S
C1253 C1249 1.376 . S
C1253 C1252 1.392 . S
C1253 H1265 0.929 . S
C1254 C1250 1.531 . S
C1254 H1266 0.960 . S
C1254 H1267 0.962 . S
C1254 H1268 0.960 . S
C1255 C1252 1.511 . S
C1255 H1269 0.961 . S
C1255 H1270 0.961 . S
C1255 H1271 0.961 . S
C1256 C1257 1.370 . S
C1256 C1258 1.363 . S
C1256 H1272 0.931 . S
C1257 C1256 1.370 . S
C1257 C1261 1.408 . S
C1258 C1256 1.363 . S
C1258 C1259 1.370 1_455 S
C1258 C1262 1.524 1_455 S
C1259 C1251 1.503 . S
C1259 C1258 1.370 1_655 S
C1259 C1260 1.403 1_655 S
C1260 C1259 1.403 1_455 S
C1260 C1261 1.404 . S
C1260 C1263 1.532 1_455 S
C1261 C1257 1.408 . S
C1261 C1260 1.404 . S
C1261 H1273 0.930 . S
C1262 C1258 1.524 1_655 S
C1262 H1274 0.956 . S
C1262 H1275 0.961 . S
C1262 H1276 0.961 . S
C1263 C1260 1.532 1_655 S
C1263 H1277 0.963 . S
C1263 H1278 0.946 1_655 S
C1263 H1279 0.977 . S
H1264 C1248 0.931 . S
H1265 C1253 0.929 . S
H1266 C1254 0.960 . S
H1267 C1254 0.962 . S
H1268 C1254 0.960 . S
H1269 C1255 0.961 . S
H1270 C1255 0.961 . S
H1271 C1255 0.961 . S
H1272 C1256 0.931 . S
H1273 C1261 0.930 . S
H1274 C1262 0.956 . S
H1275 C1262 0.961 . S
H1276 C1262 0.961 . S
H1277 C1263 0.963 . S
H1278 C1263 0.946 1_455 S
H1279 C1263 0.977 . S
C1280 C1281 1.391 . S
C1280 C1282 1.394 . S
C1280 H1296 0.931 . S
C1281 C1280 1.391 . S
C1281 C1285 1.376 . S
C1282 C1280 1.394 . S
C1282 C1283 1.369 . S
C1282 C1286 1.531 . S
C1283 C1282 1.369 . S
C1283 C1284 1.410 . S
C1283 C1291 1.503 . S
C1284 C1283 1.410 . S
C1284 C1285 1.392 . S
C1284 C1287 1.511 . S
C1285 C1281 1.376 . S
C1285 C1284 1.392 . S
C1285 H1297 0.929 . S
C1286 C1282 1.531 . S
C1286 H1298 0.960 . S
C1286 H1299 0.962 . S
C1286 H1300 0.960 . S
C1287 C1284 1.511 . S
C1287 H1301 0.961 . S
C1287 H1302 0.961 . S
C1287 H1303 0.961 . S
C1288 C1289 1.370 . S
C1288 C1290 1.363 . S
C1288 H1304 0.931 . S
C1289 C1288 1.370 . S
C1289 C1293 1.408 . S
C1290 C1288 1.363 . S
C1290 C1291 1.370 . S
C1290 C1294 1.524 . S
C1291 C1283 1.503 . S
C1291 C1290 1.370 . S
C1291 C1292 1.403 . S
C1292 C1291 1.403 . S
C1292 C1293 1.404 . S
C1292 C1295 1.539 . S
C1293 C1289 1.408 . S
C1293 C1292 1.404 . S
C1293 H1305 0.930 . S
C1294 C1290 1.524 . S
C1294 H1306 0.956 . S
C1294 H1307 0.961 . S
C1294 H1308 0.961 . S
C1295 C1292 1.539 . S
C1295 H1309 0.958 . S
C1295 H1310 0.961 . S
C1295 H1311 0.960 . S
H1296 C1280 0.931 . S
H1297 C1285 0.929 . S
H1298 C1286 0.960 . S
H1299 C1286 0.962 . S
H1300 C1286 0.960 . S
H1301 C1287 0.961 . S
H1302 C1287 0.961 . S
H1303 C1287 0.961 . S
H1304 C1288 0.931 . S
H1305 C1293 0.930 . S
H1306 C1294 0.956 . S
H1307 C1294 0.961 . S
H1308 C1294 0.961 . S
H1309 C1295 0.958 . S
H1310 C1295 0.961 . S
H1311 C1295 0.960 . S
C1312 C1313 1.391 . S
C1312 C1314 1.394 . S
C1312 H1328 0.931 . S
C1313 C1312 1.391 . S
C1313 C1317 1.376 . S
C1314 C1312 1.394 . S
C1314 C1315 1.369 . S
C1314 C1318 1.531 . S
C1315 C1314 1.369 . S
C1315 C1316 1.410 . S
C1315 C1323 1.503 . S
C1316 C1315 1.410 . S
C1316 C1317 1.392 . S
C1316 C1319 1.511 . S
C1317 C1313 1.376 . S
C1317 C1316 1.392 . S
C1317 H1329 0.929 . S
C1318 C1314 1.531 . S
C1318 H1330 0.960 . S
C1318 H1331 0.962 . S
C1318 H1332 0.960 . S
C1319 C1316 1.511 . S
C1319 H1333 0.961 . S
C1319 H1334 0.961 . S
C1319 H1335 0.961 . S
C1320 C1321 1.370 . S
C1320 C1322 1.363 . S
C1320 H1336 0.931 . S
C1321 C1320 1.370 . S
C1321 C1325 1.408 . S
C1322 C1320 1.363 . S
C1322 C1323 1.370 . S
C1322 C1326 1.524 . S
C1323 C1315 1.503 . S
C1323 C1322 1.370 . S
C1323 C1324 1.403 . S
C1324 C1323 1.403 . S
C1324 C1325 1.404 . S
C1324 C1327 1.539 . S
C1325 C1321 1.408 . S
C1325 C1324 1.404 . S
C1325 H1337 0.930 . S
C1326 C1322 1.524 . S
C1326 H1338 0.956 . S
C1326 H1339 0.961 . S
C1326 H1340 0.961 . S
C1327 C1324 1.539 . S
C1327 H1341 0.958 . S
C1327 H1342 0.961 . S
C1327 H1343 0.960 . S
H1328 C1312 0.931 . S
H1329 C1317 0.929 . S
H1330 C1318 0.960 . S
H1331 C1318 0.962 . S
H1332 C1318 0.960 . S
H1333 C1319 0.961 . S
H1334 C1319 0.961 . S
H1335 C1319 0.961 . S
H1336 C1320 0.931 . S
H1337 C1325 0.930 . S
H1338 C1326 0.956 . S
H1339 C1326 0.961 . S
H1340 C1326 0.961 . S
H1341 C1327 0.958 . S
H1342 C1327 0.961 . S
H1343 C1327 0.960 . S
C1344 C1345 1.391 . S
C1344 C1346 1.394 . S
C1344 H1360 0.931 . S
C1345 C1344 1.391 . S
C1345 C1349 1.376 . S
C1346 C1344 1.394 . S
C1346 C1347 1.369 . S
C1346 C1350 1.531 . S
C1347 C1346 1.369 . S
C1347 C1348 1.410 . S
C1347 C1355 1.503 . S
C1348 C1347 1.410 . S
C1348 C1349 1.392 . S
C1348 C1351 1.511 . S
C1349 C1345 1.376 . S
C1349 C1348 1.392 . S
C1349 H1361 0.929 . S
C1350 C1346 1.531 . S
C1350 H1362 0.960 . S
C1350 H1363 0.962 . S
C1350 H1364 0.960 . S
C1351 C1348 1.511 . S
C1351 H1365 0.961 . S
C1351 H1366 0.961 . S
C1351 H1367 0.961 . S
C1352 C1353 1.370 . S
C1352 C1354 1.363 . S
C1352 H1368 0.931 . S
C1353 C1352 1.370 . S
C1353 C1357 1.408 . S
C1354 C1352 1.363 . S
C1354 C1355 1.370 . S
C1354 C1358 1.524 . S
C1355 C1347 1.503 . S
C1355 C1354 1.370 . S
C1355 C1356 1.403 . S
C1356 C1355 1.403 . S
C1356 C1357 1.404 . S
C1356 C1359 1.539 . S
C1357 C1353 1.408 . S
C1357 C1356 1.404 . S
C1357 H1369 0.930 . S
C1358 C1354 1.524 . S
C1358 H1370 0.956 . S
C1358 H1371 0.961 . S
C1358 H1372 0.961 . S
C1359 C1356 1.539 . S
C1359 H1373 0.958 . S
C1359 H1374 0.961 . S
C1359 H1375 0.960 . S
H1360 C1344 0.931 . S
H1361 C1349 0.929 . S
H1362 C1350 0.960 . S
H1363 C1350 0.962 . S
H1364 C1350 0.960 . S
H1365 C1351 0.961 . S
H1366 C1351 0.961 . S
H1367 C1351 0.961 . S
H1368 C1352 0.931 . S
H1369 C1357 0.930 . S
H1370 C1358 0.956 . S
H1371 C1358 0.961 . S
H1372 C1358 0.961 . S
H1373 C1359 0.958 . S
H1374 C1359 0.961 . S
H1375 C1359 0.960 . S
C1376 C1377 1.391 . S
C1376 C1378 1.394 . S
C1376 H1392 0.931 . S
C1377 C1376 1.391 . S
C1377 C1381 1.376 . S
C1378 C1376 1.394 . S
C1378 C1379 1.369 . S
C1378 C1382 1.531 . S
C1379 C1378 1.369 . S
C1379 C1380 1.410 . S
C1379 C1387 1.503 . S
C1380 C1379 1.410 . S
C1380 C1381 1.392 . S
C1380 C1383 1.511 . S
C1381 C1377 1.376 . S
C1381 C1380 1.392 . S
C1381 H1393 0.929 . S
C1382 C1378 1.531 . S
C1382 H1394 0.960 . S
C1382 H1395 0.962 . S
C1382 H1396 0.960 . S
C1383 C1380 1.511 . S
C1383 H1397 0.961 . S
C1383 H1398 0.961 . S
C1383 H1399 0.961 . S
C1384 C1385 1.370 . S
C1384 C1386 1.363 . S
C1384 H1400 0.931 . S
C1385 C1384 1.370 . S
C1385 C1389 1.408 . S
C1386 C1384 1.363 . S
C1386 C1387 1.370 . S
C1386 C1390 1.524 . S
C1387 C1379 1.503 . S
C1387 C1386 1.370 . S
C1387 C1388 1.403 . S
C1388 C1387 1.403 . S
C1388 C1389 1.404 . S
C1388 C1391 1.539 . S
C1389 C1385 1.408 . S
C1389 C1388 1.404 . S
C1389 H1401 0.930 . S
C1390 C1386 1.524 . S
C1390 H1402 0.956 . S
C1390 H1403 0.961 . S
C1390 H1404 0.961 . S
C1391 C1388 1.539 . S
C1391 H1405 0.958 . S
C1391 H1406 0.961 . S
C1391 H1407 0.960 . S
H1392 C1376 0.931 . S
H1393 C1381 0.929 . S
H1394 C1382 0.960 . S
H1395 C1382 0.962 . S
H1396 C1382 0.960 . S
H1397 C1383 0.961 . S
H1398 C1383 0.961 . S
H1399 C1383 0.961 . S
H1400 C1384 0.931 . S
H1401 C1389 0.930 . S
H1402 C1390 0.956 . S
H1403 C1390 0.961 . S
H1404 C1390 0.961 . S
H1405 C1391 0.958 . S
H1406 C1391 0.961 . S
H1407 C1391 0.960 . S
C1408 C1409 1.391 . S
C1408 C1410 1.394 . S
C1408 H1424 0.931 . S
C1409 C1408 1.391 . S
C1409 C1413 1.376 . S
C1410 C1408 1.394 . S
C1410 C1411 1.369 . S
C1410 C1414 1.531 . S
C1411 C1410 1.369 . S
C1411 C1412 1.410 . S
C1411 C1419 1.503 . S
C1412 C1411 1.410 . S
C1412 C1413 1.392 . S
C1412 C1415 1.511 . S
C1413 C1409 1.376 . S
C1413 C1412 1.392 . S
C1413 H1425 0.929 . S
C1414 C1410 1.531 . S
C1414 H1426 0.960 . S
C1414 H1427 0.962 . S
C1414 H1428 0.960 . S
C1415 C1412 1.511 . S
C1415 H1429 0.961 . S
C1415 H1430 0.961 . S
C1415 H1431 0.961 . S
C1416 C1417 1.370 . S
C1416 C1418 1.363 . S
C1416 H1432 0.931 . S
C1417 C1416 1.370 . S
C1417 C1421 1.408 . S
C1418 C1416 1.363 . S
C1418 C1419 1.370 . S
C1418 C1422 1.524 . S
C1419 C1411 1.503 . S
C1419 C1418 1.370 . S
C1419 C1420 1.403 . S
C1420 C1419 1.403 . S
C1420 C1421 1.404 . S
C1420 C1423 1.539 . S
C1421 C1417 1.408 . S
C1421 C1420 1.404 . S
C1421 H1433 0.930 . S
C1422 C1418 1.524 . S
C1422 H1434 0.956 . S
C1422 H1435 0.961 . S
C1422 H1436 0.961 . S
C1423 C1420 1.539 . S
C1423 H1437 0.958 . S
C1423 H1438 0.961 . S
C1423 H1439 0.960 . S
H1424 C1408 0.931 . S
H1425 C1413 0.929 . S
H1426 C1414 0.960 . S
H1427 C1414 0.962 . S
H1428 C1414 0.960 . S
H1429 C1415 0.961 . S
H1430 C1415 0.961 . S
H1431 C1415 0.961 . S
H1432 C1416 0.931 . S
H1433 C1421 0.930 . S
H1434 C1422 0.956 . S
H1435 C1422 0.961 . S
H1436 C1422 0.961 . S
H1437 C1423 0.958 . S
H1438 C1423 0.961 . S
H1439 C1423 0.960 . S
C1440 C1441 1.391 . S
C1440 C1442 1.394 . S
C1440 H1456 0.931 . S
C1441 C1440 1.391 . S
C1441 C1445 1.376 . S
C1442 C1440 1.394 . S
C1442 C1443 1.369 . S
C1442 C1446 1.531 . S
C1443 C1442 1.369 . S
C1443 C1444 1.410 . S
C1443 C1451 1.503 . S
C1444 C1443 1.410 . S
C1444 C1445 1.392 . S
C1444 C1447 1.511 . S
C1445 C1441 1.376 . S
C1445 C1444 1.392 . S
C1445 H1457 0.929 . S
C1446 C1442 1.531 . S
C1446 H1458 0.960 . S
C1446 H1459 0.962 . S
C1446 H1460 0.960 . S
C1447 C1444 1.511 . S
C1447 H1461 0.961 . S
C1447 H1462 0.961 . S
C1447 H1463 0.961 . S
C1448 C1449 1.370 . S
C1448 C1450 1.363 . S
C1448 H1464 0.931 . S
C1449 C1448 1.370 . S
C1449 C1453 1.408 . S
C1450 C1448 1.363 . S
C1450 C1451 1.370 1_455 S
C1450 C1454 1.524 1_455 S
C1451 C1443 1.503 . S
C1451 C1450 1.370 1_655 S
C1451 C1452 1.403 1_655 S
C1452 C1451 1.403 1_455 S
C1452 C1453 1.404 . S
C1452 C1455 1.539 . S
C1453 C1449 1.408 . S
C1453 C1452 1.404 . S
C1453 H1465 0.930 . S
C1454 C1450 1.524 1_655 S
C1454 H1466 0.956 . S
C1454 H1467 0.961 . S
C1454 H1468 0.961 . S
C1455 C1452 1.539 . S
C1455 H1469 0.958 . S
C1455 H1470 0.961 . S
C1455 H1471 0.960 1_455 S
H1456 C1440 0.931 . S
H1457 C1445 0.929 . S
H1458 C1446 0.960 . S
H1459 C1446 0.962 . S
H1460 C1446 0.960 . S
H1461 C1447 0.961 . S
H1462 C1447 0.961 . S
H1463 C1447 0.961 . S
H1464 C1448 0.931 . S
H1465 C1453 0.930 . S
H1466 C1454 0.956 . S
H1467 C1454 0.961 . S
H1468 C1454 0.961 . S
H1469 C1455 0.958 . S
H1470 C1455 0.961 . S
H1471 C1455 0.960 1_655 S
C1472 C1473 1.391 . S
C1472 C1474 1.394 . S
C1472 H1488 0.931 . S
C1473 C1472 1.391 . S
C1473 C1477 1.376 . S
C1474 C1472 1.394 . S
C1474 C1475 1.369 . S
C1474 C1478 1.531 . S
C1475 C1474 1.369 . S
C1475 C1476 1.410 . S
C1475 C1483 1.503 . S
C1476 C1475 1.410 . S
C1476 C1477 1.392 . S
C1476 C1479 1.511 . S
C1477 C1473 1.376 . S
C1477 C1476 1.392 . S
C1477 H1489 0.929 . S
C1478 C1474 1.531 . S
C1478 H1490 0.960 . S
C1478 H1491 0.962 . S
C1478 H1492 0.960 . S
C1479 C1476 1.511 . S
C1479 H1493 0.961 . S
C1479 H1494 0.961 . S
C1479 H1495 0.961 . S
C1480 C1481 1.370 . S
C1480 C1482 1.363 . S
C1480 H1496 0.931 . S
C1481 C1480 1.370 . S
C1481 C1485 1.408 . S
C1482 C1480 1.363 . S
C1482 C1483 1.370 . S
C1482 C1486 1.524 . S
C1483 C1475 1.503 . S
C1483 C1482 1.370 . S
C1483 C1484 1.403 . S
C1484 C1483 1.403 . S
C1484 C1485 1.404 . S
C1484 C1487 1.539 . S
C1485 C1481 1.408 . S
C1485 C1484 1.404 . S
C1485 H1497 0.930 . S
C1486 C1482 1.524 . S
C1486 H1498 0.956 . S
C1486 H1499 0.961 . S
C1486 H1500 0.961 . S
C1487 C1484 1.539 . S
C1487 H1501 0.958 . S
C1487 H1502 0.961 . S
C1487 H1503 0.960 . S
H1488 C1472 0.931 . S
H1489 C1477 0.929 . S
H1490 C1478 0.960 . S
H1491 C1478 0.962 . S
H1492 C1478 0.960 . S
H1493 C1479 0.961 . S
H1494 C1479 0.961 . S
H1495 C1479 0.961 . S
H1496 C1480 0.931 . S
H1497 C1485 0.930 . S
H1498 C1486 0.956 . S
H1499 C1486 0.961 . S
H1500 C1486 0.961 . S
H1501 C1487 0.958 . S
H1502 C1487 0.961 . S
H1503 C1487 0.960 . S
C1504 C1505 1.391 . S
C1504 C1506 1.394 . S
C1504 H1520 0.931 . S
C1505 C1504 1.391 . S
C1505 C1509 1.376 . S
C1506 C1504 1.394 . S
C1506 C1507 1.369 . S
C1506 C1510 1.531 . S
C1507 C1506 1.369 . S
C1507 C1508 1.410 . S
C1507 C1515 1.503 . S
C1508 C1507 1.410 . S
C1508 C1509 1.392 . S
C1508 C1511 1.511 . S
C1509 C1505 1.376 . S
C1509 C1508 1.392 . S
C1509 H1521 0.929 . S
C1510 C1506 1.531 . S
C1510 H1522 0.960 . S
C1510 H1523 0.962 . S
C1510 H1524 0.960 . S
C1511 C1508 1.511 . S
C1511 H1525 0.961 . S
C1511 H1526 0.961 . S
C1511 H1527 0.961 . S
C1512 C1513 1.370 . S
C1512 C1514 1.363 . S
C1512 H1528 0.931 . S
C1513 C1512 1.370 . S
C1513 C1517 1.408 . S
C1514 C1512 1.363 . S
C1514 C1515 1.370 . S
C1514 C1518 1.524 . S
C1515 C1507 1.503 . S
C1515 C1514 1.370 . S
C1515 C1516 1.403 . S
C1516 C1515 1.403 . S
C1516 C1517 1.404 . S
C1516 C1519 1.539 . S
C1517 C1513 1.408 . S
C1517 C1516 1.404 . S
C1517 H1529 0.930 . S
C1518 C1514 1.524 . S
C1518 H1530 0.956 . S
C1518 H1531 0.961 . S
C1518 H1532 0.961 . S
C1519 C1516 1.539 . S
C1519 H1533 0.958 . S
C1519 H1534 0.961 . S
C1519 H1535 0.960 . S
H1520 C1504 0.931 . S
H1521 C1509 0.929 . S
H1522 C1510 0.960 . S
H1523 C1510 0.962 . S
H1524 C1510 0.960 . S
H1525 C1511 0.961 . S
H1526 C1511 0.961 . S
H1527 C1511 0.961 . S
H1528 C1512 0.931 . S
H1529 C1517 0.930 . S
H1530 C1518 0.956 . S
H1531 C1518 0.961 . S
H1532 C1518 0.961 . S
H1533 C1519 0.958 . S
H1534 C1519 0.961 . S
H1535 C1519 0.960 . S
C1536 C1537 1.391 . S
C1536 C1538 1.394 . S
C1536 H1552 0.931 . S
C1537 C1536 1.391 . S
C1537 C1541 1.376 . S
C1538 C1536 1.394 . S
C1538 C1539 1.369 . S
C1538 C1542 1.531 . S
C1539 C1538 1.369 . S
C1539 C1540 1.410 . S
C1539 C1547 1.503 . S
C1540 C1539 1.410 . S
C1540 C1541 1.392 . S
C1540 C1543 1.511 . S
C1541 C1537 1.376 . S
C1541 C1540 1.392 . S
C1541 H1553 0.929 . S
C1542 C1538 1.531 . S
C1542 H1554 0.960 . S
C1542 H1555 0.962 . S
C1542 H1556 0.960 . S
C1543 C1540 1.511 . S
C1543 H1557 0.961 . S
C1543 H1558 0.961 . S
C1543 H1559 0.961 . S
C1544 C1545 1.370 . S
C1544 C1546 1.363 . S
C1544 H1560 0.931 . S
C1545 C1544 1.370 . S
C1545 C1549 1.408 . S
C1546 C1544 1.363 . S
C1546 C1547 1.370 . S
C1546 C1550 1.524 . S
C1547 C1539 1.503 . S
C1547 C1546 1.370 . S
C1547 C1548 1.403 . S
C1548 C1547 1.403 . S
C1548 C1549 1.404 . S
C1548 C1551 1.539 . S
C1549 C1545 1.408 . S
C1549 C1548 1.404 . S
C1549 H1561 0.930 . S
C1550 C1546 1.524 . S
C1550 H1562 0.956 . S
C1550 H1563 0.961 . S
C1550 H1564 0.961 . S
C1551 C1548 1.539 . S
C1551 H1565 0.958 . S
C1551 H1566 0.961 . S
C1551 H1567 0.960 . S
H1552 C1536 0.931 . S
H1553 C1541 0.929 . S
H1554 C1542 0.960 . S
H1555 C1542 0.962 . S
H1556 C1542 0.960 . S
H1557 C1543 0.961 . S
H1558 C1543 0.961 . S
H1559 C1543 0.961 . S
H1560 C1544 0.931 . S
H1561 C1549 0.930 . S
H1562 C1550 0.956 . S
H1563 C1550 0.961 . S
H1564 C1550 0.961 . S
H1565 C1551 0.958 . S
H1566 C1551 0.961 . S
H1567 C1551 0.960 . S
C1568 C1569 1.391 . S
C1568 C1570 1.394 . S
C1568 H1584 0.931 . S
C1569 C1568 1.391 . S
C1569 C1573 1.376 . S
C1570 C1568 1.394 . S
C1570 C1571 1.369 . S
C1570 C1574 1.531 . S
C1571 C1570 1.369 . S
C1571 C1572 1.410 . S
C1571 C1579 1.503 . S
C1572 C1571 1.410 . S
C1572 C1573 1.392 . S
C1572 C1575 1.511 . S
C1573 C1569 1.376 . S
C1573 C1572 1.392 . S
C1573 H1585 0.929 . S
C1574 C1570 1.531 . S
C1574 H1586 0.960 . S
C1574 H1587 0.962 . S
C1574 H1588 0.960 . S
C1575 C1572 1.511 . S
C1575 H1589 0.961 . S
C1575 H1590 0.961 . S
C1575 H1591 0.961 . S
C1576 C1577 1.370 . S
C1576 C1578 1.363 . S
C1576 H1592 0.931 . S
C1577 C1576 1.370 . S
C1577 C1581 1.408 . S
C1578 C1576 1.363 . S
C1578 C1579 1.370 1_455 S
C1578 C1582 1.524 1_455 S
C1579 C1571 1.503 . S
C1579 C1578 1.370 1_655 S
C1579 C1580 1.403 1_655 S
C1580 C1579 1.403 1_455 S
C1580 C1581 1.404 . S
C1580 C1583 1.539 1_455 S
C1581 C1577 1.408 . S
C1581 C1580 1.404 . S
C1581 H1593 0.930 . S
C1582 C1578 1.524 1_655 S
C1582 H1594 0.956 . S
C1582 H1595 0.961 . S
C1582 H1596 0.961 1_655 S
C1583 C1580 1.539 1_655 S
C1583 H1597 0.958 . S
C1583 H1598 0.986 . S
C1583 H1599 0.960 . S
H1584 C1568 0.931 . S
H1585 C1573 0.929 . S
H1586 C1574 0.960 . S
H1587 C1574 0.962 . S
H1588 C1574 0.960 . S
H1589 C1575 0.961 . S
H1590 C1575 0.961 . S
H1591 C1575 0.961 . S
H1592 C1576 0.931 . S
H1593 C1581 0.930 . S
H1594 C1582 0.956 . S
H1595 C1582 0.961 . S
H1596 C1582 0.961 1_455 S
H1597 C1583 0.958 . S
H1598 C1583 0.986 . S
H1599 C1583 0.960 . S
C1600 C1601 1.391 . S
C1600 C1602 1.394 . S
C1600 H1616 0.931 . S
C1601 C1600 1.391 . S
C1601 C1605 1.376 . S
C1602 C1600 1.394 . S
C1602 C1603 1.369 . S
C1602 C1606 1.531 . S
C1603 C1602 1.369 . S
C1603 C1604 1.410 . S
C1603 C1611 1.503 . S
C1604 C1603 1.410 . S
C1604 C1605 1.392 . S
C1604 C1607 1.511 . S
C1605 C1601 1.376 . S
C1605 C1604 1.392 . S
C1605 H1617 0.929 . S
C1606 C1602 1.531 . S
C1606 H1618 0.960 . S
C1606 H1619 0.962 . S
C1606 H1620 0.960 . S
C1607 C1604 1.511 . S
C1607 H1621 0.961 . S
C1607 H1622 0.961 . S
C1607 H1623 0.961 . S
C1608 C1609 1.370 . S
C1608 C1610 1.363 . S
C1608 H1624 0.931 . S
C1609 C1608 1.370 . S
C1609 C1613 1.408 . S
C1610 C1608 1.363 . S
C1610 C1611 1.370 . S
C1610 C1614 1.524 . S
C1611 C1603 1.503 . S
C1611 C1610 1.370 . S
C1611 C1612 1.403 . S
C1612 C1611 1.403 . S
C1612 C1613 1.404 . S
C1612 C1615 1.539 . S
C1613 C1609 1.408 . S
C1613 C1612 1.404 . S
C1613 H1625 0.930 . S
C1614 C1610 1.524 . S
C1614 H1626 0.956 . S
C1614 H1627 0.961 . S
C1614 H1628 0.961 . S
C1615 C1612 1.539 . S
C1615 H1629 0.958 . S
C1615 H1630 0.961 . S
C1615 H1631 0.960 . S
H1616 C1600 0.931 . S
H1617 C1605 0.929 . S
H1618 C1606 0.960 . S
H1619 C1606 0.962 . S
H1620 C1606 0.960 . S
H1621 C1607 0.961 . S
H1622 C1607 0.961 . S
H1623 C1607 0.961 . S
H1624 C1608 0.931 . S
H1625 C1613 0.930 . S
H1626 C1614 0.956 . S
H1627 C1614 0.961 . S
H1628 C1614 0.961 . S
H1629 C1615 0.958 . S
H1630 C1615 0.961 . S
H1631 C1615 0.960 . S
C1632 C1633 1.391 . S
C1632 C1634 1.394 . S
C1632 H1648 0.931 . S
C1633 C1632 1.391 . S
C1633 C1637 1.376 . S
C1634 C1632 1.394 . S
C1634 C1635 1.369 1_455 S
C1634 C1638 1.531 1_455 S
C1635 C1634 1.369 1_655 S
C1635 C1636 1.410 1_655 S
C1635 C1643 1.503 . S
C1636 C1635 1.410 1_455 S
C1636 C1637 1.392 . S
C1636 C1639 1.511 1_455 S
C1637 C1633 1.376 . S
C1637 C1636 1.392 . S
C1637 H1649 0.929 . S
C1638 C1634 1.531 1_655 S
C1638 H1650 0.960 . S
C1638 H1651 0.962 . S
C1638 H1652 0.960 1_655 S
C1639 C1636 1.511 1_655 S
C1639 H1653 0.961 1_655 S
C1639 H1654 0.961 . S
C1639 H1655 0.961 . S
C1640 C1641 1.370 . S
C1640 C1642 1.363 . S
C1640 H1656 0.931 . S
C1641 C1640 1.370 . S
C1641 C1645 1.408 . S
C1642 C1640 1.363 . S
C1642 C1643 1.370 . S
C1642 C1646 1.524 . S
C1643 C1635 1.503 . S
C1643 C1642 1.370 . S
C1643 C1644 1.403 . S
C1644 C1643 1.403 . S
C1644 C1645 1.404 . S
C1644 C1647 1.539 . S
C1645 C1641 1.408 . S
C1645 C1644 1.404 . S
C1645 H1657 0.930 . S
C1646 C1642 1.524 . S
C1646 H1658 0.956 . S
C1646 H1659 0.961 . S
C1646 H1660 0.961 . S
C1647 C1644 1.539 . S
C1647 H1661 0.958 . S
C1647 H1662 0.961 . S
C1647 H1663 0.960 . S
H1648 C1632 0.931 . S
H1649 C1637 0.929 . S
H1650 C1638 0.960 . S
H1651 C1638 0.962 . S
H1652 C1638 0.960 1_455 S
H1653 C1639 0.961 1_455 S
H1654 C1639 0.961 . S
H1655 C1639 0.961 . S
H1656 C1640 0.931 . S
H1657 C1645 0.930 . S
H1658 C1646 0.956 . S
H1659 C1646 0.961 . S
H1660 C1646 0.961 . S
H1661 C1647 0.958 . S
H1662 C1647 0.961 . S
H1663 C1647 0.960 . S
C1664 C1665 1.391 . S
C1664 C1666 1.394 . S
C1664 H1680 0.931 . S
C1665 C1664 1.391 . S
C1665 C1669 1.376 . S
C1666 C1664 1.394 . S
C1666 C1667 1.369 . S
C1666 C1670 1.531 . S
C1667 C1666 1.369 . S
C1667 C1668 1.410 . S
C1667 C1675 1.503 . S
C1668 C1667 1.410 . S
C1668 C1669 1.392 . S
C1668 C1671 1.511 . S
C1669 C1665 1.376 . S
C1669 C1668 1.392 . S
C1669 H1681 0.929 . S
C1670 C1666 1.531 . S
C1670 H1682 0.960 . S
C1670 H1683 0.962 . S
C1670 H1684 0.960 . S
C1671 C1668 1.511 . S
C1671 H1685 0.961 . S
C1671 H1686 0.961 . S
C1671 H1687 0.961 . S
C1672 C1673 1.370 . S
C1672 C1674 1.363 . S
C1672 H1688 0.931 . S
C1673 C1672 1.370 . S
C1673 C1677 1.408 . S
C1674 C1672 1.363 . S
C1674 C1675 1.370 . S
C1674 C1678 1.524 . S
C1675 C1667 1.503 . S
C1675 C1674 1.370 . S
C1675 C1676 1.403 . S
C1676 C1675 1.403 . S
C1676 C1677 1.404 . S
C1676 C1679 1.539 . S
C1677 C1673 1.408 . S
C1677 C1676 1.404 . S
C1677 H1689 0.930 . S
C1678 C1674 1.524 . S
C1678 H1690 0.956 . S
C1678 H1691 0.961 . S
C1678 H1692 0.961 . S
C1679 C1676 1.539 . S
C1679 H1693 0.958 . S
C1679 H1694 0.961 . S
C1679 H1695 0.960 . S
H1680 C1664 0.931 . S
H1681 C1669 0.929 . S
H1682 C1670 0.960 . S
H1683 C1670 0.962 . S
H1684 C1670 0.960 . S
H1685 C1671 0.961 . S
H1686 C1671 0.961 . S
H1687 C1671 0.961 . S
H1688 C1672 0.931 . S
H1689 C1677 0.930 . S
H1690 C1678 0.956 . S
H1691 C1678 0.961 . S
H1692 C1678 0.961 . S
H1693 C1679 0.958 . S
H1694 C1679 0.961 . S
H1695 C1679 0.960 . S
C1696 C1697 1.391 . S
C1696 C1698 1.394 . S
C1696 H1712 0.931 . S
C1697 C1696 1.391 . S
C1697 C1701 1.376 . S
C1698 C1696 1.394 . S
C1698 C1699 1.369 . S
C1698 C1702 1.531 . S
C1699 C1698 1.369 . S
C1699 C1700 1.410 . S
C1699 C1707 1.503 . S
C1700 C1699 1.410 . S
C1700 C1701 1.392 . S
C1700 C1703 1.511 . S
C1701 C1697 1.376 . S
C1701 C1700 1.392 . S
C1701 H1713 0.929 . S
C1702 C1698 1.531 . S
C1702 H1714 0.960 . S
C1702 H1715 0.962 . S
C1702 H1716 0.960 . S
C1703 C1700 1.511 . S
C1703 H1717 0.961 . S
C1703 H1718 0.961 . S
C1703 H1719 0.961 . S
C1704 C1705 1.370 . S
C1704 C1706 1.363 . S
C1704 H1720 0.931 . S
C1705 C1704 1.370 . S
C1705 C1709 1.408 . S
C1706 C1704 1.363 . S
C1706 C1707 1.370 . S
C1706 C1710 1.524 . S
C1707 C1699 1.503 . S
C1707 C1706 1.370 . S
C1707 C1708 1.403 . S
C1708 C1707 1.403 . S
C1708 C1709 1.404 . S
C1708 C1711 1.539 . S
C1709 C1705 1.408 . S
C1709 C1708 1.404 . S
C1709 H1721 0.930 . S
C1710 C1706 1.524 . S
C1710 H1722 0.956 . S
C1710 H1723 0.961 . S
C1710 H1724 0.961 . S
C1711 C1708 1.539 . S
C1711 H1725 0.958 . S
C1711 H1726 0.961 . S
C1711 H1727 0.960 . S
H1712 C1696 0.931 . S
H1713 C1701 0.929 . S
H1714 C1702 0.960 . S
H1715 C1702 0.962 . S
H1716 C1702 0.960 . S
H1717 C1703 0.961 . S
H1718 C1703 0.961 . S
H1719 C1703 0.961 . S
H1720 C1704 0.931 . S
H1721 C1709 0.930 . S
H1722 C1710 0.956 . S
H1723 C1710 0.961 . S
H1724 C1710 0.961 . S
H1725 C1711 0.958 . S
H1726 C1711 0.961 . S
H1727 C1711 0.960 . S
C1728 C1729 1.391 . S
C1728 C1730 1.394 . S
C1728 H1744 0.931 . S
C1729 C1728 1.391 . S
C1729 C1733 1.376 . S
C1730 C1728 1.394 . S
C1730 C1731 1.369 . S
C1730 C1734 1.531 . S
C1731 C1730 1.369 . S
C1731 C1732 1.410 . S
C1731 C1739 1.503 . S
C1732 C1731 1.410 . S
C1732 C1733 1.392 . S
C1732 C1735 1.511 . S
C1733 C1729 1.376 . S
C1733 C1732 1.392 . S
C1733 H1745 0.929 . S
C1734 C1730 1.531 . S
C1734 H1746 0.960 . S
C1734 H1747 0.962 . S
C1734 H1748 0.960 . S
C1735 C1732 1.511 . S
C1735 H1749 0.961 . S
C1735 H1750 0.961 . S
C1735 H1751 0.961 . S
C1736 C1737 1.370 . S
C1736 C1738 1.363 . S
C1736 H1752 0.931 . S
C1737 C1736 1.370 . S
C1737 C1741 1.408 . S
C1738 C1736 1.363 . S
C1738 C1739 1.370 . S
C1738 C1742 1.524 . S
C1739 C1731 1.503 . S
C1739 C1738 1.370 . S
C1739 C1740 1.403 . S
C1740 C1739 1.403 . S
C1740 C1741 1.404 . S
C1740 C1743 1.539 . S
C1741 C1737 1.408 . S
C1741 C1740 1.404 . S
C1741 H1753 0.930 . S
C1742 C1738 1.524 . S
C1742 H1754 0.956 . S
C1742 H1755 0.961 . S
C1742 H1756 0.961 . S
C1743 C1740 1.539 . S
C1743 H1757 0.958 . S
C1743 H1758 0.961 . S
C1743 H1759 0.960 . S
H1744 C1728 0.931 . S
H1745 C1733 0.929 . S
H1746 C1734 0.960 . S
H1747 C1734 0.962 . S
H1748 C1734 0.960 . S
H1749 C1735 0.961 . S
H1750 C1735 0.961 . S
H1751 C1735 0.961 . S
H1752 C1736 0.931 . S
H1753 C1741 0.930 . S
H1754 C1742 0.956 . S
H1755 C1742 0.961 . S
H1756 C1742 0.961 . S
H1757 C1743 0.958 . S
H1758 C1743 0.961 . S
H1759 C1743 0.960 . S
C1760 C1761 1.391 . S
C1760 C1762 1.394 . S
C1760 H1776 0.931 . S
C1761 C1760 1.391 . S
C1761 C1765 1.376 . S
C1762 C1760 1.394 . S
C1762 C1763 1.369 . S
C1762 C1766 1.531 . S
C1763 C1762 1.369 . S
C1763 C1764 1.410 . S
C1763 C1771 1.503 . S
C1764 C1763 1.410 . S
C1764 C1765 1.392 . S
C1764 C1767 1.511 . S
C1765 C1761 1.376 . S
C1765 C1764 1.392 . S
C1765 H1777 0.929 . S
C1766 C1762 1.531 . S
C1766 H1778 0.960 . S
C1766 H1779 0.962 . S
C1766 H1780 0.960 . S
C1767 C1764 1.511 . S
C1767 H1781 0.961 . S
C1767 H1782 0.961 . S
C1767 H1783 0.961 . S
C1768 C1769 1.370 . S
C1768 C1770 1.363 . S
C1768 H1784 0.931 . S
C1769 C1768 1.370 . S
C1769 C1773 1.408 . S
C1770 C1768 1.363 . S
C1770 C1771 1.370 . S
C1770 C1774 1.524 . S
C1771 C1763 1.503 . S
C1771 C1770 1.370 . S
C1771 C1772 1.403 . S
C1772 C1771 1.403 . S
C1772 C1773 1.404 . S
C1772 C1775 1.539 . S
C1773 C1769 1.408 . S
C1773 C1772 1.404 . S
C1773 H1785 0.930 . S
C1774 C1770 1.524 . S
C1774 H1786 0.956 . S
C1774 H1787 0.961 . S
C1774 H1788 0.961 . S
C1775 C1772 1.539 . S
C1775 H1789 0.958 . S
C1775 H1790 0.961 . S
C1775 H1791 0.960 . S
H1776 C1760 0.931 . S
H1777 C1765 0.929 . S
H1778 C1766 0.960 . S
H1779 C1766 0.962 . S
H1780 C1766 0.960 . S
H1781 C1767 0.961 . S
H1782 C1767 0.961 . S
H1783 C1767 0.961 . S
H1784 C1768 0.931 . S
H1785 C1773 0.930 . S
H1786 C1774 0.956 . S
H1787 C1774 0.961 . S
H1788 C1774 0.961 . S
H1789 C1775 0.958 . S
H1790 C1775 0.961 . S
H1791 C1775 0.960 . S
C1792 C1793 1.391 . S
C1792 C1794 1.394 . S
C1792 H1808 0.931 . S
C1793 C1792 1.391 . S
C1793 C1797 1.376 . S
C1794 C1792 1.394 . S
C1794 C1795 1.369 . S
C1794 C1798 1.531 . S
C1795 C1794 1.369 . S
C1795 C1796 1.410 . S
C1795 C1803 1.503 . S
C1796 C1795 1.410 . S
C1796 C1797 1.392 . S
C1796 C1799 1.511 . S
C1797 C1793 1.376 . S
C1797 C1796 1.392 . S
C1797 H1809 0.929 . S
C1798 C1794 1.531 . S
C1798 H1810 0.960 . S
C1798 H1811 0.962 . S
C1798 H1812 0.960 . S
C1799 C1796 1.511 . S
C1799 H1813 0.961 . S
C1799 H1814 0.961 . S
C1799 H1815 0.961 . S
C1800 C1801 1.370 . S
C1800 C1802 1.363 . S
C1800 H1816 0.931 . S
C1801 C1800 1.370 . S
C1801 C1805 1.408 . S
C1802 C1800 1.363 . S
C1802 C1803 1.370 . S
C1802 C1806 1.524 . S
C1803 C1795 1.503 . S
C1803 C1802 1.370 . S
C1803 C1804 1.403 . S
C1804 C1803 1.403 . S
C1804 C1805 1.404 . S
C1804 C1807 1.539 . S
C1805 C1801 1.408 . S
C1805 C1804 1.404 . S
C1805 H1817 0.930 . S
C1806 C1802 1.524 . S
C1806 H1818 0.956 . S
C1806 H1819 0.961 . S
C1806 H1820 0.961 . S
C1807 C1804 1.539 . S
C1807 H1821 0.958 . S
C1807 H1822 0.961 . S
C1807 H1823 0.960 . S
H1808 C1792 0.931 . S
H1809 C1797 0.929 . S
H1810 C1798 0.960 . S
H1811 C1798 0.962 . S
H1812 C1798 0.960 . S
H1813 C1799 0.961 . S
H1814 C1799 0.961 . S
H1815 C1799 0.961 . S
H1816 C1800 0.931 . S
H1817 C1805 0.930 . S
H1818 C1806 0.956 . S
H1819 C1806 0.961 . S
H1820 C1806 0.961 . S
H1821 C1807 0.958 . S
H1822 C1807 0.961 . S
H1823 C1807 0.960 . S
C1824 C1825 1.391 . S
C1824 C1826 1.394 . S
C1824 H1840 0.931 . S
C1825 C1824 1.391 . S
C1825 C1829 1.376 . S
C1826 C1824 1.394 . S
C1826 C1827 1.369 . S
C1826 C1830 1.531 . S
C1827 C1826 1.369 . S
C1827 C1828 1.410 . S
C1827 C1835 1.503 . S
C1828 C1827 1.410 . S
C1828 C1829 1.392 . S
C1828 C1831 1.511 . S
C1829 C1825 1.376 . S
C1829 C1828 1.392 . S
C1829 H1841 0.929 . S
C1830 C1826 1.531 . S
C1830 H1842 0.960 . S
C1830 H1843 0.962 . S
C1830 H1844 0.960 . S
C1831 C1828 1.511 . S
C1831 H1845 0.961 . S
C1831 H1846 0.961 . S
C1831 H1847 0.961 . S
C1832 C1833 1.370 . S
C1832 C1834 1.363 . S
C1832 H1848 0.931 . S
C1833 C1832 1.370 . S
C1833 C1837 1.408 . S
C1834 C1832 1.363 . S
C1834 C1835 1.370 1_655 S
C1834 C1838 1.524 1_655 S
C1835 C1827 1.503 . S
C1835 C1834 1.370 1_455 S
C1835 C1836 1.403 1_455 S
C1836 C1835 1.403 1_655 S
C1836 C1837 1.404 . S
C1836 C1839 1.539 1_655 S
C1837 C1833 1.408 . S
C1837 C1836 1.404 . S
C1837 H1849 0.930 . S
C1838 C1834 1.524 1_455 S
C1838 H1850 0.956 . S
C1838 H1851 0.961 . S
C1838 H1852 0.961 1_455 S
C1839 C1836 1.539 1_455 S
C1839 H1853 0.958 . S
C1839 H1854 0.978 . S
C1839 H1855 0.960 . S
H1840 C1824 0.931 . S
H1841 C1829 0.929 . S
H1842 C1830 0.960 . S
H1843 C1830 0.962 . S
H1844 C1830 0.960 . S
H1845 C1831 0.961 . S
H1846 C1831 0.961 . S
H1847 C1831 0.961 . S
H1848 C1832 0.931 . S
H1849 C1837 0.930 . S
H1850 C1838 0.956 . S
H1851 C1838 0.961 . S
H1852 C1838 0.961 1_655 S
H1853 C1839 0.958 . S
H1854 C1839 0.978 . S
H1855 C1839 0.960 . S
C1856 C1857 1.391 . S
C1856 C1858 1.394 . S
C1856 H1872 0.931 . S
C1857 C1856 1.391 . S
C1857 C1861 1.376 . S
C1858 C1856 1.394 . S
C1858 C1859 1.369 . S
C1858 C1862 1.531 . S
C1859 C1858 1.369 . S
C1859 C1860 1.410 . S
C1859 C1867 1.503 . S
C1860 C1859 1.410 . S
C1860 C1861 1.392 . S
C1860 C1863 1.511 . S
C1861 C1857 1.376 . S
C1861 C1860 1.392 . S
C1861 H1873 0.929 . S
C1862 C1858 1.531 . S
C1862 H1874 0.960 . S
C1862 H1875 0.962 . S
C1862 H1876 0.960 . S
C1863 C1860 1.511 . S
C1863 H1877 0.961 . S
C1863 H1878 0.961 . S
C1863 H1879 0.961 . S
C1864 C1865 1.370 . S
C1864 C1866 1.363 . S
C1864 H1880 0.931 . S
C1865 C1864 1.370 . S
C1865 C1869 1.408 . S
C1866 C1864 1.363 . S
C1866 C1867 1.370 . S
C1866 C1870 1.524 . S
C1867 C1859 1.503 . S
C1867 C1866 1.370 . S
C1867 C1868 1.403 . S
C1868 C1867 1.403 . S
C1868 C1869 1.404 . S
C1868 C1871 1.539 . S
C1869 C1865 1.408 . S
C1869 C1868 1.404 . S
C1869 H1881 0.930 . S
C1870 C1866 1.524 . S
C1870 H1882 0.956 . S
C1870 H1883 0.961 . S
C1870 H1884 0.961 . S
C1871 C1868 1.539 . S
C1871 H1885 0.958 . S
C1871 H1886 0.961 . S
C1871 H1887 0.960 . S
H1872 C1856 0.931 . S
H1873 C1861 0.929 . S
H1874 C1862 0.960 . S
H1875 C1862 0.962 . S
H1876 C1862 0.960 . S
H1877 C1863 0.961 . S
H1878 C1863 0.961 . S
H1879 C1863 0.961 . S
H1880 C1864 0.931 . S
H1881 C1869 0.930 . S
H1882 C1870 0.956 . S
H1883 C1870 0.961 . S
H1884 C1870 0.961 . S
H1885 C1871 0.958 . S
H1886 C1871 0.961 . S
H1887 C1871 0.960 . S
C1888 C1889 1.391 . S
C1888 C1890 1.394 . S
C1888 H1904 0.931 . S
C1889 C1888 1.391 . S
C1889 C1893 1.376 . S
C1890 C1888 1.394 . S
C1890 C1891 1.369 1_655 S
C1890 C1894 1.531 1_655 S
C1891 C1890 1.369 1_455 S
C1891 C1892 1.410 1_455 S
C1891 C1899 1.503 . S
C1892 C1891 1.410 1_655 S
C1892 C1893 1.392 . S
C1892 C1895 1.502 1_655 S
C1893 C1889 1.376 . S
C1893 C1892 1.392 . S
C1893 H1905 0.929 . S
C1894 C1890 1.531 1_455 S
C1894 H1906 0.960 . S
C1894 H1907 0.962 . S
C1894 H1908 0.960 . S
C1895 C1892 1.502 1_455 S
C1895 H1909 0.944 1_455 S
C1895 H1910 0.986 . S
C1895 H1911 0.962 . S
C1896 C1897 1.370 . S
C1896 C1898 1.363 . S
C1896 H1912 0.931 . S
C1897 C1896 1.370 . S
C1897 C1901 1.408 . S
C1898 C1896 1.363 . S
C1898 C1899 1.370 . S
C1898 C1902 1.524 . S
C1899 C1891 1.503 . S
C1899 C1898 1.370 . S
C1899 C1900 1.403 . S
C1900 C1899 1.403 . S
C1900 C1901 1.404 . S
C1900 C1903 1.539 . S
C1901 C1897 1.408 . S
C1901 C1900 1.404 . S
C1901 H1913 0.930 . S
C1902 C1898 1.524 . S
C1902 H1914 0.956 . S
C1902 H1915 0.961 . S
C1902 H1916 0.961 . S
C1903 C1900 1.539 . S
C1903 H1917 0.958 . S
C1903 H1918 0.961 . S
C1903 H1919 0.960 . S
H1904 C1888 0.931 . S
H1905 C1893 0.929 . S
H1906 C1894 0.960 . S
H1907 C1894 0.962 . S
H1908 C1894 0.960 . S
H1909 C1895 0.944 1_655 S
H1910 C1895 0.986 . S
H1911 C1895 0.962 . S
H1912 C1896 0.931 . S
H1913 C1901 0.930 . S
H1914 C1902 0.956 . S
H1915 C1902 0.961 . S
H1916 C1902 0.961 . S
H1917 C1903 0.958 . S
H1918 C1903 0.961 . S
H1919 C1903 0.960 . S
C1920 C1921 1.391 . S
C1920 C1922 1.394 . S
C1920 H1936 0.931 . S
C1921 C1920 1.391 . S
C1921 C1925 1.376 . S
C1922 C1920 1.394 . S
C1922 C1923 1.369 . S
C1922 C1926 1.531 . S
C1923 C1922 1.369 . S
C1923 C1924 1.410 . S
C1923 C1931 1.503 . S
C1924 C1923 1.410 . S
C1924 C1925 1.392 . S
C1924 C1927 1.511 . S
C1925 C1921 1.376 . S
C1925 C1924 1.392 . S
C1925 H1937 0.929 . S
C1926 C1922 1.531 . S
C1926 H1938 0.960 . S
C1926 H1939 0.962 . S
C1926 H1940 0.960 . S
C1927 C1924 1.511 . S
C1927 H1941 0.961 . S
C1927 H1942 0.961 . S
C1927 H1943 0.961 . S
C1928 C1929 1.370 . S
C1928 C1930 1.363 . S
C1928 H1944 0.931 . S
C1929 C1928 1.370 . S
C1929 C1933 1.408 . S
C1930 C1928 1.363 . S
C1930 C1931 1.370 . S
C1930 C1934 1.524 . S
C1931 C1923 1.503 . S
C1931 C1930 1.370 . S
C1931 C1932 1.403 . S
C1932 C1931 1.403 . S
C1932 C1933 1.404 . S
C1932 C1935 1.539 . S
C1933 C1929 1.408 . S
C1933 C1932 1.404 . S
C1933 H1945 0.930 . S
C1934 C1930 1.524 . S
C1934 H1946 0.956 . S
C1934 H1947 0.961 . S
C1934 H1948 0.961 . S
C1935 C1932 1.539 . S
C1935 H1949 0.958 . S
C1935 H1950 0.961 . S
C1935 H1951 0.960 . S
H1936 C1920 0.931 . S
H1937 C1925 0.929 . S
H1938 C1926 0.960 . S
H1939 C1926 0.962 . S
H1940 C1926 0.960 . S
H1941 C1927 0.961 . S
H1942 C1927 0.961 . S
H1943 C1927 0.961 . S
H1944 C1928 0.931 . S
H1945 C1933 0.930 . S
H1946 C1934 0.956 . S
H1947 C1934 0.961 . S
H1948 C1934 0.961 . S
H1949 C1935 0.958 . S
H1950 C1935 0.961 . S
H1951 C1935 0.960 . S
C1952 C1953 1.391 . S
C1952 C1954 1.394 . S
C1952 H1968 0.931 . S
C1953 C1952 1.391 . S
C1953 C1957 1.376 . S
C1954 C1952 1.394 . S
C1954 C1955 1.369 . S
C1954 C1958 1.531 . S
C1955 C1954 1.369 . S
C1955 C1956 1.410 . S
C1955 C1963 1.503 . S
C1956 C1955 1.410 . S
C1956 C1957 1.392 . S
C1956 C1959 1.511 . S
C1957 C1953 1.376 . S
C1957 C1956 1.392 . S
C1957 H1969 0.929 . S
C1958 C1954 1.531 . S
C1958 H1970 0.960 . S
C1958 H1971 0.962 . S
C1958 H1972 0.960 . S
C1959 C1956 1.511 . S
C1959 H1973 0.961 . S
C1959 H1974 0.961 . S
C1959 H1975 0.961 . S
C1960 C1961 1.370 . S
C1960 C1962 1.363 . S
C1960 H1976 0.931 . S
C1961 C1960 1.370 . S
C1961 C1965 1.408 . S
C1962 C1960 1.363 . S
C1962 C1963 1.370 . S
C1962 C1966 1.524 . S
C1963 C1955 1.503 . S
C1963 C1962 1.370 . S
C1963 C1964 1.403 . S
C1964 C1963 1.403 . S
C1964 C1965 1.404 . S
C1964 C1967 1.539 . S
C1965 C1961 1.408 . S
C1965 C1964 1.404 . S
C1965 H1977 0.930 . S
C1966 C1962 1.524 . S
C1966 H1978 0.956 . S
C1966 H1979 0.961 . S
C1966 H1980 0.961 . S
C1967 C1964 1.539 . S
C1967 H1981 0.958 . S
C1967 H1982 0.961 . S
C1967 H1983 0.960 . S
H1968 C1952 0.931 . S
H1969 C1957 0.929 . S
H1970 C1958 0.960 . S
H1971 C1958 0.962 . S
H1972 C1958 0.960 . S
H1973 C1959 0.961 . S
H1974 C1959 0.961 . S
H1975 C1959 0.961 . S
H1976 C1960 0.931 . S
H1977 C1965 0.930 . S
H1978 C1966 0.956 . S
H1979 C1966 0.961 . S
H1980 C1966 0.961 . S
H1981 C1967 0.958 . S
H1982 C1967 0.961 . S
H1983 C1967 0.960 . S
C1984 C1985 1.391 . S
C1984 C1986 1.394 . S
C1984 H2000 0.931 . S
C1985 C1984 1.391 . S
C1985 C1989 1.376 . S
C1986 C1984 1.394 . S
C1986 C1987 1.369 . S
C1986 C1990 1.531 . S
C1987 C1986 1.369 . S
C1987 C1988 1.410 . S
C1987 C1995 1.503 . S
C1988 C1987 1.410 . S
C1988 C1989 1.392 . S
C1988 C1991 1.511 . S
C1989 C1985 1.376 . S
C1989 C1988 1.392 . S
C1989 H2001 0.929 . S
C1990 C1986 1.531 . S
C1990 H2002 0.960 . S
C1990 H2003 0.962 . S
C1990 H2004 0.960 . S
C1991 C1988 1.511 . S
C1991 H2005 0.961 . S
C1991 H2006 0.961 . S
C1991 H2007 0.961 . S
C1992 C1993 1.370 . S
C1992 C1994 1.363 . S
C1992 H2008 0.931 . S
C1993 C1992 1.370 . S
C1993 C1997 1.408 . S
C1994 C1992 1.363 . S
C1994 C1995 1.370 . S
C1994 C1998 1.524 . S
C1995 C1987 1.503 . S
C1995 C1994 1.370 . S
C1995 C1996 1.403 . S
C1996 C1995 1.403 . S
C1996 C1997 1.404 . S
C1996 C1999 1.539 . S
C1997 C1993 1.408 . S
C1997 C1996 1.404 . S
C1997 H2009 0.930 . S
C1998 C1994 1.524 . S
C1998 H2010 0.956 . S
C1998 H2011 0.961 . S
C1998 H2012 0.961 . S
C1999 C1996 1.539 . S
C1999 H2013 0.958 . S
C1999 H2014 0.961 . S
C1999 H2015 0.960 . S
H2000 C1984 0.931 . S
H2001 C1989 0.929 . S
H2002 C1990 0.960 . S
H2003 C1990 0.962 . S
H2004 C1990 0.960 . S
H2005 C1991 0.961 . S
H2006 C1991 0.961 . S
H2007 C1991 0.961 . S
H2008 C1992 0.931 . S
H2009 C1997 0.930 . S
H2010 C1998 0.956 . S
H2011 C1998 0.961 . S
H2012 C1998 0.961 . S
H2013 C1999 0.958 . S
H2014 C1999 0.961 . S
H2015 C1999 0.960 . S
C2016 C2017 1.391 . S
C2016 C2018 1.394 . S
C2016 H2032 0.931 . S
C2017 C2016 1.391 . S
C2017 C2021 1.376 . S
C2018 C2016 1.394 . S
C2018 C2019 1.369 . S
C2018 C2022 1.531 . S
C2019 C2018 1.369 . S
C2019 C2020 1.410 . S
C2019 C2027 1.503 . S
C2020 C2019 1.410 . S
C2020 C2021 1.392 . S
C2020 C2023 1.511 . S
C2021 C2017 1.376 . S
C2021 C2020 1.392 . S
C2021 H2033 0.929 . S
C2022 C2018 1.531 . S
C2022 H2034 0.960 . S
C2022 H2035 0.962 . S
C2022 H2036 0.960 . S
C2023 C2020 1.511 . S
C2023 H2037 0.961 . S
C2023 H2038 0.961 . S
C2023 H2039 0.961 . S
C2024 C2025 1.370 . S
C2024 C2026 1.363 . S
C2024 H2040 0.931 . S
C2025 C2024 1.370 . S
C2025 C2029 1.408 . S
C2026 C2024 1.363 . S
C2026 C2027 1.370 . S
C2026 C2030 1.524 . S
C2027 C2019 1.503 . S
C2027 C2026 1.370 . S
C2027 C2028 1.403 . S
C2028 C2027 1.403 . S
C2028 C2029 1.404 . S
C2028 C2031 1.539 . S
C2029 C2025 1.408 . S
C2029 C2028 1.404 . S
C2029 H2041 0.930 . S
C2030 C2026 1.524 . S
C2030 H2042 0.956 . S
C2030 H2043 0.961 . S
C2030 H2044 0.961 . S
C2031 C2028 1.539 . S
C2031 H2045 0.958 . S
C2031 H2046 0.961 . S
C2031 H2047 0.960 . S
H2032 C2016 0.931 . S
H2033 C2021 0.929 . S
H2034 C2022 0.960 . S
H2035 C2022 0.962 . S
H2036 C2022 0.960 . S
H2037 C2023 0.961 . S
H2038 C2023 0.961 . S
H2039 C2023 0.961 . S
H2040 C2024 0.931 . S
H2041 C2029 0.930 . S
H2042 C2030 0.956 . S
H2043 C2030 0.961 . S
H2044 C2030 0.961 . S
H2045 C2031 0.958 . S
H2046 C2031 0.961 . S
H2047 C2031 0.960 . S
C2048 C2049 1.391 . S
C2048 C2050 1.394 . S
C2048 H2064 0.931 . S
C2049 C2048 1.391 . S
C2049 C2053 1.376 . S
C2050 C2048 1.394 . S
C2050 C2051 1.369 . S
C2050 C2054 1.531 . S
C2051 C2050 1.369 . S
C2051 C2052 1.410 . S
C2051 C2059 1.503 . S
C2052 C2051 1.410 . S
C2052 C2053 1.392 . S
C2052 C2055 1.511 . S
C2053 C2049 1.376 . S
C2053 C2052 1.392 . S
C2053 H2065 0.929 . S
C2054 C2050 1.531 . S
C2054 H2066 0.960 . S
C2054 H2067 0.962 . S
C2054 H2068 0.960 . S
C2055 C2052 1.511 . S
C2055 H2069 0.961 . S
C2055 H2070 0.961 . S
C2055 H2071 0.961 . S
C2056 C2057 1.370 . S
C2056 C2058 1.363 . S
C2056 H2072 0.931 . S
C2057 C2056 1.370 . S
C2057 C2061 1.408 . S
C2058 C2056 1.363 . S
C2058 C2059 1.370 . S
C2058 C2062 1.524 . S
C2059 C2051 1.503 . S
C2059 C2058 1.370 . S
C2059 C2060 1.403 . S
C2060 C2059 1.403 . S
C2060 C2061 1.404 . S
C2060 C2063 1.539 . S
C2061 C2057 1.408 . S
C2061 C2060 1.404 . S
C2061 H2073 0.930 . S
C2062 C2058 1.524 . S
C2062 H2074 0.956 . S
C2062 H2075 0.961 . S
C2062 H2076 0.961 . S
C2063 C2060 1.539 . S
C2063 H2077 0.958 . S
C2063 H2078 0.961 . S
C2063 H2079 0.960 . S
H2064 C2048 0.931 . S
H2065 C2053 0.929 . S
H2066 C2054 0.960 . S
H2067 C2054 0.962 . S
H2068 C2054 0.960 . S
H2069 C2055 0.961 . S
H2070 C2055 0.961 . S
H2071 C2055 0.961 . S
H2072 C2056 0.931 . S
H2073 C2061 0.930 . S
H2074 C2062 0.956 . S
H2075 C2062 0.961 . S
H2076 C2062 0.961 . S
H2077 C2063 0.958 . S
H2078 C2063 0.961 . S
H2079 C2063 0.960 . S
C2080 C2081 1.391 . S
C2080 C2082 1.394 . S
C2080 H2096 0.931 . S
C2081 C2080 1.391 . S
C2081 C2085 1.376 . S
C2082 C2080 1.394 . S
C2082 C2083 1.369 . S
C2082 C2086 1.531 . S
C2083 C2082 1.369 . S
C2083 C2084 1.410 . S
C2083 C2091 1.503 . S
C2084 C2083 1.410 . S
C2084 C2085 1.392 . S
C2084 C2087 1.511 . S
C2085 C2081 1.376 . S
C2085 C2084 1.392 . S
C2085 H2097 0.929 . S
C2086 C2082 1.531 . S
C2086 H2098 0.960 . S
C2086 H2099 0.962 . S
C2086 H2100 0.960 . S
C2087 C2084 1.511 . S
C2087 H2101 0.961 . S
C2087 H2102 0.961 . S
C2087 H2103 0.961 . S
C2088 C2089 1.370 . S
C2088 C2090 1.363 . S
C2088 H2104 0.931 . S
C2089 C2088 1.370 . S
C2089 C2093 1.408 . S
C2090 C2088 1.363 . S
C2090 C2091 1.370 . S
C2090 C2094 1.524 . S
C2091 C2083 1.503 . S
C2091 C2090 1.370 . S
C2091 C2092 1.403 . S
C2092 C2091 1.403 . S
C2092 C2093 1.404 . S
C2092 C2095 1.539 . S
C2093 C2089 1.408 . S
C2093 C2092 1.404 . S
C2093 H2105 0.930 . S
C2094 C2090 1.524 . S
C2094 H2106 0.956 . S
C2094 H2107 0.961 . S
C2094 H2108 0.961 . S
C2095 C2092 1.539 . S
C2095 H2109 0.958 . S
C2095 H2110 0.961 . S
C2095 H2111 0.960 . S
H2096 C2080 0.931 . S
H2097 C2085 0.929 . S
H2098 C2086 0.960 . S
H2099 C2086 0.962 . S
H2100 C2086 0.960 . S
H2101 C2087 0.961 . S
H2102 C2087 0.961 . S
H2103 C2087 0.961 . S
H2104 C2088 0.931 . S
H2105 C2093 0.930 . S
H2106 C2094 0.956 . S
H2107 C2094 0.961 . S
H2108 C2094 0.961 . S
H2109 C2095 0.958 . S
H2110 C2095 0.961 . S
H2111 C2095 0.960 . S
C2112 C2113 1.391 . S
C2112 C2114 1.394 . S
C2112 H2128 0.931 . S
C2113 C2112 1.391 . S
C2113 C2117 1.376 . S
C2114 C2112 1.394 . S
C2114 C2115 1.369 . S
C2114 C2118 1.531 . S
C2115 C2114 1.369 . S
C2115 C2116 1.410 . S
C2115 C2123 1.503 . S
C2116 C2115 1.410 . S
C2116 C2117 1.392 . S
C2116 C2119 1.511 . S
C2117 C2113 1.376 . S
C2117 C2116 1.392 . S
C2117 H2129 0.929 . S
C2118 C2114 1.531 . S
C2118 H2130 0.960 . S
C2118 H2131 0.962 . S
C2118 H2132 0.960 . S
C2119 C2116 1.511 . S
C2119 H2133 0.961 . S
C2119 H2134 0.961 . S
C2119 H2135 0.961 . S
C2120 C2121 1.370 . S
C2120 C2122 1.363 . S
C2120 H2136 0.931 . S
C2121 C2120 1.370 . S
C2121 C2125 1.408 . S
C2122 C2120 1.363 . S
C2122 C2123 1.370 . S
C2122 C2126 1.524 . S
C2123 C2115 1.503 . S
C2123 C2122 1.370 . S
C2123 C2124 1.403 . S
C2124 C2123 1.403 . S
C2124 C2125 1.404 . S
C2124 C2127 1.539 . S
C2125 C2121 1.408 . S
C2125 C2124 1.404 . S
C2125 H2137 0.930 . S
C2126 C2122 1.524 . S
C2126 H2138 0.956 . S
C2126 H2139 0.961 . S
C2126 H2140 0.961 . S
C2127 C2124 1.539 . S
C2127 H2141 0.958 . S
C2127 H2142 0.961 . S
C2127 H2143 0.960 . S
H2128 C2112 0.931 . S
H2129 C2117 0.929 . S
H2130 C2118 0.960 . S
H2131 C2118 0.962 . S
H2132 C2118 0.960 . S
H2133 C2119 0.961 . S
H2134 C2119 0.961 . S
H2135 C2119 0.961 . S
H2136 C2120 0.931 . S
H2137 C2125 0.930 . S
H2138 C2126 0.956 . S
H2139 C2126 0.961 . S
H2140 C2126 0.961 . S
H2141 C2127 0.958 . S
H2142 C2127 0.961 . S
H2143 C2127 0.960 . S
C2144 C2145 1.391 . S
C2144 C2146 1.394 . S
C2144 H2160 0.931 . S
C2145 C2144 1.391 . S
C2145 C2149 1.376 . S
C2146 C2144 1.394 . S
C2146 C2147 1.369 . S
C2146 C2150 1.531 . S
C2147 C2146 1.369 . S
C2147 C2148 1.410 . S
C2147 C2155 1.503 . S
C2148 C2147 1.410 . S
C2148 C2149 1.392 . S
C2148 C2151 1.511 . S
C2149 C2145 1.376 . S
C2149 C2148 1.392 . S
C2149 H2161 0.929 . S
C2150 C2146 1.531 . S
C2150 H2162 0.960 . S
C2150 H2163 0.962 . S
C2150 H2164 0.960 . S
C2151 C2148 1.511 . S
C2151 H2165 0.961 . S
C2151 H2166 0.961 . S
C2151 H2167 0.961 . S
C2152 C2153 1.370 . S
C2152 C2154 1.363 . S
C2152 H2168 0.931 . S
C2153 C2152 1.370 . S
C2153 C2157 1.408 . S
C2154 C2152 1.363 . S
C2154 C2155 1.370 . S
C2154 C2158 1.524 . S
C2155 C2147 1.503 . S
C2155 C2154 1.370 . S
C2155 C2156 1.403 . S
C2156 C2155 1.403 . S
C2156 C2157 1.404 . S
C2156 C2159 1.539 . S
C2157 C2153 1.408 . S
C2157 C2156 1.404 . S
C2157 H2169 0.930 . S
C2158 C2154 1.524 . S
C2158 H2170 0.956 . S
C2158 H2171 0.961 . S
C2158 H2172 0.961 . S
C2159 C2156 1.539 . S
C2159 H2173 0.958 . S
C2159 H2174 0.961 . S
C2159 H2175 0.960 . S
H2160 C2144 0.931 . S
H2161 C2149 0.929 . S
H2162 C2150 0.960 . S
H2163 C2150 0.962 . S
H2164 C2150 0.960 . S
H2165 C2151 0.961 . S
H2166 C2151 0.961 . S
H2167 C2151 0.961 . S
H2168 C2152 0.931 . S
H2169 C2157 0.930 . S
H2170 C2158 0.956 . S
H2171 C2158 0.961 . S
H2172 C2158 0.961 . S
H2173 C2159 0.958 . S
H2174 C2159 0.961 . S
H2175 C2159 0.960 . S
C2176 C2177 1.391 . S
C2176 C2178 1.394 . S
C2176 H2192 0.931 . S
C2177 C2176 1.391 . S
C2177 C2181 1.376 . S
C2178 C2176 1.394 . S
C2178 C2179 1.369 . S
C2178 C2182 1.531 . S
C2179 C2178 1.369 . S
C2179 C2180 1.410 . S
C2179 C2187 1.503 . S
C2180 C2179 1.410 . S
C2180 C2181 1.392 . S
C2180 C2183 1.511 . S
C2181 C2177 1.376 . S
C2181 C2180 1.392 . S
C2181 H2193 0.929 . S
C2182 C2178 1.531 . S
C2182 H2194 0.960 . S
C2182 H2195 0.962 . S
C2182 H2196 0.960 . S
C2183 C2180 1.511 . S
C2183 H2197 0.961 . S
C2183 H2198 0.961 . S
C2183 H2199 0.961 . S
C2184 C2185 1.370 . S
C2184 C2186 1.363 . S
C2184 H2200 0.931 . S
C2185 C2184 1.370 . S
C2185 C2189 1.408 . S
C2186 C2184 1.363 . S
C2186 C2187 1.370 . S
C2186 C2190 1.524 . S
C2187 C2179 1.503 . S
C2187 C2186 1.370 . S
C2187 C2188 1.403 . S
C2188 C2187 1.403 . S
C2188 C2189 1.404 . S
C2188 C2191 1.539 . S
C2189 C2185 1.408 . S
C2189 C2188 1.404 . S
C2189 H2201 0.930 . S
C2190 C2186 1.524 . S
C2190 H2202 0.956 . S
C2190 H2203 0.961 . S
C2190 H2204 0.961 . S
C2191 C2188 1.539 . S
C2191 H2205 0.958 . S
C2191 H2206 0.961 . S
C2191 H2207 0.960 . S
H2192 C2176 0.931 . S
H2193 C2181 0.929 . S
H2194 C2182 0.960 . S
H2195 C2182 0.962 . S
H2196 C2182 0.960 . S
H2197 C2183 0.961 . S
H2198 C2183 0.961 . S
H2199 C2183 0.961 . S
H2200 C2184 0.931 . S
H2201 C2189 0.930 . S
H2202 C2190 0.956 . S
H2203 C2190 0.961 . S
H2204 C2190 0.961 . S
H2205 C2191 0.958 . S
H2206 C2191 0.961 . S
H2207 C2191 0.960 . S
C2208 C2209 1.391 . S
C2208 C2210 1.394 . S
C2208 H2224 0.931 . S
C2209 C2208 1.391 . S
C2209 C2213 1.376 . S
C2210 C2208 1.394 . S
C2210 C2211 1.369 . S
C2210 C2214 1.531 . S
C2211 C2210 1.369 . S
C2211 C2212 1.410 . S
C2211 C2219 1.503 . S
C2212 C2211 1.410 . S
C2212 C2213 1.392 . S
C2212 C2215 1.511 . S
C2213 C2209 1.376 . S
C2213 C2212 1.392 . S
C2213 H2225 0.929 . S
C2214 C2210 1.531 . S
C2214 H2226 0.960 . S
C2214 H2227 0.962 . S
C2214 H2228 0.960 . S
C2215 C2212 1.511 . S
C2215 H2229 0.961 . S
C2215 H2230 0.961 . S
C2215 H2231 0.961 . S
C2216 C2217 1.370 . S
C2216 C2218 1.363 . S
C2216 H2232 0.931 . S
C2217 C2216 1.370 . S
C2217 C2221 1.408 . S
C2218 C2216 1.363 . S
C2218 C2219 1.370 . S
C2218 C2222 1.524 . S
C2219 C2211 1.503 . S
C2219 C2218 1.370 . S
C2219 C2220 1.403 . S
C2220 C2219 1.403 . S
C2220 C2221 1.404 . S
C2220 C2223 1.539 . S
C2221 C2217 1.408 . S
C2221 C2220 1.404 . S
C2221 H2233 0.930 . S
C2222 C2218 1.524 . S
C2222 H2234 0.956 . S
C2222 H2235 0.961 . S
C2222 H2236 0.961 . S
C2223 C2220 1.539 . S
C2223 H2237 0.958 . S
C2223 H2238 0.961 . S
C2223 H2239 0.960 . S
H2224 C2208 0.931 . S
H2225 C2213 0.929 . S
H2226 C2214 0.960 . S
H2227 C2214 0.962 . S
H2228 C2214 0.960 . S
H2229 C2215 0.961 . S
H2230 C2215 0.961 . S
H2231 C2215 0.961 . S
H2232 C2216 0.931 . S
H2233 C2221 0.930 . S
H2234 C2222 0.956 . S
H2235 C2222 0.961 . S
H2236 C2222 0.961 . S
H2237 C2223 0.958 . S
H2238 C2223 0.961 . S
H2239 C2223 0.960 . S
C2240 C2241 1.391 . S
C2240 C2242 1.394 . S
C2240 H2256 0.931 . S
C2241 C2240 1.391 . S
C2241 C2245 1.376 . S
C2242 C2240 1.394 . S
C2242 C2243 1.369 . S
C2242 C2246 1.531 . S
C2243 C2242 1.369 . S
C2243 C2244 1.410 . S
C2243 C2251 1.503 . S
C2244 C2243 1.410 . S
C2244 C2245 1.392 . S
C2244 C2247 1.511 . S
C2245 C2241 1.376 . S
C2245 C2244 1.392 . S
C2245 H2257 0.929 . S
C2246 C2242 1.531 . S
C2246 H2258 0.960 . S
C2246 H2259 0.962 . S
C2246 H2260 0.960 . S
C2247 C2244 1.511 . S
C2247 H2261 0.961 . S
C2247 H2262 0.961 . S
C2247 H2263 0.961 . S
C2248 C2249 1.370 . S
C2248 C2250 1.363 . S
C2248 H2264 0.931 . S
C2249 C2248 1.370 . S
C2249 C2253 1.408 . S
C2250 C2248 1.363 . S
C2250 C2251 1.370 . S
C2250 C2254 1.524 . S
C2251 C2243 1.503 . S
C2251 C2250 1.370 . S
C2251 C2252 1.403 . S
C2252 C2251 1.403 . S
C2252 C2253 1.404 . S
C2252 C2255 1.539 . S
C2253 C2249 1.408 . S
C2253 C2252 1.404 . S
C2253 H2265 0.930 . S
C2254 C2250 1.524 . S
C2254 H2266 0.956 . S
C2254 H2267 0.961 . S
C2254 H2268 0.961 . S
C2255 C2252 1.539 . S
C2255 H2269 0.958 . S
C2255 H2270 0.961 . S
C2255 H2271 0.960 . S
H2256 C2240 0.931 . S
H2257 C2245 0.929 . S
H2258 C2246 0.960 . S
H2259 C2246 0.962 . S
H2260 C2246 0.960 . S
H2261 C2247 0.961 . S
H2262 C2247 0.961 . S
H2263 C2247 0.961 . S
H2264 C2248 0.931 . S
H2265 C2253 0.930 . S
H2266 C2254 0.956 . S
H2267 C2254 0.961 . S
H2268 C2254 0.961 . S
H2269 C2255 0.958 . S
H2270 C2255 0.961 . S
H2271 C2255 0.960 . S
C2272 C2273 1.391 . S
C2272 C2274 1.394 . S
C2272 H2288 0.931 . S
C2273 C2272 1.391 . S
C2273 C2277 1.376 . S
C2274 C2272 1.394 . S
C2274 C2275 1.369 . S
C2274 C2278 1.531 . S
C2275 C2274 1.369 . S
C2275 C2276 1.410 . S
C2275 C2283 1.503 . S
C2276 C2275 1.410 . S
C2276 C2277 1.392 . S
C2276 C2279 1.511 . S
C2277 C2273 1.376 . S
C2277 C2276 1.392 . S
C2277 H2289 0.929 . S
C2278 C2274 1.531 . S
C2278 H2290 0.960 . S
C2278 H2291 0.962 . S
C2278 H2292 0.960 . S
C2279 C2276 1.511 . S
C2279 H2293 0.961 . S
C2279 H2294 0.961 . S
C2279 H2295 0.961 . S
C2280 C2281 1.370 . S
C2280 C2282 1.363 . S
C2280 H2296 0.931 . S
C2281 C2280 1.370 . S
C2281 C2285 1.408 . S
C2282 C2280 1.363 . S
C2282 C2283 1.370 . S
C2282 C2286 1.524 . S
C2283 C2275 1.503 . S
C2283 C2282 1.370 . S
C2283 C2284 1.403 . S
C2284 C2283 1.403 . S
C2284 C2285 1.404 . S
C2284 C2287 1.539 . S
C2285 C2281 1.408 . S
C2285 C2284 1.404 . S
C2285 H2297 0.930 . S
C2286 C2282 1.524 . S
C2286 H2298 0.956 . S
C2286 H2299 0.961 . S
C2286 H2300 0.961 . S
C2287 C2284 1.539 . S
C2287 H2301 0.958 . S
C2287 H2302 0.961 . S
C2287 H2303 0.960 . S
H2288 C2272 0.931 . S
H2289 C2277 0.929 . S
H2290 C2278 0.960 . S
H2291 C2278 0.962 . S
H2292 C2278 0.960 . S
H2293 C2279 0.961 . S
H2294 C2279 0.961 . S
H2295 C2279 0.961 . S
H2296 C2280 0.931 . S
H2297 C2285 0.930 . S
H2298 C2286 0.956 . S
H2299 C2286 0.961 . S
H2300 C2286 0.961 . S
H2301 C2287 0.958 . S
H2302 C2287 0.961 . S
H2303 C2287 0.960 . S
C2304 C2305 1.391 . S
C2304 C2306 1.394 . S
C2304 H2320 0.931 . S
C2305 C2304 1.391 . S
C2305 C2309 1.376 . S
C2306 C2304 1.394 . S
C2306 C2307 1.369 . S
C2306 C2310 1.531 . S
C2307 C2306 1.369 . S
C2307 C2308 1.410 . S
C2307 C2315 1.503 . S
C2308 C2307 1.410 . S
C2308 C2309 1.392 . S
C2308 C2311 1.511 . S
C2309 C2305 1.376 . S
C2309 C2308 1.392 . S
C2309 H2321 0.929 . S
C2310 C2306 1.531 . S
C2310 H2322 0.960 . S
C2310 H2323 0.962 . S
C2310 H2324 0.960 . S
C2311 C2308 1.511 . S
C2311 H2325 0.961 . S
C2311 H2326 0.961 . S
C2311 H2327 0.961 . S
C2312 C2313 1.370 . S
C2312 C2314 1.363 . S
C2312 H2328 0.931 . S
C2313 C2312 1.370 . S
C2313 C2317 1.408 . S
C2314 C2312 1.363 . S
C2314 C2315 1.370 . S
C2314 C2318 1.524 . S
C2315 C2307 1.503 . S
C2315 C2314 1.370 . S
C2315 C2316 1.403 . S
C2316 C2315 1.403 . S
C2316 C2317 1.404 . S
C2316 C2319 1.539 . S
C2317 C2313 1.408 . S
C2317 C2316 1.404 . S
C2317 H2329 0.930 . S
C2318 C2314 1.524 . S
C2318 H2330 0.956 . S
C2318 H2331 0.961 . S
C2318 H2332 0.961 . S
C2319 C2316 1.539 . S
C2319 H2333 0.958 . S
C2319 H2334 0.961 . S
C2319 H2335 0.960 . S
H2320 C2304 0.931 . S
H2321 C2309 0.929 . S
H2322 C2310 0.960 . S
H2323 C2310 0.962 . S
H2324 C2310 0.960 . S
H2325 C2311 0.961 . S
H2326 C2311 0.961 . S
H2327 C2311 0.961 . S
H2328 C2312 0.931 . S
H2329 C2317 0.930 . S
H2330 C2318 0.956 . S
H2331 C2318 0.961 . S
H2332 C2318 0.961 . S
H2333 C2319 0.958 . S
H2334 C2319 0.961 . S
H2335 C2319 0.960 . S
C2336 C2337 1.391 . S
C2336 C2338 1.394 . S
C2336 H2352 0.931 . S
C2337 C2336 1.391 . S
C2337 C2341 1.376 . S
C2338 C2336 1.394 . S
C2338 C2339 1.369 . S
C2338 C2342 1.531 . S
C2339 C2338 1.369 . S
C2339 C2340 1.410 . S
C2339 C2347 1.503 . S
C2340 C2339 1.410 . S
C2340 C2341 1.392 . S
C2340 C2343 1.511 . S
C2341 C2337 1.376 . S
C2341 C2340 1.392 . S
C2341 H2353 0.929 . S
C2342 C2338 1.531 . S
C2342 H2354 0.960 . S
C2342 H2355 0.962 . S
C2342 H2356 0.960 . S
C2343 C2340 1.511 . S
C2343 H2357 0.961 . S
C2343 H2358 0.961 . S
C2343 H2359 0.961 . S
C2344 C2345 1.370 . S
C2344 C2346 1.363 . S
C2344 H2360 0.931 . S
C2345 C2344 1.370 . S
C2345 C2349 1.408 . S
C2346 C2344 1.363 . S
C2346 C2347 1.370 . S
C2346 C2350 1.524 . S
C2347 C2339 1.503 . S
C2347 C2346 1.370 . S
C2347 C2348 1.403 . S
C2348 C2347 1.403 . S
C2348 C2349 1.404 . S
C2348 C2351 1.539 . S
C2349 C2345 1.408 . S
C2349 C2348 1.404 . S
C2349 H2361 0.930 . S
C2350 C2346 1.524 . S
C2350 H2362 0.956 . S
C2350 H2363 0.961 . S
C2350 H2364 0.961 . S
C2351 C2348 1.539 . S
C2351 H2365 0.958 . S
C2351 H2366 0.961 . S
C2351 H2367 0.960 . S
H2352 C2336 0.931 . S
H2353 C2341 0.929 . S
H2354 C2342 0.960 . S
H2355 C2342 0.962 . S
H2356 C2342 0.960 . S
H2357 C2343 0.961 . S
H2358 C2343 0.961 . S
H2359 C2343 0.961 . S
H2360 C2344 0.931 . S
H2361 C2349 0.930 . S
H2362 C2350 0.956 . S
H2363 C2350 0.961 . S
H2364 C2350 0.961 . S
H2365 C2351 0.958 . S
H2366 C2351 0.961 . S
H2367 C2351 0.960 . S
C2368 C2369 1.391 . S
C2368 C2370 1.394 . S
C2368 H2384 0.931 . S
C2369 C2368 1.391 . S
C2369 C2373 1.376 . S
C2370 C2368 1.394 . S
C2370 C2371 1.369 . S
C2370 C2374 1.531 . S
C2371 C2370 1.369 . S
C2371 C2372 1.410 . S
C2371 C2379 1.503 . S
C2372 C2371 1.410 . S
C2372 C2373 1.392 . S
C2372 C2375 1.511 . S
C2373 C2369 1.376 . S
C2373 C2372 1.392 . S
C2373 H2385 0.929 . S
C2374 C2370 1.531 . S
C2374 H2386 0.960 . S
C2374 H2387 0.962 . S
C2374 H2388 0.960 . S
C2375 C2372 1.511 . S
C2375 H2389 0.961 . S
C2375 H2390 0.961 . S
C2375 H2391 0.961 . S
C2376 C2377 1.370 . S
C2376 C2378 1.363 . S
C2376 H2392 0.931 . S
C2377 C2376 1.370 . S
C2377 C2381 1.408 . S
C2378 C2376 1.363 . S
C2378 C2379 1.370 . S
C2378 C2382 1.524 . S
C2379 C2371 1.503 . S
C2379 C2378 1.370 . S
C2379 C2380 1.403 . S
C2380 C2379 1.403 . S
C2380 C2381 1.404 . S
C2380 C2383 1.539 . S
C2381 C2377 1.408 . S
C2381 C2380 1.404 . S
C2381 H2393 0.930 . S
C2382 C2378 1.524 . S
C2382 H2394 0.956 . S
C2382 H2395 0.961 . S
C2382 H2396 0.961 . S
C2383 C2380 1.539 . S
C2383 H2397 0.958 . S
C2383 H2398 0.961 . S
C2383 H2399 0.960 . S
H2384 C2368 0.931 . S
H2385 C2373 0.929 . S
H2386 C2374 0.960 . S
H2387 C2374 0.962 . S
H2388 C2374 0.960 . S
H2389 C2375 0.961 . S
H2390 C2375 0.961 . S
H2391 C2375 0.961 . S
H2392 C2376 0.931 . S
H2393 C2381 0.930 . S
H2394 C2382 0.956 . S
H2395 C2382 0.961 . S
H2396 C2382 0.961 . S
H2397 C2383 0.958 . S
H2398 C2383 0.961 . S
H2399 C2383 0.960 . S
C2400 C2401 1.391 . S
C2400 C2402 1.394 . S
C2400 H2416 0.931 . S
C2401 C2400 1.391 . S
C2401 C2405 1.376 . S
C2402 C2400 1.394 . S
C2402 C2403 1.369 . S
C2402 C2406 1.531 . S
C2403 C2402 1.369 . S
C2403 C2404 1.410 . S
C2403 C2411 1.503 . S
C2404 C2403 1.410 . S
C2404 C2405 1.392 . S
C2404 C2407 1.511 . S
C2405 C2401 1.376 . S
C2405 C2404 1.392 . S
C2405 H2417 0.929 . S
C2406 C2402 1.531 . S
C2406 H2418 0.960 . S
C2406 H2419 0.962 . S
C2406 H2420 0.960 . S
C2407 C2404 1.511 . S
C2407 H2421 0.961 . S
C2407 H2422 0.961 . S
C2407 H2423 0.961 . S
C2408 C2409 1.370 . S
C2408 C2410 1.363 . S
C2408 H2424 0.931 . S
C2409 C2408 1.370 . S
C2409 C2413 1.408 . S
C2410 C2408 1.363 . S
C2410 C2411 1.370 . S
C2410 C2414 1.524 . S
C2411 C2403 1.503 . S
C2411 C2410 1.370 . S
C2411 C2412 1.403 . S
C2412 C2411 1.403 . S
C2412 C2413 1.404 . S
C2412 C2415 1.539 . S
C2413 C2409 1.408 . S
C2413 C2412 1.404 . S
C2413 H2425 0.930 . S
C2414 C2410 1.524 . S
C2414 H2426 0.956 . S
C2414 H2427 0.961 . S
C2414 H2428 0.961 . S
C2415 C2412 1.539 . S
C2415 H2429 0.958 . S
C2415 H2430 0.961 . S
C2415 H2431 0.960 . S
H2416 C2400 0.931 . S
H2417 C2405 0.929 . S
H2418 C2406 0.960 . S
H2419 C2406 0.962 . S
H2420 C2406 0.960 . S
H2421 C2407 0.961 . S
H2422 C2407 0.961 . S
H2423 C2407 0.961 . S
H2424 C2408 0.931 . S
H2425 C2413 0.930 . S
H2426 C2414 0.956 . S
H2427 C2414 0.961 . S
H2428 C2414 0.961 . S
H2429 C2415 0.958 . S
H2430 C2415 0.961 . S
H2431 C2415 0.960 . S
C2432 C2433 1.391 . S
C2432 C2434 1.394 . S
C2432 H2448 0.931 . S
C2433 C2432 1.391 . S
C2433 C2437 1.376 . S
C2434 C2432 1.394 . S
C2434 C2435 1.369 . S
C2434 C2438 1.531 . S
C2435 C2434 1.369 . S
C2435 C2436 1.410 . S
C2435 C2443 1.503 . S
C2436 C2435 1.410 . S
C2436 C2437 1.392 . S
C2436 C2439 1.511 . S
C2437 C2433 1.376 . S
C2437 C2436 1.392 . S
C2437 H2449 0.929 . S
C2438 C2434 1.531 . S
C2438 H2450 0.960 . S
C2438 H2451 0.962 . S
C2438 H2452 0.960 . S
C2439 C2436 1.511 . S
C2439 H2453 0.961 . S
C2439 H2454 0.961 . S
C2439 H2455 0.961 . S
C2440 C2441 1.370 . S
C2440 C2442 1.363 . S
C2440 H2456 0.931 . S
C2441 C2440 1.370 . S
C2441 C2445 1.408 . S
C2442 C2440 1.363 . S
C2442 C2443 1.370 . S
C2442 C2446 1.524 . S
C2443 C2435 1.503 . S
C2443 C2442 1.370 . S
C2443 C2444 1.403 . S
C2444 C2443 1.403 . S
C2444 C2445 1.404 . S
C2444 C2447 1.539 . S
C2445 C2441 1.408 . S
C2445 C2444 1.404 . S
C2445 H2457 0.930 . S
C2446 C2442 1.524 . S
C2446 H2458 0.956 . S
C2446 H2459 0.961 . S
C2446 H2460 0.961 . S
C2447 C2444 1.539 . S
C2447 H2461 0.958 . S
C2447 H2462 0.961 . S
C2447 H2463 0.960 . S
H2448 C2432 0.931 . S
H2449 C2437 0.929 . S
H2450 C2438 0.960 . S
H2451 C2438 0.962 . S
H2452 C2438 0.960 . S
H2453 C2439 0.961 . S
H2454 C2439 0.961 . S
H2455 C2439 0.961 . S
H2456 C2440 0.931 . S
H2457 C2445 0.930 . S
H2458 C2446 0.956 . S
H2459 C2446 0.961 . S
H2460 C2446 0.961 . S
H2461 C2447 0.958 . S
H2462 C2447 0.961 . S
H2463 C2447 0.960 . S
C2464 C2465 1.391 . S
C2464 C2466 1.394 . S
C2464 H2480 0.931 . S
C2465 C2464 1.391 . S
C2465 C2469 1.376 . S
C2466 C2464 1.394 . S
C2466 C2467 1.369 . S
C2466 C2470 1.531 . S
C2467 C2466 1.369 . S
C2467 C2468 1.410 . S
C2467 C2475 1.503 . S
C2468 C2467 1.410 . S
C2468 C2469 1.392 . S
C2468 C2471 1.511 . S
C2469 C2465 1.376 . S
C2469 C2468 1.392 . S
C2469 H2481 0.929 . S
C2470 C2466 1.531 . S
C2470 H2482 0.960 . S
C2470 H2483 0.962 . S
C2470 H2484 0.960 . S
C2471 C2468 1.511 . S
C2471 H2485 0.961 . S
C2471 H2486 0.961 . S
C2471 H2487 0.961 . S
C2472 C2473 1.370 . S
C2472 C2474 1.363 . S
C2472 H2488 0.931 . S
C2473 C2472 1.370 . S
C2473 C2477 1.408 . S
C2474 C2472 1.363 . S
C2474 C2475 1.370 . S
C2474 C2478 1.524 . S
C2475 C2467 1.503 . S
C2475 C2474 1.370 . S
C2475 C2476 1.403 . S
C2476 C2475 1.403 . S
C2476 C2477 1.404 . S
C2476 C2479 1.539 . S
C2477 C2473 1.408 . S
C2477 C2476 1.404 . S
C2477 H2489 0.930 . S
C2478 C2474 1.524 . S
C2478 H2490 0.956 . S
C2478 H2491 0.961 . S
C2478 H2492 0.961 . S
C2479 C2476 1.539 . S
C2479 H2493 0.958 . S
C2479 H2494 0.961 . S
C2479 H2495 0.960 . S
H2480 C2464 0.931 . S
H2481 C2469 0.929 . S
H2482 C2470 0.960 . S
H2483 C2470 0.962 . S
H2484 C2470 0.960 . S
H2485 C2471 0.961 . S
H2486 C2471 0.961 . S
H2487 C2471 0.961 . S
H2488 C2472 0.931 . S
H2489 C2477 0.930 . S
H2490 C2478 0.956 . S
H2491 C2478 0.961 . S
H2492 C2478 0.961 . S
H2493 C2479 0.958 . S
H2494 C2479 0.961 . S
H2495 C2479 0.960 . S
C449 C6 1.526 . S
C457 C62 1.531 . S
C481 C20 1.539 . S
C489 C76 1.523 . S
C513 C90 1.561 . S
C521 C34 1.514 . S
C545 C104 1.506 . S
C553 C48 1.538 . S
C577 C118 1.549 . S
C585 C174 1.525 . S
C609 C132 1.561 . S
C617 C188 1.515 . S
C641 C202 1.536 . S
C649 C146 1.520 . S
C673 C160 1.536 . S
C681 C216 1.520 . S
C705 C286 1.522 . S
C713 C230 1.532 . S
C737 C300 1.510 . S
C745 C244 1.534 . S
C769 C258 1.496 . S
C777 C314 1.542 . S
C801 C328 1.523 . S
C809 C272 1.529 . S
C833 C342 1.558 . S
C841 C398 1.520 . S
C865 C412 1.490 . S
C873 C356 1.542 . S
C897 C426 1.493 . S
C905 C370 1.539 . S
C929 C384 1.495 . S
C937 C440 1.544 . S
C961 C9 1.637 . S
C969 C386 1.663 . S
C993 C120 1.652 . S
C1001 C23 1.610 . S
C1025 C37 1.599 . S
C1033 C358 1.658 . S
C1057 C51 1.628 . S
C1065 C148 1.663 . S
C1089 C414 1.650 . S
C1097 C65 1.613 . S
C1121 C204 1.656 . S
C1129 C79 1.609 . S
C1153 C93 1.611 . S
C1161 C442 1.658 . S
C1185 C107 1.616 . S
C1193 C176 1.663 . S
C1217 C274 1.661 . S
C1225 C121 1.628 . S
C1249 C135 1.591 . S
C1257 C8 1.660 . S
C1281 C246 1.650 . S
C1289 C149 1.615 . S
C1313 C163 1.635 . S
C1321 C36 1.659 . S
C1345 C302 1.657 . S
C1353 C177 1.630 . S
C1377 C191 1.618 . S
C1385 C92 1.663 . S
C1409 C330 1.650 . S
C1417 C205 1.623 . S
C1441 C219 1.593 . S
C1449 C64 1.662 . S
C1473 C162 1.656 . S
C1481 C233 1.609 . S
C1505 C344 1.653 . S
C1513 C247 1.609 . S
C1537 C134 1.660 . S
C1545 C261 1.613 . S
C1569 C275 1.608 . S
C1577 C372 1.658 . S
C1601 C190 1.652 . S
C1609 C289 1.610 . S
C1633 C428 1.660 . S
C1641 C303 1.613 . S
C1665 C218 1.654 . S
C1673 C317 1.609 . S
C1697 C331 1.635 . S
C1705 C400 1.660 . S
C1729 C345 1.591 . S
C1737 C50 1.661 . S
C1761 C359 1.635 . S
C1769 C232 1.662 . S
C1793 C373 1.640 . S
C1801 C22 1.661 . S
C1825 C387 1.640 . S
C1833 C260 1.661 . S
C1857 C401 1.598 . S
C1865 C78 1.659 . S
C1889 C316 1.663 . S
C1897 C415 1.623 . S
C1921 C106 1.650 . S
C1929 C429 1.621 . S
C1953 C443 1.637 . S
C1961 C288 1.662 . S
C1985 C7 1.081 . S
C1993 C105 1.088 . S
C2017 C21 1.039 . S
C2025 C63 1.077 1_556 S
C2049 C35 1.112 1_554 S
C2057 C77 1.088 . S
C2081 C91 1.085 . S
C2089 C49 1.052 . S
C2113 C217 1.004 . S
C2121 C119 1.043 . S
C2145 C175 1.080 1_554 S
C2153 C133 1.058 . S
C2177 C189 1.121 . S
C2185 C147 1.086 1_556 S
C2209 C203 1.059 . S
C2217 C161 1.050 . S
C2241 C231 1.030 1_554 S
C2249 C329 1.040 . S
C2273 C287 1.118 . S
C2281 C245 1.085 . S
C2305 C301 1.046 . S
C2313 C259 1.079 . S
C2337 C315 1.107 1_556 S
C2345 C273 1.089 . S
C2369 C441 1.004 . S
C2377 C343 1.047 1_556 S
C2401 C357 1.004 . S
C2409 C399 1.046 . S
C2433 C371 1.041 . S
C2441 C413 1.045 . S
C2465 C385 1.005 . S
C2473 C427 1.042 1_554 S
