# Generated by pormake.
# Topology wlc, (5)-cn, num edge types: 1
# Building blocks:
#     Node 0, Type 0, BuildingBlock: BEQFEK_clean_sbu_0, # of connection points: 5
#     Node 1, Type 0, BuildingBlock: BEQFEK_clean_sbu_0, # of connection points: 5
#     Node 2, Type 0, BuildingBlock: BEQFEK_clean_sbu_0, # of connection points: 5
#     Node 3, Type 0, BuildingBlock: BEQFEK_clean_sbu_0, # of connection points: 5
#     Node 4, Type 0, BuildingBlock: BEQFEK_clean_sbu_0, # of connection points: 5
#     Node 5, Type 0, BuildingBlock: BEQFEK_clean_sbu_0, # of connection points: 5
#     Node 6, Type 0, BuildingBlock: BEQFEK_clean_sbu_0, # of connection points: 5
#     Node 7, Type 0, BuildingBlock: BEQFEK_clean_sbu_0, # of connection points: 5
#     Node 8, Type 0, BuildingBlock: BEQFEK_clean_sbu_0, # of connection points: 5
#     Node 9, Type 0, BuildingBlock: BEQFEK_clean_sbu_0, # of connection points: 5
#     Node 10, Type 0, BuildingBlock: BEQFEK_clean_sbu_0, # of connection points: 5
#     Node 11, Type 0, BuildingBlock: BEQFEK_clean_sbu_0, # of connection points: 5
#     Edge 12, Type (0, 0), BuildingBlock: MIFKUJ_clean_linker_0, # of connection points: 2
#     Edge 13, Type (0, 0), BuildingBlock: MIFKUJ_clean_linker_0, # of connection points: 2
#     Edge 14, Type (0, 0), BuildingBlock: MIFKUJ_clean_linker_0, # of connection points: 2
#     Edge 15, Type (0, 0), BuildingBlock: MIFKUJ_clean_linker_0, # of connection points: 2
#     Edge 16, Type (0, 0), BuildingBlock: MIFKUJ_clean_linker_0, # of connection points: 2
#     Edge 17, Type (0, 0), BuildingBlock: MIFKUJ_clean_linker_0, # of connection points: 2
#     Edge 18, Type (0, 0), BuildingBlock: MIFKUJ_clean_linker_0, # of connection points: 2
#     Edge 19, Type (0, 0), BuildingBlock: MIFKUJ_clean_linker_0, # of connection points: 2
#     Edge 20, Type (0, 0), BuildingBlock: MIFKUJ_clean_linker_0, # of connection points: 2
#     Edge 21, Type (0, 0), BuildingBlock: MIFKUJ_clean_linker_0, # of connection points: 2
#     Edge 22, Type (0, 0), BuildingBlock: MIFKUJ_clean_linker_0, # of connection points: 2
#     Edge 23, Type (0, 0), BuildingBlock: MIFKUJ_clean_linker_0, # of connection points: 2
#     Edge 24, Type (0, 0), BuildingBlock: MIFKUJ_clean_linker_0, # of connection points: 2
#     Edge 25, Type (0, 0), BuildingBlock: MIFKUJ_clean_linker_0, # of connection points: 2
#     Edge 26, Type (0, 0), BuildingBlock: MIFKUJ_clean_linker_0, # of connection points: 2
#     Edge 27, Type (0, 0), BuildingBlock: MIFKUJ_clean_linker_0, # of connection points: 2
#     Edge 28, Type (0, 0), BuildingBlock: MIFKUJ_clean_linker_0, # of connection points: 2
#     Edge 29, Type (0, 0), BuildingBlock: MIFKUJ_clean_linker_0, # of connection points: 2
#     Edge 30, Type (0, 0), BuildingBlock: MIFKUJ_clean_linker_0, # of connection points: 2
#     Edge 31, Type (0, 0), BuildingBlock: MIFKUJ_clean_linker_0, # of connection points: 2
#     Edge 32, Type (0, 0), BuildingBlock: MIFKUJ_clean_linker_0, # of connection points: 2
#     Edge 33, Type (0, 0), BuildingBlock: MIFKUJ_clean_linker_0, # of connection points: 2
#     Edge 34, Type (0, 0), BuildingBlock: MIFKUJ_clean_linker_0, # of connection points: 2
#     Edge 35, Type (0, 0), BuildingBlock: MIFKUJ_clean_linker_0, # of connection points: 2
#     Edge 36, Type (0, 0), BuildingBlock: MIFKUJ_clean_linker_0, # of connection points: 2
#     Edge 37, Type (0, 0), BuildingBlock: MIFKUJ_clean_linker_0, # of connection points: 2
#     Edge 38, Type (0, 0), BuildingBlock: MIFKUJ_clean_linker_0, # of connection points: 2
#     Edge 39, Type (0, 0), BuildingBlock: MIFKUJ_clean_linker_0, # of connection points: 2
#     Edge 40, Type (0, 0), BuildingBlock: MIFKUJ_clean_linker_0, # of connection points: 2
#     Edge 41, Type (0, 0), BuildingBlock: MIFKUJ_clean_linker_0, # of connection points: 2
# Relax obj value: 0.764
# Max RMSD: 0.283
# Mean RMSD: 0.283
data_MOF--net-wlc--node1-BEQFEK_clean_sbu_0--edge1-MIFKUJ_clean_linker_0
_symmetry_space_group_name_H-M    P1
_symmetry_Int_Tables_number       1
_symmetry_cell_setting            triclinic
loop_
_symmetry_equiv_pos_as_xyz
'x, y, z'
_cell_length_a     60.087542
_cell_length_b     60.076951
_cell_length_c     37.752982
_cell_angle_alpha  90.012499
_cell_angle_beta   89.973934
_cell_angle_gamma 120.01547
loop_
_atom_site_label
_atom_site_type_symbol
_atom_site_fract_x
_atom_site_fract_y
_atom_site_fract_z
_atom_type_partial_charge
Co0 Co 0.08611 0.40345 0.12452 0.0
Co1 Co 0.05612 0.35345 0.08032 0.0
C2 C 0.11019 0.37284 0.10941 0.0
O3 O 0.11223 0.39371 0.12065 0.0
O4 O 0.08971 0.35583 0.09424 0.0
C5 C 0.12255 0.45441 0.15273 0.0
O6 O 0.14138 0.45247 0.13823 0.0
C7 C 0.04899 0.32806 0.01241 0.0
C8 C 0.01097 0.29313 0.01839 0.0
C9 C 0.03058 0.30663 0.99414 0.0
N10 N 0.04052 0.32723 0.04555 0.0
N11 N 0.01801 0.30609 0.04923 0.0
C12 C 0.07303 0.35041 0.99804 0.0
H13 H 0.08093 0.36678 0.01685 0.0
H14 H 0.06916 0.35652 0.97212 0.0
H15 H 0.08771 0.34462 0.99404 0.0
C16 C 0.07146 0.42543 0.06625 0.0
N17 N 0.07358 0.40601 0.08027 0.0
N18 N 0.05898 0.38476 0.06256 0.0
C19 C 0.04613 0.3899 0.03745 0.0
C20 C 0.05399 0.41597 0.03868 0.0
C21 C 0.08287 0.45169 0.08226 0.0
H22 H 0.0733 0.45044 0.10793 0.0
H23 H 0.10363 0.45938 0.08717 0.0
H24 H 0.08053 0.46517 0.06466 0.0
O25 O 0.05781 0.37801 0.15463 0.0
O26 O 0.03427 0.34267 0.12304 0.0
H27 H 0.01125 0.37676 0.00712 0.0
H28 H 0.03205 0.3651 0.99252 0.0
C29 C 0.02428 0.36981 0.01621 0.0
H30 H 0.01333 0.35206 0.03213 0.0
H31 H 0.00698 0.30107 0.07231 0.0
O32 O 0.09955 0.43612 0.14971 0.0
C33 C 0.03865 0.35535 0.15171 0.0
Co34 Co 0.58975 0.67205 0.1243 0.0
Co35 Co 0.63798 0.69157 0.07649 0.0
C36 C 0.62333 0.72727 0.11389 0.0
O37 O 0.60225 0.70862 0.12475 0.0
O38 O 0.63913 0.72349 0.09596 0.0
C39 C 0.54893 0.66473 0.17237 0.0
O40 O 0.56351 0.68894 0.18144 0.0
C41 C 0.66063 0.71244 0.00846 0.0
C42 C 0.69263 0.70444 0.00484 0.0
C43 C 0.67941 0.71383 0.98562 0.0
N44 N 0.6623 0.70213 0.03915 0.0
N45 N 0.68176 0.69779 0.03717 0.0
C46 C 0.64108 0.72045 0.00169 0.0
H47 H 0.63691 0.72756 0.0265 0.0
H48 H 0.62286 0.70358 0.99274 0.0
H49 H 0.64792 0.73567 0.98112 0.0
C50 C 0.56442 0.63829 0.06432 0.0
N51 N 0.58488 0.65901 0.07825 0.0
N52 N 0.60524 0.66556 0.05853 0.0
C53 C 0.59847 0.64829 0.03189 0.0
C54 C 0.57227 0.63053 0.03452 0.0
C55 C 0.53926 0.62336 0.08328 0.0
H56 H 0.54206 0.61416 0.10703 0.0
H57 H 0.53252 0.63661 0.092 0.0
H58 H 0.52421 0.60818 0.06652 0.0
O59 O 0.61423 0.66496 0.15022 0.0
O60 O 0.64822 0.6766 0.11548 0.0
H61 H 0.6343 0.64961 0.02242 0.0
H62 H 0.60855 0.62822 0.99298 0.0
C63 C 0.61725 0.6468 0.00733 0.0
H64 H 0.62377 0.66237 0.98741 0.0
H65 H 0.6869 0.68932 0.05728 0.0
O66 O 0.55697 0.65475 0.14975 0.0
C67 C 0.63612 0.66709 0.14432 0.0
Co68 Co 0.33285 0.94024 0.13573 0.0
Co69 Co 0.30253 0.96063 0.09278 0.0
C70 C 0.27707 0.90815 0.12838 0.0
O71 O 0.2984 0.91059 0.13806 0.0
O72 O 0.27602 0.92586 0.11114 0.0
C73 C 0.35355 0.90874 0.15844 0.0
O74 O 0.33247 0.8897 0.14488 0.0
C75 C 0.2753 0.95763 0.02859 0.0
C76 C 0.27607 0.99473 0.02707 0.0
C77 C 0.26878 0.97248 0.00772 0.0
N78 N 0.28592 0.97046 0.05865 0.0
N79 N 0.28583 0.9924 0.05805 0.0
C80 C 0.27492 0.93338 0.01825 0.0
H81 H 0.28594 0.92867 0.03742 0.0
H82 H 0.28309 0.93536 0.99132 0.0
H83 H 0.25476 0.9173 0.01773 0.0
C84 C 0.3643 0.95475 0.07157 0.0
N85 N 0.34325 0.95108 0.0891 0.0
N86 N 0.33216 0.96175 0.07148 0.0
C87 C 0.34665 0.97357 0.04258 0.0
C88 C 0.36729 0.96914 0.04148 0.0
C89 C 0.38322 0.94781 0.08606 0.0
H90 H 0.39126 0.95837 0.11119 0.0
H91 H 0.37325 0.92691 0.09166 0.0
H92 H 0.39921 0.95251 0.06741 0.0
O93 O 0.33315 0.96797 0.16442 0.0
O94 O 0.31274 0.98401 0.13396 0.0
H95 H 0.33573 0.00211 0.03394 0.0
H96 H 0.36004 0.00394 0.00359 0.0
C97 C 0.34231 0.99079 0.01846 0.0
H98 H 0.32711 0.97884 -0.00092 0.0
H99 H 0.29373 0.00635 0.07785 0.0
O100 O 0.35691 0.93135 0.15791 0.0
C101 C 0.3248 0.98366 0.16152 0.0
Co102 Co 0.61052 0.93135 0.36017 0.0
Co103 Co 0.65442 0.94603 0.41498 0.0
C104 C 0.63344 0.89845 0.36884 0.0
O105 O 0.61653 0.90262 0.3554 0.0
O106 O 0.64936 0.91363 0.39179 0.0
C107 C 0.56369 0.90275 0.32086 0.0
O108 O 0.56472 0.88243 0.33128 0.0
C109 C 0.6675 0.93709 0.48488 0.0
C110 C 0.70431 0.97234 0.49595 0.0
C111 C 0.68542 0.94979 0.51148 0.0
N112 N 0.67511 0.95173 0.45564 0.0
N113 N 0.69744 0.97253 0.46206 0.0
C114 C 0.64323 0.9116 0.4868 0.0
H115 H 0.6267 0.91456 0.49168 0.0
H116 H 0.64426 0.89957 0.50833 0.0
H117 H 0.63977 0.9014 0.46113 0.0
C118 C 0.58501 0.93919 0.4203 0.0
N119 N 0.6042 0.93641 0.40698 0.0
N120 N 0.62328 0.94516 0.42974 0.0
C121 C 0.61706 0.95493 0.45795 0.0
C122 C 0.59245 0.95112 0.45293 0.0
C123 C 0.56122 0.93347 0.40029 0.0
H124 H 0.56629 0.94762 0.37854 0.0
H125 H 0.55251 0.91396 0.38861 0.0
H126 H 0.54691 0.93439 0.41784 0.0
O127 O 0.6408 0.96273 0.34199 0.0
O128 O 0.6729 0.97407 0.38019 0.0
H129 H 0.65538 0.982 0.47521 0.0
H130 H 0.63023 0.985 0.49733 0.0
C131 C 0.63562 0.97126 0.4861 0.0
H132 H 0.63531 0.95878 0.50791 0.0
H133 H 0.70724 0.98747 0.44398 0.0
O134 O 0.58128 0.925 0.33011 0.0
C135 C 0.66397 0.97771 0.35153 0.0
Co136 Co 0.06859 0.66693 0.35181 0.0
Co137 Co 0.0497 0.69475 0.40313 0.0
C138 C 0.10053 0.72312 0.36589 0.0
O139 O 0.09683 0.70243 0.35159 0.0
O140 O 0.08402 0.72331 0.38688 0.0
C141 C 0.10355 0.6533 0.3206 0.0
O142 O 0.12123 0.6746 0.33555 0.0
C143 C 0.0487 0.71738 0.47093 0.0
C144 C 0.01149 0.71641 0.46857 0.0
C145 C 0.0323 0.72263 0.49056 0.0
N146 N 0.03791 0.7083 0.43918 0.0
N147 N 0.01594 0.70827 0.4376 0.0
C148 C 0.07299 0.71847 0.48291 0.0
H149 H 0.07855 0.70775 0.46436 0.0
H150 H 0.07065 0.71045 0.51003 0.0
H151 H 0.08868 0.73881 0.48354 0.0
C152 C 0.05493 0.63138 0.41133 0.0
N153 N 0.05893 0.65379 0.39784 0.0
N154 N 0.04953 0.66423 0.41941 0.0
C155 C 0.03842 0.64811 0.44716 0.0
C156 C 0.04183 0.62695 0.44314 0.0
C157 C 0.05994 0.61281 0.39122 0.0
H158 H 0.08072 0.62207 0.38494 0.0
H159 H 0.0541 0.59487 0.40618 0.0
H160 H 0.04919 0.60785 0.36585 0.0
O161 O 0.03903 0.66553 0.32669 0.0
O162 O 0.02583 0.68582 0.36275 0.0
H163 H 0.01023 0.63349 0.48947 0.0
H164 H 0.03599 0.66583 0.49488 0.0
C165 C 0.02285 0.65167 0.47521 0.0
H166 H 0.01103 0.65915 0.46328 0.0
H167 H 0.0035 0.7017 0.41594 0.0
O168 O 0.07997 0.64647 0.32445 0.0
C169 C 0.02391 0.67403 0.33389 0.0
Co170 Co 0.33525 0.40567 0.34793 0.0
Co171 Co 0.31048 0.36046 0.40162 0.0
C172 C 0.27927 0.37769 0.35979 0.0
O173 O 0.2993 0.39644 0.34681 0.0
O174 O 0.28073 0.36202 0.38088 0.0
C175 C 0.34664 0.45421 0.32637 0.0
O176 O 0.33023 0.4501 0.35202 0.0
C177 C 0.28807 0.34584 0.47025 0.0
C178 C 0.29151 0.31202 0.4841 0.0
C179 C 0.28461 0.32919 0.49779 0.0
N180 N 0.29726 0.33935 0.44216 0.0
N181 N 0.29873 0.31873 0.45016 0.0
C182 C 0.28368 0.3683 0.47051 0.0
H183 H 0.30233 0.38631 0.47404 0.0
H184 H 0.27032 0.36653 0.49207 0.0
H185 H 0.27555 0.3697 0.44488 0.0
C186 C 0.37209 0.4305 0.40557 0.0
N187 N 0.34924 0.41172 0.39363 0.0
N188 N 0.33968 0.39248 0.41617 0.0
C189 C 0.35657 0.39837 0.44314 0.0
C190 C 0.37762 0.42271 0.4373 0.0
C191 C 0.38987 0.45403 0.38471 0.0
H192 H 0.39354 0.44831 0.35838 0.0
H193 H 0.38065 0.46584 0.38067 0.0
H194 H 0.4084 0.46608 0.39853 0.0
O195 O 0.33793 0.37715 0.32568 0.0
O196 O 0.32113 0.34466 0.36434 0.0
H197 H 0.37362 0.38617 0.48385 0.0
H198 H 0.34049 0.37697 0.49067 0.0
C199 C 0.35492 0.37949 0.47039 0.0
H200 H 0.34866 0.3606 0.45776 0.0
H201 H 0.30597 0.31015 0.4332 0.0
O202 O 0.35261 0.43715 0.31942 0.0
C203 C 0.33165 0.35421 0.33454 0.0
Co204 Co 0.93214 0.59745 0.86173 0.0
Co205 Co 0.95703 0.64683 0.90815 0.0
C206 C 0.90402 0.62472 0.87568 0.0
O207 O 0.9045 0.60513 0.86423 0.0
O208 O 0.92302 0.64236 0.89258 0.0
C209 C 0.9015 0.55722 0.81342 0.0
O210 O 0.89253 0.57237 0.80443 0.0
C211 C 0.95783 0.6706 0.97481 0.0
C212 C 0.99515 0.70676 0.97421 0.0
C213 C 0.97355 0.69217 0.99498 0.0
N214 N 0.96955 0.67243 0.94383 0.0
N215 N 0.99169 0.69425 0.94329 0.0
C216 C 0.93326 0.64725 0.98568 0.0
H217 H 0.92838 0.63103 0.96735 0.0
H218 H 0.93481 0.64154 0.01312 0.0
H219 H 0.91742 0.65167 0.98481 0.0
C220 C 0.94677 0.57662 0.92126 0.0
N221 N 0.94377 0.59535 0.90673 0.0
N222 N 0.95597 0.61636 0.92584 0.0
C223 C 0.96812 0.61181 0.95261 0.0
C224 C 0.96236 0.58633 0.95077 0.0
C225 C 0.93779 0.55095 0.90445 0.0
H226 H 0.94948 0.55342 0.88044 0.0
H227 H 0.91741 0.54247 0.89633 0.0
H228 H 0.9396 0.5376 0.92296 0.0
O229 O 0.96025 0.6244 0.83284 0.0
O230 O 0.97965 0.65953 0.86627 0.0
H231 H -4e-05 0.62591 0.9893 0.0
H232 H 0.97701 0.63623 0.99768 0.0
C233 C 0.98734 0.63217 0.9766 0.0
H234 H 0.99917 0.65016 0.96148 0.0
H235 H 0.00475 0.70019 0.92233 0.0
O236 O 0.91884 0.56451 0.83698 0.0
C237 C 0.97759 0.64782 0.83724 0.0
Co238 Co 0.40015 0.33135 0.86336 0.0
Co239 Co 0.34985 0.30287 0.90785 0.0
C240 C 0.37111 0.27451 0.86676 0.0
O241 O 0.39033 0.29537 0.85629 0.0
O242 O 0.35423 0.2745 0.88722 0.0
C243 C 0.4511 0.34741 0.83637 0.0
O244 O 0.44718 0.32492 0.84704 0.0
C245 C 0.32286 0.27791 0.97283 0.0
C246 C 0.28749 0.28037 0.96857 0.0
C247 C 0.30083 0.27301 0.99122 0.0
N248 N 0.32259 0.28794 0.94118 0.0
N249 N 0.30111 0.28877 0.93838 0.0
C250 C 0.34527 0.27597 0.98628 0.0
H251 H 0.36192 0.28575 0.96807 0.0
H252 H 0.35079 0.28446 0.01316 0.0
H253 H 0.33975 0.25541 0.98812 0.0
C254 C 0.42005 0.36103 0.92817 0.0
N255 N 0.40168 0.34017 0.91139 0.0
N256 N 0.38012 0.33047 0.92944 0.0
C257 C 0.38389 0.34584 0.9577 0.0
C258 C 0.40945 0.3656 0.95801 0.0
C259 C 0.44572 0.37895 0.91213 0.0
H260 H 0.44294 0.38801 0.88822 0.0
H261 H 0.45515 0.36793 0.9041 0.0
H262 H 0.4586 0.39428 0.93067 0.0
O263 O 0.37524 0.33834 0.83859 0.0
O264 O 0.33878 0.3168 0.86894 0.0
H265 H 0.34514 0.33783 0.96529 0.0
H266 H 0.36841 0.36206 0.99494 0.0
C267 C 0.36278 0.34371 0.98109 0.0
H268 H 0.3584 0.32882 0.0015 0.0
H269 H 0.29642 0.29636 0.91665 0.0
O270 O 0.4336 0.35316 0.84058 0.0
C271 C 0.35161 0.3312 0.84324 0.0
Co272 Co 0.67709 0.089 0.86674 0.0
Co273 Co 0.69322 0.05929 0.91882 0.0
C274 C 0.73143 0.11082 0.88996 0.0
O275 O 0.71374 0.11215 0.8735 0.0
O276 O 0.72656 0.09139 0.90892 0.0
C277 C 0.66929 0.13043 0.84967 0.0
O278 O 0.6825 0.14024 0.87888 0.0
C279 C 0.71 0.05126 0.98724 0.0
C280 C 0.6994 0.01037 0.98531 0.0
C281 C 0.71025 0.0319 0.00702 0.0
N282 N 0.69957 0.0416 0.95552 0.0
N283 N 0.69352 0.01724 0.95429 0.0
C284 C 0.71714 0.07782 -0.00103 0.0
H285 H 0.70804 0.08591 0.9816 0.0
H286 H 0.71119 0.07764 0.02686 0.0
H287 H 0.7383 0.0904 0.99718 0.0
C288 C 0.6368 0.07593 0.92013 0.0
N289 N 0.659 0.07757 0.90968 0.0
N290 N 0.66507 0.06442 0.93163 0.0
C291 C 0.64651 0.05369 0.95665 0.0
C292 C 0.62828 0.06106 0.95046 0.0
C293 C 0.62178 0.08476 0.89843 0.0
H294 H 0.62229 0.08018 0.8701 0.0
H295 H 0.63054 0.10583 0.90138 0.0
H296 H 0.60144 0.07566 0.90707 0.0
O297 O 0.67203 0.05907 0.83858 0.0
O298 O 0.6845 0.0383 0.87517 0.0
H299 H 0.64741 0.01954 0.97022 0.0
H300 H 0.62587 0.02529 0.99733 0.0
C301 C 0.64467 0.03449 0.98343 0.0
H302 H 0.66016 0.04432 0.00329 0.0
H303 H 0.68486 0.00517 0.93262 0.0
O304 O 0.66485 0.10848 0.83927 0.0
C305 C 0.67617 0.04065 0.84517 0.0
Co306 Co 0.39695 0.04669 0.6685 0.0
Co307 Co 0.3557 0.0334 0.60958 0.0
C308 C 0.36944 0.07667 0.65853 0.0
O309 O 0.3846 0.07077 0.67359 0.0
O310 O 0.35714 0.06483 0.63084 0.0
C311 C 0.44533 0.08351 0.69009 0.0
O312 O 0.44293 0.09398 0.66085 0.0
C313 C 0.33498 0.03776 0.54124 0.0
C314 C 0.30393 0.99779 0.53223 0.0
C315 C 0.3165 0.02197 0.51683 0.0
N316 N 0.33367 0.02341 0.56936 0.0
N317 N 0.31481 0.99963 0.56404 0.0
C318 C 0.35309 0.06614 0.53856 0.0
H319 H 0.37204 0.06982 0.52886 0.0
H320 H 0.34559 0.07515 0.51999 0.0
H321 H 0.35606 0.07521 0.56498 0.0
C322 C 0.42568 0.04161 0.60972 0.0
N323 N 0.40559 0.04339 0.62183 0.0
N324 N 0.38854 0.03741 0.59641 0.0
C325 C 0.39746 0.03145 0.56702 0.0
C326 C 0.42152 0.03445 0.57446 0.0
C327 C 0.44604 0.04191 0.633 0.0
H328 H 0.43828 0.03465 0.65979 0.0
H329 H 0.46233 0.06188 0.63515 0.0
H330 H 0.45346 0.02981 0.62184 0.0
O331 O 0.36958 0.01352 0.6856 0.0
O332 O 0.33903 0.00552 0.64595 0.0
H333 H 0.36315 0.00403 0.54029 0.0
H334 H 0.39227 0.01453 0.51477 0.0
C335 C 0.38227 0.02064 0.53374 0.0
H336 H 0.37931 0.03545 0.52074 0.0
H337 H 0.30984 0.9845 0.58171 0.0
O338 O 0.42737 0.06144 0.69938 0.0
C339 C 0.34669 0.99969 0.67418 0.0
Co340 Co 0.90737 0.32077 0.64421 0.0
Co341 Co 0.92958 0.29897 0.58832 0.0
C342 C 0.88022 0.26521 0.62666 0.0
O343 O 0.88132 0.28452 0.64197 0.0
O344 O 0.89766 0.26775 0.60516 0.0
C345 C 0.87022 0.33289 0.66779 0.0
O346 O 0.85706 0.31791 0.64126 0.0
C347 C 0.9302 0.27837 0.51865 0.0
C348 C 0.97096 0.28917 0.51321 0.0
C349 C 0.94787 0.27837 0.49481 0.0
N350 N 0.94254 0.28932 0.54897 0.0
N351 N 0.96676 0.29523 0.54585 0.0
C352 C 0.90205 0.26826 0.51329 0.0
H353 H 0.89156 0.26096 0.5386 0.0
H354 H 0.89895 0.28406 0.50421 0.0
H355 H 0.89406 0.25256 0.4934 0.0
C356 C 0.91897 0.35934 0.58879 0.0
N357 N 0.9162 0.33673 0.59958 0.0
N358 N 0.92591 0.32806 0.57566 0.0
C359 C 0.93542 0.34524 0.54874 0.0
C360 C 0.93102 0.36544 0.55605 0.0
C361 C 0.91441 0.3769 0.61208 0.0
H362 H 0.92135 0.37689 0.63927 0.0
H363 H 0.8935 0.36992 0.6132 0.0
H364 H 0.92434 0.39696 0.60216 0.0
O365 O 0.9381 0.3237 0.6677 0.0
O366 O 0.95438 0.30845 0.62785 0.0
H367 H 0.9585 0.36105 0.50133 0.0
H368 H 0.93791 0.32679 0.50172 0.0
C369 C 0.95055 0.34366 0.51829 0.0
H370 H 0.96646 0.34112 0.52842 0.0
H371 H 0.98066 0.30441 0.56546 0.0
O372 O 0.89265 0.3368 0.67416 0.0
C373 C 0.95495 0.31788 0.6583 0.0
Co374 Co 0.68829 0.60001 0.64192 0.0
Co375 Co 0.70907 0.63662 0.57656 0.0
C376 C 0.74143 0.61992 0.61778 0.0
O377 O 0.72261 0.6049 0.63719 0.0
O378 O 0.73917 0.63371 0.59398 0.0
C379 C 0.67531 0.55742 0.68842 0.0
O380 O 0.69523 0.55735 0.67419 0.0
C381 C 0.72286 0.64428 0.50195 0.0
C382 C 0.72037 0.67884 0.48922 0.0
C383 C 0.72424 0.66 0.47393 0.0
N384 N 0.71778 0.65312 0.53176 0.0
N385 N 0.71676 0.67403 0.52415 0.0
C386 C 0.72646 0.62136 0.50123 0.0
H387 H 0.73343 0.61887 0.52729 0.0
H388 H 0.70774 0.60379 0.49603 0.0
H389 H 0.74035 0.62347 0.48028 0.0
C390 C 0.64604 0.56892 0.59351 0.0
N391 N 0.66969 0.58891 0.59961 0.0
N392 N 0.67728 0.60452 0.57223 0.0
C393 C 0.65809 0.59509 0.54799 0.0
C394 C 0.63772 0.57218 0.56076 0.0
C395 C 0.63106 0.54782 0.61954 0.0
H396 H 0.6431 0.53987 0.62908 0.0
H397 H 0.6134 0.53205 0.60743 0.0
H398 H 0.62572 0.55566 0.64258 0.0
O399 O 0.69098 0.63268 0.65722 0.0
O400 O 0.70469 0.65913 0.61074 0.0
H401 H 0.66652 0.63032 0.52226 0.0
H402 H 0.63752 0.60238 0.50675 0.0
C403 C 0.65749 0.60955 0.51606 0.0
H404 H 0.66846 0.60708 0.49431 0.0
H405 H 0.71257 0.68439 0.54253 0.0
O406 O 0.66988 0.57447 0.67914 0.0
C407 C 0.69738 0.65424 0.64284 0.0
H408 H 0.96889 0.34557 0.71954 0.0
H409 H 0.9936 0.34217 0.76826 0.0
H410 H 0.0073 0.28958 0.70701 0.0
H411 H 0.98255 0.29292 0.65783 0.0
H412 H 0.98598 0.27008 0.7713 0.0
H413 H 0.05795 0.3456 0.72895 0.0
H414 H 0.08222 0.38955 0.70483 0.0
H415 H 0.06701 0.41946 0.79936 0.0
H416 H 0.04231 0.37566 0.82386 0.0
H417 H 0.0693 0.31519 0.94722 0.0
H418 H 0.06646 0.31345 0.8825 0.0
H419 H 0.98484 0.28457 0.88937 0.0
H420 H 0.98763 0.28673 0.9537 0.0
H421 H 0.05262 0.34149 0.84307 0.0
H422 H 0.95376 0.24863 0.82116 0.0
H423 H 0.92956 0.20432 0.84404 0.0
H424 H 5e-05 0.20853 0.87653 0.0
H425 H 0.02473 0.2527 0.85316 0.0
C426 C 0.97765 0.33374 0.71606 0.0
C427 C 0.97367 0.31943 0.68492 0.0
C428 C 0.99191 0.33193 0.74386 0.0
C429 C 0.0024 0.31574 0.74112 0.0
C430 C 0.99947 0.30229 0.70949 0.0
C431 C 0.98541 0.30431 0.68143 0.0
C432 C 0.01342 0.31062 0.773 0.0
C433 C 0.00082 0.2856 0.78683 0.0
C434 C 0.03325 0.33078 0.79271 0.0
C435 C 0.04821 0.35727 0.77823 0.0
C436 C 0.05964 0.36152 0.74453 0.0
C437 C 0.0735 0.38642 0.73079 0.0
C438 C 0.07615 0.40728 0.75054 0.0
C439 C 0.06497 0.40328 0.7841 0.0
C440 C 0.05108 0.37841 0.79796 0.0
C441 C 0.05079 0.30853 0.93494 0.0
C442 C 0.02882 0.30185 0.95553 0.0
C443 C 0.04915 0.30726 0.89797 0.0
C444 C 0.02545 0.29883 0.88112 0.0
C445 C 0.00329 0.29074 0.90176 0.0
C446 C 0.00492 0.29208 0.9386 0.0
C447 C 0.02399 0.30125 0.84228 0.0
C448 C 0.03834 0.3258 0.82717 0.0
C449 C 0.00579 0.28063 0.82134 0.0
C450 C 0.9911 0.254 0.83536 0.0
C451 C 0.96412 0.24003 0.83288 0.0
C452 C 0.95031 0.21495 0.84601 0.0
C453 C 0.96326 0.20362 0.86176 0.0
C454 C 0.99005 0.21734 0.86437 0.0
C455 C 0.00395 0.24241 0.8512 0.0
H456 H 0.95253 0.1842 0.87195 0.0
H457 H 0.08688 0.42655 0.73985 0.0
H458 H 0.7233 0.7346 0.94643 0.0
H459 H 0.72682 0.73575 0.88176 0.0
H460 H 0.64492 0.70448 0.87309 0.0
H461 H 0.64111 0.70194 0.93706 0.0
H462 H 0.65968 0.67635 0.83841 0.0
H463 H 0.68839 0.76642 0.84481 0.0
H464 H 0.71521 0.81097 0.86589 0.0
H465 H 0.78277 0.81233 0.82586 0.0
H466 H 0.75641 0.76765 0.80495 0.0
H467 H 0.65752 0.66137 0.65877 0.0
H468 H 0.6551 0.68453 0.71075 0.0
H469 H 0.7354 0.71265 0.73203 0.0
H470 H 0.73793 0.69013 0.67945 0.0
H471 H 0.71948 0.74597 0.75778 0.0
H472 H 0.69372 0.65574 0.76291 0.0
H473 H 0.6693 0.61074 0.74248 0.0
H474 H 0.5984 0.60944 0.76348 0.0
H475 H 0.6225 0.65462 0.78345 0.0
C476 C 0.70616 0.72853 0.93066 0.0
C477 C 0.68203 0.71874 0.94701 0.0
C478 C 0.70821 0.7294 0.89373 0.0
C479 C 0.68615 0.72051 0.87258 0.0
C480 C 0.66222 0.71174 0.8889 0.0
C481 C 0.66014 0.71066 0.92569 0.0
C482 C 0.68737 0.71678 0.83399 0.0
C483 C 0.67229 0.69178 0.82068 0.0
C484 C 0.70452 0.73668 0.8111 0.0
C485 C 0.72042 0.7636 0.82353 0.0
C486 C 0.70899 0.77614 0.84073 0.0
C487 C 0.72411 0.80144 0.85261 0.0
C488 C 0.75068 0.81445 0.84728 0.0
C489 C 0.76219 0.80222 0.82998 0.0
C490 C 0.74716 0.77692 0.81806 0.0
C491 C 0.67488 0.6736 0.6736 0.0
C492 C 0.6979 0.67421 0.66543 0.0
C493 C 0.6735 0.68672 0.70327 0.0
C494 C 0.69496 0.69985 0.72555 0.0
C495 C 0.71866 0.70268 0.71515 0.0
C496 C 0.7201 0.68981 0.68521 0.0
C497 C 0.69152 0.70574 0.7625 0.0
C498 C 0.70641 0.73086 0.77552 0.0
C499 C 0.67446 0.68592 0.78552 0.0
C500 C 0.6599 0.65861 0.77425 0.0
C501 C 0.67294 0.64589 0.76293 0.0
C502 C 0.65916 0.62036 0.75146 0.0
C503 C 0.6323 0.60726 0.75159 0.0
C504 C 0.6192 0.61963 0.76333 0.0
C505 C 0.63291 0.6452 0.77472 0.0
H506 H 0.62165 0.5875 0.74269 0.0
H507 H 0.76235 0.83404 0.8565 0.0
H508 H 0.29406 0.97519 0.67006 0.0
H509 H 0.26468 0.95505 0.71982 0.0
H510 H 0.32706 0.96002 0.78244 0.0
H511 H 0.35622 0.97936 0.73284 0.0
H512 H 0.28347 0.92222 0.80646 0.0
H513 H 0.31853 0.01222 0.77559 0.0
H514 H 0.3257 0.0476 0.73536 0.0
H515 H 0.24421 0.01721 0.72788 0.0
H516 H 0.2366 0.98146 0.76778 0.0
H517 H 0.2918 0.00839 0.95661 0.0
H518 H 0.28992 0.00111 0.89298 0.0
H519 H 0.23109 0.92192 0.90848 0.0
H520 H 0.23339 0.92914 0.97266 0.0
H521 H 0.25917 0.98716 0.83988 0.0
H522 H 0.24261 0.88485 0.85296 0.0
H523 H 0.2474 0.85713 0.89701 0.0
H524 H 0.30921 0.92368 0.94671 0.0
H525 H 0.30477 0.95172 0.90296 0.0
C526 C 0.30128 0.97095 0.69388 0.0
C527 C 0.32766 0.97969 0.69799 0.0
C528 C 0.28444 0.95948 0.72235 0.0
C529 C 0.29389 0.95687 0.75517 0.0
C530 C 0.31937 0.96211 0.7575 0.0
C531 C 0.33612 0.97338 0.7291 0.0
C532 C 0.27966 0.95415 0.78843 0.0
C533 C 0.27746 0.93594 0.81351 0.0
C534 C 0.27253 0.97256 0.79798 0.0
C535 C 0.27699 0.99405 0.77423 0.0
C536 C 0.30216 0.01304 0.76519 0.0
C537 C 0.3063 0.03314 0.74248 0.0
C538 C 0.28542 0.03461 0.729 0.0
C539 C 0.26036 0.016 0.73828 0.0
C540 C 0.25611 0.99581 0.76092 0.0
C541 C 0.27798 0.98961 0.94639 0.0
C542 C 0.26314 0.96917 0.96946 0.0
C543 C 0.27689 0.98544 0.90997 0.0
C544 C 0.26073 0.96082 0.89596 0.0
C545 C 0.24411 0.94093 0.91878 0.0
C546 C 0.24545 0.94504 0.95536 0.0
C547 C 0.26379 0.95577 0.85832 0.0
C548 C 0.26386 0.97254 0.83241 0.0
C549 C 0.27038 0.937 0.84858 0.0
C550 C 0.2731 0.92032 0.87504 0.0
C551 C 0.25717 0.89352 0.87335 0.0
C552 C 0.25982 0.87777 0.89826 0.0
C553 C 0.2785 0.88864 0.92476 0.0
C554 C 0.29465 0.91528 0.92631 0.0
C555 C 0.29203 0.93111 0.90153 0.0
H556 H 0.28052 0.87642 0.94401 0.0
H557 H 0.28867 0.05019 0.71143 0.0
H558 H 0.64093 0.92972 0.5504 0.0
H559 H 0.63755 0.9337 0.61361 0.0
H560 H 0.71945 0.96667 0.62436 0.0
H561 H 0.72309 0.96214 0.56039 0.0
H562 H 0.67867 0.93214 0.68849 0.0
H563 H 0.713 0.01038 0.61146 0.0
H564 H 0.71 0.02872 0.55435 0.0
H565 H 0.63049 0.0034 0.57449 0.0
H566 H 0.63302 0.98465 0.63156 0.0
H567 H 0.70486 0.01793 0.83324 0.0
H568 H 0.70393 0.99359 0.7809 0.0
H569 H 0.63914 0.99827 0.74043 0.0
H570 H 0.64124 0.0241 0.79166 0.0
H571 H 0.67058 0.01044 0.69145 0.0
H572 H 0.63636 0.93995 0.77225 0.0
H573 H 0.63407 0.91609 0.82654 0.0
H574 H 0.70553 0.92035 0.79961 0.0
H575 H 0.70844 0.94455 0.74536 0.0
C576 C 0.65812 0.93633 0.56606 0.0
C577 C 0.68233 0.94542 0.55018 0.0
C578 C 0.6561 0.93867 0.60245 0.0
C579 C 0.67822 0.95042 0.62349 0.0
C580 C 0.70213 0.95725 0.60847 0.0
C581 C 0.70419 0.95487 0.57193 0.0
C582 C 0.67702 0.96142 0.65783 0.0
C583 C 0.67721 0.94942 0.6895 0.0
C584 C 0.67425 0.98339 0.65866 0.0
C585 C 0.6732 0.99614 0.62562 0.0
C586 C 0.69492 0.0088 0.60369 0.0
C587 C 0.69329 0.01921 0.57133 0.0
C588 C 0.67007 0.01724 0.56081 0.0
C589 C 0.64847 0.00496 0.58272 0.0
C590 C 0.65001 0.99449 0.61509 0.0
C591 C 0.69016 0.01335 0.8134 0.0
C592 C 0.67313 0.02286 0.81635 0.0
C593 C 0.68953 0.99929 0.78356 0.0
C594 C 0.67128 0.99379 0.75673 0.0
C595 C 0.65349 0.00234 0.76061 0.0
C596 C 0.65462 0.01701 0.78991 0.0
C597 C 0.6722 0.98132 0.72318 0.0
C598 C 0.67201 0.99314 0.69117 0.0
C599 C 0.67443 0.95887 0.72232 0.0
C600 C 0.67273 0.94428 0.75489 0.0
C601 C 0.65169 0.93598 0.77803 0.0
C602 C 0.65026 0.92235 0.80878 0.0
C603 C 0.66967 0.91676 0.81656 0.0
C604 C 0.69052 0.92472 0.79356 0.0
C605 C 0.69206 0.93836 0.76279 0.0
H606 H 0.66853 0.90621 0.84038 0.0
H607 H 0.66881 0.02522 0.53569 0.0
H608 H 0.07384 0.75354 0.53298 0.0
H609 H 0.07459 0.75406 0.59792 0.0
H610 H 0.99252 0.70256 0.59958 0.0
H611 H 0.9917 0.70194 0.53522 0.0
H612 H 0.00584 0.73519 0.65248 0.0
H613 H 0.03484 0.68002 0.60105 0.0
H614 H 0.06355 0.67159 0.56376 0.0
H615 H 0.12838 0.72428 0.62637 0.0
H616 H 0.10003 0.73332 0.66367 0.0
H617 H 0.9736 0.63074 0.76941 0.0
H618 H 0.99399 0.6564 0.71688 0.0
H619 H 0.03819 0.72333 0.78196 0.0
H620 H 0.01715 0.69794 0.83513 0.0
H621 H 0.05452 0.69604 0.70306 0.0
H622 H 0.01632 0.74555 0.75912 0.0
H623 H 0.98088 0.74558 0.79215 0.0
H624 H 0.92676 0.69483 0.71499 0.0
H625 H 0.96174 0.69362 0.68246 0.0
C626 C 0.05599 0.74245 0.54727 0.0
C627 C 0.03283 0.72704 0.52911 0.0
C628 C 0.05642 0.74294 0.58431 0.0
C629 C 0.03368 0.72798 0.60354 0.0
C630 C 0.01031 0.71426 0.58531 0.0
C631 C 0.00987 0.71387 0.54846 0.0
C632 C 0.0341 0.72393 0.64215 0.0
C633 C 0.01698 0.72724 0.66375 0.0
C634 C 0.04846 0.71332 0.6568 0.0
C635 C 0.06541 0.70759 0.63482 0.0
C636 C 0.05524 0.68991 0.60671 0.0
C637 C 0.07143 0.68502 0.58559 0.0
C638 C 0.09779 0.69746 0.59263 0.0
C639 C 0.10797 0.71473 0.62089 0.0
C640 C 0.09186 0.71975 0.64202 0.0
C641 C 0.98791 0.65081 0.77281 0.0
C642 C 0.99346 0.66237 0.80649 0.0
C643 C 0.99956 0.66543 0.74271 0.0
C644 C 0.01721 0.69174 0.74569 0.0
C645 C 0.02427 0.70307 0.77928 0.0
C646 C 0.01231 0.68851 0.80955 0.0
C647 C 0.02621 0.70721 0.71308 0.0
C648 C 0.04467 0.70553 0.69236 0.0
C649 C 0.01258 0.71866 0.69889 0.0
C650 C 0.99157 0.71919 0.71873 0.0
C651 C 0.9968 0.73402 0.74961 0.0
C652 C 0.97678 0.73425 0.76824 0.0
C653 C 0.95153 0.72002 0.75587 0.0
C654 C 0.94627 0.70562 0.72478 0.0
C655 C 0.96616 0.70508 0.70633 0.0
H656 H 0.93607 0.72027 0.77026 0.0
H657 H 0.1103 0.69366 0.57624 0.0
H658 H 0.30395 0.37438 0.53462 0.0
H659 H 0.3052 0.37987 0.59812 0.0
H660 H 0.26313 0.29765 0.61206 0.0
H661 H 0.26026 0.29184 0.54753 0.0
H662 H 0.2546 0.32914 0.66723 0.0
H663 H 0.32325 0.32207 0.60492 0.0
H664 H 0.35466 0.33616 0.55598 0.0
H665 H 0.39066 0.41385 0.59411 0.0
H666 H 0.35921 0.40024 0.64303 0.0
H667 H 0.30356 0.30015 0.81813 0.0
H668 H 0.28525 0.30632 0.76407 0.0
H669 H 0.35079 0.38279 0.75319 0.0
H670 H 0.37004 0.37571 0.80596 0.0
H671 H 0.34608 0.36062 0.69675 0.0
H672 H 0.28488 0.36854 0.7658 0.0
H673 H 0.25236 0.35852 0.81225 0.0
H674 H 0.20234 0.28589 0.76285 0.0
H675 H 0.23469 0.29528 0.71636 0.0
C676 C 0.29344 0.35738 0.55073 0.0
C677 C 0.28142 0.33259 0.53584 0.0
C678 C 0.29445 0.36063 0.58726 0.0
C679 C 0.28432 0.33919 0.60962 0.0
C680 C 0.27081 0.31441 0.59507 0.0
C681 C 0.26945 0.31113 0.55832 0.0
C682 C 0.29264 0.34258 0.64688 0.0
C683 C 0.27451 0.33589 0.67403 0.0
C684 C 0.31882 0.35238 0.6553 0.0
C685 C 0.3388 0.36018 0.62744 0.0
C686 C 0.33789 0.34214 0.60287 0.0
C687 C 0.35566 0.35005 0.57511 0.0
C688 C 0.37458 0.3759 0.57188 0.0
C689 C 0.37596 0.39385 0.59663 0.0
C690 C 0.35821 0.38604 0.62441 0.0
C691 C 0.3137 0.31851 0.80465 0.0
C692 C 0.33825 0.33739 0.81582 0.0
C693 C 0.30312 0.32215 0.77385 0.0
C694 C 0.31652 0.34511 0.75446 0.0
C695 C 0.34014 0.36483 0.76747 0.0
C696 C 0.35111 0.36084 0.79762 0.0
C697 C 0.30799 0.34684 0.71817 0.0
C698 C 0.32615 0.35436 0.69073 0.0
C699 C 0.28194 0.33836 0.70978 0.0
C700 C 0.26232 0.33258 0.73766 0.0
C701 C 0.26702 0.35035 0.76496 0.0
C702 C 0.2486 0.34479 0.79128 0.0
C703 C 0.22532 0.32157 0.79053 0.0
C704 C 0.22039 0.30387 0.7634 0.0
C705 C 0.23875 0.30932 0.737 0.0
H706 H 0.21108 0.3173 0.81094 0.0
H707 H 0.38817 0.38201 0.55021 0.0
H708 H 0.99572 0.69848 0.33308 0.0
H709 H 0.97197 0.70206 0.28285 0.0
H710 H 0.98784 0.65059 0.22242 0.0
H711 H 0.01121 0.64668 0.27229 0.0
H712 H 0.99398 0.72322 0.2222 0.0
H713 H 0.94496 0.61947 0.16124 0.0
H714 H 0.91962 0.57475 0.18222 0.0
H715 H 0.89692 0.60018 0.27459 0.0
H716 H 0.92179 0.64504 0.25395 0.0
H717 H 0.01162 0.71339 0.04378 0.0
H718 H 0.00712 0.7141 0.10778 0.0
H719 H 0.92516 0.68144 0.0964 0.0
H720 H 0.92966 0.68124 0.03197 0.0
H721 H 0.93589 0.65356 0.14052 0.0
H722 H 0.95959 0.74048 0.13301 0.0
H723 H 0.98346 0.78556 0.11302 0.0
H724 H 0.05261 0.7944 0.15958 0.0
H725 H 0.02929 0.74927 0.1794 0.0
C726 C 0.99356 0.68738 0.30941 0.0
C727 C 0.00563 0.67253 0.3065 0.0
C728 C 0.97999 0.68949 0.28075 0.0
C729 C 0.97803 0.67653 0.24896 0.0
C730 C 0.98869 0.66043 0.24687 0.0
C731 C 0.00229 0.65839 0.27536 0.0
C732 C 0.96841 0.68246 0.21626 0.0
C733 C 0.9809 0.70806 0.20452 0.0
C734 C 0.95064 0.66277 0.19373 0.0
C735 C 0.93531 0.6357 0.20601 0.0
C736 C 0.93439 0.61554 0.18587 0.0
C737 C 0.92015 0.59015 0.19776 0.0
C738 C 0.90668 0.58463 0.22972 0.0
C739 C 0.9074 0.60449 0.24986 0.0
C740 C 0.9216 0.62991 0.2381 0.0
C741 C 0.9927 0.70695 0.05478 0.0
C742 C 0.97089 0.69647 0.03293 0.0
C743 C 0.99015 0.70746 0.09141 0.0
C744 C 0.96577 0.69778 0.10688 0.0
C745 C 0.94411 0.68883 0.08498 0.0
C746 C 0.94669 0.68843 0.04822 0.0
C747 C 0.96303 0.69403 0.14572 0.0
C748 C 0.94821 0.66884 0.15858 0.0
C749 C 0.97837 0.71415 0.16944 0.0
C750 C 0.99263 0.74141 0.1577 0.0
C751 C 0.97992 0.75198 0.13883 0.0
C752 C 0.99336 0.77756 0.12754 0.0
C753 C 0.01953 0.79283 0.13503 0.0
C754 C 0.03232 0.78256 0.15385 0.0
C755 C 0.01897 0.75698 0.1652 0.0
H756 H 0.0299 0.81263 0.12625 0.0
H757 H 0.89569 0.56496 0.23888 0.0
H758 H 0.36103 0.3686 0.27486 0.0
H759 H 0.35392 0.34228 0.22239 0.0
H760 H 0.29713 0.27536 0.27879 0.0
H761 H 0.30406 0.30168 0.33159 0.0
H762 H 0.35404 0.29983 0.20011 0.0
H763 H 0.24421 0.24602 0.22199 0.0
H764 H 0.21125 0.25084 0.2547 0.0
H765 H 0.26022 0.33287 0.25475 0.0
H766 H 0.29327 0.32853 0.22163 0.0
H767 H 0.30795 0.24021 0.03448 0.0
H768 H 0.30911 0.24107 0.09939 0.0
H769 H 0.28477 0.29758 0.09929 0.0
H770 H 0.2835 0.2967 0.03492 0.0
H771 H 0.26565 0.26805 0.1548 0.0
H772 H 0.34892 0.31608 0.0985 0.0
H773 H 0.38404 0.3211 0.05938 0.0
H774 H 0.39201 0.26529 0.12074 0.0
H775 H 0.35676 0.25984 0.16009 0.0
C776 C 0.34759 0.34814 0.27648 0.0
C777 C 0.33277 0.3373 0.30711 0.0
C778 C 0.34362 0.33308 0.2465 0.0
C779 C 0.32466 0.307 0.24657 0.0
C780 C 0.31165 0.29554 0.27817 0.0
C781 C 0.31574 0.3106 0.30834 0.0
C782 C 0.3162 0.29322 0.21242 0.0
C783 C 0.33456 0.2923 0.19047 0.0
C784 C 0.29095 0.28409 0.19953 0.0
C785 C 0.27137 0.28688 0.21992 0.0
C786 C 0.24794 0.26506 0.22908 0.0
C787 C 0.22924 0.26772 0.24761 0.0
C788 C 0.2337 0.29214 0.25694 0.0
C789 C 0.25685 0.31396 0.24767 0.0
C790 C 0.27559 0.31141 0.22907 0.0
C791 C 0.30259 0.25257 0.04841 0.0
C792 C 0.2964 0.26897 0.02973 0.0
C793 C 0.30309 0.25292 0.08543 0.0
C794 C 0.29756 0.2698 0.10412 0.0
C795 C 0.28915 0.28442 0.08547 0.0
C796 C 0.28849 0.28395 0.0486 0.0
C797 C 0.30358 0.27499 0.14229 0.0
C798 C 0.28479 0.27441 0.16497 0.0
C799 C 0.32876 0.28395 0.15529 0.0
C800 C 0.35006 0.28732 0.13193 0.0
C801 C 0.3581 0.3048 0.10352 0.0
C802 C 0.37803 0.30774 0.08135 0.0
C803 C 0.39018 0.29344 0.08749 0.0
C804 C 0.38252 0.27629 0.11595 0.0
C805 C 0.36259 0.27328 0.13822 0.0
H806 H 0.40557 0.29571 0.07025 0.0
H807 H 0.21918 0.29415 0.27122 0.0
H808 H 0.71574 0.99759 0.34294 0.0
H809 H 0.74088 0.02073 0.29061 0.0
H810 H 0.67563 0.02428 0.24985 0.0
H811 H 0.6507 0.00148 0.30176 0.0
H812 H 0.72674 0.99832 0.22782 0.0
H813 H 0.69147 0.07057 0.19259 0.0
H814 H 0.68533 0.10339 0.22305 0.0
H815 H 0.74039 0.11197 0.30215 0.0
H816 H 0.74719 0.07948 0.27191 0.0
H817 H 0.68626 0.99344 0.05477 0.0
H818 H 0.69442 0.99473 0.11815 0.0
H819 H 0.75789 0.0723 0.10815 0.0
H820 H 0.74985 0.07103 0.0444 0.0
H821 H 0.72707 0.06925 0.16023 0.0
H822 H 0.76899 0.02299 0.12959 0.0
H823 H 0.77529 0.9899 0.10016 0.0
H824 H 0.70934 0.93055 0.15418 0.0
H825 H 0.70239 0.9632 0.1835 0.0
C826 C 0.70716 0.00424 0.32345 0.0
C827 C 0.68119 0.99748 0.3261 0.0
C828 C 0.7215 0.01737 0.29354 0.0
C829 C 0.71016 0.02423 0.26631 0.0
C830 C 0.68498 0.01955 0.27067 0.0
C831 C 0.67063 0.00631 0.30027 0.0
C832 C 0.72218 0.03163 0.2308 0.0
C833 C 0.72734 0.01414 0.21316 0.0
C834 C 0.72353 0.0526 0.21192 0.0
C835 C 0.71983 0.07252 0.22992 0.0
C836 C 0.70247 0.07961 0.21629 0.0
C837 C 0.69881 0.09812 0.23358 0.0
C838 C 0.71245 0.10974 0.26452 0.0
C839 C 0.7298 0.10291 0.27821 0.0
C840 C 0.73354 0.08442 0.26102 0.0
C841 C 0.70221 0.01064 0.06594 0.0
C842 C 0.71703 0.03234 0.04476 0.0
C843 C 0.70695 0.01132 0.10217 0.0
C844 C 0.72691 0.03355 0.11789 0.0
C845 C 0.74235 0.05498 0.09658 0.0
C846 C 0.73755 0.05431 0.06024 0.0
C847 C 0.72982 0.0349 0.15694 0.0
C848 C 0.72742 0.05399 0.17512 0.0
C849 C 0.73108 0.01543 0.17638 0.0
C850 C 0.73517 0.99562 0.15876 0.0
C851 C 0.75574 0.00288 0.13505 0.0
C852 C 0.75943 0.98418 0.11839 0.0
C853 C 0.74274 0.95813 0.1253 0.0
C854 C 0.7223 0.95072 0.14889 0.0
C855 C 0.7185 0.96933 0.16559 0.0
H856 H 0.74564 0.94369 0.1124 0.0
H857 H 0.70957 0.12405 0.27788 0.0
H858 H 0.35137 0.98969 0.22253 0.0
H859 H 0.34465 0.00468 0.27924 0.0
H860 H 0.29355 0.0263 0.22996 0.0
H861 H 0.29984 0.01094 0.17264 0.0
H862 H 0.33122 0.06113 0.29004 0.0
H863 H 0.26187 0.97679 0.26227 0.0
H864 H 0.24287 0.93247 0.23955 0.0
H865 H 0.28375 0.91548 0.31829 0.0
H866 H 0.30341 0.95984 0.34103 0.0
H867 H 0.27189 0.00306 0.4798 0.0
H868 H 0.26712 0.00571 0.41574 0.0
H869 H 0.34934 0.05397 0.40571 0.0
H870 H 0.3541 0.05148 0.46925 0.0
H871 H 0.28421 0.98622 0.37007 0.0
H872 H 0.36658 0.08973 0.33274 0.0
H873 H 0.38442 0.13403 0.35487 0.0
H874 H 0.31289 0.11304 0.40649 0.0
H875 H 0.29445 0.0687 0.38424 0.0
C876 C 0.33916 0.99817 0.22339 0.0
C877 C 0.32578 0.99868 0.19314 0.0
C878 C 0.33538 0.00676 0.25585 0.0
C879 C 0.31835 0.01619 0.25868 0.0
C880 C 0.30673 0.01899 0.22812 0.0
C881 C 0.31038 0.01022 0.19546 0.0
C882 C 0.31064 0.01992 0.29427 0.0
C883 C 0.32068 0.04488 0.30763 0.0
C884 C 0.2962 0.99855 0.3166 0.0
C885 C 0.28428 0.97174 0.30317 0.0
C886 C 0.26701 0.96368 0.27453 0.0
C887 C 0.25608 0.93853 0.26168 0.0
C888 C 0.26214 0.92119 0.27742 0.0
C889 C 0.27909 0.92894 0.3061 0.0
C890 C 0.29011 0.95409 0.31899 0.0
C891 C 0.28882 0.01484 0.46395 0.0
C892 C 0.3133 0.02743 0.47961 0.0
C893 C 0.28609 0.01635 0.42741 0.0
C894 C 0.30783 0.03029 0.40588 0.0
C895 C 0.33219 0.04373 0.42177 0.0
C896 C 0.3349 0.04234 0.45827 0.0
C897 C 0.30575 0.02762 0.36676 0.0
C898 C 0.29403 0.00268 0.3526 0.0
C899 C 0.31825 0.04905 0.34374 0.0
C900 C 0.32916 0.0758 0.35691 0.0
C901 C 0.35457 0.09458 0.3486 0.0
C902 C 0.36482 0.1197 0.36123 0.0
C903 C 0.34981 0.12633 0.38212 0.0
C904 C 0.32451 0.10786 0.39038 0.0
C905 C 0.31417 0.08271 0.37781 0.0
H906 H 0.35778 0.14579 0.39188 0.0
H907 H 0.25371 0.90175 0.26742 0.0
H908 H 0.97687 0.26557 0.45379 0.0
H909 H 0.9818 0.2698 0.38963 0.0
H910 H 0.91872 0.28464 0.38347 0.0
H911 H 0.91524 0.2829 0.44728 0.0
H912 H 0.95811 0.25307 0.32801 0.0
H913 H 0.93534 0.3354 0.33124 0.0
H914 H 0.93225 0.36436 0.3749 0.0
H915 H 0.98781 0.35951 0.441 0.0
H916 H 0.99155 0.33092 0.39746 0.0
H917 H 0.99203 0.3105 0.15533 0.0
H918 H 0.96652 0.29028 0.2087 0.0
H919 H 0.02359 0.35244 0.27217 0.0
H920 H 0.04844 0.37301 0.2194 0.0
H921 H 0.97921 0.34142 0.29466 0.0
H922 H 0.02025 0.29235 0.26314 0.0
H923 H 0.02994 0.26542 0.22394 0.0
H924 H 0.94983 0.20828 0.22044 0.0
H925 H 0.93965 0.23505 0.25932 0.0
C926 C 0.96364 0.26917 0.43873 0.0
C927 C 0.94566 0.27385 0.45603 0.0
C928 C 0.96633 0.27133 0.40196 0.0
C929 C 0.95093 0.27802 0.38186 0.0
C930 C 0.93102 0.27978 0.39858 0.0
C931 C 0.92877 0.27831 0.4354 0.0
C932 C 0.95868 0.28754 0.34518 0.0
C933 C 0.96239 0.27224 0.32048 0.0
C934 C 0.9648 0.31279 0.33562 0.0
C935 C 0.96345 0.33078 0.36131 0.0
C936 C 0.94699 0.34065 0.355 0.0
C937 C 0.94512 0.35699 0.37973 0.0
C938 C 0.95975 0.36369 0.41077 0.0
C939 C 0.97644 0.35426 0.417 0.0
C940 C 0.97847 0.33802 0.39229 0.0
C941 C 0.99897 0.3199 0.18067 0.0
C942 C 0.02227 0.34334 0.18312 0.0
C943 C 0.98443 0.30829 0.21113 0.0
C944 C 0.99325 0.31973 0.2445 0.0
C945 C 0.01628 0.3433 0.24674 0.0
C946 C 0.03054 0.35503 0.21645 0.0
C947 C 0.97927 0.30719 0.27759 0.0
C948 C 0.9743 0.32197 0.30169 0.0
C949 C 0.97306 0.28191 0.28702 0.0
C950 C 0.97916 0.26582 0.26373 0.0
C951 C 0.00469 0.27412 0.25379 0.0
C952 C 0.01027 0.25889 0.23167 0.0
C953 C 0.9905 0.2352 0.21961 0.0
C954 C 0.96511 0.22666 0.22973 0.0
C955 C 0.95942 0.24185 0.25181 0.0
H956 H 0.99486 0.22342 0.20249 0.0
H957 H 0.95818 0.37623 0.42995 0.0
H958 H 0.67747 0.65939 0.13952 0.0
H959 H 0.6979 0.64894 0.18801 0.0
H960 H 0.64308 0.64941 0.26153 0.0
H961 H 0.62214 0.6586 0.21356 0.0
H962 H 0.72221 0.67405 0.24294 0.0
H963 H 0.62968 0.61211 0.32855 0.0
H964 H 0.58462 0.57853 0.31887 0.0
H965 H 0.60523 0.55847 0.21991 0.0
H966 H 0.6505 0.59176 0.2291 0.0
H967 H 0.73976 0.69663 0.42305 0.0
H968 H 0.73222 0.69028 0.35977 0.0
H969 H 0.70333 0.60898 0.37285 0.0
H970 H 0.7083 0.61479 0.43629 0.0
H971 H 0.67125 0.61293 0.33836 0.0
H972 H 0.7597 0.65051 0.32044 0.0
H973 H 0.8061 0.68069 0.32746 0.0
H974 H 0.79659 0.74216 0.28682 0.0
H975 H 0.75007 0.71248 0.28004 0.0
C976 C 0.6696 0.65686 0.16599 0.0
C977 C 0.64808 0.65964 0.17266 0.0
C978 C 0.6813 0.65092 0.19365 0.0
C979 C 0.67173 0.64783 0.22836 0.0
C980 C 0.65034 0.65077 0.23488 0.0
C981 C 0.63846 0.65625 0.20735 0.0
C982 C 0.68485 0.64343 0.2586 0.0
C983 C 0.71121 0.66045 0.26366 0.0
C984 C 0.67078 0.62487 0.28494 0.0
C985 C 0.64355 0.60451 0.27951 0.0
C986 C 0.62468 0.60041 0.30485 0.0
C987 C 0.59907 0.58145 0.29942 0.0
C988 C 0.59207 0.56636 0.26882 0.0
C989 C 0.61067 0.5702 0.24358 0.0
C990 C 0.63631 0.58915 0.24886 0.0
C991 C 0.73227 0.67743 0.41245 0.0
C992 C 0.72497 0.65634 0.43513 0.0
C993 C 0.7283 0.67386 0.376 0.0
C994 C 0.71749 0.64915 0.36118 0.0
C995 C 0.71181 0.62827 0.3835 0.0
C996 C 0.71515 0.63175 0.4201 0.0
C997 C 0.70832 0.64478 0.32387 0.0
C998 C 0.68261 0.62604 0.31738 0.0
C999 C 0.72327 0.66114 0.29586 0.0
C1000 C 0.75131 0.67921 0.29978 0.0
C1001 C 0.76745 0.67049 0.31318 0.0
C1002 C 0.7938 0.68752 0.3171 0.0
C1003 C 0.80429 0.71332 0.3076 0.0
C1004 C 0.78845 0.72215 0.29412 0.0
C1005 C 0.76208 0.70521 0.29015 0.0
H1006 H 0.82469 0.72647 0.31067 0.0
H1007 H 0.57222 0.55171 0.26466 0.0
H1008 H 0.0064 0.58959 0.92787 0.0
H1009 H 0.02304 0.56112 0.94425 0.0
H1010 H 0.96446 0.52611 0.02463 0.0
H1011 H 0.94764 0.5545 0.00786 0.0
H1012 H 0.0147 0.5338 0.04459 0.0
H1013 H 0.95122 0.49565 0.95123 0.0
H1014 H 0.93198 0.49515 0.89328 0.0
H1015 H 0.00186 0.51106 0.84094 0.0
H1016 H 0.02149 0.51156 0.8986 0.0
H1017 H 0.01267 0.41622 0.06624 0.0
H1018 H 0.99778 0.44647 0.052 0.0
H1019 H 0.0527 0.4774 0.96652 0.0
H1020 H 0.06771 0.44718 0.98109 0.0
H1021 H 0.0053 0.4727 0.94927 0.0
H1022 H 0.06781 0.50728 0.0416 0.0
H1023 H 0.08777 0.50835 0.09909 0.0
H1024 H 0.02182 0.5013 0.15352 0.0
H1025 H 0.0012 0.4997 0.09634 0.0
C1026 C 0.99772 0.57642 0.94985 0.0
C1027 C 0.97609 0.57437 0.96708 0.0
C1028 C 0.00704 0.56004 0.95896 0.0
C1029 C 0.99481 0.54137 0.98541 0.0
C1030 C 0.97419 0.54044 0.00422 0.0
C1031 C 0.96471 0.55671 0.99485 0.0
C1032 C 0.00214 0.52147 0.99117 0.0
C1033 C 0.01236 0.52021 0.02399 0.0
C1034 C 0.99963 0.50419 0.9639 0.0
C1035 C 0.98789 0.50388 0.92922 0.0
C1036 C 0.96253 0.49919 0.92737 0.0
C1037 C 0.95153 0.49883 0.89459 0.0
C1038 C 0.96573 0.50321 0.86348 0.0
C1039 C 0.9909 0.50773 0.86507 0.0
C1040 C 0.00194 0.50796 0.89777 0.0
C1041 C 0.0209 0.42894 0.04371 0.0
C1042 C 0.04094 0.42922 0.02426 0.0
C1043 C 0.01265 0.44638 0.03587 0.0
C1044 C 0.02439 0.4644 0.00852 0.0
C1045 C 0.04341 0.46366 0.98774 0.0
C1046 C 0.05183 0.44633 0.99581 0.0
C1047 C 0.01772 0.48481 0.00286 0.0
C1048 C 0.00765 0.48623 0.96999 0.0
C1049 C 0.02052 0.5023 0.03009 0.0
C1050 C 0.03277 0.503 0.06459 0.0
C1051 C 0.05739 0.50563 0.06579 0.0
C1052 C 0.06886 0.50639 0.09833 0.0
C1053 C 0.056 0.50473 0.1299 0.0
C1054 C 0.03169 0.50244 0.12902 0.0
C1055 C 0.02011 0.50162 0.09655 0.0
H1056 H 0.0649 0.50534 0.15505 0.0
H1057 H 0.9572 0.50302 0.83815 0.0
H1058 H 0.52764 0.61019 0.99732 0.0
H1059 H 0.49839 0.56446 0.98483 0.0
H1060 H 0.55461 0.54647 0.02555 0.0
H1061 H 0.58357 0.59208 0.03885 0.0
H1062 H 0.52757 0.51787 0.96303 0.0
H1063 H 0.51106 0.54013 0.07939 0.0
H1064 H 0.50164 0.56582 0.12137 0.0
H1065 H 0.43128 0.5447 0.06638 0.0
H1066 H 0.44042 0.51912 0.02385 0.0
H1067 H 0.45117 0.38672 0.00104 0.0
H1068 H 0.47767 0.43249 0.01566 0.0
H1069 H 0.42091 0.44724 0.96874 0.0
H1070 H 0.39468 0.40154 0.9533 0.0
H1071 H 0.44717 0.47756 0.03411 0.0
H1072 H 0.46426 0.46011 0.91553 0.0
H1073 H 0.47268 0.43572 0.87008 0.0
H1074 H 0.53993 0.44821 0.9267 0.0
H1075 H 0.53201 0.47292 0.97235 0.0
C1076 C 0.53396 0.5965 0.00261 0.0
C1077 C 0.55783 0.60455 0.01879 0.0
C1078 C 0.51723 0.57043 0.99575 0.0
C1079 C 0.52425 0.5521 0.00471 0.0
C1080 C 0.54886 0.56034 0.01847 0.0
C1081 C 0.56546 0.58638 0.02577 0.0
C1082 C 0.50529 0.52426 0.0022 0.0
C1083 C 0.51017 0.50904 0.97888 0.0
C1084 C 0.48227 0.51284 0.0223 0.0
C1085 C 0.47655 0.52791 0.04821 0.0
C1086 C 0.49366 0.54111 0.07611 0.0
C1087 C 0.48835 0.55561 0.10005 0.0
C1088 C 0.46592 0.55697 0.09649 0.0
C1089 C 0.44868 0.54369 0.0691 0.0
C1090 C 0.45389 0.52914 0.04509 0.0
C1091 C 0.44395 0.39961 0.99513 0.0
C1092 C 0.42089 0.3907 0.97633 0.0
C1093 C 0.45914 0.42572 0.00321 0.0
C1094 C 0.45131 0.44322 0.99297 0.0
C1095 C 0.4272 0.434 0.97695 0.0
C1096 C 0.41216 0.4079 0.96841 0.0
C1097 C 0.46962 0.47125 0.99517 0.0
C1098 C 0.46461 0.48645 0.01837 0.0
C1099 C 0.49241 0.48279 0.97473 0.0
C1100 C 0.4974 0.46809 0.94746 0.0
C1101 C 0.48078 0.45755 0.91834 0.0
C1102 C 0.48552 0.44379 0.89248 0.0
C1103 C 0.50671 0.44026 0.89564 0.0
C1104 C 0.52345 0.45085 0.92438 0.0
C1105 C 0.51893 0.46486 0.95016 0.0
H1106 H 0.51009 0.42929 0.87584 0.0
H1107 H 0.46189 0.56828 0.11498 0.0
H1108 H 0.5874 0.01314 0.94154 0.0
H1109 H 0.54223 0.99912 0.95495 0.0
H1110 H 0.56557 0.07221 0.00466 0.0
H1111 H 0.61066 0.08633 0.99068 0.0
H1112 H 0.52598 0.0287 0.04172 0.0
H1113 H 0.54632 0.0657 0.9254 0.0
H1114 H 0.56311 0.07056 0.86463 0.0
H1115 H 0.50561 0.99275 0.84103 0.0
H1116 H 0.48882 0.98719 0.902 0.0
H1117 H 0.40484 0.01882 0.0484 0.0
H1118 H 0.44974 0.03696 0.02974 0.0
H1119 H 0.42962 0.96707 0.97296 0.0
H1120 H 0.38472 0.94899 0.99169 0.0
H1121 H 0.46807 0.01061 0.93863 0.0
H1122 H 0.44994 0.97243 0.05485 0.0
H1123 H 0.43585 0.96533 0.11723 0.0
H1124 H 0.48914 0.04446 0.14084 0.0
H1125 H 0.50394 0.05193 0.07871 0.0
C1126 C 0.58284 0.02582 0.95629 0.0
C1127 C 0.60233 0.05057 0.96572 0.0
C1128 C 0.55711 0.01796 0.96358 0.0
C1129 C 0.55058 0.03474 0.9805 0.0
C1130 C 0.57022 0.05898 0.99163 0.0
C1131 C 0.59591 0.06695 0.9839 0.0
C1132 C 0.52324 0.02756 0.98488 0.0
C1133 C 0.5134 0.02512 0.01921 0.0
C1134 C 0.50678 0.02247 0.95541 0.0
C1135 C 0.51651 0.02591 0.91847 0.0
C1136 C 0.53741 0.04952 0.90741 0.0
C1137 C 0.54694 0.05241 0.87291 0.0
C1138 C 0.53554 0.03194 0.84904 0.0
C1139 C 0.51452 0.00855 0.85961 0.0
C1140 C 0.50497 0.00552 0.89414 0.0
C1141 C 0.40988 0.00785 0.03066 0.0
C1142 C 0.39143 0.9827 0.02105 0.0
C1143 C 0.43553 0.01806 0.02037 0.0
C1144 C 0.44309 0.00319 0.00045 0.0
C1145 C 0.42422 0.97887 0.98831 0.0
C1146 C 0.39858 0.96863 -0.00124 0.0
C1147 C 0.47078 0.01175 0.99557 0.0
C1148 C 0.48069 0.0144 0.96115 0.0
C1149 C 0.48735 0.01699 0.02498 0.0
C1150 C 0.47783 0.01281 0.06203 0.0
C1151 C 0.45843 0.98841 0.07323 0.0
C1152 C 0.45038 0.98428 0.10857 0.0
C1153 C 0.46137 0.00449 0.13288 0.0
C1154 C 0.48058 0.02883 0.12196 0.0
C1155 C 0.48891 0.03299 0.08673 0.0
H1156 H 0.4551 0.00123 0.16023 0.0
H1157 H 0.54285 0.03427 0.82229 0.0
H1158 H 0.56547 0.93715 0.51486 0.0
H1159 H 0.53642 0.95207 0.5363 0.0
H1160 H 0.56146 0.00738 0.45125 0.0
H1161 H 0.59029 0.99248 0.42998 0.0
H1162 H 0.54134 0.9996 0.55663 0.0
H1163 H 0.50893 0.00387 0.41457 0.0
H1164 H 0.50609 0.98406 0.35622 0.0
H1165 H 0.4971 0.91611 0.40704 0.0
H1166 H 0.49985 0.9355 0.46565 0.0
H1167 H 0.47172 0.06471 0.55836 0.0
H1168 H 0.50129 0.0508 0.53687 0.0
H1169 H 0.43772 0.97363 0.524 0.0
H1170 H 0.40807 0.98754 0.54587 0.0
H1171 H 0.47464 0.98867 0.46955 0.0
H1172 H 0.47102 0.98584 0.597 0.0
H1173 H 0.4728 0.00345 0.65664 0.0
H1174 H 0.55028 0.06371 0.63761 0.0
H1175 H 0.54894 0.04647 0.57779 0.0
C1176 C 0.56526 0.95302 0.50158 0.0
C1177 C 0.58002 0.96381 0.47099 0.0
C1178 C 0.54863 0.96143 0.51364 0.0
C1179 C 0.54648 0.98051 0.49495 0.0
C1180 C 0.56257 0.99241 0.46576 0.0
C1181 C 0.57916 0.98408 0.45383 0.0
C1182 C 0.52627 0.98681 0.5042 0.0
C1183 C 0.52677 0.99722 0.53762 0.0
C1184 C 0.50697 0.98327 0.47957 0.0
C1185 C 0.50478 0.97123 0.44446 0.0
C1186 C 0.50624 0.98466 0.41327 0.0
C1187 C 0.50471 0.97353 0.38016 0.0
C1188 C 0.50151 0.94888 0.37793 0.0
C1189 C 0.49966 0.93524 0.4088 0.0
C1190 C 0.5013 0.94633 0.44197 0.0
C1191 C 0.46402 0.04496 0.5499 0.0
C1192 C 0.43767 0.02723 0.55333 0.0
C1193 C 0.48091 0.03699 0.53795 0.0
C1194 C 0.47173 0.01111 0.52936 0.0
C1195 C 0.44516 0.99369 0.53052 0.0
C1196 C 0.42823 0.00166 0.54267 0.0
C1197 C 0.49009 0.00203 0.52168 0.0
C1198 C 0.48921 0.99106 0.48856 0.0
C1199 C 0.50883 0.00473 0.54676 0.0
C1200 C 0.50981 0.01497 0.58285 0.0
C1201 C 0.4884 0.00291 0.60549 0.0
C1202 C 0.48936 0.01278 0.63936 0.0
C1203 C 0.5116 0.03474 0.65087 0.0
C1204 C 0.53304 0.04673 0.62864 0.0
C1205 C 0.53223 0.03687 0.5948 0.0
H1206 H 0.51225 0.04242 0.67703 0.0
H1207 H 0.50047 0.94036 0.35228 0.0
H1208 H 0.06548 0.60469 0.47698 0.0
H1209 H 0.04563 0.56017 0.49805 0.0
H1210 H 0.97066 0.54876 0.4725 0.0
H1211 H 0.99059 0.59327 0.45108 0.0
H1212 H 0.97157 0.52397 0.53611 0.0
H1213 H 0.99784 0.53055 0.41435 0.0
H1214 H 0.02859 0.54859 0.36481 0.0
H1215 H 0.07799 0.5259 0.41583 0.0
H1216 H 0.04764 0.50797 0.46592 0.0
H1217 H 0.90501 0.3882 0.53084 0.0
H1218 H 0.9231 0.43304 0.51197 0.0
H1219 H 0.99966 0.44505 0.5255 0.0
H1220 H 0.9815 0.40012 0.54398 0.0
H1221 H 0.99737 0.4698 0.46799 0.0
H1222 H 0.971 0.46263 0.58957 0.0
H1223 H 0.94097 0.44564 0.64003 0.0
H1224 H 0.89222 0.46976 0.59053 0.0
H1225 H 0.92184 0.48673 0.53962 0.0
C1226 C 0.04473 0.59283 0.47682 0.0
C1227 C 0.0295 0.60232 0.46272 0.0
C1228 C 0.03342 0.56741 0.48861 0.0
C1229 C 0.00669 0.55108 0.48641 0.0
C1230 C 0.99131 0.56105 0.47446 0.0
C1231 C 0.00266 0.58647 0.46244 0.0
C1232 C 0.99512 0.52317 0.49375 0.0
C1233 C 0.97694 0.51202 0.52099 0.0
C1234 C 0.00248 0.50772 0.47434 0.0
C1235 C 0.02058 0.51813 0.44403 0.0
C1236 C 0.01533 0.52954 0.4151 0.0
C1237 C 0.03266 0.5397 0.38689 0.0
C1238 C 0.05526 0.53845 0.38721 0.0
C1239 C 0.0605 0.52689 0.41565 0.0
C1240 C 0.04322 0.51669 0.44393 0.0
C1241 C 0.92568 0.40033 0.52892 0.0
C1242 C 0.9419 0.39078 0.53847 0.0
C1243 C 0.93601 0.42597 0.51853 0.0
C1244 C 0.96275 0.44258 0.51798 0.0
C1245 C 0.97898 0.43264 0.52581 0.0
C1246 C 0.96863 0.40696 0.53611 0.0
C1247 C 0.97382 0.47047 0.51055 0.0
C1248 C 0.99192 0.48166 0.48319 0.0
C1249 C 0.9664 0.48594 0.52996 0.0
C1250 C 0.94854 0.47575 0.5606 0.0
C1251 C 0.95379 0.46417 0.58932 0.0
C1252 C 0.93687 0.45461 0.61807 0.0
C1253 C 0.91472 0.45666 0.61852 0.0
C1254 C 0.90943 0.46827 0.59022 0.0
C1255 C 0.92628 0.47788 0.56142 0.0
H1256 H 0.90167 0.44929 0.64081 0.0
H1257 H 0.06869 0.5464 0.36539 0.0
H1258 H 0.62175 0.54758 0.49719 0.0
H1259 H 0.57722 0.52041 0.47691 0.0
H1260 H 0.54971 0.53713 0.57332 0.0
H1261 H 0.59404 0.5637 0.59372 0.0
H1262 H 0.52262 0.48778 0.55983 0.0
H1263 H 0.55033 0.56509 0.49161 0.0
H1264 H 0.57874 0.59966 0.45054 0.0
H1265 H 0.56338 0.5439 0.36906 0.0
H1266 H 0.53514 0.50897 0.4098 0.0
H1267 H 0.39285 0.44422 0.50296 0.0
H1268 H 0.43713 0.46787 0.52576 0.0
H1269 H 0.46432 0.44972 0.43024 0.0
H1270 H 0.42029 0.42652 0.40751 0.0
H1271 H 0.4916 0.49939 0.44341 0.0
H1272 H 0.46355 0.42218 0.51065 0.0
H1273 H 0.43615 0.38717 0.55176 0.0
H1274 H 0.45226 0.4421 0.63469 0.0
H1275 H 0.4796 0.4775 0.59397 0.0
C1276 C 0.60611 0.54555 0.51374 0.0
C1277 C 0.61116 0.55754 0.54696 0.0
C1278 C 0.58072 0.53009 0.50222 0.0
C1279 C 0.56004 0.52682 0.5235 0.0
C1280 C 0.56525 0.53923 0.55648 0.0
C1281 C 0.59055 0.55446 0.56806 0.0
C1282 C 0.53294 0.51021 0.51185 0.0
C1283 C 0.51575 0.49054 0.53455 0.0
C1284 C 0.52407 0.51336 0.47852 0.0
C1285 C 0.54081 0.5344 0.45387 0.0
C1286 C 0.55314 0.56019 0.465 0.0
C1287 C 0.56919 0.57986 0.44177 0.0
C1288 C 0.57291 0.57399 0.40723 0.0
C1289 C 0.56051 0.54844 0.39582 0.0
C1290 C 0.54446 0.5287 0.41896 0.0
C1291 C 0.40833 0.44504 0.48727 0.0
C1292 C 0.40342 0.43388 0.45348 0.0
C1293 C 0.43357 0.45846 0.50024 0.0
C1294 C 0.45412 0.46065 0.47965 0.0
C1295 C 0.44887 0.44848 0.44649 0.0
C1296 C 0.42376 0.43517 0.43359 0.0
C1297 C 0.48125 0.47692 0.49138 0.0
C1298 C 0.49845 0.4966 0.46869 0.0
C1299 C 0.4901 0.47375 0.52469 0.0
C1300 C 0.47341 0.45252 0.54912 0.0
C1301 C 0.46107 0.42683 0.53755 0.0
C1302 C 0.44563 0.4069 0.56082 0.0
C1303 C 0.44245 0.41241 0.5958 0.0
C1304 C 0.45474 0.43786 0.60758 0.0
C1305 C 0.47024 0.45786 0.58443 0.0
H1306 H 0.43046 0.39696 0.61375 0.0
H1307 H 0.58538 0.58923 0.38929 0.0
H1308 H 0.16819 0.50013 0.15965 0.0
H1309 H 0.17382 0.54084 0.1832 0.0
H1310 H 0.09265 0.50367 0.20579 0.0
H1311 H 0.0868 0.46349 0.18258 0.0
H1312 H 0.11126 0.54934 0.16738 0.0
H1313 H 0.13334 0.51492 0.27066 0.0
H1314 H 0.15979 0.50043 0.30218 0.0
H1315 H 0.22711 0.57403 0.28492 0.0
H1316 H 0.20106 0.58883 0.25288 0.0
H1317 H 0.07172 0.60574 0.29341 0.0
H1318 H 0.08352 0.57896 0.25896 0.0
H1319 H 0.16353 0.63743 0.26556 0.0
H1320 H 0.15188 0.66437 0.30077 0.0
H1321 H 0.1569 0.59059 0.27895 0.0
H1322 H 0.13152 0.62753 0.18752 0.0
H1323 H 0.10449 0.64133 0.15612 0.0
H1324 H 0.04323 0.56295 0.14977 0.0
H1325 H 0.06963 0.54875 0.18188 0.0
C1326 C 0.15163 0.50068 0.1699 0.0
C1327 C 0.12705 0.47862 0.16911 0.0
C1328 C 0.15488 0.52388 0.18324 0.0
C1329 C 0.13358 0.52518 0.19582 0.0
C1330 C 0.10925 0.50307 0.19575 0.0
C1331 C 0.106 0.48006 0.18262 0.0
C1332 C 0.13584 0.54936 0.20883 0.0
C1333 C 0.12129 0.55849 0.19171 0.0
C1334 C 0.14977 0.56176 0.23974 0.0
C1335 C 0.16535 0.55284 0.25897 0.0
C1336 C 0.15382 0.52792 0.27329 0.0
C1337 C 0.16872 0.51967 0.29132 0.0
C1338 C 0.19513 0.53626 0.29543 0.0
C1339 C 0.20667 0.56117 0.28163 0.0
C1340 C 0.19185 0.5695 0.26355 0.0
C1341 C 0.09183 0.61303 0.2874 0.0
C1342 C 0.11086 0.63723 0.29963 0.0
C1343 C 0.09853 0.59775 0.26752 0.0
C1344 C 0.12436 0.60646 0.25908 0.0
C1345 C 0.14348 0.63049 0.27155 0.0
C1346 C 0.13678 0.64581 0.29165 0.0
C1347 C 0.13108 0.58969 0.23855 0.0
C1348 C 0.14744 0.58204 0.25407 0.0
C1349 C 0.11872 0.57855 0.20611 0.0
C1350 C 0.1026 0.58707 0.18717 0.0
C1351 C 0.11221 0.61325 0.1797 0.0
C1352 C 0.09699 0.62116 0.16176 0.0
C1353 C 0.07216 0.60304 0.15097 0.0
C1354 C 0.06247 0.57697 0.15813 0.0
C1355 C 0.07757 0.56899 0.17616 0.0
H1356 H 0.06043 0.6092 0.13704 0.0
H1357 H 0.20663 0.52985 0.3094 0.0
H1358 H 0.51358 0.61575 0.15445 0.0
H1359 H 0.47218 0.58817 0.18152 0.0
H1360 H 0.48405 0.64912 0.25319 0.0
H1361 H 0.52621 0.67726 0.22603 0.0
H1362 H 0.4694 0.60382 0.28713 0.0
H1363 H 0.43765 0.6304 0.19168 0.0
H1364 H 0.43389 0.6416 0.13003 0.0
H1365 H 0.4076 0.56384 0.09768 0.0
H1366 H 0.41178 0.55226 0.15892 0.0
H1367 H 0.35049 0.49916 0.34886 0.0
H1368 H 0.37729 0.54197 0.32325 0.0
H1369 H 0.39995 0.50891 0.23904 0.0
H1370 H 0.37354 0.46616 0.26463 0.0
H1371 H 0.39041 0.54945 0.21728 0.0
H1372 H 0.43606 0.52866 0.30699 0.0
H1373 H 0.44115 0.51636 0.3675 0.0
H1374 H 0.44195 0.58327 0.40923 0.0
H1375 H 0.43639 0.59569 0.34894 0.0
C1376 C 0.50742 0.62356 0.17566 0.0
C1377 C 0.52324 0.64873 0.18812 0.0
C1378 C 0.48356 0.60777 0.19093 0.0
C1379 C 0.47485 0.61678 0.21888 0.0
C1380 C 0.49039 0.64197 0.23133 0.0
C1381 C 0.51442 0.65795 0.21586 0.0
C1382 C 0.45057 0.59862 0.23671 0.0
C1383 C 0.4518 0.59251 0.27224 0.0
C1384 C 0.42775 0.58372 0.21706 0.0
C1385 C 0.42502 0.59047 0.18004 0.0
C1386 C 0.43122 0.61571 0.1714 0.0
C1387 C 0.42904 0.62213 0.13649 0.0
C1388 C 0.42055 0.60345 0.10994 0.0
C1389 C 0.4142 0.5783 0.11826 0.0
C1390 C 0.41642 0.57178 0.15311 0.0
C1391 C 0.36084 0.50098 0.32454 0.0
C1392 C 0.36021 0.47943 0.30886 0.0
C1393 C 0.37605 0.52539 0.30998 0.0
C1394 C 0.39051 0.52845 0.27939 0.0
C1395 C 0.38875 0.5068 0.26259 0.0
C1396 C 0.37386 0.48248 0.27737 0.0
C1397 C 0.40985 0.55419 0.26691 0.0
C1398 C 0.40763 0.56156 0.23249 0.0
C1399 C 0.43181 0.5702 0.28745 0.0
C1400 C 0.43544 0.5629 0.32358 0.0
C1401 C 0.43709 0.54061 0.32912 0.0
C1402 C 0.44009 0.53364 0.36335 0.0
C1403 C 0.44179 0.54898 0.39221 0.0
C1404 C 0.44056 0.57137 0.38686 0.0
C1405 C 0.43746 0.57837 0.35268 0.0
H1406 H 0.44413 0.54356 0.41869 0.0
H1407 H 0.41887 0.60846 0.08293 0.0
H1408 H 0.40174 0.9453 0.17833 0.0
H1409 H 0.43652 0.93894 0.19886 0.0
H1410 H 0.388 0.85687 0.18718 0.0
H1411 H 0.35274 0.86305 0.16678 0.0
H1412 H 0.41207 0.86912 0.25004 0.0
H1413 H 0.43721 0.88972 0.1298 0.0
H1414 H 0.44818 0.91312 0.07302 0.0
H1415 H 0.50882 0.97999 0.12364 0.0
H1416 H 0.49803 0.95713 0.18087 0.0
H1417 H 0.52257 0.85844 0.29571 0.0
H1418 H 0.48564 0.85442 0.26262 0.0
H1419 H 0.51786 0.93665 0.2673 0.0
H1420 H 0.55473 0.9409 0.29992 0.0
H1421 H 0.50046 0.91731 0.20111 0.0
H1422 H 0.47039 0.89819 0.32268 0.0
H1423 H 0.46087 0.87415 0.37886 0.0
H1424 H 0.40972 0.80412 0.32441 0.0
H1425 H 0.41919 0.82774 0.26782 0.0
C1426 C 0.39838 0.92585 0.18011 0.0
C1427 C 0.37443 0.90463 0.17112 0.0
C1428 C 0.4184 0.92228 0.19151 0.0
C1429 C 0.41493 0.89746 0.19403 0.0
C1430 C 0.39105 0.87619 0.18517 0.0
C1431 C 0.37096 0.87975 0.1736 0.0
C1432 C 0.43591 0.89392 0.20804 0.0
C1433 C 0.43128 0.87918 0.23886 0.0
C1434 C 0.46101 0.90737 0.1937 0.0
C1435 C 0.46677 0.92167 0.15969 0.0
C1436 C 0.45271 0.9095 0.12894 0.0
C1437 C 0.45897 0.92264 0.09663 0.0
C1438 C 0.47935 0.94792 0.09468 0.0
C1439 C 0.49321 0.9603 0.12515 0.0
C1440 C 0.48702 0.94726 0.15753 0.0
C1441 C 0.5218 0.87565 0.28956 0.0
C1442 C 0.54157 0.89999 0.30033 0.0
C1443 C 0.5007 0.87331 0.27077 0.0
C1444 C 0.49908 0.89525 0.26265 0.0
C1445 C 0.51887 0.91952 0.27315 0.0
C1446 C 0.5399 0.92188 0.29186 0.0
C1447 C 0.47672 0.89323 0.24355 0.0
C1448 C 0.48112 0.90691 0.21181 0.0
C1449 C 0.45145 0.87885 0.25702 0.0
C1450 C 0.44574 0.86467 0.291 0.0
C1451 C 0.45729 0.87764 0.32267 0.0
C1452 C 0.45187 0.8641 0.35458 0.0
C1453 C 0.43478 0.83761 0.35518 0.0
C1454 C 0.423 0.82462 0.32389 0.0
C1455 C 0.42837 0.83808 0.2919 0.0
H1456 H 0.4306 0.82716 0.37992 0.0
H1457 H 0.48437 0.95795 0.06956 0.0
H1458 H 0.88762 0.35803 0.73029 0.0
H1459 H 0.87834 0.38973 0.75575 0.0
H1460 H 0.82369 0.37535 0.67232 0.0
H1461 H 0.83296 0.34341 0.64649 0.0
H1462 H 0.86058 0.42562 0.67706 0.0
H1463 H 0.80205 0.36256 0.7561 0.0
H1464 H 0.78573 0.32635 0.7981 0.0
H1465 H 0.8463 0.37273 0.87095 0.0
H1466 H 0.86324 0.40912 0.82921 0.0
H1467 H 0.86497 0.53543 0.76146 0.0
H1468 H 0.84714 0.4922 0.73631 0.0
H1469 H 0.89634 0.47792 0.80439 0.0
H1470 H 0.91403 0.52071 0.82972 0.0
H1471 H 0.84732 0.43757 0.80376 0.0
H1472 H 0.91224 0.49349 0.718 0.0
H1473 H 0.93194 0.5293 0.67522 0.0
H1474 H 0.86168 0.4959 0.61565 0.0
H1475 H 0.84157 0.4599 0.65817 0.0
C1476 C 0.87318 0.36116 0.7178 0.0
C1477 C 0.86116 0.34844 0.68629 0.0
C1478 C 0.86773 0.37913 0.73253 0.0
C1479 C 0.85017 0.38472 0.71604 0.0
C1480 C 0.83715 0.37112 0.68552 0.0
C1481 C 0.84244 0.3529 0.67088 0.0
C1482 C 0.84862 0.40728 0.72806 0.0
C1483 C 0.85689 0.42801 0.70453 0.0
C1484 C 0.84412 0.4104 0.76398 0.0
C1485 C 0.83394 0.38861 0.78941 0.0
C1486 C 0.81199 0.36502 0.78098 0.0
C1487 C 0.80261 0.34445 0.80477 0.0
C1488 C 0.81497 0.34724 0.83717 0.0
C1489 C 0.83672 0.37061 0.84587 0.0
C1490 C 0.84618 0.39124 0.82217 0.0
C1491 C 0.87195 0.52304 0.77104 0.0
C1492 C 0.89092 0.53147 0.79753 0.0
C1493 C 0.86176 0.4984 0.75666 0.0
C1494 C 0.87042 0.48193 0.76858 0.0
C1495 C 0.88926 0.4903 0.79506 0.0
C1496 C 0.89946 0.51484 0.80935 0.0
C1497 C 0.86059 0.45609 0.75315 0.0
C1498 C 0.85013 0.43485 0.77605 0.0
C1499 C 0.86337 0.45252 0.71675 0.0
C1500 C 0.8753 0.47428 0.69151 0.0
C1501 C 0.90094 0.49394 0.69595 0.0
C1502 C 0.9122 0.5142 0.6717 0.0
C1503 C 0.89803 0.51494 0.64284 0.0
C1504 C 0.87259 0.49536 0.63811 0.0
C1505 C 0.86128 0.475 0.66221 0.0
H1506 H 0.90679 0.53063 0.62406 0.0
H1507 H 0.80769 0.33129 0.85555 0.0
H1508 H 0.49284 0.34205 0.82092 0.0
H1509 H 0.53414 0.37479 0.79611 0.0
H1510 H 0.50711 0.42916 0.79446 0.0
H1511 H 0.46602 0.39678 0.81863 0.0
H1512 H 0.52896 0.42857 0.73261 0.0
H1513 H 0.54982 0.43267 0.85818 0.0
H1514 H 0.55302 0.41374 0.91465 0.0
H1515 H 0.60324 0.39118 0.86573 0.0
H1516 H 0.59988 0.40958 0.80885 0.0
H1517 H 0.6322 0.55182 0.72035 0.0
H1518 H 0.59715 0.51272 0.74581 0.0
H1519 H 0.63984 0.47346 0.72895 0.0
H1520 H 0.67529 0.51272 0.70325 0.0
H1521 H 0.61254 0.46112 0.79423 0.0
H1522 H 0.59694 0.46307 0.6709 0.0
H1523 H 0.59314 0.48126 0.61422 0.0
H1524 H 0.53307 0.4919 0.65768 0.0
H1525 H 0.53671 0.47404 0.71483 0.0
C1526 C 0.49575 0.36099 0.81522 0.0
C1527 C 0.47612 0.36677 0.8215 0.0
C1528 C 0.51935 0.37967 0.80122 0.0
C1529 C 0.52365 0.40438 0.79355 0.0
C1530 C 0.50411 0.41015 0.79998 0.0
C1531 C 0.48061 0.39158 0.81382 0.0
C1532 C 0.54819 0.42439 0.77812 0.0
C1533 C 0.54722 0.43577 0.74616 0.0
C1534 C 0.57211 0.43306 0.79513 0.0
C1535 C 0.57426 0.42212 0.82925 0.0
C1536 C 0.56127 0.4234 0.85945 0.0
C1537 C 0.56318 0.41284 0.89151 0.0
C1538 C 0.57826 0.40119 0.89374 0.0
C1539 C 0.59151 0.40015 0.86394 0.0
C1540 C 0.58961 0.41063 0.83179 0.0
C1541 C 0.63439 0.53504 0.72251 0.0
C1542 C 0.65637 0.53525 0.70934 0.0
C1543 C 0.61429 0.5127 0.73696 0.0
C1544 C 0.61578 0.49017 0.73849 0.0
C1545 C 0.63835 0.49069 0.72766 0.0
C1546 C 0.65855 0.51311 0.71305 0.0
C1547 C 0.59301 0.46591 0.74959 0.0
C1548 C 0.59434 0.45365 0.78045 0.0
C1549 C 0.56935 0.45633 0.73151 0.0
C1550 C 0.56724 0.46737 0.69728 0.0
C1551 C 0.58307 0.4695 0.6685 0.0
C1552 C 0.58089 0.47968 0.63625 0.0
C1553 C 0.5629 0.48778 0.63237 0.0
C1554 C 0.54701 0.48565 0.66074 0.0
C1555 C 0.5491 0.47544 0.69306 0.0
H1556 H 0.56126 0.49567 0.60738 0.0
H1557 H 0.57973 0.39303 0.91859 0.0
H1558 H 0.65544 0.12845 0.78093 0.0
H1559 H 0.62072 0.13474 0.75871 0.0
H1560 H 0.61229 0.15994 0.86224 0.0
H1561 H 0.64778 0.15474 0.88429 0.0
H1562 H 0.56961 0.10887 0.82868 0.0
H1563 H 0.6209 0.1997 0.81235 0.0
H1564 H 0.65834 0.23976 0.79117 0.0
H1565 H 0.63914 0.21402 0.68359 0.0
H1566 H 0.6018 0.1736 0.70414 0.0
H1567 H 0.45122 0.08757 0.76151 0.0
H1568 H 0.49172 0.10793 0.79457 0.0
H1569 H 0.53387 0.12652 0.69596 0.0
H1570 H 0.49348 0.1082 0.66315 0.0
H1571 H 0.55974 0.16284 0.73772 0.0
H1572 H 0.5186 0.07019 0.75084 0.0
H1573 H 0.48335 0.02706 0.76719 0.0
H1574 H 0.48592 0.05221 0.87437 0.0
H1575 H 0.52114 0.09554 0.85857 0.0
C1576 C 0.64691 0.13639 0.79849 0.0
C1577 C 0.65404 0.14094 0.83429 0.0
C1578 C 0.62719 0.14003 0.7858 0.0
C1579 C 0.61409 0.14778 0.80894 0.0
C1580 C 0.62246 0.15421 0.84403 0.0
C1581 C 0.6427 0.15125 0.85651 0.0
C1582 C 0.58882 0.14375 0.79821 0.0
C1583 C 0.56723 0.12098 0.80951 0.0
C1584 C 0.58619 0.15921 0.77237 0.0
C1585 C 0.60862 0.18351 0.75985 0.0
C1586 C 0.62479 0.20245 0.7842 0.0
C1587 C 0.64597 0.22526 0.7723 0.0
C1588 C 0.65115 0.22941 0.73607 0.0
C1589 C 0.63512 0.21078 0.71166 0.0
C1590 C 0.61391 0.18793 0.72342 0.0
C1591 C 0.46923 0.09627 0.74711 0.0
C1592 C 0.46946 0.09621 0.70999 0.0
C1593 C 0.49233 0.10778 0.76591 0.0
C1594 C 0.51591 0.11822 0.74782 0.0
C1595 C 0.516 0.11866 0.7106 0.0
C1596 C 0.49296 0.10805 0.69185 0.0
C1597 C 0.54042 0.12735 0.76728 0.0
C1598 C 0.56188 0.15098 0.75755 0.0
C1599 C 0.5432 0.11222 0.7938 0.0
C1600 C 0.52219 0.08616 0.80341 0.0
C1601 C 0.51152 0.06654 0.77783 0.0
C1602 C 0.49157 0.04207 0.787 0.0
C1603 C 0.48225 0.03697 0.82172 0.0
C1604 C 0.49299 0.05627 0.84741 0.0
C1605 C 0.513 0.08076 0.83839 0.0
H1606 H 0.46685 0.018 0.8288 0.0
H1607 H 0.66755 0.24709 0.72691 0.0
H1608 H 0.26618 0.41157 0.33365 0.0
H1609 H 0.23128 0.40188 0.29257 0.0
H1610 H 0.20202 0.32066 0.30717 0.0
H1611 H 0.2373 0.33034 0.34836 0.0
H1612 H 0.20987 0.33371 0.23808 0.0
H1613 H 0.16558 0.34647 0.33219 0.0
H1614 H 0.15932 0.36728 0.38451 0.0
H1615 H 0.17896 0.43475 0.32299 0.0
H1616 H 0.18573 0.41453 0.2704 0.0
H1617 H 0.10336 0.32539 0.12554 0.0
H1618 H 0.12986 0.31769 0.16765 0.0
H1619 H 0.1865 0.39836 0.16589 0.0
H1620 H 0.16038 0.4062 0.1239 0.0
H1621 H 0.15671 0.3755 0.2325 0.0
H1622 H 0.2055 0.36295 0.14015 0.0
H1623 H 0.21183 0.34127 0.08895 0.0
H1624 H 0.18215 0.27137 0.14883 0.0
H1625 H 0.17515 0.29249 0.20022 0.0
C1626 C 0.2518 0.39164 0.3291 0.0
C1627 C 0.25441 0.37172 0.34421 0.0
C1628 C 0.23183 0.38609 0.30559 0.0
C1629 C 0.21404 0.36052 0.29678 0.0
C1630 C 0.21557 0.3405 0.31365 0.0
C1631 C 0.23552 0.34606 0.33749 0.0
C1632 C 0.196 0.3553 0.26704 0.0
C1633 C 0.19769 0.34226 0.23714 0.0
C1634 C 0.18033 0.36665 0.26575 0.0
C1635 C 0.17627 0.37898 0.29733 0.0
C1636 C 0.16875 0.36582 0.32985 0.0
C1637 C 0.16507 0.3775 0.35956 0.0
C1638 C 0.16876 0.40233 0.35709 0.0
C1639 C 0.1761 0.41551 0.32487 0.0
C1640 C 0.17981 0.40392 0.29507 0.0
C1641 C 0.12208 0.34125 0.1327 0.0
C1642 C 0.12964 0.36649 0.12191 0.0
C1643 C 0.13711 0.33682 0.15692 0.0
C1644 C 0.15986 0.35754 0.17018 0.0
C1645 C 0.16889 0.38216 0.15604 0.0
C1646 C 0.15398 0.3866 0.13196 0.0
C1647 C 0.17153 0.35496 0.20322 0.0
C1648 C 0.16844 0.36645 0.23377 0.0
C1649 C 0.18566 0.34199 0.20507 0.0
C1650 C 0.1893 0.32918 0.17383 0.0
C1651 C 0.19987 0.34283 0.14223 0.0
C1652 C 0.2037 0.33067 0.11321 0.0
C1653 C 0.19726 0.30492 0.11556 0.0
C1654 C 0.18702 0.29128 0.14698 0.0
C1655 C 0.1831 0.30333 0.17605 0.0
H1656 H 0.20031 0.29556 0.0931 0.0
H1657 H 0.16591 0.41134 0.38012 0.0
H1658 H 0.59637 0.85393 0.34012 0.0
H1659 H 0.6027 0.82628 0.29921 0.0
H1660 H 0.68449 0.86972 0.31768 0.0
H1661 H 0.67819 0.89774 0.3589 0.0
H1662 H 0.67291 0.86639 0.24735 0.0
H1663 H 0.65167 0.80744 0.34186 0.0
H1664 H 0.62769 0.7815 0.39362 0.0
H1665 H 0.56 0.74007 0.32974 0.0
H1666 H 0.58343 0.76601 0.27768 0.0
H1667 H 0.67174 0.76558 0.13162 0.0
H1668 H 0.68141 0.79932 0.17566 0.0
H1669 H 0.60173 0.77914 0.1761 0.0
H1670 H 0.59199 0.74567 0.13233 0.0
H1671 H 0.62166 0.77129 0.24152 0.0
H1672 H 0.64227 0.83482 0.1494 0.0
H1673 H 0.66642 0.86158 0.09832 0.0
H1674 H 0.73628 0.89448 0.15871 0.0
H1675 H 0.71261 0.86754 0.21002 0.0
C1676 C 0.61563 0.8571 0.33639 0.0
C1677 C 0.63678 0.87797 0.35266 0.0
C1678 C 0.61924 0.84126 0.31298 0.0
C1679 C 0.64408 0.84594 0.30535 0.0
C1680 C 0.66517 0.8658 0.32323 0.0
C1681 C 0.66152 0.88159 0.34705 0.0
C1682 C 0.64771 0.83167 0.27598 0.0
C1683 C 0.66226 0.84555 0.24638 0.0
C1684 C 0.63358 0.80453 0.2746 0.0
C1685 C 0.61933 0.78879 0.30585 0.0
C1686 C 0.63162 0.79293 0.33888 0.0
C1687 C 0.61812 0.77819 0.36828 0.0
C1688 C 0.59233 0.75917 0.36498 0.0
C1689 C 0.57998 0.75481 0.33225 0.0
C1690 C 0.59338 0.7695 0.30277 0.0
C1691 C 0.65656 0.76918 0.13987 0.0
C1692 C 0.63104 0.75281 0.12893 0.0
C1693 C 0.66209 0.78834 0.1652 0.0
C1694 C 0.64217 0.79134 0.17948 0.0
C1695 C 0.6173 0.77692 0.16558 0.0
C1696 C 0.61179 0.75789 0.14044 0.0
C1697 C 0.64588 0.80604 0.21251 0.0
C1698 C 0.63278 0.79211 0.24282 0.0
C1699 C 0.66143 0.83305 0.21448 0.0
C1700 C 0.67573 0.84881 0.18337 0.0
C1701 C 0.66285 0.84744 0.15164 0.0
C1702 C 0.67644 0.86272 0.12267 0.0
C1703 C 0.7029 0.8796 0.12519 0.0
C1704 C 0.71581 0.88128 0.15673 0.0
C1705 C 0.70231 0.86602 0.18576 0.0
H1706 H 0.71337 0.89147 0.10278 0.0
H1707 H 0.58192 0.74778 0.38777 0.0
H1708 H 0.2695 0.86142 0.14841 0.0
H1709 H 0.23594 0.83085 0.1878 0.0
H1710 H 0.19856 0.87621 0.18467 0.0
H1711 H 0.23225 0.90702 0.14506 0.0
H1712 H 0.20818 0.86707 0.25243 0.0
H1713 H 0.16878 0.8171 0.14938 0.0
H1714 H 0.16642 0.79535 0.09297 0.0
H1715 H 0.18963 0.74695 0.14579 0.0
H1716 H 0.19251 0.76867 0.20245 0.0
H1717 H 0.10269 0.76937 0.35689 0.0
H1718 H 0.13214 0.80384 0.31708 0.0
H1719 H 0.17595 0.76544 0.30292 0.0
H1720 H 0.14649 0.73093 0.34208 0.0
H1721 H 0.15853 0.77218 0.24122 0.0
H1722 H 0.2012 0.8239 0.3431 0.0
H1723 H 0.20547 0.84657 0.39932 0.0
H1724 H 0.17779 0.89217 0.34908 0.0
H1725 H 0.17294 0.86947 0.29265 0.0
C1726 C 0.2537 0.86446 0.15518 0.0
C1727 C 0.25348 0.88659 0.14362 0.0
C1728 C 0.23453 0.84698 0.17774 0.0
C1729 C 0.21478 0.85129 0.18923 0.0
C1730 C 0.21365 0.87256 0.1761 0.0
C1731 C 0.23274 0.88998 0.15315 0.0
C1732 C 0.19699 0.83485 0.21747 0.0
C1733 C 0.19689 0.84634 0.24984 0.0
C1734 C 0.18274 0.80781 0.21422 0.0
C1735 C 0.18103 0.79466 0.18016 0.0
C1736 C 0.17358 0.80196 0.14893 0.0
C1737 C 0.17211 0.78961 0.11691 0.0
C1738 C 0.17791 0.76981 0.11578 0.0
C1739 C 0.18515 0.7623 0.1467 0.0
C1740 C 0.18667 0.7746 0.17879 0.0
C1741 C 0.1192 0.76884 0.34641 0.0
C1742 C 0.12218 0.74736 0.35228 0.0
C1743 C 0.13595 0.78849 0.3235 0.0
C1744 C 0.15602 0.78701 0.30661 0.0
C1745 C 0.1604 0.76681 0.3153 0.0
C1746 C 0.14364 0.74718 0.33787 0.0
C1747 C 0.17037 0.80431 0.27667 0.0
C1748 C 0.16967 0.79293 0.24384 0.0
C1749 C 0.18395 0.83141 0.27964 0.0
C1750 C 0.18631 0.84468 0.31376 0.0
C1751 C 0.19567 0.8385 0.34414 0.0
C1752 C 0.19829 0.85143 0.37602 0.0
C1753 C 0.1918 0.87072 0.37781 0.0
C1754 C 0.18273 0.87716 0.34769 0.0
C1755 C 0.18004 0.86427 0.31575 0.0
H1756 H 0.19389 0.88074 0.4025 0.0
H1757 H 0.17676 0.76027 0.09097 0.0
H1758 H 0.85673 0.58891 0.85226 0.0
H1759 H 0.83253 0.59633 0.80665 0.0
H1760 H 0.88171 0.67818 0.81834 0.0
H1761 H 0.90656 0.67096 0.86378 0.0
H1762 H 0.82172 0.65356 0.79811 0.0
H1763 H 0.9034 0.66306 0.76505 0.0
H1764 H 0.93713 0.65119 0.76446 0.0
H1765 H 0.88451 0.57851 0.71714 0.0
H1766 H 0.85032 0.58987 0.71795 0.0
H1767 H 0.78384 0.66661 0.62735 0.0
H1768 H 0.81832 0.67532 0.66937 0.0
H1769 H 0.79019 0.59399 0.67869 0.0
H1770 H 0.75531 0.58519 0.63756 0.0
H1771 H 0.84615 0.62729 0.68648 0.0
H1772 H 0.76379 0.6141 0.72964 0.0
H1773 H 0.72852 0.6239 0.73005 0.0
H1774 H 0.78174 0.70214 0.7585 0.0
H1775 H 0.81744 0.69288 0.7576 0.0
C1776 C 0.86178 0.60853 0.84629 0.0
C1777 C 0.88389 0.62934 0.86105 0.0
C1778 C 0.84795 0.61271 0.82015 0.0
C1779 C 0.85579 0.63775 0.80872 0.0
C1780 C 0.87554 0.65871 0.82683 0.0
C1781 C 0.88961 0.65453 0.85294 0.0
C1782 C 0.84634 0.64129 0.77429 0.0
C1783 C 0.82753 0.64852 0.77357 0.0
C1784 C 0.85372 0.63425 0.74244 0.0
C1785 C 0.87423 0.62729 0.7418 0.0
C1786 C 0.89894 0.64446 0.75481 0.0
C1787 C 0.91817 0.63785 0.75436 0.0
C1788 C 0.91298 0.6141 0.74075 0.0
C1789 C 0.88852 0.59693 0.72759 0.0
C1790 C 0.86921 0.60347 0.72802 0.0
C1791 C 0.78586 0.6507 0.63689 0.0
C1792 C 0.76696 0.62523 0.62939 0.0
C1793 C 0.80542 0.6557 0.66111 0.0
C1794 C 0.80648 0.63526 0.67742 0.0
C1795 C 0.78965 0.60999 0.66633 0.0
C1796 C 0.7698 0.60498 0.64275 0.0
C1797 C 0.82145 0.63946 0.71028 0.0
C1798 C 0.84102 0.63326 0.71081 0.0
C1799 C 0.81476 0.64741 0.74193 0.0
C1800 C 0.7933 0.65289 0.74314 0.0
C1801 C 0.768 0.63344 0.7357 0.0
C1802 C 0.74793 0.63888 0.73606 0.0
C1803 C 0.75292 0.66363 0.74425 0.0
C1804 C 0.77795 0.68299 0.75213 0.0
C1805 C 0.7981 0.67766 0.75168 0.0
H1806 H 0.73739 0.6678 0.74461 0.0
H1807 H 0.92787 0.60898 0.74044 0.0
H1808 H 0.34496 0.10225 0.63319 0.0
H1809 H 0.33727 0.13331 0.66609 0.0
H1810 H 0.37454 0.12389 0.75781 0.0
H1811 H 0.38244 0.0937 0.72579 0.0
H1812 H 0.32958 0.12297 0.77517 0.0
H1813 H 0.40756 0.17329 0.70531 0.0
H1814 H 0.43175 0.18809 0.64926 0.0
H1815 H 0.38159 0.21523 0.61393 0.0
H1816 H 0.3569 0.20027 0.66967 0.0
H1817 H 0.40714 0.26483 0.83889 0.0
H1818 H 0.39981 0.22846 0.80199 0.0
H1819 H 0.318 0.19401 0.81792 0.0
H1820 H 0.32533 0.23015 0.85589 0.0
H1821 H 0.37642 0.21495 0.74071 0.0
H1822 H 0.29001 0.12838 0.80524 0.0
H1823 H 0.26961 0.11373 0.86385 0.0
H1824 H 0.34267 0.15973 0.91454 0.0
H1825 H 0.36353 0.1744 0.85623 0.0
C1826 C 0.35148 0.1069 0.66034 0.0
C1827 C 0.36458 0.09572 0.67664 0.0
C1828 C 0.347 0.12451 0.6791 0.0
C1829 C 0.35522 0.13073 0.71446 0.0
C1830 C 0.36783 0.11921 0.73071 0.0
C1831 C 0.37259 0.10211 0.71206 0.0
C1832 C 0.35238 0.15026 0.73478 0.0
C1833 C 0.3394 0.14306 0.7674 0.0
C1834 C 0.36542 0.17642 0.72481 0.0
C1835 C 0.38019 0.18535 0.69136 0.0
C1836 C 0.40156 0.1822 0.68543 0.0
C1837 C 0.41538 0.19065 0.65377 0.0
C1838 C 0.40814 0.2025 0.62799 0.0
C1839 C 0.38712 0.20598 0.63387 0.0
C1840 C 0.3732 0.19751 0.66548 0.0
C1841 C 0.38761 0.24924 0.83518 0.0
C1842 C 0.36682 0.25032 0.85037 0.0
C1843 C 0.38342 0.22858 0.81379 0.0
C1844 C 0.35835 0.20859 0.80685 0.0
C1845 C 0.33754 0.20909 0.82307 0.0
C1846 C 0.34176 0.22969 0.84494 0.0
C1847 C 0.35436 0.18782 0.7818 0.0
C1848 C 0.36593 0.19481 0.74819 0.0
C1849 C 0.34044 0.1615 0.79121 0.0
C1850 C 0.32822 0.15273 0.82642 0.0
C1851 C 0.3017 0.13533 0.82891 0.0
C1852 C 0.29007 0.12702 0.86207 0.0
C1853 C 0.30482 0.13588 0.8929 0.0
C1854 C 0.33125 0.15298 0.89064 0.0
C1855 C 0.34298 0.16132 0.85755 0.0
H1856 H 0.29578 0.12944 0.91855 0.0
H1857 H 0.41888 0.20905 0.6035 0.0
H1858 H 0.83232 0.24945 0.65194 0.0
H1859 H 0.8103 0.21604 0.69644 0.0
H1860 H 0.86566 0.19108 0.68174 0.0
H1861 H 0.8878 0.22457 0.63695 0.0
H1862 H 0.78889 0.16427 0.70769 0.0
H1863 H 0.88582 0.18702 0.76703 0.0
H1864 H 0.93167 0.22023 0.76255 0.0
H1865 H 0.91077 0.27708 0.73744 0.0
H1866 H 0.86484 0.2443 0.74222 0.0
H1867 H 0.77011 0.10076 0.87672 0.0
H1868 H 0.80371 0.12407 0.83249 0.0
H1869 H 0.78509 0.18463 0.83163 0.0
H1870 H 0.75147 0.16145 0.87546 0.0
H1871 H 0.84652 0.18666 0.81218 0.0
H1872 H 0.75299 0.16824 0.75507 0.0
H1873 H 0.70641 0.13869 0.76315 0.0
H1874 H 0.72047 0.07683 0.78645 0.0
H1875 H 0.76707 0.106 0.77823 0.0
C1876 C 0.8391 0.23608 0.65699 0.0
C1877 C 0.86189 0.23975 0.6413 0.0
C1878 C 0.82655 0.21703 0.68253 0.0
C1879 C 0.83676 0.20155 0.69299 0.0
C1880 C 0.85771 0.20311 0.67432 0.0
C1881 C 0.87017 0.22207 0.64844 0.0
C1882 C 0.82778 0.18698 0.72661 0.0
C1883 C 0.80162 0.16885 0.73027 0.0
C1884 C 0.84436 0.19307 0.75628 0.0
C1885 C 0.87192 0.21312 0.75451 0.0
C1886 C 0.89103 0.20663 0.7607 0.0
C1887 C 0.91703 0.22538 0.75811 0.0
C1888 C 0.92412 0.25073 0.74963 0.0
C1889 C 0.90524 0.25742 0.74392 0.0
C1890 C 0.87923 0.23877 0.74654 0.0
C1891 C 0.77429 0.11981 0.86882 0.0
C1892 C 0.75797 0.12918 0.87904 0.0
C1893 C 0.79346 0.13306 0.84341 0.0
C1894 C 0.79649 0.15579 0.82851 0.0
C1895 C 0.78295 0.16707 0.84287 0.0
C1896 C 0.76376 0.15382 0.86797 0.0
C1897 C 0.80781 0.16401 0.79287 0.0
C1898 C 0.83417 0.18124 0.78907 0.0
C1899 C 0.79148 0.15725 0.763 0.0
C1900 C 0.76344 0.13928 0.76611 0.0
C1901 C 0.74608 0.14827 0.7616 0.0
C1902 C 0.71971 0.13163 0.76631 0.0
C1903 C 0.7105 0.10591 0.77531 0.0
C1904 C 0.72763 0.09676 0.77951 0.0
C1905 C 0.75401 0.11334 0.77486 0.0
H1906 H 0.69009 0.09307 0.77896 0.0
H1907 H 0.94423 0.2652 0.74752 0.0
loop_
_geom_bond_atom_site_label_1
_geom_bond_atom_site_label_2
_geom_bond_distance
_geom_bond_site_symmetry_2
_ccdc_geom_bond_type
Co0 O3 1.970 . S
Co0 N17 1.989 . S
Co0 O25 1.967 . S
Co0 O32 1.920 . S
Co1 O4 1.966 . S
Co1 N10 2.022 . S
Co1 N18 1.993 . S
Co1 O26 1.941 . S
C2 O3 1.258 . S
C2 O4 1.263 . S
O3 Co0 1.970 . S
O3 C2 1.258 . S
O4 Co1 1.966 . S
O4 C2 1.263 . S
C5 O6 1.235 . S
C5 O32 1.289 . S
O6 C5 1.235 . S
C7 C9 1.400 . S
C7 N10 1.351 . S
C7 C12 1.501 . S
C8 C9 1.387 . S
C8 N11 1.341 . S
C9 C7 1.400 . S
C9 C8 1.387 . S
N10 Co1 2.022 . S
N10 C7 1.351 . S
N10 N11 1.365 . S
N11 C8 1.341 . S
N11 N10 1.365 . S
N11 H31 0.862 . S
C12 C7 1.501 . S
C12 H13 0.961 . S
C12 H14 0.961 . S
C12 H15 0.960 . S
H13 C12 0.961 . S
H14 C12 0.961 . S
H15 C12 0.960 . S
C16 N17 1.342 . S
C16 C20 1.401 . S
C16 C21 1.499 . S
N17 Co0 1.989 . S
N17 C16 1.342 . S
N17 N18 1.388 . S
N18 Co1 1.993 . S
N18 N17 1.388 . S
N18 C19 1.346 . S
C19 N18 1.346 . S
C19 C20 1.396 . S
C19 C29 1.510 . S
C20 C16 1.401 . S
C20 C19 1.396 . S
C21 C16 1.499 . S
C21 H22 0.959 . S
C21 H23 0.960 . S
C21 H24 0.961 . S
H22 C21 0.959 . S
H23 C21 0.960 . S
H24 C21 0.961 . S
O25 Co0 1.967 . S
O25 C33 1.258 . S
O26 Co1 1.941 . S
O26 C33 1.266 . S
H27 C29 0.959 . S
H28 C29 0.961 . S
C29 C19 1.510 . S
C29 H27 0.959 . S
C29 H28 0.961 . S
C29 H30 0.960 . S
H30 C29 0.960 . S
H31 N11 0.862 . S
O32 Co0 1.920 . S
O32 C5 1.289 . S
C33 O25 1.258 . S
C33 O26 1.266 . S
Co34 O37 1.970 . S
Co34 N51 1.989 . S
Co34 O59 1.967 . S
Co34 O66 1.920 . S
Co35 O38 1.966 . S
Co35 N44 2.022 . S
Co35 N52 1.993 . S
Co35 O60 1.941 . S
C36 O37 1.258 . S
C36 O38 1.263 . S
O37 Co34 1.970 . S
O37 C36 1.258 . S
O38 Co35 1.966 . S
O38 C36 1.263 . S
C39 O40 1.235 . S
C39 O66 1.289 . S
O40 C39 1.235 . S
C41 C43 1.400 . S
C41 N44 1.351 . S
C41 C46 1.501 . S
C42 C43 1.387 . S
C42 N45 1.341 . S
C43 C41 1.400 . S
C43 C42 1.387 . S
N44 Co35 2.022 . S
N44 C41 1.351 . S
N44 N45 1.365 . S
N45 C42 1.341 . S
N45 N44 1.365 . S
N45 H65 0.862 . S
C46 C41 1.501 . S
C46 H47 0.961 . S
C46 H48 0.961 . S
C46 H49 0.960 . S
H47 C46 0.961 . S
H48 C46 0.961 . S
H49 C46 0.960 . S
C50 N51 1.342 . S
C50 C54 1.401 . S
C50 C55 1.499 . S
N51 Co34 1.989 . S
N51 C50 1.342 . S
N51 N52 1.388 . S
N52 Co35 1.993 . S
N52 N51 1.388 . S
N52 C53 1.346 . S
C53 N52 1.346 . S
C53 C54 1.396 . S
C53 C63 1.510 . S
C54 C50 1.401 . S
C54 C53 1.396 . S
C55 C50 1.499 . S
C55 H56 0.959 . S
C55 H57 0.960 . S
C55 H58 0.961 . S
H56 C55 0.959 . S
H57 C55 0.960 . S
H58 C55 0.961 . S
O59 Co34 1.967 . S
O59 C67 1.258 . S
O60 Co35 1.941 . S
O60 C67 1.266 . S
H61 C63 0.959 . S
H62 C63 0.961 . S
C63 C53 1.510 . S
C63 H61 0.959 . S
C63 H62 0.961 . S
C63 H64 0.960 . S
H64 C63 0.960 . S
H65 N45 0.862 . S
O66 Co34 1.920 . S
O66 C39 1.289 . S
C67 O59 1.258 . S
C67 O60 1.266 . S
Co68 O71 1.970 . S
Co68 N85 1.989 . S
Co68 O93 1.967 . S
Co68 O100 1.920 . S
Co69 O72 1.966 . S
Co69 N78 2.022 . S
Co69 N86 1.993 . S
Co69 O94 1.941 . S
C70 O71 1.258 . S
C70 O72 1.263 . S
O71 Co68 1.970 . S
O71 C70 1.258 . S
O72 Co69 1.966 . S
O72 C70 1.263 . S
C73 O74 1.235 . S
C73 O100 1.289 . S
O74 C73 1.235 . S
C75 C77 1.400 . S
C75 N78 1.351 . S
C75 C80 1.501 . S
C76 C77 1.387 . S
C76 N79 1.341 . S
C77 C75 1.400 . S
C77 C76 1.387 . S
N78 Co69 2.022 . S
N78 C75 1.351 . S
N78 N79 1.365 . S
N79 C76 1.341 . S
N79 N78 1.365 . S
N79 H99 0.862 . S
C80 C75 1.501 . S
C80 H81 0.961 . S
C80 H82 0.961 . S
C80 H83 0.960 . S
H81 C80 0.961 . S
H82 C80 0.961 . S
H83 C80 0.960 . S
C84 N85 1.342 . S
C84 C88 1.401 . S
C84 C89 1.499 . S
N85 Co68 1.989 . S
N85 C84 1.342 . S
N85 N86 1.388 . S
N86 Co69 1.993 . S
N86 N85 1.388 . S
N86 C87 1.346 . S
C87 N86 1.346 . S
C87 C88 1.396 . S
C87 C97 1.510 . S
C88 C84 1.401 . S
C88 C87 1.396 . S
C89 C84 1.499 . S
C89 H90 0.959 . S
C89 H91 0.960 . S
C89 H92 0.961 . S
H90 C89 0.959 . S
H91 C89 0.960 . S
H92 C89 0.961 . S
O93 Co68 1.967 . S
O93 C101 1.258 . S
O94 Co69 1.941 . S
O94 C101 1.266 . S
H95 C97 0.959 . S
H96 C97 0.961 . S
C97 C87 1.510 . S
C97 H95 0.959 . S
C97 H96 0.961 . S
C97 H98 0.960 . S
H98 C97 0.960 . S
H99 N79 0.862 . S
O100 Co68 1.920 . S
O100 C73 1.289 . S
C101 O93 1.258 . S
C101 O94 1.266 . S
Co102 O105 1.970 . S
Co102 N119 1.989 . S
Co102 O127 1.967 . S
Co102 O134 1.920 . S
Co103 O106 1.966 . S
Co103 N112 2.022 . S
Co103 N120 1.993 . S
Co103 O128 1.941 . S
C104 O105 1.258 . S
C104 O106 1.263 . S
O105 Co102 1.970 . S
O105 C104 1.258 . S
O106 Co103 1.966 . S
O106 C104 1.263 . S
C107 O108 1.235 . S
C107 O134 1.289 . S
O108 C107 1.235 . S
C109 C111 1.400 . S
C109 N112 1.351 . S
C109 C114 1.501 . S
C110 C111 1.387 . S
C110 N113 1.341 . S
C111 C109 1.400 . S
C111 C110 1.387 . S
N112 Co103 2.022 . S
N112 C109 1.351 . S
N112 N113 1.365 . S
N113 C110 1.341 . S
N113 N112 1.365 . S
N113 H133 0.862 . S
C114 C109 1.501 . S
C114 H115 0.961 . S
C114 H116 0.961 . S
C114 H117 0.960 . S
H115 C114 0.961 . S
H116 C114 0.961 . S
H117 C114 0.960 . S
C118 N119 1.342 . S
C118 C122 1.401 . S
C118 C123 1.499 . S
N119 Co102 1.989 . S
N119 C118 1.342 . S
N119 N120 1.388 . S
N120 Co103 1.993 . S
N120 N119 1.388 . S
N120 C121 1.346 . S
C121 N120 1.346 . S
C121 C122 1.396 . S
C121 C131 1.510 . S
C122 C118 1.401 . S
C122 C121 1.396 . S
C123 C118 1.499 . S
C123 H124 0.959 . S
C123 H125 0.960 . S
C123 H126 0.961 . S
H124 C123 0.959 . S
H125 C123 0.960 . S
H126 C123 0.961 . S
O127 Co102 1.967 . S
O127 C135 1.258 . S
O128 Co103 1.941 . S
O128 C135 1.266 . S
H129 C131 0.959 . S
H130 C131 0.961 . S
C131 C121 1.510 . S
C131 H129 0.959 . S
C131 H130 0.961 . S
C131 H132 0.960 . S
H132 C131 0.960 . S
H133 N113 0.862 . S
O134 Co102 1.920 . S
O134 C107 1.289 . S
C135 O127 1.258 . S
C135 O128 1.266 . S
Co136 O139 1.970 . S
Co136 N153 1.989 . S
Co136 O161 1.967 . S
Co136 O168 1.920 . S
Co137 O140 1.966 . S
Co137 N146 2.022 . S
Co137 N154 1.993 . S
Co137 O162 1.941 . S
C138 O139 1.258 . S
C138 O140 1.263 . S
O139 Co136 1.970 . S
O139 C138 1.258 . S
O140 Co137 1.966 . S
O140 C138 1.263 . S
C141 O142 1.235 . S
C141 O168 1.289 . S
O142 C141 1.235 . S
C143 C145 1.400 . S
C143 N146 1.351 . S
C143 C148 1.501 . S
C144 C145 1.387 . S
C144 N147 1.341 . S
C145 C143 1.400 . S
C145 C144 1.387 . S
N146 Co137 2.022 . S
N146 C143 1.351 . S
N146 N147 1.365 . S
N147 C144 1.341 . S
N147 N146 1.365 . S
N147 H167 0.862 . S
C148 C143 1.501 . S
C148 H149 0.961 . S
C148 H150 0.961 . S
C148 H151 0.960 . S
H149 C148 0.961 . S
H150 C148 0.961 . S
H151 C148 0.960 . S
C152 N153 1.342 . S
C152 C156 1.401 . S
C152 C157 1.499 . S
N153 Co136 1.989 . S
N153 C152 1.342 . S
N153 N154 1.388 . S
N154 Co137 1.993 . S
N154 N153 1.388 . S
N154 C155 1.346 . S
C155 N154 1.346 . S
C155 C156 1.396 . S
C155 C165 1.510 . S
C156 C152 1.401 . S
C156 C155 1.396 . S
C157 C152 1.499 . S
C157 H158 0.959 . S
C157 H159 0.960 . S
C157 H160 0.961 . S
H158 C157 0.959 . S
H159 C157 0.960 . S
H160 C157 0.961 . S
O161 Co136 1.967 . S
O161 C169 1.258 . S
O162 Co137 1.941 . S
O162 C169 1.266 . S
H163 C165 0.959 . S
H164 C165 0.961 . S
C165 C155 1.510 . S
C165 H163 0.959 . S
C165 H164 0.961 . S
C165 H166 0.960 . S
H166 C165 0.960 . S
H167 N147 0.862 . S
O168 Co136 1.920 . S
O168 C141 1.289 . S
C169 O161 1.258 . S
C169 O162 1.266 . S
Co170 O173 1.970 . S
Co170 N187 1.989 . S
Co170 O195 1.967 . S
Co170 O202 1.920 . S
Co171 O174 1.966 . S
Co171 N180 2.022 . S
Co171 N188 1.993 . S
Co171 O196 1.941 . S
C172 O173 1.258 . S
C172 O174 1.263 . S
O173 Co170 1.970 . S
O173 C172 1.258 . S
O174 Co171 1.966 . S
O174 C172 1.263 . S
C175 O176 1.235 . S
C175 O202 1.289 . S
O176 C175 1.235 . S
C177 C179 1.400 . S
C177 N180 1.351 . S
C177 C182 1.501 . S
C178 C179 1.387 . S
C178 N181 1.341 . S
C179 C177 1.400 . S
C179 C178 1.387 . S
N180 Co171 2.022 . S
N180 C177 1.351 . S
N180 N181 1.365 . S
N181 C178 1.341 . S
N181 N180 1.365 . S
N181 H201 0.862 . S
C182 C177 1.501 . S
C182 H183 0.961 . S
C182 H184 0.961 . S
C182 H185 0.960 . S
H183 C182 0.961 . S
H184 C182 0.961 . S
H185 C182 0.960 . S
C186 N187 1.342 . S
C186 C190 1.401 . S
C186 C191 1.499 . S
N187 Co170 1.989 . S
N187 C186 1.342 . S
N187 N188 1.388 . S
N188 Co171 1.993 . S
N188 N187 1.388 . S
N188 C189 1.346 . S
C189 N188 1.346 . S
C189 C190 1.396 . S
C189 C199 1.510 . S
C190 C186 1.401 . S
C190 C189 1.396 . S
C191 C186 1.499 . S
C191 H192 0.959 . S
C191 H193 0.960 . S
C191 H194 0.961 . S
H192 C191 0.959 . S
H193 C191 0.960 . S
H194 C191 0.961 . S
O195 Co170 1.967 . S
O195 C203 1.258 . S
O196 Co171 1.941 . S
O196 C203 1.266 . S
H197 C199 0.959 . S
H198 C199 0.961 . S
C199 C189 1.510 . S
C199 H197 0.959 . S
C199 H198 0.961 . S
C199 H200 0.960 . S
H200 C199 0.960 . S
H201 N181 0.862 . S
O202 Co170 1.920 . S
O202 C175 1.289 . S
C203 O195 1.258 . S
C203 O196 1.266 . S
Co204 O207 1.970 . S
Co204 N221 1.989 . S
Co204 O229 1.967 . S
Co204 O236 1.920 . S
Co205 O208 1.966 . S
Co205 N214 2.022 . S
Co205 N222 1.993 . S
Co205 O230 1.941 . S
C206 O207 1.258 . S
C206 O208 1.263 . S
O207 Co204 1.970 . S
O207 C206 1.258 . S
O208 Co205 1.966 . S
O208 C206 1.263 . S
C209 O210 1.235 . S
C209 O236 1.289 . S
O210 C209 1.235 . S
C211 C213 1.400 . S
C211 N214 1.351 . S
C211 C216 1.501 . S
C212 C213 1.387 . S
C212 N215 1.341 . S
C213 C211 1.400 . S
C213 C212 1.387 . S
N214 Co205 2.022 . S
N214 C211 1.351 . S
N214 N215 1.365 . S
N215 C212 1.341 . S
N215 N214 1.365 . S
N215 H235 0.862 . S
C216 C211 1.501 . S
C216 H217 0.961 . S
C216 H218 0.961 . S
C216 H219 0.960 . S
H217 C216 0.961 . S
H218 C216 0.961 . S
H219 C216 0.960 . S
C220 N221 1.342 . S
C220 C224 1.401 . S
C220 C225 1.499 . S
N221 Co204 1.989 . S
N221 C220 1.342 . S
N221 N222 1.388 . S
N222 Co205 1.993 . S
N222 N221 1.388 . S
N222 C223 1.346 . S
C223 N222 1.346 . S
C223 C224 1.396 . S
C223 C233 1.510 . S
C224 C220 1.401 . S
C224 C223 1.396 . S
C225 C220 1.499 . S
C225 H226 0.959 . S
C225 H227 0.960 . S
C225 H228 0.961 . S
H226 C225 0.959 . S
H227 C225 0.960 . S
H228 C225 0.961 . S
O229 Co204 1.967 . S
O229 C237 1.258 . S
O230 Co205 1.941 . S
O230 C237 1.266 . S
H231 C233 0.959 . S
H232 C233 0.961 . S
C233 C223 1.510 . S
C233 H231 0.959 . S
C233 H232 0.961 . S
C233 H234 0.960 . S
H234 C233 0.960 . S
H235 N215 0.862 . S
O236 Co204 1.920 . S
O236 C209 1.289 . S
C237 O229 1.258 . S
C237 O230 1.266 . S
Co238 O241 1.970 . S
Co238 N255 1.989 . S
Co238 O263 1.967 . S
Co238 O270 1.920 . S
Co239 O242 1.966 . S
Co239 N248 2.022 . S
Co239 N256 1.993 . S
Co239 O264 1.941 . S
C240 O241 1.258 . S
C240 O242 1.263 . S
O241 Co238 1.970 . S
O241 C240 1.258 . S
O242 Co239 1.966 . S
O242 C240 1.263 . S
C243 O244 1.235 . S
C243 O270 1.289 . S
O244 C243 1.235 . S
C245 C247 1.400 . S
C245 N248 1.351 . S
C245 C250 1.501 . S
C246 C247 1.387 . S
C246 N249 1.341 . S
C247 C245 1.400 . S
C247 C246 1.387 . S
N248 Co239 2.022 . S
N248 C245 1.351 . S
N248 N249 1.365 . S
N249 C246 1.341 . S
N249 N248 1.365 . S
N249 H269 0.862 . S
C250 C245 1.501 . S
C250 H251 0.961 . S
C250 H252 0.961 . S
C250 H253 0.960 . S
H251 C250 0.961 . S
H252 C250 0.961 . S
H253 C250 0.960 . S
C254 N255 1.342 . S
C254 C258 1.401 . S
C254 C259 1.499 . S
N255 Co238 1.989 . S
N255 C254 1.342 . S
N255 N256 1.388 . S
N256 Co239 1.993 . S
N256 N255 1.388 . S
N256 C257 1.346 . S
C257 N256 1.346 . S
C257 C258 1.396 . S
C257 C267 1.510 . S
C258 C254 1.401 . S
C258 C257 1.396 . S
C259 C254 1.499 . S
C259 H260 0.959 . S
C259 H261 0.960 . S
C259 H262 0.961 . S
H260 C259 0.959 . S
H261 C259 0.960 . S
H262 C259 0.961 . S
O263 Co238 1.967 . S
O263 C271 1.258 . S
O264 Co239 1.941 . S
O264 C271 1.266 . S
H265 C267 0.959 . S
H266 C267 0.961 . S
C267 C257 1.510 . S
C267 H265 0.959 . S
C267 H266 0.961 . S
C267 H268 0.960 . S
H268 C267 0.960 . S
H269 N249 0.862 . S
O270 Co238 1.920 . S
O270 C243 1.289 . S
C271 O263 1.258 . S
C271 O264 1.266 . S
Co272 O275 1.970 . S
Co272 N289 1.989 . S
Co272 O297 1.967 . S
Co272 O304 1.920 . S
Co273 O276 1.966 . S
Co273 N282 2.022 . S
Co273 N290 1.993 . S
Co273 O298 1.941 . S
C274 O275 1.258 . S
C274 O276 1.263 . S
O275 Co272 1.970 . S
O275 C274 1.258 . S
O276 Co273 1.966 . S
O276 C274 1.263 . S
C277 O278 1.235 . S
C277 O304 1.289 . S
O278 C277 1.235 . S
C279 C281 1.400 . S
C279 N282 1.351 . S
C279 C284 1.501 . S
C280 C281 1.387 . S
C280 N283 1.341 . S
C281 C279 1.400 . S
C281 C280 1.387 . S
N282 Co273 2.022 . S
N282 C279 1.351 . S
N282 N283 1.365 . S
N283 C280 1.341 . S
N283 N282 1.365 . S
N283 H303 0.862 . S
C284 C279 1.501 . S
C284 H285 0.961 . S
C284 H286 0.961 . S
C284 H287 0.960 . S
H285 C284 0.961 . S
H286 C284 0.961 . S
H287 C284 0.960 . S
C288 N289 1.342 . S
C288 C292 1.401 . S
C288 C293 1.499 . S
N289 Co272 1.989 . S
N289 C288 1.342 . S
N289 N290 1.388 . S
N290 Co273 1.993 . S
N290 N289 1.388 . S
N290 C291 1.346 . S
C291 N290 1.346 . S
C291 C292 1.396 . S
C291 C301 1.510 . S
C292 C288 1.401 . S
C292 C291 1.396 . S
C293 C288 1.499 . S
C293 H294 0.959 . S
C293 H295 0.960 . S
C293 H296 0.961 . S
H294 C293 0.959 . S
H295 C293 0.960 . S
H296 C293 0.961 . S
O297 Co272 1.967 . S
O297 C305 1.258 . S
O298 Co273 1.941 . S
O298 C305 1.266 . S
H299 C301 0.959 . S
H300 C301 0.961 . S
C301 C291 1.510 . S
C301 H299 0.959 . S
C301 H300 0.961 . S
C301 H302 0.960 . S
H302 C301 0.960 . S
H303 N283 0.862 . S
O304 Co272 1.920 . S
O304 C277 1.289 . S
C305 O297 1.258 . S
C305 O298 1.266 . S
Co306 O309 1.970 . S
Co306 N323 1.989 . S
Co306 O331 1.967 . S
Co306 O338 1.920 . S
Co307 O310 1.966 . S
Co307 N316 2.022 . S
Co307 N324 1.993 . S
Co307 O332 1.941 . S
C308 O309 1.258 . S
C308 O310 1.263 . S
O309 Co306 1.970 . S
O309 C308 1.258 . S
O310 Co307 1.966 . S
O310 C308 1.263 . S
C311 O312 1.235 . S
C311 O338 1.289 . S
O312 C311 1.235 . S
C313 C315 1.400 . S
C313 N316 1.351 . S
C313 C318 1.501 . S
C314 C315 1.387 . S
C314 N317 1.341 . S
C315 C313 1.400 . S
C315 C314 1.387 . S
N316 Co307 2.022 . S
N316 C313 1.351 . S
N316 N317 1.365 . S
N317 C314 1.341 . S
N317 N316 1.365 . S
N317 H337 0.862 . S
C318 C313 1.501 . S
C318 H319 0.961 . S
C318 H320 0.961 . S
C318 H321 0.960 . S
H319 C318 0.961 . S
H320 C318 0.961 . S
H321 C318 0.960 . S
C322 N323 1.342 . S
C322 C326 1.401 . S
C322 C327 1.499 . S
N323 Co306 1.989 . S
N323 C322 1.342 . S
N323 N324 1.388 . S
N324 Co307 1.993 . S
N324 N323 1.388 . S
N324 C325 1.346 . S
C325 N324 1.346 . S
C325 C326 1.396 . S
C325 C335 1.510 . S
C326 C322 1.401 . S
C326 C325 1.396 . S
C327 C322 1.499 . S
C327 H328 0.959 . S
C327 H329 0.960 . S
C327 H330 0.961 . S
H328 C327 0.959 . S
H329 C327 0.960 . S
H330 C327 0.961 . S
O331 Co306 1.967 . S
O331 C339 1.258 . S
O332 Co307 1.941 . S
O332 C339 1.266 . S
H333 C335 0.959 . S
H334 C335 0.961 . S
C335 C325 1.510 . S
C335 H333 0.959 . S
C335 H334 0.961 . S
C335 H336 0.960 . S
H336 C335 0.960 . S
H337 N317 0.862 . S
O338 Co306 1.920 . S
O338 C311 1.289 . S
C339 O331 1.258 . S
C339 O332 1.266 . S
Co340 O343 1.970 . S
Co340 N357 1.989 . S
Co340 O365 1.967 . S
Co340 O372 1.920 . S
Co341 O344 1.966 . S
Co341 N350 2.022 . S
Co341 N358 1.993 . S
Co341 O366 1.941 . S
C342 O343 1.258 . S
C342 O344 1.263 . S
O343 Co340 1.970 . S
O343 C342 1.258 . S
O344 Co341 1.966 . S
O344 C342 1.263 . S
C345 O346 1.235 . S
C345 O372 1.289 . S
O346 C345 1.235 . S
C347 C349 1.400 . S
C347 N350 1.351 . S
C347 C352 1.501 . S
C348 C349 1.387 . S
C348 N351 1.341 . S
C349 C347 1.400 . S
C349 C348 1.387 . S
N350 Co341 2.022 . S
N350 C347 1.351 . S
N350 N351 1.365 . S
N351 C348 1.341 . S
N351 N350 1.365 . S
N351 H371 0.862 . S
C352 C347 1.501 . S
C352 H353 0.961 . S
C352 H354 0.961 . S
C352 H355 0.960 . S
H353 C352 0.961 . S
H354 C352 0.961 . S
H355 C352 0.960 . S
C356 N357 1.342 . S
C356 C360 1.401 . S
C356 C361 1.499 . S
N357 Co340 1.989 . S
N357 C356 1.342 . S
N357 N358 1.388 . S
N358 Co341 1.993 . S
N358 N357 1.388 . S
N358 C359 1.346 . S
C359 N358 1.346 . S
C359 C360 1.396 . S
C359 C369 1.510 . S
C360 C356 1.401 . S
C360 C359 1.396 . S
C361 C356 1.499 . S
C361 H362 0.959 . S
C361 H363 0.960 . S
C361 H364 0.961 . S
H362 C361 0.959 . S
H363 C361 0.960 . S
H364 C361 0.961 . S
O365 Co340 1.967 . S
O365 C373 1.258 . S
O366 Co341 1.941 . S
O366 C373 1.266 . S
H367 C369 0.959 . S
H368 C369 0.961 . S
C369 C359 1.510 . S
C369 H367 0.959 . S
C369 H368 0.961 . S
C369 H370 0.960 . S
H370 C369 0.960 . S
H371 N351 0.862 . S
O372 Co340 1.920 . S
O372 C345 1.289 . S
C373 O365 1.258 . S
C373 O366 1.266 . S
Co374 O377 1.970 . S
Co374 N391 1.989 . S
Co374 O399 1.967 . S
Co374 O406 1.920 . S
Co375 O378 1.966 . S
Co375 N384 2.022 . S
Co375 N392 1.993 . S
Co375 O400 1.941 . S
C376 O377 1.258 . S
C376 O378 1.263 . S
O377 Co374 1.970 . S
O377 C376 1.258 . S
O378 Co375 1.966 . S
O378 C376 1.263 . S
C379 O380 1.235 . S
C379 O406 1.289 . S
O380 C379 1.235 . S
C381 C383 1.400 . S
C381 N384 1.351 . S
C381 C386 1.501 . S
C382 C383 1.387 . S
C382 N385 1.341 . S
C383 C381 1.400 . S
C383 C382 1.387 . S
N384 Co375 2.022 . S
N384 C381 1.351 . S
N384 N385 1.365 . S
N385 C382 1.341 . S
N385 N384 1.365 . S
N385 H405 0.862 . S
C386 C381 1.501 . S
C386 H387 0.961 . S
C386 H388 0.961 . S
C386 H389 0.960 . S
H387 C386 0.961 . S
H388 C386 0.961 . S
H389 C386 0.960 . S
C390 N391 1.342 . S
C390 C394 1.401 . S
C390 C395 1.499 . S
N391 Co374 1.989 . S
N391 C390 1.342 . S
N391 N392 1.388 . S
N392 Co375 1.993 . S
N392 N391 1.388 . S
N392 C393 1.346 . S
C393 N392 1.346 . S
C393 C394 1.396 . S
C393 C403 1.510 . S
C394 C390 1.401 . S
C394 C393 1.396 . S
C395 C390 1.499 . S
C395 H396 0.959 . S
C395 H397 0.960 . S
C395 H398 0.961 . S
H396 C395 0.959 . S
H397 C395 0.960 . S
H398 C395 0.961 . S
O399 Co374 1.967 . S
O399 C407 1.258 . S
O400 Co375 1.941 . S
O400 C407 1.266 . S
H401 C403 0.959 . S
H402 C403 0.961 . S
C403 C393 1.510 . S
C403 H401 0.959 . S
C403 H402 0.961 . S
C403 H404 0.960 . S
H404 C403 0.960 . S
H405 N385 0.862 . S
O406 Co374 1.920 . S
O406 C379 1.289 . S
C407 O399 1.258 . S
C407 O400 1.266 . S
H408 C426 0.951 . S
H409 C428 0.951 . S
H410 C430 0.950 . S
H411 C431 0.950 1_455 S
H412 C433 0.950 . S
H413 C436 0.950 . S
H414 C437 0.950 . S
H415 C439 0.950 . S
H416 C440 0.950 . S
H417 C441 0.951 . S
H418 C443 0.951 . S
H419 C445 0.950 1_655 S
H420 C446 0.950 . S
H421 C448 0.950 . S
H422 C451 0.950 1_655 S
H423 C452 0.939 1_655 S
H424 C454 0.950 . S
H425 C455 0.950 . S
C426 H408 0.951 . S
C426 C427 1.366 . S
C426 C428 1.388 . S
C427 C426 1.366 . S
C427 C431 1.385 . S
C428 H409 0.951 . S
C428 C426 1.388 . S
C428 C429 1.366 . S
C429 C428 1.366 . S
C429 C430 1.414 1_655 S
C429 C432 1.499 1_655 S
C430 H410 0.950 . S
C430 C429 1.414 1_455 S
C430 C431 1.374 1_455 S
C431 H411 0.950 1_655 S
C431 C427 1.385 . S
C431 C430 1.374 1_655 S
C432 C429 1.499 1_455 S
C432 C433 1.373 . S
C432 C434 1.389 . S
C433 H412 0.950 . S
C433 C432 1.373 . S
C433 C449 1.377 . S
C434 C432 1.389 . S
C434 C435 1.525 1_455 S
C434 C448 1.377 . S
C435 C434 1.525 1_655 S
C435 C436 1.397 1_655 S
C435 C440 1.361 . S
C436 H413 0.950 . S
C436 C435 1.397 1_455 S
C436 C437 1.334 . S
C437 H414 0.950 . S
C437 C436 1.334 . S
C437 C438 1.287 1_455 S
C438 C437 1.287 1_655 S
C438 C439 1.524 . S
C438 H457 0.913 . S
C439 H415 0.950 . S
C439 C438 1.524 . S
C439 C440 1.415 . S
C440 H416 0.950 . S
C440 C435 1.361 . S
C440 C439 1.415 . S
C441 H417 0.951 . S
C441 C442 1.366 . S
C441 C443 1.388 . S
C442 C441 1.366 . S
C442 C446 1.385 . S
C443 H418 0.951 . S
C443 C441 1.388 . S
C443 C444 1.366 . S
C444 C443 1.366 . S
C444 C445 1.414 . S
C444 C447 1.499 . S
C445 H419 0.950 1_455 S
C445 C444 1.414 . S
C445 C446 1.374 . S
C446 H420 0.950 . S
C446 C442 1.385 . S
C446 C445 1.374 . S
C447 C444 1.499 . S
C447 C448 1.373 . S
C447 C449 1.389 . S
C448 H421 0.950 . S
C448 C434 1.377 . S
C448 C447 1.373 . S
C449 C433 1.377 . S
C449 C447 1.389 . S
C449 C450 1.524 . S
C450 C449 1.524 . S
C450 C451 1.397 . S
C450 C455 1.363 . S
C451 H422 0.950 1_455 S
C451 C450 1.397 . S
C451 C452 1.334 . S
C452 H423 0.939 1_455 S
C452 C451 1.334 . S
C452 C453 1.287 . S
C453 C452 1.287 . S
C453 C454 1.524 . S
C453 H456 0.999 . S
C454 H424 0.950 . S
C454 C453 1.524 . S
C454 C455 1.415 . S
C455 H425 0.950 . S
C455 C450 1.363 . S
C455 C454 1.415 . S
H456 C453 0.999 . S
H457 C438 0.913 . S
H458 C476 0.951 . S
H459 C478 0.951 . S
H460 C480 0.950 . S
H461 C481 0.950 . S
H462 C483 0.950 . S
H463 C486 0.950 . S
H464 C487 0.950 . S
H465 C489 0.950 . S
H466 C490 0.950 . S
H467 C491 0.951 . S
H468 C493 0.951 . S
H469 C495 0.950 . S
H470 C496 0.950 . S
H471 C498 0.950 . S
H472 C501 0.950 . S
H473 C502 0.950 . S
H474 C504 0.950 . S
H475 C505 0.950 . S
C476 H458 0.951 . S
C476 C477 1.366 . S
C476 C478 1.388 . S
C477 C476 1.366 . S
C477 C481 1.385 . S
C478 H459 0.951 . S
C478 C476 1.388 . S
C478 C479 1.366 . S
C479 C478 1.366 . S
C479 C480 1.414 . S
C479 C482 1.499 . S
C480 H460 0.950 . S
C480 C479 1.414 . S
C480 C481 1.374 . S
C481 H461 0.950 . S
C481 C477 1.385 . S
C481 C480 1.374 . S
C482 C479 1.499 . S
C482 C483 1.373 . S
C482 C484 1.389 . S
C483 H462 0.950 . S
C483 C482 1.373 . S
C483 C499 1.377 . S
C484 C482 1.389 . S
C484 C485 1.524 . S
C484 C498 1.377 . S
C485 C484 1.524 . S
C485 C486 1.397 . S
C485 C490 1.363 . S
C486 H463 0.950 . S
C486 C485 1.397 . S
C486 C487 1.334 . S
C487 H464 0.950 . S
C487 C486 1.334 . S
C487 C488 1.287 . S
C488 C487 1.287 . S
C488 C489 1.524 . S
C488 H507 0.913 . S
C489 H465 0.950 . S
C489 C488 1.524 . S
C489 C490 1.415 . S
C490 H466 0.950 . S
C490 C485 1.363 . S
C490 C489 1.415 . S
C491 H467 0.951 . S
C491 C492 1.366 . S
C491 C493 1.388 . S
C492 C491 1.366 . S
C492 C496 1.385 . S
C493 H468 0.951 . S
C493 C491 1.388 . S
C493 C494 1.366 . S
C494 C493 1.366 . S
C494 C495 1.414 . S
C494 C497 1.499 . S
C495 H469 0.950 . S
C495 C494 1.414 . S
C495 C496 1.374 . S
C496 H470 0.950 . S
C496 C492 1.385 . S
C496 C495 1.374 . S
C497 C494 1.499 . S
C497 C498 1.373 . S
C497 C499 1.389 . S
C498 H471 0.950 . S
C498 C484 1.377 . S
C498 C497 1.373 . S
C499 C483 1.377 . S
C499 C497 1.389 . S
C499 C500 1.524 . S
C500 C499 1.524 . S
C500 C501 1.397 . S
C500 C505 1.363 . S
C501 H472 0.950 . S
C501 C500 1.397 . S
C501 C502 1.334 . S
C502 H473 0.950 . S
C502 C501 1.334 . S
C502 C503 1.287 . S
C503 C502 1.287 . S
C503 C504 1.524 . S
C503 H506 0.999 . S
C504 H474 0.950 . S
C504 C503 1.524 . S
C504 C505 1.415 . S
C505 H475 0.950 . S
C505 C500 1.363 . S
C505 C504 1.415 . S
H506 C503 0.999 . S
H507 C488 0.913 . S
H508 C526 0.951 . S
H509 C528 0.951 1_565 S
H510 C530 0.950 . S
H511 C531 0.950 . S
H512 C533 0.950 . S
H513 C536 0.950 . S
H514 C537 0.950 . S
H515 C539 0.950 . S
H516 C540 0.950 1_565 S
H517 C541 0.951 . S
H518 C543 0.951 . S
H519 C545 0.950 . S
H520 C546 0.950 . S
H521 C548 0.950 . S
H522 C551 0.950 . S
H523 C552 0.950 . S
H524 C554 0.950 . S
H525 C555 0.950 . S
C526 H508 0.951 . S
C526 C527 1.366 . S
C526 C528 1.388 . S
C527 C526 1.366 . S
C527 C531 1.385 . S
C528 H509 0.951 1_545 S
C528 C526 1.388 . S
C528 C529 1.366 . S
C529 C528 1.366 . S
C529 C530 1.414 . S
C529 C532 1.498 1_545 S
C530 H510 0.950 . S
C530 C529 1.414 . S
C530 C531 1.374 . S
C531 H511 0.950 . S
C531 C527 1.385 . S
C531 C530 1.374 . S
C532 C529 1.498 1_565 S
C532 C533 1.375 . S
C532 C534 1.388 1_565 S
C533 H512 0.950 . S
C533 C532 1.375 . S
C533 C549 1.377 . S
C534 C532 1.388 1_545 S
C534 C535 1.524 . S
C534 C548 1.377 1_545 S
C535 C534 1.524 . S
C535 C536 1.397 . S
C535 C540 1.363 . S
C536 H513 0.950 . S
C536 C535 1.397 . S
C536 C537 1.334 . S
C537 H514 0.950 . S
C537 C536 1.334 . S
C537 C538 1.287 . S
C538 C537 1.287 . S
C538 C539 1.524 . S
C538 H557 0.913 . S
C539 H515 0.950 . S
C539 C538 1.524 . S
C539 C540 1.415 . S
C540 H516 0.950 1_545 S
C540 C535 1.363 . S
C540 C539 1.415 . S
C541 H517 0.951 . S
C541 C542 1.366 . S
C541 C543 1.388 . S
C542 C541 1.366 . S
C542 C546 1.385 . S
C543 H518 0.951 . S
C543 C541 1.388 . S
C543 C544 1.366 . S
C544 C543 1.366 . S
C544 C545 1.414 . S
C544 C547 1.499 . S
C545 H519 0.950 . S
C545 C544 1.414 . S
C545 C546 1.374 . S
C546 H520 0.950 . S
C546 C542 1.385 . S
C546 C545 1.374 . S
C547 C544 1.499 . S
C547 C548 1.373 . S
C547 C549 1.389 . S
C548 H521 0.950 . S
C548 C534 1.377 1_565 S
C548 C547 1.373 . S
C549 C533 1.377 . S
C549 C547 1.389 . S
C549 C550 1.524 . S
C550 C549 1.524 . S
C550 C551 1.397 . S
C550 C555 1.363 . S
C551 H522 0.950 . S
C551 C550 1.397 . S
C551 C552 1.334 . S
C552 H523 0.950 . S
C552 C551 1.334 . S
C552 C553 1.287 . S
C553 C552 1.287 . S
C553 C554 1.524 . S
C553 H556 0.999 . S
C554 H524 0.950 . S
C554 C553 1.524 . S
C554 C555 1.415 . S
C555 H525 0.950 . S
C555 C550 1.363 . S
C555 C554 1.415 . S
H556 C553 0.999 . S
H557 C538 0.913 . S
H558 C576 0.951 . S
H559 C578 0.951 . S
H560 C580 0.950 . S
H561 C581 0.950 . S
H562 C583 0.950 . S
H563 C586 0.950 . S
H564 C587 0.950 . S
H565 C589 0.950 . S
H566 C590 0.950 . S
H567 C591 0.951 . S
H568 C593 0.951 . S
H569 C595 0.950 . S
H570 C596 0.950 . S
H571 C598 0.950 . S
H572 C601 0.950 . S
H573 C602 0.950 . S
H574 C604 0.950 . S
H575 C605 0.950 . S
C576 H558 0.951 . S
C576 C577 1.366 . S
C576 C578 1.388 . S
C577 C576 1.366 . S
C577 C581 1.385 . S
C578 H559 0.951 . S
C578 C576 1.388 . S
C578 C579 1.366 . S
C579 C578 1.366 . S
C579 C580 1.414 . S
C579 C582 1.499 . S
C580 H560 0.950 . S
C580 C579 1.414 . S
C580 C581 1.374 . S
C581 H561 0.950 . S
C581 C577 1.385 . S
C581 C580 1.374 . S
C582 C579 1.499 . S
C582 C583 1.373 . S
C582 C584 1.350 1_565 S
C583 H562 0.950 . S
C583 C582 1.373 . S
C583 C599 1.377 . S
C584 C582 1.350 1_545 S
C584 C585 1.553 . S
C584 C598 1.391 . S
C585 C584 1.553 . S
C585 C586 1.397 . S
C585 C590 1.363 . S
C586 H563 0.950 . S
C586 C585 1.397 . S
C586 C587 1.334 . S
C587 H564 0.950 . S
C587 C586 1.334 . S
C587 C588 1.287 . S
C588 C587 1.287 . S
C588 C589 1.524 . S
C588 H607 0.913 . S
C589 H565 0.950 . S
C589 C588 1.524 . S
C589 C590 1.415 . S
C590 H566 0.950 . S
C590 C585 1.363 . S
C590 C589 1.415 . S
C591 H567 0.951 . S
C591 C592 1.366 . S
C591 C593 1.388 . S
C592 C591 1.366 . S
C592 C596 1.385 . S
C593 H568 0.951 . S
C593 C591 1.388 . S
C593 C594 1.366 . S
C594 C593 1.366 . S
C594 C595 1.414 . S
C594 C597 1.499 1_545 S
C595 H569 0.950 . S
C595 C594 1.414 . S
C595 C596 1.374 . S
C596 H570 0.950 . S
C596 C592 1.385 . S
C596 C595 1.374 . S
C597 C594 1.499 1_565 S
C597 C598 1.373 1_565 S
C597 C599 1.389 . S
C598 H571 0.950 . S
C598 C584 1.391 . S
C598 C597 1.373 1_545 S
C599 C583 1.377 . S
C599 C597 1.389 . S
C599 C600 1.524 . S
C600 C599 1.524 . S
C600 C601 1.397 . S
C600 C605 1.363 . S
C601 H572 0.950 . S
C601 C600 1.397 . S
C601 C602 1.334 . S
C602 H573 0.950 . S
C602 C601 1.334 . S
C602 C603 1.287 . S
C603 C602 1.287 . S
C603 C604 1.524 . S
C603 H606 0.999 . S
C604 H574 0.950 . S
C604 C603 1.524 . S
C604 C605 1.415 . S
C605 H575 0.950 . S
C605 C600 1.363 . S
C605 C604 1.415 . S
H606 C603 0.999 . S
H607 C588 0.913 . S
H608 C626 0.951 . S
H609 C628 0.951 . S
H610 C630 0.950 1_655 S
H611 C631 0.950 . S
H612 C633 0.950 . S
H613 C636 0.950 . S
H614 C637 0.950 . S
H615 C639 0.950 . S
H616 C640 0.950 . S
H617 C641 0.951 . S
H618 C643 0.951 . S
H619 C645 0.950 . S
H620 C646 0.980 . S
H621 C648 0.950 . S
H622 C651 0.950 . S
H623 C652 0.950 . S
H624 C654 0.950 . S
H625 C655 0.950 . S
C626 H608 0.951 . S
C626 C627 1.366 . S
C626 C628 1.388 . S
C627 C626 1.366 . S
C627 C631 1.385 . S
C628 H609 0.951 . S
C628 C626 1.388 . S
C628 C629 1.366 . S
C629 C628 1.366 . S
C629 C630 1.414 . S
C629 C632 1.499 . S
C630 H610 0.950 1_455 S
C630 C629 1.414 . S
C630 C631 1.374 . S
C631 H611 0.950 . S
C631 C627 1.385 . S
C631 C630 1.374 . S
C632 C629 1.499 . S
C632 C633 1.373 1_455 S
C632 C634 1.389 . S
C633 H612 0.950 . S
C633 C632 1.373 1_655 S
C633 C649 1.377 . S
C634 C632 1.389 . S
C634 C635 1.524 . S
C634 C648 1.377 . S
C635 C634 1.524 . S
C635 C636 1.397 . S
C635 C640 1.363 . S
C636 H613 0.950 . S
C636 C635 1.397 . S
C636 C637 1.334 . S
C637 H614 0.950 . S
C637 C636 1.334 . S
C637 C638 1.287 . S
C638 C637 1.287 . S
C638 C639 1.524 . S
C638 H657 0.913 . S
C639 H615 0.950 . S
C639 C638 1.524 . S
C639 C640 1.415 . S
C640 H616 0.950 . S
C640 C635 1.363 . S
C640 C639 1.415 . S
C641 H617 0.951 . S
C641 C642 1.366 . S
C641 C643 1.388 . S
C642 C641 1.366 . S
C642 C646 1.347 1_655 S
C643 H618 0.951 . S
C643 C641 1.388 . S
C643 C644 1.366 . S
C644 C643 1.366 . S
C644 C645 1.414 1_655 S
C644 C647 1.499 1_655 S
C645 H619 0.950 . S
C645 C644 1.414 1_455 S
C645 C646 1.384 . S
C646 H620 0.980 . S
C646 C642 1.347 1_455 S
C646 C645 1.384 . S
C647 C644 1.499 1_455 S
C647 C648 1.373 . S
C647 C649 1.389 1_455 S
C648 H621 0.950 . S
C648 C634 1.377 . S
C648 C647 1.373 . S
C649 C633 1.377 . S
C649 C647 1.389 1_655 S
C649 C650 1.524 . S
C650 C649 1.524 . S
C650 C651 1.397 . S
C650 C655 1.363 . S
C651 H622 0.950 . S
C651 C650 1.397 . S
C651 C652 1.334 . S
C652 H623 0.950 . S
C652 C651 1.334 . S
C652 C653 1.287 . S
C653 C652 1.287 . S
C653 C654 1.524 . S
C653 H656 0.999 . S
C654 H624 0.950 . S
C654 C653 1.524 . S
C654 C655 1.415 . S
C655 H625 0.950 . S
C655 C650 1.363 . S
C655 C654 1.415 . S
H656 C653 0.999 . S
H657 C638 0.913 . S
H658 C676 0.951 . S
H659 C678 0.951 . S
H660 C680 0.950 . S
H661 C681 0.950 . S
H662 C683 0.950 . S
H663 C686 0.950 . S
H664 C687 0.950 . S
H665 C689 0.950 . S
H666 C690 0.950 . S
H667 C691 0.951 . S
H668 C693 0.951 . S
H669 C695 0.950 . S
H670 C696 0.950 . S
H671 C698 0.950 . S
H672 C701 0.950 . S
H673 C702 0.950 . S
H674 C704 0.950 . S
H675 C705 0.950 . S
C676 H658 0.951 . S
C676 C677 1.366 . S
C676 C678 1.388 . S
C677 C676 1.366 . S
C677 C681 1.385 . S
C678 H659 0.951 . S
C678 C676 1.388 . S
C678 C679 1.366 . S
C679 C678 1.366 . S
C679 C680 1.414 . S
C679 C682 1.499 . S
C680 H660 0.950 . S
C680 C679 1.414 . S
C680 C681 1.374 . S
C681 H661 0.950 . S
C681 C677 1.385 . S
C681 C680 1.374 . S
C682 C679 1.499 . S
C682 C683 1.373 . S
C682 C684 1.389 . S
C683 H662 0.950 . S
C683 C682 1.373 . S
C683 C699 1.377 . S
C684 C682 1.389 . S
C684 C685 1.524 . S
C684 C698 1.377 . S
C685 C684 1.524 . S
C685 C686 1.397 . S
C685 C690 1.363 . S
C686 H663 0.950 . S
C686 C685 1.397 . S
C686 C687 1.334 . S
C687 H664 0.950 . S
C687 C686 1.334 . S
C687 C688 1.287 . S
C688 C687 1.287 . S
C688 C689 1.524 . S
C688 H707 0.913 . S
C689 H665 0.950 . S
C689 C688 1.524 . S
C689 C690 1.415 . S
C690 H666 0.950 . S
C690 C685 1.363 . S
C690 C689 1.415 . S
C691 H667 0.951 . S
C691 C692 1.366 . S
C691 C693 1.388 . S
C692 C691 1.366 . S
C692 C696 1.385 . S
C693 H668 0.951 . S
C693 C691 1.388 . S
C693 C694 1.366 . S
C694 C693 1.366 . S
C694 C695 1.414 . S
C694 C697 1.499 . S
C695 H669 0.950 . S
C695 C694 1.414 . S
C695 C696 1.374 . S
C696 H670 0.950 . S
C696 C692 1.385 . S
C696 C695 1.374 . S
C697 C694 1.499 . S
C697 C698 1.373 . S
C697 C699 1.389 . S
C698 H671 0.950 . S
C698 C684 1.377 . S
C698 C697 1.373 . S
C699 C683 1.377 . S
C699 C697 1.389 . S
C699 C700 1.524 . S
C700 C699 1.524 . S
C700 C701 1.397 . S
C700 C705 1.363 . S
C701 H672 0.950 . S
C701 C700 1.397 . S
C701 C702 1.334 . S
C702 H673 0.950 . S
C702 C701 1.334 . S
C702 C703 1.287 . S
C703 C702 1.287 . S
C703 C704 1.524 . S
C703 H706 0.999 . S
C704 H674 0.950 . S
C704 C703 1.524 . S
C704 C705 1.415 . S
C705 H675 0.950 . S
C705 C700 1.363 . S
C705 C704 1.415 . S
H706 C703 0.999 . S
H707 C688 0.913 . S
H708 C726 0.956 . S
H709 C728 0.951 . S
H710 C730 0.950 . S
H711 C731 0.950 . S
H712 C733 0.950 . S
H713 C736 0.950 . S
H714 C737 0.950 . S
H715 C739 0.950 . S
H716 C740 0.950 . S
H717 C741 0.951 . S
H718 C743 0.951 1_455 S
H719 C745 0.950 . S
H720 C746 0.950 . S
H721 C748 0.950 . S
H722 C751 0.950 1_655 S
H723 C752 0.950 . S
H724 C754 0.950 . S
H725 C755 0.950 . S
C726 H708 0.956 . S
C726 C727 1.357 1_655 S
C726 C728 1.391 . S
C727 C726 1.357 1_455 S
C727 C731 1.385 . S
C728 H709 0.951 . S
C728 C726 1.391 . S
C728 C729 1.366 1_655 S
C729 C728 1.366 1_455 S
C729 C730 1.414 . S
C729 C732 1.499 1_455 S
C730 H710 0.950 . S
C730 C729 1.414 . S
C730 C731 1.374 . S
C731 H711 0.950 . S
C731 C727 1.385 . S
C731 C730 1.374 . S
C732 C729 1.499 1_655 S
C732 C733 1.373 1_655 S
C732 C734 1.389 . S
C733 H712 0.950 . S
C733 C732 1.373 1_455 S
C733 C749 1.377 . S
C734 C732 1.389 . S
C734 C735 1.524 . S
C734 C748 1.377 . S
C735 C734 1.524 . S
C735 C736 1.397 . S
C735 C740 1.363 . S
C736 H713 0.950 . S
C736 C735 1.397 . S
C736 C737 1.334 . S
C737 H714 0.950 . S
C737 C736 1.334 . S
C737 C738 1.287 . S
C738 C737 1.287 . S
C738 C739 1.524 . S
C738 H757 0.913 . S
C739 H715 0.950 . S
C739 C738 1.524 . S
C739 C740 1.415 . S
C740 H716 0.950 . S
C740 C735 1.363 . S
C740 C739 1.415 . S
C741 H717 0.951 . S
C741 C742 1.366 . S
C741 C743 1.388 . S
C742 C741 1.366 . S
C742 C746 1.385 . S
C743 H718 0.951 1_655 S
C743 C741 1.388 . S
C743 C744 1.366 . S
C744 C743 1.366 . S
C744 C745 1.414 . S
C744 C747 1.499 . S
C745 H719 0.950 . S
C745 C744 1.414 . S
C745 C746 1.374 . S
C746 H720 0.950 . S
C746 C742 1.385 . S
C746 C745 1.374 . S
C747 C744 1.499 . S
C747 C748 1.373 . S
C747 C749 1.389 1_655 S
C748 H721 0.950 . S
C748 C734 1.377 . S
C748 C747 1.373 . S
C749 C733 1.377 . S
C749 C747 1.389 1_455 S
C749 C750 1.524 . S
C750 C749 1.524 . S
C750 C751 1.397 . S
C750 C755 1.363 . S
C751 H722 0.950 1_455 S
C751 C750 1.397 . S
C751 C752 1.334 . S
C752 H723 0.950 . S
C752 C751 1.334 . S
C752 C753 1.287 . S
C753 C752 1.287 . S
C753 C754 1.524 . S
C753 H756 0.999 . S
C754 H724 0.950 . S
C754 C753 1.524 . S
C754 C755 1.415 . S
C755 H725 0.950 . S
C755 C750 1.363 . S
C755 C754 1.415 . S
H756 C753 0.999 . S
H757 C738 0.913 . S
H758 C776 0.951 . S
H759 C778 0.951 . S
H760 C780 0.950 . S
H761 C781 0.950 . S
H762 C783 0.950 . S
H763 C786 0.950 . S
H764 C787 0.950 . S
H765 C789 0.950 . S
H766 C790 0.950 . S
H767 C791 0.951 . S
H768 C793 0.951 . S
H769 C795 0.950 . S
H770 C796 0.950 . S
H771 C798 0.950 . S
H772 C801 0.950 . S
H773 C802 0.950 . S
H774 C804 0.950 . S
H775 C805 0.950 . S
C776 H758 0.951 . S
C776 C777 1.366 . S
C776 C778 1.388 . S
C777 C776 1.366 . S
C777 C781 1.385 . S
C778 H759 0.951 . S
C778 C776 1.388 . S
C778 C779 1.366 . S
C779 C778 1.366 . S
C779 C780 1.414 . S
C779 C782 1.499 . S
C780 H760 0.950 . S
C780 C779 1.414 . S
C780 C781 1.374 . S
C781 H761 0.950 . S
C781 C777 1.385 . S
C781 C780 1.374 . S
C782 C779 1.499 . S
C782 C783 1.373 . S
C782 C784 1.389 . S
C783 H762 0.950 . S
C783 C782 1.373 . S
C783 C799 1.377 . S
C784 C782 1.389 . S
C784 C785 1.524 . S
C784 C798 1.377 . S
C785 C784 1.524 . S
C785 C786 1.397 . S
C785 C790 1.363 . S
C786 H763 0.950 . S
C786 C785 1.397 . S
C786 C787 1.334 . S
C787 H764 0.950 . S
C787 C786 1.334 . S
C787 C788 1.287 . S
C788 C787 1.287 . S
C788 C789 1.524 . S
C788 H807 0.913 . S
C789 H765 0.950 . S
C789 C788 1.524 . S
C789 C790 1.415 . S
C790 H766 0.950 . S
C790 C785 1.363 . S
C790 C789 1.415 . S
C791 H767 0.951 . S
C791 C792 1.366 . S
C791 C793 1.388 . S
C792 C791 1.366 . S
C792 C796 1.385 . S
C793 H768 0.951 . S
C793 C791 1.388 . S
C793 C794 1.366 . S
C794 C793 1.366 . S
C794 C795 1.414 . S
C794 C797 1.499 . S
C795 H769 0.950 . S
C795 C794 1.414 . S
C795 C796 1.374 . S
C796 H770 0.950 . S
C796 C792 1.385 . S
C796 C795 1.374 . S
C797 C794 1.499 . S
C797 C798 1.373 . S
C797 C799 1.389 . S
C798 H771 0.950 . S
C798 C784 1.377 . S
C798 C797 1.373 . S
C799 C783 1.377 . S
C799 C797 1.389 . S
C799 C800 1.524 . S
C800 C799 1.524 . S
C800 C801 1.397 . S
C800 C805 1.363 . S
C801 H772 0.950 . S
C801 C800 1.397 . S
C801 C802 1.334 . S
C802 H773 0.950 . S
C802 C801 1.334 . S
C802 C803 1.287 . S
C803 C802 1.287 . S
C803 C804 1.524 . S
C803 H806 0.999 . S
C804 H774 0.950 . S
C804 C803 1.524 . S
C804 C805 1.415 . S
C805 H775 0.950 . S
C805 C800 1.363 . S
C805 C804 1.415 . S
H806 C803 0.999 . S
H807 C788 0.913 . S
H808 C826 0.951 1_545 S
H809 C828 0.951 . S
H810 C830 0.950 . S
H811 C831 0.950 . S
H812 C833 0.950 . S
H813 C836 0.950 . S
H814 C837 0.950 . S
H815 C839 0.950 . S
H816 C840 0.950 . S
H817 C841 0.951 . S
H818 C843 0.951 . S
H819 C845 0.950 . S
H820 C846 0.950 . S
H821 C848 0.950 . S
H822 C851 0.950 . S
H823 C852 0.950 . S
H824 C854 0.950 . S
H825 C855 0.950 . S
C826 H808 0.951 1_565 S
C826 C827 1.366 . S
C826 C828 1.388 1_565 S
C827 C826 1.366 . S
C827 C831 1.385 . S
C828 H809 0.951 . S
C828 C826 1.388 1_545 S
C828 C829 1.366 1_545 S
C829 C828 1.366 1_565 S
C829 C830 1.414 . S
C829 C832 1.499 1_565 S
C830 H810 0.950 . S
C830 C829 1.414 . S
C830 C831 1.374 . S
C831 H811 0.950 . S
C831 C827 1.385 . S
C831 C830 1.374 . S
C832 C829 1.499 1_545 S
C832 C833 1.373 1_545 S
C832 C834 1.389 . S
C833 H812 0.950 . S
C833 C832 1.373 1_565 S
C833 C849 1.377 . S
C834 C832 1.389 . S
C834 C835 1.524 . S
C834 C848 1.377 . S
C835 C834 1.524 . S
C835 C836 1.397 . S
C835 C840 1.363 . S
C836 H813 0.950 . S
C836 C835 1.397 . S
C836 C837 1.334 . S
C837 H814 0.950 . S
C837 C836 1.334 . S
C837 C838 1.287 . S
C838 C837 1.287 . S
C838 C839 1.524 . S
C838 H857 0.913 . S
C839 H815 0.950 . S
C839 C838 1.524 . S
C839 C840 1.415 . S
C840 H816 0.950 . S
C840 C835 1.363 . S
C840 C839 1.415 . S
C841 H817 0.951 . S
C841 C842 1.366 . S
C841 C843 1.388 . S
C842 C841 1.366 . S
C842 C846 1.385 . S
C843 H818 0.951 . S
C843 C841 1.388 . S
C843 C844 1.366 . S
C844 C843 1.366 . S
C844 C845 1.414 . S
C844 C847 1.499 . S
C845 H819 0.950 . S
C845 C844 1.414 . S
C845 C846 1.374 . S
C846 H820 0.950 . S
C846 C842 1.385 . S
C846 C845 1.374 . S
C847 C844 1.499 . S
C847 C848 1.373 . S
C847 C849 1.389 1_545 S
C848 H821 0.950 . S
C848 C834 1.377 . S
C848 C847 1.373 . S
C849 C833 1.377 . S
C849 C847 1.389 1_565 S
C849 C850 1.524 . S
C850 C849 1.524 . S
C850 C851 1.397 . S
C850 C855 1.363 . S
C851 H822 0.950 . S
C851 C850 1.397 . S
C851 C852 1.334 . S
C852 H823 0.950 . S
C852 C851 1.334 . S
C852 C853 1.287 . S
C853 C852 1.287 . S
C853 C854 1.524 . S
C853 H856 0.999 . S
C854 H824 0.950 . S
C854 C853 1.524 . S
C854 C855 1.415 . S
C855 H825 0.950 . S
C855 C850 1.363 . S
C855 C854 1.415 . S
H856 C853 0.999 . S
H857 C838 0.913 . S
H858 C876 0.951 . S
H859 C878 0.951 . S
H860 C880 0.950 . S
H861 C881 0.950 . S
H862 C883 0.950 . S
H863 C886 0.950 . S
H864 C887 0.950 . S
H865 C889 0.950 . S
H866 C890 0.950 . S
H867 C891 0.951 . S
H868 C893 0.951 . S
H869 C895 0.950 . S
H870 C896 0.950 . S
H871 C898 0.925 1_565 S
H872 C901 0.950 . S
H873 C902 0.950 . S
H874 C904 0.950 . S
H875 C905 0.950 . S
C876 H858 0.951 . S
C876 C877 1.366 . S
C876 C878 1.388 . S
C877 C876 1.366 . S
C877 C881 1.385 . S
C878 H859 0.951 . S
C878 C876 1.388 . S
C878 C879 1.366 . S
C879 C878 1.366 . S
C879 C880 1.414 . S
C879 C882 1.494 1_565 S
C880 H860 0.950 . S
C880 C879 1.414 . S
C880 C881 1.374 . S
C881 H861 0.950 . S
C881 C877 1.385 . S
C881 C880 1.374 . S
C882 C879 1.494 1_545 S
C882 C883 1.385 . S
C882 C884 1.383 1_545 S
C883 H862 0.950 . S
C883 C882 1.385 . S
C883 C899 1.377 . S
C884 C882 1.383 1_565 S
C884 C885 1.524 . S
C884 C898 1.359 1_565 S
C885 C884 1.524 . S
C885 C886 1.397 . S
C885 C890 1.363 . S
C886 H863 0.950 . S
C886 C885 1.397 . S
C886 C887 1.334 . S
C887 H864 0.950 . S
C887 C886 1.334 . S
C887 C888 1.287 . S
C888 C887 1.287 . S
C888 C889 1.524 . S
C888 H907 0.913 . S
C889 H865 0.950 . S
C889 C888 1.524 . S
C889 C890 1.415 . S
C890 H866 0.950 . S
C890 C885 1.363 . S
C890 C889 1.415 . S
C891 H867 0.951 . S
C891 C892 1.366 . S
C891 C893 1.388 . S
C892 C891 1.366 . S
C892 C896 1.385 . S
C893 H868 0.951 . S
C893 C891 1.388 . S
C893 C894 1.366 . S
C894 C893 1.366 . S
C894 C895 1.414 . S
C894 C897 1.499 . S
C895 H869 0.950 . S
C895 C894 1.414 . S
C895 C896 1.374 . S
C896 H870 0.950 . S
C896 C892 1.385 . S
C896 C895 1.374 . S
C897 C894 1.499 . S
C897 C898 1.418 . S
C897 C899 1.389 . S
C898 H871 0.925 1_545 S
C898 C884 1.359 1_545 S
C898 C897 1.418 . S
C899 C883 1.377 . S
C899 C897 1.389 . S
C899 C900 1.524 . S
C900 C899 1.524 . S
C900 C901 1.397 . S
C900 C905 1.363 . S
C901 H872 0.950 . S
C901 C900 1.397 . S
C901 C902 1.334 . S
C902 H873 0.950 . S
C902 C901 1.334 . S
C902 C903 1.287 . S
C903 C902 1.287 . S
C903 C904 1.524 . S
C903 H906 0.999 . S
C904 H874 0.950 . S
C904 C903 1.524 . S
C904 C905 1.415 . S
C905 H875 0.950 . S
C905 C900 1.363 . S
C905 C904 1.415 . S
H906 C903 0.999 . S
H907 C888 0.913 . S
H908 C926 0.951 . S
H909 C928 0.951 1_455 S
H910 C930 0.950 . S
H911 C931 0.950 . S
H912 C933 0.950 . S
H913 C936 0.950 . S
H914 C937 0.950 . S
H915 C939 0.950 . S
H916 C940 0.950 . S
H917 C941 0.982 . S
H918 C943 0.951 . S
H919 C945 0.950 . S
H920 C946 0.950 . S
H921 C948 0.950 . S
H922 C951 0.950 1_455 S
H923 C952 0.950 . S
H924 C954 0.950 . S
H925 C955 0.950 . S
C926 H908 0.951 . S
C926 C927 1.366 . S
C926 C928 1.388 . S
C927 C926 1.366 . S
C927 C931 1.385 . S
C928 H909 0.951 1_655 S
C928 C926 1.388 . S
C928 C929 1.366 . S
C929 C928 1.366 . S
C929 C930 1.414 . S
C929 C932 1.499 . S
C930 H910 0.950 . S
C930 C929 1.414 . S
C930 C931 1.374 . S
C931 H911 0.950 . S
C931 C927 1.385 . S
C931 C930 1.374 . S
C932 C929 1.499 . S
C932 C933 1.373 . S
C932 C934 1.402 . S
C933 H912 0.950 . S
C933 C932 1.373 . S
C933 C949 1.377 . S
C934 C932 1.402 . S
C934 C935 1.525 1_655 S
C934 C948 1.367 1_655 S
C935 C934 1.525 1_455 S
C935 C936 1.397 1_455 S
C935 C940 1.363 . S
C936 H913 0.950 . S
C936 C935 1.397 1_655 S
C936 C937 1.334 . S
C937 H914 0.950 . S
C937 C936 1.334 . S
C937 C938 1.287 1_655 S
C938 C937 1.287 1_455 S
C938 C939 1.524 . S
C938 H957 0.913 . S
C939 H915 0.950 . S
C939 C938 1.524 . S
C939 C940 1.415 . S
C940 H916 0.950 . S
C940 C935 1.363 . S
C940 C939 1.415 . S
C941 H917 0.982 . S
C941 C942 1.327 1_655 S
C941 C943 1.397 . S
C942 C941 1.327 1_455 S
C942 C946 1.385 . S
C943 H918 0.951 . S
C943 C941 1.397 . S
C943 C944 1.366 1_655 S
C944 C943 1.366 1_455 S
C944 C945 1.414 . S
C944 C947 1.491 1_455 S
C945 H919 0.950 . S
C945 C944 1.414 . S
C945 C946 1.374 . S
C946 H920 0.950 . S
C946 C942 1.385 . S
C946 C945 1.374 . S
C947 C944 1.491 1_655 S
C947 C948 1.372 1_655 S
C947 C949 1.404 . S
C948 H921 0.950 . S
C948 C934 1.367 1_455 S
C948 C947 1.372 1_455 S
C949 C933 1.377 . S
C949 C947 1.404 . S
C949 C950 1.524 . S
C950 C949 1.524 . S
C950 C951 1.397 . S
C950 C955 1.363 . S
C951 H922 0.950 1_655 S
C951 C950 1.397 . S
C951 C952 1.334 . S
C952 H923 0.950 . S
C952 C951 1.334 . S
C952 C953 1.287 . S
C953 C952 1.287 . S
C953 C954 1.524 . S
C953 H956 0.999 . S
C954 H924 0.950 . S
C954 C953 1.524 . S
C954 C955 1.415 . S
C955 H925 0.950 . S
C955 C950 1.363 . S
C955 C954 1.415 . S
H956 C953 0.999 . S
H957 C938 0.913 . S
H958 C976 0.951 . S
H959 C978 0.951 . S
H960 C980 0.950 . S
H961 C981 0.950 . S
H962 C983 0.950 . S
H963 C986 0.950 . S
H964 C987 0.950 . S
H965 C989 0.950 . S
H966 C990 0.950 . S
H967 C991 0.951 . S
H968 C993 0.951 . S
H969 C995 0.950 . S
H970 C996 0.950 . S
H971 C998 0.950 . S
H972 C1001 0.950 . S
H973 C1002 0.950 . S
H974 C1004 0.950 . S
H975 C1005 0.950 . S
C976 H958 0.951 . S
C976 C977 1.366 . S
C976 C978 1.388 . S
C977 C976 1.366 . S
C977 C981 1.385 . S
C978 H959 0.951 . S
C978 C976 1.388 . S
C978 C979 1.366 . S
C979 C978 1.366 . S
C979 C980 1.414 . S
C979 C982 1.499 . S
C980 H960 0.950 . S
C980 C979 1.414 . S
C980 C981 1.374 . S
C981 H961 0.950 . S
C981 C977 1.385 . S
C981 C980 1.374 . S
C982 C979 1.499 . S
C982 C983 1.373 . S
C982 C984 1.389 . S
C983 H962 0.950 . S
C983 C982 1.373 . S
C983 C999 1.377 . S
C984 C982 1.389 . S
C984 C985 1.524 . S
C984 C998 1.377 . S
C985 C984 1.524 . S
C985 C986 1.397 . S
C985 C990 1.363 . S
C986 H963 0.950 . S
C986 C985 1.397 . S
C986 C987 1.334 . S
C987 H964 0.950 . S
C987 C986 1.334 . S
C987 C988 1.287 . S
C988 C987 1.287 . S
C988 C989 1.524 . S
C988 H1007 0.913 . S
C989 H965 0.950 . S
C989 C988 1.524 . S
C989 C990 1.415 . S
C990 H966 0.950 . S
C990 C985 1.363 . S
C990 C989 1.415 . S
C991 H967 0.951 . S
C991 C992 1.366 . S
C991 C993 1.388 . S
C992 C991 1.366 . S
C992 C996 1.385 . S
C993 H968 0.951 . S
C993 C991 1.388 . S
C993 C994 1.366 . S
C994 C993 1.366 . S
C994 C995 1.414 . S
C994 C997 1.499 . S
C995 H969 0.950 . S
C995 C994 1.414 . S
C995 C996 1.374 . S
C996 H970 0.950 . S
C996 C992 1.385 . S
C996 C995 1.374 . S
C997 C994 1.499 . S
C997 C998 1.373 . S
C997 C999 1.389 . S
C998 H971 0.950 . S
C998 C984 1.377 . S
C998 C997 1.373 . S
C999 C983 1.377 . S
C999 C997 1.389 . S
C999 C1000 1.524 . S
C1000 C999 1.524 . S
C1000 C1001 1.397 . S
C1000 C1005 1.363 . S
C1001 H972 0.950 . S
C1001 C1000 1.397 . S
C1001 C1002 1.334 . S
C1002 H973 0.950 . S
C1002 C1001 1.334 . S
C1002 C1003 1.287 . S
C1003 C1002 1.287 . S
C1003 C1004 1.524 . S
C1003 H1006 0.999 . S
C1004 H974 0.950 . S
C1004 C1003 1.524 . S
C1004 C1005 1.415 . S
C1005 H975 0.950 . S
C1005 C1000 1.363 . S
C1005 C1004 1.415 . S
H1006 C1003 0.999 . S
H1007 C988 0.913 . S
H1008 C1026 0.951 1_455 S
H1009 C1028 0.933 1_455 S
H1010 C1030 0.950 . S
H1011 C1031 0.950 . S
H1012 C1033 0.950 . S
H1013 C1036 0.950 . S
H1014 C1037 0.950 . S
H1015 C1039 0.950 . S
H1016 C1040 0.950 . S
H1017 C1041 0.951 1_655 S
H1018 C1043 0.933 1_655 S
H1019 C1045 0.950 . S
H1020 C1046 0.950 . S
H1021 C1048 0.950 . S
H1022 C1051 0.950 . S
H1023 C1052 0.950 . S
H1024 C1054 0.950 . S
H1025 C1055 0.950 . S
C1026 H1008 0.951 1_655 S
C1026 C1027 1.366 . S
C1026 C1028 1.401 . S
C1027 C1026 1.366 . S
C1027 C1031 1.385 . S
C1028 H1009 0.933 1_655 S
C1028 C1026 1.401 . S
C1028 C1029 1.370 . S
C1029 C1028 1.370 . S
C1029 C1030 1.414 . S
C1029 C1032 1.499 . S
C1030 H1010 0.950 . S
C1030 C1029 1.414 . S
C1030 C1031 1.374 . S
C1031 H1011 0.950 . S
C1031 C1027 1.385 . S
C1031 C1030 1.374 . S
C1032 C1029 1.499 . S
C1032 C1033 1.373 1_556 S
C1032 C1034 1.389 1_655 S
C1033 H1012 0.950 . S
C1033 C1032 1.373 1_554 S
C1033 C1049 1.377 . S
C1034 C1032 1.389 1_455 S
C1034 C1035 1.524 . S
C1034 C1048 1.377 . S
C1035 C1034 1.524 . S
C1035 C1036 1.397 1_455 S
C1035 C1040 1.363 . S
C1036 H1013 0.950 . S
C1036 C1035 1.397 1_655 S
C1036 C1037 1.334 . S
C1037 H1014 0.950 . S
C1037 C1036 1.334 . S
C1037 C1038 1.287 1_655 S
C1038 C1037 1.287 1_455 S
C1038 C1039 1.524 . S
C1038 H1057 0.913 . S
C1039 H1015 0.950 . S
C1039 C1038 1.524 . S
C1039 C1040 1.415 . S
C1040 H1016 0.950 . S
C1040 C1035 1.363 . S
C1040 C1039 1.415 . S
C1041 H1017 0.951 1_455 S
C1041 C1042 1.366 . S
C1041 C1043 1.401 . S
C1042 C1041 1.366 . S
C1042 C1046 1.385 . S
C1043 H1018 0.933 1_455 S
C1043 C1041 1.401 . S
C1043 C1044 1.370 . S
C1044 C1043 1.370 . S
C1044 C1045 1.414 . S
C1044 C1047 1.499 . S
C1045 H1019 0.950 . S
C1045 C1044 1.414 . S
C1045 C1046 1.374 . S
C1046 H1020 0.950 . S
C1046 C1042 1.385 . S
C1046 C1045 1.374 . S
C1047 C1044 1.499 . S
C1047 C1048 1.373 1_554 S
C1047 C1049 1.389 1_455 S
C1048 H1021 0.950 . S
C1048 C1034 1.377 . S
C1048 C1047 1.373 1_556 S
C1049 C1033 1.377 . S
C1049 C1047 1.389 1_655 S
C1049 C1050 1.524 . S
C1050 C1049 1.524 . S
C1050 C1051 1.397 1_655 S
C1050 C1055 1.363 . S
C1051 H1022 0.950 . S
C1051 C1050 1.397 1_455 S
C1051 C1052 1.334 . S
C1052 H1023 0.950 . S
C1052 C1051 1.334 . S
C1052 C1053 1.287 1_455 S
C1053 C1052 1.287 1_655 S
C1053 C1054 1.524 . S
C1053 H1056 0.999 . S
C1054 H1024 0.950 . S
C1054 C1053 1.524 . S
C1054 C1055 1.415 . S
C1055 H1025 0.950 . S
C1055 C1050 1.363 . S
C1055 C1054 1.415 . S
H1056 C1053 0.999 . S
H1057 C1038 0.913 . S
H1058 C1076 0.951 . S
H1059 C1078 0.951 . S
H1060 C1080 0.950 . S
H1061 C1081 0.950 . S
H1062 C1083 0.950 . S
H1063 C1086 0.950 . S
H1064 C1087 0.950 . S
H1065 C1089 0.950 . S
H1066 C1090 0.950 . S
H1067 C1091 0.951 . S
H1068 C1093 0.951 . S
H1069 C1095 0.950 . S
H1070 C1096 0.950 . S
H1071 C1098 0.950 . S
H1072 C1101 0.950 . S
H1073 C1102 0.950 . S
H1074 C1104 0.950 . S
H1075 C1105 0.950 . S
C1076 H1058 0.951 . S
C1076 C1077 1.366 . S
C1076 C1078 1.388 . S
C1077 C1076 1.366 . S
C1077 C1081 1.385 . S
C1078 H1059 0.951 . S
C1078 C1076 1.388 . S
C1078 C1079 1.366 . S
C1079 C1078 1.366 . S
C1079 C1080 1.414 . S
C1079 C1082 1.499 . S
C1080 H1060 0.950 . S
C1080 C1079 1.414 . S
C1080 C1081 1.374 . S
C1081 H1061 0.950 . S
C1081 C1077 1.385 . S
C1081 C1080 1.374 . S
C1082 C1079 1.499 . S
C1082 C1083 1.373 1_554 S
C1082 C1084 1.389 . S
C1083 H1062 0.950 . S
C1083 C1082 1.373 1_556 S
C1083 C1099 1.377 . S
C1084 C1082 1.389 . S
C1084 C1085 1.524 . S
C1084 C1098 1.377 . S
C1085 C1084 1.524 . S
C1085 C1086 1.397 . S
C1085 C1090 1.363 . S
C1086 H1063 0.950 . S
C1086 C1085 1.397 . S
C1086 C1087 1.334 . S
C1087 H1064 0.950 . S
C1087 C1086 1.334 . S
C1087 C1088 1.287 . S
C1088 C1087 1.287 . S
C1088 C1089 1.524 . S
C1088 H1107 0.913 . S
C1089 H1065 0.950 . S
C1089 C1088 1.524 . S
C1089 C1090 1.415 . S
C1090 H1066 0.950 . S
C1090 C1085 1.363 . S
C1090 C1089 1.415 . S
C1091 H1067 0.951 . S
C1091 C1092 1.366 . S
C1091 C1093 1.388 . S
C1092 C1091 1.366 . S
C1092 C1096 1.385 . S
C1093 H1068 0.951 . S
C1093 C1091 1.388 . S
C1093 C1094 1.366 . S
C1094 C1093 1.366 . S
C1094 C1095 1.414 . S
C1094 C1097 1.499 . S
C1095 H1069 0.950 . S
C1095 C1094 1.414 . S
C1095 C1096 1.374 . S
C1096 H1070 0.950 . S
C1096 C1092 1.385 . S
C1096 C1095 1.374 . S
C1097 C1094 1.499 . S
C1097 C1098 1.373 1_556 S
C1097 C1099 1.389 . S
C1098 H1071 0.950 . S
C1098 C1084 1.377 . S
C1098 C1097 1.373 1_554 S
C1099 C1083 1.377 . S
C1099 C1097 1.389 . S
C1099 C1100 1.524 . S
C1100 C1099 1.524 . S
C1100 C1101 1.397 . S
C1100 C1105 1.363 . S
C1101 H1072 0.950 . S
C1101 C1100 1.397 . S
C1101 C1102 1.334 . S
C1102 H1073 0.950 . S
C1102 C1101 1.334 . S
C1102 C1103 1.287 . S
C1103 C1102 1.287 . S
C1103 C1104 1.524 . S
C1103 H1106 0.999 . S
C1104 H1074 0.950 . S
C1104 C1103 1.524 . S
C1104 C1105 1.415 . S
C1105 H1075 0.950 . S
C1105 C1100 1.363 . S
C1105 C1104 1.415 . S
H1106 C1103 0.999 . S
H1107 C1088 0.913 . S
H1108 C1126 0.951 1_565 S
H1109 C1128 0.949 . S
H1110 C1130 0.950 . S
H1111 C1131 0.950 . S
H1112 C1133 0.950 . S
H1113 C1136 0.950 1_545 S
H1114 C1137 0.950 1_545 S
H1115 C1139 0.950 . S
H1116 C1140 0.950 . S
H1117 C1141 0.951 1_545 S
H1118 C1143 0.949 . S
H1119 C1145 0.950 . S
H1120 C1146 0.950 . S
H1121 C1148 0.950 . S
H1122 C1151 0.950 1_565 S
H1123 C1152 0.950 1_565 S
H1124 C1154 0.950 . S
H1125 C1155 0.950 . S
C1126 H1108 0.951 1_545 S
C1126 C1127 1.366 . S
C1126 C1128 1.387 1_545 S
C1127 C1126 1.366 . S
C1127 C1131 1.385 . S
C1128 H1109 0.949 . S
C1128 C1126 1.387 1_565 S
C1128 C1129 1.367 1_565 S
C1129 C1128 1.367 1_545 S
C1129 C1130 1.414 . S
C1129 C1132 1.499 . S
C1130 H1110 0.950 . S
C1130 C1129 1.414 . S
C1130 C1131 1.374 . S
C1131 H1111 0.950 . S
C1131 C1127 1.385 . S
C1131 C1130 1.374 . S
C1132 C1129 1.499 . S
C1132 C1133 1.373 1_556 S
C1132 C1134 1.389 1_545 S
C1133 H1112 0.950 . S
C1133 C1132 1.373 1_554 S
C1133 C1149 1.377 . S
C1134 C1132 1.389 1_565 S
C1134 C1135 1.524 . S
C1134 C1148 1.377 . S
C1135 C1134 1.524 . S
C1135 C1136 1.397 . S
C1135 C1140 1.363 . S
C1136 H1113 0.950 1_565 S
C1136 C1135 1.397 . S
C1136 C1137 1.334 . S
C1137 H1114 0.950 1_565 S
C1137 C1136 1.334 . S
C1137 C1138 1.287 . S
C1138 C1137 1.287 . S
C1138 C1139 1.524 . S
C1138 H1157 0.913 . S
C1139 H1115 0.950 . S
C1139 C1138 1.524 . S
C1139 C1140 1.415 . S
C1140 H1116 0.950 . S
C1140 C1135 1.363 . S
C1140 C1139 1.415 . S
C1141 H1117 0.951 1_565 S
C1141 C1142 1.366 . S
C1141 C1143 1.387 1_565 S
C1142 C1141 1.366 . S
C1142 C1146 1.385 . S
C1143 H1118 0.949 . S
C1143 C1141 1.387 1_545 S
C1143 C1144 1.367 1_545 S
C1144 C1143 1.367 1_565 S
C1144 C1145 1.414 . S
C1144 C1147 1.499 . S
C1145 H1119 0.950 . S
C1145 C1144 1.414 . S
C1145 C1146 1.374 . S
C1146 H1120 0.950 . S
C1146 C1142 1.385 . S
C1146 C1145 1.374 . S
C1147 C1144 1.499 . S
C1147 C1148 1.373 1_554 S
C1147 C1149 1.389 1_565 S
C1148 H1121 0.950 . S
C1148 C1134 1.377 . S
C1148 C1147 1.373 1_556 S
C1149 C1133 1.377 . S
C1149 C1147 1.389 1_545 S
C1149 C1150 1.524 . S
C1150 C1149 1.524 . S
C1150 C1151 1.397 . S
C1150 C1155 1.363 . S
C1151 H1122 0.950 1_545 S
C1151 C1150 1.397 . S
C1151 C1152 1.334 . S
C1152 H1123 0.950 1_545 S
C1152 C1151 1.334 . S
C1152 C1153 1.287 . S
C1153 C1152 1.287 . S
C1153 C1154 1.524 . S
C1153 H1156 0.999 . S
C1154 H1124 0.950 . S
C1154 C1153 1.524 . S
C1154 C1155 1.415 . S
C1155 H1125 0.950 . S
C1155 C1150 1.363 . S
C1155 C1154 1.415 . S
H1156 C1153 0.999 . S
H1157 C1138 0.913 . S
H1158 C1176 0.951 . S
H1159 C1178 0.951 . S
H1160 C1180 0.950 1_545 S
H1161 C1181 0.950 . S
H1162 C1183 0.950 . S
H1163 C1186 0.950 . S
H1164 C1187 0.950 . S
H1165 C1189 0.950 . S
H1166 C1190 0.950 . S
H1167 C1191 0.951 . S
H1168 C1193 0.951 . S
H1169 C1195 0.950 1_565 S
H1170 C1196 0.950 . S
H1171 C1198 0.950 . S
H1172 C1201 0.950 . S
H1173 C1202 0.950 . S
H1174 C1204 0.950 . S
H1175 C1205 0.950 . S
C1176 H1158 0.951 . S
C1176 C1177 1.366 . S
C1176 C1178 1.388 . S
C1177 C1176 1.366 . S
C1177 C1181 1.385 . S
C1178 H1159 0.951 . S
C1178 C1176 1.388 . S
C1178 C1179 1.366 . S
C1179 C1178 1.366 . S
C1179 C1180 1.414 . S
C1179 C1182 1.499 . S
C1180 H1160 0.950 1_565 S
C1180 C1179 1.414 . S
C1180 C1181 1.374 . S
C1181 H1161 0.950 . S
C1181 C1177 1.385 . S
C1181 C1180 1.374 . S
C1182 C1179 1.499 . S
C1182 C1183 1.373 . S
C1182 C1184 1.389 . S
C1183 H1162 0.950 . S
C1183 C1182 1.373 . S
C1183 C1199 1.377 1_565 S
C1184 C1182 1.389 . S
C1184 C1185 1.524 . S
C1184 C1198 1.377 1_565 S
C1185 C1184 1.524 . S
C1185 C1186 1.397 1_565 S
C1185 C1190 1.363 . S
C1186 H1163 0.950 . S
C1186 C1185 1.397 1_545 S
C1186 C1187 1.334 . S
C1187 H1164 0.950 . S
C1187 C1186 1.334 . S
C1187 C1188 1.287 . S
C1188 C1187 1.287 . S
C1188 C1189 1.524 1_545 S
C1188 H1207 0.913 . S
C1189 H1165 0.950 . S
C1189 C1188 1.524 1_565 S
C1189 C1190 1.415 . S
C1190 H1166 0.950 . S
C1190 C1185 1.363 . S
C1190 C1189 1.415 . S
C1191 H1167 0.951 . S
C1191 C1192 1.366 . S
C1191 C1193 1.388 . S
C1192 C1191 1.366 . S
C1192 C1196 1.385 . S
C1193 H1168 0.951 . S
C1193 C1191 1.388 . S
C1193 C1194 1.366 . S
C1194 C1193 1.366 . S
C1194 C1195 1.414 . S
C1194 C1197 1.499 . S
C1195 H1169 0.950 1_545 S
C1195 C1194 1.414 . S
C1195 C1196 1.374 . S
C1196 H1170 0.950 . S
C1196 C1192 1.385 . S
C1196 C1195 1.374 . S
C1197 C1194 1.499 . S
C1197 C1198 1.373 . S
C1197 C1199 1.389 . S
C1198 H1171 0.950 . S
C1198 C1184 1.377 1_545 S
C1198 C1197 1.373 . S
C1199 C1183 1.377 1_545 S
C1199 C1197 1.389 . S
C1199 C1200 1.524 . S
C1200 C1199 1.524 . S
C1200 C1201 1.397 1_545 S
C1200 C1205 1.363 . S
C1201 H1172 0.950 . S
C1201 C1200 1.397 1_565 S
C1201 C1202 1.334 . S
C1202 H1173 0.950 . S
C1202 C1201 1.334 . S
C1202 C1203 1.287 . S
C1203 C1202 1.287 . S
C1203 C1204 1.524 1_565 S
C1203 H1206 0.999 . S
C1204 H1174 0.950 . S
C1204 C1203 1.524 1_545 S
C1204 C1205 1.415 . S
C1205 H1175 0.950 . S
C1205 C1200 1.363 . S
C1205 C1204 1.415 . S
H1206 C1203 0.999 . S
H1207 C1188 0.913 . S
H1208 C1226 0.951 . S
H1209 C1228 0.951 . S
H1210 C1230 0.950 1_655 S
H1211 C1231 0.950 1_655 S
H1212 C1233 0.950 . S
H1213 C1236 0.950 . S
H1214 C1237 0.950 . S
H1215 C1239 0.950 . S
H1216 C1240 0.950 . S
H1217 C1241 0.951 . S
H1218 C1243 0.951 . S
H1219 C1245 0.950 1_455 S
H1220 C1246 0.950 1_455 S
H1221 C1248 0.950 . S
H1222 C1251 0.950 . S
H1223 C1252 0.950 . S
H1224 C1254 0.950 . S
H1225 C1255 0.950 . S
C1226 H1208 0.951 . S
C1226 C1227 1.366 . S
C1226 C1228 1.388 . S
C1227 C1226 1.366 . S
C1227 C1231 1.385 . S
C1228 H1209 0.951 . S
C1228 C1226 1.388 . S
C1228 C1229 1.366 . S
C1229 C1228 1.366 . S
C1229 C1230 1.414 . S
C1229 C1232 1.499 . S
C1230 H1210 0.950 1_455 S
C1230 C1229 1.414 . S
C1230 C1231 1.374 . S
C1231 H1211 0.950 1_455 S
C1231 C1227 1.385 . S
C1231 C1230 1.374 . S
C1232 C1229 1.499 . S
C1232 C1233 1.373 1_455 S
C1232 C1234 1.389 . S
C1233 H1212 0.950 . S
C1233 C1232 1.373 1_655 S
C1233 C1249 1.377 . S
C1234 C1232 1.389 . S
C1234 C1235 1.524 . S
C1234 C1248 1.377 . S
C1235 C1234 1.524 . S
C1235 C1236 1.397 . S
C1235 C1240 1.363 . S
C1236 H1213 0.950 . S
C1236 C1235 1.397 . S
C1236 C1237 1.334 . S
C1237 H1214 0.950 . S
C1237 C1236 1.334 . S
C1237 C1238 1.287 . S
C1238 C1237 1.287 . S
C1238 C1239 1.524 . S
C1238 H1257 0.913 . S
C1239 H1215 0.950 . S
C1239 C1238 1.524 . S
C1239 C1240 1.415 . S
C1240 H1216 0.950 . S
C1240 C1235 1.363 . S
C1240 C1239 1.415 . S
C1241 H1217 0.951 . S
C1241 C1242 1.366 . S
C1241 C1243 1.388 . S
C1242 C1241 1.366 . S
C1242 C1246 1.385 . S
C1243 H1218 0.951 . S
C1243 C1241 1.388 . S
C1243 C1244 1.366 . S
C1244 C1243 1.366 . S
C1244 C1245 1.414 . S
C1244 C1247 1.499 . S
C1245 H1219 0.950 1_655 S
C1245 C1244 1.414 . S
C1245 C1246 1.374 . S
C1246 H1220 0.950 1_655 S
C1246 C1242 1.385 . S
C1246 C1245 1.374 . S
C1247 C1244 1.499 . S
C1247 C1248 1.373 1_655 S
C1247 C1249 1.389 . S
C1248 H1221 0.950 . S
C1248 C1234 1.377 . S
C1248 C1247 1.373 1_455 S
C1249 C1233 1.377 . S
C1249 C1247 1.389 . S
C1249 C1250 1.524 . S
C1250 C1249 1.524 . S
C1250 C1251 1.397 . S
C1250 C1255 1.363 . S
C1251 H1222 0.950 . S
C1251 C1250 1.397 . S
C1251 C1252 1.334 . S
C1252 H1223 0.950 . S
C1252 C1251 1.334 . S
C1252 C1253 1.287 . S
C1253 C1252 1.287 . S
C1253 C1254 1.524 . S
C1253 H1256 0.999 . S
C1254 H1224 0.950 . S
C1254 C1253 1.524 . S
C1254 C1255 1.415 . S
C1255 H1225 0.950 . S
C1255 C1250 1.363 . S
C1255 C1254 1.415 . S
H1256 C1253 0.999 . S
H1257 C1238 0.913 . S
H1258 C1276 0.951 . S
H1259 C1278 0.951 . S
H1260 C1280 0.950 . S
H1261 C1281 0.950 . S
H1262 C1283 0.950 . S
H1263 C1286 0.950 . S
H1264 C1287 0.950 . S
H1265 C1289 0.950 . S
H1266 C1290 0.950 . S
H1267 C1291 0.951 . S
H1268 C1293 0.951 . S
H1269 C1295 0.950 . S
H1270 C1296 0.950 . S
H1271 C1298 0.950 . S
H1272 C1301 0.950 . S
H1273 C1302 0.950 . S
H1274 C1304 0.950 . S
H1275 C1305 0.950 . S
C1276 H1258 0.951 . S
C1276 C1277 1.366 . S
C1276 C1278 1.388 . S
C1277 C1276 1.366 . S
C1277 C1281 1.385 . S
C1278 H1259 0.951 . S
C1278 C1276 1.388 . S
C1278 C1279 1.366 . S
C1279 C1278 1.366 . S
C1279 C1280 1.414 . S
C1279 C1282 1.499 . S
C1280 H1260 0.950 . S
C1280 C1279 1.414 . S
C1280 C1281 1.374 . S
C1281 H1261 0.950 . S
C1281 C1277 1.385 . S
C1281 C1280 1.374 . S
C1282 C1279 1.499 . S
C1282 C1283 1.373 . S
C1282 C1284 1.389 . S
C1283 H1262 0.950 . S
C1283 C1282 1.373 . S
C1283 C1299 1.377 . S
C1284 C1282 1.389 . S
C1284 C1285 1.524 . S
C1284 C1298 1.377 . S
C1285 C1284 1.524 . S
C1285 C1286 1.397 . S
C1285 C1290 1.363 . S
C1286 H1263 0.950 . S
C1286 C1285 1.397 . S
C1286 C1287 1.334 . S
C1287 H1264 0.950 . S
C1287 C1286 1.334 . S
C1287 C1288 1.287 . S
C1288 C1287 1.287 . S
C1288 C1289 1.524 . S
C1288 H1307 0.913 . S
C1289 H1265 0.950 . S
C1289 C1288 1.524 . S
C1289 C1290 1.415 . S
C1290 H1266 0.950 . S
C1290 C1285 1.363 . S
C1290 C1289 1.415 . S
C1291 H1267 0.951 . S
C1291 C1292 1.366 . S
C1291 C1293 1.388 . S
C1292 C1291 1.366 . S
C1292 C1296 1.385 . S
C1293 H1268 0.951 . S
C1293 C1291 1.388 . S
C1293 C1294 1.366 . S
C1294 C1293 1.366 . S
C1294 C1295 1.414 . S
C1294 C1297 1.499 . S
C1295 H1269 0.950 . S
C1295 C1294 1.414 . S
C1295 C1296 1.374 . S
C1296 H1270 0.950 . S
C1296 C1292 1.385 . S
C1296 C1295 1.374 . S
C1297 C1294 1.499 . S
C1297 C1298 1.373 . S
C1297 C1299 1.389 . S
C1298 H1271 0.950 . S
C1298 C1284 1.377 . S
C1298 C1297 1.373 . S
C1299 C1283 1.377 . S
C1299 C1297 1.389 . S
C1299 C1300 1.524 . S
C1300 C1299 1.524 . S
C1300 C1301 1.397 . S
C1300 C1305 1.363 . S
C1301 H1272 0.950 . S
C1301 C1300 1.397 . S
C1301 C1302 1.334 . S
C1302 H1273 0.950 . S
C1302 C1301 1.334 . S
C1302 C1303 1.287 . S
C1303 C1302 1.287 . S
C1303 C1304 1.524 . S
C1303 H1306 0.999 . S
C1304 H1274 0.950 . S
C1304 C1303 1.524 . S
C1304 C1305 1.415 . S
C1305 H1275 0.950 . S
C1305 C1300 1.363 . S
C1305 C1304 1.415 . S
H1306 C1303 0.999 . S
H1307 C1288 0.913 . S
H1308 C1326 0.951 . S
H1309 C1328 0.951 . S
H1310 C1330 0.950 . S
H1311 C1331 0.950 . S
H1312 C1333 0.950 . S
H1313 C1336 0.950 . S
H1314 C1337 0.950 . S
H1315 C1339 0.950 . S
H1316 C1340 0.950 . S
H1317 C1341 0.951 . S
H1318 C1343 0.951 . S
H1319 C1345 0.950 . S
H1320 C1346 0.950 . S
H1321 C1348 0.950 . S
H1322 C1351 0.950 . S
H1323 C1352 0.950 . S
H1324 C1354 0.950 . S
H1325 C1355 0.950 . S
C1326 H1308 0.951 . S
C1326 C1327 1.366 . S
C1326 C1328 1.388 . S
C1327 C1326 1.366 . S
C1327 C1331 1.385 . S
C1328 H1309 0.951 . S
C1328 C1326 1.388 . S
C1328 C1329 1.366 . S
C1329 C1328 1.366 . S
C1329 C1330 1.414 . S
C1329 C1332 1.499 . S
C1330 H1310 0.950 . S
C1330 C1329 1.414 . S
C1330 C1331 1.374 . S
C1331 H1311 0.950 . S
C1331 C1327 1.385 . S
C1331 C1330 1.374 . S
C1332 C1329 1.499 . S
C1332 C1333 1.373 . S
C1332 C1334 1.389 . S
C1333 H1312 0.950 . S
C1333 C1332 1.373 . S
C1333 C1349 1.377 . S
C1334 C1332 1.389 . S
C1334 C1335 1.524 . S
C1334 C1348 1.377 . S
C1335 C1334 1.524 . S
C1335 C1336 1.397 . S
C1335 C1340 1.363 . S
C1336 H1313 0.950 . S
C1336 C1335 1.397 . S
C1336 C1337 1.334 . S
C1337 H1314 0.950 . S
C1337 C1336 1.334 . S
C1337 C1338 1.287 . S
C1338 C1337 1.287 . S
C1338 C1339 1.524 . S
C1338 H1357 0.913 . S
C1339 H1315 0.950 . S
C1339 C1338 1.524 . S
C1339 C1340 1.415 . S
C1340 H1316 0.950 . S
C1340 C1335 1.363 . S
C1340 C1339 1.415 . S
C1341 H1317 0.951 . S
C1341 C1342 1.366 . S
C1341 C1343 1.388 . S
C1342 C1341 1.366 . S
C1342 C1346 1.385 . S
C1343 H1318 0.951 . S
C1343 C1341 1.388 . S
C1343 C1344 1.366 . S
C1344 C1343 1.366 . S
C1344 C1345 1.414 . S
C1344 C1347 1.499 . S
C1345 H1319 0.950 . S
C1345 C1344 1.414 . S
C1345 C1346 1.374 . S
C1346 H1320 0.950 . S
C1346 C1342 1.385 . S
C1346 C1345 1.374 . S
C1347 C1344 1.499 . S
C1347 C1348 1.373 . S
C1347 C1349 1.389 . S
C1348 H1321 0.950 . S
C1348 C1334 1.377 . S
C1348 C1347 1.373 . S
C1349 C1333 1.377 . S
C1349 C1347 1.389 . S
C1349 C1350 1.524 . S
C1350 C1349 1.524 . S
C1350 C1351 1.397 . S
C1350 C1355 1.363 . S
C1351 H1322 0.950 . S
C1351 C1350 1.397 . S
C1351 C1352 1.334 . S
C1352 H1323 0.950 . S
C1352 C1351 1.334 . S
C1352 C1353 1.287 . S
C1353 C1352 1.287 . S
C1353 C1354 1.524 . S
C1353 H1356 0.999 . S
C1354 H1324 0.950 . S
C1354 C1353 1.524 . S
C1354 C1355 1.415 . S
C1355 H1325 0.950 . S
C1355 C1350 1.363 . S
C1355 C1354 1.415 . S
H1356 C1353 0.999 . S
H1357 C1338 0.913 . S
H1358 C1376 0.951 . S
H1359 C1378 0.951 . S
H1360 C1380 0.950 . S
H1361 C1381 0.950 . S
H1362 C1383 0.950 . S
H1363 C1386 0.950 . S
H1364 C1387 0.950 . S
H1365 C1389 0.950 . S
H1366 C1390 0.950 . S
H1367 C1391 0.951 . S
H1368 C1393 0.951 . S
H1369 C1395 0.950 . S
H1370 C1396 0.950 . S
H1371 C1398 0.950 . S
H1372 C1401 0.950 . S
H1373 C1402 0.950 . S
H1374 C1404 0.950 . S
H1375 C1405 0.950 . S
C1376 H1358 0.951 . S
C1376 C1377 1.366 . S
C1376 C1378 1.388 . S
C1377 C1376 1.366 . S
C1377 C1381 1.385 . S
C1378 H1359 0.951 . S
C1378 C1376 1.388 . S
C1378 C1379 1.366 . S
C1379 C1378 1.366 . S
C1379 C1380 1.414 . S
C1379 C1382 1.499 . S
C1380 H1360 0.950 . S
C1380 C1379 1.414 . S
C1380 C1381 1.374 . S
C1381 H1361 0.950 . S
C1381 C1377 1.385 . S
C1381 C1380 1.374 . S
C1382 C1379 1.499 . S
C1382 C1383 1.373 . S
C1382 C1384 1.389 . S
C1383 H1362 0.950 . S
C1383 C1382 1.373 . S
C1383 C1399 1.377 . S
C1384 C1382 1.389 . S
C1384 C1385 1.524 . S
C1384 C1398 1.377 . S
C1385 C1384 1.524 . S
C1385 C1386 1.397 . S
C1385 C1390 1.363 . S
C1386 H1363 0.950 . S
C1386 C1385 1.397 . S
C1386 C1387 1.334 . S
C1387 H1364 0.950 . S
C1387 C1386 1.334 . S
C1387 C1388 1.287 . S
C1388 C1387 1.287 . S
C1388 C1389 1.524 . S
C1388 H1407 0.913 . S
C1389 H1365 0.950 . S
C1389 C1388 1.524 . S
C1389 C1390 1.415 . S
C1390 H1366 0.950 . S
C1390 C1385 1.363 . S
C1390 C1389 1.415 . S
C1391 H1367 0.951 . S
C1391 C1392 1.366 . S
C1391 C1393 1.388 . S
C1392 C1391 1.366 . S
C1392 C1396 1.385 . S
C1393 H1368 0.951 . S
C1393 C1391 1.388 . S
C1393 C1394 1.366 . S
C1394 C1393 1.366 . S
C1394 C1395 1.414 . S
C1394 C1397 1.499 . S
C1395 H1369 0.950 . S
C1395 C1394 1.414 . S
C1395 C1396 1.374 . S
C1396 H1370 0.950 . S
C1396 C1392 1.385 . S
C1396 C1395 1.374 . S
C1397 C1394 1.499 . S
C1397 C1398 1.373 . S
C1397 C1399 1.389 . S
C1398 H1371 0.950 . S
C1398 C1384 1.377 . S
C1398 C1397 1.373 . S
C1399 C1383 1.377 . S
C1399 C1397 1.389 . S
C1399 C1400 1.524 . S
C1400 C1399 1.524 . S
C1400 C1401 1.397 . S
C1400 C1405 1.363 . S
C1401 H1372 0.950 . S
C1401 C1400 1.397 . S
C1401 C1402 1.334 . S
C1402 H1373 0.950 . S
C1402 C1401 1.334 . S
C1402 C1403 1.287 . S
C1403 C1402 1.287 . S
C1403 C1404 1.524 . S
C1403 H1406 0.999 . S
C1404 H1374 0.950 . S
C1404 C1403 1.524 . S
C1404 C1405 1.415 . S
C1405 H1375 0.950 . S
C1405 C1400 1.363 . S
C1405 C1404 1.415 . S
H1406 C1403 0.999 . S
H1407 C1388 0.913 . S
H1408 C1426 0.951 . S
H1409 C1428 0.951 . S
H1410 C1430 0.950 . S
H1411 C1431 0.950 . S
H1412 C1433 0.950 . S
H1413 C1436 0.950 . S
H1414 C1437 0.950 . S
H1415 C1439 0.950 1_545 S
H1416 C1440 0.950 . S
H1417 C1441 0.951 . S
H1418 C1443 0.951 . S
H1419 C1445 0.950 . S
H1420 C1446 0.950 . S
H1421 C1448 0.950 . S
H1422 C1451 0.950 . S
H1423 C1452 0.950 . S
H1424 C1454 0.950 . S
H1425 C1455 0.950 . S
C1426 H1408 0.951 . S
C1426 C1427 1.366 . S
C1426 C1428 1.388 . S
C1427 C1426 1.366 . S
C1427 C1431 1.385 . S
C1428 H1409 0.951 . S
C1428 C1426 1.388 . S
C1428 C1429 1.366 . S
C1429 C1428 1.366 . S
C1429 C1430 1.414 . S
C1429 C1432 1.499 . S
C1430 H1410 0.950 . S
C1430 C1429 1.414 . S
C1430 C1431 1.374 . S
C1431 H1411 0.950 . S
C1431 C1427 1.385 . S
C1431 C1430 1.374 . S
C1432 C1429 1.499 . S
C1432 C1433 1.373 . S
C1432 C1434 1.389 . S
C1433 H1412 0.950 . S
C1433 C1432 1.373 . S
C1433 C1449 1.377 . S
C1434 C1432 1.389 . S
C1434 C1435 1.524 . S
C1434 C1448 1.377 . S
C1435 C1434 1.524 . S
C1435 C1436 1.397 . S
C1435 C1440 1.363 . S
C1436 H1413 0.950 . S
C1436 C1435 1.397 . S
C1436 C1437 1.334 . S
C1437 H1414 0.950 . S
C1437 C1436 1.334 . S
C1437 C1438 1.287 . S
C1438 C1437 1.287 . S
C1438 C1439 1.524 . S
C1438 H1457 0.933 . S
C1439 H1415 0.950 1_565 S
C1439 C1438 1.524 . S
C1439 C1440 1.415 . S
C1440 H1416 0.950 . S
C1440 C1435 1.363 . S
C1440 C1439 1.415 . S
C1441 H1417 0.951 . S
C1441 C1442 1.366 . S
C1441 C1443 1.388 . S
C1442 C1441 1.366 . S
C1442 C1446 1.385 . S
C1443 H1418 0.951 . S
C1443 C1441 1.388 . S
C1443 C1444 1.366 . S
C1444 C1443 1.366 . S
C1444 C1445 1.414 . S
C1444 C1447 1.499 . S
C1445 H1419 0.950 . S
C1445 C1444 1.414 . S
C1445 C1446 1.374 . S
C1446 H1420 0.950 . S
C1446 C1442 1.385 . S
C1446 C1445 1.374 . S
C1447 C1444 1.499 . S
C1447 C1448 1.373 . S
C1447 C1449 1.389 . S
C1448 H1421 0.950 . S
C1448 C1434 1.377 . S
C1448 C1447 1.373 . S
C1449 C1433 1.377 . S
C1449 C1447 1.389 . S
C1449 C1450 1.524 . S
C1450 C1449 1.524 . S
C1450 C1451 1.397 . S
C1450 C1455 1.363 . S
C1451 H1422 0.950 . S
C1451 C1450 1.397 . S
C1451 C1452 1.334 . S
C1452 H1423 0.950 . S
C1452 C1451 1.334 . S
C1452 C1453 1.287 . S
C1453 C1452 1.287 . S
C1453 C1454 1.524 . S
C1453 H1456 0.999 . S
C1454 H1424 0.950 . S
C1454 C1453 1.524 . S
C1454 C1455 1.415 . S
C1455 H1425 0.950 . S
C1455 C1450 1.363 . S
C1455 C1454 1.415 . S
H1456 C1453 0.999 . S
H1457 C1438 0.933 . S
H1458 C1476 0.951 . S
H1459 C1478 0.951 . S
H1460 C1480 0.950 . S
H1461 C1481 0.950 . S
H1462 C1483 0.950 . S
H1463 C1486 0.950 . S
H1464 C1487 0.950 . S
H1465 C1489 0.950 . S
H1466 C1490 0.950 . S
H1467 C1491 0.951 . S
H1468 C1493 0.951 . S
H1469 C1495 0.950 . S
H1470 C1496 0.950 . S
H1471 C1498 0.950 . S
H1472 C1501 0.950 . S
H1473 C1502 0.950 . S
H1474 C1504 0.950 . S
H1475 C1505 0.950 . S
C1476 H1458 0.951 . S
C1476 C1477 1.366 . S
C1476 C1478 1.388 . S
C1477 C1476 1.366 . S
C1477 C1481 1.385 . S
C1478 H1459 0.951 . S
C1478 C1476 1.388 . S
C1478 C1479 1.366 . S
C1479 C1478 1.366 . S
C1479 C1480 1.414 . S
C1479 C1482 1.499 . S
C1480 H1460 0.950 . S
C1480 C1479 1.414 . S
C1480 C1481 1.374 . S
C1481 H1461 0.950 . S
C1481 C1477 1.385 . S
C1481 C1480 1.374 . S
C1482 C1479 1.499 . S
C1482 C1483 1.373 . S
C1482 C1484 1.389 . S
C1483 H1462 0.950 . S
C1483 C1482 1.373 . S
C1483 C1499 1.377 . S
C1484 C1482 1.389 . S
C1484 C1485 1.524 . S
C1484 C1498 1.377 . S
C1485 C1484 1.524 . S
C1485 C1486 1.397 . S
C1485 C1490 1.363 . S
C1486 H1463 0.950 . S
C1486 C1485 1.397 . S
C1486 C1487 1.334 . S
C1487 H1464 0.950 . S
C1487 C1486 1.334 . S
C1487 C1488 1.287 . S
C1488 C1487 1.287 . S
C1488 C1489 1.524 . S
C1488 H1507 0.913 . S
C1489 H1465 0.950 . S
C1489 C1488 1.524 . S
C1489 C1490 1.415 . S
C1490 H1466 0.950 . S
C1490 C1485 1.363 . S
C1490 C1489 1.415 . S
C1491 H1467 0.951 . S
C1491 C1492 1.366 . S
C1491 C1493 1.388 . S
C1492 C1491 1.366 . S
C1492 C1496 1.385 . S
C1493 H1468 0.951 . S
C1493 C1491 1.388 . S
C1493 C1494 1.366 . S
C1494 C1493 1.366 . S
C1494 C1495 1.414 . S
C1494 C1497 1.499 . S
C1495 H1469 0.950 . S
C1495 C1494 1.414 . S
C1495 C1496 1.374 . S
C1496 H1470 0.950 . S
C1496 C1492 1.385 . S
C1496 C1495 1.374 . S
C1497 C1494 1.499 . S
C1497 C1498 1.373 . S
C1497 C1499 1.389 . S
C1498 H1471 0.950 . S
C1498 C1484 1.377 . S
C1498 C1497 1.373 . S
C1499 C1483 1.377 . S
C1499 C1497 1.389 . S
C1499 C1500 1.524 . S
C1500 C1499 1.524 . S
C1500 C1501 1.397 . S
C1500 C1505 1.363 . S
C1501 H1472 0.950 . S
C1501 C1500 1.397 . S
C1501 C1502 1.334 . S
C1502 H1473 0.950 . S
C1502 C1501 1.334 . S
C1502 C1503 1.287 . S
C1503 C1502 1.287 . S
C1503 C1504 1.524 . S
C1503 H1506 0.999 . S
C1504 H1474 0.950 . S
C1504 C1503 1.524 . S
C1504 C1505 1.415 . S
C1505 H1475 0.950 . S
C1505 C1500 1.363 . S
C1505 C1504 1.415 . S
H1506 C1503 0.999 . S
H1507 C1488 0.913 . S
H1508 C1526 0.951 . S
H1509 C1528 0.951 . S
H1510 C1530 0.950 . S
H1511 C1531 0.950 . S
H1512 C1533 0.950 . S
H1513 C1536 0.950 . S
H1514 C1537 0.950 . S
H1515 C1539 0.950 . S
H1516 C1540 0.950 . S
H1517 C1541 0.951 . S
H1518 C1543 0.951 . S
H1519 C1545 0.950 . S
H1520 C1546 0.950 . S
H1521 C1548 0.950 . S
H1522 C1551 0.950 . S
H1523 C1552 0.950 . S
H1524 C1554 0.950 . S
H1525 C1555 0.950 . S
C1526 H1508 0.951 . S
C1526 C1527 1.366 . S
C1526 C1528 1.388 . S
C1527 C1526 1.366 . S
C1527 C1531 1.385 . S
C1528 H1509 0.951 . S
C1528 C1526 1.388 . S
C1528 C1529 1.366 . S
C1529 C1528 1.366 . S
C1529 C1530 1.414 . S
C1529 C1532 1.499 . S
C1530 H1510 0.950 . S
C1530 C1529 1.414 . S
C1530 C1531 1.374 . S
C1531 H1511 0.950 . S
C1531 C1527 1.385 . S
C1531 C1530 1.374 . S
C1532 C1529 1.499 . S
C1532 C1533 1.373 . S
C1532 C1534 1.389 . S
C1533 H1512 0.950 . S
C1533 C1532 1.373 . S
C1533 C1549 1.377 . S
C1534 C1532 1.389 . S
C1534 C1535 1.524 . S
C1534 C1548 1.377 . S
C1535 C1534 1.524 . S
C1535 C1536 1.397 . S
C1535 C1540 1.363 . S
C1536 H1513 0.950 . S
C1536 C1535 1.397 . S
C1536 C1537 1.334 . S
C1537 H1514 0.950 . S
C1537 C1536 1.334 . S
C1537 C1538 1.287 . S
C1538 C1537 1.287 . S
C1538 C1539 1.524 . S
C1538 H1557 0.913 . S
C1539 H1515 0.950 . S
C1539 C1538 1.524 . S
C1539 C1540 1.415 . S
C1540 H1516 0.950 . S
C1540 C1535 1.363 . S
C1540 C1539 1.415 . S
C1541 H1517 0.951 . S
C1541 C1542 1.366 . S
C1541 C1543 1.388 . S
C1542 C1541 1.366 . S
C1542 C1546 1.385 . S
C1543 H1518 0.951 . S
C1543 C1541 1.388 . S
C1543 C1544 1.366 . S
C1544 C1543 1.366 . S
C1544 C1545 1.414 . S
C1544 C1547 1.499 . S
C1545 H1519 0.950 . S
C1545 C1544 1.414 . S
C1545 C1546 1.374 . S
C1546 H1520 0.950 . S
C1546 C1542 1.385 . S
C1546 C1545 1.374 . S
C1547 C1544 1.499 . S
C1547 C1548 1.373 . S
C1547 C1549 1.389 . S
C1548 H1521 0.950 . S
C1548 C1534 1.377 . S
C1548 C1547 1.373 . S
C1549 C1533 1.377 . S
C1549 C1547 1.389 . S
C1549 C1550 1.524 . S
C1550 C1549 1.524 . S
C1550 C1551 1.397 . S
C1550 C1555 1.363 . S
C1551 H1522 0.950 . S
C1551 C1550 1.397 . S
C1551 C1552 1.334 . S
C1552 H1523 0.950 . S
C1552 C1551 1.334 . S
C1552 C1553 1.287 . S
C1553 C1552 1.287 . S
C1553 C1554 1.524 . S
C1553 H1556 0.999 . S
C1554 H1524 0.950 . S
C1554 C1553 1.524 . S
C1554 C1555 1.415 . S
C1555 H1525 0.950 . S
C1555 C1550 1.363 . S
C1555 C1554 1.415 . S
H1556 C1553 0.999 . S
H1557 C1538 0.913 . S
H1558 C1576 0.951 . S
H1559 C1578 0.951 . S
H1560 C1580 0.950 . S
H1561 C1581 0.950 . S
H1562 C1583 0.950 . S
H1563 C1586 0.950 . S
H1564 C1587 0.950 . S
H1565 C1589 0.950 . S
H1566 C1590 0.950 . S
H1567 C1591 0.951 . S
H1568 C1593 0.951 . S
H1569 C1595 0.950 . S
H1570 C1596 0.950 . S
H1571 C1598 0.950 . S
H1572 C1601 0.950 . S
H1573 C1602 0.950 . S
H1574 C1604 0.950 . S
H1575 C1605 0.950 . S
C1576 H1558 0.951 . S
C1576 C1577 1.366 . S
C1576 C1578 1.388 . S
C1577 C1576 1.366 . S
C1577 C1581 1.385 . S
C1578 H1559 0.951 . S
C1578 C1576 1.388 . S
C1578 C1579 1.366 . S
C1579 C1578 1.366 . S
C1579 C1580 1.414 . S
C1579 C1582 1.499 . S
C1580 H1560 0.950 . S
C1580 C1579 1.414 . S
C1580 C1581 1.374 . S
C1581 H1561 0.950 . S
C1581 C1577 1.385 . S
C1581 C1580 1.374 . S
C1582 C1579 1.499 . S
C1582 C1583 1.373 . S
C1582 C1584 1.389 . S
C1583 H1562 0.950 . S
C1583 C1582 1.373 . S
C1583 C1599 1.377 . S
C1584 C1582 1.389 . S
C1584 C1585 1.524 . S
C1584 C1598 1.377 . S
C1585 C1584 1.524 . S
C1585 C1586 1.397 . S
C1585 C1590 1.363 . S
C1586 H1563 0.950 . S
C1586 C1585 1.397 . S
C1586 C1587 1.334 . S
C1587 H1564 0.950 . S
C1587 C1586 1.334 . S
C1587 C1588 1.287 . S
C1588 C1587 1.287 . S
C1588 C1589 1.524 . S
C1588 H1607 0.913 . S
C1589 H1565 0.950 . S
C1589 C1588 1.524 . S
C1589 C1590 1.415 . S
C1590 H1566 0.950 . S
C1590 C1585 1.363 . S
C1590 C1589 1.415 . S
C1591 H1567 0.951 . S
C1591 C1592 1.366 . S
C1591 C1593 1.388 . S
C1592 C1591 1.366 . S
C1592 C1596 1.385 . S
C1593 H1568 0.951 . S
C1593 C1591 1.388 . S
C1593 C1594 1.366 . S
C1594 C1593 1.366 . S
C1594 C1595 1.414 . S
C1594 C1597 1.499 . S
C1595 H1569 0.950 . S
C1595 C1594 1.414 . S
C1595 C1596 1.374 . S
C1596 H1570 0.950 . S
C1596 C1592 1.385 . S
C1596 C1595 1.374 . S
C1597 C1594 1.499 . S
C1597 C1598 1.373 . S
C1597 C1599 1.389 . S
C1598 H1571 0.950 . S
C1598 C1584 1.377 . S
C1598 C1597 1.373 . S
C1599 C1583 1.377 . S
C1599 C1597 1.389 . S
C1599 C1600 1.524 . S
C1600 C1599 1.524 . S
C1600 C1601 1.397 . S
C1600 C1605 1.363 . S
C1601 H1572 0.950 . S
C1601 C1600 1.397 . S
C1601 C1602 1.334 . S
C1602 H1573 0.950 . S
C1602 C1601 1.334 . S
C1602 C1603 1.287 . S
C1603 C1602 1.287 . S
C1603 C1604 1.524 . S
C1603 H1606 0.999 1_545 S
C1604 H1574 0.950 . S
C1604 C1603 1.524 . S
C1604 C1605 1.415 . S
C1605 H1575 0.950 . S
C1605 C1600 1.363 . S
C1605 C1604 1.415 . S
H1606 C1603 0.999 1_565 S
H1607 C1588 0.913 . S
H1608 C1626 0.951 . S
H1609 C1628 0.951 . S
H1610 C1630 0.950 . S
H1611 C1631 0.950 . S
H1612 C1633 0.950 . S
H1613 C1636 0.950 . S
H1614 C1637 0.950 . S
H1615 C1639 0.950 . S
H1616 C1640 0.950 . S
H1617 C1641 0.951 . S
H1618 C1643 0.951 . S
H1619 C1645 0.950 . S
H1620 C1646 0.950 . S
H1621 C1648 0.950 . S
H1622 C1651 0.950 . S
H1623 C1652 0.950 . S
H1624 C1654 0.950 . S
H1625 C1655 0.950 . S
C1626 H1608 0.951 . S
C1626 C1627 1.366 . S
C1626 C1628 1.388 . S
C1627 C1626 1.366 . S
C1627 C1631 1.385 . S
C1628 H1609 0.951 . S
C1628 C1626 1.388 . S
C1628 C1629 1.366 . S
C1629 C1628 1.366 . S
C1629 C1630 1.414 . S
C1629 C1632 1.499 . S
C1630 H1610 0.950 . S
C1630 C1629 1.414 . S
C1630 C1631 1.374 . S
C1631 H1611 0.950 . S
C1631 C1627 1.385 . S
C1631 C1630 1.374 . S
C1632 C1629 1.499 . S
C1632 C1633 1.373 . S
C1632 C1634 1.389 . S
C1633 H1612 0.950 . S
C1633 C1632 1.373 . S
C1633 C1649 1.377 . S
C1634 C1632 1.389 . S
C1634 C1635 1.524 . S
C1634 C1648 1.377 . S
C1635 C1634 1.524 . S
C1635 C1636 1.397 . S
C1635 C1640 1.363 . S
C1636 H1613 0.950 . S
C1636 C1635 1.397 . S
C1636 C1637 1.334 . S
C1637 H1614 0.950 . S
C1637 C1636 1.334 . S
C1637 C1638 1.287 . S
C1638 C1637 1.287 . S
C1638 C1639 1.524 . S
C1638 H1657 0.913 . S
C1639 H1615 0.950 . S
C1639 C1638 1.524 . S
C1639 C1640 1.415 . S
C1640 H1616 0.950 . S
C1640 C1635 1.363 . S
C1640 C1639 1.415 . S
C1641 H1617 0.951 . S
C1641 C1642 1.366 . S
C1641 C1643 1.388 . S
C1642 C1641 1.366 . S
C1642 C1646 1.385 . S
C1643 H1618 0.951 . S
C1643 C1641 1.388 . S
C1643 C1644 1.366 . S
C1644 C1643 1.366 . S
C1644 C1645 1.414 . S
C1644 C1647 1.499 . S
C1645 H1619 0.950 . S
C1645 C1644 1.414 . S
C1645 C1646 1.374 . S
C1646 H1620 0.950 . S
C1646 C1642 1.385 . S
C1646 C1645 1.374 . S
C1647 C1644 1.499 . S
C1647 C1648 1.373 . S
C1647 C1649 1.389 . S
C1648 H1621 0.950 . S
C1648 C1634 1.377 . S
C1648 C1647 1.373 . S
C1649 C1633 1.377 . S
C1649 C1647 1.389 . S
C1649 C1650 1.524 . S
C1650 C1649 1.524 . S
C1650 C1651 1.397 . S
C1650 C1655 1.363 . S
C1651 H1622 0.950 . S
C1651 C1650 1.397 . S
C1651 C1652 1.334 . S
C1652 H1623 0.950 . S
C1652 C1651 1.334 . S
C1652 C1653 1.287 . S
C1653 C1652 1.287 . S
C1653 C1654 1.524 . S
C1653 H1656 0.999 . S
C1654 H1624 0.950 . S
C1654 C1653 1.524 . S
C1654 C1655 1.415 . S
C1655 H1625 0.950 . S
C1655 C1650 1.363 . S
C1655 C1654 1.415 . S
H1656 C1653 0.999 . S
H1657 C1638 0.913 . S
H1658 C1676 0.951 . S
H1659 C1678 0.951 . S
H1660 C1680 0.950 . S
H1661 C1681 0.950 . S
H1662 C1683 0.950 . S
H1663 C1686 0.950 . S
H1664 C1687 0.950 . S
H1665 C1689 0.950 . S
H1666 C1690 0.950 . S
H1667 C1691 0.951 . S
H1668 C1693 0.951 . S
H1669 C1695 0.950 . S
H1670 C1696 0.950 . S
H1671 C1698 0.950 . S
H1672 C1701 0.950 . S
H1673 C1702 0.950 . S
H1674 C1704 0.950 . S
H1675 C1705 0.950 . S
C1676 H1658 0.951 . S
C1676 C1677 1.366 . S
C1676 C1678 1.388 . S
C1677 C1676 1.366 . S
C1677 C1681 1.385 . S
C1678 H1659 0.951 . S
C1678 C1676 1.388 . S
C1678 C1679 1.366 . S
C1679 C1678 1.366 . S
C1679 C1680 1.414 . S
C1679 C1682 1.499 . S
C1680 H1660 0.950 . S
C1680 C1679 1.414 . S
C1680 C1681 1.374 . S
C1681 H1661 0.950 . S
C1681 C1677 1.385 . S
C1681 C1680 1.374 . S
C1682 C1679 1.499 . S
C1682 C1683 1.373 . S
C1682 C1684 1.389 . S
C1683 H1662 0.950 . S
C1683 C1682 1.373 . S
C1683 C1699 1.377 . S
C1684 C1682 1.389 . S
C1684 C1685 1.524 . S
C1684 C1698 1.377 . S
C1685 C1684 1.524 . S
C1685 C1686 1.397 . S
C1685 C1690 1.363 . S
C1686 H1663 0.950 . S
C1686 C1685 1.397 . S
C1686 C1687 1.334 . S
C1687 H1664 0.950 . S
C1687 C1686 1.334 . S
C1687 C1688 1.287 . S
C1688 C1687 1.287 . S
C1688 C1689 1.524 . S
C1688 H1707 0.913 . S
C1689 H1665 0.950 . S
C1689 C1688 1.524 . S
C1689 C1690 1.415 . S
C1690 H1666 0.950 . S
C1690 C1685 1.363 . S
C1690 C1689 1.415 . S
C1691 H1667 0.951 . S
C1691 C1692 1.366 . S
C1691 C1693 1.388 . S
C1692 C1691 1.366 . S
C1692 C1696 1.385 . S
C1693 H1668 0.951 . S
C1693 C1691 1.388 . S
C1693 C1694 1.366 . S
C1694 C1693 1.366 . S
C1694 C1695 1.414 . S
C1694 C1697 1.499 . S
C1695 H1669 0.950 . S
C1695 C1694 1.414 . S
C1695 C1696 1.374 . S
C1696 H1670 0.950 . S
C1696 C1692 1.385 . S
C1696 C1695 1.374 . S
C1697 C1694 1.499 . S
C1697 C1698 1.373 . S
C1697 C1699 1.389 . S
C1698 H1671 0.950 . S
C1698 C1684 1.377 . S
C1698 C1697 1.373 . S
C1699 C1683 1.377 . S
C1699 C1697 1.389 . S
C1699 C1700 1.524 . S
C1700 C1699 1.524 . S
C1700 C1701 1.397 . S
C1700 C1705 1.363 . S
C1701 H1672 0.950 . S
C1701 C1700 1.397 . S
C1701 C1702 1.334 . S
C1702 H1673 0.950 . S
C1702 C1701 1.334 . S
C1702 C1703 1.287 . S
C1703 C1702 1.287 . S
C1703 C1704 1.524 . S
C1703 H1706 0.999 . S
C1704 H1674 0.950 . S
C1704 C1703 1.524 . S
C1704 C1705 1.415 . S
C1705 H1675 0.950 . S
C1705 C1700 1.363 . S
C1705 C1704 1.415 . S
H1706 C1703 0.999 . S
H1707 C1688 0.913 . S
H1708 C1726 0.951 . S
H1709 C1728 0.951 . S
H1710 C1730 0.950 . S
H1711 C1731 0.950 . S
H1712 C1733 0.950 . S
H1713 C1736 0.950 . S
H1714 C1737 0.950 . S
H1715 C1739 0.950 . S
H1716 C1740 0.950 . S
H1717 C1741 0.951 . S
H1718 C1743 0.951 . S
H1719 C1745 0.950 . S
H1720 C1746 0.950 . S
H1721 C1748 0.950 . S
H1722 C1751 0.950 . S
H1723 C1752 0.950 . S
H1724 C1754 0.950 . S
H1725 C1755 0.950 . S
C1726 H1708 0.951 . S
C1726 C1727 1.366 . S
C1726 C1728 1.388 . S
C1727 C1726 1.366 . S
C1727 C1731 1.385 . S
C1728 H1709 0.951 . S
C1728 C1726 1.388 . S
C1728 C1729 1.366 . S
C1729 C1728 1.366 . S
C1729 C1730 1.414 . S
C1729 C1732 1.499 . S
C1730 H1710 0.950 . S
C1730 C1729 1.414 . S
C1730 C1731 1.374 . S
C1731 H1711 0.950 . S
C1731 C1727 1.385 . S
C1731 C1730 1.374 . S
C1732 C1729 1.499 . S
C1732 C1733 1.373 . S
C1732 C1734 1.389 . S
C1733 H1712 0.950 . S
C1733 C1732 1.373 . S
C1733 C1749 1.377 . S
C1734 C1732 1.389 . S
C1734 C1735 1.524 . S
C1734 C1748 1.377 . S
C1735 C1734 1.524 . S
C1735 C1736 1.397 . S
C1735 C1740 1.363 . S
C1736 H1713 0.950 . S
C1736 C1735 1.397 . S
C1736 C1737 1.334 . S
C1737 H1714 0.950 . S
C1737 C1736 1.334 . S
C1737 C1738 1.287 . S
C1738 C1737 1.287 . S
C1738 C1739 1.524 . S
C1738 H1757 0.913 . S
C1739 H1715 0.950 . S
C1739 C1738 1.524 . S
C1739 C1740 1.415 . S
C1740 H1716 0.950 . S
C1740 C1735 1.363 . S
C1740 C1739 1.415 . S
C1741 H1717 0.951 . S
C1741 C1742 1.366 . S
C1741 C1743 1.388 . S
C1742 C1741 1.366 . S
C1742 C1746 1.385 . S
C1743 H1718 0.951 . S
C1743 C1741 1.388 . S
C1743 C1744 1.366 . S
C1744 C1743 1.366 . S
C1744 C1745 1.414 . S
C1744 C1747 1.499 . S
C1745 H1719 0.950 . S
C1745 C1744 1.414 . S
C1745 C1746 1.374 . S
C1746 H1720 0.950 . S
C1746 C1742 1.385 . S
C1746 C1745 1.374 . S
C1747 C1744 1.499 . S
C1747 C1748 1.373 . S
C1747 C1749 1.389 . S
C1748 H1721 0.950 . S
C1748 C1734 1.377 . S
C1748 C1747 1.373 . S
C1749 C1733 1.377 . S
C1749 C1747 1.389 . S
C1749 C1750 1.524 . S
C1750 C1749 1.524 . S
C1750 C1751 1.397 . S
C1750 C1755 1.363 . S
C1751 H1722 0.950 . S
C1751 C1750 1.397 . S
C1751 C1752 1.334 . S
C1752 H1723 0.950 . S
C1752 C1751 1.334 . S
C1752 C1753 1.287 . S
C1753 C1752 1.287 . S
C1753 C1754 1.524 . S
C1753 H1756 0.999 . S
C1754 H1724 0.950 . S
C1754 C1753 1.524 . S
C1754 C1755 1.415 . S
C1755 H1725 0.950 . S
C1755 C1750 1.363 . S
C1755 C1754 1.415 . S
H1756 C1753 0.999 . S
H1757 C1738 0.913 . S
H1758 C1776 0.951 . S
H1759 C1778 0.951 . S
H1760 C1780 0.950 . S
H1761 C1781 0.950 . S
H1762 C1783 0.950 . S
H1763 C1786 0.950 . S
H1764 C1787 0.950 . S
H1765 C1789 0.950 . S
H1766 C1790 0.950 . S
H1767 C1791 0.951 . S
H1768 C1793 0.951 . S
H1769 C1795 0.950 . S
H1770 C1796 0.950 . S
H1771 C1798 0.950 . S
H1772 C1801 0.950 . S
H1773 C1802 0.950 . S
H1774 C1804 0.950 . S
H1775 C1805 0.950 . S
C1776 H1758 0.951 . S
C1776 C1777 1.366 . S
C1776 C1778 1.388 . S
C1777 C1776 1.366 . S
C1777 C1781 1.385 . S
C1778 H1759 0.951 . S
C1778 C1776 1.388 . S
C1778 C1779 1.366 . S
C1779 C1778 1.366 . S
C1779 C1780 1.414 . S
C1779 C1782 1.499 . S
C1780 H1760 0.950 . S
C1780 C1779 1.414 . S
C1780 C1781 1.374 . S
C1781 H1761 0.950 . S
C1781 C1777 1.385 . S
C1781 C1780 1.374 . S
C1782 C1779 1.499 . S
C1782 C1783 1.373 . S
C1782 C1784 1.389 . S
C1783 H1762 0.950 . S
C1783 C1782 1.373 . S
C1783 C1799 1.377 . S
C1784 C1782 1.389 . S
C1784 C1785 1.524 . S
C1784 C1798 1.377 . S
C1785 C1784 1.524 . S
C1785 C1786 1.397 . S
C1785 C1790 1.363 . S
C1786 H1763 0.950 . S
C1786 C1785 1.397 . S
C1786 C1787 1.334 . S
C1787 H1764 0.950 . S
C1787 C1786 1.334 . S
C1787 C1788 1.287 . S
C1788 C1787 1.287 . S
C1788 C1789 1.524 . S
C1788 H1807 0.913 . S
C1789 H1765 0.950 . S
C1789 C1788 1.524 . S
C1789 C1790 1.415 . S
C1790 H1766 0.950 . S
C1790 C1785 1.363 . S
C1790 C1789 1.415 . S
C1791 H1767 0.951 . S
C1791 C1792 1.366 . S
C1791 C1793 1.388 . S
C1792 C1791 1.366 . S
C1792 C1796 1.385 . S
C1793 H1768 0.951 . S
C1793 C1791 1.388 . S
C1793 C1794 1.366 . S
C1794 C1793 1.366 . S
C1794 C1795 1.414 . S
C1794 C1797 1.499 . S
C1795 H1769 0.950 . S
C1795 C1794 1.414 . S
C1795 C1796 1.374 . S
C1796 H1770 0.950 . S
C1796 C1792 1.385 . S
C1796 C1795 1.374 . S
C1797 C1794 1.499 . S
C1797 C1798 1.373 . S
C1797 C1799 1.389 . S
C1798 H1771 0.950 . S
C1798 C1784 1.377 . S
C1798 C1797 1.373 . S
C1799 C1783 1.377 . S
C1799 C1797 1.389 . S
C1799 C1800 1.524 . S
C1800 C1799 1.524 . S
C1800 C1801 1.397 . S
C1800 C1805 1.363 . S
C1801 H1772 0.950 . S
C1801 C1800 1.397 . S
C1801 C1802 1.334 . S
C1802 H1773 0.950 . S
C1802 C1801 1.334 . S
C1802 C1803 1.287 . S
C1803 C1802 1.287 . S
C1803 C1804 1.524 . S
C1803 H1806 0.999 . S
C1804 H1774 0.950 . S
C1804 C1803 1.524 . S
C1804 C1805 1.415 . S
C1805 H1775 0.950 . S
C1805 C1800 1.363 . S
C1805 C1804 1.415 . S
H1806 C1803 0.999 . S
H1807 C1788 0.913 . S
H1808 C1826 0.951 . S
H1809 C1828 0.951 . S
H1810 C1830 0.950 . S
H1811 C1831 0.950 . S
H1812 C1833 0.950 . S
H1813 C1836 0.950 . S
H1814 C1837 0.950 . S
H1815 C1839 0.950 . S
H1816 C1840 0.950 . S
H1817 C1841 0.951 . S
H1818 C1843 0.951 . S
H1819 C1845 0.950 . S
H1820 C1846 0.950 . S
H1821 C1848 0.950 . S
H1822 C1851 0.950 . S
H1823 C1852 0.950 . S
H1824 C1854 0.950 . S
H1825 C1855 0.950 . S
C1826 H1808 0.951 . S
C1826 C1827 1.366 . S
C1826 C1828 1.388 . S
C1827 C1826 1.366 . S
C1827 C1831 1.385 . S
C1828 H1809 0.951 . S
C1828 C1826 1.388 . S
C1828 C1829 1.366 . S
C1829 C1828 1.366 . S
C1829 C1830 1.414 . S
C1829 C1832 1.499 . S
C1830 H1810 0.950 . S
C1830 C1829 1.414 . S
C1830 C1831 1.374 . S
C1831 H1811 0.950 . S
C1831 C1827 1.385 . S
C1831 C1830 1.374 . S
C1832 C1829 1.499 . S
C1832 C1833 1.373 . S
C1832 C1834 1.389 . S
C1833 H1812 0.950 . S
C1833 C1832 1.373 . S
C1833 C1849 1.377 . S
C1834 C1832 1.389 . S
C1834 C1835 1.524 . S
C1834 C1848 1.377 . S
C1835 C1834 1.524 . S
C1835 C1836 1.397 . S
C1835 C1840 1.363 . S
C1836 H1813 0.950 . S
C1836 C1835 1.397 . S
C1836 C1837 1.334 . S
C1837 H1814 0.950 . S
C1837 C1836 1.334 . S
C1837 C1838 1.287 . S
C1838 C1837 1.287 . S
C1838 C1839 1.524 . S
C1838 H1857 0.913 . S
C1839 H1815 0.950 . S
C1839 C1838 1.524 . S
C1839 C1840 1.415 . S
C1840 H1816 0.950 . S
C1840 C1835 1.363 . S
C1840 C1839 1.415 . S
C1841 H1817 0.951 . S
C1841 C1842 1.366 . S
C1841 C1843 1.388 . S
C1842 C1841 1.366 . S
C1842 C1846 1.385 . S
C1843 H1818 0.951 . S
C1843 C1841 1.388 . S
C1843 C1844 1.366 . S
C1844 C1843 1.366 . S
C1844 C1845 1.414 . S
C1844 C1847 1.499 . S
C1845 H1819 0.950 . S
C1845 C1844 1.414 . S
C1845 C1846 1.374 . S
C1846 H1820 0.950 . S
C1846 C1842 1.385 . S
C1846 C1845 1.374 . S
C1847 C1844 1.499 . S
C1847 C1848 1.373 . S
C1847 C1849 1.389 . S
C1848 H1821 0.950 . S
C1848 C1834 1.377 . S
C1848 C1847 1.373 . S
C1849 C1833 1.377 . S
C1849 C1847 1.389 . S
C1849 C1850 1.524 . S
C1850 C1849 1.524 . S
C1850 C1851 1.397 . S
C1850 C1855 1.363 . S
C1851 H1822 0.950 . S
C1851 C1850 1.397 . S
C1851 C1852 1.334 . S
C1852 H1823 0.950 . S
C1852 C1851 1.334 . S
C1852 C1853 1.287 . S
C1853 C1852 1.287 . S
C1853 C1854 1.524 . S
C1853 H1856 0.999 . S
C1854 H1824 0.950 . S
C1854 C1853 1.524 . S
C1854 C1855 1.415 . S
C1855 H1825 0.950 . S
C1855 C1850 1.363 . S
C1855 C1854 1.415 . S
H1856 C1853 0.999 . S
H1857 C1838 0.913 . S
H1858 C1876 0.951 . S
H1859 C1878 0.951 . S
H1860 C1880 0.950 . S
H1861 C1881 0.950 . S
H1862 C1883 0.950 . S
H1863 C1886 0.950 . S
H1864 C1887 0.950 . S
H1865 C1889 0.950 . S
H1866 C1890 0.950 . S
H1867 C1891 0.951 . S
H1868 C1893 0.951 . S
H1869 C1895 0.950 . S
H1870 C1896 0.950 . S
H1871 C1898 0.950 . S
H1872 C1901 0.950 . S
H1873 C1902 0.950 . S
H1874 C1904 0.950 . S
H1875 C1905 0.950 . S
C1876 H1858 0.951 . S
C1876 C1877 1.366 . S
C1876 C1878 1.388 . S
C1877 C1876 1.366 . S
C1877 C1881 1.385 . S
C1878 H1859 0.951 . S
C1878 C1876 1.388 . S
C1878 C1879 1.366 . S
C1879 C1878 1.366 . S
C1879 C1880 1.414 . S
C1879 C1882 1.499 . S
C1880 H1860 0.950 . S
C1880 C1879 1.414 . S
C1880 C1881 1.374 . S
C1881 H1861 0.950 . S
C1881 C1877 1.385 . S
C1881 C1880 1.374 . S
C1882 C1879 1.499 . S
C1882 C1883 1.373 . S
C1882 C1884 1.389 . S
C1883 H1862 0.950 . S
C1883 C1882 1.373 . S
C1883 C1899 1.377 . S
C1884 C1882 1.389 . S
C1884 C1885 1.524 . S
C1884 C1898 1.377 . S
C1885 C1884 1.524 . S
C1885 C1886 1.397 . S
C1885 C1890 1.363 . S
C1886 H1863 0.950 . S
C1886 C1885 1.397 . S
C1886 C1887 1.334 . S
C1887 H1864 0.950 . S
C1887 C1886 1.334 . S
C1887 C1888 1.287 . S
C1888 C1887 1.287 . S
C1888 C1889 1.524 . S
C1888 H1907 0.913 . S
C1889 H1865 0.950 . S
C1889 C1888 1.524 . S
C1889 C1890 1.415 . S
C1890 H1866 0.950 . S
C1890 C1885 1.363 . S
C1890 C1889 1.415 . S
C1891 H1867 0.951 . S
C1891 C1892 1.366 . S
C1891 C1893 1.388 . S
C1892 C1891 1.366 . S
C1892 C1896 1.385 . S
C1893 H1868 0.951 . S
C1893 C1891 1.388 . S
C1893 C1894 1.366 . S
C1894 C1893 1.366 . S
C1894 C1895 1.414 . S
C1894 C1897 1.499 . S
C1895 H1869 0.950 . S
C1895 C1894 1.414 . S
C1895 C1896 1.374 . S
C1896 H1870 0.950 . S
C1896 C1892 1.385 . S
C1896 C1895 1.374 . S
C1897 C1894 1.499 . S
C1897 C1898 1.373 . S
C1897 C1899 1.389 . S
C1898 H1871 0.950 . S
C1898 C1884 1.377 . S
C1898 C1897 1.373 . S
C1899 C1883 1.377 . S
C1899 C1897 1.389 . S
C1899 C1900 1.524 . S
C1900 C1899 1.524 . S
C1900 C1901 1.397 . S
C1900 C1905 1.363 . S
C1901 H1872 0.950 . S
C1901 C1900 1.397 . S
C1901 C1902 1.334 . S
C1902 H1873 0.950 . S
C1902 C1901 1.334 . S
C1902 C1903 1.287 . S
C1903 C1902 1.287 . S
C1903 C1904 1.524 . S
C1903 H1906 0.999 . S
C1904 H1874 0.950 . S
C1904 C1903 1.524 . S
C1904 C1905 1.415 . S
C1905 H1875 0.950 . S
C1905 C1900 1.363 . S
C1905 C1904 1.415 . S
H1906 C1903 0.999 . S
H1907 C1888 0.913 . S
C427 C373 1.178 . S
C442 C9 1.074 1_556 S
C477 C43 1.074 1_556 S
C492 C407 1.178 . S
C527 C339 1.178 . S
C542 C77 1.075 1_556 S
C577 C111 1.076 . S
C592 C305 1.177 . S
C627 C145 1.075 . S
C642 C237 1.177 . S
C677 C179 1.076 . S
C692 C271 1.177 . S
C727 C169 1.178 . S
C742 C213 1.075 1_554 S
C777 C203 1.178 . S
C792 C247 1.074 1_554 S
C827 C135 1.177 . S
C842 C281 1.075 1_554 S
C877 C101 1.178 . S
C892 C315 1.074 . S
C927 C349 1.076 . S
C942 C33 1.177 . S
C977 C67 1.178 . S
C992 C383 1.074 . S
C1027 C224 1.037 . S
C1042 C20 1.037 . S
C1077 C54 1.038 . S
C1092 C258 1.038 . S
C1127 C292 1.037 . S
C1142 C88 1.037 . S
C1177 C122 1.037 . S
C1192 C326 1.037 . S
C1227 C156 1.038 . S
C1242 C360 1.038 . S
C1277 C394 1.037 . S
C1292 C190 1.037 . S
C1327 C5 0.441 . S
C1342 C141 0.442 . S
C1377 C39 0.444 . S
C1392 C175 0.444 . S
C1427 C73 0.444 . S
C1442 C107 0.444 . S
C1477 C345 0.441 . S
C1492 C209 0.441 . S
C1527 C243 0.445 . S
C1542 C379 0.445 . S
C1577 C277 0.442 . S
C1592 C311 0.443 . S
C1627 C172 1.288 . S
C1642 C2 1.288 . S
C1677 C104 1.289 . S
C1692 C36 1.288 . S
C1727 C70 1.288 . S
C1742 C138 1.288 . S
C1777 C206 1.289 . S
C1792 C376 1.289 . S
C1827 C308 1.289 . S
C1842 C240 1.288 . S
C1877 C342 1.289 . S
C1892 C274 1.289 . S
