# Generated by pormake.
# Topology vbm, (6)-cn, num edge types: 1
# Building blocks:
#     Node 0, Type 0, BuildingBlock: MIFKUJ_clean_sbu_0, # of connection points: 6
#     Node 1, Type 0, BuildingBlock: MIFKUJ_clean_sbu_0, # of connection points: 6
#     Node 2, Type 0, BuildingBlock: MIFKUJ_clean_sbu_0, # of connection points: 6
#     Node 3, Type 0, BuildingBlock: MIFKUJ_clean_sbu_0, # of connection points: 6
#     Node 4, Type 0, BuildingBlock: MIFKUJ_clean_sbu_0, # of connection points: 6
#     Node 5, Type 0, BuildingBlock: MIFKUJ_clean_sbu_0, # of connection points: 6
#     Node 6, Type 0, BuildingBlock: MIFKUJ_clean_sbu_0, # of connection points: 6
#     Node 7, Type 0, BuildingBlock: MIFKUJ_clean_sbu_0, # of connection points: 6
#     Node 8, Type 0, BuildingBlock: MIFKUJ_clean_sbu_0, # of connection points: 6
#     Node 9, Type 0, BuildingBlock: MIFKUJ_clean_sbu_0, # of connection points: 6
#     Node 10, Type 0, BuildingBlock: MIFKUJ_clean_sbu_0, # of connection points: 6
#     Node 11, Type 0, BuildingBlock: MIFKUJ_clean_sbu_0, # of connection points: 6
#     Node 12, Type 0, BuildingBlock: MIFKUJ_clean_sbu_0, # of connection points: 6
#     Node 13, Type 0, BuildingBlock: MIFKUJ_clean_sbu_0, # of connection points: 6
#     Node 14, Type 0, BuildingBlock: MIFKUJ_clean_sbu_0, # of connection points: 6
#     Node 15, Type 0, BuildingBlock: MIFKUJ_clean_sbu_0, # of connection points: 6
#     Edge 16, Type (0, 0), BuildingBlock: TEMPAE_clean_linker_10, # of connection points: 2
#     Edge 17, Type (0, 0), BuildingBlock: TEMPAE_clean_linker_10, # of connection points: 2
#     Edge 18, Type (0, 0), BuildingBlock: TEMPAE_clean_linker_10, # of connection points: 2
#     Edge 19, Type (0, 0), BuildingBlock: TEMPAE_clean_linker_10, # of connection points: 2
#     Edge 20, Type (0, 0), BuildingBlock: TEMPAE_clean_linker_10, # of connection points: 2
#     Edge 21, Type (0, 0), BuildingBlock: TEMPAE_clean_linker_10, # of connection points: 2
#     Edge 22, Type (0, 0), BuildingBlock: TEMPAE_clean_linker_10, # of connection points: 2
#     Edge 23, Type (0, 0), BuildingBlock: TEMPAE_clean_linker_10, # of connection points: 2
#     Edge 24, Type (0, 0), BuildingBlock: TEMPAE_clean_linker_10, # of connection points: 2
#     Edge 25, Type (0, 0), BuildingBlock: TEMPAE_clean_linker_10, # of connection points: 2
#     Edge 26, Type (0, 0), BuildingBlock: TEMPAE_clean_linker_10, # of connection points: 2
#     Edge 27, Type (0, 0), BuildingBlock: TEMPAE_clean_linker_10, # of connection points: 2
#     Edge 28, Type (0, 0), BuildingBlock: TEMPAE_clean_linker_10, # of connection points: 2
#     Edge 29, Type (0, 0), BuildingBlock: TEMPAE_clean_linker_10, # of connection points: 2
#     Edge 30, Type (0, 0), BuildingBlock: TEMPAE_clean_linker_10, # of connection points: 2
#     Edge 31, Type (0, 0), BuildingBlock: TEMPAE_clean_linker_10, # of connection points: 2
#     Edge 32, Type (0, 0), BuildingBlock: TEMPAE_clean_linker_10, # of connection points: 2
#     Edge 33, Type (0, 0), BuildingBlock: TEMPAE_clean_linker_10, # of connection points: 2
#     Edge 34, Type (0, 0), BuildingBlock: TEMPAE_clean_linker_10, # of connection points: 2
#     Edge 35, Type (0, 0), BuildingBlock: TEMPAE_clean_linker_10, # of connection points: 2
#     Edge 36, Type (0, 0), BuildingBlock: TEMPAE_clean_linker_10, # of connection points: 2
#     Edge 37, Type (0, 0), BuildingBlock: TEMPAE_clean_linker_10, # of connection points: 2
#     Edge 38, Type (0, 0), BuildingBlock: TEMPAE_clean_linker_10, # of connection points: 2
#     Edge 39, Type (0, 0), BuildingBlock: TEMPAE_clean_linker_10, # of connection points: 2
#     Edge 40, Type (0, 0), BuildingBlock: TEMPAE_clean_linker_10, # of connection points: 2
#     Edge 41, Type (0, 0), BuildingBlock: TEMPAE_clean_linker_10, # of connection points: 2
#     Edge 42, Type (0, 0), BuildingBlock: TEMPAE_clean_linker_10, # of connection points: 2
#     Edge 43, Type (0, 0), BuildingBlock: TEMPAE_clean_linker_10, # of connection points: 2
#     Edge 44, Type (0, 0), BuildingBlock: TEMPAE_clean_linker_10, # of connection points: 2
#     Edge 45, Type (0, 0), BuildingBlock: TEMPAE_clean_linker_10, # of connection points: 2
#     Edge 46, Type (0, 0), BuildingBlock: TEMPAE_clean_linker_10, # of connection points: 2
#     Edge 47, Type (0, 0), BuildingBlock: TEMPAE_clean_linker_10, # of connection points: 2
#     Edge 48, Type (0, 0), BuildingBlock: TEMPAE_clean_linker_10, # of connection points: 2
#     Edge 49, Type (0, 0), BuildingBlock: TEMPAE_clean_linker_10, # of connection points: 2
#     Edge 50, Type (0, 0), BuildingBlock: TEMPAE_clean_linker_10, # of connection points: 2
#     Edge 51, Type (0, 0), BuildingBlock: TEMPAE_clean_linker_10, # of connection points: 2
#     Edge 52, Type (0, 0), BuildingBlock: TEMPAE_clean_linker_10, # of connection points: 2
#     Edge 53, Type (0, 0), BuildingBlock: TEMPAE_clean_linker_10, # of connection points: 2
#     Edge 54, Type (0, 0), BuildingBlock: TEMPAE_clean_linker_10, # of connection points: 2
#     Edge 55, Type (0, 0), BuildingBlock: TEMPAE_clean_linker_10, # of connection points: 2
#     Edge 56, Type (0, 0), BuildingBlock: TEMPAE_clean_linker_10, # of connection points: 2
#     Edge 57, Type (0, 0), BuildingBlock: TEMPAE_clean_linker_10, # of connection points: 2
#     Edge 58, Type (0, 0), BuildingBlock: TEMPAE_clean_linker_10, # of connection points: 2
#     Edge 59, Type (0, 0), BuildingBlock: TEMPAE_clean_linker_10, # of connection points: 2
#     Edge 60, Type (0, 0), BuildingBlock: TEMPAE_clean_linker_10, # of connection points: 2
#     Edge 61, Type (0, 0), BuildingBlock: TEMPAE_clean_linker_10, # of connection points: 2
#     Edge 62, Type (0, 0), BuildingBlock: TEMPAE_clean_linker_10, # of connection points: 2
#     Edge 63, Type (0, 0), BuildingBlock: TEMPAE_clean_linker_10, # of connection points: 2
# Relax obj value: 0.053
# Max RMSD: 0.106
# Mean RMSD: 0.106
data_MOF--net-vbm--node1-MIFKUJ_clean_sbu_0--edge1-TEMPAE_clean_linker_10
_symmetry_space_group_name_H-M    P1
_symmetry_Int_Tables_number       1
_symmetry_cell_setting            triclinic
loop_
_symmetry_equiv_pos_as_xyz
'x, y, z'
_cell_length_a     68.071181
_cell_length_b     19.048028
_cell_length_c     55.879659
_cell_angle_alpha  89.980123
_cell_angle_beta   90.044124
_cell_angle_gamma 89.947466
loop_
_atom_site_label
_atom_site_type_symbol
_atom_site_fract_x
_atom_site_fract_y
_atom_site_fract_z
_atom_type_partial_charge
Zn0 Zn 0.14312 0.20526 0.12574 0.0
Zn1 Zn 0.11668 0.01006 0.12479 0.0
C2 C 0.18422 0.16923 0.12348 0.0
O3 O 0.17891 0.12034 0.13874 0.0
C4 C 0.07629 0.00815 0.11126 0.0
O5 O 0.08383 0.99052 0.09048 0.0
O6 O 0.13462 0.30549 0.12774 0.0
O7 O 0.12421 0.15177 0.10267 0.0
O8 O 0.12467 0.04024 0.09216 0.0
C9 C 0.13874 0.3494 0.11141 0.0
O10 O 0.14762 0.32749 0.09191 0.0
O11 O 0.1711 0.2081 0.11419 0.0
C12 C 0.11206 0.86438 0.13538 0.0
O13 O 0.09386 0.88501 0.13858 0.0
O14 O 0.12523 0.90977 0.13075 0.0
O15 O 0.12935 0.0822 0.14365 0.0
O16 O 0.14289 0.17024 0.16064 0.0
O17 O 0.0877 0.02077 0.1287 0.0
C18 C 0.12807 0.10444 0.08712 0.0
C19 C 0.13513 0.11028 0.16271 0.0
Zn20 Zn 0.85911 0.80038 0.12903 0.0
Zn21 Zn 0.89026 0.99603 0.13182 0.0
C22 C 0.82062 0.75247 0.13501 0.0
O23 O 0.82987 0.71334 0.15079 0.0
C24 C 0.92977 0.02378 0.12387 0.0
O25 O 0.92151 0.06296 0.10732 0.0
O26 O 0.86972 0.70165 0.12709 0.0
O27 O 0.87161 0.86828 0.10448 0.0
O28 O 0.88722 0.96853 0.09775 0.0
C29 C 0.86335 0.65681 0.11211 0.0
O30 O 0.85091 0.67702 0.09548 0.0
O31 O 0.83039 0.79579 0.12253 0.0
C32 C 0.8909 0.1445 0.14329 0.0
O33 O 0.90844 0.12883 0.15145 0.0
O34 O 0.87969 0.09564 0.13587 0.0
O35 O 0.87617 0.91949 0.14757 0.0
O36 O 0.86154 0.83195 0.16379 0.0
O37 O 0.91905 0.98896 0.13814 0.0
C38 C 0.87953 0.9119 0.09002 0.0
C39 C 0.87026 0.89002 0.16639 0.0
Zn40 Zn 0.13351 0.80156 0.36585 0.0
Zn41 Zn 0.12265 0.98209 0.36893 0.0
C42 C 0.1743 0.78236 0.35425 0.0
O43 O 0.16618 0.75143 0.33571 0.0
C44 C 0.0816 0.98818 0.37886 0.0
O45 O 0.0886 0.01309 0.39907 0.0
O46 O 0.12878 0.69672 0.3628 0.0
O47 O 0.12031 0.83038 0.39668 0.0
O48 O 0.13053 0.94031 0.40054 0.0
C49 C 0.13808 0.65475 0.37646 0.0
O50 O 0.15022 0.68072 0.39247 0.0
O51 O 0.1632 0.81182 0.3696 0.0
C52 C 0.12937 0.12849 0.35476 0.0
O53 O 0.1326 0.10135 0.33351 0.0
O54 O 0.12542 0.08794 0.37221 0.0
O55 O 0.13802 0.95057 0.34034 0.0
O56 O 0.12432 0.84648 0.33493 0.0
O57 O 0.09359 0.96755 0.36288 0.0
C58 C 0.12507 0.8824 0.40969 0.0
C59 C 0.13094 0.90389 0.32665 0.0
Zn60 Zn 0.85906 0.21242 0.36425 0.0
Zn61 Zn 0.89453 0.02002 0.3633 0.0
C62 C 0.81713 0.19447 0.35604 0.0
O63 O 0.8232 0.15599 0.338 0.0
C64 C 0.93436 0.97604 0.36248 0.0
O65 O 0.92601 0.91939 0.37117 0.0
O66 O 0.86961 0.31238 0.36505 0.0
O67 O 0.87211 0.14694 0.3895 0.0
O68 O 0.88997 0.05121 0.39684 0.0
C69 C 0.86197 0.35753 0.37905 0.0
O70 O 0.84877 0.33652 0.39463 0.0
O71 O 0.82974 0.22072 0.37027 0.0
C72 C 0.87502 0.88003 0.34842 0.0
O73 O 0.86466 0.91015 0.33142 0.0
O74 O 0.88639 0.917 0.36136 0.0
O75 O 0.87928 0.09197 0.34598 0.0
O76 O 0.86238 0.17598 0.3302 0.0
O77 O 0.92364 0.02835 0.35698 0.0
C78 C 0.88046 0.10483 0.40422 0.0
C79 C 0.872 0.11958 0.32748 0.0
Zn80 Zn 0.88442 0.98604 0.87107 0.0
Zn81 Zn 0.86537 0.79718 0.86645 0.0
C82 C 0.92472 0.99918 0.8771 0.0
O83 O 0.91754 0.02568 0.89697 0.0
C84 C 0.82569 0.79676 0.8479 0.0
O85 O 0.8344 0.78252 0.8275 0.0
O86 O 0.87842 0.08923 0.8734 0.0
O87 O 0.86595 0.94381 0.84757 0.0
O88 O 0.87618 0.84017 0.83627 0.0
C89 C 0.88788 0.13428 0.86122 0.0
O90 O 0.90222 0.11383 0.84716 0.0
O91 O 0.91284 0.97543 0.86151 0.0
C92 C 0.85802 0.64946 0.87144 0.0
O93 O 0.84058 0.67135 0.87811 0.0
O94 O 0.87116 0.69378 0.86571 0.0
O95 O 0.87389 0.83149 0.89893 0.0
O96 O 0.88149 0.94465 0.90355 0.0
O97 O 0.83607 0.80813 0.86635 0.0
C98 C 0.87334 0.90452 0.8317 0.0
C99 C 0.87879 0.88341 0.91187 0.0
Zn100 Zn 0.11162 0.02105 0.86894 0.0
Zn101 Zn 0.1391 0.21156 0.86511 0.0
C102 C 0.07169 0.99537 0.87055 0.0
O103 O 0.07886 0.95733 0.88813 0.0
C104 C 0.18049 0.18726 0.85319 0.0
O105 O 0.17392 0.15584 0.83386 0.0
O106 O 0.11782 0.91697 0.8714 0.0
O107 O 0.13201 0.06463 0.84778 0.0
O108 O 0.13081 0.17069 0.83346 0.0
C109 C 0.10937 0.87212 0.858 0.0
O110 O 0.09636 0.8937 0.84227 0.0
O111 O 0.08341 0.03217 0.858 0.0
C112 C 0.12599 0.35091 0.88098 0.0
O113 O 0.12133 0.32075 0.90134 0.0
O114 O 0.1327 0.31405 0.86392 0.0
O115 O 0.1282 0.16588 0.89511 0.0
O116 O 0.1131 0.06419 0.9018 0.0
O117 O 0.16836 0.2111 0.86839 0.0
C118 C 0.12826 0.10545 0.83045 0.0
C119 C 0.11996 0.12247 0.90924 0.0
Zn120 Zn 0.8789 0.02126 0.62161 0.0
Zn121 Zn 0.87009 0.20114 0.62645 0.0
C122 C 0.92021 0.99456 0.61502 0.0
O123 O 0.91298 0.94802 0.60007 0.0
C124 C 0.82898 0.2025 0.63899 0.0
O125 O 0.83643 0.20987 0.66054 0.0
O126 O 0.87463 0.9155 0.61851 0.0
O127 O 0.86477 0.0502 0.65131 0.0
O128 O 0.87836 0.15427 0.65746 0.0
C129 C 0.88352 0.8733 0.63254 0.0
O130 O 0.895 0.899 0.64931 0.0
O131 O 0.90846 0.0356 0.62595 0.0
C132 C 0.87573 0.34625 0.61208 0.0
O133 O 0.87573 0.31855 0.59056 0.0
O134 O 0.8742 0.30617 0.63023 0.0
O135 O 0.88422 0.17037 0.59636 0.0
O136 O 0.86961 0.06755 0.59127 0.0
O137 O 0.84056 0.19377 0.62136 0.0
C138 C 0.87172 0.0963 0.66529 0.0
C139 C 0.87681 0.12386 0.58281 0.0
Zn140 Zn 0.10766 0.99094 0.62961 0.0
Zn141 Zn 0.14129 0.79728 0.6285 0.0
C142 C 0.06776 0.01118 0.6205 0.0
O143 O 0.07606 0.03624 0.60107 0.0
C144 C 0.17952 0.75538 0.63617 0.0
O145 O 0.16992 0.72343 0.65341 0.0
O146 O 0.11859 0.09071 0.63046 0.0
O147 O 0.1227 0.91927 0.64719 0.0
O148 O 0.13967 0.8351 0.66264 0.0
C149 C 0.10742 0.14096 0.63684 0.0
O150 O 0.09 0.12635 0.64557 0.0
O151 O 0.0787 0.98794 0.63719 0.0
C152 C 0.13518 0.65564 0.61078 0.0
O153 O 0.14322 0.6808 0.59122 0.0
O154 O 0.13187 0.6967 0.62828 0.0
O155 O 0.12736 0.85907 0.60327 0.0
O156 O 0.11013 0.95584 0.59611 0.0
O157 O 0.16997 0.79296 0.62141 0.0
C158 C 0.1305 0.89232 0.6655 0.0
C159 C 0.11843 0.8999 0.5887 0.0
Zn160 Zn 0.63476 0.7028 0.12338 0.0
Zn161 Zn 0.60799 0.50556 0.12269 0.0
C162 C 0.67322 0.73374 0.13026 0.0
O163 O 0.66379 0.76736 0.14728 0.0
C164 C 0.56742 0.51252 0.1077 0.0
O165 O 0.57535 0.51039 0.08628 0.0
O166 O 0.62652 0.80319 0.1223 0.0
O167 O 0.61701 0.64099 0.10264 0.0
O168 O 0.61694 0.53264 0.08969 0.0
C169 C 0.63509 0.84613 0.10842 0.0
O170 O 0.64805 0.82252 0.09297 0.0
O171 O 0.66335 0.69802 0.11525 0.0
C172 C 0.60557 0.35977 0.12398 0.0
O173 O 0.58835 0.37793 0.11545 0.0
O174 O 0.61756 0.40756 0.13012 0.0
O175 O 0.62006 0.57965 0.14218 0.0
O176 O 0.6334 0.6705 0.15826 0.0
O177 O 0.57855 0.51242 0.12597 0.0
C178 C 0.62181 0.5966 0.08666 0.0
C179 C 0.6263 0.60952 0.16076 0.0
Zn180 Zn 0.36807 0.29982 0.12698 0.0
Zn181 Zn 0.37959 0.4828 0.12227 0.0
C182 C 0.32561 0.31177 0.13703 0.0
O183 O 0.33098 0.32483 0.15916 0.0
C184 C 0.42005 0.498 0.11428 0.0
O185 O 0.4124 0.5396 0.09799 0.0
O186 O 0.37386 0.1965 0.13086 0.0
O187 O 0.38144 0.33081 0.09622 0.0
O188 O 0.3728 0.44248 0.09058 0.0
C189 C 0.3675 0.15368 0.1152 0.0
O190 O 0.35791 0.17837 0.09658 0.0
O191 O 0.33869 0.30308 0.12108 0.0
C192 C 0.38695 0.63131 0.1326 0.0
O193 O 0.40216 0.60739 0.14455 0.0
O194 O 0.3755 0.58881 0.12187 0.0
O195 O 0.36204 0.44602 0.14739 0.0
O196 O 0.37575 0.34693 0.15814 0.0
O197 O 0.40866 0.46371 0.12804 0.0
C198 C 0.37743 0.3823 0.08246 0.0
C199 C 0.36994 0.40835 0.1633 0.0
Zn200 Zn 0.6315 0.2979 0.36318 0.0
Zn201 Zn 0.62017 0.47936 0.36739 0.0
C202 C 0.6739 0.32815 0.35366 0.0
O203 O 0.66803 0.36062 0.33423 0.0
C204 C 0.58004 0.49315 0.3795 0.0
O205 O 0.58835 0.53032 0.39653 0.0
O206 O 0.62621 0.19368 0.36011 0.0
O207 O 0.61786 0.32976 0.39337 0.0
O208 O 0.63074 0.43587 0.39738 0.0
C209 C 0.63413 0.15237 0.37521 0.0
O210 O 0.64465 0.17926 0.39268 0.0
O211 O 0.6612 0.30233 0.36786 0.0
C212 C 0.63126 0.62479 0.35537 0.0
O213 O 0.64038 0.59607 0.33713 0.0
O214 O 0.62243 0.58563 0.37036 0.0
O215 O 0.63334 0.45124 0.33729 0.0
O216 O 0.62295 0.34192 0.33204 0.0
O217 O 0.59097 0.46171 0.36446 0.0
C218 C 0.6243 0.37922 0.40646 0.0
C219 C 0.62721 0.40224 0.32392 0.0
Zn220 Zn 0.36091 0.70175 0.36834 0.0
Zn221 Zn 0.39182 0.50757 0.37197 0.0
C222 C 0.32171 0.74049 0.36415 0.0
O223 O 0.33067 0.7775 0.34758 0.0
C224 C 0.43207 0.46832 0.37797 0.0
O225 O 0.42378 0.41254 0.38739 0.0
O226 O 0.37012 0.80258 0.36754 0.0
O227 O 0.37914 0.64287 0.38821 0.0
O228 O 0.3819 0.53941 0.40395 0.0
C229 C 0.3623 0.84781 0.38128 0.0
O230 O 0.3492 0.82731 0.39706 0.0
O231 O 0.3319 0.69907 0.37709 0.0
C232 C 0.382 0.3657 0.35208 0.0
O233 O 0.38166 0.39306 0.3305 0.0
O234 O 0.38526 0.4048 0.37004 0.0
O235 O 0.37942 0.56693 0.3459 0.0
O236 O 0.36298 0.66171 0.33484 0.0
O237 O 0.42123 0.51788 0.37035 0.0
C238 C 0.3756 0.6018 0.40554 0.0
C239 C 0.37162 0.60434 0.3296 0.0
Zn240 Zn 0.38668 0.47947 0.86415 0.0
Zn241 Zn 0.36514 0.28534 0.8593 0.0
C242 C 0.42642 0.51164 0.86647 0.0
O243 O 0.41867 0.54834 0.884 0.0
C244 C 0.32292 0.32316 0.85247 0.0
O245 O 0.32844 0.37672 0.83931 0.0
O246 O 0.37878 0.58076 0.867 0.0
O247 O 0.36745 0.43126 0.84317 0.0
O248 O 0.37449 0.32886 0.8284 0.0
C249 C 0.38608 0.62504 0.85253 0.0
O250 O 0.39791 0.60323 0.83552 0.0
O251 O 0.41514 0.47421 0.85351 0.0
C252 C 0.37137 0.14505 0.87664 0.0
O253 O 0.36759 0.17324 0.89759 0.0
O254 O 0.3722 0.18383 0.85818 0.0
O255 O 0.37467 0.32768 0.89047 0.0
O256 O 0.3862 0.43579 0.89645 0.0
O257 O 0.33576 0.28263 0.86144 0.0
C258 C 0.37396 0.39487 0.82603 0.0
C259 C 0.38159 0.37515 0.90412 0.0
Zn260 Zn 0.61433 0.51306 0.87135 0.0
Zn261 Zn 0.63969 0.7025 0.86504 0.0
C262 C 0.57392 0.49504 0.87476 0.0
O263 O 0.58084 0.46368 0.89396 0.0
C264 C 0.67868 0.74785 0.85307 0.0
O265 O 0.66874 0.79694 0.84183 0.0
O266 O 0.61921 0.4092 0.87579 0.0
O267 O 0.63436 0.55186 0.84849 0.0
O268 O 0.62857 0.65787 0.83522 0.0
C269 C 0.62125 0.36823 0.85802 0.0
O270 O 0.62039 0.39396 0.83625 0.0
O271 O 0.58605 0.52384 0.86047 0.0
C272 C 0.64039 0.84685 0.87969 0.0
O273 O 0.65349 0.82202 0.89478 0.0
O274 O 0.6319 0.80482 0.86533 0.0
O275 O 0.63144 0.66142 0.89677 0.0
O276 O 0.61699 0.55849 0.90348 0.0
O277 O 0.66945 0.69883 0.86364 0.0
C278 C 0.6286 0.59203 0.83182 0.0
C279 C 0.62404 0.61633 0.91093 0.0
Zn280 Zn 0.38884 0.50838 0.62137 0.0
Zn281 Zn 0.36648 0.70191 0.62646 0.0
C282 C 0.42903 0.47709 0.62054 0.0
O283 O 0.42182 0.43373 0.6045 0.0
C284 C 0.32718 0.74028 0.64041 0.0
O285 O 0.33656 0.78529 0.65409 0.0
O286 O 0.38154 0.4063 0.61967 0.0
O287 O 0.36972 0.55905 0.64228 0.0
O288 O 0.37689 0.66109 0.65727 0.0
C289 C 0.38576 0.36273 0.63611 0.0
O290 O 0.39471 0.38512 0.6555 0.0
O291 O 0.41726 0.5173 0.63174 0.0
C292 C 0.36356 0.84538 0.61208 0.0
O293 O 0.34805 0.82138 0.60075 0.0
O294 O 0.37428 0.80351 0.62405 0.0
O295 O 0.3744 0.65266 0.59594 0.0
O296 O 0.38701 0.54763 0.58822 0.0
O297 O 0.337 0.69789 0.62757 0.0
C298 C 0.3762 0.59499 0.65961 0.0
C299 C 0.38077 0.60717 0.58119 0.0
Zn300 Zn 0.61702 0.49633 0.62542 0.0
Zn301 Zn 0.64176 0.30375 0.62986 0.0
C302 C 0.57682 0.51411 0.62029 0.0
O303 O 0.58444 0.54457 0.60135 0.0
C304 C 0.68174 0.25132 0.62693 0.0
O305 O 0.67223 0.19184 0.62467 0.0
O306 O 0.62322 0.5991 0.62208 0.0
O307 O 0.63694 0.45061 0.64629 0.0
O308 O 0.63121 0.34624 0.66041 0.0
C309 C 0.61496 0.6431 0.63589 0.0
O310 O 0.60321 0.62009 0.6528 0.0
O311 O 0.58844 0.48656 0.63555 0.0
C312 C 0.62774 0.1658 0.61329 0.0
O313 O 0.62403 0.19684 0.59278 0.0
O314 O 0.63415 0.20166 0.63081 0.0
O315 O 0.63159 0.3459 0.59856 0.0
O316 O 0.6185 0.45221 0.59337 0.0
O317 O 0.67196 0.30783 0.62983 0.0
C318 C 0.63073 0.4122 0.66308 0.0
C319 C 0.62396 0.39299 0.58522 0.0
C320 C 0.21971 0.14765 0.13237 0.0
C321 C 0.20527 0.18712 0.12054 0.0
C322 C 0.23939 0.16941 0.13263 0.0
C323 C 0.24479 0.23226 0.1208 0.0
C324 C 0.23046 0.27067 0.10789 0.0
C325 C 0.21087 0.24754 0.10786 0.0
C326 C 0.25426 0.12657 0.14641 0.0
C327 C 0.23565 0.3378 0.095 0.0
C328 C 0.28989 0.32036 0.14709 0.0
C329 C 0.30467 0.29849 0.13132 0.0
C330 C 0.27018 0.30193 0.1432 0.0
C331 C 0.26518 0.25956 0.12328 0.0
C332 C 0.27992 0.23942 0.10681 0.0
C333 C 0.29949 0.25957 0.11093 0.0
C334 C 0.25481 0.32567 0.16092 0.0
C335 C 0.27521 0.19378 0.08548 0.0
H336 H 0.21554 0.10077 0.14212 0.0
H337 H 0.19982 0.27837 0.09862 0.0
H338 H 0.26708 0.11421 0.1349 0.0
H339 H 0.25976 0.15743 0.16186 0.0
H340 H 0.24799 0.07661 0.15324 0.0
H341 H 0.22309 0.35913 0.08458 0.0
H342 H 0.24037 0.37797 0.10818 0.0
H343 H 0.24816 0.32885 0.08266 0.0
H344 H 0.29377 0.35097 0.16274 0.0
H345 H 0.31084 0.24224 0.09868 0.0
H346 H 0.24885 0.27949 0.1706 0.0
H347 H 0.24236 0.35109 0.15145 0.0
H348 H 0.2608 0.36318 0.17428 0.0
H349 H 0.27089 0.1407 0.09173 0.0
H350 H 0.28791 0.18834 0.07315 0.0
H351 H 0.26259 0.21565 0.07535 0.0
C352 C 0.78872 0.69415 0.14404 0.0
C353 C 0.7991 0.74774 0.13244 0.0
C354 C 0.76821 0.69044 0.14252 0.0
C355 C 0.7579 0.74185 0.12922 0.0
C356 C 0.7683 0.7956 0.11722 0.0
C357 C 0.78883 0.79773 0.11888 0.0
C358 C 0.75755 0.63232 0.15553 0.0
C359 C 0.75772 0.85182 0.10314 0.0
C360 C 0.70533 0.70212 0.11127 0.0
C361 C 0.69485 0.73702 0.12928 0.0
C362 C 0.72593 0.70384 0.11085 0.0
C363 C 0.73616 0.74124 0.12884 0.0
C364 C 0.72564 0.77718 0.14688 0.0
C365 C 0.70511 0.77468 0.14686 0.0
C366 C 0.73678 0.66508 0.09134 0.0
C367 C 0.73606 0.81764 0.16638 0.0
H368 H 0.7966 0.65521 0.15445 0.0
H369 H 0.79679 0.83943 0.10995 0.0
H370 H 0.7478 0.65503 0.16942 0.0
H371 H 0.7481 0.60284 0.14286 0.0
H372 H 0.76781 0.59488 0.16429 0.0
H373 H 0.76803 0.88833 0.09408 0.0
H374 H 0.74809 0.82751 0.08944 0.0
H375 H 0.74814 0.88273 0.11527 0.0
H376 H 0.69746 0.67309 0.09762 0.0
H377 H 0.69711 0.80187 0.16083 0.0
H378 H 0.74643 0.6244 0.09935 0.0
H379 H 0.74637 0.70192 0.08136 0.0
H380 H 0.72664 0.63933 0.07847 0.0
H381 H 0.7455 0.78163 0.17695 0.0
H382 H 0.72565 0.84406 0.17877 0.0
H383 H 0.74579 0.85798 0.15838 0.0
C384 C 0.28865 0.69305 0.37597 0.0
C385 C 0.30021 0.74816 0.36718 0.0
C386 C 0.268 0.69824 0.37616 0.0
C387 C 0.2588 0.76044 0.36775 0.0
C388 C 0.27054 0.81748 0.36011 0.0
C389 C 0.29104 0.8104 0.35973 0.0
C390 C 0.25602 0.63607 0.38431 0.0
C391 C 0.26143 0.8852 0.35143 0.0
C392 C 0.20796 0.75109 0.3397 0.0
C393 C 0.19593 0.77798 0.3579 0.0
C394 C 0.22833 0.74408 0.34289 0.0
C395 C 0.237 0.76419 0.36488 0.0
C396 C 0.22497 0.79104 0.38343 0.0
C397 C 0.20458 0.79778 0.37971 0.0
C398 C 0.24063 0.71573 0.32256 0.0
C399 C 0.23364 0.81277 0.40716 0.0
H400 H 0.29569 0.64482 0.38171 0.0
H401 H 0.29994 0.85357 0.35322 0.0
H402 H 0.24494 0.65266 0.39771 0.0
H403 H 0.24792 0.61383 0.36883 0.0
H404 H 0.26531 0.59407 0.39223 0.0
H405 H 0.2726 0.92651 0.34804 0.0
H406 H 0.25324 0.8755 0.33458 0.0
H407 H 0.25075 0.90526 0.36478 0.0
H408 H 0.20147 0.73556 0.3228 0.0
H409 H 0.19539 0.81798 0.39397 0.0
H410 H 0.24913 0.66932 0.32866 0.0
H411 H 0.25136 0.75603 0.31673 0.0
H412 H 0.23158 0.70027 0.30688 0.0
H413 H 0.24104 0.76725 0.41568 0.0
H414 H 0.22235 0.83337 0.41968 0.0
H415 H 0.24497 0.8538 0.40439 0.0
C416 C 0.78954 0.25971 0.3759 0.0
C417 C 0.79601 0.21247 0.35831 0.0
C418 C 0.76977 0.28083 0.37703 0.0
C419 C 0.75614 0.25388 0.36023 0.0
C420 C 0.76252 0.20523 0.34272 0.0
C421 C 0.78235 0.18519 0.34196 0.0
C422 C 0.76354 0.33296 0.3959 0.0
C423 C 0.74845 0.17514 0.3245 0.0
C424 C 0.70122 0.25927 0.37245 0.0
C425 C 0.6951 0.31408 0.3574 0.0
C426 C 0.72112 0.24014 0.37401 0.0
C427 C 0.73527 0.27745 0.3605 0.0
C428 C 0.72928 0.3348 0.34609 0.0
C429 C 0.70925 0.35206 0.34457 0.0
C430 C 0.72689 0.17811 0.38932 0.0
C431 C 0.74395 0.37658 0.33168 0.0
H432 H 0.79999 0.28124 0.38856 0.0
H433 H 0.78718 0.14874 0.32829 0.0
H434 H 0.75739 0.38061 0.38725 0.0
H435 H 0.75176 0.31009 0.40717 0.0
H436 H 0.77592 0.34886 0.40767 0.0
H437 H 0.7556 0.13604 0.31259 0.0
H438 H 0.73591 0.14954 0.33368 0.0
H439 H 0.74235 0.21796 0.31326 0.0
H440 H 0.69037 0.22937 0.38232 0.0
H441 H 0.70464 0.39474 0.33301 0.0
H442 H 0.73883 0.19295 0.40184 0.0
H443 H 0.73263 0.13541 0.37776 0.0
H444 H 0.71434 0.15732 0.39985 0.0
H445 H 0.75611 0.39484 0.34335 0.0
H446 H 0.73714 0.42294 0.32289 0.0
H447 H 0.75051 0.3427 0.31765 0.0
C448 C 0.71207 0.69332 0.85593 0.0
C449 C 0.70023 0.75344 0.85496 0.0
C450 C 0.73265 0.69905 0.85635 0.0
C451 C 0.74144 0.76647 0.85642 0.0
C452 C 0.72946 0.82719 0.85674 0.0
C453 C 0.709 0.81992 0.85564 0.0
C454 C 0.74499 0.63316 0.85588 0.0
C455 C 0.73826 0.89991 0.85765 0.0
C456 C 0.79532 0.7865 0.87281 0.0
C457 C 0.8041 0.79141 0.85014 0.0
C458 C 0.77495 0.77752 0.8752 0.0
C459 C 0.76311 0.77396 0.85442 0.0
C460 C 0.77188 0.77952 0.83152 0.0
C461 C 0.79228 0.7879 0.82966 0.0
C462 C 0.76616 0.77152 0.89992 0.0
C463 C 0.75968 0.7766 0.80896 0.0
H464 H 0.70525 0.64191 0.85552 0.0
H465 H 0.69981 0.86647 0.85542 0.0
H466 H 0.75374 0.63155 0.83913 0.0
H467 H 0.75554 0.63316 0.87102 0.0
H468 H 0.73592 0.5848 0.8569 0.0
H469 H 0.7269 0.94137 0.85973 0.0
H470 H 0.74877 0.90397 0.87277 0.0
H471 H 0.74659 0.91019 0.84096 0.0
H472 H 0.80439 0.78848 0.88874 0.0
H473 H 0.79898 0.79173 0.81211 0.0
H474 H 0.75892 0.71973 0.90199 0.0
H475 H 0.75469 0.81225 0.90248 0.0
H476 H 0.77735 0.77727 0.91427 0.0
H477 H 0.75136 0.72657 0.80829 0.0
H478 H 0.76878 0.78087 0.79253 0.0
H479 H 0.74878 0.81996 0.80894 0.0
C480 C 0.29628 0.24944 0.87014 0.0
C481 C 0.30187 0.30672 0.85584 0.0
C482 C 0.27655 0.22943 0.87209 0.0
C483 C 0.26206 0.26754 0.85942 0.0
C484 C 0.26747 0.3272 0.84581 0.0
C485 C 0.28734 0.34609 0.84417 0.0
C486 C 0.27132 0.16586 0.88695 0.0
C487 C 0.25234 0.36969 0.83234 0.0
C488 C 0.21534 0.17641 0.83959 0.0
C489 C 0.20166 0.20241 0.85609 0.0
C490 C 0.23518 0.19575 0.84093 0.0
C491 C 0.24143 0.24255 0.85909 0.0
C492 C 0.22783 0.26722 0.87626 0.0
C493 C 0.20812 0.24659 0.87462 0.0
C494 C 0.24938 0.16757 0.82252 0.0
C495 C 0.234 0.31688 0.89595 0.0
H496 H 0.30739 0.21908 0.87945 0.0
H497 H 0.29152 0.39071 0.83326 0.0
H498 H 0.25904 0.17812 0.8993 0.0
H499 H 0.26631 0.12291 0.87502 0.0
H500 H 0.28399 0.14649 0.89764 0.0
H501 H 0.25876 0.4172 0.82388 0.0
H502 H 0.2456 0.33686 0.81813 0.0
H503 H 0.24037 0.38624 0.84457 0.0
H504 H 0.2105 0.14192 0.82535 0.0
H505 H 0.19765 0.26677 0.88752 0.0
H506 H 0.26199 0.14171 0.83152 0.0
H507 H 0.25534 0.21152 0.81171 0.0
H508 H 0.24237 0.12916 0.81024 0.0
H509 H 0.246 0.29316 0.9067 0.0
H510 H 0.22165 0.33033 0.90811 0.0
H511 H 0.23982 0.3661 0.88806 0.0
C512 C 0.71324 0.18999 0.61805 0.0
C513 C 0.70354 0.25071 0.62599 0.0
C514 C 0.73378 0.18521 0.61818 0.0
C515 C 0.74505 0.24237 0.62666 0.0
C516 C 0.73543 0.30496 0.63391 0.0
C517 C 0.71475 0.30848 0.63345 0.0
C518 C 0.74337 0.11771 0.6101 0.0
C519 C 0.74697 0.3673 0.64285 0.0
C520 C 0.79454 0.19656 0.65415 0.0
C521 C 0.80753 0.21058 0.63531 0.0
C522 C 0.77423 0.2071 0.65155 0.0
C523 C 0.76671 0.23392 0.62974 0.0
C524 C 0.77978 0.24887 0.61068 0.0
C525 C 0.80002 0.23618 0.61359 0.0
C526 C 0.76078 0.18889 0.67212 0.0
C527 C 0.77238 0.27847 0.58728 0.0
H528 H 0.70475 0.14533 0.61196 0.0
H529 H 0.70737 0.35568 0.63952 0.0
H530 H 0.75498 0.12868 0.5967 0.0
H531 H 0.75052 0.09174 0.6256 0.0
H532 H 0.73264 0.08052 0.60211 0.0
H533 H 0.73749 0.41401 0.64582 0.0
H534 H 0.7543 0.35369 0.65998 0.0
H535 H 0.75866 0.38125 0.62988 0.0
H536 H 0.80026 0.17665 0.67095 0.0
H537 H 0.81004 0.24799 0.59906 0.0
H538 H 0.75005 0.14839 0.66639 0.0
H539 H 0.75227 0.23588 0.67761 0.0
H540 H 0.76894 0.16872 0.68792 0.0
H541 H 0.76225 0.24057 0.57864 0.0
H542 H 0.78452 0.29035 0.57463 0.0
H543 H 0.76392 0.32732 0.59057 0.0
C544 C 0.21148 0.71458 0.65289 0.0
C545 C 0.20114 0.75049 0.63495 0.0
C546 C 0.23203 0.71217 0.65282 0.0
C547 C 0.24249 0.74627 0.6343 0.0
C548 C 0.23216 0.7814 0.61584 0.0
C549 C 0.21156 0.78315 0.6164 0.0
C550 C 0.24256 0.67418 0.67281 0.0
C551 C 0.24286 0.81787 0.59572 0.0
C552 C 0.29488 0.79698 0.64922 0.0
C553 C 0.30553 0.74225 0.63858 0.0
C554 C 0.27435 0.79992 0.6474 0.0
C555 C 0.26426 0.74658 0.63477 0.0
C556 C 0.27492 0.69174 0.6237 0.0
C557 C 0.29545 0.6903 0.62569 0.0
C558 C 0.26344 0.85958 0.65925 0.0
C559 C 0.26461 0.63386 0.61015 0.0
H560 H 0.20353 0.68913 0.66728 0.0
H561 H 0.20363 0.81069 0.60242 0.0
H562 H 0.25242 0.63334 0.66532 0.0
H563 H 0.25187 0.71166 0.68291 0.0
H564 H 0.23223 0.64877 0.68552 0.0
H565 H 0.23264 0.84279 0.58274 0.0
H566 H 0.25273 0.85888 0.60307 0.0
H567 H 0.25222 0.77966 0.58599 0.0
H568 H 0.30258 0.83777 0.65896 0.0
H569 H 0.30359 0.648 0.61732 0.0
H570 H 0.2537 0.83864 0.67348 0.0
H571 H 0.25394 0.88672 0.64601 0.0
H572 H 0.27353 0.89872 0.66737 0.0
H573 H 0.2553 0.60314 0.62262 0.0
H574 H 0.27511 0.59748 0.60131 0.0
H575 H 0.25476 0.65646 0.59632 0.0
C576 C 0.14385 0.90466 0.28529 0.0
C577 C 0.12871 0.92043 0.30126 0.0
C578 C 0.14329 0.92984 0.26172 0.0
C579 C 0.12723 0.97185 0.2542 0.0
C580 C 0.11139 0.98458 0.27005 0.0
C581 C 0.1124 0.95897 0.29355 0.0
C582 C 0.16041 0.91502 0.24532 0.0
C583 C 0.09393 0.02841 0.26263 0.0
C584 C 0.13923 0.10831 0.2071 0.0
C585 C 0.13236 0.07606 0.18619 0.0
C586 C 0.13721 0.07546 0.22942 0.0
C587 C 0.12814 0.00867 0.23081 0.0
C588 C 0.12075 0.97654 0.20983 0.0
C589 C 0.12295 0.01072 0.18776 0.0
C590 C 0.14511 0.11167 0.25146 0.0
C591 C 0.11092 0.90557 0.2106 0.0
H592 H 0.15647 0.87508 0.29155 0.0
H593 H 0.10079 0.97119 0.30618 0.0
H594 H 0.15512 0.8951 0.22782 0.0
H595 H 0.16855 0.96445 0.24186 0.0
H596 H 0.17077 0.87607 0.25309 0.0
H597 H 0.08184 0.02599 0.27596 0.0
H598 H 0.09851 0.08398 0.26061 0.0
H599 H 0.08822 0.01071 0.24504 0.0
H600 H 0.1464 0.15901 0.20603 0.0
H601 H 0.1174 0.98591 0.17169 0.0
H602 H 0.15686 0.07917 0.25967 0.0
H603 H 0.1333 0.11761 0.26498 0.0
H604 H 0.15122 0.16441 0.24742 0.0
H605 H 0.12183 0.86492 0.21567 0.0
H606 H 0.10438 0.89087 0.19308 0.0
H607 H 0.0992 0.90498 0.22439 0.0
C608 C 0.86084 0.10479 0.28548 0.0
C609 C 0.87415 0.08742 0.30368 0.0
C610 C 0.8619 0.07244 0.26305 0.0
C611 C 0.8769 0.02267 0.25859 0.0
C612 C 0.8908 0.0066 0.27665 0.0
C613 C 0.8891 0.0386 0.29916 0.0
C614 C 0.84658 0.08989 0.24438 0.0
C615 C 0.90728 0.95514 0.27226 0.0
C616 C 0.86474 0.89032 0.21044 0.0
C617 C 0.87342 0.92103 0.19026 0.0
C618 C 0.86641 0.92162 0.23302 0.0
C619 C 0.87717 0.98475 0.23545 0.0
C620 C 0.88668 0.01439 0.21533 0.0
C621 C 0.88458 0.98235 0.1929 0.0
C622 C 0.85593 0.8888 0.25406 0.0
C623 C 0.89846 0.08129 0.21728 0.0
H624 H 0.84921 0.14229 0.289 0.0
H625 H 0.89948 0.02555 0.3132 0.0
H626 H 0.85375 0.10885 0.22778 0.0
H627 H 0.83818 0.04191 0.23969 0.0
H628 H 0.83607 0.13063 0.25061 0.0
H629 H 0.91763 0.95211 0.28761 0.0
H630 H 0.90115 0.90206 0.26899 0.0
H631 H 0.9156 0.97043 0.256 0.0
H632 H 0.85615 0.84276 0.20851 0.0
H633 H 0.89145 0.00598 0.17739 0.0
H634 H 0.84434 0.92501 0.26061 0.0
H635 H 0.86634 0.88011 0.26906 0.0
H636 H 0.84899 0.83784 0.2494 0.0
H637 H 0.88832 0.12649 0.21941 0.0
H638 H 0.90762 0.09055 0.20115 0.0
H639 H 0.90816 0.0799 0.23324 0.0
C640 C 0.89083 0.04179 0.69789 0.0
C641 C 0.874 0.07784 0.69049 0.0
C642 C 0.89223 0.01485 0.72117 0.0
C643 C 0.87628 0.02387 0.73714 0.0
C644 C 0.85945 0.06211 0.7298 0.0
C645 C 0.85849 0.08858 0.70641 0.0
C646 C 0.91046 0.97495 0.72843 0.0
C647 C 0.84216 0.0727 0.74633 0.0
C648 C 0.86981 0.89212 0.78748 0.0
C649 C 0.87574 0.93178 0.80727 0.0
C650 C 0.86996 0.92147 0.76443 0.0
C651 C 0.87685 0.99107 0.7612 0.0
C652 C 0.88362 0.03002 0.78108 0.0
C653 C 0.88261 1.00018 0.80394 0.0
C654 C 0.86212 0.87907 0.7437 0.0
C655 C 0.89157 0.10358 0.77832 0.0
H656 H 0.90265 0.03298 0.68522 0.0
H657 H 0.84541 0.11581 0.70033 0.0
H658 H 0.91641 0.9962 0.74544 0.0
H659 H 0.90672 0.91904 0.7316 0.0
H660 H 0.92211 0.97743 0.71455 0.0
H661 H 0.83052 0.10586 0.73813 0.0
H662 H 0.83571 0.02106 0.75106 0.0
H663 H 0.84703 0.09776 0.76323 0.0
H664 H 0.86422 0.83941 0.79016 0.0
H665 H 0.88712 0.03032 0.81931 0.0
H666 H 0.87347 0.87423 0.72957 0.0
H667 H 0.84933 0.90648 0.73564 0.0
H668 H 0.85746 0.82558 0.7492 0.0
H669 H 0.90333 0.10447 0.76458 0.0
H670 H 0.89761 0.12453 0.79534 0.0
H671 H 0.87973 0.13921 0.77209 0.0
C672 C 0.13253 0.11764 0.78614 0.0
C673 C 0.12673 0.07702 0.80586 0.0
C674 C 0.13276 0.08921 0.76296 0.0
C675 C 0.12645 0.01921 0.75933 0.0
C676 C 0.12001 0.97871 0.77907 0.0
C677 C 0.12054 0.00785 0.80213 0.0
C678 C 0.14039 0.13326 0.7425 0.0
C679 C 0.11281 0.90433 0.7759 0.0
C680 C 0.11301 0.96578 0.69579 0.0
C681 C 0.12944 0.92599 0.68921 0.0
C682 C 0.11165 0.9955 0.71874 0.0
C683 C 0.12745 0.98735 0.73505 0.0
C684 C 0.14431 0.94874 0.72816 0.0
C685 C 0.14493 0.91744 0.70547 0.0
C686 C 0.09321 0.03455 0.72567 0.0
C687 C 0.16177 0.94101 0.74467 0.0
H688 H 0.13759 0.17097 0.78889 0.0
H689 H 0.1162 0.97645 0.81731 0.0
H690 H 0.15315 0.10675 0.73407 0.0
H691 H 0.12892 0.13894 0.72853 0.0
H692 H 0.145 0.18646 0.74838 0.0
H693 H 0.10729 0.88132 0.79288 0.0
H694 H 0.10084 0.90294 0.76241 0.0
H695 H 0.12489 0.87071 0.7691 0.0
H696 H 0.10099 0.97202 0.68321 0.0
H697 H 0.15774 0.88722 0.70026 0.0
H698 H 0.09679 0.08974 0.73022 0.0
H699 H 0.08668 0.01027 0.74187 0.0
H700 H 0.08206 0.03449 0.71114 0.0
H701 H 0.16722 0.9936 0.75002 0.0
H702 H 0.17402 0.91153 0.73622 0.0
H703 H 0.15736 0.9132 0.76125 0.0
C704 C 0.63951 0.39764 0.28239 0.0
C705 C 0.62491 0.41734 0.2986 0.0
C706 C 0.63927 0.42371 0.25896 0.0
C707 C 0.62394 0.4696 0.25189 0.0
C708 C 0.6086 0.48631 0.26798 0.0
C709 C 0.60942 0.46043 0.29136 0.0
C710 C 0.65597 0.40567 0.24228 0.0
C711 C 0.59193 0.53445 0.26094 0.0
C712 C 0.63433 0.60507 0.20419 0.0
C713 C 0.62545 0.57444 0.18415 0.0
C714 C 0.63412 0.57091 0.22636 0.0
C715 C 0.62474 0.50487 0.2284 0.0
C716 C 0.61575 0.47372 0.20824 0.0
C717 C 0.6162 0.50901 0.1863 0.0
C718 C 0.64391 0.60545 0.24758 0.0
C719 C 0.60559 0.40342 0.20987 0.0
H720 H 0.65159 0.3649 0.28839 0.0
H721 H 0.59831 0.47578 0.30426 0.0
H722 H 0.65021 0.38717 0.22482 0.0
H723 H 0.66485 0.4534 0.23877 0.0
H724 H 0.66577 0.36457 0.24984 0.0
H725 H 0.58023 0.5364 0.27479 0.0
H726 H 0.59763 0.58841 0.2582 0.0
H727 H 0.58532 0.51709 0.24379 0.0
H728 H 0.64157 0.6555 0.20252 0.0
H729 H 0.60925 0.48531 0.17084 0.0
H730 H 0.65527 0.57003 0.25517 0.0
H731 H 0.63293 0.61528 0.26186 0.0
H732 H 0.65096 0.65614 0.2428 0.0
H733 H 0.61605 0.36292 0.21633 0.0
H734 H 0.59951 0.38617 0.19237 0.0
H735 H 0.59343 0.40624 0.22304 0.0
C736 C 0.35568 0.58224 0.29034 0.0
C737 C 0.37257 0.58094 0.3046 0.0
C738 C 0.35603 0.55528 0.267 0.0
C739 C 0.3739 0.52915 0.25754 0.0
C740 C 0.39123 0.53118 0.27152 0.0
C741 C 0.39025 0.55561 0.29516 0.0
C742 C 0.33714 0.55235 0.25281 0.0
C743 C 0.41072 0.50703 0.26158 0.0
C744 C 0.37097 0.39447 0.20768 0.0
C745 C 0.37237 0.43741 0.18746 0.0
C746 C 0.37154 0.42378 0.23071 0.0
C747 C 0.37423 0.49718 0.23337 0.0
C748 C 0.37651 0.54014 0.21292 0.0
C749 C 0.37518 0.50979 0.1902 0.0
C750 C 0.36857 0.37669 0.25215 0.0
C751 C 0.38007 0.61818 0.21496 0.0
H752 H 0.34202 0.60176 0.2978 0.0
H753 H 0.40335 0.55561 0.30622 0.0
H754 H 0.33888 0.58028 0.23553 0.0
H755 H 0.33353 0.49689 0.24862 0.0
H756 H 0.32459 0.57599 0.26264 0.0
H757 H 0.4231 0.51833 0.27397 0.0
H758 H 0.41029 0.4497 0.25819 0.0
H759 H 0.41366 0.53318 0.2442 0.0
H760 H 0.36865 0.33855 0.20548 0.0
H761 H 0.37633 0.54284 0.17449 0.0
H762 H 0.35546 0.39417 0.26234 0.0
H763 H 0.38137 0.38039 0.26437 0.0
H764 H 0.36654 0.32084 0.247 0.0
H765 H 0.36692 0.64424 0.22257 0.0
H766 H 0.38336 0.64266 0.19735 0.0
H767 H 0.39252 0.62854 0.22729 0.0
C768 C 0.39071 0.40212 0.78645 0.0
C769 C 0.37622 0.42644 0.80216 0.0
C770 C 0.39228 0.42967 0.76322 0.0
C771 C 0.37855 0.48065 0.75535 0.0
C772 C 0.36384 0.50508 0.77121 0.0
C773 C 0.3631 0.47861 0.7946 0.0
C774 C 0.40852 0.40402 0.74706 0.0
C775 C 0.34848 0.55747 0.76327 0.0
C776 C 0.38864 0.59788 0.70175 0.0
C777 C 0.37847 0.56272 0.68353 0.0
C778 C 0.38933 0.57052 0.72508 0.0
C779 C 0.37925 0.50741 0.73037 0.0
C780 C 0.36921 0.47116 0.71194 0.0
C781 C 0.36915 0.49883 0.68868 0.0
C782 C 0.40054 0.60978 0.74417 0.0
C783 C 0.35788 0.40462 0.71696 0.0
H784 H 0.40088 0.36192 0.79242 0.0
H785 H 0.35173 0.49674 0.80671 0.0
H786 H 0.40218 0.37686 0.7313 0.0
H787 H 0.41713 0.44927 0.74026 0.0
H788 H 0.41866 0.36726 0.75635 0.0
H789 H 0.33795 0.57058 0.77778 0.0
H790 H 0.35561 0.6066 0.75714 0.0
H791 H 0.34013 0.53595 0.74787 0.0
H792 H 0.3959 0.64717 0.69782 0.0
H793 H 0.36111 0.47168 0.67472 0.0
H794 H 0.41103 0.57397 0.75327 0.0
H795 H 0.39022 0.62949 0.75798 0.0
H796 H 0.40881 0.65512 0.73678 0.0
H797 H 0.36771 0.36432 0.72483 0.0
H798 H 0.35101 0.3825 0.70057 0.0
H799 H 0.34614 0.41539 0.73024 0.0
C800 C 0.61554 0.60067 0.79011 0.0
C801 C 0.62668 0.56451 0.80724 0.0
C802 C 0.61449 0.57663 0.76639 0.0
C803 C 0.62501 0.51556 0.7597 0.0
C804 C 0.6361 0.47848 0.77702 0.0
C805 C 0.63681 0.5035 0.80057 0.0
C806 C 0.6024 0.6171 0.7484 0.0
C807 C 0.64778 0.41374 0.77054 0.0
C808 C 0.61374 0.41522 0.70261 0.0
C809 C 0.62801 0.44214 0.6871 0.0
C810 C 0.61202 0.44081 0.72608 0.0
C811 C 0.62537 0.49243 0.73433 0.0
C812 C 0.63973 0.51989 0.71861 0.0
C813 C 0.64062 0.49533 0.69502 0.0
C814 C 0.59618 0.41183 0.74217 0.0
C815 C 0.65465 0.57325 0.72693 0.0
H816 H 0.60772 0.64792 0.79524 0.0
H817 H 0.64584 0.47638 0.81362 0.0
H818 H 0.61208 0.63858 0.73422 0.0
H819 H 0.59172 0.58159 0.73955 0.0
H820 H 0.59424 0.6613 0.75675 0.0
H821 H 0.65487 0.38918 0.78639 0.0
H822 H 0.63814 0.37424 0.76191 0.0
H823 H 0.65937 0.42777 0.75743 0.0
H824 H 0.60395 0.37429 0.69634 0.0
H825 H 0.6518 0.51556 0.68305 0.0
H826 H 0.58743 0.4554 0.74994 0.0
H827 H 0.60295 0.38287 0.7573 0.0
H828 H 0.58611 0.37575 0.73252 0.0
H829 H 0.64712 0.62067 0.73388 0.0
H830 H 0.66482 0.5894 0.7124 0.0
H831 H 0.66347 0.55103 0.74184 0.0
C832 C 0.13572 0.17403 0.94551 0.0
C833 C 0.12003 0.13715 0.9352 0.0
C834 C 0.13748 0.18009 0.97046 0.0
C835 C 0.12291 0.15019 0.98536 0.0
C836 C 0.10626 0.11761 0.97492 0.0
C837 C 0.10519 0.11043 0.94995 0.0
C838 C 0.15563 0.21392 0.98082 0.0
C839 C 0.09011 0.0869 0.99016 0.0
C840 C 0.13673 0.07246 0.04539 0.0
C841 C 0.12938 0.12253 0.06143 0.0
C842 C 0.13538 0.08242 0.02062 0.0
C843 C 0.12632 0.14387 0.01159 0.0
C844 C 0.11969 0.19633 0.02765 0.0
C845 C 0.12144 0.18527 0.05247 0.0
C846 C 0.14291 0.02557 0.00414 0.0
C847 C 0.10988 0.26235 0.01868 0.0
H848 H 0.14725 0.19466 0.93413 0.0
H849 H 0.0929 0.08279 0.94198 0.0
H850 H 0.15169 0.25083 0.99539 0.0
H851 H 0.16519 0.17272 0.98871 0.0
H852 H 0.16421 0.24272 0.96706 0.0
H853 H 0.07698 0.07259 0.97939 0.0
H854 H 0.09558 0.03897 -0.00071 0.0
H855 H 0.0856 0.12469 0.00423 0.0
H856 H 0.14304 0.02418 0.05225 0.0
H857 H 0.11568 0.22409 0.0648 0.0
H858 H 0.15287 0.04832 0.99048 0.0
H859 H 0.13041 0.00112 0.99451 0.0
H860 H 0.15094 0.98371 0.01397 0.0
H861 H 0.11921 0.28854 0.0051 0.0
H862 H 0.1068 0.30013 0.03335 0.0
H863 H 0.0958 0.24866 0.00982 0.0
C864 C 0.89463 0.84779 0.94997 0.0
C865 C 0.87836 0.87467 0.93777 0.0
C866 C 0.89465 0.84447 0.97505 0.0
C867 C 0.87797 0.86838 0.98785 0.0
C868 C 0.86117 0.89239 0.97534 0.0
C869 C 0.86164 0.89566 0.95034 0.0
C870 C 0.91284 0.81891 0.98785 0.0
C871 C 0.84311 0.91816 0.98834 0.0
C872 C 0.87266 0.83502 0.05454 0.0
C873 C 0.87932 0.89898 0.06396 0.0
C874 C 0.87247 0.82341 0.02972 0.0
C875 C 0.87897 0.8772 0.01415 0.0
C876 C 0.8858 0.94156 0.02359 0.0
C877 C 0.88593 0.95156 0.04835 0.0
C878 C 0.86513 0.75412 0.02016 0.0
C879 C 0.89269 0.00046 0.00751 0.0
H880 H 0.90748 0.83152 0.93994 0.0
H881 H 0.84909 0.91602 0.94059 0.0
H882 H 0.91998 0.8636 -0.00286 0.0
H883 H 0.9089 0.7796 0.00168 0.0
H884 H 0.92365 0.79511 0.97535 0.0
H885 H 0.83057 0.92722 0.97598 0.0
H886 H 0.83856 0.87983 0.00221 0.0
H887 H 0.84651 0.96826 -0.00242 0.0
H888 H 0.86762 0.79409 0.06653 0.0
H889 H 0.89109 0.0012 0.05544 0.0
H890 H 0.87647 0.72971 0.00858 0.0
H891 H 0.85192 0.76283 0.00891 0.0
H892 H 0.86132 0.71675 0.0347 0.0
H893 H 0.90473 0.98177 0.99575 0.0
H894 H 0.89804 0.04657 0.01779 0.0
H895 H 0.88048 0.01783 0.99576 0.0
C896 C 0.13533 0.92117 0.45037 0.0
C897 C 0.12421 0.87589 0.436 0.0
C898 C 0.1345 0.91701 0.47537 0.0
C899 C 0.12196 0.86715 0.48627 0.0
C900 C 0.11086 0.82059 0.47188 0.0
C901 C 0.11225 0.82511 0.44685 0.0
C902 C 0.14671 0.96714 0.49011 0.0
C903 C 0.09708 0.76764 0.48289 0.0
C904 C 0.13113 0.83637 0.5525 0.0
C905 C 0.11809 0.88483 0.56274 0.0
C906 C 0.13199 0.82753 0.52755 0.0
C907 C 0.11947 0.8679 0.51266 0.0
C908 C 0.10563 0.91418 0.523 0.0
C909 C 0.10514 0.92217 0.54788 0.0
C910 C 0.1469 0.77756 0.5171 0.0
C911 C 0.0919 0.95774 0.50776 0.0
H912 H 0.14477 0.95998 0.44207 0.0
H913 H 0.10358 0.79012 0.43579 0.0
H914 H 0.13693 0.0028 0.50033 0.0
H915 H 0.15569 0.93762 0.50329 0.0
H916 H 0.15667 0.99954 0.4789 0.0
H917 H 0.09047 0.73226 0.46929 0.0
H918 H 0.10495 0.7353 0.49634 0.0
H919 H 0.08506 0.79541 0.49239 0.0
H920 H 0.14114 0.80731 0.56388 0.0
H921 H 0.09482 0.95901 0.55566 0.0
H922 H 0.15839 0.80784 0.50752 0.0
H923 H 0.13985 0.74234 0.50383 0.0
H924 H 0.15412 0.74494 0.53106 0.0
H925 H 0.10049 0.99696 0.49748 0.0
H926 H 0.08079 0.98611 0.51864 0.0
H927 H 0.08414 0.92402 0.49463 0.0
C928 C 0.89406 0.15009 0.54469 0.0
C929 C 0.87665 0.1346 0.55685 0.0
C930 C 0.89438 0.15293 0.5196 0.0
C931 C 0.87672 0.14222 0.50665 0.0
C932 C 0.85889 0.13097 0.51909 0.0
C933 C 0.85915 0.12601 0.5441 0.0
C934 C 0.91375 0.16315 0.50694 0.0
C935 C 0.83971 0.12076 0.50597 0.0
C936 C 0.87536 0.18237 0.43996 0.0
C937 C 0.87874 0.11559 0.43028 0.0
C938 C 0.87476 0.19229 0.46488 0.0
C939 C 0.87728 0.13384 0.48027 0.0
C940 C 0.88029 0.06619 0.4705 0.0
C941 C 0.88109 0.05801 0.44567 0.0
C942 C 0.87162 0.26516 0.47476 0.0
C943 C 0.88278 0.00231 0.48629 0.0
H944 H 0.90758 0.15641 0.55474 0.0
H945 H 0.84568 0.11478 0.55372 0.0
H946 H 0.91784 0.11405 0.49748 0.0
H947 H 0.91249 0.2051 0.49326 0.0
H948 H 0.92578 0.17689 0.51954 0.0
H949 H 0.82689 0.1219 0.51827 0.0
H950 H 0.83773 0.1621 0.49218 0.0
H951 H 0.83987 0.06941 0.49661 0.0
H952 H 0.87362 0.22698 0.42808 0.0
H953 H 0.88349 0.0061 0.43827 0.0
H954 H 0.88436 0.2805 0.48598 0.0
H955 H 0.85845 0.26593 0.48644 0.0
H956 H 0.86971 0.30493 0.46039 0.0
H957 H 0.89559 0.00953 0.49833 0.0
H958 H 0.885 0.95342 0.47579 0.0
H959 H 0.86963 0.99546 0.49776 0.0
C960 C 0.62048 0.68151 0.05278 0.0
C961 C 0.62799 0.61943 0.06267 0.0
C962 C 0.6216 0.69374 0.02804 0.0
C963 C 0.63083 0.64333 0.01318 0.0
C964 C 0.64039 0.58476 0.02358 0.0
C965 C 0.63864 0.57305 0.04821 0.0
C966 C 0.61114 0.75667 0.01768 0.0
C967 C 0.65093 0.53092 0.00845 0.0
C968 C 0.61076 0.59854 0.95199 0.0
C969 C 0.62461 0.62991 0.9369 0.0
C970 C 0.61203 0.60627 0.97686 0.0
C971 C 0.62782 0.6448 0.98688 0.0
C972 C 0.64149 0.67858 0.97169 0.0
C973 C 0.63957 0.67139 0.9468 0.0
C974 C 0.59687 0.57078 0.99246 0.0
C975 C 0.65864 0.71925 0.98172 0.0
H976 H 0.61224 0.71747 0.06399 0.0
H977 H 0.64466 0.52546 0.05597 0.0
H978 H 0.61963 0.78012 0.00276 0.0
H979 H 0.59674 0.73977 0.01038 0.0
H980 H 0.60846 0.79763 0.03145 0.0
H981 H 0.6602 0.49531 0.01946 0.0
H982 H 0.63998 0.49863 -0.0013 0.0
H983 H 0.66036 0.55695 0.99491 0.0
H984 H 0.59903 0.56724 0.94434 0.0
H985 H 0.65032 0.69566 0.93513 0.0
H986 H 0.5909 0.60844 0.00575 0.0
H987 H 0.60384 0.52715 0.00253 0.0
H988 H 0.58447 0.54907 0.98186 0.0
H989 H 0.65347 0.75856 0.99493 0.0
H990 H 0.66709 0.74669 0.96753 0.0
H991 H 0.66867 0.68286 0.99128 0.0
C992 C 0.36845 0.32073 0.94126 0.0
C993 C 0.38281 0.36163 0.92996 0.0
C994 C 0.36786 0.31551 0.96627 0.0
C995 C 0.38226 0.35066 0.98006 0.0
C996 C 0.39756 0.38797 0.96858 0.0
C997 C 0.39748 0.39388 0.94362 0.0
C998 C 0.35107 0.27656 0.9779 0.0
C999 C 0.41343 0.42467 0.98272 0.0
C1000 C 0.3694 0.42162 0.04114 0.0
C1001 C 0.3783 0.37236 0.05631 0.0
C1002 C 0.37005 0.41367 0.01629 0.0
C1003 C 0.38014 0.35563 0.00636 0.0
C1004 C 0.38893 0.30506 0.02152 0.0
C1005 C 0.38779 0.3138 0.0464 0.0
C1006 C 0.36018 0.46805 0.00066 0.0
C1007 C 0.39989 0.24281 0.01146 0.0
H1008 H 0.35703 0.29613 0.93065 0.0
H1009 H 0.40871 0.42482 0.93478 0.0
H1010 H 0.35653 0.24159 0.99232 0.0
H1011 H 0.34089 0.31491 0.98625 0.0
H1012 H 0.34266 0.24463 0.9648 0.0
H1013 H 0.4255 0.44404 0.97109 0.0
H1014 H 0.40703 0.47012 0.99238 0.0
H1015 H 0.41973 0.38869 -0.00366 0.0
H1016 H 0.3618 0.46648 0.04869 0.0
H1017 H 0.39465 0.27544 0.05807 0.0
H1018 H 0.34995 0.44226 0.98795 0.0
H1019 H 0.37139 0.49615 0.98991 0.0
H1020 H 0.35183 0.50733 0.01126 0.0
H1021 H 0.39034 0.21305 -0.00101 0.0
H1022 H 0.40514 0.2066 0.02569 0.0
H1023 H 0.41275 0.26133 0.00103 0.0
C1024 C 0.63699 0.41055 0.44673 0.0
C1025 C 0.62384 0.37194 0.43267 0.0
C1026 C 0.63646 0.40627 0.4717 0.0
C1027 C 0.62217 0.3634 0.48285 0.0
C1028 C 0.60901 0.32347 0.46875 0.0
C1029 C 0.61013 0.3277 0.44373 0.0
C1030 C 0.65095 0.44883 0.48616 0.0
C1031 C 0.59339 0.27816 0.48009 0.0
C1032 C 0.6322 0.3252 0.5482 0.0
C1033 C 0.62185 0.37991 0.55929 0.0
C1034 C 0.63167 0.31678 0.52328 0.0
C1035 C 0.62047 0.36406 0.50926 0.0
C1036 C 0.60915 0.41692 0.52047 0.0
C1037 C 0.61002 0.42434 0.54535 0.0
C1038 C 0.6439 0.25975 0.51188 0.0
C1039 C 0.59686 0.46786 0.5061 0.0
H1040 H 0.64775 0.44414 0.43817 0.0
H1041 H 0.59989 0.29801 0.43284 0.0
H1042 H 0.64299 0.48886 0.49683 0.0
H1043 H 0.65891 0.41438 0.49892 0.0
H1044 H 0.66189 0.47603 0.4747 0.0
H1045 H 0.58514 0.24692 0.46664 0.0
H1046 H 0.60007 0.24176 0.49329 0.0
H1047 H 0.58282 0.3118 0.48995 0.0
H1048 H 0.64133 0.29058 0.55887 0.0
H1049 H 0.60172 0.46607 0.55383 0.0
H1050 H 0.65633 0.28387 0.50202 0.0
H1051 H 0.63506 0.22979 0.49871 0.0
H1052 H 0.64995 0.22258 0.52533 0.0
H1053 H 0.60663 0.50289 0.49562 0.0
H1054 H 0.58733 0.50095 0.51764 0.0
H1055 H 0.58745 0.4392 0.49316 0.0
C1056 C 0.39102 0.58415 0.53903 0.0
C1057 C 0.37946 0.62187 0.55527 0.0
C1058 C 0.38887 0.59384 0.5143 0.0
C1059 C 0.3745 0.64137 0.50558 0.0
C1060 C 0.36313 0.681 0.52191 0.0
C1061 C 0.36588 0.67124 0.54659 0.0
C1062 C 0.40156 0.55146 0.49748 0.0
C1063 C 0.34746 0.7312 0.51336 0.0
C1064 C 0.38078 0.683 0.4397 0.0
C1065 C 0.37016 0.62773 0.42942 0.0
C1066 C 0.38129 0.69168 0.46468 0.0
C1067 C 0.37055 0.64492 0.47942 0.0
C1068 C 0.35807 0.59426 0.46882 0.0
C1069 C 0.35824 0.58569 0.44392 0.0
C1070 C 0.39489 0.7459 0.47529 0.0
C1071 C 0.346 0.54452 0.48385 0.0
H1072 H 0.40166 0.54646 0.54567 0.0
H1073 H 0.35682 0.70035 0.55909 0.0
H1074 H 0.3923 0.51381 0.48739 0.0
H1075 H 0.40873 0.58647 0.48424 0.0
H1076 H 0.41314 0.52145 0.5071 0.0
H1077 H 0.3413 0.76313 0.52821 0.0
H1078 H 0.35343 0.76705 0.49953 0.0
H1079 H 0.33533 0.7011 0.50497 0.0
H1080 H 0.39023 0.71486 0.42848 0.0
H1081 H 0.3501 0.54277 0.4359 0.0
H1082 H 0.40809 0.71924 0.48266 0.0
H1083 H 0.38769 0.77408 0.49027 0.0
H1084 H 0.39977 0.78484 0.46174 0.0
H1085 H 0.35582 0.50513 0.4923 0.0
H1086 H 0.33486 0.51617 0.473 0.0
H1087 H 0.3384 0.57323 0.49842 0.0
C1088 C 0.96222 0.08182 0.12208 0.0
C1089 C 0.9512 0.02088 0.12574 0.0
C1090 C 0.98276 0.07937 0.12206 0.0
C1091 C 0.99235 0.01393 0.12489 0.0
C1092 C 0.98124 0.95237 0.12913 0.0
C1093 C 0.96069 0.95683 0.12988 0.0
C1094 C 0.99418 0.14641 0.11826 0.0
C1095 C 0.99098 0.88154 0.13179 0.0
C1096 C 0.04216 0.00057 0.09529 0.0
C1097 C 0.05483 0.00891 0.11484 0.0
C1098 C 0.02176 0.00083 0.09844 0.0
C1099 C 0.01389 0.00956 0.12169 0.0
C1100 C 0.02658 0.01701 0.14156 0.0
C1101 C 0.04694 0.01676 0.13789 0.0
C1102 C 0.0086 0.99255 0.07683 0.0
C1103 C 0.01866 0.0264 0.1666 0.0
H1104 H 0.95474 0.1314 0.11916 0.0
H1105 H 0.95202 0.90976 0.13258 0.0
H1106 H 0.00558 0.15227 0.13232 0.0
H1107 H 0.00184 0.14438 0.10076 0.0
H1108 H 0.98456 0.19356 0.11854 0.0
H1109 H 0.9803 0.83951 0.1363 0.0
H1110 H 0.99843 0.86735 0.11481 0.0
H1111 H 0.00241 0.88344 0.14592 0.0
H1112 H 0.04817 0.99433 0.07746 0.0
H1113 H 0.05668 0.02266 0.15312 0.0
H1114 H 0.99957 0.04055 0.07442 0.0
H1115 H 0.99835 0.94803 0.07956 0.0
H1116 H 0.01707 0.98324 0.06014 0.0
H1117 H 0.01019 0.0761 0.16767 0.0
H1118 H 0.03052 0.02778 0.18026 0.0
H1119 H 0.00842 0.98311 0.1711 0.0
C1120 C 0.96725 0.91842 0.36287 0.0
C1121 C 0.95603 0.97994 0.36098 0.0
C1122 C 0.98781 0.92097 0.3637 0.0
C1123 C 0.99744 0.98675 0.36286 0.0
C1124 C 0.98624 0.04899 0.36013 0.0
C1125 C 0.96564 0.04481 0.35909 0.0
C1126 C 0.9992 0.85333 0.36638 0.0
C1127 C 0.99596 0.12014 0.35922 0.0
C1128 C 0.04706 0.99446 0.39381 0.0
C1129 C 0.06011 0.98775 0.37453 0.0
C1130 C 0.02667 0.99529 0.39017 0.0
C1131 C 0.01908 0.99021 0.36663 0.0
C1132 C 0.03216 0.98479 0.34702 0.0
C1133 C 0.05254 0.98301 0.35121 0.0
C1134 C 0.01321 0.00055 0.41159 0.0
C1135 C 0.02462 0.98038 0.32165 0.0
H1136 H 0.95992 0.86803 0.36412 0.0
H1137 H 0.95704 0.09257 0.35766 0.0
H1138 H 0.01073 0.84971 0.35242 0.0
H1139 H 0.0067 0.85247 0.38401 0.0
H1140 H 0.98961 0.80633 0.36505 0.0
H1141 H 0.98532 0.16285 0.35523 0.0
H1142 H 0.00305 0.13142 0.37668 0.0
H1143 H 0.00766 0.12066 0.34542 0.0
H1144 H 0.0528 0.99823 0.41186 0.0
H1145 H 0.06255 0.97877 0.3362 0.0
H1146 H 0.00387 0.95295 0.41271 0.0
H1147 H 0.00324 0.0463 0.4096 0.0
H1148 H 0.02144 0.00605 0.42866 0.0
H1149 H 0.01578 0.93193 0.31937 0.0
H1150 H 0.03671 0.98002 0.3083 0.0
H1151 H 0.0148 0.02551 0.31779 0.0
C1152 C 0.0405 0.05404 0.85765 0.0
C1153 C 0.05036 0.99422 0.86593 0.0
C1154 C 0.01986 0.05561 0.85659 0.0
C1155 C 0.00901 0.99542 0.86348 0.0
C1156 C 0.01904 0.93349 0.87032 0.0
C1157 C 0.03958 0.93392 0.87171 0.0
C1158 C 0.00967 0.12288 0.84951 0.0
C1159 C 0.00805 0.86781 0.87739 0.0
C1160 C 0.95886 0.01819 0.89177 0.0
C1161 C 0.94621 0.99891 0.87308 0.0
C1162 C 0.97927 0.01847 0.88866 0.0
C1163 C 0.9873 0.9992 0.86625 0.0
C1164 C 0.97465 0.9804 0.84717 0.0
C1165 C 0.9542 0.98034 0.85083 0.0
C1166 C 0.99224 0.03834 0.90954 0.0
C1167 C 0.98272 0.9596 0.82304 0.0
H1168 H 0.04885 0.10073 0.85325 0.0
H1169 H 0.04723 0.88726 0.87782 0.0
H1170 H 0.99815 0.1124 0.83594 0.0
H1171 H 0.00229 0.14579 0.8654 0.0
H1172 H 0.02009 0.16231 0.84222 0.0
H1173 H 0.01801 0.82205 0.87968 0.0
H1174 H 1.00021 0.87689 0.89451 0.0
H1175 H 0.99684 0.85458 0.8637 0.0
H1176 H 0.95283 0.03254 0.90904 0.0
H1177 H 0.9445 0.96583 0.83626 0.0
H1178 H 0.00219 0.08189 0.90438 0.0
H1179 H 0.00159 0.99301 0.91466 0.0
H1180 H 0.98363 0.05483 0.92546 0.0
H1181 H 0.99194 0.00253 0.81574 0.0
H1182 H 0.97091 0.9475 0.80995 0.0
H1183 H 0.99229 0.91276 0.82494 0.0
C1184 C 0.95074 0.05595 0.62919 0.0
C1185 C 0.94165 0.99613 0.61967 0.0
C1186 C 0.97127 0.05872 0.63208 0.0
C1187 C 0.98287 0.99987 0.62565 0.0
C1188 C 0.97364 0.93807 0.61726 0.0
C1189 C 0.95318 0.93718 0.61417 0.0
C1190 C 0.98062 0.12565 0.64096 0.0
C1191 C 0.98544 0.87371 0.61066 0.0
C1192 C 0.03459 0.02983 0.60281 0.0
C1193 C 0.04609 0.00995 0.6225 0.0
C1194 C 0.01405 0.02765 0.60382 0.0
C1195 C 0.00469 0.00524 0.6251 0.0
C1196 C 0.01618 0.98576 0.64519 0.0
C1197 C 0.0368 0.98833 0.64365 0.0
C1198 C 0.00238 0.0483 0.58191 0.0
C1199 C 0.00673 0.96156 0.66818 0.0
H1200 H 0.9419 0.10148 0.63361 0.0
H1201 H 0.94623 0.89021 0.60724 0.0
H1202 H 0.99088 0.11428 0.65589 0.0
H1203 H 0.98936 0.14974 0.62634 0.0
H1204 H 0.96954 0.16445 0.64715 0.0
H1205 H 0.97594 0.82778 0.60667 0.0
H1206 H 0.99454 0.88505 0.59465 0.0
H1207 H 0.99562 0.85948 0.62541 0.0
H1208 H 0.04163 0.04645 0.58637 0.0
H1209 H 0.04561 0.97311 0.65896 0.0
H1210 H 0.99182 0.09062 0.58646 0.0
H1211 H 0.99372 0.00272 0.57547 0.0
H1212 H 0.01189 0.0668 0.56705 0.0
H1213 H 0.99717 0.00368 0.6754 0.0
H1214 H 0.01776 0.94725 0.68202 0.0
H1215 H 0.99725 0.91534 0.6647 0.0
C1216 C 0.45196 0.43429 0.11885 0.0
C1217 C 0.44151 0.49749 0.11766 0.0
C1218 C 0.47263 0.43422 0.11883 0.0
C1219 C 0.4829 0.49894 0.11838 0.0
C1220 C 0.47229 0.56286 0.11863 0.0
C1221 C 0.45171 0.5613 0.11783 0.0
C1222 C 0.48346 0.36507 0.1181 0.0
C1223 C 0.48267 0.63292 0.11887 0.0
C1224 C 0.53737 0.5052 0.13342 0.0
C1225 C 0.54583 0.50926 0.11057 0.0
C1226 C 0.51691 0.50077 0.13629 0.0
C1227 C 0.50466 0.50029 0.11582 0.0
C1228 C 0.51314 0.50395 0.09272 0.0
C1229 C 0.53361 0.50845 0.09038 0.0
C1230 C 0.50842 0.49746 0.16122 0.0
C1231 C 0.50058 0.50364 0.07042 0.0
H1232 H 0.44399 0.38503 0.11855 0.0
H1233 H 0.44354 0.61018 0.11712 0.0
H1234 H 0.49147 0.36036 0.10089 0.0
H1235 H 0.49455 0.36267 0.13262 0.0
H1236 H 0.4734 0.31949 0.11989 0.0
H1237 H 0.47231 0.67742 0.12138 0.0
H1238 H 0.49377 0.63435 0.13342 0.0
H1239 H 0.49059 0.64062 0.10173 0.0
H1240 H 0.54672 0.50545 0.14913 0.0
H1241 H 0.54002 0.51137 0.07266 0.0
H1242 H 0.49923 0.44976 0.16321 0.0
H1243 H 0.49873 0.54345 0.1643 0.0
H1244 H 0.51999 0.49679 0.17525 0.0
H1245 H 0.49098 0.45661 0.07028 0.0
H1246 H 0.50951 0.50384 0.05378 0.0
H1247 H 0.49088 0.55047 0.07027 0.0
C1248 C 0.46547 0.41718 0.38437 0.0
C1249 C 0.45374 0.47276 0.37615 0.0
C1250 C 0.48602 0.42067 0.38323 0.0
C1251 C 0.49511 0.48124 0.37363 0.0
C1252 C 0.48338 0.537 0.36483 0.0
C1253 C 0.46281 0.53213 0.36622 0.0
C1254 C 0.49801 0.36009 0.3928 0.0
C1255 C 0.49254 0.60226 0.35434 0.0
C1256 C 0.54669 0.51776 0.39609 0.0
C1257 C 0.55832 0.49065 0.37755 0.0
C1258 C 0.52612 0.51636 0.39475 0.0
C1259 C 0.5169 0.48758 0.37429 0.0
C1260 C 0.52852 0.46157 0.35522 0.0
C1261 C 0.54912 0.46302 0.35714 0.0
C1262 C 0.51425 0.54452 0.41548 0.0
C1263 C 0.51919 0.43134 0.33298 0.0
H1264 H 0.4586 0.37093 0.39195 0.0
H1265 H 0.45385 0.57516 0.35969 0.0
H1266 H 0.50825 0.34076 0.37884 0.0
H1267 H 0.50705 0.37801 0.40815 0.0
H1268 H 0.48868 0.31562 0.39881 0.0
H1269 H 0.48136 0.63949 0.3473 0.0
H1270 H 0.50137 0.62952 0.36819 0.0
H1271 H 0.50268 0.58791 0.3396 0.0
H1272 H 0.55365 0.53948 0.41188 0.0
H1273 H 0.55801 0.44275 0.34261 0.0
H1274 H 0.50535 0.50167 0.42342 0.0
H1275 H 0.50389 0.58546 0.40913 0.0
H1276 H 0.52366 0.56742 0.42972 0.0
H1277 H 0.51109 0.38268 0.33761 0.0
H1278 H 0.53021 0.41867 0.31898 0.0
H1279 H 0.50835 0.46885 0.32543 0.0
C1280 C 0.45765 0.45753 0.85123 0.0
C1281 C 0.44797 0.51257 0.86299 0.0
C1282 C 0.4783 0.45471 0.85047 0.0
C1283 C 0.48945 0.50871 0.86143 0.0
C1284 C 0.47968 0.56617 0.87221 0.0
C1285 C 0.4591 0.56715 0.87298 0.0
C1286 C 0.48817 0.39224 0.83902 0.0
C1287 C 0.49096 0.6252 0.88391 0.0
C1288 C 0.53963 0.46728 0.88744 0.0
C1289 C 0.55238 0.49697 0.8705 0.0
C1290 C 0.5192 0.4695 0.88438 0.0
C1291 C 0.51119 0.50215 0.86381 0.0
C1292 C 0.52393 0.53132 0.84641 0.0
C1293 C 0.5444 0.52844 0.84995 0.0
C1294 C 0.50617 0.43806 0.90346 0.0
C1295 C 0.5159 0.56658 0.82427 0.0
H1296 H 0.44911 0.41516 0.84352 0.0
H1297 H 0.4517 0.61029 0.88187 0.0
H1298 H 0.49966 0.40977 0.82629 0.0
H1299 H 0.49555 0.36036 0.85301 0.0
H1300 H 0.47756 0.35821 0.82934 0.0
H1301 H 0.48123 0.66903 0.88954 0.0
H1302 H 0.49878 0.60507 0.89993 0.0
H1303 H 0.50222 0.6461 0.87146 0.0
H1304 H 0.5456 0.44275 0.90337 0.0
H1305 H 0.55414 0.55127 0.83674 0.0
H1306 H 0.49603 0.39912 0.8954 0.0
H1307 H 0.49702 0.47979 0.91169 0.0
H1308 H 0.51473 0.4118 0.91784 0.0
H1309 H 0.5063 0.5297 0.81431 0.0
H1310 H 0.52774 0.58501 0.81212 0.0
H1311 H 0.50671 0.61226 0.82944 0.0
C1312 C 0.46277 0.42926 0.61425 0.0
C1313 C 0.45059 0.48126 0.62406 0.0
C1314 C 0.48329 0.43435 0.61559 0.0
C1315 C 0.49195 0.49319 0.6269 0.0
C1316 C 0.47975 0.54512 0.63737 0.0
C1317 C 0.45919 0.53835 0.63595 0.0
C1318 C 0.49572 0.37772 0.60422 0.0
C1319 C 0.48842 0.60907 0.64931 0.0
C1320 C 0.5463 0.47867 0.64278 0.0
C1321 C 0.55512 0.51117 0.62299 0.0
C1322 C 0.52571 0.47392 0.64464 0.0
C1323 C 0.5137 0.50224 0.62628 0.0
C1324 C 0.52254 0.53621 0.60651 0.0
C1325 C 0.54307 0.54028 0.60513 0.0
C1326 C 0.5168 0.43732 0.66598 0.0
C1327 C 0.51032 0.56692 0.58648 0.0
H1328 H 0.45626 0.38472 0.60516 0.0
H1329 H 0.44988 0.57888 0.64349 0.0
H1330 H 0.50417 0.40009 0.58907 0.0
H1331 H 0.5065 0.35702 0.61736 0.0
H1332 H 0.48674 0.33332 0.59741 0.0
H1333 H 0.47702 0.64236 0.6579 0.0
H1334 H 0.4993 0.59309 0.66307 0.0
H1335 H 0.49633 0.64118 0.63584 0.0
H1336 H 0.55548 0.45623 0.65668 0.0
H1337 H 0.54968 0.56566 0.58976 0.0
H1338 H 0.5086 0.39019 0.65996 0.0
H1339 H 0.50611 0.47249 0.67497 0.0
H1340 H 0.52807 0.42079 0.67922 0.0
H1341 H 0.50209 0.52448 0.5773 0.0
H1342 H 0.51941 0.5948 0.57299 0.0
H1343 H 0.49934 0.60424 0.59379 0.0
C1344 C 0.13547 0.76313 0.13727 0.0
C1345 C 0.11641 0.78874 0.13365 0.0
C1346 C 0.13967 0.69141 0.1344 0.0
C1347 C 0.12453 0.64504 0.12715 0.0
C1348 C 0.10527 0.67081 0.12349 0.0
C1349 C 0.1014 0.7422 0.12709 0.0
C1350 C 0.16027 0.66529 0.13902 0.0
C1351 C 0.08883 0.62324 0.11533 0.0
C1352 C 0.13792 0.47347 0.09673 0.0
C1353 C 0.13491 0.42498 0.11524 0.0
C1354 C 0.1348 0.54548 0.10043 0.0
C1355 C 0.12872 0.56945 0.12323 0.0
C1356 C 0.12581 0.52085 0.14203 0.0
C1357 C 0.12883 0.44916 0.13778 0.0
C1358 C 0.13778 0.59582 0.07986 0.0
C1359 C 0.11945 0.54458 0.16664 0.0
H1360 H 0.14706 0.7991 0.14242 0.0
H1361 H 0.08667 0.76196 0.124 0.0
H1362 H 0.16001 0.62261 0.15253 0.0
H1363 H 0.16652 0.6429 0.12235 0.0
H1364 H 0.17015 0.70761 0.14548 0.0
H1365 H 0.07473 0.65188 0.11299 0.0
H1366 H 0.09278 0.59824 0.09806 0.0
H1367 H 0.08657 0.58049 0.12852 0.0
H1368 H 0.14262 0.45516 0.07928 0.0
H1369 H 0.1266 0.41208 0.15224 0.0
H1370 H 0.1488 0.63619 0.08479 0.0
H1371 H 0.12383 0.62367 0.07592 0.0
H1372 H 0.1428 0.56882 0.06334 0.0
H1373 H 0.1299 0.58423 0.17367 0.0
H1374 H 0.11859 0.50037 0.17957 0.0
H1375 H 0.10482 0.57007 0.16559 0.0
C1376 C 0.86752 0.24614 0.1431 0.0
C1377 C 0.88612 0.21845 0.13812 0.0
C1378 C 0.86332 0.31721 0.13844 0.0
C1379 C 0.87784 0.36036 0.12773 0.0
C1380 C 0.8964 0.33155 0.12191 0.0
C1381 C 0.90043 0.2613 0.12758 0.0
C1382 C 0.84355 0.34653 0.14547 0.0
C1383 C 0.91206 0.37502 0.10979 0.0
C1384 C 0.86233 0.53175 0.09812 0.0
C1385 C 0.86783 0.58125 0.11546 0.0
C1386 C 0.86546 0.4596 0.10184 0.0
C1387 C 0.87405 0.43641 0.12354 0.0
C1388 C 0.87963 0.48616 0.14109 0.0
C1389 C 0.8766 0.5579 0.13676 0.0
C1390 C 0.85969 0.40826 0.0825 0.0
C1391 C 0.88867 0.46356 0.16456 0.0
H1392 H 0.85649 0.21274 0.15121 0.0
H1393 H 0.91472 0.23935 0.12335 0.0
H1394 H 0.84554 0.3898 0.15855 0.0
H1395 H 0.83606 0.36903 0.12959 0.0
H1396 H 0.83386 0.30607 0.15357 0.0
H1397 H 0.92518 0.34336 0.10495 0.0
H1398 H 0.90608 0.39948 0.0933 0.0
H1399 H 0.91677 0.4182 0.1218 0.0
H1400 H 0.85554 0.54936 0.08162 0.0
H1401 H 0.88075 0.59566 0.15036 0.0
H1402 H 0.84887 0.37006 0.08959 0.0
H1403 H 0.87275 0.37789 0.07667 0.0
H1404 H 0.8532 0.43477 0.06664 0.0
H1405 H 0.87881 0.42587 0.17378 0.0
H1406 H 0.89147 0.50861 0.17671 0.0
H1407 H 0.90278 0.43614 0.16124 0.0
C1408 C 0.12062 0.23699 0.37787 0.0
C1409 C 0.13004 0.20567 0.35825 0.0
C1410 C 0.12096 0.31018 0.38115 0.0
C1411 C 0.13131 0.35295 0.3647 0.0
C1412 C 0.1409 0.32154 0.34492 0.0
C1413 C 0.13996 0.24843 0.34179 0.0
C1414 C 0.1102 0.34175 0.40218 0.0
C1415 C 0.1524 0.3651 0.32723 0.0
C1416 C 0.12071 0.54892 0.36007 0.0
C1417 C 0.13589 0.57758 0.37395 0.0
C1418 C 0.11877 0.47586 0.35732 0.0
C1419 C 0.13252 0.4304 0.36841 0.0
C1420 C 0.14781 0.45906 0.38254 0.0
C1421 C 0.14922 0.53217 0.38527 0.0
C1422 C 0.10206 0.44733 0.34246 0.0
C1423 C 0.16291 0.41253 0.39446 0.0
H1424 H 0.11275 0.20432 0.39052 0.0
H1425 H 0.14731 0.22459 0.32662 0.0
H1426 H 0.12072 0.36926 0.41407 0.0
H1427 H 0.09945 0.38142 0.39581 0.0
H1428 H 0.10226 0.30157 0.41285 0.0
H1429 H 0.15902 0.33269 0.3128 0.0
H1430 H 0.14271 0.40512 0.31891 0.0
H1431 H 0.16433 0.39361 0.33665 0.0
H1432 H 0.11027 0.5836 0.35138 0.0
H1433 H 0.16104 0.5538 0.39598 0.0
H1434 H 0.09334 0.4094 0.35315 0.0
H1435 H 0.10796 0.4185 0.32679 0.0
H1436 H 0.0921 0.48944 0.33592 0.0
H1437 H 0.15556 0.37518 0.40677 0.0
H1438 H 0.17392 0.44306 0.40479 0.0
H1439 H 0.17071 0.38095 0.38075 0.0
C1440 C 0.8782 0.45791 0.35747 0.0
C1441 C 0.86587 0.43384 0.37584 0.0
C1442 C 0.88045 0.53015 0.35291 0.0
C1443 C 0.87009 0.57968 0.36703 0.0
C1444 C 0.85806 0.55575 0.38601 0.0
C1445 C 0.85612 0.48332 0.3902 0.0
C1446 C 0.89362 0.55345 0.3327 0.0
C1447 C 0.84683 0.60662 0.40158 0.0
C1448 C 0.88689 0.77036 0.36876 0.0
C1449 C 0.87381 0.8029 0.35273 0.0
C1450 C 0.88602 0.69786 0.37332 0.0
C1451 C 0.87159 0.65649 0.36177 0.0
C1452 C 0.85836 0.6888 0.34552 0.0
C1453 C 0.85969 0.76148 0.3411 0.0
C1454 C 0.90051 0.66559 0.39061 0.0
C1455 C 0.84267 0.64662 0.33297 0.0
H1456 H 0.88582 0.42024 0.34628 0.0
H1457 H 0.84659 0.46547 0.40448 0.0
H1458 H 0.88485 0.58185 0.31904 0.0
H1459 H 0.90489 0.5905 0.33948 0.0
H1460 H 0.90117 0.50861 0.32392 0.0
H1461 H 0.83853 0.57971 0.41602 0.0
H1462 H 0.85707 0.6448 0.40989 0.0
H1463 H 0.83633 0.63701 0.39046 0.0
H1464 H 0.89794 0.80158 0.37779 0.0
H1465 H 0.84951 0.78593 0.32871 0.0
H1466 H 0.90883 0.62297 0.38165 0.0
H1467 H 0.89256 0.64162 0.40589 0.0
H1468 H 0.91112 0.70466 0.39772 0.0
H1469 H 0.84953 0.60405 0.32231 0.0
H1470 H 0.8335 0.6794 0.32088 0.0
H1471 H 0.83296 0.62132 0.34638 0.0
C1472 C 0.8857 0.25286 0.8429 0.0
C1473 C 0.8828 0.20913 0.86273 0.0
C1474 C 0.88105 0.32442 0.84402 0.0
C1475 C 0.87394 0.35295 0.86573 0.0
C1476 C 0.87104 0.30896 0.88584 0.0
C1477 C 0.87524 0.23713 0.88397 0.0
C1478 C 0.88377 0.36943 0.82201 0.0
C1479 C 0.86388 0.338 0.90943 0.0
C1480 C 0.88112 0.54848 0.87434 0.0
C1481 C 0.86212 0.57385 0.87016 0.0
C1482 C 0.88509 0.47632 0.87345 0.0
C1483 C 0.8698 0.42911 0.86748 0.0
C1484 C 0.85064 0.4547 0.86295 0.0
C1485 C 0.84696 0.52687 0.86471 0.0
C1486 C 0.90559 0.45058 0.87901 0.0
C1487 C 0.83412 0.40606 0.85584 0.0
H1488 H 0.89135 0.23087 0.82638 0.0
H1489 H 0.8731 0.20317 0.89933 0.0
H1490 H 0.86991 0.39752 0.81775 0.0
H1491 H 0.89516 0.40979 0.82542 0.0
H1492 H 0.88823 0.33814 0.80614 0.0
H1493 H 0.86262 0.29676 0.92341 0.0
H1494 H 0.87415 0.3791 0.91588 0.0
H1495 H 0.84931 0.3632 0.90708 0.0
H1496 H 0.89279 0.58497 0.87875 0.0
H1497 H 0.83229 0.54677 0.86128 0.0
H1498 H 0.91194 0.42444 0.86306 0.0
H1499 H 0.90508 0.41101 0.89358 0.0
H1500 H 0.91554 0.49386 0.88452 0.0
H1501 H 0.83807 0.37784 0.83915 0.0
H1502 H 0.82008 0.43455 0.85287 0.0
H1503 H 0.83179 0.36586 0.86991 0.0
C1504 C 0.13573 0.46188 0.86051 0.0
C1505 C 0.12447 0.42777 0.87804 0.0
C1506 C 0.13456 0.53477 0.85735 0.0
C1507 C 0.12152 0.57425 0.87175 0.0
C1508 C 0.11018 0.54018 0.88954 0.0
C1509 C 0.11195 0.46731 0.89265 0.0
C1510 C 0.14719 0.56942 0.83854 0.0
C1511 C 0.09589 0.58051 0.90496 0.0
C1512 C 0.12734 0.77193 0.87725 0.0
C1513 C 0.11324 0.79611 0.86088 0.0
C1514 C 0.13049 0.69975 0.88067 0.0
C1515 C 0.11913 0.6508 0.86757 0.0
C1516 C 0.10513 0.67489 0.85074 0.0
C1517 C 0.10241 0.74722 0.84753 0.0
C1518 C 0.14581 0.67584 0.89845 0.0
C1519 C 0.09276 0.62424 0.83639 0.0
H1520 H 0.14564 0.43161 0.84937 0.0
H1521 H 0.10323 0.44108 0.90618 0.0
H1522 H 0.13777 0.59494 0.82486 0.0
H1523 H 0.1563 0.61116 0.84681 0.0
H1524 H 0.15707 0.53147 0.82941 0.0
H1525 H 0.08833 0.54634 0.91816 0.0
H1526 H 0.10367 0.62282 0.91475 0.0
H1527 H 0.08463 0.60599 0.89349 0.0
H1528 H 0.13586 0.80938 0.88752 0.0
H1529 H 0.09153 0.76538 0.83477 0.0
H1530 H 0.15648 0.64022 0.88962 0.0
H1531 H 0.13872 0.64567 0.91306 0.0
H1532 H 0.15398 0.72053 0.90646 0.0
H1533 H 0.10235 0.58886 0.8258 0.0
H1534 H 0.08257 0.65155 0.82394 0.0
H1535 H 0.08401 0.59079 0.84864 0.0
C1536 C 0.8662 0.76674 0.61663 0.0
C1537 C 0.88196 0.79617 0.62929 0.0
C1538 C 0.86459 0.69361 0.61368 0.0
C1539 C 0.87934 0.64895 0.62315 0.0
C1540 C 0.89544 0.67852 0.63564 0.0
C1541 C 0.89644 0.75161 0.63877 0.0
C1542 C 0.847 0.66409 0.60067 0.0
C1543 C 0.9117 0.63295 0.64554 0.0
C1544 C 0.86892 0.45584 0.63546 0.0
C1545 C 0.87671 0.42351 0.61501 0.0
C1546 C 0.86922 0.52926 0.63805 0.0
C1547 C 0.878 0.57125 0.62007 0.0
C1548 C 0.88599 0.53875 0.59944 0.0
C1549 C 0.885 0.46539 0.59703 0.0
C1550 C 0.86011 0.56191 0.66002 0.0
C1551 C 0.89584 0.58136 0.58009 0.0
H1552 H 0.85493 0.80086 0.60933 0.0
H1553 H 0.90879 0.77397 0.64837 0.0
H1554 H 0.85185 0.63325 0.58491 0.0
H1555 H 0.83889 0.62774 0.61262 0.0
H1556 H 0.83676 0.7058 0.5945 0.0
H1557 H 0.92351 0.66424 0.65415 0.0
H1558 H 0.90566 0.59585 0.65894 0.0
H1559 H 0.91827 0.60107 0.63097 0.0
H1560 H 0.86224 0.42378 0.64927 0.0
H1561 H 0.89106 0.44066 0.58119 0.0
H1562 H 0.84911 0.60204 0.65469 0.0
H1563 H 0.87157 0.58902 0.67068 0.0
H1564 H 0.8528 0.5224 0.67161 0.0
H1565 H 0.88539 0.62036 0.57263 0.0
H1566 H 0.90138 0.54809 0.56522 0.0
H1567 H 0.90836 0.61104 0.58778 0.0
C1568 C 0.13229 0.23539 0.62807 0.0
C1569 C 0.11274 0.21504 0.6319 0.0
C1570 C 0.13707 0.30601 0.62335 0.0
C1571 C 0.1219 0.35691 0.62199 0.0
C1572 C 0.10213 0.33601 0.6251 0.0
C1573 C 0.09783 0.2657 0.63027 0.0
C1574 C 0.15835 0.32645 0.62042 0.0
C1575 C 0.08546 0.38818 0.62323 0.0
C1576 C 0.13098 0.54895 0.63626 0.0
C1577 C 0.13188 0.57915 0.6134 0.0
C1578 C 0.12856 0.47633 0.63921 0.0
C1579 C 0.12654 0.43281 0.61882 0.0
C1580 C 0.12753 0.46289 0.59565 0.0
C1581 C 0.13041 0.53568 0.59322 0.0
C1582 C 0.12795 0.44623 0.66421 0.0
C1583 C 0.12511 0.41849 0.57347 0.0
H1584 H 0.14387 0.19641 0.62918 0.0
H1585 H 0.08265 0.25026 0.63277 0.0
H1586 H 0.16049 0.35517 0.60335 0.0
H1587 H 0.16269 0.36249 0.6351 0.0
H1588 H 0.16831 0.2802 0.62066 0.0
H1589 H 0.07083 0.3626 0.62442 0.0
H1590 H 0.08664 0.42744 0.63782 0.0
H1591 H 0.08634 0.41708 0.60602 0.0
H1592 H 0.13243 0.58206 0.65193 0.0
H1593 H 0.13118 0.55873 0.5755 0.0
H1594 H 0.13875 0.40286 0.66594 0.0
H1595 H 0.11319 0.42388 0.66778 0.0
H1596 H 0.13117 0.48632 0.6781 0.0
H1597 H 0.13628 0.37608 0.57323 0.0
H1598 H 0.12653 0.44976 0.55677 0.0
H1599 H 0.11047 0.39292 0.5736 0.0
C1600 C 0.64347 0.97061 0.09874 0.0
C1601 C 0.63206 0.92228 0.11156 0.0
C1602 C 0.64106 0.04303 0.10212 0.0
C1603 C 0.62687 0.06738 0.11865 0.0
C1604 C 0.61558 0.01886 0.13197 0.0
C1605 C 0.6183 0.94685 0.12824 0.0
C1606 C 0.6533 0.09347 0.08757 0.0
C1607 C 0.60023 0.04301 0.14966 0.0
C1608 C 0.62643 0.25886 0.13785 0.0
C1609 C 0.61149 0.28548 0.12315 0.0
C1610 C 0.63176 0.18758 0.13663 0.0
C1611 C 0.62214 0.14315 0.12 0.0
C1612 C 0.60733 0.17042 0.10489 0.0
C1613 C 0.60206 0.24097 0.10684 0.0
C1614 C 0.64742 0.1596 0.15323 0.0
C1615 C 0.59695 0.12502 0.08666 0.0
H1616 H 0.65429 0.95195 0.08601 0.0
H1617 H 0.60952 0.9098 0.13834 0.0
H1618 H 0.64363 0.12506 0.07573 0.0
H1619 H 0.66106 0.13063 0.09957 0.0
H1620 H 0.66435 0.06603 0.07631 0.0
H1621 H 0.59374 0.99865 0.15986 0.0
H1622 H 0.60673 0.0808 0.16252 0.0
H1623 H 0.58824 0.07072 0.14006 0.0
H1624 H 0.63369 0.29333 0.1505 0.0
H1625 H 0.59068 0.2616 0.09522 0.0
H1626 H 0.65945 0.13528 0.14273 0.0
H1627 H 0.64114 0.11792 0.16481 0.0
H1628 H 0.65372 0.20125 0.16483 0.0
H1629 H 0.60783 0.10038 0.07449 0.0
H1630 H 0.58627 0.15523 0.07567 0.0
H1631 H 0.58897 0.08203 0.09584 0.0
C1632 C 0.36599 0.73763 0.137 0.0
C1633 C 0.38394 0.70744 0.13053 0.0
C1634 C 0.36318 0.81059 0.13555 0.0
C1635 C 0.37846 0.85357 0.12651 0.0
C1636 C 0.39657 0.82279 0.11971 0.0
C1637 C 0.39922 0.7501 0.12226 0.0
C1638 C 0.34392 0.84166 0.14373 0.0
C1639 C 0.41302 0.86646 0.10938 0.0
C1640 C 0.36465 0.03052 0.09992 0.0
C1641 C 0.37037 0.07696 0.11812 0.0
C1642 C 0.36716 0.95772 0.10245 0.0
C1643 C 0.37544 0.93058 0.12378 0.0
C1644 C 0.38111 0.97706 0.14231 0.0
C1645 C 0.37859 0.0497 0.13921 0.0
C1646 C 0.36112 0.90987 0.08219 0.0
C1647 C 0.38977 0.95005 0.16543 0.0
H1648 H 0.35431 0.70427 0.14367 0.0
H1649 H 0.41309 0.72623 0.11723 0.0
H1650 H 0.34661 0.88343 0.15718 0.0
H1651 H 0.33626 0.86642 0.12836 0.0
H1652 H 0.33405 0.80162 0.15173 0.0
H1653 H 0.4261 0.83431 0.10476 0.0
H1654 H 0.40785 0.89371 0.09298 0.0
H1655 H 0.41751 0.90752 0.12234 0.0
H1656 H 0.35828 0.05103 0.08356 0.0
H1657 H 0.38296 0.08513 0.15342 0.0
H1658 H 0.34992 0.8719 0.08851 0.0
H1659 H 0.37397 0.87899 0.07599 0.0
H1660 H 0.35498 0.93929 0.06673 0.0
H1661 H 0.37954 0.91216 0.1739 0.0
H1662 H 0.39287 0.99294 0.17836 0.0
H1663 H 0.40367 0.92156 0.16177 0.0
C1664 C 0.62158 0.04542 0.3538 0.0
C1665 C 0.63246 0.07502 0.37259 0.0
C1666 C 0.62058 0.97223 0.35074 0.0
C1667 C 0.63077 0.92756 0.36679 0.0
C1668 C 0.64161 0.95711 0.38592 0.0
C1669 C 0.64229 0.03035 0.38862 0.0
C1670 C 0.60875 0.94272 0.33021 0.0
C1671 C 0.65277 0.91137 0.40335 0.0
C1672 C 0.61679 0.73483 0.3726 0.0
C1673 C 0.63097 0.70222 0.35817 0.0
C1674 C 0.61626 0.80824 0.37514 0.0
C1675 C 0.6305 0.84993 0.36334 0.0
C1676 C 0.64485 0.81726 0.34876 0.0
C1677 C 0.64479 0.74391 0.34616 0.0
C1678 C 0.60051 0.84118 0.39049 0.0
C1679 C 0.66046 0.85972 0.33616 0.0
H1680 H 0.61394 0.07946 0.34133 0.0
H1681 H 0.65075 0.05259 0.40319 0.0
H1682 H 0.61847 0.91242 0.31808 0.0
H1683 H 0.59748 0.90589 0.33711 0.0
H1684 H 0.60131 0.98441 0.31965 0.0
H1685 H 0.66037 0.9425 0.41737 0.0
H1686 H 0.64259 0.8741 0.41221 0.0
H1687 H 0.66387 0.87969 0.39361 0.0
H1688 H 0.60592 0.703 0.38172 0.0
H1689 H 0.6558 0.71909 0.335 0.0
H1690 H 0.59219 0.8807 0.37996 0.0
H1691 H 0.60734 0.86912 0.40578 0.0
H1692 H 0.59001 0.80174 0.3976 0.0
H1693 H 0.65351 0.89889 0.32414 0.0
H1694 H 0.67053 0.82638 0.32541 0.0
H1695 H 0.66927 0.8892 0.3495 0.0
C1696 C 0.35137 0.97247 0.38321 0.0
C1697 C 0.36598 0.92339 0.37751 0.0
C1698 C 0.35402 0.04414 0.37847 0.0
C1699 C 0.37191 0.06747 0.36834 0.0
C1700 C 0.38689 0.01825 0.36297 0.0
C1701 C 0.38363 0.94654 0.36731 0.0
C1702 C 0.33757 0.09477 0.38407 0.0
C1703 C 0.40639 0.04141 0.35282 0.0
C1704 C 0.3726 0.24564 0.33749 0.0
C1705 C 0.37957 0.28916 0.35584 0.0
C1706 C 0.37012 0.17318 0.34125 0.0
C1707 C 0.37501 0.1436 0.36375 0.0
C1708 C 0.38238 0.18712 0.38218 0.0
C1709 C 0.38443 0.25933 0.37806 0.0
C1710 C 0.362 0.12843 0.32127 0.0
C1711 C 0.38803 0.15749 0.40632 0.0
H1712 H 0.3376 0.95461 0.39082 0.0
H1713 H 0.39496 0.90862 0.36296 0.0
H1714 H 0.34258 0.13408 0.39737 0.0
H1715 H 0.33331 0.12387 0.36765 0.0
H1716 H 0.32436 0.06785 0.39127 0.0
H1717 H 0.4166 0.99666 0.34996 0.0
H1718 H 0.40411 0.06864 0.33549 0.0
H1719 H 0.41346 0.07949 0.36514 0.0
H1720 H 0.36882 0.2683 0.32029 0.0
H1721 H 0.39001 0.29241 0.39231 0.0
H1722 H 0.34819 0.10285 0.32717 0.0
H1723 H 0.37255 0.08604 0.31676 0.0
H1724 H 0.35893 0.15941 0.30483 0.0
H1725 H 0.37491 0.13492 0.41521 0.0
H1726 H 0.39449 0.19786 0.41831 0.0
H1727 H 0.39883 0.11431 0.40407 0.0
C1728 C 0.39786 0.74818 0.85028 0.0
C1729 C 0.38299 0.70068 0.85635 0.0
C1730 C 0.39566 0.8201 0.85471 0.0
C1731 C 0.37792 0.84517 0.86479 0.0
C1732 C 0.36272 0.79748 0.87066 0.0
C1733 C 0.36558 0.72543 0.86671 0.0
C1734 C 0.41236 0.86922 0.84873 0.0
C1735 C 0.34338 0.82267 0.88073 0.0
C1736 C 0.37877 0.02613 0.89321 0.0
C1737 C 0.37277 0.06826 0.87401 0.0
C1738 C 0.38031 0.95303 0.8906 0.0
C1739 C 0.3752 0.92166 0.86847 0.0
C1740 C 0.36847 0.96391 0.84932 0.0
C1741 C 0.3676 0.03684 0.85222 0.0
C1742 C 0.3879 0.90965 0.91125 0.0
C1743 C 0.36235 0.93218 0.82569 0.0
H1744 H 0.41144 0.72887 0.84256 0.0
H1745 H 0.35406 0.68853 0.87132 0.0
H1746 H 0.40764 0.90711 0.83479 0.0
H1747 H 0.41653 0.90006 0.86479 0.0
H1748 H 0.42555 0.8408 0.84214 0.0
H1749 H 0.33307 0.77874 0.88434 0.0
H1750 H 0.34585 0.85193 0.89761 0.0
H1751 H 0.33632 0.85949 0.86794 0.0
H1752 H 0.38271 0.05046 0.91008 0.0
H1753 H 0.36261 0.06928 0.83747 0.0
H1754 H 0.40168 0.88267 0.90593 0.0
H1755 H 0.37711 0.86836 0.91602 0.0
H1756 H 0.39088 0.94197 0.92739 0.0
H1757 H 0.37528 0.90823 0.81679 0.0
H1758 H 0.35585 0.97171 0.81338 0.0
H1759 H 0.35146 0.88975 0.82865 0.0
C1760 C 0.63402 0.25197 0.84449 0.0
C1761 C 0.62422 0.29217 0.86176 0.0
C1762 C 0.63695 0.17963 0.84777 0.0
C1763 C 0.62939 0.1465 0.86851 0.0
C1764 C 0.6193 0.18681 0.88589 0.0
C1765 C 0.61707 0.25941 0.88246 0.0
C1766 C 0.64821 0.13876 0.82912 0.0
C1767 C 0.61065 0.1531 0.90795 0.0
C1768 C 0.62091 0.94963 0.86499 0.0
C1769 C 0.63711 0.92343 0.87769 0.0
C1770 C 0.61807 0.02216 0.86216 0.0
C1771 C 0.63194 0.06956 0.87193 0.0
C1772 C 0.64831 0.04343 0.88479 0.0
C1773 C 0.65061 0.97067 0.88768 0.0
C1774 C 0.60026 0.04805 0.84865 0.0
C1775 C 0.6636 0.09226 0.89509 0.0
H1776 H 0.63968 0.27731 0.82854 0.0
H1777 H 0.60933 0.29033 0.89574 0.0
H1778 H 0.66091 0.11177 0.83755 0.0
H1779 H 0.63868 0.0976 0.82125 0.0
H1780 H 0.65372 0.17283 0.81446 0.0
H1781 H 0.60281 0.19155 0.91946 0.0
H1782 H 0.60019 0.1112 0.90268 0.0
H1783 H 0.62243 0.12793 0.91867 0.0
H1784 H 0.61041 0.91337 0.85727 0.0
H1785 H 0.66327 0.95078 0.89732 0.0
H1786 H 0.60493 0.07775 0.83256 0.0
H1787 H 0.59166 0.08458 0.86004 0.0
H1788 H 0.59052 0.00445 0.84289 0.0
H1789 H 0.67027 0.12394 0.88055 0.0
H1790 H 0.67549 0.06353 0.9046 0.0
H1791 H 0.65665 0.12946 0.90779 0.0
C1792 C 0.38483 0.95113 0.60937 0.0
C1793 C 0.36653 0.92128 0.61429 0.0
C1794 C 0.38782 0.02358 0.61215 0.0
C1795 C 0.37234 0.06604 0.62101 0.0
C1796 C 0.35387 0.03557 0.62621 0.0
C1797 C 0.35108 0.96356 0.62235 0.0
C1798 C 0.40751 0.05463 0.60566 0.0
C1799 C 0.33719 0.07868 0.63629 0.0
C1800 C 0.38618 0.23837 0.6507 0.0
C1801 C 0.38176 0.28701 0.63263 0.0
C1802 C 0.38309 0.16624 0.6472 0.0
C1803 C 0.37551 0.14226 0.62506 0.0
C1804 C 0.37089 0.19108 0.60682 0.0
C1805 C 0.37401 0.26287 0.61086 0.0
C1806 C 0.38799 0.11564 0.66715 0.0
C1807 C 0.3629 0.16742 0.58292 0.0
H1808 H 0.39669 0.91791 0.60307 0.0
H1809 H 0.337 0.93975 0.62639 0.0
H1810 H 0.40552 0.09782 0.59254 0.0
H1811 H 0.41451 0.07754 0.62179 0.0
H1812 H 0.41764 0.015 0.59787 0.0
H1813 H 0.32386 0.04661 0.63974 0.0
H1814 H 0.34183 0.10361 0.65332 0.0
H1815 H 0.33328 0.12153 0.62371 0.0
H1816 H 0.39213 0.25657 0.66759 0.0
H1817 H 0.37057 0.30004 0.59677 0.0
H1818 H 0.39947 0.07827 0.66114 0.0
H1819 H 0.37481 0.08428 0.67187 0.0
H1820 H 0.39332 0.14287 0.68348 0.0
H1821 H 0.37349 0.13117 0.57424 0.0
H1822 H 0.36003 0.21212 0.57063 0.0
H1823 H 0.34901 0.138 0.58549 0.0
C1824 C 0.63205 0.74453 0.61644 0.0
C1825 C 0.61753 0.71936 0.63204 0.0
C1826 C 0.63431 0.8168 0.61235 0.0
C1827 C 0.62158 0.86479 0.62391 0.0
C1828 C 0.60684 0.83964 0.63955 0.0
C1829 C 0.60508 0.76727 0.64355 0.0
C1830 C 0.65043 0.84184 0.59588 0.0
C1831 C 0.59288 0.88923 0.65204 0.0
C1832 C 0.6365 0.05401 0.63389 0.0
C1833 C 0.62628 0.08869 0.61556 0.0
C1834 C 0.63563 0.98088 0.63628 0.0
C1835 C 0.62391 0.94156 0.62025 0.0
C1836 C 0.61369 0.97609 0.60154 0.0
C1837 C 0.61516 0.04935 0.59927 0.0
C1838 C 0.64709 0.94581 0.65613 0.0
C1839 C 0.60091 0.93583 0.58425 0.0
H1840 H 0.64176 0.70776 0.60752 0.0
H1841 H 0.59374 0.74822 0.65551 0.0
H1842 H 0.64411 0.87351 0.5811 0.0
H1843 H 0.66069 0.87636 0.60586 0.0
H1844 H 0.65894 0.79767 0.58804 0.0
H1845 H 0.58182 0.86108 0.66306 0.0
H1846 H 0.60122 0.92536 0.66383 0.0
H1847 H 0.58505 0.92198 0.63865 0.0
H1848 H 0.64539 0.08401 0.64633 0.0
H1849 H 0.60731 0.07593 0.58501 0.0
H1850 H 0.6565 0.90348 0.64872 0.0
H1851 H 0.63682 0.92106 0.669 0.0
H1852 H 0.65656 0.98339 0.66603 0.0
H1853 H 0.60964 0.89442 0.57521 0.0
H1854 H 0.59427 0.97031 0.57039 0.0
H1855 H 0.58892 0.90917 0.59417 0.0
loop_
_geom_bond_atom_site_label_1
_geom_bond_atom_site_label_2
_geom_bond_distance
_geom_bond_site_symmetry_2
_ccdc_geom_bond_type
Zn0 O6 1.969 . S
Zn0 O7 1.965 . S
Zn0 O11 2.024 . S
Zn0 O16 1.969 . S
Zn1 O8 1.969 . S
Zn1 O14 1.969 1_545 S
Zn1 O15 1.965 . S
Zn1 O17 2.024 . S
C2 O3 1.229 . S
C2 O11 1.058 . S
O3 C2 1.229 . S
C4 O5 1.229 1_545 S
C4 O17 1.058 . S
O5 C4 1.229 1_565 S
O6 Zn0 1.969 . S
O6 C9 1.267 . S
O7 Zn0 1.965 . S
O7 C18 1.260 . S
O8 Zn1 1.969 . S
O8 C18 1.258 . S
C9 O6 1.267 . S
C9 O10 1.228 . S
O10 C9 1.228 . S
O11 Zn0 2.024 . S
O11 C2 1.058 . S
C12 O13 1.228 . S
C12 O14 1.267 . S
O13 C12 1.228 . S
O14 Zn1 1.969 1_565 S
O14 C12 1.267 . S
O15 Zn1 1.965 . S
O15 C19 1.260 . S
O16 Zn0 1.969 . S
O16 C19 1.258 . S
O17 Zn1 2.024 . S
O17 C4 1.058 . S
C18 O7 1.260 . S
C18 O8 1.258 . S
C19 O15 1.260 . S
C19 O16 1.258 . S
Zn20 O26 1.969 . S
Zn20 O27 1.965 . S
Zn20 O31 2.024 . S
Zn20 O36 1.969 . S
Zn21 O28 1.969 . S
Zn21 O34 1.969 1_565 S
Zn21 O35 1.965 . S
Zn21 O37 2.024 . S
C22 O23 1.229 . S
C22 O31 1.058 . S
O23 C22 1.229 . S
C24 O25 1.229 1_565 S
C24 O37 1.058 . S
O25 C24 1.229 1_545 S
O26 Zn20 1.969 . S
O26 C29 1.267 . S
O27 Zn20 1.965 . S
O27 C38 1.260 . S
O28 Zn21 1.969 . S
O28 C38 1.258 . S
C29 O26 1.267 . S
C29 O30 1.228 . S
O30 C29 1.228 . S
O31 Zn20 2.024 . S
O31 C22 1.058 . S
C32 O33 1.228 . S
C32 O34 1.267 . S
O33 C32 1.228 . S
O34 Zn21 1.969 1_545 S
O34 C32 1.267 . S
O35 Zn21 1.965 . S
O35 C39 1.260 . S
O36 Zn20 1.969 . S
O36 C39 1.258 . S
O37 Zn21 2.024 . S
O37 C24 1.058 . S
C38 O27 1.260 . S
C38 O28 1.258 . S
C39 O35 1.260 . S
C39 O36 1.258 . S
Zn40 O46 1.969 . S
Zn40 O47 1.965 . S
Zn40 O51 2.024 . S
Zn40 O56 1.969 . S
Zn41 O48 1.969 . S
Zn41 O54 1.969 1_565 S
Zn41 O55 1.965 . S
Zn41 O57 2.024 . S
C42 O43 1.229 . S
C42 O51 1.058 . S
O43 C42 1.229 . S
C44 O45 1.229 1_565 S
C44 O57 1.058 . S
O45 C44 1.229 1_545 S
O46 Zn40 1.969 . S
O46 C49 1.267 . S
O47 Zn40 1.965 . S
O47 C58 1.260 . S
O48 Zn41 1.969 . S
O48 C58 1.258 . S
C49 O46 1.267 . S
C49 O50 1.228 . S
O50 C49 1.228 . S
O51 Zn40 2.024 . S
O51 C42 1.058 . S
C52 O53 1.228 . S
C52 O54 1.267 . S
O53 C52 1.228 . S
O54 Zn41 1.969 1_545 S
O54 C52 1.267 . S
O55 Zn41 1.965 . S
O55 C59 1.260 . S
O56 Zn40 1.969 . S
O56 C59 1.258 . S
O57 Zn41 2.024 . S
O57 C44 1.058 . S
C58 O47 1.260 . S
C58 O48 1.258 . S
C59 O55 1.260 . S
C59 O56 1.258 . S
Zn60 O66 1.969 . S
Zn60 O67 1.965 . S
Zn60 O71 2.024 . S
Zn60 O76 1.969 . S
Zn61 O68 1.969 . S
Zn61 O74 1.969 1_545 S
Zn61 O75 1.965 . S
Zn61 O77 2.024 . S
C62 O63 1.229 . S
C62 O71 1.058 . S
O63 C62 1.229 . S
C64 O65 1.229 1_545 S
C64 O77 1.058 . S
O65 C64 1.229 1_565 S
O66 Zn60 1.969 . S
O66 C69 1.267 . S
O67 Zn60 1.965 . S
O67 C78 1.260 . S
O68 Zn61 1.969 . S
O68 C78 1.258 . S
C69 O66 1.267 . S
C69 O70 1.228 . S
O70 C69 1.228 . S
O71 Zn60 2.024 . S
O71 C62 1.058 . S
C72 O73 1.228 . S
C72 O74 1.267 . S
O73 C72 1.228 . S
O74 Zn61 1.969 1_565 S
O74 C72 1.267 . S
O75 Zn61 1.965 . S
O75 C79 1.260 . S
O76 Zn60 1.969 . S
O76 C79 1.258 . S
O77 Zn61 2.024 . S
O77 C64 1.058 . S
C78 O67 1.260 . S
C78 O68 1.258 . S
C79 O75 1.260 . S
C79 O76 1.258 . S
Zn80 O86 1.969 1_565 S
Zn80 O87 1.965 . S
Zn80 O91 2.024 . S
Zn80 O96 1.969 . S
Zn81 O88 1.969 . S
Zn81 O94 1.969 . S
Zn81 O95 1.965 . S
Zn81 O97 2.024 . S
C82 O83 1.229 1_565 S
C82 O91 1.058 . S
O83 C82 1.229 1_545 S
C84 O85 1.229 . S
C84 O97 1.058 . S
O85 C84 1.229 . S
O86 Zn80 1.969 1_545 S
O86 C89 1.267 . S
O87 Zn80 1.965 . S
O87 C98 1.260 . S
O88 Zn81 1.969 . S
O88 C98 1.258 . S
C89 O86 1.267 . S
C89 O90 1.228 . S
O90 C89 1.228 . S
O91 Zn80 2.024 . S
O91 C82 1.058 . S
C92 O93 1.228 . S
C92 O94 1.267 . S
O93 C92 1.228 . S
O94 Zn81 1.969 . S
O94 C92 1.267 . S
O95 Zn81 1.965 . S
O95 C99 1.260 . S
O96 Zn80 1.969 . S
O96 C99 1.258 . S
O97 Zn81 2.024 . S
O97 C84 1.058 . S
C98 O87 1.260 . S
C98 O88 1.258 . S
C99 O95 1.260 . S
C99 O96 1.258 . S
Zn100 O106 1.969 1_545 S
Zn100 O107 1.965 . S
Zn100 O111 2.024 . S
Zn100 O116 1.969 . S
Zn101 O108 1.969 . S
Zn101 O114 1.969 . S
Zn101 O115 1.965 . S
Zn101 O117 2.024 . S
C102 O103 1.229 1_545 S
C102 O111 1.058 . S
O103 C102 1.229 1_565 S
C104 O105 1.229 . S
C104 O117 1.058 . S
O105 C104 1.229 . S
O106 Zn100 1.969 1_565 S
O106 C109 1.267 . S
O107 Zn100 1.965 . S
O107 C118 1.260 . S
O108 Zn101 1.969 . S
O108 C118 1.258 . S
C109 O106 1.267 . S
C109 O110 1.228 . S
O110 C109 1.228 . S
O111 Zn100 2.024 . S
O111 C102 1.058 . S
C112 O113 1.228 . S
C112 O114 1.267 . S
O113 C112 1.228 . S
O114 Zn101 1.969 . S
O114 C112 1.267 . S
O115 Zn101 1.965 . S
O115 C119 1.260 . S
O116 Zn100 1.969 . S
O116 C119 1.258 . S
O117 Zn101 2.024 . S
O117 C104 1.058 . S
C118 O107 1.260 . S
C118 O108 1.258 . S
C119 O115 1.260 . S
C119 O116 1.258 . S
Zn120 O126 1.969 1_545 S
Zn120 O127 1.965 . S
Zn120 O131 2.024 . S
Zn120 O136 1.969 . S
Zn121 O128 1.969 . S
Zn121 O134 1.969 . S
Zn121 O135 1.965 . S
Zn121 O137 2.024 . S
C122 O123 1.229 1_545 S
C122 O131 1.058 . S
O123 C122 1.229 1_565 S
C124 O125 1.229 . S
C124 O137 1.058 . S
O125 C124 1.229 . S
O126 Zn120 1.969 1_565 S
O126 C129 1.267 . S
O127 Zn120 1.965 . S
O127 C138 1.260 . S
O128 Zn121 1.969 . S
O128 C138 1.258 . S
C129 O126 1.267 . S
C129 O130 1.228 . S
O130 C129 1.228 . S
O131 Zn120 2.024 . S
O131 C122 1.058 . S
C132 O133 1.228 . S
C132 O134 1.267 . S
O133 C132 1.228 . S
O134 Zn121 1.969 . S
O134 C132 1.267 . S
O135 Zn121 1.965 . S
O135 C139 1.260 . S
O136 Zn120 1.969 . S
O136 C139 1.258 . S
O137 Zn121 2.024 . S
O137 C124 1.058 . S
C138 O127 1.260 . S
C138 O128 1.258 . S
C139 O135 1.260 . S
C139 O136 1.258 . S
Zn140 O146 1.969 1_565 S
Zn140 O147 1.965 . S
Zn140 O151 2.024 . S
Zn140 O156 1.969 . S
Zn141 O148 1.969 . S
Zn141 O154 1.969 . S
Zn141 O155 1.965 . S
Zn141 O157 2.024 . S
C142 O143 1.229 1_565 S
C142 O151 1.058 . S
O143 C142 1.229 1_545 S
C144 O145 1.229 . S
C144 O157 1.058 . S
O145 C144 1.229 . S
O146 Zn140 1.969 1_545 S
O146 C149 1.267 . S
O147 Zn140 1.965 . S
O147 C158 1.260 . S
O148 Zn141 1.969 . S
O148 C158 1.258 . S
C149 O146 1.267 . S
C149 O150 1.228 . S
O150 C149 1.228 . S
O151 Zn140 2.024 . S
O151 C142 1.058 . S
C152 O153 1.228 . S
C152 O154 1.267 . S
O153 C152 1.228 . S
O154 Zn141 1.969 . S
O154 C152 1.267 . S
O155 Zn141 1.965 . S
O155 C159 1.260 . S
O156 Zn140 1.969 . S
O156 C159 1.258 . S
O157 Zn141 2.024 . S
O157 C144 1.058 . S
C158 O147 1.260 . S
C158 O148 1.258 . S
C159 O155 1.260 . S
C159 O156 1.258 . S
Zn160 O166 1.969 . S
Zn160 O167 1.965 . S
Zn160 O171 2.024 . S
Zn160 O176 1.969 . S
Zn161 O168 1.969 . S
Zn161 O174 1.969 . S
Zn161 O175 1.965 . S
Zn161 O177 2.024 . S
C162 O163 1.229 . S
C162 O171 1.058 . S
O163 C162 1.229 . S
C164 O165 1.229 . S
C164 O177 1.058 . S
O165 C164 1.229 . S
O166 Zn160 1.969 . S
O166 C169 1.267 . S
O167 Zn160 1.965 . S
O167 C178 1.260 . S
O168 Zn161 1.969 . S
O168 C178 1.258 . S
C169 O166 1.267 . S
C169 O170 1.228 . S
O170 C169 1.228 . S
O171 Zn160 2.024 . S
O171 C162 1.058 . S
C172 O173 1.228 . S
C172 O174 1.267 . S
O173 C172 1.228 . S
O174 Zn161 1.969 . S
O174 C172 1.267 . S
O175 Zn161 1.965 . S
O175 C179 1.260 . S
O176 Zn160 1.969 . S
O176 C179 1.258 . S
O177 Zn161 2.024 . S
O177 C164 1.058 . S
C178 O167 1.260 . S
C178 O168 1.258 . S
C179 O175 1.260 . S
C179 O176 1.258 . S
Zn180 O186 1.969 . S
Zn180 O187 1.965 . S
Zn180 O191 2.024 . S
Zn180 O196 1.969 . S
Zn181 O188 1.969 . S
Zn181 O194 1.969 . S
Zn181 O195 1.965 . S
Zn181 O197 2.024 . S
C182 O183 1.229 . S
C182 O191 1.058 . S
O183 C182 1.229 . S
C184 O185 1.229 . S
C184 O197 1.058 . S
O185 C184 1.229 . S
O186 Zn180 1.969 . S
O186 C189 1.267 . S
O187 Zn180 1.965 . S
O187 C198 1.260 . S
O188 Zn181 1.969 . S
O188 C198 1.258 . S
C189 O186 1.267 . S
C189 O190 1.228 . S
O190 C189 1.228 . S
O191 Zn180 2.024 . S
O191 C182 1.058 . S
C192 O193 1.228 . S
C192 O194 1.267 . S
O193 C192 1.228 . S
O194 Zn181 1.969 . S
O194 C192 1.267 . S
O195 Zn181 1.965 . S
O195 C199 1.260 . S
O196 Zn180 1.969 . S
O196 C199 1.258 . S
O197 Zn181 2.024 . S
O197 C184 1.058 . S
C198 O187 1.260 . S
C198 O188 1.258 . S
C199 O195 1.260 . S
C199 O196 1.258 . S
Zn200 O206 1.969 . S
Zn200 O207 1.965 . S
Zn200 O211 2.024 . S
Zn200 O216 1.969 . S
Zn201 O208 1.969 . S
Zn201 O214 1.969 . S
Zn201 O215 1.965 . S
Zn201 O217 2.024 . S
C202 O203 1.229 . S
C202 O211 1.058 . S
O203 C202 1.229 . S
C204 O205 1.229 . S
C204 O217 1.058 . S
O205 C204 1.229 . S
O206 Zn200 1.969 . S
O206 C209 1.267 . S
O207 Zn200 1.965 . S
O207 C218 1.260 . S
O208 Zn201 1.969 . S
O208 C218 1.258 . S
C209 O206 1.267 . S
C209 O210 1.228 . S
O210 C209 1.228 . S
O211 Zn200 2.024 . S
O211 C202 1.058 . S
C212 O213 1.228 . S
C212 O214 1.267 . S
O213 C212 1.228 . S
O214 Zn201 1.969 . S
O214 C212 1.267 . S
O215 Zn201 1.965 . S
O215 C219 1.260 . S
O216 Zn200 1.969 . S
O216 C219 1.258 . S
O217 Zn201 2.024 . S
O217 C204 1.058 . S
C218 O207 1.260 . S
C218 O208 1.258 . S
C219 O215 1.260 . S
C219 O216 1.258 . S
Zn220 O226 1.969 . S
Zn220 O227 1.965 . S
Zn220 O231 2.024 . S
Zn220 O236 1.969 . S
Zn221 O228 1.969 . S
Zn221 O234 1.969 . S
Zn221 O235 1.965 . S
Zn221 O237 2.024 . S
C222 O223 1.229 . S
C222 O231 1.058 . S
O223 C222 1.229 . S
C224 O225 1.229 . S
C224 O237 1.058 . S
O225 C224 1.229 . S
O226 Zn220 1.969 . S
O226 C229 1.267 . S
O227 Zn220 1.965 . S
O227 C238 1.260 . S
O228 Zn221 1.969 . S
O228 C238 1.258 . S
C229 O226 1.267 . S
C229 O230 1.228 . S
O230 C229 1.228 . S
O231 Zn220 2.024 . S
O231 C222 1.058 . S
C232 O233 1.228 . S
C232 O234 1.267 . S
O233 C232 1.228 . S
O234 Zn221 1.969 . S
O234 C232 1.267 . S
O235 Zn221 1.965 . S
O235 C239 1.260 . S
O236 Zn220 1.969 . S
O236 C239 1.258 . S
O237 Zn221 2.024 . S
O237 C224 1.058 . S
C238 O227 1.260 . S
C238 O228 1.258 . S
C239 O235 1.260 . S
C239 O236 1.258 . S
Zn240 O246 1.969 . S
Zn240 O247 1.965 . S
Zn240 O251 2.024 . S
Zn240 O256 1.969 . S
Zn241 O248 1.969 . S
Zn241 O254 1.969 . S
Zn241 O255 1.965 . S
Zn241 O257 2.024 . S
C242 O243 1.229 . S
C242 O251 1.058 . S
O243 C242 1.229 . S
C244 O245 1.229 . S
C244 O257 1.058 . S
O245 C244 1.229 . S
O246 Zn240 1.969 . S
O246 C249 1.267 . S
O247 Zn240 1.965 . S
O247 C258 1.260 . S
O248 Zn241 1.969 . S
O248 C258 1.258 . S
C249 O246 1.267 . S
C249 O250 1.228 . S
O250 C249 1.228 . S
O251 Zn240 2.024 . S
O251 C242 1.058 . S
C252 O253 1.228 . S
C252 O254 1.267 . S
O253 C252 1.228 . S
O254 Zn241 1.969 . S
O254 C252 1.267 . S
O255 Zn241 1.965 . S
O255 C259 1.260 . S
O256 Zn240 1.969 . S
O256 C259 1.258 . S
O257 Zn241 2.024 . S
O257 C244 1.058 . S
C258 O247 1.260 . S
C258 O248 1.258 . S
C259 O255 1.260 . S
C259 O256 1.258 . S
Zn260 O266 1.969 . S
Zn260 O267 1.965 . S
Zn260 O271 2.024 . S
Zn260 O276 1.969 . S
Zn261 O268 1.969 . S
Zn261 O274 1.969 . S
Zn261 O275 1.965 . S
Zn261 O277 2.024 . S
C262 O263 1.229 . S
C262 O271 1.058 . S
O263 C262 1.229 . S
C264 O265 1.229 . S
C264 O277 1.058 . S
O265 C264 1.229 . S
O266 Zn260 1.969 . S
O266 C269 1.267 . S
O267 Zn260 1.965 . S
O267 C278 1.260 . S
O268 Zn261 1.969 . S
O268 C278 1.258 . S
C269 O266 1.267 . S
C269 O270 1.228 . S
O270 C269 1.228 . S
O271 Zn260 2.024 . S
O271 C262 1.058 . S
C272 O273 1.228 . S
C272 O274 1.267 . S
O273 C272 1.228 . S
O274 Zn261 1.969 . S
O274 C272 1.267 . S
O275 Zn261 1.965 . S
O275 C279 1.260 . S
O276 Zn260 1.969 . S
O276 C279 1.258 . S
O277 Zn261 2.024 . S
O277 C264 1.058 . S
C278 O267 1.260 . S
C278 O268 1.258 . S
C279 O275 1.260 . S
C279 O276 1.258 . S
Zn280 O286 1.969 . S
Zn280 O287 1.965 . S
Zn280 O291 2.024 . S
Zn280 O296 1.969 . S
Zn281 O288 1.969 . S
Zn281 O294 1.969 . S
Zn281 O295 1.965 . S
Zn281 O297 2.024 . S
C282 O283 1.229 . S
C282 O291 1.058 . S
O283 C282 1.229 . S
C284 O285 1.229 . S
C284 O297 1.058 . S
O285 C284 1.229 . S
O286 Zn280 1.969 . S
O286 C289 1.267 . S
O287 Zn280 1.965 . S
O287 C298 1.260 . S
O288 Zn281 1.969 . S
O288 C298 1.258 . S
C289 O286 1.267 . S
C289 O290 1.228 . S
O290 C289 1.228 . S
O291 Zn280 2.024 . S
O291 C282 1.058 . S
C292 O293 1.228 . S
C292 O294 1.267 . S
O293 C292 1.228 . S
O294 Zn281 1.969 . S
O294 C292 1.267 . S
O295 Zn281 1.965 . S
O295 C299 1.260 . S
O296 Zn280 1.969 . S
O296 C299 1.258 . S
O297 Zn281 2.024 . S
O297 C284 1.058 . S
C298 O287 1.260 . S
C298 O288 1.258 . S
C299 O295 1.260 . S
C299 O296 1.258 . S
Zn300 O306 1.969 . S
Zn300 O307 1.965 . S
Zn300 O311 2.024 . S
Zn300 O316 1.969 . S
Zn301 O308 1.969 . S
Zn301 O314 1.969 . S
Zn301 O315 1.965 . S
Zn301 O317 2.024 . S
C302 O303 1.229 . S
C302 O311 1.058 . S
O303 C302 1.229 . S
C304 O305 1.229 . S
C304 O317 1.058 . S
O305 C304 1.229 . S
O306 Zn300 1.969 . S
O306 C309 1.267 . S
O307 Zn300 1.965 . S
O307 C318 1.260 . S
O308 Zn301 1.969 . S
O308 C318 1.258 . S
C309 O306 1.267 . S
C309 O310 1.228 . S
O310 C309 1.228 . S
O311 Zn300 2.024 . S
O311 C302 1.058 . S
C312 O313 1.228 . S
C312 O314 1.267 . S
O313 C312 1.228 . S
O314 Zn301 1.969 . S
O314 C312 1.267 . S
O315 Zn301 1.965 . S
O315 C319 1.260 . S
O316 Zn300 1.969 . S
O316 C319 1.258 . S
O317 Zn301 2.024 . S
O317 C304 1.058 . S
C318 O307 1.260 . S
C318 O308 1.258 . S
C319 O315 1.260 . S
C319 O316 1.258 . S
C320 C321 1.391 . S
C320 C322 1.394 . S
C320 H336 0.931 . S
C321 C320 1.391 . S
C321 C325 1.376 . S
C322 C320 1.394 . S
C322 C323 1.369 . S
C322 C326 1.531 . S
C323 C322 1.369 . S
C323 C324 1.410 . S
C323 C331 1.503 . S
C324 C323 1.410 . S
C324 C325 1.392 . S
C324 C327 1.511 . S
C325 C321 1.376 . S
C325 C324 1.392 . S
C325 H337 0.929 . S
C326 C322 1.531 . S
C326 H338 0.960 . S
C326 H339 0.962 . S
C326 H340 0.960 . S
C327 C324 1.511 . S
C327 H341 0.961 . S
C327 H342 0.961 . S
C327 H343 0.961 . S
C328 C329 1.370 . S
C328 C330 1.363 . S
C328 H344 0.931 . S
C329 C328 1.370 . S
C329 C333 1.408 . S
C330 C328 1.363 . S
C330 C331 1.370 . S
C330 C334 1.524 . S
C331 C323 1.503 . S
C331 C330 1.370 . S
C331 C332 1.403 . S
C332 C331 1.403 . S
C332 C333 1.404 . S
C332 C335 1.539 . S
C333 C329 1.408 . S
C333 C332 1.404 . S
C333 H345 0.930 . S
C334 C330 1.524 . S
C334 H346 0.956 . S
C334 H347 0.961 . S
C334 H348 0.961 . S
C335 C332 1.539 . S
C335 H349 0.958 . S
C335 H350 0.961 . S
C335 H351 0.960 . S
H336 C320 0.931 . S
H337 C325 0.929 . S
H338 C326 0.960 . S
H339 C326 0.962 . S
H340 C326 0.960 . S
H341 C327 0.961 . S
H342 C327 0.961 . S
H343 C327 0.961 . S
H344 C328 0.931 . S
H345 C333 0.930 . S
H346 C334 0.956 . S
H347 C334 0.961 . S
H348 C334 0.961 . S
H349 C335 0.958 . S
H350 C335 0.961 . S
H351 C335 0.960 . S
C352 C353 1.391 . S
C352 C354 1.394 . S
C352 H368 0.931 . S
C353 C352 1.391 . S
C353 C357 1.376 . S
C354 C352 1.394 . S
C354 C355 1.369 . S
C354 C358 1.531 . S
C355 C354 1.369 . S
C355 C356 1.410 . S
C355 C363 1.503 . S
C356 C355 1.410 . S
C356 C357 1.392 . S
C356 C359 1.511 . S
C357 C353 1.376 . S
C357 C356 1.392 . S
C357 H369 0.929 . S
C358 C354 1.531 . S
C358 H370 0.960 . S
C358 H371 0.962 . S
C358 H372 0.960 . S
C359 C356 1.511 . S
C359 H373 0.961 . S
C359 H374 0.961 . S
C359 H375 0.961 . S
C360 C361 1.370 . S
C360 C362 1.363 . S
C360 H376 0.931 . S
C361 C360 1.370 . S
C361 C365 1.408 . S
C362 C360 1.363 . S
C362 C363 1.370 . S
C362 C366 1.524 . S
C363 C355 1.503 . S
C363 C362 1.370 . S
C363 C364 1.403 . S
C364 C363 1.403 . S
C364 C365 1.404 . S
C364 C367 1.539 . S
C365 C361 1.408 . S
C365 C364 1.404 . S
C365 H377 0.930 . S
C366 C362 1.524 . S
C366 H378 0.956 . S
C366 H379 0.961 . S
C366 H380 0.961 . S
C367 C364 1.539 . S
C367 H381 0.958 . S
C367 H382 0.961 . S
C367 H383 0.960 . S
H368 C352 0.931 . S
H369 C357 0.929 . S
H370 C358 0.960 . S
H371 C358 0.962 . S
H372 C358 0.960 . S
H373 C359 0.961 . S
H374 C359 0.961 . S
H375 C359 0.961 . S
H376 C360 0.931 . S
H377 C365 0.930 . S
H378 C366 0.956 . S
H379 C366 0.961 . S
H380 C366 0.961 . S
H381 C367 0.958 . S
H382 C367 0.961 . S
H383 C367 0.960 . S
C384 C385 1.391 . S
C384 C386 1.394 . S
C384 H400 0.931 . S
C385 C384 1.391 . S
C385 C389 1.376 . S
C386 C384 1.394 . S
C386 C387 1.369 . S
C386 C390 1.531 . S
C387 C386 1.369 . S
C387 C388 1.410 . S
C387 C395 1.503 . S
C388 C387 1.410 . S
C388 C389 1.392 . S
C388 C391 1.511 . S
C389 C385 1.376 . S
C389 C388 1.392 . S
C389 H401 0.929 . S
C390 C386 1.531 . S
C390 H402 0.960 . S
C390 H403 0.962 . S
C390 H404 0.960 . S
C391 C388 1.511 . S
C391 H405 0.961 . S
C391 H406 0.961 . S
C391 H407 0.961 . S
C392 C393 1.370 . S
C392 C394 1.363 . S
C392 H408 0.931 . S
C393 C392 1.370 . S
C393 C397 1.408 . S
C394 C392 1.363 . S
C394 C395 1.370 . S
C394 C398 1.524 . S
C395 C387 1.503 . S
C395 C394 1.370 . S
C395 C396 1.403 . S
C396 C395 1.403 . S
C396 C397 1.404 . S
C396 C399 1.539 . S
C397 C393 1.408 . S
C397 C396 1.404 . S
C397 H409 0.930 . S
C398 C394 1.524 . S
C398 H410 0.956 . S
C398 H411 0.961 . S
C398 H412 0.961 . S
C399 C396 1.539 . S
C399 H413 0.958 . S
C399 H414 0.961 . S
C399 H415 0.960 . S
H400 C384 0.931 . S
H401 C389 0.929 . S
H402 C390 0.960 . S
H403 C390 0.962 . S
H404 C390 0.960 . S
H405 C391 0.961 . S
H406 C391 0.961 . S
H407 C391 0.961 . S
H408 C392 0.931 . S
H409 C397 0.930 . S
H410 C398 0.956 . S
H411 C398 0.961 . S
H412 C398 0.961 . S
H413 C399 0.958 . S
H414 C399 0.961 . S
H415 C399 0.960 . S
C416 C417 1.391 . S
C416 C418 1.394 . S
C416 H432 0.931 . S
C417 C416 1.391 . S
C417 C421 1.376 . S
C418 C416 1.394 . S
C418 C419 1.369 . S
C418 C422 1.531 . S
C419 C418 1.369 . S
C419 C420 1.410 . S
C419 C427 1.503 . S
C420 C419 1.410 . S
C420 C421 1.392 . S
C420 C423 1.511 . S
C421 C417 1.376 . S
C421 C420 1.392 . S
C421 H433 0.929 . S
C422 C418 1.531 . S
C422 H434 0.960 . S
C422 H435 0.962 . S
C422 H436 0.960 . S
C423 C420 1.511 . S
C423 H437 0.961 . S
C423 H438 0.961 . S
C423 H439 0.961 . S
C424 C425 1.370 . S
C424 C426 1.363 . S
C424 H440 0.931 . S
C425 C424 1.370 . S
C425 C429 1.408 . S
C426 C424 1.363 . S
C426 C427 1.370 . S
C426 C430 1.524 . S
C427 C419 1.503 . S
C427 C426 1.370 . S
C427 C428 1.403 . S
C428 C427 1.403 . S
C428 C429 1.404 . S
C428 C431 1.539 . S
C429 C425 1.408 . S
C429 C428 1.404 . S
C429 H441 0.930 . S
C430 C426 1.524 . S
C430 H442 0.956 . S
C430 H443 0.961 . S
C430 H444 0.961 . S
C431 C428 1.539 . S
C431 H445 0.958 . S
C431 H446 0.961 . S
C431 H447 0.960 . S
H432 C416 0.931 . S
H433 C421 0.929 . S
H434 C422 0.960 . S
H435 C422 0.962 . S
H436 C422 0.960 . S
H437 C423 0.961 . S
H438 C423 0.961 . S
H439 C423 0.961 . S
H440 C424 0.931 . S
H441 C429 0.930 . S
H442 C430 0.956 . S
H443 C430 0.961 . S
H444 C430 0.961 . S
H445 C431 0.958 . S
H446 C431 0.961 . S
H447 C431 0.960 . S
C448 C449 1.391 . S
C448 C450 1.394 . S
C448 H464 0.931 . S
C449 C448 1.391 . S
C449 C453 1.376 . S
C450 C448 1.394 . S
C450 C451 1.369 . S
C450 C454 1.531 . S
C451 C450 1.369 . S
C451 C452 1.410 . S
C451 C459 1.503 . S
C452 C451 1.410 . S
C452 C453 1.392 . S
C452 C455 1.511 . S
C453 C449 1.376 . S
C453 C452 1.392 . S
C453 H465 0.929 . S
C454 C450 1.531 . S
C454 H466 0.960 . S
C454 H467 0.962 . S
C454 H468 0.960 . S
C455 C452 1.511 . S
C455 H469 0.961 . S
C455 H470 0.961 . S
C455 H471 0.961 . S
C456 C457 1.370 . S
C456 C458 1.363 . S
C456 H472 0.931 . S
C457 C456 1.370 . S
C457 C461 1.408 . S
C458 C456 1.363 . S
C458 C459 1.370 . S
C458 C462 1.524 . S
C459 C451 1.503 . S
C459 C458 1.370 . S
C459 C460 1.403 . S
C460 C459 1.403 . S
C460 C461 1.404 . S
C460 C463 1.539 . S
C461 C457 1.408 . S
C461 C460 1.404 . S
C461 H473 0.930 . S
C462 C458 1.524 . S
C462 H474 0.956 . S
C462 H475 0.961 . S
C462 H476 0.961 . S
C463 C460 1.539 . S
C463 H477 0.958 . S
C463 H478 0.961 . S
C463 H479 0.960 . S
H464 C448 0.931 . S
H465 C453 0.929 . S
H466 C454 0.960 . S
H467 C454 0.962 . S
H468 C454 0.960 . S
H469 C455 0.961 . S
H470 C455 0.961 . S
H471 C455 0.961 . S
H472 C456 0.931 . S
H473 C461 0.930 . S
H474 C462 0.956 . S
H475 C462 0.961 . S
H476 C462 0.961 . S
H477 C463 0.958 . S
H478 C463 0.961 . S
H479 C463 0.960 . S
C480 C481 1.391 . S
C480 C482 1.394 . S
C480 H496 0.931 . S
C481 C480 1.391 . S
C481 C485 1.376 . S
C482 C480 1.394 . S
C482 C483 1.369 . S
C482 C486 1.531 . S
C483 C482 1.369 . S
C483 C484 1.410 . S
C483 C491 1.503 . S
C484 C483 1.410 . S
C484 C485 1.392 . S
C484 C487 1.511 . S
C485 C481 1.376 . S
C485 C484 1.392 . S
C485 H497 0.929 . S
C486 C482 1.531 . S
C486 H498 0.960 . S
C486 H499 0.962 . S
C486 H500 0.960 . S
C487 C484 1.511 . S
C487 H501 0.961 . S
C487 H502 0.961 . S
C487 H503 0.961 . S
C488 C489 1.370 . S
C488 C490 1.363 . S
C488 H504 0.931 . S
C489 C488 1.370 . S
C489 C493 1.408 . S
C490 C488 1.363 . S
C490 C491 1.370 . S
C490 C494 1.524 . S
C491 C483 1.503 . S
C491 C490 1.370 . S
C491 C492 1.403 . S
C492 C491 1.403 . S
C492 C493 1.404 . S
C492 C495 1.539 . S
C493 C489 1.408 . S
C493 C492 1.404 . S
C493 H505 0.930 . S
C494 C490 1.524 . S
C494 H506 0.956 . S
C494 H507 0.961 . S
C494 H508 0.961 . S
C495 C492 1.539 . S
C495 H509 0.958 . S
C495 H510 0.961 . S
C495 H511 0.960 . S
H496 C480 0.931 . S
H497 C485 0.929 . S
H498 C486 0.960 . S
H499 C486 0.962 . S
H500 C486 0.960 . S
H501 C487 0.961 . S
H502 C487 0.961 . S
H503 C487 0.961 . S
H504 C488 0.931 . S
H505 C493 0.930 . S
H506 C494 0.956 . S
H507 C494 0.961 . S
H508 C494 0.961 . S
H509 C495 0.958 . S
H510 C495 0.961 . S
H511 C495 0.960 . S
C512 C513 1.391 . S
C512 C514 1.394 . S
C512 H528 0.931 . S
C513 C512 1.391 . S
C513 C517 1.376 . S
C514 C512 1.394 . S
C514 C515 1.369 . S
C514 C518 1.531 . S
C515 C514 1.369 . S
C515 C516 1.410 . S
C515 C523 1.503 . S
C516 C515 1.410 . S
C516 C517 1.392 . S
C516 C519 1.511 . S
C517 C513 1.376 . S
C517 C516 1.392 . S
C517 H529 0.929 . S
C518 C514 1.531 . S
C518 H530 0.960 . S
C518 H531 0.962 . S
C518 H532 0.960 . S
C519 C516 1.511 . S
C519 H533 0.961 . S
C519 H534 0.961 . S
C519 H535 0.961 . S
C520 C521 1.370 . S
C520 C522 1.363 . S
C520 H536 0.931 . S
C521 C520 1.370 . S
C521 C525 1.408 . S
C522 C520 1.363 . S
C522 C523 1.370 . S
C522 C526 1.524 . S
C523 C515 1.503 . S
C523 C522 1.370 . S
C523 C524 1.403 . S
C524 C523 1.403 . S
C524 C525 1.404 . S
C524 C527 1.539 . S
C525 C521 1.408 . S
C525 C524 1.404 . S
C525 H537 0.930 . S
C526 C522 1.524 . S
C526 H538 0.956 . S
C526 H539 0.961 . S
C526 H540 0.961 . S
C527 C524 1.539 . S
C527 H541 0.958 . S
C527 H542 0.961 . S
C527 H543 0.960 . S
H528 C512 0.931 . S
H529 C517 0.929 . S
H530 C518 0.960 . S
H531 C518 0.962 . S
H532 C518 0.960 . S
H533 C519 0.961 . S
H534 C519 0.961 . S
H535 C519 0.961 . S
H536 C520 0.931 . S
H537 C525 0.930 . S
H538 C526 0.956 . S
H539 C526 0.961 . S
H540 C526 0.961 . S
H541 C527 0.958 . S
H542 C527 0.961 . S
H543 C527 0.960 . S
C544 C545 1.391 . S
C544 C546 1.394 . S
C544 H560 0.931 . S
C545 C544 1.391 . S
C545 C549 1.376 . S
C546 C544 1.394 . S
C546 C547 1.369 . S
C546 C550 1.531 . S
C547 C546 1.369 . S
C547 C548 1.410 . S
C547 C555 1.503 . S
C548 C547 1.410 . S
C548 C549 1.392 . S
C548 C551 1.511 . S
C549 C545 1.376 . S
C549 C548 1.392 . S
C549 H561 0.929 . S
C550 C546 1.531 . S
C550 H562 0.960 . S
C550 H563 0.962 . S
C550 H564 0.960 . S
C551 C548 1.511 . S
C551 H565 0.961 . S
C551 H566 0.961 . S
C551 H567 0.961 . S
C552 C553 1.370 . S
C552 C554 1.363 . S
C552 H568 0.931 . S
C553 C552 1.370 . S
C553 C557 1.408 . S
C554 C552 1.363 . S
C554 C555 1.370 . S
C554 C558 1.524 . S
C555 C547 1.503 . S
C555 C554 1.370 . S
C555 C556 1.403 . S
C556 C555 1.403 . S
C556 C557 1.404 . S
C556 C559 1.539 . S
C557 C553 1.408 . S
C557 C556 1.404 . S
C557 H569 0.930 . S
C558 C554 1.524 . S
C558 H570 0.956 . S
C558 H571 0.961 . S
C558 H572 0.961 . S
C559 C556 1.539 . S
C559 H573 0.958 . S
C559 H574 0.961 . S
C559 H575 0.960 . S
H560 C544 0.931 . S
H561 C549 0.929 . S
H562 C550 0.960 . S
H563 C550 0.962 . S
H564 C550 0.960 . S
H565 C551 0.961 . S
H566 C551 0.961 . S
H567 C551 0.961 . S
H568 C552 0.931 . S
H569 C557 0.930 . S
H570 C558 0.956 . S
H571 C558 0.961 . S
H572 C558 0.961 . S
H573 C559 0.958 . S
H574 C559 0.961 . S
H575 C559 0.960 . S
C576 C577 1.391 . S
C576 C578 1.394 . S
C576 H592 0.931 . S
C577 C576 1.391 . S
C577 C581 1.376 . S
C578 C576 1.394 . S
C578 C579 1.369 . S
C578 C582 1.531 . S
C579 C578 1.369 . S
C579 C580 1.410 . S
C579 C587 1.503 1_565 S
C580 C579 1.410 . S
C580 C581 1.392 . S
C580 C583 1.511 1_565 S
C581 C577 1.376 . S
C581 C580 1.392 . S
C581 H593 0.929 . S
C582 C578 1.531 . S
C582 H594 0.960 . S
C582 H595 0.962 . S
C582 H596 0.960 . S
C583 C580 1.511 1_545 S
C583 H597 0.961 . S
C583 H598 0.961 . S
C583 H599 0.961 1_545 S
C584 C585 1.370 . S
C584 C586 1.363 . S
C584 H600 0.931 . S
C585 C584 1.370 . S
C585 C589 1.408 1_545 S
C586 C584 1.363 . S
C586 C587 1.370 . S
C586 C590 1.524 . S
C587 C579 1.503 1_545 S
C587 C586 1.370 . S
C587 C588 1.403 1_545 S
C588 C587 1.403 1_565 S
C588 C589 1.404 . S
C588 C591 1.539 . S
C589 C585 1.408 1_565 S
C589 C588 1.404 . S
C589 H601 0.930 . S
C590 C586 1.524 . S
C590 H602 0.956 . S
C590 H603 0.961 . S
C590 H604 0.961 . S
C591 C588 1.539 . S
C591 H605 0.958 . S
C591 H606 0.961 . S
C591 H607 0.960 . S
H592 C576 0.931 . S
H593 C581 0.929 . S
H594 C582 0.960 . S
H595 C582 0.962 . S
H596 C582 0.960 . S
H597 C583 0.961 . S
H598 C583 0.961 . S
H599 C583 0.961 1_565 S
H600 C584 0.931 . S
H601 C589 0.930 . S
H602 C590 0.956 . S
H603 C590 0.961 . S
H604 C590 0.961 . S
H605 C591 0.958 . S
H606 C591 0.961 . S
H607 C591 0.960 . S
C608 C609 1.391 . S
C608 C610 1.394 . S
C608 H624 0.931 . S
C609 C608 1.391 . S
C609 C613 1.376 . S
C610 C608 1.394 . S
C610 C611 1.369 . S
C610 C614 1.531 . S
C611 C610 1.369 . S
C611 C612 1.410 . S
C611 C619 1.503 1_545 S
C612 C611 1.410 . S
C612 C613 1.392 . S
C612 C615 1.511 1_545 S
C613 C609 1.376 . S
C613 C612 1.392 . S
C613 H625 0.929 . S
C614 C610 1.531 . S
C614 H626 0.960 . S
C614 H627 0.962 . S
C614 H628 0.960 . S
C615 C612 1.511 1_565 S
C615 H629 0.961 . S
C615 H630 0.961 . S
C615 H631 0.961 1_565 S
C616 C617 1.370 . S
C616 C618 1.363 . S
C616 H632 0.931 . S
C617 C616 1.370 . S
C617 C621 1.408 1_565 S
C618 C616 1.363 . S
C618 C619 1.370 . S
C618 C622 1.524 . S
C619 C611 1.503 1_565 S
C619 C618 1.370 . S
C619 C620 1.403 1_565 S
C620 C619 1.403 1_545 S
C620 C621 1.404 . S
C620 C623 1.539 . S
C621 C617 1.408 1_545 S
C621 C620 1.404 . S
C621 H633 0.930 . S
C622 C618 1.524 . S
C622 H634 0.956 . S
C622 H635 0.961 . S
C622 H636 0.961 . S
C623 C620 1.539 . S
C623 H637 0.958 . S
C623 H638 0.961 . S
C623 H639 0.960 . S
H624 C608 0.931 . S
H625 C613 0.929 . S
H626 C614 0.960 . S
H627 C614 0.962 . S
H628 C614 0.960 . S
H629 C615 0.961 . S
H630 C615 0.961 . S
H631 C615 0.961 1_545 S
H632 C616 0.931 . S
H633 C621 0.930 . S
H634 C622 0.956 . S
H635 C622 0.961 . S
H636 C622 0.961 . S
H637 C623 0.958 . S
H638 C623 0.961 . S
H639 C623 0.960 . S
C640 C641 1.391 . S
C640 C642 1.394 . S
C640 H656 0.931 . S
C641 C640 1.391 . S
C641 C645 1.376 . S
C642 C640 1.394 . S
C642 C643 1.369 . S
C642 C646 1.531 1_545 S
C643 C642 1.369 . S
C643 C644 1.410 . S
C643 C651 1.503 1_545 S
C644 C643 1.410 . S
C644 C645 1.392 . S
C644 C647 1.511 . S
C645 C641 1.376 . S
C645 C644 1.392 . S
C645 H657 0.929 . S
C646 C642 1.531 1_565 S
C646 H658 0.960 . S
C646 H659 0.962 . S
C646 H660 0.960 . S
C647 C644 1.511 . S
C647 H661 0.961 . S
C647 H662 0.961 . S
C647 H663 0.961 . S
C648 C649 1.370 . S
C648 C650 1.363 . S
C648 H664 0.931 . S
C649 C648 1.370 . S
C649 C653 1.408 1_565 S
C650 C648 1.363 . S
C650 C651 1.370 . S
C650 C654 1.524 . S
C651 C643 1.503 1_565 S
C651 C650 1.370 . S
C651 C652 1.403 1_565 S
C652 C651 1.403 1_545 S
C652 C653 1.404 . S
C652 C655 1.539 . S
C653 C649 1.408 1_545 S
C653 C652 1.404 . S
C653 H665 0.930 . S
C654 C650 1.524 . S
C654 H666 0.956 . S
C654 H667 0.961 . S
C654 H668 0.961 . S
C655 C652 1.539 . S
C655 H669 0.958 . S
C655 H670 0.961 . S
C655 H671 0.960 . S
H656 C640 0.931 . S
H657 C645 0.929 . S
H658 C646 0.960 . S
H659 C646 0.962 . S
H660 C646 0.960 . S
H661 C647 0.961 . S
H662 C647 0.961 . S
H663 C647 0.961 . S
H664 C648 0.931 . S
H665 C653 0.930 . S
H666 C654 0.956 . S
H667 C654 0.961 . S
H668 C654 0.961 . S
H669 C655 0.958 . S
H670 C655 0.961 . S
H671 C655 0.960 . S
C672 C673 1.391 . S
C672 C674 1.394 . S
C672 H688 0.931 . S
C673 C672 1.391 . S
C673 C677 1.376 1_545 S
C674 C672 1.394 . S
C674 C675 1.369 . S
C674 C678 1.531 . S
C675 C674 1.369 . S
C675 C676 1.410 1_545 S
C675 C683 1.503 1_545 S
C676 C675 1.410 1_565 S
C676 C677 1.392 . S
C676 C679 1.511 . S
C677 C673 1.376 1_565 S
C677 C676 1.392 . S
C677 H689 0.929 . S
C678 C674 1.531 . S
C678 H690 0.960 . S
C678 H691 0.962 . S
C678 H692 0.960 . S
C679 C676 1.511 . S
C679 H693 0.961 . S
C679 H694 0.961 . S
C679 H695 0.961 . S
C680 C681 1.370 . S
C680 C682 1.363 . S
C680 H696 0.931 . S
C681 C680 1.370 . S
C681 C685 1.408 . S
C682 C680 1.363 . S
C682 C683 1.370 . S
C682 C686 1.524 1_565 S
C683 C675 1.503 1_565 S
C683 C682 1.370 . S
C683 C684 1.403 . S
C684 C683 1.403 . S
C684 C685 1.404 . S
C684 C687 1.539 . S
C685 C681 1.408 . S
C685 C684 1.404 . S
C685 H697 0.930 . S
C686 C682 1.524 1_545 S
C686 H698 0.956 . S
C686 H699 0.961 . S
C686 H700 0.961 . S
C687 C684 1.539 . S
C687 H701 0.958 . S
C687 H702 0.961 . S
C687 H703 0.960 . S
H688 C672 0.931 . S
H689 C677 0.929 . S
H690 C678 0.960 . S
H691 C678 0.962 . S
H692 C678 0.960 . S
H693 C679 0.961 . S
H694 C679 0.961 . S
H695 C679 0.961 . S
H696 C680 0.931 . S
H697 C685 0.930 . S
H698 C686 0.956 . S
H699 C686 0.961 . S
H700 C686 0.961 . S
H701 C687 0.958 . S
H702 C687 0.961 . S
H703 C687 0.960 . S
C704 C705 1.391 . S
C704 C706 1.394 . S
C704 H720 0.931 . S
C705 C704 1.391 . S
C705 C709 1.376 . S
C706 C704 1.394 . S
C706 C707 1.369 . S
C706 C710 1.531 . S
C707 C706 1.369 . S
C707 C708 1.410 . S
C707 C715 1.503 . S
C708 C707 1.410 . S
C708 C709 1.392 . S
C708 C711 1.511 . S
C709 C705 1.376 . S
C709 C708 1.392 . S
C709 H721 0.929 . S
C710 C706 1.531 . S
C710 H722 0.960 . S
C710 H723 0.962 . S
C710 H724 0.960 . S
C711 C708 1.511 . S
C711 H725 0.961 . S
C711 H726 0.961 . S
C711 H727 0.961 . S
C712 C713 1.370 . S
C712 C714 1.363 . S
C712 H728 0.931 . S
C713 C712 1.370 . S
C713 C717 1.408 . S
C714 C712 1.363 . S
C714 C715 1.370 . S
C714 C718 1.524 . S
C715 C707 1.503 . S
C715 C714 1.370 . S
C715 C716 1.403 . S
C716 C715 1.403 . S
C716 C717 1.404 . S
C716 C719 1.539 . S
C717 C713 1.408 . S
C717 C716 1.404 . S
C717 H729 0.930 . S
C718 C714 1.524 . S
C718 H730 0.956 . S
C718 H731 0.961 . S
C718 H732 0.961 . S
C719 C716 1.539 . S
C719 H733 0.958 . S
C719 H734 0.961 . S
C719 H735 0.960 . S
H720 C704 0.931 . S
H721 C709 0.929 . S
H722 C710 0.960 . S
H723 C710 0.962 . S
H724 C710 0.960 . S
H725 C711 0.961 . S
H726 C711 0.961 . S
H727 C711 0.961 . S
H728 C712 0.931 . S
H729 C717 0.930 . S
H730 C718 0.956 . S
H731 C718 0.961 . S
H732 C718 0.961 . S
H733 C719 0.958 . S
H734 C719 0.961 . S
H735 C719 0.960 . S
C736 C737 1.391 . S
C736 C738 1.394 . S
C736 H752 0.931 . S
C737 C736 1.391 . S
C737 C741 1.376 . S
C738 C736 1.394 . S
C738 C739 1.369 . S
C738 C742 1.531 . S
C739 C738 1.369 . S
C739 C740 1.410 . S
C739 C747 1.503 . S
C740 C739 1.410 . S
C740 C741 1.392 . S
C740 C743 1.511 . S
C741 C737 1.376 . S
C741 C740 1.392 . S
C741 H753 0.929 . S
C742 C738 1.531 . S
C742 H754 0.960 . S
C742 H755 0.962 . S
C742 H756 0.960 . S
C743 C740 1.511 . S
C743 H757 0.961 . S
C743 H758 0.961 . S
C743 H759 0.961 . S
C744 C745 1.370 . S
C744 C746 1.363 . S
C744 H760 0.931 . S
C745 C744 1.370 . S
C745 C749 1.408 . S
C746 C744 1.363 . S
C746 C747 1.370 . S
C746 C750 1.524 . S
C747 C739 1.503 . S
C747 C746 1.370 . S
C747 C748 1.403 . S
C748 C747 1.403 . S
C748 C749 1.404 . S
C748 C751 1.539 . S
C749 C745 1.408 . S
C749 C748 1.404 . S
C749 H761 0.930 . S
C750 C746 1.524 . S
C750 H762 0.956 . S
C750 H763 0.961 . S
C750 H764 0.961 . S
C751 C748 1.539 . S
C751 H765 0.958 . S
C751 H766 0.961 . S
C751 H767 0.960 . S
H752 C736 0.931 . S
H753 C741 0.929 . S
H754 C742 0.960 . S
H755 C742 0.962 . S
H756 C742 0.960 . S
H757 C743 0.961 . S
H758 C743 0.961 . S
H759 C743 0.961 . S
H760 C744 0.931 . S
H761 C749 0.930 . S
H762 C750 0.956 . S
H763 C750 0.961 . S
H764 C750 0.961 . S
H765 C751 0.958 . S
H766 C751 0.961 . S
H767 C751 0.960 . S
C768 C769 1.391 . S
C768 C770 1.394 . S
C768 H784 0.931 . S
C769 C768 1.391 . S
C769 C773 1.376 . S
C770 C768 1.394 . S
C770 C771 1.369 . S
C770 C774 1.531 . S
C771 C770 1.369 . S
C771 C772 1.410 . S
C771 C779 1.503 . S
C772 C771 1.410 . S
C772 C773 1.392 . S
C772 C775 1.511 . S
C773 C769 1.376 . S
C773 C772 1.392 . S
C773 H785 0.929 . S
C774 C770 1.531 . S
C774 H786 0.960 . S
C774 H787 0.962 . S
C774 H788 0.960 . S
C775 C772 1.511 . S
C775 H789 0.961 . S
C775 H790 0.961 . S
C775 H791 0.961 . S
C776 C777 1.370 . S
C776 C778 1.363 . S
C776 H792 0.931 . S
C777 C776 1.370 . S
C777 C781 1.408 . S
C778 C776 1.363 . S
C778 C779 1.370 . S
C778 C782 1.524 . S
C779 C771 1.503 . S
C779 C778 1.370 . S
C779 C780 1.403 . S
C780 C779 1.403 . S
C780 C781 1.404 . S
C780 C783 1.539 . S
C781 C777 1.408 . S
C781 C780 1.404 . S
C781 H793 0.930 . S
C782 C778 1.524 . S
C782 H794 0.956 . S
C782 H795 0.961 . S
C782 H796 0.961 . S
C783 C780 1.539 . S
C783 H797 0.958 . S
C783 H798 0.961 . S
C783 H799 0.960 . S
H784 C768 0.931 . S
H785 C773 0.929 . S
H786 C774 0.960 . S
H787 C774 0.962 . S
H788 C774 0.960 . S
H789 C775 0.961 . S
H790 C775 0.961 . S
H791 C775 0.961 . S
H792 C776 0.931 . S
H793 C781 0.930 . S
H794 C782 0.956 . S
H795 C782 0.961 . S
H796 C782 0.961 . S
H797 C783 0.958 . S
H798 C783 0.961 . S
H799 C783 0.960 . S
C800 C801 1.391 . S
C800 C802 1.394 . S
C800 H816 0.931 . S
C801 C800 1.391 . S
C801 C805 1.376 . S
C802 C800 1.394 . S
C802 C803 1.369 . S
C802 C806 1.531 . S
C803 C802 1.369 . S
C803 C804 1.410 . S
C803 C811 1.503 . S
C804 C803 1.410 . S
C804 C805 1.392 . S
C804 C807 1.511 . S
C805 C801 1.376 . S
C805 C804 1.392 . S
C805 H817 0.929 . S
C806 C802 1.531 . S
C806 H818 0.960 . S
C806 H819 0.962 . S
C806 H820 0.960 . S
C807 C804 1.511 . S
C807 H821 0.961 . S
C807 H822 0.961 . S
C807 H823 0.961 . S
C808 C809 1.370 . S
C808 C810 1.363 . S
C808 H824 0.931 . S
C809 C808 1.370 . S
C809 C813 1.408 . S
C810 C808 1.363 . S
C810 C811 1.370 . S
C810 C814 1.524 . S
C811 C803 1.503 . S
C811 C810 1.370 . S
C811 C812 1.403 . S
C812 C811 1.403 . S
C812 C813 1.404 . S
C812 C815 1.539 . S
C813 C809 1.408 . S
C813 C812 1.404 . S
C813 H825 0.930 . S
C814 C810 1.524 . S
C814 H826 0.956 . S
C814 H827 0.961 . S
C814 H828 0.961 . S
C815 C812 1.539 . S
C815 H829 0.958 . S
C815 H830 0.961 . S
C815 H831 0.960 . S
H816 C800 0.931 . S
H817 C805 0.929 . S
H818 C806 0.960 . S
H819 C806 0.962 . S
H820 C806 0.960 . S
H821 C807 0.961 . S
H822 C807 0.961 . S
H823 C807 0.961 . S
H824 C808 0.931 . S
H825 C813 0.930 . S
H826 C814 0.956 . S
H827 C814 0.961 . S
H828 C814 0.961 . S
H829 C815 0.958 . S
H830 C815 0.961 . S
H831 C815 0.960 . S
C832 C833 1.391 . S
C832 C834 1.394 . S
C832 H848 0.931 . S
C833 C832 1.391 . S
C833 C837 1.376 . S
C834 C832 1.394 . S
C834 C835 1.369 . S
C834 C838 1.531 . S
C835 C834 1.369 . S
C835 C836 1.410 . S
C835 C843 1.503 1_556 S
C836 C835 1.410 . S
C836 C837 1.392 . S
C836 C839 1.511 . S
C837 C833 1.376 . S
C837 C836 1.392 . S
C837 H849 0.929 . S
C838 C834 1.531 . S
C838 H850 0.960 1_556 S
C838 H851 0.962 . S
C838 H852 0.960 . S
C839 C836 1.511 . S
C839 H853 0.961 . S
C839 H854 0.961 1_556 S
C839 H855 0.961 . S
C840 C841 1.370 . S
C840 C842 1.363 . S
C840 H856 0.931 . S
C841 C840 1.370 . S
C841 C845 1.408 . S
C842 C840 1.363 . S
C842 C843 1.370 . S
C842 C846 1.524 . S
C843 C835 1.503 1_554 S
C843 C842 1.370 . S
C843 C844 1.403 . S
C844 C843 1.403 . S
C844 C845 1.404 . S
C844 C847 1.539 . S
C845 C841 1.408 . S
C845 C844 1.404 . S
C845 H857 0.930 . S
C846 C842 1.524 . S
C846 H858 0.956 . S
C846 H859 0.962 1_554 S
C846 H860 0.961 1_545 S
C847 C844 1.539 . S
C847 H861 0.958 . S
C847 H862 0.961 . S
C847 H863 0.970 . S
H848 C832 0.931 . S
H849 C837 0.929 . S
H850 C838 0.960 1_554 S
H851 C838 0.962 . S
H852 C838 0.960 . S
H853 C839 0.961 . S
H854 C839 0.961 1_554 S
H855 C839 0.961 . S
H856 C840 0.931 . S
H857 C845 0.930 . S
H858 C846 0.956 . S
H859 C846 0.962 1_556 S
H860 C846 0.961 1_565 S
H861 C847 0.958 . S
H862 C847 0.961 . S
H863 C847 0.970 . S
C864 C865 1.391 . S
C864 C866 1.394 . S
C864 H880 0.931 . S
C865 C864 1.391 . S
C865 C869 1.376 . S
C866 C864 1.394 . S
C866 C867 1.369 . S
C866 C870 1.531 . S
C867 C866 1.369 . S
C867 C868 1.410 . S
C867 C875 1.503 1_556 S
C868 C867 1.410 . S
C868 C869 1.392 . S
C868 C871 1.511 . S
C869 C865 1.376 . S
C869 C868 1.392 . S
C869 H881 0.929 . S
C870 C866 1.531 . S
C870 H882 0.960 1_556 S
C870 H883 0.962 . S
C870 H884 0.960 . S
C871 C868 1.511 . S
C871 H885 0.961 . S
C871 H886 0.961 1_556 S
C871 H887 0.961 . S
C872 C873 1.370 . S
C872 C874 1.363 . S
C872 H888 0.931 . S
C873 C872 1.370 . S
C873 C877 1.408 . S
C874 C872 1.363 . S
C874 C875 1.370 . S
C874 C878 1.524 . S
C875 C867 1.503 1_554 S
C875 C874 1.370 . S
C875 C876 1.403 . S
C876 C875 1.403 . S
C876 C877 1.404 . S
C876 C879 1.539 1_565 S
C877 C873 1.408 . S
C877 C876 1.404 . S
C877 H889 0.930 . S
C878 C874 1.524 . S
C878 H890 0.956 . S
C878 H891 0.961 1_554 S
C878 H892 0.961 . S
C879 C876 1.539 1_545 S
C879 H893 0.958 . S
C879 H894 0.961 . S
C879 H895 0.970 . S
H880 C864 0.931 . S
H881 C869 0.929 . S
H882 C870 0.960 1_554 S
H883 C870 0.962 . S
H884 C870 0.960 . S
H885 C871 0.961 . S
H886 C871 0.961 1_554 S
H887 C871 0.961 . S
H888 C872 0.931 . S
H889 C877 0.930 . S
H890 C878 0.956 . S
H891 C878 0.961 1_556 S
H892 C878 0.961 . S
H893 C879 0.958 . S
H894 C879 0.961 . S
H895 C879 0.970 . S
C896 C897 1.391 . S
C896 C898 1.394 . S
C896 H912 0.931 . S
C897 C896 1.391 . S
C897 C901 1.376 . S
C898 C896 1.394 . S
C898 C899 1.369 . S
C898 C902 1.531 . S
C899 C898 1.369 . S
C899 C900 1.410 . S
C899 C907 1.503 . S
C900 C899 1.410 . S
C900 C901 1.392 . S
C900 C903 1.511 . S
C901 C897 1.376 . S
C901 C900 1.392 . S
C901 H913 0.929 . S
C902 C898 1.531 . S
C902 H914 0.960 . S
C902 H915 0.962 . S
C902 H916 0.960 1_565 S
C903 C900 1.511 . S
C903 H917 0.961 . S
C903 H918 0.961 . S
C903 H919 0.961 . S
C904 C905 1.370 . S
C904 C906 1.363 . S
C904 H920 0.931 . S
C905 C904 1.370 . S
C905 C909 1.408 . S
C906 C904 1.363 . S
C906 C907 1.370 . S
C906 C910 1.524 . S
C907 C899 1.503 . S
C907 C906 1.370 . S
C907 C908 1.403 . S
C908 C907 1.403 . S
C908 C909 1.404 . S
C908 C911 1.539 . S
C909 C905 1.408 . S
C909 C908 1.404 . S
C909 H921 0.930 . S
C910 C906 1.524 . S
C910 H922 0.956 . S
C910 H923 0.961 . S
C910 H924 0.961 . S
C911 C908 1.539 . S
C911 H925 0.958 1_565 S
C911 H926 0.961 . S
C911 H927 0.960 . S
H912 C896 0.931 . S
H913 C901 0.929 . S
H914 C902 0.960 . S
H915 C902 0.962 . S
H916 C902 0.960 1_545 S
H917 C903 0.961 . S
H918 C903 0.961 . S
H919 C903 0.961 . S
H920 C904 0.931 . S
H921 C909 0.930 . S
H922 C910 0.956 . S
H923 C910 0.961 . S
H924 C910 0.961 . S
H925 C911 0.958 1_545 S
H926 C911 0.961 . S
H927 C911 0.960 . S
C928 C929 1.391 . S
C928 C930 1.394 . S
C928 H944 0.931 . S
C929 C928 1.391 . S
C929 C933 1.376 . S
C930 C928 1.394 . S
C930 C931 1.369 . S
C930 C934 1.531 . S
C931 C930 1.369 . S
C931 C932 1.410 . S
C931 C939 1.503 . S
C932 C931 1.410 . S
C932 C933 1.392 . S
C932 C935 1.511 . S
C933 C929 1.376 . S
C933 C932 1.392 . S
C933 H945 0.929 . S
C934 C930 1.531 . S
C934 H946 0.960 . S
C934 H947 0.962 . S
C934 H948 0.960 . S
C935 C932 1.511 . S
C935 H949 0.961 . S
C935 H950 0.961 . S
C935 H951 0.961 . S
C936 C937 1.370 . S
C936 C938 1.363 . S
C936 H952 0.931 . S
C937 C936 1.370 . S
C937 C941 1.408 . S
C938 C936 1.363 . S
C938 C939 1.370 . S
C938 C942 1.524 . S
C939 C931 1.503 . S
C939 C938 1.370 . S
C939 C940 1.403 . S
C940 C939 1.403 . S
C940 C941 1.404 . S
C940 C943 1.539 1_545 S
C941 C937 1.408 . S
C941 C940 1.404 . S
C941 H953 0.930 . S
C942 C938 1.524 . S
C942 H954 0.956 . S
C942 H955 0.961 . S
C942 H956 0.961 . S
C943 C940 1.539 1_565 S
C943 H957 0.958 . S
C943 H958 0.961 . S
C943 H959 0.960 . S
H944 C928 0.931 . S
H945 C933 0.929 . S
H946 C934 0.960 . S
H947 C934 0.962 . S
H948 C934 0.960 . S
H949 C935 0.961 . S
H950 C935 0.961 . S
H951 C935 0.961 . S
H952 C936 0.931 . S
H953 C941 0.930 . S
H954 C942 0.956 . S
H955 C942 0.961 . S
H956 C942 0.961 . S
H957 C943 0.958 . S
H958 C943 0.961 . S
H959 C943 0.960 . S
C960 C961 1.391 . S
C960 C962 1.394 . S
C960 H976 0.931 . S
C961 C960 1.391 . S
C961 C965 1.376 . S
C962 C960 1.394 . S
C962 C963 1.369 . S
C962 C966 1.531 . S
C963 C962 1.369 . S
C963 C964 1.410 . S
C963 C971 1.503 1_554 S
C964 C963 1.410 . S
C964 C965 1.392 . S
C964 C967 1.511 . S
C965 C961 1.376 . S
C965 C964 1.392 . S
C965 H977 0.929 . S
C966 C962 1.531 . S
C966 H978 0.960 1_554 S
C966 H979 0.962 . S
C966 H980 0.960 . S
C967 C964 1.511 . S
C967 H981 0.961 . S
C967 H982 0.961 1_554 S
C967 H983 0.961 . S
C968 C969 1.370 . S
C968 C970 1.363 . S
C968 H984 0.931 . S
C969 C968 1.370 . S
C969 C973 1.408 . S
C970 C968 1.363 . S
C970 C971 1.370 . S
C970 C974 1.524 . S
C971 C963 1.503 1_556 S
C971 C970 1.370 . S
C971 C972 1.403 . S
C972 C971 1.403 . S
C972 C973 1.404 . S
C972 C975 1.539 . S
C973 C969 1.408 . S
C973 C972 1.404 . S
C973 H985 0.930 . S
C974 C970 1.524 . S
C974 H986 0.956 . S
C974 H987 0.961 1_556 S
C974 H988 0.961 . S
C975 C972 1.539 . S
C975 H989 0.958 . S
C975 H990 0.961 . S
C975 H991 0.970 . S
H976 C960 0.931 . S
H977 C965 0.929 . S
H978 C966 0.960 1_556 S
H979 C966 0.962 . S
H980 C966 0.960 . S
H981 C967 0.961 . S
H982 C967 0.961 1_556 S
H983 C967 0.961 . S
H984 C968 0.931 . S
H985 C973 0.930 . S
H986 C974 0.956 . S
H987 C974 0.961 1_554 S
H988 C974 0.961 . S
H989 C975 0.958 . S
H990 C975 0.961 . S
H991 C975 0.970 . S
C992 C993 1.391 . S
C992 C994 1.394 . S
C992 H1008 0.931 . S
C993 C992 1.391 . S
C993 C997 1.376 . S
C994 C992 1.394 . S
C994 C995 1.369 . S
C994 C998 1.531 . S
C995 C994 1.369 . S
C995 C996 1.410 . S
C995 C1003 1.503 1_556 S
C996 C995 1.410 . S
C996 C997 1.392 . S
C996 C999 1.511 . S
C997 C993 1.376 . S
C997 C996 1.392 . S
C997 H1009 0.929 . S
C998 C994 1.531 . S
C998 H1010 0.960 1_556 S
C998 H1011 0.962 . S
C998 H1012 0.960 . S
C999 C996 1.511 . S
C999 H1013 0.961 . S
C999 H1014 0.961 1_556 S
C999 H1015 0.961 . S
C1000 C1001 1.370 . S
C1000 C1002 1.363 . S
C1000 H1016 0.931 . S
C1001 C1000 1.370 . S
C1001 C1005 1.408 . S
C1002 C1000 1.363 . S
C1002 C1003 1.370 . S
C1002 C1006 1.524 . S
C1003 C995 1.503 1_554 S
C1003 C1002 1.370 . S
C1003 C1004 1.403 . S
C1004 C1003 1.403 . S
C1004 C1005 1.404 . S
C1004 C1007 1.539 . S
C1005 C1001 1.408 . S
C1005 C1004 1.404 . S
C1005 H1017 0.930 . S
C1006 C1002 1.524 . S
C1006 H1018 0.956 . S
C1006 H1019 0.961 1_554 S
C1006 H1020 0.961 . S
C1007 C1004 1.539 . S
C1007 H1021 0.958 . S
C1007 H1022 0.961 . S
C1007 H1023 0.970 . S
H1008 C992 0.931 . S
H1009 C997 0.929 . S
H1010 C998 0.960 1_554 S
H1011 C998 0.962 . S
H1012 C998 0.960 . S
H1013 C999 0.961 . S
H1014 C999 0.961 1_554 S
H1015 C999 0.961 . S
H1016 C1000 0.931 . S
H1017 C1005 0.930 . S
H1018 C1006 0.956 . S
H1019 C1006 0.961 1_556 S
H1020 C1006 0.961 . S
H1021 C1007 0.958 . S
H1022 C1007 0.961 . S
H1023 C1007 0.970 . S
C1024 C1025 1.391 . S
C1024 C1026 1.394 . S
C1024 H1040 0.931 . S
C1025 C1024 1.391 . S
C1025 C1029 1.376 . S
C1026 C1024 1.394 . S
C1026 C1027 1.369 . S
C1026 C1030 1.531 . S
C1027 C1026 1.369 . S
C1027 C1028 1.410 . S
C1027 C1035 1.503 . S
C1028 C1027 1.410 . S
C1028 C1029 1.392 . S
C1028 C1031 1.511 . S
C1029 C1025 1.376 . S
C1029 C1028 1.392 . S
C1029 H1041 0.929 . S
C1030 C1026 1.531 . S
C1030 H1042 0.960 . S
C1030 H1043 0.962 . S
C1030 H1044 0.960 . S
C1031 C1028 1.511 . S
C1031 H1045 0.961 . S
C1031 H1046 0.961 . S
C1031 H1047 0.961 . S
C1032 C1033 1.370 . S
C1032 C1034 1.363 . S
C1032 H1048 0.931 . S
C1033 C1032 1.370 . S
C1033 C1037 1.408 . S
C1034 C1032 1.363 . S
C1034 C1035 1.370 . S
C1034 C1038 1.524 . S
C1035 C1027 1.503 . S
C1035 C1034 1.370 . S
C1035 C1036 1.403 . S
C1036 C1035 1.403 . S
C1036 C1037 1.404 . S
C1036 C1039 1.539 . S
C1037 C1033 1.408 . S
C1037 C1036 1.404 . S
C1037 H1049 0.930 . S
C1038 C1034 1.524 . S
C1038 H1050 0.956 . S
C1038 H1051 0.961 . S
C1038 H1052 0.961 . S
C1039 C1036 1.539 . S
C1039 H1053 0.958 . S
C1039 H1054 0.961 . S
C1039 H1055 0.960 . S
H1040 C1024 0.931 . S
H1041 C1029 0.929 . S
H1042 C1030 0.960 . S
H1043 C1030 0.962 . S
H1044 C1030 0.960 . S
H1045 C1031 0.961 . S
H1046 C1031 0.961 . S
H1047 C1031 0.961 . S
H1048 C1032 0.931 . S
H1049 C1037 0.930 . S
H1050 C1038 0.956 . S
H1051 C1038 0.961 . S
H1052 C1038 0.961 . S
H1053 C1039 0.958 . S
H1054 C1039 0.961 . S
H1055 C1039 0.960 . S
C1056 C1057 1.391 . S
C1056 C1058 1.394 . S
C1056 H1072 0.931 . S
C1057 C1056 1.391 . S
C1057 C1061 1.376 . S
C1058 C1056 1.394 . S
C1058 C1059 1.369 . S
C1058 C1062 1.531 . S
C1059 C1058 1.369 . S
C1059 C1060 1.410 . S
C1059 C1067 1.503 . S
C1060 C1059 1.410 . S
C1060 C1061 1.392 . S
C1060 C1063 1.511 . S
C1061 C1057 1.376 . S
C1061 C1060 1.392 . S
C1061 H1073 0.929 . S
C1062 C1058 1.531 . S
C1062 H1074 0.960 . S
C1062 H1075 0.962 . S
C1062 H1076 0.960 . S
C1063 C1060 1.511 . S
C1063 H1077 0.961 . S
C1063 H1078 0.961 . S
C1063 H1079 0.961 . S
C1064 C1065 1.370 . S
C1064 C1066 1.363 . S
C1064 H1080 0.931 . S
C1065 C1064 1.370 . S
C1065 C1069 1.408 . S
C1066 C1064 1.363 . S
C1066 C1067 1.370 . S
C1066 C1070 1.524 . S
C1067 C1059 1.503 . S
C1067 C1066 1.370 . S
C1067 C1068 1.403 . S
C1068 C1067 1.403 . S
C1068 C1069 1.404 . S
C1068 C1071 1.539 . S
C1069 C1065 1.408 . S
C1069 C1068 1.404 . S
C1069 H1081 0.930 . S
C1070 C1066 1.524 . S
C1070 H1082 0.956 . S
C1070 H1083 0.961 . S
C1070 H1084 0.961 . S
C1071 C1068 1.539 . S
C1071 H1085 0.958 . S
C1071 H1086 0.961 . S
C1071 H1087 0.960 . S
H1072 C1056 0.931 . S
H1073 C1061 0.929 . S
H1074 C1062 0.960 . S
H1075 C1062 0.962 . S
H1076 C1062 0.960 . S
H1077 C1063 0.961 . S
H1078 C1063 0.961 . S
H1079 C1063 0.961 . S
H1080 C1064 0.931 . S
H1081 C1069 0.930 . S
H1082 C1070 0.956 . S
H1083 C1070 0.961 . S
H1084 C1070 0.961 . S
H1085 C1071 0.958 . S
H1086 C1071 0.961 . S
H1087 C1071 0.960 . S
C1088 C1089 1.391 1_545 S
C1088 C1090 1.394 . S
C1088 H1104 0.931 . S
C1089 C1088 1.391 1_565 S
C1089 C1093 1.376 . S
C1090 C1088 1.394 . S
C1090 C1091 1.369 1_545 S
C1090 C1094 1.531 . S
C1091 C1090 1.369 1_565 S
C1091 C1092 1.410 . S
C1091 C1099 1.503 1_665 S
C1092 C1091 1.410 . S
C1092 C1093 1.392 . S
C1092 C1095 1.511 . S
C1093 C1089 1.376 . S
C1093 C1092 1.392 . S
C1093 H1105 0.929 . S
C1094 C1090 1.531 . S
C1094 H1106 0.960 . S
C1094 H1107 0.962 . S
C1094 H1108 0.960 . S
C1095 C1092 1.511 . S
C1095 H1109 0.961 . S
C1095 H1110 0.961 1_655 S
C1095 H1111 0.961 . S
C1096 C1097 1.370 . S
C1096 C1098 1.363 . S
C1096 H1112 0.931 . S
C1097 C1096 1.370 . S
C1097 C1101 1.408 . S
C1098 C1096 1.363 . S
C1098 C1099 1.370 . S
C1098 C1102 1.524 . S
C1099 C1091 1.503 1_445 S
C1099 C1098 1.370 . S
C1099 C1100 1.403 . S
C1100 C1099 1.403 . S
C1100 C1101 1.404 . S
C1100 C1103 1.540 . S
C1101 C1097 1.408 . S
C1101 C1100 1.404 . S
C1101 H1113 0.930 . S
C1102 C1098 1.524 . S
C1102 H1114 0.954 1_455 S
C1102 H1115 0.957 1_445 S
C1102 H1116 0.960 1_545 S
C1103 C1100 1.540 . S
C1103 H1117 0.966 . S
C1103 H1118 0.957 1_545 S
C1103 H1119 1.000 1_545 S
H1104 C1088 0.931 . S
H1105 C1093 0.929 . S
H1106 C1094 0.960 . S
H1107 C1094 0.962 . S
H1108 C1094 0.960 . S
H1109 C1095 0.961 . S
H1110 C1095 0.961 1_455 S
H1111 C1095 0.961 . S
H1112 C1096 0.931 . S
H1113 C1101 0.930 . S
H1114 C1102 0.954 1_655 S
H1115 C1102 0.957 1_665 S
H1116 C1102 0.960 1_565 S
H1117 C1103 0.966 . S
H1118 C1103 0.957 1_565 S
H1119 C1103 1.000 1_565 S
C1120 C1121 1.391 1_565 S
C1120 C1122 1.394 . S
C1120 H1136 0.931 . S
C1121 C1120 1.391 1_545 S
C1121 C1125 1.376 . S
C1122 C1120 1.394 . S
C1122 C1123 1.369 1_565 S
C1122 C1126 1.531 . S
C1123 C1122 1.369 1_545 S
C1123 C1124 1.410 . S
C1123 C1131 1.503 1_645 S
C1124 C1123 1.410 . S
C1124 C1125 1.392 . S
C1124 C1127 1.511 . S
C1125 C1121 1.376 . S
C1125 C1124 1.392 . S
C1125 H1137 0.929 . S
C1126 C1122 1.531 . S
C1126 H1138 0.960 . S
C1126 H1139 0.962 . S
C1126 H1140 0.960 . S
C1127 C1124 1.511 . S
C1127 H1141 0.961 . S
C1127 H1142 0.961 1_655 S
C1127 H1143 0.961 . S
C1128 C1129 1.370 . S
C1128 C1130 1.363 . S
C1128 H1144 0.931 . S
C1129 C1128 1.370 . S
C1129 C1133 1.408 . S
C1130 C1128 1.363 . S
C1130 C1131 1.370 . S
C1130 C1134 1.524 . S
C1131 C1123 1.503 1_465 S
C1131 C1130 1.370 . S
C1131 C1132 1.403 . S
C1132 C1131 1.403 . S
C1132 C1133 1.404 . S
C1132 C1135 1.539 1_565 S
C1133 C1129 1.408 . S
C1133 C1132 1.404 . S
C1133 H1145 0.930 . S
C1134 C1130 1.524 . S
C1134 H1146 0.949 1_455 S
C1134 H1147 0.951 1_465 S
C1134 H1148 0.961 . S
C1135 C1132 1.539 1_545 S
C1135 H1149 0.958 1_545 S
C1135 H1150 0.961 . S
C1135 H1151 0.960 . S
H1136 C1120 0.931 . S
H1137 C1125 0.929 . S
H1138 C1126 0.960 . S
H1139 C1126 0.962 . S
H1140 C1126 0.960 . S
H1141 C1127 0.961 . S
H1142 C1127 0.961 1_455 S
H1143 C1127 0.961 . S
H1144 C1128 0.931 . S
H1145 C1133 0.930 . S
H1146 C1134 0.949 1_655 S
H1147 C1134 0.951 1_645 S
H1148 C1134 0.961 . S
H1149 C1135 0.958 1_565 S
H1150 C1135 0.961 . S
H1151 C1135 0.960 . S
C1152 C1153 1.391 . S
C1152 C1154 1.394 . S
C1152 H1168 0.931 . S
C1153 C1152 1.391 . S
C1153 C1157 1.376 1_545 S
C1154 C1152 1.394 . S
C1154 C1155 1.369 . S
C1154 C1158 1.531 . S
C1155 C1154 1.369 . S
C1155 C1156 1.410 1_545 S
C1155 C1163 1.503 1_445 S
C1156 C1155 1.410 1_565 S
C1156 C1157 1.392 . S
C1156 C1159 1.511 . S
C1157 C1153 1.376 1_565 S
C1157 C1156 1.392 . S
C1157 H1169 0.929 . S
C1158 C1154 1.531 . S
C1158 H1170 0.960 1_455 S
C1158 H1171 0.962 . S
C1158 H1172 0.960 . S
C1159 C1156 1.511 . S
C1159 H1173 0.961 . S
C1159 H1174 1.011 . S
C1159 H1175 0.961 . S
C1160 C1161 1.372 . S
C1160 C1162 1.363 1_565 S
C1160 H1176 0.929 1_565 S
C1161 C1160 1.372 . S
C1161 C1165 1.408 . S
C1162 C1160 1.363 1_545 S
C1162 C1163 1.370 1_545 S
C1162 C1166 1.524 . S
C1163 C1155 1.503 1_665 S
C1163 C1162 1.370 1_565 S
C1163 C1164 1.403 . S
C1164 C1163 1.403 . S
C1164 C1165 1.404 . S
C1164 C1167 1.539 . S
C1165 C1161 1.408 . S
C1165 C1164 1.404 . S
C1165 H1177 0.930 . S
C1166 C1162 1.524 . S
C1166 H1178 0.956 . S
C1166 H1179 0.961 1_645 S
C1166 H1180 0.961 . S
C1167 C1164 1.539 . S
C1167 H1181 0.958 1_565 S
C1167 H1182 0.961 . S
C1167 H1183 0.906 1_655 S
H1168 C1152 0.931 . S
H1169 C1157 0.929 . S
H1170 C1158 0.960 1_655 S
H1171 C1158 0.962 . S
H1172 C1158 0.960 . S
H1173 C1159 0.961 . S
H1174 C1159 1.011 . S
H1175 C1159 0.961 . S
H1176 C1160 0.929 1_545 S
H1177 C1165 0.930 . S
H1178 C1166 0.956 . S
H1179 C1166 0.961 1_465 S
H1180 C1166 0.961 . S
H1181 C1167 0.958 1_545 S
H1182 C1167 0.961 . S
H1183 C1167 0.906 1_455 S
C1184 C1185 1.391 . S
C1184 C1186 1.394 . S
C1184 H1200 0.931 . S
C1185 C1184 1.391 . S
C1185 C1189 1.376 1_545 S
C1186 C1184 1.394 . S
C1186 C1187 1.375 . S
C1186 C1190 1.531 . S
C1187 C1186 1.375 . S
C1187 C1188 1.404 1_545 S
C1187 C1195 1.503 1_645 S
C1188 C1187 1.404 1_565 S
C1188 C1189 1.392 . S
C1188 C1191 1.511 . S
C1189 C1185 1.376 1_565 S
C1189 C1188 1.392 . S
C1189 H1201 0.929 . S
C1190 C1186 1.531 . S
C1190 H1202 0.960 1_655 S
C1190 H1203 0.962 . S
C1190 H1204 0.960 . S
C1191 C1188 1.511 . S
C1191 H1205 0.961 . S
C1191 H1206 1.008 . S
C1191 H1207 0.961 . S
C1192 C1193 1.370 1_545 S
C1192 C1194 1.363 . S
C1192 H1208 0.931 . S
C1193 C1192 1.370 1_565 S
C1193 C1197 1.408 . S
C1194 C1192 1.363 . S
C1194 C1195 1.370 1_545 S
C1194 C1198 1.524 . S
C1195 C1187 1.503 1_465 S
C1195 C1194 1.370 1_565 S
C1195 C1196 1.403 . S
C1196 C1195 1.403 . S
C1196 C1197 1.404 . S
C1196 C1199 1.539 . S
C1197 C1193 1.408 . S
C1197 C1196 1.404 . S
C1197 H1209 0.930 . S
C1198 C1194 1.524 . S
C1198 H1210 0.956 . S
C1198 H1211 0.961 1_445 S
C1198 H1212 0.961 . S
C1199 C1196 1.539 . S
C1199 H1213 0.957 1_565 S
C1199 H1214 0.961 . S
C1199 H1215 0.960 1_455 S
H1200 C1184 0.931 . S
H1201 C1189 0.929 . S
H1202 C1190 0.960 1_455 S
H1203 C1190 0.962 . S
H1204 C1190 0.960 . S
H1205 C1191 0.961 . S
H1206 C1191 1.008 . S
H1207 C1191 0.961 . S
H1208 C1192 0.931 . S
H1209 C1197 0.930 . S
H1210 C1198 0.956 . S
H1211 C1198 0.961 1_665 S
H1212 C1198 0.961 . S
H1213 C1199 0.957 1_545 S
H1214 C1199 0.961 . S
H1215 C1199 0.960 1_655 S
C1216 C1217 1.391 . S
C1216 C1218 1.394 . S
C1216 H1232 0.931 . S
C1217 C1216 1.391 . S
C1217 C1221 1.376 . S
C1218 C1216 1.394 . S
C1218 C1219 1.369 . S
C1218 C1222 1.531 . S
C1219 C1218 1.369 . S
C1219 C1220 1.410 . S
C1219 C1227 1.503 . S
C1220 C1219 1.410 . S
C1220 C1221 1.392 . S
C1220 C1223 1.511 . S
C1221 C1217 1.376 . S
C1221 C1220 1.392 . S
C1221 H1233 0.929 . S
C1222 C1218 1.531 . S
C1222 H1234 0.960 . S
C1222 H1235 0.962 . S
C1222 H1236 0.960 . S
C1223 C1220 1.511 . S
C1223 H1237 0.961 . S
C1223 H1238 0.961 . S
C1223 H1239 0.961 . S
C1224 C1225 1.370 . S
C1224 C1226 1.363 . S
C1224 H1240 0.931 . S
C1225 C1224 1.370 . S
C1225 C1229 1.408 . S
C1226 C1224 1.363 . S
C1226 C1227 1.370 . S
C1226 C1230 1.524 . S
C1227 C1219 1.503 . S
C1227 C1226 1.370 . S
C1227 C1228 1.403 . S
C1228 C1227 1.403 . S
C1228 C1229 1.404 . S
C1228 C1231 1.539 . S
C1229 C1225 1.408 . S
C1229 C1228 1.404 . S
C1229 H1241 0.930 . S
C1230 C1226 1.524 . S
C1230 H1242 0.956 . S
C1230 H1243 0.961 . S
C1230 H1244 0.961 . S
C1231 C1228 1.539 . S
C1231 H1245 0.958 . S
C1231 H1246 0.961 . S
C1231 H1247 0.960 . S
H1232 C1216 0.931 . S
H1233 C1221 0.929 . S
H1234 C1222 0.960 . S
H1235 C1222 0.962 . S
H1236 C1222 0.960 . S
H1237 C1223 0.961 . S
H1238 C1223 0.961 . S
H1239 C1223 0.961 . S
H1240 C1224 0.931 . S
H1241 C1229 0.930 . S
H1242 C1230 0.956 . S
H1243 C1230 0.961 . S
H1244 C1230 0.961 . S
H1245 C1231 0.958 . S
H1246 C1231 0.961 . S
H1247 C1231 0.960 . S
C1248 C1249 1.391 . S
C1248 C1250 1.394 . S
C1248 H1264 0.931 . S
C1249 C1248 1.391 . S
C1249 C1253 1.376 . S
C1250 C1248 1.394 . S
C1250 C1251 1.369 . S
C1250 C1254 1.531 . S
C1251 C1250 1.369 . S
C1251 C1252 1.410 . S
C1251 C1259 1.503 . S
C1252 C1251 1.410 . S
C1252 C1253 1.392 . S
C1252 C1255 1.511 . S
C1253 C1249 1.376 . S
C1253 C1252 1.392 . S
C1253 H1265 0.929 . S
C1254 C1250 1.531 . S
C1254 H1266 0.960 . S
C1254 H1267 0.962 . S
C1254 H1268 0.960 . S
C1255 C1252 1.511 . S
C1255 H1269 0.961 . S
C1255 H1270 0.961 . S
C1255 H1271 0.961 . S
C1256 C1257 1.370 . S
C1256 C1258 1.363 . S
C1256 H1272 0.931 . S
C1257 C1256 1.370 . S
C1257 C1261 1.408 . S
C1258 C1256 1.363 . S
C1258 C1259 1.370 . S
C1258 C1262 1.524 . S
C1259 C1251 1.503 . S
C1259 C1258 1.370 . S
C1259 C1260 1.403 . S
C1260 C1259 1.403 . S
C1260 C1261 1.404 . S
C1260 C1263 1.539 . S
C1261 C1257 1.408 . S
C1261 C1260 1.404 . S
C1261 H1273 0.930 . S
C1262 C1258 1.524 . S
C1262 H1274 0.956 . S
C1262 H1275 0.961 . S
C1262 H1276 0.961 . S
C1263 C1260 1.539 . S
C1263 H1277 0.958 . S
C1263 H1278 0.961 . S
C1263 H1279 0.960 . S
H1264 C1248 0.931 . S
H1265 C1253 0.929 . S
H1266 C1254 0.960 . S
H1267 C1254 0.962 . S
H1268 C1254 0.960 . S
H1269 C1255 0.961 . S
H1270 C1255 0.961 . S
H1271 C1255 0.961 . S
H1272 C1256 0.931 . S
H1273 C1261 0.930 . S
H1274 C1262 0.956 . S
H1275 C1262 0.961 . S
H1276 C1262 0.961 . S
H1277 C1263 0.958 . S
H1278 C1263 0.961 . S
H1279 C1263 0.960 . S
C1280 C1281 1.391 . S
C1280 C1282 1.394 . S
C1280 H1296 0.931 . S
C1281 C1280 1.391 . S
C1281 C1285 1.376 . S
C1282 C1280 1.394 . S
C1282 C1283 1.369 . S
C1282 C1286 1.531 . S
C1283 C1282 1.369 . S
C1283 C1284 1.410 . S
C1283 C1291 1.503 . S
C1284 C1283 1.410 . S
C1284 C1285 1.392 . S
C1284 C1287 1.511 . S
C1285 C1281 1.376 . S
C1285 C1284 1.392 . S
C1285 H1297 0.929 . S
C1286 C1282 1.531 . S
C1286 H1298 0.960 . S
C1286 H1299 0.962 . S
C1286 H1300 0.960 . S
C1287 C1284 1.511 . S
C1287 H1301 0.961 . S
C1287 H1302 0.961 . S
C1287 H1303 0.961 . S
C1288 C1289 1.370 . S
C1288 C1290 1.363 . S
C1288 H1304 0.931 . S
C1289 C1288 1.370 . S
C1289 C1293 1.408 . S
C1290 C1288 1.363 . S
C1290 C1291 1.370 . S
C1290 C1294 1.524 . S
C1291 C1283 1.503 . S
C1291 C1290 1.370 . S
C1291 C1292 1.403 . S
C1292 C1291 1.403 . S
C1292 C1293 1.404 . S
C1292 C1295 1.539 . S
C1293 C1289 1.408 . S
C1293 C1292 1.404 . S
C1293 H1305 0.930 . S
C1294 C1290 1.524 . S
C1294 H1306 0.956 . S
C1294 H1307 0.961 . S
C1294 H1308 0.961 . S
C1295 C1292 1.539 . S
C1295 H1309 0.958 . S
C1295 H1310 0.961 . S
C1295 H1311 0.960 . S
H1296 C1280 0.931 . S
H1297 C1285 0.929 . S
H1298 C1286 0.960 . S
H1299 C1286 0.962 . S
H1300 C1286 0.960 . S
H1301 C1287 0.961 . S
H1302 C1287 0.961 . S
H1303 C1287 0.961 . S
H1304 C1288 0.931 . S
H1305 C1293 0.930 . S
H1306 C1294 0.956 . S
H1307 C1294 0.961 . S
H1308 C1294 0.961 . S
H1309 C1295 0.958 . S
H1310 C1295 0.961 . S
H1311 C1295 0.960 . S
C1312 C1313 1.391 . S
C1312 C1314 1.394 . S
C1312 H1328 0.931 . S
C1313 C1312 1.391 . S
C1313 C1317 1.376 . S
C1314 C1312 1.394 . S
C1314 C1315 1.369 . S
C1314 C1318 1.531 . S
C1315 C1314 1.369 . S
C1315 C1316 1.410 . S
C1315 C1323 1.503 . S
C1316 C1315 1.410 . S
C1316 C1317 1.392 . S
C1316 C1319 1.511 . S
C1317 C1313 1.376 . S
C1317 C1316 1.392 . S
C1317 H1329 0.929 . S
C1318 C1314 1.531 . S
C1318 H1330 0.960 . S
C1318 H1331 0.962 . S
C1318 H1332 0.960 . S
C1319 C1316 1.511 . S
C1319 H1333 0.961 . S
C1319 H1334 0.961 . S
C1319 H1335 0.961 . S
C1320 C1321 1.370 . S
C1320 C1322 1.363 . S
C1320 H1336 0.931 . S
C1321 C1320 1.370 . S
C1321 C1325 1.408 . S
C1322 C1320 1.363 . S
C1322 C1323 1.370 . S
C1322 C1326 1.524 . S
C1323 C1315 1.503 . S
C1323 C1322 1.370 . S
C1323 C1324 1.403 . S
C1324 C1323 1.403 . S
C1324 C1325 1.404 . S
C1324 C1327 1.539 . S
C1325 C1321 1.408 . S
C1325 C1324 1.404 . S
C1325 H1337 0.930 . S
C1326 C1322 1.524 . S
C1326 H1338 0.956 . S
C1326 H1339 0.961 . S
C1326 H1340 0.961 . S
C1327 C1324 1.539 . S
C1327 H1341 0.958 . S
C1327 H1342 0.961 . S
C1327 H1343 0.960 . S
H1328 C1312 0.931 . S
H1329 C1317 0.929 . S
H1330 C1318 0.960 . S
H1331 C1318 0.962 . S
H1332 C1318 0.960 . S
H1333 C1319 0.961 . S
H1334 C1319 0.961 . S
H1335 C1319 0.961 . S
H1336 C1320 0.931 . S
H1337 C1325 0.930 . S
H1338 C1326 0.956 . S
H1339 C1326 0.961 . S
H1340 C1326 0.961 . S
H1341 C1327 0.958 . S
H1342 C1327 0.961 . S
H1343 C1327 0.960 . S
C1344 C1345 1.391 . S
C1344 C1346 1.394 . S
C1344 H1360 0.931 . S
C1345 C1344 1.391 . S
C1345 C1349 1.376 . S
C1346 C1344 1.394 . S
C1346 C1347 1.369 . S
C1346 C1350 1.531 . S
C1347 C1346 1.369 . S
C1347 C1348 1.410 . S
C1347 C1355 1.503 . S
C1348 C1347 1.410 . S
C1348 C1349 1.392 . S
C1348 C1351 1.511 . S
C1349 C1345 1.376 . S
C1349 C1348 1.392 . S
C1349 H1361 0.929 . S
C1350 C1346 1.531 . S
C1350 H1362 0.960 . S
C1350 H1363 0.962 . S
C1350 H1364 0.960 . S
C1351 C1348 1.511 . S
C1351 H1365 0.961 . S
C1351 H1366 0.961 . S
C1351 H1367 0.961 . S
C1352 C1353 1.370 . S
C1352 C1354 1.363 . S
C1352 H1368 0.931 . S
C1353 C1352 1.370 . S
C1353 C1357 1.408 . S
C1354 C1352 1.363 . S
C1354 C1355 1.370 . S
C1354 C1358 1.524 . S
C1355 C1347 1.503 . S
C1355 C1354 1.370 . S
C1355 C1356 1.403 . S
C1356 C1355 1.403 . S
C1356 C1357 1.404 . S
C1356 C1359 1.539 . S
C1357 C1353 1.408 . S
C1357 C1356 1.404 . S
C1357 H1369 0.930 . S
C1358 C1354 1.524 . S
C1358 H1370 0.956 . S
C1358 H1371 0.961 . S
C1358 H1372 0.961 . S
C1359 C1356 1.539 . S
C1359 H1373 0.958 . S
C1359 H1374 0.961 . S
C1359 H1375 0.960 . S
H1360 C1344 0.931 . S
H1361 C1349 0.929 . S
H1362 C1350 0.960 . S
H1363 C1350 0.962 . S
H1364 C1350 0.960 . S
H1365 C1351 0.961 . S
H1366 C1351 0.961 . S
H1367 C1351 0.961 . S
H1368 C1352 0.931 . S
H1369 C1357 0.930 . S
H1370 C1358 0.956 . S
H1371 C1358 0.961 . S
H1372 C1358 0.961 . S
H1373 C1359 0.958 . S
H1374 C1359 0.961 . S
H1375 C1359 0.960 . S
C1376 C1377 1.391 . S
C1376 C1378 1.394 . S
C1376 H1392 0.931 . S
C1377 C1376 1.391 . S
C1377 C1381 1.376 . S
C1378 C1376 1.394 . S
C1378 C1379 1.369 . S
C1378 C1382 1.531 . S
C1379 C1378 1.369 . S
C1379 C1380 1.410 . S
C1379 C1387 1.503 . S
C1380 C1379 1.410 . S
C1380 C1381 1.392 . S
C1380 C1383 1.511 . S
C1381 C1377 1.376 . S
C1381 C1380 1.392 . S
C1381 H1393 0.929 . S
C1382 C1378 1.531 . S
C1382 H1394 0.960 . S
C1382 H1395 0.962 . S
C1382 H1396 0.960 . S
C1383 C1380 1.511 . S
C1383 H1397 0.961 . S
C1383 H1398 0.961 . S
C1383 H1399 0.961 . S
C1384 C1385 1.370 . S
C1384 C1386 1.363 . S
C1384 H1400 0.931 . S
C1385 C1384 1.370 . S
C1385 C1389 1.408 . S
C1386 C1384 1.363 . S
C1386 C1387 1.370 . S
C1386 C1390 1.524 . S
C1387 C1379 1.503 . S
C1387 C1386 1.370 . S
C1387 C1388 1.403 . S
C1388 C1387 1.403 . S
C1388 C1389 1.404 . S
C1388 C1391 1.539 . S
C1389 C1385 1.408 . S
C1389 C1388 1.404 . S
C1389 H1401 0.930 . S
C1390 C1386 1.524 . S
C1390 H1402 0.956 . S
C1390 H1403 0.961 . S
C1390 H1404 0.961 . S
C1391 C1388 1.539 . S
C1391 H1405 0.958 . S
C1391 H1406 0.961 . S
C1391 H1407 0.960 . S
H1392 C1376 0.931 . S
H1393 C1381 0.929 . S
H1394 C1382 0.960 . S
H1395 C1382 0.962 . S
H1396 C1382 0.960 . S
H1397 C1383 0.961 . S
H1398 C1383 0.961 . S
H1399 C1383 0.961 . S
H1400 C1384 0.931 . S
H1401 C1389 0.930 . S
H1402 C1390 0.956 . S
H1403 C1390 0.961 . S
H1404 C1390 0.961 . S
H1405 C1391 0.958 . S
H1406 C1391 0.961 . S
H1407 C1391 0.960 . S
C1408 C1409 1.391 . S
C1408 C1410 1.394 . S
C1408 H1424 0.931 . S
C1409 C1408 1.391 . S
C1409 C1413 1.376 . S
C1410 C1408 1.394 . S
C1410 C1411 1.369 . S
C1410 C1414 1.531 . S
C1411 C1410 1.369 . S
C1411 C1412 1.410 . S
C1411 C1419 1.503 . S
C1412 C1411 1.410 . S
C1412 C1413 1.392 . S
C1412 C1415 1.511 . S
C1413 C1409 1.376 . S
C1413 C1412 1.392 . S
C1413 H1425 0.929 . S
C1414 C1410 1.531 . S
C1414 H1426 0.960 . S
C1414 H1427 0.962 . S
C1414 H1428 0.960 . S
C1415 C1412 1.511 . S
C1415 H1429 0.961 . S
C1415 H1430 0.961 . S
C1415 H1431 0.961 . S
C1416 C1417 1.370 . S
C1416 C1418 1.363 . S
C1416 H1432 0.931 . S
C1417 C1416 1.370 . S
C1417 C1421 1.408 . S
C1418 C1416 1.363 . S
C1418 C1419 1.370 . S
C1418 C1422 1.524 . S
C1419 C1411 1.503 . S
C1419 C1418 1.370 . S
C1419 C1420 1.403 . S
C1420 C1419 1.403 . S
C1420 C1421 1.404 . S
C1420 C1423 1.539 . S
C1421 C1417 1.408 . S
C1421 C1420 1.404 . S
C1421 H1433 0.930 . S
C1422 C1418 1.524 . S
C1422 H1434 0.956 . S
C1422 H1435 0.961 . S
C1422 H1436 0.961 . S
C1423 C1420 1.539 . S
C1423 H1437 0.958 . S
C1423 H1438 0.961 . S
C1423 H1439 0.960 . S
H1424 C1408 0.931 . S
H1425 C1413 0.929 . S
H1426 C1414 0.960 . S
H1427 C1414 0.962 . S
H1428 C1414 0.960 . S
H1429 C1415 0.961 . S
H1430 C1415 0.961 . S
H1431 C1415 0.961 . S
H1432 C1416 0.931 . S
H1433 C1421 0.930 . S
H1434 C1422 0.956 . S
H1435 C1422 0.961 . S
H1436 C1422 0.961 . S
H1437 C1423 0.958 . S
H1438 C1423 0.961 . S
H1439 C1423 0.960 . S
C1440 C1441 1.391 . S
C1440 C1442 1.394 . S
C1440 H1456 0.931 . S
C1441 C1440 1.391 . S
C1441 C1445 1.376 . S
C1442 C1440 1.394 . S
C1442 C1443 1.369 . S
C1442 C1446 1.531 . S
C1443 C1442 1.369 . S
C1443 C1444 1.410 . S
C1443 C1451 1.503 . S
C1444 C1443 1.410 . S
C1444 C1445 1.392 . S
C1444 C1447 1.511 . S
C1445 C1441 1.376 . S
C1445 C1444 1.392 . S
C1445 H1457 0.929 . S
C1446 C1442 1.531 . S
C1446 H1458 0.960 . S
C1446 H1459 0.962 . S
C1446 H1460 0.960 . S
C1447 C1444 1.511 . S
C1447 H1461 0.961 . S
C1447 H1462 0.961 . S
C1447 H1463 0.961 . S
C1448 C1449 1.370 . S
C1448 C1450 1.363 . S
C1448 H1464 0.931 . S
C1449 C1448 1.370 . S
C1449 C1453 1.408 . S
C1450 C1448 1.363 . S
C1450 C1451 1.370 . S
C1450 C1454 1.524 . S
C1451 C1443 1.503 . S
C1451 C1450 1.370 . S
C1451 C1452 1.403 . S
C1452 C1451 1.403 . S
C1452 C1453 1.404 . S
C1452 C1455 1.539 . S
C1453 C1449 1.408 . S
C1453 C1452 1.404 . S
C1453 H1465 0.930 . S
C1454 C1450 1.524 . S
C1454 H1466 0.956 . S
C1454 H1467 0.961 . S
C1454 H1468 0.961 . S
C1455 C1452 1.539 . S
C1455 H1469 0.958 . S
C1455 H1470 0.961 . S
C1455 H1471 0.960 . S
H1456 C1440 0.931 . S
H1457 C1445 0.929 . S
H1458 C1446 0.960 . S
H1459 C1446 0.962 . S
H1460 C1446 0.960 . S
H1461 C1447 0.961 . S
H1462 C1447 0.961 . S
H1463 C1447 0.961 . S
H1464 C1448 0.931 . S
H1465 C1453 0.930 . S
H1466 C1454 0.956 . S
H1467 C1454 0.961 . S
H1468 C1454 0.961 . S
H1469 C1455 0.958 . S
H1470 C1455 0.961 . S
H1471 C1455 0.960 . S
C1472 C1473 1.391 . S
C1472 C1474 1.394 . S
C1472 H1488 0.931 . S
C1473 C1472 1.391 . S
C1473 C1477 1.376 . S
C1474 C1472 1.394 . S
C1474 C1475 1.369 . S
C1474 C1478 1.531 . S
C1475 C1474 1.369 . S
C1475 C1476 1.410 . S
C1475 C1483 1.503 . S
C1476 C1475 1.410 . S
C1476 C1477 1.392 . S
C1476 C1479 1.511 . S
C1477 C1473 1.376 . S
C1477 C1476 1.392 . S
C1477 H1489 0.929 . S
C1478 C1474 1.531 . S
C1478 H1490 0.960 . S
C1478 H1491 0.962 . S
C1478 H1492 0.960 . S
C1479 C1476 1.511 . S
C1479 H1493 0.961 . S
C1479 H1494 0.961 . S
C1479 H1495 0.961 . S
C1480 C1481 1.370 . S
C1480 C1482 1.363 . S
C1480 H1496 0.931 . S
C1481 C1480 1.370 . S
C1481 C1485 1.408 . S
C1482 C1480 1.363 . S
C1482 C1483 1.370 . S
C1482 C1486 1.524 . S
C1483 C1475 1.503 . S
C1483 C1482 1.370 . S
C1483 C1484 1.403 . S
C1484 C1483 1.403 . S
C1484 C1485 1.404 . S
C1484 C1487 1.539 . S
C1485 C1481 1.408 . S
C1485 C1484 1.404 . S
C1485 H1497 0.930 . S
C1486 C1482 1.524 . S
C1486 H1498 0.956 . S
C1486 H1499 0.961 . S
C1486 H1500 0.961 . S
C1487 C1484 1.539 . S
C1487 H1501 0.958 . S
C1487 H1502 0.961 . S
C1487 H1503 0.960 . S
H1488 C1472 0.931 . S
H1489 C1477 0.929 . S
H1490 C1478 0.960 . S
H1491 C1478 0.962 . S
H1492 C1478 0.960 . S
H1493 C1479 0.961 . S
H1494 C1479 0.961 . S
H1495 C1479 0.961 . S
H1496 C1480 0.931 . S
H1497 C1485 0.930 . S
H1498 C1486 0.956 . S
H1499 C1486 0.961 . S
H1500 C1486 0.961 . S
H1501 C1487 0.958 . S
H1502 C1487 0.961 . S
H1503 C1487 0.960 . S
C1504 C1505 1.391 . S
C1504 C1506 1.394 . S
C1504 H1520 0.931 . S
C1505 C1504 1.391 . S
C1505 C1509 1.376 . S
C1506 C1504 1.394 . S
C1506 C1507 1.369 . S
C1506 C1510 1.531 . S
C1507 C1506 1.369 . S
C1507 C1508 1.410 . S
C1507 C1515 1.503 . S
C1508 C1507 1.410 . S
C1508 C1509 1.392 . S
C1508 C1511 1.511 . S
C1509 C1505 1.376 . S
C1509 C1508 1.392 . S
C1509 H1521 0.929 . S
C1510 C1506 1.531 . S
C1510 H1522 0.960 . S
C1510 H1523 0.962 . S
C1510 H1524 0.960 . S
C1511 C1508 1.511 . S
C1511 H1525 0.961 . S
C1511 H1526 0.961 . S
C1511 H1527 0.961 . S
C1512 C1513 1.370 . S
C1512 C1514 1.363 . S
C1512 H1528 0.931 . S
C1513 C1512 1.370 . S
C1513 C1517 1.408 . S
C1514 C1512 1.363 . S
C1514 C1515 1.370 . S
C1514 C1518 1.524 . S
C1515 C1507 1.503 . S
C1515 C1514 1.370 . S
C1515 C1516 1.403 . S
C1516 C1515 1.403 . S
C1516 C1517 1.404 . S
C1516 C1519 1.539 . S
C1517 C1513 1.408 . S
C1517 C1516 1.404 . S
C1517 H1529 0.930 . S
C1518 C1514 1.524 . S
C1518 H1530 0.956 . S
C1518 H1531 0.961 . S
C1518 H1532 0.961 . S
C1519 C1516 1.539 . S
C1519 H1533 0.958 . S
C1519 H1534 0.961 . S
C1519 H1535 0.960 . S
H1520 C1504 0.931 . S
H1521 C1509 0.929 . S
H1522 C1510 0.960 . S
H1523 C1510 0.962 . S
H1524 C1510 0.960 . S
H1525 C1511 0.961 . S
H1526 C1511 0.961 . S
H1527 C1511 0.961 . S
H1528 C1512 0.931 . S
H1529 C1517 0.930 . S
H1530 C1518 0.956 . S
H1531 C1518 0.961 . S
H1532 C1518 0.961 . S
H1533 C1519 0.958 . S
H1534 C1519 0.961 . S
H1535 C1519 0.960 . S
C1536 C1537 1.391 . S
C1536 C1538 1.394 . S
C1536 H1552 0.931 . S
C1537 C1536 1.391 . S
C1537 C1541 1.376 . S
C1538 C1536 1.394 . S
C1538 C1539 1.369 . S
C1538 C1542 1.531 . S
C1539 C1538 1.369 . S
C1539 C1540 1.410 . S
C1539 C1547 1.503 . S
C1540 C1539 1.410 . S
C1540 C1541 1.392 . S
C1540 C1543 1.511 . S
C1541 C1537 1.376 . S
C1541 C1540 1.392 . S
C1541 H1553 0.929 . S
C1542 C1538 1.531 . S
C1542 H1554 0.960 . S
C1542 H1555 0.962 . S
C1542 H1556 0.960 . S
C1543 C1540 1.511 . S
C1543 H1557 0.961 . S
C1543 H1558 0.961 . S
C1543 H1559 0.961 . S
C1544 C1545 1.370 . S
C1544 C1546 1.363 . S
C1544 H1560 0.931 . S
C1545 C1544 1.370 . S
C1545 C1549 1.408 . S
C1546 C1544 1.363 . S
C1546 C1547 1.370 . S
C1546 C1550 1.524 . S
C1547 C1539 1.503 . S
C1547 C1546 1.370 . S
C1547 C1548 1.403 . S
C1548 C1547 1.403 . S
C1548 C1549 1.404 . S
C1548 C1551 1.539 . S
C1549 C1545 1.408 . S
C1549 C1548 1.404 . S
C1549 H1561 0.930 . S
C1550 C1546 1.524 . S
C1550 H1562 0.956 . S
C1550 H1563 0.961 . S
C1550 H1564 0.961 . S
C1551 C1548 1.539 . S
C1551 H1565 0.958 . S
C1551 H1566 0.961 . S
C1551 H1567 0.960 . S
H1552 C1536 0.931 . S
H1553 C1541 0.929 . S
H1554 C1542 0.960 . S
H1555 C1542 0.962 . S
H1556 C1542 0.960 . S
H1557 C1543 0.961 . S
H1558 C1543 0.961 . S
H1559 C1543 0.961 . S
H1560 C1544 0.931 . S
H1561 C1549 0.930 . S
H1562 C1550 0.956 . S
H1563 C1550 0.961 . S
H1564 C1550 0.961 . S
H1565 C1551 0.958 . S
H1566 C1551 0.961 . S
H1567 C1551 0.960 . S
C1568 C1569 1.391 . S
C1568 C1570 1.394 . S
C1568 H1584 0.931 . S
C1569 C1568 1.391 . S
C1569 C1573 1.376 . S
C1570 C1568 1.394 . S
C1570 C1571 1.369 . S
C1570 C1574 1.531 . S
C1571 C1570 1.369 . S
C1571 C1572 1.410 . S
C1571 C1579 1.503 . S
C1572 C1571 1.410 . S
C1572 C1573 1.392 . S
C1572 C1575 1.511 . S
C1573 C1569 1.376 . S
C1573 C1572 1.392 . S
C1573 H1585 0.929 . S
C1574 C1570 1.531 . S
C1574 H1586 0.960 . S
C1574 H1587 0.962 . S
C1574 H1588 0.960 . S
C1575 C1572 1.511 . S
C1575 H1589 0.961 . S
C1575 H1590 0.961 . S
C1575 H1591 0.961 . S
C1576 C1577 1.370 . S
C1576 C1578 1.363 . S
C1576 H1592 0.931 . S
C1577 C1576 1.370 . S
C1577 C1581 1.408 . S
C1578 C1576 1.363 . S
C1578 C1579 1.370 . S
C1578 C1582 1.524 . S
C1579 C1571 1.503 . S
C1579 C1578 1.370 . S
C1579 C1580 1.403 . S
C1580 C1579 1.403 . S
C1580 C1581 1.404 . S
C1580 C1583 1.539 . S
C1581 C1577 1.408 . S
C1581 C1580 1.404 . S
C1581 H1593 0.930 . S
C1582 C1578 1.524 . S
C1582 H1594 0.956 . S
C1582 H1595 0.961 . S
C1582 H1596 0.961 . S
C1583 C1580 1.539 . S
C1583 H1597 0.958 . S
C1583 H1598 0.961 . S
C1583 H1599 0.960 . S
H1584 C1568 0.931 . S
H1585 C1573 0.929 . S
H1586 C1574 0.960 . S
H1587 C1574 0.962 . S
H1588 C1574 0.960 . S
H1589 C1575 0.961 . S
H1590 C1575 0.961 . S
H1591 C1575 0.961 . S
H1592 C1576 0.931 . S
H1593 C1581 0.930 . S
H1594 C1582 0.956 . S
H1595 C1582 0.961 . S
H1596 C1582 0.961 . S
H1597 C1583 0.958 . S
H1598 C1583 0.961 . S
H1599 C1583 0.960 . S
C1600 C1601 1.391 . S
C1600 C1602 1.394 1_565 S
C1600 H1616 0.931 . S
C1601 C1600 1.391 . S
C1601 C1605 1.376 . S
C1602 C1600 1.394 1_545 S
C1602 C1603 1.369 . S
C1602 C1606 1.531 . S
C1603 C1602 1.369 . S
C1603 C1604 1.410 . S
C1603 C1611 1.503 . S
C1604 C1603 1.410 . S
C1604 C1605 1.392 1_545 S
C1604 C1607 1.511 . S
C1605 C1601 1.376 . S
C1605 C1604 1.392 1_565 S
C1605 H1617 0.929 . S
C1606 C1602 1.531 . S
C1606 H1618 0.960 . S
C1606 H1619 0.962 . S
C1606 H1620 0.960 . S
C1607 C1604 1.511 . S
C1607 H1621 0.961 . S
C1607 H1622 0.961 . S
C1607 H1623 0.961 . S
C1608 C1609 1.370 . S
C1608 C1610 1.363 . S
C1608 H1624 0.931 . S
C1609 C1608 1.370 . S
C1609 C1613 1.408 . S
C1610 C1608 1.363 . S
C1610 C1611 1.370 . S
C1610 C1614 1.524 . S
C1611 C1603 1.503 . S
C1611 C1610 1.370 . S
C1611 C1612 1.403 . S
C1612 C1611 1.403 . S
C1612 C1613 1.404 . S
C1612 C1615 1.539 . S
C1613 C1609 1.408 . S
C1613 C1612 1.404 . S
C1613 H1625 0.930 . S
C1614 C1610 1.524 . S
C1614 H1626 0.956 . S
C1614 H1627 0.961 . S
C1614 H1628 0.961 . S
C1615 C1612 1.539 . S
C1615 H1629 0.958 . S
C1615 H1630 0.961 . S
C1615 H1631 0.960 . S
H1616 C1600 0.931 . S
H1617 C1605 0.929 . S
H1618 C1606 0.960 . S
H1619 C1606 0.962 . S
H1620 C1606 0.960 . S
H1621 C1607 0.961 . S
H1622 C1607 0.961 . S
H1623 C1607 0.961 . S
H1624 C1608 0.931 . S
H1625 C1613 0.930 . S
H1626 C1614 0.956 . S
H1627 C1614 0.961 . S
H1628 C1614 0.961 . S
H1629 C1615 0.958 . S
H1630 C1615 0.961 . S
H1631 C1615 0.960 . S
C1632 C1633 1.391 . S
C1632 C1634 1.394 . S
C1632 H1648 0.931 . S
C1633 C1632 1.391 . S
C1633 C1637 1.376 . S
C1634 C1632 1.394 . S
C1634 C1635 1.369 . S
C1634 C1638 1.531 . S
C1635 C1634 1.369 . S
C1635 C1636 1.410 . S
C1635 C1643 1.503 . S
C1636 C1635 1.410 . S
C1636 C1637 1.392 . S
C1636 C1639 1.511 . S
C1637 C1633 1.376 . S
C1637 C1636 1.392 . S
C1637 H1649 0.929 . S
C1638 C1634 1.531 . S
C1638 H1650 0.960 . S
C1638 H1651 0.962 . S
C1638 H1652 0.960 . S
C1639 C1636 1.511 . S
C1639 H1653 0.961 . S
C1639 H1654 0.961 . S
C1639 H1655 0.961 . S
C1640 C1641 1.370 . S
C1640 C1642 1.363 1_545 S
C1640 H1656 0.931 . S
C1641 C1640 1.370 . S
C1641 C1645 1.408 . S
C1642 C1640 1.363 1_565 S
C1642 C1643 1.370 . S
C1642 C1646 1.524 . S
C1643 C1635 1.503 . S
C1643 C1642 1.370 . S
C1643 C1644 1.403 . S
C1644 C1643 1.403 . S
C1644 C1645 1.404 1_565 S
C1644 C1647 1.539 . S
C1645 C1641 1.408 . S
C1645 C1644 1.404 1_545 S
C1645 H1657 0.930 . S
C1646 C1642 1.524 . S
C1646 H1658 0.956 . S
C1646 H1659 0.961 . S
C1646 H1660 0.961 . S
C1647 C1644 1.539 . S
C1647 H1661 0.958 . S
C1647 H1662 0.961 . S
C1647 H1663 0.960 . S
H1648 C1632 0.931 . S
H1649 C1637 0.929 . S
H1650 C1638 0.960 . S
H1651 C1638 0.962 . S
H1652 C1638 0.960 . S
H1653 C1639 0.961 . S
H1654 C1639 0.961 . S
H1655 C1639 0.961 . S
H1656 C1640 0.931 . S
H1657 C1645 0.930 . S
H1658 C1646 0.956 . S
H1659 C1646 0.961 . S
H1660 C1646 0.961 . S
H1661 C1647 0.958 . S
H1662 C1647 0.961 . S
H1663 C1647 0.960 . S
C1664 C1665 1.391 . S
C1664 C1666 1.394 1_545 S
C1664 H1680 0.931 . S
C1665 C1664 1.391 . S
C1665 C1669 1.376 . S
C1666 C1664 1.394 1_565 S
C1666 C1667 1.369 . S
C1666 C1670 1.531 . S
C1667 C1666 1.369 . S
C1667 C1668 1.410 . S
C1667 C1675 1.503 . S
C1668 C1667 1.410 . S
C1668 C1669 1.392 1_565 S
C1668 C1671 1.511 . S
C1669 C1665 1.376 . S
C1669 C1668 1.392 1_545 S
C1669 H1681 0.929 . S
C1670 C1666 1.531 . S
C1670 H1682 0.960 . S
C1670 H1683 0.962 . S
C1670 H1684 0.960 . S
C1671 C1668 1.511 . S
C1671 H1685 0.961 . S
C1671 H1686 0.961 . S
C1671 H1687 0.961 . S
C1672 C1673 1.370 . S
C1672 C1674 1.363 . S
C1672 H1688 0.931 . S
C1673 C1672 1.370 . S
C1673 C1677 1.408 . S
C1674 C1672 1.363 . S
C1674 C1675 1.370 . S
C1674 C1678 1.524 . S
C1675 C1667 1.503 . S
C1675 C1674 1.370 . S
C1675 C1676 1.403 . S
C1676 C1675 1.403 . S
C1676 C1677 1.404 . S
C1676 C1679 1.539 . S
C1677 C1673 1.408 . S
C1677 C1676 1.404 . S
C1677 H1689 0.930 . S
C1678 C1674 1.524 . S
C1678 H1690 0.956 . S
C1678 H1691 0.961 . S
C1678 H1692 0.961 . S
C1679 C1676 1.539 . S
C1679 H1693 0.958 . S
C1679 H1694 0.961 . S
C1679 H1695 0.960 . S
H1680 C1664 0.931 . S
H1681 C1669 0.929 . S
H1682 C1670 0.960 . S
H1683 C1670 0.962 . S
H1684 C1670 0.960 . S
H1685 C1671 0.961 . S
H1686 C1671 0.961 . S
H1687 C1671 0.961 . S
H1688 C1672 0.931 . S
H1689 C1677 0.930 . S
H1690 C1678 0.956 . S
H1691 C1678 0.961 . S
H1692 C1678 0.961 . S
H1693 C1679 0.958 . S
H1694 C1679 0.961 . S
H1695 C1679 0.960 . S
C1696 C1697 1.391 . S
C1696 C1698 1.394 1_565 S
C1696 H1712 0.931 . S
C1697 C1696 1.391 . S
C1697 C1701 1.376 . S
C1698 C1696 1.394 1_545 S
C1698 C1699 1.369 . S
C1698 C1702 1.531 . S
C1699 C1698 1.369 . S
C1699 C1700 1.410 . S
C1699 C1707 1.503 . S
C1700 C1699 1.410 . S
C1700 C1701 1.392 1_545 S
C1700 C1703 1.511 . S
C1701 C1697 1.376 . S
C1701 C1700 1.392 1_565 S
C1701 H1713 0.929 . S
C1702 C1698 1.531 . S
C1702 H1714 0.960 . S
C1702 H1715 0.962 . S
C1702 H1716 0.960 . S
C1703 C1700 1.511 . S
C1703 H1717 0.961 . S
C1703 H1718 0.961 . S
C1703 H1719 0.961 . S
C1704 C1705 1.370 . S
C1704 C1706 1.363 . S
C1704 H1720 0.931 . S
C1705 C1704 1.370 . S
C1705 C1709 1.408 . S
C1706 C1704 1.363 . S
C1706 C1707 1.370 . S
C1706 C1710 1.524 . S
C1707 C1699 1.503 . S
C1707 C1706 1.370 . S
C1707 C1708 1.403 . S
C1708 C1707 1.403 . S
C1708 C1709 1.404 . S
C1708 C1711 1.539 . S
C1709 C1705 1.408 . S
C1709 C1708 1.404 . S
C1709 H1721 0.930 . S
C1710 C1706 1.524 . S
C1710 H1722 0.956 . S
C1710 H1723 0.961 . S
C1710 H1724 0.961 . S
C1711 C1708 1.539 . S
C1711 H1725 0.958 . S
C1711 H1726 0.961 . S
C1711 H1727 0.960 . S
H1712 C1696 0.931 . S
H1713 C1701 0.929 . S
H1714 C1702 0.960 . S
H1715 C1702 0.962 . S
H1716 C1702 0.960 . S
H1717 C1703 0.961 . S
H1718 C1703 0.961 . S
H1719 C1703 0.961 . S
H1720 C1704 0.931 . S
H1721 C1709 0.930 . S
H1722 C1710 0.956 . S
H1723 C1710 0.961 . S
H1724 C1710 0.961 . S
H1725 C1711 0.958 . S
H1726 C1711 0.961 . S
H1727 C1711 0.960 . S
C1728 C1729 1.391 . S
C1728 C1730 1.394 . S
C1728 H1744 0.931 . S
C1729 C1728 1.391 . S
C1729 C1733 1.376 . S
C1730 C1728 1.394 . S
C1730 C1731 1.369 . S
C1730 C1734 1.531 . S
C1731 C1730 1.369 . S
C1731 C1732 1.410 . S
C1731 C1739 1.503 . S
C1732 C1731 1.410 . S
C1732 C1733 1.392 . S
C1732 C1735 1.511 . S
C1733 C1729 1.376 . S
C1733 C1732 1.392 . S
C1733 H1745 0.929 . S
C1734 C1730 1.531 . S
C1734 H1746 0.960 . S
C1734 H1747 0.962 . S
C1734 H1748 0.960 . S
C1735 C1732 1.511 . S
C1735 H1749 0.961 . S
C1735 H1750 0.961 . S
C1735 H1751 0.961 . S
C1736 C1737 1.370 . S
C1736 C1738 1.363 1_545 S
C1736 H1752 0.931 . S
C1737 C1736 1.370 . S
C1737 C1741 1.408 . S
C1738 C1736 1.363 1_565 S
C1738 C1739 1.370 . S
C1738 C1742 1.524 . S
C1739 C1731 1.503 . S
C1739 C1738 1.370 . S
C1739 C1740 1.403 . S
C1740 C1739 1.403 . S
C1740 C1741 1.404 1_565 S
C1740 C1743 1.539 . S
C1741 C1737 1.408 . S
C1741 C1740 1.404 1_545 S
C1741 H1753 0.930 . S
C1742 C1738 1.524 . S
C1742 H1754 0.956 . S
C1742 H1755 0.961 . S
C1742 H1756 0.961 . S
C1743 C1740 1.539 . S
C1743 H1757 0.958 . S
C1743 H1758 0.961 . S
C1743 H1759 0.960 . S
H1744 C1728 0.931 . S
H1745 C1733 0.929 . S
H1746 C1734 0.960 . S
H1747 C1734 0.962 . S
H1748 C1734 0.960 . S
H1749 C1735 0.961 . S
H1750 C1735 0.961 . S
H1751 C1735 0.961 . S
H1752 C1736 0.931 . S
H1753 C1741 0.930 . S
H1754 C1742 0.956 . S
H1755 C1742 0.961 . S
H1756 C1742 0.961 . S
H1757 C1743 0.958 . S
H1758 C1743 0.961 . S
H1759 C1743 0.960 . S
C1760 C1761 1.391 . S
C1760 C1762 1.394 . S
C1760 H1776 0.931 . S
C1761 C1760 1.391 . S
C1761 C1765 1.376 . S
C1762 C1760 1.394 . S
C1762 C1763 1.369 . S
C1762 C1766 1.531 . S
C1763 C1762 1.369 . S
C1763 C1764 1.410 . S
C1763 C1771 1.503 . S
C1764 C1763 1.410 . S
C1764 C1765 1.392 . S
C1764 C1767 1.511 . S
C1765 C1761 1.376 . S
C1765 C1764 1.392 . S
C1765 H1777 0.929 . S
C1766 C1762 1.531 . S
C1766 H1778 0.960 . S
C1766 H1779 0.962 . S
C1766 H1780 0.960 . S
C1767 C1764 1.511 . S
C1767 H1781 0.961 . S
C1767 H1782 0.961 . S
C1767 H1783 0.961 . S
C1768 C1769 1.370 . S
C1768 C1770 1.363 1_565 S
C1768 H1784 0.931 . S
C1769 C1768 1.370 . S
C1769 C1773 1.408 . S
C1770 C1768 1.363 1_545 S
C1770 C1771 1.370 . S
C1770 C1774 1.524 . S
C1771 C1763 1.503 . S
C1771 C1770 1.370 . S
C1771 C1772 1.403 . S
C1772 C1771 1.403 . S
C1772 C1773 1.404 1_545 S
C1772 C1775 1.539 . S
C1773 C1769 1.408 . S
C1773 C1772 1.404 1_565 S
C1773 H1785 0.930 . S
C1774 C1770 1.524 . S
C1774 H1786 0.956 . S
C1774 H1787 0.961 . S
C1774 H1788 0.961 . S
C1775 C1772 1.539 . S
C1775 H1789 0.958 . S
C1775 H1790 0.961 . S
C1775 H1791 0.960 . S
H1776 C1760 0.931 . S
H1777 C1765 0.929 . S
H1778 C1766 0.960 . S
H1779 C1766 0.962 . S
H1780 C1766 0.960 . S
H1781 C1767 0.961 . S
H1782 C1767 0.961 . S
H1783 C1767 0.961 . S
H1784 C1768 0.931 . S
H1785 C1773 0.930 . S
H1786 C1774 0.956 . S
H1787 C1774 0.961 . S
H1788 C1774 0.961 . S
H1789 C1775 0.958 . S
H1790 C1775 0.961 . S
H1791 C1775 0.960 . S
C1792 C1793 1.391 . S
C1792 C1794 1.394 1_565 S
C1792 H1808 0.931 . S
C1793 C1792 1.391 . S
C1793 C1797 1.376 . S
C1794 C1792 1.394 1_545 S
C1794 C1795 1.369 . S
C1794 C1798 1.531 . S
C1795 C1794 1.369 . S
C1795 C1796 1.410 . S
C1795 C1803 1.503 . S
C1796 C1795 1.410 . S
C1796 C1797 1.392 1_545 S
C1796 C1799 1.511 . S
C1797 C1793 1.376 . S
C1797 C1796 1.392 1_565 S
C1797 H1809 0.929 . S
C1798 C1794 1.531 . S
C1798 H1810 0.960 . S
C1798 H1811 0.962 . S
C1798 H1812 0.960 . S
C1799 C1796 1.511 . S
C1799 H1813 0.961 . S
C1799 H1814 0.961 . S
C1799 H1815 0.961 . S
C1800 C1801 1.370 . S
C1800 C1802 1.363 . S
C1800 H1816 0.931 . S
C1801 C1800 1.370 . S
C1801 C1805 1.408 . S
C1802 C1800 1.363 . S
C1802 C1803 1.370 . S
C1802 C1806 1.524 . S
C1803 C1795 1.503 . S
C1803 C1802 1.370 . S
C1803 C1804 1.403 . S
C1804 C1803 1.403 . S
C1804 C1805 1.404 . S
C1804 C1807 1.539 . S
C1805 C1801 1.408 . S
C1805 C1804 1.404 . S
C1805 H1817 0.930 . S
C1806 C1802 1.524 . S
C1806 H1818 0.956 . S
C1806 H1819 0.961 . S
C1806 H1820 0.961 . S
C1807 C1804 1.539 . S
C1807 H1821 0.958 . S
C1807 H1822 0.961 . S
C1807 H1823 0.960 . S
H1808 C1792 0.931 . S
H1809 C1797 0.929 . S
H1810 C1798 0.960 . S
H1811 C1798 0.962 . S
H1812 C1798 0.960 . S
H1813 C1799 0.961 . S
H1814 C1799 0.961 . S
H1815 C1799 0.961 . S
H1816 C1800 0.931 . S
H1817 C1805 0.930 . S
H1818 C1806 0.956 . S
H1819 C1806 0.961 . S
H1820 C1806 0.961 . S
H1821 C1807 0.958 . S
H1822 C1807 0.961 . S
H1823 C1807 0.960 . S
C1824 C1825 1.391 . S
C1824 C1826 1.394 . S
C1824 H1840 0.931 . S
C1825 C1824 1.391 . S
C1825 C1829 1.376 . S
C1826 C1824 1.394 . S
C1826 C1827 1.369 . S
C1826 C1830 1.531 . S
C1827 C1826 1.369 . S
C1827 C1828 1.410 . S
C1827 C1835 1.503 . S
C1828 C1827 1.410 . S
C1828 C1829 1.392 . S
C1828 C1831 1.511 . S
C1829 C1825 1.376 . S
C1829 C1828 1.392 . S
C1829 H1841 0.929 . S
C1830 C1826 1.531 . S
C1830 H1842 0.960 . S
C1830 H1843 0.962 . S
C1830 H1844 0.960 . S
C1831 C1828 1.511 . S
C1831 H1845 0.961 . S
C1831 H1846 0.961 . S
C1831 H1847 0.961 . S
C1832 C1833 1.370 . S
C1832 C1834 1.363 1_545 S
C1832 H1848 0.931 . S
C1833 C1832 1.370 . S
C1833 C1837 1.408 . S
C1834 C1832 1.363 1_565 S
C1834 C1835 1.370 . S
C1834 C1838 1.524 . S
C1835 C1827 1.503 . S
C1835 C1834 1.370 . S
C1835 C1836 1.403 . S
C1836 C1835 1.403 . S
C1836 C1837 1.404 1_565 S
C1836 C1839 1.539 . S
C1837 C1833 1.408 . S
C1837 C1836 1.404 1_545 S
C1837 H1849 0.930 . S
C1838 C1834 1.524 . S
C1838 H1850 0.956 . S
C1838 H1851 0.961 . S
C1838 H1852 0.961 . S
C1839 C1836 1.539 . S
C1839 H1853 0.958 . S
C1839 H1854 0.961 . S
C1839 H1855 0.960 . S
H1840 C1824 0.931 . S
H1841 C1829 0.929 . S
H1842 C1830 0.960 . S
H1843 C1830 0.962 . S
H1844 C1830 0.960 . S
H1845 C1831 0.961 . S
H1846 C1831 0.961 . S
H1847 C1831 0.961 . S
H1848 C1832 0.931 . S
H1849 C1837 0.930 . S
H1850 C1838 0.956 . S
H1851 C1838 0.961 . S
H1852 C1838 0.961 . S
H1853 C1839 0.958 . S
H1854 C1839 0.961 . S
H1855 C1839 0.960 . S
C321 C2 1.466 . S
C329 C182 1.440 . S
C353 C22 1.450 . S
C361 C162 1.431 . S
C385 C222 1.438 . S
C393 C42 1.452 . S
C417 C62 1.406 . S
C425 C202 1.450 . S
C449 C264 1.426 . S
C457 C84 1.444 . S
C481 C244 1.466 . S
C489 C104 1.435 . S
C513 C304 1.463 . S
C521 C124 1.437 . S
C545 C144 1.413 . S
C553 C284 1.456 . S
C577 C59 1.572 . S
C585 C19 1.566 . S
C609 C79 1.573 . S
C617 C39 1.567 . S
C641 C138 1.573 . S
C649 C98 1.564 . S
C673 C118 1.544 . S
C681 C158 1.560 . S
C705 C219 1.573 . S
C713 C179 1.567 . S
C737 C239 1.568 . S
C745 C199 1.565 . S
C769 C258 1.556 . S
C777 C298 1.558 . S
C801 C278 1.550 . S
C809 C318 1.558 . S
C833 C119 1.553 . S
C841 C18 1.551 . S
C865 C99 1.527 . S
C873 C38 1.543 . S
C897 C58 1.524 . S
C905 C159 1.540 . S
C929 C139 1.531 . S
C937 C78 1.545 . S
C961 C178 1.566 . S
C969 C279 1.558 . S
C993 C259 1.550 . S
C1001 C198 1.550 . S
C1025 C218 1.525 . S
C1033 C319 1.540 . S
C1057 C299 1.546 . S
C1065 C238 1.551 . S
C1089 C24 1.559 . S
C1097 C4 1.556 . S
C1121 C64 1.560 . S
C1129 C44 1.556 . S
C1153 C102 1.554 . S
C1161 C82 1.561 . S
C1185 C122 1.553 . S
C1193 C142 1.561 . S
C1217 C184 1.540 . S
C1225 C164 1.555 . S
C1249 C224 1.549 . S
C1257 C204 1.560 . S
C1281 C242 1.549 . S
C1289 C262 1.563 . S
C1313 C282 1.553 . S
C1321 C302 1.547 . S
C1345 C12 1.655 . S
C1353 C9 1.675 . S
C1377 C32 1.653 . S
C1385 C29 1.676 . S
C1409 C52 1.680 . S
C1417 C49 1.664 . S
C1441 C69 1.658 . S
C1449 C72 1.674 . S
C1473 C89 1.677 . S
C1481 C92 1.665 . S
C1505 C112 1.679 . S
C1513 C109 1.664 . S
C1537 C129 1.664 . S
C1545 C132 1.672 . S
C1569 C149 1.672 . S
C1577 C152 1.668 . S
C1601 C169 1.669 . S
C1609 C172 1.668 . S
C1633 C192 1.653 . S
C1641 C189 1.676 . S
C1665 C209 1.657 . S
C1673 C212 1.674 . S
C1697 C229 1.663 . S
C1705 C232 1.670 . S
C1729 C249 1.664 . S
C1737 C252 1.670 . S
C1761 C269 1.681 . S
C1769 C272 1.664 . S
C1793 C292 1.654 . S
C1801 C289 1.675 . S
C1825 C309 1.662 . S
C1833 C312 1.673 . S
