# Generated by pormake.
# Topology sxg, (6)-cn, num edge types: 1
# Building blocks:
#     Node 0, Type 0, BuildingBlock: IZENUY_clean_sbu_0, # of connection points: 6
#     Node 1, Type 0, BuildingBlock: IZENUY_clean_sbu_0, # of connection points: 6
#     Node 2, Type 0, BuildingBlock: IZENUY_clean_sbu_0, # of connection points: 6
#     Node 3, Type 0, BuildingBlock: IZENUY_clean_sbu_0, # of connection points: 6
#     Node 4, Type 0, BuildingBlock: IZENUY_clean_sbu_0, # of connection points: 6
#     Node 5, Type 0, BuildingBlock: IZENUY_clean_sbu_0, # of connection points: 6
#     Node 6, Type 0, BuildingBlock: IZENUY_clean_sbu_0, # of connection points: 6
#     Node 7, Type 0, BuildingBlock: IZENUY_clean_sbu_0, # of connection points: 6
#     Node 8, Type 0, BuildingBlock: IZENUY_clean_sbu_0, # of connection points: 6
#     Node 9, Type 0, BuildingBlock: IZENUY_clean_sbu_0, # of connection points: 6
#     Node 10, Type 0, BuildingBlock: IZENUY_clean_sbu_0, # of connection points: 6
#     Node 11, Type 0, BuildingBlock: IZENUY_clean_sbu_0, # of connection points: 6
#     Node 12, Type 0, BuildingBlock: IZENUY_clean_sbu_0, # of connection points: 6
#     Node 13, Type 0, BuildingBlock: IZENUY_clean_sbu_0, # of connection points: 6
#     Node 14, Type 0, BuildingBlock: IZENUY_clean_sbu_0, # of connection points: 6
#     Node 15, Type 0, BuildingBlock: IZENUY_clean_sbu_0, # of connection points: 6
#     Node 16, Type 0, BuildingBlock: IZENUY_clean_sbu_0, # of connection points: 6
#     Node 17, Type 0, BuildingBlock: IZENUY_clean_sbu_0, # of connection points: 6
#     Node 18, Type 0, BuildingBlock: IZENUY_clean_sbu_0, # of connection points: 6
#     Node 19, Type 0, BuildingBlock: IZENUY_clean_sbu_0, # of connection points: 6
#     Node 20, Type 0, BuildingBlock: IZENUY_clean_sbu_0, # of connection points: 6
#     Node 21, Type 0, BuildingBlock: IZENUY_clean_sbu_0, # of connection points: 6
#     Node 22, Type 0, BuildingBlock: IZENUY_clean_sbu_0, # of connection points: 6
#     Node 23, Type 0, BuildingBlock: IZENUY_clean_sbu_0, # of connection points: 6
#     Edge 24, Type (0, 0), BuildingBlock: EZIPEK_clean_linker_0, # of connection points: 2
#     Edge 25, Type (0, 0), BuildingBlock: EZIPEK_clean_linker_0, # of connection points: 2
#     Edge 26, Type (0, 0), BuildingBlock: EZIPEK_clean_linker_0, # of connection points: 2
#     Edge 27, Type (0, 0), BuildingBlock: EZIPEK_clean_linker_0, # of connection points: 2
#     Edge 28, Type (0, 0), BuildingBlock: EZIPEK_clean_linker_0, # of connection points: 2
#     Edge 29, Type (0, 0), BuildingBlock: EZIPEK_clean_linker_0, # of connection points: 2
#     Edge 30, Type (0, 0), BuildingBlock: EZIPEK_clean_linker_0, # of connection points: 2
#     Edge 31, Type (0, 0), BuildingBlock: EZIPEK_clean_linker_0, # of connection points: 2
#     Edge 32, Type (0, 0), BuildingBlock: EZIPEK_clean_linker_0, # of connection points: 2
#     Edge 33, Type (0, 0), BuildingBlock: EZIPEK_clean_linker_0, # of connection points: 2
#     Edge 34, Type (0, 0), BuildingBlock: EZIPEK_clean_linker_0, # of connection points: 2
#     Edge 35, Type (0, 0), BuildingBlock: EZIPEK_clean_linker_0, # of connection points: 2
#     Edge 36, Type (0, 0), BuildingBlock: EZIPEK_clean_linker_0, # of connection points: 2
#     Edge 37, Type (0, 0), BuildingBlock: EZIPEK_clean_linker_0, # of connection points: 2
#     Edge 38, Type (0, 0), BuildingBlock: EZIPEK_clean_linker_0, # of connection points: 2
#     Edge 39, Type (0, 0), BuildingBlock: EZIPEK_clean_linker_0, # of connection points: 2
#     Edge 40, Type (0, 0), BuildingBlock: EZIPEK_clean_linker_0, # of connection points: 2
#     Edge 41, Type (0, 0), BuildingBlock: EZIPEK_clean_linker_0, # of connection points: 2
#     Edge 42, Type (0, 0), BuildingBlock: EZIPEK_clean_linker_0, # of connection points: 2
#     Edge 43, Type (0, 0), BuildingBlock: EZIPEK_clean_linker_0, # of connection points: 2
#     Edge 44, Type (0, 0), BuildingBlock: EZIPEK_clean_linker_0, # of connection points: 2
#     Edge 45, Type (0, 0), BuildingBlock: EZIPEK_clean_linker_0, # of connection points: 2
#     Edge 46, Type (0, 0), BuildingBlock: EZIPEK_clean_linker_0, # of connection points: 2
#     Edge 47, Type (0, 0), BuildingBlock: EZIPEK_clean_linker_0, # of connection points: 2
#     Edge 48, Type (0, 0), BuildingBlock: EZIPEK_clean_linker_0, # of connection points: 2
#     Edge 49, Type (0, 0), BuildingBlock: EZIPEK_clean_linker_0, # of connection points: 2
#     Edge 50, Type (0, 0), BuildingBlock: EZIPEK_clean_linker_0, # of connection points: 2
#     Edge 51, Type (0, 0), BuildingBlock: EZIPEK_clean_linker_0, # of connection points: 2
#     Edge 52, Type (0, 0), BuildingBlock: EZIPEK_clean_linker_0, # of connection points: 2
#     Edge 53, Type (0, 0), BuildingBlock: EZIPEK_clean_linker_0, # of connection points: 2
#     Edge 54, Type (0, 0), BuildingBlock: EZIPEK_clean_linker_0, # of connection points: 2
#     Edge 55, Type (0, 0), BuildingBlock: EZIPEK_clean_linker_0, # of connection points: 2
#     Edge 56, Type (0, 0), BuildingBlock: EZIPEK_clean_linker_0, # of connection points: 2
#     Edge 57, Type (0, 0), BuildingBlock: EZIPEK_clean_linker_0, # of connection points: 2
#     Edge 58, Type (0, 0), BuildingBlock: EZIPEK_clean_linker_0, # of connection points: 2
#     Edge 59, Type (0, 0), BuildingBlock: EZIPEK_clean_linker_0, # of connection points: 2
#     Edge 60, Type (0, 0), BuildingBlock: EZIPEK_clean_linker_0, # of connection points: 2
#     Edge 61, Type (0, 0), BuildingBlock: EZIPEK_clean_linker_0, # of connection points: 2
#     Edge 62, Type (0, 0), BuildingBlock: EZIPEK_clean_linker_0, # of connection points: 2
#     Edge 63, Type (0, 0), BuildingBlock: EZIPEK_clean_linker_0, # of connection points: 2
#     Edge 64, Type (0, 0), BuildingBlock: EZIPEK_clean_linker_0, # of connection points: 2
#     Edge 65, Type (0, 0), BuildingBlock: EZIPEK_clean_linker_0, # of connection points: 2
#     Edge 66, Type (0, 0), BuildingBlock: EZIPEK_clean_linker_0, # of connection points: 2
#     Edge 67, Type (0, 0), BuildingBlock: EZIPEK_clean_linker_0, # of connection points: 2
#     Edge 68, Type (0, 0), BuildingBlock: EZIPEK_clean_linker_0, # of connection points: 2
#     Edge 69, Type (0, 0), BuildingBlock: EZIPEK_clean_linker_0, # of connection points: 2
#     Edge 70, Type (0, 0), BuildingBlock: EZIPEK_clean_linker_0, # of connection points: 2
#     Edge 71, Type (0, 0), BuildingBlock: EZIPEK_clean_linker_0, # of connection points: 2
#     Edge 72, Type (0, 0), BuildingBlock: EZIPEK_clean_linker_0, # of connection points: 2
#     Edge 73, Type (0, 0), BuildingBlock: EZIPEK_clean_linker_0, # of connection points: 2
#     Edge 74, Type (0, 0), BuildingBlock: EZIPEK_clean_linker_0, # of connection points: 2
#     Edge 75, Type (0, 0), BuildingBlock: EZIPEK_clean_linker_0, # of connection points: 2
#     Edge 76, Type (0, 0), BuildingBlock: EZIPEK_clean_linker_0, # of connection points: 2
#     Edge 77, Type (0, 0), BuildingBlock: EZIPEK_clean_linker_0, # of connection points: 2
#     Edge 78, Type (0, 0), BuildingBlock: EZIPEK_clean_linker_0, # of connection points: 2
#     Edge 79, Type (0, 0), BuildingBlock: EZIPEK_clean_linker_0, # of connection points: 2
#     Edge 80, Type (0, 0), BuildingBlock: EZIPEK_clean_linker_0, # of connection points: 2
#     Edge 81, Type (0, 0), BuildingBlock: EZIPEK_clean_linker_0, # of connection points: 2
#     Edge 82, Type (0, 0), BuildingBlock: EZIPEK_clean_linker_0, # of connection points: 2
#     Edge 83, Type (0, 0), BuildingBlock: EZIPEK_clean_linker_0, # of connection points: 2
#     Edge 84, Type (0, 0), BuildingBlock: EZIPEK_clean_linker_0, # of connection points: 2
#     Edge 85, Type (0, 0), BuildingBlock: EZIPEK_clean_linker_0, # of connection points: 2
#     Edge 86, Type (0, 0), BuildingBlock: EZIPEK_clean_linker_0, # of connection points: 2
#     Edge 87, Type (0, 0), BuildingBlock: EZIPEK_clean_linker_0, # of connection points: 2
#     Edge 88, Type (0, 0), BuildingBlock: EZIPEK_clean_linker_0, # of connection points: 2
#     Edge 89, Type (0, 0), BuildingBlock: EZIPEK_clean_linker_0, # of connection points: 2
#     Edge 90, Type (0, 0), BuildingBlock: EZIPEK_clean_linker_0, # of connection points: 2
#     Edge 91, Type (0, 0), BuildingBlock: EZIPEK_clean_linker_0, # of connection points: 2
#     Edge 92, Type (0, 0), BuildingBlock: EZIPEK_clean_linker_0, # of connection points: 2
#     Edge 93, Type (0, 0), BuildingBlock: EZIPEK_clean_linker_0, # of connection points: 2
#     Edge 94, Type (0, 0), BuildingBlock: EZIPEK_clean_linker_0, # of connection points: 2
#     Edge 95, Type (0, 0), BuildingBlock: EZIPEK_clean_linker_0, # of connection points: 2
# Relax obj value: 0.224
# Max RMSD: 0.256
# Mean RMSD: 0.255
data_MOF--net-sxg--node1-IZENUY_clean_sbu_0--edge1-EZIPEK_clean_linker_0
_symmetry_space_group_name_H-M    P1
_symmetry_Int_Tables_number       1
_symmetry_cell_setting            triclinic
loop_
_symmetry_equiv_pos_as_xyz
'x, y, z'
_cell_length_a     33.33895
_cell_length_b     33.348223
_cell_length_c     33.301818
_cell_angle_alpha  89.887905
_cell_angle_beta   89.950439
_cell_angle_gamma 90.086156
loop_
_atom_site_label
_atom_site_type_symbol
_atom_site_fract_x
_atom_site_fract_y
_atom_site_fract_z
_atom_type_partial_charge
Fe0 Fe 0.07386 0.37525 0.18323 0.0
Fe1 Fe 0.06358 0.35118 0.27126 0.0
O2 O 0.0666 0.33762 0.22014 0.0
Fe3 Fe 0.06407 0.28698 0.20582 0.0
O4 O 0.02164 0.29565 0.17345 0.0
O5 O 0.04779 0.34752 0.14227 0.0
O6 O 0.02641 0.39674 0.19567 0.0
C7 C 0.01876 0.41161 0.22943 0.0
C8 C 0.12855 0.3194 0.16213 0.0
O9 O 0.03851 0.40043 0.26042 0.0
C10 C 0.10866 0.27834 0.27342 0.0
O11 O 0.10195 0.4101 0.21682 0.0
O12 O 0.11358 0.37234 0.26908 0.0
O13 O 0.101 0.29313 0.16513 0.0
O14 O 0.12173 0.35543 0.1698 0.0
C15 C 1.00612 0.29323 0.26949 0.0
O16 O 0.08722 0.30444 0.29099 0.0
O17 O 0.10629 0.27429 0.23618 0.0
C18 C 0.12388 0.40103 0.24667 0.0
O19 O 0.01413 0.32957 0.27656 0.0
O20 O 0.02761 0.27294 0.24539 0.0
C21 C 0.02269 0.31878 0.14372 0.0
Fe22 Fe 0.4465 0.64608 0.68357 0.0
Fe23 Fe 0.46251 0.66634 0.77258 0.0
O24 O 0.45873 0.68189 0.72153 0.0
Fe25 Fe 0.46581 0.73309 0.7081 0.0
O26 O 0.48701 0.7225 0.65823 0.0
O27 O 0.49229 0.65677 0.65504 0.0
O28 O 0.47315 0.60431 0.70723 0.0
C29 C 0.50163 0.60532 0.73211 0.0
C30 C 0.39863 0.71101 0.66354 0.0
O31 O 0.50223 0.631 0.75985 0.0
C32 C 0.42706 0.73988 0.7834 0.0
O33 O 0.39921 0.63369 0.70858 0.0
O34 O 0.42267 0.62746 0.76963 0.0
O35 O 0.41397 0.7353 0.68853 0.0
O36 O 0.4179 0.68061 0.65255 0.0
C37 C 0.52498 0.72462 0.76552 0.0
O38 O 0.4248 0.7025 0.78967 0.0
O39 O 0.44676 0.75385 0.75444 0.0
C40 C 0.3945 0.6223 0.74447 0.0
O41 O 0.50197 0.70162 0.78497 0.0
O42 O 0.51714 0.73449 0.72929 0.0
C43 C 0.50169 0.69135 0.64226 0.0
Fe44 Fe 0.56644 0.16408 0.75548 0.0
Fe45 Fe 0.56108 0.22993 0.82012 0.0
O46 O 0.567 0.17853 0.80724 0.0
Fe47 Fe 0.57478 0.14207 0.84623 0.0
O48 O 0.54533 0.1028 0.82174 0.0
O49 O 0.52457 0.12959 0.76477 0.0
O50 O 0.52909 0.20144 0.74062 0.0
C51 C 0.50585 0.22494 0.75921 0.0
C52 C 0.62913 0.11608 0.78816 0.0
O53 O 0.5115 0.23338 0.79607 0.0
C54 C 0.62531 0.20535 0.86782 0.0
O55 O 0.60747 0.19855 0.74166 0.0
O56 O 0.58374 0.24961 0.77545 0.0
O57 O 0.62148 0.12498 0.82401 0.0
O58 O 0.60457 0.12427 0.76035 0.0
C59 C 0.52077 0.19134 0.88464 0.0
O60 O 0.61091 0.23018 0.84282 0.0
O61 O 0.60576 0.17455 0.87768 0.0
C62 C 0.6069 0.2357 0.74943 0.0
O63 O 0.537 0.22136 0.86846 0.0
O64 O 0.52917 0.15619 0.87332 0.0
C65 C 0.52093 0.10409 0.79278 0.0
Fe66 Fe 0.96062 0.8619 0.25821 0.0
Fe67 Fe 0.95684 0.79455 0.32001 0.0
O68 O 0.95596 0.84619 0.30848 0.0
Fe69 Fe 0.94916 0.88214 0.34699 0.0
O70 O 0.99709 0.9044 0.33633 0.0
O71 O 0.98765 0.90919 0.27109 0.0
O72 O 1.00957 0.83958 0.25424 0.0
C73 C 0.01409 0.80233 0.25451 0.0
C74 C 0.90107 0.91215 0.28338 0.0
O75 O 0.99195 0.78087 0.27756 0.0
C76 C 0.89324 0.82579 0.36628 0.0
O77 O 0.93533 0.8166 0.23641 0.0
O78 O 0.91354 0.78572 0.28981 0.0
O79 O 0.92175 0.91897 0.31478 0.0
O80 O 0.91165 0.8848 0.25963 0.0
C81 C 1.00012 0.82285 0.3831 0.0
O82 O 0.92033 0.79915 0.36205 0.0
O83 O 0.90079 0.86194 0.3592 0.0
C84 C 0.91282 0.79034 0.25259 0.0
O85 O 1.00011 0.80048 0.35255 0.0
O86 O 0.9751 0.85162 0.38618 0.0
C87 C 1.00807 0.91702 0.3025 0.0
Fe88 Fe 0.2112 0.05664 0.29861 0.0
Fe89 Fe 0.18151 0.07491 0.38364 0.0
O90 O 0.22163 0.06505 0.34992 0.0
Fe91 Fe 0.27143 0.06512 0.36797 0.0
O92 O 0.28084 0.01518 0.35108 0.0
O93 O 0.2535 0.02006 0.29126 0.0
O94 O 0.17858 0.01466 0.31006 0.0
C95 C 0.14648 0.01882 0.32957 0.0
C96 C 0.27779 0.1029 0.28961 0.0
O97 O 0.14302 0.04713 0.35471 0.0
C98 C 0.24128 0.1274 0.41191 0.0
O99 O 0.1692 0.09361 0.2976 0.0
O100 O 0.17105 0.12077 0.35774 0.0
O101 O 0.29388 0.08749 0.32085 0.0
O102 O 0.24145 0.09785 0.28267 0.0
C103 C 0.22485 0.01998 0.42543 0.0
O104 O 0.21126 0.1053 0.41946 0.0
O105 O 0.26677 0.11606 0.38661 0.0
C106 C 0.16391 0.12367 0.32076 0.0
O107 O 0.19128 0.02908 0.41063 0.0
O108 O 0.25649 0.04037 0.41671 0.0
C109 C 0.27844 1.00372 0.31549 0.0
Fe110 Fe 0.25687 0.96585 0.85098 0.0
Fe111 Fe 0.32009 0.95558 0.78447 0.0
O112 O 0.30744 0.95695 0.83611 0.0
Fe113 Fe 0.34515 0.94802 0.87282 0.0
O114 O 0.33676 0.99598 0.89591 0.0
O115 O 0.27076 0.99303 0.89771 0.0
O116 O 0.25538 0.01414 0.82545 0.0
C117 C 0.26035 0.01803 0.78802 0.0
C118 C 0.2786 0.90332 0.90102 0.0
O119 O 0.28199 0.9931 0.76901 0.0
C120 C 0.36628 0.89188 0.81764 0.0
O121 O 0.23391 0.94069 0.80722 0.0
O122 O 0.28561 0.91451 0.77618 0.0
O123 O 0.31143 0.9213 0.90805 0.0
O124 O 0.25393 0.91762 0.87626 0.0
C125 C 0.38471 0.99657 0.81392 0.0
O126 O 0.36011 0.91721 0.78982 0.0
O127 O 0.35634 0.89941 0.85304 0.0
C128 C 0.24843 0.9152 0.78315 0.0
O129 O 0.35557 0.99657 0.78977 0.0
O130 O 0.38577 0.97263 0.84366 0.0
C131 C 0.30376 1.00885 0.90863 0.0
Fe132 Fe 0.76354 0.4611 0.66785 0.0
Fe133 Fe 0.69933 0.45751 0.7335 0.0
O134 O 0.71262 0.45588 0.68264 0.0
Fe135 Fe 0.67504 0.44703 0.64638 0.0
O136 O 0.68521 0.495 0.62383 0.0
O137 O 0.75047 0.48608 0.61914 0.0
O138 O 0.76718 0.51072 0.68956 0.0
C139 C 0.76182 0.51757 0.72641 0.0
C140 C 0.7391 0.39941 0.61949 0.0
O141 O 0.7387 0.49501 0.74706 0.0
C142 C 0.65325 0.39202 0.70277 0.0
O143 O 0.78539 0.43822 0.71446 0.0
O144 O 0.7315 0.41601 0.74351 0.0
O145 O 0.70829 0.42011 0.61132 0.0
O146 O 0.7635 0.41119 0.64586 0.0
C147 C 0.6357 0.49773 0.70267 0.0
O148 O 0.65875 0.41921 0.72909 0.0
O149 O 0.66383 0.39851 0.6672 0.0
C150 C 0.76899 0.41595 0.74084 0.0
O151 O 0.66533 0.49919 0.72602 0.0
O152 O 0.63418 0.47185 0.67481 0.0
C153 C 0.71862 0.50496 0.60913 0.0
Fe154 Fe 0.82523 0.56201 0.2374 0.0
Fe155 Fe 0.8532 0.58172 0.15246 0.0
O156 O 0.81412 0.56843 0.18614 0.0
Fe157 Fe 0.76469 0.56159 0.16839 0.0
O158 O 0.76243 0.51082 0.18676 0.0
O159 O 0.78674 0.52248 0.24628 0.0
O160 O 0.86021 0.52225 0.2262 0.0
C161 C 0.8918 0.52793 0.20643 0.0
C162 C 0.75435 0.60044 0.24421 0.0
O163 O 0.89372 0.55726 0.18206 0.0
C164 C 0.78738 0.62692 0.12381 0.0
O165 O 0.86441 0.60224 0.23794 0.0
O166 O 0.86022 0.62847 0.17745 0.0
O167 O 0.73995 0.58124 0.21454 0.0
O168 O 0.79113 0.60051 0.25145 0.0
C169 C 0.81501 0.52323 0.11098 0.0
O170 O 0.8204 0.60927 0.11693 0.0
O171 O 0.76289 0.61235 0.14865 0.0
C172 C 0.86789 0.63211 0.21412 0.0
O173 O 0.84751 0.53535 0.12576 0.0
O174 O 0.78158 0.53945 0.12007 0.0
C175 C 0.76659 0.50022 0.22274 0.0
Fe176 Fe 0.29542 0.19682 0.06517 0.0
Fe177 Fe 0.3834 0.17682 0.07833 0.0
O178 O 0.34559 0.21258 0.0682 0.0
Fe179 Fe 0.35748 0.26423 0.06399 0.0
O180 O 0.33678 0.26787 0.01381 0.0
O181 O 0.28051 0.23697 0.02779 0.0
O182 O 0.30562 0.16447 0.02312 0.0
C183 C 0.33038 0.13595 0.02467 0.0
C184 C 0.28218 0.26321 0.10623 0.0
O185 O 0.35766 0.13545 0.05143 0.0
C186 C 0.40692 0.24245 0.1268 0.0
O187 O 0.3007 0.15591 0.10247 0.0
O188 O 0.36118 0.16445 0.12614 0.0
O189 O 0.30869 0.28233 0.08615 0.0
O190 O 0.28378 0.22629 0.10806 0.0
C191 C 0.41869 0.22244 0.02063 0.0
O192 O 0.4163 0.21152 0.10673 0.0
O193 O 0.37906 0.26504 0.11452 0.0
C194 C 0.32509 0.15548 0.13179 0.0
O195 O 0.40734 0.18811 0.03151 0.0
O196 O 0.40682 0.25392 0.0391 0.0
C197 C 0.30036 0.26177 1.00613 0.0
Fe198 Fe 0.88497 0.34623 0.94958 0.0
Fe199 Fe 0.85636 0.25888 0.96081 0.0
O200 O 0.84605 0.311 0.95818 0.0
Fe201 Fe 0.79625 0.32775 0.96144 0.0
O202 O 0.80626 0.35857 1.00436 0.0
O203 O 0.86009 0.38701 0.97863 0.0
O204 O 0.90892 0.33222 0.9955 0.0
C205 C 0.91836 0.29728 1.00627 0.0
C206 C 0.82894 0.37615 0.89842 0.0
O207 O 0.90551 0.26668 0.98695 0.0
C208 C 0.78231 0.26222 0.91674 0.0
O209 O 0.91643 0.31193 0.91949 0.0
O210 O 0.87824 0.259 0.9108 0.0
O211 O 0.80322 0.37039 0.92613 0.0
O212 O 0.86347 0.36195 0.90245 0.0
C213 C 0.7988 0.26123 0.018 0.0
O214 O 0.8077 0.24235 0.93731 0.0
O215 O 0.78415 0.2994 0.91804 0.0
C216 C 0.90607 0.28166 0.89887 0.0
O217 O 0.83507 0.2546 1.01016 0.0
O218 O 0.77962 0.28712 0.9972 0.0
C219 C 0.83183 0.38633 1.00458 0.0
Fe220 Fe 0.64471 0.6782 0.44414 0.0
Fe221 Fe 0.66001 0.76679 0.46127 0.0
O222 O 0.6783 0.71745 0.45659 0.0
Fe223 Fe 0.72926 0.70611 0.46572 0.0
O224 O 0.71588 0.67114 0.50542 0.0
O225 O 0.67343 0.63765 0.46908 0.0
O226 O 0.61778 0.68532 0.49071 0.0
C227 C 0.60198 0.71803 0.50125 0.0
C228 C 0.7071 0.66357 0.39461 0.0
O229 O 0.61049 0.75046 0.48242 0.0
C230 C 0.73979 0.77682 0.4268 0.0
O231 O 0.60976 0.7101 0.41547 0.0
O232 O 0.64152 0.76718 0.40948 0.0
O233 O 0.73057 0.6672 0.42495 0.0
O234 O 0.6702 0.67027 0.39766 0.0
C235 C 0.71203 0.768 0.52387 0.0
O236 O 0.70774 0.79109 0.44237 0.0
O237 O 0.74693 0.73999 0.42809 0.0
C238 C 0.61657 0.74203 0.3958 0.0
O239 O 0.67621 0.76954 0.51296 0.0
O240 O 0.73645 0.74509 0.5054 0.0
C241 C 0.69673 0.63936 0.49902 0.0
Fe242 Fe 0.16844 0.7489 0.55991 0.0
Fe243 Fe 0.23534 0.81242 0.56711 0.0
O244 O 0.18375 0.79947 0.56747 0.0
Fe245 Fe 0.1472 0.8369 0.57718 0.0
O246 O 0.12395 0.82893 0.52916 0.0
O247 O 0.12077 0.76305 0.53381 0.0
O248 O 0.19126 0.74758 0.51076 0.0
C249 C 0.22735 0.75559 0.50229 0.0
C250 C 0.11836 0.77068 0.62221 0.0
O251 O 0.24854 0.77584 0.52689 0.0
C252 C 0.20349 0.85432 0.63406 0.0
O253 O 0.21407 0.72543 0.58259 0.0
O254 O 0.24606 0.77728 0.60633 0.0
O255 O 0.11172 0.803 0.60315 0.0
O256 O 0.14479 0.74663 0.60955 0.0
C257 C 0.20552 0.87873 0.52891 0.0
O258 O 0.23082 0.85045 0.60764 0.0
O259 O 0.1677 0.84611 0.62603 0.0
C260 C 0.24134 0.74023 0.60472 0.0
O261 O 0.22927 0.84948 0.52799 0.0
O262 O 0.17601 0.8786 0.55326 0.0
C263 C 0.11054 0.79585 0.51672 0.0
Fe264 Fe 0.94736 0.63586 0.84246 0.0
Fe265 Fe 0.96264 0.66319 0.75504 0.0
O266 O 0.95814 0.67394 0.80714 0.0
Fe267 Fe 0.96121 0.72363 0.82359 0.0
O268 O 1.00326 0.71306 0.85562 0.0
O269 O 0.97438 0.6608 0.88438 0.0
O270 O 0.99396 0.61106 0.83085 0.0
C271 C 1.005 0.60008 0.79637 0.0
C272 C 0.89553 0.69379 0.86793 0.0
O273 O 0.98713 0.61318 0.76477 0.0
C274 C 0.92049 0.73891 0.75722 0.0
O275 O 0.91851 0.60455 0.80717 0.0
O276 O 0.91222 0.64184 0.75327 0.0
O277 O 0.92471 0.71817 0.86545 0.0
O278 O 0.8997 0.65846 0.85554 0.0
C279 C 0.02054 0.71991 0.75912 0.0
O280 O 0.94077 0.71298 0.73742 0.0
O281 O 0.91805 0.73476 0.79397 0.0
C282 C 0.89908 0.61428 0.77583 0.0
O283 O 0.01289 0.68368 0.75228 0.0
O284 O 0.99843 0.73924 0.78361 0.0
C285 C 1.00086 0.68838 0.88424 0.0
Fe286 Fe 0.56411 0.30111 0.32226 0.0
Fe287 Fe 0.57762 0.3883 0.34393 0.0
O288 O 0.56832 0.35113 0.3077 0.0
Fe289 Fe 0.56519 0.36352 0.25664 0.0
O290 O 0.51433 0.34512 0.25419 0.0
O291 O 0.52837 0.28692 0.28029 0.0
O292 O 0.5207 0.3119 0.35311 0.0
C293 C 0.52355 0.33431 0.38346 0.0
C294 C 0.60551 0.28668 0.25673 0.0
O295 O 0.55095 0.36101 0.38483 0.0
C296 C 0.62784 0.41122 0.27957 0.0
O297 O 0.59977 0.306 0.36461 0.0
O298 O 0.62464 0.36638 0.35667 0.0
O299 O 0.58596 0.31376 0.23797 0.0
O300 O 0.60822 0.28995 0.29367 0.0
C301 C 0.52198 0.4243 0.29788 0.0
O302 O 0.60646 0.42161 0.30945 0.0
O303 O 0.6162 0.38281 0.2573 0.0
C304 C 0.6289 0.33062 0.36694 0.0
O305 O 0.53104 0.41167 0.33223 0.0
O306 O 0.54211 0.41369 0.26691 0.0
C307 C 0.5074 0.30828 0.2562 0.0
Fe308 Fe 0.46558 0.84713 0.26828 0.0
Fe309 Fe 0.45519 0.78727 0.19958 0.0
O310 O 0.45626 0.83703 0.21684 0.0
Fe311 Fe 0.44773 0.87667 0.18286 0.0
O312 O 0.49658 0.89642 0.19268 0.0
O313 O 0.49146 0.89638 0.25828 0.0
O314 O 0.51424 0.82406 0.26567 0.0
C315 C 0.51875 0.78731 0.25888 0.0
C316 C 0.40449 0.89897 0.25363 0.0
O317 O 0.49332 0.76882 0.23689 0.0
C318 C 0.38964 0.82479 0.15993 0.0
O319 O 0.44108 0.79954 0.2869 0.0
O320 O 0.4142 0.77644 0.23194 0.0
O321 O 0.42226 0.90878 0.22099 0.0
O322 O 0.41756 0.87056 0.27452 0.0
C323 C 0.49559 0.82157 0.13769 0.0
O324 O 0.41576 0.79681 0.16074 0.0
O325 O 0.3985 0.85943 0.17108 0.0
C326 C 0.41512 0.77733 0.26947 0.0
O327 O 0.4962 0.79576 0.16523 0.0
O328 O 0.47102 0.85083 0.13888 0.0
C329 C 0.50798 0.90933 0.22607 0.0
Fe330 Fe 0.07862 0.14904 0.67522 0.0
Fe331 Fe 0.06371 0.16163 0.76484 0.0
O332 O 0.06877 0.18157 0.71594 0.0
Fe333 Fe 0.06374 0.23371 0.70754 0.0
O334 O 0.02245 0.22625 0.67316 0.0
O335 O 0.05224 0.17968 0.63734 0.0
O336 O 0.03165 0.12284 0.68306 0.0
C337 C 0.02162 0.10594 0.71543 0.0
C338 C 0.13018 0.21027 0.65927 0.0
O339 O 0.0409 0.11336 0.74768 0.0
C340 C 0.10465 0.23685 0.77746 0.0
O341 O 0.1077 0.11265 0.70519 0.0
O342 O 0.11457 0.14156 0.76389 0.0
O343 O 0.10187 0.23495 0.66647 0.0
O344 O 0.12564 0.1734 0.66563 0.0
C345 C 1.00473 0.21701 0.76902 0.0
O346 O 0.08481 0.20697 0.7909 0.0
O347 O 0.10445 0.24487 0.74076 0.0
C348 C 0.12741 0.11769 0.73744 0.0
O349 O 0.01285 0.18034 0.76819 0.0
O350 O 0.026 0.24153 0.74858 0.0
C351 C 0.02503 0.20584 0.64149 0.0
Fe352 Fe 0.84007 0.94781 0.64476 0.0
Fe353 Fe 0.75192 0.96172 0.67075 0.0
O354 O 0.80381 0.95808 0.68297 0.0
Fe355 Fe 0.81906 0.96293 0.73362 0.0
O356 O 0.86818 0.98534 0.72255 0.0
O357 O 0.87003 0.99221 0.65688 0.0
O358 O 0.81432 0.97819 0.60678 0.0
C359 C 0.78866 1.00584 0.61088 0.0
C360 C 0.8624 0.89651 0.7071 0.0
O361 O 0.76236 1.00464 0.6383 0.0
C362 C 0.74801 0.91848 0.74049 0.0
O363 O 0.81421 0.90193 0.62975 0.0
O364 O 0.7535 0.92651 0.62855 0.0
O365 O 0.83895 0.91191 0.73269 0.0
O366 O 0.87194 0.9159 0.67602 0.0
C367 C 0.76058 0.02085 0.73182 0.0
O368 O 0.73866 0.91924 0.7036 0.0
O369 O 0.77405 0.94169 0.75454 0.0
C370 C 0.77765 0.89832 0.6212 0.0
O371 O 0.73981 0.99752 0.71042 0.0
O372 O 0.79752 0.01365 0.73836 0.0
C373 C 0.88346 1.00074 0.69137 0.0
Fe374 Fe 0.67838 0.07704 0.14394 0.0
Fe375 Fe 0.76618 0.06378 0.16573 0.0
O376 O 0.71568 0.06643 0.18023 0.0
Fe377 Fe 0.70132 0.05965 0.2305 0.0
O378 O 0.66992 0.01762 0.21687 0.0
O379 O 0.63682 0.05138 0.17194 0.0
O380 O 0.68789 0.03016 0.11909 0.0
C381 C 0.72205 0.0198 0.10653 0.0
C382 C 0.65717 0.12765 0.20366 0.0
O383 O 0.75372 0.03926 0.11662 0.0
C384 C 0.76922 0.10225 0.24298 0.0
O385 O 0.71195 0.10472 0.10863 0.0
O386 O 0.76425 0.11483 0.14596 0.0
O387 O 0.65973 0.0973 0.22709 0.0
O388 O 0.66873 0.12443 0.16786 0.0
C389 C 0.7653 1.00243 0.22076 0.0
O390 O 0.78637 0.08564 0.21314 0.0
O391 O 0.73196 0.10027 0.24743 0.0
C392 C 0.74239 0.12591 0.11718 0.0
O393 O 0.77188 0.0136 0.18517 0.0
O394 O 0.74133 0.02266 0.24245 0.0
C395 C 0.63847 0.02237 0.19685 0.0
Fe396 Fe 0.31632 0.55156 0.29073 0.0
Fe397 Fe 0.34268 0.57317 0.37656 0.0
O398 O 0.30407 0.56098 0.34175 0.0
Fe399 Fe 0.25314 0.55987 0.35734 0.0
O400 O 0.23895 0.5204 0.32247 0.0
O401 O 0.29468 0.50084 0.29247 0.0
O402 O 0.36563 0.53082 0.30051 0.0
C403 C 0.38228 0.51709 0.33145 0.0
C404 C 0.24621 0.59582 0.28306 0.0
O405 O 0.37055 0.52709 0.36613 0.0
C406 C 0.28369 0.62677 0.40093 0.0
O407 O 0.33655 0.60222 0.28613 0.0
O408 O 0.37272 0.60151 0.34062 0.0
O409 O 0.23908 0.59859 0.32038 0.0
O410 O 0.27034 0.57038 0.26994 0.0
C411 C 0.29247 0.51953 0.41893 0.0
O412 O 0.31913 0.62103 0.38909 0.0
O413 O 0.2575 0.59968 0.39577 0.0
C414 C 0.36318 0.61815 0.30802 0.0
O415 O 0.31922 0.54652 0.41888 0.0
O416 O 0.26408 0.52011 0.3937 0.0
C417 C 0.25811 0.49503 0.30186 0.0
Fe418 Fe 0.27168 0.46515 0.86242 0.0
Fe419 Fe 0.18352 0.44611 0.88218 0.0
O420 O 0.22158 0.45626 0.84601 0.0
Fe421 Fe 0.20987 0.45669 0.79394 0.0
O422 O 0.24685 0.41964 0.78283 0.0
O423 O 0.29669 0.44441 0.81742 0.0
O424 O 0.27469 0.41533 0.8854 0.0
C425 C 0.25026 0.40143 0.91103 0.0
C426 C 0.2645 0.52332 0.80394 0.0
O427 O 0.21735 0.41964 0.91752 0.0
C428 C 0.14207 0.49381 0.82302 0.0
O429 O 0.25664 0.4896 0.91009 0.0
O430 O 0.19103 0.49413 0.90607 0.0
O431 O 0.24511 0.49859 0.78209 0.0
O432 O 0.272 0.51459 0.84015 0.0
C433 C 0.16771 0.38858 0.82538 0.0
O434 O 0.14213 0.47026 0.85322 0.0
O435 O 0.17136 0.49424 0.79931 0.0
C436 C 0.22395 0.50673 0.91968 0.0
O437 O 0.17399 0.39731 0.86144 0.0
O438 O 0.1736 0.41414 0.79741 0.0
C439 C 0.28364 0.4227 0.78924 0.0
Fe440 Fe 0.64866 0.84413 0.94798 0.0
Fe441 Fe 0.66623 0.75601 0.9636 0.0
O442 O 0.68343 0.80557 0.95832 0.0
Fe443 Fe 0.73525 0.81636 0.96177 0.0
O444 O 0.72758 0.85084 1.00299 0.0
O445 O 0.67804 0.88368 0.97432 0.0
O446 O 0.62312 0.83589 0.99498 0.0
C447 C 0.60789 0.80287 1.00513 0.0
C448 C 0.70857 0.86185 0.89512 0.0
O449 O 0.61725 0.77069 0.98667 0.0
C450 C 0.74094 0.74632 0.92142 0.0
O451 O 0.61293 0.81182 0.91939 0.0
O452 O 0.64685 0.7563 0.91264 0.0
O453 O 0.73359 0.85738 0.92368 0.0
O454 O 0.67233 0.85344 0.90059 0.0
C455 C 0.72241 0.75408 0.02129 0.0
O456 O 0.71238 0.73198 0.94236 0.0
O457 O 0.74671 0.78349 0.9207 0.0
C458 C 0.62076 0.78027 0.89943 0.0
O459 O 0.68539 0.75378 0.01435 0.0
O460 O 0.74559 0.77561 0.99944 0.0
C461 C 0.70505 0.88118 1.0013 0.0
Fe462 Fe 0.14789 0.67977 0.07745 0.0
Fe463 Fe 0.16165 0.76883 0.06013 0.0
O464 O 0.18119 0.72012 0.06722 0.0
Fe465 Fe 0.23345 0.71153 0.06386 0.0
O466 O 0.22714 0.67528 0.02385 0.0
O467 O 0.17928 0.64083 0.05338 0.0
O468 O 0.12389 0.68596 0.02943 0.0
C469 C 0.1082 0.71805 0.01753 0.0
C470 C 0.20669 0.6668 0.13238 0.0
O471 O 0.11436 0.75083 0.03622 0.0
C472 C 0.23625 0.78284 0.10147 0.0
O473 O 0.1104 0.711 0.10426 0.0
O474 O 0.14027 0.76927 0.11046 0.0
O475 O 0.23293 0.67263 0.10477 0.0
O476 O 0.17006 0.67161 0.12553 0.0
C477 C 0.21831 0.7721 1.00253 0.0
O478 O 0.20647 0.79546 0.08124 0.0
O479 O 0.24414 0.74628 0.10302 0.0
C480 C 0.11601 0.74333 0.12366 0.0
O481 O 0.18152 0.77117 1.0099 0.0
O482 O 0.24232 0.75125 0.0242 0.0
C483 C 0.20603 0.64404 0.02645 0.0
Fe484 Fe 0.29261 0.32161 0.57052 0.0
Fe485 Fe 0.37992 0.34843 0.57985 0.0
O486 O 0.34439 0.31026 0.5715 0.0
Fe487 Fe 0.36052 0.26061 0.56262 0.0
O488 O 0.33849 0.26242 0.51303 0.0
O489 O 0.27936 0.28109 0.53324 0.0
O490 O 0.29868 0.35615 0.52872 0.0
C491 C 0.32166 0.38624 0.52924 0.0
C492 C 0.28798 0.25147 0.60993 0.0
O493 O 0.35032 0.38849 0.55444 0.0
C494 C 0.40869 0.2814 0.62578 0.0
O495 O 0.29658 0.36209 0.60904 0.0
O496 O 0.35976 0.35949 0.62788 0.0
O497 O 0.31442 0.23711 0.58614 0.0
O498 O 0.2836 0.28871 0.61211 0.0
C499 C 0.41816 0.30745 0.52068 0.0
O500 O 0.41483 0.31493 0.60799 0.0
O501 O 0.38412 0.25676 0.61105 0.0
C502 C 0.32397 0.3675 0.63524 0.0
O503 O 0.40246 0.3397 0.53175 0.0
O504 O 0.40887 0.27491 0.53832 0.0
C505 C 0.30123 0.26087 0.50908 0.0
Fe506 Fe 0.85648 0.26677 0.46419 0.0
Fe507 Fe 0.79118 0.20203 0.46532 0.0
O508 O 0.84203 0.21568 0.46056 0.0
Fe509 Fe 0.87861 0.17836 0.45197 0.0
O510 O 0.90288 0.19051 0.49914 0.0
O511 O 0.9058 0.25556 0.48767 0.0
O512 O 0.83773 0.27028 0.51463 0.0
C513 C 0.80118 0.26774 0.52239 0.0
C514 C 0.90372 0.24275 0.40163 0.0
O515 O 0.77947 0.24296 0.50287 0.0
C516 C 0.82035 0.15665 0.39895 0.0
O517 O 0.80811 0.2867 0.44284 0.0
O518 O 0.77755 0.23235 0.42373 0.0
O519 O 0.91152 0.21159 0.42227 0.0
O520 O 0.8772 0.26677 0.41387 0.0
C521 C 0.8236 0.13914 0.50489 0.0
O522 O 0.79447 0.16125 0.42697 0.0
O523 O 0.85659 0.16505 0.40462 0.0
C524 C 0.77905 0.26943 0.42507 0.0
O525 O 0.80109 0.1692 0.50721 0.0
O526 O 0.85153 0.13768 0.47898 0.0
C527 C 0.91556 0.22495 0.50843 0.0
C528 C 0.16928 0.42929 0.29994 0.0
C529 C 0.16027 0.42528 0.25837 0.0
C530 C 0.22281 0.46244 0.2431 0.0
C531 C 0.23299 0.46236 0.28452 0.0
N532 N 0.22119 0.43499 0.35021 0.0
N533 N 0.18366 0.43317 0.1896 0.0
C534 C 0.20813 0.44156 0.31194 0.0
C535 C 0.18851 0.44038 0.22963 0.0
N536 N 0.13984 0.42472 0.32819 0.0
N537 N 0.24443 0.48526 0.21671 0.0
H538 H 0.15896 0.41869 0.17751 0.0
H539 H 0.20598 0.43889 0.16842 0.0
H540 H 0.27078 0.50006 0.22459 0.0
H541 H 0.23492 0.49134 0.18753 0.0
H542 H 0.14443 0.43044 0.35861 0.0
H543 H 0.10969 0.42087 0.32079 0.0
H544 H 0.20552 0.41727 0.37076 0.0
H545 H 0.24972 0.44376 0.35959 0.0
C546 C 0.29503 0.56122 0.74405 0.0
C547 C 0.28686 0.5588 0.78581 0.0
C548 C 0.33895 0.61013 0.79658 0.0
C549 C 0.35534 0.60249 0.75757 0.0
N550 N 0.34659 0.56886 0.69341 0.0
N551 N 0.2928 0.59166 0.84977 0.0
C552 C 0.3323 0.5781 0.73075 0.0
C553 C 0.3064 0.58661 0.81141 0.0
N554 N 0.26699 0.54846 0.71713 0.0
N555 N 0.35218 0.64202 0.81837 0.0
H556 H 0.26437 0.58212 0.85869 0.0
H557 H 0.30944 0.60512 0.87252 0.0
H558 H 0.37262 0.66221 0.80706 0.0
H559 H 0.33937 0.65176 0.84512 0.0
H560 H 0.27005 0.55201 0.6862 0.0
H561 H 0.23813 0.54016 0.72595 0.0
H562 H 0.33121 0.55083 0.67311 0.0
H563 H 0.37582 0.57455 0.6841 0.0
C564 C 0.67666 0.05709 0.79677 0.0
C565 C 0.66768 0.09469 0.77874 0.0
C566 C 0.72882 0.08918 0.73745 0.0
C567 C 0.73736 0.05143 0.75498 0.0
N568 N 0.72748 1.00676 0.81068 0.0
N569 N 0.69391 0.15249 0.74393 0.0
C570 C 0.71389 0.03792 0.78789 0.0
C571 C 0.69637 0.11258 0.75257 0.0
N572 N 0.64893 0.03863 0.82076 0.0
N573 N 0.75123 0.10232 0.70578 0.0
H574 H 0.67304 0.171 0.75785 0.0
H575 H 0.71555 0.16797 0.72744 0.0
H576 H 0.77673 0.08707 0.69622 0.0
H577 H 0.74359 0.12716 0.68839 0.0
H578 H 0.65239 1.00965 0.83183 0.0
H579 H 0.62089 0.05091 0.82702 0.0
H580 H 0.71353 0.99717 0.837 0.0
H581 H 0.75551 0.99388 0.80567 0.0
C582 C 0.86197 0.94613 0.22921 0.0
C583 C 0.86613 0.9379 0.27077 0.0
C584 C 0.79776 0.96539 0.28106 0.0
C585 C 0.79392 0.9718 0.23877 0.0
N586 N 0.81532 0.94644 0.17429 0.0
N587 N 0.83476 0.93524 0.33625 0.0
C588 C 0.82381 0.95534 0.21336 0.0
C589 C 0.83322 0.94656 0.29687 0.0
N590 N 0.89476 0.94619 0.20459 0.0
N591 N 0.76738 0.97629 0.30624 0.0
H592 H 0.86037 0.92388 0.34975 0.0
H593 H 0.81004 0.93532 0.35536 0.0
H594 H 0.73803 0.98029 0.29637 0.0
H595 H 0.77106 0.98007 0.33705 0.0
H596 H 0.8932 0.95477 0.17449 0.0
H597 H 0.92391 0.94263 0.21544 0.0
H598 H 0.83573 0.93202 0.15548 0.0
H599 H 0.78626 0.94802 0.16285 0.0
C600 C 0.29987 0.18681 0.48906 0.0
C601 C 0.28411 0.2267 0.48471 0.0
C602 C 0.23889 0.20109 0.43166 0.0
C603 C 0.25241 0.16133 0.43904 0.0
N604 N 0.28783 0.11571 0.48212 0.0
N605 N 0.23552 0.27052 0.45367 0.0
C606 C 0.28054 0.15415 0.46981 0.0
C607 C 0.25234 0.23331 0.45684 0.0
N608 N 0.33337 0.17904 0.51148 0.0
N609 N 0.21451 0.20835 0.39952 0.0
H610 H 0.24661 0.29559 0.46867 0.0
H611 H 0.2093 0.27621 0.4377 0.0
H612 H 0.20394 0.18556 0.38099 0.0
H613 H 0.207 0.23695 0.38949 0.0
H614 H 0.34939 0.15234 0.5089 0.0
H615 H 0.34665 0.19851 0.53166 0.0
H616 H 0.30407 0.10872 0.50793 0.0
H617 H 0.27398 0.09089 0.46928 0.0
C618 C 0.27525 0.82903 0.91841 0.0
C619 C 0.26491 0.86946 0.92725 0.0
C620 C 0.21933 0.84577 0.9801 0.0
C621 C 0.23323 0.80518 0.97494 0.0
N622 N 0.27637 0.75917 0.93962 0.0
N623 N 0.23299 0.91664 0.97122 0.0
C624 C 0.26207 0.79723 0.9444 0.0
C625 C 0.23854 0.87778 0.95928 0.0
N626 N 0.2961 0.8208 0.88407 0.0
N627 N 0.18835 0.85482 1.00548 0.0
H628 H 0.246 0.94109 0.9566 0.0
H629 H 0.21869 0.92451 0.99789 0.0
H630 H 0.17597 0.83571 0.02666 0.0
H631 H 0.17314 0.88208 1.00426 0.0
H632 H 0.30121 0.79193 0.87341 0.0
H633 H 0.30537 0.84313 0.8642 0.0
H634 H 0.30087 0.75223 0.92151 0.0
H635 H 0.26485 0.73455 0.95518 0.0
C636 C 0.78897 0.34222 0.53508 0.0
C637 C 0.78288 0.30111 0.54668 0.0
C638 C 0.7471 0.32491 0.60704 0.0
C639 C 0.75074 0.36518 0.59329 0.0
N640 N 0.76571 0.41076 0.53915 0.0
N641 N 0.75172 0.25369 0.59177 0.0
C642 C 0.76835 0.37323 0.55561 0.0
C643 C 0.76019 0.29259 0.58191 0.0
N644 N 0.81597 0.35278 0.50593 0.0
N645 N 0.73199 0.31764 0.64453 0.0
H646 H 0.76287 0.22932 0.5757 0.0
H647 H 0.73176 0.24554 0.61442 0.0
H648 H 0.72125 0.34038 0.66309 0.0
H649 H 0.73229 0.2896 0.65829 0.0
H650 H 0.82469 0.38236 0.50071 0.0
H651 H 0.83353 0.33313 0.48967 0.0
H652 H 0.77319 0.41691 0.50937 0.0
H653 H 0.75249 0.43501 0.55369 0.0
C654 C 0.78297 0.70047 0.10438 0.0
C655 C 0.77303 0.65972 0.0968 0.0
C656 C 0.72627 0.68102 0.04408 0.0
C657 C 0.7392 0.72188 0.04833 0.0
N658 N 0.78165 0.76992 0.08205 0.0
N659 N 0.74138 0.61091 0.0542 0.0
C660 C 0.7684 0.73132 0.07814 0.0
C661 C 0.74638 0.65006 0.06532 0.0
N662 N 0.80486 0.70985 0.13777 0.0
N663 N 0.69468 0.67079 0.01992 0.0
H664 H 0.75505 0.58713 0.06902 0.0
H665 H 0.7269 0.60225 0.02788 0.0
H666 H 0.68208 0.68891 0.99801 0.0
H667 H 0.67987 0.64334 0.02237 0.0
H668 H 0.80967 0.73901 0.14777 0.0
H669 H 0.81576 0.68814 0.15745 0.0
H670 H 0.80634 0.77796 0.09939 0.0
H671 H 0.76901 0.79399 0.06661 0.0
C672 C 0.46197 0.2885 0.15094 0.0
C673 C 0.43428 0.25735 0.15954 0.0
C674 C 0.45498 0.25858 0.23091 0.0
C675 C 0.48308 0.2896 0.22265 0.0
N676 N 0.5139 0.33382 0.17308 0.0
N677 N 0.41321 0.20514 0.20502 0.0
C678 C 0.48678 0.30434 0.18215 0.0
C679 C 0.4334 0.24017 0.19872 0.0
N680 N 0.46683 0.3008 0.11197 0.0
N681 N 0.44677 0.2483 0.26983 0.0
H682 H 0.39824 0.1903 0.18216 0.0
H683 H 0.41481 0.18868 0.23157 0.0
H684 H 0.46075 0.26165 0.29439 0.0
H685 H 0.42321 0.22944 0.27806 0.0
H686 H 0.48971 0.31943 0.10179 0.0
H687 H 0.4494 0.29018 0.08841 0.0
H688 H 0.51205 0.35222 0.14791 0.0
H689 H 0.53874 0.34058 0.19049 0.0
C690 C 0.92096 0.27486 0.82434 0.0
C691 C 0.93174 0.26748 0.86497 0.0
C692 C 0.98396 0.22102 0.84264 0.0
C693 C 0.97699 0.23194 0.80153 0.0
N694 N 0.93929 0.27098 0.75364 0.0
N695 N 0.98061 0.24275 0.91167 0.0
C696 C 0.94569 0.2596 0.79255 0.0
C697 C 0.96515 0.24313 0.87371 0.0
N698 N 0.88674 0.29587 0.81619 0.0
N699 N 1.0095 0.19062 0.85296 0.0
H700 H 0.96903 0.26045 0.93457 0.0
H701 H 1.00775 0.22914 0.91908 0.0
H702 H 0.02819 0.17534 0.83342 0.0
H703 H 1.01034 0.17853 0.88184 0.0
H704 H 0.87474 0.29905 0.78753 0.0
H705 H 0.86887 0.30826 0.8387 0.0
H706 H 0.92035 0.29436 0.7454 0.0
H707 H 0.95429 0.25797 0.72946 0.0
C708 C 0.58752 0.78158 0.29033 0.0
C709 C 0.54804 0.76606 0.28591 0.0
C710 C 0.55287 0.73702 0.35352 0.0
C711 C 0.59321 0.75051 0.35762 0.0
N712 N 0.65214 0.77432 0.3225 0.0
N713 N 0.50193 0.71447 0.3073 0.0
C714 C 0.61155 0.76959 0.32384 0.0
C715 C 0.53365 0.7389 0.31536 0.0
N716 N 0.60216 0.80789 0.26245 0.0
N717 N 0.53139 0.72512 0.38638 0.0
H718 H 0.48779 0.71353 0.27948 0.0
H719 H 0.49391 0.69114 0.32653 0.0
H720 H 0.54188 0.7281 0.41568 0.0
H721 H 0.50112 0.71758 0.38484 0.0
H722 H 0.62857 0.82414 0.26658 0.0
H723 H 0.58681 0.81462 0.23597 0.0
H724 H 0.66741 0.78473 0.29722 0.0
H725 H 0.67086 0.76327 0.34481 0.0
C726 C 0.11332 0.74562 0.69474 0.0
C727 C 0.09422 0.76077 0.6595 0.0
C728 C 0.0319 0.76496 0.69869 0.0
C729 C 0.04833 0.74093 0.72985 0.0
N730 N 0.10632 0.70736 0.75658 0.0
N731 N 0.03149 0.77875 0.62758 0.0
C732 C 0.08956 0.7307 0.72742 0.0
C733 C 0.0524 0.76878 0.66137 0.0
N734 N 0.15395 0.74832 0.69846 0.0
N735 N 0.99772 0.78606 0.70527 0.0
H736 H 0.04446 0.78007 0.59919 0.0
H737 H 1.00031 0.78128 0.62727 0.0
H738 H 0.98637 0.78902 0.73407 0.0
H739 H 0.98551 0.80589 0.68436 0.0
H740 H 0.16902 0.74115 0.72492 0.0
H741 H 0.1718 0.76259 0.67702 0.0
H742 H 0.1352 0.69564 0.75426 0.0
H743 H 0.09041 0.69821 0.78202 0.0
C744 C 0.85835 0.54986 0.77474 0.0
C745 C 0.8617 0.59112 0.76453 0.0
C746 C 0.79519 0.586 0.73205 0.0
C747 C 0.79081 0.54596 0.74623 0.0
N748 N 0.81307 0.49778 0.79589 0.0
N749 N 0.82599 0.6509 0.7435 0.0
C750 C 0.82048 0.53055 0.77256 0.0
C751 C 0.82802 0.61006 0.74596 0.0
N752 N 0.89165 0.52785 0.78361 0.0
N753 N 0.76787 0.60127 0.70565 0.0
H754 H 0.84734 0.66986 0.75617 0.0
H755 H 0.80067 0.66601 0.73316 0.0
H756 H 0.74206 0.58565 0.69725 0.0
H757 H 0.77205 0.62849 0.69076 0.0
H758 H 0.89052 0.49706 0.78907 0.0
H759 H 0.92056 0.53894 0.77936 0.0
H760 H 0.83321 0.48833 0.8179 0.0
H761 H 0.78522 0.48384 0.79748 0.0
C762 C 0.69632 0.44361 0.29493 0.0
C763 C 0.66469 0.43446 0.26731 0.0
C764 C 0.70989 0.45128 0.21179 0.0
C765 C 0.73823 0.46823 0.23862 0.0
N766 N 0.76303 0.47115 0.30644 0.0
N767 N 0.6397 0.44036 0.19942 0.0
C768 C 0.7329 0.46135 0.2805 0.0
C769 C 0.67109 0.44136 0.22576 0.0
N770 N 0.69221 0.43433 0.33466 0.0
N771 N 0.72048 0.44277 0.17316 0.0
H772 H 0.60999 0.4367 0.20863 0.0
H773 H 0.64275 0.44832 0.16927 0.0
H774 H 0.74999 0.44523 0.16317 0.0
H775 H 0.70148 0.4278 0.15332 0.0
H776 H 0.71569 0.43447 0.35519 0.0
H777 H 0.66534 0.42537 0.34748 0.0
H778 H 0.75923 0.47427 0.33729 0.0
H779 H 0.79255 0.47512 0.29685 0.0
C780 C 0.33472 0.90898 0.28377 0.0
C781 C 0.37271 0.92497 0.27176 0.0
C782 C 0.35202 0.98864 0.3014 0.0
C783 C 0.31092 0.97598 0.30134 0.0
N784 N 0.26366 0.92221 0.29133 0.0
N785 N 0.41725 0.98233 0.27054 0.0
C786 C 0.30233 0.93566 0.29167 0.0
C787 C 0.3811 0.96564 0.28049 0.0
N788 N 0.32995 0.86899 0.29114 0.0
N789 N 0.36403 0.02192 0.32207 0.0
H790 H 0.44146 0.966 0.25955 0.0
H791 H 0.4224 0.01316 0.27157 0.0
H792 H 0.34498 0.03965 0.33901 0.0
H793 H 0.39411 0.02955 0.32595 0.0
H794 H 0.30386 0.8572 0.30386 0.0
H795 H 0.35285 0.84806 0.28829 0.0
H796 H 0.25593 0.89365 0.28118 0.0
H797 H 0.23933 0.9405 0.29853 0.0
C798 C 0.20378 0.03158 0.73885 0.0
C799 C 0.23316 0.04651 0.76582 0.0
C800 C 0.19972 0.11208 0.76121 0.0
C801 C 0.16474 0.09353 0.74525 0.0
N802 N 0.13343 0.0325 0.7219 0.0
N803 N 0.2619 0.10405 0.79835 0.0
C804 C 0.16687 0.05248 0.73447 0.0
C805 C 0.23181 0.08776 0.77597 0.0
N806 N 0.21135 0.99876 0.71586 0.0
N807 N 0.20379 0.15269 0.75897 0.0
H808 H 0.28772 0.08797 0.80569 0.0
H809 H 0.26052 0.13292 0.8102 0.0
H810 H 0.18268 0.17062 0.74439 0.0
H811 H 0.23009 0.1677 0.76673 0.0
H812 H 0.19286 0.99106 0.69189 0.0
H813 H 0.23831 0.98317 0.7164 0.0
H814 H 0.13364 1.00224 0.71465 0.0
H815 H 0.10471 0.04466 0.72295 0.0
C816 C 0.74513 0.87197 0.55911 0.0
C817 C 0.7637 0.86376 0.59622 0.0
C818 C 0.75066 0.79158 0.5857 0.0
C819 C 0.72717 0.80073 0.55118 0.0
N820 N 0.69488 0.85345 0.51129 0.0
N821 N 0.78045 0.8159 0.64779 0.0
C822 C 0.72178 0.84199 0.54009 0.0
C823 C 0.76572 0.8235 0.6103 0.0
N824 N 0.75167 0.90802 0.54061 0.0
N825 N 0.75822 0.75248 0.59531 0.0
H826 H 0.79166 0.83843 0.6663 0.0
H827 H 0.77903 0.7879 0.66161 0.0
H828 H 0.74529 0.72849 0.57996 0.0
H829 H 0.77884 0.74389 0.61716 0.0
H830 H 0.74241 0.91422 0.51135 0.0
H831 H 0.77088 0.92968 0.55243 0.0
H832 H 0.68745 0.88341 0.50633 0.0
H833 H 0.67675 0.83432 0.49489 0.0
C834 C 0.73982 0.21592 0.04246 0.0
C835 C 0.77904 0.23259 0.0476 0.0
C836 C 0.79481 0.17623 0.09246 0.0
C837 C 0.75434 0.16242 0.09226 0.0
N838 N 0.68571 0.18012 0.07503 0.0
N839 N 0.83652 0.23523 0.0917 0.0
C840 C 0.72595 0.18549 0.06971 0.0
C841 C 0.80386 0.21507 0.07754 0.0
N842 N 0.71599 0.22708 1.01106 0.0
N843 N 0.82556 0.15171 0.10385 0.0
H844 H 0.84253 0.26479 0.08348 0.0
H845 H 0.85411 0.22426 0.11517 0.0
H846 H 0.82203 0.12103 0.10863 0.0
H847 H 0.85552 0.16065 0.1021 0.0
H848 H 0.68944 0.21203 1.00413 0.0
H849 H 0.72372 0.2486 0.98989 0.0
H850 H 0.66443 0.19877 0.0617 0.0
H851 H 0.67359 0.1609 0.0964 0.0
C852 C 0.22042 0.7163 0.43737 0.0
C853 C 0.24582 0.73345 0.46698 0.0
C854 C 0.29906 0.68596 0.44825 0.0
C855 C 0.27228 0.66577 0.42152 0.0
N856 N 0.21428 0.67426 0.37891 0.0
N857 N 0.31504 0.74915 0.48084 0.0
C858 C 0.23478 0.6845 0.41275 0.0
C859 C 0.28713 0.72313 0.46608 0.0
N860 N 0.18276 0.73137 0.43176 0.0
N861 N 0.33504 0.66915 0.4584 0.0
H862 H 0.30766 0.77811 0.48986 0.0
H863 H 0.34582 0.74442 0.47832 0.0
H864 H 0.34323 0.64007 0.45079 0.0
H865 H 0.35532 0.6824 0.47809 0.0
H866 H 0.16016 0.7163 0.41635 0.0
H867 H 0.17424 0.75927 0.44288 0.0
H868 H 0.18875 0.68894 0.3686 0.0
H869 H 0.22594 0.65467 0.35804 0.0
C870 C 0.25481 0.32196 0.995 0.0
C871 C 0.28007 0.2919 0.97852 0.0
C872 C 0.27748 0.32954 0.91475 0.0
C873 C 0.26049 0.36361 0.93436 0.0
N874 N 0.23926 0.39247 0.99758 0.0
N875 N 0.31682 0.26852 0.92098 0.0
C876 C 0.251 0.35991 0.97579 0.0
C877 C 0.29212 0.29634 0.9379 0.0
N878 N 0.23204 0.31345 0.02762 0.0
N879 N 0.27672 0.32724 0.87395 0.0
H880 H 0.32577 0.24268 0.93622 0.0
H881 H 0.32981 0.27234 0.89274 0.0
H882 H 0.26304 0.34913 0.8564 0.0
H883 H 0.28492 0.30153 0.85823 0.0
H884 H 0.21129 0.33334 0.0399 0.0
H885 H 0.22865 0.28396 0.03649 0.0
H886 H 0.2356 0.39146 0.02867 0.0
H887 H 0.23746 0.42121 0.98561 0.0
C888 C 0.56098 0.78344 0.79896 0.0
C889 C 0.55867 0.74182 0.79002 0.0
C890 C 0.59085 0.72699 0.85451 0.0
C891 C 0.59727 0.76845 0.86229 0.0
N892 N 0.59535 0.83613 0.83513 0.0
N893 N 0.5842 0.67584 0.80379 0.0
C894 C 0.58449 0.79677 0.83251 0.0
C895 C 0.57863 0.71452 0.81575 0.0
N896 N 0.5392 0.8103 0.77705 0.0
N897 N 0.59292 0.69943 0.88487 0.0
H898 H 0.57558 0.66607 0.77538 0.0
H899 H 0.60108 0.65529 0.82029 0.0
H900 H 0.59609 0.70743 0.91496 0.0
H901 H 0.58553 0.66931 0.88089 0.0
H902 H 0.5354 0.84008 0.7857 0.0
H903 H 0.52293 0.80234 0.75161 0.0
H904 H 0.5906 0.85664 0.81197 0.0
H905 H 0.61214 0.84773 0.85858 0.0
C906 C 0.03325 0.79801 0.18024 0.0
C907 C 0.03868 0.78438 0.22088 0.0
C908 C 0.09594 0.7435 0.19753 0.0
C909 C 0.0882 0.75497 0.15707 0.0
N910 N 0.0441 0.78624 0.10939 0.0
N911 N 0.07335 0.74053 0.26694 0.0
C912 C 0.05529 0.7801 0.14842 0.0
C913 C 0.06917 0.75563 0.229 0.0
N914 N 1.0078 0.82889 0.17123 0.0
N915 N 0.13007 0.72267 0.2062 0.0
H916 H 0.057 0.75092 0.29146 0.0
H917 H 0.0915 0.71609 0.27381 0.0
H918 H 0.15009 0.71366 0.18406 0.0
H919 H 0.14026 0.71711 0.23521 0.0
H920 H 1.00884 0.84431 0.14399 0.0
H921 H 0.98656 0.84077 0.1905 0.0
H922 H 0.01697 0.7994 0.1012 0.0
H923 H 0.06005 0.77494 0.08505 0.0
C924 C 0.48903 0.2786 0.70948 0.0
C925 C 0.47567 0.24639 0.73385 0.0
C926 C 0.41491 0.24209 0.69235 0.0
C927 C 0.43178 0.2695 0.66339 0.0
N928 N 0.49206 0.30455 0.64192 0.0
N929 N 0.42739 0.19451 0.74602 0.0
C930 C 0.47067 0.28563 0.67143 0.0
C931 C 0.43898 0.22745 0.72457 0.0
N932 N 0.51986 0.30217 0.72243 0.0
N933 N 0.37562 0.23056 0.69056 0.0
H934 H 0.44271 0.1852 0.77156 0.0
H935 H 0.40423 0.17544 0.73721 0.0
H936 H 0.35547 0.24014 0.66903 0.0
H937 H 0.36143 0.21468 0.71351 0.0
H938 H 0.52912 0.32796 0.70729 0.0
H939 H 0.53247 0.29856 0.75083 0.0
H940 H 0.52151 0.31425 0.64587 0.0
H941 H 0.48309 0.30538 0.61201 0.0
C942 C 0.9121 0.27795 0.3333 0.0
C943 C 0.92798 0.25266 0.36433 0.0
C944 C 0.98647 0.24078 0.32068 0.0
C945 C 0.97542 0.27336 0.29564 0.0
N946 N 0.92641 0.32343 0.27818 0.0
N947 N 0.98745 0.21787 0.38885 0.0
C948 C 0.93788 0.29218 0.30215 0.0
C949 C 0.96697 0.23591 0.35829 0.0
N950 N 0.87215 0.28676 0.3317 0.0
N951 N 0.0156 0.21437 0.30939 0.0
H952 H 0.97821 0.21757 0.41853 0.0
H953 H 0.01689 0.20816 0.38583 0.0
H954 H 0.03021 0.21526 0.28185 0.0
H955 H 0.02124 0.18809 0.32541 0.0
H956 H 0.85896 0.30181 0.30766 0.0
H957 H 0.85107 0.27496 0.3513 0.0
H958 H 0.90216 0.34193 0.28494 0.0
H959 H 0.94226 0.33185 0.25246 0.0
C960 C 0.11932 0.18299 0.33185 0.0
C961 C 0.14745 0.1629 0.30664 0.0
C962 C 0.16181 0.2266 0.27287 0.0
C963 C 0.13055 0.24537 0.29463 0.0
N964 N 0.093 0.24646 0.35614 0.0
N965 N 0.18892 0.16488 0.24694 0.0
C966 C 0.1132 0.22513 0.32767 0.0
C967 C 0.16713 0.1845 0.27552 0.0
N968 N 0.09689 0.16102 0.35836 0.0
N969 N 0.18668 0.24979 0.24995 0.0
H970 H 0.18952 0.13387 0.24452 0.0
H971 H 0.2017 0.17907 0.22215 0.0
H972 H 0.18379 0.28094 0.24936 0.0
H973 H 0.21239 0.23906 0.2358 0.0
H974 H 0.07483 0.17302 0.37677 0.0
H975 H 0.09774 0.12975 0.35926 0.0
H976 H 0.0832 0.23422 0.38318 0.0
H977 H 0.0912 0.27762 0.35547 0.0
C978 C 0.36314 0.82372 0.78736 0.0
C979 C 0.38486 0.85213 0.80991 0.0
C980 C 0.43149 0.79824 0.82929 0.0
C981 C 0.407 0.77021 0.80869 0.0
N982 N 0.34077 0.75503 0.78704 0.0
N983 N 0.43887 0.86559 0.85635 0.0
C984 C 0.36974 0.78264 0.79436 0.0
C985 C 0.4186 0.83901 0.83272 0.0
N986 N 0.33847 0.83525 0.7571 0.0
N987 N 0.46765 0.78593 0.8439 0.0
H988 H 0.43255 0.89623 0.85636 0.0
H989 H 0.46107 0.85709 0.87661 0.0
H990 H 0.47615 0.75581 0.84313 0.0
H991 H 0.48921 0.80531 0.85551 0.0
H992 H 0.32752 0.81423 0.73689 0.0
H993 H 0.33472 0.86496 0.74841 0.0
H994 H 0.3122 0.76288 0.7773 0.0
H995 H 0.34474 0.72512 0.79527 0.0
C996 C 0.64605 0.33434 0.75188 0.0
C997 C 0.63804 0.35057 0.71342 0.0
C998 C 0.61761 0.28227 0.69177 0.0
C999 C 0.63135 0.26672 0.72885 0.0
N1000 N 0.67036 0.2764 0.7882 0.0
N1001 N 0.6103 0.33943 0.64711 0.0
C1002 C 0.65105 0.29245 0.7559 0.0
C1003 C 0.62267 0.32416 0.68308 0.0
N1004 N 0.64359 0.35755 0.78543 0.0
N1005 N 0.59723 0.25746 0.66637 0.0
H1006 H 0.60481 0.3699 0.64279 0.0
H1007 H 0.60448 0.32188 0.62196 0.0
H1008 H 0.59485 0.22671 0.67179 0.0
H1009 H 0.58207 0.26708 0.64083 0.0
H1010 H 0.64459 0.34517 0.81422 0.0
H1011 H 0.63388 0.38719 0.78487 0.0
H1012 H 0.68527 0.29381 0.80933 0.0
H1013 H 0.67383 0.24542 0.79145 0.0
C1014 C 0.91409 0.69031 0.20405 0.0
C1015 C 0.88282 0.67212 0.2269 0.0
C1016 C 0.86095 0.73827 0.24905 0.0
C1017 C 0.89457 0.75608 0.23036 0.0
N1018 N 0.94365 0.75189 0.17802 0.0
N1019 N 0.83398 0.67854 0.27983 0.0
C1020 C 0.91858 0.73289 0.20423 0.0
C1021 C 0.85817 0.69602 0.25178 0.0
N1022 N 0.94032 0.6664 0.18358 0.0
N1023 N 0.83194 0.76251 0.26445 0.0
H1024 H 0.83496 0.64796 0.28586 0.0
H1025 H 0.81767 0.69484 0.3009 0.0
H1026 H 0.83311 0.79345 0.25986 0.0
H1027 H 0.80535 0.75195 0.27705 0.0
H1028 H 0.96571 0.67695 0.16874 0.0
H1029 H 0.93853 0.63516 0.18458 0.0
H1030 H 0.96115 0.73738 0.15667 0.0
H1031 H 0.9427 0.78287 0.17427 0.0
C1032 C 0.30832 0.09016 0.22276 0.0
C1033 C 0.30095 0.11802 0.25408 0.0
C1034 C 0.31125 0.17223 0.20495 0.0
C1035 C 0.31255 0.1435 0.17313 0.0
N1036 N 0.30167 0.07536 0.15226 0.0
N1037 N 0.29044 0.18647 0.27359 0.0
C1038 C 0.30774 0.10256 0.18219 0.0
C1039 C 0.30111 0.15947 0.24476 0.0
N1040 N 0.31677 0.05159 0.2321 0.0
N1041 N 0.31987 0.21155 0.19737 0.0
H1042 H 0.28485 0.1779 0.30326 0.0
H1043 H 0.28516 0.21668 0.2676 0.0
H1044 H 0.32749 0.22203 0.16892 0.0
H1045 H 0.32295 0.23299 0.21986 0.0
H1046 H 0.32544 0.03 0.21124 0.0
H1047 H 0.32082 0.04406 0.26177 0.0
H1048 H 0.29496 0.04529 0.15769 0.0
H1049 H 0.29809 0.08398 0.12247 0.0
C1050 C 0.19112 0.9088 0.73414 0.0
C1051 C 0.22248 0.89106 0.75604 0.0
C1052 C 0.2366 0.84552 0.70131 0.0
C1053 C 0.21203 0.86898 0.67546 0.0
N1054 N 0.16145 0.92058 0.66856 0.0
N1055 N 0.25213 0.82811 0.77049 0.0
C1056 C 0.18718 0.89944 0.6925 0.0
C1057 C 0.23752 0.85432 0.74282 0.0
N1058 N 0.16379 0.93183 0.75387 0.0
N1059 N 0.26083 0.81651 0.68613 0.0
H1060 H 0.25346 0.83556 0.80095 0.0
H1061 H 0.25747 0.79815 0.76385 0.0
H1062 H 0.27086 0.81771 0.65672 0.0
H1063 H 0.2755 0.79527 0.70352 0.0
H1064 H 0.13664 0.94049 0.74125 0.0
H1065 H 0.16571 0.93701 0.78468 0.0
H1066 H 0.14264 0.94308 0.67898 0.0
H1067 H 0.16075 0.91756 0.63741 0.0
C1068 C 0.76605 0.38457 0.80818 0.0
C1069 C 0.79089 0.39892 0.77697 0.0
C1070 C 0.84536 0.40261 0.82726 0.0
C1071 C 0.81682 0.39407 0.85851 0.0
N1072 N 0.74663 0.401 0.87534 0.0
N1073 N 0.85778 0.41642 0.75598 0.0
C1074 C 0.77602 0.39285 0.84809 0.0
C1075 C 0.83193 0.40635 0.78614 0.0
N1076 N 0.73277 0.36272 0.7997 0.0
N1077 N 0.88458 0.40901 0.8371 0.0
H1078 H 0.85011 0.41339 0.72582 0.0
H1079 H 0.88697 0.42643 0.76047 0.0
H1080 H 0.89364 0.41431 0.86658 0.0
H1081 H 0.90784 0.41059 0.81633 0.0
H1082 H 0.71273 0.35417 0.82188 0.0
H1083 H 0.72805 0.35044 0.77125 0.0
H1084 H 0.71639 0.40179 0.86726 0.0
H1085 H 0.75286 0.41289 0.9036 0.0
C1086 C 0.73336 0.6593 0.28336 0.0
C1087 C 0.72929 0.6178 0.27631 0.0
C1088 C 0.71447 0.6059 0.34747 0.0
C1089 C 0.72039 0.64729 0.3553 0.0
N1090 N 0.73204 0.71439 0.33079 0.0
N1091 N 0.70392 0.55397 0.29748 0.0
C1092 C 0.72857 0.67437 0.32309 0.0
C1093 C 0.71594 0.59184 0.30718 0.0
N1094 N 0.74232 0.68378 0.25156 0.0
N1095 N 0.70848 0.57997 0.37876 0.0
H1096 H 0.70303 0.54417 0.26779 0.0
H1097 H 0.69075 0.53412 0.31774 0.0
H1098 H 0.70765 0.58938 0.40861 0.0
H1099 H 0.70767 0.54893 0.37564 0.0
H1100 H 0.74717 0.71448 0.25333 0.0
H1101 H 0.74412 0.67284 0.22224 0.0
H1102 H 0.73694 0.73641 0.30926 0.0
H1103 H 0.72939 0.72601 0.35952 0.0
C1104 C 0.20622 0.26278 0.10518 0.0
C1105 C 0.2432 0.28073 0.11851 0.0
C1106 C 0.20432 0.32258 0.16421 0.0
C1107 C 0.16822 0.30872 0.14594 0.0
N1108 N 0.1378 0.27794 0.08829 0.0
N1109 N 0.27614 0.33192 0.1578 0.0
C1110 C 0.17003 0.28255 0.11321 0.0
C1111 C 0.24183 0.31257 0.14654 0.0
N1112 N 0.20452 0.22772 0.08393 0.0
N1113 N 0.20315 0.34236 0.20002 0.0
H1114 H 0.30452 0.3237 0.14761 0.0
H1115 H 0.27594 0.35796 0.17507 0.0
H1116 H 0.17668 0.34688 0.21588 0.0
H1117 H 0.22873 0.34991 0.21631 0.0
H1118 H 0.17747 0.21271 0.07902 0.0
H1119 H 0.2287 0.21207 0.07247 0.0
H1120 H 0.13917 0.26142 0.06175 0.0
H1121 H 0.11174 0.29496 0.09123 0.0
C1122 C 0.70955 0.27075 0.8966 0.0
C1123 C 0.74341 0.24466 0.90083 0.0
C1124 C 0.69735 0.18785 0.88857 0.0
C1125 C 0.66417 0.21499 0.8881 0.0
N1126 N 0.6388 0.27884 0.90901 0.0
N1127 N 0.76883 0.17698 0.89869 0.0
C1128 C 0.67048 0.25512 0.89854 0.0
C1129 C 0.73705 0.20265 0.89649 0.0
N1130 N 0.71409 0.31005 0.88638 0.0
N1131 N 0.69128 0.14819 0.88069 0.0
H1132 H 0.79848 0.18661 0.89639 0.0
H1133 H 0.76591 0.14609 0.9022 0.0
H1134 H 0.66321 0.13484 0.8826 0.0
H1135 H 0.71409 0.12824 0.87329 0.0
H1136 H 0.68997 0.32964 0.88316 0.0
H1137 H 0.74024 0.32042 0.87289 0.0
H1138 H 0.64247 0.30792 0.91991 0.0
H1139 H 0.60963 0.26759 0.91136 0.0
C1140 C 0.77897 0.81398 0.37352 0.0
C1141 C 0.77469 0.80223 0.41403 0.0
C1142 C 0.84802 0.80541 0.42305 0.0
C1143 C 0.85262 0.8162 0.38227 0.0
N1144 N 0.82197 0.84053 0.32105 0.0
N1145 N 0.80327 0.80333 0.47985 0.0
C1146 C 0.81788 0.82369 0.35824 0.0
C1147 C 0.80883 0.80272 0.43947 0.0
N1148 N 0.74585 0.81502 0.34958 0.0
N1149 N 0.88094 0.79853 0.44648 0.0
H1150 H 0.77473 0.80729 0.4912 0.0
H1151 H 0.82616 0.80656 0.50086 0.0
H1152 H 0.91022 0.80331 0.4366 0.0
H1153 H 0.87927 0.78586 0.47505 0.0
H1154 H 0.74692 0.81801 0.31846 0.0
H1155 H 0.71708 0.81196 0.36151 0.0
H1156 H 0.79793 0.8512 0.30422 0.0
H1157 H 0.84971 0.84563 0.30756 0.0
C1158 C 0.3235 0.71274 0.67619 0.0
C1159 C 0.35635 0.71475 0.64884 0.0
C1160 C 0.30776 0.70856 0.59367 0.0
C1161 C 0.27592 0.71658 0.62031 0.0
N1162 N 0.25231 0.71701 0.68814 0.0
N1163 N 0.3787 0.71546 0.57978 0.0
C1164 C 0.2836 0.71608 0.66192 0.0
C1165 C 0.34818 0.71238 0.60701 0.0
N1166 N 0.32901 0.70565 0.71594 0.0
N1167 N 0.29922 0.69534 0.55608 0.0
H1168 H 0.40854 0.71981 0.58817 0.0
H1169 H 0.3738 0.71744 0.54893 0.0
H1170 H 0.26979 0.69088 0.54645 0.0
H1171 H 0.32114 0.68335 0.53747 0.0
H1172 H 0.35697 0.70055 0.72893 0.0
H1173 H 0.35697 0.70055 0.72893 0.0
H1174 H 0.25625 0.71765 0.71925 0.0
H1175 H 0.22281 0.71536 0.67797 0.0
C1176 C 0.89945 0.85236 0.7553 0.0
C1177 C 0.88278 0.8576 0.71669 0.0
C1178 C 0.89033 0.78496 0.70391 0.0
C1179 C 0.90894 0.77987 0.74177 0.0
N1180 N 0.94151 0.81375 0.79852 0.0
N1181 N 0.87552 0.8304 0.64946 0.0
C1182 C 0.9161 0.81484 0.76624 0.0
C1183 C 0.88234 0.8245 0.68942 0.0
N1184 N 0.90078 0.88376 0.78168 0.0
N1185 N 0.87844 0.75221 0.6824 0.0
H1186 H 0.87235 0.85853 0.6366 0.0
H1187 H 0.87824 0.80768 0.6282 0.0
H1188 H 0.88281 0.72287 0.6923 0.0
H1189 H 0.86058 0.75426 0.65681 0.0
H1190 H 0.90456 0.87988 0.81252 0.0
H1191 H 0.89725 0.91362 0.77307 0.0
H1192 H 0.95196 0.83935 0.81304 0.0
H1193 H 0.95634 0.78871 0.80896 0.0
C1194 C 0.63649 0.17765 0.25794 0.0
C1195 C 0.63902 0.16687 0.21682 0.0
C1196 C 0.62016 0.23649 0.19952 0.0
C1197 C 0.6131 0.24512 0.24059 0.0
N1198 N 0.59355 0.21222 0.30343 0.0
N1199 N 0.61431 0.18405 0.15014 0.0
C1200 C 0.61466 0.21222 0.26826 0.0
C1201 C 0.6253 0.19565 0.18783 0.0
N1202 N 0.6553 0.15665 0.28767 0.0
N1203 N 0.62261 0.26634 0.17159 0.0
H1204 H 0.61135 0.15403 0.14199 0.0
H1205 H 0.60219 0.20401 0.12928 0.0
H1206 H 0.62061 0.29663 0.17876 0.0
H1207 H 0.63072 0.26074 0.14186 0.0
H1208 H 0.6551 0.16644 0.31743 0.0
H1209 H 0.67514 0.13328 0.28277 0.0
H1210 H 0.59318 0.18749 0.3227 0.0
H1211 H 0.57166 0.23335 0.31014 0.0
C1212 C 0.3651 0.72253 0.26446 0.0
C1213 C 0.39275 0.74326 0.28913 0.0
C1214 C 0.40318 0.68134 0.32738 0.0
C1215 C 0.37935 0.65953 0.2987 0.0
N1216 N 0.3526 0.66011 0.23109 0.0
N1217 N 0.42291 0.74667 0.3541 0.0
C1218 C 0.36422 0.68032 0.26478 0.0
C1219 C 0.40708 0.72402 0.32394 0.0
N1220 N 0.34034 0.74378 0.2399 0.0
N1221 N 0.42553 0.66116 0.35518 0.0
H1222 H 0.42317 0.77791 0.35278 0.0
H1223 H 0.43042 0.73532 0.38221 0.0
H1224 H 0.43256 0.63094 0.35216 0.0
H1225 H 0.44276 0.67494 0.37719 0.0
H1226 H 0.31891 0.73073 0.22126 0.0
H1227 H 0.33877 0.77482 0.24232 0.0
H1228 H 0.34341 0.67455 0.20488 0.0
H1229 H 0.35858 0.62974 0.22685 0.0
C1230 C 0.1632 0.27686 0.79935 0.0
C1231 C 0.12204 0.26877 0.8037 0.0
C1232 C 0.1123 0.33704 0.83008 0.0
C1233 C 0.1516 0.34754 0.81711 0.0
N1234 N 0.21569 0.3259 0.79125 0.0
N1235 N 0.05754 0.28951 0.82733 0.0
C1236 C 0.17744 0.31692 0.80235 0.0
C1237 C 0.09675 0.29837 0.82074 0.0
N1238 N 0.18868 0.24545 0.7939 0.0
N1239 N 0.09017 0.36346 0.85225 0.0
H1240 H 0.04788 0.26007 0.82625 0.0
H1241 H 0.03544 0.31062 0.83364 0.0
H1242 H 0.10038 0.39189 0.86003 0.0
H1243 H 0.06303 0.35613 0.8659 0.0
H1244 H 0.2198 0.24797 0.79334 0.0
H1245 H 0.17799 0.21611 0.79541 0.0
H1246 H 0.23442 0.30611 0.77611 0.0
H1247 H 0.22811 0.35392 0.7958 0.0
C1248 C 0.6914 0.90315 0.83405 0.0
C1249 C 0.7196 0.87798 0.85448 0.0
C1250 C 0.75414 0.86626 0.79052 0.0
C1251 C 0.72818 0.89327 0.77102 0.0
N1252 N 0.66978 0.93452 0.77123 0.0
N1253 N 0.78483 0.846 0.8527 0.0
C1254 C 0.69547 0.91015 0.79188 0.0
C1255 C 0.75286 0.86218 0.83296 0.0
N1256 N 0.66233 0.92227 0.85576 0.0
N1257 N 0.78114 0.84546 0.76788 0.0
H1258 H 0.78657 0.8425 0.88359 0.0
H1259 H 0.81228 0.84124 0.83863 0.0
H1260 H 0.78188 0.84818 0.73665 0.0
H1261 H 0.79995 0.82341 0.77931 0.0
H1262 H 0.63856 0.93814 0.84339 0.0
H1263 H 0.66285 0.92354 0.88706 0.0
H1264 H 0.64558 0.94962 0.7837 0.0
H1265 H 0.67242 0.93872 0.74026 0.0
C1266 C 0.78258 0.15844 0.29056 0.0
C1267 C 0.79173 0.11904 0.2777 0.0
C1268 C 0.81778 0.10336 0.34515 0.0
C1269 C 0.80895 0.14299 0.35777 0.0
N1270 N 0.79816 0.21147 0.33701 0.0
N1271 N 0.8289 0.05811 0.28929 0.0
C1272 C 0.79563 0.17152 0.32893 0.0
C1273 C 0.81284 0.09276 0.3039 0.0
N1274 N 0.76123 0.1835 0.26609 0.0
N1275 N 0.83046 0.07569 0.37264 0.0
H1276 H 0.8275 0.05035 0.2591 0.0
H1277 H 0.84757 0.03944 0.30597 0.0
H1278 H 0.8359 0.08286 0.40261 0.0
H1279 H 0.83288 0.04519 0.36644 0.0
H1280 H 0.74905 0.21052 0.27593 0.0
H1281 H 0.75406 0.17622 0.23647 0.0
H1282 H 0.79178 0.23382 0.31608 0.0
H1283 H 0.81214 0.22199 0.36273 0.0
C1284 C 0.20368 0.61003 0.18174 0.0
C1285 C 0.2166 0.64966 0.17261 0.0
C1286 C 0.23758 0.65857 0.24308 0.0
C1287 C 0.22509 0.61896 0.25165 0.0
N1288 N 0.18588 0.56156 0.23341 0.0
N1289 N 0.23327 0.71537 0.19807 0.0
C1290 C 0.20449 0.59637 0.22221 0.0
C1291 C 0.22986 0.67512 0.20434 0.0
N1292 N 0.19146 0.58512 0.15158 0.0
N1293 N 0.25802 0.67981 0.27153 0.0
H1294 H 0.22617 0.72866 0.17079 0.0
H1295 H 0.23866 0.73588 0.22094 0.0
H1296 H 0.26386 0.66845 0.30011 0.0
H1297 H 0.2705 0.70795 0.26658 0.0
H1298 H 0.18585 0.55465 0.15562 0.0
H1299 H 0.18976 0.5942 0.12168 0.0
H1300 H 0.16753 0.54483 0.21448 0.0
H1301 H 0.18588 0.55162 0.26317 0.0
C1302 C 0.31333 0.36784 0.74889 0.0
C1303 C 0.30971 0.40915 0.7561 0.0
C1304 C 0.31616 0.42344 0.68444 0.0
C1305 C 0.31567 0.38179 0.67641 0.0
N1306 N 0.32891 0.31522 0.70178 0.0
N1307 N 0.32895 0.47447 0.73436 0.0
C1308 C 0.31877 0.35411 0.70895 0.0
C1309 C 0.31745 0.43657 0.72491 0.0
N1310 N 0.31212 0.34213 0.78067 0.0
N1311 N 0.3156 0.45049 0.65364 0.0
H1312 H 0.33201 0.48379 0.76408 0.0
H1313 H 0.34133 0.49369 0.71312 0.0
H1314 H 0.31655 0.44193 0.62357 0.0
H1315 H 0.31167 0.48115 0.65814 0.0
H1316 H 0.3097 0.31111 0.77812 0.0
H1317 H 0.3138 0.35299 0.80994 0.0
H1318 H 0.33664 0.29506 0.72435 0.0
H1319 H 0.33212 0.30383 0.67291 0.0
C1320 C 0.83268 0.73469 0.86204 0.0
C1321 C 0.85546 0.70634 0.88407 0.0
C1322 C 0.79593 0.69313 0.92624 0.0
C1323 C 0.77359 0.72129 0.9031 0.0
N1324 N 0.76645 0.75443 0.83965 0.0
N1325 N 0.85739 0.65457 0.93462 0.0
C1326 C 0.79061 0.73653 0.86742 0.0
C1327 C 0.83649 0.68405 0.91526 0.0
N1328 N 0.85144 0.76213 0.8383 0.0
N1329 N 0.77873 0.67555 0.95892 0.0
H1330 H 0.88798 0.64987 0.93005 0.0
H1331 H 0.84433 0.63401 0.95424 0.0
H1332 H 0.74793 0.67578 0.96325 0.0
H1333 H 0.79465 0.66005 0.98088 0.0
H1334 H 0.83649 0.7817 0.81929 0.0
H1335 H 0.88129 0.76978 0.84299 0.0
H1336 H 0.77657 0.76296 0.81129 0.0
H1337 H 0.73542 0.7563 0.84365 0.0
C1338 C 0.30142 0.81594 0.088 0.0
C1339 C 0.26924 0.80944 0.11495 0.0
C1340 C 0.31463 0.82374 0.17027 0.0
C1341 C 0.34826 0.81897 0.14414 0.0
N1342 N 0.37307 0.81635 0.07619 0.0
N1343 N 0.24385 0.81083 0.18207 0.0
C1344 C 0.34151 0.81646 0.1023 0.0
C1345 C 0.2754 0.81492 0.15624 0.0
N1346 N 0.29287 0.82481 0.0492 0.0
N1347 N 0.31979 0.83824 0.208 0.0
H1348 H 0.21452 0.80671 0.17182 0.0
H1349 H 0.24705 0.8099 0.21318 0.0
H1350 H 0.34801 0.84317 0.22025 0.0
H1351 H 0.29586 0.84748 0.22579 0.0
H1352 H 0.31417 0.83221 0.02752 0.0
H1353 H 0.2634 0.83097 0.04156 0.0
H1354 H 0.37007 0.81001 0.04572 0.0
H1355 H 0.40246 0.82146 0.0854 0.0
C1356 C 0.22843 0.20486 0.60104 0.0
C1357 C 0.25342 0.22782 0.62674 0.0
C1358 C 0.19531 0.24609 0.66753 0.0
C1359 C 0.16981 0.22302 0.6428 0.0
N1360 N 0.16134 0.17985 0.58555 0.0
N1361 N 0.26237 0.2523 0.69352 0.0
C1362 C 0.1863 0.20205 0.60934 0.0
C1363 C 0.23722 0.24245 0.66301 0.0
N1364 N 0.24527 0.18515 0.5695 0.0
N1365 N 0.17989 0.27283 0.69428 0.0
H1366 H 0.29284 0.24612 0.69141 0.0
H1367 H 0.25238 0.26062 0.72196 0.0
H1368 H 0.14958 0.28004 0.69499 0.0
H1369 H 0.19784 0.29223 0.71097 0.0
H1370 H 0.22928 0.17136 0.54657 0.0
H1371 H 0.2761 0.18071 0.56796 0.0
H1372 H 0.17085 0.16128 0.56241 0.0
H1373 H 0.13021 0.18034 0.58896 0.0
C1374 C 0.66895 0.30005 0.42164 0.0
C1375 C 0.66779 0.31878 0.38392 0.0
C1376 C 0.74128 0.31679 0.38062 0.0
C1377 C 0.74153 0.29053 0.41405 0.0
N1378 N 0.70089 0.24868 0.45946 0.0
N1379 N 0.70273 0.33979 0.32365 0.0
C1380 C 0.70422 0.27987 0.43298 0.0
C1381 C 0.70396 0.32627 0.36239 0.0
N1382 N 0.63648 0.30127 0.44671 0.0
N1383 N 0.7764 0.33155 0.36546 0.0
H1384 H 0.67601 0.34479 0.30825 0.0
H1385 H 0.72808 0.34214 0.30549 0.0
H1386 H 0.80427 0.32469 0.37781 0.0
H1387 H 0.77744 0.35353 0.34319 0.0
H1388 H 0.63762 0.29112 0.47634 0.0
H1389 H 0.61009 0.31646 0.43953 0.0
H1390 H 0.67335 0.23887 0.47066 0.0
H1391 H 0.72343 0.22852 0.46598 0.0
C1392 C 1.00364 0.27832 0.08223 0.0
C1393 C 0.99538 0.31031 0.10935 0.0
C1394 C 0.93078 0.32049 0.07631 0.0
C1395 C 0.94212 0.2944 0.04457 0.0
N1396 N 0.98873 0.24557 0.01887 0.0
N1397 N 0.95106 0.3629 0.1314 0.0
C1398 C 0.97824 0.27212 0.04811 0.0
C1399 C 0.95895 0.33166 0.10612 0.0
N1400 N 0.03504 0.25312 0.08971 0.0
N1401 N 0.892 0.3331 0.07907 0.0
H1402 H 0.96956 0.37049 0.15535 0.0
H1403 H 0.92747 0.38291 0.12699 0.0
H1404 H 0.87012 0.32416 0.05862 0.0
H1405 H 0.88076 0.34784 0.10419 0.0
H1406 H 0.04039 0.22691 0.07367 0.0
H1407 H 0.05412 0.25664 0.11419 0.0
H1408 H 0.01726 0.23319 0.01621 0.0
H1409 H 0.96878 0.2361 0.99692 0.0
C1410 C 0.5787 0.73713 0.57103 0.0
C1411 C 0.57139 0.71648 0.5345 0.0
C1412 C 0.51529 0.68078 0.56771 0.0
C1413 C 0.52723 0.69674 0.60549 0.0
N1414 N 0.57624 0.73379 0.64355 0.0
N1415 N 0.53233 0.66769 0.49805 0.0
C1416 C 0.56062 0.72315 0.60719 0.0
C1417 C 0.53961 0.68788 0.53296 0.0
N1418 N 0.60194 0.77082 0.57133 0.0
N1419 N 0.47973 0.66061 0.5644 0.0
H1420 H 0.54624 0.67511 0.47096 0.0
H1421 H 0.51362 0.64271 0.4963 0.0
H1422 H 0.46094 0.65487 0.58873 0.0
H1423 H 0.46714 0.65243 0.53701 0.0
H1424 H 0.6059 0.78854 0.59676 0.0
H1425 H 0.6122 0.78436 0.54515 0.0
H1426 H 0.60291 0.74982 0.64661 0.0
H1427 H 0.56515 0.72251 0.67057 0.0
C1428 C 0.4849 0.19964 0.99351 0.0
C1429 C 0.44986 0.22336 0.98847 0.0
C1430 C 0.45961 0.22244 0.91546 0.0
C1431 C 0.49479 0.1989 0.92028 0.0
N1432 N 0.54531 0.17149 0.96434 0.0
N1433 N 0.41133 0.26722 0.94618 0.0
C1434 C 0.50869 0.18924 0.95948 0.0
C1435 C 0.43962 0.23794 0.94989 0.0
N1436 N 0.49508 0.18668 0.03112 0.0
N1437 N 0.44434 0.22871 0.87789 0.0
H1438 H 0.3977 0.28038 0.97097 0.0
H1439 H 0.40507 0.28181 0.91923 0.0
H1440 H 0.4577 0.21721 0.85207 0.0
H1441 H 0.41653 0.24187 0.8726 0.0
H1442 H 0.5166 0.16481 0.03675 0.0
H1443 H 0.48085 0.19725 0.05693 0.0
H1444 H 0.55946 0.16819 0.99199 0.0
H1445 H 0.56298 0.16205 0.9404 0.0
C1446 C 0.04544 0.77747 0.47941 0.0
C1447 C 0.08342 0.79705 0.48055 0.0
C1448 C 0.06546 0.83457 0.41938 0.0
C1449 C 0.02851 0.81374 0.41682 0.0
N1450 N 0.98712 0.75891 0.43969 0.0
N1451 N 0.1335 0.83419 0.44374 0.0
C1452 C 0.01973 0.78308 0.44535 0.0
C1453 C 0.09447 0.82262 0.44815 0.0
N1454 N 0.0329 0.75505 0.51139 0.0
N1455 N 0.07289 0.8664 0.39472 0.0
H1456 H 0.15596 0.8243 0.46301 0.0
H1457 H 0.14421 0.84925 0.41846 0.0
H1458 H 0.05293 0.87537 0.37261 0.0
H1459 H 0.09711 0.88581 0.39854 0.0
H1460 H 1.0037 0.74433 0.51445 0.0
H1461 H 0.0508 0.74932 0.5363 0.0
H1462 H 0.98138 0.73346 0.45694 0.0
H1463 H 0.96759 0.76235 0.41552 0.0
C1464 C 0.11495 0.9507 0.32055 0.0
C1465 C 0.11113 0.99308 0.31943 0.0
C1466 C 0.03954 0.98579 0.30208 0.0
C1467 C 0.04404 0.94355 0.30147 0.0
N1468 N 0.08798 0.88623 0.30117 0.0
N1469 N 0.07184 0.05083 0.29978 0.0
C1470 C 0.08246 0.92626 0.30764 0.0
C1471 C 0.07399 1.01064 0.30752 0.0
N1472 N 0.14871 0.93361 0.33635 0.0
N1473 N 1.00213 1.00218 0.29885 0.0
H1474 H 0.09627 0.07004 0.30246 0.0
H1475 H 0.04688 0.06455 0.287 0.0
H1476 H 0.97655 0.98507 0.29309 0.0
H1477 H 0.9961 0.03232 0.3043 0.0
H1478 H 0.15145 0.90304 0.34216 0.0
H1479 H 0.17265 0.95033 0.34741 0.0
H1480 H 0.11609 0.87265 0.30052 0.0
H1481 H 0.0646 0.86708 0.29354 0.0
C1482 C 0.48706 0.03738 0.78035 0.0
C1483 C 0.48496 0.07734 0.79477 0.0
C1484 C 0.41737 0.06406 0.82225 0.0
C1485 C 0.41902 0.02449 0.80668 0.0
N1486 N 0.45252 0.9745 0.76683 0.0
N1487 N 0.44796 0.13004 0.8274 0.0
C1488 C 0.45309 1.01145 0.78455 0.0
C1489 C 0.44995 0.09102 0.81508 0.0
N1490 N 0.52207 0.02393 0.76376 0.0
N1491 N 0.38487 0.07545 0.84464 0.0
H1492 H 0.47144 0.15024 0.82329 0.0
H1493 H 0.42254 0.14354 0.83934 0.0
H1494 H 0.35971 0.05728 0.84868 0.0
H1495 H 0.38301 0.10203 0.86079 0.0
H1496 H 0.52762 0.99406 0.75674 0.0
H1497 H 0.54684 0.04252 0.75899 0.0
H1498 H 0.47427 0.96448 0.74683 0.0
H1499 H 0.42868 0.9545 0.77009 0.0
C1500 C 0.60408 0.56597 0.69898 0.0
C1501 C 0.60102 0.52493 0.70996 0.0
C1502 C 0.53226 0.5362 0.73477 0.0
C1503 C 0.53629 0.57772 0.72622 0.0
N1504 N 0.57633 0.63318 0.70214 0.0
N1505 N 0.56454 0.47133 0.74219 0.0
C1506 C 0.57239 0.5929 0.70899 0.0
C1507 C 0.56565 0.51009 0.72877 0.0
N1508 N 0.63679 0.57881 0.67761 0.0
N1509 N 0.49625 0.52167 0.74813 0.0
H1510 H 0.5879 0.45115 0.73759 0.0
H1511 H 0.54177 0.45971 0.76017 0.0
H1512 H 0.47193 0.54014 0.75487 0.0
H1513 H 0.48951 0.49127 0.75039 0.0
H1514 H 0.63926 0.60706 0.66454 0.0
H1515 H 0.66081 0.56017 0.67038 0.0
H1516 H 0.60307 0.64706 0.69394 0.0
H1517 H 0.5533 0.65364 0.70718 0.0
C1518 C 0.96076 0.45242 0.25866 0.0
C1519 C 0.99117 0.44694 0.22941 0.0
C1520 C 0.95663 0.494 0.18479 0.0
C1521 C 0.92776 0.50226 0.21505 0.0
N1522 N 0.9141 0.50005 0.28672 0.0
N1523 N 0.02582 0.47698 0.17298 0.0
C1524 C 0.93328 0.48477 0.25391 0.0
C1525 C 0.99172 0.47264 0.1953 0.0
N1526 N 0.95671 0.42637 0.29005 0.0
N1527 N 0.95004 0.50374 0.1455 0.0
H1528 H 0.053 0.46397 0.18137 0.0
H1529 H 0.02807 0.49752 0.14942 0.0
H1530 H 0.92321 0.51552 0.13491 0.0
H1531 H 0.96951 0.49503 0.12258 0.0
H1532 H 0.93224 0.42722 0.30957 0.0
H1533 H 0.97564 0.402 0.29462 0.0
H1534 H 0.9195 0.48969 0.31578 0.0
H1535 H 0.89748 0.52649 0.28576 0.0
C1536 C 0.32473 0.06119 1.00835 0.0
C1537 C 0.32544 0.10206 0.99557 0.0
C1538 C 0.30229 0.08112 0.92876 0.0
C1539 C 0.30527 0.04037 0.94019 0.0
N1540 N 0.32398 0.99093 0.98953 0.0
N1541 N 0.32587 0.14874 0.94002 0.0
C1542 C 0.31784 0.03024 0.97963 0.0
C1543 C 0.31719 0.1114 0.95473 0.0
N1544 N 0.32917 0.05161 0.04797 0.0
N1545 N 0.28482 0.09105 0.89312 0.0
H1546 H 0.33955 0.17094 0.9573 0.0
H1547 H 0.32404 0.15608 0.90965 0.0
H1548 H 0.27279 0.06949 0.87406 0.0
H1549 H 0.27834 0.12048 0.88487 0.0
H1550 H 0.32309 0.02326 0.05965 0.0
H1551 H 0.33671 0.07229 0.0699 0.0
H1552 H 0.33841 0.98177 0.01571 0.0
H1553 H 0.3166 0.96735 0.97043 0.0
C1554 C 0.82236 0.46108 0.01497 0.0
C1555 C 0.82474 0.42159 0.0315 0.0
C1556 C 0.81947 0.44958 0.09944 0.0
C1557 C 0.8166 0.48869 0.08317 0.0
N1558 N 0.82089 0.53323 0.0265 0.0
N1559 N 0.81035 0.37893 0.08914 0.0
C1560 C 0.81926 0.49489 0.04112 0.0
C1561 C 0.81875 0.41595 0.07353 0.0
N1562 N 0.81984 0.46601 0.97425 0.0
N1563 N 0.82532 0.44434 0.13978 0.0
H1564 H 0.80942 0.35262 0.0726 0.0
H1565 H 0.80061 0.37474 0.11861 0.0
H1566 H 0.82593 0.46793 0.16026 0.0
H1567 H 0.8331 0.41683 0.15247 0.0
H1568 H 0.81418 0.49325 0.96013 0.0
H1569 H 0.81955 0.44219 0.95416 0.0
H1570 H 0.8275 0.54053 0.99685 0.0
H1571 H 0.81831 0.55841 0.04484 0.0
C1572 C 0.74304 0.59614 0.54204 0.0
C1573 C 0.70459 0.60279 0.52437 0.0
C1574 C 0.68395 0.5373 0.5506 0.0
C1575 C 0.718 0.53581 0.57623 0.0
N1576 N 0.77821 0.56935 0.5995 0.0
N1577 N 0.63496 0.58131 0.52137 0.0
C1578 C 0.74726 0.56668 0.57285 0.0
C1579 C 0.67401 0.57376 0.5311 0.0
N1580 N 0.77612 0.6161 0.52827 0.0
N1581 N 0.66138 0.50374 0.54411 0.0
H1582 H 0.62492 0.60894 0.51092 0.0
H1583 H 0.61174 0.56167 0.52885 0.0
H1584 H 0.66953 0.47564 0.55525 0.0
H1585 H 0.63788 0.50307 0.52346 0.0
H1586 H 0.80498 0.60986 0.53856 0.0
H1587 H 0.77567 0.63445 0.50292 0.0
H1588 H 0.79756 0.59394 0.60027 0.0
H1589 H 0.78247 0.54924 0.62298 0.0
C1590 C 0.22255 0.91056 0.46116 0.0
C1591 C 0.21452 0.91503 0.50307 0.0
C1592 C 0.2177 0.98885 0.49482 0.0
C1593 C 0.22586 0.98434 0.45321 0.0
N1594 N 0.23893 0.941 0.39706 0.0
N1595 N 0.21574 0.95829 0.56107 0.0
C1596 C 0.22941 0.94518 0.43671 0.0
C1597 C 0.21518 0.95419 0.52023 0.0
N1598 N 0.2215 0.87336 0.4439 0.0
N1599 N 0.21105 0.02633 0.50991 0.0
H1600 H 0.21613 0.9339 0.58068 0.0
H1601 H 0.22017 0.98556 0.57558 0.0
H1602 H 0.21397 0.05229 0.49261 0.0
H1603 H 0.20005 0.03159 0.53869 0.0
H1604 H 0.22085 0.8684 0.41309 0.0
H1605 H 0.21904 0.84671 0.45985 0.0
H1606 H 0.24917 0.91453 0.38415 0.0
H1607 H 0.23765 0.9647 0.37694 0.0
C1608 C 0.06928 0.69721 0.91291 0.0
C1609 C 0.02741 0.69471 0.91943 0.0
C1610 C 0.03794 0.70849 0.99121 0.0
C1611 C 0.0793 0.71518 0.98363 0.0
N1612 N 0.13241 0.72424 0.9352 0.0
N1613 N 0.9708 0.70535 0.96362 0.0
C1614 C 0.09434 0.71207 0.94384 0.0
C1615 C 1.01132 0.70231 0.95829 0.0
N1616 N 0.08545 0.68374 0.87765 0.0
N1617 N 0.0242 0.70683 0.02984 0.0
H1618 H 0.9502 0.70146 0.94048 0.0
H1619 H 0.95774 0.71518 0.99027 0.0
H1620 H 0.04265 0.71181 0.05459 0.0
H1621 H 0.99531 0.69755 0.03741 0.0
H1622 H 0.11622 0.68089 0.87295 0.0
H1623 H 0.06821 0.67134 0.85466 0.0
H1624 H 0.14345 0.72696 0.90603 0.0
H1625 H 0.15177 0.73494 0.95701 0.0
C1626 C 0.48539 0.28581 0.42906 0.0
C1627 C 0.49861 0.32559 0.42 0.0
C1628 C 0.47175 0.34645 0.48485 0.0
C1629 C 0.44975 0.31004 0.48867 0.0
N1630 N 0.43161 0.24661 0.45766 0.0
N1631 N 0.49359 0.39612 0.43726 0.0
C1632 C 0.45535 0.27996 0.45895 0.0
C1633 C 0.4888 0.35669 0.44731 0.0
N1634 N 0.50274 0.2533 0.41125 0.0
N1635 N 0.47746 0.37091 0.51718 0.0
H1636 H 0.5018 0.40565 0.40861 0.0
H1637 H 0.48403 0.41929 0.45596 0.0
H1638 H 0.46899 0.36262 0.54622 0.0
H1639 H 0.49539 0.39654 0.51576 0.0
H1640 H 0.49548 0.22395 0.41937 0.0
H1641 H 0.52813 0.2553 0.39311 0.0
H1642 H 0.43289 0.22622 0.43399 0.0
H1643 H 0.40812 0.24118 0.47748 0.0
C1644 C 0.59282 0.81606 0.07766 0.0
C1645 C 0.57906 0.8029 0.03954 0.0
C1646 C 0.51099 0.7969 0.06737 0.0
C1647 C 0.52376 0.81622 0.10322 0.0
N1648 N 0.57688 0.847 0.14148 0.0
N1649 N 0.52382 0.78463 0.99665 0.0
C1650 C 0.56473 0.82664 0.10802 0.0
C1651 C 0.53776 0.79425 0.03396 0.0
N1652 N 0.63299 0.81647 0.0855 0.0
N1653 N 0.47406 0.77927 0.06592 0.0
H1654 H 0.54257 0.78181 0.97172 0.0
H1655 H 0.49339 0.78235 0.9899 0.0
H1656 H 0.45489 0.77856 0.09063 0.0
H1657 H 0.46438 0.76171 0.04196 0.0
H1658 H 0.64493 0.82175 0.1139 0.0
H1659 H 0.65411 0.80695 0.06453 0.0
H1660 H 0.60538 0.85948 0.14449 0.0
H1661 H 0.55756 0.85407 0.16504 0.0
C1662 C 0.92863 0.22096 0.58253 0.0
C1663 C 0.94355 0.22834 0.54329 0.0
C1664 C 1.01224 0.22858 0.57026 0.0
C1665 C 0.99723 0.21451 0.60776 0.0
N1666 N 0.94114 0.1929 0.64832 0.0
N1667 N 0.99941 0.2422 0.49972 0.0
C1668 C 0.9554 0.2099 0.61369 0.0
C1669 C 0.98539 0.2333 0.53719 0.0
N1670 N 0.88887 0.22607 0.59051 0.0
N1671 N 0.05178 0.23897 0.56678 0.0
H1672 H 0.98037 0.25059 0.47644 0.0
H1673 H 0.02951 0.24067 0.49153 0.0
H1674 H 0.07207 0.23658 0.59044 0.0
H1675 H 0.06398 0.25296 0.54162 0.0
H1676 H 0.87696 0.22601 0.61946 0.0
H1677 H 0.86829 0.2335 0.56835 0.0
H1678 H 0.91124 0.18466 0.65227 0.0
H1679 H 0.95964 0.18355 0.67177 0.0
C1680 C 0.95704 0.01741 0.67912 0.0
C1681 C 0.91936 0.02755 0.6964 0.0
C1682 C 0.95256 0.08083 0.73534 0.0
C1683 C 0.98881 0.07489 0.7137 0.0
N1684 N 0.02541 0.03742 0.66374 0.0
N1685 N 0.88029 0.07476 0.7347 0.0
C1686 C 0.99087 0.04321 0.68507 0.0
C1687 C 0.91693 0.06087 0.7228 0.0
N1688 N 0.9612 0.98209 0.65878 0.0
N1689 N 0.95199 0.10476 0.76852 0.0
H1690 H 0.85351 0.0622 0.72475 0.0
H1691 H 0.87642 0.10145 0.75044 0.0
H1692 H 0.97774 0.11741 0.7806 0.0
H1693 H 0.92707 0.10748 0.78722 0.0
H1694 H 0.98876 0.97076 0.64948 0.0
H1695 H 0.93755 0.9622 0.65407 0.0
H1696 H 0.02721 0.0188 0.63873 0.0
H1697 H 0.05207 0.05249 0.67012 0.0
C1698 C 0.57141 0.99001 0.17849 0.0
C1699 C 0.60219 0.99715 0.20706 0.0
C1700 C 0.5699 0.94744 0.25183 0.0
C1701 C 0.5374 0.94353 0.22468 0.0
N1702 N 0.50083 0.97625 0.17106 0.0
N1703 N 0.61864 0.99391 0.27822 0.0
C1704 C 0.53603 0.96988 0.19097 0.0
C1705 C 0.59796 0.97928 0.24603 0.0
N1706 N 0.5762 0.99988 0.13897 0.0
N1707 N 0.57532 0.92051 0.28223 0.0
H1708 H 0.6351 0.02048 0.27712 0.0
H1709 H 0.61433 0.98306 0.3073 0.0
H1710 H 0.55634 0.89622 0.28727 0.0
H1711 H 0.60099 0.9205 0.30012 0.0
H1712 H 0.55503 0.99224 0.11722 0.0
H1713 H 0.603 1.01052 0.12694 0.0
H1714 H 0.49823 0.99719 0.14789 0.0
H1715 H 0.47355 0.96463 0.18122 0.0
C1716 C 0.49262 0.48819 0.3227 0.0
C1717 C 0.48945 0.45456 0.29677 0.0
C1718 C 0.41633 0.45881 0.29955 0.0
C1719 C 0.41912 0.49299 0.32483 0.0
N1720 N 0.46017 0.54452 0.35506 0.0
N1721 N 0.44946 0.41626 0.25081 0.0
C1722 C 0.45738 0.50893 0.33498 0.0
C1723 C 0.4516 0.44264 0.282 0.0
N1724 N 0.5296 0.49959 0.33624 0.0
N1725 N 0.37993 0.44095 0.29345 0.0
H1726 H 0.47501 0.4064 0.2358 0.0
H1727 H 0.42275 0.4084 0.23665 0.0
H1728 H 0.35373 0.45114 0.3071 0.0
H1729 H 0.37637 0.41381 0.27844 0.0
H1730 H 0.5341 0.51999 0.35943 0.0
H1731 H 0.55604 0.48732 0.32481 0.0
H1732 H 0.48688 0.5603 0.3587 0.0
H1733 H 0.43541 0.55961 0.36652 0.0
C1734 C 0.06629 0.50471 0.8176 0.0
C1735 C 0.10604 0.51966 0.81295 0.0
C1736 C 0.07694 0.58054 0.78212 0.0
C1737 C 0.03795 0.5692 0.79486 0.0
N1738 N 0.99649 0.52065 0.82942 0.0
N1739 N 0.14791 0.57693 0.79587 0.0
C1740 C 0.03297 0.53137 0.81416 0.0
C1741 C 0.11105 0.55893 0.79637 0.0
N1742 N 0.05991 0.46458 0.82243 0.0
N1743 N 0.08168 0.61174 0.75606 0.0
H1744 H 0.17375 0.56372 0.80725 0.0
H1745 H 0.15201 0.60695 0.7881 0.0
H1746 H 0.05738 0.62651 0.74335 0.0
H1747 H 0.10918 0.61911 0.74306 0.0
H1748 H 0.03139 0.45172 0.8229 0.0
H1749 H 0.08301 0.44378 0.82001 0.0
H1750 H 0.99238 0.4954 0.84747 0.0
H1751 H 0.97101 0.5384 0.82631 0.0
C1752 C 0.71315 0.91134 0.07088 0.0
C1753 C 0.71349 0.91631 0.02838 0.0
C1754 C 0.72737 0.98875 0.03745 0.0
C1755 C 0.72395 0.98397 0.0797 0.0
N1756 N 0.70784 0.94201 0.13656 0.0
N1757 N 0.73043 0.95778 0.97138 0.0
C1758 C 0.71561 0.94556 0.09634 0.0
C1759 C 0.72307 0.9546 1.01169 0.0
N1760 N 0.71168 0.87377 0.08731 0.0
N1761 N 0.73258 0.0264 0.02191 0.0
H1762 H 0.72898 0.93347 0.95185 0.0
H1763 H 0.74127 0.98353 0.95743 0.0
H1764 H 0.73711 0.0516 0.03987 0.0
H1765 H 0.7304 0.03337 0.99155 0.0
H1766 H 0.71682 0.8679 0.11759 0.0
H1767 H 0.70884 0.84773 0.07052 0.0
H1768 H 0.6955 0.91645 0.14968 0.0
H1769 H 0.71118 0.96558 0.1568 0.0
C1770 C 0.23885 0.54123 0.9863 0.0
C1771 C 0.22364 0.54296 0.94636 0.0
C1772 C 0.20348 0.61326 0.95749 0.0
C1773 C 0.21402 0.60983 0.99861 0.0
N1774 N 0.24213 0.57123 0.05279 0.0
N1775 N 0.19021 0.58056 0.89408 0.0
C1776 C 0.23187 0.57396 0.01315 0.0
C1777 C 0.20563 0.57902 0.93209 0.0
N1778 N 0.26041 0.5086 0.99853 0.0
N1779 N 0.19238 0.6497 0.94232 0.0
H1780 H 0.19522 0.55833 0.87278 0.0
H1781 H 0.17122 0.60318 0.88397 0.0
H1782 H 0.18991 0.67526 0.95999 0.0
H1783 H 0.18891 0.65559 0.91182 0.0
H1784 H 0.27592 0.50705 0.02558 0.0
H1785 H 0.26548 0.48377 0.98044 0.0
H1786 H 0.25002 0.54459 0.06703 0.0
H1787 H 0.24125 0.59571 0.07218 0.0
C1788 C 0.28974 0.45349 0.51362 0.0
C1789 C 0.3134 0.42032 0.50103 0.0
C1790 C 0.31743 0.4496 0.43315 0.0
C1791 C 0.2973 0.48462 0.44688 0.0
N1792 N 0.26818 0.52208 0.50122 0.0
N1793 N 0.35301 0.38824 0.44986 0.0
C1794 C 0.28462 0.48719 0.48748 0.0
C1795 C 0.32809 0.4188 0.46102 0.0
N1796 N 0.27078 0.45207 0.54997 0.0
N1797 N 0.32571 0.44543 0.39316 0.0
H1798 H 0.36009 0.36434 0.46879 0.0
H1799 H 0.36889 0.38779 0.42294 0.0
H1800 H 0.31857 0.46727 0.37194 0.0
H1801 H 0.33642 0.41909 0.38035 0.0
H1802 H 0.25 0.47332 0.55943 0.0
H1803 H 0.2731 0.42758 0.5693 0.0
H1804 H 0.26253 0.5277 0.53144 0.0
H1805 H 0.26257 0.54661 0.48255 0.0
C1806 C 0.79147 0.07181 0.51785 0.0
C1807 C 0.81522 0.10441 0.53177 0.0
C1808 C 0.81755 0.07417 0.59904 0.0
C1809 C 0.79312 0.0421 0.58531 0.0
N1810 N 0.74999 0.01413 0.53498 0.0
N1811 N 0.84744 0.13921 0.58606 0.0
C1812 C 0.77816 0.04196 0.54557 0.0
C1813 C 0.82717 0.10629 0.57258 0.0
N1814 N 0.78203 0.06917 0.47804 0.0
N1815 N 0.83248 0.07326 0.63721 0.0
H1816 H 0.85764 0.16146 0.56666 0.0
H1817 H 0.85264 0.14544 0.61621 0.0
H1818 H 0.82326 0.05213 0.65835 0.0
H1819 H 0.85482 0.09235 0.64773 0.0
H1820 H 0.76865 0.04418 0.465 0.0
H1821 H 0.79013 0.09106 0.45726 0.0
H1822 H 0.73509 0.01396 0.50754 0.0
H1823 H 0.7386 0.99328 0.55544 0.0
loop_
_geom_bond_atom_site_label_1
_geom_bond_atom_site_label_2
_geom_bond_distance
_geom_bond_site_symmetry_2
_ccdc_geom_bond_type
Fe0 O2 1.918 . S
Fe0 O5 1.997 . S
Fe0 O6 2.002 . S
Fe0 O11 1.976 . S
Fe0 O14 1.996 . S
Fe1 O2 1.918 . S
Fe1 O9 1.997 . S
Fe1 O12 1.996 . S
Fe1 O16 1.976 . S
Fe1 O19 1.990 1_455 S
O2 Fe0 1.918 . S
O2 Fe1 1.918 . S
O2 Fe3 1.918 . S
Fe3 O2 1.918 . S
Fe3 O4 2.002 . S
Fe3 O13 1.976 . S
Fe3 O17 1.996 . S
Fe3 O20 1.997 1_455 S
O4 Fe3 2.002 . S
O4 C21 1.295 1_455 S
O5 Fe0 1.997 . S
O5 C21 1.235 1_455 S
O6 Fe0 2.002 . S
O6 C7 1.295 . S
C7 O6 1.295 . S
C7 O9 1.235 . S
C8 O13 1.287 . S
C8 O14 1.255 . S
O9 Fe1 1.997 . S
O9 C7 1.235 . S
C10 O16 1.287 . S
C10 O17 1.255 . S
O11 Fe0 1.976 . S
O11 C18 1.287 . S
O12 Fe1 1.996 . S
O12 C18 1.255 . S
O13 Fe3 1.976 . S
O13 C8 1.287 . S
O14 Fe0 1.996 . S
O14 C8 1.255 . S
C15 O19 1.301 . S
C15 O20 1.235 . S
O16 Fe1 1.976 . S
O16 C10 1.287 . S
O17 Fe3 1.996 . S
O17 C10 1.255 . S
C18 O11 1.287 . S
C18 O12 1.255 . S
O19 Fe1 1.990 1_655 S
O19 C15 1.301 . S
O20 Fe3 1.997 1_655 S
O20 C15 1.235 . S
C21 O4 1.295 1_655 S
C21 O5 1.235 1_655 S
Fe22 O24 1.918 . S
Fe22 O27 1.997 . S
Fe22 O28 2.002 . S
Fe22 O33 1.976 . S
Fe22 O36 1.996 . S
Fe23 O24 1.918 . S
Fe23 O31 1.997 . S
Fe23 O34 1.996 . S
Fe23 O38 1.976 . S
Fe23 O41 2.002 . S
O24 Fe22 1.918 . S
O24 Fe23 1.918 . S
O24 Fe25 1.918 . S
Fe25 O24 1.918 . S
Fe25 O26 2.002 . S
Fe25 O35 1.976 . S
Fe25 O39 1.996 . S
Fe25 O42 1.997 . S
O26 Fe25 2.002 . S
O26 C43 1.295 . S
O27 Fe22 1.997 . S
O27 C43 1.235 . S
O28 Fe22 2.002 . S
O28 C29 1.295 . S
C29 O28 1.295 . S
C29 O31 1.235 . S
C30 O35 1.287 . S
C30 O36 1.255 . S
O31 Fe23 1.997 . S
O31 C29 1.235 . S
C32 O38 1.287 . S
C32 O39 1.255 . S
O33 Fe22 1.976 . S
O33 C40 1.287 . S
O34 Fe23 1.996 . S
O34 C40 1.255 . S
O35 Fe25 1.976 . S
O35 C30 1.287 . S
O36 Fe22 1.996 . S
O36 C30 1.255 . S
C37 O41 1.295 . S
C37 O42 1.235 . S
O38 Fe23 1.976 . S
O38 C32 1.287 . S
O39 Fe25 1.996 . S
O39 C32 1.255 . S
C40 O33 1.287 . S
C40 O34 1.255 . S
O41 Fe23 2.002 . S
O41 C37 1.295 . S
O42 Fe25 1.997 . S
O42 C37 1.235 . S
C43 O26 1.295 . S
C43 O27 1.235 . S
Fe44 O46 1.918 . S
Fe44 O49 1.997 . S
Fe44 O50 2.002 . S
Fe44 O55 1.976 . S
Fe44 O58 1.996 . S
Fe45 O46 1.918 . S
Fe45 O53 1.997 . S
Fe45 O56 1.996 . S
Fe45 O60 1.976 . S
Fe45 O63 2.002 . S
O46 Fe44 1.918 . S
O46 Fe45 1.918 . S
O46 Fe47 1.918 . S
Fe47 O46 1.918 . S
Fe47 O48 2.002 . S
Fe47 O57 1.976 . S
Fe47 O61 1.996 . S
Fe47 O64 1.997 . S
O48 Fe47 2.002 . S
O48 C65 1.295 . S
O49 Fe44 1.997 . S
O49 C65 1.235 . S
O50 Fe44 2.002 . S
O50 C51 1.295 . S
C51 O50 1.295 . S
C51 O53 1.235 . S
C52 O57 1.287 . S
C52 O58 1.255 . S
O53 Fe45 1.997 . S
O53 C51 1.235 . S
C54 O60 1.287 . S
C54 O61 1.255 . S
O55 Fe44 1.976 . S
O55 C62 1.287 . S
O56 Fe45 1.996 . S
O56 C62 1.255 . S
O57 Fe47 1.976 . S
O57 C52 1.287 . S
O58 Fe44 1.996 . S
O58 C52 1.255 . S
C59 O63 1.295 . S
C59 O64 1.235 . S
O60 Fe45 1.976 . S
O60 C54 1.287 . S
O61 Fe47 1.996 . S
O61 C54 1.255 . S
C62 O55 1.287 . S
C62 O56 1.255 . S
O63 Fe45 2.002 . S
O63 C59 1.295 . S
O64 Fe47 1.997 . S
O64 C59 1.235 . S
C65 O48 1.295 . S
C65 O49 1.235 . S
Fe66 O68 1.918 . S
Fe66 O71 1.997 . S
Fe66 O72 1.988 1_655 S
Fe66 O77 1.976 . S
Fe66 O80 1.996 . S
Fe67 O68 1.918 . S
Fe67 O75 1.997 1_655 S
Fe67 O78 1.996 . S
Fe67 O82 1.976 . S
Fe67 O85 2.002 . S
O68 Fe66 1.918 . S
O68 Fe67 1.918 . S
O68 Fe69 1.918 . S
Fe69 O68 1.918 . S
Fe69 O70 2.002 . S
Fe69 O79 1.976 . S
Fe69 O83 1.996 . S
Fe69 O86 1.997 . S
O70 Fe69 2.002 . S
O70 C87 1.295 . S
O71 Fe66 1.997 . S
O71 C87 1.235 . S
O72 Fe66 1.988 1_455 S
O72 C73 1.303 . S
C73 O72 1.303 . S
C73 O75 1.235 . S
C74 O79 1.287 . S
C74 O80 1.255 . S
O75 Fe67 1.997 1_455 S
O75 C73 1.235 . S
C76 O82 1.287 . S
C76 O83 1.255 . S
O77 Fe66 1.976 . S
O77 C84 1.287 . S
O78 Fe67 1.996 . S
O78 C84 1.255 . S
O79 Fe69 1.976 . S
O79 C74 1.287 . S
O80 Fe66 1.996 . S
O80 C74 1.255 . S
C81 O85 1.295 1_455 S
C81 O86 1.235 1_455 S
O82 Fe67 1.976 . S
O82 C76 1.287 . S
O83 Fe69 1.996 . S
O83 C76 1.255 . S
C84 O77 1.287 . S
C84 O78 1.255 . S
O85 Fe67 2.002 . S
O85 C81 1.295 1_655 S
O86 Fe69 1.997 . S
O86 C81 1.235 1_655 S
C87 O70 1.295 . S
C87 O71 1.235 . S
Fe88 O90 1.918 . S
Fe88 O93 1.997 1_545 S
Fe88 O94 2.002 . S
Fe88 O99 1.976 . S
Fe88 O102 1.996 . S
Fe89 O90 1.918 . S
Fe89 O97 1.997 . S
Fe89 O100 1.996 . S
Fe89 O104 1.976 . S
Fe89 O107 2.002 . S
O90 Fe88 1.918 . S
O90 Fe89 1.918 . S
O90 Fe91 1.918 . S
Fe91 O90 1.918 . S
Fe91 O92 2.002 1_545 S
Fe91 O101 1.976 . S
Fe91 O105 1.996 . S
Fe91 O108 1.997 . S
O92 Fe91 2.002 1_565 S
O92 C109 1.295 . S
O93 Fe88 1.997 1_565 S
O93 C109 1.235 . S
O94 Fe88 2.002 . S
O94 C95 1.295 1_545 S
C95 O94 1.295 1_565 S
C95 O97 1.235 1_565 S
C96 O101 1.287 . S
C96 O102 1.255 . S
O97 Fe89 1.997 . S
O97 C95 1.235 1_545 S
C98 O104 1.287 . S
C98 O105 1.255 . S
O99 Fe88 1.976 . S
O99 C106 1.287 . S
O100 Fe89 1.996 . S
O100 C106 1.255 . S
O101 Fe91 1.976 . S
O101 C96 1.287 . S
O102 Fe88 1.996 . S
O102 C96 1.255 . S
C103 O107 1.295 . S
C103 O108 1.235 . S
O104 Fe89 1.976 . S
O104 C98 1.287 . S
O105 Fe91 1.996 . S
O105 C98 1.255 . S
C106 O99 1.287 . S
C106 O100 1.255 . S
O107 Fe89 2.002 . S
O107 C103 1.295 . S
O108 Fe91 1.997 . S
O108 C103 1.235 . S
C109 O92 1.295 . S
C109 O93 1.235 . S
Fe110 O112 1.918 . S
Fe110 O115 1.997 . S
Fe110 O116 2.019 . S
Fe110 O121 1.976 . S
Fe110 O124 1.996 . S
Fe111 O112 1.918 . S
Fe111 O119 1.986 1_565 S
Fe111 O122 1.996 . S
Fe111 O126 1.976 . S
Fe111 O129 2.002 . S
O112 Fe110 1.918 . S
O112 Fe111 1.918 . S
O112 Fe113 1.918 . S
Fe113 O112 1.918 . S
Fe113 O114 2.002 . S
Fe113 O123 1.976 . S
Fe113 O127 1.996 . S
Fe113 O130 1.997 . S
O114 Fe113 2.002 . S
O114 C131 1.295 . S
O115 Fe110 1.997 . S
O115 C131 1.235 . S
O116 Fe110 2.019 . S
O116 C117 1.287 1_565 S
C117 O116 1.287 1_545 S
C117 O119 1.241 . S
C118 O123 1.287 . S
C118 O124 1.255 . S
O119 Fe111 1.986 1_545 S
O119 C117 1.241 . S
C120 O126 1.287 . S
C120 O127 1.255 . S
O121 Fe110 1.976 . S
O121 C128 1.287 . S
O122 Fe111 1.996 . S
O122 C128 1.255 . S
O123 Fe113 1.976 . S
O123 C118 1.287 . S
O124 Fe110 1.996 . S
O124 C118 1.255 . S
C125 O129 1.293 1_545 S
C125 O130 1.231 1_545 S
O126 Fe111 1.976 . S
O126 C120 1.287 . S
O127 Fe113 1.996 . S
O127 C120 1.255 . S
C128 O121 1.287 . S
C128 O122 1.255 . S
O129 Fe111 2.002 . S
O129 C125 1.293 1_565 S
O130 Fe113 1.997 . S
O130 C125 1.231 1_565 S
C131 O114 1.295 . S
C131 O115 1.235 . S
Fe132 O134 1.918 . S
Fe132 O137 1.997 . S
Fe132 O138 2.002 . S
Fe132 O143 1.976 . S
Fe132 O146 1.996 . S
Fe133 O134 1.918 . S
Fe133 O141 1.997 . S
Fe133 O144 1.996 . S
Fe133 O148 1.976 . S
Fe133 O151 2.002 . S
O134 Fe132 1.918 . S
O134 Fe133 1.918 . S
O134 Fe135 1.918 . S
Fe135 O134 1.918 . S
Fe135 O136 2.002 . S
Fe135 O145 1.976 . S
Fe135 O149 1.996 . S
Fe135 O152 1.997 . S
O136 Fe135 2.002 . S
O136 C153 1.295 . S
O137 Fe132 1.997 . S
O137 C153 1.235 . S
O138 Fe132 2.002 . S
O138 C139 1.295 . S
C139 O138 1.295 . S
C139 O141 1.235 . S
C140 O145 1.287 . S
C140 O146 1.255 . S
O141 Fe133 1.997 . S
O141 C139 1.235 . S
C142 O148 1.287 . S
C142 O149 1.255 . S
O143 Fe132 1.976 . S
O143 C150 1.287 . S
O144 Fe133 1.996 . S
O144 C150 1.255 . S
O145 Fe135 1.976 . S
O145 C140 1.287 . S
O146 Fe132 1.996 . S
O146 C140 1.255 . S
C147 O151 1.295 . S
C147 O152 1.235 . S
O148 Fe133 1.976 . S
O148 C142 1.287 . S
O149 Fe135 1.996 . S
O149 C142 1.255 . S
C150 O143 1.287 . S
C150 O144 1.255 . S
O151 Fe133 2.002 . S
O151 C147 1.295 . S
O152 Fe135 1.997 . S
O152 C147 1.235 . S
C153 O136 1.295 . S
C153 O137 1.235 . S
Fe154 O156 1.918 . S
Fe154 O159 1.997 . S
Fe154 O160 2.002 . S
Fe154 O165 1.976 . S
Fe154 O168 1.996 . S
Fe155 O156 1.918 . S
Fe155 O163 1.997 . S
Fe155 O166 1.996 . S
Fe155 O170 1.976 . S
Fe155 O173 2.002 . S
O156 Fe154 1.918 . S
O156 Fe155 1.918 . S
O156 Fe157 1.918 . S
Fe157 O156 1.918 . S
Fe157 O158 2.002 . S
Fe157 O167 1.976 . S
Fe157 O171 1.996 . S
Fe157 O174 1.997 . S
O158 Fe157 2.002 . S
O158 C175 1.295 . S
O159 Fe154 1.997 . S
O159 C175 1.235 . S
O160 Fe154 2.002 . S
O160 C161 1.295 . S
C161 O160 1.295 . S
C161 O163 1.235 . S
C162 O167 1.287 . S
C162 O168 1.255 . S
O163 Fe155 1.997 . S
O163 C161 1.235 . S
C164 O170 1.287 . S
C164 O171 1.255 . S
O165 Fe154 1.976 . S
O165 C172 1.287 . S
O166 Fe155 1.996 . S
O166 C172 1.255 . S
O167 Fe157 1.976 . S
O167 C162 1.287 . S
O168 Fe154 1.996 . S
O168 C162 1.255 . S
C169 O173 1.295 . S
C169 O174 1.235 . S
O170 Fe155 1.976 . S
O170 C164 1.287 . S
O171 Fe157 1.996 . S
O171 C164 1.255 . S
C172 O165 1.287 . S
C172 O166 1.255 . S
O173 Fe155 2.002 . S
O173 C169 1.295 . S
O174 Fe157 1.997 . S
O174 C169 1.235 . S
C175 O158 1.295 . S
C175 O159 1.235 . S
Fe176 O178 1.918 . S
Fe176 O181 1.997 1_554 S
Fe176 O182 2.002 . S
Fe176 O187 1.976 . S
Fe176 O190 1.996 . S
Fe177 O178 1.918 . S
Fe177 O185 1.997 . S
Fe177 O188 1.996 . S
Fe177 O192 1.976 . S
Fe177 O195 2.002 . S
O178 Fe176 1.918 . S
O178 Fe177 1.918 . S
O178 Fe179 1.918 . S
Fe179 O178 1.918 . S
Fe179 O180 2.002 1_554 S
Fe179 O189 1.976 . S
Fe179 O193 1.996 . S
Fe179 O196 1.997 . S
O180 Fe179 2.002 1_556 S
O180 C197 1.295 . S
O181 Fe176 1.997 1_556 S
O181 C197 1.235 . S
O182 Fe176 2.002 . S
O182 C183 1.295 1_554 S
C183 O182 1.295 1_556 S
C183 O185 1.235 1_556 S
C184 O189 1.287 . S
C184 O190 1.255 . S
O185 Fe177 1.997 . S
O185 C183 1.235 1_554 S
C186 O192 1.287 . S
C186 O193 1.255 . S
O187 Fe176 1.976 . S
O187 C194 1.287 . S
O188 Fe177 1.996 . S
O188 C194 1.255 . S
O189 Fe179 1.976 . S
O189 C184 1.287 . S
O190 Fe176 1.996 . S
O190 C184 1.255 . S
C191 O195 1.295 . S
C191 O196 1.235 . S
O192 Fe177 1.976 . S
O192 C186 1.287 . S
O193 Fe179 1.996 . S
O193 C186 1.255 . S
C194 O187 1.287 . S
C194 O188 1.255 . S
O195 Fe177 2.002 . S
O195 C191 1.295 . S
O196 Fe179 1.997 . S
O196 C191 1.235 . S
C197 O180 1.295 . S
C197 O181 1.235 . S
Fe198 O200 1.918 . S
Fe198 O203 1.997 . S
Fe198 O204 2.002 . S
Fe198 O209 1.976 . S
Fe198 O212 1.996 . S
Fe199 O200 1.918 . S
Fe199 O207 1.997 . S
Fe199 O210 1.996 . S
Fe199 O214 1.976 . S
Fe199 O217 2.002 1_556 S
O200 Fe198 1.918 . S
O200 Fe199 1.918 . S
O200 Fe201 1.918 . S
Fe201 O200 1.918 . S
Fe201 O202 2.002 . S
Fe201 O211 1.976 . S
Fe201 O215 1.996 . S
Fe201 O218 1.997 1_556 S
O202 Fe201 2.002 . S
O202 C219 1.295 1_556 S
O203 Fe198 1.997 . S
O203 C219 1.235 1_556 S
O204 Fe198 2.002 . S
O204 C205 1.295 . S
C205 O204 1.295 . S
C205 O207 1.235 . S
C206 O211 1.287 . S
C206 O212 1.255 . S
O207 Fe199 1.997 . S
O207 C205 1.235 . S
C208 O214 1.287 . S
C208 O215 1.255 . S
O209 Fe198 1.976 . S
O209 C216 1.287 . S
O210 Fe199 1.996 . S
O210 C216 1.255 . S
O211 Fe201 1.976 . S
O211 C206 1.287 . S
O212 Fe198 1.996 . S
O212 C206 1.255 . S
C213 O217 1.295 . S
C213 O218 1.235 . S
O214 Fe199 1.976 . S
O214 C208 1.287 . S
O215 Fe201 1.996 . S
O215 C208 1.255 . S
C216 O209 1.287 . S
C216 O210 1.255 . S
O217 Fe199 2.002 1_554 S
O217 C213 1.295 . S
O218 Fe201 1.997 1_554 S
O218 C213 1.235 . S
C219 O202 1.295 1_554 S
C219 O203 1.235 1_554 S
Fe220 O222 1.918 . S
Fe220 O225 1.997 . S
Fe220 O226 2.002 . S
Fe220 O231 1.976 . S
Fe220 O234 1.996 . S
Fe221 O222 1.918 . S
Fe221 O229 1.997 . S
Fe221 O232 1.996 . S
Fe221 O236 1.976 . S
Fe221 O239 2.002 . S
O222 Fe220 1.918 . S
O222 Fe221 1.918 . S
O222 Fe223 1.918 . S
Fe223 O222 1.918 . S
Fe223 O224 2.002 . S
Fe223 O233 1.976 . S
Fe223 O237 1.996 . S
Fe223 O240 1.997 . S
O224 Fe223 2.002 . S
O224 C241 1.295 . S
O225 Fe220 1.997 . S
O225 C241 1.235 . S
O226 Fe220 2.002 . S
O226 C227 1.295 . S
C227 O226 1.295 . S
C227 O229 1.235 . S
C228 O233 1.287 . S
C228 O234 1.255 . S
O229 Fe221 1.997 . S
O229 C227 1.235 . S
C230 O236 1.287 . S
C230 O237 1.255 . S
O231 Fe220 1.976 . S
O231 C238 1.287 . S
O232 Fe221 1.996 . S
O232 C238 1.255 . S
O233 Fe223 1.976 . S
O233 C228 1.287 . S
O234 Fe220 1.996 . S
O234 C228 1.255 . S
C235 O239 1.295 . S
C235 O240 1.235 . S
O236 Fe221 1.976 . S
O236 C230 1.287 . S
O237 Fe223 1.996 . S
O237 C230 1.255 . S
C238 O231 1.287 . S
C238 O232 1.255 . S
O239 Fe221 2.002 . S
O239 C235 1.295 . S
O240 Fe223 1.997 . S
O240 C235 1.235 . S
C241 O224 1.295 . S
C241 O225 1.235 . S
Fe242 O244 1.918 . S
Fe242 O247 1.997 . S
Fe242 O248 2.002 . S
Fe242 O253 1.976 . S
Fe242 O256 1.996 . S
Fe243 O244 1.918 . S
Fe243 O251 1.997 . S
Fe243 O254 1.996 . S
Fe243 O258 1.976 . S
Fe243 O261 2.002 . S
O244 Fe242 1.918 . S
O244 Fe243 1.918 . S
O244 Fe245 1.918 . S
Fe245 O244 1.918 . S
Fe245 O246 2.002 . S
Fe245 O255 1.976 . S
Fe245 O259 1.996 . S
Fe245 O262 1.997 . S
O246 Fe245 2.002 . S
O246 C263 1.295 . S
O247 Fe242 1.997 . S
O247 C263 1.235 . S
O248 Fe242 2.002 . S
O248 C249 1.295 . S
C249 O248 1.295 . S
C249 O251 1.235 . S
C250 O255 1.287 . S
C250 O256 1.255 . S
O251 Fe243 1.997 . S
O251 C249 1.235 . S
C252 O258 1.287 . S
C252 O259 1.255 . S
O253 Fe242 1.976 . S
O253 C260 1.287 . S
O254 Fe243 1.996 . S
O254 C260 1.255 . S
O255 Fe245 1.976 . S
O255 C250 1.287 . S
O256 Fe242 1.996 . S
O256 C250 1.255 . S
C257 O261 1.295 . S
C257 O262 1.235 . S
O258 Fe243 1.976 . S
O258 C252 1.287 . S
O259 Fe245 1.996 . S
O259 C252 1.255 . S
C260 O253 1.287 . S
C260 O254 1.255 . S
O261 Fe243 2.002 . S
O261 C257 1.295 . S
O262 Fe245 1.997 . S
O262 C257 1.235 . S
C263 O246 1.295 . S
C263 O247 1.235 . S
Fe264 O266 1.918 . S
Fe264 O269 1.997 . S
Fe264 O270 2.002 . S
Fe264 O275 1.976 . S
Fe264 O278 1.996 . S
Fe265 O266 1.918 . S
Fe265 O273 1.997 . S
Fe265 O276 1.996 . S
Fe265 O280 1.976 . S
Fe265 O283 2.005 1_655 S
O266 Fe264 1.918 . S
O266 Fe265 1.918 . S
O266 Fe267 1.918 . S
Fe267 O266 1.918 . S
Fe267 O268 2.002 . S
Fe267 O277 1.976 . S
Fe267 O281 1.996 . S
Fe267 O284 1.997 1_655 S
O268 Fe267 2.002 . S
O268 C285 1.289 1_655 S
O269 Fe264 1.997 . S
O269 C285 1.220 1_655 S
O270 Fe264 2.002 . S
O270 C271 1.295 . S
C271 O270 1.295 . S
C271 O273 1.235 . S
C272 O277 1.287 . S
C272 O278 1.255 . S
O273 Fe265 1.997 . S
O273 C271 1.235 . S
C274 O280 1.287 . S
C274 O281 1.255 . S
O275 Fe264 1.976 . S
O275 C282 1.287 . S
O276 Fe265 1.996 . S
O276 C282 1.255 . S
O277 Fe267 1.976 . S
O277 C272 1.287 . S
O278 Fe264 1.996 . S
O278 C272 1.255 . S
C279 O283 1.294 . S
C279 O284 1.235 . S
O280 Fe265 1.976 . S
O280 C274 1.287 . S
O281 Fe267 1.996 . S
O281 C274 1.255 . S
C282 O275 1.287 . S
C282 O276 1.255 . S
O283 Fe265 2.005 1_455 S
O283 C279 1.294 . S
O284 Fe267 1.997 1_455 S
O284 C279 1.235 . S
C285 O268 1.289 1_455 S
C285 O269 1.220 1_455 S
Fe286 O288 1.918 . S
Fe286 O291 1.997 . S
Fe286 O292 2.002 . S
Fe286 O297 1.976 . S
Fe286 O300 1.996 . S
Fe287 O288 1.918 . S
Fe287 O295 1.997 . S
Fe287 O298 1.996 . S
Fe287 O302 1.976 . S
Fe287 O305 2.002 . S
O288 Fe286 1.918 . S
O288 Fe287 1.918 . S
O288 Fe289 1.918 . S
Fe289 O288 1.918 . S
Fe289 O290 2.002 . S
Fe289 O299 1.976 . S
Fe289 O303 1.996 . S
Fe289 O306 1.997 . S
O290 Fe289 2.002 . S
O290 C307 1.295 . S
O291 Fe286 1.997 . S
O291 C307 1.235 . S
O292 Fe286 2.002 . S
O292 C293 1.295 . S
C293 O292 1.295 . S
C293 O295 1.235 . S
C294 O299 1.287 . S
C294 O300 1.255 . S
O295 Fe287 1.997 . S
O295 C293 1.235 . S
C296 O302 1.287 . S
C296 O303 1.255 . S
O297 Fe286 1.976 . S
O297 C304 1.287 . S
O298 Fe287 1.996 . S
O298 C304 1.255 . S
O299 Fe289 1.976 . S
O299 C294 1.287 . S
O300 Fe286 1.996 . S
O300 C294 1.255 . S
C301 O305 1.295 . S
C301 O306 1.235 . S
O302 Fe287 1.976 . S
O302 C296 1.287 . S
O303 Fe289 1.996 . S
O303 C296 1.255 . S
C304 O297 1.287 . S
C304 O298 1.255 . S
O305 Fe287 2.002 . S
O305 C301 1.295 . S
O306 Fe289 1.997 . S
O306 C301 1.235 . S
C307 O290 1.295 . S
C307 O291 1.235 . S
Fe308 O310 1.918 . S
Fe308 O313 1.997 . S
Fe308 O314 2.002 . S
Fe308 O319 1.976 . S
Fe308 O322 1.996 . S
Fe309 O310 1.918 . S
Fe309 O317 1.997 . S
Fe309 O320 1.996 . S
Fe309 O324 1.976 . S
Fe309 O327 2.002 . S
O310 Fe308 1.918 . S
O310 Fe309 1.918 . S
O310 Fe311 1.918 . S
Fe311 O310 1.918 . S
Fe311 O312 2.002 . S
Fe311 O321 1.976 . S
Fe311 O325 1.996 . S
Fe311 O328 1.997 . S
O312 Fe311 2.002 . S
O312 C329 1.295 . S
O313 Fe308 1.997 . S
O313 C329 1.235 . S
O314 Fe308 2.002 . S
O314 C315 1.295 . S
C315 O314 1.295 . S
C315 O317 1.235 . S
C316 O321 1.287 . S
C316 O322 1.255 . S
O317 Fe309 1.997 . S
O317 C315 1.235 . S
C318 O324 1.287 . S
C318 O325 1.255 . S
O319 Fe308 1.976 . S
O319 C326 1.287 . S
O320 Fe309 1.996 . S
O320 C326 1.255 . S
O321 Fe311 1.976 . S
O321 C316 1.287 . S
O322 Fe308 1.996 . S
O322 C316 1.255 . S
C323 O327 1.295 . S
C323 O328 1.235 . S
O324 Fe309 1.976 . S
O324 C318 1.287 . S
O325 Fe311 1.996 . S
O325 C318 1.255 . S
C326 O319 1.287 . S
C326 O320 1.255 . S
O327 Fe309 2.002 . S
O327 C323 1.295 . S
O328 Fe311 1.997 . S
O328 C323 1.235 . S
C329 O312 1.295 . S
C329 O313 1.235 . S
Fe330 O332 1.918 . S
Fe330 O335 1.997 . S
Fe330 O336 2.002 . S
Fe330 O341 1.976 . S
Fe330 O344 1.996 . S
Fe331 O332 1.918 . S
Fe331 O339 1.997 . S
Fe331 O342 1.996 . S
Fe331 O346 1.976 . S
Fe331 O349 2.000 . S
O332 Fe330 1.918 . S
O332 Fe331 1.918 . S
O332 Fe333 1.918 . S
Fe333 O332 1.918 . S
Fe333 O334 2.002 . S
Fe333 O343 1.976 . S
Fe333 O347 1.996 . S
Fe333 O350 1.997 1_455 S
O334 Fe333 2.002 . S
O334 C351 1.289 1_455 S
O335 Fe330 1.997 . S
O335 C351 1.220 1_455 S
O336 Fe330 2.002 . S
O336 C337 1.295 . S
C337 O336 1.295 . S
C337 O339 1.235 . S
C338 O343 1.287 . S
C338 O344 1.255 . S
O339 Fe331 1.997 . S
O339 C337 1.235 . S
C340 O346 1.287 . S
C340 O347 1.255 . S
O341 Fe330 1.976 . S
O341 C348 1.287 . S
O342 Fe331 1.996 . S
O342 C348 1.255 . S
O343 Fe333 1.976 . S
O343 C338 1.287 . S
O344 Fe330 1.996 . S
O344 C338 1.255 . S
C345 O349 1.296 1_655 S
C345 O350 1.235 . S
O346 Fe331 1.976 . S
O346 C340 1.287 . S
O347 Fe333 1.996 . S
O347 C340 1.255 . S
C348 O341 1.287 . S
C348 O342 1.255 . S
O349 Fe331 2.000 . S
O349 C345 1.296 1_455 S
O350 Fe333 1.997 1_655 S
O350 C345 1.235 . S
C351 O334 1.289 1_655 S
C351 O335 1.220 1_655 S
Fe352 O354 1.918 . S
Fe352 O357 1.997 . S
Fe352 O358 2.002 . S
Fe352 O363 1.976 . S
Fe352 O366 1.996 . S
Fe353 O354 1.918 . S
Fe353 O361 1.997 . S
Fe353 O364 1.996 . S
Fe353 O368 1.976 . S
Fe353 O371 2.004 . S
O354 Fe352 1.918 . S
O354 Fe353 1.918 . S
O354 Fe355 1.918 . S
Fe355 O354 1.918 . S
Fe355 O356 2.002 . S
Fe355 O365 1.976 . S
Fe355 O369 1.996 . S
Fe355 O372 1.974 1_565 S
O356 Fe355 2.002 . S
O356 C373 1.291 1_565 S
O357 Fe352 1.997 . S
O357 C373 1.225 1_565 S
O358 Fe352 2.002 . S
O358 C359 1.295 . S
C359 O358 1.295 . S
C359 O361 1.235 . S
C360 O365 1.287 . S
C360 O366 1.255 . S
O361 Fe353 1.997 . S
O361 C359 1.235 . S
C362 O368 1.287 . S
C362 O369 1.255 . S
O363 Fe352 1.976 . S
O363 C370 1.287 . S
O364 Fe353 1.996 . S
O364 C370 1.255 . S
O365 Fe355 1.976 . S
O365 C360 1.287 . S
O366 Fe352 1.996 . S
O366 C360 1.255 . S
C367 O371 1.294 1_545 S
C367 O372 1.248 . S
O368 Fe353 1.976 . S
O368 C362 1.287 . S
O369 Fe355 1.996 . S
O369 C362 1.255 . S
C370 O363 1.287 . S
C370 O364 1.255 . S
O371 Fe353 2.004 . S
O371 C367 1.294 1_565 S
O372 Fe355 1.974 1_545 S
O372 C367 1.248 . S
C373 O356 1.291 1_545 S
C373 O357 1.225 1_545 S
Fe374 O376 1.918 . S
Fe374 O379 1.997 . S
Fe374 O380 2.002 . S
Fe374 O385 1.976 . S
Fe374 O388 1.996 . S
Fe375 O376 1.918 . S
Fe375 O383 1.997 . S
Fe375 O386 1.996 . S
Fe375 O390 1.976 . S
Fe375 O393 2.002 1_545 S
O376 Fe374 1.918 . S
O376 Fe375 1.918 . S
O376 Fe377 1.918 . S
Fe377 O376 1.918 . S
Fe377 O378 2.002 . S
Fe377 O387 1.976 . S
Fe377 O391 1.996 . S
Fe377 O394 1.997 1_545 S
O378 Fe377 2.002 . S
O378 C395 1.295 1_545 S
O379 Fe374 1.997 . S
O379 C395 1.235 1_545 S
O380 Fe374 2.002 . S
O380 C381 1.295 . S
C381 O380 1.295 . S
C381 O383 1.235 . S
C382 O387 1.287 . S
C382 O388 1.255 . S
O383 Fe375 1.997 . S
O383 C381 1.235 . S
C384 O390 1.287 . S
C384 O391 1.255 . S
O385 Fe374 1.976 . S
O385 C392 1.287 . S
O386 Fe375 1.996 . S
O386 C392 1.255 . S
O387 Fe377 1.976 . S
O387 C382 1.287 . S
O388 Fe374 1.996 . S
O388 C382 1.255 . S
C389 O393 1.295 . S
C389 O394 1.235 . S
O390 Fe375 1.976 . S
O390 C384 1.287 . S
O391 Fe377 1.996 . S
O391 C384 1.255 . S
C392 O385 1.287 . S
C392 O386 1.255 . S
O393 Fe375 2.002 1_565 S
O393 C389 1.295 . S
O394 Fe377 1.997 1_565 S
O394 C389 1.235 . S
C395 O378 1.295 1_565 S
C395 O379 1.235 1_565 S
Fe396 O398 1.918 . S
Fe396 O401 1.997 . S
Fe396 O402 2.002 . S
Fe396 O407 1.976 . S
Fe396 O410 1.996 . S
Fe397 O398 1.918 . S
Fe397 O405 1.997 . S
Fe397 O408 1.996 . S
Fe397 O412 1.976 . S
Fe397 O415 2.002 . S
O398 Fe396 1.918 . S
O398 Fe397 1.918 . S
O398 Fe399 1.918 . S
Fe399 O398 1.918 . S
Fe399 O400 2.002 . S
Fe399 O409 1.976 . S
Fe399 O413 1.996 . S
Fe399 O416 1.997 . S
O400 Fe399 2.002 . S
O400 C417 1.295 . S
O401 Fe396 1.997 . S
O401 C417 1.235 . S
O402 Fe396 2.002 . S
O402 C403 1.295 . S
C403 O402 1.295 . S
C403 O405 1.235 . S
C404 O409 1.287 . S
C404 O410 1.255 . S
O405 Fe397 1.997 . S
O405 C403 1.235 . S
C406 O412 1.287 . S
C406 O413 1.255 . S
O407 Fe396 1.976 . S
O407 C414 1.287 . S
O408 Fe397 1.996 . S
O408 C414 1.255 . S
O409 Fe399 1.976 . S
O409 C404 1.287 . S
O410 Fe396 1.996 . S
O410 C404 1.255 . S
C411 O415 1.295 . S
C411 O416 1.235 . S
O412 Fe397 1.976 . S
O412 C406 1.287 . S
O413 Fe399 1.996 . S
O413 C406 1.255 . S
C414 O407 1.287 . S
C414 O408 1.255 . S
O415 Fe397 2.002 . S
O415 C411 1.295 . S
O416 Fe399 1.997 . S
O416 C411 1.235 . S
C417 O400 1.295 . S
C417 O401 1.235 . S
Fe418 O420 1.918 . S
Fe418 O423 1.997 . S
Fe418 O424 2.002 . S
Fe418 O429 1.976 . S
Fe418 O432 1.996 . S
Fe419 O420 1.918 . S
Fe419 O427 1.997 . S
Fe419 O430 1.996 . S
Fe419 O434 1.976 . S
Fe419 O437 2.002 . S
O420 Fe418 1.918 . S
O420 Fe419 1.918 . S
O420 Fe421 1.918 . S
Fe421 O420 1.918 . S
Fe421 O422 2.002 . S
Fe421 O431 1.976 . S
Fe421 O435 1.996 . S
Fe421 O438 1.997 . S
O422 Fe421 2.002 . S
O422 C439 1.295 . S
O423 Fe418 1.997 . S
O423 C439 1.235 . S
O424 Fe418 2.002 . S
O424 C425 1.295 . S
C425 O424 1.295 . S
C425 O427 1.235 . S
C426 O431 1.287 . S
C426 O432 1.255 . S
O427 Fe419 1.997 . S
O427 C425 1.235 . S
C428 O434 1.287 . S
C428 O435 1.255 . S
O429 Fe418 1.976 . S
O429 C436 1.287 . S
O430 Fe419 1.996 . S
O430 C436 1.255 . S
O431 Fe421 1.976 . S
O431 C426 1.287 . S
O432 Fe418 1.996 . S
O432 C426 1.255 . S
C433 O437 1.295 . S
C433 O438 1.235 . S
O434 Fe419 1.976 . S
O434 C428 1.287 . S
O435 Fe421 1.996 . S
O435 C428 1.255 . S
C436 O429 1.287 . S
C436 O430 1.255 . S
O437 Fe419 2.002 . S
O437 C433 1.295 . S
O438 Fe421 1.997 . S
O438 C433 1.235 . S
C439 O422 1.295 . S
C439 O423 1.235 . S
Fe440 O442 1.918 . S
Fe440 O445 1.997 . S
Fe440 O446 2.002 . S
Fe440 O451 1.976 . S
Fe440 O454 1.996 . S
Fe441 O442 1.918 . S
Fe441 O449 1.997 . S
Fe441 O452 1.996 . S
Fe441 O456 1.976 . S
Fe441 O459 2.002 1_556 S
O442 Fe440 1.918 . S
O442 Fe441 1.918 . S
O442 Fe443 1.918 . S
Fe443 O442 1.918 . S
Fe443 O444 2.002 . S
Fe443 O453 1.976 . S
Fe443 O457 1.996 . S
Fe443 O460 1.997 1_556 S
O444 Fe443 2.002 . S
O444 C461 1.295 1_556 S
O445 Fe440 1.997 . S
O445 C461 1.235 1_556 S
O446 Fe440 2.002 . S
O446 C447 1.295 . S
C447 O446 1.295 . S
C447 O449 1.235 . S
C448 O453 1.287 . S
C448 O454 1.255 . S
O449 Fe441 1.997 . S
O449 C447 1.235 . S
C450 O456 1.287 . S
C450 O457 1.255 . S
O451 Fe440 1.976 . S
O451 C458 1.287 . S
O452 Fe441 1.996 . S
O452 C458 1.255 . S
O453 Fe443 1.976 . S
O453 C448 1.287 . S
O454 Fe440 1.996 . S
O454 C448 1.255 . S
C455 O459 1.295 . S
C455 O460 1.235 . S
O456 Fe441 1.976 . S
O456 C450 1.287 . S
O457 Fe443 1.996 . S
O457 C450 1.255 . S
C458 O451 1.287 . S
C458 O452 1.255 . S
O459 Fe441 2.002 1_554 S
O459 C455 1.295 . S
O460 Fe443 1.997 1_554 S
O460 C455 1.235 . S
C461 O444 1.295 1_554 S
C461 O445 1.235 1_554 S
Fe462 O464 1.918 . S
Fe462 O467 1.997 . S
Fe462 O468 2.002 . S
Fe462 O473 1.976 . S
Fe462 O476 1.996 . S
Fe463 O464 1.918 . S
Fe463 O471 1.997 . S
Fe463 O474 1.996 . S
Fe463 O478 1.976 . S
Fe463 O481 2.013 . S
O464 Fe462 1.918 . S
O464 Fe463 1.918 . S
O464 Fe465 1.918 . S
Fe465 O464 1.918 . S
Fe465 O466 2.002 . S
Fe465 O475 1.976 . S
Fe465 O479 1.996 . S
Fe465 O482 1.982 1_554 S
O466 Fe465 2.002 . S
O466 C483 1.293 1_554 S
O467 Fe462 1.997 . S
O467 C483 1.230 1_554 S
O468 Fe462 2.002 . S
O468 C469 1.295 . S
C469 O468 1.295 . S
C469 O471 1.235 . S
C470 O475 1.287 . S
C470 O476 1.255 . S
O471 Fe463 1.997 . S
O471 C469 1.235 . S
C472 O478 1.287 . S
C472 O479 1.255 . S
O473 Fe462 1.976 . S
O473 C480 1.287 . S
O474 Fe463 1.996 . S
O474 C480 1.255 . S
O475 Fe465 1.976 . S
O475 C470 1.287 . S
O476 Fe462 1.996 . S
O476 C470 1.255 . S
C477 O481 1.290 1_556 S
C477 O482 1.243 . S
O478 Fe463 1.976 . S
O478 C472 1.287 . S
O479 Fe465 1.996 . S
O479 C472 1.255 . S
C480 O473 1.287 . S
C480 O474 1.255 . S
O481 Fe463 2.013 . S
O481 C477 1.290 1_554 S
O482 Fe465 1.982 1_556 S
O482 C477 1.243 . S
C483 O466 1.293 1_556 S
C483 O467 1.230 1_556 S
Fe484 O486 1.918 . S
Fe484 O489 1.997 . S
Fe484 O490 2.002 . S
Fe484 O495 1.976 . S
Fe484 O498 1.996 . S
Fe485 O486 1.918 . S
Fe485 O493 1.997 . S
Fe485 O496 1.996 . S
Fe485 O500 1.976 . S
Fe485 O503 2.002 . S
O486 Fe484 1.918 . S
O486 Fe485 1.918 . S
O486 Fe487 1.918 . S
Fe487 O486 1.918 . S
Fe487 O488 2.002 . S
Fe487 O497 1.976 . S
Fe487 O501 1.996 . S
Fe487 O504 1.997 . S
O488 Fe487 2.002 . S
O488 C505 1.295 . S
O489 Fe484 1.997 . S
O489 C505 1.235 . S
O490 Fe484 2.002 . S
O490 C491 1.295 . S
C491 O490 1.295 . S
C491 O493 1.235 . S
C492 O497 1.287 . S
C492 O498 1.255 . S
O493 Fe485 1.997 . S
O493 C491 1.235 . S
C494 O500 1.287 . S
C494 O501 1.255 . S
O495 Fe484 1.976 . S
O495 C502 1.287 . S
O496 Fe485 1.996 . S
O496 C502 1.255 . S
O497 Fe487 1.976 . S
O497 C492 1.287 . S
O498 Fe484 1.996 . S
O498 C492 1.255 . S
C499 O503 1.295 . S
C499 O504 1.235 . S
O500 Fe485 1.976 . S
O500 C494 1.287 . S
O501 Fe487 1.996 . S
O501 C494 1.255 . S
C502 O495 1.287 . S
C502 O496 1.255 . S
O503 Fe485 2.002 . S
O503 C499 1.295 . S
O504 Fe487 1.997 . S
O504 C499 1.235 . S
C505 O488 1.295 . S
C505 O489 1.235 . S
Fe506 O508 1.918 . S
Fe506 O511 1.997 . S
Fe506 O512 2.002 . S
Fe506 O517 1.976 . S
Fe506 O520 1.996 . S
Fe507 O508 1.918 . S
Fe507 O515 1.997 . S
Fe507 O518 1.996 . S
Fe507 O522 1.976 . S
Fe507 O525 2.002 . S
O508 Fe506 1.918 . S
O508 Fe507 1.918 . S
O508 Fe509 1.918 . S
Fe509 O508 1.918 . S
Fe509 O510 2.002 . S
Fe509 O519 1.976 . S
Fe509 O523 1.996 . S
Fe509 O526 1.997 . S
O510 Fe509 2.002 . S
O510 C527 1.295 . S
O511 Fe506 1.997 . S
O511 C527 1.235 . S
O512 Fe506 2.002 . S
O512 C513 1.295 . S
C513 O512 1.295 . S
C513 O515 1.235 . S
C514 O519 1.287 . S
C514 O520 1.255 . S
O515 Fe507 1.997 . S
O515 C513 1.235 . S
C516 O522 1.287 . S
C516 O523 1.255 . S
O517 Fe506 1.976 . S
O517 C524 1.287 . S
O518 Fe507 1.996 . S
O518 C524 1.255 . S
O519 Fe509 1.976 . S
O519 C514 1.287 . S
O520 Fe506 1.996 . S
O520 C514 1.255 . S
C521 O525 1.295 . S
C521 O526 1.235 . S
O522 Fe507 1.976 . S
O522 C516 1.287 . S
O523 Fe509 1.996 . S
O523 C516 1.255 . S
C524 O517 1.287 . S
C524 O518 1.255 . S
O525 Fe507 2.002 . S
O525 C521 1.295 . S
O526 Fe509 1.997 . S
O526 C521 1.235 . S
C527 O510 1.295 . S
C527 O511 1.235 . S
C528 C529 1.363 . S
C528 C534 1.379 . S
C528 N536 1.356 . S
C529 C528 1.363 . S
C529 C535 1.363 . S
C530 C531 1.363 . S
C530 C535 1.379 . S
C530 N537 1.356 . S
C531 C530 1.363 . S
C531 C534 1.363 . S
N532 C534 1.356 . S
N532 H544 0.984 . S
N532 H545 0.985 . S
N533 C535 1.356 . S
N533 H538 0.984 . S
N533 H539 0.985 . S
C534 C528 1.379 . S
C534 C531 1.363 . S
C534 N532 1.356 . S
C535 C529 1.363 . S
C535 C530 1.379 . S
C535 N533 1.356 . S
N536 C528 1.356 . S
N536 H542 0.984 . S
N536 H543 0.984 . S
N537 C530 1.356 . S
N537 H540 0.984 . S
N537 H541 0.985 . S
H538 N533 0.984 . S
H539 N533 0.985 . S
H540 N537 0.984 . S
H541 N537 0.985 . S
H542 N536 0.984 . S
H543 N536 0.984 . S
H544 N532 0.984 . S
H545 N532 0.985 . S
C546 C547 1.363 . S
C546 C552 1.379 . S
C546 N554 1.356 . S
C547 C546 1.363 . S
C547 C553 1.363 . S
C548 C549 1.363 . S
C548 C553 1.379 . S
C548 N555 1.356 . S
C549 C548 1.363 . S
C549 C552 1.363 . S
N550 C552 1.356 . S
N550 H562 0.984 . S
N550 H563 0.985 . S
N551 C553 1.356 . S
N551 H556 0.984 . S
N551 H557 0.985 . S
C552 C546 1.379 . S
C552 C549 1.363 . S
C552 N550 1.356 . S
C553 C547 1.363 . S
C553 C548 1.379 . S
C553 N551 1.356 . S
N554 C546 1.356 . S
N554 H560 0.984 . S
N554 H561 0.984 . S
N555 C548 1.356 . S
N555 H558 0.984 . S
N555 H559 0.985 . S
H556 N551 0.984 . S
H557 N551 0.985 . S
H558 N555 0.984 . S
H559 N555 0.985 . S
H560 N554 0.984 . S
H561 N554 0.984 . S
H562 N550 0.984 . S
H563 N550 0.985 . S
C564 C565 1.363 . S
C564 C570 1.379 . S
C564 N572 1.356 . S
C565 C564 1.363 . S
C565 C571 1.363 . S
C566 C567 1.363 . S
C566 C571 1.379 . S
C566 N573 1.356 . S
C567 C566 1.363 . S
C567 C570 1.363 . S
N568 C570 1.356 . S
N568 H580 0.984 . S
N568 H581 0.985 . S
N569 C571 1.356 . S
N569 H574 0.984 . S
N569 H575 0.985 . S
C570 C564 1.379 . S
C570 C567 1.363 . S
C570 N568 1.356 . S
C571 C565 1.363 . S
C571 C566 1.379 . S
C571 N569 1.356 . S
N572 C564 1.356 . S
N572 H578 0.984 . S
N572 H579 0.984 . S
N573 C566 1.356 . S
N573 H576 0.984 . S
N573 H577 0.985 . S
H574 N569 0.984 . S
H575 N569 0.985 . S
H576 N573 0.984 . S
H577 N573 0.985 . S
H578 N572 0.984 . S
H579 N572 0.984 . S
H580 N568 0.984 . S
H581 N568 0.985 . S
C582 C583 1.363 . S
C582 C588 1.379 . S
C582 N590 1.356 . S
C583 C582 1.363 . S
C583 C589 1.363 . S
C584 C585 1.363 . S
C584 C589 1.379 . S
C584 N591 1.356 . S
C585 C584 1.363 . S
C585 C588 1.363 . S
N586 C588 1.356 . S
N586 H598 0.984 . S
N586 H599 0.985 . S
N587 C589 1.356 . S
N587 H592 0.984 . S
N587 H593 0.985 . S
C588 C582 1.379 . S
C588 C585 1.363 . S
C588 N586 1.356 . S
C589 C583 1.363 . S
C589 C584 1.379 . S
C589 N587 1.356 . S
N590 C582 1.356 . S
N590 H596 0.984 . S
N590 H597 0.984 . S
N591 C584 1.356 . S
N591 H594 0.984 . S
N591 H595 0.985 . S
H592 N587 0.984 . S
H593 N587 0.985 . S
H594 N591 0.984 . S
H595 N591 0.985 . S
H596 N590 0.984 . S
H597 N590 0.984 . S
H598 N586 0.984 . S
H599 N586 0.985 . S
C600 C601 1.363 . S
C600 C606 1.379 . S
C600 N608 1.356 . S
C601 C600 1.363 . S
C601 C607 1.363 . S
C602 C603 1.363 . S
C602 C607 1.379 . S
C602 N609 1.356 . S
C603 C602 1.363 . S
C603 C606 1.363 . S
N604 C606 1.356 . S
N604 H616 0.984 . S
N604 H617 0.985 . S
N605 C607 1.356 . S
N605 H610 0.984 . S
N605 H611 0.985 . S
C606 C600 1.379 . S
C606 C603 1.363 . S
C606 N604 1.356 . S
C607 C601 1.363 . S
C607 C602 1.379 . S
C607 N605 1.356 . S
N608 C600 1.356 . S
N608 H614 0.984 . S
N608 H615 0.984 . S
N609 C602 1.356 . S
N609 H612 0.984 . S
N609 H613 0.985 . S
H610 N605 0.984 . S
H611 N605 0.985 . S
H612 N609 0.984 . S
H613 N609 0.985 . S
H614 N608 0.984 . S
H615 N608 0.984 . S
H616 N604 0.984 . S
H617 N604 0.985 . S
C618 C619 1.363 . S
C618 C624 1.379 . S
C618 N626 1.356 . S
C619 C618 1.363 . S
C619 C625 1.363 . S
C620 C621 1.363 . S
C620 C625 1.379 . S
C620 N627 1.356 1_556 S
C621 C620 1.363 . S
C621 C624 1.363 . S
N622 C624 1.356 . S
N622 H634 0.984 . S
N622 H635 0.985 . S
N623 C625 1.356 . S
N623 H628 0.984 . S
N623 H629 0.985 . S
C624 C618 1.379 . S
C624 C621 1.363 . S
C624 N622 1.356 . S
C625 C619 1.363 . S
C625 C620 1.379 . S
C625 N623 1.356 . S
N626 C618 1.356 . S
N626 H632 0.984 . S
N626 H633 0.984 . S
N627 C620 1.356 1_554 S
N627 H630 0.984 . S
N627 H631 0.985 . S
H628 N623 0.984 . S
H629 N623 0.985 . S
H630 N627 0.984 . S
H631 N627 0.985 . S
H632 N626 0.984 . S
H633 N626 0.984 . S
H634 N622 0.984 . S
H635 N622 0.985 . S
C636 C637 1.363 . S
C636 C642 1.379 . S
C636 N644 1.356 . S
C637 C636 1.363 . S
C637 C643 1.363 . S
C638 C639 1.363 . S
C638 C643 1.379 . S
C638 N645 1.356 . S
C639 C638 1.363 . S
C639 C642 1.363 . S
N640 C642 1.356 . S
N640 H652 0.984 . S
N640 H653 0.985 . S
N641 C643 1.356 . S
N641 H646 0.984 . S
N641 H647 0.985 . S
C642 C636 1.379 . S
C642 C639 1.363 . S
C642 N640 1.356 . S
C643 C637 1.363 . S
C643 C638 1.379 . S
C643 N641 1.356 . S
N644 C636 1.356 . S
N644 H650 0.984 . S
N644 H651 0.984 . S
N645 C638 1.356 . S
N645 H648 0.984 . S
N645 H649 0.985 . S
H646 N641 0.984 . S
H647 N641 0.985 . S
H648 N645 0.984 . S
H649 N645 0.985 . S
H650 N644 0.984 . S
H651 N644 0.984 . S
H652 N640 0.984 . S
H653 N640 0.985 . S
C654 C655 1.363 . S
C654 C660 1.379 . S
C654 N662 1.356 . S
C655 C654 1.363 . S
C655 C661 1.363 . S
C656 C657 1.363 . S
C656 C661 1.379 . S
C656 N663 1.356 1_554 S
C657 C656 1.363 . S
C657 C660 1.363 . S
N658 C660 1.356 . S
N658 H670 0.984 . S
N658 H671 0.985 . S
N659 C661 1.356 . S
N659 H664 0.984 . S
N659 H665 0.985 . S
C660 C654 1.379 . S
C660 C657 1.363 . S
C660 N658 1.356 . S
C661 C655 1.363 . S
C661 C656 1.379 . S
C661 N659 1.356 . S
N662 C654 1.356 . S
N662 H668 0.984 . S
N662 H669 0.984 . S
N663 C656 1.356 1_556 S
N663 H666 0.984 . S
N663 H667 0.985 . S
H664 N659 0.984 . S
H665 N659 0.985 . S
H666 N663 0.984 . S
H667 N663 0.985 . S
H668 N662 0.984 . S
H669 N662 0.984 . S
H670 N658 0.984 . S
H671 N658 0.985 . S
C672 C673 1.363 . S
C672 C678 1.379 . S
C672 N680 1.356 . S
C673 C672 1.363 . S
C673 C679 1.363 . S
C674 C675 1.363 . S
C674 C679 1.379 . S
C674 N681 1.356 . S
C675 C674 1.363 . S
C675 C678 1.363 . S
N676 C678 1.356 . S
N676 H688 0.984 . S
N676 H689 0.985 . S
N677 C679 1.356 . S
N677 H682 0.984 . S
N677 H683 0.985 . S
C678 C672 1.379 . S
C678 C675 1.363 . S
C678 N676 1.356 . S
C679 C673 1.363 . S
C679 C674 1.379 . S
C679 N677 1.356 . S
N680 C672 1.356 . S
N680 H686 0.984 . S
N680 H687 0.984 . S
N681 C674 1.356 . S
N681 H684 0.984 . S
N681 H685 0.985 . S
H682 N677 0.984 . S
H683 N677 0.985 . S
H684 N681 0.984 . S
H685 N681 0.985 . S
H686 N680 0.984 . S
H687 N680 0.984 . S
H688 N676 0.984 . S
H689 N676 0.985 . S
C690 C691 1.363 . S
C690 C696 1.379 . S
C690 N698 1.356 . S
C691 C690 1.363 . S
C691 C697 1.363 . S
C692 C693 1.363 . S
C692 C697 1.379 . S
C692 N699 1.356 . S
C693 C692 1.363 . S
C693 C696 1.363 . S
N694 C696 1.356 . S
N694 H706 0.984 . S
N694 H707 0.985 . S
N695 C697 1.356 . S
N695 H700 0.984 . S
N695 H701 0.985 . S
C696 C690 1.379 . S
C696 C693 1.363 . S
C696 N694 1.356 . S
C697 C691 1.363 . S
C697 C692 1.379 . S
C697 N695 1.356 . S
N698 C690 1.356 . S
N698 H704 0.984 . S
N698 H705 0.984 . S
N699 C692 1.356 . S
N699 H702 0.984 1_655 S
N699 H703 0.985 1_655 S
H700 N695 0.984 . S
H701 N695 0.985 . S
H702 N699 0.984 1_455 S
H703 N699 0.985 1_455 S
H704 N698 0.984 . S
H705 N698 0.984 . S
H706 N694 0.984 . S
H707 N694 0.985 . S
C708 C709 1.363 . S
C708 C714 1.379 . S
C708 N716 1.356 . S
C709 C708 1.363 . S
C709 C715 1.363 . S
C710 C711 1.363 . S
C710 C715 1.379 . S
C710 N717 1.356 . S
C711 C710 1.363 . S
C711 C714 1.363 . S
N712 C714 1.356 . S
N712 H724 0.984 . S
N712 H725 0.985 . S
N713 C715 1.356 . S
N713 H718 0.984 . S
N713 H719 0.985 . S
C714 C708 1.379 . S
C714 C711 1.363 . S
C714 N712 1.356 . S
C715 C709 1.363 . S
C715 C710 1.379 . S
C715 N713 1.356 . S
N716 C708 1.356 . S
N716 H722 0.984 . S
N716 H723 0.984 . S
N717 C710 1.356 . S
N717 H720 0.984 . S
N717 H721 0.985 . S
H718 N713 0.984 . S
H719 N713 0.985 . S
H720 N717 0.984 . S
H721 N717 0.985 . S
H722 N716 0.984 . S
H723 N716 0.984 . S
H724 N712 0.984 . S
H725 N712 0.985 . S
C726 C727 1.363 . S
C726 C732 1.379 . S
C726 N734 1.356 . S
C727 C726 1.363 . S
C727 C733 1.363 . S
C728 C729 1.363 . S
C728 C733 1.379 . S
C728 N735 1.356 1_455 S
C729 C728 1.363 . S
C729 C732 1.363 . S
N730 C732 1.356 . S
N730 H742 0.984 . S
N730 H743 0.985 . S
N731 C733 1.356 . S
N731 H736 0.984 . S
N731 H737 0.985 . S
C732 C726 1.379 . S
C732 C729 1.363 . S
C732 N730 1.356 . S
C733 C727 1.363 . S
C733 C728 1.379 . S
C733 N731 1.356 . S
N734 C726 1.356 . S
N734 H740 0.984 . S
N734 H741 0.984 . S
N735 C728 1.356 1_655 S
N735 H738 0.984 . S
N735 H739 0.985 . S
H736 N731 0.984 . S
H737 N731 0.985 . S
H738 N735 0.984 . S
H739 N735 0.985 . S
H740 N734 0.984 . S
H741 N734 0.984 . S
H742 N730 0.984 . S
H743 N730 0.985 . S
C744 C745 1.363 . S
C744 C750 1.379 . S
C744 N752 1.356 . S
C745 C744 1.363 . S
C745 C751 1.363 . S
C746 C747 1.363 . S
C746 C751 1.379 . S
C746 N753 1.356 . S
C747 C746 1.363 . S
C747 C750 1.363 . S
N748 C750 1.356 . S
N748 H760 0.984 . S
N748 H761 0.985 . S
N749 C751 1.356 . S
N749 H754 0.984 . S
N749 H755 0.985 . S
C750 C744 1.379 . S
C750 C747 1.363 . S
C750 N748 1.356 . S
C751 C745 1.363 . S
C751 C746 1.379 . S
C751 N749 1.356 . S
N752 C744 1.356 . S
N752 H758 0.984 . S
N752 H759 0.984 . S
N753 C746 1.356 . S
N753 H756 0.984 . S
N753 H757 0.985 . S
H754 N749 0.984 . S
H755 N749 0.985 . S
H756 N753 0.984 . S
H757 N753 0.985 . S
H758 N752 0.984 . S
H759 N752 0.984 . S
H760 N748 0.984 . S
H761 N748 0.985 . S
C762 C763 1.363 . S
C762 C768 1.379 . S
C762 N770 1.356 . S
C763 C762 1.363 . S
C763 C769 1.363 . S
C764 C765 1.363 . S
C764 C769 1.379 . S
C764 N771 1.356 . S
C765 C764 1.363 . S
C765 C768 1.363 . S
N766 C768 1.356 . S
N766 H778 0.984 . S
N766 H779 0.985 . S
N767 C769 1.356 . S
N767 H772 0.984 . S
N767 H773 0.985 . S
C768 C762 1.379 . S
C768 C765 1.363 . S
C768 N766 1.356 . S
C769 C763 1.363 . S
C769 C764 1.379 . S
C769 N767 1.356 . S
N770 C762 1.356 . S
N770 H776 0.984 . S
N770 H777 0.984 . S
N771 C764 1.356 . S
N771 H774 0.984 . S
N771 H775 0.985 . S
H772 N767 0.984 . S
H773 N767 0.985 . S
H774 N771 0.984 . S
H775 N771 0.985 . S
H776 N770 0.984 . S
H777 N770 0.984 . S
H778 N766 0.984 . S
H779 N766 0.985 . S
C780 C781 1.363 . S
C780 C786 1.379 . S
C780 N788 1.356 . S
C781 C780 1.363 . S
C781 C787 1.363 . S
C782 C783 1.363 . S
C782 C787 1.379 . S
C782 N789 1.356 1_565 S
C783 C782 1.363 . S
C783 C786 1.363 . S
N784 C786 1.356 . S
N784 H796 0.984 . S
N784 H797 0.985 . S
N785 C787 1.356 . S
N785 H790 0.984 . S
N785 H791 0.985 . S
C786 C780 1.379 . S
C786 C783 1.363 . S
C786 N784 1.356 . S
C787 C781 1.363 . S
C787 C782 1.379 . S
C787 N785 1.356 . S
N788 C780 1.356 . S
N788 H794 0.984 . S
N788 H795 0.984 . S
N789 C782 1.356 1_545 S
N789 H792 0.984 . S
N789 H793 0.985 . S
H790 N785 0.984 . S
H791 N785 0.985 . S
H792 N789 0.984 . S
H793 N789 0.985 . S
H794 N788 0.984 . S
H795 N788 0.984 . S
H796 N784 0.984 . S
H797 N784 0.985 . S
C798 C799 1.363 . S
C798 C804 1.379 . S
C798 N806 1.356 . S
C799 C798 1.363 . S
C799 C805 1.363 . S
C800 C801 1.363 . S
C800 C805 1.379 . S
C800 N807 1.356 . S
C801 C800 1.363 . S
C801 C804 1.363 . S
N802 C804 1.356 . S
N802 H814 0.984 . S
N802 H815 0.985 . S
N803 C805 1.356 . S
N803 H808 0.984 . S
N803 H809 0.985 . S
C804 C798 1.379 . S
C804 C801 1.363 . S
C804 N802 1.356 . S
C805 C799 1.363 . S
C805 C800 1.379 . S
C805 N803 1.356 . S
N806 C798 1.356 . S
N806 H812 0.984 1_545 S
N806 H813 0.984 1_545 S
N807 C800 1.356 . S
N807 H810 0.984 . S
N807 H811 0.985 . S
H808 N803 0.984 . S
H809 N803 0.985 . S
H810 N807 0.984 . S
H811 N807 0.985 . S
H812 N806 0.984 1_565 S
H813 N806 0.984 1_565 S
H814 N802 0.984 . S
H815 N802 0.985 . S
C816 C817 1.363 . S
C816 C822 1.379 . S
C816 N824 1.356 . S
C817 C816 1.363 . S
C817 C823 1.363 . S
C818 C819 1.363 . S
C818 C823 1.379 . S
C818 N825 1.356 . S
C819 C818 1.363 . S
C819 C822 1.363 . S
N820 C822 1.356 . S
N820 H832 0.984 . S
N820 H833 0.985 . S
N821 C823 1.356 . S
N821 H826 0.984 . S
N821 H827 0.985 . S
C822 C816 1.379 . S
C822 C819 1.363 . S
C822 N820 1.356 . S
C823 C817 1.363 . S
C823 C818 1.379 . S
C823 N821 1.356 . S
N824 C816 1.356 . S
N824 H830 0.984 . S
N824 H831 0.984 . S
N825 C818 1.356 . S
N825 H828 0.984 . S
N825 H829 0.985 . S
H826 N821 0.984 . S
H827 N821 0.985 . S
H828 N825 0.984 . S
H829 N825 0.985 . S
H830 N824 0.984 . S
H831 N824 0.984 . S
H832 N820 0.984 . S
H833 N820 0.985 . S
C834 C835 1.363 . S
C834 C840 1.379 . S
C834 N842 1.356 . S
C835 C834 1.363 . S
C835 C841 1.363 . S
C836 C837 1.363 . S
C836 C841 1.379 . S
C836 N843 1.356 . S
C837 C836 1.363 . S
C837 C840 1.363 . S
N838 C840 1.356 . S
N838 H850 0.984 . S
N838 H851 0.985 . S
N839 C841 1.356 . S
N839 H844 0.984 . S
N839 H845 0.985 . S
C840 C834 1.379 . S
C840 C837 1.363 . S
C840 N838 1.356 . S
C841 C835 1.363 . S
C841 C836 1.379 . S
C841 N839 1.356 . S
N842 C834 1.356 . S
N842 H848 0.984 . S
N842 H849 0.984 . S
N843 C836 1.356 . S
N843 H846 0.984 . S
N843 H847 0.985 . S
H844 N839 0.984 . S
H845 N839 0.985 . S
H846 N843 0.984 . S
H847 N843 0.985 . S
H848 N842 0.984 . S
H849 N842 0.984 . S
H850 N838 0.984 . S
H851 N838 0.985 . S
C852 C853 1.363 . S
C852 C858 1.379 . S
C852 N860 1.356 . S
C853 C852 1.363 . S
C853 C859 1.363 . S
C854 C855 1.363 . S
C854 C859 1.379 . S
C854 N861 1.356 . S
C855 C854 1.363 . S
C855 C858 1.363 . S
N856 C858 1.356 . S
N856 H868 0.984 . S
N856 H869 0.985 . S
N857 C859 1.356 . S
N857 H862 0.984 . S
N857 H863 0.985 . S
C858 C852 1.379 . S
C858 C855 1.363 . S
C858 N856 1.356 . S
C859 C853 1.363 . S
C859 C854 1.379 . S
C859 N857 1.356 . S
N860 C852 1.356 . S
N860 H866 0.984 . S
N860 H867 0.984 . S
N861 C854 1.356 . S
N861 H864 0.984 . S
N861 H865 0.985 . S
H862 N857 0.984 . S
H863 N857 0.985 . S
H864 N861 0.984 . S
H865 N861 0.985 . S
H866 N860 0.984 . S
H867 N860 0.984 . S
H868 N856 0.984 . S
H869 N856 0.985 . S
C870 C871 1.363 . S
C870 C876 1.379 . S
C870 N878 1.356 1_556 S
C871 C870 1.363 . S
C871 C877 1.363 . S
C872 C873 1.363 . S
C872 C877 1.379 . S
C872 N879 1.356 . S
C873 C872 1.363 . S
C873 C876 1.363 . S
N874 C876 1.356 . S
N874 H886 0.984 . S
N874 H887 0.985 . S
N875 C877 1.356 . S
N875 H880 0.984 . S
N875 H881 0.985 . S
C876 C870 1.379 . S
C876 C873 1.363 . S
C876 N874 1.356 . S
C877 C871 1.363 . S
C877 C872 1.379 . S
C877 N875 1.356 . S
N878 C870 1.356 1_554 S
N878 H884 0.984 . S
N878 H885 0.984 . S
N879 C872 1.356 . S
N879 H882 0.984 . S
N879 H883 0.985 . S
H880 N875 0.984 . S
H881 N875 0.985 . S
H882 N879 0.984 . S
H883 N879 0.985 . S
H884 N878 0.984 . S
H885 N878 0.984 . S
H886 N874 0.984 . S
H887 N874 0.985 . S
C888 C889 1.363 . S
C888 C894 1.379 . S
C888 N896 1.356 . S
C889 C888 1.363 . S
C889 C895 1.363 . S
C890 C891 1.363 . S
C890 C895 1.379 . S
C890 N897 1.356 . S
C891 C890 1.363 . S
C891 C894 1.363 . S
N892 C894 1.356 . S
N892 H904 0.984 . S
N892 H905 0.985 . S
N893 C895 1.356 . S
N893 H898 0.984 . S
N893 H899 0.985 . S
C894 C888 1.379 . S
C894 C891 1.363 . S
C894 N892 1.356 . S
C895 C889 1.363 . S
C895 C890 1.379 . S
C895 N893 1.356 . S
N896 C888 1.356 . S
N896 H902 0.984 . S
N896 H903 0.984 . S
N897 C890 1.356 . S
N897 H900 0.984 . S
N897 H901 0.985 . S
H898 N893 0.984 . S
H899 N893 0.985 . S
H900 N897 0.984 . S
H901 N897 0.985 . S
H902 N896 0.984 . S
H903 N896 0.984 . S
H904 N892 0.984 . S
H905 N892 0.985 . S
C906 C907 1.363 . S
C906 C912 1.379 . S
C906 N914 1.356 . S
C907 C906 1.363 . S
C907 C913 1.363 . S
C908 C909 1.363 . S
C908 C913 1.379 . S
C908 N915 1.356 . S
C909 C908 1.363 . S
C909 C912 1.363 . S
N910 C912 1.356 . S
N910 H922 0.984 . S
N910 H923 0.985 . S
N911 C913 1.356 . S
N911 H916 0.984 . S
N911 H917 0.985 . S
C912 C906 1.379 . S
C912 C909 1.363 . S
C912 N910 1.356 . S
C913 C907 1.363 . S
C913 C908 1.379 . S
C913 N911 1.356 . S
N914 C906 1.356 . S
N914 H920 0.983 . S
N914 H921 0.984 . S
N915 C908 1.356 . S
N915 H918 0.984 . S
N915 H919 0.985 . S
H916 N911 0.984 . S
H917 N911 0.985 . S
H918 N915 0.984 . S
H919 N915 0.985 . S
H920 N914 0.983 . S
H921 N914 0.984 . S
H922 N910 0.984 . S
H923 N910 0.985 . S
C924 C925 1.363 . S
C924 C930 1.379 . S
C924 N932 1.356 . S
C925 C924 1.363 . S
C925 C931 1.363 . S
C926 C927 1.363 . S
C926 C931 1.379 . S
C926 N933 1.356 . S
C927 C926 1.363 . S
C927 C930 1.363 . S
N928 C930 1.356 . S
N928 H940 0.984 . S
N928 H941 0.985 . S
N929 C931 1.356 . S
N929 H934 0.984 . S
N929 H935 0.985 . S
C930 C924 1.379 . S
C930 C927 1.363 . S
C930 N928 1.356 . S
C931 C925 1.363 . S
C931 C926 1.379 . S
C931 N929 1.356 . S
N932 C924 1.356 . S
N932 H938 0.984 . S
N932 H939 0.984 . S
N933 C926 1.356 . S
N933 H936 0.984 . S
N933 H937 0.985 . S
H934 N929 0.984 . S
H935 N929 0.985 . S
H936 N933 0.984 . S
H937 N933 0.985 . S
H938 N932 0.984 . S
H939 N932 0.984 . S
H940 N928 0.984 . S
H941 N928 0.985 . S
C942 C943 1.363 . S
C942 C948 1.379 . S
C942 N950 1.356 . S
C943 C942 1.363 . S
C943 C949 1.363 . S
C944 C945 1.363 . S
C944 C949 1.379 . S
C944 N951 1.356 . S
C945 C944 1.363 . S
C945 C948 1.363 . S
N946 C948 1.356 . S
N946 H958 0.984 . S
N946 H959 0.985 . S
N947 C949 1.356 . S
N947 H952 0.984 . S
N947 H953 0.985 . S
C948 C942 1.379 . S
C948 C945 1.363 . S
C948 N946 1.356 . S
C949 C943 1.363 . S
C949 C944 1.379 . S
C949 N947 1.356 . S
N950 C942 1.356 . S
N950 H956 0.984 . S
N950 H957 0.984 . S
N951 C944 1.356 . S
N951 H954 0.984 . S
N951 H955 0.985 . S
H952 N947 0.984 . S
H953 N947 0.985 . S
H954 N951 0.984 . S
H955 N951 0.985 . S
H956 N950 0.984 . S
H957 N950 0.984 . S
H958 N946 0.984 . S
H959 N946 0.985 . S
C960 C961 1.363 . S
C960 C966 1.379 . S
C960 N968 1.356 . S
C961 C960 1.363 . S
C961 C967 1.363 . S
C962 C963 1.363 . S
C962 C967 1.379 . S
C962 N969 1.356 . S
C963 C962 1.363 . S
C963 C966 1.363 . S
N964 C966 1.356 . S
N964 H976 0.984 . S
N964 H977 0.985 . S
N965 C967 1.356 . S
N965 H970 0.984 . S
N965 H971 0.985 . S
C966 C960 1.379 . S
C966 C963 1.363 . S
C966 N964 1.356 . S
C967 C961 1.363 . S
C967 C962 1.379 . S
C967 N965 1.356 . S
N968 C960 1.356 . S
N968 H974 0.984 . S
N968 H975 0.984 . S
N969 C962 1.356 . S
N969 H972 0.984 . S
N969 H973 0.985 . S
H970 N965 0.984 . S
H971 N965 0.985 . S
H972 N969 0.984 . S
H973 N969 0.985 . S
H974 N968 0.984 . S
H975 N968 0.984 . S
H976 N964 0.984 . S
H977 N964 0.985 . S
C978 C979 1.363 . S
C978 C984 1.379 . S
C978 N986 1.356 . S
C979 C978 1.363 . S
C979 C985 1.363 . S
C980 C981 1.363 . S
C980 C985 1.379 . S
C980 N987 1.356 . S
C981 C980 1.363 . S
C981 C984 1.363 . S
N982 C984 1.356 . S
N982 H994 0.984 . S
N982 H995 0.985 . S
N983 C985 1.356 . S
N983 H988 0.984 . S
N983 H989 0.985 . S
C984 C978 1.379 . S
C984 C981 1.363 . S
C984 N982 1.356 . S
C985 C979 1.363 . S
C985 C980 1.379 . S
C985 N983 1.356 . S
N986 C978 1.356 . S
N986 H992 0.984 . S
N986 H993 0.984 . S
N987 C980 1.356 . S
N987 H990 0.984 . S
N987 H991 0.985 . S
H988 N983 0.984 . S
H989 N983 0.985 . S
H990 N987 0.984 . S
H991 N987 0.985 . S
H992 N986 0.984 . S
H993 N986 0.984 . S
H994 N982 0.984 . S
H995 N982 0.985 . S
C996 C997 1.363 . S
C996 C1002 1.379 . S
C996 N1004 1.356 . S
C997 C996 1.363 . S
C997 C1003 1.363 . S
C998 C999 1.363 . S
C998 C1003 1.379 . S
C998 N1005 1.356 . S
C999 C998 1.363 . S
C999 C1002 1.363 . S
N1000 C1002 1.356 . S
N1000 H1012 0.984 . S
N1000 H1013 0.985 . S
N1001 C1003 1.356 . S
N1001 H1006 0.984 . S
N1001 H1007 0.985 . S
C1002 C996 1.379 . S
C1002 C999 1.363 . S
C1002 N1000 1.356 . S
C1003 C997 1.363 . S
C1003 C998 1.379 . S
C1003 N1001 1.356 . S
N1004 C996 1.356 . S
N1004 H1010 0.984 . S
N1004 H1011 0.984 . S
N1005 C998 1.356 . S
N1005 H1008 0.984 . S
N1005 H1009 0.985 . S
H1006 N1001 0.984 . S
H1007 N1001 0.985 . S
H1008 N1005 0.984 . S
H1009 N1005 0.985 . S
H1010 N1004 0.984 . S
H1011 N1004 0.984 . S
H1012 N1000 0.984 . S
H1013 N1000 0.985 . S
C1014 C1015 1.363 . S
C1014 C1020 1.379 . S
C1014 N1022 1.356 . S
C1015 C1014 1.363 . S
C1015 C1021 1.363 . S
C1016 C1017 1.363 . S
C1016 C1021 1.379 . S
C1016 N1023 1.356 . S
C1017 C1016 1.363 . S
C1017 C1020 1.363 . S
N1018 C1020 1.356 . S
N1018 H1030 0.984 . S
N1018 H1031 0.985 . S
N1019 C1021 1.356 . S
N1019 H1024 0.984 . S
N1019 H1025 0.985 . S
C1020 C1014 1.379 . S
C1020 C1017 1.363 . S
C1020 N1018 1.356 . S
C1021 C1015 1.363 . S
C1021 C1016 1.379 . S
C1021 N1019 1.356 . S
N1022 C1014 1.356 . S
N1022 H1028 0.984 . S
N1022 H1029 0.984 . S
N1023 C1016 1.356 . S
N1023 H1026 0.984 . S
N1023 H1027 0.985 . S
H1024 N1019 0.984 . S
H1025 N1019 0.985 . S
H1026 N1023 0.984 . S
H1027 N1023 0.985 . S
H1028 N1022 0.984 . S
H1029 N1022 0.984 . S
H1030 N1018 0.984 . S
H1031 N1018 0.985 . S
C1032 C1033 1.363 . S
C1032 C1038 1.379 . S
C1032 N1040 1.356 . S
C1033 C1032 1.363 . S
C1033 C1039 1.363 . S
C1034 C1035 1.363 . S
C1034 C1039 1.379 . S
C1034 N1041 1.356 . S
C1035 C1034 1.363 . S
C1035 C1038 1.363 . S
N1036 C1038 1.356 . S
N1036 H1048 0.984 . S
N1036 H1049 0.985 . S
N1037 C1039 1.356 . S
N1037 H1042 0.984 . S
N1037 H1043 0.985 . S
C1038 C1032 1.379 . S
C1038 C1035 1.363 . S
C1038 N1036 1.356 . S
C1039 C1033 1.363 . S
C1039 C1034 1.379 . S
C1039 N1037 1.356 . S
N1040 C1032 1.356 . S
N1040 H1046 0.984 . S
N1040 H1047 0.984 . S
N1041 C1034 1.356 . S
N1041 H1044 0.984 . S
N1041 H1045 0.985 . S
H1042 N1037 0.984 . S
H1043 N1037 0.985 . S
H1044 N1041 0.984 . S
H1045 N1041 0.985 . S
H1046 N1040 0.984 . S
H1047 N1040 0.984 . S
H1048 N1036 0.984 . S
H1049 N1036 0.985 . S
C1050 C1051 1.363 . S
C1050 C1056 1.379 . S
C1050 N1058 1.356 . S
C1051 C1050 1.363 . S
C1051 C1057 1.363 . S
C1052 C1053 1.363 . S
C1052 C1057 1.379 . S
C1052 N1059 1.356 . S
C1053 C1052 1.363 . S
C1053 C1056 1.363 . S
N1054 C1056 1.356 . S
N1054 H1066 0.984 . S
N1054 H1067 0.985 . S
N1055 C1057 1.356 . S
N1055 H1060 0.984 . S
N1055 H1061 0.985 . S
C1056 C1050 1.379 . S
C1056 C1053 1.363 . S
C1056 N1054 1.356 . S
C1057 C1051 1.363 . S
C1057 C1052 1.379 . S
C1057 N1055 1.356 . S
N1058 C1050 1.356 . S
N1058 H1064 0.984 . S
N1058 H1065 0.984 . S
N1059 C1052 1.356 . S
N1059 H1062 0.984 . S
N1059 H1063 0.985 . S
H1060 N1055 0.984 . S
H1061 N1055 0.985 . S
H1062 N1059 0.984 . S
H1063 N1059 0.985 . S
H1064 N1058 0.984 . S
H1065 N1058 0.984 . S
H1066 N1054 0.984 . S
H1067 N1054 0.985 . S
C1068 C1069 1.363 . S
C1068 C1074 1.379 . S
C1068 N1076 1.356 . S
C1069 C1068 1.363 . S
C1069 C1075 1.363 . S
C1070 C1071 1.363 . S
C1070 C1075 1.379 . S
C1070 N1077 1.356 . S
C1071 C1070 1.363 . S
C1071 C1074 1.363 . S
N1072 C1074 1.356 . S
N1072 H1084 0.984 . S
N1072 H1085 0.985 . S
N1073 C1075 1.356 . S
N1073 H1078 0.984 . S
N1073 H1079 0.985 . S
C1074 C1068 1.379 . S
C1074 C1071 1.363 . S
C1074 N1072 1.356 . S
C1075 C1069 1.363 . S
C1075 C1070 1.379 . S
C1075 N1073 1.356 . S
N1076 C1068 1.356 . S
N1076 H1082 0.984 . S
N1076 H1083 0.984 . S
N1077 C1070 1.356 . S
N1077 H1080 0.984 . S
N1077 H1081 0.985 . S
H1078 N1073 0.984 . S
H1079 N1073 0.985 . S
H1080 N1077 0.984 . S
H1081 N1077 0.985 . S
H1082 N1076 0.984 . S
H1083 N1076 0.984 . S
H1084 N1072 0.984 . S
H1085 N1072 0.985 . S
C1086 C1087 1.363 . S
C1086 C1092 1.379 . S
C1086 N1094 1.356 . S
C1087 C1086 1.363 . S
C1087 C1093 1.363 . S
C1088 C1089 1.363 . S
C1088 C1093 1.379 . S
C1088 N1095 1.356 . S
C1089 C1088 1.363 . S
C1089 C1092 1.363 . S
N1090 C1092 1.356 . S
N1090 H1102 0.984 . S
N1090 H1103 0.985 . S
N1091 C1093 1.356 . S
N1091 H1096 0.984 . S
N1091 H1097 0.985 . S
C1092 C1086 1.379 . S
C1092 C1089 1.363 . S
C1092 N1090 1.356 . S
C1093 C1087 1.363 . S
C1093 C1088 1.379 . S
C1093 N1091 1.356 . S
N1094 C1086 1.356 . S
N1094 H1100 0.984 . S
N1094 H1101 0.984 . S
N1095 C1088 1.356 . S
N1095 H1098 0.984 . S
N1095 H1099 0.985 . S
H1096 N1091 0.984 . S
H1097 N1091 0.985 . S
H1098 N1095 0.984 . S
H1099 N1095 0.985 . S
H1100 N1094 0.984 . S
H1101 N1094 0.984 . S
H1102 N1090 0.984 . S
H1103 N1090 0.985 . S
C1104 C1105 1.363 . S
C1104 C1110 1.379 . S
C1104 N1112 1.356 . S
C1105 C1104 1.363 . S
C1105 C1111 1.363 . S
C1106 C1107 1.363 . S
C1106 C1111 1.379 . S
C1106 N1113 1.356 . S
C1107 C1106 1.363 . S
C1107 C1110 1.363 . S
N1108 C1110 1.356 . S
N1108 H1120 0.984 . S
N1108 H1121 0.985 . S
N1109 C1111 1.356 . S
N1109 H1114 0.984 . S
N1109 H1115 0.985 . S
C1110 C1104 1.379 . S
C1110 C1107 1.363 . S
C1110 N1108 1.356 . S
C1111 C1105 1.363 . S
C1111 C1106 1.379 . S
C1111 N1109 1.356 . S
N1112 C1104 1.356 . S
N1112 H1118 0.984 . S
N1112 H1119 0.984 . S
N1113 C1106 1.356 . S
N1113 H1116 0.984 . S
N1113 H1117 0.985 . S
H1114 N1109 0.984 . S
H1115 N1109 0.985 . S
H1116 N1113 0.984 . S
H1117 N1113 0.985 . S
H1118 N1112 0.984 . S
H1119 N1112 0.984 . S
H1120 N1108 0.984 . S
H1121 N1108 0.985 . S
C1122 C1123 1.363 . S
C1122 C1128 1.379 . S
C1122 N1130 1.356 . S
C1123 C1122 1.363 . S
C1123 C1129 1.363 . S
C1124 C1125 1.363 . S
C1124 C1129 1.379 . S
C1124 N1131 1.356 . S
C1125 C1124 1.363 . S
C1125 C1128 1.363 . S
N1126 C1128 1.356 . S
N1126 H1138 0.984 . S
N1126 H1139 0.985 . S
N1127 C1129 1.356 . S
N1127 H1132 0.984 . S
N1127 H1133 0.985 . S
C1128 C1122 1.379 . S
C1128 C1125 1.363 . S
C1128 N1126 1.356 . S
C1129 C1123 1.363 . S
C1129 C1124 1.379 . S
C1129 N1127 1.356 . S
N1130 C1122 1.356 . S
N1130 H1136 0.984 . S
N1130 H1137 0.984 . S
N1131 C1124 1.356 . S
N1131 H1134 0.984 . S
N1131 H1135 0.985 . S
H1132 N1127 0.984 . S
H1133 N1127 0.985 . S
H1134 N1131 0.984 . S
H1135 N1131 0.985 . S
H1136 N1130 0.984 . S
H1137 N1130 0.984 . S
H1138 N1126 0.984 . S
H1139 N1126 0.985 . S
C1140 C1141 1.363 . S
C1140 C1146 1.379 . S
C1140 N1148 1.356 . S
C1141 C1140 1.363 . S
C1141 C1147 1.363 . S
C1142 C1143 1.363 . S
C1142 C1147 1.379 . S
C1142 N1149 1.356 . S
C1143 C1142 1.363 . S
C1143 C1146 1.363 . S
N1144 C1146 1.356 . S
N1144 H1156 0.984 . S
N1144 H1157 0.985 . S
N1145 C1147 1.356 . S
N1145 H1150 0.984 . S
N1145 H1151 0.985 . S
C1146 C1140 1.379 . S
C1146 C1143 1.363 . S
C1146 N1144 1.356 . S
C1147 C1141 1.363 . S
C1147 C1142 1.379 . S
C1147 N1145 1.356 . S
N1148 C1140 1.356 . S
N1148 H1154 0.984 . S
N1148 H1155 0.984 . S
N1149 C1142 1.356 . S
N1149 H1152 0.984 . S
N1149 H1153 0.985 . S
H1150 N1145 0.984 . S
H1151 N1145 0.985 . S
H1152 N1149 0.984 . S
H1153 N1149 0.985 . S
H1154 N1148 0.984 . S
H1155 N1148 0.984 . S
H1156 N1144 0.984 . S
H1157 N1144 0.985 . S
C1158 C1159 1.363 . S
C1158 C1164 1.379 . S
C1158 N1166 1.356 . S
C1159 C1158 1.363 . S
C1159 C1165 1.363 . S
C1160 C1161 1.363 . S
C1160 C1165 1.379 . S
C1160 N1167 1.356 . S
C1161 C1160 1.363 . S
C1161 C1164 1.363 . S
N1162 C1164 1.356 . S
N1162 H1174 0.984 . S
N1162 H1175 0.985 . S
N1163 C1165 1.356 . S
N1163 H1168 0.984 . S
N1163 H1169 0.985 . S
C1164 C1158 1.379 . S
C1164 C1161 1.363 . S
C1164 N1162 1.356 . S
C1165 C1159 1.363 . S
C1165 C1160 1.379 . S
C1165 N1163 1.356 . S
N1166 C1158 1.356 . S
N1166 H1172 0.984 . S
N1166 H1173 0.984 . S
N1167 C1160 1.356 . S
N1167 H1170 0.984 . S
N1167 H1171 0.985 . S
H1168 N1163 0.984 . S
H1169 N1163 0.985 . S
H1170 N1167 0.984 . S
H1171 N1167 0.985 . S
H1172 N1166 0.984 . S
H1173 N1166 0.984 . S
H1174 N1162 0.984 . S
H1175 N1162 0.985 . S
C1176 C1177 1.363 . S
C1176 C1182 1.379 . S
C1176 N1184 1.356 . S
C1177 C1176 1.363 . S
C1177 C1183 1.363 . S
C1178 C1179 1.363 . S
C1178 C1183 1.379 . S
C1178 N1185 1.356 . S
C1179 C1178 1.363 . S
C1179 C1182 1.363 . S
N1180 C1182 1.356 . S
N1180 H1192 0.984 . S
N1180 H1193 0.985 . S
N1181 C1183 1.356 . S
N1181 H1186 0.984 . S
N1181 H1187 0.985 . S
C1182 C1176 1.379 . S
C1182 C1179 1.363 . S
C1182 N1180 1.356 . S
C1183 C1177 1.363 . S
C1183 C1178 1.379 . S
C1183 N1181 1.356 . S
N1184 C1176 1.356 . S
N1184 H1190 0.984 . S
N1184 H1191 0.984 . S
N1185 C1178 1.356 . S
N1185 H1188 0.984 . S
N1185 H1189 0.985 . S
H1186 N1181 0.984 . S
H1187 N1181 0.985 . S
H1188 N1185 0.984 . S
H1189 N1185 0.985 . S
H1190 N1184 0.984 . S
H1191 N1184 0.984 . S
H1192 N1180 0.984 . S
H1193 N1180 0.985 . S
C1194 C1195 1.363 . S
C1194 C1200 1.379 . S
C1194 N1202 1.356 . S
C1195 C1194 1.363 . S
C1195 C1201 1.363 . S
C1196 C1197 1.363 . S
C1196 C1201 1.379 . S
C1196 N1203 1.356 . S
C1197 C1196 1.363 . S
C1197 C1200 1.363 . S
N1198 C1200 1.356 . S
N1198 H1210 0.984 . S
N1198 H1211 0.985 . S
N1199 C1201 1.356 . S
N1199 H1204 0.984 . S
N1199 H1205 0.985 . S
C1200 C1194 1.379 . S
C1200 C1197 1.363 . S
C1200 N1198 1.356 . S
C1201 C1195 1.363 . S
C1201 C1196 1.379 . S
C1201 N1199 1.356 . S
N1202 C1194 1.356 . S
N1202 H1208 0.984 . S
N1202 H1209 0.984 . S
N1203 C1196 1.356 . S
N1203 H1206 0.984 . S
N1203 H1207 0.985 . S
H1204 N1199 0.984 . S
H1205 N1199 0.985 . S
H1206 N1203 0.984 . S
H1207 N1203 0.985 . S
H1208 N1202 0.984 . S
H1209 N1202 0.984 . S
H1210 N1198 0.984 . S
H1211 N1198 0.985 . S
C1212 C1213 1.363 . S
C1212 C1218 1.379 . S
C1212 N1220 1.356 . S
C1213 C1212 1.363 . S
C1213 C1219 1.363 . S
C1214 C1215 1.363 . S
C1214 C1219 1.379 . S
C1214 N1221 1.356 . S
C1215 C1214 1.363 . S
C1215 C1218 1.363 . S
N1216 C1218 1.356 . S
N1216 H1228 0.984 . S
N1216 H1229 0.985 . S
N1217 C1219 1.356 . S
N1217 H1222 0.984 . S
N1217 H1223 0.985 . S
C1218 C1212 1.379 . S
C1218 C1215 1.363 . S
C1218 N1216 1.356 . S
C1219 C1213 1.363 . S
C1219 C1214 1.379 . S
C1219 N1217 1.356 . S
N1220 C1212 1.356 . S
N1220 H1226 0.984 . S
N1220 H1227 0.984 . S
N1221 C1214 1.356 . S
N1221 H1224 0.984 . S
N1221 H1225 0.985 . S
H1222 N1217 0.984 . S
H1223 N1217 0.985 . S
H1224 N1221 0.984 . S
H1225 N1221 0.985 . S
H1226 N1220 0.984 . S
H1227 N1220 0.984 . S
H1228 N1216 0.984 . S
H1229 N1216 0.985 . S
C1230 C1231 1.363 . S
C1230 C1236 1.379 . S
C1230 N1238 1.356 . S
C1231 C1230 1.363 . S
C1231 C1237 1.363 . S
C1232 C1233 1.363 . S
C1232 C1237 1.379 . S
C1232 N1239 1.356 . S
C1233 C1232 1.363 . S
C1233 C1236 1.363 . S
N1234 C1236 1.356 . S
N1234 H1246 0.984 . S
N1234 H1247 0.985 . S
N1235 C1237 1.356 . S
N1235 H1240 0.984 . S
N1235 H1241 0.985 . S
C1236 C1230 1.379 . S
C1236 C1233 1.363 . S
C1236 N1234 1.356 . S
C1237 C1231 1.363 . S
C1237 C1232 1.379 . S
C1237 N1235 1.356 . S
N1238 C1230 1.356 . S
N1238 H1244 0.984 . S
N1238 H1245 0.984 . S
N1239 C1232 1.356 . S
N1239 H1242 0.984 . S
N1239 H1243 0.985 . S
H1240 N1235 0.984 . S
H1241 N1235 0.985 . S
H1242 N1239 0.984 . S
H1243 N1239 0.985 . S
H1244 N1238 0.984 . S
H1245 N1238 0.984 . S
H1246 N1234 0.984 . S
H1247 N1234 0.985 . S
C1248 C1249 1.363 . S
C1248 C1254 1.379 . S
C1248 N1256 1.356 . S
C1249 C1248 1.363 . S
C1249 C1255 1.363 . S
C1250 C1251 1.363 . S
C1250 C1255 1.379 . S
C1250 N1257 1.356 . S
C1251 C1250 1.363 . S
C1251 C1254 1.363 . S
N1252 C1254 1.356 . S
N1252 H1264 0.984 . S
N1252 H1265 0.985 . S
N1253 C1255 1.356 . S
N1253 H1258 0.984 . S
N1253 H1259 0.985 . S
C1254 C1248 1.379 . S
C1254 C1251 1.363 . S
C1254 N1252 1.356 . S
C1255 C1249 1.363 . S
C1255 C1250 1.379 . S
C1255 N1253 1.356 . S
N1256 C1248 1.356 . S
N1256 H1262 0.984 . S
N1256 H1263 0.984 . S
N1257 C1250 1.356 . S
N1257 H1260 0.984 . S
N1257 H1261 0.985 . S
H1258 N1253 0.984 . S
H1259 N1253 0.985 . S
H1260 N1257 0.984 . S
H1261 N1257 0.985 . S
H1262 N1256 0.984 . S
H1263 N1256 0.984 . S
H1264 N1252 0.984 . S
H1265 N1252 0.985 . S
C1266 C1267 1.363 . S
C1266 C1272 1.379 . S
C1266 N1274 1.356 . S
C1267 C1266 1.363 . S
C1267 C1273 1.363 . S
C1268 C1269 1.363 . S
C1268 C1273 1.379 . S
C1268 N1275 1.356 . S
C1269 C1268 1.363 . S
C1269 C1272 1.363 . S
N1270 C1272 1.356 . S
N1270 H1282 0.984 . S
N1270 H1283 0.985 . S
N1271 C1273 1.356 . S
N1271 H1276 0.984 . S
N1271 H1277 0.985 . S
C1272 C1266 1.379 . S
C1272 C1269 1.363 . S
C1272 N1270 1.356 . S
C1273 C1267 1.363 . S
C1273 C1268 1.379 . S
C1273 N1271 1.356 . S
N1274 C1266 1.356 . S
N1274 H1280 0.984 . S
N1274 H1281 0.984 . S
N1275 C1268 1.356 . S
N1275 H1278 0.984 . S
N1275 H1279 0.985 . S
H1276 N1271 0.984 . S
H1277 N1271 0.985 . S
H1278 N1275 0.984 . S
H1279 N1275 0.985 . S
H1280 N1274 0.984 . S
H1281 N1274 0.984 . S
H1282 N1270 0.984 . S
H1283 N1270 0.985 . S
C1284 C1285 1.363 . S
C1284 C1290 1.379 . S
C1284 N1292 1.356 . S
C1285 C1284 1.363 . S
C1285 C1291 1.363 . S
C1286 C1287 1.363 . S
C1286 C1291 1.379 . S
C1286 N1293 1.356 . S
C1287 C1286 1.363 . S
C1287 C1290 1.363 . S
N1288 C1290 1.356 . S
N1288 H1300 0.984 . S
N1288 H1301 0.985 . S
N1289 C1291 1.356 . S
N1289 H1294 0.984 . S
N1289 H1295 0.985 . S
C1290 C1284 1.379 . S
C1290 C1287 1.363 . S
C1290 N1288 1.356 . S
C1291 C1285 1.363 . S
C1291 C1286 1.379 . S
C1291 N1289 1.356 . S
N1292 C1284 1.356 . S
N1292 H1298 0.984 . S
N1292 H1299 0.984 . S
N1293 C1286 1.356 . S
N1293 H1296 0.984 . S
N1293 H1297 0.985 . S
H1294 N1289 0.984 . S
H1295 N1289 0.985 . S
H1296 N1293 0.984 . S
H1297 N1293 0.985 . S
H1298 N1292 0.984 . S
H1299 N1292 0.984 . S
H1300 N1288 0.984 . S
H1301 N1288 0.985 . S
C1302 C1303 1.363 . S
C1302 C1308 1.379 . S
C1302 N1310 1.356 . S
C1303 C1302 1.363 . S
C1303 C1309 1.363 . S
C1304 C1305 1.363 . S
C1304 C1309 1.379 . S
C1304 N1311 1.356 . S
C1305 C1304 1.363 . S
C1305 C1308 1.363 . S
N1306 C1308 1.356 . S
N1306 H1318 0.984 . S
N1306 H1319 0.985 . S
N1307 C1309 1.356 . S
N1307 H1312 0.984 . S
N1307 H1313 0.985 . S
C1308 C1302 1.379 . S
C1308 C1305 1.363 . S
C1308 N1306 1.356 . S
C1309 C1303 1.363 . S
C1309 C1304 1.379 . S
C1309 N1307 1.356 . S
N1310 C1302 1.356 . S
N1310 H1316 0.984 . S
N1310 H1317 0.984 . S
N1311 C1304 1.356 . S
N1311 H1314 0.984 . S
N1311 H1315 0.985 . S
H1312 N1307 0.984 . S
H1313 N1307 0.985 . S
H1314 N1311 0.984 . S
H1315 N1311 0.985 . S
H1316 N1310 0.984 . S
H1317 N1310 0.984 . S
H1318 N1306 0.984 . S
H1319 N1306 0.985 . S
C1320 C1321 1.363 . S
C1320 C1326 1.379 . S
C1320 N1328 1.356 . S
C1321 C1320 1.363 . S
C1321 C1327 1.363 . S
C1322 C1323 1.363 . S
C1322 C1327 1.379 . S
C1322 N1329 1.356 . S
C1323 C1322 1.363 . S
C1323 C1326 1.363 . S
N1324 C1326 1.356 . S
N1324 H1336 0.984 . S
N1324 H1337 0.985 . S
N1325 C1327 1.356 . S
N1325 H1330 0.984 . S
N1325 H1331 0.985 . S
C1326 C1320 1.379 . S
C1326 C1323 1.363 . S
C1326 N1324 1.356 . S
C1327 C1321 1.363 . S
C1327 C1322 1.379 . S
C1327 N1325 1.356 . S
N1328 C1320 1.356 . S
N1328 H1334 0.984 . S
N1328 H1335 0.984 . S
N1329 C1322 1.356 . S
N1329 H1332 0.984 . S
N1329 H1333 0.985 . S
H1330 N1325 0.984 . S
H1331 N1325 0.985 . S
H1332 N1329 0.984 . S
H1333 N1329 0.985 . S
H1334 N1328 0.984 . S
H1335 N1328 0.984 . S
H1336 N1324 0.984 . S
H1337 N1324 0.985 . S
C1338 C1339 1.363 . S
C1338 C1344 1.379 . S
C1338 N1346 1.356 . S
C1339 C1338 1.363 . S
C1339 C1345 1.363 . S
C1340 C1341 1.363 . S
C1340 C1345 1.379 . S
C1340 N1347 1.356 . S
C1341 C1340 1.363 . S
C1341 C1344 1.363 . S
N1342 C1344 1.356 . S
N1342 H1354 0.984 . S
N1342 H1355 0.985 . S
N1343 C1345 1.356 . S
N1343 H1348 0.984 . S
N1343 H1349 0.985 . S
C1344 C1338 1.379 . S
C1344 C1341 1.363 . S
C1344 N1342 1.356 . S
C1345 C1339 1.363 . S
C1345 C1340 1.379 . S
C1345 N1343 1.356 . S
N1346 C1338 1.356 . S
N1346 H1352 0.984 . S
N1346 H1353 0.984 . S
N1347 C1340 1.356 . S
N1347 H1350 0.984 . S
N1347 H1351 0.985 . S
H1348 N1343 0.984 . S
H1349 N1343 0.985 . S
H1350 N1347 0.984 . S
H1351 N1347 0.985 . S
H1352 N1346 0.984 . S
H1353 N1346 0.984 . S
H1354 N1342 0.984 . S
H1355 N1342 0.985 . S
C1356 C1357 1.363 . S
C1356 C1362 1.379 . S
C1356 N1364 1.356 . S
C1357 C1356 1.363 . S
C1357 C1363 1.363 . S
C1358 C1359 1.363 . S
C1358 C1363 1.379 . S
C1358 N1365 1.356 . S
C1359 C1358 1.363 . S
C1359 C1362 1.363 . S
N1360 C1362 1.356 . S
N1360 H1372 0.984 . S
N1360 H1373 0.985 . S
N1361 C1363 1.356 . S
N1361 H1366 0.984 . S
N1361 H1367 0.985 . S
C1362 C1356 1.379 . S
C1362 C1359 1.363 . S
C1362 N1360 1.356 . S
C1363 C1357 1.363 . S
C1363 C1358 1.379 . S
C1363 N1361 1.356 . S
N1364 C1356 1.356 . S
N1364 H1370 0.984 . S
N1364 H1371 0.984 . S
N1365 C1358 1.356 . S
N1365 H1368 0.984 . S
N1365 H1369 0.985 . S
H1366 N1361 0.984 . S
H1367 N1361 0.985 . S
H1368 N1365 0.984 . S
H1369 N1365 0.985 . S
H1370 N1364 0.984 . S
H1371 N1364 0.984 . S
H1372 N1360 0.984 . S
H1373 N1360 0.985 . S
C1374 C1375 1.363 . S
C1374 C1380 1.379 . S
C1374 N1382 1.356 . S
C1375 C1374 1.363 . S
C1375 C1381 1.363 . S
C1376 C1377 1.363 . S
C1376 C1381 1.379 . S
C1376 N1383 1.356 . S
C1377 C1376 1.363 . S
C1377 C1380 1.363 . S
N1378 C1380 1.356 . S
N1378 H1390 0.984 . S
N1378 H1391 0.985 . S
N1379 C1381 1.356 . S
N1379 H1384 0.984 . S
N1379 H1385 0.985 . S
C1380 C1374 1.379 . S
C1380 C1377 1.363 . S
C1380 N1378 1.356 . S
C1381 C1375 1.363 . S
C1381 C1376 1.379 . S
C1381 N1379 1.356 . S
N1382 C1374 1.356 . S
N1382 H1388 0.984 . S
N1382 H1389 0.984 . S
N1383 C1376 1.356 . S
N1383 H1386 0.984 . S
N1383 H1387 0.985 . S
H1384 N1379 0.984 . S
H1385 N1379 0.985 . S
H1386 N1383 0.984 . S
H1387 N1383 0.985 . S
H1388 N1382 0.984 . S
H1389 N1382 0.984 . S
H1390 N1378 0.984 . S
H1391 N1378 0.985 . S
C1392 C1393 1.363 . S
C1392 C1398 1.379 . S
C1392 N1400 1.356 1_655 S
C1393 C1392 1.363 . S
C1393 C1399 1.363 . S
C1394 C1395 1.363 . S
C1394 C1399 1.379 . S
C1394 N1401 1.356 . S
C1395 C1394 1.363 . S
C1395 C1398 1.363 . S
N1396 C1398 1.356 . S
N1396 H1408 0.984 . S
N1396 H1409 0.985 1_554 S
N1397 C1399 1.356 . S
N1397 H1402 0.984 . S
N1397 H1403 0.985 . S
C1398 C1392 1.379 . S
C1398 C1395 1.363 . S
C1398 N1396 1.356 . S
C1399 C1393 1.363 . S
C1399 C1394 1.379 . S
C1399 N1397 1.356 . S
N1400 C1392 1.356 1_455 S
N1400 H1406 0.984 . S
N1400 H1407 0.984 . S
N1401 C1394 1.356 . S
N1401 H1404 0.984 . S
N1401 H1405 0.985 . S
H1402 N1397 0.984 . S
H1403 N1397 0.985 . S
H1404 N1401 0.984 . S
H1405 N1401 0.985 . S
H1406 N1400 0.984 . S
H1407 N1400 0.984 . S
H1408 N1396 0.984 . S
H1409 N1396 0.985 1_556 S
C1410 C1411 1.363 . S
C1410 C1416 1.379 . S
C1410 N1418 1.356 . S
C1411 C1410 1.363 . S
C1411 C1417 1.363 . S
C1412 C1413 1.363 . S
C1412 C1417 1.379 . S
C1412 N1419 1.356 . S
C1413 C1412 1.363 . S
C1413 C1416 1.363 . S
N1414 C1416 1.356 . S
N1414 H1426 0.984 . S
N1414 H1427 0.985 . S
N1415 C1417 1.356 . S
N1415 H1420 0.984 . S
N1415 H1421 0.985 . S
C1416 C1410 1.379 . S
C1416 C1413 1.363 . S
C1416 N1414 1.356 . S
C1417 C1411 1.363 . S
C1417 C1412 1.379 . S
C1417 N1415 1.356 . S
N1418 C1410 1.356 . S
N1418 H1424 0.984 . S
N1418 H1425 0.984 . S
N1419 C1412 1.356 . S
N1419 H1422 0.984 . S
N1419 H1423 0.985 . S
H1420 N1415 0.984 . S
H1421 N1415 0.985 . S
H1422 N1419 0.984 . S
H1423 N1419 0.985 . S
H1424 N1418 0.984 . S
H1425 N1418 0.984 . S
H1426 N1414 0.984 . S
H1427 N1414 0.985 . S
C1428 C1429 1.363 . S
C1428 C1434 1.379 . S
C1428 N1436 1.356 1_556 S
C1429 C1428 1.363 . S
C1429 C1435 1.363 . S
C1430 C1431 1.363 . S
C1430 C1435 1.379 . S
C1430 N1437 1.356 . S
C1431 C1430 1.363 . S
C1431 C1434 1.363 . S
N1432 C1434 1.356 . S
N1432 H1444 0.984 . S
N1432 H1445 0.985 . S
N1433 C1435 1.356 . S
N1433 H1438 0.984 . S
N1433 H1439 0.985 . S
C1434 C1428 1.379 . S
C1434 C1431 1.363 . S
C1434 N1432 1.356 . S
C1435 C1429 1.363 . S
C1435 C1430 1.379 . S
C1435 N1433 1.356 . S
N1436 C1428 1.356 1_554 S
N1436 H1442 0.984 . S
N1436 H1443 0.984 . S
N1437 C1430 1.356 . S
N1437 H1440 0.984 . S
N1437 H1441 0.985 . S
H1438 N1433 0.984 . S
H1439 N1433 0.985 . S
H1440 N1437 0.984 . S
H1441 N1437 0.985 . S
H1442 N1436 0.984 . S
H1443 N1436 0.984 . S
H1444 N1432 0.984 . S
H1445 N1432 0.985 . S
C1446 C1447 1.363 . S
C1446 C1452 1.379 . S
C1446 N1454 1.356 . S
C1447 C1446 1.363 . S
C1447 C1453 1.363 . S
C1448 C1449 1.363 . S
C1448 C1453 1.379 . S
C1448 N1455 1.356 . S
C1449 C1448 1.363 . S
C1449 C1452 1.363 . S
N1450 C1452 1.356 1_655 S
N1450 H1462 0.984 . S
N1450 H1463 0.985 . S
N1451 C1453 1.356 . S
N1451 H1456 0.984 . S
N1451 H1457 0.985 . S
C1452 C1446 1.379 . S
C1452 C1449 1.363 . S
C1452 N1450 1.356 1_455 S
C1453 C1447 1.363 . S
C1453 C1448 1.379 . S
C1453 N1451 1.356 . S
N1454 C1446 1.356 . S
N1454 H1460 0.984 . S
N1454 H1461 0.984 . S
N1455 C1448 1.356 . S
N1455 H1458 0.984 . S
N1455 H1459 0.985 . S
H1456 N1451 0.984 . S
H1457 N1451 0.985 . S
H1458 N1455 0.984 . S
H1459 N1455 0.985 . S
H1460 N1454 0.984 . S
H1461 N1454 0.984 . S
H1462 N1450 0.984 . S
H1463 N1450 0.985 . S
C1464 C1465 1.363 . S
C1464 C1470 1.379 . S
C1464 N1472 1.356 . S
C1465 C1464 1.363 . S
C1465 C1471 1.363 . S
C1466 C1467 1.363 . S
C1466 C1471 1.379 . S
C1466 N1473 1.356 . S
C1467 C1466 1.363 . S
C1467 C1470 1.363 . S
N1468 C1470 1.356 . S
N1468 H1480 0.984 . S
N1468 H1481 0.985 . S
N1469 C1471 1.356 1_545 S
N1469 H1474 0.984 . S
N1469 H1475 0.985 . S
C1470 C1464 1.379 . S
C1470 C1467 1.363 . S
C1470 N1468 1.356 . S
C1471 C1465 1.363 . S
C1471 C1466 1.379 . S
C1471 N1469 1.356 1_565 S
N1472 C1464 1.356 . S
N1472 H1478 0.984 . S
N1472 H1479 0.984 . S
N1473 C1466 1.356 . S
N1473 H1476 0.984 1_455 S
N1473 H1477 0.985 . S
H1474 N1469 0.984 . S
H1475 N1469 0.985 . S
H1476 N1473 0.984 1_655 S
H1477 N1473 0.985 . S
H1478 N1472 0.984 . S
H1479 N1472 0.984 . S
H1480 N1468 0.984 . S
H1481 N1468 0.985 . S
C1482 C1483 1.363 . S
C1482 C1488 1.379 . S
C1482 N1490 1.356 . S
C1483 C1482 1.363 . S
C1483 C1489 1.363 . S
C1484 C1485 1.363 . S
C1484 C1489 1.379 . S
C1484 N1491 1.356 . S
C1485 C1484 1.363 . S
C1485 C1488 1.363 . S
N1486 C1488 1.356 1_565 S
N1486 H1498 0.984 . S
N1486 H1499 0.985 . S
N1487 C1489 1.356 . S
N1487 H1492 0.984 . S
N1487 H1493 0.985 . S
C1488 C1482 1.379 . S
C1488 C1485 1.363 . S
C1488 N1486 1.356 1_545 S
C1489 C1483 1.363 . S
C1489 C1484 1.379 . S
C1489 N1487 1.356 . S
N1490 C1482 1.356 . S
N1490 H1496 0.984 . S
N1490 H1497 0.984 . S
N1491 C1484 1.356 . S
N1491 H1494 0.984 . S
N1491 H1495 0.985 . S
H1492 N1487 0.984 . S
H1493 N1487 0.985 . S
H1494 N1491 0.984 . S
H1495 N1491 0.985 . S
H1496 N1490 0.984 . S
H1497 N1490 0.984 . S
H1498 N1486 0.984 . S
H1499 N1486 0.985 . S
C1500 C1501 1.363 . S
C1500 C1506 1.379 . S
C1500 N1508 1.356 . S
C1501 C1500 1.363 . S
C1501 C1507 1.363 . S
C1502 C1503 1.363 . S
C1502 C1507 1.379 . S
C1502 N1509 1.356 . S
C1503 C1502 1.363 . S
C1503 C1506 1.363 . S
N1504 C1506 1.356 . S
N1504 H1516 0.984 . S
N1504 H1517 0.985 . S
N1505 C1507 1.356 . S
N1505 H1510 0.984 . S
N1505 H1511 0.985 . S
C1506 C1500 1.379 . S
C1506 C1503 1.363 . S
C1506 N1504 1.356 . S
C1507 C1501 1.363 . S
C1507 C1502 1.379 . S
C1507 N1505 1.356 . S
N1508 C1500 1.356 . S
N1508 H1514 0.984 . S
N1508 H1515 0.984 . S
N1509 C1502 1.356 . S
N1509 H1512 0.984 . S
N1509 H1513 0.985 . S
H1510 N1505 0.984 . S
H1511 N1505 0.985 . S
H1512 N1509 0.984 . S
H1513 N1509 0.985 . S
H1514 N1508 0.984 . S
H1515 N1508 0.984 . S
H1516 N1504 0.984 . S
H1517 N1504 0.985 . S
C1518 C1519 1.363 . S
C1518 C1524 1.379 . S
C1518 N1526 1.356 . S
C1519 C1518 1.363 . S
C1519 C1525 1.363 . S
C1520 C1521 1.363 . S
C1520 C1525 1.379 . S
C1520 N1527 1.356 . S
C1521 C1520 1.363 . S
C1521 C1524 1.363 . S
N1522 C1524 1.356 . S
N1522 H1534 0.984 . S
N1522 H1535 0.985 . S
N1523 C1525 1.356 . S
N1523 H1528 0.984 1_655 S
N1523 H1529 0.985 . S
C1524 C1518 1.379 . S
C1524 C1521 1.363 . S
C1524 N1522 1.356 . S
C1525 C1519 1.363 . S
C1525 C1520 1.379 . S
C1525 N1523 1.356 . S
N1526 C1518 1.356 . S
N1526 H1532 0.984 . S
N1526 H1533 0.984 . S
N1527 C1520 1.356 . S
N1527 H1530 0.984 . S
N1527 H1531 0.985 . S
H1528 N1523 0.984 1_455 S
H1529 N1523 0.985 . S
H1530 N1527 0.984 . S
H1531 N1527 0.985 . S
H1532 N1526 0.984 . S
H1533 N1526 0.984 . S
H1534 N1522 0.984 . S
H1535 N1522 0.985 . S
C1536 C1537 1.363 . S
C1536 C1542 1.379 . S
C1536 N1544 1.356 1_556 S
C1537 C1536 1.363 . S
C1537 C1543 1.363 . S
C1538 C1539 1.363 . S
C1538 C1543 1.379 . S
C1538 N1545 1.356 . S
C1539 C1538 1.363 . S
C1539 C1542 1.363 . S
N1540 C1542 1.356 1_565 S
N1540 H1552 0.984 . S
N1540 H1553 0.985 . S
N1541 C1543 1.356 . S
N1541 H1546 0.984 . S
N1541 H1547 0.985 . S
C1542 C1536 1.379 . S
C1542 C1539 1.363 . S
C1542 N1540 1.356 1_545 S
C1543 C1537 1.363 . S
C1543 C1538 1.379 . S
C1543 N1541 1.356 . S
N1544 C1536 1.356 1_554 S
N1544 H1550 0.984 . S
N1544 H1551 0.984 . S
N1545 C1538 1.356 . S
N1545 H1548 0.984 . S
N1545 H1549 0.985 . S
H1546 N1541 0.984 . S
H1547 N1541 0.985 . S
H1548 N1545 0.984 . S
H1549 N1545 0.985 . S
H1550 N1544 0.984 . S
H1551 N1544 0.984 . S
H1552 N1540 0.984 . S
H1553 N1540 0.985 . S
C1554 C1555 1.363 . S
C1554 C1560 1.379 . S
C1554 N1562 1.356 1_554 S
C1555 C1554 1.363 . S
C1555 C1561 1.363 . S
C1556 C1557 1.363 . S
C1556 C1561 1.379 . S
C1556 N1563 1.356 . S
C1557 C1556 1.363 . S
C1557 C1560 1.363 . S
N1558 C1560 1.356 . S
N1558 H1570 0.984 . S
N1558 H1571 0.985 . S
N1559 C1561 1.356 . S
N1559 H1564 0.984 . S
N1559 H1565 0.985 . S
C1560 C1554 1.379 . S
C1560 C1557 1.363 . S
C1560 N1558 1.356 . S
C1561 C1555 1.363 . S
C1561 C1556 1.379 . S
C1561 N1559 1.356 . S
N1562 C1554 1.356 1_556 S
N1562 H1568 0.984 . S
N1562 H1569 0.984 . S
N1563 C1556 1.356 . S
N1563 H1566 0.984 . S
N1563 H1567 0.985 . S
H1564 N1559 0.984 . S
H1565 N1559 0.985 . S
H1566 N1563 0.984 . S
H1567 N1563 0.985 . S
H1568 N1562 0.984 . S
H1569 N1562 0.984 . S
H1570 N1558 0.984 . S
H1571 N1558 0.985 . S
C1572 C1573 1.363 . S
C1572 C1578 1.379 . S
C1572 N1580 1.356 . S
C1573 C1572 1.363 . S
C1573 C1579 1.363 . S
C1574 C1575 1.363 . S
C1574 C1579 1.379 . S
C1574 N1581 1.356 . S
C1575 C1574 1.363 . S
C1575 C1578 1.363 . S
N1576 C1578 1.356 . S
N1576 H1588 0.984 . S
N1576 H1589 0.985 . S
N1577 C1579 1.356 . S
N1577 H1582 0.984 . S
N1577 H1583 0.985 . S
C1578 C1572 1.379 . S
C1578 C1575 1.363 . S
C1578 N1576 1.356 . S
C1579 C1573 1.363 . S
C1579 C1574 1.379 . S
C1579 N1577 1.356 . S
N1580 C1572 1.356 . S
N1580 H1586 0.984 . S
N1580 H1587 0.984 . S
N1581 C1574 1.356 . S
N1581 H1584 0.984 . S
N1581 H1585 0.985 . S
H1582 N1577 0.984 . S
H1583 N1577 0.985 . S
H1584 N1581 0.984 . S
H1585 N1581 0.985 . S
H1586 N1580 0.984 . S
H1587 N1580 0.984 . S
H1588 N1576 0.984 . S
H1589 N1576 0.985 . S
C1590 C1591 1.363 . S
C1590 C1596 1.379 . S
C1590 N1598 1.356 . S
C1591 C1590 1.363 . S
C1591 C1597 1.363 . S
C1592 C1593 1.363 . S
C1592 C1597 1.379 . S
C1592 N1599 1.356 1_565 S
C1593 C1592 1.363 . S
C1593 C1596 1.363 . S
N1594 C1596 1.356 . S
N1594 H1606 0.984 . S
N1594 H1607 0.985 . S
N1595 C1597 1.356 . S
N1595 H1600 0.984 . S
N1595 H1601 0.985 . S
C1596 C1590 1.379 . S
C1596 C1593 1.363 . S
C1596 N1594 1.356 . S
C1597 C1591 1.363 . S
C1597 C1592 1.379 . S
C1597 N1595 1.356 . S
N1598 C1590 1.356 . S
N1598 H1604 0.984 . S
N1598 H1605 0.984 . S
N1599 C1592 1.356 1_545 S
N1599 H1602 0.984 . S
N1599 H1603 0.985 . S
H1600 N1595 0.984 . S
H1601 N1595 0.985 . S
H1602 N1599 0.984 . S
H1603 N1599 0.985 . S
H1604 N1598 0.984 . S
H1605 N1598 0.984 . S
H1606 N1594 0.984 . S
H1607 N1594 0.985 . S
C1608 C1609 1.363 . S
C1608 C1614 1.379 . S
C1608 N1616 1.356 . S
C1609 C1608 1.363 . S
C1609 C1615 1.363 . S
C1610 C1611 1.363 . S
C1610 C1615 1.379 . S
C1610 N1617 1.356 1_556 S
C1611 C1610 1.363 . S
C1611 C1614 1.363 . S
N1612 C1614 1.356 . S
N1612 H1624 0.984 . S
N1612 H1625 0.985 . S
N1613 C1615 1.356 1_655 S
N1613 H1618 0.984 . S
N1613 H1619 0.985 . S
C1614 C1608 1.379 . S
C1614 C1611 1.363 . S
C1614 N1612 1.356 . S
C1615 C1609 1.363 . S
C1615 C1610 1.379 . S
C1615 N1613 1.356 1_455 S
N1616 C1608 1.356 . S
N1616 H1622 0.984 . S
N1616 H1623 0.984 . S
N1617 C1610 1.356 1_554 S
N1617 H1620 0.984 . S
N1617 H1621 0.985 . S
H1618 N1613 0.984 . S
H1619 N1613 0.985 . S
H1620 N1617 0.984 . S
H1621 N1617 0.985 . S
H1622 N1616 0.984 . S
H1623 N1616 0.984 . S
H1624 N1612 0.984 . S
H1625 N1612 0.985 . S
C1626 C1627 1.363 . S
C1626 C1632 1.379 . S
C1626 N1634 1.356 . S
C1627 C1626 1.363 . S
C1627 C1633 1.363 . S
C1628 C1629 1.363 . S
C1628 C1633 1.379 . S
C1628 N1635 1.356 . S
C1629 C1628 1.363 . S
C1629 C1632 1.363 . S
N1630 C1632 1.356 . S
N1630 H1642 0.984 . S
N1630 H1643 0.985 . S
N1631 C1633 1.356 . S
N1631 H1636 0.984 . S
N1631 H1637 0.985 . S
C1632 C1626 1.379 . S
C1632 C1629 1.363 . S
C1632 N1630 1.356 . S
C1633 C1627 1.363 . S
C1633 C1628 1.379 . S
C1633 N1631 1.356 . S
N1634 C1626 1.356 . S
N1634 H1640 0.984 . S
N1634 H1641 0.984 . S
N1635 C1628 1.356 . S
N1635 H1638 0.984 . S
N1635 H1639 0.985 . S
H1636 N1631 0.984 . S
H1637 N1631 0.985 . S
H1638 N1635 0.984 . S
H1639 N1635 0.985 . S
H1640 N1634 0.984 . S
H1641 N1634 0.984 . S
H1642 N1630 0.984 . S
H1643 N1630 0.985 . S
C1644 C1645 1.363 . S
C1644 C1650 1.379 . S
C1644 N1652 1.356 . S
C1645 C1644 1.363 . S
C1645 C1651 1.363 . S
C1646 C1647 1.363 . S
C1646 C1651 1.379 . S
C1646 N1653 1.356 . S
C1647 C1646 1.363 . S
C1647 C1650 1.363 . S
N1648 C1650 1.356 . S
N1648 H1660 0.984 . S
N1648 H1661 0.985 . S
N1649 C1651 1.356 . S
N1649 H1654 0.984 1_554 S
N1649 H1655 0.985 . S
C1650 C1644 1.379 . S
C1650 C1647 1.363 . S
C1650 N1648 1.356 . S
C1651 C1645 1.363 . S
C1651 C1646 1.379 . S
C1651 N1649 1.356 . S
N1652 C1644 1.356 . S
N1652 H1658 0.984 . S
N1652 H1659 0.984 . S
N1653 C1646 1.356 . S
N1653 H1656 0.984 . S
N1653 H1657 0.985 . S
H1654 N1649 0.984 1_556 S
H1655 N1649 0.985 . S
H1656 N1653 0.984 . S
H1657 N1653 0.985 . S
H1658 N1652 0.984 . S
H1659 N1652 0.984 . S
H1660 N1648 0.984 . S
H1661 N1648 0.985 . S
C1662 C1663 1.363 . S
C1662 C1668 1.379 . S
C1662 N1670 1.356 . S
C1663 C1662 1.363 . S
C1663 C1669 1.363 . S
C1664 C1665 1.363 . S
C1664 C1669 1.379 . S
C1664 N1671 1.356 1_655 S
C1665 C1664 1.363 . S
C1665 C1668 1.363 . S
N1666 C1668 1.356 . S
N1666 H1678 0.984 . S
N1666 H1679 0.985 . S
N1667 C1669 1.356 . S
N1667 H1672 0.984 . S
N1667 H1673 0.985 . S
C1668 C1662 1.379 . S
C1668 C1665 1.363 . S
C1668 N1666 1.356 . S
C1669 C1663 1.363 . S
C1669 C1664 1.379 . S
C1669 N1667 1.356 . S
N1670 C1662 1.356 . S
N1670 H1676 0.984 . S
N1670 H1677 0.984 . S
N1671 C1664 1.356 1_455 S
N1671 H1674 0.984 . S
N1671 H1675 0.985 . S
H1672 N1667 0.984 . S
H1673 N1667 0.985 . S
H1674 N1671 0.984 . S
H1675 N1671 0.985 . S
H1676 N1670 0.984 . S
H1677 N1670 0.984 . S
H1678 N1666 0.984 . S
H1679 N1666 0.985 . S
C1680 C1681 1.363 . S
C1680 C1686 1.379 . S
C1680 N1688 1.356 . S
C1681 C1680 1.363 . S
C1681 C1687 1.363 . S
C1682 C1683 1.363 . S
C1682 C1687 1.379 . S
C1682 N1689 1.356 . S
C1683 C1682 1.363 . S
C1683 C1686 1.363 . S
N1684 C1686 1.380 . S
N1684 H1696 0.981 1_655 S
N1684 H1697 0.966 1_655 S
N1685 C1687 1.356 . S
N1685 H1690 0.984 . S
N1685 H1691 0.985 . S
C1686 C1680 1.379 . S
C1686 C1683 1.363 . S
C1686 N1684 1.380 . S
C1687 C1681 1.363 . S
C1687 C1682 1.379 . S
C1687 N1685 1.356 . S
N1688 C1680 1.356 . S
N1688 H1694 0.984 . S
N1688 H1695 0.984 1_545 S
N1689 C1682 1.356 . S
N1689 H1692 0.984 . S
N1689 H1693 0.985 . S
H1690 N1685 0.984 . S
H1691 N1685 0.985 . S
H1692 N1689 0.984 . S
H1693 N1689 0.985 . S
H1694 N1688 0.984 . S
H1695 N1688 0.984 1_565 S
H1696 N1684 0.981 1_455 S
H1697 N1684 0.966 1_455 S
C1698 C1699 1.363 . S
C1698 C1704 1.379 . S
C1698 N1706 1.356 . S
C1699 C1698 1.363 . S
C1699 C1705 1.363 . S
C1700 C1701 1.363 . S
C1700 C1705 1.379 . S
C1700 N1707 1.356 . S
C1701 C1700 1.363 . S
C1701 C1704 1.363 . S
N1702 C1704 1.356 . S
N1702 H1714 0.984 . S
N1702 H1715 0.985 . S
N1703 C1705 1.356 . S
N1703 H1708 0.984 . S
N1703 H1709 0.985 . S
C1704 C1698 1.379 . S
C1704 C1701 1.363 . S
C1704 N1702 1.356 . S
C1705 C1699 1.363 . S
C1705 C1700 1.379 . S
C1705 N1703 1.356 . S
N1706 C1698 1.356 . S
N1706 H1712 0.984 . S
N1706 H1713 0.984 1_565 S
N1707 C1700 1.356 . S
N1707 H1710 0.984 . S
N1707 H1711 0.985 . S
H1708 N1703 0.984 . S
H1709 N1703 0.985 . S
H1710 N1707 0.984 . S
H1711 N1707 0.985 . S
H1712 N1706 0.984 . S
H1713 N1706 0.984 1_545 S
H1714 N1702 0.984 . S
H1715 N1702 0.985 . S
C1716 C1717 1.363 . S
C1716 C1722 1.379 . S
C1716 N1724 1.356 . S
C1717 C1716 1.363 . S
C1717 C1723 1.363 . S
C1718 C1719 1.363 . S
C1718 C1723 1.379 . S
C1718 N1725 1.356 . S
C1719 C1718 1.363 . S
C1719 C1722 1.363 . S
N1720 C1722 1.356 . S
N1720 H1732 0.984 . S
N1720 H1733 0.985 . S
N1721 C1723 1.356 . S
N1721 H1726 0.984 . S
N1721 H1727 0.985 . S
C1722 C1716 1.379 . S
C1722 C1719 1.363 . S
C1722 N1720 1.356 . S
C1723 C1717 1.363 . S
C1723 C1718 1.379 . S
C1723 N1721 1.356 . S
N1724 C1716 1.356 . S
N1724 H1730 0.984 . S
N1724 H1731 0.984 . S
N1725 C1718 1.356 . S
N1725 H1728 0.984 . S
N1725 H1729 0.985 . S
H1726 N1721 0.984 . S
H1727 N1721 0.985 . S
H1728 N1725 0.984 . S
H1729 N1725 0.985 . S
H1730 N1724 0.984 . S
H1731 N1724 0.984 . S
H1732 N1720 0.984 . S
H1733 N1720 0.985 . S
C1734 C1735 1.363 . S
C1734 C1740 1.379 . S
C1734 N1742 1.356 . S
C1735 C1734 1.363 . S
C1735 C1741 1.363 . S
C1736 C1737 1.363 . S
C1736 C1741 1.379 . S
C1736 N1743 1.356 . S
C1737 C1736 1.363 . S
C1737 C1740 1.363 . S
N1738 C1740 1.356 1_655 S
N1738 H1750 0.984 . S
N1738 H1751 0.985 . S
N1739 C1741 1.356 . S
N1739 H1744 0.984 . S
N1739 H1745 0.985 . S
C1740 C1734 1.379 . S
C1740 C1737 1.363 . S
C1740 N1738 1.356 1_455 S
C1741 C1735 1.363 . S
C1741 C1736 1.379 . S
C1741 N1739 1.356 . S
N1742 C1734 1.356 . S
N1742 H1748 0.984 . S
N1742 H1749 0.984 . S
N1743 C1736 1.356 . S
N1743 H1746 0.984 . S
N1743 H1747 0.985 . S
H1744 N1739 0.984 . S
H1745 N1739 0.985 . S
H1746 N1743 0.984 . S
H1747 N1743 0.985 . S
H1748 N1742 0.984 . S
H1749 N1742 0.984 . S
H1750 N1738 0.984 . S
H1751 N1738 0.985 . S
C1752 C1753 1.363 . S
C1752 C1758 1.379 . S
C1752 N1760 1.356 . S
C1753 C1752 1.363 . S
C1753 C1759 1.363 . S
C1754 C1755 1.363 . S
C1754 C1759 1.379 . S
C1754 N1761 1.356 1_565 S
C1755 C1754 1.363 . S
C1755 C1758 1.363 . S
N1756 C1758 1.356 . S
N1756 H1768 0.984 . S
N1756 H1769 0.985 . S
N1757 C1759 1.356 1_556 S
N1757 H1762 0.984 . S
N1757 H1763 0.985 . S
C1758 C1752 1.379 . S
C1758 C1755 1.363 . S
C1758 N1756 1.356 . S
C1759 C1753 1.363 . S
C1759 C1754 1.379 . S
C1759 N1757 1.356 1_554 S
N1760 C1752 1.356 . S
N1760 H1766 0.984 . S
N1760 H1767 0.984 . S
N1761 C1754 1.356 1_545 S
N1761 H1764 0.984 . S
N1761 H1765 0.985 . S
H1762 N1757 0.984 . S
H1763 N1757 0.985 . S
H1764 N1761 0.984 . S
H1765 N1761 0.985 . S
H1766 N1760 0.984 . S
H1767 N1760 0.984 . S
H1768 N1756 0.984 . S
H1769 N1756 0.985 . S
C1770 C1771 1.363 . S
C1770 C1776 1.379 . S
C1770 N1778 1.356 . S
C1771 C1770 1.363 . S
C1771 C1777 1.363 . S
C1772 C1773 1.363 . S
C1772 C1777 1.379 . S
C1772 N1779 1.356 . S
C1773 C1772 1.363 . S
C1773 C1776 1.363 . S
N1774 C1776 1.356 1_554 S
N1774 H1786 0.984 . S
N1774 H1787 0.985 . S
N1775 C1777 1.356 . S
N1775 H1780 0.984 . S
N1775 H1781 0.985 . S
C1776 C1770 1.379 . S
C1776 C1773 1.363 . S
C1776 N1774 1.356 1_556 S
C1777 C1771 1.363 . S
C1777 C1772 1.379 . S
C1777 N1775 1.356 . S
N1778 C1770 1.356 . S
N1778 H1784 0.984 . S
N1778 H1785 0.984 . S
N1779 C1772 1.356 . S
N1779 H1782 0.984 . S
N1779 H1783 0.985 . S
H1780 N1775 0.984 . S
H1781 N1775 0.985 . S
H1782 N1779 0.984 . S
H1783 N1779 0.985 . S
H1784 N1778 0.984 . S
H1785 N1778 0.984 . S
H1786 N1774 0.984 . S
H1787 N1774 0.985 . S
C1788 C1789 1.363 . S
C1788 C1794 1.379 . S
C1788 N1796 1.356 . S
C1789 C1788 1.363 . S
C1789 C1795 1.363 . S
C1790 C1791 1.363 . S
C1790 C1795 1.379 . S
C1790 N1797 1.356 . S
C1791 C1790 1.363 . S
C1791 C1794 1.363 . S
N1792 C1794 1.356 . S
N1792 H1804 0.984 . S
N1792 H1805 0.985 . S
N1793 C1795 1.356 . S
N1793 H1798 0.984 . S
N1793 H1799 0.985 . S
C1794 C1788 1.379 . S
C1794 C1791 1.363 . S
C1794 N1792 1.356 . S
C1795 C1789 1.363 . S
C1795 C1790 1.379 . S
C1795 N1793 1.356 . S
N1796 C1788 1.356 . S
N1796 H1802 0.984 . S
N1796 H1803 0.984 . S
N1797 C1790 1.356 . S
N1797 H1800 0.984 . S
N1797 H1801 0.985 . S
H1798 N1793 0.984 . S
H1799 N1793 0.985 . S
H1800 N1797 0.984 . S
H1801 N1797 0.985 . S
H1802 N1796 0.984 . S
H1803 N1796 0.984 . S
H1804 N1792 0.984 . S
H1805 N1792 0.985 . S
C1806 C1807 1.363 . S
C1806 C1812 1.379 . S
C1806 N1814 1.356 . S
C1807 C1806 1.363 . S
C1807 C1813 1.363 . S
C1808 C1809 1.363 . S
C1808 C1813 1.379 . S
C1808 N1815 1.356 . S
C1809 C1808 1.363 . S
C1809 C1812 1.363 . S
N1810 C1812 1.356 1_565 S
N1810 H1822 0.984 . S
N1810 H1823 0.985 . S
N1811 C1813 1.356 . S
N1811 H1816 0.984 . S
N1811 H1817 0.985 . S
C1812 C1806 1.379 . S
C1812 C1809 1.363 . S
C1812 N1810 1.356 1_545 S
C1813 C1807 1.363 . S
C1813 C1808 1.379 . S
C1813 N1811 1.356 . S
N1814 C1806 1.356 . S
N1814 H1820 0.984 . S
N1814 H1821 0.984 . S
N1815 C1808 1.356 . S
N1815 H1818 0.984 . S
N1815 H1819 0.985 . S
H1816 N1811 0.984 . S
H1817 N1811 0.985 . S
H1818 N1815 0.984 . S
H1819 N1815 0.985 . S
H1820 N1814 0.984 . S
H1821 N1814 0.984 . S
H1822 N1810 0.984 . S
H1823 N1810 0.985 . S
C529 C18 1.675 . S
C531 C417 1.597 . S
C547 C426 1.578 . S
C549 C40 1.632 . S
C565 C52 1.675 . S
C567 C367 1.597 . S
C583 C74 1.676 . S
C585 C389 1.598 . S
C601 C505 1.598 . S
C603 C98 1.675 . S
C619 C118 1.679 . S
C621 C477 1.602 . S
C637 C513 1.594 . S
C639 C140 1.672 . S
C655 C164 1.675 . S
C657 C455 1.597 . S
C673 C186 1.687 . S
C675 C307 1.609 . S
C691 C216 1.677 . S
C693 C345 1.600 . S
C709 C315 1.596 . S
C711 C238 1.673 . S
C727 C250 1.680 . S
C729 C279 1.603 . S
C745 C282 1.666 . S
C747 C139 1.589 . S
C763 C296 1.678 . S
C765 C175 1.600 . S
C781 C316 1.678 . S
C783 C109 1.600 . S
C799 C117 1.594 . S
C801 C348 1.671 . S
C817 C370 1.676 . S
C819 C235 1.598 . S
C835 C213 1.596 . S
C837 C392 1.674 . S
C853 C249 1.596 . S
C855 C406 1.675 . S
C871 C197 1.630 . S
C873 C425 1.708 . S
C889 C37 1.595 . S
C891 C458 1.673 . S
C907 C73 1.592 . S
C909 C480 1.669 . S
C925 C51 1.588 . S
C927 C494 1.665 . S
C943 C514 1.674 . S
C945 C15 1.596 . S
C961 C106 1.318 . S
C963 C10 1.271 . S
C979 C120 1.320 . S
C981 C32 1.273 . S
C997 C142 1.319 . S
C999 C62 1.272 . S
C1015 C172 1.320 . S
C1017 C84 1.273 . S
C1033 C96 1.281 . S
C1035 C194 1.330 . S
C1051 C128 1.269 . S
C1053 C252 1.317 . S
C1069 C150 1.270 . S
C1071 C206 1.317 . S
C1087 C162 1.269 . S
C1089 C228 1.317 . S
C1105 C184 1.271 . S
C1107 C8 1.319 . S
C1123 C208 1.273 . S
C1125 C54 1.321 . S
C1141 C230 1.268 . S
C1143 C76 1.316 . S
C1159 C30 1.330 . S
C1161 C260 1.281 . S
C1177 C360 1.320 . S
C1179 C274 1.272 . S
C1195 C382 1.321 . S
C1197 C294 1.273 . S
C1213 C326 1.275 . S
C1215 C414 1.323 . S
C1231 C340 1.282 . S
C1233 C433 1.359 . S
C1249 C448 1.317 . S
C1251 C362 1.269 . S
C1267 C384 1.271 . S
C1269 C516 1.318 . S
C1285 C470 1.311 . S
C1287 C404 1.263 . S
C1303 C439 1.286 . S
C1305 C502 1.355 . S
C1321 C272 1.312 . S
C1323 C450 1.265 . S
C1339 C472 1.273 . S
C1341 C318 1.320 . S
C1357 C492 1.262 . S
C1359 C338 1.310 . S
C1375 C304 1.326 . S
C1377 C524 1.277 . S
C1393 C21 1.393 . S
C1395 C205 1.389 1_554 S
C1411 C227 1.382 . S
C1413 C43 1.387 . S
C1429 C191 1.388 1_556 S
C1431 C59 1.393 . S
C1447 C263 1.390 . S
C1449 C81 1.395 . S
C1465 C95 1.397 . S
C1467 C87 1.392 1_455 S
C1483 C65 1.394 . S
C1485 C125 1.404 . S
C1501 C147 1.389 . S
C1503 C29 1.384 . S
C1519 C7 1.396 1_655 S
C1521 C161 1.401 . S
C1537 C183 1.390 . S
C1539 C131 1.386 1_545 S
C1555 C219 1.398 . S
C1557 C169 1.393 . S
C1573 C241 1.399 . S
C1575 C153 1.394 . S
C1591 C257 1.400 . S
C1593 C103 1.395 1_565 S
C1609 C285 1.429 . S
C1611 C469 1.404 1_556 S
C1627 C293 1.408 . S
C1629 C499 1.403 . S
C1645 C447 1.397 1_554 S
C1647 C323 1.401 . S
C1663 C527 1.400 . S
C1665 C351 1.426 . S
C1681 C373 1.417 . S
C1683 C337 1.398 1_655 S
C1699 C395 1.398 . S
C1701 C329 1.394 . S
C1717 C301 1.391 . S
C1719 C403 1.396 . S
C1735 C428 1.366 . S
C1737 C271 1.355 1_455 S
C1753 C461 1.397 . S
C1755 C381 1.393 1_565 S
C1771 C436 1.359 . S
C1773 C483 1.386 . S
C1789 C491 1.402 . S
C1791 C411 1.397 . S
C1807 C521 1.395 . S
C1809 C359 1.390 1_545 S
