# Generated by pormake.
# Topology ukc, (4)-cn, num edge types: 1
# Building blocks:
#     Node 0, Type 0, BuildingBlock: CEKHIL_clean_sbu_0, # of connection points: 4
#     Node 1, Type 0, BuildingBlock: CEKHIL_clean_sbu_0, # of connection points: 4
#     Node 2, Type 0, BuildingBlock: CEKHIL_clean_sbu_0, # of connection points: 4
#     Node 3, Type 0, BuildingBlock: CEKHIL_clean_sbu_0, # of connection points: 4
#     Node 4, Type 0, BuildingBlock: CEKHIL_clean_sbu_0, # of connection points: 4
#     Node 5, Type 0, BuildingBlock: CEKHIL_clean_sbu_0, # of connection points: 4
#     Node 6, Type 0, BuildingBlock: CEKHIL_clean_sbu_0, # of connection points: 4
#     Node 7, Type 0, BuildingBlock: CEKHIL_clean_sbu_0, # of connection points: 4
#     Node 8, Type 0, BuildingBlock: CEKHIL_clean_sbu_0, # of connection points: 4
#     Node 9, Type 0, BuildingBlock: CEKHIL_clean_sbu_0, # of connection points: 4
#     Node 10, Type 0, BuildingBlock: CEKHIL_clean_sbu_0, # of connection points: 4
#     Node 11, Type 0, BuildingBlock: CEKHIL_clean_sbu_0, # of connection points: 4
#     Node 12, Type 0, BuildingBlock: CEKHIL_clean_sbu_0, # of connection points: 4
#     Node 13, Type 0, BuildingBlock: CEKHIL_clean_sbu_0, # of connection points: 4
#     Node 14, Type 0, BuildingBlock: CEKHIL_clean_sbu_0, # of connection points: 4
#     Node 15, Type 0, BuildingBlock: CEKHIL_clean_sbu_0, # of connection points: 4
#     Node 16, Type 0, BuildingBlock: CEKHIL_clean_sbu_0, # of connection points: 4
#     Node 17, Type 0, BuildingBlock: CEKHIL_clean_sbu_0, # of connection points: 4
#     Node 18, Type 0, BuildingBlock: CEKHIL_clean_sbu_0, # of connection points: 4
#     Node 19, Type 0, BuildingBlock: CEKHIL_clean_sbu_0, # of connection points: 4
#     Node 20, Type 0, BuildingBlock: CEKHIL_clean_sbu_0, # of connection points: 4
#     Node 21, Type 0, BuildingBlock: CEKHIL_clean_sbu_0, # of connection points: 4
#     Node 22, Type 0, BuildingBlock: CEKHIL_clean_sbu_0, # of connection points: 4
#     Node 23, Type 0, BuildingBlock: CEKHIL_clean_sbu_0, # of connection points: 4
#     Node 24, Type 0, BuildingBlock: CEKHIL_clean_sbu_0, # of connection points: 4
#     Node 25, Type 0, BuildingBlock: CEKHIL_clean_sbu_0, # of connection points: 4
#     Node 26, Type 0, BuildingBlock: CEKHIL_clean_sbu_0, # of connection points: 4
#     Node 27, Type 0, BuildingBlock: CEKHIL_clean_sbu_0, # of connection points: 4
#     Node 28, Type 0, BuildingBlock: CEKHIL_clean_sbu_0, # of connection points: 4
#     Node 29, Type 0, BuildingBlock: CEKHIL_clean_sbu_0, # of connection points: 4
#     Node 30, Type 0, BuildingBlock: CEKHIL_clean_sbu_0, # of connection points: 4
#     Node 31, Type 0, BuildingBlock: CEKHIL_clean_sbu_0, # of connection points: 4
#     Edge 32, Type (0, 0), BuildingBlock: KIFKEQ_clean_linker_1, # of connection points: 2
#     Edge 33, Type (0, 0), BuildingBlock: KIFKEQ_clean_linker_1, # of connection points: 2
#     Edge 34, Type (0, 0), BuildingBlock: KIFKEQ_clean_linker_1, # of connection points: 2
#     Edge 35, Type (0, 0), BuildingBlock: KIFKEQ_clean_linker_1, # of connection points: 2
#     Edge 36, Type (0, 0), BuildingBlock: KIFKEQ_clean_linker_1, # of connection points: 2
#     Edge 37, Type (0, 0), BuildingBlock: KIFKEQ_clean_linker_1, # of connection points: 2
#     Edge 38, Type (0, 0), BuildingBlock: KIFKEQ_clean_linker_1, # of connection points: 2
#     Edge 39, Type (0, 0), BuildingBlock: KIFKEQ_clean_linker_1, # of connection points: 2
#     Edge 40, Type (0, 0), BuildingBlock: KIFKEQ_clean_linker_1, # of connection points: 2
#     Edge 41, Type (0, 0), BuildingBlock: KIFKEQ_clean_linker_1, # of connection points: 2
#     Edge 42, Type (0, 0), BuildingBlock: KIFKEQ_clean_linker_1, # of connection points: 2
#     Edge 43, Type (0, 0), BuildingBlock: KIFKEQ_clean_linker_1, # of connection points: 2
#     Edge 44, Type (0, 0), BuildingBlock: KIFKEQ_clean_linker_1, # of connection points: 2
#     Edge 45, Type (0, 0), BuildingBlock: KIFKEQ_clean_linker_1, # of connection points: 2
#     Edge 46, Type (0, 0), BuildingBlock: KIFKEQ_clean_linker_1, # of connection points: 2
#     Edge 47, Type (0, 0), BuildingBlock: KIFKEQ_clean_linker_1, # of connection points: 2
#     Edge 48, Type (0, 0), BuildingBlock: KIFKEQ_clean_linker_1, # of connection points: 2
#     Edge 49, Type (0, 0), BuildingBlock: KIFKEQ_clean_linker_1, # of connection points: 2
#     Edge 50, Type (0, 0), BuildingBlock: KIFKEQ_clean_linker_1, # of connection points: 2
#     Edge 51, Type (0, 0), BuildingBlock: KIFKEQ_clean_linker_1, # of connection points: 2
#     Edge 52, Type (0, 0), BuildingBlock: KIFKEQ_clean_linker_1, # of connection points: 2
#     Edge 53, Type (0, 0), BuildingBlock: KIFKEQ_clean_linker_1, # of connection points: 2
#     Edge 54, Type (0, 0), BuildingBlock: KIFKEQ_clean_linker_1, # of connection points: 2
#     Edge 55, Type (0, 0), BuildingBlock: KIFKEQ_clean_linker_1, # of connection points: 2
#     Edge 56, Type (0, 0), BuildingBlock: KIFKEQ_clean_linker_1, # of connection points: 2
#     Edge 57, Type (0, 0), BuildingBlock: KIFKEQ_clean_linker_1, # of connection points: 2
#     Edge 58, Type (0, 0), BuildingBlock: KIFKEQ_clean_linker_1, # of connection points: 2
#     Edge 59, Type (0, 0), BuildingBlock: KIFKEQ_clean_linker_1, # of connection points: 2
#     Edge 60, Type (0, 0), BuildingBlock: KIFKEQ_clean_linker_1, # of connection points: 2
#     Edge 61, Type (0, 0), BuildingBlock: KIFKEQ_clean_linker_1, # of connection points: 2
#     Edge 62, Type (0, 0), BuildingBlock: KIFKEQ_clean_linker_1, # of connection points: 2
#     Edge 63, Type (0, 0), BuildingBlock: KIFKEQ_clean_linker_1, # of connection points: 2
#     Edge 64, Type (0, 0), BuildingBlock: KIFKEQ_clean_linker_1, # of connection points: 2
#     Edge 65, Type (0, 0), BuildingBlock: KIFKEQ_clean_linker_1, # of connection points: 2
#     Edge 66, Type (0, 0), BuildingBlock: KIFKEQ_clean_linker_1, # of connection points: 2
#     Edge 67, Type (0, 0), BuildingBlock: KIFKEQ_clean_linker_1, # of connection points: 2
#     Edge 68, Type (0, 0), BuildingBlock: KIFKEQ_clean_linker_1, # of connection points: 2
#     Edge 69, Type (0, 0), BuildingBlock: KIFKEQ_clean_linker_1, # of connection points: 2
#     Edge 70, Type (0, 0), BuildingBlock: KIFKEQ_clean_linker_1, # of connection points: 2
#     Edge 71, Type (0, 0), BuildingBlock: KIFKEQ_clean_linker_1, # of connection points: 2
#     Edge 72, Type (0, 0), BuildingBlock: KIFKEQ_clean_linker_1, # of connection points: 2
#     Edge 73, Type (0, 0), BuildingBlock: KIFKEQ_clean_linker_1, # of connection points: 2
#     Edge 74, Type (0, 0), BuildingBlock: KIFKEQ_clean_linker_1, # of connection points: 2
#     Edge 75, Type (0, 0), BuildingBlock: KIFKEQ_clean_linker_1, # of connection points: 2
#     Edge 76, Type (0, 0), BuildingBlock: KIFKEQ_clean_linker_1, # of connection points: 2
#     Edge 77, Type (0, 0), BuildingBlock: KIFKEQ_clean_linker_1, # of connection points: 2
#     Edge 78, Type (0, 0), BuildingBlock: KIFKEQ_clean_linker_1, # of connection points: 2
#     Edge 79, Type (0, 0), BuildingBlock: KIFKEQ_clean_linker_1, # of connection points: 2
#     Edge 80, Type (0, 0), BuildingBlock: KIFKEQ_clean_linker_1, # of connection points: 2
#     Edge 81, Type (0, 0), BuildingBlock: KIFKEQ_clean_linker_1, # of connection points: 2
#     Edge 82, Type (0, 0), BuildingBlock: KIFKEQ_clean_linker_1, # of connection points: 2
#     Edge 83, Type (0, 0), BuildingBlock: KIFKEQ_clean_linker_1, # of connection points: 2
#     Edge 84, Type (0, 0), BuildingBlock: KIFKEQ_clean_linker_1, # of connection points: 2
#     Edge 85, Type (0, 0), BuildingBlock: KIFKEQ_clean_linker_1, # of connection points: 2
#     Edge 86, Type (0, 0), BuildingBlock: KIFKEQ_clean_linker_1, # of connection points: 2
#     Edge 87, Type (0, 0), BuildingBlock: KIFKEQ_clean_linker_1, # of connection points: 2
#     Edge 88, Type (0, 0), BuildingBlock: KIFKEQ_clean_linker_1, # of connection points: 2
#     Edge 89, Type (0, 0), BuildingBlock: KIFKEQ_clean_linker_1, # of connection points: 2
#     Edge 90, Type (0, 0), BuildingBlock: KIFKEQ_clean_linker_1, # of connection points: 2
#     Edge 91, Type (0, 0), BuildingBlock: KIFKEQ_clean_linker_1, # of connection points: 2
#     Edge 92, Type (0, 0), BuildingBlock: KIFKEQ_clean_linker_1, # of connection points: 2
#     Edge 93, Type (0, 0), BuildingBlock: KIFKEQ_clean_linker_1, # of connection points: 2
#     Edge 94, Type (0, 0), BuildingBlock: KIFKEQ_clean_linker_1, # of connection points: 2
#     Edge 95, Type (0, 0), BuildingBlock: KIFKEQ_clean_linker_1, # of connection points: 2
# Relax obj value: 0.050
# Max RMSD: 0.067
# Mean RMSD: 0.066
data_MOF--net-ukc--node1-CEKHIL_clean_sbu_0--edge1-KIFKEQ_clean_linker_1
_symmetry_space_group_name_H-M    P1
_symmetry_Int_Tables_number       1
_symmetry_cell_setting            triclinic
loop_
_symmetry_equiv_pos_as_xyz
'x, y, z'
_cell_length_a     45.05655
_cell_length_b     45.061157
_cell_length_c     86.920941
_cell_angle_alpha  90.000071
_cell_angle_beta   89.99689
_cell_angle_gamma 89.999556
loop_
_atom_site_label
_atom_site_type_symbol
_atom_site_fract_x
_atom_site_fract_y
_atom_site_fract_z
_atom_type_partial_charge
Co0 Co 0.11632 0.39228 0.04468 0.0
O1 O 0.15086 0.41632 0.03985 0.0
O2 O 0.137 0.37701 0.02661 0.0
C3 C 0.12587 0.38867 0.07018 0.0
O4 O 0.08331 0.3609 0.04648 0.0
Co5 Co 0.06756 0.41379 0.06773 0.0
O6 O 0.0531 0.37231 0.06624 0.0
C7 C 0.07097 0.43957 0.03653 0.0
C8 C 0.15647 0.39797 0.02873 0.0
C9 C 0.06158 0.35465 0.05564 0.0
O10 O 0.08945 0.41933 0.03205 0.0
O11 O 0.0627 0.4428 0.05052 0.0
O12 O 0.13914 0.37106 0.06054 0.0
O13 O 0.10937 0.40874 0.06407 0.0
Co14 Co 0.86803 0.86816 0.29531 0.0
O15 O 0.84324 0.90247 0.29089 0.0
O16 O 0.88179 0.88888 0.27697 0.0
C17 C 0.87294 0.87798 0.32075 0.0
O18 O 0.90031 0.83587 0.29641 0.0
Co19 Co 0.85055 0.819 0.31906 0.0
O20 O 0.89133 0.80403 0.31582 0.0
C21 C 0.82124 0.82161 0.28848 0.0
C22 C 0.86088 0.90821 0.27946 0.0
C23 C 0.90769 0.81354 0.30493 0.0
O24 O 0.84017 0.84084 0.28329 0.0
O25 O 0.8204 0.8134 0.30257 0.0
O26 O 0.88987 0.8914 0.31084 0.0
O27 O 0.85307 0.86087 0.31499 0.0
Co28 Co 0.39938 0.6214 0.54493 0.0
O29 O 0.3647 0.59685 0.54126 0.0
O30 O 0.37775 0.63492 0.52682 0.0
C31 C 0.39172 0.62693 0.57049 0.0
O32 O 0.43193 0.65336 0.54557 0.0
Co33 Co 0.45027 0.60148 0.5671 0.0
O34 O 0.46559 0.64223 0.56385 0.0
C35 C 0.44405 0.57342 0.53674 0.0
C36 C 0.35849 0.61417 0.52977 0.0
C37 C 0.45523 0.65964 0.55361 0.0
O38 O 0.42568 0.59378 0.53231 0.0
O39 O 0.45309 0.57075 0.55062 0.0
O40 O 0.37717 0.64332 0.56076 0.0
O41 O 0.4081 0.60662 0.56449 0.0
Co42 Co 0.6454 0.14956 0.79426 0.0
O43 O 0.67041 0.11522 0.79011 0.0
O44 O 0.63209 0.12859 0.77596 0.0
C45 C 0.6397 0.14034 0.81973 0.0
O46 O 0.61278 0.1816 0.79498 0.0
Co47 Co 0.66203 0.19965 0.81756 0.0
O48 O 0.62137 0.21447 0.81397 0.0
C49 C 0.6924 0.196 0.7874 0.0
C50 C 0.65289 0.10928 0.77863 0.0
C51 C 0.60518 0.2043 0.80318 0.0
O52 O 0.6734 0.17681 0.78223 0.0
O53 O 0.69296 0.20452 0.80144 0.0
O54 O 0.62351 0.12627 0.80973 0.0
O55 O 0.65963 0.15754 0.81406 0.0
Co56 Co 0.11622 0.62045 0.46182 0.0
O57 O 0.15147 0.59664 0.46527 0.0
O58 O 0.13786 0.63424 0.47989 0.0
C59 C 0.12348 0.62621 0.43625 0.0
O60 O 0.08302 0.65167 0.46142 0.0
Co61 Co 0.06558 0.60002 0.43965 0.0
O62 O 0.04966 0.64055 0.443 0.0
C63 C 0.07232 0.57177 0.47001 0.0
C64 C 0.15748 0.6139 0.4768 0.0
C65 C 0.05971 0.65785 0.45338 0.0
O66 O 0.09072 0.59212 0.47444 0.0
O67 O 0.06302 0.5693 0.45617 0.0
O68 O 0.13747 0.64317 0.44594 0.0
O69 O 0.1077 0.60551 0.44229 0.0
Co70 Co 0.64193 0.86554 0.71211 0.0
O71 O 0.66693 0.89979 0.71626 0.0
O72 O 0.62813 0.88701 0.7302 0.0
C73 C 0.63727 0.87433 0.68657 0.0
O74 O 0.60956 0.83333 0.7112 0.0
Co75 Co 0.66029 0.81524 0.68926 0.0
O76 O 0.61976 0.79971 0.69278 0.0
C77 C 0.68895 0.81966 0.71977 0.0
C78 C 0.64931 0.906 0.72764 0.0
C79 C 0.60282 0.81012 0.7032 0.0
O80 O 0.66941 0.83866 0.72453 0.0
O81 O 0.69059 0.81078 0.70582 0.0
O82 O 0.62038 0.88827 0.69631 0.0
O83 O 0.6571 0.8574 0.69255 0.0
Co84 Co 0.40034 0.39242 0.96176 0.0
O85 O 0.36583 0.41695 0.96618 0.0
O86 O 0.37885 0.37761 0.97963 0.0
C87 C 0.39158 0.38872 0.93615 0.0
O88 O 0.43271 0.36026 0.96056 0.0
Co89 Co 0.45055 0.41123 0.93885 0.0
O90 O 0.4651 0.37017 0.94152 0.0
C91 C 0.44952 0.43562 0.97061 0.0
C92 C 0.35962 0.39864 0.97726 0.0
C93 C 0.45535 0.35334 0.95216 0.0
O94 O 0.4272 0.4192 0.97462 0.0
O95 O 0.45994 0.43668 0.95693 0.0
O96 O 0.37775 0.37145 0.94575 0.0
O97 O 0.40843 0.40845 0.94229 0.0
Co98 Co 0.86996 0.15044 0.21168 0.0
O99 O 0.84378 0.11746 0.21673 0.0
O100 O 0.88385 0.12944 0.22986 0.0
C101 C 0.87297 0.13995 0.18619 0.0
O102 O 0.9038 0.18103 0.20992 0.0
Co103 Co 0.85377 0.20018 0.18799 0.0
O104 O 0.89533 0.21308 0.19054 0.0
C105 C 0.82768 0.201 0.21934 0.0
C106 C 0.86197 0.11103 0.22784 0.0
C107 C 0.91172 0.20298 0.20127 0.0
O108 O 0.84451 0.17949 0.22406 0.0
O109 O 0.82659 0.2095 0.20532 0.0
O110 O 0.8894 0.12559 0.19597 0.0
O111 O 0.85438 0.15828 0.19211 0.0
Co112 Co 0.89813 0.61907 0.96284 0.0
O113 O 0.86284 0.59504 0.96595 0.0
O114 O 0.87639 0.63181 0.98111 0.0
C115 C 0.89035 0.6258 0.93732 0.0
O116 O 0.93124 0.65066 0.96291 0.0
Co117 Co 0.94863 0.60156 0.93986 0.0
O118 O 0.96386 0.642 0.94379 0.0
C119 C 0.94279 0.57041 0.96977 0.0
C120 C 0.85669 0.61177 0.97767 0.0
C121 C 0.95407 0.65806 0.95474 0.0
O122 O 0.92383 0.58969 0.97488 0.0
O123 O 0.95205 0.57011 0.95585 0.0
O124 O 0.87659 0.64247 0.94724 0.0
O125 O 0.90658 0.60523 0.9431 0.0
Co126 Co 0.14124 0.14682 0.71261 0.0
O127 O 0.16614 0.1128 0.71726 0.0
O128 O 0.12667 0.12564 0.73066 0.0
C129 C 0.13782 0.13711 0.68711 0.0
O130 O 0.10897 0.17901 0.71105 0.0
Co131 Co 0.16019 0.19627 0.68939 0.0
O132 O 0.11725 0.20613 0.68972 0.0
C133 C 0.18697 0.19383 0.72054 0.0
C134 C 0.14798 0.10664 0.72839 0.0
C135 C 0.10078 0.19832 0.70093 0.0
O136 O 0.1679 0.17421 0.72514 0.0
O137 O 0.18893 0.20278 0.7066 0.0
O138 O 0.12047 0.12353 0.69676 0.0
O139 O 0.15732 0.15431 0.69319 0.0
Co140 Co 0.61664 0.39437 0.46271 0.0
O141 O 0.65123 0.41885 0.46691 0.0
O142 O 0.6375 0.38058 0.48099 0.0
C143 C 0.62602 0.38908 0.43725 0.0
O144 O 0.58399 0.36242 0.4618 0.0
Co145 Co 0.56731 0.41232 0.43917 0.0
O146 O 0.55185 0.37178 0.44256 0.0
C147 C 0.57101 0.44201 0.46959 0.0
C148 C 0.65697 0.40128 0.47837 0.0
C149 C 0.56141 0.35531 0.45339 0.0
O150 O 0.58986 0.42268 0.47477 0.0
O151 O 0.56263 0.44289 0.45553 0.0
O152 O 0.63941 0.3721 0.44716 0.0
O153 O 0.60923 0.4092 0.44303 0.0
Co154 Co 0.37009 0.8652 0.21297 0.0
O155 O 0.34541 0.8997 0.21708 0.0
O156 O 0.38402 0.88655 0.23107 0.0
C157 C 0.37483 0.87401 0.18743 0.0
O158 O 0.4023 0.83278 0.21211 0.0
Co159 Co 0.35216 0.81513 0.18985 0.0
O160 O 0.39289 0.80011 0.19313 0.0
C161 C 0.32254 0.81988 0.22024 0.0
C162 C 0.3631 0.90578 0.22845 0.0
C163 C 0.40948 0.81008 0.20381 0.0
O164 O 0.34213 0.83856 0.2253 0.0
O165 O 0.3215 0.81122 0.20623 0.0
O166 O 0.39186 0.88779 0.19717 0.0
O167 O 0.35497 0.85717 0.19342 0.0
Co168 Co 0.90009 0.39442 0.54547 0.0
O169 O 0.86589 0.41921 0.54091 0.0
O170 O 0.87936 0.38032 0.52722 0.0
C171 C 0.89014 0.39011 0.57093 0.0
O172 O 0.93231 0.36208 0.54679 0.0
Co173 Co 0.94921 0.41229 0.56916 0.0
O174 O 0.96406 0.37141 0.5662 0.0
C175 C 0.94678 0.44096 0.53841 0.0
C176 C 0.8601 0.40133 0.52959 0.0
C177 C 0.95457 0.35483 0.5554 0.0
O178 O 0.92749 0.42199 0.53331 0.0
O179 O 0.95499 0.44203 0.55249 0.0
O180 O 0.87673 0.37298 0.5611 0.0
O181 O 0.90735 0.40978 0.56506 0.0
Co182 Co 0.36785 0.14893 0.29556 0.0
O183 O 0.34345 0.11438 0.29113 0.0
O184 O 0.38194 0.12834 0.27726 0.0
C185 C 0.37279 0.13923 0.32101 0.0
O186 O 0.39974 0.18155 0.29667 0.0
Co187 Co 0.34967 0.19798 0.31921 0.0
O188 O 0.39023 0.21352 0.31595 0.0
C189 C 0.32075 0.19509 0.28855 0.0
C190 C 0.36122 0.10881 0.27973 0.0
C191 C 0.40677 0.20408 0.30512 0.0
O192 O 0.33985 0.17593 0.28346 0.0
O193 O 0.31967 0.20337 0.30262 0.0
O194 O 0.38986 0.12596 0.31111 0.0
O195 O 0.35273 0.15611 0.31523 0.0
Co196 Co 0.61506 0.61893 0.04612 0.0
O197 O 0.64903 0.5941 0.04145 0.0
O198 O 0.63512 0.63231 0.02739 0.0
C199 C 0.62656 0.62372 0.07139 0.0
O200 O 0.58275 0.65122 0.04783 0.0
Co201 Co 0.56774 0.60088 0.0708 0.0
O202 O 0.55678 0.64329 0.06957 0.0
C203 C 0.56608 0.57399 0.03955 0.0
C204 C 0.65457 0.61149 0.02992 0.0
C205 C 0.56362 0.65949 0.05808 0.0
O206 O 0.58689 0.59131 0.03446 0.0
O207 O 0.55792 0.57335 0.05365 0.0
O208 O 0.63927 0.64076 0.06128 0.0
O209 O 0.60912 0.60388 0.06587 0.0
Co210 Co 0.14504 0.86411 0.79592 0.0
O211 O 0.16939 0.89822 0.79071 0.0
O212 O 0.13032 0.88377 0.77744 0.0
C213 C 0.14106 0.87566 0.82122 0.0
O214 O 0.11315 0.83155 0.79803 0.0
Co215 Co 0.16435 0.81708 0.82045 0.0
O216 O 0.12224 0.80486 0.81939 0.0
C217 C 0.19105 0.81647 0.78914 0.0
C218 C 0.15118 0.90337 0.77947 0.0
C219 C 0.10555 0.81189 0.80813 0.0
O220 O 0.17253 0.83619 0.78402 0.0
O221 O 0.19243 0.8088 0.80329 0.0
O222 O 0.12358 0.88818 0.81125 0.0
O223 O 0.16095 0.85846 0.81554 0.0
Co224 Co 0.61744 0.8946 0.54528 0.0
O225 O 0.65211 0.91887 0.541 0.0
O226 O 0.63893 0.87966 0.52745 0.0
C227 C 0.62546 0.89063 0.5709 0.0
O228 O 0.58473 0.86293 0.54643 0.0
Co229 Co 0.56701 0.91537 0.56748 0.0
O230 O 0.55121 0.87465 0.56465 0.0
C231 C 0.57282 0.94212 0.53668 0.0
C232 C 0.65817 0.90069 0.52984 0.0
C233 C 0.56142 0.85694 0.55451 0.0
O234 O 0.59118 0.92166 0.53236 0.0
O235 O 0.56393 0.94523 0.55056 0.0
O236 O 0.63947 0.87332 0.56139 0.0
O237 O 0.60918 0.91071 0.56464 0.0
Co238 Co 0.36798 0.36362 0.79521 0.0
O239 O 0.34367 0.39857 0.79172 0.0
O240 O 0.3804 0.38452 0.77664 0.0
C241 C 0.37491 0.37271 0.82062 0.0
O242 O 0.39975 0.33077 0.79541 0.0
Co243 Co 0.35128 0.31407 0.81884 0.0
O244 O 0.39172 0.29883 0.81488 0.0
C245 C 0.32016 0.31762 0.78879 0.0
C246 C 0.36025 0.40423 0.77987 0.0
C247 C 0.40746 0.30829 0.80374 0.0
O248 O 0.33873 0.33716 0.78354 0.0
O249 O 0.32022 0.30875 0.80278 0.0
O250 O 0.39141 0.38605 0.81047 0.0
O251 O 0.35441 0.35603 0.81511 0.0
Co252 Co 0.89797 0.1175 0.04506 0.0
O253 O 0.8645 0.09121 0.04125 0.0
O254 O 0.87647 0.12921 0.02656 0.0
C255 C 0.8886 0.12322 0.07053 0.0
O256 O 0.92873 0.15139 0.04556 0.0
Co257 Co 0.94874 0.10337 0.0685 0.0
O258 O 0.96252 0.14416 0.06433 0.0
C259 C 0.94651 0.07241 0.03846 0.0
C260 C 0.85792 0.10788 0.02955 0.0
C261 C 0.9514 0.15977 0.05358 0.0
O262 O 0.92631 0.09026 0.0332 0.0
O263 O 0.95505 0.07253 0.05249 0.0
O264 O 0.87391 0.13879 0.06049 0.0
O265 O 0.90659 0.10401 0.06489 0.0
Co266 Co 0.1413 0.64978 0.29511 0.0
O267 O 0.16502 0.61452 0.29157 0.0
O268 O 0.12722 0.62816 0.27709 0.0
C269 C 0.13596 0.64249 0.32071 0.0
O270 O 0.11019 0.68309 0.29565 0.0
Co271 Co 0.16232 0.70033 0.31718 0.0
O272 O 0.12192 0.71662 0.31387 0.0
C273 C 0.19011 0.69329 0.28676 0.0
C274 C 0.14761 0.60854 0.28009 0.0
C275 C 0.10435 0.70658 0.30362 0.0
O276 O 0.16946 0.67522 0.28238 0.0
O277 O 0.19299 0.70243 0.30061 0.0
O278 O 0.11881 0.62855 0.31109 0.0
O279 O 0.15658 0.65825 0.31457 0.0
Co280 Co 0.61653 0.11634 0.96088 0.0
O281 O 0.65044 0.0907 0.96472 0.0
O282 O 0.63824 0.12897 0.97917 0.0
C283 C 0.62524 0.12166 0.93532 0.0
O284 O 0.58495 0.14943 0.96025 0.0
Co285 Co 0.56576 0.0998 0.93778 0.0
O286 O 0.55218 0.14094 0.94117 0.0
C287 C 0.56658 0.07327 0.96897 0.0
C288 C 0.65699 0.10775 0.97627 0.0
C289 C 0.56236 0.15711 0.95198 0.0
O290 O 0.58888 0.08945 0.97327 0.0
O291 O 0.55654 0.07279 0.95521 0.0
O292 O 0.63986 0.13764 0.9452 0.0
O293 O 0.60788 0.10205 0.94115 0.0
Co294 Co 0.14457 0.36683 0.21146 0.0
O295 O 0.16778 0.40236 0.21519 0.0
O296 O 0.12989 0.3881 0.22945 0.0
C297 C 0.13956 0.3743 0.18584 0.0
O298 O 0.11391 0.33316 0.21073 0.0
Co299 Co 0.16642 0.3167 0.18934 0.0
O300 O 0.1262 0.29985 0.19249 0.0
C301 C 0.19338 0.32337 0.22001 0.0
C302 C 0.15006 0.40802 0.22659 0.0
C303 C 0.10844 0.30963 0.20273 0.0
O304 O 0.17274 0.34157 0.22428 0.0
O305 O 0.19651 0.31425 0.20617 0.0
O306 O 0.1221 0.38794 0.19543 0.0
O307 O 0.16027 0.35871 0.19202 0.0
Co308 Co 0.90032 0.89524 0.46181 0.0
O309 O 0.86597 0.91987 0.46632 0.0
O310 O 0.87969 0.88112 0.48006 0.0
C311 C 0.89055 0.89078 0.43634 0.0
O312 O 0.93257 0.86298 0.46062 0.0
Co313 Co 0.94966 0.91288 0.43825 0.0
O314 O 0.9646 0.87204 0.44132 0.0
C315 C 0.94663 0.94208 0.46883 0.0
C316 C 0.86032 0.90201 0.47768 0.0
C317 C 0.95492 0.8556 0.45213 0.0
O318 O 0.9275 0.92298 0.47395 0.0
O319 O 0.95499 0.94302 0.45477 0.0
O320 O 0.87713 0.87365 0.44617 0.0
O321 O 0.9077 0.91051 0.4422 0.0
Co322 Co 0.36856 0.64637 0.71162 0.0
O323 O 0.3444 0.61133 0.71508 0.0
O324 O 0.38199 0.62468 0.72976 0.0
C325 C 0.37466 0.63904 0.68606 0.0
O326 O 0.40007 0.67945 0.71121 0.0
Co327 Co 0.34835 0.69711 0.68942 0.0
O328 O 0.38913 0.71239 0.69256 0.0
C329 C 0.3201 0.69071 0.71976 0.0
C330 C 0.36152 0.60521 0.72666 0.0
C331 C 0.40638 0.70256 0.70301 0.0
O332 O 0.34034 0.67218 0.72418 0.0
O333 O 0.31768 0.70001 0.70591 0.0
O334 O 0.3911 0.62465 0.69583 0.0
O335 O 0.35401 0.65504 0.69201 0.0
Co336 Co 0.39989 0.11946 0.462 0.0
O337 O 0.36535 0.09504 0.46643 0.0
O338 O 0.3794 0.13346 0.48033 0.0
C339 C 0.39009 0.12442 0.43655 0.0
O340 O 0.43247 0.15142 0.46091 0.0
Co341 Co 0.44897 0.10161 0.43833 0.0
O342 O 0.46449 0.14216 0.44163 0.0
C343 C 0.44584 0.07213 0.46883 0.0
C344 C 0.35986 0.11275 0.47787 0.0
C345 C 0.45498 0.1586 0.45249 0.0
O346 O 0.42688 0.09134 0.47402 0.0
O347 O 0.4541 0.07123 0.45475 0.0
O348 O 0.37685 0.1415 0.44647 0.0
O349 O 0.40707 0.10443 0.44232 0.0
Co350 Co 0.64459 0.64812 0.21257 0.0
O351 O 0.66852 0.613 0.21624 0.0
O352 O 0.63037 0.62637 0.23053 0.0
C353 C 0.63985 0.64075 0.18693 0.0
O354 O 0.61316 0.68115 0.21193 0.0
Co355 Co 0.66514 0.69892 0.19051 0.0
O356 O 0.62449 0.7147 0.19365 0.0
C357 C 0.69271 0.6923 0.22106 0.0
C358 C 0.65093 0.60688 0.22764 0.0
C359 C 0.60703 0.70452 0.20392 0.0
O360 O 0.67234 0.67385 0.2254 0.0
O361 O 0.69548 0.70152 0.20721 0.0
O362 O 0.62262 0.62668 0.19646 0.0
O363 O 0.66014 0.65676 0.19317 0.0
Co364 Co 0.11708 0.89259 0.96249 0.0
O365 O 0.15251 0.91636 0.96573 0.0
O366 O 0.13922 0.87874 0.9804 0.0
C367 C 0.12386 0.88719 0.93682 0.0
O368 O 0.08385 0.86129 0.96234 0.0
Co369 Co 0.06581 0.91248 0.94057 0.0
O370 O 0.0499 0.87206 0.94417 0.0
C371 C 0.0733 0.94122 0.97081 0.0
C372 C 0.15883 0.89902 0.9772 0.0
C373 C 0.06026 0.85494 0.95454 0.0
O374 O 0.09184 0.92099 0.97525 0.0
O375 O 0.06371 0.94337 0.957 0.0
O376 O 0.13801 0.87007 0.94638 0.0
O377 O 0.10803 0.90764 0.94303 0.0
Co378 Co 0.87034 0.36945 0.71214 0.0
O379 O 0.84631 0.40433 0.71611 0.0
O380 O 0.88456 0.39081 0.73026 0.0
C381 C 0.87478 0.37805 0.68658 0.0
O382 O 0.90182 0.33639 0.7111 0.0
Co383 Co 0.85044 0.31969 0.68924 0.0
O384 O 0.89324 0.30924 0.6898 0.0
C385 C 0.82332 0.32371 0.72021 0.0
C386 C 0.86399 0.41037 0.72746 0.0
C387 C 0.90976 0.31685 0.70103 0.0
O388 O 0.8427 0.34309 0.7247 0.0
O389 O 0.82125 0.31436 0.70634 0.0
O390 O 0.89219 0.39161 0.69622 0.0
O391 O 0.85469 0.36163 0.69269 0.0
Co392 Co 0.39976 0.89423 0.04653 0.0
O393 O 0.36521 0.91824 0.04187 0.0
O394 O 0.37984 0.88017 0.0279 0.0
C395 C 0.3888 0.88956 0.07186 0.0
O396 O 0.43286 0.86276 0.04825 0.0
Co397 Co 0.44698 0.9141 0.07092 0.0
O398 O 0.46009 0.87234 0.06938 0.0
C399 C 0.44712 0.94064 0.03964 0.0
C400 C 0.36001 0.90065 0.03038 0.0
C401 C 0.45312 0.85559 0.05812 0.0
O402 O 0.42713 0.92225 0.03467 0.0
O403 O 0.45523 0.94203 0.05372 0.0
O404 O 0.37628 0.87209 0.06188 0.0
O405 O 0.40564 0.90972 0.06618 0.0
Co406 Co 0.86841 0.65149 0.79655 0.0
O407 O 0.84423 0.61703 0.79192 0.0
O408 O 0.88237 0.63147 0.77794 0.0
C409 C 0.87316 0.64057 0.82188 0.0
O410 O 0.90017 0.68431 0.79823 0.0
Co411 Co 0.84926 0.6989 0.82097 0.0
O412 O 0.89136 0.71103 0.81962 0.0
C413 C 0.82283 0.69968 0.78962 0.0
C414 C 0.86187 0.6117 0.78046 0.0
C415 C 0.90788 0.70405 0.80827 0.0
O416 O 0.84052 0.67905 0.78467 0.0
O417 O 0.82173 0.7079 0.80371 0.0
O418 O 0.89047 0.62791 0.81187 0.0
O419 O 0.85305 0.65752 0.81623 0.0
Co420 Co 0.11711 0.12011 0.5457 0.0
O421 O 0.15177 0.09586 0.54135 0.0
O422 O 0.13864 0.13522 0.52792 0.0
C423 C 0.12514 0.12373 0.57134 0.0
O424 O 0.08441 0.15182 0.54695 0.0
Co425 Co 0.06664 0.09915 0.56782 0.0
O426 O 0.05071 0.13982 0.56503 0.0
C427 C 0.07259 0.07259 0.53699 0.0
C428 C 0.15786 0.11414 0.53024 0.0
C429 C 0.061 0.15767 0.55498 0.0
O430 O 0.09085 0.09317 0.5327 0.0
O431 O 0.06374 0.06935 0.55087 0.0
O432 O 0.13916 0.14117 0.56189 0.0
O433 O 0.10882 0.10378 0.565 0.0
Co434 Co 0.64328 0.36499 0.29606 0.0
O435 O 0.66792 0.39962 0.29228 0.0
O436 O 0.62956 0.38679 0.27802 0.0
C437 C 0.63873 0.37304 0.32167 0.0
O438 O 0.61097 0.33269 0.29669 0.0
Co439 Co 0.6612 0.31403 0.31871 0.0
O440 O 0.61998 0.30017 0.31579 0.0
C441 C 0.68666 0.31591 0.28724 0.0
C442 C 0.65043 0.40596 0.28088 0.0
C443 C 0.60356 0.31015 0.30504 0.0
O444 O 0.6706 0.33852 0.28332 0.0
O445 O 0.68705 0.30477 0.30077 0.0
O446 O 0.62173 0.38717 0.31204 0.0
O447 O 0.65854 0.35626 0.31555 0.0
H448 H 0.97374 0.5215 0.96115 0.0
H449 H 0.94529 0.56924 1.00168 0.0
H450 H 1.00555 0.49073 0.97655 0.0
H451 H 0.97614 0.53652 0.01754 0.0
H452 H 0.05927 0.49825 0.0394 0.0
H453 H 0.02593 0.5282 0.02377 0.0
H454 H 0.01148 0.45289 0.9938 0.0
H455 H 0.0463 0.4237 0.00906 0.0
C456 C 0.97377 0.52511 0.97348 0.0
C457 C 0.95717 0.54834 0.98012 0.0
C458 C 0.992 0.50706 0.98239 0.0
C459 C 0.99391 0.51109 0.99836 0.0
C460 C 0.97591 0.53316 0.00521 0.0
C461 C 0.9578 0.55168 0.99617 0.0
C462 C 0.04949 0.48843 0.02921 0.0
C463 C 0.05571 0.45882 0.02527 0.0
C464 C 0.02987 0.50541 0.0204 0.0
C465 C 0.01543 0.49304 0.00757 0.0
C466 C 0.02235 0.4635 1.00344 0.0
C467 C 0.04249 0.4467 0.01211 0.0
H468 H 0.75124 0.70474 0.21789 0.0
H469 H 0.67752 0.71471 0.24909 0.0
H470 H 0.78119 0.73767 0.23379 0.0
H471 H 0.70664 0.74906 0.26462 0.0
H472 H 0.77461 0.78723 0.29707 0.0
H473 H 0.74504 0.75462 0.28157 0.0
H474 H 0.78836 0.78757 0.24059 0.0
H475 H 0.82001 0.81939 0.25654 0.0
C476 C 0.74163 0.71371 0.22833 0.0
C477 C 0.71224 0.70683 0.23242 0.0
C478 C 0.75859 0.73309 0.23729 0.0
C479 C 0.74638 0.74659 0.25043 0.0
C480 C 0.71713 0.73891 0.25474 0.0
C481 C 0.70037 0.71902 0.24591 0.0
C482 C 0.77801 0.78781 0.28474 0.0
C483 C 0.80018 0.80584 0.27811 0.0
C484 C 0.76061 0.76909 0.27577 0.0
C485 C 0.7642 0.76808 0.25975 0.0
C486 C 0.78536 0.78718 0.25294 0.0
C487 C 0.80326 0.8058 0.26204 0.0
H488 H 0.56847 0.44303 0.50152 0.0
H489 H 0.53856 0.48997 0.46101 0.0
H490 H 0.53747 0.47552 0.51745 0.0
H491 H 0.50668 0.52044 0.47647 0.0
H492 H 0.46762 0.58841 0.50894 0.0
H493 H 0.50166 0.55866 0.49353 0.0
H494 H 0.48781 0.48409 0.52407 0.0
H495 H 0.45528 0.51466 0.53988 0.0
C496 C 0.55555 0.4603 0.49602 0.0
C497 C 0.55593 0.46355 0.47996 0.0
C498 C 0.53739 0.4787 0.5051 0.0
C499 C 0.51908 0.50055 0.49828 0.0
C500 C 0.52052 0.50433 0.48229 0.0
C501 C 0.53879 0.48642 0.47333 0.0
C502 C 0.47136 0.56544 0.51208 0.0
C503 C 0.45858 0.55372 0.52546 0.0
C504 C 0.49105 0.54831 0.50332 0.0
C505 C 0.49791 0.51883 0.50757 0.0
C506 C 0.48387 0.50683 0.52061 0.0
C507 C 0.46472 0.52416 0.52952 0.0
H508 H 0.76515 0.3104 0.71649 0.0
H509 H 0.83778 0.30153 0.74844 0.0
H510 H 0.7348 0.27769 0.73229 0.0
H511 H 0.80827 0.26733 0.7639 0.0
H512 H 0.739 0.23034 0.79608 0.0
H513 H 0.76935 0.26218 0.78055 0.0
H514 H 0.72713 0.22819 0.73949 0.0
H515 H 0.6947 0.19716 0.75545 0.0
C516 C 0.77445 0.30166 0.72706 0.0
C517 C 0.80363 0.30884 0.7314 0.0
C518 C 0.75725 0.28241 0.73598 0.0
C519 C 0.76901 0.26932 0.74934 0.0
C520 C 0.7981 0.27719 0.75385 0.0
C521 C 0.8151 0.29697 0.74506 0.0
C522 C 0.736 0.22938 0.78372 0.0
C523 C 0.71389 0.2113 0.77707 0.0
C524 C 0.75387 0.24764 0.77474 0.0
C525 C 0.75081 0.24816 0.75869 0.0
C526 C 0.72973 0.22898 0.75186 0.0
C527 C 0.71137 0.21081 0.76097 0.0
H528 H 0.98306 0.48632 0.54677 0.0
H529 H 0.94687 0.44334 0.50643 0.0
H530 H 0.01458 0.51634 0.53093 0.0
H531 H 0.9777 0.47544 0.49019 0.0
H532 H 0.05894 0.51356 0.46619 0.0
H533 H 0.02709 0.4829 0.48232 0.0
H534 H 0.01844 0.55576 0.51443 0.0
H535 H 0.05169 0.58561 0.49862 0.0
C536 C 0.98138 0.48351 0.53442 0.0
C537 C 0.96246 0.46193 0.52793 0.0
C538 C 0.99948 0.50119 0.52526 0.0
C539 C 0.999 0.49848 0.5092 0.0
C540 C 0.97919 0.47778 0.50255 0.0
C541 C 0.96117 0.45961 0.51183 0.0
C542 C 0.05076 0.52267 0.47692 0.0
C543 C 0.05811 0.5518 0.48129 0.0
C544 C 0.03202 0.50529 0.48604 0.0
C545 C 0.01967 0.51679 0.49964 0.0
C546 C 0.02775 0.5458 0.50418 0.0
C547 C 0.04699 0.56298 0.49518 0.0
H548 H 0.74188 0.79411 0.71286 0.0
H549 H 0.683 0.81142 0.75104 0.0
H550 H 0.77348 0.76428 0.72933 0.0
H551 H 0.71456 0.78089 0.76761 0.0
H552 H 0.7937 0.75105 0.79588 0.0
H553 H 0.76223 0.78021 0.77942 0.0
H554 H 0.77509 0.71715 0.74258 0.0
H555 H 0.80785 0.68767 0.75922 0.0
C556 C 0.73571 0.79165 0.72483 0.0
C557 C 0.70982 0.80519 0.73064 0.0
C558 C 0.75373 0.7742 0.73424 0.0
C559 C 0.74644 0.76974 0.74974 0.0
C560 C 0.72099 0.78397 0.75571 0.0
C561 C 0.70292 0.80162 0.74627 0.0
C562 C 0.78986 0.74299 0.78431 0.0
C563 C 0.80334 0.71666 0.77895 0.0
C564 C 0.7715 0.75984 0.77487 0.0
C565 C 0.76578 0.75101 0.75972 0.0
C566 C 0.77922 0.72474 0.75421 0.0
C567 C 0.79791 0.70775 0.76372 0.0
H568 H 0.42725 0.46874 0.99469 0.0
H569 H 0.50863 0.44408 0.97184 0.0
H570 H 0.45506 0.50392 0.01073 0.0
H571 H 0.53638 0.47823 0.98794 0.0
H572 H 0.57415 0.56353 0.00833 0.0
H573 H 0.54483 0.53038 0.99189 0.0
H574 H 0.49076 0.50601 0.03094 0.0
H575 H 0.51897 0.539 0.04704 0.0
C576 C 0.45108 0.47042 0.99333 0.0
C577 C 0.46574 0.45378 0.98202 0.0
C578 C 0.46707 0.49063 1.00243 0.0
C579 C 0.49801 0.49426 1.00047 0.0
C580 C 0.51258 0.47672 0.98949 0.0
C581 C 0.49666 0.45687 0.98038 0.0
C582 C 0.55598 0.55113 0.01335 0.0
C583 C 0.54923 0.554 0.02905 0.0
C584 C 0.5392 0.53204 0.00397 0.0
C585 C 0.51531 0.51551 0.0101 0.0
C586 C 0.50856 0.51865 0.02573 0.0
C587 C 0.52517 0.53752 0.03503 0.0
H588 H 0.8115 0.18821 0.2495 0.0
H589 H 0.8009 0.25377 0.21357 0.0
H590 H 0.77795 0.21722 0.26592 0.0
H591 H 0.76717 0.28147 0.22942 0.0
H592 H 0.72543 0.33976 0.26622 0.0
H593 H 0.76214 0.31249 0.25094 0.0
H594 H 0.72653 0.22952 0.26782 0.0
H595 H 0.69098 0.25683 0.2834 0.0
C596 C 0.80216 0.20867 0.24511 0.0
C597 C 0.80875 0.2183 0.23014 0.0
C598 C 0.78275 0.22523 0.25444 0.0
C599 C 0.76967 0.25173 0.24897 0.0
C600 C 0.77698 0.26153 0.23416 0.0
C601 C 0.79622 0.24521 0.22496 0.0
C602 C 0.72526 0.31572 0.26639 0.0
C603 C 0.70537 0.30038 0.27588 0.0
C604 C 0.74634 0.30001 0.25774 0.0
C605 C 0.7476 0.26867 0.25828 0.0
C606 C 0.72686 0.25353 0.26741 0.0
C607 C 0.70617 0.26919 0.27615 0.0
H608 H 0.31388 0.32123 0.75704 0.0
H609 H 0.27708 0.27868 0.79735 0.0
H610 H 0.28076 0.29145 0.74084 0.0
H611 H 0.24591 0.24833 0.78144 0.0
H612 H 0.17455 0.21205 0.74992 0.0
H613 H 0.20461 0.24502 0.76588 0.0
H614 H 0.2745 0.24265 0.73178 0.0
H615 H 0.24378 0.21103 0.71565 0.0
C616 C 0.29875 0.30575 0.76246 0.0
C617 C 0.29847 0.3024 0.77852 0.0
C618 C 0.27996 0.28837 0.75318 0.0
C619 C 0.26067 0.26712 0.75978 0.0
C620 C 0.25995 0.26457 0.77585 0.0
C621 C 0.27827 0.28201 0.78503 0.0
C622 C 0.19656 0.21819 0.74603 0.0
C623 C 0.20688 0.20885 0.73161 0.0
C624 C 0.21384 0.23724 0.75512 0.0
C625 C 0.24206 0.24693 0.7501 0.0
C626 C 0.25268 0.23649 0.7359 0.0
C627 C 0.23524 0.21791 0.72674 0.0
H628 H 0.17435 0.71971 0.25987 0.0
H629 H 0.24955 0.7014 0.289 0.0
H630 H 0.20437 0.75396 0.24478 0.0
H631 H 0.28042 0.73408 0.2734 0.0
H632 H 0.32356 0.81473 0.25206 0.0
H633 H 0.29079 0.78378 0.26786 0.0
H634 H 0.24128 0.75941 0.22713 0.0
H635 H 0.27213 0.79137 0.21188 0.0
C636 C 0.19767 0.72215 0.26263 0.0
C637 C 0.20977 0.70762 0.27542 0.0
C638 C 0.21498 0.74196 0.25406 0.0
C639 C 0.245 0.7472 0.25788 0.0
C640 C 0.25731 0.7314 0.2703 0.0
C641 C 0.23981 0.71215 0.27906 0.0
C642 C 0.3052 0.8033 0.24663 0.0
C643 C 0.30078 0.80538 0.23068 0.0
C644 C 0.28664 0.78512 0.25561 0.0
C645 C 0.26346 0.76854 0.24879 0.0
C646 C 0.25848 0.77186 0.23296 0.0
C647 C 0.27657 0.79016 0.22411 0.0
H648 H 0.27409 0.22974 0.29682 0.0
H649 H 0.31992 0.19669 0.25661 0.0
H650 H 0.24476 0.26209 0.28103 0.0
H651 H 0.28856 0.22825 0.24038 0.0
H652 H 0.25195 0.31069 0.21711 0.0
H653 H 0.28161 0.27803 0.23331 0.0
H654 H 0.2066 0.26734 0.2639 0.0
H655 H 0.17777 0.30143 0.24808 0.0
C656 C 0.27764 0.22891 0.2845 0.0
C657 C 0.29985 0.21071 0.27804 0.0
C658 C 0.26039 0.24748 0.27537 0.0
C659 C 0.26419 0.24817 0.25936 0.0
C660 C 0.2854 0.2289 0.25272 0.0
C661 C 0.30313 0.21043 0.26198 0.0
C662 C 0.24217 0.30192 0.22755 0.0
C663 C 0.21272 0.30892 0.23149 0.0
C664 C 0.25897 0.2827 0.23669 0.0
C665 C 0.24655 0.2695 0.24986 0.0
C666 C 0.21724 0.27728 0.254 0.0
C667 C 0.20064 0.29701 0.245 0.0
H668 H 0.1955 0.81891 0.75723 0.0
H669 H 0.23244 0.77542 0.79726 0.0
H670 H 0.22696 0.78783 0.74077 0.0
H671 H 0.26196 0.744 0.78111 0.0
H672 H 0.33284 0.70824 0.74914 0.0
H673 H 0.30309 0.74095 0.76532 0.0
H674 H 0.23233 0.73854 0.73172 0.0
H675 H 0.26278 0.70704 0.71532 0.0
C676 C 0.21025 0.80292 0.76253 0.0
C677 C 0.21118 0.79982 0.7786 0.0
C678 C 0.22809 0.78483 0.75311 0.0
C679 C 0.24706 0.76317 0.75957 0.0
C680 C 0.2482 0.76061 0.77563 0.0
C681 C 0.23082 0.7787 0.78495 0.0
C682 C 0.31068 0.7142 0.74541 0.0
C683 C 0.30007 0.70493 0.73104 0.0
C684 C 0.29358 0.73313 0.75463 0.0
C685 C 0.26524 0.74279 0.7498 0.0
C686 C 0.25424 0.73233 0.73568 0.0
C687 C 0.27151 0.71383 0.72639 0.0
H688 H 0.56076 1.0007 0.53973 0.0
H689 H 0.55015 0.92685 0.50867 0.0
H690 H 0.52828 0.03088 0.52372 0.0
H691 H 0.51624 0.95628 0.493 0.0
H692 H 0.47974 0.02509 0.46031 0.0
H693 H 0.51156 0.99486 0.47596 0.0
H694 H 0.47845 0.03845 0.51682 0.0
H695 H 0.44742 0.07065 0.50076 0.0
C696 C 0.55171 0.99109 0.52931 0.0
C697 C 0.55829 0.9616 0.52529 0.0
C698 C 0.5326 0.0082 0.52028 0.0
C699 C 0.51908 0.99606 0.50713 0.0
C700 C 0.52642 0.96669 0.5029 0.0
C701 C 0.54604 0.94975 0.51181 0.0
C702 C 0.47897 0.0284 0.47265 0.0
C703 C 0.46115 0.05079 0.47922 0.0
C704 C 0.49722 0.01063 0.4817 0.0
C705 C 0.49796 0.01413 0.49772 0.0
C706 C 0.47904 0.03552 0.50447 0.0
C707 C 0.46088 0.05375 0.49531 0.0
H708 H 0.05551 0.92917 1.00024 0.0
H709 H 0.05762 0.99859 0.96609 0.0
H710 H 0.02241 0.95926 0.01605 0.0
H711 H 0.02569 0.02934 0.98209 0.0
H712 H 0.94454 0.06669 0.00659 0.0
H713 H 0.97605 0.03469 0.99061 0.0
H714 H 0.0185 1.00066 0.03157 0.0
H715 H 0.98658 0.03062 0.04724 0.0
C716 C 0.0497 0.95128 0.99638 0.0
C717 C 0.0593 0.96159 0.982 0.0
C718 C 0.03052 0.96856 0.00537 0.0
C719 C 0.02091 0.99677 1.0003 0.0
C720 C 0.03182 0.00752 0.98622 0.0
C721 C 0.05058 0.99009 0.97716 0.0
C722 C 0.96026 0.05197 0.01212 0.0
C723 C 0.96291 0.05152 0.02822 0.0
C724 C 0.97862 0.03385 1.00299 0.0
C725 C 1.00011 0.01507 0.00977 0.0
C726 C 1.00208 0.01429 0.02585 0.0
C727 C 0.98371 0.03192 0.03489 0.0
H728 H 0.50827 0.05977 0.96759 0.0
H729 H 0.58634 0.04551 0.99547 0.0
H730 H 0.47973 0.02739 0.98416 0.0
H731 H 0.55753 0.01218 0.01213 0.0
H732 H 0.48814 0.98254 0.04725 0.0
H733 H 0.51742 0.01363 0.03057 0.0
H734 H 0.47393 0.97563 0.99091 0.0
H735 H 0.44382 0.94416 0.00783 0.0
C736 C 0.51945 0.04951 0.97726 0.0
C737 C 0.54973 0.05505 0.98016 0.0
C738 C 0.50303 0.03072 0.9867 0.0
C739 C 0.51634 0.01678 0.99933 0.0
C740 C 0.54654 0.0227 1.00249 0.0
C741 C 0.56307 0.0418 0.99301 0.0
C742 C 0.48454 0.98061 0.03498 0.0
C743 C 0.46339 0.96063 0.02892 0.0
C744 C 0.50173 0.9984 0.02539 0.0
C745 C 0.49834 0.99699 0.0094 0.0
C746 C 0.47699 0.97736 1.00323 0.0
C747 C 0.4597 0.95933 0.0129 0.0
H748 H 0.06068 0.01399 0.54006 0.0
H749 H 0.0501 0.0877 0.50891 0.0
H750 H 0.02848 0.98363 0.52398 0.0
H751 H 0.0165 0.05807 0.49316 0.0
H752 H 0.98079 0.989 0.46041 0.0
H753 H 0.01233 0.01933 0.47614 0.0
H754 H 0.9787 0.97588 0.51692 0.0
H755 H 0.9479 0.94359 0.50078 0.0
C756 C 0.05169 0.02353 0.52961 0.0
C757 C 0.0582 0.05305 0.52558 0.0
C758 C 0.03275 1.00632 0.52054 0.0
C759 C 0.01934 0.01835 0.50733 0.0
C760 C 0.0266 0.04775 0.5031 0.0
C761 C 0.04604 0.0648 0.51206 0.0
C762 C 0.97985 0.98573 0.47274 0.0
C763 C 0.96192 0.96336 0.47927 0.0
C764 C 0.99793 1.00356 0.48184 0.0
C765 C 0.99843 1.00015 0.49787 0.0
C766 C 0.97946 0.97875 0.50457 0.0
C767 C 0.96144 0.96046 0.49535 0.0
H768 H 0.00936 0.16949 0.04708 0.0
H769 H 0.9262 0.21495 0.05382 0.0
H770 H 0.03532 0.21712 0.04586 0.0
H771 H 0.95219 0.26285 0.05289 0.0
H772 H 0.016 0.33365 0.07341 0.0
H773 H 0.98837 0.28767 0.07063 0.0
H774 H 0.0411 0.26462 0.03094 0.0
H775 H 0.06911 0.31093 0.0337 0.0
C776 C 0.9966 0.1898 0.04801 0.0
C777 C 0.96579 0.18864 0.05041 0.0
C778 C 0.01144 0.21707 0.04729 0.0
C779 C 0.99589 0.24382 0.04935 0.0
C780 C 0.96485 0.24264 0.05135 0.0
C781 C 0.9499 0.2153 0.05173 0.0
C782 C 0.02176 0.31898 0.064 0.0
C783 C 0.04494 0.3262 0.05377 0.0
C784 C 1.00567 0.29262 0.06236 0.0
C785 C 0.0123 0.27254 0.05049 0.0
C786 C 0.03549 0.27959 0.04025 0.0
C787 C 0.05155 0.30615 0.04183 0.0
H788 H 0.05228 0.6854 0.29127 0.0
H789 H 0.09202 0.76447 0.31036 0.0
H790 H 1.0046 0.71137 0.28933 0.0
H791 H 0.04464 0.7903 0.30828 0.0
H792 H 0.95868 0.83479 0.29133 0.0
H793 H 1.0065 0.80912 0.28876 0.0
H794 H 0.96865 0.73085 0.30958 0.0
H795 H 0.92127 0.75636 0.3123 0.0
C796 C 0.05098 0.70839 0.29485 0.0
C797 C 0.07595 0.72275 0.30107 0.0
C798 C 0.02365 0.72322 0.2938 0.0
C799 C 0.02084 0.7529 0.29867 0.0
C800 C 0.0461 0.76756 0.30431 0.0
C801 C 0.07322 0.75263 0.3056 0.0
C802 C 0.96053 0.81201 0.2952 0.0
C803 C 0.93619 0.79773 0.30212 0.0
C804 C 0.98792 0.79736 0.29379 0.0
C805 C 0.99135 0.76793 0.29896 0.0
C806 C 0.9667 0.75338 0.30535 0.0
C807 C 0.93958 0.76814 0.30701 0.0
H808 H 0.43322 0.71179 0.54167 0.0
H809 H 0.51302 0.67241 0.56014 0.0
H810 H 0.45873 0.75978 0.53987 0.0
H811 H 0.53836 0.72002 0.55822 0.0
H812 H 0.58237 0.80562 0.54122 0.0
H813 H 0.55661 0.75793 0.53883 0.0
H814 H 0.47864 0.79606 0.55982 0.0
H815 H 0.50424 0.84346 0.56232 0.0
C816 C 0.45625 0.71325 0.54515 0.0
C817 C 0.47098 0.68828 0.55114 0.0
C818 C 0.47082 0.74075 0.54419 0.0
C819 C 0.50058 0.74371 0.54892 0.0
C820 C 0.51555 0.71847 0.55436 0.0
C821 C 0.50091 0.6912 0.55556 0.0
C822 C 0.55965 0.80389 0.5452 0.0
C823 C 0.5455 0.82836 0.55206 0.0
C824 C 0.54493 0.77656 0.54388 0.0
C825 C 0.51556 0.77322 0.54914 0.0
C826 C 0.50112 0.79795 0.55552 0.0
C827 C 0.51595 0.82507 0.55707 0.0
H828 H 0.59144 0.26196 0.80932 0.0
H829 H 0.55405 0.18164 0.79038 0.0
H830 H 0.54366 0.28673 0.80669 0.0
H831 H 0.50582 0.20657 0.78789 0.0
H832 H 0.42133 0.25096 0.81072 0.0
H833 H 0.46889 0.22583 0.80783 0.0
H834 H 0.5058 0.30444 0.7869 0.0
H835 H 0.45784 0.32971 0.78966 0.0
C836 C 0.57305 0.24962 0.80447 0.0
C837 C 0.57655 0.2197 0.80016 0.0
C838 C 0.54569 0.26395 0.80285 0.0
C839 C 0.52092 0.24865 0.7971 0.0
C840 C 0.5245 0.21891 0.79243 0.0
C841 C 0.55211 0.20468 0.79379 0.0
C842 C 0.43945 0.26286 0.80534 0.0
C843 C 0.43579 0.29247 0.80052 0.0
C844 C 0.46667 0.24832 0.80357 0.0
C845 C 0.49114 0.26312 0.79716 0.0
C846 C 0.48736 0.29249 0.79196 0.0
C847 C 0.45988 0.30692 0.79348 0.0
H848 H 0.93316 0.80483 0.46567 0.0
H849 H 0.01198 0.84142 0.4447 0.0
H850 H 0.9583 0.75676 0.46823 0.0
H851 H 0.03698 0.79376 0.44742 0.0
H852 H 0.08137 0.70958 0.46586 0.0
H853 H 0.05596 0.75756 0.46777 0.0
H854 H 0.97671 0.71851 0.44862 0.0
H855 H 1.002 0.67083 0.44655 0.0
C856 C 0.95591 0.80275 0.46179 0.0
C857 C 0.97045 0.82694 0.45489 0.0
C858 C 0.97026 0.77521 0.4632 0.0
C859 C 0.99965 0.77148 0.45804 0.0
C860 C 0.01447 0.79596 0.45164 0.0
C861 C 1.0 0.82324 0.44998 0.0
C862 C 0.05843 0.71116 0.46223 0.0
C863 C 0.04382 0.68638 0.45595 0.0
C864 C 0.04392 0.73866 0.46327 0.0
C865 C 0.01432 0.74183 0.45833 0.0
C866 C 0.9994 0.71676 0.45264 0.0
C867 C 0.01401 0.68947 0.45136 0.0
H868 H 0.59116 0.75135 0.6991 0.0
H869 H 0.54994 0.83324 0.7135 0.0
H870 H 0.5437 0.72571 0.70144 0.0
H871 H 0.50209 0.80751 0.71567 0.0
H872 H 0.42058 0.7585 0.69343 0.0
H873 H 0.46766 0.78447 0.69589 0.0
H874 H 0.50415 0.70998 0.7207 0.0
H875 H 0.45666 0.68372 0.7183 0.0
C876 C 0.57197 0.76385 0.70288 0.0
C877 C 0.5743 0.79441 0.70602 0.0
C878 C 0.5448 0.74907 0.70434 0.0
C879 C 0.51909 0.76454 0.70871 0.0
C880 C 0.5215 0.79499 0.7122 0.0
C881 C 0.54889 0.80971 0.71103 0.0
C882 C 0.43849 0.74761 0.69953 0.0
C883 C 0.43477 0.71884 0.70559 0.0
C884 C 0.46546 0.76269 0.70104 0.0
C885 C 0.48966 0.74936 0.7085 0.0
C886 C 0.48592 0.7208 0.71482 0.0
C887 C 0.4587 0.7058 0.7135 0.0
H888 H 0.50446 0.1699 0.94616 0.0
H889 H 0.58456 0.20871 0.96458 0.0
H890 H 0.47895 0.21721 0.94884 0.0
H891 H 0.55884 0.25655 0.96714 0.0
H892 H 0.51262 0.34021 0.94465 0.0
H893 H 0.53856 0.29309 0.94738 0.0
H894 H 0.46083 0.25472 0.96849 0.0
H895 H 0.4347 0.30224 0.96588 0.0
C896 C 0.51661 0.18852 0.9509 0.0
C897 C 0.54668 0.18556 0.95503 0.0
C898 C 0.50184 0.21561 0.95256 0.0
C899 C 0.51683 0.24066 0.95818 0.0
C900 C 0.54673 0.23763 0.9627 0.0
C901 C 0.56143 0.21026 0.96129 0.0
C902 C 0.50104 0.32183 0.94999 0.0
C903 C 0.47142 0.32497 0.95492 0.0
C904 C 0.51607 0.29488 0.95168 0.0
C905 C 0.5018 0.27015 0.95814 0.0
C906 C 0.47239 0.27337 0.9634 0.0
C907 C 0.45745 0.30058 0.96195 0.0
H908 H 0.05652 0.32987 0.21561 0.0
H909 H 0.0964 0.25188 0.19541 0.0
H910 H 0.00909 0.30353 0.21752 0.0
H911 H 0.0492 0.22566 0.19746 0.0
H912 H 0.96289 0.18059 0.21429 0.0
H913 H 0.01099 0.20585 0.21691 0.0
H914 H 0.97334 0.28509 0.19699 0.0
H915 H 0.92582 0.26005 0.19422 0.0
C916 C 0.05531 0.30703 0.21177 0.0
C917 C 0.08023 0.29312 0.20523 0.0
C918 C 0.02813 0.29198 0.21282 0.0
C919 C 0.0254 0.26251 0.20762 0.0
C920 C 0.05062 0.24823 0.20169 0.0
C921 C 0.07762 0.26339 0.2004 0.0
C922 C 0.96489 0.20346 0.2106 0.0
C923 C 0.94057 0.21819 0.20394 0.0
C924 C 0.99241 0.21788 0.21205 0.0
C925 C 0.99593 0.24751 0.20719 0.0
C926 C 0.97132 0.26241 0.201 0.0
C927 C 0.94412 0.24791 0.19929 0.0
H928 H 0.01186 0.67109 0.94849 0.0
H929 H 0.93228 0.70935 0.9678 0.0
H930 H 0.0372 0.71858 0.95099 0.0
H931 H 0.95779 0.75729 0.97019 0.0
H932 H 1.00254 0.84176 0.94779 0.0
H933 H 0.97701 0.79438 0.95053 0.0
H934 H 0.05592 0.75601 0.97042 0.0
H935 H 0.08162 0.80371 0.96779 0.0
C936 C 0.99982 0.6896 0.95341 0.0
C937 C 0.96993 0.68642 0.95786 0.0
C938 C 0.01447 0.71681 0.95495 0.0
C939 C 0.99955 0.74177 0.96076 0.0
C940 C 0.96986 0.73849 0.96559 0.0
C941 C 0.95529 0.71102 0.9643 0.0
C942 C 0.01445 0.82334 0.95289 0.0
C943 C 0.04427 0.82655 0.95747 0.0
C944 C 0.99967 0.79621 0.95457 0.0
C945 C 0.0144 0.77138 0.96068 0.0
C946 C 0.044 0.7747 0.9656 0.0
C947 C 0.05869 0.80205 0.96415 0.0
H948 H 0.94982 0.30827 0.67836 0.0
H949 H 0.93507 0.29117 0.72652 0.0
H950 H 0.99569 0.28018 0.67925 0.0
H951 H 0.98006 0.26072 0.72735 0.0
H952 H 0.07591 0.22458 0.72633 0.0
H953 H 0.03082 0.25484 0.72721 0.0
H954 H 0.01406 0.23372 0.6794 0.0
H955 H 0.06008 0.20583 0.67843 0.0
C956 C 0.95647 0.29827 0.68917 0.0
C957 C 0.93893 0.30188 0.70236 0.0
C958 C 0.98265 0.28168 0.68968 0.0
C959 C 0.99165 0.2672 0.70329 0.0
C960 C 0.97429 0.27151 0.71665 0.0
C961 C 0.94839 0.28894 0.71621 0.0
C962 C 0.06232 0.22639 0.7161 0.0
C963 C 0.07151 0.21305 0.70229 0.0
C964 C 0.03636 0.2437 0.71656 0.0
C965 C 0.01865 0.24751 0.70329 0.0
C966 C 0.02736 0.23261 0.68974 0.0
C967 C 0.05363 0.21613 0.68919 0.0
H968 H 0.58301 0.30368 0.46611 0.0
H969 H 0.5037 0.3425 0.4468 0.0
H970 H 0.55734 0.25579 0.46824 0.0
H971 H 0.47817 0.29503 0.4491 0.0
H972 H 0.43391 0.20948 0.46621 0.0
H973 H 0.45964 0.25721 0.46887 0.0
H974 H 0.53786 0.21942 0.44796 0.0
H975 H 0.51226 0.17209 0.44515 0.0
C976 C 0.56003 0.30213 0.46254 0.0
C977 C 0.54551 0.32687 0.45618 0.0
C978 C 0.54537 0.27471 0.4637 0.0
C979 C 0.51571 0.27163 0.45883 0.0
C980 C 0.50089 0.29669 0.45308 0.0
C981 C 0.51565 0.32386 0.45166 0.0
C982 C 0.45669 0.2113 0.46234 0.0
C983 C 0.47091 0.187 0.45536 0.0
C984 C 0.47138 0.23864 0.46381 0.0
C985 C 0.50081 0.24208 0.45863 0.0
C986 C 0.51533 0.21746 0.4522 0.0
C987 C 0.50052 0.19037 0.45048 0.0
H988 H 0.46106 0.83224 0.21637 0.0
H989 H 0.42279 0.75245 0.1973 0.0
H990 H 0.50914 0.80694 0.21857 0.0
H991 H 0.47044 0.7273 0.19965 0.0
H992 H 0.55565 0.68342 0.21711 0.0
H993 H 0.50785 0.70905 0.21937 0.0
H994 H 0.54617 0.78736 0.19882 0.0
H995 H 0.59366 0.76187 0.19644 0.0
C996 C 0.46278 0.80925 0.21286 0.0
C997 C 0.43811 0.79446 0.20657 0.0
C998 C 0.49032 0.7948 0.21405 0.0
C999 C 0.4936 0.76509 0.20928 0.0
C1000 C 0.46864 0.75006 0.20355 0.0
C1001 C 0.44135 0.7646 0.20211 0.0
C1002 C 0.55395 0.70619 0.21323 0.0
C1003 C 0.57849 0.72047 0.20649 0.0
C1004 C 0.52655 0.72084 0.21447 0.0
C1005 C 0.52321 0.75026 0.20927 0.0
C1006 C 0.54803 0.76484 0.20307 0.0
C1007 C 0.57522 0.75008 0.2016 0.0
H1008 H 0.01178 0.34144 0.56279 0.0
H1009 H 0.9332 0.30345 0.54226 0.0
H1010 H 0.03722 0.29395 0.56046 0.0
H1011 H 0.95879 0.25551 0.54008 0.0
H1012 H 1.00338 0.17053 0.56212 0.0
H1013 H 0.9777 0.21797 0.55991 0.0
H1014 H 0.05654 0.25736 0.54048 0.0
H1015 H 0.08235 0.20962 0.54255 0.0
C1016 C 0.99995 0.32297 0.55768 0.0
C1017 C 0.97034 0.32624 0.55279 0.0
C1018 C 0.01467 0.29579 0.55625 0.0
C1019 C 1.00006 0.27095 0.5501 0.0
C1020 C 0.9706 0.27425 0.54493 0.0
C1021 C 0.95599 0.3017 0.54612 0.0
C1022 C 0.01525 0.18921 0.55726 0.0
C1023 C 0.04505 0.18626 0.55261 0.0
C1024 C 1.0004 0.21636 0.55588 0.0
C1025 C 0.01506 0.24144 0.55003 0.0
C1026 C 0.04469 0.23844 0.5451 0.0
C1027 C 0.05944 0.21108 0.54624 0.0
H1028 H 0.42011 0.2613 0.31265 0.0
H1029 H 0.45769 0.18331 0.29132 0.0
H1030 H 0.46743 0.28698 0.31 0.0
H1031 H 0.50539 0.20913 0.28881 0.0
H1032 H 0.59044 0.25243 0.31131 0.0
H1033 H 0.54292 0.22713 0.30875 0.0
H1034 H 0.5041 0.30687 0.28999 0.0
H1035 H 0.55208 0.33233 0.2924 0.0
C1036 C 0.43843 0.24967 0.30729 0.0
C1037 C 0.43514 0.22011 0.3023 0.0
C1038 C 0.4655 0.26453 0.30566 0.0
C1039 C 0.49017 0.25012 0.29921 0.0
C1040 C 0.48679 0.22078 0.29389 0.0
C1041 C 0.45947 0.20603 0.29528 0.0
C1042 C 0.57188 0.26457 0.3065 0.0
C1043 C 0.57502 0.29452 0.30216 0.0
C1044 C 0.54469 0.24994 0.30491 0.0
C1045 C 0.51973 0.26497 0.29918 0.0
C1046 C 0.52294 0.29474 0.29451 0.0
C1047 C 0.5504 0.30928 0.29583 0.0
H1048 H 0.45028 0.81318 0.03495 0.0
H1049 H 0.49439 0.83328 0.07789 0.0
H1050 H 0.47788 0.76609 0.03353 0.0
H1051 H 0.52152 0.7871 0.07635 0.0
H1052 H 0.53218 0.68789 0.08033 0.0
H1053 H 0.50566 0.73447 0.07883 0.0
H1054 H 0.53245 0.74469 0.03146 0.0
H1055 H 0.55938 0.69717 0.03289 0.0
C1056 C 0.46581 0.80772 0.04403 0.0
C1057 C 0.46978 0.82708 0.0566 0.0
C1058 C 0.48176 0.78087 0.04315 0.0
C1059 C 0.50172 0.77277 0.05489 0.0
C1060 C 0.50603 0.79243 0.06722 0.0
C1061 C 0.49039 0.81907 0.06806 0.0
C1062 C 0.53256 0.69984 0.06952 0.0
C1063 C 0.54813 0.68864 0.05673 0.0
C1064 C 0.51735 0.72673 0.0687 0.0
C1065 C 0.51703 0.74341 0.05506 0.0
C1066 C 0.53219 0.73224 0.04212 0.0
C1067 C 0.5478 0.70519 0.04298 0.0
H1068 H 0.94878 0.70293 0.78436 0.0
H1069 H 0.9327 0.74184 0.82907 0.0
H1070 H 0.99648 0.72947 0.78302 0.0
H1071 H 0.97952 0.76794 0.82761 0.0
H1072 H 0.07906 0.77726 0.82981 0.0
H1073 H 0.03218 0.75114 0.82842 0.0
H1074 H 0.01844 0.78382 0.78231 0.0
H1075 H 0.06613 0.81036 0.78362 0.0
C1076 C 0.95528 0.71708 0.79386 0.0
C1077 C 0.93682 0.71998 0.80686 0.0
C1078 C 0.98248 0.73243 0.79303 0.0
C1079 C 0.99186 0.75065 0.80526 0.0
C1080 C 0.97318 0.7538 0.81808 0.0
C1081 C 0.94616 0.73879 0.81886 0.0
C1082 C 0.06627 0.779 0.8193 0.0
C1083 C 0.0765 0.79616 0.80684 0.0
C1084 C 0.03923 0.76401 0.81854 0.0
C1085 C 0.02146 0.76551 0.8053 0.0
C1086 C 0.03173 0.78214 0.79265 0.0
C1087 C 0.05891 0.79751 0.79346 0.0
H1088 H 0.31883 0.4439 0.97752 0.0
H1089 H 0.33412 0.35598 0.99554 0.0
H1090 H 0.26952 0.44433 0.98933 0.0
H1091 H 0.28469 0.35631 0.00722 0.0
H1092 H 0.18204 0.35496 0.01063 0.0
H1093 H 0.2312 0.35567 0.99859 0.0
H1094 H 0.24519 0.44471 0.01535 0.0
H1095 H 0.19624 0.44389 0.02749 0.0
C1096 C 0.31181 0.42475 0.98411 0.0
C1097 C 0.33062 0.39996 0.98561 0.0
C1098 C 0.28348 0.425 0.9909 0.0
C1099 C 0.27293 0.40028 0.99917 0.0
C1100 C 0.29188 0.3756 1.00079 0.0
C1101 C 0.32038 0.37553 0.99421 0.0
C1102 C 0.19546 0.37481 0.01161 0.0
C1103 C 0.18506 0.39939 0.02002 0.0
C1104 C 0.2238 0.37512 0.00482 0.0
C1105 C 0.24235 0.40019 0.00605 0.0
C1106 C 0.23154 0.42508 0.01408 0.0
C1107 C 0.20343 0.42459 0.02107 0.0
H1108 H 0.81542 0.07163 0.22878 0.0
H1109 H 0.90422 0.08492 0.24605 0.0
H1110 H 0.81409 0.02248 0.24082 0.0
H1111 H 0.90301 0.03572 0.2579 0.0
H1112 H 0.90281 0.93322 0.2606 0.0
H1113 H 0.90212 0.98243 0.2487 0.0
H1114 H 0.81456 0.99787 0.26713 0.0
H1115 H 0.81539 0.94876 0.27921 0.0
C1116 C 0.83455 0.06423 0.23527 0.0
C1117 C 0.85988 0.08239 0.23647 0.0
C1118 C 0.83378 0.03601 0.24218 0.0
C1119 C 0.85854 0.02494 0.25024 0.0
C1120 C 0.88368 0.04331 0.25163 0.0
C1121 C 0.88426 0.0717 0.24494 0.0
C1122 C 0.88327 0.94694 0.26199 0.0
C1123 C 0.85913 0.93689 0.27086 0.0
C1124 C 0.88298 0.97532 0.25528 0.0
C1125 C 0.85837 0.9943 0.25703 0.0
C1126 C 0.83384 0.98387 0.26549 0.0
C1127 C 0.83433 0.95568 0.27242 0.0
H1128 H 0.20913 0.58958 0.46632 0.0
H1129 H 0.17187 0.63468 0.50563 0.0
H1130 H 0.25788 0.58927 0.47878 0.0
H1131 H 0.22062 0.63337 0.51833 0.0
H1132 H 0.30709 0.58892 0.54004 0.0
H1133 H 0.25835 0.58856 0.52756 0.0
H1134 H 0.29526 0.63404 0.48835 0.0
H1135 H 0.34398 0.63539 0.50106 0.0
C1136 C 0.21123 0.5991 0.47771 0.0
C1137 C 0.18651 0.61208 0.485 0.0
C1138 C 0.23923 0.59907 0.48479 0.0
C1139 C 0.2431 0.61132 0.49951 0.0
C1140 C 0.21828 0.6237 0.50699 0.0
C1141 C 0.19039 0.62445 0.49972 0.0
C1142 C 0.30492 0.59871 0.52871 0.0
C1143 C 0.32952 0.6121 0.52152 0.0
C1144 C 0.27692 0.59866 0.52163 0.0
C1145 C 0.27295 0.61132 0.507 0.0
C1146 C 0.29767 0.62406 0.49962 0.0
C1147 C 0.32555 0.62483 0.50689 0.0
H1148 H 0.69789 0.06804 0.77875 0.0
H1149 H 0.61085 0.08448 0.75986 0.0
H1150 H 0.69809 0.01868 0.76687 0.0
H1151 H 0.61089 0.03507 0.74822 0.0
H1152 H 0.60752 0.93246 0.74604 0.0
H1153 H 0.60941 0.98171 0.75788 0.0
H1154 H 0.69806 0.99418 0.74028 0.0
H1155 H 0.69603 0.94508 0.72822 0.0
C1156 C 0.67891 0.06126 0.77195 0.0
C1157 C 0.65441 0.08038 0.77023 0.0
C1158 C 0.67903 0.03294 0.76515 0.0
C1159 C 0.6544 0.02273 0.75669 0.0
C1160 C 0.63008 0.04202 0.75481 0.0
C1161 C 0.63019 0.0705 0.76137 0.0
C1162 C 0.62755 0.94555 0.74481 0.0
C1163 C 0.65163 0.9347 0.73617 0.0
C1164 C 0.62853 0.97392 0.7515 0.0
C1165 C 0.65382 0.99207 0.74997 0.0
C1166 C 0.67828 0.98082 0.74175 0.0
C1167 C 0.67709 0.95265 0.73482 0.0
H1168 H 0.70574 0.58519 0.0396 0.0
H1169 H 0.66925 0.63438 1.00143 0.0
H1170 H 0.75443 0.58521 0.02719 0.0
H1171 H 0.71808 0.63339 0.98872 0.0
H1172 H 0.80486 0.58897 0.96642 0.0
H1173 H 0.75569 0.58891 0.97847 0.0
H1174 H 0.7925 0.63018 0.01893 0.0
H1175 H 0.84165 0.63127 0.00667 0.0
C1176 C 0.70796 0.59566 0.02844 0.0
C1177 C 0.68343 0.60969 0.02149 0.0
C1178 C 0.73598 0.59582 0.02139 0.0
C1179 C 0.74016 0.60935 0.007 0.0
C1180 C 0.71553 0.62273 0.99981 0.0
C1181 C 0.68758 0.62328 0.00707 0.0
C1182 C 0.80256 0.59792 0.97792 0.0
C1183 C 0.82732 0.61 0.9856 0.0
C1184 C 0.77431 0.59807 0.98476 0.0
C1185 C 0.77018 0.60959 0.99963 0.0
C1186 C 0.795 0.62111 0.00747 0.0
C1187 C 0.82314 0.6217 1.00045 0.0
H1188 H 0.19635 0.94402 0.77844 0.0
H1189 H 0.108 0.92805 0.76117 0.0
H1190 H 0.19619 0.99318 0.76654 0.0
H1191 H 0.10774 0.9774 0.74935 0.0
H1192 H 0.10561 0.08025 0.74655 0.0
H1193 H 0.10694 0.03075 0.75818 0.0
H1194 H 0.19564 0.01785 0.7407 0.0
H1195 H 0.19422 0.06716 0.72898 0.0
C1196 C 0.177 0.95084 0.77196 0.0
C1197 C 0.15224 0.93192 0.77073 0.0
C1198 C 0.17691 0.97909 0.76512 0.0
C1199 C 0.15186 0.98946 0.75706 0.0
C1200 C 0.12727 0.97034 0.75563 0.0
C1201 C 0.12754 0.94188 0.76227 0.0
C1202 C 0.12552 0.067 0.74533 0.0
C1203 C 0.14984 0.07783 0.73686 0.0
C1204 C 0.12617 0.03846 0.75187 0.0
C1205 C 0.15133 0.02012 0.75031 0.0
C1206 C 0.17595 0.03133 0.74221 0.0
C1207 C 0.17512 0.05965 0.73547 0.0
H1208 H 0.83452 0.35881 0.51129 0.0
H1209 H 0.82008 0.4472 0.52887 0.0
H1210 H 0.78519 0.35953 0.49948 0.0
H1211 H 0.77091 0.44805 0.51688 0.0
H1212 H 0.69741 0.4468 0.47857 0.0
H1213 H 0.74663 0.44767 0.4905 0.0
H1214 H 0.73168 0.3599 0.50876 0.0
H1215 H 0.68231 0.35917 0.497 0.0
C1216 C 0.82101 0.37857 0.51247 0.0
C1217 C 0.83139 0.40298 0.52101 0.0
C1218 C 0.79258 0.37887 0.50582 0.0
C1219 C 0.77391 0.40378 0.5073 0.0
C1220 C 0.78467 0.42854 0.51545 0.0
C1221 C 0.8129 0.42805 0.52233 0.0
C1222 C 0.70446 0.42781 0.48528 0.0
C1223 C 0.68576 0.40296 0.48686 0.0
C1224 C 0.73271 0.42833 0.49213 0.0
C1225 C 0.74329 0.40377 0.50051 0.0
C1226 C 0.72443 0.37906 0.50225 0.0
C1227 C 0.69598 0.37876 0.49562 0.0
H1228 H 0.40374 0.0839 0.26119 0.0
H1229 H 0.31589 0.06815 0.27921 0.0
H1230 H 0.40348 0.03464 0.24932 0.0
H1231 H 0.3155 0.01904 0.26716 0.0
H1232 H 0.31711 0.94569 0.22877 0.0
H1233 H 0.31577 0.9949 0.24071 0.0
H1234 H 0.40402 0.9811 0.2586 0.0
H1235 H 0.40521 0.93175 0.24684 0.0
C1236 C 0.3842 0.07012 0.26246 0.0
C1237 C 0.3598 0.08012 0.27115 0.0
C1238 C 0.38417 0.04173 0.25577 0.0
C1239 C 0.35955 0.02272 0.25735 0.0
C1240 C 0.33478 0.03308 0.26564 0.0
C1241 C 0.33502 0.06128 0.27256 0.0
C1242 C 0.33611 0.95299 0.2354 0.0
C1243 C 0.36122 0.93462 0.23688 0.0
C1244 C 0.33533 0.98123 0.24225 0.0
C1245 C 0.35987 0.99213 0.25054 0.0
C1246 C 0.38485 0.9736 0.25216 0.0
C1247 C 0.38543 0.94516 0.24553 0.0
H1248 H 0.81958 0.94729 0.47814 0.0
H1249 H 0.83569 0.85972 0.49642 0.0
H1250 H 0.77063 0.94779 0.49038 0.0
H1251 H 0.78663 0.86009 0.50849 0.0
H1252 H 0.68392 0.85818 0.51161 0.0
H1253 H 0.73302 0.85927 0.49956 0.0
H1254 H 0.74691 0.94793 0.51686 0.0
H1255 H 0.69796 0.94672 0.52907 0.0
C1256 C 0.81282 0.92825 0.48488 0.0
C1257 C 0.83171 0.90351 0.48632 0.0
C1258 C 0.78472 0.92854 0.49191 0.0
C1259 C 0.77452 0.90389 0.50034 0.0
C1260 C 0.79358 0.87931 0.50194 0.0
C1261 C 0.82186 0.87922 0.49513 0.0
C1262 C 0.69731 0.87802 0.51273 0.0
C1263 C 0.68689 0.90238 0.5213 0.0
C1264 C 0.7256 0.87855 0.50594 0.0
C1265 C 0.74407 0.90363 0.50731 0.0
C1266 C 0.73329 0.92831 0.51551 0.0
C1267 C 0.7052 0.92759 0.52253 0.0
H1268 H 0.38256 0.59056 0.75542 0.0
H1269 H 0.33635 0.5538 0.71632 0.0
H1270 H 0.38086 0.54187 0.76814 0.0
H1271 H 0.3356 0.5051 0.72882 0.0
H1272 H 0.3801 0.41816 0.75079 0.0
H1273 H 0.37912 0.46684 0.73804 0.0
H1274 H 0.33663 0.5049 0.77786 0.0
H1275 H 0.33663 0.45623 0.79039 0.0
C1276 C 0.37199 0.57216 0.74956 0.0
C1277 C 0.35943 0.57619 0.73489 0.0
C1278 C 0.37101 0.54429 0.75685 0.0
C1279 C 0.3582 0.51961 0.74945 0.0
C1280 C 0.34575 0.52362 0.73478 0.0
C1281 C 0.34603 0.55161 0.72767 0.0
C1282 C 0.37025 0.43684 0.75675 0.0
C1283 C 0.35826 0.43319 0.77157 0.0
C1284 C 0.3697 0.4647 0.74945 0.0
C1285 C 0.35792 0.48975 0.75698 0.0
C1286 C 0.34599 0.48609 0.77179 0.0
C1287 C 0.34582 0.45813 0.77892 0.0
H1288 H 0.84334 0.12772 1.00059 0.0
H1289 H 0.80676 0.08196 0.03986 0.0
H1290 H 0.79467 0.1257 0.98786 0.0
H1291 H 0.75799 0.08097 0.02736 0.0
H1292 H 0.67167 0.12815 0.00515 0.0
H1293 H 0.72033 0.12606 0.0179 0.0
H1294 H 0.75687 0.08077 0.97854 0.0
H1295 H 0.70814 0.08182 0.96603 0.0
C1296 C 0.825 0.11709 0.00647 0.0
C1297 C 0.82907 0.10482 0.02121 0.0
C1298 C 0.79713 0.11596 0.99918 0.0
C1299 C 0.77244 0.1033 0.00664 0.0
C1300 C 0.77652 0.09098 0.02135 0.0
C1301 C 0.80454 0.09138 0.02845 0.0
C1302 C 0.68999 0.11742 0.9993 0.0
C1303 C 0.68588 0.10499 0.9846 0.0
C1304 C 0.71784 0.11622 0.0066 0.0
C1305 C 0.74248 0.10334 0.9992 0.0
C1306 C 0.73838 0.09093 0.98451 0.0
C1307 C 0.71038 0.09139 0.9774 0.0
H1308 H 0.12657 0.59425 0.25129 0.0
H1309 H 0.17222 0.55692 0.29041 0.0
H1310 H 0.12816 0.54565 0.23845 0.0
H1311 H 0.17282 0.50832 0.27781 0.0
H1312 H 0.12817 0.42186 0.25528 0.0
H1313 H 0.12855 0.47047 0.26813 0.0
H1314 H 0.17341 0.50868 0.22905 0.0
H1315 H 0.17402 0.46008 0.21644 0.0
C1316 C 0.13696 0.57574 0.25714 0.0
C1317 C 0.14943 0.57956 0.27184 0.0
C1318 C 0.13787 0.54793 0.24979 0.0
C1319 C 0.1505 0.52314 0.25717 0.0
C1320 C 0.16281 0.52695 0.27188 0.0
C1321 C 0.16262 0.55486 0.27904 0.0
C1322 C 0.13836 0.44057 0.2495 0.0
C1323 C 0.15123 0.437 0.23487 0.0
C1324 C 0.13857 0.46838 0.25685 0.0
C1325 C 0.15089 0.49341 0.24956 0.0
C1326 C 0.16362 0.48986 0.23492 0.0
C1327 C 0.16412 0.46195 0.22776 0.0
H1328 H 0.18368 0.15678 0.51211 0.0
H1329 H 0.19755 0.06803 0.52932 0.0
H1330 H 0.23274 0.15568 0.50001 0.0
H1331 H 0.24646 0.06681 0.51706 0.0
H1332 H 0.31896 0.06761 0.47825 0.0
H1333 H 0.27006 0.06715 0.49055 0.0
H1334 H 0.28641 0.15462 0.50887 0.0
H1335 H 0.33543 0.15495 0.49675 0.0
C1336 C 0.19702 0.13689 0.51317 0.0
C1337 C 0.18656 0.11247 0.52168 0.0
C1338 C 0.22529 0.13636 0.50634 0.0
C1339 C 0.2437 0.11122 0.50763 0.0
C1340 C 0.23288 0.08648 0.51578 0.0
C1341 C 0.20481 0.08721 0.52282 0.0
C1342 C 0.31228 0.08661 0.48505 0.0
C1343 C 0.33126 0.11127 0.48654 0.0
C1344 C 0.28422 0.08634 0.49211 0.0
C1345 C 0.27413 0.11094 0.50062 0.0
C1346 C 0.29328 0.13543 0.50226 0.0
C1347 C 0.32153 0.1355 0.49542 0.0
H1348 H 0.62927 0.42043 0.25214 0.0
H1349 H 0.67557 0.45745 0.29114 0.0
H1350 H 0.63067 0.4691 0.23938 0.0
H1351 H 0.67595 0.50618 0.27862 0.0
H1352 H 0.62955 0.5925 0.25636 0.0
H1353 H 0.63078 0.54383 0.26914 0.0
H1354 H 0.67592 0.50655 0.22992 0.0
H1355 H 0.6757 0.55523 0.21738 0.0
C1356 C 0.6398 0.43889 0.25797 0.0
C1357 C 0.65248 0.43494 0.27262 0.0
C1358 C 0.6406 0.46674 0.25067 0.0
C1359 C 0.6533 0.4915 0.25804 0.0
C1360 C 0.66588 0.48758 0.27269 0.0
C1361 C 0.66583 0.45959 0.2798 0.0
C1362 C 0.63999 0.57399 0.25054 0.0
C1363 C 0.65268 0.57786 0.23588 0.0
C1364 C 0.6407 0.54615 0.25785 0.0
C1365 C 0.65334 0.52133 0.2505 0.0
C1366 C 0.66591 0.52519 0.23584 0.0
C1367 C 0.66593 0.55315 0.22871 0.0
H1368 H 0.17365 0.87867 0.00604 0.0
H1369 H 0.21064 0.92251 0.96629 0.0
H1370 H 0.22256 0.87997 0.01855 0.0
H1371 H 0.25961 0.92278 0.97857 0.0
H1372 H 0.34615 0.87778 1.00178 0.0
H1373 H 0.29758 0.87831 0.98881 0.0
H1374 H 0.25982 0.92551 0.02724 0.0
H1375 H 0.30827 0.92599 0.03992 0.0
C1376 C 0.19216 0.88859 0.99998 0.0
C1377 C 0.18812 0.90068 0.98521 0.0
C1378 C 0.22016 0.88931 0.00714 0.0
C1379 C 0.24498 0.90135 0.99951 0.0
C1380 C 0.24099 0.91321 0.9847 0.0
C1381 C 0.21286 0.91323 0.97773 0.0
C1382 C 0.32757 0.88855 0.00737 0.0
C1383 C 0.33124 0.90201 0.02185 0.0
C1384 C 0.29977 0.88884 0.99995 0.0
C1385 C 0.27483 0.90182 0.00705 0.0
C1386 C 0.27853 0.9152 0.02152 0.0
C1387 C 0.30639 0.91562 0.02872 0.0
H1388 H 0.83949 0.46193 0.71701 0.0
H1389 H 0.88562 0.42519 0.75613 0.0
H1390 H 0.83926 0.51078 0.72935 0.0
H1391 H 0.88435 0.47407 0.76873 0.0
H1392 H 0.83738 0.55978 0.79036 0.0
H1393 H 0.83826 0.51114 0.77787 0.0
H1394 H 0.88422 0.54895 0.73904 0.0
H1395 H 0.88438 0.5977 0.75182 0.0
C1396 C 0.84928 0.46417 0.72833 0.0
C1397 C 0.86245 0.43952 0.73561 0.0
C1398 C 0.84932 0.49224 0.73533 0.0
C1399 C 0.86183 0.49631 0.74998 0.0
C1400 C 0.8745 0.4716 0.75743 0.0
C1401 C 0.87521 0.44362 0.75023 0.0
C1402 C 0.84756 0.55786 0.77912 0.0
C1403 C 0.86068 0.58278 0.77207 0.0
C1404 C 0.84823 0.52989 0.77203 0.0
C1405 C 0.86137 0.52617 0.7575 0.0
C1406 C 0.87391 0.55116 0.75024 0.0
C1407 C 0.87396 0.57906 0.75754 0.0
H1408 H 0.14837 0.34201 0.08681 0.0
H1409 H 0.10637 0.42764 0.09166 0.0
H1410 H 0.14945 0.33682 0.11481 0.0
H1411 H 0.10848 0.42314 0.11946 0.0
H1412 H 0.09322 0.39716 0.16909 0.0
H1413 H 0.08841 0.39851 0.14107 0.0
H1414 H 0.174 0.35591 0.13666 0.0
H1415 H 0.17809 0.35355 0.16445 0.0
C1416 C 0.13959 0.35978 0.09386 0.0
C1417 C 0.12734 0.3852 0.08706 0.0
C1418 C 0.14027 0.35691 0.10991 0.0
C1419 C 0.129 0.37957 0.11946 0.0
C1420 C 0.1168 0.40497 0.11254 0.0
C1421 C 0.11585 0.40767 0.09657 0.0
C1422 C 0.11087 0.38801 0.16208 0.0
C1423 C 0.13601 0.37531 0.16895 0.0
C1424 C 0.10823 0.38887 0.14603 0.0
C1425 C 0.13086 0.37733 0.13654 0.0
C1426 C 0.15588 0.36451 0.14352 0.0
C1427 C 0.15834 0.36339 0.1595 0.0
H1428 H 0.86645 0.84479 0.41966 0.0
H1429 H 0.91021 0.92955 0.41489 0.0
H1430 H 0.8644 0.84025 0.39162 0.0
H1431 H 0.90717 0.92573 0.38714 0.0
H1432 H 0.92008 0.90057 0.33713 0.0
H1433 H 0.92586 0.9014 0.36513 0.0
H1434 H 0.83952 0.86061 0.37017 0.0
H1435 H 0.83444 0.85878 0.34243 0.0
C1436 C 0.87542 0.86248 0.41263 0.0
C1437 C 0.88844 0.88748 0.41946 0.0
C1438 C 0.8742 0.86 0.39656 0.0
C1439 C 0.88568 0.88265 0.38705 0.0
C1440 C 0.89866 0.90758 0.39401 0.0
C1441 C 0.90015 0.90988 0.40998 0.0
C1442 C 0.90245 0.89181 0.34427 0.0
C1443 C 0.87685 0.87966 0.3376 0.0
C1444 C 0.90565 0.89231 0.36032 0.0
C1445 C 0.88316 0.88098 0.36997 0.0
C1446 C 0.85758 0.86895 0.36318 0.0
C1447 C 0.85456 0.86817 0.34723 0.0
H1448 H 0.40401 0.59725 0.66901 0.0
H1449 H 0.35589 0.67973 0.66517 0.0
H1450 H 0.40831 0.59507 0.64103 0.0
H1451 H 0.36169 0.67876 0.63748 0.0
H1452 H 0.3478 0.65305 0.58742 0.0
H1453 H 0.34441 0.65599 0.61539 0.0
H1454 H 0.43074 0.61456 0.61927 0.0
H1455 H 0.43301 0.61005 0.5915 0.0
C1456 C 0.39483 0.61515 0.66219 0.0
C1457 C 0.37955 0.63856 0.66926 0.0
C1458 C 0.39739 0.61407 0.64614 0.0
C1459 C 0.38522 0.63671 0.63686 0.0
C1460 C 0.3707 0.66052 0.6441 0.0
C1461 C 0.36764 0.66125 0.66006 0.0
C1462 C 0.36604 0.64475 0.59431 0.0
C1463 C 0.39058 0.63125 0.5873 0.0
C1464 C 0.36424 0.64652 0.61036 0.0
C1465 C 0.38729 0.6354 0.61973 0.0
C1466 C 0.41221 0.62271 0.61257 0.0
C1467 C 0.41367 0.62038 0.59658 0.0
H1468 H 0.61268 0.09614 0.83626 0.0
H1469 H 0.65706 0.18047 0.84123 0.0
H1470 H 0.60945 0.09193 0.86422 0.0
H1471 H 0.65225 0.17742 0.8689 0.0
H1472 H 0.66817 0.15007 0.91851 0.0
H1473 H 0.67112 0.15428 0.89055 0.0
H1474 H 0.5868 0.10901 0.88642 0.0
H1475 H 0.58504 0.10325 0.91407 0.0
C1476 C 0.62123 0.114 0.84332 0.0
C1477 C 0.63516 0.13854 0.83654 0.0
C1478 C 0.61931 0.11174 0.85937 0.0
C1479 C 0.63075 0.1343 0.86896 0.0
C1480 C 0.64387 0.15922 0.86203 0.0
C1481 C 0.64633 0.16114 0.84607 0.0
C1482 C 0.65031 0.14115 0.91157 0.0
C1483 C 0.62644 0.12634 0.9185 0.0
C1484 C 0.65184 0.14365 0.89552 0.0
C1485 C 0.62919 0.1319 0.88608 0.0
C1486 C 0.60502 0.11773 0.89316 0.0
C1487 C 0.60384 0.11471 0.90912 0.0
H1488 H 0.17435 0.6632 0.34216 0.0
H1489 H 0.08939 0.61983 0.33736 0.0
H1490 H 0.17009 0.66079 0.36993 0.0
H1491 H 0.08438 0.6185 0.36537 0.0
H1492 H 0.10273 0.5883 0.4146 0.0
H1493 H 0.10423 0.59358 0.38685 0.0
H1494 H 0.14584 0.67952 0.3919 0.0
H1495 H 0.14541 0.6735 0.41987 0.0
C1496 C 0.15453 0.65343 0.34707 0.0
C1497 C 0.13224 0.64154 0.33758 0.0
C1498 C 0.15197 0.65229 0.36304 0.0
C1499 C 0.12688 0.63952 0.36998 0.0
C1500 C 0.10426 0.62809 0.36045 0.0
C1501 C 0.10701 0.62893 0.3444 0.0
C1502 C 0.11217 0.60838 0.4098 0.0
C1503 C 0.12411 0.63045 0.4194 0.0
C1504 C 0.11278 0.61153 0.39385 0.0
C1505 C 0.12506 0.63701 0.38705 0.0
C1506 C 0.13661 0.65937 0.39671 0.0
C1507 C 0.13629 0.65604 0.41273 0.0
H1508 H 0.59143 0.89861 0.66989 0.0
H1509 H 0.67584 0.85417 0.66512 0.0
H1510 H 0.58683 0.90063 0.64185 0.0
H1511 H 0.67202 0.85725 0.63737 0.0
H1512 H 0.64718 0.84379 0.58761 0.0
H1513 H 0.64761 0.83845 0.61558 0.0
H1514 H 0.60676 0.92487 0.62012 0.0
H1515 H 0.6052 0.92945 0.5923 0.0
C1516 C 0.60903 0.88946 0.66286 0.0
C1517 C 0.63393 0.87623 0.66969 0.0
C1518 C 0.60652 0.8907 0.64679 0.0
C1519 C 0.62905 0.87902 0.63727 0.0
C1520 C 0.65392 0.86588 0.64424 0.0
C1521 C 0.65623 0.86435 0.66021 0.0
C1522 C 0.63826 0.86154 0.59463 0.0
C1523 C 0.62626 0.88703 0.58778 0.0
C1524 C 0.63858 0.8586 0.61066 0.0
C1525 C 0.62726 0.88129 0.62019 0.0
C1526 C 0.61517 0.9067 0.61323 0.0
C1527 C 0.61453 0.90945 0.59724 0.0
H1528 H 0.4223 0.39602 0.83665 0.0
H1529 H 0.33691 0.35405 0.84261 0.0
H1530 H 0.42831 0.39797 0.86466 0.0
H1531 H 0.34218 0.35701 0.87026 0.0
H1532 H 0.36846 0.34239 0.91955 0.0
H1533 H 0.36719 0.33716 0.89159 0.0
H1534 H 0.40998 0.42257 0.8868 0.0
H1535 H 0.41233 0.42705 0.91462 0.0
C1536 C 0.4048 0.3874 0.84393 0.0
C1537 C 0.37922 0.37484 0.83744 0.0
C1538 C 0.40813 0.38858 0.85997 0.0
C1539 C 0.38577 0.37748 0.86979 0.0
C1540 C 0.36019 0.36512 0.86316 0.0
C1541 C 0.35705 0.36367 0.84724 0.0
C1542 C 0.37763 0.35994 0.91249 0.0
C1543 C 0.39035 0.38514 0.91926 0.0
C1544 C 0.37683 0.35706 0.89645 0.0
C1545 C 0.38839 0.37953 0.88686 0.0
C1546 C 0.40132 0.40459 0.89374 0.0
C1547 C 0.40241 0.40729 0.90973 0.0
H1548 H 0.85517 0.18009 0.16477 0.0
H1549 H 0.89798 0.09487 0.16945 0.0
H1550 H 0.85955 0.17714 0.1371 0.0
H1551 H 0.90065 0.09077 0.14146 0.0
H1552 H 0.92747 0.10367 0.09207 0.0
H1553 H 0.92447 0.10833 0.11971 0.0
H1554 H 0.84097 0.15491 0.11506 0.0
H1555 H 0.84514 0.15172 0.08706 0.0
C1556 C 0.86542 0.16056 0.15987 0.0
C1557 C 0.87646 0.13778 0.16932 0.0
C1558 C 0.8676 0.1587 0.1439 0.0
C1559 C 0.88028 0.13366 0.13688 0.0
C1560 C 0.89122 0.11071 0.14639 0.0
C1561 C 0.88961 0.11291 0.16245 0.0
C1562 C 0.90858 0.11521 0.09689 0.0
C1563 C 0.88659 0.1275 0.08735 0.0
C1564 C 0.90667 0.11755 0.11284 0.0
C1565 C 0.88236 0.13174 0.11977 0.0
C1566 C 0.86031 0.14418 0.11019 0.0
C1567 C 0.86255 0.1423 0.09413 0.0
H1568 H 0.92122 0.61942 0.83805 0.0
H1569 H 0.83415 0.65796 0.84369 0.0
H1570 H 0.92734 0.6186 0.86603 0.0
H1571 H 0.83962 0.65616 0.87141 0.0
H1572 H 0.8658 0.67195 0.9209 0.0
H1573 H 0.86409 0.67723 0.89287 0.0
H1574 H 0.90953 0.59323 0.88795 0.0
H1575 H 0.9122 0.58868 0.91566 0.0
C1576 C 0.90335 0.62745 0.84527 0.0
C1577 C 0.87724 0.63869 0.8387 0.0
C1578 C 0.90676 0.62698 0.86129 0.0
C1579 C 0.88398 0.63743 0.87104 0.0
C1580 C 0.8579 0.64854 0.86434 0.0
C1581 C 0.85465 0.64928 0.84841 0.0
C1582 C 0.87551 0.65479 0.91377 0.0
C1583 C 0.88906 0.62993 0.92047 0.0
C1584 C 0.87446 0.65768 0.89772 0.0
C1585 C 0.88668 0.63561 0.88809 0.0
C1586 C 0.9004 0.61095 0.89491 0.0
C1587 C 0.90168 0.60822 0.91086 0.0
H1588 H 0.1481 0.16963 0.58834 0.0
H1589 H 0.10423 0.08482 0.59252 0.0
H1590 H 0.14902 0.17411 0.61636 0.0
H1591 H 0.10623 0.08855 0.62035 0.0
H1592 H 0.09158 0.11408 0.6703 0.0
H1593 H 0.08692 0.11277 0.64226 0.0
H1594 H 0.1732 0.15403 0.638 0.0
H1595 H 0.17712 0.15638 0.66579 0.0
C1596 C 0.13884 0.15189 0.59525 0.0
C1597 C 0.12617 0.12689 0.58825 0.0
C1598 C 0.13946 0.15434 0.61131 0.0
C1599 C 0.12773 0.13164 0.62069 0.0
C1600 C 0.11497 0.10672 0.61358 0.0
C1601 C 0.11407 0.10446 0.59758 0.0
C1602 C 0.10944 0.12285 0.66331 0.0
C1603 C 0.13467 0.1353 0.67022 0.0
C1604 C 0.10689 0.12205 0.64725 0.0
C1605 C 0.12968 0.13337 0.63779 0.0
C1606 C 0.15491 0.14568 0.64482 0.0
C1607 C 0.15728 0.14677 0.66081 0.0
H1608 H 0.64811 0.34167 0.42088 0.0
H1609 H 0.60719 0.42773 0.41559 0.0
H1610 H 0.64886 0.33589 0.39287 0.0
H1611 H 0.60897 0.42266 0.38787 0.0
H1612 H 0.59285 0.39674 0.33848 0.0
H1613 H 0.58824 0.39809 0.36651 0.0
H1614 H 0.67324 0.35425 0.37077 0.0
H1615 H 0.67709 0.35185 0.34298 0.0
C1616 C 0.63951 0.35939 0.41373 0.0
C1617 C 0.62761 0.3851 0.42041 0.0
C1618 C 0.63998 0.35618 0.39769 0.0
C1619 C 0.62885 0.3788 0.38805 0.0
C1620 C 0.61711 0.40449 0.39485 0.0
C1621 C 0.61636 0.40752 0.4108 0.0
C1622 C 0.61041 0.38734 0.34546 0.0
C1623 C 0.63532 0.37429 0.33855 0.0
C1624 C 0.6079 0.38818 0.36152 0.0
C1625 C 0.63043 0.3763 0.37097 0.0
C1626 C 0.65519 0.36311 0.36394 0.0
C1627 C 0.65752 0.36199 0.34796 0.0
H1628 H 0.3674 0.84188 0.08828 0.0
H1629 H 0.40558 0.92921 0.09347 0.0
H1630 H 0.36622 0.83648 0.11632 0.0
H1631 H 0.40344 0.92444 0.1212 0.0
H1632 H 0.42032 0.89877 0.17068 0.0
H1633 H 0.42497 0.90028 0.14263 0.0
H1634 H 0.34092 0.85471 0.13828 0.0
H1635 H 0.33696 0.85228 0.16606 0.0
C1636 C 0.37528 0.85996 0.09541 0.0
C1637 C 0.38659 0.8859 0.0887 0.0
C1638 C 0.37458 0.85696 0.11146 0.0
C1639 C 0.38491 0.88 0.12107 0.0
C1640 C 0.39596 0.90597 0.11424 0.0
C1641 C 0.39691 0.90881 0.09829 0.0
C1642 C 0.40297 0.88904 0.16368 0.0
C1643 C 0.3783 0.87549 0.17055 0.0
C1644 C 0.40552 0.88996 0.14762 0.0
C1645 C 0.38328 0.87761 0.13814 0.0
C1646 C 0.35874 0.86395 0.14513 0.0
C1647 C 0.35636 0.86281 0.16111 0.0
H1648 H 0.83591 0.35801 0.66524 0.0
H1649 H 0.92165 0.39989 0.66982 0.0
H1650 H 0.84034 0.35946 0.63745 0.0
H1651 H 0.92677 0.40033 0.6418 0.0
H1652 H 0.90975 0.42893 0.59234 0.0
H1653 H 0.90721 0.42494 0.62009 0.0
H1654 H 0.8647 0.33931 0.6157 0.0
H1655 H 0.86628 0.344 0.58764 0.0
C1656 C 0.8559 0.36731 0.66028 0.0
C1657 C 0.87839 0.37903 0.6697 0.0
C1658 C 0.85856 0.36788 0.6443 0.0
C1659 C 0.88392 0.37993 0.6373 0.0
C1660 C 0.90668 0.39129 0.64677 0.0
C1661 C 0.90386 0.39099 0.66282 0.0
C1662 C 0.89985 0.40919 0.59727 0.0
C1663 C 0.88812 0.38677 0.5878 0.0
C1664 C 0.89866 0.40678 0.61323 0.0
C1665 C 0.88595 0.38173 0.62022 0.0
C1666 C 0.87434 0.35912 0.61073 0.0
C1667 C 0.87528 0.3617 0.59466 0.0
H1668 H 0.41974 0.11621 0.33735 0.0
H1669 H 0.33444 0.15866 0.34274 0.0
H1670 H 0.4254 0.11491 0.36535 0.0
H1671 H 0.3394 0.15635 0.37047 0.0
H1672 H 0.36637 0.17093 0.42011 0.0
H1673 H 0.36437 0.17602 0.39209 0.0
H1674 H 0.40635 0.09024 0.38717 0.0
H1675 H 0.40934 0.08585 0.41491 0.0
C1676 C 0.40216 0.12504 0.34451 0.0
C1677 C 0.37668 0.13748 0.33786 0.0
C1678 C 0.40529 0.12425 0.36055 0.0
C1679 C 0.38285 0.13559 0.37024 0.0
C1680 C 0.35741 0.14798 0.36346 0.0
C1681 C 0.35445 0.14903 0.34751 0.0
C1682 C 0.37518 0.15328 0.41299 0.0
C1683 C 0.38798 0.12804 0.41969 0.0
C1684 C 0.37398 0.15609 0.39694 0.0
C1685 C 0.38527 0.13353 0.3873 0.0
C1686 C 0.39801 0.10834 0.39413 0.0
C1687 C 0.39946 0.10571 0.41009 0.0
H1688 H 0.5944 0.61666 0.17001 0.0
H1689 H 0.67802 0.66274 0.16568 0.0
H1690 H 0.59017 0.61494 0.14198 0.0
H1691 H 0.67451 0.66003 0.13785 0.0
H1692 H 0.64862 0.67152 0.08749 0.0
H1693 H 0.64986 0.67759 0.1155 0.0
H1694 H 0.61194 0.59005 0.12094 0.0
H1695 H 0.60974 0.58463 0.09325 0.0
C1696 C 0.61189 0.62629 0.16307 0.0
C1697 C 0.63654 0.63971 0.17003 0.0
C1698 C 0.6096 0.62522 0.14701 0.0
C1699 C 0.6321 0.63725 0.1376 0.0
C1700 C 0.65654 0.65096 0.14466 0.0
C1701 C 0.65866 0.65229 0.16066 0.0
C1702 C 0.64063 0.65367 0.09474 0.0
C1703 C 0.62905 0.62768 0.0882 0.0
C1704 C 0.64135 0.65705 0.11077 0.0
C1705 C 0.63077 0.63437 0.12053 0.0
C1706 C 0.61959 0.60829 0.11386 0.0
C1707 C 0.6186 0.60507 0.09794 0.0
H1708 H 0.18044 0.85887 0.84298 0.0
H1709 H 0.093 0.89661 0.83746 0.0
H1710 H 0.17495 0.86036 0.87071 0.0
H1711 H 0.08687 0.8971 0.86545 0.0
H1712 H 0.1486 0.8421 0.91983 0.0
H1713 H 0.15047 0.8381 0.89178 0.0
H1714 H 0.10401 0.92172 0.88781 0.0
H1715 H 0.10117 0.92498 0.91561 0.0
C1716 C 0.15988 0.86734 0.84773 0.0
C1717 C 0.13715 0.87772 0.83805 0.0
C1718 C 0.15662 0.8679 0.86367 0.0
C1719 C 0.13038 0.87858 0.8704 0.0
C1720 C 0.10754 0.88902 0.86069 0.0
C1721 C 0.11097 0.88872 0.84466 0.0
C1722 C 0.13868 0.85946 0.91292 0.0
C1723 C 0.12485 0.88384 0.91991 0.0
C1724 C 0.13984 0.85731 0.89685 0.0
C1725 C 0.12747 0.87968 0.88747 0.0
C1726 C 0.11334 0.90383 0.89457 0.0
C1727 C 0.11194 0.90581 0.91057 0.0
loop_
_geom_bond_atom_site_label_1
_geom_bond_atom_site_label_2
_geom_bond_distance
_geom_bond_site_symmetry_2
_ccdc_geom_bond_type
Co0 O1 2.216 . S
Co0 O2 2.091 . S
Co0 O4 2.004 . S
Co0 O10 2.021 . S
Co0 O12 2.137 . S
Co0 O13 2.244 . S
O1 Co0 2.216 . S
O1 C8 1.247 . S
O2 Co0 2.091 . S
O2 C8 1.261 . S
C3 O12 1.247 . S
C3 O13 1.272 . S
O4 Co0 2.004 . S
O4 C9 1.259 . S
Co5 O6 2.061 . S
Co5 O11 2.052 . S
Co5 O13 2.135 . S
O6 Co5 2.061 . S
O6 C9 1.235 . S
C7 O10 1.238 . S
C7 O11 1.241 . S
C8 O1 1.247 . S
C8 O2 1.261 . S
C9 O4 1.259 . S
C9 O6 1.235 . S
O10 Co0 2.021 . S
O10 C7 1.238 . S
O11 Co5 2.052 . S
O11 C7 1.241 . S
O12 Co0 2.137 . S
O12 C3 1.247 . S
O13 Co0 2.244 . S
O13 C3 1.272 . S
O13 Co5 2.135 . S
Co14 O15 2.216 . S
Co14 O16 2.091 . S
Co14 O18 2.004 . S
Co14 O24 2.021 . S
Co14 O26 2.137 . S
Co14 O27 2.244 . S
O15 Co14 2.216 . S
O15 C22 1.247 . S
O16 Co14 2.091 . S
O16 C22 1.261 . S
C17 O26 1.247 . S
C17 O27 1.272 . S
O18 Co14 2.004 . S
O18 C23 1.259 . S
Co19 O20 2.061 . S
Co19 O25 2.052 . S
Co19 O27 2.135 . S
O20 Co19 2.061 . S
O20 C23 1.235 . S
C21 O24 1.238 . S
C21 O25 1.241 . S
C22 O15 1.247 . S
C22 O16 1.261 . S
C23 O18 1.259 . S
C23 O20 1.235 . S
O24 Co14 2.021 . S
O24 C21 1.238 . S
O25 Co19 2.052 . S
O25 C21 1.241 . S
O26 Co14 2.137 . S
O26 C17 1.247 . S
O27 Co14 2.244 . S
O27 C17 1.272 . S
O27 Co19 2.135 . S
Co28 O29 2.216 . S
Co28 O30 2.091 . S
Co28 O32 2.004 . S
Co28 O38 2.021 . S
Co28 O40 2.137 . S
Co28 O41 2.244 . S
O29 Co28 2.216 . S
O29 C36 1.247 . S
O30 Co28 2.091 . S
O30 C36 1.261 . S
C31 O40 1.247 . S
C31 O41 1.272 . S
O32 Co28 2.004 . S
O32 C37 1.259 . S
Co33 O34 2.061 . S
Co33 O39 2.052 . S
Co33 O41 2.135 . S
O34 Co33 2.061 . S
O34 C37 1.235 . S
C35 O38 1.238 . S
C35 O39 1.241 . S
C36 O29 1.247 . S
C36 O30 1.261 . S
C37 O32 1.259 . S
C37 O34 1.235 . S
O38 Co28 2.021 . S
O38 C35 1.238 . S
O39 Co33 2.052 . S
O39 C35 1.241 . S
O40 Co28 2.137 . S
O40 C31 1.247 . S
O41 Co28 2.244 . S
O41 C31 1.272 . S
O41 Co33 2.135 . S
Co42 O43 2.216 . S
Co42 O44 2.091 . S
Co42 O46 2.004 . S
Co42 O52 2.021 . S
Co42 O54 2.137 . S
Co42 O55 2.244 . S
O43 Co42 2.216 . S
O43 C50 1.247 . S
O44 Co42 2.091 . S
O44 C50 1.261 . S
C45 O54 1.247 . S
C45 O55 1.272 . S
O46 Co42 2.004 . S
O46 C51 1.259 . S
Co47 O48 2.061 . S
Co47 O53 2.052 . S
Co47 O55 2.135 . S
O48 Co47 2.061 . S
O48 C51 1.235 . S
C49 O52 1.238 . S
C49 O53 1.241 . S
C50 O43 1.247 . S
C50 O44 1.261 . S
C51 O46 1.259 . S
C51 O48 1.235 . S
O52 Co42 2.021 . S
O52 C49 1.238 . S
O53 Co47 2.052 . S
O53 C49 1.241 . S
O54 Co42 2.137 . S
O54 C45 1.247 . S
O55 Co42 2.244 . S
O55 C45 1.272 . S
O55 Co47 2.135 . S
Co56 O57 2.216 . S
Co56 O58 2.091 . S
Co56 O60 2.004 . S
Co56 O66 2.021 . S
Co56 O68 2.137 . S
Co56 O69 2.244 . S
O57 Co56 2.216 . S
O57 C64 1.247 . S
O58 Co56 2.091 . S
O58 C64 1.261 . S
C59 O68 1.247 . S
C59 O69 1.272 . S
O60 Co56 2.004 . S
O60 C65 1.259 . S
Co61 O62 2.061 . S
Co61 O67 2.052 . S
Co61 O69 2.135 . S
O62 Co61 2.061 . S
O62 C65 1.235 . S
C63 O66 1.238 . S
C63 O67 1.241 . S
C64 O57 1.247 . S
C64 O58 1.261 . S
C65 O60 1.259 . S
C65 O62 1.235 . S
O66 Co56 2.021 . S
O66 C63 1.238 . S
O67 Co61 2.052 . S
O67 C63 1.241 . S
O68 Co56 2.137 . S
O68 C59 1.247 . S
O69 Co56 2.244 . S
O69 C59 1.272 . S
O69 Co61 2.135 . S
Co70 O71 2.216 . S
Co70 O72 2.091 . S
Co70 O74 2.004 . S
Co70 O80 2.021 . S
Co70 O82 2.137 . S
Co70 O83 2.244 . S
O71 Co70 2.216 . S
O71 C78 1.247 . S
O72 Co70 2.091 . S
O72 C78 1.261 . S
C73 O82 1.247 . S
C73 O83 1.272 . S
O74 Co70 2.004 . S
O74 C79 1.259 . S
Co75 O76 2.061 . S
Co75 O81 2.052 . S
Co75 O83 2.135 . S
O76 Co75 2.061 . S
O76 C79 1.235 . S
C77 O80 1.238 . S
C77 O81 1.241 . S
C78 O71 1.247 . S
C78 O72 1.261 . S
C79 O74 1.259 . S
C79 O76 1.235 . S
O80 Co70 2.021 . S
O80 C77 1.238 . S
O81 Co75 2.052 . S
O81 C77 1.241 . S
O82 Co70 2.137 . S
O82 C73 1.247 . S
O83 Co70 2.244 . S
O83 C73 1.272 . S
O83 Co75 2.135 . S
Co84 O85 2.216 . S
Co84 O86 2.091 . S
Co84 O88 2.004 . S
Co84 O94 2.021 . S
Co84 O96 2.137 . S
Co84 O97 2.244 . S
O85 Co84 2.216 . S
O85 C92 1.247 . S
O86 Co84 2.091 . S
O86 C92 1.261 . S
C87 O96 1.247 . S
C87 O97 1.272 . S
O88 Co84 2.004 . S
O88 C93 1.259 . S
Co89 O90 2.061 . S
Co89 O95 2.052 . S
Co89 O97 2.135 . S
O90 Co89 2.061 . S
O90 C93 1.235 . S
C91 O94 1.238 . S
C91 O95 1.241 . S
C92 O85 1.247 . S
C92 O86 1.261 . S
C93 O88 1.259 . S
C93 O90 1.235 . S
O94 Co84 2.021 . S
O94 C91 1.238 . S
O95 Co89 2.052 . S
O95 C91 1.241 . S
O96 Co84 2.137 . S
O96 C87 1.247 . S
O97 Co84 2.244 . S
O97 C87 1.272 . S
O97 Co89 2.135 . S
Co98 O99 2.216 . S
Co98 O100 2.091 . S
Co98 O102 2.004 . S
Co98 O108 2.021 . S
Co98 O110 2.137 . S
Co98 O111 2.244 . S
O99 Co98 2.216 . S
O99 C106 1.247 . S
O100 Co98 2.091 . S
O100 C106 1.261 . S
C101 O110 1.247 . S
C101 O111 1.272 . S
O102 Co98 2.004 . S
O102 C107 1.259 . S
Co103 O104 2.061 . S
Co103 O109 2.052 . S
Co103 O111 2.135 . S
O104 Co103 2.061 . S
O104 C107 1.235 . S
C105 O108 1.238 . S
C105 O109 1.241 . S
C106 O99 1.247 . S
C106 O100 1.261 . S
C107 O102 1.259 . S
C107 O104 1.235 . S
O108 Co98 2.021 . S
O108 C105 1.238 . S
O109 Co103 2.052 . S
O109 C105 1.241 . S
O110 Co98 2.137 . S
O110 C101 1.247 . S
O111 Co98 2.244 . S
O111 C101 1.272 . S
O111 Co103 2.135 . S
Co112 O113 2.216 . S
Co112 O114 2.091 . S
Co112 O116 2.004 . S
Co112 O122 2.021 . S
Co112 O124 2.137 . S
Co112 O125 2.244 . S
O113 Co112 2.216 . S
O113 C120 1.247 . S
O114 Co112 2.091 . S
O114 C120 1.261 . S
C115 O124 1.247 . S
C115 O125 1.272 . S
O116 Co112 2.004 . S
O116 C121 1.259 . S
Co117 O118 2.061 . S
Co117 O123 2.052 . S
Co117 O125 2.135 . S
O118 Co117 2.061 . S
O118 C121 1.235 . S
C119 O122 1.238 . S
C119 O123 1.241 . S
C120 O113 1.247 . S
C120 O114 1.261 . S
C121 O116 1.259 . S
C121 O118 1.235 . S
O122 Co112 2.021 . S
O122 C119 1.238 . S
O123 Co117 2.052 . S
O123 C119 1.241 . S
O124 Co112 2.137 . S
O124 C115 1.247 . S
O125 Co112 2.244 . S
O125 C115 1.272 . S
O125 Co117 2.135 . S
Co126 O127 2.216 . S
Co126 O128 2.091 . S
Co126 O130 2.004 . S
Co126 O136 2.021 . S
Co126 O138 2.137 . S
Co126 O139 2.244 . S
O127 Co126 2.216 . S
O127 C134 1.247 . S
O128 Co126 2.091 . S
O128 C134 1.261 . S
C129 O138 1.247 . S
C129 O139 1.272 . S
O130 Co126 2.004 . S
O130 C135 1.259 . S
Co131 O132 2.061 . S
Co131 O137 2.052 . S
Co131 O139 2.135 . S
O132 Co131 2.061 . S
O132 C135 1.235 . S
C133 O136 1.238 . S
C133 O137 1.241 . S
C134 O127 1.247 . S
C134 O128 1.261 . S
C135 O130 1.259 . S
C135 O132 1.235 . S
O136 Co126 2.021 . S
O136 C133 1.238 . S
O137 Co131 2.052 . S
O137 C133 1.241 . S
O138 Co126 2.137 . S
O138 C129 1.247 . S
O139 Co126 2.244 . S
O139 C129 1.272 . S
O139 Co131 2.135 . S
Co140 O141 2.216 . S
Co140 O142 2.091 . S
Co140 O144 2.004 . S
Co140 O150 2.021 . S
Co140 O152 2.137 . S
Co140 O153 2.244 . S
O141 Co140 2.216 . S
O141 C148 1.247 . S
O142 Co140 2.091 . S
O142 C148 1.261 . S
C143 O152 1.247 . S
C143 O153 1.272 . S
O144 Co140 2.004 . S
O144 C149 1.259 . S
Co145 O146 2.061 . S
Co145 O151 2.052 . S
Co145 O153 2.135 . S
O146 Co145 2.061 . S
O146 C149 1.235 . S
C147 O150 1.238 . S
C147 O151 1.241 . S
C148 O141 1.247 . S
C148 O142 1.261 . S
C149 O144 1.259 . S
C149 O146 1.235 . S
O150 Co140 2.021 . S
O150 C147 1.238 . S
O151 Co145 2.052 . S
O151 C147 1.241 . S
O152 Co140 2.137 . S
O152 C143 1.247 . S
O153 Co140 2.244 . S
O153 C143 1.272 . S
O153 Co145 2.135 . S
Co154 O155 2.216 . S
Co154 O156 2.091 . S
Co154 O158 2.004 . S
Co154 O164 2.021 . S
Co154 O166 2.137 . S
Co154 O167 2.244 . S
O155 Co154 2.216 . S
O155 C162 1.247 . S
O156 Co154 2.091 . S
O156 C162 1.261 . S
C157 O166 1.247 . S
C157 O167 1.272 . S
O158 Co154 2.004 . S
O158 C163 1.259 . S
Co159 O160 2.061 . S
Co159 O165 2.052 . S
Co159 O167 2.135 . S
O160 Co159 2.061 . S
O160 C163 1.235 . S
C161 O164 1.238 . S
C161 O165 1.241 . S
C162 O155 1.247 . S
C162 O156 1.261 . S
C163 O158 1.259 . S
C163 O160 1.235 . S
O164 Co154 2.021 . S
O164 C161 1.238 . S
O165 Co159 2.052 . S
O165 C161 1.241 . S
O166 Co154 2.137 . S
O166 C157 1.247 . S
O167 Co154 2.244 . S
O167 C157 1.272 . S
O167 Co159 2.135 . S
Co168 O169 2.216 . S
Co168 O170 2.091 . S
Co168 O172 2.004 . S
Co168 O178 2.021 . S
Co168 O180 2.137 . S
Co168 O181 2.244 . S
O169 Co168 2.216 . S
O169 C176 1.247 . S
O170 Co168 2.091 . S
O170 C176 1.261 . S
C171 O180 1.247 . S
C171 O181 1.272 . S
O172 Co168 2.004 . S
O172 C177 1.259 . S
Co173 O174 2.061 . S
Co173 O179 2.052 . S
Co173 O181 2.135 . S
O174 Co173 2.061 . S
O174 C177 1.235 . S
C175 O178 1.238 . S
C175 O179 1.241 . S
C176 O169 1.247 . S
C176 O170 1.261 . S
C177 O172 1.259 . S
C177 O174 1.235 . S
O178 Co168 2.021 . S
O178 C175 1.238 . S
O179 Co173 2.052 . S
O179 C175 1.241 . S
O180 Co168 2.137 . S
O180 C171 1.247 . S
O181 Co168 2.244 . S
O181 C171 1.272 . S
O181 Co173 2.135 . S
Co182 O183 2.216 . S
Co182 O184 2.091 . S
Co182 O186 2.004 . S
Co182 O192 2.021 . S
Co182 O194 2.137 . S
Co182 O195 2.244 . S
O183 Co182 2.216 . S
O183 C190 1.247 . S
O184 Co182 2.091 . S
O184 C190 1.261 . S
C185 O194 1.247 . S
C185 O195 1.272 . S
O186 Co182 2.004 . S
O186 C191 1.259 . S
Co187 O188 2.061 . S
Co187 O193 2.052 . S
Co187 O195 2.135 . S
O188 Co187 2.061 . S
O188 C191 1.235 . S
C189 O192 1.238 . S
C189 O193 1.241 . S
C190 O183 1.247 . S
C190 O184 1.261 . S
C191 O186 1.259 . S
C191 O188 1.235 . S
O192 Co182 2.021 . S
O192 C189 1.238 . S
O193 Co187 2.052 . S
O193 C189 1.241 . S
O194 Co182 2.137 . S
O194 C185 1.247 . S
O195 Co182 2.244 . S
O195 C185 1.272 . S
O195 Co187 2.135 . S
Co196 O197 2.216 . S
Co196 O198 2.091 . S
Co196 O200 2.004 . S
Co196 O206 2.021 . S
Co196 O208 2.137 . S
Co196 O209 2.244 . S
O197 Co196 2.216 . S
O197 C204 1.247 . S
O198 Co196 2.091 . S
O198 C204 1.261 . S
C199 O208 1.247 . S
C199 O209 1.272 . S
O200 Co196 2.004 . S
O200 C205 1.259 . S
Co201 O202 2.061 . S
Co201 O207 2.052 . S
Co201 O209 2.135 . S
O202 Co201 2.061 . S
O202 C205 1.235 . S
C203 O206 1.238 . S
C203 O207 1.241 . S
C204 O197 1.247 . S
C204 O198 1.261 . S
C205 O200 1.259 . S
C205 O202 1.235 . S
O206 Co196 2.021 . S
O206 C203 1.238 . S
O207 Co201 2.052 . S
O207 C203 1.241 . S
O208 Co196 2.137 . S
O208 C199 1.247 . S
O209 Co196 2.244 . S
O209 C199 1.272 . S
O209 Co201 2.135 . S
Co210 O211 2.216 . S
Co210 O212 2.091 . S
Co210 O214 2.004 . S
Co210 O220 2.021 . S
Co210 O222 2.137 . S
Co210 O223 2.244 . S
O211 Co210 2.216 . S
O211 C218 1.247 . S
O212 Co210 2.091 . S
O212 C218 1.261 . S
C213 O222 1.247 . S
C213 O223 1.272 . S
O214 Co210 2.004 . S
O214 C219 1.259 . S
Co215 O216 2.061 . S
Co215 O221 2.052 . S
Co215 O223 2.135 . S
O216 Co215 2.061 . S
O216 C219 1.235 . S
C217 O220 1.238 . S
C217 O221 1.241 . S
C218 O211 1.247 . S
C218 O212 1.261 . S
C219 O214 1.259 . S
C219 O216 1.235 . S
O220 Co210 2.021 . S
O220 C217 1.238 . S
O221 Co215 2.052 . S
O221 C217 1.241 . S
O222 Co210 2.137 . S
O222 C213 1.247 . S
O223 Co210 2.244 . S
O223 C213 1.272 . S
O223 Co215 2.135 . S
Co224 O225 2.216 . S
Co224 O226 2.091 . S
Co224 O228 2.004 . S
Co224 O234 2.021 . S
Co224 O236 2.137 . S
Co224 O237 2.244 . S
O225 Co224 2.216 . S
O225 C232 1.247 . S
O226 Co224 2.091 . S
O226 C232 1.261 . S
C227 O236 1.247 . S
C227 O237 1.272 . S
O228 Co224 2.004 . S
O228 C233 1.259 . S
Co229 O230 2.061 . S
Co229 O235 2.052 . S
Co229 O237 2.135 . S
O230 Co229 2.061 . S
O230 C233 1.235 . S
C231 O234 1.238 . S
C231 O235 1.241 . S
C232 O225 1.247 . S
C232 O226 1.261 . S
C233 O228 1.259 . S
C233 O230 1.235 . S
O234 Co224 2.021 . S
O234 C231 1.238 . S
O235 Co229 2.052 . S
O235 C231 1.241 . S
O236 Co224 2.137 . S
O236 C227 1.247 . S
O237 Co224 2.244 . S
O237 C227 1.272 . S
O237 Co229 2.135 . S
Co238 O239 2.216 . S
Co238 O240 2.091 . S
Co238 O242 2.004 . S
Co238 O248 2.021 . S
Co238 O250 2.137 . S
Co238 O251 2.244 . S
O239 Co238 2.216 . S
O239 C246 1.247 . S
O240 Co238 2.091 . S
O240 C246 1.261 . S
C241 O250 1.247 . S
C241 O251 1.272 . S
O242 Co238 2.004 . S
O242 C247 1.259 . S
Co243 O244 2.061 . S
Co243 O249 2.052 . S
Co243 O251 2.135 . S
O244 Co243 2.061 . S
O244 C247 1.235 . S
C245 O248 1.238 . S
C245 O249 1.241 . S
C246 O239 1.247 . S
C246 O240 1.261 . S
C247 O242 1.259 . S
C247 O244 1.235 . S
O248 Co238 2.021 . S
O248 C245 1.238 . S
O249 Co243 2.052 . S
O249 C245 1.241 . S
O250 Co238 2.137 . S
O250 C241 1.247 . S
O251 Co238 2.244 . S
O251 C241 1.272 . S
O251 Co243 2.135 . S
Co252 O253 2.216 . S
Co252 O254 2.091 . S
Co252 O256 2.004 . S
Co252 O262 2.021 . S
Co252 O264 2.137 . S
Co252 O265 2.244 . S
O253 Co252 2.216 . S
O253 C260 1.247 . S
O254 Co252 2.091 . S
O254 C260 1.261 . S
C255 O264 1.247 . S
C255 O265 1.272 . S
O256 Co252 2.004 . S
O256 C261 1.259 . S
Co257 O258 2.061 . S
Co257 O263 2.052 . S
Co257 O265 2.135 . S
O258 Co257 2.061 . S
O258 C261 1.235 . S
C259 O262 1.238 . S
C259 O263 1.241 . S
C260 O253 1.247 . S
C260 O254 1.261 . S
C261 O256 1.259 . S
C261 O258 1.235 . S
O262 Co252 2.021 . S
O262 C259 1.238 . S
O263 Co257 2.052 . S
O263 C259 1.241 . S
O264 Co252 2.137 . S
O264 C255 1.247 . S
O265 Co252 2.244 . S
O265 C255 1.272 . S
O265 Co257 2.135 . S
Co266 O267 2.216 . S
Co266 O268 2.091 . S
Co266 O270 2.004 . S
Co266 O276 2.021 . S
Co266 O278 2.137 . S
Co266 O279 2.244 . S
O267 Co266 2.216 . S
O267 C274 1.247 . S
O268 Co266 2.091 . S
O268 C274 1.261 . S
C269 O278 1.247 . S
C269 O279 1.272 . S
O270 Co266 2.004 . S
O270 C275 1.259 . S
Co271 O272 2.061 . S
Co271 O277 2.052 . S
Co271 O279 2.135 . S
O272 Co271 2.061 . S
O272 C275 1.235 . S
C273 O276 1.238 . S
C273 O277 1.241 . S
C274 O267 1.247 . S
C274 O268 1.261 . S
C275 O270 1.259 . S
C275 O272 1.235 . S
O276 Co266 2.021 . S
O276 C273 1.238 . S
O277 Co271 2.052 . S
O277 C273 1.241 . S
O278 Co266 2.137 . S
O278 C269 1.247 . S
O279 Co266 2.244 . S
O279 C269 1.272 . S
O279 Co271 2.135 . S
Co280 O281 2.216 . S
Co280 O282 2.091 . S
Co280 O284 2.004 . S
Co280 O290 2.021 . S
Co280 O292 2.137 . S
Co280 O293 2.244 . S
O281 Co280 2.216 . S
O281 C288 1.247 . S
O282 Co280 2.091 . S
O282 C288 1.261 . S
C283 O292 1.247 . S
C283 O293 1.272 . S
O284 Co280 2.004 . S
O284 C289 1.259 . S
Co285 O286 2.061 . S
Co285 O291 2.052 . S
Co285 O293 2.135 . S
O286 Co285 2.061 . S
O286 C289 1.235 . S
C287 O290 1.238 . S
C287 O291 1.241 . S
C288 O281 1.247 . S
C288 O282 1.261 . S
C289 O284 1.259 . S
C289 O286 1.235 . S
O290 Co280 2.021 . S
O290 C287 1.238 . S
O291 Co285 2.052 . S
O291 C287 1.241 . S
O292 Co280 2.137 . S
O292 C283 1.247 . S
O293 Co280 2.244 . S
O293 C283 1.272 . S
O293 Co285 2.135 . S
Co294 O295 2.216 . S
Co294 O296 2.091 . S
Co294 O298 2.004 . S
Co294 O304 2.021 . S
Co294 O306 2.137 . S
Co294 O307 2.244 . S
O295 Co294 2.216 . S
O295 C302 1.247 . S
O296 Co294 2.091 . S
O296 C302 1.261 . S
C297 O306 1.247 . S
C297 O307 1.272 . S
O298 Co294 2.004 . S
O298 C303 1.259 . S
Co299 O300 2.061 . S
Co299 O305 2.052 . S
Co299 O307 2.135 . S
O300 Co299 2.061 . S
O300 C303 1.235 . S
C301 O304 1.238 . S
C301 O305 1.241 . S
C302 O295 1.247 . S
C302 O296 1.261 . S
C303 O298 1.259 . S
C303 O300 1.235 . S
O304 Co294 2.021 . S
O304 C301 1.238 . S
O305 Co299 2.052 . S
O305 C301 1.241 . S
O306 Co294 2.137 . S
O306 C297 1.247 . S
O307 Co294 2.244 . S
O307 C297 1.272 . S
O307 Co299 2.135 . S
Co308 O309 2.216 . S
Co308 O310 2.091 . S
Co308 O312 2.004 . S
Co308 O318 2.021 . S
Co308 O320 2.137 . S
Co308 O321 2.244 . S
O309 Co308 2.216 . S
O309 C316 1.247 . S
O310 Co308 2.091 . S
O310 C316 1.261 . S
C311 O320 1.247 . S
C311 O321 1.272 . S
O312 Co308 2.004 . S
O312 C317 1.259 . S
Co313 O314 2.061 . S
Co313 O319 2.052 . S
Co313 O321 2.135 . S
O314 Co313 2.061 . S
O314 C317 1.235 . S
C315 O318 1.238 . S
C315 O319 1.241 . S
C316 O309 1.247 . S
C316 O310 1.261 . S
C317 O312 1.259 . S
C317 O314 1.235 . S
O318 Co308 2.021 . S
O318 C315 1.238 . S
O319 Co313 2.052 . S
O319 C315 1.241 . S
O320 Co308 2.137 . S
O320 C311 1.247 . S
O321 Co308 2.244 . S
O321 C311 1.272 . S
O321 Co313 2.135 . S
Co322 O323 2.216 . S
Co322 O324 2.091 . S
Co322 O326 2.004 . S
Co322 O332 2.021 . S
Co322 O334 2.137 . S
Co322 O335 2.244 . S
O323 Co322 2.216 . S
O323 C330 1.247 . S
O324 Co322 2.091 . S
O324 C330 1.261 . S
C325 O334 1.247 . S
C325 O335 1.272 . S
O326 Co322 2.004 . S
O326 C331 1.259 . S
Co327 O328 2.061 . S
Co327 O333 2.052 . S
Co327 O335 2.135 . S
O328 Co327 2.061 . S
O328 C331 1.235 . S
C329 O332 1.238 . S
C329 O333 1.241 . S
C330 O323 1.247 . S
C330 O324 1.261 . S
C331 O326 1.259 . S
C331 O328 1.235 . S
O332 Co322 2.021 . S
O332 C329 1.238 . S
O333 Co327 2.052 . S
O333 C329 1.241 . S
O334 Co322 2.137 . S
O334 C325 1.247 . S
O335 Co322 2.244 . S
O335 C325 1.272 . S
O335 Co327 2.135 . S
Co336 O337 2.216 . S
Co336 O338 2.091 . S
Co336 O340 2.004 . S
Co336 O346 2.021 . S
Co336 O348 2.137 . S
Co336 O349 2.244 . S
O337 Co336 2.216 . S
O337 C344 1.247 . S
O338 Co336 2.091 . S
O338 C344 1.261 . S
C339 O348 1.247 . S
C339 O349 1.272 . S
O340 Co336 2.004 . S
O340 C345 1.259 . S
Co341 O342 2.061 . S
Co341 O347 2.052 . S
Co341 O349 2.135 . S
O342 Co341 2.061 . S
O342 C345 1.235 . S
C343 O346 1.238 . S
C343 O347 1.241 . S
C344 O337 1.247 . S
C344 O338 1.261 . S
C345 O340 1.259 . S
C345 O342 1.235 . S
O346 Co336 2.021 . S
O346 C343 1.238 . S
O347 Co341 2.052 . S
O347 C343 1.241 . S
O348 Co336 2.137 . S
O348 C339 1.247 . S
O349 Co336 2.244 . S
O349 C339 1.272 . S
O349 Co341 2.135 . S
Co350 O351 2.216 . S
Co350 O352 2.091 . S
Co350 O354 2.004 . S
Co350 O360 2.021 . S
Co350 O362 2.137 . S
Co350 O363 2.244 . S
O351 Co350 2.216 . S
O351 C358 1.247 . S
O352 Co350 2.091 . S
O352 C358 1.261 . S
C353 O362 1.247 . S
C353 O363 1.272 . S
O354 Co350 2.004 . S
O354 C359 1.259 . S
Co355 O356 2.061 . S
Co355 O361 2.052 . S
Co355 O363 2.135 . S
O356 Co355 2.061 . S
O356 C359 1.235 . S
C357 O360 1.238 . S
C357 O361 1.241 . S
C358 O351 1.247 . S
C358 O352 1.261 . S
C359 O354 1.259 . S
C359 O356 1.235 . S
O360 Co350 2.021 . S
O360 C357 1.238 . S
O361 Co355 2.052 . S
O361 C357 1.241 . S
O362 Co350 2.137 . S
O362 C353 1.247 . S
O363 Co350 2.244 . S
O363 C353 1.272 . S
O363 Co355 2.135 . S
Co364 O365 2.216 . S
Co364 O366 2.091 . S
Co364 O368 2.004 . S
Co364 O374 2.021 . S
Co364 O376 2.137 . S
Co364 O377 2.244 . S
O365 Co364 2.216 . S
O365 C372 1.247 . S
O366 Co364 2.091 . S
O366 C372 1.261 . S
C367 O376 1.247 . S
C367 O377 1.272 . S
O368 Co364 2.004 . S
O368 C373 1.259 . S
Co369 O370 2.061 . S
Co369 O375 2.052 . S
Co369 O377 2.135 . S
O370 Co369 2.061 . S
O370 C373 1.235 . S
C371 O374 1.238 . S
C371 O375 1.241 . S
C372 O365 1.247 . S
C372 O366 1.261 . S
C373 O368 1.259 . S
C373 O370 1.235 . S
O374 Co364 2.021 . S
O374 C371 1.238 . S
O375 Co369 2.052 . S
O375 C371 1.241 . S
O376 Co364 2.137 . S
O376 C367 1.247 . S
O377 Co364 2.244 . S
O377 C367 1.272 . S
O377 Co369 2.135 . S
Co378 O379 2.216 . S
Co378 O380 2.091 . S
Co378 O382 2.004 . S
Co378 O388 2.021 . S
Co378 O390 2.137 . S
Co378 O391 2.244 . S
O379 Co378 2.216 . S
O379 C386 1.247 . S
O380 Co378 2.091 . S
O380 C386 1.261 . S
C381 O390 1.247 . S
C381 O391 1.272 . S
O382 Co378 2.004 . S
O382 C387 1.259 . S
Co383 O384 2.061 . S
Co383 O389 2.052 . S
Co383 O391 2.135 . S
O384 Co383 2.061 . S
O384 C387 1.235 . S
C385 O388 1.238 . S
C385 O389 1.241 . S
C386 O379 1.247 . S
C386 O380 1.261 . S
C387 O382 1.259 . S
C387 O384 1.235 . S
O388 Co378 2.021 . S
O388 C385 1.238 . S
O389 Co383 2.052 . S
O389 C385 1.241 . S
O390 Co378 2.137 . S
O390 C381 1.247 . S
O391 Co378 2.244 . S
O391 C381 1.272 . S
O391 Co383 2.135 . S
Co392 O393 2.216 . S
Co392 O394 2.091 . S
Co392 O396 2.004 . S
Co392 O402 2.021 . S
Co392 O404 2.137 . S
Co392 O405 2.244 . S
O393 Co392 2.216 . S
O393 C400 1.247 . S
O394 Co392 2.091 . S
O394 C400 1.261 . S
C395 O404 1.247 . S
C395 O405 1.272 . S
O396 Co392 2.004 . S
O396 C401 1.259 . S
Co397 O398 2.061 . S
Co397 O403 2.052 . S
Co397 O405 2.135 . S
O398 Co397 2.061 . S
O398 C401 1.235 . S
C399 O402 1.238 . S
C399 O403 1.241 . S
C400 O393 1.247 . S
C400 O394 1.261 . S
C401 O396 1.259 . S
C401 O398 1.235 . S
O402 Co392 2.021 . S
O402 C399 1.238 . S
O403 Co397 2.052 . S
O403 C399 1.241 . S
O404 Co392 2.137 . S
O404 C395 1.247 . S
O405 Co392 2.244 . S
O405 C395 1.272 . S
O405 Co397 2.135 . S
Co406 O407 2.216 . S
Co406 O408 2.091 . S
Co406 O410 2.004 . S
Co406 O416 2.021 . S
Co406 O418 2.137 . S
Co406 O419 2.244 . S
O407 Co406 2.216 . S
O407 C414 1.247 . S
O408 Co406 2.091 . S
O408 C414 1.261 . S
C409 O418 1.247 . S
C409 O419 1.272 . S
O410 Co406 2.004 . S
O410 C415 1.259 . S
Co411 O412 2.061 . S
Co411 O417 2.052 . S
Co411 O419 2.135 . S
O412 Co411 2.061 . S
O412 C415 1.235 . S
C413 O416 1.238 . S
C413 O417 1.241 . S
C414 O407 1.247 . S
C414 O408 1.261 . S
C415 O410 1.259 . S
C415 O412 1.235 . S
O416 Co406 2.021 . S
O416 C413 1.238 . S
O417 Co411 2.052 . S
O417 C413 1.241 . S
O418 Co406 2.137 . S
O418 C409 1.247 . S
O419 Co406 2.244 . S
O419 C409 1.272 . S
O419 Co411 2.135 . S
Co420 O421 2.216 . S
Co420 O422 2.091 . S
Co420 O424 2.004 . S
Co420 O430 2.021 . S
Co420 O432 2.137 . S
Co420 O433 2.244 . S
O421 Co420 2.216 . S
O421 C428 1.247 . S
O422 Co420 2.091 . S
O422 C428 1.261 . S
C423 O432 1.247 . S
C423 O433 1.272 . S
O424 Co420 2.004 . S
O424 C429 1.259 . S
Co425 O426 2.061 . S
Co425 O431 2.052 . S
Co425 O433 2.135 . S
O426 Co425 2.061 . S
O426 C429 1.235 . S
C427 O430 1.238 . S
C427 O431 1.241 . S
C428 O421 1.247 . S
C428 O422 1.261 . S
C429 O424 1.259 . S
C429 O426 1.235 . S
O430 Co420 2.021 . S
O430 C427 1.238 . S
O431 Co425 2.052 . S
O431 C427 1.241 . S
O432 Co420 2.137 . S
O432 C423 1.247 . S
O433 Co420 2.244 . S
O433 C423 1.272 . S
O433 Co425 2.135 . S
Co434 O435 2.216 . S
Co434 O436 2.091 . S
Co434 O438 2.004 . S
Co434 O444 2.021 . S
Co434 O446 2.137 . S
Co434 O447 2.244 . S
O435 Co434 2.216 . S
O435 C442 1.247 . S
O436 Co434 2.091 . S
O436 C442 1.261 . S
C437 O446 1.247 . S
C437 O447 1.272 . S
O438 Co434 2.004 . S
O438 C443 1.259 . S
Co439 O440 2.061 . S
Co439 O445 2.052 . S
Co439 O447 2.135 . S
O440 Co439 2.061 . S
O440 C443 1.235 . S
C441 O444 1.238 . S
C441 O445 1.241 . S
C442 O435 1.247 . S
C442 O436 1.261 . S
C443 O438 1.259 . S
C443 O440 1.235 . S
O444 Co434 2.021 . S
O444 C441 1.238 . S
O445 Co439 2.052 . S
O445 C441 1.241 . S
O446 Co434 2.137 . S
O446 C437 1.247 . S
O447 Co434 2.244 . S
O447 C437 1.272 . S
O447 Co439 2.135 . S
H448 C456 0.950 . S
H449 C461 0.923 1_554 S
H450 C458 0.950 . S
H451 C460 0.950 . S
H452 C462 0.950 . S
H453 C464 0.950 . S
H454 C466 0.950 . S
H455 C467 0.923 1_556 S
C456 H448 0.950 . S
C456 C457 1.386 . S
C456 C458 1.391 . S
C457 C456 1.386 . S
C457 C461 1.393 . S
C458 H450 0.950 . S
C458 C456 1.391 . S
C458 C459 1.400 . S
C459 C458 1.400 . S
C459 C460 1.398 1_556 S
C459 C465 1.491 1_656 S
C460 H451 0.950 . S
C460 C459 1.398 1_554 S
C460 C461 1.391 1_554 S
C461 H449 0.923 1_556 S
C461 C457 1.393 . S
C461 C460 1.391 1_556 S
C462 H452 0.950 . S
C462 C463 1.386 . S
C462 C464 1.391 . S
C463 C462 1.386 . S
C463 C467 1.393 . S
C464 H453 0.950 . S
C464 C462 1.391 . S
C464 C465 1.400 . S
C465 C459 1.491 1_454 S
C465 C464 1.400 . S
C465 C466 1.398 1_554 S
C466 H454 0.950 . S
C466 C465 1.398 1_556 S
C466 C467 1.391 1_556 S
C467 H455 0.923 1_554 S
C467 C463 1.393 . S
C467 C466 1.391 1_554 S
H468 C476 0.950 . S
H469 C481 0.950 . S
H470 C478 0.950 . S
H471 C480 0.950 . S
H472 C482 0.950 . S
H473 C484 0.950 . S
H474 C486 0.950 . S
H475 C487 0.950 . S
C476 H468 0.950 . S
C476 C477 1.386 . S
C476 C478 1.391 . S
C477 C476 1.386 . S
C477 C481 1.393 . S
C478 H470 0.950 . S
C478 C476 1.391 . S
C478 C479 1.400 . S
C479 C478 1.400 . S
C479 C480 1.398 . S
C479 C485 1.491 . S
C480 H471 0.950 . S
C480 C479 1.398 . S
C480 C481 1.391 . S
C481 H469 0.950 . S
C481 C477 1.393 . S
C481 C480 1.391 . S
C482 H472 0.950 . S
C482 C483 1.386 . S
C482 C484 1.391 . S
C483 C482 1.386 . S
C483 C487 1.393 . S
C484 H473 0.950 . S
C484 C482 1.391 . S
C484 C485 1.400 . S
C485 C479 1.491 . S
C485 C484 1.400 . S
C485 C486 1.398 . S
C486 H474 0.950 . S
C486 C485 1.398 . S
C486 C487 1.391 . S
C487 H475 0.950 . S
C487 C483 1.393 . S
C487 C486 1.391 . S
H488 C496 0.950 . S
H489 C501 0.950 . S
H490 C498 0.950 . S
H491 C500 0.950 . S
H492 C502 0.950 . S
H493 C504 0.950 . S
H494 C506 0.950 . S
H495 C507 0.950 . S
C496 H488 0.950 . S
C496 C497 1.386 . S
C496 C498 1.391 . S
C497 C496 1.386 . S
C497 C501 1.393 . S
C498 H490 0.950 . S
C498 C496 1.391 . S
C498 C499 1.400 . S
C499 C498 1.400 . S
C499 C500 1.398 . S
C499 C505 1.491 . S
C500 H491 0.950 . S
C500 C499 1.398 . S
C500 C501 1.391 . S
C501 H489 0.950 . S
C501 C497 1.393 . S
C501 C500 1.391 . S
C502 H492 0.950 . S
C502 C503 1.386 . S
C502 C504 1.391 . S
C503 C502 1.386 . S
C503 C507 1.393 . S
C504 H493 0.950 . S
C504 C502 1.391 . S
C504 C505 1.400 . S
C505 C499 1.491 . S
C505 C504 1.400 . S
C505 C506 1.398 . S
C506 H494 0.950 . S
C506 C505 1.398 . S
C506 C507 1.391 . S
C507 H495 0.950 . S
C507 C503 1.393 . S
C507 C506 1.391 . S
H508 C516 0.950 . S
H509 C521 0.950 . S
H510 C518 0.950 . S
H511 C520 0.950 . S
H512 C522 0.950 . S
H513 C524 0.950 . S
H514 C526 0.950 . S
H515 C527 0.950 . S
C516 H508 0.950 . S
C516 C517 1.386 . S
C516 C518 1.391 . S
C517 C516 1.386 . S
C517 C521 1.393 . S
C518 H510 0.950 . S
C518 C516 1.391 . S
C518 C519 1.400 . S
C519 C518 1.400 . S
C519 C520 1.398 . S
C519 C525 1.491 . S
C520 H511 0.950 . S
C520 C519 1.398 . S
C520 C521 1.391 . S
C521 H509 0.950 . S
C521 C517 1.393 . S
C521 C520 1.391 . S
C522 H512 0.950 . S
C522 C523 1.386 . S
C522 C524 1.391 . S
C523 C522 1.386 . S
C523 C527 1.393 . S
C524 H513 0.950 . S
C524 C522 1.391 . S
C524 C525 1.400 . S
C525 C519 1.491 . S
C525 C524 1.400 . S
C525 C526 1.398 . S
C526 H514 0.950 . S
C526 C525 1.398 . S
C526 C527 1.391 . S
C527 H515 0.950 . S
C527 C523 1.393 . S
C527 C526 1.391 . S
H528 C536 0.950 . S
H529 C541 0.950 . S
H530 C538 0.950 . S
H531 C540 0.950 1_455 S
H532 C542 0.950 . S
H533 C544 0.950 . S
H534 C546 0.950 1_655 S
H535 C547 0.950 . S
C536 H528 0.950 . S
C536 C537 1.386 . S
C536 C538 1.391 . S
C537 C536 1.386 . S
C537 C541 1.393 . S
C538 H530 0.950 . S
C538 C536 1.391 . S
C538 C539 1.400 . S
C539 C538 1.400 . S
C539 C540 1.398 . S
C539 C545 1.491 1_655 S
C540 H531 0.950 1_655 S
C540 C539 1.398 . S
C540 C541 1.391 . S
C541 H529 0.950 . S
C541 C537 1.393 . S
C541 C540 1.391 . S
C542 H532 0.950 . S
C542 C543 1.386 . S
C542 C544 1.391 . S
C543 C542 1.386 . S
C543 C547 1.393 . S
C544 H533 0.950 . S
C544 C542 1.391 . S
C544 C545 1.400 . S
C545 C539 1.491 1_455 S
C545 C544 1.400 . S
C545 C546 1.398 . S
C546 H534 0.950 1_455 S
C546 C545 1.398 . S
C546 C547 1.391 . S
C547 H535 0.950 . S
C547 C543 1.393 . S
C547 C546 1.391 . S
H548 C556 0.950 . S
H549 C561 0.950 . S
H550 C558 0.950 . S
H551 C560 0.950 . S
H552 C562 0.950 . S
H553 C564 0.950 . S
H554 C566 0.950 . S
H555 C567 0.950 . S
C556 H548 0.950 . S
C556 C557 1.386 . S
C556 C558 1.391 . S
C557 C556 1.386 . S
C557 C561 1.393 . S
C558 H550 0.950 . S
C558 C556 1.391 . S
C558 C559 1.400 . S
C559 C558 1.400 . S
C559 C560 1.398 . S
C559 C565 1.491 . S
C560 H551 0.950 . S
C560 C559 1.398 . S
C560 C561 1.391 . S
C561 H549 0.950 . S
C561 C557 1.393 . S
C561 C560 1.391 . S
C562 H552 0.950 . S
C562 C563 1.386 . S
C562 C564 1.391 . S
C563 C562 1.386 . S
C563 C567 1.393 . S
C564 H553 0.950 . S
C564 C562 1.391 . S
C564 C565 1.400 . S
C565 C559 1.491 . S
C565 C564 1.400 . S
C565 C566 1.398 . S
C566 H554 0.950 . S
C566 C565 1.398 . S
C566 C567 1.391 . S
C567 H555 0.950 . S
C567 C563 1.393 . S
C567 C566 1.391 . S
H568 C576 0.950 . S
H569 C581 0.950 . S
H570 C578 0.942 1_554 S
H571 C580 0.950 . S
H572 C582 0.950 . S
H573 C584 0.942 1_556 S
H574 C586 0.950 . S
H575 C587 0.950 . S
C576 H568 0.950 . S
C576 C577 1.386 . S
C576 C578 1.391 . S
C577 C576 1.386 . S
C577 C581 1.393 . S
C578 H570 0.942 1_556 S
C578 C576 1.391 . S
C578 C579 1.400 . S
C579 C578 1.400 . S
C579 C580 1.398 . S
C579 C585 1.491 1_556 S
C580 H571 0.950 . S
C580 C579 1.398 . S
C580 C581 1.391 . S
C581 H569 0.950 . S
C581 C577 1.393 . S
C581 C580 1.391 . S
C582 H572 0.950 . S
C582 C583 1.386 . S
C582 C584 1.391 . S
C583 C582 1.386 . S
C583 C587 1.393 . S
C584 H573 0.942 1_554 S
C584 C582 1.391 . S
C584 C585 1.400 . S
C585 C579 1.491 1_554 S
C585 C584 1.400 . S
C585 C586 1.398 . S
C586 H574 0.950 . S
C586 C585 1.398 . S
C586 C587 1.391 . S
C587 H575 0.950 . S
C587 C583 1.393 . S
C587 C586 1.391 . S
H588 C596 0.950 . S
H589 C601 0.950 . S
H590 C598 0.950 . S
H591 C600 0.950 . S
H592 C602 0.950 . S
H593 C604 0.950 . S
H594 C606 0.950 . S
H595 C607 0.950 . S
C596 H588 0.950 . S
C596 C597 1.386 . S
C596 C598 1.391 . S
C597 C596 1.386 . S
C597 C601 1.393 . S
C598 H590 0.950 . S
C598 C596 1.391 . S
C598 C599 1.400 . S
C599 C598 1.400 . S
C599 C600 1.398 . S
C599 C605 1.491 . S
C600 H591 0.950 . S
C600 C599 1.398 . S
C600 C601 1.391 . S
C601 H589 0.950 . S
C601 C597 1.393 . S
C601 C600 1.391 . S
C602 H592 0.950 . S
C602 C603 1.386 . S
C602 C604 1.391 . S
C603 C602 1.386 . S
C603 C607 1.393 . S
C604 H593 0.950 . S
C604 C602 1.391 . S
C604 C605 1.400 . S
C605 C599 1.491 . S
C605 C604 1.400 . S
C605 C606 1.398 . S
C606 H594 0.950 . S
C606 C605 1.398 . S
C606 C607 1.391 . S
C607 H595 0.950 . S
C607 C603 1.393 . S
C607 C606 1.391 . S
H608 C616 0.950 . S
H609 C621 0.950 . S
H610 C618 0.950 . S
H611 C620 0.950 . S
H612 C622 0.950 . S
H613 C624 0.950 . S
H614 C626 0.950 . S
H615 C627 0.950 . S
C616 H608 0.950 . S
C616 C617 1.386 . S
C616 C618 1.391 . S
C617 C616 1.386 . S
C617 C621 1.393 . S
C618 H610 0.950 . S
C618 C616 1.391 . S
C618 C619 1.400 . S
C619 C618 1.400 . S
C619 C620 1.398 . S
C619 C625 1.491 . S
C620 H611 0.950 . S
C620 C619 1.398 . S
C620 C621 1.391 . S
C621 H609 0.950 . S
C621 C617 1.393 . S
C621 C620 1.391 . S
C622 H612 0.950 . S
C622 C623 1.386 . S
C622 C624 1.391 . S
C623 C622 1.386 . S
C623 C627 1.393 . S
C624 H613 0.950 . S
C624 C622 1.391 . S
C624 C625 1.400 . S
C625 C619 1.491 . S
C625 C624 1.400 . S
C625 C626 1.398 . S
C626 H614 0.950 . S
C626 C625 1.398 . S
C626 C627 1.391 . S
C627 H615 0.950 . S
C627 C623 1.393 . S
C627 C626 1.391 . S
H628 C636 0.950 . S
H629 C641 0.950 . S
H630 C638 0.950 . S
H631 C640 0.950 . S
H632 C642 0.950 . S
H633 C644 0.950 . S
H634 C646 0.950 . S
H635 C647 0.950 . S
C636 H628 0.950 . S
C636 C637 1.386 . S
C636 C638 1.391 . S
C637 C636 1.386 . S
C637 C641 1.393 . S
C638 H630 0.950 . S
C638 C636 1.391 . S
C638 C639 1.400 . S
C639 C638 1.400 . S
C639 C640 1.398 . S
C639 C645 1.491 . S
C640 H631 0.950 . S
C640 C639 1.398 . S
C640 C641 1.391 . S
C641 H629 0.950 . S
C641 C637 1.393 . S
C641 C640 1.391 . S
C642 H632 0.950 . S
C642 C643 1.386 . S
C642 C644 1.391 . S
C643 C642 1.386 . S
C643 C647 1.393 . S
C644 H633 0.950 . S
C644 C642 1.391 . S
C644 C645 1.400 . S
C645 C639 1.491 . S
C645 C644 1.400 . S
C645 C646 1.398 . S
C646 H634 0.950 . S
C646 C645 1.398 . S
C646 C647 1.391 . S
C647 H635 0.950 . S
C647 C643 1.393 . S
C647 C646 1.391 . S
H648 C656 0.950 . S
H649 C661 0.950 . S
H650 C658 0.950 . S
H651 C660 0.950 . S
H652 C662 0.950 . S
H653 C664 0.950 . S
H654 C666 0.950 . S
H655 C667 0.950 . S
C656 H648 0.950 . S
C656 C657 1.386 . S
C656 C658 1.391 . S
C657 C656 1.386 . S
C657 C661 1.393 . S
C658 H650 0.950 . S
C658 C656 1.391 . S
C658 C659 1.400 . S
C659 C658 1.400 . S
C659 C660 1.398 . S
C659 C665 1.491 . S
C660 H651 0.950 . S
C660 C659 1.398 . S
C660 C661 1.391 . S
C661 H649 0.950 . S
C661 C657 1.393 . S
C661 C660 1.391 . S
C662 H652 0.950 . S
C662 C663 1.386 . S
C662 C664 1.391 . S
C663 C662 1.386 . S
C663 C667 1.393 . S
C664 H653 0.950 . S
C664 C662 1.391 . S
C664 C665 1.400 . S
C665 C659 1.491 . S
C665 C664 1.400 . S
C665 C666 1.398 . S
C666 H654 0.950 . S
C666 C665 1.398 . S
C666 C667 1.391 . S
C667 H655 0.950 . S
C667 C663 1.393 . S
C667 C666 1.391 . S
H668 C676 0.950 . S
H669 C681 0.950 . S
H670 C678 0.950 . S
H671 C680 0.950 . S
H672 C682 0.950 . S
H673 C684 0.950 . S
H674 C686 0.950 . S
H675 C687 0.950 . S
C676 H668 0.950 . S
C676 C677 1.386 . S
C676 C678 1.391 . S
C677 C676 1.386 . S
C677 C681 1.393 . S
C678 H670 0.950 . S
C678 C676 1.391 . S
C678 C679 1.400 . S
C679 C678 1.400 . S
C679 C680 1.398 . S
C679 C685 1.491 . S
C680 H671 0.950 . S
C680 C679 1.398 . S
C680 C681 1.391 . S
C681 H669 0.950 . S
C681 C677 1.393 . S
C681 C680 1.391 . S
C682 H672 0.950 . S
C682 C683 1.386 . S
C682 C684 1.391 . S
C683 C682 1.386 . S
C683 C687 1.393 . S
C684 H673 0.950 . S
C684 C682 1.391 . S
C684 C685 1.400 . S
C685 C679 1.491 . S
C685 C684 1.400 . S
C685 C686 1.398 . S
C686 H674 0.950 . S
C686 C685 1.398 . S
C686 C687 1.391 . S
C687 H675 0.950 . S
C687 C683 1.393 . S
C687 C686 1.391 . S
H688 C696 0.950 . S
H689 C701 0.950 . S
H690 C698 0.950 1_545 S
H691 C700 0.950 . S
H692 C702 0.950 . S
H693 C704 0.950 1_565 S
H694 C706 0.950 . S
H695 C707 0.950 . S
C696 H688 0.950 . S
C696 C697 1.386 . S
C696 C698 1.391 . S
C697 C696 1.386 . S
C697 C701 1.393 . S
C698 H690 0.950 1_565 S
C698 C696 1.391 . S
C698 C699 1.400 . S
C699 C698 1.400 . S
C699 C700 1.398 . S
C699 C705 1.491 1_565 S
C700 H691 0.950 . S
C700 C699 1.398 . S
C700 C701 1.391 . S
C701 H689 0.950 . S
C701 C697 1.393 . S
C701 C700 1.391 . S
C702 H692 0.950 . S
C702 C703 1.386 . S
C702 C704 1.391 . S
C703 C702 1.386 . S
C703 C707 1.393 . S
C704 H693 0.950 1_545 S
C704 C702 1.391 . S
C704 C705 1.400 . S
C705 C699 1.491 1_545 S
C705 C704 1.400 . S
C705 C706 1.398 . S
C706 H694 0.950 . S
C706 C705 1.398 . S
C706 C707 1.391 . S
C707 H695 0.950 . S
C707 C703 1.393 . S
C707 C706 1.391 . S
H708 C716 0.950 1_554 S
H709 C721 0.950 . S
H710 C718 0.950 . S
H711 C720 0.950 1_545 S
H712 C722 0.950 1_556 S
H713 C724 0.950 . S
H714 C726 0.950 1_565 S
H715 C727 0.950 . S
C716 H708 0.950 1_556 S
C716 C717 1.386 . S
C716 C718 1.391 1_556 S
C717 C716 1.386 . S
C717 C721 1.393 . S
C718 H710 0.950 . S
C718 C716 1.391 1_554 S
C718 C719 1.400 1_554 S
C719 C718 1.400 1_556 S
C719 C720 1.398 . S
C719 C725 1.491 1_466 S
C720 H711 0.950 1_565 S
C720 C719 1.398 . S
C720 C721 1.391 . S
C721 H709 0.950 . S
C721 C717 1.393 . S
C721 C720 1.391 . S
C722 H712 0.950 1_554 S
C722 C723 1.386 . S
C722 C724 1.391 1_554 S
C723 C722 1.386 . S
C723 C727 1.393 . S
C724 H713 0.950 . S
C724 C722 1.391 1_556 S
C724 C725 1.400 1_556 S
C725 C719 1.491 1_644 S
C725 C724 1.400 1_554 S
C725 C726 1.398 . S
C726 H714 0.950 1_545 S
C726 C725 1.398 . S
C726 C727 1.391 . S
C727 H715 0.950 . S
C727 C723 1.393 . S
C727 C726 1.391 . S
H728 C736 0.950 . S
H729 C741 0.950 . S
H730 C738 0.950 . S
H731 C740 0.950 1_565 S
H732 C742 0.950 . S
H733 C744 0.950 . S
H734 C746 0.950 1_545 S
H735 C747 0.950 . S
C736 H728 0.950 . S
C736 C737 1.386 . S
C736 C738 1.391 . S
C737 C736 1.386 . S
C737 C741 1.393 . S
C738 H730 0.950 . S
C738 C736 1.391 . S
C738 C739 1.400 . S
C739 C738 1.400 . S
C739 C740 1.398 . S
C739 C745 1.491 1_546 S
C740 H731 0.950 1_545 S
C740 C739 1.398 . S
C740 C741 1.391 . S
C741 H729 0.950 . S
C741 C737 1.393 . S
C741 C740 1.391 . S
C742 H732 0.950 . S
C742 C743 1.386 . S
C742 C744 1.391 . S
C743 C742 1.386 . S
C743 C747 1.393 . S
C744 H733 0.950 . S
C744 C742 1.391 . S
C744 C745 1.400 . S
C745 C739 1.491 1_564 S
C745 C744 1.400 . S
C745 C746 1.398 . S
C746 H734 0.950 1_565 S
C746 C745 1.398 . S
C746 C747 1.391 . S
C747 H735 0.950 . S
C747 C743 1.393 . S
C747 C746 1.391 . S
H748 C756 0.950 . S
H749 C761 0.950 . S
H750 C758 0.950 1_565 S
H751 C760 0.950 . S
H752 C762 0.950 . S
H753 C764 0.950 1_545 S
H754 C766 0.950 . S
H755 C767 0.950 . S
C756 H748 0.950 . S
C756 C757 1.386 . S
C756 C758 1.391 . S
C757 C756 1.386 . S
C757 C761 1.393 . S
C758 H750 0.950 1_545 S
C758 C756 1.391 . S
C758 C759 1.400 . S
C759 C758 1.400 . S
C759 C760 1.398 . S
C759 C765 1.491 1_445 S
C760 H751 0.950 . S
C760 C759 1.398 . S
C760 C761 1.391 . S
C761 H749 0.950 . S
C761 C757 1.393 . S
C761 C760 1.391 . S
C762 H752 0.950 . S
C762 C763 1.386 . S
C762 C764 1.391 . S
C763 C762 1.386 . S
C763 C767 1.393 . S
C764 H753 0.950 1_565 S
C764 C762 1.391 . S
C764 C765 1.400 . S
C765 C759 1.491 1_665 S
C765 C764 1.400 . S
C765 C766 1.398 . S
C766 H754 0.950 . S
C766 C765 1.398 . S
C766 C767 1.391 . S
C767 H755 0.950 . S
C767 C763 1.393 . S
C767 C766 1.391 . S
H768 C776 0.950 . S
H769 C781 0.950 . S
H770 C778 0.930 1_455 S
H771 C780 0.950 . S
H772 C782 0.950 . S
H773 C784 0.931 1_655 S
H774 C786 0.950 . S
H775 C787 0.950 . S
C776 H768 0.950 . S
C776 C777 1.386 . S
C776 C778 1.391 . S
C777 C776 1.386 . S
C777 C781 1.393 . S
C778 H770 0.930 1_655 S
C778 C776 1.391 . S
C778 C779 1.400 . S
C779 C778 1.400 . S
C779 C780 1.398 . S
C779 C785 1.491 1_655 S
C780 H771 0.950 . S
C780 C779 1.398 . S
C780 C781 1.391 . S
C781 H769 0.950 . S
C781 C777 1.393 . S
C781 C780 1.391 . S
C782 H772 0.950 . S
C782 C783 1.386 . S
C782 C784 1.391 . S
C783 C782 1.386 . S
C783 C787 1.393 . S
C784 H773 0.931 1_455 S
C784 C782 1.391 . S
C784 C785 1.400 . S
C785 C779 1.491 1_455 S
C785 C784 1.400 . S
C785 C786 1.398 . S
C786 H774 0.950 . S
C786 C785 1.398 . S
C786 C787 1.391 . S
C787 H775 0.950 . S
C787 C783 1.393 . S
C787 C786 1.391 . S
H788 C796 0.950 . S
H789 C801 0.950 . S
H790 C798 0.950 1_655 S
H791 C800 0.950 . S
H792 C802 0.950 . S
H793 C804 0.950 1_455 S
H794 C806 0.950 . S
H795 C807 0.950 . S
C796 H788 0.950 . S
C796 C797 1.386 . S
C796 C798 1.391 . S
C797 C796 1.386 . S
C797 C801 1.393 . S
C798 H790 0.950 1_455 S
C798 C796 1.391 . S
C798 C799 1.400 . S
C799 C798 1.400 . S
C799 C800 1.398 . S
C799 C805 1.491 1_455 S
C800 H791 0.950 . S
C800 C799 1.398 . S
C800 C801 1.391 . S
C801 H789 0.950 . S
C801 C797 1.393 . S
C801 C800 1.391 . S
C802 H792 0.950 . S
C802 C803 1.386 . S
C802 C804 1.391 . S
C803 C802 1.386 . S
C803 C807 1.393 . S
C804 H793 0.950 1_655 S
C804 C802 1.391 . S
C804 C805 1.400 . S
C805 C799 1.491 1_655 S
C805 C804 1.400 . S
C805 C806 1.398 . S
C806 H794 0.950 . S
C806 C805 1.398 . S
C806 C807 1.391 . S
C807 H795 0.950 . S
C807 C803 1.393 . S
C807 C806 1.391 . S
H808 C816 0.950 . S
H809 C821 0.950 . S
H810 C818 0.950 . S
H811 C820 0.950 . S
H812 C822 0.950 . S
H813 C824 0.950 . S
H814 C826 0.950 . S
H815 C827 0.950 . S
C816 H808 0.950 . S
C816 C817 1.386 . S
C816 C818 1.391 . S
C817 C816 1.386 . S
C817 C821 1.393 . S
C818 H810 0.950 . S
C818 C816 1.391 . S
C818 C819 1.400 . S
C819 C818 1.400 . S
C819 C820 1.398 . S
C819 C825 1.491 . S
C820 H811 0.950 . S
C820 C819 1.398 . S
C820 C821 1.391 . S
C821 H809 0.950 . S
C821 C817 1.393 . S
C821 C820 1.391 . S
C822 H812 0.950 . S
C822 C823 1.386 . S
C822 C824 1.391 . S
C823 C822 1.386 . S
C823 C827 1.393 . S
C824 H813 0.950 . S
C824 C822 1.391 . S
C824 C825 1.400 . S
C825 C819 1.491 . S
C825 C824 1.400 . S
C825 C826 1.398 . S
C826 H814 0.950 . S
C826 C825 1.398 . S
C826 C827 1.391 . S
C827 H815 0.950 . S
C827 C823 1.393 . S
C827 C826 1.391 . S
H828 C836 0.950 . S
H829 C841 0.950 . S
H830 C838 0.950 . S
H831 C840 0.950 . S
H832 C842 0.950 . S
H833 C844 0.950 . S
H834 C846 0.950 . S
H835 C847 0.950 . S
C836 H828 0.950 . S
C836 C837 1.386 . S
C836 C838 1.391 . S
C837 C836 1.386 . S
C837 C841 1.393 . S
C838 H830 0.950 . S
C838 C836 1.391 . S
C838 C839 1.400 . S
C839 C838 1.400 . S
C839 C840 1.398 . S
C839 C845 1.491 . S
C840 H831 0.950 . S
C840 C839 1.398 . S
C840 C841 1.391 . S
C841 H829 0.950 . S
C841 C837 1.393 . S
C841 C840 1.391 . S
C842 H832 0.950 . S
C842 C843 1.386 . S
C842 C844 1.391 . S
C843 C842 1.386 . S
C843 C847 1.393 . S
C844 H833 0.950 . S
C844 C842 1.391 . S
C844 C845 1.400 . S
C845 C839 1.491 . S
C845 C844 1.400 . S
C845 C846 1.398 . S
C846 H834 0.950 . S
C846 C845 1.398 . S
C846 C847 1.391 . S
C847 H835 0.950 . S
C847 C843 1.393 . S
C847 C846 1.391 . S
H848 C856 0.950 . S
H849 C861 0.948 1_455 S
H850 C858 0.950 . S
H851 C860 0.950 . S
H852 C862 0.950 . S
H853 C864 0.950 . S
H854 C866 0.950 . S
H855 C867 0.948 1_655 S
C856 H848 0.950 . S
C856 C857 1.386 . S
C856 C858 1.391 . S
C857 C856 1.386 . S
C857 C861 1.393 . S
C858 H850 0.950 . S
C858 C856 1.391 . S
C858 C859 1.400 . S
C859 C858 1.400 . S
C859 C860 1.398 1_655 S
C859 C865 1.491 1_655 S
C860 H851 0.950 . S
C860 C859 1.398 1_455 S
C860 C861 1.391 1_455 S
C861 H849 0.948 1_655 S
C861 C857 1.393 . S
C861 C860 1.391 1_655 S
C862 H852 0.950 . S
C862 C863 1.386 . S
C862 C864 1.391 . S
C863 C862 1.386 . S
C863 C867 1.393 . S
C864 H853 0.950 . S
C864 C862 1.391 . S
C864 C865 1.400 . S
C865 C859 1.491 1_455 S
C865 C864 1.400 . S
C865 C866 1.398 1_455 S
C866 H854 0.950 . S
C866 C865 1.398 1_655 S
C866 C867 1.391 1_655 S
C867 H855 0.948 1_455 S
C867 C863 1.393 . S
C867 C866 1.391 1_455 S
H868 C876 0.950 . S
H869 C881 0.950 . S
H870 C878 0.950 . S
H871 C880 0.950 . S
H872 C882 0.950 . S
H873 C884 0.950 . S
H874 C886 0.950 . S
H875 C887 0.950 . S
C876 H868 0.950 . S
C876 C877 1.386 . S
C876 C878 1.391 . S
C877 C876 1.386 . S
C877 C881 1.393 . S
C878 H870 0.950 . S
C878 C876 1.391 . S
C878 C879 1.400 . S
C879 C878 1.400 . S
C879 C880 1.398 . S
C879 C885 1.491 . S
C880 H871 0.950 . S
C880 C879 1.398 . S
C880 C881 1.391 . S
C881 H869 0.950 . S
C881 C877 1.393 . S
C881 C880 1.391 . S
C882 H872 0.950 . S
C882 C883 1.386 . S
C882 C884 1.391 . S
C883 C882 1.386 . S
C883 C887 1.393 . S
C884 H873 0.950 . S
C884 C882 1.391 . S
C884 C885 1.400 . S
C885 C879 1.491 . S
C885 C884 1.400 . S
C885 C886 1.398 . S
C886 H874 0.950 . S
C886 C885 1.398 . S
C886 C887 1.391 . S
C887 H875 0.950 . S
C887 C883 1.393 . S
C887 C886 1.391 . S
H888 C896 0.950 . S
H889 C901 0.950 . S
H890 C898 0.950 . S
H891 C900 0.950 . S
H892 C902 0.950 . S
H893 C904 0.950 . S
H894 C906 0.950 . S
H895 C907 0.950 . S
C896 H888 0.950 . S
C896 C897 1.386 . S
C896 C898 1.391 . S
C897 C896 1.386 . S
C897 C901 1.393 . S
C898 H890 0.950 . S
C898 C896 1.391 . S
C898 C899 1.400 . S
C899 C898 1.400 . S
C899 C900 1.398 . S
C899 C905 1.491 . S
C900 H891 0.950 . S
C900 C899 1.398 . S
C900 C901 1.391 . S
C901 H889 0.950 . S
C901 C897 1.393 . S
C901 C900 1.391 . S
C902 H892 0.950 . S
C902 C903 1.386 . S
C902 C904 1.391 . S
C903 C902 1.386 . S
C903 C907 1.393 . S
C904 H893 0.950 . S
C904 C902 1.391 . S
C904 C905 1.400 . S
C905 C899 1.491 . S
C905 C904 1.400 . S
C905 C906 1.398 . S
C906 H894 0.950 . S
C906 C905 1.398 . S
C906 C907 1.391 . S
C907 H895 0.950 . S
C907 C903 1.393 . S
C907 C906 1.391 . S
H908 C916 0.950 . S
H909 C921 0.950 . S
H910 C918 0.980 . S
H911 C920 0.950 . S
H912 C922 0.950 . S
H913 C924 0.981 . S
H914 C926 0.950 . S
H915 C927 0.950 . S
C916 H908 0.950 . S
C916 C917 1.386 . S
C916 C918 1.391 . S
C917 C916 1.386 . S
C917 C921 1.393 . S
C918 H910 0.980 . S
C918 C916 1.391 . S
C918 C919 1.400 . S
C919 C918 1.400 . S
C919 C920 1.398 . S
C919 C925 1.491 1_455 S
C920 H911 0.950 . S
C920 C919 1.398 . S
C920 C921 1.391 . S
C921 H909 0.950 . S
C921 C917 1.393 . S
C921 C920 1.391 . S
C922 H912 0.950 . S
C922 C923 1.386 . S
C922 C924 1.391 . S
C923 C922 1.386 . S
C923 C927 1.393 . S
C924 H913 0.981 . S
C924 C922 1.391 . S
C924 C925 1.400 . S
C925 C919 1.491 1_655 S
C925 C924 1.400 . S
C925 C926 1.398 . S
C926 H914 0.950 . S
C926 C925 1.398 . S
C926 C927 1.391 . S
C927 H915 0.950 . S
C927 C923 1.393 . S
C927 C926 1.391 . S
H928 C936 0.947 1_455 S
H929 C941 0.950 . S
H930 C938 0.950 . S
H931 C940 0.950 . S
H932 C942 0.947 1_655 S
H933 C944 0.950 . S
H934 C946 0.950 . S
H935 C947 0.950 . S
C936 H928 0.947 1_655 S
C936 C937 1.386 . S
C936 C938 1.391 1_655 S
C937 C936 1.386 . S
C937 C941 1.393 . S
C938 H930 0.950 . S
C938 C936 1.391 1_455 S
C938 C939 1.400 1_455 S
C939 C938 1.400 1_655 S
C939 C940 1.398 . S
C939 C945 1.491 1_655 S
C940 H931 0.950 . S
C940 C939 1.398 . S
C940 C941 1.391 . S
C941 H929 0.950 . S
C941 C937 1.393 . S
C941 C940 1.391 . S
C942 H932 0.947 1_455 S
C942 C943 1.386 . S
C942 C944 1.391 1_455 S
C943 C942 1.386 . S
C943 C947 1.393 . S
C944 H933 0.950 . S
C944 C942 1.391 1_655 S
C944 C945 1.400 1_655 S
C945 C939 1.491 1_455 S
C945 C944 1.400 1_455 S
C945 C946 1.398 . S
C946 H934 0.950 . S
C946 C945 1.398 . S
C946 C947 1.391 . S
C947 H935 0.950 . S
C947 C943 1.393 . S
C947 C946 1.391 . S
H948 C956 0.950 . S
H949 C961 0.950 . S
H950 C958 0.950 . S
H951 C960 0.950 . S
H952 C962 0.950 . S
H953 C964 0.950 . S
H954 C966 0.950 . S
H955 C967 0.950 . S
C956 H948 0.950 . S
C956 C957 1.386 . S
C956 C958 1.391 . S
C957 C956 1.386 . S
C957 C961 1.393 . S
C958 H950 0.950 . S
C958 C956 1.391 . S
C958 C959 1.400 . S
C959 C958 1.400 . S
C959 C960 1.398 . S
C959 C965 1.491 1_655 S
C960 H951 0.950 . S
C960 C959 1.398 . S
C960 C961 1.391 . S
C961 H949 0.950 . S
C961 C957 1.393 . S
C961 C960 1.391 . S
C962 H952 0.950 . S
C962 C963 1.386 . S
C962 C964 1.391 . S
C963 C962 1.386 . S
C963 C967 1.393 . S
C964 H953 0.950 . S
C964 C962 1.391 . S
C964 C965 1.400 . S
C965 C959 1.491 1_455 S
C965 C964 1.400 . S
C965 C966 1.398 . S
C966 H954 0.950 . S
C966 C965 1.398 . S
C966 C967 1.391 . S
C967 H955 0.950 . S
C967 C963 1.393 . S
C967 C966 1.391 . S
H968 C976 0.950 . S
H969 C981 0.950 . S
H970 C978 0.950 . S
H971 C980 0.950 . S
H972 C982 0.950 . S
H973 C984 0.950 . S
H974 C986 0.950 . S
H975 C987 0.950 . S
C976 H968 0.950 . S
C976 C977 1.386 . S
C976 C978 1.391 . S
C977 C976 1.386 . S
C977 C981 1.393 . S
C978 H970 0.950 . S
C978 C976 1.391 . S
C978 C979 1.400 . S
C979 C978 1.400 . S
C979 C980 1.398 . S
C979 C985 1.491 . S
C980 H971 0.950 . S
C980 C979 1.398 . S
C980 C981 1.391 . S
C981 H969 0.950 . S
C981 C977 1.393 . S
C981 C980 1.391 . S
C982 H972 0.950 . S
C982 C983 1.386 . S
C982 C984 1.391 . S
C983 C982 1.386 . S
C983 C987 1.393 . S
C984 H973 0.950 . S
C984 C982 1.391 . S
C984 C985 1.400 . S
C985 C979 1.491 . S
C985 C984 1.400 . S
C985 C986 1.398 . S
C986 H974 0.950 . S
C986 C985 1.398 . S
C986 C987 1.391 . S
C987 H975 0.950 . S
C987 C983 1.393 . S
C987 C986 1.391 . S
H988 C996 0.950 . S
H989 C1001 0.950 . S
H990 C998 0.950 . S
H991 C1000 0.950 . S
H992 C1002 0.950 . S
H993 C1004 0.950 . S
H994 C1006 0.950 . S
H995 C1007 0.950 . S
C996 H988 0.950 . S
C996 C997 1.386 . S
C996 C998 1.391 . S
C997 C996 1.386 . S
C997 C1001 1.393 . S
C998 H990 0.950 . S
C998 C996 1.391 . S
C998 C999 1.400 . S
C999 C998 1.400 . S
C999 C1000 1.398 . S
C999 C1005 1.491 . S
C1000 H991 0.950 . S
C1000 C999 1.398 . S
C1000 C1001 1.391 . S
C1001 H989 0.950 . S
C1001 C997 1.393 . S
C1001 C1000 1.391 . S
C1002 H992 0.950 . S
C1002 C1003 1.386 . S
C1002 C1004 1.391 . S
C1003 C1002 1.386 . S
C1003 C1007 1.393 . S
C1004 H993 0.950 . S
C1004 C1002 1.391 . S
C1004 C1005 1.400 . S
C1005 C999 1.491 . S
C1005 C1004 1.400 . S
C1005 C1006 1.398 . S
C1006 H994 0.950 . S
C1006 C1005 1.398 . S
C1006 C1007 1.391 . S
C1007 H995 0.950 . S
C1007 C1003 1.393 . S
C1007 C1006 1.391 . S
H1008 C1016 0.950 1_455 S
H1009 C1021 0.950 . S
H1010 C1018 0.950 . S
H1011 C1020 0.950 . S
H1012 C1022 0.950 1_655 S
H1013 C1024 0.950 . S
H1014 C1026 0.950 . S
H1015 C1027 0.950 . S
C1016 H1008 0.950 1_655 S
C1016 C1017 1.386 . S
C1016 C1018 1.391 1_655 S
C1017 C1016 1.386 . S
C1017 C1021 1.393 . S
C1018 H1010 0.950 . S
C1018 C1016 1.391 1_455 S
C1018 C1019 1.400 1_455 S
C1019 C1018 1.400 1_655 S
C1019 C1020 1.398 . S
C1019 C1025 1.491 1_655 S
C1020 H1011 0.950 . S
C1020 C1019 1.398 . S
C1020 C1021 1.391 . S
C1021 H1009 0.950 . S
C1021 C1017 1.393 . S
C1021 C1020 1.391 . S
C1022 H1012 0.950 1_455 S
C1022 C1023 1.386 . S
C1022 C1024 1.391 1_455 S
C1023 C1022 1.386 . S
C1023 C1027 1.393 . S
C1024 H1013 0.950 . S
C1024 C1022 1.391 1_655 S
C1024 C1025 1.400 1_655 S
C1025 C1019 1.491 1_455 S
C1025 C1024 1.400 1_455 S
C1025 C1026 1.398 . S
C1026 H1014 0.950 . S
C1026 C1025 1.398 . S
C1026 C1027 1.391 . S
C1027 H1015 0.950 . S
C1027 C1023 1.393 . S
C1027 C1026 1.391 . S
H1028 C1036 0.950 . S
H1029 C1041 0.950 . S
H1030 C1038 0.950 . S
H1031 C1040 0.950 . S
H1032 C1042 0.950 . S
H1033 C1044 0.950 . S
H1034 C1046 0.950 . S
H1035 C1047 0.950 . S
C1036 H1028 0.950 . S
C1036 C1037 1.386 . S
C1036 C1038 1.391 . S
C1037 C1036 1.386 . S
C1037 C1041 1.393 . S
C1038 H1030 0.950 . S
C1038 C1036 1.391 . S
C1038 C1039 1.400 . S
C1039 C1038 1.400 . S
C1039 C1040 1.398 . S
C1039 C1045 1.491 . S
C1040 H1031 0.950 . S
C1040 C1039 1.398 . S
C1040 C1041 1.391 . S
C1041 H1029 0.950 . S
C1041 C1037 1.393 . S
C1041 C1040 1.391 . S
C1042 H1032 0.950 . S
C1042 C1043 1.386 . S
C1042 C1044 1.391 . S
C1043 C1042 1.386 . S
C1043 C1047 1.393 . S
C1044 H1033 0.950 . S
C1044 C1042 1.391 . S
C1044 C1045 1.400 . S
C1045 C1039 1.491 . S
C1045 C1044 1.400 . S
C1045 C1046 1.398 . S
C1046 H1034 0.950 . S
C1046 C1045 1.398 . S
C1046 C1047 1.391 . S
C1047 H1035 0.950 . S
C1047 C1043 1.393 . S
C1047 C1046 1.391 . S
H1048 C1056 0.950 . S
H1049 C1061 0.950 . S
H1050 C1058 0.950 . S
H1051 C1060 0.950 . S
H1052 C1062 0.950 . S
H1053 C1064 0.950 . S
H1054 C1066 0.950 . S
H1055 C1067 0.950 . S
C1056 H1048 0.950 . S
C1056 C1057 1.386 . S
C1056 C1058 1.391 . S
C1057 C1056 1.386 . S
C1057 C1061 1.393 . S
C1058 H1050 0.950 . S
C1058 C1056 1.391 . S
C1058 C1059 1.400 . S
C1059 C1058 1.400 . S
C1059 C1060 1.398 . S
C1059 C1065 1.491 . S
C1060 H1051 0.950 . S
C1060 C1059 1.398 . S
C1060 C1061 1.391 . S
C1061 H1049 0.950 . S
C1061 C1057 1.393 . S
C1061 C1060 1.391 . S
C1062 H1052 0.950 . S
C1062 C1063 1.386 . S
C1062 C1064 1.391 . S
C1063 C1062 1.386 . S
C1063 C1067 1.393 . S
C1064 H1053 0.950 . S
C1064 C1062 1.391 . S
C1064 C1065 1.400 . S
C1065 C1059 1.491 . S
C1065 C1064 1.400 . S
C1065 C1066 1.398 . S
C1066 H1054 0.950 . S
C1066 C1065 1.398 . S
C1066 C1067 1.391 . S
C1067 H1055 0.950 . S
C1067 C1063 1.393 . S
C1067 C1066 1.391 . S
H1068 C1076 0.950 . S
H1069 C1081 0.950 . S
H1070 C1078 0.950 . S
H1071 C1080 0.950 . S
H1072 C1082 0.950 . S
H1073 C1084 0.950 . S
H1074 C1086 0.950 . S
H1075 C1087 0.950 . S
C1076 H1068 0.950 . S
C1076 C1077 1.386 . S
C1076 C1078 1.391 . S
C1077 C1076 1.386 . S
C1077 C1081 1.393 . S
C1078 H1070 0.950 . S
C1078 C1076 1.391 . S
C1078 C1079 1.400 . S
C1079 C1078 1.400 . S
C1079 C1080 1.398 . S
C1079 C1085 1.491 1_655 S
C1080 H1071 0.950 . S
C1080 C1079 1.398 . S
C1080 C1081 1.391 . S
C1081 H1069 0.950 . S
C1081 C1077 1.393 . S
C1081 C1080 1.391 . S
C1082 H1072 0.950 . S
C1082 C1083 1.386 . S
C1082 C1084 1.391 . S
C1083 C1082 1.386 . S
C1083 C1087 1.393 . S
C1084 H1073 0.950 . S
C1084 C1082 1.391 . S
C1084 C1085 1.400 . S
C1085 C1079 1.491 1_455 S
C1085 C1084 1.400 . S
C1085 C1086 1.398 . S
C1086 H1074 0.950 . S
C1086 C1085 1.398 . S
C1086 C1087 1.391 . S
C1087 H1075 0.950 . S
C1087 C1083 1.393 . S
C1087 C1086 1.391 . S
H1088 C1096 0.950 . S
H1089 C1101 0.950 . S
H1090 C1098 0.950 . S
H1091 C1100 0.902 1_554 S
H1092 C1102 0.950 . S
H1093 C1104 0.950 . S
H1094 C1106 0.902 1_556 S
H1095 C1107 0.950 . S
C1096 H1088 0.950 . S
C1096 C1097 1.386 . S
C1096 C1098 1.391 . S
C1097 C1096 1.386 . S
C1097 C1101 1.393 . S
C1098 H1090 0.950 . S
C1098 C1096 1.391 . S
C1098 C1099 1.400 . S
C1099 C1098 1.400 . S
C1099 C1100 1.415 . S
C1099 C1105 1.491 1_556 S
C1100 H1091 0.902 1_556 S
C1100 C1099 1.415 . S
C1100 C1101 1.425 . S
C1101 H1089 0.950 . S
C1101 C1097 1.393 . S
C1101 C1100 1.425 . S
C1102 H1092 0.950 . S
C1102 C1103 1.386 . S
C1102 C1104 1.391 . S
C1103 C1102 1.386 . S
C1103 C1107 1.393 . S
C1104 H1093 0.950 . S
C1104 C1102 1.391 . S
C1104 C1105 1.400 . S
C1105 C1099 1.491 1_554 S
C1105 C1104 1.400 . S
C1105 C1106 1.415 . S
C1106 H1094 0.902 1_554 S
C1106 C1105 1.415 . S
C1106 C1107 1.425 . S
C1107 H1095 0.950 . S
C1107 C1103 1.393 . S
C1107 C1106 1.425 . S
H1108 C1116 0.950 . S
H1109 C1121 0.950 . S
H1110 C1118 0.950 . S
H1111 C1120 0.950 . S
H1112 C1122 0.950 . S
H1113 C1124 0.950 . S
H1114 C1126 0.950 . S
H1115 C1127 0.950 . S
C1116 H1108 0.950 . S
C1116 C1117 1.386 . S
C1116 C1118 1.391 . S
C1117 C1116 1.386 . S
C1117 C1121 1.393 . S
C1118 H1110 0.950 . S
C1118 C1116 1.391 . S
C1118 C1119 1.400 . S
C1119 C1118 1.400 . S
C1119 C1120 1.398 . S
C1119 C1125 1.491 1_545 S
C1120 H1111 0.950 . S
C1120 C1119 1.398 . S
C1120 C1121 1.391 . S
C1121 H1109 0.950 . S
C1121 C1117 1.393 . S
C1121 C1120 1.391 . S
C1122 H1112 0.950 . S
C1122 C1123 1.386 . S
C1122 C1124 1.391 . S
C1123 C1122 1.386 . S
C1123 C1127 1.393 . S
C1124 H1113 0.950 . S
C1124 C1122 1.391 . S
C1124 C1125 1.400 . S
C1125 C1119 1.491 1_565 S
C1125 C1124 1.400 . S
C1125 C1126 1.398 . S
C1126 H1114 0.950 . S
C1126 C1125 1.398 . S
C1126 C1127 1.391 . S
C1127 H1115 0.950 . S
C1127 C1123 1.393 . S
C1127 C1126 1.391 . S
H1128 C1136 0.950 . S
H1129 C1141 0.950 . S
H1130 C1138 0.950 . S
H1131 C1140 0.950 . S
H1132 C1142 0.950 . S
H1133 C1144 0.950 . S
H1134 C1146 0.950 . S
H1135 C1147 0.950 . S
C1136 H1128 0.950 . S
C1136 C1137 1.386 . S
C1136 C1138 1.391 . S
C1137 C1136 1.386 . S
C1137 C1141 1.393 . S
C1138 H1130 0.950 . S
C1138 C1136 1.391 . S
C1138 C1139 1.400 . S
C1139 C1138 1.400 . S
C1139 C1140 1.398 . S
C1139 C1145 1.491 . S
C1140 H1131 0.950 . S
C1140 C1139 1.398 . S
C1140 C1141 1.391 . S
C1141 H1129 0.950 . S
C1141 C1137 1.393 . S
C1141 C1140 1.391 . S
C1142 H1132 0.950 . S
C1142 C1143 1.386 . S
C1142 C1144 1.391 . S
C1143 C1142 1.386 . S
C1143 C1147 1.393 . S
C1144 H1133 0.950 . S
C1144 C1142 1.391 . S
C1144 C1145 1.400 . S
C1145 C1139 1.491 . S
C1145 C1144 1.400 . S
C1145 C1146 1.398 . S
C1146 H1134 0.950 . S
C1146 C1145 1.398 . S
C1146 C1147 1.391 . S
C1147 H1135 0.950 . S
C1147 C1143 1.393 . S
C1147 C1146 1.391 . S
H1148 C1156 0.950 . S
H1149 C1161 0.950 . S
H1150 C1158 0.950 . S
H1151 C1160 0.950 . S
H1152 C1162 0.950 . S
H1153 C1164 0.950 . S
H1154 C1166 0.950 . S
H1155 C1167 0.950 . S
C1156 H1148 0.950 . S
C1156 C1157 1.386 . S
C1156 C1158 1.391 . S
C1157 C1156 1.386 . S
C1157 C1161 1.393 . S
C1158 H1150 0.950 . S
C1158 C1156 1.391 . S
C1158 C1159 1.400 . S
C1159 C1158 1.400 . S
C1159 C1160 1.398 . S
C1159 C1165 1.491 1_545 S
C1160 H1151 0.950 . S
C1160 C1159 1.398 . S
C1160 C1161 1.391 . S
C1161 H1149 0.950 . S
C1161 C1157 1.393 . S
C1161 C1160 1.391 . S
C1162 H1152 0.950 . S
C1162 C1163 1.386 . S
C1162 C1164 1.391 . S
C1163 C1162 1.386 . S
C1163 C1167 1.393 . S
C1164 H1153 0.950 . S
C1164 C1162 1.391 . S
C1164 C1165 1.400 . S
C1165 C1159 1.491 1_565 S
C1165 C1164 1.400 . S
C1165 C1166 1.398 . S
C1166 H1154 0.950 . S
C1166 C1165 1.398 . S
C1166 C1167 1.391 . S
C1167 H1155 0.950 . S
C1167 C1163 1.393 . S
C1167 C1166 1.391 . S
H1168 C1176 0.950 . S
H1169 C1181 0.950 . S
H1170 C1178 0.950 . S
H1171 C1180 0.966 . S
H1172 C1182 0.950 . S
H1173 C1184 0.950 . S
H1174 C1186 0.966 . S
H1175 C1187 0.950 . S
C1176 H1168 0.950 . S
C1176 C1177 1.386 . S
C1176 C1178 1.391 . S
C1177 C1176 1.386 . S
C1177 C1181 1.393 . S
C1178 H1170 0.950 . S
C1178 C1176 1.391 . S
C1178 C1179 1.400 . S
C1179 C1178 1.400 . S
C1179 C1180 1.392 1_554 S
C1179 C1185 1.491 1_554 S
C1180 H1171 0.966 . S
C1180 C1179 1.392 1_556 S
C1180 C1181 1.381 1_556 S
C1181 H1169 0.950 . S
C1181 C1177 1.393 . S
C1181 C1180 1.381 1_554 S
C1182 H1172 0.950 . S
C1182 C1183 1.386 . S
C1182 C1184 1.391 . S
C1183 C1182 1.386 . S
C1183 C1187 1.393 . S
C1184 H1173 0.950 . S
C1184 C1182 1.391 . S
C1184 C1185 1.400 . S
C1185 C1179 1.491 1_556 S
C1185 C1184 1.400 . S
C1185 C1186 1.392 1_556 S
C1186 H1174 0.966 . S
C1186 C1185 1.392 1_554 S
C1186 C1187 1.381 1_554 S
C1187 H1175 0.950 . S
C1187 C1183 1.393 . S
C1187 C1186 1.381 1_556 S
H1188 C1196 0.950 . S
H1189 C1201 0.950 . S
H1190 C1198 0.950 . S
H1191 C1200 0.950 . S
H1192 C1202 0.950 . S
H1193 C1204 0.950 . S
H1194 C1206 0.950 . S
H1195 C1207 0.950 . S
C1196 H1188 0.950 . S
C1196 C1197 1.386 . S
C1196 C1198 1.391 . S
C1197 C1196 1.386 . S
C1197 C1201 1.393 . S
C1198 H1190 0.950 . S
C1198 C1196 1.391 . S
C1198 C1199 1.400 . S
C1199 C1198 1.400 . S
C1199 C1200 1.398 . S
C1199 C1205 1.491 1_565 S
C1200 H1191 0.950 . S
C1200 C1199 1.398 . S
C1200 C1201 1.391 . S
C1201 H1189 0.950 . S
C1201 C1197 1.393 . S
C1201 C1200 1.391 . S
C1202 H1192 0.950 . S
C1202 C1203 1.386 . S
C1202 C1204 1.391 . S
C1203 C1202 1.386 . S
C1203 C1207 1.393 . S
C1204 H1193 0.950 . S
C1204 C1202 1.391 . S
C1204 C1205 1.400 . S
C1205 C1199 1.491 1_545 S
C1205 C1204 1.400 . S
C1205 C1206 1.398 . S
C1206 H1194 0.950 . S
C1206 C1205 1.398 . S
C1206 C1207 1.391 . S
C1207 H1195 0.950 . S
C1207 C1203 1.393 . S
C1207 C1206 1.391 . S
H1208 C1216 0.950 . S
H1209 C1221 0.950 . S
H1210 C1218 0.950 . S
H1211 C1220 0.950 . S
H1212 C1222 0.950 . S
H1213 C1224 0.950 . S
H1214 C1226 0.950 . S
H1215 C1227 0.950 . S
C1216 H1208 0.950 . S
C1216 C1217 1.386 . S
C1216 C1218 1.391 . S
C1217 C1216 1.386 . S
C1217 C1221 1.393 . S
C1218 H1210 0.950 . S
C1218 C1216 1.391 . S
C1218 C1219 1.400 . S
C1219 C1218 1.400 . S
C1219 C1220 1.398 . S
C1219 C1225 1.491 . S
C1220 H1211 0.950 . S
C1220 C1219 1.398 . S
C1220 C1221 1.391 . S
C1221 H1209 0.950 . S
C1221 C1217 1.393 . S
C1221 C1220 1.391 . S
C1222 H1212 0.950 . S
C1222 C1223 1.386 . S
C1222 C1224 1.391 . S
C1223 C1222 1.386 . S
C1223 C1227 1.393 . S
C1224 H1213 0.950 . S
C1224 C1222 1.391 . S
C1224 C1225 1.400 . S
C1225 C1219 1.491 . S
C1225 C1224 1.400 . S
C1225 C1226 1.398 . S
C1226 H1214 0.950 . S
C1226 C1225 1.398 . S
C1226 C1227 1.391 . S
C1227 H1215 0.950 . S
C1227 C1223 1.393 . S
C1227 C1226 1.391 . S
H1228 C1236 0.950 . S
H1229 C1241 0.950 . S
H1230 C1238 0.950 . S
H1231 C1240 0.950 . S
H1232 C1242 0.950 . S
H1233 C1244 0.950 . S
H1234 C1246 0.950 . S
H1235 C1247 0.950 . S
C1236 H1228 0.950 . S
C1236 C1237 1.386 . S
C1236 C1238 1.391 . S
C1237 C1236 1.386 . S
C1237 C1241 1.393 . S
C1238 H1230 0.950 . S
C1238 C1236 1.391 . S
C1238 C1239 1.400 . S
C1239 C1238 1.400 . S
C1239 C1240 1.398 . S
C1239 C1245 1.491 1_545 S
C1240 H1231 0.950 . S
C1240 C1239 1.398 . S
C1240 C1241 1.391 . S
C1241 H1229 0.950 . S
C1241 C1237 1.393 . S
C1241 C1240 1.391 . S
C1242 H1232 0.950 . S
C1242 C1243 1.386 . S
C1242 C1244 1.391 . S
C1243 C1242 1.386 . S
C1243 C1247 1.393 . S
C1244 H1233 0.950 . S
C1244 C1242 1.391 . S
C1244 C1245 1.400 . S
C1245 C1239 1.491 1_565 S
C1245 C1244 1.400 . S
C1245 C1246 1.398 . S
C1246 H1234 0.950 . S
C1246 C1245 1.398 . S
C1246 C1247 1.391 . S
C1247 H1235 0.950 . S
C1247 C1243 1.393 . S
C1247 C1246 1.391 . S
H1248 C1256 0.950 . S
H1249 C1261 0.950 . S
H1250 C1258 0.950 . S
H1251 C1260 0.950 . S
H1252 C1262 0.950 . S
H1253 C1264 0.950 . S
H1254 C1266 0.950 . S
H1255 C1267 0.950 . S
C1256 H1248 0.950 . S
C1256 C1257 1.386 . S
C1256 C1258 1.391 . S
C1257 C1256 1.386 . S
C1257 C1261 1.393 . S
C1258 H1250 0.950 . S
C1258 C1256 1.391 . S
C1258 C1259 1.400 . S
C1259 C1258 1.400 . S
C1259 C1260 1.398 . S
C1259 C1265 1.491 . S
C1260 H1251 0.950 . S
C1260 C1259 1.398 . S
C1260 C1261 1.391 . S
C1261 H1249 0.950 . S
C1261 C1257 1.393 . S
C1261 C1260 1.391 . S
C1262 H1252 0.950 . S
C1262 C1263 1.386 . S
C1262 C1264 1.391 . S
C1263 C1262 1.386 . S
C1263 C1267 1.393 . S
C1264 H1253 0.950 . S
C1264 C1262 1.391 . S
C1264 C1265 1.400 . S
C1265 C1259 1.491 . S
C1265 C1264 1.400 . S
C1265 C1266 1.398 . S
C1266 H1254 0.950 . S
C1266 C1265 1.398 . S
C1266 C1267 1.391 . S
C1267 H1255 0.950 . S
C1267 C1263 1.393 . S
C1267 C1266 1.391 . S
H1268 C1276 0.950 . S
H1269 C1281 0.950 . S
H1270 C1278 0.950 . S
H1271 C1280 0.950 . S
H1272 C1282 0.950 . S
H1273 C1284 0.950 . S
H1274 C1286 0.950 . S
H1275 C1287 0.950 . S
C1276 H1268 0.950 . S
C1276 C1277 1.386 . S
C1276 C1278 1.391 . S
C1277 C1276 1.386 . S
C1277 C1281 1.393 . S
C1278 H1270 0.950 . S
C1278 C1276 1.391 . S
C1278 C1279 1.400 . S
C1279 C1278 1.400 . S
C1279 C1280 1.398 . S
C1279 C1285 1.491 . S
C1280 H1271 0.950 . S
C1280 C1279 1.398 . S
C1280 C1281 1.391 . S
C1281 H1269 0.950 . S
C1281 C1277 1.393 . S
C1281 C1280 1.391 . S
C1282 H1272 0.950 . S
C1282 C1283 1.386 . S
C1282 C1284 1.391 . S
C1283 C1282 1.386 . S
C1283 C1287 1.393 . S
C1284 H1273 0.950 . S
C1284 C1282 1.391 . S
C1284 C1285 1.400 . S
C1285 C1279 1.491 . S
C1285 C1284 1.400 . S
C1285 C1286 1.398 . S
C1286 H1274 0.950 . S
C1286 C1285 1.398 . S
C1286 C1287 1.391 . S
C1287 H1275 0.950 . S
C1287 C1283 1.393 . S
C1287 C1286 1.391 . S
H1288 C1296 0.950 1_556 S
H1289 C1301 0.950 . S
H1290 C1298 0.950 . S
H1291 C1300 0.950 . S
H1292 C1302 0.950 1_554 S
H1293 C1304 0.950 . S
H1294 C1306 0.950 . S
H1295 C1307 0.950 . S
C1296 H1288 0.950 1_554 S
C1296 C1297 1.386 . S
C1296 C1298 1.391 1_554 S
C1297 C1296 1.386 . S
C1297 C1301 1.393 . S
C1298 H1290 0.950 . S
C1298 C1296 1.391 1_556 S
C1298 C1299 1.400 1_556 S
C1299 C1298 1.400 1_554 S
C1299 C1300 1.398 . S
C1299 C1305 1.491 1_554 S
C1300 H1291 0.950 . S
C1300 C1299 1.398 . S
C1300 C1301 1.391 . S
C1301 H1289 0.950 . S
C1301 C1297 1.393 . S
C1301 C1300 1.391 . S
C1302 H1292 0.950 1_556 S
C1302 C1303 1.386 . S
C1302 C1304 1.391 1_556 S
C1303 C1302 1.386 . S
C1303 C1307 1.393 . S
C1304 H1293 0.950 . S
C1304 C1302 1.391 1_554 S
C1304 C1305 1.400 1_554 S
C1305 C1299 1.491 1_556 S
C1305 C1304 1.400 1_556 S
C1305 C1306 1.398 . S
C1306 H1294 0.950 . S
C1306 C1305 1.398 . S
C1306 C1307 1.391 . S
C1307 H1295 0.950 . S
C1307 C1303 1.393 . S
C1307 C1306 1.391 . S
H1308 C1316 0.950 . S
H1309 C1321 0.950 . S
H1310 C1318 0.950 . S
H1311 C1320 0.950 . S
H1312 C1322 0.950 . S
H1313 C1324 0.950 . S
H1314 C1326 0.950 . S
H1315 C1327 0.950 . S
C1316 H1308 0.950 . S
C1316 C1317 1.386 . S
C1316 C1318 1.391 . S
C1317 C1316 1.386 . S
C1317 C1321 1.393 . S
C1318 H1310 0.950 . S
C1318 C1316 1.391 . S
C1318 C1319 1.400 . S
C1319 C1318 1.400 . S
C1319 C1320 1.398 . S
C1319 C1325 1.491 . S
C1320 H1311 0.950 . S
C1320 C1319 1.398 . S
C1320 C1321 1.391 . S
C1321 H1309 0.950 . S
C1321 C1317 1.393 . S
C1321 C1320 1.391 . S
C1322 H1312 0.950 . S
C1322 C1323 1.386 . S
C1322 C1324 1.391 . S
C1323 C1322 1.386 . S
C1323 C1327 1.393 . S
C1324 H1313 0.950 . S
C1324 C1322 1.391 . S
C1324 C1325 1.400 . S
C1325 C1319 1.491 . S
C1325 C1324 1.400 . S
C1325 C1326 1.398 . S
C1326 H1314 0.950 . S
C1326 C1325 1.398 . S
C1326 C1327 1.391 . S
C1327 H1315 0.950 . S
C1327 C1323 1.393 . S
C1327 C1326 1.391 . S
H1328 C1336 0.950 . S
H1329 C1341 0.950 . S
H1330 C1338 0.950 . S
H1331 C1340 0.950 . S
H1332 C1342 0.950 . S
H1333 C1344 0.950 . S
H1334 C1346 0.950 . S
H1335 C1347 0.950 . S
C1336 H1328 0.950 . S
C1336 C1337 1.386 . S
C1336 C1338 1.391 . S
C1337 C1336 1.386 . S
C1337 C1341 1.393 . S
C1338 H1330 0.950 . S
C1338 C1336 1.391 . S
C1338 C1339 1.400 . S
C1339 C1338 1.400 . S
C1339 C1340 1.398 . S
C1339 C1345 1.491 . S
C1340 H1331 0.950 . S
C1340 C1339 1.398 . S
C1340 C1341 1.391 . S
C1341 H1329 0.950 . S
C1341 C1337 1.393 . S
C1341 C1340 1.391 . S
C1342 H1332 0.950 . S
C1342 C1343 1.386 . S
C1342 C1344 1.391 . S
C1343 C1342 1.386 . S
C1343 C1347 1.393 . S
C1344 H1333 0.950 . S
C1344 C1342 1.391 . S
C1344 C1345 1.400 . S
C1345 C1339 1.491 . S
C1345 C1344 1.400 . S
C1345 C1346 1.398 . S
C1346 H1334 0.950 . S
C1346 C1345 1.398 . S
C1346 C1347 1.391 . S
C1347 H1335 0.950 . S
C1347 C1343 1.393 . S
C1347 C1346 1.391 . S
H1348 C1356 0.950 . S
H1349 C1361 0.950 . S
H1350 C1358 0.950 . S
H1351 C1360 0.950 . S
H1352 C1362 0.950 . S
H1353 C1364 0.950 . S
H1354 C1366 0.950 . S
H1355 C1367 0.950 . S
C1356 H1348 0.950 . S
C1356 C1357 1.386 . S
C1356 C1358 1.391 . S
C1357 C1356 1.386 . S
C1357 C1361 1.393 . S
C1358 H1350 0.950 . S
C1358 C1356 1.391 . S
C1358 C1359 1.400 . S
C1359 C1358 1.400 . S
C1359 C1360 1.398 . S
C1359 C1365 1.491 . S
C1360 H1351 0.950 . S
C1360 C1359 1.398 . S
C1360 C1361 1.391 . S
C1361 H1349 0.950 . S
C1361 C1357 1.393 . S
C1361 C1360 1.391 . S
C1362 H1352 0.950 . S
C1362 C1363 1.386 . S
C1362 C1364 1.391 . S
C1363 C1362 1.386 . S
C1363 C1367 1.393 . S
C1364 H1353 0.950 . S
C1364 C1362 1.391 . S
C1364 C1365 1.400 . S
C1365 C1359 1.491 . S
C1365 C1364 1.400 . S
C1365 C1366 1.398 . S
C1366 H1354 0.950 . S
C1366 C1365 1.398 . S
C1366 C1367 1.391 . S
C1367 H1355 0.950 . S
C1367 C1363 1.393 . S
C1367 C1366 1.391 . S
H1368 C1376 0.950 1_554 S
H1369 C1381 0.950 . S
H1370 C1378 0.950 . S
H1371 C1380 0.950 . S
H1372 C1382 0.950 1_556 S
H1373 C1384 0.950 . S
H1374 C1386 0.950 . S
H1375 C1387 0.950 . S
C1376 H1368 0.950 1_556 S
C1376 C1377 1.386 . S
C1376 C1378 1.391 1_556 S
C1377 C1376 1.386 . S
C1377 C1381 1.393 . S
C1378 H1370 0.950 . S
C1378 C1376 1.391 1_554 S
C1378 C1379 1.400 1_554 S
C1379 C1378 1.400 1_556 S
C1379 C1380 1.398 . S
C1379 C1385 1.491 1_556 S
C1380 H1371 0.950 . S
C1380 C1379 1.398 . S
C1380 C1381 1.391 . S
C1381 H1369 0.950 . S
C1381 C1377 1.393 . S
C1381 C1380 1.391 . S
C1382 H1372 0.950 1_554 S
C1382 C1383 1.386 . S
C1382 C1384 1.391 1_554 S
C1383 C1382 1.386 . S
C1383 C1387 1.393 . S
C1384 H1373 0.950 . S
C1384 C1382 1.391 1_556 S
C1384 C1385 1.400 1_556 S
C1385 C1379 1.491 1_554 S
C1385 C1384 1.400 1_554 S
C1385 C1386 1.398 . S
C1386 H1374 0.950 . S
C1386 C1385 1.398 . S
C1386 C1387 1.391 . S
C1387 H1375 0.950 . S
C1387 C1383 1.393 . S
C1387 C1386 1.391 . S
H1388 C1396 0.950 . S
H1389 C1401 0.950 . S
H1390 C1398 0.950 . S
H1391 C1400 0.950 . S
H1392 C1402 0.950 . S
H1393 C1404 0.950 . S
H1394 C1406 0.950 . S
H1395 C1407 0.950 . S
C1396 H1388 0.950 . S
C1396 C1397 1.386 . S
C1396 C1398 1.391 . S
C1397 C1396 1.386 . S
C1397 C1401 1.393 . S
C1398 H1390 0.950 . S
C1398 C1396 1.391 . S
C1398 C1399 1.400 . S
C1399 C1398 1.400 . S
C1399 C1400 1.398 . S
C1399 C1405 1.491 . S
C1400 H1391 0.950 . S
C1400 C1399 1.398 . S
C1400 C1401 1.391 . S
C1401 H1389 0.950 . S
C1401 C1397 1.393 . S
C1401 C1400 1.391 . S
C1402 H1392 0.950 . S
C1402 C1403 1.386 . S
C1402 C1404 1.391 . S
C1403 C1402 1.386 . S
C1403 C1407 1.393 . S
C1404 H1393 0.950 . S
C1404 C1402 1.391 . S
C1404 C1405 1.400 . S
C1405 C1399 1.491 . S
C1405 C1404 1.400 . S
C1405 C1406 1.398 . S
C1406 H1394 0.950 . S
C1406 C1405 1.398 . S
C1406 C1407 1.391 . S
C1407 H1395 0.950 . S
C1407 C1403 1.393 . S
C1407 C1406 1.391 . S
H1408 C1416 0.950 . S
H1409 C1421 0.950 . S
H1410 C1418 0.950 . S
H1411 C1420 0.950 . S
H1412 C1422 0.950 . S
H1413 C1424 0.950 . S
H1414 C1426 0.950 . S
H1415 C1427 0.950 . S
C1416 H1408 0.950 . S
C1416 C1417 1.386 . S
C1416 C1418 1.391 . S
C1417 C1416 1.386 . S
C1417 C1421 1.393 . S
C1418 H1410 0.950 . S
C1418 C1416 1.391 . S
C1418 C1419 1.400 . S
C1419 C1418 1.400 . S
C1419 C1420 1.398 . S
C1419 C1425 1.491 . S
C1420 H1411 0.950 . S
C1420 C1419 1.398 . S
C1420 C1421 1.391 . S
C1421 H1409 0.950 . S
C1421 C1417 1.393 . S
C1421 C1420 1.391 . S
C1422 H1412 0.950 . S
C1422 C1423 1.386 . S
C1422 C1424 1.391 . S
C1423 C1422 1.386 . S
C1423 C1427 1.393 . S
C1424 H1413 0.950 . S
C1424 C1422 1.391 . S
C1424 C1425 1.400 . S
C1425 C1419 1.491 . S
C1425 C1424 1.400 . S
C1425 C1426 1.398 . S
C1426 H1414 0.950 . S
C1426 C1425 1.398 . S
C1426 C1427 1.391 . S
C1427 H1415 0.950 . S
C1427 C1423 1.393 . S
C1427 C1426 1.391 . S
H1428 C1436 0.950 . S
H1429 C1441 0.950 . S
H1430 C1438 0.950 . S
H1431 C1440 0.950 . S
H1432 C1442 0.950 . S
H1433 C1444 0.950 . S
H1434 C1446 0.950 . S
H1435 C1447 0.950 . S
C1436 H1428 0.950 . S
C1436 C1437 1.386 . S
C1436 C1438 1.391 . S
C1437 C1436 1.386 . S
C1437 C1441 1.393 . S
C1438 H1430 0.950 . S
C1438 C1436 1.391 . S
C1438 C1439 1.400 . S
C1439 C1438 1.400 . S
C1439 C1440 1.398 . S
C1439 C1445 1.491 . S
C1440 H1431 0.950 . S
C1440 C1439 1.398 . S
C1440 C1441 1.391 . S
C1441 H1429 0.950 . S
C1441 C1437 1.393 . S
C1441 C1440 1.391 . S
C1442 H1432 0.950 . S
C1442 C1443 1.386 . S
C1442 C1444 1.391 . S
C1443 C1442 1.386 . S
C1443 C1447 1.393 . S
C1444 H1433 0.950 . S
C1444 C1442 1.391 . S
C1444 C1445 1.400 . S
C1445 C1439 1.491 . S
C1445 C1444 1.400 . S
C1445 C1446 1.398 . S
C1446 H1434 0.950 . S
C1446 C1445 1.398 . S
C1446 C1447 1.391 . S
C1447 H1435 0.950 . S
C1447 C1443 1.393 . S
C1447 C1446 1.391 . S
H1448 C1456 0.950 . S
H1449 C1461 0.950 . S
H1450 C1458 0.950 . S
H1451 C1460 0.950 . S
H1452 C1462 0.950 . S
H1453 C1464 0.950 . S
H1454 C1466 0.950 . S
H1455 C1467 0.950 . S
C1456 H1448 0.950 . S
C1456 C1457 1.386 . S
C1456 C1458 1.391 . S
C1457 C1456 1.386 . S
C1457 C1461 1.393 . S
C1458 H1450 0.950 . S
C1458 C1456 1.391 . S
C1458 C1459 1.400 . S
C1459 C1458 1.400 . S
C1459 C1460 1.398 . S
C1459 C1465 1.491 . S
C1460 H1451 0.950 . S
C1460 C1459 1.398 . S
C1460 C1461 1.391 . S
C1461 H1449 0.950 . S
C1461 C1457 1.393 . S
C1461 C1460 1.391 . S
C1462 H1452 0.950 . S
C1462 C1463 1.386 . S
C1462 C1464 1.391 . S
C1463 C1462 1.386 . S
C1463 C1467 1.393 . S
C1464 H1453 0.950 . S
C1464 C1462 1.391 . S
C1464 C1465 1.400 . S
C1465 C1459 1.491 . S
C1465 C1464 1.400 . S
C1465 C1466 1.398 . S
C1466 H1454 0.950 . S
C1466 C1465 1.398 . S
C1466 C1467 1.391 . S
C1467 H1455 0.950 . S
C1467 C1463 1.393 . S
C1467 C1466 1.391 . S
H1468 C1476 0.950 . S
H1469 C1481 0.950 . S
H1470 C1478 0.950 . S
H1471 C1480 0.950 . S
H1472 C1482 0.950 . S
H1473 C1484 0.950 . S
H1474 C1486 0.950 . S
H1475 C1487 0.950 . S
C1476 H1468 0.950 . S
C1476 C1477 1.386 . S
C1476 C1478 1.391 . S
C1477 C1476 1.386 . S
C1477 C1481 1.393 . S
C1478 H1470 0.950 . S
C1478 C1476 1.391 . S
C1478 C1479 1.400 . S
C1479 C1478 1.400 . S
C1479 C1480 1.398 . S
C1479 C1485 1.491 . S
C1480 H1471 0.950 . S
C1480 C1479 1.398 . S
C1480 C1481 1.391 . S
C1481 H1469 0.950 . S
C1481 C1477 1.393 . S
C1481 C1480 1.391 . S
C1482 H1472 0.950 . S
C1482 C1483 1.386 . S
C1482 C1484 1.391 . S
C1483 C1482 1.386 . S
C1483 C1487 1.393 . S
C1484 H1473 0.950 . S
C1484 C1482 1.391 . S
C1484 C1485 1.400 . S
C1485 C1479 1.491 . S
C1485 C1484 1.400 . S
C1485 C1486 1.398 . S
C1486 H1474 0.950 . S
C1486 C1485 1.398 . S
C1486 C1487 1.391 . S
C1487 H1475 0.950 . S
C1487 C1483 1.393 . S
C1487 C1486 1.391 . S
H1488 C1496 0.950 . S
H1489 C1501 0.950 . S
H1490 C1498 0.950 . S
H1491 C1500 0.950 . S
H1492 C1502 0.950 . S
H1493 C1504 0.950 . S
H1494 C1506 0.950 . S
H1495 C1507 0.950 . S
C1496 H1488 0.950 . S
C1496 C1497 1.386 . S
C1496 C1498 1.391 . S
C1497 C1496 1.386 . S
C1497 C1501 1.393 . S
C1498 H1490 0.950 . S
C1498 C1496 1.391 . S
C1498 C1499 1.400 . S
C1499 C1498 1.400 . S
C1499 C1500 1.398 . S
C1499 C1505 1.491 . S
C1500 H1491 0.950 . S
C1500 C1499 1.398 . S
C1500 C1501 1.391 . S
C1501 H1489 0.950 . S
C1501 C1497 1.393 . S
C1501 C1500 1.391 . S
C1502 H1492 0.950 . S
C1502 C1503 1.386 . S
C1502 C1504 1.391 . S
C1503 C1502 1.386 . S
C1503 C1507 1.393 . S
C1504 H1493 0.950 . S
C1504 C1502 1.391 . S
C1504 C1505 1.400 . S
C1505 C1499 1.491 . S
C1505 C1504 1.400 . S
C1505 C1506 1.398 . S
C1506 H1494 0.950 . S
C1506 C1505 1.398 . S
C1506 C1507 1.391 . S
C1507 H1495 0.950 . S
C1507 C1503 1.393 . S
C1507 C1506 1.391 . S
H1508 C1516 0.950 . S
H1509 C1521 0.950 . S
H1510 C1518 0.950 . S
H1511 C1520 0.950 . S
H1512 C1522 0.950 . S
H1513 C1524 0.950 . S
H1514 C1526 0.950 . S
H1515 C1527 0.950 . S
C1516 H1508 0.950 . S
C1516 C1517 1.386 . S
C1516 C1518 1.391 . S
C1517 C1516 1.386 . S
C1517 C1521 1.393 . S
C1518 H1510 0.950 . S
C1518 C1516 1.391 . S
C1518 C1519 1.400 . S
C1519 C1518 1.400 . S
C1519 C1520 1.398 . S
C1519 C1525 1.491 . S
C1520 H1511 0.950 . S
C1520 C1519 1.398 . S
C1520 C1521 1.391 . S
C1521 H1509 0.950 . S
C1521 C1517 1.393 . S
C1521 C1520 1.391 . S
C1522 H1512 0.950 . S
C1522 C1523 1.386 . S
C1522 C1524 1.391 . S
C1523 C1522 1.386 . S
C1523 C1527 1.393 . S
C1524 H1513 0.950 . S
C1524 C1522 1.391 . S
C1524 C1525 1.400 . S
C1525 C1519 1.491 . S
C1525 C1524 1.400 . S
C1525 C1526 1.398 . S
C1526 H1514 0.950 . S
C1526 C1525 1.398 . S
C1526 C1527 1.391 . S
C1527 H1515 0.950 . S
C1527 C1523 1.393 . S
C1527 C1526 1.391 . S
H1528 C1536 0.950 . S
H1529 C1541 0.950 . S
H1530 C1538 0.950 . S
H1531 C1540 0.950 . S
H1532 C1542 0.950 . S
H1533 C1544 0.950 . S
H1534 C1546 0.950 . S
H1535 C1547 0.950 . S
C1536 H1528 0.950 . S
C1536 C1537 1.386 . S
C1536 C1538 1.391 . S
C1537 C1536 1.386 . S
C1537 C1541 1.393 . S
C1538 H1530 0.950 . S
C1538 C1536 1.391 . S
C1538 C1539 1.400 . S
C1539 C1538 1.400 . S
C1539 C1540 1.398 . S
C1539 C1545 1.491 . S
C1540 H1531 0.950 . S
C1540 C1539 1.398 . S
C1540 C1541 1.391 . S
C1541 H1529 0.950 . S
C1541 C1537 1.393 . S
C1541 C1540 1.391 . S
C1542 H1532 0.950 . S
C1542 C1543 1.386 . S
C1542 C1544 1.391 . S
C1543 C1542 1.386 . S
C1543 C1547 1.393 . S
C1544 H1533 0.950 . S
C1544 C1542 1.391 . S
C1544 C1545 1.400 . S
C1545 C1539 1.491 . S
C1545 C1544 1.400 . S
C1545 C1546 1.398 . S
C1546 H1534 0.950 . S
C1546 C1545 1.398 . S
C1546 C1547 1.391 . S
C1547 H1535 0.950 . S
C1547 C1543 1.393 . S
C1547 C1546 1.391 . S
H1548 C1556 0.950 . S
H1549 C1561 0.950 . S
H1550 C1558 0.950 . S
H1551 C1560 0.950 . S
H1552 C1562 0.950 . S
H1553 C1564 0.950 . S
H1554 C1566 0.950 . S
H1555 C1567 0.950 . S
C1556 H1548 0.950 . S
C1556 C1557 1.386 . S
C1556 C1558 1.391 . S
C1557 C1556 1.386 . S
C1557 C1561 1.393 . S
C1558 H1550 0.950 . S
C1558 C1556 1.391 . S
C1558 C1559 1.400 . S
C1559 C1558 1.400 . S
C1559 C1560 1.398 . S
C1559 C1565 1.491 . S
C1560 H1551 0.950 . S
C1560 C1559 1.398 . S
C1560 C1561 1.391 . S
C1561 H1549 0.950 . S
C1561 C1557 1.393 . S
C1561 C1560 1.391 . S
C1562 H1552 0.950 . S
C1562 C1563 1.386 . S
C1562 C1564 1.391 . S
C1563 C1562 1.386 . S
C1563 C1567 1.393 . S
C1564 H1553 0.950 . S
C1564 C1562 1.391 . S
C1564 C1565 1.400 . S
C1565 C1559 1.491 . S
C1565 C1564 1.400 . S
C1565 C1566 1.398 . S
C1566 H1554 0.950 . S
C1566 C1565 1.398 . S
C1566 C1567 1.391 . S
C1567 H1555 0.950 . S
C1567 C1563 1.393 . S
C1567 C1566 1.391 . S
H1568 C1576 0.950 . S
H1569 C1581 0.950 . S
H1570 C1578 0.950 . S
H1571 C1580 0.950 . S
H1572 C1582 0.950 . S
H1573 C1584 0.950 . S
H1574 C1586 0.950 . S
H1575 C1587 0.950 . S
C1576 H1568 0.950 . S
C1576 C1577 1.386 . S
C1576 C1578 1.391 . S
C1577 C1576 1.386 . S
C1577 C1581 1.393 . S
C1578 H1570 0.950 . S
C1578 C1576 1.391 . S
C1578 C1579 1.400 . S
C1579 C1578 1.400 . S
C1579 C1580 1.398 . S
C1579 C1585 1.491 . S
C1580 H1571 0.950 . S
C1580 C1579 1.398 . S
C1580 C1581 1.391 . S
C1581 H1569 0.950 . S
C1581 C1577 1.393 . S
C1581 C1580 1.391 . S
C1582 H1572 0.950 . S
C1582 C1583 1.386 . S
C1582 C1584 1.391 . S
C1583 C1582 1.386 . S
C1583 C1587 1.393 . S
C1584 H1573 0.950 . S
C1584 C1582 1.391 . S
C1584 C1585 1.400 . S
C1585 C1579 1.491 . S
C1585 C1584 1.400 . S
C1585 C1586 1.398 . S
C1586 H1574 0.950 . S
C1586 C1585 1.398 . S
C1586 C1587 1.391 . S
C1587 H1575 0.950 . S
C1587 C1583 1.393 . S
C1587 C1586 1.391 . S
H1588 C1596 0.950 . S
H1589 C1601 0.950 . S
H1590 C1598 0.950 . S
H1591 C1600 0.950 . S
H1592 C1602 0.950 . S
H1593 C1604 0.950 . S
H1594 C1606 0.950 . S
H1595 C1607 0.950 . S
C1596 H1588 0.950 . S
C1596 C1597 1.386 . S
C1596 C1598 1.391 . S
C1597 C1596 1.386 . S
C1597 C1601 1.393 . S
C1598 H1590 0.950 . S
C1598 C1596 1.391 . S
C1598 C1599 1.400 . S
C1599 C1598 1.400 . S
C1599 C1600 1.398 . S
C1599 C1605 1.491 . S
C1600 H1591 0.950 . S
C1600 C1599 1.398 . S
C1600 C1601 1.391 . S
C1601 H1589 0.950 . S
C1601 C1597 1.393 . S
C1601 C1600 1.391 . S
C1602 H1592 0.950 . S
C1602 C1603 1.386 . S
C1602 C1604 1.391 . S
C1603 C1602 1.386 . S
C1603 C1607 1.393 . S
C1604 H1593 0.950 . S
C1604 C1602 1.391 . S
C1604 C1605 1.400 . S
C1605 C1599 1.491 . S
C1605 C1604 1.400 . S
C1605 C1606 1.398 . S
C1606 H1594 0.950 . S
C1606 C1605 1.398 . S
C1606 C1607 1.391 . S
C1607 H1595 0.950 . S
C1607 C1603 1.393 . S
C1607 C1606 1.391 . S
H1608 C1616 0.950 . S
H1609 C1621 0.950 . S
H1610 C1618 0.950 . S
H1611 C1620 0.950 . S
H1612 C1622 0.950 . S
H1613 C1624 0.950 . S
H1614 C1626 0.950 . S
H1615 C1627 0.950 . S
C1616 H1608 0.950 . S
C1616 C1617 1.386 . S
C1616 C1618 1.391 . S
C1617 C1616 1.386 . S
C1617 C1621 1.393 . S
C1618 H1610 0.950 . S
C1618 C1616 1.391 . S
C1618 C1619 1.400 . S
C1619 C1618 1.400 . S
C1619 C1620 1.398 . S
C1619 C1625 1.491 . S
C1620 H1611 0.950 . S
C1620 C1619 1.398 . S
C1620 C1621 1.391 . S
C1621 H1609 0.950 . S
C1621 C1617 1.393 . S
C1621 C1620 1.391 . S
C1622 H1612 0.950 . S
C1622 C1623 1.386 . S
C1622 C1624 1.391 . S
C1623 C1622 1.386 . S
C1623 C1627 1.393 . S
C1624 H1613 0.950 . S
C1624 C1622 1.391 . S
C1624 C1625 1.400 . S
C1625 C1619 1.491 . S
C1625 C1624 1.400 . S
C1625 C1626 1.398 . S
C1626 H1614 0.950 . S
C1626 C1625 1.398 . S
C1626 C1627 1.391 . S
C1627 H1615 0.950 . S
C1627 C1623 1.393 . S
C1627 C1626 1.391 . S
H1628 C1636 0.950 . S
H1629 C1641 0.950 . S
H1630 C1638 0.950 . S
H1631 C1640 0.950 . S
H1632 C1642 0.950 . S
H1633 C1644 0.950 . S
H1634 C1646 0.950 . S
H1635 C1647 0.950 . S
C1636 H1628 0.950 . S
C1636 C1637 1.386 . S
C1636 C1638 1.391 . S
C1637 C1636 1.386 . S
C1637 C1641 1.393 . S
C1638 H1630 0.950 . S
C1638 C1636 1.391 . S
C1638 C1639 1.400 . S
C1639 C1638 1.400 . S
C1639 C1640 1.398 . S
C1639 C1645 1.491 . S
C1640 H1631 0.950 . S
C1640 C1639 1.398 . S
C1640 C1641 1.391 . S
C1641 H1629 0.950 . S
C1641 C1637 1.393 . S
C1641 C1640 1.391 . S
C1642 H1632 0.950 . S
C1642 C1643 1.386 . S
C1642 C1644 1.391 . S
C1643 C1642 1.386 . S
C1643 C1647 1.393 . S
C1644 H1633 0.950 . S
C1644 C1642 1.391 . S
C1644 C1645 1.400 . S
C1645 C1639 1.491 . S
C1645 C1644 1.400 . S
C1645 C1646 1.398 . S
C1646 H1634 0.950 . S
C1646 C1645 1.398 . S
C1646 C1647 1.391 . S
C1647 H1635 0.950 . S
C1647 C1643 1.393 . S
C1647 C1646 1.391 . S
H1648 C1656 0.950 . S
H1649 C1661 0.950 . S
H1650 C1658 0.950 . S
H1651 C1660 0.950 . S
H1652 C1662 0.950 . S
H1653 C1664 0.950 . S
H1654 C1666 0.950 . S
H1655 C1667 0.950 . S
C1656 H1648 0.950 . S
C1656 C1657 1.386 . S
C1656 C1658 1.391 . S
C1657 C1656 1.386 . S
C1657 C1661 1.393 . S
C1658 H1650 0.950 . S
C1658 C1656 1.391 . S
C1658 C1659 1.400 . S
C1659 C1658 1.400 . S
C1659 C1660 1.398 . S
C1659 C1665 1.491 . S
C1660 H1651 0.950 . S
C1660 C1659 1.398 . S
C1660 C1661 1.391 . S
C1661 H1649 0.950 . S
C1661 C1657 1.393 . S
C1661 C1660 1.391 . S
C1662 H1652 0.950 . S
C1662 C1663 1.386 . S
C1662 C1664 1.391 . S
C1663 C1662 1.386 . S
C1663 C1667 1.393 . S
C1664 H1653 0.950 . S
C1664 C1662 1.391 . S
C1664 C1665 1.400 . S
C1665 C1659 1.491 . S
C1665 C1664 1.400 . S
C1665 C1666 1.398 . S
C1666 H1654 0.950 . S
C1666 C1665 1.398 . S
C1666 C1667 1.391 . S
C1667 H1655 0.950 . S
C1667 C1663 1.393 . S
C1667 C1666 1.391 . S
H1668 C1676 0.950 . S
H1669 C1681 0.950 . S
H1670 C1678 0.950 . S
H1671 C1680 0.950 . S
H1672 C1682 0.950 . S
H1673 C1684 0.950 . S
H1674 C1686 0.950 . S
H1675 C1687 0.950 . S
C1676 H1668 0.950 . S
C1676 C1677 1.386 . S
C1676 C1678 1.391 . S
C1677 C1676 1.386 . S
C1677 C1681 1.393 . S
C1678 H1670 0.950 . S
C1678 C1676 1.391 . S
C1678 C1679 1.400 . S
C1679 C1678 1.400 . S
C1679 C1680 1.398 . S
C1679 C1685 1.491 . S
C1680 H1671 0.950 . S
C1680 C1679 1.398 . S
C1680 C1681 1.391 . S
C1681 H1669 0.950 . S
C1681 C1677 1.393 . S
C1681 C1680 1.391 . S
C1682 H1672 0.950 . S
C1682 C1683 1.386 . S
C1682 C1684 1.391 . S
C1683 C1682 1.386 . S
C1683 C1687 1.393 . S
C1684 H1673 0.950 . S
C1684 C1682 1.391 . S
C1684 C1685 1.400 . S
C1685 C1679 1.491 . S
C1685 C1684 1.400 . S
C1685 C1686 1.398 . S
C1686 H1674 0.950 . S
C1686 C1685 1.398 . S
C1686 C1687 1.391 . S
C1687 H1675 0.950 . S
C1687 C1683 1.393 . S
C1687 C1686 1.391 . S
H1688 C1696 0.950 . S
H1689 C1701 0.950 . S
H1690 C1698 0.950 . S
H1691 C1700 0.950 . S
H1692 C1702 0.950 . S
H1693 C1704 0.950 . S
H1694 C1706 0.950 . S
H1695 C1707 0.950 . S
C1696 H1688 0.950 . S
C1696 C1697 1.386 . S
C1696 C1698 1.391 . S
C1697 C1696 1.386 . S
C1697 C1701 1.393 . S
C1698 H1690 0.950 . S
C1698 C1696 1.391 . S
C1698 C1699 1.400 . S
C1699 C1698 1.400 . S
C1699 C1700 1.398 . S
C1699 C1705 1.491 . S
C1700 H1691 0.950 . S
C1700 C1699 1.398 . S
C1700 C1701 1.391 . S
C1701 H1689 0.950 . S
C1701 C1697 1.393 . S
C1701 C1700 1.391 . S
C1702 H1692 0.950 . S
C1702 C1703 1.386 . S
C1702 C1704 1.391 . S
C1703 C1702 1.386 . S
C1703 C1707 1.393 . S
C1704 H1693 0.950 . S
C1704 C1702 1.391 . S
C1704 C1705 1.400 . S
C1705 C1699 1.491 . S
C1705 C1704 1.400 . S
C1705 C1706 1.398 . S
C1706 H1694 0.950 . S
C1706 C1705 1.398 . S
C1706 C1707 1.391 . S
C1707 H1695 0.950 . S
C1707 C1703 1.393 . S
C1707 C1706 1.391 . S
H1708 C1716 0.950 . S
H1709 C1721 0.950 . S
H1710 C1718 0.950 . S
H1711 C1720 0.950 . S
H1712 C1722 0.950 . S
H1713 C1724 0.950 . S
H1714 C1726 0.950 . S
H1715 C1727 0.950 . S
C1716 H1708 0.950 . S
C1716 C1717 1.386 . S
C1716 C1718 1.391 . S
C1717 C1716 1.386 . S
C1717 C1721 1.393 . S
C1718 H1710 0.950 . S
C1718 C1716 1.391 . S
C1718 C1719 1.400 . S
C1719 C1718 1.400 . S
C1719 C1720 1.398 . S
C1719 C1725 1.491 . S
C1720 H1711 0.950 . S
C1720 C1719 1.398 . S
C1720 C1721 1.391 . S
C1721 H1709 0.950 . S
C1721 C1717 1.393 . S
C1721 C1720 1.391 . S
C1722 H1712 0.950 . S
C1722 C1723 1.386 . S
C1722 C1724 1.391 . S
C1723 C1722 1.386 . S
C1723 C1727 1.393 . S
C1724 H1713 0.950 . S
C1724 C1722 1.391 . S
C1724 C1725 1.400 . S
C1725 C1719 1.491 . S
C1725 C1724 1.400 . S
C1725 C1726 1.398 . S
C1726 H1714 0.950 . S
C1726 C1725 1.398 . S
C1726 C1727 1.391 . S
C1727 H1715 0.950 . S
C1727 C1723 1.393 . S
C1727 C1726 1.391 . S
C457 C119 1.495 . S
C463 C7 1.495 . S
C477 C357 1.495 . S
C483 C21 1.495 . S
C497 C147 1.516 . S
C503 C35 1.516 . S
C517 C385 1.494 . S
C523 C49 1.494 . S
C537 C175 1.494 . S
C543 C63 1.494 . S
C557 C77 1.509 . S
C563 C413 1.509 . S
C577 C91 1.510 . S
C583 C203 1.510 . S
C597 C105 1.511 . S
C603 C441 1.511 . S
C617 C245 1.497 . S
C623 C133 1.497 . S
C637 C273 1.496 . S
C643 C161 1.496 . S
C657 C189 1.494 . S
C663 C301 1.494 . S
C677 C217 1.515 . S
C683 C329 1.515 . S
C697 C231 1.516 . S
C703 C343 1.516 . S
C717 C371 1.513 . S
C723 C259 1.513 . S
C737 C287 1.500 . S
C743 C399 1.500 . S
C757 C427 1.495 . S
C763 C315 1.495 . S
C777 C261 1.592 . S
C783 C9 1.590 . S
C797 C275 1.585 . S
C803 C23 1.594 . S
C817 C37 1.585 . S
C823 C233 1.594 . S
C837 C51 1.595 . S
C843 C247 1.586 . S
C857 C317 1.585 . S
C863 C65 1.594 . S
C877 C79 1.591 . S
C883 C331 1.590 . S
C897 C289 1.595 . S
C903 C93 1.585 . S
C917 C303 1.586 . S
C923 C107 1.594 . S
C937 C121 1.585 . S
C943 C373 1.595 . S
C957 C387 1.591 . S
C963 C135 1.590 . S
C977 C149 1.594 . S
C983 C345 1.586 . S
C997 C163 1.593 . S
C1003 C359 1.588 . S
C1017 C177 1.585 . S
C1023 C429 1.595 . S
C1037 C191 1.586 . S
C1043 C443 1.595 . S
C1057 C401 1.591 . S
C1063 C205 1.588 . S
C1077 C415 1.591 . S
C1083 C219 1.588 . S
C1097 C92 1.539 . S
C1103 C8 1.547 . S
C1117 C106 1.545 . S
C1123 C22 1.543 . S
C1137 C64 1.537 . S
C1143 C36 1.546 . S
C1157 C50 1.540 . S
C1163 C78 1.547 . S
C1177 C204 1.548 . S
C1183 C120 1.539 . S
C1197 C218 1.545 . S
C1203 C134 1.538 . S
C1217 C176 1.544 . S
C1223 C148 1.542 . S
C1237 C190 1.542 . S
C1243 C162 1.545 . S
C1257 C316 1.545 . S
C1263 C232 1.542 . S
C1277 C330 1.548 . S
C1283 C246 1.537 . S
C1297 C260 1.548 . S
C1303 C288 1.537 . S
C1317 C274 1.547 . S
C1323 C302 1.539 . S
C1337 C428 1.542 . S
C1343 C344 1.545 . S
C1357 C442 1.537 . S
C1363 C358 1.547 . S
C1377 C372 1.537 . S
C1383 C400 1.548 . S
C1397 C386 1.546 . S
C1403 C414 1.538 . S
C1417 C3 1.403 . S
C1423 C297 1.402 . S
C1437 C311 1.404 . S
C1443 C17 1.400 . S
C1457 C325 1.397 . S
C1463 C31 1.395 . S
C1477 C45 1.403 . S
C1483 C283 1.396 . S
C1497 C269 1.397 . S
C1503 C59 1.404 . S
C1517 C73 1.403 . S
C1523 C227 1.402 . S
C1537 C241 1.398 . S
C1543 C87 1.395 . S
C1557 C101 1.396 . S
C1563 C255 1.396 . S
C1577 C409 1.402 . S
C1583 C115 1.403 . S
C1597 C423 1.398 . S
C1603 C129 1.404 . S
C1617 C143 1.395 . S
C1623 C437 1.399 . S
C1637 C395 1.397 . S
C1643 C157 1.404 . S
C1657 C381 1.398 . S
C1663 C171 1.395 . S
C1677 C185 1.396 . S
C1683 C339 1.403 . S
C1697 C353 1.397 . S
C1703 C199 1.404 . S
C1717 C213 1.395 . S
C1723 C367 1.397 . S
