# Generated by pormake.
# Topology wkf, (6)-cn, num edge types: 1
# Building blocks:
#     Node 0, Type 0, BuildingBlock: KUMBUR_clean_sbu_1, # of connection points: 6
#     Node 1, Type 0, BuildingBlock: KUMBUR_clean_sbu_1, # of connection points: 6
#     Node 2, Type 0, BuildingBlock: KUMBUR_clean_sbu_1, # of connection points: 6
#     Node 3, Type 0, BuildingBlock: KUMBUR_clean_sbu_1, # of connection points: 6
#     Node 4, Type 0, BuildingBlock: KUMBUR_clean_sbu_1, # of connection points: 6
#     Node 5, Type 0, BuildingBlock: KUMBUR_clean_sbu_1, # of connection points: 6
#     Node 6, Type 0, BuildingBlock: KUMBUR_clean_sbu_1, # of connection points: 6
#     Node 7, Type 0, BuildingBlock: KUMBUR_clean_sbu_1, # of connection points: 6
#     Node 8, Type 0, BuildingBlock: KUMBUR_clean_sbu_1, # of connection points: 6
#     Node 9, Type 0, BuildingBlock: KUMBUR_clean_sbu_1, # of connection points: 6
#     Node 10, Type 0, BuildingBlock: KUMBUR_clean_sbu_1, # of connection points: 6
#     Node 11, Type 0, BuildingBlock: KUMBUR_clean_sbu_1, # of connection points: 6
#     Edge 12, Type (0, 0), BuildingBlock: ZUJKAS_clean_linker_0, # of connection points: 2
#     Edge 13, Type (0, 0), BuildingBlock: ZUJKAS_clean_linker_0, # of connection points: 2
#     Edge 14, Type (0, 0), BuildingBlock: ZUJKAS_clean_linker_0, # of connection points: 2
#     Edge 15, Type (0, 0), BuildingBlock: ZUJKAS_clean_linker_0, # of connection points: 2
#     Edge 16, Type (0, 0), BuildingBlock: ZUJKAS_clean_linker_0, # of connection points: 2
#     Edge 17, Type (0, 0), BuildingBlock: ZUJKAS_clean_linker_0, # of connection points: 2
#     Edge 18, Type (0, 0), BuildingBlock: ZUJKAS_clean_linker_0, # of connection points: 2
#     Edge 19, Type (0, 0), BuildingBlock: ZUJKAS_clean_linker_0, # of connection points: 2
#     Edge 20, Type (0, 0), BuildingBlock: ZUJKAS_clean_linker_0, # of connection points: 2
#     Edge 21, Type (0, 0), BuildingBlock: ZUJKAS_clean_linker_0, # of connection points: 2
#     Edge 22, Type (0, 0), BuildingBlock: ZUJKAS_clean_linker_0, # of connection points: 2
#     Edge 23, Type (0, 0), BuildingBlock: ZUJKAS_clean_linker_0, # of connection points: 2
#     Edge 24, Type (0, 0), BuildingBlock: ZUJKAS_clean_linker_0, # of connection points: 2
#     Edge 25, Type (0, 0), BuildingBlock: ZUJKAS_clean_linker_0, # of connection points: 2
#     Edge 26, Type (0, 0), BuildingBlock: ZUJKAS_clean_linker_0, # of connection points: 2
#     Edge 27, Type (0, 0), BuildingBlock: ZUJKAS_clean_linker_0, # of connection points: 2
#     Edge 28, Type (0, 0), BuildingBlock: ZUJKAS_clean_linker_0, # of connection points: 2
#     Edge 29, Type (0, 0), BuildingBlock: ZUJKAS_clean_linker_0, # of connection points: 2
#     Edge 30, Type (0, 0), BuildingBlock: ZUJKAS_clean_linker_0, # of connection points: 2
#     Edge 31, Type (0, 0), BuildingBlock: ZUJKAS_clean_linker_0, # of connection points: 2
#     Edge 32, Type (0, 0), BuildingBlock: ZUJKAS_clean_linker_0, # of connection points: 2
#     Edge 33, Type (0, 0), BuildingBlock: ZUJKAS_clean_linker_0, # of connection points: 2
#     Edge 34, Type (0, 0), BuildingBlock: ZUJKAS_clean_linker_0, # of connection points: 2
#     Edge 35, Type (0, 0), BuildingBlock: ZUJKAS_clean_linker_0, # of connection points: 2
#     Edge 36, Type (0, 0), BuildingBlock: ZUJKAS_clean_linker_0, # of connection points: 2
#     Edge 37, Type (0, 0), BuildingBlock: ZUJKAS_clean_linker_0, # of connection points: 2
#     Edge 38, Type (0, 0), BuildingBlock: ZUJKAS_clean_linker_0, # of connection points: 2
#     Edge 39, Type (0, 0), BuildingBlock: ZUJKAS_clean_linker_0, # of connection points: 2
#     Edge 40, Type (0, 0), BuildingBlock: ZUJKAS_clean_linker_0, # of connection points: 2
#     Edge 41, Type (0, 0), BuildingBlock: ZUJKAS_clean_linker_0, # of connection points: 2
#     Edge 42, Type (0, 0), BuildingBlock: ZUJKAS_clean_linker_0, # of connection points: 2
#     Edge 43, Type (0, 0), BuildingBlock: ZUJKAS_clean_linker_0, # of connection points: 2
#     Edge 44, Type (0, 0), BuildingBlock: ZUJKAS_clean_linker_0, # of connection points: 2
#     Edge 45, Type (0, 0), BuildingBlock: ZUJKAS_clean_linker_0, # of connection points: 2
#     Edge 46, Type (0, 0), BuildingBlock: ZUJKAS_clean_linker_0, # of connection points: 2
#     Edge 47, Type (0, 0), BuildingBlock: ZUJKAS_clean_linker_0, # of connection points: 2
# Relax obj value: 0.193
# Max RMSD: 0.281
# Mean RMSD: 0.276
data_MOF--net-wkf--node1-KUMBUR_clean_sbu_1--edge1-ZUJKAS_clean_linker_0
_symmetry_space_group_name_H-M    P1
_symmetry_Int_Tables_number       1
_symmetry_cell_setting            triclinic
loop_
_symmetry_equiv_pos_as_xyz
'x, y, z'
_cell_length_a     37.897342
_cell_length_b     37.803383
_cell_length_c     107.65913
_cell_angle_alpha  90.023945
_cell_angle_beta   90.025633
_cell_angle_gamma 119.5928
loop_
_atom_site_label
_atom_site_type_symbol
_atom_site_fract_x
_atom_site_fract_y
_atom_site_fract_z
_atom_type_partial_charge
Tb0 Tb 0.41385 0.97227 0.35049 0.0
C1 C 0.56902 0.98417 0.37013 0.0
N2 N 0.53803 0.97372 0.37821 0.0
C3 C 0.55609 0.92918 0.38896 0.0
C4 C 0.59494 0.96739 0.37118 0.0
C5 C 0.53124 0.94656 0.38759 0.0
C6 C 0.58814 0.93967 0.38073 0.0
C7 C 0.60615 1.02212 0.35202 0.0
C8 C 0.57383 1.01065 0.36054 0.0
C9 C 0.63235 1.00597 0.35314 0.0
C10 C 0.62661 0.97848 0.36264 0.0
Tb11 Tb 0.50028 1.00525 0.37574 0.0
N12 N 0.54701 0.02483 0.3595 0.0
C13 C 0.61152 0.04967 0.34263 0.0
C14 C 0.55229 0.05129 0.35001 0.0
C15 C 0.58467 0.0645 0.34169 0.0
H16 H 0.50578 0.93718 0.3938 0.0
H17 H 0.58817 0.08542 0.33431 0.0
H18 H 0.49333 0.96099 0.33874 0.0
H19 H 0.35878 0.07386 0.33746 0.0
H20 H 0.53149 0.06184 0.34812 0.0
H21 H 0.63609 0.05943 0.336 0.0
H22 H 0.3614 1.02047 0.35011 0.0
H23 H 0.55028 0.90742 0.3963 0.0
H24 H 0.65711 1.01445 0.34665 0.0
H25 H 0.64684 0.96598 0.36332 0.0
H26 H 0.53909 0.98719 0.32144 0.0
H27 H 0.60724 0.92598 0.38178 0.0
H28 H 0.40753 0.10658 0.32026 0.0
N29 N 0.46612 0.99862 0.33606 0.0
C30 C 0.46591 0.02754 0.32843 0.0
C31 C 0.51873 0.99893 0.32333 0.0
C32 C 0.49341 0.04439 0.31843 0.0
C33 C 0.49182 0.98381 0.33334 0.0
C34 C 0.51996 0.02968 0.31595 0.0
N35 N 0.41108 0.02321 0.34006 0.0
C36 C 0.38263 0.03458 0.34257 0.0
C37 C 0.43732 0.07089 0.32313 0.0
C38 C 0.43764 0.04021 0.33049 0.0
C39 C 0.40868 0.08309 0.32572 0.0
C40 C 0.38109 0.0647 0.33543 0.0
H41 H 0.54129 0.04162 0.30831 0.0
H42 H 0.51426 0.08821 0.30338 0.0
H43 H 0.4656 0.11184 0.30764 0.0
O44 O 0.35113 0.94756 0.3459 0.0
O45 O 0.3955 0.99315 0.36747 0.0
O46 O 0.45191 1.01833 0.38082 0.0
O47 O 0.38787 0.93135 0.3354 0.0
O48 O 0.39138 0.93225 0.36716 0.0
O49 O 0.44299 0.95362 0.38211 0.0
O50 O 0.5488 0.0532 0.38563 0.0
O51 O 0.48447 0.94563 0.36766 0.0
O52 O 0.43829 0.92869 0.35146 0.0
O53 O 0.50422 1.00023 0.39493 0.0
O54 O 0.50431 0.06104 0.3675 0.0
O55 O 0.44845 0.04018 0.35447 0.0
C56 C 0.41555 1.01213 0.37777 0.0
C57 C 0.33065 0.92665 0.32456 0.0
C58 C 0.28297 0.89113 0.30716 0.0
C59 C 0.2943 0.92904 0.30182 0.0
C60 C 0.34118 0.96351 0.31859 0.0
C61 C 0.3231 0.96478 0.30747 0.0
C62 C 0.30114 0.88989 0.31867 0.0
C63 C 0.40547 0.92929 0.37821 0.0
C64 C 0.35179 0.92657 0.33645 0.0
C65 C 0.49316 0.07489 0.31103 0.0
C66 C 0.46536 0.08827 0.31342 0.0
C67 C 0.46309 0.92151 0.35848 0.0
C68 C 0.52852 0.06136 0.40586 0.0
C69 C 0.55721 0.1217 0.41903 0.0
C70 C 0.51938 0.10724 0.42484 0.0
C71 C 0.49086 0.0473 0.41184 0.0
C72 C 0.56145 0.09864 0.40948 0.0
C73 C 0.48648 0.07019 0.42126 0.0
C74 C 0.48117 0.06935 0.36018 0.0
C75 C 0.53429 0.03654 0.39633 0.0
H76 H 0.28107 0.93098 0.29309 0.0
H77 H 0.36382 0.99172 0.32229 0.0
H78 H 0.33189 0.99378 0.30312 0.0
H79 H 0.29287 0.86079 0.32287 0.0
H80 H 0.51541 0.12413 0.43232 0.0
H81 H 0.46489 1.01836 0.40939 0.0
H82 H 0.5904 0.10959 0.40485 0.0
H83 H 0.45768 0.05896 0.42595 0.0
Tb84 Tb 0.46901 0.4031 0.51764 0.0
C85 C 0.60858 0.54513 0.52747 0.0
N86 N 0.59543 0.52486 0.53833 0.0
C87 C 0.66407 0.54495 0.54407 0.0
C88 C 0.65003 0.56521 0.52423 0.0
C89 C 0.62256 0.52528 0.5468 0.0
C90 C 0.67783 0.56452 0.53265 0.0
C91 C 0.59344 0.57222 0.50925 0.0
C92 C 0.58054 0.54791 0.52007 0.0
C93 C 0.63402 0.58963 0.50539 0.0
C94 C 0.66239 0.58641 0.51294 0.0
Tb95 Tb 0.52688 0.48984 0.54183 0.0
N96 N 0.54216 0.53229 0.52455 0.0
C97 C 0.56631 0.58167 0.50338 0.0
C98 C 0.51967 0.54923 0.52031 0.0
C99 C 0.52984 0.57162 0.50926 0.0
H100 H 0.61203 0.50909 0.55548 0.0
H101 H 0.51052 0.5828 0.50566 0.0
H102 H 0.53307 0.48713 0.5009 0.0
H103 H 0.30561 0.30898 0.51578 0.0
H104 H 0.49496 0.54786 0.52559 0.0
H105 H 0.57487 0.60019 0.49506 0.0
H106 H 0.37325 0.33571 0.52526 0.0
H107 H 0.68532 0.54447 0.55069 0.0
H108 H 0.6443 0.60792 0.49703 0.0
H109 H 0.69403 0.60212 0.51024 0.0
H110 H 0.53034 0.51719 0.48109 0.0
H111 H 0.70995 0.57958 0.53053 0.0
H112 H 0.29842 0.33419 0.49527 0.0
N113 N 0.47089 0.44006 0.50044 0.0
C114 C 0.43532 0.42365 0.49393 0.0
C115 C 0.50344 0.49084 0.4846 0.0
C116 C 0.43255 0.44063 0.48256 0.0
C117 C 0.5048 0.47341 0.49591 0.0
C118 C 0.46732 0.47425 0.47785 0.0
N119 N 0.40415 0.37723 0.5105 0.0
C120 C 0.37048 0.3481 0.51651 0.0
C121 C 0.36267 0.3768 0.49344 0.0
C122 C 0.40071 0.39195 0.49929 0.0
C123 C 0.3282 0.34655 0.49946 0.0
C124 C 0.33211 0.33238 0.51107 0.0
H125 H 0.4664 0.48814 0.46915 0.0
H126 H 0.3923 0.437 0.46769 0.0
H127 H 0.33116 0.38126 0.47724 0.0
O128 O 0.4377 0.34508 0.50884 0.0
O129 O 0.43297 0.3897 0.53537 0.0
O130 O 0.46468 0.44828 0.54794 0.0
O131 O 0.50197 0.37898 0.50856 0.0
O132 O 0.47896 0.3786 0.53535 0.0
O133 O 0.52191 0.43234 0.54847 0.0
O134 O 0.54009 0.54368 0.55155 0.0
O135 O 0.56016 0.45948 0.53479 0.0
O136 O 0.53607 0.44271 0.51509 0.0
O137 O 0.54148 0.49456 0.56073 0.0
O138 O 0.46807 0.48546 0.53593 0.0
O139 O 0.45509 0.45401 0.51686 0.0
C140 C 0.43434 0.41156 0.54533 0.0
C141 C 0.46997 0.34055 0.49031 0.0
C142 C 0.45466 0.29652 0.47175 0.0
C143 C 0.47043 0.33144 0.46428 0.0
C144 C 0.48659 0.3745 0.4824 0.0
C145 C 0.48637 0.36995 0.46956 0.0
C146 C 0.45429 0.30112 0.4849 0.0
C147 C 0.50124 0.39307 0.54562 0.0
C148 C 0.47009 0.34736 0.50407 0.0
C149 C 0.39495 0.42447 0.47647 0.0
C150 C 0.36009 0.39276 0.48192 0.0
C151 C 0.56548 0.45215 0.52322 0.0
C152 C 0.52316 0.53355 0.57314 0.0
C153 C 0.48363 0.56016 0.58353 0.0
C154 C 0.4917 0.5473 0.59498 0.0
C155 C 0.53015 0.52076 0.58466 0.0
C156 C 0.49871 0.55185 0.57256 0.0
C157 C 0.51398 0.52707 0.59547 0.0
C158 C 0.44586 0.47254 0.52563 0.0
C159 C 0.544 0.52958 0.56212 0.0
H160 H 0.47107 0.32892 0.45427 0.0
H161 H 0.50035 0.40488 0.48613 0.0
H162 H 0.49906 0.39659 0.46365 0.0
H163 H 0.44201 0.27448 0.4908 0.0
H164 H 0.48224 0.55394 0.60373 0.0
H165 H 0.54883 0.50648 0.58532 0.0
H166 H 0.49244 0.56033 0.56359 0.0
H167 H 0.51998 0.51756 0.60433 0.0
Tb168 Tb 0.08569 0.45307 0.68403 0.0
C169 C 0.08657 0.60476 0.70261 0.0
N170 N 0.09169 0.58077 0.71087 0.0
C171 C 0.13798 0.63954 0.72265 0.0
C172 C 0.10675 0.64742 0.70411 0.0
C173 C 0.11745 0.59747 0.72074 0.0
C174 C 0.13241 0.66465 0.71434 0.0
C175 C 0.05807 0.61098 0.68321 0.0
C176 C 0.06265 0.58658 0.69233 0.0
C177 C 0.07712 0.65334 0.68481 0.0
C178 C 0.10137 0.67152 0.69525 0.0
Tb179 Tb 0.05599 0.51231 0.70767 0.0
N180 N 0.04541 0.54544 0.69101 0.0
C181 C 0.03509 0.59229 0.67265 0.0
C182 C 1.02376 0.52767 0.68042 0.0
C183 C 1.01808 0.5505 0.67123 0.0
H184 H 0.12282 0.57846 0.72707 0.0
H185 H 1.00088 0.53572 0.66295 0.0
H186 H 0.06661 0.50956 0.66343 0.0
H187 H 0.03445 0.29206 0.68608 0.0
H188 H 1.01131 0.49624 0.6785 0.0
H189 H 1.03088 0.60989 0.66545 0.0
H190 H 0.07211 0.36325 0.69336 0.0
H191 H 0.15834 0.65257 0.73048 0.0
H192 H 0.07376 0.67237 0.67792 0.0
H193 H 0.11629 0.70427 0.69629 0.0
H194 H 1.02792 0.49746 0.64427 0.0
H195 H 0.14859 0.69728 0.71578 0.0
H196 H 0.99509 0.27518 0.66654 0.0
N197 N 0.04981 0.44722 0.6662 0.0
C198 C 1.03045 0.40909 0.66114 0.0
C199 C 1.02805 0.47225 0.64899 0.0
C200 C 1.00797 0.401 0.65004 0.0
C201 C 0.04967 0.47885 0.66007 0.0
C202 C 1.00694 0.43318 0.64399 0.0
N203 N 0.05321 0.38629 0.67824 0.0
C204 C 0.05427 0.35611 0.68495 0.0
C205 C 1.01018 0.33743 0.66292 0.0
C206 C 1.03165 0.3776 0.66747 0.0
C207 C 1.01126 0.30644 0.66973 0.0
C208 C 0.03335 0.31583 0.68079 0.0
H209 H 0.9901 0.42823 0.63542 0.0
H210 H 0.96956 0.35435 0.63688 0.0
H211 H 0.97134 0.29873 0.64817 0.0
O212 O 0.1155 0.42589 0.67445 0.0
O213 O 0.06312 0.4187 0.70199 0.0
O214 O 1.02804 0.44757 0.71157 0.0
O215 O 0.14482 0.48981 0.67691 0.0
O216 O 0.11846 0.46184 0.70193 0.0
O217 O 0.10559 0.5038 0.71497 0.0
O218 O 1.01282 0.52245 0.71718 0.0
O219 O 0.11824 0.54395 0.70064 0.0
O220 O 0.10539 0.51942 0.6811 0.0
O221 O 0.05796 0.5154 0.72701 0.0
O222 O 1.00004 0.4639 0.69824 0.0
O223 O 1.01863 0.42931 0.68405 0.0
C224 C 0.03646 0.41798 0.71023 0.0
C225 C 0.15663 0.46634 0.65761 0.0
C226 C 0.19059 0.46003 0.63869 0.0
C227 C 0.17493 0.48135 0.63209 0.0
C228 C 0.14306 0.4886 0.65059 0.0
C229 C 0.15154 0.49541 0.63797 0.0
C230 C 0.18053 0.45172 0.65155 0.0
C231 C 0.12486 0.48358 0.71227 0.0
C232 C 0.14631 0.46018 0.67119 0.0
C233 C 0.98698 0.36109 0.64539 0.0
C234 C 0.988 0.3294 0.65182 0.0
C235 C 0.12723 0.54976 0.68885 0.0
C236 C 0.99326 0.48359 0.73586 0.0
C237 C 0.924 0.44638 0.74377 0.0
C238 C 0.93414 0.42075 0.75049 0.0
C239 C 1.00274 0.45763 0.74274 0.0
C240 C 0.95379 0.47775 0.73645 0.0
C241 C 0.97333 0.42654 0.74997 0.0
C242 C 0.99063 0.43433 0.68993 0.0
C243 C 1.02427 0.51601 0.72794 0.0
H244 H 0.18117 0.48757 0.62227 0.0
H245 H 0.12628 0.50147 0.65491 0.0
H246 H 0.14039 0.51232 0.63274 0.0
H247 H 0.19207 0.43522 0.65683 0.0
H248 H 0.91205 0.3968 0.75636 0.0
H249 H 0.03286 0.46109 0.74253 0.0
H250 H 0.9462 0.49739 0.73111 0.0
H251 H 0.98108 0.40706 0.75526 0.0
Tb252 Tb 0.66237 0.07652 0.85171 0.0
C253 C 0.5071 0.07052 0.86716 0.0
N254 N 0.53244 0.07469 0.87662 0.0
C255 C 0.51039 0.1149 0.88801 0.0
C256 C 0.48205 0.08836 0.8678 0.0
C257 C 0.53485 0.09696 0.88693 0.0
C258 C 0.48371 0.11044 0.87843 0.0
C259 C 0.48297 0.04674 0.84636 0.0
C260 C 0.50799 0.05022 0.85657 0.0
C261 C 0.45719 0.0635 0.84706 0.0
C262 C 0.45682 0.08437 0.85774 0.0
Tb263 Tb 0.56947 0.04251 0.87443 0.0
N264 N 0.53444 0.03553 0.85607 0.0
C265 C 0.48496 0.02709 0.83564 0.0
C266 C 0.53726 1.01781 0.84531 0.0
C267 C 0.51226 1.01265 0.83512 0.0
H268 H 0.55628 0.10174 0.89424 0.0
H269 H 0.51469 0.99811 0.82675 0.0
H270 H 0.60074 0.08837 0.83054 0.0
H271 H 0.72798 0.97786 0.85133 0.0
H272 H 0.55915 1.00837 0.84408 0.0
H273 H 0.46616 0.02362 0.82763 0.0
H274 H 0.71127 0.02721 0.86049 0.0
H275 H 0.51247 0.13254 0.89618 0.0
H276 H 0.43786 0.06103 0.8393 0.0
H277 H 0.43731 0.09777 0.85806 0.0
H278 H 0.57593 0.06446 0.80981 0.0
H279 H 0.46508 0.12472 0.87923 0.0
H280 H 0.70664 0.95323 0.82989 0.0
N281 N 0.63078 0.05317 0.83274 0.0
C282 C 0.64157 0.02804 0.82673 0.0
C283 C 0.59413 0.05373 0.81451 0.0
C284 C 0.62772 1.01382 0.81458 0.0
C285 C 0.6084 0.06708 0.82653 0.0
C286 C 0.60354 0.0268 0.80854 0.0
N287 N 0.67814 0.02898 0.84466 0.0
C288 C 0.70024 1.01574 0.8513 0.0
C289 C 0.67618 0.98829 0.82715 0.0
C290 C 0.66625 1.01589 0.83282 0.0
C291 C 0.69859 0.97455 0.83392 0.0
C292 C 0.71044 0.98815 0.84606 0.0
H293 H 0.59235 1.01658 0.79921 0.0
H294 H 0.62806 0.97607 0.79947 0.0
H295 H 0.66999 0.95331 0.81054 0.0
O296 O 0.72653 0.10637 0.85094 0.0
O297 O 0.67318 0.05453 0.86981 0.0
O298 O 0.61037 1.02028 0.87989 0.0
O299 O 0.6943 0.12054 0.83763 0.0
O300 O 0.67819 0.11654 0.86836 0.0
O301 O 0.62575 0.08987 0.88309 0.0
O302 O 0.51431 0.99501 0.8816 0.0
O303 O 0.59532 0.10603 0.86862 0.0
O304 O 0.62543 0.10835 0.84983 0.0
O305 O 0.55932 0.03938 0.8936 0.0
O306 O 0.56507 0.98776 0.86541 0.0
O307 O 0.62168 1.00839 0.8527 0.0
C308 C 0.64832 0.02932 0.87843 0.0
C309 C 0.75707 0.1259 0.83068 0.0
C310 C 0.80333 0.15694 0.81266 0.0
C311 C 0.81031 0.12372 0.8127 0.0
C312 C 0.76691 0.09462 0.83053 0.0
C313 C 0.79237 0.09308 0.82152 0.0
C314 C 0.77562 0.15746 0.82157 0.0
C315 C 0.66325 0.1163 0.87958 0.0
C316 C 0.72975 0.12637 0.8408 0.0
C317 C 0.63848 0.9872 0.80879 0.0
C318 C 0.66252 0.97438 0.81506 0.0
C319 C 0.60742 0.12203 0.85755 0.0
C320 C 0.52641 0.972 0.90079 0.0
C321 C 0.49145 0.90248 0.90872 0.0
C322 C 0.52626 0.91061 0.91554 0.0
C323 C 0.56106 0.97938 0.90768 0.0
C324 C 0.49174 0.93332 0.90132 0.0
C325 C 0.56083 0.94885 0.91499 0.0
C326 C 0.58801 0.97949 0.858 0.0
C327 C 0.52657 1.00436 0.89302 0.0
H328 H 0.83043 0.12172 0.80594 0.0
H329 H 0.7557 0.07147 0.83754 0.0
H330 H 0.79896 0.06828 0.82155 0.0
H331 H 0.7697 0.1827 0.8217 0.0
H332 H 0.52673 0.88731 0.92128 0.0
H333 H 0.58844 1.00876 0.90748 0.0
H334 H 0.46481 0.92746 0.89616 0.0
H335 H 0.58747 0.95493 0.92032 0.0
Tb336 Tb 0.58659 0.64356 0.01969 0.0
C337 C 0.44204 0.48521 0.03519 0.0
N338 N 0.46254 0.51256 0.04428 0.0
C339 C 0.40052 0.49128 0.05551 0.0
C340 C 0.39954 0.45987 0.03588 0.0
C341 C 0.44255 0.51587 0.05441 0.0
C342 C 0.37888 0.46321 0.04618 0.0
C343 C 0.4429 0.45442 0.01557 0.0
C344 C 0.46369 0.48318 0.02508 0.0
C345 C 0.40061 0.4292 0.01621 0.0
C346 C 0.37897 0.43204 0.02631 0.0
Tb347 Tb 0.53114 0.54988 0.04213 0.0
N348 N 0.50474 0.50879 0.02463 0.0
C349 C 0.4651 0.45128 1.00574 0.0
C350 C 0.52617 0.5051 0.01491 0.0
C351 C 0.50689 0.47642 1.00549 0.0
H352 H 0.45884 0.53832 0.06151 0.0
H353 H 0.52439 0.47444 0.99785 0.0
H354 H 0.49916 0.56245 1.00696 0.0
H355 H 0.74264 0.71229 1.00582 0.0
H356 H 0.55785 0.5247 0.01366 0.0
H357 H 0.45029 0.42951 0.99831 0.0
H358 H 0.68612 0.69646 0.02039 0.0
H359 H 0.38481 0.4943 0.06348 0.0
H360 H 0.38436 0.40722 1.00895 0.0
H361 H 0.34636 0.41236 0.02667 0.0
H362 H 0.48111 0.52799 0.9872 0.0
H363 H 0.34626 0.44434 0.04702 0.0
H364 H 0.72824 0.67889 0.98522 0.0
N365 N 0.56278 0.59904 1.00303 0.0
C366 C 0.59208 0.60684 0.99432 0.0
C367 C 0.51246 0.55027 0.98906 0.0
C368 C 0.58254 0.58607 0.98283 0.0
C369 C 0.5232 0.57099 1.0004 0.0
C370 C 0.54217 0.55766 0.98026 0.0
N371 N 0.64085 0.6549 1.00806 0.0
C372 C 0.67984 0.68175 0.01141 0.0
C373 C 0.66338 0.64376 0.98833 0.0
C374 C 0.63218 0.63576 0.9969 0.0
C375 C 0.70346 0.67192 0.99156 0.0
C376 C 0.71175 0.69076 1.0032 0.0
H377 H 0.53363 0.54119 0.97154 0.0
H378 H 0.60651 0.57871 0.96533 0.0
H379 H 0.67725 0.62891 0.9702 0.0
O380 O 0.61968 0.70777 0.02014 0.0
O381 O 0.62566 0.65387 0.03654 0.0
O382 O 0.5919 0.59386 0.04811 0.0
O383 O 0.58035 0.67793 1.00499 0.0
O384 O 0.56569 0.65934 0.03685 0.0
O385 O 0.53666 0.60506 0.05087 0.0
O386 O 0.52655 0.49608 0.04964 0.0
O387 O 0.48914 0.57036 0.03548 0.0
O388 O 0.51872 0.6179 0.01963 0.0
O389 O 0.52418 0.54044 0.06132 0.0
O390 O 0.5841 0.54961 0.03332 0.0
O391 O 0.61901 0.60709 0.02083 0.0
C392 C 0.62311 0.63016 0.04608 0.0
C393 C 0.63712 0.7446 1.00079 0.0
C394 C 0.65406 0.79138 0.98282 0.0
C395 C 0.69513 0.80932 0.98617 0.0
C396 C 0.67855 0.76489 1.00395 0.0
C397 C 0.70717 0.79614 0.99658 0.0
C398 C 0.6249 0.75824 0.99008 0.0
C399 C 0.5494 0.64336 0.04774 0.0
C400 C 0.60686 0.71286 0.00947 0.0
C401 C 0.61345 0.59442 0.97418 0.0
C402 C 0.65374 0.6231 0.97693 0.0
C403 C 0.48668 0.5925 0.02643 0.0
C404 C 0.55819 0.50833 0.06958 0.0
C405 C 0.60616 0.48517 0.07541 0.0
C406 C 0.6123 0.50584 0.08685 0.0
C407 C 0.565 0.52826 0.08107 0.0
C408 C 0.5799 0.48815 0.06664 0.0
C409 C 0.5924 0.52758 0.08951 0.0
C410 C 0.61512 0.57331 0.026 0.0
C411 C 0.52752 0.50808 0.061 0.0
H412 H 0.71809 0.83438 0.9808 0.0
H413 H 0.68912 0.75744 0.01234 0.0
H414 H 0.73892 0.81104 0.99915 0.0
H415 H 0.59303 0.74436 0.98772 0.0
H416 H 0.631 0.50417 0.09413 0.0
H417 H 0.54884 0.54416 0.08359 0.0
H418 H 0.57537 0.47421 0.0576 0.0
H419 H 0.59723 0.54287 0.09837 0.0
Tb420 Tb 0.97591 0.58702 0.18447 0.0
C421 C 0.98162 0.44353 0.20243 0.0
N422 N 0.97904 0.46694 0.2115 0.0
C423 C 0.9359 0.40749 0.22347 0.0
C424 C 0.96067 0.40072 0.20344 0.0
C425 C 0.95675 0.44974 0.22198 0.0
C426 C 0.93769 0.38283 0.21413 0.0
C427 C 1.00906 0.43885 0.18264 0.0
C428 C 1.00515 0.46263 0.19211 0.0
C429 C 0.98748 0.3962 0.18343 0.0
C430 C 0.96329 0.37717 0.19381 0.0
Tb431 Tb 1.0131 0.53535 0.20845 0.0
N432 N 1.02531 0.5042 0.19159 0.0
C433 C 0.03553 0.45847 0.17281 0.0
C434 C 0.05331 0.52299 0.18231 0.0
C435 C 0.0584 0.50063 0.17282 0.0
H436 H 0.9541 0.46851 0.22908 0.0
H437 H 0.08008 0.51616 0.16546 0.0
H438 H 0.99329 0.5197 0.16792 0.0
H439 H 0.03879 0.74945 0.17963 0.0
H440 H 0.07228 0.55505 0.18171 0.0
H441 H 0.03953 0.44135 0.16541 0.0
H442 H 1.00214 0.68343 0.19045 0.0
H443 H 0.91801 0.39398 0.23173 0.0
H444 H 0.98992 0.37764 0.17618 0.0
H445 H 0.94716 0.34426 0.19436 0.0
H446 H 1.02523 0.52019 0.14832 0.0
H447 H 0.92117 0.35007 0.21524 0.0
H448 H 0.06811 0.75337 0.15882 0.0
N449 N 1.00973 0.58263 0.16727 0.0
C450 C 1.02734 0.61716 0.16017 0.0
C451 C 1.02636 0.54779 0.15161 0.0
C452 C 0.04614 0.61841 0.14874 0.0
C453 C 1.00839 0.54792 0.16294 0.0
C454 C 0.04538 0.58312 0.1445 0.0
N455 N 1.01106 0.65035 0.17593 0.0
C456 C 1.01556 0.68492 0.18147 0.0
C457 C 0.04889 0.68911 0.15813 0.0
C458 C 1.0281 0.65208 0.16467 0.0
C459 C 0.05224 0.72432 0.16354 0.0
C460 C 0.03591 0.72228 0.17532 0.0
H461 H 0.05934 0.58281 0.13575 0.0
H462 H 0.07981 0.65624 0.13313 0.0
H463 H 0.08275 0.71822 0.14144 0.0
O464 O 0.94488 0.61626 0.17682 0.0
O465 O 0.99713 0.62399 0.20198 0.0
O466 O 0.03505 0.59944 0.21234 0.0
O467 O 0.92024 0.55278 0.17499 0.0
O468 O 0.94222 0.57518 0.20242 0.0
O469 O 0.9631 0.54182 0.21652 0.0
O470 O 0.05854 0.52589 0.21659 0.0
O471 O 0.94897 0.49783 0.20275 0.0
O472 O 0.95088 0.5192 0.1829 0.0
O473 O 1.01708 0.53463 0.22784 0.0
O474 O 0.06659 0.58727 0.19923 0.0
O475 O 0.04428 0.61706 0.18457 0.0
C476 C 1.02415 0.62711 0.21051 0.0
C477 C 0.91045 0.58625 0.15766 0.0
C478 C 0.8762 0.59721 0.13958 0.0
C479 C 0.89873 0.58612 0.13173 0.0
C480 C 0.93063 0.57377 0.1493 0.0
C481 C 0.92554 0.57456 0.13654 0.0
C482 C 0.88278 0.59809 0.15269 0.0
C483 C 0.93969 0.55733 0.21333 0.0
C484 C 0.91713 0.58393 0.17137 0.0
C485 C 0.06537 0.65484 0.14195 0.0
C486 C 0.0669 0.69012 0.14665 0.0
C487 C 0.93424 0.49022 0.19142 0.0
C488 C 0.0849 0.56686 0.23451 0.0
C489 C 0.15539 0.59948 0.2414 0.0
C490 C 0.15104 0.63109 0.2467 0.0
C491 C 0.08123 0.5989 0.23988 0.0
C492 C 0.12206 0.56738 0.23533 0.0
C493 C 0.11412 0.63063 0.24595 0.0
C494 C 0.07408 0.61548 0.19062 0.0
C495 C 0.05076 0.53374 0.22768 0.0
H496 H 0.89487 0.58556 0.12174 0.0
H497 H 0.94977 0.56224 0.15262 0.0
H498 H 0.94183 0.56515 0.13033 0.0
H499 H 0.86568 0.60647 0.15892 0.0
H500 H 0.17596 0.65584 0.25161 0.0
H501 H 0.05309 0.5997 0.23936 0.0
H502 H 0.12517 0.54309 0.23105 0.0
H503 H 0.11098 0.65491 0.25012 0.0
Tb504 Tb 0.0946 0.6557 0.50198 0.0
C505 C 0.09433 0.50267 0.48739 0.0
N506 N 0.09772 0.52788 0.47798 0.0
C507 C 0.14021 0.50841 0.46672 0.0
C508 C 0.11367 0.47895 0.4868 0.0
C509 C 0.12086 0.5316 0.46778 0.0
C510 C 0.13638 0.48174 0.47623 0.0
C511 C 0.07114 0.47805 0.50818 0.0
C512 C 0.07354 0.50261 0.49795 0.0
C513 C 0.08931 0.45349 0.50751 0.0
C514 C 0.11064 0.45403 0.49685 0.0
Tb515 Tb 0.06281 0.56247 0.48002 0.0
N516 N 0.05758 0.528 0.49842 0.0
C517 C 0.05128 0.47941 0.51891 0.0
C518 C 0.03984 0.53041 0.50923 0.0
C519 C 0.0357 0.50581 0.51944 0.0
H520 H 0.12526 0.55312 0.46052 0.0
H521 H 1.02113 0.50788 0.52783 0.0
H522 H 0.1053 0.59481 0.52377 0.0
H523 H 1.00388 0.72987 0.50223 0.0
H524 H 1.02965 0.55178 0.51048 0.0
H525 H 0.04863 0.46094 0.52693 0.0
H526 H 0.04984 0.70873 0.49307 0.0
H527 H 0.15843 0.51149 0.45862 0.0
H528 H 0.08768 0.43453 0.51528 0.0
H529 H 0.12521 0.43556 0.49656 0.0
H530 H 0.08131 0.57164 0.54458 0.0
H531 H 0.15176 0.46411 0.47545 0.0
H532 H 0.97916 0.71013 0.52373 0.0
N533 N 0.07133 0.62596 0.52119 0.0
C534 C 0.04715 0.63817 0.52706 0.0
C535 C 0.07117 0.59008 0.53972 0.0
C536 C 0.03309 0.62552 0.53929 0.0
C537 C 0.08456 0.60339 0.52764 0.0
C538 C 0.0451 0.60087 0.54554 0.0
N539 N 0.04959 0.67479 0.50896 0.0
C540 C 0.03814 0.69826 0.50228 0.0
C541 C 1.01057 0.67598 0.52648 0.0
C542 C 0.03633 0.66364 0.52082 0.0
C543 C 0.99892 0.70009 0.51969 0.0
C544 C 1.01257 0.71105 0.50752 0.0
H545 H 0.03496 0.59055 0.55493 0.0
H546 H 0.99689 0.62869 0.55438 0.0
H547 H 0.97688 0.67252 0.54312 0.0
O548 O 0.12573 0.71999 0.50197 0.0
O549 O 0.07002 0.66432 0.48402 0.0
O550 O 0.03643 0.60007 0.47486 0.0
O551 O 0.13844 0.6884 0.51598 0.0
O552 O 0.13467 0.67158 0.48537 0.0
O553 O 0.10565 0.61947 0.47061 0.0
O554 O 1.01574 0.50697 0.4728 0.0
O555 O 0.12682 0.59168 0.48546 0.0
O556 O 0.12593 0.61838 0.50444 0.0
O557 O 0.06109 0.55142 0.46096 0.0
O558 O 1.00775 0.55567 0.48973 0.0
O559 O 1.02654 0.61457 0.50131 0.0
C560 C 0.0437 0.63771 0.47596 0.0
C561 C 0.14419 0.7521 0.52202 0.0
C562 C 0.16947 0.79204 0.54143 0.0
C563 C 0.14101 0.8052 0.53989 0.0
C564 C 0.11784 0.76804 0.5206 0.0
C565 C 0.11573 0.79355 0.52954 0.0
C566 C 0.17089 0.76509 0.53245 0.0
C567 C 0.13235 0.65709 0.47396 0.0
C568 C 0.14483 0.72374 0.51234 0.0
C569 C 1.00788 0.63819 0.545 0.0
C570 C 0.99662 0.66329 0.53861 0.0
C571 C 0.14163 0.60245 0.49668 0.0
C572 C 0.9947 0.51989 0.45338 0.0
C573 C 0.92578 0.48658 0.44522 0.0
C574 C 0.93446 0.52237 0.43883 0.0
C575 C 1.00283 0.5555 0.44686 0.0
C576 C 0.9561 0.48554 0.45248 0.0
C577 C 0.97286 0.5565 0.43962 0.0
C578 C 0.99833 0.57891 0.49672 0.0
C579 C 1.02592 0.51902 0.46139 0.0
H580 H 0.13921 0.82571 0.54657 0.0
H581 H 0.09911 0.76147 0.51246 0.0
H582 H 0.09478 0.80496 0.52832 0.0
H583 H 0.19256 0.75451 0.53355 0.0
H584 H 0.9118 0.52374 0.43303 0.0
H585 H 1.03221 0.5828 0.44739 0.0
H586 H 0.94955 0.4582 0.45756 0.0
H587 H 0.97938 0.58385 0.43462 0.0
Tb588 Tb 0.45974 0.07877 0.66974 0.0
C589 C 0.60484 0.07154 0.65722 0.0
N590 N 0.5867 0.07785 0.64728 0.0
C591 C 0.65193 0.12395 0.63853 0.0
C592 C 0.64755 0.09197 0.6583 0.0
C593 C 0.6096 0.10346 0.63789 0.0
C594 C 0.67099 0.11816 0.64877 0.0
C595 C 0.59895 0.03596 0.67642 0.0
C596 C 0.5805 0.04423 0.66623 0.0
C597 C 0.64133 0.05732 0.67778 0.0
C598 C 0.66558 0.08529 0.66874 0.0
Tb599 Tb 0.51728 0.04318 0.64694 0.0
N600 N 0.5393 0.0241 0.66466 0.0
C601 C 0.57457 1.00519 0.6847 0.0
C602 C 0.51619 0.99162 0.67232 0.0
C603 C 0.5332 0.98234 0.68245 0.0
H604 H 0.59523 0.1093 0.6301 0.0
H605 H 0.51421 0.95714 0.6885 0.0
H606 H 0.54295 0.07588 0.68242 0.0
H607 H 0.30148 0.99236 0.6813 0.0
H608 H 0.48478 0.9711 0.67088 0.0
H609 H 0.58757 0.99779 0.69257 0.0
H610 H 0.36022 0.03375 0.66762 0.0
H611 H 0.66981 0.14441 0.63115 0.0
H612 H 0.65573 0.05158 0.68562 0.0
H613 H 0.69828 0.10099 0.66978 0.0
H614 H 0.55808 0.05597 0.70219 0.0
H615 H 0.70382 0.13373 0.64917 0.0
H616 H 0.31257 0.97164 0.70209 0.0
N617 N 0.47996 0.05381 0.68627 0.0
C618 C 0.44967 0.03319 0.69473 0.0
C619 C 0.52742 0.04938 0.70021 0.0
C620 C 0.45727 1.01974 0.70614 0.0
C621 C 0.51845 0.0613 0.68889 0.0
C622 C 0.49679 0.02853 0.70886 0.0
N623 N 0.4035 0.03598 0.68059 0.0
C624 C 0.36509 0.02442 0.67665 0.0
C625 C 0.37783 1.00078 0.69993 0.0
C626 C 0.41031 0.02419 0.69182 0.0
C627 C 0.33834 0.9897 0.69613 0.0
C628 C 0.33192 1.00117 0.68438 0.0
H629 H 0.5039 1.01895 0.71755 0.0
H630 H 0.43066 0.98737 0.72328 0.0
H631 H 0.36109 0.97037 0.71776 0.0
O632 O 0.42778 0.11129 0.66935 0.0
O633 O 0.42194 0.05131 0.65275 0.0
O634 O 0.45795 0.02981 0.63996 0.0
O635 O 0.46551 0.11815 0.68476 0.0
O636 O 0.48163 0.1171 0.65276 0.0
O637 O 0.51008 0.09193 0.63834 0.0
O638 O 0.52106 0.99371 0.63908 0.0
O639 O 0.55571 0.10623 0.65367 0.0
O640 O 0.52727 0.11758 0.67121 0.0
O641 O 0.53251 0.04515 0.6282 0.0
O642 O 0.46106 0.99007 0.65416 0.0
O643 O 0.42823 1.01071 0.66831 0.0
C644 C 0.42612 0.0339 0.6425 0.0
C645 C 0.40928 0.12964 0.68868 0.0
C646 C 0.3917 0.15976 0.70646 0.0
C647 C 0.35072 0.13697 0.70297 0.0
C648 C 0.36801 0.10901 0.68534 0.0
C649 C 0.33909 0.1119 0.69256 0.0
C650 C 0.42107 0.15529 0.6994 0.0
C651 C 0.49749 0.11757 0.64171 0.0
C652 C 0.43993 0.12798 0.68019 0.0
C653 C 0.42522 0.99772 0.71447 0.0
C654 C 0.3856 0.98815 0.71136 0.0
C655 C 0.55881 0.12666 0.6639 0.0
C656 C 0.49764 0.98203 0.61816 0.0
C657 C 0.46232 0.91611 0.6076 0.0
C658 C 0.44786 0.93338 0.59875 0.0
C659 C 0.48223 0.99818 0.60927 0.0
C660 C 0.48678 0.94083 0.61743 0.0
C661 C 0.45731 0.97385 0.59971 0.0
C662 C 0.43107 0.98191 0.66207 0.0
C663 C 0.52598 1.00834 0.62793 0.0
H664 H 0.3275 0.1392 0.70822 0.0
H665 H 0.35783 0.09129 0.6769 0.0
H666 H 0.30745 0.0954 0.68986 0.0
H667 H 0.45286 0.1729 0.70188 0.0
H668 H 0.43013 0.91618 0.59082 0.0
H669 H 0.48974 0.02977 0.60956 0.0
H670 H 0.49783 0.9284 0.6245 0.0
H671 H 0.44597 0.98669 0.59284 0.0
Tb672 Tb 0.40882 0.45307 0.83656 0.0
C673 C 0.55459 0.59876 0.81648 0.0
N674 N 0.52546 0.57499 0.80826 0.0
C675 C 0.53632 0.63415 0.79684 0.0
C676 C 0.57602 0.64151 0.81517 0.0
C677 C 0.51574 0.59201 0.79856 0.0
C678 C 0.56672 0.65905 0.80516 0.0
C679 C 0.59171 0.60442 0.83531 0.0
C680 C 0.56195 0.58021 0.82642 0.0
C681 C 0.61337 0.64692 0.83401 0.0
C682 C 0.60562 0.66541 0.82395 0.0
Tb683 Tb 0.49363 0.50639 0.81134 0.0
N684 N 0.53994 0.53882 0.82743 0.0
C685 C 0.59913 0.58535 0.84523 0.0
C686 C 0.54838 0.52051 0.83709 0.0
C687 C 0.57753 0.54324 0.84607 0.0
H688 H 0.49139 0.57323 0.79227 0.0
H689 H 0.58323 0.52804 0.85369 0.0
H690 H 0.49221 0.51124 0.8542 0.0
H691 H 0.29891 0.29259 0.83839 0.0
H692 H 0.53323 0.4886 0.83842 0.0
H693 H 0.62165 0.6028 0.85223 0.0
H694 H 0.33244 0.36127 0.82917 0.0
H695 H 0.5284 0.64741 0.78917 0.0
H696 H 0.63624 0.66577 0.84075 0.0
H697 H 0.62258 0.69822 0.82305 0.0
H698 H 0.52138 0.50322 0.87345 0.0
H699 H 0.58241 0.69174 0.80388 0.0
H700 H 0.32266 0.28063 0.85853 0.0
N701 N 0.443 0.45003 0.85381 0.0
C702 C 0.42385 0.41397 0.86008 0.0
C703 C 0.49408 0.47778 0.86974 0.0
C704 C 0.43975 0.40833 0.87129 0.0
C705 C 0.47747 0.48198 0.85862 0.0
C706 C 0.47517 0.44088 0.87611 0.0
N707 N 0.37574 0.3878 0.84378 0.0
C708 C 0.34386 0.35623 0.8378 0.0
C709 C 0.37089 0.34304 0.86044 0.0
C710 C 0.38962 0.38168 0.85477 0.0
C711 C 0.33782 0.31079 0.85447 0.0
C712 C 0.32442 0.31738 0.84307 0.0
H713 H 0.48829 0.43777 0.8847 0.0
H714 H 0.43211 0.36539 0.8858 0.0
H715 H 0.37199 0.30821 0.87627 0.0
O716 O 0.35126 0.42833 0.84543 0.0
O717 O 0.39279 0.41616 0.8191 0.0
O718 O 0.45309 0.44191 0.80769 0.0
O719 O 0.39181 0.49199 0.84562 0.0
O720 O 0.38369 0.46334 0.819 0.0
O721 O 0.4356 0.49839 0.80448 0.0
O722 O 0.5449 0.51203 0.80165 0.0
O723 O 0.46594 0.54137 0.81858 0.0
O724 O 0.4558 0.51893 0.83835 0.0
O725 O 0.49523 0.5111 0.79202 0.0
O726 O 0.4974 0.45488 0.82024 0.0
O727 O 0.45047 0.42691 0.83639 0.0
C728 C 0.4157 0.41351 0.81017 0.0
C729 C 0.35232 0.46365 0.86392 0.0
C730 C 0.30971 0.45242 0.88251 0.0
C731 C 0.34435 0.46542 0.88994 0.0
C732 C 0.38622 0.47773 0.87178 0.0
C733 C 0.3822 0.47812 0.88462 0.0
C734 C 0.31369 0.45138 0.86937 0.0
C735 C 0.39729 0.48175 0.80808 0.0
C736 C 0.35826 0.46265 0.85018 0.0
C737 C 0.42038 0.37021 0.87716 0.0
C738 C 0.38613 0.33763 0.87174 0.0
C739 C 0.46318 0.5482 0.83033 0.0
C740 C 0.52359 0.47531 0.78262 0.0
C741 C 0.55401 0.44051 0.77171 0.0
C742 C 0.51593 0.41313 0.76666 0.0
C743 C 0.48558 0.44724 0.77753 0.0
C744 C 0.55766 0.47168 0.77968 0.0
C745 C 0.48197 0.41657 0.76957 0.0
C746 C 0.47964 0.42783 0.82934 0.0
C747 C 0.52766 0.5083 0.79091 0.0
H748 H 0.34222 0.46653 0.89996 0.0
H749 H 0.41618 0.48902 0.868 0.0
H750 H 0.40874 0.48879 0.89049 0.0
H751 H 0.2872 0.4412 0.8635 0.0
H752 H 0.51254 0.3895 0.76028 0.0
H753 H 0.45852 0.449 0.7796 0.0
H754 H 0.58688 0.4929 0.78366 0.0
H755 H 0.45284 0.3956 0.76554 0.0
Tb756 Tb 0.96264 0.39063 1.00012 0.0
C757 C 0.94964 0.53888 0.98461 0.0
N758 N 0.94588 0.50615 0.97816 0.0
C759 C 0.88622 0.49894 0.96804 0.0
C760 C 0.92141 0.55258 0.98308 0.0
C761 C 0.91492 0.48638 0.96984 0.0
C762 C 0.88962 0.5323 0.97462 0.0
C763 C 0.98614 0.59199 0.99993 0.0
C764 C 0.98182 0.5586 0.99291 0.0
C765 C 0.958 0.60563 0.99841 0.0
C766 C 0.92578 0.58603 0.99 0.0
Tb767 Tb 0.99849 0.49369 0.98104 0.0
N768 N 1.00798 0.54402 0.99442 0.0
C769 C 1.01841 0.6104 1.00835 0.0
C770 C 0.04012 0.56245 1.00237 0.0
C771 C 0.04554 0.59561 0.00955 0.0
H772 H 0.91279 0.46199 0.96415 0.0
H773 H 0.07084 0.60998 0.01594 0.0
H774 H 0.04718 0.39586 0.01081 0.0
H775 H 0.82803 0.25877 0.98251 0.0
H776 H 0.06179 0.55193 1.00315 0.0
H777 H 1.02274 0.6361 0.01393 0.0
H778 H 0.86596 0.32414 0.9937 0.0
H779 H 0.86193 0.48337 0.96139 0.0
H780 H 0.96078 0.6312 1.00374 0.0
H781 H 0.90426 0.59684 0.98897 0.0
H782 H 0.08615 0.36025 1.00748 0.0
H783 H 0.8678 0.54241 0.973 0.0
H784 H 0.86392 0.22323 0.97491 0.0
N785 N 0.99887 0.35694 0.99883 0.0
C786 C 0.98195 0.32198 0.99215 0.0
C787 C 0.05702 0.34937 1.00299 0.0
C788 C 1.00259 0.30007 0.99015 0.0
C789 C 0.03501 0.36971 1.0048 0.0
C790 C 0.04108 0.31478 0.99544 0.0
N791 N 0.92334 0.32762 0.99131 0.0
C792 C 0.88212 0.30953 0.99004 0.0
C793 C 0.92225 0.26897 0.98205 0.0
C794 C 0.9427 0.30692 0.98811 0.0
C795 C 0.88081 0.25231 0.97956 0.0
C796 C 0.86045 0.27224 0.98386 0.0
H797 H 0.05802 0.29889 0.99413 0.0
H798 H 0.99901 0.24653 0.98154 0.0
H799 H 0.92837 0.2191 0.97447 0.0
O800 O 0.92992 0.34283 0.0128 0.0
O801 O 1.01198 0.40495 0.98628 0.0
O802 O 1.00426 0.44544 0.97165 0.0
O803 O 0.96204 0.40452 0.01915 0.0
O804 O 0.91959 0.39074 0.98604 0.0
O805 O 0.9566 0.43759 0.97081 0.0
O806 O 0.05625 0.53673 0.97427 0.0
O807 O 0.96856 0.4822 0.99952 0.0
O808 O 0.92067 0.4161 0.99915 0.0
O809 O 1.00196 0.52915 0.96561 0.0
O810 O 0.04992 0.49279 0.99026 0.0
O811 O 1.02318 0.44402 1.00601 0.0
C812 C 1.02093 0.42397 0.97543 0.0
C813 C 0.94824 0.35172 0.03411 0.0
C814 C 0.92489 0.30784 0.05284 0.0
C815 C 0.96591 0.3247 0.05638 0.0
C816 C 0.9885 0.367 0.03793 0.0
C817 C 0.99715 0.35367 0.049 0.0
C818 C 0.91639 0.32206 0.04161 0.0
C819 C 0.92569 0.40227 0.97429 0.0
C820 C 0.939 0.36649 0.02238 0.0
C821 C 0.98352 0.26361 0.98333 0.0
C822 C 0.94334 0.24805 0.97928 0.0
C823 C 0.93039 0.4542 1.00122 0.0
C824 C 0.05514 0.53913 0.9524 0.0
C825 C 0.10833 0.56193 0.9367 0.0
C826 C 0.08373 0.52682 0.92968 0.0
C827 C 1.03095 0.50428 0.94522 0.0
C828 C 0.09378 0.5677 0.94814 0.0
C829 C 0.04532 0.49821 0.93395 0.0
C830 C 0.0547 0.47413 0.99998 0.0
C831 C 0.04092 0.54479 0.96458 0.0
H832 H 0.97413 0.31593 0.06501 0.0
H833 H 1.01332 0.38948 0.03239 0.0
H834 H 1.02838 0.36602 0.05192 0.0
H835 H 0.88523 0.30981 0.0386 0.0
H836 H 0.0939 0.52174 0.9208 0.0
H837 H 1.00118 0.48145 0.94839 0.0
H838 H 0.11265 0.59409 0.95382 0.0
H839 H 1.0266 0.47125 0.9285 0.0
Tb840 Tb 0.60416 0.96349 0.16643 0.0
C841 C 0.44525 0.95442 0.15217 0.0
N842 N 0.47303 0.94977 0.14535 0.0
C843 C 0.41956 0.88888 0.13621 0.0
C844 C 0.40347 0.92602 0.15132 0.0
C845 C 0.46066 0.91798 0.13723 0.0
C846 C 0.39086 0.89282 0.1433 0.0
C847 C 0.43116 0.9923 0.16778 0.0
C848 C 0.45891 0.98714 0.16036 0.0
C849 C 0.38948 0.96438 0.1668 0.0
C850 C 0.3757 0.93131 0.15862 0.0
Tb851 Tb 0.53833 1.00142 0.14774 0.0
N852 N 0.49961 1.0127 0.1615 0.0
C853 C 0.44622 0.02504 0.1761 0.0
C854 C 0.51448 0.04523 0.16936 0.0
C855 C 0.48802 0.05166 0.17686 0.0
H856 H 0.48186 0.9152 0.13123 0.0
H857 H 0.49986 0.07727 0.18318 0.0
H858 H 0.68453 0.04776 0.17645 0.0
H859 H 0.5965 0.82558 0.14889 0.0
H860 H 0.54659 0.06641 0.16984 0.0
H861 H 0.42587 0.03006 0.18196 0.0
H862 H 0.57131 0.86585 0.16004 0.0
H863 H 0.40997 0.86362 0.12983 0.0
H864 H 0.36769 0.9678 0.17245 0.0
H865 H 0.3435 0.90974 0.15811 0.0
H866 H 0.75854 0.08394 0.17318 0.0
H867 H 0.35906 0.87016 0.14247 0.0
H868 H 0.66746 0.85884 0.14139 0.0
N869 N 0.67358 0.99775 0.16487 0.0
C870 C 0.69058 0.97929 0.15836 0.0
C871 C 0.73974 0.05465 0.16885 0.0
C872 C 0.7328 0.99839 0.1564 0.0
C873 C 0.69767 0.03416 0.17062 0.0
C874 C 0.75736 0.03698 0.16154 0.0
N875 N 0.62588 0.92217 0.15759 0.0
C876 C 0.6018 0.88098 0.15634 0.0
C877 C 0.68191 0.91815 0.14845 0.0
C878 C 0.6656 0.94007 0.15442 0.0
C879 C 0.65621 0.87682 0.14598 0.0
C880 C 0.61617 0.85794 0.15021 0.0
H881 H 0.78995 0.05277 0.16025 0.0
H882 H 0.78138 0.99211 0.14797 0.0
H883 H 0.73669 0.92157 0.14102 0.0
O884 O 0.61763 0.92905 0.17897 0.0
O885 O 0.63913 1.01174 0.15231 0.0
O886 O 0.59119 1.00597 0.13792 0.0
O887 O 0.59281 0.96555 0.18563 0.0
O888 O 0.55962 0.92074 0.15268 0.0
O889 O 0.55054 0.95811 0.13732 0.0
O890 O 0.5528 0.05951 0.14104 0.0
O891 O 0.51972 0.97101 0.16623 0.0
O892 O 0.53686 0.92202 0.16589 0.0
O893 O 0.50566 1.00521 0.13258 0.0
O894 O 0.59195 0.0528 0.15643 0.0
O895 O 0.61299 0.02526 0.17222 0.0
C896 C 0.62923 1.02128 0.1415 0.0
C897 C 0.63247 0.94999 0.19988 0.0
C898 C 0.65609 0.92615 0.2178 0.0
C899 C 0.68395 0.96712 0.22054 0.0
C900 C 0.66074 0.99025 0.20293 0.0
C901 C 0.68616 0.99865 0.2132 0.0
C902 C 0.63007 0.91793 0.2074 0.0
C903 C 0.55387 0.92645 0.14092 0.0
C904 C 0.60617 0.94077 0.18872 0.0
C905 C 0.74907 0.97781 0.14973 0.0
C906 C 0.72361 0.93769 0.14574 0.0
C907 C 0.50886 0.93241 0.1679 0.0
C908 C 0.54691 0.05902 0.11916 0.0
C909 C 0.58277 0.11567 0.10468 0.0
C910 C 0.58113 0.08779 0.09568 0.0
C911 C 0.5462 0.03199 0.11005 0.0
C912 C 0.56605 0.10074 0.11652 0.0
C913 C 0.56344 0.04646 0.09843 0.0
C914 C 0.61571 0.05729 0.16601 0.0
C915 C 0.52872 0.04425 0.13152 0.0
H916 H 0.70387 0.97499 0.22851 0.0
H917 H 0.66323 1.01524 0.19737 0.0
H918 H 0.70779 0.0299 0.2155 0.0
H919 H 0.60853 0.8867 0.20501 0.0
H920 H 0.59247 0.09746 0.08636 0.0
H921 H 0.53247 0.9997 0.1119 0.0
H922 H 0.56779 0.12133 0.12379 0.0
H923 H 0.56249 0.02542 0.09144 0.0
Tb924 Tb 0.66653 0.60322 0.33365 0.0
C925 C 0.52141 0.44023 0.31709 0.0
N926 N 0.55834 0.46864 0.3127 0.0
C927 C 0.57345 0.41609 0.30715 0.0
C928 C 0.50937 0.39848 0.31685 0.0
C929 C 0.58407 0.45715 0.30754 0.0
C930 C 0.53598 0.38663 0.31182 0.0
C931 C 0.45878 0.42487 0.32765 0.0
C932 C 0.49626 0.45325 0.32239 0.0
C933 C 0.44653 0.38322 0.3273 0.0
C934 C 0.4717 0.37006 0.3219 0.0
Tb935 Tb 0.56875 0.53339 0.31278 0.0
N936 N 0.50926 0.49382 0.32277 0.0
C937 C 0.43491 0.43928 0.33322 0.0
C938 C 0.48604 0.50809 0.3281 0.0
C939 C 0.44863 0.48104 0.33345 0.0
H940 H 0.61248 0.47919 0.30352 0.0
H941 H 0.43024 0.49239 0.33766 0.0
H942 H 0.63578 0.6508 0.35355 0.0
H943 H 0.80409 0.66554 0.30638 0.0
H944 H 0.49574 0.54013 0.32806 0.0
H945 H 0.40591 0.41844 0.33737 0.0
H946 H 0.7452 0.61181 0.3175 0.0
H947 H 0.59408 0.40716 0.30314 0.0
H948 H 0.41779 0.36096 0.33128 0.0
H949 H 0.46203 0.33788 0.32184 0.0
H950 H 0.64571 0.7197 0.35642 0.0
H951 H 0.52795 0.35487 0.31152 0.0
H952 H 0.81818 0.73678 0.30729 0.0
N953 N 0.67523 0.66671 0.33793 0.0
C954 C 0.70666 0.69838 0.33201 0.0
C955 C 0.66229 0.714 0.34925 0.0
C956 C 0.71502 0.73878 0.33376 0.0
C957 C 0.65564 0.67458 0.34728 0.0
C958 C 0.69133 0.74612 0.34219 0.0
N959 N 0.72417 0.65131 0.3239 0.0
C960 C 0.75007 0.64236 0.31759 0.0
C961 C 0.76631 0.72246 0.31896 0.0
C962 C 0.7325 0.69054 0.32494 0.0
C963 C 0.7919 0.71314 0.31204 0.0
C964 C 0.78395 0.67295 0.31146 0.0
H965 H 0.6968 0.7767 0.34384 0.0
H966 H 0.7545 0.8018 0.32863 0.0
H967 H 0.79909 0.78741 0.3155 0.0
O968 O 0.72069 0.6121 0.34213 0.0
O969 O 0.66476 0.63036 0.3152 0.0
O970 O 0.5975 0.59816 0.30876 0.0
O971 O 0.67015 0.60121 0.35333 0.0
O972 O 0.67281 0.56137 0.32061 0.0
O973 O 0.62843 0.55125 0.30451 0.0
O974 O 0.51942 0.52869 0.30236 0.0
O975 O 0.57457 0.51245 0.33157 0.0
O976 O 0.64189 0.53546 0.33428 0.0
O977 O 0.56157 0.51236 0.29445 0.0
O978 O 0.5656 0.58452 0.32163 0.0
O979 O 0.60538 0.59634 0.33907 0.0
C980 C 0.63509 0.62827 0.30812 0.0
C981 C 0.73666 0.64025 0.36245 0.0
C982 C 0.78908 0.66227 0.37897 0.0
C983 C 0.79238 0.70101 0.37859 0.0
C984 C 0.74219 0.67971 0.36229 0.0
C985 C 0.76933 0.70955 0.37033 0.0
C986 C 0.76035 0.63149 0.37092 0.0
C987 C 0.66328 0.55618 0.30868 0.0
C988 C 0.70781 0.60919 0.35342 0.0
C989 C 0.74791 0.77064 0.32752 0.0
C990 C 0.77346 0.76248 0.32011 0.0
C991 C 0.60388 0.50546 0.33508 0.0
C992 C 0.54018 0.54851 0.28165 0.0
C993 C 0.51476 0.58012 0.26712 0.0
C994 C 0.55424 0.60438 0.26249 0.0
C995 C 0.57954 0.5731 0.27689 0.0
C996 C 0.50798 0.55213 0.27669 0.0
C997 C 0.5864 0.60069 0.26734 0.0
C998 C 0.57992 0.60363 0.33232 0.0
C999 C 0.53283 0.52079 0.29219 0.0
H1000 H 0.81295 0.72506 0.38475 0.0
H1001 H 0.72587 0.68794 0.35588 0.0
H1002 H 0.77276 0.73973 0.37011 0.0
H1003 H 0.75716 0.6014 0.37102 0.0
H1004 H 0.56022 0.62607 0.2551 0.0
H1005 H 0.60517 0.57155 0.28068 0.0
H1006 H 0.47783 0.53393 0.28055 0.0
H1007 H 0.61681 0.61964 0.2638 0.0
H1008 H 0.99351 0.6522 0.22975 0.0
H1009 H 0.0332 0.69845 0.24682 0.0
H1010 H 0.14386 0.72408 0.2281 0.0
H1011 H 0.10457 0.67942 0.21113 0.0
H1012 H 0.08268 0.69195 0.26283 0.0
H1013 H 0.17595 0.83651 0.23819 0.0
H1014 H 0.13263 0.79436 0.23098 0.0
H1015 H 0.18133 0.79667 0.23104 0.0
C1016 C 1.02627 0.66946 0.22901 0.0
C1017 C 0.04577 0.66337 0.21877 0.0
C1018 C 0.0491 0.69541 0.23889 0.0
C1019 C 0.09199 0.7159 0.23879 0.0
C1020 C 0.11115 0.71032 0.22838 0.0
H1021 H 0.29852 0.85455 0.2878 0.0
H1022 H 0.25023 0.8099 0.27203 0.0
C1023 C 0.08848 0.68465 0.21857 0.0
C1024 C 0.11694 0.74027 0.24984 0.0
H1025 H 0.20197 0.82958 0.25788 0.0
C1026 C 0.10847 0.72224 0.26173 0.0
C1027 C 0.15078 0.78006 0.24864 0.0
C1028 C 0.16042 0.80315 0.23655 0.0
C1029 C 0.13367 0.74173 0.27212 0.0
C1030 C 0.16823 0.78091 0.27078 0.0
C1031 C 0.17601 0.79939 0.259 0.0
C1032 C 0.19683 0.80346 0.28137 0.0
C1033 C 0.12384 0.71945 0.28435 0.0
C1034 C 0.18337 0.81425 0.29219 0.0
C1035 C 0.21114 0.83953 0.30133 0.0
C1036 C 0.25312 0.8545 0.29996 0.0
C1037 C 0.26636 0.84243 0.28938 0.0
C1038 C 0.23869 0.81732 0.28025 0.0
H1039 H 0.10332 0.68623 0.28313 0.0
H1040 H 0.1519 0.72436 0.28912 0.0
H1041 H 0.10836 0.7312 0.29045 0.0
H1042 H 0.15157 0.80501 0.29327 0.0
H1043 H 0.20004 0.84953 0.30908 0.0
H1044 H 0.38587 0.25475 0.4579 0.0
H1045 H 0.37057 0.20037 0.44282 0.0
H1046 H 0.47767 0.19681 0.45434 0.0
H1047 H 0.49288 0.25132 0.46949 0.0
H1048 H 0.47374 0.20362 0.42871 0.0
H1049 H 0.32714 0.07783 0.44552 0.0
H1050 H 0.32784 0.12544 0.44387 0.0
H1051 H 0.3601 0.12061 0.45519 0.0
C1052 C 0.40524 0.2412 0.45757 0.0
C1053 C 0.43991 0.25658 0.46521 0.0
C1054 C 0.3966 0.21015 0.44886 0.0
C1055 C 0.42262 0.19378 0.44741 0.0
C1056 C 0.45679 0.20844 0.45527 0.0
H1057 H 0.3911 0.98871 0.40157 0.0
H1058 H 0.3883 0.0316 0.4182 0.0
C1059 C 0.46523 0.2393 0.46407 0.0
C1060 C 0.41592 0.16393 0.43711 0.0
H1061 H 0.34725 0.07065 0.42515 0.0
C1062 C 0.44607 0.17453 0.42798 0.0
C1063 C 0.37999 0.12565 0.43605 0.0
C1064 C 0.34702 0.1114 0.44573 0.0
C1065 C 0.44111 0.14862 0.41784 0.0
C1066 C 0.40472 0.11073 0.41661 0.0
C1067 C 0.3749 0.09975 0.42588 0.0
C1068 C 0.39827 0.08147 0.40614 0.0
C1069 C 0.47537 0.16197 0.40863 0.0
C1070 C 0.40129 0.09324 0.39359 0.0
C1071 C 0.4017 0.06804 0.384 0.0
C1072 C 0.39899 0.0304 0.3867 0.0
C1073 C 0.39257 1.01721 0.39913 0.0
C1074 C 0.39157 0.0421 0.4087 0.0
H1075 H 0.50436 0.18676 0.41239 0.0
H1076 H 0.47985 0.13614 0.40589 0.0
H1077 H 0.46799 0.1737 0.40015 0.0
H1078 H 0.40512 0.12275 0.39121 0.0
H1079 H 0.40718 0.07935 0.37458 0.0
H1080 H 0.25682 0.50997 0.62485 0.0
H1081 H 0.29398 0.49181 0.61007 0.0
H1082 H 0.22454 0.36637 0.6214 0.0
H1083 H 0.18608 0.38458 0.63609 0.0
H1084 H 0.34246 0.46139 0.61112 0.0
H1085 H 0.20639 0.35245 0.58454 0.0
H1086 H 0.20431 0.38495 0.59644 0.0
H1087 H 0.20546 0.33947 0.60062 0.0
C1088 C 0.24962 0.47848 0.62432 0.0
C1089 C 0.21814 0.44878 0.63168 0.0
C1090 C 0.27099 0.46805 0.61579 0.0
C1091 C 0.26176 0.42743 0.61423 0.0
C1092 C 0.23177 0.39781 0.62206 0.0
H1093 H 0.43215 0.38475 0.56887 0.0
H1094 H 0.38805 0.38319 0.58577 0.0
C1095 C 0.21017 0.40833 0.63066 0.0
C1096 C 0.28358 0.41703 0.60433 0.0
H1097 H 0.26934 0.36042 0.57789 0.0
C1098 C 0.3263 0.43904 0.60393 0.0
C1099 C 0.26298 0.38845 0.59467 0.0
C1100 C 0.21728 0.3652 0.59396 0.0
C1101 C 0.34864 0.43365 0.59431 0.0
C1102 C 0.32812 0.40451 0.5848 0.0
C1103 C 0.2854 0.38239 0.58518 0.0
C1104 C 0.35053 0.39812 0.57418 0.0
C1105 C 0.39415 0.46069 0.59419 0.0
C1106 C 0.34264 0.40378 0.56174 0.0
C1107 C 0.36721 0.40331 0.55197 0.0
C1108 C 0.40011 0.39683 0.55434 0.0
C1109 C 0.40641 0.38871 0.56666 0.0
C1110 C 0.38166 0.38875 0.57639 0.0
H1111 H 0.40394 0.48792 0.60016 0.0
H1112 H 0.40871 0.44356 0.59784 0.0
H1113 H 0.40546 0.47093 0.58462 0.0
H1114 H 0.31893 0.41098 0.55966 0.0
H1115 H 0.36235 0.41105 0.54267 0.0
H1116 H 0.06357 0.38021 0.7268 0.0
H1117 H 1.02423 0.33459 0.74404 0.0
H1118 H 0.91693 0.33511 0.73103 0.0
H1119 H 0.95555 0.37949 0.71394 0.0
H1120 H 0.98588 0.34993 0.763 0.0
H1121 H 0.86929 0.21596 0.73766 0.0
H1122 H 0.91449 0.25473 0.73016 0.0
H1123 H 0.87149 0.26209 0.73251 0.0
C1124 C 1.03123 0.36909 0.72734 0.0
C1125 C 1.01258 0.38266 0.71872 0.0
C1126 C 1.00876 0.34344 0.73732 0.0
C1127 C 0.96704 0.33042 0.73886 0.0
C1128 C 0.94846 0.34324 0.73001 0.0
H1129 H 0.77603 0.19051 0.79463 0.0
H1130 H 0.81556 0.235 0.77724 0.0
C1131 C 0.97077 0.3688 0.72015 0.0
C1132 C 0.94338 0.3062 0.75008 0.0
H1133 H 0.85514 0.22134 0.75898 0.0
C1134 C 0.95735 0.32179 0.76206 0.0
C1135 C 0.90589 0.26927 0.74908 0.0
C1136 C 0.88958 0.24931 0.73667 0.0
C1137 C 0.93464 0.30263 0.77287 0.0
C1138 C 0.89721 0.26557 0.77189 0.0
C1139 C 0.88342 0.24977 0.7599 0.0
C1140 C 0.87322 0.24164 0.78312 0.0
C1141 C 0.95061 0.32333 0.78521 0.0
C1142 C 0.89193 0.23062 0.79245 0.0
C1143 C 0.86952 0.20583 0.80244 0.0
C1144 C 0.82729 0.19045 0.80345 0.0
C1145 C 0.8085 0.20229 0.79433 0.0
C1146 C 0.83114 0.22739 0.78428 0.0
H1147 H 0.96997 0.35676 0.78407 0.0
H1148 H 0.92558 0.31744 0.79172 0.0
H1149 H 0.96967 0.31176 0.78943 0.0
H1150 H 0.92383 0.23985 0.7918 0.0
H1151 H 0.88509 0.19713 0.80918 0.0
H1152 H 0.67854 0.05522 0.90165 0.0
H1153 H 0.67973 1.01312 0.91879 0.0
H1154 H 0.6434 0.91235 0.89358 0.0
H1155 H 0.64189 0.9546 0.87648 0.0
H1156 H 0.59683 0.88796 0.91394 0.0
H1157 H 0.75616 0.97472 0.92976 0.0
H1158 H 0.7323 1.00551 0.92928 0.0
H1159 H 0.73978 0.98479 0.9151 0.0
C1160 C 0.67282 0.02473 0.89966 0.0
C1161 C 0.66193 1.00891 0.88756 0.0
C1162 C 0.67315 1.00039 0.90952 0.0
C1163 C 0.66232 0.95933 0.9076 0.0
C1164 C 0.65229 0.94383 0.89542 0.0
H1165 H 0.62595 0.76031 0.95937 0.0
H1166 H 0.62546 0.79848 0.9409 0.0
C1167 C 0.65207 0.96825 0.88556 0.0
C1168 C 0.65864 0.93202 0.91838 0.0
H1169 H 0.70951 0.92416 0.94365 0.0
C1170 C 0.62165 0.89583 0.92037 0.0
C1171 C 0.69077 0.94174 0.92689 0.0
C1172 C 0.7321 0.97857 0.9251 0.0
C1173 C 0.61554 0.87024 0.93071 0.0
C1174 C 0.64753 0.88031 0.93932 0.0
C1175 C 0.68468 0.91617 0.93721 0.0
C1176 C 0.6433 0.85494 0.95069 0.0
C1177 C 0.57429 0.83335 0.93254 0.0
C1178 C 0.65316 0.87324 0.96251 0.0
C1179 C 0.65341 0.85139 0.97305 0.0
C1180 C 0.64368 0.81036 0.97218 0.0
C1181 C 0.63241 0.79143 0.96046 0.0
C1182 C 0.6323 0.81345 0.94985 0.0
H1183 H 0.5504 0.83586 0.92727 0.0
H1184 H 0.57497 0.806 0.92912 0.0
H1185 H 0.56577 0.82876 0.94251 0.0
H1186 H 0.66183 0.90502 0.96357 0.0
H1187 H 0.66302 0.86719 0.98186 0.0
H1188 H 0.87275 0.66876 0.13808 0.0
H1189 H 0.83042 0.6832 0.1238 0.0
H1190 H 0.77048 0.55835 0.11155 0.0
H1191 H 0.81148 0.54393 0.12592 0.0
H1192 H 0.82666 0.68079 0.09899 0.0
H1193 H 0.67326 0.57053 0.11536 0.0
H1194 H 0.71792 0.58214 0.12433 0.0
H1195 H 0.70131 0.54505 0.11197 0.0
C1196 C 0.84937 0.64411 0.1327 0.0
C1197 C 0.84491 0.6049 0.13342 0.0
C1198 C 0.82548 0.65248 0.12437 0.0
C1199 C 0.79636 0.62182 0.11658 0.0
C1200 C 0.79147 0.58252 0.11759 0.0
H1201 H 0.65226 0.58021 0.05174 0.0
H1202 H 0.69581 0.58444 0.06888 0.0
C1203 C 0.81509 0.57421 0.12587 0.0
C1204 C 0.77289 0.6308 0.10686 0.0
H1205 H 0.67792 0.59354 0.09422 0.0
C1206 C 0.79401 0.66213 0.09812 0.0
C1207 C 0.73008 0.60683 0.10555 0.0
C1208 C 0.70435 0.57458 0.11489 0.0
C1209 C 0.77405 0.66848 0.08791 0.0
C1210 C 0.73167 0.64311 0.08632 0.0
C1211 C 0.7104 0.61293 0.0953 0.0
C1212 C 0.70913 0.64431 0.07489 0.0
C1213 C 0.79868 0.70103 0.07854 0.0
C1214 C 0.70239 0.67709 0.07213 0.0
C1215 C 0.67707 0.6748 0.06208 0.0
C1216 C 0.65815 0.6397 0.05458 0.0
C1217 C 0.66668 0.60805 0.05712 0.0
C1218 C 0.69148 0.61023 0.06706 0.0
H1219 H 0.83181 0.71529 0.08031 0.0
H1220 H 0.79213 0.68803 0.06902 0.0
H1221 H 0.79001 0.72508 0.0789 0.0
H1222 H 0.71511 0.70363 0.07809 0.0
H1223 H 0.6704 0.69926 0.06066 0.0
H1224 H 0.43437 0.04721 0.61778 0.0
H1225 H 0.38856 1.00434 0.60137 0.0
H1226 H 0.29971 0.93183 0.62898 0.0
H1227 H 0.34586 0.97526 0.6455 0.0
H1228 H 0.36252 0.92308 0.59846 0.0
H1229 H 0.229 0.94547 0.6029 0.0
H1230 H 0.27735 0.97956 0.60996 0.0
H1231 H 0.24412 0.93125 0.61701 0.0
C1232 C 0.40445 0.02302 0.62034 0.0
C1233 C 0.39343 1.01532 0.63295 0.0
C1234 C 0.37838 0.99815 0.61093 0.0
C1235 C 0.34035 0.96465 0.6138 0.0
C1236 C 0.32844 0.95782 0.6264 0.0
H1237 H 0.15072 0.77904 0.56607 0.0
H1238 H 0.19287 0.81808 0.58374 0.0
C1239 C 0.35469 0.98293 0.63588 0.0
C1240 C 0.31504 0.93574 0.60365 0.0
H1241 H 0.22321 0.895 0.58878 0.0
C1242 C 0.33207 0.91705 0.59635 0.0
C1243 C 0.27509 0.92732 0.60084 0.0
C1244 C 0.25529 0.94714 0.608 0.0
C1245 C 0.3105 0.89031 0.58649 0.0
C1246 C 0.27074 0.88236 0.58353 0.0
C1247 C 0.25355 0.90075 0.59093 0.0
C1248 C 0.24653 0.8555 0.5728 0.0
C1249 C 0.3304 0.87014 0.57956 0.0
C1250 C 0.26239 0.86235 0.56062 0.0
C1251 C 0.23846 0.83914 0.55052 0.0
C1252 C 0.19782 0.80886 0.55227 0.0
C1253 C 0.18221 0.80145 0.56444 0.0
C1254 C 0.20623 0.82422 0.57455 0.0
H1255 H 0.35373 0.86845 0.58535 0.0
H1256 H 0.30786 0.83888 0.57657 0.0
H1257 H 0.34588 0.88842 0.57121 0.0
H1258 H 0.29277 0.88691 0.5588 0.0
H1259 H 0.25097 0.8466 0.54123 0.0
H1260 H 0.37411 0.22107 0.7084 0.0
H1261 H 0.37773 0.26079 0.72676 0.0
H1262 H 0.43242 0.20265 0.74744 0.0
H1263 H 0.42941 0.16317 0.72885 0.0
H1264 H 0.33909 0.23289 0.7484 0.0
H1265 H 0.50426 0.31884 0.75807 0.0
H1266 H 0.48409 0.29279 0.74356 0.0
H1267 H 0.48365 0.26483 0.75713 0.0
C1268 C 0.38788 0.21746 0.71677 0.0
C1269 C 0.40189 0.18917 0.71707 0.0
C1270 C 0.38965 0.24004 0.72734 0.0
C1271 C 0.4055 0.23522 0.73862 0.0
C1272 C 0.42076 0.20785 0.73887 0.0
H1273 H 0.43159 0.35115 0.8117 0.0
H1274 H 0.42602 0.30472 0.79494 0.0
C1275 C 0.41916 0.18525 0.7282 0.0
C1276 C 0.40359 0.25717 0.75012 0.0
H1277 H 0.46115 0.32351 0.77311 0.0
C1278 C 0.36592 0.25282 0.75375 0.0
C1279 C 0.43828 0.28308 0.75731 0.0
C1280 C 0.47993 0.29056 0.75379 0.0
C1281 C 0.36194 0.2732 0.76422 0.0
C1282 C 0.39673 0.29972 0.77128 0.0
C1283 C 0.43432 0.30352 0.76778 0.0
C1284 C 0.39514 0.32436 0.78212 0.0
C1285 C 0.32011 0.2652 0.76775 0.0
C1286 C 0.37883 0.35063 0.78083 0.0
C1287 C 0.38145 0.37681 0.79055 0.0
C1288 C 0.40032 0.37741 0.80186 0.0
C1289 C 0.41551 0.35038 0.80329 0.0
C1290 C 0.41287 0.32419 0.7936 0.0
H1291 H 0.29622 0.23515 0.76426 0.0
H1292 H 0.31685 0.26608 0.77797 0.0
H1293 H 0.31469 0.28883 0.76349 0.0
H1294 H 0.36618 0.35274 0.77203 0.0
H1295 H 0.37128 0.39863 0.78891 0.0
H1296 H 0.0786 0.48643 0.96227 0.0
H1297 H 0.12236 0.48552 0.9459 0.0
H1298 H 0.0792 0.35845 0.9532 0.0
H1299 H 0.0329 0.35903 0.96918 0.0
H1300 H 0.1833 0.47443 0.94505 0.0
H1301 H 0.06404 0.35136 0.91655 0.0
H1302 H 0.05211 0.37365 0.92955 0.0
H1303 H 0.0668 0.33559 0.93206 0.0
C1304 C 0.07773 0.45805 0.96022 0.0
C1305 C 0.05122 0.42261 0.9668 0.0
C1306 C 0.10328 0.45761 0.95091 0.0
C1307 C 0.10369 0.42165 0.94788 0.0
C1308 C 0.07874 0.38641 0.95493 0.0
H1309 H 0.26263 0.38474 0.89634 0.0
H1310 H 0.21046 0.37558 0.91157 0.0
C1311 C 0.05268 0.38684 0.96426 0.0
C1312 C 0.13081 0.42211 0.93751 0.0
H1313 H 0.13214 0.37644 0.91004 0.0
C1314 C 0.17183 0.45295 0.93741 0.0
C1315 C 0.11639 0.39441 0.92736 0.0
C1316 C 0.07237 0.36214 0.92627 0.0
C1317 C 0.19845 0.45672 0.92768 0.0
C1318 C 0.18408 0.42899 0.9176 0.0
C1319 C 0.14331 0.3978 0.91772 0.0
C1320 C 0.2114 0.43176 0.90705 0.0
C1321 C 0.24209 0.49026 0.92834 0.0
C1322 C 0.22832 0.46552 0.899 0.0
C1323 C 0.25766 0.47038 0.8901 0.0
C1324 C 0.27078 0.44159 0.88904 0.0
C1325 C 0.25245 0.40692 0.89671 0.0
C1326 C 0.22284 0.40186 0.90551 0.0
H1327 H 0.2505 0.50374 0.93778 0.0
H1328 H 0.26288 0.47876 0.92563 0.0
H1329 H 0.24674 0.51476 0.92175 0.0
H1330 H 0.21994 0.48896 0.8999 0.0
H1331 H 0.27192 0.49791 0.88458 0.0
H1332 H 0.71035 0.04151 0.13891 0.0
H1333 H 0.76049 0.08976 0.12404 0.0
H1334 H 0.67059 0.1172 0.10967 0.0
H1335 H 0.62128 0.06973 0.12444 0.0
H1336 H 0.75378 0.0892 0.09668 0.0
H1337 H 0.76887 0.23092 0.11699 0.0
H1338 H 0.74816 0.18387 0.1256 0.0
H1339 H 0.71762 0.19126 0.11425 0.0
C1340 C 0.70137 0.05796 0.13264 0.0
C1341 C 0.66131 0.05112 0.13284 0.0
C1342 C 0.73007 0.08555 0.12408 0.0
C1343 C 0.71968 0.10765 0.1157 0.0
C1344 C 0.67986 0.10112 0.11603 0.0
H1345 H 0.8478 0.29561 0.05832 0.0
H1346 H 0.79751 0.24634 0.07284 0.0
C1347 C 0.65133 0.07341 0.12444 0.0
C1348 C 0.74963 0.13671 0.10637 0.0
H1349 H 0.79893 0.2367 0.09723 0.0
C1350 C 0.76392 0.12151 0.09688 0.0
C1351 C 0.76245 0.17889 0.10638 0.0
C1352 C 0.74881 0.19742 0.11639 0.0
C1353 C 0.7899 0.14688 0.08738 0.0
C1354 C 0.80344 0.18933 0.08749 0.0
C1355 C 0.78894 0.20444 0.097 0.0
C1356 C 0.83343 0.21856 0.07811 0.0
C1357 C 0.8013 0.12739 0.07707 0.0
C1358 C 0.87074 0.21995 0.07606 0.0
C1359 C 0.89925 0.24766 0.06762 0.0
C1360 C 0.89211 0.27587 0.06104 0.0
C1361 C 0.85457 0.27435 0.06302 0.0
C1362 C 0.82579 0.24627 0.07147 0.0
H1363 H 0.77806 0.09486 0.07587 0.0
H1364 H 0.80499 0.14326 0.06809 0.0
H1365 H 0.83038 0.12862 0.07944 0.0
H1366 H 0.87835 0.19997 0.08117 0.0
H1367 H 0.92725 0.24702 0.06632 0.0
H1368 H 0.57736 0.6379 0.2958 0.0
H1369 H 0.58528 0.68837 0.28062 0.0
H1370 H 0.71532 0.74546 0.28399 0.0
H1371 H 0.70758 0.69356 0.29927 0.0
H1372 H 0.61839 0.76985 0.28247 0.0
H1373 H 0.70037 0.73368 0.2464 0.0
H1374 H 0.67573 0.70065 0.25946 0.0
H1375 H 0.72406 0.74585 0.26144 0.0
C1376 C 0.60795 0.66113 0.29348 0.0
C1377 C 0.64192 0.66146 0.29905 0.0
C1378 C 0.61233 0.69025 0.28468 0.0
C1379 C 0.65083 0.72091 0.28096 0.0
C1380 C 0.68511 0.72186 0.2865 0.0
H1381 H 0.72019 0.92099 0.22785 0.0
H1382 H 0.71877 0.87173 0.24283 0.0
C1383 C 0.68071 0.69241 0.29541 0.0
C1384 C 0.65403 0.75163 0.27144 0.0
H1385 H 0.68891 0.7886 0.24222 0.0
C1386 C 0.6339 0.7739 0.27369 0.0
C1387 C 0.674 0.75709 0.25987 0.0
C1388 C 0.6945 0.73287 0.25654 0.0
C1389 C 0.63344 0.80135 0.26487 0.0
C1390 C 0.65305 0.80656 0.25325 0.0
C1391 C 0.67364 0.78469 0.25104 0.0
C1392 C 0.65338 0.83529 0.24347 0.0
C1393 C 0.6125 0.82517 0.26822 0.0
C1394 C 0.61713 0.83106 0.23842 0.0
C1395 C 0.61782 0.85948 0.22978 0.0
C1396 C 0.65481 0.89303 0.22597 0.0
C1397 C 0.69102 0.89616 0.23069 0.0
C1398 C 0.6903 0.86773 0.23925 0.0
H1399 H 0.60838 0.82583 0.27842 0.0
H1400 H 0.62994 0.85697 0.2648 0.0
H1401 H 0.58202 0.81063 0.26384 0.0
H1402 H 0.58815 0.80592 0.24124 0.0
H1403 H 0.5893 0.85586 0.22641 0.0
H1404 H 0.96412 0.58979 0.47094 0.0
H1405 H 0.92364 0.59703 0.45468 0.0
H1406 H 1.02413 0.71473 0.44527 0.0
H1407 H 0.06554 0.707 0.46164 0.0
H1408 H 0.89556 0.64627 0.44965 0.0
H1409 H 1.00141 0.66154 0.41185 0.0
H1410 H 1.00998 0.65246 0.4277 0.0
H1411 H 1.02271 0.70276 0.42278 0.0
C1412 C 0.97761 0.61765 0.46556 0.0
C1413 C 1.01825 0.64782 0.46764 0.0
C1414 C 0.95426 0.62173 0.45619 0.0
C1415 C 0.97071 0.65597 0.4484 0.0
C1416 C 1.01075 0.68739 0.45086 0.0
H1417 H 0.87005 0.71325 0.38322 0.0
H1418 H 0.91239 0.71061 0.39981 0.0
C1419 C 0.03432 0.68334 0.46038 0.0
C1420 C 0.9456 0.6575 0.43772 0.0
H1421 H 0.94292 0.66502 0.40601 0.0
C1422 C 0.90605 0.65037 0.44011 0.0
C1423 C 0.95883 0.66289 0.42517 0.0
C1424 C 1.00037 0.66996 0.42168 0.0
C1425 C 0.87988 0.64888 0.4305 0.0
C1426 C 0.89277 0.65344 0.41794 0.0
C1427 C 0.93247 0.66099 0.41555 0.0
C1428 C 0.86661 0.65283 0.40723 0.0
C1429 C 0.83904 0.64366 0.43403 0.0
C1430 C 0.82667 0.62051 0.40533 0.0
C1431 C 0.80188 0.62214 0.39578 0.0
C1432 C 0.81647 0.65603 0.38782 0.0
C1433 C 0.85724 0.68697 0.38928 0.0
C1434 C 0.88175 0.68544 0.3988 0.0
H1435 H 0.83849 0.65234 0.44386 0.0
H1436 H 0.83077 0.66227 0.428 0.0
H1437 H 0.81558 0.61122 0.43294 0.0
H1438 H 0.81433 0.59419 0.41136 0.0
H1439 H 0.77083 0.59768 0.39497 0.0
H1440 H 0.56512 0.62807 0.35594 0.0
H1441 H 0.54489 0.67965 0.36053 0.0
H1442 H 0.54291 0.70173 0.32141 0.0
H1443 H 0.56332 0.65122 0.31688 0.0
H1444 H 0.57891 0.76359 0.35587 0.0
H1445 H 0.43314 0.68589 0.33061 0.0
H1446 H 0.46207 0.66094 0.33411 0.0
H1447 H 0.47562 0.69501 0.32108 0.0
C1448 C 0.56083 0.64411 0.34829 0.0
C1449 C 0.56687 0.63509 0.33595 0.0
C1450 C 0.54889 0.67383 0.35094 0.0
C1451 C 0.54139 0.6952 0.34138 0.0
C1452 C 0.54726 0.6859 0.32912 0.0
H1453 H 0.46166 0.88311 0.33587 0.0
H1454 H 0.48066 0.83037 0.33195 0.0
C1455 C 0.55937 0.65664 0.3265 0.0
C1456 C 0.52797 0.72712 0.34406 0.0
H1457 H 0.45533 0.75397 0.33686 0.0
C1458 C 0.55162 0.76102 0.35176 0.0
C1459 C 0.49259 0.72529 0.33872 0.0
C1460 C 0.46414 0.68968 0.33077 0.0
C1461 C 0.54185 0.79259 0.35397 0.0
C1462 C 0.50622 0.79061 0.34872 0.0
C1463 C 0.48258 0.75661 0.34102 0.0
C1464 C 0.493 0.82291 0.35114 0.0
C1465 C 0.57127 0.82879 0.36157 0.0
C1466 C 0.4916 0.83666 0.36325 0.0
C1467 C 0.48071 0.86707 0.36549 0.0
C1468 C 0.47004 0.88533 0.3558 0.0
C1469 C 0.46955 0.8704 0.34369 0.0
C1470 C 0.48074 0.83995 0.34143 0.0
H1471 H 0.60238 0.83291 0.36119 0.0
H1472 H 0.57261 0.85728 0.3583 0.0
H1473 H 0.56152 0.82381 0.37143 0.0
H1474 H 0.49872 0.82366 0.37116 0.0
H1475 H 0.48029 0.87608 0.37499 0.0
H1476 H 0.62449 0.45 0.5377 0.0
H1477 H 0.69483 0.46995 0.53265 0.0
H1478 H 0.67496 0.49339 0.49489 0.0
H1479 H 0.60451 0.47444 0.50007 0.0
H1480 H 0.73378 0.44473 0.51876 0.0
H1481 H 0.77682 0.59724 0.50044 0.0
H1482 H 0.72933 0.56592 0.50824 0.0
H1483 H 0.73519 0.55723 0.49212 0.0
C1484 C 0.63485 0.45937 0.52827 0.0
C1485 C 0.60798 0.46065 0.51939 0.0
C1486 C 0.67563 0.47086 0.52535 0.0
C1487 C 0.69196 0.48447 0.51337 0.0
C1488 C 0.66467 0.48446 0.50433 0.0
H1489 H 0.9302 0.5045 0.49096 0.0
H1490 H 0.85823 0.48157 0.49455 0.0
C1491 C 0.62366 0.47285 0.50726 0.0
C1492 C 0.73688 0.49805 0.51054 0.0
H1493 H 0.82547 0.5757 0.49815 0.0
C1494 C 0.75353 0.47342 0.51422 0.0
C1495 C 0.76424 0.53583 0.50479 0.0
C1496 C 0.75074 0.56585 0.50126 0.0
C1497 C 0.79513 0.48485 0.51228 0.0
C1498 C 0.82215 0.52211 0.50622 0.0
C1499 C 0.80565 0.54694 0.50266 0.0
C1500 C 0.86741 0.53634 0.50382 0.0
C1501 C 0.8099 0.45712 0.5172 0.0
C1502 C 0.89831 0.57564 0.50732 0.0
C1503 C 0.94005 0.58905 0.50516 0.0
C1504 C 0.95323 0.56403 0.49935 0.0
C1505 C 0.92225 0.52494 0.49565 0.0
C1506 C 0.88046 0.51149 0.4978 0.0
H1507 H 0.78997 0.43715 0.52473 0.0
H1508 H 0.80962 0.43724 0.50958 0.0
H1509 H 0.84132 0.47476 0.52086 0.0
H1510 H 0.89023 0.59623 0.51185 0.0
H1511 H 0.96198 0.6195 0.50792 0.0
H1512 H 0.37799 0.94515 0.68197 0.0
H1513 H 0.32824 0.87338 0.68532 0.0
H1514 H 0.35867 0.84388 0.64969 0.0
H1515 H 0.40968 0.91535 0.64665 0.0
H1516 H 0.26171 0.81868 0.67675 0.0
H1517 H 0.36314 0.75621 0.66701 0.0
H1518 H 0.38207 0.81014 0.66811 0.0
H1519 H 0.35974 0.78323 0.65384 0.0
C1520 C 0.37435 0.92358 0.67483 0.0
C1521 C 0.39883 0.93712 0.66405 0.0
C1522 C 0.34548 0.88186 0.67676 0.0
C1523 C 0.33935 0.85138 0.66799 0.0
C1524 C 0.363 0.86522 0.65702 0.0
H1525 H 0.14696 0.58514 0.66493 0.0
H1526 H 0.19658 0.65622 0.6593 0.0
C1527 C 0.39233 0.90683 0.65519 0.0
C1528 C 0.30806 0.80599 0.67024 0.0
H1529 H 0.29279 0.70796 0.66853 0.0
C1530 C 0.26903 0.79485 0.67494 0.0
C1531 C 0.31622 0.77335 0.66808 0.0
C1532 C 0.35767 0.78131 0.66412 0.0
C1533 C 0.23898 0.7536 0.67732 0.0
C1534 C 0.24696 0.72124 0.67492 0.0
C1535 C 0.28572 0.73205 0.67021 0.0
C1536 C 0.21653 0.67673 0.6781 0.0
C1537 C 0.19844 0.74464 0.68246 0.0
C1538 C 0.21073 0.66321 0.6905 0.0
C1539 C 0.18288 0.62242 0.6937 0.0
C1540 C 0.15863 0.59294 0.68471 0.0
C1541 C 0.1646 0.60628 0.67222 0.0
C1542 C 0.19315 0.64733 0.66898 0.0
H1543 H 0.19455 0.77189 0.68245 0.0
H1544 H 0.17354 0.72014 0.67697 0.0
H1545 H 0.19562 0.73359 0.69216 0.0
H1546 H 0.22805 0.68438 0.69783 0.0
H1547 H 0.18042 0.61403 0.70339 0.0
H1548 H 0.46483 0.3765 0.8497 0.0
H1549 H 0.48804 0.32754 0.85357 0.0
H1550 H 0.54886 0.35726 0.81817 0.0
H1551 H 0.52724 0.4076 0.81458 0.0
H1552 H 0.47655 0.26048 0.84481 0.0
H1553 H 0.63995 0.36226 0.8364 0.0
H1554 H 0.6048 0.38126 0.83715 0.0
H1555 H 0.61058 0.35907 0.82299 0.0
C1556 C 0.48357 0.37323 0.84277 0.0
C1557 C 0.49438 0.39729 0.83188 0.0
C1558 C 0.49693 0.34466 0.84498 0.0
C1559 C 0.52161 0.33842 0.83639 0.0
C1560 C 0.53153 0.36176 0.82535 0.0
H1561 H 0.61076 0.15704 0.83411 0.0
H1562 H 0.59046 0.20789 0.82861 0.0
C1563 C 0.51867 0.39076 0.82322 0.0
C1564 C 0.5357 0.30706 0.83887 0.0
H1565 H 0.61837 0.29169 0.83799 0.0
C1566 C 0.50773 0.26783 0.84334 0.0
C1567 C 0.57643 0.31525 0.83707 0.0
C1568 C 0.60974 0.35684 0.83327 0.0
C1569 C 0.51878 0.23751 0.84586 0.0
C1570 C 0.55927 0.24568 0.84395 0.0
C1571 C 0.58723 0.2846 0.83939 0.0
C1572 C 0.57322 0.21495 0.84722 0.0
C1573 C 0.48656 0.19636 0.8504 0.0
C1574 C 0.57175 0.2019 0.85956 0.0
C1575 C 0.58402 0.17329 0.86275 0.0
C1576 C 0.59779 0.15551 0.85376 0.0
C1577 C 0.60021 0.16925 0.8414 0.0
C1578 C 0.58841 0.19856 0.83822 0.0
H1579 H 0.45549 0.19125 0.84864 0.0
H1580 H 0.48968 0.1717 0.84583 0.0
H1581 H 0.49009 0.19421 0.86056 0.0
H1582 H 0.56127 0.21416 0.86687 0.0
H1583 H 0.58268 0.16515 0.87242 0.0
H1584 H 0.12416 0.51743 0.98602 0.0
H1585 H 0.19442 0.53692 0.99059 0.0
H1586 H 0.15869 0.48179 0.02673 0.0
H1587 H 0.08755 0.46111 0.02201 0.0
H1588 H 0.25087 0.58456 1.00496 0.0
H1589 H 0.22673 0.43362 0.01876 0.0
H1590 H 0.18658 0.4401 0.01218 0.0
H1591 H 0.19891 0.44977 0.02845 0.0
C1592 C 0.1308 0.50924 0.99501 0.0
C1593 C 0.09887 0.48715 1.00356 0.0
C1594 C 0.17175 0.52059 0.99764 0.0
C1595 C 0.18344 0.51059 1.00899 0.0
C1596 C 0.15168 0.48919 0.0177 0.0
H1597 H 0.42055 0.56492 0.04211 0.0
H1598 H 0.3501 0.54537 0.03761 0.0
C1599 C 0.1104 0.47749 0.01502 0.0
C1600 C 0.22848 0.5234 0.01157 0.0
H1601 H 0.29258 0.4896 0.0224 0.0
C1602 C 0.25958 0.56336 1.0087 0.0
C1603 C 0.24161 0.49668 0.01645 0.0
C1604 C 0.2118 0.45257 0.01902 0.0
C1605 C 0.30171 0.57714 0.01074 0.0
C1606 C 0.31472 0.55054 0.01572 0.0
C1607 C 0.28373 0.51064 0.01861 0.0
C1608 C 0.35967 0.56354 0.01832 0.0
C1609 C 0.33195 0.62085 1.00783 0.0
C1610 C 0.39052 0.58073 1.00914 0.0
C1611 C 0.43164 0.59153 0.01172 0.0
C1612 C 0.44386 0.58557 0.0236 0.0
C1613 C 0.41305 0.56918 0.03276 0.0
C1614 C 0.37215 0.55809 0.03018 0.0
H1615 H 0.31731 0.64004 1.00739 0.0
H1616 H 0.3565 0.63386 0.01489 0.0
H1617 H 0.3459 0.62237 0.99864 0.0
H1618 H 0.38272 0.58495 0.9998 0.0
H1619 H 0.45364 0.60349 1.00426 0.0
H1620 H 0.90344 0.451 0.16833 0.0
H1621 H 0.85053 0.38004 0.16426 0.0
H1622 H 0.83713 0.35711 0.20361 0.0
H1623 H 0.88665 0.42788 0.2076 0.0
H1624 H 0.83757 0.30769 0.16634 0.0
H1625 H 0.72186 0.30365 0.19803 0.0
H1626 H 0.76774 0.35036 0.19474 0.0
H1627 H 0.76702 0.31606 0.20656 0.0
C1628 C 0.88874 0.43111 0.17615 0.0
C1629 C 0.90037 0.44641 0.18838 0.0
C1630 C 0.85824 0.38982 0.1738 0.0
C1631 C 0.83767 0.36161 0.18355 0.0
C1632 C 0.85007 0.37704 0.19571 0.0
H1633 H 0.66026 0.09153 0.18819 0.0
H1634 H 0.7128 0.16276 0.19231 0.0
C1635 C 0.87974 0.4182 0.19803 0.0
C1636 C 0.80445 0.31658 0.18111 0.0
H1637 H 0.71113 0.23907 0.19114 0.0
C1638 C 0.80993 0.29325 0.17178 0.0
C1639 C 0.76721 0.29584 0.18794 0.0
C1640 C 0.75538 0.3179 0.19727 0.0
C1641 C 0.781 0.25139 0.16939 0.0
C1642 C 0.74448 0.23059 0.17644 0.0
C1643 C 0.73886 0.25374 0.18573 0.0
C1644 C 0.71147 0.18581 0.17401 0.0
C1645 C 0.79036 0.22938 0.15937 0.0
C1646 C 0.69156 0.17335 0.16241 0.0
C1647 C 0.66091 0.13252 0.1601 0.0
C1648 C 0.64843 0.10142 0.16919 0.0
C1649 C 0.66836 0.11374 0.18083 0.0
C1650 C 0.69877 0.15501 0.18322 0.0
H1651 H 0.82319 0.24522 0.15704 0.0
H1652 H 0.78094 0.19772 0.16222 0.0
H1653 H 0.77332 0.22802 0.15083 0.0
H1654 H 0.69942 0.19549 0.15505 0.0
H1655 H 0.64718 0.12525 0.15096 0.0
H1656 H 0.19001 0.58437 0.48187 0.0
H1657 H 0.23831 0.56219 0.48749 0.0
H1658 H 0.22039 0.57748 0.52619 0.0
H1659 H 0.17001 0.59774 0.52053 0.0
H1660 H 0.30835 0.59339 0.49736 0.0
H1661 H 0.21204 0.46995 0.52981 0.0
H1662 H 0.19189 0.49512 0.52033 0.0
H1663 H 0.21832 0.51816 0.53457 0.0
C1664 C 0.19557 0.58248 0.49163 0.0
C1665 C 0.17463 0.59235 0.50066 0.0
C1666 C 0.22395 0.56993 0.49489 0.0
C1667 C 0.23337 0.56674 0.50738 0.0
C1668 C 0.21348 0.57789 0.51647 0.0
H1669 H 0.40989 0.50227 0.54207 0.0
H1670 H 0.36009 0.52464 0.53794 0.0
C1671 C 0.18467 0.59023 0.51319 0.0
C1672 C 0.26451 0.55298 0.51063 0.0
H1673 H 0.28145 0.48757 0.52887 0.0
C1674 C 0.30198 0.57005 0.50424 0.0
C1675 C 0.25754 0.52238 0.5196 0.0
C1676 C 0.21765 0.50001 0.52639 0.0
C1677 C 0.33186 0.55832 0.50656 0.0
C1678 C 0.32491 0.5278 0.51552 0.0
C1679 C 0.28766 0.51093 0.52202 0.0
C1680 C 0.35555 0.51303 0.51816 0.0
C1681 C 0.37133 0.57974 0.49952 0.0
C1682 C 0.37026 0.49799 0.50862 0.0
C1683 C 0.39896 0.48498 0.511 0.0
C1684 C 0.41442 0.48616 0.52305 0.0
C1685 C 0.39938 0.50082 0.53263 0.0
C1686 C 0.37044 0.51362 0.53026 0.0
H1687 H 0.37716 0.6097 0.49592 0.0
H1688 H 0.39731 0.58457 0.50545 0.0
H1689 H 0.36985 0.56082 0.49144 0.0
H1690 H 0.35934 0.49598 0.49921 0.0
H1691 H 0.4094 0.47448 0.50327 0.0
H1692 H 0.617 0.18314 0.64827 0.0
H1693 H 0.68673 0.23547 0.65276 0.0
H1694 H 0.66947 0.19989 0.69128 0.0
H1695 H 0.59838 0.14932 0.68686 0.0
H1696 H 0.71776 0.27378 0.69216 0.0
H1697 H 0.78426 0.22845 0.65427 0.0
H1698 H 0.7505 0.24405 0.64789 0.0
H1699 H 0.73111 0.20001 0.6579 0.0
C1700 C 0.6278 0.18656 0.65775 0.0
C1701 C 0.60118 0.16149 0.66715 0.0
C1702 C 0.66854 0.21645 0.66033 0.0
C1703 C 0.68555 0.2218 0.67237 0.0
C1704 C 0.65851 0.19721 0.68185 0.0
H1705 H 0.95556 0.3556 0.68074 0.0
H1706 H 0.88404 0.30612 0.6773 0.0
C1707 C 0.61727 0.16796 0.67931 0.0
C1708 C 0.73068 0.2529 0.67506 0.0
H1709 H 0.82798 0.29274 0.66355 0.0
C1710 C 0.74164 0.27744 0.68587 0.0
C1711 C 0.76349 0.25834 0.66725 0.0
C1712 C 0.75684 0.231 0.65627 0.0
C1713 C 0.78272 0.30653 0.68888 0.0
C1714 C 0.81518 0.31371 0.68064 0.0
C1715 C 0.80423 0.28878 0.66995 0.0
C1716 C 0.86033 0.34536 0.68301 0.0
C1717 C 0.79059 0.32789 0.70125 0.0
C1718 C 0.87319 0.38538 0.68732 0.0
C1719 C 0.91478 0.41387 0.68958 0.0
C1720 C 0.94584 0.40434 0.68722 0.0
C1721 C 0.93323 0.36486 0.68258 0.0
C1722 C 0.89165 0.33611 0.6806 0.0
H1723 H 0.76635 0.30948 0.70806 0.0
H1724 H 0.82012 0.33415 0.70525 0.0
H1725 H 0.79072 0.35709 0.70002 0.0
H1726 H 0.85113 0.39516 0.68885 0.0
H1727 H 0.92264 0.44377 0.69304 0.0
H1728 H 0.59518 0.9422 0.83652 0.0
H1729 H 0.57398 0.87041 0.83287 0.0
H1730 H 0.52963 0.84244 0.87046 0.0
H1731 H 0.54982 0.91398 0.87392 0.0
H1732 H 0.59196 0.81751 0.84027 0.0
H1733 H 0.43304 0.75331 0.85556 0.0
H1734 H 0.46608 0.80729 0.85389 0.0
H1735 H 0.4675 0.78148 0.86782 0.0
C1736 C 0.58122 0.92096 0.84406 0.0
C1737 C 0.57463 0.93477 0.85555 0.0
C1738 C 0.56865 0.87928 0.84194 0.0
C1739 C 0.54887 0.84933 0.85122 0.0
C1740 C 0.54308 0.86345 0.86281 0.0
H1741 H 0.48067 0.58467 0.85398 0.0
H1742 H 0.50121 0.6558 0.85947 0.0
C1743 C 0.55511 0.90499 0.86486 0.0
C1744 C 0.53535 0.80414 0.84883 0.0
H1745 H 0.45616 0.70577 0.85237 0.0
C1746 C 0.56208 0.79342 0.84291 0.0
C1747 C 0.49627 0.7713 0.85212 0.0
C1748 C 0.46395 0.77888 0.85757 0.0
C1749 C 0.5514 0.75227 0.8404 0.0
C1750 C 0.51277 0.7197 0.84385 0.0
C1751 C 0.48602 0.73011 0.84981 0.0
C1752 C 0.49916 0.67522 0.84071 0.0
C1753 C 0.58191 0.74365 0.83414 0.0
C1754 C 0.49016 0.6611 0.82838 0.0
C1755 C 0.47769 0.62023 0.82526 0.0
C1756 C 0.47432 0.59144 0.83427 0.0
C1757 C 0.48283 0.60537 0.84669 0.0
C1758 C 0.49478 0.64641 0.84985 0.0
H1759 H 0.61231 0.77123 0.83343 0.0
H1760 H 0.58478 0.71986 0.83936 0.0
H1761 H 0.57121 0.73183 0.82463 0.0
H1762 H 0.49258 0.68183 0.82106 0.0
H1763 H 0.47063 0.61119 0.81565 0.0
H1764 H 0.62508 0.51242 0.03726 0.0
H1765 H 0.67656 0.49233 0.03355 0.0
H1766 H 0.73097 0.58441 1.00534 0.0
H1767 H 0.67947 0.60446 1.00903 0.0
H1768 H 0.72854 0.51463 0.99735 0.0
H1769 H 0.79341 0.5448 0.04472 0.0
H1770 H 0.73976 0.51009 0.04434 0.0
H1771 H 0.7591 0.56206 0.0396 0.0
C1772 C 0.64794 0.5287 0.03025 0.0
C1773 C 0.6474 0.56067 0.02353 0.0
C1774 C 0.67801 0.51723 0.02819 0.0
C1775 C 0.70905 0.53695 0.01924 0.0
C1776 C 0.70812 0.56837 0.01237 0.0
H1777 H 0.93583 0.5193 0.01501 0.0
H1778 H 0.88374 0.53877 0.01884 0.0
C1779 C 0.6783 0.58011 0.01453 0.0
C1780 C 0.74164 0.52454 0.01687 0.0
H1781 H 0.81597 0.51097 0.03098 0.0
C1782 C 0.74755 0.51394 1.00477 0.0
C1783 C 0.76753 0.52362 0.02633 0.0
C1784 C 0.76504 0.53609 0.03946 0.0
C1785 C 0.77717 0.50221 1.00196 0.0
C1786 C 0.80262 0.50045 0.01145 0.0
C1787 C 0.79708 0.51171 0.02353 0.0
C1788 C 0.83522 0.48788 1.00907 0.0
C1789 C 0.78115 0.49265 0.98862 0.0
C1790 C 0.82671 0.45208 1.00247 0.0
C1791 C 0.85704 0.44117 1.00011 0.0
C1792 C 0.89747 0.46534 1.00428 0.0
C1793 C 0.9057 0.50025 0.01129 0.0
C1794 C 0.8754 0.51128 0.0136 0.0
H1795 H 0.77142 0.50906 0.98213 0.0
H1796 H 0.81273 0.5008 0.98635 0.0
H1797 H 0.76127 0.45956 0.987 0.0
H1798 H 0.79627 0.43209 0.99912 0.0
H1799 H 0.84881 0.41381 0.99482 0.0
H1800 H 0.45062 0.93716 0.18272 0.0
H1801 H 0.3793 0.88589 0.18637 0.0
H1802 H 0.3938 0.80089 0.16332 0.0
H1803 H 0.46499 0.85246 0.15954 0.0
H1804 H 0.32113 0.79246 0.15823 0.0
H1805 H 0.32854 0.79119 0.20942 0.0
H1806 H 0.3434 0.84076 0.20333 0.0
H1807 H 0.37349 0.81706 0.19997 0.0
C1808 C 0.43884 0.90757 0.17842 0.0
C1809 C 0.46458 0.89979 0.17074 0.0
C1810 C 0.39754 0.87762 0.18064 0.0
C1811 C 0.37969 0.83808 0.17536 0.0
C1812 C 0.40554 0.83042 0.16767 0.0
H1813 H 0.1456 0.6246 0.20118 0.0
H1814 H 0.21647 0.6764 0.19737 0.0
C1815 C 0.44692 0.86023 0.16555 0.0
C1816 C 0.33465 0.80528 0.17765 0.0
H1817 H 0.26275 0.75504 0.20051 0.0
C1818 C 0.30871 0.78453 0.16753 0.0
C1819 C 0.31693 0.79327 0.1897 0.0
C1820 C 0.34204 0.81137 0.20124 0.0
C1821 C 0.26705 0.75379 0.16903 0.0
C1822 C 0.24897 0.74262 0.18108 0.0
C1823 C 0.27513 0.76291 0.1912 0.0
C1824 C 0.20388 0.7098 0.18338 0.0
C1825 C 0.24319 0.73264 0.15754 0.0
C1826 C 0.17101 0.70989 0.17709 0.0
C1827 C 0.12978 0.67972 0.17929 0.0
C1828 C 0.11884 0.64768 0.18792 0.0
C1829 C 0.15168 0.6479 0.19433 0.0
C1830 C 0.19291 0.67813 0.19217 0.0
H1831 H 0.26345 0.73478 0.14977 0.0
H1832 H 0.2216 0.70002 0.15935 0.0
H1833 H 0.2257 0.74749 0.15447 0.0
H1834 H 0.17699 0.73392 0.17055 0.0
H1835 H 0.10638 0.68198 0.17424 0.0
H1836 H 0.53236 0.44272 0.34504 0.0
H1837 H 0.51321 0.37148 0.34909 0.0
H1838 H 0.63278 0.39678 0.33843 0.0
H1839 H 0.65167 0.46793 0.33398 0.0
H1840 H 0.51511 0.31021 0.33154 0.0
H1841 H 0.61254 0.33533 0.37277 0.0
H1842 H 0.5982 0.37218 0.36782 0.0
H1843 H 0.63629 0.367 0.35944 0.0
C1844 C 0.55482 0.43341 0.34352 0.0
C1845 C 0.5937 0.46208 0.33897 0.0
C1846 C 0.54369 0.39212 0.34589 0.0
C1847 C 0.57115 0.3774 0.34414 0.0
C1848 C 0.61052 0.40632 0.34 0.0
H1849 H 0.5584 0.13799 0.36056 0.0
H1850 H 0.57921 0.2095 0.35634 0.0
C1851 C 0.62151 0.44759 0.33748 0.0
C1852 C 0.55843 0.33223 0.34644 0.0
H1853 H 0.57556 0.26826 0.36528 0.0
C1854 C 0.52844 0.30125 0.33895 0.0
C1855 C 0.57548 0.3192 0.35598 0.0
C1856 C 0.60725 0.34992 0.36456 0.0
C1857 C 0.51601 0.25904 0.34049 0.0
C1858 C 0.53219 0.24564 0.3503 0.0
C1859 C 0.56232 0.27691 0.35777 0.0
C1860 C 0.51885 0.20017 0.35289 0.0
C1861 C 0.48677 0.22961 0.33108 0.0
C1862 C 0.47762 0.16892 0.35272 0.0
C1863 C 0.46571 0.12734 0.35493 0.0
C1864 C 0.49403 0.11445 0.35777 0.0
C1865 C 0.53513 0.14572 0.35837 0.0
C1866 C 0.5472 0.1873 0.35594 0.0
H1867 H 0.48899 0.24492 0.32207 0.0
H1868 H 0.49244 0.20389 0.32935 0.0
H1869 H 0.45528 0.21741 0.33452 0.0
H1870 H 0.45401 0.17652 0.35109 0.0
H1871 H 0.4338 0.10536 0.35476 0.0
H1872 H 0.20222 0.73187 0.47661 0.0
H1873 H 0.24734 0.77654 0.4602 0.0
H1874 H 0.17172 0.69036 0.43242 0.0
H1875 H 0.12684 0.6455 0.44865 0.0
H1876 H 0.2899 0.75545 0.44045 0.0
H1877 H 0.18324 0.80216 0.42105 0.0
H1878 H 0.17798 0.78204 0.43658 0.0
H1879 H 0.16339 0.74852 0.42344 0.0
C1880 C 0.19511 0.72232 0.46702 0.0
C1881 C 0.16067 0.68475 0.46407 0.0
C1882 C 0.22105 0.74799 0.45761 0.0
C1883 C 0.21293 0.73722 0.44498 0.0
C1884 C 0.17862 0.69979 0.44202 0.0
H1885 H 0.32767 0.86381 0.37475 0.0
H1886 H 0.28164 0.8164 0.39051 0.0
C1887 C 0.15301 0.67394 0.4514 0.0
C1888 C 0.24052 0.76459 0.43491 0.0
H1889 H 0.24488 0.82424 0.41029 0.0
C1890 C 0.28008 0.77061 0.4339 0.0
C1891 C 0.22778 0.78404 0.42617 0.0
C1892 C 0.1859 0.77926 0.42683 0.0
C1893 C 0.30688 0.79494 0.4244 0.0
C1894 C 0.29459 0.81536 0.4158 0.0
C1895 C 0.25478 0.80898 0.41678 0.0
C1896 C 0.32281 0.84412 0.40599 0.0
C1897 C 0.34772 0.79728 0.42349 0.0
C1898 C 0.36134 0.87628 0.40926 0.0
C1899 C 0.38789 0.903 0.40024 0.0
C1900 C 0.37669 0.89925 0.38759 0.0
C1901 C 0.33771 0.86768 0.38432 0.0
C1902 C 0.31121 0.8405 0.39339 0.0
H1903 H 0.34691 0.7699 0.42757 0.0
H1904 H 0.35802 0.80026 0.4137 0.0
H1905 H 0.37039 0.8241 0.42879 0.0
H1906 H 0.37092 0.88118 0.41887 0.0
H1907 H 0.41713 0.92724 0.4033 0.0
H1908 H 0.45811 0.30865 0.54555 0.0
H1909 H 0.45721 0.26195 0.56154 0.0
H1910 H 0.54281 0.364 0.58338 0.0
H1911 H 0.54442 0.41064 0.56746 0.0
H1912 H 0.56338 0.30518 0.58312 0.0
H1913 H 0.40017 0.23524 0.59485 0.0
H1914 H 0.40956 0.231 0.57872 0.0
H1915 H 0.42594 0.28035 0.58539 0.0
C1916 C 0.47686 0.32125 0.55373 0.0
C1917 C 0.50128 0.36374 0.55509 0.0
C1918 C 0.47603 0.29439 0.56298 0.0
C1919 C 0.49941 0.30916 0.5739 0.0
C1920 C 0.52428 0.35149 0.57515 0.0
H1921 H 0.47134 0.17418 0.64337 0.0
H1922 H 0.47242 0.22044 0.6272 0.0
C1923 C 0.52511 0.37829 0.56596 0.0
C1924 C 0.49875 0.28094 0.58394 0.0
H1925 H 0.43635 0.20575 0.60417 0.0
C1926 C 0.53552 0.28346 0.5877 0.0
C1927 C 0.46266 0.25282 0.59017 0.0
C1928 C 0.42237 0.24983 0.58719 0.0
C1929 C 0.53715 0.25863 0.59725 0.0
C1930 C 0.50091 0.22964 0.60322 0.0
C1931 C 0.46419 0.22752 0.5996 0.0
C1932 C 0.50054 0.20141 0.6132 0.0
C1933 C 0.57801 0.26445 0.60104 0.0
C1934 C 0.51561 0.1747 0.61085 0.0
C1935 C 0.51518 0.14825 0.62012 0.0
C1936 C 0.49942 0.14737 0.63207 0.0
C1937 C 0.48406 0.17398 0.63438 0.0
C1938 C 0.48449 0.20045 0.62508 0.0
H1939 H 0.60304 0.2949 0.59829 0.0
H1940 H 0.57959 0.26093 0.61123 0.0
H1941 H 0.58309 0.24121 0.59634 0.0
H1942 H 0.52732 0.17384 0.60175 0.0
H1943 H 0.52691 0.12812 0.61781 0.0
H1944 H 0.31342 0.44637 0.80968 0.0
H1945 H 0.26626 0.4453 0.79382 0.0
H1946 H 0.36667 0.51437 0.76913 0.0
H1947 H 0.41372 0.51625 0.78485 0.0
H1948 H 0.31567 0.5441 0.76884 0.0
H1949 H 0.22626 0.37694 0.76261 0.0
H1950 H 0.22719 0.39332 0.77832 0.0
H1951 H 0.27339 0.40126 0.77115 0.0
C1952 C 0.32552 0.46139 0.80089 0.0
C1953 C 0.36768 0.48135 0.79867 0.0
C1954 C 0.29837 0.46044 0.79174 0.0
C1955 C 0.31255 0.47919 0.78009 0.0
C1956 C 0.35461 0.49949 0.77795 0.0
H1957 H 0.17064 0.4447 0.71177 0.0
H1958 H 0.21572 0.44373 0.728 0.0
C1959 C 0.38165 0.50047 0.78704 0.0
C1960 C 0.28421 0.47878 0.77017 0.0
H1961 H 0.20231 0.41614 0.75205 0.0
C1962 C 0.29089 0.51603 0.76521 0.0
C1963 C 0.2521 0.44231 0.76516 0.0
C1964 C 0.24442 0.40115 0.76947 0.0
C1965 C 0.26644 0.51788 0.7556 0.0
C1966 C 0.23353 0.48147 0.75085 0.0
C1967 C 0.22714 0.44416 0.75569 0.0
C1968 C 0.20554 0.48164 0.74092 0.0
C1969 C 0.2769 0.55901 0.75043 0.0
C1970 C 0.18405 0.50273 0.7427 0.0
C1971 C 0.15842 0.50354 0.73341 0.0
C1972 C 0.15302 0.48294 0.72202 0.0
C1973 C 0.17405 0.46122 0.72032 0.0
C1974 C 0.19984 0.4605 0.72965 0.0
H1975 H 0.30905 0.58201 0.75229 0.0
H1976 H 0.27161 0.55748 0.74025 0.0
H1977 H 0.25748 0.56966 0.75493 0.0
H1978 H 0.18683 0.51847 0.75136 0.0
H1979 H 0.14261 0.52028 0.73524 0.0
H1980 H 0.7439 0.17615 0.8774 0.0
H1981 H 0.78777 0.2246 0.89327 0.0
H1982 H 0.688 0.1756 0.91911 0.0
H1983 H 0.64429 0.12694 0.90347 0.0
H1984 H 0.78346 0.28534 0.90604 0.0
H1985 H 0.7743 0.17066 0.93979 0.0
H1986 H 0.75684 0.15773 0.92398 0.0
H1987 H 0.72549 0.16347 0.93544 0.0
C1988 C 0.7312 0.17555 0.88646 0.0
C1989 C 0.6903 0.14714 0.88906 0.0
C1990 C 0.75644 0.20342 0.89557 0.0
C1991 C 0.74171 0.20354 0.90758 0.0
C1992 C 0.70073 0.17573 0.9101 0.0
H1993 H 0.84356 0.34694 0.97583 0.0
H1994 H 0.79949 0.29965 0.95973 0.0
C1995 C 0.67552 0.14793 0.90103 0.0
C1996 C 0.76878 0.23302 0.91738 0.0
H1997 H 0.80448 0.23888 0.94705 0.0
C1998 C 0.78819 0.27507 0.91497 0.0
C1999 C 0.77517 0.22005 0.92913 0.0
C2000 C 0.7572 0.17553 0.93223 0.0
C2001 C 0.81279 0.30417 0.92396 0.0
C2002 C 0.81908 0.2912 0.93572 0.0
C2003 C 0.79973 0.24916 0.93812 0.0
C2004 C 0.846 0.32058 0.94556 0.0
C2005 C 0.83092 0.3487 0.92085 0.0
C2006 C 0.88713 0.34823 0.94314 0.0
C2007 C 0.91244 0.37506 0.9524 0.0
C2008 C 0.89759 0.37476 0.96441 0.0
C2009 C 0.85635 0.34742 0.96681 0.0
C2010 C 0.831 0.32048 0.95754 0.0
H2011 H 0.81402 0.35364 0.91324 0.0
H2012 H 0.83117 0.36651 0.92909 0.0
H2013 H 0.86269 0.36069 0.91771 0.0
H2014 H 0.9 0.34863 0.93414 0.0
H2015 H 0.94405 0.39547 0.9502 0.0
H2016 H 0.57548 0.93989 0.11642 0.0
H2017 H 0.57244 0.89126 0.10083 0.0
H2018 H 0.51979 0.7949 0.12789 0.0
H2019 H 0.52252 0.84354 0.14351 0.0
H2020 H 0.5801 0.79179 0.11476 0.0
H2021 H 0.47655 0.80657 0.08157 0.0
H2022 H 0.52067 0.85432 0.08512 0.0
H2023 H 0.48442 0.82672 0.09714 0.0
C2024 C 0.56284 0.90825 0.11904 0.0
C2025 C 0.54977 0.89586 0.13132 0.0
C2026 C 0.561 0.88031 0.11006 0.0
C2027 C 0.54546 0.83896 0.11303 0.0
C2028 C 0.53202 0.82648 0.12528 0.0
H2029 H 0.51996 0.62523 0.07175 0.0
H2030 H 0.51819 0.67108 0.08749 0.0
C2031 C 0.53384 0.85445 0.13426 0.0
C2032 C 0.54422 0.80912 0.10349 0.0
H2033 H 0.50952 0.77077 0.07436 0.0
C2034 C 0.56437 0.78702 0.10597 0.0
C2035 C 0.52386 0.80263 0.09193 0.0
C2036 C 0.49981 0.82349 0.0888 0.0
C2037 C 0.5656 0.75975 0.0972 0.0
C2038 C 0.54543 0.75344 0.08562 0.0
C2039 C 0.5251 0.77538 0.08317 0.0
C2040 C 0.54551 0.72477 0.07587 0.0
C2041 C 0.58968 0.73891 0.10032 0.0
C2042 C 0.56014 0.73883 0.06383 0.0
C2043 C 0.56093 0.71249 0.05472 0.0
C2044 C 0.54679 0.67104 0.05732 0.0
C2045 C 0.53135 0.65683 0.06932 0.0
C2046 C 0.53061 0.68324 0.07843 0.0
H2047 H 0.61214 0.7551 0.10781 0.0
H2048 H 0.56868 0.70758 0.10361 0.0
H2049 H 0.60603 0.73685 0.09203 0.0
H2050 H 0.57162 0.77053 0.0615 0.0
H2051 H 0.57304 0.72488 0.04565 0.0
H2052 H 0.66859 0.57426 0.28393 0.0
H2053 H 0.71505 0.57351 0.26835 0.0
H2054 H 0.77146 0.53635 0.2963 0.0
H2055 H 0.72424 0.5364 0.31197 0.0
H2056 H 0.79861 0.6178 0.2669 0.0
H2057 H 0.74944 0.45327 0.26891 0.0
H2058 H 0.72025 0.47416 0.27578 0.0
H2059 H 0.76442 0.47915 0.28359 0.0
C2060 C 0.69047 0.56539 0.28679 0.0
C2061 C 0.69219 0.55509 0.29928 0.0
C2062 C 0.71739 0.56526 0.27783 0.0
C2063 C 0.74677 0.55436 0.28097 0.0
C2064 C 0.74875 0.54415 0.29346 0.0
H2065 H 0.93138 0.5318 0.23767 0.0
H2066 H 0.88598 0.5323 0.25365 0.0
C2067 C 0.72183 0.54447 0.30249 0.0
C2068 C 0.77548 0.55457 0.27119 0.0
H2069 H 0.80626 0.49417 0.25628 0.0
C2070 C 0.80016 0.59067 0.26459 0.0
C2071 C 0.77794 0.51938 0.26806 0.0
C2072 C 0.7514 0.47915 0.27435 0.0
C2073 C 0.82735 0.59277 0.25522 0.0
C2074 C 0.82951 0.55745 0.25197 0.0
C2075 C 0.8049 0.52137 0.25862 0.0
C2076 C 0.85741 0.55735 0.24191 0.0
C2077 C 0.85438 0.63335 0.24917 0.0
C2078 C 0.85674 0.57073 0.22972 0.0
C2079 C 0.88313 0.57075 0.22047 0.0
C2080 C 0.91074 0.55686 0.22305 0.0
C2081 C 0.91078 0.5428 0.2352 0.0
C2082 C 0.8846 0.54301 0.24443 0.0
H2083 H 0.85816 0.65899 0.25513 0.0
H2084 H 0.88487 0.63738 0.24713 0.0
H2085 H 0.84041 0.63511 0.2403 0.0
H2086 H 0.83549 0.5809 0.22729 0.0
H2087 H 0.88173 0.58154 0.21127 0.0
H2088 H 0.90932 0.40872 0.44144 0.0
H2089 H 0.84298 0.34863 0.43811 0.0
H2090 H 0.7852 0.42168 0.44239 0.0
H2091 H 0.85156 0.48199 0.44607 0.0
H2092 H 0.74657 0.34355 0.45519 0.0
H2093 H 0.77837 0.33288 0.40539 0.0
H2094 H 0.81686 0.33617 0.41584 0.0
H2095 H 0.80765 0.37832 0.41451 0.0
C2096 C 0.88246 0.41188 0.44187 0.0
C2097 C 0.88551 0.44998 0.44394 0.0
C2098 C 0.84472 0.37768 0.43986 0.0
C2099 C 0.80956 0.38112 0.43983 0.0
C2100 C 0.81222 0.41873 0.4423 0.0
H2101 H 0.55938 0.19318 0.42497 0.0
H2102 H 0.6189 0.25778 0.4307 0.0
C2103 C 0.85002 0.45304 0.44431 0.0
C2104 C 0.7702 0.34539 0.43687 0.0
H2105 H 0.72051 0.27583 0.41405 0.0
C2106 C 0.74052 0.32886 0.44618 0.0
C2107 C 0.76266 0.3268 0.42506 0.0
C2108 C 0.79289 0.34461 0.41458 0.0
C2109 C 0.70388 0.2928 0.44411 0.0
C2110 C 0.69703 0.27348 0.43243 0.0
C2111 C 0.72621 0.29078 0.42302 0.0
C2112 C 0.66058 0.23427 0.42984 0.0
C2113 C 0.67345 0.2748 0.45452 0.0
C2114 C 0.66465 0.20004 0.42746 0.0
C2115 C 0.6309 0.1633 0.42415 0.0
C2116 C 0.59257 0.16032 0.42308 0.0
C2117 C 0.58848 0.19455 0.42574 0.0
C2118 C 0.62235 0.23138 0.42905 0.0
H2119 H 0.68635 0.28974 0.46357 0.0
H2120 H 0.64687 0.27863 0.4524 0.0
H2121 H 0.66247 0.2417 0.4554 0.0
H2122 H 0.69406 0.20188 0.42807 0.0
H2123 H 0.63485 0.13723 0.42243 0.0
H2124 H 0.39598 0.85077 0.59677 0.0
H2125 H 0.38881 0.78533 0.59127 0.0
H2126 H 0.49937 0.81613 0.61108 0.0
H2127 H 0.51016 0.88366 0.6149 0.0
H2128 H 0.50371 0.78913 0.59076 0.0
H2129 H 0.35001 0.68149 0.60807 0.0
H2130 H 0.34851 0.716 0.59698 0.0
H2131 H 0.37463 0.73507 0.61156 0.0
C2132 C 0.41925 0.8441 0.59979 0.0
C2133 C 0.45412 0.87343 0.60609 0.0
C2134 C 0.41442 0.80593 0.59691 0.0
C2135 C 0.44325 0.79533 0.60086 0.0
C2136 C 0.47667 0.8235 0.60786 0.0
H2137 H 0.42974 0.56272 0.6005 0.0
H2138 H 0.41556 0.61803 0.60324 0.0
C2139 C 0.48246 0.86223 0.61024 0.0
C2140 C 0.44131 0.7569 0.59673 0.0
H2141 H 0.38021 0.65396 0.59446 0.0
C2142 C 0.47674 0.75956 0.59173 0.0
C2143 C 0.40615 0.7182 0.59792 0.0
C2144 C 0.36787 0.71247 0.60405 0.0
C2145 C 0.47872 0.72489 0.58837 0.0
C2146 C 0.44313 0.68627 0.58904 0.0
C2147 C 0.40727 0.68356 0.59372 0.0
C2148 C 0.44393 0.64835 0.58603 0.0
C2149 C 0.51973 0.73029 0.58486 0.0
C2150 C 0.46186 0.64506 0.57503 0.0
C2151 C 0.47283 0.61503 0.57382 0.0
C2152 C 0.46388 0.58607 0.58331 0.0
C2153 C 0.43977 0.58572 0.59334 0.0
C2154 C 0.4307 0.61703 0.59483 0.0
H2155 H 0.54494 0.7594 0.58846 0.0
H2156 H 0.52387 0.70515 0.58854 0.0
H2157 H 0.52253 0.73098 0.57459 0.0
H2158 H 0.47029 0.66761 0.56776 0.0
H2159 H 0.49075 0.61677 0.5658 0.0
H2160 H 0.5597 0.37138 0.77059 0.0
H2161 H 0.61857 0.36533 0.76431 0.0
H2162 H 0.68855 0.49555 0.75972 0.0
H2163 H 0.62933 0.50161 0.76543 0.0
H2164 H 0.69564 0.45199 0.73992 0.0
H2165 H 0.71959 0.39657 0.7853 0.0
H2166 H 0.66969 0.36719 0.77878 0.0
H2167 H 0.68716 0.41869 0.78364 0.0
C2168 C 0.58755 0.39863 0.76812 0.0
C2169 C 0.58999 0.43694 0.76846 0.0
C2170 C 0.62122 0.39518 0.76469 0.0
C2171 C 0.6579 0.43005 0.76171 0.0
C2172 C 0.66044 0.46832 0.76205 0.0
H2173 H 0.90378 0.50602 0.746 0.0
H2174 H 0.83623 0.49775 0.74883 0.0
C2175 C 0.62677 0.47177 0.76541 0.0
C2176 C 0.69371 0.42691 0.75804 0.0
H2177 H 0.76318 0.40198 0.76888 0.0
C2178 C 0.71033 0.44087 0.74621 0.0
C2179 C 0.71252 0.41218 0.76629 0.0
C2180 C 0.69662 0.39809 0.77925 0.0
C2181 C 0.74588 0.44122 0.74249 0.0
C2182 C 0.76522 0.42753 0.75086 0.0
C2183 C 0.74794 0.41229 0.76251 0.0
C2184 C 0.80523 0.43201 0.74811 0.0
C2185 C 0.76285 0.45666 0.72972 0.0
C2186 C 0.80986 0.39765 0.74682 0.0
C2187 C 0.8484 0.40225 0.74509 0.0
C2188 C 0.88282 0.4413 0.74479 0.0
C2189 C 0.87783 0.4756 0.74596 0.0
C2190 C 0.83933 0.47095 0.74761 0.0
H2191 H 0.73965 0.45672 0.72342 0.0
H2192 H 0.78836 0.48833 0.73048 0.0
H2193 H 0.77475 0.43782 0.7255 0.0
H2194 H 0.78372 0.36737 0.74725 0.0
H2195 H 0.85128 0.37528 0.74406 0.0
H2196 H 0.4557 0.86074 0.92981 0.0
H2197 H 0.39292 0.79588 0.93167 0.0
H2198 H 0.38093 0.78835 0.89175 0.0
H2199 H 0.44356 0.85406 0.88987 0.0
H2200 H 0.31205 0.77289 0.90226 0.0
H2201 H 0.36795 0.68116 0.9262 0.0
H2202 H 0.3828 0.7274 0.93456 0.0
H2203 H 0.40184 0.72948 0.91907 0.0
C2204 C 0.43999 0.84493 0.92143 0.0
C2205 C 0.45442 0.86227 0.9097 0.0
C2206 C 0.40427 0.80773 0.92249 0.0
C2207 C 0.38271 0.78677 0.91184 0.0
C2208 C 0.39728 0.80386 0.90009 0.0
H2209 H 0.16558 0.54935 0.92502 0.0
H2210 H 0.23154 0.60095 0.91693 0.0
C2211 C 0.43286 0.84138 0.89902 0.0
C2212 C 0.34322 0.74888 0.91314 0.0
H2213 H 0.29632 0.65885 0.92886 0.0
C2214 C 0.30871 0.74761 0.90789 0.0
C2215 C 0.33886 0.71544 0.92023 0.0
C2216 C 0.37496 0.71324 0.9252 0.0
C2217 C 0.26976 0.71504 0.91021 0.0
C2218 C 0.26518 0.68355 0.9183 0.0
C2219 C 0.29981 0.68344 0.92286 0.0
C2220 C 0.22484 0.6521 0.92279 0.0
C2221 C 0.23391 0.71505 0.9041 0.0
C2222 C 0.19957 0.66377 0.92894 0.0
C2223 C 0.16179 0.6345 0.93341 0.0
C2224 C 0.14875 0.59287 0.93202 0.0
C2225 C 0.17445 0.58118 0.92605 0.0
C2226 C 0.21221 0.61058 0.92149 0.0
H2227 H 0.24276 0.73198 0.89518 0.0
H2228 H 0.20897 0.68363 0.90229 0.0
H2229 H 0.22231 0.73049 0.91029 0.0
H2230 H 0.20917 0.69562 0.93036 0.0
H2231 H 0.14265 0.64455 0.93787 0.0
H2232 H 0.64253 0.16271 0.08762 0.0
H2233 H 0.6594 0.22983 0.07999 0.0
H2234 H 0.58155 0.23763 0.10779 0.0
H2235 H 0.56015 0.16902 0.11428 0.0
H2236 H 0.56272 0.25344 0.08719 0.0
H2237 H 0.73033 0.34392 0.08995 0.0
H2238 H 0.71316 0.29907 0.08063 0.0
H2239 H 0.70193 0.29438 0.097 0.0
C2240 C 0.62853 0.17838 0.09205 0.0
C2241 C 0.59916 0.15948 0.10146 0.0
C2242 C 0.63913 0.21741 0.08784 0.0
C2243 C 0.62195 0.23907 0.09333 0.0
C2244 C 0.59512 0.22152 0.10333 0.0
H2245 H 0.67133 0.48387 0.08715 0.0
H2246 H 0.67959 0.42466 0.08935 0.0
C2247 C 0.5833 0.18211 0.10719 0.0
C2248 C 0.62742 0.27755 0.08788 0.0
H2249 H 0.69707 0.37396 0.07894 0.0
C2250 C 0.59221 0.27984 0.08549 0.0
C2251 C 0.66583 0.312 0.08556 0.0
C2252 C 0.70495 0.31243 0.08853 0.0
C2253 C 0.59405 0.31584 0.08149 0.0
C2254 C 0.63235 0.35007 0.07879 0.0
C2255 C 0.66773 0.34756 0.08078 0.0
C2256 C 0.63581 0.38952 0.07512 0.0
C2257 C 0.5548 0.31712 0.081 0.0
C2258 C 0.61133 0.39117 0.06564 0.0
C2259 C 0.60377 0.42368 0.06504 0.0
C2260 C 0.62254 0.45654 0.07346 0.0
C2261 C 0.65334 0.45804 0.08122 0.0
C2262 C 0.65911 0.42442 0.08228 0.0
H2263 H 0.53068 0.29266 0.08672 0.0
H2264 H 0.5591 0.34672 0.08441 0.0
H2265 H 0.54361 0.31253 0.07129 0.0
H2266 H 0.59488 0.36549 0.05948 0.0
H2267 H 0.58071 0.42069 0.05857 0.0
H2268 H 0.51393 0.65065 0.26215 0.0
H2269 H 0.45534 0.65764 0.256 0.0
H2270 H 0.38023 0.52709 0.25538 0.0
H2271 H 0.43859 0.51972 0.2613 0.0
H2272 H 0.39533 0.61699 0.23423 0.0
H2273 H 0.33132 0.57555 0.28193 0.0
H2274 H 0.38441 0.59451 0.27864 0.0
H2275 H 0.34773 0.54286 0.27494 0.0
C2276 C 0.4851 0.62345 0.26046 0.0
C2277 C 0.48064 0.58462 0.26231 0.0
C2278 C 0.45177 0.62753 0.25699 0.0
C2279 C 0.41368 0.59286 0.25538 0.0
C2280 C 0.40948 0.55412 0.25672 0.0
H2281 H 0.16671 0.53521 0.24665 0.0
H2282 H 0.231 0.53563 0.24899 0.0
C2283 C 0.4427 0.55 0.26015 0.0
C2284 C 0.37758 0.59686 0.25304 0.0
H2285 H 0.28957 0.58064 0.26655 0.0
C2286 C 0.37223 0.60937 0.24127 0.0
C2287 C 0.34785 0.58691 0.26232 0.0
C2288 C 0.35303 0.57447 0.27522 0.0
C2289 C 0.33686 0.61087 0.2384 0.0
C2290 C 0.30677 0.60023 0.24765 0.0
C2291 C 0.31268 0.58856 0.25948 0.0
C2292 C 0.26832 0.59997 0.24524 0.0
C2293 C 0.33139 0.62251 0.22544 0.0
C2294 C 0.26818 0.63604 0.24233 0.0
C2295 C 0.23147 0.63583 0.24087 0.0
C2296 C 0.19438 0.59958 0.24241 0.0
C2297 C 0.19475 0.56347 0.24523 0.0
C2298 C 0.23141 0.56371 0.24664 0.0
H2299 H 0.35254 0.62036 0.21873 0.0
H2300 H 0.29979 0.60277 0.22215 0.0
H2301 H 0.33754 0.65441 0.22547 0.0
H2302 H 0.2964 0.66447 0.24144 0.0
H2303 H 0.23211 0.66404 0.23859 0.0
loop_
_geom_bond_atom_site_label_1
_geom_bond_atom_site_label_2
_geom_bond_distance
_geom_bond_site_symmetry_2
_ccdc_geom_bond_type
Tb0 N29 2.617 1_565 S
Tb0 N35 2.572 . S
Tb0 O44 2.465 . S
Tb0 O45 2.387 1_565 S
Tb0 O47 2.428 . S
Tb0 O48 2.308 . S
Tb0 O52 2.349 . S
Tb0 O55 2.393 1_565 S
Tb0 C64 2.802 . S
C1 N2 1.379 . S
C1 C4 1.416 . S
C1 C8 1.424 . S
N2 C1 1.379 . S
N2 C5 1.334 . S
N2 Tb11 2.617 1_565 S
C3 C5 1.390 . S
C3 C6 1.339 . S
C3 H23 0.930 . S
C4 C1 1.416 . S
C4 C6 1.416 . S
C4 C10 1.448 . S
C5 N2 1.334 . S
C5 C3 1.390 . S
C5 H16 0.930 . S
C6 C3 1.339 . S
C6 C4 1.416 . S
C6 H27 0.930 . S
C7 C8 1.413 . S
C7 C9 1.427 . S
C7 C13 1.416 1_565 S
C8 C1 1.424 . S
C8 C7 1.413 . S
C8 N12 1.361 1_565 S
C9 C7 1.427 . S
C9 C10 1.328 . S
C9 H24 0.929 . S
C10 C4 1.448 . S
C10 C9 1.328 . S
C10 H25 0.930 . S
Tb11 N2 2.617 1_545 S
Tb11 N12 2.572 . S
Tb11 O46 2.349 . S
Tb11 O49 2.393 1_545 S
Tb11 O50 2.465 . S
Tb11 O51 2.387 1_545 S
Tb11 O53 2.428 . S
Tb11 O54 2.308 . S
Tb11 C75 2.802 . S
N12 C8 1.361 1_545 S
N12 Tb11 2.572 . S
N12 C14 1.340 . S
C13 C7 1.416 1_545 S
C13 C15 1.332 . S
C13 H21 0.931 . S
C14 N12 1.340 . S
C14 C15 1.407 . S
C14 H20 0.930 . S
C15 C13 1.332 . S
C15 C14 1.407 . S
C15 H17 0.929 . S
H16 C5 0.930 . S
H17 C15 0.929 . S
H18 C33 0.930 . S
H19 C40 0.929 . S
H20 C14 0.930 . S
H21 C13 0.931 . S
H22 C36 0.930 . S
H23 C3 0.930 . S
H24 C9 0.929 . S
H25 C10 0.930 . S
H26 C31 0.930 . S
H27 C6 0.930 . S
H28 C39 0.931 . S
N29 Tb0 2.617 1_545 S
N29 C30 1.379 . S
N29 C33 1.334 . S
C30 N29 1.379 . S
C30 C32 1.416 . S
C30 C38 1.424 . S
C31 H26 0.930 . S
C31 C33 1.390 . S
C31 C34 1.339 . S
C32 C30 1.416 . S
C32 C34 1.416 . S
C32 C65 1.448 . S
C33 H18 0.930 . S
C33 N29 1.334 . S
C33 C31 1.390 . S
C34 C31 1.339 . S
C34 C32 1.416 . S
C34 H41 0.930 . S
N35 Tb0 2.572 . S
N35 C36 1.340 . S
N35 C38 1.361 1_565 S
C36 H22 0.930 . S
C36 N35 1.340 . S
C36 C40 1.407 . S
C37 C38 1.413 . S
C37 C39 1.416 1_545 S
C37 C66 1.427 . S
C38 C30 1.424 . S
C38 N35 1.361 1_545 S
C38 C37 1.413 . S
C39 H28 0.931 . S
C39 C37 1.416 1_565 S
C39 C40 1.332 . S
C40 H19 0.929 . S
C40 C36 1.407 . S
C40 C39 1.332 . S
H41 C34 0.930 . S
H42 C65 0.930 . S
H43 C66 0.929 . S
O44 Tb0 2.465 . S
O44 C64 1.264 . S
O45 Tb0 2.387 1_545 S
O45 C56 1.264 . S
O46 Tb11 2.349 . S
O46 C56 1.243 . S
O47 Tb0 2.428 . S
O47 C64 1.256 . S
O48 Tb0 2.308 . S
O48 C63 1.266 . S
O49 Tb11 2.393 1_565 S
O49 C63 1.248 . S
O50 Tb11 2.465 . S
O50 C75 1.264 . S
O51 Tb11 2.387 1_565 S
O51 C67 1.264 . S
O52 Tb0 2.349 . S
O52 C67 1.243 . S
O53 Tb11 2.428 . S
O53 C75 1.256 . S
O54 Tb11 2.308 . S
O54 C74 1.266 . S
O55 Tb0 2.393 1_545 S
O55 C74 1.248 . S
C56 O45 1.264 . S
C56 O46 1.243 . S
C57 C60 1.399 . S
C57 C62 1.383 . S
C57 C64 1.496 . S
C58 C59 1.399 . S
C58 C62 1.389 . S
C59 C58 1.399 . S
C59 C61 1.380 . S
C59 H76 0.929 . S
C60 C57 1.399 . S
C60 C61 1.392 . S
C60 H77 0.929 . S
C61 C59 1.380 . S
C61 C60 1.392 . S
C61 H78 0.929 . S
C62 C57 1.383 . S
C62 C58 1.389 . S
C62 H79 0.931 . S
C63 O48 1.266 . S
C63 O49 1.248 . S
C64 Tb0 2.802 . S
C64 O44 1.264 . S
C64 O47 1.256 . S
C64 C57 1.496 . S
C65 C32 1.448 . S
C65 H42 0.930 . S
C65 C66 1.328 . S
C66 C37 1.427 . S
C66 H43 0.929 . S
C66 C65 1.328 . S
C67 O51 1.264 . S
C67 O52 1.243 . S
C68 C71 1.399 . S
C68 C72 1.383 . S
C68 C75 1.496 . S
C69 C70 1.399 . S
C69 C72 1.389 . S
C70 C69 1.399 . S
C70 C73 1.380 . S
C70 H80 0.929 . S
C71 C68 1.399 . S
C71 C73 1.392 . S
C71 H81 0.929 . S
C72 C68 1.383 . S
C72 C69 1.389 . S
C72 H82 0.931 . S
C73 C70 1.380 . S
C73 C71 1.392 . S
C73 H83 0.929 . S
C74 O54 1.266 . S
C74 O55 1.248 . S
C75 Tb11 2.802 . S
C75 O50 1.264 . S
C75 O53 1.256 . S
C75 C68 1.496 . S
H76 C59 0.929 . S
H77 C60 0.929 . S
H78 C61 0.929 . S
H79 C62 0.931 . S
H80 C70 0.929 . S
H81 C71 0.929 . S
H82 C72 0.931 . S
H83 C73 0.929 . S
Tb84 N113 2.617 . S
Tb84 N119 2.572 . S
Tb84 O128 2.465 . S
Tb84 O129 2.387 . S
Tb84 O131 2.428 . S
Tb84 O132 2.308 . S
Tb84 O136 2.349 . S
Tb84 O139 2.393 . S
Tb84 C148 2.802 . S
C85 N86 1.379 . S
C85 C88 1.416 . S
C85 C92 1.424 . S
N86 C85 1.379 . S
N86 C89 1.334 . S
N86 Tb95 2.617 . S
C87 C89 1.390 . S
C87 C90 1.339 . S
C87 H107 0.930 . S
C88 C85 1.416 . S
C88 C90 1.416 . S
C88 C94 1.448 . S
C89 N86 1.334 . S
C89 C87 1.390 . S
C89 H100 0.930 . S
C90 C87 1.339 . S
C90 C88 1.416 . S
C90 H111 0.930 . S
C91 C92 1.413 . S
C91 C93 1.427 . S
C91 C97 1.416 . S
C92 C85 1.424 . S
C92 C91 1.413 . S
C92 N96 1.361 . S
C93 C91 1.427 . S
C93 C94 1.328 . S
C93 H108 0.929 . S
C94 C88 1.448 . S
C94 C93 1.328 . S
C94 H109 0.930 . S
Tb95 N86 2.617 . S
Tb95 N96 2.572 . S
Tb95 O130 2.349 . S
Tb95 O133 2.393 . S
Tb95 O134 2.465 . S
Tb95 O135 2.387 . S
Tb95 O137 2.428 . S
Tb95 O138 2.308 . S
Tb95 C159 2.802 . S
N96 C92 1.361 . S
N96 Tb95 2.572 . S
N96 C98 1.340 . S
C97 C91 1.416 . S
C97 C99 1.332 . S
C97 H105 0.931 . S
C98 N96 1.340 . S
C98 C99 1.407 . S
C98 H104 0.930 . S
C99 C97 1.332 . S
C99 C98 1.407 . S
C99 H101 0.929 . S
H100 C89 0.930 . S
H101 C99 0.929 . S
H102 C117 0.930 . S
H103 C124 0.929 . S
H104 C98 0.930 . S
H105 C97 0.931 . S
H106 C120 0.930 . S
H107 C87 0.930 . S
H108 C93 0.929 . S
H109 C94 0.930 . S
H110 C115 0.930 . S
H111 C90 0.930 . S
H112 C123 0.931 . S
N113 Tb84 2.617 . S
N113 C114 1.379 . S
N113 C117 1.334 . S
C114 N113 1.379 . S
C114 C116 1.416 . S
C114 C122 1.424 . S
C115 H110 0.930 . S
C115 C117 1.390 . S
C115 C118 1.339 . S
C116 C114 1.416 . S
C116 C118 1.416 . S
C116 C149 1.448 . S
C117 H102 0.930 . S
C117 N113 1.334 . S
C117 C115 1.390 . S
C118 C115 1.339 . S
C118 C116 1.416 . S
C118 H125 0.930 . S
N119 Tb84 2.572 . S
N119 C120 1.340 . S
N119 C122 1.361 . S
C120 H106 0.930 . S
C120 N119 1.340 . S
C120 C124 1.407 . S
C121 C122 1.413 . S
C121 C123 1.416 . S
C121 C150 1.427 . S
C122 C114 1.424 . S
C122 N119 1.361 . S
C122 C121 1.413 . S
C123 H112 0.931 . S
C123 C121 1.416 . S
C123 C124 1.332 . S
C124 H103 0.929 . S
C124 C120 1.407 . S
C124 C123 1.332 . S
H125 C118 0.930 . S
H126 C149 0.930 . S
H127 C150 0.929 . S
O128 Tb84 2.465 . S
O128 C148 1.264 . S
O129 Tb84 2.387 . S
O129 C140 1.264 . S
O130 Tb95 2.349 . S
O130 C140 1.243 . S
O131 Tb84 2.428 . S
O131 C148 1.256 . S
O132 Tb84 2.308 . S
O132 C147 1.266 . S
O133 Tb95 2.393 . S
O133 C147 1.248 . S
O134 Tb95 2.465 . S
O134 C159 1.264 . S
O135 Tb95 2.387 . S
O135 C151 1.264 . S
O136 Tb84 2.349 . S
O136 C151 1.243 . S
O137 Tb95 2.428 . S
O137 C159 1.256 . S
O138 Tb95 2.308 . S
O138 C158 1.266 . S
O139 Tb84 2.393 . S
O139 C158 1.248 . S
C140 O129 1.264 . S
C140 O130 1.243 . S
C141 C144 1.399 . S
C141 C146 1.383 . S
C141 C148 1.496 . S
C142 C143 1.399 . S
C142 C146 1.389 . S
C143 C142 1.399 . S
C143 C145 1.380 . S
C143 H160 0.929 . S
C144 C141 1.399 . S
C144 C145 1.392 . S
C144 H161 0.929 . S
C145 C143 1.380 . S
C145 C144 1.392 . S
C145 H162 0.929 . S
C146 C141 1.383 . S
C146 C142 1.389 . S
C146 H163 0.931 . S
C147 O132 1.266 . S
C147 O133 1.248 . S
C148 Tb84 2.802 . S
C148 O128 1.264 . S
C148 O131 1.256 . S
C148 C141 1.496 . S
C149 C116 1.448 . S
C149 H126 0.930 . S
C149 C150 1.328 . S
C150 C121 1.427 . S
C150 H127 0.929 . S
C150 C149 1.328 . S
C151 O135 1.264 . S
C151 O136 1.243 . S
C152 C155 1.399 . S
C152 C156 1.383 . S
C152 C159 1.496 . S
C153 C154 1.399 . S
C153 C156 1.389 . S
C154 C153 1.399 . S
C154 C157 1.380 . S
C154 H164 0.929 . S
C155 C152 1.399 . S
C155 C157 1.392 . S
C155 H165 0.929 . S
C156 C152 1.383 . S
C156 C153 1.389 . S
C156 H166 0.931 . S
C157 C154 1.380 . S
C157 C155 1.392 . S
C157 H167 0.929 . S
C158 O138 1.266 . S
C158 O139 1.248 . S
C159 Tb95 2.802 . S
C159 O134 1.264 . S
C159 O137 1.256 . S
C159 C152 1.496 . S
H160 C143 0.929 . S
H161 C144 0.929 . S
H162 C145 0.929 . S
H163 C146 0.931 . S
H164 C154 0.929 . S
H165 C155 0.929 . S
H166 C156 0.931 . S
H167 C157 0.929 . S
Tb168 N197 2.617 1_455 S
Tb168 N203 2.572 . S
Tb168 O212 2.465 . S
Tb168 O213 2.387 1_455 S
Tb168 O215 2.428 . S
Tb168 O216 2.308 . S
Tb168 O220 2.349 . S
Tb168 O223 2.393 1_455 S
Tb168 C232 2.802 . S
C169 N170 1.379 . S
C169 C172 1.416 . S
C169 C176 1.424 . S
N170 C169 1.379 . S
N170 C173 1.334 . S
N170 Tb179 2.617 1_455 S
C171 C173 1.390 . S
C171 C174 1.339 . S
C171 H191 0.930 . S
C172 C169 1.416 . S
C172 C174 1.416 . S
C172 C178 1.448 . S
C173 N170 1.334 . S
C173 C171 1.390 . S
C173 H184 0.930 . S
C174 C171 1.339 . S
C174 C172 1.416 . S
C174 H195 0.930 . S
C175 C176 1.413 . S
C175 C177 1.427 . S
C175 C181 1.416 1_455 S
C176 C169 1.424 . S
C176 C175 1.413 . S
C176 N180 1.361 1_455 S
C177 C175 1.427 . S
C177 C178 1.328 . S
C177 H192 0.929 . S
C178 C172 1.448 . S
C178 C177 1.328 . S
C178 H193 0.930 . S
Tb179 N170 2.617 1_655 S
Tb179 N180 2.572 . S
Tb179 O214 2.349 . S
Tb179 O217 2.393 1_655 S
Tb179 O218 2.465 . S
Tb179 O219 2.387 1_655 S
Tb179 O221 2.428 . S
Tb179 O222 2.308 . S
Tb179 C243 2.802 . S
N180 C176 1.361 1_655 S
N180 Tb179 2.572 . S
N180 C182 1.340 . S
C181 C175 1.416 1_655 S
C181 C183 1.332 . S
C181 H189 0.931 . S
C182 N180 1.340 . S
C182 C183 1.407 . S
C182 H188 0.930 . S
C183 C181 1.332 . S
C183 C182 1.407 . S
C183 H185 0.929 . S
H184 C173 0.930 . S
H185 C183 0.929 . S
H186 C201 0.930 . S
H187 C208 0.929 . S
H188 C182 0.930 . S
H189 C181 0.931 . S
H190 C204 0.930 . S
H191 C171 0.930 . S
H192 C177 0.929 . S
H193 C178 0.930 . S
H194 C199 0.930 . S
H195 C174 0.930 . S
H196 C207 0.931 . S
N197 Tb168 2.617 1_655 S
N197 C198 1.379 . S
N197 C201 1.334 . S
C198 N197 1.379 . S
C198 C200 1.416 . S
C198 C206 1.424 . S
C199 H194 0.930 . S
C199 C201 1.390 . S
C199 C202 1.339 . S
C200 C198 1.416 . S
C200 C202 1.416 . S
C200 C233 1.448 . S
C201 H186 0.930 . S
C201 N197 1.334 . S
C201 C199 1.390 . S
C202 C199 1.339 . S
C202 C200 1.416 . S
C202 H209 0.930 . S
N203 Tb168 2.572 . S
N203 C204 1.340 . S
N203 C206 1.361 1_455 S
C204 H190 0.930 . S
C204 N203 1.340 . S
C204 C208 1.407 . S
C205 C206 1.413 . S
C205 C207 1.416 1_655 S
C205 C234 1.427 . S
C206 C198 1.424 . S
C206 N203 1.361 1_655 S
C206 C205 1.413 . S
C207 H196 0.931 . S
C207 C205 1.416 1_455 S
C207 C208 1.332 . S
C208 H187 0.929 . S
C208 C204 1.407 . S
C208 C207 1.332 . S
H209 C202 0.930 . S
H210 C233 0.930 . S
H211 C234 0.929 . S
O212 Tb168 2.465 . S
O212 C232 1.264 . S
O213 Tb168 2.387 1_655 S
O213 C224 1.264 . S
O214 Tb179 2.349 . S
O214 C224 1.243 . S
O215 Tb168 2.428 . S
O215 C232 1.256 . S
O216 Tb168 2.308 . S
O216 C231 1.266 . S
O217 Tb179 2.393 1_455 S
O217 C231 1.248 . S
O218 Tb179 2.465 . S
O218 C243 1.264 . S
O219 Tb179 2.387 1_455 S
O219 C235 1.264 . S
O220 Tb168 2.349 . S
O220 C235 1.243 . S
O221 Tb179 2.428 . S
O221 C243 1.256 . S
O222 Tb179 2.308 . S
O222 C242 1.266 . S
O223 Tb168 2.393 1_655 S
O223 C242 1.248 . S
C224 O213 1.264 . S
C224 O214 1.243 . S
C225 C228 1.399 . S
C225 C230 1.383 . S
C225 C232 1.496 . S
C226 C227 1.399 . S
C226 C230 1.389 . S
C227 C226 1.399 . S
C227 C229 1.380 . S
C227 H244 0.929 . S
C228 C225 1.399 . S
C228 C229 1.392 . S
C228 H245 0.929 . S
C229 C227 1.380 . S
C229 C228 1.392 . S
C229 H246 0.929 . S
C230 C225 1.383 . S
C230 C226 1.389 . S
C230 H247 0.931 . S
C231 O216 1.266 . S
C231 O217 1.248 . S
C232 Tb168 2.802 . S
C232 O212 1.264 . S
C232 O215 1.256 . S
C232 C225 1.496 . S
C233 C200 1.448 . S
C233 H210 0.930 . S
C233 C234 1.328 . S
C234 C205 1.427 . S
C234 H211 0.929 . S
C234 C233 1.328 . S
C235 O219 1.264 . S
C235 O220 1.243 . S
C236 C239 1.399 . S
C236 C240 1.383 . S
C236 C243 1.496 . S
C237 C238 1.399 . S
C237 C240 1.389 . S
C238 C237 1.399 . S
C238 C241 1.380 . S
C238 H248 0.929 . S
C239 C236 1.399 . S
C239 C241 1.392 . S
C239 H249 0.929 . S
C240 C236 1.383 . S
C240 C237 1.389 . S
C240 H250 0.931 . S
C241 C238 1.380 . S
C241 C239 1.392 . S
C241 H251 0.929 . S
C242 O222 1.266 . S
C242 O223 1.248 . S
C243 Tb179 2.802 . S
C243 O218 1.264 . S
C243 O221 1.256 . S
C243 C236 1.496 . S
H244 C227 0.929 . S
H245 C228 0.929 . S
H246 C229 0.929 . S
H247 C230 0.931 . S
H248 C238 0.929 . S
H249 C239 0.929 . S
H250 C240 0.931 . S
H251 C241 0.929 . S
Tb252 N281 2.617 1_545 S
Tb252 N287 2.572 . S
Tb252 O296 2.465 . S
Tb252 O297 2.387 1_545 S
Tb252 O299 2.428 . S
Tb252 O300 2.308 . S
Tb252 O304 2.349 . S
Tb252 O307 2.393 1_545 S
Tb252 C316 2.802 . S
C253 N254 1.379 . S
C253 C256 1.416 . S
C253 C260 1.424 . S
N254 C253 1.379 . S
N254 C257 1.334 . S
N254 Tb263 2.617 1_545 S
C255 C257 1.390 . S
C255 C258 1.339 . S
C255 H275 0.930 . S
C256 C253 1.416 . S
C256 C258 1.416 . S
C256 C262 1.448 . S
C257 N254 1.334 . S
C257 C255 1.390 . S
C257 H268 0.930 . S
C258 C255 1.339 . S
C258 C256 1.416 . S
C258 H279 0.930 . S
C259 C260 1.413 . S
C259 C261 1.427 . S
C259 C265 1.416 1_545 S
C260 C253 1.424 . S
C260 C259 1.413 . S
C260 N264 1.361 1_545 S
C261 C259 1.427 . S
C261 C262 1.328 . S
C261 H276 0.929 . S
C262 C256 1.448 . S
C262 C261 1.328 . S
C262 H277 0.930 . S
Tb263 N254 2.617 1_565 S
Tb263 N264 2.572 . S
Tb263 O298 2.349 . S
Tb263 O301 2.393 1_565 S
Tb263 O302 2.465 . S
Tb263 O303 2.387 1_565 S
Tb263 O305 2.428 . S
Tb263 O306 2.308 . S
Tb263 C327 2.802 . S
N264 C260 1.361 1_565 S
N264 Tb263 2.572 . S
N264 C266 1.340 . S
C265 C259 1.416 1_565 S
C265 C267 1.332 . S
C265 H273 0.931 . S
C266 N264 1.340 . S
C266 C267 1.407 . S
C266 H272 0.930 . S
C267 C265 1.332 . S
C267 C266 1.407 . S
C267 H269 0.929 . S
H268 C257 0.930 . S
H269 C267 0.929 . S
H270 C285 0.930 . S
H271 C292 0.929 . S
H272 C266 0.930 . S
H273 C265 0.931 . S
H274 C288 0.930 . S
H275 C255 0.930 . S
H276 C261 0.929 . S
H277 C262 0.930 . S
H278 C283 0.930 . S
H279 C258 0.930 . S
H280 C291 0.931 . S
N281 Tb252 2.617 1_565 S
N281 C282 1.379 . S
N281 C285 1.334 . S
C282 N281 1.379 . S
C282 C284 1.416 . S
C282 C290 1.424 . S
C283 H278 0.930 . S
C283 C285 1.390 . S
C283 C286 1.339 . S
C284 C282 1.416 . S
C284 C286 1.416 . S
C284 C317 1.448 . S
C285 H270 0.930 . S
C285 N281 1.334 . S
C285 C283 1.390 . S
C286 C283 1.339 . S
C286 C284 1.416 . S
C286 H293 0.930 . S
N287 Tb252 2.572 . S
N287 C288 1.340 . S
N287 C290 1.361 1_545 S
C288 H274 0.930 . S
C288 N287 1.340 . S
C288 C292 1.407 . S
C289 C290 1.413 . S
C289 C291 1.416 1_565 S
C289 C318 1.427 . S
C290 C282 1.424 . S
C290 N287 1.361 1_565 S
C290 C289 1.413 . S
C291 H280 0.931 . S
C291 C289 1.416 1_545 S
C291 C292 1.332 . S
C292 H271 0.929 . S
C292 C288 1.407 . S
C292 C291 1.332 . S
H293 C286 0.930 . S
H294 C317 0.930 . S
H295 C318 0.929 . S
O296 Tb252 2.465 . S
O296 C316 1.264 . S
O297 Tb252 2.387 1_565 S
O297 C308 1.264 . S
O298 Tb263 2.349 . S
O298 C308 1.243 . S
O299 Tb252 2.428 . S
O299 C316 1.256 . S
O300 Tb252 2.308 . S
O300 C315 1.266 . S
O301 Tb263 2.393 1_545 S
O301 C315 1.248 . S
O302 Tb263 2.465 . S
O302 C327 1.264 . S
O303 Tb263 2.387 1_545 S
O303 C319 1.264 . S
O304 Tb252 2.349 . S
O304 C319 1.243 . S
O305 Tb263 2.428 . S
O305 C327 1.256 . S
O306 Tb263 2.308 . S
O306 C326 1.266 . S
O307 Tb252 2.393 1_565 S
O307 C326 1.248 . S
C308 O297 1.264 . S
C308 O298 1.243 . S
C309 C312 1.399 . S
C309 C314 1.383 . S
C309 C316 1.496 . S
C310 C311 1.399 . S
C310 C314 1.389 . S
C311 C310 1.399 . S
C311 C313 1.380 . S
C311 H328 0.929 . S
C312 C309 1.399 . S
C312 C313 1.392 . S
C312 H329 0.929 . S
C313 C311 1.380 . S
C313 C312 1.392 . S
C313 H330 0.929 . S
C314 C309 1.383 . S
C314 C310 1.389 . S
C314 H331 0.931 . S
C315 O300 1.266 . S
C315 O301 1.248 . S
C316 Tb252 2.802 . S
C316 O296 1.264 . S
C316 O299 1.256 . S
C316 C309 1.496 . S
C317 C284 1.448 . S
C317 H294 0.930 . S
C317 C318 1.328 . S
C318 C289 1.427 . S
C318 H295 0.929 . S
C318 C317 1.328 . S
C319 O303 1.264 . S
C319 O304 1.243 . S
C320 C323 1.399 . S
C320 C324 1.383 . S
C320 C327 1.496 . S
C321 C322 1.399 . S
C321 C324 1.389 . S
C322 C321 1.399 . S
C322 C325 1.380 . S
C322 H332 0.929 . S
C323 C320 1.399 . S
C323 C325 1.392 . S
C323 H333 0.929 . S
C324 C320 1.383 . S
C324 C321 1.389 . S
C324 H334 0.931 . S
C325 C322 1.380 . S
C325 C323 1.392 . S
C325 H335 0.929 . S
C326 O306 1.266 . S
C326 O307 1.248 . S
C327 Tb263 2.802 . S
C327 O302 1.264 . S
C327 O305 1.256 . S
C327 C320 1.496 . S
H328 C311 0.929 . S
H329 C312 0.929 . S
H330 C313 0.929 . S
H331 C314 0.931 . S
H332 C322 0.929 . S
H333 C323 0.929 . S
H334 C324 0.931 . S
H335 C325 0.929 . S
Tb336 N365 2.617 . S
Tb336 N371 2.572 . S
Tb336 O380 2.465 . S
Tb336 O381 2.387 . S
Tb336 O383 2.428 . S
Tb336 O384 2.308 . S
Tb336 O388 2.349 . S
Tb336 O391 2.393 . S
Tb336 C400 2.802 . S
C337 N338 1.379 . S
C337 C340 1.416 . S
C337 C344 1.424 . S
N338 C337 1.379 . S
N338 C341 1.334 . S
N338 Tb347 2.617 . S
C339 C341 1.390 . S
C339 C342 1.339 . S
C339 H359 0.930 . S
C340 C337 1.416 . S
C340 C342 1.416 . S
C340 C346 1.448 . S
C341 N338 1.334 . S
C341 C339 1.390 . S
C341 H352 0.930 . S
C342 C339 1.339 . S
C342 C340 1.416 . S
C342 H363 0.930 . S
C343 C344 1.413 . S
C343 C345 1.427 . S
C343 C349 1.416 . S
C344 C337 1.424 . S
C344 C343 1.413 . S
C344 N348 1.361 . S
C345 C343 1.427 . S
C345 C346 1.328 . S
C345 H360 0.929 . S
C346 C340 1.448 . S
C346 C345 1.328 . S
C346 H361 0.930 . S
Tb347 N338 2.617 . S
Tb347 N348 2.572 . S
Tb347 O382 2.349 . S
Tb347 O385 2.393 . S
Tb347 O386 2.465 . S
Tb347 O387 2.387 . S
Tb347 O389 2.428 . S
Tb347 O390 2.308 . S
Tb347 C411 2.802 . S
N348 C344 1.361 . S
N348 Tb347 2.572 . S
N348 C350 1.340 . S
C349 C343 1.416 . S
C349 C351 1.332 . S
C349 H357 0.931 . S
C350 N348 1.340 . S
C350 C351 1.407 . S
C350 H356 0.930 . S
C351 C349 1.332 . S
C351 C350 1.407 . S
C351 H353 0.929 . S
H352 C341 0.930 . S
H353 C351 0.929 . S
H354 C369 0.930 . S
H355 C376 0.929 . S
H356 C350 0.930 . S
H357 C349 0.931 . S
H358 C372 0.930 . S
H359 C339 0.930 . S
H360 C345 0.929 . S
H361 C346 0.930 . S
H362 C367 0.935 . S
H363 C342 0.930 . S
H364 C375 0.931 . S
N365 Tb336 2.617 . S
N365 C366 1.379 . S
N365 C369 1.334 . S
C366 N365 1.379 . S
C366 C368 1.416 . S
C366 C374 1.424 . S
C367 H362 0.935 . S
C367 C369 1.390 . S
C367 C370 1.339 . S
C368 C366 1.416 . S
C368 C370 1.416 . S
C368 C401 1.448 . S
C369 H354 0.930 . S
C369 N365 1.334 . S
C369 C367 1.390 . S
C370 C367 1.339 . S
C370 C368 1.416 . S
C370 H377 0.930 . S
N371 Tb336 2.572 . S
N371 C372 1.340 . S
N371 C374 1.361 . S
C372 H358 0.930 . S
C372 N371 1.340 . S
C372 C376 1.407 . S
C373 C374 1.413 . S
C373 C375 1.416 . S
C373 C402 1.427 . S
C374 C366 1.424 . S
C374 N371 1.361 . S
C374 C373 1.413 . S
C375 H364 0.931 . S
C375 C373 1.416 . S
C375 C376 1.332 . S
C376 H355 0.929 . S
C376 C372 1.407 . S
C376 C375 1.332 . S
H377 C370 0.930 . S
H378 C401 0.930 . S
H379 C402 0.929 . S
O380 Tb336 2.465 . S
O380 C400 1.264 . S
O381 Tb336 2.387 . S
O381 C392 1.264 . S
O382 Tb347 2.349 . S
O382 C392 1.243 . S
O383 Tb336 2.428 . S
O383 C400 1.256 . S
O384 Tb336 2.308 . S
O384 C399 1.266 . S
O385 Tb347 2.393 . S
O385 C399 1.248 . S
O386 Tb347 2.465 . S
O386 C411 1.264 . S
O387 Tb347 2.387 . S
O387 C403 1.264 . S
O388 Tb336 2.349 . S
O388 C403 1.243 . S
O389 Tb347 2.428 . S
O389 C411 1.256 . S
O390 Tb347 2.308 . S
O390 C410 1.266 . S
O391 Tb336 2.393 . S
O391 C410 1.248 . S
C392 O381 1.264 . S
C392 O382 1.243 . S
C393 C396 1.399 . S
C393 C398 1.383 1_556 S
C393 C400 1.496 1_556 S
C394 C395 1.399 . S
C394 C398 1.389 1_556 S
C395 C394 1.399 . S
C395 C397 1.380 . S
C395 H412 0.929 . S
C396 C393 1.399 . S
C396 C397 1.392 . S
C396 H413 0.929 . S
C397 C395 1.380 . S
C397 C396 1.392 . S
C397 H414 0.929 . S
C398 C393 1.383 1_554 S
C398 C394 1.389 1_554 S
C398 H415 0.931 . S
C399 O384 1.266 . S
C399 O385 1.248 . S
C400 Tb336 2.802 . S
C400 O380 1.264 . S
C400 O383 1.256 . S
C400 C393 1.496 1_554 S
C401 C368 1.448 . S
C401 H378 0.930 . S
C401 C402 1.328 . S
C402 C373 1.427 . S
C402 H379 0.929 . S
C402 C401 1.328 . S
C403 O387 1.264 . S
C403 O388 1.243 . S
C404 C407 1.399 . S
C404 C408 1.383 . S
C404 C411 1.496 . S
C405 C406 1.399 . S
C405 C408 1.389 . S
C406 C405 1.399 . S
C406 C409 1.380 . S
C406 H416 0.929 . S
C407 C404 1.399 . S
C407 C409 1.392 . S
C407 H417 0.929 . S
C408 C404 1.383 . S
C408 C405 1.389 . S
C408 H418 0.931 . S
C409 C406 1.380 . S
C409 C407 1.392 . S
C409 H419 0.929 . S
C410 O390 1.266 . S
C410 O391 1.248 . S
C411 Tb347 2.802 . S
C411 O386 1.264 . S
C411 O389 1.256 . S
C411 C404 1.496 . S
H412 C395 0.929 . S
H413 C396 0.929 . S
H414 C397 0.929 . S
H415 C398 0.931 . S
H416 C406 0.929 . S
H417 C407 0.929 . S
H418 C408 0.931 . S
H419 C409 0.929 . S
Tb420 N449 2.617 1_655 S
Tb420 N455 2.572 . S
Tb420 O464 2.465 . S
Tb420 O465 2.387 1_655 S
Tb420 O467 2.428 . S
Tb420 O468 2.308 . S
Tb420 O472 2.349 . S
Tb420 O475 2.393 1_655 S
Tb420 C484 2.802 . S
C421 N422 1.379 . S
C421 C424 1.416 . S
C421 C428 1.424 . S
N422 C421 1.379 . S
N422 C425 1.334 . S
N422 Tb431 2.617 1_655 S
C423 C425 1.390 . S
C423 C426 1.339 . S
C423 H443 0.930 . S
C424 C421 1.416 . S
C424 C426 1.416 . S
C424 C430 1.448 . S
C425 N422 1.334 . S
C425 C423 1.390 . S
C425 H436 0.930 . S
C426 C423 1.339 . S
C426 C424 1.416 . S
C426 H447 0.930 . S
C427 C428 1.413 . S
C427 C429 1.427 . S
C427 C433 1.416 1_655 S
C428 C421 1.424 . S
C428 C427 1.413 . S
C428 N432 1.361 1_655 S
C429 C427 1.427 . S
C429 C430 1.328 . S
C429 H444 0.929 . S
C430 C424 1.448 . S
C430 C429 1.328 . S
C430 H445 0.930 . S
Tb431 N422 2.617 1_455 S
Tb431 N432 2.572 . S
Tb431 O466 2.349 . S
Tb431 O469 2.393 1_455 S
Tb431 O470 2.465 . S
Tb431 O471 2.387 1_455 S
Tb431 O473 2.428 . S
Tb431 O474 2.308 . S
Tb431 C495 2.802 . S
N432 C428 1.361 1_455 S
N432 Tb431 2.572 . S
N432 C434 1.340 . S
C433 C427 1.416 1_455 S
C433 C435 1.332 . S
C433 H441 0.931 . S
C434 N432 1.340 . S
C434 C435 1.407 . S
C434 H440 0.930 . S
C435 C433 1.332 . S
C435 C434 1.407 . S
C435 H437 0.929 . S
H436 C425 0.930 . S
H437 C435 0.929 . S
H438 C453 0.930 . S
H439 C460 0.929 . S
H440 C434 0.930 . S
H441 C433 0.931 . S
H442 C456 0.930 . S
H443 C423 0.930 . S
H444 C429 0.929 . S
H445 C430 0.930 . S
H446 C451 0.930 . S
H447 C426 0.930 . S
H448 C459 0.931 . S
N449 Tb420 2.617 1_455 S
N449 C450 1.379 . S
N449 C453 1.334 . S
C450 N449 1.379 . S
C450 C452 1.416 . S
C450 C458 1.424 . S
C451 H446 0.930 . S
C451 C453 1.390 . S
C451 C454 1.339 . S
C452 C450 1.416 . S
C452 C454 1.416 . S
C452 C485 1.448 . S
C453 H438 0.930 . S
C453 N449 1.334 . S
C453 C451 1.390 . S
C454 C451 1.339 . S
C454 C452 1.416 . S
C454 H461 0.930 . S
N455 Tb420 2.572 . S
N455 C456 1.340 . S
N455 C458 1.361 1_655 S
C456 H442 0.930 . S
C456 N455 1.340 . S
C456 C460 1.407 . S
C457 C458 1.413 . S
C457 C459 1.416 1_455 S
C457 C486 1.427 . S
C458 C450 1.424 . S
C458 N455 1.361 1_455 S
C458 C457 1.413 . S
C459 H448 0.931 . S
C459 C457 1.416 1_655 S
C459 C460 1.332 . S
C460 H439 0.929 . S
C460 C456 1.407 . S
C460 C459 1.332 . S
H461 C454 0.930 . S
H462 C485 0.930 . S
H463 C486 0.929 . S
O464 Tb420 2.465 . S
O464 C484 1.264 . S
O465 Tb420 2.387 1_455 S
O465 C476 1.264 . S
O466 Tb431 2.349 . S
O466 C476 1.243 . S
O467 Tb420 2.428 . S
O467 C484 1.256 . S
O468 Tb420 2.308 . S
O468 C483 1.266 . S
O469 Tb431 2.393 1_655 S
O469 C483 1.248 . S
O470 Tb431 2.465 . S
O470 C495 1.264 . S
O471 Tb431 2.387 1_655 S
O471 C487 1.264 . S
O472 Tb420 2.349 . S
O472 C487 1.243 . S
O473 Tb431 2.428 . S
O473 C495 1.256 . S
O474 Tb431 2.308 . S
O474 C494 1.266 . S
O475 Tb420 2.393 1_455 S
O475 C494 1.248 . S
C476 O465 1.264 . S
C476 O466 1.243 . S
C477 C480 1.399 . S
C477 C482 1.383 . S
C477 C484 1.496 . S
C478 C479 1.399 . S
C478 C482 1.389 . S
C479 C478 1.399 . S
C479 C481 1.380 . S
C479 H496 0.929 . S
C480 C477 1.399 . S
C480 C481 1.392 . S
C480 H497 0.929 . S
C481 C479 1.380 . S
C481 C480 1.392 . S
C481 H498 0.929 . S
C482 C477 1.383 . S
C482 C478 1.389 . S
C482 H499 0.931 . S
C483 O468 1.266 . S
C483 O469 1.248 . S
C484 Tb420 2.802 . S
C484 O464 1.264 . S
C484 O467 1.256 . S
C484 C477 1.496 . S
C485 C452 1.448 . S
C485 H462 0.930 . S
C485 C486 1.328 . S
C486 C457 1.427 . S
C486 H463 0.929 . S
C486 C485 1.328 . S
C487 O471 1.264 . S
C487 O472 1.243 . S
C488 C491 1.399 . S
C488 C492 1.383 . S
C488 C495 1.496 . S
C489 C490 1.399 . S
C489 C492 1.389 . S
C490 C489 1.399 . S
C490 C493 1.380 . S
C490 H500 0.929 . S
C491 C488 1.399 . S
C491 C493 1.392 . S
C491 H501 0.929 . S
C492 C488 1.383 . S
C492 C489 1.389 . S
C492 H502 0.931 . S
C493 C490 1.380 . S
C493 C491 1.392 . S
C493 H503 0.929 . S
C494 O474 1.266 . S
C494 O475 1.248 . S
C495 Tb431 2.802 . S
C495 O470 1.264 . S
C495 O473 1.256 . S
C495 C488 1.496 . S
H496 C479 0.929 . S
H497 C480 0.929 . S
H498 C481 0.929 . S
H499 C482 0.931 . S
H500 C490 0.929 . S
H501 C491 0.929 . S
H502 C492 0.931 . S
H503 C493 0.929 . S
Tb504 N533 2.617 1_455 S
Tb504 N539 2.572 . S
Tb504 O548 2.465 . S
Tb504 O549 2.387 1_455 S
Tb504 O551 2.428 . S
Tb504 O552 2.308 . S
Tb504 O556 2.349 . S
Tb504 O559 2.393 1_455 S
Tb504 C568 2.802 . S
C505 N506 1.379 . S
C505 C508 1.416 . S
C505 C512 1.424 . S
N506 C505 1.379 . S
N506 C509 1.334 . S
N506 Tb515 2.617 1_455 S
C507 C509 1.390 . S
C507 C510 1.339 . S
C507 H527 0.930 . S
C508 C505 1.416 . S
C508 C510 1.416 . S
C508 C514 1.448 . S
C509 N506 1.334 . S
C509 C507 1.390 . S
C509 H520 0.930 . S
C510 C507 1.339 . S
C510 C508 1.416 . S
C510 H531 0.930 . S
C511 C512 1.413 . S
C511 C513 1.427 . S
C511 C517 1.416 1_455 S
C512 C505 1.424 . S
C512 C511 1.413 . S
C512 N516 1.361 1_455 S
C513 C511 1.427 . S
C513 C514 1.328 . S
C513 H528 0.929 . S
C514 C508 1.448 . S
C514 C513 1.328 . S
C514 H529 0.930 . S
Tb515 N506 2.617 1_655 S
Tb515 N516 2.572 . S
Tb515 O550 2.349 . S
Tb515 O553 2.393 1_655 S
Tb515 O554 2.465 . S
Tb515 O555 2.387 1_655 S
Tb515 O557 2.428 . S
Tb515 O558 2.308 . S
Tb515 C579 2.802 . S
N516 C512 1.361 1_655 S
N516 Tb515 2.572 . S
N516 C518 1.340 . S
C517 C511 1.416 1_655 S
C517 C519 1.332 . S
C517 H525 0.931 . S
C518 N516 1.340 . S
C518 C519 1.407 . S
C518 H524 0.930 . S
C519 C517 1.332 . S
C519 C518 1.407 . S
C519 H521 0.929 . S
H520 C509 0.930 . S
H521 C519 0.929 . S
H522 C537 0.930 . S
H523 C544 0.929 . S
H524 C518 0.930 . S
H525 C517 0.931 . S
H526 C540 0.930 . S
H527 C507 0.930 . S
H528 C513 0.929 . S
H529 C514 0.930 . S
H530 C535 0.930 . S
H531 C510 0.930 . S
H532 C543 0.931 . S
N533 Tb504 2.617 1_655 S
N533 C534 1.379 . S
N533 C537 1.334 . S
C534 N533 1.379 . S
C534 C536 1.416 . S
C534 C542 1.424 . S
C535 H530 0.930 . S
C535 C537 1.390 . S
C535 C538 1.339 . S
C536 C534 1.416 . S
C536 C538 1.416 . S
C536 C569 1.448 . S
C537 H522 0.930 . S
C537 N533 1.334 . S
C537 C535 1.390 . S
C538 C535 1.339 . S
C538 C536 1.416 . S
C538 H545 0.930 . S
N539 Tb504 2.572 . S
N539 C540 1.340 . S
N539 C542 1.361 1_455 S
C540 H526 0.930 . S
C540 N539 1.340 . S
C540 C544 1.407 . S
C541 C542 1.413 . S
C541 C543 1.416 1_655 S
C541 C570 1.427 . S
C542 C534 1.424 . S
C542 N539 1.361 1_655 S
C542 C541 1.413 . S
C543 H532 0.931 . S
C543 C541 1.416 1_455 S
C543 C544 1.332 . S
C544 H523 0.929 . S
C544 C540 1.407 . S
C544 C543 1.332 . S
H545 C538 0.930 . S
H546 C569 0.930 . S
H547 C570 0.929 . S
O548 Tb504 2.465 . S
O548 C568 1.264 . S
O549 Tb504 2.387 1_655 S
O549 C560 1.264 . S
O550 Tb515 2.349 . S
O550 C560 1.243 . S
O551 Tb504 2.428 . S
O551 C568 1.256 . S
O552 Tb504 2.308 . S
O552 C567 1.266 . S
O553 Tb515 2.393 1_455 S
O553 C567 1.248 . S
O554 Tb515 2.465 . S
O554 C579 1.264 . S
O555 Tb515 2.387 1_455 S
O555 C571 1.264 . S
O556 Tb504 2.349 . S
O556 C571 1.243 . S
O557 Tb515 2.428 . S
O557 C579 1.256 . S
O558 Tb515 2.308 . S
O558 C578 1.266 . S
O559 Tb504 2.393 1_655 S
O559 C578 1.248 . S
C560 O549 1.264 . S
C560 O550 1.243 . S
C561 C564 1.399 . S
C561 C566 1.383 . S
C561 C568 1.496 . S
C562 C563 1.399 . S
C562 C566 1.389 . S
C563 C562 1.399 . S
C563 C565 1.380 . S
C563 H580 0.929 . S
C564 C561 1.399 . S
C564 C565 1.392 . S
C564 H581 0.929 . S
C565 C563 1.380 . S
C565 C564 1.392 . S
C565 H582 0.929 . S
C566 C561 1.383 . S
C566 C562 1.389 . S
C566 H583 0.931 . S
C567 O552 1.266 . S
C567 O553 1.248 . S
C568 Tb504 2.802 . S
C568 O548 1.264 . S
C568 O551 1.256 . S
C568 C561 1.496 . S
C569 C536 1.448 . S
C569 H546 0.930 . S
C569 C570 1.328 . S
C570 C541 1.427 . S
C570 H547 0.929 . S
C570 C569 1.328 . S
C571 O555 1.264 . S
C571 O556 1.243 . S
C572 C575 1.399 . S
C572 C576 1.383 . S
C572 C579 1.496 . S
C573 C574 1.399 . S
C573 C576 1.389 . S
C574 C573 1.399 . S
C574 C577 1.380 . S
C574 H584 0.929 . S
C575 C572 1.399 . S
C575 C577 1.392 . S
C575 H585 0.929 . S
C576 C572 1.383 . S
C576 C573 1.389 . S
C576 H586 0.931 . S
C577 C574 1.380 . S
C577 C575 1.392 . S
C577 H587 0.929 . S
C578 O558 1.266 . S
C578 O559 1.248 . S
C579 Tb515 2.802 . S
C579 O554 1.264 . S
C579 O557 1.256 . S
C579 C572 1.496 . S
H580 C563 0.929 . S
H581 C564 0.929 . S
H582 C565 0.929 . S
H583 C566 0.931 . S
H584 C574 0.929 . S
H585 C575 0.929 . S
H586 C576 0.931 . S
H587 C577 0.929 . S
Tb588 N617 2.617 1_545 S
Tb588 N623 2.572 . S
Tb588 O632 2.465 . S
Tb588 O633 2.387 1_545 S
Tb588 O635 2.428 . S
Tb588 O636 2.308 . S
Tb588 O640 2.349 . S
Tb588 O643 2.393 1_545 S
Tb588 C652 2.802 . S
C589 N590 1.379 . S
C589 C592 1.416 . S
C589 C596 1.424 . S
N590 C589 1.379 . S
N590 C593 1.334 . S
N590 Tb599 2.617 1_545 S
C591 C593 1.390 . S
C591 C594 1.339 . S
C591 H611 0.930 . S
C592 C589 1.416 . S
C592 C594 1.416 . S
C592 C598 1.448 . S
C593 N590 1.334 . S
C593 C591 1.390 . S
C593 H604 0.930 . S
C594 C591 1.339 . S
C594 C592 1.416 . S
C594 H615 0.930 . S
C595 C596 1.413 . S
C595 C597 1.427 . S
C595 C601 1.416 1_545 S
C596 C589 1.424 . S
C596 C595 1.413 . S
C596 N600 1.361 1_545 S
C597 C595 1.427 . S
C597 C598 1.328 . S
C597 H612 0.929 . S
C598 C592 1.448 . S
C598 C597 1.328 . S
C598 H613 0.930 . S
Tb599 N590 2.617 1_565 S
Tb599 N600 2.572 . S
Tb599 O634 2.349 . S
Tb599 O637 2.393 1_565 S
Tb599 O638 2.465 . S
Tb599 O639 2.387 1_565 S
Tb599 O641 2.428 . S
Tb599 O642 2.308 . S
Tb599 C663 2.802 . S
N600 C596 1.361 1_565 S
N600 Tb599 2.572 . S
N600 C602 1.340 . S
C601 C595 1.416 1_565 S
C601 C603 1.332 . S
C601 H609 0.931 . S
C602 N600 1.340 . S
C602 C603 1.407 . S
C602 H608 0.930 . S
C603 C601 1.332 . S
C603 C602 1.407 . S
C603 H605 0.929 . S
H604 C593 0.930 . S
H605 C603 0.929 . S
H606 C621 0.930 . S
H607 C628 0.929 . S
H608 C602 0.930 . S
H609 C601 0.931 . S
H610 C624 0.930 . S
H611 C591 0.930 . S
H612 C597 0.929 . S
H613 C598 0.930 . S
H614 C619 0.930 . S
H615 C594 0.930 . S
H616 C627 0.931 . S
N617 Tb588 2.617 1_565 S
N617 C618 1.379 . S
N617 C621 1.334 . S
C618 N617 1.379 . S
C618 C620 1.416 . S
C618 C626 1.424 . S
C619 H614 0.930 . S
C619 C621 1.390 . S
C619 C622 1.339 . S
C620 C618 1.416 . S
C620 C622 1.416 . S
C620 C653 1.448 . S
C621 H606 0.930 . S
C621 N617 1.334 . S
C621 C619 1.390 . S
C622 C619 1.339 . S
C622 C620 1.416 . S
C622 H629 0.930 . S
N623 Tb588 2.572 . S
N623 C624 1.340 . S
N623 C626 1.361 1_545 S
C624 H610 0.930 . S
C624 N623 1.340 . S
C624 C628 1.407 . S
C625 C626 1.413 . S
C625 C627 1.416 1_565 S
C625 C654 1.427 . S
C626 C618 1.424 . S
C626 N623 1.361 1_565 S
C626 C625 1.413 . S
C627 H616 0.931 . S
C627 C625 1.416 1_545 S
C627 C628 1.332 . S
C628 H607 0.929 . S
C628 C624 1.407 . S
C628 C627 1.332 . S
H629 C622 0.930 . S
H630 C653 0.930 . S
H631 C654 0.929 . S
O632 Tb588 2.465 . S
O632 C652 1.264 . S
O633 Tb588 2.387 1_565 S
O633 C644 1.264 . S
O634 Tb599 2.349 . S
O634 C644 1.243 . S
O635 Tb588 2.428 . S
O635 C652 1.256 . S
O636 Tb588 2.308 . S
O636 C651 1.266 . S
O637 Tb599 2.393 1_545 S
O637 C651 1.248 . S
O638 Tb599 2.465 . S
O638 C663 1.264 . S
O639 Tb599 2.387 1_545 S
O639 C655 1.264 . S
O640 Tb588 2.349 . S
O640 C655 1.243 . S
O641 Tb599 2.428 . S
O641 C663 1.256 . S
O642 Tb599 2.308 . S
O642 C662 1.266 . S
O643 Tb588 2.393 1_565 S
O643 C662 1.248 . S
C644 O633 1.264 . S
C644 O634 1.243 . S
C645 C648 1.399 . S
C645 C650 1.383 . S
C645 C652 1.496 . S
C646 C647 1.399 . S
C646 C650 1.389 . S
C647 C646 1.399 . S
C647 C649 1.380 . S
C647 H664 0.929 . S
C648 C645 1.399 . S
C648 C649 1.392 . S
C648 H665 0.929 . S
C649 C647 1.380 . S
C649 C648 1.392 . S
C649 H666 0.929 . S
C650 C645 1.383 . S
C650 C646 1.389 . S
C650 H667 0.931 . S
C651 O636 1.266 . S
C651 O637 1.248 . S
C652 Tb588 2.802 . S
C652 O632 1.264 . S
C652 O635 1.256 . S
C652 C645 1.496 . S
C653 C620 1.448 . S
C653 H630 0.930 . S
C653 C654 1.328 . S
C654 C625 1.427 . S
C654 H631 0.929 . S
C654 C653 1.328 . S
C655 O639 1.264 . S
C655 O640 1.243 . S
C656 C659 1.399 . S
C656 C660 1.383 . S
C656 C663 1.496 . S
C657 C658 1.399 . S
C657 C660 1.389 . S
C658 C657 1.399 . S
C658 C661 1.380 . S
C658 H668 0.929 . S
C659 C656 1.399 . S
C659 C661 1.392 . S
C659 H669 0.929 . S
C660 C656 1.383 . S
C660 C657 1.389 . S
C660 H670 0.931 . S
C661 C658 1.380 . S
C661 C659 1.392 . S
C661 H671 0.929 . S
C662 O642 1.266 . S
C662 O643 1.248 . S
C663 Tb599 2.802 . S
C663 O638 1.264 . S
C663 O641 1.256 . S
C663 C656 1.496 . S
H664 C647 0.929 . S
H665 C648 0.929 . S
H666 C649 0.929 . S
H667 C650 0.931 . S
H668 C658 0.929 . S
H669 C659 0.929 . S
H670 C660 0.931 . S
H671 C661 0.929 . S
Tb672 N701 2.617 . S
Tb672 N707 2.572 . S
Tb672 O716 2.465 . S
Tb672 O717 2.387 . S
Tb672 O719 2.428 . S
Tb672 O720 2.308 . S
Tb672 O724 2.349 . S
Tb672 O727 2.393 . S
Tb672 C736 2.802 . S
C673 N674 1.379 . S
C673 C676 1.416 . S
C673 C680 1.424 . S
N674 C673 1.379 . S
N674 C677 1.334 . S
N674 Tb683 2.617 . S
C675 C677 1.390 . S
C675 C678 1.339 . S
C675 H695 0.930 . S
C676 C673 1.416 . S
C676 C678 1.416 . S
C676 C682 1.448 . S
C677 N674 1.334 . S
C677 C675 1.390 . S
C677 H688 0.930 . S
C678 C675 1.339 . S
C678 C676 1.416 . S
C678 H699 0.930 . S
C679 C680 1.413 . S
C679 C681 1.427 . S
C679 C685 1.416 . S
C680 C673 1.424 . S
C680 C679 1.413 . S
C680 N684 1.361 . S
C681 C679 1.427 . S
C681 C682 1.328 . S
C681 H696 0.929 . S
C682 C676 1.448 . S
C682 C681 1.328 . S
C682 H697 0.930 . S
Tb683 N674 2.617 . S
Tb683 N684 2.572 . S
Tb683 O718 2.349 . S
Tb683 O721 2.393 . S
Tb683 O722 2.465 . S
Tb683 O723 2.387 . S
Tb683 O725 2.428 . S
Tb683 O726 2.308 . S
Tb683 C747 2.802 . S
N684 C680 1.361 . S
N684 Tb683 2.572 . S
N684 C686 1.340 . S
C685 C679 1.416 . S
C685 C687 1.332 . S
C685 H693 0.931 . S
C686 N684 1.340 . S
C686 C687 1.407 . S
C686 H692 0.930 . S
C687 C685 1.332 . S
C687 C686 1.407 . S
C687 H689 0.929 . S
H688 C677 0.930 . S
H689 C687 0.929 . S
H690 C705 0.930 . S
H691 C712 0.929 . S
H692 C686 0.930 . S
H693 C685 0.931 . S
H694 C708 0.930 . S
H695 C675 0.930 . S
H696 C681 0.929 . S
H697 C682 0.930 . S
H698 C703 0.930 . S
H699 C678 0.930 . S
H700 C711 0.931 . S
N701 Tb672 2.617 . S
N701 C702 1.379 . S
N701 C705 1.334 . S
C702 N701 1.379 . S
C702 C704 1.416 . S
C702 C710 1.424 . S
C703 H698 0.930 . S
C703 C705 1.390 . S
C703 C706 1.339 . S
C704 C702 1.416 . S
C704 C706 1.416 . S
C704 C737 1.448 . S
C705 H690 0.930 . S
C705 N701 1.334 . S
C705 C703 1.390 . S
C706 C703 1.339 . S
C706 C704 1.416 . S
C706 H713 0.930 . S
N707 Tb672 2.572 . S
N707 C708 1.340 . S
N707 C710 1.361 . S
C708 H694 0.930 . S
C708 N707 1.340 . S
C708 C712 1.407 . S
C709 C710 1.413 . S
C709 C711 1.416 . S
C709 C738 1.427 . S
C710 C702 1.424 . S
C710 N707 1.361 . S
C710 C709 1.413 . S
C711 H700 0.931 . S
C711 C709 1.416 . S
C711 C712 1.332 . S
C712 H691 0.929 . S
C712 C708 1.407 . S
C712 C711 1.332 . S
H713 C706 0.930 . S
H714 C737 0.930 . S
H715 C738 0.929 . S
O716 Tb672 2.465 . S
O716 C736 1.264 . S
O717 Tb672 2.387 . S
O717 C728 1.264 . S
O718 Tb683 2.349 . S
O718 C728 1.243 . S
O719 Tb672 2.428 . S
O719 C736 1.256 . S
O720 Tb672 2.308 . S
O720 C735 1.266 . S
O721 Tb683 2.393 . S
O721 C735 1.248 . S
O722 Tb683 2.465 . S
O722 C747 1.264 . S
O723 Tb683 2.387 . S
O723 C739 1.264 . S
O724 Tb672 2.349 . S
O724 C739 1.243 . S
O725 Tb683 2.428 . S
O725 C747 1.256 . S
O726 Tb683 2.308 . S
O726 C746 1.266 . S
O727 Tb672 2.393 . S
O727 C746 1.248 . S
C728 O717 1.264 . S
C728 O718 1.243 . S
C729 C732 1.399 . S
C729 C734 1.383 . S
C729 C736 1.496 . S
C730 C731 1.399 . S
C730 C734 1.389 . S
C731 C730 1.399 . S
C731 C733 1.380 . S
C731 H748 0.929 . S
C732 C729 1.399 . S
C732 C733 1.392 . S
C732 H749 0.929 . S
C733 C731 1.380 . S
C733 C732 1.392 . S
C733 H750 0.929 . S
C734 C729 1.383 . S
C734 C730 1.389 . S
C734 H751 0.931 . S
C735 O720 1.266 . S
C735 O721 1.248 . S
C736 Tb672 2.802 . S
C736 O716 1.264 . S
C736 O719 1.256 . S
C736 C729 1.496 . S
C737 C704 1.448 . S
C737 H714 0.930 . S
C737 C738 1.328 . S
C738 C709 1.427 . S
C738 H715 0.929 . S
C738 C737 1.328 . S
C739 O723 1.264 . S
C739 O724 1.243 . S
C740 C743 1.399 . S
C740 C744 1.383 . S
C740 C747 1.496 . S
C741 C742 1.399 . S
C741 C744 1.389 . S
C742 C741 1.399 . S
C742 C745 1.380 . S
C742 H752 0.929 . S
C743 C740 1.399 . S
C743 C745 1.392 . S
C743 H753 0.929 . S
C744 C740 1.383 . S
C744 C741 1.389 . S
C744 H754 0.931 . S
C745 C742 1.380 . S
C745 C743 1.392 . S
C745 H755 0.929 . S
C746 O726 1.266 . S
C746 O727 1.248 . S
C747 Tb683 2.802 . S
C747 O722 1.264 . S
C747 O725 1.256 . S
C747 C740 1.496 . S
H748 C731 0.929 . S
H749 C732 0.929 . S
H750 C733 0.929 . S
H751 C734 0.931 . S
H752 C742 0.929 . S
H753 C743 0.929 . S
H754 C744 0.931 . S
H755 C745 0.929 . S
Tb756 N785 2.617 1_655 S
Tb756 N791 2.572 . S
Tb756 O800 2.465 . S
Tb756 O801 2.387 1_655 S
Tb756 O803 2.428 . S
Tb756 O804 2.308 . S
Tb756 O808 2.349 . S
Tb756 O811 2.393 1_655 S
Tb756 C820 2.802 . S
C757 N758 1.379 . S
C757 C760 1.416 . S
C757 C764 1.424 . S
N758 C757 1.379 . S
N758 C761 1.334 . S
N758 Tb767 2.617 1_655 S
C759 C761 1.390 . S
C759 C762 1.339 . S
C759 H779 0.930 . S
C760 C757 1.416 . S
C760 C762 1.416 . S
C760 C766 1.448 . S
C761 N758 1.334 . S
C761 C759 1.390 . S
C761 H772 0.930 . S
C762 C759 1.339 . S
C762 C760 1.416 . S
C762 H783 0.930 . S
C763 C764 1.413 . S
C763 C765 1.427 . S
C763 C769 1.416 1_655 S
C764 C757 1.424 . S
C764 C763 1.413 . S
C764 N768 1.361 1_655 S
C765 C763 1.427 . S
C765 C766 1.328 . S
C765 H780 0.929 . S
C766 C760 1.448 . S
C766 C765 1.328 . S
C766 H781 0.930 . S
Tb767 N758 2.617 1_455 S
Tb767 N768 2.572 . S
Tb767 O802 2.349 . S
Tb767 O805 2.393 1_455 S
Tb767 O806 2.465 . S
Tb767 O807 2.387 1_455 S
Tb767 O809 2.428 . S
Tb767 O810 2.308 . S
Tb767 C831 2.802 . S
N768 C764 1.361 1_455 S
N768 Tb767 2.572 . S
N768 C770 1.340 . S
C769 C763 1.416 1_455 S
C769 C771 1.332 . S
C769 H777 0.931 . S
C770 N768 1.340 . S
C770 C771 1.407 . S
C770 H776 0.930 . S
C771 C769 1.332 . S
C771 C770 1.407 . S
C771 H773 0.929 . S
H772 C761 0.930 . S
H773 C771 0.929 . S
H774 C789 0.930 . S
H775 C796 0.929 . S
H776 C770 0.930 . S
H777 C769 0.931 . S
H778 C792 0.930 . S
H779 C759 0.930 . S
H780 C765 0.929 . S
H781 C766 0.930 . S
H782 C787 0.930 1_554 S
H783 C762 0.930 . S
H784 C795 0.931 . S
N785 Tb756 2.617 1_455 S
N785 C786 1.379 . S
N785 C789 1.334 . S
C786 N785 1.379 . S
C786 C788 1.416 . S
C786 C794 1.424 . S
C787 H782 0.930 1_556 S
C787 C789 1.390 . S
C787 C790 1.339 . S
C788 C786 1.416 . S
C788 C790 1.416 . S
C788 C821 1.448 . S
C789 H774 0.930 . S
C789 N785 1.334 . S
C789 C787 1.390 . S
C790 C787 1.339 . S
C790 C788 1.416 . S
C790 H797 0.930 . S
N791 Tb756 2.572 . S
N791 C792 1.340 . S
N791 C794 1.361 1_655 S
C792 H778 0.930 . S
C792 N791 1.340 . S
C792 C796 1.407 . S
C793 C794 1.413 . S
C793 C795 1.416 1_455 S
C793 C822 1.427 . S
C794 C786 1.424 . S
C794 N791 1.361 1_455 S
C794 C793 1.413 . S
C795 H784 0.931 . S
C795 C793 1.416 1_655 S
C795 C796 1.332 . S
C796 H775 0.929 . S
C796 C792 1.407 . S
C796 C795 1.332 . S
H797 C790 0.930 . S
H798 C821 0.930 . S
H799 C822 0.929 . S
O800 Tb756 2.465 . S
O800 C820 1.264 . S
O801 Tb756 2.387 1_455 S
O801 C812 1.264 . S
O802 Tb767 2.349 . S
O802 C812 1.243 . S
O803 Tb756 2.428 . S
O803 C820 1.256 . S
O804 Tb756 2.308 . S
O804 C819 1.266 . S
O805 Tb767 2.393 1_655 S
O805 C819 1.248 . S
O806 Tb767 2.465 . S
O806 C831 1.264 . S
O807 Tb767 2.387 1_655 S
O807 C823 1.264 . S
O808 Tb756 2.349 . S
O808 C823 1.243 . S
O809 Tb767 2.428 . S
O809 C831 1.256 . S
O810 Tb767 2.308 . S
O810 C830 1.266 . S
O811 Tb756 2.393 1_455 S
O811 C830 1.248 . S
C812 O801 1.264 . S
C812 O802 1.243 . S
C813 C816 1.399 . S
C813 C818 1.383 . S
C813 C820 1.496 1_554 S
C814 C815 1.399 . S
C814 C818 1.389 . S
C815 C814 1.399 . S
C815 C817 1.380 . S
C815 H832 0.929 . S
C816 C813 1.399 . S
C816 C817 1.392 . S
C816 H833 0.929 . S
C817 C815 1.380 . S
C817 C816 1.392 . S
C817 H834 0.929 . S
C818 C813 1.383 . S
C818 C814 1.389 . S
C818 H835 0.931 1_554 S
C819 O804 1.266 . S
C819 O805 1.248 . S
C820 Tb756 2.802 . S
C820 O800 1.264 . S
C820 O803 1.256 . S
C820 C813 1.496 1_556 S
C821 C788 1.448 . S
C821 H798 0.930 . S
C821 C822 1.328 . S
C822 C793 1.427 . S
C822 H799 0.929 . S
C822 C821 1.328 . S
C823 O807 1.264 . S
C823 O808 1.243 . S
C824 C827 1.399 . S
C824 C828 1.383 . S
C824 C831 1.496 . S
C825 C826 1.399 . S
C825 C828 1.389 . S
C826 C825 1.399 . S
C826 C829 1.380 . S
C826 H836 0.929 . S
C827 C824 1.399 . S
C827 C829 1.392 . S
C827 H837 0.929 . S
C828 C824 1.383 . S
C828 C825 1.389 . S
C828 H838 0.931 . S
C829 C826 1.380 . S
C829 C827 1.392 . S
C829 H839 0.929 . S
C830 O810 1.266 . S
C830 O811 1.248 . S
C831 Tb767 2.802 . S
C831 O806 1.264 . S
C831 O809 1.256 . S
C831 C824 1.496 . S
H832 C815 0.929 . S
H833 C816 0.929 . S
H834 C817 0.929 . S
H835 C818 0.931 1_556 S
H836 C826 0.929 . S
H837 C827 0.929 . S
H838 C828 0.931 . S
H839 C829 0.929 . S
Tb840 N869 2.617 1_565 S
Tb840 N875 2.572 . S
Tb840 O884 2.465 . S
Tb840 O885 2.387 1_565 S
Tb840 O887 2.428 . S
Tb840 O888 2.308 . S
Tb840 O892 2.349 . S
Tb840 O895 2.393 1_565 S
Tb840 C904 2.802 . S
C841 N842 1.379 . S
C841 C844 1.416 . S
C841 C848 1.424 . S
N842 C841 1.379 . S
N842 C845 1.334 . S
N842 Tb851 2.617 1_565 S
C843 C845 1.390 . S
C843 C846 1.339 . S
C843 H863 0.930 . S
C844 C841 1.416 . S
C844 C846 1.416 . S
C844 C850 1.448 . S
C845 N842 1.334 . S
C845 C843 1.390 . S
C845 H856 0.930 . S
C846 C843 1.339 . S
C846 C844 1.416 . S
C846 H867 0.930 . S
C847 C848 1.413 . S
C847 C849 1.427 . S
C847 C853 1.416 1_565 S
C848 C841 1.424 . S
C848 C847 1.413 . S
C848 N852 1.361 1_565 S
C849 C847 1.427 . S
C849 C850 1.328 . S
C849 H864 0.929 . S
C850 C844 1.448 . S
C850 C849 1.328 . S
C850 H865 0.930 . S
Tb851 N842 2.617 1_545 S
Tb851 N852 2.572 . S
Tb851 O886 2.349 . S
Tb851 O889 2.393 1_545 S
Tb851 O890 2.465 . S
Tb851 O891 2.387 1_545 S
Tb851 O893 2.428 . S
Tb851 O894 2.308 . S
Tb851 C915 2.802 . S
N852 C848 1.361 1_545 S
N852 Tb851 2.572 . S
N852 C854 1.340 . S
C853 C847 1.416 1_545 S
C853 C855 1.332 . S
C853 H861 0.931 . S
C854 N852 1.340 . S
C854 C855 1.407 . S
C854 H860 0.930 . S
C855 C853 1.332 . S
C855 C854 1.407 . S
C855 H857 0.929 . S
H856 C845 0.930 . S
H857 C855 0.929 . S
H858 C873 0.930 . S
H859 C880 0.929 . S
H860 C854 0.930 . S
H861 C853 0.931 . S
H862 C876 0.930 . S
H863 C843 0.930 . S
H864 C849 0.929 . S
H865 C850 0.930 . S
H866 C871 0.930 . S
H867 C846 0.930 . S
H868 C879 0.931 . S
N869 Tb840 2.617 1_545 S
N869 C870 1.379 . S
N869 C873 1.334 . S
C870 N869 1.379 . S
C870 C872 1.416 . S
C870 C878 1.424 . S
C871 H866 0.930 . S
C871 C873 1.390 . S
C871 C874 1.339 . S
C872 C870 1.416 . S
C872 C874 1.416 . S
C872 C905 1.448 . S
C873 H858 0.930 . S
C873 N869 1.334 . S
C873 C871 1.390 . S
C874 C871 1.339 . S
C874 C872 1.416 . S
C874 H881 0.930 . S
N875 Tb840 2.572 . S
N875 C876 1.340 . S
N875 C878 1.361 1_565 S
C876 H862 0.930 . S
C876 N875 1.340 . S
C876 C880 1.407 . S
C877 C878 1.413 . S
C877 C879 1.416 1_545 S
C877 C906 1.427 . S
C878 C870 1.424 . S
C878 N875 1.361 1_545 S
C878 C877 1.413 . S
C879 H868 0.931 . S
C879 C877 1.416 1_565 S
C879 C880 1.332 . S
C880 H859 0.929 . S
C880 C876 1.407 . S
C880 C879 1.332 . S
H881 C874 0.930 . S
H882 C905 0.930 . S
H883 C906 0.929 . S
O884 Tb840 2.465 . S
O884 C904 1.264 . S
O885 Tb840 2.387 1_545 S
O885 C896 1.264 . S
O886 Tb851 2.349 . S
O886 C896 1.243 . S
O887 Tb840 2.428 . S
O887 C904 1.256 . S
O888 Tb840 2.308 . S
O888 C903 1.266 . S
O889 Tb851 2.393 1_565 S
O889 C903 1.248 . S
O890 Tb851 2.465 . S
O890 C915 1.264 . S
O891 Tb851 2.387 1_565 S
O891 C907 1.264 . S
O892 Tb840 2.349 . S
O892 C907 1.243 . S
O893 Tb851 2.428 . S
O893 C915 1.256 . S
O894 Tb851 2.308 . S
O894 C914 1.266 . S
O895 Tb840 2.393 1_545 S
O895 C914 1.248 . S
C896 O885 1.264 . S
C896 O886 1.243 . S
C897 C900 1.399 . S
C897 C902 1.383 . S
C897 C904 1.496 . S
C898 C899 1.399 . S
C898 C902 1.389 . S
C899 C898 1.399 . S
C899 C901 1.380 . S
C899 H916 0.929 . S
C900 C897 1.399 . S
C900 C901 1.392 . S
C900 H917 0.929 . S
C901 C899 1.380 . S
C901 C900 1.392 . S
C901 H918 0.929 . S
C902 C897 1.383 . S
C902 C898 1.389 . S
C902 H919 0.931 . S
C903 O888 1.266 . S
C903 O889 1.248 . S
C904 Tb840 2.802 . S
C904 O884 1.264 . S
C904 O887 1.256 . S
C904 C897 1.496 . S
C905 C872 1.448 . S
C905 H882 0.930 . S
C905 C906 1.328 . S
C906 C877 1.427 . S
C906 H883 0.929 . S
C906 C905 1.328 . S
C907 O891 1.264 . S
C907 O892 1.243 . S
C908 C911 1.399 . S
C908 C912 1.383 . S
C908 C915 1.496 . S
C909 C910 1.399 . S
C909 C912 1.389 . S
C910 C909 1.399 . S
C910 C913 1.380 . S
C910 H920 0.929 . S
C911 C908 1.399 . S
C911 C913 1.392 . S
C911 H921 0.929 . S
C912 C908 1.383 . S
C912 C909 1.389 . S
C912 H922 0.931 . S
C913 C910 1.380 . S
C913 C911 1.392 . S
C913 H923 0.929 . S
C914 O894 1.266 . S
C914 O895 1.248 . S
C915 Tb851 2.802 . S
C915 O890 1.264 . S
C915 O893 1.256 . S
C915 C908 1.496 . S
H916 C899 0.929 . S
H917 C900 0.929 . S
H918 C901 0.929 . S
H919 C902 0.931 . S
H920 C910 0.929 . S
H921 C911 0.929 . S
H922 C912 0.931 . S
H923 C913 0.929 . S
Tb924 N953 2.617 . S
Tb924 N959 2.572 . S
Tb924 O968 2.465 . S
Tb924 O969 2.387 . S
Tb924 O971 2.428 . S
Tb924 O972 2.308 . S
Tb924 O976 2.349 . S
Tb924 O979 2.393 . S
Tb924 C988 2.802 . S
C925 N926 1.379 . S
C925 C928 1.416 . S
C925 C932 1.424 . S
N926 C925 1.379 . S
N926 C929 1.334 . S
N926 Tb935 2.617 . S
C927 C929 1.390 . S
C927 C930 1.339 . S
C927 H947 0.930 . S
C928 C925 1.416 . S
C928 C930 1.416 . S
C928 C934 1.448 . S
C929 N926 1.334 . S
C929 C927 1.390 . S
C929 H940 0.930 . S
C930 C927 1.339 . S
C930 C928 1.416 . S
C930 H951 0.930 . S
C931 C932 1.413 . S
C931 C933 1.427 . S
C931 C937 1.416 . S
C932 C925 1.424 . S
C932 C931 1.413 . S
C932 N936 1.361 . S
C933 C931 1.427 . S
C933 C934 1.328 . S
C933 H948 0.929 . S
C934 C928 1.448 . S
C934 C933 1.328 . S
C934 H949 0.930 . S
Tb935 N926 2.617 . S
Tb935 N936 2.572 . S
Tb935 O970 2.349 . S
Tb935 O973 2.393 . S
Tb935 O974 2.465 . S
Tb935 O975 2.387 . S
Tb935 O977 2.428 . S
Tb935 O978 2.308 . S
Tb935 C999 2.802 . S
N936 C932 1.361 . S
N936 Tb935 2.572 . S
N936 C938 1.340 . S
C937 C931 1.416 . S
C937 C939 1.332 . S
C937 H945 0.931 . S
C938 N936 1.340 . S
C938 C939 1.407 . S
C938 H944 0.930 . S
C939 C937 1.332 . S
C939 C938 1.407 . S
C939 H941 0.929 . S
H940 C929 0.930 . S
H941 C939 0.929 . S
H942 C957 0.930 . S
H943 C964 0.929 . S
H944 C938 0.930 . S
H945 C937 0.931 . S
H946 C960 0.930 . S
H947 C927 0.930 . S
H948 C933 0.929 . S
H949 C934 0.930 . S
H950 C955 0.930 . S
H951 C930 0.930 . S
H952 C963 0.931 . S
N953 Tb924 2.617 . S
N953 C954 1.379 . S
N953 C957 1.334 . S
C954 N953 1.379 . S
C954 C956 1.416 . S
C954 C962 1.424 . S
C955 H950 0.930 . S
C955 C957 1.390 . S
C955 C958 1.339 . S
C956 C954 1.416 . S
C956 C958 1.416 . S
C956 C989 1.448 . S
C957 H942 0.930 . S
C957 N953 1.334 . S
C957 C955 1.390 . S
C958 C955 1.339 . S
C958 C956 1.416 . S
C958 H965 0.930 . S
N959 Tb924 2.572 . S
N959 C960 1.340 . S
N959 C962 1.361 . S
C960 H946 0.930 . S
C960 N959 1.340 . S
C960 C964 1.407 . S
C961 C962 1.413 . S
C961 C963 1.416 . S
C961 C990 1.427 . S
C962 C954 1.424 . S
C962 N959 1.361 . S
C962 C961 1.413 . S
C963 H952 0.931 . S
C963 C961 1.416 . S
C963 C964 1.332 . S
C964 H943 0.929 . S
C964 C960 1.407 . S
C964 C963 1.332 . S
H965 C958 0.930 . S
H966 C989 0.930 . S
H967 C990 0.929 . S
O968 Tb924 2.465 . S
O968 C988 1.264 . S
O969 Tb924 2.387 . S
O969 C980 1.264 . S
O970 Tb935 2.349 . S
O970 C980 1.243 . S
O971 Tb924 2.428 . S
O971 C988 1.256 . S
O972 Tb924 2.308 . S
O972 C987 1.266 . S
O973 Tb935 2.393 . S
O973 C987 1.248 . S
O974 Tb935 2.465 . S
O974 C999 1.264 . S
O975 Tb935 2.387 . S
O975 C991 1.264 . S
O976 Tb924 2.349 . S
O976 C991 1.243 . S
O977 Tb935 2.428 . S
O977 C999 1.256 . S
O978 Tb935 2.308 . S
O978 C998 1.266 . S
O979 Tb924 2.393 . S
O979 C998 1.248 . S
C980 O969 1.264 . S
C980 O970 1.243 . S
C981 C984 1.399 . S
C981 C986 1.383 . S
C981 C988 1.496 . S
C982 C983 1.399 . S
C982 C986 1.389 . S
C983 C982 1.399 . S
C983 C985 1.380 . S
C983 H1000 0.929 . S
C984 C981 1.399 . S
C984 C985 1.392 . S
C984 H1001 0.929 . S
C985 C983 1.380 . S
C985 C984 1.392 . S
C985 H1002 0.929 . S
C986 C981 1.383 . S
C986 C982 1.389 . S
C986 H1003 0.931 . S
C987 O972 1.266 . S
C987 O973 1.248 . S
C988 Tb924 2.802 . S
C988 O968 1.264 . S
C988 O971 1.256 . S
C988 C981 1.496 . S
C989 C956 1.448 . S
C989 H966 0.930 . S
C989 C990 1.328 . S
C990 C961 1.427 . S
C990 H967 0.929 . S
C990 C989 1.328 . S
C991 O975 1.264 . S
C991 O976 1.243 . S
C992 C995 1.399 . S
C992 C996 1.383 . S
C992 C999 1.496 . S
C993 C994 1.399 . S
C993 C996 1.389 . S
C994 C993 1.399 . S
C994 C997 1.380 . S
C994 H1004 0.929 . S
C995 C992 1.399 . S
C995 C997 1.392 . S
C995 H1005 0.929 . S
C996 C992 1.383 . S
C996 C993 1.389 . S
C996 H1006 0.931 . S
C997 C994 1.380 . S
C997 C995 1.392 . S
C997 H1007 0.929 . S
C998 O978 1.266 . S
C998 O979 1.248 . S
C999 Tb935 2.802 . S
C999 O974 1.264 . S
C999 O977 1.256 . S
C999 C992 1.496 . S
H1000 C983 0.929 . S
H1001 C984 0.929 . S
H1002 C985 0.929 . S
H1003 C986 0.931 . S
H1004 C994 0.929 . S
H1005 C995 0.929 . S
H1006 C996 0.931 . S
H1007 C997 0.929 . S
H1008 C1016 0.929 . S
H1009 C1018 0.930 . S
H1010 C1020 0.930 . S
H1011 C1023 0.929 . S
H1012 C1026 0.930 . S
H1013 C1028 0.960 . S
H1014 C1028 0.960 . S
H1015 C1028 0.960 . S
C1016 H1008 0.929 . S
C1016 C1017 1.377 . S
C1016 C1018 1.384 . S
C1017 C1016 1.377 . S
C1017 C1023 1.390 . S
C1018 H1009 0.930 . S
C1018 C1016 1.384 . S
C1018 C1019 1.372 . S
C1019 C1018 1.372 . S
C1019 C1020 1.400 . S
C1019 C1024 1.490 . S
C1020 H1010 0.930 . S
C1020 C1019 1.400 . S
C1020 C1023 1.386 . S
H1021 C1037 0.930 . S
H1022 C1038 0.931 . S
C1023 H1011 0.929 . S
C1023 C1017 1.390 . S
C1023 C1020 1.386 . S
C1024 C1019 1.490 . S
C1024 C1026 1.395 . S
C1024 C1027 1.403 . S
H1025 C1031 0.930 . S
C1026 H1012 0.930 . S
C1026 C1024 1.395 . S
C1026 C1029 1.403 . S
C1027 C1024 1.403 . S
C1027 C1028 1.524 . S
C1027 C1031 1.400 . S
C1028 H1013 0.960 . S
C1028 H1014 0.960 . S
C1028 H1015 0.960 . S
C1028 C1027 1.524 . S
C1029 C1026 1.403 . S
C1029 C1030 1.392 . S
C1029 C1033 1.495 . S
C1030 C1029 1.392 . S
C1030 C1031 1.385 . S
C1030 C1032 1.478 . S
C1031 H1025 0.930 . S
C1031 C1027 1.400 . S
C1031 C1030 1.385 . S
C1032 C1030 1.478 . S
C1032 C1034 1.381 . S
C1032 C1038 1.383 . S
C1033 C1029 1.495 . S
C1033 H1039 0.959 . S
C1033 H1040 0.961 . S
C1033 H1041 0.960 . S
C1034 C1032 1.381 . S
C1034 C1035 1.394 . S
C1034 H1042 0.930 . S
C1035 C1034 1.394 . S
C1035 C1036 1.383 . S
C1035 H1043 0.929 . S
C1036 C1035 1.383 . S
C1036 C1037 1.377 . S
C1037 H1021 0.930 . S
C1037 C1036 1.377 . S
C1037 C1038 1.379 . S
C1038 H1022 0.931 . S
C1038 C1032 1.383 . S
C1038 C1037 1.379 . S
H1039 C1033 0.959 . S
H1040 C1033 0.961 . S
H1041 C1033 0.960 . S
H1042 C1034 0.930 . S
H1043 C1035 0.929 . S
H1044 C1052 0.929 . S
H1045 C1054 0.930 . S
H1046 C1056 0.930 . S
H1047 C1059 0.929 . S
H1048 C1062 0.930 . S
H1049 C1064 0.960 . S
H1050 C1064 0.960 . S
H1051 C1064 0.960 . S
C1052 H1044 0.929 . S
C1052 C1053 1.377 . S
C1052 C1054 1.384 . S
C1053 C1052 1.377 . S
C1053 C1059 1.390 . S
C1054 H1045 0.930 . S
C1054 C1052 1.384 . S
C1054 C1055 1.372 . S
C1055 C1054 1.372 . S
C1055 C1056 1.400 . S
C1055 C1060 1.490 . S
C1056 H1046 0.930 . S
C1056 C1055 1.400 . S
C1056 C1059 1.386 . S
H1057 C1073 0.930 . S
H1058 C1074 0.931 . S
C1059 H1047 0.929 . S
C1059 C1053 1.390 . S
C1059 C1056 1.386 . S
C1060 C1055 1.490 . S
C1060 C1062 1.395 . S
C1060 C1063 1.403 . S
H1061 C1067 0.930 . S
C1062 H1048 0.930 . S
C1062 C1060 1.395 . S
C1062 C1065 1.403 . S
C1063 C1060 1.403 . S
C1063 C1064 1.524 . S
C1063 C1067 1.400 . S
C1064 H1049 0.960 . S
C1064 H1050 0.960 . S
C1064 H1051 0.960 . S
C1064 C1063 1.524 . S
C1065 C1062 1.403 . S
C1065 C1066 1.392 . S
C1065 C1069 1.495 . S
C1066 C1065 1.392 . S
C1066 C1067 1.385 . S
C1066 C1068 1.478 . S
C1067 H1061 0.930 . S
C1067 C1063 1.400 . S
C1067 C1066 1.385 . S
C1068 C1066 1.478 . S
C1068 C1070 1.381 . S
C1068 C1074 1.383 . S
C1069 C1065 1.495 . S
C1069 H1075 0.959 . S
C1069 H1076 0.961 . S
C1069 H1077 0.960 . S
C1070 C1068 1.381 . S
C1070 C1071 1.394 . S
C1070 H1078 0.930 . S
C1071 C1070 1.394 . S
C1071 C1072 1.383 . S
C1071 H1079 0.929 . S
C1072 C1071 1.383 . S
C1072 C1073 1.377 . S
C1073 H1057 0.930 . S
C1073 C1072 1.377 . S
C1073 C1074 1.379 . S
C1074 H1058 0.931 . S
C1074 C1068 1.383 . S
C1074 C1073 1.379 . S
H1075 C1069 0.959 . S
H1076 C1069 0.961 . S
H1077 C1069 0.960 . S
H1078 C1070 0.930 . S
H1079 C1071 0.929 . S
H1080 C1088 0.929 . S
H1081 C1090 0.930 . S
H1082 C1092 0.930 . S
H1083 C1095 0.929 . S
H1084 C1098 0.930 . S
H1085 C1100 0.960 . S
H1086 C1100 0.960 . S
H1087 C1100 0.960 . S
C1088 H1080 0.929 . S
C1088 C1089 1.377 . S
C1088 C1090 1.384 . S
C1089 C1088 1.377 . S
C1089 C1095 1.390 . S
C1090 H1081 0.930 . S
C1090 C1088 1.384 . S
C1090 C1091 1.372 . S
C1091 C1090 1.372 . S
C1091 C1092 1.400 . S
C1091 C1096 1.490 . S
C1092 H1082 0.930 . S
C1092 C1091 1.400 . S
C1092 C1095 1.386 . S
H1093 C1109 0.930 . S
H1094 C1110 0.931 . S
C1095 H1083 0.929 . S
C1095 C1089 1.390 . S
C1095 C1092 1.386 . S
C1096 C1091 1.490 . S
C1096 C1098 1.395 . S
C1096 C1099 1.403 . S
H1097 C1103 0.930 . S
C1098 H1084 0.930 . S
C1098 C1096 1.395 . S
C1098 C1101 1.403 . S
C1099 C1096 1.403 . S
C1099 C1100 1.524 . S
C1099 C1103 1.400 . S
C1100 H1085 0.960 . S
C1100 H1086 0.960 . S
C1100 H1087 0.960 . S
C1100 C1099 1.524 . S
C1101 C1098 1.403 . S
C1101 C1102 1.392 . S
C1101 C1105 1.495 . S
C1102 C1101 1.392 . S
C1102 C1103 1.385 . S
C1102 C1104 1.478 . S
C1103 H1097 0.930 . S
C1103 C1099 1.400 . S
C1103 C1102 1.385 . S
C1104 C1102 1.478 . S
C1104 C1106 1.381 . S
C1104 C1110 1.383 . S
C1105 C1101 1.495 . S
C1105 H1111 0.959 . S
C1105 H1112 0.961 . S
C1105 H1113 0.960 . S
C1106 C1104 1.381 . S
C1106 C1107 1.394 . S
C1106 H1114 0.930 . S
C1107 C1106 1.394 . S
C1107 C1108 1.383 . S
C1107 H1115 0.929 . S
C1108 C1107 1.383 . S
C1108 C1109 1.377 . S
C1109 H1093 0.930 . S
C1109 C1108 1.377 . S
C1109 C1110 1.379 . S
C1110 H1094 0.931 . S
C1110 C1104 1.383 . S
C1110 C1109 1.379 . S
H1111 C1105 0.959 . S
H1112 C1105 0.961 . S
H1113 C1105 0.960 . S
H1114 C1106 0.930 . S
H1115 C1107 0.929 . S
H1116 C1124 0.929 . S
H1117 C1126 0.930 . S
H1118 C1128 0.930 . S
H1119 C1131 0.929 . S
H1120 C1134 0.930 . S
H1121 C1136 0.960 . S
H1122 C1136 0.960 . S
H1123 C1136 0.960 . S
C1124 H1116 0.929 . S
C1124 C1125 1.377 . S
C1124 C1126 1.384 . S
C1125 C1124 1.377 . S
C1125 C1131 1.390 . S
C1126 H1117 0.930 . S
C1126 C1124 1.384 . S
C1126 C1127 1.372 . S
C1127 C1126 1.372 . S
C1127 C1128 1.400 . S
C1127 C1132 1.490 . S
C1128 H1118 0.930 . S
C1128 C1127 1.400 . S
C1128 C1131 1.386 . S
H1129 C1145 0.930 . S
H1130 C1146 0.931 . S
C1131 H1119 0.929 . S
C1131 C1125 1.390 . S
C1131 C1128 1.386 . S
C1132 C1127 1.490 . S
C1132 C1134 1.395 . S
C1132 C1135 1.403 . S
H1133 C1139 0.930 . S
C1134 H1120 0.930 . S
C1134 C1132 1.395 . S
C1134 C1137 1.403 . S
C1135 C1132 1.403 . S
C1135 C1136 1.524 . S
C1135 C1139 1.400 . S
C1136 H1121 0.960 . S
C1136 H1122 0.960 . S
C1136 H1123 0.960 . S
C1136 C1135 1.524 . S
C1137 C1134 1.403 . S
C1137 C1138 1.392 . S
C1137 C1141 1.495 . S
C1138 C1137 1.392 . S
C1138 C1139 1.385 . S
C1138 C1140 1.478 . S
C1139 H1133 0.930 . S
C1139 C1135 1.400 . S
C1139 C1138 1.385 . S
C1140 C1138 1.478 . S
C1140 C1142 1.381 . S
C1140 C1146 1.383 . S
C1141 C1137 1.495 . S
C1141 H1147 0.959 . S
C1141 H1148 0.961 . S
C1141 H1149 0.960 . S
C1142 C1140 1.381 . S
C1142 C1143 1.394 . S
C1142 H1150 0.930 . S
C1143 C1142 1.394 . S
C1143 C1144 1.383 . S
C1143 H1151 0.929 . S
C1144 C1143 1.383 . S
C1144 C1145 1.377 . S
C1145 H1129 0.930 . S
C1145 C1144 1.377 . S
C1145 C1146 1.379 . S
C1146 H1130 0.931 . S
C1146 C1140 1.383 . S
C1146 C1145 1.379 . S
H1147 C1141 0.959 . S
H1148 C1141 0.961 . S
H1149 C1141 0.960 . S
H1150 C1142 0.930 . S
H1151 C1143 0.929 . S
H1152 C1160 0.929 . S
H1153 C1162 0.930 . S
H1154 C1164 0.930 . S
H1155 C1167 0.929 . S
H1156 C1170 0.930 . S
H1157 C1172 0.960 . S
H1158 C1172 0.960 . S
H1159 C1172 0.960 . S
C1160 H1152 0.929 . S
C1160 C1161 1.377 . S
C1160 C1162 1.384 . S
C1161 C1160 1.377 . S
C1161 C1167 1.390 . S
C1162 H1153 0.930 . S
C1162 C1160 1.384 . S
C1162 C1163 1.372 . S
C1163 C1162 1.372 . S
C1163 C1164 1.400 . S
C1163 C1168 1.490 . S
C1164 H1154 0.930 . S
C1164 C1163 1.400 . S
C1164 C1167 1.386 . S
H1165 C1181 0.930 . S
H1166 C1182 0.931 . S
C1167 H1155 0.929 . S
C1167 C1161 1.390 . S
C1167 C1164 1.386 . S
C1168 C1163 1.490 . S
C1168 C1170 1.395 . S
C1168 C1171 1.403 . S
H1169 C1175 0.930 . S
C1170 H1156 0.930 . S
C1170 C1168 1.395 . S
C1170 C1173 1.403 . S
C1171 C1168 1.403 . S
C1171 C1172 1.524 . S
C1171 C1175 1.400 . S
C1172 H1157 0.960 . S
C1172 H1158 0.960 . S
C1172 H1159 0.960 . S
C1172 C1171 1.524 . S
C1173 C1170 1.403 . S
C1173 C1174 1.392 . S
C1173 C1177 1.495 . S
C1174 C1173 1.392 . S
C1174 C1175 1.385 . S
C1174 C1176 1.478 . S
C1175 H1169 0.930 . S
C1175 C1171 1.400 . S
C1175 C1174 1.385 . S
C1176 C1174 1.478 . S
C1176 C1178 1.381 . S
C1176 C1182 1.383 . S
C1177 C1173 1.495 . S
C1177 H1183 0.959 . S
C1177 H1184 0.961 . S
C1177 H1185 0.960 . S
C1178 C1176 1.381 . S
C1178 C1179 1.394 . S
C1178 H1186 0.930 . S
C1179 C1178 1.394 . S
C1179 C1180 1.383 . S
C1179 H1187 0.929 . S
C1180 C1179 1.383 . S
C1180 C1181 1.377 . S
C1181 H1165 0.930 . S
C1181 C1180 1.377 . S
C1181 C1182 1.379 . S
C1182 H1166 0.931 . S
C1182 C1176 1.383 . S
C1182 C1181 1.379 . S
H1183 C1177 0.959 . S
H1184 C1177 0.961 . S
H1185 C1177 0.960 . S
H1186 C1178 0.930 . S
H1187 C1179 0.929 . S
H1188 C1196 0.929 . S
H1189 C1198 0.930 . S
H1190 C1200 0.930 . S
H1191 C1203 0.929 . S
H1192 C1206 0.930 . S
H1193 C1208 0.960 . S
H1194 C1208 0.960 . S
H1195 C1208 0.960 . S
C1196 H1188 0.929 . S
C1196 C1197 1.377 . S
C1196 C1198 1.384 . S
C1197 C1196 1.377 . S
C1197 C1203 1.390 . S
C1198 H1189 0.930 . S
C1198 C1196 1.384 . S
C1198 C1199 1.372 . S
C1199 C1198 1.372 . S
C1199 C1200 1.400 . S
C1199 C1204 1.490 . S
C1200 H1190 0.930 . S
C1200 C1199 1.400 . S
C1200 C1203 1.386 . S
H1201 C1217 0.930 . S
H1202 C1218 0.931 . S
C1203 H1191 0.929 . S
C1203 C1197 1.390 . S
C1203 C1200 1.386 . S
C1204 C1199 1.490 . S
C1204 C1206 1.395 . S
C1204 C1207 1.403 . S
H1205 C1211 0.930 . S
C1206 H1192 0.930 . S
C1206 C1204 1.395 . S
C1206 C1209 1.403 . S
C1207 C1204 1.403 . S
C1207 C1208 1.524 . S
C1207 C1211 1.400 . S
C1208 H1193 0.960 . S
C1208 H1194 0.960 . S
C1208 H1195 0.960 . S
C1208 C1207 1.524 . S
C1209 C1206 1.403 . S
C1209 C1210 1.392 . S
C1209 C1213 1.495 . S
C1210 C1209 1.392 . S
C1210 C1211 1.385 . S
C1210 C1212 1.478 . S
C1211 H1205 0.930 . S
C1211 C1207 1.400 . S
C1211 C1210 1.385 . S
C1212 C1210 1.478 . S
C1212 C1214 1.381 . S
C1212 C1218 1.383 . S
C1213 C1209 1.495 . S
C1213 H1219 0.959 . S
C1213 H1220 0.961 . S
C1213 H1221 0.960 . S
C1214 C1212 1.381 . S
C1214 C1215 1.394 . S
C1214 H1222 0.930 . S
C1215 C1214 1.394 . S
C1215 C1216 1.383 . S
C1215 H1223 0.929 . S
C1216 C1215 1.383 . S
C1216 C1217 1.377 . S
C1217 H1201 0.930 . S
C1217 C1216 1.377 . S
C1217 C1218 1.379 . S
C1218 H1202 0.931 . S
C1218 C1212 1.383 . S
C1218 C1217 1.379 . S
H1219 C1213 0.959 . S
H1220 C1213 0.961 . S
H1221 C1213 0.960 . S
H1222 C1214 0.930 . S
H1223 C1215 0.929 . S
H1224 C1232 0.929 . S
H1225 C1234 0.930 . S
H1226 C1236 0.930 . S
H1227 C1239 0.929 . S
H1228 C1242 0.930 . S
H1229 C1244 0.960 . S
H1230 C1244 0.960 . S
H1231 C1244 0.960 . S
C1232 H1224 0.929 . S
C1232 C1233 1.377 . S
C1232 C1234 1.384 . S
C1233 C1232 1.377 . S
C1233 C1239 1.390 . S
C1234 H1225 0.930 . S
C1234 C1232 1.384 . S
C1234 C1235 1.372 . S
C1235 C1234 1.372 . S
C1235 C1236 1.400 . S
C1235 C1240 1.490 . S
C1236 H1226 0.930 . S
C1236 C1235 1.400 . S
C1236 C1239 1.386 . S
H1237 C1253 0.930 . S
H1238 C1254 0.931 . S
C1239 H1227 0.929 . S
C1239 C1233 1.390 . S
C1239 C1236 1.386 . S
C1240 C1235 1.490 . S
C1240 C1242 1.395 . S
C1240 C1243 1.403 . S
H1241 C1247 0.930 . S
C1242 H1228 0.930 . S
C1242 C1240 1.395 . S
C1242 C1245 1.403 . S
C1243 C1240 1.403 . S
C1243 C1244 1.524 . S
C1243 C1247 1.400 . S
C1244 H1229 0.960 . S
C1244 H1230 0.960 . S
C1244 H1231 0.960 . S
C1244 C1243 1.524 . S
C1245 C1242 1.403 . S
C1245 C1246 1.392 . S
C1245 C1249 1.495 . S
C1246 C1245 1.392 . S
C1246 C1247 1.385 . S
C1246 C1248 1.478 . S
C1247 H1241 0.930 . S
C1247 C1243 1.400 . S
C1247 C1246 1.385 . S
C1248 C1246 1.478 . S
C1248 C1250 1.381 . S
C1248 C1254 1.383 . S
C1249 C1245 1.495 . S
C1249 H1255 0.959 . S
C1249 H1256 0.961 . S
C1249 H1257 0.960 . S
C1250 C1248 1.381 . S
C1250 C1251 1.394 . S
C1250 H1258 0.930 . S
C1251 C1250 1.394 . S
C1251 C1252 1.383 . S
C1251 H1259 0.929 . S
C1252 C1251 1.383 . S
C1252 C1253 1.377 . S
C1253 H1237 0.930 . S
C1253 C1252 1.377 . S
C1253 C1254 1.379 . S
C1254 H1238 0.931 . S
C1254 C1248 1.383 . S
C1254 C1253 1.379 . S
H1255 C1249 0.959 . S
H1256 C1249 0.961 . S
H1257 C1249 0.960 . S
H1258 C1250 0.930 . S
H1259 C1251 0.929 . S
H1260 C1268 0.929 . S
H1261 C1270 0.930 . S
H1262 C1272 0.930 . S
H1263 C1275 0.929 . S
H1264 C1278 0.930 . S
H1265 C1280 0.960 . S
H1266 C1280 0.960 . S
H1267 C1280 0.960 . S
C1268 H1260 0.929 . S
C1268 C1269 1.377 . S
C1268 C1270 1.384 . S
C1269 C1268 1.377 . S
C1269 C1275 1.390 . S
C1270 H1261 0.930 . S
C1270 C1268 1.384 . S
C1270 C1271 1.372 . S
C1271 C1270 1.372 . S
C1271 C1272 1.400 . S
C1271 C1276 1.490 . S
C1272 H1262 0.930 . S
C1272 C1271 1.400 . S
C1272 C1275 1.386 . S
H1273 C1289 0.930 . S
H1274 C1290 0.931 . S
C1275 H1263 0.929 . S
C1275 C1269 1.390 . S
C1275 C1272 1.386 . S
C1276 C1271 1.490 . S
C1276 C1278 1.395 . S
C1276 C1279 1.403 . S
H1277 C1283 0.930 . S
C1278 H1264 0.930 . S
C1278 C1276 1.395 . S
C1278 C1281 1.403 . S
C1279 C1276 1.403 . S
C1279 C1280 1.524 . S
C1279 C1283 1.400 . S
C1280 H1265 0.960 . S
C1280 H1266 0.960 . S
C1280 H1267 0.960 . S
C1280 C1279 1.524 . S
C1281 C1278 1.403 . S
C1281 C1282 1.392 . S
C1281 C1285 1.495 . S
C1282 C1281 1.392 . S
C1282 C1283 1.385 . S
C1282 C1284 1.478 . S
C1283 H1277 0.930 . S
C1283 C1279 1.400 . S
C1283 C1282 1.385 . S
C1284 C1282 1.478 . S
C1284 C1286 1.381 . S
C1284 C1290 1.383 . S
C1285 C1281 1.495 . S
C1285 H1291 0.959 . S
C1285 H1292 0.961 . S
C1285 H1293 0.960 . S
C1286 C1284 1.381 . S
C1286 C1287 1.394 . S
C1286 H1294 0.930 . S
C1287 C1286 1.394 . S
C1287 C1288 1.383 . S
C1287 H1295 0.929 . S
C1288 C1287 1.383 . S
C1288 C1289 1.377 . S
C1289 H1273 0.930 . S
C1289 C1288 1.377 . S
C1289 C1290 1.379 . S
C1290 H1274 0.931 . S
C1290 C1284 1.383 . S
C1290 C1289 1.379 . S
H1291 C1285 0.959 . S
H1292 C1285 0.961 . S
H1293 C1285 0.960 . S
H1294 C1286 0.930 . S
H1295 C1287 0.929 . S
H1296 C1304 0.929 . S
H1297 C1306 0.930 . S
H1298 C1308 0.930 . S
H1299 C1311 0.929 . S
H1300 C1314 0.930 . S
H1301 C1316 0.960 . S
H1302 C1316 0.960 . S
H1303 C1316 0.960 . S
C1304 H1296 0.929 . S
C1304 C1305 1.377 . S
C1304 C1306 1.384 . S
C1305 C1304 1.377 . S
C1305 C1311 1.390 . S
C1306 H1297 0.930 . S
C1306 C1304 1.384 . S
C1306 C1307 1.372 . S
C1307 C1306 1.372 . S
C1307 C1308 1.400 . S
C1307 C1312 1.490 . S
C1308 H1298 0.930 . S
C1308 C1307 1.400 . S
C1308 C1311 1.386 . S
H1309 C1325 0.930 . S
H1310 C1326 0.931 . S
C1311 H1299 0.929 . S
C1311 C1305 1.390 . S
C1311 C1308 1.386 . S
C1312 C1307 1.490 . S
C1312 C1314 1.395 . S
C1312 C1315 1.403 . S
H1313 C1319 0.930 . S
C1314 H1300 0.930 . S
C1314 C1312 1.395 . S
C1314 C1317 1.403 . S
C1315 C1312 1.403 . S
C1315 C1316 1.524 . S
C1315 C1319 1.400 . S
C1316 H1301 0.960 . S
C1316 H1302 0.960 . S
C1316 H1303 0.960 . S
C1316 C1315 1.524 . S
C1317 C1314 1.403 . S
C1317 C1318 1.392 . S
C1317 C1321 1.495 . S
C1318 C1317 1.392 . S
C1318 C1319 1.385 . S
C1318 C1320 1.478 . S
C1319 H1313 0.930 . S
C1319 C1315 1.400 . S
C1319 C1318 1.385 . S
C1320 C1318 1.478 . S
C1320 C1322 1.381 . S
C1320 C1326 1.383 . S
C1321 C1317 1.495 . S
C1321 H1327 0.959 . S
C1321 H1328 0.961 . S
C1321 H1329 0.960 . S
C1322 C1320 1.381 . S
C1322 C1323 1.394 . S
C1322 H1330 0.930 . S
C1323 C1322 1.394 . S
C1323 C1324 1.383 . S
C1323 H1331 0.929 . S
C1324 C1323 1.383 . S
C1324 C1325 1.377 . S
C1325 H1309 0.930 . S
C1325 C1324 1.377 . S
C1325 C1326 1.379 . S
C1326 H1310 0.931 . S
C1326 C1320 1.383 . S
C1326 C1325 1.379 . S
H1327 C1321 0.959 . S
H1328 C1321 0.961 . S
H1329 C1321 0.960 . S
H1330 C1322 0.930 . S
H1331 C1323 0.929 . S
H1332 C1340 0.929 . S
H1333 C1342 0.930 . S
H1334 C1344 0.930 . S
H1335 C1347 0.929 . S
H1336 C1350 0.930 . S
H1337 C1352 0.960 . S
H1338 C1352 0.960 . S
H1339 C1352 0.960 . S
C1340 H1332 0.929 . S
C1340 C1341 1.377 . S
C1340 C1342 1.384 . S
C1341 C1340 1.377 . S
C1341 C1347 1.390 . S
C1342 H1333 0.930 . S
C1342 C1340 1.384 . S
C1342 C1343 1.372 . S
C1343 C1342 1.372 . S
C1343 C1344 1.400 . S
C1343 C1348 1.490 . S
C1344 H1334 0.930 . S
C1344 C1343 1.400 . S
C1344 C1347 1.386 . S
H1345 C1361 0.930 . S
H1346 C1362 0.931 . S
C1347 H1335 0.929 . S
C1347 C1341 1.390 . S
C1347 C1344 1.386 . S
C1348 C1343 1.490 . S
C1348 C1350 1.395 . S
C1348 C1351 1.403 . S
H1349 C1355 0.930 . S
C1350 H1336 0.930 . S
C1350 C1348 1.395 . S
C1350 C1353 1.403 . S
C1351 C1348 1.403 . S
C1351 C1352 1.524 . S
C1351 C1355 1.400 . S
C1352 H1337 0.960 . S
C1352 H1338 0.960 . S
C1352 H1339 0.960 . S
C1352 C1351 1.524 . S
C1353 C1350 1.403 . S
C1353 C1354 1.392 . S
C1353 C1357 1.495 . S
C1354 C1353 1.392 . S
C1354 C1355 1.385 . S
C1354 C1356 1.478 . S
C1355 H1349 0.930 . S
C1355 C1351 1.400 . S
C1355 C1354 1.385 . S
C1356 C1354 1.478 . S
C1356 C1358 1.381 . S
C1356 C1362 1.383 . S
C1357 C1353 1.495 . S
C1357 H1363 0.959 . S
C1357 H1364 0.961 . S
C1357 H1365 0.960 . S
C1358 C1356 1.381 . S
C1358 C1359 1.394 . S
C1358 H1366 0.930 . S
C1359 C1358 1.394 . S
C1359 C1360 1.383 . S
C1359 H1367 0.929 . S
C1360 C1359 1.383 . S
C1360 C1361 1.377 . S
C1361 H1345 0.930 . S
C1361 C1360 1.377 . S
C1361 C1362 1.379 . S
C1362 H1346 0.931 . S
C1362 C1356 1.383 . S
C1362 C1361 1.379 . S
H1363 C1357 0.959 . S
H1364 C1357 0.961 . S
H1365 C1357 0.960 . S
H1366 C1358 0.930 . S
H1367 C1359 0.929 . S
H1368 C1376 0.929 . S
H1369 C1378 0.930 . S
H1370 C1380 0.930 . S
H1371 C1383 0.929 . S
H1372 C1386 0.930 . S
H1373 C1388 0.960 . S
H1374 C1388 0.960 . S
H1375 C1388 0.960 . S
C1376 H1368 0.929 . S
C1376 C1377 1.377 . S
C1376 C1378 1.384 . S
C1377 C1376 1.377 . S
C1377 C1383 1.390 . S
C1378 H1369 0.930 . S
C1378 C1376 1.384 . S
C1378 C1379 1.372 . S
C1379 C1378 1.372 . S
C1379 C1380 1.400 . S
C1379 C1384 1.490 . S
C1380 H1370 0.930 . S
C1380 C1379 1.400 . S
C1380 C1383 1.386 . S
H1381 C1397 0.930 . S
H1382 C1398 0.931 . S
C1383 H1371 0.929 . S
C1383 C1377 1.390 . S
C1383 C1380 1.386 . S
C1384 C1379 1.490 . S
C1384 C1386 1.395 . S
C1384 C1387 1.403 . S
H1385 C1391 0.930 . S
C1386 H1372 0.930 . S
C1386 C1384 1.395 . S
C1386 C1389 1.403 . S
C1387 C1384 1.403 . S
C1387 C1388 1.524 . S
C1387 C1391 1.400 . S
C1388 H1373 0.960 . S
C1388 H1374 0.960 . S
C1388 H1375 0.960 . S
C1388 C1387 1.524 . S
C1389 C1386 1.403 . S
C1389 C1390 1.392 . S
C1389 C1393 1.495 . S
C1390 C1389 1.392 . S
C1390 C1391 1.385 . S
C1390 C1392 1.478 . S
C1391 H1385 0.930 . S
C1391 C1387 1.400 . S
C1391 C1390 1.385 . S
C1392 C1390 1.478 . S
C1392 C1394 1.381 . S
C1392 C1398 1.383 . S
C1393 C1389 1.495 . S
C1393 H1399 0.959 . S
C1393 H1400 0.961 . S
C1393 H1401 0.960 . S
C1394 C1392 1.381 . S
C1394 C1395 1.394 . S
C1394 H1402 0.930 . S
C1395 C1394 1.394 . S
C1395 C1396 1.383 . S
C1395 H1403 0.929 . S
C1396 C1395 1.383 . S
C1396 C1397 1.377 . S
C1397 H1381 0.930 . S
C1397 C1396 1.377 . S
C1397 C1398 1.379 . S
C1398 H1382 0.931 . S
C1398 C1392 1.383 . S
C1398 C1397 1.379 . S
H1399 C1393 0.959 . S
H1400 C1393 0.961 . S
H1401 C1393 0.960 . S
H1402 C1394 0.930 . S
H1403 C1395 0.929 . S
H1404 C1412 0.929 . S
H1405 C1414 0.930 . S
H1406 C1416 0.930 . S
H1407 C1419 0.929 . S
H1408 C1422 0.930 . S
H1409 C1424 0.960 . S
H1410 C1424 0.960 . S
H1411 C1424 0.960 . S
C1412 H1404 0.929 . S
C1412 C1413 1.377 . S
C1412 C1414 1.384 . S
C1413 C1412 1.377 . S
C1413 C1419 1.390 . S
C1414 H1405 0.930 . S
C1414 C1412 1.384 . S
C1414 C1415 1.372 . S
C1415 C1414 1.372 . S
C1415 C1416 1.400 . S
C1415 C1420 1.490 . S
C1416 H1406 0.930 . S
C1416 C1415 1.400 . S
C1416 C1419 1.386 . S
H1417 C1433 0.930 . S
H1418 C1434 0.931 . S
C1419 H1407 0.929 . S
C1419 C1413 1.390 . S
C1419 C1416 1.386 . S
C1420 C1415 1.490 . S
C1420 C1422 1.395 . S
C1420 C1423 1.403 . S
H1421 C1427 0.930 . S
C1422 H1408 0.930 . S
C1422 C1420 1.395 . S
C1422 C1425 1.403 . S
C1423 C1420 1.403 . S
C1423 C1424 1.524 . S
C1423 C1427 1.400 . S
C1424 H1409 0.960 . S
C1424 H1410 0.960 . S
C1424 H1411 0.960 . S
C1424 C1423 1.524 . S
C1425 C1422 1.403 . S
C1425 C1426 1.392 . S
C1425 C1429 1.495 . S
C1426 C1425 1.392 . S
C1426 C1427 1.385 . S
C1426 C1428 1.478 . S
C1427 H1421 0.930 . S
C1427 C1423 1.400 . S
C1427 C1426 1.385 . S
C1428 C1426 1.478 . S
C1428 C1430 1.381 . S
C1428 C1434 1.383 . S
C1429 C1425 1.495 . S
C1429 H1435 0.959 . S
C1429 H1436 0.961 . S
C1429 H1437 0.960 . S
C1430 C1428 1.381 . S
C1430 C1431 1.394 . S
C1430 H1438 0.930 . S
C1431 C1430 1.394 . S
C1431 C1432 1.383 . S
C1431 H1439 0.929 . S
C1432 C1431 1.383 . S
C1432 C1433 1.377 . S
C1433 H1417 0.930 . S
C1433 C1432 1.377 . S
C1433 C1434 1.379 . S
C1434 H1418 0.931 . S
C1434 C1428 1.383 . S
C1434 C1433 1.379 . S
H1435 C1429 0.959 . S
H1436 C1429 0.961 . S
H1437 C1429 0.960 . S
H1438 C1430 0.930 . S
H1439 C1431 0.929 . S
H1440 C1448 0.929 . S
H1441 C1450 0.930 . S
H1442 C1452 0.930 . S
H1443 C1455 0.929 . S
H1444 C1458 0.930 . S
H1445 C1460 0.960 . S
H1446 C1460 0.960 . S
H1447 C1460 0.960 . S
C1448 H1440 0.929 . S
C1448 C1449 1.377 . S
C1448 C1450 1.384 . S
C1449 C1448 1.377 . S
C1449 C1455 1.390 . S
C1450 H1441 0.930 . S
C1450 C1448 1.384 . S
C1450 C1451 1.372 . S
C1451 C1450 1.372 . S
C1451 C1452 1.400 . S
C1451 C1456 1.490 . S
C1452 H1442 0.930 . S
C1452 C1451 1.400 . S
C1452 C1455 1.386 . S
H1453 C1469 0.930 . S
H1454 C1470 0.931 . S
C1455 H1443 0.929 . S
C1455 C1449 1.390 . S
C1455 C1452 1.386 . S
C1456 C1451 1.490 . S
C1456 C1458 1.395 . S
C1456 C1459 1.403 . S
H1457 C1463 0.930 . S
C1458 H1444 0.930 . S
C1458 C1456 1.395 . S
C1458 C1461 1.403 . S
C1459 C1456 1.403 . S
C1459 C1460 1.524 . S
C1459 C1463 1.400 . S
C1460 H1445 0.960 . S
C1460 H1446 0.960 . S
C1460 H1447 0.960 . S
C1460 C1459 1.524 . S
C1461 C1458 1.403 . S
C1461 C1462 1.392 . S
C1461 C1465 1.495 . S
C1462 C1461 1.392 . S
C1462 C1463 1.385 . S
C1462 C1464 1.478 . S
C1463 H1457 0.930 . S
C1463 C1459 1.400 . S
C1463 C1462 1.385 . S
C1464 C1462 1.478 . S
C1464 C1466 1.381 . S
C1464 C1470 1.383 . S
C1465 C1461 1.495 . S
C1465 H1471 0.959 . S
C1465 H1472 0.961 . S
C1465 H1473 0.960 . S
C1466 C1464 1.381 . S
C1466 C1467 1.394 . S
C1466 H1474 0.930 . S
C1467 C1466 1.394 . S
C1467 C1468 1.383 . S
C1467 H1475 0.929 . S
C1468 C1467 1.383 . S
C1468 C1469 1.377 . S
C1469 H1453 0.930 . S
C1469 C1468 1.377 . S
C1469 C1470 1.379 . S
C1470 H1454 0.931 . S
C1470 C1464 1.383 . S
C1470 C1469 1.379 . S
H1471 C1465 0.959 . S
H1472 C1465 0.961 . S
H1473 C1465 0.960 . S
H1474 C1466 0.930 . S
H1475 C1467 0.929 . S
H1476 C1484 0.929 . S
H1477 C1486 0.930 . S
H1478 C1488 0.930 . S
H1479 C1491 0.929 . S
H1480 C1494 0.930 . S
H1481 C1496 0.960 . S
H1482 C1496 0.960 . S
H1483 C1496 0.960 . S
C1484 H1476 0.929 . S
C1484 C1485 1.377 . S
C1484 C1486 1.384 . S
C1485 C1484 1.377 . S
C1485 C1491 1.390 . S
C1486 H1477 0.930 . S
C1486 C1484 1.384 . S
C1486 C1487 1.372 . S
C1487 C1486 1.372 . S
C1487 C1488 1.400 . S
C1487 C1492 1.490 . S
C1488 H1478 0.930 . S
C1488 C1487 1.400 . S
C1488 C1491 1.386 . S
H1489 C1505 0.930 . S
H1490 C1506 0.931 . S
C1491 H1479 0.929 . S
C1491 C1485 1.390 . S
C1491 C1488 1.386 . S
C1492 C1487 1.490 . S
C1492 C1494 1.395 . S
C1492 C1495 1.403 . S
H1493 C1499 0.930 . S
C1494 H1480 0.930 . S
C1494 C1492 1.395 . S
C1494 C1497 1.403 . S
C1495 C1492 1.403 . S
C1495 C1496 1.524 . S
C1495 C1499 1.400 . S
C1496 H1481 0.960 . S
C1496 H1482 0.960 . S
C1496 H1483 0.960 . S
C1496 C1495 1.524 . S
C1497 C1494 1.403 . S
C1497 C1498 1.392 . S
C1497 C1501 1.495 . S
C1498 C1497 1.392 . S
C1498 C1499 1.385 . S
C1498 C1500 1.478 . S
C1499 H1493 0.930 . S
C1499 C1495 1.400 . S
C1499 C1498 1.385 . S
C1500 C1498 1.478 . S
C1500 C1502 1.381 . S
C1500 C1506 1.383 . S
C1501 C1497 1.495 . S
C1501 H1507 0.959 . S
C1501 H1508 0.961 . S
C1501 H1509 0.960 . S
C1502 C1500 1.381 . S
C1502 C1503 1.394 . S
C1502 H1510 0.930 . S
C1503 C1502 1.394 . S
C1503 C1504 1.383 . S
C1503 H1511 0.929 . S
C1504 C1503 1.383 . S
C1504 C1505 1.377 . S
C1505 H1489 0.930 . S
C1505 C1504 1.377 . S
C1505 C1506 1.379 . S
C1506 H1490 0.931 . S
C1506 C1500 1.383 . S
C1506 C1505 1.379 . S
H1507 C1501 0.959 . S
H1508 C1501 0.961 . S
H1509 C1501 0.960 . S
H1510 C1502 0.930 . S
H1511 C1503 0.929 . S
H1512 C1520 0.929 . S
H1513 C1522 0.930 . S
H1514 C1524 0.930 . S
H1515 C1527 0.929 . S
H1516 C1530 0.930 . S
H1517 C1532 0.960 . S
H1518 C1532 0.960 . S
H1519 C1532 0.960 . S
C1520 H1512 0.929 . S
C1520 C1521 1.377 . S
C1520 C1522 1.384 . S
C1521 C1520 1.377 . S
C1521 C1527 1.390 . S
C1522 H1513 0.930 . S
C1522 C1520 1.384 . S
C1522 C1523 1.372 . S
C1523 C1522 1.372 . S
C1523 C1524 1.400 . S
C1523 C1528 1.490 . S
C1524 H1514 0.930 . S
C1524 C1523 1.400 . S
C1524 C1527 1.386 . S
H1525 C1541 0.930 . S
H1526 C1542 0.931 . S
C1527 H1515 0.929 . S
C1527 C1521 1.390 . S
C1527 C1524 1.386 . S
C1528 C1523 1.490 . S
C1528 C1530 1.395 . S
C1528 C1531 1.403 . S
H1529 C1535 0.930 . S
C1530 H1516 0.930 . S
C1530 C1528 1.395 . S
C1530 C1533 1.403 . S
C1531 C1528 1.403 . S
C1531 C1532 1.524 . S
C1531 C1535 1.400 . S
C1532 H1517 0.960 . S
C1532 H1518 0.960 . S
C1532 H1519 0.960 . S
C1532 C1531 1.524 . S
C1533 C1530 1.403 . S
C1533 C1534 1.392 . S
C1533 C1537 1.495 . S
C1534 C1533 1.392 . S
C1534 C1535 1.385 . S
C1534 C1536 1.478 . S
C1535 H1529 0.930 . S
C1535 C1531 1.400 . S
C1535 C1534 1.385 . S
C1536 C1534 1.478 . S
C1536 C1538 1.381 . S
C1536 C1542 1.383 . S
C1537 C1533 1.495 . S
C1537 H1543 0.959 . S
C1537 H1544 0.961 . S
C1537 H1545 0.960 . S
C1538 C1536 1.381 . S
C1538 C1539 1.394 . S
C1538 H1546 0.930 . S
C1539 C1538 1.394 . S
C1539 C1540 1.383 . S
C1539 H1547 0.929 . S
C1540 C1539 1.383 . S
C1540 C1541 1.377 . S
C1541 H1525 0.930 . S
C1541 C1540 1.377 . S
C1541 C1542 1.379 . S
C1542 H1526 0.931 . S
C1542 C1536 1.383 . S
C1542 C1541 1.379 . S
H1543 C1537 0.959 . S
H1544 C1537 0.961 . S
H1545 C1537 0.960 . S
H1546 C1538 0.930 . S
H1547 C1539 0.929 . S
H1548 C1556 0.929 . S
H1549 C1558 0.930 . S
H1550 C1560 0.930 . S
H1551 C1563 0.929 . S
H1552 C1566 0.930 . S
H1553 C1568 0.960 . S
H1554 C1568 0.960 . S
H1555 C1568 0.960 . S
C1556 H1548 0.929 . S
C1556 C1557 1.377 . S
C1556 C1558 1.384 . S
C1557 C1556 1.377 . S
C1557 C1563 1.390 . S
C1558 H1549 0.930 . S
C1558 C1556 1.384 . S
C1558 C1559 1.372 . S
C1559 C1558 1.372 . S
C1559 C1560 1.400 . S
C1559 C1564 1.490 . S
C1560 H1550 0.930 . S
C1560 C1559 1.400 . S
C1560 C1563 1.386 . S
H1561 C1577 0.930 . S
H1562 C1578 0.931 . S
C1563 H1551 0.929 . S
C1563 C1557 1.390 . S
C1563 C1560 1.386 . S
C1564 C1559 1.490 . S
C1564 C1566 1.395 . S
C1564 C1567 1.403 . S
H1565 C1571 0.930 . S
C1566 H1552 0.930 . S
C1566 C1564 1.395 . S
C1566 C1569 1.403 . S
C1567 C1564 1.403 . S
C1567 C1568 1.524 . S
C1567 C1571 1.400 . S
C1568 H1553 0.960 . S
C1568 H1554 0.960 . S
C1568 H1555 0.960 . S
C1568 C1567 1.524 . S
C1569 C1566 1.403 . S
C1569 C1570 1.392 . S
C1569 C1573 1.495 . S
C1570 C1569 1.392 . S
C1570 C1571 1.385 . S
C1570 C1572 1.478 . S
C1571 H1565 0.930 . S
C1571 C1567 1.400 . S
C1571 C1570 1.385 . S
C1572 C1570 1.478 . S
C1572 C1574 1.381 . S
C1572 C1578 1.383 . S
C1573 C1569 1.495 . S
C1573 H1579 0.959 . S
C1573 H1580 0.961 . S
C1573 H1581 0.960 . S
C1574 C1572 1.381 . S
C1574 C1575 1.394 . S
C1574 H1582 0.930 . S
C1575 C1574 1.394 . S
C1575 C1576 1.383 . S
C1575 H1583 0.929 . S
C1576 C1575 1.383 . S
C1576 C1577 1.377 . S
C1577 H1561 0.930 . S
C1577 C1576 1.377 . S
C1577 C1578 1.379 . S
C1578 H1562 0.931 . S
C1578 C1572 1.383 . S
C1578 C1577 1.379 . S
H1579 C1573 0.959 . S
H1580 C1573 0.961 . S
H1581 C1573 0.960 . S
H1582 C1574 0.930 . S
H1583 C1575 0.929 . S
H1584 C1592 0.929 . S
H1585 C1594 0.930 . S
H1586 C1596 0.922 1_554 S
H1587 C1599 0.929 1_554 S
H1588 C1602 0.930 . S
H1589 C1604 0.960 . S
H1590 C1604 0.960 . S
H1591 C1604 0.960 . S
C1592 H1584 0.929 . S
C1592 C1593 1.377 . S
C1592 C1594 1.384 . S
C1593 C1592 1.377 . S
C1593 C1599 1.390 . S
C1594 H1585 0.930 . S
C1594 C1592 1.384 . S
C1594 C1595 1.372 . S
C1595 C1594 1.372 . S
C1595 C1596 1.405 . S
C1595 C1600 1.490 . S
C1596 H1586 0.922 1_556 S
C1596 C1595 1.405 . S
C1596 C1599 1.388 . S
H1597 C1613 0.930 . S
H1598 C1614 0.931 . S
C1599 H1587 0.929 1_556 S
C1599 C1593 1.390 . S
C1599 C1596 1.388 . S
C1600 C1595 1.490 . S
C1600 C1602 1.395 . S
C1600 C1603 1.403 1_556 S
H1601 C1607 0.930 . S
C1602 H1588 0.930 . S
C1602 C1600 1.395 . S
C1602 C1605 1.403 . S
C1603 C1600 1.403 1_554 S
C1603 C1604 1.524 . S
C1603 C1607 1.400 . S
C1604 H1589 0.960 . S
C1604 H1590 0.960 . S
C1604 H1591 0.960 . S
C1604 C1603 1.524 . S
C1605 C1602 1.403 . S
C1605 C1606 1.381 1_556 S
C1605 C1609 1.495 . S
C1606 C1605 1.381 1_554 S
C1606 C1607 1.393 . S
C1606 C1608 1.481 . S
C1607 H1601 0.930 . S
C1607 C1603 1.400 . S
C1607 C1606 1.393 . S
C1608 C1606 1.481 . S
C1608 C1610 1.381 1_554 S
C1608 C1614 1.383 . S
C1609 C1605 1.495 . S
C1609 H1615 0.959 . S
C1609 H1616 0.961 . S
C1609 H1617 0.960 . S
C1610 C1608 1.381 1_556 S
C1610 C1611 1.394 1_556 S
C1610 H1618 0.930 . S
C1611 C1610 1.394 1_554 S
C1611 C1612 1.383 . S
C1611 H1619 0.929 1_554 S
C1612 C1611 1.383 . S
C1612 C1613 1.377 . S
C1613 H1597 0.930 . S
C1613 C1612 1.377 . S
C1613 C1614 1.379 . S
C1614 H1598 0.931 . S
C1614 C1608 1.383 . S
C1614 C1613 1.379 . S
H1615 C1609 0.959 . S
H1616 C1609 0.961 . S
H1617 C1609 0.960 . S
H1618 C1610 0.930 . S
H1619 C1611 0.929 1_556 S
H1620 C1628 0.929 . S
H1621 C1630 0.930 . S
H1622 C1632 0.930 . S
H1623 C1635 0.929 . S
H1624 C1638 0.930 . S
H1625 C1640 0.960 . S
H1626 C1640 0.960 . S
H1627 C1640 0.960 . S
C1628 H1620 0.929 . S
C1628 C1629 1.377 . S
C1628 C1630 1.384 . S
C1629 C1628 1.377 . S
C1629 C1635 1.390 . S
C1630 H1621 0.930 . S
C1630 C1628 1.384 . S
C1630 C1631 1.372 . S
C1631 C1630 1.372 . S
C1631 C1632 1.400 . S
C1631 C1636 1.490 . S
C1632 H1622 0.930 . S
C1632 C1631 1.400 . S
C1632 C1635 1.386 . S
H1633 C1649 0.930 . S
H1634 C1650 0.931 . S
C1635 H1623 0.929 . S
C1635 C1629 1.390 . S
C1635 C1632 1.386 . S
C1636 C1631 1.490 . S
C1636 C1638 1.395 . S
C1636 C1639 1.403 . S
H1637 C1643 0.930 . S
C1638 H1624 0.930 . S
C1638 C1636 1.395 . S
C1638 C1641 1.403 . S
C1639 C1636 1.403 . S
C1639 C1640 1.524 . S
C1639 C1643 1.400 . S
C1640 H1625 0.960 . S
C1640 H1626 0.960 . S
C1640 H1627 0.960 . S
C1640 C1639 1.524 . S
C1641 C1638 1.403 . S
C1641 C1642 1.392 . S
C1641 C1645 1.495 . S
C1642 C1641 1.392 . S
C1642 C1643 1.385 . S
C1642 C1644 1.478 . S
C1643 H1637 0.930 . S
C1643 C1639 1.400 . S
C1643 C1642 1.385 . S
C1644 C1642 1.478 . S
C1644 C1646 1.381 . S
C1644 C1650 1.383 . S
C1645 C1641 1.495 . S
C1645 H1651 0.959 . S
C1645 H1652 0.961 . S
C1645 H1653 0.960 . S
C1646 C1644 1.381 . S
C1646 C1647 1.394 . S
C1646 H1654 0.930 . S
C1647 C1646 1.394 . S
C1647 C1648 1.383 . S
C1647 H1655 0.929 . S
C1648 C1647 1.383 . S
C1648 C1649 1.377 . S
C1649 H1633 0.930 . S
C1649 C1648 1.377 . S
C1649 C1650 1.379 . S
C1650 H1634 0.931 . S
C1650 C1644 1.383 . S
C1650 C1649 1.379 . S
H1651 C1645 0.959 . S
H1652 C1645 0.961 . S
H1653 C1645 0.960 . S
H1654 C1646 0.930 . S
H1655 C1647 0.929 . S
H1656 C1664 0.929 . S
H1657 C1666 0.930 . S
H1658 C1668 0.930 . S
H1659 C1671 0.929 . S
H1660 C1674 0.930 . S
H1661 C1676 0.960 . S
H1662 C1676 0.960 . S
H1663 C1676 0.960 . S
C1664 H1656 0.929 . S
C1664 C1665 1.377 . S
C1664 C1666 1.384 . S
C1665 C1664 1.377 . S
C1665 C1671 1.390 . S
C1666 H1657 0.930 . S
C1666 C1664 1.384 . S
C1666 C1667 1.372 . S
C1667 C1666 1.372 . S
C1667 C1668 1.400 . S
C1667 C1672 1.490 . S
C1668 H1658 0.930 . S
C1668 C1667 1.400 . S
C1668 C1671 1.386 . S
H1669 C1685 0.930 . S
H1670 C1686 0.931 . S
C1671 H1659 0.929 . S
C1671 C1665 1.390 . S
C1671 C1668 1.386 . S
C1672 C1667 1.490 . S
C1672 C1674 1.395 . S
C1672 C1675 1.403 . S
H1673 C1679 0.930 . S
C1674 H1660 0.930 . S
C1674 C1672 1.395 . S
C1674 C1677 1.403 . S
C1675 C1672 1.403 . S
C1675 C1676 1.524 . S
C1675 C1679 1.400 . S
C1676 H1661 0.960 . S
C1676 H1662 0.960 . S
C1676 H1663 0.960 . S
C1676 C1675 1.524 . S
C1677 C1674 1.403 . S
C1677 C1678 1.392 . S
C1677 C1681 1.495 . S
C1678 C1677 1.392 . S
C1678 C1679 1.385 . S
C1678 C1680 1.478 . S
C1679 H1673 0.930 . S
C1679 C1675 1.400 . S
C1679 C1678 1.385 . S
C1680 C1678 1.478 . S
C1680 C1682 1.381 . S
C1680 C1686 1.383 . S
C1681 C1677 1.495 . S
C1681 H1687 0.959 . S
C1681 H1688 0.961 . S
C1681 H1689 0.960 . S
C1682 C1680 1.381 . S
C1682 C1683 1.394 . S
C1682 H1690 0.930 . S
C1683 C1682 1.394 . S
C1683 C1684 1.383 . S
C1683 H1691 0.929 . S
C1684 C1683 1.383 . S
C1684 C1685 1.377 . S
C1685 H1669 0.930 . S
C1685 C1684 1.377 . S
C1685 C1686 1.379 . S
C1686 H1670 0.931 . S
C1686 C1680 1.383 . S
C1686 C1685 1.379 . S
H1687 C1681 0.959 . S
H1688 C1681 0.961 . S
H1689 C1681 0.960 . S
H1690 C1682 0.930 . S
H1691 C1683 0.929 . S
H1692 C1700 0.929 . S
H1693 C1702 0.930 . S
H1694 C1704 0.930 . S
H1695 C1707 0.929 . S
H1696 C1710 0.930 . S
H1697 C1712 0.960 . S
H1698 C1712 0.960 . S
H1699 C1712 0.960 . S
C1700 H1692 0.929 . S
C1700 C1701 1.377 . S
C1700 C1702 1.384 . S
C1701 C1700 1.377 . S
C1701 C1707 1.390 . S
C1702 H1693 0.930 . S
C1702 C1700 1.384 . S
C1702 C1703 1.372 . S
C1703 C1702 1.372 . S
C1703 C1704 1.400 . S
C1703 C1708 1.490 . S
C1704 H1694 0.930 . S
C1704 C1703 1.400 . S
C1704 C1707 1.386 . S
H1705 C1721 0.930 . S
H1706 C1722 0.931 . S
C1707 H1695 0.929 . S
C1707 C1701 1.390 . S
C1707 C1704 1.386 . S
C1708 C1703 1.490 . S
C1708 C1710 1.395 . S
C1708 C1711 1.403 . S
H1709 C1715 0.930 . S
C1710 H1696 0.930 . S
C1710 C1708 1.395 . S
C1710 C1713 1.403 . S
C1711 C1708 1.403 . S
C1711 C1712 1.524 . S
C1711 C1715 1.400 . S
C1712 H1697 0.960 . S
C1712 H1698 0.960 . S
C1712 H1699 0.960 . S
C1712 C1711 1.524 . S
C1713 C1710 1.403 . S
C1713 C1714 1.392 . S
C1713 C1717 1.495 . S
C1714 C1713 1.392 . S
C1714 C1715 1.385 . S
C1714 C1716 1.478 . S
C1715 H1709 0.930 . S
C1715 C1711 1.400 . S
C1715 C1714 1.385 . S
C1716 C1714 1.478 . S
C1716 C1718 1.381 . S
C1716 C1722 1.383 . S
C1717 C1713 1.495 . S
C1717 H1723 0.959 . S
C1717 H1724 0.961 . S
C1717 H1725 0.960 . S
C1718 C1716 1.381 . S
C1718 C1719 1.394 . S
C1718 H1726 0.930 . S
C1719 C1718 1.394 . S
C1719 C1720 1.383 . S
C1719 H1727 0.929 . S
C1720 C1719 1.383 . S
C1720 C1721 1.377 . S
C1721 H1705 0.930 . S
C1721 C1720 1.377 . S
C1721 C1722 1.379 . S
C1722 H1706 0.931 . S
C1722 C1716 1.383 . S
C1722 C1721 1.379 . S
H1723 C1717 0.959 . S
H1724 C1717 0.961 . S
H1725 C1717 0.960 . S
H1726 C1718 0.930 . S
H1727 C1719 0.929 . S
H1728 C1736 0.929 . S
H1729 C1738 0.930 . S
H1730 C1740 0.930 . S
H1731 C1743 0.929 . S
H1732 C1746 0.930 . S
H1733 C1748 0.960 . S
H1734 C1748 0.960 . S
H1735 C1748 0.960 . S
C1736 H1728 0.929 . S
C1736 C1737 1.377 . S
C1736 C1738 1.384 . S
C1737 C1736 1.377 . S
C1737 C1743 1.390 . S
C1738 H1729 0.930 . S
C1738 C1736 1.384 . S
C1738 C1739 1.372 . S
C1739 C1738 1.372 . S
C1739 C1740 1.400 . S
C1739 C1744 1.490 . S
C1740 H1730 0.930 . S
C1740 C1739 1.400 . S
C1740 C1743 1.386 . S
H1741 C1757 0.930 . S
H1742 C1758 0.931 . S
C1743 H1731 0.929 . S
C1743 C1737 1.390 . S
C1743 C1740 1.386 . S
C1744 C1739 1.490 . S
C1744 C1746 1.395 . S
C1744 C1747 1.403 . S
H1745 C1751 0.930 . S
C1746 H1732 0.930 . S
C1746 C1744 1.395 . S
C1746 C1749 1.403 . S
C1747 C1744 1.403 . S
C1747 C1748 1.524 . S
C1747 C1751 1.400 . S
C1748 H1733 0.960 . S
C1748 H1734 0.960 . S
C1748 H1735 0.960 . S
C1748 C1747 1.524 . S
C1749 C1746 1.403 . S
C1749 C1750 1.392 . S
C1749 C1753 1.495 . S
C1750 C1749 1.392 . S
C1750 C1751 1.385 . S
C1750 C1752 1.478 . S
C1751 H1745 0.930 . S
C1751 C1747 1.400 . S
C1751 C1750 1.385 . S
C1752 C1750 1.478 . S
C1752 C1754 1.381 . S
C1752 C1758 1.383 . S
C1753 C1749 1.495 . S
C1753 H1759 0.959 . S
C1753 H1760 0.961 . S
C1753 H1761 0.960 . S
C1754 C1752 1.381 . S
C1754 C1755 1.394 . S
C1754 H1762 0.930 . S
C1755 C1754 1.394 . S
C1755 C1756 1.383 . S
C1755 H1763 0.929 . S
C1756 C1755 1.383 . S
C1756 C1757 1.377 . S
C1757 H1741 0.930 . S
C1757 C1756 1.377 . S
C1757 C1758 1.379 . S
C1758 H1742 0.931 . S
C1758 C1752 1.383 . S
C1758 C1757 1.379 . S
H1759 C1753 0.959 . S
H1760 C1753 0.961 . S
H1761 C1753 0.960 . S
H1762 C1754 0.930 . S
H1763 C1755 0.929 . S
H1764 C1772 0.929 . S
H1765 C1774 0.930 . S
H1766 C1776 0.930 . S
H1767 C1779 0.929 . S
H1768 C1782 0.930 . S
H1769 C1784 0.960 . S
H1770 C1784 0.960 . S
H1771 C1784 0.960 . S
C1772 H1764 0.929 . S
C1772 C1773 1.377 . S
C1772 C1774 1.384 . S
C1773 C1772 1.377 . S
C1773 C1779 1.390 . S
C1774 H1765 0.930 . S
C1774 C1772 1.384 . S
C1774 C1775 1.372 . S
C1775 C1774 1.372 . S
C1775 C1776 1.400 . S
C1775 C1780 1.490 . S
C1776 H1766 0.930 . S
C1776 C1775 1.400 . S
C1776 C1779 1.386 . S
H1777 C1793 0.930 . S
H1778 C1794 0.950 . S
C1779 H1767 0.929 . S
C1779 C1773 1.390 . S
C1779 C1776 1.386 . S
C1780 C1775 1.490 . S
C1780 C1782 1.395 1_554 S
C1780 C1783 1.403 . S
H1781 C1787 0.930 . S
C1782 H1768 0.930 . S
C1782 C1780 1.395 1_556 S
C1782 C1785 1.403 . S
C1783 C1780 1.403 . S
C1783 C1784 1.524 . S
C1783 C1787 1.400 . S
C1784 H1769 0.960 . S
C1784 H1770 0.960 . S
C1784 H1771 0.960 . S
C1784 C1783 1.524 . S
C1785 C1782 1.403 . S
C1785 C1786 1.392 . S
C1785 C1789 1.495 . S
C1786 C1785 1.392 . S
C1786 C1787 1.385 1_556 S
C1786 C1788 1.478 . S
C1787 H1781 0.930 . S
C1787 C1783 1.400 . S
C1787 C1786 1.385 1_554 S
C1788 C1786 1.478 . S
C1788 C1790 1.381 . S
C1788 C1794 1.383 . S
C1789 C1785 1.495 . S
C1789 H1795 0.959 . S
C1789 H1796 0.961 . S
C1789 H1797 0.960 . S
C1790 C1788 1.381 . S
C1790 C1791 1.394 . S
C1790 H1798 0.930 . S
C1791 C1790 1.394 . S
C1791 C1792 1.383 . S
C1791 H1799 0.929 . S
C1792 C1791 1.383 . S
C1792 C1793 1.377 . S
C1793 H1777 0.930 . S
C1793 C1792 1.377 . S
C1793 C1794 1.379 . S
C1794 H1778 0.950 . S
C1794 C1788 1.383 . S
C1794 C1793 1.379 . S
H1795 C1789 0.959 . S
H1796 C1789 0.961 . S
H1797 C1789 0.960 . S
H1798 C1790 0.930 . S
H1799 C1791 0.929 . S
H1800 C1808 0.929 . S
H1801 C1810 0.930 . S
H1802 C1812 0.930 . S
H1803 C1815 0.929 . S
H1804 C1818 0.930 . S
H1805 C1820 0.960 . S
H1806 C1820 0.960 . S
H1807 C1820 0.960 . S
C1808 H1800 0.929 . S
C1808 C1809 1.377 . S
C1808 C1810 1.384 . S
C1809 C1808 1.377 . S
C1809 C1815 1.390 . S
C1810 H1801 0.930 . S
C1810 C1808 1.384 . S
C1810 C1811 1.372 . S
C1811 C1810 1.372 . S
C1811 C1812 1.400 . S
C1811 C1816 1.490 . S
C1812 H1802 0.930 . S
C1812 C1811 1.400 . S
C1812 C1815 1.386 . S
H1813 C1829 0.930 . S
H1814 C1830 0.931 . S
C1815 H1803 0.929 . S
C1815 C1809 1.390 . S
C1815 C1812 1.386 . S
C1816 C1811 1.490 . S
C1816 C1818 1.395 . S
C1816 C1819 1.403 . S
H1817 C1823 0.930 . S
C1818 H1804 0.930 . S
C1818 C1816 1.395 . S
C1818 C1821 1.403 . S
C1819 C1816 1.403 . S
C1819 C1820 1.524 . S
C1819 C1823 1.400 . S
C1820 H1805 0.960 . S
C1820 H1806 0.960 . S
C1820 H1807 0.960 . S
C1820 C1819 1.524 . S
C1821 C1818 1.403 . S
C1821 C1822 1.392 . S
C1821 C1825 1.495 . S
C1822 C1821 1.392 . S
C1822 C1823 1.385 . S
C1822 C1824 1.478 . S
C1823 H1817 0.930 . S
C1823 C1819 1.400 . S
C1823 C1822 1.385 . S
C1824 C1822 1.478 . S
C1824 C1826 1.381 . S
C1824 C1830 1.383 . S
C1825 C1821 1.495 . S
C1825 H1831 0.959 . S
C1825 H1832 0.961 . S
C1825 H1833 0.960 . S
C1826 C1824 1.381 . S
C1826 C1827 1.394 . S
C1826 H1834 0.930 . S
C1827 C1826 1.394 . S
C1827 C1828 1.383 . S
C1827 H1835 0.929 . S
C1828 C1827 1.383 . S
C1828 C1829 1.377 . S
C1829 H1813 0.930 . S
C1829 C1828 1.377 . S
C1829 C1830 1.379 . S
C1830 H1814 0.931 . S
C1830 C1824 1.383 . S
C1830 C1829 1.379 . S
H1831 C1825 0.959 . S
H1832 C1825 0.961 . S
H1833 C1825 0.960 . S
H1834 C1826 0.930 . S
H1835 C1827 0.929 . S
H1836 C1844 0.929 . S
H1837 C1846 0.930 . S
H1838 C1848 0.930 . S
H1839 C1851 0.929 . S
H1840 C1854 0.930 . S
H1841 C1856 0.960 . S
H1842 C1856 0.960 . S
H1843 C1856 0.960 . S
C1844 H1836 0.929 . S
C1844 C1845 1.377 . S
C1844 C1846 1.384 . S
C1845 C1844 1.377 . S
C1845 C1851 1.390 . S
C1846 H1837 0.930 . S
C1846 C1844 1.384 . S
C1846 C1847 1.372 . S
C1847 C1846 1.372 . S
C1847 C1848 1.400 . S
C1847 C1852 1.490 . S
C1848 H1838 0.930 . S
C1848 C1847 1.400 . S
C1848 C1851 1.386 . S
H1849 C1865 0.930 . S
H1850 C1866 0.931 . S
C1851 H1839 0.929 . S
C1851 C1845 1.390 . S
C1851 C1848 1.386 . S
C1852 C1847 1.490 . S
C1852 C1854 1.395 . S
C1852 C1855 1.403 . S
H1853 C1859 0.930 . S
C1854 H1840 0.930 . S
C1854 C1852 1.395 . S
C1854 C1857 1.403 . S
C1855 C1852 1.403 . S
C1855 C1856 1.524 . S
C1855 C1859 1.400 . S
C1856 H1841 0.960 . S
C1856 H1842 0.960 . S
C1856 H1843 0.960 . S
C1856 C1855 1.524 . S
C1857 C1854 1.403 . S
C1857 C1858 1.392 . S
C1857 C1861 1.495 . S
C1858 C1857 1.392 . S
C1858 C1859 1.385 . S
C1858 C1860 1.478 . S
C1859 H1853 0.930 . S
C1859 C1855 1.400 . S
C1859 C1858 1.385 . S
C1860 C1858 1.478 . S
C1860 C1862 1.381 . S
C1860 C1866 1.383 . S
C1861 C1857 1.495 . S
C1861 H1867 0.959 . S
C1861 H1868 0.961 . S
C1861 H1869 0.960 . S
C1862 C1860 1.381 . S
C1862 C1863 1.394 . S
C1862 H1870 0.930 . S
C1863 C1862 1.394 . S
C1863 C1864 1.383 . S
C1863 H1871 0.929 . S
C1864 C1863 1.383 . S
C1864 C1865 1.377 . S
C1865 H1849 0.930 . S
C1865 C1864 1.377 . S
C1865 C1866 1.379 . S
C1866 H1850 0.931 . S
C1866 C1860 1.383 . S
C1866 C1865 1.379 . S
H1867 C1861 0.959 . S
H1868 C1861 0.961 . S
H1869 C1861 0.960 . S
H1870 C1862 0.930 . S
H1871 C1863 0.929 . S
H1872 C1880 0.929 . S
H1873 C1882 0.930 . S
H1874 C1884 0.930 . S
H1875 C1887 0.929 . S
H1876 C1890 0.930 . S
H1877 C1892 0.960 . S
H1878 C1892 0.960 . S
H1879 C1892 0.960 . S
C1880 H1872 0.929 . S
C1880 C1881 1.377 . S
C1880 C1882 1.384 . S
C1881 C1880 1.377 . S
C1881 C1887 1.390 . S
C1882 H1873 0.930 . S
C1882 C1880 1.384 . S
C1882 C1883 1.372 . S
C1883 C1882 1.372 . S
C1883 C1884 1.400 . S
C1883 C1888 1.490 . S
C1884 H1874 0.930 . S
C1884 C1883 1.400 . S
C1884 C1887 1.386 . S
H1885 C1901 0.930 . S
H1886 C1902 0.931 . S
C1887 H1875 0.929 . S
C1887 C1881 1.390 . S
C1887 C1884 1.386 . S
C1888 C1883 1.490 . S
C1888 C1890 1.395 . S
C1888 C1891 1.403 . S
H1889 C1895 0.930 . S
C1890 H1876 0.930 . S
C1890 C1888 1.395 . S
C1890 C1893 1.403 . S
C1891 C1888 1.403 . S
C1891 C1892 1.524 . S
C1891 C1895 1.400 . S
C1892 H1877 0.960 . S
C1892 H1878 0.960 . S
C1892 H1879 0.960 . S
C1892 C1891 1.524 . S
C1893 C1890 1.403 . S
C1893 C1894 1.392 . S
C1893 C1897 1.495 . S
C1894 C1893 1.392 . S
C1894 C1895 1.385 . S
C1894 C1896 1.478 . S
C1895 H1889 0.930 . S
C1895 C1891 1.400 . S
C1895 C1894 1.385 . S
C1896 C1894 1.478 . S
C1896 C1898 1.381 . S
C1896 C1902 1.383 . S
C1897 C1893 1.495 . S
C1897 H1903 0.959 . S
C1897 H1904 0.961 . S
C1897 H1905 0.960 . S
C1898 C1896 1.381 . S
C1898 C1899 1.394 . S
C1898 H1906 0.930 . S
C1899 C1898 1.394 . S
C1899 C1900 1.383 . S
C1899 H1907 0.929 . S
C1900 C1899 1.383 . S
C1900 C1901 1.377 . S
C1901 H1885 0.930 . S
C1901 C1900 1.377 . S
C1901 C1902 1.379 . S
C1902 H1886 0.931 . S
C1902 C1896 1.383 . S
C1902 C1901 1.379 . S
H1903 C1897 0.959 . S
H1904 C1897 0.961 . S
H1905 C1897 0.960 . S
H1906 C1898 0.930 . S
H1907 C1899 0.929 . S
H1908 C1916 0.929 . S
H1909 C1918 0.930 . S
H1910 C1920 0.930 . S
H1911 C1923 0.929 . S
H1912 C1926 0.930 . S
H1913 C1928 0.960 . S
H1914 C1928 0.960 . S
H1915 C1928 0.960 . S
C1916 H1908 0.929 . S
C1916 C1917 1.377 . S
C1916 C1918 1.384 . S
C1917 C1916 1.377 . S
C1917 C1923 1.390 . S
C1918 H1909 0.930 . S
C1918 C1916 1.384 . S
C1918 C1919 1.372 . S
C1919 C1918 1.372 . S
C1919 C1920 1.400 . S
C1919 C1924 1.490 . S
C1920 H1910 0.930 . S
C1920 C1919 1.400 . S
C1920 C1923 1.386 . S
H1921 C1937 0.930 . S
H1922 C1938 0.931 . S
C1923 H1911 0.929 . S
C1923 C1917 1.390 . S
C1923 C1920 1.386 . S
C1924 C1919 1.490 . S
C1924 C1926 1.395 . S
C1924 C1927 1.403 . S
H1925 C1931 0.930 . S
C1926 H1912 0.930 . S
C1926 C1924 1.395 . S
C1926 C1929 1.403 . S
C1927 C1924 1.403 . S
C1927 C1928 1.524 . S
C1927 C1931 1.400 . S
C1928 H1913 0.960 . S
C1928 H1914 0.960 . S
C1928 H1915 0.960 . S
C1928 C1927 1.524 . S
C1929 C1926 1.403 . S
C1929 C1930 1.392 . S
C1929 C1933 1.495 . S
C1930 C1929 1.392 . S
C1930 C1931 1.385 . S
C1930 C1932 1.478 . S
C1931 H1925 0.930 . S
C1931 C1927 1.400 . S
C1931 C1930 1.385 . S
C1932 C1930 1.478 . S
C1932 C1934 1.381 . S
C1932 C1938 1.383 . S
C1933 C1929 1.495 . S
C1933 H1939 0.959 . S
C1933 H1940 0.961 . S
C1933 H1941 0.960 . S
C1934 C1932 1.381 . S
C1934 C1935 1.394 . S
C1934 H1942 0.930 . S
C1935 C1934 1.394 . S
C1935 C1936 1.383 . S
C1935 H1943 0.929 . S
C1936 C1935 1.383 . S
C1936 C1937 1.377 . S
C1937 H1921 0.930 . S
C1937 C1936 1.377 . S
C1937 C1938 1.379 . S
C1938 H1922 0.931 . S
C1938 C1932 1.383 . S
C1938 C1937 1.379 . S
H1939 C1933 0.959 . S
H1940 C1933 0.961 . S
H1941 C1933 0.960 . S
H1942 C1934 0.930 . S
H1943 C1935 0.929 . S
H1944 C1952 0.929 . S
H1945 C1954 0.930 . S
H1946 C1956 0.930 . S
H1947 C1959 0.929 . S
H1948 C1962 0.930 . S
H1949 C1964 0.960 . S
H1950 C1964 0.960 . S
H1951 C1964 0.960 . S
C1952 H1944 0.929 . S
C1952 C1953 1.377 . S
C1952 C1954 1.384 . S
C1953 C1952 1.377 . S
C1953 C1959 1.390 . S
C1954 H1945 0.930 . S
C1954 C1952 1.384 . S
C1954 C1955 1.372 . S
C1955 C1954 1.372 . S
C1955 C1956 1.400 . S
C1955 C1960 1.490 . S
C1956 H1946 0.930 . S
C1956 C1955 1.400 . S
C1956 C1959 1.386 . S
H1957 C1973 0.930 . S
H1958 C1974 0.931 . S
C1959 H1947 0.929 . S
C1959 C1953 1.390 . S
C1959 C1956 1.386 . S
C1960 C1955 1.490 . S
C1960 C1962 1.395 . S
C1960 C1963 1.403 . S
H1961 C1967 0.930 . S
C1962 H1948 0.930 . S
C1962 C1960 1.395 . S
C1962 C1965 1.403 . S
C1963 C1960 1.403 . S
C1963 C1964 1.524 . S
C1963 C1967 1.400 . S
C1964 H1949 0.960 . S
C1964 H1950 0.960 . S
C1964 H1951 0.960 . S
C1964 C1963 1.524 . S
C1965 C1962 1.403 . S
C1965 C1966 1.392 . S
C1965 C1969 1.495 . S
C1966 C1965 1.392 . S
C1966 C1967 1.385 . S
C1966 C1968 1.478 . S
C1967 H1961 0.930 . S
C1967 C1963 1.400 . S
C1967 C1966 1.385 . S
C1968 C1966 1.478 . S
C1968 C1970 1.381 . S
C1968 C1974 1.383 . S
C1969 C1965 1.495 . S
C1969 H1975 0.959 . S
C1969 H1976 0.961 . S
C1969 H1977 0.960 . S
C1970 C1968 1.381 . S
C1970 C1971 1.394 . S
C1970 H1978 0.930 . S
C1971 C1970 1.394 . S
C1971 C1972 1.383 . S
C1971 H1979 0.929 . S
C1972 C1971 1.383 . S
C1972 C1973 1.377 . S
C1973 H1957 0.930 . S
C1973 C1972 1.377 . S
C1973 C1974 1.379 . S
C1974 H1958 0.931 . S
C1974 C1968 1.383 . S
C1974 C1973 1.379 . S
H1975 C1969 0.959 . S
H1976 C1969 0.961 . S
H1977 C1969 0.960 . S
H1978 C1970 0.930 . S
H1979 C1971 0.929 . S
H1980 C1988 0.929 . S
H1981 C1990 0.930 . S
H1982 C1992 0.930 . S
H1983 C1995 0.929 . S
H1984 C1998 0.930 . S
H1985 C2000 0.960 . S
H1986 C2000 0.960 . S
H1987 C2000 0.960 . S
C1988 H1980 0.929 . S
C1988 C1989 1.377 . S
C1988 C1990 1.384 . S
C1989 C1988 1.377 . S
C1989 C1995 1.390 . S
C1990 H1981 0.930 . S
C1990 C1988 1.384 . S
C1990 C1991 1.372 . S
C1991 C1990 1.372 . S
C1991 C1992 1.400 . S
C1991 C1996 1.490 . S
C1992 H1982 0.930 . S
C1992 C1991 1.400 . S
C1992 C1995 1.386 . S
H1993 C2009 0.930 . S
H1994 C2010 0.931 . S
C1995 H1983 0.929 . S
C1995 C1989 1.390 . S
C1995 C1992 1.386 . S
C1996 C1991 1.490 . S
C1996 C1998 1.395 . S
C1996 C1999 1.403 . S
H1997 C2003 0.930 . S
C1998 H1984 0.930 . S
C1998 C1996 1.395 . S
C1998 C2001 1.403 . S
C1999 C1996 1.403 . S
C1999 C2000 1.524 . S
C1999 C2003 1.400 . S
C2000 H1985 0.960 . S
C2000 H1986 0.960 . S
C2000 H1987 0.960 . S
C2000 C1999 1.524 . S
C2001 C1998 1.403 . S
C2001 C2002 1.392 . S
C2001 C2005 1.495 . S
C2002 C2001 1.392 . S
C2002 C2003 1.385 . S
C2002 C2004 1.478 . S
C2003 H1997 0.930 . S
C2003 C1999 1.400 . S
C2003 C2002 1.385 . S
C2004 C2002 1.478 . S
C2004 C2006 1.381 . S
C2004 C2010 1.383 . S
C2005 C2001 1.495 . S
C2005 H2011 0.959 . S
C2005 H2012 0.961 . S
C2005 H2013 0.960 . S
C2006 C2004 1.381 . S
C2006 C2007 1.394 . S
C2006 H2014 0.930 . S
C2007 C2006 1.394 . S
C2007 C2008 1.383 . S
C2007 H2015 0.929 . S
C2008 C2007 1.383 . S
C2008 C2009 1.377 . S
C2009 H1993 0.930 . S
C2009 C2008 1.377 . S
C2009 C2010 1.379 . S
C2010 H1994 0.931 . S
C2010 C2004 1.383 . S
C2010 C2009 1.379 . S
H2011 C2005 0.959 . S
H2012 C2005 0.961 . S
H2013 C2005 0.960 . S
H2014 C2006 0.930 . S
H2015 C2007 0.929 . S
H2016 C2024 0.929 . S
H2017 C2026 0.930 . S
H2018 C2028 0.930 . S
H2019 C2031 0.929 . S
H2020 C2034 0.930 . S
H2021 C2036 0.960 . S
H2022 C2036 0.960 . S
H2023 C2036 0.960 . S
C2024 H2016 0.929 . S
C2024 C2025 1.377 . S
C2024 C2026 1.384 . S
C2025 C2024 1.377 . S
C2025 C2031 1.390 . S
C2026 H2017 0.930 . S
C2026 C2024 1.384 . S
C2026 C2027 1.372 . S
C2027 C2026 1.372 . S
C2027 C2028 1.400 . S
C2027 C2032 1.490 . S
C2028 H2018 0.930 . S
C2028 C2027 1.400 . S
C2028 C2031 1.386 . S
H2029 C2045 0.930 . S
H2030 C2046 0.931 . S
C2031 H2019 0.929 . S
C2031 C2025 1.390 . S
C2031 C2028 1.386 . S
C2032 C2027 1.490 . S
C2032 C2034 1.395 . S
C2032 C2035 1.403 . S
H2033 C2039 0.930 . S
C2034 H2020 0.930 . S
C2034 C2032 1.395 . S
C2034 C2037 1.403 . S
C2035 C2032 1.403 . S
C2035 C2036 1.524 . S
C2035 C2039 1.400 . S
C2036 H2021 0.960 . S
C2036 H2022 0.960 . S
C2036 H2023 0.960 . S
C2036 C2035 1.524 . S
C2037 C2034 1.403 . S
C2037 C2038 1.392 . S
C2037 C2041 1.495 . S
C2038 C2037 1.392 . S
C2038 C2039 1.385 . S
C2038 C2040 1.478 . S
C2039 H2033 0.930 . S
C2039 C2035 1.400 . S
C2039 C2038 1.385 . S
C2040 C2038 1.478 . S
C2040 C2042 1.381 . S
C2040 C2046 1.383 . S
C2041 C2037 1.495 . S
C2041 H2047 0.959 . S
C2041 H2048 0.961 . S
C2041 H2049 0.960 . S
C2042 C2040 1.381 . S
C2042 C2043 1.394 . S
C2042 H2050 0.930 . S
C2043 C2042 1.394 . S
C2043 C2044 1.383 . S
C2043 H2051 0.929 . S
C2044 C2043 1.383 . S
C2044 C2045 1.377 . S
C2045 H2029 0.930 . S
C2045 C2044 1.377 . S
C2045 C2046 1.379 . S
C2046 H2030 0.931 . S
C2046 C2040 1.383 . S
C2046 C2045 1.379 . S
H2047 C2041 0.959 . S
H2048 C2041 0.961 . S
H2049 C2041 0.960 . S
H2050 C2042 0.930 . S
H2051 C2043 0.929 . S
H2052 C2060 0.929 . S
H2053 C2062 0.930 . S
H2054 C2064 0.930 . S
H2055 C2067 0.929 . S
H2056 C2070 0.930 . S
H2057 C2072 0.960 . S
H2058 C2072 0.960 . S
H2059 C2072 0.960 . S
C2060 H2052 0.929 . S
C2060 C2061 1.377 . S
C2060 C2062 1.384 . S
C2061 C2060 1.377 . S
C2061 C2067 1.390 . S
C2062 H2053 0.930 . S
C2062 C2060 1.384 . S
C2062 C2063 1.372 . S
C2063 C2062 1.372 . S
C2063 C2064 1.400 . S
C2063 C2068 1.490 . S
C2064 H2054 0.930 . S
C2064 C2063 1.400 . S
C2064 C2067 1.386 . S
H2065 C2081 0.930 . S
H2066 C2082 0.931 . S
C2067 H2055 0.929 . S
C2067 C2061 1.390 . S
C2067 C2064 1.386 . S
C2068 C2063 1.490 . S
C2068 C2070 1.395 . S
C2068 C2071 1.403 . S
H2069 C2075 0.930 . S
C2070 H2056 0.930 . S
C2070 C2068 1.395 . S
C2070 C2073 1.403 . S
C2071 C2068 1.403 . S
C2071 C2072 1.524 . S
C2071 C2075 1.400 . S
C2072 H2057 0.960 . S
C2072 H2058 0.960 . S
C2072 H2059 0.960 . S
C2072 C2071 1.524 . S
C2073 C2070 1.403 . S
C2073 C2074 1.392 . S
C2073 C2077 1.495 . S
C2074 C2073 1.392 . S
C2074 C2075 1.385 . S
C2074 C2076 1.478 . S
C2075 H2069 0.930 . S
C2075 C2071 1.400 . S
C2075 C2074 1.385 . S
C2076 C2074 1.478 . S
C2076 C2078 1.381 . S
C2076 C2082 1.383 . S
C2077 C2073 1.495 . S
C2077 H2083 0.959 . S
C2077 H2084 0.961 . S
C2077 H2085 0.960 . S
C2078 C2076 1.381 . S
C2078 C2079 1.394 . S
C2078 H2086 0.930 . S
C2079 C2078 1.394 . S
C2079 C2080 1.383 . S
C2079 H2087 0.929 . S
C2080 C2079 1.383 . S
C2080 C2081 1.377 . S
C2081 H2065 0.930 . S
C2081 C2080 1.377 . S
C2081 C2082 1.379 . S
C2082 H2066 0.931 . S
C2082 C2076 1.383 . S
C2082 C2081 1.379 . S
H2083 C2077 0.959 . S
H2084 C2077 0.961 . S
H2085 C2077 0.960 . S
H2086 C2078 0.930 . S
H2087 C2079 0.929 . S
H2088 C2096 0.929 . S
H2089 C2098 0.930 . S
H2090 C2100 0.930 . S
H2091 C2103 0.929 . S
H2092 C2106 0.930 . S
H2093 C2108 0.960 . S
H2094 C2108 0.960 . S
H2095 C2108 0.960 . S
C2096 H2088 0.929 . S
C2096 C2097 1.377 . S
C2096 C2098 1.384 . S
C2097 C2096 1.377 . S
C2097 C2103 1.390 . S
C2098 H2089 0.930 . S
C2098 C2096 1.384 . S
C2098 C2099 1.372 . S
C2099 C2098 1.372 . S
C2099 C2100 1.400 . S
C2099 C2104 1.490 . S
C2100 H2090 0.930 . S
C2100 C2099 1.400 . S
C2100 C2103 1.386 . S
H2101 C2117 0.930 . S
H2102 C2118 0.931 . S
C2103 H2091 0.929 . S
C2103 C2097 1.390 . S
C2103 C2100 1.386 . S
C2104 C2099 1.490 . S
C2104 C2106 1.395 . S
C2104 C2107 1.403 . S
H2105 C2111 0.930 . S
C2106 H2092 0.930 . S
C2106 C2104 1.395 . S
C2106 C2109 1.403 . S
C2107 C2104 1.403 . S
C2107 C2108 1.524 . S
C2107 C2111 1.400 . S
C2108 H2093 0.960 . S
C2108 H2094 0.960 . S
C2108 H2095 0.960 . S
C2108 C2107 1.524 . S
C2109 C2106 1.403 . S
C2109 C2110 1.392 . S
C2109 C2113 1.495 . S
C2110 C2109 1.392 . S
C2110 C2111 1.385 . S
C2110 C2112 1.478 . S
C2111 H2105 0.930 . S
C2111 C2107 1.400 . S
C2111 C2110 1.385 . S
C2112 C2110 1.478 . S
C2112 C2114 1.381 . S
C2112 C2118 1.383 . S
C2113 C2109 1.495 . S
C2113 H2119 0.959 . S
C2113 H2120 0.961 . S
C2113 H2121 0.960 . S
C2114 C2112 1.381 . S
C2114 C2115 1.394 . S
C2114 H2122 0.930 . S
C2115 C2114 1.394 . S
C2115 C2116 1.383 . S
C2115 H2123 0.929 . S
C2116 C2115 1.383 . S
C2116 C2117 1.377 . S
C2117 H2101 0.930 . S
C2117 C2116 1.377 . S
C2117 C2118 1.379 . S
C2118 H2102 0.931 . S
C2118 C2112 1.383 . S
C2118 C2117 1.379 . S
H2119 C2113 0.959 . S
H2120 C2113 0.961 . S
H2121 C2113 0.960 . S
H2122 C2114 0.930 . S
H2123 C2115 0.929 . S
H2124 C2132 0.929 . S
H2125 C2134 0.930 . S
H2126 C2136 0.930 . S
H2127 C2139 0.929 . S
H2128 C2142 0.930 . S
H2129 C2144 0.960 . S
H2130 C2144 0.960 . S
H2131 C2144 0.960 . S
C2132 H2124 0.929 . S
C2132 C2133 1.377 . S
C2132 C2134 1.384 . S
C2133 C2132 1.377 . S
C2133 C2139 1.390 . S
C2134 H2125 0.930 . S
C2134 C2132 1.384 . S
C2134 C2135 1.372 . S
C2135 C2134 1.372 . S
C2135 C2136 1.400 . S
C2135 C2140 1.490 . S
C2136 H2126 0.930 . S
C2136 C2135 1.400 . S
C2136 C2139 1.386 . S
H2137 C2153 0.930 . S
H2138 C2154 0.931 . S
C2139 H2127 0.929 . S
C2139 C2133 1.390 . S
C2139 C2136 1.386 . S
C2140 C2135 1.490 . S
C2140 C2142 1.395 . S
C2140 C2143 1.403 . S
H2141 C2147 0.930 . S
C2142 H2128 0.930 . S
C2142 C2140 1.395 . S
C2142 C2145 1.403 . S
C2143 C2140 1.403 . S
C2143 C2144 1.524 . S
C2143 C2147 1.400 . S
C2144 H2129 0.960 . S
C2144 H2130 0.960 . S
C2144 H2131 0.960 . S
C2144 C2143 1.524 . S
C2145 C2142 1.403 . S
C2145 C2146 1.392 . S
C2145 C2149 1.495 . S
C2146 C2145 1.392 . S
C2146 C2147 1.385 . S
C2146 C2148 1.478 . S
C2147 H2141 0.930 . S
C2147 C2143 1.400 . S
C2147 C2146 1.385 . S
C2148 C2146 1.478 . S
C2148 C2150 1.381 . S
C2148 C2154 1.383 . S
C2149 C2145 1.495 . S
C2149 H2155 0.959 . S
C2149 H2156 0.961 . S
C2149 H2157 0.960 . S
C2150 C2148 1.381 . S
C2150 C2151 1.394 . S
C2150 H2158 0.930 . S
C2151 C2150 1.394 . S
C2151 C2152 1.383 . S
C2151 H2159 0.929 . S
C2152 C2151 1.383 . S
C2152 C2153 1.377 . S
C2153 H2137 0.930 . S
C2153 C2152 1.377 . S
C2153 C2154 1.379 . S
C2154 H2138 0.931 . S
C2154 C2148 1.383 . S
C2154 C2153 1.379 . S
H2155 C2149 0.959 . S
H2156 C2149 0.961 . S
H2157 C2149 0.960 . S
H2158 C2150 0.930 . S
H2159 C2151 0.929 . S
H2160 C2168 0.929 . S
H2161 C2170 0.930 . S
H2162 C2172 0.930 . S
H2163 C2175 0.929 . S
H2164 C2178 0.930 . S
H2165 C2180 0.960 . S
H2166 C2180 0.960 . S
H2167 C2180 0.960 . S
C2168 H2160 0.929 . S
C2168 C2169 1.377 . S
C2168 C2170 1.384 . S
C2169 C2168 1.377 . S
C2169 C2175 1.390 . S
C2170 H2161 0.930 . S
C2170 C2168 1.384 . S
C2170 C2171 1.372 . S
C2171 C2170 1.372 . S
C2171 C2172 1.400 . S
C2171 C2176 1.490 . S
C2172 H2162 0.930 . S
C2172 C2171 1.400 . S
C2172 C2175 1.386 . S
H2173 C2189 0.930 . S
H2174 C2190 0.931 . S
C2175 H2163 0.929 . S
C2175 C2169 1.390 . S
C2175 C2172 1.386 . S
C2176 C2171 1.490 . S
C2176 C2178 1.395 . S
C2176 C2179 1.403 . S
H2177 C2183 0.930 . S
C2178 H2164 0.930 . S
C2178 C2176 1.395 . S
C2178 C2181 1.403 . S
C2179 C2176 1.403 . S
C2179 C2180 1.524 . S
C2179 C2183 1.400 . S
C2180 H2165 0.960 . S
C2180 H2166 0.960 . S
C2180 H2167 0.960 . S
C2180 C2179 1.524 . S
C2181 C2178 1.403 . S
C2181 C2182 1.392 . S
C2181 C2185 1.495 . S
C2182 C2181 1.392 . S
C2182 C2183 1.385 . S
C2182 C2184 1.478 . S
C2183 H2177 0.930 . S
C2183 C2179 1.400 . S
C2183 C2182 1.385 . S
C2184 C2182 1.478 . S
C2184 C2186 1.381 . S
C2184 C2190 1.383 . S
C2185 C2181 1.495 . S
C2185 H2191 0.959 . S
C2185 H2192 0.961 . S
C2185 H2193 0.960 . S
C2186 C2184 1.381 . S
C2186 C2187 1.394 . S
C2186 H2194 0.930 . S
C2187 C2186 1.394 . S
C2187 C2188 1.383 . S
C2187 H2195 0.929 . S
C2188 C2187 1.383 . S
C2188 C2189 1.377 . S
C2189 H2173 0.930 . S
C2189 C2188 1.377 . S
C2189 C2190 1.379 . S
C2190 H2174 0.931 . S
C2190 C2184 1.383 . S
C2190 C2189 1.379 . S
H2191 C2185 0.959 . S
H2192 C2185 0.961 . S
H2193 C2185 0.960 . S
H2194 C2186 0.930 . S
H2195 C2187 0.929 . S
H2196 C2204 0.929 . S
H2197 C2206 0.930 . S
H2198 C2208 0.930 . S
H2199 C2211 0.929 . S
H2200 C2214 0.930 . S
H2201 C2216 0.960 . S
H2202 C2216 0.960 . S
H2203 C2216 0.960 . S
C2204 H2196 0.929 . S
C2204 C2205 1.377 . S
C2204 C2206 1.384 . S
C2205 C2204 1.377 . S
C2205 C2211 1.390 . S
C2206 H2197 0.930 . S
C2206 C2204 1.384 . S
C2206 C2207 1.372 . S
C2207 C2206 1.372 . S
C2207 C2208 1.400 . S
C2207 C2212 1.490 . S
C2208 H2198 0.930 . S
C2208 C2207 1.400 . S
C2208 C2211 1.386 . S
H2209 C2225 0.930 . S
H2210 C2226 0.931 . S
C2211 H2199 0.929 . S
C2211 C2205 1.390 . S
C2211 C2208 1.386 . S
C2212 C2207 1.490 . S
C2212 C2214 1.395 . S
C2212 C2215 1.403 . S
H2213 C2219 0.930 . S
C2214 H2200 0.930 . S
C2214 C2212 1.395 . S
C2214 C2217 1.403 . S
C2215 C2212 1.403 . S
C2215 C2216 1.524 . S
C2215 C2219 1.400 . S
C2216 H2201 0.960 . S
C2216 H2202 0.960 . S
C2216 H2203 0.960 . S
C2216 C2215 1.524 . S
C2217 C2214 1.403 . S
C2217 C2218 1.392 . S
C2217 C2221 1.495 . S
C2218 C2217 1.392 . S
C2218 C2219 1.385 . S
C2218 C2220 1.478 . S
C2219 H2213 0.930 . S
C2219 C2215 1.400 . S
C2219 C2218 1.385 . S
C2220 C2218 1.478 . S
C2220 C2222 1.381 . S
C2220 C2226 1.383 . S
C2221 C2217 1.495 . S
C2221 H2227 0.959 . S
C2221 H2228 0.961 . S
C2221 H2229 0.960 . S
C2222 C2220 1.381 . S
C2222 C2223 1.394 . S
C2222 H2230 0.930 . S
C2223 C2222 1.394 . S
C2223 C2224 1.383 . S
C2223 H2231 0.929 . S
C2224 C2223 1.383 . S
C2224 C2225 1.377 . S
C2225 H2209 0.930 . S
C2225 C2224 1.377 . S
C2225 C2226 1.379 . S
C2226 H2210 0.931 . S
C2226 C2220 1.383 . S
C2226 C2225 1.379 . S
H2227 C2221 0.959 . S
H2228 C2221 0.961 . S
H2229 C2221 0.960 . S
H2230 C2222 0.930 . S
H2231 C2223 0.929 . S
H2232 C2240 0.929 . S
H2233 C2242 0.930 . S
H2234 C2244 0.930 . S
H2235 C2247 0.929 . S
H2236 C2250 0.930 . S
H2237 C2252 0.960 . S
H2238 C2252 0.960 . S
H2239 C2252 0.960 . S
C2240 H2232 0.929 . S
C2240 C2241 1.377 . S
C2240 C2242 1.384 . S
C2241 C2240 1.377 . S
C2241 C2247 1.390 . S
C2242 H2233 0.930 . S
C2242 C2240 1.384 . S
C2242 C2243 1.372 . S
C2243 C2242 1.372 . S
C2243 C2244 1.400 . S
C2243 C2248 1.490 . S
C2244 H2234 0.930 . S
C2244 C2243 1.400 . S
C2244 C2247 1.386 . S
H2245 C2261 0.930 . S
H2246 C2262 0.931 . S
C2247 H2235 0.929 . S
C2247 C2241 1.390 . S
C2247 C2244 1.386 . S
C2248 C2243 1.490 . S
C2248 C2250 1.395 . S
C2248 C2251 1.403 . S
H2249 C2255 0.930 . S
C2250 H2236 0.930 . S
C2250 C2248 1.395 . S
C2250 C2253 1.403 . S
C2251 C2248 1.403 . S
C2251 C2252 1.524 . S
C2251 C2255 1.400 . S
C2252 H2237 0.960 . S
C2252 H2238 0.960 . S
C2252 H2239 0.960 . S
C2252 C2251 1.524 . S
C2253 C2250 1.403 . S
C2253 C2254 1.392 . S
C2253 C2257 1.495 . S
C2254 C2253 1.392 . S
C2254 C2255 1.385 . S
C2254 C2256 1.478 . S
C2255 H2249 0.930 . S
C2255 C2251 1.400 . S
C2255 C2254 1.385 . S
C2256 C2254 1.478 . S
C2256 C2258 1.381 . S
C2256 C2262 1.383 . S
C2257 C2253 1.495 . S
C2257 H2263 0.959 . S
C2257 H2264 0.961 . S
C2257 H2265 0.960 . S
C2258 C2256 1.381 . S
C2258 C2259 1.394 . S
C2258 H2266 0.930 . S
C2259 C2258 1.394 . S
C2259 C2260 1.383 . S
C2259 H2267 0.929 . S
C2260 C2259 1.383 . S
C2260 C2261 1.377 . S
C2261 H2245 0.930 . S
C2261 C2260 1.377 . S
C2261 C2262 1.379 . S
C2262 H2246 0.931 . S
C2262 C2256 1.383 . S
C2262 C2261 1.379 . S
H2263 C2257 0.959 . S
H2264 C2257 0.961 . S
H2265 C2257 0.960 . S
H2266 C2258 0.930 . S
H2267 C2259 0.929 . S
H2268 C2276 0.929 . S
H2269 C2278 0.930 . S
H2270 C2280 0.930 . S
H2271 C2283 0.929 . S
H2272 C2286 0.930 . S
H2273 C2288 0.960 . S
H2274 C2288 0.960 . S
H2275 C2288 0.960 . S
C2276 H2268 0.929 . S
C2276 C2277 1.377 . S
C2276 C2278 1.384 . S
C2277 C2276 1.377 . S
C2277 C2283 1.390 . S
C2278 H2269 0.930 . S
C2278 C2276 1.384 . S
C2278 C2279 1.372 . S
C2279 C2278 1.372 . S
C2279 C2280 1.400 . S
C2279 C2284 1.490 . S
C2280 H2270 0.930 . S
C2280 C2279 1.400 . S
C2280 C2283 1.386 . S
H2281 C2297 0.930 . S
H2282 C2298 0.931 . S
C2283 H2271 0.929 . S
C2283 C2277 1.390 . S
C2283 C2280 1.386 . S
C2284 C2279 1.490 . S
C2284 C2286 1.395 . S
C2284 C2287 1.403 . S
H2285 C2291 0.930 . S
C2286 H2272 0.930 . S
C2286 C2284 1.395 . S
C2286 C2289 1.403 . S
C2287 C2284 1.403 . S
C2287 C2288 1.524 . S
C2287 C2291 1.400 . S
C2288 H2273 0.960 . S
C2288 H2274 0.960 . S
C2288 H2275 0.960 . S
C2288 C2287 1.524 . S
C2289 C2286 1.403 . S
C2289 C2290 1.392 . S
C2289 C2293 1.495 . S
C2290 C2289 1.392 . S
C2290 C2291 1.385 . S
C2290 C2292 1.478 . S
C2291 H2285 0.930 . S
C2291 C2287 1.400 . S
C2291 C2290 1.385 . S
C2292 C2290 1.478 . S
C2292 C2294 1.381 . S
C2292 C2298 1.383 . S
C2293 C2289 1.495 . S
C2293 H2299 0.959 . S
C2293 H2300 0.961 . S
C2293 H2301 0.960 . S
C2294 C2292 1.381 . S
C2294 C2295 1.394 . S
C2294 H2302 0.930 . S
C2295 C2294 1.394 . S
C2295 C2296 1.383 . S
C2295 H2303 0.929 . S
C2296 C2295 1.383 . S
C2296 C2297 1.377 . S
C2297 H2281 0.930 . S
C2297 C2296 1.377 . S
C2297 C2298 1.379 . S
C2298 H2282 0.931 . S
C2298 C2292 1.383 . S
C2298 C2297 1.379 . S
H2299 C2293 0.959 . S
H2300 C2293 0.961 . S
H2301 C2293 0.960 . S
H2302 C2294 0.930 . S
H2303 C2295 0.929 . S
C1017 C476 1.540 . S
C1036 C58 1.275 . S
C1053 C142 1.223 . S
C1072 C56 1.560 . S
C1089 C226 1.283 . S
C1108 C140 1.586 . S
C1125 C224 1.540 . S
C1144 C310 1.292 . S
C1161 C308 1.561 . S
C1180 C394 1.230 . S
C1197 C478 1.294 . S
C1216 C392 1.618 . S
C1233 C644 1.541 . S
C1252 C562 1.291 . S
C1269 C646 1.300 . S
C1288 C728 1.615 . S
C1305 C812 1.559 . S
C1324 C730 1.192 . S
C1341 C896 1.540 . S
C1360 C814 1.265 . S
C1377 C980 1.601 . S
C1396 C898 1.245 . S
C1413 C560 1.559 . S
C1432 C982 1.163 . S
C1449 C998 3.287 . S
C1468 C67 3.253 . S
C1485 C151 2.944 . S
C1504 C578 2.975 . S
C1521 C662 3.140 . S
C1540 C235 3.103 . S
C1557 C746 3.287 . S
C1576 C319 3.251 . S
C1593 C830 2.971 . S
C1612 C403 2.946 . S
C1629 C487 3.109 . S
C1648 C914 3.122 . S
C1665 C571 3.253 . S
C1684 C158 3.293 . S
C1701 C655 3.104 . S
C1720 C242 3.142 . S
C1737 C326 2.975 . S
C1756 C739 2.926 . S
C1773 C410 3.287 . S
C1792 C823 3.241 . S
C1809 C907 3.109 . S
C1828 C494 3.123 . S
C1845 C991 2.948 . S
C1864 C74 2.959 . S
C1881 C567 1.547 . S
C1900 C63 1.547 . S
C1917 C147 1.023 . S
C1936 C651 1.003 . S
C1953 C735 1.037 . S
C1972 C231 1.063 . S
C1989 C315 1.547 . S
C2008 C819 1.550 . S
C2025 C903 1.026 . S
C2044 C399 0.995 . S
C2061 C987 1.032 . S
C2080 C483 1.035 . S
C2097 C573 0.512 . S
C2116 C69 0.495 . S
C2133 C657 0.378 . S
C2152 C153 0.329 . S
C2169 C741 0.383 . S
C2188 C237 0.440 . S
C2205 C321 0.519 . S
C2224 C825 0.489 . S
C2241 C909 0.385 . S
C2260 C405 0.364 . S
C2277 C993 0.385 . S
C2296 C489 0.463 . S
