# Generated by pormake.
# Topology whw, (6)-cn, num edge types: 1
# Building blocks:
#     Node 0, Type 0, BuildingBlock: UKALOJ_clean_sbu_0, # of connection points: 6
#     Node 1, Type 0, BuildingBlock: UKALOJ_clean_sbu_0, # of connection points: 6
#     Node 2, Type 0, BuildingBlock: UKALOJ_clean_sbu_0, # of connection points: 6
#     Node 3, Type 0, BuildingBlock: UKALOJ_clean_sbu_0, # of connection points: 6
#     Node 4, Type 0, BuildingBlock: UKALOJ_clean_sbu_0, # of connection points: 6
#     Node 5, Type 0, BuildingBlock: UKALOJ_clean_sbu_0, # of connection points: 6
#     Node 6, Type 0, BuildingBlock: UKALOJ_clean_sbu_0, # of connection points: 6
#     Node 7, Type 0, BuildingBlock: UKALOJ_clean_sbu_0, # of connection points: 6
#     Node 8, Type 0, BuildingBlock: UKALOJ_clean_sbu_0, # of connection points: 6
#     Node 9, Type 0, BuildingBlock: UKALOJ_clean_sbu_0, # of connection points: 6
#     Node 10, Type 0, BuildingBlock: UKALOJ_clean_sbu_0, # of connection points: 6
#     Node 11, Type 0, BuildingBlock: UKALOJ_clean_sbu_0, # of connection points: 6
#     Node 12, Type 0, BuildingBlock: UKALOJ_clean_sbu_0, # of connection points: 6
#     Node 13, Type 0, BuildingBlock: UKALOJ_clean_sbu_0, # of connection points: 6
#     Node 14, Type 0, BuildingBlock: UKALOJ_clean_sbu_0, # of connection points: 6
#     Node 15, Type 0, BuildingBlock: UKALOJ_clean_sbu_0, # of connection points: 6
#     Edge 16, Type (0, 0), BuildingBlock: XIVTED_clean_linker_0, # of connection points: 2
#     Edge 17, Type (0, 0), BuildingBlock: XIVTED_clean_linker_0, # of connection points: 2
#     Edge 18, Type (0, 0), BuildingBlock: XIVTED_clean_linker_0, # of connection points: 2
#     Edge 19, Type (0, 0), BuildingBlock: XIVTED_clean_linker_0, # of connection points: 2
#     Edge 20, Type (0, 0), BuildingBlock: XIVTED_clean_linker_0, # of connection points: 2
#     Edge 21, Type (0, 0), BuildingBlock: XIVTED_clean_linker_0, # of connection points: 2
#     Edge 22, Type (0, 0), BuildingBlock: XIVTED_clean_linker_0, # of connection points: 2
#     Edge 23, Type (0, 0), BuildingBlock: XIVTED_clean_linker_0, # of connection points: 2
#     Edge 24, Type (0, 0), BuildingBlock: XIVTED_clean_linker_0, # of connection points: 2
#     Edge 25, Type (0, 0), BuildingBlock: XIVTED_clean_linker_0, # of connection points: 2
#     Edge 26, Type (0, 0), BuildingBlock: XIVTED_clean_linker_0, # of connection points: 2
#     Edge 27, Type (0, 0), BuildingBlock: XIVTED_clean_linker_0, # of connection points: 2
#     Edge 28, Type (0, 0), BuildingBlock: XIVTED_clean_linker_0, # of connection points: 2
#     Edge 29, Type (0, 0), BuildingBlock: XIVTED_clean_linker_0, # of connection points: 2
#     Edge 30, Type (0, 0), BuildingBlock: XIVTED_clean_linker_0, # of connection points: 2
#     Edge 31, Type (0, 0), BuildingBlock: XIVTED_clean_linker_0, # of connection points: 2
#     Edge 32, Type (0, 0), BuildingBlock: XIVTED_clean_linker_0, # of connection points: 2
#     Edge 33, Type (0, 0), BuildingBlock: XIVTED_clean_linker_0, # of connection points: 2
#     Edge 34, Type (0, 0), BuildingBlock: XIVTED_clean_linker_0, # of connection points: 2
#     Edge 35, Type (0, 0), BuildingBlock: XIVTED_clean_linker_0, # of connection points: 2
#     Edge 36, Type (0, 0), BuildingBlock: XIVTED_clean_linker_0, # of connection points: 2
#     Edge 37, Type (0, 0), BuildingBlock: XIVTED_clean_linker_0, # of connection points: 2
#     Edge 38, Type (0, 0), BuildingBlock: XIVTED_clean_linker_0, # of connection points: 2
#     Edge 39, Type (0, 0), BuildingBlock: XIVTED_clean_linker_0, # of connection points: 2
#     Edge 40, Type (0, 0), BuildingBlock: XIVTED_clean_linker_0, # of connection points: 2
#     Edge 41, Type (0, 0), BuildingBlock: XIVTED_clean_linker_0, # of connection points: 2
#     Edge 42, Type (0, 0), BuildingBlock: XIVTED_clean_linker_0, # of connection points: 2
#     Edge 43, Type (0, 0), BuildingBlock: XIVTED_clean_linker_0, # of connection points: 2
#     Edge 44, Type (0, 0), BuildingBlock: XIVTED_clean_linker_0, # of connection points: 2
#     Edge 45, Type (0, 0), BuildingBlock: XIVTED_clean_linker_0, # of connection points: 2
#     Edge 46, Type (0, 0), BuildingBlock: XIVTED_clean_linker_0, # of connection points: 2
#     Edge 47, Type (0, 0), BuildingBlock: XIVTED_clean_linker_0, # of connection points: 2
#     Edge 48, Type (0, 0), BuildingBlock: XIVTED_clean_linker_0, # of connection points: 2
#     Edge 49, Type (0, 0), BuildingBlock: XIVTED_clean_linker_0, # of connection points: 2
#     Edge 50, Type (0, 0), BuildingBlock: XIVTED_clean_linker_0, # of connection points: 2
#     Edge 51, Type (0, 0), BuildingBlock: XIVTED_clean_linker_0, # of connection points: 2
#     Edge 52, Type (0, 0), BuildingBlock: XIVTED_clean_linker_0, # of connection points: 2
#     Edge 53, Type (0, 0), BuildingBlock: XIVTED_clean_linker_0, # of connection points: 2
#     Edge 54, Type (0, 0), BuildingBlock: XIVTED_clean_linker_0, # of connection points: 2
#     Edge 55, Type (0, 0), BuildingBlock: XIVTED_clean_linker_0, # of connection points: 2
#     Edge 56, Type (0, 0), BuildingBlock: XIVTED_clean_linker_0, # of connection points: 2
#     Edge 57, Type (0, 0), BuildingBlock: XIVTED_clean_linker_0, # of connection points: 2
#     Edge 58, Type (0, 0), BuildingBlock: XIVTED_clean_linker_0, # of connection points: 2
#     Edge 59, Type (0, 0), BuildingBlock: XIVTED_clean_linker_0, # of connection points: 2
#     Edge 60, Type (0, 0), BuildingBlock: XIVTED_clean_linker_0, # of connection points: 2
#     Edge 61, Type (0, 0), BuildingBlock: XIVTED_clean_linker_0, # of connection points: 2
#     Edge 62, Type (0, 0), BuildingBlock: XIVTED_clean_linker_0, # of connection points: 2
#     Edge 63, Type (0, 0), BuildingBlock: XIVTED_clean_linker_0, # of connection points: 2
# Relax obj value: 0.889
# Max RMSD: 0.238
# Mean RMSD: 0.238
data_MOF--net-whw--node1-UKALOJ_clean_sbu_0--edge1-XIVTED_clean_linker_0
_symmetry_space_group_name_H-M    P1
_symmetry_Int_Tables_number       1
_symmetry_cell_setting            triclinic
loop_
_symmetry_equiv_pos_as_xyz
'x, y, z'
_cell_length_a     64.67428
_cell_length_b     64.649529
_cell_length_c     22.007086
_cell_angle_alpha  90.021395
_cell_angle_beta   90.020356
_cell_angle_gamma 90.066866
loop_
_atom_site_label
_atom_site_type_symbol
_atom_site_fract_x
_atom_site_fract_y
_atom_site_fract_z
_atom_type_partial_charge
Zn0 Zn 0.05235 0.14751 0.16257 0.0
O1 O 0.03143 0.16288 0.10023 0.0
C2 C 0.0864 0.1585 0.07145 0.0
Zn3 Zn 0.0683 0.17769 0.17593 0.0
C4 C 0.03182 0.18259 0.09477 0.0
O5 O 0.04518 0.19304 0.12462 0.0
C6 C 0.08987 0.14385 0.23999 0.0
O7 O 0.04943 0.18047 0.25459 0.0
O8 O 0.03034 0.15316 0.2366 0.0
N9 N 0.08322 0.20456 0.2013 0.0
C10 C 0.08839 0.21089 0.25787 0.0
C11 C 0.09626 0.23511 0.19723 0.0
N12 N 0.08868 0.21943 0.16344 0.0
N13 N 0.0961 0.23049 0.25736 0.0
C14 C 0.04116 0.10459 0.10031 0.0
C15 C 0.02739 0.08851 0.17433 0.0
N16 N 0.03977 0.11817 0.147 0.0
N17 N 0.03107 0.10807 0.19268 0.0
N18 N 0.03376 0.08572 0.11659 0.0
H19 H 0.0446 0.12667 0.02807 0.0
H20 H 0.04113 0.10023 1.00315 0.0
H21 H 0.06546 0.10836 0.03528 0.0
C22 C 0.04844 0.11029 0.03793 0.0
C23 C 0.08615 0.19767 0.31388 0.0
H24 H 0.07267 0.20288 0.34058 0.0
H25 H 0.10035 0.19874 0.34199 0.0
H26 H 0.0834 0.18128 0.30456 0.0
O27 O 0.09116 0.16211 0.22049 0.0
O28 O 0.07388 0.13323 0.22717 0.0
C29 C 0.03423 0.16907 0.26893 0.0
O30 O 0.07451 0.14376 0.088 0.0
O31 O 0.08625 0.17543 0.10033 0.0
Zn32 Zn 0.16225 0.76753 0.39554 0.0
O33 O 0.15595 0.743 0.33032 0.0
C34 C 0.13953 0.79702 0.30981 0.0
Zn35 Zn 0.12827 0.77065 0.41178 0.0
C36 C 0.13727 0.73705 0.32274 0.0
O37 O 0.12291 0.74564 0.35289 0.0
C38 C 0.15173 0.80218 0.48104 0.0
O39 O 0.1324 0.75053 0.48467 0.0
O40 O 0.16525 0.74457 0.46954 0.0
N41 N 0.09805 0.77227 0.43913 0.0
C42 C 0.08901 0.75539 0.46302 0.0
C43 C 0.08119 0.78069 0.52054 0.0
N44 N 0.09267 0.78809 0.47414 0.0
N45 N 0.07934 0.76006 0.5154 0.0
C46 C 0.20682 0.76435 0.33279 0.0
C47 C 0.22576 0.76896 0.41082 0.0
N48 N 0.19401 0.76634 0.38115 0.0
N49 N 0.20595 0.76909 0.42936 0.0
N50 N 0.2269 0.76599 0.35032 0.0
H51 H 0.18328 0.76705 0.26377 0.0
H52 H 0.20033 0.74532 0.2559 0.0
H53 H 0.20961 0.77077 0.23722 0.0
C54 C 0.19953 0.7619 0.26863 0.0
C55 C 0.08895 0.7344 0.43365 0.0
H56 H 0.08717 0.73607 0.38379 0.0
H57 H 0.07595 0.72481 0.45069 0.0
H58 H 0.10366 0.72624 0.44332 0.0
O59 O 0.13393 0.79572 0.4673 0.0
O60 O 0.16754 0.79284 0.46026 0.0
C61 C 0.14872 0.74115 0.49948 0.0
O62 O 0.15756 0.79012 0.32272 0.0
O63 O 0.12398 0.79096 0.34034 0.0
Zn64 Zn 0.53758 0.87549 0.63639 0.0
O65 O 0.56149 0.86401 0.57524 0.0
C66 C 0.5049 0.85672 0.55253 0.0
Zn67 Zn 0.52859 0.84278 0.65756 0.0
C68 C 0.56397 0.84446 0.57021 0.0
O69 O 0.5524 0.83235 0.60057 0.0
C70 C 0.50123 0.8721 0.72059 0.0
O71 O 0.54974 0.84406 0.72866 0.0
O72 O 0.56013 0.87573 0.71201 0.0
N73 N 0.52226 0.81335 0.6859 0.0
C74 C 0.52222 0.80721 0.74455 0.0
C75 C 0.53117 0.78147 0.69149 0.0
N76 N 0.52728 0.7971 0.6527 0.0
N77 N 0.52876 0.7875 0.74996 0.0
C78 C 0.54283 0.91908 0.56889 0.0
C79 C 0.55361 0.93754 0.64249 0.0
N80 N 0.54456 0.90645 0.61778 0.0
N81 N 0.55132 0.91807 0.66317 0.0
N82 N 0.54831 0.93881 0.58336 0.0
H83 H 0.54209 0.89541 0.50036 0.0
H84 H 0.54413 0.92152 0.47123 0.0
H85 H 0.51995 0.91222 0.50187 0.0
C86 C 0.53701 0.91165 0.50678 0.0
C87 C 0.51516 0.82019 0.79739 0.0
H88 H 0.4984 0.82343 0.79227 0.0
H89 H 0.52324 0.83521 0.79955 0.0
H90 H 0.51757 0.812 0.84103 0.0
O91 O 0.50495 0.85322 0.71094 0.0
O92 O 0.51291 0.88588 0.69743 0.0
C93 C 0.56126 0.85905 0.74274 0.0
O94 O 0.51511 0.87337 0.56228 0.0
O95 O 0.50781 0.84108 0.5864 0.0
Zn96 Zn 0.42371 0.26079 0.90727 0.0
O97 O 0.43733 0.28466 0.84951 0.0
C98 C 0.4413 0.22818 0.82067 0.0
Zn99 Zn 0.45545 0.24932 0.92953 0.0
C100 C 0.45701 0.28558 0.84509 0.0
O101 O 0.46798 0.27278 0.87478 0.0
C102 C 0.42411 0.22369 0.98955 0.0
O103 O 0.45478 0.27005 1.00255 0.0
O104 O 0.42387 0.28235 0.98515 0.0
N105 N 0.48413 0.24078 0.95818 0.0
C106 C 0.49014 0.24054 0.01685 0.0
C107 C 0.51623 0.24862 0.96433 0.0
N108 N 0.50062 0.24512 0.92523 0.0
N109 N 0.50995 0.2467 0.02274 0.0
C110 C 0.37781 0.26022 0.85698 0.0
C111 C 0.36671 0.28968 0.88537 0.0
N112 N 0.39376 0.27001 0.88467 0.0
N113 N 0.38673 0.28831 0.90218 0.0
N114 N 0.36069 0.27226 0.85679 0.0
H115 H 0.38539 0.23835 0.78785 0.0
H116 H 0.36294 0.2315 0.83197 0.0
H117 H 0.38855 0.22885 0.86415 0.0
C118 C 0.37863 0.23841 0.83419 0.0
C119 C 0.47697 0.23359 0.06935 0.0
H120 H 0.47188 0.21742 0.06132 0.0
H121 H 0.46293 0.24314 0.0742 0.0
H122 H 0.48583 0.23413 0.11254 0.0
O123 O 0.44321 0.22628 0.98095 0.0
O124 O 0.41119 0.23617 0.96571 0.0
C125 C 0.44032 0.28219 0.01709 0.0
O126 O 0.42548 0.23961 0.82988 0.0
O127 O 0.45647 0.22903 0.85712 0.0
Zn128 Zn 0.05007 0.84933 0.84522 0.0
O129 O 0.02956 0.85474 0.77543 0.0
C130 C 0.08152 0.87309 0.77895 0.0
Zn131 Zn 0.04684 0.88295 0.8657 0.0
C132 C 0.01992 0.87105 0.76259 0.0
O133 O 0.02337 0.8873 0.79372 0.0
C134 C 0.07674 0.85888 0.94742 0.0
O135 O 0.0227 0.87589 0.93132 0.0
O136 O 0.02484 0.84327 0.90303 0.0
N137 N 0.0461 0.91456 0.8832 0.0
C138 C 0.04352 0.92708 0.93198 0.0
C139 C 0.04943 0.94648 0.85569 0.0
N140 N 0.04967 0.92678 0.8361 0.0
N141 N 0.04557 0.94726 0.91578 0.0
C142 C 0.04657 0.81322 0.75726 0.0
C143 C 0.03667 0.78899 0.81523 0.0
N144 N 0.05001 0.81945 0.81514 0.0
N145 N 0.04428 0.80409 0.85107 0.0
N146 N 0.03767 0.79447 0.75614 0.0
H147 H 0.06067 0.8389 0.70737 0.0
H148 H 0.0354 0.83125 0.68184 0.0
H149 H 0.05706 0.81539 0.66516 0.0
C150 C 0.05028 0.82563 0.70042 0.0
C151 C 0.04009 0.91943 0.99532 0.0
H152 H 0.04579 0.90335 1.0003 0.0
H153 H 0.02327 0.91956 1.00515 0.0
H154 H 0.04794 0.92968 0.02861 0.0
O155 O 0.06983 0.8771 0.93685 0.0
O156 O 0.07045 0.8437 0.91563 0.0
C157 C 0.01659 0.85714 0.93602 0.0
O158 O 0.07535 0.85511 0.79188 0.0
O159 O 0.07189 0.88867 0.80014 0.0
Zn160 Zn 0.45929 0.7813 0.0718 0.0
O161 O 0.45882 0.76141 0.99663 0.0
C162 C 0.43029 0.80873 0.00952 0.0
Zn163 Zn 0.42687 0.77106 0.08961 0.0
C164 C 0.44431 0.7495 0.98073 0.0
O165 O 0.42768 0.74935 0.01185 0.0
C166 C 0.44423 0.80289 0.17887 0.0
O167 O 0.43818 0.74667 0.14944 0.0
O168 O 0.46971 0.75663 0.1258 0.0
N169 N 0.396 0.76346 0.10506 0.0
C170 C 0.38314 0.7644 0.1535 0.0
C171 C 0.36513 0.75462 0.07773 0.0
N172 N 0.38469 0.75731 0.05827 0.0
N173 N 0.36355 0.75906 0.13739 0.0
C174 C 0.49579 0.78904 0.99065 0.0
C175 C 0.52061 0.77984 0.04676 0.0
N176 N 0.48877 0.78878 0.04828 0.0
N177 N 0.50447 0.78373 0.08355 0.0
N178 N 0.51544 0.78216 0.98752 0.0
H179 H 0.48145 0.81373 0.94167 0.0
H180 H 0.46836 0.78967 0.93312 0.0
H181 H 0.49229 0.79393 0.89379 0.0
C182 C 0.4838 0.79681 0.93665 0.0
C183 C 0.39017 0.76929 0.21671 0.0
H184 H 0.40636 0.76409 0.22338 0.0
H185 H 0.38008 0.76167 0.25079 0.0
H186 H 0.38957 0.78627 0.22382 0.0
O187 O 0.42781 0.79266 0.16654 0.0
O188 O 0.46013 0.80071 0.14581 0.0
C189 C 0.45775 0.74448 0.15466 0.0
O190 O 0.4491 0.8056 0.02145 0.0
O191 O 0.41663 0.7962 0.02934 0.0
Zn192 Zn 0.52962 0.14508 0.36395 0.0
O193 O 0.55479 0.15056 0.4275 0.0
C194 C 0.50161 0.17187 0.44579 0.0
Zn195 Zn 0.5284 0.17904 0.3431 0.0
C196 C 0.56168 0.16899 0.4334 0.0
O197 O 0.55362 0.18349 0.40246 0.0
C198 C 0.4954 0.15651 0.2775 0.0
O199 O 0.54847 0.17185 0.27283 0.0
O200 O 0.55189 0.13864 0.28999 0.0
N201 N 0.52938 0.20861 0.30943 0.0
C202 C 0.54695 0.21751 0.28979 0.0
C203 C 0.523 0.22732 0.22983 0.0
N204 N 0.51443 0.21502 0.27259 0.0
N205 N 0.5435 0.22858 0.23901 0.0
C206 C 0.53956 0.09812 0.40274 0.0
C207 C 0.5088 0.08639 0.40525 0.0
N208 N 0.52678 0.11399 0.38833 0.0
N209 N 0.50774 0.10652 0.39023 0.0
N210 N 0.52859 0.08052 0.41354 0.0
H211 H 0.56775 0.11294 0.37425 0.0
H212 H 0.56975 0.08524 0.38686 0.0
H213 H 0.56794 0.1028 0.45023 0.0
C214 C 0.56263 0.09984 0.40308 0.0
C215 C 0.5675 0.21573 0.32105 0.0
H216 H 0.56538 0.21791 0.3706 0.0
H217 H 0.57849 0.22776 0.30523 0.0
H218 H 0.57433 0.20029 0.31241 0.0
O219 O 0.50311 0.17414 0.28738 0.0
O220 O 0.50367 0.14062 0.30138 0.0
C221 C 0.55658 0.15474 0.25919 0.0
O222 O 0.50787 0.1534 0.43597 0.0
O223 O 0.50818 0.18654 0.41257 0.0
Zn224 Zn 0.12121 0.25341 0.61147 0.0
O225 O 0.12472 0.27393 0.53961 0.0
C226 C 0.14396 0.22151 0.54129 0.0
Zn227 Zn 0.15546 0.25604 0.62578 0.0
C228 C 0.1412 0.28283 0.52369 0.0
O229 O 0.15794 0.27878 0.55182 0.0
C230 C 0.13374 0.2261 0.71044 0.0
O231 O 0.14951 0.28084 0.69119 0.0
O232 O 0.11628 0.27795 0.67169 0.0
N233 N 0.1874 0.25732 0.63818 0.0
C234 C 0.20074 0.25878 0.68557 0.0
C235 C 0.21874 0.25726 0.60488 0.0
N236 N 0.19877 0.25632 0.58838 0.0
N237 N 0.22075 0.25881 0.66578 0.0
C238 C 0.08062 0.26883 0.56596 0.0
C239 C 0.07102 0.24352 0.51093 0.0
N240 N 0.09062 0.25201 0.58673 0.0
N241 N 0.08421 0.23618 0.55328 0.0
N242 N 0.069 0.26411 0.51711 0.0
H243 H 0.08073 0.28872 0.64401 0.0
H244 H 0.0692 0.30008 0.57783 0.0
H245 H 0.09687 0.29746 0.58232 0.0
C246 C 0.08196 0.29 0.59392 0.0
C247 C 0.19381 0.26062 0.75022 0.0
H248 H 0.17708 0.26404 0.75296 0.0
H249 H 0.20265 0.27297 0.77375 0.0
H250 H 0.19648 0.2457 0.77379 0.0
O251 O 0.15157 0.23347 0.69748 0.0
O252 O 0.11784 0.23247 0.68203 0.0
C253 C 0.13089 0.28665 0.70048 0.0
O254 O 0.12635 0.22863 0.55446 0.0
O255 O 0.16007 0.2305 0.56172 0.0
Zn256 Zn 0.95832 0.28902 0.66549 0.0
O257 O 0.97009 0.26447 0.61201 0.0
C258 C 0.93191 0.30468 0.56436 0.0
Zn259 Zn 0.92727 0.27365 0.66273 0.0
C260 C 0.95889 0.25043 0.58829 0.0
O261 O 0.93953 0.25019 0.60011 0.0
C262 C 0.92795 0.31256 0.73677 0.0
O263 O 0.93869 0.25544 0.74126 0.0
O264 O 0.96755 0.27366 0.74347 0.0
N265 N 0.89797 0.25987 0.66482 0.0
C266 C 0.88308 0.25986 0.70815 0.0
C267 C 0.86973 0.24696 0.62832 0.0
N268 N 0.88957 0.25176 0.61539 0.0
N269 N 0.86506 0.25207 0.68617 0.0
C270 C 0.99486 0.31012 0.60765 0.0
C271 C 0.99797 0.33749 0.66085 0.0
N272 N 0.98483 0.30658 0.66008 0.0
N273 N 0.98696 0.32358 0.69342 0.0
N274 N 1.00256 0.32952 0.60609 0.0
H275 H 1.00259 0.27947 0.57901 0.0
H276 H 1.00973 0.29898 0.52643 0.0
H277 H 0.98291 0.29202 0.53347 0.0
C278 C 0.9976 0.29429 0.5586 0.0
C279 C 0.88665 0.26639 0.77266 0.0
H280 H 0.9031 0.26441 0.78539 0.0
H281 H 0.87684 0.25722 0.80406 0.0
H282 H 0.88261 0.28297 0.77781 0.0
O283 O 0.91608 0.2975 0.72395 0.0
O284 O 0.94626 0.31254 0.7171 0.0
C285 C 0.95618 0.25956 0.76605 0.0
O286 O 0.94934 0.30471 0.58976 0.0
O287 O 0.9178 0.29261 0.5841 0.0
Zn288 Zn 0.62909 0.74001 0.13897 0.0
O289 O 0.61983 0.766 0.08666 0.0
C290 C 0.65286 0.72095 0.03543 0.0
Zn291 Zn 0.6618 0.75089 0.13247 0.0
C292 C 0.63267 0.77821 0.06142 0.0
O293 O 0.65199 0.77566 0.07112 0.0
C294 C 0.6566 0.71222 0.20657 0.0
O295 O 0.65339 0.77033 0.21141 0.0
O296 O 0.62238 0.75626 0.21751 0.0
N297 N 0.69229 0.76143 0.13365 0.0
C298 C 0.707 0.76044 0.17734 0.0
C299 C 0.72133 0.77272 0.09814 0.0
N300 N 0.70128 0.76913 0.08458 0.0
N301 N 0.72548 0.76724 0.15602 0.0
C302 C 0.59068 0.71984 0.08531 0.0
C303 C 0.57636 0.70489 0.16064 0.0
N304 N 0.60044 0.72652 0.13565 0.0
N305 N 0.59161 0.71714 0.18253 0.0
N306 N 0.57601 0.70575 0.09947 0.0
H307 H 0.60427 0.74194 0.02192 0.0
H308 H 0.58002 0.73147 0.99953 0.0
H309 H 0.60284 0.71588 0.99504 0.0
C310 C 0.59478 0.72784 0.02224 0.0
C311 C 0.7029 0.75386 0.24155 0.0
H312 H 0.68658 0.75665 0.25413 0.0
H313 H 0.71309 0.76235 0.27356 0.0
H314 H 0.706 0.73706 0.24608 0.0
O315 O 0.67039 0.72542 0.19246 0.0
O316 O 0.63817 0.71502 0.18948 0.0
C317 C 0.63587 0.7687 0.23813 0.0
O318 O 0.63597 0.72317 0.06304 0.0
O319 O 0.66859 0.7312 0.05313 0.0
Zn320 Zn 0.6568 0.26264 0.87247 0.0
O321 O 0.6499 0.24184 0.79505 0.0
C322 C 0.65009 0.29906 0.79113 0.0
Zn323 Zn 0.62335 0.27116 0.86359 0.0
C324 C 0.63186 0.24047 0.77126 0.0
O325 O 0.61725 0.25171 0.79108 0.0
C326 C 0.64591 0.29415 0.96386 0.0
O327 O 0.61502 0.24668 0.922 0.0
O328 O 0.64748 0.23788 0.93597 0.0
N329 N 0.59432 0.28389 0.86266 0.0
C330 C 0.58492 0.29227 0.91135 0.0
C331 C 0.57248 0.30722 0.83322 0.0
N332 N 0.58656 0.29321 0.81402 0.0
N333 N 0.57179 0.3074 0.89435 0.0
C334 C 0.70289 0.25356 0.8325 0.0
C335 C 0.71713 0.24632 0.91707 0.0
N336 N 0.68777 0.25353 0.87515 0.0
N337 N 0.69674 0.24889 0.9275 0.0
N338 N 0.72147 0.2491 0.85773 0.0
H339 H 0.68347 0.25806 0.7538 0.0
H340 H 0.70985 0.25101 0.73695 0.0
H341 H 0.70409 0.2766 0.76315 0.0
C342 C 0.6998 0.26005 0.76779 0.0
C343 C 0.58778 0.28503 0.97571 0.0
H344 H 0.59548 0.26993 0.9786 0.0
H345 H 0.57251 0.28357 0.99753 0.0
H346 H 0.59693 0.29646 1.00195 0.0
O347 O 0.62942 0.29078 0.93502 0.0
O348 O 0.66201 0.28382 0.95004 0.0
C349 C 0.62827 0.23492 0.94701 0.0
O350 O 0.66476 0.28773 0.81047 0.0
O351 O 0.6317 0.29483 0.8059 0.0
Zn352 Zn 0.92994 0.75537 0.37412 0.0
O353 O 0.93747 0.77617 0.29789 0.0
C354 C 0.93907 0.71941 0.29319 0.0
Zn355 Zn 0.96367 0.74771 0.37152 0.0
C356 C 0.95594 0.77848 0.27789 0.0
O357 O 0.97059 0.76795 0.30083 0.0
C358 C 0.93987 0.72398 0.46712 0.0
O359 O 0.97009 0.77172 0.43264 0.0
O360 O 0.93736 0.78049 0.43855 0.0
N361 N 0.99297 0.73567 0.37646 0.0
C362 C 1.00073 0.73016 0.43083 0.0
C363 C 1.00816 0.70592 0.36908 0.0
N364 N 0.998 0.72073 0.33785 0.0
N365 N 1.0093 0.71115 0.42813 0.0
C366 C 0.88468 0.76508 0.32766 0.0
C367 C 0.86848 0.76795 0.41143 0.0
N368 N 0.89886 0.76357 0.37277 0.0
N369 N 0.88868 0.76552 0.42463 0.0
N370 N 0.86547 0.76779 0.35083 0.0
H371 H 0.90555 0.75759 0.2538 0.0
H372 H 0.8869 0.77735 0.23775 0.0
H373 H 0.87865 0.7509 0.24126 0.0
C374 C 0.88938 0.76243 0.26145 0.0
C375 C 1.00095 0.74408 0.48553 0.0
H376 H 1.00387 0.76027 0.47131 0.0
H377 H 0.01335 0.73968 0.51761 0.0
H378 H 0.9859 0.7433 0.50951 0.0
O379 O 0.95689 0.7274 0.44121 0.0
O380 O 0.92401 0.73424 0.45076 0.0
C381 C 0.95619 0.78353 0.45399 0.0
O382 O 0.92364 0.73 0.31097 0.0
O383 O 0.95699 0.72431 0.31086 0.0
Zn384 Zn 0.55447 0.6507 0.59141 0.0
O385 O 0.5344 0.65689 0.51238 0.0
C386 C 0.59275 0.65406 0.51672 0.0
Zn387 Zn 0.56521 0.68358 0.58059 0.0
C388 C 0.53591 0.67392 0.48305 0.0
O389 O 0.54839 0.68778 0.50129 0.0
C390 C 0.58509 0.66277 0.68665 0.0
O391 O 0.53952 0.69386 0.63284 0.0
O392 O 0.5299 0.66185 0.65191 0.0
N393 N 0.5791 0.71227 0.5736 0.0
C394 C 0.58059 0.72651 0.61784 0.0
C395 C 0.60811 0.72889 0.56527 0.0
N396 N 0.59605 0.71415 0.54008 0.0
N397 N 0.59874 0.73681 0.61449 0.0
C398 C 0.54561 0.60421 0.55612 0.0
C399 C 0.5348 0.5911 0.63884 0.0
N400 N 0.54454 0.61981 0.59723 0.0
N401 N 0.53774 0.61154 0.64852 0.0
N402 N 0.5398 0.58593 0.58127 0.0
H403 H 0.54779 0.62309 0.47543 0.0
H404 H 0.54279 0.59605 0.46144 0.0
H405 H 0.56811 0.60453 0.48482 0.0
C406 C 0.55129 0.60718 0.49063 0.0
C407 C 0.56493 0.72945 0.66711 0.0
H408 H 0.54927 0.73019 0.64693 0.0
H409 H 0.56768 0.74418 0.69136 0.0
H410 H 0.56569 0.71639 0.69975 0.0
O411 O 0.58246 0.67951 0.65806 0.0
O412 O 0.57507 0.64665 0.67038 0.0
C413 C 0.52733 0.68131 0.65958 0.0
O414 O 0.57949 0.6406 0.53244 0.0
O415 O 0.58998 0.67271 0.53127 0.0
Zn416 Zn 0.0227 0.34225 0.13305 0.0
O417 O 0.04805 0.33784 0.19106 0.0
C418 C 0.99892 0.36623 0.2278 0.0
Zn419 Zn 0.03022 0.37606 0.13513 0.0
C420 C 0.0597 0.3519 0.21211 0.0
O421 O 0.05604 0.3707 0.198 0.0
C422 C 0.9932 0.36465 0.05795 0.0
O423 O 0.0507 0.36853 0.05803 0.0
O424 O 0.0426 0.33535 0.06156 0.0
N425 N 0.03717 0.40747 0.13065 0.0
C426 C 0.03887 0.42132 0.08471 0.0
C427 C 0.04117 0.4382 0.16755 0.0
N428 N 0.03874 0.41809 0.1819 0.0
N429 N 0.04136 0.44077 0.10678 0.0
C430 C 1.01115 0.30214 0.1993 0.0
C431 C 1.00269 0.28112 0.12914 0.0
N432 N 0.01382 0.31205 0.14588 0.0
N433 N 1.00825 0.29908 0.10231 0.0
N434 N 1.00392 0.28268 0.19028 0.0
H435 H 0.02772 0.30125 0.28462 0.0
H436 H 1.00225 0.3124 0.28859 0.0
H437 H 0.02325 0.32672 0.25906 0.0
C438 C 0.01647 0.31121 0.26068 0.0
C439 C 0.03686 0.41596 0.01877 0.0
H440 H 0.03 0.40042 0.0125 0.0
H441 H 0.05245 0.41596 0.99778 0.0
H442 H 0.02732 0.42771 0.99505 0.0
O443 O 1.00409 0.38019 0.07402 0.0
O444 O 0.99828 0.34663 0.07487 0.0
C445 C 0.05301 0.35003 0.03815 0.0
O446 O 1.00241 0.34924 0.20178 0.0
O447 O 1.00934 0.38209 0.21223 0.0
Zn448 Zn 0.56477 0.34297 0.41016 0.0
O449 O 0.53907 0.33418 0.35561 0.0
C450 C 0.5855 0.36458 0.30647 0.0
Zn451 Zn 0.55532 0.37629 0.4036 0.0
C452 C 0.52708 0.34755 0.3318 0.0
O453 O 0.5302 0.36673 0.34282 0.0
C454 C 0.59315 0.37037 0.47929 0.0
O455 O 0.53531 0.37 0.48277 0.0
O456 O 0.54733 0.33814 0.48803 0.0
N457 N 0.5464 0.40737 0.39968 0.0
C458 C 0.54449 0.42235 0.44249 0.0
C459 C 0.54153 0.43698 0.35632 0.0
N460 N 0.54441 0.4166 0.3463 0.0
N461 N 0.54147 0.44112 0.41638 0.0
C462 C 0.58178 0.30279 0.36304 0.0
C463 C 0.60557 0.29647 0.4274 0.0
N464 N 0.57732 0.31382 0.41308 0.0
N465 N 0.59195 0.30957 0.4535 0.0
N466 N 0.59969 0.29237 0.37007 0.0
H467 H 0.55194 0.30032 0.32085 0.0
H468 H 0.57242 0.28844 0.27894 0.0
H469 H 0.57018 0.31616 0.27993 0.0
C470 C 0.56837 0.30193 0.3074 0.0
C471 C 0.54697 0.41887 0.5094 0.0
H472 H 0.55335 0.40339 0.51938 0.0
H473 H 0.53162 0.42005 0.53155 0.0
H474 H 0.55712 0.43097 0.52922 0.0
O475 O 0.58085 0.38474 0.46367 0.0
O476 O 0.58955 0.35206 0.46254 0.0
C477 C 0.53582 0.35234 0.50914 0.0
O478 O 0.58277 0.34777 0.33433 0.0
O479 O 0.57573 0.38067 0.32387 0.0
Zn480 Zn 0.03756 0.64546 0.88958 0.0
O481 O 0.05821 0.65348 0.96555 0.0
C482 C 1.00167 0.65386 0.97112 0.0
Zn483 Zn 0.02909 0.67905 0.89193 0.0
C484 C 0.06021 0.67202 0.98527 0.0
O485 O 0.04941 0.68644 0.96214 0.0
C486 C 1.00589 0.65461 0.79685 0.0
O487 O 0.05265 0.68619 0.82999 0.0
O488 O 0.06247 0.65368 0.82503 0.0
N489 N 0.0163 0.70801 0.88882 0.0
C490 C 1.00878 0.71593 0.83677 0.0
C491 C 0.98805 0.72481 0.9073 0.0
N492 N 1.00352 0.7138 0.93276 0.0
N493 N 0.99062 0.72565 0.84668 0.0
C494 C 0.04494 0.59986 0.93545 0.0
C495 C 0.05541 0.58462 0.8555 0.0
N496 N 0.04646 0.61441 0.8914 0.0
N497 N 0.05304 0.60484 0.84189 0.0
N498 N 0.05025 0.58092 0.9139 0.0
H499 H 0.04354 0.62065 0.01205 0.0
H500 H 0.04741 0.59379 0.03154 0.0
H501 H 0.02245 0.60269 1.00626 0.0
C502 C 0.03937 0.60454 1.00013 0.0
C503 C 0.02022 0.71555 0.77731 0.0
H504 H 0.03706 0.717 0.7852 0.0
H505 H 0.01547 0.72861 0.74816 0.0
H506 H 0.01712 0.70095 0.75253 0.0
O507 O 1.00876 0.67171 0.82293 0.0
O508 O 0.01657 0.63901 0.81311 0.0
C509 C 0.06494 0.67259 0.80917 0.0
O510 O 0.0125 0.63865 0.95311 0.0
O511 O 1.00612 0.67185 0.95317 0.0
H512 H 0.07487 0.14395 0.95982 0.0
H513 H 0.16012 0.21592 0.80393 0.0
H514 H 0.12539 0.17268 0.05589 0.0
H515 H 0.10146 0.19951 0.72363 0.0
H516 H 0.15313 0.19153 0.88701 0.0
H517 H 0.09064 0.15467 0.86339 0.0
C518 C 0.08972 0.15172 0.96044 0.0
C519 C 0.09879 0.15766 0.01552 0.0
C520 C 0.14195 0.19309 0.85065 0.0
C521 C 0.11657 0.17039 0.90629 0.0
C522 C 0.14592 0.20701 0.80338 0.0
C523 C 0.13114 0.21007 0.75767 0.0
C524 C 0.12317 0.18208 0.8517 0.0
C525 C 0.11308 0.19798 0.75877 0.0
C526 C 0.09859 0.15809 0.90555 0.0
C527 C 0.11787 0.168 0.01408 0.0
N528 N 0.10952 0.18468 0.80528 0.0
N529 N 0.12597 0.17436 0.96037 0.0
H530 H 0.16231 0.80132 0.20481 0.0
H531 H 0.10724 0.83015 0.94865 0.0
H532 H 0.10822 0.82467 0.29652 0.0
H533 H 0.07928 0.87737 0.0598 0.0
H534 H 0.12761 0.81881 0.03566 0.0
H535 H 0.15204 0.82058 0.11338 0.0
C536 C 0.14848 0.81074 0.20598 0.0
C537 C 0.1359 0.81111 0.25786 0.0
C538 C 0.11755 0.83206 0.04086 0.0
C539 C 0.12386 0.83282 0.15359 0.0
C540 C 0.10575 0.83844 0.99124 0.0
C541 C 0.09153 0.85469 0.99716 0.0
C542 C 0.11486 0.84176 0.09738 0.0
C543 C 0.09017 0.86485 0.05333 0.0
C544 C 0.14248 0.82153 0.15365 0.0
C545 C 0.11817 0.82365 0.25705 0.0
N546 N 0.10134 0.8579 0.10173 0.0
N547 N 0.11261 0.83388 0.20569 0.0
H548 H 0.42562 0.79827 0.2905 0.0
H549 H 0.50429 0.87854 0.44503 0.0
H550 H 0.46769 0.83742 0.19108 0.0
H551 H 0.47292 0.82962 0.54141 0.0
H552 H 0.48402 0.86998 0.35398 0.0
H553 H 0.4357 0.81609 0.38471 0.0
C554 C 0.43651 0.81098 0.28829 0.0
C555 C 0.44604 0.81622 0.23321 0.0
C556 C 0.48136 0.86136 0.39542 0.0
C557 C 0.45777 0.8365 0.34028 0.0
C558 C 0.49285 0.86631 0.44741 0.0
C559 C 0.49052 0.85456 0.5005 0.0
C560 C 0.46737 0.84465 0.39684 0.0
C561 C 0.47547 0.83885 0.50106 0.0
C562 C 0.4424 0.82104 0.34203 0.0
C563 C 0.46019 0.83273 0.23286 0.0
N564 N 0.46463 0.83423 0.44994 0.0
N565 N 0.46579 0.84211 0.28556 0.0
H566 H 0.46211 0.19193 0.80951 0.0
H567 H 0.4763 0.20532 0.45708 0.0
H568 H 0.42629 0.23573 0.70608 0.0
H569 H 0.49489 0.14976 0.55071 0.0
H570 H 0.45633 0.21567 0.54615 0.0
H571 H 0.47233 0.17487 0.71517 0.0
C572 C 0.45604 0.19768 0.76685 0.0
C573 C 0.44345 0.21534 0.76547 0.0
C574 C 0.4645 0.20106 0.54701 0.0
C575 C 0.45552 0.1962 0.65709 0.0
C576 C 0.476 0.19518 0.49625 0.0
C577 C 0.48748 0.17674 0.49675 0.0
C578 C 0.46475 0.18865 0.59929 0.0
C579 C 0.48633 0.16412 0.54848 0.0
C580 C 0.4619 0.18794 0.71298 0.0
C581 C 0.43599 0.22213 0.70908 0.0
N582 N 0.47547 0.17048 0.5981 0.0
N583 N 0.44249 0.2128 0.65695 0.0
H584 H 0.98841 0.80496 0.27626 0.0
H585 H 0.98729 0.82686 0.92896 0.0
H586 H 0.93533 0.7866 0.1707 0.0
H587 H 0.01363 0.87122 0.05315 0.0
H588 H 0.9687 0.81079 0.01395 0.0
H589 H 0.99913 0.82801 0.1938 0.0
C590 C 0.97891 0.80594 0.23578 0.0
C591 C 0.96098 0.79385 0.23016 0.0
C592 C 0.97816 0.82432 0.02238 0.0
C593 C 0.97343 0.81989 0.135 0.0
C594 C 0.98875 0.83352 0.97396 0.0
C595 C 1.00194 0.85047 0.98402 0.0
C596 C 0.98132 0.83167 0.08166 0.0
C597 C 1.00346 0.85833 0.04331 0.0
C598 C 0.98499 0.81918 0.18892 0.0
C599 C 0.94921 0.79574 0.17683 0.0
N600 N 0.99365 0.84858 0.09012 0.0
N601 N 0.95587 0.80821 0.13068 0.0
H602 H 0.98297 0.2741 0.85054 0.0
H603 H 1.0024 0.16595 0.0174 0.0
H604 H 0.94753 0.21964 0.80577 0.0
H605 H 0.02913 0.22415 0.07301 0.0
H606 H 0.98139 0.18453 0.94186 0.0
H607 H 0.99899 0.25553 0.93404 0.0
C608 C 0.97844 0.25819 0.85852 0.0
C609 C 0.96393 0.24841 0.82067 0.0
C610 C 0.99173 0.1932 0.97105 0.0
C611 C 0.98262 0.22671 0.91684 0.0
C612 C 1.00374 0.18261 0.01423 0.0
C613 C 0.01768 0.19344 0.05171 0.0
C614 C 0.99373 0.21477 0.96506 0.0
C615 C 0.01871 0.21504 0.0453 0.0
C616 C 0.98763 0.24755 0.90647 0.0
C617 C 0.9586 0.2278 0.83384 0.0
N618 N 1.00706 0.22489 1.0028 0.0
N619 N 0.96814 0.21753 0.88044 0.0
H620 H 0.60334 0.21005 0.77792 0.0
H621 H 0.59238 0.19782 0.42436 0.0
H622 H 0.64805 0.2368 0.65604 0.0
H623 H 0.56645 0.15322 0.54832 0.0
H624 H 0.61363 0.21171 0.50694 0.0
H625 H 0.59026 0.18851 0.69484 0.0
C626 C 0.61067 0.21103 0.73374 0.0
C627 C 0.62688 0.22506 0.72376 0.0
C628 C 0.6036 0.19864 0.51593 0.0
C629 C 0.61155 0.20094 0.62779 0.0
C630 C 0.5914 0.19073 0.46882 0.0
C631 C 0.57751 0.17442 0.47958 0.0
C632 C 0.60156 0.19052 0.57479 0.0
C633 C 0.57702 0.16573 0.53798 0.0
C634 C 0.6032 0.19875 0.68632 0.0
C635 C 0.63569 0.22597 0.66561 0.0
N636 N 0.58855 0.17415 0.58367 0.0
N637 N 0.62766 0.21434 0.61944 0.0
H638 H 0.58506 0.86294 0.47472 0.0
H639 H 0.61889 0.7536 0.34069 0.0
H640 H 0.57766 0.8047 0.56807 0.0
H641 H 0.64034 0.81054 0.26089 0.0
H642 H 0.60517 0.77293 0.42662 0.0
H643 H 0.60668 0.84533 0.3983 0.0
C644 C 0.58821 0.84657 0.4797 0.0
C645 C 0.57928 0.83526 0.52755 0.0
C646 C 0.61307 0.78132 0.39092 0.0
C647 C 0.60382 0.81506 0.44033 0.0
C648 C 0.62095 0.77023 0.34185 0.0
C649 C 0.63079 0.78049 0.29382 0.0
C650 C 0.61451 0.80302 0.39165 0.0
C651 C 0.633 0.80207 0.29743 0.0
C652 C 0.60051 0.83653 0.43604 0.0
C653 C 0.58389 0.81407 0.53163 0.0
N654 N 0.62461 0.81271 0.34513 0.0
N655 N 0.59561 0.80472 0.48851 0.0
H656 H 0.67772 0.7113 0.31446 0.0
H657 H 0.59448 0.63161 0.41115 0.0
H658 H 0.64307 0.67313 0.19032 0.0
H659 H 0.63183 0.66708 0.53543 0.0
H660 H 0.62077 0.63677 0.33239 0.0
H661 H 0.67078 0.68626 0.39548 0.0
C662 C 0.66948 0.69716 0.30368 0.0
C663 C 0.66054 0.6944 0.24636 0.0
C664 C 0.62362 0.64282 0.37751 0.0
C665 C 0.65184 0.66617 0.33862 0.0
C666 C 0.60866 0.63966 0.42257 0.0
C667 C 0.6109 0.64932 0.47907 0.0
C668 C 0.64058 0.65597 0.38931 0.0
C669 C 0.62946 0.65972 0.49173 0.0
C670 C 0.66529 0.68293 0.35002 0.0
C671 C 0.64987 0.67592 0.23458 0.0
N672 N 0.64335 0.66325 0.44676 0.0
N673 N 0.64532 0.66277 0.28068 0.0
H674 H 0.67213 0.30161 0.6848 0.0
H675 H 0.63328 0.36099 0.45943 0.0
H676 H 0.63416 0.33711 0.80693 0.0
H677 H 0.59177 0.38429 0.59596 0.0
H678 H 0.65731 0.35042 0.53855 0.0
H679 H 0.66679 0.32774 0.60647 0.0
C680 C 0.66338 0.31541 0.69573 0.0
C681 C 0.65334 0.31716 0.75176 0.0
C682 C 0.6432 0.35811 0.55188 0.0
C683 C 0.64663 0.34715 0.66231 0.0
C684 C 0.62967 0.36463 0.50634 0.0
C685 C 0.61051 0.37337 0.52143 0.0
C686 C 0.63714 0.35978 0.61304 0.0
C687 C 0.60644 0.37763 0.58254 0.0
C688 C 0.66012 0.33041 0.65075 0.0
C689 C 0.64195 0.33514 0.76374 0.0
N690 N 0.61938 0.37029 0.62623 0.0
N691 N 0.63859 0.3492 0.71911 0.0
H692 H 0.95672 0.34545 0.07597 0.0
H693 H 0.93593 0.35353 0.72892 0.0
H694 H 0.98728 0.38813 0.95532 0.0
H695 H 0.90954 0.30753 0.84735 0.0
H696 H 0.94309 0.3754 0.81677 0.0
H697 H 0.92921 0.34093 1.00138 0.0
C698 C 0.95731 0.35427 0.03412 0.0
C699 C 0.97445 0.36678 0.02079 0.0
C700 C 0.93503 0.36089 0.8236 0.0
C701 C 0.94335 0.36126 0.9346 0.0
C702 C 0.93074 0.34849 0.77335 0.0
C703 C 0.92258 0.32856 0.78138 0.0
C704 C 0.9315 0.35303 0.88209 0.0
C705 C 0.91605 0.32274 0.83949 0.0
C706 C 0.9416 0.3517 0.99158 0.0
C707 C 0.9744 0.37815 0.96674 0.0
N708 N 0.92127 0.33465 0.88807 0.0
N709 N 0.95934 0.37468 0.92469 0.0
H710 H 0.91823 0.71679 0.18459 0.0
H711 H 1.00084 0.63416 0.08153 0.0
H712 H 0.95735 0.68227 0.30618 0.0
H713 H 0.96379 0.67066 0.95934 0.0
H714 H 0.97696 0.64291 0.16438 0.0
H715 H 0.92626 0.69192 0.10354 0.0
C716 C 0.92781 0.7035 0.1948 0.0
C717 C 0.93736 0.70164 0.25159 0.0
C718 C 0.97365 0.64847 0.11901 0.0
C719 C 0.94711 0.67354 0.15939 0.0
C720 C 0.98717 0.64325 0.07167 0.0
C721 C 0.98432 0.65191 0.01402 0.0
C722 C 0.95741 0.66256 0.10827 0.0
C723 C 0.96656 0.66386 1.00359 0.0
C724 C 0.93259 0.6894 0.14849 0.0
C725 C 0.94988 0.6843 0.26252 0.0
N726 N 0.95402 0.66919 0.05047 0.0
N727 N 0.95472 0.67117 0.21659 0.0
H728 H 0.49565 0.36353 0.53848 0.0
H729 H 0.49796 0.2951 0.8426 0.0
H730 H 0.5485 0.33005 0.60579 0.0
H731 H 0.44059 0.30946 0.75183 0.0
H732 H 0.51657 0.31516 0.76697 0.0
H733 H 0.47532 0.35067 0.62596 0.0
C734 C 0.50306 0.35385 0.57222 0.0
C735 C 0.52376 0.34777 0.56488 0.0
C736 C 0.4999 0.3141 0.76358 0.0
C737 C 0.5008 0.33318 0.66447 0.0
C738 C 0.48919 0.30264 0.80699 0.0
C739 C 0.46763 0.3003 0.80331 0.0
C740 C 0.48912 0.3234 0.71544 0.0
C741 C 0.45721 0.31075 0.75632 0.0
C742 C 0.49144 0.3464 0.62173 0.0
C743 C 0.53256 0.33502 0.60945 0.0
N744 N 0.46807 0.32169 0.71376 0.0
N745 N 0.52109 0.32819 0.65702 0.0
H746 H 0.55025 0.68981 0.37802 0.0
H747 H 0.4399 0.72304 0.25051 0.0
H748 H 0.49398 0.66892 0.46297 0.0
H749 H 0.49743 0.73064 0.15376 0.0
H750 H 0.45807 0.70141 0.32577 0.0
H751 H 0.53026 0.70291 0.29261 0.0
C752 C 0.53362 0.68768 0.37806 0.0
C753 C 0.52376 0.67821 0.42743 0.0
C754 C 0.46658 0.7076 0.28752 0.0
C755 C 0.50046 0.69384 0.33017 0.0
C756 C 0.45621 0.7199 0.24449 0.0
C757 C 0.46718 0.72892 0.1961 0.0
C758 C 0.48803 0.70438 0.28201 0.0
C759 C 0.48833 0.72434 0.1907 0.0
C760 C 0.52215 0.69523 0.32929 0.0
C761 C 0.50216 0.67596 0.42536 0.0
N762 N 0.49801 0.71262 0.23322 0.0
N763 N 0.49115 0.68404 0.37793 0.0
H764 H 0.15214 0.73446 0.20662 0.0
H765 H 0.06859 0.6514 0.09205 0.0
H766 H 0.10814 0.70658 0.32879 0.0
H767 H 0.08599 0.7051 0.98783 0.0
H768 H 0.09109 0.66359 0.17551 0.0
H769 H 0.13629 0.71524 0.12192 0.0
C770 C 0.1396 0.7238 0.21589 0.0
C771 C 0.1314 0.7221 0.27467 0.0
C772 C 0.09017 0.67247 0.13388 0.0
C773 C 0.1133 0.70014 0.17844 0.0
C774 C 0.07744 0.66551 0.08635 0.0
C775 C 0.07536 0.67736 0.03332 0.0
C776 C 0.1013 0.69105 0.12733 0.0
C777 C 0.08704 0.69561 0.02826 0.0
C778 C 0.13045 0.71302 0.16757 0.0
C779 C 0.11486 0.70835 0.28404 0.0
N780 N 0.09953 0.70186 0.0745 0.0
N781 N 0.1063 0.69793 0.23645 0.0
H782 H 0.14528 0.28826 0.81731 0.0
H783 H 0.06183 0.37129 0.93248 0.0
H784 H 0.10282 0.318 0.69441 0.0
H785 H 0.07872 0.31699 0.03459 0.0
H786 H 0.08474 0.35964 0.84937 0.0
H787 H 0.12926 0.30712 0.90232 0.0
C788 C 0.13308 0.29928 0.80799 0.0
C789 C 0.12535 0.3016 0.74886 0.0
C790 C 0.08359 0.35049 0.89046 0.0
C791 C 0.10698 0.32311 0.84549 0.0
C792 C 0.07062 0.35715 0.93779 0.0
C793 C 0.06828 0.34497 0.99011 0.0
C794 C 0.0947 0.33189 0.89652 0.0
C795 C 0.07994 0.32672 0.99469 0.0
C796 C 0.12381 0.30985 0.85648 0.0
C797 C 0.10919 0.31577 0.73943 0.0
N798 N 0.09265 0.32077 0.94869 0.0
N799 N 0.10049 0.32594 0.78719 0.0
H800 H 0.02032 0.24473 0.16929 0.0
H801 H 0.09396 0.27343 0.2488 0.0
H802 H 0.99092 0.28 0.31004 0.0
H803 H 0.09419 0.22877 0.38942 0.0
H804 H 0.05844 0.28197 0.27306 0.0
H805 H 0.04445 0.23118 0.24373 0.0
C806 C 0.01828 0.24903 0.21645 0.0
C807 C 1.00554 0.26567 0.23243 0.0
C808 C 0.06614 0.27019 0.29964 0.0
C809 C 0.03369 0.25143 0.31563 0.0
C810 C 0.0867 0.2654 0.28633 0.0
C811 C 0.09412 0.24601 0.30515 0.0
C812 C 0.05479 0.2562 0.33575 0.0
C813 C 0.086 0.23977 0.36149 0.0
C814 C 0.03224 0.2414 0.25911 0.0
C815 C 1.00256 0.26919 0.29486 0.0
N816 N 0.06533 0.24236 0.37032 0.0
N817 N 0.0179 0.26378 0.33401 0.0
H818 H 0.99131 0.70526 0.53878 0.0
H819 H 0.09944 0.72669 0.55937 0.0
H820 H 0.0433 0.68627 0.43079 0.0
H821 H 0.04326 0.76136 0.57607 0.0
H822 H 0.08167 0.69597 0.59771 0.0
H823 H 1.01173 0.70001 0.63046 0.0
C824 C 1.00685 0.69929 0.53449 0.0
C825 C 0.0167 0.69871 0.4776 0.0
C826 C 0.07358 0.71062 0.59751 0.0
C827 C 0.03992 0.69385 0.58059 0.0
C828 C 0.08356 0.72799 0.57409 0.0
C829 C 0.07214 0.74584 0.56054 0.0
C830 C 0.05208 0.71128 0.60548 0.0
C831 C 0.05214 0.74739 0.58302 0.0
C832 C 0.01841 0.69579 0.58702 0.0
C833 C 0.03599 0.6891 0.47423 0.0
N834 N 0.04253 0.7301 0.60366 0.0
N835 N 0.04724 0.68695 0.52598 0.0
H836 H 0.60432 0.77773 0.63148 0.0
H837 H 0.53581 0.74794 0.78443 0.0
H838 H 0.61469 0.7185 0.71381 0.0
H839 H 0.55529 0.8105 0.82012 0.0
H840 H 0.57053 0.73621 0.80856 0.0
H841 H 0.59989 0.79278 0.73177 0.0
C842 C 0.60681 0.76812 0.67111 0.0
C843 C 0.6086 0.74673 0.66493 0.0
C844 C 0.56712 0.75252 0.81359 0.0
C845 C 0.60141 0.76313 0.77875 0.0
C846 C 0.54712 0.75914 0.79991 0.0
C847 C 0.54296 0.78032 0.7958 0.0
C848 C 0.58308 0.76733 0.81714 0.0
C849 C 0.558 0.79404 0.81897 0.0
C850 C 0.60415 0.7766 0.72888 0.0
C851 C 0.61227 0.73499 0.71747 0.0
N852 N 0.57777 0.78745 0.82604 0.0
N853 N 0.60751 0.74308 0.77266 0.0
H854 H 0.53049 0.31328 0.88724 0.0
H855 H 0.48647 0.27516 0.08305 0.0
H856 H 0.58384 0.33065 0.99154 0.0
H857 H 0.54905 0.25407 0.06078 0.0
H858 H 0.49897 0.31032 0.09214 0.0
H859 H 0.50967 0.31494 0.9788 0.0
C860 C 0.53766 0.31834 0.92915 0.0
C861 C 0.55913 0.31981 0.9336 0.0
C862 C 0.51003 0.29783 0.09056 0.0
C863 C 0.53612 0.31954 0.03869 0.0
C864 C 0.50297 0.27754 0.08464 0.0
C865 C 0.51673 0.26176 0.06667 0.0
C866 C 0.53082 0.30202 0.07856 0.0
C867 C 0.53783 0.26597 0.07125 0.0
C868 C 0.52581 0.31931 0.98206 0.0
C869 C 0.56747 0.32743 0.98813 0.0
N870 N 0.54429 0.28588 0.07568 0.0
N871 N 0.5562 0.32583 0.03999 0.0
H872 H 0.03618 0.75871 0.69488 0.0
H873 H 0.96909 0.7616 0.85499 0.0
H874 H 1.004 0.81606 0.72054 0.0
H875 H 0.97782 0.7089 0.73881 0.0
H876 H 0.95961 0.78199 0.76628 0.0
H877 H 1.00496 0.74394 0.64991 0.0
C878 C 0.02264 0.76831 0.68898 0.0
C879 C 0.02234 0.78819 0.71291 0.0
C880 C 0.96314 0.76576 0.75973 0.0
C881 C 0.98579 0.7705 0.67305 0.0
C882 C 0.9687 0.75423 0.81082 0.0
C883 C 0.97679 0.73439 0.80259 0.0
C884 C 0.96904 0.75813 0.70214 0.0
C885 C 0.97409 0.72503 0.74552 0.0
C886 C 1.00467 0.76 0.66384 0.0
C887 C 1.00453 0.80027 0.70436 0.0
N888 N 0.97059 0.73718 0.69619 0.0
N889 N 0.98662 0.79106 0.68673 0.0
H890 H 0.53443 0.70516 0.11216 0.0
H891 H 0.49172 0.75595 0.91925 0.0
H892 H 0.58298 0.68533 0.99257 0.0
H893 H 0.55491 0.77197 0.95955 0.0
H894 H 0.50191 0.72027 0.90607 0.0
H895 H 0.51271 0.71191 0.02454 0.0
C896 C 0.54021 0.70125 0.06742 0.0
C897 C 0.56113 0.6968 0.05871 0.0
C898 C 0.5137 0.73186 0.91308 0.0
C899 C 0.5373 0.70629 0.95926 0.0
C900 C 0.50799 0.75244 0.9211 0.0
C901 C 0.52235 0.7669 0.94431 0.0
C902 C 0.53383 0.72595 0.92757 0.0
C903 C 0.54317 0.76116 0.94456 0.0
C904 C 0.52782 0.70515 0.01685 0.0
C905 C 0.56741 0.69086 1.00016 0.0
N906 N 0.54821 0.7409 0.93845 0.0
N907 N 0.55611 0.69726 0.95167 0.0
H908 H 0.5747 0.20755 0.18691 0.0
H909 H 0.61277 0.31113 0.26806 0.0
H910 H 0.54744 0.26787 0.2001 0.0
H911 H 0.61481 0.25325 0.36327 0.0
H912 H 0.61526 0.29276 0.17171 0.0
H913 H 0.60841 0.22349 0.16786 0.0
C914 C 0.57566 0.22416 0.18174 0.0
C915 C 0.55888 0.23663 0.19873 0.0
C916 C 0.61671 0.28405 0.21356 0.0
C917 C 0.59678 0.25474 0.1759 0.0
C918 C 0.61501 0.29457 0.26861 0.0
C919 C 0.61191 0.28343 0.32255 0.0
C920 C 0.61388 0.26253 0.21371 0.0
C921 C 0.61567 0.2622 0.32181 0.0
C922 C 0.59482 0.23323 0.16987 0.0
C923 C 0.56041 0.25787 0.18999 0.0
N924 N 0.61616 0.25222 0.26749 0.0
N925 N 0.57921 0.26637 0.17912 0.0
H926 H 0.09098 0.29434 0.46261 0.0
H927 H 0.98512 0.33554 0.49593 0.0
H928 H 0.03088 0.26601 0.46624 0.0
H929 H 0.04072 0.34669 0.59744 0.0
H930 H 1.00567 0.33026 0.40444 0.0
H931 H 0.07547 0.3263 0.42471 0.0
C932 C 0.07459 0.29464 0.45269 0.0
C933 C 0.06175 0.27844 0.4722 0.0
C934 C 0.01339 0.33534 0.44556 0.0
C935 C 0.04428 0.31428 0.42675 0.0
C936 C 1.00162 0.33827 0.49802 0.0
C937 C 1.01158 0.33971 0.55462 0.0
C938 C 0.03489 0.33325 0.45176 0.0
C939 C 0.0327 0.34407 0.55498 0.0
C940 C 0.06587 0.31268 0.4294 0.0
C941 C 0.04099 0.27884 0.45541 0.0
N942 N 0.04391 0.34019 0.50409 0.0
N943 N 0.03278 0.29671 0.43379 0.0
H944 H 1.00602 0.05438 0.12352 0.0
H945 H 0.07169 0.97945 0.90615 0.0
H946 H 0.06447 0.07097 0.04323 0.0
H947 H 0.01763 0.95876 1.00283 0.0
H948 H 0.06873 0.01322 0.95518 0.0
H949 H 1.00914 0.01971 0.07857 0.0
C950 C 0.01936 0.05083 0.09569 0.0
C951 C 0.03468 0.06592 0.08571 0.0
C952 C 0.05758 1.00131 0.96635 0.0
C953 C 0.03856 0.02608 0.03482 0.0
C954 C 0.05932 0.98199 0.93845 0.0
C955 C 0.04506 0.96616 0.95095 0.0
C956 C 0.04123 1.00514 1.00678 0.0
C957 C 0.02921 0.97035 0.99285 0.0
C958 C 0.02118 0.03101 0.07028 0.0
C959 C 0.05183 0.0603 0.05017 0.0
N960 N 0.02764 0.98947 0.01897 0.0
N961 N 0.05325 0.04094 0.02606 0.0
H962 H 0.25981 0.79085 0.36763 0.0
H963 H 0.3316 0.73246 0.12473 0.0
H964 H 0.2381 0.74036 0.25687 0.0
H965 H 0.35087 0.78653 0.22433 0.0
H966 H 0.29773 0.73432 0.17435 0.0
H967 H 0.29342 0.78896 0.31709 0.0
C968 C 0.26208 0.77949 0.33209 0.0
C969 C 0.24597 0.76597 0.31588 0.0
C970 C 0.30941 0.74567 0.18585 0.0
C971 C 0.28471 0.76343 0.25811 0.0
C972 C 0.32879 0.74457 0.15771 0.0
C973 C 0.34436 0.75905 0.17134 0.0
C974 C 0.30536 0.76151 0.22789 0.0
C975 C 0.33973 0.77458 0.21387 0.0
C976 C 0.2813 0.77838 0.30329 0.0
C977 C 0.24984 0.75144 0.2698 0.0
N978 N 0.32071 0.77539 0.24052 0.0
N979 N 0.26882 0.7505 0.24274 0.0
H980 H 0.55971 0.0683 0.49051 0.0
H981 H 0.51999 0.95073 0.49759 0.0
H982 H 0.51074 0.04495 0.37664 0.0
H983 H 0.57427 0.97145 0.59367 0.0
H984 H 0.51746 0.9847 0.44929 0.0
H985 H 0.56654 0.03288 0.52528 0.0
C986 C 0.55075 0.05573 0.47157 0.0
C987 C 0.5348 0.05968 0.42976 0.0
C988 C 0.53013 0.98176 0.48025 0.0
C989 C 0.54206 0.01901 0.47109 0.0
C990 C 0.53174 0.96217 0.50729 0.0
C991 C 0.54767 0.95793 0.54887 0.0
C992 C 0.54434 0.99747 0.49541 0.0
C993 C 0.56182 0.97394 0.56163 0.0
C994 C 0.55448 0.03547 0.49202 0.0
C995 C 0.5232 0.04268 0.4088 0.0
N996 N 0.55979 0.99292 0.53538 0.0
N997 N 0.52696 0.02323 0.42978 0.0
H998 H 0.32416 0.27567 0.91547 0.0
H999 H 0.25691 0.27091 0.61543 0.0
H1000 H 0.35091 0.26078 0.74192 0.0
H1001 H 0.2313 0.2501 0.78613 0.0
H1002 H 0.29088 0.27256 0.66275 0.0
H1003 H 0.28937 0.27147 0.87116 0.0
C1004 C 0.32263 0.27135 0.86814 0.0
C1005 C 0.34034 0.26833 0.83234 0.0
C1006 C 0.27775 0.26778 0.68987 0.0
C1007 C 0.30078 0.26411 0.78104 0.0
C1008 C 0.25822 0.26685 0.66299 0.0
C1009 C 0.24065 0.26073 0.6965 0.0
C1010 C 0.28005 0.26291 0.75147 0.0
C1011 C 0.24376 0.25568 0.75821 0.0
C1012 C 0.30285 0.26893 0.84298 0.0
C1013 C 0.33762 0.26294 0.77112 0.0
N1014 N 0.26299 0.25707 0.7837 0.0
N1015 N 0.31824 0.26124 0.74721 0.0
H1016 H 0.75311 0.27316 0.89451 0.0
H1017 H 0.83575 0.22289 0.66585 0.0
H1018 H 0.73677 0.22645 0.7637 0.0
H1019 H 0.84672 0.27939 0.76473 0.0
H1020 H 0.80038 0.22204 0.70641 0.0
H1021 H 0.78843 0.27375 0.85356 0.0
C1022 C 0.757 0.26314 0.85679 0.0
C1023 C 0.74196 0.25003 0.83167 0.0
C1024 C 0.81062 0.2345 0.71975 0.0
C1025 C 0.78246 0.25027 0.78504 0.0
C1026 C 0.83085 0.23496 0.69675 0.0
C1027 C 0.84461 0.25086 0.71328 0.0
C1028 C 0.80395 0.2501 0.75966 0.0
C1029 C 0.8372 0.26629 0.75274 0.0
C1030 C 0.77713 0.26346 0.83339 0.0
C1031 C 0.7478 0.23714 0.78331 0.0
N1032 N 0.8175 0.26547 0.77465 0.0
N1033 N 0.76759 0.23752 0.76169 0.0
H1034 H 0.83256 0.74459 0.38202 0.0
H1035 H 0.75566 0.79577 0.1393 0.0
H1036 H 0.85271 0.79045 0.25314 0.0
H1037 H 0.74229 0.73911 0.23464 0.0
H1038 H 0.79034 0.79598 0.18493 0.0
H1039 H 0.79834 0.74442 0.33419 0.0
C1040 C 0.82975 0.75455 0.34335 0.0
C1041 C 0.84557 0.76731 0.32093 0.0
C1042 C 0.77973 0.78361 0.19626 0.0
C1043 C 0.80629 0.76745 0.26618 0.0
C1044 C 0.75992 0.7835 0.17035 0.0
C1045 C 0.74568 0.76779 0.18465 0.0
C1046 C 0.78545 0.76784 0.23685 0.0
C1047 C 0.75221 0.75208 0.2244 0.0
C1048 C 0.81025 0.75443 0.31595 0.0
C1049 C 0.84111 0.78002 0.27089 0.0
N1050 N 0.7715 0.75259 0.24926 0.0
N1051 N 0.82186 0.77986 0.24537 0.0
H1052 H 0.56793 0.56878 0.50317 0.0
H1053 H 0.51916 0.45466 0.51416 0.0
H1054 H 0.51307 0.55463 0.6062 0.0
H1055 H 0.56264 0.47465 0.37812 0.0
H1056 H 0.51863 0.49003 0.55567 0.0
H1057 H 0.56795 0.53359 0.46327 0.0
C1058 C 0.55554 0.5585 0.51628 0.0
C1059 C 0.53996 0.5651 0.55635 0.0
C1060 C 0.52835 0.48665 0.5169 0.0
C1061 C 0.54054 0.52402 0.51293 0.0
C1062 C 0.52882 0.4664 0.49362 0.0
C1063 C 0.54121 0.46161 0.44312 0.0
C1064 C 0.54049 0.50221 0.48979 0.0
C1065 C 0.55292 0.47765 0.41716 0.0
C1066 C 0.55575 0.5382 0.49408 0.0
C1067 C 0.52518 0.55037 0.57467 0.0
N1068 N 0.55237 0.4971 0.44087 0.0
N1069 N 0.5258 0.53059 0.55286 0.0
H1070 H 0.07603 0.54858 0.89435 0.0
H1071 H 0.02027 0.47506 0.13779 0.0
H1072 H 0.02173 0.56625 0.99509 0.0
H1073 H 0.06415 0.45193 0.00739 0.0
H1074 H 0.02239 0.50925 0.09046 0.0
H1075 H 0.07369 0.51379 0.9388 0.0
C1076 C 0.06376 0.54524 0.92637 0.0
C1077 C 0.04948 0.5607 0.94242 0.0
C1078 C 0.03146 0.4967 0.07172 0.0
C1079 C 0.04657 0.52077 0.99321 0.0
C1080 C 0.03025 0.47719 0.0988 0.0
C1081 C 0.04181 0.46054 0.07599 0.0
C1082 C 0.04463 0.49986 0.02181 0.0
C1083 C 0.05462 0.46419 0.02556 0.0
C1084 C 0.0624 0.52536 0.95158 0.0
C1085 C 0.03368 0.55532 0.98338 0.0
N1086 N 0.05578 0.48347 1.00037 0.0
N1087 N 0.03274 0.53593 0.00746 0.0
H1088 H 0.08163 0.13072 0.35493 0.0
H1089 H 0.16731 0.21087 0.44071 0.0
H1090 H 0.13155 0.14726 0.23508 0.0
H1091 H 0.12122 0.1877 0.56462 0.0
H1092 H 0.16049 0.18116 0.37354 0.0
H1093 H 0.10207 0.14293 0.44103 0.0
C1094 C 0.0974 0.13574 0.34711 0.0
C1095 C 0.10478 0.13835 0.28781 0.0
C1096 C 0.15228 0.18226 0.41628 0.0
C1097 C 0.12784 0.15351 0.38542 0.0
C1098 C 0.15627 0.19919 0.45459 0.0
C1099 C 0.14458 0.2018 0.50755 0.0
C1100 C 0.13647 0.16808 0.43133 0.0
C1101 C 0.13032 0.18635 0.52349 0.0
C1102 C 0.10896 0.14321 0.39622 0.0
C1103 C 0.12524 0.14525 0.28029 0.0
N1104 N 0.12644 0.17037 0.4852 0.0
N1105 N 0.13578 0.15334 0.32817 0.0
H1106 H 0.16919 0.80608 0.59404 0.0
H1107 H 0.08434 0.88999 0.66524 0.0
H1108 H 0.13494 0.83939 0.45787 0.0
H1109 H 0.11934 0.85762 0.80169 0.0
H1110 H 0.10996 0.87958 0.58893 0.0
H1111 H 0.1589 0.83209 0.66952 0.0
C1112 C 0.16031 0.81939 0.57955 0.0
C1113 C 0.15287 0.82067 0.51994 0.0
C1114 C 0.11247 0.87533 0.63594 0.0
C1115 C 0.14034 0.84998 0.60591 0.0
C1116 C 0.09796 0.88155 0.67956 0.0
C1117 C 0.09984 0.87467 0.73959 0.0
C1118 C 0.12867 0.86189 0.65264 0.0
C1119 C 0.11745 0.86325 0.75567 0.0
C1120 C 0.15418 0.83412 0.62269 0.0
C1121 C 0.14096 0.83793 0.50361 0.0
N1122 N 0.13096 0.85686 0.71232 0.0
N1123 N 0.13473 0.85167 0.54651 0.0
H1124 H 0.41474 0.80871 0.89437 0.0
H1125 H 0.49931 0.88896 0.83434 0.0
H1126 H 0.43829 0.84867 0.03474 0.0
H1127 H 0.46188 0.86329 0.69117 0.0
H1128 H 0.47163 0.88133 0.90693 0.0
H1129 H 0.42482 0.83441 0.81832 0.0
C1130 C 0.42093 0.82343 0.90939 0.0
C1131 C 0.42575 0.82662 0.97067 0.0
C1132 C 0.46905 0.87811 0.85924 0.0
C1133 C 0.43844 0.85556 0.88417 0.0
C1134 C 0.4848 0.88275 0.81775 0.0
C1135 C 0.48277 0.87678 0.75694 0.0
C1136 C 0.45151 0.86696 0.83968 0.0
C1137 C 0.46392 0.86817 0.73789 0.0
C1138 C 0.42703 0.83802 0.86592 0.0
C1139 C 0.43434 0.84571 0.98769 0.0
N1140 N 0.44924 0.86301 0.7793 0.0
N1141 N 0.441 0.8592 0.94462 0.0
H1142 H 0.45916 0.17319 0.3111 0.0
H1143 H 0.42791 0.18301 0.96591 0.0
H1144 H 0.48815 0.14 0.16453 0.0
H1145 H 0.41069 0.22596 0.10636 0.0
H1146 H 0.43833 0.1581 0.04359 0.0
H1147 H 0.43095 0.18298 0.243 0.0
C1148 C 0.4591 0.16727 0.265 0.0
C1149 C 0.47589 0.15574 0.24321 0.0
C1150 C 0.43145 0.1726 0.05761 0.0
C1151 C 0.44409 0.16749 0.16445 0.0
C1152 C 0.42512 0.18669 0.01326 0.0
C1153 C 0.41839 0.20654 0.02987 0.0
C1154 C 0.43116 0.17853 0.11893 0.0
C1155 C 0.41558 0.21074 0.09173 0.0
C1156 C 0.44309 0.173 0.22604 0.0
C1157 C 0.47535 0.14874 0.18304 0.0
N1158 N 0.4225 0.19707 0.13412 0.0
N1159 N 0.45988 0.15508 0.14529 0.0
H1160 H 0.99382 0.80209 0.45816 0.0
H1161 H 0.97931 0.86033 0.76874 0.0
H1162 H 0.93371 0.80445 0.54268 0.0
H1163 H 0.02803 0.87461 0.64251 0.0
H1164 H 0.9608 0.84183 0.68769 0.0
H1165 H 1.00585 0.82904 0.52673 0.0
C1166 C 0.98305 0.80836 0.49107 0.0
C1167 C 0.96267 0.80089 0.49451 0.0
C1168 C 0.97513 0.84971 0.67701 0.0
C1169 C 0.97657 0.83205 0.57424 0.0
C1170 C 0.98553 0.86062 0.72303 0.0
C1171 C 1.00499 0.86956 0.71195 0.0
C1172 C 0.98456 0.84725 0.61994 0.0
C1173 C 0.01282 0.86848 0.65262 0.0
C1174 C 0.98994 0.82392 0.53008 0.0
C1175 C 0.94951 0.80978 0.53817 0.0
N1176 N 1.00283 0.85719 0.60936 0.0
N1177 N 0.95676 0.82469 0.57693 0.0
H1178 H 0.99988 0.24134 0.57826 0.0
H1179 H 0.99161 0.17211 0.27698 0.0
H1180 H 0.94078 0.22497 0.5011 0.0
H1181 H 0.04742 0.1816 0.37994 0.0
H1182 H 0.97195 0.18991 0.35782 0.0
H1183 H 0.01688 0.21906 0.50484 0.0
C1184 C 0.99039 0.23298 0.54596 0.0
C1185 C 0.96878 0.23521 0.54606 0.0
C1186 C 0.98847 0.18787 0.36297 0.0
C1187 C 0.98843 0.20924 0.46066 0.0
C1188 C 0.99965 0.17752 0.31713 0.0
C1189 C 0.02124 0.17552 0.32151 0.0
C1190 C 0.99901 0.19629 0.41332 0.0
C1191 C 0.0309 0.18318 0.374 0.0
C1192 C 1.00018 0.22011 0.50392 0.0
C1193 C 0.95745 0.22371 0.50303 0.0
N1194 N 0.01982 0.19329 0.41729 0.0
N1195 N 0.9674 0.21136 0.46177 0.0
H1196 H 0.64921 0.21391 0.03849 0.0
H1197 H 0.547 0.15196 0.13987 0.0
H1198 H 0.58984 0.21768 0.94992 0.0
H1199 H 0.59808 0.16213 0.26152 0.0
H1200 H 0.56689 0.16796 0.05773 0.0
H1201 H 0.63458 0.18823 0.10964 0.0
C1202 C 0.63323 0.20917 0.03342 0.0
C1203 C 0.62075 0.21811 0.98819 0.0
C1204 C 0.57409 0.1661 0.10182 0.0
C1205 C 0.60401 0.18855 0.06884 0.0
C1206 C 0.56286 0.15653 0.14844 0.0
C1207 C 0.5711 0.15507 0.20722 0.0
C1208 C 0.59372 0.17456 0.11396 0.0
C1209 C 0.5914 0.16231 0.2164 0.0
C1210 C 0.62489 0.19454 0.07407 0.0
C1211 C 0.60008 0.21141 0.98418 0.0
N1212 N 0.60193 0.17194 0.17058 0.0
N1213 N 0.59244 0.19716 0.02374 0.0
H1214 H 0.55045 0.85852 0.86116 0.0
H1215 H 0.65318 0.79905 0.96932 0.0
H1216 H 0.60254 0.84962 0.74249 0.0
H1217 H 0.59363 0.7941 0.05628 0.0
H1218 H 0.63803 0.82329 0.89516 0.0
H1219 H 0.56956 0.84168 0.94334 0.0
C1220 C 0.5663 0.85383 0.85326 0.0
C1221 C 0.57515 0.85605 0.79547 0.0
C1222 C 0.62838 0.81703 0.93094 0.0
C1223 C 0.59692 0.83578 0.88874 0.0
C1224 C 0.63704 0.80328 0.97346 0.0
C1225 C 0.6247 0.79447 0.01928 0.0
C1226 C 0.60731 0.82231 0.93488 0.0
C1227 C 0.60379 0.80039 0.02184 0.0
C1228 C 0.57711 0.84387 0.89989 0.0
C1229 C 0.59542 0.84881 0.78694 0.0
N1230 N 0.59584 0.81386 0.98049 0.0
N1231 N 0.60558 0.83885 0.83287 0.0
H1232 H 0.62311 0.67935 0.67916 0.0
H1233 H 0.63794 0.68221 0.03853 0.0
H1234 H 0.5826 0.64823 0.80488 0.0
H1235 H 0.66511 0.72663 0.91642 0.0
H1236 H 0.62539 0.66235 0.95162 0.0
H1237 H 0.64574 0.68903 0.76329 0.0
C1238 C 0.6193 0.67403 0.72452 0.0
C1239 C 0.60091 0.66302 0.73519 0.0
C1240 C 0.63459 0.67609 0.94362 0.0
C1241 C 0.62669 0.67438 0.83202 0.0
C1242 C 0.64202 0.68731 0.99316 0.0
C1243 C 0.65274 0.70602 0.98461 0.0
C1244 C 0.63789 0.68358 0.88472 0.0
C1245 C 0.65722 0.71214 0.92501 0.0
C1246 C 0.63218 0.67971 0.77252 0.0
C1247 C 0.59669 0.65659 0.79468 0.0
N1248 N 0.64951 0.70108 0.87722 0.0
N1249 N 0.60935 0.66263 0.84112 0.0
H1250 H 0.62508 0.35169 0.31036 0.0
H1251 H 0.62693 0.33093 0.95304 0.0
H1252 H 0.57874 0.37391 0.18608 0.0
H1253 H 0.66135 0.29443 0.08186 0.0
H1254 H 0.61641 0.35413 0.03466 0.0
H1255 H 0.64531 0.33877 0.22438 0.0
C1256 C 0.61959 0.35463 0.26462 0.0
C1257 C 0.6003 0.36411 0.25525 0.0
C1258 C 0.62662 0.34134 0.04511 0.0
C1259 C 0.62308 0.34866 0.15663 0.0
C1260 C 0.6328 0.32814 0.99846 0.0
C1261 C 0.64507 0.31068 0.01063 0.0
C1262 C 0.63265 0.33716 0.10496 0.0
C1263 C 0.65208 0.30779 0.07033 0.0
C1264 C 0.63104 0.34699 0.21565 0.0
C1265 C 0.59367 0.36704 0.19527 0.0
N1266 N 0.64554 0.32076 0.11552 0.0
N1267 N 0.6049 0.35907 0.14826 0.0
H1268 H 0.99876 0.3824 0.34433 0.0
H1269 H 0.92173 0.29601 0.44589 0.0
H1270 H 0.96169 0.34833 0.21586 0.0
H1271 H 0.93944 0.34553 0.56608 0.0
H1272 H 0.93284 0.31714 0.35913 0.0
H1273 H 0.9747 0.37193 0.42547 0.0
C1274 C 0.98515 0.37344 0.33287 0.0
C1275 C 0.98218 0.36622 0.2735 0.0
C1276 C 0.93363 0.3237 0.40435 0.0
C1277 C 0.95511 0.35356 0.36573 0.0
C1278 C 0.92695 0.31171 0.45373 0.0
C1279 C 0.92951 0.31912 0.51301 0.0
C1280 C 0.94329 0.34296 0.41478 0.0
C1281 C 0.93708 0.33936 0.52083 0.0
C1282 C 0.97151 0.36726 0.37915 0.0
C1283 C 0.96455 0.35415 0.26128 0.0
N1284 N 0.94415 0.35038 0.47255 0.0
N1285 N 0.95195 0.34788 0.307 0.0
H1286 H 0.9654 0.66315 0.81016 0.0
H1287 H 0.92631 0.72656 0.58559 0.0
H1288 H 1.0109 0.64808 0.67455 0.0
H1289 H 0.95563 0.68562 0.4576 0.0
H1290 H 0.93741 0.70376 0.6684 0.0
H1291 H 0.94232 0.67579 0.73043 0.0
C1292 C 0.97018 0.66176 0.76313 0.0
C1293 C 0.98996 0.65425 0.7488 0.0
C1294 C 0.94071 0.69922 0.62211 0.0
C1295 C 0.96417 0.67001 0.65737 0.0
C1296 C 0.9342 0.71225 0.57478 0.0
C1297 C 0.93984 0.70783 0.51474 0.0
C1298 C 0.95307 0.68176 0.60906 0.0
C1299 C 0.9508 0.68946 0.50337 0.0
C1300 C 0.95717 0.66943 0.7177 0.0
C1301 C 0.99563 0.65332 0.68742 0.0
N1302 N 0.95736 0.67734 0.54999 0.0
N1303 N 0.98289 0.66137 0.64401 0.0
H1304 H 0.50478 0.36985 0.24645 0.0
H1305 H 0.44216 0.26946 0.13387 0.0
H1306 H 0.51032 0.30879 0.3236 0.0
H1307 H 0.44856 0.32386 0.02283 0.0
H1308 H 0.45981 0.28735 0.21696 0.0
H1309 H 0.47826 0.35651 0.17601 0.0
C1310 C 0.50028 0.35373 0.24916 0.0
C1311 C 0.50994 0.34044 0.29107 0.0
C1312 C 0.45687 0.29567 0.17515 0.0
C1313 C 0.47934 0.32516 0.21113 0.0
C1314 C 0.44652 0.28552 0.12792 0.0
C1315 C 0.4436 0.29527 0.07163 0.0
C1316 C 0.46459 0.31578 0.16623 0.0
C1317 C 0.45012 0.31593 0.06589 0.0
C1318 C 0.48515 0.34613 0.20887 0.0
C1319 C 0.50348 0.31966 0.29204 0.0
N1320 N 0.46049 0.32545 0.11233 0.0
N1321 N 0.4887 0.31273 0.25292 0.0
H1322 H 0.44899 0.70726 0.9726 0.0
H1323 H 0.51292 0.721 0.6656 0.0
H1324 H 0.44988 0.76297 0.86569 0.0
H1325 H 0.50415 0.66108 0.74774 0.0
H1326 H 0.48808 0.73562 0.73653 0.0
H1327 H 0.46587 0.68873 0.88814 0.0
C1328 C 0.45194 0.71536 0.93042 0.0
C1329 C 0.44773 0.73661 0.92577 0.0
C1330 C 0.49133 0.71922 0.7389 0.0
C1331 C 0.46791 0.71584 0.83008 0.0
C1332 C 0.5057 0.71082 0.69839 0.0
C1333 C 0.51084 0.68971 0.70051 0.0
C1334 C 0.48191 0.70657 0.78289 0.0
C1335 C 0.50069 0.67741 0.74413 0.0
C1336 C 0.46181 0.70486 0.88244 0.0
C1337 C 0.4526 0.74654 0.87089 0.0
N1338 N 0.4869 0.68603 0.78392 0.0
N1339 N 0.46264 0.7362 0.82583 0.0
H1340 H 0.14976 0.75175 0.61808 0.0
H1341 H 0.0874 0.6503 0.72332 0.0
H1342 H 0.14104 0.69953 0.49956 0.0
H1343 H 0.08196 0.71097 0.80325 0.0
H1344 H 0.11419 0.66401 0.65398 0.0
H1345 H 0.13343 0.73238 0.70064 0.0
C1346 C 0.14534 0.73579 0.61035 0.0
C1347 C 0.14729 0.72706 0.55233 0.0
C1348 C 0.10728 0.67417 0.68738 0.0
C1349 C 0.12751 0.705 0.64603 0.0
C1350 C 0.09199 0.66637 0.72687 0.0
C1351 C 0.08222 0.67951 0.76892 0.0
C1352 C 0.1131 0.69516 0.6908 0.0
C1353 C 0.0888 0.70024 0.77128 0.0
C1354 C 0.13566 0.72483 0.65721 0.0
C1355 C 0.14039 0.7066 0.54413 0.0
N1356 N 0.1037 0.70735 0.733 0.0
N1357 N 0.13058 0.69634 0.59017 0.0
H1358 H 0.07954 0.37373 0.30419 0.0
H1359 H 0.14367 0.27309 0.40456 0.0
H1360 H 0.07963 0.3151 0.21059 0.0
H1361 H 0.13222 0.32397 0.526 0.0
H1362 H 0.12811 0.29288 0.32162 0.0
H1363 H 0.10576 0.35996 0.37513 0.0
C1364 C 0.08532 0.35816 0.29787 0.0
C1365 C 0.07725 0.34552 0.25165 0.0
C1366 C 0.12958 0.30006 0.36587 0.0
C1367 C 0.10725 0.32978 0.33188 0.0
C1368 C 0.13881 0.28887 0.41296 0.0
C1369 C 0.1398 0.29716 0.4717 0.0
C1370 C 0.12095 0.31964 0.37767 0.0
C1371 C 0.13231 0.31731 0.48084 0.0
C1372 C 0.10023 0.3503 0.33835 0.0
C1373 C 0.08521 0.32538 0.24584 0.0
N1374 N 0.12299 0.3278 0.43453 0.0
N1375 N 0.09961 0.31819 0.28539 0.0
loop_
_geom_bond_atom_site_label_1
_geom_bond_atom_site_label_2
_geom_bond_distance
_geom_bond_site_symmetry_2
_ccdc_geom_bond_type
Zn0 O1 2.055 . S
Zn0 O8 2.046 . S
Zn0 N16 2.036 . S
Zn0 O28 2.053 . S
Zn0 O30 2.066 . S
O1 Zn0 2.055 . S
O1 C4 1.259 . S
C2 O30 1.256 . S
C2 O31 1.244 . S
Zn3 O5 2.046 . S
Zn3 O7 2.055 . S
Zn3 N9 2.036 . S
Zn3 O27 2.066 . S
Zn3 O31 2.053 . S
C4 O1 1.259 . S
C4 O5 1.254 . S
O5 Zn3 2.046 . S
O5 C4 1.254 . S
C6 O27 1.256 . S
C6 O28 1.244 . S
O7 Zn3 2.055 . S
O7 C29 1.259 . S
O8 Zn0 2.046 . S
O8 C29 1.254 . S
N9 Zn3 2.036 . S
N9 C10 1.298 . S
N9 N12 1.398 . S
C10 N9 1.298 . S
C10 N13 1.367 . S
C10 C23 1.481 . S
C11 N12 1.299 . S
C11 N13 1.379 . S
N12 N9 1.398 . S
N12 C11 1.299 . S
N13 C10 1.367 . S
N13 C11 1.379 . S
C14 N16 1.298 . S
C14 N18 1.367 . S
C14 C22 1.481 . S
C15 N17 1.299 . S
C15 N18 1.379 . S
N16 Zn0 2.036 . S
N16 C14 1.298 . S
N16 N17 1.398 . S
N17 C15 1.299 . S
N17 N16 1.398 . S
N18 C14 1.367 . S
N18 C15 1.379 . S
H19 C22 0.980 . S
H20 C22 0.981 . S
H21 C22 0.981 . S
C22 C14 1.481 . S
C22 H19 0.980 . S
C22 H20 0.981 . S
C22 H21 0.981 . S
C23 C10 1.481 . S
C23 H24 0.980 . S
C23 H25 0.981 . S
C23 H26 0.981 . S
H24 C23 0.980 . S
H25 C23 0.981 . S
H26 C23 0.981 . S
O27 Zn3 2.066 . S
O27 C6 1.256 . S
O28 Zn0 2.053 . S
O28 C6 1.244 . S
C29 O7 1.259 . S
C29 O8 1.254 . S
O30 Zn0 2.066 . S
O30 C2 1.256 . S
O31 C2 1.244 . S
O31 Zn3 2.053 . S
Zn32 O33 2.055 . S
Zn32 O40 2.046 . S
Zn32 N48 2.036 . S
Zn32 O60 2.053 . S
Zn32 O62 2.066 . S
O33 Zn32 2.055 . S
O33 C36 1.259 . S
C34 O62 1.256 . S
C34 O63 1.244 . S
Zn35 O37 2.046 . S
Zn35 O39 2.055 . S
Zn35 N41 2.036 . S
Zn35 O59 2.066 . S
Zn35 O63 2.053 . S
C36 O33 1.259 . S
C36 O37 1.254 . S
O37 Zn35 2.046 . S
O37 C36 1.254 . S
C38 O59 1.256 . S
C38 O60 1.244 . S
O39 Zn35 2.055 . S
O39 C61 1.259 . S
O40 Zn32 2.046 . S
O40 C61 1.254 . S
N41 Zn35 2.036 . S
N41 C42 1.298 . S
N41 N44 1.398 . S
C42 N41 1.298 . S
C42 N45 1.367 . S
C42 C55 1.481 . S
C43 N44 1.299 . S
C43 N45 1.379 . S
N44 N41 1.398 . S
N44 C43 1.299 . S
N45 C42 1.367 . S
N45 C43 1.379 . S
C46 N48 1.298 . S
C46 N50 1.367 . S
C46 C54 1.481 . S
C47 N49 1.299 . S
C47 N50 1.379 . S
N48 Zn32 2.036 . S
N48 C46 1.298 . S
N48 N49 1.398 . S
N49 C47 1.299 . S
N49 N48 1.398 . S
N50 C46 1.367 . S
N50 C47 1.379 . S
H51 C54 0.980 . S
H52 C54 0.981 . S
H53 C54 0.981 . S
C54 C46 1.481 . S
C54 H51 0.980 . S
C54 H52 0.981 . S
C54 H53 0.981 . S
C55 C42 1.481 . S
C55 H56 0.980 . S
C55 H57 0.981 . S
C55 H58 0.981 . S
H56 C55 0.980 . S
H57 C55 0.981 . S
H58 C55 0.981 . S
O59 Zn35 2.066 . S
O59 C38 1.256 . S
O60 Zn32 2.053 . S
O60 C38 1.244 . S
C61 O39 1.259 . S
C61 O40 1.254 . S
O62 Zn32 2.066 . S
O62 C34 1.256 . S
O63 C34 1.244 . S
O63 Zn35 2.053 . S
Zn64 O65 2.055 . S
Zn64 O72 2.046 . S
Zn64 N80 2.036 . S
Zn64 O92 2.053 . S
Zn64 O94 2.066 . S
O65 Zn64 2.055 . S
O65 C68 1.259 . S
C66 O94 1.256 . S
C66 O95 1.244 . S
Zn67 O69 2.046 . S
Zn67 O71 2.055 . S
Zn67 N73 2.036 . S
Zn67 O91 2.066 . S
Zn67 O95 2.053 . S
C68 O65 1.259 . S
C68 O69 1.254 . S
O69 Zn67 2.046 . S
O69 C68 1.254 . S
C70 O91 1.256 . S
C70 O92 1.244 . S
O71 Zn67 2.055 . S
O71 C93 1.259 . S
O72 Zn64 2.046 . S
O72 C93 1.254 . S
N73 Zn67 2.036 . S
N73 C74 1.298 . S
N73 N76 1.398 . S
C74 N73 1.298 . S
C74 N77 1.367 . S
C74 C87 1.481 . S
C75 N76 1.299 . S
C75 N77 1.379 . S
N76 N73 1.398 . S
N76 C75 1.299 . S
N77 C74 1.367 . S
N77 C75 1.379 . S
C78 N80 1.298 . S
C78 N82 1.367 . S
C78 C86 1.481 . S
C79 N81 1.299 . S
C79 N82 1.379 . S
N80 Zn64 2.036 . S
N80 C78 1.298 . S
N80 N81 1.398 . S
N81 C79 1.299 . S
N81 N80 1.398 . S
N82 C78 1.367 . S
N82 C79 1.379 . S
H83 C86 0.980 . S
H84 C86 0.981 . S
H85 C86 0.981 . S
C86 C78 1.481 . S
C86 H83 0.980 . S
C86 H84 0.981 . S
C86 H85 0.981 . S
C87 C74 1.481 . S
C87 H88 0.980 . S
C87 H89 0.981 . S
C87 H90 0.981 . S
H88 C87 0.980 . S
H89 C87 0.981 . S
H90 C87 0.981 . S
O91 Zn67 2.066 . S
O91 C70 1.256 . S
O92 Zn64 2.053 . S
O92 C70 1.244 . S
C93 O71 1.259 . S
C93 O72 1.254 . S
O94 Zn64 2.066 . S
O94 C66 1.256 . S
O95 C66 1.244 . S
O95 Zn67 2.053 . S
Zn96 O97 2.055 . S
Zn96 O104 2.046 . S
Zn96 N112 2.036 . S
Zn96 O124 2.053 . S
Zn96 O126 2.066 . S
O97 Zn96 2.055 . S
O97 C100 1.259 . S
C98 O126 1.256 . S
C98 O127 1.244 . S
Zn99 O101 2.046 . S
Zn99 O103 2.055 . S
Zn99 N105 2.036 . S
Zn99 O123 2.066 . S
Zn99 O127 2.053 . S
C100 O97 1.259 . S
C100 O101 1.254 . S
O101 Zn99 2.046 . S
O101 C100 1.254 . S
C102 O123 1.256 . S
C102 O124 1.244 . S
O103 Zn99 2.055 . S
O103 C125 1.259 . S
O104 Zn96 2.046 . S
O104 C125 1.254 . S
N105 Zn99 2.036 . S
N105 C106 1.298 . S
N105 N108 1.398 . S
C106 N105 1.298 . S
C106 N109 1.367 . S
C106 C119 1.481 . S
C107 N108 1.299 . S
C107 N109 1.379 . S
N108 N105 1.398 . S
N108 C107 1.299 . S
N109 C106 1.367 . S
N109 C107 1.379 . S
C110 N112 1.298 . S
C110 N114 1.367 . S
C110 C118 1.481 . S
C111 N113 1.299 . S
C111 N114 1.379 . S
N112 Zn96 2.036 . S
N112 C110 1.298 . S
N112 N113 1.398 . S
N113 C111 1.299 . S
N113 N112 1.398 . S
N114 C110 1.367 . S
N114 C111 1.379 . S
H115 C118 0.980 . S
H116 C118 0.981 . S
H117 C118 0.981 . S
C118 C110 1.481 . S
C118 H115 0.980 . S
C118 H116 0.981 . S
C118 H117 0.981 . S
C119 C106 1.481 . S
C119 H120 0.980 . S
C119 H121 0.981 1_556 S
C119 H122 0.981 1_556 S
H120 C119 0.980 . S
H121 C119 0.981 1_554 S
H122 C119 0.981 1_554 S
O123 Zn99 2.066 . S
O123 C102 1.256 . S
O124 Zn96 2.053 . S
O124 C102 1.244 . S
C125 O103 1.259 . S
C125 O104 1.254 . S
O126 Zn96 2.066 . S
O126 C98 1.256 . S
O127 C98 1.244 . S
O127 Zn99 2.053 . S
Zn128 O129 2.055 . S
Zn128 O136 2.046 . S
Zn128 N144 2.036 . S
Zn128 O156 2.053 . S
Zn128 O158 2.066 . S
O129 Zn128 2.055 . S
O129 C132 1.259 . S
C130 O158 1.256 . S
C130 O159 1.244 . S
Zn131 O133 2.046 . S
Zn131 O135 2.055 . S
Zn131 N137 2.036 . S
Zn131 O155 2.066 . S
Zn131 O159 2.053 . S
C132 O129 1.259 . S
C132 O133 1.254 . S
O133 Zn131 2.046 . S
O133 C132 1.254 . S
C134 O155 1.256 . S
C134 O156 1.244 . S
O135 Zn131 2.055 . S
O135 C157 1.259 . S
O136 Zn128 2.046 . S
O136 C157 1.254 . S
N137 Zn131 2.036 . S
N137 C138 1.298 . S
N137 N140 1.398 . S
C138 N137 1.298 . S
C138 N141 1.367 . S
C138 C151 1.481 . S
C139 N140 1.299 . S
C139 N141 1.379 . S
N140 N137 1.398 . S
N140 C139 1.299 . S
N141 C138 1.367 . S
N141 C139 1.379 . S
C142 N144 1.298 . S
C142 N146 1.367 . S
C142 C150 1.481 . S
C143 N145 1.299 . S
C143 N146 1.379 . S
N144 Zn128 2.036 . S
N144 C142 1.298 . S
N144 N145 1.398 . S
N145 C143 1.299 . S
N145 N144 1.398 . S
N146 C142 1.367 . S
N146 C143 1.379 . S
H147 C150 0.980 . S
H148 C150 0.981 . S
H149 C150 0.981 . S
C150 C142 1.481 . S
C150 H147 0.980 . S
C150 H148 0.981 . S
C150 H149 0.981 . S
C151 C138 1.481 . S
C151 H152 0.980 . S
C151 H153 0.981 . S
C151 H154 0.981 . S
H152 C151 0.980 . S
H153 C151 0.981 . S
H154 C151 0.981 . S
O155 Zn131 2.066 . S
O155 C134 1.256 . S
O156 Zn128 2.053 . S
O156 C134 1.244 . S
C157 O135 1.259 . S
C157 O136 1.254 . S
O158 Zn128 2.066 . S
O158 C130 1.256 . S
O159 C130 1.244 . S
O159 Zn131 2.053 . S
Zn160 O161 2.055 . S
Zn160 O168 2.046 . S
Zn160 N176 2.036 . S
Zn160 O188 2.053 . S
Zn160 O190 2.066 . S
O161 Zn160 2.055 . S
O161 C164 1.259 . S
C162 O190 1.256 . S
C162 O191 1.244 . S
Zn163 O165 2.046 . S
Zn163 O167 2.055 . S
Zn163 N169 2.036 . S
Zn163 O187 2.066 . S
Zn163 O191 2.053 . S
C164 O161 1.259 . S
C164 O165 1.254 . S
O165 Zn163 2.046 . S
O165 C164 1.254 . S
C166 O187 1.256 . S
C166 O188 1.244 . S
O167 Zn163 2.055 . S
O167 C189 1.259 . S
O168 Zn160 2.046 . S
O168 C189 1.254 . S
N169 Zn163 2.036 . S
N169 C170 1.298 . S
N169 N172 1.398 . S
C170 N169 1.298 . S
C170 N173 1.367 . S
C170 C183 1.481 . S
C171 N172 1.299 . S
C171 N173 1.379 . S
N172 N169 1.398 . S
N172 C171 1.299 . S
N173 C170 1.367 . S
N173 C171 1.379 . S
C174 N176 1.298 . S
C174 N178 1.367 . S
C174 C182 1.481 . S
C175 N177 1.299 . S
C175 N178 1.379 . S
N176 Zn160 2.036 . S
N176 C174 1.298 . S
N176 N177 1.398 . S
N177 C175 1.299 . S
N177 N176 1.398 . S
N178 C174 1.367 . S
N178 C175 1.379 . S
H179 C182 0.980 . S
H180 C182 0.981 1_556 S
H181 C182 0.981 1_556 S
C182 C174 1.481 . S
C182 H179 0.980 . S
C182 H180 0.981 1_554 S
C182 H181 0.981 1_554 S
C183 C170 1.481 . S
C183 H184 0.980 . S
C183 H185 0.981 . S
C183 H186 0.981 . S
H184 C183 0.980 . S
H185 C183 0.981 . S
H186 C183 0.981 . S
O187 Zn163 2.066 . S
O187 C166 1.256 . S
O188 Zn160 2.053 . S
O188 C166 1.244 . S
C189 O167 1.259 . S
C189 O168 1.254 . S
O190 Zn160 2.066 . S
O190 C162 1.256 . S
O191 C162 1.244 . S
O191 Zn163 2.053 . S
Zn192 O193 2.055 . S
Zn192 O200 2.046 . S
Zn192 N208 2.036 . S
Zn192 O220 2.053 . S
Zn192 O222 2.066 . S
O193 Zn192 2.055 . S
O193 C196 1.259 . S
C194 O222 1.256 . S
C194 O223 1.244 . S
Zn195 O197 2.046 . S
Zn195 O199 2.055 . S
Zn195 N201 2.036 . S
Zn195 O219 2.066 . S
Zn195 O223 2.053 . S
C196 O193 1.259 . S
C196 O197 1.254 . S
O197 Zn195 2.046 . S
O197 C196 1.254 . S
C198 O219 1.256 . S
C198 O220 1.244 . S
O199 Zn195 2.055 . S
O199 C221 1.259 . S
O200 Zn192 2.046 . S
O200 C221 1.254 . S
N201 Zn195 2.036 . S
N201 C202 1.298 . S
N201 N204 1.398 . S
C202 N201 1.298 . S
C202 N205 1.367 . S
C202 C215 1.481 . S
C203 N204 1.299 . S
C203 N205 1.379 . S
N204 N201 1.398 . S
N204 C203 1.299 . S
N205 C202 1.367 . S
N205 C203 1.379 . S
C206 N208 1.298 . S
C206 N210 1.367 . S
C206 C214 1.481 . S
C207 N209 1.299 . S
C207 N210 1.379 . S
N208 Zn192 2.036 . S
N208 C206 1.298 . S
N208 N209 1.398 . S
N209 C207 1.299 . S
N209 N208 1.398 . S
N210 C206 1.367 . S
N210 C207 1.379 . S
H211 C214 0.980 . S
H212 C214 0.981 . S
H213 C214 0.981 . S
C214 C206 1.481 . S
C214 H211 0.980 . S
C214 H212 0.981 . S
C214 H213 0.981 . S
C215 C202 1.481 . S
C215 H216 0.980 . S
C215 H217 0.981 . S
C215 H218 0.981 . S
H216 C215 0.980 . S
H217 C215 0.981 . S
H218 C215 0.981 . S
O219 Zn195 2.066 . S
O219 C198 1.256 . S
O220 Zn192 2.053 . S
O220 C198 1.244 . S
C221 O199 1.259 . S
C221 O200 1.254 . S
O222 Zn192 2.066 . S
O222 C194 1.256 . S
O223 C194 1.244 . S
O223 Zn195 2.053 . S
Zn224 O225 2.055 . S
Zn224 O232 2.046 . S
Zn224 N240 2.036 . S
Zn224 O252 2.053 . S
Zn224 O254 2.066 . S
O225 Zn224 2.055 . S
O225 C228 1.259 . S
C226 O254 1.256 . S
C226 O255 1.244 . S
Zn227 O229 2.046 . S
Zn227 O231 2.055 . S
Zn227 N233 2.036 . S
Zn227 O251 2.066 . S
Zn227 O255 2.053 . S
C228 O225 1.259 . S
C228 O229 1.254 . S
O229 Zn227 2.046 . S
O229 C228 1.254 . S
C230 O251 1.256 . S
C230 O252 1.244 . S
O231 Zn227 2.055 . S
O231 C253 1.259 . S
O232 Zn224 2.046 . S
O232 C253 1.254 . S
N233 Zn227 2.036 . S
N233 C234 1.298 . S
N233 N236 1.398 . S
C234 N233 1.298 . S
C234 N237 1.367 . S
C234 C247 1.481 . S
C235 N236 1.299 . S
C235 N237 1.379 . S
N236 N233 1.398 . S
N236 C235 1.299 . S
N237 C234 1.367 . S
N237 C235 1.379 . S
C238 N240 1.298 . S
C238 N242 1.367 . S
C238 C246 1.481 . S
C239 N241 1.299 . S
C239 N242 1.379 . S
N240 Zn224 2.036 . S
N240 C238 1.298 . S
N240 N241 1.398 . S
N241 C239 1.299 . S
N241 N240 1.398 . S
N242 C238 1.367 . S
N242 C239 1.379 . S
H243 C246 0.980 . S
H244 C246 0.981 . S
H245 C246 0.981 . S
C246 C238 1.481 . S
C246 H243 0.980 . S
C246 H244 0.981 . S
C246 H245 0.981 . S
C247 C234 1.481 . S
C247 H248 0.980 . S
C247 H249 0.981 . S
C247 H250 0.981 . S
H248 C247 0.980 . S
H249 C247 0.981 . S
H250 C247 0.981 . S
O251 Zn227 2.066 . S
O251 C230 1.256 . S
O252 Zn224 2.053 . S
O252 C230 1.244 . S
C253 O231 1.259 . S
C253 O232 1.254 . S
O254 Zn224 2.066 . S
O254 C226 1.256 . S
O255 C226 1.244 . S
O255 Zn227 2.053 . S
Zn256 O257 2.055 . S
Zn256 O264 2.046 . S
Zn256 N272 2.036 . S
Zn256 O284 2.053 . S
Zn256 O286 2.066 . S
O257 Zn256 2.055 . S
O257 C260 1.259 . S
C258 O286 1.256 . S
C258 O287 1.244 . S
Zn259 O261 2.046 . S
Zn259 O263 2.055 . S
Zn259 N265 2.036 . S
Zn259 O283 2.066 . S
Zn259 O287 2.053 . S
C260 O257 1.259 . S
C260 O261 1.254 . S
O261 Zn259 2.046 . S
O261 C260 1.254 . S
C262 O283 1.256 . S
C262 O284 1.244 . S
O263 Zn259 2.055 . S
O263 C285 1.259 . S
O264 Zn256 2.046 . S
O264 C285 1.254 . S
N265 Zn259 2.036 . S
N265 C266 1.298 . S
N265 N268 1.398 . S
C266 N265 1.298 . S
C266 N269 1.367 . S
C266 C279 1.481 . S
C267 N268 1.299 . S
C267 N269 1.379 . S
N268 N265 1.398 . S
N268 C267 1.299 . S
N269 C266 1.367 . S
N269 C267 1.379 . S
C270 N272 1.298 . S
C270 N274 1.367 1_655 S
C270 C278 1.481 . S
C271 N273 1.299 1_455 S
C271 N274 1.379 . S
N272 Zn256 2.036 . S
N272 C270 1.298 . S
N272 N273 1.398 . S
N273 C271 1.299 1_655 S
N273 N272 1.398 . S
N274 C270 1.367 1_455 S
N274 C271 1.379 . S
H275 C278 0.980 . S
H276 C278 0.956 1_455 S
H277 C278 0.981 . S
C278 C270 1.481 . S
C278 H275 0.980 . S
C278 H276 0.956 1_655 S
C278 H277 0.981 . S
C279 C266 1.481 . S
C279 H280 0.980 . S
C279 H281 0.981 . S
C279 H282 0.981 . S
H280 C279 0.980 . S
H281 C279 0.981 . S
H282 C279 0.981 . S
O283 Zn259 2.066 . S
O283 C262 1.256 . S
O284 Zn256 2.053 . S
O284 C262 1.244 . S
C285 O263 1.259 . S
C285 O264 1.254 . S
O286 Zn256 2.066 . S
O286 C258 1.256 . S
O287 C258 1.244 . S
O287 Zn259 2.053 . S
Zn288 O289 2.055 . S
Zn288 O296 2.046 . S
Zn288 N304 2.036 . S
Zn288 O316 2.053 . S
Zn288 O318 2.066 . S
O289 Zn288 2.055 . S
O289 C292 1.259 . S
C290 O318 1.256 . S
C290 O319 1.244 . S
Zn291 O293 2.046 . S
Zn291 O295 2.055 . S
Zn291 N297 2.036 . S
Zn291 O315 2.066 . S
Zn291 O319 2.053 . S
C292 O289 1.259 . S
C292 O293 1.254 . S
O293 Zn291 2.046 . S
O293 C292 1.254 . S
C294 O315 1.256 . S
C294 O316 1.244 . S
O295 Zn291 2.055 . S
O295 C317 1.259 . S
O296 Zn288 2.046 . S
O296 C317 1.254 . S
N297 Zn291 2.036 . S
N297 C298 1.298 . S
N297 N300 1.398 . S
C298 N297 1.298 . S
C298 N301 1.367 . S
C298 C311 1.481 . S
C299 N300 1.299 . S
C299 N301 1.379 . S
N300 N297 1.398 . S
N300 C299 1.299 . S
N301 C298 1.367 . S
N301 C299 1.379 . S
C302 N304 1.298 . S
C302 N306 1.367 . S
C302 C310 1.481 . S
C303 N305 1.299 . S
C303 N306 1.379 . S
N304 Zn288 2.036 . S
N304 C302 1.298 . S
N304 N305 1.398 . S
N305 C303 1.299 . S
N305 N304 1.398 . S
N306 C302 1.367 . S
N306 C303 1.379 . S
H307 C310 0.980 . S
H308 C310 0.981 1_556 S
H309 C310 0.981 1_556 S
C310 C302 1.481 . S
C310 H307 0.980 . S
C310 H308 0.981 1_554 S
C310 H309 0.981 1_554 S
C311 C298 1.481 . S
C311 H312 0.980 . S
C311 H313 0.981 . S
C311 H314 0.981 . S
H312 C311 0.980 . S
H313 C311 0.981 . S
H314 C311 0.981 . S
O315 Zn291 2.066 . S
O315 C294 1.256 . S
O316 Zn288 2.053 . S
O316 C294 1.244 . S
C317 O295 1.259 . S
C317 O296 1.254 . S
O318 Zn288 2.066 . S
O318 C290 1.256 . S
O319 C290 1.244 . S
O319 Zn291 2.053 . S
Zn320 O321 2.055 . S
Zn320 O328 2.046 . S
Zn320 N336 2.036 . S
Zn320 O348 2.053 . S
Zn320 O350 2.066 . S
O321 Zn320 2.055 . S
O321 C324 1.259 . S
C322 O350 1.256 . S
C322 O351 1.244 . S
Zn323 O325 2.046 . S
Zn323 O327 2.055 . S
Zn323 N329 2.036 . S
Zn323 O347 2.066 . S
Zn323 O351 2.053 . S
C324 O321 1.259 . S
C324 O325 1.254 . S
O325 Zn323 2.046 . S
O325 C324 1.254 . S
C326 O347 1.256 . S
C326 O348 1.244 . S
O327 Zn323 2.055 . S
O327 C349 1.259 . S
O328 Zn320 2.046 . S
O328 C349 1.254 . S
N329 Zn323 2.036 . S
N329 C330 1.298 . S
N329 N332 1.398 . S
C330 N329 1.298 . S
C330 N333 1.367 . S
C330 C343 1.481 . S
C331 N332 1.299 . S
C331 N333 1.379 . S
N332 N329 1.398 . S
N332 C331 1.299 . S
N333 C330 1.367 . S
N333 C331 1.379 . S
C334 N336 1.298 . S
C334 N338 1.367 . S
C334 C342 1.481 . S
C335 N337 1.299 . S
C335 N338 1.379 . S
N336 Zn320 2.036 . S
N336 C334 1.298 . S
N336 N337 1.398 . S
N337 C335 1.299 . S
N337 N336 1.398 . S
N338 C334 1.367 . S
N338 C335 1.379 . S
H339 C342 0.980 . S
H340 C342 0.981 . S
H341 C342 0.981 . S
C342 C334 1.481 . S
C342 H339 0.980 . S
C342 H340 0.981 . S
C342 H341 0.981 . S
C343 C330 1.481 . S
C343 H344 0.980 . S
C343 H345 0.981 1_556 S
C343 H346 0.981 1_556 S
H344 C343 0.980 . S
H345 C343 0.981 1_554 S
H346 C343 0.981 1_554 S
O347 Zn323 2.066 . S
O347 C326 1.256 . S
O348 Zn320 2.053 . S
O348 C326 1.244 . S
C349 O327 1.259 . S
C349 O328 1.254 . S
O350 Zn320 2.066 . S
O350 C322 1.256 . S
O351 C322 1.244 . S
O351 Zn323 2.053 . S
Zn352 O353 2.055 . S
Zn352 O360 2.046 . S
Zn352 N368 2.036 . S
Zn352 O380 2.053 . S
Zn352 O382 2.066 . S
O353 Zn352 2.055 . S
O353 C356 1.259 . S
C354 O382 1.256 . S
C354 O383 1.244 . S
Zn355 O357 2.046 . S
Zn355 O359 2.055 . S
Zn355 N361 2.036 . S
Zn355 O379 2.066 . S
Zn355 O383 2.053 . S
C356 O353 1.259 . S
C356 O357 1.254 . S
O357 Zn355 2.046 . S
O357 C356 1.254 . S
C358 O379 1.256 . S
C358 O380 1.244 . S
O359 Zn355 2.055 . S
O359 C381 1.259 . S
O360 Zn352 2.046 . S
O360 C381 1.254 . S
N361 Zn355 2.036 . S
N361 C362 1.298 . S
N361 N364 1.398 . S
C362 N361 1.298 . S
C362 N365 1.367 1_655 S
C362 C375 1.481 . S
C363 N364 1.299 1_455 S
C363 N365 1.379 . S
N364 N361 1.398 . S
N364 C363 1.299 1_655 S
N365 C362 1.367 1_455 S
N365 C363 1.379 . S
C366 N368 1.298 . S
C366 N370 1.367 . S
C366 C374 1.481 . S
C367 N369 1.299 . S
C367 N370 1.379 . S
N368 Zn352 2.036 . S
N368 C366 1.298 . S
N368 N369 1.398 . S
N369 C367 1.299 . S
N369 N368 1.398 . S
N370 C366 1.367 . S
N370 C367 1.379 . S
H371 C374 0.980 . S
H372 C374 0.981 . S
H373 C374 0.981 . S
C374 C366 1.481 . S
C374 H371 0.980 . S
C374 H372 0.981 . S
C374 H373 0.981 . S
C375 C362 1.481 . S
C375 H376 0.980 . S
C375 H377 0.956 1_655 S
C375 H378 0.981 . S
H376 C375 0.980 . S
H377 C375 0.956 1_455 S
H378 C375 0.981 . S
O379 Zn355 2.066 . S
O379 C358 1.256 . S
O380 Zn352 2.053 . S
O380 C358 1.244 . S
C381 O359 1.259 . S
C381 O360 1.254 . S
O382 Zn352 2.066 . S
O382 C354 1.256 . S
O383 C354 1.244 . S
O383 Zn355 2.053 . S
Zn384 O385 2.055 . S
Zn384 O392 2.046 . S
Zn384 N400 2.036 . S
Zn384 O412 2.053 . S
Zn384 O414 2.066 . S
O385 Zn384 2.055 . S
O385 C388 1.259 . S
C386 O414 1.256 . S
C386 O415 1.244 . S
Zn387 O389 2.046 . S
Zn387 O391 2.055 . S
Zn387 N393 2.036 . S
Zn387 O411 2.066 . S
Zn387 O415 2.053 . S
C388 O385 1.259 . S
C388 O389 1.254 . S
O389 Zn387 2.046 . S
O389 C388 1.254 . S
C390 O411 1.256 . S
C390 O412 1.244 . S
O391 Zn387 2.055 . S
O391 C413 1.259 . S
O392 Zn384 2.046 . S
O392 C413 1.254 . S
N393 Zn387 2.036 . S
N393 C394 1.298 . S
N393 N396 1.398 . S
C394 N393 1.298 . S
C394 N397 1.367 . S
C394 C407 1.481 . S
C395 N396 1.299 . S
C395 N397 1.379 . S
N396 N393 1.398 . S
N396 C395 1.299 . S
N397 C394 1.367 . S
N397 C395 1.379 . S
C398 N400 1.298 . S
C398 N402 1.367 . S
C398 C406 1.481 . S
C399 N401 1.299 . S
C399 N402 1.379 . S
N400 Zn384 2.036 . S
N400 C398 1.298 . S
N400 N401 1.398 . S
N401 C399 1.299 . S
N401 N400 1.398 . S
N402 C398 1.367 . S
N402 C399 1.379 . S
H403 C406 0.980 . S
H404 C406 0.981 . S
H405 C406 0.981 . S
C406 C398 1.481 . S
C406 H403 0.980 . S
C406 H404 0.981 . S
C406 H405 0.981 . S
C407 C394 1.481 . S
C407 H408 0.980 . S
C407 H409 0.981 . S
C407 H410 0.981 . S
H408 C407 0.980 . S
H409 C407 0.981 . S
H410 C407 0.981 . S
O411 Zn387 2.066 . S
O411 C390 1.256 . S
O412 Zn384 2.053 . S
O412 C390 1.244 . S
C413 O391 1.259 . S
C413 O392 1.254 . S
O414 Zn384 2.066 . S
O414 C386 1.256 . S
O415 C386 1.244 . S
O415 Zn387 2.053 . S
Zn416 O417 2.055 . S
Zn416 O424 2.046 . S
Zn416 N432 2.036 . S
Zn416 O444 2.053 . S
Zn416 O446 2.066 . S
O417 Zn416 2.055 . S
O417 C420 1.259 . S
C418 O446 1.256 . S
C418 O447 1.244 . S
Zn419 O421 2.046 . S
Zn419 O423 2.055 . S
Zn419 N425 2.036 . S
Zn419 O443 2.066 . S
Zn419 O447 2.053 . S
C420 O417 1.259 . S
C420 O421 1.254 . S
O421 Zn419 2.046 . S
O421 C420 1.254 . S
C422 O443 1.256 . S
C422 O444 1.244 . S
O423 Zn419 2.055 . S
O423 C445 1.259 . S
O424 Zn416 2.046 . S
O424 C445 1.254 . S
N425 Zn419 2.036 . S
N425 C426 1.298 . S
N425 N428 1.398 . S
C426 N425 1.298 . S
C426 N429 1.367 . S
C426 C439 1.481 . S
C427 N428 1.299 . S
C427 N429 1.379 . S
N428 N425 1.398 . S
N428 C427 1.299 . S
N429 C426 1.367 . S
N429 C427 1.379 . S
C430 N432 1.298 . S
C430 N434 1.367 . S
C430 C438 1.481 . S
C431 N433 1.299 . S
C431 N434 1.379 . S
N432 Zn416 2.036 . S
N432 C430 1.298 . S
N432 N433 1.398 . S
N433 C431 1.299 . S
N433 N432 1.398 . S
N434 C430 1.367 . S
N434 C431 1.379 . S
H435 C438 0.980 . S
H436 C438 0.981 . S
H437 C438 0.981 . S
C438 C430 1.481 . S
C438 H435 0.980 . S
C438 H436 0.981 . S
C438 H437 0.981 . S
C439 C426 1.481 . S
C439 H440 0.980 . S
C439 H441 0.981 . S
C439 H442 0.981 . S
H440 C439 0.980 . S
H441 C439 0.981 . S
H442 C439 0.981 . S
O443 Zn419 2.066 . S
O443 C422 1.256 . S
O444 Zn416 2.053 . S
O444 C422 1.244 . S
C445 O423 1.259 . S
C445 O424 1.254 . S
O446 Zn416 2.066 . S
O446 C418 1.256 . S
O447 C418 1.244 . S
O447 Zn419 2.053 . S
Zn448 O449 2.055 . S
Zn448 O456 2.046 . S
Zn448 N464 2.036 . S
Zn448 O476 2.053 . S
Zn448 O478 2.066 . S
O449 Zn448 2.055 . S
O449 C452 1.259 . S
C450 O478 1.256 . S
C450 O479 1.244 . S
Zn451 O453 2.046 . S
Zn451 O455 2.055 . S
Zn451 N457 2.036 . S
Zn451 O475 2.066 . S
Zn451 O479 2.053 . S
C452 O449 1.259 . S
C452 O453 1.254 . S
O453 Zn451 2.046 . S
O453 C452 1.254 . S
C454 O475 1.256 . S
C454 O476 1.244 . S
O455 Zn451 2.055 . S
O455 C477 1.259 . S
O456 Zn448 2.046 . S
O456 C477 1.254 . S
N457 Zn451 2.036 . S
N457 C458 1.298 . S
N457 N460 1.398 . S
C458 N457 1.298 . S
C458 N461 1.367 . S
C458 C471 1.481 . S
C459 N460 1.299 . S
C459 N461 1.379 . S
N460 N457 1.398 . S
N460 C459 1.299 . S
N461 C458 1.367 . S
N461 C459 1.379 . S
C462 N464 1.298 . S
C462 N466 1.367 . S
C462 C470 1.481 . S
C463 N465 1.299 . S
C463 N466 1.379 . S
N464 Zn448 2.036 . S
N464 C462 1.298 . S
N464 N465 1.398 . S
N465 C463 1.299 . S
N465 N464 1.398 . S
N466 C462 1.367 . S
N466 C463 1.379 . S
H467 C470 0.980 . S
H468 C470 0.981 . S
H469 C470 0.981 . S
C470 C462 1.481 . S
C470 H467 0.980 . S
C470 H468 0.981 . S
C470 H469 0.981 . S
C471 C458 1.481 . S
C471 H472 0.980 . S
C471 H473 0.981 . S
C471 H474 0.981 . S
H472 C471 0.980 . S
H473 C471 0.981 . S
H474 C471 0.981 . S
O475 Zn451 2.066 . S
O475 C454 1.256 . S
O476 Zn448 2.053 . S
O476 C454 1.244 . S
C477 O455 1.259 . S
C477 O456 1.254 . S
O478 Zn448 2.066 . S
O478 C450 1.256 . S
O479 C450 1.244 . S
O479 Zn451 2.053 . S
Zn480 O481 2.055 . S
Zn480 O488 2.046 . S
Zn480 N496 2.036 . S
Zn480 O508 2.053 . S
Zn480 O510 2.066 . S
O481 Zn480 2.055 . S
O481 C484 1.259 . S
C482 O510 1.256 . S
C482 O511 1.244 . S
Zn483 O485 2.046 . S
Zn483 O487 2.055 . S
Zn483 N489 2.036 . S
Zn483 O507 2.066 . S
Zn483 O511 2.053 . S
C484 O481 1.259 . S
C484 O485 1.254 . S
O485 Zn483 2.046 . S
O485 C484 1.254 . S
C486 O507 1.256 . S
C486 O508 1.244 . S
O487 Zn483 2.055 . S
O487 C509 1.259 . S
O488 Zn480 2.046 . S
O488 C509 1.254 . S
N489 Zn483 2.036 . S
N489 C490 1.298 . S
N489 N492 1.398 . S
C490 N489 1.298 . S
C490 N493 1.367 . S
C490 C503 1.481 . S
C491 N492 1.299 . S
C491 N493 1.379 . S
N492 N489 1.398 . S
N492 C491 1.299 . S
N493 C490 1.367 . S
N493 C491 1.379 . S
C494 N496 1.298 . S
C494 N498 1.367 . S
C494 C502 1.481 . S
C495 N497 1.299 . S
C495 N498 1.379 . S
N496 Zn480 2.036 . S
N496 C494 1.298 . S
N496 N497 1.398 . S
N497 C495 1.299 . S
N497 N496 1.398 . S
N498 C494 1.367 . S
N498 C495 1.379 . S
H499 C502 0.980 . S
H500 C502 0.981 . S
H501 C502 0.981 . S
C502 C494 1.481 . S
C502 H499 0.980 . S
C502 H500 0.981 . S
C502 H501 0.981 . S
C503 C490 1.481 . S
C503 H504 0.980 . S
C503 H505 0.981 . S
C503 H506 0.981 . S
H504 C503 0.980 . S
H505 C503 0.981 . S
H506 C503 0.981 . S
O507 Zn483 2.066 . S
O507 C486 1.256 . S
O508 Zn480 2.053 . S
O508 C486 1.244 . S
C509 O487 1.259 . S
C509 O488 1.254 . S
O510 Zn480 2.066 . S
O510 C482 1.256 . S
O511 C482 1.244 . S
O511 Zn483 2.053 . S
H512 C518 0.930 . S
H513 C522 0.930 . S
H514 C527 0.920 1_554 S
H515 C525 0.929 . S
H516 C520 0.929 . S
H517 C526 0.929 . S
C518 H512 0.930 . S
C518 C519 1.367 . S
C518 C526 1.378 . S
C519 C518 1.367 . S
C519 C527 1.436 . S
C520 H516 0.929 . S
C520 C522 1.378 . S
C520 C524 1.350 . S
C521 C524 1.463 . S
C521 C526 1.350 . S
C521 N529 1.427 . S
C522 H513 0.930 . S
C522 C520 1.378 . S
C522 C523 1.367 . S
C523 C522 1.367 . S
C523 C525 1.433 . S
C524 C520 1.350 . S
C524 C521 1.463 . S
C524 N528 1.427 . S
C525 H515 0.929 . S
C525 C523 1.433 . S
C525 N528 1.384 . S
C526 H517 0.929 . S
C526 C518 1.378 . S
C526 C521 1.350 . S
C527 H514 0.920 1_556 S
C527 C519 1.436 . S
C527 N529 1.390 . S
N528 C524 1.427 . S
N528 C525 1.384 . S
N529 C521 1.427 . S
N529 C527 1.390 . S
H530 C536 0.930 . S
H531 C540 0.930 . S
H532 C545 0.929 . S
H533 C543 0.929 . S
H534 C538 0.929 . S
H535 C544 0.929 . S
C536 H530 0.930 . S
C536 C537 1.367 . S
C536 C544 1.378 . S
C537 C536 1.367 . S
C537 C545 1.433 . S
C538 H534 0.929 . S
C538 C540 1.378 . S
C538 C542 1.350 . S
C539 C542 1.463 . S
C539 C544 1.350 . S
C539 N547 1.427 . S
C540 H531 0.930 . S
C540 C538 1.378 . S
C540 C541 1.367 . S
C541 C540 1.367 . S
C541 C543 1.433 . S
C542 C538 1.350 . S
C542 C539 1.463 . S
C542 N546 1.427 . S
C543 H533 0.929 . S
C543 C541 1.433 . S
C543 N546 1.384 . S
C544 H535 0.929 . S
C544 C536 1.378 . S
C544 C539 1.350 . S
C545 H532 0.929 . S
C545 C537 1.433 . S
C545 N547 1.384 . S
N546 C542 1.427 . S
N546 C543 1.384 . S
N547 C539 1.427 . S
N547 C545 1.384 . S
H548 C554 0.930 . S
H549 C558 0.930 . S
H550 C563 0.929 . S
H551 C561 0.929 . S
H552 C556 0.929 . S
H553 C562 0.929 . S
C554 H548 0.930 . S
C554 C555 1.367 . S
C554 C562 1.378 . S
C555 C554 1.367 . S
C555 C563 1.433 . S
C556 H552 0.929 . S
C556 C558 1.378 . S
C556 C560 1.350 . S
C557 C560 1.463 . S
C557 C562 1.350 . S
C557 N565 1.427 . S
C558 H549 0.930 . S
C558 C556 1.378 . S
C558 C559 1.367 . S
C559 C558 1.367 . S
C559 C561 1.433 . S
C560 C556 1.350 . S
C560 C557 1.463 . S
C560 N564 1.427 . S
C561 H551 0.929 . S
C561 C559 1.433 . S
C561 N564 1.384 . S
C562 H553 0.929 . S
C562 C554 1.378 . S
C562 C557 1.350 . S
C563 H550 0.929 . S
C563 C555 1.433 . S
C563 N565 1.384 . S
N564 C560 1.427 . S
N564 C561 1.384 . S
N565 C557 1.427 . S
N565 C563 1.384 . S
H566 C572 0.930 . S
H567 C576 0.930 . S
H568 C581 0.929 . S
H569 C579 0.929 . S
H570 C574 0.929 . S
H571 C580 0.929 . S
C572 H566 0.930 . S
C572 C573 1.367 . S
C572 C580 1.378 . S
C573 C572 1.367 . S
C573 C581 1.433 . S
C574 H570 0.929 . S
C574 C576 1.378 . S
C574 C578 1.350 . S
C575 C578 1.463 . S
C575 C580 1.350 . S
C575 N583 1.427 . S
C576 H567 0.930 . S
C576 C574 1.378 . S
C576 C577 1.367 . S
C577 C576 1.367 . S
C577 C579 1.433 . S
C578 C574 1.350 . S
C578 C575 1.463 . S
C578 N582 1.427 . S
C579 H569 0.929 . S
C579 C577 1.433 . S
C579 N582 1.384 . S
C580 H571 0.929 . S
C580 C572 1.378 . S
C580 C575 1.350 . S
C581 H568 0.929 . S
C581 C573 1.433 . S
C581 N583 1.384 . S
N582 C578 1.427 . S
N582 C579 1.384 . S
N583 C575 1.427 . S
N583 C581 1.384 . S
H584 C590 0.930 . S
H585 C594 0.930 . S
H586 C599 0.929 . S
H587 C597 0.929 1_455 S
H588 C592 0.929 . S
H589 C598 0.929 . S
C590 H584 0.930 . S
C590 C591 1.367 . S
C590 C598 1.378 . S
C591 C590 1.367 . S
C591 C599 1.433 . S
C592 H588 0.929 . S
C592 C594 1.378 1_554 S
C592 C596 1.350 . S
C593 C596 1.463 . S
C593 C598 1.350 . S
C593 N601 1.427 . S
C594 H585 0.930 . S
C594 C592 1.378 1_556 S
C594 C595 1.367 1_556 S
C595 C594 1.367 1_554 S
C595 C597 1.433 . S
C596 C592 1.350 . S
C596 C593 1.463 . S
C596 N600 1.427 . S
C597 H587 0.929 1_655 S
C597 C595 1.433 . S
C597 N600 1.384 . S
C598 H589 0.929 . S
C598 C590 1.378 . S
C598 C593 1.350 . S
C599 H586 0.929 . S
C599 C591 1.433 . S
C599 N601 1.384 . S
N600 C596 1.427 . S
N600 C597 1.384 . S
N601 C593 1.427 . S
N601 C599 1.384 . S
H602 C608 0.930 . S
H603 C612 0.930 . S
H604 C617 0.929 . S
H605 C615 0.929 1_554 S
H606 C610 0.929 . S
H607 C616 0.929 . S
C608 H602 0.930 . S
C608 C609 1.367 . S
C608 C616 1.378 . S
C609 C608 1.367 . S
C609 C617 1.433 . S
C610 H606 0.929 . S
C610 C612 1.378 . S
C610 C614 1.350 . S
C611 C614 1.463 . S
C611 C616 1.350 . S
C611 N619 1.427 . S
C612 H603 0.930 . S
C612 C610 1.378 . S
C612 C613 1.367 . S
C613 C612 1.367 . S
C613 C615 1.433 . S
C614 C610 1.350 . S
C614 C611 1.463 . S
C614 N618 1.427 . S
C615 H605 0.929 1_556 S
C615 C613 1.433 . S
C615 N618 1.384 . S
C616 H607 0.929 . S
C616 C608 1.378 . S
C616 C611 1.350 . S
C617 H604 0.929 . S
C617 C609 1.433 . S
C617 N619 1.384 . S
N618 C614 1.427 . S
N618 C615 1.384 . S
N619 C611 1.427 . S
N619 C617 1.384 . S
H620 C626 0.930 . S
H621 C630 0.930 . S
H622 C635 0.929 . S
H623 C633 0.929 . S
H624 C628 0.929 . S
H625 C634 0.929 . S
C626 H620 0.930 . S
C626 C627 1.367 . S
C626 C634 1.378 . S
C627 C626 1.367 . S
C627 C635 1.433 . S
C628 H624 0.929 . S
C628 C630 1.378 . S
C628 C632 1.350 . S
C629 C632 1.463 . S
C629 C634 1.350 . S
C629 N637 1.427 . S
C630 H621 0.930 . S
C630 C628 1.378 . S
C630 C631 1.367 . S
C631 C630 1.367 . S
C631 C633 1.433 . S
C632 C628 1.350 . S
C632 C629 1.463 . S
C632 N636 1.427 . S
C633 H623 0.929 . S
C633 C631 1.433 . S
C633 N636 1.384 . S
C634 H625 0.929 . S
C634 C626 1.378 . S
C634 C629 1.350 . S
C635 H622 0.929 . S
C635 C627 1.433 . S
C635 N637 1.384 . S
N636 C632 1.427 . S
N636 C633 1.384 . S
N637 C629 1.427 . S
N637 C635 1.384 . S
H638 C644 0.930 . S
H639 C648 0.930 . S
H640 C653 0.929 . S
H641 C651 0.929 . S
H642 C646 0.929 . S
H643 C652 0.929 . S
C644 H638 0.930 . S
C644 C645 1.367 . S
C644 C652 1.378 . S
C645 C644 1.367 . S
C645 C653 1.433 . S
C646 H642 0.929 . S
C646 C648 1.378 . S
C646 C650 1.350 . S
C647 C650 1.463 . S
C647 C652 1.350 . S
C647 N655 1.427 . S
C648 H639 0.930 . S
C648 C646 1.378 . S
C648 C649 1.367 . S
C649 C648 1.367 . S
C649 C651 1.433 . S
C650 C646 1.350 . S
C650 C647 1.463 . S
C650 N654 1.427 . S
C651 H641 0.929 . S
C651 C649 1.433 . S
C651 N654 1.384 . S
C652 H643 0.929 . S
C652 C644 1.378 . S
C652 C647 1.350 . S
C653 H640 0.929 . S
C653 C645 1.433 . S
C653 N655 1.384 . S
N654 C650 1.427 . S
N654 C651 1.384 . S
N655 C647 1.427 . S
N655 C653 1.384 . S
H656 C662 0.930 . S
H657 C666 0.930 . S
H658 C671 0.929 . S
H659 C669 0.929 . S
H660 C664 0.929 . S
H661 C670 0.929 . S
C662 H656 0.930 . S
C662 C663 1.367 . S
C662 C670 1.378 . S
C663 C662 1.367 . S
C663 C671 1.433 . S
C664 H660 0.929 . S
C664 C666 1.378 . S
C664 C668 1.350 . S
C665 C668 1.463 . S
C665 C670 1.350 . S
C665 N673 1.427 . S
C666 H657 0.930 . S
C666 C664 1.378 . S
C666 C667 1.367 . S
C667 C666 1.367 . S
C667 C669 1.433 . S
C668 C664 1.350 . S
C668 C665 1.463 . S
C668 N672 1.427 . S
C669 H659 0.929 . S
C669 C667 1.433 . S
C669 N672 1.384 . S
C670 H661 0.929 . S
C670 C662 1.378 . S
C670 C665 1.350 . S
C671 H658 0.929 . S
C671 C663 1.433 . S
C671 N673 1.384 . S
N672 C668 1.427 . S
N672 C669 1.384 . S
N673 C665 1.427 . S
N673 C671 1.384 . S
H674 C680 0.930 . S
H675 C684 0.930 . S
H676 C689 0.929 . S
H677 C687 0.929 . S
H678 C682 0.929 . S
H679 C688 0.929 . S
C680 H674 0.930 . S
C680 C681 1.367 . S
C680 C688 1.378 . S
C681 C680 1.367 . S
C681 C689 1.433 . S
C682 H678 0.929 . S
C682 C684 1.378 . S
C682 C686 1.350 . S
C683 C686 1.463 . S
C683 C688 1.350 . S
C683 N691 1.427 . S
C684 H675 0.930 . S
C684 C682 1.378 . S
C684 C685 1.367 . S
C685 C684 1.367 . S
C685 C687 1.433 . S
C686 C682 1.350 . S
C686 C683 1.463 . S
C686 N690 1.427 . S
C687 H677 0.929 . S
C687 C685 1.433 . S
C687 N690 1.384 . S
C688 H679 0.929 . S
C688 C680 1.378 . S
C688 C683 1.350 . S
C689 H676 0.929 . S
C689 C681 1.433 . S
C689 N691 1.384 . S
N690 C686 1.427 . S
N690 C687 1.384 . S
N691 C683 1.427 . S
N691 C689 1.384 . S
H692 C698 0.945 . S
H693 C702 0.930 . S
H694 C707 0.929 1_455 S
H695 C705 0.929 . S
H696 C700 0.929 . S
H697 C706 0.929 . S
C698 H692 0.945 . S
C698 C699 1.363 1_554 S
C698 C706 1.367 1_554 S
C699 C698 1.363 1_556 S
C699 C707 1.433 . S
C700 H696 0.929 . S
C700 C702 1.378 . S
C700 C704 1.350 . S
C701 C704 1.463 . S
C701 C706 1.350 . S
C701 N709 1.427 . S
C702 H693 0.930 . S
C702 C700 1.378 . S
C702 C703 1.367 . S
C703 C702 1.367 . S
C703 C705 1.433 . S
C704 C700 1.350 . S
C704 C701 1.463 . S
C704 N708 1.427 . S
C705 H695 0.929 . S
C705 C703 1.433 . S
C705 N708 1.384 . S
C706 H697 0.929 . S
C706 C698 1.367 1_556 S
C706 C701 1.350 . S
C707 H694 0.929 1_655 S
C707 C699 1.433 . S
C707 N709 1.384 . S
N708 C704 1.427 . S
N708 C705 1.384 . S
N709 C701 1.427 . S
N709 C707 1.384 . S
H710 C716 0.930 . S
H711 C720 0.897 1_455 S
H712 C725 0.929 . S
H713 C723 0.929 1_556 S
H714 C718 0.929 . S
H715 C724 0.929 . S
C716 H710 0.930 . S
C716 C717 1.367 . S
C716 C724 1.378 . S
C717 C716 1.367 . S
C717 C725 1.433 . S
C718 H714 0.929 . S
C718 C720 1.395 . S
C718 C722 1.350 . S
C719 C722 1.463 . S
C719 C724 1.350 . S
C719 N727 1.427 . S
C720 H711 0.897 1_655 S
C720 C718 1.395 . S
C720 C721 1.384 . S
C721 C720 1.384 . S
C721 C723 1.433 . S
C722 C718 1.350 . S
C722 C719 1.463 . S
C722 N726 1.427 . S
C723 H713 0.929 1_554 S
C723 C721 1.433 . S
C723 N726 1.384 . S
C724 H715 0.929 . S
C724 C716 1.378 . S
C724 C719 1.350 . S
C725 H712 0.929 . S
C725 C717 1.433 . S
C725 N727 1.384 . S
N726 C722 1.427 . S
N726 C723 1.384 . S
N727 C719 1.427 . S
N727 C725 1.384 . S
H728 C734 0.930 . S
H729 C738 0.930 . S
H730 C743 0.929 . S
H731 C741 0.929 . S
H732 C736 0.929 . S
H733 C742 0.929 . S
C734 H728 0.930 . S
C734 C735 1.367 . S
C734 C742 1.378 . S
C735 C734 1.367 . S
C735 C743 1.433 . S
C736 H732 0.929 . S
C736 C738 1.378 . S
C736 C740 1.350 . S
C737 C740 1.463 . S
C737 C742 1.350 . S
C737 N745 1.427 . S
C738 H729 0.930 . S
C738 C736 1.378 . S
C738 C739 1.367 . S
C739 C738 1.367 . S
C739 C741 1.433 . S
C740 C736 1.350 . S
C740 C737 1.463 . S
C740 N744 1.427 . S
C741 H731 0.929 . S
C741 C739 1.433 . S
C741 N744 1.384 . S
C742 H733 0.929 . S
C742 C734 1.378 . S
C742 C737 1.350 . S
C743 H730 0.929 . S
C743 C735 1.433 . S
C743 N745 1.384 . S
N744 C740 1.427 . S
N744 C741 1.384 . S
N745 C737 1.427 . S
N745 C743 1.384 . S
H746 C752 0.930 . S
H747 C756 0.930 . S
H748 C761 0.929 . S
H749 C759 0.929 . S
H750 C754 0.929 . S
H751 C760 0.929 . S
C752 H746 0.930 . S
C752 C753 1.367 . S
C752 C760 1.378 . S
C753 C752 1.367 . S
C753 C761 1.433 . S
C754 H750 0.929 . S
C754 C756 1.378 . S
C754 C758 1.350 . S
C755 C758 1.463 . S
C755 C760 1.350 . S
C755 N763 1.427 . S
C756 H747 0.930 . S
C756 C754 1.378 . S
C756 C757 1.367 . S
C757 C756 1.367 . S
C757 C759 1.433 . S
C758 C754 1.350 . S
C758 C755 1.463 . S
C758 N762 1.427 . S
C759 H749 0.929 . S
C759 C757 1.433 . S
C759 N762 1.384 . S
C760 H751 0.929 . S
C760 C752 1.378 . S
C760 C755 1.350 . S
C761 H748 0.929 . S
C761 C753 1.433 . S
C761 N763 1.384 . S
N762 C758 1.427 . S
N762 C759 1.384 . S
N763 C755 1.427 . S
N763 C761 1.384 . S
H764 C770 0.930 . S
H765 C774 0.930 . S
H766 C779 0.929 . S
H767 C777 0.929 . S
H768 C772 0.929 . S
H769 C778 0.929 . S
C770 H764 0.930 . S
C770 C771 1.367 . S
C770 C778 1.378 . S
C771 C770 1.367 . S
C771 C779 1.433 . S
C772 H768 0.929 . S
C772 C774 1.378 . S
C772 C776 1.350 . S
C773 C776 1.463 . S
C773 C778 1.350 . S
C773 N781 1.427 . S
C774 H765 0.930 . S
C774 C772 1.378 . S
C774 C775 1.367 . S
C775 C774 1.367 . S
C775 C777 1.433 1_554 S
C776 C772 1.350 . S
C776 C773 1.463 . S
C776 N780 1.427 . S
C777 H767 0.929 . S
C777 C775 1.433 1_556 S
C777 N780 1.384 1_556 S
C778 H769 0.929 . S
C778 C770 1.378 . S
C778 C773 1.350 . S
C779 H766 0.929 . S
C779 C771 1.433 . S
C779 N781 1.384 . S
N780 C776 1.427 . S
N780 C777 1.384 1_554 S
N781 C773 1.427 . S
N781 C779 1.384 . S
H782 C788 0.930 . S
H783 C792 0.930 . S
H784 C797 0.929 . S
H785 C795 0.929 . S
H786 C790 0.929 . S
H787 C796 0.929 . S
C788 H782 0.930 . S
C788 C789 1.367 . S
C788 C796 1.378 . S
C789 C788 1.367 . S
C789 C797 1.433 . S
C790 H786 0.929 . S
C790 C792 1.378 . S
C790 C794 1.350 . S
C791 C794 1.463 . S
C791 C796 1.350 . S
C791 N799 1.427 . S
C792 H783 0.930 . S
C792 C790 1.378 . S
C792 C793 1.367 . S
C793 C792 1.367 . S
C793 C795 1.433 1_556 S
C794 C790 1.350 . S
C794 C791 1.463 . S
C794 N798 1.427 . S
C795 H785 0.929 . S
C795 C793 1.433 1_554 S
C795 N798 1.384 1_554 S
C796 H787 0.929 . S
C796 C788 1.378 . S
C796 C791 1.350 . S
C797 H784 0.929 . S
C797 C789 1.433 . S
C797 N799 1.384 . S
N798 C794 1.427 . S
N798 C795 1.384 1_556 S
N799 C791 1.427 . S
N799 C797 1.384 . S
H800 C806 0.930 . S
H801 C810 0.930 . S
H802 C815 0.929 . S
H803 C813 0.929 . S
H804 C808 0.929 . S
H805 C814 0.930 . S
C806 H800 0.930 . S
C806 C807 1.367 . S
C806 C814 1.378 1_655 S
C807 C806 1.367 . S
C807 C815 1.433 1_655 S
C808 H804 0.929 . S
C808 C810 1.378 . S
C808 C812 1.350 . S
C809 C812 1.463 . S
C809 C814 1.350 . S
C809 N817 1.427 . S
C810 H801 0.930 . S
C810 C808 1.378 . S
C810 C811 1.367 . S
C811 C810 1.367 . S
C811 C813 1.433 . S
C812 C808 1.350 . S
C812 C809 1.463 . S
C812 N816 1.427 . S
C813 H803 0.929 . S
C813 C811 1.433 . S
C813 N816 1.384 . S
C814 H805 0.930 . S
C814 C806 1.378 1_455 S
C814 C809 1.350 . S
C815 H802 0.929 . S
C815 C807 1.433 1_455 S
C815 N817 1.384 . S
N816 C812 1.427 . S
N816 C813 1.384 . S
N817 C809 1.427 . S
N817 C815 1.384 . S
H818 C824 0.930 . S
H819 C828 0.930 . S
H820 C833 0.929 . S
H821 C831 0.929 . S
H822 C826 0.929 . S
H823 C832 0.929 . S
C824 H818 0.930 . S
C824 C825 1.367 . S
C824 C832 1.378 1_655 S
C825 C824 1.367 . S
C825 C833 1.433 1_655 S
C826 H822 0.929 . S
C826 C828 1.378 . S
C826 C830 1.350 . S
C827 C830 1.463 . S
C827 C832 1.350 . S
C827 N835 1.427 . S
C828 H819 0.930 . S
C828 C826 1.378 . S
C828 C829 1.367 . S
C829 C828 1.367 . S
C829 C831 1.433 . S
C830 C826 1.350 . S
C830 C827 1.463 . S
C830 N834 1.427 . S
C831 H821 0.929 . S
C831 C829 1.433 . S
C831 N834 1.384 . S
C832 H823 0.929 . S
C832 C824 1.378 1_455 S
C832 C827 1.350 . S
C833 H820 0.929 . S
C833 C825 1.433 1_455 S
C833 N835 1.384 . S
N834 C830 1.427 . S
N834 C831 1.384 . S
N835 C827 1.427 . S
N835 C833 1.384 . S
H836 C842 0.930 . S
H837 C846 0.930 . S
H838 C851 0.929 . S
H839 C849 0.929 . S
H840 C844 0.929 . S
H841 C850 0.929 . S
C842 H836 0.930 . S
C842 C843 1.367 . S
C842 C850 1.378 . S
C843 C842 1.367 . S
C843 C851 1.433 . S
C844 H840 0.929 . S
C844 C846 1.378 . S
C844 C848 1.350 . S
C845 C848 1.463 . S
C845 C850 1.350 . S
C845 N853 1.427 . S
C846 H837 0.930 . S
C846 C844 1.378 . S
C846 C847 1.367 . S
C847 C846 1.367 . S
C847 C849 1.433 . S
C848 C844 1.350 . S
C848 C845 1.463 . S
C848 N852 1.427 . S
C849 H839 0.929 . S
C849 C847 1.433 . S
C849 N852 1.384 . S
C850 H841 0.929 . S
C850 C842 1.378 . S
C850 C845 1.350 . S
C851 H838 0.929 . S
C851 C843 1.433 . S
C851 N853 1.384 . S
N852 C848 1.427 . S
N852 C849 1.384 . S
N853 C845 1.427 . S
N853 C851 1.384 . S
H854 C860 0.930 . S
H855 C864 0.930 1_554 S
H856 C869 0.929 1_554 S
H857 C867 0.929 . S
H858 C862 0.929 1_554 S
H859 C868 0.929 . S
C860 H854 0.930 . S
C860 C861 1.367 . S
C860 C868 1.378 . S
C861 C860 1.367 . S
C861 C869 1.433 . S
C862 H858 0.929 1_556 S
C862 C864 1.378 . S
C862 C866 1.350 . S
C863 C866 1.463 . S
C863 C868 1.350 . S
C863 N871 1.427 . S
C864 H855 0.930 1_556 S
C864 C862 1.378 . S
C864 C865 1.367 . S
C865 C864 1.367 . S
C865 C867 1.433 . S
C866 C862 1.350 . S
C866 C863 1.463 . S
C866 N870 1.427 . S
C867 H857 0.929 . S
C867 C865 1.433 . S
C867 N870 1.384 . S
C868 H859 0.929 . S
C868 C860 1.378 . S
C868 C863 1.350 . S
C869 H856 0.929 1_556 S
C869 C861 1.433 . S
C869 N871 1.384 . S
N870 C866 1.427 . S
N870 C867 1.384 . S
N871 C863 1.427 . S
N871 C869 1.384 . S
H872 C878 0.930 . S
H873 C882 0.930 . S
H874 C887 0.929 . S
H875 C885 0.929 . S
H876 C880 0.929 . S
H877 C886 0.929 . S
C878 H872 0.930 . S
C878 C879 1.367 . S
C878 C886 1.378 . S
C879 C878 1.367 . S
C879 C887 1.433 . S
C880 H876 0.929 . S
C880 C882 1.378 1_455 S
C880 C884 1.350 . S
C881 C884 1.463 . S
C881 C886 1.350 . S
C881 N889 1.427 . S
C882 H873 0.930 . S
C882 C880 1.378 1_655 S
C882 C883 1.367 . S
C883 C882 1.367 . S
C883 C885 1.433 1_655 S
C884 C880 1.350 . S
C884 C881 1.463 . S
C884 N888 1.427 . S
C885 H875 0.929 . S
C885 C883 1.433 1_455 S
C885 N888 1.384 . S
C886 H877 0.929 . S
C886 C878 1.378 . S
C886 C881 1.350 . S
C887 H874 0.929 . S
C887 C879 1.433 . S
C887 N889 1.384 . S
N888 C884 1.427 . S
N888 C885 1.384 . S
N889 C881 1.427 . S
N889 C887 1.384 . S
H890 C896 0.930 . S
H891 C900 0.930 . S
H892 C905 0.929 . S
H893 C903 0.929 . S
H894 C898 0.929 . S
H895 C904 0.929 . S
C896 H890 0.930 . S
C896 C897 1.367 . S
C896 C904 1.378 . S
C897 C896 1.367 . S
C897 C905 1.433 . S
C898 H894 0.929 . S
C898 C900 1.378 . S
C898 C902 1.350 . S
C899 C902 1.463 . S
C899 C904 1.350 . S
C899 N907 1.427 . S
C900 H891 0.930 . S
C900 C898 1.378 . S
C900 C901 1.367 . S
C901 C900 1.367 . S
C901 C903 1.433 . S
C902 C898 1.350 . S
C902 C899 1.463 . S
C902 N906 1.427 . S
C903 H893 0.929 . S
C903 C901 1.433 . S
C903 N906 1.384 . S
C904 H895 0.929 . S
C904 C896 1.378 . S
C904 C899 1.350 . S
C905 H892 0.929 . S
C905 C897 1.433 . S
C905 N907 1.384 . S
N906 C902 1.427 . S
N906 C903 1.384 . S
N907 C899 1.427 . S
N907 C905 1.384 . S
H908 C914 0.930 . S
H909 C918 0.930 . S
H910 C923 0.929 . S
H911 C921 0.929 . S
H912 C916 0.929 . S
H913 C922 0.929 . S
C914 H908 0.930 . S
C914 C915 1.367 . S
C914 C922 1.378 . S
C915 C914 1.367 . S
C915 C923 1.433 . S
C916 H912 0.929 . S
C916 C918 1.378 . S
C916 C920 1.350 . S
C917 C920 1.463 . S
C917 C922 1.350 . S
C917 N925 1.427 . S
C918 H909 0.930 . S
C918 C916 1.378 . S
C918 C919 1.367 . S
C919 C918 1.367 . S
C919 C921 1.433 . S
C920 C916 1.350 . S
C920 C917 1.463 . S
C920 N924 1.427 . S
C921 H911 0.929 . S
C921 C919 1.433 . S
C921 N924 1.384 . S
C922 H913 0.929 . S
C922 C914 1.378 . S
C922 C917 1.350 . S
C923 H910 0.929 . S
C923 C915 1.433 . S
C923 N925 1.384 . S
N924 C920 1.427 . S
N924 C921 1.384 . S
N925 C917 1.427 . S
N925 C923 1.384 . S
H926 C932 0.930 . S
H927 C936 0.930 . S
H928 C941 0.929 . S
H929 C939 0.929 . S
H930 C934 0.929 . S
H931 C940 0.929 . S
C932 H926 0.930 . S
C932 C933 1.367 . S
C932 C940 1.378 . S
C933 C932 1.367 . S
C933 C941 1.433 . S
C934 H930 0.929 . S
C934 C936 1.378 1_455 S
C934 C938 1.350 . S
C935 C938 1.463 . S
C935 C940 1.350 . S
C935 N943 1.427 . S
C936 H927 0.930 . S
C936 C934 1.378 1_655 S
C936 C937 1.367 . S
C937 C936 1.367 . S
C937 C939 1.433 1_655 S
C938 C934 1.350 . S
C938 C935 1.463 . S
C938 N942 1.427 . S
C939 H929 0.929 . S
C939 C937 1.433 1_455 S
C939 N942 1.384 . S
C940 H931 0.929 . S
C940 C932 1.378 . S
C940 C935 1.350 . S
C941 H928 0.929 . S
C941 C933 1.433 . S
C941 N943 1.384 . S
N942 C938 1.427 . S
N942 C939 1.384 . S
N943 C935 1.427 . S
N943 C941 1.384 . S
H944 C950 0.930 . S
H945 C954 0.930 . S
H946 C959 0.929 . S
H947 C957 0.929 . S
H948 C952 0.927 . S
H949 C958 0.927 . S
C950 H944 0.930 . S
C950 C951 1.367 . S
C950 C958 1.378 . S
C951 C950 1.367 . S
C951 C959 1.433 . S
C952 H948 0.927 . S
C952 C954 1.378 . S
C952 C956 1.350 . S
C953 C956 1.463 1_544 S
C953 C958 1.350 . S
C953 N961 1.427 1_554 S
C954 H945 0.930 . S
C954 C952 1.378 . S
C954 C955 1.367 . S
C955 C954 1.367 . S
C955 C957 1.433 . S
C956 C952 1.350 . S
C956 C953 1.463 1_566 S
C956 N960 1.427 1_556 S
C957 H947 0.929 . S
C957 C955 1.433 . S
C957 N960 1.384 1_556 S
C958 H949 0.927 . S
C958 C950 1.378 . S
C958 C953 1.350 . S
C959 H946 0.929 . S
C959 C951 1.433 . S
C959 N961 1.384 1_554 S
N960 C956 1.427 1_554 S
N960 C957 1.384 1_554 S
N961 C953 1.427 1_556 S
N961 C959 1.384 1_556 S
H962 C968 0.930 . S
H963 C972 0.930 . S
H964 C977 0.929 . S
H965 C975 0.929 . S
H966 C970 0.929 . S
H967 C976 0.929 . S
C968 H962 0.930 . S
C968 C969 1.367 . S
C968 C976 1.378 . S
C969 C968 1.367 . S
C969 C977 1.433 . S
C970 H966 0.929 . S
C970 C972 1.378 . S
C970 C974 1.350 . S
C971 C974 1.463 . S
C971 C976 1.350 . S
C971 N979 1.427 . S
C972 H963 0.930 . S
C972 C970 1.378 . S
C972 C973 1.367 . S
C973 C972 1.367 . S
C973 C975 1.433 . S
C974 C970 1.350 . S
C974 C971 1.463 . S
C974 N978 1.427 . S
C975 H965 0.929 . S
C975 C973 1.433 . S
C975 N978 1.384 . S
C976 H967 0.929 . S
C976 C968 1.378 . S
C976 C971 1.350 . S
C977 H964 0.929 . S
C977 C969 1.433 . S
C977 N979 1.384 . S
N978 C974 1.427 . S
N978 C975 1.384 . S
N979 C971 1.427 . S
N979 C977 1.384 . S
H980 C986 0.930 . S
H981 C990 0.930 . S
H982 C995 0.929 . S
H983 C993 0.929 . S
H984 C988 0.929 . S
H985 C994 0.929 . S
C986 H980 0.930 . S
C986 C987 1.367 . S
C986 C994 1.378 . S
C987 C986 1.367 . S
C987 C995 1.433 . S
C988 H984 0.929 . S
C988 C990 1.378 . S
C988 C992 1.350 . S
C989 C992 1.463 1_545 S
C989 C994 1.350 . S
C989 N997 1.427 . S
C990 H981 0.930 . S
C990 C988 1.378 . S
C990 C991 1.367 . S
C991 C990 1.367 . S
C991 C993 1.433 . S
C992 C988 1.350 . S
C992 C989 1.463 1_565 S
C992 N996 1.427 . S
C993 H983 0.929 . S
C993 C991 1.433 . S
C993 N996 1.384 . S
C994 H985 0.929 . S
C994 C986 1.378 . S
C994 C989 1.350 . S
C995 H982 0.929 . S
C995 C987 1.433 . S
C995 N997 1.384 . S
N996 C992 1.427 . S
N996 C993 1.384 . S
N997 C989 1.427 . S
N997 C995 1.384 . S
H998 C1004 0.930 . S
H999 C1008 0.930 . S
H1000 C1013 0.929 . S
H1001 C1011 0.929 . S
H1002 C1006 0.929 . S
H1003 C1012 0.929 . S
C1004 H998 0.930 . S
C1004 C1005 1.367 . S
C1004 C1012 1.378 . S
C1005 C1004 1.367 . S
C1005 C1013 1.433 . S
C1006 H1002 0.929 . S
C1006 C1008 1.378 . S
C1006 C1010 1.350 . S
C1007 C1010 1.463 . S
C1007 C1012 1.350 . S
C1007 N1015 1.427 . S
C1008 H999 0.930 . S
C1008 C1006 1.378 . S
C1008 C1009 1.367 . S
C1009 C1008 1.367 . S
C1009 C1011 1.433 . S
C1010 C1006 1.350 . S
C1010 C1007 1.463 . S
C1010 N1014 1.427 . S
C1011 H1001 0.929 . S
C1011 C1009 1.433 . S
C1011 N1014 1.384 . S
C1012 H1003 0.929 . S
C1012 C1004 1.378 . S
C1012 C1007 1.350 . S
C1013 H1000 0.929 . S
C1013 C1005 1.433 . S
C1013 N1015 1.384 . S
N1014 C1010 1.427 . S
N1014 C1011 1.384 . S
N1015 C1007 1.427 . S
N1015 C1013 1.384 . S
H1016 C1022 0.930 . S
H1017 C1026 0.930 . S
H1018 C1031 0.929 . S
H1019 C1029 0.929 . S
H1020 C1024 0.929 . S
H1021 C1030 0.929 . S
C1022 H1016 0.930 . S
C1022 C1023 1.367 . S
C1022 C1030 1.378 . S
C1023 C1022 1.367 . S
C1023 C1031 1.433 . S
C1024 H1020 0.929 . S
C1024 C1026 1.378 . S
C1024 C1028 1.350 . S
C1025 C1028 1.463 . S
C1025 C1030 1.350 . S
C1025 N1033 1.427 . S
C1026 H1017 0.930 . S
C1026 C1024 1.378 . S
C1026 C1027 1.367 . S
C1027 C1026 1.367 . S
C1027 C1029 1.433 . S
C1028 C1024 1.350 . S
C1028 C1025 1.463 . S
C1028 N1032 1.427 . S
C1029 H1019 0.929 . S
C1029 C1027 1.433 . S
C1029 N1032 1.384 . S
C1030 H1021 0.929 . S
C1030 C1022 1.378 . S
C1030 C1025 1.350 . S
C1031 H1018 0.929 . S
C1031 C1023 1.433 . S
C1031 N1033 1.384 . S
N1032 C1028 1.427 . S
N1032 C1029 1.384 . S
N1033 C1025 1.427 . S
N1033 C1031 1.384 . S
H1034 C1040 0.930 . S
H1035 C1044 0.930 . S
H1036 C1049 0.929 . S
H1037 C1047 0.929 . S
H1038 C1042 0.929 . S
H1039 C1048 0.929 . S
C1040 H1034 0.930 . S
C1040 C1041 1.367 . S
C1040 C1048 1.378 . S
C1041 C1040 1.367 . S
C1041 C1049 1.433 . S
C1042 H1038 0.929 . S
C1042 C1044 1.378 . S
C1042 C1046 1.350 . S
C1043 C1046 1.463 . S
C1043 C1048 1.350 . S
C1043 N1051 1.427 . S
C1044 H1035 0.930 . S
C1044 C1042 1.378 . S
C1044 C1045 1.367 . S
C1045 C1044 1.367 . S
C1045 C1047 1.433 . S
C1046 C1042 1.350 . S
C1046 C1043 1.463 . S
C1046 N1050 1.427 . S
C1047 H1037 0.929 . S
C1047 C1045 1.433 . S
C1047 N1050 1.384 . S
C1048 H1039 0.929 . S
C1048 C1040 1.378 . S
C1048 C1043 1.350 . S
C1049 H1036 0.929 . S
C1049 C1041 1.433 . S
C1049 N1051 1.384 . S
N1050 C1046 1.427 . S
N1050 C1047 1.384 . S
N1051 C1043 1.427 . S
N1051 C1049 1.384 . S
H1052 C1058 0.930 . S
H1053 C1062 0.930 . S
H1054 C1067 0.929 . S
H1055 C1065 0.929 . S
H1056 C1060 0.929 . S
H1057 C1066 0.929 . S
C1058 H1052 0.930 . S
C1058 C1059 1.367 . S
C1058 C1066 1.378 . S
C1059 C1058 1.367 . S
C1059 C1067 1.433 . S
C1060 H1056 0.929 . S
C1060 C1062 1.378 . S
C1060 C1064 1.350 . S
C1061 C1064 1.463 . S
C1061 C1066 1.350 . S
C1061 N1069 1.427 . S
C1062 H1053 0.930 . S
C1062 C1060 1.378 . S
C1062 C1063 1.367 . S
C1063 C1062 1.367 . S
C1063 C1065 1.433 . S
C1064 C1060 1.350 . S
C1064 C1061 1.463 . S
C1064 N1068 1.427 . S
C1065 H1055 0.929 . S
C1065 C1063 1.433 . S
C1065 N1068 1.384 . S
C1066 H1057 0.929 . S
C1066 C1058 1.378 . S
C1066 C1061 1.350 . S
C1067 H1054 0.929 . S
C1067 C1059 1.433 . S
C1067 N1069 1.384 . S
N1068 C1064 1.427 . S
N1068 C1065 1.384 . S
N1069 C1061 1.427 . S
N1069 C1067 1.384 . S
H1070 C1076 0.930 . S
H1071 C1080 0.930 . S
H1072 C1085 0.929 . S
H1073 C1083 0.929 . S
H1074 C1078 0.929 . S
H1075 C1084 0.929 . S
C1076 H1070 0.930 . S
C1076 C1077 1.367 . S
C1076 C1084 1.378 . S
C1077 C1076 1.367 . S
C1077 C1085 1.433 . S
C1078 H1074 0.929 . S
C1078 C1080 1.378 . S
C1078 C1082 1.350 . S
C1079 C1082 1.463 1_556 S
C1079 C1084 1.350 . S
C1079 N1087 1.427 1_556 S
C1080 H1071 0.930 . S
C1080 C1078 1.378 . S
C1080 C1081 1.367 . S
C1081 C1080 1.367 . S
C1081 C1083 1.433 . S
C1082 C1078 1.350 . S
C1082 C1079 1.463 1_554 S
C1082 N1086 1.427 1_554 S
C1083 H1073 0.929 . S
C1083 C1081 1.433 . S
C1083 N1086 1.384 1_554 S
C1084 H1075 0.929 . S
C1084 C1076 1.378 . S
C1084 C1079 1.350 . S
C1085 H1072 0.929 . S
C1085 C1077 1.433 . S
C1085 N1087 1.384 1_556 S
N1086 C1082 1.427 1_556 S
N1086 C1083 1.384 1_556 S
N1087 C1079 1.427 1_554 S
N1087 C1085 1.384 1_554 S
H1088 C1094 0.930 . S
H1089 C1098 0.930 . S
H1090 C1103 0.929 . S
H1091 C1101 0.929 . S
H1092 C1096 0.929 . S
H1093 C1102 0.929 . S
C1094 H1088 0.930 . S
C1094 C1095 1.367 . S
C1094 C1102 1.378 . S
C1095 C1094 1.367 . S
C1095 C1103 1.433 . S
C1096 H1092 0.929 . S
C1096 C1098 1.378 . S
C1096 C1100 1.350 . S
C1097 C1100 1.463 . S
C1097 C1102 1.350 . S
C1097 N1105 1.427 . S
C1098 H1089 0.930 . S
C1098 C1096 1.378 . S
C1098 C1099 1.367 . S
C1099 C1098 1.367 . S
C1099 C1101 1.433 . S
C1100 C1096 1.350 . S
C1100 C1097 1.463 . S
C1100 N1104 1.427 . S
C1101 H1091 0.929 . S
C1101 C1099 1.433 . S
C1101 N1104 1.384 . S
C1102 H1093 0.929 . S
C1102 C1094 1.378 . S
C1102 C1097 1.350 . S
C1103 H1090 0.929 . S
C1103 C1095 1.433 . S
C1103 N1105 1.384 . S
N1104 C1100 1.427 . S
N1104 C1101 1.384 . S
N1105 C1097 1.427 . S
N1105 C1103 1.384 . S
H1106 C1112 0.930 . S
H1107 C1116 0.930 . S
H1108 C1121 0.929 . S
H1109 C1119 0.929 . S
H1110 C1114 0.929 . S
H1111 C1120 0.929 . S
C1112 H1106 0.930 . S
C1112 C1113 1.367 . S
C1112 C1120 1.378 . S
C1113 C1112 1.367 . S
C1113 C1121 1.433 . S
C1114 H1110 0.929 . S
C1114 C1116 1.378 . S
C1114 C1118 1.350 . S
C1115 C1118 1.463 . S
C1115 C1120 1.350 . S
C1115 N1123 1.427 . S
C1116 H1107 0.930 . S
C1116 C1114 1.378 . S
C1116 C1117 1.367 . S
C1117 C1116 1.367 . S
C1117 C1119 1.433 . S
C1118 C1114 1.350 . S
C1118 C1115 1.463 . S
C1118 N1122 1.427 . S
C1119 H1109 0.929 . S
C1119 C1117 1.433 . S
C1119 N1122 1.384 . S
C1120 H1111 0.929 . S
C1120 C1112 1.378 . S
C1120 C1115 1.350 . S
C1121 H1108 0.929 . S
C1121 C1113 1.433 . S
C1121 N1123 1.384 . S
N1122 C1118 1.427 . S
N1122 C1119 1.384 . S
N1123 C1115 1.427 . S
N1123 C1121 1.384 . S
H1124 C1130 0.930 . S
H1125 C1134 0.930 . S
H1126 C1139 0.929 1_554 S
H1127 C1137 0.929 . S
H1128 C1132 0.929 . S
H1129 C1138 0.929 . S
C1130 H1124 0.930 . S
C1130 C1131 1.367 . S
C1130 C1138 1.378 . S
C1131 C1130 1.367 . S
C1131 C1139 1.433 . S
C1132 H1128 0.929 . S
C1132 C1134 1.378 . S
C1132 C1136 1.350 . S
C1133 C1136 1.463 . S
C1133 C1138 1.350 . S
C1133 N1141 1.427 . S
C1134 H1125 0.930 . S
C1134 C1132 1.378 . S
C1134 C1135 1.367 . S
C1135 C1134 1.367 . S
C1135 C1137 1.433 . S
C1136 C1132 1.350 . S
C1136 C1133 1.463 . S
C1136 N1140 1.427 . S
C1137 H1127 0.929 . S
C1137 C1135 1.433 . S
C1137 N1140 1.384 . S
C1138 H1129 0.929 . S
C1138 C1130 1.378 . S
C1138 C1133 1.350 . S
C1139 H1126 0.929 1_556 S
C1139 C1131 1.433 . S
C1139 N1141 1.384 . S
N1140 C1136 1.427 . S
N1140 C1137 1.384 . S
N1141 C1133 1.427 . S
N1141 C1139 1.384 . S
H1142 C1148 0.930 . S
H1143 C1152 0.930 1_556 S
H1144 C1157 0.929 . S
H1145 C1155 0.929 . S
H1146 C1150 0.929 . S
H1147 C1156 0.929 . S
C1148 H1142 0.930 . S
C1148 C1149 1.367 . S
C1148 C1156 1.378 . S
C1149 C1148 1.367 . S
C1149 C1157 1.433 . S
C1150 H1146 0.929 . S
C1150 C1152 1.378 . S
C1150 C1154 1.350 . S
C1151 C1154 1.463 . S
C1151 C1156 1.350 . S
C1151 N1159 1.427 . S
C1152 H1143 0.930 1_554 S
C1152 C1150 1.378 . S
C1152 C1153 1.367 . S
C1153 C1152 1.367 . S
C1153 C1155 1.433 . S
C1154 C1150 1.350 . S
C1154 C1151 1.463 . S
C1154 N1158 1.427 . S
C1155 H1145 0.929 . S
C1155 C1153 1.433 . S
C1155 N1158 1.384 . S
C1156 H1147 0.929 . S
C1156 C1148 1.378 . S
C1156 C1151 1.350 . S
C1157 H1144 0.929 . S
C1157 C1149 1.433 . S
C1157 N1159 1.384 . S
N1158 C1154 1.427 . S
N1158 C1155 1.384 . S
N1159 C1151 1.427 . S
N1159 C1157 1.384 . S
H1160 C1166 0.930 . S
H1161 C1170 0.930 . S
H1162 C1175 0.929 . S
H1163 C1173 0.923 . S
H1164 C1168 0.929 . S
H1165 C1174 0.929 . S
C1166 H1160 0.930 . S
C1166 C1167 1.367 . S
C1166 C1174 1.378 . S
C1167 C1166 1.367 . S
C1167 C1175 1.433 . S
C1168 H1164 0.929 . S
C1168 C1170 1.378 . S
C1168 C1172 1.350 . S
C1169 C1172 1.463 . S
C1169 C1174 1.350 . S
C1169 N1177 1.427 . S
C1170 H1161 0.930 . S
C1170 C1168 1.378 . S
C1170 C1171 1.367 . S
C1171 C1170 1.367 . S
C1171 C1173 1.436 1_655 S
C1172 C1168 1.350 . S
C1172 C1169 1.463 . S
C1172 N1176 1.427 . S
C1173 H1163 0.923 . S
C1173 C1171 1.436 1_455 S
C1173 N1176 1.387 1_455 S
C1174 H1165 0.929 . S
C1174 C1166 1.378 . S
C1174 C1169 1.350 . S
C1175 H1162 0.929 . S
C1175 C1167 1.433 . S
C1175 N1177 1.384 . S
N1176 C1172 1.427 . S
N1176 C1173 1.387 1_655 S
N1177 C1169 1.427 . S
N1177 C1175 1.384 . S
H1178 C1184 0.930 . S
H1179 C1188 0.930 . S
H1180 C1193 0.929 . S
H1181 C1191 0.909 1_455 S
H1182 C1186 0.929 . S
H1183 C1192 0.929 . S
C1184 H1178 0.930 . S
C1184 C1185 1.367 . S
C1184 C1192 1.378 . S
C1185 C1184 1.367 . S
C1185 C1193 1.433 . S
C1186 H1182 0.929 . S
C1186 C1188 1.378 . S
C1186 C1190 1.350 . S
C1187 C1190 1.463 . S
C1187 C1192 1.350 . S
C1187 N1195 1.427 . S
C1188 H1179 0.930 . S
C1188 C1186 1.378 . S
C1188 C1189 1.367 . S
C1189 C1188 1.367 . S
C1189 C1191 1.433 . S
C1190 C1186 1.350 . S
C1190 C1187 1.463 . S
C1190 N1194 1.427 . S
C1191 H1181 0.909 1_655 S
C1191 C1189 1.433 . S
C1191 N1194 1.384 . S
C1192 H1183 0.929 . S
C1192 C1184 1.378 . S
C1192 C1187 1.350 . S
C1193 H1180 0.929 . S
C1193 C1185 1.433 . S
C1193 N1195 1.384 . S
N1194 C1190 1.427 . S
N1194 C1191 1.384 . S
N1195 C1187 1.427 . S
N1195 C1193 1.384 . S
H1196 C1202 0.930 . S
H1197 C1206 0.930 . S
H1198 C1211 0.929 . S
H1199 C1209 0.929 . S
H1200 C1204 0.929 . S
H1201 C1210 0.929 . S
C1202 H1196 0.930 . S
C1202 C1203 1.367 . S
C1202 C1210 1.378 . S
C1203 C1202 1.367 . S
C1203 C1211 1.433 . S
C1204 H1200 0.929 . S
C1204 C1206 1.378 . S
C1204 C1208 1.350 . S
C1205 C1208 1.463 . S
C1205 C1210 1.350 . S
C1205 N1213 1.427 . S
C1206 H1197 0.930 . S
C1206 C1204 1.378 . S
C1206 C1207 1.367 . S
C1207 C1206 1.367 . S
C1207 C1209 1.433 . S
C1208 C1204 1.350 . S
C1208 C1205 1.463 . S
C1208 N1212 1.427 . S
C1209 H1199 0.929 . S
C1209 C1207 1.433 . S
C1209 N1212 1.384 . S
C1210 H1201 0.929 . S
C1210 C1202 1.378 . S
C1210 C1205 1.350 . S
C1211 H1198 0.929 . S
C1211 C1203 1.433 . S
C1211 N1213 1.384 . S
N1212 C1208 1.427 . S
N1212 C1209 1.384 . S
N1213 C1205 1.427 . S
N1213 C1211 1.384 . S
H1214 C1220 0.930 . S
H1215 C1224 0.930 . S
H1216 C1229 0.929 . S
H1217 C1227 0.929 1_554 S
H1218 C1222 0.929 . S
H1219 C1228 0.929 . S
C1220 H1214 0.930 . S
C1220 C1221 1.367 . S
C1220 C1228 1.378 . S
C1221 C1220 1.367 . S
C1221 C1229 1.433 . S
C1222 H1218 0.929 . S
C1222 C1224 1.378 . S
C1222 C1226 1.350 . S
C1223 C1226 1.463 . S
C1223 C1228 1.350 . S
C1223 N1231 1.427 . S
C1224 H1215 0.930 . S
C1224 C1222 1.378 . S
C1224 C1225 1.367 . S
C1225 C1224 1.367 . S
C1225 C1227 1.433 . S
C1226 C1222 1.350 . S
C1226 C1223 1.463 . S
C1226 N1230 1.427 . S
C1227 H1217 0.929 1_556 S
C1227 C1225 1.433 . S
C1227 N1230 1.384 . S
C1228 H1219 0.929 . S
C1228 C1220 1.378 . S
C1228 C1223 1.350 . S
C1229 H1216 0.929 . S
C1229 C1221 1.433 . S
C1229 N1231 1.384 . S
N1230 C1226 1.427 . S
N1230 C1227 1.384 . S
N1231 C1223 1.427 . S
N1231 C1229 1.384 . S
H1232 C1238 0.930 . S
H1233 C1242 0.930 1_554 S
H1234 C1247 0.929 . S
H1235 C1245 0.929 . S
H1236 C1240 0.929 . S
H1237 C1246 0.929 . S
C1238 H1232 0.930 . S
C1238 C1239 1.367 . S
C1238 C1246 1.378 . S
C1239 C1238 1.367 . S
C1239 C1247 1.433 . S
C1240 H1236 0.929 . S
C1240 C1242 1.378 . S
C1240 C1244 1.350 . S
C1241 C1244 1.463 . S
C1241 C1246 1.350 . S
C1241 N1249 1.427 . S
C1242 H1233 0.930 1_556 S
C1242 C1240 1.378 . S
C1242 C1243 1.367 . S
C1243 C1242 1.367 . S
C1243 C1245 1.433 . S
C1244 C1240 1.350 . S
C1244 C1241 1.463 . S
C1244 N1248 1.427 . S
C1245 H1235 0.929 . S
C1245 C1243 1.433 . S
C1245 N1248 1.384 . S
C1246 H1237 0.929 . S
C1246 C1238 1.378 . S
C1246 C1241 1.350 . S
C1247 H1234 0.929 . S
C1247 C1239 1.433 . S
C1247 N1249 1.384 . S
N1248 C1244 1.427 . S
N1248 C1245 1.384 . S
N1249 C1241 1.427 . S
N1249 C1247 1.384 . S
H1250 C1256 0.930 . S
H1251 C1260 0.930 1_556 S
H1252 C1265 0.929 . S
H1253 C1263 0.929 . S
H1254 C1258 0.929 . S
H1255 C1264 0.929 . S
C1256 H1250 0.930 . S
C1256 C1257 1.367 . S
C1256 C1264 1.378 . S
C1257 C1256 1.367 . S
C1257 C1265 1.433 . S
C1258 H1254 0.929 . S
C1258 C1260 1.378 . S
C1258 C1262 1.350 . S
C1259 C1262 1.463 . S
C1259 C1264 1.350 . S
C1259 N1267 1.427 . S
C1260 H1251 0.930 1_554 S
C1260 C1258 1.378 . S
C1260 C1261 1.367 . S
C1261 C1260 1.367 . S
C1261 C1263 1.433 . S
C1262 C1258 1.350 . S
C1262 C1259 1.463 . S
C1262 N1266 1.427 . S
C1263 H1253 0.929 . S
C1263 C1261 1.433 . S
C1263 N1266 1.384 . S
C1264 H1255 0.929 . S
C1264 C1256 1.378 . S
C1264 C1259 1.350 . S
C1265 H1252 0.929 . S
C1265 C1257 1.433 . S
C1265 N1267 1.384 . S
N1266 C1262 1.427 . S
N1266 C1263 1.384 . S
N1267 C1259 1.427 . S
N1267 C1265 1.384 . S
H1268 C1274 0.930 . S
H1269 C1278 0.930 . S
H1270 C1283 0.929 . S
H1271 C1281 0.929 . S
H1272 C1276 0.929 . S
H1273 C1282 0.929 . S
C1274 H1268 0.930 . S
C1274 C1275 1.367 . S
C1274 C1282 1.378 . S
C1275 C1274 1.367 . S
C1275 C1283 1.433 . S
C1276 H1272 0.929 . S
C1276 C1278 1.378 . S
C1276 C1280 1.350 . S
C1277 C1280 1.463 . S
C1277 C1282 1.350 . S
C1277 N1285 1.427 . S
C1278 H1269 0.930 . S
C1278 C1276 1.378 . S
C1278 C1279 1.367 . S
C1279 C1278 1.367 . S
C1279 C1281 1.433 . S
C1280 C1276 1.350 . S
C1280 C1277 1.463 . S
C1280 N1284 1.427 . S
C1281 H1271 0.929 . S
C1281 C1279 1.433 . S
C1281 N1284 1.384 . S
C1282 H1273 0.929 . S
C1282 C1274 1.378 . S
C1282 C1277 1.350 . S
C1283 H1270 0.929 . S
C1283 C1275 1.433 . S
C1283 N1285 1.384 . S
N1284 C1280 1.427 . S
N1284 C1281 1.384 . S
N1285 C1277 1.427 . S
N1285 C1283 1.384 . S
H1286 C1292 0.930 . S
H1287 C1296 0.930 . S
H1288 C1301 0.975 . S
H1289 C1299 0.929 . S
H1290 C1294 0.929 . S
H1291 C1300 0.929 . S
C1292 H1286 0.930 . S
C1292 C1293 1.367 . S
C1292 C1300 1.378 . S
C1293 C1292 1.367 . S
C1293 C1301 1.414 1_655 S
C1294 H1290 0.929 . S
C1294 C1296 1.378 . S
C1294 C1298 1.350 . S
C1295 C1298 1.463 . S
C1295 C1300 1.350 . S
C1295 N1303 1.427 . S
C1296 H1287 0.930 . S
C1296 C1294 1.378 . S
C1296 C1297 1.367 . S
C1297 C1296 1.367 . S
C1297 C1299 1.433 . S
C1298 C1294 1.350 . S
C1298 C1295 1.463 . S
C1298 N1302 1.427 . S
C1299 H1289 0.929 . S
C1299 C1297 1.433 . S
C1299 N1302 1.384 . S
C1300 H1291 0.929 . S
C1300 C1292 1.378 . S
C1300 C1295 1.350 . S
C1301 H1288 0.975 . S
C1301 C1293 1.414 1_455 S
C1301 N1303 1.356 1_455 S
N1302 C1298 1.427 . S
N1302 C1299 1.384 . S
N1303 C1295 1.427 . S
N1303 C1301 1.356 1_655 S
H1304 C1310 0.930 . S
H1305 C1314 0.930 . S
H1306 C1319 0.929 . S
H1307 C1317 0.929 1_556 S
H1308 C1312 0.929 . S
H1309 C1318 0.929 . S
C1310 H1304 0.930 . S
C1310 C1311 1.367 . S
C1310 C1318 1.378 . S
C1311 C1310 1.367 . S
C1311 C1319 1.433 . S
C1312 H1308 0.929 . S
C1312 C1314 1.378 . S
C1312 C1316 1.350 . S
C1313 C1316 1.463 . S
C1313 C1318 1.350 . S
C1313 N1321 1.427 . S
C1314 H1305 0.930 . S
C1314 C1312 1.378 . S
C1314 C1315 1.367 . S
C1315 C1314 1.367 . S
C1315 C1317 1.433 . S
C1316 C1312 1.350 . S
C1316 C1313 1.463 . S
C1316 N1320 1.427 . S
C1317 H1307 0.929 1_554 S
C1317 C1315 1.433 . S
C1317 N1320 1.384 . S
C1318 H1309 0.929 . S
C1318 C1310 1.378 . S
C1318 C1313 1.350 . S
C1319 H1306 0.929 . S
C1319 C1311 1.433 . S
C1319 N1321 1.384 . S
N1320 C1316 1.427 . S
N1320 C1317 1.384 . S
N1321 C1313 1.427 . S
N1321 C1319 1.384 . S
H1322 C1328 0.930 1_554 S
H1323 C1332 0.930 . S
H1324 C1337 0.929 . S
H1325 C1335 0.929 . S
H1326 C1330 0.929 . S
H1327 C1336 0.929 . S
C1328 H1322 0.930 1_556 S
C1328 C1329 1.367 . S
C1328 C1336 1.378 . S
C1329 C1328 1.367 . S
C1329 C1337 1.433 . S
C1330 H1326 0.929 . S
C1330 C1332 1.378 . S
C1330 C1334 1.350 . S
C1331 C1334 1.463 . S
C1331 C1336 1.350 . S
C1331 N1339 1.427 . S
C1332 H1323 0.930 . S
C1332 C1330 1.378 . S
C1332 C1333 1.367 . S
C1333 C1332 1.367 . S
C1333 C1335 1.433 . S
C1334 C1330 1.350 . S
C1334 C1331 1.463 . S
C1334 N1338 1.427 . S
C1335 H1325 0.929 . S
C1335 C1333 1.433 . S
C1335 N1338 1.384 . S
C1336 H1327 0.929 . S
C1336 C1328 1.378 . S
C1336 C1331 1.350 . S
C1337 H1324 0.929 . S
C1337 C1329 1.433 . S
C1337 N1339 1.384 . S
N1338 C1334 1.427 . S
N1338 C1335 1.384 . S
N1339 C1331 1.427 . S
N1339 C1337 1.384 . S
H1340 C1346 0.930 . S
H1341 C1350 0.930 . S
H1342 C1355 0.929 . S
H1343 C1353 0.929 . S
H1344 C1348 0.929 . S
H1345 C1354 0.929 . S
C1346 H1340 0.930 . S
C1346 C1347 1.367 . S
C1346 C1354 1.378 . S
C1347 C1346 1.367 . S
C1347 C1355 1.433 . S
C1348 H1344 0.929 . S
C1348 C1350 1.378 . S
C1348 C1352 1.350 . S
C1349 C1352 1.463 . S
C1349 C1354 1.350 . S
C1349 N1357 1.427 . S
C1350 H1341 0.930 . S
C1350 C1348 1.378 . S
C1350 C1351 1.367 . S
C1351 C1350 1.367 . S
C1351 C1353 1.433 . S
C1352 C1348 1.350 . S
C1352 C1349 1.463 . S
C1352 N1356 1.427 . S
C1353 H1343 0.929 . S
C1353 C1351 1.433 . S
C1353 N1356 1.384 . S
C1354 H1345 0.929 . S
C1354 C1346 1.378 . S
C1354 C1349 1.350 . S
C1355 H1342 0.929 . S
C1355 C1347 1.433 . S
C1355 N1357 1.384 . S
N1356 C1352 1.427 . S
N1356 C1353 1.384 . S
N1357 C1349 1.427 . S
N1357 C1355 1.384 . S
H1358 C1364 0.930 . S
H1359 C1368 0.930 . S
H1360 C1373 0.929 . S
H1361 C1371 0.929 . S
H1362 C1366 0.929 . S
H1363 C1372 0.929 . S
C1364 H1358 0.930 . S
C1364 C1365 1.367 . S
C1364 C1372 1.378 . S
C1365 C1364 1.367 . S
C1365 C1373 1.433 . S
C1366 H1362 0.929 . S
C1366 C1368 1.378 . S
C1366 C1370 1.350 . S
C1367 C1370 1.463 . S
C1367 C1372 1.350 . S
C1367 N1375 1.427 . S
C1368 H1359 0.930 . S
C1368 C1366 1.378 . S
C1368 C1369 1.367 . S
C1369 C1368 1.367 . S
C1369 C1371 1.433 . S
C1370 C1366 1.350 . S
C1370 C1367 1.463 . S
C1370 N1374 1.427 . S
C1371 H1361 0.929 . S
C1371 C1369 1.433 . S
C1371 N1374 1.384 . S
C1372 H1363 0.929 . S
C1372 C1364 1.378 . S
C1372 C1367 1.350 . S
C1373 H1360 0.929 . S
C1373 C1365 1.433 . S
C1373 N1375 1.384 . S
N1374 C1370 1.427 . S
N1374 C1371 1.384 . S
N1375 C1367 1.427 . S
N1375 C1373 1.384 . S
C519 C2 2.138 1_556 S
C523 C230 2.135 . S
C537 C34 2.131 . S
C541 C134 2.139 1_554 S
C555 C166 2.137 . S
C559 C66 2.136 . S
C573 C98 2.138 . S
C577 C194 2.130 . S
C591 C356 1.908 . S
C595 C157 1.908 1_654 S
C609 C285 1.911 . S
C613 C4 1.917 1_656 S
C627 C324 1.907 . S
C631 C196 1.915 . S
C645 C68 1.907 . S
C649 C317 1.914 . S
C663 C294 2.139 . S
C667 C386 2.131 . S
C681 C322 2.130 . S
C685 C454 2.138 . S
C699 C422 2.133 1_656 S
C703 C262 2.131 . S
C717 C354 2.139 . S
C721 C482 2.131 1_654 S
C735 C477 1.916 . S
C739 C100 1.908 . S
C753 C388 1.916 . S
C757 C189 1.909 . S
C771 C36 1.914 . S
C775 C484 1.916 1_554 S
C789 C253 1.915 . S
C793 C445 1.915 1_556 S
C807 N434 2.191 1_655 S
C811 N13 2.189 . S
C825 N365 2.179 1_655 S
C829 N45 2.179 . S
C843 N397 2.179 . S
C847 N77 2.191 . S
C861 N333 2.178 . S
C865 N109 2.189 . S
C879 N146 2.192 . S
C883 N493 2.182 1_655 S
C897 N306 2.187 . S
C901 N178 2.193 . S
C915 N205 2.178 . S
C919 N466 2.180 . S
C933 N242 2.179 . S
C937 N274 2.179 1_655 S
C951 N18 1.291 . S
C955 N141 1.293 . S
C969 N50 1.292 . S
C973 N173 1.290 . S
C987 N210 1.294 . S
C991 N82 1.293 . S
C1005 N114 1.291 . S
C1009 N237 1.290 . S
C1023 N338 1.292 . S
C1027 N269 1.290 . S
C1041 N370 1.291 . S
C1045 N301 1.290 . S
C1059 N402 1.294 . S
C1063 N461 1.292 . S
C1077 N498 1.291 . S
C1081 N429 1.293 . S
C1095 C6 1.580 . S
C1099 C226 1.586 . S
C1113 C38 1.582 . S
C1117 C130 1.585 . S
C1131 C162 1.576 1_556 S
C1135 C70 1.587 . S
C1149 C198 1.571 . S
C1153 C102 1.580 1_554 S
C1167 C381 1.569 . S
C1171 C132 1.575 1_655 S
C1185 C260 1.571 . S
C1189 C29 1.570 1_655 S
C1203 C349 1.579 1_554 S
C1207 C221 1.570 . S
C1221 C93 1.578 . S
C1225 C292 1.584 1_556 S
C1239 C390 1.571 . S
C1243 C290 1.580 1_556 S
C1257 C450 1.580 . S
C1261 C326 1.571 1_554 S
C1275 C418 1.586 1_655 S
C1279 C258 1.579 . S
C1293 C486 1.585 1_655 S
C1297 C358 1.572 . S
C1311 C452 1.576 . S
C1315 C125 1.584 1_554 S
C1329 C164 1.569 1_556 S
C1333 C413 1.573 . S
C1347 C61 1.571 . S
C1351 C509 1.582 . S
C1365 C420 1.582 . S
C1369 C228 1.583 . S
