# Generated by pormake.
# Topology wna, (6)-cn, num edge types: 1
# Building blocks:
#     Node 0, Type 0, BuildingBlock: BETGAK_clean_sbu_0, # of connection points: 6
#     Node 1, Type 0, BuildingBlock: BETGAK_clean_sbu_0, # of connection points: 6
#     Node 2, Type 0, BuildingBlock: BETGAK_clean_sbu_0, # of connection points: 6
#     Node 3, Type 0, BuildingBlock: BETGAK_clean_sbu_0, # of connection points: 6
#     Node 4, Type 0, BuildingBlock: BETGAK_clean_sbu_0, # of connection points: 6
#     Node 5, Type 0, BuildingBlock: BETGAK_clean_sbu_0, # of connection points: 6
#     Node 6, Type 0, BuildingBlock: BETGAK_clean_sbu_0, # of connection points: 6
#     Node 7, Type 0, BuildingBlock: BETGAK_clean_sbu_0, # of connection points: 6
#     Node 8, Type 0, BuildingBlock: BETGAK_clean_sbu_0, # of connection points: 6
#     Node 9, Type 0, BuildingBlock: BETGAK_clean_sbu_0, # of connection points: 6
#     Node 10, Type 0, BuildingBlock: BETGAK_clean_sbu_0, # of connection points: 6
#     Node 11, Type 0, BuildingBlock: BETGAK_clean_sbu_0, # of connection points: 6
#     Node 12, Type 0, BuildingBlock: BETGAK_clean_sbu_0, # of connection points: 6
#     Node 13, Type 0, BuildingBlock: BETGAK_clean_sbu_0, # of connection points: 6
#     Node 14, Type 0, BuildingBlock: BETGAK_clean_sbu_0, # of connection points: 6
#     Node 15, Type 0, BuildingBlock: BETGAK_clean_sbu_0, # of connection points: 6
#     Node 16, Type 0, BuildingBlock: BETGAK_clean_sbu_0, # of connection points: 6
#     Node 17, Type 0, BuildingBlock: BETGAK_clean_sbu_0, # of connection points: 6
#     Node 18, Type 0, BuildingBlock: BETGAK_clean_sbu_0, # of connection points: 6
#     Node 19, Type 0, BuildingBlock: BETGAK_clean_sbu_0, # of connection points: 6
#     Node 20, Type 0, BuildingBlock: BETGAK_clean_sbu_0, # of connection points: 6
#     Node 21, Type 0, BuildingBlock: BETGAK_clean_sbu_0, # of connection points: 6
#     Node 22, Type 0, BuildingBlock: BETGAK_clean_sbu_0, # of connection points: 6
#     Node 23, Type 0, BuildingBlock: BETGAK_clean_sbu_0, # of connection points: 6
#     Node 24, Type 0, BuildingBlock: BETGAK_clean_sbu_0, # of connection points: 6
#     Node 25, Type 0, BuildingBlock: BETGAK_clean_sbu_0, # of connection points: 6
#     Node 26, Type 0, BuildingBlock: BETGAK_clean_sbu_0, # of connection points: 6
#     Node 27, Type 0, BuildingBlock: BETGAK_clean_sbu_0, # of connection points: 6
#     Node 28, Type 0, BuildingBlock: BETGAK_clean_sbu_0, # of connection points: 6
#     Node 29, Type 0, BuildingBlock: BETGAK_clean_sbu_0, # of connection points: 6
#     Node 30, Type 0, BuildingBlock: BETGAK_clean_sbu_0, # of connection points: 6
#     Node 31, Type 0, BuildingBlock: BETGAK_clean_sbu_0, # of connection points: 6
#     Node 32, Type 0, BuildingBlock: BETGAK_clean_sbu_0, # of connection points: 6
#     Node 33, Type 0, BuildingBlock: BETGAK_clean_sbu_0, # of connection points: 6
#     Node 34, Type 0, BuildingBlock: BETGAK_clean_sbu_0, # of connection points: 6
#     Node 35, Type 0, BuildingBlock: BETGAK_clean_sbu_0, # of connection points: 6
#     Edge 36, Type (0, 0), BuildingBlock: ZUJKAS_clean_linker_0, # of connection points: 2
#     Edge 37, Type (0, 0), BuildingBlock: ZUJKAS_clean_linker_0, # of connection points: 2
#     Edge 38, Type (0, 0), BuildingBlock: ZUJKAS_clean_linker_0, # of connection points: 2
#     Edge 39, Type (0, 0), BuildingBlock: ZUJKAS_clean_linker_0, # of connection points: 2
#     Edge 40, Type (0, 0), BuildingBlock: ZUJKAS_clean_linker_0, # of connection points: 2
#     Edge 41, Type (0, 0), BuildingBlock: ZUJKAS_clean_linker_0, # of connection points: 2
#     Edge 42, Type (0, 0), BuildingBlock: ZUJKAS_clean_linker_0, # of connection points: 2
#     Edge 43, Type (0, 0), BuildingBlock: ZUJKAS_clean_linker_0, # of connection points: 2
#     Edge 44, Type (0, 0), BuildingBlock: ZUJKAS_clean_linker_0, # of connection points: 2
#     Edge 45, Type (0, 0), BuildingBlock: ZUJKAS_clean_linker_0, # of connection points: 2
#     Edge 46, Type (0, 0), BuildingBlock: ZUJKAS_clean_linker_0, # of connection points: 2
#     Edge 47, Type (0, 0), BuildingBlock: ZUJKAS_clean_linker_0, # of connection points: 2
#     Edge 48, Type (0, 0), BuildingBlock: ZUJKAS_clean_linker_0, # of connection points: 2
#     Edge 49, Type (0, 0), BuildingBlock: ZUJKAS_clean_linker_0, # of connection points: 2
#     Edge 50, Type (0, 0), BuildingBlock: ZUJKAS_clean_linker_0, # of connection points: 2
#     Edge 51, Type (0, 0), BuildingBlock: ZUJKAS_clean_linker_0, # of connection points: 2
#     Edge 52, Type (0, 0), BuildingBlock: ZUJKAS_clean_linker_0, # of connection points: 2
#     Edge 53, Type (0, 0), BuildingBlock: ZUJKAS_clean_linker_0, # of connection points: 2
#     Edge 54, Type (0, 0), BuildingBlock: ZUJKAS_clean_linker_0, # of connection points: 2
#     Edge 55, Type (0, 0), BuildingBlock: ZUJKAS_clean_linker_0, # of connection points: 2
#     Edge 56, Type (0, 0), BuildingBlock: ZUJKAS_clean_linker_0, # of connection points: 2
#     Edge 57, Type (0, 0), BuildingBlock: ZUJKAS_clean_linker_0, # of connection points: 2
#     Edge 58, Type (0, 0), BuildingBlock: ZUJKAS_clean_linker_0, # of connection points: 2
#     Edge 59, Type (0, 0), BuildingBlock: ZUJKAS_clean_linker_0, # of connection points: 2
#     Edge 60, Type (0, 0), BuildingBlock: ZUJKAS_clean_linker_0, # of connection points: 2
#     Edge 61, Type (0, 0), BuildingBlock: ZUJKAS_clean_linker_0, # of connection points: 2
#     Edge 62, Type (0, 0), BuildingBlock: ZUJKAS_clean_linker_0, # of connection points: 2
#     Edge 63, Type (0, 0), BuildingBlock: ZUJKAS_clean_linker_0, # of connection points: 2
#     Edge 64, Type (0, 0), BuildingBlock: ZUJKAS_clean_linker_0, # of connection points: 2
#     Edge 65, Type (0, 0), BuildingBlock: ZUJKAS_clean_linker_0, # of connection points: 2
#     Edge 66, Type (0, 0), BuildingBlock: ZUJKAS_clean_linker_0, # of connection points: 2
#     Edge 67, Type (0, 0), BuildingBlock: ZUJKAS_clean_linker_0, # of connection points: 2
#     Edge 68, Type (0, 0), BuildingBlock: ZUJKAS_clean_linker_0, # of connection points: 2
#     Edge 69, Type (0, 0), BuildingBlock: ZUJKAS_clean_linker_0, # of connection points: 2
#     Edge 70, Type (0, 0), BuildingBlock: ZUJKAS_clean_linker_0, # of connection points: 2
#     Edge 71, Type (0, 0), BuildingBlock: ZUJKAS_clean_linker_0, # of connection points: 2
#     Edge 72, Type (0, 0), BuildingBlock: ZUJKAS_clean_linker_0, # of connection points: 2
#     Edge 73, Type (0, 0), BuildingBlock: ZUJKAS_clean_linker_0, # of connection points: 2
#     Edge 74, Type (0, 0), BuildingBlock: ZUJKAS_clean_linker_0, # of connection points: 2
#     Edge 75, Type (0, 0), BuildingBlock: ZUJKAS_clean_linker_0, # of connection points: 2
#     Edge 76, Type (0, 0), BuildingBlock: ZUJKAS_clean_linker_0, # of connection points: 2
#     Edge 77, Type (0, 0), BuildingBlock: ZUJKAS_clean_linker_0, # of connection points: 2
#     Edge 78, Type (0, 0), BuildingBlock: ZUJKAS_clean_linker_0, # of connection points: 2
#     Edge 79, Type (0, 0), BuildingBlock: ZUJKAS_clean_linker_0, # of connection points: 2
#     Edge 80, Type (0, 0), BuildingBlock: ZUJKAS_clean_linker_0, # of connection points: 2
#     Edge 81, Type (0, 0), BuildingBlock: ZUJKAS_clean_linker_0, # of connection points: 2
#     Edge 82, Type (0, 0), BuildingBlock: ZUJKAS_clean_linker_0, # of connection points: 2
#     Edge 83, Type (0, 0), BuildingBlock: ZUJKAS_clean_linker_0, # of connection points: 2
#     Edge 84, Type (0, 0), BuildingBlock: ZUJKAS_clean_linker_0, # of connection points: 2
#     Edge 85, Type (0, 0), BuildingBlock: ZUJKAS_clean_linker_0, # of connection points: 2
#     Edge 86, Type (0, 0), BuildingBlock: ZUJKAS_clean_linker_0, # of connection points: 2
#     Edge 87, Type (0, 0), BuildingBlock: ZUJKAS_clean_linker_0, # of connection points: 2
#     Edge 88, Type (0, 0), BuildingBlock: ZUJKAS_clean_linker_0, # of connection points: 2
#     Edge 89, Type (0, 0), BuildingBlock: ZUJKAS_clean_linker_0, # of connection points: 2
#     Edge 90, Type (0, 0), BuildingBlock: ZUJKAS_clean_linker_0, # of connection points: 2
#     Edge 91, Type (0, 0), BuildingBlock: ZUJKAS_clean_linker_0, # of connection points: 2
#     Edge 92, Type (0, 0), BuildingBlock: ZUJKAS_clean_linker_0, # of connection points: 2
#     Edge 93, Type (0, 0), BuildingBlock: ZUJKAS_clean_linker_0, # of connection points: 2
#     Edge 94, Type (0, 0), BuildingBlock: ZUJKAS_clean_linker_0, # of connection points: 2
#     Edge 95, Type (0, 0), BuildingBlock: ZUJKAS_clean_linker_0, # of connection points: 2
#     Edge 96, Type (0, 0), BuildingBlock: ZUJKAS_clean_linker_0, # of connection points: 2
#     Edge 97, Type (0, 0), BuildingBlock: ZUJKAS_clean_linker_0, # of connection points: 2
#     Edge 98, Type (0, 0), BuildingBlock: ZUJKAS_clean_linker_0, # of connection points: 2
#     Edge 99, Type (0, 0), BuildingBlock: ZUJKAS_clean_linker_0, # of connection points: 2
#     Edge 100, Type (0, 0), BuildingBlock: ZUJKAS_clean_linker_0, # of connection points: 2
#     Edge 101, Type (0, 0), BuildingBlock: ZUJKAS_clean_linker_0, # of connection points: 2
#     Edge 102, Type (0, 0), BuildingBlock: ZUJKAS_clean_linker_0, # of connection points: 2
#     Edge 103, Type (0, 0), BuildingBlock: ZUJKAS_clean_linker_0, # of connection points: 2
#     Edge 104, Type (0, 0), BuildingBlock: ZUJKAS_clean_linker_0, # of connection points: 2
#     Edge 105, Type (0, 0), BuildingBlock: ZUJKAS_clean_linker_0, # of connection points: 2
#     Edge 106, Type (0, 0), BuildingBlock: ZUJKAS_clean_linker_0, # of connection points: 2
#     Edge 107, Type (0, 0), BuildingBlock: ZUJKAS_clean_linker_0, # of connection points: 2
#     Edge 108, Type (0, 0), BuildingBlock: ZUJKAS_clean_linker_0, # of connection points: 2
#     Edge 109, Type (0, 0), BuildingBlock: ZUJKAS_clean_linker_0, # of connection points: 2
#     Edge 110, Type (0, 0), BuildingBlock: ZUJKAS_clean_linker_0, # of connection points: 2
#     Edge 111, Type (0, 0), BuildingBlock: ZUJKAS_clean_linker_0, # of connection points: 2
#     Edge 112, Type (0, 0), BuildingBlock: ZUJKAS_clean_linker_0, # of connection points: 2
#     Edge 113, Type (0, 0), BuildingBlock: ZUJKAS_clean_linker_0, # of connection points: 2
#     Edge 114, Type (0, 0), BuildingBlock: ZUJKAS_clean_linker_0, # of connection points: 2
#     Edge 115, Type (0, 0), BuildingBlock: ZUJKAS_clean_linker_0, # of connection points: 2
#     Edge 116, Type (0, 0), BuildingBlock: ZUJKAS_clean_linker_0, # of connection points: 2
#     Edge 117, Type (0, 0), BuildingBlock: ZUJKAS_clean_linker_0, # of connection points: 2
#     Edge 118, Type (0, 0), BuildingBlock: ZUJKAS_clean_linker_0, # of connection points: 2
#     Edge 119, Type (0, 0), BuildingBlock: ZUJKAS_clean_linker_0, # of connection points: 2
#     Edge 120, Type (0, 0), BuildingBlock: ZUJKAS_clean_linker_0, # of connection points: 2
#     Edge 121, Type (0, 0), BuildingBlock: ZUJKAS_clean_linker_0, # of connection points: 2
#     Edge 122, Type (0, 0), BuildingBlock: ZUJKAS_clean_linker_0, # of connection points: 2
#     Edge 123, Type (0, 0), BuildingBlock: ZUJKAS_clean_linker_0, # of connection points: 2
#     Edge 124, Type (0, 0), BuildingBlock: ZUJKAS_clean_linker_0, # of connection points: 2
#     Edge 125, Type (0, 0), BuildingBlock: ZUJKAS_clean_linker_0, # of connection points: 2
#     Edge 126, Type (0, 0), BuildingBlock: ZUJKAS_clean_linker_0, # of connection points: 2
#     Edge 127, Type (0, 0), BuildingBlock: ZUJKAS_clean_linker_0, # of connection points: 2
#     Edge 128, Type (0, 0), BuildingBlock: ZUJKAS_clean_linker_0, # of connection points: 2
#     Edge 129, Type (0, 0), BuildingBlock: ZUJKAS_clean_linker_0, # of connection points: 2
#     Edge 130, Type (0, 0), BuildingBlock: ZUJKAS_clean_linker_0, # of connection points: 2
#     Edge 131, Type (0, 0), BuildingBlock: ZUJKAS_clean_linker_0, # of connection points: 2
#     Edge 132, Type (0, 0), BuildingBlock: ZUJKAS_clean_linker_0, # of connection points: 2
#     Edge 133, Type (0, 0), BuildingBlock: ZUJKAS_clean_linker_0, # of connection points: 2
#     Edge 134, Type (0, 0), BuildingBlock: ZUJKAS_clean_linker_0, # of connection points: 2
#     Edge 135, Type (0, 0), BuildingBlock: ZUJKAS_clean_linker_0, # of connection points: 2
#     Edge 136, Type (0, 0), BuildingBlock: ZUJKAS_clean_linker_0, # of connection points: 2
#     Edge 137, Type (0, 0), BuildingBlock: ZUJKAS_clean_linker_0, # of connection points: 2
#     Edge 138, Type (0, 0), BuildingBlock: ZUJKAS_clean_linker_0, # of connection points: 2
#     Edge 139, Type (0, 0), BuildingBlock: ZUJKAS_clean_linker_0, # of connection points: 2
#     Edge 140, Type (0, 0), BuildingBlock: ZUJKAS_clean_linker_0, # of connection points: 2
#     Edge 141, Type (0, 0), BuildingBlock: ZUJKAS_clean_linker_0, # of connection points: 2
#     Edge 142, Type (0, 0), BuildingBlock: ZUJKAS_clean_linker_0, # of connection points: 2
#     Edge 143, Type (0, 0), BuildingBlock: ZUJKAS_clean_linker_0, # of connection points: 2
# Relax obj value: 0.161
# Max RMSD: 0.221
# Mean RMSD: 0.206
data_MOF--net-wna--node1-BETGAK_clean_sbu_0--edge1-ZUJKAS_clean_linker_0
_symmetry_space_group_name_H-M    P1
_symmetry_Int_Tables_number       1
_symmetry_cell_setting            triclinic
loop_
_symmetry_equiv_pos_as_xyz
'x, y, z'
_cell_length_a     52.976453
_cell_length_b     52.987868
_cell_length_c     175.30673
_cell_angle_alpha  90.102528
_cell_angle_beta   89.930614
_cell_angle_gamma 120.01325
loop_
_atom_site_label
_atom_site_type_symbol
_atom_site_fract_x
_atom_site_fract_y
_atom_site_fract_z
_atom_type_partial_charge
La0 La 0.11254 0.25391 0.17998 0.0
La1 La 0.11933 0.25009 0.19671 0.0
C2 C 0.10918 0.27081 0.16667 0.0
C3 C 0.12334 0.28134 0.15907 0.0
C4 C 0.11614 0.26142 0.15301 0.0
C5 C 0.12511 0.27107 0.14553 0.0
C6 C 0.14151 0.30102 0.14383 0.0
C7 C 0.14946 0.32097 0.14994 0.0
C8 C 0.14038 0.31128 0.15744 0.0
C9 C 0.12132 0.21072 0.18386 0.0
C10 C 0.17671 0.28799 0.18741 0.0
C11 C 0.11928 0.23564 0.21051 0.0
C12 C 0.1019 0.22879 0.21766 0.0
C13 C 0.09301 0.2477 0.22071 0.0
C14 C 0.07923 0.24207 0.22786 0.0
C15 C 0.07391 0.21737 0.23214 0.0
C16 C 0.08224 0.19818 0.22896 0.0
C17 C 0.09608 0.20387 0.22184 0.0
C18 C 0.1064 0.29084 0.19244 0.0
C19 C 0.05787 0.20817 0.18903 0.0
O20 O 0.10075 0.24384 0.1685 0.0
O21 O 0.11877 0.28819 0.17261 0.0
O22 O 0.10692 0.2109 0.17793 0.0
O23 O 0.13313 0.23562 0.18695 0.0
O24 O 0.15967 0.28616 0.18161 0.0
O25 O 0.16533 0.27188 0.19359 0.0
O26 O 0.13218 0.26253 0.20807 0.0
O27 O 0.10845 0.21695 0.20489 0.0
O28 O 0.12292 0.29302 0.19811 0.0
O29 O 0.09635 0.26568 0.1897 0.0
O30 O 0.07567 0.21294 0.19481 0.0
O31 O 0.06659 0.22542 0.18297 0.0
H32 H 0.10249 0.23824 0.15399 0.0
H33 H 0.11801 0.25493 0.14103 0.0
H34 H 0.16239 0.34419 0.14892 0.0
H35 H 0.14598 0.3273 0.16193 0.0
H36 H 0.09714 0.26712 0.21764 0.0
H37 H 0.07279 0.25714 0.23005 0.0
H38 H 0.07891 0.17915 0.23209 0.0
H39 H 0.10292 0.18906 0.21967 0.0
La40 La 0.76971 0.86649 0.18037 0.0
La41 La 0.77358 0.87693 0.19712 0.0
C42 C 0.75258 0.84598 0.16707 0.0
C43 C 0.74132 0.84907 0.15954 0.0
C44 C 0.76041 0.86848 0.154 0.0
C45 C 0.75119 0.86742 0.14645 0.0
C46 C 0.72262 0.84691 0.1442 0.0
C47 C 0.70315 0.82837 0.14981 0.0
C48 C 0.71244 0.82932 0.15737 0.0
C49 C 0.8125 0.91855 0.18431 0.0
C50 C 0.73522 0.89604 0.18792 0.0
C51 C 0.78799 0.89117 0.21094 0.0
C52 C 0.79495 0.88058 0.21806 0.0
C53 C 0.77424 0.85483 0.22173 0.0
C54 C 0.78027 0.84709 0.22887 0.0
C55 C 0.80712 0.86491 0.23255 0.0
C56 C 0.82806 0.89021 0.22875 0.0
C57 C 0.82201 0.89795 0.22162 0.0
C58 C 0.73321 0.82319 0.19279 0.0
C59 C 0.81627 0.85855 0.18932 0.0
O60 O 0.77946 0.86508 0.16885 0.0
O61 O 0.73541 0.83774 0.17306 0.0
O62 O 0.81251 0.90426 0.17832 0.0
O63 O 0.78763 0.90518 0.1874 0.0
O64 O 0.73721 0.88105 0.18207 0.0
O65 O 0.7514 0.90081 0.19409 0.0
O66 O 0.76109 0.87716 0.20849 0.0
O67 O 0.80668 0.89927 0.20532 0.0
O68 O 0.73086 0.83731 0.19849 0.0
O69 O 0.75833 0.83851 0.19005 0.0
O70 O 0.81116 0.87116 0.19516 0.0
O71 O 0.79902 0.8499 0.18326 0.0
H72 H 0.78291 0.88381 0.1554 0.0
H73 H 0.76669 0.88236 0.14233 0.0
H74 H 0.68106 0.81212 0.1483 0.0
H75 H 0.69731 0.81369 0.16144 0.0
H76 H 0.75307 0.84098 0.21918 0.0
H77 H 0.76345 0.82761 0.23162 0.0
H78 H 0.84917 0.90425 0.23131 0.0
H79 H 0.83835 0.91797 0.21896 0.0
La80 La 0.15729 0.91023 0.17956 0.0
La81 La 0.14518 0.90467 0.19733 0.0
C82 C 0.18012 0.91385 0.16661 0.0
C83 C 0.17976 0.90004 0.15919 0.0
C84 C 0.15445 0.88545 0.1547 0.0
C85 C 0.15604 0.87726 0.14715 0.0
C86 C 0.183 0.88374 0.14391 0.0
C87 C 0.20801 0.89723 0.14856 0.0
C88 C 0.20637 0.90525 0.15608 0.0
C89 C 0.10605 0.90257 0.18376 0.0
C90 C 0.12785 0.84687 0.18755 0.0
C91 C 0.12451 0.90122 0.21051 0.0
C92 C 0.13419 0.91691 0.21792 0.0
C93 C 0.16213 0.92619 0.2209 0.0
C94 C 0.17025 0.9399 0.22806 0.0
C95 C 0.15071 0.94485 0.2324 0.0
C96 C 0.12291 0.93586 0.22933 0.0
C97 C 0.11477 0.92204 0.2222 0.0
C98 C 0.20204 0.92579 0.19408 0.0
C99 C 0.16555 0.96474 0.18884 0.0
O100 O 0.15949 0.92006 0.16793 0.0
O101 O 0.18798 0.90572 0.17281 0.0
O102 O 0.11944 0.91521 0.17749 0.0
O103 O 0.11985 0.89182 0.187 0.0
O104 O 0.13918 0.8628 0.18125 0.0
O105 O 0.1268 0.85866 0.19417 0.0
O106 O 0.13699 0.88638 0.20829 0.0
O107 O 0.12083 0.91527 0.20486 0.0
O108 O 0.1911 0.92031 0.20088 0.0
O109 O 0.18076 0.9189 0.18977 0.0
O110 O 0.15066 0.94717 0.19454 0.0
O111 O 0.17519 0.95594 0.18297 0.0
H112 H 0.13362 0.88132 0.1569 0.0
H113 H 0.13634 0.86703 0.14375 0.0
H114 H 0.22905 0.90212 0.14633 0.0
H115 H 0.22625 0.91664 0.15939 0.0
H116 H 0.17769 0.92272 0.21772 0.0
H117 H 0.19196 0.94683 0.23018 0.0
H118 H 0.10712 0.93894 0.23251 0.0
H119 H 0.09308 0.91504 0.22005 0.0
La120 La 0.26 0.1081 0.36093 0.0
La121 La 0.25244 0.1135 0.34323 0.0
C122 C 0.28014 0.10525 0.37382 0.0
C123 C 0.2915 0.11934 0.38137 0.0
C124 C 0.27484 0.12614 0.38633 0.0
C125 C 0.28374 0.13457 0.39391 0.0
C126 C 0.30949 0.13637 0.39674 0.0
C127 C 0.32665 0.13062 0.39166 0.0
C128 C 0.31772 0.12216 0.3841 0.0
C129 C 0.2163 0.11603 0.35704 0.0
C130 C 0.29319 0.17148 0.35293 0.0
C131 C 0.2346 0.11706 0.33016 0.0
C132 C 0.22838 0.10162 0.32271 0.0
C133 C 0.24778 0.09393 0.31938 0.0
C134 C 0.24197 0.08058 0.31216 0.0
C135 C 0.21657 0.07447 0.30809 0.0
C136 C 0.197 0.08178 0.31153 0.0
C137 C 0.20287 0.09521 0.31872 0.0
C138 C 0.28839 0.09237 0.34616 0.0
C139 C 0.21339 0.05354 0.35176 0.0
O140 O 0.25246 0.09507 0.37238 0.0
O141 O 0.29641 0.11633 0.36772 0.0
O142 O 0.21767 0.10398 0.36335 0.0
O143 O 0.24054 0.12636 0.35365 0.0
O144 O 0.28883 0.15562 0.35922 0.0
O145 O 0.28022 0.15957 0.34633 0.0
O146 O 0.262 0.13206 0.3323 0.0
O147 O 0.21713 0.10278 0.33585 0.0
O148 O 0.28212 0.09753 0.33942 0.0
O149 O 0.2746 0.09954 0.35064 0.0
O150 O 0.21549 0.07115 0.34614 0.0
O151 O 0.23239 0.06235 0.35749 0.0
H152 H 0.25443 0.12408 0.38444 0.0
H153 H 0.27016 0.13927 0.39759 0.0
H154 H 0.34641 0.13139 0.39361 0.0
H155 H 0.33079 0.11663 0.38046 0.0
H156 H 0.26763 0.09853 0.3223 0.0
H157 H 0.25777 0.07564 0.30971 0.0
H158 H 0.17695 0.077 0.30869 0.0
H159 H 0.1875 0.10079 0.32117 0.0
La160 La 0.91817 0.15429 0.36141 0.0
La161 La 0.91008 0.14574 0.34465 0.0
C162 C 0.92245 0.17411 0.37482 0.0
C163 C 0.90774 0.17237 0.38221 0.0
C164 C 0.89745 0.14786 0.387 0.0
C165 C 0.88863 0.14872 0.39451 0.0
C166 C 0.8899 0.17411 0.39745 0.0
C167 C 0.89909 0.19817 0.39254 0.0
C168 C 0.90797 0.19731 0.38504 0.0
C169 C 0.90843 0.10281 0.35688 0.0
C170 C 0.8535 0.12642 0.35429 0.0
C171 C 0.90937 0.13324 0.33062 0.0
C172 C 0.92733 0.14341 0.32354 0.0
C173 C 0.93394 0.16981 0.31997 0.0
C174 C 0.94774 0.17723 0.31282 0.0
C175 C 0.95527 0.15845 0.30902 0.0
C176 C 0.94937 0.13246 0.31272 0.0
C177 C 0.93554 0.12504 0.31985 0.0
C178 C 0.92436 0.19893 0.34963 0.0
C179 C 0.9717 0.1624 0.352 0.0
O180 O 0.92691 0.15269 0.373 0.0
O181 O 0.91633 0.18489 0.36884 0.0
O182 O 0.92381 0.11673 0.36278 0.0
O183 O 0.89647 0.11635 0.35414 0.0
O184 O 0.87089 0.13921 0.36024 0.0
O185 O 0.86406 0.12322 0.34774 0.0
O186 O 0.89906 0.14925 0.33335 0.0
O187 O 0.91781 0.1223 0.33607 0.0
O188 O 0.90659 0.18535 0.34411 0.0
O189 O 0.93444 0.18324 0.35189 0.0
O190 O 0.95368 0.15125 0.34614 0.0
O191 O 0.96364 0.17005 0.35834 0.0
H192 H 0.89713 0.1283 0.38504 0.0
H193 H 0.88124 0.12958 0.39805 0.0
H194 H 0.90073 0.21823 0.39459 0.0
H195 H 0.91623 0.21671 0.38155 0.0
H196 H 0.92775 0.18444 0.3226 0.0
H197 H 0.95158 0.19727 0.31016 0.0
H198 H 0.95523 0.11763 0.31007 0.0
H199 H 0.9306 0.10447 0.32242 0.0
La200 La 0.87043 0.76684 0.361 0.0
La201 La 0.88018 0.76997 0.34427 0.0
C202 C 0.85019 0.75025 0.37432 0.0
C203 C 0.8504 0.73597 0.38161 0.0
C204 C 0.87526 0.74729 0.3863 0.0
C205 C 0.87335 0.73694 0.39378 0.0
C206 C 0.84649 0.71521 0.39678 0.0
C207 C 0.82199 0.70307 0.39193 0.0
C208 C 0.82394 0.71335 0.38447 0.0
C209 C 0.92207 0.80991 0.35687 0.0
C210 C 0.89985 0.73226 0.3535 0.0
C211 C 0.89394 0.78377 0.33041 0.0
C212 C 0.88346 0.79106 0.32334 0.0
C213 C 0.85502 0.77325 0.32053 0.0
C214 C 0.84676 0.77915 0.31344 0.0
C215 C 0.86669 0.80302 0.30899 0.0
C216 C 0.89489 0.82116 0.31193 0.0
C217 C 0.90313 0.8152 0.319 0.0
C218 C 0.82673 0.72964 0.34879 0.0
C219 C 0.86168 0.81279 0.35201 0.0
O220 O 0.8727 0.77568 0.37272 0.0
O221 O 0.83883 0.73426 0.3682 0.0
O222 O 0.90747 0.81033 0.36275 0.0
O223 O 0.90897 0.78476 0.3539 0.0
O224 O 0.88478 0.73418 0.35933 0.0
O225 O 0.90445 0.74827 0.34732 0.0
O226 O 0.8792 0.75697 0.3329 0.0
O227 O 0.90283 0.80264 0.336 0.0
O228 O 0.84088 0.72677 0.34317 0.0
O229 O 0.84203 0.75501 0.35139 0.0
O230 O 0.8735 0.80708 0.3461 0.0
O231 O 0.85421 0.79648 0.35824 0.0
H232 H 0.89596 0.76495 0.38432 0.0
H233 H 0.89265 0.74697 0.39733 0.0
H234 H 0.80106 0.68597 0.39396 0.0
H235 H 0.80435 0.70439 0.38103 0.0
H236 H 0.83929 0.75447 0.32375 0.0
H237 H 0.82475 0.76492 0.31143 0.0
H238 H 0.91099 0.8395 0.30866 0.0
H239 H 0.92525 0.82913 0.32099 0.0
La240 La 0.90997 0.77364 0.84364 0.0
La241 La 0.91656 0.76687 0.86133 0.0
C242 C 0.90527 0.7907 0.83055 0.0
C243 C 0.92015 0.79635 0.82305 0.0
C244 C 0.93399 0.78096 0.82064 0.0
C245 C 0.94702 0.78601 0.8134 0.0
C246 C 0.94666 0.80668 0.80841 0.0
C247 C 0.93304 0.82224 0.81091 0.0
C248 C 0.91995 0.8171 0.81813 0.0
C249 C 0.93155 0.73804 0.84653 0.0
C250 C 0.97039 0.81346 0.85193 0.0
C251 C 0.92024 0.74733 0.87422 0.0
C252 C 0.90622 0.7358 0.88177 0.0
C253 C 0.89915 0.75223 0.88674 0.0
C254 C 0.89075 0.74323 0.89431 0.0
C255 C 0.88923 0.71758 0.89712 0.0
C256 C 0.89524 0.70065 0.89203 0.0
C257 C 0.90368 0.70969 0.88447 0.0
C258 C 0.90809 0.81021 0.8574 0.0
C259 C 0.85269 0.73302 0.85357 0.0
O260 O 0.89063 0.76342 0.8328 0.0
O261 O 0.92007 0.80848 0.83615 0.0
O262 O 0.92582 0.74389 0.83981 0.0
O263 O 0.9247 0.75205 0.85101 0.0
O264 O 0.95237 0.81092 0.84637 0.0
O265 O 0.96208 0.7947 0.85771 0.0
O266 O 0.92974 0.77486 0.87276 0.0
O267 O 0.90947 0.7309 0.86813 0.0
O268 O 0.92069 0.80929 0.86366 0.0
O269 O 0.89764 0.78579 0.85411 0.0
O270 O 0.86896 0.7377 0.8598 0.0
O271 O 0.86414 0.74581 0.84692 0.0
H272 H 0.93461 0.76493 0.82434 0.0
H273 H 0.9576 0.77388 0.81174 0.0
H274 H 0.93195 0.83804 0.80722 0.0
H275 H 0.90935 0.82919 0.81985 0.0
H276 H 0.90098 0.77255 0.88487 0.0
H277 H 0.88585 0.75664 0.898 0.0
H278 H 0.89468 0.68098 0.89396 0.0
H279 H 0.90941 0.6968 0.88082 0.0
La280 La 0.25289 0.14211 0.84332 0.0
La281 La 0.25964 0.15546 0.86099 0.0
C282 C 0.23559 0.12013 0.83024 0.0
C283 C 0.22955 0.1291 0.82275 0.0
C284 C 0.24514 0.15815 0.82023 0.0
C285 C 0.23978 0.16582 0.81299 0.0
C286 C 0.21857 0.14465 0.80811 0.0
C287 C 0.20279 0.11566 0.81073 0.0
C288 C 0.20824 0.10802 0.81795 0.0
C289 C 0.28847 0.1993 0.8462 0.0
C290 C 0.2136 0.16338 0.85161 0.0
C291 C 0.27923 0.17852 0.87391 0.0
C292 C 0.29052 0.1758 0.88146 0.0
C293 C 0.27399 0.15209 0.88635 0.0
C294 C 0.28277 0.15247 0.89393 0.0
C295 C 0.30829 0.17655 0.89684 0.0
C296 C 0.32532 0.19971 0.89183 0.0
C297 C 0.3165 0.19935 0.88426 0.0
C298 C 0.21606 0.10374 0.85704 0.0
C299 C 0.29379 0.12584 0.8532 0.0
O300 O 0.26293 0.13304 0.83244 0.0
O301 O 0.2179 0.117 0.83588 0.0
O302 O 0.28237 0.18768 0.83948 0.0
O303 O 0.27467 0.17848 0.8507 0.0
O304 O 0.21585 0.14766 0.84605 0.0
O305 O 0.23243 0.17374 0.85738 0.0
O306 O 0.25164 0.16077 0.87241 0.0
O307 O 0.2957 0.18398 0.86784 0.0
O308 O 0.21701 0.11752 0.86326 0.0
O309 O 0.24056 0.11746 0.85376 0.0
O310 O 0.28839 0.13664 0.85948 0.0
O311 O 0.28151 0.12495 0.8465 0.0
H312 H 0.26161 0.17491 0.82383 0.0
H313 H 0.25211 0.18841 0.81124 0.0
H314 H 0.18657 0.09865 0.80713 0.0
H315 H 0.19598 0.08547 0.81975 0.0
H316 H 0.25376 0.13362 0.88441 0.0
H317 H 0.2693 0.134 0.89755 0.0
H318 H 0.3449 0.2188 0.89383 0.0
H319 H 0.32947 0.21812 0.88067 0.0
La320 La 0.88237 0.11668 0.84409 0.0
La321 La 0.87128 0.11009 0.86079 0.0
C322 C 0.89717 0.11651 0.83032 0.0
C323 C 0.8864 0.09907 0.82319 0.0
C324 C 0.85805 0.0891 0.82041 0.0
C325 C 0.84948 0.07505 0.8133 0.0
C326 C 0.86898 0.07055 0.80881 0.0
C327 C 0.8971 0.08 0.81172 0.0
C328 C 0.90567 0.0941 0.8188 0.0
C329 C 0.82841 0.10326 0.84819 0.0
C330 C 0.86361 0.05555 0.85188 0.0
C331 C 0.8502 0.10677 0.874 0.0
C332 C 0.85224 0.12156 0.88139 0.0
C333 C 0.87676 0.13151 0.88617 0.0
C334 C 0.87604 0.14026 0.89369 0.0
C335 C 0.85081 0.13926 0.89666 0.0
C336 C 0.82679 0.13049 0.89175 0.0
C337 C 0.8275 0.12168 0.88423 0.0
C338 C 0.9234 0.11903 0.85698 0.0
C339 C 0.90147 0.17419 0.85333 0.0
O340 O 0.88353 0.12982 0.83273 0.0
O341 O 0.90453 0.10536 0.83595 0.0
O342 O 0.84284 0.11973 0.84253 0.0
O343 O 0.84359 0.0935 0.85104 0.0
O344 O 0.87637 0.07326 0.84606 0.0
O345 O 0.85491 0.06418 0.85793 0.0
O346 O 0.87053 0.10047 0.8724 0.0
O347 O 0.8412 0.11429 0.8679 0.0
O348 O 0.90869 0.10452 0.86289 0.0
O349 O 0.91028 0.13075 0.85388 0.0
O350 O 0.88608 0.15719 0.85912 0.0
O351 O 0.90641 0.16274 0.84718 0.0
H352 H 0.84264 0.09253 0.82366 0.0
H353 H 0.82753 0.06774 0.81131 0.0
H354 H 0.91288 0.07731 0.80841 0.0
H355 H 0.92771 0.10176 0.82078 0.0
H356 H 0.89617 0.13159 0.88419 0.0
H357 H 0.89515 0.14733 0.89724 0.0
H358 H 0.80686 0.1291 0.89381 0.0
H359 H 0.80811 0.1137 0.88074 0.0
La360 La 0.77271 0.90258 0.69681 0.0
La361 La 0.77045 0.90949 0.68009 0.0
C362 C 0.78575 0.9027 0.71075 0.0
C363 C 0.79312 0.92064 0.71782 0.0
C364 C 0.77267 0.92605 0.72151 0.0
C365 C 0.77896 0.94003 0.72864 0.0
C366 C 0.80582 0.9489 0.73229 0.0
C367 C 0.82651 0.94416 0.72847 0.0
C368 C 0.8202 0.93017 0.72136 0.0
C369 C 0.73277 0.91588 0.69212 0.0
C370 C 0.81582 0.96399 0.68924 0.0
C371 C 0.75448 0.9129 0.66667 0.0
C372 C 0.74336 0.89848 0.65912 0.0
C373 C 0.76263 0.89833 0.6536 0.0
C374 C 0.75358 0.89014 0.64604 0.0
C375 C 0.72501 0.8819 0.64376 0.0
C376 C 0.70536 0.88079 0.64935 0.0
C377 C 0.71447 0.88914 0.65692 0.0
C378 C 0.8131 0.9005 0.68435 0.0
C379 C 0.73539 0.84527 0.68749 0.0
O380 O 0.75909 0.89097 0.70816 0.0
O381 O 0.80485 0.91216 0.7052 0.0
O382 O 0.72934 0.8985 0.69767 0.0
O383 O 0.75828 0.92606 0.68964 0.0
O384 O 0.81025 0.9462 0.69507 0.0
O385 O 0.79918 0.95536 0.68307 0.0
O386 O 0.78107 0.92003 0.66858 0.0
O387 O 0.73695 0.90457 0.67258 0.0
O388 O 0.81368 0.91519 0.6784 0.0
O389 O 0.78786 0.88862 0.68723 0.0
O390 O 0.73782 0.86235 0.68164 0.0
O391 O 0.75101 0.8566 0.69374 0.0
H392 H 0.75147 0.91883 0.719 0.0
H393 H 0.76232 0.94297 0.7314 0.0
H394 H 0.84761 0.95108 0.73101 0.0
H395 H 0.83635 0.92618 0.71869 0.0
H396 H 0.78515 0.90567 0.65503 0.0
H397 H 0.76922 0.89085 0.64194 0.0
H398 H 0.68327 0.8748 0.6478 0.0
H399 H 0.6992 0.88952 0.66097 0.0
La400 La 0.11799 0.8726 0.69682 0.0
La401 La 0.1115 0.86258 0.68004 0.0
C402 C 0.11735 0.88667 0.71064 0.0
C403 C 0.09927 0.87621 0.71771 0.0
C404 C 0.09753 0.85306 0.72205 0.0
C405 C 0.08326 0.84572 0.72914 0.0
C406 C 0.07042 0.86139 0.73211 0.0
C407 C 0.07159 0.88407 0.72766 0.0
C408 C 0.08587 0.89142 0.72058 0.0
C409 C 0.10521 0.81914 0.69243 0.0
C410 C 0.05661 0.85317 0.68908 0.0
C411 C 0.10842 0.84274 0.66667 0.0
C412 C 0.12274 0.84623 0.65909 0.0
C413 C 0.1165 0.85979 0.65307 0.0
C414 C 0.12545 0.85895 0.64559 0.0
C415 C 0.14091 0.84443 0.64386 0.0
C416 C 0.14796 0.83161 0.64993 0.0
C417 C 0.13888 0.83237 0.65743 0.0
C418 C 0.12009 0.9143 0.68416 0.0
C419 C 0.17556 0.89219 0.68757 0.0
O420 O 0.12982 0.87218 0.70824 0.0
O421 O 0.10761 0.8954 0.70497 0.0
O422 O 0.12152 0.8333 0.69815 0.0
O423 O 0.09521 0.83427 0.68968 0.0
O424 O 0.07422 0.86579 0.69492 0.0
O425 O 0.06551 0.84511 0.68295 0.0
O426 O 0.10045 0.86163 0.66853 0.0
O427 O 0.11746 0.83443 0.67261 0.0
O428 O 0.10565 0.89994 0.6782 0.0
O429 O 0.13197 0.90111 0.68714 0.0
O430 O 0.15871 0.87796 0.68163 0.0
O431 O 0.16414 0.89619 0.69386 0.0
H432 H 0.10785 0.84102 0.72008 0.0
H433 H 0.0832 0.82836 0.7324 0.0
H434 H 0.06161 0.89638 0.72967 0.0
H435 H 0.087 0.90952 0.71743 0.0
H436 H 0.10355 0.87009 0.65407 0.0
H437 H 0.11907 0.86867 0.64112 0.0
H438 H 0.16016 0.82056 0.64889 0.0
H439 H 0.14373 0.8213 0.66189 0.0
La440 La 0.14821 0.24785 0.69669 0.0
La441 La 0.15732 0.25114 0.67983 0.0
C442 C 0.135 0.23358 0.71057 0.0
C443 C 0.14576 0.22617 0.71761 0.0
C444 C 0.16922 0.24767 0.72187 0.0
C445 C 0.17681 0.24096 0.72895 0.0
C446 C 0.1611 0.2126 0.73199 0.0
C447 C 0.13811 0.19098 0.72762 0.0
C448 C 0.13052 0.1977 0.72055 0.0
C449 C 0.20136 0.28832 0.69207 0.0
C450 C 0.16667 0.2054 0.68875 0.0
C451 C 0.17678 0.26779 0.66643 0.0
C452 C 0.17366 0.27911 0.6589 0.0
C453 C 0.15511 0.25983 0.65326 0.0
C454 C 0.15628 0.2692 0.64572 0.0
C455 C 0.17607 0.29812 0.64358 0.0
C456 C 0.19373 0.31774 0.64929 0.0
C457 C 0.19268 0.30831 0.65684 0.0
C458 C 0.10584 0.20821 0.68413 0.0
C459 C 0.1279 0.28548 0.68756 0.0
O460 O 0.14932 0.26046 0.70812 0.0
O461 O 0.126 0.21491 0.70492 0.0
O462 O 0.1877 0.29074 0.69787 0.0
O463 O 0.186 0.26311 0.68937 0.0
O464 O 0.15459 0.21068 0.69468 0.0
O465 O 0.17445 0.22222 0.68261 0.0
O466 O 0.15737 0.24108 0.66827 0.0
O467 O 0.18576 0.28508 0.6724 0.0
O468 O 0.11963 0.20797 0.67806 0.0
O469 O 0.11934 0.2333 0.68709 0.0
O470 O 0.14238 0.2833 0.68162 0.0
O471 O 0.12394 0.26978 0.69379 0.0
H472 H 0.1813 0.26993 0.71985 0.0
H473 H 0.19441 0.25833 0.73215 0.0
H474 H 0.12576 0.16879 0.72968 0.0
H475 H 0.1122 0.18067 0.71746 0.0
H476 H 0.14042 0.2371 0.65457 0.0
H477 H 0.14202 0.25355 0.64152 0.0
H478 H 0.20941 0.34011 0.64787 0.0
H479 H 0.20769 0.32363 0.66099 0.0
La480 La 0.78083 0.58671 0.51288 0.0
La481 La 0.78758 0.58364 0.5296 0.0
C482 C 0.77711 0.60331 0.49957 0.0
C483 C 0.79167 0.61738 0.49227 0.0
C484 C 0.80462 0.60552 0.48753 0.0
C485 C 0.81308 0.61573 0.48005 0.0
C486 C 0.80862 0.6379 0.47708 0.0
C487 C 0.79688 0.65058 0.48196 0.0
C488 C 0.78849 0.64042 0.48943 0.0
C489 C 0.78914 0.54351 0.51699 0.0
C490 C 0.84489 0.62088 0.52029 0.0
C491 C 0.78799 0.57061 0.5435 0.0
C492 C 0.77173 0.56592 0.55079 0.0
C493 C 0.78353 0.58721 0.55656 0.0
C494 C 0.7704 0.58213 0.56376 0.0
C495 C 0.74517 0.55546 0.56545 0.0
C496 C 0.73294 0.53436 0.55961 0.0
C497 C 0.7461 0.53948 0.55239 0.0
C498 C 0.77449 0.62401 0.52512 0.0
C499 C 0.72632 0.54062 0.52193 0.0
O500 O 0.77378 0.57773 0.50118 0.0
O501 O 0.78212 0.61943 0.50569 0.0
O502 O 0.7743 0.5432 0.51109 0.0
O503 O 0.80129 0.56865 0.51996 0.0
O504 O 0.82789 0.61931 0.5145 0.0
O505 O 0.8334 0.60456 0.52642 0.0
O506 O 0.80201 0.59716 0.54083 0.0
O507 O 0.77584 0.55137 0.53804 0.0
O508 O 0.79142 0.62679 0.53073 0.0
O509 O 0.76439 0.59866 0.52252 0.0
O510 O 0.744 0.54619 0.5278 0.0
O511 O 0.735 0.55718 0.51574 0.0
H512 H 0.80714 0.58753 0.48949 0.0
H513 H 0.82185 0.60526 0.47647 0.0
H514 H 0.79357 0.66802 0.47995 0.0
H515 H 0.77834 0.64982 0.49291 0.0
H516 H 0.80339 0.6077 0.55556 0.0
H517 H 0.78023 0.59911 0.56803 0.0
H518 H 0.71372 0.51345 0.5607 0.0
H519 H 0.73656 0.52241 0.54813 0.0
La520 La 0.43846 0.19862 0.51304 0.0
La521 La 0.44097 0.20775 0.5298 0.0
C522 C 0.42202 0.17877 0.49967 0.0
C523 C 0.40879 0.18021 0.49229 0.0
C524 C 0.42254 0.20478 0.48751 0.0
C525 C 0.41283 0.20366 0.47999 0.0
C526 C 0.38916 0.17793 0.47704 0.0
C527 C 0.37472 0.1538 0.48195 0.0
C528 C 0.38447 0.15492 0.48945 0.0
C529 C 0.48151 0.24999 0.51731 0.0
C530 C 0.40413 0.22837 0.52053 0.0
C531 C 0.45342 0.2203 0.5438 0.0
C532 C 0.45835 0.20878 0.55106 0.0
C533 C 0.43784 0.20064 0.55699 0.0
C534 C 0.44324 0.19277 0.56418 0.0
C535 C 0.46945 0.19299 0.56568 0.0
C536 C 0.48973 0.20049 0.55969 0.0
C537 C 0.4843 0.20837 0.55248 0.0
C538 C 0.40092 0.15452 0.52504 0.0
C539 C 0.48432 0.18994 0.5221 0.0
O540 O 0.44797 0.20022 0.50139 0.0
O541 O 0.40542 0.16812 0.50572 0.0
O542 O 0.48186 0.23572 0.51135 0.0
O543 O 0.45633 0.23691 0.52025 0.0
O544 O 0.40598 0.21327 0.51469 0.0
O545 O 0.42012 0.2328 0.52672 0.0
O546 O 0.42692 0.20732 0.54106 0.0
O547 O 0.47286 0.22816 0.53836 0.0
O548 O 0.39758 0.1684 0.53064 0.0
O549 O 0.42644 0.16993 0.52259 0.0
O550 O 0.47862 0.20191 0.52799 0.0
O551 O 0.46778 0.18209 0.5159 0.0
H552 H 0.44147 0.2246 0.48947 0.0
H553 H 0.42425 0.22287 0.47646 0.0
H554 H 0.35666 0.13349 0.4799 0.0
H555 H 0.37371 0.13547 0.49294 0.0
H556 H 0.41776 0.20096 0.55612 0.0
H557 H 0.42684 0.18667 0.56857 0.0
H558 H 0.51028 0.20122 0.56062 0.0
H559 H 0.50077 0.21481 0.54808 0.0
La560 La 0.82674 0.24408 0.51336 0.0
La561 La 0.81664 0.23782 0.53011 0.0
C562 C 0.84735 0.24721 0.5001 0.0
C563 C 0.84557 0.23234 0.49273 0.0
C564 C 0.82167 0.22327 0.48777 0.0
C565 C 0.82282 0.21456 0.48027 0.0
C566 C 0.84789 0.21471 0.47751 0.0
C567 C 0.87125 0.22258 0.48259 0.0
C568 C 0.87012 0.23136 0.49008 0.0
C569 C 0.77495 0.23535 0.51737 0.0
C570 C 0.79687 0.18013 0.52091 0.0
C571 C 0.80269 0.23808 0.54396 0.0
C572 C 0.81324 0.25556 0.55109 0.0
C573 C 0.84122 0.26489 0.55406 0.0
C574 C 0.84937 0.27864 0.56122 0.0
C575 C 0.82979 0.28345 0.56558 0.0
C576 C 0.80209 0.27474 0.56248 0.0
C577 C 0.79395 0.26094 0.55535 0.0
C578 C 0.87024 0.2511 0.52568 0.0
C579 C 0.83487 0.2988 0.52227 0.0
O580 O 0.82656 0.25284 0.50172 0.0
O581 O 0.85703 0.24045 0.5062 0.0
O582 O 0.78935 0.24972 0.5114 0.0
O583 O 0.78814 0.22363 0.52043 0.0
O584 O 0.81192 0.19698 0.51506 0.0
O585 O 0.79235 0.19174 0.52708 0.0
O586 O 0.81689 0.22544 0.54148 0.0
O587 O 0.79446 0.24863 0.53837 0.0
O588 O 0.85614 0.23434 0.53133 0.0
O589 O 0.85488 0.26095 0.52302 0.0
O590 O 0.82266 0.28129 0.52816 0.0
O591 O 0.84308 0.29 0.51615 0.0
H592 H 0.80244 0.2239 0.48958 0.0
H593 H 0.80419 0.20819 0.47658 0.0
H594 H 0.89105 0.2233 0.48069 0.0
H595 H 0.88908 0.23868 0.49371 0.0
H596 H 0.85665 0.26111 0.55092 0.0
H597 H 0.87102 0.2854 0.56334 0.0
H598 H 0.78625 0.27768 0.56568 0.0
H599 H 0.77216 0.25375 0.55324 0.0
La600 La 0.92278 0.43928 0.69486 0.0
La601 La 0.91896 0.4458 0.67813 0.0
C602 C 0.93992 0.43635 0.70818 0.0
C603 C 0.95096 0.45085 0.71573 0.0
C604 C 0.93145 0.44975 0.72137 0.0
C605 C 0.94071 0.45819 0.7289 0.0
C606 C 0.96975 0.46794 0.73106 0.0
C607 C 0.98957 0.47024 0.72536 0.0
C608 C 0.98025 0.46162 0.71781 0.0
C609 C 0.87942 0.4477 0.69092 0.0
C610 C 0.95656 0.50336 0.68739 0.0
C611 C 0.9046 0.44562 0.66431 0.0
C612 C 0.89807 0.42845 0.65712 0.0
C613 C 0.91864 0.42273 0.65363 0.0
C614 C 0.91317 0.40946 0.64641 0.0
C615 C 0.88705 0.40164 0.64248 0.0
C616 C 0.86619 0.40662 0.64612 0.0
C617 C 0.87168 0.41989 0.65332 0.0
C618 C 0.95988 0.43319 0.68244 0.0
C619 C 0.87711 0.3844 0.68583 0.0
O620 O 0.91298 0.4282 0.70638 0.0
O621 O 0.95715 0.44539 0.70221 0.0
O622 O 0.87961 0.43338 0.69687 0.0
O623 O 0.90436 0.45962 0.68785 0.0
O624 O 0.95487 0.48646 0.69321 0.0
O625 O 0.94041 0.4918 0.68122 0.0
O626 O 0.93146 0.45886 0.66679 0.0
O627 O 0.88584 0.43451 0.66991 0.0
O628 O 0.962 0.44962 0.67677 0.0
O629 O 0.9347 0.42306 0.68518 0.0
O630 O 0.88196 0.40208 0.68002 0.0
O631 O 0.8942 0.39327 0.69193 0.0
H632 H 0.90865 0.44128 0.72004 0.0
H633 H 0.9249 0.45653 0.73309 0.0
H634 H 1.01203 0.4774 0.7268 0.0
H635 H 0.99575 0.46224 0.71367 0.0
H636 H 0.93929 0.42915 0.65638 0.0
H637 H 0.9299 0.40627 0.6438 0.0
H638 H 0.8456 0.40045 0.64337 0.0
H639 H 0.85547 0.4241 0.65585 0.0
La640 La 0.57717 0.4834 0.69414 0.0
La641 La 0.57506 0.47724 0.67736 0.0
C642 C 0.57309 0.49533 0.70785 0.0
C643 C 0.56996 0.50109 0.71602 0.0
C644 C 0.55429 0.47768 0.72105 0.0
C645 C 0.55061 0.48261 0.72872 0.0
C646 C 0.5625 0.51112 0.73161 0.0
C647 C 0.57844 0.5346 0.72658 0.0
C648 C 0.58207 0.52964 0.71887 0.0
C649 C 0.57193 0.43374 0.68936 0.0
C650 C 0.51641 0.45737 0.68553 0.0
C651 C 0.57776 0.46572 0.66343 0.0
C652 C 0.59454 0.47819 0.65625 0.0
C653 C 0.58278 0.48762 0.65048 0.0
C654 C 0.5962 0.49603 0.64332 0.0
C655 C 0.62172 0.49504 0.64169 0.0
C656 C 0.63395 0.48632 0.64754 0.0
C657 C 0.62048 0.47789 0.65472 0.0
C658 C 0.58528 0.52944 0.68227 0.0
C659 C 0.63443 0.49398 0.68622 0.0
O660 O 0.56249 0.46881 0.70525 0.0
O661 O 0.58636 0.51561 0.70266 0.0
O662 O 0.58644 0.44798 0.69534 0.0
O663 O 0.55931 0.44639 0.68649 0.0
O664 O 0.53279 0.47461 0.69113 0.0
O665 O 0.52876 0.45082 0.67991 0.0
O666 O 0.56222 0.4768 0.666 0.0
O667 O 0.59003 0.45924 0.66898 0.0
O668 O 0.5704 0.51599 0.67629 0.0
O669 O 0.59521 0.51425 0.68502 0.0
O670 O 0.61899 0.48512 0.67984 0.0
O671 O 0.62343 0.4981 0.6926 0.0
H672 H 0.54471 0.45539 0.71907 0.0
H673 H 0.53865 0.46395 0.73241 0.0
H674 H 0.58772 0.55686 0.72856 0.0
H675 H 0.59421 0.54815 0.71515 0.0
H676 H 0.56266 0.48782 0.65143 0.0
H677 H 0.58635 0.50305 0.63903 0.0
H678 H 0.65339 0.48498 0.64649 0.0
H679 H 0.62998 0.47038 0.65898 0.0
La680 La 0.53501 0.09842 0.69436 0.0
La681 La 0.54417 0.09937 0.67759 0.0
C682 C 0.51482 0.08292 0.70773 0.0
C683 C 0.51562 0.06938 0.7151 0.0
C684 C 0.54049 0.0818 0.7198 0.0
C685 C 0.53902 0.07187 0.72731 0.0
C686 C 0.51261 0.04943 0.73033 0.0
C687 C 0.48813 0.03625 0.72548 0.0
C688 C 0.48963 0.04614 0.71799 0.0
C689 C 0.58658 0.14056 0.68996 0.0
C690 C 0.56323 0.06204 0.68727 0.0
C691 C 0.55738 0.11137 0.66362 0.0
C692 C 0.54643 0.11705 0.65635 0.0
C693 C 0.53689 0.09622 0.65047 0.0
C694 C 0.52924 0.10201 0.64331 0.0
C695 C 0.53109 0.12896 0.64176 0.0
C696 C 0.54007 0.14964 0.64771 0.0
C697 C 0.54773 0.14381 0.6549 0.0
C698 C 0.49073 0.0601 0.68235 0.0
C699 C 0.52681 0.14376 0.68495 0.0
O700 O 0.53695 0.10845 0.706 0.0
O701 O 0.50367 0.0663 0.7017 0.0
O702 O 0.57231 0.14181 0.69582 0.0
O703 O 0.57326 0.11509 0.68717 0.0
O704 O 0.54992 0.06615 0.69318 0.0
O705 O 0.56696 0.07626 0.68079 0.0
O706 O 0.54315 0.08492 0.66635 0.0
O707 O 0.5662 0.13092 0.66905 0.0
O708 O 0.50438 0.05652 0.67674 0.0
O709 O 0.50638 0.08568 0.68477 0.0
O710 O 0.53831 0.13719 0.67911 0.0
O711 O 0.51916 0.12802 0.69128 0.0
H712 H 0.56082 0.09996 0.7178 0.0
H713 H 0.55829 0.08272 0.73086 0.0
H714 H 0.46755 0.01859 0.72752 0.0
H715 H 0.47003 0.0363 0.71454 0.0
H716 H 0.53587 0.0755 0.65136 0.0
H717 H 0.52198 0.0853 0.63895 0.0
H718 H 0.54207 0.17074 0.64675 0.0
H719 H 0.55527 0.16054 0.65926 0.0
La720 La 0.57459 0.10305 0.17729 0.0
La721 La 0.57637 0.09907 0.19408 0.0
C722 C 0.57805 0.11762 0.16337 0.0
C723 C 0.59582 0.12308 0.15632 0.0
C724 C 0.58756 0.10097 0.15081 0.0
C725 C 0.60165 0.10679 0.14372 0.0
C726 C 0.62431 0.13498 0.14189 0.0
C727 C 0.63304 0.15697 0.14748 0.0
C728 C 0.61895 0.15112 0.15458 0.0
C729 C 0.58459 0.06105 0.18219 0.0
C730 C 0.63395 0.14544 0.18621 0.0
C731 C 0.57227 0.08291 0.20776 0.0
C732 C 0.56923 0.07395 0.21592 0.0
C733 C 0.55483 0.08281 0.22109 0.0
C734 C 0.55117 0.07406 0.22874 0.0
C735 C 0.56181 0.05618 0.23148 0.0
C736 C 0.57651 0.04754 0.22631 0.0
C737 C 0.58011 0.05626 0.21862 0.0
C738 C 0.57146 0.14358 0.18927 0.0
C739 C 0.51549 0.06456 0.18536 0.0
O740 O 0.56322 0.09081 0.16584 0.0
O741 O 0.58905 0.13626 0.16901 0.0
O742 O 0.56977 0.0596 0.17621 0.0
O743 O 0.59453 0.08615 0.18499 0.0
O744 O 0.61864 0.13881 0.17981 0.0
O745 O 0.62275 0.13045 0.19258 0.0
O746 O 0.56291 0.10001 0.20529 0.0
O747 O 0.58431 0.07483 0.20247 0.0
O748 O 0.58593 0.14386 0.19525 0.0
O749 O 0.55873 0.11823 0.18642 0.0
O750 O 0.53155 0.06417 0.19111 0.0
O751 O 0.52812 0.08283 0.17965 0.0
H752 H 0.5695 0.07925 0.15188 0.0
H753 H 0.59396 0.08936 0.13956 0.0
H754 H 0.65062 0.17885 0.14633 0.0
H755 H 0.62573 0.1688 0.15863 0.0
H756 H 0.54623 0.0965 0.21923 0.0
H757 H 0.5402 0.08161 0.23254 0.0
H758 H 0.58479 0.03357 0.22817 0.0
H759 H 0.59125 0.049 0.21479 0.0
La760 La 0.91957 0.47738 0.17788 0.0
La761 La 0.92385 0.48782 0.19464 0.0
C762 C 0.90473 0.46294 0.16408 0.0
C763 C 0.89809 0.47359 0.15694 0.0
C764 C 0.91692 0.50157 0.154 0.0
C765 C 0.91155 0.50985 0.14684 0.0
C766 C 0.8872 0.49039 0.14244 0.0
C767 C 0.86807 0.46268 0.14551 0.0
C768 C 0.87349 0.45442 0.15265 0.0
C769 C 0.96028 0.53106 0.18214 0.0
C770 C 0.87755 0.4965 0.18578 0.0
C771 C 0.94133 0.50829 0.20791 0.0
C772 C 0.95453 0.50666 0.21527 0.0
C773 C 0.94059 0.48212 0.22005 0.0
C774 C 0.95032 0.48314 0.22756 0.0
C775 C 0.97419 0.50874 0.2305 0.0
C776 C 0.98884 0.53281 0.22558 0.0
C777 C 0.97908 0.53179 0.21808 0.0
C778 C 0.88032 0.43615 0.19065 0.0
C779 C 0.95765 0.45775 0.18702 0.0
O780 O 0.93168 0.4766 0.1665 0.0
O781 O 0.88616 0.45549 0.16972 0.0
O782 O 0.96231 0.51686 0.17641 0.0
O783 O 0.93528 0.51584 0.18497 0.0
O784 O 0.88252 0.48398 0.17989 0.0
O785 O 0.89461 0.5046 0.19188 0.0
O786 O 0.91498 0.48735 0.2063 0.0
O787 O 0.95773 0.51813 0.20181 0.0
O788 O 0.88047 0.4508 0.19658 0.0
O789 O 0.90531 0.44909 0.1876 0.0
O790 O 0.95604 0.47294 0.19287 0.0
O791 O 0.94137 0.4531 0.18088 0.0
H792 H 0.93608 0.51691 0.15716 0.0
H793 H 0.92656 0.5315 0.14474 0.0
H794 H 0.84932 0.44693 0.14229 0.0
H795 H 0.85877 0.43264 0.15473 0.0
H796 H 0.92151 0.46242 0.2181 0.0
H797 H 0.93874 0.46398 0.23111 0.0
H798 H 1.00707 0.55302 0.22762 0.0
H799 H 0.98999 0.55121 0.21459 0.0
La800 La 0.54619 0.45026 0.17731 0.0
La801 La 0.53552 0.4438 0.19409 0.0
C802 C 0.56097 0.45013 0.16354 0.0
C803 C 0.5506 0.43264 0.15641 0.0
C804 C 0.52223 0.42215 0.15357 0.0
C805 C 0.51407 0.40821 0.14644 0.0
C806 C 0.53403 0.40433 0.14197 0.0
C807 C 0.56216 0.41425 0.14494 0.0
C808 C 0.57031 0.42824 0.15204 0.0
C809 C 0.49242 0.43692 0.18155 0.0
C810 C 0.52728 0.38907 0.18512 0.0
C811 C 0.51462 0.44018 0.20733 0.0
C812 C 0.51522 0.45451 0.21469 0.0
C813 C 0.54032 0.46795 0.21931 0.0
C814 C 0.53877 0.47621 0.22684 0.0
C815 C 0.51207 0.47102 0.22997 0.0
C816 C 0.48734 0.45879 0.22521 0.0
C817 C 0.48891 0.45062 0.21769 0.0
C818 C 0.58728 0.45228 0.19011 0.0
C819 C 0.56544 0.50777 0.18658 0.0
O820 O 0.54679 0.46293 0.16594 0.0
O821 O 0.56876 0.43942 0.16919 0.0
O822 O 0.50657 0.45325 0.17585 0.0
O823 O 0.50775 0.42727 0.18436 0.0
O824 O 0.53961 0.40661 0.17924 0.0
O825 O 0.51924 0.3979 0.19126 0.0
O826 O 0.53638 0.43598 0.20577 0.0
O827 O 0.50437 0.44613 0.20121 0.0
O828 O 0.57264 0.43766 0.19603 0.0
O829 O 0.57425 0.46423 0.18708 0.0
O830 O 0.55025 0.49085 0.19241 0.0
O831 O 0.57016 0.4963 0.18041 0.0
H832 H 0.50648 0.42515 0.1568 0.0
H833 H 0.4921 0.40053 0.14442 0.0
H834 H 0.57829 0.41205 0.14166 0.0
H835 H 0.59237 0.4363 0.15406 0.0
H836 H 0.56091 0.47103 0.21721 0.0
H837 H 0.55826 0.4854 0.23032 0.0
H838 H 0.46651 0.45491 0.22735 0.0
H839 H 0.46916 0.44009 0.21431 0.0
La840 La 0.44246 0.23813 0.02979 0.0
La841 La 0.43836 0.24429 1.013 0.0
C842 C 0.45716 0.23859 0.04359 0.0
C843 C 0.46376 0.25596 0.05075 0.0
C844 C 0.44286 0.26086 0.05437 0.0
C845 C 0.44851 0.27437 0.06156 0.0
C846 C 0.47516 0.28328 0.06533 0.0
C847 C 0.49631 0.27909 0.06157 0.0
C848 C 0.49064 0.26556 0.0544 0.0
C849 C 0.40197 0.25129 0.02551 0.0
C850 C 0.48481 0.29915 0.02191 0.0
C851 C 0.42104 0.24746 0.99973 0.0
C852 C 0.40781 0.2328 0.99235 0.0
C853 C 0.42126 0.22149 0.98761 0.0
C854 C 0.41161 0.21292 0.98009 0.0
C855 C 0.38833 0.21551 0.97708 0.0
C856 C 0.37415 0.22565 0.98196 0.0
C857 C 0.38382 0.23424 0.98947 0.0
C858 C 0.48156 0.23575 1.01702 0.0
C859 C 0.40427 0.18045 0.02059 0.0
O860 O 0.43023 0.22518 0.04114 0.0
O861 O 0.47578 0.24961 0.03796 0.0
O862 O 0.39983 0.23508 0.03124 0.0
O863 O 0.42698 0.26097 0.02269 0.0
O864 O 0.47968 0.28166 0.02779 0.0
O865 O 0.46781 0.29026 1.0158 0.0
O866 O 0.44729 0.25261 1.00134 0.0
O867 O 0.40461 0.24097 1.00583 0.0
O868 O 0.48161 0.25019 1.01107 0.0
O869 O 0.45656 0.22396 1.02005 0.0
O870 O 0.406 0.19727 1.01474 0.0
O871 O 0.42053 0.19204 0.02674 0.0
H872 H 0.42183 0.25362 0.05175 0.0
H873 H 0.43154 0.27692 0.06427 0.0
H874 H 0.51729 0.28609 0.0642 0.0
H875 H 0.50713 0.262 0.05177 0.0
H876 H 0.43991 0.22019 0.98961 0.0
H877 H 0.4228 0.20476 0.97657 0.0
H878 H 0.35638 0.22831 0.97988 0.0
H879 H 0.3733 0.24329 0.99293 0.0
La880 La 0.78798 0.20972 0.02952 0.0
La881 La 0.78158 0.19906 1.0128 0.0
C882 C 0.78768 0.22385 0.04336 0.0
C883 C 0.7708 0.21229 0.05057 0.0
C884 C 0.77834 0.19712 0.05583 0.0
C885 C 0.76473 0.18896 0.06298 0.0
C886 C 0.74331 0.19593 0.06513 0.0
C887 C 0.7354 0.21067 0.05981 0.0
C888 C 0.749 0.2188 0.05264 0.0
C889 C 0.77489 0.15596 0.02532 0.0
C890 C 0.72686 0.19087 0.02172 0.0
C891 C 0.77838 0.17832 0.99955 0.0
C892 C 0.79316 0.18033 0.99216 0.0
C893 C 0.80339 0.20494 0.98742 0.0
C894 C 0.81205 0.20422 0.97989 0.0
C895 C 0.81067 0.17887 0.97688 0.0
C896 C 0.80166 0.15474 0.98176 0.0
C897 C 0.79295 0.15546 0.98928 0.0
C898 C 0.79008 0.25091 1.01674 0.0
C899 C 0.84559 0.22936 1.02031 0.0
O900 O 0.80209 0.21149 0.04082 0.0
O901 O 0.77575 0.23062 0.03778 0.0
O902 O 0.79125 0.1703 0.031 0.0
O903 O 0.76504 0.17109 0.0225 0.0
O904 O 0.74453 0.20366 0.02755 0.0
O905 O 0.73561 0.18237 1.01565 0.0
O906 O 0.7723 0.19878 1.00118 0.0
O907 O 0.78568 0.16905 1.00563 0.0
O908 O 0.77564 0.23631 1.0108 0.0
O909 O 0.80196 0.23788 1.01979 0.0
O910 O 0.8287 0.21396 1.0145 0.0
O911 O 0.834 0.23422 0.02644 0.0
H912 H 0.79537 0.19216 0.05451 0.0
H913 H 0.77177 0.17804 0.06694 0.0
H914 H 0.71877 0.21612 0.06119 0.0
H915 H 0.74282 0.23073 0.04878 0.0
H916 H 0.80373 0.22445 0.98943 0.0
H917 H 0.81932 0.22341 0.97637 0.0
H918 H 0.79998 0.13472 0.97966 0.0
H919 H 0.78475 0.13601 0.99274 0.0
La920 La 0.81631 0.58362 0.03013 0.0
La921 La 0.82639 0.58788 1.0133 0.0
C922 C 0.80205 0.56868 0.04392 0.0
C923 C 0.81257 0.56174 0.05106 0.0
C924 C 0.83879 0.58212 0.05461 0.0
C925 C 0.84641 0.5763 0.0618 0.0
C926 C 0.82801 0.55 0.06565 0.0
C927 C 0.80226 0.52933 0.06195 0.0
C928 C 0.79464 0.53517 0.05478 0.0
C929 C 0.8699 0.62415 0.0258 0.0
C930 C 0.83487 0.54135 0.02209 0.0
C931 C 0.84687 0.60543 1.00004 0.0
C932 C 0.84534 0.61856 0.99266 0.0
C933 C 0.82073 0.60474 0.98789 0.0
C934 C 0.82181 0.61437 0.98037 0.0
C935 C 0.84751 0.63802 0.9774 0.0
C936 C 0.87167 0.65253 0.98231 0.0
C937 C 0.87059 0.64287 0.98982 0.0
C938 C 0.77477 0.54463 1.01736 0.0
C939 C 0.7966 0.62184 0.02104 0.0
O940 O 0.81586 0.59565 0.04153 0.0
O941 O 0.79428 0.55017 0.03826 0.0
O942 O 0.85596 0.62618 0.03159 0.0
O943 O 0.85452 0.59919 0.02296 0.0
O944 O 0.82263 0.54644 0.02802 0.0
O945 O 0.84293 0.55843 1.016 0.0
O946 O 0.82598 0.57906 1.00163 0.0
O947 O 0.85661 0.62187 1.00615 0.0
O948 O 0.78906 0.54467 1.01136 0.0
O949 O 0.78798 0.56959 1.02042 0.0
O950 O 0.81118 0.61977 1.0151 0.0
O951 O 0.79243 0.60596 0.02723 0.0
H952 H 0.85308 0.6029 0.05194 0.0
H953 H 0.86628 0.5929 0.06446 0.0
H954 H 0.78775 0.50862 0.06462 0.0
H955 H 0.77427 0.5191 0.0522 0.0
H956 H 0.80093 0.58583 0.98986 0.0
H957 H 0.80258 0.60291 0.97683 0.0
H958 H 0.89197 0.67058 0.98025 0.0
H959 H 0.89006 0.65368 0.9933 0.0
La960 La 0.44868 0.92082 0.84655 0.0
La961 La 0.45525 0.91885 0.86333 0.0
C962 C 0.44493 0.93617 0.8331 0.0
C963 C 0.45926 0.95071 0.82581 0.0
C964 C 0.47325 0.93988 0.8211 0.0
C965 C 0.4814 0.9502 0.81361 0.0
C966 C 0.47555 0.97143 0.81061 0.0
C967 C 0.46279 0.98313 0.81547 0.0
C968 C 0.45473 0.97287 0.82295 0.0
C969 C 0.45694 0.87805 0.85107 0.0
C970 C 0.5127 0.95611 0.85403 0.0
C971 C 0.45504 0.90587 0.87728 0.0
C972 C 0.43719 0.89879 0.88436 0.0
C973 C 0.43141 0.91922 0.88791 0.0
C974 C 0.41743 0.9132 0.89504 0.0
C975 C 0.40883 0.88662 0.8988 0.0
C976 C 0.414 0.86597 0.89512 0.0
C977 C 0.42804 0.87202 0.88802 0.0
C978 C 0.44201 0.95872 0.85854 0.0
C979 C 0.39397 0.87522 0.85563 0.0
O980 O 0.44361 0.91155 0.83484 0.0
O981 O 0.44812 0.95209 0.83915 0.0
O982 O 0.44156 0.87689 0.8452 0.0
O983 O 0.4693 0.90352 0.85383 0.0
O984 O 0.49567 0.95377 0.84817 0.0
O985 O 0.50128 0.9405 0.86028 0.0
O986 O 0.46708 0.93251 0.87468 0.0
O987 O 0.44529 0.8867 0.87175 0.0
O988 O 0.45896 0.962 0.8642 0.0
O989 O 0.43204 0.93322 0.85606 0.0
O990 O 0.41145 0.88145 0.86158 0.0
O991 O 0.40283 0.89115 0.84934 0.0
H992 H 0.47681 0.92256 0.82308 0.0
H993 H 0.49099 0.94049 0.81004 0.0
H994 H 0.4584 0.99985 0.81344 0.0
H995 H 0.44374 0.98145 0.8264 0.0
H996 H 0.43819 0.94012 0.88528 0.0
H997 H 0.41348 0.9295 0.89762 0.0
H998 H 0.40809 0.84542 0.89785 0.0
H999 H 0.43249 0.85599 0.88548 0.0
La1000 La 0.10529 0.53341 0.84692 0.0
La1001 La 0.10928 0.54381 0.8637 0.0
C1002 C 0.08825 0.51295 0.83362 0.0
C1003 C 0.07763 0.51619 0.826 0.0
C1004 C 0.0974 0.52795 0.81988 0.0
C1005 C 0.08761 0.52676 0.8124 0.0
C1006 C 0.05764 0.51366 0.81075 0.0
C1007 C 0.03785 0.50267 0.81691 0.0
C1008 C 0.0477 0.50378 0.82442 0.0
C1009 C 0.14818 0.58543 0.85088 0.0
C1010 C 0.07102 0.56321 0.85452 0.0
C1011 C 0.12389 0.55803 0.87752 0.0
C1012 C 0.1309 0.54762 0.88465 0.0
C1013 C 0.11111 0.52079 0.88804 0.0
C1014 C 0.11701 0.51308 0.89521 0.0
C1015 C 0.14279 0.53202 0.89919 0.0
C1016 C 0.16287 0.55844 0.89567 0.0
C1017 C 0.15696 0.56612 0.88852 0.0
C1018 C 0.06892 0.48997 0.85936 0.0
C1019 C 0.15186 0.52555 0.85581 0.0
O1020 O 0.11524 0.53159 0.83543 0.0
O1021 O 0.0709 0.5053 0.83957 0.0
O1022 O 0.14816 0.57115 0.84489 0.0
O1023 O 0.12332 0.57206 0.85398 0.0
O1024 O 0.0732 0.5485 0.84862 0.0
O1025 O 0.08689 0.56756 0.86073 0.0
O1026 O 0.09697 0.54403 0.87509 0.0
O1027 O 0.1425 0.56595 0.87188 0.0
O1028 O 0.06669 0.50399 0.8651 0.0
O1029 O 0.09399 0.50541 0.8566 0.0
O1030 O 0.14727 0.53883 0.86158 0.0
O1031 O 0.13392 0.51608 0.84989 0.0
H1032 H 0.12057 0.53707 0.82083 0.0
H1033 H 0.10362 0.53502 0.80786 0.0
H1034 H 1.01464 0.49277 0.81593 0.0
H1035 H 0.03177 0.49411 0.82895 0.0
H1036 H 0.09074 0.50603 0.88524 0.0
H1037 H 0.10087 0.49268 0.89773 0.0
H1038 H 0.1832 0.57339 0.89846 0.0
H1039 H 0.17257 0.58696 0.88607 0.0
La1040 La 0.49353 0.57739 0.84743 0.0
La1041 La 0.48295 0.57068 0.86412 0.0
C1042 C 0.51481 0.58144 0.83423 0.0
C1043 C 0.51483 0.56753 0.82684 0.0
C1044 C 0.49181 0.5584 0.82158 0.0
C1045 C 0.49476 0.55088 0.81408 0.0
C1046 C 0.52086 0.55248 0.81162 0.0
C1047 C 0.54331 0.56034 0.817 0.0
C1048 C 0.54035 0.56782 0.82449 0.0
C1049 C 0.44156 0.56832 0.85139 0.0
C1050 C 0.46393 0.51322 0.85488 0.0
C1051 C 0.46896 0.57108 0.87796 0.0
C1052 C 0.48025 0.58857 0.88511 0.0
C1053 C 0.49594 0.58197 0.89044 0.0
C1054 C 0.5039 0.59614 0.89753 0.0
C1055 C 0.49625 0.6172 0.89953 0.0
C1056 C 0.48104 0.6242 0.89412 0.0
C1057 C 0.47307 0.61001 0.88703 0.0
C1058 C 0.53698 0.58471 0.85985 0.0
C1059 C 0.50055 0.63149 0.85632 0.0
O1060 O 0.49285 0.58539 0.83575 0.0
O1061 O 0.52495 0.57545 0.84036 0.0
O1062 O 0.45634 0.58352 0.84556 0.0
O1063 O 0.45464 0.55637 0.85439 0.0
O1064 O 0.47877 0.53024 0.84903 0.0
O1065 O 0.45932 0.52459 0.86109 0.0
O1066 O 0.48219 0.55746 0.87547 0.0
O1067 O 0.46129 0.58206 0.87235 0.0
O1068 O 0.52291 0.56817 0.86553 0.0
O1069 O 0.52142 0.59422 0.85712 0.0
O1070 O 0.4876 0.61357 0.86209 0.0
O1071 O 0.50989 0.6232 0.85034 0.0
H1072 H 0.47196 0.55825 0.82315 0.0
H1073 H 0.47706 0.54518 0.81011 0.0
H1074 H 0.56352 0.56133 0.81539 0.0
H1075 H 0.5586 0.57507 0.82837 0.0
H1076 H 0.50159 0.56537 0.88922 0.0
H1077 H 0.51596 0.59041 0.90147 0.0
H1078 H 0.47439 0.63999 0.89547 0.0
H1079 H 0.46061 0.61536 0.88312 0.0
La1080 La 0.59334 0.77645 0.02815 0.0
La1081 La 0.58619 0.78279 1.01052 0.0
C1082 C 0.61271 0.77276 0.04108 0.0
C1083 C 0.62151 0.78579 0.04886 0.0
C1084 C 0.60117 0.77518 0.05487 0.0
C1085 C 0.6099 0.78374 0.06243 0.0
C1086 C 0.63931 0.80314 0.06424 0.0
C1087 C 0.65957 0.81437 0.0582 0.0
C1088 C 0.65082 0.80572 0.05062 0.0
C1089 C 0.54969 0.78461 0.02436 0.0
C1090 C 0.62684 0.84018 1.02039 0.0
C1091 C 0.56947 0.78763 0.99741 0.0
C1092 C 0.56431 0.7731 0.98984 0.0
C1093 C 0.58037 0.78935 0.98349 0.0
C1094 C 0.57538 0.77658 0.97623 0.0
C1095 C 0.55398 0.74717 0.9751 0.0
C1096 C 0.53803 0.73084 0.98149 0.0
C1097 C 0.54312 0.74362 0.98876 0.0
C1098 C 0.6221 0.76152 1.01333 0.0
C1099 C 0.54716 0.72243 1.01874 0.0
O1100 O 0.58503 0.76029 0.03932 0.0
O1101 O 0.62949 0.78627 0.03521 0.0
O1102 O 0.5511 0.77242 0.03064 0.0
O1103 O 0.57394 0.79509 0.02098 0.0
O1104 O 0.62234 0.82404 0.02663 0.0
O1105 O 0.61394 0.8286 1.01377 0.0
O1106 O 0.59668 0.80257 0.99971 0.0
O1107 O 0.55158 0.77291 1.003 0.0
O1108 O 0.61576 0.76681 1.00662 0.0
O1109 O 0.60837 0.76858 1.01785 0.0
O1110 O 0.54906 0.7404 1.01324 0.0
O1111 O 0.56635 0.73096 0.02442 0.0
H1112 H 0.57853 0.7593 0.05379 0.0
H1113 H 0.59363 0.77414 0.06688 0.0
H1114 H 0.68234 0.82963 0.05932 0.0
H1115 H 0.66719 0.81403 0.04616 0.0
H1116 H 0.59681 0.8121 0.98413 0.0
H1117 H 0.58851 0.78981 0.97151 0.0
H1118 H 0.52113 0.70827 0.98086 0.0
H1119 H 0.53025 0.73042 0.99352 0.0
La1120 La 0.24942 0.82163 0.02766 0.0
La1121 La 0.24306 0.8109 1.01089 0.0
C1122 C 0.25287 0.84263 0.04088 0.0
C1123 C 0.23829 0.84152 0.04825 0.0
C1124 C 0.22754 0.8172 0.05312 0.0
C1125 C 0.21918 0.81877 0.06064 0.0
C1126 C 0.22152 0.84474 0.06351 0.0
C1127 C 0.23102 0.86855 0.05849 0.0
C1128 C 0.23933 0.86696 0.05099 0.0
C1129 C 0.24043 0.76966 0.02375 0.0
C1130 C 0.18552 0.79196 1.0201 0.0
C1131 C 0.24314 0.7962 0.9971 0.0
C1132 C 0.26042 0.80657 0.98994 0.0
C1133 C 0.26958 0.83442 0.98692 0.0
C1134 C 0.28311 0.84236 0.97973 0.0
C1135 C 0.28777 0.82264 0.97539 0.0
C1136 C 0.27933 0.79512 0.97856 0.0
C1137 C 0.26581 0.78721 0.98572 0.0
C1138 C 0.2566 0.86475 1.01514 0.0
C1139 C 0.30398 0.82913 1.01878 0.0
O1140 O 0.25788 0.82139 0.03932 0.0
O1141 O 0.24641 0.85243 0.03476 0.0
O1142 O 0.25491 0.78416 0.02969 0.0
O1143 O 0.22881 0.78288 0.02065 0.0
O1144 O 0.20244 0.80715 0.02593 0.0
O1145 O 0.19699 0.78706 1.01395 0.0
O1146 O 0.23019 0.81019 0.99953 0.0
O1147 O 0.25407 0.78856 1.00273 0.0
O1148 O 0.24025 0.85062 1.00943 0.0
O1149 O 0.26621 0.84935 1.01793 0.0
O1150 O 0.2864 0.81673 1.0129 0.0
O1151 O 0.2953 0.83765 0.02486 0.0
H1152 H 0.22671 0.79732 0.05125 0.0
H1153 H 0.21219 0.80002 0.06432 0.0
H1154 H 0.23265 0.88874 0.06042 0.0
H1155 H 0.24778 0.88615 0.04741 0.0
H1156 H 0.26568 0.84985 0.99002 0.0
H1157 H 0.28905 0.86364 0.97749 0.0
H1158 H 0.28302 0.77951 0.97548 0.0
H1159 H 0.25896 0.76561 0.9879 0.0
La1160 La 0.20465 0.43368 0.02784 0.0
La1161 La 0.21534 0.43791 1.01111 0.0
C1162 C 0.1841 0.4163 0.04112 0.0
C1163 C 0.18744 0.40547 0.0487 0.0
C1164 C 0.20582 0.4251 0.05431 0.0
C1165 C 0.20479 0.41605 0.06188 0.0
C1166 C 0.18533 0.38712 0.06408 0.0
C1167 C 0.16787 0.36716 0.0584 0.0
C1168 C 0.16878 0.37627 0.05082 0.0
C1169 C 0.25675 0.47684 0.02401 0.0
C1170 C 0.23474 0.39976 1.02029 0.0
C1171 C 0.22969 0.45258 0.99731 0.0
C1172 C 0.21891 0.45926 0.99019 0.0
C1173 C 0.19135 0.43986 0.9871 0.0
C1174 C 0.18303 0.44541 0.97997 0.0
C1175 C 0.202 0.47052 0.97577 0.0
C1176 C 0.22926 0.4902 0.97899 0.0
C1177 C 0.23758 0.48459 0.98609 0.0
C1178 C 0.16156 0.39718 1.01535 0.0
C1179 C 0.19612 0.47988 1.01893 0.0
O1180 O 0.20265 0.44333 0.03934 0.0
O1181 O 0.17644 0.39908 0.03515 0.0
O1182 O 0.24222 0.47652 0.02998 0.0
O1183 O 0.24356 0.45205 0.02086 0.0
O1184 O 0.21951 0.40144 0.02612 0.0
O1185 O 0.23953 0.41605 1.01415 0.0
O1186 O 0.216 0.42567 0.99974 0.0
O1187 O 0.23734 0.4712 1.00295 0.0
O1188 O 0.17587 0.39509 1.00966 0.0
O1189 O 0.17675 0.42225 1.01814 0.0
O1190 O 0.20914 0.47518 1.01311 0.0
O1191 O 0.18748 0.46248 0.02495 0.0
H1192 H 0.22027 0.44784 0.05295 0.0
H1193 H 0.21889 0.43196 0.06605 0.0
H1194 H 0.15244 0.34478 0.05987 0.0
H1195 H 0.15392 0.36069 0.0467 0.0
H1196 H 0.17639 0.42012 0.99011 0.0
H1197 H 0.16172 0.42995 0.97775 0.0
H1198 H 0.24464 0.50957 0.97591 0.0
H1199 H 0.25904 0.49978 0.98829 0.0
La1200 La 0.24281 0.43618 0.51094 0.0
La1201 La 0.24973 0.43318 0.52773 0.0
C1202 C 0.24269 0.45033 0.49712 0.0
C1203 C 0.2602 0.4575 0.48998 0.0
C1204 C 0.267 0.43764 0.48652 0.0
C1205 C 0.28061 0.44361 0.47934 0.0
C1206 C 0.28771 0.46955 0.47542 0.0
C1207 C 0.28162 0.48971 0.47902 0.0
C1208 C 0.268 0.48372 0.48618 0.0
C1209 C 0.25612 0.39591 0.51531 0.0
C1210 C 0.30422 0.47889 0.51862 0.0
C1211 C 0.2534 0.41699 0.54111 0.0
C1212 C 0.23942 0.40635 0.54872 0.0
C1213 C 0.24768 0.42608 0.55485 0.0
C1214 C 0.23885 0.41629 0.56233 0.0
C1215 C 0.22148 0.38635 0.56394 0.0
C1216 C 0.21248 0.36662 0.55777 0.0
C1217 C 0.22144 0.37646 0.55026 0.0
C1218 C 0.24046 0.47577 0.52356 0.0
C1219 C 0.18551 0.39804 0.52032 0.0
O1220 O 0.23029 0.42348 0.49958 0.0
O1221 O 0.25302 0.46909 0.50273 0.0
O1222 O 0.23972 0.39356 0.50961 0.0
O1223 O 0.26599 0.42107 0.51807 0.0
O1224 O 0.28644 0.47359 0.51279 0.0
O1225 O 0.29559 0.46197 0.52474 0.0
O1226 O 0.26109 0.44375 0.53922 0.0
O1227 O 0.24426 0.39943 0.53519 0.0
O1228 O 0.25501 0.47628 0.52953 0.0
O1229 O 0.22884 0.45063 0.52063 0.0
O1230 O 0.20257 0.40097 0.52622 0.0
O1231 O 0.19671 0.41335 0.51401 0.0
H1232 H 0.26118 0.41713 0.48926 0.0
H1233 H 0.28465 0.42739 0.47676 0.0
H1234 H 0.2872 0.51016 0.47628 0.0
H1235 H 0.26295 0.49939 0.48868 0.0
H1236 H 0.26207 0.4492 0.55393 0.0
H1237 H 0.24677 0.43225 0.56688 0.0
H1238 H 0.1988 0.34344 0.55872 0.0
H1239 H 0.21497 0.36057 0.54571 0.0
La1240 La 0.58869 0.81043 0.51117 0.0
La1241 La 0.59235 0.82118 0.52789 0.0
C1242 C 0.57414 0.79584 0.49737 0.0
C1243 C 0.56768 0.80663 0.49021 0.0
C1244 C 0.58916 0.83157 0.48641 0.0
C1245 C 0.58346 0.83945 0.47924 0.0
C1246 C 0.55618 0.82258 0.47568 0.0
C1247 C 0.53452 0.7981 0.4796 0.0
C1248 C 0.54024 0.79022 0.48675 0.0
C1249 C 0.62895 0.86441 0.51537 0.0
C1250 C 0.54614 0.82907 0.51887 0.0
C1251 C 0.60892 0.84153 0.54122 0.0
C1252 C 0.61924 0.83787 0.54883 0.0
C1253 C 0.5994 0.8267 0.55494 0.0
C1254 C 0.60901 0.82728 0.56241 0.0
C1255 C 0.63886 0.83918 0.56405 0.0
C1256 C 0.65869 0.84966 0.55789 0.0
C1257 C 0.64903 0.84914 0.55039 0.0
C1258 C 0.54962 0.76896 0.52393 0.0
C1259 C 0.62733 0.79196 0.52046 0.0
O1260 O 0.60101 0.80929 0.49984 0.0
O1261 O 0.55548 0.7884 0.50298 0.0
O1262 O 0.63113 0.8502 0.50967 0.0
O1263 O 0.60394 0.8491 0.51818 0.0
O1264 O 0.55067 0.81546 0.51318 0.0
O1265 O 0.56406 0.83873 0.52479 0.0
O1266 O 0.58197 0.82301 0.53934 0.0
O1267 O 0.62646 0.84924 0.53531 0.0
O1268 O 0.54937 0.78341 0.52985 0.0
O1269 O 0.57462 0.78234 0.52092 0.0
O1270 O 0.62479 0.80654 0.52632 0.0
O1271 O 0.61149 0.78721 0.51422 0.0
H1272 H 0.61064 0.84466 0.48887 0.0
H1273 H 0.60083 0.85825 0.4764 0.0
H1274 H 0.51309 0.78483 0.47713 0.0
H1275 H 0.5233 0.77082 0.48951 0.0
H1276 H 0.57637 0.81847 0.554 0.0
H1277 H 0.59301 0.81948 0.56695 0.0
H1278 H 0.6818 0.85866 0.55887 0.0
H1279 H 0.66501 0.85833 0.54586 0.0
La1280 La 0.21393 0.7821 0.51103 0.0
La1281 La 0.2043 0.77407 0.52778 0.0
C1282 C 0.2282 0.78288 0.49716 0.0
C1283 C 0.21813 0.76512 0.49007 0.0
C1284 C 0.18955 0.75372 0.48728 0.0
C1285 C 0.1816 0.7397 0.48016 0.0
C1286 C 0.20197 0.73665 0.47565 0.0
C1287 C 0.23031 0.74743 0.47856 0.0
C1288 C 0.23826 0.76152 0.48566 0.0
C1289 C 0.16047 0.76859 0.51555 0.0
C1290 C 0.19496 0.72006 0.51838 0.0
C1291 C 0.18488 0.76993 0.54124 0.0
C1292 C 0.18809 0.78397 0.54885 0.0
C1293 C 0.2052 0.7812 0.55457 0.0
C1294 C 0.20414 0.78933 0.56213 0.0
C1295 C 0.18588 0.80039 0.56423 0.0
C1296 C 0.16965 0.80429 0.55846 0.0
C1297 C 0.17058 0.79599 0.55088 0.0
C1298 C 0.25602 0.78354 0.52337 0.0
C1299 C 0.23257 0.83865 0.52065 0.0
O1300 O 0.21273 0.7941 0.49969 0.0
O1301 O 0.2376 0.77338 0.50274 0.0
O1302 O 0.17448 0.78536 0.5099 0.0
O1303 O 0.17573 0.75847 0.51816 0.0
O1304 O 0.2073 0.73815 0.5126 0.0
O1305 O 0.18697 0.7284 0.52461 0.0
O1306 O 0.20448 0.76306 0.53925 0.0
O1307 O 0.17561 0.77842 0.53539 0.0
O1308 O 0.2417 0.7679 0.52918 0.0
O1309 O 0.24266 0.7957 0.52067 0.0
O1310 O 0.21955 0.82133 0.52659 0.0
O1311 O 0.23616 0.82808 0.51416 0.0
H1312 H 0.17347 0.75608 0.49054 0.0
H1313 H 0.15947 0.73133 0.47817 0.0
H1314 H 0.24673 0.74586 0.47525 0.0
H1315 H 0.26049 0.77031 0.48763 0.0
H1316 H 0.21865 0.77167 0.55328 0.0
H1317 H 0.2173 0.7864 0.56637 0.0
H1318 H 0.15515 0.8125 0.55985 0.0
H1319 H 0.15667 0.79792 0.54668 0.0
La1320 La 0.10851 0.57204 0.36333 0.0
La1321 La 0.10594 0.57916 0.34652 0.0
C1322 C 0.12256 0.57198 0.37717 0.0
C1323 C 0.12979 0.58966 0.38429 0.0
C1324 C 0.10906 0.5944 0.38807 0.0
C1325 C 0.11523 0.60813 0.39523 0.0
C1326 C 0.14227 0.61744 0.39883 0.0
C1327 C 0.16324 0.61338 0.39492 0.0
C1328 C 0.15704 0.59962 0.38778 0.0
C1329 C 0.06831 0.58527 0.35887 0.0
C1330 C 0.15129 0.63366 0.35572 0.0
C1331 C 0.0892 0.58265 0.3332 0.0
C1332 C 0.07651 0.56794 0.32579 0.0
C1333 C 0.09156 0.55892 0.32088 0.0
C1334 C 0.082 0.5502 0.31336 0.0
C1335 C 0.05717 0.55032 0.31052 0.0
C1336 C 0.0415 0.55822 0.31555 0.0
C1337 C 0.05111 0.567 0.32306 0.0
C1338 C 0.14875 0.57045 0.35077 0.0
C1339 C 0.07074 0.5149 0.35387 0.0
O1340 O 0.09573 0.5597 0.37469 0.0
O1341 O 0.14135 0.58203 0.37156 0.0
O1342 O 0.06585 0.56894 0.3646 0.0
O1343 O 0.09354 0.59514 0.35617 0.0
O1344 O 0.14554 0.61597 0.36159 0.0
O1345 O 0.13505 0.62495 0.34947 0.0
O1346 O 0.11558 0.58838 0.33491 0.0
O1347 O 0.07239 0.5756 0.33925 0.0
O1348 O 0.14932 0.58528 0.34484 0.0
O1349 O 0.12348 0.55841 0.35365 0.0
O1350 O 0.07445 0.53185 0.34789 0.0
O1351 O 0.08516 0.52594 0.36031 0.0
H1352 H 0.08773 0.58684 0.3856 0.0
H1353 H 0.09836 0.61051 0.39806 0.0
H1354 H 0.18449 0.62066 0.39741 0.0
H1355 H 0.17341 0.59615 0.38504 0.0
H1356 H 0.11133 0.55953 0.32275 0.0
H1357 H 0.0944 0.54382 0.30973 0.0
H1358 H 0.0225 0.55894 0.31359 0.0
H1359 H 0.03931 0.57428 0.32664 0.0
La1360 La 0.45383 0.54074 0.36331 0.0
La1361 La 0.44738 0.53132 0.34648 0.0
C1362 C 0.45372 0.55482 0.37715 0.0
C1363 C 0.436 0.54448 0.38425 0.0
C1364 C 0.42727 0.5169 0.3874 0.0
C1365 C 0.41335 0.50904 0.39454 0.0
C1366 C 0.40776 0.52851 0.3987 0.0
C1367 C 0.41586 0.55578 0.39542 0.0
C1368 C 0.42983 0.56365 0.38831 0.0
C1369 C 0.44022 0.4872 0.35879 0.0
C1370 C 0.39275 0.52298 0.3555 0.0
C1371 C 0.4437 0.51119 0.33314 0.0
C1372 C 0.4581 0.51169 0.32579 0.0
C1373 C 0.47081 0.53645 0.32106 0.0
C1374 C 0.4791 0.53467 0.31354 0.0
C1375 C 0.47468 0.50804 0.31055 0.0
C1376 C 0.46317 0.48368 0.31543 0.0
C1377 C 0.45496 0.48549 0.32293 0.0
C1378 C 0.4562 0.58285 0.35081 0.0
C1379 C 0.51135 0.56 0.354 0.0
O1380 O 0.4659 0.54014 0.37469 0.0
O1381 O 0.4437 0.56353 0.37154 0.0
O1382 O 0.45652 0.50095 0.36455 0.0
O1383 O 0.43065 0.50278 0.35608 0.0
O1384 O 0.41019 0.53451 0.36145 0.0
O1385 O 0.40155 0.51542 0.34927 0.0
O1386 O 0.44031 0.53339 0.3348 0.0
O1387 O 0.44884 0.50008 0.33922 0.0
O1388 O 0.44141 0.56872 0.34485 0.0
O1389 O 0.46804 0.56945 0.35369 0.0
O1390 O 0.49442 0.546 0.34806 0.0
O1391 O 0.50003 0.56396 0.36032 0.0
H1392 H 0.43166 0.50157 0.38443 0.0
H1393 H 0.40709 0.4877 0.39681 0.0
H1394 H 0.41229 0.57153 0.39846 0.0
H1395 H 0.43655 0.58514 0.38606 0.0
H1396 H 0.47328 0.55694 0.32304 0.0
H1397 H 0.4877 0.55386 0.30997 0.0
H1398 H 0.45991 0.46294 0.3134 0.0
H1399 H 0.44498 0.46597 0.3264 0.0
La1400 La 0.48411 0.91694 0.36385 0.0
La1401 La 0.49347 0.91926 0.34709 0.0
C1402 C 0.47058 0.90374 0.37775 0.0
C1403 C 0.48078 0.89602 0.38479 0.0
C1404 C 0.5096 0.91275 0.38744 0.0
C1405 C 0.51774 0.90663 0.39452 0.0
C1406 C 0.4973 0.88359 0.39911 0.0
C1407 C 0.46868 0.86648 0.39632 0.0
C1408 C 0.46056 0.87267 0.38927 0.0
C1409 C 0.5375 0.95652 0.35919 0.0
C1410 C 0.50144 0.87299 0.35617 0.0
C1411 C 0.51403 0.93555 0.33379 0.0
C1412 C 0.51458 0.95017 0.32649 0.0
C1413 C 0.49124 0.93742 0.32128 0.0
C1414 C 0.49436 0.94832 0.31383 0.0
C1415 C 0.52097 0.97213 0.31136 0.0
C1416 C 0.54382 0.98561 0.3167 0.0
C1417 C 0.54067 0.97472 0.32414 0.0
C1418 C 0.44194 0.87672 0.3514 0.0
C1419 C 0.46454 0.95462 0.35451 0.0
O1420 O 0.48608 0.9304 0.37521 0.0
O1421 O 0.46087 0.88473 0.37218 0.0
O1422 O 0.52365 0.96006 0.36477 0.0
O1423 O 0.52197 0.93106 0.35668 0.0
O1424 O 0.4902 0.87934 0.36211 0.0
O1425 O 0.50889 0.88903 0.3499 0.0
O1426 O 0.49103 0.91043 0.33536 0.0
O1427 O 0.52564 0.95137 0.33992 0.0
O1428 O 0.45617 0.87582 0.34548 0.0
O1429 O 0.45528 0.90205 0.35425 0.0
O1430 O 0.47891 0.95186 0.34862 0.0
O1431 O 0.46045 0.93929 0.36081 0.0
H1432 H 0.52574 0.93089 0.38412 0.0
H1433 H 0.54006 0.92003 0.39641 0.0
H1434 H 0.45221 0.84881 0.3997 0.0
H1435 H 0.43815 0.85959 0.3874 0.0
H1436 H 0.47092 0.91823 0.32284 0.0
H1437 H 0.47633 0.93717 0.3099 0.0
H1438 H 0.56445 1.00427 0.31508 0.0
H1439 H 0.55918 0.98484 0.32797 0.0
H1440 H 0.16138 0.21046 0.19392 0.0
H1441 H 0.17368 0.17161 0.19552 0.0
H1442 H 0.11026 0.12021 0.17836 0.0
H1443 H 0.09778 0.15839 0.17683 0.0
H1444 H 0.10611 0.0882 0.19101 0.0
H1445 H 0.22079 0.15008 0.18087 0.0
H1446 H 0.21165 0.16661 0.18855 0.0
H1447 H 0.19514 0.16261 0.17936 0.0
C1448 C 0.15011 0.19082 0.19051 0.0
C1449 C 0.12874 0.18755 0.18522 0.0
C1450 C 0.1573 0.16874 0.19138 0.0
C1451 C 0.14322 0.14309 0.18696 0.0
C1452 C 0.12156 0.13977 0.1818 0.0
H1453 H 0.17885 1.00289 0.17681 0.0
H1454 H 0.17587 0.04772 0.17665 0.0
C1455 C 0.11446 0.16169 0.18093 0.0
C1456 C 0.15014 0.11914 0.18776 0.0
H1457 H 0.20369 0.10175 0.18505 0.0
C1458 C 0.12751 0.09124 0.18975 0.0
C1459 C 0.17795 0.12294 0.186 0.0
C1460 C 0.20279 0.15208 0.18351 0.0
C1461 C 0.1318 0.06713 0.19001 0.0
C1462 C 0.1597 0.07097 0.18837 0.0
C1463 C 0.18239 0.09884 0.18636 0.0
C1464 C 0.16529 0.04603 0.18863 0.0
C1465 C 0.10612 0.03753 0.19185 0.0
C1466 C 0.16151 0.03081 0.19547 0.0
C1467 C 0.16313 1.00526 0.19557 0.0
C1468 C 0.16885 0.99437 0.18885 0.0
C1469 C 0.17447 0.01064 0.18209 0.0
C1470 C 0.1727 0.03625 0.18199 0.0
H1471 H 0.08503 0.037 0.19108 0.0
H1472 H 0.10609 0.02039 0.18819 0.0
H1473 H 0.10755 0.03214 0.19789 0.0
H1474 H 0.15639 0.03822 0.2007 0.0
H1475 H 0.15899 0.99356 0.20091 0.0
H1476 H 0.01864 0.18232 0.17729 0.0
H1477 H 0.97354 0.13495 0.17749 0.0
H1478 H 0.98537 0.12669 0.2015 0.0
H1479 H 0.03049 0.17358 0.20133 0.0
H1480 H 0.97628 0.07911 0.19376 0.0
H1481 H 0.89178 0.10633 0.18554 0.0
H1482 H 0.92169 0.11989 0.17894 0.0
H1483 H 0.92786 0.13366 0.18856 0.0
C1484 C 1.0113 0.17073 0.18265 0.0
C1485 C 0.02829 0.18183 0.18929 0.0
C1486 C 0.98541 0.14362 0.18276 0.0
C1487 C 0.97581 0.12722 0.18953 0.0
C1488 C 0.99221 0.13884 0.19621 0.0
H1489 H 0.81184 0.95843 0.19437 0.0
H1490 H 0.85073 1.00942 0.1963 0.0
C1491 C 0.01807 0.16577 0.19609 0.0
C1492 C 0.9503 0.09694 0.18954 0.0
H1493 H 0.87791 0.05582 0.18504 0.0
C1494 C 0.95474 0.07413 0.19192 0.0
C1495 C 0.92201 0.09029 0.18723 0.0
C1496 C 0.9154 0.11385 0.18499 0.0
C1497 C 0.93205 0.04496 0.19182 0.0
C1498 C 0.90413 0.03818 0.18917 0.0
C1499 C 0.89935 0.06099 0.18703 0.0
C1500 C 0.88035 1.00743 0.18812 0.0
C1501 C 0.93822 0.02157 0.19454 0.0
C1502 C 0.88399 0.98949 0.18288 0.0
C1503 C 0.86198 0.96064 0.18177 0.0
C1504 C 0.83568 0.94896 0.18587 0.0
C1505 C 0.83192 0.96683 0.19115 0.0
C1506 C 0.85405 0.99594 0.19223 0.0
H1507 H 0.95758 0.03063 0.19835 0.0
H1508 H 0.91922 1.00414 0.19765 0.0
H1509 H 0.94274 0.01157 0.18954 0.0
H1510 H 0.90386 0.99792 0.17956 0.0
H1511 H 0.86555 0.94747 0.17766 0.0
H1512 H 0.07755 0.92745 0.1773 0.0
H1513 H 0.02749 0.91626 0.17945 0.0
H1514 H 0.01644 0.85284 0.19646 0.0
H1515 H 0.06704 0.86403 0.19429 0.0
H1516 H 0.96974 0.83276 0.18533 0.0
H1517 H 0.99515 0.93874 0.19803 0.0
H1518 H 1.01389 0.94219 0.18922 0.0
H1519 H 0.0217 0.92693 0.19742 0.0
C1520 C 0.0646 0.91127 0.18155 0.0
C1521 C 0.07625 0.89664 0.18564 0.0
C1522 C 0.03596 0.90496 0.18279 0.0
C1523 C 0.01821 0.8839 0.18816 0.0
C1524 C 0.02977 0.86926 0.1923 0.0
H1525 H 0.85188 0.86745 0.20151 0.0
H1526 H 0.89918 0.87012 0.20159 0.0
C1527 C 0.05867 0.87574 0.19109 0.0
C1528 C 0.98745 0.87698 0.18922 0.0
H1529 H 0.94647 0.90838 0.19361 0.0
C1530 C 0.96459 0.84917 0.18723 0.0
C1531 C 0.98067 0.8983 0.19174 0.0
C1532 C 1.00411 0.92814 0.1943 0.0
C1533 C 0.93526 0.84244 0.18744 0.0
C1534 C 0.92859 0.86421 0.18963 0.0
C1535 C 0.95145 0.89171 0.19186 0.0
C1536 C 0.8982 0.85922 0.18966 0.0
C1537 C 0.91168 0.81204 0.18537 0.0
C1538 C 0.88142 0.85171 0.18295 0.0
C1539 C 0.85407 0.84999 0.18288 0.0
C1540 C 0.84306 0.85603 0.18952 0.0
C1541 C 0.85957 0.86267 0.19628 0.0
C1542 C 0.88675 0.86427 0.19634 0.0
H1543 H 0.91934 0.79607 0.18596 0.0
H1544 H 0.89206 0.8049 0.18899 0.0
H1545 H 0.90528 0.81176 0.17933 0.0
H1546 H 0.88994 0.84828 0.17767 0.0
H1547 H 0.84216 0.84514 0.17756 0.0
H1548 H 0.21426 0.15175 0.3459 0.0
H1549 H 0.17502 0.16314 0.3438 0.0
H1550 H 0.12583 0.10561 0.36223 0.0
H1551 H 0.16449 0.09408 0.36428 0.0
H1552 H 0.09209 0.09803 0.34945 0.0
H1553 H 0.15648 0.21501 0.35758 0.0
H1554 H 0.17179 0.2033 0.35016 0.0
H1555 H 0.16855 0.18936 0.35966 0.0
C1556 C 0.19498 0.1415 0.34946 0.0
C1557 C 0.19251 0.12216 0.35528 0.0
C1558 C 0.17268 0.14817 0.3483 0.0
C1559 C 0.1476 0.13558 0.35294 0.0
C1560 C 0.14495 0.11573 0.35861 0.0
H1561 H 1.0124 0.17666 0.36338 0.0
H1562 H 0.05622 0.17211 0.36306 0.0
C1563 C 0.16713 0.10917 0.35978 0.0
C1564 C 0.12381 0.14263 0.35197 0.0
H1565 H 0.1076 0.19729 0.35389 0.0
C1566 C 0.09555 0.11979 0.35036 0.0
C1567 C 0.1282 0.17094 0.35327 0.0
C1568 C 0.1578 0.1961 0.35533 0.0
C1569 C 0.07161 0.12438 0.35006 0.0
C1570 C 0.07599 0.15272 0.3513 0.0
C1571 C 0.10427 0.17563 0.35288 0.0
C1572 C 0.05121 0.15857 0.35124 0.0
C1573 C 0.04162 0.09857 0.34868 0.0
C1574 C 0.03433 0.15349 0.34464 0.0
C1575 C 1.00928 0.15607 0.34481 0.0
C1576 C 1.00057 0.16398 0.35157 0.0
C1577 C 0.01839 0.17055 0.35807 0.0
C1578 C 0.04347 0.16792 0.3579 0.0
H1579 H 0.04101 0.07754 0.34963 0.0
H1580 H 0.02524 0.09942 0.35247 0.0
H1581 H 0.03515 0.09897 0.34268 0.0
H1582 H 0.04014 0.14682 0.3394 0.0
H1583 H 0.99628 0.151 0.33967 0.0
H1584 H 0.85062 0.84024 0.36381 0.0
H1585 H 0.8531 0.88765 0.36346 0.0
H1586 H 0.86895 0.89296 0.33923 0.0
H1587 H 0.86705 0.84601 0.33955 0.0
H1588 H 0.90863 0.94136 0.34628 0.0
H1589 H 0.79889 0.91556 0.35607 0.0
H1590 H 0.81634 0.9028 0.36252 0.0
H1591 H 0.80696 0.88775 0.35306 0.0
C1592 C 0.85399 0.85119 0.35838 0.0
C1593 C 0.85866 0.83924 0.35171 0.0
C1594 C 0.8553 0.87831 0.35818 0.0
C1595 C 0.86095 0.89389 0.3513 0.0
C1596 C 0.86454 0.88144 0.3446 0.0
H1597 H 0.8655 0.06292 0.34731 0.0
H1598 H 0.85276 0.01185 0.34514 0.0
C1599 C 0.86339 0.85449 0.3448 0.0
C1600 C 0.8658 0.92418 0.35117 0.0
H1601 H 0.83596 0.96608 0.35624 0.0
C1602 C 0.89256 0.94664 0.34839 0.0
C1603 C 0.84477 0.93122 0.35381 0.0
C1604 C 0.81501 0.90803 0.35646 0.0
C1605 C 0.89926 0.97587 0.34843 0.0
C1606 C 0.87888 0.98309 0.35145 0.0
C1607 C 0.85167 0.96059 0.35397 0.0
C1608 C 0.88642 0.01397 0.35256 0.0
C1609 C 0.92827 0.99884 0.34528 0.0
C1610 C 0.90938 0.03201 0.35745 0.0
C1611 C 0.91659 0.06089 0.35869 0.0
C1612 C 0.90094 0.07249 0.35508 0.0
C1613 C 0.87799 0.05457 0.35013 0.0
C1614 C 0.87065 0.02542 0.34892 0.0
H1615 H 0.93731 0.98936 0.34119 0.0
H1616 H 0.92633 0.01638 0.34236 0.0
H1617 H 0.94404 1.00879 0.35004 0.0
H1618 H 0.92157 0.02362 0.36042 0.0
H1619 H 0.93437 0.07411 0.36254 0.0
H1620 H 0.95069 0.86341 0.36333 0.0
H1621 H 1.00148 0.90131 0.36169 0.0
H1622 H 1.01413 0.84691 0.34562 0.0
H1623 H 0.96282 0.80843 0.3473 0.0
H1624 H 0.05965 0.87455 0.35705 0.0
H1625 H 0.03622 0.95398 0.34287 0.0
H1626 H 0.01662 0.93985 0.35163 0.0
H1627 H 1.0094 0.91577 0.34366 0.0
C1628 C 0.96418 0.85947 0.35942 0.0
C1629 C 0.9527 0.83293 0.35543 0.0
C1630 C 0.99325 0.88125 0.35846 0.0
C1631 C 1.01163 0.87716 0.35348 0.0
C1632 C 1.00033 0.85061 0.34949 0.0
H1633 H 0.17832 0.02428 0.33972 0.0
H1634 H 0.13122 0.97948 0.33994 0.0
C1635 C 0.97102 0.8287 0.35042 0.0
C1636 C 0.04258 0.90076 0.35255 0.0
H1637 H 0.0844 0.97245 0.34761 0.0
C1638 C 0.06513 0.89589 0.35492 0.0
C1639 C 0.04981 0.92858 0.34972 0.0
C1640 C 0.02678 0.93487 0.34675 0.0
C1641 C 0.09458 0.9183 0.35472 0.0
C1642 C 0.10167 0.94647 0.35218 0.0
C1643 C 0.07911 0.95102 0.34962 0.0
C1644 C 0.1322 0.97164 0.35201 0.0
C1645 C 0.11782 0.91154 0.35718 0.0
C1646 C 0.14904 0.98206 0.3587 0.0
C1647 C 0.17635 1.0078 0.35859 0.0
C1648 C 0.18716 0.02381 0.3518 0.0
C1649 C 0.17071 0.01266 0.34507 0.0
C1650 C 0.14365 0.98697 0.34518 0.0
H1651 H 0.10994 0.88779 0.3569 0.0
H1652 H 0.13761 0.92321 0.35357 0.0
H1653 H 0.12403 0.91872 0.36317 0.0
H1654 H 0.14055 0.97103 0.36408 0.0
H1655 H 0.18824 0.01591 0.36388 0.0
H1656 H 0.87011 0.81087 0.84673 0.0
H1657 H 0.85868 0.85011 0.84461 0.0
H1658 H 0.92034 0.90173 0.86208 0.0
H1659 H 0.93176 0.86302 0.86419 0.0
H1660 H 0.83749 0.87617 0.85577 0.0
H1661 H 0.94432 0.95724 0.84359 0.0
H1662 H 0.93239 0.91884 0.84407 0.0
H1663 H 0.94708 0.94148 0.85239 0.0
C1664 C 0.88136 0.83073 0.85005 0.0
C1665 C 0.90187 0.83391 0.85561 0.0
C1666 C 0.87474 0.85305 0.84887 0.0
C1667 C 0.88884 0.87901 0.85315 0.0
C1668 C 0.90946 0.88214 0.85864 0.0
H1669 H 0.84966 0.01615 0.86361 0.0
H1670 H 0.8527 0.97146 0.86352 0.0
C1671 C 0.9159 0.85991 0.85985 0.0
C1672 C 0.88194 0.90282 0.85207 0.0
H1673 H 0.91355 0.9753 0.84783 0.0
C1674 C 0.854 0.89778 0.85395 0.0
C1675 C 0.9034 0.93099 0.84966 0.0
C1676 C 0.93341 0.9375 0.84724 0.0
C1677 C 0.84726 0.92037 0.85371 0.0
C1678 C 0.86914 0.94886 0.85162 0.0
C1679 C 0.89679 0.95359 0.84951 0.0
C1680 C 0.86413 0.97423 0.85156 0.0
C1681 C 0.81673 0.91347 0.85566 0.0
C1682 C 0.86946 0.99078 0.84489 0.0
C1683 C 0.8679 0.01637 0.84494 0.0
C1684 C 0.86104 0.02622 0.85168 0.0
C1685 C 0.8547 1.00911 0.8583 0.0
C1686 C 0.85636 0.98345 0.85825 0.0
H1687 H 0.80082 0.88985 0.85502 0.0
H1688 H 0.81614 0.91959 0.86169 0.0
H1689 H 0.80976 0.92594 0.85199 0.0
H1690 H 0.87551 0.98422 0.83966 0.0
H1691 H 0.8729 0.02888 0.83972 0.0
H1692 H 0.21538 0.06409 0.84664 0.0
H1693 H 0.17616 0.01316 0.84479 0.0
H1694 H 0.1246 0.02479 0.86198 0.0
H1695 H 0.16324 0.07516 0.86382 0.0
H1696 H 0.15013 0.96686 0.85615 0.0
H1697 H 0.06891 0.99152 0.84359 0.0
H1698 H 0.10731 0.01811 0.84404 0.0
H1699 H 0.08466 0.0107 0.85233 0.0
C1700 C 0.19553 0.05577 0.84996 0.0
C1701 C 0.19235 0.07362 0.85537 0.0
C1702 C 0.17322 0.02667 0.84893 0.0
C1703 C 0.14729 0.01517 0.85321 0.0
C1704 C 0.14416 0.03318 0.85854 0.0
H1705 H 1.00944 0.83847 0.86381 0.0
H1706 H 0.0543 0.88619 0.86385 0.0
C1707 C 0.16636 0.062 0.8596 0.0
C1708 C 0.12344 0.98433 0.85227 0.0
H1709 H 0.05096 0.94303 0.84803 0.0
C1710 C 0.1285 0.96159 0.8543 0.0
C1711 C 0.09524 0.97738 0.84982 0.0
C1712 C 0.08867 1.00067 0.84725 0.0
C1713 C 0.10593 0.93221 0.85414 0.0
C1714 C 0.07743 0.92538 0.85198 0.0
C1715 C 0.07266 0.94814 0.84975 0.0
C1716 C 0.05215 0.89491 0.85187 0.0
C1717 C 0.11286 0.90875 0.85624 0.0
C1718 C 0.03596 0.88367 0.84515 0.0
C1719 C 1.01031 0.85656 0.84512 0.0
C1720 C 1.00002 0.83987 0.85184 0.0
C1721 C 0.01684 0.85054 0.85852 0.0
C1722 C 0.04257 0.87787 0.85854 0.0
H1723 H 0.13654 0.91655 0.85571 0.0
H1724 H 0.1064 0.90217 0.86225 0.0
H1725 H 0.10066 0.88919 0.85257 0.0
H1726 H 0.0428 0.89626 0.83993 0.0
H1727 H 0.99808 0.8491 0.83986 0.0
H1728 H 0.95254 0.09622 0.86415 0.0
H1729 H 1.00321 0.10875 0.86257 0.0
H1730 H 1.01459 0.17084 0.84511 0.0
H1731 H 0.96344 0.15851 0.84677 0.0
H1732 H 0.03067 0.10366 0.84998 0.0
H1733 H 0.08374 0.21919 0.85943 0.0
H1734 H 0.04559 0.19368 0.86107 0.0
H1735 H 0.05786 0.20943 0.85179 0.0
C1736 C 0.96579 0.11263 0.85998 0.0
C1737 C 0.95403 0.12652 0.85561 0.0
C1738 C 0.99481 0.11976 0.85908 0.0
C1739 C 1.01297 0.14106 0.8538 0.0
C1740 C 1.00122 0.15476 0.84933 0.0
H1741 H 0.17765 0.15561 0.83962 0.0
H1742 H 0.13039 0.15304 0.83988 0.0
C1743 C 0.97196 0.14755 0.85023 0.0
C1744 C 0.04384 0.14797 0.85296 0.0
H1745 H 0.11488 0.20187 0.85527 0.0
C1746 C 0.04906 0.12519 0.85109 0.0
C1747 C 0.06789 0.17595 0.85453 0.0
C1748 C 0.06366 0.20098 0.85688 0.0
C1749 C 0.07748 0.12952 0.85078 0.0
C1750 C 0.10159 0.15759 0.85222 0.0
C1751 C 0.09645 0.18043 0.8541 0.0
C1752 C 0.13213 0.16323 0.85189 0.0
C1753 C 0.08137 0.1037 0.8491 0.0
C1754 C 0.14968 0.17137 0.85846 0.0
C1755 C 0.17706 0.17313 0.85832 0.0
C1756 C 0.18733 0.16676 0.85159 0.0
C1757 C 0.17036 0.16033 0.84493 0.0
C1758 C 0.1432 0.15873 0.84507 0.0
H1759 H 0.06089 0.08269 0.85003 0.0
H1760 H 0.08784 0.10451 0.84304 0.0
H1761 H 0.09873 0.10411 0.85273 0.0
H1762 H 0.14167 0.1751 0.86379 0.0
H1763 H 0.18947 0.17807 0.86356 0.0
H1764 H 0.86624 0.92427 0.67778 0.0
H1765 H 0.90384 0.91113 0.67954 0.0
H1766 H 0.85001 0.84655 0.69618 0.0
H1767 H 0.81174 0.85952 0.69434 0.0
H1768 H 0.93419 0.91361 0.69245 0.0
H1769 H 0.87206 0.80013 0.6814 0.0
H1770 H 0.86028 0.82637 0.67993 0.0
H1771 H 0.85508 0.80897 0.68903 0.0
C1772 C 0.8623 0.90721 0.68181 0.0
C1773 C 0.83593 0.89278 0.68588 0.0
C1774 C 0.88388 0.89974 0.68282 0.0
C1775 C 0.87969 0.87756 0.6879 0.0
C1776 C 0.85354 0.86336 0.69211 0.0
H1777 H 0.02854 0.85909 0.70144 0.0
H1778 H 0.98397 0.86194 0.70157 0.0
C1779 C 0.8318 0.87091 0.69111 0.0
C1780 C 0.90321 0.87011 0.6888 0.0
H1781 H 0.92006 0.81641 0.6857 0.0
C1782 C 0.93102 0.89227 0.69103 0.0
C1783 C 0.89921 0.8424 0.68683 0.0
C1784 C 0.87015 0.81809 0.6841 0.0
C1785 C 0.95493 0.88766 0.69129 0.0
C1786 C 0.95092 0.85988 0.6894 0.0
C1787 C 0.92308 0.83761 0.6872 0.0
C1788 C 0.97572 0.85409 0.68948 0.0
C1789 C 0.98453 0.91295 0.69333 0.0
C1790 C 0.98517 0.84717 0.6827 0.0
C1791 C 1.01066 0.84522 0.68261 0.0
C1792 C 0.02714 0.85017 0.6893 0.0
C1793 C 0.01661 0.85543 0.69616 0.0
C1794 C 0.99114 0.85721 0.69624 0.0
H1795 H 0.98527 0.9342 0.69277 0.0
H1796 H 0.98961 0.91067 0.69934 0.0
H1797 H 1.00177 0.91332 0.68964 0.0
H1798 H 0.97354 0.84451 0.67741 0.0
H1799 H 0.01813 0.84119 0.67724 0.0
H1800 H 0.17836 0.17875 0.67684 0.0
H1801 H 0.17483 0.13074 0.67694 0.0
H1802 H 0.15722 0.12352 0.70109 0.0
H1803 H 0.16035 0.17105 0.70104 0.0
H1804 H 0.20303 0.10538 0.68527 0.0
H1805 H 0.08506 0.05244 0.69215 0.0
H1806 H 0.10591 0.08982 0.68903 0.0
H1807 H 0.1084 0.0804 0.69874 0.0
C1808 C 0.17424 0.16717 0.6822 0.0
C1809 C 0.16937 0.17873 0.68891 0.0
C1810 C 0.17216 0.13968 0.68224 0.0
C1811 C 0.16516 0.12322 0.68899 0.0
C1812 C 0.16203 0.13549 0.69578 0.0
H1813 H 0.16078 0.95452 0.69415 0.0
H1814 H 0.17331 1.0057 0.69587 0.0
C1815 C 0.16397 0.16281 0.69574 0.0
C1816 C 0.15943 0.09263 0.68889 0.0
H1817 H 0.10584 0.0221 0.69191 0.0
C1818 C 0.18182 0.08716 0.68674 0.0
C1819 C 0.13165 0.06879 0.69074 0.0
C1820 C 0.10626 0.073 0.69273 0.0
C1821 C 0.17717 0.05853 0.68641 0.0
C1822 C 0.14947 0.03475 0.68835 0.0
C1823 C 0.12717 0.0403 0.69051 0.0
C1824 C 0.14224 1.00378 0.68753 0.0
C1825 C 0.20164 0.0539 0.68375 0.0
C1826 C 0.12015 0.98545 0.68245 0.0
C1827 C 0.11293 0.95642 0.68151 0.0
C1828 C 0.12751 0.94483 0.68564 0.0
C1829 C 0.14927 0.9629 0.69086 0.0
C1830 C 0.15658 0.99218 0.6918 0.0
H1831 H 0.21953 0.07374 0.68103 0.0
H1832 H 0.21081 0.04827 0.68872 0.0
H1833 H 0.1935 0.03559 0.67961 0.0
H1834 H 0.10864 0.99374 0.67913 0.0
H1835 H 0.09594 0.94305 0.67748 0.0
H1836 H 0.85051 0.99084 0.70159 0.0
H1837 H 0.89762 0.03575 0.70183 0.0
H1838 H 0.88966 0.04818 0.67784 0.0
H1839 H 0.84211 1.00336 0.67757 0.0
H1840 H 0.94525 0.04489 0.69413 0.0
H1841 H 0.91852 0.12976 0.68599 0.0
H1842 H 0.89105 0.09367 0.68895 0.0
H1843 H 0.90486 0.10002 0.67934 0.0
C1844 C 0.85844 1.00336 0.69638 0.0
C1845 C 0.8424 0.9934 0.68955 0.0
C1846 C 0.88549 0.02909 0.69653 0.0
C1847 C 0.89724 0.04561 0.68988 0.0
C1848 C 0.88088 0.03624 0.6831 0.0
H1849 H 0.07677 0.15457 0.6778 0.0
H1850 H 0.02641 0.11641 0.67991 0.0
C1851 C 0.85367 0.01049 0.68294 0.0
C1852 C 0.92758 0.07103 0.68992 0.0
H1853 H 0.96896 0.1433 0.68537 0.0
C1854 C 0.95032 0.06646 0.69229 0.0
C1855 C 0.93435 0.09934 0.68761 0.0
C1856 C 0.91089 0.10614 0.6854 0.0
C1857 C 0.97956 0.08902 0.69216 0.0
C1858 C 0.98646 0.11693 0.68948 0.0
C1859 C 0.96371 0.12187 0.68737 0.0
C1860 C 0.01724 0.14054 0.68836 0.0
C1861 C 1.00287 0.0827 0.69486 0.0
C1862 C 0.02891 0.16714 0.69234 0.0
C1863 C 0.05797 0.18919 0.69114 0.0
C1864 C 0.07559 0.18505 0.68586 0.0
C1865 C 0.06378 0.15843 0.68191 0.0
C1866 C 0.03498 0.1365 0.68313 0.0
H1867 H 0.9938 0.06356 0.69874 0.0
H1868 H 1.01251 0.07773 0.68986 0.0
H1869 H 0.02057 0.10177 0.69789 0.0
H1870 H 0.01558 0.17078 0.69638 0.0
H1871 H 0.06648 0.20953 0.69424 0.0
H1872 H 0.84816 0.33776 0.51048 0.0
H1873 H 0.84509 0.3824 0.51053 0.0
H1874 H 0.82352 0.37052 0.53447 0.0
H1875 H 0.82611 0.32584 0.53444 0.0
H1876 H 0.78522 0.37928 0.52649 0.0
H1877 H 0.89738 0.46425 0.51868 0.0
H1878 H 0.88163 0.4343 0.51209 0.0
H1879 H 0.88861 0.42825 0.52176 0.0
C1880 C 0.84338 0.34497 0.51579 0.0
C1881 C 0.83739 0.3281 0.52245 0.0
C1882 C 0.84171 0.37061 0.51582 0.0
C1883 C 0.83431 0.38009 0.52252 0.0
C1884 C 0.8293 0.36377 0.52922 0.0
H1885 H 0.8298 0.54418 0.52695 0.0
H1886 H 0.84157 0.50514 0.52893 0.0
C1887 C 0.83086 0.33817 0.52919 0.0
C1888 C 0.82931 0.40546 0.52245 0.0
H1889 H 0.86063 0.47786 0.51799 0.0
C1890 C 0.80185 0.40087 0.52469 0.0
C1891 C 0.85103 0.43381 0.5202 0.0
C1892 C 0.88142 0.4406 0.51812 0.0
C1893 C 0.79523 0.42347 0.52452 0.0
C1894 C 0.81647 0.45146 0.52193 0.0
C1895 C 0.84426 0.45638 0.51992 0.0
C1896 C 0.80956 0.47528 0.52087 0.0
C1897 C 0.76545 0.41712 0.52713 0.0
C1898 C 0.78787 0.47161 0.51567 0.0
C1899 C 0.78118 0.49371 0.51455 0.0
C1900 C 0.79612 0.52017 0.51857 0.0
C1901 C 0.81787 0.52398 0.5238 0.0
C1902 C 0.82466 0.50175 0.5249 0.0
H1903 H 0.75512 0.39787 0.53096 0.0
H1904 H 0.76668 0.43611 0.53016 0.0
H1905 H 0.75113 0.4123 0.52208 0.0
H1906 H 0.77624 0.45165 0.5124 0.0
H1907 H 0.76435 0.49011 0.51047 0.0
H1908 H 0.48089 0.28994 0.52736 0.0
H1909 H 0.51965 0.34098 0.52922 0.0
H1910 H 0.57281 0.32929 0.51252 0.0
H1911 H 0.53472 0.27872 0.51074 0.0
H1912 H 0.60363 0.3573 0.52532 0.0
H1913 H 0.54196 0.4093 0.5145 0.0
H1914 H 0.52502 0.38375 0.52216 0.0
H1915 H 0.52975 0.37115 0.51305 0.0
C1916 C 0.50091 0.29835 0.52412 0.0
C1917 C 0.5047 0.2804 0.51887 0.0
C1918 C 0.52294 0.32754 0.52513 0.0
C1919 C 0.54903 0.33918 0.52091 0.0
C1920 C 0.5529 0.32096 0.51581 0.0
H1921 H 0.68747 0.51381 0.51017 0.0
H1922 H 0.64301 0.46584 0.51039 0.0
C1923 C 0.53103 0.292 0.5148 0.0
C1924 C 0.57277 0.37009 0.52178 0.0
H1925 H 0.59005 0.44078 0.51877 0.0
C1926 C 0.60058 0.37555 0.52395 0.0
C1927 C 0.56894 0.39393 0.51987 0.0
C1928 C 0.53991 0.38941 0.5172 0.0
C1929 C 0.62463 0.404 0.52419 0.0
C1930 C 0.62078 0.4279 0.52236 0.0
C1931 C 0.59295 0.42252 0.52023 0.0
C1932 C 0.64572 0.45843 0.52242 0.0
C1933 C 0.6542 0.40811 0.52616 0.0
C1934 C 0.66145 0.47074 0.52916 0.0
C1935 C 0.68686 0.49806 0.52904 0.0
C1936 C 0.69704 0.51389 0.5222 0.0
C1937 C 0.6803 0.50229 0.51554 0.0
C1938 C 0.65487 0.47482 0.51566 0.0
H1939 H 0.65477 0.38752 0.52555 0.0
H1940 H 0.67142 0.42492 0.52246 0.0
H1941 H 0.65948 0.41545 0.53217 0.0
H1942 H 0.65451 0.45884 0.53448 0.0
H1943 H 0.69898 0.50636 0.5343 0.0
H1944 H 0.51916 0.19781 0.53441 0.0
H1945 H 0.56668 0.20085 0.53454 0.0
H1946 H 0.55864 0.18059 0.51054 0.0
H1947 H 0.51069 0.17713 0.51036 0.0
H1948 H 0.58395 0.15312 0.5191 0.0
H1949 H 0.63775 0.27175 0.5252 0.0
H1950 H 0.61 0.24913 0.53193 0.0
H1951 H 0.60023 0.25078 0.5222 0.0
C1952 C 0.52723 0.19361 0.52916 0.0
C1953 C 0.5111 0.18747 0.52235 0.0
C1954 C 0.55455 0.19551 0.52925 0.0
C1955 C 0.56657 0.19157 0.52252 0.0
C1956 C 0.5499 0.18388 0.5158 0.0
H1957 H 0.74585 0.25876 0.51047 0.0
H1958 H 0.69529 0.2464 0.51223 0.0
C1959 C 0.52244 0.18186 0.51571 0.0
C1960 C 0.59709 0.19711 0.52242 0.0
H1961 H 0.66789 0.25076 0.52505 0.0
C1962 C 0.60231 0.17442 0.52043 0.0
C1963 C 0.62111 0.22501 0.52408 0.0
C1964 C 0.61715 0.25067 0.52591 0.0
C1965 C 0.63087 0.1789 0.52005 0.0
C1966 C 0.65484 0.20675 0.52178 0.0
C1967 C 0.64954 0.22934 0.52381 0.0
C1968 C 0.68571 0.21377 0.52089 0.0
C1969 C 0.63522 0.15409 0.51754 0.0
C1970 C 0.69751 0.19983 0.52525 0.0
C1971 C 0.72669 0.20694 0.52424 0.0
C1972 C 0.74448 0.22809 0.51887 0.0
C1973 C 0.7327 0.24225 0.51463 0.0
C1974 C 0.70375 0.23523 0.51564 0.0
H1975 H 0.61516 0.13596 0.51497 0.0
H1976 H 0.65324 0.16172 0.51333 0.0
H1977 H 0.64116 0.14543 0.52256 0.0
H1978 H 0.68421 0.18359 0.52944 0.0
H1979 H 0.73524 0.19577 0.52761 0.0
H1980 H 0.87985 0.48894 0.68119 0.0
H1981 H 0.84101 0.50125 0.6796 0.0
H1982 H 0.78793 0.43502 0.69597 0.0
H1983 H 0.8262 0.42263 0.69751 0.0
H1984 H 0.75742 0.43348 0.68292 0.0
H1985 H 0.81792 0.54536 0.69508 0.0
H1986 H 0.8356 0.53765 0.68739 0.0
H1987 H 0.82982 0.5191 0.69634 0.0
C1988 C 0.85984 0.47703 0.68442 0.0
C1989 C 0.85614 0.45494 0.68951 0.0
C1990 C 0.83775 0.4842 0.68356 0.0
C1991 C 0.81165 0.46935 0.68776 0.0
C1992 C 0.80786 0.44692 0.6927 0.0
H1993 H 0.67004 0.50158 0.69851 0.0
H1994 H 0.71445 0.49794 0.69857 0.0
C1995 C 0.82982 0.43987 0.69358 0.0
C1996 C 0.78784 0.47649 0.68701 0.0
H1997 H 0.77008 0.52924 0.69067 0.0
C1998 C 0.76027 0.4545 0.68456 0.0
C1999 C 0.7914 0.50377 0.68927 0.0
C2000 C 0.82018 0.52784 0.69223 0.0
C2001 C 0.73624 0.45894 0.68432 0.0
C2002 C 0.73983 0.48631 0.6865 0.0
C2003 C 0.76738 0.50836 0.68895 0.0
C2004 C 0.71493 0.49196 0.68637 0.0
C2005 C 0.70695 0.43397 0.68193 0.0
C2006 C 0.70099 0.49087 0.67948 0.0
C2007 C 0.67569 0.49297 0.67942 0.0
C2008 C 0.66371 0.49636 0.68627 0.0
C2009 C 0.6786 0.49903 0.69313 0.0
C2010 C 0.704 0.4969 0.69318 0.0
H2011 H 0.70637 0.41273 0.68214 0.0
H2012 H 0.68933 0.43266 0.68565 0.0
H2013 H 0.70229 0.43753 0.67599 0.0
H2014 H 0.70927 0.48759 0.67414 0.0
H2015 H 0.66504 0.49103 0.674 0.0
H2016 H 0.51399 0.171 0.69644 0.0
H2017 H 0.51726 0.21871 0.69596 0.0
H2018 H 0.5384 0.22551 0.67202 0.0
H2019 H 0.53566 0.17817 0.67247 0.0
H2020 H 0.57667 0.27357 0.67963 0.0
H2021 H 0.46481 0.2471 0.68748 0.0
H2022 H 0.48061 0.23371 0.69427 0.0
H2023 H 0.47355 0.21952 0.68469 0.0
C2024 C 0.51874 0.18234 0.69103 0.0
C2025 C 0.52454 0.17063 0.68449 0.0
C2026 C 0.5205 0.20965 0.69076 0.0
C2027 C 0.52779 0.22571 0.68394 0.0
C2028 C 0.53268 0.2136 0.67736 0.0
H2029 H 0.53126 0.39368 0.67942 0.0
H2030 H 0.51998 0.34309 0.6773 0.0
C2031 C 0.53104 0.18641 0.67762 0.0
C2032 C 0.53275 0.25604 0.68378 0.0
H2033 H 0.50175 0.29752 0.68813 0.0
C2034 C 0.56014 0.2787 0.68142 0.0
C2035 C 0.51114 0.26288 0.68601 0.0
C2036 C 0.48078 0.23949 0.68818 0.0
C2037 C 0.56684 0.30794 0.68148 0.0
C2038 C 0.54577 0.31493 0.68409 0.0
C2039 C 0.518 0.29223 0.68619 0.0
C2040 C 0.55281 0.34571 0.68512 0.0
C2041 C 0.59652 0.33113 0.67876 0.0
C2042 C 0.57487 0.36395 0.69023 0.0
C2043 C 0.58128 0.39263 0.69143 0.0
C2044 C 0.56569 0.40379 0.68759 0.0
C2045 C 0.54371 0.38569 0.68243 0.0
C2046 C 0.53719 0.35679 0.68124 0.0
H2047 H 0.60646 0.32195 0.67487 0.0
H2048 H 0.5953 0.34892 0.67576 0.0
H2049 H 0.61119 0.34067 0.68375 0.0
H2050 H 0.58688 0.35583 0.69339 0.0
H2051 H 0.5983 0.406 0.69545 0.0
H2052 H 0.85002 0.34596 0.69765 0.0
H2053 H 0.80259 0.30093 0.69734 0.0
H2054 H 0.79695 0.31108 0.67311 0.0
H2055 H 0.84385 0.35618 0.6734 0.0
H2056 H 0.74872 0.30255 0.68014 0.0
H2057 H 0.77422 0.21859 0.69001 0.0
H2058 H 0.78695 0.24892 0.69645 0.0
H2059 H 0.80211 0.2544 0.687 0.0
C2060 C 0.839 0.33825 0.69223 0.0
C2061 C 0.85082 0.35478 0.68556 0.0
C2062 C 0.81185 0.31239 0.69205 0.0
C2063 C 0.79615 0.30233 0.68518 0.0
C2064 C 0.80853 0.31827 0.67848 0.0
H2065 H 0.62719 0.13792 0.68057 0.0
H2066 H 0.67845 0.17631 0.67869 0.0
C2067 C 0.83547 0.34411 0.67866 0.0
C2068 C 0.76579 0.2769 0.68506 0.0
H2069 H 0.72372 0.20509 0.69001 0.0
C2070 C 0.74339 0.28119 0.68223 0.0
C2071 C 0.75866 0.24882 0.68768 0.0
C2072 C 0.78178 0.24226 0.69039 0.0
C2073 C 0.71415 0.25863 0.6822 0.0
C2074 C 0.70683 0.23099 0.68519 0.0
C2075 C 0.72927 0.22631 0.68776 0.0
C2076 C 0.67588 0.20753 0.68616 0.0
C2077 C 0.69128 0.26467 0.67899 0.0
C2078 C 0.6575 0.21223 0.69099 0.0
C2079 C 0.6285 0.19053 0.69205 0.0
C2080 C 0.61709 0.16344 0.68834 0.0
C2081 C 0.63536 0.15862 0.68347 0.0
C2082 C 0.66463 0.18047 0.68242 0.0
H2083 H 0.70091 0.28333 0.67496 0.0
H2084 H 0.67393 0.24526 0.67599 0.0
H2085 H 0.68105 0.27028 0.68373 0.0
H2086 H 0.66571 0.23268 0.69402 0.0
H2087 H 0.61503 0.19493 0.69586 0.0
H2088 H 0.52957 0.14251 0.17971 0.0
H2089 H 0.51795 0.18171 0.17784 0.0
H2090 H 0.58689 0.23659 0.19339 0.0
H2091 H 0.59861 0.19797 0.19521 0.0
H2092 H 0.50141 0.20993 0.18912 0.0
H2093 H 0.60389 0.28875 0.17464 0.0
H2094 H 0.59253 0.25058 0.17555 0.0
H2095 H 0.60989 0.2751 0.18341 0.0
C2096 C 0.54239 0.16308 0.18265 0.0
C2097 C 0.56503 0.16721 0.18759 0.0
C2098 C 0.53567 0.18539 0.18161 0.0
C2099 C 0.55174 0.21224 0.18542 0.0
C2100 C 0.57447 0.21631 0.19029 0.0
H2101 H 0.51586 0.35065 0.19694 0.0
H2102 H 0.51855 0.30579 0.19665 0.0
C2103 C 0.58107 0.19412 0.19135 0.0
C2104 C 0.54464 0.23597 0.18452 0.0
H2105 H 0.57498 0.30782 0.17972 0.0
C2106 C 0.51735 0.23126 0.18698 0.0
C2107 C 0.56531 0.26375 0.18168 0.0
C2108 C 0.59445 0.26984 0.1786 0.0
C2109 C 0.51059 0.25383 0.18691 0.0
C2110 C 0.53183 0.282 0.1844 0.0
C2111 C 0.55874 0.28637 0.18172 0.0
C2112 C 0.52692 0.30741 0.18451 0.0
C2113 C 0.48072 0.24725 0.18947 0.0
C2114 C 0.53069 0.32339 0.17781 0.0
C2115 C 0.52939 0.34911 0.17797 0.0
C2116 C 0.52433 0.35962 0.18486 0.0
C2117 C 0.51948 0.34306 0.19153 0.0
C2118 C 0.52093 0.31731 0.19136 0.0
H2119 H 0.46461 0.22359 0.18905 0.0
H2120 H 0.48181 0.25385 0.19552 0.0
H2121 H 0.47282 0.25946 0.18602 0.0
H2122 H 0.53534 0.3163 0.17246 0.0
H2123 H 0.53318 0.3612 0.17271 0.0
H2124 H 0.82673 0.40874 0.19703 0.0
H2125 H 0.78821 0.35814 0.19553 0.0
H2126 H 0.84165 0.34361 0.17956 0.0
H2127 H 0.88075 0.39472 0.1811 0.0
H2128 H 0.75808 0.32854 0.18251 0.0
H2129 H 0.81748 0.2772 0.19529 0.0
H2130 H 0.82961 0.31549 0.19638 0.0
H2131 H 0.83555 0.30207 0.18755 0.0
C2132 C 0.83037 0.39483 0.19319 0.0
C2133 C 0.85688 0.40568 0.18922 0.0
C2134 C 0.80826 0.36586 0.19233 0.0
C2135 C 0.81208 0.34684 0.18752 0.0
C2136 C 0.83836 0.3577 0.18342 0.0
H2137 H 0.6651 0.17828 0.17398 0.0
H2138 H 0.70951 0.2258 0.17408 0.0
C2139 C 0.8606 0.38694 0.18425 0.0
C2140 C 0.78814 0.3159 0.18683 0.0
H2141 H 0.76972 0.24547 0.19082 0.0
C2142 C 0.76072 0.31037 0.18427 0.0
C2143 C 0.7914 0.29218 0.18925 0.0
C2144 C 0.81999 0.29686 0.19233 0.0
C2145 C 0.73655 0.28196 0.18408 0.0
C2146 C 0.73984 0.25819 0.18641 0.0
C2147 C 0.76724 0.26364 0.18898 0.0
C2148 C 0.71479 0.22769 0.18633 0.0
C2149 C 0.70742 0.27772 0.18157 0.0
C2150 C 0.70356 0.21218 0.19317 0.0
C2151 C 0.67805 0.18472 0.19314 0.0
C2152 C 0.66333 0.17221 0.18626 0.0
C2153 C 0.6756 0.18721 0.1794 0.0
C2154 C 0.70102 0.21454 0.17944 0.0
H2155 H 0.707 0.29848 0.18167 0.0
H2156 H 0.70293 0.26922 0.17564 0.0
H2157 H 0.68961 0.26167 0.18528 0.0
H2158 H 0.71388 0.22182 0.19856 0.0
H2159 H 0.66927 0.17389 0.19853 0.0
H2160 H 0.8512 0.50867 0.19766 0.0
H2161 H 0.80339 0.50561 0.19754 0.0
H2162 H 0.79593 0.48761 0.17341 0.0
H2163 H 0.84325 0.49025 0.17348 0.0
H2164 H 0.77837 0.53405 0.18916 0.0
H2165 H 0.72456 0.41594 0.18239 0.0
H2166 H 0.76198 0.43659 0.1855 0.0
H2167 H 0.75258 0.439 0.17579 0.0
C2168 C 0.83961 0.50455 0.1923 0.0
C2169 C 0.85102 0.49942 0.1856 0.0
C2170 C 0.81223 0.50276 0.19224 0.0
C2171 C 0.79576 0.49578 0.18549 0.0
C2172 C 0.8079 0.49239 0.17872 0.0
H2173 H 0.62775 0.49271 0.18014 0.0
H2174 H 0.67886 0.50491 0.17849 0.0
C2175 C 0.8351 0.49405 0.17877 0.0
C2176 C 0.76526 0.49032 0.18559 0.0
H2177 H 0.69456 0.4371 0.18257 0.0
C2178 C 0.76003 0.5129 0.1877 0.0
C2179 C 0.74127 0.46261 0.18375 0.0
C2180 C 0.74522 0.43703 0.1818 0.0
C2181 C 0.73149 0.5085 0.18801 0.0
C2182 C 0.70756 0.48087 0.18608 0.0
C2183 C 0.71288 0.45838 0.18396 0.0
C2184 C 0.67667 0.4739 0.18688 0.0
C2185 C 0.7271 0.53316 0.19063 0.0
C2186 C 0.65822 0.45196 0.19197 0.0
C2187 C 0.62923 0.44492 0.19287 0.0
C2188 C 0.6178 0.45955 0.18869 0.0
C2189 C 0.636 0.48117 0.18346 0.0
C2190 C 0.66524 0.48829 0.18256 0.0
H2191 H 0.74702 0.551 0.19334 0.0
H2192 H 0.72156 0.54233 0.18565 0.0
H2193 H 0.7088 0.52522 0.19477 0.0
H2194 H 0.66638 0.44042 0.19533 0.0
H2195 H 0.61575 0.42805 0.19691 0.0
H2196 H 0.69951 0.1986 0.03397 0.0
H2197 H 0.65458 0.20073 0.03409 0.0
H2198 H 0.64299 0.18049 1.01007 0.0
H2199 H 0.68789 0.17783 1.00992 0.0
H2200 H 0.64561 0.23921 0.02638 0.0
H2201 H 0.5611 0.12754 1.01802 0.0
H2202 H 0.59714 0.13624 0.02106 0.0
H2203 H 0.59109 0.1439 1.01145 0.0
C2204 C 0.68719 0.19404 0.02872 0.0
C2205 C 0.69741 0.18801 0.02193 0.0
C2206 C 0.66144 0.19533 0.0288 0.0
C2207 C 0.64513 0.19057 0.02211 0.0
C2208 C 0.65476 0.18365 1.01535 0.0
H2209 H 0.53484 0.26042 1.01046 0.0
H2210 H 0.57324 0.24839 1.01231 0.0
C2211 C 0.68055 0.18222 1.01527 0.0
C2212 C 0.61965 0.19542 0.0221 0.0
H2213 H 0.54728 0.16419 1.01757 0.0
C2214 C 0.62407 0.22265 0.02451 0.0
C2215 C 0.59137 0.1738 1.01976 0.0
C2216 C 0.58473 0.14363 1.0175 0.0
C2217 C 0.60139 0.22915 0.02443 0.0
C2218 C 0.57347 0.20804 0.02176 0.0
C2219 C 0.56871 0.18046 1.01958 0.0
C2220 C 0.54965 0.21498 0.02075 0.0
C2221 C 0.60756 0.25869 0.0272 0.0
C2222 C 0.52324 0.19992 0.02481 0.0
C2223 C 0.50106 0.20683 0.02376 0.0
C2224 C 0.50485 0.22865 1.01856 0.0
C2225 C 0.53124 0.24354 1.01452 0.0
C2226 C 0.55331 0.23676 1.01559 0.0
H2227 H 0.62685 0.2689 0.03103 0.0
H2228 H 0.6122 0.27329 0.02223 0.0
H2229 H 0.58852 0.25711 0.0303 0.0
H2230 H 0.51988 0.18296 0.02881 0.0
H2231 H 0.4809 0.19493 0.02693 0.0
H2232 H 0.7665 0.27977 1.00979 0.0
H2233 H 0.77869 0.3303 1.01151 0.0
H2234 H 0.84165 0.34185 0.02874 0.0
H2235 H 0.82965 0.29087 0.02695 0.0
H2236 H 0.77417 0.35772 0.02429 0.0
H2237 H 0.88905 0.41087 1.01428 0.0
H2238 H 0.86343 0.37275 1.01265 0.0
H2239 H 0.87976 0.38496 0.02188 0.0
C2240 C 0.78301 0.29303 1.01394 0.0
C2241 C 0.79727 0.28139 1.0182 0.0
C2242 C 0.78994 0.32196 1.01492 0.0
C2243 C 0.8114 0.34012 1.02017 0.0
C2244 C 0.82542 0.32846 0.02455 0.0
H2245 H 0.82705 0.50579 0.03422 0.0
H2246 H 0.82399 0.45829 0.03409 0.0
C2247 C 0.81842 0.2993 0.02357 0.0
C2248 C 0.81827 0.37094 0.02106 0.0
H2249 H 0.87183 0.44194 1.01852 0.0
C2250 C 0.79559 0.37613 0.02308 0.0
C2251 C 0.8461 0.395 1.01936 0.0
C2252 C 0.871 0.39079 1.01686 0.0
C2253 C 0.79986 0.40452 0.02341 0.0
C2254 C 0.82777 0.42862 0.02181 0.0
C2255 C 0.85052 0.42351 1.0198 0.0
C2256 C 0.83331 0.45913 0.02205 0.0
C2257 C 0.77413 0.40837 0.02525 0.0
C2258 C 0.84101 0.47619 1.0154 0.0
C2259 C 0.84304 0.50366 1.01546 0.0
C2260 C 0.83742 0.51459 0.02218 0.0
C2261 C 0.83127 0.49805 0.02892 0.0
C2262 C 0.82936 0.47074 0.02885 0.0
H2263 H 0.75307 0.3878 0.02447 0.0
H2264 H 0.77554 0.41523 0.03129 0.0
H2265 H 0.77409 0.42546 0.0216 0.0
H2266 H 0.84431 0.46776 1.01009 0.0
H2267 H 0.84777 0.51573 1.01017 0.0
H2268 H 0.51937 0.32677 0.03421 0.0
H2269 H 0.56641 0.37171 0.03436 0.0
H2270 H 0.55869 0.38282 1.01028 0.0
H2271 H 0.51116 0.33788 1.01009 0.0
H2272 H 0.61419 0.38047 0.02673 0.0
H2273 H 0.5872 0.46483 1.01818 0.0
H2274 H 0.5598 0.42886 0.02124 0.0
H2275 H 0.57372 0.43471 1.01165 0.0
C2276 C 0.52733 0.33898 0.02895 0.0
C2277 C 0.51135 0.32861 0.02213 0.0
C2278 C 0.55435 0.36474 0.02906 0.0
C2279 C 0.56615 0.3809 0.02236 0.0
C2280 C 0.54987 0.37114 1.01557 0.0
H2281 H 0.74645 0.49122 1.01088 0.0
H2282 H 0.69604 0.45273 1.01273 0.0
C2283 C 0.52267 0.34534 1.01546 0.0
C2284 C 0.59646 0.40638 0.02239 0.0
H2285 H 0.6377 0.4787 1.01786 0.0
C2286 C 0.61922 0.40199 0.02485 0.0
C2287 C 0.60317 0.43463 1.02003 0.0
C2288 C 0.57967 0.4412 1.0177 0.0
C2289 C 0.6484 0.42468 0.02481 0.0
C2290 C 0.65525 0.45256 0.02212 0.0
C2291 C 0.63249 0.45729 1.01988 0.0
C2292 C 0.68603 0.47638 0.02114 0.0
C2293 C 0.67171 0.41855 0.02763 0.0
C2294 C 0.69725 0.50282 0.02518 0.0
C2295 C 0.72634 0.52505 0.02413 0.0
C2296 C 0.74445 0.52126 1.01894 0.0
C2297 C 0.73308 0.49481 1.01492 0.0
C2298 C 0.70425 0.47269 1.016 0.0
H2299 H 0.66254 0.39929 0.03146 0.0
H2300 H 0.68181 0.41389 0.02268 0.0
H2301 H 0.68908 0.43761 0.03073 0.0
H2302 H 0.68355 0.50618 0.02916 0.0
H2303 H 0.7345 0.54525 0.02728 0.0
H2304 H 0.42395 0.82074 0.8479 0.0
H2305 H 0.43621 0.78241 0.84956 0.0
H2306 H 0.51924 0.84509 0.85922 0.0
H2307 H 0.50622 0.88337 0.85789 0.0
H2308 H 0.47657 0.77643 0.84308 0.0
H2309 H 0.4958 0.78111 0.87425 0.0
H2310 H 0.47977 0.80036 0.86978 0.0
H2311 H 0.51863 0.81512 0.86954 0.0
C2312 C 0.44465 0.82625 0.85049 0.0
C2313 C 0.46409 0.85498 0.85278 0.0
C2314 C 0.45172 0.80432 0.85141 0.0
C2315 C 0.47862 0.81058 0.85457 0.0
C2316 C 0.49806 0.83937 0.85695 0.0
H2317 H 0.53208 0.67863 0.84685 0.0
H2318 H 0.53104 0.72438 0.84652 0.0
C2319 C 0.49069 0.86131 0.85615 0.0
C2320 C 0.48639 0.78705 0.85497 0.0
H2321 H 0.50719 0.75019 0.86708 0.0
C2322 C 0.48327 0.77073 0.84834 0.0
C2323 C 0.495 0.77935 0.86183 0.0
C2324 C 0.49724 0.7947 0.86927 0.0
C2325 C 0.48771 0.74669 0.8484 0.0
C2326 C 0.49679 0.73925 0.85522 0.0
C2327 C 0.50054 0.75595 0.86182 0.0
C2328 C 0.50013 0.71288 0.8558 0.0
C2329 C 0.48121 0.72872 0.84122 0.0
C2330 C 0.48449 0.69174 0.86138 0.0
C2331 C 0.48565 0.66596 0.8617 0.0
C2332 C 0.50232 0.66045 0.85641 0.0
C2333 C 0.51881 0.68202 0.85098 0.0
C2334 C 0.518 0.70811 0.85074 0.0
H2335 H 0.46701 0.73242 0.83726 0.0
H2336 H 0.50192 0.73499 0.83819 0.0
H2337 H 0.47031 0.70509 0.84254 0.0
H2338 H 0.4706 0.69475 0.86538 0.0
H2339 H 0.47259 0.6499 0.86597 0.0
H2340 H 0.20142 0.61415 0.84431 0.0
H2341 H 0.23998 0.66445 0.84631 0.0
H2342 H 0.18683 0.6761 0.86301 0.0
H2343 H 0.14771 0.62526 0.86099 0.0
H2344 H 0.21427 0.72258 0.85185 0.0
H2345 H 0.29366 0.69686 0.86509 0.0
H2346 H 0.27885 0.67797 0.85627 0.0
H2347 H 0.25528 0.67046 0.86437 0.0
C2348 C 0.19791 0.62732 0.84844 0.0
C2349 C 0.17153 0.61573 0.8525 0.0
C2350 C 0.22007 0.65608 0.8496 0.0
C2351 C 0.2165 0.67403 0.85486 0.0
C2352 C 0.19011 0.66261 0.85893 0.0
H2353 H 0.36715 0.84051 0.86799 0.0
H2354 H 0.32219 0.79343 0.86824 0.0
C2355 C 0.16785 0.63359 0.8578 0.0
C2356 C 0.24037 0.70473 0.85594 0.0
H2357 H 0.31257 0.74543 0.86053 0.0
C2358 C 0.23569 0.72764 0.85383 0.0
C2359 C 0.26827 0.7114 0.85859 0.0
C2360 C 0.27433 0.68791 0.86128 0.0
C2361 C 0.25843 0.75691 0.85405 0.0
C2362 C 0.28672 0.76344 0.85634 0.0
C2363 C 0.29104 0.74055 0.8587 0.0
C2364 C 0.31232 0.79369 0.85628 0.0
C2365 C 0.25191 0.78056 0.85184 0.0
C2366 C 0.32175 0.80994 0.84949 0.0
C2367 C 0.34754 0.83711 0.84933 0.0
C2368 C 0.36462 0.8485 0.85594 0.0
C2369 C 0.35464 0.83253 0.86277 0.0
C2370 C 0.32888 0.80548 0.86293 0.0
H2371 H 0.22833 0.77314 0.85243 0.0
H2372 H 0.26453 0.80037 0.85539 0.0
H2373 H 0.25806 0.78654 0.84578 0.0
H2374 H 0.30977 0.80113 0.84423 0.0
H2375 H 0.35465 0.8486 0.84395 0.0
H2376 H 0.3976 0.51948 0.85841 0.0
H2377 H 0.34582 0.50549 0.85929 0.0
H2378 H 0.36532 0.58662 0.84863 0.0
H2379 H 0.41639 0.59987 0.84745 0.0
H2380 H 0.3158 0.5263 0.86602 0.0
H2381 H 0.30119 0.53191 0.83507 0.0
H2382 H 0.33365 0.53412 0.83902 0.0
H2383 H 0.33003 0.56616 0.83846 0.0
C2384 C 0.39072 0.53426 0.85628 0.0
C2385 C 0.4109 0.56057 0.85277 0.0
C2386 C 0.36113 0.52626 0.85676 0.0
C2387 C 0.3513 0.54454 0.85379 0.0
C2388 C 0.37192 0.57152 0.85068 0.0
H2389 H 0.1984 0.55326 0.86537 0.0
H2390 H 0.24449 0.55382 0.86494 0.0
C2391 C 0.40123 0.57924 0.85008 0.0
C2392 C 0.31972 0.53588 0.854 0.0
H2393 H 0.26523 0.53381 0.84309 0.0
C2394 C 0.30466 0.52759 0.86098 0.0
C2395 C 0.30461 0.53662 0.8474 0.0
C2396 C 0.31814 0.54235 0.83956 0.0
C2397 C 0.27565 0.52158 0.86161 0.0
C2398 C 0.26146 0.5249 0.85515 0.0
C2399 C 0.27603 0.53171 0.8481 0.0
C2400 C 0.23231 0.52299 0.85563 0.0
C2401 C 0.26053 0.51147 0.86922 0.0
C2402 C 0.20996 0.5062 0.85037 0.0
C2403 C 0.1835 0.50635 0.85049 0.0
C2404 C 0.17873 0.52317 0.8559 0.0
C2405 C 0.20098 0.53962 0.8612 0.0
C2406 C 0.22745 0.53979 0.861 0.0
H2407 H 0.26922 0.49948 0.87247 0.0
H2408 H 0.26464 0.53073 0.87267 0.0
H2409 H 0.23664 0.49707 0.86854 0.0
H2410 H 0.21311 0.49319 0.84611 0.0
H2411 H 0.16695 0.49357 0.8463 0.0
H2412 H 0.5477 0.82102 1.01342 0.0
H2413 H 0.50839 0.83242 1.01146 0.0
H2414 H 0.45911 0.77366 0.02968 0.0
H2415 H 0.49783 0.76213 0.03159 0.0
H2416 H 0.42559 0.7666 1.01692 0.0
H2417 H 0.4891 0.88316 0.0255 0.0
H2418 H 0.50475 0.87208 1.01801 0.0
H2419 H 0.5014 0.8576 0.02745 0.0
C2420 C 0.52839 0.81051 1.01697 0.0
C2421 C 0.5259 0.79082 0.02269 0.0
C2422 C 0.50606 0.81719 1.01589 0.0
C2423 C 0.48093 0.80425 0.02051 0.0
C2424 C 0.47828 0.78407 0.02608 0.0
H2425 H 0.34322 0.843 0.03055 0.0
H2426 H 0.38748 0.83907 0.03057 0.0
C2427 C 0.50049 0.77751 0.02716 0.0
C2428 C 0.45702 0.81114 1.0196 0.0
H2429 H 0.44031 0.86541 0.02167 0.0
C2430 C 0.42888 0.78826 1.01791 0.0
C2431 C 0.46118 0.83931 0.021 0.0
C2432 C 0.49065 0.86448 0.02315 0.0
C2433 C 0.40484 0.79269 1.0176 0.0
C2434 C 0.40902 0.82091 1.01891 0.0
C2435 C 0.43715 0.84385 0.02061 0.0
C2436 C 0.38417 0.82663 1.01869 0.0
C2437 C 0.37498 0.76685 1.01609 0.0
C2438 C 0.36816 0.822 1.01195 0.0
C2439 C 0.34293 0.82421 1.01192 0.0
C2440 C 0.33313 0.83131 1.01863 0.0
C2441 C 0.3501 0.83753 0.02528 0.0
C2442 C 0.3754 0.83524 0.02531 0.0
H2443 H 0.37444 0.74584 1.01702 0.0
H2444 H 0.35835 0.76748 1.01982 0.0
H2445 H 0.36885 0.76744 1.01007 0.0
H2446 H 0.37478 0.81589 1.00674 0.0
H2447 H 0.33063 0.81948 1.00667 0.0
H2448 H 0.26499 0.74113 0.03036 0.0
H2449 H 0.25302 0.6907 0.02851 0.0
H2450 H 0.18791 0.67853 1.01189 0.0
H2451 H 0.19983 0.72948 1.01378 0.0
H2452 H 0.16896 0.63243 0.02312 0.0
H2453 H 0.27395 0.65767 1.00981 0.0
H2454 H 0.27814 0.67672 1.01862 0.0
H2455 H 0.2621 0.68417 1.01052 0.0
C2456 C 0.24819 0.72781 0.02628 0.0
C2457 C 0.23336 0.73928 0.02221 0.0
C2458 C 0.24144 0.69898 0.02521 0.0
C2459 C 0.21978 0.68085 1.02001 0.0
C2460 C 0.20479 0.69215 1.01592 0.0
H2461 H 0.20357 0.51478 1.00669 0.0
H2462 H 0.20556 0.56175 1.00661 0.0
C2463 C 0.21166 0.72124 1.01697 0.0
C2464 C 0.21288 0.65011 1.01899 0.0
H2465 H 0.24414 0.6092 1.0144 0.0
C2466 C 0.18526 0.62728 0.02113 0.0
C2467 C 0.23405 0.64334 1.01635 0.0
C2468 C 0.26364 0.66673 1.01362 0.0
C2469 C 0.17861 0.59798 0.02093 0.0
C2470 C 0.20028 0.59134 1.01862 0.0
C2471 C 0.22756 0.61417 1.01625 0.0
C2472 C 0.19543 0.56104 1.01859 0.0
C2473 C 0.14841 0.57441 0.02316 0.0
C2474 C 0.18854 0.54451 0.02533 0.0
C2475 C 0.1872 0.51734 0.0254 0.0
C2476 C 0.19305 0.50632 1.01873 0.0
C2477 C 0.19899 0.52252 1.01195 0.0
C2478 C 0.20019 0.5495 1.01188 0.0
H2479 H 0.13233 0.58195 0.02265 0.0
H2480 H 0.14106 0.55466 1.01958 0.0
H2481 H 0.14863 0.56826 0.0292 0.0
H2482 H 0.18536 0.55311 0.03063 0.0
H2483 H 0.18287 0.50564 0.03074 0.0
H2484 H 0.29674 0.47742 1.01375 0.0
H2485 H 0.34796 0.51611 1.01214 0.0
H2486 H 0.33682 0.56667 0.02975 0.0
H2487 H 0.28608 0.52865 0.03128 0.0
H2488 H 0.36433 0.59939 1.01719 0.0
H2489 H 0.41712 0.53653 0.02642 0.0
H2490 H 0.39119 0.52056 1.01879 0.0
H2491 H 0.37901 0.52399 0.0281 0.0
C2492 C 0.30532 0.49683 1.01726 0.0
C2493 C 0.28743 0.49992 0.02267 0.0
C2494 C 0.33463 0.51882 1.01638 0.0
C2495 C 0.34647 0.5442 0.02091 0.0
C2496 C 0.32836 0.54732 0.02621 0.0
H2497 H 0.52322 0.68367 0.03068 0.0
H2498 H 0.47541 0.63879 0.03092 0.0
C2499 C 0.29929 0.5255 0.02709 0.0
C2500 C 0.37737 0.56811 1.02009 0.0
H2501 H 0.44837 0.58504 0.02234 0.0
C2502 C 0.38268 0.59617 1.01828 0.0
C2503 C 0.40138 0.56409 0.02162 0.0
C2504 C 0.39706 0.53476 0.02391 0.0
C2505 C 0.41113 0.62021 1.01797 0.0
C2506 C 0.4352 0.61615 1.01938 0.0
C2507 C 0.42998 0.58812 0.02121 0.0
C2508 C 0.46577 0.64101 1.01903 0.0
C2509 C 0.41511 0.64996 1.01635 0.0
C2510 C 0.4768 0.65652 1.01221 0.0
C2511 C 0.50395 0.68209 1.01207 0.0
C2512 C 0.52097 0.69271 1.01873 0.0
C2513 C 0.51077 0.67612 0.02545 0.0
C2514 C 0.48339 0.65049 0.0256 0.0
H2515 H 0.39468 0.65056 1.0173 0.0
H2516 H 0.43252 0.66686 1.01999 0.0
H2517 H 0.42157 0.65566 1.01029 0.0
H2518 H 0.46393 0.64935 1.00704 0.0
H2519 H 0.51118 0.69406 1.00676 0.0
H2520 H 0.20017 0.47451 0.51335 0.0
H2521 H 0.18808 0.51323 0.51114 0.0
H2522 H 0.25223 0.56733 0.52784 0.0
H2523 H 0.26438 0.52919 0.53001 0.0
H2524 H 0.16819 0.54053 0.52196 0.0
H2525 H 0.27386 0.62057 0.50908 0.0
H2526 H 0.26238 0.58236 0.50994 0.0
H2527 H 0.27775 0.6063 0.51801 0.0
C2528 C 0.21176 0.49477 0.51649 0.0
C2529 C 0.23325 0.49884 0.52184 0.0
C2530 C 0.2048 0.51681 0.51525 0.0
C2531 C 0.21949 0.54336 0.51927 0.0
C2532 C 0.24092 0.5473 0.52459 0.0
H2533 H 0.18073 0.67992 0.52988 0.0
H2534 H 0.1834 0.63512 0.52955 0.0
C2535 C 0.24776 0.52538 0.52585 0.0
C2536 C 0.21243 0.567 0.51808 0.0
H2537 H 0.24371 0.63919 0.51354 0.0
C2538 C 0.18456 0.56202 0.52003 0.0
C2539 C 0.23367 0.59499 0.51549 0.0
C2540 C 0.26351 0.60138 0.51294 0.0
C2541 C 0.17777 0.58456 0.51973 0.0
C2542 C 0.19954 0.61295 0.51753 0.0
C2543 C 0.22704 0.61757 0.51531 0.0
C2544 C 0.1947 0.63842 0.51758 0.0
C2545 C 0.14732 0.57769 0.52177 0.0
C2546 C 0.20016 0.65539 0.51098 0.0
C2547 C 0.19886 0.68113 0.51117 0.0
C2548 C 0.19214 0.69066 0.51798 0.0
C2549 C 0.18567 0.67314 0.52452 0.0
C2550 C 0.18709 0.64739 0.52433 0.0
H2551 H 0.13135 0.55412 0.52105 0.0
H2552 H 0.14684 0.58342 0.52784 0.0
H2553 H 0.14033 0.59041 0.5182 0.0
H2554 H 0.20613 0.64905 0.5057 0.0
H2555 H 0.20399 0.69399 0.50601 0.0
H2556 H 0.55011 0.72933 0.51374 0.0
H2557 H 0.5111 0.67847 0.5117 0.0
H2558 H 0.45821 0.68947 0.52861 0.0
H2559 H 0.49662 0.7398 0.53062 0.0
H2560 H 0.484 0.63154 0.52262 0.0
H2561 H 0.40398 0.65766 0.51 0.0
H2562 H 0.44231 0.68418 0.51074 0.0
H2563 H 0.41882 0.67598 0.51889 0.0
C2564 C 0.53007 0.72085 0.51698 0.0
C2565 C 0.5264 0.73856 0.52233 0.0
C2566 C 0.50785 0.69181 0.51583 0.0
C2567 C 0.48155 0.6802 0.51994 0.0
C2568 C 0.47804 0.69798 0.52528 0.0
H2569 H 0.34386 0.50438 0.53029 0.0
H2570 H 0.38872 0.55192 0.53017 0.0
C2571 C 0.50012 0.72677 0.52644 0.0
C2572 C 0.45766 0.64951 0.51882 0.0
H2573 H 0.38531 0.60889 0.51437 0.0
C2574 C 0.46249 0.62653 0.52074 0.0
C2575 C 0.42963 0.6429 0.51629 0.0
C2576 C 0.42336 0.66645 0.51379 0.0
C2577 C 0.4398 0.59723 0.52045 0.0
C2578 C 0.41141 0.59074 0.51827 0.0
C2579 C 0.40692 0.61373 0.51611 0.0
C2580 C 0.38589 0.56043 0.51822 0.0
C2581 C 0.4465 0.57352 0.52243 0.0
C2582 C 0.36918 0.54919 0.51156 0.0
C2583 C 0.34345 0.52213 0.51163 0.0
C2584 C 0.33362 0.50555 0.51837 0.0
C2585 C 0.35087 0.51635 0.52498 0.0
C2586 C 0.37664 0.54356 0.52491 0.0
H2587 H 0.4701 0.58108 0.52178 0.0
H2588 H 0.44049 0.56707 0.52847 0.0
H2589 H 0.43387 0.55397 0.5188 0.0
H2590 H 0.37574 0.56171 0.50633 0.0
H2591 H 0.33082 0.51461 0.50642 0.0
H2592 H 0.50001 0.8019 0.50916 0.0
H2593 H 0.45395 0.80142 0.50953 0.0
H2594 H 0.48482 0.86139 0.5285 0.0
H2595 H 0.53094 0.86096 0.52837 0.0
H2596 H 0.43278 0.82029 0.53144 0.0
H2597 H 0.42897 0.85588 0.50219 0.0
H2598 H 0.43383 0.8248 0.50187 0.0
H2599 H 0.4616 0.85835 0.5061 0.0
C2600 C 0.49734 0.81543 0.51335 0.0
C2601 C 0.5194 0.83164 0.51871 0.0
C2602 C 0.47088 0.81531 0.51351 0.0
C2603 C 0.46589 0.83191 0.51892 0.0
C2604 C 0.48809 0.84854 0.52422 0.0
H2605 H 0.2994 0.83338 0.51655 0.0
H2606 H 0.35143 0.84827 0.51559 0.0
C2607 C 0.51453 0.84835 0.52413 0.0
C2608 C 0.43668 0.82981 0.51941 0.0
H2609 H 0.38226 0.82838 0.50857 0.0
C2610 C 0.422 0.82253 0.52644 0.0
C2611 C 0.42252 0.83331 0.51296 0.0
C2612 C 0.43774 0.84385 0.50539 0.0
C2613 C 0.3933 0.81725 0.52713 0.0
C2614 C 0.37823 0.81815 0.52055 0.0
C2615 C 0.3934 0.82697 0.51359 0.0
C2616 C 0.34654 0.80893 0.52074 0.0
C2617 C 0.37955 0.81089 0.53495 0.0
C2618 C 0.32623 0.7815 0.52368 0.0
C2619 C 0.2968 0.77323 0.52432 0.0
C2620 C 0.28673 0.79184 0.52186 0.0
C2621 C 0.30661 0.81864 0.51851 0.0
C2622 C 0.33632 0.82715 0.51797 0.0
H2623 H 0.39635 0.82117 0.53949 0.0
H2624 H 0.36383 0.81884 0.53554 0.0
H2625 H 0.36784 0.787 0.53594 0.0
H2626 H 0.33319 0.76649 0.52557 0.0
H2627 H 0.28188 0.75227 0.52683 0.0
H2628 H 0.20202 0.5947 0.34424 0.0
H2629 H 0.23995 0.58202 0.34601 0.0
H2630 H 0.18643 0.51719 0.36263 0.0
H2631 H 0.14783 0.52969 0.36078 0.0
H2632 H 0.27062 0.58469 0.35883 0.0
H2633 H 0.20876 0.47103 0.34791 0.0
H2634 H 0.19668 0.49706 0.34647 0.0
H2635 H 0.1918 0.47973 0.35557 0.0
C2636 C 0.19822 0.57769 0.34827 0.0
C2637 C 0.17182 0.56304 0.35233 0.0
C2638 C 0.22 0.57048 0.34929 0.0
C2639 C 0.216 0.54835 0.35437 0.0
C2640 C 0.18984 0.53396 0.35856 0.0
H2641 H 0.36539 0.53029 0.36785 0.0
H2642 H 0.32113 0.53373 0.36798 0.0
C2643 C 0.16789 0.54125 0.35755 0.0
C2644 C 0.23968 0.54107 0.35524 0.0
H2645 H 0.25678 0.4875 0.35221 0.0
C2646 C 0.26751 0.56335 0.35744 0.0
C2647 C 0.23579 0.51337 0.35332 0.0
C2648 C 0.20674 0.48892 0.35062 0.0
C2649 C 0.2915 0.55886 0.35769 0.0
C2650 C 0.28759 0.53108 0.35584 0.0
C2651 C 0.25974 0.5087 0.35368 0.0
C2652 C 0.31247 0.52535 0.35592 0.0
C2653 C 0.32109 0.58425 0.35969 0.0
C2654 C 0.32165 0.51802 0.34916 0.0
C2655 C 0.34696 0.51576 0.34906 0.0
C2656 C 0.36357 0.52075 0.35574 0.0
C2657 C 0.35338 0.52655 0.36257 0.0
C2658 C 0.32809 0.52869 0.36266 0.0
H2659 H 0.32175 0.60545 0.3591 0.0
H2660 H 0.32626 0.58215 0.36571 0.0
H2661 H 0.33832 0.5846 0.35601 0.0
H2662 H 0.30989 0.51519 0.34388 0.0
H2663 H 0.35414 0.51131 0.3437 0.0
H2664 H 0.49715 0.62253 0.36082 0.0
H2665 H 0.50886 0.67326 0.36304 0.0
H2666 H 0.44269 0.66169 0.34684 0.0
H2667 H 0.43091 0.6115 0.34467 0.0
H2668 H 0.52733 0.71975 0.35219 0.0
H2669 H 0.42263 0.69424 0.36568 0.0
H2670 H 0.43414 0.66756 0.36472 0.0
H2671 H 0.41801 0.67572 0.35676 0.0
C2672 C 0.48501 0.63084 0.3578 0.0
C2673 C 0.46309 0.61303 0.35258 0.0
C2674 C 0.49176 0.6598 0.35904 0.0
C2675 C 0.47642 0.67123 0.35517 0.0
C2676 C 0.45451 0.65332 0.35 0.0
H2677 H 0.51411 0.8463 0.34449 0.0
H2678 H 0.5111 0.79866 0.34474 0.0
C2679 C 0.44789 0.62461 0.34874 0.0
C2680 C 0.4834 0.70197 0.35632 0.0
H2681 H 0.45217 0.74283 0.36105 0.0
C2682 C 0.51103 0.72485 0.35422 0.0
C2683 C 0.46226 0.70871 0.35903 0.0
C2684 C 0.43269 0.68529 0.36175 0.0
C2685 C 0.5177 0.75416 0.35448 0.0
C2686 C 0.49603 0.76077 0.35681 0.0
C2687 C 0.46877 0.7379 0.35918 0.0
C2688 C 0.50078 0.79106 0.35677 0.0
C2689 C 0.54794 0.77775 0.35228 0.0
C2690 C 0.49592 0.80283 0.36342 0.0
C2691 C 0.49742 0.82997 0.36329 0.0
C2692 C 0.50375 0.84609 0.35647 0.0
C2693 C 0.50949 0.8347 0.34986 0.0
C2694 C 0.50788 0.80743 0.35 0.0
H2695 H 0.56404 0.77026 0.35288 0.0
H2696 H 0.54788 0.78372 0.34622 0.0
H2697 H 0.55516 0.79758 0.35582 0.0
H2698 H 0.49035 0.79069 0.36872 0.0
H2699 H 0.49284 0.83794 0.3685 0.0
H2700 H 0.18479 0.66105 0.3682 0.0
H2701 H 0.23187 0.70597 0.36857 0.0
H2702 H 0.2261 0.71738 0.34441 0.0
H2703 H 0.17857 0.67258 0.34402 0.0
H2704 H 0.28005 0.71462 0.36133 0.0
H2705 H 0.25462 0.79936 0.35214 0.0
H2706 H 0.22675 0.76344 0.35509 0.0
H2707 H 0.2415 0.76933 0.34559 0.0
C2708 C 0.19319 0.67336 0.36298 0.0
C2709 C 0.17777 0.66311 0.35607 0.0
C2710 C 0.22022 0.69909 0.3632 0.0
C2711 C 0.23259 0.71532 0.35654 0.0
C2712 C 0.21684 0.70568 0.34967 0.0
H2713 H 0.4131 0.82263 0.34532 0.0
H2714 H 0.36249 0.78483 0.34728 0.0
C2715 C 0.18964 0.67994 0.34945 0.0
C2716 C 0.26296 0.74066 0.35668 0.0
H2717 H 0.30506 0.8126 0.35188 0.0
C2718 C 0.28539 0.7361 0.35933 0.0
C2719 C 0.27009 0.76887 0.35417 0.0
C2720 C 0.24694 0.77569 0.35166 0.0
C2721 C 0.31468 0.75854 0.3593 0.0
C2722 C 0.32197 0.78631 0.35643 0.0
C2723 C 0.29951 0.79127 0.35403 0.0
C2724 C 0.35289 0.8097 0.35539 0.0
C2725 C 0.33763 0.75224 0.36232 0.0
C2726 C 0.36439 0.8366 0.35922 0.0
C2727 C 0.39359 0.85844 0.3581 0.0
C2728 C 0.41153 0.85379 0.35305 0.0
C2729 C 0.39987 0.82688 0.34925 0.0
C2730 C 0.37093 0.80516 0.35039 0.0
H2731 H 0.32813 0.73339 0.36629 0.0
H2732 H 0.34759 0.74682 0.35748 0.0
H2733 H 0.35516 0.77147 0.36534 0.0
H2734 H 0.35083 0.84063 0.36308 0.0
H2735 H 0.40197 0.87901 0.36108 0.0
H2736 H 0.21727 0.28987 0.19739 0.0
H2737 H 0.27025 0.31648 0.19624 0.0
H2738 H 0.26366 0.35212 0.17476 0.0
H2739 H 0.21021 0.32533 0.17585 0.0
H2740 H 0.30443 0.31191 0.18419 0.0
H2741 H 0.32369 0.42465 0.18715 0.0
H2742 H 0.28998 0.39303 0.19005 0.0
H2743 H 0.29723 0.40202 0.18013 0.0
C2744 C 0.22692 0.30348 0.19243 0.0
C2745 C 0.20922 0.30542 0.18672 0.0
C2746 C 0.25737 0.31868 0.19177 0.0
C2747 C 0.27113 0.33657 0.18545 0.0
C2748 C 0.25365 0.33879 0.17975 0.0
H2749 H 0.45476 0.44645 0.17308 0.0
H2750 H 0.40158 0.42199 0.17404 0.0
C2751 C 0.22303 0.32336 0.18037 0.0
C2752 C 0.30368 0.35207 0.1848 0.0
H2753 H 0.3648 0.41971 0.18466 0.0
C2754 C 0.31763 0.33549 0.1843 0.0
C2755 C 0.321 0.38284 0.18491 0.0
C2756 C 0.30737 0.40181 0.18565 0.0
C2757 C 0.34823 0.34873 0.1838 0.0
C2758 C 0.36569 0.37956 0.18404 0.0
C2759 C 0.35165 0.39613 0.1845 0.0
C2760 C 0.3984 0.39503 0.18367 0.0
C2761 C 0.36141 0.32944 0.18279 0.0
C2762 C 0.41479 0.3887 0.18886 0.0
C2763 C 0.44532 0.40255 0.18827 0.0
C2764 C 0.46026 0.42339 0.18255 0.0
C2765 C 0.44397 0.43044 0.17754 0.0
C2766 C 0.41348 0.41645 0.17809 0.0
H2767 H 0.34536 0.3078 0.18041 0.0
H2768 H 0.38064 0.33963 0.17894 0.0
H2769 H 0.36851 0.32575 0.18842 0.0
H2770 H 0.40398 0.37298 0.19337 0.0
H2771 H 0.45722 0.39677 0.19225 0.0
H2772 H 0.625 0.06603 0.19287 0.0
H2773 H 0.6487 0.03634 0.1939 0.0
H2774 H 0.59786 0.98383 0.17491 0.0
H2775 H 0.57404 0.01312 0.17389 0.0
H2776 H 0.62229 0.97259 0.19574 0.0
H2777 H 0.68421 0.0129 0.16865 0.0
H2778 H 0.66864 0.03194 0.17354 0.0
H2779 H 0.64574 0.99983 0.16806 0.0
C2780 C 0.61872 0.04801 0.18896 0.0
C2781 C 0.59768 0.04206 0.18328 0.0
C2782 C 0.63233 0.03108 0.18954 0.0
C2783 C 0.62545 1.00807 0.1844 0.0
C2784 C 0.60395 1.00171 0.17886 0.0
H2785 H 0.69773 0.89231 0.1764 0.0
H2786 H 0.66978 0.91783 0.1756 0.0
C2787 C 0.59021 0.01843 0.17831 0.0
C2788 C 0.64072 0.99075 0.1848 0.0
H2789 H 0.68688 0.97488 0.17491 0.0
C2790 C 0.63649 0.97317 0.1912 0.0
C2791 C 0.65903 0.99117 0.17884 0.0
C2792 C 0.66496 0.0101 0.17189 0.0
C2793 C 0.64973 0.95582 0.19177 0.0
C2794 C 0.66853 0.95662 0.18587 0.0
C2795 C 0.67255 0.97409 0.17944 0.0
C2796 C 0.685 0.9404 0.18639 0.0
C2797 C 0.64276 0.93622 0.19862 0.0
C2798 C 0.70326 0.94468 0.19265 0.0
C2799 C 0.71902 0.92996 0.19314 0.0
C2800 C 0.71743 0.91078 0.18733 0.0
C2801 C 0.69944 0.90674 0.181 0.0
C2802 C 0.68346 0.92141 0.18053 0.0
H2803 H 0.62135 0.93068 0.20114 0.0
H2804 H 0.64235 0.91566 0.19711 0.0
H2805 H 0.65965 0.9477 0.20305 0.0
H2806 H 0.70571 0.9598 0.19714 0.0
H2807 H 0.73282 0.93403 0.19808 0.0
H2808 H 0.12669 0.8123 0.17555 0.0
H2809 H 0.09959 0.75879 0.17475 0.0
H2810 H 0.06724 0.754 0.19756 0.0
H2811 H 0.09422 0.80709 0.19846 0.0
H2812 H 0.10189 0.71533 0.1858 0.0
H2813 H 0.99295 0.70617 0.1835 0.0
H2814 H 0.02628 0.73921 0.18112 0.0
H2815 H 0.0166 0.72948 0.19092 0.0
C2816 C 0.11394 0.7999 0.18041 0.0
C2817 C 0.11275 0.81427 0.18706 0.0
C2818 C 0.09844 0.76925 0.17995 0.0
C2819 C 0.08108 0.75229 0.18607 0.0
C2820 C 0.08019 0.76654 0.19273 0.0
H2821 H 0.95596 0.56652 0.19292 0.0
H2822 H 0.98619 0.61974 0.19411 0.0
C2823 C 0.09584 0.79704 0.19324 0.0
C2824 C 0.06372 0.71975 0.18554 0.0
H2825 H 0.99383 0.66229 0.18476 0.0
C2826 C 0.07827 0.70371 0.18553 0.0
C2827 C 0.03288 0.70451 0.18528 0.0
C2828 C 0.0161 0.72059 0.18515 0.0
C2829 C 0.06286 0.67293 0.18541 0.0
C2830 C 0.03191 0.65759 0.18504 0.0
C2831 C 0.01744 0.67377 0.18505 0.0
C2832 C 1.01417 0.62491 0.18451 0.0
C2833 C 0.07998 0.65725 0.18592 0.0
C2834 C 0.01948 0.60975 0.17872 0.0
C2835 C 1.00244 0.57932 0.1781 0.0
C2836 C 0.97923 0.56318 0.18316 0.0
C2837 C 0.97374 0.57826 0.18895 0.0
C2838 C 0.99099 0.60875 0.18961 0.0
H2839 H 0.1015 0.67107 0.18868 0.0
H2840 H 0.06794 0.63665 0.1892 0.0
H2841 H 0.08405 0.65196 0.18009 0.0
H2842 H 0.03651 0.62149 0.17456 0.0
H2843 H 1.00712 0.56848 0.17353 0.0
H2844 H 0.32694 0.20629 0.36484 0.0
H2845 H 0.35294 0.2598 0.36563 0.0
H2846 H 0.3241 0.26416 0.34297 0.0
H2847 H 0.29841 0.21107 0.34208 0.0
H2848 H 0.39797 0.3034 0.35438 0.0
H2849 H 0.29783 0.31165 0.35731 0.0
H2850 H 0.29855 0.27882 0.35965 0.0
H2851 H 0.29794 0.2883 0.34986 0.0
C2852 C 0.32623 0.21859 0.36 0.0
C2853 C 0.31044 0.2041 0.3534 0.0
C2854 C 0.34113 0.24924 0.36047 0.0
C2855 C 0.34026 0.26608 0.35439 0.0
C2856 C 0.32489 0.25172 0.34776 0.0
H2857 H 0.39974 0.45211 0.34807 0.0
H2858 H 0.37674 0.39891 0.3467 0.0
C2859 C 0.31027 0.22121 0.34726 0.0
C2860 C 0.35526 0.29862 0.35492 0.0
H2861 H 0.34238 0.35573 0.356 0.0
C2862 C 0.38585 0.31486 0.35478 0.0
C2863 C 0.33949 0.31366 0.35532 0.0
C2864 C 0.30663 0.29735 0.3556 0.0
C2865 C 0.40103 0.34563 0.35492 0.0
C2866 C 0.38528 0.36078 0.35547 0.0
C2867 C 0.35463 0.3444 0.35558 0.0
C2868 C 0.40009 0.39343 0.35609 0.0
C2869 C 0.43382 0.36152 0.35424 0.0
C2870 C 0.42083 0.40839 0.36184 0.0
C2871 C 0.43421 0.43878 0.36256 0.0
C2872 C 0.42688 0.45511 0.35764 0.0
C2873 C 0.406 0.44023 0.35192 0.0
C2874 C 0.39276 0.40976 0.35116 0.0
H2875 H 0.44146 0.34791 0.35134 0.0
H2876 H 0.44207 0.38222 0.35104 0.0
H2877 H 0.44354 0.36664 0.36004 0.0
H2878 H 0.42636 0.39652 0.36589 0.0
H2879 H 0.44997 0.44944 0.36708 0.0
H2880 H 0.57155 0.01489 0.3617 0.0
H2881 H 0.62458 0.04503 0.36043 0.0
H2882 H 0.62914 0.96901 0.35371 0.0
H2883 H 0.57598 0.93946 0.35441 0.0
H2884 H 0.66681 0.04791 0.36738 0.0
H2885 H 0.68055 0.02053 0.33788 0.0
H2886 H 0.64509 1.00905 0.34186 0.0
H2887 H 0.66299 0.98818 0.34356 0.0
C2888 C 0.5839 1.00478 0.3598 0.0
C2889 C 0.56955 0.97489 0.35806 0.0
C2890 C 0.61432 0.022 0.35912 0.0
C2891 C 0.63133 1.0097 0.35682 0.0
C2892 C 0.61686 0.97959 0.3552 0.0
H2893 H 0.8199 0.09833 0.36679 0.0
H2894 H 0.76661 0.07034 0.36755 0.0
C2895 C 0.58634 0.96254 0.35567 0.0
C2896 C 0.66408 0.02813 0.35644 0.0
H2897 H 0.72364 0.04318 0.34553 0.0
C2898 C 0.67912 0.04703 0.36255 0.0
C2899 C 0.68062 0.02771 0.3501 0.0
C2900 C 0.66642 0.01053 0.34295 0.0
C2901 C 0.70973 0.06507 0.36254 0.0
C2902 C 0.72638 0.06329 0.35643 0.0
C2903 C 0.71131 0.04456 0.35029 0.0
C2904 C 0.75921 0.08096 0.35613 0.0
C2905 C 0.72356 0.08654 0.369 0.0
C2906 C 0.77345 0.09565 0.34939 0.0
C2907 C 0.80397 0.11074 0.34887 0.0
C2908 C 0.82125 0.11223 0.35512 0.0
C2909 C 0.80722 0.09812 0.36192 0.0
C2910 C 0.77661 0.08222 0.36237 0.0
H2911 H 0.70799 0.09247 0.37154 0.0
H2912 H 0.73002 0.07644 0.37358 0.0
H2913 H 0.74316 0.10685 0.36708 0.0
H2914 H 0.76093 0.09526 0.34447 0.0
H2915 H 0.81411 0.12128 0.34354 0.0
H2916 H 0.93826 0.73045 0.3434 0.0
H2917 H 0.96497 0.7042 0.34446 0.0
H2918 H 0.92351 0.66861 0.36604 0.0
H2919 H 0.89651 0.6951 0.36505 0.0
H2920 H 1.00415 0.70931 0.35659 0.0
H2921 H 0.91129 0.59627 0.35338 0.0
H2922 H 0.90907 0.62778 0.35046 0.0
H2923 H 0.90717 0.61881 0.36039 0.0
C2924 C 0.93453 0.71693 0.34837 0.0
C2925 C 0.91502 0.71493 0.35414 0.0
C2926 C 0.94998 0.70194 0.34897 0.0
C2927 C 0.94618 0.6842 0.35529 0.0
C2928 C 0.92658 0.68187 0.36105 0.0
H2929 H 0.02061 0.57499 0.36721 0.0
H2930 H 0.99171 0.59918 0.36629 0.0
C2931 C 0.9112 0.69712 0.36049 0.0
C2932 C 0.96346 0.66896 0.35587 0.0
H2933 H 0.95756 0.60163 0.35571 0.0
C2934 C 0.99397 0.68576 0.3564 0.0
C2935 C 0.95024 0.63823 0.35564 0.0
C2936 C 0.91766 0.61907 0.35488 0.0
C2937 C 1.01155 0.67275 0.35681 0.0
C2938 C 0.99841 0.64196 0.35644 0.0
C2939 C 0.96781 0.62518 0.35595 0.0
C2940 C 0.01586 0.62672 0.35677 0.0
C2941 C 0.04398 0.69223 0.35786 0.0
C2942 C 0.03887 0.63348 0.35163 0.0
C2943 C 0.0557 0.61979 0.3522 0.0
C2944 C 0.04963 0.5987 0.35785 0.0
C2945 C 0.02599 0.59122 0.3628 0.0
C2946 C 1.00937 0.60505 0.36228 0.0
H2947 H 0.04934 0.71371 0.36031 0.0
H2948 H 0.05306 0.68201 0.36167 0.0
H2949 H 0.05492 0.69624 0.35223 0.0
H2950 H 0.0439 0.64942 0.34717 0.0
H2951 H 0.0736 0.62588 0.34826 0.0
H2952 H 0.57208 0.62512 0.84916 0.0
H2953 H 0.62528 0.64822 0.84783 0.0
H2954 H 0.62776 0.59896 0.86708 0.0
H2955 H 0.57478 0.57523 0.86824 0.0
H2956 H 0.66832 0.68279 0.85711 0.0
H2957 H 0.67662 0.58388 0.85261 0.0
H2958 H 0.64222 0.58311 0.85228 0.0
H2959 H 0.65792 0.582 0.8613 0.0
C2960 C 0.58397 0.61896 0.85303 0.0
C2961 C 0.56911 0.59815 0.85877 0.0
C2962 C 0.61445 0.63226 0.85229 0.0
C2963 C 0.63081 0.62506 0.85726 0.0
C2964 C 0.61586 0.60439 0.86301 0.0
H2965 H 0.81866 0.69969 0.86563 0.0
H2966 H 0.76516 0.67337 0.8666 0.0
C2967 C 0.58545 0.59094 0.86371 0.0
C2968 C 0.66347 0.63997 0.85664 0.0
H2969 H 0.72107 0.62761 0.8555 0.0
C2970 C 0.67973 0.67063 0.8567 0.0
C2971 C 0.67874 0.62433 0.8561 0.0
C2972 C 0.66296 0.59154 0.85548 0.0
C2973 C 0.71047 0.68588 0.85639 0.0
C2974 C 0.72563 0.67023 0.85597 0.0
C2975 C 0.70952 0.63964 0.8559 0.0
C2976 C 0.75816 0.68537 0.85534 0.0
C2977 C 0.72665 0.71874 0.85659 0.0
C2978 C 0.7721 0.70047 0.84866 0.0
C2979 C 0.80258 0.71526 0.84806 0.0
C2980 C 0.8201 0.71557 0.85415 0.0
C2981 C 0.80603 0.70005 0.86082 0.0
C2982 C 0.7754 0.68496 0.86139 0.0
H2983 H 0.71233 0.72748 0.85833 0.0
H2984 H 0.74537 0.72704 0.86059 0.0
H2985 H 0.73542 0.72725 0.85083 0.0
H2986 H 0.75935 0.7009 0.84389 0.0
H2987 H 0.81239 0.7269 0.84282 0.0
H2988 H 0.31303 0.11089 0.86612 0.0
H2989 H 0.33967 0.08412 0.86688 0.0
H2990 H 0.34146 0.08046 0.84235 0.0
H2991 H 0.31491 0.10707 0.84152 0.0
H2992 H 0.32203 0.02712 0.8607 0.0
H2993 H 0.42758 0.11173 0.84858 0.0
H2994 H 0.40066 0.12003 0.85224 0.0
H2995 H 0.39603 0.10374 0.84298 0.0
C2996 C 0.31934 0.1047 0.86088 0.0
C2997 C 0.31179 0.11133 0.85376 0.0
C2998 C 0.3345 0.08925 0.86133 0.0
C2999 C 0.34287 0.08043 0.85468 0.0
C3000 C 0.33567 0.08732 0.84757 0.0
H3001 H 0.39403 0.94688 0.84989 0.0
H3002 H 0.36999 0.97618 0.84882 0.0
C3003 C 0.32033 0.10251 0.84711 0.0
C3004 C 0.35827 0.06324 0.85514 0.0
H3005 H 0.42174 0.06472 0.85038 0.0
C3006 C 0.34385 0.03538 0.85846 0.0
C3007 C 0.38685 0.07399 0.85225 0.0
C3008 C 0.40388 0.1041 0.84886 0.0
C3009 C 0.35698 0.0179 0.85886 0.0
C3010 C 0.38531 0.0284 0.85583 0.0
C3011 C 0.39993 0.05647 0.85263 0.0
C3012 C 0.40047 0.01096 0.85617 0.0
C3013 C 0.34059 0.98847 0.86265 0.0
C3014 C 0.4261 0.021 0.86048 0.0
C3015 C 0.43983 1.00428 0.8611 0.0
C3016 C 0.42845 0.97722 0.85737 0.0
C3017 C 0.40331 0.96757 0.85286 0.0
C3018 C 0.38944 0.98424 0.85228 0.0
H3019 H 0.32198 0.9862 0.86611 0.0
H3020 H 0.33185 0.97123 0.85821 0.0
H3021 H 0.35529 0.98471 0.8664 0.0
H3022 H 0.43518 0.04156 0.8635 0.0
H3023 H 0.45919 0.01239 0.8646 0.0
H3024 H 0.94082 0.21467 0.84343 0.0
H3025 H 0.96753 0.26757 0.84462 0.0
H3026 H 0.92314 0.2612 0.86577 0.0
H3027 H 0.8968 0.20783 0.86473 0.0
H3028 H 0.95142 0.30728 0.84487 0.0
H3029 H 1.00561 0.31347 0.87239 0.0
H3030 H 0.98593 0.27994 0.86709 0.0
H3031 H 0.9666 0.29264 0.87295 0.0
C3032 C 0.93664 0.22437 0.84836 0.0
C3033 C 0.91664 0.20672 0.85401 0.0
C3034 C 0.95203 0.25482 0.84903 0.0
C3035 C 0.94795 0.26871 0.85536 0.0
C3036 C 0.92744 0.25121 0.86093 0.0
H3037 H 0.02143 0.45236 0.86774 0.0
H3038 H 0.99194 0.39926 0.86658 0.0
C3039 C 0.91214 0.2206 0.8603 0.0
C3040 C 0.965 0.30139 0.85599 0.0
H3041 H 1.01151 0.35789 0.86755 0.0
C3042 C 0.96461 0.31826 0.84983 0.0
C3043 C 0.98245 0.31605 0.86243 0.0
C3044 C 0.98547 0.29964 0.86906 0.0
C3045 C 0.9807 0.349 0.84998 0.0
C3046 C 0.99798 0.36358 0.85643 0.0
C3047 C 0.99827 0.34681 0.8626 0.0
C3048 C 0.0157 0.39616 0.85692 0.0
C3049 C 0.9787 0.36571 0.84328 0.0
C3050 C 0.03906 0.41238 0.85189 0.0
C3051 C 0.05613 0.44288 0.85257 0.0
C3052 C 0.05017 0.45784 0.8583 0.0
C3053 C 0.02661 0.44159 0.86326 0.0
C3054 C 1.00973 0.41115 0.86262 0.0
H3055 H 0.9597 0.3518 0.83957 0.0
H3056 H 0.97694 0.38472 0.84523 0.0
H3057 H 0.99876 0.374 0.83978 0.0
H3058 H 0.04443 0.40139 0.84752 0.0
H3059 H 0.07417 0.45471 0.84868 0.0
H3060 H 0.57541 0.56694 0.67386 0.0
H3061 H 0.60001 0.62009 0.67474 0.0
H3062 H 0.64936 0.61806 0.69404 0.0
H3063 H 0.62545 0.56478 0.69299 0.0
H3064 H 0.60286 0.65744 0.68518 0.0
H3065 H 0.71444 0.67586 0.68096 0.0
H3066 H 0.68243 0.64062 0.6796 0.0
H3067 H 0.69653 0.6532 0.68904 0.0
C3068 C 0.59149 0.57778 0.6783 0.0
C3069 C 0.59862 0.56156 0.68332 0.0
C3070 C 0.60558 0.60828 0.6788 0.0
C3071 C 0.62717 0.62346 0.68434 0.0
C3072 C 0.6335 0.60716 0.68956 0.0
H3073 H 0.73288 0.80487 0.69761 0.0
H3074 H 0.70604 0.7519 0.69655 0.0
C3075 C 0.61957 0.57659 0.68901 0.0
C3076 C 0.64284 0.65619 0.68462 0.0
H3077 H 0.71071 0.71717 0.68455 0.0
C3078 C 0.62644 0.67044 0.68499 0.0
C3079 C 0.67369 0.67347 0.68432 0.0
C3080 C 0.6928 0.66005 0.68338 0.0
C3081 C 0.63993 0.70111 0.68526 0.0
C3082 C 0.67071 0.71825 0.68511 0.0
C3083 C 0.68712 0.7041 0.68469 0.0
C3084 C 0.68641 0.75082 0.68567 0.0
C3085 C 0.62116 0.715 0.6859 0.0
C3086 C 0.68452 0.7682 0.67988 0.0
C3087 C 0.70012 0.79884 0.68044 0.0
C3088 C 0.71785 0.81276 0.68682 0.0
C3089 C 0.71945 0.79515 0.69261 0.0
C3090 C 0.70411 0.7647 0.69202 0.0
H3091 H 0.59822 0.69886 0.68737 0.0
H3092 H 0.62997 0.73245 0.6903 0.0
H3093 H 0.62123 0.72514 0.68036 0.0
H3094 H 0.67132 0.75807 0.67487 0.0
H3095 H 0.69841 0.81158 0.67586 0.0
H3096 H 0.45411 0.07297 0.69048 0.0
H3097 H 0.40071 0.04334 0.69155 0.0
H3098 H 0.40163 0.97608 0.6779 0.0
H3099 H 0.45477 1.00558 0.67677 0.0
H3100 H 0.35888 0.02098 0.67883 0.0
H3101 H 0.35263 0.93267 0.69718 0.0
H3102 H 0.38519 0.96797 0.69645 0.0
H3103 H 0.37584 0.94164 0.68895 0.0
C3104 C 0.44293 0.05175 0.68777 0.0
C3105 C 0.4587 0.04162 0.68355 0.0
C3106 C 0.4124 0.03487 0.68836 0.0
C3107 C 0.39707 1.00734 0.68485 0.0
C3108 C 0.41289 0.99705 0.68073 0.0
H3109 H 0.20951 0.90232 0.6747 0.0
H3110 H 0.263 0.92976 0.67384 0.0
C3111 C 0.4433 0.014 0.68008 0.0
C3112 C 0.36452 0.98966 0.68528 0.0
H3113 H 0.30817 0.92549 0.69204 0.0
C3114 C 0.3478 1.00012 0.68172 0.0
C3115 C 0.34997 0.96246 0.68908 0.0
C3116 C 0.36672 0.95049 0.69319 0.0
C3117 C 0.31705 0.984 0.68178 0.0
C3118 C 0.3025 0.95658 0.68548 0.0
C3119 C 0.31924 0.94632 0.68913 0.0
C3120 C 0.26995 0.93892 0.68593 0.0
C3121 C 0.30029 0.99666 0.67801 0.0
C3122 C 0.25594 0.93427 0.69302 0.0
C3123 C 0.22544 0.91871 0.69352 0.0
C3124 C 0.20804 0.90701 0.68696 0.0
C3125 C 0.22212 0.91095 0.67987 0.0
C3126 C 0.25274 0.92683 0.67937 0.0
H3127 H 0.31443 0.02016 0.67667 0.0
H3128 H 0.29073 0.98484 0.6726 0.0
H3129 H 0.28211 0.994 0.68172 0.0
H3130 H 0.26864 0.94322 0.69817 0.0
H3131 H 0.2155 0.91606 0.69908 0.0
H3132 H 0.95489 0.39229 0.69291 0.0
H3133 H 0.98516 0.3693 0.69395 0.0
H3134 H 0.03714 0.42048 0.67492 0.0
H3135 H 1.00762 0.44399 0.67403 0.0
H3136 H 0.99371 0.33575 0.68413 0.0
H3137 H 0.10077 0.43408 0.68941 0.0
H3138 H 0.06707 0.43469 0.68989 0.0
H3139 H 0.08409 0.43697 0.68082 0.0
C3140 C 0.97303 0.39888 0.68902 0.0
C3141 C 0.97892 0.42011 0.68342 0.0
C3142 C 0.99031 0.38566 0.68959 0.0
C3143 C 1.01394 0.3934 0.6846 0.0
C3144 C 0.01971 0.41459 0.679 0.0
H3145 H 0.13036 0.32224 0.67601 0.0
H3146 H 0.10314 0.34855 0.67513 0.0
C3147 C 1.00261 0.42792 0.67846 0.0
C3148 C 0.03167 0.37846 0.68501 0.0
H3149 H 0.10155 0.39066 0.68621 0.0
C3150 C 0.01727 0.34784 0.68464 0.0
C3151 C 0.06254 0.39402 0.68565 0.0
C3152 C 0.07951 0.42672 0.68654 0.0
C3153 C 0.03271 0.33255 0.68478 0.0
C3154 C 0.06351 0.34812 0.68535 0.0
C3155 C 0.07799 0.37869 0.6857 0.0
C3156 C 0.08082 0.33289 0.68592 0.0
C3157 C 0.01595 0.29974 0.6842 0.0
C3158 C 0.07783 0.31575 0.69232 0.0
C3159 C 0.09347 0.30092 0.69286 0.0
C3160 C 0.11256 0.3027 0.687 0.0
C3161 C 0.11588 0.32026 0.68063 0.0
C3162 C 0.10032 0.33534 0.68012 0.0
H3163 H 0.99342 0.29148 0.68206 0.0
H3164 H 0.02726 0.29189 0.68035 0.0
H3165 H 1.01452 0.29028 0.68993 0.0
H3166 H 0.06329 0.31379 0.69692 0.0
H3167 H 0.09025 0.28774 0.69788 0.0
H3168 H 0.88486 0.62178 0.53028 0.0
H3169 H 0.93783 0.64812 0.52928 0.0
H3170 H 0.93249 0.68538 0.50794 0.0
H3171 H 0.87894 0.65878 0.50886 0.0
H3172 H 0.97227 0.6441 0.51701 0.0
H3173 H 0.99206 0.75669 0.52105 0.0
H3174 H 0.9583 0.72485 0.52383 0.0
H3175 H 0.9656 0.73468 0.51395 0.0
C3176 C 0.89476 0.63566 0.52537 0.0
C3177 C 0.87739 0.63812 0.51965 0.0
C3178 C 0.9252 0.65071 0.52481 0.0
C3179 C 0.93929 0.66895 0.51857 0.0
C3180 C 0.92217 0.67171 0.51286 0.0
H3181 H 0.12345 0.77962 0.50733 0.0
H3182 H 0.07031 0.75526 0.50811 0.0
C3183 C 0.89152 0.6564 0.51338 0.0
C3184 C 0.97182 0.68431 0.51804 0.0
H3185 H 0.03316 0.75167 0.51871 0.0
C3186 C 0.98561 0.66763 0.51737 0.0
C3187 C 0.98926 0.71501 0.51851 0.0
C3188 C 0.97572 0.734 0.51943 0.0
C3189 C 0.01621 0.68073 0.51705 0.0
C3190 C 0.03379 0.71147 0.51765 0.0
C3191 C 0.01991 0.72815 0.51829 0.0
C3192 C 0.06648 0.7268 0.51742 0.0
C3193 C 0.0293 0.66145 0.51583 0.0
C3194 C 0.08249 0.71958 0.52251 0.0
C3195 C 0.11305 0.73338 0.52202 0.0
C3196 C 0.12833 0.75503 0.51651 0.0
C3197 C 0.11239 0.76296 0.51162 0.0
C3198 C 0.08191 0.74902 0.51207 0.0
H3199 H 1.01334 0.64022 0.51324 0.0
H3200 H 0.0488 0.67212 0.51209 0.0
H3201 H 0.03596 0.65687 0.52142 0.0
H3202 H 0.07136 0.70318 0.52685 0.0
H3203 H 0.1247 0.72695 0.52591 0.0
H3204 H 0.40255 0.26676 0.53068 0.0
H3205 H 0.37613 0.2932 0.52977 0.0
H3206 H 0.33965 0.25154 0.50824 0.0
H3207 H 0.36693 0.22531 0.50901 0.0
H3208 H 0.35757 0.30889 0.50761 0.0
H3209 H 0.29194 0.26489 0.53384 0.0
H3210 H 0.3302 0.28139 0.53574 0.0
H3211 H 0.31252 0.2495 0.52975 0.0
C3212 C 0.38877 0.2629 0.52576 0.0
C3213 C 0.38681 0.24358 0.51994 0.0
C3214 C 0.37342 0.27801 0.52528 0.0
C3215 C 0.35519 0.274 0.51903 0.0
C3216 C 0.35331 0.25491 0.51316 0.0
H3217 H 0.24544 0.34822 0.50692 0.0
H3218 H 0.26917 0.31883 0.5078 0.0
C3219 C 0.36889 0.23983 0.51362 0.0
C3220 C 0.3391 0.29059 0.51855 0.0
H3221 H 0.29356 0.30725 0.52852 0.0
C3222 C 0.34336 0.30825 0.51215 0.0
C3223 C 0.32047 0.28997 0.52448 0.0
C3224 C 0.31326 0.27018 0.5313 0.0
C3225 C 0.33023 0.3257 0.5116 0.0
C3226 C 0.31212 0.32547 0.51759 0.0
C3227 C 0.30765 0.30769 0.52396 0.0
C3228 C 0.29715 0.34306 0.51724 0.0
C3229 C 0.33635 0.3448 0.50469 0.0
C3230 C 0.30435 0.36614 0.52237 0.0
C3231 C 0.29081 0.38315 0.52186 0.0
C3232 C 0.26953 0.37717 0.51626 0.0
C3233 C 0.26181 0.35354 0.51128 0.0
C3234 C 0.27548 0.33676 0.51175 0.0
H3235 H 0.35543 0.34732 0.5014 0.0
H3236 H 0.31706 0.33484 0.50087 0.0
H3237 H 0.34041 0.36674 0.50637 0.0
H3238 H 0.32085 0.37134 0.52669 0.0
H3239 H 0.29719 0.40113 0.52579 0.0
H3240 H 0.67646 0.9015 0.50694 0.0
H3241 H 0.70587 0.95452 0.50788 0.0
H3242 H 0.65399 0.95351 0.52698 0.0
H3243 H 0.62381 0.90023 0.52589 0.0
H3244 H 0.66252 0.99575 0.51719 0.0
H3245 H 0.76953 1.00436 0.52243 0.0
H3246 H 0.75282 0.9848 0.51382 0.0
H3247 H 0.7358 0.97007 0.52289 0.0
C3248 C 0.67143 0.9125 0.51139 0.0
C3249 C 0.64781 0.89655 0.51636 0.0
C3250 C 0.68847 0.94293 0.51196 0.0
C3251 C 0.68271 0.95829 0.5176 0.0
C3252 C 0.65912 0.94234 0.5226 0.0
H3253 H 0.75878 0.1401 0.5311 0.0
H3254 H 0.73177 0.08712 0.53004 0.0
C3255 C 0.6419 0.91183 0.52199 0.0
C3256 C 0.70046 0.99096 0.51805 0.0
H3257 H 0.77036 0.04858 0.5193 0.0
C3258 C 0.68608 1.00719 0.5177 0.0
C3259 C 0.73132 1.00624 0.5187 0.0
C3260 C 0.74825 0.99047 0.51956 0.0
C3261 C 0.70155 0.03793 0.51787 0.0
C3262 C 0.73235 0.05313 0.51845 0.0
C3263 C 0.7468 0.03702 0.51878 0.0
C3264 C 0.74969 0.08567 0.51907 0.0
C3265 C 0.68482 0.054 0.51731 0.0
C3266 C 0.76945 0.10278 0.51333 0.0
C3267 C 0.78506 0.13342 0.5139 0.0
C3268 C 0.78151 0.14758 0.52028 0.0
C3269 C 0.76217 0.1302 0.52608 0.0
C3270 C 0.7465 0.09975 0.52548 0.0
H3271 H 0.66236 0.03978 0.51511 0.0
H3272 H 0.68317 0.06183 0.52306 0.0
H3273 H 0.69624 0.07327 0.51352 0.0
H3274 H 0.77244 0.09245 0.50835 0.0
H3275 H 0.79974 0.14598 0.50933 0.0
H3276 H 0.11582 0.78211 0.70082 0.0
H3277 H 0.09222 0.72898 0.69984 0.0
H3278 H 0.04079 0.72997 0.68093 0.0
H3279 H 0.06433 0.78333 0.68192 0.0
H3280 H 0.03108 0.68776 0.70108 0.0
H3281 H 0.07575 0.67995 0.67306 0.0
H3282 H 0.09178 0.71315 0.67861 0.0
H3283 H 0.05908 0.70232 0.67324 0.0
C3284 C 0.09964 0.77108 0.69641 0.0
C3285 C 0.09199 0.78702 0.69144 0.0
C3286 C 0.0861 0.74063 0.69587 0.0
C3287 C 0.06483 0.72532 0.69028 0.0
C3288 C 0.05739 0.74122 0.68523 0.0
H3289 H 0.95736 0.54349 0.67745 0.0
H3290 H 0.98372 0.5964 0.6785 0.0
C3291 C 0.07081 0.77174 0.68581 0.0
C3292 C 0.04991 0.69274 0.68992 0.0
H3293 H 0.03967 0.63578 0.67856 0.0
C3294 C 0.03304 0.67637 0.69617 0.0
C3295 C 0.05238 0.6778 0.68352 0.0
C3296 C 0.07089 0.6941 0.67673 0.0
C3297 C 0.01803 0.64562 0.69611 0.0
C3298 C 0.02055 0.63058 0.68972 0.0
C3299 C 0.03766 0.64706 0.68349 0.0
C3300 C 1.00474 0.59789 0.6892 0.0
C3301 C 0.99877 0.6296 0.70282 0.0
C3302 C 1.00782 0.58059 0.69481 0.0
C3303 C 0.9924 0.54995 0.69426 0.0
C3304 C 0.97385 0.53588 0.68802 0.0
C3305 C 0.97137 0.55334 0.68235 0.0
C3306 C 0.98654 0.5838 0.68293 0.0
H3307 H 0.99269 0.64367 0.70613 0.0
H3308 H 0.97848 0.60987 0.70093 0.0
H3309 H 1.0107 0.6227 0.70671 0.0
H3310 H 0.02228 0.59074 0.6996 0.0
H3311 H 0.99507 0.53733 0.69871 0.0
H3312 H 0.23899 0.33739 0.69993 0.0
H3313 H 0.29191 0.36743 0.69844 0.0
H3314 H 0.28922 0.31255 0.67991 0.0
H3315 H 0.23608 0.28235 0.68138 0.0
H3316 H 0.33352 0.34929 0.69975 0.0
H3317 H 0.33791 0.39526 0.67103 0.0
H3318 H 0.30508 0.37836 0.67672 0.0
H3319 H 0.31642 0.35623 0.67164 0.0
C3320 C 0.2496 0.33183 0.69549 0.0
C3321 C 0.23327 0.30746 0.69077 0.0
C3322 C 0.27992 0.34902 0.69465 0.0
C3323 C 0.2947 0.34253 0.68902 0.0
C3324 C 0.27838 0.31837 0.68422 0.0
H3325 H 0.47668 0.41598 0.67584 0.0
H3326 H 0.42362 0.38913 0.67686 0.0
C3327 C 0.24799 0.30103 0.68509 0.0
C3328 C 0.32722 0.36037 0.68839 0.0
H3329 H 0.38287 0.40478 0.67639 0.0
C3330 C 0.34431 0.36153 0.69465 0.0
C3331 C 0.34141 0.37632 0.68174 0.0
C3332 C 0.32435 0.37678 0.67491 0.0
C3333 C 0.37503 0.37757 0.6944 0.0
C3334 C 0.3893 0.39371 0.68776 0.0
C3335 C 0.37215 0.39259 0.6815 0.0
C3336 C 0.42191 0.41111 0.6871 0.0
C3337 C 0.39186 0.37622 0.70118 0.0
C3338 C 0.43902 0.43306 0.69241 0.0
C3339 C 0.46962 0.44845 0.69186 0.0
C3340 C 0.48387 0.44254 0.68593 0.0
C3341 C 0.46663 0.42121 0.6805 0.0
C3342 C 0.43613 0.40575 0.68107 0.0
H3343 H 0.37833 0.35679 0.70477 0.0
H3344 H 0.41162 0.37563 0.69934 0.0
H3345 H 0.39881 0.39586 0.70477 0.0
H3346 H 0.42873 0.4383 0.697 0.0
H3347 H 0.48209 0.46482 0.69613 0.0
H3348 H 0.67426 0.89125 0.69449 0.0
H3349 H 0.64404 0.91405 0.69324 0.0
H3350 H 0.72026 0.99508 0.68691 0.0
H3351 H 0.74989 0.97158 0.68759 0.0
H3352 H 0.64072 0.9531 0.70028 0.0
H3353 H 0.66946 0.99533 0.67094 0.0
H3354 H 0.68082 0.97127 0.6749 0.0
H3355 H 0.70157 0.00999 0.67671 0.0
C3356 C 0.68439 0.91379 0.69269 0.0
C3357 C 0.71435 0.92949 0.69104 0.0
C3358 C 0.66713 0.92694 0.69201 0.0
C3359 C 0.67949 0.95635 0.68982 0.0
C3360 C 0.70967 0.97215 0.68831 0.0
H3361 H 0.59066 0.05598 0.69982 0.0
H3362 H 0.61848 0.03053 0.70059 0.0
C3363 C 0.72675 0.95874 0.68876 0.0
C3364 C 0.66103 0.9706 0.68942 0.0
H3365 H 0.64658 0.01558 0.67859 0.0
C3366 C 0.64184 0.96649 0.69548 0.0
C3367 C 0.66176 0.9878 0.68313 0.0
C3368 C 0.67927 0.99107 0.67603 0.0
C3369 C 0.62382 0.97906 0.69546 0.0
C3370 C 0.62594 0.99776 0.6894 0.0
C3371 C 0.64495 1.00167 0.68332 0.0
C3372 C 0.60835 0.01297 0.6891 0.0
C3373 C 0.60205 0.97118 0.70186 0.0
C3374 C 0.59402 0.01284 0.68233 0.0
C3375 C 0.57905 0.02836 0.6818 0.0
C3376 C 0.57733 0.04393 0.68809 0.0
C3377 C 0.59107 0.04369 0.69492 0.0
C3378 C 0.60686 0.02888 0.69538 0.0
H3379 H 0.59596 0.94957 0.70433 0.0
H3380 H 0.61195 0.98754 0.70649 0.0
H3381 H 0.58185 0.97059 0.69989 0.0
H3382 H 0.5946 1.00088 0.67737 0.0
H3383 H 0.56878 0.0282 0.67645 0.0
H3384 H 0.2441 0.92975 0.20355 0.0
H3385 H 0.29627 0.95119 0.20112 0.0
H3386 H 0.28369 0.97029 0.178 0.0
H3387 H 0.23114 0.94909 0.18048 0.0
H3388 H 0.32653 0.93686 0.19058 0.0
H3389 H 0.34816 0.04961 0.18582 0.0
H3390 H 0.31455 0.02152 0.18994 0.0
H3391 H 0.32053 0.02211 0.17984 0.0
C3392 C 0.25237 0.93839 0.19793 0.0
C3393 C 0.23338 0.93751 0.19219 0.0
C3394 C 0.28228 0.95064 0.19654 0.0
C3395 C 0.29419 0.96272 0.1894 0.0
C3396 C 0.27521 0.96151 0.1836 0.0
H3397 H 0.47647 0.05957 0.17438 0.0
H3398 H 0.42328 0.03362 0.17508 0.0
C3399 C 0.24508 0.94906 0.18498 0.0
C3400 C 0.32645 0.97663 0.18817 0.0
H3401 H 0.38806 0.04186 0.18452 0.0
C3402 C 0.33995 0.95981 0.18923 0.0
C3403 C 0.34415 1.00661 0.18642 0.0
C3404 C 0.33126 0.02617 0.18549 0.0
C3405 C 0.3704 0.97199 0.18855 0.0
C3406 C 0.38819 1.0021 0.18694 0.0
C3407 C 0.37462 0.01883 0.18578 0.0
C3408 C 0.42083 0.01678 0.18645 0.0
C3409 C 0.38313 0.95227 0.18943 0.0
C3410 C 0.43758 0.01615 0.19261 0.0
C3411 C 0.46821 0.03092 0.19221 0.0
C3412 C 0.48291 0.04697 0.18567 0.0
C3413 C 0.46606 0.04743 0.17951 0.0
C3414 C 0.43551 0.03261 0.1799 0.0
H3415 H 0.36657 0.92912 0.18833 0.0
H3416 H 0.40178 0.95864 0.18549 0.0
H3417 H 0.39104 0.95385 0.19537 0.0
H3418 H 0.42702 1.00475 0.19781 0.0
H3419 H 0.48036 0.03028 0.19709 0.0
H3420 H 0.99527 0.46132 0.19847 0.0
H3421 H 0.02272 0.4353 0.19926 0.0
H3422 H 0.98588 0.39298 0.17782 0.0
H3423 H 0.95924 0.41924 0.17689 0.0
H3424 H 1.00502 0.37813 0.20004 0.0
H3425 H 0.06998 0.42116 0.17367 0.0
H3426 H 0.0494 0.43663 0.17771 0.0
H3427 H 0.03166 0.40444 0.17183 0.0
C3428 C 0.99325 0.4467 0.19389 0.0
C3429 C 0.97515 0.44271 0.18758 0.0
C3430 C 1.00895 0.43174 0.19435 0.0
C3431 C 1.00701 0.4125 0.18852 0.0
C3432 C 0.98863 0.40827 0.18229 0.0
H3433 H 0.06563 0.28589 0.18193 0.0
H3434 H 0.04203 0.31571 0.18101 0.0
C3435 C 0.97316 0.42328 0.1818 0.0
C3436 C 0.02319 0.396 0.18903 0.0
H3437 H 0.06876 0.37922 0.17913 0.0
C3438 C 0.01917 0.37865 0.19549 0.0
C3439 C 0.04175 0.39646 0.18312 0.0
C3440 C 0.04871 0.41591 0.17623 0.0
C3441 C 0.03246 0.36136 0.1961 0.0
C3442 C 0.05052 0.36144 0.19012 0.0
C3443 C 0.05475 0.3789 0.18369 0.0
C3444 C 0.06552 0.34385 0.1905 0.0
C3445 C 0.02652 0.34255 0.20307 0.0
C3446 C 0.08706 0.35005 0.19602 0.0
C3447 C 0.10071 0.33323 0.19652 0.0
C3448 C 0.09309 0.30968 0.19152 0.0
C3449 C 0.07194 0.30381 0.18588 0.0
C3450 C 0.05843 0.32084 0.18535 0.0
H3451 H 1.00739 0.33999 0.20633 0.0
H3452 H 0.02263 0.32062 0.20145 0.0
H3453 H 0.04582 0.3528 0.20688 0.0
H3454 H 0.09331 0.36793 0.19998 0.0
H3455 H 0.11697 0.33845 0.2009 0.0
H3456 H 0.6038 0.54805 0.17648 0.0
H3457 H 0.63072 0.601 0.17763 0.0
H3458 H 0.5893 0.59511 0.19923 0.0
H3459 H 0.5621 0.54162 0.19817 0.0
H3460 H 0.59177 0.63926 0.18828 0.0
H3461 H 0.69954 0.64788 0.1928 0.0
H3462 H 0.67902 0.62598 0.1848 0.0
H3463 H 0.66558 0.61437 0.1943 0.0
C3464 C 0.60022 0.55782 0.1815 0.0
C3465 C 0.5807 0.5403 0.18725 0.0
C3466 C 0.61584 0.58826 0.18215 0.0
C3467 C 0.61242 0.60217 0.18856 0.0
C3468 C 0.59247 0.58491 0.19425 0.0
H3469 H 0.68524 0.78592 0.20105 0.0
H3470 H 0.65575 0.73294 0.19997 0.0
C3471 C 0.57692 0.55429 0.19363 0.0
C3472 C 0.62973 0.63467 0.18924 0.0
H3473 H 0.69948 0.69197 0.19077 0.0
C3474 C 0.6153 0.6508 0.18888 0.0
C3475 C 0.66049 0.64983 0.18994 0.0
C3476 C 0.67717 0.63372 0.19054 0.0
C3477 C 0.63078 0.68157 0.18903 0.0
C3478 C 0.66161 0.6968 0.18978 0.0
C3479 C 0.67596 0.68055 0.19017 0.0
C3480 C 0.67934 0.72944 0.19031 0.0
C3481 C 0.61392 0.69739 0.18812 0.0
C3482 C 0.70316 0.74552 0.18539 0.0
C3483 C 0.72041 0.776 0.18607 0.0
C3484 C 0.71429 0.79111 0.19171 0.0
C3485 C 0.69043 0.77504 0.1966 0.0
C3486 C 0.67335 0.74464 0.19595 0.0
H3487 H 0.59278 0.6836 0.18518 0.0
H3488 H 0.6091 0.70292 0.19385 0.0
H3489 H 0.62655 0.71789 0.18484 0.0
H3490 H 0.70846 0.73447 0.18101 0.0
H3491 H 0.73868 0.7877 0.18224 0.0
H3492 H 0.24691 0.90222 1.00667 0.0
H3493 H 0.27121 0.95536 1.00761 0.0
H3494 H 0.32054 0.95338 0.02692 0.0
H3495 H 0.29689 0.90012 0.02582 0.0
H3496 H 0.2733 0.99206 1.01818 0.0
H3497 H 0.38549 0.01216 1.01396 0.0
H3498 H 0.35378 0.97676 1.01251 0.0
H3499 H 0.36764 0.98909 0.02199 0.0
C3500 C 0.26296 0.91309 1.01112 0.0
C3501 C 0.27014 0.89691 1.01613 0.0
C3502 C 0.27686 0.94356 1.01165 0.0
C3503 C 0.29831 0.95875 1.01722 0.0
C3504 C 0.30478 0.94248 0.02241 0.0
H3505 H 0.40256 0.14034 0.03069 0.0
H3506 H 0.37621 0.08734 0.02964 0.0
C3507 C 0.29103 0.91194 0.02184 0.0
C3508 C 0.31361 0.99145 1.01758 0.0
H3509 H 0.38107 0.05298 1.01765 0.0
C3510 C 0.29687 1.00532 1.01801 0.0
C3511 C 0.34443 1.00906 1.01732 0.0
C3512 C 0.36389 0.99606 1.01634 0.0
C3513 C 0.30998 0.03595 1.01837 0.0
C3514 C 0.34074 0.05343 1.01823 0.0
C3515 C 0.35749 0.03965 1.01777 0.0
C3516 C 0.35606 0.08598 1.01882 0.0
C3517 C 0.29084 0.04941 1.01906 0.0
C3518 C 0.35369 0.1032 1.01307 0.0
C3519 C 0.36898 0.13383 1.01363 0.0
C3520 C 0.38691 0.14792 1.01997 0.0
C3521 C 0.38896 0.13048 0.02573 0.0
C3522 C 0.37391 0.10002 0.02514 0.0
H3523 H 0.26804 0.03302 0.02058 0.0
H3524 H 0.29956 0.06689 0.02345 0.0
H3525 H 0.29054 0.05939 1.01353 0.0
H3526 H 0.34038 0.09297 1.00809 0.0
H3527 H 0.36692 0.14645 1.00907 0.0
H3528 H 0.12431 0.35009 1.00677 0.0
H3529 H 0.07112 0.32124 1.00758 0.0
H3530 H 0.07258 0.37225 0.02695 0.0
H3531 H 0.12588 0.40183 0.02599 0.0
H3532 H 0.03396 0.28648 1.01806 0.0
H3533 H 1.01433 0.37879 1.01386 0.0
H3534 H 0.04972 0.38239 1.01248 0.0
H3535 H 0.03716 0.38389 0.02193 0.0
C3536 C 0.11332 0.3552 1.0112 0.0
C3537 C 0.12937 0.37848 1.01627 0.0
C3538 C 0.08281 0.33862 1.01167 0.0
C3539 C 0.06746 0.34481 1.01721 0.0
C3540 C 0.0836 0.36746 0.02246 0.0
H3541 H 0.88571 0.26812 0.03038 0.0
H3542 H 0.93872 0.29468 0.02937 0.0
C3543 C 0.11417 0.38423 0.02196 0.0
C3544 C 0.03473 0.32746 1.01749 0.0
H3545 H 0.97331 0.33357 1.01746 0.0
C3546 C 0.02076 0.29684 1.01788 0.0
C3547 C 0.0172 0.34073 1.0172 0.0
C3548 C 0.03032 0.37322 1.01626 0.0
C3549 C 0.9901 0.27938 1.01818 0.0
C3550 C 0.97269 0.29272 1.01803 0.0
C3551 C 0.98658 0.32327 1.0176 0.0
C3552 C 0.94011 0.27556 1.01859 0.0
C3553 C 0.97655 0.24677 1.01885 0.0
C3554 C 0.92289 0.25584 1.01285 0.0
C3555 C 0.89224 0.24054 1.01338 0.0
C3556 C 0.87814 0.24457 1.01969 0.0
C3557 C 0.89558 0.26423 0.02544 0.0
C3558 C 0.92605 0.27959 0.02487 0.0
H3559 H 0.99285 0.2403 1.02041 0.0
H3560 H 0.95893 0.238 0.0232 0.0
H3561 H 0.96672 0.23652 1.0133 0.0
H3562 H 0.93313 0.2526 1.00788 0.0
H3563 H 0.87963 0.22573 1.00883 0.0
H3564 H 0.7672 0.63238 0.0323 0.0
H3565 H 0.739 0.65722 0.03133 0.0
H3566 H 0.76279 0.67556 1.00763 0.0
H3567 H 0.79096 0.65036 1.00853 0.0
H3568 H 0.75423 0.71401 0.02736 0.0
H3569 H 0.67374 0.63485 1.00687 0.0
H3570 H 0.6989 0.62766 1.01205 0.0
H3571 H 0.71098 0.65089 1.0038 0.0
C3572 C 0.76659 0.64173 0.02687 0.0
C3573 C 0.78131 0.63908 1.02048 0.0
C3574 C 0.75041 0.65603 0.02633 0.0
C3575 C 0.74824 0.66792 1.01938 0.0
C3576 C 0.76358 0.66609 1.01303 0.0
H3577 H 0.65496 0.75259 1.0031 0.0
H3578 H 0.68556 0.73084 1.00505 0.0
C3579 C 0.7799 0.65183 1.01356 0.0
C3580 C 0.72965 0.68183 1.0188 0.0
H3581 H 0.6704 0.67683 1.00958 0.0
C3582 C 0.73585 0.70583 0.02349 0.0
C3583 C 0.70546 0.67111 1.01379 0.0
C3584 C 0.69661 0.64455 1.00889 0.0
C3585 C 0.71916 0.71987 0.02314 0.0
C3586 C 0.69512 0.7093 1.01808 0.0
C3587 C 0.68877 0.68507 1.01346 0.0
C3588 C 0.67708 0.72373 1.01716 0.0
C3589 C 0.72804 0.74645 0.02803 0.0
C3590 C 0.66187 0.7272 0.02331 0.0
C3591 C 0.6443 0.73995 0.0222 0.0
C3592 C 0.64145 0.74924 1.0149 0.0
C3593 C 0.6567 0.74575 1.0088 0.0
C3594 C 0.67422 0.73321 1.0099 0.0
H3595 H 0.75084 0.75603 0.03009 0.0
H3596 H 0.72596 0.76341 0.02484 0.0
H3597 H 0.71355 0.74019 0.03309 0.0
H3598 H 0.66308 0.71953 0.02894 0.0
H3599 H 0.63254 0.74199 0.02699 0.0
H3600 H 0.79243 0.06302 0.85881 0.0
H3601 H 0.73902 0.03972 0.85976 0.0
H3602 H 0.73829 0.08998 0.84055 0.0
H3603 H 0.79144 0.11339 0.83961 0.0
H3604 H 0.70265 0.06728 0.86143 0.0
H3605 H 0.67971 1.00358 0.83458 0.0
H3606 H 0.71431 0.01882 0.83945 0.0
H3607 H 0.70569 0.04187 0.83387 0.0
C3608 C 0.78087 0.06917 0.85481 0.0
C3609 C 0.79623 0.08998 0.84911 0.0
C3610 C 0.75033 0.05583 0.85535 0.0
C3611 C 0.73447 0.06273 0.85015 0.0
C3612 C 0.74987 0.08389 0.84455 0.0
H3613 H 0.54653 0.99252 0.84233 0.0
H3614 H 0.60003 0.01976 0.84142 0.0
C3615 C 0.78034 0.09738 0.84405 0.0
C3616 C 0.70189 0.04798 0.85057 0.0
H3617 H 0.63942 1.00196 0.84084 0.0
C3618 C 0.68882 0.05292 0.85694 0.0
C3619 C 0.68374 0.02949 0.84468 0.0
C3620 C 0.69643 0.02285 0.83777 0.0
C3621 C 0.65828 0.04019 0.85754 0.0
C3622 C 0.64001 0.02116 0.85172 0.0
C3623 C 0.65317 0.01646 0.84531 0.0
C3624 C 0.60731 1.00515 0.85229 0.0
C3625 C 0.64601 0.04794 0.86434 0.0
C3626 C 0.59328 0.98746 0.85864 0.0
C3627 C 0.5628 0.97214 0.8592 0.0
C3628 C 0.54524 0.97357 0.85338 0.0
C3629 C 0.55923 0.99097 0.84696 0.0
C3630 C 0.58989 1.00653 0.84642 0.0
H3631 H 0.66216 0.06944 0.86677 0.0
H3632 H 0.62599 0.04856 0.86283 0.0
H3633 H 0.64048 0.03135 0.86887 0.0
H3634 H 0.60589 0.98512 0.86315 0.0
H3635 H 0.55303 0.95875 0.8642 0.0
H3636 H 0.93858 0.70352 0.83642 0.0
H3637 H 0.96024 0.67285 0.83838 0.0
H3638 H 0.97505 0.69831 0.86206 0.0
H3639 H 0.9528 0.72902 0.86011 0.0
H3640 H 0.0149 0.68826 0.84249 0.0
H3641 H 0.93816 0.61058 0.86387 0.0
H3642 H 0.93024 0.63489 0.85853 0.0
H3643 H 0.9545 0.64823 0.86657 0.0
C3644 C 0.94615 0.70241 0.84208 0.0
C3645 C 0.94367 0.71853 0.84813 0.0
C3646 C 0.95865 0.68485 0.84319 0.0
C3647 C 0.96909 0.68279 0.85039 0.0
C3648 C 0.96661 0.69887 0.85648 0.0
H3649 H 0.06106 0.59351 0.86565 0.0
H3650 H 0.03622 0.62165 0.86457 0.0
C3651 C 0.95393 0.71651 0.85537 0.0
C3652 C 0.98348 0.66469 0.8513 0.0
H3653 H 0.97971 0.60663 0.86091 0.0
C3654 C 1.00709 0.67036 0.84651 0.0
C3655 C 0.97348 0.64127 0.85654 0.0
C3656 C 0.94755 0.63312 0.86163 0.0
C3657 C 0.02104 0.65364 0.84686 0.0
C3658 C 1.01089 0.63006 0.85205 0.0
C3659 C 0.98746 0.62453 0.85689 0.0
C3660 C 0.02486 0.61151 0.85268 0.0
C3661 C 0.04701 0.66187 0.84177 0.0
C3662 C 0.02634 0.59566 0.8464 0.0
C3663 C 0.04064 0.57938 0.84699 0.0
C3664 C 0.05375 0.57848 0.8539 0.0
C3665 C 0.05143 0.59369 0.86022 0.0
C3666 C 0.03713 0.60986 0.85963 0.0
H3667 H 0.05658 0.68454 0.83962 0.0
H3668 H 0.0642 0.6598 0.84485 0.0
H3669 H 0.04003 0.64702 0.83677 0.0
H3670 H 0.01655 0.59599 0.84101 0.0
H3671 H 0.04183 0.56791 0.84201 0.0
H3672 H 0.29843 0.2296 0.85985 0.0
H3673 H 0.32907 0.2827 0.86178 0.0
H3674 H 0.35263 0.29325 0.83798 0.0
H3675 H 0.32215 0.24087 0.83603 0.0
H3676 H 0.3888 0.32172 0.85933 0.0
H3677 H 0.32314 0.35014 0.84043 0.0
H3678 H 0.31019 0.31346 0.84375 0.0
H3679 H 0.33492 0.32761 0.83579 0.0
C3680 C 0.31031 0.24329 0.85506 0.0
C3681 C 0.30779 0.23098 0.84779 0.0
C3682 C 0.32777 0.27366 0.85615 0.0
C3683 C 0.3428 0.29225 0.84999 0.0
C3684 C 0.34078 0.2797 0.84279 0.0
H3685 H 0.45749 0.47942 0.84218 0.0
H3686 H 0.42944 0.426 0.84116 0.0
C3687 C 0.32342 0.24959 0.8417 0.0
C3688 C 0.36072 0.3247 0.85096 0.0
H3689 H 0.36986 0.38917 0.84402 0.0
C3690 C 0.38448 0.33644 0.85603 0.0
C3691 C 0.35531 0.34414 0.84665 0.0
C3692 C 0.32934 0.33324 0.84141 0.0
C3693 C 0.40328 0.36683 0.85674 0.0
C3694 C 0.39806 0.38623 0.85234 0.0
C3695 C 0.37416 0.37447 0.84733 0.0
C3696 C 0.41648 0.41874 0.85303 0.0
C3697 C 0.42907 0.37789 0.86204 0.0
C3698 C 0.4186 0.43267 0.86001 0.0
C3699 C 0.43456 0.46314 0.86061 0.0
C3700 C 0.44885 0.4807 0.85422 0.0
C3701 C 0.447 0.46673 0.84723 0.0
C3702 C 0.43085 0.43612 0.84664 0.0
H3703 H 0.43475 0.36078 0.8633 0.0
H3704 H 0.44849 0.3971 0.85958 0.0
H3705 H 0.42364 0.38459 0.86752 0.0
H3706 H 0.40732 0.41999 0.865 0.0
H3707 H 0.4353 0.47295 0.86609 0.0
H3708 H 0.66021 0.87467 0.03242 0.0
H3709 H 0.68659 0.92822 0.03323 0.0
H3710 H 0.65892 0.93304 1.01046 0.0
H3711 H 0.63289 0.88 1.00954 0.0
H3712 H 0.73229 0.97172 0.02201 0.0
H3713 H 0.6325 0.98072 0.02469 0.0
H3714 H 0.63297 0.9478 0.02709 0.0
H3715 H 0.6325 0.95718 1.01728 0.0
C3716 C 0.65983 0.8871 0.02756 0.0
C3717 C 0.64427 0.87276 0.02092 0.0
C3718 C 0.67495 0.91775 0.02804 0.0
C3719 C 0.67451 0.93471 0.02193 0.0
C3720 C 0.65937 0.9205 1.01527 0.0
H3721 H 0.73464 0.12004 1.01469 0.0
H3722 H 0.71161 0.06676 1.01365 0.0
C3723 C 0.64454 0.89001 1.01476 0.0
C3724 C 0.68969 0.96724 0.02245 0.0
H3725 H 0.67717 0.02461 0.02322 0.0
C3726 C 0.72027 0.98331 0.02232 0.0
C3727 C 0.67404 0.98242 0.02275 0.0
C3728 C 0.64118 0.96628 0.02301 0.0
C3729 C 0.7356 0.01408 0.02236 0.0
C3730 C 0.71997 0.02938 0.02277 0.0
C3731 C 0.68931 0.01316 0.0229 0.0
C3732 C 0.73488 0.06206 0.02319 0.0
C3733 C 0.76838 0.02981 0.0217 0.0
C3734 C 0.75562 0.07748 0.0289 0.0
C3735 C 0.76901 0.10792 0.02944 0.0
C3736 C 0.76169 0.12381 0.02437 0.0
C3737 C 0.74086 0.10848 1.01867 0.0
C3738 C 0.72761 0.07797 1.01809 0.0
H3739 H 0.77598 0.0159 1.01893 0.0
H3740 H 0.77672 0.05024 1.01836 0.0
H3741 H 0.77807 0.0354 0.02749 0.0
H3742 H 0.76111 0.06594 0.03307 0.0
H3743 H 0.78474 0.11896 0.03395 0.0
H3744 H 0.90503 0.61954 1.01498 0.0
H3745 H 0.95827 0.64919 1.01383 0.0
H3746 H 0.96066 0.70015 0.03332 0.0
H3747 H 0.90754 0.67125 0.03431 0.0
H3748 H 0.99721 0.73494 0.02273 0.0
H3749 H 0.01719 0.6427 0.02665 0.0
H3750 H 0.99396 0.63761 1.01867 0.0
H3751 H 0.98186 0.63906 0.02818 0.0
C3752 C 0.91694 0.63715 1.01899 0.0
C3753 C 0.90202 0.64288 0.02477 0.0
C3754 C 0.94746 0.65396 1.01838 0.0
C3755 C 0.96384 0.67661 0.02361 0.0
C3756 C 0.94878 0.68277 0.02924 0.0
H3757 H 0.15174 0.79548 0.03166 0.0
H3758 H 0.09827 0.76866 0.03267 0.0
C3759 C 0.91831 0.66616 0.02981 0.0
C3760 C 0.99654 0.69399 0.02322 0.0
H3761 H 0.05801 0.68798 0.02301 0.0
C3762 C 1.01045 0.72461 0.02284 0.0
C3763 C 1.01412 0.68075 0.02341 0.0
C3764 C 1.00107 0.64826 0.02433 0.0
C3765 C 0.04108 0.7421 0.02246 0.0
C3766 C 0.05852 0.72879 0.02253 0.0
C3767 C 0.04471 0.69825 0.02294 0.0
C3768 C 0.09107 0.746 0.02191 0.0
C3769 C 0.05458 0.77471 0.02182 0.0
C3770 C 0.10498 0.74214 1.01557 0.0
C3771 C 0.13544 0.75747 1.01496 0.0
C3772 C 0.153 0.77694 0.02073 0.0
C3773 C 0.13904 0.78083 0.02709 0.0
C3774 C 0.10841 0.76556 0.02767 0.0
H3775 H 0.03819 0.78116 1.02034 0.0
H3776 H 0.06461 0.78493 0.02736 0.0
H3777 H 0.07203 0.78352 1.01743 0.0
H3778 H 0.09221 0.72717 1.01106 0.0
H3779 H 0.1452 0.7537 1.00998 0.0
H3780 H 0.27333 0.39809 1.0102 0.0
H3781 H 0.29979 0.37156 1.01123 0.0
H3782 H 0.2578 0.33553 0.03274 0.0
H3783 H 0.23105 0.36225 0.03177 0.0
H3784 H 0.3387 0.37605 0.02319 0.0
H3785 H 0.24529 0.26325 1.02021 0.0
H3786 H 0.2431 0.29487 1.01739 0.0
H3787 H 0.24151 0.28574 0.0273 0.0
C3788 C 0.26944 0.38442 1.01515 0.0
C3789 C 0.24984 0.38235 0.0209 0.0
C3790 C 0.28474 0.36926 1.01573 0.0
C3791 C 0.28071 0.35129 0.02202 0.0
C3792 C 0.26104 0.34893 0.02777 0.0
H3793 H 0.35479 0.24163 0.03403 0.0
H3794 H 0.32603 0.26601 0.03314 0.0
C3795 C 0.24581 0.36432 0.02722 0.0
C3796 C 0.29782 0.33584 0.0226 0.0
H3797 H 0.29142 0.26828 0.0226 0.0
C3798 C 0.32836 0.35248 0.02306 0.0
C3799 C 0.28441 0.30508 0.02245 0.0
C3800 C 0.25179 0.28605 0.02175 0.0
C3801 C 0.34578 0.3393 0.02348 0.0
C3802 C 0.33245 0.30847 0.0232 0.0
C3803 C 0.30182 0.29185 0.02278 0.0
C3804 C 0.34974 0.29306 0.02351 0.0
C3805 C 0.37827 0.35864 0.02445 0.0
C3806 C 0.37244 0.29946 1.0183 0.0
C3807 C 0.38917 0.28565 1.01884 0.0
C3808 C 0.38332 0.26479 0.02455 0.0
C3809 C 0.35998 0.25766 0.02958 0.0
C3810 C 0.34345 0.27162 0.02907 0.0
H3811 H 0.38387 0.38025 0.02684 0.0
H3812 H 0.38737 0.34844 0.02825 0.0
H3813 H 0.389 0.36236 1.01879 0.0
H3814 H 0.37731 0.31522 1.0138 0.0
H3815 H 0.40682 0.29147 1.01484 0.0
H3816 H 0.14519 0.38107 0.50887 0.0
H3817 H 0.09205 0.35486 0.50989 0.0
H3818 H 0.09849 0.34852 0.53423 0.0
H3819 H 0.15196 0.37474 0.53327 0.0
H3820 H 0.05275 0.29757 0.51638 0.0
H3821 H 0.04683 0.38741 0.53116 0.0
H3822 H 0.07887 0.39322 0.52602 0.0
H3823 H 0.07096 0.37638 0.53525 0.0
C3824 C 0.13542 0.37403 0.51446 0.0
C3825 C 0.15305 0.38021 0.52099 0.0
C3826 C 0.10492 0.35897 0.51502 0.0
C3827 C 0.09114 0.34995 0.52214 0.0
C3828 C 0.10857 0.35554 0.52868 0.0
H3829 H 0.90598 0.23314 0.53178 0.0
H3830 H 0.95916 0.25642 0.53072 0.0
C3831 C 0.13918 0.3704 0.52811 0.0
C3832 C 0.05859 0.33502 0.52267 0.0
H3833 H 1.00235 0.34369 0.52915 0.0
C3834 C 0.04175 0.30761 0.5192 0.0
C3835 C 0.04412 0.34823 0.52625 0.0
C3836 C 0.06098 0.37803 0.52984 0.0
C3837 C 1.011 0.29298 0.51931 0.0
C3838 C 0.99654 0.30604 0.52297 0.0
C3839 C 1.01336 0.3336 0.52636 0.0
C3840 C 0.96399 0.29134 0.52339 0.0
C3841 C 0.99413 0.26382 0.51539 0.0
C3842 C 0.94879 0.30314 0.51963 0.0
C3843 C 0.91827 0.28968 0.52017 0.0
C3844 C 0.90232 0.26437 0.52459 0.0
C3845 C 0.91758 0.25255 0.52831 0.0
C3846 C 0.94801 0.26582 0.5277 0.0
H3847 H 1.00818 0.25942 0.51155 0.0
H3848 H 0.98471 0.24636 0.51976 0.0
H3849 H 0.97585 0.26267 0.51202 0.0
H3850 H 0.96058 0.32282 0.51627 0.0
H3851 H 0.90722 0.29941 0.51725 0.0
H3852 H 0.65113 0.78212 0.53336 0.0
H3853 H 0.67793 0.75541 0.53423 0.0
H3854 H 0.67094 0.74233 0.50989 0.0
H3855 H 0.64414 0.76864 0.50897 0.0
H3856 H 0.65697 0.6949 0.52879 0.0
H3857 H 0.75975 0.77661 0.51477 0.0
H3858 H 0.73431 0.78603 0.51892 0.0
H3859 H 0.72669 0.76811 0.50982 0.0
C3860 C 0.65554 0.77382 0.52818 0.0
C3861 C 0.64544 0.77764 0.52109 0.0
C3862 C 0.67078 0.75843 0.52869 0.0
C3863 C 0.67668 0.74699 0.52211 0.0
C3864 C 0.66698 0.75117 0.51503 0.0
H3865 H 0.72572 0.61249 0.51687 0.0
H3866 H 0.70205 0.64222 0.51613 0.0
C3867 C 0.65153 0.7662 0.51453 0.0
C3868 C 0.69213 0.7299 0.52262 0.0
H3869 H 0.75418 0.72998 0.51706 0.0
C3870 C 0.67827 0.70262 0.52625 0.0
C3871 C 0.71998 0.73995 0.51933 0.0
C3872 C 0.73628 0.76937 0.51553 0.0
C3873 C 0.69123 0.68498 0.52656 0.0
C3874 C 0.71881 0.69475 0.52312 0.0
C3875 C 0.73293 0.72229 0.51963 0.0
C3876 C 0.73364 0.67701 0.52329 0.0
C3877 C 0.67547 0.6561 0.53064 0.0
C3878 C 0.75969 0.68688 0.52739 0.0
C3879 C 0.77316 0.66989 0.52784 0.0
C3880 C 0.76112 0.64274 0.52413 0.0
C3881 C 0.73553 0.63325 0.51982 0.0
C3882 C 0.72189 0.65017 0.51943 0.0
H3883 H 0.6574 0.65429 0.53426 0.0
H3884 H 0.6661 0.63825 0.52636 0.0
H3885 H 0.69078 0.65289 0.53428 0.0
H3886 H 0.7693 0.70753 0.53039 0.0
H3887 H 0.79288 0.67787 0.53119 0.0
H3888 H 0.26052 0.8726 0.53312 0.0
H3889 H 0.28816 0.92592 0.53381 0.0
H3890 H 0.26293 0.93075 0.51069 0.0
H3891 H 0.23728 0.87758 0.50984 0.0
H3892 H 0.315 0.9682 0.51173 0.0
H3893 H 0.26545 0.98424 0.53764 0.0
H3894 H 0.28169 0.96246 0.53974 0.0
H3895 H 0.25125 0.94897 0.53324 0.0
C3896 C 0.26059 0.8851 0.52823 0.0
C3897 C 0.24653 0.87086 0.52145 0.0
C3898 C 0.27628 0.91572 0.52864 0.0
C3899 C 0.27735 0.93287 0.52236 0.0
C3900 C 0.26268 0.91841 0.51564 0.0
H3901 H 0.34253 0.12047 0.5275 0.0
H3902 H 0.31251 0.06739 0.52633 0.0
C3903 C 0.24781 0.8879 0.51516 0.0
C3904 C 0.29484 0.96568 0.5226 0.0
H3905 H 0.30987 0.02546 0.53342 0.0
C3906 C 0.31353 0.98062 0.51646 0.0
C3907 C 0.29293 0.98243 0.52867 0.0
C3908 C 0.2715 0.96869 0.53514 0.0
C3909 C 0.33021 0.0113 0.51621 0.0
C3910 C 0.32968 0.02795 0.5225 0.0
C3911 C 0.31082 0.01305 0.52862 0.0
C3912 C 0.34799 0.06068 0.52283 0.0
C3913 C 0.34736 0.02534 0.50905 0.0
C3914 C 0.37812 0.07517 0.52124 0.0
C3915 C 0.39508 0.10569 0.52165 0.0
C3916 C 0.38261 0.12247 0.52396 0.0
C3917 C 0.35271 0.10811 0.52567 0.0
C3918 C 0.33557 0.07768 0.52504 0.0
H3919 H 0.33739 0.01105 0.504 0.0
H3920 H 0.34872 0.04658 0.50791 0.0
H3921 H 0.36975 0.0289 0.50967 0.0
H3922 H 0.38877 0.0629 0.51981 0.0
H3923 H 0.41819 0.11607 0.52042 0.0
H3924 H 0.03817 0.47579 0.36487 0.0
H3925 H 1.01216 0.4226 0.36413 0.0
H3926 H 0.0396 0.4276 0.34073 0.0
H3927 H 0.06386 0.48096 0.34132 0.0
H3928 H 0.98886 0.38486 0.34156 0.0
H3929 H 0.04582 0.37218 0.36627 0.0
H3930 H 0.02612 0.38991 0.36914 0.0
H3931 H 0.05581 0.40744 0.36242 0.0
C3932 C 0.03843 0.46551 0.35954 0.0
C3933 C 0.05316 0.4826 0.35316 0.0
C3934 C 0.02386 0.43498 0.35915 0.0
C3935 C 0.02465 0.42066 0.35246 0.0
C3936 C 0.03873 0.43782 0.346 0.0
H3937 H 0.98095 0.23725 0.35368 0.0
H3938 H 1.00525 0.29059 0.35406 0.0
C3939 C 0.05259 0.46841 0.34632 0.0
C3940 C 1.01062 0.38797 0.35218 0.0
H3941 H 1.00352 0.32886 0.36197 0.0
C3942 C 0.99234 0.37272 0.346 0.0
C3943 C 0.01545 0.37171 0.35785 0.0
C3944 C 0.03713 0.38621 0.36423 0.0
C3945 C 0.97856 0.34211 0.34539 0.0
C3946 C 0.98176 0.32572 0.35134 0.0
C3947 C 1.00042 0.34101 0.35745 0.0
C3948 C 0.9666 0.29293 0.35127 0.0
C3949 C 0.96162 0.32797 0.33821 0.0
C3950 C 0.93652 0.27593 0.34977 0.0
C3951 C 0.92283 0.24544 0.34934 0.0
C3952 C 0.93855 0.23101 0.3507 0.0
C3953 C 0.96823 0.24774 0.35262 0.0
C3954 C 0.98214 0.27832 0.35283 0.0
H3955 H 0.9698 0.34335 0.33332 0.0
H3956 H 0.96293 0.30835 0.33665 0.0
H3957 H 0.93841 0.32151 0.33909 0.0
H3958 H 0.92351 0.2862 0.34889 0.0
H3959 H 0.89985 0.23308 0.34794 0.0
H3960 H 0.7911 0.67571 0.34275 0.0
H3961 H 0.73788 0.64592 0.3437 0.0
H3962 H 0.7362 0.71122 0.35803 0.0
H3963 H 0.78959 0.74108 0.35715 0.0
H3964 H 0.7007 0.6234 0.35712 0.0
H3965 H 0.6787 0.6988 0.34014 0.0
H3966 H 0.71355 0.70037 0.33999 0.0
H3967 H 0.7037 0.71494 0.34797 0.0
C3968 C 0.77943 0.68367 0.34615 0.0
C3969 C 0.79462 0.71085 0.34985 0.0
C3970 C 0.74896 0.66659 0.34668 0.0
C3971 C 0.73285 0.67641 0.35085 0.0
C3972 C 0.74802 0.7033 0.35469 0.0
H3973 H 0.5515 0.58298 0.36551 0.0
H3974 H 0.60465 0.60975 0.36456 0.0
C3975 C 0.77858 0.7203 0.35422 0.0
C3976 C 0.70025 0.65856 0.35112 0.0
H3977 H 0.63791 0.65808 0.34567 0.0
C3978 C 0.687 0.63101 0.35461 0.0
C3979 C 0.68223 0.66821 0.34777 0.0
C3980 C 0.69513 0.69708 0.34369 0.0
C3981 C 0.6564 0.61324 0.35499 0.0
C3982 C 0.63838 0.62316 0.35178 0.0
C3983 C 0.65162 0.65045 0.34815 0.0
C3984 C 0.60581 0.60583 0.35231 0.0
C3985 C 0.64349 0.5838 0.35876 0.0
C3986 C 0.58847 0.59465 0.34573 0.0
C3987 C 0.55784 0.57901 0.34625 0.0
C3988 C 0.54384 0.57463 0.35337 0.0
C3989 C 0.56136 0.58582 0.35993 0.0
C3990 C 0.59188 0.60112 0.35941 0.0
H3991 H 0.65983 0.57666 0.35944 0.0
H3992 H 0.63534 0.58499 0.36451 0.0
H3993 H 0.62478 0.5671 0.35541 0.0
H3994 H 0.59865 0.59807 0.34018 0.0
H3995 H 0.54515 0.57094 0.34107 0.0
H3996 H 0.32169 0.08363 0.33601 0.0
H3997 H 0.35262 0.06228 0.33808 0.0
H3998 H 0.33087 0.05247 0.36201 0.0
H3999 H 0.2992 0.07356 0.3599 0.0
H4000 H 0.40103 0.07959 0.34699 0.0
H4001 H 0.31279 0.97056 0.3562 0.0
H4002 H 0.3054 0.99705 0.35186 0.0
H4003 H 0.31588 1.00057 0.36172 0.0
C4004 C 0.32347 0.07699 0.34173 0.0
C4005 C 0.30799 0.08039 0.3478 0.0
C4006 C 0.34127 0.06479 0.34291 0.0
C4007 C 0.34398 0.05535 0.35018 0.0
C4008 C 0.32885 0.05908 0.35631 0.0
H4009 H 0.43602 0.96647 0.36573 0.0
H4010 H 0.40855 0.99197 0.3647 0.0
C4011 C 0.31096 0.07143 0.35512 0.0
C4012 C 0.36266 0.04167 0.35121 0.0
H4013 H 0.36074 0.97842 0.35637 0.0
C4014 C 0.39219 0.05746 0.34905 0.0
C4015 C 0.35128 0.01275 0.35388 0.0
C4016 C 0.31956 0.99407 0.35599 0.0
C4017 C 0.41058 0.04537 0.34955 0.0
C4018 C 0.39913 0.01633 0.35214 0.0
C4019 C 0.36966 1.00063 0.35436 0.0
C4020 C 0.41728 1.00188 0.3527 0.0
C4021 C 0.44229 0.06409 0.34744 0.0
C4022 C 0.43166 0.9988 0.3463 0.0
C4023 C 0.44768 0.98421 0.34687 0.0
C4024 C 0.44949 0.97208 0.35385 0.0
C4025 C 0.43523 0.97543 0.36025 0.0
C4026 C 0.41936 0.99002 0.35967 0.0
H4027 H 0.44936 0.08767 0.34769 0.0
H4028 H 0.45644 0.05993 0.35129 0.0
H4029 H 0.4456 0.05892 0.34152 0.0
H4030 H 0.42998 1.00712 0.3408 0.0
H4031 H 0.45808 0.98187 0.34181 0.0
H4032 H 0.17896 0.33644 0.07029 0.0
H4033 H 0.17257 0.32204 0.08378 0.0
H4034 H 0.17821 0.4034 0.09 0.0
H4035 H 0.18427 0.41781 0.07658 0.0
H4036 H 0.21104 0.35301 0.09675 0.0
H4037 H 0.10071 0.33975 0.0999 0.0
H4038 H 0.11639 0.34019 0.09071 0.0
H4039 H 0.12784 0.37366 0.09579 0.0
C4040 C 0.17871 0.35122 0.07453 0.0
C4041 C 0.18217 0.37834 0.07231 0.0
C4042 C 0.17519 0.34301 0.08225 0.0
C4043 C 0.1746 0.36148 0.08792 0.0
C4044 C 0.17826 0.3886 0.08574 0.0
H4045 H 0.14348 0.3489 0.13704 0.0
H4046 H 0.1533 0.36401 0.1237 0.0
C4047 C 0.18202 0.39693 0.07805 0.0
C4048 C 0.1703 0.35258 0.09612 0.0
H4049 H 0.12351 0.33667 0.11117 0.0
C4050 C 0.19184 0.34929 0.0999 0.0
C4051 C 0.14535 0.34791 0.10026 0.0
C4052 C 0.12108 0.3503 0.09647 0.0
C4053 C 0.18943 0.34207 0.10771 0.0
C4054 C 0.16435 0.33719 0.11185 0.0
C4055 C 0.14277 0.34042 0.10805 0.0
C4056 C 0.15991 0.32863 0.12011 0.0
C4057 C 0.21427 0.34066 0.11149 0.0
C4058 C 0.16031 0.30367 0.12264 0.0
C4059 C 0.15513 0.29518 0.13032 0.0
C4060 C 0.14897 0.31118 0.13571 0.0
C4061 C 0.14864 0.33623 0.13315 0.0
C4062 C 0.15399 0.34478 0.12547 0.0
H4063 H 0.23501 0.35355 0.1083 0.0
H4064 H 0.21754 0.34886 0.11745 0.0
H4065 H 0.20928 0.31768 0.1116 0.0
H4066 H 0.16413 0.29035 0.11864 0.0
H4067 H 0.15587 0.27594 0.13203 0.0
H4068 H 0.61013 0.81124 0.0762 0.0
H4069 H 0.62429 0.82006 0.08965 0.0
H4070 H 0.70402 0.82059 0.08439 0.0
H4071 H 0.68984 0.81115 0.07097 0.0
H4072 H 0.63637 0.78498 0.09954 0.0
H4073 H 0.73231 0.8961 0.09682 0.0
H4074 H 0.70522 0.87949 0.0894 0.0
H4075 H 0.73266 0.86934 0.09058 0.0
C4076 C 0.63067 0.81312 0.07788 0.0
C4077 C 0.64879 0.81046 0.07242 0.0
C4078 C 0.6388 0.81832 0.08559 0.0
C4079 C 0.66539 0.82134 0.08805 0.0
C4080 C 0.68366 0.81895 0.08263 0.0
H4081 H 0.75435 0.84891 0.13159 0.0
H4082 H 0.7397 0.84267 0.1182 0.0
C4083 C 0.67551 0.81362 0.07492 0.0
C4084 C 0.6735 0.82592 0.09632 0.0
H4085 H 0.72499 0.87317 0.10886 0.0
C4086 C 0.65566 0.80435 0.10159 0.0
C4087 C 0.69873 0.8511 0.09901 0.0
C4088 C 0.71826 0.8755 0.09368 0.0
C4089 C 0.66268 0.80691 0.10941 0.0
C4090 C 0.68791 0.83217 0.11212 0.0
C4091 C 0.70565 0.85381 0.10684 0.0
C4092 C 0.69668 0.83631 0.12036 0.0
C4093 C 0.64348 0.782 0.11465 0.0
C4094 C 0.67765 0.83531 0.12612 0.0
C4095 C 0.68598 0.8388 0.13383 0.0
C4096 C 0.71375 0.84386 0.13597 0.0
C4097 C 0.73294 0.84542 0.13018 0.0
C4098 C 0.72453 0.84172 0.12249 0.0
H4099 H 0.63048 0.76133 0.11144 0.0
H4100 H 0.65657 0.77857 0.11903 0.0
H4101 H 0.62799 0.78706 0.1176 0.0
H4102 H 0.65636 0.83201 0.12465 0.0
H4103 H 0.67077 0.83787 0.1381 0.0
H4104 H 0.22539 0.91886 0.13371 0.0
H4105 H 0.22958 0.90992 0.12022 0.0
H4106 H 0.15071 0.82653 0.12177 0.0
H4107 H 0.14622 0.8355 0.13529 0.0
H4108 H 0.23623 0.86851 0.11325 0.0
H4109 H 0.13283 0.85986 0.10331 0.0
H4110 H 0.14746 0.87305 0.11269 0.0
H4111 H 0.12804 0.83456 0.11073 0.0
C4112 C 0.20896 0.8985 0.13121 0.0
C4113 C 0.18545 0.8779 0.13564 0.0
C4114 C 0.21133 0.89347 0.12346 0.0
C4115 C 0.19025 0.86774 0.11988 0.0
C4116 C 0.16689 0.84693 0.1243 0.0
H4117 H 0.17826 0.80411 0.07285 0.0
H4118 H 0.17051 0.80857 0.08647 0.0
C4119 C 0.1644 0.85204 0.13206 0.0
C4120 C 0.19334 0.86265 0.1116 0.0
H4121 H 0.15931 0.84907 0.09423 0.0
C4122 C 0.21938 0.86432 0.1091 0.0
C4123 C 0.17141 0.85706 0.10614 0.0
C4124 C 0.14347 0.85628 0.10832 0.0
C4125 C 0.22404 0.8605 0.10138 0.0
C4126 C 0.20225 0.85522 0.09591 0.0
C4127 C 0.17603 0.85309 0.0984 0.0
C4128 C 0.20665 0.85261 0.08758 0.0
C4129 C 0.25218 0.8618 0.09915 0.0
C4130 C 0.22924 0.87599 0.08359 0.0
C4131 C 0.23377 0.8735 0.07581 0.0
C4132 C 0.21575 0.84756 0.07177 0.0
C4133 C 0.19282 0.8243 0.07576 0.0
C4134 C 0.18824 0.82687 0.08355 0.0
H4135 H 0.26286 0.85802 0.10412 0.0
H4136 H 0.24842 0.84541 0.09468 0.0
H4137 H 0.26744 0.88373 0.09683 0.0
H4138 H 0.24348 0.89627 0.08651 0.0
H4139 H 0.25185 0.8918 0.07299 0.0
H4140 H 0.42478 0.20074 0.46449 0.0
H4141 H 0.41095 0.19565 0.45103 0.0
H4142 H 0.3204 0.1438 0.45727 0.0
H4143 H 0.33395 0.14953 0.47077 0.0
H4144 H 0.38225 0.14557 0.44243 0.0
H4145 H 0.3183 0.20237 0.44272 0.0
H4146 H 0.34194 0.20519 0.45048 0.0
H4147 H 0.30631 0.17353 0.44959 0.0
C4148 C 0.40185 0.18872 0.46304 0.0
C4149 C 0.38052 0.17574 0.46879 0.0
C4150 C 0.39398 0.18562 0.4553 0.0
C4151 C 0.36457 0.16966 0.45309 0.0
C4152 C 0.3432 0.1567 0.4588 0.0
H4153 H 0.27356 0.1178 0.40934 0.0
H4154 H 0.28724 0.12637 0.42282 0.0
C4155 C 0.35105 0.15974 0.46654 0.0
C4156 C 0.35645 0.16568 0.44481 0.0
H4157 H 0.31597 0.17663 0.43139 0.0
C4158 C 0.36789 0.15254 0.44001 0.0
C4159 C 0.3376 0.17461 0.44161 0.0
C4160 C 0.32551 0.18996 0.44634 0.0
C4161 C 0.36063 0.14761 0.43221 0.0
C4162 C 0.34183 0.15659 0.42901 0.0
C4163 C 0.33037 0.16973 0.4338 0.0
C4164 C 0.3336 0.15231 0.42073 0.0
C4165 C 0.37258 0.13205 0.42751 0.0
C4166 C 0.35496 0.16452 0.41499 0.0
C4167 C 0.34719 0.15975 0.40725 0.0
C4168 C 0.31778 0.14281 0.40502 0.0
C4169 C 0.29639 0.13123 0.41079 0.0
C4170 C 0.3042 0.13599 0.41853 0.0
H4171 H 0.37974 0.11965 0.43115 0.0
H4172 H 0.35607 0.11674 0.42339 0.0
H4173 H 0.39179 0.14834 0.42424 0.0
H4174 H 0.37774 0.17785 0.4165 0.0
H4175 H 0.36428 0.16952 0.40301 0.0
H4176 H 0.90375 0.15242 0.41001 0.0
H4177 H 0.8945 0.15719 0.42346 0.0
H4178 H 0.85296 0.20625 0.41714 0.0
H4179 H 0.86136 0.20087 0.40365 0.0
H4180 H 0.91422 0.20772 0.43198 0.0
H4181 H 0.79334 0.14596 0.43171 0.0
H4182 H 0.81491 0.14398 0.424 0.0
H4183 H 0.80925 0.17464 0.42477 0.0
C4184 C 0.89213 0.16375 0.41145 0.0
C4185 C 0.88315 0.17607 0.40568 0.0
C4186 C 0.88707 0.16668 0.41917 0.0
C4187 C 0.87268 0.18176 0.42136 0.0
C4188 C 0.86362 0.19403 0.41563 0.0
H4189 H 0.82881 0.2308 0.46482 0.0
H4190 H 0.83478 0.22228 0.45139 0.0
C4191 C 0.86874 0.19119 0.4079 0.0
C4192 C 0.8682 0.18556 0.42962 0.0
H4193 H 0.81593 0.17237 0.44302 0.0
C4194 C 0.8927 0.19982 0.4344 0.0
C4195 C 0.84015 0.17541 0.43281 0.0
C4196 C 0.81286 0.15891 0.42809 0.0
C4197 C 0.89002 0.20471 0.44219 0.0
C4198 C 0.86196 0.1945 0.44539 0.0
C4199 C 0.83745 0.1802 0.44061 0.0
C4200 C 0.85762 0.19878 0.45363 0.0
C4201 C 0.91739 0.22156 0.44686 0.0
C4202 C 0.86788 0.18792 0.45944 0.0
C4203 C 0.86443 0.1927 0.46715 0.0
C4204 C 0.85034 0.20823 0.46928 0.0
C4205 C 0.83945 0.21844 0.46345 0.0
C4206 C 0.843 0.21372 0.45574 0.0
H4207 H 0.93677 0.23465 0.4432 0.0
H4208 H 0.91526 0.23643 0.45095 0.0
H4209 H 0.92138 0.20605 0.45016 0.0
H4210 H 0.87854 0.17564 0.45801 0.0
H4211 H 0.87267 0.18405 0.47146 0.0
H4212 H 0.88469 0.70678 0.40566 0.0
H4213 H 0.87969 0.69292 0.41916 0.0
H4214 H 0.79719 0.69047 0.42009 0.0
H4215 H 0.80194 0.70417 0.40667 0.0
H4216 H 0.87513 0.71982 0.43196 0.0
H4217 H 0.77517 0.61212 0.42908 0.0
H4218 H 0.79639 0.63256 0.42094 0.0
H4219 H 0.77078 0.64112 0.4253 0.0
C4220 C 0.86546 0.70328 0.40873 0.0
C4221 C 0.84356 0.70629 0.405 0.0
C4222 C 0.86259 0.69527 0.41646 0.0
C4223 C 0.83776 0.69 0.42065 0.0
C4224 C 0.81615 0.69348 0.41697 0.0
H4225 H 0.77581 0.65019 0.46728 0.0
H4226 H 0.78458 0.66333 0.45379 0.0
C4227 C 0.81892 0.70136 0.40925 0.0
C4228 C 0.83469 0.68163 0.4289 0.0
H4229 H 0.78866 0.63066 0.44173 0.0
C4230 C 0.85635 0.70017 0.43408 0.0
C4231 C 0.81023 0.65596 0.43171 0.0
C4232 C 0.78697 0.63414 0.42646 0.0
C4233 C 0.85376 0.69426 0.44198 0.0
C4234 C 0.829 0.66891 0.4448 0.0
C4235 C 0.80757 0.65017 0.4396 0.0
C4236 C 0.8245 0.6617 0.45311 0.0
C4237 C 0.87712 0.7157 0.44727 0.0
C4238 C 0.84392 0.65621 0.45728 0.0
C4239 C 0.83902 0.64876 0.46504 0.0
C4240 C 0.81456 0.64664 0.46884 0.0
C4241 C 0.79517 0.65213 0.46463 0.0
C4242 C 0.80002 0.65944 0.45687 0.0
H4243 H 0.89103 0.73711 0.44448 0.0
H4244 H 0.86733 0.71916 0.45249 0.0
H4245 H 0.89132 0.70691 0.44903 0.0
H4246 H 0.8627 0.65731 0.4545 0.0
H4247 H 0.85448 0.6448 0.46808 0.0
H4248 H 0.90757 0.75341 0.90975 0.0
H4249 H 0.89895 0.73964 0.92321 0.0
H4250 H 0.84791 0.64916 0.91682 0.0
H4251 H 0.85633 0.66272 0.90334 0.0
H4252 H 0.84876 0.71084 0.93172 0.0
H4253 H 0.90587 0.64718 0.93154 0.0
H4254 H 0.90876 0.67079 0.92377 0.0
H4255 H 0.87719 0.63506 0.92461 0.0
C4256 C 0.89423 0.73057 0.91117 0.0
C4257 C 0.88279 0.70921 0.90539 0.0
C4258 C 0.88945 0.7227 0.91891 0.0
C4259 C 0.87323 0.69328 0.92109 0.0
C4260 C 0.86116 0.67195 0.91533 0.0
H4261 H 0.82467 0.60229 0.96486 0.0
H4262 H 0.82975 0.61599 0.9514 0.0
C4263 C 0.86598 0.67978 0.90759 0.0
C4264 C 0.86886 0.68502 0.92936 0.0
H4265 H 0.87985 0.64465 0.9428 0.0
C4266 C 0.85568 0.69645 0.93414 0.0
C4267 C 0.87785 0.66623 0.93257 0.0
C4268 C 0.89346 0.6543 0.92789 0.0
C4269 C 0.85076 0.68924 0.94195 0.0
C4270 C 0.85971 0.67043 0.94516 0.0
C4271 C 0.87288 0.65899 0.94037 0.0
C4272 C 0.85573 0.66238 0.95344 0.0
C4273 C 0.83538 0.70133 0.94666 0.0
C4274 C 0.86869 0.68379 0.95915 0.0
C4275 C 0.86566 0.67602 0.96689 0.0
C4276 C 0.84967 0.64657 0.96915 0.0
C4277 C 0.83669 0.6252 0.9634 0.0
C4278 C 0.83978 0.63299 0.95567 0.0
H4279 H 0.82294 0.70849 0.94303 0.0
H4280 H 0.82015 0.68492 0.95081 0.0
H4281 H 0.85179 0.72056 0.94991 0.0
H4282 H 0.88159 0.70658 0.95761 0.0
H4283 H 0.87587 0.69316 0.97111 0.0
H4284 H 0.36303 0.19873 0.90317 0.0
H4285 H 0.37615 0.20337 0.91669 0.0
H4286 H 0.2854 0.16337 0.92285 0.0
H4287 H 0.27209 0.15873 0.90936 0.0
H4288 H 0.36722 0.23353 0.92802 0.0
H4289 H 0.31071 0.11634 0.93559 0.0
H4290 H 0.31656 0.1288 0.92583 0.0
H4291 H 0.28718 0.12755 0.93129 0.0
C4292 C 0.3458 0.19087 0.90739 0.0
C4293 C 0.31642 0.17818 0.90511 0.0
C4294 C 0.35336 0.19346 0.91514 0.0
C4295 C 0.3318 0.18332 0.92084 0.0
C4296 C 0.30248 0.17068 0.91859 0.0
H4297 H 0.3333 0.18948 0.97072 0.0
H4298 H 0.32011 0.18204 0.95718 0.0
C4299 C 0.29488 0.16803 0.91085 0.0
C4300 C 0.34007 0.18703 0.92911 0.0
H4301 H 0.32906 0.15 0.94592 0.0
C4302 C 0.35901 0.21521 0.93191 0.0
C4303 C 0.32934 0.16321 0.93425 0.0
C4304 C 0.31005 0.13224 0.93159 0.0
C4305 C 0.367 0.22028 0.93967 0.0
C4306 C 0.35625 0.19647 0.94481 0.0
C4307 C 0.33732 0.16829 0.94201 0.0
C4308 C 0.36438 0.20042 0.95308 0.0
C4309 C 0.38633 0.25125 0.94234 0.0
C4310 C 0.39364 0.21272 0.95536 0.0
C4311 C 0.40129 0.21713 0.96311 0.0
C4312 C 0.37987 0.20921 0.96882 0.0
C4313 C 0.35049 0.19626 0.96652 0.0
C4314 C 0.34286 0.19182 0.95876 0.0
H4315 H 0.38622 0.26722 0.93826 0.0
H4316 H 0.37939 0.25482 0.94802 0.0
H4317 H 0.40908 0.25569 0.94282 0.0
H4318 H 0.41066 0.21906 0.95113 0.0
H4319 H 0.42414 0.2274 0.96461 0.0
H4320 H 0.82486 0.1684 0.90296 0.0
H4321 H 0.81999 0.1769 0.91648 0.0
H4322 H 0.86693 0.13295 0.92262 0.0
H4323 H 0.87188 0.12436 0.90915 0.0
H4324 H 0.79288 0.13786 0.92794 0.0
H4325 H 0.9099 0.20665 0.9351 0.0
H4326 H 0.89704 0.19857 0.92539 0.0
H4327 H 0.90124 0.17232 0.93092 0.0
C4328 C 0.83422 0.16057 0.90718 0.0
C4329 C 0.84896 0.14583 0.90491 0.0
C4330 C 0.83149 0.16554 0.91493 0.0
C4331 C 0.8435 0.15604 0.92062 0.0
C4332 C 0.85815 0.14126 0.91837 0.0
H4333 H 0.83919 0.15244 0.97047 0.0
H4334 H 0.84682 0.14706 0.95691 0.0
C4335 C 0.86097 0.13635 0.91063 0.0
C4336 C 0.83965 0.1605 0.92889 0.0
H4337 H 0.87677 0.1893 0.94556 0.0
C4338 C 0.81126 0.1493 0.93177 0.0
C4339 C 0.86357 0.17534 0.93394 0.0
C4340 C 0.89466 0.18916 0.93118 0.0
C4341 C 0.80612 0.15199 0.93954 0.0
C4342 C 0.83002 0.16673 0.94459 0.0
C4343 C 0.85842 0.17796 0.94172 0.0
C4344 C 0.82596 0.17069 0.95287 0.0
C4345 C 0.77505 0.13835 0.94231 0.0
C4346 C 0.81218 0.18624 0.95517 0.0
C4347 C 0.8077 0.18929 0.96293 0.0
C4348 C 0.817 0.17696 0.96861 0.0
C4349 C 0.83137 0.16191 0.96628 0.0
C4350 C 0.83591 0.15895 0.95852 0.0
H4351 H 0.75955 0.12162 0.93826 0.0
H4352 H 0.7725 0.12806 0.94799 0.0
H4353 H 0.76899 0.15551 0.94287 0.0
H4354 H 0.80474 0.19597 0.95096 0.0
H4355 H 0.79631 0.20077 0.96446 0.0
H4356 H 0.68841 0.88373 0.57066 0.0
H4357 H 0.70367 0.88905 0.584 0.0
H4358 H 0.627 0.80716 0.58935 0.0
H4359 H 0.61233 0.80092 0.57598 0.0
H4360 H 0.67751 0.89418 0.59648 0.0
H4361 H 0.68784 0.79585 0.59977 0.0
H4362 H 0.68403 0.80875 0.59057 0.0
H4363 H 0.65248 0.78745 0.59645 0.0
C4364 C 0.67508 0.86645 0.57462 0.0
C4365 C 0.64911 0.84179 0.57216 0.0
C4366 C 0.68374 0.86969 0.58229 0.0
C4367 C 0.66678 0.84835 0.58773 0.0
C4368 C 0.64091 0.82369 0.58529 0.0
H4369 H 0.67343 0.83893 0.63755 0.0
H4370 H 0.65922 0.83087 0.62404 0.0
C4371 C 0.63231 0.82034 0.57761 0.0
C4372 C 0.67545 0.85258 0.59597 0.0
H4373 H 0.68881 0.82065 0.61123 0.0
C4374 C 0.68016 0.87815 0.59967 0.0
C4375 C 0.67891 0.83171 0.6002 0.0
C4376 C 0.67584 0.80454 0.59653 0.0
C4377 C 0.68772 0.88318 0.60746 0.0
C4378 C 0.69095 0.86223 0.61169 0.0
C4379 C 0.6862 0.83665 0.60801 0.0
C4380 C 0.69975 0.86682 0.61989 0.0
C4381 C 0.69171 0.9107 0.61114 0.0
C4382 C 0.7274 0.88944 0.62207 0.0
C4383 C 0.73561 0.89405 0.62977 0.0
C4384 C 0.71636 0.87615 0.63552 0.0
C4385 C 0.68872 0.85331 0.6333 0.0
C4386 C 0.68061 0.84858 0.62558 0.0
H4387 H 0.68213 0.92128 0.60764 0.0
H4388 H 0.68158 0.90606 0.61689 0.0
H4389 H 0.71535 0.92637 0.61181 0.0
H4390 H 0.74269 0.90362 0.6178 0.0
H4391 H 0.75692 0.91205 0.63124 0.0
H4392 H 0.1821 0.84638 0.57039 0.0
H4393 H 0.17668 0.85551 0.58385 0.0
H4394 H 0.17605 0.77657 0.59012 0.0
H4395 H 0.18183 0.76756 0.57675 0.0
H4396 H 0.13445 0.82521 0.59403 0.0
H4397 H 0.23605 0.83243 0.60475 0.0
H4398 H 0.22879 0.83251 0.5947 0.0
H4399 H 0.21324 0.7987 0.5999 0.0
C4400 C 0.18088 0.83099 0.57463 0.0
C4401 C 0.18279 0.8064 0.57245 0.0
C4402 C 0.17784 0.83627 0.58235 0.0
C4403 C 0.1766 0.81712 0.58808 0.0
C4404 C 0.17793 0.79227 0.58589 0.0
H4405 H 0.14132 0.79777 0.63695 0.0
H4406 H 0.15077 0.79229 0.62356 0.0
C4407 C 0.18118 0.7871 0.5782 0.0
C4408 C 0.17297 0.82253 0.59631 0.0
H4409 H 0.2015 0.82803 0.61417 0.0
C4410 C 0.1493 0.82609 0.59841 0.0
C4411 C 0.19228 0.82372 0.60209 0.0
C4412 C 0.21917 0.82194 0.60024 0.0
C4413 C 0.14403 0.83002 0.60609 0.0
C4414 C 0.16305 0.83071 0.61186 0.0
C4415 C 0.18681 0.82736 0.60977 0.0
C4416 C 0.15852 0.83473 0.6201 0.0
C4417 C 0.11768 0.83268 0.60799 0.0
C4418 C 0.16039 0.8607 0.6227 0.0
C4419 C 0.15538 0.86411 0.6304 0.0
C4420 C 0.14827 0.84158 0.63572 0.0
C4421 C 0.14708 0.81581 0.6331 0.0
C4422 C 0.15227 0.81252 0.62541 0.0
H4423 H 0.10186 0.82541 0.6032 0.0
H4424 H 0.10643 0.81965 0.61313 0.0
H4425 H 0.12477 0.85583 0.60924 0.0
H4426 H 0.16577 0.87842 0.61877 0.0
H4427 H 0.15715 0.88451 0.63217 0.0
H4428 H 0.20919 0.41211 0.576 0.0
H4429 H 0.20135 0.39727 0.58938 0.0
H4430 H 0.20771 0.32144 0.58375 0.0
H4431 H 0.21711 0.33687 0.57043 0.0
H4432 H 0.16006 0.35034 0.5967 0.0
H4433 H 0.26571 0.35451 0.60082 0.0
H4434 H 0.25784 0.36897 0.59242 0.0
H4435 H 0.24457 0.33047 0.59324 0.0
C4436 C 0.2093 0.39243 0.57759 0.0
C4437 C 0.21419 0.37597 0.57206 0.0
C4438 C 0.20456 0.38383 0.58527 0.0
C4439 C 0.20457 0.35853 0.58767 0.0
C4440 C 0.20837 0.34147 0.58213 0.0
H4441 H 0.17659 0.26766 0.63096 0.0
H4442 H 0.18266 0.28254 0.61757 0.0
C4443 C 0.21329 0.35013 0.57445 0.0
C4444 C 0.20047 0.35002 0.59593 0.0
H4445 H 0.23108 0.33313 0.61085 0.0
C4446 C 0.17571 0.34676 0.59979 0.0
C4447 C 0.22089 0.34542 0.60004 0.0
C4448 C 0.24888 0.3503 0.59645 0.0
C4449 C 0.17054 0.33846 0.60753 0.0
C4450 C 0.19073 0.33347 0.61159 0.0
C4451 C 0.21551 0.33682 0.60775 0.0
C4452 C 0.18641 0.32444 0.61978 0.0
C4453 C 0.14313 0.33445 0.61128 0.0
C4454 C 0.1867 0.34308 0.62555 0.0
C4455 C 0.18325 0.33462 0.63325 0.0
C4456 C 0.17928 0.30723 0.63537 0.0
C4457 C 0.17905 0.28867 0.62956 0.0
C4458 C 0.18274 0.29724 0.62189 0.0
H4459 H 0.12694 0.33306 0.60703 0.0
H4460 H 0.1329 0.31442 0.61483 0.0
H4461 H 0.14872 0.35331 0.61508 0.0
H4462 H 0.18991 0.36435 0.6241 0.0
H4463 H 0.18348 0.34947 0.63754 0.0
H4464 H 0.93959 0.43691 0.74369 0.0
H4465 H 0.95442 0.44624 0.75708 0.0
H4466 H 0.03552 0.52163 0.75055 0.0
H4467 H 0.02068 0.51266 0.7371 0.0
H4468 H 1.00542 0.44959 0.76385 0.0
H4469 H 1.00332 0.55269 0.76755 0.0
H4470 H 0.98503 0.52782 0.75976 0.0
H4471 H 0.02385 0.55145 0.75953 0.0
C4472 C 0.96043 0.45575 0.74508 0.0
C4473 C 0.9788 0.47415 0.73927 0.0
C4474 C 0.96897 0.46093 0.75276 0.0
C4475 C 0.99595 0.48484 0.75486 0.0
C4476 C 1.01441 0.50328 0.7491 0.0
H4477 H 0.08301 0.55166 0.79869 0.0
H4478 H 0.06827 0.54422 0.7853 0.0
C4479 C 1.00598 0.49797 0.7414 0.0
C4480 C 1.00498 0.48987 0.76306 0.0
H4481 H 0.02106 0.53757 0.77791 0.0
C4482 C 1.00876 0.46879 0.76693 0.0
C4483 C 1.00953 0.51499 0.76709 0.0
C4484 C 1.00504 0.538 0.76332 0.0
C4485 C 0.01736 0.47231 0.77465 0.0
C4486 C 0.02151 0.49725 0.77873 0.0
C4487 C 0.01782 0.5184 0.77484 0.0
C4488 C 0.02996 0.50194 0.787 0.0
C4489 C 0.02273 0.4496 0.77826 0.0
C4490 C 1.01309 0.48103 0.79253 0.0
C4491 C 0.02171 0.48503 0.80022 0.0
C4492 C 0.04728 0.51027 0.80262 0.0
C4493 C 0.06354 0.53165 0.79709 0.0
C4494 C 0.05499 0.52754 0.7894 0.0
H4495 H 0.02726 0.43713 0.77391 0.0
H4496 H 0.04136 0.45966 0.7823 0.0
H4497 H 1.00298 0.43389 0.78146 0.0
H4498 H 0.99326 0.46142 0.79091 0.0
H4499 H 1.00862 0.46791 0.80424 0.0
H4500 H 0.60172 0.5527 0.74152 0.0
H4501 H 0.59463 0.55949 0.75503 0.0
H4502 H 0.50632 0.48785 0.75381 0.0
H4503 H 0.51314 0.48098 0.74034 0.0
H4504 H 0.5556 0.57181 0.76223 0.0
H4505 H 0.53764 0.46458 0.77197 0.0
H4506 H 0.55196 0.47906 0.76264 0.0
H4507 H 0.51345 0.462 0.76446 0.0
C4508 C 0.58071 0.53848 0.74411 0.0
C4509 C 0.55812 0.51608 0.73981 0.0
C4510 C 0.57673 0.54231 0.75186 0.0
C4511 C 0.55013 0.5238 0.75552 0.0
C4512 C 0.52733 0.50191 0.75121 0.0
H4513 H 0.48143 0.51155 0.80159 0.0
H4514 H 0.48852 0.50526 0.78805 0.0
C4515 C 0.53129 0.49803 0.74347 0.0
C4516 C 0.54604 0.52763 0.7638 0.0
H4517 H 0.52804 0.49224 0.78099 0.0
C4518 C 0.54974 0.55446 0.76633 0.0
C4519 C 0.53832 0.505 0.7692 0.0
C4520 C 0.53537 0.47613 0.76696 0.0
C4521 C 0.54539 0.55907 0.77403 0.0
C4522 C 0.53759 0.53641 0.77941 0.0
C4523 C 0.53391 0.5096 0.77689 0.0
C4524 C 0.5334 0.54019 0.78769 0.0
C4525 C 0.5485 0.58798 0.77629 0.0
C4526 C 0.55634 0.56159 0.79206 0.0
C4527 C 0.55234 0.56531 0.79981 0.0
C4528 C 0.52528 0.5476 0.80341 0.0
C4529 C 0.50245 0.52585 0.79902 0.0
C4530 C 0.50652 0.52211 0.79127 0.0
H4531 H 0.54667 0.5998 0.77128 0.0
H4532 H 0.5317 0.58503 0.78054 0.0
H4533 H 0.57028 0.60184 0.77889 0.0
H4534 H 0.57746 0.57548 0.78949 0.0
H4535 H 0.57037 0.58251 0.80293 0.0
H4536 H 0.46727 0.03592 0.74019 0.0
H4537 H 0.46329 0.02274 0.75366 0.0
H4538 H 0.54806 0.03018 0.75275 0.0
H4539 H 0.55226 0.04345 0.73924 0.0
H4540 H 0.46316 0.97713 0.76072 0.0
H4541 H 0.55721 0.08028 0.77114 0.0
H4542 H 0.54239 0.07665 0.76168 0.0
H4543 H 0.5663 0.06263 0.76377 0.0
C4544 C 0.48504 0.03455 0.74281 0.0
C4545 C 0.51012 0.0408 0.73857 0.0
C4546 C 0.48277 0.02714 0.75056 0.0
C4547 C 0.50554 0.02587 0.75431 0.0
C4548 C 0.53046 0.0317 0.75008 0.0
H4549 H 0.52234 0.98083 0.80162 0.0
H4550 H 0.52998 0.99321 0.78801 0.0
C4551 C 0.5328 0.03923 0.74232 0.0
C4552 C 0.50272 0.01789 0.76259 0.0
H4553 H 0.53404 0.04209 0.78014 0.0
C4554 C 0.47867 0.9914 0.76495 0.0
C4555 C 0.52294 0.03638 0.76816 0.0
C4556 C 0.54853 0.06569 0.76609 0.0
C4557 C 0.47437 0.98288 0.77267 0.0
C4558 C 0.4944 1.00149 0.77825 0.0
C4559 C 0.51868 0.02778 0.77589 0.0
C4560 C 0.49003 0.99436 0.78657 0.0
C4561 C 0.44854 0.95378 0.77478 0.0
C4562 C 0.46528 0.99132 0.79036 0.0
C4563 C 0.46084 0.98424 0.79814 0.0
C4564 C 0.48109 0.98007 0.80236 0.0
C4565 C 0.50611 0.98354 0.79856 0.0
C4566 C 0.51059 0.99077 0.79078 0.0
H4567 H 0.44002 0.93894 0.76977 0.0
H4568 H 0.45435 0.94298 0.77932 0.0
H4569 H 0.43078 0.95714 0.77696 0.0
H4570 H 0.44929 0.99442 0.7873 0.0
H4571 H 0.44116 0.98146 0.8008 0.0
H4572 H 0.60021 0.05135 0.24114 0.0
H4573 H 0.59294 0.03647 0.25457 0.0
H4574 H 0.50668 0.02546 0.25389 0.0
H4575 H 0.5134 0.03945 0.24045 0.0
H4576 H 0.58129 0.06218 0.26698 0.0
H4577 H 0.49129 0.94849 0.26312 0.0
H4578 H 0.51361 0.97038 0.25529 0.0
H4579 H 0.4845 0.97529 0.25885 0.0
C4580 C 0.57951 0.04536 0.24381 0.0
C4581 C 0.55739 0.0466 0.23966 0.0
C4582 C 0.57546 0.03704 0.25152 0.0
C4583 C 0.54911 0.02944 0.25525 0.0
C4584 C 0.52702 0.03069 0.25113 0.0
H4585 H 0.48222 0.9761 0.3016 0.0
H4586 H 0.48942 0.99059 0.28816 0.0
C4587 C 0.53106 0.03906 0.24345 0.0
C4588 C 0.54498 0.02103 0.2635 0.0
H4589 H 0.50165 0.96626 0.27584 0.0
C4590 C 0.56397 0.04113 0.26891 0.0
C4591 C 0.52231 0.99362 0.26605 0.0
C4592 C 0.5019 0.97056 0.26053 0.0
C4593 C 0.5606 0.03485 0.27678 0.0
C4594 C 0.53795 1.00742 0.27934 0.0
C4595 C 0.51896 0.98731 0.27392 0.0
C4596 C 0.53377 0.999 0.28759 0.0
C4597 C 0.58093 0.05801 0.2823 0.0
C4598 C 0.55612 0.99851 0.29178 0.0
C4599 C 0.55205 0.99019 0.29947 0.0
C4600 C 0.52542 0.98188 0.30319 0.0
C4601 C 0.50296 0.98216 0.29895 0.0
C4602 C 0.50708 0.99055 0.29125 0.0
H4603 H 0.59118 0.08009 0.27971 0.0
H4604 H 0.56929 0.05799 0.28757 0.0
H4605 H 0.59864 0.05365 0.28391 0.0
H4606 H 0.57663 1.00412 0.28906 0.0
H4607 H 0.56964 0.98961 0.30246 0.0
H4608 H 1.00187 0.51994 0.30438 0.0
H4609 H 0.98801 0.51122 0.2909 0.0
H4610 H 0.07869 0.55742 0.28446 0.0
H4611 H 0.09272 0.56626 0.29789 0.0
H4612 H 0.99837 0.54995 0.27946 0.0
H4613 H 0.04938 0.48397 0.27194 0.0
H4614 H 0.04464 0.49176 0.28169 0.0
H4615 H 0.0745 0.51857 0.27609 0.0
C4616 C 0.01892 0.52824 0.30011 0.0
C4617 C 0.04848 0.54368 0.30229 0.0
C4618 C 1.01093 0.52313 0.29238 0.0
C4619 C 0.03225 0.53319 0.28661 0.0
C4620 C 0.06176 0.54867 0.28877 0.0
H4621 H 0.02942 0.53624 0.23675 0.0
H4622 H 0.04296 0.542 0.25027 0.0
C4623 C 0.06977 0.55373 0.29649 0.0
C4624 C 0.02361 0.52851 0.27837 0.0
H4625 H 0.03231 0.50045 0.26159 0.0
C4626 C 1.00564 0.53893 0.27557 0.0
C4627 C 0.03311 0.51423 0.27324 0.0
C4628 C 0.05124 0.50123 0.27589 0.0
C4629 C 0.99745 0.53601 0.26783 0.0
C4630 C 1.00703 0.52181 0.26271 0.0
C4631 C 0.02497 0.51137 0.26549 0.0
C4632 C 0.99867 0.51764 0.25445 0.0
C4633 C 0.9792 0.54885 0.26517 0.0
C4634 C 0.96927 0.50154 0.25223 0.0
C4635 C 0.96143 0.49828 0.2445 0.0
C4636 C 0.98279 0.51092 0.23875 0.0
C4637 C 1.01229 0.52651 0.24099 0.0
C4638 C 0.02011 0.5297 0.24873 0.0
H4639 H 0.98017 0.56542 0.26924 0.0
H4640 H 0.98644 0.55914 0.25948 0.0
H4641 H 0.95612 0.53124 0.26471 0.0
H4642 H 0.95229 0.49154 0.2565 0.0
H4643 H 0.93849 0.48636 0.24305 0.0
H4644 H 0.46795 0.43732 0.23995 0.0
H4645 H 0.46397 0.4459 0.25349 0.0
H4646 H 0.54686 0.52547 0.25251 0.0
H4647 H 0.55075 0.5174 0.23888 0.0
H4648 H 0.50197 0.45141 0.26539 0.0
H4649 H 0.4939 0.55162 0.26282 0.0
H4650 H 0.4884 0.52796 0.2548 0.0
H4651 H 0.52464 0.55286 0.2581 0.0
C4652 C 0.48517 0.45694 0.24256 0.0
C4653 C 0.50957 0.47679 0.23825 0.0
C4654 C 0.48295 0.46169 0.25034 0.0
C4655 C 0.50491 0.48652 0.25404 0.0
C4656 C 0.52936 0.50639 0.24978 0.0
H4657 H 0.5203 0.54706 0.3015 0.0
H4658 H 0.52888 0.54219 0.28796 0.0
C4659 C 0.53168 0.50158 0.24199 0.0
C4660 C 0.50243 0.49099 0.26238 0.0
H4661 H 0.49644 0.53624 0.2753 0.0
C4662 C 0.50075 0.46997 0.26755 0.0
C4663 C 0.50103 0.51528 0.26524 0.0
C4664 C 0.50184 0.53816 0.25997 0.0
C4665 C 0.49784 0.4726 0.27546 0.0
C4666 C 0.49581 0.49657 0.27832 0.0
C4667 C 0.49793 0.51784 0.27315 0.0
C4668 C 0.4907 0.49954 0.2866 0.0
C4669 C 0.49752 0.44984 0.28069 0.0
C4670 C 0.46617 0.47746 0.29037 0.0
C4671 C 0.46123 0.48016 0.29811 0.0
C4672 C 0.48053 0.50519 0.3023 0.0
C4673 C 0.50488 0.52752 0.29848 0.0
C4674 C 0.50987 0.52473 0.29073 0.0
H4675 H 0.50828 0.43864 0.27801 0.0
H4676 H 0.50863 0.45959 0.28617 0.0
H4677 H 0.4746 0.4331 0.28193 0.0
H4678 H 0.45051 0.45819 0.2873 0.0
H4679 H 0.44185 0.46281 0.30076 0.0
H4680 H 0.94436 0.12081 0.29702 0.0
H4681 H 0.96507 0.13203 0.28418 0.0
H4682 H 0.01501 0.2231 0.29007 0.0
H4683 H 0.99527 0.21196 0.30303 0.0
H4684 H 0.96137 0.16649 0.27316 0.0
H4685 H 0.07739 0.20961 0.28083 0.0
H4686 H 0.04809 0.18996 0.28753 0.0
H4687 H 0.06085 0.22777 0.28556 0.0
C4688 C 0.96016 0.1432 0.29566 0.0
C4689 C 0.96825 0.1654 0.30115 0.0
C4690 C 0.97181 0.14962 0.28826 0.0
C4691 C 0.992 0.17837 0.28614 0.0
C4692 C 0.99996 0.20065 0.29157 0.0
H4693 H 0.08399 0.25734 0.24348 0.0
H4694 H 0.06327 0.24831 0.25635 0.0
C4695 C 0.98833 0.19426 0.29898 0.0
C4696 C 1.00403 0.18499 0.2782 0.0
H4697 H 0.06747 0.21473 0.26791 0.0
C4698 C 0.98458 0.17695 0.27202 0.0
C4699 C 0.03434 0.19874 0.27667 0.0
C4700 C 0.0564 0.2068 0.28298 0.0
C4701 C 0.99452 0.18254 0.26442 0.0
C4702 C 0.02479 0.19613 0.26289 0.0
C4703 C 0.04428 0.20436 0.26906 0.0
C4704 C 0.03668 0.20162 0.25493 0.0
C4705 C 0.97248 0.17434 0.25809 0.0
C4706 C 0.02884 0.17843 0.24981 0.0
C4707 C 0.04055 0.18354 0.24241 0.0
C4708 C 0.06055 0.212 0.23995 0.0
C4709 C 0.06834 0.23519 0.24511 0.0
C4710 C 0.05666 0.23004 0.25251 0.0
H4711 H 0.95158 0.17184 0.26022 0.0
H4712 H 0.98092 0.19094 0.25349 0.0
H4713 H 0.96783 0.15318 0.2556 0.0
H4714 H 1.0139 0.15624 0.25156 0.0
H4715 H 0.03383 0.16513 0.23862 0.0
H4716 H 0.88121 0.85565 0.30237 0.0
H4717 H 0.8698 0.8647 0.2895 0.0
H4718 H 0.82273 0.77229 0.28506 0.0
H4719 H 0.83408 0.76303 0.29792 0.0
H4720 H 0.88465 0.85132 0.27573 0.0
H4721 H 0.76421 0.7955 0.27814 0.0
H4722 H 0.78761 0.80399 0.28636 0.0
H4723 H 0.7793 0.77282 0.28052 0.0
C4724 C 0.86842 0.83719 0.29867 0.0
C4725 C 0.85854 0.80856 0.30124 0.0
C4726 C 0.86181 0.84242 0.2913 0.0
C4727 C 0.84502 0.8192 0.2863 0.0
C4728 C 0.83508 0.79059 0.28884 0.0
H4729 H 0.79117 0.81093 0.23865 0.0
H4730 H 0.80045 0.79965 0.25154 0.0
C4731 C 0.84163 0.78533 0.29622 0.0
C4732 C 0.83898 0.82507 0.27836 0.0
H4733 H 0.78417 0.81125 0.26576 0.0
C4734 C 0.86266 0.84265 0.27358 0.0
C4735 C 0.8103 0.81367 0.27549 0.0
C4736 C 0.78387 0.79567 0.28041 0.0
C4737 C 0.8585 0.84885 0.26602 0.0
C4738 C 0.82984 0.83762 0.26317 0.0
C4739 C 0.80614 0.81985 0.26793 0.0
C4740 C 0.82404 0.84451 0.25532 0.0
C4741 C 0.88492 0.86694 0.26111 0.0
C4742 C 0.83377 0.87346 0.25315 0.0
C4743 C 0.82838 0.87999 0.2458 0.0
C4744 C 0.81297 0.85773 0.2404 0.0
C4745 C 0.80291 0.82868 0.24263 0.0
C4746 C 0.8083 0.82217 0.25001 0.0
H4747 H 0.90456 0.86698 0.26335 0.0
H4748 H 0.88114 0.85878 0.25515 0.0
H4749 H 0.88955 0.88981 0.26105 0.0
H4750 H 0.84531 0.89107 0.25719 0.0
H4751 H 0.83589 0.90255 0.24439 0.0
H4752 H 0.19171 0.08586 0.29575 0.0
H4753 H 0.18131 0.06332 0.28312 0.0
H4754 H 0.21897 0.01106 0.28982 0.0
H4755 H 0.22825 0.03249 0.30259 0.0
H4756 H 0.2173 0.06324 0.27218 0.0
H4757 H 0.1422 0.94932 0.28115 0.0
H4758 H 0.15348 0.97983 0.28754 0.0
H4759 H 0.17722 0.96537 0.28568 0.0
C4760 C 0.19737 0.06921 0.29461 0.0
C4761 C 0.21062 0.06091 0.30029 0.0
C4762 C 0.19162 0.05649 0.28733 0.0
C4763 C 0.19885 0.03504 0.2855 0.0
C4764 C 0.21251 0.02703 0.2911 0.0
H4765 H 0.18145 0.9362 0.24375 0.0
H4766 H 0.19428 0.95873 0.25643 0.0
C4767 C 0.2182 0.03967 0.2984 0.0
C4768 C 0.19258 0.02162 0.27771 0.0
H4769 H 0.15667 0.95656 0.26815 0.0
C4770 C 0.20395 0.03992 0.27131 0.0
C4771 C 0.17519 0.99113 0.27652 0.0
C4772 C 0.16107 0.97026 0.28308 0.0
C4773 C 0.19872 0.02865 0.26383 0.0
C4774 C 0.18127 0.99821 0.26265 0.0
C4775 C 0.17009 0.97987 0.26904 0.0
C4776 C 0.17397 0.98502 0.25485 0.0
C4777 C 0.21237 0.04944 0.25724 0.0
C4778 C 0.15807 0.99206 0.24971 0.0
C4779 C 0.15073 0.97924 0.24245 0.0
C4780 C 0.15907 0.95898 0.24012 0.0
C4781 C 0.175 0.95198 0.24528 0.0
C4782 C 0.1822 0.96471 0.25257 0.0
H4783 H 0.23101 0.07064 0.25912 0.0
H4784 H 0.22013 0.03999 0.25279 0.0
H4785 H 0.19583 0.05376 0.25463 0.0
H4786 H 0.15103 1.00728 0.25136 0.0
H4787 H 0.13866 0.98538 0.23863 0.0
H4788 H 0.94526 0.76633 0.79823 0.0
H4789 H 0.96673 0.77487 0.78545 0.0
H4790 H 0.99911 0.86696 0.78798 0.0
H4791 H 0.97841 0.85875 0.80082 0.0
H4792 H 0.95557 0.79953 0.77272 0.0
H4793 H 0.07179 0.86501 0.78109 0.0
H4794 H 0.04328 0.84368 0.78786 0.0
H4795 H 0.04931 0.87866 0.78481 0.0
C4796 C 0.95731 0.78847 0.79613 0.0
C4797 C 0.96013 0.81184 0.80062 0.0
C4798 C 0.96941 0.7933 0.78878 0.0
C4799 C 0.98492 0.82161 0.78575 0.0
C4800 C 0.98772 0.84496 0.79021 0.0
H4801 H 0.07257 0.89994 0.74299 0.0
H4802 H 0.0509 0.88935 0.75572 0.0
C4803 C 0.97555 0.84016 0.79754 0.0
C4804 C 0.9975 0.82667 0.77789 0.0
H4805 H 0.06131 0.86354 0.76787 0.0
C4806 C 0.97871 0.81337 0.77166 0.0
C4807 C 0.02772 0.84477 0.77648 0.0
C4808 C 0.04928 0.85866 0.78291 0.0
C4809 C 0.98915 0.81826 0.76409 0.0
C4810 C 0.01936 0.83651 0.76268 0.0
C4811 C 0.03816 0.84962 0.76892 0.0
C4812 C 0.03191 0.84261 0.75479 0.0
C4813 C 0.96753 0.8045 0.75767 0.0
C4814 C 0.02874 0.81995 0.74998 0.0
C4815 C 0.04092 0.82592 0.74263 0.0
C4816 C 0.05678 0.85478 0.73991 0.0
C4817 C 0.06007 0.87742 0.74478 0.0
C4818 C 0.04788 0.87141 0.75212 0.0
H4819 H 0.94502 0.798 0.75952 0.0
H4820 H 0.9734 0.81962 0.75276 0.0
H4821 H 0.96755 0.78459 0.7557 0.0
H4822 H 0.01707 0.79757 0.75193 0.0
H4823 H 0.03772 0.80785 0.73906 0.0
H4824 H 0.1229 0.17661 0.74298 0.0
H4825 H 0.13394 0.16607 0.75571 0.0
H4826 H 0.2257 0.22268 0.75157 0.0
H4827 H 0.21492 0.23316 0.73878 0.0
H4828 H 0.16705 0.14147 0.76021 0.0
H4829 H 0.21455 0.25351 0.77188 0.0
H4830 H 0.19404 0.24252 0.7631 0.0
H4831 H 0.2314 0.25097 0.76325 0.0
C4832 C 0.1455 0.18668 0.74472 0.0
C4833 C 0.16797 0.20583 0.73978 0.0
C4834 C 0.15176 0.18073 0.75205 0.0
C4835 C 0.18063 0.1939 0.75469 0.0
C4836 C 0.20318 0.21275 0.74977 0.0
H4837 H 0.25858 0.18284 0.79775 0.0
H4838 H 0.24961 0.19455 0.78488 0.0
C4839 C 0.19695 0.21872 0.74242 0.0
C4840 C 0.18703 0.18739 0.76253 0.0
H4841 H 0.21762 0.2187 0.77969 0.0
C4842 C 0.17803 0.15837 0.76447 0.0
C4843 C 0.20148 0.20939 0.76812 0.0
C4844 C 0.21073 0.24082 0.76653 0.0
C4845 C 0.18336 0.15081 0.77175 0.0
C4846 C 0.19755 0.17275 0.77737 0.0
C4847 C 0.20673 0.20182 0.77542 0.0
C4848 C 0.20286 0.16596 0.7853 0.0
C4849 C 0.17431 0.11939 0.77329 0.0
C4850 C 0.17959 0.14643 0.78994 0.0
C4851 C 0.18465 0.13971 0.79732 0.0
C4852 C 0.21313 0.15255 0.8003 0.0
C4853 C 0.23634 0.17266 0.7957 0.0
C4854 C 0.23125 0.1793 0.78831 0.0
H4855 H 0.17175 0.10718 0.76792 0.0
H4856 H 0.19046 0.11769 0.77696 0.0
H4857 H 0.15298 0.1087 0.77628 0.0
H4858 H 0.15739 0.13643 0.78787 0.0
H4859 H 0.16614 0.12462 0.80072 0.0
H4860 H 0.83686 0.0788 0.79778 0.0
H4861 H 0.8243 0.05751 0.78498 0.0
H4862 H 0.87018 0.01094 0.78926 0.0
H4863 H 0.88214 0.03145 0.80214 0.0
H4864 H 0.8615 0.0626 0.7731 0.0
H4865 H 0.7921 0.94659 0.78119 0.0
H4866 H 0.80214 0.97604 0.78788 0.0
H4867 H 0.82748 0.96397 0.78556 0.0
C4868 C 0.84388 0.06364 0.79606 0.0
C4869 C 0.86045 0.05682 0.80105 0.0
C4870 C 0.83685 0.05164 0.7887 0.0
C4871 C 0.84594 0.03228 0.78615 0.0
C4872 C 0.86243 0.02538 0.79111 0.0
H4873 H 0.83447 0.9399 0.74412 0.0
H4874 H 0.84419 0.96107 0.75691 0.0
C4875 C 0.86954 0.03743 0.79847 0.0
C4876 C 0.83902 0.02007 0.77824 0.0
H4877 H 0.80601 0.95618 0.76815 0.0
C4878 C 0.84918 0.03933 0.77202 0.0
C4879 C 0.82298 0.98969 0.7768 0.0
C4880 C 0.81029 0.96784 0.78321 0.0
C4881 C 0.84445 0.0291 0.76443 0.0
C4882 C 0.8286 0.9987 0.76299 0.0
C4883 C 0.81822 0.97946 0.76922 0.0
C4884 C 0.82294 0.98636 0.75508 0.0
C4885 C 0.8573 0.05097 0.75804 0.0
C4886 C 0.80751 0.99324 0.74975 0.0
C4887 C 0.80212 0.98134 0.74237 0.0
C4888 C 0.81188 0.96208 0.74014 0.0
C4889 C 0.82709 0.95505 0.74553 0.0
C4890 C 0.83247 0.96697 0.7529 0.0
H4891 H 0.8751 0.07238 0.76009 0.0
H4892 H 0.86602 0.04299 0.75345 0.0
H4893 H 0.84003 0.05445 0.75555 0.0
H4894 H 0.79938 1.00766 0.75131 0.0
H4895 H 0.79048 0.98744 0.73839 0.0
H4896 H 0.6798 0.52479 0.63761 0.0
H4897 H 0.70065 0.53561 0.62474 0.0
H4898 H 0.61421 0.4917 0.61512 0.0
H4899 H 0.59323 0.48066 0.62792 0.0
H4900 H 0.6949 0.4982 0.61297 0.0
H4901 H 0.65127 0.5692 0.60394 0.0
H4902 H 0.65126 0.55912 0.61377 0.0
H4903 H 0.62377 0.53408 0.60729 0.0
C4904 C 0.66519 0.51736 0.63276 0.0
C4905 C 0.63476 0.50205 0.63385 0.0
C4906 C 0.67717 0.52368 0.62539 0.0
C4907 C 0.65905 0.51498 0.61893 0.0
C4908 C 0.62871 0.49938 0.61999 0.0
H4909 H 0.6872 0.52657 0.56963 0.0
H4910 H 0.66667 0.51627 0.58254 0.0
C4911 C 0.61672 0.49309 0.62734 0.0
C4912 C 0.6718 0.52143 0.61108 0.0
H4913 H 0.67276 0.55456 0.59425 0.0
C4914 C 0.6902 0.51069 0.60889 0.0
C4915 C 0.66562 0.53763 0.60573 0.0
C4916 C 0.64713 0.55093 0.6078 0.0
C4917 C 0.70206 0.51517 0.60149 0.0
C4918 C 0.69585 0.53133 0.59614 0.0
C4919 C 0.67748 0.54211 0.59833 0.0
C4920 C 0.70842 0.53753 0.58828 0.0
C4921 C 0.72059 0.50191 0.59942 0.0
C4922 C 0.73873 0.55324 0.58716 0.0
C4923 C 0.75054 0.55902 0.57979 0.0
C4924 C 0.73234 0.54944 0.57331 0.0
C4925 C 0.70193 0.53397 0.57445 0.0
C4926 C 0.69013 0.52822 0.58184 0.0
H4927 H 0.71667 0.48381 0.60333 0.0
H4928 H 0.71627 0.49349 0.59348 0.0
H4929 H 0.74394 0.51885 0.59986 0.0
H4930 H 0.75334 0.56116 0.59201 0.0
H4931 H 0.77403 0.5707 0.57918 0.0
H4932 H 0.50316 0.15923 0.63778 0.0
H4933 H 0.4925 0.16973 0.62495 0.0
H4934 H 0.53347 0.12456 0.61514 0.0
H4935 H 0.54441 0.11419 0.62789 0.0
H4936 H 0.52967 0.20023 0.613 0.0
H4937 H 0.45521 0.0858 0.60425 0.0
H4938 H 0.46603 0.09607 0.61404 0.0
H4939 H 0.49015 0.09243 0.60748 0.0
C4940 C 0.51004 0.1516 0.63291 0.0
C4941 C 0.52445 0.13557 0.63393 0.0
C4942 C 0.50379 0.15753 0.62556 0.0
C4943 C 0.51164 0.14747 0.61905 0.0
C4944 C 0.52642 0.13189 0.62005 0.0
H4945 H 0.4968 0.16227 0.56975 0.0
H4946 H 0.5076 0.15214 0.5826 0.0
C4947 C 0.53267 0.12596 0.62738 0.0
C4948 C 0.50505 0.15385 0.61122 0.0
H4949 H 0.47017 0.12165 0.59452 0.0
C4950 C 0.51651 0.18303 0.60898 0.0
C4951 C 0.48796 0.13147 0.60593 0.0
C4952 C 0.47388 0.09968 0.60805 0.0
C4953 C 0.51187 0.19041 0.60159 0.0
C4954 C 0.49481 0.16803 0.5963 0.0
C4955 C 0.48332 0.13885 0.59854 0.0
C4956 C 0.48837 0.17442 0.58846 0.0
C4957 C 0.52595 0.2222 0.59947 0.0
C4958 C 0.47363 0.19002 0.58741 0.0
C4959 C 0.46757 0.196 0.58007 0.0
C4960 C 0.47587 0.18633 0.57353 0.0
C4961 C 0.49039 0.17043 0.5746 0.0
C4962 C 0.49642 0.16444 0.58197 0.0
H4963 H 0.54459 0.23608 0.60328 0.0
H4964 H 0.53384 0.22582 0.59348 0.0
H4965 H 0.50967 0.22943 0.60003 0.0
H4966 H 0.46664 0.19751 0.5923 0.0
H4967 H 0.45665 0.20855 0.57952 0.0
H4968 H 0.90176 0.36256 0.63643 0.0
H4969 H 0.89426 0.34356 0.62338 0.0
H4970 H 0.85238 0.39277 0.61754 0.0
H4971 H 0.8607 0.41267 0.63045 0.0
H4972 H 0.84365 0.3108 0.61525 0.0
H4973 H 0.91187 0.41612 0.60057 0.0
H4974 H 0.91308 0.4121 0.61076 0.0
H4975 H 0.88432 0.41609 0.60654 0.0
C4976 C 0.89127 0.36966 0.63236 0.0
C4977 C 0.88195 0.38931 0.63455 0.0
C4978 C 0.88682 0.3586 0.62489 0.0
C4979 C 0.87317 0.36705 0.6194 0.0
C4980 C 0.86351 0.38633 0.62159 0.0
H4981 H 0.81708 0.32292 0.57223 0.0
H4982 H 0.82793 0.34239 0.58524 0.0
C4983 C 0.86794 0.39739 0.62905 0.0
C4984 C 0.86842 0.35527 0.61144 0.0
H4985 H 0.88132 0.37554 0.59267 0.0
C4986 C 0.85209 0.32496 0.61032 0.0
C4987 C 0.8794 0.37367 0.60497 0.0
C4988 C 0.89838 0.40628 0.60575 0.0
C4989 C 0.84579 0.31266 0.60294 0.0
C4990 C 0.85648 0.33109 0.59648 0.0
C4991 C 0.87302 0.36137 0.5976 0.0
C4992 C 0.85038 0.31941 0.58851 0.0
C4993 C 0.82697 0.28004 0.60214 0.0
C4994 C 0.8598 0.30035 0.58592 0.0
C4995 C 0.85352 0.28906 0.57848 0.0
C4996 C 0.83772 0.29661 0.57341 0.0
C4997 C 0.82887 0.3162 0.57598 0.0
C4998 C 0.83522 0.32753 0.58342 0.0
H4999 H 0.81459 0.26983 0.60745 0.0
H5000 H 0.81128 0.2743 0.59737 0.0
H5001 H 0.84105 0.27054 0.60091 0.0
H5002 H 0.87201 0.29415 0.58967 0.0
H5003 H 0.86054 0.27391 0.57675 0.0
H5004 H 0.7295 0.22911 0.07445 0.0
H5005 H 0.70955 0.21812 0.08739 0.0
H5006 H 0.70732 0.13573 0.08658 0.0
H5007 H 0.72713 0.14645 0.07363 0.0
H5008 H 0.65788 0.17292 0.09297 0.0
H5009 H 0.7516 0.17061 0.10632 0.0
H5010 H 0.75347 0.18497 0.09687 0.0
H5011 H 0.73601 0.14626 0.09836 0.0
C5012 C 0.72454 0.2085 0.07698 0.0
C5013 C 0.73013 0.18876 0.07296 0.0
C5014 C 0.71326 0.20232 0.08441 0.0
C5015 C 0.70739 0.17633 0.08805 0.0
C5016 C 0.71235 0.15628 0.084 0.0
H5017 H 0.63816 0.10102 0.13285 0.0
H5018 H 0.65765 0.11084 0.11985 0.0
C5019 C 0.72367 0.16246 0.07657 0.0
C5020 C 0.69573 0.1701 0.09602 0.0
H5021 H 0.70975 0.15567 0.11406 0.0
C5022 C 0.66931 0.16927 0.09758 0.0
C5023 C 0.71053 0.16524 0.10206 0.0
C5024 C 0.73961 0.16706 0.10086 0.0
C5025 C 0.65711 0.16332 0.10496 0.0
C5026 C 0.67196 0.15858 0.11101 0.0
C5027 C 0.69833 0.15928 0.10944 0.0
C5028 C 0.66053 0.15293 0.119 0.0
C5029 C 0.62803 0.1615 0.10616 0.0
C5030 C 0.65612 0.1735 0.12295 0.0
C5031 C 0.64483 0.16789 0.13039 0.0
C5032 C 0.63778 0.14158 0.13409 0.0
C5033 C 0.64287 0.1213 0.13017 0.0
C5034 C 0.6542 0.12697 0.12273 0.0
H5035 H 0.61594 0.1577 0.10072 0.0
H5036 H 0.61426 0.14374 0.1102 0.0
H5037 H 0.63164 0.18238 0.1086 0.0
H5038 H 0.66135 0.19395 0.12027 0.0
H5039 H 0.64103 0.18396 0.13317 0.0
H5040 H 0.83518 0.47784 0.13575 0.0
H5041 H 0.82685 0.48899 0.12277 0.0
H5042 H 0.91929 0.53313 0.11842 0.0
H5043 H 0.92777 0.52136 0.13132 0.0
H5044 H 0.84708 0.54238 0.11545 0.0
H5045 H 0.8868 0.47647 0.10049 0.0
H5046 H 0.87884 0.47286 0.11057 0.0
H5047 H 0.91239 0.5028 0.10708 0.0
C5048 C 0.85377 0.4897 0.13202 0.0
C5049 C 0.88217 0.49848 0.13462 0.0
C5050 C 0.84897 0.49623 0.1246 0.0
C5051 C 0.87236 0.5115 0.11954 0.0
C5052 C 0.90078 0.52083 0.12214 0.0
H5053 H 0.88169 0.56453 0.07173 0.0
H5054 H 0.89287 0.55654 0.08476 0.0
C5055 C 0.90563 0.51438 0.12958 0.0
C5056 C 0.86696 0.51782 0.11158 0.0
H5057 H 0.87499 0.50571 0.09277 0.0
C5058 C 0.85313 0.53429 0.11049 0.0
C5059 C 0.87493 0.50742 0.10508 0.0
C5060 C 0.88883 0.48869 0.10583 0.0
C5061 C 0.84736 0.54088 0.10314 0.0
C5062 C 0.85502 0.53019 0.09664 0.0
C5063 C 0.86909 0.51394 0.09772 0.0
C5064 C 0.84817 0.53519 0.08869 0.0
C5065 C 0.83363 0.55977 0.10241 0.0
C5066 C 0.81927 0.52553 0.08646 0.0
C5067 C 0.81281 0.53025 0.07903 0.0
C5068 C 0.83505 0.54455 0.07356 0.0
C5069 C 0.86398 0.55383 0.07578 0.0
C5070 C 0.87042 0.5491 0.08323 0.0
H5071 H 0.83709 0.57306 0.10763 0.0
H5072 H 0.8426 0.57465 0.09744 0.0
H5073 H 0.80979 0.54566 0.10158 0.0
H5074 H 0.80158 0.5142 0.09048 0.0
H5075 H 0.79032 0.52301 0.07761 0.0
H5076 H 0.54852 0.36628 0.13523 0.0
H5077 H 0.53743 0.34631 0.12228 0.0
H5078 H 0.48958 0.39095 0.11809 0.0
H5079 H 0.50125 0.41171 0.13095 0.0
H5080 H 0.48393 0.31107 0.11512 0.0
H5081 H 0.54574 0.41681 0.10001 0.0
H5082 H 0.55011 0.41302 0.11008 0.0
H5083 H 0.51915 0.41501 0.10668 0.0
C5084 C 0.53584 0.37211 0.13155 0.0
C5085 C 0.526 0.39086 0.13417 0.0
C5086 C 0.52936 0.36049 0.12414 0.0
C5087 C 0.51306 0.36746 0.11913 0.0
C5088 C 0.50267 0.38565 0.12177 0.0
H5089 H 0.4589 0.32107 0.07148 0.0
H5090 H 0.46676 0.34049 0.08449 0.0
C5091 C 0.50908 0.39724 0.12919 0.0
C5092 C 0.50681 0.35547 0.11119 0.0
H5093 H 0.51747 0.37514 0.09236 0.0
C5094 C 0.49133 0.3251 0.11015 0.0
C5095 C 0.51632 0.3737 0.10467 0.0
C5096 C 0.53397 0.40644 0.10538 0.0
C5097 C 0.48486 0.31252 0.10281 0.0
C5098 C 0.49466 0.33073 0.09628 0.0
C5099 C 0.50992 0.36111 0.09733 0.0
C5100 C 0.48974 0.3187 0.08835 0.0
C5101 C 0.46701 0.27977 0.10213 0.0
C5102 C 0.50034 0.30026 0.08609 0.0
C5103 C 0.49569 0.28893 0.07866 0.0
C5104 C 0.48052 0.29593 0.07324 0.0
C5105 C 0.47029 0.31478 0.07549 0.0
C5106 C 0.47494 0.3261 0.08294 0.0
H5107 H 0.45409 0.26972 0.10738 0.0
H5108 H 0.45187 0.27316 0.09719 0.0
H5109 H 0.48185 0.2709 0.10126 0.0
H5110 H 0.51235 0.29465 0.09007 0.0
H5111 H 0.50368 0.2743 0.07721 0.0
H5112 H 0.42321 0.92473 0.91086 0.0
H5113 H 0.40279 0.91461 0.92376 0.0
H5114 H 0.34385 0.82533 0.91743 0.0
H5115 H 0.36407 0.83526 0.90452 0.0
H5116 H 0.34717 0.89511 0.92916 0.0
H5117 H 0.38207 0.81532 0.93633 0.0
H5118 H 0.3956 0.83863 0.92807 0.0
H5119 H 0.36031 0.80618 0.92785 0.0
C5120 C 0.40571 0.90298 0.91217 0.0
C5121 C 0.39549 0.88079 0.90661 0.0
C5122 C 0.39414 0.89719 0.91959 0.0
C5123 C 0.37214 0.86905 0.92165 0.0
C5124 C 0.36135 0.84704 0.91607 0.0
H5125 H 0.27263 0.78718 0.96275 0.0
H5126 H 0.29334 0.79937 0.94992 0.0
C5127 C 0.37294 0.85278 0.90866 0.0
C5128 C 0.3604 0.86279 0.92962 0.0
H5129 H 0.35 0.8193 0.94509 0.0
C5130 C 0.34795 0.87864 0.93266 0.0
C5131 C 0.36141 0.84134 0.93422 0.0
C5132 C 0.37581 0.82457 0.93149 0.0
C5133 C 0.33587 0.87316 0.94006 0.0
C5134 C 0.33666 0.85152 0.94463 0.0
C5135 C 0.34928 0.83581 0.9416 0.0
C5136 C 0.32414 0.84448 0.95251 0.0
C5137 C 0.32166 0.89004 0.94283 0.0
C5138 C 0.3347 0.86563 0.95832 0.0
C5139 C 0.32299 0.85866 0.96571 0.0
C5140 C 0.30053 0.83028 0.96751 0.0
C5141 C 0.29017 0.80914 0.96166 0.0
C5142 C 0.30189 0.81612 0.95428 0.0
H5143 H 0.31621 0.90018 0.93804 0.0
H5144 H 0.30141 0.87576 0.94607 0.0
H5145 H 0.3369 0.90774 0.94669 0.0
H5146 H 0.3523 0.8875 0.95716 0.0
H5147 H 0.3319 0.87544 0.97006 0.0
H5148 H 0.21267 0.5225 0.96944 0.0
H5149 H 0.20131 0.53136 0.95654 0.0
H5150 H 0.162 0.43976 0.95143 0.0
H5151 H 0.17332 0.43071 0.96431 0.0
H5152 H 0.21976 0.52189 0.94282 0.0
H5153 H 0.09914 0.45639 0.94422 0.0
H5154 H 0.1218 0.46582 0.95262 0.0
H5155 H 0.11704 0.43626 0.94659 0.0
C5156 C 0.2016 0.50418 0.96559 0.0
C5157 C 0.19387 0.47584 0.96797 0.0
C5158 C 0.195 0.50929 0.9582 0.0
C5159 C 0.18038 0.48621 0.953 0.0
C5160 C 0.17261 0.45789 0.95536 0.0
H5161 H 0.13037 0.47854 0.90497 0.0
H5162 H 0.13955 0.46722 0.91787 0.0
C5163 C 0.17914 0.45274 0.96275 0.0
C5164 C 0.17436 0.49204 0.94505 0.0
H5165 H 0.11985 0.47477 0.93205 0.0
C5166 C 0.19788 0.51166 0.94049 0.0
C5167 C 0.14584 0.47863 0.94195 0.0
C5168 C 0.11945 0.4583 0.94661 0.0
C5169 C 0.19376 0.51796 0.93294 0.0
C5170 C 0.16524 0.50472 0.92986 0.0
C5171 C 0.14172 0.48492 0.93439 0.0
C5172 C 0.15936 0.51158 0.92201 0.0
C5173 C 0.22014 0.53835 0.92828 0.0
C5174 C 0.16695 0.54019 0.92002 0.0
C5175 C 0.16162 0.54673 0.91266 0.0
C5176 C 0.1484 0.52479 0.90707 0.0
C5177 C 0.1404 0.49602 0.90911 0.0
C5178 C 0.14574 0.4895 0.91649 0.0
H5179 H 0.24042 0.54008 0.93063 0.0
H5180 H 0.2177 0.53102 0.92226 0.0
H5181 H 0.22268 0.56044 0.92838 0.0
H5182 H 0.17677 0.55753 0.92421 0.0
H5183 H 0.16747 0.569 0.9114 0.0
H5184 H 0.51382 0.67411 0.90341 0.0
H5185 H 0.52422 0.69611 0.91615 0.0
H5186 H 0.50482 0.61387 0.926 0.0
H5187 H 0.49411 0.59163 0.91333 0.0
H5188 H 0.48785 0.6811 0.92886 0.0
H5189 H 0.58404 0.66961 0.93538 0.0
H5190 H 0.56947 0.66536 0.92586 0.0
H5191 H 0.55222 0.63616 0.93265 0.0
C5192 C 0.51166 0.66062 0.90828 0.0
C5193 C 0.50327 0.63104 0.90729 0.0
C5194 C 0.51776 0.6733 0.91557 0.0
C5195 C 0.5158 0.65683 0.92205 0.0
C5196 C 0.50723 0.62729 0.92109 0.0
H5197 H 0.54029 0.69142 0.97101 0.0
H5198 H 0.53025 0.66972 0.95825 0.0
C5199 C 0.50113 0.61458 0.91381 0.0
C5200 C 0.52182 0.67027 0.92982 0.0
H5201 H 0.56488 0.68439 0.9456 0.0
C5202 C 0.50481 0.68196 0.9325 0.0
C5203 C 0.54385 0.67131 0.93461 0.0
C5204 C 0.56365 0.66019 0.93197 0.0
C5205 C 0.50881 0.6941 0.93986 0.0
C5206 C 0.5309 0.69523 0.94465 0.0
C5207 C 0.54792 0.68354 0.94196 0.0
C5208 C 0.53679 0.70853 0.95245 0.0
C5209 C 0.48874 0.70488 0.94251 0.0
C5210 C 0.54416 0.73773 0.95348 0.0
C5211 C 0.5496 0.75015 0.96079 0.0
C5212 C 0.54816 0.7338 0.96728 0.0
C5213 C 0.54116 0.70463 0.9662 0.0
C5214 C 0.53563 0.69221 0.95888 0.0
H5215 H 0.46813 0.69487 0.93918 0.0
H5216 H 0.48329 0.7001 0.94865 0.0
H5217 H 0.4997 0.72883 0.9417 0.0
H5218 H 0.54585 0.75106 0.94861 0.0
H5219 H 0.55463 0.77254 0.96134 0.0
H5220 H 0.27616 0.49521 0.46332 0.0
H5221 H 0.29668 0.50415 0.45046 0.0
H5222 H 0.34851 0.46542 0.45662 0.0
H5223 H 0.32835 0.45666 0.46955 0.0
H5224 H 0.35426 0.53703 0.44568 0.0
H5225 H 0.30856 0.4214 0.43708 0.0
H5226 H 0.2959 0.43203 0.44539 0.0
H5227 H 0.32943 0.43129 0.44575 0.0
C5228 C 0.29212 0.48879 0.46199 0.0
C5229 C 0.30051 0.47516 0.46754 0.0
C5230 C 0.30372 0.49377 0.45459 0.0
C5231 C 0.32385 0.4851 0.4525 0.0
C5232 C 0.33251 0.47173 0.45802 0.0
H5233 H 0.41815 0.49952 0.4102 0.0
H5234 H 0.39796 0.48908 0.42312 0.0
C5235 C 0.32094 0.46674 0.46543 0.0
C5236 C 0.33616 0.49068 0.44459 0.0
H5237 H 0.34179 0.4571 0.4285 0.0
C5238 C 0.35144 0.51952 0.44192 0.0
C5239 C 0.33263 0.4679 0.43967 0.0
C5240 C 0.31553 0.43638 0.44207 0.0
C5241 C 0.36355 0.52624 0.43453 0.0
C5242 C 0.3598 0.50345 0.42958 0.0
C5243 C 0.34468 0.4746 0.43227 0.0
C5244 C 0.37138 0.50911 0.42159 0.0
C5245 C 0.38087 0.55782 0.43219 0.0
C5246 C 0.36275 0.52329 0.41631 0.0
C5247 C 0.37422 0.52924 0.40889 0.0
C5248 C 0.39444 0.52094 0.40652 0.0
C5249 C 0.40245 0.50604 0.41176 0.0
C5250 C 0.39101 0.50016 0.41919 0.0
H5251 H 0.3887 0.57258 0.43721 0.0
H5252 H 0.39999 0.56198 0.42865 0.0
H5253 H 0.36678 0.56343 0.42876 0.0
H5254 H 0.34704 0.52973 0.41792 0.0
H5255 H 0.36705 0.54022 0.40499 0.0
H5256 H 0.53201 0.92348 0.40995 0.0
H5257 H 0.54382 0.91408 0.42276 0.0
H5258 H 0.49186 0.8216 0.41879 0.0
H5259 H 0.4806 0.83076 0.40592 0.0
H5260 H 0.50589 0.88453 0.43475 0.0
H5261 H 0.56793 0.82973 0.42674 0.0
H5262 H 0.5598 0.85041 0.42 0.0
H5263 H 0.53247 0.8138 0.42245 0.0
C5264 C 0.52348 0.90111 0.41174 0.0
C5265 C 0.50541 0.8779 0.40684 0.0
C5266 C 0.53009 0.89578 0.4191 0.0
C5267 C 0.51906 0.86712 0.42174 0.0
C5268 C 0.50109 0.8439 0.41687 0.0
H5269 H 0.52526 0.78496 0.46401 0.0
H5270 H 0.51628 0.7967 0.45119 0.0
C5271 C 0.4944 0.84921 0.40952 0.0
C5272 C 0.52551 0.8615 0.42965 0.0
H5273 H 0.55491 0.82735 0.43981 0.0
C5274 C 0.5168 0.8722 0.43585 0.0
C5275 C 0.5397 0.84537 0.43112 0.0
C5276 C 0.55078 0.83437 0.42473 0.0
C5277 C 0.52116 0.86658 0.44345 0.0
C5278 C 0.53518 0.85027 0.44492 0.0
C5279 C 0.54411 0.83978 0.43871 0.0
C5280 C 0.54041 0.84342 0.45284 0.0
C5281 C 0.50987 0.87742 0.44983 0.0
C5282 C 0.55719 0.86572 0.45808 0.0
C5283 C 0.56215 0.85906 0.46547 0.0
C5284 C 0.5506 0.82989 0.46782 0.0
C5285 C 0.53404 0.80764 0.46251 0.0
C5286 C 0.52909 0.81433 0.45513 0.0
H5287 H 0.493 0.88241 0.44778 0.0
H5288 H 0.50041 0.86113 0.45449 0.0
H5289 H 0.52816 0.89776 0.45222 0.0
H5290 H 0.56671 0.88836 0.45643 0.0
H5291 H 0.57486 0.87681 0.46938 0.0
H5292 H 0.16855 0.74318 0.46468 0.0
H5293 H 0.15694 0.72226 0.45183 0.0
H5294 H 0.20676 0.6796 0.45592 0.0
H5295 H 0.21784 0.69977 0.46884 0.0
H5296 H 0.1951 0.72975 0.43992 0.0
H5297 H 0.13003 0.61297 0.44775 0.0
H5298 H 0.13862 0.64192 0.45451 0.0
H5299 H 0.16537 0.63175 0.45214 0.0
C5300 C 0.17666 0.72895 0.46291 0.0
C5301 C 0.19406 0.72311 0.46786 0.0
C5302 C 0.17017 0.71717 0.45552 0.0
C5303 C 0.18063 0.69901 0.4529 0.0
C5304 C 0.19797 0.6931 0.45782 0.0
H5305 H 0.17206 0.60928 0.41053 0.0
H5306 H 0.18151 0.63001 0.42337 0.0
C5307 C 0.20456 0.70495 0.4652 0.0
C5308 C 0.17422 0.68703 0.44496 0.0
H5309 H 0.14343 0.62349 0.43472 0.0
C5310 C 0.18363 0.70651 0.43878 0.0
C5311 C 0.1593 0.65669 0.44345 0.0
C5312 C 0.14748 0.63457 0.44981 0.0
C5313 C 0.17922 0.69657 0.43117 0.0
C5314 C 0.16442 0.66621 0.42965 0.0
C5315 C 0.15483 0.64674 0.43584 0.0
C5316 C 0.15898 0.65417 0.42171 0.0
C5317 C 0.19129 0.71875 0.42483 0.0
C5318 C 0.14293 0.66056 0.41646 0.0
C5319 C 0.13772 0.64893 0.40904 0.0
C5320 C 0.14824 0.63041 0.4067 0.0
C5321 C 0.16407 0.62387 0.41202 0.0
C5322 C 0.1693 0.63553 0.41942 0.0
H5323 H 0.20867 0.74033 0.42691 0.0
H5324 H 0.20033 0.71145 0.42016 0.0
H5325 H 0.1735 0.72163 0.42244 0.0
H5326 H 0.13416 0.67436 0.4181 0.0
H5327 H 0.12558 0.65466 0.40513 0.0
loop_
_geom_bond_atom_site_label_1
_geom_bond_atom_site_label_2
_geom_bond_distance
_geom_bond_site_symmetry_2
_ccdc_geom_bond_type
La0 C2 2.928 . S
La0 O20 2.521 . S
La0 O21 2.628 . S
La0 O22 2.554 . S
La0 O23 2.757 . S
La0 O24 2.470 . S
La0 O29 2.482 . S
La0 O31 2.503 . S
La1 C11 2.928 . S
La1 O23 2.482 . S
La1 O25 2.503 . S
La1 O26 2.521 . S
La1 O27 2.628 . S
La1 O28 2.554 . S
La1 O29 2.757 . S
La1 O30 2.470 . S
C2 La0 2.928 . S
C2 C3 1.503 . S
C2 O20 1.261 . S
C2 O21 1.243 . S
C3 C2 1.503 . S
C3 C4 1.394 . S
C3 C8 1.373 . S
C4 C3 1.394 . S
C4 C5 1.380 . S
C4 H32 0.930 . S
C5 C4 1.380 . S
C5 C6 1.376 . S
C5 H33 0.930 . S
C6 C5 1.376 . S
C6 C7 1.370 . S
C7 C6 1.370 . S
C7 C8 1.396 . S
C7 H34 0.929 . S
C8 C3 1.373 . S
C8 C7 1.396 . S
C8 H35 0.929 . S
C9 O22 1.240 . S
C9 O23 1.289 . S
C10 O24 1.258 . S
C10 O25 1.256 . S
C11 La1 2.928 . S
C11 C12 1.503 . S
C11 O26 1.261 . S
C11 O27 1.243 . S
C12 C11 1.503 . S
C12 C13 1.394 . S
C12 C17 1.373 . S
C13 C12 1.394 . S
C13 C14 1.380 . S
C13 H36 0.930 . S
C14 C13 1.380 . S
C14 C15 1.376 . S
C14 H37 0.930 . S
C15 C14 1.376 . S
C15 C16 1.370 . S
C16 C15 1.370 . S
C16 C17 1.396 . S
C16 H38 0.929 . S
C17 C12 1.373 . S
C17 C16 1.396 . S
C17 H39 0.929 . S
C18 O28 1.240 . S
C18 O29 1.289 . S
C19 O30 1.258 . S
C19 O31 1.256 . S
O20 La0 2.521 . S
O20 C2 1.261 . S
O21 La0 2.628 . S
O21 C2 1.243 . S
O22 La0 2.554 . S
O22 C9 1.240 . S
O23 La0 2.757 . S
O23 La1 2.482 . S
O23 C9 1.289 . S
O24 La0 2.470 . S
O24 C10 1.258 . S
O25 La1 2.503 . S
O25 C10 1.256 . S
O26 La1 2.521 . S
O26 C11 1.261 . S
O27 La1 2.628 . S
O27 C11 1.243 . S
O28 La1 2.554 . S
O28 C18 1.240 . S
O29 La0 2.482 . S
O29 La1 2.757 . S
O29 C18 1.289 . S
O30 La1 2.470 . S
O30 C19 1.258 . S
O31 La0 2.503 . S
O31 C19 1.256 . S
H32 C4 0.930 . S
H33 C5 0.930 . S
H34 C7 0.929 . S
H35 C8 0.929 . S
H36 C13 0.930 . S
H37 C14 0.930 . S
H38 C16 0.929 . S
H39 C17 0.929 . S
La40 C42 2.928 . S
La40 O60 2.521 . S
La40 O61 2.628 . S
La40 O62 2.554 . S
La40 O63 2.757 . S
La40 O64 2.470 . S
La40 O69 2.482 . S
La40 O71 2.503 . S
La41 C51 2.928 . S
La41 O63 2.482 . S
La41 O65 2.503 . S
La41 O66 2.521 . S
La41 O67 2.628 . S
La41 O68 2.554 . S
La41 O69 2.757 . S
La41 O70 2.470 . S
C42 La40 2.928 . S
C42 C43 1.503 . S
C42 O60 1.261 . S
C42 O61 1.243 . S
C43 C42 1.503 . S
C43 C44 1.394 . S
C43 C48 1.373 . S
C44 C43 1.394 . S
C44 C45 1.380 . S
C44 H72 0.930 . S
C45 C44 1.380 . S
C45 C46 1.376 . S
C45 H73 0.930 . S
C46 C45 1.376 . S
C46 C47 1.370 . S
C47 C46 1.370 . S
C47 C48 1.396 . S
C47 H74 0.929 . S
C48 C43 1.373 . S
C48 C47 1.396 . S
C48 H75 0.929 . S
C49 O62 1.240 . S
C49 O63 1.289 . S
C50 O64 1.258 . S
C50 O65 1.256 . S
C51 La41 2.928 . S
C51 C52 1.503 . S
C51 O66 1.261 . S
C51 O67 1.243 . S
C52 C51 1.503 . S
C52 C53 1.394 . S
C52 C57 1.373 . S
C53 C52 1.394 . S
C53 C54 1.380 . S
C53 H76 0.930 . S
C54 C53 1.380 . S
C54 C55 1.376 . S
C54 H77 0.930 . S
C55 C54 1.376 . S
C55 C56 1.370 . S
C56 C55 1.370 . S
C56 C57 1.396 . S
C56 H78 0.929 . S
C57 C52 1.373 . S
C57 C56 1.396 . S
C57 H79 0.929 . S
C58 O68 1.240 . S
C58 O69 1.289 . S
C59 O70 1.258 . S
C59 O71 1.256 . S
O60 La40 2.521 . S
O60 C42 1.261 . S
O61 La40 2.628 . S
O61 C42 1.243 . S
O62 La40 2.554 . S
O62 C49 1.240 . S
O63 La40 2.757 . S
O63 La41 2.482 . S
O63 C49 1.289 . S
O64 La40 2.470 . S
O64 C50 1.258 . S
O65 La41 2.503 . S
O65 C50 1.256 . S
O66 La41 2.521 . S
O66 C51 1.261 . S
O67 La41 2.628 . S
O67 C51 1.243 . S
O68 La41 2.554 . S
O68 C58 1.240 . S
O69 La40 2.482 . S
O69 La41 2.757 . S
O69 C58 1.289 . S
O70 La41 2.470 . S
O70 C59 1.258 . S
O71 La40 2.503 . S
O71 C59 1.256 . S
H72 C44 0.930 . S
H73 C45 0.930 . S
H74 C47 0.929 . S
H75 C48 0.929 . S
H76 C53 0.930 . S
H77 C54 0.930 . S
H78 C56 0.929 . S
H79 C57 0.929 . S
La80 C82 2.928 . S
La80 O100 2.521 . S
La80 O101 2.628 . S
La80 O102 2.554 . S
La80 O103 2.757 . S
La80 O104 2.470 . S
La80 O109 2.482 . S
La80 O111 2.503 . S
La81 C91 2.928 . S
La81 O103 2.482 . S
La81 O105 2.503 . S
La81 O106 2.521 . S
La81 O107 2.628 . S
La81 O108 2.554 . S
La81 O109 2.757 . S
La81 O110 2.470 . S
C82 La80 2.928 . S
C82 C83 1.503 . S
C82 O100 1.261 . S
C82 O101 1.243 . S
C83 C82 1.503 . S
C83 C84 1.394 . S
C83 C88 1.373 . S
C84 C83 1.394 . S
C84 C85 1.380 . S
C84 H112 0.930 . S
C85 C84 1.380 . S
C85 C86 1.376 . S
C85 H113 0.930 . S
C86 C85 1.376 . S
C86 C87 1.370 . S
C87 C86 1.370 . S
C87 C88 1.396 . S
C87 H114 0.929 . S
C88 C83 1.373 . S
C88 C87 1.396 . S
C88 H115 0.929 . S
C89 O102 1.240 . S
C89 O103 1.289 . S
C90 O104 1.258 . S
C90 O105 1.256 . S
C91 La81 2.928 . S
C91 C92 1.503 . S
C91 O106 1.261 . S
C91 O107 1.243 . S
C92 C91 1.503 . S
C92 C93 1.394 . S
C92 C97 1.373 . S
C93 C92 1.394 . S
C93 C94 1.380 . S
C93 H116 0.930 . S
C94 C93 1.380 . S
C94 C95 1.376 . S
C94 H117 0.930 . S
C95 C94 1.376 . S
C95 C96 1.370 . S
C96 C95 1.370 . S
C96 C97 1.396 . S
C96 H118 0.929 . S
C97 C92 1.373 . S
C97 C96 1.396 . S
C97 H119 0.929 . S
C98 O108 1.240 . S
C98 O109 1.289 . S
C99 O110 1.258 . S
C99 O111 1.256 . S
O100 La80 2.521 . S
O100 C82 1.261 . S
O101 La80 2.628 . S
O101 C82 1.243 . S
O102 La80 2.554 . S
O102 C89 1.240 . S
O103 La80 2.757 . S
O103 La81 2.482 . S
O103 C89 1.289 . S
O104 La80 2.470 . S
O104 C90 1.258 . S
O105 La81 2.503 . S
O105 C90 1.256 . S
O106 La81 2.521 . S
O106 C91 1.261 . S
O107 La81 2.628 . S
O107 C91 1.243 . S
O108 La81 2.554 . S
O108 C98 1.240 . S
O109 La80 2.482 . S
O109 La81 2.757 . S
O109 C98 1.289 . S
O110 La81 2.470 . S
O110 C99 1.258 . S
O111 La80 2.503 . S
O111 C99 1.256 . S
H112 C84 0.930 . S
H113 C85 0.930 . S
H114 C87 0.929 . S
H115 C88 0.929 . S
H116 C93 0.930 . S
H117 C94 0.930 . S
H118 C96 0.929 . S
H119 C97 0.929 . S
La120 C122 2.928 . S
La120 O140 2.521 . S
La120 O141 2.628 . S
La120 O142 2.554 . S
La120 O143 2.757 . S
La120 O144 2.470 . S
La120 O149 2.482 . S
La120 O151 2.503 . S
La121 C131 2.928 . S
La121 O143 2.482 . S
La121 O145 2.503 . S
La121 O146 2.521 . S
La121 O147 2.628 . S
La121 O148 2.554 . S
La121 O149 2.757 . S
La121 O150 2.470 . S
C122 La120 2.928 . S
C122 C123 1.503 . S
C122 O140 1.261 . S
C122 O141 1.243 . S
C123 C122 1.503 . S
C123 C124 1.394 . S
C123 C128 1.373 . S
C124 C123 1.394 . S
C124 C125 1.380 . S
C124 H152 0.930 . S
C125 C124 1.380 . S
C125 C126 1.376 . S
C125 H153 0.930 . S
C126 C125 1.376 . S
C126 C127 1.370 . S
C127 C126 1.370 . S
C127 C128 1.396 . S
C127 H154 0.929 . S
C128 C123 1.373 . S
C128 C127 1.396 . S
C128 H155 0.929 . S
C129 O142 1.240 . S
C129 O143 1.289 . S
C130 O144 1.258 . S
C130 O145 1.256 . S
C131 La121 2.928 . S
C131 C132 1.503 . S
C131 O146 1.261 . S
C131 O147 1.243 . S
C132 C131 1.503 . S
C132 C133 1.394 . S
C132 C137 1.373 . S
C133 C132 1.394 . S
C133 C134 1.380 . S
C133 H156 0.930 . S
C134 C133 1.380 . S
C134 C135 1.376 . S
C134 H157 0.930 . S
C135 C134 1.376 . S
C135 C136 1.370 . S
C136 C135 1.370 . S
C136 C137 1.396 . S
C136 H158 0.929 . S
C137 C132 1.373 . S
C137 C136 1.396 . S
C137 H159 0.929 . S
C138 O148 1.240 . S
C138 O149 1.289 . S
C139 O150 1.258 . S
C139 O151 1.256 . S
O140 La120 2.521 . S
O140 C122 1.261 . S
O141 La120 2.628 . S
O141 C122 1.243 . S
O142 La120 2.554 . S
O142 C129 1.240 . S
O143 La120 2.757 . S
O143 La121 2.482 . S
O143 C129 1.289 . S
O144 La120 2.470 . S
O144 C130 1.258 . S
O145 La121 2.503 . S
O145 C130 1.256 . S
O146 La121 2.521 . S
O146 C131 1.261 . S
O147 La121 2.628 . S
O147 C131 1.243 . S
O148 La121 2.554 . S
O148 C138 1.240 . S
O149 La120 2.482 . S
O149 La121 2.757 . S
O149 C138 1.289 . S
O150 La121 2.470 . S
O150 C139 1.258 . S
O151 La120 2.503 . S
O151 C139 1.256 . S
H152 C124 0.930 . S
H153 C125 0.930 . S
H154 C127 0.929 . S
H155 C128 0.929 . S
H156 C133 0.930 . S
H157 C134 0.930 . S
H158 C136 0.929 . S
H159 C137 0.929 . S
La160 C162 2.928 . S
La160 O180 2.521 . S
La160 O181 2.628 . S
La160 O182 2.554 . S
La160 O183 2.757 . S
La160 O184 2.470 . S
La160 O189 2.482 . S
La160 O191 2.503 . S
La161 C171 2.928 . S
La161 O183 2.482 . S
La161 O185 2.503 . S
La161 O186 2.521 . S
La161 O187 2.628 . S
La161 O188 2.554 . S
La161 O189 2.757 . S
La161 O190 2.470 . S
C162 La160 2.928 . S
C162 C163 1.503 . S
C162 O180 1.261 . S
C162 O181 1.243 . S
C163 C162 1.503 . S
C163 C164 1.394 . S
C163 C168 1.373 . S
C164 C163 1.394 . S
C164 C165 1.380 . S
C164 H192 0.930 . S
C165 C164 1.380 . S
C165 C166 1.376 . S
C165 H193 0.930 . S
C166 C165 1.376 . S
C166 C167 1.370 . S
C167 C166 1.370 . S
C167 C168 1.396 . S
C167 H194 0.929 . S
C168 C163 1.373 . S
C168 C167 1.396 . S
C168 H195 0.929 . S
C169 O182 1.240 . S
C169 O183 1.289 . S
C170 O184 1.258 . S
C170 O185 1.256 . S
C171 La161 2.928 . S
C171 C172 1.503 . S
C171 O186 1.261 . S
C171 O187 1.243 . S
C172 C171 1.503 . S
C172 C173 1.394 . S
C172 C177 1.373 . S
C173 C172 1.394 . S
C173 C174 1.380 . S
C173 H196 0.930 . S
C174 C173 1.380 . S
C174 C175 1.376 . S
C174 H197 0.930 . S
C175 C174 1.376 . S
C175 C176 1.370 . S
C176 C175 1.370 . S
C176 C177 1.396 . S
C176 H198 0.929 . S
C177 C172 1.373 . S
C177 C176 1.396 . S
C177 H199 0.929 . S
C178 O188 1.240 . S
C178 O189 1.289 . S
C179 O190 1.258 . S
C179 O191 1.256 . S
O180 La160 2.521 . S
O180 C162 1.261 . S
O181 La160 2.628 . S
O181 C162 1.243 . S
O182 La160 2.554 . S
O182 C169 1.240 . S
O183 La160 2.757 . S
O183 La161 2.482 . S
O183 C169 1.289 . S
O184 La160 2.470 . S
O184 C170 1.258 . S
O185 La161 2.503 . S
O185 C170 1.256 . S
O186 La161 2.521 . S
O186 C171 1.261 . S
O187 La161 2.628 . S
O187 C171 1.243 . S
O188 La161 2.554 . S
O188 C178 1.240 . S
O189 La160 2.482 . S
O189 La161 2.757 . S
O189 C178 1.289 . S
O190 La161 2.470 . S
O190 C179 1.258 . S
O191 La160 2.503 . S
O191 C179 1.256 . S
H192 C164 0.930 . S
H193 C165 0.930 . S
H194 C167 0.929 . S
H195 C168 0.929 . S
H196 C173 0.930 . S
H197 C174 0.930 . S
H198 C176 0.929 . S
H199 C177 0.929 . S
La200 C202 2.928 . S
La200 O220 2.521 . S
La200 O221 2.628 . S
La200 O222 2.554 . S
La200 O223 2.757 . S
La200 O224 2.470 . S
La200 O229 2.482 . S
La200 O231 2.503 . S
La201 C211 2.928 . S
La201 O223 2.482 . S
La201 O225 2.503 . S
La201 O226 2.521 . S
La201 O227 2.628 . S
La201 O228 2.554 . S
La201 O229 2.757 . S
La201 O230 2.470 . S
C202 La200 2.928 . S
C202 C203 1.503 . S
C202 O220 1.261 . S
C202 O221 1.243 . S
C203 C202 1.503 . S
C203 C204 1.394 . S
C203 C208 1.373 . S
C204 C203 1.394 . S
C204 C205 1.380 . S
C204 H232 0.930 . S
C205 C204 1.380 . S
C205 C206 1.376 . S
C205 H233 0.930 . S
C206 C205 1.376 . S
C206 C207 1.370 . S
C207 C206 1.370 . S
C207 C208 1.396 . S
C207 H234 0.929 . S
C208 C203 1.373 . S
C208 C207 1.396 . S
C208 H235 0.929 . S
C209 O222 1.240 . S
C209 O223 1.289 . S
C210 O224 1.258 . S
C210 O225 1.256 . S
C211 La201 2.928 . S
C211 C212 1.503 . S
C211 O226 1.261 . S
C211 O227 1.243 . S
C212 C211 1.503 . S
C212 C213 1.394 . S
C212 C217 1.373 . S
C213 C212 1.394 . S
C213 C214 1.380 . S
C213 H236 0.930 . S
C214 C213 1.380 . S
C214 C215 1.376 . S
C214 H237 0.930 . S
C215 C214 1.376 . S
C215 C216 1.370 . S
C216 C215 1.370 . S
C216 C217 1.396 . S
C216 H238 0.929 . S
C217 C212 1.373 . S
C217 C216 1.396 . S
C217 H239 0.929 . S
C218 O228 1.240 . S
C218 O229 1.289 . S
C219 O230 1.258 . S
C219 O231 1.256 . S
O220 La200 2.521 . S
O220 C202 1.261 . S
O221 La200 2.628 . S
O221 C202 1.243 . S
O222 La200 2.554 . S
O222 C209 1.240 . S
O223 La200 2.757 . S
O223 La201 2.482 . S
O223 C209 1.289 . S
O224 La200 2.470 . S
O224 C210 1.258 . S
O225 La201 2.503 . S
O225 C210 1.256 . S
O226 La201 2.521 . S
O226 C211 1.261 . S
O227 La201 2.628 . S
O227 C211 1.243 . S
O228 La201 2.554 . S
O228 C218 1.240 . S
O229 La200 2.482 . S
O229 La201 2.757 . S
O229 C218 1.289 . S
O230 La201 2.470 . S
O230 C219 1.258 . S
O231 La200 2.503 . S
O231 C219 1.256 . S
H232 C204 0.930 . S
H233 C205 0.930 . S
H234 C207 0.929 . S
H235 C208 0.929 . S
H236 C213 0.930 . S
H237 C214 0.930 . S
H238 C216 0.929 . S
H239 C217 0.929 . S
La240 C242 2.928 . S
La240 O260 2.521 . S
La240 O261 2.628 . S
La240 O262 2.554 . S
La240 O263 2.757 . S
La240 O264 2.470 . S
La240 O269 2.482 . S
La240 O271 2.503 . S
La241 C251 2.928 . S
La241 O263 2.482 . S
La241 O265 2.503 . S
La241 O266 2.521 . S
La241 O267 2.628 . S
La241 O268 2.554 . S
La241 O269 2.757 . S
La241 O270 2.470 . S
C242 La240 2.928 . S
C242 C243 1.503 . S
C242 O260 1.261 . S
C242 O261 1.243 . S
C243 C242 1.503 . S
C243 C244 1.394 . S
C243 C248 1.373 . S
C244 C243 1.394 . S
C244 C245 1.380 . S
C244 H272 0.930 . S
C245 C244 1.380 . S
C245 C246 1.376 . S
C245 H273 0.930 . S
C246 C245 1.376 . S
C246 C247 1.370 . S
C247 C246 1.370 . S
C247 C248 1.396 . S
C247 H274 0.929 . S
C248 C243 1.373 . S
C248 C247 1.396 . S
C248 H275 0.929 . S
C249 O262 1.240 . S
C249 O263 1.289 . S
C250 O264 1.258 . S
C250 O265 1.256 . S
C251 La241 2.928 . S
C251 C252 1.503 . S
C251 O266 1.261 . S
C251 O267 1.243 . S
C252 C251 1.503 . S
C252 C253 1.394 . S
C252 C257 1.373 . S
C253 C252 1.394 . S
C253 C254 1.380 . S
C253 H276 0.930 . S
C254 C253 1.380 . S
C254 C255 1.376 . S
C254 H277 0.930 . S
C255 C254 1.376 . S
C255 C256 1.370 . S
C256 C255 1.370 . S
C256 C257 1.396 . S
C256 H278 0.929 . S
C257 C252 1.373 . S
C257 C256 1.396 . S
C257 H279 0.929 . S
C258 O268 1.240 . S
C258 O269 1.289 . S
C259 O270 1.258 . S
C259 O271 1.256 . S
O260 La240 2.521 . S
O260 C242 1.261 . S
O261 La240 2.628 . S
O261 C242 1.243 . S
O262 La240 2.554 . S
O262 C249 1.240 . S
O263 La240 2.757 . S
O263 La241 2.482 . S
O263 C249 1.289 . S
O264 La240 2.470 . S
O264 C250 1.258 . S
O265 La241 2.503 . S
O265 C250 1.256 . S
O266 La241 2.521 . S
O266 C251 1.261 . S
O267 La241 2.628 . S
O267 C251 1.243 . S
O268 La241 2.554 . S
O268 C258 1.240 . S
O269 La240 2.482 . S
O269 La241 2.757 . S
O269 C258 1.289 . S
O270 La241 2.470 . S
O270 C259 1.258 . S
O271 La240 2.503 . S
O271 C259 1.256 . S
H272 C244 0.930 . S
H273 C245 0.930 . S
H274 C247 0.929 . S
H275 C248 0.929 . S
H276 C253 0.930 . S
H277 C254 0.930 . S
H278 C256 0.929 . S
H279 C257 0.929 . S
La280 C282 2.928 . S
La280 O300 2.521 . S
La280 O301 2.628 . S
La280 O302 2.554 . S
La280 O303 2.757 . S
La280 O304 2.470 . S
La280 O309 2.482 . S
La280 O311 2.503 . S
La281 C291 2.928 . S
La281 O303 2.482 . S
La281 O305 2.503 . S
La281 O306 2.521 . S
La281 O307 2.628 . S
La281 O308 2.554 . S
La281 O309 2.757 . S
La281 O310 2.470 . S
C282 La280 2.928 . S
C282 C283 1.503 . S
C282 O300 1.261 . S
C282 O301 1.243 . S
C283 C282 1.503 . S
C283 C284 1.394 . S
C283 C288 1.373 . S
C284 C283 1.394 . S
C284 C285 1.380 . S
C284 H312 0.930 . S
C285 C284 1.380 . S
C285 C286 1.376 . S
C285 H313 0.930 . S
C286 C285 1.376 . S
C286 C287 1.370 . S
C287 C286 1.370 . S
C287 C288 1.396 . S
C287 H314 0.929 . S
C288 C283 1.373 . S
C288 C287 1.396 . S
C288 H315 0.929 . S
C289 O302 1.240 . S
C289 O303 1.289 . S
C290 O304 1.258 . S
C290 O305 1.256 . S
C291 La281 2.928 . S
C291 C292 1.503 . S
C291 O306 1.261 . S
C291 O307 1.243 . S
C292 C291 1.503 . S
C292 C293 1.394 . S
C292 C297 1.373 . S
C293 C292 1.394 . S
C293 C294 1.380 . S
C293 H316 0.930 . S
C294 C293 1.380 . S
C294 C295 1.376 . S
C294 H317 0.930 . S
C295 C294 1.376 . S
C295 C296 1.370 . S
C296 C295 1.370 . S
C296 C297 1.396 . S
C296 H318 0.929 . S
C297 C292 1.373 . S
C297 C296 1.396 . S
C297 H319 0.929 . S
C298 O308 1.240 . S
C298 O309 1.289 . S
C299 O310 1.258 . S
C299 O311 1.256 . S
O300 La280 2.521 . S
O300 C282 1.261 . S
O301 La280 2.628 . S
O301 C282 1.243 . S
O302 La280 2.554 . S
O302 C289 1.240 . S
O303 La280 2.757 . S
O303 La281 2.482 . S
O303 C289 1.289 . S
O304 La280 2.470 . S
O304 C290 1.258 . S
O305 La281 2.503 . S
O305 C290 1.256 . S
O306 La281 2.521 . S
O306 C291 1.261 . S
O307 La281 2.628 . S
O307 C291 1.243 . S
O308 La281 2.554 . S
O308 C298 1.240 . S
O309 La280 2.482 . S
O309 La281 2.757 . S
O309 C298 1.289 . S
O310 La281 2.470 . S
O310 C299 1.258 . S
O311 La280 2.503 . S
O311 C299 1.256 . S
H312 C284 0.930 . S
H313 C285 0.930 . S
H314 C287 0.929 . S
H315 C288 0.929 . S
H316 C293 0.930 . S
H317 C294 0.930 . S
H318 C296 0.929 . S
H319 C297 0.929 . S
La320 C322 2.928 . S
La320 O340 2.521 . S
La320 O341 2.628 . S
La320 O342 2.554 . S
La320 O343 2.757 . S
La320 O344 2.470 . S
La320 O349 2.482 . S
La320 O351 2.503 . S
La321 C331 2.928 . S
La321 O343 2.482 . S
La321 O345 2.503 . S
La321 O346 2.521 . S
La321 O347 2.628 . S
La321 O348 2.554 . S
La321 O349 2.757 . S
La321 O350 2.470 . S
C322 La320 2.928 . S
C322 C323 1.503 . S
C322 O340 1.261 . S
C322 O341 1.243 . S
C323 C322 1.503 . S
C323 C324 1.394 . S
C323 C328 1.373 . S
C324 C323 1.394 . S
C324 C325 1.380 . S
C324 H352 0.930 . S
C325 C324 1.380 . S
C325 C326 1.376 . S
C325 H353 0.930 . S
C326 C325 1.376 . S
C326 C327 1.370 . S
C327 C326 1.370 . S
C327 C328 1.396 . S
C327 H354 0.929 . S
C328 C323 1.373 . S
C328 C327 1.396 . S
C328 H355 0.929 . S
C329 O342 1.240 . S
C329 O343 1.289 . S
C330 O344 1.258 . S
C330 O345 1.256 . S
C331 La321 2.928 . S
C331 C332 1.503 . S
C331 O346 1.261 . S
C331 O347 1.243 . S
C332 C331 1.503 . S
C332 C333 1.394 . S
C332 C337 1.373 . S
C333 C332 1.394 . S
C333 C334 1.380 . S
C333 H356 0.930 . S
C334 C333 1.380 . S
C334 C335 1.376 . S
C334 H357 0.930 . S
C335 C334 1.376 . S
C335 C336 1.370 . S
C336 C335 1.370 . S
C336 C337 1.396 . S
C336 H358 0.929 . S
C337 C332 1.373 . S
C337 C336 1.396 . S
C337 H359 0.929 . S
C338 O348 1.240 . S
C338 O349 1.289 . S
C339 O350 1.258 . S
C339 O351 1.256 . S
O340 La320 2.521 . S
O340 C322 1.261 . S
O341 La320 2.628 . S
O341 C322 1.243 . S
O342 La320 2.554 . S
O342 C329 1.240 . S
O343 La320 2.757 . S
O343 La321 2.482 . S
O343 C329 1.289 . S
O344 La320 2.470 . S
O344 C330 1.258 . S
O345 La321 2.503 . S
O345 C330 1.256 . S
O346 La321 2.521 . S
O346 C331 1.261 . S
O347 La321 2.628 . S
O347 C331 1.243 . S
O348 La321 2.554 . S
O348 C338 1.240 . S
O349 La320 2.482 . S
O349 La321 2.757 . S
O349 C338 1.289 . S
O350 La321 2.470 . S
O350 C339 1.258 . S
O351 La320 2.503 . S
O351 C339 1.256 . S
H352 C324 0.930 . S
H353 C325 0.930 . S
H354 C327 0.929 . S
H355 C328 0.929 . S
H356 C333 0.930 . S
H357 C334 0.930 . S
H358 C336 0.929 . S
H359 C337 0.929 . S
La360 C362 2.928 . S
La360 O380 2.521 . S
La360 O381 2.628 . S
La360 O382 2.554 . S
La360 O383 2.757 . S
La360 O384 2.470 . S
La360 O389 2.482 . S
La360 O391 2.503 . S
La361 C371 2.928 . S
La361 O383 2.482 . S
La361 O385 2.503 . S
La361 O386 2.521 . S
La361 O387 2.628 . S
La361 O388 2.554 . S
La361 O389 2.757 . S
La361 O390 2.470 . S
C362 La360 2.928 . S
C362 C363 1.503 . S
C362 O380 1.261 . S
C362 O381 1.243 . S
C363 C362 1.503 . S
C363 C364 1.394 . S
C363 C368 1.373 . S
C364 C363 1.394 . S
C364 C365 1.380 . S
C364 H392 0.930 . S
C365 C364 1.380 . S
C365 C366 1.376 . S
C365 H393 0.930 . S
C366 C365 1.376 . S
C366 C367 1.370 . S
C367 C366 1.370 . S
C367 C368 1.396 . S
C367 H394 0.929 . S
C368 C363 1.373 . S
C368 C367 1.396 . S
C368 H395 0.929 . S
C369 O382 1.240 . S
C369 O383 1.289 . S
C370 O384 1.258 . S
C370 O385 1.256 . S
C371 La361 2.928 . S
C371 C372 1.503 . S
C371 O386 1.261 . S
C371 O387 1.243 . S
C372 C371 1.503 . S
C372 C373 1.394 . S
C372 C377 1.373 . S
C373 C372 1.394 . S
C373 C374 1.380 . S
C373 H396 0.930 . S
C374 C373 1.380 . S
C374 C375 1.376 . S
C374 H397 0.930 . S
C375 C374 1.376 . S
C375 C376 1.370 . S
C376 C375 1.370 . S
C376 C377 1.396 . S
C376 H398 0.929 . S
C377 C372 1.373 . S
C377 C376 1.396 . S
C377 H399 0.929 . S
C378 O388 1.240 . S
C378 O389 1.289 . S
C379 O390 1.258 . S
C379 O391 1.256 . S
O380 La360 2.521 . S
O380 C362 1.261 . S
O381 La360 2.628 . S
O381 C362 1.243 . S
O382 La360 2.554 . S
O382 C369 1.240 . S
O383 La360 2.757 . S
O383 La361 2.482 . S
O383 C369 1.289 . S
O384 La360 2.470 . S
O384 C370 1.258 . S
O385 La361 2.503 . S
O385 C370 1.256 . S
O386 La361 2.521 . S
O386 C371 1.261 . S
O387 La361 2.628 . S
O387 C371 1.243 . S
O388 La361 2.554 . S
O388 C378 1.240 . S
O389 La360 2.482 . S
O389 La361 2.757 . S
O389 C378 1.289 . S
O390 La361 2.470 . S
O390 C379 1.258 . S
O391 La360 2.503 . S
O391 C379 1.256 . S
H392 C364 0.930 . S
H393 C365 0.930 . S
H394 C367 0.929 . S
H395 C368 0.929 . S
H396 C373 0.930 . S
H397 C374 0.930 . S
H398 C376 0.929 . S
H399 C377 0.929 . S
La400 C402 2.928 . S
La400 O420 2.521 . S
La400 O421 2.628 . S
La400 O422 2.554 . S
La400 O423 2.757 . S
La400 O424 2.470 . S
La400 O429 2.482 . S
La400 O431 2.503 . S
La401 C411 2.928 . S
La401 O423 2.482 . S
La401 O425 2.503 . S
La401 O426 2.521 . S
La401 O427 2.628 . S
La401 O428 2.554 . S
La401 O429 2.757 . S
La401 O430 2.470 . S
C402 La400 2.928 . S
C402 C403 1.503 . S
C402 O420 1.261 . S
C402 O421 1.243 . S
C403 C402 1.503 . S
C403 C404 1.394 . S
C403 C408 1.373 . S
C404 C403 1.394 . S
C404 C405 1.380 . S
C404 H432 0.930 . S
C405 C404 1.380 . S
C405 C406 1.376 . S
C405 H433 0.930 . S
C406 C405 1.376 . S
C406 C407 1.370 . S
C407 C406 1.370 . S
C407 C408 1.396 . S
C407 H434 0.929 . S
C408 C403 1.373 . S
C408 C407 1.396 . S
C408 H435 0.929 . S
C409 O422 1.240 . S
C409 O423 1.289 . S
C410 O424 1.258 . S
C410 O425 1.256 . S
C411 La401 2.928 . S
C411 C412 1.503 . S
C411 O426 1.261 . S
C411 O427 1.243 . S
C412 C411 1.503 . S
C412 C413 1.394 . S
C412 C417 1.373 . S
C413 C412 1.394 . S
C413 C414 1.380 . S
C413 H436 0.930 . S
C414 C413 1.380 . S
C414 C415 1.376 . S
C414 H437 0.930 . S
C415 C414 1.376 . S
C415 C416 1.370 . S
C416 C415 1.370 . S
C416 C417 1.396 . S
C416 H438 0.929 . S
C417 C412 1.373 . S
C417 C416 1.396 . S
C417 H439 0.929 . S
C418 O428 1.240 . S
C418 O429 1.289 . S
C419 O430 1.258 . S
C419 O431 1.256 . S
O420 La400 2.521 . S
O420 C402 1.261 . S
O421 La400 2.628 . S
O421 C402 1.243 . S
O422 La400 2.554 . S
O422 C409 1.240 . S
O423 La400 2.757 . S
O423 La401 2.482 . S
O423 C409 1.289 . S
O424 La400 2.470 . S
O424 C410 1.258 . S
O425 La401 2.503 . S
O425 C410 1.256 . S
O426 La401 2.521 . S
O426 C411 1.261 . S
O427 La401 2.628 . S
O427 C411 1.243 . S
O428 La401 2.554 . S
O428 C418 1.240 . S
O429 La400 2.482 . S
O429 La401 2.757 . S
O429 C418 1.289 . S
O430 La401 2.470 . S
O430 C419 1.258 . S
O431 La400 2.503 . S
O431 C419 1.256 . S
H432 C404 0.930 . S
H433 C405 0.930 . S
H434 C407 0.929 . S
H435 C408 0.929 . S
H436 C413 0.930 . S
H437 C414 0.930 . S
H438 C416 0.929 . S
H439 C417 0.929 . S
La440 C442 2.928 . S
La440 O460 2.521 . S
La440 O461 2.628 . S
La440 O462 2.554 . S
La440 O463 2.757 . S
La440 O464 2.470 . S
La440 O469 2.482 . S
La440 O471 2.503 . S
La441 C451 2.928 . S
La441 O463 2.482 . S
La441 O465 2.503 . S
La441 O466 2.521 . S
La441 O467 2.628 . S
La441 O468 2.554 . S
La441 O469 2.757 . S
La441 O470 2.470 . S
C442 La440 2.928 . S
C442 C443 1.503 . S
C442 O460 1.261 . S
C442 O461 1.243 . S
C443 C442 1.503 . S
C443 C444 1.394 . S
C443 C448 1.373 . S
C444 C443 1.394 . S
C444 C445 1.380 . S
C444 H472 0.930 . S
C445 C444 1.380 . S
C445 C446 1.376 . S
C445 H473 0.930 . S
C446 C445 1.376 . S
C446 C447 1.370 . S
C447 C446 1.370 . S
C447 C448 1.396 . S
C447 H474 0.929 . S
C448 C443 1.373 . S
C448 C447 1.396 . S
C448 H475 0.929 . S
C449 O462 1.240 . S
C449 O463 1.289 . S
C450 O464 1.258 . S
C450 O465 1.256 . S
C451 La441 2.928 . S
C451 C452 1.503 . S
C451 O466 1.261 . S
C451 O467 1.243 . S
C452 C451 1.503 . S
C452 C453 1.394 . S
C452 C457 1.373 . S
C453 C452 1.394 . S
C453 C454 1.380 . S
C453 H476 0.930 . S
C454 C453 1.380 . S
C454 C455 1.376 . S
C454 H477 0.930 . S
C455 C454 1.376 . S
C455 C456 1.370 . S
C456 C455 1.370 . S
C456 C457 1.396 . S
C456 H478 0.929 . S
C457 C452 1.373 . S
C457 C456 1.396 . S
C457 H479 0.929 . S
C458 O468 1.240 . S
C458 O469 1.289 . S
C459 O470 1.258 . S
C459 O471 1.256 . S
O460 La440 2.521 . S
O460 C442 1.261 . S
O461 La440 2.628 . S
O461 C442 1.243 . S
O462 La440 2.554 . S
O462 C449 1.240 . S
O463 La440 2.757 . S
O463 La441 2.482 . S
O463 C449 1.289 . S
O464 La440 2.470 . S
O464 C450 1.258 . S
O465 La441 2.503 . S
O465 C450 1.256 . S
O466 La441 2.521 . S
O466 C451 1.261 . S
O467 La441 2.628 . S
O467 C451 1.243 . S
O468 La441 2.554 . S
O468 C458 1.240 . S
O469 La440 2.482 . S
O469 La441 2.757 . S
O469 C458 1.289 . S
O470 La441 2.470 . S
O470 C459 1.258 . S
O471 La440 2.503 . S
O471 C459 1.256 . S
H472 C444 0.930 . S
H473 C445 0.930 . S
H474 C447 0.929 . S
H475 C448 0.929 . S
H476 C453 0.930 . S
H477 C454 0.930 . S
H478 C456 0.929 . S
H479 C457 0.929 . S
La480 C482 2.928 . S
La480 O500 2.521 . S
La480 O501 2.628 . S
La480 O502 2.554 . S
La480 O503 2.757 . S
La480 O504 2.470 . S
La480 O509 2.482 . S
La480 O511 2.503 . S
La481 C491 2.928 . S
La481 O503 2.482 . S
La481 O505 2.503 . S
La481 O506 2.521 . S
La481 O507 2.628 . S
La481 O508 2.554 . S
La481 O509 2.757 . S
La481 O510 2.470 . S
C482 La480 2.928 . S
C482 C483 1.503 . S
C482 O500 1.261 . S
C482 O501 1.243 . S
C483 C482 1.503 . S
C483 C484 1.394 . S
C483 C488 1.373 . S
C484 C483 1.394 . S
C484 C485 1.380 . S
C484 H512 0.930 . S
C485 C484 1.380 . S
C485 C486 1.376 . S
C485 H513 0.930 . S
C486 C485 1.376 . S
C486 C487 1.370 . S
C487 C486 1.370 . S
C487 C488 1.396 . S
C487 H514 0.929 . S
C488 C483 1.373 . S
C488 C487 1.396 . S
C488 H515 0.929 . S
C489 O502 1.240 . S
C489 O503 1.289 . S
C490 O504 1.258 . S
C490 O505 1.256 . S
C491 La481 2.928 . S
C491 C492 1.503 . S
C491 O506 1.261 . S
C491 O507 1.243 . S
C492 C491 1.503 . S
C492 C493 1.394 . S
C492 C497 1.373 . S
C493 C492 1.394 . S
C493 C494 1.380 . S
C493 H516 0.930 . S
C494 C493 1.380 . S
C494 C495 1.376 . S
C494 H517 0.930 . S
C495 C494 1.376 . S
C495 C496 1.370 . S
C496 C495 1.370 . S
C496 C497 1.396 . S
C496 H518 0.929 . S
C497 C492 1.373 . S
C497 C496 1.396 . S
C497 H519 0.929 . S
C498 O508 1.240 . S
C498 O509 1.289 . S
C499 O510 1.258 . S
C499 O511 1.256 . S
O500 La480 2.521 . S
O500 C482 1.261 . S
O501 La480 2.628 . S
O501 C482 1.243 . S
O502 La480 2.554 . S
O502 C489 1.240 . S
O503 La480 2.757 . S
O503 La481 2.482 . S
O503 C489 1.289 . S
O504 La480 2.470 . S
O504 C490 1.258 . S
O505 La481 2.503 . S
O505 C490 1.256 . S
O506 La481 2.521 . S
O506 C491 1.261 . S
O507 La481 2.628 . S
O507 C491 1.243 . S
O508 La481 2.554 . S
O508 C498 1.240 . S
O509 La480 2.482 . S
O509 La481 2.757 . S
O509 C498 1.289 . S
O510 La481 2.470 . S
O510 C499 1.258 . S
O511 La480 2.503 . S
O511 C499 1.256 . S
H512 C484 0.930 . S
H513 C485 0.930 . S
H514 C487 0.929 . S
H515 C488 0.929 . S
H516 C493 0.930 . S
H517 C494 0.930 . S
H518 C496 0.929 . S
H519 C497 0.929 . S
La520 C522 2.928 . S
La520 O540 2.521 . S
La520 O541 2.628 . S
La520 O542 2.554 . S
La520 O543 2.757 . S
La520 O544 2.470 . S
La520 O549 2.482 . S
La520 O551 2.503 . S
La521 C531 2.928 . S
La521 O543 2.482 . S
La521 O545 2.503 . S
La521 O546 2.521 . S
La521 O547 2.628 . S
La521 O548 2.554 . S
La521 O549 2.757 . S
La521 O550 2.470 . S
C522 La520 2.928 . S
C522 C523 1.503 . S
C522 O540 1.261 . S
C522 O541 1.243 . S
C523 C522 1.503 . S
C523 C524 1.394 . S
C523 C528 1.373 . S
C524 C523 1.394 . S
C524 C525 1.380 . S
C524 H552 0.930 . S
C525 C524 1.380 . S
C525 C526 1.376 . S
C525 H553 0.930 . S
C526 C525 1.376 . S
C526 C527 1.370 . S
C527 C526 1.370 . S
C527 C528 1.396 . S
C527 H554 0.929 . S
C528 C523 1.373 . S
C528 C527 1.396 . S
C528 H555 0.929 . S
C529 O542 1.240 . S
C529 O543 1.289 . S
C530 O544 1.258 . S
C530 O545 1.256 . S
C531 La521 2.928 . S
C531 C532 1.503 . S
C531 O546 1.261 . S
C531 O547 1.243 . S
C532 C531 1.503 . S
C532 C533 1.394 . S
C532 C537 1.373 . S
C533 C532 1.394 . S
C533 C534 1.380 . S
C533 H556 0.930 . S
C534 C533 1.380 . S
C534 C535 1.376 . S
C534 H557 0.930 . S
C535 C534 1.376 . S
C535 C536 1.370 . S
C536 C535 1.370 . S
C536 C537 1.396 . S
C536 H558 0.929 . S
C537 C532 1.373 . S
C537 C536 1.396 . S
C537 H559 0.929 . S
C538 O548 1.240 . S
C538 O549 1.289 . S
C539 O550 1.258 . S
C539 O551 1.256 . S
O540 La520 2.521 . S
O540 C522 1.261 . S
O541 La520 2.628 . S
O541 C522 1.243 . S
O542 La520 2.554 . S
O542 C529 1.240 . S
O543 La520 2.757 . S
O543 La521 2.482 . S
O543 C529 1.289 . S
O544 La520 2.470 . S
O544 C530 1.258 . S
O545 La521 2.503 . S
O545 C530 1.256 . S
O546 La521 2.521 . S
O546 C531 1.261 . S
O547 La521 2.628 . S
O547 C531 1.243 . S
O548 La521 2.554 . S
O548 C538 1.240 . S
O549 La520 2.482 . S
O549 La521 2.757 . S
O549 C538 1.289 . S
O550 La521 2.470 . S
O550 C539 1.258 . S
O551 La520 2.503 . S
O551 C539 1.256 . S
H552 C524 0.930 . S
H553 C525 0.930 . S
H554 C527 0.929 . S
H555 C528 0.929 . S
H556 C533 0.930 . S
H557 C534 0.930 . S
H558 C536 0.929 . S
H559 C537 0.929 . S
La560 C562 2.928 . S
La560 O580 2.521 . S
La560 O581 2.628 . S
La560 O582 2.554 . S
La560 O583 2.757 . S
La560 O584 2.470 . S
La560 O589 2.482 . S
La560 O591 2.503 . S
La561 C571 2.928 . S
La561 O583 2.482 . S
La561 O585 2.503 . S
La561 O586 2.521 . S
La561 O587 2.628 . S
La561 O588 2.554 . S
La561 O589 2.757 . S
La561 O590 2.470 . S
C562 La560 2.928 . S
C562 C563 1.503 . S
C562 O580 1.261 . S
C562 O581 1.243 . S
C563 C562 1.503 . S
C563 C564 1.394 . S
C563 C568 1.373 . S
C564 C563 1.394 . S
C564 C565 1.380 . S
C564 H592 0.930 . S
C565 C564 1.380 . S
C565 C566 1.376 . S
C565 H593 0.930 . S
C566 C565 1.376 . S
C566 C567 1.370 . S
C567 C566 1.370 . S
C567 C568 1.396 . S
C567 H594 0.929 . S
C568 C563 1.373 . S
C568 C567 1.396 . S
C568 H595 0.929 . S
C569 O582 1.240 . S
C569 O583 1.289 . S
C570 O584 1.258 . S
C570 O585 1.256 . S
C571 La561 2.928 . S
C571 C572 1.503 . S
C571 O586 1.261 . S
C571 O587 1.243 . S
C572 C571 1.503 . S
C572 C573 1.394 . S
C572 C577 1.373 . S
C573 C572 1.394 . S
C573 C574 1.380 . S
C573 H596 0.930 . S
C574 C573 1.380 . S
C574 C575 1.376 . S
C574 H597 0.930 . S
C575 C574 1.376 . S
C575 C576 1.370 . S
C576 C575 1.370 . S
C576 C577 1.396 . S
C576 H598 0.929 . S
C577 C572 1.373 . S
C577 C576 1.396 . S
C577 H599 0.929 . S
C578 O588 1.240 . S
C578 O589 1.289 . S
C579 O590 1.258 . S
C579 O591 1.256 . S
O580 La560 2.521 . S
O580 C562 1.261 . S
O581 La560 2.628 . S
O581 C562 1.243 . S
O582 La560 2.554 . S
O582 C569 1.240 . S
O583 La560 2.757 . S
O583 La561 2.482 . S
O583 C569 1.289 . S
O584 La560 2.470 . S
O584 C570 1.258 . S
O585 La561 2.503 . S
O585 C570 1.256 . S
O586 La561 2.521 . S
O586 C571 1.261 . S
O587 La561 2.628 . S
O587 C571 1.243 . S
O588 La561 2.554 . S
O588 C578 1.240 . S
O589 La560 2.482 . S
O589 La561 2.757 . S
O589 C578 1.289 . S
O590 La561 2.470 . S
O590 C579 1.258 . S
O591 La560 2.503 . S
O591 C579 1.256 . S
H592 C564 0.930 . S
H593 C565 0.930 . S
H594 C567 0.929 . S
H595 C568 0.929 . S
H596 C573 0.930 . S
H597 C574 0.930 . S
H598 C576 0.929 . S
H599 C577 0.929 . S
La600 C602 2.928 . S
La600 O620 2.521 . S
La600 O621 2.628 . S
La600 O622 2.554 . S
La600 O623 2.757 . S
La600 O624 2.470 . S
La600 O629 2.482 . S
La600 O631 2.503 . S
La601 C611 2.928 . S
La601 O623 2.482 . S
La601 O625 2.503 . S
La601 O626 2.521 . S
La601 O627 2.628 . S
La601 O628 2.554 . S
La601 O629 2.757 . S
La601 O630 2.470 . S
C602 La600 2.928 . S
C602 C603 1.503 . S
C602 O620 1.261 . S
C602 O621 1.243 . S
C603 C602 1.503 . S
C603 C604 1.394 . S
C603 C608 1.373 . S
C604 C603 1.394 . S
C604 C605 1.380 . S
C604 H632 0.930 . S
C605 C604 1.380 . S
C605 C606 1.376 . S
C605 H633 0.930 . S
C606 C605 1.376 . S
C606 C607 1.370 . S
C607 C606 1.370 . S
C607 C608 1.396 . S
C607 H634 0.929 1_655 S
C608 C603 1.373 . S
C608 C607 1.396 . S
C608 H635 0.929 . S
C609 O622 1.240 . S
C609 O623 1.289 . S
C610 O624 1.258 . S
C610 O625 1.256 . S
C611 La601 2.928 . S
C611 C612 1.503 . S
C611 O626 1.261 . S
C611 O627 1.243 . S
C612 C611 1.503 . S
C612 C613 1.394 . S
C612 C617 1.373 . S
C613 C612 1.394 . S
C613 C614 1.380 . S
C613 H636 0.930 . S
C614 C613 1.380 . S
C614 C615 1.376 . S
C614 H637 0.930 . S
C615 C614 1.376 . S
C615 C616 1.370 . S
C616 C615 1.370 . S
C616 C617 1.396 . S
C616 H638 0.929 . S
C617 C612 1.373 . S
C617 C616 1.396 . S
C617 H639 0.929 . S
C618 O628 1.240 . S
C618 O629 1.289 . S
C619 O630 1.258 . S
C619 O631 1.256 . S
O620 La600 2.521 . S
O620 C602 1.261 . S
O621 La600 2.628 . S
O621 C602 1.243 . S
O622 La600 2.554 . S
O622 C609 1.240 . S
O623 La600 2.757 . S
O623 La601 2.482 . S
O623 C609 1.289 . S
O624 La600 2.470 . S
O624 C610 1.258 . S
O625 La601 2.503 . S
O625 C610 1.256 . S
O626 La601 2.521 . S
O626 C611 1.261 . S
O627 La601 2.628 . S
O627 C611 1.243 . S
O628 La601 2.554 . S
O628 C618 1.240 . S
O629 La600 2.482 . S
O629 La601 2.757 . S
O629 C618 1.289 . S
O630 La601 2.470 . S
O630 C619 1.258 . S
O631 La600 2.503 . S
O631 C619 1.256 . S
H632 C604 0.930 . S
H633 C605 0.930 . S
H634 C607 0.929 1_455 S
H635 C608 0.929 . S
H636 C613 0.930 . S
H637 C614 0.930 . S
H638 C616 0.929 . S
H639 C617 0.929 . S
La640 C642 2.928 . S
La640 O660 2.521 . S
La640 O661 2.628 . S
La640 O662 2.554 . S
La640 O663 2.757 . S
La640 O664 2.470 . S
La640 O669 2.482 . S
La640 O671 2.503 . S
La641 C651 2.928 . S
La641 O663 2.482 . S
La641 O665 2.503 . S
La641 O666 2.521 . S
La641 O667 2.628 . S
La641 O668 2.554 . S
La641 O669 2.757 . S
La641 O670 2.470 . S
C642 La640 2.928 . S
C642 C643 1.503 . S
C642 O660 1.261 . S
C642 O661 1.243 . S
C643 C642 1.503 . S
C643 C644 1.394 . S
C643 C648 1.373 . S
C644 C643 1.394 . S
C644 C645 1.380 . S
C644 H672 0.930 . S
C645 C644 1.380 . S
C645 C646 1.376 . S
C645 H673 0.930 . S
C646 C645 1.376 . S
C646 C647 1.370 . S
C647 C646 1.370 . S
C647 C648 1.396 . S
C647 H674 0.929 . S
C648 C643 1.373 . S
C648 C647 1.396 . S
C648 H675 0.929 . S
C649 O662 1.240 . S
C649 O663 1.289 . S
C650 O664 1.258 . S
C650 O665 1.256 . S
C651 La641 2.928 . S
C651 C652 1.503 . S
C651 O666 1.261 . S
C651 O667 1.243 . S
C652 C651 1.503 . S
C652 C653 1.394 . S
C652 C657 1.373 . S
C653 C652 1.394 . S
C653 C654 1.380 . S
C653 H676 0.930 . S
C654 C653 1.380 . S
C654 C655 1.376 . S
C654 H677 0.930 . S
C655 C654 1.376 . S
C655 C656 1.370 . S
C656 C655 1.370 . S
C656 C657 1.396 . S
C656 H678 0.929 . S
C657 C652 1.373 . S
C657 C656 1.396 . S
C657 H679 0.929 . S
C658 O668 1.240 . S
C658 O669 1.289 . S
C659 O670 1.258 . S
C659 O671 1.256 . S
O660 La640 2.521 . S
O660 C642 1.261 . S
O661 La640 2.628 . S
O661 C642 1.243 . S
O662 La640 2.554 . S
O662 C649 1.240 . S
O663 La640 2.757 . S
O663 La641 2.482 . S
O663 C649 1.289 . S
O664 La640 2.470 . S
O664 C650 1.258 . S
O665 La641 2.503 . S
O665 C650 1.256 . S
O666 La641 2.521 . S
O666 C651 1.261 . S
O667 La641 2.628 . S
O667 C651 1.243 . S
O668 La641 2.554 . S
O668 C658 1.240 . S
O669 La640 2.482 . S
O669 La641 2.757 . S
O669 C658 1.289 . S
O670 La641 2.470 . S
O670 C659 1.258 . S
O671 La640 2.503 . S
O671 C659 1.256 . S
H672 C644 0.930 . S
H673 C645 0.930 . S
H674 C647 0.929 . S
H675 C648 0.929 . S
H676 C653 0.930 . S
H677 C654 0.930 . S
H678 C656 0.929 . S
H679 C657 0.929 . S
La680 C682 2.928 . S
La680 O700 2.521 . S
La680 O701 2.628 . S
La680 O702 2.554 . S
La680 O703 2.757 . S
La680 O704 2.470 . S
La680 O709 2.482 . S
La680 O711 2.503 . S
La681 C691 2.928 . S
La681 O703 2.482 . S
La681 O705 2.503 . S
La681 O706 2.521 . S
La681 O707 2.628 . S
La681 O708 2.554 . S
La681 O709 2.757 . S
La681 O710 2.470 . S
C682 La680 2.928 . S
C682 C683 1.503 . S
C682 O700 1.261 . S
C682 O701 1.243 . S
C683 C682 1.503 . S
C683 C684 1.394 . S
C683 C688 1.373 . S
C684 C683 1.394 . S
C684 C685 1.380 . S
C684 H712 0.930 . S
C685 C684 1.380 . S
C685 C686 1.376 . S
C685 H713 0.930 . S
C686 C685 1.376 . S
C686 C687 1.370 . S
C687 C686 1.370 . S
C687 C688 1.396 . S
C687 H714 0.929 1_545 S
C688 C683 1.373 . S
C688 C687 1.396 . S
C688 H715 0.929 . S
C689 O702 1.240 . S
C689 O703 1.289 . S
C690 O704 1.258 . S
C690 O705 1.256 . S
C691 La681 2.928 . S
C691 C692 1.503 . S
C691 O706 1.261 . S
C691 O707 1.243 . S
C692 C691 1.503 . S
C692 C693 1.394 . S
C692 C697 1.373 . S
C693 C692 1.394 . S
C693 C694 1.380 . S
C693 H716 0.930 . S
C694 C693 1.380 . S
C694 C695 1.376 . S
C694 H717 0.930 . S
C695 C694 1.376 . S
C695 C696 1.370 . S
C696 C695 1.370 . S
C696 C697 1.396 . S
C696 H718 0.929 . S
C697 C692 1.373 . S
C697 C696 1.396 . S
C697 H719 0.929 . S
C698 O708 1.240 . S
C698 O709 1.289 . S
C699 O710 1.258 . S
C699 O711 1.256 . S
O700 La680 2.521 . S
O700 C682 1.261 . S
O701 La680 2.628 . S
O701 C682 1.243 . S
O702 La680 2.554 . S
O702 C689 1.240 . S
O703 La680 2.757 . S
O703 La681 2.482 . S
O703 C689 1.289 . S
O704 La680 2.470 . S
O704 C690 1.258 . S
O705 La681 2.503 . S
O705 C690 1.256 . S
O706 La681 2.521 . S
O706 C691 1.261 . S
O707 La681 2.628 . S
O707 C691 1.243 . S
O708 La681 2.554 . S
O708 C698 1.240 . S
O709 La680 2.482 . S
O709 La681 2.757 . S
O709 C698 1.289 . S
O710 La681 2.470 . S
O710 C699 1.258 . S
O711 La680 2.503 . S
O711 C699 1.256 . S
H712 C684 0.930 . S
H713 C685 0.930 . S
H714 C687 0.929 1_565 S
H715 C688 0.929 . S
H716 C693 0.930 . S
H717 C694 0.930 . S
H718 C696 0.929 . S
H719 C697 0.929 . S
La720 C722 2.928 . S
La720 O740 2.521 . S
La720 O741 2.628 . S
La720 O742 2.554 . S
La720 O743 2.757 . S
La720 O744 2.470 . S
La720 O749 2.482 . S
La720 O751 2.503 . S
La721 C731 2.928 . S
La721 O743 2.482 . S
La721 O745 2.503 . S
La721 O746 2.521 . S
La721 O747 2.628 . S
La721 O748 2.554 . S
La721 O749 2.757 . S
La721 O750 2.470 . S
C722 La720 2.928 . S
C722 C723 1.503 . S
C722 O740 1.261 . S
C722 O741 1.243 . S
C723 C722 1.503 . S
C723 C724 1.394 . S
C723 C728 1.373 . S
C724 C723 1.394 . S
C724 C725 1.380 . S
C724 H752 0.930 . S
C725 C724 1.380 . S
C725 C726 1.376 . S
C725 H753 0.930 . S
C726 C725 1.376 . S
C726 C727 1.370 . S
C727 C726 1.370 . S
C727 C728 1.396 . S
C727 H754 0.929 . S
C728 C723 1.373 . S
C728 C727 1.396 . S
C728 H755 0.929 . S
C729 O742 1.240 . S
C729 O743 1.289 . S
C730 O744 1.258 . S
C730 O745 1.256 . S
C731 La721 2.928 . S
C731 C732 1.503 . S
C731 O746 1.261 . S
C731 O747 1.243 . S
C732 C731 1.503 . S
C732 C733 1.394 . S
C732 C737 1.373 . S
C733 C732 1.394 . S
C733 C734 1.380 . S
C733 H756 0.930 . S
C734 C733 1.380 . S
C734 C735 1.376 . S
C734 H757 0.930 . S
C735 C734 1.376 . S
C735 C736 1.370 . S
C736 C735 1.370 . S
C736 C737 1.396 . S
C736 H758 0.929 1_545 S
C737 C732 1.373 . S
C737 C736 1.396 . S
C737 H759 0.929 . S
C738 O748 1.240 . S
C738 O749 1.289 . S
C739 O750 1.258 . S
C739 O751 1.256 . S
O740 La720 2.521 . S
O740 C722 1.261 . S
O741 La720 2.628 . S
O741 C722 1.243 . S
O742 La720 2.554 . S
O742 C729 1.240 . S
O743 La720 2.757 . S
O743 La721 2.482 . S
O743 C729 1.289 . S
O744 La720 2.470 . S
O744 C730 1.258 . S
O745 La721 2.503 . S
O745 C730 1.256 . S
O746 La721 2.521 . S
O746 C731 1.261 . S
O747 La721 2.628 . S
O747 C731 1.243 . S
O748 La721 2.554 . S
O748 C738 1.240 . S
O749 La720 2.482 . S
O749 La721 2.757 . S
O749 C738 1.289 . S
O750 La721 2.470 . S
O750 C739 1.258 . S
O751 La720 2.503 . S
O751 C739 1.256 . S
H752 C724 0.930 . S
H753 C725 0.930 . S
H754 C727 0.929 . S
H755 C728 0.929 . S
H756 C733 0.930 . S
H757 C734 0.930 . S
H758 C736 0.929 1_565 S
H759 C737 0.929 . S
La760 C762 2.928 . S
La760 O780 2.521 . S
La760 O781 2.628 . S
La760 O782 2.554 . S
La760 O783 2.757 . S
La760 O784 2.470 . S
La760 O789 2.482 . S
La760 O791 2.503 . S
La761 C771 2.928 . S
La761 O783 2.482 . S
La761 O785 2.503 . S
La761 O786 2.521 . S
La761 O787 2.628 . S
La761 O788 2.554 . S
La761 O789 2.757 . S
La761 O790 2.470 . S
C762 La760 2.928 . S
C762 C763 1.503 . S
C762 O780 1.261 . S
C762 O781 1.243 . S
C763 C762 1.503 . S
C763 C764 1.394 . S
C763 C768 1.373 . S
C764 C763 1.394 . S
C764 C765 1.380 . S
C764 H792 0.930 . S
C765 C764 1.380 . S
C765 C766 1.376 . S
C765 H793 0.930 . S
C766 C765 1.376 . S
C766 C767 1.370 . S
C767 C766 1.370 . S
C767 C768 1.396 . S
C767 H794 0.929 . S
C768 C763 1.373 . S
C768 C767 1.396 . S
C768 H795 0.929 . S
C769 O782 1.240 . S
C769 O783 1.289 . S
C770 O784 1.258 . S
C770 O785 1.256 . S
C771 La761 2.928 . S
C771 C772 1.503 . S
C771 O786 1.261 . S
C771 O787 1.243 . S
C772 C771 1.503 . S
C772 C773 1.394 . S
C772 C777 1.373 . S
C773 C772 1.394 . S
C773 C774 1.380 . S
C773 H796 0.930 . S
C774 C773 1.380 . S
C774 C775 1.376 . S
C774 H797 0.930 . S
C775 C774 1.376 . S
C775 C776 1.370 . S
C776 C775 1.370 . S
C776 C777 1.396 . S
C776 H798 0.929 1_655 S
C777 C772 1.373 . S
C777 C776 1.396 . S
C777 H799 0.929 . S
C778 O788 1.240 . S
C778 O789 1.289 . S
C779 O790 1.258 . S
C779 O791 1.256 . S
O780 La760 2.521 . S
O780 C762 1.261 . S
O781 La760 2.628 . S
O781 C762 1.243 . S
O782 La760 2.554 . S
O782 C769 1.240 . S
O783 La760 2.757 . S
O783 La761 2.482 . S
O783 C769 1.289 . S
O784 La760 2.470 . S
O784 C770 1.258 . S
O785 La761 2.503 . S
O785 C770 1.256 . S
O786 La761 2.521 . S
O786 C771 1.261 . S
O787 La761 2.628 . S
O787 C771 1.243 . S
O788 La761 2.554 . S
O788 C778 1.240 . S
O789 La760 2.482 . S
O789 La761 2.757 . S
O789 C778 1.289 . S
O790 La761 2.470 . S
O790 C779 1.258 . S
O791 La760 2.503 . S
O791 C779 1.256 . S
H792 C764 0.930 . S
H793 C765 0.930 . S
H794 C767 0.929 . S
H795 C768 0.929 . S
H796 C773 0.930 . S
H797 C774 0.930 . S
H798 C776 0.929 1_455 S
H799 C777 0.929 . S
La800 C802 2.928 . S
La800 O820 2.521 . S
La800 O821 2.628 . S
La800 O822 2.554 . S
La800 O823 2.757 . S
La800 O824 2.470 . S
La800 O829 2.482 . S
La800 O831 2.503 . S
La801 C811 2.928 . S
La801 O823 2.482 . S
La801 O825 2.503 . S
La801 O826 2.521 . S
La801 O827 2.628 . S
La801 O828 2.554 . S
La801 O829 2.757 . S
La801 O830 2.470 . S
C802 La800 2.928 . S
C802 C803 1.503 . S
C802 O820 1.261 . S
C802 O821 1.243 . S
C803 C802 1.503 . S
C803 C804 1.394 . S
C803 C808 1.373 . S
C804 C803 1.394 . S
C804 C805 1.380 . S
C804 H832 0.930 . S
C805 C804 1.380 . S
C805 C806 1.376 . S
C805 H833 0.930 . S
C806 C805 1.376 . S
C806 C807 1.370 . S
C807 C806 1.370 . S
C807 C808 1.396 . S
C807 H834 0.929 . S
C808 C803 1.373 . S
C808 C807 1.396 . S
C808 H835 0.929 . S
C809 O822 1.240 . S
C809 O823 1.289 . S
C810 O824 1.258 . S
C810 O825 1.256 . S
C811 La801 2.928 . S
C811 C812 1.503 . S
C811 O826 1.261 . S
C811 O827 1.243 . S
C812 C811 1.503 . S
C812 C813 1.394 . S
C812 C817 1.373 . S
C813 C812 1.394 . S
C813 C814 1.380 . S
C813 H836 0.930 . S
C814 C813 1.380 . S
C814 C815 1.376 . S
C814 H837 0.930 . S
C815 C814 1.376 . S
C815 C816 1.370 . S
C816 C815 1.370 . S
C816 C817 1.396 . S
C816 H838 0.929 . S
C817 C812 1.373 . S
C817 C816 1.396 . S
C817 H839 0.929 . S
C818 O828 1.240 . S
C818 O829 1.289 . S
C819 O830 1.258 . S
C819 O831 1.256 . S
O820 La800 2.521 . S
O820 C802 1.261 . S
O821 La800 2.628 . S
O821 C802 1.243 . S
O822 La800 2.554 . S
O822 C809 1.240 . S
O823 La800 2.757 . S
O823 La801 2.482 . S
O823 C809 1.289 . S
O824 La800 2.470 . S
O824 C810 1.258 . S
O825 La801 2.503 . S
O825 C810 1.256 . S
O826 La801 2.521 . S
O826 C811 1.261 . S
O827 La801 2.628 . S
O827 C811 1.243 . S
O828 La801 2.554 . S
O828 C818 1.240 . S
O829 La800 2.482 . S
O829 La801 2.757 . S
O829 C818 1.289 . S
O830 La801 2.470 . S
O830 C819 1.258 . S
O831 La800 2.503 . S
O831 C819 1.256 . S
H832 C804 0.930 . S
H833 C805 0.930 . S
H834 C807 0.929 . S
H835 C808 0.929 . S
H836 C813 0.930 . S
H837 C814 0.930 . S
H838 C816 0.929 . S
H839 C817 0.929 . S
La840 C842 2.928 . S
La840 O860 2.521 . S
La840 O861 2.628 . S
La840 O862 2.554 . S
La840 O863 2.757 1_554 S
La840 O864 2.470 . S
La840 O869 2.482 . S
La840 O871 2.503 . S
La841 C851 2.928 . S
La841 O863 2.482 . S
La841 O865 2.503 . S
La841 O866 2.521 . S
La841 O867 2.628 . S
La841 O868 2.554 . S
La841 O869 2.757 1_556 S
La841 O870 2.470 . S
C842 La840 2.928 . S
C842 C843 1.503 . S
C842 O860 1.261 . S
C842 O861 1.243 . S
C843 C842 1.503 . S
C843 C844 1.394 . S
C843 C848 1.373 . S
C844 C843 1.394 . S
C844 C845 1.380 . S
C844 H872 0.930 . S
C845 C844 1.380 . S
C845 C846 1.376 . S
C845 H873 0.930 . S
C846 C845 1.376 . S
C846 C847 1.370 . S
C847 C846 1.370 . S
C847 C848 1.396 . S
C847 H874 0.929 . S
C848 C843 1.373 . S
C848 C847 1.396 . S
C848 H875 0.929 . S
C849 O862 1.240 . S
C849 O863 1.289 1_554 S
C850 O864 1.258 . S
C850 O865 1.256 1_554 S
C851 La841 2.928 . S
C851 C852 1.503 . S
C851 O866 1.261 . S
C851 O867 1.243 . S
C852 C851 1.503 . S
C852 C853 1.394 . S
C852 C857 1.373 . S
C853 C852 1.394 . S
C853 C854 1.380 . S
C853 H876 0.930 . S
C854 C853 1.380 . S
C854 C855 1.376 . S
C854 H877 0.930 . S
C855 C854 1.376 . S
C855 C856 1.370 . S
C856 C855 1.370 . S
C856 C857 1.396 . S
C856 H878 0.929 . S
C857 C852 1.373 . S
C857 C856 1.396 . S
C857 H879 0.929 . S
C858 O868 1.240 . S
C858 O869 1.289 1_556 S
C859 O870 1.258 . S
C859 O871 1.256 1_556 S
O860 La840 2.521 . S
O860 C842 1.261 . S
O861 La840 2.628 . S
O861 C842 1.243 . S
O862 La840 2.554 . S
O862 C849 1.240 . S
O863 La840 2.757 1_556 S
O863 La841 2.482 . S
O863 C849 1.289 1_556 S
O864 La840 2.470 . S
O864 C850 1.258 . S
O865 La841 2.503 . S
O865 C850 1.256 1_556 S
O866 La841 2.521 . S
O866 C851 1.261 . S
O867 La841 2.628 . S
O867 C851 1.243 . S
O868 La841 2.554 . S
O868 C858 1.240 . S
O869 La840 2.482 . S
O869 La841 2.757 1_554 S
O869 C858 1.289 1_554 S
O870 La841 2.470 . S
O870 C859 1.258 . S
O871 La840 2.503 . S
O871 C859 1.256 1_554 S
H872 C844 0.930 . S
H873 C845 0.930 . S
H874 C847 0.929 . S
H875 C848 0.929 . S
H876 C853 0.930 . S
H877 C854 0.930 . S
H878 C856 0.929 . S
H879 C857 0.929 . S
La880 C882 2.928 . S
La880 O900 2.521 . S
La880 O901 2.628 . S
La880 O902 2.554 . S
La880 O903 2.757 1_554 S
La880 O904 2.470 . S
La880 O909 2.482 . S
La880 O911 2.503 . S
La881 C891 2.928 . S
La881 O903 2.482 . S
La881 O905 2.503 . S
La881 O906 2.521 . S
La881 O907 2.628 . S
La881 O908 2.554 . S
La881 O909 2.757 1_556 S
La881 O910 2.470 . S
C882 La880 2.928 . S
C882 C883 1.503 . S
C882 O900 1.261 . S
C882 O901 1.243 . S
C883 C882 1.503 . S
C883 C884 1.394 . S
C883 C888 1.373 . S
C884 C883 1.394 . S
C884 C885 1.380 . S
C884 H912 0.930 . S
C885 C884 1.380 . S
C885 C886 1.376 . S
C885 H913 0.930 . S
C886 C885 1.376 . S
C886 C887 1.370 . S
C887 C886 1.370 . S
C887 C888 1.396 . S
C887 H914 0.929 . S
C888 C883 1.373 . S
C888 C887 1.396 . S
C888 H915 0.929 . S
C889 O902 1.240 . S
C889 O903 1.289 1_554 S
C890 O904 1.258 . S
C890 O905 1.256 1_554 S
C891 La881 2.928 . S
C891 C892 1.503 . S
C891 O906 1.261 . S
C891 O907 1.243 . S
C892 C891 1.503 . S
C892 C893 1.394 . S
C892 C897 1.373 . S
C893 C892 1.394 . S
C893 C894 1.380 . S
C893 H916 0.930 . S
C894 C893 1.380 . S
C894 C895 1.376 . S
C894 H917 0.930 . S
C895 C894 1.376 . S
C895 C896 1.370 . S
C896 C895 1.370 . S
C896 C897 1.396 . S
C896 H918 0.929 . S
C897 C892 1.373 . S
C897 C896 1.396 . S
C897 H919 0.929 . S
C898 O908 1.240 . S
C898 O909 1.289 1_556 S
C899 O910 1.258 . S
C899 O911 1.256 1_556 S
O900 La880 2.521 . S
O900 C882 1.261 . S
O901 La880 2.628 . S
O901 C882 1.243 . S
O902 La880 2.554 . S
O902 C889 1.240 . S
O903 La880 2.757 1_556 S
O903 La881 2.482 . S
O903 C889 1.289 1_556 S
O904 La880 2.470 . S
O904 C890 1.258 . S
O905 La881 2.503 . S
O905 C890 1.256 1_556 S
O906 La881 2.521 . S
O906 C891 1.261 . S
O907 La881 2.628 . S
O907 C891 1.243 . S
O908 La881 2.554 . S
O908 C898 1.240 . S
O909 La880 2.482 . S
O909 La881 2.757 1_554 S
O909 C898 1.289 1_554 S
O910 La881 2.470 . S
O910 C899 1.258 . S
O911 La880 2.503 . S
O911 C899 1.256 1_554 S
H912 C884 0.930 . S
H913 C885 0.930 . S
H914 C887 0.929 . S
H915 C888 0.929 . S
H916 C893 0.930 . S
H917 C894 0.930 . S
H918 C896 0.929 . S
H919 C897 0.929 . S
La920 C922 2.928 . S
La920 O940 2.521 . S
La920 O941 2.628 . S
La920 O942 2.554 . S
La920 O943 2.757 1_554 S
La920 O944 2.470 . S
La920 O949 2.482 . S
La920 O951 2.503 . S
La921 C931 2.928 . S
La921 O943 2.482 . S
La921 O945 2.503 . S
La921 O946 2.521 . S
La921 O947 2.628 . S
La921 O948 2.554 . S
La921 O949 2.757 1_556 S
La921 O950 2.470 . S
C922 La920 2.928 . S
C922 C923 1.503 . S
C922 O940 1.261 . S
C922 O941 1.243 . S
C923 C922 1.503 . S
C923 C924 1.394 . S
C923 C928 1.373 . S
C924 C923 1.394 . S
C924 C925 1.380 . S
C924 H952 0.930 . S
C925 C924 1.380 . S
C925 C926 1.376 . S
C925 H953 0.930 . S
C926 C925 1.376 . S
C926 C927 1.370 . S
C927 C926 1.370 . S
C927 C928 1.396 . S
C927 H954 0.929 . S
C928 C923 1.373 . S
C928 C927 1.396 . S
C928 H955 0.929 . S
C929 O942 1.240 . S
C929 O943 1.289 1_554 S
C930 O944 1.258 . S
C930 O945 1.256 1_554 S
C931 La921 2.928 . S
C931 C932 1.503 . S
C931 O946 1.261 . S
C931 O947 1.243 . S
C932 C931 1.503 . S
C932 C933 1.394 . S
C932 C937 1.373 . S
C933 C932 1.394 . S
C933 C934 1.380 . S
C933 H956 0.930 . S
C934 C933 1.380 . S
C934 C935 1.376 . S
C934 H957 0.930 . S
C935 C934 1.376 . S
C935 C936 1.370 . S
C936 C935 1.370 . S
C936 C937 1.396 . S
C936 H958 0.929 . S
C937 C932 1.373 . S
C937 C936 1.396 . S
C937 H959 0.929 . S
C938 O948 1.240 . S
C938 O949 1.289 1_556 S
C939 O950 1.258 . S
C939 O951 1.256 1_556 S
O940 La920 2.521 . S
O940 C922 1.261 . S
O941 La920 2.628 . S
O941 C922 1.243 . S
O942 La920 2.554 . S
O942 C929 1.240 . S
O943 La920 2.757 1_556 S
O943 La921 2.482 . S
O943 C929 1.289 1_556 S
O944 La920 2.470 . S
O944 C930 1.258 . S
O945 La921 2.503 . S
O945 C930 1.256 1_556 S
O946 La921 2.521 . S
O946 C931 1.261 . S
O947 La921 2.628 . S
O947 C931 1.243 . S
O948 La921 2.554 . S
O948 C938 1.240 . S
O949 La920 2.482 . S
O949 La921 2.757 1_554 S
O949 C938 1.289 1_554 S
O950 La921 2.470 . S
O950 C939 1.258 . S
O951 La920 2.503 . S
O951 C939 1.256 1_554 S
H952 C924 0.930 . S
H953 C925 0.930 . S
H954 C927 0.929 . S
H955 C928 0.929 . S
H956 C933 0.930 . S
H957 C934 0.930 . S
H958 C936 0.929 . S
H959 C937 0.929 . S
La960 C962 2.928 . S
La960 O980 2.521 . S
La960 O981 2.628 . S
La960 O982 2.554 . S
La960 O983 2.757 . S
La960 O984 2.470 . S
La960 O989 2.482 . S
La960 O991 2.503 . S
La961 C971 2.928 . S
La961 O983 2.482 . S
La961 O985 2.503 . S
La961 O986 2.521 . S
La961 O987 2.628 . S
La961 O988 2.554 . S
La961 O989 2.757 . S
La961 O990 2.470 . S
C962 La960 2.928 . S
C962 C963 1.503 . S
C962 O980 1.261 . S
C962 O981 1.243 . S
C963 C962 1.503 . S
C963 C964 1.394 . S
C963 C968 1.373 . S
C964 C963 1.394 . S
C964 C965 1.380 . S
C964 H992 0.930 . S
C965 C964 1.380 . S
C965 C966 1.376 . S
C965 H993 0.930 . S
C966 C965 1.376 . S
C966 C967 1.370 . S
C967 C966 1.370 . S
C967 C968 1.396 . S
C967 H994 0.929 1_565 S
C968 C963 1.373 . S
C968 C967 1.396 . S
C968 H995 0.929 . S
C969 O982 1.240 . S
C969 O983 1.289 . S
C970 O984 1.258 . S
C970 O985 1.256 . S
C971 La961 2.928 . S
C971 C972 1.503 . S
C971 O986 1.261 . S
C971 O987 1.243 . S
C972 C971 1.503 . S
C972 C973 1.394 . S
C972 C977 1.373 . S
C973 C972 1.394 . S
C973 C974 1.380 . S
C973 H996 0.930 . S
C974 C973 1.380 . S
C974 C975 1.376 . S
C974 H997 0.930 . S
C975 C974 1.376 . S
C975 C976 1.370 . S
C976 C975 1.370 . S
C976 C977 1.396 . S
C976 H998 0.929 . S
C977 C972 1.373 . S
C977 C976 1.396 . S
C977 H999 0.929 . S
C978 O988 1.240 . S
C978 O989 1.289 . S
C979 O990 1.258 . S
C979 O991 1.256 . S
O980 La960 2.521 . S
O980 C962 1.261 . S
O981 La960 2.628 . S
O981 C962 1.243 . S
O982 La960 2.554 . S
O982 C969 1.240 . S
O983 La960 2.757 . S
O983 La961 2.482 . S
O983 C969 1.289 . S
O984 La960 2.470 . S
O984 C970 1.258 . S
O985 La961 2.503 . S
O985 C970 1.256 . S
O986 La961 2.521 . S
O986 C971 1.261 . S
O987 La961 2.628 . S
O987 C971 1.243 . S
O988 La961 2.554 . S
O988 C978 1.240 . S
O989 La960 2.482 . S
O989 La961 2.757 . S
O989 C978 1.289 . S
O990 La961 2.470 . S
O990 C979 1.258 . S
O991 La960 2.503 . S
O991 C979 1.256 . S
H992 C964 0.930 . S
H993 C965 0.930 . S
H994 C967 0.929 1_545 S
H995 C968 0.929 . S
H996 C973 0.930 . S
H997 C974 0.930 . S
H998 C976 0.929 . S
H999 C977 0.929 . S
La1000 C1002 2.928 . S
La1000 O1020 2.521 . S
La1000 O1021 2.628 . S
La1000 O1022 2.554 . S
La1000 O1023 2.757 . S
La1000 O1024 2.470 . S
La1000 O1029 2.482 . S
La1000 O1031 2.503 . S
La1001 C1011 2.928 . S
La1001 O1023 2.482 . S
La1001 O1025 2.503 . S
La1001 O1026 2.521 . S
La1001 O1027 2.628 . S
La1001 O1028 2.554 . S
La1001 O1029 2.757 . S
La1001 O1030 2.470 . S
C1002 La1000 2.928 . S
C1002 C1003 1.503 . S
C1002 O1020 1.261 . S
C1002 O1021 1.243 . S
C1003 C1002 1.503 . S
C1003 C1004 1.394 . S
C1003 C1008 1.373 . S
C1004 C1003 1.394 . S
C1004 C1005 1.380 . S
C1004 H1032 0.930 . S
C1005 C1004 1.380 . S
C1005 C1006 1.376 . S
C1005 H1033 0.930 . S
C1006 C1005 1.376 . S
C1006 C1007 1.370 . S
C1007 C1006 1.370 . S
C1007 C1008 1.396 . S
C1007 H1034 0.929 1_455 S
C1008 C1003 1.373 . S
C1008 C1007 1.396 . S
C1008 H1035 0.929 . S
C1009 O1022 1.240 . S
C1009 O1023 1.289 . S
C1010 O1024 1.258 . S
C1010 O1025 1.256 . S
C1011 La1001 2.928 . S
C1011 C1012 1.503 . S
C1011 O1026 1.261 . S
C1011 O1027 1.243 . S
C1012 C1011 1.503 . S
C1012 C1013 1.394 . S
C1012 C1017 1.373 . S
C1013 C1012 1.394 . S
C1013 C1014 1.380 . S
C1013 H1036 0.930 . S
C1014 C1013 1.380 . S
C1014 C1015 1.376 . S
C1014 H1037 0.930 . S
C1015 C1014 1.376 . S
C1015 C1016 1.370 . S
C1016 C1015 1.370 . S
C1016 C1017 1.396 . S
C1016 H1038 0.929 . S
C1017 C1012 1.373 . S
C1017 C1016 1.396 . S
C1017 H1039 0.929 . S
C1018 O1028 1.240 . S
C1018 O1029 1.289 . S
C1019 O1030 1.258 . S
C1019 O1031 1.256 . S
O1020 La1000 2.521 . S
O1020 C1002 1.261 . S
O1021 La1000 2.628 . S
O1021 C1002 1.243 . S
O1022 La1000 2.554 . S
O1022 C1009 1.240 . S
O1023 La1000 2.757 . S
O1023 La1001 2.482 . S
O1023 C1009 1.289 . S
O1024 La1000 2.470 . S
O1024 C1010 1.258 . S
O1025 La1001 2.503 . S
O1025 C1010 1.256 . S
O1026 La1001 2.521 . S
O1026 C1011 1.261 . S
O1027 La1001 2.628 . S
O1027 C1011 1.243 . S
O1028 La1001 2.554 . S
O1028 C1018 1.240 . S
O1029 La1000 2.482 . S
O1029 La1001 2.757 . S
O1029 C1018 1.289 . S
O1030 La1001 2.470 . S
O1030 C1019 1.258 . S
O1031 La1000 2.503 . S
O1031 C1019 1.256 . S
H1032 C1004 0.930 . S
H1033 C1005 0.930 . S
H1034 C1007 0.929 1_655 S
H1035 C1008 0.929 . S
H1036 C1013 0.930 . S
H1037 C1014 0.930 . S
H1038 C1016 0.929 . S
H1039 C1017 0.929 . S
La1040 C1042 2.928 . S
La1040 O1060 2.521 . S
La1040 O1061 2.628 . S
La1040 O1062 2.554 . S
La1040 O1063 2.757 . S
La1040 O1064 2.470 . S
La1040 O1069 2.482 . S
La1040 O1071 2.503 . S
La1041 C1051 2.928 . S
La1041 O1063 2.482 . S
La1041 O1065 2.503 . S
La1041 O1066 2.521 . S
La1041 O1067 2.628 . S
La1041 O1068 2.554 . S
La1041 O1069 2.757 . S
La1041 O1070 2.470 . S
C1042 La1040 2.928 . S
C1042 C1043 1.503 . S
C1042 O1060 1.261 . S
C1042 O1061 1.243 . S
C1043 C1042 1.503 . S
C1043 C1044 1.394 . S
C1043 C1048 1.373 . S
C1044 C1043 1.394 . S
C1044 C1045 1.380 . S
C1044 H1072 0.930 . S
C1045 C1044 1.380 . S
C1045 C1046 1.376 . S
C1045 H1073 0.930 . S
C1046 C1045 1.376 . S
C1046 C1047 1.370 . S
C1047 C1046 1.370 . S
C1047 C1048 1.396 . S
C1047 H1074 0.929 . S
C1048 C1043 1.373 . S
C1048 C1047 1.396 . S
C1048 H1075 0.929 . S
C1049 O1062 1.240 . S
C1049 O1063 1.289 . S
C1050 O1064 1.258 . S
C1050 O1065 1.256 . S
C1051 La1041 2.928 . S
C1051 C1052 1.503 . S
C1051 O1066 1.261 . S
C1051 O1067 1.243 . S
C1052 C1051 1.503 . S
C1052 C1053 1.394 . S
C1052 C1057 1.373 . S
C1053 C1052 1.394 . S
C1053 C1054 1.380 . S
C1053 H1076 0.930 . S
C1054 C1053 1.380 . S
C1054 C1055 1.376 . S
C1054 H1077 0.930 . S
C1055 C1054 1.376 . S
C1055 C1056 1.370 . S
C1056 C1055 1.370 . S
C1056 C1057 1.396 . S
C1056 H1078 0.929 . S
C1057 C1052 1.373 . S
C1057 C1056 1.396 . S
C1057 H1079 0.929 . S
C1058 O1068 1.240 . S
C1058 O1069 1.289 . S
C1059 O1070 1.258 . S
C1059 O1071 1.256 . S
O1060 La1040 2.521 . S
O1060 C1042 1.261 . S
O1061 La1040 2.628 . S
O1061 C1042 1.243 . S
O1062 La1040 2.554 . S
O1062 C1049 1.240 . S
O1063 La1040 2.757 . S
O1063 La1041 2.482 . S
O1063 C1049 1.289 . S
O1064 La1040 2.470 . S
O1064 C1050 1.258 . S
O1065 La1041 2.503 . S
O1065 C1050 1.256 . S
O1066 La1041 2.521 . S
O1066 C1051 1.261 . S
O1067 La1041 2.628 . S
O1067 C1051 1.243 . S
O1068 La1041 2.554 . S
O1068 C1058 1.240 . S
O1069 La1040 2.482 . S
O1069 La1041 2.757 . S
O1069 C1058 1.289 . S
O1070 La1041 2.470 . S
O1070 C1059 1.258 . S
O1071 La1040 2.503 . S
O1071 C1059 1.256 . S
H1072 C1044 0.930 . S
H1073 C1045 0.930 . S
H1074 C1047 0.929 . S
H1075 C1048 0.929 . S
H1076 C1053 0.930 . S
H1077 C1054 0.930 . S
H1078 C1056 0.929 . S
H1079 C1057 0.929 . S
La1080 C1082 2.928 . S
La1080 O1100 2.521 . S
La1080 O1101 2.628 . S
La1080 O1102 2.554 . S
La1080 O1103 2.757 1_554 S
La1080 O1104 2.470 . S
La1080 O1109 2.482 . S
La1080 O1111 2.503 . S
La1081 C1091 2.928 . S
La1081 O1103 2.482 . S
La1081 O1105 2.503 . S
La1081 O1106 2.521 . S
La1081 O1107 2.628 . S
La1081 O1108 2.554 . S
La1081 O1109 2.757 1_556 S
La1081 O1110 2.470 . S
C1082 La1080 2.928 . S
C1082 C1083 1.503 . S
C1082 O1100 1.261 . S
C1082 O1101 1.243 . S
C1083 C1082 1.503 . S
C1083 C1084 1.394 . S
C1083 C1088 1.373 . S
C1084 C1083 1.394 . S
C1084 C1085 1.380 . S
C1084 H1112 0.930 . S
C1085 C1084 1.380 . S
C1085 C1086 1.376 . S
C1085 H1113 0.930 . S
C1086 C1085 1.376 . S
C1086 C1087 1.370 . S
C1087 C1086 1.370 . S
C1087 C1088 1.396 . S
C1087 H1114 0.929 . S
C1088 C1083 1.373 . S
C1088 C1087 1.396 . S
C1088 H1115 0.929 . S
C1089 O1102 1.240 . S
C1089 O1103 1.289 1_554 S
C1090 O1104 1.258 . S
C1090 O1105 1.256 1_554 S
C1091 La1081 2.928 . S
C1091 C1092 1.503 . S
C1091 O1106 1.261 . S
C1091 O1107 1.243 . S
C1092 C1091 1.503 . S
C1092 C1093 1.394 . S
C1092 C1097 1.373 . S
C1093 C1092 1.394 . S
C1093 C1094 1.380 . S
C1093 H1116 0.930 . S
C1094 C1093 1.380 . S
C1094 C1095 1.376 . S
C1094 H1117 0.930 . S
C1095 C1094 1.376 . S
C1095 C1096 1.370 . S
C1096 C1095 1.370 . S
C1096 C1097 1.396 . S
C1096 H1118 0.929 . S
C1097 C1092 1.373 . S
C1097 C1096 1.396 . S
C1097 H1119 0.929 . S
C1098 O1108 1.240 . S
C1098 O1109 1.289 1_556 S
C1099 O1110 1.258 . S
C1099 O1111 1.256 1_556 S
O1100 La1080 2.521 . S
O1100 C1082 1.261 . S
O1101 La1080 2.628 . S
O1101 C1082 1.243 . S
O1102 La1080 2.554 . S
O1102 C1089 1.240 . S
O1103 La1080 2.757 1_556 S
O1103 La1081 2.482 . S
O1103 C1089 1.289 1_556 S
O1104 La1080 2.470 . S
O1104 C1090 1.258 . S
O1105 La1081 2.503 . S
O1105 C1090 1.256 1_556 S
O1106 La1081 2.521 . S
O1106 C1091 1.261 . S
O1107 La1081 2.628 . S
O1107 C1091 1.243 . S
O1108 La1081 2.554 . S
O1108 C1098 1.240 . S
O1109 La1080 2.482 . S
O1109 La1081 2.757 1_554 S
O1109 C1098 1.289 1_554 S
O1110 La1081 2.470 . S
O1110 C1099 1.258 . S
O1111 La1080 2.503 . S
O1111 C1099 1.256 1_554 S
H1112 C1084 0.930 . S
H1113 C1085 0.930 . S
H1114 C1087 0.929 . S
H1115 C1088 0.929 . S
H1116 C1093 0.930 . S
H1117 C1094 0.930 . S
H1118 C1096 0.929 . S
H1119 C1097 0.929 . S
La1120 C1122 2.928 . S
La1120 O1140 2.521 . S
La1120 O1141 2.628 . S
La1120 O1142 2.554 . S
La1120 O1143 2.757 1_554 S
La1120 O1144 2.470 . S
La1120 O1149 2.482 . S
La1120 O1151 2.503 . S
La1121 C1131 2.928 . S
La1121 O1143 2.482 . S
La1121 O1145 2.503 . S
La1121 O1146 2.521 . S
La1121 O1147 2.628 . S
La1121 O1148 2.554 . S
La1121 O1149 2.757 1_556 S
La1121 O1150 2.470 . S
C1122 La1120 2.928 . S
C1122 C1123 1.503 . S
C1122 O1140 1.261 . S
C1122 O1141 1.243 . S
C1123 C1122 1.503 . S
C1123 C1124 1.394 . S
C1123 C1128 1.373 . S
C1124 C1123 1.394 . S
C1124 C1125 1.380 . S
C1124 H1152 0.930 . S
C1125 C1124 1.380 . S
C1125 C1126 1.376 . S
C1125 H1153 0.930 . S
C1126 C1125 1.376 . S
C1126 C1127 1.370 . S
C1127 C1126 1.370 . S
C1127 C1128 1.396 . S
C1127 H1154 0.929 . S
C1128 C1123 1.373 . S
C1128 C1127 1.396 . S
C1128 H1155 0.929 . S
C1129 O1142 1.240 . S
C1129 O1143 1.289 1_554 S
C1130 O1144 1.258 . S
C1130 O1145 1.256 1_554 S
C1131 La1121 2.928 . S
C1131 C1132 1.503 . S
C1131 O1146 1.261 . S
C1131 O1147 1.243 . S
C1132 C1131 1.503 . S
C1132 C1133 1.394 . S
C1132 C1137 1.373 . S
C1133 C1132 1.394 . S
C1133 C1134 1.380 . S
C1133 H1156 0.930 . S
C1134 C1133 1.380 . S
C1134 C1135 1.376 . S
C1134 H1157 0.930 . S
C1135 C1134 1.376 . S
C1135 C1136 1.370 . S
C1136 C1135 1.370 . S
C1136 C1137 1.396 . S
C1136 H1158 0.929 . S
C1137 C1132 1.373 . S
C1137 C1136 1.396 . S
C1137 H1159 0.929 . S
C1138 O1148 1.240 . S
C1138 O1149 1.289 1_556 S
C1139 O1150 1.258 . S
C1139 O1151 1.256 1_556 S
O1140 La1120 2.521 . S
O1140 C1122 1.261 . S
O1141 La1120 2.628 . S
O1141 C1122 1.243 . S
O1142 La1120 2.554 . S
O1142 C1129 1.240 . S
O1143 La1120 2.757 1_556 S
O1143 La1121 2.482 . S
O1143 C1129 1.289 1_556 S
O1144 La1120 2.470 . S
O1144 C1130 1.258 . S
O1145 La1121 2.503 . S
O1145 C1130 1.256 1_556 S
O1146 La1121 2.521 . S
O1146 C1131 1.261 . S
O1147 La1121 2.628 . S
O1147 C1131 1.243 . S
O1148 La1121 2.554 . S
O1148 C1138 1.240 . S
O1149 La1120 2.482 . S
O1149 La1121 2.757 1_554 S
O1149 C1138 1.289 1_554 S
O1150 La1121 2.470 . S
O1150 C1139 1.258 . S
O1151 La1120 2.503 . S
O1151 C1139 1.256 1_554 S
H1152 C1124 0.930 . S
H1153 C1125 0.930 . S
H1154 C1127 0.929 . S
H1155 C1128 0.929 . S
H1156 C1133 0.930 . S
H1157 C1134 0.930 . S
H1158 C1136 0.929 . S
H1159 C1137 0.929 . S
La1160 C1162 2.928 . S
La1160 O1180 2.521 . S
La1160 O1181 2.628 . S
La1160 O1182 2.554 . S
La1160 O1183 2.757 1_554 S
La1160 O1184 2.470 . S
La1160 O1189 2.482 . S
La1160 O1191 2.503 . S
La1161 C1171 2.928 . S
La1161 O1183 2.482 . S
La1161 O1185 2.503 . S
La1161 O1186 2.521 . S
La1161 O1187 2.628 . S
La1161 O1188 2.554 . S
La1161 O1189 2.757 1_556 S
La1161 O1190 2.470 . S
C1162 La1160 2.928 . S
C1162 C1163 1.503 . S
C1162 O1180 1.261 . S
C1162 O1181 1.243 . S
C1163 C1162 1.503 . S
C1163 C1164 1.394 . S
C1163 C1168 1.373 . S
C1164 C1163 1.394 . S
C1164 C1165 1.380 . S
C1164 H1192 0.930 . S
C1165 C1164 1.380 . S
C1165 C1166 1.376 . S
C1165 H1193 0.930 . S
C1166 C1165 1.376 . S
C1166 C1167 1.370 . S
C1167 C1166 1.370 . S
C1167 C1168 1.396 . S
C1167 H1194 0.929 . S
C1168 C1163 1.373 . S
C1168 C1167 1.396 . S
C1168 H1195 0.929 . S
C1169 O1182 1.240 . S
C1169 O1183 1.289 1_554 S
C1170 O1184 1.258 . S
C1170 O1185 1.256 1_554 S
C1171 La1161 2.928 . S
C1171 C1172 1.503 . S
C1171 O1186 1.261 . S
C1171 O1187 1.243 . S
C1172 C1171 1.503 . S
C1172 C1173 1.394 . S
C1172 C1177 1.373 . S
C1173 C1172 1.394 . S
C1173 C1174 1.380 . S
C1173 H1196 0.930 . S
C1174 C1173 1.380 . S
C1174 C1175 1.376 . S
C1174 H1197 0.930 . S
C1175 C1174 1.376 . S
C1175 C1176 1.370 . S
C1176 C1175 1.370 . S
C1176 C1177 1.396 . S
C1176 H1198 0.929 . S
C1177 C1172 1.373 . S
C1177 C1176 1.396 . S
C1177 H1199 0.929 . S
C1178 O1188 1.240 . S
C1178 O1189 1.289 1_556 S
C1179 O1190 1.258 . S
C1179 O1191 1.256 1_556 S
O1180 La1160 2.521 . S
O1180 C1162 1.261 . S
O1181 La1160 2.628 . S
O1181 C1162 1.243 . S
O1182 La1160 2.554 . S
O1182 C1169 1.240 . S
O1183 La1160 2.757 1_556 S
O1183 La1161 2.482 . S
O1183 C1169 1.289 1_556 S
O1184 La1160 2.470 . S
O1184 C1170 1.258 . S
O1185 La1161 2.503 . S
O1185 C1170 1.256 1_556 S
O1186 La1161 2.521 . S
O1186 C1171 1.261 . S
O1187 La1161 2.628 . S
O1187 C1171 1.243 . S
O1188 La1161 2.554 . S
O1188 C1178 1.240 . S
O1189 La1160 2.482 . S
O1189 La1161 2.757 1_554 S
O1189 C1178 1.289 1_554 S
O1190 La1161 2.470 . S
O1190 C1179 1.258 . S
O1191 La1160 2.503 . S
O1191 C1179 1.256 1_554 S
H1192 C1164 0.930 . S
H1193 C1165 0.930 . S
H1194 C1167 0.929 . S
H1195 C1168 0.929 . S
H1196 C1173 0.930 . S
H1197 C1174 0.930 . S
H1198 C1176 0.929 . S
H1199 C1177 0.929 . S
La1200 C1202 2.928 . S
La1200 O1220 2.521 . S
La1200 O1221 2.628 . S
La1200 O1222 2.554 . S
La1200 O1223 2.757 . S
La1200 O1224 2.470 . S
La1200 O1229 2.482 . S
La1200 O1231 2.503 . S
La1201 C1211 2.928 . S
La1201 O1223 2.482 . S
La1201 O1225 2.503 . S
La1201 O1226 2.521 . S
La1201 O1227 2.628 . S
La1201 O1228 2.554 . S
La1201 O1229 2.757 . S
La1201 O1230 2.470 . S
C1202 La1200 2.928 . S
C1202 C1203 1.503 . S
C1202 O1220 1.261 . S
C1202 O1221 1.243 . S
C1203 C1202 1.503 . S
C1203 C1204 1.394 . S
C1203 C1208 1.373 . S
C1204 C1203 1.394 . S
C1204 C1205 1.380 . S
C1204 H1232 0.930 . S
C1205 C1204 1.380 . S
C1205 C1206 1.376 . S
C1205 H1233 0.930 . S
C1206 C1205 1.376 . S
C1206 C1207 1.370 . S
C1207 C1206 1.370 . S
C1207 C1208 1.396 . S
C1207 H1234 0.929 . S
C1208 C1203 1.373 . S
C1208 C1207 1.396 . S
C1208 H1235 0.929 . S
C1209 O1222 1.240 . S
C1209 O1223 1.289 . S
C1210 O1224 1.258 . S
C1210 O1225 1.256 . S
C1211 La1201 2.928 . S
C1211 C1212 1.503 . S
C1211 O1226 1.261 . S
C1211 O1227 1.243 . S
C1212 C1211 1.503 . S
C1212 C1213 1.394 . S
C1212 C1217 1.373 . S
C1213 C1212 1.394 . S
C1213 C1214 1.380 . S
C1213 H1236 0.930 . S
C1214 C1213 1.380 . S
C1214 C1215 1.376 . S
C1214 H1237 0.930 . S
C1215 C1214 1.376 . S
C1215 C1216 1.370 . S
C1216 C1215 1.370 . S
C1216 C1217 1.396 . S
C1216 H1238 0.929 . S
C1217 C1212 1.373 . S
C1217 C1216 1.396 . S
C1217 H1239 0.929 . S
C1218 O1228 1.240 . S
C1218 O1229 1.289 . S
C1219 O1230 1.258 . S
C1219 O1231 1.256 . S
O1220 La1200 2.521 . S
O1220 C1202 1.261 . S
O1221 La1200 2.628 . S
O1221 C1202 1.243 . S
O1222 La1200 2.554 . S
O1222 C1209 1.240 . S
O1223 La1200 2.757 . S
O1223 La1201 2.482 . S
O1223 C1209 1.289 . S
O1224 La1200 2.470 . S
O1224 C1210 1.258 . S
O1225 La1201 2.503 . S
O1225 C1210 1.256 . S
O1226 La1201 2.521 . S
O1226 C1211 1.261 . S
O1227 La1201 2.628 . S
O1227 C1211 1.243 . S
O1228 La1201 2.554 . S
O1228 C1218 1.240 . S
O1229 La1200 2.482 . S
O1229 La1201 2.757 . S
O1229 C1218 1.289 . S
O1230 La1201 2.470 . S
O1230 C1219 1.258 . S
O1231 La1200 2.503 . S
O1231 C1219 1.256 . S
H1232 C1204 0.930 . S
H1233 C1205 0.930 . S
H1234 C1207 0.929 . S
H1235 C1208 0.929 . S
H1236 C1213 0.930 . S
H1237 C1214 0.930 . S
H1238 C1216 0.929 . S
H1239 C1217 0.929 . S
La1240 C1242 2.928 . S
La1240 O1260 2.521 . S
La1240 O1261 2.628 . S
La1240 O1262 2.554 . S
La1240 O1263 2.757 . S
La1240 O1264 2.470 . S
La1240 O1269 2.482 . S
La1240 O1271 2.503 . S
La1241 C1251 2.928 . S
La1241 O1263 2.482 . S
La1241 O1265 2.503 . S
La1241 O1266 2.521 . S
La1241 O1267 2.628 . S
La1241 O1268 2.554 . S
La1241 O1269 2.757 . S
La1241 O1270 2.470 . S
C1242 La1240 2.928 . S
C1242 C1243 1.503 . S
C1242 O1260 1.261 . S
C1242 O1261 1.243 . S
C1243 C1242 1.503 . S
C1243 C1244 1.394 . S
C1243 C1248 1.373 . S
C1244 C1243 1.394 . S
C1244 C1245 1.380 . S
C1244 H1272 0.930 . S
C1245 C1244 1.380 . S
C1245 C1246 1.376 . S
C1245 H1273 0.930 . S
C1246 C1245 1.376 . S
C1246 C1247 1.370 . S
C1247 C1246 1.370 . S
C1247 C1248 1.396 . S
C1247 H1274 0.929 . S
C1248 C1243 1.373 . S
C1248 C1247 1.396 . S
C1248 H1275 0.929 . S
C1249 O1262 1.240 . S
C1249 O1263 1.289 . S
C1250 O1264 1.258 . S
C1250 O1265 1.256 . S
C1251 La1241 2.928 . S
C1251 C1252 1.503 . S
C1251 O1266 1.261 . S
C1251 O1267 1.243 . S
C1252 C1251 1.503 . S
C1252 C1253 1.394 . S
C1252 C1257 1.373 . S
C1253 C1252 1.394 . S
C1253 C1254 1.380 . S
C1253 H1276 0.930 . S
C1254 C1253 1.380 . S
C1254 C1255 1.376 . S
C1254 H1277 0.930 . S
C1255 C1254 1.376 . S
C1255 C1256 1.370 . S
C1256 C1255 1.370 . S
C1256 C1257 1.396 . S
C1256 H1278 0.929 . S
C1257 C1252 1.373 . S
C1257 C1256 1.396 . S
C1257 H1279 0.929 . S
C1258 O1268 1.240 . S
C1258 O1269 1.289 . S
C1259 O1270 1.258 . S
C1259 O1271 1.256 . S
O1260 La1240 2.521 . S
O1260 C1242 1.261 . S
O1261 La1240 2.628 . S
O1261 C1242 1.243 . S
O1262 La1240 2.554 . S
O1262 C1249 1.240 . S
O1263 La1240 2.757 . S
O1263 La1241 2.482 . S
O1263 C1249 1.289 . S
O1264 La1240 2.470 . S
O1264 C1250 1.258 . S
O1265 La1241 2.503 . S
O1265 C1250 1.256 . S
O1266 La1241 2.521 . S
O1266 C1251 1.261 . S
O1267 La1241 2.628 . S
O1267 C1251 1.243 . S
O1268 La1241 2.554 . S
O1268 C1258 1.240 . S
O1269 La1240 2.482 . S
O1269 La1241 2.757 . S
O1269 C1258 1.289 . S
O1270 La1241 2.470 . S
O1270 C1259 1.258 . S
O1271 La1240 2.503 . S
O1271 C1259 1.256 . S
H1272 C1244 0.930 . S
H1273 C1245 0.930 . S
H1274 C1247 0.929 . S
H1275 C1248 0.929 . S
H1276 C1253 0.930 . S
H1277 C1254 0.930 . S
H1278 C1256 0.929 . S
H1279 C1257 0.929 . S
La1280 C1282 2.928 . S
La1280 O1300 2.521 . S
La1280 O1301 2.628 . S
La1280 O1302 2.554 . S
La1280 O1303 2.757 . S
La1280 O1304 2.470 . S
La1280 O1309 2.482 . S
La1280 O1311 2.503 . S
La1281 C1291 2.928 . S
La1281 O1303 2.482 . S
La1281 O1305 2.503 . S
La1281 O1306 2.521 . S
La1281 O1307 2.628 . S
La1281 O1308 2.554 . S
La1281 O1309 2.757 . S
La1281 O1310 2.470 . S
C1282 La1280 2.928 . S
C1282 C1283 1.503 . S
C1282 O1300 1.261 . S
C1282 O1301 1.243 . S
C1283 C1282 1.503 . S
C1283 C1284 1.394 . S
C1283 C1288 1.373 . S
C1284 C1283 1.394 . S
C1284 C1285 1.380 . S
C1284 H1312 0.930 . S
C1285 C1284 1.380 . S
C1285 C1286 1.376 . S
C1285 H1313 0.930 . S
C1286 C1285 1.376 . S
C1286 C1287 1.370 . S
C1287 C1286 1.370 . S
C1287 C1288 1.396 . S
C1287 H1314 0.929 . S
C1288 C1283 1.373 . S
C1288 C1287 1.396 . S
C1288 H1315 0.929 . S
C1289 O1302 1.240 . S
C1289 O1303 1.289 . S
C1290 O1304 1.258 . S
C1290 O1305 1.256 . S
C1291 La1281 2.928 . S
C1291 C1292 1.503 . S
C1291 O1306 1.261 . S
C1291 O1307 1.243 . S
C1292 C1291 1.503 . S
C1292 C1293 1.394 . S
C1292 C1297 1.373 . S
C1293 C1292 1.394 . S
C1293 C1294 1.380 . S
C1293 H1316 0.930 . S
C1294 C1293 1.380 . S
C1294 C1295 1.376 . S
C1294 H1317 0.930 . S
C1295 C1294 1.376 . S
C1295 C1296 1.370 . S
C1296 C1295 1.370 . S
C1296 C1297 1.396 . S
C1296 H1318 0.929 . S
C1297 C1292 1.373 . S
C1297 C1296 1.396 . S
C1297 H1319 0.929 . S
C1298 O1308 1.240 . S
C1298 O1309 1.289 . S
C1299 O1310 1.258 . S
C1299 O1311 1.256 . S
O1300 La1280 2.521 . S
O1300 C1282 1.261 . S
O1301 La1280 2.628 . S
O1301 C1282 1.243 . S
O1302 La1280 2.554 . S
O1302 C1289 1.240 . S
O1303 La1280 2.757 . S
O1303 La1281 2.482 . S
O1303 C1289 1.289 . S
O1304 La1280 2.470 . S
O1304 C1290 1.258 . S
O1305 La1281 2.503 . S
O1305 C1290 1.256 . S
O1306 La1281 2.521 . S
O1306 C1291 1.261 . S
O1307 La1281 2.628 . S
O1307 C1291 1.243 . S
O1308 La1281 2.554 . S
O1308 C1298 1.240 . S
O1309 La1280 2.482 . S
O1309 La1281 2.757 . S
O1309 C1298 1.289 . S
O1310 La1281 2.470 . S
O1310 C1299 1.258 . S
O1311 La1280 2.503 . S
O1311 C1299 1.256 . S
H1312 C1284 0.930 . S
H1313 C1285 0.930 . S
H1314 C1287 0.929 . S
H1315 C1288 0.929 . S
H1316 C1293 0.930 . S
H1317 C1294 0.930 . S
H1318 C1296 0.929 . S
H1319 C1297 0.929 . S
La1320 C1322 2.928 . S
La1320 O1340 2.521 . S
La1320 O1341 2.628 . S
La1320 O1342 2.554 . S
La1320 O1343 2.757 . S
La1320 O1344 2.470 . S
La1320 O1349 2.482 . S
La1320 O1351 2.503 . S
La1321 C1331 2.928 . S
La1321 O1343 2.482 . S
La1321 O1345 2.503 . S
La1321 O1346 2.521 . S
La1321 O1347 2.628 . S
La1321 O1348 2.554 . S
La1321 O1349 2.757 . S
La1321 O1350 2.470 . S
C1322 La1320 2.928 . S
C1322 C1323 1.503 . S
C1322 O1340 1.261 . S
C1322 O1341 1.243 . S
C1323 C1322 1.503 . S
C1323 C1324 1.394 . S
C1323 C1328 1.373 . S
C1324 C1323 1.394 . S
C1324 C1325 1.380 . S
C1324 H1352 0.930 . S
C1325 C1324 1.380 . S
C1325 C1326 1.376 . S
C1325 H1353 0.930 . S
C1326 C1325 1.376 . S
C1326 C1327 1.370 . S
C1327 C1326 1.370 . S
C1327 C1328 1.396 . S
C1327 H1354 0.929 . S
C1328 C1323 1.373 . S
C1328 C1327 1.396 . S
C1328 H1355 0.929 . S
C1329 O1342 1.240 . S
C1329 O1343 1.289 . S
C1330 O1344 1.258 . S
C1330 O1345 1.256 . S
C1331 La1321 2.928 . S
C1331 C1332 1.503 . S
C1331 O1346 1.261 . S
C1331 O1347 1.243 . S
C1332 C1331 1.503 . S
C1332 C1333 1.394 . S
C1332 C1337 1.373 . S
C1333 C1332 1.394 . S
C1333 C1334 1.380 . S
C1333 H1356 0.930 . S
C1334 C1333 1.380 . S
C1334 C1335 1.376 . S
C1334 H1357 0.930 . S
C1335 C1334 1.376 . S
C1335 C1336 1.370 . S
C1336 C1335 1.370 . S
C1336 C1337 1.396 . S
C1336 H1358 0.929 1_455 S
C1337 C1332 1.373 . S
C1337 C1336 1.396 . S
C1337 H1359 0.929 . S
C1338 O1348 1.240 . S
C1338 O1349 1.289 . S
C1339 O1350 1.258 . S
C1339 O1351 1.256 . S
O1340 La1320 2.521 . S
O1340 C1322 1.261 . S
O1341 La1320 2.628 . S
O1341 C1322 1.243 . S
O1342 La1320 2.554 . S
O1342 C1329 1.240 . S
O1343 La1320 2.757 . S
O1343 La1321 2.482 . S
O1343 C1329 1.289 . S
O1344 La1320 2.470 . S
O1344 C1330 1.258 . S
O1345 La1321 2.503 . S
O1345 C1330 1.256 . S
O1346 La1321 2.521 . S
O1346 C1331 1.261 . S
O1347 La1321 2.628 . S
O1347 C1331 1.243 . S
O1348 La1321 2.554 . S
O1348 C1338 1.240 . S
O1349 La1320 2.482 . S
O1349 La1321 2.757 . S
O1349 C1338 1.289 . S
O1350 La1321 2.470 . S
O1350 C1339 1.258 . S
O1351 La1320 2.503 . S
O1351 C1339 1.256 . S
H1352 C1324 0.930 . S
H1353 C1325 0.930 . S
H1354 C1327 0.929 . S
H1355 C1328 0.929 . S
H1356 C1333 0.930 . S
H1357 C1334 0.930 . S
H1358 C1336 0.929 1_655 S
H1359 C1337 0.929 . S
La1360 C1362 2.928 . S
La1360 O1380 2.521 . S
La1360 O1381 2.628 . S
La1360 O1382 2.554 . S
La1360 O1383 2.757 . S
La1360 O1384 2.470 . S
La1360 O1389 2.482 . S
La1360 O1391 2.503 . S
La1361 C1371 2.928 . S
La1361 O1383 2.482 . S
La1361 O1385 2.503 . S
La1361 O1386 2.521 . S
La1361 O1387 2.628 . S
La1361 O1388 2.554 . S
La1361 O1389 2.757 . S
La1361 O1390 2.470 . S
C1362 La1360 2.928 . S
C1362 C1363 1.503 . S
C1362 O1380 1.261 . S
C1362 O1381 1.243 . S
C1363 C1362 1.503 . S
C1363 C1364 1.394 . S
C1363 C1368 1.373 . S
C1364 C1363 1.394 . S
C1364 C1365 1.380 . S
C1364 H1392 0.930 . S
C1365 C1364 1.380 . S
C1365 C1366 1.376 . S
C1365 H1393 0.930 . S
C1366 C1365 1.376 . S
C1366 C1367 1.370 . S
C1367 C1366 1.370 . S
C1367 C1368 1.396 . S
C1367 H1394 0.929 . S
C1368 C1363 1.373 . S
C1368 C1367 1.396 . S
C1368 H1395 0.929 . S
C1369 O1382 1.240 . S
C1369 O1383 1.289 . S
C1370 O1384 1.258 . S
C1370 O1385 1.256 . S
C1371 La1361 2.928 . S
C1371 C1372 1.503 . S
C1371 O1386 1.261 . S
C1371 O1387 1.243 . S
C1372 C1371 1.503 . S
C1372 C1373 1.394 . S
C1372 C1377 1.373 . S
C1373 C1372 1.394 . S
C1373 C1374 1.380 . S
C1373 H1396 0.930 . S
C1374 C1373 1.380 . S
C1374 C1375 1.376 . S
C1374 H1397 0.930 . S
C1375 C1374 1.376 . S
C1375 C1376 1.370 . S
C1376 C1375 1.370 . S
C1376 C1377 1.396 . S
C1376 H1398 0.929 . S
C1377 C1372 1.373 . S
C1377 C1376 1.396 . S
C1377 H1399 0.929 . S
C1378 O1388 1.240 . S
C1378 O1389 1.289 . S
C1379 O1390 1.258 . S
C1379 O1391 1.256 . S
O1380 La1360 2.521 . S
O1380 C1362 1.261 . S
O1381 La1360 2.628 . S
O1381 C1362 1.243 . S
O1382 La1360 2.554 . S
O1382 C1369 1.240 . S
O1383 La1360 2.757 . S
O1383 La1361 2.482 . S
O1383 C1369 1.289 . S
O1384 La1360 2.470 . S
O1384 C1370 1.258 . S
O1385 La1361 2.503 . S
O1385 C1370 1.256 . S
O1386 La1361 2.521 . S
O1386 C1371 1.261 . S
O1387 La1361 2.628 . S
O1387 C1371 1.243 . S
O1388 La1361 2.554 . S
O1388 C1378 1.240 . S
O1389 La1360 2.482 . S
O1389 La1361 2.757 . S
O1389 C1378 1.289 . S
O1390 La1361 2.470 . S
O1390 C1379 1.258 . S
O1391 La1360 2.503 . S
O1391 C1379 1.256 . S
H1392 C1364 0.930 . S
H1393 C1365 0.930 . S
H1394 C1367 0.929 . S
H1395 C1368 0.929 . S
H1396 C1373 0.930 . S
H1397 C1374 0.930 . S
H1398 C1376 0.929 . S
H1399 C1377 0.929 . S
La1400 C1402 2.928 . S
La1400 O1420 2.521 . S
La1400 O1421 2.628 . S
La1400 O1422 2.554 . S
La1400 O1423 2.757 . S
La1400 O1424 2.470 . S
La1400 O1429 2.482 . S
La1400 O1431 2.503 . S
La1401 C1411 2.928 . S
La1401 O1423 2.482 . S
La1401 O1425 2.503 . S
La1401 O1426 2.521 . S
La1401 O1427 2.628 . S
La1401 O1428 2.554 . S
La1401 O1429 2.757 . S
La1401 O1430 2.470 . S
C1402 La1400 2.928 . S
C1402 C1403 1.503 . S
C1402 O1420 1.261 . S
C1402 O1421 1.243 . S
C1403 C1402 1.503 . S
C1403 C1404 1.394 . S
C1403 C1408 1.373 . S
C1404 C1403 1.394 . S
C1404 C1405 1.380 . S
C1404 H1432 0.930 . S
C1405 C1404 1.380 . S
C1405 C1406 1.376 . S
C1405 H1433 0.930 . S
C1406 C1405 1.376 . S
C1406 C1407 1.370 . S
C1407 C1406 1.370 . S
C1407 C1408 1.396 . S
C1407 H1434 0.929 . S
C1408 C1403 1.373 . S
C1408 C1407 1.396 . S
C1408 H1435 0.929 . S
C1409 O1422 1.240 . S
C1409 O1423 1.289 . S
C1410 O1424 1.258 . S
C1410 O1425 1.256 . S
C1411 La1401 2.928 . S
C1411 C1412 1.503 . S
C1411 O1426 1.261 . S
C1411 O1427 1.243 . S
C1412 C1411 1.503 . S
C1412 C1413 1.394 . S
C1412 C1417 1.373 . S
C1413 C1412 1.394 . S
C1413 C1414 1.380 . S
C1413 H1436 0.930 . S
C1414 C1413 1.380 . S
C1414 C1415 1.376 . S
C1414 H1437 0.930 . S
C1415 C1414 1.376 . S
C1415 C1416 1.370 . S
C1416 C1415 1.370 . S
C1416 C1417 1.396 . S
C1416 H1438 0.929 1_565 S
C1417 C1412 1.373 . S
C1417 C1416 1.396 . S
C1417 H1439 0.929 . S
C1418 O1428 1.240 . S
C1418 O1429 1.289 . S
C1419 O1430 1.258 . S
C1419 O1431 1.256 . S
O1420 La1400 2.521 . S
O1420 C1402 1.261 . S
O1421 La1400 2.628 . S
O1421 C1402 1.243 . S
O1422 La1400 2.554 . S
O1422 C1409 1.240 . S
O1423 La1400 2.757 . S
O1423 La1401 2.482 . S
O1423 C1409 1.289 . S
O1424 La1400 2.470 . S
O1424 C1410 1.258 . S
O1425 La1401 2.503 . S
O1425 C1410 1.256 . S
O1426 La1401 2.521 . S
O1426 C1411 1.261 . S
O1427 La1401 2.628 . S
O1427 C1411 1.243 . S
O1428 La1401 2.554 . S
O1428 C1418 1.240 . S
O1429 La1400 2.482 . S
O1429 La1401 2.757 . S
O1429 C1418 1.289 . S
O1430 La1401 2.470 . S
O1430 C1419 1.258 . S
O1431 La1400 2.503 . S
O1431 C1419 1.256 . S
H1432 C1404 0.930 . S
H1433 C1405 0.930 . S
H1434 C1407 0.929 . S
H1435 C1408 0.929 . S
H1436 C1413 0.930 . S
H1437 C1414 0.930 . S
H1438 C1416 0.929 1_545 S
H1439 C1417 0.929 . S
H1440 C1448 0.929 . S
H1441 C1450 0.930 . S
H1442 C1452 0.930 . S
H1443 C1455 0.929 . S
H1444 C1458 0.930 . S
H1445 C1460 0.960 . S
H1446 C1460 0.960 . S
H1447 C1460 0.960 . S
C1448 H1440 0.929 . S
C1448 C1449 1.377 . S
C1448 C1450 1.384 . S
C1449 C1448 1.377 . S
C1449 C1455 1.390 . S
C1450 H1441 0.930 . S
C1450 C1448 1.384 . S
C1450 C1451 1.372 . S
C1451 C1450 1.372 . S
C1451 C1452 1.400 . S
C1451 C1456 1.490 . S
C1452 H1442 0.930 . S
C1452 C1451 1.400 . S
C1452 C1455 1.386 . S
H1453 C1469 0.930 . S
H1454 C1470 0.931 . S
C1455 H1443 0.929 . S
C1455 C1449 1.390 . S
C1455 C1452 1.386 . S
C1456 C1451 1.490 . S
C1456 C1458 1.395 . S
C1456 C1459 1.403 . S
H1457 C1463 0.930 . S
C1458 H1444 0.930 . S
C1458 C1456 1.395 . S
C1458 C1461 1.403 . S
C1459 C1456 1.403 . S
C1459 C1460 1.524 . S
C1459 C1463 1.400 . S
C1460 H1445 0.960 . S
C1460 H1446 0.960 . S
C1460 H1447 0.960 . S
C1460 C1459 1.524 . S
C1461 C1458 1.403 . S
C1461 C1462 1.392 . S
C1461 C1465 1.495 . S
C1462 C1461 1.392 . S
C1462 C1463 1.385 . S
C1462 C1464 1.478 . S
C1463 H1457 0.930 . S
C1463 C1459 1.400 . S
C1463 C1462 1.385 . S
C1464 C1462 1.478 . S
C1464 C1466 1.380 1_545 S
C1464 C1470 1.383 1_545 S
C1465 C1461 1.495 . S
C1465 H1471 0.959 . S
C1465 H1472 0.961 . S
C1465 H1473 0.960 . S
C1466 C1464 1.380 1_565 S
C1466 C1467 1.397 . S
C1466 H1474 0.929 1_565 S
C1467 C1466 1.397 . S
C1467 C1468 1.383 . S
C1467 H1475 0.929 . S
C1468 C1467 1.383 . S
C1468 C1469 1.377 . S
C1469 H1453 0.930 . S
C1469 C1468 1.377 . S
C1469 C1470 1.379 . S
C1470 H1454 0.931 . S
C1470 C1464 1.383 1_565 S
C1470 C1469 1.379 . S
H1471 C1465 0.959 . S
H1472 C1465 0.961 . S
H1473 C1465 0.960 . S
H1474 C1466 0.929 1_545 S
H1475 C1467 0.929 . S
H1476 C1484 0.929 . S
H1477 C1486 0.930 . S
H1478 C1488 0.930 . S
H1479 C1491 0.929 . S
H1480 C1494 0.930 . S
H1481 C1496 0.960 . S
H1482 C1496 0.960 . S
H1483 C1496 0.960 . S
C1484 H1476 0.929 . S
C1484 C1485 1.377 . S
C1484 C1486 1.384 . S
C1485 C1484 1.377 . S
C1485 C1491 1.390 . S
C1486 H1477 0.930 . S
C1486 C1484 1.384 . S
C1486 C1487 1.372 1_455 S
C1487 C1486 1.372 1_655 S
C1487 C1488 1.400 . S
C1487 C1492 1.490 . S
C1488 H1478 0.930 . S
C1488 C1487 1.400 . S
C1488 C1491 1.386 1_655 S
H1489 C1505 0.930 . S
H1490 C1506 0.931 . S
C1491 H1479 0.929 . S
C1491 C1485 1.390 . S
C1491 C1488 1.386 1_455 S
C1492 C1487 1.490 . S
C1492 C1494 1.395 . S
C1492 C1495 1.403 . S
H1493 C1499 0.930 . S
C1494 H1480 0.930 . S
C1494 C1492 1.395 . S
C1494 C1497 1.403 . S
C1495 C1492 1.403 . S
C1495 C1496 1.524 . S
C1495 C1499 1.400 . S
C1496 H1481 0.960 . S
C1496 H1482 0.960 . S
C1496 H1483 0.960 . S
C1496 C1495 1.524 . S
C1497 C1494 1.403 . S
C1497 C1498 1.392 . S
C1497 C1501 1.495 . S
C1498 C1497 1.392 . S
C1498 C1499 1.385 . S
C1498 C1500 1.478 . S
C1499 H1493 0.930 . S
C1499 C1495 1.400 . S
C1499 C1498 1.385 . S
C1500 C1498 1.478 . S
C1500 C1502 1.381 1_545 S
C1500 C1506 1.383 . S
C1501 C1497 1.495 . S
C1501 H1507 0.959 . S
C1501 H1508 0.961 . S
C1501 H1509 0.960 . S
C1502 C1500 1.381 1_565 S
C1502 C1503 1.394 . S
C1502 H1510 0.930 . S
C1503 C1502 1.394 . S
C1503 C1504 1.383 . S
C1503 H1511 0.929 . S
C1504 C1503 1.383 . S
C1504 C1505 1.377 1_565 S
C1505 H1489 0.930 . S
C1505 C1504 1.377 1_545 S
C1505 C1506 1.379 . S
C1506 H1490 0.931 . S
C1506 C1500 1.383 . S
C1506 C1505 1.379 . S
H1507 C1501 0.959 . S
H1508 C1501 0.961 . S
H1509 C1501 0.960 . S
H1510 C1502 0.930 . S
H1511 C1503 0.929 . S
H1512 C1520 0.929 . S
H1513 C1522 0.930 . S
H1514 C1524 0.930 . S
H1515 C1527 0.929 . S
H1516 C1530 0.930 . S
H1517 C1532 0.960 . S
H1518 C1532 0.960 . S
H1519 C1532 0.960 . S
C1520 H1512 0.929 . S
C1520 C1521 1.377 . S
C1520 C1522 1.384 1_455 S
C1521 C1520 1.377 . S
C1521 C1527 1.390 . S
C1522 H1513 0.930 . S
C1522 C1520 1.384 1_655 S
C1522 C1523 1.372 . S
C1523 C1522 1.372 . S
C1523 C1524 1.400 . S
C1523 C1528 1.490 . S
C1524 H1514 0.930 . S
C1524 C1523 1.400 . S
C1524 C1527 1.386 1_655 S
H1525 C1541 0.930 . S
H1526 C1542 0.931 . S
C1527 H1515 0.929 . S
C1527 C1521 1.390 . S
C1527 C1524 1.386 1_455 S
C1528 C1523 1.490 . S
C1528 C1530 1.395 . S
C1528 C1531 1.403 . S
H1529 C1535 0.930 . S
C1530 H1516 0.930 . S
C1530 C1528 1.395 . S
C1530 C1533 1.403 . S
C1531 C1528 1.403 . S
C1531 C1532 1.524 . S
C1531 C1535 1.400 . S
C1532 H1517 0.960 . S
C1532 H1518 0.960 . S
C1532 H1519 0.960 . S
C1532 C1531 1.524 . S
C1533 C1530 1.403 . S
C1533 C1534 1.392 . S
C1533 C1537 1.495 . S
C1534 C1533 1.392 . S
C1534 C1535 1.385 . S
C1534 C1536 1.478 . S
C1535 H1529 0.930 . S
C1535 C1531 1.400 . S
C1535 C1534 1.385 . S
C1536 C1534 1.478 . S
C1536 C1538 1.381 . S
C1536 C1542 1.383 . S
C1537 C1533 1.495 . S
C1537 H1543 0.959 . S
C1537 H1544 0.961 . S
C1537 H1545 0.960 . S
C1538 C1536 1.381 . S
C1538 C1539 1.394 . S
C1538 H1546 0.930 . S
C1539 C1538 1.394 . S
C1539 C1540 1.383 . S
C1539 H1547 0.929 . S
C1540 C1539 1.383 . S
C1540 C1541 1.377 . S
C1541 H1525 0.930 . S
C1541 C1540 1.377 . S
C1541 C1542 1.379 . S
C1542 H1526 0.931 . S
C1542 C1536 1.383 . S
C1542 C1541 1.379 . S
H1543 C1537 0.959 . S
H1544 C1537 0.961 . S
H1545 C1537 0.960 . S
H1546 C1538 0.930 . S
H1547 C1539 0.929 . S
H1548 C1556 0.929 . S
H1549 C1558 0.930 . S
H1550 C1560 0.930 . S
H1551 C1563 0.929 . S
H1552 C1566 0.930 . S
H1553 C1568 0.960 . S
H1554 C1568 0.960 . S
H1555 C1568 0.960 . S
C1556 H1548 0.929 . S
C1556 C1557 1.377 . S
C1556 C1558 1.384 . S
C1557 C1556 1.377 . S
C1557 C1563 1.390 . S
C1558 H1549 0.930 . S
C1558 C1556 1.384 . S
C1558 C1559 1.372 . S
C1559 C1558 1.372 . S
C1559 C1560 1.400 . S
C1559 C1564 1.490 . S
C1560 H1550 0.930 . S
C1560 C1559 1.400 . S
C1560 C1563 1.386 . S
H1561 C1577 0.930 . S
H1562 C1578 0.931 1_455 S
C1563 H1551 0.929 . S
C1563 C1557 1.390 . S
C1563 C1560 1.386 . S
C1564 C1559 1.490 . S
C1564 C1566 1.395 . S
C1564 C1567 1.403 . S
H1565 C1571 0.930 . S
C1566 H1552 0.930 . S
C1566 C1564 1.395 . S
C1566 C1569 1.403 . S
C1567 C1564 1.403 . S
C1567 C1568 1.524 . S
C1567 C1571 1.400 . S
C1568 H1553 0.960 . S
C1568 H1554 0.960 . S
C1568 H1555 0.960 . S
C1568 C1567 1.524 . S
C1569 C1566 1.403 . S
C1569 C1570 1.392 . S
C1569 C1573 1.495 . S
C1570 C1569 1.392 . S
C1570 C1571 1.385 . S
C1570 C1572 1.478 . S
C1571 H1565 0.930 . S
C1571 C1567 1.400 . S
C1571 C1570 1.385 . S
C1572 C1570 1.478 . S
C1572 C1574 1.381 1_455 S
C1572 C1578 1.383 1_455 S
C1573 C1569 1.495 . S
C1573 H1579 0.959 . S
C1573 H1580 0.961 . S
C1573 H1581 0.960 . S
C1574 C1572 1.381 1_655 S
C1574 C1575 1.394 . S
C1574 H1582 0.930 . S
C1575 C1574 1.394 . S
C1575 C1576 1.383 . S
C1575 H1583 0.929 . S
C1576 C1575 1.383 . S
C1576 C1577 1.377 . S
C1577 H1561 0.930 . S
C1577 C1576 1.377 . S
C1577 C1578 1.379 . S
C1578 H1562 0.931 1_655 S
C1578 C1572 1.383 1_655 S
C1578 C1577 1.379 . S
H1579 C1573 0.959 . S
H1580 C1573 0.961 . S
H1581 C1573 0.960 . S
H1582 C1574 0.930 . S
H1583 C1575 0.929 . S
H1584 C1592 0.929 . S
H1585 C1594 0.930 . S
H1586 C1596 0.930 . S
H1587 C1599 0.929 . S
H1588 C1602 0.930 . S
H1589 C1604 0.960 . S
H1590 C1604 0.960 . S
H1591 C1604 0.960 . S
C1592 H1584 0.929 . S
C1592 C1593 1.377 . S
C1592 C1594 1.384 . S
C1593 C1592 1.377 . S
C1593 C1599 1.390 . S
C1594 H1585 0.930 . S
C1594 C1592 1.384 . S
C1594 C1595 1.372 . S
C1595 C1594 1.372 . S
C1595 C1596 1.400 . S
C1595 C1600 1.490 . S
C1596 H1586 0.930 . S
C1596 C1595 1.400 . S
C1596 C1599 1.386 . S
H1597 C1613 0.930 . S
H1598 C1614 0.931 . S
C1599 H1587 0.929 . S
C1599 C1593 1.390 . S
C1599 C1596 1.386 . S
C1600 C1595 1.490 . S
C1600 C1602 1.395 . S
C1600 C1603 1.403 . S
H1601 C1607 0.930 . S
C1602 H1588 0.930 . S
C1602 C1600 1.395 . S
C1602 C1605 1.403 . S
C1603 C1600 1.403 . S
C1603 C1604 1.524 . S
C1603 C1607 1.400 . S
C1604 H1589 0.960 . S
C1604 H1590 0.960 . S
C1604 H1591 0.960 . S
C1604 C1603 1.524 . S
C1605 C1602 1.403 . S
C1605 C1606 1.392 . S
C1605 C1609 1.495 . S
C1606 C1605 1.392 . S
C1606 C1607 1.385 . S
C1606 C1608 1.478 . S
C1607 H1601 0.930 . S
C1607 C1603 1.400 . S
C1607 C1606 1.385 . S
C1608 C1606 1.478 . S
C1608 C1610 1.381 . S
C1608 C1614 1.383 . S
C1609 C1605 1.495 . S
C1609 H1615 0.959 . S
C1609 H1616 0.961 . S
C1609 H1617 0.960 . S
C1610 C1608 1.381 . S
C1610 C1611 1.394 1_565 S
C1610 H1618 0.930 . S
C1611 C1610 1.394 1_545 S
C1611 C1612 1.383 . S
C1611 H1619 0.929 . S
C1612 C1611 1.383 . S
C1612 C1613 1.377 . S
C1613 H1597 0.930 . S
C1613 C1612 1.377 . S
C1613 C1614 1.379 1_545 S
C1614 H1598 0.931 . S
C1614 C1608 1.383 . S
C1614 C1613 1.379 1_565 S
H1615 C1609 0.959 . S
H1616 C1609 0.961 . S
H1617 C1609 0.960 . S
H1618 C1610 0.930 . S
H1619 C1611 0.929 . S
H1620 C1628 0.929 . S
H1621 C1630 0.930 . S
H1622 C1632 0.930 . S
H1623 C1635 0.929 . S
H1624 C1638 0.930 . S
H1625 C1640 0.960 . S
H1626 C1640 0.960 . S
H1627 C1640 0.960 . S
C1628 H1620 0.929 . S
C1628 C1629 1.377 1_455 S
C1628 C1630 1.384 . S
C1629 C1628 1.377 1_655 S
C1629 C1635 1.390 . S
C1630 H1621 0.930 . S
C1630 C1628 1.384 . S
C1630 C1631 1.372 . S
C1631 C1630 1.372 . S
C1631 C1632 1.400 . S
C1631 C1636 1.490 . S
C1632 H1622 0.930 . S
C1632 C1631 1.400 . S
C1632 C1635 1.386 1_455 S
H1633 C1649 0.930 . S
H1634 C1650 0.931 . S
C1635 H1623 0.929 . S
C1635 C1629 1.390 . S
C1635 C1632 1.386 1_655 S
C1636 C1631 1.490 . S
C1636 C1638 1.395 . S
C1636 C1639 1.403 . S
H1637 C1643 0.930 . S
C1638 H1624 0.930 . S
C1638 C1636 1.395 . S
C1638 C1641 1.403 . S
C1639 C1636 1.403 . S
C1639 C1640 1.524 . S
C1639 C1643 1.400 . S
C1640 H1625 0.960 . S
C1640 H1626 0.960 . S
C1640 H1627 0.960 . S
C1640 C1639 1.524 . S
C1641 C1638 1.403 . S
C1641 C1642 1.392 . S
C1641 C1645 1.495 . S
C1642 C1641 1.392 . S
C1642 C1643 1.385 . S
C1642 C1644 1.478 . S
C1643 H1637 0.930 . S
C1643 C1639 1.400 . S
C1643 C1642 1.385 . S
C1644 C1642 1.478 . S
C1644 C1646 1.381 . S
C1644 C1650 1.383 1_565 S
C1645 C1641 1.495 . S
C1645 H1651 0.959 . S
C1645 H1652 0.961 . S
C1645 H1653 0.960 . S
C1646 C1644 1.381 . S
C1646 C1647 1.394 1_565 S
C1646 H1654 0.930 . S
C1647 C1646 1.394 1_545 S
C1647 C1648 1.383 . S
C1647 H1655 0.929 . S
C1648 C1647 1.383 . S
C1648 C1649 1.377 . S
C1649 H1633 0.930 . S
C1649 C1648 1.377 . S
C1649 C1650 1.379 . S
C1650 H1634 0.931 . S
C1650 C1644 1.383 1_545 S
C1650 C1649 1.379 . S
H1651 C1645 0.959 . S
H1652 C1645 0.961 . S
H1653 C1645 0.960 . S
H1654 C1646 0.930 . S
H1655 C1647 0.929 . S
H1656 C1664 0.929 . S
H1657 C1666 0.930 . S
H1658 C1668 0.930 . S
H1659 C1671 0.929 . S
H1660 C1674 0.930 . S
H1661 C1676 0.960 . S
H1662 C1676 0.960 . S
H1663 C1676 0.960 . S
C1664 H1656 0.929 . S
C1664 C1665 1.377 . S
C1664 C1666 1.384 . S
C1665 C1664 1.377 . S
C1665 C1671 1.390 . S
C1666 H1657 0.930 . S
C1666 C1664 1.384 . S
C1666 C1667 1.372 . S
C1667 C1666 1.372 . S
C1667 C1668 1.400 . S
C1667 C1672 1.490 . S
C1668 H1658 0.930 . S
C1668 C1667 1.400 . S
C1668 C1671 1.386 . S
H1669 C1685 0.930 . S
H1670 C1686 0.931 . S
C1671 H1659 0.929 . S
C1671 C1665 1.390 . S
C1671 C1668 1.386 . S
C1672 C1667 1.490 . S
C1672 C1674 1.395 . S
C1672 C1675 1.403 . S
H1673 C1679 0.930 . S
C1674 H1660 0.930 . S
C1674 C1672 1.395 . S
C1674 C1677 1.403 . S
C1675 C1672 1.403 . S
C1675 C1676 1.524 . S
C1675 C1679 1.400 . S
C1676 H1661 0.960 . S
C1676 H1662 0.960 . S
C1676 H1663 0.960 . S
C1676 C1675 1.524 . S
C1677 C1674 1.403 . S
C1677 C1678 1.392 . S
C1677 C1681 1.495 . S
C1678 C1677 1.392 . S
C1678 C1679 1.385 . S
C1678 C1680 1.478 . S
C1679 H1673 0.930 . S
C1679 C1675 1.400 . S
C1679 C1678 1.385 . S
C1680 C1678 1.478 . S
C1680 C1682 1.381 . S
C1680 C1686 1.383 1_565 S
C1681 C1677 1.495 . S
C1681 H1687 0.959 . S
C1681 H1688 0.961 . S
C1681 H1689 0.960 . S
C1682 C1680 1.381 . S
C1682 C1683 1.394 1_565 S
C1682 H1690 0.930 . S
C1683 C1682 1.394 1_545 S
C1683 C1684 1.383 . S
C1683 H1691 0.929 . S
C1684 C1683 1.383 . S
C1684 C1685 1.377 . S
C1685 H1669 0.930 . S
C1685 C1684 1.377 . S
C1685 C1686 1.379 . S
C1686 H1670 0.931 . S
C1686 C1680 1.383 1_545 S
C1686 C1685 1.379 . S
H1687 C1681 0.959 . S
H1688 C1681 0.961 . S
H1689 C1681 0.960 . S
H1690 C1682 0.930 . S
H1691 C1683 0.929 . S
H1692 C1700 0.929 . S
H1693 C1702 0.930 . S
H1694 C1704 0.930 . S
H1695 C1707 0.929 . S
H1696 C1710 0.930 . S
H1697 C1712 0.960 . S
H1698 C1712 0.960 . S
H1699 C1712 0.960 . S
C1700 H1692 0.929 . S
C1700 C1701 1.377 . S
C1700 C1702 1.384 1_545 S
C1701 C1700 1.377 . S
C1701 C1707 1.390 . S
C1702 H1693 0.930 . S
C1702 C1700 1.384 1_565 S
C1702 C1703 1.372 . S
C1703 C1702 1.372 . S
C1703 C1704 1.400 . S
C1703 C1708 1.490 . S
C1704 H1694 0.930 . S
C1704 C1703 1.400 . S
C1704 C1707 1.386 1_565 S
H1705 C1721 0.930 . S
H1706 C1722 0.931 1_455 S
C1707 H1695 0.929 . S
C1707 C1701 1.390 . S
C1707 C1704 1.386 1_545 S
C1708 C1703 1.490 . S
C1708 C1710 1.395 . S
C1708 C1711 1.403 . S
H1709 C1715 0.930 . S
C1710 H1696 0.930 . S
C1710 C1708 1.395 . S
C1710 C1713 1.403 . S
C1711 C1708 1.403 . S
C1711 C1712 1.524 . S
C1711 C1715 1.400 . S
C1712 H1697 0.960 . S
C1712 H1698 0.960 . S
C1712 H1699 0.960 . S
C1712 C1711 1.524 . S
C1713 C1710 1.403 . S
C1713 C1714 1.392 . S
C1713 C1717 1.495 . S
C1714 C1713 1.392 . S
C1714 C1715 1.385 . S
C1714 C1716 1.478 . S
C1715 H1709 0.930 . S
C1715 C1711 1.400 . S
C1715 C1714 1.385 . S
C1716 C1714 1.478 . S
C1716 C1718 1.381 1_455 S
C1716 C1722 1.383 1_455 S
C1717 C1713 1.495 . S
C1717 H1723 0.959 . S
C1717 H1724 0.961 . S
C1717 H1725 0.960 . S
C1718 C1716 1.381 1_655 S
C1718 C1719 1.394 . S
C1718 H1726 0.930 1_655 S
C1719 C1718 1.394 . S
C1719 C1720 1.383 . S
C1719 H1727 0.929 . S
C1720 C1719 1.383 . S
C1720 C1721 1.377 . S
C1721 H1705 0.930 . S
C1721 C1720 1.377 . S
C1721 C1722 1.379 . S
C1722 H1706 0.931 1_655 S
C1722 C1716 1.383 1_655 S
C1722 C1721 1.379 . S
H1723 C1717 0.959 . S
H1724 C1717 0.961 . S
H1725 C1717 0.960 . S
H1726 C1718 0.930 1_455 S
H1727 C1719 0.929 . S
H1728 C1736 0.929 . S
H1729 C1738 0.950 . S
H1730 C1740 0.930 . S
H1731 C1743 0.929 . S
H1732 C1746 0.930 . S
H1733 C1748 0.960 . S
H1734 C1748 0.960 . S
H1735 C1748 0.960 . S
C1736 H1728 0.929 . S
C1736 C1737 1.377 . S
C1736 C1738 1.338 1_655 S
C1737 C1736 1.377 . S
C1737 C1743 1.390 1_655 S
C1738 H1729 0.950 . S
C1738 C1736 1.338 1_455 S
C1738 C1739 1.399 . S
C1739 C1738 1.399 . S
C1739 C1740 1.400 . S
C1739 C1744 1.490 . S
C1740 H1730 0.930 . S
C1740 C1739 1.400 . S
C1740 C1743 1.386 . S
H1741 C1757 0.930 . S
H1742 C1758 0.931 . S
C1743 H1731 0.929 . S
C1743 C1737 1.390 1_455 S
C1743 C1740 1.386 . S
C1744 C1739 1.490 . S
C1744 C1746 1.395 . S
C1744 C1747 1.403 . S
H1745 C1751 0.930 . S
C1746 H1732 0.930 . S
C1746 C1744 1.395 . S
C1746 C1749 1.403 . S
C1747 C1744 1.403 . S
C1747 C1748 1.524 . S
C1747 C1751 1.400 . S
C1748 H1733 0.960 . S
C1748 H1734 0.960 . S
C1748 H1735 0.960 . S
C1748 C1747 1.524 . S
C1749 C1746 1.403 . S
C1749 C1750 1.392 . S
C1749 C1753 1.495 . S
C1750 C1749 1.392 . S
C1750 C1751 1.385 . S
C1750 C1752 1.478 . S
C1751 H1745 0.930 . S
C1751 C1747 1.400 . S
C1751 C1750 1.385 . S
C1752 C1750 1.478 . S
C1752 C1754 1.381 . S
C1752 C1758 1.383 . S
C1753 C1749 1.495 . S
C1753 H1759 0.959 . S
C1753 H1760 0.961 . S
C1753 H1761 0.960 . S
C1754 C1752 1.381 . S
C1754 C1755 1.394 . S
C1754 H1762 0.930 . S
C1755 C1754 1.394 . S
C1755 C1756 1.383 . S
C1755 H1763 0.929 . S
C1756 C1755 1.383 . S
C1756 C1757 1.377 . S
C1757 H1741 0.930 . S
C1757 C1756 1.377 . S
C1757 C1758 1.379 . S
C1758 H1742 0.931 . S
C1758 C1752 1.383 . S
C1758 C1757 1.379 . S
H1759 C1753 0.959 . S
H1760 C1753 0.961 . S
H1761 C1753 0.960 . S
H1762 C1754 0.930 . S
H1763 C1755 0.929 . S
H1764 C1772 0.929 . S
H1765 C1774 0.930 . S
H1766 C1776 0.930 . S
H1767 C1779 0.929 . S
H1768 C1782 0.930 . S
H1769 C1784 0.960 . S
H1770 C1784 0.960 . S
H1771 C1784 0.960 . S
C1772 H1764 0.929 . S
C1772 C1773 1.377 . S
C1772 C1774 1.384 . S
C1773 C1772 1.377 . S
C1773 C1779 1.390 . S
C1774 H1765 0.930 . S
C1774 C1772 1.384 . S
C1774 C1775 1.372 . S
C1775 C1774 1.372 . S
C1775 C1776 1.400 . S
C1775 C1780 1.490 . S
C1776 H1766 0.930 . S
C1776 C1775 1.400 . S
C1776 C1779 1.386 . S
H1777 C1793 0.930 . S
H1778 C1794 0.931 1_655 S
C1779 H1767 0.929 . S
C1779 C1773 1.390 . S
C1779 C1776 1.386 . S
C1780 C1775 1.490 . S
C1780 C1782 1.395 . S
C1780 C1783 1.403 . S
H1781 C1787 0.930 . S
C1782 H1768 0.930 . S
C1782 C1780 1.395 . S
C1782 C1785 1.403 . S
C1783 C1780 1.403 . S
C1783 C1784 1.524 . S
C1783 C1787 1.400 . S
C1784 H1769 0.960 . S
C1784 H1770 0.960 . S
C1784 H1771 0.960 . S
C1784 C1783 1.524 . S
C1785 C1782 1.403 . S
C1785 C1786 1.392 . S
C1785 C1789 1.495 . S
C1786 C1785 1.392 . S
C1786 C1787 1.385 . S
C1786 C1788 1.478 . S
C1787 H1781 0.930 . S
C1787 C1783 1.400 . S
C1787 C1786 1.385 . S
C1788 C1786 1.478 . S
C1788 C1790 1.381 1_655 S
C1788 C1794 1.383 1_655 S
C1789 C1785 1.495 . S
C1789 H1795 0.959 . S
C1789 H1796 0.961 . S
C1789 H1797 0.960 . S
C1790 C1788 1.381 1_455 S
C1790 C1791 1.394 . S
C1790 H1798 0.930 . S
C1791 C1790 1.394 . S
C1791 C1792 1.383 . S
C1791 H1799 0.929 . S
C1792 C1791 1.383 . S
C1792 C1793 1.377 . S
C1793 H1777 0.930 . S
C1793 C1792 1.377 . S
C1793 C1794 1.379 . S
C1794 H1778 0.931 1_455 S
C1794 C1788 1.383 1_455 S
C1794 C1793 1.379 . S
H1795 C1789 0.959 . S
H1796 C1789 0.961 . S
H1797 C1789 0.960 . S
H1798 C1790 0.930 . S
H1799 C1791 0.929 . S
H1800 C1808 0.929 . S
H1801 C1810 0.930 . S
H1802 C1812 0.930 . S
H1803 C1815 0.929 . S
H1804 C1818 0.930 . S
H1805 C1820 0.960 . S
H1806 C1820 0.960 . S
H1807 C1820 0.960 . S
C1808 H1800 0.929 . S
C1808 C1809 1.377 . S
C1808 C1810 1.384 . S
C1809 C1808 1.377 . S
C1809 C1815 1.390 . S
C1810 H1801 0.930 . S
C1810 C1808 1.384 . S
C1810 C1811 1.372 . S
C1811 C1810 1.372 . S
C1811 C1812 1.400 . S
C1811 C1816 1.490 . S
C1812 H1802 0.930 . S
C1812 C1811 1.400 . S
C1812 C1815 1.386 . S
H1813 C1829 0.930 . S
H1814 C1830 0.931 . S
C1815 H1803 0.929 . S
C1815 C1809 1.390 . S
C1815 C1812 1.386 . S
C1816 C1811 1.490 . S
C1816 C1818 1.395 . S
C1816 C1819 1.403 . S
H1817 C1823 0.930 . S
C1818 H1804 0.930 . S
C1818 C1816 1.395 . S
C1818 C1821 1.403 . S
C1819 C1816 1.403 . S
C1819 C1820 1.524 . S
C1819 C1823 1.400 . S
C1820 H1805 0.960 . S
C1820 H1806 0.960 . S
C1820 H1807 0.960 . S
C1820 C1819 1.524 . S
C1821 C1818 1.403 . S
C1821 C1822 1.392 . S
C1821 C1825 1.495 . S
C1822 C1821 1.392 . S
C1822 C1823 1.385 . S
C1822 C1824 1.478 . S
C1823 H1817 0.930 . S
C1823 C1819 1.400 . S
C1823 C1822 1.385 . S
C1824 C1822 1.478 . S
C1824 C1826 1.383 . S
C1824 C1830 1.383 . S
C1825 C1821 1.495 . S
C1825 H1831 0.959 . S
C1825 H1832 0.961 . S
C1825 H1833 0.960 . S
C1826 C1824 1.383 . S
C1826 C1827 1.391 1_545 S
C1826 H1834 0.932 1_545 S
C1827 C1826 1.391 1_565 S
C1827 C1828 1.383 . S
C1827 H1835 0.929 . S
C1828 C1827 1.383 . S
C1828 C1829 1.377 1_565 S
C1829 H1813 0.930 . S
C1829 C1828 1.377 1_545 S
C1829 C1830 1.379 . S
C1830 H1814 0.931 . S
C1830 C1824 1.383 . S
C1830 C1829 1.379 . S
H1831 C1825 0.959 . S
H1832 C1825 0.961 . S
H1833 C1825 0.960 . S
H1834 C1826 0.932 1_565 S
H1835 C1827 0.929 . S
H1836 C1844 0.929 . S
H1837 C1846 0.930 . S
H1838 C1848 0.930 . S
H1839 C1851 0.929 . S
H1840 C1854 0.930 . S
H1841 C1856 0.960 . S
H1842 C1856 0.960 . S
H1843 C1856 0.960 . S
C1844 H1836 0.929 . S
C1844 C1845 1.377 . S
C1844 C1846 1.384 . S
C1845 C1844 1.377 . S
C1845 C1851 1.390 . S
C1846 H1837 0.930 . S
C1846 C1844 1.384 . S
C1846 C1847 1.372 1_565 S
C1847 C1846 1.372 1_545 S
C1847 C1848 1.400 . S
C1847 C1852 1.490 . S
C1848 H1838 0.930 . S
C1848 C1847 1.400 . S
C1848 C1851 1.386 1_545 S
H1849 C1865 0.930 . S
H1850 C1866 0.931 . S
C1851 H1839 0.929 . S
C1851 C1845 1.390 . S
C1851 C1848 1.386 1_565 S
C1852 C1847 1.490 . S
C1852 C1854 1.395 . S
C1852 C1855 1.403 . S
H1853 C1859 0.930 . S
C1854 H1840 0.930 . S
C1854 C1852 1.395 . S
C1854 C1857 1.403 . S
C1855 C1852 1.403 . S
C1855 C1856 1.524 . S
C1855 C1859 1.400 . S
C1856 H1841 0.960 . S
C1856 H1842 0.960 . S
C1856 H1843 0.960 . S
C1856 C1855 1.524 . S
C1857 C1854 1.403 . S
C1857 C1858 1.392 . S
C1857 C1861 1.495 . S
C1858 C1857 1.392 . S
C1858 C1859 1.385 . S
C1858 C1860 1.478 . S
C1859 H1853 0.930 . S
C1859 C1855 1.400 . S
C1859 C1858 1.385 . S
C1860 C1858 1.478 . S
C1860 C1862 1.381 1_655 S
C1860 C1866 1.383 . S
C1861 C1857 1.495 . S
C1861 H1867 0.959 . S
C1861 H1868 0.961 . S
C1861 H1869 0.960 . S
C1862 C1860 1.381 1_455 S
C1862 C1863 1.394 . S
C1862 H1870 0.930 . S
C1863 C1862 1.394 . S
C1863 C1864 1.383 . S
C1863 H1871 0.929 . S
C1864 C1863 1.383 . S
C1864 C1865 1.377 1_455 S
C1865 H1849 0.930 . S
C1865 C1864 1.377 1_655 S
C1865 C1866 1.379 . S
C1866 H1850 0.931 . S
C1866 C1860 1.383 . S
C1866 C1865 1.379 . S
H1867 C1861 0.959 . S
H1868 C1861 0.961 . S
H1869 C1861 0.960 . S
H1870 C1862 0.930 . S
H1871 C1863 0.929 . S
H1872 C1880 0.929 . S
H1873 C1882 0.930 . S
H1874 C1884 0.930 . S
H1875 C1887 0.929 . S
H1876 C1890 0.930 . S
H1877 C1892 0.960 . S
H1878 C1892 0.960 . S
H1879 C1892 0.960 . S
C1880 H1872 0.929 . S
C1880 C1881 1.377 . S
C1880 C1882 1.384 . S
C1881 C1880 1.377 . S
C1881 C1887 1.390 . S
C1882 H1873 0.930 . S
C1882 C1880 1.384 . S
C1882 C1883 1.372 . S
C1883 C1882 1.372 . S
C1883 C1884 1.400 . S
C1883 C1888 1.490 . S
C1884 H1874 0.930 . S
C1884 C1883 1.400 . S
C1884 C1887 1.386 . S
H1885 C1901 0.930 . S
H1886 C1902 0.931 . S
C1887 H1875 0.929 . S
C1887 C1881 1.390 . S
C1887 C1884 1.386 . S
C1888 C1883 1.490 . S
C1888 C1890 1.395 . S
C1888 C1891 1.403 . S
H1889 C1895 0.930 . S
C1890 H1876 0.930 . S
C1890 C1888 1.395 . S
C1890 C1893 1.403 . S
C1891 C1888 1.403 . S
C1891 C1892 1.524 . S
C1891 C1895 1.400 . S
C1892 H1877 0.960 . S
C1892 H1878 0.960 . S
C1892 H1879 0.960 . S
C1892 C1891 1.524 . S
C1893 C1890 1.403 . S
C1893 C1894 1.392 . S
C1893 C1897 1.495 . S
C1894 C1893 1.392 . S
C1894 C1895 1.385 . S
C1894 C1896 1.478 . S
C1895 H1889 0.930 . S
C1895 C1891 1.400 . S
C1895 C1894 1.385 . S
C1896 C1894 1.478 . S
C1896 C1898 1.381 . S
C1896 C1902 1.383 . S
C1897 C1893 1.495 . S
C1897 H1903 0.959 . S
C1897 H1904 0.961 . S
C1897 H1905 0.960 . S
C1898 C1896 1.381 . S
C1898 C1899 1.394 . S
C1898 H1906 0.930 . S
C1899 C1898 1.394 . S
C1899 C1900 1.383 . S
C1899 H1907 0.929 . S
C1900 C1899 1.383 . S
C1900 C1901 1.377 . S
C1901 H1885 0.930 . S
C1901 C1900 1.377 . S
C1901 C1902 1.379 . S
C1902 H1886 0.931 . S
C1902 C1896 1.383 . S
C1902 C1901 1.379 . S
H1903 C1897 0.959 . S
H1904 C1897 0.961 . S
H1905 C1897 0.960 . S
H1906 C1898 0.930 . S
H1907 C1899 0.929 . S
H1908 C1916 0.929 . S
H1909 C1918 0.930 . S
H1910 C1920 0.930 . S
H1911 C1923 0.929 . S
H1912 C1926 0.930 . S
H1913 C1928 0.960 . S
H1914 C1928 0.960 . S
H1915 C1928 0.960 . S
C1916 H1908 0.929 . S
C1916 C1917 1.377 . S
C1916 C1918 1.384 . S
C1917 C1916 1.377 . S
C1917 C1923 1.390 . S
C1918 H1909 0.930 . S
C1918 C1916 1.384 . S
C1918 C1919 1.372 . S
C1919 C1918 1.372 . S
C1919 C1920 1.400 . S
C1919 C1924 1.490 . S
C1920 H1910 0.930 . S
C1920 C1919 1.400 . S
C1920 C1923 1.386 . S
H1921 C1937 0.930 . S
H1922 C1938 0.931 . S
C1923 H1911 0.929 . S
C1923 C1917 1.390 . S
C1923 C1920 1.386 . S
C1924 C1919 1.490 . S
C1924 C1926 1.395 . S
C1924 C1927 1.403 . S
H1925 C1931 0.930 . S
C1926 H1912 0.930 . S
C1926 C1924 1.395 . S
C1926 C1929 1.403 . S
C1927 C1924 1.403 . S
C1927 C1928 1.524 . S
C1927 C1931 1.400 . S
C1928 H1913 0.960 . S
C1928 H1914 0.960 . S
C1928 H1915 0.960 . S
C1928 C1927 1.524 . S
C1929 C1926 1.403 . S
C1929 C1930 1.392 . S
C1929 C1933 1.495 . S
C1930 C1929 1.392 . S
C1930 C1931 1.385 . S
C1930 C1932 1.478 . S
C1931 H1925 0.930 . S
C1931 C1927 1.400 . S
C1931 C1930 1.385 . S
C1932 C1930 1.478 . S
C1932 C1934 1.381 . S
C1932 C1938 1.383 . S
C1933 C1929 1.495 . S
C1933 H1939 0.959 . S
C1933 H1940 0.961 . S
C1933 H1941 0.960 . S
C1934 C1932 1.381 . S
C1934 C1935 1.394 . S
C1934 H1942 0.930 . S
C1935 C1934 1.394 . S
C1935 C1936 1.383 . S
C1935 H1943 0.929 . S
C1936 C1935 1.383 . S
C1936 C1937 1.377 . S
C1937 H1921 0.930 . S
C1937 C1936 1.377 . S
C1937 C1938 1.379 . S
C1938 H1922 0.931 . S
C1938 C1932 1.383 . S
C1938 C1937 1.379 . S
H1939 C1933 0.959 . S
H1940 C1933 0.961 . S
H1941 C1933 0.960 . S
H1942 C1934 0.930 . S
H1943 C1935 0.929 . S
H1944 C1952 0.929 . S
H1945 C1954 0.930 . S
H1946 C1956 0.930 . S
H1947 C1959 0.929 . S
H1948 C1962 0.930 . S
H1949 C1964 0.960 . S
H1950 C1964 0.960 . S
H1951 C1964 0.960 . S
C1952 H1944 0.929 . S
C1952 C1953 1.377 . S
C1952 C1954 1.384 . S
C1953 C1952 1.377 . S
C1953 C1959 1.390 . S
C1954 H1945 0.930 . S
C1954 C1952 1.384 . S
C1954 C1955 1.372 . S
C1955 C1954 1.372 . S
C1955 C1956 1.400 . S
C1955 C1960 1.490 . S
C1956 H1946 0.930 . S
C1956 C1955 1.400 . S
C1956 C1959 1.386 . S
H1957 C1973 0.930 . S
H1958 C1974 0.931 . S
C1959 H1947 0.929 . S
C1959 C1953 1.390 . S
C1959 C1956 1.386 . S
C1960 C1955 1.490 . S
C1960 C1962 1.395 . S
C1960 C1963 1.403 . S
H1961 C1967 0.930 . S
C1962 H1948 0.930 . S
C1962 C1960 1.395 . S
C1962 C1965 1.403 . S
C1963 C1960 1.403 . S
C1963 C1964 1.524 . S
C1963 C1967 1.400 . S
C1964 H1949 0.960 . S
C1964 H1950 0.960 . S
C1964 H1951 0.960 . S
C1964 C1963 1.524 . S
C1965 C1962 1.403 . S
C1965 C1966 1.392 . S
C1965 C1969 1.495 . S
C1966 C1965 1.392 . S
C1966 C1967 1.385 . S
C1966 C1968 1.478 . S
C1967 H1961 0.930 . S
C1967 C1963 1.400 . S
C1967 C1966 1.385 . S
C1968 C1966 1.478 . S
C1968 C1970 1.381 . S
C1968 C1974 1.383 . S
C1969 C1965 1.495 . S
C1969 H1975 0.959 . S
C1969 H1976 0.961 . S
C1969 H1977 0.960 . S
C1970 C1968 1.381 . S
C1970 C1971 1.394 . S
C1970 H1978 0.930 . S
C1971 C1970 1.394 . S
C1971 C1972 1.383 . S
C1971 H1979 0.929 . S
C1972 C1971 1.383 . S
C1972 C1973 1.377 . S
C1973 H1957 0.930 . S
C1973 C1972 1.377 . S
C1973 C1974 1.379 . S
C1974 H1958 0.931 . S
C1974 C1968 1.383 . S
C1974 C1973 1.379 . S
H1975 C1969 0.959 . S
H1976 C1969 0.961 . S
H1977 C1969 0.960 . S
H1978 C1970 0.930 . S
H1979 C1971 0.929 . S
H1980 C1988 0.929 . S
H1981 C1990 0.930 . S
H1982 C1992 0.930 . S
H1983 C1995 0.929 . S
H1984 C1998 0.930 . S
H1985 C2000 0.960 . S
H1986 C2000 0.960 . S
H1987 C2000 0.960 . S
C1988 H1980 0.929 . S
C1988 C1989 1.377 . S
C1988 C1990 1.384 . S
C1989 C1988 1.377 . S
C1989 C1995 1.390 . S
C1990 H1981 0.930 . S
C1990 C1988 1.384 . S
C1990 C1991 1.372 . S
C1991 C1990 1.372 . S
C1991 C1992 1.400 . S
C1991 C1996 1.490 . S
C1992 H1982 0.930 . S
C1992 C1991 1.400 . S
C1992 C1995 1.386 . S
H1993 C2009 0.930 . S
H1994 C2010 0.931 . S
C1995 H1983 0.929 . S
C1995 C1989 1.390 . S
C1995 C1992 1.386 . S
C1996 C1991 1.490 . S
C1996 C1998 1.395 . S
C1996 C1999 1.403 . S
H1997 C2003 0.930 . S
C1998 H1984 0.930 . S
C1998 C1996 1.395 . S
C1998 C2001 1.403 . S
C1999 C1996 1.403 . S
C1999 C2000 1.524 . S
C1999 C2003 1.400 . S
C2000 H1985 0.960 . S
C2000 H1986 0.960 . S
C2000 H1987 0.960 . S
C2000 C1999 1.524 . S
C2001 C1998 1.403 . S
C2001 C2002 1.392 . S
C2001 C2005 1.495 . S
C2002 C2001 1.392 . S
C2002 C2003 1.385 . S
C2002 C2004 1.478 . S
C2003 H1997 0.930 . S
C2003 C1999 1.400 . S
C2003 C2002 1.385 . S
C2004 C2002 1.478 . S
C2004 C2006 1.381 . S
C2004 C2010 1.383 . S
C2005 C2001 1.495 . S
C2005 H2011 0.959 . S
C2005 H2012 0.961 . S
C2005 H2013 0.960 . S
C2006 C2004 1.381 . S
C2006 C2007 1.394 . S
C2006 H2014 0.930 . S
C2007 C2006 1.394 . S
C2007 C2008 1.383 . S
C2007 H2015 0.929 . S
C2008 C2007 1.383 . S
C2008 C2009 1.377 . S
C2009 H1993 0.930 . S
C2009 C2008 1.377 . S
C2009 C2010 1.379 . S
C2010 H1994 0.931 . S
C2010 C2004 1.383 . S
C2010 C2009 1.379 . S
H2011 C2005 0.959 . S
H2012 C2005 0.961 . S
H2013 C2005 0.960 . S
H2014 C2006 0.930 . S
H2015 C2007 0.929 . S
H2016 C2024 0.929 . S
H2017 C2026 0.930 . S
H2018 C2028 0.930 . S
H2019 C2031 0.929 . S
H2020 C2034 0.930 . S
H2021 C2036 0.960 . S
H2022 C2036 0.960 . S
H2023 C2036 0.960 . S
C2024 H2016 0.929 . S
C2024 C2025 1.377 . S
C2024 C2026 1.384 . S
C2025 C2024 1.377 . S
C2025 C2031 1.390 . S
C2026 H2017 0.930 . S
C2026 C2024 1.384 . S
C2026 C2027 1.372 . S
C2027 C2026 1.372 . S
C2027 C2028 1.400 . S
C2027 C2032 1.490 . S
C2028 H2018 0.930 . S
C2028 C2027 1.400 . S
C2028 C2031 1.386 . S
H2029 C2045 0.930 . S
H2030 C2046 0.931 . S
C2031 H2019 0.929 . S
C2031 C2025 1.390 . S
C2031 C2028 1.386 . S
C2032 C2027 1.490 . S
C2032 C2034 1.395 . S
C2032 C2035 1.403 . S
H2033 C2039 0.930 . S
C2034 H2020 0.930 . S
C2034 C2032 1.395 . S
C2034 C2037 1.403 . S
C2035 C2032 1.403 . S
C2035 C2036 1.524 . S
C2035 C2039 1.400 . S
C2036 H2021 0.960 . S
C2036 H2022 0.960 . S
C2036 H2023 0.960 . S
C2036 C2035 1.524 . S
C2037 C2034 1.403 . S
C2037 C2038 1.392 . S
C2037 C2041 1.495 . S
C2038 C2037 1.392 . S
C2038 C2039 1.385 . S
C2038 C2040 1.478 . S
C2039 H2033 0.930 . S
C2039 C2035 1.400 . S
C2039 C2038 1.385 . S
C2040 C2038 1.478 . S
C2040 C2042 1.381 . S
C2040 C2046 1.383 . S
C2041 C2037 1.495 . S
C2041 H2047 0.959 . S
C2041 H2048 0.961 . S
C2041 H2049 0.960 . S
C2042 C2040 1.381 . S
C2042 C2043 1.394 . S
C2042 H2050 0.930 . S
C2043 C2042 1.394 . S
C2043 C2044 1.383 . S
C2043 H2051 0.929 . S
C2044 C2043 1.383 . S
C2044 C2045 1.377 . S
C2045 H2029 0.930 . S
C2045 C2044 1.377 . S
C2045 C2046 1.379 . S
C2046 H2030 0.931 . S
C2046 C2040 1.383 . S
C2046 C2045 1.379 . S
H2047 C2041 0.959 . S
H2048 C2041 0.961 . S
H2049 C2041 0.960 . S
H2050 C2042 0.930 . S
H2051 C2043 0.929 . S
H2052 C2060 0.929 . S
H2053 C2062 0.930 . S
H2054 C2064 0.930 . S
H2055 C2067 0.929 . S
H2056 C2070 0.930 . S
H2057 C2072 0.960 . S
H2058 C2072 0.960 . S
H2059 C2072 0.960 . S
C2060 H2052 0.929 . S
C2060 C2061 1.377 . S
C2060 C2062 1.384 . S
C2061 C2060 1.377 . S
C2061 C2067 1.390 . S
C2062 H2053 0.930 . S
C2062 C2060 1.384 . S
C2062 C2063 1.372 . S
C2063 C2062 1.372 . S
C2063 C2064 1.400 . S
C2063 C2068 1.490 . S
C2064 H2054 0.930 . S
C2064 C2063 1.400 . S
C2064 C2067 1.386 . S
H2065 C2081 0.930 . S
H2066 C2082 0.931 . S
C2067 H2055 0.929 . S
C2067 C2061 1.390 . S
C2067 C2064 1.386 . S
C2068 C2063 1.490 . S
C2068 C2070 1.395 . S
C2068 C2071 1.403 . S
H2069 C2075 0.930 . S
C2070 H2056 0.930 . S
C2070 C2068 1.395 . S
C2070 C2073 1.403 . S
C2071 C2068 1.403 . S
C2071 C2072 1.524 . S
C2071 C2075 1.400 . S
C2072 H2057 0.960 . S
C2072 H2058 0.960 . S
C2072 H2059 0.960 . S
C2072 C2071 1.524 . S
C2073 C2070 1.403 . S
C2073 C2074 1.392 . S
C2073 C2077 1.495 . S
C2074 C2073 1.392 . S
C2074 C2075 1.385 . S
C2074 C2076 1.478 . S
C2075 H2069 0.930 . S
C2075 C2071 1.400 . S
C2075 C2074 1.385 . S
C2076 C2074 1.478 . S
C2076 C2078 1.381 . S
C2076 C2082 1.383 . S
C2077 C2073 1.495 . S
C2077 H2083 0.959 . S
C2077 H2084 0.961 . S
C2077 H2085 0.960 . S
C2078 C2076 1.381 . S
C2078 C2079 1.394 . S
C2078 H2086 0.930 . S
C2079 C2078 1.394 . S
C2079 C2080 1.383 . S
C2079 H2087 0.929 . S
C2080 C2079 1.383 . S
C2080 C2081 1.377 . S
C2081 H2065 0.930 . S
C2081 C2080 1.377 . S
C2081 C2082 1.379 . S
C2082 H2066 0.931 . S
C2082 C2076 1.383 . S
C2082 C2081 1.379 . S
H2083 C2077 0.959 . S
H2084 C2077 0.961 . S
H2085 C2077 0.960 . S
H2086 C2078 0.930 . S
H2087 C2079 0.929 . S
H2088 C2096 0.929 . S
H2089 C2098 0.930 . S
H2090 C2100 0.930 . S
H2091 C2103 0.929 . S
H2092 C2106 0.930 . S
H2093 C2108 0.960 . S
H2094 C2108 0.960 . S
H2095 C2108 0.960 . S
C2096 H2088 0.929 . S
C2096 C2097 1.377 . S
C2096 C2098 1.384 . S
C2097 C2096 1.377 . S
C2097 C2103 1.390 . S
C2098 H2089 0.930 . S
C2098 C2096 1.384 . S
C2098 C2099 1.372 . S
C2099 C2098 1.372 . S
C2099 C2100 1.400 . S
C2099 C2104 1.490 . S
C2100 H2090 0.930 . S
C2100 C2099 1.400 . S
C2100 C2103 1.386 . S
H2101 C2117 0.930 . S
H2102 C2118 0.931 . S
C2103 H2091 0.929 . S
C2103 C2097 1.390 . S
C2103 C2100 1.386 . S
C2104 C2099 1.490 . S
C2104 C2106 1.395 . S
C2104 C2107 1.403 . S
H2105 C2111 0.930 . S
C2106 H2092 0.930 . S
C2106 C2104 1.395 . S
C2106 C2109 1.403 . S
C2107 C2104 1.403 . S
C2107 C2108 1.524 . S
C2107 C2111 1.400 . S
C2108 H2093 0.960 . S
C2108 H2094 0.960 . S
C2108 H2095 0.960 . S
C2108 C2107 1.524 . S
C2109 C2106 1.403 . S
C2109 C2110 1.392 . S
C2109 C2113 1.495 . S
C2110 C2109 1.392 . S
C2110 C2111 1.385 . S
C2110 C2112 1.478 . S
C2111 H2105 0.930 . S
C2111 C2107 1.400 . S
C2111 C2110 1.385 . S
C2112 C2110 1.478 . S
C2112 C2114 1.381 . S
C2112 C2118 1.383 . S
C2113 C2109 1.495 . S
C2113 H2119 0.959 . S
C2113 H2120 0.961 . S
C2113 H2121 0.960 . S
C2114 C2112 1.381 . S
C2114 C2115 1.394 . S
C2114 H2122 0.930 . S
C2115 C2114 1.394 . S
C2115 C2116 1.383 . S
C2115 H2123 0.929 . S
C2116 C2115 1.383 . S
C2116 C2117 1.377 . S
C2117 H2101 0.930 . S
C2117 C2116 1.377 . S
C2117 C2118 1.379 . S
C2118 H2102 0.931 . S
C2118 C2112 1.383 . S
C2118 C2117 1.379 . S
H2119 C2113 0.959 . S
H2120 C2113 0.961 . S
H2121 C2113 0.960 . S
H2122 C2114 0.930 . S
H2123 C2115 0.929 . S
H2124 C2132 0.929 . S
H2125 C2134 0.930 . S
H2126 C2136 0.930 . S
H2127 C2139 0.929 . S
H2128 C2142 0.930 . S
H2129 C2144 0.960 . S
H2130 C2144 0.960 . S
H2131 C2144 0.960 . S
C2132 H2124 0.929 . S
C2132 C2133 1.377 . S
C2132 C2134 1.384 . S
C2133 C2132 1.377 . S
C2133 C2139 1.390 . S
C2134 H2125 0.930 . S
C2134 C2132 1.384 . S
C2134 C2135 1.372 . S
C2135 C2134 1.372 . S
C2135 C2136 1.400 . S
C2135 C2140 1.490 . S
C2136 H2126 0.930 . S
C2136 C2135 1.400 . S
C2136 C2139 1.386 . S
H2137 C2153 0.930 . S
H2138 C2154 0.931 . S
C2139 H2127 0.929 . S
C2139 C2133 1.390 . S
C2139 C2136 1.386 . S
C2140 C2135 1.490 . S
C2140 C2142 1.395 . S
C2140 C2143 1.403 . S
H2141 C2147 0.930 . S
C2142 H2128 0.930 . S
C2142 C2140 1.395 . S
C2142 C2145 1.403 . S
C2143 C2140 1.403 . S
C2143 C2144 1.524 . S
C2143 C2147 1.400 . S
C2144 H2129 0.960 . S
C2144 H2130 0.960 . S
C2144 H2131 0.960 . S
C2144 C2143 1.524 . S
C2145 C2142 1.403 . S
C2145 C2146 1.392 . S
C2145 C2149 1.495 . S
C2146 C2145 1.392 . S
C2146 C2147 1.385 . S
C2146 C2148 1.478 . S
C2147 H2141 0.930 . S
C2147 C2143 1.400 . S
C2147 C2146 1.385 . S
C2148 C2146 1.478 . S
C2148 C2150 1.381 . S
C2148 C2154 1.383 . S
C2149 C2145 1.495 . S
C2149 H2155 0.959 . S
C2149 H2156 0.961 . S
C2149 H2157 0.960 . S
C2150 C2148 1.381 . S
C2150 C2151 1.394 . S
C2150 H2158 0.930 . S
C2151 C2150 1.394 . S
C2151 C2152 1.383 . S
C2151 H2159 0.929 . S
C2152 C2151 1.383 . S
C2152 C2153 1.377 . S
C2153 H2137 0.930 . S
C2153 C2152 1.377 . S
C2153 C2154 1.379 . S
C2154 H2138 0.931 . S
C2154 C2148 1.383 . S
C2154 C2153 1.379 . S
H2155 C2149 0.959 . S
H2156 C2149 0.961 . S
H2157 C2149 0.960 . S
H2158 C2150 0.930 . S
H2159 C2151 0.929 . S
H2160 C2168 0.929 . S
H2161 C2170 0.930 . S
H2162 C2172 0.930 . S
H2163 C2175 0.929 . S
H2164 C2178 0.930 . S
H2165 C2180 0.960 . S
H2166 C2180 0.960 . S
H2167 C2180 0.960 . S
C2168 H2160 0.929 . S
C2168 C2169 1.377 . S
C2168 C2170 1.384 . S
C2169 C2168 1.377 . S
C2169 C2175 1.390 . S
C2170 H2161 0.930 . S
C2170 C2168 1.384 . S
C2170 C2171 1.372 . S
C2171 C2170 1.372 . S
C2171 C2172 1.400 . S
C2171 C2176 1.490 . S
C2172 H2162 0.930 . S
C2172 C2171 1.400 . S
C2172 C2175 1.386 . S
H2173 C2189 0.930 . S
H2174 C2190 0.931 . S
C2175 H2163 0.929 . S
C2175 C2169 1.390 . S
C2175 C2172 1.386 . S
C2176 C2171 1.490 . S
C2176 C2178 1.395 . S
C2176 C2179 1.403 . S
H2177 C2183 0.930 . S
C2178 H2164 0.930 . S
C2178 C2176 1.395 . S
C2178 C2181 1.403 . S
C2179 C2176 1.403 . S
C2179 C2180 1.524 . S
C2179 C2183 1.400 . S
C2180 H2165 0.960 . S
C2180 H2166 0.960 . S
C2180 H2167 0.960 . S
C2180 C2179 1.524 . S
C2181 C2178 1.403 . S
C2181 C2182 1.392 . S
C2181 C2185 1.495 . S
C2182 C2181 1.392 . S
C2182 C2183 1.385 . S
C2182 C2184 1.478 . S
C2183 H2177 0.930 . S
C2183 C2179 1.400 . S
C2183 C2182 1.385 . S
C2184 C2182 1.478 . S
C2184 C2186 1.381 . S
C2184 C2190 1.383 . S
C2185 C2181 1.495 . S
C2185 H2191 0.959 . S
C2185 H2192 0.961 . S
C2185 H2193 0.960 . S
C2186 C2184 1.381 . S
C2186 C2187 1.394 . S
C2186 H2194 0.930 . S
C2187 C2186 1.394 . S
C2187 C2188 1.383 . S
C2187 H2195 0.929 . S
C2188 C2187 1.383 . S
C2188 C2189 1.377 . S
C2189 H2173 0.930 . S
C2189 C2188 1.377 . S
C2189 C2190 1.379 . S
C2190 H2174 0.931 . S
C2190 C2184 1.383 . S
C2190 C2189 1.379 . S
H2191 C2185 0.959 . S
H2192 C2185 0.961 . S
H2193 C2185 0.960 . S
H2194 C2186 0.930 . S
H2195 C2187 0.929 . S
H2196 C2204 0.929 . S
H2197 C2206 0.930 . S
H2198 C2208 0.893 1_556 S
H2199 C2211 0.906 1_556 S
H2200 C2214 0.930 . S
H2201 C2216 0.960 . S
H2202 C2216 0.960 . S
H2203 C2216 0.960 . S
C2204 H2196 0.929 . S
C2204 C2205 1.377 . S
C2204 C2206 1.384 . S
C2205 C2204 1.377 . S
C2205 C2211 1.428 . S
C2206 H2197 0.930 . S
C2206 C2204 1.384 . S
C2206 C2207 1.372 . S
C2207 C2206 1.372 . S
C2207 C2208 1.419 . S
C2207 C2212 1.490 . S
C2208 H2198 0.893 1_554 S
C2208 C2207 1.419 . S
C2208 C2211 1.385 . S
H2209 C2225 0.911 1_556 S
H2210 C2226 0.944 . S
C2211 H2199 0.906 1_554 S
C2211 C2205 1.428 . S
C2211 C2208 1.385 . S
C2212 C2207 1.490 . S
C2212 C2214 1.395 . S
C2212 C2215 1.403 1_554 S
H2213 C2219 0.930 . S
C2214 H2200 0.930 . S
C2214 C2212 1.395 . S
C2214 C2217 1.403 . S
C2215 C2212 1.403 1_556 S
C2215 C2216 1.524 . S
C2215 C2219 1.400 . S
C2216 H2201 0.960 . S
C2216 H2202 0.960 . S
C2216 H2203 0.960 . S
C2216 C2215 1.524 . S
C2217 C2214 1.403 . S
C2217 C2218 1.392 . S
C2217 C2221 1.495 . S
C2218 C2217 1.392 . S
C2218 C2219 1.385 1_554 S
C2218 C2220 1.478 . S
C2219 H2213 0.930 . S
C2219 C2215 1.400 . S
C2219 C2218 1.385 1_556 S
C2220 C2218 1.478 . S
C2220 C2222 1.381 . S
C2220 C2226 1.383 . S
C2221 C2217 1.495 . S
C2221 H2227 0.959 . S
C2221 H2228 0.961 . S
C2221 H2229 0.960 . S
C2222 C2220 1.381 . S
C2222 C2223 1.394 . S
C2222 H2230 0.930 . S
C2223 C2222 1.394 . S
C2223 C2224 1.383 . S
C2223 H2231 0.929 . S
C2224 C2223 1.383 . S
C2224 C2225 1.381 . S
C2225 H2209 0.911 1_554 S
C2225 C2224 1.381 . S
C2225 C2226 1.384 . S
C2226 H2210 0.944 . S
C2226 C2220 1.383 . S
C2226 C2225 1.384 . S
H2227 C2221 0.959 . S
H2228 C2221 0.961 . S
H2229 C2221 0.960 . S
H2230 C2222 0.930 . S
H2231 C2223 0.929 . S
H2232 C2240 0.929 . S
H2233 C2242 0.930 . S
H2234 C2244 0.930 . S
H2235 C2247 0.929 . S
H2236 C2250 0.930 . S
H2237 C2252 0.960 . S
H2238 C2252 0.960 . S
H2239 C2252 0.960 1_554 S
C2240 H2232 0.929 . S
C2240 C2241 1.341 1_556 S
C2240 C2242 1.384 . S
C2241 C2240 1.341 1_554 S
C2241 C2247 1.429 . S
C2242 H2233 0.930 . S
C2242 C2240 1.384 . S
C2242 C2243 1.296 1_556 S
C2243 C2242 1.296 1_554 S
C2243 C2244 1.478 . S
C2243 C2248 1.500 . S
C2244 H2234 0.930 . S
C2244 C2243 1.478 . S
C2244 C2247 1.386 . S
H2245 C2261 0.930 . S
H2246 C2262 0.931 . S
C2247 H2235 0.929 . S
C2247 C2241 1.429 . S
C2247 C2244 1.386 . S
C2248 C2243 1.500 . S
C2248 C2250 1.395 . S
C2248 C2251 1.405 1_554 S
H2249 C2255 0.924 1_556 S
C2250 H2236 0.930 . S
C2250 C2248 1.395 . S
C2250 C2253 1.403 . S
C2251 C2248 1.405 1_556 S
C2251 C2252 1.520 . S
C2251 C2255 1.396 1_556 S
C2252 H2237 0.960 . S
C2252 H2238 0.960 . S
C2252 H2239 0.960 1_556 S
C2252 C2251 1.520 . S
C2253 C2250 1.403 . S
C2253 C2254 1.392 . S
C2253 C2257 1.495 . S
C2254 C2253 1.392 . S
C2254 C2255 1.405 . S
C2254 C2256 1.478 . S
C2255 H2249 0.924 1_554 S
C2255 C2251 1.396 1_554 S
C2255 C2254 1.405 . S
C2256 C2254 1.478 . S
C2256 C2258 1.381 1_554 S
C2256 C2262 1.383 . S
C2257 C2253 1.495 . S
C2257 H2263 0.959 . S
C2257 H2264 0.961 . S
C2257 H2265 1.075 . S
C2258 C2256 1.381 1_556 S
C2258 C2259 1.394 . S
C2258 H2266 0.930 . S
C2259 C2258 1.394 . S
C2259 C2260 1.383 1_556 S
C2259 H2267 0.929 . S
C2260 C2259 1.383 1_554 S
C2260 C2261 1.377 . S
C2261 H2245 0.930 . S
C2261 C2260 1.377 . S
C2261 C2262 1.379 . S
C2262 H2246 0.931 . S
C2262 C2256 1.383 . S
C2262 C2261 1.379 . S
H2263 C2257 0.959 . S
H2264 C2257 0.961 . S
H2265 C2257 1.075 . S
H2266 C2258 0.930 . S
H2267 C2259 0.929 . S
H2268 C2276 0.929 . S
H2269 C2278 0.930 . S
H2270 C2280 0.930 . S
H2271 C2283 0.929 . S
H2272 C2286 0.930 . S
H2273 C2288 0.960 . S
H2274 C2288 0.960 1_554 S
H2275 C2288 0.960 . S
C2276 H2268 0.929 . S
C2276 C2277 1.377 . S
C2276 C2278 1.384 . S
C2277 C2276 1.377 . S
C2277 C2283 1.390 1_554 S
C2278 H2269 0.930 . S
C2278 C2276 1.384 . S
C2278 C2279 1.372 . S
C2279 C2278 1.372 . S
C2279 C2280 1.400 1_554 S
C2279 C2284 1.490 . S
C2280 H2270 0.930 . S
C2280 C2279 1.400 1_556 S
C2280 C2283 1.386 . S
H2281 C2297 0.930 . S
H2282 C2298 0.931 . S
C2283 H2271 0.929 . S
C2283 C2277 1.390 1_556 S
C2283 C2280 1.386 . S
C2284 C2279 1.490 . S
C2284 C2286 1.395 . S
C2284 C2287 1.399 . S
H2285 C2291 0.932 . S
C2286 H2272 0.930 . S
C2286 C2284 1.395 . S
C2286 C2289 1.403 . S
C2287 C2284 1.399 . S
C2287 C2288 1.527 1_554 S
C2287 C2291 1.400 1_554 S
C2288 H2273 0.960 . S
C2288 H2274 0.960 1_556 S
C2288 H2275 0.960 . S
C2288 C2287 1.527 1_556 S
C2289 C2286 1.403 . S
C2289 C2290 1.392 . S
C2289 C2293 1.495 . S
C2290 C2289 1.392 . S
C2290 C2291 1.384 1_554 S
C2290 C2292 1.478 . S
C2291 H2285 0.932 . S
C2291 C2287 1.400 1_556 S
C2291 C2290 1.384 1_556 S
C2292 C2290 1.478 . S
C2292 C2294 1.381 . S
C2292 C2298 1.383 1_554 S
C2293 C2289 1.495 . S
C2293 H2299 0.959 . S
C2293 H2300 0.961 . S
C2293 H2301 0.960 . S
C2294 C2292 1.381 . S
C2294 C2295 1.394 . S
C2294 H2302 0.930 . S
C2295 C2294 1.394 . S
C2295 C2296 1.480 . S
C2295 H2303 0.929 . S
C2296 C2295 1.480 . S
C2296 C2297 1.290 1_554 S
C2297 H2281 0.930 . S
C2297 C2296 1.290 1_556 S
C2297 C2298 1.379 . S
C2298 H2282 0.931 . S
C2298 C2292 1.383 1_556 S
C2298 C2297 1.379 . S
H2299 C2293 0.959 . S
H2300 C2293 0.961 . S
H2301 C2293 0.960 . S
H2302 C2294 0.930 . S
H2303 C2295 0.929 . S
H2304 C2312 0.929 . S
H2305 C2314 0.930 . S
H2306 C2316 0.930 . S
H2307 C2319 0.929 . S
H2308 C2322 0.930 . S
H2309 C2324 0.960 . S
H2310 C2324 0.960 . S
H2311 C2324 0.960 . S
C2312 H2304 0.929 . S
C2312 C2313 1.377 . S
C2312 C2314 1.384 . S
C2313 C2312 1.377 . S
C2313 C2319 1.390 . S
C2314 H2305 0.930 . S
C2314 C2312 1.384 . S
C2314 C2315 1.372 . S
C2315 C2314 1.372 . S
C2315 C2316 1.400 . S
C2315 C2320 1.490 . S
C2316 H2306 0.930 . S
C2316 C2315 1.400 . S
C2316 C2319 1.386 . S
H2317 C2333 0.930 . S
H2318 C2334 0.931 . S
C2319 H2307 0.929 . S
C2319 C2313 1.390 . S
C2319 C2316 1.386 . S
C2320 C2315 1.490 . S
C2320 C2322 1.395 . S
C2320 C2323 1.403 . S
H2321 C2327 0.930 . S
C2322 H2308 0.930 . S
C2322 C2320 1.395 . S
C2322 C2325 1.403 . S
C2323 C2320 1.403 . S
C2323 C2324 1.524 . S
C2323 C2327 1.400 . S
C2324 H2309 0.960 . S
C2324 H2310 0.960 . S
C2324 H2311 0.960 . S
C2324 C2323 1.524 . S
C2325 C2322 1.403 . S
C2325 C2326 1.392 . S
C2325 C2329 1.495 . S
C2326 C2325 1.392 . S
C2326 C2327 1.385 . S
C2326 C2328 1.478 . S
C2327 H2321 0.930 . S
C2327 C2323 1.400 . S
C2327 C2326 1.385 . S
C2328 C2326 1.478 . S
C2328 C2330 1.381 . S
C2328 C2334 1.383 . S
C2329 C2325 1.495 . S
C2329 H2335 0.959 . S
C2329 H2336 0.961 . S
C2329 H2337 0.960 . S
C2330 C2328 1.381 . S
C2330 C2331 1.394 . S
C2330 H2338 0.930 . S
C2331 C2330 1.394 . S
C2331 C2332 1.383 . S
C2331 H2339 0.929 . S
C2332 C2331 1.383 . S
C2332 C2333 1.377 . S
C2333 H2317 0.930 . S
C2333 C2332 1.377 . S
C2333 C2334 1.379 . S
C2334 H2318 0.931 . S
C2334 C2328 1.383 . S
C2334 C2333 1.379 . S
H2335 C2329 0.959 . S
H2336 C2329 0.961 . S
H2337 C2329 0.960 . S
H2338 C2330 0.930 . S
H2339 C2331 0.929 . S
H2340 C2348 0.929 . S
H2341 C2350 0.930 . S
H2342 C2352 0.930 . S
H2343 C2355 0.929 . S
H2344 C2358 0.930 . S
H2345 C2360 0.960 . S
H2346 C2360 0.960 . S
H2347 C2360 0.960 . S
C2348 H2340 0.929 . S
C2348 C2349 1.377 . S
C2348 C2350 1.384 . S
C2349 C2348 1.377 . S
C2349 C2355 1.390 . S
C2350 H2341 0.930 . S
C2350 C2348 1.384 . S
C2350 C2351 1.372 . S
C2351 C2350 1.372 . S
C2351 C2352 1.400 . S
C2351 C2356 1.490 . S
C2352 H2342 0.930 . S
C2352 C2351 1.400 . S
C2352 C2355 1.386 . S
H2353 C2369 0.930 . S
H2354 C2370 0.931 . S
C2355 H2343 0.929 . S
C2355 C2349 1.390 . S
C2355 C2352 1.386 . S
C2356 C2351 1.490 . S
C2356 C2358 1.395 . S
C2356 C2359 1.403 . S
H2357 C2363 0.930 . S
C2358 H2344 0.930 . S
C2358 C2356 1.395 . S
C2358 C2361 1.403 . S
C2359 C2356 1.403 . S
C2359 C2360 1.524 . S
C2359 C2363 1.400 . S
C2360 H2345 0.960 . S
C2360 H2346 0.960 . S
C2360 H2347 0.960 . S
C2360 C2359 1.524 . S
C2361 C2358 1.403 . S
C2361 C2362 1.392 . S
C2361 C2365 1.495 . S
C2362 C2361 1.392 . S
C2362 C2363 1.385 . S
C2362 C2364 1.478 . S
C2363 H2357 0.930 . S
C2363 C2359 1.400 . S
C2363 C2362 1.385 . S
C2364 C2362 1.478 . S
C2364 C2366 1.381 . S
C2364 C2370 1.383 . S
C2365 C2361 1.495 . S
C2365 H2371 0.959 . S
C2365 H2372 0.961 . S
C2365 H2373 0.960 . S
C2366 C2364 1.381 . S
C2366 C2367 1.394 . S
C2366 H2374 0.930 . S
C2367 C2366 1.394 . S
C2367 C2368 1.383 . S
C2367 H2375 0.929 . S
C2368 C2367 1.383 . S
C2368 C2369 1.377 . S
C2369 H2353 0.930 . S
C2369 C2368 1.377 . S
C2369 C2370 1.379 . S
C2370 H2354 0.931 . S
C2370 C2364 1.383 . S
C2370 C2369 1.379 . S
H2371 C2365 0.959 . S
H2372 C2365 0.961 . S
H2373 C2365 0.960 . S
H2374 C2366 0.930 . S
H2375 C2367 0.929 . S
H2376 C2384 0.929 . S
H2377 C2386 0.930 . S
H2378 C2388 0.930 . S
H2379 C2391 0.929 . S
H2380 C2394 0.930 . S
H2381 C2396 0.960 . S
H2382 C2396 0.960 . S
H2383 C2396 0.960 . S
C2384 H2376 0.929 . S
C2384 C2385 1.377 . S
C2384 C2386 1.384 . S
C2385 C2384 1.377 . S
C2385 C2391 1.390 . S
C2386 H2377 0.930 . S
C2386 C2384 1.384 . S
C2386 C2387 1.372 . S
C2387 C2386 1.372 . S
C2387 C2388 1.400 . S
C2387 C2392 1.490 . S
C2388 H2378 0.930 . S
C2388 C2387 1.400 . S
C2388 C2391 1.386 . S
H2389 C2405 0.930 . S
H2390 C2406 0.931 . S
C2391 H2379 0.929 . S
C2391 C2385 1.390 . S
C2391 C2388 1.386 . S
C2392 C2387 1.490 . S
C2392 C2394 1.395 . S
C2392 C2395 1.403 . S
H2393 C2399 0.930 . S
C2394 H2380 0.930 . S
C2394 C2392 1.395 . S
C2394 C2397 1.403 . S
C2395 C2392 1.403 . S
C2395 C2396 1.524 . S
C2395 C2399 1.400 . S
C2396 H2381 0.960 . S
C2396 H2382 0.960 . S
C2396 H2383 0.960 . S
C2396 C2395 1.524 . S
C2397 C2394 1.403 . S
C2397 C2398 1.392 . S
C2397 C2401 1.495 . S
C2398 C2397 1.392 . S
C2398 C2399 1.385 . S
C2398 C2400 1.478 . S
C2399 H2393 0.930 . S
C2399 C2395 1.400 . S
C2399 C2398 1.385 . S
C2400 C2398 1.478 . S
C2400 C2402 1.381 . S
C2400 C2406 1.383 . S
C2401 C2397 1.495 . S
C2401 H2407 0.959 . S
C2401 H2408 0.961 . S
C2401 H2409 0.960 . S
C2402 C2400 1.381 . S
C2402 C2403 1.394 . S
C2402 H2410 0.930 . S
C2403 C2402 1.394 . S
C2403 C2404 1.383 . S
C2403 H2411 0.929 . S
C2404 C2403 1.383 . S
C2404 C2405 1.377 . S
C2405 H2389 0.930 . S
C2405 C2404 1.377 . S
C2405 C2406 1.379 . S
C2406 H2390 0.931 . S
C2406 C2400 1.383 . S
C2406 C2405 1.379 . S
H2407 C2401 0.959 . S
H2408 C2401 0.961 . S
H2409 C2401 0.960 . S
H2410 C2402 0.930 . S
H2411 C2403 0.929 . S
H2412 C2420 0.929 . S
H2413 C2422 0.930 . S
H2414 C2424 0.930 . S
H2415 C2427 0.929 . S
H2416 C2430 0.930 . S
H2417 C2432 0.958 . S
H2418 C2432 1.067 . S
H2419 C2432 0.859 1_554 S
C2420 H2412 0.929 . S
C2420 C2421 1.458 . S
C2420 C2422 1.384 . S
C2421 C2420 1.458 . S
C2421 C2427 1.317 1_556 S
C2422 H2413 0.930 . S
C2422 C2420 1.384 . S
C2422 C2423 1.372 . S
C2423 C2422 1.372 . S
C2423 C2424 1.400 1_556 S
C2423 C2428 1.490 . S
C2424 H2414 0.930 . S
C2424 C2423 1.400 1_554 S
C2424 C2427 1.386 . S
H2425 C2441 0.930 . S
H2426 C2442 0.931 . S
C2427 H2415 0.929 . S
C2427 C2421 1.317 1_554 S
C2427 C2424 1.386 . S
C2428 C2423 1.490 . S
C2428 C2430 1.395 . S
C2428 C2431 1.403 . S
H2429 C2435 0.930 . S
C2430 H2416 0.930 . S
C2430 C2428 1.395 . S
C2430 C2433 1.403 . S
C2431 C2428 1.403 . S
C2431 C2432 1.537 . S
C2431 C2435 1.400 . S
C2432 H2417 0.958 . S
C2432 H2418 1.067 . S
C2432 H2419 0.859 1_556 S
C2432 C2431 1.537 . S
C2433 C2430 1.403 . S
C2433 C2434 1.392 . S
C2433 C2437 1.495 . S
C2434 C2433 1.392 . S
C2434 C2435 1.385 . S
C2434 C2436 1.478 . S
C2435 H2429 0.930 . S
C2435 C2431 1.400 . S
C2435 C2434 1.385 . S
C2436 C2434 1.478 . S
C2436 C2438 1.381 . S
C2436 C2442 1.383 1_556 S
C2437 C2433 1.495 . S
C2437 H2443 0.959 . S
C2437 H2444 0.920 1_556 S
C2437 H2445 0.960 . S
C2438 C2436 1.381 . S
C2438 C2439 1.394 . S
C2438 H2446 0.930 . S
C2439 C2438 1.394 . S
C2439 C2440 1.383 . S
C2439 H2447 0.929 . S
C2440 C2439 1.383 . S
C2440 C2441 1.377 1_556 S
C2441 H2425 0.930 . S
C2441 C2440 1.377 1_554 S
C2441 C2442 1.379 . S
C2442 H2426 0.931 . S
C2442 C2436 1.383 1_554 S
C2442 C2441 1.379 . S
H2443 C2437 0.959 . S
H2444 C2437 0.920 1_554 S
H2445 C2437 0.960 . S
H2446 C2438 0.930 . S
H2447 C2439 0.929 . S
H2448 C2456 0.929 . S
H2449 C2458 0.930 . S
H2450 C2460 0.930 . S
H2451 C2463 0.929 . S
H2452 C2466 0.930 . S
H2453 C2468 0.960 . S
H2454 C2468 0.960 . S
H2455 C2468 0.987 . S
C2456 H2448 0.929 . S
C2456 C2457 1.346 1_554 S
C2456 C2458 1.384 . S
C2457 C2456 1.346 1_556 S
C2457 C2463 1.424 . S
C2458 H2449 0.930 . S
C2458 C2456 1.384 . S
C2458 C2459 1.303 1_554 S
C2459 C2458 1.303 1_556 S
C2459 C2460 1.472 . S
C2459 C2464 1.501 . S
C2460 H2450 0.930 . S
C2460 C2459 1.472 . S
C2460 C2463 1.386 . S
H2461 C2477 0.930 . S
H2462 C2478 0.931 . S
C2463 H2451 0.929 . S
C2463 C2457 1.424 . S
C2463 C2460 1.386 . S
C2464 C2459 1.501 . S
C2464 C2466 1.395 . S
C2464 C2467 1.375 1_556 S
H2465 C2471 0.931 . S
C2466 H2452 0.930 . S
C2466 C2464 1.395 . S
C2466 C2469 1.403 . S
C2467 C2464 1.375 1_554 S
C2467 C2468 1.576 . S
C2467 C2471 1.394 . S
C2468 H2453 0.960 . S
C2468 H2454 0.960 . S
C2468 H2455 0.987 . S
C2468 C2467 1.576 . S
C2469 C2466 1.403 . S
C2469 C2470 1.392 . S
C2469 C2473 1.495 . S
C2470 C2469 1.392 . S
C2470 C2471 1.384 1_556 S
C2470 C2472 1.478 . S
C2471 H2465 0.931 . S
C2471 C2467 1.394 . S
C2471 C2470 1.384 1_554 S
C2472 C2470 1.478 . S
C2472 C2474 1.381 1_556 S
C2472 C2478 1.383 . S
C2473 C2469 1.495 . S
C2473 H2479 0.959 . S
C2473 H2480 0.961 . S
C2473 H2481 0.960 . S
C2474 C2472 1.381 1_554 S
C2474 C2475 1.394 . S
C2474 H2482 0.930 . S
C2475 C2474 1.394 . S
C2475 C2476 1.383 1_554 S
C2475 H2483 0.929 . S
C2476 C2475 1.383 1_556 S
C2476 C2477 1.377 . S
C2477 H2461 0.930 . S
C2477 C2476 1.377 . S
C2477 C2478 1.379 . S
C2478 H2462 0.931 . S
C2478 C2472 1.383 . S
C2478 C2477 1.379 . S
H2479 C2473 0.959 . S
H2480 C2473 0.961 . S
H2481 C2473 0.960 . S
H2482 C2474 0.930 . S
H2483 C2475 0.929 . S
H2484 C2492 0.929 . S
H2485 C2494 0.930 . S
H2486 C2496 0.930 . S
H2487 C2499 0.929 . S
H2488 C2502 0.930 . S
H2489 C2504 0.960 . S
H2490 C2504 0.965 . S
H2491 C2504 0.960 . S
C2492 H2484 0.929 . S
C2492 C2493 1.460 . S
C2492 C2494 1.384 . S
C2493 C2492 1.460 . S
C2493 C2499 1.313 1_556 S
C2494 H2485 0.930 . S
C2494 C2492 1.384 . S
C2494 C2495 1.372 . S
C2495 C2494 1.372 . S
C2495 C2496 1.400 1_556 S
C2495 C2500 1.490 . S
C2496 H2486 0.930 . S
C2496 C2495 1.400 1_554 S
C2496 C2499 1.386 . S
H2497 C2513 0.930 . S
H2498 C2514 0.931 . S
C2499 H2487 0.929 . S
C2499 C2493 1.313 1_554 S
C2499 C2496 1.386 . S
C2500 C2495 1.490 . S
C2500 C2502 1.395 . S
C2500 C2503 1.369 1_556 S
H2501 C2507 0.938 . S
C2502 H2488 0.930 . S
C2502 C2500 1.395 . S
C2502 C2505 1.403 . S
C2503 C2500 1.369 1_554 S
C2503 C2504 1.568 . S
C2503 C2507 1.397 . S
C2504 H2489 0.960 . S
C2504 H2490 0.965 . S
C2504 H2491 0.960 . S
C2504 C2503 1.568 . S
C2505 C2502 1.403 . S
C2505 C2506 1.392 . S
C2505 C2509 1.495 . S
C2506 C2505 1.392 . S
C2506 C2507 1.377 1_556 S
C2506 C2508 1.478 . S
C2507 H2501 0.938 . S
C2507 C2503 1.397 . S
C2507 C2506 1.377 1_554 S
C2508 C2506 1.478 . S
C2508 C2510 1.381 . S
C2508 C2514 1.383 1_556 S
C2509 C2505 1.495 . S
C2509 H2515 0.959 . S
C2509 H2516 0.961 . S
C2509 H2517 0.960 . S
C2510 C2508 1.381 . S
C2510 C2511 1.394 . S
C2510 H2518 0.930 . S
C2511 C2510 1.394 . S
C2511 C2512 1.383 . S
C2511 H2519 0.929 . S
C2512 C2511 1.383 . S
C2512 C2513 1.377 1_556 S
C2513 H2497 0.930 . S
C2513 C2512 1.377 1_554 S
C2513 C2514 1.379 . S
C2514 H2498 0.931 . S
C2514 C2508 1.383 1_554 S
C2514 C2513 1.379 . S
H2515 C2509 0.959 . S
H2516 C2509 0.961 . S
H2517 C2509 0.960 . S
H2518 C2510 0.930 . S
H2519 C2511 0.929 . S
H2520 C2528 0.929 . S
H2521 C2530 0.930 . S
H2522 C2532 0.930 . S
H2523 C2535 0.929 . S
H2524 C2538 0.930 . S
H2525 C2540 0.960 . S
H2526 C2540 0.960 . S
H2527 C2540 0.960 . S
C2528 H2520 0.929 . S
C2528 C2529 1.377 . S
C2528 C2530 1.384 . S
C2529 C2528 1.377 . S
C2529 C2535 1.390 . S
C2530 H2521 0.930 . S
C2530 C2528 1.384 . S
C2530 C2531 1.372 . S
C2531 C2530 1.372 . S
C2531 C2532 1.400 . S
C2531 C2536 1.490 . S
C2532 H2522 0.930 . S
C2532 C2531 1.400 . S
C2532 C2535 1.386 . S
H2533 C2549 0.930 . S
H2534 C2550 0.931 . S
C2535 H2523 0.929 . S
C2535 C2529 1.390 . S
C2535 C2532 1.386 . S
C2536 C2531 1.490 . S
C2536 C2538 1.395 . S
C2536 C2539 1.403 . S
H2537 C2543 0.930 . S
C2538 H2524 0.930 . S
C2538 C2536 1.395 . S
C2538 C2541 1.403 . S
C2539 C2536 1.403 . S
C2539 C2540 1.524 . S
C2539 C2543 1.400 . S
C2540 H2525 0.960 . S
C2540 H2526 0.960 . S
C2540 H2527 0.960 . S
C2540 C2539 1.524 . S
C2541 C2538 1.403 . S
C2541 C2542 1.392 . S
C2541 C2545 1.495 . S
C2542 C2541 1.392 . S
C2542 C2543 1.385 . S
C2542 C2544 1.478 . S
C2543 H2537 0.930 . S
C2543 C2539 1.400 . S
C2543 C2542 1.385 . S
C2544 C2542 1.478 . S
C2544 C2546 1.381 . S
C2544 C2550 1.383 . S
C2545 C2541 1.495 . S
C2545 H2551 0.959 . S
C2545 H2552 0.961 . S
C2545 H2553 0.960 . S
C2546 C2544 1.381 . S
C2546 C2547 1.394 . S
C2546 H2554 0.930 . S
C2547 C2546 1.394 . S
C2547 C2548 1.383 . S
C2547 H2555 0.929 . S
C2548 C2547 1.383 . S
C2548 C2549 1.377 . S
C2549 H2533 0.930 . S
C2549 C2548 1.377 . S
C2549 C2550 1.379 . S
C2550 H2534 0.931 . S
C2550 C2544 1.383 . S
C2550 C2549 1.379 . S
H2551 C2545 0.959 . S
H2552 C2545 0.961 . S
H2553 C2545 0.960 . S
H2554 C2546 0.930 . S
H2555 C2547 0.929 . S
H2556 C2564 0.929 . S
H2557 C2566 0.930 . S
H2558 C2568 0.930 . S
H2559 C2571 0.929 . S
H2560 C2574 0.930 . S
H2561 C2576 0.960 . S
H2562 C2576 0.960 . S
H2563 C2576 0.960 . S
C2564 H2556 0.929 . S
C2564 C2565 1.377 . S
C2564 C2566 1.384 . S
C2565 C2564 1.377 . S
C2565 C2571 1.390 . S
C2566 H2557 0.930 . S
C2566 C2564 1.384 . S
C2566 C2567 1.372 . S
C2567 C2566 1.372 . S
C2567 C2568 1.400 . S
C2567 C2572 1.490 . S
C2568 H2558 0.930 . S
C2568 C2567 1.400 . S
C2568 C2571 1.386 . S
H2569 C2585 0.930 . S
H2570 C2586 0.931 . S
C2571 H2559 0.929 . S
C2571 C2565 1.390 . S
C2571 C2568 1.386 . S
C2572 C2567 1.490 . S
C2572 C2574 1.395 . S
C2572 C2575 1.403 . S
H2573 C2579 0.930 . S
C2574 H2560 0.930 . S
C2574 C2572 1.395 . S
C2574 C2577 1.403 . S
C2575 C2572 1.403 . S
C2575 C2576 1.524 . S
C2575 C2579 1.400 . S
C2576 H2561 0.960 . S
C2576 H2562 0.960 . S
C2576 H2563 0.960 . S
C2576 C2575 1.524 . S
C2577 C2574 1.403 . S
C2577 C2578 1.392 . S
C2577 C2581 1.495 . S
C2578 C2577 1.392 . S
C2578 C2579 1.385 . S
C2578 C2580 1.478 . S
C2579 H2573 0.930 . S
C2579 C2575 1.400 . S
C2579 C2578 1.385 . S
C2580 C2578 1.478 . S
C2580 C2582 1.381 . S
C2580 C2586 1.383 . S
C2581 C2577 1.495 . S
C2581 H2587 0.959 . S
C2581 H2588 0.961 . S
C2581 H2589 0.960 . S
C2582 C2580 1.381 . S
C2582 C2583 1.394 . S
C2582 H2590 0.930 . S
C2583 C2582 1.394 . S
C2583 C2584 1.383 . S
C2583 H2591 0.929 . S
C2584 C2583 1.383 . S
C2584 C2585 1.377 . S
C2585 H2569 0.930 . S
C2585 C2584 1.377 . S
C2585 C2586 1.379 . S
C2586 H2570 0.931 . S
C2586 C2580 1.383 . S
C2586 C2585 1.379 . S
H2587 C2581 0.959 . S
H2588 C2581 0.961 . S
H2589 C2581 0.960 . S
H2590 C2582 0.930 . S
H2591 C2583 0.929 . S
H2592 C2600 0.929 . S
H2593 C2602 0.930 . S
H2594 C2604 0.930 . S
H2595 C2607 0.929 . S
H2596 C2610 0.930 . S
H2597 C2612 0.960 . S
H2598 C2612 0.960 . S
H2599 C2612 0.960 . S
C2600 H2592 0.929 . S
C2600 C2601 1.377 . S
C2600 C2602 1.384 . S
C2601 C2600 1.377 . S
C2601 C2607 1.390 . S
C2602 H2593 0.930 . S
C2602 C2600 1.384 . S
C2602 C2603 1.372 . S
C2603 C2602 1.372 . S
C2603 C2604 1.400 . S
C2603 C2608 1.490 . S
C2604 H2594 0.930 . S
C2604 C2603 1.400 . S
C2604 C2607 1.386 . S
H2605 C2621 0.930 . S
H2606 C2622 0.931 . S
C2607 H2595 0.929 . S
C2607 C2601 1.390 . S
C2607 C2604 1.386 . S
C2608 C2603 1.490 . S
C2608 C2610 1.395 . S
C2608 C2611 1.403 . S
H2609 C2615 0.930 . S
C2610 H2596 0.930 . S
C2610 C2608 1.395 . S
C2610 C2613 1.403 . S
C2611 C2608 1.403 . S
C2611 C2612 1.524 . S
C2611 C2615 1.400 . S
C2612 H2597 0.960 . S
C2612 H2598 0.960 . S
C2612 H2599 0.960 . S
C2612 C2611 1.524 . S
C2613 C2610 1.403 . S
C2613 C2614 1.392 . S
C2613 C2617 1.495 . S
C2614 C2613 1.392 . S
C2614 C2615 1.385 . S
C2614 C2616 1.478 . S
C2615 H2609 0.930 . S
C2615 C2611 1.400 . S
C2615 C2614 1.385 . S
C2616 C2614 1.478 . S
C2616 C2618 1.381 . S
C2616 C2622 1.383 . S
C2617 C2613 1.495 . S
C2617 H2623 0.959 . S
C2617 H2624 0.961 . S
C2617 H2625 0.960 . S
C2618 C2616 1.381 . S
C2618 C2619 1.394 . S
C2618 H2626 0.930 . S
C2619 C2618 1.394 . S
C2619 C2620 1.383 . S
C2619 H2627 0.929 . S
C2620 C2619 1.383 . S
C2620 C2621 1.377 . S
C2621 H2605 0.930 . S
C2621 C2620 1.377 . S
C2621 C2622 1.379 . S
C2622 H2606 0.931 . S
C2622 C2616 1.383 . S
C2622 C2621 1.379 . S
H2623 C2617 0.959 . S
H2624 C2617 0.961 . S
H2625 C2617 0.960 . S
H2626 C2618 0.930 . S
H2627 C2619 0.929 . S
H2628 C2636 0.929 . S
H2629 C2638 0.930 . S
H2630 C2640 0.930 . S
H2631 C2643 0.929 . S
H2632 C2646 0.930 . S
H2633 C2648 0.960 . S
H2634 C2648 0.960 . S
H2635 C2648 0.960 . S
C2636 H2628 0.929 . S
C2636 C2637 1.377 . S
C2636 C2638 1.384 . S
C2637 C2636 1.377 . S
C2637 C2643 1.390 . S
C2638 H2629 0.930 . S
C2638 C2636 1.384 . S
C2638 C2639 1.372 . S
C2639 C2638 1.372 . S
C2639 C2640 1.400 . S
C2639 C2644 1.490 . S
C2640 H2630 0.930 . S
C2640 C2639 1.400 . S
C2640 C2643 1.386 . S
H2641 C2657 0.930 . S
H2642 C2658 0.931 . S
C2643 H2631 0.929 . S
C2643 C2637 1.390 . S
C2643 C2640 1.386 . S
C2644 C2639 1.490 . S
C2644 C2646 1.395 . S
C2644 C2647 1.403 . S
H2645 C2651 0.930 . S
C2646 H2632 0.930 . S
C2646 C2644 1.395 . S
C2646 C2649 1.403 . S
C2647 C2644 1.403 . S
C2647 C2648 1.524 . S
C2647 C2651 1.400 . S
C2648 H2633 0.960 . S
C2648 H2634 0.960 . S
C2648 H2635 0.960 . S
C2648 C2647 1.524 . S
C2649 C2646 1.403 . S
C2649 C2650 1.392 . S
C2649 C2653 1.495 . S
C2650 C2649 1.392 . S
C2650 C2651 1.385 . S
C2650 C2652 1.478 . S
C2651 H2645 0.930 . S
C2651 C2647 1.400 . S
C2651 C2650 1.385 . S
C2652 C2650 1.478 . S
C2652 C2654 1.381 . S
C2652 C2658 1.383 . S
C2653 C2649 1.495 . S
C2653 H2659 0.959 . S
C2653 H2660 0.961 . S
C2653 H2661 0.960 . S
C2654 C2652 1.381 . S
C2654 C2655 1.394 . S
C2654 H2662 0.930 . S
C2655 C2654 1.394 . S
C2655 C2656 1.383 . S
C2655 H2663 0.929 . S
C2656 C2655 1.383 . S
C2656 C2657 1.377 . S
C2657 H2641 0.930 . S
C2657 C2656 1.377 . S
C2657 C2658 1.379 . S
C2658 H2642 0.931 . S
C2658 C2652 1.383 . S
C2658 C2657 1.379 . S
H2659 C2653 0.959 . S
H2660 C2653 0.961 . S
H2661 C2653 0.960 . S
H2662 C2654 0.930 . S
H2663 C2655 0.929 . S
H2664 C2672 0.929 . S
H2665 C2674 0.930 . S
H2666 C2676 0.930 . S
H2667 C2679 0.929 . S
H2668 C2682 0.930 . S
H2669 C2684 0.960 . S
H2670 C2684 0.960 . S
H2671 C2684 0.960 . S
C2672 H2664 0.929 . S
C2672 C2673 1.377 . S
C2672 C2674 1.384 . S
C2673 C2672 1.377 . S
C2673 C2679 1.390 . S
C2674 H2665 0.930 . S
C2674 C2672 1.384 . S
C2674 C2675 1.372 . S
C2675 C2674 1.372 . S
C2675 C2676 1.400 . S
C2675 C2680 1.490 . S
C2676 H2666 0.930 . S
C2676 C2675 1.400 . S
C2676 C2679 1.386 . S
H2677 C2693 0.930 . S
H2678 C2694 0.931 . S
C2679 H2667 0.929 . S
C2679 C2673 1.390 . S
C2679 C2676 1.386 . S
C2680 C2675 1.490 . S
C2680 C2682 1.395 . S
C2680 C2683 1.403 . S
H2681 C2687 0.930 . S
C2682 H2668 0.930 . S
C2682 C2680 1.395 . S
C2682 C2685 1.403 . S
C2683 C2680 1.403 . S
C2683 C2684 1.524 . S
C2683 C2687 1.400 . S
C2684 H2669 0.960 . S
C2684 H2670 0.960 . S
C2684 H2671 0.960 . S
C2684 C2683 1.524 . S
C2685 C2682 1.403 . S
C2685 C2686 1.392 . S
C2685 C2689 1.495 . S
C2686 C2685 1.392 . S
C2686 C2687 1.385 . S
C2686 C2688 1.478 . S
C2687 H2681 0.930 . S
C2687 C2683 1.400 . S
C2687 C2686 1.385 . S
C2688 C2686 1.478 . S
C2688 C2690 1.381 . S
C2688 C2694 1.383 . S
C2689 C2685 1.495 . S
C2689 H2695 0.959 . S
C2689 H2696 0.961 . S
C2689 H2697 0.960 . S
C2690 C2688 1.381 . S
C2690 C2691 1.394 . S
C2690 H2698 0.930 . S
C2691 C2690 1.394 . S
C2691 C2692 1.383 . S
C2691 H2699 0.929 . S
C2692 C2691 1.383 . S
C2692 C2693 1.377 . S
C2693 H2677 0.930 . S
C2693 C2692 1.377 . S
C2693 C2694 1.379 . S
C2694 H2678 0.931 . S
C2694 C2688 1.383 . S
C2694 C2693 1.379 . S
H2695 C2689 0.959 . S
H2696 C2689 0.961 . S
H2697 C2689 0.960 . S
H2698 C2690 0.930 . S
H2699 C2691 0.929 . S
H2700 C2708 0.929 . S
H2701 C2710 0.930 . S
H2702 C2712 0.930 . S
H2703 C2715 0.929 . S
H2704 C2718 0.930 . S
H2705 C2720 0.960 . S
H2706 C2720 0.960 . S
H2707 C2720 0.960 . S
C2708 H2700 0.929 . S
C2708 C2709 1.377 . S
C2708 C2710 1.384 . S
C2709 C2708 1.377 . S
C2709 C2715 1.390 . S
C2710 H2701 0.930 . S
C2710 C2708 1.384 . S
C2710 C2711 1.372 . S
C2711 C2710 1.372 . S
C2711 C2712 1.400 . S
C2711 C2716 1.490 . S
C2712 H2702 0.930 . S
C2712 C2711 1.400 . S
C2712 C2715 1.386 . S
H2713 C2729 0.930 . S
H2714 C2730 0.931 . S
C2715 H2703 0.929 . S
C2715 C2709 1.390 . S
C2715 C2712 1.386 . S
C2716 C2711 1.490 . S
C2716 C2718 1.395 . S
C2716 C2719 1.403 . S
H2717 C2723 0.930 . S
C2718 H2704 0.930 . S
C2718 C2716 1.395 . S
C2718 C2721 1.403 . S
C2719 C2716 1.403 . S
C2719 C2720 1.524 . S
C2719 C2723 1.400 . S
C2720 H2705 0.960 . S
C2720 H2706 0.960 . S
C2720 H2707 0.960 . S
C2720 C2719 1.524 . S
C2721 C2718 1.403 . S
C2721 C2722 1.392 . S
C2721 C2725 1.495 . S
C2722 C2721 1.392 . S
C2722 C2723 1.385 . S
C2722 C2724 1.478 . S
C2723 H2717 0.930 . S
C2723 C2719 1.400 . S
C2723 C2722 1.385 . S
C2724 C2722 1.478 . S
C2724 C2726 1.381 . S
C2724 C2730 1.383 . S
C2725 C2721 1.495 . S
C2725 H2731 0.959 . S
C2725 H2732 0.961 . S
C2725 H2733 0.960 . S
C2726 C2724 1.381 . S
C2726 C2727 1.394 . S
C2726 H2734 0.930 . S
C2727 C2726 1.394 . S
C2727 C2728 1.383 . S
C2727 H2735 0.929 . S
C2728 C2727 1.383 . S
C2728 C2729 1.377 . S
C2729 H2713 0.930 . S
C2729 C2728 1.377 . S
C2729 C2730 1.379 . S
C2730 H2714 0.931 . S
C2730 C2724 1.383 . S
C2730 C2729 1.379 . S
H2731 C2725 0.959 . S
H2732 C2725 0.961 . S
H2733 C2725 0.960 . S
H2734 C2726 0.930 . S
H2735 C2727 0.929 . S
H2736 C2744 0.929 . S
H2737 C2746 0.930 . S
H2738 C2748 0.930 . S
H2739 C2751 0.929 . S
H2740 C2754 0.930 . S
H2741 C2756 0.960 . S
H2742 C2756 0.960 . S
H2743 C2756 0.960 . S
C2744 H2736 0.929 . S
C2744 C2745 1.377 . S
C2744 C2746 1.384 . S
C2745 C2744 1.377 . S
C2745 C2751 1.390 . S
C2746 H2737 0.930 . S
C2746 C2744 1.384 . S
C2746 C2747 1.372 . S
C2747 C2746 1.372 . S
C2747 C2748 1.400 . S
C2747 C2752 1.490 . S
C2748 H2738 0.930 . S
C2748 C2747 1.400 . S
C2748 C2751 1.386 . S
H2749 C2765 0.930 . S
H2750 C2766 0.931 . S
C2751 H2739 0.929 . S
C2751 C2745 1.390 . S
C2751 C2748 1.386 . S
C2752 C2747 1.490 . S
C2752 C2754 1.395 . S
C2752 C2755 1.403 . S
H2753 C2759 0.930 . S
C2754 H2740 0.930 . S
C2754 C2752 1.395 . S
C2754 C2757 1.403 . S
C2755 C2752 1.403 . S
C2755 C2756 1.524 . S
C2755 C2759 1.400 . S
C2756 H2741 0.960 . S
C2756 H2742 0.960 . S
C2756 H2743 0.960 . S
C2756 C2755 1.524 . S
C2757 C2754 1.403 . S
C2757 C2758 1.392 . S
C2757 C2761 1.495 . S
C2758 C2757 1.392 . S
C2758 C2759 1.385 . S
C2758 C2760 1.478 . S
C2759 H2753 0.930 . S
C2759 C2755 1.400 . S
C2759 C2758 1.385 . S
C2760 C2758 1.478 . S
C2760 C2762 1.381 . S
C2760 C2766 1.383 . S
C2761 C2757 1.495 . S
C2761 H2767 0.959 . S
C2761 H2768 0.961 . S
C2761 H2769 0.960 . S
C2762 C2760 1.381 . S
C2762 C2763 1.394 . S
C2762 H2770 0.930 . S
C2763 C2762 1.394 . S
C2763 C2764 1.383 . S
C2763 H2771 0.929 . S
C2764 C2763 1.383 . S
C2764 C2765 1.377 . S
C2765 H2749 0.930 . S
C2765 C2764 1.377 . S
C2765 C2766 1.379 . S
C2766 H2750 0.931 . S
C2766 C2760 1.383 . S
C2766 C2765 1.379 . S
H2767 C2761 0.959 . S
H2768 C2761 0.961 . S
H2769 C2761 0.960 . S
H2770 C2762 0.930 . S
H2771 C2763 0.929 . S
H2772 C2780 0.929 . S
H2773 C2782 0.930 . S
H2774 C2784 0.930 . S
H2775 C2787 0.929 . S
H2776 C2790 0.930 1_545 S
H2777 C2792 0.960 . S
H2778 C2792 0.960 . S
H2779 C2792 0.960 . S
C2780 H2772 0.929 . S
C2780 C2781 1.377 . S
C2780 C2782 1.384 . S
C2781 C2780 1.377 . S
C2781 C2787 1.390 1_545 S
C2782 H2773 0.930 . S
C2782 C2780 1.384 . S
C2782 C2783 1.372 . S
C2783 C2782 1.372 . S
C2783 C2784 1.400 1_545 S
C2783 C2788 1.490 1_545 S
C2784 H2774 0.930 . S
C2784 C2783 1.400 1_565 S
C2784 C2787 1.386 . S
H2785 C2801 0.930 . S
H2786 C2802 0.931 . S
C2787 H2775 0.929 . S
C2787 C2781 1.390 1_565 S
C2787 C2784 1.386 . S
C2788 C2783 1.490 1_565 S
C2788 C2790 1.395 . S
C2788 C2791 1.403 . S
H2789 C2795 0.930 . S
C2790 H2776 0.930 1_565 S
C2790 C2788 1.395 . S
C2790 C2793 1.403 . S
C2791 C2788 1.403 . S
C2791 C2792 1.524 . S
C2791 C2795 1.400 . S
C2792 H2777 0.960 . S
C2792 H2778 0.960 . S
C2792 H2779 0.960 . S
C2792 C2791 1.524 . S
C2793 C2790 1.403 . S
C2793 C2794 1.392 . S
C2793 C2797 1.495 . S
C2794 C2793 1.392 . S
C2794 C2795 1.385 . S
C2794 C2796 1.478 . S
C2795 H2789 0.930 . S
C2795 C2791 1.400 . S
C2795 C2794 1.385 . S
C2796 C2794 1.478 . S
C2796 C2798 1.381 . S
C2796 C2802 1.383 . S
C2797 C2793 1.495 . S
C2797 H2803 0.959 . S
C2797 H2804 0.961 . S
C2797 H2805 0.960 . S
C2798 C2796 1.381 . S
C2798 C2799 1.394 . S
C2798 H2806 0.930 . S
C2799 C2798 1.394 . S
C2799 C2800 1.383 . S
C2799 H2807 0.929 . S
C2800 C2799 1.383 . S
C2800 C2801 1.377 . S
C2801 H2785 0.930 . S
C2801 C2800 1.377 . S
C2801 C2802 1.379 . S
C2802 H2786 0.931 . S
C2802 C2796 1.383 . S
C2802 C2801 1.379 . S
H2803 C2797 0.959 . S
H2804 C2797 0.961 . S
H2805 C2797 0.960 . S
H2806 C2798 0.930 . S
H2807 C2799 0.929 . S
H2808 C2816 0.929 . S
H2809 C2818 0.930 . S
H2810 C2820 0.930 . S
H2811 C2823 0.929 . S
H2812 C2826 0.930 . S
H2813 C2828 0.960 . S
H2814 C2828 0.960 . S
H2815 C2828 0.960 . S
C2816 H2808 0.929 . S
C2816 C2817 1.377 . S
C2816 C2818 1.384 . S
C2817 C2816 1.377 . S
C2817 C2823 1.390 . S
C2818 H2809 0.930 . S
C2818 C2816 1.384 . S
C2818 C2819 1.372 . S
C2819 C2818 1.372 . S
C2819 C2820 1.400 . S
C2819 C2824 1.490 . S
C2820 H2810 0.930 . S
C2820 C2819 1.400 . S
C2820 C2823 1.386 . S
H2821 C2837 0.930 . S
H2822 C2838 0.931 . S
C2823 H2811 0.929 . S
C2823 C2817 1.390 . S
C2823 C2820 1.386 . S
C2824 C2819 1.490 . S
C2824 C2826 1.395 . S
C2824 C2827 1.403 . S
H2825 C2831 0.930 1_655 S
C2826 H2812 0.930 . S
C2826 C2824 1.395 . S
C2826 C2829 1.403 . S
C2827 C2824 1.403 . S
C2827 C2828 1.524 1_455 S
C2827 C2831 1.400 . S
C2828 H2813 0.960 . S
C2828 H2814 0.960 . S
C2828 H2815 0.960 . S
C2828 C2827 1.524 1_655 S
C2829 C2826 1.403 . S
C2829 C2830 1.392 . S
C2829 C2833 1.495 . S
C2830 C2829 1.392 . S
C2830 C2831 1.385 . S
C2830 C2832 1.478 . S
C2831 H2825 0.930 1_455 S
C2831 C2827 1.400 . S
C2831 C2830 1.385 . S
C2832 C2830 1.478 . S
C2832 C2834 1.381 . S
C2832 C2838 1.383 1_455 S
C2833 C2829 1.495 . S
C2833 H2839 0.959 . S
C2833 H2840 0.961 . S
C2833 H2841 0.960 . S
C2834 C2832 1.381 . S
C2834 C2835 1.394 1_455 S
C2834 H2842 0.930 . S
C2835 C2834 1.394 1_655 S
C2835 C2836 1.383 . S
C2835 H2843 0.929 . S
C2836 C2835 1.383 . S
C2836 C2837 1.377 . S
C2837 H2821 0.930 . S
C2837 C2836 1.377 . S
C2837 C2838 1.379 . S
C2838 H2822 0.931 . S
C2838 C2832 1.383 1_655 S
C2838 C2837 1.379 . S
H2839 C2833 0.959 . S
H2840 C2833 0.961 . S
H2841 C2833 0.960 . S
H2842 C2834 0.930 . S
H2843 C2835 0.929 . S
H2844 C2852 0.929 . S
H2845 C2854 0.930 . S
H2846 C2856 0.930 . S
H2847 C2859 0.929 . S
H2848 C2862 0.930 . S
H2849 C2864 0.960 . S
H2850 C2864 0.960 . S
H2851 C2864 0.960 . S
C2852 H2844 0.929 . S
C2852 C2853 1.377 . S
C2852 C2854 1.384 . S
C2853 C2852 1.377 . S
C2853 C2859 1.390 . S
C2854 H2845 0.930 . S
C2854 C2852 1.384 . S
C2854 C2855 1.372 . S
C2855 C2854 1.372 . S
C2855 C2856 1.400 . S
C2855 C2860 1.490 . S
C2856 H2846 0.930 . S
C2856 C2855 1.400 . S
C2856 C2859 1.386 . S
H2857 C2873 0.930 . S
H2858 C2874 0.931 . S
C2859 H2847 0.929 . S
C2859 C2853 1.390 . S
C2859 C2856 1.386 . S
C2860 C2855 1.490 . S
C2860 C2862 1.395 . S
C2860 C2863 1.403 . S
H2861 C2867 0.930 . S
C2862 H2848 0.930 . S
C2862 C2860 1.395 . S
C2862 C2865 1.403 . S
C2863 C2860 1.403 . S
C2863 C2864 1.524 . S
C2863 C2867 1.400 . S
C2864 H2849 0.960 . S
C2864 H2850 0.960 . S
C2864 H2851 0.960 . S
C2864 C2863 1.524 . S
C2865 C2862 1.403 . S
C2865 C2866 1.392 . S
C2865 C2869 1.495 . S
C2866 C2865 1.392 . S
C2866 C2867 1.385 . S
C2866 C2868 1.478 . S
C2867 H2861 0.930 . S
C2867 C2863 1.400 . S
C2867 C2866 1.385 . S
C2868 C2866 1.478 . S
C2868 C2870 1.381 . S
C2868 C2874 1.383 . S
C2869 C2865 1.495 . S
C2869 H2875 0.959 . S
C2869 H2876 0.961 . S
C2869 H2877 0.960 . S
C2870 C2868 1.381 . S
C2870 C2871 1.394 . S
C2870 H2878 0.930 . S
C2871 C2870 1.394 . S
C2871 C2872 1.383 . S
C2871 H2879 0.929 . S
C2872 C2871 1.383 . S
C2872 C2873 1.377 . S
C2873 H2857 0.930 . S
C2873 C2872 1.377 . S
C2873 C2874 1.379 . S
C2874 H2858 0.931 . S
C2874 C2868 1.383 . S
C2874 C2873 1.379 . S
H2875 C2869 0.959 . S
H2876 C2869 0.961 . S
H2877 C2869 0.960 . S
H2878 C2870 0.930 . S
H2879 C2871 0.929 . S
H2880 C2888 0.929 . S
H2881 C2890 0.930 . S
H2882 C2892 0.930 . S
H2883 C2895 0.929 . S
H2884 C2898 0.930 . S
H2885 C2900 0.960 . S
H2886 C2900 0.960 . S
H2887 C2900 0.960 . S
C2888 H2880 0.929 . S
C2888 C2889 1.377 1_545 S
C2888 C2890 1.384 . S
C2889 C2888 1.377 1_565 S
C2889 C2895 1.390 . S
C2890 H2881 0.930 . S
C2890 C2888 1.384 . S
C2890 C2891 1.372 . S
C2891 C2890 1.372 . S
C2891 C2892 1.400 1_545 S
C2891 C2896 1.490 . S
C2892 H2882 0.930 . S
C2892 C2891 1.400 1_565 S
C2892 C2895 1.386 . S
H2893 C2909 0.930 . S
H2894 C2910 0.931 . S
C2895 H2883 0.929 . S
C2895 C2889 1.390 . S
C2895 C2892 1.386 . S
C2896 C2891 1.490 . S
C2896 C2898 1.395 . S
C2896 C2899 1.403 . S
H2897 C2903 0.930 . S
C2898 H2884 0.930 . S
C2898 C2896 1.395 . S
C2898 C2901 1.403 . S
C2899 C2896 1.403 . S
C2899 C2900 1.524 1_545 S
C2899 C2903 1.400 . S
C2900 H2885 0.960 . S
C2900 H2886 0.960 . S
C2900 H2887 0.960 . S
C2900 C2899 1.524 1_565 S
C2901 C2898 1.403 . S
C2901 C2902 1.392 . S
C2901 C2905 1.495 . S
C2902 C2901 1.392 . S
C2902 C2903 1.385 . S
C2902 C2904 1.478 . S
C2903 H2897 0.930 . S
C2903 C2899 1.400 . S
C2903 C2902 1.385 . S
C2904 C2902 1.478 . S
C2904 C2906 1.381 . S
C2904 C2910 1.383 . S
C2905 C2901 1.495 . S
C2905 H2911 0.959 . S
C2905 H2912 0.961 . S
C2905 H2913 0.960 . S
C2906 C2904 1.381 . S
C2906 C2907 1.394 . S
C2906 H2914 0.930 . S
C2907 C2906 1.394 . S
C2907 C2908 1.383 . S
C2907 H2915 0.929 . S
C2908 C2907 1.383 . S
C2908 C2909 1.377 . S
C2909 H2893 0.930 . S
C2909 C2908 1.377 . S
C2909 C2910 1.379 . S
C2910 H2894 0.931 . S
C2910 C2904 1.383 . S
C2910 C2909 1.379 . S
H2911 C2905 0.959 . S
H2912 C2905 0.961 . S
H2913 C2905 0.960 . S
H2914 C2906 0.930 . S
H2915 C2907 0.929 . S
H2916 C2924 0.929 . S
H2917 C2926 0.930 . S
H2918 C2928 0.930 . S
H2919 C2931 0.929 . S
H2920 C2934 0.930 . S
H2921 C2936 0.960 . S
H2922 C2936 0.960 . S
H2923 C2936 0.960 . S
C2924 H2916 0.929 . S
C2924 C2925 1.377 . S
C2924 C2926 1.384 . S
C2925 C2924 1.377 . S
C2925 C2931 1.390 . S
C2926 H2917 0.930 . S
C2926 C2924 1.384 . S
C2926 C2927 1.372 . S
C2927 C2926 1.372 . S
C2927 C2928 1.400 . S
C2927 C2932 1.490 . S
C2928 H2918 0.930 . S
C2928 C2927 1.400 . S
C2928 C2931 1.386 . S
H2929 C2945 0.930 . S
H2930 C2946 0.931 . S
C2931 H2919 0.929 . S
C2931 C2925 1.390 . S
C2931 C2928 1.386 . S
C2932 C2927 1.490 . S
C2932 C2934 1.395 . S
C2932 C2935 1.403 . S
H2933 C2939 0.930 . S
C2934 H2920 0.930 . S
C2934 C2932 1.395 . S
C2934 C2937 1.403 1_655 S
C2935 C2932 1.403 . S
C2935 C2936 1.524 . S
C2935 C2939 1.400 . S
C2936 H2921 0.960 . S
C2936 H2922 0.960 . S
C2936 H2923 0.960 . S
C2936 C2935 1.524 . S
C2937 C2934 1.403 1_455 S
C2937 C2938 1.392 1_455 S
C2937 C2941 1.495 . S
C2938 C2937 1.392 1_655 S
C2938 C2939 1.385 . S
C2938 C2940 1.478 1_655 S
C2939 H2933 0.930 . S
C2939 C2935 1.400 . S
C2939 C2938 1.385 . S
C2940 C2938 1.478 1_455 S
C2940 C2942 1.381 . S
C2940 C2946 1.383 . S
C2941 C2937 1.495 . S
C2941 H2947 0.959 . S
C2941 H2948 0.961 . S
C2941 H2949 0.960 . S
C2942 C2940 1.381 . S
C2942 C2943 1.394 . S
C2942 H2950 0.930 . S
C2943 C2942 1.394 . S
C2943 C2944 1.383 . S
C2943 H2951 0.929 . S
C2944 C2943 1.383 . S
C2944 C2945 1.377 . S
C2945 H2929 0.930 . S
C2945 C2944 1.377 . S
C2945 C2946 1.379 . S
C2946 H2930 0.931 . S
C2946 C2940 1.383 . S
C2946 C2945 1.379 . S
H2947 C2941 0.959 . S
H2948 C2941 0.961 . S
H2949 C2941 0.960 . S
H2950 C2942 0.930 . S
H2951 C2943 0.929 . S
H2952 C2960 0.929 . S
H2953 C2962 0.930 . S
H2954 C2964 0.930 . S
H2955 C2967 0.929 . S
H2956 C2970 0.930 . S
H2957 C2972 0.960 . S
H2958 C2972 0.960 . S
H2959 C2972 0.960 . S
C2960 H2952 0.929 . S
C2960 C2961 1.377 . S
C2960 C2962 1.384 . S
C2961 C2960 1.377 . S
C2961 C2967 1.390 . S
C2962 H2953 0.930 . S
C2962 C2960 1.384 . S
C2962 C2963 1.372 . S
C2963 C2962 1.372 . S
C2963 C2964 1.400 . S
C2963 C2968 1.490 . S
C2964 H2954 0.930 . S
C2964 C2963 1.400 . S
C2964 C2967 1.386 . S
H2965 C2981 0.930 . S
H2966 C2982 0.931 . S
C2967 H2955 0.929 . S
C2967 C2961 1.390 . S
C2967 C2964 1.386 . S
C2968 C2963 1.490 . S
C2968 C2970 1.395 . S
C2968 C2971 1.403 . S
H2969 C2975 0.930 . S
C2970 H2956 0.930 . S
C2970 C2968 1.395 . S
C2970 C2973 1.403 . S
C2971 C2968 1.403 . S
C2971 C2972 1.524 . S
C2971 C2975 1.400 . S
C2972 H2957 0.960 . S
C2972 H2958 0.960 . S
C2972 H2959 0.960 . S
C2972 C2971 1.524 . S
C2973 C2970 1.403 . S
C2973 C2974 1.392 . S
C2973 C2977 1.495 . S
C2974 C2973 1.392 . S
C2974 C2975 1.385 . S
C2974 C2976 1.478 . S
C2975 H2969 0.930 . S
C2975 C2971 1.400 . S
C2975 C2974 1.385 . S
C2976 C2974 1.478 . S
C2976 C2978 1.381 . S
C2976 C2982 1.383 . S
C2977 C2973 1.495 . S
C2977 H2983 0.959 . S
C2977 H2984 0.961 . S
C2977 H2985 0.960 . S
C2978 C2976 1.381 . S
C2978 C2979 1.394 . S
C2978 H2986 0.930 . S
C2979 C2978 1.394 . S
C2979 C2980 1.383 . S
C2979 H2987 0.929 . S
C2980 C2979 1.383 . S
C2980 C2981 1.377 . S
C2981 H2965 0.930 . S
C2981 C2980 1.377 . S
C2981 C2982 1.379 . S
C2982 H2966 0.931 . S
C2982 C2976 1.383 . S
C2982 C2981 1.379 . S
H2983 C2977 0.959 . S
H2984 C2977 0.961 . S
H2985 C2977 0.960 . S
H2986 C2978 0.930 . S
H2987 C2979 0.929 . S
H2988 C2996 0.929 . S
H2989 C2998 0.930 . S
H2990 C3000 0.930 . S
H2991 C3003 0.929 . S
H2992 C3006 0.930 1_565 S
H2993 C3008 0.960 . S
H2994 C3008 0.960 . S
H2995 C3008 0.960 . S
C2996 H2988 0.929 . S
C2996 C2997 1.377 . S
C2996 C2998 1.384 . S
C2997 C2996 1.377 . S
C2997 C3003 1.390 . S
C2998 H2989 0.930 . S
C2998 C2996 1.384 . S
C2998 C2999 1.372 . S
C2999 C2998 1.372 . S
C2999 C3000 1.400 . S
C2999 C3004 1.490 . S
C3000 H2990 0.930 . S
C3000 C2999 1.400 . S
C3000 C3003 1.386 . S
H3001 C3017 0.930 . S
H3002 C3018 0.931 . S
C3003 H2991 0.929 . S
C3003 C2997 1.390 . S
C3003 C3000 1.386 . S
C3004 C2999 1.490 . S
C3004 C3006 1.395 . S
C3004 C3007 1.403 . S
H3005 C3011 0.930 . S
C3006 H2992 0.930 1_545 S
C3006 C3004 1.395 . S
C3006 C3009 1.403 1_545 S
C3007 C3004 1.403 . S
C3007 C3008 1.524 . S
C3007 C3011 1.400 . S
C3008 H2993 0.960 . S
C3008 H2994 0.960 . S
C3008 H2995 0.960 . S
C3008 C3007 1.524 . S
C3009 C3006 1.403 1_565 S
C3009 C3010 1.392 1_565 S
C3009 C3013 1.495 . S
C3010 C3009 1.392 1_545 S
C3010 C3011 1.385 . S
C3010 C3012 1.478 1_545 S
C3011 H3005 0.930 . S
C3011 C3007 1.400 . S
C3011 C3010 1.385 . S
C3012 C3010 1.478 1_565 S
C3012 C3014 1.381 . S
C3012 C3018 1.383 1_565 S
C3013 C3009 1.495 . S
C3013 H3019 0.959 . S
C3013 H3020 0.961 . S
C3013 H3021 0.960 . S
C3014 C3012 1.381 . S
C3014 C3015 1.394 . S
C3014 H3022 0.930 . S
C3015 C3014 1.394 . S
C3015 C3016 1.383 . S
C3015 H3023 0.929 . S
C3016 C3015 1.383 . S
C3016 C3017 1.377 . S
C3017 H3001 0.930 . S
C3017 C3016 1.377 . S
C3017 C3018 1.379 1_565 S
C3018 H3002 0.931 . S
C3018 C3012 1.383 1_545 S
C3018 C3017 1.379 1_545 S
H3019 C3013 0.959 . S
H3020 C3013 0.961 . S
H3021 C3013 0.960 . S
H3022 C3014 0.930 . S
H3023 C3015 0.929 . S
H3024 C3032 0.929 . S
H3025 C3034 0.930 . S
H3026 C3036 0.930 . S
H3027 C3039 0.929 . S
H3028 C3042 0.930 . S
H3029 C3044 0.960 . S
H3030 C3044 0.960 . S
H3031 C3044 0.960 . S
C3032 H3024 0.929 . S
C3032 C3033 1.377 . S
C3032 C3034 1.384 . S
C3033 C3032 1.377 . S
C3033 C3039 1.390 . S
C3034 H3025 0.930 . S
C3034 C3032 1.384 . S
C3034 C3035 1.372 . S
C3035 C3034 1.372 . S
C3035 C3036 1.400 . S
C3035 C3040 1.490 . S
C3036 H3026 0.930 . S
C3036 C3035 1.400 . S
C3036 C3039 1.386 . S
H3037 C3053 0.930 . S
H3038 C3054 0.931 . S
C3039 H3027 0.929 . S
C3039 C3033 1.390 . S
C3039 C3036 1.386 . S
C3040 C3035 1.490 . S
C3040 C3042 1.395 . S
C3040 C3043 1.403 . S
H3041 C3047 0.930 . S
C3042 H3028 0.930 . S
C3042 C3040 1.395 . S
C3042 C3045 1.403 . S
C3043 C3040 1.403 . S
C3043 C3044 1.524 . S
C3043 C3047 1.400 . S
C3044 H3029 0.960 . S
C3044 H3030 0.960 . S
C3044 H3031 0.960 . S
C3044 C3043 1.524 . S
C3045 C3042 1.403 . S
C3045 C3046 1.392 . S
C3045 C3049 1.495 1_655 S
C3046 C3045 1.392 . S
C3046 C3047 1.385 . S
C3046 C3048 1.478 1_655 S
C3047 H3041 0.930 . S
C3047 C3043 1.400 . S
C3047 C3046 1.385 . S
C3048 C3046 1.478 1_455 S
C3048 C3050 1.381 . S
C3048 C3054 1.383 1_455 S
C3049 C3045 1.495 1_455 S
C3049 H3055 0.959 . S
C3049 H3056 0.961 . S
C3049 H3057 0.960 . S
C3050 C3048 1.381 . S
C3050 C3051 1.394 . S
C3050 H3058 0.930 . S
C3051 C3050 1.394 . S
C3051 C3052 1.383 . S
C3051 H3059 0.929 . S
C3052 C3051 1.383 . S
C3052 C3053 1.377 1_455 S
C3053 H3037 0.930 . S
C3053 C3052 1.377 1_655 S
C3053 C3054 1.379 . S
C3054 H3038 0.931 . S
C3054 C3048 1.383 1_655 S
C3054 C3053 1.379 . S
H3055 C3049 0.959 . S
H3056 C3049 0.961 . S
H3057 C3049 0.960 . S
H3058 C3050 0.930 . S
H3059 C3051 0.929 . S
H3060 C3068 0.929 . S
H3061 C3070 0.930 . S
H3062 C3072 0.930 . S
H3063 C3075 0.929 . S
H3064 C3078 0.930 . S
H3065 C3080 0.960 . S
H3066 C3080 0.960 . S
H3067 C3080 0.960 . S
C3068 H3060 0.929 . S
C3068 C3069 1.377 . S
C3068 C3070 1.384 . S
C3069 C3068 1.377 . S
C3069 C3075 1.390 . S
C3070 H3061 0.930 . S
C3070 C3068 1.384 . S
C3070 C3071 1.372 . S
C3071 C3070 1.372 . S
C3071 C3072 1.400 . S
C3071 C3076 1.490 . S
C3072 H3062 0.930 . S
C3072 C3071 1.400 . S
C3072 C3075 1.386 . S
H3073 C3089 0.930 . S
H3074 C3090 0.931 . S
C3075 H3063 0.929 . S
C3075 C3069 1.390 . S
C3075 C3072 1.386 . S
C3076 C3071 1.490 . S
C3076 C3078 1.395 . S
C3076 C3079 1.403 . S
H3077 C3083 0.930 . S
C3078 H3064 0.930 . S
C3078 C3076 1.395 . S
C3078 C3081 1.403 . S
C3079 C3076 1.403 . S
C3079 C3080 1.524 . S
C3079 C3083 1.400 . S
C3080 H3065 0.960 . S
C3080 H3066 0.960 . S
C3080 H3067 0.960 . S
C3080 C3079 1.524 . S
C3081 C3078 1.403 . S
C3081 C3082 1.392 . S
C3081 C3085 1.495 . S
C3082 C3081 1.392 . S
C3082 C3083 1.385 . S
C3082 C3084 1.478 . S
C3083 H3077 0.930 . S
C3083 C3079 1.400 . S
C3083 C3082 1.385 . S
C3084 C3082 1.478 . S
C3084 C3086 1.381 . S
C3084 C3090 1.383 . S
C3085 C3081 1.495 . S
C3085 H3091 0.959 . S
C3085 H3092 0.961 . S
C3085 H3093 0.960 . S
C3086 C3084 1.381 . S
C3086 C3087 1.394 . S
C3086 H3094 0.930 . S
C3087 C3086 1.394 . S
C3087 C3088 1.383 . S
C3087 H3095 0.929 . S
C3088 C3087 1.383 . S
C3088 C3089 1.377 . S
C3089 H3073 0.930 . S
C3089 C3088 1.377 . S
C3089 C3090 1.379 . S
C3090 H3074 0.931 . S
C3090 C3084 1.383 . S
C3090 C3089 1.379 . S
H3091 C3085 0.959 . S
H3092 C3085 0.961 . S
H3093 C3085 0.960 . S
H3094 C3086 0.930 . S
H3095 C3087 0.929 . S
H3096 C3104 0.929 . S
H3097 C3106 0.930 . S
H3098 C3108 0.930 . S
H3099 C3111 0.929 . S
H3100 C3114 0.930 1_545 S
H3101 C3116 0.960 . S
H3102 C3116 0.960 . S
H3103 C3116 0.960 . S
C3104 H3096 0.929 . S
C3104 C3105 1.377 . S
C3104 C3106 1.384 . S
C3105 C3104 1.377 . S
C3105 C3111 1.390 1_545 S
C3106 H3097 0.930 . S
C3106 C3104 1.384 . S
C3106 C3107 1.374 . S
C3107 C3106 1.374 . S
C3107 C3108 1.397 1_545 S
C3107 C3112 1.490 1_545 S
C3108 H3098 0.930 . S
C3108 C3107 1.397 1_565 S
C3108 C3111 1.386 . S
H3109 C3125 0.930 . S
H3110 C3126 0.931 . S
C3111 H3099 0.929 . S
C3111 C3105 1.390 1_565 S
C3111 C3108 1.386 . S
C3112 C3107 1.490 1_565 S
C3112 C3114 1.395 . S
C3112 C3115 1.403 . S
H3113 C3119 0.930 . S
C3114 H3100 0.930 1_565 S
C3114 C3112 1.395 . S
C3114 C3117 1.403 . S
C3115 C3112 1.403 . S
C3115 C3116 1.524 . S
C3115 C3119 1.400 . S
C3116 H3101 0.960 . S
C3116 H3102 0.960 . S
C3116 H3103 0.960 . S
C3116 C3115 1.524 . S
C3117 C3114 1.403 . S
C3117 C3118 1.392 . S
C3117 C3121 1.495 . S
C3118 C3117 1.392 . S
C3118 C3119 1.385 . S
C3118 C3120 1.478 . S
C3119 H3113 0.930 . S
C3119 C3115 1.400 . S
C3119 C3118 1.385 . S
C3120 C3118 1.478 . S
C3120 C3122 1.381 . S
C3120 C3126 1.383 . S
C3121 C3117 1.495 . S
C3121 H3127 0.959 1_565 S
C3121 H3128 0.961 . S
C3121 H3129 0.960 1_565 S
C3122 C3120 1.381 . S
C3122 C3123 1.394 . S
C3122 H3130 0.930 . S
C3123 C3122 1.394 . S
C3123 C3124 1.383 . S
C3123 H3131 0.929 . S
C3124 C3123 1.383 . S
C3124 C3125 1.377 . S
C3125 H3109 0.930 . S
C3125 C3124 1.377 . S
C3125 C3126 1.379 . S
C3126 H3110 0.931 . S
C3126 C3120 1.383 . S
C3126 C3125 1.379 . S
H3127 C3121 0.959 1_545 S
H3128 C3121 0.961 . S
H3129 C3121 0.960 1_545 S
H3130 C3122 0.930 . S
H3131 C3123 0.929 . S
H3132 C3140 0.929 . S
H3133 C3142 0.930 . S
H3134 C3144 0.930 . S
H3135 C3147 0.929 . S
H3136 C3150 0.930 . S
H3137 C3152 0.960 . S
H3138 C3152 0.960 . S
H3139 C3152 0.960 . S
C3140 H3132 0.929 . S
C3140 C3141 1.377 . S
C3140 C3142 1.384 . S
C3141 C3140 1.377 . S
C3141 C3147 1.390 . S
C3142 H3133 0.930 . S
C3142 C3140 1.384 . S
C3142 C3143 1.353 1_655 S
C3143 C3142 1.353 1_455 S
C3143 C3144 1.397 . S
C3143 C3148 1.511 . S
C3144 H3134 0.930 . S
C3144 C3143 1.397 . S
C3144 C3147 1.386 1_455 S
H3145 C3161 0.930 . S
H3146 C3162 0.931 . S
C3147 H3135 0.929 . S
C3147 C3141 1.390 . S
C3147 C3144 1.386 1_655 S
C3148 C3143 1.511 . S
C3148 C3150 1.395 1_455 S
C3148 C3151 1.403 . S
H3149 C3155 0.930 . S
C3150 H3136 0.930 . S
C3150 C3148 1.395 1_655 S
C3150 C3153 1.403 1_655 S
C3151 C3148 1.403 . S
C3151 C3152 1.524 . S
C3151 C3155 1.400 . S
C3152 H3137 0.960 . S
C3152 H3138 0.960 . S
C3152 H3139 0.960 . S
C3152 C3151 1.524 . S
C3153 C3150 1.403 1_455 S
C3153 C3154 1.392 . S
C3153 C3157 1.495 1_455 S
C3154 C3153 1.392 . S
C3154 C3155 1.385 . S
C3154 C3156 1.478 . S
C3155 H3149 0.930 . S
C3155 C3151 1.400 . S
C3155 C3154 1.385 . S
C3156 C3154 1.478 . S
C3156 C3158 1.381 . S
C3156 C3162 1.383 . S
C3157 C3153 1.495 1_655 S
C3157 H3163 0.959 . S
C3157 H3164 0.961 . S
C3157 H3165 0.960 . S
C3158 C3156 1.381 . S
C3158 C3159 1.394 . S
C3158 H3166 0.930 . S
C3159 C3158 1.394 . S
C3159 C3160 1.383 . S
C3159 H3167 0.929 . S
C3160 C3159 1.383 . S
C3160 C3161 1.377 . S
C3161 H3145 0.930 . S
C3161 C3160 1.377 . S
C3161 C3162 1.379 . S
C3162 H3146 0.931 . S
C3162 C3156 1.383 . S
C3162 C3161 1.379 . S
H3163 C3157 0.959 . S
H3164 C3157 0.961 . S
H3165 C3157 0.960 . S
H3166 C3158 0.930 . S
H3167 C3159 0.929 . S
H3168 C3176 0.929 . S
H3169 C3178 0.930 . S
H3170 C3180 0.930 . S
H3171 C3183 0.929 . S
H3172 C3186 0.930 1_655 S
H3173 C3188 0.960 . S
H3174 C3188 0.960 . S
H3175 C3188 0.960 . S
C3176 H3168 0.929 . S
C3176 C3177 1.377 . S
C3176 C3178 1.384 . S
C3177 C3176 1.377 . S
C3177 C3183 1.390 . S
C3178 H3169 0.930 . S
C3178 C3176 1.384 . S
C3178 C3179 1.372 . S
C3179 C3178 1.372 . S
C3179 C3180 1.400 . S
C3179 C3184 1.490 . S
C3180 H3170 0.930 . S
C3180 C3179 1.400 . S
C3180 C3183 1.386 . S
H3181 C3197 0.930 . S
H3182 C3198 0.931 . S
C3183 H3171 0.929 . S
C3183 C3177 1.390 . S
C3183 C3180 1.386 . S
C3184 C3179 1.490 . S
C3184 C3186 1.395 1_655 S
C3184 C3187 1.397 1_655 S
H3185 C3191 0.930 . S
C3186 H3172 0.930 1_455 S
C3186 C3184 1.395 1_455 S
C3186 C3189 1.403 . S
C3187 C3184 1.397 1_455 S
C3187 C3188 1.504 1_455 S
C3187 C3191 1.428 . S
C3188 H3173 0.960 . S
C3188 H3174 0.960 . S
C3188 H3175 0.960 . S
C3188 C3187 1.504 1_655 S
C3189 C3186 1.403 . S
C3189 C3190 1.392 . S
C3189 C3193 1.495 . S
C3190 C3189 1.392 . S
C3190 C3191 1.385 . S
C3190 C3192 1.478 . S
C3191 H3185 0.930 . S
C3191 C3187 1.428 . S
C3191 C3190 1.385 . S
C3192 C3190 1.478 . S
C3192 C3194 1.381 . S
C3192 C3198 1.383 . S
C3193 C3189 1.495 . S
C3193 H3199 0.959 . S
C3193 H3200 0.961 . S
C3193 H3201 0.960 . S
C3194 C3192 1.381 . S
C3194 C3195 1.394 . S
C3194 H3202 0.930 . S
C3195 C3194 1.394 . S
C3195 C3196 1.383 . S
C3195 H3203 0.929 . S
C3196 C3195 1.383 . S
C3196 C3197 1.377 . S
C3197 H3181 0.930 . S
C3197 C3196 1.377 . S
C3197 C3198 1.379 . S
C3198 H3182 0.931 . S
C3198 C3192 1.383 . S
C3198 C3197 1.379 . S
H3199 C3193 0.959 . S
H3200 C3193 0.961 . S
H3201 C3193 0.960 . S
H3202 C3194 0.930 . S
H3203 C3195 0.929 . S
H3204 C3212 0.929 . S
H3205 C3214 0.930 . S
H3206 C3216 0.930 . S
H3207 C3219 0.929 . S
H3208 C3222 0.930 . S
H3209 C3224 0.960 . S
H3210 C3224 0.960 . S
H3211 C3224 0.960 . S
C3212 H3204 0.929 . S
C3212 C3213 1.377 . S
C3212 C3214 1.384 . S
C3213 C3212 1.377 . S
C3213 C3219 1.390 . S
C3214 H3205 0.930 . S
C3214 C3212 1.384 . S
C3214 C3215 1.372 . S
C3215 C3214 1.372 . S
C3215 C3216 1.400 . S
C3215 C3220 1.490 . S
C3216 H3206 0.930 . S
C3216 C3215 1.400 . S
C3216 C3219 1.386 . S
H3217 C3233 0.930 . S
H3218 C3234 0.931 . S
C3219 H3207 0.929 . S
C3219 C3213 1.390 . S
C3219 C3216 1.386 . S
C3220 C3215 1.490 . S
C3220 C3222 1.395 . S
C3220 C3223 1.403 . S
H3221 C3227 0.930 . S
C3222 H3208 0.930 . S
C3222 C3220 1.395 . S
C3222 C3225 1.403 . S
C3223 C3220 1.403 . S
C3223 C3224 1.524 . S
C3223 C3227 1.400 . S
C3224 H3209 0.960 . S
C3224 H3210 0.960 . S
C3224 H3211 0.960 . S
C3224 C3223 1.524 . S
C3225 C3222 1.403 . S
C3225 C3226 1.392 . S
C3225 C3229 1.495 . S
C3226 C3225 1.392 . S
C3226 C3227 1.385 . S
C3226 C3228 1.478 . S
C3227 H3221 0.930 . S
C3227 C3223 1.400 . S
C3227 C3226 1.385 . S
C3228 C3226 1.478 . S
C3228 C3230 1.381 . S
C3228 C3234 1.383 . S
C3229 C3225 1.495 . S
C3229 H3235 0.959 . S
C3229 H3236 0.961 . S
C3229 H3237 0.960 . S
C3230 C3228 1.381 . S
C3230 C3231 1.394 . S
C3230 H3238 0.930 . S
C3231 C3230 1.394 . S
C3231 C3232 1.383 . S
C3231 H3239 0.929 . S
C3232 C3231 1.383 . S
C3232 C3233 1.377 . S
C3233 H3217 0.930 . S
C3233 C3232 1.377 . S
C3233 C3234 1.379 . S
C3234 H3218 0.931 . S
C3234 C3228 1.383 . S
C3234 C3233 1.379 . S
H3235 C3229 0.959 . S
H3236 C3229 0.961 . S
H3237 C3229 0.960 . S
H3238 C3230 0.930 . S
H3239 C3231 0.929 . S
H3240 C3248 0.929 . S
H3241 C3250 0.930 . S
H3242 C3252 0.930 . S
H3243 C3255 0.929 . S
H3244 C3258 0.930 . S
H3245 C3260 0.960 . S
H3246 C3260 0.960 . S
H3247 C3260 0.960 . S
C3248 H3240 0.929 . S
C3248 C3249 1.377 . S
C3248 C3250 1.384 . S
C3249 C3248 1.377 . S
C3249 C3255 1.390 . S
C3250 H3241 0.930 . S
C3250 C3248 1.384 . S
C3250 C3251 1.372 . S
C3251 C3250 1.372 . S
C3251 C3252 1.400 . S
C3251 C3256 1.490 . S
C3252 H3242 0.930 . S
C3252 C3251 1.400 . S
C3252 C3255 1.386 . S
H3253 C3269 0.930 . S
H3254 C3270 0.931 . S
C3255 H3243 0.929 . S
C3255 C3249 1.390 . S
C3255 C3252 1.386 . S
C3256 C3251 1.490 . S
C3256 C3258 1.395 . S
C3256 C3259 1.403 . S
H3257 C3263 0.930 . S
C3258 H3244 0.930 . S
C3258 C3256 1.395 . S
C3258 C3261 1.403 . S
C3259 C3256 1.403 . S
C3259 C3260 1.524 . S
C3259 C3263 1.400 1_565 S
C3260 H3245 0.960 . S
C3260 H3246 0.960 . S
C3260 H3247 0.960 . S
C3260 C3259 1.524 . S
C3261 C3258 1.403 . S
C3261 C3262 1.392 1_565 S
C3261 C3265 1.495 1_565 S
C3262 C3261 1.392 1_545 S
C3262 C3263 1.385 . S
C3262 C3264 1.478 . S
C3263 H3257 0.930 . S
C3263 C3259 1.400 1_545 S
C3263 C3262 1.385 . S
C3264 C3262 1.478 . S
C3264 C3266 1.381 . S
C3264 C3270 1.383 . S
C3265 C3261 1.495 1_545 S
C3265 H3271 0.959 1_545 S
C3265 H3272 0.961 . S
C3265 H3273 0.960 . S
C3266 C3264 1.381 . S
C3266 C3267 1.394 . S
C3266 H3274 0.930 . S
C3267 C3266 1.394 . S
C3267 C3268 1.383 . S
C3267 H3275 0.929 . S
C3268 C3267 1.383 . S
C3268 C3269 1.377 . S
C3269 H3253 0.930 . S
C3269 C3268 1.377 . S
C3269 C3270 1.379 . S
C3270 H3254 0.931 . S
C3270 C3264 1.383 . S
C3270 C3269 1.379 . S
H3271 C3265 0.959 1_565 S
H3272 C3265 0.961 . S
H3273 C3265 0.960 . S
H3274 C3266 0.930 . S
H3275 C3267 0.929 . S
H3276 C3284 0.929 . S
H3277 C3286 0.930 . S
H3278 C3288 0.930 . S
H3279 C3291 0.929 . S
H3280 C3294 0.930 . S
H3281 C3296 0.960 . S
H3282 C3296 0.960 . S
H3283 C3296 0.960 . S
C3284 H3276 0.929 . S
C3284 C3285 1.377 . S
C3284 C3286 1.384 . S
C3285 C3284 1.377 . S
C3285 C3291 1.390 . S
C3286 H3277 0.930 . S
C3286 C3284 1.384 . S
C3286 C3287 1.372 . S
C3287 C3286 1.372 . S
C3287 C3288 1.400 . S
C3287 C3292 1.490 . S
C3288 H3278 0.930 . S
C3288 C3287 1.400 . S
C3288 C3291 1.386 . S
H3289 C3305 0.930 . S
H3290 C3306 0.931 . S
C3291 H3279 0.929 . S
C3291 C3285 1.390 . S
C3291 C3288 1.386 . S
C3292 C3287 1.490 . S
C3292 C3294 1.395 . S
C3292 C3295 1.403 . S
H3293 C3299 0.930 . S
C3294 H3280 0.930 . S
C3294 C3292 1.395 . S
C3294 C3297 1.403 . S
C3295 C3292 1.403 . S
C3295 C3296 1.524 . S
C3295 C3299 1.400 . S
C3296 H3281 0.960 . S
C3296 H3282 0.960 . S
C3296 H3283 0.960 . S
C3296 C3295 1.524 . S
C3297 C3294 1.403 . S
C3297 C3298 1.392 . S
C3297 C3301 1.495 1_455 S
C3298 C3297 1.392 . S
C3298 C3299 1.385 . S
C3298 C3300 1.478 . S
C3299 H3293 0.930 . S
C3299 C3295 1.400 . S
C3299 C3298 1.385 . S
C3300 C3298 1.478 . S
C3300 C3302 1.381 . S
C3300 C3306 1.383 1_455 S
C3301 C3297 1.495 1_655 S
C3301 H3307 0.959 . S
C3301 H3308 0.961 . S
C3301 H3309 0.960 . S
C3302 C3300 1.381 . S
C3302 C3303 1.394 1_455 S
C3302 H3310 0.930 . S
C3303 C3302 1.394 1_655 S
C3303 C3304 1.383 . S
C3303 H3311 0.929 . S
C3304 C3303 1.383 . S
C3304 C3305 1.377 . S
C3305 H3289 0.930 . S
C3305 C3304 1.377 . S
C3305 C3306 1.379 . S
C3306 H3290 0.931 . S
C3306 C3300 1.383 1_655 S
C3306 C3305 1.379 . S
H3307 C3301 0.959 . S
H3308 C3301 0.961 . S
H3309 C3301 0.960 . S
H3310 C3302 0.930 . S
H3311 C3303 0.929 . S
H3312 C3320 0.929 . S
H3313 C3322 0.930 . S
H3314 C3324 0.930 . S
H3315 C3327 0.929 . S
H3316 C3330 0.930 . S
H3317 C3332 0.960 . S
H3318 C3332 0.960 . S
H3319 C3332 0.960 . S
C3320 H3312 0.929 . S
C3320 C3321 1.377 . S
C3320 C3322 1.384 . S
C3321 C3320 1.377 . S
C3321 C3327 1.390 . S
C3322 H3313 0.930 . S
C3322 C3320 1.384 . S
C3322 C3323 1.372 . S
C3323 C3322 1.372 . S
C3323 C3324 1.400 . S
C3323 C3328 1.490 . S
C3324 H3314 0.930 . S
C3324 C3323 1.400 . S
C3324 C3327 1.386 . S
H3325 C3341 0.930 . S
H3326 C3342 0.931 . S
C3327 H3315 0.929 . S
C3327 C3321 1.390 . S
C3327 C3324 1.386 . S
C3328 C3323 1.490 . S
C3328 C3330 1.395 . S
C3328 C3331 1.403 . S
H3329 C3335 0.930 . S
C3330 H3316 0.930 . S
C3330 C3328 1.395 . S
C3330 C3333 1.403 . S
C3331 C3328 1.403 . S
C3331 C3332 1.524 . S
C3331 C3335 1.400 . S
C3332 H3317 0.960 . S
C3332 H3318 0.960 . S
C3332 H3319 0.960 . S
C3332 C3331 1.524 . S
C3333 C3330 1.403 . S
C3333 C3334 1.392 . S
C3333 C3337 1.495 . S
C3334 C3333 1.392 . S
C3334 C3335 1.385 . S
C3334 C3336 1.478 . S
C3335 H3329 0.930 . S
C3335 C3331 1.400 . S
C3335 C3334 1.385 . S
C3336 C3334 1.478 . S
C3336 C3338 1.381 . S
C3336 C3342 1.383 . S
C3337 C3333 1.495 . S
C3337 H3343 0.959 . S
C3337 H3344 0.961 . S
C3337 H3345 0.960 . S
C3338 C3336 1.381 . S
C3338 C3339 1.394 . S
C3338 H3346 0.930 . S
C3339 C3338 1.394 . S
C3339 C3340 1.383 . S
C3339 H3347 0.929 . S
C3340 C3339 1.383 . S
C3340 C3341 1.377 . S
C3341 H3325 0.930 . S
C3341 C3340 1.377 . S
C3341 C3342 1.379 . S
C3342 H3326 0.931 . S
C3342 C3336 1.383 . S
C3342 C3341 1.379 . S
H3343 C3337 0.959 . S
H3344 C3337 0.961 . S
H3345 C3337 0.960 . S
H3346 C3338 0.930 . S
H3347 C3339 0.929 . S
H3348 C3356 0.929 . S
H3349 C3358 0.930 . S
H3350 C3360 0.930 . S
H3351 C3363 0.929 . S
H3352 C3366 0.930 . S
H3353 C3368 0.960 . S
H3354 C3368 0.960 . S
H3355 C3368 0.960 . S
C3356 H3348 0.929 . S
C3356 C3357 1.377 . S
C3356 C3358 1.384 . S
C3357 C3356 1.377 . S
C3357 C3363 1.390 . S
C3358 H3349 0.930 . S
C3358 C3356 1.384 . S
C3358 C3359 1.372 . S
C3359 C3358 1.372 . S
C3359 C3360 1.400 . S
C3359 C3364 1.490 . S
C3360 H3350 0.930 . S
C3360 C3359 1.400 . S
C3360 C3363 1.386 . S
H3361 C3377 0.930 . S
H3362 C3378 0.931 . S
C3363 H3351 0.929 . S
C3363 C3357 1.390 . S
C3363 C3360 1.386 . S
C3364 C3359 1.490 . S
C3364 C3366 1.395 . S
C3364 C3367 1.403 . S
H3365 C3371 0.930 . S
C3366 H3352 0.930 . S
C3366 C3364 1.395 . S
C3366 C3369 1.403 . S
C3367 C3364 1.403 . S
C3367 C3368 1.524 . S
C3367 C3371 1.400 . S
C3368 H3353 0.960 . S
C3368 H3354 0.960 . S
C3368 H3355 0.960 . S
C3368 C3367 1.524 . S
C3369 C3366 1.403 . S
C3369 C3370 1.392 . S
C3369 C3373 1.495 . S
C3370 C3369 1.392 . S
C3370 C3371 1.385 . S
C3370 C3372 1.478 . S
C3371 H3365 0.930 . S
C3371 C3367 1.400 . S
C3371 C3370 1.385 . S
C3372 C3370 1.478 . S
C3372 C3374 1.381 . S
C3372 C3378 1.383 1_565 S
C3373 C3369 1.495 . S
C3373 H3379 0.959 . S
C3373 H3380 0.961 . S
C3373 H3381 0.960 . S
C3374 C3372 1.381 . S
C3374 C3375 1.394 . S
C3374 H3382 0.930 . S
C3375 C3374 1.394 . S
C3375 C3376 1.383 1_565 S
C3375 H3383 0.929 . S
C3376 C3375 1.383 1_545 S
C3376 C3377 1.377 . S
C3377 H3361 0.930 . S
C3377 C3376 1.377 . S
C3377 C3378 1.379 . S
C3378 H3362 0.931 . S
C3378 C3372 1.383 1_545 S
C3378 C3377 1.379 . S
H3379 C3373 0.959 . S
H3380 C3373 0.961 . S
H3381 C3373 0.960 . S
H3382 C3374 0.930 . S
H3383 C3375 0.929 . S
H3384 C3392 0.929 . S
H3385 C3394 0.930 . S
H3386 C3396 0.930 . S
H3387 C3399 0.929 . S
H3388 C3402 0.930 . S
H3389 C3404 0.960 1_545 S
H3390 C3404 0.960 . S
H3391 C3404 0.960 . S
C3392 H3384 0.929 . S
C3392 C3393 1.377 . S
C3392 C3394 1.384 . S
C3393 C3392 1.377 . S
C3393 C3399 1.390 . S
C3394 H3385 0.930 . S
C3394 C3392 1.384 . S
C3394 C3395 1.372 . S
C3395 C3394 1.372 . S
C3395 C3396 1.400 . S
C3395 C3400 1.490 . S
C3396 H3386 0.930 . S
C3396 C3395 1.400 . S
C3396 C3399 1.386 . S
H3397 C3413 0.930 . S
H3398 C3414 0.931 . S
C3399 H3387 0.929 . S
C3399 C3393 1.390 . S
C3399 C3396 1.386 . S
C3400 C3395 1.490 . S
C3400 C3402 1.395 . S
C3400 C3403 1.403 . S
H3401 C3407 0.930 1_545 S
C3402 H3388 0.930 . S
C3402 C3400 1.395 . S
C3402 C3405 1.403 . S
C3403 C3400 1.403 . S
C3403 C3404 1.524 . S
C3403 C3407 1.400 . S
C3404 H3389 0.960 1_565 S
C3404 H3390 0.960 . S
C3404 H3391 0.960 . S
C3404 C3403 1.524 . S
C3405 C3402 1.403 . S
C3405 C3406 1.392 . S
C3405 C3409 1.495 . S
C3406 C3405 1.392 . S
C3406 C3407 1.385 . S
C3406 C3408 1.478 . S
C3407 H3401 0.930 1_565 S
C3407 C3403 1.400 . S
C3407 C3406 1.385 . S
C3408 C3406 1.478 . S
C3408 C3410 1.381 . S
C3408 C3414 1.383 . S
C3409 C3405 1.495 . S
C3409 H3415 0.959 . S
C3409 H3416 0.961 . S
C3409 H3417 0.960 . S
C3410 C3408 1.381 . S
C3410 C3411 1.394 1_565 S
C3410 H3418 0.930 . S
C3411 C3410 1.394 1_545 S
C3411 C3412 1.383 . S
C3411 H3419 0.929 . S
C3412 C3411 1.383 . S
C3412 C3413 1.377 . S
C3413 H3397 0.930 . S
C3413 C3412 1.377 . S
C3413 C3414 1.379 1_545 S
C3414 H3398 0.931 . S
C3414 C3408 1.383 . S
C3414 C3413 1.379 1_565 S
H3415 C3409 0.959 . S
H3416 C3409 0.961 . S
H3417 C3409 0.960 . S
H3418 C3410 0.930 . S
H3419 C3411 0.929 . S
H3420 C3428 0.929 . S
H3421 C3430 0.930 . S
H3422 C3432 0.930 . S
H3423 C3435 0.929 . S
H3424 C3438 0.930 . S
H3425 C3440 0.960 . S
H3426 C3440 0.960 . S
H3427 C3440 0.960 . S
C3428 H3420 0.929 . S
C3428 C3429 1.377 1_455 S
C3428 C3430 1.384 . S
C3429 C3428 1.377 1_655 S
C3429 C3435 1.390 . S
C3430 H3421 0.930 . S
C3430 C3428 1.384 . S
C3430 C3431 1.372 . S
C3431 C3430 1.372 . S
C3431 C3432 1.400 1_455 S
C3431 C3436 1.490 . S
C3432 H3422 0.930 . S
C3432 C3431 1.400 1_655 S
C3432 C3435 1.386 . S
H3433 C3449 0.930 . S
H3434 C3450 0.931 . S
C3435 H3423 0.929 . S
C3435 C3429 1.390 . S
C3435 C3432 1.386 . S
C3436 C3431 1.490 . S
C3436 C3438 1.395 . S
C3436 C3439 1.403 . S
H3437 C3443 0.930 . S
C3438 H3424 0.930 . S
C3438 C3436 1.395 . S
C3438 C3441 1.403 . S
C3439 C3436 1.403 . S
C3439 C3440 1.524 . S
C3439 C3443 1.400 . S
C3440 H3425 0.960 . S
C3440 H3426 0.960 . S
C3440 H3427 0.960 . S
C3440 C3439 1.524 . S
C3441 C3438 1.403 . S
C3441 C3442 1.392 . S
C3441 C3445 1.495 . S
C3442 C3441 1.392 . S
C3442 C3443 1.385 . S
C3442 C3444 1.478 . S
C3443 H3437 0.930 . S
C3443 C3439 1.400 . S
C3443 C3442 1.385 . S
C3444 C3442 1.478 . S
C3444 C3446 1.381 . S
C3444 C3450 1.383 . S
C3445 C3441 1.495 . S
C3445 H3451 0.959 . S
C3445 H3452 0.961 . S
C3445 H3453 0.960 . S
C3446 C3444 1.381 . S
C3446 C3447 1.394 . S
C3446 H3454 0.930 . S
C3447 C3446 1.394 . S
C3447 C3448 1.383 . S
C3447 H3455 0.929 . S
C3448 C3447 1.383 . S
C3448 C3449 1.377 . S
C3449 H3433 0.930 . S
C3449 C3448 1.377 . S
C3449 C3450 1.379 . S
C3450 H3434 0.931 . S
C3450 C3444 1.383 . S
C3450 C3449 1.379 . S
H3451 C3445 0.959 . S
H3452 C3445 0.961 . S
H3453 C3445 0.960 . S
H3454 C3446 0.930 . S
H3455 C3447 0.929 . S
H3456 C3464 0.929 . S
H3457 C3466 0.930 . S
H3458 C3468 0.930 . S
H3459 C3471 0.929 . S
H3460 C3474 0.930 . S
H3461 C3476 0.960 . S
H3462 C3476 0.960 . S
H3463 C3476 0.960 . S
C3464 H3456 0.929 . S
C3464 C3465 1.377 . S
C3464 C3466 1.384 . S
C3465 C3464 1.377 . S
C3465 C3471 1.390 . S
C3466 H3457 0.930 . S
C3466 C3464 1.384 . S
C3466 C3467 1.372 . S
C3467 C3466 1.372 . S
C3467 C3468 1.400 . S
C3467 C3472 1.490 . S
C3468 H3458 0.930 . S
C3468 C3467 1.400 . S
C3468 C3471 1.386 . S
H3469 C3485 0.930 . S
H3470 C3486 0.931 . S
C3471 H3459 0.929 . S
C3471 C3465 1.390 . S
C3471 C3468 1.386 . S
C3472 C3467 1.490 . S
C3472 C3474 1.395 . S
C3472 C3475 1.403 . S
H3473 C3479 0.930 . S
C3474 H3460 0.930 . S
C3474 C3472 1.395 . S
C3474 C3477 1.403 . S
C3475 C3472 1.403 . S
C3475 C3476 1.524 . S
C3475 C3479 1.400 . S
C3476 H3461 0.960 . S
C3476 H3462 0.960 . S
C3476 H3463 0.960 . S
C3476 C3475 1.524 . S
C3477 C3474 1.403 . S
C3477 C3478 1.392 . S
C3477 C3481 1.495 . S
C3478 C3477 1.392 . S
C3478 C3479 1.385 . S
C3478 C3480 1.478 . S
C3479 H3473 0.930 . S
C3479 C3475 1.400 . S
C3479 C3478 1.385 . S
C3480 C3478 1.478 . S
C3480 C3482 1.381 . S
C3480 C3486 1.383 . S
C3481 C3477 1.495 . S
C3481 H3487 0.959 . S
C3481 H3488 0.961 . S
C3481 H3489 0.960 . S
C3482 C3480 1.381 . S
C3482 C3483 1.394 . S
C3482 H3490 0.930 . S
C3483 C3482 1.394 . S
C3483 C3484 1.383 . S
C3483 H3491 0.929 . S
C3484 C3483 1.383 . S
C3484 C3485 1.377 . S
C3485 H3469 0.930 . S
C3485 C3484 1.377 . S
C3485 C3486 1.379 . S
C3486 H3470 0.931 . S
C3486 C3480 1.383 . S
C3486 C3485 1.379 . S
H3487 C3481 0.959 . S
H3488 C3481 0.961 . S
H3489 C3481 0.960 . S
H3490 C3482 0.930 . S
H3491 C3483 0.929 . S
H3492 C3500 0.929 . S
H3493 C3502 0.930 . S
H3494 C3504 0.930 . S
H3495 C3507 0.929 . S
H3496 C3510 0.930 . S
H3497 C3512 0.960 . S
H3498 C3512 0.960 . S
H3499 C3512 0.960 . S
C3500 H3492 0.929 . S
C3500 C3501 1.360 1_556 S
C3500 C3502 1.384 . S
C3501 C3500 1.360 1_554 S
C3501 C3507 1.406 . S
C3502 H3493 0.930 . S
C3502 C3500 1.384 . S
C3502 C3503 1.492 . S
C3503 C3502 1.492 . S
C3503 C3504 1.273 1_556 S
C3503 C3508 1.506 . S
C3504 H3494 0.930 . S
C3504 C3503 1.273 1_554 S
C3504 C3507 1.386 . S
H3505 C3521 0.930 . S
H3506 C3522 0.931 . S
C3507 H3495 0.929 . S
C3507 C3501 1.406 . S
C3507 C3504 1.386 . S
C3508 C3503 1.506 . S
C3508 C3510 1.395 . S
C3508 C3511 1.403 1_556 S
H3509 C3515 0.996 . S
C3510 H3496 0.930 . S
C3510 C3508 1.395 . S
C3510 C3513 1.403 1_565 S
C3511 C3508 1.403 1_554 S
C3511 C3512 1.524 . S
C3511 C3515 1.419 1_565 S
C3512 H3497 0.960 . S
C3512 H3498 0.960 . S
C3512 H3499 0.960 . S
C3512 C3511 1.524 . S
C3513 C3510 1.403 1_545 S
C3513 C3514 1.392 . S
C3513 C3517 1.495 . S
C3514 C3513 1.392 . S
C3514 C3515 1.325 1_556 S
C3514 C3516 1.478 . S
C3515 H3509 0.996 . S
C3515 C3511 1.419 1_545 S
C3515 C3514 1.325 1_554 S
C3516 C3514 1.478 . S
C3516 C3518 1.381 . S
C3516 C3522 1.383 1_556 S
C3517 C3513 1.495 . S
C3517 H3523 0.960 . S
C3517 H3524 0.961 . S
C3517 H3525 0.960 . S
C3518 C3516 1.381 . S
C3518 C3519 1.394 . S
C3518 H3526 0.930 . S
C3519 C3518 1.394 . S
C3519 C3520 1.383 . S
C3519 H3527 0.929 . S
C3520 C3519 1.383 . S
C3520 C3521 1.377 1_556 S
C3521 H3505 0.930 . S
C3521 C3520 1.377 1_554 S
C3521 C3522 1.379 . S
C3522 H3506 0.931 . S
C3522 C3516 1.383 1_554 S
C3522 C3521 1.379 . S
H3523 C3517 0.960 . S
H3524 C3517 0.961 . S
H3525 C3517 0.960 . S
H3526 C3518 0.930 . S
H3527 C3519 0.929 . S
H3528 C3536 0.929 . S
H3529 C3538 0.930 . S
H3530 C3540 0.930 . S
H3531 C3543 0.929 . S
H3532 C3546 0.930 . S
H3533 C3548 0.960 . S
H3534 C3548 0.960 . S
H3535 C3548 0.960 . S
C3536 H3528 0.929 . S
C3536 C3537 1.372 1_556 S
C3536 C3538 1.384 . S
C3537 C3536 1.372 1_554 S
C3537 C3543 1.394 . S
C3538 H3529 0.930 . S
C3538 C3536 1.384 . S
C3538 C3539 1.422 . S
C3539 C3538 1.422 . S
C3539 C3540 1.352 1_556 S
C3539 C3544 1.498 . S
C3540 H3530 0.930 . S
C3540 C3539 1.352 1_554 S
C3540 C3543 1.386 . S
H3541 C3557 0.930 . S
H3542 C3558 0.931 . S
C3543 H3531 0.929 . S
C3543 C3537 1.394 . S
C3543 C3540 1.386 . S
C3544 C3539 1.498 . S
C3544 C3546 1.395 1_556 S
C3544 C3547 1.403 . S
H3545 C3551 0.930 . S
C3546 H3532 0.930 . S
C3546 C3544 1.395 1_554 S
C3546 C3549 1.403 1_455 S
C3547 C3544 1.403 . S
C3547 C3548 1.524 . S
C3547 C3551 1.400 1_455 S
C3548 H3533 0.960 . S
C3548 H3534 0.960 . S
C3548 H3535 0.960 . S
C3548 C3547 1.524 . S
C3549 C3546 1.403 1_655 S
C3549 C3550 1.392 1_554 S
C3549 C3553 1.495 . S
C3550 C3549 1.392 1_556 S
C3550 C3551 1.385 . S
C3550 C3552 1.478 . S
C3551 H3545 0.930 . S
C3551 C3547 1.400 1_655 S
C3551 C3550 1.385 . S
C3552 C3550 1.478 . S
C3552 C3554 1.381 . S
C3552 C3558 1.383 1_556 S
C3553 C3549 1.495 . S
C3553 H3559 0.959 . S
C3553 H3560 0.961 . S
C3553 H3561 0.960 . S
C3554 C3552 1.381 . S
C3554 C3555 1.394 . S
C3554 H3562 0.930 . S
C3555 C3554 1.394 . S
C3555 C3556 1.383 . S
C3555 H3563 0.929 . S
C3556 C3555 1.383 . S
C3556 C3557 1.377 1_556 S
C3557 H3541 0.930 . S
C3557 C3556 1.377 1_554 S
C3557 C3558 1.379 . S
C3558 H3542 0.931 . S
C3558 C3552 1.383 1_554 S
C3558 C3557 1.379 . S
H3559 C3553 0.959 . S
H3560 C3553 0.961 . S
H3561 C3553 0.960 . S
H3562 C3554 0.930 . S
H3563 C3555 0.929 . S
H3564 C3572 0.929 . S
H3565 C3574 0.930 . S
H3566 C3576 0.930 . S
H3567 C3579 0.929 . S
H3568 C3582 0.930 . S
H3569 C3584 0.960 . S
H3570 C3584 0.960 . S
H3571 C3584 0.960 . S
C3572 H3564 0.929 . S
C3572 C3573 1.377 1_554 S
C3572 C3574 1.384 . S
C3573 C3572 1.377 1_556 S
C3573 C3579 1.390 . S
C3574 H3565 0.930 . S
C3574 C3572 1.384 . S
C3574 C3575 1.372 1_554 S
C3575 C3574 1.372 1_556 S
C3575 C3576 1.400 . S
C3575 C3580 1.490 . S
C3576 H3566 0.930 . S
C3576 C3575 1.400 . S
C3576 C3579 1.386 . S
H3577 C3593 0.930 . S
H3578 C3594 0.931 . S
C3579 H3567 0.929 . S
C3579 C3573 1.390 . S
C3579 C3576 1.386 . S
C3580 C3575 1.490 . S
C3580 C3582 1.395 1_556 S
C3580 C3583 1.403 . S
H3581 C3587 0.930 . S
C3582 H3568 0.930 . S
C3582 C3580 1.395 1_554 S
C3582 C3585 1.403 . S
C3583 C3580 1.403 . S
C3583 C3584 1.524 . S
C3583 C3587 1.400 . S
C3584 H3569 0.960 . S
C3584 H3570 0.960 . S
C3584 H3571 0.960 . S
C3584 C3583 1.524 . S
C3585 C3582 1.403 . S
C3585 C3586 1.391 1_554 S
C3585 C3589 1.495 . S
C3586 C3585 1.391 1_556 S
C3586 C3587 1.387 . S
C3586 C3588 1.477 1_556 S
C3587 H3581 0.930 . S
C3587 C3583 1.400 . S
C3587 C3586 1.387 . S
C3588 C3586 1.477 1_554 S
C3588 C3590 1.386 . S
C3588 C3594 1.378 1_554 S
C3589 C3585 1.495 . S
C3589 H3595 0.959 . S
C3589 H3596 0.961 . S
C3589 H3597 0.960 . S
C3590 C3588 1.386 . S
C3590 C3591 1.394 . S
C3590 H3598 0.930 . S
C3591 C3590 1.394 . S
C3591 C3592 1.418 . S
C3591 H3599 0.929 . S
C3592 C3591 1.418 . S
C3592 C3593 1.342 1_554 S
C3593 H3577 0.930 . S
C3593 C3592 1.342 1_556 S
C3593 C3594 1.379 . S
C3594 H3578 0.931 . S
C3594 C3588 1.378 1_556 S
C3594 C3593 1.379 . S
H3595 C3589 0.959 . S
H3596 C3589 0.961 . S
H3597 C3589 0.960 . S
H3598 C3590 0.930 . S
H3599 C3591 0.929 . S
H3600 C3608 0.929 . S
H3601 C3610 0.930 . S
H3602 C3612 0.930 . S
H3603 C3615 0.929 . S
H3604 C3618 0.930 . S
H3605 C3620 0.960 . S
H3606 C3620 0.960 . S
H3607 C3620 0.960 . S
C3608 H3600 0.929 . S
C3608 C3609 1.377 . S
C3608 C3610 1.384 . S
C3609 C3608 1.377 . S
C3609 C3615 1.390 . S
C3610 H3601 0.930 . S
C3610 C3608 1.384 . S
C3610 C3611 1.372 . S
C3611 C3610 1.372 . S
C3611 C3612 1.400 . S
C3611 C3616 1.490 . S
C3612 H3602 0.930 . S
C3612 C3611 1.400 . S
C3612 C3615 1.386 . S
H3613 C3629 0.930 . S
H3614 C3630 0.931 . S
C3615 H3603 0.929 . S
C3615 C3609 1.390 . S
C3615 C3612 1.386 . S
C3616 C3611 1.490 . S
C3616 C3618 1.395 . S
C3616 C3619 1.403 . S
H3617 C3623 0.930 . S
C3618 H3604 0.930 . S
C3618 C3616 1.395 . S
C3618 C3621 1.403 . S
C3619 C3616 1.403 . S
C3619 C3620 1.524 . S
C3619 C3623 1.400 . S
C3620 H3605 0.960 . S
C3620 H3606 0.960 . S
C3620 H3607 0.960 . S
C3620 C3619 1.524 . S
C3621 C3618 1.403 . S
C3621 C3622 1.392 . S
C3621 C3625 1.495 . S
C3622 C3621 1.392 . S
C3622 C3623 1.385 . S
C3622 C3624 1.478 . S
C3623 H3617 0.930 . S
C3623 C3619 1.400 . S
C3623 C3622 1.385 . S
C3624 C3622 1.478 . S
C3624 C3626 1.381 1_545 S
C3624 C3630 1.383 . S
C3625 C3621 1.495 . S
C3625 H3631 0.959 . S
C3625 H3632 0.961 . S
C3625 H3633 0.960 . S
C3626 C3624 1.381 1_565 S
C3626 C3627 1.394 . S
C3626 H3634 0.930 . S
C3627 C3626 1.394 . S
C3627 C3628 1.383 . S
C3627 H3635 0.929 . S
C3628 C3627 1.383 . S
C3628 C3629 1.377 1_565 S
C3629 H3613 0.930 . S
C3629 C3628 1.377 1_545 S
C3629 C3630 1.379 . S
C3630 H3614 0.931 . S
C3630 C3624 1.383 . S
C3630 C3629 1.379 . S
H3631 C3625 0.959 . S
H3632 C3625 0.961 . S
H3633 C3625 0.960 . S
H3634 C3626 0.930 . S
H3635 C3627 0.929 . S
H3636 C3644 0.929 . S
H3637 C3646 0.930 . S
H3638 C3648 0.930 . S
H3639 C3651 0.929 . S
H3640 C3654 0.930 . S
H3641 C3656 0.960 . S
H3642 C3656 0.960 . S
H3643 C3656 0.960 . S
C3644 H3636 0.929 . S
C3644 C3645 1.377 . S
C3644 C3646 1.384 . S
C3645 C3644 1.377 . S
C3645 C3651 1.390 . S
C3646 H3637 0.930 . S
C3646 C3644 1.384 . S
C3646 C3647 1.372 . S
C3647 C3646 1.372 . S
C3647 C3648 1.400 . S
C3647 C3652 1.490 . S
C3648 H3638 0.930 . S
C3648 C3647 1.400 . S
C3648 C3651 1.386 . S
H3649 C3665 0.930 . S
H3650 C3666 0.931 . S
C3651 H3639 0.929 . S
C3651 C3645 1.390 . S
C3651 C3648 1.386 . S
C3652 C3647 1.490 . S
C3652 C3654 1.395 . S
C3652 C3655 1.403 . S
H3653 C3659 0.930 . S
C3654 H3640 0.930 . S
C3654 C3652 1.395 . S
C3654 C3657 1.403 . S
C3655 C3652 1.403 . S
C3655 C3656 1.524 . S
C3655 C3659 1.400 . S
C3656 H3641 0.960 . S
C3656 H3642 0.960 . S
C3656 H3643 0.960 . S
C3656 C3655 1.524 . S
C3657 C3654 1.403 . S
C3657 C3658 1.392 . S
C3657 C3661 1.495 1_655 S
C3658 C3657 1.392 . S
C3658 C3659 1.385 . S
C3658 C3660 1.478 . S
C3659 H3653 0.930 . S
C3659 C3655 1.400 . S
C3659 C3658 1.385 . S
C3660 C3658 1.478 . S
C3660 C3662 1.381 . S
C3660 C3666 1.383 1_655 S
C3661 C3657 1.495 1_455 S
C3661 H3667 0.959 . S
C3661 H3668 0.961 . S
C3661 H3669 0.960 . S
C3662 C3660 1.381 . S
C3662 C3663 1.394 1_655 S
C3662 H3670 0.930 . S
C3663 C3662 1.394 1_455 S
C3663 C3664 1.383 . S
C3663 H3671 0.929 . S
C3664 C3663 1.383 . S
C3664 C3665 1.377 . S
C3665 H3649 0.930 . S
C3665 C3664 1.377 . S
C3665 C3666 1.379 . S
C3666 H3650 0.931 . S
C3666 C3660 1.383 1_455 S
C3666 C3665 1.379 . S
H3667 C3661 0.959 . S
H3668 C3661 0.961 . S
H3669 C3661 0.960 . S
H3670 C3662 0.930 . S
H3671 C3663 0.929 . S
H3672 C3680 0.929 . S
H3673 C3682 0.930 . S
H3674 C3684 0.930 . S
H3675 C3687 0.929 . S
H3676 C3690 0.930 . S
H3677 C3692 0.960 . S
H3678 C3692 0.960 . S
H3679 C3692 0.960 . S
C3680 H3672 0.929 . S
C3680 C3681 1.377 . S
C3680 C3682 1.384 . S
C3681 C3680 1.377 . S
C3681 C3687 1.390 . S
C3682 H3673 0.930 . S
C3682 C3680 1.384 . S
C3682 C3683 1.372 . S
C3683 C3682 1.372 . S
C3683 C3684 1.400 . S
C3683 C3688 1.490 . S
C3684 H3674 0.930 . S
C3684 C3683 1.400 . S
C3684 C3687 1.386 . S
H3685 C3701 0.930 . S
H3686 C3702 0.931 . S
C3687 H3675 0.929 . S
C3687 C3681 1.390 . S
C3687 C3684 1.386 . S
C3688 C3683 1.490 . S
C3688 C3690 1.395 . S
C3688 C3691 1.403 . S
H3689 C3695 0.930 . S
C3690 H3676 0.930 . S
C3690 C3688 1.395 . S
C3690 C3693 1.403 . S
C3691 C3688 1.403 . S
C3691 C3692 1.524 . S
C3691 C3695 1.400 . S
C3692 H3677 0.960 . S
C3692 H3678 0.960 . S
C3692 H3679 0.960 . S
C3692 C3691 1.524 . S
C3693 C3690 1.403 . S
C3693 C3694 1.392 . S
C3693 C3697 1.495 . S
C3694 C3693 1.392 . S
C3694 C3695 1.385 . S
C3694 C3696 1.478 . S
C3695 H3689 0.930 . S
C3695 C3691 1.400 . S
C3695 C3694 1.385 . S
C3696 C3694 1.478 . S
C3696 C3698 1.381 . S
C3696 C3702 1.383 . S
C3697 C3693 1.495 . S
C3697 H3703 0.959 . S
C3697 H3704 0.961 . S
C3697 H3705 0.960 . S
C3698 C3696 1.381 . S
C3698 C3699 1.394 . S
C3698 H3706 0.930 . S
C3699 C3698 1.394 . S
C3699 C3700 1.383 . S
C3699 H3707 0.929 . S
C3700 C3699 1.383 . S
C3700 C3701 1.377 . S
C3701 H3685 0.930 . S
C3701 C3700 1.377 . S
C3701 C3702 1.379 . S
C3702 H3686 0.931 . S
C3702 C3696 1.383 . S
C3702 C3701 1.379 . S
H3703 C3697 0.959 . S
H3704 C3697 0.961 . S
H3705 C3697 0.960 . S
H3706 C3698 0.930 . S
H3707 C3699 0.929 . S
H3708 C3716 0.929 . S
H3709 C3718 0.930 . S
H3710 C3720 0.930 . S
H3711 C3723 0.929 . S
H3712 C3726 0.930 . S
H3713 C3728 0.960 1_545 S
H3714 C3728 0.960 . S
H3715 C3728 0.960 . S
C3716 H3708 0.929 . S
C3716 C3717 1.377 . S
C3716 C3718 1.384 . S
C3717 C3716 1.377 . S
C3717 C3723 1.390 1_554 S
C3718 H3709 0.930 . S
C3718 C3716 1.384 . S
C3718 C3719 1.372 . S
C3719 C3718 1.372 . S
C3719 C3720 1.400 1_554 S
C3719 C3724 1.490 . S
C3720 H3710 0.930 . S
C3720 C3719 1.400 1_556 S
C3720 C3723 1.386 . S
H3721 C3737 0.930 . S
H3722 C3738 0.931 . S
C3723 H3711 0.929 . S
C3723 C3717 1.390 1_556 S
C3723 C3720 1.386 . S
C3724 C3719 1.490 . S
C3724 C3726 1.395 . S
C3724 C3727 1.405 1_564 S
H3725 C3731 0.930 . S
C3726 H3712 0.930 . S
C3726 C3724 1.395 . S
C3726 C3729 1.403 1_565 S
C3727 C3724 1.405 1_546 S
C3727 C3728 1.524 1_545 S
C3727 C3731 1.398 . S
C3728 H3713 0.960 1_565 S
C3728 H3714 0.960 . S
C3728 H3715 0.960 . S
C3728 C3727 1.524 1_565 S
C3729 C3726 1.403 1_545 S
C3729 C3730 1.392 . S
C3729 C3733 1.495 . S
C3730 C3729 1.392 . S
C3730 C3731 1.385 1_554 S
C3730 C3732 1.478 . S
C3731 H3725 0.930 . S
C3731 C3727 1.398 . S
C3731 C3730 1.385 1_556 S
C3732 C3730 1.478 . S
C3732 C3734 1.381 . S
C3732 C3738 1.383 1_554 S
C3733 C3729 1.495 . S
C3733 H3739 0.959 . S
C3733 H3740 0.961 . S
C3733 H3741 0.960 . S
C3734 C3732 1.381 . S
C3734 C3735 1.394 . S
C3734 H3742 0.930 . S
C3735 C3734 1.394 . S
C3735 C3736 1.405 . S
C3735 H3743 0.929 . S
C3736 C3735 1.405 . S
C3736 C3737 1.358 1_554 S
C3737 H3721 0.930 . S
C3737 C3736 1.358 1_556 S
C3737 C3738 1.379 . S
C3738 H3722 0.931 . S
C3738 C3732 1.383 1_556 S
C3738 C3737 1.379 . S
H3739 C3733 0.959 . S
H3740 C3733 0.961 . S
H3741 C3733 0.960 . S
H3742 C3734 0.930 . S
H3743 C3735 0.929 . S
H3744 C3752 0.929 . S
H3745 C3754 0.930 . S
H3746 C3756 0.930 . S
H3747 C3759 0.929 . S
H3748 C3762 0.930 . S
H3749 C3764 0.960 . S
H3750 C3764 0.960 . S
H3751 C3764 0.960 1_554 S
C3752 H3744 0.929 . S
C3752 C3753 1.411 . S
C3752 C3754 1.384 . S
C3753 C3752 1.411 . S
C3753 C3759 1.355 1_556 S
C3754 H3745 0.930 . S
C3754 C3752 1.384 . S
C3754 C3755 1.368 1_556 S
C3755 C3754 1.368 1_554 S
C3755 C3756 1.403 . S
C3755 C3760 1.488 . S
C3756 H3746 0.930 . S
C3756 C3755 1.403 . S
C3756 C3759 1.386 . S
H3757 C3773 0.930 . S
H3758 C3774 0.931 . S
C3759 H3747 0.929 . S
C3759 C3753 1.355 1_554 S
C3759 C3756 1.386 . S
C3760 C3755 1.488 . S
C3760 C3762 1.415 . S
C3760 C3763 1.388 1_554 S
H3761 C3767 0.924 1_556 S
C3762 H3748 0.930 . S
C3762 C3760 1.415 . S
C3762 C3765 1.403 1_655 S
C3763 C3760 1.388 1_556 S
C3763 C3764 1.546 . S
C3763 C3767 1.395 1_656 S
C3764 H3749 0.960 . S
C3764 H3750 0.960 . S
C3764 H3751 0.960 1_556 S
C3764 C3763 1.546 . S
C3765 C3762 1.403 1_455 S
C3765 C3766 1.392 . S
C3765 C3769 1.495 . S
C3766 C3765 1.392 . S
C3766 C3767 1.387 . S
C3766 C3768 1.478 . S
C3767 H3761 0.924 1_554 S
C3767 C3763 1.395 1_454 S
C3767 C3766 1.387 . S
C3768 C3766 1.478 . S
C3768 C3770 1.381 1_554 S
C3768 C3774 1.383 . S
C3769 C3765 1.495 . S
C3769 H3775 0.959 . S
C3769 H3776 0.961 . S
C3769 H3777 1.043 . S
C3770 C3768 1.381 1_556 S
C3770 C3771 1.394 . S
C3770 H3778 0.930 . S
C3771 C3770 1.394 . S
C3771 C3772 1.383 1_556 S
C3771 H3779 0.929 . S
C3772 C3771 1.383 1_554 S
C3772 C3773 1.377 . S
C3773 H3757 0.930 . S
C3773 C3772 1.377 . S
C3773 C3774 1.379 . S
C3774 H3758 0.931 . S
C3774 C3768 1.383 . S
C3774 C3773 1.379 . S
H3775 C3769 0.959 . S
H3776 C3769 0.961 . S
H3777 C3769 1.043 . S
H3778 C3770 0.930 . S
H3779 C3771 0.929 . S
H3780 C3788 0.929 . S
H3781 C3790 0.930 . S
H3782 C3792 0.930 . S
H3783 C3795 0.929 . S
H3784 C3798 0.934 . S
H3785 C3800 0.960 . S
H3786 C3800 0.936 1_556 S
H3787 C3800 0.960 . S
C3788 H3780 0.929 . S
C3788 C3789 1.377 1_556 S
C3788 C3790 1.384 . S
C3789 C3788 1.377 1_554 S
C3789 C3795 1.390 . S
C3790 H3781 0.930 . S
C3790 C3788 1.384 . S
C3790 C3791 1.372 1_556 S
C3791 C3790 1.372 1_554 S
C3791 C3792 1.400 . S
C3791 C3796 1.490 . S
C3792 H3782 0.930 . S
C3792 C3791 1.400 . S
C3792 C3795 1.386 . S
H3793 C3809 0.930 . S
H3794 C3810 0.931 . S
C3795 H3783 0.929 . S
C3795 C3789 1.390 . S
C3795 C3792 1.386 . S
C3796 C3791 1.490 . S
C3796 C3798 1.390 1_554 S
C3796 C3799 1.403 . S
H3797 C3803 0.930 . S
C3798 H3784 0.934 . S
C3798 C3796 1.390 1_556 S
C3798 C3801 1.401 . S
C3799 C3796 1.403 . S
C3799 C3800 1.524 . S
C3799 C3803 1.400 . S
C3800 H3785 0.960 . S
C3800 H3786 0.936 1_554 S
C3800 H3787 0.960 . S
C3800 C3799 1.524 . S
C3801 C3798 1.401 . S
C3801 C3802 1.375 1_556 S
C3801 C3805 1.518 . S
C3802 C3801 1.375 1_554 S
C3802 C3803 1.405 . S
C3802 C3804 1.477 . S
C3803 H3797 0.930 . S
C3803 C3799 1.400 . S
C3803 C3802 1.405 . S
C3804 C3802 1.477 . S
C3804 C3806 1.343 1_554 S
C3804 C3810 1.420 . S
C3805 C3801 1.518 . S
C3805 H3811 0.959 . S
C3805 H3812 0.961 1_556 S
C3805 H3813 0.960 . S
C3806 C3804 1.343 1_556 S
C3806 C3807 1.394 . S
C3806 H3814 0.930 . S
C3807 C3806 1.394 . S
C3807 C3808 1.390 . S
C3807 H3815 0.929 . S
C3808 C3807 1.390 . S
C3808 C3809 1.370 1_556 S
C3809 H3793 0.930 . S
C3809 C3808 1.370 1_554 S
C3809 C3810 1.379 . S
C3810 H3794 0.931 . S
C3810 C3804 1.420 . S
C3810 C3809 1.379 . S
H3811 C3805 0.959 . S
H3812 C3805 0.961 1_554 S
H3813 C3805 0.960 . S
H3814 C3806 0.930 . S
H3815 C3807 0.929 . S
H3816 C3824 0.929 . S
H3817 C3826 0.930 . S
H3818 C3828 0.930 . S
H3819 C3831 0.929 . S
H3820 C3834 0.950 . S
H3821 C3836 0.960 1_655 S
H3822 C3836 0.960 . S
H3823 C3836 0.960 . S
C3824 H3816 0.929 . S
C3824 C3825 1.377 . S
C3824 C3826 1.384 . S
C3825 C3824 1.377 . S
C3825 C3831 1.390 . S
C3826 H3817 0.930 . S
C3826 C3824 1.384 . S
C3826 C3827 1.372 . S
C3827 C3826 1.372 . S
C3827 C3828 1.400 . S
C3827 C3832 1.490 . S
C3828 H3818 0.930 . S
C3828 C3827 1.400 . S
C3828 C3831 1.386 . S
H3829 C3845 0.930 . S
H3830 C3846 0.931 . S
C3831 H3819 0.929 . S
C3831 C3825 1.390 . S
C3831 C3828 1.386 . S
C3832 C3827 1.490 . S
C3832 C3834 1.392 . S
C3832 C3835 1.403 1_455 S
H3833 C3839 0.930 . S
C3834 H3820 0.950 . S
C3834 C3832 1.392 . S
C3834 C3837 1.387 1_455 S
C3835 C3832 1.403 1_655 S
C3835 C3836 1.524 1_655 S
C3835 C3839 1.400 . S
C3836 H3821 0.960 1_455 S
C3836 H3822 0.960 . S
C3836 H3823 0.960 . S
C3836 C3835 1.524 1_455 S
C3837 C3834 1.387 1_655 S
C3837 C3838 1.392 . S
C3837 C3841 1.495 . S
C3838 C3837 1.392 . S
C3838 C3839 1.385 . S
C3838 C3840 1.478 . S
C3839 H3833 0.930 . S
C3839 C3835 1.400 . S
C3839 C3838 1.385 . S
C3840 C3838 1.478 . S
C3840 C3842 1.381 . S
C3840 C3846 1.383 . S
C3841 C3837 1.495 . S
C3841 H3847 0.959 . S
C3841 H3848 0.961 . S
C3841 H3849 0.960 . S
C3842 C3840 1.381 . S
C3842 C3843 1.394 . S
C3842 H3850 0.930 . S
C3843 C3842 1.394 . S
C3843 C3844 1.383 . S
C3843 H3851 0.929 . S
C3844 C3843 1.383 . S
C3844 C3845 1.377 . S
C3845 H3829 0.930 . S
C3845 C3844 1.377 . S
C3845 C3846 1.379 . S
C3846 H3830 0.931 . S
C3846 C3840 1.383 . S
C3846 C3845 1.379 . S
H3847 C3841 0.959 . S
H3848 C3841 0.961 . S
H3849 C3841 0.960 . S
H3850 C3842 0.930 . S
H3851 C3843 0.929 . S
H3852 C3860 0.929 . S
H3853 C3862 0.930 . S
H3854 C3864 0.930 . S
H3855 C3867 0.929 . S
H3856 C3870 0.930 . S
H3857 C3872 0.960 . S
H3858 C3872 0.960 . S
H3859 C3872 0.960 . S
C3860 H3852 0.929 . S
C3860 C3861 1.377 . S
C3860 C3862 1.384 . S
C3861 C3860 1.377 . S
C3861 C3867 1.390 . S
C3862 H3853 0.930 . S
C3862 C3860 1.384 . S
C3862 C3863 1.372 . S
C3863 C3862 1.372 . S
C3863 C3864 1.400 . S
C3863 C3868 1.490 . S
C3864 H3854 0.930 . S
C3864 C3863 1.400 . S
C3864 C3867 1.386 . S
H3865 C3881 0.930 . S
H3866 C3882 0.931 . S
C3867 H3855 0.929 . S
C3867 C3861 1.390 . S
C3867 C3864 1.386 . S
C3868 C3863 1.490 . S
C3868 C3870 1.395 . S
C3868 C3871 1.403 . S
H3869 C3875 0.930 . S
C3870 H3856 0.930 . S
C3870 C3868 1.395 . S
C3870 C3873 1.403 . S
C3871 C3868 1.403 . S
C3871 C3872 1.524 . S
C3871 C3875 1.400 . S
C3872 H3857 0.960 . S
C3872 H3858 0.960 . S
C3872 H3859 0.960 . S
C3872 C3871 1.524 . S
C3873 C3870 1.403 . S
C3873 C3874 1.392 . S
C3873 C3877 1.495 . S
C3874 C3873 1.392 . S
C3874 C3875 1.385 . S
C3874 C3876 1.478 . S
C3875 H3869 0.930 . S
C3875 C3871 1.400 . S
C3875 C3874 1.385 . S
C3876 C3874 1.478 . S
C3876 C3878 1.381 . S
C3876 C3882 1.383 . S
C3877 C3873 1.495 . S
C3877 H3883 0.959 . S
C3877 H3884 0.961 . S
C3877 H3885 0.960 . S
C3878 C3876 1.381 . S
C3878 C3879 1.394 . S
C3878 H3886 0.930 . S
C3879 C3878 1.394 . S
C3879 C3880 1.383 . S
C3879 H3887 0.929 . S
C3880 C3879 1.383 . S
C3880 C3881 1.377 . S
C3881 H3865 0.930 . S
C3881 C3880 1.377 . S
C3881 C3882 1.379 . S
C3882 H3866 0.931 . S
C3882 C3876 1.383 . S
C3882 C3881 1.379 . S
H3883 C3877 0.959 . S
H3884 C3877 0.961 . S
H3885 C3877 0.960 . S
H3886 C3878 0.930 . S
H3887 C3879 0.929 . S
H3888 C3896 0.929 . S
H3889 C3898 0.930 . S
H3890 C3900 0.930 . S
H3891 C3903 0.929 . S
H3892 C3906 0.930 1_565 S
H3893 C3908 0.960 . S
H3894 C3908 0.960 . S
H3895 C3908 0.960 . S
C3896 H3888 0.929 . S
C3896 C3897 1.377 . S
C3896 C3898 1.384 . S
C3897 C3896 1.377 . S
C3897 C3903 1.390 . S
C3898 H3889 0.930 . S
C3898 C3896 1.384 . S
C3898 C3899 1.372 . S
C3899 C3898 1.372 . S
C3899 C3900 1.400 . S
C3899 C3904 1.490 . S
C3900 H3890 0.930 . S
C3900 C3899 1.400 . S
C3900 C3903 1.386 . S
H3901 C3917 0.930 . S
H3902 C3918 0.931 . S
C3903 H3891 0.929 . S
C3903 C3897 1.390 . S
C3903 C3900 1.386 . S
C3904 C3899 1.490 . S
C3904 C3906 1.395 1_565 S
C3904 C3907 1.403 1_565 S
H3905 C3911 0.930 . S
C3906 H3892 0.930 1_545 S
C3906 C3904 1.395 1_545 S
C3906 C3909 1.403 . S
C3907 C3904 1.403 1_545 S
C3907 C3908 1.524 1_545 S
C3907 C3911 1.400 . S
C3908 H3893 0.960 . S
C3908 H3894 0.960 . S
C3908 H3895 0.960 . S
C3908 C3907 1.524 1_565 S
C3909 C3906 1.403 . S
C3909 C3910 1.392 . S
C3909 C3913 1.495 . S
C3910 C3909 1.392 . S
C3910 C3911 1.385 . S
C3910 C3912 1.478 . S
C3911 H3905 0.930 . S
C3911 C3907 1.400 . S
C3911 C3910 1.385 . S
C3912 C3910 1.478 . S
C3912 C3914 1.381 . S
C3912 C3918 1.383 . S
C3913 C3909 1.495 . S
C3913 H3919 0.959 . S
C3913 H3920 0.961 . S
C3913 H3921 0.960 . S
C3914 C3912 1.381 . S
C3914 C3915 1.394 . S
C3914 H3922 0.930 . S
C3915 C3914 1.394 . S
C3915 C3916 1.383 . S
C3915 H3923 0.929 . S
C3916 C3915 1.383 . S
C3916 C3917 1.377 . S
C3917 H3901 0.930 . S
C3917 C3916 1.377 . S
C3917 C3918 1.379 . S
C3918 H3902 0.931 . S
C3918 C3912 1.383 . S
C3918 C3917 1.379 . S
H3919 C3913 0.959 . S
H3920 C3913 0.961 . S
H3921 C3913 0.960 . S
H3922 C3914 0.930 . S
H3923 C3915 0.929 . S
H3924 C3932 0.929 . S
H3925 C3934 0.930 . S
H3926 C3936 0.930 . S
H3927 C3939 0.929 . S
H3928 C3942 0.930 . S
H3929 C3944 0.960 . S
H3930 C3944 0.960 . S
H3931 C3944 0.960 . S
C3932 H3924 0.929 . S
C3932 C3933 1.377 1_655 S
C3932 C3934 1.384 . S
C3933 C3932 1.377 1_455 S
C3933 C3939 1.390 . S
C3934 H3925 0.930 . S
C3934 C3932 1.384 . S
C3934 C3935 1.372 . S
C3935 C3934 1.372 . S
C3935 C3936 1.400 1_655 S
C3935 C3940 1.490 . S
C3936 H3926 0.930 . S
C3936 C3935 1.400 1_455 S
C3936 C3939 1.386 . S
H3937 C3953 0.930 . S
H3938 C3954 0.931 . S
C3939 H3927 0.929 . S
C3939 C3933 1.390 . S
C3939 C3936 1.386 . S
C3940 C3935 1.490 . S
C3940 C3942 1.395 . S
C3940 C3943 1.403 . S
H3941 C3947 0.930 . S
C3942 H3928 0.930 . S
C3942 C3940 1.395 . S
C3942 C3945 1.403 . S
C3943 C3940 1.403 . S
C3943 C3944 1.524 1_655 S
C3943 C3947 1.400 . S
C3944 H3929 0.960 . S
C3944 H3930 0.960 . S
C3944 H3931 0.960 . S
C3944 C3943 1.524 1_455 S
C3945 C3942 1.403 . S
C3945 C3946 1.392 . S
C3945 C3949 1.495 . S
C3946 C3945 1.392 . S
C3946 C3947 1.385 . S
C3946 C3948 1.478 . S
C3947 H3941 0.930 . S
C3947 C3943 1.400 . S
C3947 C3946 1.385 . S
C3948 C3946 1.478 . S
C3948 C3950 1.381 . S
C3948 C3954 1.383 . S
C3949 C3945 1.495 . S
C3949 H3955 0.959 . S
C3949 H3956 0.961 . S
C3949 H3957 0.960 . S
C3950 C3948 1.381 . S
C3950 C3951 1.394 . S
C3950 H3958 0.930 . S
C3951 C3950 1.394 . S
C3951 C3952 1.383 . S
C3951 H3959 0.929 . S
C3952 C3951 1.383 . S
C3952 C3953 1.377 . S
C3953 H3937 0.930 . S
C3953 C3952 1.377 . S
C3953 C3954 1.379 . S
C3954 H3938 0.931 . S
C3954 C3948 1.383 . S
C3954 C3953 1.379 . S
H3955 C3949 0.959 . S
H3956 C3949 0.961 . S
H3957 C3949 0.960 . S
H3958 C3950 0.930 . S
H3959 C3951 0.929 . S
H3960 C3968 0.929 . S
H3961 C3970 0.930 . S
H3962 C3972 0.930 . S
H3963 C3975 0.929 . S
H3964 C3978 0.930 . S
H3965 C3980 0.960 . S
H3966 C3980 0.960 . S
H3967 C3980 0.960 . S
C3968 H3960 0.929 . S
C3968 C3969 1.377 . S
C3968 C3970 1.384 . S
C3969 C3968 1.377 . S
C3969 C3975 1.390 . S
C3970 H3961 0.930 . S
C3970 C3968 1.384 . S
C3970 C3971 1.372 . S
C3971 C3970 1.372 . S
C3971 C3972 1.400 . S
C3971 C3976 1.490 . S
C3972 H3962 0.930 . S
C3972 C3971 1.400 . S
C3972 C3975 1.386 . S
H3973 C3989 0.930 . S
H3974 C3990 0.931 . S
C3975 H3963 0.929 . S
C3975 C3969 1.390 . S
C3975 C3972 1.386 . S
C3976 C3971 1.490 . S
C3976 C3978 1.395 . S
C3976 C3979 1.403 . S
H3977 C3983 0.930 . S
C3978 H3964 0.930 . S
C3978 C3976 1.395 . S
C3978 C3981 1.403 . S
C3979 C3976 1.403 . S
C3979 C3980 1.524 . S
C3979 C3983 1.400 . S
C3980 H3965 0.960 . S
C3980 H3966 0.960 . S
C3980 H3967 0.960 . S
C3980 C3979 1.524 . S
C3981 C3978 1.403 . S
C3981 C3982 1.392 . S
C3981 C3985 1.495 . S
C3982 C3981 1.392 . S
C3982 C3983 1.385 . S
C3982 C3984 1.478 . S
C3983 H3977 0.930 . S
C3983 C3979 1.400 . S
C3983 C3982 1.385 . S
C3984 C3982 1.478 . S
C3984 C3986 1.381 . S
C3984 C3990 1.383 . S
C3985 C3981 1.495 . S
C3985 H3991 0.959 . S
C3985 H3992 0.961 . S
C3985 H3993 0.960 . S
C3986 C3984 1.381 . S
C3986 C3987 1.394 . S
C3986 H3994 0.930 . S
C3987 C3986 1.394 . S
C3987 C3988 1.383 . S
C3987 H3995 0.929 . S
C3988 C3987 1.383 . S
C3988 C3989 1.377 . S
C3989 H3973 0.930 . S
C3989 C3988 1.377 . S
C3989 C3990 1.379 . S
C3990 H3974 0.931 . S
C3990 C3984 1.383 . S
C3990 C3989 1.379 . S
H3991 C3985 0.959 . S
H3992 C3985 0.961 . S
H3993 C3985 0.960 . S
H3994 C3986 0.930 . S
H3995 C3987 0.929 . S
H3996 C4004 0.929 . S
H3997 C4006 0.930 . S
H3998 C4008 0.930 . S
H3999 C4011 0.929 . S
H4000 C4014 0.930 . S
H4001 C4016 0.960 1_565 S
H4002 C4016 0.960 . S
H4003 C4016 0.960 . S
C4004 H3996 0.929 . S
C4004 C4005 1.377 . S
C4004 C4006 1.384 . S
C4005 C4004 1.377 . S
C4005 C4011 1.390 . S
C4006 H3997 0.930 . S
C4006 C4004 1.384 . S
C4006 C4007 1.372 . S
C4007 C4006 1.372 . S
C4007 C4008 1.400 . S
C4007 C4012 1.490 . S
C4008 H3998 0.930 . S
C4008 C4007 1.400 . S
C4008 C4011 1.386 . S
H4009 C4025 0.930 . S
H4010 C4026 0.931 . S
C4011 H3999 0.929 . S
C4011 C4005 1.390 . S
C4011 C4008 1.386 . S
C4012 C4007 1.490 . S
C4012 C4014 1.395 . S
C4012 C4015 1.403 . S
H4013 C4019 0.930 . S
C4014 H4000 0.930 . S
C4014 C4012 1.395 . S
C4014 C4017 1.403 . S
C4015 C4012 1.403 . S
C4015 C4016 1.524 . S
C4015 C4019 1.400 . S
C4016 H4001 0.960 1_545 S
C4016 H4002 0.960 . S
C4016 H4003 0.960 . S
C4016 C4015 1.524 . S
C4017 C4014 1.403 . S
C4017 C4018 1.392 . S
C4017 C4021 1.495 . S
C4018 C4017 1.392 . S
C4018 C4019 1.385 . S
C4018 C4020 1.478 . S
C4019 H4013 0.930 . S
C4019 C4015 1.400 . S
C4019 C4018 1.385 . S
C4020 C4018 1.478 . S
C4020 C4022 1.381 . S
C4020 C4026 1.383 . S
C4021 C4017 1.495 . S
C4021 H4027 0.959 . S
C4021 H4028 0.961 . S
C4021 H4029 0.960 . S
C4022 C4020 1.381 . S
C4022 C4023 1.394 1_545 S
C4022 H4030 0.930 . S
C4023 C4022 1.394 1_565 S
C4023 C4024 1.383 . S
C4023 H4031 0.929 . S
C4024 C4023 1.383 . S
C4024 C4025 1.377 . S
C4025 H4009 0.930 . S
C4025 C4024 1.377 . S
C4025 C4026 1.379 1_565 S
C4026 H4010 0.931 . S
C4026 C4020 1.383 . S
C4026 C4025 1.379 1_545 S
H4027 C4021 0.959 . S
H4028 C4021 0.961 . S
H4029 C4021 0.960 . S
H4030 C4022 0.930 . S
H4031 C4023 0.929 . S
H4032 C4040 0.929 . S
H4033 C4042 0.930 . S
H4034 C4044 0.930 . S
H4035 C4047 0.929 . S
H4036 C4050 0.930 . S
H4037 C4052 0.960 . S
H4038 C4052 0.960 . S
H4039 C4052 0.960 . S
C4040 H4032 0.929 . S
C4040 C4041 1.377 . S
C4040 C4042 1.384 . S
C4041 C4040 1.377 . S
C4041 C4047 1.390 . S
C4042 H4033 0.930 . S
C4042 C4040 1.384 . S
C4042 C4043 1.372 . S
C4043 C4042 1.372 . S
C4043 C4044 1.400 . S
C4043 C4048 1.490 . S
C4044 H4034 0.930 . S
C4044 C4043 1.400 . S
C4044 C4047 1.386 . S
H4045 C4061 0.930 . S
H4046 C4062 0.931 . S
C4047 H4035 0.929 . S
C4047 C4041 1.390 . S
C4047 C4044 1.386 . S
C4048 C4043 1.490 . S
C4048 C4050 1.395 . S
C4048 C4051 1.403 . S
H4049 C4055 0.930 . S
C4050 H4036 0.930 . S
C4050 C4048 1.395 . S
C4050 C4053 1.403 . S
C4051 C4048 1.403 . S
C4051 C4052 1.524 . S
C4051 C4055 1.400 . S
C4052 H4037 0.960 . S
C4052 H4038 0.960 . S
C4052 H4039 0.960 . S
C4052 C4051 1.524 . S
C4053 C4050 1.403 . S
C4053 C4054 1.392 . S
C4053 C4057 1.495 . S
C4054 C4053 1.392 . S
C4054 C4055 1.385 . S
C4054 C4056 1.478 . S
C4055 H4049 0.930 . S
C4055 C4051 1.400 . S
C4055 C4054 1.385 . S
C4056 C4054 1.478 . S
C4056 C4058 1.381 . S
C4056 C4062 1.383 . S
C4057 C4053 1.495 . S
C4057 H4063 0.959 . S
C4057 H4064 0.961 . S
C4057 H4065 0.960 . S
C4058 C4056 1.381 . S
C4058 C4059 1.394 . S
C4058 H4066 0.930 . S
C4059 C4058 1.394 . S
C4059 C4060 1.383 . S
C4059 H4067 0.929 . S
C4060 C4059 1.383 . S
C4060 C4061 1.377 . S
C4061 H4045 0.930 . S
C4061 C4060 1.377 . S
C4061 C4062 1.379 . S
C4062 H4046 0.931 . S
C4062 C4056 1.383 . S
C4062 C4061 1.379 . S
H4063 C4057 0.959 . S
H4064 C4057 0.961 . S
H4065 C4057 0.960 . S
H4066 C4058 0.930 . S
H4067 C4059 0.929 . S
H4068 C4076 0.929 . S
H4069 C4078 0.930 . S
H4070 C4080 0.930 . S
H4071 C4083 0.929 . S
H4072 C4086 0.930 . S
H4073 C4088 0.960 . S
H4074 C4088 0.960 . S
H4075 C4088 0.960 . S
C4076 H4068 0.929 . S
C4076 C4077 1.377 . S
C4076 C4078 1.384 . S
C4077 C4076 1.377 . S
C4077 C4083 1.390 . S
C4078 H4069 0.930 . S
C4078 C4076 1.384 . S
C4078 C4079 1.372 . S
C4079 C4078 1.372 . S
C4079 C4080 1.400 . S
C4079 C4084 1.490 . S
C4080 H4070 0.930 . S
C4080 C4079 1.400 . S
C4080 C4083 1.386 . S
H4081 C4097 0.930 . S
H4082 C4098 0.931 . S
C4083 H4071 0.929 . S
C4083 C4077 1.390 . S
C4083 C4080 1.386 . S
C4084 C4079 1.490 . S
C4084 C4086 1.395 . S
C4084 C4087 1.403 . S
H4085 C4091 0.930 . S
C4086 H4072 0.930 . S
C4086 C4084 1.395 . S
C4086 C4089 1.403 . S
C4087 C4084 1.403 . S
C4087 C4088 1.524 . S
C4087 C4091 1.400 . S
C4088 H4073 0.960 . S
C4088 H4074 0.960 . S
C4088 H4075 0.960 . S
C4088 C4087 1.524 . S
C4089 C4086 1.403 . S
C4089 C4090 1.392 . S
C4089 C4093 1.495 . S
C4090 C4089 1.392 . S
C4090 C4091 1.385 . S
C4090 C4092 1.478 . S
C4091 H4085 0.930 . S
C4091 C4087 1.400 . S
C4091 C4090 1.385 . S
C4092 C4090 1.478 . S
C4092 C4094 1.381 . S
C4092 C4098 1.383 . S
C4093 C4089 1.495 . S
C4093 H4099 0.959 . S
C4093 H4100 0.961 . S
C4093 H4101 0.960 . S
C4094 C4092 1.381 . S
C4094 C4095 1.394 . S
C4094 H4102 0.930 . S
C4095 C4094 1.394 . S
C4095 C4096 1.383 . S
C4095 H4103 0.929 . S
C4096 C4095 1.383 . S
C4096 C4097 1.377 . S
C4097 H4081 0.930 . S
C4097 C4096 1.377 . S
C4097 C4098 1.379 . S
C4098 H4082 0.931 . S
C4098 C4092 1.383 . S
C4098 C4097 1.379 . S
H4099 C4093 0.959 . S
H4100 C4093 0.961 . S
H4101 C4093 0.960 . S
H4102 C4094 0.930 . S
H4103 C4095 0.929 . S
H4104 C4112 0.929 . S
H4105 C4114 0.930 . S
H4106 C4116 0.930 . S
H4107 C4119 0.929 . S
H4108 C4122 0.930 . S
H4109 C4124 0.960 . S
H4110 C4124 0.960 . S
H4111 C4124 0.960 . S
C4112 H4104 0.929 . S
C4112 C4113 1.377 . S
C4112 C4114 1.384 . S
C4113 C4112 1.377 . S
C4113 C4119 1.390 . S
C4114 H4105 0.930 . S
C4114 C4112 1.384 . S
C4114 C4115 1.372 . S
C4115 C4114 1.372 . S
C4115 C4116 1.400 . S
C4115 C4120 1.490 . S
C4116 H4106 0.930 . S
C4116 C4115 1.400 . S
C4116 C4119 1.386 . S
H4117 C4133 0.930 . S
H4118 C4134 0.931 . S
C4119 H4107 0.929 . S
C4119 C4113 1.390 . S
C4119 C4116 1.386 . S
C4120 C4115 1.490 . S
C4120 C4122 1.395 . S
C4120 C4123 1.403 . S
H4121 C4127 0.930 . S
C4122 H4108 0.930 . S
C4122 C4120 1.395 . S
C4122 C4125 1.403 . S
C4123 C4120 1.403 . S
C4123 C4124 1.524 . S
C4123 C4127 1.400 . S
C4124 H4109 0.960 . S
C4124 H4110 0.960 . S
C4124 H4111 0.960 . S
C4124 C4123 1.524 . S
C4125 C4122 1.403 . S
C4125 C4126 1.392 . S
C4125 C4129 1.495 . S
C4126 C4125 1.392 . S
C4126 C4127 1.385 . S
C4126 C4128 1.478 . S
C4127 H4121 0.930 . S
C4127 C4123 1.400 . S
C4127 C4126 1.385 . S
C4128 C4126 1.478 . S
C4128 C4130 1.381 . S
C4128 C4134 1.383 . S
C4129 C4125 1.495 . S
C4129 H4135 0.959 . S
C4129 H4136 0.961 . S
C4129 H4137 0.960 . S
C4130 C4128 1.381 . S
C4130 C4131 1.394 . S
C4130 H4138 0.930 . S
C4131 C4130 1.394 . S
C4131 C4132 1.383 . S
C4131 H4139 0.929 . S
C4132 C4131 1.383 . S
C4132 C4133 1.377 . S
C4133 H4117 0.930 . S
C4133 C4132 1.377 . S
C4133 C4134 1.379 . S
C4134 H4118 0.931 . S
C4134 C4128 1.383 . S
C4134 C4133 1.379 . S
H4135 C4129 0.959 . S
H4136 C4129 0.961 . S
H4137 C4129 0.960 . S
H4138 C4130 0.930 . S
H4139 C4131 0.929 . S
H4140 C4148 0.929 . S
H4141 C4150 0.930 . S
H4142 C4152 0.930 . S
H4143 C4155 0.929 . S
H4144 C4158 0.930 . S
H4145 C4160 0.960 . S
H4146 C4160 0.960 . S
H4147 C4160 0.960 . S
C4148 H4140 0.929 . S
C4148 C4149 1.377 . S
C4148 C4150 1.384 . S
C4149 C4148 1.377 . S
C4149 C4155 1.390 . S
C4150 H4141 0.930 . S
C4150 C4148 1.384 . S
C4150 C4151 1.372 . S
C4151 C4150 1.372 . S
C4151 C4152 1.400 . S
C4151 C4156 1.490 . S
C4152 H4142 0.930 . S
C4152 C4151 1.400 . S
C4152 C4155 1.386 . S
H4153 C4169 0.930 . S
H4154 C4170 0.931 . S
C4155 H4143 0.929 . S
C4155 C4149 1.390 . S
C4155 C4152 1.386 . S
C4156 C4151 1.490 . S
C4156 C4158 1.395 . S
C4156 C4159 1.403 . S
H4157 C4163 0.930 . S
C4158 H4144 0.930 . S
C4158 C4156 1.395 . S
C4158 C4161 1.403 . S
C4159 C4156 1.403 . S
C4159 C4160 1.524 . S
C4159 C4163 1.400 . S
C4160 H4145 0.960 . S
C4160 H4146 0.960 . S
C4160 H4147 0.960 . S
C4160 C4159 1.524 . S
C4161 C4158 1.403 . S
C4161 C4162 1.392 . S
C4161 C4165 1.495 . S
C4162 C4161 1.392 . S
C4162 C4163 1.385 . S
C4162 C4164 1.478 . S
C4163 H4157 0.930 . S
C4163 C4159 1.400 . S
C4163 C4162 1.385 . S
C4164 C4162 1.478 . S
C4164 C4166 1.381 . S
C4164 C4170 1.383 . S
C4165 C4161 1.495 . S
C4165 H4171 0.959 . S
C4165 H4172 0.961 . S
C4165 H4173 0.960 . S
C4166 C4164 1.381 . S
C4166 C4167 1.394 . S
C4166 H4174 0.930 . S
C4167 C4166 1.394 . S
C4167 C4168 1.383 . S
C4167 H4175 0.929 . S
C4168 C4167 1.383 . S
C4168 C4169 1.377 . S
C4169 H4153 0.930 . S
C4169 C4168 1.377 . S
C4169 C4170 1.379 . S
C4170 H4154 0.931 . S
C4170 C4164 1.383 . S
C4170 C4169 1.379 . S
H4171 C4165 0.959 . S
H4172 C4165 0.961 . S
H4173 C4165 0.960 . S
H4174 C4166 0.930 . S
H4175 C4167 0.929 . S
H4176 C4184 0.929 . S
H4177 C4186 0.930 . S
H4178 C4188 0.930 . S
H4179 C4191 0.929 . S
H4180 C4194 0.930 . S
H4181 C4196 0.960 . S
H4182 C4196 0.960 . S
H4183 C4196 0.960 . S
C4184 H4176 0.929 . S
C4184 C4185 1.377 . S
C4184 C4186 1.384 . S
C4185 C4184 1.377 . S
C4185 C4191 1.390 . S
C4186 H4177 0.930 . S
C4186 C4184 1.384 . S
C4186 C4187 1.372 . S
C4187 C4186 1.372 . S
C4187 C4188 1.400 . S
C4187 C4192 1.490 . S
C4188 H4178 0.930 . S
C4188 C4187 1.400 . S
C4188 C4191 1.386 . S
H4189 C4205 0.930 . S
H4190 C4206 0.931 . S
C4191 H4179 0.929 . S
C4191 C4185 1.390 . S
C4191 C4188 1.386 . S
C4192 C4187 1.490 . S
C4192 C4194 1.395 . S
C4192 C4195 1.403 . S
H4193 C4199 0.930 . S
C4194 H4180 0.930 . S
C4194 C4192 1.395 . S
C4194 C4197 1.403 . S
C4195 C4192 1.403 . S
C4195 C4196 1.524 . S
C4195 C4199 1.400 . S
C4196 H4181 0.960 . S
C4196 H4182 0.960 . S
C4196 H4183 0.960 . S
C4196 C4195 1.524 . S
C4197 C4194 1.403 . S
C4197 C4198 1.392 . S
C4197 C4201 1.495 . S
C4198 C4197 1.392 . S
C4198 C4199 1.385 . S
C4198 C4200 1.478 . S
C4199 H4193 0.930 . S
C4199 C4195 1.400 . S
C4199 C4198 1.385 . S
C4200 C4198 1.478 . S
C4200 C4202 1.381 . S
C4200 C4206 1.383 . S
C4201 C4197 1.495 . S
C4201 H4207 0.959 . S
C4201 H4208 0.961 . S
C4201 H4209 0.960 . S
C4202 C4200 1.381 . S
C4202 C4203 1.394 . S
C4202 H4210 0.930 . S
C4203 C4202 1.394 . S
C4203 C4204 1.383 . S
C4203 H4211 0.929 . S
C4204 C4203 1.383 . S
C4204 C4205 1.377 . S
C4205 H4189 0.930 . S
C4205 C4204 1.377 . S
C4205 C4206 1.379 . S
C4206 H4190 0.931 . S
C4206 C4200 1.383 . S
C4206 C4205 1.379 . S
H4207 C4201 0.959 . S
H4208 C4201 0.961 . S
H4209 C4201 0.960 . S
H4210 C4202 0.930 . S
H4211 C4203 0.929 . S
H4212 C4220 0.929 . S
H4213 C4222 0.930 . S
H4214 C4224 0.930 . S
H4215 C4227 0.929 . S
H4216 C4230 0.930 . S
H4217 C4232 0.960 . S
H4218 C4232 0.960 . S
H4219 C4232 0.960 . S
C4220 H4212 0.929 . S
C4220 C4221 1.377 . S
C4220 C4222 1.384 . S
C4221 C4220 1.377 . S
C4221 C4227 1.390 . S
C4222 H4213 0.930 . S
C4222 C4220 1.384 . S
C4222 C4223 1.372 . S
C4223 C4222 1.372 . S
C4223 C4224 1.400 . S
C4223 C4228 1.490 . S
C4224 H4214 0.930 . S
C4224 C4223 1.400 . S
C4224 C4227 1.386 . S
H4225 C4241 0.930 . S
H4226 C4242 0.931 . S
C4227 H4215 0.929 . S
C4227 C4221 1.390 . S
C4227 C4224 1.386 . S
C4228 C4223 1.490 . S
C4228 C4230 1.395 . S
C4228 C4231 1.403 . S
H4229 C4235 0.930 . S
C4230 H4216 0.930 . S
C4230 C4228 1.395 . S
C4230 C4233 1.403 . S
C4231 C4228 1.403 . S
C4231 C4232 1.524 . S
C4231 C4235 1.400 . S
C4232 H4217 0.960 . S
C4232 H4218 0.960 . S
C4232 H4219 0.960 . S
C4232 C4231 1.524 . S
C4233 C4230 1.403 . S
C4233 C4234 1.392 . S
C4233 C4237 1.495 . S
C4234 C4233 1.392 . S
C4234 C4235 1.385 . S
C4234 C4236 1.478 . S
C4235 H4229 0.930 . S
C4235 C4231 1.400 . S
C4235 C4234 1.385 . S
C4236 C4234 1.478 . S
C4236 C4238 1.381 . S
C4236 C4242 1.383 . S
C4237 C4233 1.495 . S
C4237 H4243 0.959 . S
C4237 H4244 0.961 . S
C4237 H4245 0.960 . S
C4238 C4236 1.381 . S
C4238 C4239 1.394 . S
C4238 H4246 0.930 . S
C4239 C4238 1.394 . S
C4239 C4240 1.383 . S
C4239 H4247 0.929 . S
C4240 C4239 1.383 . S
C4240 C4241 1.377 . S
C4241 H4225 0.930 . S
C4241 C4240 1.377 . S
C4241 C4242 1.379 . S
C4242 H4226 0.931 . S
C4242 C4236 1.383 . S
C4242 C4241 1.379 . S
H4243 C4237 0.959 . S
H4244 C4237 0.961 . S
H4245 C4237 0.960 . S
H4246 C4238 0.930 . S
H4247 C4239 0.929 . S
H4248 C4256 0.929 . S
H4249 C4258 0.930 . S
H4250 C4260 0.930 . S
H4251 C4263 0.929 . S
H4252 C4266 0.930 . S
H4253 C4268 0.960 . S
H4254 C4268 0.960 . S
H4255 C4268 0.960 . S
C4256 H4248 0.929 . S
C4256 C4257 1.377 . S
C4256 C4258 1.384 . S
C4257 C4256 1.377 . S
C4257 C4263 1.390 . S
C4258 H4249 0.930 . S
C4258 C4256 1.384 . S
C4258 C4259 1.372 . S
C4259 C4258 1.372 . S
C4259 C4260 1.400 . S
C4259 C4264 1.490 . S
C4260 H4250 0.930 . S
C4260 C4259 1.400 . S
C4260 C4263 1.386 . S
H4261 C4277 0.930 . S
H4262 C4278 0.931 . S
C4263 H4251 0.929 . S
C4263 C4257 1.390 . S
C4263 C4260 1.386 . S
C4264 C4259 1.490 . S
C4264 C4266 1.395 . S
C4264 C4267 1.403 . S
H4265 C4271 0.930 . S
C4266 H4252 0.930 . S
C4266 C4264 1.395 . S
C4266 C4269 1.403 . S
C4267 C4264 1.403 . S
C4267 C4268 1.524 . S
C4267 C4271 1.400 . S
C4268 H4253 0.960 . S
C4268 H4254 0.960 . S
C4268 H4255 0.960 . S
C4268 C4267 1.524 . S
C4269 C4266 1.403 . S
C4269 C4270 1.392 . S
C4269 C4273 1.495 . S
C4270 C4269 1.392 . S
C4270 C4271 1.385 . S
C4270 C4272 1.478 . S
C4271 H4265 0.930 . S
C4271 C4267 1.400 . S
C4271 C4270 1.385 . S
C4272 C4270 1.478 . S
C4272 C4274 1.381 . S
C4272 C4278 1.383 . S
C4273 C4269 1.495 . S
C4273 H4279 0.959 . S
C4273 H4280 0.961 . S
C4273 H4281 0.960 . S
C4274 C4272 1.381 . S
C4274 C4275 1.394 . S
C4274 H4282 0.930 . S
C4275 C4274 1.394 . S
C4275 C4276 1.383 . S
C4275 H4283 0.929 . S
C4276 C4275 1.383 . S
C4276 C4277 1.377 . S
C4277 H4261 0.930 . S
C4277 C4276 1.377 . S
C4277 C4278 1.379 . S
C4278 H4262 0.931 . S
C4278 C4272 1.383 . S
C4278 C4277 1.379 . S
H4279 C4273 0.959 . S
H4280 C4273 0.961 . S
H4281 C4273 0.960 . S
H4282 C4274 0.930 . S
H4283 C4275 0.929 . S
H4284 C4292 0.929 . S
H4285 C4294 0.930 . S
H4286 C4296 0.930 . S
H4287 C4299 0.929 . S
H4288 C4302 0.930 . S
H4289 C4304 0.960 . S
H4290 C4304 0.960 . S
H4291 C4304 0.960 . S
C4292 H4284 0.929 . S
C4292 C4293 1.377 . S
C4292 C4294 1.384 . S
C4293 C4292 1.377 . S
C4293 C4299 1.390 . S
C4294 H4285 0.930 . S
C4294 C4292 1.384 . S
C4294 C4295 1.372 . S
C4295 C4294 1.372 . S
C4295 C4296 1.400 . S
C4295 C4300 1.490 . S
C4296 H4286 0.930 . S
C4296 C4295 1.400 . S
C4296 C4299 1.386 . S
H4297 C4313 0.930 . S
H4298 C4314 0.931 . S
C4299 H4287 0.929 . S
C4299 C4293 1.390 . S
C4299 C4296 1.386 . S
C4300 C4295 1.490 . S
C4300 C4302 1.395 . S
C4300 C4303 1.403 . S
H4301 C4307 0.930 . S
C4302 H4288 0.930 . S
C4302 C4300 1.395 . S
C4302 C4305 1.403 . S
C4303 C4300 1.403 . S
C4303 C4304 1.524 . S
C4303 C4307 1.400 . S
C4304 H4289 0.960 . S
C4304 H4290 0.960 . S
C4304 H4291 0.960 . S
C4304 C4303 1.524 . S
C4305 C4302 1.403 . S
C4305 C4306 1.392 . S
C4305 C4309 1.495 . S
C4306 C4305 1.392 . S
C4306 C4307 1.385 . S
C4306 C4308 1.478 . S
C4307 H4301 0.930 . S
C4307 C4303 1.400 . S
C4307 C4306 1.385 . S
C4308 C4306 1.478 . S
C4308 C4310 1.381 . S
C4308 C4314 1.383 . S
C4309 C4305 1.495 . S
C4309 H4315 0.959 . S
C4309 H4316 0.961 . S
C4309 H4317 0.960 . S
C4310 C4308 1.381 . S
C4310 C4311 1.394 . S
C4310 H4318 0.930 . S
C4311 C4310 1.394 . S
C4311 C4312 1.383 . S
C4311 H4319 0.929 . S
C4312 C4311 1.383 . S
C4312 C4313 1.377 . S
C4313 H4297 0.930 . S
C4313 C4312 1.377 . S
C4313 C4314 1.379 . S
C4314 H4298 0.931 . S
C4314 C4308 1.383 . S
C4314 C4313 1.379 . S
H4315 C4309 0.959 . S
H4316 C4309 0.961 . S
H4317 C4309 0.960 . S
H4318 C4310 0.930 . S
H4319 C4311 0.929 . S
H4320 C4328 0.929 . S
H4321 C4330 0.930 . S
H4322 C4332 0.930 . S
H4323 C4335 0.929 . S
H4324 C4338 0.930 . S
H4325 C4340 0.960 . S
H4326 C4340 0.960 . S
H4327 C4340 0.960 . S
C4328 H4320 0.929 . S
C4328 C4329 1.377 . S
C4328 C4330 1.384 . S
C4329 C4328 1.377 . S
C4329 C4335 1.390 . S
C4330 H4321 0.930 . S
C4330 C4328 1.384 . S
C4330 C4331 1.372 . S
C4331 C4330 1.372 . S
C4331 C4332 1.400 . S
C4331 C4336 1.490 . S
C4332 H4322 0.930 . S
C4332 C4331 1.400 . S
C4332 C4335 1.386 . S
H4333 C4349 0.930 . S
H4334 C4350 0.931 . S
C4335 H4323 0.929 . S
C4335 C4329 1.390 . S
C4335 C4332 1.386 . S
C4336 C4331 1.490 . S
C4336 C4338 1.395 . S
C4336 C4339 1.403 . S
H4337 C4343 0.930 . S
C4338 H4324 0.930 . S
C4338 C4336 1.395 . S
C4338 C4341 1.403 . S
C4339 C4336 1.403 . S
C4339 C4340 1.524 . S
C4339 C4343 1.400 . S
C4340 H4325 0.960 . S
C4340 H4326 0.960 . S
C4340 H4327 0.960 . S
C4340 C4339 1.524 . S
C4341 C4338 1.403 . S
C4341 C4342 1.392 . S
C4341 C4345 1.495 . S
C4342 C4341 1.392 . S
C4342 C4343 1.385 . S
C4342 C4344 1.478 . S
C4343 H4337 0.930 . S
C4343 C4339 1.400 . S
C4343 C4342 1.385 . S
C4344 C4342 1.478 . S
C4344 C4346 1.381 . S
C4344 C4350 1.383 . S
C4345 C4341 1.495 . S
C4345 H4351 0.959 . S
C4345 H4352 0.961 . S
C4345 H4353 0.960 . S
C4346 C4344 1.381 . S
C4346 C4347 1.394 . S
C4346 H4354 0.930 . S
C4347 C4346 1.394 . S
C4347 C4348 1.383 . S
C4347 H4355 0.929 . S
C4348 C4347 1.383 . S
C4348 C4349 1.377 . S
C4349 H4333 0.930 . S
C4349 C4348 1.377 . S
C4349 C4350 1.379 . S
C4350 H4334 0.931 . S
C4350 C4344 1.383 . S
C4350 C4349 1.379 . S
H4351 C4345 0.959 . S
H4352 C4345 0.961 . S
H4353 C4345 0.960 . S
H4354 C4346 0.930 . S
H4355 C4347 0.929 . S
H4356 C4364 0.929 . S
H4357 C4366 0.930 . S
H4358 C4368 0.930 . S
H4359 C4371 0.929 . S
H4360 C4374 0.930 . S
H4361 C4376 0.960 . S
H4362 C4376 0.960 . S
H4363 C4376 0.960 . S
C4364 H4356 0.929 . S
C4364 C4365 1.377 . S
C4364 C4366 1.384 . S
C4365 C4364 1.377 . S
C4365 C4371 1.390 . S
C4366 H4357 0.930 . S
C4366 C4364 1.384 . S
C4366 C4367 1.372 . S
C4367 C4366 1.372 . S
C4367 C4368 1.400 . S
C4367 C4372 1.490 . S
C4368 H4358 0.930 . S
C4368 C4367 1.400 . S
C4368 C4371 1.386 . S
H4369 C4385 0.930 . S
H4370 C4386 0.931 . S
C4371 H4359 0.929 . S
C4371 C4365 1.390 . S
C4371 C4368 1.386 . S
C4372 C4367 1.490 . S
C4372 C4374 1.395 . S
C4372 C4375 1.403 . S
H4373 C4379 0.930 . S
C4374 H4360 0.930 . S
C4374 C4372 1.395 . S
C4374 C4377 1.403 . S
C4375 C4372 1.403 . S
C4375 C4376 1.524 . S
C4375 C4379 1.400 . S
C4376 H4361 0.960 . S
C4376 H4362 0.960 . S
C4376 H4363 0.960 . S
C4376 C4375 1.524 . S
C4377 C4374 1.403 . S
C4377 C4378 1.392 . S
C4377 C4381 1.495 . S
C4378 C4377 1.392 . S
C4378 C4379 1.385 . S
C4378 C4380 1.478 . S
C4379 H4373 0.930 . S
C4379 C4375 1.400 . S
C4379 C4378 1.385 . S
C4380 C4378 1.478 . S
C4380 C4382 1.381 . S
C4380 C4386 1.383 . S
C4381 C4377 1.495 . S
C4381 H4387 0.959 . S
C4381 H4388 0.961 . S
C4381 H4389 0.960 . S
C4382 C4380 1.381 . S
C4382 C4383 1.394 . S
C4382 H4390 0.930 . S
C4383 C4382 1.394 . S
C4383 C4384 1.383 . S
C4383 H4391 0.929 . S
C4384 C4383 1.383 . S
C4384 C4385 1.377 . S
C4385 H4369 0.930 . S
C4385 C4384 1.377 . S
C4385 C4386 1.379 . S
C4386 H4370 0.931 . S
C4386 C4380 1.383 . S
C4386 C4385 1.379 . S
H4387 C4381 0.959 . S
H4388 C4381 0.961 . S
H4389 C4381 0.960 . S
H4390 C4382 0.930 . S
H4391 C4383 0.929 . S
H4392 C4400 0.929 . S
H4393 C4402 0.930 . S
H4394 C4404 0.930 . S
H4395 C4407 0.929 . S
H4396 C4410 0.930 . S
H4397 C4412 0.960 . S
H4398 C4412 0.960 . S
H4399 C4412 0.960 . S
C4400 H4392 0.929 . S
C4400 C4401 1.377 . S
C4400 C4402 1.384 . S
C4401 C4400 1.377 . S
C4401 C4407 1.390 . S
C4402 H4393 0.930 . S
C4402 C4400 1.384 . S
C4402 C4403 1.372 . S
C4403 C4402 1.372 . S
C4403 C4404 1.400 . S
C4403 C4408 1.490 . S
C4404 H4394 0.930 . S
C4404 C4403 1.400 . S
C4404 C4407 1.386 . S
H4405 C4421 0.930 . S
H4406 C4422 0.931 . S
C4407 H4395 0.929 . S
C4407 C4401 1.390 . S
C4407 C4404 1.386 . S
C4408 C4403 1.490 . S
C4408 C4410 1.395 . S
C4408 C4411 1.403 . S
H4409 C4415 0.930 . S
C4410 H4396 0.930 . S
C4410 C4408 1.395 . S
C4410 C4413 1.403 . S
C4411 C4408 1.403 . S
C4411 C4412 1.524 . S
C4411 C4415 1.400 . S
C4412 H4397 0.960 . S
C4412 H4398 0.960 . S
C4412 H4399 0.960 . S
C4412 C4411 1.524 . S
C4413 C4410 1.403 . S
C4413 C4414 1.392 . S
C4413 C4417 1.495 . S
C4414 C4413 1.392 . S
C4414 C4415 1.385 . S
C4414 C4416 1.478 . S
C4415 H4409 0.930 . S
C4415 C4411 1.400 . S
C4415 C4414 1.385 . S
C4416 C4414 1.478 . S
C4416 C4418 1.381 . S
C4416 C4422 1.383 . S
C4417 C4413 1.495 . S
C4417 H4423 0.959 . S
C4417 H4424 0.961 . S
C4417 H4425 0.960 . S
C4418 C4416 1.381 . S
C4418 C4419 1.394 . S
C4418 H4426 0.930 . S
C4419 C4418 1.394 . S
C4419 C4420 1.383 . S
C4419 H4427 0.929 . S
C4420 C4419 1.383 . S
C4420 C4421 1.377 . S
C4421 H4405 0.930 . S
C4421 C4420 1.377 . S
C4421 C4422 1.379 . S
C4422 H4406 0.931 . S
C4422 C4416 1.383 . S
C4422 C4421 1.379 . S
H4423 C4417 0.959 . S
H4424 C4417 0.961 . S
H4425 C4417 0.960 . S
H4426 C4418 0.930 . S
H4427 C4419 0.929 . S
H4428 C4436 0.929 . S
H4429 C4438 0.930 . S
H4430 C4440 0.930 . S
H4431 C4443 0.929 . S
H4432 C4446 0.930 . S
H4433 C4448 0.960 . S
H4434 C4448 0.960 . S
H4435 C4448 0.960 . S
C4436 H4428 0.929 . S
C4436 C4437 1.377 . S
C4436 C4438 1.384 . S
C4437 C4436 1.377 . S
C4437 C4443 1.390 . S
C4438 H4429 0.930 . S
C4438 C4436 1.384 . S
C4438 C4439 1.372 . S
C4439 C4438 1.372 . S
C4439 C4440 1.400 . S
C4439 C4444 1.490 . S
C4440 H4430 0.930 . S
C4440 C4439 1.400 . S
C4440 C4443 1.386 . S
H4441 C4457 0.930 . S
H4442 C4458 0.931 . S
C4443 H4431 0.929 . S
C4443 C4437 1.390 . S
C4443 C4440 1.386 . S
C4444 C4439 1.490 . S
C4444 C4446 1.395 . S
C4444 C4447 1.403 . S
H4445 C4451 0.930 . S
C4446 H4432 0.930 . S
C4446 C4444 1.395 . S
C4446 C4449 1.403 . S
C4447 C4444 1.403 . S
C4447 C4448 1.524 . S
C4447 C4451 1.400 . S
C4448 H4433 0.960 . S
C4448 H4434 0.960 . S
C4448 H4435 0.960 . S
C4448 C4447 1.524 . S
C4449 C4446 1.403 . S
C4449 C4450 1.392 . S
C4449 C4453 1.495 . S
C4450 C4449 1.392 . S
C4450 C4451 1.385 . S
C4450 C4452 1.478 . S
C4451 H4445 0.930 . S
C4451 C4447 1.400 . S
C4451 C4450 1.385 . S
C4452 C4450 1.478 . S
C4452 C4454 1.381 . S
C4452 C4458 1.383 . S
C4453 C4449 1.495 . S
C4453 H4459 0.959 . S
C4453 H4460 0.961 . S
C4453 H4461 0.960 . S
C4454 C4452 1.381 . S
C4454 C4455 1.394 . S
C4454 H4462 0.930 . S
C4455 C4454 1.394 . S
C4455 C4456 1.383 . S
C4455 H4463 0.929 . S
C4456 C4455 1.383 . S
C4456 C4457 1.377 . S
C4457 H4441 0.930 . S
C4457 C4456 1.377 . S
C4457 C4458 1.379 . S
C4458 H4442 0.931 . S
C4458 C4452 1.383 . S
C4458 C4457 1.379 . S
H4459 C4453 0.959 . S
H4460 C4453 0.961 . S
H4461 C4453 0.960 . S
H4462 C4454 0.930 . S
H4463 C4455 0.929 . S
H4464 C4472 0.929 . S
H4465 C4474 0.930 . S
H4466 C4476 0.930 . S
H4467 C4479 0.929 . S
H4468 C4482 0.930 . S
H4469 C4484 0.960 . S
H4470 C4484 0.960 . S
H4471 C4484 0.960 . S
C4472 H4464 0.929 . S
C4472 C4473 1.377 . S
C4472 C4474 1.384 . S
C4473 C4472 1.377 . S
C4473 C4479 1.390 1_655 S
C4474 H4465 0.930 . S
C4474 C4472 1.384 . S
C4474 C4475 1.372 . S
C4475 C4474 1.372 . S
C4475 C4476 1.400 1_655 S
C4475 C4480 1.490 . S
C4476 H4466 0.930 . S
C4476 C4475 1.400 1_455 S
C4476 C4479 1.386 . S
H4477 C4493 0.930 . S
H4478 C4494 0.931 . S
C4479 H4467 0.929 . S
C4479 C4473 1.390 1_455 S
C4479 C4476 1.386 . S
C4480 C4475 1.490 . S
C4480 C4482 1.395 1_655 S
C4480 C4483 1.403 . S
H4481 C4487 0.930 . S
C4482 H4468 0.930 . S
C4482 C4480 1.395 1_455 S
C4482 C4485 1.403 . S
C4483 C4480 1.403 . S
C4483 C4484 1.524 . S
C4483 C4487 1.400 . S
C4484 H4469 0.960 . S
C4484 H4470 0.960 . S
C4484 H4471 0.960 . S
C4484 C4483 1.524 . S
C4485 C4482 1.403 . S
C4485 C4486 1.392 . S
C4485 C4489 1.495 . S
C4486 C4485 1.392 . S
C4486 C4487 1.385 1_455 S
C4486 C4488 1.478 . S
C4487 H4481 0.930 . S
C4487 C4483 1.400 . S
C4487 C4486 1.385 1_655 S
C4488 C4486 1.478 . S
C4488 C4490 1.381 1_455 S
C4488 C4494 1.383 . S
C4489 C4485 1.495 . S
C4489 H4495 0.959 . S
C4489 H4496 0.961 . S
C4489 H4497 0.960 . S
C4490 C4488 1.381 1_655 S
C4490 C4491 1.397 . S
C4490 H4498 0.930 . S
C4491 C4490 1.397 . S
C4491 C4492 1.372 1_655 S
C4491 H4499 0.940 . S
C4492 C4491 1.372 1_455 S
C4492 C4493 1.377 . S
C4493 H4477 0.930 . S
C4493 C4492 1.377 . S
C4493 C4494 1.379 . S
C4494 H4478 0.931 . S
C4494 C4488 1.383 . S
C4494 C4493 1.379 . S
H4495 C4489 0.959 . S
H4496 C4489 0.961 . S
H4497 C4489 0.960 . S
H4498 C4490 0.930 . S
H4499 C4491 0.940 . S
H4500 C4508 0.929 . S
H4501 C4510 0.930 . S
H4502 C4512 0.930 . S
H4503 C4515 0.929 . S
H4504 C4518 0.930 . S
H4505 C4520 0.960 . S
H4506 C4520 0.960 . S
H4507 C4520 0.960 . S
C4508 H4500 0.929 . S
C4508 C4509 1.377 . S
C4508 C4510 1.384 . S
C4509 C4508 1.377 . S
C4509 C4515 1.390 . S
C4510 H4501 0.930 . S
C4510 C4508 1.384 . S
C4510 C4511 1.372 . S
C4511 C4510 1.372 . S
C4511 C4512 1.400 . S
C4511 C4516 1.490 . S
C4512 H4502 0.930 . S
C4512 C4511 1.400 . S
C4512 C4515 1.386 . S
H4513 C4529 0.930 . S
H4514 C4530 0.931 . S
C4515 H4503 0.929 . S
C4515 C4509 1.390 . S
C4515 C4512 1.386 . S
C4516 C4511 1.490 . S
C4516 C4518 1.395 . S
C4516 C4519 1.403 . S
H4517 C4523 0.930 . S
C4518 H4504 0.930 . S
C4518 C4516 1.395 . S
C4518 C4521 1.403 . S
C4519 C4516 1.403 . S
C4519 C4520 1.524 . S
C4519 C4523 1.400 . S
C4520 H4505 0.960 . S
C4520 H4506 0.960 . S
C4520 H4507 0.960 . S
C4520 C4519 1.524 . S
C4521 C4518 1.403 . S
C4521 C4522 1.392 . S
C4521 C4525 1.495 . S
C4522 C4521 1.392 . S
C4522 C4523 1.385 . S
C4522 C4524 1.478 . S
C4523 H4517 0.930 . S
C4523 C4519 1.400 . S
C4523 C4522 1.385 . S
C4524 C4522 1.478 . S
C4524 C4526 1.381 . S
C4524 C4530 1.383 . S
C4525 C4521 1.495 . S
C4525 H4531 0.959 . S
C4525 H4532 0.961 . S
C4525 H4533 0.960 . S
C4526 C4524 1.381 . S
C4526 C4527 1.394 . S
C4526 H4534 0.930 . S
C4527 C4526 1.394 . S
C4527 C4528 1.383 . S
C4527 H4535 0.929 . S
C4528 C4527 1.383 . S
C4528 C4529 1.377 . S
C4529 H4513 0.930 . S
C4529 C4528 1.377 . S
C4529 C4530 1.379 . S
C4530 H4514 0.931 . S
C4530 C4524 1.383 . S
C4530 C4529 1.379 . S
H4531 C4525 0.959 . S
H4532 C4525 0.961 . S
H4533 C4525 0.960 . S
H4534 C4526 0.930 . S
H4535 C4527 0.929 . S
H4536 C4544 0.929 1_565 S
H4537 C4546 0.928 . S
H4538 C4548 0.930 . S
H4539 C4551 0.929 . S
H4540 C4554 0.930 . S
H4541 C4556 0.960 . S
H4542 C4556 0.960 . S
H4543 C4556 0.960 . S
C4544 H4536 0.929 1_545 S
C4544 C4545 1.377 . S
C4544 C4546 1.381 1_545 S
C4545 C4544 1.377 . S
C4545 C4551 1.390 . S
C4546 H4537 0.928 . S
C4546 C4544 1.381 1_565 S
C4546 C4547 1.377 1_565 S
C4547 C4546 1.377 1_545 S
C4547 C4548 1.400 . S
C4547 C4552 1.491 . S
C4548 H4538 0.930 . S
C4548 C4547 1.400 . S
C4548 C4551 1.386 . S
H4549 C4565 0.930 . S
H4550 C4566 0.931 . S
C4551 H4539 0.929 . S
C4551 C4545 1.390 . S
C4551 C4548 1.386 . S
C4552 C4547 1.491 . S
C4552 C4554 1.390 1_545 S
C4552 C4555 1.407 . S
H4553 C4559 0.930 . S
C4554 H4540 0.930 . S
C4554 C4552 1.390 1_565 S
C4554 C4557 1.403 . S
C4555 C4552 1.407 . S
C4555 C4556 1.524 . S
C4555 C4559 1.400 . S
C4556 H4541 0.960 . S
C4556 H4542 0.960 . S
C4556 H4543 0.960 . S
C4556 C4555 1.524 . S
C4557 C4554 1.403 . S
C4557 C4558 1.392 . S
C4557 C4561 1.495 . S
C4558 C4557 1.392 . S
C4558 C4559 1.385 1_565 S
C4558 C4560 1.478 . S
C4559 H4553 0.930 . S
C4559 C4555 1.400 . S
C4559 C4558 1.385 1_545 S
C4560 C4558 1.478 . S
C4560 C4562 1.381 . S
C4560 C4566 1.383 . S
C4561 C4557 1.495 . S
C4561 H4567 0.959 . S
C4561 H4568 0.961 . S
C4561 H4569 0.960 . S
C4562 C4560 1.381 . S
C4562 C4563 1.394 . S
C4562 H4570 0.930 . S
C4563 C4562 1.394 . S
C4563 C4564 1.383 . S
C4563 H4571 0.929 . S
C4564 C4563 1.383 . S
C4564 C4565 1.377 . S
C4565 H4549 0.930 . S
C4565 C4564 1.377 . S
C4565 C4566 1.379 . S
C4566 H4550 0.931 . S
C4566 C4560 1.383 . S
C4566 C4565 1.379 . S
H4567 C4561 0.959 . S
H4568 C4561 0.961 . S
H4569 C4561 0.960 . S
H4570 C4562 0.930 . S
H4571 C4563 0.929 . S
H4572 C4580 0.929 . S
H4573 C4582 0.930 . S
H4574 C4584 0.930 1_565 S
H4575 C4587 0.929 . S
H4576 C4590 0.930 . S
H4577 C4592 0.960 . S
H4578 C4592 0.960 . S
H4579 C4592 0.960 . S
C4580 H4572 0.929 . S
C4580 C4581 1.377 . S
C4580 C4582 1.384 . S
C4581 C4580 1.377 . S
C4581 C4587 1.390 . S
C4582 H4573 0.930 . S
C4582 C4580 1.384 . S
C4582 C4583 1.372 . S
C4583 C4582 1.372 . S
C4583 C4584 1.400 . S
C4583 C4588 1.490 . S
C4584 H4574 0.930 1_545 S
C4584 C4583 1.400 . S
C4584 C4587 1.386 . S
H4585 C4601 0.930 . S
H4586 C4602 0.931 . S
C4587 H4575 0.929 . S
C4587 C4581 1.390 . S
C4587 C4584 1.386 . S
C4588 C4583 1.490 . S
C4588 C4590 1.395 . S
C4588 C4591 1.403 1_545 S
H4589 C4595 0.930 . S
C4590 H4576 0.930 . S
C4590 C4588 1.395 . S
C4590 C4593 1.403 . S
C4591 C4588 1.403 1_565 S
C4591 C4592 1.524 . S
C4591 C4595 1.400 . S
C4592 H4577 0.960 . S
C4592 H4578 0.960 . S
C4592 H4579 0.960 . S
C4592 C4591 1.524 . S
C4593 C4590 1.403 . S
C4593 C4594 1.392 . S
C4593 C4597 1.495 . S
C4594 C4593 1.392 . S
C4594 C4595 1.385 1_545 S
C4594 C4596 1.477 1_545 S
C4595 H4589 0.930 . S
C4595 C4591 1.400 . S
C4595 C4594 1.385 1_565 S
C4596 C4594 1.477 1_565 S
C4596 C4598 1.385 1_565 S
C4596 C4602 1.381 . S
C4597 C4593 1.495 . S
C4597 H4603 0.959 . S
C4597 H4604 0.961 . S
C4597 H4605 0.960 . S
C4598 C4596 1.385 1_545 S
C4598 C4599 1.394 1_545 S
C4598 H4606 0.930 . S
C4599 C4598 1.394 1_565 S
C4599 C4600 1.383 . S
C4599 H4607 0.929 . S
C4600 C4599 1.383 . S
C4600 C4601 1.377 . S
C4601 H4585 0.930 . S
C4601 C4600 1.377 . S
C4601 C4602 1.379 . S
C4602 H4586 0.931 . S
C4602 C4596 1.381 . S
C4602 C4601 1.379 . S
H4603 C4597 0.959 . S
H4604 C4597 0.961 . S
H4605 C4597 0.960 . S
H4606 C4598 0.930 . S
H4607 C4599 0.929 . S
H4608 C4616 0.929 . S
H4609 C4618 0.930 . S
H4610 C4620 0.930 . S
H4611 C4623 0.929 . S
H4612 C4626 0.930 . S
H4613 C4628 0.960 . S
H4614 C4628 0.949 1_655 S
H4615 C4628 0.960 . S
C4616 H4608 0.929 . S
C4616 C4617 1.377 1_655 S
C4616 C4618 1.384 . S
C4617 C4616 1.377 1_455 S
C4617 C4623 1.390 . S
C4618 H4609 0.930 . S
C4618 C4616 1.384 . S
C4618 C4619 1.372 1_655 S
C4619 C4618 1.372 1_455 S
C4619 C4620 1.400 . S
C4619 C4624 1.488 1_455 S
C4620 H4610 0.930 . S
C4620 C4619 1.400 . S
C4620 C4623 1.386 . S
H4621 C4637 0.930 . S
H4622 C4638 0.931 . S
C4623 H4611 0.929 . S
C4623 C4617 1.390 . S
C4623 C4620 1.386 . S
C4624 C4619 1.488 1_655 S
C4624 C4626 1.405 . S
C4624 C4627 1.395 1_655 S
H4625 C4631 0.935 . S
C4626 H4612 0.930 . S
C4626 C4624 1.405 . S
C4626 C4629 1.403 . S
C4627 C4624 1.395 1_455 S
C4627 C4628 1.524 . S
C4627 C4631 1.401 . S
C4628 H4613 0.960 . S
C4628 H4614 0.949 1_455 S
C4628 H4615 0.960 . S
C4628 C4627 1.524 . S
C4629 C4626 1.403 . S
C4629 C4630 1.392 . S
C4629 C4633 1.495 . S
C4630 C4629 1.392 . S
C4630 C4631 1.379 1_655 S
C4630 C4632 1.478 . S
C4631 H4625 0.935 . S
C4631 C4627 1.401 . S
C4631 C4630 1.379 1_455 S
C4632 C4630 1.478 . S
C4632 C4634 1.381 . S
C4632 C4638 1.383 1_655 S
C4633 C4629 1.495 . S
C4633 H4639 0.959 . S
C4633 H4640 0.961 . S
C4633 H4641 0.960 . S
C4634 C4632 1.381 . S
C4634 C4635 1.394 . S
C4634 H4642 0.930 . S
C4635 C4634 1.394 . S
C4635 C4636 1.383 . S
C4635 H4643 0.929 . S
C4636 C4635 1.383 . S
C4636 C4637 1.377 1_655 S
C4637 H4621 0.930 . S
C4637 C4636 1.377 1_455 S
C4637 C4638 1.379 . S
C4638 H4622 0.931 . S
C4638 C4632 1.383 1_455 S
C4638 C4637 1.379 . S
H4639 C4633 0.959 . S
H4640 C4633 0.961 . S
H4641 C4633 0.960 . S
H4642 C4634 0.930 . S
H4643 C4635 0.929 . S
H4644 C4652 0.929 . S
H4645 C4654 0.930 . S
H4646 C4656 0.930 . S
H4647 C4659 0.929 . S
H4648 C4662 0.930 . S
H4649 C4664 0.960 . S
H4650 C4664 0.960 . S
H4651 C4664 0.960 . S
C4652 H4644 0.929 . S
C4652 C4653 1.377 . S
C4652 C4654 1.384 . S
C4653 C4652 1.377 . S
C4653 C4659 1.390 . S
C4654 H4645 0.930 . S
C4654 C4652 1.384 . S
C4654 C4655 1.372 . S
C4655 C4654 1.372 . S
C4655 C4656 1.400 . S
C4655 C4660 1.490 . S
C4656 H4646 0.930 . S
C4656 C4655 1.400 . S
C4656 C4659 1.386 . S
H4657 C4673 0.930 . S
H4658 C4674 0.931 . S
C4659 H4647 0.929 . S
C4659 C4653 1.390 . S
C4659 C4656 1.386 . S
C4660 C4655 1.490 . S
C4660 C4662 1.395 . S
C4660 C4663 1.403 . S
H4661 C4667 0.930 . S
C4662 H4648 0.930 . S
C4662 C4660 1.395 . S
C4662 C4665 1.403 . S
C4663 C4660 1.403 . S
C4663 C4664 1.524 . S
C4663 C4667 1.400 . S
C4664 H4649 0.960 . S
C4664 H4650 0.960 . S
C4664 H4651 0.960 . S
C4664 C4663 1.524 . S
C4665 C4662 1.403 . S
C4665 C4666 1.392 . S
C4665 C4669 1.495 . S
C4666 C4665 1.392 . S
C4666 C4667 1.385 . S
C4666 C4668 1.478 . S
C4667 H4661 0.930 . S
C4667 C4663 1.400 . S
C4667 C4666 1.385 . S
C4668 C4666 1.478 . S
C4668 C4670 1.381 . S
C4668 C4674 1.383 . S
C4669 C4665 1.495 . S
C4669 H4675 0.959 . S
C4669 H4676 0.961 . S
C4669 H4677 0.960 . S
C4670 C4668 1.381 . S
C4670 C4671 1.394 . S
C4670 H4678 0.930 . S
C4671 C4670 1.394 . S
C4671 C4672 1.383 . S
C4671 H4679 0.929 . S
C4672 C4671 1.383 . S
C4672 C4673 1.377 . S
C4673 H4657 0.930 . S
C4673 C4672 1.377 . S
C4673 C4674 1.379 . S
C4674 H4658 0.931 . S
C4674 C4668 1.383 . S
C4674 C4673 1.379 . S
H4675 C4669 0.959 . S
H4676 C4669 0.961 . S
H4677 C4669 0.960 . S
H4678 C4670 0.930 . S
H4679 C4671 0.929 . S
H4680 C4688 0.929 . S
H4681 C4690 0.930 . S
H4682 C4692 0.930 . S
H4683 C4695 0.929 . S
H4684 C4698 0.930 . S
H4685 C4700 0.960 . S
H4686 C4700 0.960 . S
H4687 C4700 0.960 . S
C4688 H4680 0.929 . S
C4688 C4689 1.377 . S
C4688 C4690 1.384 . S
C4689 C4688 1.377 . S
C4689 C4695 1.390 . S
C4690 H4681 0.930 . S
C4690 C4688 1.384 . S
C4690 C4691 1.372 . S
C4691 C4690 1.372 . S
C4691 C4692 1.400 . S
C4691 C4696 1.490 . S
C4692 H4682 0.930 . S
C4692 C4691 1.400 . S
C4692 C4695 1.386 . S
H4693 C4709 0.930 . S
H4694 C4710 0.931 . S
C4695 H4683 0.929 . S
C4695 C4689 1.390 . S
C4695 C4692 1.386 . S
C4696 C4691 1.490 . S
C4696 C4698 1.395 . S
C4696 C4699 1.403 1_655 S
H4697 C4703 0.930 . S
C4698 H4684 0.930 . S
C4698 C4696 1.395 . S
C4698 C4701 1.403 . S
C4699 C4696 1.403 1_455 S
C4699 C4700 1.524 . S
C4699 C4703 1.400 . S
C4700 H4685 0.960 . S
C4700 H4686 0.960 . S
C4700 H4687 0.960 . S
C4700 C4699 1.524 . S
C4701 C4698 1.403 . S
C4701 C4702 1.392 1_655 S
C4701 C4705 1.495 . S
C4702 C4701 1.392 1_455 S
C4702 C4703 1.385 . S
C4702 C4704 1.478 . S
C4703 H4697 0.930 . S
C4703 C4699 1.400 . S
C4703 C4702 1.385 . S
C4704 C4702 1.478 . S
C4704 C4706 1.381 . S
C4704 C4710 1.383 . S
C4705 C4701 1.495 . S
C4705 H4711 0.959 . S
C4705 H4712 0.961 . S
C4705 H4713 0.960 . S
C4706 C4704 1.381 . S
C4706 C4707 1.394 . S
C4706 H4714 0.930 . S
C4707 C4706 1.394 . S
C4707 C4708 1.383 . S
C4707 H4715 0.929 . S
C4708 C4707 1.383 . S
C4708 C4709 1.377 . S
C4709 H4693 0.930 . S
C4709 C4708 1.377 . S
C4709 C4710 1.379 . S
C4710 H4694 0.931 . S
C4710 C4704 1.383 . S
C4710 C4709 1.379 . S
H4711 C4705 0.959 . S
H4712 C4705 0.961 . S
H4713 C4705 0.960 . S
H4714 C4706 0.930 . S
H4715 C4707 0.929 . S
H4716 C4724 0.929 . S
H4717 C4726 0.930 . S
H4718 C4728 0.930 . S
H4719 C4731 0.929 . S
H4720 C4734 0.930 . S
H4721 C4736 0.960 . S
H4722 C4736 0.960 . S
H4723 C4736 0.960 . S
C4724 H4716 0.929 . S
C4724 C4725 1.377 . S
C4724 C4726 1.384 . S
C4725 C4724 1.377 . S
C4725 C4731 1.390 . S
C4726 H4717 0.930 . S
C4726 C4724 1.384 . S
C4726 C4727 1.372 . S
C4727 C4726 1.372 . S
C4727 C4728 1.400 . S
C4727 C4732 1.490 . S
C4728 H4718 0.930 . S
C4728 C4727 1.400 . S
C4728 C4731 1.386 . S
H4729 C4745 0.930 . S
H4730 C4746 0.931 . S
C4731 H4719 0.929 . S
C4731 C4725 1.390 . S
C4731 C4728 1.386 . S
C4732 C4727 1.490 . S
C4732 C4734 1.395 . S
C4732 C4735 1.403 . S
H4733 C4739 0.930 . S
C4734 H4720 0.930 . S
C4734 C4732 1.395 . S
C4734 C4737 1.403 . S
C4735 C4732 1.403 . S
C4735 C4736 1.524 . S
C4735 C4739 1.400 . S
C4736 H4721 0.960 . S
C4736 H4722 0.960 . S
C4736 H4723 0.960 . S
C4736 C4735 1.524 . S
C4737 C4734 1.403 . S
C4737 C4738 1.392 . S
C4737 C4741 1.495 . S
C4738 C4737 1.392 . S
C4738 C4739 1.385 . S
C4738 C4740 1.478 . S
C4739 H4733 0.930 . S
C4739 C4735 1.400 . S
C4739 C4738 1.385 . S
C4740 C4738 1.478 . S
C4740 C4742 1.381 . S
C4740 C4746 1.383 . S
C4741 C4737 1.495 . S
C4741 H4747 0.959 . S
C4741 H4748 0.961 . S
C4741 H4749 0.960 . S
C4742 C4740 1.381 . S
C4742 C4743 1.394 . S
C4742 H4750 0.930 . S
C4743 C4742 1.394 . S
C4743 C4744 1.383 . S
C4743 H4751 0.929 . S
C4744 C4743 1.383 . S
C4744 C4745 1.377 . S
C4745 H4729 0.930 . S
C4745 C4744 1.377 . S
C4745 C4746 1.379 . S
C4746 H4730 0.931 . S
C4746 C4740 1.383 . S
C4746 C4745 1.379 . S
H4747 C4741 0.959 . S
H4748 C4741 0.961 . S
H4749 C4741 0.960 . S
H4750 C4742 0.930 . S
H4751 C4743 0.929 . S
H4752 C4760 0.929 . S
H4753 C4762 0.930 . S
H4754 C4764 0.930 . S
H4755 C4767 0.929 . S
H4756 C4770 0.930 . S
H4757 C4772 0.960 . S
H4758 C4772 0.960 . S
H4759 C4772 0.960 . S
C4760 H4752 0.929 . S
C4760 C4761 1.377 . S
C4760 C4762 1.384 . S
C4761 C4760 1.377 . S
C4761 C4767 1.390 . S
C4762 H4753 0.930 . S
C4762 C4760 1.384 . S
C4762 C4763 1.372 . S
C4763 C4762 1.372 . S
C4763 C4764 1.400 . S
C4763 C4768 1.490 . S
C4764 H4754 0.930 . S
C4764 C4763 1.400 . S
C4764 C4767 1.386 . S
H4765 C4781 0.930 . S
H4766 C4782 0.931 . S
C4767 H4755 0.929 . S
C4767 C4761 1.390 . S
C4767 C4764 1.386 . S
C4768 C4763 1.490 . S
C4768 C4770 1.395 . S
C4768 C4771 1.403 1_545 S
H4769 C4775 0.930 . S
C4770 H4756 0.930 . S
C4770 C4768 1.395 . S
C4770 C4773 1.403 . S
C4771 C4768 1.403 1_565 S
C4771 C4772 1.524 . S
C4771 C4775 1.400 . S
C4772 H4757 0.960 . S
C4772 H4758 0.960 . S
C4772 H4759 0.960 . S
C4772 C4771 1.524 . S
C4773 C4770 1.403 . S
C4773 C4774 1.392 1_545 S
C4773 C4777 1.495 . S
C4774 C4773 1.392 1_565 S
C4774 C4775 1.385 . S
C4774 C4776 1.478 . S
C4775 H4769 0.930 . S
C4775 C4771 1.400 . S
C4775 C4774 1.385 . S
C4776 C4774 1.478 . S
C4776 C4778 1.381 . S
C4776 C4782 1.383 . S
C4777 C4773 1.495 . S
C4777 H4783 0.959 . S
C4777 H4784 0.961 . S
C4777 H4785 0.960 . S
C4778 C4776 1.381 . S
C4778 C4779 1.394 . S
C4778 H4786 0.930 . S
C4779 C4778 1.394 . S
C4779 C4780 1.383 . S
C4779 H4787 0.929 . S
C4780 C4779 1.383 . S
C4780 C4781 1.377 . S
C4781 H4765 0.930 . S
C4781 C4780 1.377 . S
C4781 C4782 1.379 . S
C4782 H4766 0.931 . S
C4782 C4776 1.383 . S
C4782 C4781 1.379 . S
H4783 C4777 0.959 . S
H4784 C4777 0.961 . S
H4785 C4777 0.960 . S
H4786 C4778 0.930 . S
H4787 C4779 0.929 . S
H4788 C4796 0.929 . S
H4789 C4798 0.930 . S
H4790 C4800 0.930 . S
H4791 C4803 0.929 . S
H4792 C4806 0.930 . S
H4793 C4808 0.960 . S
H4794 C4808 0.960 . S
H4795 C4808 0.960 . S
C4796 H4788 0.929 . S
C4796 C4797 1.377 . S
C4796 C4798 1.384 . S
C4797 C4796 1.377 . S
C4797 C4803 1.390 . S
C4798 H4789 0.930 . S
C4798 C4796 1.384 . S
C4798 C4799 1.372 . S
C4799 C4798 1.372 . S
C4799 C4800 1.400 . S
C4799 C4804 1.490 . S
C4800 H4790 0.930 . S
C4800 C4799 1.400 . S
C4800 C4803 1.386 . S
H4801 C4817 0.930 . S
H4802 C4818 0.931 . S
C4803 H4791 0.929 . S
C4803 C4797 1.390 . S
C4803 C4800 1.386 . S
C4804 C4799 1.490 . S
C4804 C4806 1.395 . S
C4804 C4807 1.403 1_655 S
H4805 C4811 0.930 . S
C4806 H4792 0.930 . S
C4806 C4804 1.395 . S
C4806 C4809 1.403 . S
C4807 C4804 1.403 1_455 S
C4807 C4808 1.524 . S
C4807 C4811 1.400 . S
C4808 H4793 0.960 . S
C4808 H4794 0.960 . S
C4808 H4795 0.960 . S
C4808 C4807 1.524 . S
C4809 C4806 1.403 . S
C4809 C4810 1.392 1_655 S
C4809 C4813 1.495 . S
C4810 C4809 1.392 1_455 S
C4810 C4811 1.385 . S
C4810 C4812 1.478 . S
C4811 H4805 0.930 . S
C4811 C4807 1.400 . S
C4811 C4810 1.385 . S
C4812 C4810 1.478 . S
C4812 C4814 1.381 . S
C4812 C4818 1.383 . S
C4813 C4809 1.495 . S
C4813 H4819 0.959 . S
C4813 H4820 0.961 . S
C4813 H4821 0.960 . S
C4814 C4812 1.381 . S
C4814 C4815 1.394 . S
C4814 H4822 0.930 . S
C4815 C4814 1.394 . S
C4815 C4816 1.383 . S
C4815 H4823 0.929 . S
C4816 C4815 1.383 . S
C4816 C4817 1.377 . S
C4817 H4801 0.930 . S
C4817 C4816 1.377 . S
C4817 C4818 1.379 . S
C4818 H4802 0.931 . S
C4818 C4812 1.383 . S
C4818 C4817 1.379 . S
H4819 C4813 0.959 . S
H4820 C4813 0.961 . S
H4821 C4813 0.960 . S
H4822 C4814 0.930 . S
H4823 C4815 0.929 . S
H4824 C4832 0.929 . S
H4825 C4834 0.930 . S
H4826 C4836 0.930 . S
H4827 C4839 0.929 . S
H4828 C4842 0.930 . S
H4829 C4844 0.960 . S
H4830 C4844 0.960 . S
H4831 C4844 0.960 . S
C4832 H4824 0.929 . S
C4832 C4833 1.377 . S
C4832 C4834 1.384 . S
C4833 C4832 1.377 . S
C4833 C4839 1.390 . S
C4834 H4825 0.930 . S
C4834 C4832 1.384 . S
C4834 C4835 1.372 . S
C4835 C4834 1.372 . S
C4835 C4836 1.400 . S
C4835 C4840 1.490 . S
C4836 H4826 0.930 . S
C4836 C4835 1.400 . S
C4836 C4839 1.386 . S
H4837 C4853 0.930 . S
H4838 C4854 0.931 . S
C4839 H4827 0.929 . S
C4839 C4833 1.390 . S
C4839 C4836 1.386 . S
C4840 C4835 1.490 . S
C4840 C4842 1.395 . S
C4840 C4843 1.403 . S
H4841 C4847 0.930 . S
C4842 H4828 0.930 . S
C4842 C4840 1.395 . S
C4842 C4845 1.403 . S
C4843 C4840 1.403 . S
C4843 C4844 1.524 . S
C4843 C4847 1.400 . S
C4844 H4829 0.960 . S
C4844 H4830 0.960 . S
C4844 H4831 0.960 . S
C4844 C4843 1.524 . S
C4845 C4842 1.403 . S
C4845 C4846 1.392 . S
C4845 C4849 1.495 . S
C4846 C4845 1.392 . S
C4846 C4847 1.385 . S
C4846 C4848 1.478 . S
C4847 H4841 0.930 . S
C4847 C4843 1.400 . S
C4847 C4846 1.385 . S
C4848 C4846 1.478 . S
C4848 C4850 1.381 . S
C4848 C4854 1.383 . S
C4849 C4845 1.495 . S
C4849 H4855 0.959 . S
C4849 H4856 0.961 . S
C4849 H4857 0.960 . S
C4850 C4848 1.381 . S
C4850 C4851 1.394 . S
C4850 H4858 0.930 . S
C4851 C4850 1.394 . S
C4851 C4852 1.383 . S
C4851 H4859 0.929 . S
C4852 C4851 1.383 . S
C4852 C4853 1.377 . S
C4853 H4837 0.930 . S
C4853 C4852 1.377 . S
C4853 C4854 1.379 . S
C4854 H4838 0.931 . S
C4854 C4848 1.383 . S
C4854 C4853 1.379 . S
H4855 C4849 0.959 . S
H4856 C4849 0.961 . S
H4857 C4849 0.960 . S
H4858 C4850 0.930 . S
H4859 C4851 0.929 . S
H4860 C4868 0.929 . S
H4861 C4870 0.930 . S
H4862 C4872 0.930 . S
H4863 C4875 0.929 . S
H4864 C4878 0.930 . S
H4865 C4880 0.960 . S
H4866 C4880 0.960 . S
H4867 C4880 0.960 . S
C4868 H4860 0.929 . S
C4868 C4869 1.377 . S
C4868 C4870 1.384 . S
C4869 C4868 1.377 . S
C4869 C4875 1.390 . S
C4870 H4861 0.930 . S
C4870 C4868 1.384 . S
C4870 C4871 1.372 . S
C4871 C4870 1.372 . S
C4871 C4872 1.400 . S
C4871 C4876 1.490 . S
C4872 H4862 0.930 . S
C4872 C4871 1.400 . S
C4872 C4875 1.386 . S
H4873 C4889 0.930 . S
H4874 C4890 0.931 . S
C4875 H4863 0.929 . S
C4875 C4869 1.390 . S
C4875 C4872 1.386 . S
C4876 C4871 1.490 . S
C4876 C4878 1.395 . S
C4876 C4879 1.403 1_545 S
H4877 C4883 0.930 . S
C4878 H4864 0.930 . S
C4878 C4876 1.395 . S
C4878 C4881 1.403 . S
C4879 C4876 1.403 1_565 S
C4879 C4880 1.524 . S
C4879 C4883 1.400 . S
C4880 H4865 0.960 . S
C4880 H4866 0.960 . S
C4880 H4867 0.960 . S
C4880 C4879 1.524 . S
C4881 C4878 1.403 . S
C4881 C4882 1.392 1_545 S
C4881 C4885 1.495 . S
C4882 C4881 1.392 1_565 S
C4882 C4883 1.385 . S
C4882 C4884 1.478 . S
C4883 H4877 0.930 . S
C4883 C4879 1.400 . S
C4883 C4882 1.385 . S
C4884 C4882 1.478 . S
C4884 C4886 1.381 . S
C4884 C4890 1.383 . S
C4885 C4881 1.495 . S
C4885 H4891 0.959 . S
C4885 H4892 0.961 . S
C4885 H4893 0.960 . S
C4886 C4884 1.381 . S
C4886 C4887 1.394 . S
C4886 H4894 0.930 . S
C4887 C4886 1.394 . S
C4887 C4888 1.383 . S
C4887 H4895 0.929 . S
C4888 C4887 1.383 . S
C4888 C4889 1.377 . S
C4889 H4873 0.930 . S
C4889 C4888 1.377 . S
C4889 C4890 1.379 . S
C4890 H4874 0.931 . S
C4890 C4884 1.383 . S
C4890 C4889 1.379 . S
H4891 C4885 0.959 . S
H4892 C4885 0.961 . S
H4893 C4885 0.960 . S
H4894 C4886 0.930 . S
H4895 C4887 0.929 . S
H4896 C4904 0.929 . S
H4897 C4906 0.930 . S
H4898 C4908 0.930 . S
H4899 C4911 0.929 . S
H4900 C4914 0.930 . S
H4901 C4916 0.960 . S
H4902 C4916 0.960 . S
H4903 C4916 0.960 . S
C4904 H4896 0.929 . S
C4904 C4905 1.377 . S
C4904 C4906 1.384 . S
C4905 C4904 1.377 . S
C4905 C4911 1.390 . S
C4906 H4897 0.930 . S
C4906 C4904 1.384 . S
C4906 C4907 1.372 . S
C4907 C4906 1.372 . S
C4907 C4908 1.400 . S
C4907 C4912 1.490 . S
C4908 H4898 0.930 . S
C4908 C4907 1.400 . S
C4908 C4911 1.386 . S
H4909 C4925 0.930 . S
H4910 C4926 0.931 . S
C4911 H4899 0.929 . S
C4911 C4905 1.390 . S
C4911 C4908 1.386 . S
C4912 C4907 1.490 . S
C4912 C4914 1.395 . S
C4912 C4915 1.403 . S
H4913 C4919 0.930 . S
C4914 H4900 0.930 . S
C4914 C4912 1.395 . S
C4914 C4917 1.403 . S
C4915 C4912 1.403 . S
C4915 C4916 1.524 . S
C4915 C4919 1.400 . S
C4916 H4901 0.960 . S
C4916 H4902 0.960 . S
C4916 H4903 0.960 . S
C4916 C4915 1.524 . S
C4917 C4914 1.403 . S
C4917 C4918 1.392 . S
C4917 C4921 1.495 . S
C4918 C4917 1.392 . S
C4918 C4919 1.385 . S
C4918 C4920 1.478 . S
C4919 H4913 0.930 . S
C4919 C4915 1.400 . S
C4919 C4918 1.385 . S
C4920 C4918 1.478 . S
C4920 C4922 1.381 . S
C4920 C4926 1.383 . S
C4921 C4917 1.495 . S
C4921 H4927 0.959 . S
C4921 H4928 0.961 . S
C4921 H4929 0.960 . S
C4922 C4920 1.381 . S
C4922 C4923 1.394 . S
C4922 H4930 0.930 . S
C4923 C4922 1.394 . S
C4923 C4924 1.383 . S
C4923 H4931 0.929 . S
C4924 C4923 1.383 . S
C4924 C4925 1.377 . S
C4925 H4909 0.930 . S
C4925 C4924 1.377 . S
C4925 C4926 1.379 . S
C4926 H4910 0.931 . S
C4926 C4920 1.383 . S
C4926 C4925 1.379 . S
H4927 C4921 0.959 . S
H4928 C4921 0.961 . S
H4929 C4921 0.960 . S
H4930 C4922 0.930 . S
H4931 C4923 0.929 . S
H4932 C4940 0.929 . S
H4933 C4942 0.930 . S
H4934 C4944 0.930 . S
H4935 C4947 0.929 . S
H4936 C4950 0.930 . S
H4937 C4952 0.960 . S
H4938 C4952 0.960 . S
H4939 C4952 0.960 . S
C4940 H4932 0.929 . S
C4940 C4941 1.377 . S
C4940 C4942 1.384 . S
C4941 C4940 1.377 . S
C4941 C4947 1.390 . S
C4942 H4933 0.930 . S
C4942 C4940 1.384 . S
C4942 C4943 1.372 . S
C4943 C4942 1.372 . S
C4943 C4944 1.400 . S
C4943 C4948 1.490 . S
C4944 H4934 0.930 . S
C4944 C4943 1.400 . S
C4944 C4947 1.386 . S
H4945 C4961 0.930 . S
H4946 C4962 0.931 . S
C4947 H4935 0.929 . S
C4947 C4941 1.390 . S
C4947 C4944 1.386 . S
C4948 C4943 1.490 . S
C4948 C4950 1.395 . S
C4948 C4951 1.403 . S
H4949 C4955 0.930 . S
C4950 H4936 0.930 . S
C4950 C4948 1.395 . S
C4950 C4953 1.403 . S
C4951 C4948 1.403 . S
C4951 C4952 1.524 . S
C4951 C4955 1.400 . S
C4952 H4937 0.960 . S
C4952 H4938 0.960 . S
C4952 H4939 0.960 . S
C4952 C4951 1.524 . S
C4953 C4950 1.403 . S
C4953 C4954 1.392 . S
C4953 C4957 1.495 . S
C4954 C4953 1.392 . S
C4954 C4955 1.385 . S
C4954 C4956 1.478 . S
C4955 H4949 0.930 . S
C4955 C4951 1.400 . S
C4955 C4954 1.385 . S
C4956 C4954 1.478 . S
C4956 C4958 1.381 . S
C4956 C4962 1.383 . S
C4957 C4953 1.495 . S
C4957 H4963 0.959 . S
C4957 H4964 0.961 . S
C4957 H4965 0.960 . S
C4958 C4956 1.381 . S
C4958 C4959 1.394 . S
C4958 H4966 0.930 . S
C4959 C4958 1.394 . S
C4959 C4960 1.383 . S
C4959 H4967 0.929 . S
C4960 C4959 1.383 . S
C4960 C4961 1.377 . S
C4961 H4945 0.930 . S
C4961 C4960 1.377 . S
C4961 C4962 1.379 . S
C4962 H4946 0.931 . S
C4962 C4956 1.383 . S
C4962 C4961 1.379 . S
H4963 C4957 0.959 . S
H4964 C4957 0.961 . S
H4965 C4957 0.960 . S
H4966 C4958 0.930 . S
H4967 C4959 0.929 . S
H4968 C4976 0.929 . S
H4969 C4978 0.930 . S
H4970 C4980 0.930 . S
H4971 C4983 0.929 . S
H4972 C4986 0.930 . S
H4973 C4988 0.960 . S
H4974 C4988 0.960 . S
H4975 C4988 0.960 . S
C4976 H4968 0.929 . S
C4976 C4977 1.377 . S
C4976 C4978 1.384 . S
C4977 C4976 1.377 . S
C4977 C4983 1.390 . S
C4978 H4969 0.930 . S
C4978 C4976 1.384 . S
C4978 C4979 1.372 . S
C4979 C4978 1.372 . S
C4979 C4980 1.400 . S
C4979 C4984 1.490 . S
C4980 H4970 0.930 . S
C4980 C4979 1.400 . S
C4980 C4983 1.386 . S
H4981 C4997 0.930 . S
H4982 C4998 0.931 . S
C4983 H4971 0.929 . S
C4983 C4977 1.390 . S
C4983 C4980 1.386 . S
C4984 C4979 1.490 . S
C4984 C4986 1.395 . S
C4984 C4987 1.403 . S
H4985 C4991 0.930 . S
C4986 H4972 0.930 . S
C4986 C4984 1.395 . S
C4986 C4989 1.403 . S
C4987 C4984 1.403 . S
C4987 C4988 1.524 . S
C4987 C4991 1.400 . S
C4988 H4973 0.960 . S
C4988 H4974 0.960 . S
C4988 H4975 0.960 . S
C4988 C4987 1.524 . S
C4989 C4986 1.403 . S
C4989 C4990 1.392 . S
C4989 C4993 1.495 . S
C4990 C4989 1.392 . S
C4990 C4991 1.385 . S
C4990 C4992 1.478 . S
C4991 H4985 0.930 . S
C4991 C4987 1.400 . S
C4991 C4990 1.385 . S
C4992 C4990 1.478 . S
C4992 C4994 1.381 . S
C4992 C4998 1.383 . S
C4993 C4989 1.495 . S
C4993 H4999 0.959 . S
C4993 H5000 0.961 . S
C4993 H5001 0.960 . S
C4994 C4992 1.381 . S
C4994 C4995 1.394 . S
C4994 H5002 0.930 . S
C4995 C4994 1.394 . S
C4995 C4996 1.383 . S
C4995 H5003 0.929 . S
C4996 C4995 1.383 . S
C4996 C4997 1.377 . S
C4997 H4981 0.930 . S
C4997 C4996 1.377 . S
C4997 C4998 1.379 . S
C4998 H4982 0.931 . S
C4998 C4992 1.383 . S
C4998 C4997 1.379 . S
H4999 C4993 0.959 . S
H5000 C4993 0.961 . S
H5001 C4993 0.960 . S
H5002 C4994 0.930 . S
H5003 C4995 0.929 . S
H5004 C5012 0.929 . S
H5005 C5014 0.930 . S
H5006 C5016 0.930 . S
H5007 C5019 0.929 . S
H5008 C5022 0.930 . S
H5009 C5024 0.960 . S
H5010 C5024 0.960 . S
H5011 C5024 0.960 . S
C5012 H5004 0.929 . S
C5012 C5013 1.377 . S
C5012 C5014 1.384 . S
C5013 C5012 1.377 . S
C5013 C5019 1.390 . S
C5014 H5005 0.930 . S
C5014 C5012 1.384 . S
C5014 C5015 1.372 . S
C5015 C5014 1.372 . S
C5015 C5016 1.400 . S
C5015 C5020 1.490 . S
C5016 H5006 0.930 . S
C5016 C5015 1.400 . S
C5016 C5019 1.386 . S
H5017 C5033 0.930 . S
H5018 C5034 0.931 . S
C5019 H5007 0.929 . S
C5019 C5013 1.390 . S
C5019 C5016 1.386 . S
C5020 C5015 1.490 . S
C5020 C5022 1.395 . S
C5020 C5023 1.403 . S
H5021 C5027 0.930 . S
C5022 H5008 0.930 . S
C5022 C5020 1.395 . S
C5022 C5025 1.403 . S
C5023 C5020 1.403 . S
C5023 C5024 1.524 . S
C5023 C5027 1.400 . S
C5024 H5009 0.960 . S
C5024 H5010 0.960 . S
C5024 H5011 0.960 . S
C5024 C5023 1.524 . S
C5025 C5022 1.403 . S
C5025 C5026 1.392 . S
C5025 C5029 1.495 . S
C5026 C5025 1.392 . S
C5026 C5027 1.385 . S
C5026 C5028 1.478 . S
C5027 H5021 0.930 . S
C5027 C5023 1.400 . S
C5027 C5026 1.385 . S
C5028 C5026 1.478 . S
C5028 C5030 1.381 . S
C5028 C5034 1.383 . S
C5029 C5025 1.495 . S
C5029 H5035 0.959 . S
C5029 H5036 0.961 . S
C5029 H5037 0.960 . S
C5030 C5028 1.381 . S
C5030 C5031 1.394 . S
C5030 H5038 0.930 . S
C5031 C5030 1.394 . S
C5031 C5032 1.383 . S
C5031 H5039 0.929 . S
C5032 C5031 1.383 . S
C5032 C5033 1.377 . S
C5033 H5017 0.930 . S
C5033 C5032 1.377 . S
C5033 C5034 1.379 . S
C5034 H5018 0.931 . S
C5034 C5028 1.383 . S
C5034 C5033 1.379 . S
H5035 C5029 0.959 . S
H5036 C5029 0.961 . S
H5037 C5029 0.960 . S
H5038 C5030 0.930 . S
H5039 C5031 0.929 . S
H5040 C5048 0.929 . S
H5041 C5050 0.930 . S
H5042 C5052 0.930 . S
H5043 C5055 0.929 . S
H5044 C5058 0.930 . S
H5045 C5060 0.960 . S
H5046 C5060 0.960 . S
H5047 C5060 0.960 . S
C5048 H5040 0.929 . S
C5048 C5049 1.377 . S
C5048 C5050 1.384 . S
C5049 C5048 1.377 . S
C5049 C5055 1.390 . S
C5050 H5041 0.930 . S
C5050 C5048 1.384 . S
C5050 C5051 1.372 . S
C5051 C5050 1.372 . S
C5051 C5052 1.400 . S
C5051 C5056 1.490 . S
C5052 H5042 0.930 . S
C5052 C5051 1.400 . S
C5052 C5055 1.386 . S
H5053 C5069 0.930 . S
H5054 C5070 0.931 . S
C5055 H5043 0.929 . S
C5055 C5049 1.390 . S
C5055 C5052 1.386 . S
C5056 C5051 1.490 . S
C5056 C5058 1.395 . S
C5056 C5059 1.403 . S
H5057 C5063 0.930 . S
C5058 H5044 0.930 . S
C5058 C5056 1.395 . S
C5058 C5061 1.403 . S
C5059 C5056 1.403 . S
C5059 C5060 1.524 . S
C5059 C5063 1.400 . S
C5060 H5045 0.960 . S
C5060 H5046 0.960 . S
C5060 H5047 0.960 . S
C5060 C5059 1.524 . S
C5061 C5058 1.403 . S
C5061 C5062 1.392 . S
C5061 C5065 1.495 . S
C5062 C5061 1.392 . S
C5062 C5063 1.385 . S
C5062 C5064 1.478 . S
C5063 H5057 0.930 . S
C5063 C5059 1.400 . S
C5063 C5062 1.385 . S
C5064 C5062 1.478 . S
C5064 C5066 1.381 . S
C5064 C5070 1.383 . S
C5065 C5061 1.495 . S
C5065 H5071 0.959 . S
C5065 H5072 0.961 . S
C5065 H5073 0.960 . S
C5066 C5064 1.381 . S
C5066 C5067 1.394 . S
C5066 H5074 0.930 . S
C5067 C5066 1.394 . S
C5067 C5068 1.383 . S
C5067 H5075 0.929 . S
C5068 C5067 1.383 . S
C5068 C5069 1.377 . S
C5069 H5053 0.930 . S
C5069 C5068 1.377 . S
C5069 C5070 1.379 . S
C5070 H5054 0.931 . S
C5070 C5064 1.383 . S
C5070 C5069 1.379 . S
H5071 C5065 0.959 . S
H5072 C5065 0.961 . S
H5073 C5065 0.960 . S
H5074 C5066 0.930 . S
H5075 C5067 0.929 . S
H5076 C5084 0.929 . S
H5077 C5086 0.930 . S
H5078 C5088 0.930 . S
H5079 C5091 0.929 . S
H5080 C5094 0.930 . S
H5081 C5096 0.960 . S
H5082 C5096 0.960 . S
H5083 C5096 0.960 . S
C5084 H5076 0.929 . S
C5084 C5085 1.377 . S
C5084 C5086 1.384 . S
C5085 C5084 1.377 . S
C5085 C5091 1.390 . S
C5086 H5077 0.930 . S
C5086 C5084 1.384 . S
C5086 C5087 1.372 . S
C5087 C5086 1.372 . S
C5087 C5088 1.400 . S
C5087 C5092 1.490 . S
C5088 H5078 0.930 . S
C5088 C5087 1.400 . S
C5088 C5091 1.386 . S
H5089 C5105 0.930 . S
H5090 C5106 0.931 . S
C5091 H5079 0.929 . S
C5091 C5085 1.390 . S
C5091 C5088 1.386 . S
C5092 C5087 1.490 . S
C5092 C5094 1.395 . S
C5092 C5095 1.403 . S
H5093 C5099 0.930 . S
C5094 H5080 0.930 . S
C5094 C5092 1.395 . S
C5094 C5097 1.403 . S
C5095 C5092 1.403 . S
C5095 C5096 1.524 . S
C5095 C5099 1.400 . S
C5096 H5081 0.960 . S
C5096 H5082 0.960 . S
C5096 H5083 0.960 . S
C5096 C5095 1.524 . S
C5097 C5094 1.403 . S
C5097 C5098 1.392 . S
C5097 C5101 1.495 . S
C5098 C5097 1.392 . S
C5098 C5099 1.385 . S
C5098 C5100 1.478 . S
C5099 H5093 0.930 . S
C5099 C5095 1.400 . S
C5099 C5098 1.385 . S
C5100 C5098 1.478 . S
C5100 C5102 1.381 . S
C5100 C5106 1.383 . S
C5101 C5097 1.495 . S
C5101 H5107 0.959 . S
C5101 H5108 0.961 . S
C5101 H5109 0.960 . S
C5102 C5100 1.381 . S
C5102 C5103 1.394 . S
C5102 H5110 0.930 . S
C5103 C5102 1.394 . S
C5103 C5104 1.383 . S
C5103 H5111 0.929 . S
C5104 C5103 1.383 . S
C5104 C5105 1.377 . S
C5105 H5089 0.930 . S
C5105 C5104 1.377 . S
C5105 C5106 1.379 . S
C5106 H5090 0.931 . S
C5106 C5100 1.383 . S
C5106 C5105 1.379 . S
H5107 C5101 0.959 . S
H5108 C5101 0.961 . S
H5109 C5101 0.960 . S
H5110 C5102 0.930 . S
H5111 C5103 0.929 . S
H5112 C5120 0.929 . S
H5113 C5122 0.930 . S
H5114 C5124 0.930 . S
H5115 C5127 0.929 . S
H5116 C5130 0.930 . S
H5117 C5132 0.960 . S
H5118 C5132 0.960 . S
H5119 C5132 0.960 . S
C5120 H5112 0.929 . S
C5120 C5121 1.377 . S
C5120 C5122 1.384 . S
C5121 C5120 1.377 . S
C5121 C5127 1.390 . S
C5122 H5113 0.930 . S
C5122 C5120 1.384 . S
C5122 C5123 1.372 . S
C5123 C5122 1.372 . S
C5123 C5124 1.400 . S
C5123 C5128 1.490 . S
C5124 H5114 0.930 . S
C5124 C5123 1.400 . S
C5124 C5127 1.386 . S
H5125 C5141 0.930 . S
H5126 C5142 0.931 . S
C5127 H5115 0.929 . S
C5127 C5121 1.390 . S
C5127 C5124 1.386 . S
C5128 C5123 1.490 . S
C5128 C5130 1.395 . S
C5128 C5131 1.403 . S
H5129 C5135 0.930 . S
C5130 H5116 0.930 . S
C5130 C5128 1.395 . S
C5130 C5133 1.403 . S
C5131 C5128 1.403 . S
C5131 C5132 1.524 . S
C5131 C5135 1.400 . S
C5132 H5117 0.960 . S
C5132 H5118 0.960 . S
C5132 H5119 0.960 . S
C5132 C5131 1.524 . S
C5133 C5130 1.403 . S
C5133 C5134 1.392 . S
C5133 C5137 1.495 . S
C5134 C5133 1.392 . S
C5134 C5135 1.385 . S
C5134 C5136 1.478 . S
C5135 H5129 0.930 . S
C5135 C5131 1.400 . S
C5135 C5134 1.385 . S
C5136 C5134 1.478 . S
C5136 C5138 1.381 . S
C5136 C5142 1.383 . S
C5137 C5133 1.495 . S
C5137 H5143 0.959 . S
C5137 H5144 0.961 . S
C5137 H5145 0.960 . S
C5138 C5136 1.381 . S
C5138 C5139 1.394 . S
C5138 H5146 0.930 . S
C5139 C5138 1.394 . S
C5139 C5140 1.383 . S
C5139 H5147 0.929 . S
C5140 C5139 1.383 . S
C5140 C5141 1.377 . S
C5141 H5125 0.930 . S
C5141 C5140 1.377 . S
C5141 C5142 1.379 . S
C5142 H5126 0.931 . S
C5142 C5136 1.383 . S
C5142 C5141 1.379 . S
H5143 C5137 0.959 . S
H5144 C5137 0.961 . S
H5145 C5137 0.960 . S
H5146 C5138 0.930 . S
H5147 C5139 0.929 . S
H5148 C5156 0.929 . S
H5149 C5158 0.930 . S
H5150 C5160 0.930 . S
H5151 C5163 0.929 . S
H5152 C5166 0.930 . S
H5153 C5168 0.960 . S
H5154 C5168 0.960 . S
H5155 C5168 0.960 . S
C5156 H5148 0.929 . S
C5156 C5157 1.377 . S
C5156 C5158 1.384 . S
C5157 C5156 1.377 . S
C5157 C5163 1.390 . S
C5158 H5149 0.930 . S
C5158 C5156 1.384 . S
C5158 C5159 1.372 . S
C5159 C5158 1.372 . S
C5159 C5160 1.400 . S
C5159 C5164 1.490 . S
C5160 H5150 0.930 . S
C5160 C5159 1.400 . S
C5160 C5163 1.386 . S
H5161 C5177 0.930 . S
H5162 C5178 0.931 . S
C5163 H5151 0.929 . S
C5163 C5157 1.390 . S
C5163 C5160 1.386 . S
C5164 C5159 1.490 . S
C5164 C5166 1.395 . S
C5164 C5167 1.403 . S
H5165 C5171 0.930 . S
C5166 H5152 0.930 . S
C5166 C5164 1.395 . S
C5166 C5169 1.403 . S
C5167 C5164 1.403 . S
C5167 C5168 1.524 . S
C5167 C5171 1.400 . S
C5168 H5153 0.960 . S
C5168 H5154 0.960 . S
C5168 H5155 0.960 . S
C5168 C5167 1.524 . S
C5169 C5166 1.403 . S
C5169 C5170 1.392 . S
C5169 C5173 1.495 . S
C5170 C5169 1.392 . S
C5170 C5171 1.385 . S
C5170 C5172 1.478 . S
C5171 H5165 0.930 . S
C5171 C5167 1.400 . S
C5171 C5170 1.385 . S
C5172 C5170 1.478 . S
C5172 C5174 1.381 . S
C5172 C5178 1.383 . S
C5173 C5169 1.495 . S
C5173 H5179 0.959 . S
C5173 H5180 0.961 . S
C5173 H5181 0.960 . S
C5174 C5172 1.381 . S
C5174 C5175 1.394 . S
C5174 H5182 0.930 . S
C5175 C5174 1.394 . S
C5175 C5176 1.383 . S
C5175 H5183 0.929 . S
C5176 C5175 1.383 . S
C5176 C5177 1.377 . S
C5177 H5161 0.930 . S
C5177 C5176 1.377 . S
C5177 C5178 1.379 . S
C5178 H5162 0.931 . S
C5178 C5172 1.383 . S
C5178 C5177 1.379 . S
H5179 C5173 0.959 . S
H5180 C5173 0.961 . S
H5181 C5173 0.960 . S
H5182 C5174 0.930 . S
H5183 C5175 0.929 . S
H5184 C5192 0.929 . S
H5185 C5194 0.930 . S
H5186 C5196 0.930 . S
H5187 C5199 0.929 . S
H5188 C5202 0.930 . S
H5189 C5204 0.960 . S
H5190 C5204 0.960 . S
H5191 C5204 0.960 . S
C5192 H5184 0.929 . S
C5192 C5193 1.377 . S
C5192 C5194 1.384 . S
C5193 C5192 1.377 . S
C5193 C5199 1.390 . S
C5194 H5185 0.930 . S
C5194 C5192 1.384 . S
C5194 C5195 1.372 . S
C5195 C5194 1.372 . S
C5195 C5196 1.400 . S
C5195 C5200 1.490 . S
C5196 H5186 0.930 . S
C5196 C5195 1.400 . S
C5196 C5199 1.386 . S
H5197 C5213 0.930 . S
H5198 C5214 0.931 . S
C5199 H5187 0.929 . S
C5199 C5193 1.390 . S
C5199 C5196 1.386 . S
C5200 C5195 1.490 . S
C5200 C5202 1.395 . S
C5200 C5203 1.403 . S
H5201 C5207 0.930 . S
C5202 H5188 0.930 . S
C5202 C5200 1.395 . S
C5202 C5205 1.403 . S
C5203 C5200 1.403 . S
C5203 C5204 1.524 . S
C5203 C5207 1.400 . S
C5204 H5189 0.960 . S
C5204 H5190 0.960 . S
C5204 H5191 0.960 . S
C5204 C5203 1.524 . S
C5205 C5202 1.403 . S
C5205 C5206 1.392 . S
C5205 C5209 1.495 . S
C5206 C5205 1.392 . S
C5206 C5207 1.385 . S
C5206 C5208 1.478 . S
C5207 H5201 0.930 . S
C5207 C5203 1.400 . S
C5207 C5206 1.385 . S
C5208 C5206 1.478 . S
C5208 C5210 1.381 . S
C5208 C5214 1.383 . S
C5209 C5205 1.495 . S
C5209 H5215 0.959 . S
C5209 H5216 0.961 . S
C5209 H5217 0.960 . S
C5210 C5208 1.381 . S
C5210 C5211 1.394 . S
C5210 H5218 0.930 . S
C5211 C5210 1.394 . S
C5211 C5212 1.383 . S
C5211 H5219 0.929 . S
C5212 C5211 1.383 . S
C5212 C5213 1.377 . S
C5213 H5197 0.930 . S
C5213 C5212 1.377 . S
C5213 C5214 1.379 . S
C5214 H5198 0.931 . S
C5214 C5208 1.383 . S
C5214 C5213 1.379 . S
H5215 C5209 0.959 . S
H5216 C5209 0.961 . S
H5217 C5209 0.960 . S
H5218 C5210 0.930 . S
H5219 C5211 0.929 . S
H5220 C5228 0.929 . S
H5221 C5230 0.930 . S
H5222 C5232 0.930 . S
H5223 C5235 0.929 . S
H5224 C5238 0.930 . S
H5225 C5240 0.960 . S
H5226 C5240 0.960 . S
H5227 C5240 0.960 . S
C5228 H5220 0.929 . S
C5228 C5229 1.377 . S
C5228 C5230 1.384 . S
C5229 C5228 1.377 . S
C5229 C5235 1.390 . S
C5230 H5221 0.930 . S
C5230 C5228 1.384 . S
C5230 C5231 1.372 . S
C5231 C5230 1.372 . S
C5231 C5232 1.400 . S
C5231 C5236 1.490 . S
C5232 H5222 0.930 . S
C5232 C5231 1.400 . S
C5232 C5235 1.386 . S
H5233 C5249 0.930 . S
H5234 C5250 0.931 . S
C5235 H5223 0.929 . S
C5235 C5229 1.390 . S
C5235 C5232 1.386 . S
C5236 C5231 1.490 . S
C5236 C5238 1.395 . S
C5236 C5239 1.403 . S
H5237 C5243 0.930 . S
C5238 H5224 0.930 . S
C5238 C5236 1.395 . S
C5238 C5241 1.403 . S
C5239 C5236 1.403 . S
C5239 C5240 1.524 . S
C5239 C5243 1.400 . S
C5240 H5225 0.960 . S
C5240 H5226 0.960 . S
C5240 H5227 0.960 . S
C5240 C5239 1.524 . S
C5241 C5238 1.403 . S
C5241 C5242 1.392 . S
C5241 C5245 1.495 . S
C5242 C5241 1.392 . S
C5242 C5243 1.385 . S
C5242 C5244 1.478 . S
C5243 H5237 0.930 . S
C5243 C5239 1.400 . S
C5243 C5242 1.385 . S
C5244 C5242 1.478 . S
C5244 C5246 1.381 . S
C5244 C5250 1.383 . S
C5245 C5241 1.495 . S
C5245 H5251 0.959 . S
C5245 H5252 0.961 . S
C5245 H5253 0.960 . S
C5246 C5244 1.381 . S
C5246 C5247 1.394 . S
C5246 H5254 0.930 . S
C5247 C5246 1.394 . S
C5247 C5248 1.383 . S
C5247 H5255 0.929 . S
C5248 C5247 1.383 . S
C5248 C5249 1.377 . S
C5249 H5233 0.930 . S
C5249 C5248 1.377 . S
C5249 C5250 1.379 . S
C5250 H5234 0.931 . S
C5250 C5244 1.383 . S
C5250 C5249 1.379 . S
H5251 C5245 0.959 . S
H5252 C5245 0.961 . S
H5253 C5245 0.960 . S
H5254 C5246 0.930 . S
H5255 C5247 0.929 . S
H5256 C5264 0.929 . S
H5257 C5266 0.930 . S
H5258 C5268 0.930 . S
H5259 C5271 0.929 . S
H5260 C5274 0.930 . S
H5261 C5276 0.960 . S
H5262 C5276 0.960 . S
H5263 C5276 0.960 . S
C5264 H5256 0.929 . S
C5264 C5265 1.377 . S
C5264 C5266 1.384 . S
C5265 C5264 1.377 . S
C5265 C5271 1.390 . S
C5266 H5257 0.930 . S
C5266 C5264 1.384 . S
C5266 C5267 1.372 . S
C5267 C5266 1.372 . S
C5267 C5268 1.400 . S
C5267 C5272 1.490 . S
C5268 H5258 0.930 . S
C5268 C5267 1.400 . S
C5268 C5271 1.386 . S
H5269 C5285 0.930 . S
H5270 C5286 0.931 . S
C5271 H5259 0.929 . S
C5271 C5265 1.390 . S
C5271 C5268 1.386 . S
C5272 C5267 1.490 . S
C5272 C5274 1.395 . S
C5272 C5275 1.403 . S
H5273 C5279 0.930 . S
C5274 H5260 0.930 . S
C5274 C5272 1.395 . S
C5274 C5277 1.403 . S
C5275 C5272 1.403 . S
C5275 C5276 1.524 . S
C5275 C5279 1.400 . S
C5276 H5261 0.960 . S
C5276 H5262 0.960 . S
C5276 H5263 0.960 . S
C5276 C5275 1.524 . S
C5277 C5274 1.403 . S
C5277 C5278 1.392 . S
C5277 C5281 1.495 . S
C5278 C5277 1.392 . S
C5278 C5279 1.385 . S
C5278 C5280 1.478 . S
C5279 H5273 0.930 . S
C5279 C5275 1.400 . S
C5279 C5278 1.385 . S
C5280 C5278 1.478 . S
C5280 C5282 1.381 . S
C5280 C5286 1.383 . S
C5281 C5277 1.495 . S
C5281 H5287 0.959 . S
C5281 H5288 0.961 . S
C5281 H5289 0.960 . S
C5282 C5280 1.381 . S
C5282 C5283 1.394 . S
C5282 H5290 0.930 . S
C5283 C5282 1.394 . S
C5283 C5284 1.383 . S
C5283 H5291 0.929 . S
C5284 C5283 1.383 . S
C5284 C5285 1.377 . S
C5285 H5269 0.930 . S
C5285 C5284 1.377 . S
C5285 C5286 1.379 . S
C5286 H5270 0.931 . S
C5286 C5280 1.383 . S
C5286 C5285 1.379 . S
H5287 C5281 0.959 . S
H5288 C5281 0.961 . S
H5289 C5281 0.960 . S
H5290 C5282 0.930 . S
H5291 C5283 0.929 . S
H5292 C5300 0.929 . S
H5293 C5302 0.930 . S
H5294 C5304 0.930 . S
H5295 C5307 0.929 . S
H5296 C5310 0.930 . S
H5297 C5312 0.960 . S
H5298 C5312 0.960 . S
H5299 C5312 0.960 . S
C5300 H5292 0.929 . S
C5300 C5301 1.377 . S
C5300 C5302 1.384 . S
C5301 C5300 1.377 . S
C5301 C5307 1.390 . S
C5302 H5293 0.930 . S
C5302 C5300 1.384 . S
C5302 C5303 1.372 . S
C5303 C5302 1.372 . S
C5303 C5304 1.400 . S
C5303 C5308 1.490 . S
C5304 H5294 0.930 . S
C5304 C5303 1.400 . S
C5304 C5307 1.386 . S
H5305 C5321 0.930 . S
H5306 C5322 0.931 . S
C5307 H5295 0.929 . S
C5307 C5301 1.390 . S
C5307 C5304 1.386 . S
C5308 C5303 1.490 . S
C5308 C5310 1.395 . S
C5308 C5311 1.403 . S
H5309 C5315 0.930 . S
C5310 H5296 0.930 . S
C5310 C5308 1.395 . S
C5310 C5313 1.403 . S
C5311 C5308 1.403 . S
C5311 C5312 1.524 . S
C5311 C5315 1.400 . S
C5312 H5297 0.960 . S
C5312 H5298 0.960 . S
C5312 H5299 0.960 . S
C5312 C5311 1.524 . S
C5313 C5310 1.403 . S
C5313 C5314 1.392 . S
C5313 C5317 1.495 . S
C5314 C5313 1.392 . S
C5314 C5315 1.385 . S
C5314 C5316 1.478 . S
C5315 H5309 0.930 . S
C5315 C5311 1.400 . S
C5315 C5314 1.385 . S
C5316 C5314 1.478 . S
C5316 C5318 1.381 . S
C5316 C5322 1.383 . S
C5317 C5313 1.495 . S
C5317 H5323 0.959 . S
C5317 H5324 0.961 . S
C5317 H5325 0.960 . S
C5318 C5316 1.381 . S
C5318 C5319 1.394 . S
C5318 H5326 0.930 . S
C5319 C5318 1.394 . S
C5319 C5320 1.383 . S
C5319 H5327 0.929 . S
C5320 C5319 1.383 . S
C5320 C5321 1.377 . S
C5321 H5305 0.930 . S
C5321 C5320 1.377 . S
C5321 C5322 1.379 . S
C5322 H5306 0.931 . S
C5322 C5316 1.383 . S
C5322 C5321 1.379 . S
H5323 C5317 0.959 . S
H5324 C5317 0.961 . S
H5325 C5317 0.960 . S
H5326 C5318 0.930 . S
H5327 C5319 0.929 . S
C1449 C9 1.664 . S
C1468 C99 1.742 . S
C1485 C19 1.727 . S
C1504 C49 1.661 . S
C1521 C89 1.655 . S
C1540 C59 1.714 . S
C1557 C129 1.751 . S
C1576 C179 1.816 . S
C1593 C219 1.813 . S
C1612 C169 1.736 . S
C1629 C209 1.743 . S
C1648 C139 1.816 . S
C1665 C258 1.664 . S
C1684 C330 1.715 . S
C1701 C298 1.662 . S
C1720 C250 1.722 . S
C1737 C338 1.656 . S
C1756 C290 1.740 . S
C1773 C378 1.744 . S
C1792 C410 1.816 . S
C1809 C450 1.819 . S
C1828 C418 1.723 . S
C1845 C370 1.820 . S
C1864 C458 1.717 . S
C1881 C579 1.804 . S
C1900 C489 1.705 . S
C1917 C529 1.741 . S
C1936 C499 1.807 . S
C1953 C539 1.808 . S
C1972 C569 1.755 . S
C1989 C609 1.774 . S
C2008 C659 1.846 . S
C2025 C699 1.837 . S
C2044 C649 1.746 . S
C2061 C619 1.837 . S
C2080 C689 1.773 . S
C2097 C738 1.705 . S
C2116 C810 1.757 . S
C2133 C778 1.696 . S
C2152 C730 1.782 . S
C2169 C770 1.770 . S
C2188 C818 1.706 . S
C2205 C890 1.650 . S
C2224 C858 1.616 1_554 S
C2241 C898 1.578 1_554 S
C2260 C930 1.659 . S
C2277 C850 1.654 . S
C2296 C938 1.556 1_554 S
C2313 C969 1.703 . S
C2332 C1059 1.756 . S
C2349 C1009 1.696 . S
C2368 C979 1.761 . S
C2385 C1049 1.701 . S
C2404 C1019 1.780 . S
C2421 C1089 1.577 1_556 S
C2440 C1139 1.655 . S
C2457 C1129 1.577 1_556 S
C2476 C1179 1.650 . S
C2493 C1169 1.578 1_556 S
C2512 C1099 1.660 . S
C2529 C1218 1.733 . S
C2548 C1290 1.804 . S
C2565 C1258 1.733 . S
C2584 C1210 1.808 . S
C2601 C1250 1.808 . S
C2620 C1298 1.703 . S
C2637 C1338 1.767 . S
C2656 C1370 1.841 . S
C2673 C1378 1.775 . S
C2692 C1410 1.823 . S
C2709 C1330 1.842 . S
C2728 C1418 1.748 . S
C2745 C10 1.697 . S
C2764 C809 1.692 . S
C2781 C729 1.703 . S
C2800 C50 1.680 . S
C2817 C90 1.698 . S
C2836 C769 1.716 . S
C2853 C130 1.576 . S
C2872 C1369 1.579 . S
C2889 C1409 1.588 . S
C2908 C170 1.599 . S
C2925 C210 1.580 . S
C2944 C1329 1.579 . S
C2961 C1058 1.712 . S
C2980 C259 1.675 . S
C2997 C299 1.699 . S
C3016 C978 1.703 . S
C3033 C339 1.696 . S
C3052 C1018 1.718 . S
C3069 C658 1.581 . S
C3088 C379 1.594 . S
C3105 C698 1.587 . S
C3124 C419 1.570 . S
C3141 C618 1.587 . S
C3160 C459 1.554 . S
C3177 C490 1.642 . S
C3196 C1289 1.655 . S
C3213 C530 1.632 . S
C3232 C1209 1.619 . S
C3249 C1249 1.641 . S
C3268 C570 1.610 . S
C3285 C409 1.628 . S
C3304 C610 1.608 . S
C3321 C449 1.631 . S
C3340 C650 1.623 . S
C3357 C369 1.632 . S
C3376 C690 1.643 . S
C3393 C98 1.699 . S
C3412 C739 1.709 . S
C3429 C779 1.694 . S
C3448 C18 1.679 . S
C3465 C819 1.688 . S
C3484 C58 1.701 . S
C3501 C1138 1.638 1_554 S
C3520 C859 1.668 . S
C3537 C1178 1.640 1_554 S
C3556 C899 1.653 . S
C3573 C939 1.643 . S
C3592 C1098 1.646 1_554 S
C3609 C329 1.701 . S
C3628 C970 1.686 . S
C3645 C249 1.702 . S
C3664 C1010 1.675 . S
C3681 C289 1.703 . S
C3700 C1050 1.700 . S
C3717 C1090 1.646 . S
C3736 C889 1.635 . S
C3753 C929 1.641 1_556 S
C3772 C1130 1.667 . S
C3789 C1170 1.648 . S
C3808 C849 1.628 1_556 S
C3825 C1219 1.633 . S
C3844 C578 1.649 . S
C3861 C1259 1.642 . S
C3880 C498 1.625 . S
C3897 C1299 1.639 . S
C3916 C538 1.645 . S
C3933 C1339 1.620 . S
C3952 C178 1.619 . S
C3969 C218 1.626 . S
C3988 C1379 1.624 . S
C4005 C138 1.623 . S
C4024 C1419 1.642 . S
C4041 C1166 2.355 . S
C4060 C6 2.345 . S
C4077 C1086 2.356 . S
C4096 C46 2.336 . S
C4113 C86 2.353 . S
C4132 C1126 2.322 . S
C4149 C526 2.658 . S
C4168 C126 2.644 . S
C4185 C166 2.658 . S
C4204 C566 2.654 . S
C4221 C206 2.659 . S
C4240 C486 2.664 . S
C4257 C255 2.353 . S
C4276 C935 2.344 . S
C4293 C295 2.358 . S
C4312 C855 2.320 . S
C4329 C335 2.358 . S
C4348 C895 2.321 . S
C4365 C1255 2.660 . S
C4384 C375 2.645 . S
C4401 C1295 2.660 . S
C4420 C415 2.643 . S
C4437 C1215 2.656 . S
C4456 C455 2.656 . S
C4473 C606 2.729 . S
C4492 C1006 2.718 . S
C4509 C646 2.729 . S
C4528 C1046 2.719 . S
C4545 C686 2.729 . S
C4564 C966 2.722 . S
C4581 C735 2.732 . S
C4600 C1415 2.732 . S
C4617 C1335 2.733 . S
C4636 C775 2.719 . S
C4653 C815 2.733 . S
C4672 C1375 2.730 . S
C4689 C175 1.082 . S
C4708 C15 1.076 . S
C4725 C215 1.080 . S
C4744 C55 1.085 . S
C4761 C135 1.082 . S
C4780 C95 1.076 . S
C4797 C246 1.078 . S
C4816 C406 1.074 . S
C4833 C446 1.081 . S
C4852 C286 1.087 . S
C4869 C326 1.078 . S
C4888 C366 1.078 . S
C4905 C655 1.185 . S
C4924 C495 1.195 . S
C4941 C695 1.185 . S
C4960 C535 1.195 . S
C4977 C615 1.185 . S
C4996 C575 1.190 . S
C5013 C886 1.498 . S
C5032 C726 1.520 . S
C5049 C766 1.505 . S
C5068 C926 1.504 . S
C5085 C806 1.505 . S
C5104 C846 1.507 . S
C5121 C975 1.505 . S
C5140 C1135 1.499 . S
C5157 C1175 1.496 . S
C5176 C1015 1.524 . S
C5193 C1055 1.503 . S
C5212 C1095 1.520 . S
C5229 C1206 1.188 . S
C5248 C1366 1.194 . S
C5265 C1406 1.185 . S
C5284 C1246 1.181 . S
C5301 C1286 1.185 . S
C5320 C1326 1.184 . S
