# Generated by pormake.
# Topology vba, (4)-cn, num edge types: 1
# Building blocks:
#     Node 0, Type 0, BuildingBlock: GALJAG_clean_sbu_0, # of connection points: 4
#     Node 1, Type 0, BuildingBlock: GALJAG_clean_sbu_0, # of connection points: 4
#     Node 2, Type 0, BuildingBlock: GALJAG_clean_sbu_0, # of connection points: 4
#     Node 3, Type 0, BuildingBlock: GALJAG_clean_sbu_0, # of connection points: 4
#     Node 4, Type 0, BuildingBlock: GALJAG_clean_sbu_0, # of connection points: 4
#     Node 5, Type 0, BuildingBlock: GALJAG_clean_sbu_0, # of connection points: 4
#     Node 6, Type 0, BuildingBlock: GALJAG_clean_sbu_0, # of connection points: 4
#     Node 7, Type 0, BuildingBlock: GALJAG_clean_sbu_0, # of connection points: 4
#     Node 8, Type 0, BuildingBlock: GALJAG_clean_sbu_0, # of connection points: 4
#     Node 9, Type 0, BuildingBlock: GALJAG_clean_sbu_0, # of connection points: 4
#     Node 10, Type 0, BuildingBlock: GALJAG_clean_sbu_0, # of connection points: 4
#     Node 11, Type 0, BuildingBlock: GALJAG_clean_sbu_0, # of connection points: 4
#     Node 12, Type 0, BuildingBlock: GALJAG_clean_sbu_0, # of connection points: 4
#     Node 13, Type 0, BuildingBlock: GALJAG_clean_sbu_0, # of connection points: 4
#     Node 14, Type 0, BuildingBlock: GALJAG_clean_sbu_0, # of connection points: 4
#     Node 15, Type 0, BuildingBlock: GALJAG_clean_sbu_0, # of connection points: 4
#     Node 16, Type 0, BuildingBlock: GALJAG_clean_sbu_0, # of connection points: 4
#     Node 17, Type 0, BuildingBlock: GALJAG_clean_sbu_0, # of connection points: 4
#     Node 18, Type 0, BuildingBlock: GALJAG_clean_sbu_0, # of connection points: 4
#     Node 19, Type 0, BuildingBlock: GALJAG_clean_sbu_0, # of connection points: 4
#     Node 20, Type 0, BuildingBlock: GALJAG_clean_sbu_0, # of connection points: 4
#     Node 21, Type 0, BuildingBlock: GALJAG_clean_sbu_0, # of connection points: 4
#     Node 22, Type 0, BuildingBlock: GALJAG_clean_sbu_0, # of connection points: 4
#     Node 23, Type 0, BuildingBlock: GALJAG_clean_sbu_0, # of connection points: 4
#     Node 24, Type 0, BuildingBlock: GALJAG_clean_sbu_0, # of connection points: 4
#     Node 25, Type 0, BuildingBlock: GALJAG_clean_sbu_0, # of connection points: 4
#     Node 26, Type 0, BuildingBlock: GALJAG_clean_sbu_0, # of connection points: 4
#     Node 27, Type 0, BuildingBlock: GALJAG_clean_sbu_0, # of connection points: 4
#     Node 28, Type 0, BuildingBlock: GALJAG_clean_sbu_0, # of connection points: 4
#     Node 29, Type 0, BuildingBlock: GALJAG_clean_sbu_0, # of connection points: 4
#     Node 30, Type 0, BuildingBlock: GALJAG_clean_sbu_0, # of connection points: 4
#     Node 31, Type 0, BuildingBlock: GALJAG_clean_sbu_0, # of connection points: 4
#     Edge 32, Type (0, 0), BuildingBlock: AJUNOK_clean_linker_0, # of connection points: 2
#     Edge 33, Type (0, 0), BuildingBlock: AJUNOK_clean_linker_0, # of connection points: 2
#     Edge 34, Type (0, 0), BuildingBlock: AJUNOK_clean_linker_0, # of connection points: 2
#     Edge 35, Type (0, 0), BuildingBlock: AJUNOK_clean_linker_0, # of connection points: 2
#     Edge 36, Type (0, 0), BuildingBlock: AJUNOK_clean_linker_0, # of connection points: 2
#     Edge 37, Type (0, 0), BuildingBlock: AJUNOK_clean_linker_0, # of connection points: 2
#     Edge 38, Type (0, 0), BuildingBlock: AJUNOK_clean_linker_0, # of connection points: 2
#     Edge 39, Type (0, 0), BuildingBlock: AJUNOK_clean_linker_0, # of connection points: 2
#     Edge 40, Type (0, 0), BuildingBlock: AJUNOK_clean_linker_0, # of connection points: 2
#     Edge 41, Type (0, 0), BuildingBlock: AJUNOK_clean_linker_0, # of connection points: 2
#     Edge 42, Type (0, 0), BuildingBlock: AJUNOK_clean_linker_0, # of connection points: 2
#     Edge 43, Type (0, 0), BuildingBlock: AJUNOK_clean_linker_0, # of connection points: 2
#     Edge 44, Type (0, 0), BuildingBlock: AJUNOK_clean_linker_0, # of connection points: 2
#     Edge 45, Type (0, 0), BuildingBlock: AJUNOK_clean_linker_0, # of connection points: 2
#     Edge 46, Type (0, 0), BuildingBlock: AJUNOK_clean_linker_0, # of connection points: 2
#     Edge 47, Type (0, 0), BuildingBlock: AJUNOK_clean_linker_0, # of connection points: 2
#     Edge 48, Type (0, 0), BuildingBlock: AJUNOK_clean_linker_0, # of connection points: 2
#     Edge 49, Type (0, 0), BuildingBlock: AJUNOK_clean_linker_0, # of connection points: 2
#     Edge 50, Type (0, 0), BuildingBlock: AJUNOK_clean_linker_0, # of connection points: 2
#     Edge 51, Type (0, 0), BuildingBlock: AJUNOK_clean_linker_0, # of connection points: 2
#     Edge 52, Type (0, 0), BuildingBlock: AJUNOK_clean_linker_0, # of connection points: 2
#     Edge 53, Type (0, 0), BuildingBlock: AJUNOK_clean_linker_0, # of connection points: 2
#     Edge 54, Type (0, 0), BuildingBlock: AJUNOK_clean_linker_0, # of connection points: 2
#     Edge 55, Type (0, 0), BuildingBlock: AJUNOK_clean_linker_0, # of connection points: 2
#     Edge 56, Type (0, 0), BuildingBlock: AJUNOK_clean_linker_0, # of connection points: 2
#     Edge 57, Type (0, 0), BuildingBlock: AJUNOK_clean_linker_0, # of connection points: 2
#     Edge 58, Type (0, 0), BuildingBlock: AJUNOK_clean_linker_0, # of connection points: 2
#     Edge 59, Type (0, 0), BuildingBlock: AJUNOK_clean_linker_0, # of connection points: 2
#     Edge 60, Type (0, 0), BuildingBlock: AJUNOK_clean_linker_0, # of connection points: 2
#     Edge 61, Type (0, 0), BuildingBlock: AJUNOK_clean_linker_0, # of connection points: 2
#     Edge 62, Type (0, 0), BuildingBlock: AJUNOK_clean_linker_0, # of connection points: 2
#     Edge 63, Type (0, 0), BuildingBlock: AJUNOK_clean_linker_0, # of connection points: 2
#     Edge 64, Type (0, 0), BuildingBlock: AJUNOK_clean_linker_0, # of connection points: 2
#     Edge 65, Type (0, 0), BuildingBlock: AJUNOK_clean_linker_0, # of connection points: 2
#     Edge 66, Type (0, 0), BuildingBlock: AJUNOK_clean_linker_0, # of connection points: 2
#     Edge 67, Type (0, 0), BuildingBlock: AJUNOK_clean_linker_0, # of connection points: 2
#     Edge 68, Type (0, 0), BuildingBlock: AJUNOK_clean_linker_0, # of connection points: 2
#     Edge 69, Type (0, 0), BuildingBlock: AJUNOK_clean_linker_0, # of connection points: 2
#     Edge 70, Type (0, 0), BuildingBlock: AJUNOK_clean_linker_0, # of connection points: 2
#     Edge 71, Type (0, 0), BuildingBlock: AJUNOK_clean_linker_0, # of connection points: 2
#     Edge 72, Type (0, 0), BuildingBlock: AJUNOK_clean_linker_0, # of connection points: 2
#     Edge 73, Type (0, 0), BuildingBlock: AJUNOK_clean_linker_0, # of connection points: 2
#     Edge 74, Type (0, 0), BuildingBlock: AJUNOK_clean_linker_0, # of connection points: 2
#     Edge 75, Type (0, 0), BuildingBlock: AJUNOK_clean_linker_0, # of connection points: 2
#     Edge 76, Type (0, 0), BuildingBlock: AJUNOK_clean_linker_0, # of connection points: 2
#     Edge 77, Type (0, 0), BuildingBlock: AJUNOK_clean_linker_0, # of connection points: 2
#     Edge 78, Type (0, 0), BuildingBlock: AJUNOK_clean_linker_0, # of connection points: 2
#     Edge 79, Type (0, 0), BuildingBlock: AJUNOK_clean_linker_0, # of connection points: 2
#     Edge 80, Type (0, 0), BuildingBlock: AJUNOK_clean_linker_0, # of connection points: 2
#     Edge 81, Type (0, 0), BuildingBlock: AJUNOK_clean_linker_0, # of connection points: 2
#     Edge 82, Type (0, 0), BuildingBlock: AJUNOK_clean_linker_0, # of connection points: 2
#     Edge 83, Type (0, 0), BuildingBlock: AJUNOK_clean_linker_0, # of connection points: 2
#     Edge 84, Type (0, 0), BuildingBlock: AJUNOK_clean_linker_0, # of connection points: 2
#     Edge 85, Type (0, 0), BuildingBlock: AJUNOK_clean_linker_0, # of connection points: 2
#     Edge 86, Type (0, 0), BuildingBlock: AJUNOK_clean_linker_0, # of connection points: 2
#     Edge 87, Type (0, 0), BuildingBlock: AJUNOK_clean_linker_0, # of connection points: 2
#     Edge 88, Type (0, 0), BuildingBlock: AJUNOK_clean_linker_0, # of connection points: 2
#     Edge 89, Type (0, 0), BuildingBlock: AJUNOK_clean_linker_0, # of connection points: 2
#     Edge 90, Type (0, 0), BuildingBlock: AJUNOK_clean_linker_0, # of connection points: 2
#     Edge 91, Type (0, 0), BuildingBlock: AJUNOK_clean_linker_0, # of connection points: 2
#     Edge 92, Type (0, 0), BuildingBlock: AJUNOK_clean_linker_0, # of connection points: 2
#     Edge 93, Type (0, 0), BuildingBlock: AJUNOK_clean_linker_0, # of connection points: 2
#     Edge 94, Type (0, 0), BuildingBlock: AJUNOK_clean_linker_0, # of connection points: 2
#     Edge 95, Type (0, 0), BuildingBlock: AJUNOK_clean_linker_0, # of connection points: 2
# Relax obj value: 0.079
# Max RMSD: 0.280
# Mean RMSD: 0.277
data_MOF--net-vba--node1-GALJAG_clean_sbu_0--edge1-AJUNOK_clean_linker_0
_symmetry_space_group_name_H-M    P1
_symmetry_Int_Tables_number       1
_symmetry_cell_setting            triclinic
loop_
_symmetry_equiv_pos_as_xyz
'x, y, z'
_cell_length_a     15.714622
_cell_length_b     69.81227
_cell_length_c     39.437591
_cell_angle_alpha  89.954885
_cell_angle_beta   89.87035
_cell_angle_gamma 90.866642
loop_
_atom_site_label
_atom_site_type_symbol
_atom_site_fract_x
_atom_site_fract_y
_atom_site_fract_z
_atom_type_partial_charge
In0 In 0.16715 0.05297 0.96992 0.0
O1 O 0.12751 0.04564 0.91496 0.0
O2 O 0.22057 0.06773 0.92433 0.0
C3 C 0.0915 0.03937 0.02572 0.0
C4 C 0.29987 0.02954 0.97338 0.0
C5 C 0.11583 0.08805 0.98597 0.0
O6 O 0.05302 0.03869 0.99729 0.0
O7 O 0.16666 0.04605 0.02495 0.0
O8 O 0.19323 0.08322 0.98872 0.0
O9 O 0.06594 0.0753 0.97416 0.0
C10 C 0.17887 0.05815 0.90266 0.0
O11 O 0.30525 0.04709 0.9818 0.0
O12 O 0.2272 0.02399 0.96305 0.0
In13 In 0.95982 0.202 0.01523 0.0
O14 O 0.00324 0.21179 0.96239 0.0
O15 O 0.89635 0.19233 0.96757 0.0
C16 C 0.05159 0.20922 0.0709 0.0
C17 C 0.83895 0.228 0.02361 0.0
C18 C 0.00395 0.16532 0.01434 0.0
O19 O 0.07935 0.21359 0.0415 0.0
O20 O 0.9771 0.20204 0.07174 0.0
O21 O 0.9293 0.17027 0.02303 0.0
O22 O 0.05492 0.17895 0.00709 0.0
C23 C 0.9456 0.20167 0.94804 0.0
O24 O 0.82588 0.21044 0.03093 0.0
O25 O 0.91314 0.23213 0.01299 0.0
In26 In 0.32501 0.18774 0.25023 0.0
O27 O 0.46702 0.19647 0.24252 0.0
O28 O 0.37452 0.21739 0.25617 0.0
C29 C 0.26567 0.1515 0.24432 0.0
C30 C 0.32137 0.18998 0.31785 0.0
C31 C 0.24666 0.20021 0.19427 0.0
O32 O 0.3442 0.15547 0.23935 0.0
O33 O 0.22042 0.16562 0.25242 0.0
O34 O 0.21433 0.20194 0.22363 0.0
O35 O 0.31883 0.19234 0.19342 0.0
C36 C 0.45183 0.21381 0.25051 0.0
O37 O 0.27162 0.19971 0.29954 0.0
O38 O 0.36925 0.1786 0.30205 0.0
In39 In 0.9844 0.04617 0.2331 0.0
O40 O 0.91934 0.01737 0.23564 0.0
O41 O 0.03277 0.02081 0.26504 0.0
C42 C 0.08728 0.07758 0.23341 0.0
C43 C 0.87474 0.05822 0.28037 0.0
C44 C 0.99465 0.03925 0.16611 0.0
O45 O 0.01068 0.07752 0.22357 0.0
O46 O 0.1141 0.06134 0.24293 0.0
O47 O 0.05131 0.03449 0.18715 0.0
O48 O 0.93113 0.04765 0.17899 0.0
C49 C 0.97048 0.01008 0.25641 0.0
O50 O 0.95351 0.05647 0.28537 0.0
O51 O 0.84942 0.05432 0.25057 0.0
In52 In 0.69431 0.95007 0.00842 0.0
O53 O 0.56222 0.95708 0.98832 0.0
O54 O 0.64358 0.97986 0.00617 0.0
C55 C 0.74672 0.91364 0.00948 0.0
C56 C 0.66925 0.95242 0.07523 0.0
C57 C 0.79099 0.96035 0.95565 0.0
O58 O 0.67191 0.9178 0.9999 0.0
O59 O 0.79286 0.92779 0.01804 0.0
O60 O 0.81328 0.9643 0.98587 0.0
O61 O 0.72068 0.95144 0.95262 0.0
C62 C 0.57235 0.97497 0.99365 0.0
O63 O 0.73589 0.95945 0.06136 0.0
O64 O 0.61681 0.94439 0.05533 0.0
In65 In 0.94407 0.80209 0.03987 0.0
O66 O 0.911 0.79083 0.09349 0.0
O67 O 0.99575 0.81486 0.08778 0.0
C68 C 0.85575 0.78846 0.98706 0.0
C69 C 0.08347 0.78104 0.03017 0.0
C70 C 0.88366 0.83728 0.02858 0.0
O71 O 0.82655 0.78706 0.01711 0.0
O72 O 0.92971 0.79568 0.98462 0.0
O73 O 0.96174 0.83344 0.02409 0.0
O74 O 0.83814 0.82357 0.03975 0.0
C75 C 0.95909 0.80322 0.10776 0.0
O76 O 0.08242 0.7988 0.02298 0.0
O77 O 0.01435 0.77426 0.04195 0.0
In78 In 0.63197 0.81385 0.80234 0.0
O79 O 0.64807 0.79695 0.75294 0.0
O80 O 0.5908 0.82469 0.75169 0.0
C81 C 0.68665 0.7986 0.86023 0.0
C82 C 0.4734 0.80012 0.80841 0.0
C83 C 0.74444 0.84347 0.80187 0.0
O84 O 0.7136 0.79291 0.83154 0.0
O85 O 0.63311 0.81202 0.8593 0.0
O86 O 0.66667 0.84563 0.81009 0.0
O87 O 0.76403 0.82651 0.79392 0.0
C88 C 0.61108 0.80976 0.73564 0.0
O89 O 0.48778 0.81815 0.80863 0.0
O90 O 0.5385 0.78976 0.80682 0.0
In91 In 0.08465 0.94002 0.78516 0.0
O92 O 0.06181 0.95672 0.73582 0.0
O93 O 0.12246 0.92957 0.73333 0.0
C94 C 0.00397 0.95547 0.8378 0.0
C95 C 0.24072 0.95513 0.79681 0.0
C96 C 0.98665 0.90788 0.79027 0.0
O97 O 0.98549 0.9598 0.8074 0.0
O98 O 0.0648 0.94393 0.84122 0.0
O99 O 0.06511 0.90793 0.79831 0.0
O100 O 0.96028 0.92368 0.77904 0.0
C101 C 0.09677 0.94411 0.71755 0.0
O102 O 0.22966 0.93714 0.79357 0.0
O103 O 0.17387 0.96485 0.79515 0.0
In104 In 0.18529 0.56137 0.45483 0.0
O105 O 0.14245 0.55058 0.40165 0.0
O106 O 0.22832 0.57444 0.40583 0.0
C107 C 0.10385 0.54975 0.5115 0.0
C108 C 0.32233 0.53926 0.45924 0.0
C109 C 0.14962 0.59785 0.46766 0.0
O110 O 0.06532 0.54993 0.48314 0.0
O111 O 0.18166 0.55443 0.51026 0.0
O112 O 0.22478 0.59157 0.47011 0.0
O113 O 0.09399 0.58576 0.458 0.0
C114 C 0.18899 0.56299 0.38647 0.0
O115 O 0.32477 0.55699 0.46634 0.0
O116 O 0.25009 0.53277 0.45029 0.0
In117 In 0.03154 0.71515 0.4786 0.0
O118 O 0.06562 0.72429 0.4237 0.0
O119 O 0.96176 0.70474 0.43318 0.0
C120 C 0.1247 0.72428 0.53305 0.0
C121 C 0.90336 0.73875 0.49091 0.0
C122 C 0.06793 0.67805 0.48273 0.0
O123 O 0.15559 0.72658 0.5034 0.0
O124 O 0.04874 0.71816 0.53426 0.0
O125 O 0.99571 0.6844 0.49126 0.0
O126 O 0.12138 0.69056 0.47265 0.0
C127 C 0.00581 0.71383 0.41154 0.0
O128 O 0.89916 0.72096 0.49755 0.0
O129 O 0.97322 0.7446 0.47815 0.0
In130 In 0.27937 0.70703 0.73309 0.0
O131 O 0.30534 0.69971 0.78696 0.0
O132 O 0.41459 0.70474 0.75507 0.0
C133 C 0.25428 0.71628 0.66807 0.0
C134 C 0.27102 0.74307 0.75553 0.0
C135 C 0.20679 0.67172 0.73035 0.0
O136 O 0.198 0.71763 0.69099 0.0
O137 O 0.32545 0.70974 0.67786 0.0
O138 O 0.2837 0.67508 0.72215 0.0
O139 O 0.16572 0.68635 0.73987 0.0
C140 C 0.38539 0.70131 0.78467 0.0
O141 O 0.32587 0.73743 0.73441 0.0
O142 O 0.21599 0.73053 0.76477 0.0
In143 In 0.96223 0.56138 0.71683 0.0
O144 O 0.92501 0.5684 0.76999 0.0
O145 O 0.82324 0.56582 0.73398 0.0
C146 C 0.98961 0.55423 0.65054 0.0
C147 C 0.96116 0.52487 0.73841 0.0
C148 C 0.04651 0.59544 0.72058 0.0
O149 O 0.04382 0.55133 0.67362 0.0
O150 O 0.91995 0.56131 0.6608 0.0
O151 O 0.97052 0.59372 0.71022 0.0
O152 O 0.08128 0.57976 0.72874 0.0
C153 C 0.84587 0.5686 0.76458 0.0
O154 O 0.90992 0.53126 0.71668 0.0
O155 O 0.01728 0.53681 0.74875 0.0
In156 In 0.73011 0.46402 0.49462 0.0
O157 O 0.59989 0.47013 0.47257 0.0
O158 O 0.67787 0.49363 0.48999 0.0
C159 C 0.77964 0.42766 0.49848 0.0
C160 C 0.69796 0.4668 0.5611 0.0
C161 C 0.8335 0.47208 0.44237 0.0
O162 O 0.70575 0.43181 0.48786 0.0
O163 O 0.82609 0.44177 0.50695 0.0
O164 O 0.85281 0.47699 0.4725 0.0
O165 O 0.76199 0.46371 0.43906 0.0
C166 C 0.6077 0.48811 0.47723 0.0
O167 O 0.76586 0.47387 0.54822 0.0
O168 O 0.64797 0.45864 0.54041 0.0
In169 In 0.93716 0.3151 0.5444 0.0
O170 O 0.88566 0.30849 0.59775 0.0
O171 O 0.98763 0.32899 0.59091 0.0
C172 C 0.87351 0.30244 0.4863 0.0
C173 C 0.05952 0.289 0.54664 0.0
C174 C 0.89332 0.35066 0.52816 0.0
O175 O 0.82852 0.30186 0.51326 0.0
O176 O 0.94885 0.30881 0.48955 0.0
O177 O 0.97016 0.3452 0.52656 0.0
O178 O 0.84002 0.33819 0.53874 0.0
C179 C 0.93959 0.31993 0.61136 0.0
O180 O 0.07465 0.30625 0.53769 0.0
O181 O 0.98267 0.28518 0.55427 0.0
In182 In 0.76173 0.31244 0.28013 0.0
O183 O 0.75932 0.31476 0.2238 0.0
O184 O 0.65339 0.32629 0.252 0.0
C185 C 0.78433 0.30505 0.34534 0.0
C186 C 0.6827 0.27879 0.27221 0.0
C187 C 0.8707 0.34234 0.28003 0.0
O188 O 0.8331 0.29868 0.32229 0.0
O189 O 0.72368 0.31554 0.33516 0.0
O190 O 0.79299 0.34356 0.28873 0.0
O191 O 0.89435 0.32566 0.27108 0.0
C192 C 0.68729 0.32285 0.22327 0.0
O193 O 0.6489 0.29337 0.28567 0.0
O194 O 0.7602 0.28101 0.26278 0.0
In195 In 0.15955 0.44727 0.27945 0.0
O196 O 0.30519 0.44483 0.28692 0.0
O197 O 0.24502 0.47116 0.29804 0.0
C198 C 0.08001 0.41248 0.27983 0.0
C199 C 0.17325 0.45552 0.21262 0.0
C200 C 0.0627 0.46134 0.32959 0.0
O201 O 0.1563 0.41452 0.29002 0.0
O202 O 0.04635 0.42774 0.26961 0.0
O203 O 0.04927 0.46526 0.29865 0.0
O204 O 0.12534 0.45055 0.33494 0.0
C205 C 0.31365 0.46218 0.296 0.0
O206 O 0.13986 0.46713 0.2332 0.0
O207 O 0.19628 0.43994 0.22555 0.0
In208 In 0.69623 0.06087 0.47775 0.0
O209 O 0.65997 0.05397 0.42253 0.0
O210 O 0.7611 0.07403 0.43295 0.0
C211 C 0.61273 0.04715 0.53152 0.0
C212 C 0.82486 0.03636 0.48244 0.0
C213 C 0.64508 0.09626 0.49058 0.0
O214 O 0.57901 0.04626 0.5022 0.0
O215 O 0.68676 0.05443 0.53283 0.0
O216 O 0.71975 0.09098 0.49809 0.0
O217 O 0.59793 0.08391 0.47612 0.0
C218 C 0.71787 0.06514 0.41081 0.0
O219 O 0.83269 0.05382 0.4913 0.0
O220 O 0.75191 0.03149 0.47145 0.0
In221 In 0.44036 0.20545 0.52423 0.0
O222 O 0.45326 0.21465 0.4691 0.0
O223 O 0.35654 0.19377 0.48325 0.0
C224 C 0.54306 0.21231 0.5765 0.0
C225 C 0.32243 0.23118 0.53861 0.0
C226 C 0.50514 0.17092 0.51686 0.0
O227 O 0.56281 0.21784 0.54664 0.0
O228 O 0.47094 0.20407 0.57957 0.0
O229 O 0.43672 0.17333 0.53375 0.0
O230 O 0.54017 0.18594 0.50474 0.0
C231 C 0.3931 0.20333 0.45987 0.0
O232 O 0.31149 0.21347 0.54553 0.0
O233 O 0.3937 0.23564 0.5253 0.0
In234 In 0.8734 0.18527 0.73689 0.0
O235 O 0.01799 0.18633 0.72499 0.0
O236 O 0.94778 0.21224 0.72429 0.0
C237 C 0.79765 0.14997 0.73736 0.0
C238 C 0.89176 0.19087 0.80398 0.0
C239 C 0.77422 0.19909 0.68758 0.0
O240 O 0.87272 0.15247 0.72583 0.0
O241 O 0.76344 0.16502 0.74827 0.0
O242 O 0.76095 0.20265 0.71869 0.0
O243 O 0.83799 0.18871 0.68156 0.0
C244 C 0.01916 0.20442 0.7213 0.0
O245 O 0.84477 0.20152 0.78621 0.0
O246 O 0.9271 0.17752 0.78797 0.0
In247 In 0.48494 0.04818 0.73665 0.0
O248 O 0.4448 0.01708 0.73316 0.0
O249 O 0.52085 0.0248 0.77567 0.0
C250 C 0.59345 0.07888 0.73927 0.0
C251 C 0.3537 0.05806 0.77669 0.0
C252 C 0.50278 0.0425 0.66964 0.0
O253 O 0.51611 0.07982 0.73075 0.0
O254 O 0.61736 0.06217 0.74731 0.0
O255 O 0.5562 0.03712 0.69148 0.0
O256 O 0.43855 0.05103 0.68168 0.0
C257 C 0.47759 0.01187 0.76069 0.0
O258 O 0.43067 0.05963 0.78531 0.0
O259 O 0.34127 0.05232 0.7466 0.0
In260 In 0.20628 0.9527 0.5077 0.0
O261 O 0.07643 0.96175 0.48871 0.0
O262 O 0.16372 0.98322 0.50749 0.0
C263 C 0.26372 0.91715 0.50838 0.0
C264 C 0.17348 0.95167 0.57395 0.0
C265 C 0.30315 0.95901 0.45319 0.0
O266 O 0.18791 0.92063 0.49888 0.0
O267 O 0.30771 0.93151 0.51798 0.0
O268 O 0.32849 0.96374 0.48277 0.0
O269 O 0.22812 0.95212 0.45151 0.0
C270 C 0.09068 0.97937 0.49542 0.0
O271 O 0.2334 0.96226 0.56214 0.0
O272 O 0.13137 0.94209 0.55228 0.0
In273 In 0.46792 0.80583 0.52889 0.0
O274 O 0.60447 0.80417 0.5096 0.0
O275 O 0.54403 0.77891 0.52974 0.0
C276 C 0.40629 0.84107 0.51993 0.0
C277 C 0.4958 0.80618 0.59598 0.0
C278 C 0.38149 0.79008 0.47749 0.0
O279 O 0.48247 0.83693 0.51256 0.0
O280 O 0.36208 0.82741 0.53216 0.0
O281 O 0.35218 0.78896 0.50754 0.0
O282 O 0.45204 0.79877 0.47431 0.0
C283 C 0.61011 0.78649 0.51672 0.0
O284 O 0.4434 0.79425 0.58292 0.0
O285 O 0.52908 0.81798 0.57541 0.0
In286 In 0.26741 0.78823 0.27367 0.0
O287 O 0.20946 0.80292 0.2285 0.0
O288 O 0.12369 0.78744 0.2605 0.0
C289 C 0.27388 0.78146 0.34082 0.0
C290 C 0.28847 0.7538 0.24364 0.0
C291 C 0.36712 0.82029 0.27552 0.0
O292 O 0.33253 0.77728 0.32027 0.0
O293 O 0.20942 0.78909 0.32736 0.0
O294 O 0.28904 0.81987 0.2832 0.0
O295 O 0.39658 0.80425 0.26641 0.0
C296 C 0.13419 0.79724 0.23378 0.0
O297 O 0.25211 0.75604 0.27179 0.0
O298 O 0.32083 0.76899 0.23124 0.0
In299 In 0.61195 0.93044 0.28503 0.0
O300 O 0.56056 0.94575 0.23781 0.0
O301 O 0.674 0.92957 0.23342 0.0
C302 C 0.51828 0.94341 0.33723 0.0
C303 C 0.75953 0.94918 0.29818 0.0
C304 C 0.54818 0.89406 0.28187 0.0
O305 O 0.5029 0.94781 0.30669 0.0
O306 O 0.58124 0.93253 0.34132 0.0
O307 O 0.62167 0.89754 0.29389 0.0
O308 O 0.50967 0.90868 0.27168 0.0
C309 C 0.62102 0.94024 0.21908 0.0
O310 O 0.75778 0.93137 0.2917 0.0
O311 O 0.68748 0.95686 0.29985 0.0
In312 In 0.6882 0.56065 0.96466 0.0
O313 O 0.82559 0.55616 0.97992 0.0
O314 O 0.75764 0.53272 0.95721 0.0
C315 C 0.64939 0.59623 0.98381 0.0
C316 C 0.69865 0.5664 0.89711 0.0
C317 C 0.59515 0.54497 0.01495 0.0
O318 O 0.72372 0.58968 0.98731 0.0
O319 O 0.59607 0.58481 0.97045 0.0
O320 O 0.56263 0.54757 0.98585 0.0
O321 O 0.67305 0.5493 0.01734 0.0
C322 C 0.82675 0.5389 0.96993 0.0
O323 O 0.64956 0.55344 0.90926 0.0
O324 O 0.73906 0.57601 0.91901 0.0
In325 In 0.51515 0.71201 0.98977 0.0
O326 O 0.55228 0.72124 0.93501 0.0
O327 O 0.45959 0.69905 0.94282 0.0
C328 C 0.62382 0.72268 0.03889 0.0
C329 C 0.37924 0.73364 0.00386 0.0
C330 C 0.55531 0.67533 0.99934 0.0
O331 O 0.64352 0.72438 0.00774 0.0
O332 O 0.5482 0.71719 0.04447 0.0
O333 O 0.48037 0.68121 0.00454 0.0
O334 O 0.60812 0.68792 0.98936 0.0
C335 C 0.50212 0.7089 0.9218 0.0
O336 O 0.3822 0.71596 0.01093 0.0
O337 O 0.44536 0.74041 0.98952 0.0
In338 In 0.91716 0.68709 0.20462 0.0
O339 O 0.90612 0.70983 0.24704 0.0
O340 O 0.9431 0.68159 0.26006 0.0
C341 C 0.83597 0.70328 0.15221 0.0
C342 C 0.08082 0.69705 0.19132 0.0
C343 C 0.8232 0.65403 0.20663 0.0
O344 O 0.82008 0.70772 0.18276 0.0
O345 O 0.89147 0.69048 0.14844 0.0
O346 O 0.90011 0.65424 0.19661 0.0
O347 O 0.79586 0.67021 0.21535 0.0
C348 C 0.93052 0.69846 0.26991 0.0
O349 O 0.06133 0.68083 0.20384 0.0
O350 O 0.01795 0.70699 0.18325 0.0
In351 In 0.49712 0.55418 0.21973 0.0
O352 O 0.42366 0.57124 0.25877 0.0
O353 O 0.35584 0.54868 0.23457 0.0
C354 C 0.49229 0.54566 0.15288 0.0
C355 C 0.52654 0.52128 0.25414 0.0
C356 C 0.6046 0.58527 0.21678 0.0
O357 O 0.55207 0.54115 0.17249 0.0
O358 O 0.43248 0.55471 0.167 0.0
O359 O 0.52748 0.58544 0.20801 0.0
O360 O 0.62911 0.56914 0.22751 0.0
C361 C 0.35586 0.56141 0.25734 0.0
O362 O 0.51196 0.52194 0.22281 0.0
O363 O 0.53585 0.53755 0.26778 0.0
In364 In 0.24258 0.46444 0.99986 0.0
O365 O 0.28072 0.47571 0.05279 0.0
O366 O 0.18061 0.45467 0.048 0.0
C367 C 0.33501 0.47152 0.94403 0.0
C368 C 0.11489 0.48826 0.98759 0.0
C369 C 0.2939 0.42831 0.99914 0.0
O370 O 0.36304 0.47589 0.97336 0.0
O371 O 0.2601 0.46463 0.94336 0.0
O372 O 0.21721 0.43247 0.99229 0.0
O373 O 0.34232 0.44232 0.00661 0.0
C374 C 0.22534 0.46506 0.0675 0.0
O375 O 0.10782 0.47034 0.9823 0.0
O376 O 0.18682 0.49391 0.99849 0.0
In377 In 0.47476 0.31631 0.02924 0.0
O378 O 0.60125 0.30419 0.01421 0.0
O379 O 0.51112 0.28588 0.04046 0.0
C380 C 0.42088 0.35137 0.01646 0.0
C381 C 0.52499 0.32405 0.09189 0.0
C382 C 0.3907 0.30313 0.97617 0.0
O383 O 0.49489 0.34599 0.00777 0.0
O384 O 0.3754 0.339 0.03206 0.0
O385 O 0.3569 0.30231 0.00564 0.0
O386 O 0.46552 0.31014 0.97445 0.0
C387 C 0.58441 0.28779 0.027 0.0
O388 O 0.45611 0.31456 0.08655 0.0
O389 O 0.56382 0.33001 0.06562 0.0
In390 In 0.24579 0.30365 0.77317 0.0
O391 O 0.18999 0.31446 0.72471 0.0
O392 O 0.10305 0.30961 0.76572 0.0
C393 C 0.26877 0.29852 0.83979 0.0
C394 C 0.23485 0.26697 0.75109 0.0
C395 C 0.35256 0.33458 0.76844 0.0
O396 O 0.32182 0.29341 0.81749 0.0
O397 O 0.20238 0.30638 0.82836 0.0
O398 O 0.27602 0.33534 0.77815 0.0
O399 O 0.37689 0.3179 0.76043 0.0
C400 C 0.11405 0.31455 0.73508 0.0
O401 O 0.2006 0.27291 0.77789 0.0
O402 O 0.27975 0.2794 0.73543 0.0
In403 In 0.61926 0.44261 0.76932 0.0
O404 O 0.57156 0.45832 0.72175 0.0
O405 O 0.68208 0.44106 0.71795 0.0
C406 C 0.53288 0.45573 0.8234 0.0
C407 C 0.76655 0.46165 0.78131 0.0
C408 C 0.54919 0.40668 0.76675 0.0
O409 O 0.51353 0.46018 0.7932 0.0
O410 O 0.59562 0.44464 0.82608 0.0
O411 O 0.62392 0.40958 0.77809 0.0
O412 O 0.51278 0.42163 0.75667 0.0
C413 C 0.63208 0.45237 0.70339 0.0
O414 O 0.76537 0.44376 0.77533 0.0
O415 O 0.69427 0.46921 0.78312 0.0
C416 C 0.10155 0.02596 0.08351 0.0
C417 C 0.05184 0.03497 0.05882 0.0
C418 C 0.07913 0.02644 0.11784 0.0
C419 C 0.00666 0.03624 0.12906 0.0
H420 H 0.1611 0.0194 0.07642 0.0
H421 H 0.12173 0.0199 0.13588 0.0
S422 S 0.85124 0.06085 0.07391 0.0
N423 N 0.92361 0.05276 0.04728 0.0
N424 N 0.88115 0.05386 0.11207 0.0
C425 C 0.95316 0.04426 0.10433 0.0
C426 C 0.97584 0.04357 0.06913 0.0
C427 C 0.11099 0.20687 0.16384 0.0
C428 C 0.20009 0.20538 0.16296 0.0
C429 C 0.06394 0.20909 0.13397 0.0
C430 C 0.10414 0.21024 0.10207 0.0
H431 H 0.0768 0.2054 0.18761 0.0
H432 H 0.99516 0.2093 0.13584 0.0
S433 S 0.33687 0.2094 0.08634 0.0
N434 N 0.32744 0.2068 0.12781 0.0
N435 N 0.23895 0.21129 0.07172 0.0
C436 C 0.19355 0.20999 0.10101 0.0
C437 C 0.24151 0.20744 0.13144 0.0
C438 C 0.98672 0.9602 0.90012 0.0
C439 C 0.952 0.96121 0.86728 0.0
C440 C 0.93497 0.96161 0.92901 0.0
C441 C 0.84655 0.96366 0.92595 0.0
H442 H 0.0538 0.95741 0.90353 0.0
H443 H 0.96354 0.95972 0.95374 0.0
S444 S 0.72569 0.96946 0.84601 0.0
N445 N 0.82507 0.9665 0.83359 0.0
N446 N 0.72757 0.96866 0.88786 0.0
C447 C 0.81191 0.96598 0.89339 0.0
C448 C 0.86476 0.96491 0.86402 0.0
C449 C 0.80499 0.78482 0.89405 0.0
C450 C 0.72137 0.79161 0.89277 0.0
C451 C 0.84588 0.78205 0.9252 0.0
C452 C 0.80409 0.78559 0.95614 0.0
H453 H 0.84129 0.78298 0.87093 0.0
H454 H 0.9125 0.77826 0.925 0.0
S455 S 0.57966 0.80012 0.96649 0.0
N456 N 0.59433 0.79936 0.92502 0.0
N457 N 0.67096 0.79382 0.98356 0.0
C458 C 0.71783 0.79052 0.95522 0.0
C459 C 0.67655 0.79366 0.92349 0.0
C460 C 0.98804 0.55676 0.5536 0.0
C461 C 0.06218 0.54679 0.54489 0.0
C462 C 0.96192 0.5584 0.58776 0.0
C463 C 0.00923 0.55014 0.61423 0.0
H464 H 0.95353 0.56446 0.53428 0.0
H465 H 0.90708 0.56703 0.59356 0.0
S466 S 0.20017 0.51992 0.60367 0.0
N467 N 0.1765 0.52678 0.5648 0.0
N468 N 0.12759 0.52952 0.62845 0.0
C469 C 0.07968 0.53894 0.60531 0.0
C470 C 0.10609 0.53736 0.57079 0.0
C471 C 0.12802 0.73387 0.59318 0.0
C472 C 0.17237 0.7268 0.56502 0.0
C473 C 0.15844 0.7314 0.62612 0.0
C474 C 0.23426 0.72154 0.63245 0.0
H475 H 0.06644 0.7404 0.58986 0.0
H476 H 0.11959 0.73645 0.6469 0.0
S477 S 0.37963 0.70223 0.56702 0.0
N478 N 0.30002 0.71117 0.54505 0.0
N479 N 0.35784 0.70641 0.60734 0.0
C480 C 0.28292 0.7157 0.60436 0.0
C481 C 0.25179 0.71835 0.57052 0.0
C482 C 0.0359 0.46716 0.39128 0.0
C483 C 0.00625 0.46753 0.35759 0.0
C484 C 0.98077 0.47023 0.41877 0.0
C485 C 0.89368 0.47338 0.41353 0.0
H486 H 0.10169 0.46384 0.39655 0.0
H487 H 0.00548 0.4689 0.44427 0.0
S488 S 0.78565 0.47773 0.3304 0.0
N489 N 0.88553 0.47313 0.3206 0.0
N490 N 0.78164 0.47835 0.37223 0.0
C491 C 0.86416 0.47482 0.37999 0.0
C492 C 0.92055 0.47206 0.35201 0.0
C493 C 0.74466 0.30843 0.40676 0.0
C494 C 0.79998 0.30123 0.38179 0.0
C495 C 0.76432 0.30707 0.44142 0.0
C496 C 0.84019 0.2986 0.4521 0.0
H497 H 0.68766 0.31592 0.39947 0.0
H498 H 0.72319 0.31393 0.45969 0.0
S499 S 1.00067 0.27525 0.39771 0.0
N500 N 0.92925 0.28336 0.37086 0.0
N501 N 0.96634 0.28124 0.43577 0.0
C502 C 0.8929 0.29022 0.42769 0.0
C503 C 0.87277 0.29142 0.39257 0.0
C504 C 0.49745 0.05129 0.57437 0.0
C505 C 0.56972 0.04147 0.56322 0.0
C506 C 0.47231 0.05065 0.60867 0.0
C507 C 0.51894 0.0402 0.63273 0.0
H508 H 0.46433 0.0607 0.55716 0.0
H509 H 0.41942 0.05934 0.61669 0.0
S510 S 0.70511 0.00964 0.61447 0.0
N511 N 0.68162 0.01942 0.5776 0.0
N512 N 0.63418 0.01778 0.64161 0.0
C513 C 0.587 0.02906 0.62101 0.0
C514 C 0.61253 0.02983 0.58635 0.0
C515 C 0.69056 0.20968 0.59934 0.0
C516 C 0.60357 0.21276 0.60518 0.0
C517 C 0.74609 0.20593 0.62632 0.0
C518 C 0.71692 0.20552 0.66013 0.0
H519 H 0.71495 0.20901 0.57366 0.0
H520 H 0.81186 0.2028 0.62055 0.0
S521 S 0.4966 0.21496 0.689 0.0
N522 N 0.49204 0.21664 0.64728 0.0
N523 N 0.59661 0.21013 0.69801 0.0
C524 C 0.63121 0.20984 0.6664 0.0
C525 C 0.57446 0.21331 0.6389 0.0
C526 C 0.44633 0.95372 0.42746 0.0
C527 C 0.36035 0.95848 0.42334 0.0
C528 C 0.49756 0.9493 0.39937 0.0
C529 C 0.46517 0.94986 0.36611 0.0
H530 H 0.47297 0.95233 0.45264 0.0
H531 H 0.56255 0.94501 0.40383 0.0
S532 S 0.24596 0.96322 0.34166 0.0
N533 N 0.24629 0.96457 0.38346 0.0
N534 N 0.34295 0.95683 0.33068 0.0
C535 C 0.38055 0.95563 0.36159 0.0
C536 C 0.32805 0.95978 0.39021 0.0
C537 C 0.38801 0.77288 0.42322 0.0
C538 C 0.33838 0.78266 0.44699 0.0
C539 C 0.36233 0.77114 0.38947 0.0
C540 C 0.28656 0.77944 0.37795 0.0
H541 H 0.45028 0.76772 0.43022 0.0
H542 H 0.40547 0.76439 0.37183 0.0
S543 S 0.12721 0.80381 0.43174 0.0
N544 N 0.20495 0.79856 0.45818 0.0
N545 N 0.15619 0.79547 0.3943 0.0
C546 C 0.23224 0.78766 0.40222 0.0
C547 C 0.25837 0.78925 0.43691 0.0
C548 C 0.58508 0.52856 0.07023 0.0
C549 C 0.54663 0.54037 0.04606 0.0
C550 C 0.56119 0.5292 0.10439 0.0
C551 C 0.49856 0.54188 0.11589 0.0
H552 H 0.63879 0.51985 0.06314 0.0
H553 H 0.59648 0.52063 0.12227 0.0
S554 S 0.3701 0.57384 0.06177 0.0
N555 N 0.43607 0.56347 0.03501 0.0
N556 N 0.39094 0.56478 0.09953 0.0
C557 C 0.45372 0.55242 0.09147 0.0
C558 C 0.4779 0.55164 0.05643 0.0
C559 C 0.70937 0.7197 0.128 0.0
C560 C 0.78973 0.71157 0.12303 0.0
C561 C 0.65856 0.72489 0.10037 0.0
C562 C 0.68685 0.72251 0.06675 0.0
H563 H 0.68328 0.72102 0.15333 0.0
H564 H 0.59474 0.72985 0.10535 0.0
S565 S 0.89739 0.70444 0.04019 0.0
N566 N 0.899 0.70325 0.08201 0.0
N567 N 0.80391 0.71329 0.03017 0.0
C568 C 0.76984 0.71589 0.0615 0.0
C569 C 0.82111 0.7103 0.08963 0.0
C570 C 0.52121 0.46129 0.88608 0.0
C571 C 0.48472 0.46243 0.85352 0.0
C572 C 0.47439 0.4658 0.91535 0.0
C573 C 0.38887 0.47128 0.91316 0.0
H574 H 0.58587 0.45641 0.88908 0.0
H575 H 0.50383 0.46387 0.93991 0.0
S576 S 0.26537 0.47798 0.83409 0.0
N577 N 0.3596 0.47089 0.82091 0.0
N578 N 0.27121 0.47883 0.87587 0.0
C579 C 0.35279 0.47327 0.88077 0.0
C580 C 0.40081 0.469 0.85096 0.0
C581 C 0.36434 0.28781 0.88594 0.0
C582 C 0.28798 0.29658 0.87639 0.0
C583 C 0.39331 0.28855 0.91936 0.0
C584 C 0.3465 0.29778 0.94469 0.0
H585 H 0.40473 0.28118 0.86714 0.0
H586 H 0.45527 0.28275 0.92506 0.0
S587 S 0.13782 0.32097 0.93425 0.0
N588 N 0.16201 0.31328 0.89585 0.0
N589 N 0.21689 0.31445 0.95906 0.0
C590 C 0.26688 0.30527 0.93632 0.0
C591 C 0.23748 0.30472 0.90201 0.0
C592 C 0.35935 0.99647 0.97011 0.0
C593 C 0.37183 0.01614 0.97681 0.0
C594 C 0.42476 0.98328 0.97505 0.0
C595 C 0.50532 0.98924 0.98681 0.0
H596 H 0.29806 0.99111 0.9615 0.0
H597 H 0.41156 0.96827 0.97007 0.0
S598 S 0.5727 0.03935 0.00599 0.0
N599 N 0.4723 0.04102 0.99433 0.0
N600 N 0.59506 0.01638 1.0035 0.0
C601 C 0.51935 0.00896 0.99271 0.0
C602 C 0.45272 0.02236 0.98774 0.0
C603 C 0.72912 0.27564 0.01359 0.0
C604 C 0.64713 0.27212 0.02671 0.0
C605 C 0.79041 0.26132 0.01315 0.0
C606 C 0.7724 0.2428 0.02567 0.0
H607 H 0.74648 0.28962 1.00357 0.0
H608 H 0.85242 0.26483 1.00259 0.0
S609 S 0.56754 0.22613 0.06317 0.0
N610 N 0.55114 0.24871 0.05293 0.0
N611 N 0.6666 0.22173 0.0519 0.0
C612 C 0.69075 0.23903 0.03899 0.0
C613 C 0.62812 0.2537 0.03956 0.0
C614 C 0.49393 0.24475 0.27642 0.0
C615 C 0.51723 0.22907 0.25624 0.0
C616 C 0.54924 0.26021 0.28191 0.0
C617 C 0.63105 0.26094 0.26742 0.0
H618 H 0.43158 0.24525 0.28816 0.0
H619 H 0.52648 0.27187 0.29743 0.0
S620 S 0.72571 0.22318 0.21358 0.0
N621 N 0.62941 0.21474 0.22265 0.0
N622 N 0.73434 0.24418 0.23274 0.0
C623 C 0.65683 0.24514 0.24786 0.0
C624 C 0.59982 0.22913 0.24236 0.0
C625 C 0.88905 0.95965 0.26644 0.0
C626 C 0.83696 0.96139 0.29532 0.0
C627 C 0.94162 0.97497 0.25562 0.0
C628 C 0.94592 0.99221 0.274 0.0
H629 H 0.88208 0.94728 0.25004 0.0
H630 H 0.97337 0.97393 0.23129 0.0
S631 S 0.83132 1.00292 0.35376 0.0
N632 N 0.79918 0.981 0.34373 0.0
N633 N 0.90055 0.00939 0.32415 0.0
C634 C 0.90101 0.99332 0.30472 0.0
C635 C 0.84591 0.97798 0.31524 0.0
C636 C 0.30296 0.76495 1.0019 0.0
C637 C 0.30394 0.74552 0.01158 0.0
C638 C 0.23194 0.77639 0.0083 0.0
C639 C 0.15901 0.76887 0.02459 0.0
H640 H 0.35727 0.77138 0.98904 0.0
H641 H 0.23404 0.7912 1.0001 0.0
S642 S 0.13022 0.719 0.05618 0.0
N643 N 0.22622 0.71941 0.03914 0.0
N644 N 0.09316 0.7408 0.05109 0.0
C645 C 0.15959 0.74952 0.03481 0.0
C646 C 0.23188 0.73789 0.02833 0.0
C647 C 0.36382 0.77531 0.82108 0.0
C648 C 0.38984 0.79117 0.80136 0.0
C649 C 0.31167 0.76075 0.80739 0.0
C650 C 0.28605 0.76138 0.77329 0.0
H651 H 0.39147 0.77312 0.8459 0.0
H652 H 0.30095 0.74784 0.82219 0.0
S653 S 0.32738 0.80098 0.71264 0.0
N654 N 0.37648 0.80784 0.74769 0.0
N655 N 0.28169 0.78009 0.72151 0.0
C656 C 0.30431 0.77805 0.75453 0.0
C657 C 0.35539 0.79309 0.76875 0.0
C658 C 0.3746 0.96316 0.76615 0.0
C659 C 0.32452 0.96501 0.7955 0.0
C660 C 0.43377 0.97754 0.75684 0.0
C661 C 0.44641 0.99398 0.77701 0.0
H662 H 0.36112 0.95171 0.74832 0.0
H663 H 0.46402 0.97665 0.73218 0.0
S664 S 0.34152 0.00382 0.85932 0.0
N665 N 0.29846 0.98331 0.84667 0.0
N666 N 0.41212 0.00989 0.82996 0.0
C667 C 0.40412 0.99479 0.80841 0.0
C668 C 0.34231 0.98042 0.81742 0.0
C669 C 0.45817 0.49472 0.45937 0.0
C670 C 0.53796 0.50165 0.47034 0.0
C671 C 0.38933 0.50705 0.45528 0.0
C672 C 0.39753 0.5268 0.46204 0.0
H673 H 0.44813 0.47958 0.45451 0.0
H674 H 0.32884 0.50096 0.44727 0.0
S675 S 0.59465 0.55241 0.48906 0.0
N676 N 0.6224 0.52977 0.48616 0.0
N677 N 0.49313 0.55287 0.47854 0.0
C678 C 0.47764 0.53402 0.47202 0.0
C679 C 0.54779 0.52147 0.47615 0.0
C680 C 0.68616 0.7555 0.51866 0.0
C681 C 0.68704 0.77507 0.5101 0.0
C682 C 0.75654 0.744 0.51248 0.0
C683 C 0.83099 0.75157 0.49749 0.0
H684 H 0.63039 0.74887 0.53018 0.0
H685 H 0.75219 0.72901 0.51947 0.0
S686 S 0.86682 0.80204 0.47054 0.0
N687 N 0.7691 0.80163 0.48605 0.0
N688 N 0.90192 0.77997 0.47441 0.0
C689 C 0.83327 0.77116 0.48895 0.0
C690 C 0.76121 0.78292 0.49525 0.0
C691 C 0.93456 0.48972 0.7349 0.0
C692 C 0.94229 0.50631 0.75495 0.0
C693 C 0.88686 0.47371 0.74611 0.0
C694 C 0.84285 0.47409 0.7772 0.0
H695 H 0.95956 0.48972 0.70927 0.0
H696 H 0.87648 0.46193 0.72865 0.0
S697 S 0.84939 0.51336 0.84035 0.0
N698 N 0.90963 0.52132 0.8088 0.0
N699 N 0.81654 0.49168 0.82913 0.0
C700 C 0.85563 0.48998 0.79853 0.0
C701 C 0.90624 0.50601 0.78756 0.0
C702 C 0.20953 0.27888 0.53653 0.0
C703 C 0.12627 0.27416 0.54701 0.0
C704 C 0.27274 0.26497 0.53482 0.0
C705 C 0.25549 0.24572 0.54357 0.0
H706 H 0.22591 0.2934 0.52899 0.0
H707 H 0.33538 0.26933 0.52595 0.0
S708 S 0.04862 0.226 0.57431 0.0
N709 N 0.0306 0.24892 0.56754 0.0
N710 N 0.14956 0.22283 0.56443 0.0
C711 C 0.17311 0.24088 0.55502 0.0
C712 C 0.10851 0.25506 0.55669 0.0
C713 C 0.44885 0.47085 0.26689 0.0
C714 C 0.39514 0.47303 0.29511 0.0
C715 C 0.50238 0.48597 0.25612 0.0
C716 C 0.5046 0.50362 0.27347 0.0
H717 H 0.44174 0.45844 0.2506 0.0
H718 H 0.53502 0.48455 0.23204 0.0
S719 S 0.39377 0.51424 0.35433 0.0
N720 N 0.36031 0.49246 0.3441 0.0
N721 N 0.46201 0.52072 0.32437 0.0
C722 C 0.46127 0.50475 0.30465 0.0
C723 C 0.40596 0.48947 0.31532 0.0
C724 C 0.94438 0.98944 0.47838 0.0
C725 C 0.02549 0.99437 0.49092 0.0
C726 C 0.88048 1.00316 0.47545 0.0
C727 C 0.89492 0.02238 0.48501 0.0
H728 H 0.92963 0.97482 0.47105 0.0
H729 H 0.81894 0.99857 0.46587 0.0
S730 S 0.09719 0.0429 0.51844 0.0
N731 N 0.1174 0.02003 0.51226 0.0
N732 N 0.99733 0.04572 0.50681 0.0
C733 C 0.97611 0.02758 0.49714 0.0
C734 C 0.04131 0.01362 0.50007 0.0
C735 C 0.14933 0.21639 0.75033 0.0
C736 C 0.0974 0.21648 0.72135 0.0
C737 C 0.20239 0.23217 0.75814 0.0
C738 C 0.20731 0.2483 0.73672 0.0
H739 H 0.142 0.20505 0.76894 0.0
H740 H 0.23443 0.23243 0.78244 0.0
S741 S 0.09393 0.25424 0.65525 0.0
N742 N 0.0604 0.23318 0.66955 0.0
N743 N 0.16319 0.26238 0.68342 0.0
C744 C 0.16273 0.24762 0.70591 0.0
C745 C 0.10682 0.23182 0.69845 0.0
C746 C 0.25751 0.71883 0.24122 0.0
C747 C 0.27072 0.73623 0.22376 0.0
C748 C 0.20593 0.70417 0.22759 0.0
C749 C 0.16432 0.70668 0.19641 0.0
H750 H 0.27964 0.71735 0.26709 0.0
H751 H 0.18974 0.69202 0.24359 0.0
S752 S 0.19262 0.74778 0.13765 0.0
N753 N 0.2508 0.7536 0.17103 0.0
N754 N 0.15203 0.7263 0.14583 0.0
C755 C 0.18643 0.72286 0.17679 0.0
C756 C 0.24017 0.73763 0.19041 0.0
C757 C 0.96668 0.49497 0.96808 0.0
C758 C 0.04358 0.50163 0.98231 0.0
C759 C 0.89747 0.50718 0.96379 0.0
C760 C 0.90221 0.52655 0.9737 0.0
H761 H 0.95953 0.48015 0.96032 0.0
H762 H 0.8395 0.50131 0.9529 0.0
S763 S 0.08973 0.55124 0.01185 0.0
N764 N 0.12077 0.52901 0.00592 0.0
N765 N 0.9908 0.55189 0.99798 0.0
C766 C 0.97903 0.53346 0.98766 0.0
C767 C 0.04963 0.52104 0.99193 0.0
C768 C 0.19402 0.04425 0.8441 0.0
C769 C 0.19974 0.06012 0.86605 0.0
C770 C 0.23666 0.04437 0.81259 0.0
C771 C 0.28596 0.06036 0.80225 0.0
H772 H 0.16291 0.03113 0.85248 0.0
H773 H 0.23756 0.0313 0.79781 0.0
S774 S 0.30737 0.10666 0.84724 0.0
N775 N 0.24726 0.09327 0.87249 0.0
N776 N 0.32856 0.09316 0.81401 0.0
C777 C 0.28522 0.07683 0.82243 0.0
C778 C 0.24154 0.07682 0.85414 0.0
C779 C 0.92389 0.21497 0.88967 0.0
C780 C 0.93869 0.19928 0.91109 0.0
C781 C 0.90685 0.21219 0.85497 0.0
C782 C 0.90615 0.19369 0.84069 0.0
H783 H 0.92293 0.22934 0.89998 0.0
H784 H 0.89505 0.22457 0.83919 0.0
S785 S 0.94335 0.14811 0.88643 0.0
N786 N 0.95184 0.1648 0.91591 0.0
N787 N 0.92298 0.15958 0.85079 0.0
C788 C 0.92262 0.178 0.86193 0.0
C789 C 0.93803 0.18081 0.89715 0.0
C790 C 0.35882 0.21527 0.4016 0.0
C791 C 0.37142 0.19993 0.42401 0.0
C792 C 0.33766 0.21192 0.36746 0.0
C793 C 0.33117 0.19315 0.3546 0.0
H794 H 0.36493 0.2299 0.41054 0.0
H795 H 0.32965 0.22408 0.35074 0.0
S796 S 0.36026 0.1482 0.40294 0.0
N797 N 0.37499 0.16538 0.43119 0.0
N798 N 0.33957 0.15914 0.36679 0.0
C799 C 0.34403 0.17776 0.37678 0.0
C800 C 0.363 0.18114 0.4116 0.0
C801 C 0.71472 0.05205 0.35126 0.0
C802 C 0.7422 0.06622 0.37439 0.0
C803 C 0.75215 0.05056 0.31887 0.0
C804 C 0.81826 0.06315 0.30883 0.0
H805 H 0.66826 0.04128 0.35898 0.0
H806 H 0.73409 0.03861 0.30278 0.0
S807 S 0.90378 0.10449 0.35737 0.0
N808 N 0.83171 0.09464 0.38272 0.0
N809 N 0.90291 0.09136 0.32259 0.0
C810 C 0.84146 0.07818 0.33058 0.0
C811 C 0.80307 0.07987 0.36317 0.0
C812 C 0.72547 0.9502 0.13415 0.0
C813 C 0.6557 0.95204 0.11229 0.0
C814 C 0.7133 0.94682 0.16889 0.0
C815 C 0.63105 0.94566 0.18308 0.0
H816 H 0.78974 0.95043 0.12415 0.0
H817 H 0.76879 0.94481 0.18468 0.0
S818 S 0.4277 0.95135 0.13709 0.0
N819 N 0.50166 0.95358 0.10745 0.0
N820 N 0.47912 0.94785 0.173 0.0
C821 C 0.56095 0.94853 0.16182 0.0
C822 C 0.57322 0.95153 0.12631 0.0
C823 C 0.98104 0.78562 0.16274 0.0
C824 C 0.98197 0.80291 0.14428 0.0
C825 C 0.02357 0.78421 0.19408 0.0
C826 C 0.06821 0.80005 0.20771 0.0
H827 H 0.95326 0.77276 0.15176 0.0
H828 H 0.02765 0.7703 0.20615 0.0
S829 S 0.07666 0.84924 0.17257 0.0
N830 N 0.02062 0.8368 0.14464 0.0
N831 N 0.10145 0.83395 0.20281 0.0
C832 C 0.06308 0.8177 0.19098 0.0
C833 C 0.01957 0.8192 0.15945 0.0
C834 C 0.59269 0.82356 0.67834 0.0
C835 C 0.58684 0.80753 0.69972 0.0
C836 C 0.56179 0.82289 0.64515 0.0
C837 C 0.52175 0.80629 0.63212 0.0
H838 H 0.62129 0.83681 0.68741 0.0
H839 H 0.56895 0.83563 0.62962 0.0
S840 S 0.48528 0.76073 0.67885 0.0
N841 N 0.53567 0.77471 0.7063 0.0
N842 N 0.4757 0.7735 0.64378 0.0
C843 C 0.51405 0.79018 0.65345 0.0
C844 C 0.54728 0.79076 0.68725 0.0
C845 C 0.15759 0.96582 0.6322 0.0
C846 C 0.15427 0.94982 0.61054 0.0
C847 C 0.13524 0.96412 0.66669 0.0
C848 C 0.11121 0.94627 0.68068 0.0
H849 H 0.17634 0.97974 0.62233 0.0
H850 H 0.13913 0.97671 0.68269 0.0
S851 S 0.09418 0.90005 0.63473 0.0
N852 N 0.12468 0.91567 0.60552 0.0
N853 N 0.08582 0.91238 0.67026 0.0
C854 C 0.10836 0.93021 0.65927 0.0
C855 C 0.12907 0.93202 0.6242 0.0
C856 C 0.24717 0.5798 0.33573 0.0
C857 C 0.20773 0.56327 0.34944 0.0
C858 C 0.28808 0.57947 0.30418 0.0
C859 C 0.29097 0.56265 0.28473 0.0
H860 H 0.25157 0.59285 0.3505 0.0
H861 H 0.32253 0.59223 0.29599 0.0
S862 S 0.18452 0.51635 0.30615 0.0
N863 N 0.16426 0.53023 0.33902 0.0
N864 N 0.24098 0.52963 0.27936 0.0
C865 C 0.24447 0.54651 0.29644 0.0
C866 C 0.2028 0.54682 0.32889 0.0
C867 C 0.92406 0.69075 0.33105 0.0
C868 C 0.9456 0.70397 0.30557 0.0
C869 C 0.94399 0.69432 0.36497 0.0
C870 C 0.98822 0.71109 0.37491 0.0
H871 H 0.89165 0.67742 0.32471 0.0
H872 H 0.92557 0.68358 0.38354 0.0
S873 S 0.06207 0.75007 0.31755 0.0
N874 N 0.01443 0.73447 0.29209 0.0
N875 N 0.05399 0.74105 0.35623 0.0
C876 C 0.01099 0.72446 0.34964 0.0
C877 C 0.98895 0.72096 0.31488 0.0
C878 C 0.44313 0.68958 0.8742 0.0
C879 C 0.4897 0.70591 0.88479 0.0
C880 C 0.41678 0.68735 0.8406 0.0
C881 C 0.43686 0.70117 0.81592 0.0
H882 H 0.42298 0.67877 0.89237 0.0
H883 H 0.37605 0.6752 0.83428 0.0
S884 S 0.56503 0.74553 0.82915 0.0
N885 N 0.56109 0.73541 0.86704 0.0
N886 N 0.51144 0.73109 0.80345 0.0
C887 C 0.48868 0.71688 0.82534 0.0
C888 C 0.51524 0.71927 0.8599 0.0
C889 C 0.73382 0.55534 0.80357 0.0
C890 C 0.78686 0.57074 0.79341 0.0
C891 C 0.69917 0.55456 0.8366 0.0
C892 C 0.71683 0.56916 0.86035 0.0
H893 H 0.72499 0.54311 0.78698 0.0
H894 H 0.66374 0.54185 0.84425 0.0
S895 S 0.84183 0.61386 0.84381 0.0
N896 N 0.84798 0.60167 0.80807 0.0
N897 N 0.7819 0.60065 0.86943 0.0
C898 C 0.76376 0.58537 0.84919 0.0
C899 C 0.79921 0.58602 0.81591 0.0
C900 C 0.74738 0.46311 0.62081 0.0
C901 C 0.68062 0.46618 0.59796 0.0
C902 C 0.7307 0.45905 0.65506 0.0
C903 C 0.64686 0.45838 0.66784 0.0
H904 H 0.81259 0.46284 0.61186 0.0
H905 H 0.78394 0.45608 0.67156 0.0
S906 S 0.45043 0.46741 0.61898 0.0
N907 N 0.52789 0.46949 0.59076 0.0
N908 N 0.497 0.46252 0.65544 0.0
C909 C 0.57995 0.46254 0.64567 0.0
C910 C 0.59675 0.46624 0.61062 0.0
C911 C 0.0088 0.33616 0.66004 0.0
C912 C 0.95757 0.32086 0.64818 0.0
C913 C 0.05243 0.33489 0.69078 0.0
C914 C 0.04492 0.3185 0.71116 0.0
H915 H 0.02142 0.34854 0.6441 0.0
H916 H 0.09768 0.34616 0.6973 0.0
S917 S 0.90692 0.27602 0.69501 0.0
N918 N 0.89268 0.2899 0.66158 0.0
N919 N 0.97404 0.28776 0.71997 0.0
C920 C 0.98645 0.30407 0.70169 0.0
C921 C 0.94252 0.30522 0.67002 0.0
C922 C 0.51678 0.32201 0.15552 0.0
C923 C 0.5636 0.32637 0.12596 0.0
C924 C 0.55594 0.32215 0.18756 0.0
C925 C 0.64342 0.32628 0.19089 0.0
H926 H 0.45011 0.31796 0.15381 0.0
H927 H 0.5186 0.31799 0.20956 0.0
S928 S 0.79321 0.34004 0.12213 0.0
N929 N 0.70146 0.3363 0.10278 0.0
N930 N 0.77438 0.336 0.1627 0.0
C931 C 0.69003 0.33137 0.16186 0.0
C932 C 0.65026 0.33158 0.12945 0.0
C933 C 0.16618 0.44425 0.15315 0.0
C934 C 0.18377 0.45921 0.17593 0.0
C935 C 0.17986 0.4465 0.11832 0.0
C936 C 0.21403 0.46365 0.1048 0.0
H937 H 0.14123 0.43064 0.16234 0.0
H938 H 0.16456 0.43452 0.10186 0.0
S939 S 0.27516 0.50694 0.15407 0.0
N940 N 0.23846 0.49172 0.18294 0.0
N941 N 0.26702 0.49579 0.11721 0.0
C942 C 0.23334 0.4787 0.12736 0.0
C943 C 0.2173 0.47653 0.16298 0.0
C944 C 0.11705 0.14111 0.006 0.0
C945 C 0.03015 0.14516 0.01037 0.0
C946 C 0.14431 0.12254 0.9989 0.0
C947 C 0.08566 0.1073 0.99547 0.0
H948 H 0.16467 0.15246 0.00755 0.0
H949 H 0.21172 0.12023 0.99523 0.0
S950 S 0.85138 0.10992 0.00672 0.0
N951 N 0.88587 0.13214 0.01248 0.0
N952 N 0.93691 0.09719 0.99888 0.0
C953 C 0.9987 0.11099 1.00071 0.0
C954 C 0.971 0.12992 0.00828 0.0
C955 C 0.13782 0.13092 0.23381 0.0
C956 C 0.22584 0.13214 0.24009 0.0
C957 C 0.09512 0.11326 0.23117 0.0
C958 C 0.13789 0.09583 0.23514 0.0
H959 H 0.10097 0.14381 0.2309 0.0
H960 H 0.02721 0.11336 0.22652 0.0
S961 S 0.36908 0.0909 0.25159 0.0
N962 N 0.35522 0.1143 0.24962 0.0
N963 N 0.2744 0.0809 0.24528 0.0
C964 C 0.22628 0.09672 0.24118 0.0
C965 C 0.27034 0.11489 0.24342 0.0
C966 C 0.90074 0.87274 0.02139 0.0
C967 C 0.8476 0.8564 0.02162 0.0
C968 C 0.86728 0.89107 0.01682 0.0
C969 C 0.77945 0.89381 0.01177 0.0
H970 H 0.96849 0.87144 0.02564 0.0
H971 H 0.91086 0.90324 0.01759 0.0
S972 S 0.61403 0.85544 0.0072 0.0
N973 N 0.70324 0.84395 0.01447 0.0
N974 N 0.64069 0.8784 0.00542 0.0
C975 C 0.72596 0.87751 0.01069 0.0
C976 C 0.75992 0.85883 0.01577 0.0
C977 C 0.78037 0.87865 0.79817 0.0
C978 C 0.80786 0.85962 0.80047 0.0
C979 C 0.83881 0.89401 0.79492 0.0
C980 C 0.9275 0.89109 0.79442 0.0
H981 H 0.71301 0.88172 0.79817 0.0
H982 H 0.81399 0.90835 0.79285 0.0
S983 S 0.03312 0.8441 0.80118 0.0
N984 N 0.93044 0.83875 0.80282 0.0
N985 N 0.03977 0.86764 0.79745 0.0
C986 C 0.95602 0.87218 0.7975 0.0
C987 C 0.89642 0.85648 0.80029 0.0
C988 C 0.17204 0.65166 0.47654 0.0
C989 C 0.08774 0.65742 0.48227 0.0
C990 C 0.19204 0.63228 0.47292 0.0
C991 C 0.12828 0.618 0.47445 0.0
H992 H 0.223 0.66221 0.47425 0.0
H993 H 0.25751 0.62855 0.46784 0.0
S994 S 0.89875 0.62532 0.4917 0.0
N995 N 0.94087 0.64713 0.49147 0.0
N996 N 0.97834 0.61072 0.4843 0.0
C997 C 0.04418 0.62347 0.48129 0.0
C998 C 0.02393 0.64319 0.48534 0.0
C999 C 0.07872 0.64966 0.72723 0.0
C1000 C 0.16774 0.65208 0.72852 0.0
C1001 C 0.04057 0.63135 0.72448 0.0
C1002 C 0.0896 0.6146 0.72356 0.0
H1003 H 0.03801 0.66204 0.72784 0.0
H1004 H 0.97179 0.63034 0.72332 0.0
S1005 S 0.32531 0.61293 0.72711 0.0
N1006 N 0.30401 0.636 0.729 0.0
N1007 N 0.23226 0.6017 0.72463 0.0
C1008 C 0.17863 0.61678 0.72536 0.0
C1009 C 0.21762 0.63545 0.72759 0.0
C1010 C 0.75108 0.39272 0.50812 0.0
C1011 C 0.80956 0.40782 0.50272 0.0
C1012 C 0.77898 0.37425 0.51603 0.0
C1013 C 0.86638 0.37016 0.5184 0.0
H1014 H 0.68331 0.39531 0.50738 0.0
H1015 H 0.73147 0.36315 0.52067 0.0
S1016 S 0.04518 0.40445 0.50329 0.0
N1017 N 0.9588 0.41729 0.49814 0.0
N1018 N 0.0111 0.38258 0.5126 0.0
C1019 C 0.92546 0.385 0.5117 0.0
C1020 C 0.89707 0.40382 0.50398 0.0
C1021 C 0.89097 0.37789 0.27933 0.0
C1022 C 0.92771 0.35963 0.27981 0.0
C1023 C 0.94112 0.39466 0.27932 0.0
C1024 C 0.0306 0.39406 0.2804 0.0
H1025 H 0.82244 0.37931 0.27862 0.0
H1026 H 0.90902 0.40829 0.27873 0.0
S1027 S 0.15922 0.34995 0.28246 0.0
N1028 N 0.05974 0.34194 0.2814 0.0
N1029 N 0.15419 0.37358 0.28216 0.0
C1030 C 0.06861 0.37593 0.28124 0.0
C1031 C 0.01722 0.35872 0.28067 0.0
C1032 C 0.57704 0.11972 0.52922 0.0
C1033 C 0.61412 0.11556 0.49767 0.0
C1034 C 0.54036 0.13763 0.53531 0.0
C1035 C 0.54097 0.1519 0.51012 0.0
H1036 H 0.5753 0.10897 0.54906 0.0
H1037 H 0.51239 0.14042 0.55992 0.0
S1038 S 0.62592 0.14736 0.42268 0.0
N1039 N 0.64563 0.1265 0.4406 0.0
N1040 N 0.57901 0.16033 0.45211 0.0
C1041 C 0.57774 0.14777 0.47845 0.0
C1042 C 0.61369 0.1295 0.47218 0.0
C1043 C 0.61153 0.11451 0.74081 0.0
C1044 C 0.6495 0.09639 0.73962 0.0
C1045 C 0.66038 0.13149 0.74012 0.0
C1046 C 0.7498 0.13128 0.73757 0.0
H1047 H 0.54296 0.11566 0.74248 0.0
H1048 H 0.62722 0.14497 0.74125 0.0
S1049 S 0.88148 0.08766 0.73347 0.0
N1050 N 0.78276 0.07926 0.736 0.0
N1051 N 0.87468 0.11127 0.73393 0.0
C1052 C 0.78905 0.11329 0.73617 0.0
C1053 C 0.73901 0.09586 0.73746 0.0
C1054 C 0.24754 0.88157 0.51476 0.0
C1055 C 0.29982 0.89772 0.50877 0.0
C1056 C 0.28257 0.86328 0.51811 0.0
C1057 C 0.37093 0.86046 0.51504 0.0
H1058 H 0.1795 0.88315 0.5179 0.0
H1059 H 0.24002 0.85129 0.52338 0.0
S1060 S 0.5341 0.89802 0.49644 0.0
N1061 N 0.44354 0.90966 0.49804 0.0
N1062 N 0.50911 0.87534 0.50382 0.0
C1063 C 0.42339 0.87644 0.50786 0.0
C1064 C 0.38789 0.89506 0.50488 0.0
C1065 C 0.41719 0.87363 0.27784 0.0
C1066 C 0.50643 0.87475 0.28061 0.0
C1067 C 0.37381 0.85598 0.2762 0.0
C1068 C 0.41748 0.83854 0.27666 0.0
H1069 H 0.3799 0.88655 0.27723 0.0
H1070 H 0.30504 0.85608 0.27432 0.0
S1071 S 0.6516 0.83336 0.28311 0.0
N1072 N 0.63742 0.85677 0.28373 0.0
N1073 N 0.55572 0.82347 0.27988 0.0
C1074 C 0.50692 0.83935 0.27908 0.0
C1075 C 0.55134 0.85746 0.28133 0.0
C1076 C 0.51699 0.64065 0.99519 0.0
C1077 C 0.57869 0.65499 1.00115 0.0
C1078 C 0.54043 0.62153 0.99087 0.0
C1079 C 0.62625 0.61606 0.99271 0.0
H1080 H 0.45074 0.64434 0.99209 0.0
H1081 H 0.49101 0.61107 0.98501 0.0
S1082 S 0.81029 0.64792 0.01299 0.0
N1083 N 0.72782 0.66229 0.01232 0.0
N1084 N 0.77188 0.6263 0.00455 0.0
C1085 C 0.6878 0.63009 1.00098 0.0
C1086 C 0.66398 0.64959 0.00508 0.0
C1087 C 0.80269 0.61799 0.21083 0.0
C1088 C 0.76787 0.63643 0.20837 0.0
C1089 C 0.75003 0.60148 0.21412 0.0
C1090 C 0.66052 0.60276 0.21441 0.0
H1091 H 0.87109 0.6163 0.21077 0.0
H1092 H 0.77967 0.58762 0.21607 0.0
S1093 S 0.53746 0.64765 0.20791 0.0
N1094 N 0.63787 0.65484 0.20614 0.0
N1095 N 0.53993 0.62413 0.2117 0.0
C1096 C 0.62522 0.62112 0.21158 0.0
C1097 C 0.67853 0.63784 0.20873 0.0
C1098 C 0.27064 0.39326 0.00903 0.0
C1099 C 0.32539 0.40851 1.00002 0.0
C1100 C 0.30208 0.37476 0.01387 0.0
C1101 C 0.38909 0.37082 0.00935 0.0
H1102 H 0.20371 0.39576 0.0136 0.0
H1103 H 0.25788 0.36352 0.0216 0.0
S1104 S 0.55688 0.4056 0.98234 0.0
N1105 N 0.4694 0.41834 0.98451 0.0
N1106 N 0.52826 0.38356 0.99308 0.0
C1107 C 0.4437 0.38583 0.99885 0.0
C1108 C 0.41188 0.40468 0.99435 0.0
C1109 C 0.41413 0.3874 0.76402 0.0
C1110 C 0.50354 0.38772 0.7666 0.0
C1111 C 0.36709 0.37018 0.76433 0.0
C1112 C 0.40695 0.35231 0.76659 0.0
H1113 H 0.37949 0.40067 0.76228 0.0
H1114 H 0.2984 0.37093 0.76273 0.0
S1115 S 0.63976 0.3449 0.77296 0.0
N1116 N 0.63052 0.36844 0.7712 0.0
N1117 N 0.54192 0.33594 0.77094 0.0
C1118 C 0.49649 0.35227 0.76855 0.0
C1119 C 0.54471 0.36997 0.76885 0.0
loop_
_geom_bond_atom_site_label_1
_geom_bond_atom_site_label_2
_geom_bond_distance
_geom_bond_site_symmetry_2
_ccdc_geom_bond_type
In0 O1 2.296 1_554 S
In0 O2 2.329 1_554 S
In0 O6 2.265 . S
In0 O7 2.323 . S
In0 O8 2.265 . S
In0 O9 2.326 1_554 S
In0 O11 2.293 . S
In0 O12 2.326 1_554 S
O1 In0 2.296 1_556 S
O1 C10 1.240 . S
O2 In0 2.329 1_556 S
O2 C10 1.252 . S
C3 O6 1.252 . S
C3 O7 1.260 . S
C4 O11 1.240 . S
C4 O12 1.245 1_554 S
C5 O8 1.252 . S
C5 O9 1.260 1_554 S
O6 In0 2.265 . S
O6 C3 1.252 . S
O7 In0 2.323 . S
O7 C3 1.260 . S
O8 In0 2.265 . S
O8 C5 1.252 . S
O9 In0 2.326 1_556 S
O9 C5 1.260 1_556 S
C10 O1 1.240 . S
C10 O2 1.252 . S
O11 In0 2.293 . S
O11 C4 1.240 . S
O12 In0 2.326 1_556 S
O12 C4 1.245 1_556 S
In13 O14 2.296 1_654 S
In13 O15 2.329 1_554 S
In13 O19 2.265 1_655 S
In13 O20 2.323 1_655 S
In13 O21 2.265 . S
In13 O22 2.326 1_654 S
In13 O24 2.293 . S
In13 O25 2.326 1_554 S
O14 In13 2.296 1_456 S
O14 C23 1.240 1_455 S
O15 In13 2.329 1_556 S
O15 C23 1.252 . S
C16 O19 1.252 . S
C16 O20 1.260 . S
C17 O24 1.240 . S
C17 O25 1.245 1_554 S
C18 O21 1.252 1_455 S
C18 O22 1.260 1_554 S
O19 In13 2.265 1_455 S
O19 C16 1.252 . S
O20 In13 2.323 1_455 S
O20 C16 1.260 . S
O21 In13 2.265 . S
O21 C18 1.252 1_655 S
O22 In13 2.326 1_456 S
O22 C18 1.260 1_556 S
C23 O14 1.240 1_655 S
C23 O15 1.252 . S
O24 In13 2.293 . S
O24 C17 1.240 . S
O25 In13 2.326 1_556 S
O25 C17 1.245 1_556 S
In26 O27 2.294 . S
In26 O28 2.326 . S
In26 O32 2.266 . S
In26 O33 2.326 . S
In26 O34 2.266 . S
In26 O35 2.326 . S
In26 O37 2.294 . S
In26 O38 2.326 . S
O27 In26 2.294 . S
O27 C36 1.240 . S
O28 In26 2.326 . S
O28 C36 1.252 . S
C29 O32 1.252 . S
C29 O33 1.260 . S
C30 O37 1.240 . S
C30 O38 1.252 . S
C31 O34 1.252 . S
C31 O35 1.260 . S
O32 In26 2.266 . S
O32 C29 1.252 . S
O33 In26 2.326 . S
O33 C29 1.260 . S
O34 In26 2.266 . S
O34 C31 1.252 . S
O35 In26 2.326 . S
O35 C31 1.260 . S
C36 O27 1.240 . S
C36 O28 1.252 . S
O37 In26 2.294 . S
O37 C30 1.240 . S
O38 In26 2.326 . S
O38 C30 1.252 . S
In39 O40 2.306 . S
In39 O41 2.332 . S
In39 O45 2.269 . S
In39 O46 2.318 1_655 S
In39 O47 2.256 1_655 S
In39 O48 2.323 1_655 S
In39 O50 2.290 1_655 S
In39 O51 2.332 . S
O40 In39 2.306 . S
O40 C49 1.240 . S
O41 In39 2.332 . S
O41 C49 1.252 . S
C42 O45 1.252 1_455 S
C42 O46 1.260 . S
C43 O50 1.240 1_655 S
C43 O51 1.252 . S
C44 O47 1.252 . S
C44 O48 1.260 . S
O45 In39 2.269 . S
O45 C42 1.252 1_655 S
O46 In39 2.318 1_455 S
O46 C42 1.260 . S
O47 In39 2.256 1_455 S
O47 C44 1.252 . S
O48 In39 2.323 1_455 S
O48 C44 1.260 . S
C49 O40 1.240 . S
C49 O41 1.252 . S
O50 In39 2.290 1_455 S
O50 C43 1.240 1_455 S
O51 In39 2.332 . S
O51 C43 1.252 . S
In52 O53 2.293 . S
In52 O54 2.326 1_556 S
In52 O58 2.265 . S
In52 O59 2.326 1_556 S
In52 O60 2.265 . S
In52 O61 2.323 . S
In52 O63 2.296 1_556 S
In52 O64 2.329 1_556 S
O53 In52 2.293 . S
O53 C62 1.240 . S
O54 In52 2.326 1_554 S
O54 C62 1.245 1_554 S
C55 O58 1.252 . S
C55 O59 1.260 1_556 S
C56 O63 1.240 . S
C56 O64 1.252 . S
C57 O60 1.252 . S
C57 O61 1.260 . S
O58 In52 2.265 . S
O58 C55 1.252 . S
O59 In52 2.326 1_554 S
O59 C55 1.260 1_554 S
O60 In52 2.265 . S
O60 C57 1.252 . S
O61 In52 2.323 . S
O61 C57 1.260 . S
C62 O53 1.240 . S
C62 O54 1.245 1_556 S
O63 In52 2.296 1_554 S
O63 C56 1.240 . S
O64 In52 2.329 1_554 S
O64 C56 1.252 . S
In65 O66 2.296 1_456 S
In65 O67 2.329 1_556 S
In65 O71 2.265 1_455 S
In65 O72 2.323 1_455 S
In65 O73 2.265 . S
In65 O74 2.326 1_456 S
In65 O76 2.293 . S
In65 O77 2.326 1_556 S
O66 In65 2.296 1_654 S
O66 C75 1.240 1_655 S
O67 In65 2.329 1_554 S
O67 C75 1.252 . S
C68 O71 1.252 . S
C68 O72 1.260 . S
C69 O76 1.240 . S
C69 O77 1.245 1_556 S
C70 O73 1.252 1_655 S
C70 O74 1.260 1_556 S
O71 In65 2.265 1_655 S
O71 C68 1.252 . S
O72 In65 2.323 1_655 S
O72 C68 1.260 . S
O73 In65 2.265 . S
O73 C70 1.252 1_455 S
O74 In65 2.326 1_654 S
O74 C70 1.260 1_554 S
C75 O66 1.240 1_455 S
C75 O67 1.252 . S
O76 In65 2.293 . S
O76 C69 1.240 . S
O77 In65 2.326 1_554 S
O77 C69 1.245 1_554 S
In78 O79 2.294 . S
In78 O80 2.326 . S
In78 O84 2.266 . S
In78 O85 2.326 . S
In78 O86 2.266 . S
In78 O87 2.326 . S
In78 O89 2.294 . S
In78 O90 2.326 . S
O79 In78 2.294 . S
O79 C88 1.240 . S
O80 In78 2.326 . S
O80 C88 1.252 . S
C81 O84 1.252 . S
C81 O85 1.260 . S
C82 O89 1.240 . S
C82 O90 1.252 . S
C83 O86 1.252 . S
C83 O87 1.260 . S
O84 In78 2.266 . S
O84 C81 1.252 . S
O85 In78 2.326 . S
O85 C81 1.260 . S
O86 In78 2.266 . S
O86 C83 1.252 . S
O87 In78 2.326 . S
O87 C83 1.260 . S
C88 O79 1.240 . S
C88 O80 1.252 . S
O89 In78 2.294 . S
O89 C82 1.240 . S
O90 In78 2.326 . S
O90 C82 1.252 . S
In91 O92 2.290 1_455 S
In91 O93 2.332 . S
In91 O97 2.256 1_455 S
In91 O98 2.323 1_455 S
In91 O99 2.269 . S
In91 O100 2.318 1_455 S
In91 O102 2.306 . S
In91 O103 2.332 . S
O92 In91 2.290 1_655 S
O92 C101 1.240 1_655 S
O93 In91 2.332 . S
O93 C101 1.252 . S
C94 O97 1.252 . S
C94 O98 1.260 . S
C95 O102 1.240 . S
C95 O103 1.252 . S
C96 O99 1.252 1_655 S
C96 O100 1.260 . S
O97 In91 2.256 1_655 S
O97 C94 1.252 . S
O98 In91 2.323 1_655 S
O98 C94 1.260 . S
O99 In91 2.269 . S
O99 C96 1.252 1_455 S
O100 In91 2.318 1_655 S
O100 C96 1.260 . S
C101 O92 1.240 1_455 S
C101 O93 1.252 . S
O102 In91 2.306 . S
O102 C95 1.240 . S
O103 In91 2.332 . S
O103 C95 1.252 . S
In104 O105 2.294 . S
In104 O106 2.326 . S
In104 O110 2.266 . S
In104 O111 2.326 . S
In104 O112 2.266 . S
In104 O113 2.326 . S
In104 O115 2.294 . S
In104 O116 2.326 . S
O105 In104 2.294 . S
O105 C114 1.240 . S
O106 In104 2.326 . S
O106 C114 1.252 . S
C107 O110 1.252 . S
C107 O111 1.260 . S
C108 O115 1.240 . S
C108 O116 1.252 . S
C109 O112 1.252 . S
C109 O113 1.260 . S
O110 In104 2.266 . S
O110 C107 1.252 . S
O111 In104 2.326 . S
O111 C107 1.260 . S
O112 In104 2.266 . S
O112 C109 1.252 . S
O113 In104 2.326 . S
O113 C109 1.260 . S
C114 O105 1.240 . S
C114 O106 1.252 . S
O115 In104 2.294 . S
O115 C108 1.240 . S
O116 In104 2.326 . S
O116 C108 1.252 . S
In117 O118 2.294 1_655 S
In117 O119 2.326 . S
In117 O123 2.266 1_655 S
In117 O124 2.326 1_655 S
In117 O125 2.266 . S
In117 O126 2.326 1_655 S
In117 O128 2.294 . S
In117 O129 2.326 . S
O118 In117 2.294 1_455 S
O118 C127 1.240 1_455 S
O119 In117 2.326 . S
O119 C127 1.252 . S
C120 O123 1.252 . S
C120 O124 1.260 . S
C121 O128 1.240 . S
C121 O129 1.252 . S
C122 O125 1.252 1_455 S
C122 O126 1.260 . S
O123 In117 2.266 1_455 S
O123 C120 1.252 . S
O124 In117 2.326 1_455 S
O124 C120 1.260 . S
O125 In117 2.266 . S
O125 C122 1.252 1_655 S
O126 In117 2.326 1_455 S
O126 C122 1.260 . S
C127 O118 1.240 1_655 S
C127 O119 1.252 . S
O128 In117 2.294 . S
O128 C121 1.240 . S
O129 In117 2.326 . S
O129 C121 1.252 . S
In130 O131 2.294 . S
In130 O132 2.326 . S
In130 O136 2.266 . S
In130 O137 2.326 . S
In130 O138 2.266 . S
In130 O139 2.326 . S
In130 O141 2.294 . S
In130 O142 2.326 . S
O131 In130 2.294 . S
O131 C140 1.240 . S
O132 In130 2.326 . S
O132 C140 1.252 . S
C133 O136 1.252 . S
C133 O137 1.260 . S
C134 O141 1.240 . S
C134 O142 1.252 . S
C135 O138 1.252 . S
C135 O139 1.260 . S
O136 In130 2.266 . S
O136 C133 1.252 . S
O137 In130 2.326 . S
O137 C133 1.260 . S
O138 In130 2.266 . S
O138 C135 1.252 . S
O139 In130 2.326 . S
O139 C135 1.260 . S
C140 O131 1.240 . S
C140 O132 1.252 . S
O141 In130 2.294 . S
O141 C134 1.240 . S
O142 In130 2.326 . S
O142 C134 1.252 . S
In143 O144 2.294 1_655 S
In143 O145 2.326 . S
In143 O149 2.266 1_655 S
In143 O150 2.326 1_655 S
In143 O151 2.266 . S
In143 O152 2.326 1_655 S
In143 O154 2.294 . S
In143 O155 2.326 . S
O144 In143 2.294 1_455 S
O144 C153 1.240 1_455 S
O145 In143 2.326 . S
O145 C153 1.252 . S
C146 O149 1.252 . S
C146 O150 1.260 . S
C147 O154 1.240 . S
C147 O155 1.252 . S
C148 O151 1.252 1_455 S
C148 O152 1.260 . S
O149 In143 2.266 1_455 S
O149 C146 1.252 . S
O150 In143 2.326 1_455 S
O150 C146 1.260 . S
O151 In143 2.266 . S
O151 C148 1.252 1_655 S
O152 In143 2.326 1_455 S
O152 C148 1.260 . S
C153 O144 1.240 1_655 S
C153 O145 1.252 . S
O154 In143 2.294 . S
O154 C147 1.240 . S
O155 In143 2.326 . S
O155 C147 1.252 . S
In156 O157 2.294 . S
In156 O158 2.326 . S
In156 O162 2.266 . S
In156 O163 2.326 . S
In156 O164 2.266 . S
In156 O165 2.326 . S
In156 O167 2.294 . S
In156 O168 2.326 . S
O157 In156 2.294 . S
O157 C166 1.240 . S
O158 In156 2.326 . S
O158 C166 1.252 . S
C159 O162 1.252 . S
C159 O163 1.260 . S
C160 O167 1.240 . S
C160 O168 1.252 . S
C161 O164 1.252 . S
C161 O165 1.260 . S
O162 In156 2.266 . S
O162 C159 1.252 . S
O163 In156 2.326 . S
O163 C159 1.260 . S
O164 In156 2.266 . S
O164 C161 1.252 . S
O165 In156 2.326 . S
O165 C161 1.260 . S
C166 O157 1.240 . S
C166 O158 1.252 . S
O167 In156 2.294 . S
O167 C160 1.240 . S
O168 In156 2.326 . S
O168 C160 1.252 . S
In169 O170 2.294 1_455 S
In169 O171 2.326 . S
In169 O175 2.266 1_455 S
In169 O176 2.326 1_455 S
In169 O177 2.266 . S
In169 O178 2.326 1_455 S
In169 O180 2.294 . S
In169 O181 2.326 . S
O170 In169 2.294 1_655 S
O170 C179 1.240 1_655 S
O171 In169 2.326 . S
O171 C179 1.252 . S
C172 O175 1.252 . S
C172 O176 1.260 . S
C173 O180 1.240 . S
C173 O181 1.252 . S
C174 O177 1.252 1_655 S
C174 O178 1.260 . S
O175 In169 2.266 1_655 S
O175 C172 1.252 . S
O176 In169 2.326 1_655 S
O176 C172 1.260 . S
O177 In169 2.266 . S
O177 C174 1.252 1_455 S
O178 In169 2.326 1_655 S
O178 C174 1.260 . S
C179 O170 1.240 1_455 S
C179 O171 1.252 . S
O180 In169 2.294 . S
O180 C173 1.240 . S
O181 In169 2.326 . S
O181 C173 1.252 . S
In182 O183 2.294 . S
In182 O184 2.326 . S
In182 O188 2.266 . S
In182 O189 2.326 . S
In182 O190 2.266 . S
In182 O191 2.326 . S
In182 O193 2.294 . S
In182 O194 2.326 . S
O183 In182 2.294 . S
O183 C192 1.240 . S
O184 In182 2.326 . S
O184 C192 1.252 . S
C185 O188 1.252 . S
C185 O189 1.260 . S
C186 O193 1.240 . S
C186 O194 1.252 . S
C187 O190 1.252 . S
C187 O191 1.260 . S
O188 In182 2.266 . S
O188 C185 1.252 . S
O189 In182 2.326 . S
O189 C185 1.260 . S
O190 In182 2.266 . S
O190 C187 1.252 . S
O191 In182 2.326 . S
O191 C187 1.260 . S
C192 O183 1.240 . S
C192 O184 1.252 . S
O193 In182 2.294 . S
O193 C186 1.240 . S
O194 In182 2.326 . S
O194 C186 1.252 . S
In195 O196 2.294 . S
In195 O197 2.326 . S
In195 O201 2.266 . S
In195 O202 2.326 1_455 S
In195 O203 2.266 1_455 S
In195 O204 2.326 1_455 S
In195 O206 2.294 1_455 S
In195 O207 2.326 . S
O196 In195 2.294 . S
O196 C205 1.240 . S
O197 In195 2.326 . S
O197 C205 1.252 . S
C198 O201 1.252 1_655 S
C198 O202 1.260 . S
C199 O206 1.240 1_455 S
C199 O207 1.252 . S
C200 O203 1.252 . S
C200 O204 1.260 . S
O201 In195 2.266 . S
O201 C198 1.252 1_455 S
O202 In195 2.326 1_655 S
O202 C198 1.260 . S
O203 In195 2.266 1_655 S
O203 C200 1.252 . S
O204 In195 2.326 1_655 S
O204 C200 1.260 . S
C205 O196 1.240 . S
C205 O197 1.252 . S
O206 In195 2.294 1_655 S
O206 C199 1.240 1_655 S
O207 In195 2.326 . S
O207 C199 1.252 . S
In208 O209 2.294 . S
In208 O210 2.326 . S
In208 O214 2.266 . S
In208 O215 2.326 . S
In208 O216 2.266 . S
In208 O217 2.326 . S
In208 O219 2.294 . S
In208 O220 2.326 . S
O209 In208 2.294 . S
O209 C218 1.240 . S
O210 In208 2.326 . S
O210 C218 1.252 . S
C211 O214 1.252 . S
C211 O215 1.260 . S
C212 O219 1.240 . S
C212 O220 1.252 . S
C213 O216 1.252 . S
C213 O217 1.260 . S
O214 In208 2.266 . S
O214 C211 1.252 . S
O215 In208 2.326 . S
O215 C211 1.260 . S
O216 In208 2.266 . S
O216 C213 1.252 . S
O217 In208 2.326 . S
O217 C213 1.260 . S
C218 O209 1.240 . S
C218 O210 1.252 . S
O219 In208 2.294 . S
O219 C212 1.240 . S
O220 In208 2.326 . S
O220 C212 1.252 . S
In221 O222 2.294 . S
In221 O223 2.326 . S
In221 O227 2.266 . S
In221 O228 2.326 . S
In221 O229 2.266 . S
In221 O230 2.326 . S
In221 O232 2.294 . S
In221 O233 2.326 . S
O222 In221 2.294 . S
O222 C231 1.240 . S
O223 In221 2.326 . S
O223 C231 1.252 . S
C224 O227 1.252 . S
C224 O228 1.260 . S
C225 O232 1.240 . S
C225 O233 1.252 . S
C226 O229 1.252 . S
C226 O230 1.260 . S
O227 In221 2.266 . S
O227 C224 1.252 . S
O228 In221 2.326 . S
O228 C224 1.260 . S
O229 In221 2.266 . S
O229 C226 1.252 . S
O230 In221 2.326 . S
O230 C226 1.260 . S
C231 O222 1.240 . S
C231 O223 1.252 . S
O232 In221 2.294 . S
O232 C225 1.240 . S
O233 In221 2.326 . S
O233 C225 1.252 . S
In234 O235 2.294 . S
In234 O236 2.326 . S
In234 O240 2.266 . S
In234 O241 2.326 . S
In234 O242 2.266 . S
In234 O243 2.326 . S
In234 O245 2.294 . S
In234 O246 2.326 . S
O235 In234 2.294 . S
O235 C244 1.240 . S
O236 In234 2.326 . S
O236 C244 1.252 . S
C237 O240 1.252 . S
C237 O241 1.260 . S
C238 O245 1.240 . S
C238 O246 1.252 . S
C239 O242 1.252 . S
C239 O243 1.260 . S
O240 In234 2.266 . S
O240 C237 1.252 . S
O241 In234 2.326 . S
O241 C237 1.260 . S
O242 In234 2.266 . S
O242 C239 1.252 . S
O243 In234 2.326 . S
O243 C239 1.260 . S
C244 O235 1.240 . S
C244 O236 1.252 . S
O245 In234 2.294 . S
O245 C238 1.240 . S
O246 In234 2.326 . S
O246 C238 1.252 . S
In247 O248 2.294 . S
In247 O249 2.326 . S
In247 O253 2.266 . S
In247 O254 2.326 . S
In247 O255 2.266 . S
In247 O256 2.326 . S
In247 O258 2.294 . S
In247 O259 2.326 . S
O248 In247 2.294 . S
O248 C257 1.240 . S
O249 In247 2.326 . S
O249 C257 1.252 . S
C250 O253 1.252 . S
C250 O254 1.260 . S
C251 O258 1.240 . S
C251 O259 1.252 . S
C252 O255 1.252 . S
C252 O256 1.260 . S
O253 In247 2.266 . S
O253 C250 1.252 . S
O254 In247 2.326 . S
O254 C250 1.260 . S
O255 In247 2.266 . S
O255 C252 1.252 . S
O256 In247 2.326 . S
O256 C252 1.260 . S
C257 O248 1.240 . S
C257 O249 1.252 . S
O258 In247 2.294 . S
O258 C251 1.240 . S
O259 In247 2.326 . S
O259 C251 1.252 . S
In260 O261 2.294 . S
In260 O262 2.326 . S
In260 O266 2.266 . S
In260 O267 2.326 . S
In260 O268 2.266 . S
In260 O269 2.326 . S
In260 O271 2.294 . S
In260 O272 2.326 . S
O261 In260 2.294 . S
O261 C270 1.240 . S
O262 In260 2.326 . S
O262 C270 1.252 . S
C263 O266 1.252 . S
C263 O267 1.260 . S
C264 O271 1.240 . S
C264 O272 1.252 . S
C265 O268 1.252 . S
C265 O269 1.260 . S
O266 In260 2.266 . S
O266 C263 1.252 . S
O267 In260 2.326 . S
O267 C263 1.260 . S
O268 In260 2.266 . S
O268 C265 1.252 . S
O269 In260 2.326 . S
O269 C265 1.260 . S
C270 O261 1.240 . S
C270 O262 1.252 . S
O271 In260 2.294 . S
O271 C264 1.240 . S
O272 In260 2.326 . S
O272 C264 1.252 . S
In273 O274 2.294 . S
In273 O275 2.326 . S
In273 O279 2.266 . S
In273 O280 2.326 . S
In273 O281 2.266 . S
In273 O282 2.326 . S
In273 O284 2.294 . S
In273 O285 2.326 . S
O274 In273 2.294 . S
O274 C283 1.240 . S
O275 In273 2.326 . S
O275 C283 1.252 . S
C276 O279 1.252 . S
C276 O280 1.260 . S
C277 O284 1.240 . S
C277 O285 1.252 . S
C278 O281 1.252 . S
C278 O282 1.260 . S
O279 In273 2.266 . S
O279 C276 1.252 . S
O280 In273 2.326 . S
O280 C276 1.260 . S
O281 In273 2.266 . S
O281 C278 1.252 . S
O282 In273 2.326 . S
O282 C278 1.260 . S
C283 O274 1.240 . S
C283 O275 1.252 . S
O284 In273 2.294 . S
O284 C277 1.240 . S
O285 In273 2.326 . S
O285 C277 1.252 . S
In286 O287 2.294 . S
In286 O288 2.326 . S
In286 O292 2.266 . S
In286 O293 2.326 . S
In286 O294 2.266 . S
In286 O295 2.326 . S
In286 O297 2.294 . S
In286 O298 2.326 . S
O287 In286 2.294 . S
O287 C296 1.240 . S
O288 In286 2.326 . S
O288 C296 1.252 . S
C289 O292 1.252 . S
C289 O293 1.260 . S
C290 O297 1.240 . S
C290 O298 1.252 . S
C291 O294 1.252 . S
C291 O295 1.260 . S
O292 In286 2.266 . S
O292 C289 1.252 . S
O293 In286 2.326 . S
O293 C289 1.260 . S
O294 In286 2.266 . S
O294 C291 1.252 . S
O295 In286 2.326 . S
O295 C291 1.260 . S
C296 O287 1.240 . S
C296 O288 1.252 . S
O297 In286 2.294 . S
O297 C290 1.240 . S
O298 In286 2.326 . S
O298 C290 1.252 . S
In299 O300 2.294 . S
In299 O301 2.326 . S
In299 O305 2.266 . S
In299 O306 2.326 . S
In299 O307 2.266 . S
In299 O308 2.326 . S
In299 O310 2.294 . S
In299 O311 2.326 . S
O300 In299 2.294 . S
O300 C309 1.240 . S
O301 In299 2.326 . S
O301 C309 1.252 . S
C302 O305 1.252 . S
C302 O306 1.260 . S
C303 O310 1.240 . S
C303 O311 1.252 . S
C304 O307 1.252 . S
C304 O308 1.260 . S
O305 In299 2.266 . S
O305 C302 1.252 . S
O306 In299 2.326 . S
O306 C302 1.260 . S
O307 In299 2.266 . S
O307 C304 1.252 . S
O308 In299 2.326 . S
O308 C304 1.260 . S
C309 O300 1.240 . S
C309 O301 1.252 . S
O310 In299 2.294 . S
O310 C303 1.240 . S
O311 In299 2.326 . S
O311 C303 1.252 . S
In312 O313 2.293 . S
In312 O314 2.326 1_554 S
In312 O318 2.265 . S
In312 O319 2.326 1_554 S
In312 O320 2.265 . S
In312 O321 2.323 . S
In312 O323 2.296 1_554 S
In312 O324 2.329 1_554 S
O313 In312 2.293 . S
O313 C322 1.240 . S
O314 In312 2.326 1_556 S
O314 C322 1.245 1_556 S
C315 O318 1.252 . S
C315 O319 1.260 1_554 S
C316 O323 1.240 . S
C316 O324 1.252 . S
C317 O320 1.252 . S
C317 O321 1.260 . S
O318 In312 2.265 . S
O318 C315 1.252 . S
O319 In312 2.326 1_556 S
O319 C315 1.260 1_556 S
O320 In312 2.265 . S
O320 C317 1.252 . S
O321 In312 2.323 . S
O321 C317 1.260 . S
C322 O313 1.240 . S
C322 O314 1.245 1_554 S
O323 In312 2.296 1_556 S
O323 C316 1.240 . S
O324 In312 2.329 1_556 S
O324 C316 1.252 . S
In325 O326 2.296 1_554 S
In325 O327 2.329 1_554 S
In325 O331 2.265 . S
In325 O332 2.323 . S
In325 O333 2.265 . S
In325 O334 2.326 1_554 S
In325 O336 2.293 . S
In325 O337 2.326 1_554 S
O326 In325 2.296 1_556 S
O326 C335 1.240 . S
O327 In325 2.329 1_556 S
O327 C335 1.252 . S
C328 O331 1.252 . S
C328 O332 1.260 . S
C329 O336 1.240 . S
C329 O337 1.245 1_554 S
C330 O333 1.252 . S
C330 O334 1.260 1_554 S
O331 In325 2.265 . S
O331 C328 1.252 . S
O332 In325 2.323 . S
O332 C328 1.260 . S
O333 In325 2.265 . S
O333 C330 1.252 . S
O334 In325 2.326 1_556 S
O334 C330 1.260 1_556 S
C335 O326 1.240 . S
C335 O327 1.252 . S
O336 In325 2.293 . S
O336 C329 1.240 . S
O337 In325 2.326 1_556 S
O337 C329 1.245 1_556 S
In338 O339 2.294 . S
In338 O340 2.326 . S
In338 O344 2.266 . S
In338 O345 2.326 . S
In338 O346 2.266 . S
In338 O347 2.326 . S
In338 O349 2.294 . S
In338 O350 2.326 . S
O339 In338 2.294 . S
O339 C348 1.240 . S
O340 In338 2.326 . S
O340 C348 1.252 . S
C341 O344 1.252 . S
C341 O345 1.260 . S
C342 O349 1.240 . S
C342 O350 1.252 . S
C343 O346 1.252 . S
C343 O347 1.260 . S
O344 In338 2.266 . S
O344 C341 1.252 . S
O345 In338 2.326 . S
O345 C341 1.260 . S
O346 In338 2.266 . S
O346 C343 1.252 . S
O347 In338 2.326 . S
O347 C343 1.260 . S
C348 O339 1.240 . S
C348 O340 1.252 . S
O349 In338 2.294 . S
O349 C342 1.240 . S
O350 In338 2.326 . S
O350 C342 1.252 . S
In351 O352 2.294 . S
In351 O353 2.326 . S
In351 O357 2.266 . S
In351 O358 2.326 . S
In351 O359 2.266 . S
In351 O360 2.326 . S
In351 O362 2.294 . S
In351 O363 2.326 . S
O352 In351 2.294 . S
O352 C361 1.240 . S
O353 In351 2.326 . S
O353 C361 1.252 . S
C354 O357 1.252 . S
C354 O358 1.260 . S
C355 O362 1.240 . S
C355 O363 1.252 . S
C356 O359 1.252 . S
C356 O360 1.260 . S
O357 In351 2.266 . S
O357 C354 1.252 . S
O358 In351 2.326 . S
O358 C354 1.260 . S
O359 In351 2.266 . S
O359 C356 1.252 . S
O360 In351 2.326 . S
O360 C356 1.260 . S
C361 O352 1.240 . S
C361 O353 1.252 . S
O362 In351 2.294 . S
O362 C355 1.240 . S
O363 In351 2.326 . S
O363 C355 1.252 . S
In364 O365 2.296 1_556 S
In364 O366 2.329 1_556 S
In364 O370 2.265 . S
In364 O371 2.323 . S
In364 O372 2.265 . S
In364 O373 2.326 1_556 S
In364 O375 2.293 . S
In364 O376 2.326 1_556 S
O365 In364 2.296 1_554 S
O365 C374 1.240 . S
O366 In364 2.329 1_554 S
O366 C374 1.252 . S
C367 O370 1.252 . S
C367 O371 1.260 . S
C368 O375 1.240 . S
C368 O376 1.245 1_556 S
C369 O372 1.252 . S
C369 O373 1.260 1_556 S
O370 In364 2.265 . S
O370 C367 1.252 . S
O371 In364 2.323 . S
O371 C367 1.260 . S
O372 In364 2.265 . S
O372 C369 1.252 . S
O373 In364 2.326 1_554 S
O373 C369 1.260 1_554 S
C374 O365 1.240 . S
C374 O366 1.252 . S
O375 In364 2.293 . S
O375 C368 1.240 . S
O376 In364 2.326 1_554 S
O376 C368 1.245 1_554 S
In377 O378 2.293 . S
In377 O379 2.326 1_556 S
In377 O383 2.265 . S
In377 O384 2.326 1_556 S
In377 O385 2.265 . S
In377 O386 2.323 . S
In377 O388 2.296 1_556 S
In377 O389 2.329 1_556 S
O378 In377 2.293 . S
O378 C387 1.240 . S
O379 In377 2.326 1_554 S
O379 C387 1.245 1_554 S
C380 O383 1.252 . S
C380 O384 1.260 1_556 S
C381 O388 1.240 . S
C381 O389 1.252 . S
C382 O385 1.252 . S
C382 O386 1.260 . S
O383 In377 2.265 . S
O383 C380 1.252 . S
O384 In377 2.326 1_554 S
O384 C380 1.260 1_554 S
O385 In377 2.265 . S
O385 C382 1.252 . S
O386 In377 2.323 . S
O386 C382 1.260 . S
C387 O378 1.240 . S
C387 O379 1.245 1_556 S
O388 In377 2.296 1_554 S
O388 C381 1.240 . S
O389 In377 2.329 1_554 S
O389 C381 1.252 . S
In390 O391 2.294 . S
In390 O392 2.326 . S
In390 O396 2.266 . S
In390 O397 2.326 . S
In390 O398 2.266 . S
In390 O399 2.326 . S
In390 O401 2.294 . S
In390 O402 2.326 . S
O391 In390 2.294 . S
O391 C400 1.240 . S
O392 In390 2.326 . S
O392 C400 1.252 . S
C393 O396 1.252 . S
C393 O397 1.260 . S
C394 O401 1.240 . S
C394 O402 1.252 . S
C395 O398 1.252 . S
C395 O399 1.260 . S
O396 In390 2.266 . S
O396 C393 1.252 . S
O397 In390 2.326 . S
O397 C393 1.260 . S
O398 In390 2.266 . S
O398 C395 1.252 . S
O399 In390 2.326 . S
O399 C395 1.260 . S
C400 O391 1.240 . S
C400 O392 1.252 . S
O401 In390 2.294 . S
O401 C394 1.240 . S
O402 In390 2.326 . S
O402 C394 1.252 . S
In403 O404 2.294 . S
In403 O405 2.326 . S
In403 O409 2.266 . S
In403 O410 2.326 . S
In403 O411 2.266 . S
In403 O412 2.326 . S
In403 O414 2.294 . S
In403 O415 2.326 . S
O404 In403 2.294 . S
O404 C413 1.240 . S
O405 In403 2.326 . S
O405 C413 1.252 . S
C406 O409 1.252 . S
C406 O410 1.260 . S
C407 O414 1.240 . S
C407 O415 1.252 . S
C408 O411 1.252 . S
C408 O412 1.260 . S
O409 In403 2.266 . S
O409 C406 1.252 . S
O410 In403 2.326 . S
O410 C406 1.260 . S
O411 In403 2.266 . S
O411 C408 1.252 . S
O412 In403 2.326 . S
O412 C408 1.260 . S
C413 O404 1.240 . S
C413 O405 1.252 . S
O414 In403 2.294 . S
O414 C407 1.240 . S
O415 In403 2.326 . S
O415 C407 1.252 . S
C416 C417 1.369 . S
C416 C418 1.419 . S
C416 H420 0.930 . S
C417 C416 1.369 . S
C417 C426 1.429 . S
C418 C416 1.419 . S
C418 C419 1.363 . S
C418 H421 0.929 . S
C419 C418 1.363 . S
C419 C425 1.428 . S
H420 C416 0.930 . S
H421 C418 0.929 . S
S422 N423 1.613 . S
S422 N424 1.610 . S
N423 S422 1.613 . S
N423 C426 1.350 1_655 S
N424 S422 1.610 . S
N424 C425 1.351 1_655 S
C425 C419 1.428 . S
C425 N424 1.351 1_455 S
C425 C426 1.434 . S
C426 C417 1.429 . S
C426 N423 1.350 1_455 S
C426 C425 1.434 . S
C427 C428 1.369 . S
C427 C429 1.419 . S
C427 H431 0.930 . S
C428 C427 1.369 . S
C428 C437 1.429 . S
C429 C427 1.419 . S
C429 C430 1.363 . S
C429 H432 0.929 . S
C430 C429 1.363 . S
C430 C436 1.428 . S
H431 C427 0.930 . S
H432 C429 0.929 . S
S433 N434 1.613 . S
S433 N435 1.610 . S
N434 S433 1.613 . S
N434 C437 1.350 . S
N435 S433 1.610 . S
N435 C436 1.351 . S
C436 C430 1.428 . S
C436 N435 1.351 . S
C436 C437 1.434 . S
C437 C428 1.429 . S
C437 N434 1.350 . S
C437 C436 1.434 . S
C438 C439 1.369 . S
C438 C440 1.419 . S
C438 H442 0.930 . S
C439 C438 1.369 . S
C439 C448 1.429 . S
C440 C438 1.419 . S
C440 C441 1.363 . S
C440 H443 0.929 . S
C441 C440 1.363 . S
C441 C447 1.428 . S
H442 C438 0.930 . S
H443 C440 0.929 . S
S444 N445 1.613 . S
S444 N446 1.610 . S
N445 S444 1.613 . S
N445 C448 1.350 . S
N446 S444 1.610 . S
N446 C447 1.351 . S
C447 C441 1.428 . S
C447 N446 1.351 . S
C447 C448 1.434 . S
C448 C439 1.429 . S
C448 N445 1.350 . S
C448 C447 1.434 . S
C449 C450 1.369 . S
C449 C451 1.419 . S
C449 H453 0.930 . S
C450 C449 1.369 . S
C450 C459 1.429 . S
C451 C449 1.419 . S
C451 C452 1.363 . S
C451 H454 0.929 . S
C452 C451 1.363 . S
C452 C458 1.428 . S
H453 C449 0.930 . S
H454 C451 0.929 . S
S455 N456 1.613 . S
S455 N457 1.610 . S
N456 S455 1.613 . S
N456 C459 1.350 . S
N457 S455 1.610 . S
N457 C458 1.351 . S
C458 C452 1.428 . S
C458 N457 1.351 . S
C458 C459 1.434 . S
C459 C450 1.429 . S
C459 N456 1.350 . S
C459 C458 1.434 . S
C460 C461 1.369 . S
C460 C462 1.419 . S
C460 H464 0.930 . S
C461 C460 1.369 . S
C461 C470 1.429 . S
C462 C460 1.419 . S
C462 C463 1.363 . S
C462 H465 0.929 . S
C463 C462 1.363 . S
C463 C469 1.428 . S
H464 C460 0.930 . S
H465 C462 0.929 . S
S466 N467 1.613 . S
S466 N468 1.610 . S
N467 S466 1.613 . S
N467 C470 1.350 . S
N468 S466 1.610 . S
N468 C469 1.351 . S
C469 C463 1.428 . S
C469 N468 1.351 . S
C469 C470 1.434 . S
C470 C461 1.429 . S
C470 N467 1.350 . S
C470 C469 1.434 . S
C471 C472 1.369 . S
C471 C473 1.419 . S
C471 H475 0.930 . S
C472 C471 1.369 . S
C472 C481 1.429 . S
C473 C471 1.419 . S
C473 C474 1.363 . S
C473 H476 0.929 . S
C474 C473 1.363 . S
C474 C480 1.428 . S
H475 C471 0.930 . S
H476 C473 0.929 . S
S477 N478 1.613 . S
S477 N479 1.610 . S
N478 S477 1.613 . S
N478 C481 1.350 . S
N479 S477 1.610 . S
N479 C480 1.351 . S
C480 C474 1.428 . S
C480 N479 1.351 . S
C480 C481 1.434 . S
C481 C472 1.429 . S
C481 N478 1.350 . S
C481 C480 1.434 . S
C482 C483 1.369 . S
C482 C484 1.419 . S
C482 H486 0.930 . S
C483 C482 1.369 . S
C483 C492 1.429 . S
C484 C482 1.419 . S
C484 C485 1.363 . S
C484 H487 0.929 . S
C485 C484 1.363 . S
C485 C491 1.428 . S
H486 C482 0.930 . S
H487 C484 0.929 . S
S488 N489 1.613 . S
S488 N490 1.610 . S
N489 S488 1.613 . S
N489 C492 1.350 . S
N490 S488 1.610 . S
N490 C491 1.351 . S
C491 C485 1.428 . S
C491 N490 1.351 . S
C491 C492 1.434 . S
C492 C483 1.429 . S
C492 N489 1.350 . S
C492 C491 1.434 . S
C493 C494 1.369 . S
C493 C495 1.419 . S
C493 H497 0.930 . S
C494 C493 1.369 . S
C494 C503 1.429 . S
C495 C493 1.419 . S
C495 C496 1.363 . S
C495 H498 0.929 . S
C496 C495 1.363 . S
C496 C502 1.428 . S
H497 C493 0.930 . S
H498 C495 0.929 . S
S499 N500 1.613 . S
S499 N501 1.610 . S
N500 S499 1.613 . S
N500 C503 1.350 1_455 S
N501 S499 1.610 . S
N501 C502 1.351 1_455 S
C502 C496 1.428 . S
C502 N501 1.351 1_655 S
C502 C503 1.434 . S
C503 C494 1.429 . S
C503 N500 1.350 1_655 S
C503 C502 1.434 . S
C504 C505 1.369 . S
C504 C506 1.419 . S
C504 H508 0.930 . S
C505 C504 1.369 . S
C505 C514 1.429 . S
C506 C504 1.419 . S
C506 C507 1.363 . S
C506 H509 0.929 . S
C507 C506 1.363 . S
C507 C513 1.428 . S
H508 C504 0.930 . S
H509 C506 0.929 . S
S510 N511 1.593 1_565 S
S510 N512 1.590 1_565 S
N511 S510 1.593 1_545 S
N511 C514 1.350 . S
N512 S510 1.590 1_545 S
N512 C513 1.351 . S
C513 C507 1.428 . S
C513 N512 1.351 . S
C513 C514 1.434 . S
C514 C505 1.429 . S
C514 N511 1.350 . S
C514 C513 1.434 . S
C515 C516 1.369 . S
C515 C517 1.419 . S
C515 H519 0.930 . S
C516 C515 1.369 . S
C516 C525 1.429 . S
C517 C515 1.419 . S
C517 C518 1.363 . S
C517 H520 0.929 . S
C518 C517 1.363 . S
C518 C524 1.428 . S
H519 C515 0.930 . S
H520 C517 0.929 . S
S521 N522 1.613 . S
S521 N523 1.610 . S
N522 S521 1.613 . S
N522 C525 1.350 . S
N523 S521 1.610 . S
N523 C524 1.351 . S
C524 C518 1.428 . S
C524 N523 1.351 . S
C524 C525 1.434 . S
C525 C516 1.429 . S
C525 N522 1.350 . S
C525 C524 1.434 . S
C526 C527 1.369 . S
C526 C528 1.419 . S
C526 H530 0.930 . S
C527 C526 1.369 . S
C527 C536 1.429 . S
C528 C526 1.419 . S
C528 C529 1.363 . S
C528 H531 0.929 . S
C529 C528 1.363 . S
C529 C535 1.428 . S
H530 C526 0.930 . S
H531 C528 0.929 . S
S532 N533 1.613 . S
S532 N534 1.610 . S
N533 S532 1.613 . S
N533 C536 1.350 . S
N534 S532 1.610 . S
N534 C535 1.351 . S
C535 C529 1.428 . S
C535 N534 1.351 . S
C535 C536 1.434 . S
C536 C527 1.429 . S
C536 N533 1.350 . S
C536 C535 1.434 . S
C537 C538 1.369 . S
C537 C539 1.419 . S
C537 H541 0.930 . S
C538 C537 1.369 . S
C538 C547 1.429 . S
C539 C537 1.419 . S
C539 C540 1.363 . S
C539 H542 0.929 . S
C540 C539 1.363 . S
C540 C546 1.428 . S
H541 C537 0.930 . S
H542 C539 0.929 . S
S543 N544 1.613 . S
S543 N545 1.610 . S
N544 S543 1.613 . S
N544 C547 1.350 . S
N545 S543 1.610 . S
N545 C546 1.351 . S
C546 C540 1.428 . S
C546 N545 1.351 . S
C546 C547 1.434 . S
C547 C538 1.429 . S
C547 N544 1.350 . S
C547 C546 1.434 . S
C548 C549 1.369 . S
C548 C550 1.419 . S
C548 H552 0.930 . S
C549 C548 1.369 . S
C549 C558 1.429 . S
C550 C548 1.419 . S
C550 C551 1.363 . S
C550 H553 0.929 . S
C551 C550 1.363 . S
C551 C557 1.428 . S
H552 C548 0.930 . S
H553 C550 0.929 . S
S554 N555 1.613 . S
S554 N556 1.610 . S
N555 S554 1.613 . S
N555 C558 1.350 . S
N556 S554 1.610 . S
N556 C557 1.351 . S
C557 C551 1.428 . S
C557 N556 1.351 . S
C557 C558 1.434 . S
C558 C549 1.429 . S
C558 N555 1.350 . S
C558 C557 1.434 . S
C559 C560 1.369 . S
C559 C561 1.419 . S
C559 H563 0.930 . S
C560 C559 1.369 . S
C560 C569 1.429 . S
C561 C559 1.419 . S
C561 C562 1.363 . S
C561 H564 0.929 . S
C562 C561 1.363 . S
C562 C568 1.428 . S
H563 C559 0.930 . S
H564 C561 0.929 . S
S565 N566 1.613 . S
S565 N567 1.610 . S
N566 S565 1.613 . S
N566 C569 1.350 . S
N567 S565 1.610 . S
N567 C568 1.351 . S
C568 C562 1.428 . S
C568 N567 1.351 . S
C568 C569 1.434 . S
C569 C560 1.429 . S
C569 N566 1.350 . S
C569 C568 1.434 . S
C570 C571 1.369 . S
C570 C572 1.419 . S
C570 H574 0.930 . S
C571 C570 1.369 . S
C571 C580 1.429 . S
C572 C570 1.419 . S
C572 C573 1.363 . S
C572 H575 0.929 . S
C573 C572 1.363 . S
C573 C579 1.428 . S
H574 C570 0.930 . S
H575 C572 0.929 . S
S576 N577 1.613 . S
S576 N578 1.610 . S
N577 S576 1.613 . S
N577 C580 1.350 . S
N578 S576 1.610 . S
N578 C579 1.351 . S
C579 C573 1.428 . S
C579 N578 1.351 . S
C579 C580 1.434 . S
C580 C571 1.429 . S
C580 N577 1.350 . S
C580 C579 1.434 . S
C581 C582 1.369 . S
C581 C583 1.419 . S
C581 H585 0.930 . S
C582 C581 1.369 . S
C582 C591 1.429 . S
C583 C581 1.419 . S
C583 C584 1.363 . S
C583 H586 0.929 . S
C584 C583 1.363 . S
C584 C590 1.428 . S
H585 C581 0.930 . S
H586 C583 0.929 . S
S587 N588 1.613 . S
S587 N589 1.610 . S
N588 S587 1.613 . S
N588 C591 1.350 . S
N589 S587 1.610 . S
N589 C590 1.351 . S
C590 C584 1.428 . S
C590 N589 1.351 . S
C590 C591 1.434 . S
C591 C582 1.429 . S
C591 N588 1.350 . S
C591 C590 1.434 . S
C592 C593 1.371 1_565 S
C592 C594 1.417 . S
C592 H596 0.928 . S
C593 C592 1.371 1_545 S
C593 C602 1.429 1_554 S
C594 C592 1.417 . S
C594 C595 1.363 1_554 S
C594 H597 0.929 . S
C595 C594 1.363 1_556 S
C595 C601 1.389 1_565 S
H596 C592 0.928 . S
H597 C594 0.929 . S
S598 N599 1.613 . S
S598 N600 1.610 . S
N599 S598 1.613 . S
N599 C602 1.350 . S
N600 S598 1.610 . S
N600 C601 1.359 . S
C601 C595 1.389 1_545 S
C601 N600 1.359 . S
C601 C602 1.472 . S
C602 C593 1.429 1_556 S
C602 N599 1.350 . S
C602 C601 1.472 . S
C603 C604 1.369 . S
C603 C605 1.419 . S
C603 H607 0.930 . S
C604 C603 1.369 . S
C604 C613 1.429 1_556 S
C605 C603 1.419 . S
C605 C606 1.363 1_556 S
C605 H608 0.929 . S
C606 C605 1.363 1_554 S
C606 C612 1.428 . S
H607 C603 0.930 . S
H608 C605 0.929 . S
S609 N610 1.613 . S
S609 N611 1.610 . S
N610 S609 1.613 . S
N610 C613 1.350 . S
N611 S609 1.610 . S
N611 C612 1.351 . S
C612 C606 1.428 . S
C612 N611 1.351 . S
C612 C613 1.434 . S
C613 C604 1.429 1_554 S
C613 N610 1.350 . S
C613 C612 1.434 . S
C614 C615 1.369 . S
C614 C616 1.419 . S
C614 H618 0.930 . S
C615 C614 1.369 . S
C615 C624 1.429 . S
C616 C614 1.419 . S
C616 C617 1.363 . S
C616 H619 0.929 . S
C617 C616 1.363 . S
C617 C623 1.428 . S
H618 C614 0.930 . S
H619 C616 0.929 . S
S620 N621 1.613 . S
S620 N622 1.610 . S
N621 S620 1.613 . S
N621 C624 1.350 . S
N622 S620 1.610 . S
N622 C623 1.351 . S
C623 C617 1.428 . S
C623 N622 1.351 . S
C623 C624 1.434 . S
C624 C615 1.429 . S
C624 N621 1.350 . S
C624 C623 1.434 . S
C625 C626 1.369 . S
C625 C627 1.419 1_565 S
C625 H629 0.930 . S
C626 C625 1.369 . S
C626 C635 1.429 . S
C627 C625 1.419 1_545 S
C627 C628 1.363 . S
C627 H630 0.929 . S
C628 C627 1.363 . S
C628 C634 1.428 . S
H629 C625 0.930 . S
H630 C627 0.929 . S
S631 N632 1.613 1_545 S
S631 N633 1.610 . S
N632 S631 1.613 1_565 S
N632 C635 1.350 . S
N633 S631 1.610 . S
N633 C634 1.351 . S
C634 C628 1.428 . S
C634 N633 1.351 . S
C634 C635 1.434 1_545 S
C635 C626 1.429 . S
C635 N632 1.350 . S
C635 C634 1.434 1_565 S
C636 C637 1.369 1_556 S
C636 C638 1.419 . S
C636 H640 0.930 . S
C637 C636 1.369 1_554 S
C637 C646 1.429 . S
C638 C636 1.419 . S
C638 C639 1.363 . S
C638 H641 0.929 . S
C639 C638 1.363 . S
C639 C645 1.428 1_556 S
H640 C636 0.930 . S
H641 C638 0.929 . S
S642 N643 1.613 . S
S642 N644 1.610 . S
N643 S642 1.613 . S
N643 C646 1.350 . S
N644 S642 1.610 . S
N644 C645 1.351 . S
C645 C639 1.428 1_554 S
C645 N644 1.351 . S
C645 C646 1.434 . S
C646 C637 1.429 . S
C646 N643 1.350 . S
C646 C645 1.434 . S
C647 C648 1.369 . S
C647 C649 1.419 . S
C647 H651 0.930 . S
C648 C647 1.369 . S
C648 C657 1.429 . S
C649 C647 1.419 . S
C649 C650 1.363 . S
C649 H652 0.929 . S
C650 C649 1.363 . S
C650 C656 1.428 . S
H651 C647 0.930 . S
H652 C649 0.929 . S
S653 N654 1.613 . S
S653 N655 1.610 . S
N654 S653 1.613 . S
N654 C657 1.350 . S
N655 S653 1.610 . S
N655 C656 1.351 . S
C656 C650 1.428 . S
C656 N655 1.351 . S
C656 C657 1.434 . S
C657 C648 1.429 . S
C657 N654 1.350 . S
C657 C656 1.434 . S
C658 C659 1.369 . S
C658 C660 1.419 1_565 S
C658 H662 0.930 . S
C659 C658 1.369 . S
C659 C668 1.429 . S
C660 C658 1.419 1_545 S
C660 C661 1.363 . S
C660 H663 0.929 . S
C661 C660 1.363 . S
C661 C667 1.428 . S
H662 C658 0.930 . S
H663 C660 0.929 . S
S664 N665 1.613 1_545 S
S664 N666 1.610 . S
N665 S664 1.613 1_565 S
N665 C668 1.350 . S
N666 S664 1.610 . S
N666 C667 1.351 . S
C667 C661 1.428 . S
C667 N666 1.351 . S
C667 C668 1.434 1_545 S
C668 C659 1.429 . S
C668 N665 1.350 . S
C668 C667 1.434 1_565 S
C669 C670 1.369 . S
C669 C671 1.419 . S
C669 H673 0.930 . S
C670 C669 1.369 . S
C670 C679 1.429 . S
C671 C669 1.419 . S
C671 C672 1.363 . S
C671 H674 0.929 . S
C672 C671 1.363 . S
C672 C678 1.428 . S
H673 C669 0.930 . S
H674 C671 0.929 . S
S675 N676 1.613 . S
S675 N677 1.610 . S
N676 S675 1.613 . S
N676 C679 1.350 . S
N677 S675 1.610 . S
N677 C678 1.351 . S
C678 C672 1.428 . S
C678 N677 1.351 . S
C678 C679 1.434 . S
C679 C670 1.429 . S
C679 N676 1.350 . S
C679 C678 1.434 . S
C680 C681 1.369 . S
C680 C682 1.419 . S
C680 H684 0.930 . S
C681 C680 1.369 . S
C681 C690 1.429 . S
C682 C680 1.419 . S
C682 C683 1.363 . S
C682 H685 0.929 . S
C683 C682 1.363 . S
C683 C689 1.428 . S
H684 C680 0.930 . S
H685 C682 0.929 . S
S686 N687 1.613 . S
S686 N688 1.610 . S
N687 S686 1.613 . S
N687 C690 1.350 . S
N688 S686 1.610 . S
N688 C689 1.351 . S
C689 C683 1.428 . S
C689 N688 1.351 . S
C689 C690 1.434 . S
C690 C681 1.429 . S
C690 N687 1.350 . S
C690 C689 1.434 . S
C691 C692 1.369 . S
C691 C693 1.419 . S
C691 H695 0.930 . S
C692 C691 1.369 . S
C692 C701 1.429 . S
C693 C691 1.419 . S
C693 C694 1.363 . S
C693 H696 0.929 . S
C694 C693 1.363 . S
C694 C700 1.428 . S
H695 C691 0.930 . S
H696 C693 0.929 . S
S697 N698 1.613 . S
S697 N699 1.610 . S
N698 S697 1.613 . S
N698 C701 1.350 . S
N699 S697 1.610 . S
N699 C700 1.351 . S
C700 C694 1.428 . S
C700 N699 1.351 . S
C700 C701 1.434 . S
C701 C692 1.429 . S
C701 N698 1.350 . S
C701 C700 1.434 . S
C702 C703 1.369 . S
C702 C704 1.419 . S
C702 H706 0.930 . S
C703 C702 1.369 . S
C703 C712 1.429 . S
C704 C702 1.419 . S
C704 C705 1.363 . S
C704 H707 0.929 . S
C705 C704 1.363 . S
C705 C711 1.428 . S
H706 C702 0.930 . S
H707 C704 0.929 . S
S708 N709 1.613 . S
S708 N710 1.610 . S
N709 S708 1.613 . S
N709 C712 1.350 . S
N710 S708 1.610 . S
N710 C711 1.351 . S
C711 C705 1.428 . S
C711 N710 1.351 . S
C711 C712 1.434 . S
C712 C703 1.429 . S
C712 N709 1.350 . S
C712 C711 1.434 . S
C713 C714 1.369 . S
C713 C715 1.419 . S
C713 H717 0.930 . S
C714 C713 1.369 . S
C714 C723 1.429 . S
C715 C713 1.419 . S
C715 C716 1.363 . S
C715 H718 0.929 . S
C716 C715 1.363 . S
C716 C722 1.428 . S
H717 C713 0.930 . S
H718 C715 0.929 . S
S719 N720 1.613 . S
S719 N721 1.610 . S
N720 S719 1.613 . S
N720 C723 1.350 . S
N721 S719 1.610 . S
N721 C722 1.351 . S
C722 C716 1.428 . S
C722 N721 1.351 . S
C722 C723 1.434 . S
C723 C714 1.429 . S
C723 N720 1.350 . S
C723 C722 1.434 . S
C724 C725 1.369 1_655 S
C724 C726 1.419 1_565 S
C724 H728 0.930 . S
C725 C724 1.369 1_455 S
C725 C734 1.429 . S
C726 C724 1.419 1_545 S
C726 C727 1.363 . S
C726 H729 0.929 . S
C727 C726 1.363 . S
C727 C733 1.428 1_655 S
H728 C724 0.930 . S
H729 C726 0.929 . S
S730 N731 1.613 1_545 S
S730 N732 1.610 . S
N731 S730 1.613 1_565 S
N731 C734 1.350 . S
N732 S730 1.610 . S
N732 C733 1.351 . S
C733 C727 1.428 1_455 S
C733 N732 1.351 . S
C733 C734 1.434 1_545 S
C734 C725 1.429 . S
C734 N731 1.350 . S
C734 C733 1.434 1_565 S
C735 C736 1.369 1_455 S
C735 C737 1.419 . S
C735 H739 0.930 . S
C736 C735 1.369 1_655 S
C736 C745 1.429 . S
C737 C735 1.419 . S
C737 C738 1.363 . S
C737 H740 0.929 . S
C738 C737 1.363 . S
C738 C744 1.428 1_455 S
H739 C735 0.930 . S
H740 C737 0.929 . S
S741 N742 1.613 . S
S741 N743 1.610 . S
N742 S741 1.613 . S
N742 C745 1.350 . S
N743 S741 1.610 . S
N743 C744 1.351 . S
C744 C738 1.428 1_655 S
C744 N743 1.351 . S
C744 C745 1.434 . S
C745 C736 1.429 . S
C745 N742 1.350 . S
C745 C744 1.434 . S
C746 C747 1.369 . S
C746 C748 1.419 1_455 S
C746 H750 0.930 . S
C747 C746 1.369 . S
C747 C756 1.429 . S
C748 C746 1.419 1_655 S
C748 C749 1.363 . S
C748 H751 0.929 . S
C749 C748 1.363 . S
C749 C755 1.428 . S
H750 C746 0.930 . S
H751 C748 0.929 . S
S752 N753 1.613 1_655 S
S752 N754 1.610 . S
N753 S752 1.613 1_455 S
N753 C756 1.350 . S
N754 S752 1.610 . S
N754 C755 1.351 . S
C755 C749 1.428 . S
C755 N754 1.351 . S
C755 C756 1.434 1_655 S
C756 C747 1.429 . S
C756 N753 1.350 . S
C756 C755 1.434 1_455 S
C757 C758 1.375 1_655 S
C757 C759 1.413 1_556 S
C757 H761 0.931 . S
C758 C757 1.375 1_455 S
C758 C767 1.429 . S
C759 C757 1.413 1_554 S
C759 C760 1.363 . S
C759 H762 0.929 . S
C760 C759 1.363 . S
C760 C766 1.428 1_655 S
H761 C757 0.931 . S
H762 C759 0.929 . S
S763 N764 1.613 . S
S763 N765 1.610 1_556 S
N764 S763 1.613 . S
N764 C767 1.350 . S
N765 S763 1.610 1_554 S
N765 C766 1.351 . S
C766 C760 1.428 1_455 S
C766 N765 1.351 . S
C766 C767 1.434 1_554 S
C767 C758 1.429 . S
C767 N764 1.350 . S
C767 C766 1.434 1_556 S
C768 C769 1.369 . S
C768 C770 1.419 . S
C768 H772 0.930 . S
C769 C768 1.369 . S
C769 C778 1.429 . S
C770 C768 1.419 . S
C770 C771 1.363 . S
C770 H773 0.929 . S
C771 C770 1.363 . S
C771 C777 1.428 . S
H772 C768 0.930 . S
H773 C770 0.929 . S
S774 N775 1.613 . S
S774 N776 1.610 . S
N775 S774 1.613 . S
N775 C778 1.350 . S
N776 S774 1.610 . S
N776 C777 1.351 . S
C777 C771 1.428 . S
C777 N776 1.351 . S
C777 C778 1.434 . S
C778 C769 1.429 . S
C778 N775 1.350 . S
C778 C777 1.434 . S
C779 C780 1.369 . S
C779 C781 1.419 . S
C779 H783 0.930 . S
C780 C779 1.369 . S
C780 C789 1.429 . S
C781 C779 1.419 . S
C781 C782 1.363 . S
C781 H784 0.929 . S
C782 C781 1.363 . S
C782 C788 1.428 . S
H783 C779 0.930 . S
H784 C781 0.929 . S
S785 N786 1.613 . S
S785 N787 1.610 . S
N786 S785 1.613 . S
N786 C789 1.350 . S
N787 S785 1.610 . S
N787 C788 1.351 . S
C788 C782 1.428 . S
C788 N787 1.351 . S
C788 C789 1.434 . S
C789 C780 1.429 . S
C789 N786 1.350 . S
C789 C788 1.434 . S
C790 C791 1.369 . S
C790 C792 1.419 . S
C790 H794 0.930 . S
C791 C790 1.369 . S
C791 C800 1.429 . S
C792 C790 1.419 . S
C792 C793 1.363 . S
C792 H795 0.929 . S
C793 C792 1.363 . S
C793 C799 1.428 . S
H794 C790 0.930 . S
H795 C792 0.929 . S
S796 N797 1.613 . S
S796 N798 1.610 . S
N797 S796 1.613 . S
N797 C800 1.350 . S
N798 S796 1.610 . S
N798 C799 1.351 . S
C799 C793 1.428 . S
C799 N798 1.351 . S
C799 C800 1.434 . S
C800 C791 1.429 . S
C800 N797 1.350 . S
C800 C799 1.434 . S
C801 C802 1.369 . S
C801 C803 1.419 . S
C801 H805 0.930 . S
C802 C801 1.369 . S
C802 C811 1.429 . S
C803 C801 1.419 . S
C803 C804 1.363 . S
C803 H806 0.929 . S
C804 C803 1.363 . S
C804 C810 1.428 . S
H805 C801 0.930 . S
H806 C803 0.929 . S
S807 N808 1.613 1_455 S
S807 N809 1.610 . S
N808 S807 1.613 1_655 S
N808 C811 1.350 . S
N809 S807 1.610 . S
N809 C810 1.351 1_455 S
C810 C804 1.428 . S
C810 N809 1.351 1_655 S
C810 C811 1.434 . S
C811 C802 1.429 . S
C811 N808 1.350 . S
C811 C810 1.434 . S
C812 C813 1.369 . S
C812 C814 1.419 . S
C812 H816 0.930 . S
C813 C812 1.369 . S
C813 C822 1.429 . S
C814 C812 1.419 . S
C814 C815 1.363 . S
C814 H817 0.929 . S
C815 C814 1.363 . S
C815 C821 1.428 . S
H816 C812 0.930 . S
H817 C814 0.929 . S
S818 N819 1.613 . S
S818 N820 1.610 . S
N819 S818 1.613 . S
N819 C822 1.350 . S
N820 S818 1.610 . S
N820 C821 1.351 . S
C821 C815 1.428 . S
C821 N820 1.351 . S
C821 C822 1.434 . S
C822 C813 1.429 . S
C822 N819 1.350 . S
C822 C821 1.434 . S
C823 C824 1.369 . S
C823 C825 1.419 . S
C823 H827 0.930 1_455 S
C824 C823 1.369 . S
C824 C833 1.429 . S
C825 C823 1.419 . S
C825 C826 1.363 . S
C825 H828 0.929 . S
C826 C825 1.363 . S
C826 C832 1.428 . S
H827 C823 0.930 1_655 S
H828 C825 0.929 . S
S829 N830 1.613 . S
S829 N831 1.610 . S
N830 S829 1.613 . S
N830 C833 1.350 . S
N831 S829 1.610 . S
N831 C832 1.351 . S
C832 C826 1.428 . S
C832 N831 1.351 . S
C832 C833 1.434 . S
C833 C824 1.429 . S
C833 N830 1.350 . S
C833 C832 1.434 . S
C834 C835 1.369 . S
C834 C836 1.419 . S
C834 H838 0.930 . S
C835 C834 1.369 . S
C835 C844 1.429 . S
C836 C834 1.419 . S
C836 C837 1.363 . S
C836 H839 0.929 . S
C837 C836 1.363 . S
C837 C843 1.428 . S
H838 C834 0.930 . S
H839 C836 0.929 . S
S840 N841 1.613 . S
S840 N842 1.610 . S
N841 S840 1.613 . S
N841 C844 1.350 . S
N842 S840 1.610 . S
N842 C843 1.351 . S
C843 C837 1.428 . S
C843 N842 1.351 . S
C843 C844 1.434 . S
C844 C835 1.429 . S
C844 N841 1.350 . S
C844 C843 1.434 . S
C845 C846 1.369 . S
C845 C847 1.419 . S
C845 H849 0.930 . S
C846 C845 1.369 . S
C846 C855 1.429 . S
C847 C845 1.419 . S
C847 C848 1.363 . S
C847 H850 0.929 . S
C848 C847 1.363 . S
C848 C854 1.428 . S
H849 C845 0.930 . S
H850 C847 0.929 . S
S851 N852 1.613 . S
S851 N853 1.610 . S
N852 S851 1.613 . S
N852 C855 1.350 . S
N853 S851 1.610 . S
N853 C854 1.351 . S
C854 C848 1.428 . S
C854 N853 1.351 . S
C854 C855 1.434 . S
C855 C846 1.429 . S
C855 N852 1.350 . S
C855 C854 1.434 . S
C856 C857 1.369 . S
C856 C858 1.419 . S
C856 H860 0.930 . S
C857 C856 1.369 . S
C857 C866 1.429 . S
C858 C856 1.419 . S
C858 C859 1.363 . S
C858 H861 0.929 . S
C859 C858 1.363 . S
C859 C865 1.428 . S
H860 C856 0.930 . S
H861 C858 0.929 . S
S862 N863 1.613 . S
S862 N864 1.610 . S
N863 S862 1.613 . S
N863 C866 1.350 . S
N864 S862 1.610 . S
N864 C865 1.351 . S
C865 C859 1.428 . S
C865 N864 1.351 . S
C865 C866 1.434 . S
C866 C857 1.429 . S
C866 N863 1.350 . S
C866 C865 1.434 . S
C867 C868 1.369 . S
C867 C869 1.419 . S
C867 H871 0.930 . S
C868 C867 1.369 . S
C868 C877 1.429 . S
C869 C867 1.419 . S
C869 C870 1.363 . S
C869 H872 0.929 . S
C870 C869 1.363 . S
C870 C876 1.428 . S
H871 C867 0.930 . S
H872 C869 0.929 . S
S873 N874 1.613 . S
S873 N875 1.610 1_655 S
N874 S873 1.613 . S
N874 C877 1.350 . S
N875 S873 1.610 1_455 S
N875 C876 1.351 1_455 S
C876 C870 1.428 . S
C876 N875 1.351 1_655 S
C876 C877 1.434 . S
C877 C868 1.429 . S
C877 N874 1.350 . S
C877 C876 1.434 . S
C878 C879 1.369 . S
C878 C880 1.419 . S
C878 H882 0.930 . S
C879 C878 1.369 . S
C879 C888 1.429 . S
C880 C878 1.419 . S
C880 C881 1.363 . S
C880 H883 0.929 . S
C881 C880 1.363 . S
C881 C887 1.428 . S
H882 C878 0.930 . S
H883 C880 0.929 . S
S884 N885 1.613 . S
S884 N886 1.610 . S
N885 S884 1.613 . S
N885 C888 1.350 . S
N886 S884 1.610 . S
N886 C887 1.351 . S
C887 C881 1.428 . S
C887 N886 1.351 . S
C887 C888 1.434 . S
C888 C879 1.429 . S
C888 N885 1.350 . S
C888 C887 1.434 . S
C889 C890 1.369 . S
C889 C891 1.419 . S
C889 H893 0.930 . S
C890 C889 1.369 . S
C890 C899 1.429 . S
C891 C889 1.419 . S
C891 C892 1.363 . S
C891 H894 0.929 . S
C892 C891 1.363 . S
C892 C898 1.428 . S
H893 C889 0.930 . S
H894 C891 0.929 . S
S895 N896 1.613 . S
S895 N897 1.610 . S
N896 S895 1.613 . S
N896 C899 1.350 . S
N897 S895 1.610 . S
N897 C898 1.351 . S
C898 C892 1.428 . S
C898 N897 1.351 . S
C898 C899 1.434 . S
C899 C890 1.429 . S
C899 N896 1.350 . S
C899 C898 1.434 . S
C900 C901 1.369 . S
C900 C902 1.419 . S
C900 H904 0.930 . S
C901 C900 1.369 . S
C901 C910 1.429 . S
C902 C900 1.419 . S
C902 C903 1.363 . S
C902 H905 0.929 . S
C903 C902 1.363 . S
C903 C909 1.428 . S
H904 C900 0.930 . S
H905 C902 0.929 . S
S906 N907 1.613 . S
S906 N908 1.610 . S
N907 S906 1.613 . S
N907 C910 1.350 . S
N908 S906 1.610 . S
N908 C909 1.351 . S
C909 C903 1.428 . S
C909 N908 1.351 . S
C909 C910 1.434 . S
C910 C901 1.429 . S
C910 N907 1.350 . S
C910 C909 1.434 . S
C911 C912 1.369 . S
C911 C913 1.419 . S
C911 H915 0.930 . S
C912 C911 1.369 . S
C912 C921 1.429 . S
C913 C911 1.419 . S
C913 C914 1.363 . S
C913 H916 0.929 . S
C914 C913 1.363 . S
C914 C920 1.428 . S
H915 C911 0.930 . S
H916 C913 0.929 . S
S917 N918 1.613 . S
S917 N919 1.610 1_655 S
N918 S917 1.613 . S
N918 C921 1.350 1_655 S
N919 S917 1.610 1_455 S
N919 C920 1.351 . S
C920 C914 1.428 . S
C920 N919 1.351 . S
C920 C921 1.434 . S
C921 C912 1.429 . S
C921 N918 1.350 1_455 S
C921 C920 1.434 . S
C922 C923 1.369 . S
C922 C924 1.419 . S
C922 H926 0.930 . S
C923 C922 1.369 . S
C923 C932 1.429 . S
C924 C922 1.419 . S
C924 C925 1.363 . S
C924 H927 0.929 . S
C925 C924 1.363 . S
C925 C931 1.428 . S
H926 C922 0.930 . S
H927 C924 0.929 . S
S928 N929 1.613 . S
S928 N930 1.610 . S
N929 S928 1.613 . S
N929 C932 1.350 . S
N930 S928 1.610 . S
N930 C931 1.351 . S
C931 C925 1.428 . S
C931 N930 1.351 . S
C931 C932 1.434 . S
C932 C923 1.429 . S
C932 N929 1.350 . S
C932 C931 1.434 . S
C933 C934 1.369 . S
C933 C935 1.419 . S
C933 H937 0.930 . S
C934 C933 1.369 . S
C934 C943 1.429 . S
C935 C933 1.419 . S
C935 C936 1.363 . S
C935 H938 0.929 . S
C936 C935 1.363 . S
C936 C942 1.428 . S
H937 C933 0.930 . S
H938 C935 0.929 . S
S939 N940 1.613 . S
S939 N941 1.610 . S
N940 S939 1.613 . S
N940 C943 1.350 . S
N941 S939 1.610 . S
N941 C942 1.351 . S
C942 C936 1.428 . S
C942 N941 1.351 . S
C942 C943 1.434 . S
C943 C934 1.429 . S
C943 N940 1.350 . S
C943 C942 1.434 . S
C944 C945 1.369 . S
C944 C946 1.419 . S
C944 H948 0.930 . S
C945 C944 1.369 . S
C945 C954 1.429 . S
C946 C944 1.419 . S
C946 C947 1.363 . S
C946 H949 0.929 . S
C947 C946 1.363 . S
C947 C953 1.428 . S
H948 C944 0.930 . S
H949 C946 0.929 . S
S950 N951 1.613 . S
S950 N952 1.610 1_655 S
N951 S950 1.613 . S
N951 C954 1.350 1_655 S
N952 S950 1.610 1_455 S
N952 C953 1.351 . S
C953 C947 1.428 . S
C953 N952 1.351 . S
C953 C954 1.434 . S
C954 C945 1.429 . S
C954 N951 1.350 1_455 S
C954 C953 1.434 . S
C955 C956 1.369 . S
C955 C957 1.419 . S
C955 H959 0.930 . S
C956 C955 1.369 . S
C956 C965 1.429 . S
C957 C955 1.419 . S
C957 C958 1.363 . S
C957 H960 0.929 1_455 S
C958 C957 1.363 . S
C958 C964 1.428 . S
H959 C955 0.930 . S
H960 C957 0.929 1_655 S
S961 N962 1.613 . S
S961 N963 1.610 . S
N962 S961 1.613 . S
N962 C965 1.350 . S
N963 S961 1.610 . S
N963 C964 1.351 . S
C964 C958 1.428 . S
C964 N963 1.351 . S
C964 C965 1.434 . S
C965 C956 1.429 . S
C965 N962 1.350 . S
C965 C964 1.434 . S
C966 C967 1.369 1_554 S
C966 C968 1.419 . S
C966 H970 0.930 . S
C967 C966 1.369 1_556 S
C967 C976 1.429 . S
C968 C966 1.419 . S
C968 C969 1.363 1_554 S
C968 H971 0.929 . S
C969 C968 1.363 1_556 S
C969 C975 1.428 . S
H970 C966 0.930 . S
H971 C968 0.929 . S
S972 N973 1.613 . S
S972 N974 1.610 . S
N973 S972 1.613 . S
N973 C976 1.350 . S
N974 S972 1.610 . S
N974 C975 1.351 . S
C975 C969 1.428 . S
C975 N974 1.351 . S
C975 C976 1.434 . S
C976 C967 1.429 . S
C976 N973 1.350 . S
C976 C975 1.434 . S
C977 C978 1.369 . S
C977 C979 1.419 . S
C977 H981 0.930 . S
C978 C977 1.369 . S
C978 C987 1.429 . S
C979 C977 1.419 . S
C979 C980 1.363 . S
C979 H982 0.929 . S
C980 C979 1.363 . S
C980 C986 1.428 . S
H981 C977 0.930 . S
H982 C979 0.929 . S
S983 N984 1.613 . S
S983 N985 1.610 . S
N984 S983 1.613 . S
N984 C987 1.350 . S
N985 S983 1.610 . S
N985 C986 1.351 . S
C986 C980 1.428 . S
C986 N985 1.351 . S
C986 C987 1.434 . S
C987 C978 1.429 . S
C987 N984 1.350 . S
C987 C986 1.434 . S
C988 C989 1.369 . S
C988 C990 1.419 . S
C988 H992 0.930 . S
C989 C988 1.369 . S
C989 C998 1.429 . S
C990 C988 1.419 . S
C990 C991 1.363 . S
C990 H993 0.929 . S
C991 C990 1.363 . S
C991 C997 1.428 . S
H992 C988 0.930 . S
H993 C990 0.929 . S
S994 N995 1.613 . S
S994 N996 1.610 . S
N995 S994 1.613 . S
N995 C998 1.350 . S
N996 S994 1.610 . S
N996 C997 1.351 . S
C997 C991 1.428 . S
C997 N996 1.351 . S
C997 C998 1.434 . S
C998 C989 1.429 . S
C998 N995 1.350 . S
C998 C997 1.434 . S
C999 C1000 1.369 . S
C999 C1001 1.419 . S
C999 H1003 0.930 . S
C1000 C999 1.369 . S
C1000 C1009 1.429 . S
C1001 C999 1.419 . S
C1001 C1002 1.363 . S
C1001 H1004 0.929 . S
C1002 C1001 1.363 . S
C1002 C1008 1.428 . S
H1003 C999 0.930 . S
H1004 C1001 0.929 . S
S1005 N1006 1.613 . S
S1005 N1007 1.610 . S
N1006 S1005 1.613 . S
N1006 C1009 1.350 . S
N1007 S1005 1.610 . S
N1007 C1008 1.351 . S
C1008 C1002 1.428 . S
C1008 N1007 1.351 . S
C1008 C1009 1.434 . S
C1009 C1000 1.429 . S
C1009 N1006 1.350 . S
C1009 C1008 1.434 . S
C1010 C1011 1.369 . S
C1010 C1012 1.419 . S
C1010 H1014 0.930 . S
C1011 C1010 1.369 . S
C1011 C1020 1.429 . S
C1012 C1010 1.419 . S
C1012 C1013 1.363 . S
C1012 H1015 0.929 . S
C1013 C1012 1.363 . S
C1013 C1019 1.428 . S
H1014 C1010 0.930 . S
H1015 C1012 0.929 . S
S1016 N1017 1.613 1_455 S
S1016 N1018 1.610 . S
N1017 S1016 1.613 1_655 S
N1017 C1020 1.350 . S
N1018 S1016 1.610 . S
N1018 C1019 1.351 1_455 S
C1019 C1013 1.428 . S
C1019 N1018 1.351 1_655 S
C1019 C1020 1.434 . S
C1020 C1011 1.429 . S
C1020 N1017 1.350 . S
C1020 C1019 1.434 . S
C1021 C1022 1.369 . S
C1021 C1023 1.419 . S
C1021 H1025 0.930 . S
C1022 C1021 1.369 . S
C1022 C1031 1.429 . S
C1023 C1021 1.419 . S
C1023 C1024 1.363 . S
C1023 H1026 0.929 . S
C1024 C1023 1.363 . S
C1024 C1030 1.428 . S
H1025 C1021 0.930 . S
H1026 C1023 0.929 . S
S1027 N1028 1.613 1_455 S
S1027 N1029 1.610 . S
N1028 S1027 1.613 1_655 S
N1028 C1031 1.350 . S
N1029 S1027 1.610 . S
N1029 C1030 1.351 1_455 S
C1030 C1024 1.428 . S
C1030 N1029 1.351 1_655 S
C1030 C1031 1.434 . S
C1031 C1022 1.429 . S
C1031 N1028 1.350 . S
C1031 C1030 1.434 . S
C1032 C1033 1.369 . S
C1032 C1034 1.419 . S
C1032 H1036 0.930 . S
C1033 C1032 1.369 . S
C1033 C1042 1.429 . S
C1034 C1032 1.419 . S
C1034 C1035 1.363 . S
C1034 H1037 0.929 . S
C1035 C1034 1.363 . S
C1035 C1041 1.428 . S
H1036 C1032 0.930 . S
H1037 C1034 0.929 . S
S1038 N1039 1.613 . S
S1038 N1040 1.610 . S
N1039 S1038 1.613 . S
N1039 C1042 1.350 . S
N1040 S1038 1.610 . S
N1040 C1041 1.351 . S
C1041 C1035 1.428 . S
C1041 N1040 1.351 . S
C1041 C1042 1.434 . S
C1042 C1033 1.429 . S
C1042 N1039 1.350 . S
C1042 C1041 1.434 . S
C1043 C1044 1.369 . S
C1043 C1045 1.419 . S
C1043 H1047 0.930 . S
C1044 C1043 1.369 . S
C1044 C1053 1.429 . S
C1045 C1043 1.419 . S
C1045 C1046 1.363 . S
C1045 H1048 0.929 . S
C1046 C1045 1.363 . S
C1046 C1052 1.428 . S
H1047 C1043 0.930 . S
H1048 C1045 0.929 . S
S1049 N1050 1.613 . S
S1049 N1051 1.610 . S
N1050 S1049 1.613 . S
N1050 C1053 1.350 . S
N1051 S1049 1.610 . S
N1051 C1052 1.351 . S
C1052 C1046 1.428 . S
C1052 N1051 1.351 . S
C1052 C1053 1.434 . S
C1053 C1044 1.429 . S
C1053 N1050 1.350 . S
C1053 C1052 1.434 . S
C1054 C1055 1.369 . S
C1054 C1056 1.419 . S
C1054 H1058 0.930 . S
C1055 C1054 1.369 . S
C1055 C1064 1.429 . S
C1056 C1054 1.419 . S
C1056 C1057 1.363 . S
C1056 H1059 0.929 . S
C1057 C1056 1.363 . S
C1057 C1063 1.428 . S
H1058 C1054 0.930 . S
H1059 C1056 0.929 . S
S1060 N1061 1.613 . S
S1060 N1062 1.610 . S
N1061 S1060 1.613 . S
N1061 C1064 1.350 . S
N1062 S1060 1.610 . S
N1062 C1063 1.351 . S
C1063 C1057 1.428 . S
C1063 N1062 1.351 . S
C1063 C1064 1.434 . S
C1064 C1055 1.429 . S
C1064 N1061 1.350 . S
C1064 C1063 1.434 . S
C1065 C1066 1.369 . S
C1065 C1067 1.419 . S
C1065 H1069 0.930 . S
C1066 C1065 1.369 . S
C1066 C1075 1.429 . S
C1067 C1065 1.419 . S
C1067 C1068 1.363 . S
C1067 H1070 0.929 . S
C1068 C1067 1.363 . S
C1068 C1074 1.428 . S
H1069 C1065 0.930 . S
H1070 C1067 0.929 . S
S1071 N1072 1.613 . S
S1071 N1073 1.610 . S
N1072 S1071 1.613 . S
N1072 C1075 1.350 . S
N1073 S1071 1.610 . S
N1073 C1074 1.351 . S
C1074 C1068 1.428 . S
C1074 N1073 1.351 . S
C1074 C1075 1.434 . S
C1075 C1066 1.429 . S
C1075 N1072 1.350 . S
C1075 C1074 1.434 . S
C1076 C1077 1.369 1_556 S
C1076 C1078 1.419 . S
C1076 H1080 0.930 . S
C1077 C1076 1.369 1_554 S
C1077 C1086 1.429 . S
C1078 C1076 1.419 . S
C1078 C1079 1.363 1_556 S
C1078 H1081 0.929 . S
C1079 C1078 1.363 1_554 S
C1079 C1085 1.428 . S
H1080 C1076 0.930 . S
H1081 C1078 0.929 . S
S1082 N1083 1.613 . S
S1082 N1084 1.610 . S
N1083 S1082 1.613 . S
N1083 C1086 1.350 . S
N1084 S1082 1.610 . S
N1084 C1085 1.351 . S
C1085 C1079 1.428 . S
C1085 N1084 1.351 . S
C1085 C1086 1.434 . S
C1086 C1077 1.429 . S
C1086 N1083 1.350 . S
C1086 C1085 1.434 . S
C1087 C1088 1.369 . S
C1087 C1089 1.419 . S
C1087 H1091 0.930 . S
C1088 C1087 1.369 . S
C1088 C1097 1.429 . S
C1089 C1087 1.419 . S
C1089 C1090 1.363 . S
C1089 H1092 0.929 . S
C1090 C1089 1.363 . S
C1090 C1096 1.428 . S
H1091 C1087 0.930 . S
H1092 C1089 0.929 . S
S1093 N1094 1.613 . S
S1093 N1095 1.610 . S
N1094 S1093 1.613 . S
N1094 C1097 1.350 . S
N1095 S1093 1.610 . S
N1095 C1096 1.351 . S
C1096 C1090 1.428 . S
C1096 N1095 1.351 . S
C1096 C1097 1.434 . S
C1097 C1088 1.429 . S
C1097 N1094 1.350 . S
C1097 C1096 1.434 . S
C1098 C1099 1.369 1_554 S
C1098 C1100 1.419 . S
C1098 H1102 0.930 . S
C1099 C1098 1.369 1_556 S
C1099 C1108 1.429 . S
C1100 C1098 1.419 . S
C1100 C1101 1.363 1_554 S
C1100 H1103 0.929 . S
C1101 C1100 1.363 1_556 S
C1101 C1107 1.428 . S
H1102 C1098 0.930 . S
H1103 C1100 0.929 . S
S1104 N1105 1.613 . S
S1104 N1106 1.610 . S
N1105 S1104 1.613 . S
N1105 C1108 1.350 . S
N1106 S1104 1.610 . S
N1106 C1107 1.351 . S
C1107 C1101 1.428 . S
C1107 N1106 1.351 . S
C1107 C1108 1.434 . S
C1108 C1099 1.429 . S
C1108 N1105 1.350 . S
C1108 C1107 1.434 . S
C1109 C1110 1.369 . S
C1109 C1111 1.419 . S
C1109 H1113 0.930 . S
C1110 C1109 1.369 . S
C1110 C1119 1.429 . S
C1111 C1109 1.419 . S
C1111 C1112 1.363 . S
C1111 H1114 0.929 . S
C1112 C1111 1.363 . S
C1112 C1118 1.428 . S
H1113 C1109 0.930 . S
H1114 C1111 0.929 . S
S1115 N1116 1.613 . S
S1115 N1117 1.610 . S
N1116 S1115 1.613 . S
N1116 C1119 1.350 . S
N1117 S1115 1.610 . S
N1117 C1118 1.351 . S
C1118 C1112 1.428 . S
C1118 N1117 1.351 . S
C1118 C1119 1.434 . S
C1119 C1110 1.429 . S
C1119 N1116 1.350 . S
C1119 C1118 1.434 . S
C417 C3 1.624 . S
C419 C44 1.608 . S
C428 C31 1.615 . S
C430 C16 1.618 . S
C439 C94 1.621 . S
C441 C57 1.613 . S
C450 C81 1.615 . S
C452 C68 1.618 . S
C461 C107 1.635 . S
C463 C146 1.636 . S
C472 C120 1.635 . S
C474 C133 1.631 . S
C483 C200 1.640 . S
C485 C161 1.632 . S
C494 C185 1.640 . S
C496 C172 1.631 . S
C505 C211 1.635 . S
C507 C252 1.637 . S
C516 C224 1.636 . S
C518 C239 1.635 . S
C527 C265 1.633 . S
C529 C302 1.633 . S
C538 C278 1.631 . S
C540 C289 1.634 . S
C549 C317 1.620 . S
C551 C354 1.608 . S
C560 C341 1.612 . S
C562 C328 1.620 . S
C571 C406 1.618 . S
C573 C367 1.616 . S
C582 C393 1.617 . S
C584 C382 1.613 . S
C593 C4 1.358 . S
C595 C62 1.356 . S
C604 C387 1.352 . S
C606 C17 1.361 . S
C615 C36 1.367 . S
C617 C186 1.361 . S
C626 C303 1.361 . S
C628 C49 1.366 . S
C637 C329 1.360 . S
C639 C69 1.354 . S
C648 C82 1.366 . S
C650 C134 1.362 . S
C659 C95 1.365 . S
C661 C257 1.363 . S
C670 C166 1.360 . S
C672 C108 1.360 . S
C681 C283 1.365 . S
C683 C121 1.357 . S
C692 C147 1.361 . S
C694 C407 1.366 . S
C703 C173 1.356 . S
C705 C225 1.363 . S
C714 C205 1.364 . S
C716 C355 1.364 . S
C725 C270 1.356 . S
C727 C212 1.364 . S
C736 C244 1.363 . S
C738 C394 1.365 . S
C747 C290 1.363 . S
C749 C342 1.365 . S
C758 C368 1.352 . S
C760 C322 1.361 . S
C769 C10 1.535 . S
C771 C251 1.531 . S
C780 C23 1.532 . S
C782 C238 1.533 . S
C791 C231 1.531 . S
C793 C30 1.523 . S
C802 C218 1.521 . S
C804 C43 1.531 . S
C813 C56 1.526 . S
C815 C309 1.540 . S
C824 C75 1.527 . S
C826 C296 1.540 . S
C835 C88 1.525 . S
C837 C277 1.532 . S
C846 C264 1.523 . S
C848 C101 1.528 . S
C857 C114 1.528 . S
C859 C361 1.525 . S
C868 C348 1.522 . S
C870 C127 1.532 . S
C879 C335 1.537 . S
C881 C140 1.530 . S
C890 C153 1.534 . S
C892 C316 1.536 . S
C901 C160 1.520 . S
C903 C413 1.532 . S
C912 C179 1.533 . S
C914 C400 1.523 . S
C923 C381 1.527 . S
C925 C192 1.540 . S
C934 C199 1.536 . S
C936 C374 1.535 . S
C945 C18 1.453 . S
C947 C5 1.447 . S
C956 C29 1.449 . S
C958 C42 1.443 . S
C967 C70 1.450 . S
C969 C55 1.450 . S
C978 C83 1.446 . S
C980 C96 1.447 . S
C989 C122 1.447 . S
C991 C109 1.444 . S
C1000 C135 1.444 . S
C1002 C148 1.442 . S
C1011 C159 1.444 . S
C1013 C174 1.448 . S
C1022 C187 1.441 . S
C1024 C198 1.446 . S
C1033 C213 1.446 . S
C1035 C226 1.444 . S
C1044 C250 1.441 . S
C1046 C237 1.444 . S
C1055 C263 1.442 . S
C1057 C276 1.448 . S
C1066 C304 1.447 . S
C1068 C291 1.442 . S
C1077 C330 1.446 . S
C1079 C315 1.452 . S
C1088 C343 1.442 . S
C1090 C356 1.448 . S
C1099 C369 1.451 . S
C1101 C380 1.450 . S
C1110 C408 1.449 . S
C1112 C395 1.443 . S
