# Generated by pormake.
# Topology wme, (6)-cn, num edge types: 1
# Building blocks:
#     Node 0, Type 0, BuildingBlock: CUKXOW_clean_sbu_0, # of connection points: 6
#     Node 1, Type 0, BuildingBlock: CUKXOW_clean_sbu_0, # of connection points: 6
#     Node 2, Type 0, BuildingBlock: CUKXOW_clean_sbu_0, # of connection points: 6
#     Node 3, Type 0, BuildingBlock: CUKXOW_clean_sbu_0, # of connection points: 6
#     Node 4, Type 0, BuildingBlock: CUKXOW_clean_sbu_0, # of connection points: 6
#     Node 5, Type 0, BuildingBlock: CUKXOW_clean_sbu_0, # of connection points: 6
#     Node 6, Type 0, BuildingBlock: CUKXOW_clean_sbu_0, # of connection points: 6
#     Node 7, Type 0, BuildingBlock: CUKXOW_clean_sbu_0, # of connection points: 6
#     Node 8, Type 0, BuildingBlock: CUKXOW_clean_sbu_0, # of connection points: 6
#     Node 9, Type 0, BuildingBlock: CUKXOW_clean_sbu_0, # of connection points: 6
#     Node 10, Type 0, BuildingBlock: CUKXOW_clean_sbu_0, # of connection points: 6
#     Node 11, Type 0, BuildingBlock: CUKXOW_clean_sbu_0, # of connection points: 6
#     Edge 12, Type (0, 0), BuildingBlock: OJICUG_clean_linker_0, # of connection points: 2
#     Edge 13, Type (0, 0), BuildingBlock: OJICUG_clean_linker_0, # of connection points: 2
#     Edge 14, Type (0, 0), BuildingBlock: OJICUG_clean_linker_0, # of connection points: 2
#     Edge 15, Type (0, 0), BuildingBlock: OJICUG_clean_linker_0, # of connection points: 2
#     Edge 16, Type (0, 0), BuildingBlock: OJICUG_clean_linker_0, # of connection points: 2
#     Edge 17, Type (0, 0), BuildingBlock: OJICUG_clean_linker_0, # of connection points: 2
#     Edge 18, Type (0, 0), BuildingBlock: OJICUG_clean_linker_0, # of connection points: 2
#     Edge 19, Type (0, 0), BuildingBlock: OJICUG_clean_linker_0, # of connection points: 2
#     Edge 20, Type (0, 0), BuildingBlock: OJICUG_clean_linker_0, # of connection points: 2
#     Edge 21, Type (0, 0), BuildingBlock: OJICUG_clean_linker_0, # of connection points: 2
#     Edge 22, Type (0, 0), BuildingBlock: OJICUG_clean_linker_0, # of connection points: 2
#     Edge 23, Type (0, 0), BuildingBlock: OJICUG_clean_linker_0, # of connection points: 2
#     Edge 24, Type (0, 0), BuildingBlock: OJICUG_clean_linker_0, # of connection points: 2
#     Edge 25, Type (0, 0), BuildingBlock: OJICUG_clean_linker_0, # of connection points: 2
#     Edge 26, Type (0, 0), BuildingBlock: OJICUG_clean_linker_0, # of connection points: 2
#     Edge 27, Type (0, 0), BuildingBlock: OJICUG_clean_linker_0, # of connection points: 2
#     Edge 28, Type (0, 0), BuildingBlock: OJICUG_clean_linker_0, # of connection points: 2
#     Edge 29, Type (0, 0), BuildingBlock: OJICUG_clean_linker_0, # of connection points: 2
#     Edge 30, Type (0, 0), BuildingBlock: OJICUG_clean_linker_0, # of connection points: 2
#     Edge 31, Type (0, 0), BuildingBlock: OJICUG_clean_linker_0, # of connection points: 2
#     Edge 32, Type (0, 0), BuildingBlock: OJICUG_clean_linker_0, # of connection points: 2
#     Edge 33, Type (0, 0), BuildingBlock: OJICUG_clean_linker_0, # of connection points: 2
#     Edge 34, Type (0, 0), BuildingBlock: OJICUG_clean_linker_0, # of connection points: 2
#     Edge 35, Type (0, 0), BuildingBlock: OJICUG_clean_linker_0, # of connection points: 2
#     Edge 36, Type (0, 0), BuildingBlock: OJICUG_clean_linker_0, # of connection points: 2
#     Edge 37, Type (0, 0), BuildingBlock: OJICUG_clean_linker_0, # of connection points: 2
#     Edge 38, Type (0, 0), BuildingBlock: OJICUG_clean_linker_0, # of connection points: 2
#     Edge 39, Type (0, 0), BuildingBlock: OJICUG_clean_linker_0, # of connection points: 2
#     Edge 40, Type (0, 0), BuildingBlock: OJICUG_clean_linker_0, # of connection points: 2
#     Edge 41, Type (0, 0), BuildingBlock: OJICUG_clean_linker_0, # of connection points: 2
#     Edge 42, Type (0, 0), BuildingBlock: OJICUG_clean_linker_0, # of connection points: 2
#     Edge 43, Type (0, 0), BuildingBlock: OJICUG_clean_linker_0, # of connection points: 2
#     Edge 44, Type (0, 0), BuildingBlock: OJICUG_clean_linker_0, # of connection points: 2
#     Edge 45, Type (0, 0), BuildingBlock: OJICUG_clean_linker_0, # of connection points: 2
#     Edge 46, Type (0, 0), BuildingBlock: OJICUG_clean_linker_0, # of connection points: 2
#     Edge 47, Type (0, 0), BuildingBlock: OJICUG_clean_linker_0, # of connection points: 2
# Relax obj value: 0.056
# Max RMSD: 0.151
# Mean RMSD: 0.151
data_MOF--net-wme--node1-CUKXOW_clean_sbu_0--edge1-OJICUG_clean_linker_0
_symmetry_space_group_name_H-M    P1
_symmetry_Int_Tables_number       1
_symmetry_cell_setting            triclinic
loop_
_symmetry_equiv_pos_as_xyz
'x, y, z'
_cell_length_a     23.802252
_cell_length_b     23.828927
_cell_length_c     41.370787
_cell_angle_alpha  89.824199
_cell_angle_beta   90.000251
_cell_angle_gamma 119.96666
loop_
_atom_site_label
_atom_site_type_symbol
_atom_site_fract_x
_atom_site_fract_y
_atom_site_fract_z
_atom_type_partial_charge
Tb0 Tb 0.27621 0.39354 0.12651 0.0
C1 C 0.23208 0.31124 0.06322 0.0
Tb2 Tb 0.13595 0.28091 0.12318 0.0
O3 O 0.31473 0.32719 0.11977 0.0
O4 O 0.22485 0.29589 0.14115 0.0
O5 O 0.27208 0.36902 0.0757 0.0
C6 C 1.01872 0.17579 0.11703 0.0
O7 O 0.17806 0.26796 0.0783 0.0
C8 C 0.15024 0.39745 0.12367 0.0
C9 C 0.1921 0.34319 0.19099 0.0
O10 O 0.04054 0.22862 0.10016 0.0
O11 O 0.06367 0.18148 0.13679 0.0
O12 O 0.10094 0.34661 0.13576 0.0
O13 O 0.18658 0.38088 0.10941 0.0
O14 O 0.1495 0.28976 0.17552 0.0
O15 O 0.24038 0.39346 0.17564 0.0
C16 C 0.38152 0.51144 0.12802 0.0
O17 O 0.37332 0.46144 0.14457 0.0
O18 O 0.33011 0.49516 0.11081 0.0
C19 C 0.26223 0.27723 0.13071 0.0
Tb20 Tb 0.89351 0.2744 0.62685 0.0
C21 C 0.93323 0.22506 0.56558 0.0
Tb22 Tb 0.86685 0.13553 0.62721 0.0
O23 O 0.99838 0.31272 0.62053 0.0
O24 O 0.94089 0.22518 0.6441 0.0
O25 O 0.91537 0.26622 0.57664 0.0
C26 C 0.85685 0.0195 0.63351 0.0
O27 O 0.92063 0.17122 0.5815 0.0
C28 C 0.763 0.14689 0.62075 0.0
C29 C 0.86279 0.19901 0.6922 0.0
O30 O 0.8872 0.06022 0.61011 0.0
O31 O 0.83317 0.04444 0.65305 0.0
O32 O 0.7626 0.09617 0.63182 0.0
O33 O 0.81842 0.18453 0.60934 0.0
O34 O 0.88335 0.16277 0.67791 0.0
O35 O 0.85261 0.24038 0.67527 0.0
C36 C 0.88245 0.38022 0.62787 0.0
O37 O 0.92317 0.37122 0.64484 0.0
O38 O 0.848 0.32967 0.61009 0.0
C39 C 0.99668 0.26166 0.63296 0.0
Tb40 Tb 0.63322 0.87489 0.11953 0.0
C41 C 0.71858 0.91661 0.05721 0.0
Tb42 Tb 0.74561 0.84667 0.11597 0.0
O43 O 0.70071 0.97994 0.11439 0.0
O44 O 0.73038 0.91955 0.1351 0.0
O45 O 0.65998 0.89812 0.06905 0.0
C46 C 0.85242 0.8375 0.11157 0.0
O47 O 0.76067 0.90413 0.07211 0.0
C48 C 0.62943 0.74457 0.11571 0.0
C49 C 0.67867 0.83428 0.18296 0.0
O50 O 0.80124 0.80666 0.09362 0.0
O51 O 0.84411 0.87492 0.13136 0.0
O52 O 0.6805 0.74531 0.12691 0.0
O53 O 0.64578 0.79817 0.10207 0.0
O54 O 0.73311 0.84672 0.16795 0.0
O55 O 0.62944 0.834 0.16761 0.0
C56 C 0.51663 0.8652 0.12278 0.0
O57 O 0.5318 0.83134 0.10393 0.0
O58 O 0.56704 0.90428 0.13974 0.0
C59 C 0.74996 0.97633 0.12548 0.0
Tb60 Tb 0.76912 0.63548 0.62173 0.0
C61 C 0.81555 0.71181 0.55453 0.0
Tb62 Tb 0.91355 0.74384 0.61431 0.0
O63 O 0.74885 0.70419 0.64899 0.0
O64 O 0.82268 0.73544 0.61557 0.0
O65 O 0.76925 0.66145 0.57086 0.0
C66 C 0.02908 0.85037 0.60953 0.0
O67 O 0.87493 0.75011 0.56663 0.0
C68 C 0.89343 0.6259 0.62033 0.0
C69 C 0.85481 0.68591 0.68329 0.0
O70 O 1.00921 0.79889 0.59173 0.0
O71 O 0.98299 0.84242 0.62918 0.0
O72 O 0.94617 0.67724 0.62898 0.0
O73 O 0.8574 0.64231 0.60569 0.0
O74 O 0.89578 0.73885 0.66673 0.0
O75 O 0.80762 0.63376 0.66912 0.0
C76 C 0.65789 0.52256 0.61788 0.0
O77 O 0.66303 0.57884 0.62239 0.0
O78 O 0.71548 0.52973 0.61557 0.0
C79 C 0.79827 0.75474 0.63613 0.0
Tb80 Tb 0.14993 0.75117 0.12349 0.0
C81 C 0.11244 0.79964 0.06077 0.0
Tb82 Tb 0.17894 0.89195 0.12139 0.0
O83 O 0.04548 0.71369 0.11669 0.0
O84 O 0.10421 0.80262 0.13871 0.0
O85 O 0.12842 0.75757 0.07275 0.0
C86 C 0.19163 1.00952 0.11693 0.0
O87 O 0.12473 0.85341 0.07631 0.0
C88 C 0.28039 0.87637 0.12145 0.0
C89 C 0.18447 0.83324 0.18852 0.0
O90 O 0.22309 0.98876 0.09976 0.0
O91 O 0.15163 0.96338 0.136 0.0
O92 O 0.27933 0.9255 0.13392 0.0
O93 O 0.22755 0.84097 0.10699 0.0
O94 O 0.1739 0.87645 0.17341 0.0
O95 O 0.18598 0.78519 0.17285 0.0
C96 C 0.15976 0.6442 0.12602 0.0
O97 O 0.1192 0.65429 0.14249 0.0
O98 O 0.19511 0.69459 0.10807 0.0
C99 C 0.04823 0.7659 0.128 0.0
Tb100 Tb 0.41139 0.15174 0.62144 0.0
C101 C 0.3251 0.11014 0.55914 0.0
Tb102 Tb 0.29791 0.17776 0.61885 0.0
O103 O 0.34583 0.04681 0.61554 0.0
O104 O 0.31409 0.10462 0.63706 0.0
O105 O 0.38377 0.12858 0.57092 0.0
C106 C 0.19117 0.18785 0.61493 0.0
O107 O 0.2828 0.12184 0.57441 0.0
C108 C 0.41356 0.28165 0.61785 0.0
C109 C 0.36455 0.18823 0.68586 0.0
O110 O 0.24266 0.2191 0.59714 0.0
O111 O 0.19901 0.14928 0.63426 0.0
O112 O 0.36227 0.27901 0.62997 0.0
O113 O 0.39788 0.22842 0.6041 0.0
O114 O 0.3099 0.17541 0.67096 0.0
O115 O 0.41445 0.19059 0.67007 0.0
C116 C 0.52812 0.16102 0.6239 0.0
O117 O 0.47834 0.12306 0.64163 0.0
O118 O 0.51225 0.19404 0.60476 0.0
C119 C 0.29574 0.04854 0.62681 0.0
Tb120 Tb 0.63474 0.7567 0.38751 0.0
C121 C 0.72383 0.80615 0.44876 0.0
Tb122 Tb 0.74698 0.89555 0.38708 0.0
O123 O 0.7013 0.7184 0.39387 0.0
O124 O 0.73133 0.80586 0.37024 0.0
O125 O 0.66478 0.76501 0.43772 0.0
C126 C 0.85305 1.01154 0.38078 0.0
O127 O 0.7651 0.85993 0.4328 0.0
C128 C 0.63178 0.88424 0.39353 0.0
C129 C 0.67935 0.83194 0.32212 0.0
O130 O 0.84259 0.97088 0.40422 0.0
O131 O 0.80452 0.98656 0.36119 0.0
O132 O 0.68212 0.93493 0.38243 0.0
O133 O 0.64956 0.84662 0.40498 0.0
O134 O 0.73617 0.86821 0.33639 0.0
O135 O 0.62781 0.79063 0.33909 0.0
C136 C 0.51789 0.65085 0.38651 0.0
O137 O 0.56762 0.65985 0.36956 0.0
O138 O 0.53396 0.70143 0.40427 0.0
C139 C 0.75065 0.76941 0.38141 0.0
Tb140 Tb 0.89767 0.63657 0.88784 0.0
C141 C 0.93587 0.71881 0.95116 0.0
Tb142 Tb 0.87005 0.74922 0.89123 0.0
O143 O 1.00254 0.70291 0.89457 0.0
O144 O 0.94395 0.73423 0.87324 0.0
O145 O 0.9181 0.66105 0.93866 0.0
C146 C 0.85796 0.85436 0.89738 0.0
O147 O 0.92511 0.76211 0.93611 0.0
C148 C 0.7678 0.63268 0.89071 0.0
C149 C 0.86399 0.68709 0.82338 0.0
O150 O 0.82692 0.80151 0.91424 0.0
O151 O 0.89726 0.84868 0.87764 0.0
O152 O 0.76933 0.68353 0.87864 0.0
O153 O 0.82072 0.64924 0.90496 0.0
O154 O 0.8748 0.74048 0.83889 0.0
O155 O 0.86199 0.63678 0.83869 0.0
C156 C 0.88501 0.51864 0.88631 0.0
O157 O 0.92684 0.56865 0.86977 0.0
O158 O 0.84988 0.53493 0.9035 0.0
C159 C 0.99999 0.75288 0.88366 0.0
Tb160 Tb 0.27532 0.87941 0.39289 0.0
C161 C 0.23062 0.92104 0.45518 0.0
Tb162 Tb 0.13582 0.85334 0.39547 0.0
O163 O 0.31467 0.98434 0.39877 0.0
O164 O 0.22511 0.9265 0.37726 0.0
O165 O 0.27087 0.90262 0.4434 0.0
C166 C 1.01897 0.84324 0.39939 0.0
O167 O 0.1766 0.9093 0.4399 0.0
C168 C 0.14759 0.74946 0.3965 0.0
C169 C 0.19195 0.84275 0.32848 0.0
O170 O 0.03922 0.81202 0.4172 0.0
O171 O 0.06537 0.88177 0.38004 0.0
O172 O 0.09892 0.75208 0.38439 0.0
O173 O 0.18514 0.80271 0.41024 0.0
O174 O 0.15011 0.85559 0.34337 0.0
O175 O 0.23952 0.84047 0.34427 0.0
C176 C 0.38281 0.8702 0.39045 0.0
O177 O 0.37095 0.9081 0.37269 0.0
O178 O 0.33393 0.8372 0.4096 0.0
C179 C 0.26284 0.98259 0.3875 0.0
Tb180 Tb 0.41374 0.27896 0.8909 0.0
C181 C 0.32777 0.23037 0.95361 0.0
Tb182 Tb 0.30198 0.13819 0.89294 0.0
O183 O 0.34677 0.31641 0.89774 0.0
O184 O 0.31658 0.22755 0.87566 0.0
O185 O 0.38584 0.27244 0.94164 0.0
C186 C 0.19711 0.0206 0.89738 0.0
O187 O 0.28627 0.17665 0.93804 0.0
C188 C 0.41899 0.15376 0.89286 0.0
C189 C 0.36628 0.19705 0.82583 0.0
O190 O 0.24935 0.04138 0.91456 0.0
O191 O 0.20324 0.06674 0.87831 0.0
O192 O 0.3688 0.10466 0.88036 0.0
O193 O 0.40155 0.18912 0.90735 0.0
O194 O 0.31247 0.15381 0.84091 0.0
O195 O 0.41582 0.24504 0.84153 0.0
C196 C 0.53053 0.38595 0.88839 0.0
O197 O 0.47988 0.37587 0.87194 0.0
O198 O 0.51551 0.33554 0.90632 0.0
C199 C 0.29732 0.26424 0.8864 0.0
Tb200 Tb 0.14929 0.39561 0.39261 0.0
C201 C 0.11936 0.31935 0.45985 0.0
Tb202 Tb 0.18531 0.28724 0.40009 0.0
O203 O 0.06029 0.3269 0.36536 0.0
O204 O 0.10286 0.29567 0.39881 0.0
O205 O 0.12344 0.3697 0.44349 0.0
C206 C 0.19428 0.18068 0.40488 0.0
O207 O 0.14045 0.28104 0.44777 0.0
C208 C 0.28315 0.40517 0.39403 0.0
C209 C 0.18441 0.34499 0.33108 0.0
O210 O 0.22591 0.23217 0.42267 0.0
O211 O 0.15612 0.18863 0.38524 0.0
O212 O 0.28454 0.35382 0.3854 0.0
O213 O 0.23072 0.38878 0.40868 0.0
O214 O 0.17247 0.2921 0.34767 0.0
O215 O 0.18941 0.39719 0.34522 0.0
C216 C 0.15103 0.50857 0.39643 0.0
O217 O 0.09987 0.45228 0.39198 0.0
O218 O 0.20145 0.50139 0.3987 0.0
C219 C 0.05914 0.27636 0.37826 0.0
Tb220 Tb 0.77327 0.15517 0.89478 0.0
C221 C 0.8169 0.11339 0.95708 0.0
Tb222 Tb 0.91389 0.18344 0.89835 0.0
O223 O 0.73572 0.05011 0.89989 0.0
O224 O 0.82579 0.11054 0.8792 0.0
O225 O 0.77677 0.13186 0.94526 0.0
C226 C 0.02988 0.19262 0.90275 0.0
O227 O 0.87148 0.12592 0.94219 0.0
C228 C 0.89979 0.28552 0.89864 0.0
C229 C 0.85938 0.19594 0.83137 0.0
O230 O 1.00952 0.22342 0.92071 0.0
O231 O 0.98417 0.15524 0.88294 0.0
O232 O 0.95014 0.28481 0.88744 0.0
O233 O 0.86254 0.2319 0.91226 0.0
O234 O 0.90138 0.18348 0.84636 0.0
O235 O 0.81041 0.19616 0.84672 0.0
C236 C 0.66636 0.16485 0.89154 0.0
O237 O 0.67771 0.12581 0.87456 0.0
O238 O 0.71538 0.19867 0.91041 0.0
C239 C 0.78859 0.05374 0.8888 0.0
C240 C 0.17266 0.09526 0.13988 0.0
C241 C 0.20684 0.07747 0.11854 0.0
H242 H 0.16454 0.17297 0.16083 0.0
C243 C 0.25904 0.12583 0.10078 0.0
H244 H 0.13249 0.05897 0.154 0.0
C245 C 0.2776 0.19111 0.10484 0.0
C246 C 0.24392 0.20883 0.12655 0.0
H247 H 0.28633 0.11334 0.08423 0.0
H248 H 0.31807 0.22761 0.09096 0.0
C249 C 0.19102 0.1604 0.14382 0.0
C250 C 0.14343 0.25733 0.60101 0.0
C251 C 0.13844 0.20318 0.61731 0.0
H252 H 0.1028 0.31897 0.59362 0.0
C253 C 0.08567 0.16751 0.63812 0.0
H254 H 0.18372 0.28576 0.58486 0.0
C255 C 0.03943 0.18648 0.64309 0.0
C256 C 0.04562 0.24189 0.62763 0.0
H257 H 0.08074 0.12561 0.65099 0.0
H258 H 0.99933 0.15832 0.6594 0.0
C259 C 0.09757 0.27674 0.60627 0.0
C260 C 0.86601 0.02194 0.14078 0.0
C261 C 0.81876 0.02688 0.12268 0.0
H262 H 0.9667 0.06511 0.15296 0.0
C263 C 0.83802 0.07953 0.10152 0.0
H264 H 0.85225 0.98198 0.15744 0.0
C265 C 0.90355 0.12689 0.0988 0.0
C266 C 0.9507 0.12258 0.1174 0.0
H267 H 0.80253 0.08399 0.08702 0.0
H268 H 0.91712 0.16753 0.08262 0.0
C269 C 0.93141 0.06942 0.13822 0.0
C270 C 0.86171 0.8675 0.61605 0.0
C271 C 0.81559 0.82318 0.63806 0.0
H272 H 0.91079 0.96424 0.59735 0.0
C273 C 0.78553 0.84478 0.65982 0.0
H274 H 0.88567 0.85234 0.59882 0.0
C275 C 0.80054 0.9096 0.659 0.0
C276 C 0.84519 0.95307 0.6362 0.0
H277 H 0.74992 0.81158 0.67695 0.0
H278 H 0.77597 0.92526 0.67562 0.0
C279 C 0.87617 0.93169 0.61504 0.0
C280 C 1.00246 0.83718 0.14048 0.0
C281 C 0.99898 0.78511 0.12305 0.0
H282 H 0.95883 0.8952 0.15016 0.0
C283 C 0.94927 0.75289 0.10036 0.0
H284 H 0.04029 0.86253 0.15821 0.0
C285 C 0.903 0.77186 0.09555 0.0
C286 C 0.90555 0.82293 0.11359 0.0
H287 H 0.94618 0.71312 0.08633 0.0
H288 H 0.86437 0.74553 0.07833 0.0
C289 C 0.95604 0.85591 0.13583 0.0
C290 C 0.14617 0.90177 0.59415 0.0
C291 C 0.0967 0.90388 0.61167 0.0
H292 H 0.24852 0.94584 0.58555 0.0
C293 C 0.11313 0.95447 0.6337 0.0
H294 H 0.1348 0.86311 0.57712 0.0
C295 C 0.17798 1.00138 0.63862 0.0
C296 C 0.22751 0.99849 0.62167 0.0
H297 H 0.07597 0.957 0.64767 0.0
H298 H 0.18948 0.03918 0.65619 0.0
C299 C 0.21115 0.9486 0.59922 0.0
C300 C 0.90176 0.7738 0.41335 0.0
C301 C 0.9509 0.8279 0.39702 0.0
H302 H 0.79949 0.71219 0.42079 0.0
C303 C 0.9338 0.86353 0.37619 0.0
H304 H 0.91364 0.74541 0.42953 0.0
C305 C 0.86857 0.84455 0.37123 0.0
C306 C 0.81937 0.78919 0.38673 0.0
H307 H 0.97076 0.90539 0.36329 0.0
H308 H 0.85662 0.87267 0.3549 0.0
C309 C 0.83649 0.75439 0.40811 0.0
C310 C 0.10152 0.83901 0.90951 0.0
C311 C 0.0501 0.82128 0.8878 0.0
H312 H 0.18805 0.91681 0.93009 0.0
C313 C 0.04562 0.8697 0.87053 0.0
H314 H 0.1055 0.80253 0.92338 0.0
C315 C 0.09239 0.93483 0.87445 0.0
C316 C 0.14439 0.95265 0.89578 0.0
H317 H 1.00655 0.85711 0.85352 0.0
H318 H 0.0885 0.97111 0.86033 0.0
C319 C 0.14825 0.9043 0.91355 0.0
C320 C 0.26 0.1293 0.42021 0.0
C321 C 0.20839 0.12718 0.40271 0.0
H322 H 0.31833 0.08527 0.42877 0.0
C323 C 0.17423 0.0766 0.38069 0.0
H324 H 0.28731 0.16796 0.43724 0.0
C325 C 0.19218 0.02971 0.37574 0.0
C326 C 0.24464 0.03262 0.39266 0.0
H327 H 0.13451 0.07406 0.36673 0.0
H328 H 0.16587 0.99192 0.35816 0.0
C329 C 0.27817 0.0825 0.41512 0.0
C330 C 0.18028 0.19298 0.87388 0.0
C331 C 0.22885 0.24501 0.89133 0.0
H332 H 0.07863 0.13498 0.86416 0.0
C333 C 0.21133 0.2772 0.91403 0.0
H334 H 0.19277 0.16765 0.85615 0.0
C335 C 0.14608 0.25823 0.91882 0.0
C336 C 0.09757 0.20719 0.90075 0.0
H337 H 0.24799 0.31694 0.92808 0.0
H338 H 0.13376 0.28453 0.93605 0.0
C339 C 0.11511 0.17425 0.87851 0.0
C340 C 1.0098 0.16361 0.39835 0.0
C341 C 1.00806 0.20791 0.37631 0.0
H342 H 0.96211 0.06687 0.41704 0.0
C343 C 0.95648 0.18628 0.35448 0.0
H344 H 0.04885 0.1788 0.41562 0.0
C345 C 0.9067 0.12144 0.35527 0.0
C346 C 0.90782 0.07798 0.37811 0.0
H347 H 0.95411 0.21946 0.33733 0.0
H348 H 0.86653 0.10575 0.33861 0.0
C349 C 0.9601 0.0994 0.39932 0.0
C350 C 0.87704 0.96071 0.87616 0.0
C351 C 0.84314 0.90756 0.89698 0.0
H352 H 0.8853 0.04812 0.8569 0.0
C353 C 0.79164 0.90323 0.91555 0.0
H354 H 0.91666 0.96503 0.86144 0.0
C355 C 0.77346 0.95058 0.9128 0.0
C356 C 0.80687 1.00322 0.89164 0.0
H357 H 0.76456 0.8626 0.93173 0.0
H358 H 0.73348 0.94611 0.92727 0.0
C359 C 0.8591 1.00818 0.87356 0.0
C360 C 0.12031 0.53295 0.14719 0.0
C361 C 0.16191 0.5833 0.12643 0.0
H362 H 0.08488 0.43534 0.1626 0.0
C363 C 0.2029 0.57359 0.10551 0.0
H364 H 0.08838 0.53908 0.16364 0.0
C365 C 0.20081 0.51362 0.10484 0.0
C366 C 0.15783 0.46284 0.12514 0.0
H367 H 0.23541 0.61174 0.08922 0.0
H368 H 0.23119 0.50642 0.08784 0.0
C369 C 0.1183 0.47348 0.14654 0.0
C370 C 0.65543 0.11648 0.64352 0.0
C371 C 0.70606 0.15598 0.62226 0.0
H372 H 0.56026 0.08779 0.66086 0.0
C373 C 0.69939 0.20014 0.60236 0.0
H374 H 0.65935 0.08222 0.6593 0.0
C375 C 0.64189 0.20315 0.60321 0.0
C376 C 0.59078 0.16225 0.62406 0.0
H377 H 0.73744 0.23063 0.58555 0.0
H378 H 0.63693 0.23644 0.58718 0.0
C379 C 0.59863 0.11971 0.64449 0.0
C380 C 0.51048 0.68026 0.10154 0.0
C381 C 0.5635 0.68873 0.12011 0.0
H382 H 0.41022 0.61671 0.08956 0.0
C383 C 0.55463 0.64069 0.14264 0.0
H384 H 0.51621 0.71631 0.08384 0.0
C385 C 0.49481 0.58426 0.14585 0.0
C386 C 0.44232 0.57439 0.12656 0.0
H387 H 0.5945 0.64611 0.15752 0.0
H388 H 0.49016 0.54762 0.16293 0.0
C389 C 0.45012 0.62329 0.10475 0.0
C390 C 0.84046 0.50868 0.60436 0.0
C391 C 0.88361 0.56022 0.62401 0.0
H392 H 0.80614 0.4101 0.59019 0.0
C393 C 0.9225 0.55051 0.64624 0.0
H394 H 0.81051 0.51534 0.58682 0.0
C395 C 0.92035 0.49117 0.64804 0.0
C396 C 0.87934 0.44032 0.62759 0.0
H397 H 0.95588 0.58942 0.66182 0.0
H398 H 0.9521 0.4857 0.66493 0.0
C399 C 0.83833 0.44887 0.60616 0.0
C400 C 0.44523 0.90425 0.14469 0.0
C401 C 0.45371 0.86324 0.12355 0.0
H402 H 0.38345 0.93974 0.16057 0.0
C403 C 0.40291 0.82307 0.10257 0.0
H404 H 0.4834 0.93552 0.1612 0.0
C405 C 0.34516 0.82547 0.10218 0.0
C406 C 0.33776 0.86809 0.12277 0.0
H407 H 0.40837 0.79096 0.08603 0.0
H408 H 0.30739 0.79567 0.08519 0.0
C409 C 0.38796 0.90668 0.14428 0.0
C410 C 0.59208 0.4045 0.60345 0.0
C411 C 0.59619 0.46041 0.61713 0.0
H412 H 0.53014 0.3042 0.59145 0.0
C413 C 0.54042 0.45687 0.63043 0.0
H414 H 0.63451 0.40626 0.59278 0.0
C415 C 0.48184 0.39845 0.63064 0.0
C416 C 0.47711 0.34231 0.61692 0.0
H417 H 0.54222 0.49915 0.64118 0.0
H418 H 0.44 0.39747 0.64157 0.0
C419 C 0.53261 0.34602 0.6029 0.0
C420 C 0.45445 0.82807 0.41113 0.0
C421 C 0.44424 0.86897 0.39028 0.0
H422 H 0.52252 0.80056 0.42877 0.0
C423 C 0.49463 0.9115 0.36984 0.0
H424 H 0.4162 0.79479 0.42716 0.0
C425 C 0.55465 0.91472 0.3708 0.0
C426 C 0.56578 0.87521 0.39205 0.0
H427 H 0.48817 0.94342 0.35348 0.0
H428 H 0.59282 0.94896 0.355 0.0
C429 C 0.51495 0.83106 0.41196 0.0
C430 C 0.70219 0.51652 0.90955 0.0
C431 C 0.70999 0.5673 0.88924 0.0
H432 H 0.63867 0.4184 0.92517 0.0
C433 C 0.65979 0.55666 0.86786 0.0
H434 H 0.73978 0.52371 0.92654 0.0
C435 C 0.60233 0.4972 0.86722 0.0
C436 C 0.59358 0.44685 0.88797 0.0
H437 H 0.66451 0.5948 0.85181 0.0
H438 H 0.56425 0.49107 0.85078 0.0
C439 C 0.64431 0.45655 0.90888 0.0
C440 C 0.20234 0.68513 0.4114 0.0
C441 C 0.1505 0.68881 0.39743 0.0
H442 H 0.24404 0.62492 0.42147 0.0
C443 C 0.09906 0.63266 0.38373 0.0
H444 H 0.24171 0.72696 0.42283 0.0
C445 C 0.09922 0.57424 0.38393 0.0
C446 C 0.1515 0.57072 0.39719 0.0
H447 H 0.05815 0.63361 0.37283 0.0
H448 H 0.05872 0.53196 0.3732 0.0
C449 C 0.20334 0.62666 0.41084 0.0
C450 C 0.59479 0.20697 0.91177 0.0
C451 C 0.60542 0.16681 0.89077 0.0
H452 H 0.52668 0.23437 0.92916 0.0
C453 C 0.55593 0.12585 0.86962 0.0
H454 H 0.63236 0.23904 0.92832 0.0
C455 C 0.49625 0.12344 0.87003 0.0
C456 C 0.48464 0.16201 0.89155 0.0
H457 H 0.56284 0.0946 0.8531 0.0
H458 H 0.45868 0.09042 0.85372 0.0
C459 C 0.53465 0.20458 0.91216 0.0
C460 C 0.3474 0.52239 0.41 0.0
C461 C 0.33903 0.47084 0.39037 0.0
H462 H 0.41165 0.62098 0.42416 0.0
C463 C 0.38767 0.48054 0.36816 0.0
H464 H 0.31077 0.51574 0.42752 0.0
C465 C 0.44487 0.53988 0.36636 0.0
C466 C 0.45468 0.59075 0.38679 0.0
H467 H 0.38215 0.44161 0.35259 0.0
H468 H 0.48211 0.54534 0.34949 0.0
C469 C 0.40509 0.5822 0.4082 0.0
C470 C 0.84173 0.40677 0.90957 0.0
C471 C 0.88285 0.45569 0.88776 0.0
H472 H 0.8148 0.31377 0.93049 0.0
C473 C 0.92546 0.4458 0.86848 0.0
H474 H 0.8084 0.41336 0.92475 0.0
C475 C 0.92885 0.38938 0.87169 0.0
C476 C 0.88968 0.34134 0.89422 0.0
H477 H 0.95746 0.48244 0.8514 0.0
H478 H 0.96331 0.38397 0.85681 0.0
C479 C 0.84512 0.34981 0.91279 0.0
C480 C 0.21937 0.40303 0.27774 0.0
C481 C 0.18796 0.34456 0.29529 0.0
H482 H 0.24571 0.44856 0.23108 0.0
C483 C 0.15745 0.28586 0.27823 0.0
H484 H 0.24335 0.4491 0.29019 0.0
C485 C 0.15768 0.28563 0.24439 0.0
C486 C 0.18946 0.34405 0.22682 0.0
H487 H 0.13234 0.24004 0.29101 0.0
H488 H 0.13367 0.23949 0.23202 0.0
C489 C 0.22069 0.40275 0.24389 0.0
C490 C 0.82798 0.22492 0.74472 0.0
C491 C 0.86211 0.20034 0.72777 0.0
H492 H 0.80002 0.24269 0.79122 0.0
C493 C 0.89722 0.1773 0.74512 0.0
H494 H 0.8007 0.24315 0.73187 0.0
C495 C 0.89786 0.17814 0.7787 0.0
C496 C 0.86256 0.2011 0.79583 0.0
H497 H 0.92465 0.1587 0.73277 0.0
H498 H 0.92487 0.15915 0.79117 0.0
C499 C 0.8277 0.22473 0.77859 0.0
C500 C 0.61833 0.80572 0.23577 0.0
C501 C 0.67678 0.82931 0.2185 0.0
H502 H 0.57302 0.78752 0.28251 0.0
C503 C 0.7351 0.85244 0.23561 0.0
H504 H 0.57265 0.78765 0.22316 0.0
C505 C 0.73538 0.85348 0.26919 0.0
C506 C 0.67727 0.83047 0.28656 0.0
H507 H 0.78107 0.87141 0.22311 0.0
H508 H 0.78145 0.87219 0.28151 0.0
C509 C 0.61851 0.80573 0.26963 0.0
C510 C 0.8869 0.74481 0.7362 0.0
C511 C 0.85874 0.68619 0.71908 0.0
H512 H 0.90938 0.79097 0.78247 0.0
C513 C 0.83167 0.62764 0.73656 0.0
H514 H 0.90763 0.79069 0.72347 0.0
C515 C 0.83318 0.62776 0.77042 0.0
C516 C 0.8606 0.68638 0.78755 0.0
H517 H 0.80961 0.58163 0.72407 0.0
H518 H 0.81239 0.5819 0.78317 0.0
C519 C 0.88728 0.74489 0.77004 0.0
C520 C 0.15894 0.8654 0.2414 0.0
C521 C 0.18756 0.8352 0.22431 0.0
H522 H 0.13687 0.89025 0.28734 0.0
C523 C 0.21697 0.80606 0.24181 0.0
H524 H 0.13529 0.88777 0.22873 0.0
C525 C 0.21859 0.8082 0.27575 0.0
C526 C 0.18939 0.83809 0.29273 0.0
H527 H 0.23934 0.78235 0.2293 0.0
H528 H 0.24224 0.78614 0.28868 0.0
C529 C 0.1593 0.86629 0.27511 0.0
C530 C 0.42606 0.22449 0.77257 0.0
C531 C 0.36747 0.19523 0.79004 0.0
H532 H 0.47136 0.24469 0.72573 0.0
C533 C 0.30869 0.16509 0.77292 0.0
H534 H 0.47212 0.24815 0.78511 0.0
C535 C 0.30824 0.16439 0.73921 0.0
C536 C 0.36657 0.19272 0.72162 0.0
H537 H 0.26264 0.14263 0.78557 0.0
H538 H 0.26186 0.14047 0.72695 0.0
C539 C 0.42562 0.22254 0.73863 0.0
C540 C 0.34095 0.31177 0.99579 0.0
C541 C 0.30427 0.24927 0.98276 0.0
H542 H 0.34665 0.38076 0.03041 0.0
C543 C 0.24219 0.20788 0.99575 0.0
H544 H 0.38852 0.34549 0.98624 0.0
C545 C 0.21775 0.22839 0.02119 0.0
C546 C 0.25449 0.29106 0.03411 0.0
H547 H 0.2121 0.15964 0.98614 0.0
H548 H 0.17026 0.19484 0.03088 0.0
C549 C 0.3164 0.33239 0.02098 0.0
C550 C 0.04646 0.33205 0.49921 0.0
C551 C 0.07645 0.29713 0.48889 0.0
H552 H 0.97692 0.33608 0.53016 0.0
C553 C 0.05756 0.23688 0.50364 0.0
H554 H 0.05902 0.37833 0.4884 0.0
C555 C 1.00952 0.21212 0.52779 0.0
C556 C 0.97887 0.24679 0.5376 0.0
H557 H 0.07892 0.20814 0.49613 0.0
H558 H 0.99687 0.16609 0.53891 0.0
C559 C 0.99836 0.30721 0.52302 0.0
C560 C 0.70458 0.98963 0.01839 0.0
C561 C 0.74246 0.96379 0.03006 0.0
H562 H 0.69878 0.05816 0.98721 0.0
C563 C 0.80631 0.98982 0.0185 0.0
H564 H 0.65554 0.97162 0.02702 0.0
C565 C 0.83151 0.04026 0.99581 0.0
C566 C 0.79361 0.06618 0.98423 0.0
H567 H 0.83729 0.97183 0.02724 0.0
H568 H 0.8805 0.05833 0.98708 0.0
C569 C 0.72986 0.04023 0.99587 0.0
C570 C 0.83629 0.7943 0.51073 0.0
C571 C 0.79489 0.73406 0.52548 0.0
H572 H 0.84645 0.86509 0.47544 0.0
C573 C 0.72998 0.69918 0.51517 0.0
H574 H 0.88639 0.82301 0.51824 0.0
C575 C 0.70675 0.72404 0.49135 0.0
C576 C 0.74771 0.78443 0.47675 0.0
H577 H 0.69623 0.65291 0.52598 0.0
H578 H 0.65644 0.69519 0.48421 0.0
C579 C 0.81304 0.81907 0.48657 0.0
C580 C 1.00442 0.80164 0.99319 0.0
C581 C 0.97845 0.73897 0.98027 0.0
H582 H 0.06756 0.87039 0.02823 0.0
C583 C 0.99899 0.69761 0.99341 0.0
H584 H 0.99052 0.83521 0.98349 0.0
C585 C 0.04416 0.71821 0.0186 0.0
C586 C 0.07002 0.78073 0.03163 0.0
H587 H 0.98083 0.64923 0.98398 0.0
H588 H 0.05797 0.68448 0.02816 0.0
C589 C 0.04938 0.82214 0.01862 0.0
C590 C 0.21453 0.99145 0.49525 0.0
C591 C 0.25288 0.96651 0.4831 0.0
H592 H 0.20725 0.05684 0.52817 0.0
C593 C 0.31606 0.99142 0.49535 0.0
H594 H 0.16597 0.97421 0.48615 0.0
C595 C 0.34025 0.03985 0.51895 0.0
C596 C 0.30193 0.06468 0.53121 0.0
H597 H 0.34755 0.97431 0.48637 0.0
H598 H 0.38888 0.05702 0.52793 0.0
C599 C 0.23862 0.03967 0.51907 0.0
loop_
_geom_bond_atom_site_label_1
_geom_bond_atom_site_label_2
_geom_bond_distance
_geom_bond_site_symmetry_2
_ccdc_geom_bond_type
Tb0 O3 2.453 . S
Tb0 O4 2.596 . S
Tb0 O5 2.374 . S
Tb0 O13 2.343 . S
Tb0 O15 2.353 . S
Tb0 O17 2.427 . S
Tb0 O18 2.513 . S
C1 O5 1.251 . S
C1 O7 1.263 . S
Tb2 O4 2.343 . S
Tb2 O7 2.353 . S
Tb2 O10 2.427 . S
Tb2 O11 2.513 . S
Tb2 O12 2.453 . S
Tb2 O13 2.596 . S
Tb2 O14 2.374 . S
O3 Tb0 2.453 . S
O3 C19 1.245 . S
O4 Tb0 2.596 . S
O4 Tb2 2.343 . S
O4 C19 1.259 . S
O5 Tb0 2.374 . S
O5 C1 1.251 . S
C6 O10 1.275 . S
C6 O11 1.246 . S
O7 C1 1.263 . S
O7 Tb2 2.353 . S
C8 O12 1.245 . S
C8 O13 1.259 . S
C9 O14 1.250 . S
C9 O15 1.263 . S
O10 Tb2 2.427 . S
O10 C6 1.275 . S
O11 Tb2 2.513 . S
O11 C6 1.246 . S
O12 Tb2 2.453 . S
O12 C8 1.245 . S
O13 Tb0 2.343 . S
O13 Tb2 2.596 . S
O13 C8 1.259 . S
O14 Tb2 2.374 . S
O14 C9 1.250 . S
O15 Tb0 2.353 . S
O15 C9 1.263 . S
C16 O17 1.275 . S
C16 O18 1.246 . S
O17 Tb0 2.427 . S
O17 C16 1.275 . S
O18 Tb0 2.513 . S
O18 C16 1.246 . S
C19 O3 1.245 . S
C19 O4 1.259 . S
Tb20 O23 2.453 . S
Tb20 O24 2.596 . S
Tb20 O25 2.374 . S
Tb20 O33 2.343 . S
Tb20 O35 2.353 . S
Tb20 O37 2.427 . S
Tb20 O38 2.513 . S
C21 O25 1.251 . S
C21 O27 1.263 . S
Tb22 O24 2.343 . S
Tb22 O27 2.353 . S
Tb22 O30 2.427 . S
Tb22 O31 2.513 . S
Tb22 O32 2.453 . S
Tb22 O33 2.596 . S
Tb22 O34 2.374 . S
O23 Tb20 2.453 . S
O23 C39 1.245 . S
O24 Tb20 2.596 . S
O24 Tb22 2.343 . S
O24 C39 1.259 . S
O25 Tb20 2.374 . S
O25 C21 1.251 . S
C26 O30 1.275 . S
C26 O31 1.246 . S
O27 C21 1.263 . S
O27 Tb22 2.353 . S
C28 O32 1.245 . S
C28 O33 1.259 . S
C29 O34 1.250 . S
C29 O35 1.263 . S
O30 Tb22 2.427 . S
O30 C26 1.275 . S
O31 Tb22 2.513 . S
O31 C26 1.246 . S
O32 Tb22 2.453 . S
O32 C28 1.245 . S
O33 Tb20 2.343 . S
O33 Tb22 2.596 . S
O33 C28 1.259 . S
O34 Tb22 2.374 . S
O34 C29 1.250 . S
O35 Tb20 2.353 . S
O35 C29 1.263 . S
C36 O37 1.275 . S
C36 O38 1.246 . S
O37 Tb20 2.427 . S
O37 C36 1.275 . S
O38 Tb20 2.513 . S
O38 C36 1.246 . S
C39 O23 1.245 . S
C39 O24 1.259 . S
Tb40 O43 2.453 . S
Tb40 O44 2.596 . S
Tb40 O45 2.374 . S
Tb40 O53 2.343 . S
Tb40 O55 2.353 . S
Tb40 O57 2.427 . S
Tb40 O58 2.513 . S
C41 O45 1.251 . S
C41 O47 1.263 . S
Tb42 O44 2.343 . S
Tb42 O47 2.353 . S
Tb42 O50 2.427 . S
Tb42 O51 2.513 . S
Tb42 O52 2.453 . S
Tb42 O53 2.596 . S
Tb42 O54 2.374 . S
O43 Tb40 2.453 . S
O43 C59 1.245 . S
O44 Tb40 2.596 . S
O44 Tb42 2.343 . S
O44 C59 1.259 . S
O45 Tb40 2.374 . S
O45 C41 1.251 . S
C46 O50 1.275 . S
C46 O51 1.246 . S
O47 C41 1.263 . S
O47 Tb42 2.353 . S
C48 O52 1.245 . S
C48 O53 1.259 . S
C49 O54 1.250 . S
C49 O55 1.263 . S
O50 Tb42 2.427 . S
O50 C46 1.275 . S
O51 Tb42 2.513 . S
O51 C46 1.246 . S
O52 Tb42 2.453 . S
O52 C48 1.245 . S
O53 Tb40 2.343 . S
O53 Tb42 2.596 . S
O53 C48 1.259 . S
O54 Tb42 2.374 . S
O54 C49 1.250 . S
O55 Tb40 2.353 . S
O55 C49 1.263 . S
C56 O57 1.275 . S
C56 O58 1.246 . S
O57 Tb40 2.427 . S
O57 C56 1.275 . S
O58 Tb40 2.513 . S
O58 C56 1.246 . S
C59 O43 1.245 . S
C59 O44 1.259 . S
Tb60 O63 2.453 . S
Tb60 O64 2.596 . S
Tb60 O65 2.374 . S
Tb60 O73 2.343 . S
Tb60 O75 2.353 . S
Tb60 O77 2.427 . S
Tb60 O78 2.513 . S
C61 O65 1.251 . S
C61 O67 1.263 . S
Tb62 O64 2.343 . S
Tb62 O67 2.353 . S
Tb62 O70 2.427 . S
Tb62 O71 2.513 . S
Tb62 O72 2.453 . S
Tb62 O73 2.596 . S
Tb62 O74 2.374 . S
O63 Tb60 2.453 . S
O63 C79 1.245 . S
O64 Tb60 2.596 . S
O64 Tb62 2.343 . S
O64 C79 1.259 . S
O65 Tb60 2.374 . S
O65 C61 1.251 . S
C66 O70 1.275 . S
C66 O71 1.246 . S
O67 C61 1.263 . S
O67 Tb62 2.353 . S
C68 O72 1.245 . S
C68 O73 1.259 . S
C69 O74 1.250 . S
C69 O75 1.263 . S
O70 Tb62 2.427 . S
O70 C66 1.275 . S
O71 Tb62 2.513 . S
O71 C66 1.246 . S
O72 Tb62 2.453 . S
O72 C68 1.245 . S
O73 Tb60 2.343 . S
O73 Tb62 2.596 . S
O73 C68 1.259 . S
O74 Tb62 2.374 . S
O74 C69 1.250 . S
O75 Tb60 2.353 . S
O75 C69 1.263 . S
C76 O77 1.275 . S
C76 O78 1.246 . S
O77 Tb60 2.427 . S
O77 C76 1.275 . S
O78 Tb60 2.513 . S
O78 C76 1.246 . S
C79 O63 1.245 . S
C79 O64 1.259 . S
Tb80 O83 2.453 . S
Tb80 O84 2.596 . S
Tb80 O85 2.374 . S
Tb80 O93 2.343 . S
Tb80 O95 2.353 . S
Tb80 O97 2.427 . S
Tb80 O98 2.513 . S
C81 O85 1.251 . S
C81 O87 1.263 . S
Tb82 O84 2.343 . S
Tb82 O87 2.353 . S
Tb82 O90 2.427 . S
Tb82 O91 2.513 . S
Tb82 O92 2.453 . S
Tb82 O93 2.596 . S
Tb82 O94 2.374 . S
O83 Tb80 2.453 . S
O83 C99 1.245 . S
O84 Tb80 2.596 . S
O84 Tb82 2.343 . S
O84 C99 1.259 . S
O85 Tb80 2.374 . S
O85 C81 1.251 . S
C86 O90 1.275 . S
C86 O91 1.246 . S
O87 C81 1.263 . S
O87 Tb82 2.353 . S
C88 O92 1.245 . S
C88 O93 1.259 . S
C89 O94 1.250 . S
C89 O95 1.263 . S
O90 Tb82 2.427 . S
O90 C86 1.275 . S
O91 Tb82 2.513 . S
O91 C86 1.246 . S
O92 Tb82 2.453 . S
O92 C88 1.245 . S
O93 Tb80 2.343 . S
O93 Tb82 2.596 . S
O93 C88 1.259 . S
O94 Tb82 2.374 . S
O94 C89 1.250 . S
O95 Tb80 2.353 . S
O95 C89 1.263 . S
C96 O97 1.275 . S
C96 O98 1.246 . S
O97 Tb80 2.427 . S
O97 C96 1.275 . S
O98 Tb80 2.513 . S
O98 C96 1.246 . S
C99 O83 1.245 . S
C99 O84 1.259 . S
Tb100 O103 2.453 . S
Tb100 O104 2.596 . S
Tb100 O105 2.374 . S
Tb100 O113 2.343 . S
Tb100 O115 2.353 . S
Tb100 O117 2.427 . S
Tb100 O118 2.513 . S
C101 O105 1.251 . S
C101 O107 1.263 . S
Tb102 O104 2.343 . S
Tb102 O107 2.353 . S
Tb102 O110 2.427 . S
Tb102 O111 2.513 . S
Tb102 O112 2.453 . S
Tb102 O113 2.596 . S
Tb102 O114 2.374 . S
O103 Tb100 2.453 . S
O103 C119 1.245 . S
O104 Tb100 2.596 . S
O104 Tb102 2.343 . S
O104 C119 1.259 . S
O105 Tb100 2.374 . S
O105 C101 1.251 . S
C106 O110 1.275 . S
C106 O111 1.246 . S
O107 C101 1.263 . S
O107 Tb102 2.353 . S
C108 O112 1.245 . S
C108 O113 1.259 . S
C109 O114 1.250 . S
C109 O115 1.263 . S
O110 Tb102 2.427 . S
O110 C106 1.275 . S
O111 Tb102 2.513 . S
O111 C106 1.246 . S
O112 Tb102 2.453 . S
O112 C108 1.245 . S
O113 Tb100 2.343 . S
O113 Tb102 2.596 . S
O113 C108 1.259 . S
O114 Tb102 2.374 . S
O114 C109 1.250 . S
O115 Tb100 2.353 . S
O115 C109 1.263 . S
C116 O117 1.275 . S
C116 O118 1.246 . S
O117 Tb100 2.427 . S
O117 C116 1.275 . S
O118 Tb100 2.513 . S
O118 C116 1.246 . S
C119 O103 1.245 . S
C119 O104 1.259 . S
Tb120 O123 2.453 . S
Tb120 O124 2.596 . S
Tb120 O125 2.374 . S
Tb120 O133 2.343 . S
Tb120 O135 2.353 . S
Tb120 O137 2.427 . S
Tb120 O138 2.513 . S
C121 O125 1.251 . S
C121 O127 1.263 . S
Tb122 O124 2.343 . S
Tb122 O127 2.353 . S
Tb122 O130 2.427 . S
Tb122 O131 2.513 . S
Tb122 O132 2.453 . S
Tb122 O133 2.596 . S
Tb122 O134 2.374 . S
O123 Tb120 2.453 . S
O123 C139 1.245 . S
O124 Tb120 2.596 . S
O124 Tb122 2.343 . S
O124 C139 1.259 . S
O125 Tb120 2.374 . S
O125 C121 1.251 . S
C126 O130 1.275 . S
C126 O131 1.246 . S
O127 C121 1.263 . S
O127 Tb122 2.353 . S
C128 O132 1.245 . S
C128 O133 1.259 . S
C129 O134 1.250 . S
C129 O135 1.263 . S
O130 Tb122 2.427 . S
O130 C126 1.275 . S
O131 Tb122 2.513 . S
O131 C126 1.246 . S
O132 Tb122 2.453 . S
O132 C128 1.245 . S
O133 Tb120 2.343 . S
O133 Tb122 2.596 . S
O133 C128 1.259 . S
O134 Tb122 2.374 . S
O134 C129 1.250 . S
O135 Tb120 2.353 . S
O135 C129 1.263 . S
C136 O137 1.275 . S
C136 O138 1.246 . S
O137 Tb120 2.427 . S
O137 C136 1.275 . S
O138 Tb120 2.513 . S
O138 C136 1.246 . S
C139 O123 1.245 . S
C139 O124 1.259 . S
Tb140 O143 2.453 . S
Tb140 O144 2.596 . S
Tb140 O145 2.374 . S
Tb140 O153 2.343 . S
Tb140 O155 2.353 . S
Tb140 O157 2.427 . S
Tb140 O158 2.513 . S
C141 O145 1.251 . S
C141 O147 1.263 . S
Tb142 O144 2.343 . S
Tb142 O147 2.353 . S
Tb142 O150 2.427 . S
Tb142 O151 2.513 . S
Tb142 O152 2.453 . S
Tb142 O153 2.596 . S
Tb142 O154 2.374 . S
O143 Tb140 2.453 . S
O143 C159 1.245 . S
O144 Tb140 2.596 . S
O144 Tb142 2.343 . S
O144 C159 1.259 . S
O145 Tb140 2.374 . S
O145 C141 1.251 . S
C146 O150 1.275 . S
C146 O151 1.246 . S
O147 C141 1.263 . S
O147 Tb142 2.353 . S
C148 O152 1.245 . S
C148 O153 1.259 . S
C149 O154 1.250 . S
C149 O155 1.263 . S
O150 Tb142 2.427 . S
O150 C146 1.275 . S
O151 Tb142 2.513 . S
O151 C146 1.246 . S
O152 Tb142 2.453 . S
O152 C148 1.245 . S
O153 Tb140 2.343 . S
O153 Tb142 2.596 . S
O153 C148 1.259 . S
O154 Tb142 2.374 . S
O154 C149 1.250 . S
O155 Tb140 2.353 . S
O155 C149 1.263 . S
C156 O157 1.275 . S
C156 O158 1.246 . S
O157 Tb140 2.427 . S
O157 C156 1.275 . S
O158 Tb140 2.513 . S
O158 C156 1.246 . S
C159 O143 1.245 . S
C159 O144 1.259 . S
Tb160 O163 2.453 . S
Tb160 O164 2.596 . S
Tb160 O165 2.374 . S
Tb160 O173 2.343 . S
Tb160 O175 2.353 . S
Tb160 O177 2.427 . S
Tb160 O178 2.513 . S
C161 O165 1.251 . S
C161 O167 1.263 . S
Tb162 O164 2.343 . S
Tb162 O167 2.353 . S
Tb162 O170 2.427 . S
Tb162 O171 2.513 . S
Tb162 O172 2.453 . S
Tb162 O173 2.596 . S
Tb162 O174 2.374 . S
O163 Tb160 2.453 . S
O163 C179 1.245 . S
O164 Tb160 2.596 . S
O164 Tb162 2.343 . S
O164 C179 1.259 . S
O165 Tb160 2.374 . S
O165 C161 1.251 . S
C166 O170 1.275 . S
C166 O171 1.246 . S
O167 C161 1.263 . S
O167 Tb162 2.353 . S
C168 O172 1.245 . S
C168 O173 1.259 . S
C169 O174 1.250 . S
C169 O175 1.263 . S
O170 Tb162 2.427 . S
O170 C166 1.275 . S
O171 Tb162 2.513 . S
O171 C166 1.246 . S
O172 Tb162 2.453 . S
O172 C168 1.245 . S
O173 Tb160 2.343 . S
O173 Tb162 2.596 . S
O173 C168 1.259 . S
O174 Tb162 2.374 . S
O174 C169 1.250 . S
O175 Tb160 2.353 . S
O175 C169 1.263 . S
C176 O177 1.275 . S
C176 O178 1.246 . S
O177 Tb160 2.427 . S
O177 C176 1.275 . S
O178 Tb160 2.513 . S
O178 C176 1.246 . S
C179 O163 1.245 . S
C179 O164 1.259 . S
Tb180 O183 2.453 . S
Tb180 O184 2.596 . S
Tb180 O185 2.374 . S
Tb180 O193 2.343 . S
Tb180 O195 2.353 . S
Tb180 O197 2.427 . S
Tb180 O198 2.513 . S
C181 O185 1.251 . S
C181 O187 1.263 . S
Tb182 O184 2.343 . S
Tb182 O187 2.353 . S
Tb182 O190 2.427 . S
Tb182 O191 2.513 . S
Tb182 O192 2.453 . S
Tb182 O193 2.596 . S
Tb182 O194 2.374 . S
O183 Tb180 2.453 . S
O183 C199 1.245 . S
O184 Tb180 2.596 . S
O184 Tb182 2.343 . S
O184 C199 1.259 . S
O185 Tb180 2.374 . S
O185 C181 1.251 . S
C186 O190 1.275 . S
C186 O191 1.246 . S
O187 C181 1.263 . S
O187 Tb182 2.353 . S
C188 O192 1.245 . S
C188 O193 1.259 . S
C189 O194 1.250 . S
C189 O195 1.263 . S
O190 Tb182 2.427 . S
O190 C186 1.275 . S
O191 Tb182 2.513 . S
O191 C186 1.246 . S
O192 Tb182 2.453 . S
O192 C188 1.245 . S
O193 Tb180 2.343 . S
O193 Tb182 2.596 . S
O193 C188 1.259 . S
O194 Tb182 2.374 . S
O194 C189 1.250 . S
O195 Tb180 2.353 . S
O195 C189 1.263 . S
C196 O197 1.275 . S
C196 O198 1.246 . S
O197 Tb180 2.427 . S
O197 C196 1.275 . S
O198 Tb180 2.513 . S
O198 C196 1.246 . S
C199 O183 1.245 . S
C199 O184 1.259 . S
Tb200 O203 2.453 . S
Tb200 O204 2.596 . S
Tb200 O205 2.374 . S
Tb200 O213 2.343 . S
Tb200 O215 2.353 . S
Tb200 O217 2.427 . S
Tb200 O218 2.513 . S
C201 O205 1.251 . S
C201 O207 1.263 . S
Tb202 O204 2.343 . S
Tb202 O207 2.353 . S
Tb202 O210 2.427 . S
Tb202 O211 2.513 . S
Tb202 O212 2.453 . S
Tb202 O213 2.596 . S
Tb202 O214 2.374 . S
O203 Tb200 2.453 . S
O203 C219 1.245 . S
O204 Tb200 2.596 . S
O204 Tb202 2.343 . S
O204 C219 1.259 . S
O205 Tb200 2.374 . S
O205 C201 1.251 . S
C206 O210 1.275 . S
C206 O211 1.246 . S
O207 C201 1.263 . S
O207 Tb202 2.353 . S
C208 O212 1.245 . S
C208 O213 1.259 . S
C209 O214 1.250 . S
C209 O215 1.263 . S
O210 Tb202 2.427 . S
O210 C206 1.275 . S
O211 Tb202 2.513 . S
O211 C206 1.246 . S
O212 Tb202 2.453 . S
O212 C208 1.245 . S
O213 Tb200 2.343 . S
O213 Tb202 2.596 . S
O213 C208 1.259 . S
O214 Tb202 2.374 . S
O214 C209 1.250 . S
O215 Tb200 2.353 . S
O215 C209 1.263 . S
C216 O217 1.275 . S
C216 O218 1.246 . S
O217 Tb200 2.427 . S
O217 C216 1.275 . S
O218 Tb200 2.513 . S
O218 C216 1.246 . S
C219 O203 1.245 . S
C219 O204 1.259 . S
Tb220 O223 2.453 . S
Tb220 O224 2.596 . S
Tb220 O225 2.374 . S
Tb220 O233 2.343 . S
Tb220 O235 2.353 . S
Tb220 O237 2.427 . S
Tb220 O238 2.513 . S
C221 O225 1.251 . S
C221 O227 1.263 . S
Tb222 O224 2.343 . S
Tb222 O227 2.353 . S
Tb222 O230 2.427 . S
Tb222 O231 2.513 . S
Tb222 O232 2.453 . S
Tb222 O233 2.596 . S
Tb222 O234 2.374 . S
O223 Tb220 2.453 . S
O223 C239 1.245 . S
O224 Tb220 2.596 . S
O224 Tb222 2.343 . S
O224 C239 1.259 . S
O225 Tb220 2.374 . S
O225 C221 1.251 . S
C226 O230 1.275 . S
C226 O231 1.246 . S
O227 C221 1.263 . S
O227 Tb222 2.353 . S
C228 O232 1.245 . S
C228 O233 1.259 . S
C229 O234 1.250 . S
C229 O235 1.263 . S
O230 Tb222 2.427 . S
O230 C226 1.275 . S
O231 Tb222 2.513 . S
O231 C226 1.246 . S
O232 Tb222 2.453 . S
O232 C228 1.245 . S
O233 Tb220 2.343 . S
O233 Tb222 2.596 . S
O233 C228 1.259 . S
O234 Tb222 2.374 . S
O234 C229 1.250 . S
O235 Tb220 2.353 . S
O235 C229 1.263 . S
C236 O237 1.275 . S
C236 O238 1.246 . S
O237 Tb220 2.427 . S
O237 C236 1.275 . S
O238 Tb220 2.513 . S
O238 C236 1.246 . S
C239 O223 1.245 . S
C239 O224 1.259 . S
C240 C241 1.387 . S
C240 H244 0.950 . S
C240 C249 1.390 . S
C241 C240 1.387 . S
C241 C243 1.387 . S
H242 C249 0.950 . S
C243 C241 1.387 . S
C243 C245 1.390 . S
C243 H247 0.950 . S
H244 C240 0.950 . S
C245 C243 1.390 . S
C245 C246 1.387 . S
C245 H248 0.950 . S
C246 C245 1.387 . S
C246 C249 1.387 . S
H247 C243 0.950 . S
H248 C245 0.950 . S
C249 C240 1.390 . S
C249 H242 0.950 . S
C249 C246 1.387 . S
C250 C251 1.387 . S
C250 H254 0.950 . S
C250 C259 1.390 . S
C251 C250 1.387 . S
C251 C253 1.387 . S
H252 C259 0.950 . S
C253 C251 1.387 . S
C253 C255 1.390 1_455 S
C253 H257 0.950 . S
H254 C250 0.950 . S
C255 C253 1.390 1_655 S
C255 C256 1.387 1_655 S
C255 H258 0.950 . S
C256 C255 1.387 1_455 S
C256 C259 1.387 . S
H257 C253 0.950 . S
H258 C255 0.950 . S
C259 C250 1.390 . S
C259 H252 0.950 . S
C259 C256 1.387 . S
C260 C261 1.387 . S
C260 H264 0.950 . S
C260 C269 1.390 . S
C261 C260 1.387 . S
C261 C263 1.387 . S
H262 C269 0.950 . S
C263 C261 1.387 . S
C263 C265 1.390 . S
C263 H267 0.950 1_545 S
H264 C260 0.950 . S
C265 C263 1.390 . S
C265 C266 1.387 . S
C265 H268 0.950 . S
C266 C265 1.387 . S
C266 C269 1.387 . S
H267 C263 0.950 1_565 S
H268 C265 0.950 . S
C269 C260 1.390 . S
C269 H262 0.950 . S
C269 C266 1.387 . S
C270 C271 1.387 . S
C270 H274 0.950 . S
C270 C279 1.390 . S
C271 C270 1.387 . S
C271 C273 1.387 . S
H272 C279 0.950 . S
C273 C271 1.387 . S
C273 C275 1.390 . S
C273 H277 0.950 . S
H274 C270 0.950 . S
C275 C273 1.390 . S
C275 C276 1.387 . S
C275 H278 0.950 . S
C276 C275 1.387 . S
C276 C279 1.387 . S
H277 C273 0.950 . S
H278 C275 0.950 . S
C279 C270 1.390 . S
C279 H272 0.950 . S
C279 C276 1.387 . S
C280 C281 1.387 . S
C280 H284 0.950 . S
C280 C289 1.390 . S
C281 C280 1.387 . S
C281 C283 1.387 . S
H282 C289 0.950 . S
C283 C281 1.387 . S
C283 C285 1.390 . S
C283 H287 0.950 . S
H284 C280 0.950 . S
C285 C283 1.390 . S
C285 C286 1.387 . S
C285 H288 0.950 . S
C286 C285 1.387 . S
C286 C289 1.387 . S
H287 C283 0.950 . S
H288 C285 0.950 . S
C289 C280 1.390 . S
C289 H282 0.950 . S
C289 C286 1.387 . S
C290 C291 1.387 . S
C290 H294 0.950 . S
C290 C299 1.390 . S
C291 C290 1.387 . S
C291 C293 1.387 . S
H292 C299 0.950 . S
C293 C291 1.387 . S
C293 C295 1.390 . S
C293 H297 0.950 . S
H294 C290 0.950 . S
C295 C293 1.390 . S
C295 C296 1.387 . S
C295 H298 0.950 . S
C296 C295 1.387 . S
C296 C299 1.387 . S
H297 C293 0.950 . S
H298 C295 0.950 . S
C299 C290 1.390 . S
C299 H292 0.950 . S
C299 C296 1.387 . S
C300 C301 1.387 . S
C300 H304 0.950 . S
C300 C309 1.390 . S
C301 C300 1.387 . S
C301 C303 1.387 . S
H302 C309 0.950 . S
C303 C301 1.387 . S
C303 C305 1.390 . S
C303 H307 0.950 . S
H304 C300 0.950 . S
C305 C303 1.390 . S
C305 C306 1.387 . S
C305 H308 0.950 . S
C306 C305 1.387 . S
C306 C309 1.387 . S
H307 C303 0.950 . S
H308 C305 0.950 . S
C309 C300 1.390 . S
C309 H302 0.950 . S
C309 C306 1.387 . S
C310 C311 1.387 . S
C310 H314 0.950 . S
C310 C319 1.390 . S
C311 C310 1.387 . S
C311 C313 1.387 . S
H312 C319 0.950 . S
C313 C311 1.387 . S
C313 C315 1.390 . S
C313 H317 0.950 . S
H314 C310 0.950 . S
C315 C313 1.390 . S
C315 C316 1.387 . S
C315 H318 0.950 . S
C316 C315 1.387 . S
C316 C319 1.387 . S
H317 C313 0.950 . S
H318 C315 0.950 . S
C319 C310 1.390 . S
C319 H312 0.950 . S
C319 C316 1.387 . S
C320 C321 1.387 . S
C320 H324 0.950 . S
C320 C329 1.390 . S
C321 C320 1.387 . S
C321 C323 1.387 . S
H322 C329 0.950 . S
C323 C321 1.387 . S
C323 C325 1.390 . S
C323 H327 0.950 . S
H324 C320 0.950 . S
C325 C323 1.390 . S
C325 C326 1.387 . S
C325 H328 0.950 . S
C326 C325 1.387 . S
C326 C329 1.387 . S
H327 C323 0.950 . S
H328 C325 0.950 . S
C329 C320 1.390 . S
C329 H322 0.950 . S
C329 C326 1.387 . S
C330 C331 1.387 . S
C330 H334 0.950 . S
C330 C339 1.390 . S
C331 C330 1.387 . S
C331 C333 1.387 . S
H332 C339 0.950 . S
C333 C331 1.387 . S
C333 C335 1.390 . S
C333 H337 0.950 . S
H334 C330 0.950 . S
C335 C333 1.390 . S
C335 C336 1.387 . S
C335 H338 0.950 . S
C336 C335 1.387 . S
C336 C339 1.387 . S
H337 C333 0.950 . S
H338 C335 0.950 . S
C339 C330 1.390 . S
C339 H332 0.950 . S
C339 C336 1.387 . S
C340 C341 1.387 . S
C340 H344 0.955 . S
C340 C349 1.390 . S
C341 C340 1.387 . S
C341 C343 1.387 . S
H342 C349 0.950 . S
C343 C341 1.387 . S
C343 C345 1.390 . S
C343 H347 0.950 . S
H344 C340 0.955 . S
C345 C343 1.390 . S
C345 C346 1.387 . S
C345 H348 0.950 . S
C346 C345 1.387 . S
C346 C349 1.387 . S
H347 C343 0.950 . S
H348 C345 0.950 . S
C349 C340 1.390 . S
C349 H342 0.950 . S
C349 C346 1.387 . S
C350 C351 1.387 . S
C350 H354 0.950 . S
C350 C359 1.390 . S
C351 C350 1.387 . S
C351 C353 1.387 . S
H352 C359 0.950 . S
C353 C351 1.387 . S
C353 C355 1.390 . S
C353 H357 0.950 . S
H354 C350 0.950 . S
C355 C353 1.390 . S
C355 C356 1.387 . S
C355 H358 0.950 . S
C356 C355 1.387 . S
C356 C359 1.387 . S
H357 C353 0.950 . S
H358 C355 0.950 . S
C359 C350 1.390 . S
C359 H352 0.950 . S
C359 C356 1.387 . S
C360 C361 1.387 . S
C360 H364 0.950 . S
C360 C369 1.390 . S
C361 C360 1.387 . S
C361 C363 1.387 . S
H362 C369 0.950 . S
C363 C361 1.387 . S
C363 C365 1.390 . S
C363 H367 0.950 . S
H364 C360 0.950 . S
C365 C363 1.390 . S
C365 C366 1.387 . S
C365 H368 0.950 . S
C366 C365 1.387 . S
C366 C369 1.387 . S
H367 C363 0.950 . S
H368 C365 0.950 . S
C369 C360 1.390 . S
C369 H362 0.950 . S
C369 C366 1.387 . S
C370 C371 1.387 . S
C370 H374 0.950 . S
C370 C379 1.390 . S
C371 C370 1.387 . S
C371 C373 1.387 . S
H372 C379 0.950 . S
C373 C371 1.387 . S
C373 C375 1.390 . S
C373 H377 0.950 . S
H374 C370 0.950 . S
C375 C373 1.390 . S
C375 C376 1.387 . S
C375 H378 0.950 . S
C376 C375 1.387 . S
C376 C379 1.387 . S
H377 C373 0.950 . S
H378 C375 0.950 . S
C379 C370 1.390 . S
C379 H372 0.950 . S
C379 C376 1.387 . S
C380 C381 1.387 . S
C380 H384 0.950 . S
C380 C389 1.390 . S
C381 C380 1.387 . S
C381 C383 1.387 . S
H382 C389 0.950 . S
C383 C381 1.387 . S
C383 C385 1.390 . S
C383 H387 0.950 . S
H384 C380 0.950 . S
C385 C383 1.390 . S
C385 C386 1.387 . S
C385 H388 0.950 . S
C386 C385 1.387 . S
C386 C389 1.387 . S
H387 C383 0.950 . S
H388 C385 0.950 . S
C389 C380 1.390 . S
C389 H382 0.950 . S
C389 C386 1.387 . S
C390 C391 1.387 . S
C390 H394 0.950 . S
C390 C399 1.390 . S
C391 C390 1.387 . S
C391 C393 1.387 . S
H392 C399 0.950 . S
C393 C391 1.387 . S
C393 C395 1.390 . S
C393 H397 0.950 . S
H394 C390 0.950 . S
C395 C393 1.390 . S
C395 C396 1.387 . S
C395 H398 0.950 . S
C396 C395 1.387 . S
C396 C399 1.387 . S
H397 C393 0.950 . S
H398 C395 0.950 . S
C399 C390 1.390 . S
C399 H392 0.950 . S
C399 C396 1.387 . S
C400 C401 1.387 . S
C400 H404 0.950 . S
C400 C409 1.390 . S
C401 C400 1.387 . S
C401 C403 1.387 . S
H402 C409 0.950 . S
C403 C401 1.387 . S
C403 C405 1.390 . S
C403 H407 0.950 . S
H404 C400 0.950 . S
C405 C403 1.390 . S
C405 C406 1.387 . S
C405 H408 0.950 . S
C406 C405 1.387 . S
C406 C409 1.387 . S
H407 C403 0.950 . S
H408 C405 0.950 . S
C409 C400 1.390 . S
C409 H402 0.950 . S
C409 C406 1.387 . S
C410 C411 1.387 . S
C410 H414 0.950 . S
C410 C419 1.390 . S
C411 C410 1.387 . S
C411 C413 1.387 . S
H412 C419 0.950 . S
C413 C411 1.387 . S
C413 C415 1.390 . S
C413 H417 0.950 . S
H414 C410 0.950 . S
C415 C413 1.390 . S
C415 C416 1.387 . S
C415 H418 0.950 . S
C416 C415 1.387 . S
C416 C419 1.387 . S
H417 C413 0.950 . S
H418 C415 0.950 . S
C419 C410 1.390 . S
C419 H412 0.950 . S
C419 C416 1.387 . S
C420 C421 1.387 . S
C420 H424 0.950 . S
C420 C429 1.390 . S
C421 C420 1.387 . S
C421 C423 1.387 . S
H422 C429 0.950 . S
C423 C421 1.387 . S
C423 C425 1.390 . S
C423 H427 0.950 . S
H424 C420 0.950 . S
C425 C423 1.390 . S
C425 C426 1.387 . S
C425 H428 0.950 . S
C426 C425 1.387 . S
C426 C429 1.387 . S
H427 C423 0.950 . S
H428 C425 0.950 . S
C429 C420 1.390 . S
C429 H422 0.950 . S
C429 C426 1.387 . S
C430 C431 1.387 . S
C430 H434 0.950 . S
C430 C439 1.390 . S
C431 C430 1.387 . S
C431 C433 1.387 . S
H432 C439 0.950 . S
C433 C431 1.387 . S
C433 C435 1.390 . S
C433 H437 0.950 . S
H434 C430 0.950 . S
C435 C433 1.390 . S
C435 C436 1.387 . S
C435 H438 0.950 . S
C436 C435 1.387 . S
C436 C439 1.387 . S
H437 C433 0.950 . S
H438 C435 0.950 . S
C439 C430 1.390 . S
C439 H432 0.950 . S
C439 C436 1.387 . S
C440 C441 1.387 . S
C440 H444 0.950 . S
C440 C449 1.390 . S
C441 C440 1.387 . S
C441 C443 1.387 . S
H442 C449 0.950 . S
C443 C441 1.387 . S
C443 C445 1.390 . S
C443 H447 0.950 . S
H444 C440 0.950 . S
C445 C443 1.390 . S
C445 C446 1.387 . S
C445 H448 0.950 . S
C446 C445 1.387 . S
C446 C449 1.387 . S
H447 C443 0.950 . S
H448 C445 0.950 . S
C449 C440 1.390 . S
C449 H442 0.950 . S
C449 C446 1.387 . S
C450 C451 1.387 . S
C450 H454 0.950 . S
C450 C459 1.390 . S
C451 C450 1.387 . S
C451 C453 1.387 . S
H452 C459 0.950 . S
C453 C451 1.387 . S
C453 C455 1.390 . S
C453 H457 0.950 . S
H454 C450 0.950 . S
C455 C453 1.390 . S
C455 C456 1.387 . S
C455 H458 0.950 . S
C456 C455 1.387 . S
C456 C459 1.387 . S
H457 C453 0.950 . S
H458 C455 0.950 . S
C459 C450 1.390 . S
C459 H452 0.950 . S
C459 C456 1.387 . S
C460 C461 1.387 . S
C460 H464 0.950 . S
C460 C469 1.390 . S
C461 C460 1.387 . S
C461 C463 1.387 . S
H462 C469 0.950 . S
C463 C461 1.387 . S
C463 C465 1.390 . S
C463 H467 0.950 . S
H464 C460 0.950 . S
C465 C463 1.390 . S
C465 C466 1.387 . S
C465 H468 0.950 . S
C466 C465 1.387 . S
C466 C469 1.387 . S
H467 C463 0.950 . S
H468 C465 0.950 . S
C469 C460 1.390 . S
C469 H462 0.950 . S
C469 C466 1.387 . S
C470 C471 1.387 . S
C470 H474 0.950 . S
C470 C479 1.390 . S
C471 C470 1.387 . S
C471 C473 1.387 . S
H472 C479 0.950 . S
C473 C471 1.387 . S
C473 C475 1.390 . S
C473 H477 0.950 . S
H474 C470 0.950 . S
C475 C473 1.390 . S
C475 C476 1.387 . S
C475 H478 0.950 . S
C476 C475 1.387 . S
C476 C479 1.387 . S
H477 C473 0.950 . S
H478 C475 0.950 . S
C479 C470 1.390 . S
C479 H472 0.950 . S
C479 C476 1.387 . S
C480 C481 1.387 . S
C480 H484 0.950 . S
C480 C489 1.390 . S
C481 C480 1.387 . S
C481 C483 1.387 . S
H482 C489 0.950 . S
C483 C481 1.387 . S
C483 C485 1.390 . S
C483 H487 0.950 . S
H484 C480 0.950 . S
C485 C483 1.390 . S
C485 C486 1.387 . S
C485 H488 0.950 . S
C486 C485 1.387 . S
C486 C489 1.387 . S
H487 C483 0.950 . S
H488 C485 0.950 . S
C489 C480 1.390 . S
C489 H482 0.950 . S
C489 C486 1.387 . S
C490 C491 1.387 . S
C490 H494 0.950 . S
C490 C499 1.390 . S
C491 C490 1.387 . S
C491 C493 1.387 . S
H492 C499 0.950 . S
C493 C491 1.387 . S
C493 C495 1.390 . S
C493 H497 0.950 . S
H494 C490 0.950 . S
C495 C493 1.390 . S
C495 C496 1.387 . S
C495 H498 0.950 . S
C496 C495 1.387 . S
C496 C499 1.387 . S
H497 C493 0.950 . S
H498 C495 0.950 . S
C499 C490 1.390 . S
C499 H492 0.950 . S
C499 C496 1.387 . S
C500 C501 1.387 . S
C500 H504 0.950 . S
C500 C509 1.390 . S
C501 C500 1.387 . S
C501 C503 1.387 . S
H502 C509 0.950 . S
C503 C501 1.387 . S
C503 C505 1.390 . S
C503 H507 0.950 . S
H504 C500 0.950 . S
C505 C503 1.390 . S
C505 C506 1.387 . S
C505 H508 0.950 . S
C506 C505 1.387 . S
C506 C509 1.387 . S
H507 C503 0.950 . S
H508 C505 0.950 . S
C509 C500 1.390 . S
C509 H502 0.950 . S
C509 C506 1.387 . S
C510 C511 1.387 . S
C510 H514 0.950 . S
C510 C519 1.390 . S
C511 C510 1.387 . S
C511 C513 1.387 . S
H512 C519 0.950 . S
C513 C511 1.387 . S
C513 C515 1.390 . S
C513 H517 0.950 . S
H514 C510 0.950 . S
C515 C513 1.390 . S
C515 C516 1.387 . S
C515 H518 0.950 . S
C516 C515 1.387 . S
C516 C519 1.387 . S
H517 C513 0.950 . S
H518 C515 0.950 . S
C519 C510 1.390 . S
C519 H512 0.950 . S
C519 C516 1.387 . S
C520 C521 1.387 . S
C520 H524 0.950 . S
C520 C529 1.390 . S
C521 C520 1.387 . S
C521 C523 1.387 . S
H522 C529 0.950 . S
C523 C521 1.387 . S
C523 C525 1.390 . S
C523 H527 0.950 . S
H524 C520 0.950 . S
C525 C523 1.390 . S
C525 C526 1.387 . S
C525 H528 0.950 . S
C526 C525 1.387 . S
C526 C529 1.387 . S
H527 C523 0.950 . S
H528 C525 0.950 . S
C529 C520 1.390 . S
C529 H522 0.950 . S
C529 C526 1.387 . S
C530 C531 1.387 . S
C530 H534 0.950 . S
C530 C539 1.390 . S
C531 C530 1.387 . S
C531 C533 1.387 . S
H532 C539 0.950 . S
C533 C531 1.387 . S
C533 C535 1.390 . S
C533 H537 0.950 . S
H534 C530 0.950 . S
C535 C533 1.390 . S
C535 C536 1.387 . S
C535 H538 0.950 . S
C536 C535 1.387 . S
C536 C539 1.387 . S
H537 C533 0.950 . S
H538 C535 0.950 . S
C539 C530 1.390 . S
C539 H532 0.950 . S
C539 C536 1.387 . S
C540 C541 1.387 . S
C540 H544 0.950 . S
C540 C549 1.390 . S
C541 C540 1.387 . S
C541 C543 1.387 1_556 S
H542 C549 0.950 . S
C543 C541 1.387 1_554 S
C543 C545 1.390 . S
C543 H547 0.950 . S
H544 C540 0.950 . S
C545 C543 1.390 . S
C545 C546 1.387 . S
C545 H548 0.950 . S
C546 C545 1.387 . S
C546 C549 1.387 1_554 S
H547 C543 0.950 . S
H548 C545 0.950 . S
C549 C540 1.390 . S
C549 H542 0.950 . S
C549 C546 1.387 1_556 S
C550 C551 1.387 . S
C550 H554 0.950 . S
C550 C559 1.390 1_455 S
C551 C550 1.387 . S
C551 C553 1.387 . S
H552 C559 0.950 . S
C553 C551 1.387 . S
C553 C555 1.390 1_455 S
C553 H557 0.950 . S
H554 C550 0.950 . S
C555 C553 1.390 1_655 S
C555 C556 1.387 . S
C555 H558 0.950 . S
C556 C555 1.387 . S
C556 C559 1.387 . S
H557 C553 0.950 . S
H558 C555 0.950 . S
C559 C550 1.390 1_655 S
C559 H552 0.950 . S
C559 C556 1.387 . S
C560 C561 1.387 . S
C560 H564 0.950 . S
C560 C569 1.390 1_564 S
C561 C560 1.387 . S
C561 C563 1.387 . S
H562 C569 0.950 . S
C563 C561 1.387 . S
C563 C565 1.390 1_564 S
C563 H567 0.950 . S
H564 C560 0.950 . S
C565 C563 1.390 1_546 S
C565 C566 1.387 . S
C565 H568 0.950 . S
C566 C565 1.387 . S
C566 C569 1.387 . S
H567 C563 0.950 . S
H568 C565 0.950 . S
C569 C560 1.390 1_546 S
C569 H562 0.950 . S
C569 C566 1.387 . S
C570 C571 1.387 . S
C570 H574 0.950 . S
C570 C579 1.390 . S
C571 C570 1.387 . S
C571 C573 1.387 . S
H572 C579 0.950 . S
C573 C571 1.387 . S
C573 C575 1.390 . S
C573 H577 0.950 . S
H574 C570 0.950 . S
C575 C573 1.390 . S
C575 C576 1.387 . S
C575 H578 0.950 . S
C576 C575 1.387 . S
C576 C579 1.387 . S
H577 C573 0.950 . S
H578 C575 0.950 . S
C579 C570 1.390 . S
C579 H572 0.950 . S
C579 C576 1.387 . S
C580 C581 1.387 1_554 S
C580 H584 0.950 . S
C580 C589 1.390 1_655 S
C581 C580 1.387 1_556 S
C581 C583 1.387 . S
H582 C589 0.950 . S
C583 C581 1.387 . S
C583 C585 1.390 1_655 S
C583 H587 0.950 . S
H584 C580 0.950 . S
C585 C583 1.390 1_455 S
C585 C586 1.387 1_556 S
C585 H588 0.950 . S
C586 C585 1.387 1_554 S
C586 C589 1.387 . S
H587 C583 0.950 . S
H588 C585 0.950 . S
C589 C580 1.390 1_455 S
C589 H582 0.950 . S
C589 C586 1.387 . S
C590 C591 1.387 . S
C590 H594 0.950 . S
C590 C599 1.390 1_565 S
C591 C590 1.387 . S
C591 C593 1.387 . S
H592 C599 0.950 . S
C593 C591 1.387 . S
C593 C595 1.390 1_565 S
C593 H597 0.950 . S
H594 C590 0.950 . S
C595 C593 1.390 1_545 S
C595 C596 1.387 . S
C595 H598 0.950 . S
C596 C595 1.387 . S
C596 C599 1.387 . S
H597 C593 0.950 . S
H598 C595 0.950 . S
C599 C590 1.390 1_545 S
C599 H592 0.950 . S
C599 C596 1.387 . S
C241 C86 1.405 1_545 S
C246 C19 1.458 . S
C251 C106 1.403 . S
C256 C39 1.459 1_455 S
C261 C59 1.458 1_545 S
C266 C6 1.405 1_655 S
C271 C79 1.460 . S
C276 C26 1.401 1_565 S
C281 C99 1.458 1_655 S
C286 C46 1.405 . S
C291 C66 1.402 1_455 S
C296 C119 1.460 1_565 S
C301 C166 1.401 1_655 S
C306 C139 1.460 . S
C311 C159 1.460 1_455 S
C316 C186 1.402 1_565 S
C321 C206 1.401 . S
C326 C179 1.460 1_545 S
C331 C199 1.458 . S
C336 C226 1.405 1_455 S
C341 C219 1.460 1_655 S
C346 C126 1.402 1_545 S
C351 C146 1.405 . S
C356 C239 1.458 1_565 S
C361 C96 1.572 . S
C366 C8 1.484 . S
C371 C28 1.484 . S
C376 C116 1.572 . S
C381 C48 1.488 . S
C386 C16 1.571 . S
C391 C68 1.488 . S
C396 C36 1.571 . S
C401 C56 1.571 . S
C406 C88 1.487 . S
C411 C76 1.571 . S
C416 C108 1.488 . S
C421 C176 1.571 . S
C426 C128 1.487 . S
C431 C148 1.488 . S
C436 C196 1.571 . S
C441 C168 1.487 . S
C446 C216 1.571 . S
C451 C236 1.571 . S
C456 C188 1.487 . S
C461 C208 1.488 . S
C466 C136 1.571 . S
C471 C156 1.571 . S
C476 C228 1.487 . S
C481 C209 1.681 . S
C486 C9 1.681 . S
C491 C29 1.680 . S
C496 C229 1.681 . S
C501 C49 1.680 . S
C506 C129 1.681 . S
C511 C69 1.683 . S
C516 C149 1.683 . S
C521 C89 1.683 . S
C526 C169 1.682 . S
C531 C189 1.680 . S
C536 C109 1.682 . S
C541 C181 1.851 . S
C546 C1 1.852 . S
C551 C201 1.852 . S
C556 C21 1.851 . S
C561 C41 1.852 . S
C566 C221 1.852 . S
C571 C61 1.850 . S
C576 C121 1.851 . S
C581 C141 1.851 . S
C586 C81 1.850 . S
C591 C161 1.850 . S
C596 C101 1.850 . S
