# Generated by pormake.
# Topology wjy, (5)-cn, num edge types: 1
# Building blocks:
#     Node 0, Type 0, BuildingBlock: XOMCOT_clean_sbu_1, # of connection points: 5
#     Node 1, Type 0, BuildingBlock: XOMCOT_clean_sbu_1, # of connection points: 5
#     Node 2, Type 0, BuildingBlock: XOMCOT_clean_sbu_1, # of connection points: 5
#     Node 3, Type 0, BuildingBlock: XOMCOT_clean_sbu_1, # of connection points: 5
#     Node 4, Type 0, BuildingBlock: XOMCOT_clean_sbu_1, # of connection points: 5
#     Node 5, Type 0, BuildingBlock: XOMCOT_clean_sbu_1, # of connection points: 5
#     Node 6, Type 0, BuildingBlock: XOMCOT_clean_sbu_1, # of connection points: 5
#     Node 7, Type 0, BuildingBlock: XOMCOT_clean_sbu_1, # of connection points: 5
#     Node 8, Type 0, BuildingBlock: XOMCOT_clean_sbu_1, # of connection points: 5
#     Node 9, Type 0, BuildingBlock: XOMCOT_clean_sbu_1, # of connection points: 5
#     Node 10, Type 0, BuildingBlock: XOMCOT_clean_sbu_1, # of connection points: 5
#     Node 11, Type 0, BuildingBlock: XOMCOT_clean_sbu_1, # of connection points: 5
#     Edge 12, Type (0, 0), BuildingBlock: KIFKEQ_clean_linker_1, # of connection points: 2
#     Edge 13, Type (0, 0), BuildingBlock: KIFKEQ_clean_linker_1, # of connection points: 2
#     Edge 14, Type (0, 0), BuildingBlock: KIFKEQ_clean_linker_1, # of connection points: 2
#     Edge 15, Type (0, 0), BuildingBlock: KIFKEQ_clean_linker_1, # of connection points: 2
#     Edge 16, Type (0, 0), BuildingBlock: KIFKEQ_clean_linker_1, # of connection points: 2
#     Edge 17, Type (0, 0), BuildingBlock: KIFKEQ_clean_linker_1, # of connection points: 2
#     Edge 18, Type (0, 0), BuildingBlock: KIFKEQ_clean_linker_1, # of connection points: 2
#     Edge 19, Type (0, 0), BuildingBlock: KIFKEQ_clean_linker_1, # of connection points: 2
#     Edge 20, Type (0, 0), BuildingBlock: KIFKEQ_clean_linker_1, # of connection points: 2
#     Edge 21, Type (0, 0), BuildingBlock: KIFKEQ_clean_linker_1, # of connection points: 2
#     Edge 22, Type (0, 0), BuildingBlock: KIFKEQ_clean_linker_1, # of connection points: 2
#     Edge 23, Type (0, 0), BuildingBlock: KIFKEQ_clean_linker_1, # of connection points: 2
#     Edge 24, Type (0, 0), BuildingBlock: KIFKEQ_clean_linker_1, # of connection points: 2
#     Edge 25, Type (0, 0), BuildingBlock: KIFKEQ_clean_linker_1, # of connection points: 2
#     Edge 26, Type (0, 0), BuildingBlock: KIFKEQ_clean_linker_1, # of connection points: 2
#     Edge 27, Type (0, 0), BuildingBlock: KIFKEQ_clean_linker_1, # of connection points: 2
#     Edge 28, Type (0, 0), BuildingBlock: KIFKEQ_clean_linker_1, # of connection points: 2
#     Edge 29, Type (0, 0), BuildingBlock: KIFKEQ_clean_linker_1, # of connection points: 2
#     Edge 30, Type (0, 0), BuildingBlock: KIFKEQ_clean_linker_1, # of connection points: 2
#     Edge 31, Type (0, 0), BuildingBlock: KIFKEQ_clean_linker_1, # of connection points: 2
#     Edge 32, Type (0, 0), BuildingBlock: KIFKEQ_clean_linker_1, # of connection points: 2
#     Edge 33, Type (0, 0), BuildingBlock: KIFKEQ_clean_linker_1, # of connection points: 2
#     Edge 34, Type (0, 0), BuildingBlock: KIFKEQ_clean_linker_1, # of connection points: 2
#     Edge 35, Type (0, 0), BuildingBlock: KIFKEQ_clean_linker_1, # of connection points: 2
#     Edge 36, Type (0, 0), BuildingBlock: KIFKEQ_clean_linker_1, # of connection points: 2
#     Edge 37, Type (0, 0), BuildingBlock: KIFKEQ_clean_linker_1, # of connection points: 2
#     Edge 38, Type (0, 0), BuildingBlock: KIFKEQ_clean_linker_1, # of connection points: 2
#     Edge 39, Type (0, 0), BuildingBlock: KIFKEQ_clean_linker_1, # of connection points: 2
#     Edge 40, Type (0, 0), BuildingBlock: KIFKEQ_clean_linker_1, # of connection points: 2
#     Edge 41, Type (0, 0), BuildingBlock: KIFKEQ_clean_linker_1, # of connection points: 2
# Relax obj value: 0.189
# Max RMSD: 0.171
# Mean RMSD: 0.171
data_MOF--net-wjy--node1-XOMCOT_clean_sbu_1--edge1-KIFKEQ_clean_linker_1
_symmetry_space_group_name_H-M    P1
_symmetry_Int_Tables_number       1
_symmetry_cell_setting            triclinic
loop_
_symmetry_equiv_pos_as_xyz
'x, y, z'
_cell_length_a     72.753088
_cell_length_b     72.806439
_cell_length_c     17.74525
_cell_angle_alpha  90.045588
_cell_angle_beta   90.003817
_cell_angle_gamma 120.0246
loop_
_atom_site_label
_atom_site_type_symbol
_atom_site_fract_x
_atom_site_fract_y
_atom_site_fract_z
_atom_type_partial_charge
C0 C 0.44266 0.08943 0.1594 0.0
C1 C 0.4388 0.08627 0.23547 0.0
N2 N 0.43617 0.10206 0.26295 0.0
N3 N 0.44241 0.10709 0.13858 0.0
C4 C 0.43817 0.11432 0.20274 0.0
H5 H 0.44637 0.07998 0.12217 0.0
Co6 Co 0.44935 0.11842 0.04163 0.0
C7 C 0.45326 0.16128 0.07257 0.0
O8 O 0.47395 0.17135 0.06576 0.0
N9 N 0.45631 0.12977 0.94131 0.0
C10 C 0.47315 0.15124 0.84455 0.0
C11 C 0.47303 0.14868 0.92099 0.0
C12 C 0.44655 0.12118 0.87467 0.0
N13 N 0.45655 0.13384 0.81486 0.0
O14 O 0.42018 0.09938 0.01328 0.0
H15 H 0.48518 0.15982 0.95832 0.0
H16 H 0.43264 0.10571 0.86931 0.0
O17 O 0.44236 0.14101 0.06644 0.0
C18 C 0.41839 0.08203 0.98889 0.0
O19 O 0.43579 0.08122 0.97679 0.0
N20 N 0.47827 0.13412 0.07165 0.0
C21 C 0.51981 0.14709 0.11938 0.0
C22 C 0.50674 0.15249 0.16084 0.0
C23 C 0.4859 0.14551 0.13687 0.0
C24 C 0.49065 0.1284 0.03176 0.0
C25 C 0.51145 0.13496 0.0537 0.0
H26 H 0.47583 0.14887 0.17196 0.0
H27 H 0.48403 0.11791 0.9838 0.0
H28 H 0.43749 0.12881 0.20594 0.0
H29 H 0.43924 0.07403 0.26868 0.0
H30 H 0.48485 0.16489 0.81357 0.0
H31 H 0.51234 0.16162 0.21239 0.0
H32 H 0.52048 0.12959 0.02131 0.0
C33 C 0.34263 0.42216 0.37302 0.0
C34 C 0.33939 0.41871 0.44892 0.0
N35 N 0.32932 0.42878 0.47433 0.0
N36 N 0.33442 0.43412 0.34937 0.0
C37 C 0.3265 0.43808 0.41257 0.0
H38 H 0.35183 0.41753 0.3385 0.0
Co39 Co 0.33893 0.44535 0.25192 0.0
C40 C 0.30042 0.44884 0.21016 0.0
O41 O 0.31091 0.46231 0.15596 0.0
N42 N 0.34451 0.45657 0.15284 0.0
C43 C 0.36087 0.47701 0.0539 0.0
C44 C 0.36116 0.47524 0.13087 0.0
C45 C 0.33467 0.44704 0.08745 0.0
N46 N 0.3441 0.45929 0.02618 0.0
O47 O 0.32828 0.417 0.21136 0.0
H48 H 0.37325 0.48672 0.16789 0.0
H49 H 0.32067 0.43146 0.08536 0.0
O50 O 0.30983 0.44173 0.2523 0.0
C51 C 0.3436 0.41479 0.18709 0.0
O52 O 0.36292 0.43123 0.18906 0.0
N53 N 0.35163 0.47285 0.29365 0.0
C54 C 0.37818 0.51309 0.35419 0.0
C55 C 0.35836 0.50791 0.32363 0.0
C56 C 0.34509 0.48749 0.2944 0.0
C57 C 0.37084 0.47776 0.32338 0.0
C58 C 0.38421 0.49763 0.35467 0.0
H59 H 0.32996 0.48384 0.27158 0.0
H60 H 0.37598 0.46616 0.32146 0.0
H61 H 0.31977 0.44839 0.41369 0.0
H62 H 0.34547 0.41071 0.48354 0.0
H63 H 0.37264 0.49016 0.02108 0.0
H64 H 0.35321 0.51953 0.32239 0.0
H65 H 0.3995 0.50111 0.37684 0.0
C66 C 0.93276 0.33796 0.53151 0.0
C67 C 0.93307 0.33493 0.6076 0.0
N68 N 0.91297 0.32524 0.6335 0.0
N69 N 0.91255 0.33001 0.50837 0.0
C70 C 0.90078 0.32241 0.57188 0.0
H71 H 0.94656 0.34671 0.49628 0.0
Co72 Co 0.90563 0.33441 0.41117 0.0
C73 C 0.86347 0.29651 0.37037 0.0
O74 O 0.85992 0.30799 0.32187 0.0
N75 N 0.89963 0.33983 0.31219 0.0
C76 C 0.89514 0.35595 0.21338 0.0
C77 C 0.89747 0.35639 0.29025 0.0
C78 C 0.89896 0.32979 0.24689 0.0
N79 N 0.896 0.33914 0.18566 0.0
O80 O 0.92373 0.32424 0.37068 0.0
H81 H 0.89815 0.36852 0.32711 0.0
H82 H 0.90053 0.3158 0.24482 0.0
O83 O 0.88042 0.30517 0.41069 0.0
C84 C 0.94079 0.33915 0.34169 0.0
O85 O 0.94285 0.35807 0.33541 0.0
N86 N 0.89065 0.34675 0.45361 0.0
C87 C 0.8774 0.37266 0.52234 0.0
C88 C 0.86247 0.35218 0.49776 0.0
C89 C 0.86945 0.33924 0.46444 0.0
C90 C 0.90522 0.36659 0.47746 0.0
C91 C 0.89899 0.37973 0.51229 0.0
H92 H 0.85778 0.32336 0.44842 0.0
H93 H 0.92194 0.37228 0.46883 0.0
H94 H 0.88376 0.31588 0.57328 0.0
H95 H 0.94722 0.34084 0.64189 0.0
H96 H 0.89371 0.36768 0.18061 0.0
H97 H 0.84563 0.34616 0.50528 0.0
H98 H 0.91099 0.39549 0.52992 0.0
C99 C 0.59553 0.92755 0.72446 0.0
C100 C 0.59964 0.92861 0.80012 0.0
N101 N 0.59624 0.90953 0.82325 0.0
N102 N 0.58983 0.90803 0.69872 0.0
C103 C 0.59015 0.89722 0.76042 0.0
H104 H 0.5954 0.93987 0.69107 0.0
Co105 Co 0.58038 0.90051 0.59985 0.0
C106 C 0.57353 0.85732 0.57174 0.0
O107 O 0.55714 0.85344 0.52955 0.0
N108 N 0.57073 0.89381 0.4978 0.0
C109 C 0.55106 0.886 0.39372 0.0
C110 C 0.55158 0.88921 0.46992 0.0
C111 C 0.58163 0.89346 0.43606 0.0
N112 N 0.56993 0.88862 0.372 0.0
O113 O 0.6093 0.91799 0.56548 0.0
H114 H 0.53851 0.8882 0.50174 0.0
H115 H 0.59781 0.89659 0.43815 0.0
O116 O 0.58388 0.8752 0.60593 0.0
C117 C 0.61219 0.93592 0.54332 0.0
O118 O 0.59566 0.93862 0.53921 0.0
N119 N 0.55253 0.88624 0.63728 0.0
C120 C 0.51436 0.8758 0.70967 0.0
C121 C 0.52198 0.86145 0.70865 0.0
C122 C 0.54138 0.86711 0.673 0.0
C123 C 0.54542 0.90033 0.6388 0.0
C124 C 0.52628 0.89531 0.67288 0.0
H125 H 0.54773 0.85659 0.67776 0.0
H126 H 0.5549 0.91579 0.61329 0.0
H127 H 0.58525 0.88052 0.75979 0.0
H128 H 0.60348 0.94205 0.8362 0.0
H129 H 0.53788 0.88261 0.35686 0.0
H130 H 0.51357 0.84643 0.73801 0.0
H131 H 0.52105 0.90686 0.67121 0.0
C132 C 0.65881 0.55902 0.88292 0.0
C133 C 0.65683 0.56212 0.95814 0.0
N134 N 0.67576 0.57751 0.98376 0.0
N135 N 0.679 0.57208 0.8608 0.0
C136 C 0.68877 0.58369 0.92297 0.0
H137 H 0.6464 0.5475 0.84683 0.0
Co138 Co 0.68831 0.57236 0.76147 0.0
C139 C 0.7294 0.57963 0.84598 0.0
O140 O 0.72214 0.5741 0.91484 0.0
N141 N 0.69717 0.57261 0.66158 0.0
C142 C 0.71222 0.56644 0.56348 0.0
C143 C 0.70958 0.56468 0.64002 0.0
C144 C 0.69218 0.57883 0.59646 0.0
N145 N 0.70116 0.57521 0.53525 0.0
O146 O 0.69703 0.60203 0.75513 0.0
H147 H 0.71591 0.55749 0.67747 0.0
H148 H 0.68164 0.58526 0.59409 0.0
O149 O 0.71707 0.57893 0.79316 0.0
C150 C 0.68011 0.60278 0.74324 0.0
O151 O 0.66232 0.58484 0.73219 0.0
N152 N 0.67733 0.5427 0.76653 0.0
C153 C 0.64872 0.49944 0.78959 0.0
C154 C 0.666 0.51086 0.83862 0.0
C155 C 0.68021 0.53245 0.82578 0.0
C156 C 0.66158 0.53154 0.7155 0.0
C157 C 0.64747 0.5099 0.725 0.0
H158 H 0.69203 0.54122 0.86784 0.0
H159 H 0.65887 0.53974 0.66991 0.0
H160 H 0.70512 0.59638 0.92387 0.0
H161 H 0.64278 0.55297 0.99211 0.0
H162 H 0.72151 0.5613 0.53167 0.0
H163 H 0.66768 0.50374 0.88976 0.0
H164 H 0.63491 0.50181 0.68401 0.0
C165 C 0.10629 0.6546 0.02747 0.0
C166 C 0.10125 0.65262 0.10272 0.0
N167 N 0.10551 0.67171 0.12906 0.0
N168 N 0.11415 0.67494 1.00604 0.0
C169 C 0.11269 0.68481 0.06859 0.0
H170 H 0.10508 0.64212 0.99101 0.0
Co171 Co 0.12392 0.68426 0.90718 0.0
C172 C 0.15784 0.72496 0.9935 0.0
O173 O 0.15589 0.71725 0.0617 0.0
N174 N 0.13306 0.69309 0.80762 0.0
C175 C 0.15436 0.70812 0.70968 0.0
C176 C 0.15341 0.70562 0.78638 0.0
C177 C 0.12191 0.68793 0.74228 0.0
N178 N 0.13454 0.69687 0.6812 0.0
O179 O 0.10315 0.69321 0.89791 0.0
H180 H 0.16688 0.71214 0.82414 0.0
H181 H 0.10495 0.67729 0.73967 0.0
O182 O 0.14621 0.71304 0.93972 0.0
C183 C 0.08519 0.67673 0.88489 0.0
O184 O 0.08437 0.65839 0.87726 0.0
N185 N 0.14261 0.67312 0.91491 0.0
C186 C 0.15702 0.64425 0.93986 0.0
C187 C 0.16096 0.66031 0.99251 0.0
C188 C 0.15395 0.67474 0.9784 0.0
C189 C 0.14001 0.65869 0.86076 0.0
C190 C 0.14769 0.6447 0.87093 0.0
H191 H 0.15548 0.68546 0.02275 0.0
H192 H 0.13057 0.65683 0.81129 0.0
H193 H 0.11695 0.70132 0.0701 0.0
H194 H 0.09598 0.63845 0.13628 0.0
H195 H 0.16877 0.71747 0.67788 0.0
H196 H 0.16784 0.66088 0.04705 0.0
H197 H 0.14503 0.63352 0.82631 0.0
C198 C 0.92689 0.57496 0.66034 0.0
C199 C 0.93034 0.57912 0.58459 0.0
N200 N 0.9153 0.58299 0.55786 0.0
N201 N 0.90984 0.57635 0.68174 0.0
C202 C 0.90319 0.58145 0.61799 0.0
H203 H 0.9357 0.57026 0.69685 0.0
Co204 Co 0.8988 0.57016 0.77953 0.0
C205 C 0.85569 0.56546 0.73924 0.0
O206 O 0.84612 0.54475 0.7336 0.0
N207 N 0.88802 0.56431 0.87951 0.0
C208 C 0.86586 0.55197 0.97734 0.0
C209 C 0.86771 0.55105 0.90062 0.0
C210 C 0.89826 0.57279 0.94533 0.0
N211 N 0.8851 0.56567 1.00536 0.0
O212 O 0.91734 0.59967 0.80494 0.0
H213 H 0.85496 0.54091 0.86327 0.0
H214 H 0.91497 0.58424 0.94977 0.0
O215 O 0.87561 0.57629 0.7543 0.0
C216 C 0.93551 0.60241 0.8235 0.0
O217 O 0.93783 0.58571 0.82988 0.0
N218 N 0.88324 0.54077 0.75371 0.0
C219 C 0.8713 0.49909 0.71016 0.0
C220 C 0.86726 0.51222 0.66342 0.0
C221 C 0.87384 0.53308 0.68521 0.0
C222 C 0.88717 0.52814 0.79998 0.0
C223 C 0.88116 0.50731 0.77986 0.0
H224 H 0.87173 0.54312 0.64571 0.0
H225 H 0.89623 0.5346 0.85113 0.0
H226 H 0.88917 0.58298 0.61477 0.0
H227 H 0.94215 0.57804 0.5508 0.0
H228 H 0.85155 0.54293 0.0102 0.0
H229 H 0.85967 0.50674 0.60912 0.0
H230 H 0.88541 0.49822 0.81696 0.0
C231 C 0.364 0.92114 0.84839 0.0
C232 C 0.36472 0.92487 0.7722 0.0
N233 N 0.34525 0.9121 0.74305 0.0
N234 N 0.34422 0.90604 0.86756 0.0
C235 C 0.33302 0.90113 0.8025 0.0
H236 H 0.3773 0.92825 0.88692 0.0
Co237 Co 0.33669 0.89451 0.96444 0.0
C238 C 0.2991 0.853 0.90638 0.0
O239 O 0.31063 0.84408 0.89446 0.0
N240 N 0.32882 0.88331 0.06333 0.0
C241 C 0.31565 0.86059 0.15909 0.0
C242 C 0.31797 0.86256 0.08227 0.0
C243 C 0.33293 0.89361 0.13034 0.0
N244 N 0.32512 0.88015 0.18957 0.0
O245 O 0.32631 0.91385 0.983 0.0
H246 H 0.31256 0.84951 0.04325 0.0
H247 H 0.34201 0.91064 0.13619 0.0
O248 O 0.30777 0.87213 0.93099 0.0
C249 C 0.3417 0.93139 1.00704 0.0
O250 O 0.35998 0.9325 0.02054 0.0
N251 N 0.35027 0.8779 0.94625 0.0
C252 C 0.38088 0.86576 0.9171 0.0
C253 C 0.36733 0.86537 0.86005 0.0
C254 C 0.35233 0.87151 0.87557 0.0
C255 C 0.36313 0.87795 1.00267 0.0
C256 C 0.37793 0.87138 0.98995 0.0
H257 H 0.34303 0.87192 0.82905 0.0
H258 H 0.36316 0.88444 0.05737 0.0
H259 H 0.31648 0.88904 0.79818 0.0
H260 H 0.37882 0.93524 0.7402 0.0
H261 H 0.30762 0.84581 0.18993 0.0
H262 H 0.36906 0.86167 0.80234 0.0
H263 H 0.3877 0.87177 0.03662 0.0
C264 C 0.44653 0.35658 0.95457 0.0
C265 C 0.44244 0.35574 0.87888 0.0
N266 N 0.43684 0.33618 0.85328 0.0
N267 N 0.44349 0.33766 0.97763 0.0
C268 C 0.43756 0.32547 0.91474 0.0
H269 H 0.45233 0.37047 0.99004 0.0
Co270 Co 0.44998 0.33376 0.07593 0.0
C271 C 0.45138 0.29368 0.06909 0.0
O272 O 0.47077 0.30381 0.09569 0.0
N273 N 0.45671 0.3303 0.17828 0.0
C274 C 0.47407 0.33002 0.28169 0.0
C275 C 0.47552 0.33363 0.20575 0.0
C276 C 0.44407 0.32456 0.24043 0.0
N277 N 0.45428 0.32431 0.30402 0.0
O278 O 0.42128 0.32572 0.10431 0.0
H279 H 0.48974 0.33829 0.17343 0.0
H280 H 0.42765 0.32061 0.2395 0.0
O281 O 0.44137 0.30365 0.05556 0.0
C282 C 0.42148 0.34277 0.1229 0.0
O283 O 0.44 0.36011 0.13113 0.0
N284 N 0.47834 0.34478 0.04459 0.0
C285 C 0.51911 0.37061 0.98612 0.0
C286 C 0.50572 0.3503 0.95614 0.0
C287 C 0.48526 0.33764 0.98585 0.0
C288 C 0.49096 0.36473 0.07238 0.0
C289 C 0.51152 0.37763 0.04561 0.0
H290 H 0.47466 0.32268 0.95901 0.0
H291 H 0.48474 0.37088 0.11469 0.0
H292 H 0.43456 0.30935 0.91365 0.0
H293 H 0.44466 0.36901 0.8448 0.0
H294 H 0.48694 0.3321 0.31791 0.0
H295 H 0.51078 0.34454 0.90876 0.0
H296 H 0.52098 0.39346 0.06853 0.0
C297 C 0.09488 0.42598 0.15701 0.0
C298 C 0.09388 0.42225 0.08091 0.0
N299 N 0.11379 0.42996 0.05446 0.0
N300 N 0.11528 0.43587 0.17945 0.0
C301 C 0.1265 0.43813 0.1158 0.0
H302 H 0.0816 0.42262 0.19317 0.0
Co303 Co 0.12339 0.44651 0.27683 0.0
C304 C 0.16678 0.45334 0.30335 0.0
O305 O 0.17102 0.46997 0.34469 0.0
N306 N 0.13083 0.4573 0.37739 0.0
C307 C 0.13817 0.47764 0.47947 0.0
C308 C 0.13499 0.4765 0.40312 0.0
C309 C 0.13158 0.44708 0.4404 0.0
N310 N 0.136 0.45912 0.50341 0.0
O311 O 0.10618 0.41793 0.31492 0.0
H312 H 0.13541 0.48905 0.36976 0.0
H313 H 0.12874 0.43101 0.44003 0.0
O314 O 0.14871 0.44297 0.27034 0.0
C315 C 0.0892 0.41497 0.34714 0.0
O316 O 0.08693 0.43149 0.36012 0.0
N317 N 0.13734 0.47401 0.23596 0.0
C318 C 0.14725 0.51185 0.16192 0.0
C319 C 0.16201 0.50471 0.16496 0.0
C320 C 0.15666 0.48555 0.20176 0.0
C321 C 0.12286 0.48062 0.23255 0.0
C322 C 0.12761 0.49959 0.19779 0.0
H323 H 0.16764 0.4797 0.19926 0.0
H324 H 0.10735 0.47092 0.25754 0.0
H325 H 0.14366 0.44626 0.11424 0.0
H326 H 0.07957 0.4155 0.0472 0.0
H327 H 0.14101 0.49091 0.5149 0.0
H328 H 0.17718 0.51335 0.13662 0.0
H329 H 0.11576 0.50443 0.19858 0.0
C330 C 0.68183 0.09197 0.28793 0.0
C331 C 0.68527 0.09166 0.21226 0.0
N332 N 0.6982 0.11172 0.18899 0.0
N333 N 0.69276 0.11203 0.31361 0.0
C334 C 0.70243 0.12387 0.25174 0.0
H335 H 0.67073 0.07856 0.32108 0.0
Co336 Co 0.68905 0.11848 0.41213 0.0
C337 C 0.72618 0.16115 0.45103 0.0
O338 O 0.71436 0.16444 0.49891 0.0
N339 N 0.68419 0.12389 0.51269 0.0
C340 C 0.66885 0.12832 0.61411 0.0
C341 C 0.6676 0.12568 0.53738 0.0
C342 C 0.69505 0.12503 0.57642 0.0
N343 N 0.6862 0.12803 0.63903 0.0
O344 O 0.70049 0.10115 0.44871 0.0
H345 H 0.65498 0.1247 0.50259 0.0
H346 H 0.70933 0.12391 0.57649 0.0
O347 O 0.71789 0.14412 0.41125 0.0
C348 C 0.6857 0.0831 0.47127 0.0
O349 O 0.66616 0.07961 0.47262 0.0
N350 N 0.67561 0.13282 0.37336 0.0
C351 C 0.64813 0.14482 0.30935 0.0
C352 C 0.66904 0.16017 0.32826 0.0
C353 C 0.68276 0.15378 0.3591 0.0
C354 C 0.65537 0.11785 0.35476 0.0
C355 C 0.64144 0.12346 0.32261 0.0
H356 H 0.69897 0.1657 0.36999 0.0
H357 H 0.65001 0.10131 0.36556 0.0
H358 H 0.71157 0.14103 0.25217 0.0
H359 H 0.67754 0.07784 0.17616 0.0
H360 H 0.65737 0.12966 0.64891 0.0
H361 H 0.67481 0.17682 0.31768 0.0
H362 H 0.62542 0.11115 0.30905 0.0
C363 C 0.59928 0.67862 0.50511 0.0
C364 C 0.60273 0.68169 0.42913 0.0
N365 N 0.59276 0.69182 0.4033 0.0
N366 N 0.58741 0.68698 0.52833 0.0
C367 C 0.58353 0.69485 0.46489 0.0
H368 H 0.60386 0.66946 0.54011 0.0
Co369 Co 0.57617 0.6827 0.62563 0.0
C370 C 0.57271 0.72123 0.66594 0.0
O371 O 0.559 0.71081 0.71964 0.0
N372 N 0.5649 0.67735 0.72469 0.0
C373 C 0.54445 0.66111 0.82377 0.0
C374 C 0.54621 0.66074 0.74681 0.0
C375 C 0.57443 0.68727 0.78999 0.0
N376 N 0.56219 0.67788 0.85132 0.0
O377 O 0.60452 0.69356 0.66619 0.0
H378 H 0.53473 0.64861 0.70994 0.0
H379 H 0.59003 0.70124 0.79203 0.0
O380 O 0.57985 0.71174 0.62439 0.0
C381 C 0.607 0.67862 0.69255 0.0
O382 O 0.59069 0.65923 0.69275 0.0
N383 N 0.54867 0.6699 0.58379 0.0
C384 C 0.50847 0.6433 0.5228 0.0
C385 C 0.51369 0.66323 0.5523 0.0
C386 C 0.53409 0.67652 0.58175 0.0
C387 C 0.54373 0.65059 0.55508 0.0
C388 C 0.52388 0.63718 0.52362 0.0
H389 H 0.53778 0.69175 0.60357 0.0
H390 H 0.55529 0.64541 0.55792 0.0
H391 H 0.57332 0.70169 0.46352 0.0
H392 H 0.61068 0.67547 0.39481 0.0
H393 H 0.53132 0.64936 0.85675 0.0
H394 H 0.50212 0.66845 0.55247 0.0
H395 H 0.52038 0.62182 0.50225 0.0
H396 H 0.43048 0.26492 0.17835 0.0
H397 H 0.45158 0.27074 0.94837 0.0
H398 H 0.42366 0.2284 0.18226 0.0
H399 H 0.44482 0.23421 0.95169 0.0
H400 H 0.42707 0.16537 0.97259 0.0
H401 H 0.41947 0.19469 0.96842 0.0
H402 H 0.45093 0.2172 0.18291 0.0
H403 H 0.45871 0.18827 0.1859 0.0
C404 C 0.43277 0.25801 0.12761 0.0
C405 C 0.44114 0.27042 0.0626 0.0
C406 C 0.4291 0.2372 0.13004 0.0
C407 C 0.43382 0.22839 0.06748 0.0
C408 C 0.44076 0.24036 1.00057 0.0
C409 C 0.44457 0.26126 0.99842 0.0
C410 C 0.43154 0.17614 0.02007 0.0
C411 C 0.44314 0.17441 0.08024 0.0
C412 C 0.42745 0.19306 0.0173 0.0
C413 C 0.43461 0.20835 0.07526 0.0
C414 C 0.44491 0.20562 0.1378 0.0
C415 C 0.44934 0.18901 0.13975 0.0
H416 H 0.20085 0.46443 0.39395 0.0
H417 H 0.17117 0.42983 0.19006 0.0
H418 H 0.23069 0.45875 0.37364 0.0
H419 H 0.20127 0.42404 0.16963 0.0
H420 H 0.2733 0.45105 0.11064 0.0
H421 H 0.23894 0.44783 0.1354 0.0
H422 H 0.2428 0.43243 0.36765 0.0
H423 H 0.27754 0.43575 0.34264 0.0
C424 C 0.20058 0.45539 0.34502 0.0
C425 C 0.18369 0.44776 0.29319 0.0
C426 C 0.21765 0.45195 0.33382 0.0
C427 C 0.21845 0.44096 0.27 0.0
C428 C 0.20122 0.4327 0.21919 0.0
C429 C 0.18393 0.43593 0.23097 0.0
C430 C 0.26673 0.44668 0.16688 0.0
C431 C 0.27827 0.44384 0.22487 0.0
C432 C 0.24689 0.44466 0.18088 0.0
C433 C 0.23808 0.43995 0.25355 0.0
C434 C 0.24922 0.43625 0.31111 0.0
C435 C 0.26905 0.43802 0.29678 0.0
H436 H 0.75305 0.16796 0.3312 0.0
H437 H 0.75016 0.19306 0.54864 0.0
H438 H 0.78881 0.19841 0.31226 0.0
H439 H 0.78552 0.22326 0.52971 0.0
H440 H 0.85493 0.27111 0.4959 0.0
H441 H 0.8238 0.23585 0.51632 0.0
H442 H 0.80247 0.23648 0.28972 0.0
H443 H 0.83333 0.27132 0.26947 0.0
C444 C 0.76013 0.17978 0.37529 0.0
C445 C 0.74864 0.17817 0.44103 0.0
C446 C 0.78057 0.19727 0.36439 0.0
C447 C 0.79006 0.21336 0.41944 0.0
C448 C 0.77888 0.21114 0.48649 0.0
C449 C 0.75846 0.19386 0.49696 0.0
C450 C 0.84378 0.2635 0.45016 0.0
C451 C 0.84651 0.2741 0.38135 0.0
C452 C 0.82588 0.24337 0.4619 0.0
C453 C 0.81054 0.23333 0.40471 0.0
C454 C 0.81398 0.24355 0.33476 0.0
C455 C 0.83164 0.26367 0.32341 0.0
H456 H 0.58786 0.74464 0.53537 0.0
H457 H 0.56977 0.7482 0.7643 0.0
H458 H 0.59266 0.77996 0.51052 0.0
H459 H 0.57445 0.78313 0.73965 0.0
H460 H 0.59535 0.85162 0.68802 0.0
H461 H 0.59981 0.82076 0.70924 0.0
H462 H 0.56734 0.79327 0.49987 0.0
H463 H 0.56297 0.82387 0.4788 0.0
C464 C 0.58525 0.75307 0.58061 0.0
C465 C 0.57824 0.74352 0.65154 0.0
C466 C 0.58789 0.77325 0.56637 0.0
C467 C 0.58388 0.78438 0.62309 0.0
C468 C 0.5779 0.77518 0.6949 0.0
C469 C 0.57502 0.75501 0.70879 0.0
C470 C 0.58949 0.83913 0.6461 0.0
C471 C 0.57863 0.84011 0.58215 0.0
C472 C 0.59195 0.82141 0.65833 0.0
C473 C 0.58388 0.80448 0.6063 0.0
C474 C 0.57395 0.80605 0.54072 0.0
C475 C 0.57127 0.82355 0.52903 0.0
H476 H 0.75857 0.57872 0.94149 0.0
H477 H 0.75 0.59043 0.70908 0.0
H478 H 0.79222 0.58105 0.909 0.0
H479 H 0.78353 0.59235 0.67653 0.0
H480 H 0.82174 0.55568 0.65066 0.0
H481 H 0.79382 0.56426 0.67314 0.0
H482 H 0.82956 0.60418 0.86015 0.0
H483 H 0.85776 0.59567 0.83673 0.0
C484 C 0.76392 0.58204 0.88357 0.0
C485 C 0.7512 0.58387 0.82764 0.0
C486 C 0.78335 0.58351 0.86505 0.0
C487 C 0.79052 0.58671 0.79003 0.0
C488 C 0.77833 0.58959 0.7347 0.0
C489 C 0.75903 0.58838 0.75338 0.0
C490 C 0.82395 0.56685 0.695 0.0
C491 C 0.84197 0.5751 0.74162 0.0
C492 C 0.80795 0.57178 0.70793 0.0
C493 C 0.80935 0.58479 0.76882 0.0
C494 C 0.82794 0.594 0.81308 0.0
C495 C 0.8442 0.58935 0.79917 0.0
H496 H 0.27587 0.81985 0.8129 0.0
H497 H 0.26983 0.85336 1.00317 0.0
H498 H 0.23934 0.79143 0.83027 0.0
H499 H 0.23305 0.82472 0.02104 0.0
H500 H 0.18685 0.75357 0.09294 0.0
H501 H 0.21841 0.78742 0.06523 0.0
H502 H 0.20097 0.78017 0.83009 0.0
H503 H 0.16912 0.74633 0.85785 0.0
C504 C 0.26649 0.82141 0.8572 0.0
C505 C 0.27571 0.83887 0.90653 0.0
C506 C 0.2455 0.80511 0.86712 0.0
C507 C 0.23326 0.80566 0.92746 0.0
C508 C 0.2421 0.82372 0.97438 0.0
C509 C 0.26308 0.84025 0.96365 0.0
C510 C 0.1895 0.75926 0.03538 0.0
C511 C 0.17557 0.74686 0.97741 0.0
C512 C 0.2076 0.77881 0.0196 0.0
C513 C 0.21236 0.78649 0.94531 0.0
C514 C 0.19793 0.7746 0.8878 0.0
C515 C 0.17968 0.75512 0.90374 0.0
H516 H 0.4189 0.10447 0.75142 0.0
H517 H 0.48305 0.15287 0.69613 0.0
H518 H 0.41126 0.0968 0.61731 0.0
H519 H 0.47522 0.14547 0.56358 0.0
H520 H 0.45146 0.14079 0.32783 0.0
H521 H 0.45391 0.14862 0.46223 0.0
H522 H 0.42219 0.08161 0.51196 0.0
H523 H 0.41923 0.07375 0.3772 0.0
C524 C 0.43138 0.11349 0.71121 0.0
C525 C 0.4516 0.1294 0.73549 0.0
C526 C 0.42695 0.10912 0.63421 0.0
C527 C 0.44257 0.12067 0.57969 0.0
C528 C 0.46268 0.13659 0.6039 0.0
C529 C 0.46715 0.14084 0.68048 0.0
C530 C 0.44455 0.1277 0.36719 0.0
C531 C 0.43527 0.10663 0.34165 0.0
C532 C 0.44617 0.1322 0.44435 0.0
C533 C 0.43847 0.11575 0.49787 0.0
C534 C 0.42822 0.09465 0.47228 0.0
C535 C 0.42669 0.09015 0.39508 0.0
H536 H 0.32735 0.46177 0.53895 0.0
H537 H 0.32364 0.402 0.589 0.0
H538 H 0.32673 0.46834 0.67354 0.0
H539 H 0.32447 0.40908 0.72257 0.0
H540 H 0.31701 0.42062 0.96376 0.0
H541 H 0.30857 0.41248 0.83125 0.0
H542 H 0.35023 0.47847 0.77559 0.0
H543 H 0.35744 0.48684 0.90788 0.0
C544 C 0.32615 0.44991 0.57845 0.0
C545 C 0.3259 0.43151 0.55288 0.0
C546 C 0.3261 0.4538 0.6559 0.0
C547 C 0.32592 0.43944 0.70964 0.0
C548 C 0.32448 0.42051 0.6836 0.0
C549 C 0.32432 0.41656 0.60653 0.0
C550 C 0.32411 0.43351 0.92372 0.0
C551 C 0.33821 0.45441 0.94752 0.0
C552 C 0.31942 0.42878 0.84712 0.0
C553 C 0.32886 0.44474 0.7919 0.0
C554 C 0.34241 0.46571 0.81595 0.0
C555 C 0.34689 0.47048 0.89244 0.0
H556 H 0.93415 0.3199 0.749 0.0
H557 H 0.87801 0.32345 0.69761 0.0
H558 H 0.92762 0.32057 0.88246 0.0
H559 H 0.87059 0.3227 0.83192 0.0
H560 H 0.88196 0.35266 0.06726 0.0
H561 H 0.88363 0.34592 0.93486 0.0
H562 H 0.90789 0.30421 0.99024 0.0
H563 H 0.90765 0.31214 0.12302 0.0
C564 C 0.92021 0.32053 0.76615 0.0
C565 C 0.90687 0.32205 0.71214 0.0
C566 C 0.91626 0.3206 0.84316 0.0
C567 C 0.89866 0.32191 0.86876 0.0
C568 C 0.88457 0.32215 0.81465 0.0
C569 C 0.88866 0.32227 0.73732 0.0
C570 C 0.88786 0.34219 0.05178 0.0
C571 C 0.89509 0.33336 0.1069 0.0
C572 C 0.88845 0.33799 0.97518 0.0
C573 C 0.89601 0.32458 0.95103 0.0
C574 C 0.90235 0.31497 1.00623 0.0
C575 C 0.90199 0.31936 0.08297 0.0
H576 H 0.61997 0.93515 0.93709 0.0
H577 H 0.57263 0.87042 0.88673 0.0
H578 H 0.61557 0.92732 0.07068 0.0
H579 H 0.56905 0.86209 0.02111 0.0
H580 H 0.54412 0.86602 0.25653 0.0
H581 H 0.55311 0.86878 0.12416 0.0
H582 H 0.61915 0.91095 0.17897 0.0
H583 H 0.60978 0.90912 0.31205 0.0
C584 C 0.60883 0.9191 0.95453 0.0
C585 C 0.5963 0.90356 0.90098 0.0
C586 C 0.60652 0.91449 0.03154 0.0
C587 C 0.59173 0.8941 0.05753 0.0
C588 C 0.58027 0.87812 1.00358 0.0
C589 C 0.58249 0.8828 0.92624 0.0
C590 C 0.56058 0.87592 0.24059 0.0
C591 C 0.57612 0.88774 0.29513 0.0
C592 C 0.56583 0.87723 0.16429 0.0
C593 C 0.58688 0.89027 0.13998 0.0
C594 C 0.60269 0.90107 0.19511 0.0
C595 C 0.59737 0.89985 0.27173 0.0
H596 H 0.71406 0.59055 0.04932 0.0
H597 H 0.65013 0.57654 0.09658 0.0
H598 H 0.72169 0.59366 0.18404 0.0
H599 H 0.65762 0.57921 0.23158 0.0
H600 H 0.68332 0.59731 0.47425 0.0
H601 H 0.67872 0.60205 0.34061 0.0
H602 H 0.70899 0.56599 0.28195 0.0
H603 H 0.71328 0.56087 0.41326 0.0
C604 C 0.70176 0.58858 0.08824 0.0
C605 C 0.68139 0.58301 0.06201 0.0
C606 C 0.70606 0.59016 0.16562 0.0
C607 C 0.69016 0.58636 0.21869 0.0
C608 C 0.67024 0.58225 0.19234 0.0
C609 C 0.66589 0.58054 0.11494 0.0
C610 C 0.68899 0.59033 0.43318 0.0
C611 C 0.69876 0.5787 0.45608 0.0
C612 C 0.68638 0.59313 0.35634 0.0
C613 C 0.6937 0.58459 0.30052 0.0
C614 C 0.7036 0.5732 0.32329 0.0
C615 C 0.70601 0.57023 0.39953 0.0
H616 H 0.13207 0.7096 0.19506 0.0
H617 H 0.08073 0.64642 0.24231 0.0
H618 H 0.1372 0.71702 0.32983 0.0
H619 H 0.08613 0.6537 0.37736 0.0
H620 H 0.09468 0.67988 0.62009 0.0
H621 H 0.08529 0.67525 0.48644 0.0
H622 H 0.15152 0.70358 0.42789 0.0
H623 H 0.16095 0.70783 0.55949 0.0
C624 C 0.12158 0.69743 0.234 0.0
C625 C 0.10615 0.67732 0.20765 0.0
C626 C 0.12466 0.70161 0.31142 0.0
C627 C 0.11228 0.68585 0.3645 0.0
C628 C 0.09593 0.66621 0.33814 0.0
C629 C 0.09295 0.66198 0.26068 0.0
C630 C 0.10728 0.68508 0.57903 0.0
C631 C 0.12866 0.69434 0.60198 0.0
C632 C 0.10186 0.68246 0.50219 0.0
C633 C 0.11768 0.68925 0.44636 0.0
C634 C 0.13895 0.6986 0.4692 0.0
C635 C 0.14435 0.70101 0.54551 0.0
H636 H 0.92093 0.57316 0.07742 0.0
H637 H 0.86099 0.57062 0.10986 0.0
H638 H 0.92848 0.57967 0.21173 0.0
H639 H 0.86877 0.57815 0.24358 0.0
H640 H 0.87698 0.56435 0.48966 0.0
H641 H 0.87014 0.56212 0.35469 0.0
H642 H 0.93735 0.60272 0.31347 0.0
H643 H 0.94403 0.60393 0.44869 0.0
C644 C 0.90957 0.57441 0.11328 0.0
C645 C 0.89031 0.5712 0.08349 0.0
C646 C 0.91389 0.57826 0.19037 0.0
C647 C 0.8992 0.57937 0.23933 0.0
C648 C 0.88026 0.57691 0.20848 0.0
C649 C 0.87581 0.57269 0.13171 0.0
C650 C 0.89019 0.57309 0.45163 0.0
C651 C 0.91103 0.5843 0.47943 0.0
C652 C 0.88632 0.57186 0.37404 0.0
C653 C 0.90319 0.58211 0.32237 0.0
C654 C 0.92397 0.59417 0.35094 0.0
C655 C 0.92784 0.59506 0.42845 0.0
H656 H 0.31472 0.87591 0.67689 0.0
H657 H 0.36391 0.94009 0.62853 0.0
H658 H 0.30836 0.86885 0.54254 0.0
H659 H 0.35811 0.93277 0.49387 0.0
H660 H 0.33072 0.91656 0.25412 0.0
H661 H 0.33382 0.92497 0.38852 0.0
H662 H 0.32718 0.86395 0.43952 0.0
H663 H 0.32414 0.8556 0.30613 0.0
C664 C 0.324 0.88863 0.6378 0.0
C665 C 0.33994 0.90856 0.66384 0.0
C666 C 0.32054 0.88449 0.56053 0.0
C667 C 0.33291 0.90015 0.50718 0.0
C668 C 0.34823 0.92035 0.53321 0.0
C669 C 0.3517 0.92449 0.61053 0.0
C670 C 0.33004 0.90499 0.29398 0.0
C671 C 0.32707 0.88534 0.26896 0.0
C672 C 0.33178 0.90981 0.37111 0.0
C673 C 0.33058 0.89507 0.42505 0.0
C674 C 0.32769 0.87549 0.39986 0.0
C675 C 0.32597 0.8707 0.32304 0.0
H676 H 0.46943 0.31161 0.42031 0.0
H677 H 0.42191 0.32831 0.36383 0.0
H678 H 0.46122 0.31101 0.55249 0.0
H679 H 0.4125 0.32622 0.49672 0.0
H680 H 0.42609 0.35346 0.7378 0.0
H681 H 0.42666 0.34675 0.60467 0.0
H682 H 0.43913 0.29594 0.65573 0.0
H683 H 0.44017 0.30381 0.78943 0.0
C684 C 0.45701 0.31492 0.43593 0.0
C685 C 0.44674 0.32056 0.38108 0.0
C686 C 0.452 0.3142 0.51222 0.0
C687 C 0.4363 0.31878 0.53623 0.0
C688 C 0.42503 0.32306 0.48087 0.0
C689 C 0.43023 0.324 0.40428 0.0
C690 C 0.42907 0.3409 0.721 0.0
C691 C 0.43368 0.32961 0.775 0.0
C692 C 0.42902 0.33677 0.64407 0.0
C693 C 0.43323 0.32095 0.61855 0.0
C694 C 0.43636 0.30863 0.6728 0.0
C695 C 0.43669 0.31297 0.74995 0.0
H696 H 0.15599 0.48569 0.62062 0.0
H697 H 0.11707 0.41937 0.56411 0.0
H698 H 0.15254 0.47685 0.75311 0.0
H699 H 0.11476 0.41027 0.69734 0.0
H700 H 0.08924 0.40587 0.93816 0.0
H701 H 0.09705 0.41173 0.80494 0.0
H702 H 0.16042 0.46241 0.85672 0.0
H703 H 0.15202 0.45749 0.9905 0.0
C704 C 0.14685 0.46914 0.63629 0.0
C705 C 0.13643 0.45332 0.5812 0.0
C706 C 0.14516 0.464 0.71278 0.0
C707 C 0.1332 0.4428 0.73685 0.0
C708 C 0.12375 0.42682 0.68143 0.0
C709 C 0.12529 0.43201 0.60464 0.0
C710 C 0.10484 0.41836 0.92148 0.0
C711 C 0.11978 0.43151 0.97579 0.0
C712 C 0.10947 0.42151 0.84451 0.0
C713 C 0.12934 0.43774 0.81918 0.0
C714 C 0.14476 0.45006 0.87364 0.0
C715 C 0.14003 0.44705 0.95083 0.0
H716 H 0.71187 0.11461 0.7002 0.0
H717 H 0.67604 0.14544 0.75585 0.0
H718 H 0.72058 0.11489 0.83293 0.0
H719 H 0.6835 0.14447 0.88813 0.0
H720 H 0.70502 0.14863 0.1249 0.0
H721 H 0.70728 0.15637 0.99012 0.0
H722 H 0.70316 0.0962 0.9418 0.0
H723 H 0.70219 0.08922 0.07562 0.0
C724 C 0.70594 0.12157 0.74037 0.0
C725 C 0.69291 0.12965 0.71682 0.0
C726 C 0.71076 0.12154 0.81691 0.0
C727 C 0.70256 0.12947 0.87203 0.0
C728 C 0.69032 0.13838 0.84788 0.0
C729 C 0.68568 0.13858 0.77156 0.0
C730 C 0.70522 0.13738 0.08547 0.0
C731 C 0.70307 0.11814 0.11109 0.0
C732 C 0.70622 0.14166 1.00799 0.0
C733 C 0.70503 0.12676 0.95438 0.0
C734 C 0.70426 0.10818 0.98067 0.0
C735 C 0.70341 0.10401 0.05778 0.0
H736 H 0.56019 0.69459 0.33869 0.0
H737 H 0.61925 0.69665 0.28829 0.0
H738 H 0.55372 0.69542 0.20421 0.0
H739 H 0.61221 0.69602 0.15476 0.0
H740 H 0.60107 0.70423 0.91371 0.0
H741 H 0.60933 0.71238 0.04638 0.0
H742 H 0.54307 0.67199 0.10188 0.0
H743 H 0.53462 0.66508 0.96946 0.0
C744 C 0.57192 0.69545 0.29916 0.0
C745 C 0.59009 0.6952 0.32465 0.0
C746 C 0.56807 0.69563 0.22175 0.0
C747 C 0.58224 0.69543 0.16791 0.0
C748 C 0.60094 0.69632 0.19383 0.0
C749 C 0.60486 0.69636 0.2709 0.0
C750 C 0.58816 0.69737 0.95379 0.0
C751 C 0.56715 0.68371 0.92996 0.0
C752 C 0.59296 0.70188 0.03045 0.0
C753 C 0.57694 0.6927 0.08565 0.0
C754 C 0.55588 0.67959 0.06154 0.0
C755 C 0.55105 0.67529 0.98501 0.0
H756 H 0.53276 0.14745 0.26533 0.0
H757 H 0.55573 0.15848 0.03586 0.0
H758 H 0.56648 0.15156 0.30807 0.0
H759 H 0.58922 0.16205 0.07876 0.0
H760 H 0.63539 0.17167 0.36573 0.0
H761 H 0.60633 0.17655 0.31876 0.0
H762 H 0.59753 0.13507 0.13128 0.0
H763 H 0.6263 0.13017 0.17842 0.0
C764 C 0.54511 0.15122 0.22409 0.0
C765 C 0.54134 0.15239 0.14688 0.0
C766 C 0.56447 0.15354 0.24871 0.0
C767 C 0.58045 0.15694 0.19672 0.0
C768 C 0.57709 0.15913 0.12006 0.0
C769 C 0.55784 0.15699 0.09551 0.0
C770 C 0.62748 0.16401 0.31368 0.0
C771 C 0.63302 0.15055 0.27562 0.0
C772 C 0.61078 0.16665 0.28715 0.0
C773 C 0.59961 0.15616 0.22139 0.0
C774 C 0.60593 0.14354 0.18162 0.0
C775 C 0.62233 0.14065 0.20871 0.0
H776 H 0.39643 0.52403 0.49295 0.0
H777 H 0.39456 0.55053 0.27775 0.0
H778 H 0.4257 0.55853 0.53284 0.0
H779 H 0.42417 0.58509 0.31711 0.0
H780 H 0.47084 0.62732 0.59796 0.0
H781 H 0.43627 0.59775 0.55831 0.0
H782 H 0.46329 0.59547 0.34437 0.0
H783 H 0.4978 0.62469 0.38456 0.0
C784 C 0.40203 0.5374 0.45488 0.0
C785 C 0.39326 0.53469 0.38242 0.0
C786 C 0.41871 0.55714 0.47772 0.0
C787 C 0.42724 0.57449 0.42801 0.0
C788 C 0.41792 0.57197 0.35649 0.0
C789 C 0.40093 0.55229 0.33416 0.0
C790 C 0.46918 0.62079 0.54185 0.0
C791 C 0.48691 0.62823 0.49422 0.0
C792 C 0.44949 0.60383 0.51937 0.0
C793 C 0.4471 0.59431 0.44829 0.0
C794 C 0.46458 0.60261 0.39913 0.0
C795 C 0.48433 0.61926 0.42215 0.0
H796 H 0.89027 0.39319 0.65671 0.0
H797 H 0.85069 0.38527 0.46439 0.0
H798 H 0.88451 0.4214 0.70456 0.0
H799 H 0.845 0.41372 0.51195 0.0
H800 H 0.87441 0.48688 0.56619 0.0
H801 H 0.87098 0.45346 0.52514 0.0
H802 H 0.85651 0.42971 0.75281 0.0
H803 H 0.85907 0.46292 0.79412 0.0
C804 C 0.88001 0.39726 0.6255 0.0
C805 C 0.87095 0.38713 0.55686 0.0
C806 C 0.87663 0.41333 0.65299 0.0
C807 C 0.86439 0.41984 0.61182 0.0
C808 C 0.85461 0.4091 0.54462 0.0
C809 C 0.85772 0.39275 0.51771 0.0
C810 C 0.86985 0.4744 0.60747 0.0
C811 C 0.86711 0.47781 0.68382 0.0
C812 C 0.86796 0.4552 0.58374 0.0
C813 C 0.86354 0.43898 0.63576 0.0
C814 C 0.86013 0.44202 0.71156 0.0
C815 C 0.86174 0.46113 0.73522 0.0
H816 H 0.38408 0.84051 0.80686 0.0
H817 H 0.4202 0.8845 0.98508 0.0
H818 H 0.416 0.84081 0.76446 0.0
H819 H 0.45128 0.88304 0.94742 0.0
H820 H 0.50819 0.90328 0.79564 0.0
H821 H 0.47564 0.89803 0.85118 0.0
H822 H 0.44338 0.83245 0.77939 0.0
H823 H 0.47611 0.83827 0.71868 0.0
C824 C 0.39865 0.85002 0.83787 0.0
C825 C 0.39937 0.8628 0.89883 0.0
C826 C 0.41698 0.84989 0.81415 0.0
C827 C 0.43646 0.86227 0.85148 0.0
C828 C 0.43678 0.87377 0.9157 0.0
C829 C 0.41864 0.87425 0.93841 0.0
C830 C 0.49416 0.88774 0.79106 0.0
C831 C 0.49473 0.87133 0.75123 0.0
C832 C 0.47545 0.88458 0.82432 0.0
C833 C 0.45669 0.86477 0.82022 0.0
C834 C 0.4574 0.84802 0.78294 0.0
C835 C 0.47623 0.85127 0.74884 0.0
H836 H 0.55702 0.39523 0.05756 0.0
H837 H 0.52812 0.38021 0.83701 0.0
H838 H 0.58966 0.42407 1.00339 0.0
H839 H 0.56077 0.40905 0.78276 0.0
H840 H 0.60622 0.48246 0.75968 0.0
H841 H 0.57683 0.44873 0.79961 0.0
H842 H 0.62032 0.43365 0.91107 0.0
H843 H 0.65025 0.46728 0.86797 0.0
C844 C 0.55781 0.39784 0.99727 0.0
C845 C 0.53999 0.38551 0.95156 0.0
C846 C 0.57653 0.41427 0.9662 0.0
C847 C 0.57774 0.41892 0.88889 0.0
C848 C 0.56026 0.40593 0.84263 0.0
C849 C 0.54163 0.38931 0.87355 0.0
C850 C 0.60982 0.47182 0.79043 0.0
C851 C 0.63089 0.47779 0.80975 0.0
C852 C 0.59281 0.45241 0.81377 0.0
C853 C 0.59623 0.43848 0.85826 0.0
C854 C 0.61719 0.44414 0.87706 0.0
C855 C 0.63434 0.46349 0.8526 0.0
H856 H 0.18488 0.55007 0.14824 0.0
H857 H 0.1192 0.51785 0.07815 0.0
H858 H 0.19047 0.58226 0.08451 0.0
H859 H 0.12415 0.54997 0.0212 0.0
H860 H 0.1359 0.60341 0.88247 0.0
H861 H 0.13747 0.5729 0.92324 0.0
H862 H 0.18395 0.61065 0.09218 0.0
H863 H 0.18454 0.64219 0.0447 0.0
C864 C 0.17165 0.54979 0.11922 0.0
C865 C 0.1515 0.53135 0.11956 0.0
C866 C 0.17478 0.56837 0.08344 0.0
C867 C 0.1578 0.56897 0.04737 0.0
C868 C 0.13784 0.55031 0.04666 0.0
C869 C 0.13483 0.53181 0.0811 0.0
C870 C 0.14718 0.60576 0.92633 0.0
C871 C 0.15994 0.62576 0.96021 0.0
C872 C 0.14765 0.58783 0.95131 0.0
C873 C 0.16027 0.58891 0.01308 0.0
C874 C 0.17389 0.60899 0.0447 0.0
C875 C 0.17391 0.62717 0.01809 0.0
H876 H 0.40552 0.054 0.87398 0.0
H877 H 0.38613 0.06436 0.09187 0.0
H878 H 0.37831 0.01669 0.87922 0.0
H879 H 0.35875 0.0267 0.09789 0.0
H880 H 0.35433 0.95907 0.12279 0.0
H881 H 0.36534 0.99658 0.11497 0.0
H882 H 0.34095 0.98725 0.8878 0.0
H883 H 0.32976 0.94942 0.89642 0.0
C884 C 0.39477 0.04842 0.92165 0.0
C885 C 0.39783 0.06207 0.98226 0.0
C886 C 0.37912 0.02699 0.92472 0.0
C887 C 0.3664 0.01857 0.98928 0.0
C888 C 0.36834 0.03264 0.04749 0.0
C889 C 0.38385 0.05426 0.04376 0.0
C890 C 0.35042 0.96485 0.07251 0.0
C891 C 0.34104 0.95134 0.0105 0.0
C892 C 0.35674 0.9864 0.0679 0.0
C893 C 0.35424 0.99505 1.00046 0.0
C894 C 0.34322 0.98113 0.94043 0.0
C895 C 0.33657 0.95941 0.94558 0.0
H896 H 0.41807 0.37141 0.03942 0.0
H897 H 0.38272 0.32034 0.19569 0.0
H898 H 0.39111 0.38144 0.04492 0.0
H899 H 0.35489 0.33023 0.20103 0.0
H900 H 0.33924 0.3836 0.28225 0.0
H901 H 0.35229 0.35928 0.25572 0.0
H902 H 0.35692 0.37535 0.01944 0.0
H903 H 0.34525 0.40073 0.04762 0.0
C904 C 0.40411 0.36194 0.07358 0.0
C905 C 0.4025 0.34515 0.11723 0.0
C906 C 0.38843 0.36757 0.0763 0.0
C907 C 0.3706 0.35667 0.12333 0.0
C908 C 0.36842 0.33907 0.16442 0.0
C909 C 0.38422 0.33326 0.16103 0.0
C910 C 0.3422 0.38125 0.22426 0.0
C911 C 0.34132 0.3941 0.16698 0.0
C912 C 0.34972 0.36726 0.20888 0.0
C913 C 0.35634 0.36576 0.13567 0.0
C914 C 0.35264 0.37655 0.07693 0.0
C915 C 0.34557 0.39085 0.09266 0.0
H916 H 0.06195 0.39988 0.46453 0.0
H917 H 0.0725 0.38332 0.24181 0.0
H918 H 0.02492 0.37177 0.45874 0.0
H919 H 0.0351 0.35536 0.2349 0.0
H920 H 0.96781 0.35408 0.22391 0.0
H921 H 1.00512 0.36401 0.22628 0.0
H922 H 0.99579 0.33292 0.44139 0.0
H923 H 0.95807 0.32239 0.43759 0.0
C924 C 0.05654 0.38955 0.41566 0.0
C925 C 0.07008 0.39375 0.35373 0.0
C926 C 0.03529 0.37342 0.41224 0.0
C927 C 0.02698 0.36143 0.34603 0.0
C928 C 0.04103 0.36436 0.2866 0.0
C929 C 0.06248 0.38025 0.29077 0.0
C930 C 0.97348 0.34842 0.2698 0.0
C931 C 0.96007 0.33753 0.33059 0.0
C932 C 0.99491 0.35413 0.27128 0.0
C933 C 1.00352 0.34949 0.33449 0.0
C934 C 0.98964 0.3368 0.39207 0.0
C935 C 0.968 0.33064 0.38966 0.0
H936 H 0.64111 0.95075 0.42796 0.0
H937 H 0.62983 0.96522 0.65255 0.0
H938 H 0.66947 0.98756 0.41208 0.0
H939 H 0.65647 1.00184 0.63615 0.0
H940 H 0.69547 0.06877 0.59864 0.0
H941 H 0.68719 0.03229 0.62029 0.0
H942 H 0.67029 0.01818 0.38482 0.0
H943 H 0.68045 0.05472 0.36349 0.0
C944 C 0.64521 0.96167 0.4748 0.0
C945 C 0.63337 0.95514 0.54158 0.0
C946 C 0.66119 0.98295 0.46544 0.0
C947 C 0.66512 0.99825 0.52182 0.0
C948 C 0.6544 0.99097 0.59107 0.0
C949 C 0.63885 0.96974 0.60071 0.0
C950 C 0.69106 0.05802 0.55113 0.0
C951 C 0.68863 0.06457 0.47944 0.0
C952 C 0.68581 0.0369 0.56356 0.0
C953 C 0.67714 0.02167 0.50509 0.0
C954 C 0.67683 0.02901 0.43188 0.0
C955 C 0.68262 0.05018 0.41933 0.0
H956 H 0.63822 0.68372 0.59626 0.0
H957 H 0.62164 0.67743 0.8315 0.0
H958 H 0.66338 0.6717 0.62146 0.0
H959 H 0.648 0.66697 0.85859 0.0
H960 H 0.70227 0.6416 0.67215 0.0
H961 H 0.69247 0.66944 0.67164 0.0
H962 H 0.64351 0.63364 0.83615 0.0
H963 H 0.65369 0.60676 0.83736 0.0
C964 C 0.64086 0.68092 0.6541 0.0
C965 C 0.62792 0.68137 0.7119 0.0
C966 C 0.65536 0.67401 0.66879 0.0
C967 C 0.65734 0.66763 0.74189 0.0
C968 C 0.64643 0.671 0.80114 0.0
C969 C 0.63156 0.67738 0.78605 0.0
C970 C 0.69 0.64029 0.71007 0.0
C971 C 0.6787 0.62212 0.75479 0.0
C972 C 0.68418 0.65606 0.70929 0.0
C973 C 0.66704 0.65389 0.75348 0.0
C974 C 0.65698 0.63632 0.80216 0.0
C975 C 0.6627 0.6207 0.80257 0.0
H976 H 0.0692 0.69334 0.78277 0.0
H977 H 0.05493 0.65801 0.98986 0.0
H978 H 0.03165 0.68311 0.76977 0.0
H979 H 0.0177 0.64739 0.97707 0.0
H980 H 0.95107 0.62606 0.9507 0.0
H981 H 0.98832 0.65273 0.97204 0.0
H982 H 1.00128 0.65015 0.7357 0.0
H983 H 0.964 0.62423 0.71494 0.0
C984 C 0.05815 0.68413 0.82701 0.0
C985 C 0.0649 0.67667 0.88782 0.0
C986 C 0.03659 0.67799 0.8192 0.0
C987 C 0.02142 0.66421 0.87197 0.0
C988 C 0.02872 0.65823 0.93572 0.0
C989 C 0.05014 0.66429 0.94321 0.0
C990 C 0.96173 0.63214 0.90287 0.0
C991 C 0.95466 0.62344 0.83099 0.0
C992 C 0.98317 0.64715 0.91512 0.0
C993 C 0.99806 0.65339 0.85594 0.0
C994 C 0.99043 0.64603 0.78271 0.0
C995 C 0.96898 0.63117 0.77052 0.0
loop_
_geom_bond_atom_site_label_1
_geom_bond_atom_site_label_2
_geom_bond_distance
_geom_bond_site_symmetry_2
_ccdc_geom_bond_type
C0 C1 1.351 . S
C0 N3 1.368 . S
C0 H5 0.931 . S
C1 C0 1.351 . S
C1 N2 1.373 . S
C1 H29 0.930 . S
N2 C1 1.373 . S
N2 C4 1.340 . S
N3 C0 1.368 . S
N3 C4 1.321 . S
N3 Co6 2.135 . S
C4 N2 1.340 . S
C4 N3 1.321 . S
C4 H28 0.930 . S
H5 C0 0.931 . S
Co6 N3 2.135 . S
Co6 N9 2.121 1_554 S
Co6 O14 2.055 . S
Co6 O17 2.039 . S
Co6 N20 2.140 . S
C7 O8 1.227 . S
C7 O17 1.265 . S
O8 C7 1.227 . S
N9 Co6 2.121 1_556 S
N9 C11 1.375 . S
N9 C12 1.313 . S
C10 C11 1.338 . S
C10 N13 1.377 . S
C10 H30 0.930 . S
C11 N9 1.375 . S
C11 C10 1.338 . S
C11 H15 0.931 . S
C12 N9 1.313 . S
C12 N13 1.344 . S
C12 H16 0.930 . S
N13 C10 1.377 . S
N13 C12 1.344 . S
O14 Co6 2.055 . S
O14 C18 1.253 . S
H15 C11 0.931 . S
H16 C12 0.930 . S
O17 Co6 2.039 . S
O17 C7 1.265 . S
C18 O14 1.253 . S
C18 O19 1.227 . S
O19 C18 1.227 . S
N20 Co6 2.140 . S
N20 C23 1.346 . S
N20 C24 1.345 . S
C21 C22 1.387 . S
C21 C25 1.391 . S
C22 C21 1.387 . S
C22 C23 1.369 . S
C22 H31 0.929 . S
C23 N20 1.346 . S
C23 C22 1.369 . S
C23 H26 0.928 . S
C24 N20 1.345 . S
C24 C25 1.371 . S
C24 H27 0.931 . S
C25 C21 1.391 . S
C25 C24 1.371 . S
C25 H32 0.930 . S
H26 C23 0.928 . S
H27 C24 0.931 . S
H28 C4 0.930 . S
H29 C1 0.930 . S
H30 C10 0.930 . S
H31 C22 0.929 . S
H32 C25 0.930 . S
C33 C34 1.351 . S
C33 N36 1.368 . S
C33 H38 0.931 . S
C34 C33 1.351 . S
C34 N35 1.373 . S
C34 H62 0.930 . S
N35 C34 1.373 . S
N35 C37 1.340 . S
N36 C33 1.368 . S
N36 C37 1.321 . S
N36 Co39 2.135 . S
C37 N35 1.340 . S
C37 N36 1.321 . S
C37 H61 0.930 . S
H38 C33 0.931 . S
Co39 N36 2.135 . S
Co39 N42 2.121 . S
Co39 O47 2.055 . S
Co39 O50 2.039 . S
Co39 N53 2.140 . S
C40 O41 1.227 . S
C40 O50 1.265 . S
O41 C40 1.227 . S
N42 Co39 2.121 . S
N42 C44 1.375 . S
N42 C45 1.313 . S
C43 C44 1.338 . S
C43 N46 1.377 . S
C43 H63 0.930 . S
C44 N42 1.375 . S
C44 C43 1.338 . S
C44 H48 0.931 . S
C45 N42 1.313 . S
C45 N46 1.344 . S
C45 H49 0.930 . S
N46 C43 1.377 . S
N46 C45 1.344 . S
O47 Co39 2.055 . S
O47 C51 1.253 . S
H48 C44 0.931 . S
H49 C45 0.930 . S
O50 Co39 2.039 . S
O50 C40 1.265 . S
C51 O47 1.253 . S
C51 O52 1.227 . S
O52 C51 1.227 . S
N53 Co39 2.140 . S
N53 C56 1.346 . S
N53 C57 1.345 . S
C54 C55 1.387 . S
C54 C58 1.391 . S
C55 C54 1.387 . S
C55 C56 1.369 . S
C55 H64 0.929 . S
C56 N53 1.346 . S
C56 C55 1.369 . S
C56 H59 0.928 . S
C57 N53 1.345 . S
C57 C58 1.371 . S
C57 H60 0.931 . S
C58 C54 1.391 . S
C58 C57 1.371 . S
C58 H65 0.930 . S
H59 C56 0.928 . S
H60 C57 0.931 . S
H61 C37 0.930 . S
H62 C34 0.930 . S
H63 C43 0.930 . S
H64 C55 0.929 . S
H65 C58 0.930 . S
C66 C67 1.351 . S
C66 N69 1.368 . S
C66 H71 0.931 . S
C67 C66 1.351 . S
C67 N68 1.373 . S
C67 H95 0.930 . S
N68 C67 1.373 . S
N68 C70 1.340 . S
N69 C66 1.368 . S
N69 C70 1.321 . S
N69 Co72 2.135 . S
C70 N68 1.340 . S
C70 N69 1.321 . S
C70 H94 0.930 . S
H71 C66 0.931 . S
Co72 N69 2.135 . S
Co72 N75 2.121 . S
Co72 O80 2.055 . S
Co72 O83 2.039 . S
Co72 N86 2.140 . S
C73 O74 1.227 . S
C73 O83 1.265 . S
O74 C73 1.227 . S
N75 Co72 2.121 . S
N75 C77 1.375 . S
N75 C78 1.313 . S
C76 C77 1.338 . S
C76 N79 1.377 . S
C76 H96 0.930 . S
C77 N75 1.375 . S
C77 C76 1.338 . S
C77 H81 0.931 . S
C78 N75 1.313 . S
C78 N79 1.344 . S
C78 H82 0.930 . S
N79 C76 1.377 . S
N79 C78 1.344 . S
O80 Co72 2.055 . S
O80 C84 1.253 . S
H81 C77 0.931 . S
H82 C78 0.930 . S
O83 Co72 2.039 . S
O83 C73 1.265 . S
C84 O80 1.253 . S
C84 O85 1.227 . S
O85 C84 1.227 . S
N86 Co72 2.140 . S
N86 C89 1.346 . S
N86 C90 1.345 . S
C87 C88 1.387 . S
C87 C91 1.391 . S
C88 C87 1.387 . S
C88 C89 1.369 . S
C88 H97 0.929 . S
C89 N86 1.346 . S
C89 C88 1.369 . S
C89 H92 0.928 . S
C90 N86 1.345 . S
C90 C91 1.371 . S
C90 H93 0.931 . S
C91 C87 1.391 . S
C91 C90 1.371 . S
C91 H98 0.930 . S
H92 C89 0.928 . S
H93 C90 0.931 . S
H94 C70 0.930 . S
H95 C67 0.930 . S
H96 C76 0.930 . S
H97 C88 0.929 . S
H98 C91 0.930 . S
C99 C100 1.351 . S
C99 N102 1.368 . S
C99 H104 0.931 . S
C100 C99 1.351 . S
C100 N101 1.373 . S
C100 H128 0.930 . S
N101 C100 1.373 . S
N101 C103 1.340 . S
N102 C99 1.368 . S
N102 C103 1.321 . S
N102 Co105 2.135 . S
C103 N101 1.340 . S
C103 N102 1.321 . S
C103 H127 0.930 . S
H104 C99 0.931 . S
Co105 N102 2.135 . S
Co105 N108 2.121 . S
Co105 O113 2.055 . S
Co105 O116 2.039 . S
Co105 N119 2.140 . S
C106 O107 1.227 . S
C106 O116 1.265 . S
O107 C106 1.227 . S
N108 Co105 2.121 . S
N108 C110 1.375 . S
N108 C111 1.313 . S
C109 C110 1.338 . S
C109 N112 1.377 . S
C109 H129 0.930 . S
C110 N108 1.375 . S
C110 C109 1.338 . S
C110 H114 0.931 . S
C111 N108 1.313 . S
C111 N112 1.344 . S
C111 H115 0.930 . S
N112 C109 1.377 . S
N112 C111 1.344 . S
O113 Co105 2.055 . S
O113 C117 1.253 . S
H114 C110 0.931 . S
H115 C111 0.930 . S
O116 Co105 2.039 . S
O116 C106 1.265 . S
C117 O113 1.253 . S
C117 O118 1.227 . S
O118 C117 1.227 . S
N119 Co105 2.140 . S
N119 C122 1.346 . S
N119 C123 1.345 . S
C120 C121 1.387 . S
C120 C124 1.391 . S
C121 C120 1.387 . S
C121 C122 1.369 . S
C121 H130 0.929 . S
C122 N119 1.346 . S
C122 C121 1.369 . S
C122 H125 0.928 . S
C123 N119 1.345 . S
C123 C124 1.371 . S
C123 H126 0.931 . S
C124 C120 1.391 . S
C124 C123 1.371 . S
C124 H131 0.930 . S
H125 C122 0.928 . S
H126 C123 0.931 . S
H127 C103 0.930 . S
H128 C100 0.930 . S
H129 C109 0.930 . S
H130 C121 0.929 . S
H131 C124 0.930 . S
C132 C133 1.340 1_556 S
C132 N135 1.368 . S
C132 H137 0.931 . S
C133 C132 1.340 1_554 S
C133 N134 1.375 . S
C133 H161 0.937 . S
N134 C133 1.375 . S
N134 C136 1.340 1_554 S
N135 C132 1.368 . S
N135 C136 1.321 . S
N135 Co138 2.135 . S
C136 N134 1.340 1_556 S
C136 N135 1.321 . S
C136 H160 0.930 . S
H137 C132 0.931 . S
Co138 N135 2.135 . S
Co138 N141 2.121 . S
Co138 O146 2.055 . S
Co138 O149 2.039 . S
Co138 N152 2.140 . S
C139 O140 1.227 . S
C139 O149 1.265 . S
O140 C139 1.227 . S
N141 Co138 2.121 . S
N141 C143 1.375 . S
N141 C144 1.313 . S
C142 C143 1.338 . S
C142 N145 1.377 . S
C142 H162 0.930 . S
C143 N141 1.375 . S
C143 C142 1.338 . S
C143 H147 0.931 . S
C144 N141 1.313 . S
C144 N145 1.344 . S
C144 H148 0.930 . S
N145 C142 1.377 . S
N145 C144 1.344 . S
O146 Co138 2.055 . S
O146 C150 1.253 . S
H147 C143 0.931 . S
H148 C144 0.930 . S
O149 Co138 2.039 . S
O149 C139 1.265 . S
C150 O146 1.253 . S
C150 O151 1.227 . S
O151 C150 1.227 . S
N152 Co138 2.140 . S
N152 C155 1.346 . S
N152 C156 1.345 . S
C153 C154 1.387 . S
C153 C157 1.391 . S
C154 C153 1.387 . S
C154 C155 1.369 . S
C154 H163 0.929 . S
C155 N152 1.346 . S
C155 C154 1.369 . S
C155 H158 0.928 . S
C156 N152 1.345 . S
C156 C157 1.371 . S
C156 H159 0.931 . S
C157 C153 1.391 . S
C157 C156 1.371 . S
C157 H164 0.930 . S
H158 C155 0.928 . S
H159 C156 0.931 . S
H160 C136 0.930 . S
H161 C133 0.937 . S
H162 C142 0.930 . S
H163 C154 0.929 . S
H164 C157 0.930 . S
C165 C166 1.351 . S
C165 N168 1.368 . S
C165 H170 0.931 . S
C166 C165 1.351 . S
C166 N167 1.373 . S
C166 H194 0.930 . S
N167 C166 1.373 . S
N167 C169 1.340 . S
N168 C165 1.368 . S
N168 C169 1.321 . S
N168 Co171 2.135 1_554 S
C169 N167 1.340 . S
C169 N168 1.321 . S
C169 H193 0.930 . S
H170 C165 0.931 . S
Co171 N168 2.135 1_556 S
Co171 N174 2.121 . S
Co171 O179 2.055 . S
Co171 O182 2.039 . S
Co171 N185 2.140 . S
C172 O173 1.227 . S
C172 O182 1.265 . S
O173 C172 1.227 . S
N174 Co171 2.121 . S
N174 C176 1.375 . S
N174 C177 1.313 . S
C175 C176 1.338 . S
C175 N178 1.377 . S
C175 H195 0.930 . S
C176 N174 1.375 . S
C176 C175 1.338 . S
C176 H180 0.931 . S
C177 N174 1.313 . S
C177 N178 1.344 . S
C177 H181 0.930 . S
N178 C175 1.377 . S
N178 C177 1.344 . S
O179 Co171 2.055 . S
O179 C183 1.253 . S
H180 C176 0.931 . S
H181 C177 0.930 . S
O182 Co171 2.039 . S
O182 C172 1.265 . S
C183 O179 1.253 . S
C183 O184 1.227 . S
O184 C183 1.227 . S
N185 Co171 2.140 . S
N185 C188 1.346 1_556 S
N185 C189 1.345 . S
C186 C187 1.387 1_556 S
C186 C190 1.391 . S
C187 C186 1.387 1_554 S
C187 C188 1.369 . S
C187 H196 0.929 . S
C188 N185 1.346 1_554 S
C188 C187 1.369 . S
C188 H191 0.928 . S
C189 N185 1.345 . S
C189 C190 1.371 . S
C189 H192 0.931 . S
C190 C186 1.391 . S
C190 C189 1.371 . S
C190 H197 0.930 . S
H191 C188 0.928 . S
H192 C189 0.931 . S
H193 C169 0.930 . S
H194 C166 0.930 . S
H195 C175 0.930 . S
H196 C187 0.929 . S
H197 C190 0.930 . S
C198 C199 1.351 . S
C198 N201 1.368 . S
C198 H203 0.931 . S
C199 C198 1.351 . S
C199 N200 1.373 . S
C199 H227 0.930 . S
N200 C199 1.373 . S
N200 C202 1.340 . S
N201 C198 1.368 . S
N201 C202 1.321 . S
N201 Co204 2.135 . S
C202 N200 1.340 . S
C202 N201 1.321 . S
C202 H226 0.930 . S
H203 C198 0.931 . S
Co204 N201 2.135 . S
Co204 N207 2.121 . S
Co204 O212 2.055 . S
Co204 O215 2.039 . S
Co204 N218 2.140 . S
C205 O206 1.227 . S
C205 O215 1.265 . S
O206 C205 1.227 . S
N207 Co204 2.121 . S
N207 C209 1.375 . S
N207 C210 1.313 . S
C208 C209 1.338 . S
C208 N211 1.377 . S
C208 H228 0.930 . S
C209 N207 1.375 . S
C209 C208 1.338 . S
C209 H213 0.931 . S
C210 N207 1.313 . S
C210 N211 1.344 . S
C210 H214 0.930 . S
N211 C208 1.377 . S
N211 C210 1.344 . S
O212 Co204 2.055 . S
O212 C216 1.253 . S
H213 C209 0.931 . S
H214 C210 0.930 . S
O215 Co204 2.039 . S
O215 C205 1.265 . S
C216 O212 1.253 . S
C216 O217 1.227 . S
O217 C216 1.227 . S
N218 Co204 2.140 . S
N218 C221 1.346 . S
N218 C222 1.345 . S
C219 C220 1.387 . S
C219 C223 1.391 . S
C220 C219 1.387 . S
C220 C221 1.369 . S
C220 H229 0.929 . S
C221 N218 1.346 . S
C221 C220 1.369 . S
C221 H224 0.928 . S
C222 N218 1.345 . S
C222 C223 1.371 . S
C222 H225 0.931 . S
C223 C219 1.391 . S
C223 C222 1.371 . S
C223 H230 0.930 . S
H224 C221 0.928 . S
H225 C222 0.931 . S
H226 C202 0.930 . S
H227 C199 0.930 . S
H228 C208 0.930 . S
H229 C220 0.929 . S
H230 C223 0.930 . S
C231 C232 1.351 . S
C231 N234 1.368 . S
C231 H236 0.931 . S
C232 C231 1.351 . S
C232 N233 1.373 . S
C232 H260 0.930 . S
N233 C232 1.373 . S
N233 C235 1.340 . S
N234 C231 1.368 . S
N234 C235 1.321 . S
N234 Co237 2.135 . S
C235 N233 1.340 . S
C235 N234 1.321 . S
C235 H259 0.930 . S
H236 C231 0.931 . S
Co237 N234 2.135 . S
Co237 N240 2.121 1_556 S
Co237 O245 2.055 . S
Co237 O248 2.039 . S
Co237 N251 2.140 . S
C238 O239 1.227 . S
C238 O248 1.265 . S
O239 C238 1.227 . S
N240 Co237 2.121 1_554 S
N240 C242 1.375 . S
N240 C243 1.313 . S
C241 C242 1.338 . S
C241 N244 1.377 . S
C241 H261 0.930 . S
C242 N240 1.375 . S
C242 C241 1.338 . S
C242 H246 0.931 . S
C243 N240 1.313 . S
C243 N244 1.344 . S
C243 H247 0.930 . S
N244 C241 1.377 . S
N244 C243 1.344 . S
O245 Co237 2.055 . S
O245 C249 1.253 . S
H246 C242 0.931 . S
H247 C243 0.930 . S
O248 Co237 2.039 . S
O248 C238 1.265 . S
C249 O245 1.253 . S
C249 O250 1.227 . S
O250 C249 1.227 . S
N251 Co237 2.140 . S
N251 C254 1.346 . S
N251 C255 1.345 . S
C252 C253 1.387 . S
C252 C256 1.391 . S
C253 C252 1.387 . S
C253 C254 1.369 . S
C253 H262 0.929 . S
C254 N251 1.346 . S
C254 C253 1.369 . S
C254 H257 0.928 . S
C255 N251 1.345 . S
C255 C256 1.371 . S
C255 H258 0.931 . S
C256 C252 1.391 . S
C256 C255 1.371 . S
C256 H263 0.930 . S
H257 C254 0.928 . S
H258 C255 0.931 . S
H259 C235 0.930 . S
H260 C232 0.930 . S
H261 C241 0.930 . S
H262 C253 0.929 . S
H263 C256 0.930 . S
C264 C265 1.351 . S
C264 N267 1.368 . S
C264 H269 0.931 . S
C265 C264 1.351 . S
C265 N266 1.373 . S
C265 H293 0.930 . S
N266 C265 1.373 . S
N266 C268 1.340 . S
N267 C264 1.368 . S
N267 C268 1.321 . S
N267 Co270 2.135 1_556 S
C268 N266 1.340 . S
C268 N267 1.321 . S
C268 H292 0.930 . S
H269 C264 0.931 . S
Co270 N267 2.135 1_554 S
Co270 N273 2.121 . S
Co270 O278 2.055 . S
Co270 O281 2.039 . S
Co270 N284 2.140 . S
C271 O272 1.227 . S
C271 O281 1.265 . S
O272 C271 1.227 . S
N273 Co270 2.121 . S
N273 C275 1.375 . S
N273 C276 1.313 . S
C274 C275 1.338 . S
C274 N277 1.377 . S
C274 H294 0.930 . S
C275 N273 1.375 . S
C275 C274 1.338 . S
C275 H279 0.931 . S
C276 N273 1.313 . S
C276 N277 1.344 . S
C276 H280 0.930 . S
N277 C274 1.377 . S
N277 C276 1.344 . S
O278 Co270 2.055 . S
O278 C282 1.253 . S
H279 C275 0.931 . S
H280 C276 0.930 . S
O281 Co270 2.039 . S
O281 C271 1.265 . S
C282 O278 1.253 . S
C282 O283 1.227 . S
O283 C282 1.227 . S
N284 Co270 2.140 . S
N284 C287 1.346 1_554 S
N284 C288 1.345 . S
C285 C286 1.387 1_554 S
C285 C289 1.391 . S
C286 C285 1.387 1_556 S
C286 C287 1.369 . S
C286 H295 0.929 . S
C287 N284 1.346 1_556 S
C287 C286 1.369 . S
C287 H290 0.928 . S
C288 N284 1.345 . S
C288 C289 1.371 . S
C288 H291 0.931 . S
C289 C285 1.391 . S
C289 C288 1.371 . S
C289 H296 0.930 . S
H290 C287 0.928 . S
H291 C288 0.931 . S
H292 C268 0.930 . S
H293 C265 0.930 . S
H294 C274 0.930 . S
H295 C286 0.929 . S
H296 C289 0.930 . S
C297 C298 1.339 1_554 S
C297 N300 1.368 . S
C297 H302 0.931 . S
C298 C297 1.339 1_556 S
C298 N299 1.375 . S
C298 H326 0.938 . S
N299 C298 1.375 . S
N299 C301 1.340 1_556 S
N300 C297 1.368 . S
N300 C301 1.321 . S
N300 Co303 2.135 . S
C301 N299 1.340 1_554 S
C301 N300 1.321 . S
C301 H325 0.930 . S
H302 C297 0.931 . S
Co303 N300 2.135 . S
Co303 N306 2.121 . S
Co303 O311 2.055 . S
Co303 O314 2.039 . S
Co303 N317 2.140 . S
C304 O305 1.227 . S
C304 O314 1.265 . S
O305 C304 1.227 . S
N306 Co303 2.121 . S
N306 C308 1.375 . S
N306 C309 1.313 . S
C307 C308 1.338 . S
C307 N310 1.377 . S
C307 H327 0.930 . S
C308 N306 1.375 . S
C308 C307 1.338 . S
C308 H312 0.931 . S
C309 N306 1.313 . S
C309 N310 1.344 . S
C309 H313 0.930 . S
N310 C307 1.377 . S
N310 C309 1.344 . S
O311 Co303 2.055 . S
O311 C315 1.253 . S
H312 C308 0.931 . S
H313 C309 0.930 . S
O314 Co303 2.039 . S
O314 C304 1.265 . S
C315 O311 1.253 . S
C315 O316 1.227 . S
O316 C315 1.227 . S
N317 Co303 2.140 . S
N317 C320 1.346 . S
N317 C321 1.345 . S
C318 C319 1.387 . S
C318 C322 1.391 . S
C319 C318 1.387 . S
C319 C320 1.369 . S
C319 H328 0.929 . S
C320 N317 1.346 . S
C320 C319 1.369 . S
C320 H323 0.928 . S
C321 N317 1.345 . S
C321 C322 1.371 . S
C321 H324 0.931 . S
C322 C318 1.391 . S
C322 C321 1.371 . S
C322 H329 0.930 . S
H323 C320 0.928 . S
H324 C321 0.931 . S
H325 C301 0.930 . S
H326 C298 0.938 . S
H327 C307 0.930 . S
H328 C319 0.929 . S
H329 C322 0.930 . S
C330 C331 1.351 . S
C330 N333 1.368 . S
C330 H335 0.931 . S
C331 C330 1.351 . S
C331 N332 1.373 . S
C331 H359 0.930 . S
N332 C331 1.373 . S
N332 C334 1.340 . S
N333 C330 1.368 . S
N333 C334 1.321 . S
N333 Co336 2.135 . S
C334 N332 1.340 . S
C334 N333 1.321 . S
C334 H358 0.930 . S
H335 C330 0.931 . S
Co336 N333 2.135 . S
Co336 N339 2.121 . S
Co336 O344 2.055 . S
Co336 O347 2.039 . S
Co336 N350 2.140 . S
C337 O338 1.227 . S
C337 O347 1.265 . S
O338 C337 1.227 . S
N339 Co336 2.121 . S
N339 C341 1.375 . S
N339 C342 1.313 . S
C340 C341 1.338 . S
C340 N343 1.377 . S
C340 H360 0.930 . S
C341 N339 1.375 . S
C341 C340 1.338 . S
C341 H345 0.931 . S
C342 N339 1.313 . S
C342 N343 1.344 . S
C342 H346 0.930 . S
N343 C340 1.377 . S
N343 C342 1.344 . S
O344 Co336 2.055 . S
O344 C348 1.253 . S
H345 C341 0.931 . S
H346 C342 0.930 . S
O347 Co336 2.039 . S
O347 C337 1.265 . S
C348 O344 1.253 . S
C348 O349 1.227 . S
O349 C348 1.227 . S
N350 Co336 2.140 . S
N350 C353 1.346 . S
N350 C354 1.345 . S
C351 C352 1.387 . S
C351 C355 1.391 . S
C352 C351 1.387 . S
C352 C353 1.369 . S
C352 H361 0.929 . S
C353 N350 1.346 . S
C353 C352 1.369 . S
C353 H356 0.928 . S
C354 N350 1.345 . S
C354 C355 1.371 . S
C354 H357 0.931 . S
C355 C351 1.391 . S
C355 C354 1.371 . S
C355 H362 0.930 . S
H356 C353 0.928 . S
H357 C354 0.931 . S
H358 C334 0.930 . S
H359 C331 0.930 . S
H360 C340 0.930 . S
H361 C352 0.929 . S
H362 C355 0.930 . S
C363 C364 1.351 . S
C363 N366 1.368 . S
C363 H368 0.931 . S
C364 C363 1.351 . S
C364 N365 1.373 . S
C364 H392 0.930 . S
N365 C364 1.373 . S
N365 C367 1.340 . S
N366 C363 1.368 . S
N366 C367 1.321 . S
N366 Co369 2.135 . S
C367 N365 1.340 . S
C367 N366 1.321 . S
C367 H391 0.930 . S
H368 C363 0.931 . S
Co369 N366 2.135 . S
Co369 N372 2.121 . S
Co369 O377 2.055 . S
Co369 O380 2.039 . S
Co369 N383 2.140 . S
C370 O371 1.227 . S
C370 O380 1.265 . S
O371 C370 1.227 . S
N372 Co369 2.121 . S
N372 C374 1.375 . S
N372 C375 1.313 . S
C373 C374 1.338 . S
C373 N376 1.377 . S
C373 H393 0.930 . S
C374 N372 1.375 . S
C374 C373 1.338 . S
C374 H378 0.931 . S
C375 N372 1.313 . S
C375 N376 1.344 . S
C375 H379 0.930 . S
N376 C373 1.377 . S
N376 C375 1.344 . S
O377 Co369 2.055 . S
O377 C381 1.253 . S
H378 C374 0.931 . S
H379 C375 0.930 . S
O380 Co369 2.039 . S
O380 C370 1.265 . S
C381 O377 1.253 . S
C381 O382 1.227 . S
O382 C381 1.227 . S
N383 Co369 2.140 . S
N383 C386 1.346 . S
N383 C387 1.345 . S
C384 C385 1.387 . S
C384 C388 1.391 . S
C385 C384 1.387 . S
C385 C386 1.369 . S
C385 H394 0.929 . S
C386 N383 1.346 . S
C386 C385 1.369 . S
C386 H389 0.928 . S
C387 N383 1.345 . S
C387 C388 1.371 . S
C387 H390 0.931 . S
C388 C384 1.391 . S
C388 C387 1.371 . S
C388 H395 0.930 . S
H389 C386 0.928 . S
H390 C387 0.931 . S
H391 C367 0.930 . S
H392 C364 0.930 . S
H393 C373 0.930 . S
H394 C385 0.929 . S
H395 C388 0.930 . S
H396 C404 0.950 . S
H397 C409 0.950 . S
H398 C406 0.950 . S
H399 C408 0.950 1_556 S
H400 C410 0.950 . S
H401 C412 0.950 1_556 S
H402 C414 0.950 . S
H403 C415 0.950 . S
C404 H396 0.950 . S
C404 C405 1.386 . S
C404 C406 1.391 . S
C405 C404 1.386 . S
C405 C409 1.393 1_554 S
C406 H398 0.950 . S
C406 C404 1.391 . S
C406 C407 1.400 . S
C407 C406 1.400 . S
C407 C408 1.398 . S
C407 C413 1.491 . S
C408 H399 0.950 1_554 S
C408 C407 1.398 . S
C408 C409 1.391 1_554 S
C409 H397 0.950 . S
C409 C405 1.393 1_556 S
C409 C408 1.391 1_556 S
C410 H400 0.950 . S
C410 C411 1.386 . S
C410 C412 1.391 . S
C411 C410 1.386 . S
C411 C415 1.393 . S
C412 H401 0.950 1_554 S
C412 C410 1.391 . S
C412 C413 1.400 . S
C413 C407 1.491 . S
C413 C412 1.400 . S
C413 C414 1.398 . S
C414 H402 0.950 . S
C414 C413 1.398 . S
C414 C415 1.391 . S
C415 H403 0.950 . S
C415 C411 1.393 . S
C415 C414 1.391 . S
H416 C424 0.950 . S
H417 C429 0.950 . S
H418 C426 0.950 . S
H419 C428 0.950 . S
H420 C430 0.950 . S
H421 C432 0.950 . S
H422 C434 0.950 . S
H423 C435 0.950 . S
C424 H416 0.950 . S
C424 C425 1.386 . S
C424 C426 1.391 . S
C425 C424 1.386 . S
C425 C429 1.393 . S
C426 H418 0.950 . S
C426 C424 1.391 . S
C426 C427 1.400 . S
C427 C426 1.400 . S
C427 C428 1.398 . S
C427 C433 1.491 . S
C428 H419 0.950 . S
C428 C427 1.398 . S
C428 C429 1.391 . S
C429 H417 0.950 . S
C429 C425 1.393 . S
C429 C428 1.391 . S
C430 H420 0.950 . S
C430 C431 1.386 . S
C430 C432 1.391 . S
C431 C430 1.386 . S
C431 C435 1.393 . S
C432 H421 0.950 . S
C432 C430 1.391 . S
C432 C433 1.400 . S
C433 C427 1.491 . S
C433 C432 1.400 . S
C433 C434 1.398 . S
C434 H422 0.950 . S
C434 C433 1.398 . S
C434 C435 1.391 . S
C435 H423 0.950 . S
C435 C431 1.393 . S
C435 C434 1.391 . S
H436 C444 0.950 . S
H437 C449 0.950 . S
H438 C446 0.950 . S
H439 C448 0.950 . S
H440 C450 0.950 . S
H441 C452 0.950 . S
H442 C454 0.950 . S
H443 C455 0.950 . S
C444 H436 0.950 . S
C444 C445 1.386 . S
C444 C446 1.391 . S
C445 C444 1.386 . S
C445 C449 1.393 . S
C446 H438 0.950 . S
C446 C444 1.391 . S
C446 C447 1.400 . S
C447 C446 1.400 . S
C447 C448 1.398 . S
C447 C453 1.491 . S
C448 H439 0.950 . S
C448 C447 1.398 . S
C448 C449 1.391 . S
C449 H437 0.950 . S
C449 C445 1.393 . S
C449 C448 1.391 . S
C450 H440 0.950 . S
C450 C451 1.386 . S
C450 C452 1.391 . S
C451 C450 1.386 . S
C451 C455 1.393 . S
C452 H441 0.950 . S
C452 C450 1.391 . S
C452 C453 1.400 . S
C453 C447 1.491 . S
C453 C452 1.400 . S
C453 C454 1.398 . S
C454 H442 0.950 . S
C454 C453 1.398 . S
C454 C455 1.391 . S
C455 H443 0.950 . S
C455 C451 1.393 . S
C455 C454 1.391 . S
H456 C464 0.950 . S
H457 C469 0.950 . S
H458 C466 0.950 . S
H459 C468 0.950 . S
H460 C470 0.950 . S
H461 C472 0.950 . S
H462 C474 0.950 . S
H463 C475 0.950 . S
C464 H456 0.950 . S
C464 C465 1.386 . S
C464 C466 1.391 . S
C465 C464 1.386 . S
C465 C469 1.393 . S
C466 H458 0.950 . S
C466 C464 1.391 . S
C466 C467 1.400 . S
C467 C466 1.400 . S
C467 C468 1.398 . S
C467 C473 1.491 . S
C468 H459 0.950 . S
C468 C467 1.398 . S
C468 C469 1.391 . S
C469 H457 0.950 . S
C469 C465 1.393 . S
C469 C468 1.391 . S
C470 H460 0.950 . S
C470 C471 1.386 . S
C470 C472 1.391 . S
C471 C470 1.386 . S
C471 C475 1.393 . S
C472 H461 0.950 . S
C472 C470 1.391 . S
C472 C473 1.400 . S
C473 C467 1.491 . S
C473 C472 1.400 . S
C473 C474 1.398 . S
C474 H462 0.950 . S
C474 C473 1.398 . S
C474 C475 1.391 . S
C475 H463 0.950 . S
C475 C471 1.393 . S
C475 C474 1.391 . S
H476 C484 0.950 . S
H477 C489 0.950 . S
H478 C486 0.950 . S
H479 C488 0.950 . S
H480 C490 0.950 . S
H481 C492 0.950 . S
H482 C494 0.950 . S
H483 C495 0.950 . S
C484 H476 0.950 . S
C484 C485 1.386 . S
C484 C486 1.391 . S
C485 C484 1.386 . S
C485 C489 1.393 . S
C486 H478 0.950 . S
C486 C484 1.391 . S
C486 C487 1.400 . S
C487 C486 1.400 . S
C487 C488 1.398 . S
C487 C493 1.491 . S
C488 H479 0.950 . S
C488 C487 1.398 . S
C488 C489 1.391 . S
C489 H477 0.950 . S
C489 C485 1.393 . S
C489 C488 1.391 . S
C490 H480 0.950 . S
C490 C491 1.386 . S
C490 C492 1.391 . S
C491 C490 1.386 . S
C491 C495 1.393 . S
C492 H481 0.950 . S
C492 C490 1.391 . S
C492 C493 1.400 . S
C493 C487 1.491 . S
C493 C492 1.400 . S
C493 C494 1.398 . S
C494 H482 0.950 . S
C494 C493 1.398 . S
C494 C495 1.391 . S
C495 H483 0.950 . S
C495 C491 1.393 . S
C495 C494 1.391 . S
H496 C504 0.950 . S
H497 C509 0.950 . S
H498 C506 0.950 . S
H499 C508 0.950 1_554 S
H500 C510 0.950 . S
H501 C512 0.950 1_554 S
H502 C514 0.950 . S
H503 C515 0.950 . S
C504 H496 0.950 . S
C504 C505 1.386 . S
C504 C506 1.391 . S
C505 C504 1.386 . S
C505 C509 1.393 . S
C506 H498 0.950 . S
C506 C504 1.391 . S
C506 C507 1.400 . S
C507 C506 1.400 . S
C507 C508 1.398 . S
C507 C513 1.491 . S
C508 H499 0.950 1_556 S
C508 C507 1.398 . S
C508 C509 1.391 . S
C509 H497 0.950 . S
C509 C505 1.393 . S
C509 C508 1.391 . S
C510 H500 0.950 . S
C510 C511 1.386 1_554 S
C510 C512 1.391 1_554 S
C511 C510 1.386 1_556 S
C511 C515 1.393 . S
C512 H501 0.950 1_556 S
C512 C510 1.391 1_556 S
C512 C513 1.400 . S
C513 C507 1.491 . S
C513 C512 1.400 . S
C513 C514 1.398 . S
C514 H502 0.950 . S
C514 C513 1.398 . S
C514 C515 1.391 . S
C515 H503 0.950 . S
C515 C511 1.393 . S
C515 C514 1.391 . S
H516 C524 0.950 . S
H517 C529 0.950 . S
H518 C526 0.950 . S
H519 C528 0.950 . S
H520 C530 0.950 . S
H521 C532 0.950 . S
H522 C534 0.950 . S
H523 C535 0.950 . S
C524 H516 0.950 . S
C524 C525 1.386 . S
C524 C526 1.391 . S
C525 C524 1.386 . S
C525 C529 1.393 . S
C526 H518 0.950 . S
C526 C524 1.391 . S
C526 C527 1.400 . S
C527 C526 1.400 . S
C527 C528 1.398 . S
C527 C533 1.491 . S
C528 H519 0.950 . S
C528 C527 1.398 . S
C528 C529 1.391 . S
C529 H517 0.950 . S
C529 C525 1.393 . S
C529 C528 1.391 . S
C530 H520 0.950 . S
C530 C531 1.386 . S
C530 C532 1.391 . S
C531 C530 1.386 . S
C531 C535 1.393 . S
C532 H521 0.950 . S
C532 C530 1.391 . S
C532 C533 1.400 . S
C533 C527 1.491 . S
C533 C532 1.400 . S
C533 C534 1.398 . S
C534 H522 0.950 . S
C534 C533 1.398 . S
C534 C535 1.391 . S
C535 H523 0.950 . S
C535 C531 1.393 . S
C535 C534 1.391 . S
H536 C544 0.950 . S
H537 C549 0.950 . S
H538 C546 0.950 . S
H539 C548 0.950 . S
H540 C550 0.950 . S
H541 C552 0.950 . S
H542 C554 0.950 . S
H543 C555 0.950 . S
C544 H536 0.950 . S
C544 C545 1.386 . S
C544 C546 1.391 . S
C545 C544 1.386 . S
C545 C549 1.393 . S
C546 H538 0.950 . S
C546 C544 1.391 . S
C546 C547 1.400 . S
C547 C546 1.400 . S
C547 C548 1.398 . S
C547 C553 1.491 . S
C548 H539 0.950 . S
C548 C547 1.398 . S
C548 C549 1.391 . S
C549 H537 0.950 . S
C549 C545 1.393 . S
C549 C548 1.391 . S
C550 H540 0.950 . S
C550 C551 1.386 . S
C550 C552 1.391 . S
C551 C550 1.386 . S
C551 C555 1.393 . S
C552 H541 0.950 . S
C552 C550 1.391 . S
C552 C553 1.400 . S
C553 C547 1.491 . S
C553 C552 1.400 . S
C553 C554 1.398 . S
C554 H542 0.950 . S
C554 C553 1.398 . S
C554 C555 1.391 . S
C555 H543 0.950 . S
C555 C551 1.393 . S
C555 C554 1.391 . S
H556 C564 0.950 . S
H557 C569 0.950 . S
H558 C566 0.950 . S
H559 C568 0.950 . S
H560 C570 0.950 . S
H561 C572 0.950 1_556 S
H562 C574 0.950 . S
H563 C575 0.950 . S
C564 H556 0.950 . S
C564 C565 1.386 . S
C564 C566 1.391 . S
C565 C564 1.386 . S
C565 C569 1.393 . S
C566 H558 0.950 . S
C566 C564 1.391 . S
C566 C567 1.400 . S
C567 C566 1.400 . S
C567 C568 1.398 . S
C567 C573 1.491 . S
C568 H559 0.950 . S
C568 C567 1.398 . S
C568 C569 1.391 . S
C569 H557 0.950 . S
C569 C565 1.393 . S
C569 C568 1.391 . S
C570 H560 0.950 . S
C570 C571 1.386 . S
C570 C572 1.391 . S
C571 C570 1.386 . S
C571 C575 1.393 . S
C572 H561 0.950 1_554 S
C572 C570 1.391 . S
C572 C573 1.400 1_554 S
C573 C567 1.491 . S
C573 C572 1.400 1_556 S
C573 C574 1.398 1_556 S
C574 H562 0.950 . S
C574 C573 1.398 1_554 S
C574 C575 1.391 . S
C575 H563 0.950 . S
C575 C571 1.393 . S
C575 C574 1.391 . S
H576 C584 0.950 . S
H577 C589 0.950 . S
H578 C586 0.950 . S
H579 C588 0.950 . S
H580 C590 0.950 . S
H581 C592 0.950 . S
H582 C594 0.950 . S
H583 C595 0.950 . S
C584 H576 0.950 . S
C584 C585 1.386 . S
C584 C586 1.391 1_556 S
C585 C584 1.386 . S
C585 C589 1.393 . S
C586 H578 0.950 . S
C586 C584 1.391 1_554 S
C586 C587 1.400 . S
C587 C586 1.400 . S
C587 C588 1.398 . S
C587 C593 1.491 . S
C588 H579 0.950 . S
C588 C587 1.398 . S
C588 C589 1.391 1_554 S
C589 H577 0.950 . S
C589 C585 1.393 . S
C589 C588 1.391 1_556 S
C590 H580 0.950 . S
C590 C591 1.386 . S
C590 C592 1.391 . S
C591 C590 1.386 . S
C591 C595 1.393 . S
C592 H581 0.950 . S
C592 C590 1.391 . S
C592 C593 1.400 . S
C593 C587 1.491 . S
C593 C592 1.400 . S
C593 C594 1.398 . S
C594 H582 0.950 . S
C594 C593 1.398 . S
C594 C595 1.391 . S
C595 H583 0.950 . S
C595 C591 1.393 . S
C595 C594 1.391 . S
H596 C604 0.950 . S
H597 C609 0.950 . S
H598 C606 0.950 . S
H599 C608 0.950 . S
H600 C610 0.950 . S
H601 C612 0.950 . S
H602 C614 0.950 . S
H603 C615 0.950 . S
C604 H596 0.950 . S
C604 C605 1.386 . S
C604 C606 1.391 . S
C605 C604 1.386 . S
C605 C609 1.393 . S
C606 H598 0.950 . S
C606 C604 1.391 . S
C606 C607 1.400 . S
C607 C606 1.400 . S
C607 C608 1.398 . S
C607 C613 1.491 . S
C608 H599 0.950 . S
C608 C607 1.398 . S
C608 C609 1.391 . S
C609 H597 0.950 . S
C609 C605 1.393 . S
C609 C608 1.391 . S
C610 H600 0.950 . S
C610 C611 1.386 . S
C610 C612 1.391 . S
C611 C610 1.386 . S
C611 C615 1.393 . S
C612 H601 0.950 . S
C612 C610 1.391 . S
C612 C613 1.400 . S
C613 C607 1.491 . S
C613 C612 1.400 . S
C613 C614 1.398 . S
C614 H602 0.950 . S
C614 C613 1.398 . S
C614 C615 1.391 . S
C615 H603 0.950 . S
C615 C611 1.393 . S
C615 C614 1.391 . S
H616 C624 0.950 . S
H617 C629 0.950 . S
H618 C626 0.950 . S
H619 C628 0.950 . S
H620 C630 0.950 . S
H621 C632 0.950 . S
H622 C634 0.950 . S
H623 C635 0.950 . S
C624 H616 0.950 . S
C624 C625 1.386 . S
C624 C626 1.391 . S
C625 C624 1.386 . S
C625 C629 1.393 . S
C626 H618 0.950 . S
C626 C624 1.391 . S
C626 C627 1.400 . S
C627 C626 1.400 . S
C627 C628 1.398 . S
C627 C633 1.491 . S
C628 H619 0.950 . S
C628 C627 1.398 . S
C628 C629 1.391 . S
C629 H617 0.950 . S
C629 C625 1.393 . S
C629 C628 1.391 . S
C630 H620 0.950 . S
C630 C631 1.386 . S
C630 C632 1.391 . S
C631 C630 1.386 . S
C631 C635 1.393 . S
C632 H621 0.950 . S
C632 C630 1.391 . S
C632 C633 1.400 . S
C633 C627 1.491 . S
C633 C632 1.400 . S
C633 C634 1.398 . S
C634 H622 0.950 . S
C634 C633 1.398 . S
C634 C635 1.391 . S
C635 H623 0.950 . S
C635 C631 1.393 . S
C635 C634 1.391 . S
H636 C644 0.950 . S
H637 C649 0.950 . S
H638 C646 0.950 . S
H639 C648 0.950 . S
H640 C650 0.950 . S
H641 C652 0.950 . S
H642 C654 0.950 . S
H643 C655 0.950 . S
C644 H636 0.950 . S
C644 C645 1.386 . S
C644 C646 1.391 . S
C645 C644 1.386 . S
C645 C649 1.393 . S
C646 H638 0.950 . S
C646 C644 1.391 . S
C646 C647 1.400 . S
C647 C646 1.400 . S
C647 C648 1.398 . S
C647 C653 1.491 . S
C648 H639 0.950 . S
C648 C647 1.398 . S
C648 C649 1.391 . S
C649 H637 0.950 . S
C649 C645 1.393 . S
C649 C648 1.391 . S
C650 H640 0.950 . S
C650 C651 1.386 . S
C650 C652 1.391 . S
C651 C650 1.386 . S
C651 C655 1.393 . S
C652 H641 0.950 . S
C652 C650 1.391 . S
C652 C653 1.400 . S
C653 C647 1.491 . S
C653 C652 1.400 . S
C653 C654 1.398 . S
C654 H642 0.950 . S
C654 C653 1.398 . S
C654 C655 1.391 . S
C655 H643 0.950 . S
C655 C651 1.393 . S
C655 C654 1.391 . S
H656 C664 0.950 . S
H657 C669 0.950 . S
H658 C666 0.950 . S
H659 C668 0.950 . S
H660 C670 0.950 . S
H661 C672 0.950 . S
H662 C674 0.950 . S
H663 C675 0.950 . S
C664 H656 0.950 . S
C664 C665 1.386 . S
C664 C666 1.391 . S
C665 C664 1.386 . S
C665 C669 1.393 . S
C666 H658 0.950 . S
C666 C664 1.391 . S
C666 C667 1.400 . S
C667 C666 1.400 . S
C667 C668 1.398 . S
C667 C673 1.491 . S
C668 H659 0.950 . S
C668 C667 1.398 . S
C668 C669 1.391 . S
C669 H657 0.950 . S
C669 C665 1.393 . S
C669 C668 1.391 . S
C670 H660 0.950 . S
C670 C671 1.386 . S
C670 C672 1.391 . S
C671 C670 1.386 . S
C671 C675 1.393 . S
C672 H661 0.950 . S
C672 C670 1.391 . S
C672 C673 1.400 . S
C673 C667 1.491 . S
C673 C672 1.400 . S
C673 C674 1.398 . S
C674 H662 0.950 . S
C674 C673 1.398 . S
C674 C675 1.391 . S
C675 H663 0.950 . S
C675 C671 1.393 . S
C675 C674 1.391 . S
H676 C684 0.950 . S
H677 C689 0.950 . S
H678 C686 0.950 . S
H679 C688 0.950 . S
H680 C690 0.950 . S
H681 C692 0.950 . S
H682 C694 0.950 . S
H683 C695 0.950 . S
C684 H676 0.950 . S
C684 C685 1.386 . S
C684 C686 1.391 . S
C685 C684 1.386 . S
C685 C689 1.393 . S
C686 H678 0.950 . S
C686 C684 1.391 . S
C686 C687 1.400 . S
C687 C686 1.400 . S
C687 C688 1.398 . S
C687 C693 1.491 . S
C688 H679 0.950 . S
C688 C687 1.398 . S
C688 C689 1.391 . S
C689 H677 0.950 . S
C689 C685 1.393 . S
C689 C688 1.391 . S
C690 H680 0.950 . S
C690 C691 1.386 . S
C690 C692 1.391 . S
C691 C690 1.386 . S
C691 C695 1.393 . S
C692 H681 0.950 . S
C692 C690 1.391 . S
C692 C693 1.400 . S
C693 C687 1.491 . S
C693 C692 1.400 . S
C693 C694 1.398 . S
C694 H682 0.950 . S
C694 C693 1.398 . S
C694 C695 1.391 . S
C695 H683 0.950 . S
C695 C691 1.393 . S
C695 C694 1.391 . S
H696 C704 0.950 . S
H697 C709 0.950 . S
H698 C706 0.950 . S
H699 C708 0.950 . S
H700 C710 0.950 . S
H701 C712 0.950 . S
H702 C714 0.950 . S
H703 C715 0.950 . S
C704 H696 0.950 . S
C704 C705 1.386 . S
C704 C706 1.391 . S
C705 C704 1.386 . S
C705 C709 1.393 . S
C706 H698 0.950 . S
C706 C704 1.391 . S
C706 C707 1.400 . S
C707 C706 1.400 . S
C707 C708 1.398 . S
C707 C713 1.491 . S
C708 H699 0.950 . S
C708 C707 1.398 . S
C708 C709 1.391 . S
C709 H697 0.950 . S
C709 C705 1.393 . S
C709 C708 1.391 . S
C710 H700 0.950 . S
C710 C711 1.386 . S
C710 C712 1.391 . S
C711 C710 1.386 . S
C711 C715 1.393 . S
C712 H701 0.950 . S
C712 C710 1.391 . S
C712 C713 1.400 . S
C713 C707 1.491 . S
C713 C712 1.400 . S
C713 C714 1.398 . S
C714 H702 0.950 . S
C714 C713 1.398 . S
C714 C715 1.391 . S
C715 H703 0.950 . S
C715 C711 1.393 . S
C715 C714 1.391 . S
H716 C724 0.950 . S
H717 C729 0.950 . S
H718 C726 0.950 . S
H719 C728 0.950 . S
H720 C730 0.950 . S
H721 C732 0.950 . S
H722 C734 0.950 . S
H723 C735 0.950 . S
C724 H716 0.950 . S
C724 C725 1.386 . S
C724 C726 1.391 . S
C725 C724 1.386 . S
C725 C729 1.393 . S
C726 H718 0.950 . S
C726 C724 1.391 . S
C726 C727 1.400 . S
C727 C726 1.400 . S
C727 C728 1.398 . S
C727 C733 1.491 . S
C728 H719 0.950 . S
C728 C727 1.398 . S
C728 C729 1.391 . S
C729 H717 0.950 . S
C729 C725 1.393 . S
C729 C728 1.391 . S
C730 H720 0.950 . S
C730 C731 1.386 . S
C730 C732 1.391 1_554 S
C731 C730 1.386 . S
C731 C735 1.393 . S
C732 H721 0.950 . S
C732 C730 1.391 1_556 S
C732 C733 1.400 . S
C733 C727 1.491 . S
C733 C732 1.400 . S
C733 C734 1.398 . S
C734 H722 0.950 . S
C734 C733 1.398 . S
C734 C735 1.391 1_556 S
C735 H723 0.950 . S
C735 C731 1.393 . S
C735 C734 1.391 1_554 S
H736 C744 0.950 . S
H737 C749 0.950 . S
H738 C746 0.950 . S
H739 C748 0.950 . S
H740 C750 0.950 . S
H741 C752 0.950 1_554 S
H742 C754 0.950 . S
H743 C755 0.950 . S
C744 H736 0.950 . S
C744 C745 1.386 . S
C744 C746 1.391 . S
C745 C744 1.386 . S
C745 C749 1.393 . S
C746 H738 0.950 . S
C746 C744 1.391 . S
C746 C747 1.400 . S
C747 C746 1.400 . S
C747 C748 1.398 . S
C747 C753 1.491 . S
C748 H739 0.950 . S
C748 C747 1.398 . S
C748 C749 1.391 . S
C749 H737 0.950 . S
C749 C745 1.393 . S
C749 C748 1.391 . S
C750 H740 0.950 . S
C750 C751 1.386 . S
C750 C752 1.391 . S
C751 C750 1.386 . S
C751 C755 1.393 . S
C752 H741 0.950 1_556 S
C752 C750 1.391 . S
C752 C753 1.400 1_556 S
C753 C747 1.491 . S
C753 C752 1.400 1_554 S
C753 C754 1.398 1_554 S
C754 H742 0.950 . S
C754 C753 1.398 1_556 S
C754 C755 1.391 . S
C755 H743 0.950 . S
C755 C751 1.393 . S
C755 C754 1.391 . S
H756 C764 0.950 . S
H757 C769 0.950 . S
H758 C766 0.950 . S
H759 C768 0.950 . S
H760 C770 0.950 . S
H761 C772 0.950 . S
H762 C774 0.950 . S
H763 C775 0.950 . S
C764 H756 0.950 . S
C764 C765 1.386 . S
C764 C766 1.391 . S
C765 C764 1.386 . S
C765 C769 1.393 . S
C766 H758 0.950 . S
C766 C764 1.391 . S
C766 C767 1.400 . S
C767 C766 1.400 . S
C767 C768 1.398 . S
C767 C773 1.491 . S
C768 H759 0.950 . S
C768 C767 1.398 . S
C768 C769 1.391 . S
C769 H757 0.950 . S
C769 C765 1.393 . S
C769 C768 1.391 . S
C770 H760 0.950 . S
C770 C771 1.386 . S
C770 C772 1.391 . S
C771 C770 1.386 . S
C771 C775 1.393 . S
C772 H761 0.950 . S
C772 C770 1.391 . S
C772 C773 1.400 . S
C773 C767 1.491 . S
C773 C772 1.400 . S
C773 C774 1.398 . S
C774 H762 0.950 . S
C774 C773 1.398 . S
C774 C775 1.391 . S
C775 H763 0.950 . S
C775 C771 1.393 . S
C775 C774 1.391 . S
H776 C784 0.950 . S
H777 C789 0.950 . S
H778 C786 0.950 . S
H779 C788 0.950 . S
H780 C790 0.950 . S
H781 C792 0.950 . S
H782 C794 0.950 . S
H783 C795 0.950 . S
C784 H776 0.950 . S
C784 C785 1.386 . S
C784 C786 1.391 . S
C785 C784 1.386 . S
C785 C789 1.393 . S
C786 H778 0.950 . S
C786 C784 1.391 . S
C786 C787 1.400 . S
C787 C786 1.400 . S
C787 C788 1.398 . S
C787 C793 1.491 . S
C788 H779 0.950 . S
C788 C787 1.398 . S
C788 C789 1.391 . S
C789 H777 0.950 . S
C789 C785 1.393 . S
C789 C788 1.391 . S
C790 H780 0.950 . S
C790 C791 1.386 . S
C790 C792 1.391 . S
C791 C790 1.386 . S
C791 C795 1.393 . S
C792 H781 0.950 . S
C792 C790 1.391 . S
C792 C793 1.400 . S
C793 C787 1.491 . S
C793 C792 1.400 . S
C793 C794 1.398 . S
C794 H782 0.950 . S
C794 C793 1.398 . S
C794 C795 1.391 . S
C795 H783 0.950 . S
C795 C791 1.393 . S
C795 C794 1.391 . S
H796 C804 0.950 . S
H797 C809 0.950 . S
H798 C806 0.950 . S
H799 C808 0.950 . S
H800 C810 0.950 . S
H801 C812 0.950 . S
H802 C814 0.950 . S
H803 C815 0.950 . S
C804 H796 0.950 . S
C804 C805 1.386 . S
C804 C806 1.391 . S
C805 C804 1.386 . S
C805 C809 1.393 . S
C806 H798 0.950 . S
C806 C804 1.391 . S
C806 C807 1.400 . S
C807 C806 1.400 . S
C807 C808 1.398 . S
C807 C813 1.491 . S
C808 H799 0.950 . S
C808 C807 1.398 . S
C808 C809 1.391 . S
C809 H797 0.950 . S
C809 C805 1.393 . S
C809 C808 1.391 . S
C810 H800 0.950 . S
C810 C811 1.386 . S
C810 C812 1.391 . S
C811 C810 1.386 . S
C811 C815 1.393 . S
C812 H801 0.950 . S
C812 C810 1.391 . S
C812 C813 1.400 . S
C813 C807 1.491 . S
C813 C812 1.400 . S
C813 C814 1.398 . S
C814 H802 0.950 . S
C814 C813 1.398 . S
C814 C815 1.391 . S
C815 H803 0.950 . S
C815 C811 1.393 . S
C815 C814 1.391 . S
H816 C824 0.950 . S
H817 C829 0.950 . S
H818 C826 0.950 . S
H819 C828 0.950 . S
H820 C830 0.950 . S
H821 C832 0.950 . S
H822 C834 0.950 . S
H823 C835 0.950 . S
C824 H816 0.950 . S
C824 C825 1.386 . S
C824 C826 1.391 . S
C825 C824 1.386 . S
C825 C829 1.393 . S
C826 H818 0.950 . S
C826 C824 1.391 . S
C826 C827 1.400 . S
C827 C826 1.400 . S
C827 C828 1.398 . S
C827 C833 1.491 . S
C828 H819 0.950 . S
C828 C827 1.398 . S
C828 C829 1.391 . S
C829 H817 0.950 . S
C829 C825 1.393 . S
C829 C828 1.391 . S
C830 H820 0.950 . S
C830 C831 1.386 . S
C830 C832 1.391 . S
C831 C830 1.386 . S
C831 C835 1.393 . S
C832 H821 0.950 . S
C832 C830 1.391 . S
C832 C833 1.400 . S
C833 C827 1.491 . S
C833 C832 1.400 . S
C833 C834 1.398 . S
C834 H822 0.950 . S
C834 C833 1.398 . S
C834 C835 1.391 . S
C835 H823 0.950 . S
C835 C831 1.393 . S
C835 C834 1.391 . S
H836 C844 0.950 . S
H837 C849 0.950 . S
H838 C846 0.947 1_554 S
H839 C848 0.950 . S
H840 C850 0.950 . S
H841 C852 0.950 . S
H842 C854 0.950 . S
H843 C855 0.950 . S
C844 H836 0.950 . S
C844 C845 1.386 1_554 S
C844 C846 1.389 1_554 S
C845 C844 1.386 1_556 S
C845 C849 1.393 . S
C846 H838 0.947 1_556 S
C846 C844 1.389 1_556 S
C846 C847 1.405 . S
C847 C846 1.405 . S
C847 C848 1.398 . S
C847 C853 1.491 . S
C848 H839 0.950 . S
C848 C847 1.398 . S
C848 C849 1.391 . S
C849 H837 0.950 . S
C849 C845 1.393 . S
C849 C848 1.391 . S
C850 H840 0.950 . S
C850 C851 1.386 . S
C850 C852 1.391 . S
C851 C850 1.386 . S
C851 C855 1.393 . S
C852 H841 0.950 . S
C852 C850 1.391 . S
C852 C853 1.400 . S
C853 C847 1.491 . S
C853 C852 1.400 . S
C853 C854 1.398 . S
C854 H842 0.950 . S
C854 C853 1.398 . S
C854 C855 1.391 . S
C855 H843 0.950 . S
C855 C851 1.393 . S
C855 C854 1.391 . S
H856 C864 0.950 . S
H857 C869 0.950 . S
H858 C866 0.950 . S
H859 C868 0.950 . S
H860 C870 0.950 1_556 S
H861 C872 0.950 . S
H862 C874 0.950 . S
H863 C875 0.950 . S
C864 H856 0.950 . S
C864 C865 1.386 . S
C864 C866 1.391 . S
C865 C864 1.386 . S
C865 C869 1.393 . S
C866 H858 0.950 . S
C866 C864 1.391 . S
C866 C867 1.400 . S
C867 C866 1.400 . S
C867 C868 1.398 . S
C867 C873 1.491 . S
C868 H859 0.950 . S
C868 C867 1.398 . S
C868 C869 1.391 . S
C869 H857 0.950 . S
C869 C865 1.393 . S
C869 C868 1.391 . S
C870 H860 0.950 1_554 S
C870 C871 1.386 . S
C870 C872 1.391 . S
C871 C870 1.386 . S
C871 C875 1.393 . S
C872 H861 0.950 . S
C872 C870 1.391 . S
C872 C873 1.400 . S
C873 C867 1.491 . S
C873 C872 1.400 . S
C873 C874 1.398 . S
C874 H862 0.950 . S
C874 C873 1.398 . S
C874 C875 1.391 . S
C875 H863 0.950 . S
C875 C871 1.393 . S
C875 C874 1.391 . S
H876 C884 0.950 . S
H877 C889 0.950 . S
H878 C886 0.950 . S
H879 C888 0.950 . S
H880 C890 0.951 . S
H881 C892 0.950 . S
H882 C894 0.950 . S
H883 C895 0.950 . S
C884 H876 0.950 . S
C884 C885 1.385 1_556 S
C884 C886 1.392 . S
C885 C884 1.385 1_554 S
C885 C889 1.393 . S
C886 H878 0.950 . S
C886 C884 1.392 . S
C886 C887 1.400 1_556 S
C887 C886 1.400 1_554 S
C887 C888 1.398 . S
C887 C893 1.491 1_544 S
C888 H879 0.950 . S
C888 C887 1.398 . S
C888 C889 1.391 . S
C889 H877 0.950 . S
C889 C885 1.393 . S
C889 C888 1.391 . S
C890 H880 0.951 . S
C890 C891 1.384 1_554 S
C890 C892 1.392 . S
C891 C890 1.384 1_556 S
C891 C895 1.393 . S
C892 H881 0.950 . S
C892 C890 1.392 . S
C892 C893 1.400 1_554 S
C893 C887 1.491 1_566 S
C893 C892 1.400 1_556 S
C893 C894 1.398 . S
C894 H882 0.950 . S
C894 C893 1.398 . S
C894 C895 1.391 . S
C895 H883 0.950 . S
C895 C891 1.393 . S
C895 C894 1.391 . S
H896 C904 0.950 . S
H897 C909 0.950 . S
H898 C906 0.950 . S
H899 C908 0.950 . S
H900 C910 0.950 . S
H901 C912 0.950 . S
H902 C914 0.950 . S
H903 C915 0.950 . S
C904 H896 0.950 . S
C904 C905 1.386 . S
C904 C906 1.391 . S
C905 C904 1.386 . S
C905 C909 1.393 . S
C906 H898 0.950 . S
C906 C904 1.391 . S
C906 C907 1.400 . S
C907 C906 1.400 . S
C907 C908 1.398 . S
C907 C913 1.491 . S
C908 H899 0.950 . S
C908 C907 1.398 . S
C908 C909 1.391 . S
C909 H897 0.950 . S
C909 C905 1.393 . S
C909 C908 1.391 . S
C910 H900 0.950 . S
C910 C911 1.386 . S
C910 C912 1.391 . S
C911 C910 1.386 . S
C911 C915 1.393 . S
C912 H901 0.950 . S
C912 C910 1.391 . S
C912 C913 1.400 . S
C913 C907 1.491 . S
C913 C912 1.400 . S
C913 C914 1.398 . S
C914 H902 0.950 . S
C914 C913 1.398 . S
C914 C915 1.391 . S
C915 H903 0.950 . S
C915 C911 1.393 . S
C915 C914 1.391 . S
H916 C924 0.950 . S
H917 C929 0.950 . S
H918 C926 0.950 . S
H919 C928 0.950 . S
H920 C930 0.950 . S
H921 C932 0.950 . S
H922 C934 0.950 . S
H923 C935 0.950 . S
C924 H916 0.950 . S
C924 C925 1.386 . S
C924 C926 1.391 . S
C925 C924 1.386 . S
C925 C929 1.393 . S
C926 H918 0.950 . S
C926 C924 1.391 . S
C926 C927 1.400 . S
C927 C926 1.400 . S
C927 C928 1.398 . S
C927 C933 1.491 1_455 S
C928 H919 0.950 . S
C928 C927 1.398 . S
C928 C929 1.391 . S
C929 H917 0.950 . S
C929 C925 1.393 . S
C929 C928 1.391 . S
C930 H920 0.950 . S
C930 C931 1.386 . S
C930 C932 1.391 . S
C931 C930 1.386 . S
C931 C935 1.393 . S
C932 H921 0.950 . S
C932 C930 1.391 . S
C932 C933 1.400 . S
C933 C927 1.491 1_655 S
C933 C932 1.400 . S
C933 C934 1.398 . S
C934 H922 0.950 . S
C934 C933 1.398 . S
C934 C935 1.391 . S
C935 H923 0.950 . S
C935 C931 1.393 . S
C935 C934 1.391 . S
H936 C944 0.950 . S
H937 C949 0.950 . S
H938 C946 0.950 . S
H939 C948 0.950 . S
H940 C950 0.950 . S
H941 C952 0.950 . S
H942 C954 0.950 . S
H943 C955 0.950 . S
C944 H936 0.950 . S
C944 C945 1.386 . S
C944 C946 1.391 . S
C945 C944 1.386 . S
C945 C949 1.393 . S
C946 H938 0.950 . S
C946 C944 1.391 . S
C946 C947 1.400 . S
C947 C946 1.400 . S
C947 C948 1.398 . S
C947 C953 1.491 1_565 S
C948 H939 0.950 . S
C948 C947 1.398 . S
C948 C949 1.391 . S
C949 H937 0.950 . S
C949 C945 1.393 . S
C949 C948 1.391 . S
C950 H940 0.950 . S
C950 C951 1.386 . S
C950 C952 1.391 . S
C951 C950 1.386 . S
C951 C955 1.393 . S
C952 H941 0.950 . S
C952 C950 1.391 . S
C952 C953 1.400 . S
C953 C947 1.491 1_545 S
C953 C952 1.400 . S
C953 C954 1.398 . S
C954 H942 0.950 . S
C954 C953 1.398 . S
C954 C955 1.391 . S
C955 H943 0.950 . S
C955 C951 1.393 . S
C955 C954 1.391 . S
H956 C964 0.950 . S
H957 C969 0.950 . S
H958 C966 0.950 . S
H959 C968 0.950 . S
H960 C970 0.950 . S
H961 C972 0.950 . S
H962 C974 0.950 . S
H963 C975 0.950 . S
C964 H956 0.950 . S
C964 C965 1.386 . S
C964 C966 1.391 . S
C965 C964 1.386 . S
C965 C969 1.393 . S
C966 H958 0.950 . S
C966 C964 1.391 . S
C966 C967 1.400 . S
C967 C966 1.400 . S
C967 C968 1.398 . S
C967 C973 1.491 . S
C968 H959 0.950 . S
C968 C967 1.398 . S
C968 C969 1.391 . S
C969 H957 0.950 . S
C969 C965 1.393 . S
C969 C968 1.391 . S
C970 H960 0.950 . S
C970 C971 1.386 . S
C970 C972 1.391 . S
C971 C970 1.386 . S
C971 C975 1.393 . S
C972 H961 0.950 . S
C972 C970 1.391 . S
C972 C973 1.400 . S
C973 C967 1.491 . S
C973 C972 1.400 . S
C973 C974 1.398 . S
C974 H962 0.950 . S
C974 C973 1.398 . S
C974 C975 1.391 . S
C975 H963 0.950 . S
C975 C971 1.393 . S
C975 C974 1.391 . S
H976 C984 0.950 . S
H977 C989 0.950 . S
H978 C986 0.950 . S
H979 C988 0.950 . S
H980 C990 0.950 . S
H981 C992 0.950 . S
H982 C994 0.950 . S
H983 C995 0.950 . S
C984 H976 0.950 . S
C984 C985 1.386 . S
C984 C986 1.391 . S
C985 C984 1.386 . S
C985 C989 1.393 . S
C986 H978 0.950 . S
C986 C984 1.391 . S
C986 C987 1.400 . S
C987 C986 1.400 . S
C987 C988 1.398 . S
C987 C993 1.491 1_455 S
C988 H979 0.950 . S
C988 C987 1.398 . S
C988 C989 1.391 . S
C989 H977 0.950 . S
C989 C985 1.393 . S
C989 C988 1.391 . S
C990 H980 0.950 . S
C990 C991 1.386 . S
C990 C992 1.391 . S
C991 C990 1.386 . S
C991 C995 1.393 . S
C992 H981 0.950 . S
C992 C990 1.391 . S
C992 C993 1.400 . S
C993 C987 1.491 1_655 S
C993 C992 1.400 . S
C993 C994 1.398 . S
C994 H982 0.950 . S
C994 C993 1.398 . S
C994 C995 1.391 . S
C995 H983 0.950 . S
C995 C991 1.393 . S
C995 C994 1.391 . S
C405 C271 1.192 . S
C411 C7 1.182 . S
C425 C304 1.191 . S
C431 C40 1.184 . S
C445 C337 1.181 . S
C451 C73 1.191 . S
C465 C370 1.183 . S
C471 C106 1.192 . S
C485 C139 1.179 . S
C491 C205 1.190 . S
C505 C238 1.181 . S
C511 C172 1.192 . S
C525 N13 1.302 . S
C531 N2 1.300 . S
C545 N35 1.325 . S
C551 N46 1.327 1_556 S
C565 N68 1.300 . S
C571 N79 1.303 . S
C585 N101 1.322 . S
C591 N112 1.324 . S
C605 N134 1.327 . S
C611 N145 1.328 . S
C625 N167 1.326 . S
C631 N178 1.328 . S
C645 N211 1.306 1_554 S
C651 N200 1.304 . S
C665 N233 1.323 . S
C671 N244 1.325 . S
C685 N277 1.316 . S
C691 N266 1.314 . S
C705 N310 1.316 . S
C711 N299 1.314 . S
C725 N343 1.322 . S
C731 N332 1.320 . S
C745 N365 1.305 . S
C751 N376 1.307 . S
C765 C21 1.579 . S
C771 C351 1.582 . S
C785 C54 1.578 . S
C791 C384 1.582 . S
C805 C87 1.573 . S
C811 C219 1.581 . S
C825 C252 1.571 . S
C831 C120 1.573 . S
C845 C285 1.577 1_556 S
C851 C153 1.570 . S
C865 C318 1.572 . S
C871 C186 1.571 1_554 S
C885 C18 1.345 . S
C891 C249 1.359 . S
C905 C282 1.359 . S
C911 C51 1.340 . S
C925 C315 1.349 . S
C931 C84 1.357 . S
C945 C117 1.341 . S
C951 C348 1.354 . S
C965 C381 1.355 . S
C971 C150 1.352 . S
C985 C183 1.342 . S
C991 C216 1.352 . S
