# Generated by pormake.
# Topology umr, (4)-cn, num edge types: 1
# Building blocks:
#     Node 0, Type 0, BuildingBlock: QUQFOY_clean_sbu_3, # of connection points: 4
#     Node 1, Type 0, BuildingBlock: QUQFOY_clean_sbu_3, # of connection points: 4
#     Node 2, Type 0, BuildingBlock: QUQFOY_clean_sbu_3, # of connection points: 4
#     Node 3, Type 0, BuildingBlock: QUQFOY_clean_sbu_3, # of connection points: 4
#     Node 4, Type 0, BuildingBlock: QUQFOY_clean_sbu_3, # of connection points: 4
#     Node 5, Type 0, BuildingBlock: QUQFOY_clean_sbu_3, # of connection points: 4
#     Node 6, Type 0, BuildingBlock: QUQFOY_clean_sbu_3, # of connection points: 4
#     Node 7, Type 0, BuildingBlock: QUQFOY_clean_sbu_3, # of connection points: 4
#     Node 8, Type 0, BuildingBlock: QUQFOY_clean_sbu_3, # of connection points: 4
#     Node 9, Type 0, BuildingBlock: QUQFOY_clean_sbu_3, # of connection points: 4
#     Node 10, Type 0, BuildingBlock: QUQFOY_clean_sbu_3, # of connection points: 4
#     Node 11, Type 0, BuildingBlock: QUQFOY_clean_sbu_3, # of connection points: 4
#     Node 12, Type 0, BuildingBlock: QUQFOY_clean_sbu_3, # of connection points: 4
#     Node 13, Type 0, BuildingBlock: QUQFOY_clean_sbu_3, # of connection points: 4
#     Node 14, Type 0, BuildingBlock: QUQFOY_clean_sbu_3, # of connection points: 4
#     Node 15, Type 0, BuildingBlock: QUQFOY_clean_sbu_3, # of connection points: 4
#     Node 16, Type 0, BuildingBlock: QUQFOY_clean_sbu_3, # of connection points: 4
#     Node 17, Type 0, BuildingBlock: QUQFOY_clean_sbu_3, # of connection points: 4
#     Node 18, Type 0, BuildingBlock: QUQFOY_clean_sbu_3, # of connection points: 4
#     Node 19, Type 0, BuildingBlock: QUQFOY_clean_sbu_3, # of connection points: 4
#     Node 20, Type 0, BuildingBlock: QUQFOY_clean_sbu_3, # of connection points: 4
#     Node 21, Type 0, BuildingBlock: QUQFOY_clean_sbu_3, # of connection points: 4
#     Node 22, Type 0, BuildingBlock: QUQFOY_clean_sbu_3, # of connection points: 4
#     Node 23, Type 0, BuildingBlock: QUQFOY_clean_sbu_3, # of connection points: 4
#     Node 24, Type 0, BuildingBlock: QUQFOY_clean_sbu_3, # of connection points: 4
#     Node 25, Type 0, BuildingBlock: QUQFOY_clean_sbu_3, # of connection points: 4
#     Node 26, Type 0, BuildingBlock: QUQFOY_clean_sbu_3, # of connection points: 4
#     Node 27, Type 0, BuildingBlock: QUQFOY_clean_sbu_3, # of connection points: 4
#     Node 28, Type 0, BuildingBlock: QUQFOY_clean_sbu_3, # of connection points: 4
#     Node 29, Type 0, BuildingBlock: QUQFOY_clean_sbu_3, # of connection points: 4
#     Node 30, Type 0, BuildingBlock: QUQFOY_clean_sbu_3, # of connection points: 4
#     Node 31, Type 0, BuildingBlock: QUQFOY_clean_sbu_3, # of connection points: 4
#     Edge 32, Type (0, 0), None
#     Edge 33, Type (0, 0), None
#     Edge 34, Type (0, 0), None
#     Edge 35, Type (0, 0), None
#     Edge 36, Type (0, 0), None
#     Edge 37, Type (0, 0), None
#     Edge 38, Type (0, 0), None
#     Edge 39, Type (0, 0), None
#     Edge 40, Type (0, 0), None
#     Edge 41, Type (0, 0), None
#     Edge 42, Type (0, 0), None
#     Edge 43, Type (0, 0), None
#     Edge 44, Type (0, 0), None
#     Edge 45, Type (0, 0), None
#     Edge 46, Type (0, 0), None
#     Edge 47, Type (0, 0), None
#     Edge 48, Type (0, 0), None
#     Edge 49, Type (0, 0), None
#     Edge 50, Type (0, 0), None
#     Edge 51, Type (0, 0), None
#     Edge 52, Type (0, 0), None
#     Edge 53, Type (0, 0), None
#     Edge 54, Type (0, 0), None
#     Edge 55, Type (0, 0), None
#     Edge 56, Type (0, 0), None
#     Edge 57, Type (0, 0), None
#     Edge 58, Type (0, 0), None
#     Edge 59, Type (0, 0), None
#     Edge 60, Type (0, 0), None
#     Edge 61, Type (0, 0), None
#     Edge 62, Type (0, 0), None
#     Edge 63, Type (0, 0), None
#     Edge 64, Type (0, 0), None
#     Edge 65, Type (0, 0), None
#     Edge 66, Type (0, 0), None
#     Edge 67, Type (0, 0), None
#     Edge 68, Type (0, 0), None
#     Edge 69, Type (0, 0), None
#     Edge 70, Type (0, 0), None
#     Edge 71, Type (0, 0), None
#     Edge 72, Type (0, 0), None
#     Edge 73, Type (0, 0), None
#     Edge 74, Type (0, 0), None
#     Edge 75, Type (0, 0), None
#     Edge 76, Type (0, 0), None
#     Edge 77, Type (0, 0), None
#     Edge 78, Type (0, 0), None
#     Edge 79, Type (0, 0), None
#     Edge 80, Type (0, 0), None
#     Edge 81, Type (0, 0), None
#     Edge 82, Type (0, 0), None
#     Edge 83, Type (0, 0), None
#     Edge 84, Type (0, 0), None
#     Edge 85, Type (0, 0), None
#     Edge 86, Type (0, 0), None
#     Edge 87, Type (0, 0), None
#     Edge 88, Type (0, 0), None
#     Edge 89, Type (0, 0), None
#     Edge 90, Type (0, 0), None
#     Edge 91, Type (0, 0), None
#     Edge 92, Type (0, 0), None
#     Edge 93, Type (0, 0), None
#     Edge 94, Type (0, 0), None
#     Edge 95, Type (0, 0), None
# Relax obj value: 0.082
# Max RMSD: 0.107
# Mean RMSD: 0.107
data_MOF--net-umr--node1-QUQFOY_clean_sbu_3--edge1-none
_symmetry_space_group_name_H-M    P1
_symmetry_Int_Tables_number       1
_symmetry_cell_setting            triclinic
loop_
_symmetry_equiv_pos_as_xyz
'x, y, z'
_cell_length_a     42.818551
_cell_length_b     42.818646
_cell_length_c     11.999682
_cell_angle_alpha  90.018229
_cell_angle_beta   90.012396
_cell_angle_gamma 90.00124
loop_
_atom_site_label
_atom_site_type_symbol
_atom_site_fract_x
_atom_site_fract_y
_atom_site_fract_z
_atom_type_partial_charge
C0 C 0.12831 0.1889 0.97934 0.0
O1 O 0.13811 0.17095 0.05594 0.0
Cd2 Cd 0.15961 0.19549 0.21359 0.0
O3 O 0.12428 0.21813 -0.00409 0.0
Cd4 Cd 0.12762 0.26055 0.13858 0.0
C5 C 0.19797 0.24905 0.03548 0.0
O6 O 0.11761 0.22525 0.28812 0.0
O7 O 0.14038 0.26795 0.33701 0.0
O8 O 0.07415 0.27815 0.11175 0.0
C9 C 0.12631 0.2431 0.36578 0.0
O10 O 0.19472 0.22376 0.08987 0.0
C11 C 0.08108 0.30695 0.11777 0.0
O12 O 0.17758 0.27056 0.04161 0.0
O13 O 0.10979 0.31411 0.12466 0.0
C14 C -0.01871 0.87831 0.22933 0.0
O15 O -0.00078 0.88811 0.30596 0.0
Cd16 Cd -0.02531 0.90961 0.46355 0.0
O17 O 0.95204 0.87427 0.24584 0.0
Cd18 Cd 0.90963 0.87761 0.38843 0.0
C19 C 0.92112 0.94796 0.28532 0.0
O20 O 0.94494 0.86761 0.53804 0.0
O21 O 0.90224 0.89039 0.58684 0.0
O22 O 0.89203 0.82413 0.36165 0.0
C23 C 0.92707 0.87633 0.61568 0.0
O24 O 0.94641 0.94471 0.33977 0.0
C25 C 0.86323 0.83107 0.36765 0.0
O26 O 0.89961 0.92756 0.29142 0.0
O27 O 0.85607 0.85977 0.37449 0.0
C28 C 0.29192 0.73128 0.47932 0.0
O29 O 0.28213 0.74923 0.55594 0.0
Cd30 Cd 0.26062 0.72471 0.71351 0.0
O31 O 0.29594 0.70204 0.49582 0.0
Cd32 Cd 0.29258 0.65963 0.6384 0.0
C33 C 0.22223 0.67116 0.53526 0.0
O34 O 0.3026 0.69493 0.78805 0.0
O35 O 0.27981 0.65224 0.83678 0.0
O36 O 0.34606 0.64202 0.61167 0.0
C37 C 0.29388 0.67706 0.86566 0.0
O38 O 0.22549 0.69644 0.5897 0.0
C39 C 0.33912 0.61322 0.6176 0.0
O40 O 0.24262 0.64964 0.54136 0.0
O41 O 0.31041 0.60606 0.62438 0.0
C42 C 0.4389 0.0419 0.72932 0.0
O43 O 0.42095 0.03211 0.80592 0.0
Cd44 Cd 0.44547 0.01061 0.96355 0.0
O45 O 0.46813 0.04593 0.7459 0.0
Cd46 Cd 0.51054 0.04259 0.88853 0.0
C47 C 0.49903 -0.02777 0.78541 0.0
O48 O 0.47525 0.0526 0.03811 0.0
O49 O 0.51795 0.02984 0.08694 0.0
O50 O 0.52815 0.09606 0.86174 0.0
C51 C 0.49311 0.0439 0.11575 0.0
O52 O 0.47374 -0.02452 0.83981 0.0
C53 C 0.55695 0.08912 0.8677 0.0
O54 O 0.52055 -0.00738 0.79155 0.0
O55 O 0.56411 0.06042 0.87455 0.0
C56 C 0.12829 0.73128 0.50494 0.0
O57 O 0.13809 0.74924 0.42834 0.0
Cd58 Cd 0.15957 0.72472 0.27066 0.0
O59 O 0.12426 0.70206 0.48836 0.0
Cd60 Cd 0.1276 0.65964 0.34571 0.0
C61 C 0.19797 0.67116 0.44871 0.0
O62 O 0.11758 0.69494 0.19614 0.0
O63 O 0.14033 0.65223 0.14728 0.0
O64 O 0.07412 0.64203 0.37253 0.0
C65 C 0.12627 0.67708 0.11849 0.0
O66 O 0.19472 0.69644 0.39432 0.0
C67 C 0.08106 0.61323 0.36656 0.0
O68 O 0.17757 0.64964 0.44263 0.0
O69 O 0.10977 0.60607 0.35969 0.0
C70 C 0.43891 0.87827 0.75492 0.0
O71 O 0.42096 0.88806 0.6783 0.0
Cd72 Cd 0.44548 0.90956 0.52068 0.0
O73 O 0.46814 0.87425 0.7384 0.0
Cd74 Cd 0.51055 0.87759 0.59582 0.0
C75 C 0.49903 0.94796 0.69886 0.0
O76 O 0.47526 0.86757 0.44618 0.0
O77 O 0.51796 0.89035 0.39743 0.0
O78 O 0.52817 0.82412 0.62258 0.0
C79 C 0.49313 0.87629 0.36856 0.0
O80 O 0.47374 0.9447 0.64442 0.0
C81 C 0.55697 0.83106 0.61665 0.0
O82 O 0.52055 0.92756 0.69282 0.0
O83 O 0.56412 0.85977 0.60984 0.0
C84 C 0.29188 0.18889 0.00495 0.0
O85 O 0.28208 0.17096 0.92833 0.0
Cd86 Cd 0.26058 0.19548 0.77071 0.0
O87 O 0.29592 0.21814 0.98846 0.0
Cd88 Cd 0.29258 0.26055 0.84587 0.0
C89 C 0.22222 0.24905 0.94891 0.0
O90 O 0.30258 0.22524 0.69625 0.0
O91 O 0.2798 0.26794 0.64747 0.0
O92 O 0.34606 0.27816 0.87264 0.0
C93 C 0.29386 0.24311 0.61862 0.0
O94 O 0.22546 0.22376 0.89446 0.0
C95 C 0.33912 0.30696 0.86667 0.0
O96 O 0.24263 0.27056 0.94288 0.0
O97 O 0.31041 0.31411 0.85986 0.0
C98 C -0.01873 0.04186 0.25498 0.0
O99 O -0.00078 0.03206 0.17837 0.0
Cd100 Cd -0.02532 0.01057 0.02069 0.0
O101 O 0.95204 0.0459 0.23842 0.0
Cd102 Cd 0.90962 0.04256 0.09577 0.0
C103 C 0.92112 -0.02779 0.19876 0.0
O104 O 0.94493 0.05257 0.94622 0.0
O105 O 0.90222 0.02981 0.89734 0.0
O106 O 0.89202 0.09604 0.12262 0.0
C107 C 0.92707 0.04387 0.86856 0.0
O108 O 0.94641 -0.02455 0.14436 0.0
C109 C 0.86322 0.08911 0.1166 0.0
O110 O 0.89961 -0.00739 0.19271 0.0
O111 O 0.85606 0.0604 0.1097 0.0
C112 C 0.79187 0.73127 0.00494 0.0
O113 O 0.78206 0.74922 0.92833 0.0
Cd114 Cd 0.76057 0.72468 0.77068 0.0
O115 O 0.7959 0.70204 0.98836 0.0
Cd116 Cd 0.79256 0.65963 0.8457 0.0
C117 C 0.72221 0.67112 0.9488 0.0
O118 O 0.80257 0.69493 0.69616 0.0
O119 O 0.77981 0.65223 0.64727 0.0
O120 O 0.84604 0.64203 0.87255 0.0
C121 C 0.79387 0.67707 0.6185 0.0
O122 O 0.72546 0.69641 0.8944 0.0
C123 C 0.8391 0.61323 0.86652 0.0
O124 O 0.74261 0.64961 0.94267 0.0
O125 O 0.8104 0.60606 0.85962 0.0
C126 C 0.93889 0.0419 0.75493 0.0
O127 O 0.92095 0.03208 0.67833 0.0
Cd128 Cd 0.94547 0.01056 0.52073 0.0
O129 O -0.03187 0.04593 0.73844 0.0
Cd130 Cd 0.01054 0.04257 0.59584 0.0
C131 C -0.00096 -0.02777 0.69895 0.0
O132 O -0.02477 0.05256 0.44624 0.0
O133 O 0.01794 0.02979 0.39743 0.0
O134 O 0.02815 0.09605 0.6226 0.0
C135 C -0.0069 0.04383 0.36862 0.0
O136 O -0.02625 -0.02453 0.64451 0.0
C137 C 0.05695 0.08911 0.61662 0.0
O138 O 0.02055 -0.00738 0.69286 0.0
O139 O 0.06411 0.06041 0.6098 0.0
C140 C 0.62827 0.1889 0.50495 0.0
O141 O 0.63806 0.17096 0.42833 0.0
Cd142 Cd 0.65957 0.19548 0.27076 0.0
O143 O 0.62425 0.21814 0.48845 0.0
Cd144 Cd 0.6276 0.26055 0.34588 0.0
C145 C 0.69795 0.24903 0.44902 0.0
O146 O 0.61758 0.22526 0.19623 0.0
O147 O 0.64036 0.26795 0.14749 0.0
O148 O 0.57412 0.27817 0.37262 0.0
C149 C 0.6263 0.24312 0.11862 0.0
O150 O 0.69469 0.22375 0.39457 0.0
C151 C 0.58106 0.30697 0.36668 0.0
O152 O 0.67756 0.27056 0.44291 0.0
O153 O 0.60977 0.31412 0.35989 0.0
C154 C 0.48129 0.87826 0.25494 0.0
O155 O 0.49925 0.88807 0.17836 0.0
Cd156 Cd 0.47473 0.90958 0.02073 0.0
O157 O 0.45206 0.87424 0.23838 0.0
Cd158 Cd 0.40965 0.8776 0.09574 0.0
C159 C 0.42117 0.94796 0.19886 0.0
O160 O 0.44495 0.86759 0.94617 0.0
O161 O 0.40223 0.89034 0.89733 0.0
O162 O 0.39204 0.82412 0.1225 0.0
C163 C 0.42709 0.8763 0.86854 0.0
O164 O 0.44646 0.9447 0.14447 0.0
C165 C 0.36324 0.83106 0.11656 0.0
O166 O 0.39965 0.92756 0.19273 0.0
O167 O 0.35608 0.85977 0.10973 0.0
C168 C 0.79189 0.18891 0.47934 0.0
O169 O 0.78209 0.17095 0.55594 0.0
Cd170 Cd 0.7606 0.19547 0.71362 0.0
O171 O 0.79592 0.21813 0.49592 0.0
Cd172 Cd 0.79259 0.26055 0.63857 0.0
C173 C 0.72221 0.24904 0.53557 0.0
O174 O 0.80261 0.22525 0.78813 0.0
O175 O 0.77986 0.26796 0.837 0.0
O176 O 0.84606 0.27815 0.61173 0.0
C177 C 0.79391 0.24311 0.86579 0.0
O178 O 0.72546 0.22375 0.58996 0.0
C179 C 0.83912 0.30695 0.61771 0.0
O180 O 0.74261 0.27055 0.54164 0.0
O181 O 0.81042 0.31411 0.62458 0.0
C182 C 0.48129 0.04193 0.22938 0.0
O183 O 0.49923 0.03213 0.30597 0.0
Cd184 Cd 0.47473 0.01062 0.46359 0.0
O185 O 0.45205 0.04595 0.24588 0.0
Cd186 Cd 0.40964 0.04259 0.38846 0.0
C187 C 0.42117 -0.02778 0.28541 0.0
O188 O 0.44494 0.05259 0.53809 0.0
O189 O 0.40222 0.02983 0.58686 0.0
O190 O 0.39202 0.09607 0.36173 0.0
C191 C 0.42707 0.04387 0.6157 0.0
O192 O 0.44646 -0.02452 0.33985 0.0
C193 C 0.36322 0.08912 0.36764 0.0
O194 O 0.39965 -0.00738 0.29146 0.0
O195 O 0.35607 0.06041 0.37442 0.0
C196 C 0.62831 0.73128 0.97932 0.0
O197 O 0.63811 0.74922 0.05595 0.0
Cd198 Cd 0.6596 0.72469 0.21356 0.0
O199 O 0.62427 0.70204 -0.00418 0.0
Cd200 Cd 0.6276 0.65963 0.1384 0.0
C201 C 0.69796 0.67112 0.03537 0.0
O202 O 0.6176 0.69493 0.28802 0.0
O203 O 0.64038 0.65224 0.3368 0.0
O204 O 0.57412 0.64202 0.11162 0.0
C205 C 0.62632 0.67707 0.36565 0.0
O206 O 0.69472 0.69641 0.08982 0.0
C207 C 0.58106 0.61322 0.1176 0.0
O208 O 0.67756 0.64962 0.0414 0.0
O209 O 0.60977 0.60606 0.12442 0.0
C210 C 0.9389 0.8783 0.72931 0.0
O211 O 0.92096 0.88812 0.8059 0.0
Cd212 Cd 0.94548 0.90962 0.96358 0.0
O213 O -0.03187 0.87427 0.74586 0.0
Cd214 Cd 0.01055 0.87762 0.88851 0.0
C215 C -0.00096 0.94798 0.78552 0.0
O216 O -0.02476 0.86762 0.03806 0.0
O217 O 0.01796 0.89037 0.08695 0.0
O218 O 0.02815 0.82414 0.86169 0.0
C219 C -0.0069 0.87633 0.1157 0.0
O220 O -0.02624 0.94473 0.83992 0.0
C221 C 0.05695 0.83108 0.86769 0.0
O222 O 0.02055 0.92757 0.79157 0.0
O223 O 0.06412 0.85978 0.87456 0.0
C224 C 0.62829 0.6889 0.47928 0.0
O225 O 0.6381 0.67095 0.55587 0.0
Cd226 Cd 0.65962 0.69547 0.71352 0.0
O227 O 0.62426 0.71813 0.49585 0.0
Cd228 Cd 0.62762 0.76055 0.63851 0.0
C229 C 0.69797 0.74904 0.5354 0.0
O230 O 0.61762 0.72524 0.78805 0.0
O231 O 0.64038 0.76795 0.83694 0.0
O232 O 0.57414 0.77815 0.61172 0.0
C233 C 0.62634 0.74309 0.86569 0.0
O234 O 0.69472 0.72375 0.5898 0.0
C235 C 0.58108 0.80695 0.61772 0.0
O236 O 0.67757 0.77055 0.54154 0.0
O237 O 0.60979 0.81411 0.62458 0.0
C238 C 0.48128 0.37832 0.72937 0.0
O239 O 0.49922 0.38812 0.806 0.0
Cd240 Cd 0.47468 0.40963 0.96358 0.0
O241 O 0.45204 0.37428 0.74588 0.0
Cd242 Cd 0.40963 0.37762 0.88848 0.0
C243 C 0.42112 0.44796 0.78533 0.0
O244 O 0.44494 0.36762 0.03809 0.0
O245 O 0.40224 0.3904 0.08688 0.0
O246 O 0.39203 0.32413 0.86171 0.0
C247 C 0.42707 0.37634 0.11572 0.0
O248 O 0.4464 0.44472 0.83978 0.0
C249 C 0.36323 0.33107 0.86771 0.0
O250 O 0.39961 0.42756 0.79144 0.0
O251 O 0.35607 0.35978 0.87454 0.0
C252 C 0.79194 0.23129 0.97941 0.0
O253 O 0.78213 0.24924 0.05601 0.0
Cd254 Cd 0.76061 0.22473 0.21358 0.0
O255 O 0.79595 0.20205 -0.0041 0.0
Cd256 Cd 0.79258 0.15964 0.13847 0.0
C257 C 0.72223 0.17117 0.03533 0.0
O258 O 0.80258 0.19494 0.28811 0.0
O259 O 0.77981 0.15223 0.33686 0.0
O260 O 0.84606 0.14202 0.11176 0.0
C261 C 0.79385 0.17707 0.36571 0.0
O262 O 0.72549 0.19646 0.08977 0.0
C263 C 0.83911 0.11322 0.11767 0.0
O264 O 0.74262 0.14965 0.04143 0.0
O265 O 0.81041 0.10607 0.12444 0.0
C266 C 0.9389 0.54191 0.2293 0.0
O267 O 0.92094 0.53211 0.30591 0.0
Cd268 Cd 0.94547 0.51062 0.46354 0.0
O269 O -0.03187 0.54593 0.24588 0.0
Cd270 Cd 0.01054 0.54259 0.38851 0.0
C271 C -0.00097 0.47223 0.28541 0.0
O272 O -0.02475 0.55261 0.53809 0.0
O273 O 0.01795 0.52985 0.58693 0.0
O274 O 0.02815 0.59606 0.36172 0.0
C275 C -0.00689 0.54391 0.61574 0.0
O276 O -0.02626 0.47548 0.33981 0.0
C277 C 0.05695 0.58912 0.36767 0.0
O278 O 0.02054 0.49262 0.29154 0.0
O279 O 0.06411 0.56042 0.37452 0.0
C280 C 0.62827 0.23129 0.00499 0.0
O281 O 0.63808 0.24924 0.92841 0.0
Cd282 Cd 0.65958 0.22473 0.77073 0.0
O283 O 0.62424 0.20206 0.98842 0.0
Cd284 Cd 0.62759 0.15965 0.84577 0.0
C285 C 0.69797 0.17117 0.94878 0.0
O286 O 0.61759 0.19495 0.69621 0.0
O287 O 0.64033 0.15223 0.64734 0.0
O288 O 0.57412 0.14204 0.87255 0.0
C289 C 0.62629 0.17709 0.61857 0.0
O290 O 0.69471 0.19646 0.89439 0.0
C291 C 0.58106 0.11324 0.8666 0.0
O292 O 0.67757 0.14966 0.94271 0.0
O293 O 0.60977 0.10608 0.85976 0.0
C294 C 0.93891 0.37827 0.25494 0.0
O295 O 0.92096 0.38806 0.17832 0.0
Cd296 Cd 0.94547 0.40955 0.0207 0.0
O297 O -0.03186 0.37424 0.23842 0.0
Cd298 Cd 0.01055 0.37759 0.09584 0.0
C299 C -0.00097 0.44796 0.19887 0.0
O300 O -0.02474 0.36757 0.9462 0.0
O301 O 0.01796 0.39034 0.89745 0.0
O302 O 0.02817 0.32412 0.1226 0.0
C303 C -0.00687 0.37628 0.86858 0.0
O304 O -0.02626 0.4447 0.14443 0.0
C305 C 0.05697 0.33106 0.11668 0.0
O306 O 0.02054 0.42756 0.19283 0.0
O307 O 0.06412 0.35977 0.10988 0.0
C308 C 0.7919 0.68889 0.50487 0.0
O309 O 0.78208 0.67095 0.42826 0.0
Cd310 Cd 0.76057 0.69547 0.27065 0.0
O311 O 0.79593 0.71813 0.48839 0.0
Cd312 Cd 0.79258 0.76054 0.3458 0.0
C313 C 0.72222 0.74904 0.44884 0.0
O314 O 0.80256 0.72524 0.19618 0.0
O315 O 0.7798 0.76795 0.1474 0.0
O316 O 0.84606 0.77815 0.37255 0.0
C317 C 0.79384 0.7431 0.11857 0.0
O318 O 0.72546 0.72375 0.39439 0.0
C319 C 0.83912 0.80695 0.3666 0.0
O320 O 0.74262 0.77055 0.44281 0.0
O321 O 0.81041 0.81411 0.35981 0.0
C322 C 0.48127 0.54185 0.75494 0.0
O323 O 0.49922 0.53205 0.67833 0.0
Cd324 Cd 0.47468 0.51056 0.52066 0.0
O325 O 0.45204 0.54589 0.73838 0.0
Cd326 Cd 0.40962 0.54256 0.59573 0.0
C327 C 0.42111 0.4722 0.69875 0.0
O328 O 0.44493 0.55256 0.44617 0.0
O329 O 0.40222 0.5298 0.39729 0.0
O330 O 0.39202 0.59604 0.62256 0.0
C331 C 0.42707 0.54386 0.36852 0.0
O332 O 0.4464 0.47544 0.64434 0.0
C333 C 0.36322 0.5891 0.61653 0.0
O334 O 0.39961 0.49261 0.69269 0.0
O335 O 0.35606 0.5604 0.60965 0.0
C336 C 0.29189 0.23128 0.50499 0.0
O337 O 0.28207 0.24923 0.42841 0.0
Cd338 Cd 0.26056 0.2247 0.27076 0.0
O339 O 0.29592 0.20205 0.48843 0.0
Cd340 Cd 0.29256 0.15963 0.34577 0.0
C341 C 0.22221 0.17113 0.44887 0.0
O342 O 0.30256 0.19494 0.19623 0.0
O343 O 0.27981 0.15222 0.14733 0.0
O344 O 0.34604 0.14203 0.37257 0.0
C345 C 0.29385 0.17708 0.11859 0.0
O346 O 0.22546 0.19642 0.39447 0.0
C347 C 0.33911 0.11323 0.36656 0.0
O348 O 0.24261 0.14962 0.44274 0.0
O349 O 0.3104 0.10606 0.35969 0.0
C350 C 0.43889 0.54189 0.25488 0.0
O351 O 0.42095 0.53207 0.17828 0.0
Cd352 Cd 0.44548 0.51055 0.0207 0.0
O353 O 0.46813 0.54592 0.23839 0.0
Cd354 Cd 0.51054 0.54256 0.09579 0.0
C355 C 0.49905 0.47222 0.19894 0.0
O356 O 0.47523 0.55255 0.94619 0.0
O357 O 0.51794 0.52978 0.89739 0.0
O358 O 0.52815 0.59605 0.12253 0.0
C359 C 0.4931 0.54382 0.86858 0.0
O360 O 0.47376 0.47546 0.1445 0.0
C361 C 0.55695 0.58911 0.11655 0.0
O362 O 0.52056 0.49262 0.19284 0.0
O363 O 0.56411 0.5604 0.10975 0.0
C364 C 0.12825 0.6889 0.00487 0.0
O365 O 0.13805 0.67095 0.92827 0.0
Cd366 Cd 0.15957 0.69547 0.7707 0.0
O367 O 0.12423 0.71814 0.98838 0.0
Cd368 Cd 0.1276 0.76055 0.84581 0.0
C369 C 0.19795 0.74902 0.94895 0.0
O370 O 0.1176 0.72525 0.69617 0.0
O371 O 0.14037 0.76796 0.64742 0.0
O372 O 0.07412 0.77816 0.87253 0.0
C373 C 0.12633 0.74312 0.61857 0.0
O374 O 0.19469 0.72374 0.8945 0.0
C375 C 0.08106 0.80696 0.86662 0.0
O376 O 0.17756 0.77054 0.94285 0.0
O377 O 0.10977 0.81412 0.85984 0.0
C378 C -0.01871 0.37825 0.75496 0.0
O379 O -0.00075 0.38806 0.67838 0.0
Cd380 Cd -0.02527 0.40957 0.52075 0.0
O381 O 0.95206 0.37424 0.7384 0.0
Cd382 Cd 0.90965 0.37759 0.59576 0.0
C383 C 0.92118 0.44795 0.69887 0.0
O384 O 0.94495 0.36758 0.44619 0.0
O385 O 0.90223 0.39033 0.39735 0.0
O386 O 0.89204 0.32412 0.62253 0.0
C387 C 0.92709 0.3763 0.36856 0.0
O388 O 0.94646 0.4447 0.64447 0.0
C389 C 0.86324 0.33106 0.6166 0.0
O390 O 0.89966 0.42756 0.69274 0.0
O391 O 0.85608 0.35977 0.60977 0.0
C392 C 0.29191 0.6889 0.97928 0.0
O393 O 0.28209 0.67095 0.05586 0.0
Cd394 Cd 0.2606 0.69546 0.21354 0.0
O395 O 0.29594 0.71813 -0.00414 0.0
Cd396 Cd 0.29259 0.76054 0.1385 0.0
C397 C 0.22221 0.74903 0.0355 0.0
O398 O 0.3026 0.72524 0.28806 0.0
O399 O 0.27986 0.76796 0.33693 0.0
O400 O 0.34607 0.77815 0.11171 0.0
C401 C 0.29389 0.7431 0.3657 0.0
O402 O 0.22547 0.72374 0.08989 0.0
C403 C 0.33913 0.80695 0.11766 0.0
O404 O 0.24262 0.77053 0.04156 0.0
O405 O 0.31042 0.81411 0.12451 0.0
C406 C -0.01871 0.54194 0.72936 0.0
O407 O -0.00077 0.53213 0.80595 0.0
Cd408 Cd -0.02527 0.51062 0.96358 0.0
O409 O 0.95205 0.54595 0.74586 0.0
Cd410 Cd 0.90964 0.54259 0.88844 0.0
C411 C 0.92117 0.47222 0.78541 0.0
O412 O 0.94494 0.5526 0.03808 0.0
O413 O 0.90222 0.52984 0.08684 0.0
O414 O 0.89202 0.59607 0.86171 0.0
C415 C 0.92707 0.54388 0.11568 0.0
O416 O 0.94646 0.47548 0.83985 0.0
C417 C 0.86322 0.58912 0.86761 0.0
O418 O 0.89966 0.49262 0.79145 0.0
O419 O 0.85607 0.56041 0.87438 0.0
C420 C 0.12829 0.23129 0.47941 0.0
O421 O 0.1381 0.24922 0.55602 0.0
Cd422 Cd 0.15961 0.2247 0.71363 0.0
O423 O 0.12425 0.20204 0.49589 0.0
Cd424 Cd 0.12761 0.15963 0.63847 0.0
C425 C 0.19796 0.17114 0.53544 0.0
O426 O 0.11762 0.19494 0.78809 0.0
O427 O 0.14038 0.15223 0.83688 0.0
O428 O 0.07412 0.14203 0.61171 0.0
C429 C 0.12634 0.17708 0.8657 0.0
O430 O 0.19472 0.19642 0.58989 0.0
C431 C 0.08106 0.11323 0.61767 0.0
O432 O 0.17756 0.14963 0.54146 0.0
O433 O 0.10977 0.10607 0.62447 0.0
C434 C 0.4389 0.37831 0.22935 0.0
O435 O 0.42096 0.38813 0.30594 0.0
Cd436 Cd 0.44548 0.40963 0.46361 0.0
O437 O 0.46813 0.37428 0.2459 0.0
Cd438 Cd 0.51055 0.37762 0.38855 0.0
C439 C 0.49905 0.44798 0.28552 0.0
O440 O 0.47524 0.36763 0.5381 0.0
O441 O 0.51796 0.39038 0.58699 0.0
O442 O 0.52815 0.32414 0.36175 0.0
C443 C 0.4931 0.37634 0.61574 0.0
O444 O 0.47376 0.44474 0.33993 0.0
C445 C 0.55695 0.33108 0.36775 0.0
O446 O 0.52056 0.42758 0.29159 0.0
O447 O 0.56412 0.35979 0.37461 0.0
loop_
_geom_bond_atom_site_label_1
_geom_bond_atom_site_label_2
_geom_bond_distance
_geom_bond_site_symmetry_2
_ccdc_geom_bond_type
C0 O1 1.306 . S
C0 O3 1.160 . S
O1 C0 1.306 . S
O1 Cd2 2.228 1_556 S
Cd2 O1 2.228 1_554 S
Cd2 O6 2.273 . S
Cd2 O10 2.277 . S
O3 C0 1.160 . S
O3 Cd4 2.203 1_556 S
Cd4 O3 2.203 1_554 S
Cd4 O6 2.411 . S
Cd4 O7 2.333 . S
Cd4 O8 2.352 . S
Cd4 O12 2.277 . S
Cd4 O13 2.356 . S
C5 O10 1.209 . S
C5 O12 1.226 . S
O6 Cd2 2.273 . S
O6 Cd4 2.411 . S
O6 C9 1.320 . S
O7 Cd4 2.333 . S
O7 C9 1.214 . S
O8 Cd4 2.352 . S
O8 C11 1.258 . S
C9 O6 1.320 . S
C9 O7 1.214 . S
O10 Cd2 2.277 . S
O10 C5 1.209 . S
C11 O8 1.258 . S
C11 O13 1.282 . S
O12 Cd4 2.277 . S
O12 C5 1.226 . S
O13 Cd4 2.356 . S
O13 C11 1.282 . S
C14 O15 1.306 1_655 S
C14 O17 1.160 . S
O15 C14 1.306 1_455 S
O15 Cd16 2.228 . S
Cd16 O15 2.228 . S
Cd16 O20 2.273 . S
Cd16 O24 2.277 1_455 S
O17 C14 1.160 . S
O17 Cd18 2.203 . S
Cd18 O17 2.203 . S
Cd18 O20 2.411 1_655 S
Cd18 O21 2.333 . S
Cd18 O22 2.352 . S
Cd18 O26 2.277 . S
Cd18 O27 2.356 . S
C19 O24 1.209 . S
C19 O26 1.226 . S
O20 Cd16 2.273 . S
O20 Cd18 2.411 1_455 S
O20 C23 1.320 1_455 S
O21 Cd18 2.333 . S
O21 C23 1.214 . S
O22 Cd18 2.352 . S
O22 C25 1.258 . S
C23 O20 1.320 1_655 S
C23 O21 1.214 . S
O24 Cd16 2.277 1_655 S
O24 C19 1.209 . S
C25 O22 1.258 . S
C25 O27 1.282 . S
O26 Cd18 2.277 . S
O26 C19 1.226 . S
O27 Cd18 2.356 . S
O27 C25 1.282 . S
C28 O29 1.306 . S
C28 O31 1.160 . S
O29 C28 1.306 . S
O29 Cd30 2.228 . S
Cd30 O29 2.228 . S
Cd30 O34 2.273 . S
Cd30 O38 2.277 . S
O31 C28 1.160 . S
O31 Cd32 2.203 . S
Cd32 O31 2.203 . S
Cd32 O34 2.411 . S
Cd32 O35 2.333 . S
Cd32 O36 2.352 . S
Cd32 O40 2.277 . S
Cd32 O41 2.356 . S
C33 O38 1.209 . S
C33 O40 1.226 . S
O34 Cd30 2.273 . S
O34 Cd32 2.411 . S
O34 C37 1.320 . S
O35 Cd32 2.333 . S
O35 C37 1.214 . S
O36 Cd32 2.352 . S
O36 C39 1.258 . S
C37 O34 1.320 . S
C37 O35 1.214 . S
O38 Cd30 2.277 . S
O38 C33 1.209 . S
C39 O36 1.258 . S
C39 O41 1.282 . S
O40 Cd32 2.277 . S
O40 C33 1.226 . S
O41 Cd32 2.356 . S
O41 C39 1.282 . S
C42 O43 1.306 . S
C42 O45 1.160 . S
O43 C42 1.306 . S
O43 Cd44 2.228 . S
Cd44 O43 2.228 . S
Cd44 O48 2.273 . S
Cd44 O52 2.277 . S
O45 C42 1.160 . S
O45 Cd46 2.203 . S
Cd46 O45 2.203 . S
Cd46 O48 2.411 . S
Cd46 O49 2.333 1_556 S
Cd46 O50 2.352 . S
Cd46 O54 2.277 . S
Cd46 O55 2.356 . S
C47 O52 1.209 . S
C47 O54 1.226 . S
O48 Cd44 2.273 . S
O48 Cd46 2.411 . S
O48 C51 1.320 1_556 S
O49 Cd46 2.333 1_554 S
O49 C51 1.214 . S
O50 Cd46 2.352 . S
O50 C53 1.258 . S
C51 O48 1.320 1_554 S
C51 O49 1.214 . S
O52 Cd44 2.277 . S
O52 C47 1.209 . S
C53 O50 1.258 . S
C53 O55 1.282 . S
O54 Cd46 2.277 . S
O54 C47 1.226 . S
O55 Cd46 2.356 . S
O55 C53 1.282 . S
C56 O57 1.306 . S
C56 O59 1.160 . S
O57 C56 1.306 . S
O57 Cd58 2.228 . S
Cd58 O57 2.228 . S
Cd58 O62 2.273 . S
Cd58 O66 2.277 . S
O59 C56 1.160 . S
O59 Cd60 2.203 . S
Cd60 O59 2.203 . S
Cd60 O62 2.411 . S
Cd60 O63 2.333 . S
Cd60 O64 2.352 . S
Cd60 O68 2.277 . S
Cd60 O69 2.356 . S
C61 O66 1.209 . S
C61 O68 1.226 . S
O62 Cd58 2.273 . S
O62 Cd60 2.411 . S
O62 C65 1.320 . S
O63 Cd60 2.333 . S
O63 C65 1.214 . S
O64 Cd60 2.352 . S
O64 C67 1.258 . S
C65 O62 1.320 . S
C65 O63 1.214 . S
O66 Cd58 2.277 . S
O66 C61 1.209 . S
C67 O64 1.258 . S
C67 O69 1.282 . S
O68 Cd60 2.277 . S
O68 C61 1.226 . S
O69 Cd60 2.356 . S
O69 C67 1.282 . S
C70 O71 1.306 . S
C70 O73 1.160 . S
O71 C70 1.306 . S
O71 Cd72 2.228 . S
Cd72 O71 2.228 . S
Cd72 O76 2.273 . S
Cd72 O80 2.277 . S
O73 C70 1.160 . S
O73 Cd74 2.203 . S
Cd74 O73 2.203 . S
Cd74 O76 2.411 . S
Cd74 O77 2.333 . S
Cd74 O78 2.352 . S
Cd74 O82 2.277 . S
Cd74 O83 2.356 . S
C75 O80 1.209 . S
C75 O82 1.226 . S
O76 Cd72 2.273 . S
O76 Cd74 2.411 . S
O76 C79 1.320 . S
O77 Cd74 2.333 . S
O77 C79 1.214 . S
O78 Cd74 2.352 . S
O78 C81 1.258 . S
C79 O76 1.320 . S
C79 O77 1.214 . S
O80 Cd72 2.277 . S
O80 C75 1.209 . S
C81 O78 1.258 . S
C81 O83 1.282 . S
O82 Cd74 2.277 . S
O82 C75 1.226 . S
O83 Cd74 2.356 . S
O83 C81 1.282 . S
C84 O85 1.306 . S
C84 O87 1.160 . S
O85 C84 1.306 . S
O85 Cd86 2.228 1_554 S
Cd86 O85 2.228 1_556 S
Cd86 O90 2.273 . S
Cd86 O94 2.277 . S
O87 C84 1.160 . S
O87 Cd88 2.203 1_554 S
Cd88 O87 2.203 1_556 S
Cd88 O90 2.411 . S
Cd88 O91 2.333 . S
Cd88 O92 2.352 . S
Cd88 O96 2.277 . S
Cd88 O97 2.356 . S
C89 O94 1.209 . S
C89 O96 1.226 . S
O90 Cd86 2.273 . S
O90 Cd88 2.411 . S
O90 C93 1.320 . S
O91 Cd88 2.333 . S
O91 C93 1.214 . S
O92 Cd88 2.352 . S
O92 C95 1.258 . S
C93 O90 1.320 . S
C93 O91 1.214 . S
O94 Cd86 2.277 . S
O94 C89 1.209 . S
C95 O92 1.258 . S
C95 O97 1.282 . S
O96 Cd88 2.277 . S
O96 C89 1.226 . S
O97 Cd88 2.356 . S
O97 C95 1.282 . S
C98 O99 1.306 1_655 S
C98 O101 1.160 . S
O99 C98 1.306 1_455 S
O99 Cd100 2.228 . S
Cd100 O99 2.228 . S
Cd100 O104 2.273 . S
Cd100 O108 2.277 1_455 S
O101 C98 1.160 . S
O101 Cd102 2.203 . S
Cd102 O101 2.203 . S
Cd102 O104 2.411 1_655 S
Cd102 O105 2.333 1_554 S
Cd102 O106 2.352 . S
Cd102 O110 2.277 . S
Cd102 O111 2.356 . S
C103 O108 1.209 . S
C103 O110 1.226 . S
O104 Cd100 2.273 . S
O104 Cd102 2.411 1_455 S
O104 C107 1.320 1_454 S
O105 Cd102 2.333 1_556 S
O105 C107 1.214 . S
O106 Cd102 2.352 . S
O106 C109 1.258 . S
C107 O104 1.320 1_656 S
C107 O105 1.214 . S
O108 Cd100 2.277 1_655 S
O108 C103 1.209 . S
C109 O106 1.258 . S
C109 O111 1.282 . S
O110 Cd102 2.277 . S
O110 C103 1.226 . S
O111 Cd102 2.356 . S
O111 C109 1.282 . S
C112 O113 1.306 . S
C112 O115 1.160 . S
O113 C112 1.306 . S
O113 Cd114 2.228 1_554 S
Cd114 O113 2.228 1_556 S
Cd114 O118 2.273 . S
Cd114 O122 2.277 . S
O115 C112 1.160 . S
O115 Cd116 2.203 1_554 S
Cd116 O115 2.203 1_556 S
Cd116 O118 2.411 . S
Cd116 O119 2.333 . S
Cd116 O120 2.352 . S
Cd116 O124 2.277 . S
Cd116 O125 2.356 . S
C117 O122 1.209 . S
C117 O124 1.226 . S
O118 Cd114 2.273 . S
O118 Cd116 2.411 . S
O118 C121 1.320 . S
O119 Cd116 2.333 . S
O119 C121 1.214 . S
O120 Cd116 2.352 . S
O120 C123 1.258 . S
C121 O118 1.320 . S
C121 O119 1.214 . S
O122 Cd114 2.277 . S
O122 C117 1.209 . S
C123 O120 1.258 . S
C123 O125 1.282 . S
O124 Cd116 2.277 . S
O124 C117 1.226 . S
O125 Cd116 2.356 . S
O125 C123 1.282 . S
C126 O127 1.306 1_455 S
C126 O129 1.160 . S
O127 C126 1.306 1_655 S
O127 Cd128 2.228 . S
Cd128 O127 2.228 . S
Cd128 O132 2.273 . S
Cd128 O136 2.277 1_655 S
O129 C126 1.160 . S
O129 Cd130 2.203 . S
Cd130 O129 2.203 . S
Cd130 O132 2.411 1_455 S
Cd130 O133 2.333 . S
Cd130 O134 2.352 . S
Cd130 O138 2.277 . S
Cd130 O139 2.356 . S
C131 O136 1.209 . S
C131 O138 1.226 . S
O132 Cd128 2.273 . S
O132 Cd130 2.411 1_655 S
O132 C135 1.320 1_655 S
O133 Cd130 2.333 . S
O133 C135 1.214 . S
O134 Cd130 2.352 . S
O134 C137 1.258 . S
C135 O132 1.320 1_455 S
C135 O133 1.214 . S
O136 Cd128 2.277 1_455 S
O136 C131 1.209 . S
C137 O134 1.258 . S
C137 O139 1.282 . S
O138 Cd130 2.277 . S
O138 C131 1.226 . S
O139 Cd130 2.356 . S
O139 C137 1.282 . S
C140 O141 1.306 . S
C140 O143 1.160 . S
O141 C140 1.306 . S
O141 Cd142 2.228 . S
Cd142 O141 2.228 . S
Cd142 O146 2.273 . S
Cd142 O150 2.277 . S
O143 C140 1.160 . S
O143 Cd144 2.203 . S
Cd144 O143 2.203 . S
Cd144 O146 2.411 . S
Cd144 O147 2.333 . S
Cd144 O148 2.352 . S
Cd144 O152 2.277 . S
Cd144 O153 2.356 . S
C145 O150 1.209 . S
C145 O152 1.226 . S
O146 Cd142 2.273 . S
O146 Cd144 2.411 . S
O146 C149 1.320 . S
O147 Cd144 2.333 . S
O147 C149 1.214 . S
O148 Cd144 2.352 . S
O148 C151 1.258 . S
C149 O146 1.320 . S
C149 O147 1.214 . S
O150 Cd142 2.277 . S
O150 C145 1.209 . S
C151 O148 1.258 . S
C151 O153 1.282 . S
O152 Cd144 2.277 . S
O152 C145 1.226 . S
O153 Cd144 2.356 . S
O153 C151 1.282 . S
C154 O155 1.306 . S
C154 O157 1.160 . S
O155 C154 1.306 . S
O155 Cd156 2.228 . S
Cd156 O155 2.228 . S
Cd156 O160 2.273 . S
Cd156 O164 2.277 . S
O157 C154 1.160 . S
O157 Cd158 2.203 . S
Cd158 O157 2.203 . S
Cd158 O160 2.411 . S
Cd158 O161 2.333 1_554 S
Cd158 O162 2.352 . S
Cd158 O166 2.277 . S
Cd158 O167 2.356 . S
C159 O164 1.209 . S
C159 O166 1.226 . S
O160 Cd156 2.273 . S
O160 Cd158 2.411 . S
O160 C163 1.320 1_554 S
O161 Cd158 2.333 1_556 S
O161 C163 1.214 . S
O162 Cd158 2.352 . S
O162 C165 1.258 . S
C163 O160 1.320 1_556 S
C163 O161 1.214 . S
O164 Cd156 2.277 . S
O164 C159 1.209 . S
C165 O162 1.258 . S
C165 O167 1.282 . S
O166 Cd158 2.277 . S
O166 C159 1.226 . S
O167 Cd158 2.356 . S
O167 C165 1.282 . S
C168 O169 1.306 . S
C168 O171 1.160 . S
O169 C168 1.306 . S
O169 Cd170 2.228 . S
Cd170 O169 2.228 . S
Cd170 O174 2.273 . S
Cd170 O178 2.277 . S
O171 C168 1.160 . S
O171 Cd172 2.203 . S
Cd172 O171 2.203 . S
Cd172 O174 2.411 . S
Cd172 O175 2.333 . S
Cd172 O176 2.352 . S
Cd172 O180 2.277 . S
Cd172 O181 2.356 . S
C173 O178 1.209 . S
C173 O180 1.226 . S
O174 Cd170 2.273 . S
O174 Cd172 2.411 . S
O174 C177 1.320 . S
O175 Cd172 2.333 . S
O175 C177 1.214 . S
O176 Cd172 2.352 . S
O176 C179 1.258 . S
C177 O174 1.320 . S
C177 O175 1.214 . S
O178 Cd170 2.277 . S
O178 C173 1.209 . S
C179 O176 1.258 . S
C179 O181 1.282 . S
O180 Cd172 2.277 . S
O180 C173 1.226 . S
O181 Cd172 2.356 . S
O181 C179 1.282 . S
C182 O183 1.306 . S
C182 O185 1.160 . S
O183 C182 1.306 . S
O183 Cd184 2.228 . S
Cd184 O183 2.228 . S
Cd184 O188 2.273 . S
Cd184 O192 2.277 . S
O185 C182 1.160 . S
O185 Cd186 2.203 . S
Cd186 O185 2.203 . S
Cd186 O188 2.411 . S
Cd186 O189 2.333 . S
Cd186 O190 2.352 . S
Cd186 O194 2.277 . S
Cd186 O195 2.356 . S
C187 O192 1.209 . S
C187 O194 1.226 . S
O188 Cd184 2.273 . S
O188 Cd186 2.411 . S
O188 C191 1.320 . S
O189 Cd186 2.333 . S
O189 C191 1.214 . S
O190 Cd186 2.352 . S
O190 C193 1.258 . S
C191 O188 1.320 . S
C191 O189 1.214 . S
O192 Cd184 2.277 . S
O192 C187 1.209 . S
C193 O190 1.258 . S
C193 O195 1.282 . S
O194 Cd186 2.277 . S
O194 C187 1.226 . S
O195 Cd186 2.356 . S
O195 C193 1.282 . S
C196 O197 1.306 . S
C196 O199 1.160 . S
O197 C196 1.306 . S
O197 Cd198 2.228 1_556 S
Cd198 O197 2.228 1_554 S
Cd198 O202 2.273 . S
Cd198 O206 2.277 . S
O199 C196 1.160 . S
O199 Cd200 2.203 1_556 S
Cd200 O199 2.203 1_554 S
Cd200 O202 2.411 . S
Cd200 O203 2.333 . S
Cd200 O204 2.352 . S
Cd200 O208 2.277 . S
Cd200 O209 2.356 . S
C201 O206 1.209 . S
C201 O208 1.226 . S
O202 Cd198 2.273 . S
O202 Cd200 2.411 . S
O202 C205 1.320 . S
O203 Cd200 2.333 . S
O203 C205 1.214 . S
O204 Cd200 2.352 . S
O204 C207 1.258 . S
C205 O202 1.320 . S
C205 O203 1.214 . S
O206 Cd198 2.277 . S
O206 C201 1.209 . S
C207 O204 1.258 . S
C207 O209 1.282 . S
O208 Cd200 2.277 . S
O208 C201 1.226 . S
O209 Cd200 2.356 . S
O209 C207 1.282 . S
C210 O211 1.306 1_455 S
C210 O213 1.160 . S
O211 C210 1.306 1_655 S
O211 Cd212 2.228 . S
Cd212 O211 2.228 . S
Cd212 O216 2.273 . S
Cd212 O220 2.277 1_655 S
O213 C210 1.160 . S
O213 Cd214 2.203 . S
Cd214 O213 2.203 . S
Cd214 O216 2.411 1_455 S
Cd214 O217 2.333 1_556 S
Cd214 O218 2.352 . S
Cd214 O222 2.277 . S
Cd214 O223 2.356 . S
C215 O220 1.209 . S
C215 O222 1.226 . S
O216 Cd212 2.273 . S
O216 Cd214 2.411 1_655 S
O216 C219 1.320 1_656 S
O217 Cd214 2.333 1_554 S
O217 C219 1.214 . S
O218 Cd214 2.352 . S
O218 C221 1.258 . S
C219 O216 1.320 1_454 S
C219 O217 1.214 . S
O220 Cd212 2.277 1_455 S
O220 C215 1.209 . S
C221 O218 1.258 . S
C221 O223 1.282 . S
O222 Cd214 2.277 . S
O222 C215 1.226 . S
O223 Cd214 2.356 . S
O223 C221 1.282 . S
C224 O225 1.306 . S
C224 O227 1.160 . S
O225 C224 1.306 . S
O225 Cd226 2.228 . S
Cd226 O225 2.228 . S
Cd226 O230 2.273 . S
Cd226 O234 2.277 . S
O227 C224 1.160 . S
O227 Cd228 2.203 . S
Cd228 O227 2.203 . S
Cd228 O230 2.411 . S
Cd228 O231 2.333 . S
Cd228 O232 2.352 . S
Cd228 O236 2.277 . S
Cd228 O237 2.356 . S
C229 O234 1.209 . S
C229 O236 1.226 . S
O230 Cd226 2.273 . S
O230 Cd228 2.411 . S
O230 C233 1.320 . S
O231 Cd228 2.333 . S
O231 C233 1.214 . S
O232 Cd228 2.352 . S
O232 C235 1.258 . S
C233 O230 1.320 . S
C233 O231 1.214 . S
O234 Cd226 2.277 . S
O234 C229 1.209 . S
C235 O232 1.258 . S
C235 O237 1.282 . S
O236 Cd228 2.277 . S
O236 C229 1.226 . S
O237 Cd228 2.356 . S
O237 C235 1.282 . S
C238 O239 1.306 . S
C238 O241 1.160 . S
O239 C238 1.306 . S
O239 Cd240 2.228 . S
Cd240 O239 2.228 . S
Cd240 O244 2.273 . S
Cd240 O248 2.277 . S
O241 C238 1.160 . S
O241 Cd242 2.203 . S
Cd242 O241 2.203 . S
Cd242 O244 2.411 . S
Cd242 O245 2.333 1_556 S
Cd242 O246 2.352 . S
Cd242 O250 2.277 . S
Cd242 O251 2.356 . S
C243 O248 1.209 . S
C243 O250 1.226 . S
O244 Cd240 2.273 . S
O244 Cd242 2.411 . S
O244 C247 1.320 1_556 S
O245 Cd242 2.333 1_554 S
O245 C247 1.214 . S
O246 Cd242 2.352 . S
O246 C249 1.258 . S
C247 O244 1.320 1_554 S
C247 O245 1.214 . S
O248 Cd240 2.277 . S
O248 C243 1.209 . S
C249 O246 1.258 . S
C249 O251 1.282 . S
O250 Cd242 2.277 . S
O250 C243 1.226 . S
O251 Cd242 2.356 . S
O251 C249 1.282 . S
C252 O253 1.306 . S
C252 O255 1.160 . S
O253 C252 1.306 . S
O253 Cd254 2.228 1_556 S
Cd254 O253 2.228 1_554 S
Cd254 O258 2.273 . S
Cd254 O262 2.277 . S
O255 C252 1.160 . S
O255 Cd256 2.203 1_556 S
Cd256 O255 2.203 1_554 S
Cd256 O258 2.411 . S
Cd256 O259 2.333 . S
Cd256 O260 2.352 . S
Cd256 O264 2.277 . S
Cd256 O265 2.356 . S
C257 O262 1.209 . S
C257 O264 1.226 . S
O258 Cd254 2.273 . S
O258 Cd256 2.411 . S
O258 C261 1.320 . S
O259 Cd256 2.333 . S
O259 C261 1.214 . S
O260 Cd256 2.352 . S
O260 C263 1.258 . S
C261 O258 1.320 . S
C261 O259 1.214 . S
O262 Cd254 2.277 . S
O262 C257 1.209 . S
C263 O260 1.258 . S
C263 O265 1.282 . S
O264 Cd256 2.277 . S
O264 C257 1.226 . S
O265 Cd256 2.356 . S
O265 C263 1.282 . S
C266 O267 1.306 1_455 S
C266 O269 1.160 . S
O267 C266 1.306 1_655 S
O267 Cd268 2.228 . S
Cd268 O267 2.228 . S
Cd268 O272 2.273 . S
Cd268 O276 2.277 1_655 S
O269 C266 1.160 . S
O269 Cd270 2.203 . S
Cd270 O269 2.203 . S
Cd270 O272 2.411 1_455 S
Cd270 O273 2.333 . S
Cd270 O274 2.352 . S
Cd270 O278 2.277 . S
Cd270 O279 2.356 . S
C271 O276 1.209 . S
C271 O278 1.226 . S
O272 Cd268 2.273 . S
O272 Cd270 2.411 1_655 S
O272 C275 1.320 1_655 S
O273 Cd270 2.333 . S
O273 C275 1.214 . S
O274 Cd270 2.352 . S
O274 C277 1.258 . S
C275 O272 1.320 1_455 S
C275 O273 1.214 . S
O276 Cd268 2.277 1_455 S
O276 C271 1.209 . S
C277 O274 1.258 . S
C277 O279 1.282 . S
O278 Cd270 2.277 . S
O278 C271 1.226 . S
O279 Cd270 2.356 . S
O279 C277 1.282 . S
C280 O281 1.306 . S
C280 O283 1.160 . S
O281 C280 1.306 . S
O281 Cd282 2.228 1_554 S
Cd282 O281 2.228 1_556 S
Cd282 O286 2.273 . S
Cd282 O290 2.277 . S
O283 C280 1.160 . S
O283 Cd284 2.203 1_554 S
Cd284 O283 2.203 1_556 S
Cd284 O286 2.411 . S
Cd284 O287 2.333 . S
Cd284 O288 2.352 . S
Cd284 O292 2.277 . S
Cd284 O293 2.356 . S
C285 O290 1.209 . S
C285 O292 1.226 . S
O286 Cd282 2.273 . S
O286 Cd284 2.411 . S
O286 C289 1.320 . S
O287 Cd284 2.333 . S
O287 C289 1.214 . S
O288 Cd284 2.352 . S
O288 C291 1.258 . S
C289 O286 1.320 . S
C289 O287 1.214 . S
O290 Cd282 2.277 . S
O290 C285 1.209 . S
C291 O288 1.258 . S
C291 O293 1.282 . S
O292 Cd284 2.277 . S
O292 C285 1.226 . S
O293 Cd284 2.356 . S
O293 C291 1.282 . S
C294 O295 1.306 1_455 S
C294 O297 1.160 . S
O295 C294 1.306 1_655 S
O295 Cd296 2.228 . S
Cd296 O295 2.228 . S
Cd296 O300 2.273 . S
Cd296 O304 2.277 1_655 S
O297 C294 1.160 . S
O297 Cd298 2.203 . S
Cd298 O297 2.203 . S
Cd298 O300 2.411 1_455 S
Cd298 O301 2.333 1_554 S
Cd298 O302 2.352 . S
Cd298 O306 2.277 . S
Cd298 O307 2.356 . S
C299 O304 1.209 . S
C299 O306 1.226 . S
O300 Cd296 2.273 . S
O300 Cd298 2.411 1_655 S
O300 C303 1.320 1_654 S
O301 Cd298 2.333 1_556 S
O301 C303 1.214 . S
O302 Cd298 2.352 . S
O302 C305 1.258 . S
C303 O300 1.320 1_456 S
C303 O301 1.214 . S
O304 Cd296 2.277 1_455 S
O304 C299 1.209 . S
C305 O302 1.258 . S
C305 O307 1.282 . S
O306 Cd298 2.277 . S
O306 C299 1.226 . S
O307 Cd298 2.356 . S
O307 C305 1.282 . S
C308 O309 1.306 . S
C308 O311 1.160 . S
O309 C308 1.306 . S
O309 Cd310 2.228 . S
Cd310 O309 2.228 . S
Cd310 O314 2.273 . S
Cd310 O318 2.277 . S
O311 C308 1.160 . S
O311 Cd312 2.203 . S
Cd312 O311 2.203 . S
Cd312 O314 2.411 . S
Cd312 O315 2.333 . S
Cd312 O316 2.352 . S
Cd312 O320 2.277 . S
Cd312 O321 2.356 . S
C313 O318 1.209 . S
C313 O320 1.226 . S
O314 Cd310 2.273 . S
O314 Cd312 2.411 . S
O314 C317 1.320 . S
O315 Cd312 2.333 . S
O315 C317 1.214 . S
O316 Cd312 2.352 . S
O316 C319 1.258 . S
C317 O314 1.320 . S
C317 O315 1.214 . S
O318 Cd310 2.277 . S
O318 C313 1.209 . S
C319 O316 1.258 . S
C319 O321 1.282 . S
O320 Cd312 2.277 . S
O320 C313 1.226 . S
O321 Cd312 2.356 . S
O321 C319 1.282 . S
C322 O323 1.306 . S
C322 O325 1.160 . S
O323 C322 1.306 . S
O323 Cd324 2.228 . S
Cd324 O323 2.228 . S
Cd324 O328 2.273 . S
Cd324 O332 2.277 . S
O325 C322 1.160 . S
O325 Cd326 2.203 . S
Cd326 O325 2.203 . S
Cd326 O328 2.411 . S
Cd326 O329 2.333 . S
Cd326 O330 2.352 . S
Cd326 O334 2.277 . S
Cd326 O335 2.356 . S
C327 O332 1.209 . S
C327 O334 1.226 . S
O328 Cd324 2.273 . S
O328 Cd326 2.411 . S
O328 C331 1.320 . S
O329 Cd326 2.333 . S
O329 C331 1.214 . S
O330 Cd326 2.352 . S
O330 C333 1.258 . S
C331 O328 1.320 . S
C331 O329 1.214 . S
O332 Cd324 2.277 . S
O332 C327 1.209 . S
C333 O330 1.258 . S
C333 O335 1.282 . S
O334 Cd326 2.277 . S
O334 C327 1.226 . S
O335 Cd326 2.356 . S
O335 C333 1.282 . S
C336 O337 1.306 . S
C336 O339 1.160 . S
O337 C336 1.306 . S
O337 Cd338 2.228 . S
Cd338 O337 2.228 . S
Cd338 O342 2.273 . S
Cd338 O346 2.277 . S
O339 C336 1.160 . S
O339 Cd340 2.203 . S
Cd340 O339 2.203 . S
Cd340 O342 2.411 . S
Cd340 O343 2.333 . S
Cd340 O344 2.352 . S
Cd340 O348 2.277 . S
Cd340 O349 2.356 . S
C341 O346 1.209 . S
C341 O348 1.226 . S
O342 Cd338 2.273 . S
O342 Cd340 2.411 . S
O342 C345 1.320 . S
O343 Cd340 2.333 . S
O343 C345 1.214 . S
O344 Cd340 2.352 . S
O344 C347 1.258 . S
C345 O342 1.320 . S
C345 O343 1.214 . S
O346 Cd338 2.277 . S
O346 C341 1.209 . S
C347 O344 1.258 . S
C347 O349 1.282 . S
O348 Cd340 2.277 . S
O348 C341 1.226 . S
O349 Cd340 2.356 . S
O349 C347 1.282 . S
C350 O351 1.306 . S
C350 O353 1.160 . S
O351 C350 1.306 . S
O351 Cd352 2.228 . S
Cd352 O351 2.228 . S
Cd352 O356 2.273 . S
Cd352 O360 2.277 . S
O353 C350 1.160 . S
O353 Cd354 2.203 . S
Cd354 O353 2.203 . S
Cd354 O356 2.411 . S
Cd354 O357 2.333 1_554 S
Cd354 O358 2.352 . S
Cd354 O362 2.277 . S
Cd354 O363 2.356 . S
C355 O360 1.209 . S
C355 O362 1.226 . S
O356 Cd352 2.273 . S
O356 Cd354 2.411 . S
O356 C359 1.320 1_554 S
O357 Cd354 2.333 1_556 S
O357 C359 1.214 . S
O358 Cd354 2.352 . S
O358 C361 1.258 . S
C359 O356 1.320 1_556 S
C359 O357 1.214 . S
O360 Cd352 2.277 . S
O360 C355 1.209 . S
C361 O358 1.258 . S
C361 O363 1.282 . S
O362 Cd354 2.277 . S
O362 C355 1.226 . S
O363 Cd354 2.356 . S
O363 C361 1.282 . S
C364 O365 1.306 . S
C364 O367 1.160 . S
O365 C364 1.306 . S
O365 Cd366 2.228 1_554 S
Cd366 O365 2.228 1_556 S
Cd366 O370 2.273 . S
Cd366 O374 2.277 . S
O367 C364 1.160 . S
O367 Cd368 2.203 1_554 S
Cd368 O367 2.203 1_556 S
Cd368 O370 2.411 . S
Cd368 O371 2.333 . S
Cd368 O372 2.352 . S
Cd368 O376 2.277 . S
Cd368 O377 2.356 . S
C369 O374 1.209 . S
C369 O376 1.226 . S
O370 Cd366 2.273 . S
O370 Cd368 2.411 . S
O370 C373 1.320 . S
O371 Cd368 2.333 . S
O371 C373 1.214 . S
O372 Cd368 2.352 . S
O372 C375 1.258 . S
C373 O370 1.320 . S
C373 O371 1.214 . S
O374 Cd366 2.277 . S
O374 C369 1.209 . S
C375 O372 1.258 . S
C375 O377 1.282 . S
O376 Cd368 2.277 . S
O376 C369 1.226 . S
O377 Cd368 2.356 . S
O377 C375 1.282 . S
C378 O379 1.306 1_655 S
C378 O381 1.160 . S
O379 C378 1.306 1_455 S
O379 Cd380 2.228 . S
Cd380 O379 2.228 . S
Cd380 O384 2.273 . S
Cd380 O388 2.277 1_455 S
O381 C378 1.160 . S
O381 Cd382 2.203 . S
Cd382 O381 2.203 . S
Cd382 O384 2.411 1_655 S
Cd382 O385 2.333 . S
Cd382 O386 2.352 . S
Cd382 O390 2.277 . S
Cd382 O391 2.356 . S
C383 O388 1.209 . S
C383 O390 1.226 . S
O384 Cd380 2.273 . S
O384 Cd382 2.411 1_455 S
O384 C387 1.320 1_455 S
O385 Cd382 2.333 . S
O385 C387 1.214 . S
O386 Cd382 2.352 . S
O386 C389 1.258 . S
C387 O384 1.320 1_655 S
C387 O385 1.214 . S
O388 Cd380 2.277 1_655 S
O388 C383 1.209 . S
C389 O386 1.258 . S
C389 O391 1.282 . S
O390 Cd382 2.277 . S
O390 C383 1.226 . S
O391 Cd382 2.356 . S
O391 C389 1.282 . S
C392 O393 1.306 . S
C392 O395 1.160 . S
O393 C392 1.306 . S
O393 Cd394 2.228 1_556 S
Cd394 O393 2.228 1_554 S
Cd394 O398 2.273 . S
Cd394 O402 2.277 . S
O395 C392 1.160 . S
O395 Cd396 2.203 1_556 S
Cd396 O395 2.203 1_554 S
Cd396 O398 2.411 . S
Cd396 O399 2.333 . S
Cd396 O400 2.352 . S
Cd396 O404 2.277 . S
Cd396 O405 2.356 . S
C397 O402 1.209 . S
C397 O404 1.226 . S
O398 Cd394 2.273 . S
O398 Cd396 2.411 . S
O398 C401 1.320 . S
O399 Cd396 2.333 . S
O399 C401 1.214 . S
O400 Cd396 2.352 . S
O400 C403 1.258 . S
C401 O398 1.320 . S
C401 O399 1.214 . S
O402 Cd394 2.277 . S
O402 C397 1.209 . S
C403 O400 1.258 . S
C403 O405 1.282 . S
O404 Cd396 2.277 . S
O404 C397 1.226 . S
O405 Cd396 2.356 . S
O405 C403 1.282 . S
C406 O407 1.306 1_655 S
C406 O409 1.160 . S
O407 C406 1.306 1_455 S
O407 Cd408 2.228 . S
Cd408 O407 2.228 . S
Cd408 O412 2.273 . S
Cd408 O416 2.277 1_455 S
O409 C406 1.160 . S
O409 Cd410 2.203 . S
Cd410 O409 2.203 . S
Cd410 O412 2.411 1_655 S
Cd410 O413 2.333 1_556 S
Cd410 O414 2.352 . S
Cd410 O418 2.277 . S
Cd410 O419 2.356 . S
C411 O416 1.209 . S
C411 O418 1.226 . S
O412 Cd408 2.273 . S
O412 Cd410 2.411 1_455 S
O412 C415 1.320 1_456 S
O413 Cd410 2.333 1_554 S
O413 C415 1.214 . S
O414 Cd410 2.352 . S
O414 C417 1.258 . S
C415 O412 1.320 1_654 S
C415 O413 1.214 . S
O416 Cd408 2.277 1_655 S
O416 C411 1.209 . S
C417 O414 1.258 . S
C417 O419 1.282 . S
O418 Cd410 2.277 . S
O418 C411 1.226 . S
O419 Cd410 2.356 . S
O419 C417 1.282 . S
C420 O421 1.306 . S
C420 O423 1.160 . S
O421 C420 1.306 . S
O421 Cd422 2.228 . S
Cd422 O421 2.228 . S
Cd422 O426 2.273 . S
Cd422 O430 2.277 . S
O423 C420 1.160 . S
O423 Cd424 2.203 . S
Cd424 O423 2.203 . S
Cd424 O426 2.411 . S
Cd424 O427 2.333 . S
Cd424 O428 2.352 . S
Cd424 O432 2.277 . S
Cd424 O433 2.356 . S
C425 O430 1.209 . S
C425 O432 1.226 . S
O426 Cd422 2.273 . S
O426 Cd424 2.411 . S
O426 C429 1.320 . S
O427 Cd424 2.333 . S
O427 C429 1.214 . S
O428 Cd424 2.352 . S
O428 C431 1.258 . S
C429 O426 1.320 . S
C429 O427 1.214 . S
O430 Cd422 2.277 . S
O430 C425 1.209 . S
C431 O428 1.258 . S
C431 O433 1.282 . S
O432 Cd424 2.277 . S
O432 C425 1.226 . S
O433 Cd424 2.356 . S
O433 C431 1.282 . S
C434 O435 1.306 . S
C434 O437 1.160 . S
O435 C434 1.306 . S
O435 Cd436 2.228 . S
Cd436 O435 2.228 . S
Cd436 O440 2.273 . S
Cd436 O444 2.277 . S
O437 C434 1.160 . S
O437 Cd438 2.203 . S
Cd438 O437 2.203 . S
Cd438 O440 2.411 . S
Cd438 O441 2.333 . S
Cd438 O442 2.352 . S
Cd438 O446 2.277 . S
Cd438 O447 2.356 . S
C439 O444 1.209 . S
C439 O446 1.226 . S
O440 Cd436 2.273 . S
O440 Cd438 2.411 . S
O440 C443 1.320 . S
O441 Cd438 2.333 . S
O441 C443 1.214 . S
O442 Cd438 2.352 . S
O442 C445 1.258 . S
C443 O440 1.320 . S
C443 O441 1.214 . S
O444 Cd436 2.277 . S
O444 C439 1.209 . S
C445 O442 1.258 . S
C445 O447 1.282 . S
O446 Cd438 2.277 . S
O446 C439 1.226 . S
O447 Cd438 2.356 . S
O447 C445 1.282 . S
C89 C5 1.566 1_556 S
C19 C103 1.566 1_565 S
C61 C33 1.566 . S
C47 C75 1.566 1_545 S
C201 C117 1.566 1_554 S
C215 C131 1.566 1_565 S
C145 C173 1.566 . S
C159 C187 1.567 1_565 S
C229 C313 1.566 . S
C243 C327 1.566 . S
C285 C257 1.566 1_556 S
C299 C271 1.566 . S
C341 C425 1.566 . S
C439 C355 1.567 . S
C397 C369 1.566 1_554 S
C383 C411 1.566 . S
C0 C429 1.302 . S
C219 C14 1.302 1_455 S
C28 C401 1.302 . S
C42 C191 1.302 . S
C373 C56 1.302 . S
C163 C70 1.302 . S
C84 C345 1.302 . S
C135 C98 1.302 1_455 S
C112 C317 1.302 . S
C107 C126 1.302 1_655 S
C140 C289 1.302 . S
C154 C79 1.302 . S
C261 C168 1.302 . S
C182 C51 1.302 . S
C196 C233 1.302 . S
C23 C210 1.302 1_655 S
C224 C205 1.302 . S
C238 C443 1.302 . S
C177 C252 1.302 . S
C266 C415 1.302 1_455 S
C149 C280 1.302 . S
C387 C294 1.302 1_655 S
C121 C308 1.302 . S
C359 C322 1.302 . S
C336 C93 1.302 . S
C331 C350 1.302 . S
C65 C364 1.302 . S
C378 C303 1.302 1_655 S
C392 C37 1.302 . S
C406 C275 1.302 1_655 S
C9 C420 1.302 . S
C434 C247 1.302 . S
C11 C305 1.487 . S
C319 C25 1.487 . S
C39 C333 1.487 . S
C291 C53 1.487 . S
C277 C67 1.486 . S
C235 C81 1.487 . S
C249 C95 1.487 . S
C263 C109 1.487 . S
C123 C417 1.487 . S
C431 C137 1.486 . S
C445 C151 1.487 . S
C403 C165 1.487 . S
C389 C179 1.486 . S
C347 C193 1.487 . S
C207 C361 1.487 . S
C221 C375 1.487 . S
