# Generated by pormake.
# Topology mer, (4)-cn, num edge types: 1
# Building blocks:
#     Node 0, Type 0, BuildingBlock: ICAMEG_clean_sbu_1, # of connection points: 4
#     Node 1, Type 0, BuildingBlock: ICAMEG_clean_sbu_1, # of connection points: 4
#     Node 2, Type 0, BuildingBlock: ICAMEG_clean_sbu_1, # of connection points: 4
#     Node 3, Type 0, BuildingBlock: ICAMEG_clean_sbu_1, # of connection points: 4
#     Node 4, Type 0, BuildingBlock: ICAMEG_clean_sbu_1, # of connection points: 4
#     Node 5, Type 0, BuildingBlock: ICAMEG_clean_sbu_1, # of connection points: 4
#     Node 6, Type 0, BuildingBlock: ICAMEG_clean_sbu_1, # of connection points: 4
#     Node 7, Type 0, BuildingBlock: ICAMEG_clean_sbu_1, # of connection points: 4
#     Node 8, Type 0, BuildingBlock: ICAMEG_clean_sbu_1, # of connection points: 4
#     Node 9, Type 0, BuildingBlock: ICAMEG_clean_sbu_1, # of connection points: 4
#     Node 10, Type 0, BuildingBlock: ICAMEG_clean_sbu_1, # of connection points: 4
#     Node 11, Type 0, BuildingBlock: ICAMEG_clean_sbu_1, # of connection points: 4
#     Node 12, Type 0, BuildingBlock: ICAMEG_clean_sbu_1, # of connection points: 4
#     Node 13, Type 0, BuildingBlock: ICAMEG_clean_sbu_1, # of connection points: 4
#     Node 14, Type 0, BuildingBlock: ICAMEG_clean_sbu_1, # of connection points: 4
#     Node 15, Type 0, BuildingBlock: ICAMEG_clean_sbu_1, # of connection points: 4
#     Node 16, Type 0, BuildingBlock: ICAMEG_clean_sbu_1, # of connection points: 4
#     Node 17, Type 0, BuildingBlock: ICAMEG_clean_sbu_1, # of connection points: 4
#     Node 18, Type 0, BuildingBlock: ICAMEG_clean_sbu_1, # of connection points: 4
#     Node 19, Type 0, BuildingBlock: ICAMEG_clean_sbu_1, # of connection points: 4
#     Node 20, Type 0, BuildingBlock: ICAMEG_clean_sbu_1, # of connection points: 4
#     Node 21, Type 0, BuildingBlock: ICAMEG_clean_sbu_1, # of connection points: 4
#     Node 22, Type 0, BuildingBlock: ICAMEG_clean_sbu_1, # of connection points: 4
#     Node 23, Type 0, BuildingBlock: ICAMEG_clean_sbu_1, # of connection points: 4
#     Node 24, Type 0, BuildingBlock: ICAMEG_clean_sbu_1, # of connection points: 4
#     Node 25, Type 0, BuildingBlock: ICAMEG_clean_sbu_1, # of connection points: 4
#     Node 26, Type 0, BuildingBlock: ICAMEG_clean_sbu_1, # of connection points: 4
#     Node 27, Type 0, BuildingBlock: ICAMEG_clean_sbu_1, # of connection points: 4
#     Node 28, Type 0, BuildingBlock: ICAMEG_clean_sbu_1, # of connection points: 4
#     Node 29, Type 0, BuildingBlock: ICAMEG_clean_sbu_1, # of connection points: 4
#     Node 30, Type 0, BuildingBlock: ICAMEG_clean_sbu_1, # of connection points: 4
#     Node 31, Type 0, BuildingBlock: ICAMEG_clean_sbu_1, # of connection points: 4
#     Edge 32, Type (0, 0), BuildingBlock: OJICUG_clean_linker_0, # of connection points: 2
#     Edge 33, Type (0, 0), BuildingBlock: OJICUG_clean_linker_0, # of connection points: 2
#     Edge 34, Type (0, 0), BuildingBlock: OJICUG_clean_linker_0, # of connection points: 2
#     Edge 35, Type (0, 0), BuildingBlock: OJICUG_clean_linker_0, # of connection points: 2
#     Edge 36, Type (0, 0), BuildingBlock: OJICUG_clean_linker_0, # of connection points: 2
#     Edge 37, Type (0, 0), BuildingBlock: OJICUG_clean_linker_0, # of connection points: 2
#     Edge 38, Type (0, 0), BuildingBlock: OJICUG_clean_linker_0, # of connection points: 2
#     Edge 39, Type (0, 0), BuildingBlock: OJICUG_clean_linker_0, # of connection points: 2
#     Edge 40, Type (0, 0), BuildingBlock: OJICUG_clean_linker_0, # of connection points: 2
#     Edge 41, Type (0, 0), BuildingBlock: OJICUG_clean_linker_0, # of connection points: 2
#     Edge 42, Type (0, 0), BuildingBlock: OJICUG_clean_linker_0, # of connection points: 2
#     Edge 43, Type (0, 0), BuildingBlock: OJICUG_clean_linker_0, # of connection points: 2
#     Edge 44, Type (0, 0), BuildingBlock: OJICUG_clean_linker_0, # of connection points: 2
#     Edge 45, Type (0, 0), BuildingBlock: OJICUG_clean_linker_0, # of connection points: 2
#     Edge 46, Type (0, 0), BuildingBlock: OJICUG_clean_linker_0, # of connection points: 2
#     Edge 47, Type (0, 0), BuildingBlock: OJICUG_clean_linker_0, # of connection points: 2
#     Edge 48, Type (0, 0), BuildingBlock: OJICUG_clean_linker_0, # of connection points: 2
#     Edge 49, Type (0, 0), BuildingBlock: OJICUG_clean_linker_0, # of connection points: 2
#     Edge 50, Type (0, 0), BuildingBlock: OJICUG_clean_linker_0, # of connection points: 2
#     Edge 51, Type (0, 0), BuildingBlock: OJICUG_clean_linker_0, # of connection points: 2
#     Edge 52, Type (0, 0), BuildingBlock: OJICUG_clean_linker_0, # of connection points: 2
#     Edge 53, Type (0, 0), BuildingBlock: OJICUG_clean_linker_0, # of connection points: 2
#     Edge 54, Type (0, 0), BuildingBlock: OJICUG_clean_linker_0, # of connection points: 2
#     Edge 55, Type (0, 0), BuildingBlock: OJICUG_clean_linker_0, # of connection points: 2
#     Edge 56, Type (0, 0), BuildingBlock: OJICUG_clean_linker_0, # of connection points: 2
#     Edge 57, Type (0, 0), BuildingBlock: OJICUG_clean_linker_0, # of connection points: 2
#     Edge 58, Type (0, 0), BuildingBlock: OJICUG_clean_linker_0, # of connection points: 2
#     Edge 59, Type (0, 0), BuildingBlock: OJICUG_clean_linker_0, # of connection points: 2
#     Edge 60, Type (0, 0), BuildingBlock: OJICUG_clean_linker_0, # of connection points: 2
#     Edge 61, Type (0, 0), BuildingBlock: OJICUG_clean_linker_0, # of connection points: 2
#     Edge 62, Type (0, 0), BuildingBlock: OJICUG_clean_linker_0, # of connection points: 2
#     Edge 63, Type (0, 0), BuildingBlock: OJICUG_clean_linker_0, # of connection points: 2
#     Edge 64, Type (0, 0), BuildingBlock: OJICUG_clean_linker_0, # of connection points: 2
#     Edge 65, Type (0, 0), BuildingBlock: OJICUG_clean_linker_0, # of connection points: 2
#     Edge 66, Type (0, 0), BuildingBlock: OJICUG_clean_linker_0, # of connection points: 2
#     Edge 67, Type (0, 0), BuildingBlock: OJICUG_clean_linker_0, # of connection points: 2
#     Edge 68, Type (0, 0), BuildingBlock: OJICUG_clean_linker_0, # of connection points: 2
#     Edge 69, Type (0, 0), BuildingBlock: OJICUG_clean_linker_0, # of connection points: 2
#     Edge 70, Type (0, 0), BuildingBlock: OJICUG_clean_linker_0, # of connection points: 2
#     Edge 71, Type (0, 0), BuildingBlock: OJICUG_clean_linker_0, # of connection points: 2
#     Edge 72, Type (0, 0), BuildingBlock: OJICUG_clean_linker_0, # of connection points: 2
#     Edge 73, Type (0, 0), BuildingBlock: OJICUG_clean_linker_0, # of connection points: 2
#     Edge 74, Type (0, 0), BuildingBlock: OJICUG_clean_linker_0, # of connection points: 2
#     Edge 75, Type (0, 0), BuildingBlock: OJICUG_clean_linker_0, # of connection points: 2
#     Edge 76, Type (0, 0), BuildingBlock: OJICUG_clean_linker_0, # of connection points: 2
#     Edge 77, Type (0, 0), BuildingBlock: OJICUG_clean_linker_0, # of connection points: 2
#     Edge 78, Type (0, 0), BuildingBlock: OJICUG_clean_linker_0, # of connection points: 2
#     Edge 79, Type (0, 0), BuildingBlock: OJICUG_clean_linker_0, # of connection points: 2
#     Edge 80, Type (0, 0), BuildingBlock: OJICUG_clean_linker_0, # of connection points: 2
#     Edge 81, Type (0, 0), BuildingBlock: OJICUG_clean_linker_0, # of connection points: 2
#     Edge 82, Type (0, 0), BuildingBlock: OJICUG_clean_linker_0, # of connection points: 2
#     Edge 83, Type (0, 0), BuildingBlock: OJICUG_clean_linker_0, # of connection points: 2
#     Edge 84, Type (0, 0), BuildingBlock: OJICUG_clean_linker_0, # of connection points: 2
#     Edge 85, Type (0, 0), BuildingBlock: OJICUG_clean_linker_0, # of connection points: 2
#     Edge 86, Type (0, 0), BuildingBlock: OJICUG_clean_linker_0, # of connection points: 2
#     Edge 87, Type (0, 0), BuildingBlock: OJICUG_clean_linker_0, # of connection points: 2
#     Edge 88, Type (0, 0), BuildingBlock: OJICUG_clean_linker_0, # of connection points: 2
#     Edge 89, Type (0, 0), BuildingBlock: OJICUG_clean_linker_0, # of connection points: 2
#     Edge 90, Type (0, 0), BuildingBlock: OJICUG_clean_linker_0, # of connection points: 2
#     Edge 91, Type (0, 0), BuildingBlock: OJICUG_clean_linker_0, # of connection points: 2
#     Edge 92, Type (0, 0), BuildingBlock: OJICUG_clean_linker_0, # of connection points: 2
#     Edge 93, Type (0, 0), BuildingBlock: OJICUG_clean_linker_0, # of connection points: 2
#     Edge 94, Type (0, 0), BuildingBlock: OJICUG_clean_linker_0, # of connection points: 2
#     Edge 95, Type (0, 0), BuildingBlock: OJICUG_clean_linker_0, # of connection points: 2
# Relax obj value: 0.031
# Max RMSD: 0.076
# Mean RMSD: 0.076
data_MOF--net-mer--node1-ICAMEG_clean_sbu_1--edge1-OJICUG_clean_linker_0
_symmetry_space_group_name_H-M    P1
_symmetry_Int_Tables_number       1
_symmetry_cell_setting            triclinic
loop_
_symmetry_equiv_pos_as_xyz
'x, y, z'
_cell_length_a     48.686122
_cell_length_b     48.684681
_cell_length_c     44.090087
_cell_angle_alpha  90.000025
_cell_angle_beta   90.000039
_cell_angle_gamma 89.999703
loop_
_atom_site_label
_atom_site_type_symbol
_atom_site_fract_x
_atom_site_fract_y
_atom_site_fract_z
_atom_type_partial_charge
Co0 Co 0.15527 0.31451 0.38047 0.0
Co1 Co 0.10799 0.26172 0.38295 0.0
O2 O 0.12166 0.29633 0.36666 0.0
C3 C 0.16268 0.30603 0.31488 0.0
O4 O 0.15347 0.28107 0.31958 0.0
C5 C 0.05898 0.29783 0.39075 0.0
O6 O 0.07411 0.31573 0.4055 0.0
O7 O 0.1112 0.27591 0.42501 0.0
O8 O 0.14598 0.30636 0.424 0.0
H9 H 0.10756 0.18127 0.45433 0.0
H10 H 0.11692 0.34369 0.33932 0.0
O11 O 0.16514 0.32271 0.33704 0.0
H12 H 0.12182 0.40068 0.43164 0.0
H13 H 0.22668 0.38923 0.37812 0.0
H14 H 0.19786 0.30267 0.42674 0.0
H15 H 0.1489 0.35803 0.42754 0.0
H16 H 0.1842 0.36576 0.36196 0.0
O17 O 0.06958 0.27587 0.38033 0.0
H18 H 0.12521 0.22452 0.43267 0.0
H19 H 0.06005 0.22578 0.36863 0.0
H20 H 0.24035 0.32556 0.4438 0.0
H21 H 0.08964 0.3863 0.34237 0.0
H22 H 0.255 0.36916 0.41941 0.0
H23 H 0.09196 0.41509 0.38882 0.0
O24 O 0.17684 0.27979 0.37792 0.0
H25 H 0.08094 0.26674 0.2731 0.0
H26 H 0.12557 0.2102 0.35173 0.0
H27 H 0.12297 0.19292 0.29924 0.0
H28 H 0.1005 0.22126 0.25951 0.0
H29 H 0.08428 0.28338 0.32582 0.0
H30 H 0.04156 0.18266 0.38976 0.0
H31 H 0.06543 0.16006 0.43284 0.0
O32 O 0.14584 0.24646 0.38567 0.0
C33 C 0.12803 0.2921 0.43818 0.0
C34 C 0.09703 0.19086 0.43548 0.0
C35 C 0.05997 0.19167 0.39926 0.0
N36 N 0.09382 0.22752 0.39924 0.0
C37 C 0.10698 0.21531 0.42306 0.0
C38 C 0.07051 0.2161 0.38743 0.0
C39 C 0.07338 0.17899 0.42343 0.0
C40 C 0.11819 0.35623 0.35951 0.0
N41 N 0.13459 0.34847 0.38314 0.0
C42 C 0.10263 0.38028 0.36115 0.0
C43 C 0.10392 0.39641 0.38723 0.0
C44 C 0.12066 0.38832 0.41127 0.0
C45 C 0.1359 0.36412 0.40884 0.0
C46 C 0.22048 0.37027 0.38896 0.0
C47 C 0.20402 0.32173 0.41617 0.0
C48 C 0.19649 0.35687 0.37986 0.0
N49 N 0.18848 0.333 0.39357 0.0
C50 C 0.22813 0.33455 0.42586 0.0
C51 C 0.23636 0.359 0.41214 0.0
C52 C 0.17047 0.25469 0.38213 0.0
C53 C 0.09071 0.25417 0.29024 0.0
C54 C 0.11586 0.2227 0.33456 0.0
C55 C 0.11437 0.21277 0.30489 0.0
C56 C 0.10173 0.22867 0.28261 0.0
N57 N 0.10503 0.24775 0.34186 0.0
C58 C 0.09254 0.26343 0.32015 0.0
Co59 Co 0.68532 0.1554 0.38047 0.0
Co60 Co 0.73817 0.1082 0.38315 0.0
O61 O 0.70361 0.12183 0.3667 0.0
C62 C 0.69391 0.16284 0.31489 0.0
O63 O 0.71887 0.15366 0.31961 0.0
C64 C 0.70211 0.05913 0.39065 0.0
O65 O 0.6841 0.07423 0.40528 0.0
O66 O 0.72379 0.11132 0.42513 0.0
O67 O 0.69338 0.14613 0.42404 0.0
H68 H 0.81826 0.10784 0.45502 0.0
H69 H 0.65632 0.11699 0.33924 0.0
O70 O 0.6772 0.16527 0.33703 0.0
H71 H 0.5991 0.12176 0.43139 0.0
H72 H 0.61047 0.22666 0.37792 0.0
H73 H 0.69698 0.19802 0.42677 0.0
H74 H 0.6417 0.14894 0.42741 0.0
H75 H 0.63405 0.18423 0.36183 0.0
O76 O 0.72411 0.06976 0.3804 0.0
H77 H 0.77509 0.12544 0.43312 0.0
H78 H 0.77429 0.06035 0.36896 0.0
H79 H 0.67397 0.24047 0.44376 0.0
H80 H 0.61377 0.08961 0.34216 0.0
H81 H 0.6304 0.25504 0.41926 0.0
H82 H 0.58486 0.09187 0.38852 0.0
O83 O 0.72001 0.17703 0.37802 0.0
H84 H 0.73373 0.08129 0.27323 0.0
H85 H 0.7898 0.12593 0.35227 0.0
H86 H 0.80734 0.12342 0.29988 0.0
H87 H 0.77924 0.10094 0.25994 0.0
H88 H 0.71683 0.08452 0.32585 0.0
H89 H 0.81733 0.04192 0.39033 0.0
H90 H 0.83966 0.06578 0.4336 0.0
O91 O 0.75334 0.14608 0.38601 0.0
C92 C 0.70756 0.12814 0.43826 0.0
C93 C 0.80878 0.09732 0.43609 0.0
C94 C 0.80824 0.0603 0.39981 0.0
N95 N 0.77232 0.09409 0.39962 0.0
C96 C 0.78438 0.10723 0.42354 0.0
C97 C 0.78385 0.07081 0.38784 0.0
C98 C 0.82076 0.0737 0.42409 0.0
C99 C 0.64374 0.11824 0.35939 0.0
N100 N 0.6514 0.13465 0.38305 0.0
C101 C 0.61971 0.10262 0.36096 0.0
C102 C 0.60352 0.10387 0.38699 0.0
C103 C 0.61151 0.12063 0.41105 0.0
C104 C 0.63568 0.13593 0.4087 0.0
C105 C 0.62942 0.2205 0.38881 0.0
C106 C 0.67793 0.20414 0.41615 0.0
C107 C 0.64288 0.19653 0.37976 0.0
N108 N 0.66674 0.18857 0.39352 0.0
C109 C 0.66504 0.22823 0.4258 0.0
C110 C 0.64061 0.23641 0.41201 0.0
C111 C 0.7451 0.1707 0.38238 0.0
C112 C 0.7462 0.09106 0.29046 0.0
C113 C 0.7774 0.11621 0.33501 0.0
C114 C 0.78748 0.11478 0.30539 0.0
C115 C 0.77171 0.10214 0.283 0.0
N116 N 0.75234 0.10532 0.34213 0.0
C117 C 0.73679 0.09284 0.32032 0.0
Co118 Co 0.84463 0.68547 0.38041 0.0
Co119 Co 0.89173 0.73842 0.3831 0.0
O120 O 0.87816 0.70385 0.36662 0.0
C121 C 0.83711 0.69417 0.31488 0.0
O122 O 0.84623 0.71915 0.31966 0.0
C123 C 0.94089 0.70246 0.39054 0.0
O124 O 0.92583 0.6844 0.40515 0.0
O125 O 0.88868 0.72398 0.42507 0.0
O126 O 0.85394 0.69349 0.42397 0.0
H127 H 0.892 0.81844 0.45506 0.0
H128 H 0.88304 0.65661 0.33907 0.0
O129 O 0.83474 0.67741 0.33697 0.0
H130 H 0.87849 0.59924 0.43111 0.0
H131 H 0.77352 0.61048 0.37782 0.0
H132 H 0.80205 0.69698 0.4268 0.0
H133 H 0.85123 0.6418 0.42726 0.0
H134 H 0.81588 0.63419 0.3617 0.0
O135 O 0.93019 0.72444 0.3803 0.0
H136 H 0.87448 0.77525 0.43314 0.0
H137 H 0.93949 0.77465 0.36889 0.0
H138 H 0.75968 0.67385 0.44382 0.0
H139 H 0.9105 0.61409 0.34187 0.0
H140 H 0.74517 0.63028 0.41925 0.0
H141 H 0.90835 0.58512 0.38818 0.0
O142 O 0.82293 0.72013 0.37805 0.0
H143 H 0.91855 0.73413 0.27315 0.0
H144 H 0.87386 0.79004 0.35229 0.0
H145 H 0.87626 0.80762 0.29992 0.0
H146 H 0.89877 0.77961 0.25993 0.0
H147 H 0.91541 0.71718 0.32576 0.0
H148 H 0.95784 0.81772 0.39028 0.0
H149 H 0.93398 0.83996 0.4336 0.0
O150 O 0.85383 0.7535 0.38603 0.0
C151 C 0.87191 0.7077 0.43819 0.0
C152 C 0.90252 0.809 0.43611 0.0
C153 C 0.93949 0.80858 0.39977 0.0
N154 N 0.90579 0.77258 0.39959 0.0
C155 C 0.89265 0.78459 0.42355 0.0
C156 C 0.92902 0.78417 0.38779 0.0
C157 C 0.92609 0.82105 0.42408 0.0
C158 C 0.88184 0.64399 0.35919 0.0
N159 N 0.86545 0.65159 0.38289 0.0
C160 C 0.89751 0.61999 0.36069 0.0
C161 C 0.89632 0.60376 0.3867 0.0
C162 C 0.87958 0.61168 0.4108 0.0
C163 C 0.86423 0.63583 0.40851 0.0
C164 C 0.77966 0.62943 0.38874 0.0
C165 C 0.79596 0.67793 0.41615 0.0
C166 C 0.80358 0.64296 0.37967 0.0
N167 N 0.81151 0.66681 0.39347 0.0
C168 C 0.77191 0.66497 0.42582 0.0
C169 C 0.76376 0.64054 0.412 0.0
C170 C 0.82922 0.74523 0.38244 0.0
C171 C 0.90877 0.74657 0.2904 0.0
C172 C 0.88359 0.77767 0.33501 0.0
C173 C 0.88496 0.78778 0.3054 0.0
C174 C 0.89762 0.77206 0.28298 0.0
N175 N 0.89454 0.75263 0.3421 0.0
C176 C 0.90704 0.73713 0.32025 0.0
Co177 Co 0.31491 0.84452 0.38037 0.0
Co178 Co 0.26216 0.89182 0.3831 0.0
O179 O 0.29668 0.87813 0.36662 0.0
C180 C 0.30622 0.83709 0.31482 0.0
O181 O 0.28128 0.84632 0.31958 0.0
C182 C 0.29822 0.9409 0.39069 0.0
O183 O 0.31618 0.92584 0.40544 0.0
O184 O 0.27656 0.88867 0.42508 0.0
O185 O 0.30691 0.85381 0.42393 0.0
H186 H 0.18209 0.89231 0.45501 0.0
H187 H 0.34395 0.88286 0.33911 0.0
O188 O 0.32297 0.83464 0.33692 0.0
H189 H 0.40126 0.87796 0.43118 0.0
H190 H 0.38961 0.7731 0.37773 0.0
H191 H 0.30321 0.80193 0.42668 0.0
H192 H 0.35859 0.85088 0.42726 0.0
H193 H 0.3661 0.81558 0.36166 0.0
O194 O 0.27627 0.93023 0.38034 0.0
H195 H 0.22523 0.87465 0.43309 0.0
H196 H 0.22611 0.93973 0.36894 0.0
H197 H 0.32615 0.75943 0.44365 0.0
H198 H 0.38658 0.91014 0.34197 0.0
H199 H 0.36967 0.74477 0.41909 0.0
H200 H 0.41552 0.90782 0.3883 0.0
O201 O 0.28017 0.82296 0.37795 0.0
H202 H 0.2666 0.91873 0.27318 0.0
H203 H 0.21048 0.87419 0.35224 0.0
H204 H 0.19293 0.87672 0.29986 0.0
H205 H 0.22106 0.89915 0.25991 0.0
H206 H 0.28351 0.91547 0.3258 0.0
H207 H 0.1831 0.95823 0.39032 0.0
H208 H 0.16075 0.9344 0.43359 0.0
O209 O 0.24692 0.85397 0.38597 0.0
C210 C 0.29277 0.87182 0.43818 0.0
C211 C 0.19158 0.90282 0.43608 0.0
C212 C 0.19217 0.93983 0.39979 0.0
N213 N 0.22804 0.906 0.39959 0.0
C214 C 0.21596 0.89287 0.42352 0.0
C215 C 0.21654 0.92929 0.38782 0.0
C216 C 0.17963 0.92645 0.42407 0.0
C217 C 0.35656 0.88159 0.35924 0.0
N218 N 0.34888 0.86519 0.38291 0.0
C219 C 0.38062 0.89715 0.36077 0.0
C220 C 0.39683 0.89586 0.38679 0.0
C221 C 0.38883 0.87912 0.41086 0.0
C222 C 0.36462 0.86388 0.40853 0.0
C223 C 0.37069 0.7793 0.38864 0.0
C224 C 0.32224 0.79577 0.41604 0.0
C225 C 0.35726 0.80329 0.3796 0.0
N226 N 0.33344 0.81131 0.3934 0.0
C227 C 0.33509 0.77165 0.42567 0.0
C228 C 0.35949 0.76342 0.41186 0.0
C229 C 0.2551 0.82934 0.38233 0.0
C230 C 0.25412 0.90898 0.29041 0.0
C231 C 0.22289 0.88389 0.33497 0.0
C232 C 0.21281 0.88533 0.30536 0.0
C233 C 0.22859 0.89795 0.28296 0.0
N234 N 0.24798 0.89473 0.34209 0.0
C235 C 0.26353 0.90719 0.32027 0.0
Co236 Co 0.15538 0.68579 0.62757 0.0
Co237 Co 0.10832 0.73878 0.62495 0.0
O238 O 0.12187 0.70417 0.64136 0.0
C239 C 0.16287 0.69438 0.69313 0.0
O240 O 0.15375 0.71937 0.6884 0.0
C241 C 0.05922 0.70279 0.6174 0.0
O242 O 0.07433 0.68474 0.60284 0.0
O243 O 0.11144 0.72445 0.58293 0.0
O244 O 0.1461 0.69387 0.58402 0.0
H245 H 0.10821 0.81901 0.55327 0.0
H246 H 0.11693 0.6569 0.66883 0.0
O247 O 0.16525 0.67766 0.671 0.0
H248 H 0.12149 0.59966 0.57669 0.0
H249 H 0.22645 0.61076 0.63007 0.0
H250 H 0.19799 0.69734 0.58123 0.0
H251 H 0.14879 0.64218 0.58064 0.0
H252 H 0.1841 0.63446 0.6462 0.0
O253 O 0.06986 0.7248 0.62763 0.0
H254 H 0.12568 0.77575 0.57507 0.0
H255 H 0.06055 0.77498 0.63916 0.0
H256 H 0.24037 0.67422 0.5642 0.0
H257 H 0.08944 0.61441 0.66594 0.0
H258 H 0.25484 0.63061 0.5887 0.0
H259 H 0.09159 0.5855 0.61958 0.0
O260 O 0.1771 0.72043 0.63 0.0
H261 H 0.08133 0.73422 0.73483 0.0
H262 H 0.12614 0.79033 0.65595 0.0
H263 H 0.12365 0.80778 0.70838 0.0
H264 H 0.10108 0.77966 0.74824 0.0
H265 H 0.08456 0.7174 0.68218 0.0
H266 H 0.04224 0.81812 0.61789 0.0
H267 H 0.0662 0.84048 0.57471 0.0
O268 O 0.14624 0.75387 0.62215 0.0
C269 C 0.12818 0.70815 0.5698 0.0
C270 C 0.09765 0.80952 0.57216 0.0
C271 C 0.06061 0.809 0.60841 0.0
N272 N 0.0943 0.77299 0.60853 0.0
C273 C 0.10749 0.78507 0.58466 0.0
C274 C 0.07105 0.78455 0.62032 0.0
C275 C 0.07406 0.82154 0.58418 0.0
C276 C 0.11813 0.64431 0.64869 0.0
N277 N 0.13455 0.65192 0.62501 0.0
C278 C 0.10245 0.62032 0.64713 0.0
C279 C 0.10364 0.60413 0.6211 0.0
C280 C 0.1204 0.61207 0.59702 0.0
C281 C 0.13577 0.6362 0.59937 0.0
C282 C 0.22033 0.62972 0.61918 0.0
C283 C 0.20407 0.67827 0.59185 0.0
C284 C 0.19641 0.64326 0.62826 0.0
N285 N 0.1885 0.66713 0.61449 0.0
C286 C 0.22813 0.66532 0.58218 0.0
C287 C 0.23625 0.64087 0.59596 0.0
C288 C 0.17083 0.74555 0.62571 0.0
C289 C 0.09114 0.74669 0.71764 0.0
C290 C 0.11639 0.77792 0.67318 0.0
C291 C 0.11496 0.78795 0.70282 0.0
C292 C 0.10227 0.77217 0.72516 0.0
N293 N 0.10545 0.75289 0.66599 0.0
C294 C 0.09292 0.73734 0.68776 0.0
Co295 Co 0.31479 0.15541 0.62753 0.0
Co296 Co 0.26217 0.10793 0.62503 0.0
O297 O 0.29672 0.12173 0.64133 0.0
C298 C 0.3062 0.16281 0.69309 0.0
O299 O 0.28129 0.15349 0.68837 0.0
C300 C 0.29845 0.05904 0.61715 0.0
O301 O 0.31625 0.07422 0.60232 0.0
O302 O 0.27633 0.11123 0.58296 0.0
O303 O 0.30671 0.14607 0.58399 0.0
H304 H 0.18172 0.10721 0.55365 0.0
H305 H 0.34407 0.11718 0.66872 0.0
O306 O 0.3229 0.16533 0.67096 0.0
H307 H 0.40114 0.12228 0.57648 0.0
H308 H 0.38921 0.22712 0.62995 0.0
H309 H 0.30282 0.19794 0.58123 0.0
H310 H 0.35837 0.1492 0.58051 0.0
H311 H 0.3659 0.18455 0.64609 0.0
O312 O 0.27647 0.06958 0.62762 0.0
H313 H 0.22489 0.12504 0.57533 0.0
H314 H 0.22643 0.05982 0.63931 0.0
H315 H 0.32555 0.24052 0.56419 0.0
H316 H 0.3868 0.09007 0.66573 0.0
H317 H 0.36907 0.25536 0.58863 0.0
H318 H 0.41562 0.09249 0.61933 0.0
O319 O 0.27998 0.17684 0.63003 0.0
H320 H 0.26731 0.08084 0.73485 0.0
H321 H 0.21057 0.12528 0.65626 0.0
H322 H 0.1933 0.12256 0.70874 0.0
H323 H 0.22174 0.10018 0.74846 0.0
H324 H 0.28393 0.08429 0.68215 0.0
H325 H 0.18341 0.04116 0.61815 0.0
H326 H 0.1607 0.06496 0.57508 0.0
O327 O 0.24675 0.14573 0.62234 0.0
C328 C 0.2925 0.12808 0.5698 0.0
C329 C 0.19136 0.09671 0.57249 0.0
C330 C 0.19233 0.05962 0.60867 0.0
N331 N 0.22803 0.09364 0.60873 0.0
C332 C 0.21576 0.10676 0.58492 0.0
C333 C 0.21671 0.07026 0.62052 0.0
C334 C 0.17959 0.07299 0.5845 0.0
C335 C 0.35662 0.1185 0.64855 0.0
N336 N 0.34883 0.13486 0.6249 0.0
C337 C 0.38074 0.10303 0.64695 0.0
C338 C 0.39689 0.10438 0.62089 0.0
C339 C 0.38877 0.12108 0.59683 0.0
C340 C 0.3645 0.13623 0.59922 0.0
C341 C 0.37029 0.22084 0.61908 0.0
C342 C 0.32185 0.20418 0.59182 0.0
C343 C 0.35698 0.19679 0.62817 0.0
N344 N 0.33316 0.18868 0.61444 0.0
C345 C 0.33458 0.22835 0.58215 0.0
C346 C 0.35898 0.23667 0.59589 0.0
C347 C 0.2549 0.17039 0.62586 0.0
C348 C 0.25469 0.09057 0.71773 0.0
C349 C 0.22312 0.1156 0.67342 0.0
C350 C 0.21319 0.11405 0.70309 0.0
C351 C 0.22914 0.10147 0.72536 0.0
N352 N 0.24821 0.10489 0.66612 0.0
C353 C 0.26394 0.09246 0.68782 0.0
Co354 Co 0.84455 0.31459 0.62767 0.0
Co355 Co 0.89179 0.26178 0.62496 0.0
O356 O 0.87815 0.29634 0.64141 0.0
C357 C 0.83716 0.30596 0.69323 0.0
O358 O 0.84635 0.281 0.68848 0.0
C359 C 0.94089 0.29781 0.61729 0.0
O360 O 0.92582 0.31577 0.60255 0.0
O361 O 0.88862 0.27614 0.58297 0.0
O362 O 0.85381 0.30655 0.5841 0.0
H363 H 0.89218 0.18164 0.55315 0.0
H364 H 0.88295 0.34363 0.66887 0.0
O365 O 0.8347 0.32269 0.67111 0.0
H366 H 0.87803 0.40087 0.57675 0.0
H367 H 0.7732 0.38936 0.6303 0.0
H368 H 0.80193 0.3029 0.58139 0.0
H369 H 0.85092 0.35823 0.58073 0.0
H370 H 0.81567 0.36582 0.64635 0.0
O371 O 0.93022 0.27587 0.62767 0.0
H372 H 0.87456 0.22481 0.57503 0.0
H373 H 0.93968 0.22572 0.63914 0.0
H374 H 0.75944 0.32586 0.56443 0.0
H375 H 0.91026 0.38623 0.66595 0.0
H376 H 0.74483 0.36941 0.58897 0.0
H377 H 0.90793 0.41515 0.6196 0.0
O378 O 0.82296 0.27988 0.63013 0.0
H379 H 0.91879 0.26632 0.73485 0.0
H380 H 0.87413 0.21015 0.65591 0.0
H381 H 0.87668 0.19266 0.70831 0.0
H382 H 0.89917 0.22081 0.7482 0.0
H383 H 0.9155 0.28318 0.68222 0.0
H384 H 0.95814 0.18267 0.61779 0.0
H385 H 0.93427 0.16029 0.57456 0.0
O386 O 0.85393 0.24658 0.62214 0.0
C387 C 0.87179 0.29236 0.56987 0.0
C388 C 0.9027 0.19114 0.57207 0.0
C389 C 0.93974 0.19174 0.60832 0.0
N390 N 0.90593 0.22764 0.60851 0.0
C391 C 0.89278 0.21554 0.58461 0.0
C392 C 0.92922 0.21613 0.62028 0.0
C393 C 0.92634 0.17919 0.58407 0.0
C394 C 0.88167 0.35622 0.64873 0.0
N395 N 0.86525 0.34854 0.62508 0.0
C396 C 0.89725 0.38027 0.64716 0.0
C397 C 0.89596 0.39647 0.62114 0.0
C398 C 0.8792 0.38846 0.59708 0.0
C399 C 0.86394 0.36427 0.59944 0.0
C400 C 0.77938 0.37042 0.61939 0.0
C401 C 0.79579 0.32194 0.59202 0.0
C402 C 0.80337 0.35698 0.62843 0.0
N403 N 0.81135 0.33314 0.61464 0.0
C404 C 0.77167 0.3348 0.58239 0.0
C405 C 0.76347 0.35922 0.59619 0.0
C406 C 0.82931 0.25479 0.62577 0.0
C407 C 0.90902 0.25383 0.71765 0.0
C408 C 0.88385 0.22258 0.67315 0.0
C409 C 0.88531 0.21252 0.70277 0.0
C410 C 0.89796 0.22831 0.72514 0.0
N411 N 0.89471 0.24764 0.66599 0.0
C412 C 0.9072 0.26321 0.68778 0.0
Co413 Co 0.68518 0.84446 0.62761 0.0
Co414 Co 0.73802 0.89168 0.62489 0.0
O415 O 0.70349 0.87802 0.6414 0.0
C416 C 0.69395 0.83692 0.69313 0.0
O417 O 0.7189 0.8461 0.68833 0.0
C418 C 0.70199 0.9408 0.6175 0.0
O419 O 0.68396 0.92574 0.60285 0.0
O420 O 0.72355 0.88862 0.58294 0.0
O421 O 0.69315 0.8538 0.58405 0.0
H422 H 0.81795 0.89214 0.55281 0.0
H423 H 0.65626 0.88279 0.66899 0.0
O424 O 0.67717 0.83453 0.67105 0.0
H425 H 0.59884 0.87814 0.57699 0.0
H426 H 0.61035 0.77318 0.63024 0.0
H427 H 0.69675 0.80191 0.5812 0.0
H428 H 0.64146 0.85097 0.5808 0.0
H429 H 0.63397 0.81559 0.64635 0.0
O430 O 0.72398 0.93011 0.62775 0.0
H431 H 0.77483 0.87452 0.57479 0.0
H432 H 0.77418 0.93949 0.63909 0.0
H433 H 0.6737 0.75949 0.56419 0.0
H434 H 0.61368 0.91015 0.66624 0.0
H435 H 0.63018 0.74488 0.58878 0.0
H436 H 0.58468 0.90796 0.61995 0.0
O437 O 0.71989 0.82283 0.62994 0.0
H438 H 0.7338 0.91841 0.73487 0.0
H439 H 0.78971 0.87389 0.65562 0.0
H440 H 0.80734 0.87629 0.70797 0.0
H441 H 0.77932 0.89871 0.74802 0.0
H442 H 0.71679 0.91527 0.68228 0.0
H443 H 0.81718 0.95795 0.61765 0.0
H444 H 0.83942 0.93416 0.57427 0.0
O445 O 0.75318 0.8538 0.62192 0.0
C446 C 0.7073 0.87181 0.56983 0.0
C447 C 0.80852 0.90263 0.57179 0.0
C448 C 0.80807 0.93958 0.60816 0.0
N449 N 0.77213 0.90581 0.60836 0.0
C450 C 0.78414 0.8927 0.58438 0.0
C451 C 0.78369 0.92906 0.62017 0.0
C452 C 0.82053 0.92622 0.58382 0.0
C453 C 0.64363 0.88157 0.64888 0.0
N454 N 0.65125 0.8652 0.62516 0.0
C455 C 0.6196 0.89718 0.6474 0.0
C456 C 0.60335 0.89596 0.62141 0.0
C457 C 0.61129 0.87925 0.59729 0.0
C458 C 0.63548 0.86396 0.59956 0.0
C459 C 0.62927 0.77936 0.6193 0.0
C460 C 0.67772 0.79577 0.59186 0.0
C461 C 0.64276 0.80331 0.62837 0.0
N462 N 0.66658 0.8113 0.61455 0.0
C463 C 0.66481 0.7717 0.5822 0.0
C464 C 0.64041 0.7635 0.59603 0.0
C465 C 0.74496 0.82918 0.62552 0.0
C466 C 0.74623 0.90867 0.7176 0.0
C467 C 0.77734 0.88358 0.67293 0.0
C468 C 0.78747 0.88495 0.70252 0.0
C469 C 0.77175 0.89756 0.72497 0.0
N470 N 0.75227 0.89449 0.66588 0.0
C471 C 0.73677 0.90694 0.68776 0.0
Co472 Co 0.84475 0.6854 0.62758 0.0
Co473 Co 0.8918 0.73839 0.62486 0.0
O474 O 0.87826 0.7038 0.64135 0.0
C475 C 0.83726 0.69406 0.69312 0.0
O476 O 0.84634 0.71906 0.68834 0.0
C477 C 0.94101 0.7025 0.61742 0.0
O478 O 0.92598 0.68443 0.6028 0.0
O479 O 0.88875 0.72394 0.5829 0.0
O480 O 0.85402 0.69345 0.58402 0.0
H481 H 0.89195 0.8184 0.55287 0.0
H482 H 0.88322 0.65656 0.66887 0.0
O483 O 0.83489 0.67731 0.67102 0.0
H484 H 0.87867 0.59923 0.5768 0.0
H485 H 0.77373 0.61033 0.63018 0.0
H486 H 0.80213 0.69688 0.58123 0.0
H487 H 0.85136 0.64175 0.5807 0.0
H488 H 0.81607 0.63407 0.64628 0.0
O489 O 0.93027 0.72447 0.62767 0.0
H490 H 0.87449 0.77518 0.57481 0.0
H491 H 0.9395 0.77469 0.63906 0.0
H492 H 0.75977 0.6737 0.56423 0.0
H493 H 0.91072 0.61408 0.66603 0.0
H494 H 0.74533 0.63011 0.58878 0.0
H495 H 0.90858 0.58512 0.61971 0.0
O496 O 0.82301 0.72004 0.62997 0.0
H497 H 0.91863 0.73416 0.73481 0.0
H498 H 0.87386 0.78999 0.65566 0.0
H499 H 0.87624 0.80759 0.70803 0.0
H500 H 0.89878 0.77961 0.74803 0.0
H501 H 0.9155 0.7172 0.68221 0.0
H502 H 0.9578 0.81778 0.61766 0.0
H503 H 0.9339 0.83998 0.57433 0.0
O504 O 0.85387 0.75342 0.62193 0.0
C505 C 0.87198 0.70766 0.56979 0.0
C506 C 0.90249 0.80898 0.57183 0.0
C507 C 0.93946 0.80861 0.60817 0.0
N508 N 0.90581 0.77256 0.60836 0.0
C509 C 0.89265 0.78455 0.5844 0.0
C510 C 0.92903 0.78419 0.62015 0.0
C511 C 0.92604 0.82106 0.58386 0.0
C512 C 0.88202 0.64395 0.64874 0.0
N513 N 0.8656 0.65154 0.62506 0.0
C514 C 0.89771 0.61997 0.64722 0.0
C515 C 0.89652 0.60375 0.6212 0.0
C516 C 0.87976 0.61166 0.59712 0.0
C517 C 0.86438 0.63579 0.59943 0.0
C518 C 0.77983 0.62928 0.61927 0.0
C519 C 0.79606 0.67782 0.59187 0.0
C520 C 0.80375 0.64284 0.62833 0.0
N521 N 0.81164 0.66671 0.61453 0.0
C522 C 0.77202 0.66483 0.58222 0.0
C523 C 0.76391 0.64039 0.59603 0.0
C524 C 0.82928 0.74513 0.62555 0.0
C525 C 0.90883 0.74658 0.71756 0.0
C526 C 0.8836 0.77764 0.67294 0.0
C527 C 0.88496 0.78775 0.70255 0.0
C528 C 0.89764 0.77206 0.72497 0.0
N529 N 0.89459 0.75261 0.66586 0.0
C530 C 0.90711 0.73714 0.68771 0.0
Co531 Co 0.31521 0.84441 0.62751 0.0
Co532 Co 0.26259 0.89188 0.62499 0.0
O533 O 0.29712 0.87808 0.64132 0.0
C534 C 0.30657 0.83696 0.69305 0.0
O535 O 0.28166 0.84626 0.6883 0.0
C536 C 0.29875 0.94088 0.61719 0.0
O537 O 0.31658 0.9258 0.60228 0.0
O538 O 0.27683 0.88867 0.58295 0.0
O539 O 0.30716 0.85377 0.58397 0.0
H540 H 0.18228 0.89267 0.55342 0.0
H541 H 0.34446 0.88261 0.66875 0.0
O542 O 0.3233 0.83446 0.67093 0.0
H543 H 0.40159 0.87758 0.57656 0.0
H544 H 0.38965 0.77272 0.62993 0.0
H545 H 0.30329 0.80191 0.58115 0.0
H546 H 0.35882 0.85066 0.58053 0.0
H547 H 0.36632 0.81527 0.64609 0.0
O548 O 0.27684 0.93024 0.6277 0.0
H549 H 0.22542 0.87484 0.57516 0.0
H550 H 0.22677 0.93992 0.63931 0.0
H551 H 0.32605 0.75935 0.56409 0.0
H552 H 0.38719 0.90973 0.66583 0.0
H553 H 0.36956 0.74451 0.58856 0.0
H554 H 0.41605 0.90733 0.61945 0.0
O555 O 0.28041 0.82296 0.62996 0.0
H556 H 0.26752 0.91878 0.73488 0.0
H557 H 0.21095 0.87443 0.65608 0.0
H558 H 0.1936 0.87702 0.70854 0.0
H559 H 0.22195 0.89936 0.74836 0.0
H560 H 0.28423 0.91545 0.6822 0.0
H561 H 0.18376 0.95858 0.6181 0.0
H562 H 0.16117 0.93484 0.57492 0.0
O563 O 0.24721 0.85408 0.62219 0.0
C564 C 0.29299 0.8718 0.56979 0.0
C565 C 0.19187 0.90314 0.57231 0.0
C566 C 0.19272 0.94015 0.60859 0.0
N567 N 0.22846 0.90617 0.60865 0.0
C568 C 0.21625 0.89309 0.58477 0.0
C569 C 0.2171 0.92951 0.62047 0.0
C570 C 0.18005 0.92682 0.58436 0.0
C571 C 0.35702 0.88131 0.64859 0.0
N572 N 0.34924 0.86497 0.62492 0.0
C573 C 0.38114 0.89678 0.64703 0.0
C574 C 0.39731 0.89545 0.62098 0.0
C575 C 0.3892 0.87877 0.5969 0.0
C576 C 0.36494 0.86362 0.59926 0.0
C577 C 0.37074 0.779 0.61905 0.0
C578 C 0.32231 0.79567 0.59176 0.0
C579 C 0.35741 0.80304 0.62815 0.0
N580 N 0.3336 0.81115 0.6144 0.0
C581 C 0.33506 0.77152 0.58207 0.0
C582 C 0.35946 0.76319 0.59583 0.0
C583 C 0.25534 0.82942 0.62572 0.0
C584 C 0.25494 0.90907 0.71771 0.0
C585 C 0.22346 0.88408 0.67329 0.0
C586 C 0.21349 0.88556 0.70295 0.0
C587 C 0.22939 0.89812 0.72527 0.0
N588 N 0.24856 0.89484 0.66606 0.0
C589 C 0.26424 0.90724 0.68782 0.0
Co590 Co 0.15534 0.31425 0.62756 0.0
Co591 Co 0.10808 0.26144 0.625 0.0
O592 O 0.12174 0.29604 0.64134 0.0
C593 C 0.16273 0.30575 0.69315 0.0
O594 O 0.15352 0.28079 0.68846 0.0
C595 C 0.05908 0.29756 0.61724 0.0
O596 O 0.07421 0.31548 0.60253 0.0
O597 O 0.1113 0.27567 0.58295 0.0
O598 O 0.14606 0.30614 0.58402 0.0
H599 H 0.10771 0.18105 0.55354 0.0
H600 H 0.11696 0.34338 0.66871 0.0
O601 O 0.1652 0.32243 0.67099 0.0
H602 H 0.12188 0.40045 0.57646 0.0
H603 H 0.22673 0.38898 0.62999 0.0
H604 H 0.19794 0.30245 0.5813 0.0
H605 H 0.14898 0.35781 0.58053 0.0
H606 H 0.18425 0.3655 0.64612 0.0
O607 O 0.06967 0.27558 0.62762 0.0
H608 H 0.12534 0.22429 0.57525 0.0
H609 H 0.06014 0.22548 0.63925 0.0
H610 H 0.24044 0.32535 0.56428 0.0
H611 H 0.08966 0.38598 0.66569 0.0
H612 H 0.25508 0.36894 0.5887 0.0
H613 H 0.09199 0.41481 0.61928 0.0
O614 O 0.17691 0.27953 0.63009 0.0
H615 H 0.08099 0.26636 0.73484 0.0
H616 H 0.12565 0.20989 0.65617 0.0
H617 H 0.12303 0.19256 0.70864 0.0
H618 H 0.10053 0.22086 0.7484 0.0
H619 H 0.08435 0.28305 0.68215 0.0
H620 H 0.04167 0.18238 0.61807 0.0
H621 H 0.06558 0.15981 0.57497 0.0
O622 O 0.14594 0.2462 0.62229 0.0
C623 C 0.12811 0.2919 0.56981 0.0
C624 C 0.09717 0.19063 0.57239 0.0
C625 C 0.06009 0.19139 0.60858 0.0
N626 N 0.09393 0.22726 0.60867 0.0
C627 C 0.1071 0.21507 0.58484 0.0
C628 C 0.07062 0.21582 0.62045 0.0
C629 C 0.07351 0.17874 0.58441 0.0
C630 C 0.11824 0.35593 0.64854 0.0
N631 N 0.13465 0.34821 0.62491 0.0
C632 C 0.10266 0.37998 0.64692 0.0
C633 C 0.10396 0.39613 0.62086 0.0
C634 C 0.12071 0.38808 0.59682 0.0
C635 C 0.13597 0.36388 0.59923 0.0
C636 C 0.22054 0.37003 0.61914 0.0
C637 C 0.2041 0.32151 0.59188 0.0
C638 C 0.19655 0.35662 0.62821 0.0
N639 N 0.18854 0.33276 0.61448 0.0
C640 C 0.22822 0.33434 0.58222 0.0
C641 C 0.23643 0.35878 0.59596 0.0
C642 C 0.17056 0.25443 0.62586 0.0
C643 C 0.09076 0.2538 0.7177 0.0
C644 C 0.11593 0.22238 0.67335 0.0
C645 C 0.11443 0.21242 0.70301 0.0
C646 C 0.10178 0.2283 0.7253 0.0
N647 N 0.10511 0.24744 0.66608 0.0
C648 C 0.09261 0.26309 0.6878 0.0
Co649 Co 0.68538 0.15528 0.62771 0.0
Co650 Co 0.73822 0.10808 0.62495 0.0
O651 O 0.70367 0.1217 0.64145 0.0
C652 C 0.69398 0.16268 0.6933 0.0
O653 O 0.71894 0.15349 0.68857 0.0
C654 C 0.70216 0.05901 0.61747 0.0
O655 O 0.68414 0.07411 0.60287 0.0
O656 O 0.7238 0.11121 0.58298 0.0
O657 O 0.69342 0.14604 0.58414 0.0
H658 H 0.81825 0.10775 0.55299 0.0
H659 H 0.6564 0.11684 0.66892 0.0
O660 O 0.67727 0.16512 0.67116 0.0
H661 H 0.59914 0.12167 0.57681 0.0
H662 H 0.61052 0.22653 0.63036 0.0
H663 H 0.69702 0.19794 0.58146 0.0
H664 H 0.64174 0.14886 0.58079 0.0
H665 H 0.63411 0.18409 0.6464 0.0
O666 O 0.72417 0.06964 0.6277 0.0
H667 H 0.7751 0.12534 0.57495 0.0
H668 H 0.77436 0.06023 0.63907 0.0
H669 H 0.67401 0.2404 0.56452 0.0
H670 H 0.61385 0.08946 0.666 0.0
H671 H 0.63044 0.25495 0.58905 0.0
H672 H 0.58493 0.09174 0.61965 0.0
O673 O 0.72007 0.17691 0.63017 0.0
H674 H 0.73389 0.08112 0.73486 0.0
H675 H 0.78988 0.1258 0.65578 0.0
H676 H 0.80747 0.12328 0.70815 0.0
H677 H 0.77941 0.10078 0.74811 0.0
H678 H 0.71694 0.08438 0.68226 0.0
H679 H 0.81738 0.04181 0.61765 0.0
H680 H 0.83967 0.06569 0.57437 0.0
O681 O 0.75338 0.14597 0.62209 0.0
C682 C 0.70758 0.12806 0.56989 0.0
C683 C 0.80879 0.09723 0.57192 0.0
C684 C 0.80828 0.0602 0.60819 0.0
N685 N 0.77236 0.09398 0.60844 0.0
C686 C 0.7844 0.10713 0.58451 0.0
C687 C 0.7839 0.0707 0.62019 0.0
C688 C 0.82078 0.07361 0.58391 0.0
C689 C 0.64381 0.1181 0.64878 0.0
N690 N 0.65146 0.13454 0.62513 0.0
C691 C 0.61979 0.10248 0.64721 0.0
C692 C 0.60358 0.10375 0.62119 0.0
C693 C 0.61156 0.12052 0.59713 0.0
C694 C 0.63573 0.13583 0.59949 0.0
C695 C 0.62947 0.22039 0.61946 0.0
C696 C 0.67797 0.20405 0.59209 0.0
C697 C 0.64294 0.19641 0.62848 0.0
N698 N 0.66679 0.18846 0.6147 0.0
C699 C 0.66508 0.22815 0.58247 0.0
C700 C 0.64065 0.23631 0.59627 0.0
C701 C 0.74515 0.17058 0.62576 0.0
C702 C 0.74634 0.0909 0.71763 0.0
C703 C 0.7775 0.11608 0.67306 0.0
C704 C 0.7876 0.11464 0.70266 0.0
C705 C 0.77186 0.10198 0.72506 0.0
N706 N 0.75243 0.10519 0.66595 0.0
C707 C 0.73691 0.0927 0.68778 0.0
Co708 Co 0.84445 0.31474 0.38051 0.0
Co709 Co 0.89172 0.26194 0.38309 0.0
O710 O 0.87805 0.29651 0.36671 0.0
C711 C 0.83701 0.30615 0.31495 0.0
O712 O 0.8462 0.28119 0.31968 0.0
C713 C 0.94079 0.298 0.39077 0.0
O714 O 0.92572 0.31593 0.40554 0.0
O715 O 0.88857 0.27625 0.42511 0.0
O716 O 0.85376 0.30666 0.42405 0.0
H717 H 0.8922 0.18172 0.45478 0.0
H718 H 0.8828 0.34383 0.33928 0.0
O719 O 0.83456 0.32286 0.33708 0.0
H720 H 0.87795 0.40099 0.43147 0.0
H721 H 0.77307 0.38947 0.37803 0.0
H722 H 0.80188 0.30299 0.42682 0.0
H723 H 0.85085 0.35834 0.42748 0.0
H724 H 0.81553 0.36596 0.3619 0.0
O725 O 0.93014 0.27606 0.38037 0.0
H726 H 0.87454 0.22491 0.43298 0.0
H727 H 0.93962 0.22592 0.36883 0.0
H728 H 0.7594 0.32592 0.44385 0.0
H729 H 0.91009 0.38644 0.34222 0.0
H730 H 0.74475 0.36949 0.41938 0.0
H731 H 0.9078 0.41531 0.3886 0.0
O732 O 0.82287 0.28002 0.37804 0.0
H733 H 0.91864 0.26663 0.27319 0.0
H734 H 0.87407 0.21034 0.35209 0.0
H735 H 0.87659 0.19291 0.29966 0.0
H736 H 0.89904 0.22112 0.25979 0.0
H737 H 0.91538 0.28342 0.32585 0.0
H738 H 0.95812 0.18287 0.39009 0.0
H739 H 0.93429 0.16042 0.43331 0.0
O740 O 0.85387 0.24672 0.38592 0.0
C741 C 0.87175 0.29246 0.43825 0.0
C742 C 0.90271 0.19125 0.43588 0.0
C743 C 0.93972 0.19191 0.39959 0.0
N744 N 0.90589 0.22779 0.39949 0.0
C745 C 0.89276 0.21566 0.42338 0.0
C746 C 0.92918 0.21631 0.38768 0.0
C747 C 0.92634 0.17932 0.42384 0.0
C748 C 0.88153 0.3564 0.35944 0.0
N749 N 0.86514 0.34869 0.3831 0.0
C750 C 0.8971 0.38045 0.36102 0.0
C751 C 0.89583 0.39663 0.38706 0.0
C752 C 0.8791 0.3886 0.41113 0.0
C753 C 0.86385 0.3644 0.40876 0.0
C754 C 0.77926 0.37053 0.38891 0.0
C755 C 0.79572 0.32204 0.41622 0.0
C756 C 0.80325 0.35711 0.37983 0.0
N757 N 0.81126 0.33326 0.39358 0.0
C758 C 0.77161 0.33488 0.42588 0.0
C759 C 0.76339 0.35931 0.41212 0.0
C760 C 0.82924 0.25493 0.38235 0.0
C761 C 0.90889 0.25411 0.29038 0.0
C762 C 0.88377 0.22279 0.33486 0.0
C763 C 0.88521 0.21277 0.30522 0.0
C764 C 0.89784 0.2286 0.28286 0.0
N765 N 0.89462 0.24786 0.34205 0.0
C766 C 0.90709 0.26346 0.32026 0.0
Co767 Co 0.68517 0.84459 0.38041 0.0
Co768 Co 0.738 0.89181 0.38318 0.0
O769 O 0.70347 0.87817 0.36666 0.0
C770 C 0.6939 0.83713 0.31487 0.0
O771 O 0.71886 0.84631 0.31966 0.0
C772 C 0.70197 0.94092 0.39062 0.0
O773 O 0.68394 0.92586 0.40526 0.0
O774 O 0.72353 0.88871 0.42513 0.0
O775 O 0.69314 0.85389 0.42398 0.0
H776 H 0.81793 0.89222 0.45526 0.0
H777 H 0.65624 0.88297 0.33909 0.0
O778 O 0.67714 0.83471 0.33696 0.0
H779 H 0.59884 0.87823 0.4311 0.0
H780 H 0.61033 0.77332 0.37772 0.0
H781 H 0.69674 0.802 0.42676 0.0
H782 H 0.64146 0.85106 0.42724 0.0
H783 H 0.63395 0.81575 0.36165 0.0
O784 O 0.72396 0.93024 0.38037 0.0
H785 H 0.77481 0.87461 0.43327 0.0
H786 H 0.77415 0.93964 0.36904 0.0
H787 H 0.6737 0.75956 0.44373 0.0
H788 H 0.61366 0.91034 0.34189 0.0
H789 H 0.63017 0.74498 0.41913 0.0
H790 H 0.58467 0.90809 0.38818 0.0
O791 O 0.71987 0.82297 0.37805 0.0
H792 H 0.73378 0.91865 0.27323 0.0
H793 H 0.78969 0.87405 0.35244 0.0
H794 H 0.80733 0.87651 0.30009 0.0
H795 H 0.77931 0.89896 0.26006 0.0
H796 H 0.71677 0.91545 0.32582 0.0
H797 H 0.81715 0.95808 0.3905 0.0
H798 H 0.83939 0.93426 0.43385 0.0
O799 O 0.75316 0.85393 0.38611 0.0
C800 C 0.70729 0.87189 0.43822 0.0
C801 C 0.8085 0.90272 0.4363 0.0
C802 C 0.80804 0.93971 0.39997 0.0
N803 N 0.77211 0.90593 0.39972 0.0
C804 C 0.78413 0.8928 0.42369 0.0
C805 C 0.78367 0.92919 0.38795 0.0
C806 C 0.82051 0.92633 0.42429 0.0
C807 C 0.64361 0.88173 0.3592 0.0
N808 N 0.65124 0.86533 0.38289 0.0
C809 C 0.61958 0.89734 0.36071 0.0
C810 C 0.60334 0.8961 0.3867 0.0
C811 C 0.61128 0.87936 0.4108 0.0
C812 C 0.63547 0.86407 0.40851 0.0
C813 C 0.62925 0.77949 0.38865 0.0
C814 C 0.67771 0.79587 0.4161 0.0
C815 C 0.64274 0.80345 0.37961 0.0
N816 N 0.66657 0.81142 0.39343 0.0
C817 C 0.6648 0.77178 0.42573 0.0
C818 C 0.64039 0.7636 0.4119 0.0
C819 C 0.74494 0.82931 0.38248 0.0
C820 C 0.74621 0.90888 0.29049 0.0
C821 C 0.77732 0.88376 0.33514 0.0
C822 C 0.78746 0.88516 0.30555 0.0
C823 C 0.77174 0.89779 0.28311 0.0
N824 N 0.75225 0.89466 0.3422 0.0
C825 C 0.73675 0.90713 0.32033 0.0
Co826 Co 0.15531 0.6856 0.38044 0.0
Co827 Co 0.10822 0.73856 0.38302 0.0
O828 O 0.12178 0.70394 0.36663 0.0
C829 C 0.1628 0.69418 0.31489 0.0
O830 O 0.15368 0.71916 0.31963 0.0
C831 C 0.0591 0.70257 0.39057 0.0
O832 O 0.07418 0.68455 0.40518 0.0
O833 O 0.11132 0.72424 0.42504 0.0
O834 O 0.14602 0.6937 0.42398 0.0
H835 H 0.10803 0.8188 0.45468 0.0
H836 H 0.11688 0.65665 0.33919 0.0
O837 O 0.16518 0.67745 0.33701 0.0
H838 H 0.12144 0.59948 0.43138 0.0
H839 H 0.2264 0.61059 0.378 0.0
H840 H 0.19791 0.69718 0.42678 0.0
H841 H 0.14872 0.64202 0.4274 0.0
H842 H 0.18404 0.63427 0.36184 0.0
O843 O 0.06976 0.72457 0.38031 0.0
H844 H 0.12552 0.77554 0.43291 0.0
H845 H 0.06044 0.77474 0.36874 0.0
H846 H 0.24028 0.67408 0.44384 0.0
H847 H 0.08941 0.61415 0.34211 0.0
H848 H 0.25477 0.63046 0.41937 0.0
H849 H 0.09156 0.58527 0.38849 0.0
O850 O 0.17701 0.72025 0.37799 0.0
H851 H 0.08129 0.73396 0.27311 0.0
H852 H 0.12606 0.79009 0.35201 0.0
H853 H 0.1236 0.80753 0.29957 0.0
H854 H 0.10106 0.77939 0.25971 0.0
H855 H 0.08449 0.71716 0.32578 0.0
H856 H 0.04211 0.81788 0.38999 0.0
H857 H 0.06603 0.84026 0.43319 0.0
O858 O 0.14612 0.75365 0.38585 0.0
C859 C 0.12808 0.70798 0.43818 0.0
C860 C 0.09749 0.80931 0.43578 0.0
C861 C 0.06047 0.80877 0.39949 0.0
N862 N 0.09417 0.77276 0.39941 0.0
C863 C 0.10734 0.78485 0.4233 0.0
C864 C 0.07093 0.78432 0.38759 0.0
C865 C 0.0739 0.82132 0.42373 0.0
C866 C 0.11808 0.64408 0.35934 0.0
N867 N 0.13449 0.65172 0.38302 0.0
C868 C 0.10241 0.62009 0.36091 0.0
C869 C 0.1036 0.60391 0.38696 0.0
C870 C 0.12035 0.61187 0.41104 0.0
C871 C 0.13571 0.63601 0.40868 0.0
C872 C 0.22027 0.62955 0.38888 0.0
C873 C 0.20399 0.67811 0.41617 0.0
C874 C 0.19635 0.64308 0.37978 0.0
N875 N 0.18843 0.66695 0.39353 0.0
C876 C 0.22805 0.66517 0.42586 0.0
C877 C 0.23618 0.64071 0.4121 0.0
C878 C 0.17073 0.74536 0.38229 0.0
C879 C 0.09109 0.74644 0.29031 0.0
C880 C 0.11631 0.77767 0.33478 0.0
C881 C 0.11491 0.78769 0.30514 0.0
C882 C 0.10223 0.77191 0.28279 0.0
N883 N 0.10536 0.75265 0.34197 0.0
C884 C 0.09285 0.73709 0.32019 0.0
Co885 Co 0.31454 0.15539 0.38039 0.0
Co886 Co 0.26179 0.10807 0.38303 0.0
O887 O 0.29634 0.12177 0.36663 0.0
C888 C 0.30592 0.16281 0.31482 0.0
O889 O 0.28098 0.15355 0.31955 0.0
C890 C 0.29796 0.05909 0.39072 0.0
O891 O 0.31588 0.07423 0.40541 0.0
O892 O 0.27608 0.11129 0.42505 0.0
O893 O 0.30649 0.1461 0.42394 0.0
H894 H 0.18153 0.1076 0.45469 0.0
H895 H 0.34363 0.11706 0.33917 0.0
O896 O 0.32263 0.16528 0.33695 0.0
H897 H 0.40084 0.12199 0.43132 0.0
H898 H 0.3892 0.22685 0.37784 0.0
H899 H 0.30276 0.19798 0.42668 0.0
H900 H 0.35817 0.14906 0.42733 0.0
H901 H 0.36572 0.18435 0.36174 0.0
O902 O 0.27595 0.06968 0.38038 0.0
H903 H 0.22471 0.12528 0.43288 0.0
H904 H 0.22584 0.0601 0.36885 0.0
H905 H 0.32566 0.2405 0.44367 0.0
H906 H 0.38626 0.08979 0.3421 0.0
H907 H 0.3692 0.25517 0.41917 0.0
H908 H 0.41516 0.09212 0.38846 0.0
O909 O 0.27979 0.17693 0.37793 0.0
H910 H 0.26652 0.08102 0.27317 0.0
H911 H 0.21016 0.1256 0.35199 0.0
H912 H 0.19273 0.12298 0.29957 0.0
H913 H 0.22098 0.10053 0.25973 0.0
H914 H 0.28331 0.08438 0.32583 0.0
H915 H 0.1828 0.04158 0.39013 0.0
H916 H 0.1603 0.06545 0.43329 0.0
O917 O 0.24651 0.14592 0.38579 0.0
C918 C 0.2923 0.12813 0.43817 0.0
C919 C 0.19108 0.09708 0.43581 0.0
C920 C 0.19181 0.06001 0.3996 0.0
N921 N 0.22764 0.09389 0.39945 0.0
C922 C 0.21549 0.10704 0.4233 0.0
C923 C 0.21621 0.07056 0.38768 0.0
C924 C 0.1792 0.07341 0.42381 0.0
C925 C 0.35622 0.11834 0.35931 0.0
N926 N 0.34851 0.13474 0.38297 0.0
C927 C 0.38028 0.10278 0.36089 0.0
C928 C 0.39647 0.10408 0.38692 0.0
C929 C 0.38844 0.12082 0.41098 0.0
C930 C 0.36423 0.13606 0.40862 0.0
C931 C 0.37027 0.22064 0.38873 0.0
C932 C 0.3218 0.20415 0.41606 0.0
C933 C 0.35686 0.19664 0.37967 0.0
N934 N 0.33303 0.18861 0.39344 0.0
C935 C 0.33462 0.22828 0.42571 0.0
C936 C 0.35904 0.23652 0.41193 0.0
C937 C 0.2547 0.17055 0.3822 0.0
C938 C 0.25399 0.09078 0.29035 0.0
C939 C 0.22263 0.1159 0.33478 0.0
C940 C 0.21261 0.1144 0.30514 0.0
C941 C 0.22846 0.10178 0.28281 0.0
N942 N 0.24771 0.1051 0.34199 0.0
C943 C 0.26333 0.09263 0.32023 0.0
Co944 Co 0.65552 0.81442 0.88041 0.0
Co945 Co 0.60848 0.76143 0.88316 0.0
O946 O 0.62202 0.796 0.86664 0.0
C947 C 0.66304 0.80572 0.81488 0.0
O948 O 0.65395 0.78073 0.81966 0.0
C949 C 0.5593 0.79736 0.89049 0.0
O950 O 0.57435 0.81547 0.90502 0.0
O951 O 0.6115 0.77591 0.92511 0.0
O952 O 0.64623 0.80641 0.92398 0.0
H953 H 0.6083 0.68149 0.95523 0.0
H954 H 0.61707 0.84322 0.83907 0.0
O955 O 0.6654 0.82248 0.83697 0.0
H956 H 0.62158 0.90063 0.93109 0.0
H957 H 0.72655 0.88948 0.87778 0.0
H958 H 0.69813 0.80297 0.92679 0.0
H959 H 0.64889 0.8581 0.92725 0.0
H960 H 0.68421 0.86573 0.86168 0.0
O961 O 0.57 0.77535 0.88032 0.0
H962 H 0.62577 0.72468 0.93326 0.0
H963 H 0.56078 0.72512 0.86898 0.0
H964 H 0.74049 0.82615 0.94379 0.0
H965 H 0.58956 0.88571 0.84187 0.0
H966 H 0.75494 0.86973 0.9192 0.0
H967 H 0.59169 0.9147 0.88816 0.0
O968 O 0.67726 0.77978 0.87806 0.0
H969 H 0.58169 0.76556 0.77319 0.0
H970 H 0.62642 0.7098 0.85242 0.0
H971 H 0.62406 0.69215 0.80007 0.0
H972 H 0.60153 0.7201 0.76003 0.0
H973 H 0.5848 0.78257 0.82578 0.0
H974 H 0.54247 0.68205 0.89042 0.0
H975 H 0.56635 0.65988 0.93378 0.0
O976 O 0.6464 0.74639 0.88611 0.0
C977 C 0.62826 0.79221 0.93821 0.0
C978 C 0.59777 0.69089 0.93626 0.0
C979 C 0.56081 0.69122 0.89991 0.0
N980 N 0.59446 0.72727 0.89969 0.0
C981 C 0.60761 0.7153 0.92366 0.0
C982 C 0.57124 0.71563 0.8879 0.0
C983 C 0.57422 0.67879 0.92423 0.0
C984 C 0.61826 0.85585 0.85919 0.0
N985 N 0.63467 0.84828 0.88289 0.0
C986 C 0.60257 0.87983 0.86069 0.0
C987 C 0.60374 0.89607 0.88668 0.0
C988 C 0.6205 0.88818 0.91079 0.0
C989 C 0.63588 0.86405 0.9085 0.0
C990 C 0.72044 0.87054 0.88871 0.0
C991 C 0.7042 0.82203 0.91613 0.0
C992 C 0.69653 0.85698 0.87965 0.0
N993 N 0.68862 0.83312 0.89346 0.0
C994 C 0.72824 0.83501 0.92579 0.0
C995 C 0.73635 0.85945 0.91196 0.0
C996 C 0.67099 0.75469 0.88249 0.0
C997 C 0.59148 0.75316 0.79046 0.0
C998 C 0.61669 0.72213 0.83512 0.0
C999 C 0.61533 0.71199 0.80552 0.0
C1000 C 0.60266 0.72767 0.78308 0.0
N1001 N 0.6057 0.74717 0.84217 0.0
C1002 C 0.59319 0.76263 0.8203 0.0
Co1003 Co 0.18514 0.65559 0.88037 0.0
Co1004 Co 0.23788 0.60827 0.88315 0.0
O1005 O 0.20339 0.62198 0.8666 0.0
C1006 C 0.19386 0.66306 0.81482 0.0
O1007 O 0.2188 0.65384 0.8196 0.0
C1008 C 0.20178 0.5592 0.8905 0.0
O1009 O 0.18376 0.57427 0.90514 0.0
O1010 O 0.22338 0.61135 0.92508 0.0
O1011 O 0.19311 0.64628 0.92394 0.0
H1012 H 0.31774 0.60766 0.95532 0.0
H1013 H 0.15613 0.61726 0.83905 0.0
O1014 O 0.17711 0.6655 0.83692 0.0
H1015 H 0.09877 0.6221 0.93108 0.0
H1016 H 0.11043 0.72699 0.87771 0.0
H1017 H 0.19681 0.69816 0.92672 0.0
H1018 H 0.14143 0.64919 0.92722 0.0
H1019 H 0.13396 0.68452 0.86164 0.0
O1020 O 0.22378 0.56986 0.88027 0.0
H1021 H 0.27467 0.62537 0.93329 0.0
H1022 H 0.27398 0.5604 0.86898 0.0
H1023 H 0.17385 0.74065 0.94369 0.0
H1024 H 0.11351 0.58998 0.84187 0.0
H1025 H 0.13034 0.7553 0.91911 0.0
H1026 H 0.08453 0.59227 0.88817 0.0
O1027 O 0.21988 0.67715 0.87799 0.0
H1028 H 0.23372 0.58156 0.77316 0.0
H1029 H 0.28963 0.62598 0.85248 0.0
H1030 H 0.30731 0.62355 0.80014 0.0
H1031 H 0.27929 0.60118 0.76006 0.0
H1032 H 0.21667 0.58472 0.82573 0.0
H1033 H 0.31693 0.54187 0.89048 0.0
H1034 H 0.33915 0.56561 0.93389 0.0
O1035 O 0.2531 0.64613 0.88613 0.0
C1036 C 0.2072 0.62822 0.93818 0.0
C1037 C 0.30831 0.59719 0.93633 0.0
C1038 C 0.30783 0.56025 0.89996 0.0
N1039 N 0.27196 0.59408 0.89971 0.0
C1040 C 0.28397 0.60717 0.9237 0.0
C1041 C 0.28349 0.57081 0.88792 0.0
C1042 C 0.3203 0.57358 0.92432 0.0
C1043 C 0.14352 0.61852 0.85917 0.0
N1044 N 0.15117 0.63491 0.88286 0.0
C1045 C 0.11946 0.60296 0.86068 0.0
C1046 C 0.10322 0.60423 0.88668 0.0
C1047 C 0.1112 0.62095 0.91078 0.0
C1048 C 0.13541 0.6362 0.90848 0.0
C1049 C 0.12935 0.72079 0.88864 0.0
C1050 C 0.17778 0.70432 0.91606 0.0
C1051 C 0.14278 0.6968 0.87959 0.0
N1052 N 0.1666 0.68879 0.8934 0.0
C1053 C 0.16492 0.72843 0.9257 0.0
C1054 C 0.14052 0.73666 0.91188 0.0
C1055 C 0.24494 0.67076 0.88247 0.0
C1056 C 0.24615 0.59128 0.79044 0.0
C1057 C 0.27726 0.61631 0.83515 0.0
C1058 C 0.28742 0.61492 0.80557 0.0
C1059 C 0.2717 0.60234 0.7831 0.0
N1060 N 0.25216 0.60545 0.84217 0.0
C1061 C 0.23666 0.59302 0.82027 0.0
Co1062 Co 0.34454 0.18559 0.88038 0.0
Co1063 Co 0.39165 0.23851 0.88312 0.0
O1064 O 0.37809 0.20394 0.86663 0.0
C1065 C 0.33713 0.19418 0.8148 0.0
O1066 O 0.34624 0.21917 0.81954 0.0
C1067 C 0.44078 0.20252 0.8906 0.0
O1068 O 0.42569 0.18448 0.90519 0.0
O1069 O 0.38856 0.22409 0.92509 0.0
O1070 O 0.35378 0.19365 0.92395 0.0
H1071 H 0.39186 0.31855 0.95507 0.0
H1072 H 0.38303 0.15667 0.83916 0.0
O1073 O 0.33472 0.17746 0.83693 0.0
H1074 H 0.37832 0.09941 0.93128 0.0
H1075 H 0.27344 0.1106 0.87775 0.0
H1076 H 0.30188 0.19715 0.92665 0.0
H1077 H 0.35105 0.14196 0.9273 0.0
H1078 H 0.31583 0.13427 0.86169 0.0
O1079 O 0.43011 0.22453 0.88036 0.0
H1080 H 0.37435 0.27536 0.93313 0.0
H1081 H 0.43943 0.27473 0.86896 0.0
H1082 H 0.25947 0.17405 0.94361 0.0
H1083 H 0.41049 0.11417 0.84209 0.0
H1084 H 0.245 0.13045 0.91908 0.0
H1085 H 0.40826 0.08524 0.88843 0.0
O1086 O 0.32285 0.22024 0.87792 0.0
H1087 H 0.41857 0.23422 0.7732 0.0
H1088 H 0.37381 0.29013 0.85229 0.0
H1089 H 0.37627 0.30771 0.79991 0.0
H1090 H 0.3988 0.27969 0.75995 0.0
H1091 H 0.41538 0.21727 0.8258 0.0
H1092 H 0.45777 0.3178 0.89036 0.0
H1093 H 0.43387 0.34006 0.93365 0.0
O1094 O 0.35374 0.2536 0.886 0.0
C1095 C 0.37175 0.20784 0.93819 0.0
C1096 C 0.4024 0.30911 0.93613 0.0
C1097 C 0.43941 0.30867 0.89984 0.0
N1098 N 0.4057 0.27267 0.89962 0.0
C1099 C 0.39254 0.28469 0.92356 0.0
C1100 C 0.42895 0.28426 0.88785 0.0
C1101 C 0.42599 0.32115 0.92412 0.0
C1102 C 0.3818 0.14408 0.8593 0.0
N1103 N 0.36535 0.1517 0.88295 0.0
C1104 C 0.39746 0.12008 0.86087 0.0
C1105 C 0.39622 0.10388 0.8869 0.0
C1106 C 0.37944 0.11183 0.91096 0.0
C1107 C 0.36409 0.13597 0.9086 0.0
C1108 C 0.27955 0.12955 0.88865 0.0
C1109 C 0.2958 0.17809 0.91602 0.0
C1110 C 0.30349 0.14307 0.87961 0.0
N1111 N 0.3114 0.16694 0.8934 0.0
C1112 C 0.27173 0.16515 0.92565 0.0
C1113 C 0.26361 0.1407 0.91185 0.0
C1114 C 0.32914 0.24534 0.88234 0.0
C1115 C 0.40877 0.24665 0.79043 0.0
C1116 C 0.38356 0.27776 0.83501 0.0
C1117 C 0.38496 0.28787 0.80541 0.0
C1118 C 0.39763 0.27215 0.783 0.0
N1119 N 0.3945 0.25272 0.84212 0.0
C1120 C 0.40702 0.23722 0.82029 0.0
Co1121 Co 0.81472 0.34456 0.88051 0.0
Co1122 Co 0.76192 0.39183 0.88309 0.0
O1123 O 0.79648 0.37815 0.8667 0.0
C1124 C 0.80608 0.33708 0.81496 0.0
O1125 O 0.78113 0.34628 0.81971 0.0
C1126 C 0.79805 0.44084 0.89064 0.0
O1127 O 0.81601 0.42572 0.90529 0.0
O1128 O 0.77624 0.38869 0.9251 0.0
O1129 O 0.80666 0.35389 0.92405 0.0
H1130 H 0.6817 0.3923 0.95479 0.0
H1131 H 0.84377 0.38289 0.83923 0.0
O1132 O 0.82282 0.33465 0.83708 0.0
H1133 H 0.90097 0.37815 0.93139 0.0
H1134 H 0.88948 0.27322 0.87804 0.0
H1135 H 0.80301 0.30201 0.92686 0.0
H1136 H 0.85834 0.35101 0.92744 0.0
H1137 H 0.86594 0.31565 0.86189 0.0
O1138 O 0.77603 0.43024 0.88035 0.0
H1139 H 0.72489 0.37465 0.93299 0.0
H1140 H 0.72589 0.43972 0.86882 0.0
H1141 H 0.82598 0.25956 0.94391 0.0
H1142 H 0.88636 0.41022 0.84212 0.0
H1143 H 0.86954 0.24491 0.91942 0.0
H1144 H 0.91525 0.40798 0.88849 0.0
O1145 O 0.78 0.32297 0.87808 0.0
H1146 H 0.76656 0.41871 0.77317 0.0
H1147 H 0.71031 0.37416 0.85211 0.0
H1148 H 0.69286 0.37667 0.79968 0.0
H1149 H 0.72105 0.3991 0.75979 0.0
H1150 H 0.78337 0.41547 0.82583 0.0
H1151 H 0.68283 0.45821 0.89009 0.0
H1152 H 0.66039 0.43438 0.93331 0.0
O1153 O 0.74669 0.35397 0.88593 0.0
C1154 C 0.79245 0.37188 0.93825 0.0
C1155 C 0.69123 0.40281 0.93588 0.0
C1156 C 0.69188 0.43982 0.89959 0.0
N1157 N 0.72776 0.40599 0.89949 0.0
C1158 C 0.71564 0.39286 0.92339 0.0
C1159 C 0.71628 0.42928 0.88768 0.0
C1160 C 0.67929 0.42644 0.92384 0.0
C1161 C 0.85635 0.38165 0.85938 0.0
N1162 N 0.84866 0.36527 0.88306 0.0
C1163 C 0.88039 0.39724 0.86093 0.0
C1164 C 0.89658 0.396 0.88697 0.0
C1165 C 0.88857 0.37928 0.91105 0.0
C1166 C 0.86438 0.364 0.90871 0.0
C1167 C 0.87054 0.27941 0.88892 0.0
C1168 C 0.82206 0.29586 0.91625 0.0
C1169 C 0.8571 0.30338 0.87983 0.0
N1170 N 0.83326 0.31138 0.8936 0.0
C1171 C 0.83492 0.27176 0.92593 0.0
C1172 C 0.85934 0.26354 0.91216 0.0
C1173 C 0.75491 0.32934 0.88238 0.0
C1174 C 0.75405 0.40896 0.79037 0.0
C1175 C 0.72275 0.38386 0.83487 0.0
C1176 C 0.71272 0.38529 0.80523 0.0
C1177 C 0.72854 0.39791 0.78287 0.0
N1178 N 0.74782 0.39472 0.84205 0.0
C1179 C 0.76341 0.40718 0.82025 0.0
Co1180 Co 0.65522 0.18552 0.12766 0.0
Co1181 Co 0.60806 0.23841 0.12502 0.0
O1182 O 0.62166 0.20382 0.14144 0.0
C1183 C 0.66269 0.19408 0.19323 0.0
O1184 O 0.65354 0.21905 0.18852 0.0
C1185 C 0.55893 0.20243 0.11749 0.0
O1186 O 0.57399 0.18441 0.10284 0.0
O1187 O 0.61115 0.22405 0.08302 0.0
O1188 O 0.64594 0.19361 0.08411 0.0
H1189 H 0.60777 0.31857 0.05325 0.0
H1190 H 0.61681 0.15653 0.16888 0.0
O1191 O 0.6651 0.17737 0.17109 0.0
H1192 H 0.62151 0.09935 0.07669 0.0
H1193 H 0.72642 0.1106 0.13012 0.0
H1194 H 0.69783 0.19717 0.08135 0.0
H1195 H 0.64872 0.14193 0.08069 0.0
H1196 H 0.68402 0.13422 0.14626 0.0
O1197 O 0.56961 0.2244 0.12778 0.0
H1198 H 0.62531 0.27535 0.07507 0.0
H1199 H 0.56027 0.27458 0.13928 0.0
H1200 H 0.74025 0.17413 0.06431 0.0
H1201 H 0.5894 0.11399 0.16594 0.0
H1202 H 0.75478 0.13052 0.08877 0.0
H1203 H 0.59162 0.08511 0.11956 0.0
O1204 O 0.67688 0.2202 0.13013 0.0
H1205 H 0.5812 0.2339 0.23495 0.0
H1206 H 0.62587 0.29 0.15596 0.0
H1207 H 0.62343 0.30748 0.20837 0.0
H1208 H 0.60094 0.27937 0.24829 0.0
H1209 H 0.58438 0.21705 0.18231 0.0
H1210 H 0.5419 0.31768 0.11799 0.0
H1211 H 0.56576 0.34002 0.07473 0.0
O1212 O 0.64595 0.25354 0.12215 0.0
C1213 C 0.62797 0.20782 0.06989 0.0
C1214 C 0.59725 0.30909 0.07217 0.0
C1215 C 0.56026 0.30857 0.10848 0.0
N1216 N 0.59398 0.27259 0.10859 0.0
C1217 C 0.60713 0.28466 0.08468 0.0
C1218 C 0.57073 0.28414 0.12041 0.0
C1219 C 0.57366 0.3211 0.08421 0.0
C1220 C 0.61804 0.14395 0.14873 0.0
N1221 N 0.63445 0.15161 0.12506 0.0
C1222 C 0.60241 0.11994 0.14715 0.0
C1223 C 0.60363 0.10376 0.1211 0.0
C1224 C 0.62039 0.11175 0.09703 0.0
C1225 C 0.63571 0.13591 0.0994 0.0
C1226 C 0.72027 0.12956 0.11924 0.0
C1227 C 0.70394 0.17811 0.09195 0.0
C1228 C 0.69632 0.14305 0.12833 0.0
N1229 N 0.68837 0.16692 0.11458 0.0
C1230 C 0.72801 0.1652 0.08228 0.0
C1231 C 0.73617 0.14075 0.09603 0.0
C1232 C 0.67056 0.24529 0.12577 0.0
C1233 C 0.59098 0.24638 0.21774 0.0
C1234 C 0.61615 0.27759 0.17321 0.0
C1235 C 0.61475 0.28764 0.20284 0.0
C1236 C 0.6021 0.27187 0.22522 0.0
N1237 N 0.60522 0.25255 0.16605 0.0
C1238 C 0.59273 0.237 0.18786 0.0
Co1239 Co 0.81495 0.65551 0.12761 0.0
Co1240 Co 0.7621 0.60832 0.12483 0.0
O1241 O 0.79662 0.62196 0.14137 0.0
C1242 C 0.80617 0.66303 0.19313 0.0
O1243 O 0.78121 0.65387 0.18832 0.0
C1244 C 0.7981 0.55918 0.11747 0.0
O1245 O 0.81615 0.57422 0.10283 0.0
O1246 O 0.7766 0.61137 0.0829 0.0
O1247 O 0.807 0.64619 0.08404 0.0
H1248 H 0.68222 0.6079 0.05268 0.0
H1249 H 0.84383 0.61715 0.16899 0.0
O1250 O 0.82295 0.66543 0.17106 0.0
H1251 H 0.9013 0.6218 0.07702 0.0
H1252 H 0.88982 0.72675 0.1303 0.0
H1253 H 0.80343 0.69808 0.08121 0.0
H1254 H 0.85869 0.64899 0.08082 0.0
H1255 H 0.86617 0.68435 0.14638 0.0
O1256 O 0.77612 0.56988 0.1277 0.0
H1257 H 0.72534 0.6255 0.0747 0.0
H1258 H 0.7259 0.56052 0.13899 0.0
H1259 H 0.8265 0.74049 0.06422 0.0
H1260 H 0.8864 0.58976 0.16625 0.0
H1261 H 0.87002 0.75507 0.08884 0.0
H1262 H 0.91542 0.59196 0.11998 0.0
O1263 O 0.78026 0.67716 0.12993 0.0
H1264 H 0.76622 0.58157 0.23482 0.0
H1265 H 0.71039 0.62613 0.15551 0.0
H1266 H 0.69271 0.62373 0.20785 0.0
H1267 H 0.72069 0.60129 0.24792 0.0
H1268 H 0.78326 0.58471 0.18224 0.0
H1269 H 0.6829 0.54209 0.11751 0.0
H1270 H 0.66072 0.56589 0.07411 0.0
O1271 O 0.74696 0.6462 0.12185 0.0
C1272 C 0.79286 0.62818 0.0698 0.0
C1273 C 0.69163 0.5974 0.07166 0.0
C1274 C 0.69204 0.56045 0.10803 0.0
N1275 N 0.72799 0.5942 0.10828 0.0
C1276 C 0.716 0.60732 0.08428 0.0
C1277 C 0.71641 0.57096 0.12006 0.0
C1278 C 0.67959 0.57382 0.08368 0.0
C1279 C 0.85647 0.61837 0.14888 0.0
N1280 N 0.84887 0.63475 0.12517 0.0
C1281 C 0.8805 0.60275 0.14741 0.0
C1282 C 0.89676 0.60396 0.12143 0.0
C1283 C 0.88884 0.62069 0.09732 0.0
C1284 C 0.86466 0.63599 0.09957 0.0
C1285 C 0.8709 0.72058 0.11935 0.0
C1286 C 0.82245 0.7042 0.09188 0.0
C1287 C 0.8574 0.69663 0.12841 0.0
N1288 N 0.83357 0.68866 0.11457 0.0
C1289 C 0.83538 0.72828 0.08224 0.0
C1290 C 0.85978 0.73646 0.09608 0.0
C1291 C 0.75518 0.67082 0.12548 0.0
C1292 C 0.7538 0.59133 0.21753 0.0
C1293 C 0.72274 0.61643 0.17283 0.0
C1294 C 0.71258 0.61506 0.20242 0.0
C1295 C 0.72828 0.60244 0.22489 0.0
N1296 N 0.74782 0.60551 0.16581 0.0
C1297 C 0.76329 0.59305 0.1877 0.0
Co1298 Co 0.34476 0.81452 0.12756 0.0
Co1299 Co 0.39181 0.76154 0.12489 0.0
O1300 O 0.37826 0.79612 0.14136 0.0
C1301 C 0.33723 0.80587 0.1931 0.0
O1302 O 0.34632 0.78088 0.18834 0.0
C1303 C 0.44097 0.79749 0.11752 0.0
O1304 O 0.4259 0.81558 0.10297 0.0
O1305 O 0.38879 0.77597 0.08292 0.0
O1306 O 0.35406 0.80647 0.084 0.0
H1307 H 0.39202 0.68151 0.05292 0.0
H1308 H 0.3832 0.84336 0.16888 0.0
O1309 O 0.33487 0.82262 0.17099 0.0
H1310 H 0.37872 0.90069 0.0768 0.0
H1311 H 0.27374 0.88959 0.1301 0.0
H1312 H 0.30216 0.80304 0.08118 0.0
H1313 H 0.35141 0.85817 0.08068 0.0
H1314 H 0.31607 0.86585 0.14623 0.0
O1315 O 0.43028 0.77548 0.1277 0.0
H1316 H 0.37453 0.72472 0.07484 0.0
H1317 H 0.43953 0.72526 0.13911 0.0
H1318 H 0.25981 0.82621 0.06415 0.0
H1319 H 0.41071 0.88584 0.16605 0.0
H1320 H 0.24536 0.86981 0.08868 0.0
H1321 H 0.4086 0.9148 0.11972 0.0
O1322 O 0.32303 0.77989 0.12994 0.0
H1323 H 0.41861 0.76579 0.23485 0.0
H1324 H 0.37388 0.70993 0.15569 0.0
H1325 H 0.37626 0.69234 0.20806 0.0
H1326 H 0.39878 0.72034 0.24807 0.0
H1327 H 0.41549 0.78275 0.18224 0.0
H1328 H 0.45785 0.68217 0.11773 0.0
H1329 H 0.43398 0.65995 0.07439 0.0
O1330 O 0.35389 0.74649 0.12195 0.0
C1331 C 0.37202 0.79225 0.06979 0.0
C1332 C 0.40255 0.69094 0.07188 0.0
C1333 C 0.43951 0.69133 0.10823 0.0
N1334 N 0.40584 0.72736 0.1084 0.0
C1335 C 0.39269 0.71536 0.08444 0.0
C1336 C 0.42906 0.71575 0.12021 0.0
C1337 C 0.42611 0.67887 0.08392 0.0
C1338 C 0.38202 0.85597 0.14875 0.0
N1339 N 0.36561 0.84838 0.12505 0.0
C1340 C 0.39771 0.87995 0.14723 0.0
C1341 C 0.39654 0.89617 0.12122 0.0
C1342 C 0.37979 0.88826 0.09712 0.0
C1343 C 0.36442 0.86413 0.09942 0.0
C1344 C 0.27985 0.87064 0.11919 0.0
C1345 C 0.29609 0.8221 0.09182 0.0
C1346 C 0.30376 0.85708 0.12827 0.0
N1347 N 0.31166 0.83321 0.11448 0.0
C1348 C 0.27205 0.83508 0.08215 0.0
C1349 C 0.26394 0.85953 0.09594 0.0
C1350 C 0.3293 0.75478 0.12555 0.0
C1351 C 0.40882 0.75337 0.2176 0.0
C1352 C 0.38362 0.72229 0.17298 0.0
C1353 C 0.38497 0.71218 0.20258 0.0
C1354 C 0.39764 0.72789 0.22501 0.0
N1355 N 0.3946 0.74732 0.16589 0.0
C1356 C 0.4071 0.76281 0.18774 0.0
Co1357 Co 0.18504 0.34472 0.12762 0.0
Co1358 Co 0.23787 0.39192 0.12482 0.0
O1359 O 0.20335 0.37829 0.14136 0.0
C1360 C 0.19373 0.33728 0.19318 0.0
O1361 O 0.21869 0.34645 0.18841 0.0
C1362 C 0.20182 0.44102 0.11744 0.0
O1363 O 0.18378 0.42594 0.10284 0.0
O1364 O 0.22339 0.38884 0.08288 0.0
O1365 O 0.19304 0.35398 0.08404 0.0
H1366 H 0.31777 0.39233 0.05269 0.0
H1367 H 0.15611 0.38313 0.1689 0.0
O1368 O 0.17699 0.33485 0.17108 0.0
H1369 H 0.09874 0.37835 0.07687 0.0
H1370 H 0.11019 0.27347 0.13033 0.0
H1371 H 0.19663 0.30209 0.08131 0.0
H1372 H 0.14135 0.35117 0.08076 0.0
H1373 H 0.1338 0.3159 0.14637 0.0
O1374 O 0.22383 0.43036 0.12765 0.0
H1375 H 0.27466 0.37472 0.07472 0.0
H1376 H 0.27404 0.43975 0.13894 0.0
H1377 H 0.17359 0.25964 0.06437 0.0
H1378 H 0.11354 0.4105 0.16606 0.0
H1379 H 0.13004 0.24508 0.08895 0.0
H1380 H 0.08457 0.40824 0.11976 0.0
O1381 O 0.21974 0.32309 0.13002 0.0
H1382 H 0.23372 0.41876 0.23478 0.0
H1383 H 0.28958 0.37416 0.15553 0.0
H1384 H 0.30725 0.37662 0.20787 0.0
H1385 H 0.27925 0.39907 0.24791 0.0
H1386 H 0.21668 0.41556 0.1822 0.0
H1387 H 0.31702 0.4582 0.11745 0.0
H1388 H 0.33923 0.43437 0.07408 0.0
O1389 O 0.25303 0.35404 0.12188 0.0
C1390 C 0.20717 0.372 0.06979 0.0
C1391 C 0.30835 0.40284 0.07166 0.0
C1392 C 0.30791 0.43982 0.10798 0.0
N1393 N 0.27198 0.40604 0.10826 0.0
C1394 C 0.28398 0.39291 0.08429 0.0
C1395 C 0.28355 0.42931 0.12003 0.0
C1396 C 0.32036 0.42644 0.08365 0.0
C1397 C 0.14349 0.38188 0.14878 0.0
N1398 N 0.15112 0.36546 0.12511 0.0
C1399 C 0.11946 0.39749 0.14726 0.0
C1400 C 0.10323 0.39624 0.12125 0.0
C1401 C 0.11118 0.37948 0.09718 0.0
C1402 C 0.13536 0.36418 0.09949 0.0
C1403 C 0.12912 0.27962 0.1194 0.0
C1404 C 0.17759 0.29597 0.09197 0.0
C1405 C 0.1426 0.30359 0.12843 0.0
N1406 N 0.16644 0.31154 0.11461 0.0
C1407 C 0.16468 0.27188 0.08235 0.0
C1408 C 0.14027 0.26371 0.09617 0.0
C1409 C 0.24481 0.32943 0.12556 0.0
C1410 C 0.24614 0.40899 0.21751 0.0
C1411 C 0.27722 0.38387 0.17284 0.0
C1412 C 0.28737 0.38527 0.20243 0.0
C1413 C 0.27167 0.3979 0.22488 0.0
N1414 N 0.25214 0.39477 0.1658 0.0
C1415 C 0.23666 0.40724 0.18767 0.0
Co1416 Co 0.34444 0.18555 0.12758 0.0
Co1417 Co 0.39158 0.23846 0.1249 0.0
O1418 O 0.37798 0.20389 0.14136 0.0
C1419 C 0.33696 0.19414 0.19314 0.0
O1420 O 0.34609 0.21912 0.18842 0.0
C1421 C 0.44071 0.20247 0.11745 0.0
O1422 O 0.42564 0.18444 0.10283 0.0
O1423 O 0.38851 0.22405 0.08293 0.0
O1424 O 0.35372 0.19362 0.08402 0.0
H1425 H 0.39188 0.31851 0.05298 0.0
H1426 H 0.38287 0.15661 0.16882 0.0
O1427 O 0.33457 0.17742 0.17101 0.0
H1428 H 0.37822 0.09938 0.07668 0.0
H1429 H 0.27329 0.11059 0.1301 0.0
H1430 H 0.30182 0.19715 0.08126 0.0
H1431 H 0.35097 0.14194 0.08064 0.0
H1432 H 0.31568 0.13425 0.14621 0.0
O1433 O 0.43003 0.22446 0.1277 0.0
H1434 H 0.37433 0.27532 0.07488 0.0
H1435 H 0.43935 0.27466 0.13913 0.0
H1436 H 0.25942 0.17407 0.06424 0.0
H1437 H 0.41031 0.11409 0.16592 0.0
H1438 H 0.24491 0.13047 0.08874 0.0
H1439 H 0.40812 0.08518 0.11956 0.0
O1440 O 0.32276 0.22022 0.13002 0.0
H1441 H 0.41839 0.23413 0.23485 0.0
H1442 H 0.37373 0.29008 0.15573 0.0
H1443 H 0.37614 0.30765 0.20811 0.0
H1444 H 0.39863 0.2796 0.2481 0.0
H1445 H 0.41524 0.21719 0.18224 0.0
H1446 H 0.45772 0.31773 0.11776 0.0
H1447 H 0.43387 0.34 0.07444 0.0
O1448 O 0.35367 0.25356 0.12198 0.0
C1449 C 0.37171 0.20781 0.0698 0.0
C1450 C 0.40239 0.30906 0.07193 0.0
C1451 C 0.43937 0.30861 0.10826 0.0
N1452 N 0.40565 0.27262 0.10843 0.0
C1453 C 0.39251 0.28465 0.08448 0.0
C1454 C 0.42889 0.2842 0.12023 0.0
C1455 C 0.42597 0.32109 0.08396 0.0
C1456 C 0.38165 0.14402 0.14868 0.0
N1457 N 0.36523 0.15166 0.12501 0.0
C1458 C 0.3973 0.12002 0.14712 0.0
C1459 C 0.39609 0.10383 0.12108 0.0
C1460 C 0.37933 0.11179 0.09701 0.0
C1461 C 0.36399 0.13593 0.09936 0.0
C1462 C 0.27943 0.12955 0.11921 0.0
C1463 C 0.29573 0.17809 0.09188 0.0
C1464 C 0.30337 0.14306 0.12828 0.0
N1465 N 0.3113 0.16692 0.11451 0.0
C1466 C 0.27166 0.16516 0.08222 0.0
C1467 C 0.26352 0.14071 0.09599 0.0
C1468 C 0.32907 0.24531 0.12562 0.0
C1469 C 0.40861 0.24657 0.21761 0.0
C1470 C 0.38345 0.2777 0.17301 0.0
C1471 C 0.38483 0.2878 0.20262 0.0
C1472 C 0.39748 0.27206 0.22504 0.0
N1473 N 0.39439 0.25265 0.16591 0.0
C1474 C 0.40688 0.23714 0.18775 0.0
Co1475 Co 0.81458 0.34471 0.12767 0.0
Co1476 Co 0.76174 0.39193 0.12495 0.0
O1477 O 0.79629 0.3783 0.14142 0.0
C1478 C 0.80592 0.33729 0.19323 0.0
O1479 O 0.78096 0.34647 0.18847 0.0
C1480 C 0.79784 0.44098 0.11745 0.0
O1481 O 0.81585 0.42585 0.10285 0.0
O1482 O 0.77613 0.38879 0.08297 0.0
O1483 O 0.80655 0.35398 0.08411 0.0
H1484 H 0.68164 0.39227 0.05309 0.0
H1485 H 0.84355 0.38312 0.16892 0.0
O1486 O 0.82266 0.33486 0.17112 0.0
H1487 H 0.90083 0.37833 0.07682 0.0
H1488 H 0.88941 0.27345 0.1303 0.0
H1489 H 0.80294 0.30209 0.08137 0.0
H1490 H 0.85823 0.35115 0.08077 0.0
H1491 H 0.86582 0.31588 0.14637 0.0
O1492 O 0.77581 0.43036 0.12768 0.0
H1493 H 0.72482 0.37468 0.07498 0.0
H1494 H 0.72564 0.4398 0.13911 0.0
H1495 H 0.82596 0.25964 0.0644 0.0
H1496 H 0.88612 0.41049 0.16603 0.0
H1497 H 0.86952 0.24507 0.08894 0.0
H1498 H 0.91505 0.40823 0.11969 0.0
O1499 O 0.77987 0.32309 0.1301 0.0
H1500 H 0.76618 0.41889 0.23485 0.0
H1501 H 0.7101 0.37423 0.15584 0.0
H1502 H 0.69256 0.37675 0.20823 0.0
H1503 H 0.72067 0.39924 0.24816 0.0
H1504 H 0.78308 0.41563 0.18223 0.0
H1505 H 0.68259 0.45822 0.11774 0.0
H1506 H 0.66025 0.43434 0.07449 0.0
O1507 O 0.74656 0.35405 0.12211 0.0
C1508 C 0.79236 0.37196 0.06987 0.0
C1509 C 0.69113 0.4028 0.07201 0.0
C1510 C 0.69168 0.43983 0.10827 0.0
N1511 N 0.7276 0.40605 0.10847 0.0
C1512 C 0.71553 0.39289 0.08456 0.0
C1513 C 0.71608 0.42933 0.12024 0.0
C1514 C 0.67915 0.42642 0.08401 0.0
C1515 C 0.85615 0.38187 0.14879 0.0
N1516 N 0.8485 0.36545 0.12512 0.0
C1517 C 0.88018 0.39748 0.14723 0.0
C1518 C 0.89638 0.39623 0.12121 0.0
C1519 C 0.88841 0.37947 0.09714 0.0
C1520 C 0.86424 0.36417 0.09949 0.0
C1521 C 0.87047 0.27961 0.11939 0.0
C1522 C 0.82198 0.29597 0.09201 0.0
C1523 C 0.857 0.30357 0.12844 0.0
N1524 N 0.83316 0.31154 0.11465 0.0
C1525 C 0.83488 0.27188 0.08237 0.0
C1526 C 0.85931 0.2637 0.09617 0.0
C1527 C 0.75479 0.32944 0.12573 0.0
C1528 C 0.75371 0.40911 0.21763 0.0
C1529 C 0.72251 0.38395 0.1731 0.0
C1530 C 0.71243 0.38539 0.20271 0.0
C1531 C 0.72819 0.39804 0.2251 0.0
N1532 N 0.74757 0.39483 0.16596 0.0
C1533 C 0.76312 0.40732 0.18777 0.0
Co1534 Co 0.65543 0.81462 0.12759 0.0
Co1535 Co 0.60837 0.76165 0.12489 0.0
O1536 O 0.62192 0.79622 0.14138 0.0
C1537 C 0.66295 0.80595 0.19313 0.0
O1538 O 0.65386 0.78096 0.18836 0.0
C1539 C 0.55919 0.79757 0.11752 0.0
O1540 O 0.57423 0.81566 0.10295 0.0
O1541 O 0.61139 0.77609 0.08293 0.0
O1542 O 0.64614 0.80657 0.08403 0.0
H1543 H 0.60816 0.68164 0.0529 0.0
H1544 H 0.61699 0.84347 0.1689 0.0
O1545 O 0.66531 0.82271 0.17103 0.0
H1546 H 0.6215 0.90079 0.07682 0.0
H1547 H 0.72646 0.88968 0.13015 0.0
H1548 H 0.69804 0.80313 0.08123 0.0
H1549 H 0.6488 0.85826 0.08071 0.0
H1550 H 0.68413 0.86594 0.14628 0.0
O1551 O 0.56989 0.77558 0.12772 0.0
H1552 H 0.62564 0.72485 0.07483 0.0
H1553 H 0.56066 0.72535 0.13912 0.0
H1554 H 0.74039 0.82629 0.0642 0.0
H1555 H 0.58949 0.88596 0.16607 0.0
H1556 H 0.75485 0.86989 0.08875 0.0
H1557 H 0.59161 0.91491 0.11974 0.0
O1558 O 0.67716 0.77998 0.12998 0.0
H1559 H 0.58159 0.76587 0.23486 0.0
H1560 H 0.62631 0.71003 0.15568 0.0
H1561 H 0.62395 0.69243 0.20805 0.0
H1562 H 0.60143 0.72041 0.24806 0.0
H1563 H 0.58469 0.78284 0.18226 0.0
H1564 H 0.54234 0.68227 0.11773 0.0
H1565 H 0.56621 0.66007 0.07438 0.0
O1566 O 0.64629 0.7466 0.12194 0.0
C1567 C 0.62817 0.79236 0.06981 0.0
C1568 C 0.59763 0.69106 0.07186 0.0
C1569 C 0.56068 0.69143 0.10822 0.0
N1570 N 0.59434 0.72747 0.1084 0.0
C1571 C 0.60748 0.71548 0.08443 0.0
C1572 C 0.57112 0.71585 0.12021 0.0
C1573 C 0.57408 0.67898 0.0839 0.0
C1574 C 0.61818 0.85608 0.14877 0.0
N1575 N 0.63459 0.84848 0.12508 0.0
C1576 C 0.60249 0.88006 0.14725 0.0
C1577 C 0.60367 0.89628 0.12123 0.0
C1578 C 0.62042 0.88836 0.09714 0.0
C1579 C 0.63579 0.86423 0.09945 0.0
C1580 C 0.72035 0.87072 0.11925 0.0
C1581 C 0.70411 0.82219 0.09186 0.0
C1582 C 0.69644 0.85717 0.12832 0.0
N1583 N 0.68853 0.83331 0.11453 0.0
C1584 C 0.72815 0.83517 0.0822 0.0
C1585 C 0.73626 0.85961 0.096 0.0
C1586 C 0.67088 0.75488 0.12556 0.0
C1587 C 0.59138 0.75345 0.21761 0.0
C1588 C 0.61658 0.72238 0.17297 0.0
C1589 C 0.61523 0.71227 0.20258 0.0
C1590 C 0.60256 0.72797 0.22501 0.0
N1591 N 0.60559 0.74742 0.16589 0.0
C1592 C 0.59308 0.7629 0.18775 0.0
Co1593 Co 0.18514 0.65556 0.12761 0.0
Co1594 Co 0.23792 0.60829 0.12481 0.0
O1595 O 0.20342 0.62197 0.14136 0.0
C1596 C 0.19385 0.663 0.19316 0.0
O1597 O 0.2188 0.65381 0.18839 0.0
C1598 C 0.20183 0.55922 0.11746 0.0
O1599 O 0.1838 0.5743 0.10284 0.0
O1600 O 0.22342 0.61138 0.08288 0.0
O1601 O 0.19312 0.64628 0.08403 0.0
H1602 H 0.31779 0.60778 0.05265 0.0
H1603 H 0.15617 0.6172 0.16891 0.0
O1604 O 0.1771 0.66544 0.17106 0.0
H1605 H 0.0988 0.62202 0.07688 0.0
H1606 H 0.11037 0.7269 0.13031 0.0
H1607 H 0.19677 0.69816 0.08128 0.0
H1608 H 0.14144 0.64915 0.08076 0.0
H1609 H 0.13394 0.68445 0.14636 0.0
O1610 O 0.22385 0.56987 0.12767 0.0
H1611 H 0.27471 0.62544 0.07469 0.0
H1612 H 0.27405 0.56044 0.13895 0.0
H1613 H 0.17378 0.74064 0.06433 0.0
H1614 H 0.11357 0.58987 0.16608 0.0
H1615 H 0.13026 0.75525 0.08892 0.0
H1616 H 0.08459 0.59216 0.11978 0.0
O1617 O 0.21986 0.67715 0.13 0.0
H1618 H 0.23377 0.58151 0.23478 0.0
H1619 H 0.28965 0.62602 0.1555 0.0
H1620 H 0.30733 0.62358 0.20783 0.0
H1621 H 0.27933 0.60116 0.2479 0.0
H1622 H 0.21672 0.5847 0.18222 0.0
H1623 H 0.31701 0.54194 0.11745 0.0
H1624 H 0.33922 0.56573 0.07406 0.0
O1625 O 0.25311 0.64616 0.12185 0.0
C1626 C 0.20722 0.62824 0.06979 0.0
C1627 C 0.30836 0.59729 0.07163 0.0
C1628 C 0.30791 0.56032 0.10798 0.0
N1629 N 0.27201 0.59414 0.10825 0.0
C1630 C 0.28401 0.60724 0.08426 0.0
C1631 C 0.28356 0.57087 0.12002 0.0
C1632 C 0.32036 0.57368 0.08363 0.0
C1633 C 0.14355 0.61845 0.14879 0.0
N1634 N 0.15119 0.63486 0.12511 0.0
C1635 C 0.1195 0.60287 0.14727 0.0
C1636 C 0.10327 0.60413 0.12127 0.0
C1637 C 0.11123 0.62088 0.09719 0.0
C1638 C 0.13543 0.63615 0.09949 0.0
C1639 C 0.12929 0.72072 0.11938 0.0
C1640 C 0.17774 0.70431 0.09194 0.0
C1641 C 0.14275 0.69674 0.12841 0.0
N1642 N 0.16658 0.68875 0.11459 0.0
C1643 C 0.16486 0.72841 0.08232 0.0
C1644 C 0.14046 0.73661 0.09615 0.0
C1645 C 0.24493 0.67079 0.12552 0.0
C1646 C 0.2462 0.59126 0.21751 0.0
C1647 C 0.27729 0.61634 0.17281 0.0
C1648 C 0.28745 0.61494 0.2024 0.0
C1649 C 0.27174 0.60233 0.22486 0.0
N1650 N 0.2522 0.60546 0.16579 0.0
C1651 C 0.23671 0.59301 0.18768 0.0
Co1652 Co 0.34492 0.81439 0.88035 0.0
Co1653 Co 0.39191 0.76136 0.88317 0.0
O1654 O 0.37842 0.79594 0.86662 0.0
C1655 C 0.33747 0.80571 0.81479 0.0
O1656 O 0.34653 0.78071 0.81957 0.0
C1657 C 0.44108 0.79729 0.89051 0.0
O1658 O 0.42601 0.81541 0.905 0.0
O1659 O 0.38886 0.77586 0.9251 0.0
O1660 O 0.35415 0.80637 0.92393 0.0
H1661 H 0.39196 0.68144 0.95527 0.0
H1662 H 0.38345 0.84315 0.83906 0.0
O1663 O 0.3351 0.82247 0.83689 0.0
H1664 H 0.37892 0.90056 0.93107 0.0
H1665 H 0.27399 0.88955 0.87761 0.0
H1666 H 0.30225 0.803 0.92666 0.0
H1667 H 0.35155 0.85807 0.92719 0.0
H1668 H 0.31632 0.86574 0.86157 0.0
O1669 O 0.4304 0.77526 0.88037 0.0
H1670 H 0.37454 0.72463 0.93325 0.0
H1671 H 0.4396 0.72501 0.86906 0.0
H1672 H 0.2599 0.82623 0.9436 0.0
H1673 H 0.41102 0.88559 0.84189 0.0
H1674 H 0.24553 0.86983 0.91899 0.0
H1675 H 0.40888 0.91459 0.88818 0.0
O1676 O 0.32315 0.77978 0.87797 0.0
H1677 H 0.41882 0.76542 0.77323 0.0
H1678 H 0.37395 0.70973 0.85244 0.0
H1679 H 0.37636 0.69206 0.8001 0.0
H1680 H 0.39895 0.71997 0.76007 0.0
H1681 H 0.41567 0.78246 0.8258 0.0
H1682 H 0.45786 0.68193 0.89054 0.0
H1683 H 0.43392 0.6598 0.93389 0.0
O1684 O 0.35397 0.74636 0.88609 0.0
C1685 C 0.37209 0.79216 0.93819 0.0
C1686 C 0.40251 0.69083 0.93631 0.0
C1687 C 0.43951 0.69112 0.9 0.0
N1688 N 0.40589 0.72719 0.89973 0.0
C1689 C 0.3927 0.71524 0.92369 0.0
C1690 C 0.42911 0.71554 0.88797 0.0
C1691 C 0.42607 0.67872 0.92432 0.0
C1692 C 0.38226 0.85578 0.85917 0.0
N1693 N 0.36581 0.84823 0.88285 0.0
C1694 C 0.39798 0.87973 0.86069 0.0
C1695 C 0.3968 0.89598 0.88669 0.0
C1696 C 0.38 0.88811 0.91077 0.0
C1697 C 0.3646 0.864 0.90846 0.0
C1698 C 0.28007 0.87059 0.88855 0.0
C1699 C 0.29621 0.82206 0.916 0.0
C1700 C 0.30397 0.857 0.87952 0.0
N1701 N 0.31183 0.83313 0.89334 0.0
C1702 C 0.27218 0.83507 0.92561 0.0
C1703 C 0.26411 0.85952 0.91178 0.0
C1704 C 0.32939 0.75468 0.88242 0.0
C1705 C 0.40899 0.75304 0.79049 0.0
C1706 C 0.38372 0.72205 0.83514 0.0
C1707 C 0.38509 0.7119 0.80555 0.0
C1708 C 0.3978 0.72755 0.78311 0.0
N1709 N 0.39472 0.74709 0.84219 0.0
C1710 C 0.40726 0.76252 0.82032 0.0
Co1711 Co 0.18504 0.34464 0.88037 0.0
Co1712 Co 0.23784 0.39189 0.88312 0.0
O1713 O 0.20333 0.37822 0.8666 0.0
C1714 C 0.19375 0.33715 0.81482 0.0
O1715 O 0.2187 0.34635 0.81958 0.0
C1716 C 0.20177 0.44099 0.8905 0.0
O1717 O 0.18375 0.42591 0.90513 0.0
O1718 O 0.22337 0.38882 0.92507 0.0
O1719 O 0.19303 0.35395 0.92394 0.0
H1720 H 0.31776 0.39239 0.95523 0.0
H1721 H 0.15608 0.383 0.83906 0.0
O1722 O 0.177 0.33474 0.83692 0.0
H1723 H 0.09872 0.37825 0.9311 0.0
H1724 H 0.11024 0.27333 0.87774 0.0
H1725 H 0.19667 0.30206 0.92672 0.0
H1726 H 0.14135 0.3511 0.92722 0.0
H1727 H 0.13383 0.31577 0.86165 0.0
O1728 O 0.22378 0.43032 0.88028 0.0
H1729 H 0.27465 0.37474 0.93323 0.0
H1730 H 0.27398 0.43974 0.86896 0.0
H1731 H 0.17366 0.2596 0.9437 0.0
H1732 H 0.11349 0.41034 0.84187 0.0
H1733 H 0.13012 0.245 0.91913 0.0
H1734 H 0.08452 0.4081 0.88818 0.0
O1735 O 0.21976 0.32304 0.87799 0.0
H1736 H 0.23363 0.41865 0.77315 0.0
H1737 H 0.28956 0.37415 0.85241 0.0
H1738 H 0.30721 0.37658 0.80006 0.0
H1739 H 0.27918 0.39899 0.76001 0.0
H1740 H 0.21662 0.41548 0.82573 0.0
H1741 H 0.31696 0.45822 0.89043 0.0
H1742 H 0.33919 0.43443 0.93381 0.0
O1743 O 0.25303 0.35402 0.88608 0.0
C1744 C 0.20716 0.37197 0.93818 0.0
C1745 C 0.30832 0.40288 0.93626 0.0
C1746 C 0.30785 0.43984 0.89991 0.0
N1747 N 0.27195 0.40604 0.89966 0.0
C1748 C 0.28396 0.39293 0.92364 0.0
C1749 C 0.28349 0.42931 0.88788 0.0
C1750 C 0.32032 0.42649 0.92425 0.0
C1751 C 0.14346 0.38176 0.85918 0.0
N1752 N 0.1511 0.36536 0.88287 0.0
C1753 C 0.11942 0.39735 0.86069 0.0
C1754 C 0.10319 0.39611 0.88669 0.0
C1755 C 0.11116 0.37938 0.91079 0.0
C1756 C 0.13534 0.36409 0.90849 0.0
C1757 C 0.12917 0.27951 0.88866 0.0
C1758 C 0.17763 0.29592 0.91607 0.0
C1759 C 0.14264 0.30348 0.87961 0.0
N1760 N 0.16647 0.31147 0.89341 0.0
C1761 C 0.16474 0.27183 0.92571 0.0
C1762 C 0.14033 0.26363 0.91189 0.0
C1763 C 0.24483 0.3294 0.88243 0.0
C1764 C 0.24607 0.40891 0.79042 0.0
C1765 C 0.27719 0.38384 0.8351 0.0
C1766 C 0.28733 0.38523 0.80551 0.0
C1767 C 0.2716 0.39783 0.78305 0.0
N1768 N 0.2521 0.39472 0.84214 0.0
C1769 C 0.2366 0.40717 0.82026 0.0
Co1770 Co 0.65529 0.18546 0.88052 0.0
Co1771 Co 0.60815 0.23837 0.88309 0.0
O1772 O 0.62175 0.20377 0.8667 0.0
C1773 C 0.6628 0.19398 0.81495 0.0
O1774 O 0.65365 0.21896 0.81965 0.0
C1775 C 0.55899 0.20241 0.89062 0.0
O1776 O 0.57404 0.18439 0.90529 0.0
O1777 O 0.61122 0.22403 0.92511 0.0
O1778 O 0.64599 0.19358 0.92406 0.0
H1779 H 0.60786 0.31857 0.95481 0.0
H1780 H 0.61689 0.15645 0.8393 0.0
O1781 O 0.66518 0.17728 0.8371 0.0
H1782 H 0.62152 0.09933 0.93152 0.0
H1783 H 0.72646 0.11052 0.87815 0.0
H1784 H 0.69788 0.19712 0.92685 0.0
H1785 H 0.64875 0.1419 0.92752 0.0
H1786 H 0.68408 0.13414 0.86197 0.0
O1787 O 0.56969 0.22438 0.88033 0.0
H1788 H 0.62539 0.27533 0.93302 0.0
H1789 H 0.56038 0.27455 0.86878 0.0
H1790 H 0.74028 0.17407 0.94393 0.0
H1791 H 0.58947 0.11392 0.84225 0.0
H1792 H 0.75481 0.13045 0.91951 0.0
H1793 H 0.59165 0.08507 0.88865 0.0
O1794 O 0.67696 0.22013 0.87805 0.0
H1795 H 0.58133 0.2338 0.77315 0.0
H1796 H 0.62599 0.28993 0.85213 0.0
H1797 H 0.62357 0.30738 0.7997 0.0
H1798 H 0.60109 0.27925 0.75979 0.0
H1799 H 0.58449 0.21698 0.82581 0.0
H1800 H 0.54201 0.31767 0.89003 0.0
H1801 H 0.56587 0.34003 0.93328 0.0
O1802 O 0.64604 0.25348 0.88597 0.0
C1803 C 0.62801 0.2078 0.93826 0.0
C1804 C 0.59734 0.30909 0.93589 0.0
C1805 C 0.56036 0.30856 0.89955 0.0
N1806 N 0.59407 0.27256 0.89949 0.0
C1807 C 0.60722 0.28464 0.9234 0.0
C1808 C 0.57084 0.28412 0.88765 0.0
C1809 C 0.57376 0.32109 0.92382 0.0
C1810 C 0.61811 0.14389 0.85946 0.0
N1811 N 0.63451 0.15156 0.88313 0.0
C1812 C 0.60246 0.11988 0.86105 0.0
C1813 C 0.60367 0.10372 0.8871 0.0
C1814 C 0.62042 0.11171 0.91117 0.0
C1815 C 0.63575 0.13587 0.9088 0.0
C1816 C 0.72032 0.12948 0.88901 0.0
C1817 C 0.70399 0.17805 0.91627 0.0
C1818 C 0.69638 0.14297 0.8799 0.0
N1819 N 0.68843 0.16685 0.89363 0.0
C1820 C 0.72805 0.16514 0.92596 0.0
C1821 C 0.73621 0.14067 0.91222 0.0
C1822 C 0.67065 0.24522 0.88238 0.0
C1823 C 0.59111 0.24628 0.79036 0.0
C1824 C 0.61627 0.27751 0.83488 0.0
C1825 C 0.61489 0.28754 0.80524 0.0
C1826 C 0.60224 0.27176 0.78287 0.0
N1827 N 0.60533 0.25248 0.84205 0.0
C1828 C 0.59284 0.23692 0.82025 0.0
Co1829 Co 0.8151 0.65539 0.8804 0.0
Co1830 Co 0.76229 0.60815 0.88315 0.0
O1831 O 0.79681 0.62181 0.86664 0.0
C1832 C 0.80635 0.66287 0.81487 0.0
O1833 O 0.7814 0.65368 0.81967 0.0
C1834 C 0.79832 0.55904 0.8906 0.0
O1835 O 0.81633 0.57409 0.90529 0.0
O1836 O 0.77675 0.61124 0.9251 0.0
O1837 O 0.80712 0.64609 0.92397 0.0
H1838 H 0.68235 0.60768 0.95523 0.0
H1839 H 0.84405 0.61703 0.83907 0.0
O1840 O 0.82312 0.66529 0.83695 0.0
H1841 H 0.90144 0.62178 0.93108 0.0
H1842 H 0.88991 0.72669 0.87772 0.0
H1843 H 0.80351 0.69797 0.92676 0.0
H1844 H 0.85881 0.64893 0.92723 0.0
H1845 H 0.86631 0.68426 0.86165 0.0
O1846 O 0.77634 0.56973 0.88032 0.0
H1847 H 0.72547 0.62532 0.93324 0.0
H1848 H 0.72615 0.56031 0.86899 0.0
H1849 H 0.82653 0.74042 0.94374 0.0
H1850 H 0.88663 0.58969 0.84186 0.0
H1851 H 0.87005 0.75502 0.91914 0.0
H1852 H 0.91563 0.59193 0.88815 0.0
O1853 O 0.78039 0.677 0.87804 0.0
H1854 H 0.76652 0.58135 0.7732 0.0
H1855 H 0.71059 0.6259 0.85241 0.0
H1856 H 0.69295 0.62345 0.80006 0.0
H1857 H 0.72098 0.60102 0.76003 0.0
H1858 H 0.78352 0.58454 0.82578 0.0
H1859 H 0.68316 0.54184 0.89045 0.0
H1860 H 0.66092 0.56564 0.93381 0.0
O1861 O 0.74711 0.64602 0.8861 0.0
C1862 C 0.79298 0.62807 0.9382 0.0
C1863 C 0.69179 0.59719 0.93627 0.0
C1864 C 0.69226 0.56022 0.89993 0.0
N1865 N 0.72818 0.59401 0.89969 0.0
C1866 C 0.71616 0.60713 0.92366 0.0
C1867 C 0.71663 0.57075 0.88791 0.0
C1868 C 0.67979 0.57358 0.92425 0.0
C1869 C 0.85667 0.61827 0.85918 0.0
N1870 N 0.84904 0.63466 0.88288 0.0
C1871 C 0.88071 0.60268 0.86068 0.0
C1872 C 0.89695 0.60392 0.88668 0.0
C1873 C 0.889 0.62065 0.91078 0.0
C1874 C 0.86481 0.63593 0.90849 0.0
C1875 C 0.87098 0.72051 0.88866 0.0
C1876 C 0.82254 0.70411 0.9161 0.0
C1877 C 0.85751 0.69655 0.87961 0.0
N1878 N 0.83369 0.68856 0.89343 0.0
C1879 C 0.83544 0.7282 0.92574 0.0
C1880 C 0.85984 0.7364 0.91191 0.0
C1881 C 0.75532 0.67065 0.88247 0.0
C1882 C 0.75408 0.5911 0.79046 0.0
C1883 C 0.72296 0.6162 0.83511 0.0
C1884 C 0.71283 0.6148 0.80552 0.0
C1885 C 0.72855 0.60219 0.78308 0.0
N1886 N 0.74804 0.60531 0.84217 0.0
C1887 C 0.76354 0.59285 0.8203 0.0
C1888 C 0.20594 0.18574 0.3878 0.0
C1889 C 0.23361 0.19253 0.38263 0.0
H1890 H 0.16467 0.19969 0.39177 0.0
C1891 C 0.24056 0.22025 0.37773 0.0
H1892 H 0.19971 0.16469 0.39182 0.0
C1893 C 0.22018 0.2406 0.37771 0.0
C1894 C 0.19248 0.23362 0.38258 0.0
H1895 H 0.26169 0.22622 0.37376 0.0
H1896 H 0.22614 0.26173 0.37373 0.0
C1897 C 0.18571 0.20594 0.38777 0.0
C1898 C 0.79381 0.18597 0.3882 0.0
C1899 C 0.76615 0.19272 0.38286 0.0
H1900 H 0.83505 0.19999 0.39232 0.0
C1901 C 0.75919 0.2204 0.37782 0.0
H1902 H 0.80005 0.16495 0.39235 0.0
C1903 C 0.77955 0.24078 0.37781 0.0
C1904 C 0.80724 0.23385 0.38284 0.0
H1905 H 0.73808 0.22634 0.37372 0.0
H1906 H 0.77358 0.26189 0.3737 0.0
C1907 C 0.81402 0.2062 0.38819 0.0
C1908 C 0.81388 0.79389 0.38849 0.0
C1909 C 0.80717 0.76625 0.38299 0.0
H1910 H 0.79984 0.8351 0.39275 0.0
C1911 C 0.7795 0.75928 0.37783 0.0
H1912 H 0.83489 0.80013 0.39272 0.0
C1913 C 0.75912 0.77963 0.37784 0.0
C1914 C 0.76602 0.80731 0.38301 0.0
H1915 H 0.7736 0.73818 0.37361 0.0
H1916 H 0.73802 0.77367 0.37363 0.0
C1917 C 0.79365 0.81408 0.3885 0.0
C1918 C 0.18609 0.79403 0.38817 0.0
C1919 C 0.19279 0.76636 0.38279 0.0
H1920 H 0.20018 0.83523 0.39235 0.0
C1921 C 0.22046 0.75935 0.37775 0.0
H1922 H 0.16508 0.8003 0.39231 0.0
C1923 C 0.24088 0.77967 0.37777 0.0
C1924 C 0.23399 0.80737 0.38283 0.0
H1925 H 0.22636 0.73823 0.37362 0.0
H1926 H 0.26198 0.77368 0.37365 0.0
C1927 C 0.20636 0.8142 0.38819 0.0
C1928 C 0.2206 0.75948 0.63017 0.0
C1929 C 0.19292 0.76654 0.62524 0.0
H1930 H 0.26214 0.77372 0.63419 0.0
C1931 C 0.18625 0.79424 0.62001 0.0
H1932 H 0.22648 0.73833 0.63419 0.0
C1933 C 0.20654 0.81438 0.62001 0.0
C1934 C 0.23418 0.8075 0.62524 0.0
H1935 H 0.16523 0.80055 0.61595 0.0
H1936 H 0.20038 0.83544 0.61596 0.0
C1937 C 0.24104 0.77976 0.63017 0.0
C1938 C 0.24069 0.22007 0.63024 0.0
C1939 C 0.23377 0.19234 0.62544 0.0
H1940 H 0.22623 0.26154 0.63415 0.0
C1941 C 0.20609 0.18549 0.62036 0.0
H1942 H 0.26181 0.22608 0.63414 0.0
C1943 C 0.18584 0.20567 0.62036 0.0
C1944 C 0.19258 0.23338 0.62544 0.0
H1945 H 0.19989 0.16443 0.61641 0.0
H1946 H 0.1648 0.19939 0.61641 0.0
C1947 C 0.22029 0.24039 0.63024 0.0
C1948 C 0.75926 0.22028 0.63037 0.0
C1949 C 0.76621 0.1926 0.62527 0.0
H1950 H 0.77366 0.26176 0.63453 0.0
C1951 C 0.79386 0.18585 0.61987 0.0
H1952 H 0.73815 0.22622 0.63452 0.0
C1953 C 0.81407 0.20608 0.61988 0.0
C1954 C 0.8073 0.23372 0.62528 0.0
H1955 H 0.80009 0.16483 0.61568 0.0
H1956 H 0.83509 0.19986 0.61569 0.0
C1957 C 0.77962 0.24065 0.63037 0.0
C1958 C 0.77955 0.75916 0.63018 0.0
C1959 C 0.80722 0.76614 0.625 0.0
H1960 H 0.73807 0.77353 0.6344 0.0
C1961 C 0.81391 0.79378 0.61948 0.0
H1962 H 0.77366 0.73806 0.63442 0.0
C1963 C 0.79366 0.81396 0.61946 0.0
C1964 C 0.76604 0.80718 0.62498 0.0
H1965 H 0.83491 0.80003 0.61522 0.0
H1966 H 0.79984 0.83498 0.6152 0.0
C1967 C 0.75915 0.7795 0.63016 0.0
C1968 C 0.68637 0.70604 0.88857 0.0
C1969 C 0.69306 0.73368 0.88304 0.0
H1970 H 0.70044 0.66484 0.89283 0.0
C1971 C 0.72072 0.74066 0.87784 0.0
H1972 H 0.66537 0.69979 0.89284 0.0
C1973 C 0.74112 0.72033 0.87784 0.0
C1974 C 0.73424 0.69264 0.88303 0.0
H1975 H 0.72661 0.76176 0.87359 0.0
H1976 H 0.7622 0.72629 0.87358 0.0
C1977 C 0.70662 0.68586 0.88856 0.0
C1978 C 0.25922 0.72041 0.87777 0.0
C1979 C 0.26605 0.69272 0.88301 0.0
H1980 H 0.27379 0.76182 0.87346 0.0
C1981 C 0.29366 0.6859 0.88857 0.0
H1982 H 0.23814 0.7264 0.87349 0.0
C1983 C 0.31394 0.70605 0.88855 0.0
C1984 C 0.30729 0.7337 0.88298 0.0
H1985 H 0.2998 0.66488 0.89288 0.0
H1986 H 0.33492 0.69978 0.89285 0.0
C1987 C 0.27965 0.74071 0.87775 0.0
C1988 C 0.27942 0.25939 0.87772 0.0
C1989 C 0.30709 0.26636 0.88288 0.0
H1990 H 0.23794 0.27376 0.87352 0.0
C1991 C 0.31379 0.294 0.8884 0.0
H1992 H 0.27352 0.23828 0.87348 0.0
C1993 C 0.29354 0.31418 0.88843 0.0
C1994 C 0.26591 0.30741 0.88294 0.0
H1995 H 0.33479 0.30024 0.89265 0.0
H1996 H 0.29972 0.3352 0.8927 0.0
C1997 C 0.25903 0.27972 0.87775 0.0
C1998 C 0.68595 0.29393 0.8882 0.0
C1999 C 0.69269 0.26626 0.88287 0.0
H2000 H 0.69997 0.33516 0.89233 0.0
C2001 C 0.72037 0.25929 0.87785 0.0
H2002 H 0.66493 0.30017 0.89233 0.0
C2003 C 0.74076 0.27964 0.87785 0.0
C2004 C 0.73383 0.30734 0.88287 0.0
H2005 H 0.72631 0.23817 0.87376 0.0
H2006 H 0.76187 0.27367 0.87376 0.0
C2007 C 0.70618 0.31413 0.8882 0.0
C2008 C 0.72028 0.25938 0.13034 0.0
C2009 C 0.69259 0.26633 0.12526 0.0
H2010 H 0.76176 0.27379 0.13447 0.0
C2011 C 0.68585 0.29399 0.11986 0.0
H2012 H 0.72621 0.23827 0.13449 0.0
C2013 C 0.70607 0.31419 0.11985 0.0
C2014 C 0.73372 0.30743 0.12524 0.0
H2015 H 0.66483 0.30022 0.11569 0.0
H2016 H 0.69986 0.33522 0.11567 0.0
C2017 C 0.74065 0.27974 0.13033 0.0
C2018 C 0.70649 0.68605 0.1194 0.0
C2019 C 0.73411 0.69282 0.12494 0.0
H2020 H 0.66525 0.7 0.11516 0.0
C2021 C 0.741 0.7205 0.13015 0.0
H2022 H 0.70031 0.66504 0.11512 0.0
C2023 C 0.72061 0.74084 0.13018 0.0
C2024 C 0.69294 0.73387 0.12499 0.0
H2025 H 0.76209 0.72646 0.13441 0.0
H2026 H 0.72651 0.76194 0.13445 0.0
C2027 C 0.68625 0.70624 0.11943 0.0
C2028 C 0.25916 0.72045 0.13018 0.0
C2029 C 0.26602 0.69277 0.12498 0.0
H2030 H 0.27368 0.76188 0.13444 0.0
C2031 C 0.29364 0.68597 0.11946 0.0
H2032 H 0.23807 0.72643 0.13443 0.0
C2033 C 0.3139 0.70614 0.11947 0.0
C2034 C 0.30722 0.73379 0.125 0.0
H2035 H 0.2998 0.66495 0.11519 0.0
H2036 H 0.3349 0.69988 0.1152 0.0
C2037 C 0.27957 0.74077 0.13019 0.0
C2038 C 0.25898 0.27974 0.13023 0.0
C2039 C 0.26588 0.30742 0.12504 0.0
H2040 H 0.27344 0.23829 0.13449 0.0
C2041 C 0.29351 0.31418 0.11954 0.0
H2042 H 0.23788 0.27379 0.13447 0.0
C2043 C 0.31374 0.29398 0.11956 0.0
C2044 C 0.30703 0.26634 0.12508 0.0
H2045 H 0.29971 0.33519 0.11527 0.0
H2046 H 0.33475 0.30021 0.1153 0.0
C2047 C 0.27936 0.25939 0.13025 0.0
C2048 C 0.98558 0.28417 0.36836 0.0
C2049 C 0.97089 0.30145 0.38805 0.0
H2050 H 0.02468 0.26985 0.35351 0.0
C2051 C 0.9855 0.31999 0.40646 0.0
H2052 H 0.97501 0.26992 0.35351 0.0
C2053 C 0.01434 0.31994 0.40646 0.0
C2054 C 0.02889 0.30136 0.38805 0.0
H2055 H 0.97472 0.33361 0.42181 0.0
H2056 H 0.02516 0.33354 0.4218 0.0
C2057 C 0.01415 0.28412 0.36836 0.0
C2058 C 0.67989 0.01447 0.40612 0.0
C2059 C 0.69864 0.02903 0.38793 0.0
H2060 H 0.66608 0.97484 0.42129 0.0
C2061 C 0.71607 0.0143 0.36843 0.0
H2062 H 0.66615 0.02528 0.4213 0.0
C2063 C 0.71603 0.98573 0.36842 0.0
C2064 C 0.69856 0.97103 0.3879 0.0
H2065 H 0.73048 0.02483 0.35375 0.0
H2066 H 0.73042 0.97516 0.35373 0.0
C2067 C 0.67985 0.98562 0.40611 0.0
C2068 C 0.01427 0.71662 0.36841 0.0
C2069 C 0.029 0.69914 0.38786 0.0
H2070 H 0.97514 0.731 0.35374 0.0
C2071 C 0.01443 0.68036 0.40601 0.0
H2072 H 0.0248 0.73105 0.35376 0.0
C2073 C 0.98559 0.68033 0.406 0.0
C2074 C 0.97099 0.69908 0.38784 0.0
H2075 H 0.02524 0.66658 0.42116 0.0
H2076 H 0.97481 0.66652 0.42114 0.0
C2077 C 0.9857 0.71659 0.3684 0.0
C2078 C 0.32021 0.98562 0.40634 0.0
C2079 C 0.30164 0.97101 0.38798 0.0
H2080 H 0.33376 0.02529 0.42166 0.0
C2081 C 0.28431 0.98568 0.36833 0.0
H2082 H 0.33388 0.97486 0.42165 0.0
C2083 C 0.28424 0.01426 0.36834 0.0
C2084 C 0.3015 0.02901 0.388 0.0
H2085 H 0.27004 0.97511 0.35352 0.0
H2086 H 0.26992 0.02478 0.35354 0.0
C2087 C 0.32014 0.01447 0.40635 0.0
C2088 C 0.01437 0.71681 0.63951 0.0
C2089 C 0.02912 0.69933 0.6201 0.0
H2090 H 0.97522 0.73116 0.65416 0.0
C2091 C 0.01458 0.6805 0.60198 0.0
H2092 H 0.02488 0.73129 0.65414 0.0
C2093 C 0.98574 0.68043 0.60199 0.0
C2094 C 0.97112 0.69918 0.62012 0.0
H2095 H 0.02541 0.66671 0.58686 0.0
H2096 H 0.97498 0.66658 0.58687 0.0
C2097 C 0.9858 0.71674 0.63952 0.0
C2098 C 0.32061 0.98559 0.60131 0.0
C2099 C 0.30223 0.97097 0.61991 0.0
H2100 H 0.33398 0.02526 0.58581 0.0
C2101 C 0.28511 0.98565 0.63977 0.0
H2102 H 0.33411 0.97483 0.58583 0.0
C2103 C 0.28502 0.01422 0.63976 0.0
C2104 C 0.30207 0.02897 0.61988 0.0
H2105 H 0.271 0.97506 0.65477 0.0
H2106 H 0.27086 0.02474 0.65474 0.0
C2107 C 0.32053 0.01443 0.6013 0.0
C2108 C 0.01425 0.28384 0.63962 0.0
C2109 C 0.02899 0.3011 0.61995 0.0
H2110 H 0.9751 0.26965 0.65448 0.0
C2111 C 0.01444 0.31972 0.60158 0.0
H2112 H 0.02477 0.26954 0.65444 0.0
C2113 C 0.9856 0.31978 0.6016 0.0
C2114 C 0.97099 0.30123 0.61999 0.0
H2115 H 0.02526 0.33332 0.58625 0.0
H2116 H 0.97483 0.33344 0.58628 0.0
C2117 C 0.98568 0.28391 0.63964 0.0
C2118 C 0.67992 0.01435 0.60202 0.0
C2119 C 0.69869 0.02891 0.6202 0.0
H2120 H 0.66608 0.97473 0.58688 0.0
C2121 C 0.71614 0.01417 0.63967 0.0
H2122 H 0.66616 0.02516 0.58686 0.0
C2123 C 0.71609 0.9856 0.63968 0.0
C2124 C 0.6986 0.9709 0.62022 0.0
H2125 H 0.73057 0.0247 0.65433 0.0
H2126 H 0.73049 0.97503 0.65435 0.0
C2127 C 0.67988 0.98551 0.60204 0.0
C2128 C 0.51448 0.7831 0.86847 0.0
C2129 C 0.52919 0.80072 0.88778 0.0
H2130 H 0.47537 0.76856 0.85393 0.0
C2131 C 0.5146 0.81958 0.90581 0.0
H2132 H 0.52504 0.76859 0.85392 0.0
C2133 C 0.48576 0.81956 0.90581 0.0
C2134 C 0.47119 0.80068 0.88779 0.0
H2135 H 0.52539 0.83347 0.92084 0.0
H2136 H 0.47496 0.83344 0.92085 0.0
C2137 C 0.48591 0.78308 0.86848 0.0
C2138 C 0.21583 0.4858 0.86831 0.0
C2139 C 0.19834 0.47109 0.88776 0.0
H2140 H 0.23025 0.52492 0.85365 0.0
C2141 C 0.17958 0.48567 0.90592 0.0
H2142 H 0.23025 0.47525 0.85366 0.0
C2143 C 0.17958 0.51451 0.90592 0.0
C2144 C 0.19834 0.5291 0.88776 0.0
H2145 H 0.1658 0.47488 0.92108 0.0
H2146 H 0.1658 0.52531 0.92107 0.0
C2147 C 0.21582 0.51438 0.86831 0.0
C2148 C 0.48561 0.21658 0.86847 0.0
C2149 C 0.47088 0.19909 0.8879 0.0
H2150 H 0.52475 0.23096 0.85382 0.0
C2151 C 0.48544 0.18032 0.90606 0.0
H2152 H 0.47508 0.23101 0.85381 0.0
C2153 C 0.51428 0.18029 0.90607 0.0
C2154 C 0.52888 0.19904 0.88791 0.0
H2155 H 0.47463 0.16653 0.9212 0.0
H2156 H 0.52506 0.16648 0.92121 0.0
C2157 C 0.51419 0.21654 0.86847 0.0
C2158 C 0.78421 0.48568 0.86835 0.0
C2159 C 0.80157 0.47093 0.8879 0.0
H2160 H 0.76995 0.52483 0.8536 0.0
C2161 C 0.82029 0.48547 0.90616 0.0
H2162 H 0.76982 0.47516 0.85362 0.0
C2163 C 0.82036 0.51432 0.90614 0.0
C2164 C 0.80171 0.52893 0.88788 0.0
H2165 H 0.83398 0.47465 0.92139 0.0
H2166 H 0.8341 0.52508 0.92137 0.0
C2167 C 0.78428 0.51425 0.86833 0.0
C2168 C 0.48539 0.18029 0.10201 0.0
C2169 C 0.47081 0.19906 0.12017 0.0
H2170 H 0.52503 0.16648 0.08688 0.0
C2171 C 0.48553 0.21655 0.13961 0.0
H2172 H 0.4746 0.1665 0.08687 0.0
C2173 C 0.5141 0.21653 0.13963 0.0
C2174 C 0.52882 0.19903 0.12019 0.0
H2175 H 0.47498 0.23097 0.15426 0.0
H2176 H 0.52465 0.23095 0.15428 0.0
C2177 C 0.51423 0.18028 0.10202 0.0
C2178 C 0.78397 0.51439 0.13966 0.0
C2179 C 0.80147 0.52907 0.12019 0.0
H2180 H 0.76947 0.4753 0.15432 0.0
C2181 C 0.82018 0.51445 0.102 0.0
H2182 H 0.76959 0.52497 0.15434 0.0
C2183 C 0.82011 0.48561 0.10199 0.0
C2184 C 0.80133 0.47107 0.12017 0.0
H2185 H 0.83397 0.52522 0.08684 0.0
H2186 H 0.83386 0.47479 0.08682 0.0
C2187 C 0.7839 0.48582 0.13965 0.0
C2188 C 0.4858 0.78332 0.13958 0.0
C2189 C 0.47107 0.80089 0.12023 0.0
H2190 H 0.52493 0.76886 0.15415 0.0
C2191 C 0.48564 0.81974 0.10217 0.0
H2192 H 0.47526 0.76882 0.15415 0.0
C2193 C 0.51448 0.81976 0.10218 0.0
C2194 C 0.52908 0.80093 0.12024 0.0
H2195 H 0.47484 0.8336 0.08711 0.0
H2196 H 0.52527 0.83364 0.08711 0.0
C2197 C 0.51437 0.78334 0.13958 0.0
C2198 C 0.21587 0.48583 0.13964 0.0
C2199 C 0.19838 0.47112 0.12018 0.0
H2200 H 0.23029 0.52495 0.1543 0.0
C2201 C 0.17963 0.4857 0.10202 0.0
H2202 H 0.23029 0.47528 0.1543 0.0
C2203 C 0.17963 0.51455 0.10203 0.0
C2204 C 0.19839 0.52912 0.12019 0.0
H2205 H 0.16584 0.47491 0.08687 0.0
H2206 H 0.16584 0.52534 0.08687 0.0
C2207 C 0.21587 0.5144 0.13965 0.0
C2208 C 0.14599 0.30984 0.48812 0.0
C2209 C 0.12714 0.2936 0.47184 0.0
H2210 H 0.1611 0.32218 0.53169 0.0
C2211 C 0.10795 0.27784 0.48816 0.0
H2212 H 0.16105 0.32227 0.47636 0.0
C2213 C 0.10798 0.27778 0.51982 0.0
C2214 C 0.12719 0.29349 0.53616 0.0
H2215 H 0.09307 0.2651 0.4765 0.0
H2216 H 0.09311 0.265 0.53144 0.0
C2217 C 0.14601 0.30979 0.51991 0.0
C2218 C 0.68981 0.14611 0.51998 0.0
C2219 C 0.70596 0.12716 0.53623 0.0
H2220 H 0.67751 0.1613 0.47643 0.0
C2221 C 0.72155 0.10785 0.51989 0.0
H2222 H 0.67752 0.16127 0.53178 0.0
C2223 C 0.72155 0.10787 0.48823 0.0
C2224 C 0.70596 0.1272 0.47192 0.0
H2225 H 0.73421 0.09288 0.53151 0.0
H2226 H 0.7342 0.09291 0.47658 0.0
C2227 C 0.68981 0.14613 0.4882 0.0
C2228 C 0.89215 0.72171 0.48815 0.0
C2229 C 0.87287 0.70606 0.47183 0.0
H2230 H 0.9071 0.7344 0.53144 0.0
C2231 C 0.854 0.68984 0.4881 0.0
H2232 H 0.90707 0.73442 0.47651 0.0
C2233 C 0.85402 0.68983 0.51988 0.0
C2234 C 0.87291 0.70604 0.53614 0.0
H2235 H 0.83887 0.67749 0.47633 0.0
H2236 H 0.8389 0.67748 0.53167 0.0
C2237 C 0.89217 0.7217 0.51981 0.0
C2238 C 0.31066 0.8538 0.51984 0.0
C2239 C 0.29453 0.87273 0.53613 0.0
H2240 H 0.3229 0.83864 0.47625 0.0
C2241 C 0.2789 0.89204 0.51984 0.0
H2242 H 0.32299 0.83864 0.53158 0.0
C2243 C 0.27885 0.89204 0.48818 0.0
C2244 C 0.29442 0.87273 0.47183 0.0
H2245 H 0.26626 0.907 0.53151 0.0
H2246 H 0.26617 0.907 0.47657 0.0
C2247 C 0.31061 0.8538 0.48805 0.0
C2248 C 0.108 0.72221 0.48816 0.0
C2249 C 0.12718 0.70643 0.47184 0.0
H2250 H 0.09318 0.73505 0.53145 0.0
C2251 C 0.146 0.69015 0.48811 0.0
H2252 H 0.09313 0.73497 0.47651 0.0
C2253 C 0.14602 0.6902 0.5199 0.0
C2254 C 0.12723 0.70653 0.53615 0.0
H2255 H 0.16105 0.67771 0.47635 0.0
H2256 H 0.1611 0.67779 0.53168 0.0
C2257 C 0.10803 0.72225 0.51982 0.0
C2258 C 0.31014 0.1461 0.48807 0.0
C2259 C 0.29392 0.12721 0.47183 0.0
H2260 H 0.32256 0.1612 0.53161 0.0
C2261 C 0.27828 0.10794 0.48817 0.0
H2262 H 0.32248 0.16122 0.47628 0.0
C2263 C 0.27833 0.10793 0.51984 0.0
C2264 C 0.29402 0.12719 0.53614 0.0
H2265 H 0.26556 0.09302 0.47655 0.0
H2266 H 0.26565 0.093 0.53149 0.0
C2267 C 0.3102 0.14608 0.51985 0.0
C2268 C 0.89197 0.27839 0.48821 0.0
C2269 C 0.87268 0.29403 0.47191 0.0
H2270 H 0.90692 0.26567 0.53149 0.0
C2271 C 0.85378 0.31021 0.48819 0.0
H2272 H 0.9069 0.26571 0.47656 0.0
C2273 C 0.85379 0.31018 0.51997 0.0
C2274 C 0.87269 0.29398 0.53621 0.0
H2275 H 0.83863 0.32255 0.47643 0.0
H2276 H 0.83865 0.32251 0.53177 0.0
C2277 C 0.89198 0.27836 0.51987 0.0
C2278 C 0.72121 0.89213 0.51987 0.0
C2279 C 0.70565 0.87277 0.53618 0.0
H2280 H 0.73385 0.90713 0.47659 0.0
C2281 C 0.68951 0.85384 0.51991 0.0
H2282 H 0.73386 0.9071 0.53151 0.0
C2283 C 0.68951 0.85386 0.48812 0.0
C2284 C 0.70564 0.87281 0.47187 0.0
H2285 H 0.67723 0.83865 0.53168 0.0
H2286 H 0.67723 0.83868 0.47633 0.0
C2287 C 0.72121 0.89215 0.48821 0.0
C2288 C 0.60798 0.7783 0.01984 0.0
C2289 C 0.62725 0.79396 0.03616 0.0
H2290 H 0.59309 0.76554 0.97656 0.0
C2291 C 0.64614 0.81015 0.01989 0.0
H2292 H 0.59305 0.76561 0.03148 0.0
C2293 C 0.64617 0.81011 0.98811 0.0
C2294 C 0.6273 0.79388 0.97186 0.0
H2295 H 0.66126 0.82251 0.03167 0.0
H2296 H 0.66131 0.82244 0.97633 0.0
C2297 C 0.608 0.77826 0.98818 0.0
C2298 C 0.22103 0.60789 0.98815 0.0
C2299 C 0.20554 0.62729 0.97183 0.0
H2300 H 0.23363 0.59287 0.03145 0.0
C2301 C 0.18948 0.6463 0.98809 0.0
H2302 H 0.23361 0.59286 0.97652 0.0
C2303 C 0.18949 0.64631 0.01988 0.0
C2304 C 0.20556 0.6273 0.03614 0.0
H2305 H 0.17726 0.66153 0.97631 0.0
H2306 H 0.17728 0.66154 0.03166 0.0
C2307 C 0.22104 0.60789 0.01981 0.0
C2308 C 0.39194 0.22183 0.01984 0.0
C2309 C 0.37264 0.2062 0.03615 0.0
H2310 H 0.4069 0.23452 0.97655 0.0
C2311 C 0.35374 0.19002 0.01988 0.0
H2312 H 0.40688 0.23451 0.03148 0.0
C2313 C 0.35375 0.19003 0.98809 0.0
C2314 C 0.37266 0.20622 0.97184 0.0
H2315 H 0.33859 0.1777 0.03164 0.0
H2316 H 0.33861 0.17771 0.9763 0.0
C2317 C 0.39195 0.22184 0.98818 0.0
C2318 C 0.8102 0.35396 0.01998 0.0
C2319 C 0.79399 0.37286 0.03621 0.0
H2320 H 0.82258 0.33881 0.97644 0.0
C2321 C 0.77835 0.39213 0.01986 0.0
H2322 H 0.82254 0.33884 0.03177 0.0
C2323 C 0.77838 0.39211 0.9882 0.0
C2324 C 0.79404 0.37283 0.9719 0.0
H2325 H 0.76565 0.40706 0.03148 0.0
H2326 H 0.76569 0.40703 0.97654 0.0
C2327 C 0.81023 0.35395 0.98819 0.0
C2328 C 0.64591 0.18998 0.01998 0.0
C2329 C 0.62705 0.20623 0.03623 0.0
H2330 H 0.66103 0.17759 0.97643 0.0
C2331 C 0.60782 0.22192 0.01989 0.0
H2332 H 0.66101 0.1776 0.03176 0.0
C2333 C 0.60783 0.22192 0.98823 0.0
C2334 C 0.62708 0.20622 0.97192 0.0
H2335 H 0.59292 0.23466 0.03152 0.0
H2336 H 0.59294 0.23465 0.97658 0.0
C2337 C 0.64592 0.18998 0.98819 0.0
C2338 C 0.77901 0.60784 0.01983 0.0
C2339 C 0.79454 0.62721 0.03616 0.0
H2340 H 0.76642 0.59282 0.97654 0.0
C2341 C 0.81068 0.64615 0.0199 0.0
H2342 H 0.76637 0.59286 0.03147 0.0
C2343 C 0.81072 0.64612 0.98811 0.0
C2344 C 0.79461 0.62715 0.97185 0.0
H2345 H 0.82294 0.66135 0.03168 0.0
H2346 H 0.82299 0.6613 0.97633 0.0
C2347 C 0.77904 0.60781 0.98818 0.0
C2348 C 0.35412 0.81004 0.98807 0.0
C2349 C 0.37302 0.79382 0.97183 0.0
H2350 H 0.33897 0.82241 0.03161 0.0
C2351 C 0.39229 0.77819 0.98818 0.0
H2352 H 0.339 0.82238 0.97627 0.0
C2353 C 0.39227 0.77821 0.01984 0.0
C2354 C 0.37298 0.79387 0.03614 0.0
H2355 H 0.40722 0.76548 0.97657 0.0
H2356 H 0.40719 0.76552 0.0315 0.0
C2357 C 0.35411 0.81007 0.01986 0.0
C2358 C 0.18941 0.35394 0.98809 0.0
C2359 C 0.20551 0.37291 0.97183 0.0
H2360 H 0.17717 0.33874 0.03166 0.0
C2361 C 0.22104 0.39229 0.98815 0.0
H2362 H 0.17716 0.33873 0.97632 0.0
C2363 C 0.22104 0.39229 0.01981 0.0
C2364 C 0.20551 0.37292 0.03614 0.0
H2365 H 0.23365 0.40729 0.97651 0.0
H2366 H 0.23365 0.4073 0.03144 0.0
C2367 C 0.18941 0.35394 0.01988 0.0
C2368 C 0.19777 0.34228 0.24947 0.0
C2369 C 0.18519 0.32982 0.22428 0.0
H2370 H 0.20004 0.34495 0.29798 0.0
C2371 C 0.16476 0.30993 0.22911 0.0
H2372 H 0.21348 0.35779 0.24639 0.0
C2373 C 0.15755 0.30214 0.2586 0.0
C2374 C 0.1701 0.31463 0.2838 0.0
H2375 H 0.15478 0.29997 0.2101 0.0
H2376 H 0.14201 0.28646 0.26168 0.0
C2377 C 0.19002 0.33503 0.27897 0.0
C2378 C 0.65767 0.19801 0.24953 0.0
C2379 C 0.67015 0.18548 0.22431 0.0
H2380 H 0.65498 0.20021 0.29803 0.0
C2381 C 0.69005 0.16506 0.22911 0.0
H2382 H 0.64215 0.21372 0.24647 0.0
C2383 C 0.69783 0.1578 0.2586 0.0
C2384 C 0.68532 0.1703 0.28381 0.0
H2385 H 0.70002 0.15511 0.21009 0.0
H2386 H 0.71352 0.14227 0.26166 0.0
C2387 C 0.66492 0.19022 0.27901 0.0
C2388 C 0.83505 0.69041 0.22911 0.0
C2389 C 0.81467 0.67049 0.22423 0.0
H2390 H 0.85774 0.71389 0.26173 0.0
C2391 C 0.8021 0.65797 0.2494 0.0
H2392 H 0.84502 0.70042 0.21011 0.0
C2393 C 0.80982 0.6652 0.27891 0.0
C2394 C 0.8297 0.68563 0.28378 0.0
H2395 H 0.78643 0.64242 0.24628 0.0
H2396 H 0.79982 0.65523 0.2979 0.0
C2397 C 0.84223 0.69818 0.25861 0.0
C2398 C 0.30997 0.83492 0.22904 0.0
C2399 C 0.32981 0.81444 0.22419 0.0
H2400 H 0.28659 0.85774 0.26163 0.0
C2401 C 0.34229 0.80187 0.24938 0.0
H2402 H 0.3 0.8449 0.21003 0.0
C2403 C 0.33509 0.80966 0.27888 0.0
C2404 C 0.31475 0.82963 0.28372 0.0
H2405 H 0.35777 0.78613 0.24629 0.0
H2406 H 0.34502 0.79963 0.29788 0.0
C2407 C 0.30224 0.84217 0.25854 0.0
C2408 C 0.16498 0.69051 0.7789 0.0
C2409 C 0.18535 0.67056 0.78373 0.0
H2410 H 0.14229 0.71405 0.74633 0.0
C2411 C 0.19788 0.65806 0.75854 0.0
H2412 H 0.15503 0.7005 0.79791 0.0
C2413 C 0.19015 0.66533 0.72904 0.0
C2414 C 0.17028 0.68578 0.72421 0.0
H2415 H 0.21354 0.6425 0.76162 0.0
H2416 H 0.20014 0.65538 0.71003 0.0
C2417 C 0.15779 0.69832 0.74941 0.0
C2418 C 0.30225 0.15776 0.74938 0.0
C2419 C 0.31473 0.17031 0.72418 0.0
H2420 H 0.3 0.15506 0.79788 0.0
C2421 C 0.33503 0.19033 0.72901 0.0
H2422 H 0.28664 0.14215 0.7463 0.0
C2423 C 0.34221 0.19815 0.75851 0.0
C2424 C 0.32975 0.18557 0.78371 0.0
H2425 H 0.34494 0.20036 0.71 0.0
H2426 H 0.35765 0.21393 0.76159 0.0
C2427 C 0.30996 0.16505 0.77887 0.0
C2428 C 0.84226 0.30198 0.74951 0.0
C2429 C 0.82974 0.31452 0.72433 0.0
H2430 H 0.84501 0.29975 0.79801 0.0
C2431 C 0.80983 0.33493 0.72918 0.0
H2432 H 0.85779 0.28629 0.74641 0.0
C2433 C 0.80208 0.34215 0.75868 0.0
C2434 C 0.81464 0.32965 0.78387 0.0
H2435 H 0.79983 0.34488 0.71018 0.0
H2436 H 0.78639 0.35768 0.76178 0.0
C2437 C 0.83505 0.30974 0.77901 0.0
C2438 C 0.66509 0.8095 0.7291 0.0
C2439 C 0.68545 0.82945 0.72423 0.0
H2440 H 0.64243 0.78599 0.76172 0.0
C2441 C 0.698 0.84197 0.7494 0.0
H2442 H 0.65513 0.79949 0.7101 0.0
C2443 C 0.6903 0.83473 0.77891 0.0
C2444 C 0.67044 0.81428 0.78378 0.0
H2445 H 0.71366 0.85753 0.74629 0.0
H2446 H 0.70029 0.8447 0.7979 0.0
C2447 C 0.65792 0.80171 0.7586 0.0
C2448 C 0.81002 0.66504 0.72909 0.0
C2449 C 0.82987 0.6855 0.72422 0.0
H2450 H 0.78665 0.64223 0.76171 0.0
C2451 C 0.84238 0.69806 0.74939 0.0
H2452 H 0.80002 0.65506 0.7101 0.0
C2453 C 0.83521 0.69028 0.7789 0.0
C2454 C 0.81485 0.67033 0.78377 0.0
H2455 H 0.85787 0.71379 0.74628 0.0
H2456 H 0.84517 0.7003 0.79789 0.0
C2457 C 0.80231 0.6578 0.7586 0.0
C2458 C 0.3103 0.8348 0.77882 0.0
C2459 C 0.33009 0.81428 0.78369 0.0
H2460 H 0.28699 0.85767 0.74622 0.0
C2461 C 0.34255 0.80167 0.75851 0.0
H2462 H 0.30035 0.84481 0.79782 0.0
C2463 C 0.33539 0.80947 0.72901 0.0
C2464 C 0.31509 0.82948 0.72414 0.0
H2465 H 0.35799 0.78589 0.76162 0.0
H2466 H 0.3453 0.79941 0.71001 0.0
C2467 C 0.3026 0.84206 0.74932 0.0
C2468 C 0.15761 0.30191 0.74944 0.0
C2469 C 0.17015 0.31438 0.72423 0.0
H2470 H 0.15482 0.29979 0.79794 0.0
C2471 C 0.19006 0.33479 0.72904 0.0
H2472 H 0.14208 0.28621 0.74637 0.0
C2473 C 0.19779 0.34208 0.75853 0.0
C2474 C 0.18522 0.32964 0.78374 0.0
H2475 H 0.20008 0.34469 0.71002 0.0
H2476 H 0.21349 0.35761 0.76159 0.0
C2477 C 0.16481 0.30973 0.77892 0.0
C2478 C 0.66501 0.19009 0.72918 0.0
C2479 C 0.6854 0.17016 0.72438 0.0
H2480 H 0.64226 0.21361 0.76171 0.0
C2481 C 0.69791 0.15766 0.7496 0.0
H2482 H 0.65508 0.20007 0.71015 0.0
C2483 C 0.69013 0.16493 0.77908 0.0
C2484 C 0.67025 0.18537 0.78388 0.0
H2485 H 0.71359 0.14212 0.74654 0.0
H2486 H 0.7001 0.15499 0.79811 0.0
C2487 C 0.65777 0.19789 0.75866 0.0
C2488 C 0.83488 0.30996 0.22917 0.0
C2489 C 0.81447 0.32985 0.22433 0.0
H2490 H 0.85764 0.2865 0.26176 0.0
C2491 C 0.80191 0.34235 0.24951 0.0
H2492 H 0.84485 0.29997 0.21017 0.0
C2493 C 0.80967 0.33512 0.27901 0.0
C2494 C 0.82958 0.31472 0.28386 0.0
H2495 H 0.78621 0.35787 0.24642 0.0
H2496 H 0.79966 0.34506 0.29802 0.0
C2497 C 0.8421 0.30219 0.25867 0.0
C2498 C 0.65784 0.80195 0.2494 0.0
C2499 C 0.67035 0.81452 0.22423 0.0
H2500 H 0.65507 0.79971 0.2979 0.0
C2501 C 0.69021 0.83497 0.22909 0.0
H2502 H 0.64235 0.78622 0.24629 0.0
C2503 C 0.69793 0.84221 0.2586 0.0
C2504 C 0.68539 0.82967 0.28377 0.0
H2505 H 0.7002 0.84495 0.2101 0.0
H2506 H 0.71359 0.85776 0.26171 0.0
C2507 C 0.66503 0.80973 0.27891 0.0
C2508 C 0.15772 0.69815 0.25861 0.0
C2509 C 0.17022 0.6856 0.2838 0.0
H2510 H 0.15498 0.70039 0.21011 0.0
C2511 C 0.1901 0.66517 0.27895 0.0
H2512 H 0.14222 0.71387 0.2617 0.0
C2513 C 0.19785 0.65793 0.24945 0.0
C2514 C 0.18532 0.67045 0.22426 0.0
H2515 H 0.20009 0.6552 0.29795 0.0
H2516 H 0.21352 0.64238 0.24635 0.0
C2517 C 0.16493 0.69038 0.22911 0.0
C2518 C 0.33481 0.19027 0.27892 0.0
C2519 C 0.31446 0.1703 0.28374 0.0
H2520 H 0.35749 0.21383 0.24636 0.0
C2521 C 0.30196 0.15778 0.25853 0.0
H2522 H 0.34473 0.20028 0.29794 0.0
C2523 C 0.3097 0.16506 0.22905 0.0
C2524 C 0.32954 0.18553 0.22423 0.0
H2525 H 0.28631 0.1422 0.2616 0.0
H2526 H 0.29974 0.15509 0.21003 0.0
C2527 C 0.34201 0.19809 0.24943 0.0
loop_
_geom_bond_atom_site_label_1
_geom_bond_atom_site_label_2
_geom_bond_distance
_geom_bond_site_symmetry_2
_ccdc_geom_bond_type
Co0 O2 2.143 . S
Co0 O8 2.074 . S
Co0 O11 2.093 . S
Co0 O24 2.097 . S
Co0 N41 2.151 . S
Co0 N49 2.214 . S
Co1 O2 2.160 . S
Co1 O7 2.058 . S
Co1 O17 2.057 . S
Co1 O32 2.037 . S
Co1 N36 2.145 . S
Co1 N57 2.257 . S
O2 Co0 2.143 . S
O2 Co1 2.160 . S
C3 O4 1.278 . S
C3 O11 1.224 . S
O4 C3 1.278 . S
C5 O6 1.245 . S
C5 O17 1.232 . S
O6 C5 1.245 . S
O7 Co1 2.058 . S
O7 C33 1.269 . S
O8 Co0 2.074 . S
O8 C33 1.257 . S
H9 C34 0.930 . S
H10 C40 0.930 . S
O11 Co0 2.093 . S
O11 C3 1.224 . S
H12 C44 0.929 . S
H13 C46 0.930 . S
H14 C47 0.930 . S
H15 C45 0.929 . S
H16 C48 0.928 . S
O17 Co1 2.057 . S
O17 C5 1.232 . S
H18 C37 0.929 . S
H19 C38 0.929 . S
H20 C50 0.931 . S
H21 C42 0.929 . S
H22 C51 0.930 . S
H23 C43 0.931 . S
O24 Co0 2.097 . S
O24 C52 1.214 . S
H25 C53 0.929 . S
H26 C54 0.929 . S
H27 C55 0.930 . S
H28 C56 0.929 . S
H29 C58 0.930 . S
H30 C35 0.930 . S
H31 C39 0.930 . S
O32 Co1 2.037 . S
O32 C52 1.234 . S
C33 O7 1.269 . S
C33 O8 1.257 . S
C34 H9 0.930 . S
C34 C37 1.388 . S
C34 C39 1.418 . S
C35 H30 0.930 . S
C35 C38 1.404 . S
C35 C39 1.353 . S
N36 Co1 2.145 . S
N36 C37 1.397 . S
N36 C38 1.334 . S
C37 H18 0.929 . S
C37 C34 1.388 . S
C37 N36 1.397 . S
C38 H19 0.929 . S
C38 C35 1.404 . S
C38 N36 1.334 . S
C39 H31 0.930 . S
C39 C34 1.418 . S
C39 C35 1.353 . S
C40 H10 0.930 . S
C40 N41 1.330 . S
C40 C42 1.446 . S
N41 Co0 2.151 . S
N41 C40 1.330 . S
N41 C45 1.418 . S
C42 H21 0.929 . S
C42 C40 1.446 . S
C42 C43 1.332 . S
C43 H23 0.931 . S
C43 C42 1.332 . S
C43 C44 1.267 . S
C44 H12 0.929 . S
C44 C43 1.267 . S
C44 C45 1.251 . S
C45 H15 0.929 . S
C45 N41 1.418 . S
C45 C44 1.251 . S
C46 H13 0.930 . S
C46 C48 1.406 . S
C46 C51 1.261 . S
C47 H14 0.930 . S
C47 N49 1.325 . S
C47 C50 1.357 . S
C48 H16 0.928 . S
C48 C46 1.406 . S
C48 N49 1.261 . S
N49 Co0 2.214 . S
N49 C47 1.325 . S
N49 C48 1.261 . S
C50 H20 0.931 . S
C50 C47 1.357 . S
C50 C51 1.312 . S
C51 H22 0.930 . S
C51 C46 1.261 . S
C51 C50 1.312 . S
C52 O24 1.214 . S
C52 O32 1.234 . S
C53 H25 0.929 . S
C53 C56 1.391 . S
C53 C58 1.391 . S
C54 H26 0.929 . S
C54 C55 1.390 . S
C54 N57 1.391 . S
C55 H27 0.930 . S
C55 C54 1.390 . S
C55 C56 1.392 . S
C56 H28 0.929 . S
C56 C53 1.391 . S
C56 C55 1.392 . S
N57 Co1 2.257 . S
N57 C54 1.391 . S
N57 C58 1.388 . S
C58 H29 0.930 . S
C58 C53 1.391 . S
C58 N57 1.388 . S
Co59 O61 2.143 . S
Co59 O67 2.074 . S
Co59 O70 2.093 . S
Co59 O83 2.097 . S
Co59 N100 2.151 . S
Co59 N108 2.214 . S
Co60 O61 2.160 . S
Co60 O66 2.058 . S
Co60 O76 2.057 . S
Co60 O91 2.037 . S
Co60 N95 2.145 . S
Co60 N116 2.257 . S
O61 Co59 2.143 . S
O61 Co60 2.160 . S
C62 O63 1.278 . S
C62 O70 1.224 . S
O63 C62 1.278 . S
C64 O65 1.245 . S
C64 O76 1.232 . S
O65 C64 1.245 . S
O66 Co60 2.058 . S
O66 C92 1.269 . S
O67 Co59 2.074 . S
O67 C92 1.257 . S
H68 C93 0.930 . S
H69 C99 0.930 . S
O70 Co59 2.093 . S
O70 C62 1.224 . S
H71 C103 0.929 . S
H72 C105 0.930 . S
H73 C106 0.930 . S
H74 C104 0.929 . S
H75 C107 0.928 . S
O76 Co60 2.057 . S
O76 C64 1.232 . S
H77 C96 0.929 . S
H78 C97 0.929 . S
H79 C109 0.931 . S
H80 C101 0.929 . S
H81 C110 0.930 . S
H82 C102 0.931 . S
O83 Co59 2.097 . S
O83 C111 1.214 . S
H84 C112 0.929 . S
H85 C113 0.929 . S
H86 C114 0.930 . S
H87 C115 0.929 . S
H88 C117 0.930 . S
H89 C94 0.930 . S
H90 C98 0.930 . S
O91 Co60 2.037 . S
O91 C111 1.234 . S
C92 O66 1.269 . S
C92 O67 1.257 . S
C93 H68 0.930 . S
C93 C96 1.388 . S
C93 C98 1.418 . S
C94 H89 0.930 . S
C94 C97 1.404 . S
C94 C98 1.353 . S
N95 Co60 2.145 . S
N95 C96 1.397 . S
N95 C97 1.334 . S
C96 H77 0.929 . S
C96 C93 1.388 . S
C96 N95 1.397 . S
C97 H78 0.929 . S
C97 C94 1.404 . S
C97 N95 1.334 . S
C98 H90 0.930 . S
C98 C93 1.418 . S
C98 C94 1.353 . S
C99 H69 0.930 . S
C99 N100 1.330 . S
C99 C101 1.446 . S
N100 Co59 2.151 . S
N100 C99 1.330 . S
N100 C104 1.418 . S
C101 H80 0.929 . S
C101 C99 1.446 . S
C101 C102 1.332 . S
C102 H82 0.931 . S
C102 C101 1.332 . S
C102 C103 1.267 . S
C103 H71 0.929 . S
C103 C102 1.267 . S
C103 C104 1.251 . S
C104 H74 0.929 . S
C104 N100 1.418 . S
C104 C103 1.251 . S
C105 H72 0.930 . S
C105 C107 1.406 . S
C105 C110 1.261 . S
C106 H73 0.930 . S
C106 N108 1.325 . S
C106 C109 1.357 . S
C107 H75 0.928 . S
C107 C105 1.406 . S
C107 N108 1.261 . S
N108 Co59 2.214 . S
N108 C106 1.325 . S
N108 C107 1.261 . S
C109 H79 0.931 . S
C109 C106 1.357 . S
C109 C110 1.312 . S
C110 H81 0.930 . S
C110 C105 1.261 . S
C110 C109 1.312 . S
C111 O83 1.214 . S
C111 O91 1.234 . S
C112 H84 0.929 . S
C112 C115 1.391 . S
C112 C117 1.391 . S
C113 H85 0.929 . S
C113 C114 1.390 . S
C113 N116 1.391 . S
C114 H86 0.930 . S
C114 C113 1.390 . S
C114 C115 1.392 . S
C115 H87 0.929 . S
C115 C112 1.391 . S
C115 C114 1.392 . S
N116 Co60 2.257 . S
N116 C113 1.391 . S
N116 C117 1.388 . S
C117 H88 0.930 . S
C117 C112 1.391 . S
C117 N116 1.388 . S
Co118 O120 2.143 . S
Co118 O126 2.074 . S
Co118 O129 2.093 . S
Co118 O142 2.097 . S
Co118 N159 2.151 . S
Co118 N167 2.214 . S
Co119 O120 2.160 . S
Co119 O125 2.058 . S
Co119 O135 2.057 . S
Co119 O150 2.037 . S
Co119 N154 2.145 . S
Co119 N175 2.257 . S
O120 Co118 2.143 . S
O120 Co119 2.160 . S
C121 O122 1.278 . S
C121 O129 1.224 . S
O122 C121 1.278 . S
C123 O124 1.245 . S
C123 O135 1.232 . S
O124 C123 1.245 . S
O125 Co119 2.058 . S
O125 C151 1.269 . S
O126 Co118 2.074 . S
O126 C151 1.257 . S
H127 C152 0.930 . S
H128 C158 0.930 . S
O129 Co118 2.093 . S
O129 C121 1.224 . S
H130 C162 0.929 . S
H131 C164 0.930 . S
H132 C165 0.930 . S
H133 C163 0.929 . S
H134 C166 0.928 . S
O135 Co119 2.057 . S
O135 C123 1.232 . S
H136 C155 0.929 . S
H137 C156 0.929 . S
H138 C168 0.931 . S
H139 C160 0.929 . S
H140 C169 0.930 . S
H141 C161 0.931 . S
O142 Co118 2.097 . S
O142 C170 1.214 . S
H143 C171 0.929 . S
H144 C172 0.929 . S
H145 C173 0.930 . S
H146 C174 0.929 . S
H147 C176 0.930 . S
H148 C153 0.930 . S
H149 C157 0.930 . S
O150 Co119 2.037 . S
O150 C170 1.234 . S
C151 O125 1.269 . S
C151 O126 1.257 . S
C152 H127 0.930 . S
C152 C155 1.388 . S
C152 C157 1.418 . S
C153 H148 0.930 . S
C153 C156 1.404 . S
C153 C157 1.353 . S
N154 Co119 2.145 . S
N154 C155 1.397 . S
N154 C156 1.334 . S
C155 H136 0.929 . S
C155 C152 1.388 . S
C155 N154 1.397 . S
C156 H137 0.929 . S
C156 C153 1.404 . S
C156 N154 1.334 . S
C157 H149 0.930 . S
C157 C152 1.418 . S
C157 C153 1.353 . S
C158 H128 0.930 . S
C158 N159 1.330 . S
C158 C160 1.446 . S
N159 Co118 2.151 . S
N159 C158 1.330 . S
N159 C163 1.418 . S
C160 H139 0.929 . S
C160 C158 1.446 . S
C160 C161 1.332 . S
C161 H141 0.931 . S
C161 C160 1.332 . S
C161 C162 1.267 . S
C162 H130 0.929 . S
C162 C161 1.267 . S
C162 C163 1.251 . S
C163 H133 0.929 . S
C163 N159 1.418 . S
C163 C162 1.251 . S
C164 H131 0.930 . S
C164 C166 1.406 . S
C164 C169 1.261 . S
C165 H132 0.930 . S
C165 N167 1.325 . S
C165 C168 1.357 . S
C166 H134 0.928 . S
C166 C164 1.406 . S
C166 N167 1.261 . S
N167 Co118 2.214 . S
N167 C165 1.325 . S
N167 C166 1.261 . S
C168 H138 0.931 . S
C168 C165 1.357 . S
C168 C169 1.312 . S
C169 H140 0.930 . S
C169 C164 1.261 . S
C169 C168 1.312 . S
C170 O142 1.214 . S
C170 O150 1.234 . S
C171 H143 0.929 . S
C171 C174 1.391 . S
C171 C176 1.391 . S
C172 H144 0.929 . S
C172 C173 1.390 . S
C172 N175 1.391 . S
C173 H145 0.930 . S
C173 C172 1.390 . S
C173 C174 1.392 . S
C174 H146 0.929 . S
C174 C171 1.391 . S
C174 C173 1.392 . S
N175 Co119 2.257 . S
N175 C172 1.391 . S
N175 C176 1.388 . S
C176 H147 0.930 . S
C176 C171 1.391 . S
C176 N175 1.388 . S
Co177 O179 2.143 . S
Co177 O185 2.074 . S
Co177 O188 2.093 . S
Co177 O201 2.097 . S
Co177 N218 2.151 . S
Co177 N226 2.214 . S
Co178 O179 2.160 . S
Co178 O184 2.058 . S
Co178 O194 2.057 . S
Co178 O209 2.037 . S
Co178 N213 2.145 . S
Co178 N234 2.257 . S
O179 Co177 2.143 . S
O179 Co178 2.160 . S
C180 O181 1.278 . S
C180 O188 1.224 . S
O181 C180 1.278 . S
C182 O183 1.245 . S
C182 O194 1.232 . S
O183 C182 1.245 . S
O184 Co178 2.058 . S
O184 C210 1.269 . S
O185 Co177 2.074 . S
O185 C210 1.257 . S
H186 C211 0.930 . S
H187 C217 0.930 . S
O188 Co177 2.093 . S
O188 C180 1.224 . S
H189 C221 0.929 . S
H190 C223 0.930 . S
H191 C224 0.930 . S
H192 C222 0.929 . S
H193 C225 0.928 . S
O194 Co178 2.057 . S
O194 C182 1.232 . S
H195 C214 0.929 . S
H196 C215 0.929 . S
H197 C227 0.931 . S
H198 C219 0.929 . S
H199 C228 0.930 . S
H200 C220 0.931 . S
O201 Co177 2.097 . S
O201 C229 1.214 . S
H202 C230 0.929 . S
H203 C231 0.929 . S
H204 C232 0.930 . S
H205 C233 0.929 . S
H206 C235 0.930 . S
H207 C212 0.930 . S
H208 C216 0.930 . S
O209 Co178 2.037 . S
O209 C229 1.234 . S
C210 O184 1.269 . S
C210 O185 1.257 . S
C211 H186 0.930 . S
C211 C214 1.388 . S
C211 C216 1.418 . S
C212 H207 0.930 . S
C212 C215 1.404 . S
C212 C216 1.353 . S
N213 Co178 2.145 . S
N213 C214 1.397 . S
N213 C215 1.334 . S
C214 H195 0.929 . S
C214 C211 1.388 . S
C214 N213 1.397 . S
C215 H196 0.929 . S
C215 C212 1.404 . S
C215 N213 1.334 . S
C216 H208 0.930 . S
C216 C211 1.418 . S
C216 C212 1.353 . S
C217 H187 0.930 . S
C217 N218 1.330 . S
C217 C219 1.446 . S
N218 Co177 2.151 . S
N218 C217 1.330 . S
N218 C222 1.418 . S
C219 H198 0.929 . S
C219 C217 1.446 . S
C219 C220 1.332 . S
C220 H200 0.931 . S
C220 C219 1.332 . S
C220 C221 1.267 . S
C221 H189 0.929 . S
C221 C220 1.267 . S
C221 C222 1.251 . S
C222 H192 0.929 . S
C222 N218 1.418 . S
C222 C221 1.251 . S
C223 H190 0.930 . S
C223 C225 1.406 . S
C223 C228 1.261 . S
C224 H191 0.930 . S
C224 N226 1.325 . S
C224 C227 1.357 . S
C225 H193 0.928 . S
C225 C223 1.406 . S
C225 N226 1.261 . S
N226 Co177 2.214 . S
N226 C224 1.325 . S
N226 C225 1.261 . S
C227 H197 0.931 . S
C227 C224 1.357 . S
C227 C228 1.312 . S
C228 H199 0.930 . S
C228 C223 1.261 . S
C228 C227 1.312 . S
C229 O201 1.214 . S
C229 O209 1.234 . S
C230 H202 0.929 . S
C230 C233 1.391 . S
C230 C235 1.391 . S
C231 H203 0.929 . S
C231 C232 1.390 . S
C231 N234 1.391 . S
C232 H204 0.930 . S
C232 C231 1.390 . S
C232 C233 1.392 . S
C233 H205 0.929 . S
C233 C230 1.391 . S
C233 C232 1.392 . S
N234 Co178 2.257 . S
N234 C231 1.391 . S
N234 C235 1.388 . S
C235 H206 0.930 . S
C235 C230 1.391 . S
C235 N234 1.388 . S
Co236 O238 2.143 . S
Co236 O244 2.074 . S
Co236 O247 2.093 . S
Co236 O260 2.097 . S
Co236 N277 2.151 . S
Co236 N285 2.214 . S
Co237 O238 2.160 . S
Co237 O243 2.058 . S
Co237 O253 2.057 . S
Co237 O268 2.037 . S
Co237 N272 2.145 . S
Co237 N293 2.257 . S
O238 Co236 2.143 . S
O238 Co237 2.160 . S
C239 O240 1.278 . S
C239 O247 1.224 . S
O240 C239 1.278 . S
C241 O242 1.245 . S
C241 O253 1.232 . S
O242 C241 1.245 . S
O243 Co237 2.058 . S
O243 C269 1.269 . S
O244 Co236 2.074 . S
O244 C269 1.257 . S
H245 C270 0.930 . S
H246 C276 0.930 . S
O247 Co236 2.093 . S
O247 C239 1.224 . S
H248 C280 0.929 . S
H249 C282 0.930 . S
H250 C283 0.930 . S
H251 C281 0.929 . S
H252 C284 0.928 . S
O253 Co237 2.057 . S
O253 C241 1.232 . S
H254 C273 0.929 . S
H255 C274 0.929 . S
H256 C286 0.931 . S
H257 C278 0.929 . S
H258 C287 0.930 . S
H259 C279 0.931 . S
O260 Co236 2.097 . S
O260 C288 1.214 . S
H261 C289 0.929 . S
H262 C290 0.929 . S
H263 C291 0.930 . S
H264 C292 0.929 . S
H265 C294 0.930 . S
H266 C271 0.930 . S
H267 C275 0.930 . S
O268 Co237 2.037 . S
O268 C288 1.234 . S
C269 O243 1.269 . S
C269 O244 1.257 . S
C270 H245 0.930 . S
C270 C273 1.388 . S
C270 C275 1.418 . S
C271 H266 0.930 . S
C271 C274 1.404 . S
C271 C275 1.353 . S
N272 Co237 2.145 . S
N272 C273 1.397 . S
N272 C274 1.334 . S
C273 H254 0.929 . S
C273 C270 1.388 . S
C273 N272 1.397 . S
C274 H255 0.929 . S
C274 C271 1.404 . S
C274 N272 1.334 . S
C275 H267 0.930 . S
C275 C270 1.418 . S
C275 C271 1.353 . S
C276 H246 0.930 . S
C276 N277 1.330 . S
C276 C278 1.446 . S
N277 Co236 2.151 . S
N277 C276 1.330 . S
N277 C281 1.418 . S
C278 H257 0.929 . S
C278 C276 1.446 . S
C278 C279 1.332 . S
C279 H259 0.931 . S
C279 C278 1.332 . S
C279 C280 1.267 . S
C280 H248 0.929 . S
C280 C279 1.267 . S
C280 C281 1.251 . S
C281 H251 0.929 . S
C281 N277 1.418 . S
C281 C280 1.251 . S
C282 H249 0.930 . S
C282 C284 1.406 . S
C282 C287 1.261 . S
C283 H250 0.930 . S
C283 N285 1.325 . S
C283 C286 1.357 . S
C284 H252 0.928 . S
C284 C282 1.406 . S
C284 N285 1.261 . S
N285 Co236 2.214 . S
N285 C283 1.325 . S
N285 C284 1.261 . S
C286 H256 0.931 . S
C286 C283 1.357 . S
C286 C287 1.312 . S
C287 H258 0.930 . S
C287 C282 1.261 . S
C287 C286 1.312 . S
C288 O260 1.214 . S
C288 O268 1.234 . S
C289 H261 0.929 . S
C289 C292 1.391 . S
C289 C294 1.391 . S
C290 H262 0.929 . S
C290 C291 1.390 . S
C290 N293 1.391 . S
C291 H263 0.930 . S
C291 C290 1.390 . S
C291 C292 1.392 . S
C292 H264 0.929 . S
C292 C289 1.391 . S
C292 C291 1.392 . S
N293 Co237 2.257 . S
N293 C290 1.391 . S
N293 C294 1.388 . S
C294 H265 0.930 . S
C294 C289 1.391 . S
C294 N293 1.388 . S
Co295 O297 2.143 . S
Co295 O303 2.074 . S
Co295 O306 2.093 . S
Co295 O319 2.097 . S
Co295 N336 2.151 . S
Co295 N344 2.214 . S
Co296 O297 2.160 . S
Co296 O302 2.058 . S
Co296 O312 2.057 . S
Co296 O327 2.037 . S
Co296 N331 2.145 . S
Co296 N352 2.257 . S
O297 Co295 2.143 . S
O297 Co296 2.160 . S
C298 O299 1.278 . S
C298 O306 1.224 . S
O299 C298 1.278 . S
C300 O301 1.245 . S
C300 O312 1.232 . S
O301 C300 1.245 . S
O302 Co296 2.058 . S
O302 C328 1.269 . S
O303 Co295 2.074 . S
O303 C328 1.257 . S
H304 C329 0.930 . S
H305 C335 0.930 . S
O306 Co295 2.093 . S
O306 C298 1.224 . S
H307 C339 0.929 . S
H308 C341 0.930 . S
H309 C342 0.930 . S
H310 C340 0.929 . S
H311 C343 0.928 . S
O312 Co296 2.057 . S
O312 C300 1.232 . S
H313 C332 0.929 . S
H314 C333 0.929 . S
H315 C345 0.931 . S
H316 C337 0.929 . S
H317 C346 0.930 . S
H318 C338 0.931 . S
O319 Co295 2.097 . S
O319 C347 1.214 . S
H320 C348 0.929 . S
H321 C349 0.929 . S
H322 C350 0.930 . S
H323 C351 0.929 . S
H324 C353 0.930 . S
H325 C330 0.930 . S
H326 C334 0.930 . S
O327 Co296 2.037 . S
O327 C347 1.234 . S
C328 O302 1.269 . S
C328 O303 1.257 . S
C329 H304 0.930 . S
C329 C332 1.388 . S
C329 C334 1.418 . S
C330 H325 0.930 . S
C330 C333 1.404 . S
C330 C334 1.353 . S
N331 Co296 2.145 . S
N331 C332 1.397 . S
N331 C333 1.334 . S
C332 H313 0.929 . S
C332 C329 1.388 . S
C332 N331 1.397 . S
C333 H314 0.929 . S
C333 C330 1.404 . S
C333 N331 1.334 . S
C334 H326 0.930 . S
C334 C329 1.418 . S
C334 C330 1.353 . S
C335 H305 0.930 . S
C335 N336 1.330 . S
C335 C337 1.446 . S
N336 Co295 2.151 . S
N336 C335 1.330 . S
N336 C340 1.418 . S
C337 H316 0.929 . S
C337 C335 1.446 . S
C337 C338 1.332 . S
C338 H318 0.931 . S
C338 C337 1.332 . S
C338 C339 1.267 . S
C339 H307 0.929 . S
C339 C338 1.267 . S
C339 C340 1.251 . S
C340 H310 0.929 . S
C340 N336 1.418 . S
C340 C339 1.251 . S
C341 H308 0.930 . S
C341 C343 1.406 . S
C341 C346 1.261 . S
C342 H309 0.930 . S
C342 N344 1.325 . S
C342 C345 1.357 . S
C343 H311 0.928 . S
C343 C341 1.406 . S
C343 N344 1.261 . S
N344 Co295 2.214 . S
N344 C342 1.325 . S
N344 C343 1.261 . S
C345 H315 0.931 . S
C345 C342 1.357 . S
C345 C346 1.312 . S
C346 H317 0.930 . S
C346 C341 1.261 . S
C346 C345 1.312 . S
C347 O319 1.214 . S
C347 O327 1.234 . S
C348 H320 0.929 . S
C348 C351 1.391 . S
C348 C353 1.391 . S
C349 H321 0.929 . S
C349 C350 1.390 . S
C349 N352 1.391 . S
C350 H322 0.930 . S
C350 C349 1.390 . S
C350 C351 1.392 . S
C351 H323 0.929 . S
C351 C348 1.391 . S
C351 C350 1.392 . S
N352 Co296 2.257 . S
N352 C349 1.391 . S
N352 C353 1.388 . S
C353 H324 0.930 . S
C353 C348 1.391 . S
C353 N352 1.388 . S
Co354 O356 2.143 . S
Co354 O362 2.074 . S
Co354 O365 2.093 . S
Co354 O378 2.097 . S
Co354 N395 2.151 . S
Co354 N403 2.214 . S
Co355 O356 2.160 . S
Co355 O361 2.058 . S
Co355 O371 2.057 . S
Co355 O386 2.037 . S
Co355 N390 2.145 . S
Co355 N411 2.257 . S
O356 Co354 2.143 . S
O356 Co355 2.160 . S
C357 O358 1.278 . S
C357 O365 1.224 . S
O358 C357 1.278 . S
C359 O360 1.245 . S
C359 O371 1.232 . S
O360 C359 1.245 . S
O361 Co355 2.058 . S
O361 C387 1.269 . S
O362 Co354 2.074 . S
O362 C387 1.257 . S
H363 C388 0.930 . S
H364 C394 0.930 . S
O365 Co354 2.093 . S
O365 C357 1.224 . S
H366 C398 0.929 . S
H367 C400 0.930 . S
H368 C401 0.930 . S
H369 C399 0.929 . S
H370 C402 0.928 . S
O371 Co355 2.057 . S
O371 C359 1.232 . S
H372 C391 0.929 . S
H373 C392 0.929 . S
H374 C404 0.931 . S
H375 C396 0.929 . S
H376 C405 0.930 . S
H377 C397 0.931 . S
O378 Co354 2.097 . S
O378 C406 1.214 . S
H379 C407 0.929 . S
H380 C408 0.929 . S
H381 C409 0.930 . S
H382 C410 0.929 . S
H383 C412 0.930 . S
H384 C389 0.930 . S
H385 C393 0.930 . S
O386 Co355 2.037 . S
O386 C406 1.234 . S
C387 O361 1.269 . S
C387 O362 1.257 . S
C388 H363 0.930 . S
C388 C391 1.388 . S
C388 C393 1.418 . S
C389 H384 0.930 . S
C389 C392 1.404 . S
C389 C393 1.353 . S
N390 Co355 2.145 . S
N390 C391 1.397 . S
N390 C392 1.334 . S
C391 H372 0.929 . S
C391 C388 1.388 . S
C391 N390 1.397 . S
C392 H373 0.929 . S
C392 C389 1.404 . S
C392 N390 1.334 . S
C393 H385 0.930 . S
C393 C388 1.418 . S
C393 C389 1.353 . S
C394 H364 0.930 . S
C394 N395 1.330 . S
C394 C396 1.446 . S
N395 Co354 2.151 . S
N395 C394 1.330 . S
N395 C399 1.418 . S
C396 H375 0.929 . S
C396 C394 1.446 . S
C396 C397 1.332 . S
C397 H377 0.931 . S
C397 C396 1.332 . S
C397 C398 1.267 . S
C398 H366 0.929 . S
C398 C397 1.267 . S
C398 C399 1.251 . S
C399 H369 0.929 . S
C399 N395 1.418 . S
C399 C398 1.251 . S
C400 H367 0.930 . S
C400 C402 1.406 . S
C400 C405 1.261 . S
C401 H368 0.930 . S
C401 N403 1.325 . S
C401 C404 1.357 . S
C402 H370 0.928 . S
C402 C400 1.406 . S
C402 N403 1.261 . S
N403 Co354 2.214 . S
N403 C401 1.325 . S
N403 C402 1.261 . S
C404 H374 0.931 . S
C404 C401 1.357 . S
C404 C405 1.312 . S
C405 H376 0.930 . S
C405 C400 1.261 . S
C405 C404 1.312 . S
C406 O378 1.214 . S
C406 O386 1.234 . S
C407 H379 0.929 . S
C407 C410 1.391 . S
C407 C412 1.391 . S
C408 H380 0.929 . S
C408 C409 1.390 . S
C408 N411 1.391 . S
C409 H381 0.930 . S
C409 C408 1.390 . S
C409 C410 1.392 . S
C410 H382 0.929 . S
C410 C407 1.391 . S
C410 C409 1.392 . S
N411 Co355 2.257 . S
N411 C408 1.391 . S
N411 C412 1.388 . S
C412 H383 0.930 . S
C412 C407 1.391 . S
C412 N411 1.388 . S
Co413 O415 2.143 . S
Co413 O421 2.074 . S
Co413 O424 2.093 . S
Co413 O437 2.097 . S
Co413 N454 2.151 . S
Co413 N462 2.214 . S
Co414 O415 2.160 . S
Co414 O420 2.058 . S
Co414 O430 2.057 . S
Co414 O445 2.037 . S
Co414 N449 2.145 . S
Co414 N470 2.257 . S
O415 Co413 2.143 . S
O415 Co414 2.160 . S
C416 O417 1.278 . S
C416 O424 1.224 . S
O417 C416 1.278 . S
C418 O419 1.245 . S
C418 O430 1.232 . S
O419 C418 1.245 . S
O420 Co414 2.058 . S
O420 C446 1.269 . S
O421 Co413 2.074 . S
O421 C446 1.257 . S
H422 C447 0.930 . S
H423 C453 0.930 . S
O424 Co413 2.093 . S
O424 C416 1.224 . S
H425 C457 0.929 . S
H426 C459 0.930 . S
H427 C460 0.930 . S
H428 C458 0.929 . S
H429 C461 0.928 . S
O430 Co414 2.057 . S
O430 C418 1.232 . S
H431 C450 0.929 . S
H432 C451 0.929 . S
H433 C463 0.931 . S
H434 C455 0.929 . S
H435 C464 0.930 . S
H436 C456 0.931 . S
O437 Co413 2.097 . S
O437 C465 1.214 . S
H438 C466 0.929 . S
H439 C467 0.929 . S
H440 C468 0.930 . S
H441 C469 0.929 . S
H442 C471 0.930 . S
H443 C448 0.930 . S
H444 C452 0.930 . S
O445 Co414 2.037 . S
O445 C465 1.234 . S
C446 O420 1.269 . S
C446 O421 1.257 . S
C447 H422 0.930 . S
C447 C450 1.388 . S
C447 C452 1.418 . S
C448 H443 0.930 . S
C448 C451 1.404 . S
C448 C452 1.353 . S
N449 Co414 2.145 . S
N449 C450 1.397 . S
N449 C451 1.334 . S
C450 H431 0.929 . S
C450 C447 1.388 . S
C450 N449 1.397 . S
C451 H432 0.929 . S
C451 C448 1.404 . S
C451 N449 1.334 . S
C452 H444 0.930 . S
C452 C447 1.418 . S
C452 C448 1.353 . S
C453 H423 0.930 . S
C453 N454 1.330 . S
C453 C455 1.446 . S
N454 Co413 2.151 . S
N454 C453 1.330 . S
N454 C458 1.418 . S
C455 H434 0.929 . S
C455 C453 1.446 . S
C455 C456 1.332 . S
C456 H436 0.931 . S
C456 C455 1.332 . S
C456 C457 1.267 . S
C457 H425 0.929 . S
C457 C456 1.267 . S
C457 C458 1.251 . S
C458 H428 0.929 . S
C458 N454 1.418 . S
C458 C457 1.251 . S
C459 H426 0.930 . S
C459 C461 1.406 . S
C459 C464 1.261 . S
C460 H427 0.930 . S
C460 N462 1.325 . S
C460 C463 1.357 . S
C461 H429 0.928 . S
C461 C459 1.406 . S
C461 N462 1.261 . S
N462 Co413 2.214 . S
N462 C460 1.325 . S
N462 C461 1.261 . S
C463 H433 0.931 . S
C463 C460 1.357 . S
C463 C464 1.312 . S
C464 H435 0.930 . S
C464 C459 1.261 . S
C464 C463 1.312 . S
C465 O437 1.214 . S
C465 O445 1.234 . S
C466 H438 0.929 . S
C466 C469 1.391 . S
C466 C471 1.391 . S
C467 H439 0.929 . S
C467 C468 1.390 . S
C467 N470 1.391 . S
C468 H440 0.930 . S
C468 C467 1.390 . S
C468 C469 1.392 . S
C469 H441 0.929 . S
C469 C466 1.391 . S
C469 C468 1.392 . S
N470 Co414 2.257 . S
N470 C467 1.391 . S
N470 C471 1.388 . S
C471 H442 0.930 . S
C471 C466 1.391 . S
C471 N470 1.388 . S
Co472 O474 2.143 . S
Co472 O480 2.074 . S
Co472 O483 2.093 . S
Co472 O496 2.097 . S
Co472 N513 2.151 . S
Co472 N521 2.214 . S
Co473 O474 2.160 . S
Co473 O479 2.058 . S
Co473 O489 2.057 . S
Co473 O504 2.037 . S
Co473 N508 2.145 . S
Co473 N529 2.257 . S
O474 Co472 2.143 . S
O474 Co473 2.160 . S
C475 O476 1.278 . S
C475 O483 1.224 . S
O476 C475 1.278 . S
C477 O478 1.245 . S
C477 O489 1.232 . S
O478 C477 1.245 . S
O479 Co473 2.058 . S
O479 C505 1.269 . S
O480 Co472 2.074 . S
O480 C505 1.257 . S
H481 C506 0.930 . S
H482 C512 0.930 . S
O483 Co472 2.093 . S
O483 C475 1.224 . S
H484 C516 0.929 . S
H485 C518 0.930 . S
H486 C519 0.930 . S
H487 C517 0.929 . S
H488 C520 0.928 . S
O489 Co473 2.057 . S
O489 C477 1.232 . S
H490 C509 0.929 . S
H491 C510 0.929 . S
H492 C522 0.931 . S
H493 C514 0.929 . S
H494 C523 0.930 . S
H495 C515 0.931 . S
O496 Co472 2.097 . S
O496 C524 1.214 . S
H497 C525 0.929 . S
H498 C526 0.929 . S
H499 C527 0.930 . S
H500 C528 0.929 . S
H501 C530 0.930 . S
H502 C507 0.930 . S
H503 C511 0.930 . S
O504 Co473 2.037 . S
O504 C524 1.234 . S
C505 O479 1.269 . S
C505 O480 1.257 . S
C506 H481 0.930 . S
C506 C509 1.388 . S
C506 C511 1.418 . S
C507 H502 0.930 . S
C507 C510 1.404 . S
C507 C511 1.353 . S
N508 Co473 2.145 . S
N508 C509 1.397 . S
N508 C510 1.334 . S
C509 H490 0.929 . S
C509 C506 1.388 . S
C509 N508 1.397 . S
C510 H491 0.929 . S
C510 C507 1.404 . S
C510 N508 1.334 . S
C511 H503 0.930 . S
C511 C506 1.418 . S
C511 C507 1.353 . S
C512 H482 0.930 . S
C512 N513 1.330 . S
C512 C514 1.446 . S
N513 Co472 2.151 . S
N513 C512 1.330 . S
N513 C517 1.418 . S
C514 H493 0.929 . S
C514 C512 1.446 . S
C514 C515 1.332 . S
C515 H495 0.931 . S
C515 C514 1.332 . S
C515 C516 1.267 . S
C516 H484 0.929 . S
C516 C515 1.267 . S
C516 C517 1.251 . S
C517 H487 0.929 . S
C517 N513 1.418 . S
C517 C516 1.251 . S
C518 H485 0.930 . S
C518 C520 1.406 . S
C518 C523 1.261 . S
C519 H486 0.930 . S
C519 N521 1.325 . S
C519 C522 1.357 . S
C520 H488 0.928 . S
C520 C518 1.406 . S
C520 N521 1.261 . S
N521 Co472 2.214 . S
N521 C519 1.325 . S
N521 C520 1.261 . S
C522 H492 0.931 . S
C522 C519 1.357 . S
C522 C523 1.312 . S
C523 H494 0.930 . S
C523 C518 1.261 . S
C523 C522 1.312 . S
C524 O496 1.214 . S
C524 O504 1.234 . S
C525 H497 0.929 . S
C525 C528 1.391 . S
C525 C530 1.391 . S
C526 H498 0.929 . S
C526 C527 1.390 . S
C526 N529 1.391 . S
C527 H499 0.930 . S
C527 C526 1.390 . S
C527 C528 1.392 . S
C528 H500 0.929 . S
C528 C525 1.391 . S
C528 C527 1.392 . S
N529 Co473 2.257 . S
N529 C526 1.391 . S
N529 C530 1.388 . S
C530 H501 0.930 . S
C530 C525 1.391 . S
C530 N529 1.388 . S
Co531 O533 2.143 . S
Co531 O539 2.074 . S
Co531 O542 2.093 . S
Co531 O555 2.097 . S
Co531 N572 2.151 . S
Co531 N580 2.214 . S
Co532 O533 2.160 . S
Co532 O538 2.058 . S
Co532 O548 2.057 . S
Co532 O563 2.037 . S
Co532 N567 2.145 . S
Co532 N588 2.257 . S
O533 Co531 2.143 . S
O533 Co532 2.160 . S
C534 O535 1.278 . S
C534 O542 1.224 . S
O535 C534 1.278 . S
C536 O537 1.245 . S
C536 O548 1.232 . S
O537 C536 1.245 . S
O538 Co532 2.058 . S
O538 C564 1.269 . S
O539 Co531 2.074 . S
O539 C564 1.257 . S
H540 C565 0.930 . S
H541 C571 0.930 . S
O542 Co531 2.093 . S
O542 C534 1.224 . S
H543 C575 0.929 . S
H544 C577 0.930 . S
H545 C578 0.930 . S
H546 C576 0.929 . S
H547 C579 0.928 . S
O548 Co532 2.057 . S
O548 C536 1.232 . S
H549 C568 0.929 . S
H550 C569 0.929 . S
H551 C581 0.931 . S
H552 C573 0.929 . S
H553 C582 0.930 . S
H554 C574 0.931 . S
O555 Co531 2.097 . S
O555 C583 1.214 . S
H556 C584 0.929 . S
H557 C585 0.929 . S
H558 C586 0.930 . S
H559 C587 0.929 . S
H560 C589 0.930 . S
H561 C566 0.930 . S
H562 C570 0.930 . S
O563 Co532 2.037 . S
O563 C583 1.234 . S
C564 O538 1.269 . S
C564 O539 1.257 . S
C565 H540 0.930 . S
C565 C568 1.388 . S
C565 C570 1.418 . S
C566 H561 0.930 . S
C566 C569 1.404 . S
C566 C570 1.353 . S
N567 Co532 2.145 . S
N567 C568 1.397 . S
N567 C569 1.334 . S
C568 H549 0.929 . S
C568 C565 1.388 . S
C568 N567 1.397 . S
C569 H550 0.929 . S
C569 C566 1.404 . S
C569 N567 1.334 . S
C570 H562 0.930 . S
C570 C565 1.418 . S
C570 C566 1.353 . S
C571 H541 0.930 . S
C571 N572 1.330 . S
C571 C573 1.446 . S
N572 Co531 2.151 . S
N572 C571 1.330 . S
N572 C576 1.418 . S
C573 H552 0.929 . S
C573 C571 1.446 . S
C573 C574 1.332 . S
C574 H554 0.931 . S
C574 C573 1.332 . S
C574 C575 1.267 . S
C575 H543 0.929 . S
C575 C574 1.267 . S
C575 C576 1.251 . S
C576 H546 0.929 . S
C576 N572 1.418 . S
C576 C575 1.251 . S
C577 H544 0.930 . S
C577 C579 1.406 . S
C577 C582 1.261 . S
C578 H545 0.930 . S
C578 N580 1.325 . S
C578 C581 1.357 . S
C579 H547 0.928 . S
C579 C577 1.406 . S
C579 N580 1.261 . S
N580 Co531 2.214 . S
N580 C578 1.325 . S
N580 C579 1.261 . S
C581 H551 0.931 . S
C581 C578 1.357 . S
C581 C582 1.312 . S
C582 H553 0.930 . S
C582 C577 1.261 . S
C582 C581 1.312 . S
C583 O555 1.214 . S
C583 O563 1.234 . S
C584 H556 0.929 . S
C584 C587 1.391 . S
C584 C589 1.391 . S
C585 H557 0.929 . S
C585 C586 1.390 . S
C585 N588 1.391 . S
C586 H558 0.930 . S
C586 C585 1.390 . S
C586 C587 1.392 . S
C587 H559 0.929 . S
C587 C584 1.391 . S
C587 C586 1.392 . S
N588 Co532 2.257 . S
N588 C585 1.391 . S
N588 C589 1.388 . S
C589 H560 0.930 . S
C589 C584 1.391 . S
C589 N588 1.388 . S
Co590 O592 2.143 . S
Co590 O598 2.074 . S
Co590 O601 2.093 . S
Co590 O614 2.097 . S
Co590 N631 2.151 . S
Co590 N639 2.214 . S
Co591 O592 2.160 . S
Co591 O597 2.058 . S
Co591 O607 2.057 . S
Co591 O622 2.037 . S
Co591 N626 2.145 . S
Co591 N647 2.257 . S
O592 Co590 2.143 . S
O592 Co591 2.160 . S
C593 O594 1.278 . S
C593 O601 1.224 . S
O594 C593 1.278 . S
C595 O596 1.245 . S
C595 O607 1.232 . S
O596 C595 1.245 . S
O597 Co591 2.058 . S
O597 C623 1.269 . S
O598 Co590 2.074 . S
O598 C623 1.257 . S
H599 C624 0.930 . S
H600 C630 0.930 . S
O601 Co590 2.093 . S
O601 C593 1.224 . S
H602 C634 0.929 . S
H603 C636 0.930 . S
H604 C637 0.930 . S
H605 C635 0.929 . S
H606 C638 0.928 . S
O607 Co591 2.057 . S
O607 C595 1.232 . S
H608 C627 0.929 . S
H609 C628 0.929 . S
H610 C640 0.931 . S
H611 C632 0.929 . S
H612 C641 0.930 . S
H613 C633 0.931 . S
O614 Co590 2.097 . S
O614 C642 1.214 . S
H615 C643 0.929 . S
H616 C644 0.929 . S
H617 C645 0.930 . S
H618 C646 0.929 . S
H619 C648 0.930 . S
H620 C625 0.930 . S
H621 C629 0.930 . S
O622 Co591 2.037 . S
O622 C642 1.234 . S
C623 O597 1.269 . S
C623 O598 1.257 . S
C624 H599 0.930 . S
C624 C627 1.388 . S
C624 C629 1.418 . S
C625 H620 0.930 . S
C625 C628 1.404 . S
C625 C629 1.353 . S
N626 Co591 2.145 . S
N626 C627 1.397 . S
N626 C628 1.334 . S
C627 H608 0.929 . S
C627 C624 1.388 . S
C627 N626 1.397 . S
C628 H609 0.929 . S
C628 C625 1.404 . S
C628 N626 1.334 . S
C629 H621 0.930 . S
C629 C624 1.418 . S
C629 C625 1.353 . S
C630 H600 0.930 . S
C630 N631 1.330 . S
C630 C632 1.446 . S
N631 Co590 2.151 . S
N631 C630 1.330 . S
N631 C635 1.418 . S
C632 H611 0.929 . S
C632 C630 1.446 . S
C632 C633 1.332 . S
C633 H613 0.931 . S
C633 C632 1.332 . S
C633 C634 1.267 . S
C634 H602 0.929 . S
C634 C633 1.267 . S
C634 C635 1.251 . S
C635 H605 0.929 . S
C635 N631 1.418 . S
C635 C634 1.251 . S
C636 H603 0.930 . S
C636 C638 1.406 . S
C636 C641 1.261 . S
C637 H604 0.930 . S
C637 N639 1.325 . S
C637 C640 1.357 . S
C638 H606 0.928 . S
C638 C636 1.406 . S
C638 N639 1.261 . S
N639 Co590 2.214 . S
N639 C637 1.325 . S
N639 C638 1.261 . S
C640 H610 0.931 . S
C640 C637 1.357 . S
C640 C641 1.312 . S
C641 H612 0.930 . S
C641 C636 1.261 . S
C641 C640 1.312 . S
C642 O614 1.214 . S
C642 O622 1.234 . S
C643 H615 0.929 . S
C643 C646 1.391 . S
C643 C648 1.391 . S
C644 H616 0.929 . S
C644 C645 1.390 . S
C644 N647 1.391 . S
C645 H617 0.930 . S
C645 C644 1.390 . S
C645 C646 1.392 . S
C646 H618 0.929 . S
C646 C643 1.391 . S
C646 C645 1.392 . S
N647 Co591 2.257 . S
N647 C644 1.391 . S
N647 C648 1.388 . S
C648 H619 0.930 . S
C648 C643 1.391 . S
C648 N647 1.388 . S
Co649 O651 2.143 . S
Co649 O657 2.074 . S
Co649 O660 2.093 . S
Co649 O673 2.097 . S
Co649 N690 2.151 . S
Co649 N698 2.214 . S
Co650 O651 2.160 . S
Co650 O656 2.058 . S
Co650 O666 2.057 . S
Co650 O681 2.037 . S
Co650 N685 2.145 . S
Co650 N706 2.257 . S
O651 Co649 2.143 . S
O651 Co650 2.160 . S
C652 O653 1.278 . S
C652 O660 1.224 . S
O653 C652 1.278 . S
C654 O655 1.245 . S
C654 O666 1.232 . S
O655 C654 1.245 . S
O656 Co650 2.058 . S
O656 C682 1.269 . S
O657 Co649 2.074 . S
O657 C682 1.257 . S
H658 C683 0.930 . S
H659 C689 0.930 . S
O660 Co649 2.093 . S
O660 C652 1.224 . S
H661 C693 0.929 . S
H662 C695 0.930 . S
H663 C696 0.930 . S
H664 C694 0.929 . S
H665 C697 0.928 . S
O666 Co650 2.057 . S
O666 C654 1.232 . S
H667 C686 0.929 . S
H668 C687 0.929 . S
H669 C699 0.931 . S
H670 C691 0.929 . S
H671 C700 0.930 . S
H672 C692 0.931 . S
O673 Co649 2.097 . S
O673 C701 1.214 . S
H674 C702 0.929 . S
H675 C703 0.929 . S
H676 C704 0.930 . S
H677 C705 0.929 . S
H678 C707 0.930 . S
H679 C684 0.930 . S
H680 C688 0.930 . S
O681 Co650 2.037 . S
O681 C701 1.234 . S
C682 O656 1.269 . S
C682 O657 1.257 . S
C683 H658 0.930 . S
C683 C686 1.388 . S
C683 C688 1.418 . S
C684 H679 0.930 . S
C684 C687 1.404 . S
C684 C688 1.353 . S
N685 Co650 2.145 . S
N685 C686 1.397 . S
N685 C687 1.334 . S
C686 H667 0.929 . S
C686 C683 1.388 . S
C686 N685 1.397 . S
C687 H668 0.929 . S
C687 C684 1.404 . S
C687 N685 1.334 . S
C688 H680 0.930 . S
C688 C683 1.418 . S
C688 C684 1.353 . S
C689 H659 0.930 . S
C689 N690 1.330 . S
C689 C691 1.446 . S
N690 Co649 2.151 . S
N690 C689 1.330 . S
N690 C694 1.418 . S
C691 H670 0.929 . S
C691 C689 1.446 . S
C691 C692 1.332 . S
C692 H672 0.931 . S
C692 C691 1.332 . S
C692 C693 1.267 . S
C693 H661 0.929 . S
C693 C692 1.267 . S
C693 C694 1.251 . S
C694 H664 0.929 . S
C694 N690 1.418 . S
C694 C693 1.251 . S
C695 H662 0.930 . S
C695 C697 1.406 . S
C695 C700 1.261 . S
C696 H663 0.930 . S
C696 N698 1.325 . S
C696 C699 1.357 . S
C697 H665 0.928 . S
C697 C695 1.406 . S
C697 N698 1.261 . S
N698 Co649 2.214 . S
N698 C696 1.325 . S
N698 C697 1.261 . S
C699 H669 0.931 . S
C699 C696 1.357 . S
C699 C700 1.312 . S
C700 H671 0.930 . S
C700 C695 1.261 . S
C700 C699 1.312 . S
C701 O673 1.214 . S
C701 O681 1.234 . S
C702 H674 0.929 . S
C702 C705 1.391 . S
C702 C707 1.391 . S
C703 H675 0.929 . S
C703 C704 1.390 . S
C703 N706 1.391 . S
C704 H676 0.930 . S
C704 C703 1.390 . S
C704 C705 1.392 . S
C705 H677 0.929 . S
C705 C702 1.391 . S
C705 C704 1.392 . S
N706 Co650 2.257 . S
N706 C703 1.391 . S
N706 C707 1.388 . S
C707 H678 0.930 . S
C707 C702 1.391 . S
C707 N706 1.388 . S
Co708 O710 2.143 . S
Co708 O716 2.074 . S
Co708 O719 2.093 . S
Co708 O732 2.097 . S
Co708 N749 2.151 . S
Co708 N757 2.214 . S
Co709 O710 2.160 . S
Co709 O715 2.058 . S
Co709 O725 2.057 . S
Co709 O740 2.037 . S
Co709 N744 2.145 . S
Co709 N765 2.257 . S
O710 Co708 2.143 . S
O710 Co709 2.160 . S
C711 O712 1.278 . S
C711 O719 1.224 . S
O712 C711 1.278 . S
C713 O714 1.245 . S
C713 O725 1.232 . S
O714 C713 1.245 . S
O715 Co709 2.058 . S
O715 C741 1.269 . S
O716 Co708 2.074 . S
O716 C741 1.257 . S
H717 C742 0.930 . S
H718 C748 0.930 . S
O719 Co708 2.093 . S
O719 C711 1.224 . S
H720 C752 0.929 . S
H721 C754 0.930 . S
H722 C755 0.930 . S
H723 C753 0.929 . S
H724 C756 0.928 . S
O725 Co709 2.057 . S
O725 C713 1.232 . S
H726 C745 0.929 . S
H727 C746 0.929 . S
H728 C758 0.931 . S
H729 C750 0.929 . S
H730 C759 0.930 . S
H731 C751 0.931 . S
O732 Co708 2.097 . S
O732 C760 1.214 . S
H733 C761 0.929 . S
H734 C762 0.929 . S
H735 C763 0.930 . S
H736 C764 0.929 . S
H737 C766 0.930 . S
H738 C743 0.930 . S
H739 C747 0.930 . S
O740 Co709 2.037 . S
O740 C760 1.234 . S
C741 O715 1.269 . S
C741 O716 1.257 . S
C742 H717 0.930 . S
C742 C745 1.388 . S
C742 C747 1.418 . S
C743 H738 0.930 . S
C743 C746 1.404 . S
C743 C747 1.353 . S
N744 Co709 2.145 . S
N744 C745 1.397 . S
N744 C746 1.334 . S
C745 H726 0.929 . S
C745 C742 1.388 . S
C745 N744 1.397 . S
C746 H727 0.929 . S
C746 C743 1.404 . S
C746 N744 1.334 . S
C747 H739 0.930 . S
C747 C742 1.418 . S
C747 C743 1.353 . S
C748 H718 0.930 . S
C748 N749 1.330 . S
C748 C750 1.446 . S
N749 Co708 2.151 . S
N749 C748 1.330 . S
N749 C753 1.418 . S
C750 H729 0.929 . S
C750 C748 1.446 . S
C750 C751 1.332 . S
C751 H731 0.931 . S
C751 C750 1.332 . S
C751 C752 1.267 . S
C752 H720 0.929 . S
C752 C751 1.267 . S
C752 C753 1.251 . S
C753 H723 0.929 . S
C753 N749 1.418 . S
C753 C752 1.251 . S
C754 H721 0.930 . S
C754 C756 1.406 . S
C754 C759 1.261 . S
C755 H722 0.930 . S
C755 N757 1.325 . S
C755 C758 1.357 . S
C756 H724 0.928 . S
C756 C754 1.406 . S
C756 N757 1.261 . S
N757 Co708 2.214 . S
N757 C755 1.325 . S
N757 C756 1.261 . S
C758 H728 0.931 . S
C758 C755 1.357 . S
C758 C759 1.312 . S
C759 H730 0.930 . S
C759 C754 1.261 . S
C759 C758 1.312 . S
C760 O732 1.214 . S
C760 O740 1.234 . S
C761 H733 0.929 . S
C761 C764 1.391 . S
C761 C766 1.391 . S
C762 H734 0.929 . S
C762 C763 1.390 . S
C762 N765 1.391 . S
C763 H735 0.930 . S
C763 C762 1.390 . S
C763 C764 1.392 . S
C764 H736 0.929 . S
C764 C761 1.391 . S
C764 C763 1.392 . S
N765 Co709 2.257 . S
N765 C762 1.391 . S
N765 C766 1.388 . S
C766 H737 0.930 . S
C766 C761 1.391 . S
C766 N765 1.388 . S
Co767 O769 2.143 . S
Co767 O775 2.074 . S
Co767 O778 2.093 . S
Co767 O791 2.097 . S
Co767 N808 2.151 . S
Co767 N816 2.214 . S
Co768 O769 2.160 . S
Co768 O774 2.058 . S
Co768 O784 2.057 . S
Co768 O799 2.037 . S
Co768 N803 2.145 . S
Co768 N824 2.257 . S
O769 Co767 2.143 . S
O769 Co768 2.160 . S
C770 O771 1.278 . S
C770 O778 1.224 . S
O771 C770 1.278 . S
C772 O773 1.245 . S
C772 O784 1.232 . S
O773 C772 1.245 . S
O774 Co768 2.058 . S
O774 C800 1.269 . S
O775 Co767 2.074 . S
O775 C800 1.257 . S
H776 C801 0.930 . S
H777 C807 0.930 . S
O778 Co767 2.093 . S
O778 C770 1.224 . S
H779 C811 0.929 . S
H780 C813 0.930 . S
H781 C814 0.930 . S
H782 C812 0.929 . S
H783 C815 0.928 . S
O784 Co768 2.057 . S
O784 C772 1.232 . S
H785 C804 0.929 . S
H786 C805 0.929 . S
H787 C817 0.931 . S
H788 C809 0.929 . S
H789 C818 0.930 . S
H790 C810 0.931 . S
O791 Co767 2.097 . S
O791 C819 1.214 . S
H792 C820 0.929 . S
H793 C821 0.929 . S
H794 C822 0.930 . S
H795 C823 0.929 . S
H796 C825 0.930 . S
H797 C802 0.930 . S
H798 C806 0.930 . S
O799 Co768 2.037 . S
O799 C819 1.234 . S
C800 O774 1.269 . S
C800 O775 1.257 . S
C801 H776 0.930 . S
C801 C804 1.388 . S
C801 C806 1.418 . S
C802 H797 0.930 . S
C802 C805 1.404 . S
C802 C806 1.353 . S
N803 Co768 2.145 . S
N803 C804 1.397 . S
N803 C805 1.334 . S
C804 H785 0.929 . S
C804 C801 1.388 . S
C804 N803 1.397 . S
C805 H786 0.929 . S
C805 C802 1.404 . S
C805 N803 1.334 . S
C806 H798 0.930 . S
C806 C801 1.418 . S
C806 C802 1.353 . S
C807 H777 0.930 . S
C807 N808 1.330 . S
C807 C809 1.446 . S
N808 Co767 2.151 . S
N808 C807 1.330 . S
N808 C812 1.418 . S
C809 H788 0.929 . S
C809 C807 1.446 . S
C809 C810 1.332 . S
C810 H790 0.931 . S
C810 C809 1.332 . S
C810 C811 1.267 . S
C811 H779 0.929 . S
C811 C810 1.267 . S
C811 C812 1.251 . S
C812 H782 0.929 . S
C812 N808 1.418 . S
C812 C811 1.251 . S
C813 H780 0.930 . S
C813 C815 1.406 . S
C813 C818 1.261 . S
C814 H781 0.930 . S
C814 N816 1.325 . S
C814 C817 1.357 . S
C815 H783 0.928 . S
C815 C813 1.406 . S
C815 N816 1.261 . S
N816 Co767 2.214 . S
N816 C814 1.325 . S
N816 C815 1.261 . S
C817 H787 0.931 . S
C817 C814 1.357 . S
C817 C818 1.312 . S
C818 H789 0.930 . S
C818 C813 1.261 . S
C818 C817 1.312 . S
C819 O791 1.214 . S
C819 O799 1.234 . S
C820 H792 0.929 . S
C820 C823 1.391 . S
C820 C825 1.391 . S
C821 H793 0.929 . S
C821 C822 1.390 . S
C821 N824 1.391 . S
C822 H794 0.930 . S
C822 C821 1.390 . S
C822 C823 1.392 . S
C823 H795 0.929 . S
C823 C820 1.391 . S
C823 C822 1.392 . S
N824 Co768 2.257 . S
N824 C821 1.391 . S
N824 C825 1.388 . S
C825 H796 0.930 . S
C825 C820 1.391 . S
C825 N824 1.388 . S
Co826 O828 2.143 . S
Co826 O834 2.074 . S
Co826 O837 2.093 . S
Co826 O850 2.097 . S
Co826 N867 2.151 . S
Co826 N875 2.214 . S
Co827 O828 2.160 . S
Co827 O833 2.058 . S
Co827 O843 2.057 . S
Co827 O858 2.037 . S
Co827 N862 2.145 . S
Co827 N883 2.257 . S
O828 Co826 2.143 . S
O828 Co827 2.160 . S
C829 O830 1.278 . S
C829 O837 1.224 . S
O830 C829 1.278 . S
C831 O832 1.245 . S
C831 O843 1.232 . S
O832 C831 1.245 . S
O833 Co827 2.058 . S
O833 C859 1.269 . S
O834 Co826 2.074 . S
O834 C859 1.257 . S
H835 C860 0.930 . S
H836 C866 0.930 . S
O837 Co826 2.093 . S
O837 C829 1.224 . S
H838 C870 0.929 . S
H839 C872 0.930 . S
H840 C873 0.930 . S
H841 C871 0.929 . S
H842 C874 0.928 . S
O843 Co827 2.057 . S
O843 C831 1.232 . S
H844 C863 0.929 . S
H845 C864 0.929 . S
H846 C876 0.931 . S
H847 C868 0.929 . S
H848 C877 0.930 . S
H849 C869 0.931 . S
O850 Co826 2.097 . S
O850 C878 1.214 . S
H851 C879 0.929 . S
H852 C880 0.929 . S
H853 C881 0.930 . S
H854 C882 0.929 . S
H855 C884 0.930 . S
H856 C861 0.930 . S
H857 C865 0.930 . S
O858 Co827 2.037 . S
O858 C878 1.234 . S
C859 O833 1.269 . S
C859 O834 1.257 . S
C860 H835 0.930 . S
C860 C863 1.388 . S
C860 C865 1.418 . S
C861 H856 0.930 . S
C861 C864 1.404 . S
C861 C865 1.353 . S
N862 Co827 2.145 . S
N862 C863 1.397 . S
N862 C864 1.334 . S
C863 H844 0.929 . S
C863 C860 1.388 . S
C863 N862 1.397 . S
C864 H845 0.929 . S
C864 C861 1.404 . S
C864 N862 1.334 . S
C865 H857 0.930 . S
C865 C860 1.418 . S
C865 C861 1.353 . S
C866 H836 0.930 . S
C866 N867 1.330 . S
C866 C868 1.446 . S
N867 Co826 2.151 . S
N867 C866 1.330 . S
N867 C871 1.418 . S
C868 H847 0.929 . S
C868 C866 1.446 . S
C868 C869 1.332 . S
C869 H849 0.931 . S
C869 C868 1.332 . S
C869 C870 1.267 . S
C870 H838 0.929 . S
C870 C869 1.267 . S
C870 C871 1.251 . S
C871 H841 0.929 . S
C871 N867 1.418 . S
C871 C870 1.251 . S
C872 H839 0.930 . S
C872 C874 1.406 . S
C872 C877 1.261 . S
C873 H840 0.930 . S
C873 N875 1.325 . S
C873 C876 1.357 . S
C874 H842 0.928 . S
C874 C872 1.406 . S
C874 N875 1.261 . S
N875 Co826 2.214 . S
N875 C873 1.325 . S
N875 C874 1.261 . S
C876 H846 0.931 . S
C876 C873 1.357 . S
C876 C877 1.312 . S
C877 H848 0.930 . S
C877 C872 1.261 . S
C877 C876 1.312 . S
C878 O850 1.214 . S
C878 O858 1.234 . S
C879 H851 0.929 . S
C879 C882 1.391 . S
C879 C884 1.391 . S
C880 H852 0.929 . S
C880 C881 1.390 . S
C880 N883 1.391 . S
C881 H853 0.930 . S
C881 C880 1.390 . S
C881 C882 1.392 . S
C882 H854 0.929 . S
C882 C879 1.391 . S
C882 C881 1.392 . S
N883 Co827 2.257 . S
N883 C880 1.391 . S
N883 C884 1.388 . S
C884 H855 0.930 . S
C884 C879 1.391 . S
C884 N883 1.388 . S
Co885 O887 2.143 . S
Co885 O893 2.074 . S
Co885 O896 2.093 . S
Co885 O909 2.097 . S
Co885 N926 2.151 . S
Co885 N934 2.214 . S
Co886 O887 2.160 . S
Co886 O892 2.058 . S
Co886 O902 2.057 . S
Co886 O917 2.037 . S
Co886 N921 2.145 . S
Co886 N942 2.257 . S
O887 Co885 2.143 . S
O887 Co886 2.160 . S
C888 O889 1.278 . S
C888 O896 1.224 . S
O889 C888 1.278 . S
C890 O891 1.245 . S
C890 O902 1.232 . S
O891 C890 1.245 . S
O892 Co886 2.058 . S
O892 C918 1.269 . S
O893 Co885 2.074 . S
O893 C918 1.257 . S
H894 C919 0.930 . S
H895 C925 0.930 . S
O896 Co885 2.093 . S
O896 C888 1.224 . S
H897 C929 0.929 . S
H898 C931 0.930 . S
H899 C932 0.930 . S
H900 C930 0.929 . S
H901 C933 0.928 . S
O902 Co886 2.057 . S
O902 C890 1.232 . S
H903 C922 0.929 . S
H904 C923 0.929 . S
H905 C935 0.931 . S
H906 C927 0.929 . S
H907 C936 0.930 . S
H908 C928 0.931 . S
O909 Co885 2.097 . S
O909 C937 1.214 . S
H910 C938 0.929 . S
H911 C939 0.929 . S
H912 C940 0.930 . S
H913 C941 0.929 . S
H914 C943 0.930 . S
H915 C920 0.930 . S
H916 C924 0.930 . S
O917 Co886 2.037 . S
O917 C937 1.234 . S
C918 O892 1.269 . S
C918 O893 1.257 . S
C919 H894 0.930 . S
C919 C922 1.388 . S
C919 C924 1.418 . S
C920 H915 0.930 . S
C920 C923 1.404 . S
C920 C924 1.353 . S
N921 Co886 2.145 . S
N921 C922 1.397 . S
N921 C923 1.334 . S
C922 H903 0.929 . S
C922 C919 1.388 . S
C922 N921 1.397 . S
C923 H904 0.929 . S
C923 C920 1.404 . S
C923 N921 1.334 . S
C924 H916 0.930 . S
C924 C919 1.418 . S
C924 C920 1.353 . S
C925 H895 0.930 . S
C925 N926 1.330 . S
C925 C927 1.446 . S
N926 Co885 2.151 . S
N926 C925 1.330 . S
N926 C930 1.418 . S
C927 H906 0.929 . S
C927 C925 1.446 . S
C927 C928 1.332 . S
C928 H908 0.931 . S
C928 C927 1.332 . S
C928 C929 1.267 . S
C929 H897 0.929 . S
C929 C928 1.267 . S
C929 C930 1.251 . S
C930 H900 0.929 . S
C930 N926 1.418 . S
C930 C929 1.251 . S
C931 H898 0.930 . S
C931 C933 1.406 . S
C931 C936 1.261 . S
C932 H899 0.930 . S
C932 N934 1.325 . S
C932 C935 1.357 . S
C933 H901 0.928 . S
C933 C931 1.406 . S
C933 N934 1.261 . S
N934 Co885 2.214 . S
N934 C932 1.325 . S
N934 C933 1.261 . S
C935 H905 0.931 . S
C935 C932 1.357 . S
C935 C936 1.312 . S
C936 H907 0.930 . S
C936 C931 1.261 . S
C936 C935 1.312 . S
C937 O909 1.214 . S
C937 O917 1.234 . S
C938 H910 0.929 . S
C938 C941 1.391 . S
C938 C943 1.391 . S
C939 H911 0.929 . S
C939 C940 1.390 . S
C939 N942 1.391 . S
C940 H912 0.930 . S
C940 C939 1.390 . S
C940 C941 1.392 . S
C941 H913 0.929 . S
C941 C938 1.391 . S
C941 C940 1.392 . S
N942 Co886 2.257 . S
N942 C939 1.391 . S
N942 C943 1.388 . S
C943 H914 0.930 . S
C943 C938 1.391 . S
C943 N942 1.388 . S
Co944 O946 2.143 . S
Co944 O952 2.074 . S
Co944 O955 2.093 . S
Co944 O968 2.097 . S
Co944 N985 2.151 . S
Co944 N993 2.214 . S
Co945 O946 2.160 . S
Co945 O951 2.058 . S
Co945 O961 2.057 . S
Co945 O976 2.037 . S
Co945 N980 2.145 . S
Co945 N1001 2.257 . S
O946 Co944 2.143 . S
O946 Co945 2.160 . S
C947 O948 1.278 . S
C947 O955 1.224 . S
O948 C947 1.278 . S
C949 O950 1.245 . S
C949 O961 1.232 . S
O950 C949 1.245 . S
O951 Co945 2.058 . S
O951 C977 1.269 . S
O952 Co944 2.074 . S
O952 C977 1.257 . S
H953 C978 0.930 . S
H954 C984 0.930 . S
O955 Co944 2.093 . S
O955 C947 1.224 . S
H956 C988 0.929 . S
H957 C990 0.930 . S
H958 C991 0.930 . S
H959 C989 0.929 . S
H960 C992 0.928 . S
O961 Co945 2.057 . S
O961 C949 1.232 . S
H962 C981 0.929 . S
H963 C982 0.929 . S
H964 C994 0.931 . S
H965 C986 0.929 . S
H966 C995 0.930 . S
H967 C987 0.931 . S
O968 Co944 2.097 . S
O968 C996 1.214 . S
H969 C997 0.929 . S
H970 C998 0.929 . S
H971 C999 0.930 . S
H972 C1000 0.929 . S
H973 C1002 0.930 . S
H974 C979 0.930 . S
H975 C983 0.930 . S
O976 Co945 2.037 . S
O976 C996 1.234 . S
C977 O951 1.269 . S
C977 O952 1.257 . S
C978 H953 0.930 . S
C978 C981 1.388 . S
C978 C983 1.418 . S
C979 H974 0.930 . S
C979 C982 1.404 . S
C979 C983 1.353 . S
N980 Co945 2.145 . S
N980 C981 1.397 . S
N980 C982 1.334 . S
C981 H962 0.929 . S
C981 C978 1.388 . S
C981 N980 1.397 . S
C982 H963 0.929 . S
C982 C979 1.404 . S
C982 N980 1.334 . S
C983 H975 0.930 . S
C983 C978 1.418 . S
C983 C979 1.353 . S
C984 H954 0.930 . S
C984 N985 1.330 . S
C984 C986 1.446 . S
N985 Co944 2.151 . S
N985 C984 1.330 . S
N985 C989 1.418 . S
C986 H965 0.929 . S
C986 C984 1.446 . S
C986 C987 1.332 . S
C987 H967 0.931 . S
C987 C986 1.332 . S
C987 C988 1.267 . S
C988 H956 0.929 . S
C988 C987 1.267 . S
C988 C989 1.251 . S
C989 H959 0.929 . S
C989 N985 1.418 . S
C989 C988 1.251 . S
C990 H957 0.930 . S
C990 C992 1.406 . S
C990 C995 1.261 . S
C991 H958 0.930 . S
C991 N993 1.325 . S
C991 C994 1.357 . S
C992 H960 0.928 . S
C992 C990 1.406 . S
C992 N993 1.261 . S
N993 Co944 2.214 . S
N993 C991 1.325 . S
N993 C992 1.261 . S
C994 H964 0.931 . S
C994 C991 1.357 . S
C994 C995 1.312 . S
C995 H966 0.930 . S
C995 C990 1.261 . S
C995 C994 1.312 . S
C996 O968 1.214 . S
C996 O976 1.234 . S
C997 H969 0.929 . S
C997 C1000 1.391 . S
C997 C1002 1.391 . S
C998 H970 0.929 . S
C998 C999 1.390 . S
C998 N1001 1.391 . S
C999 H971 0.930 . S
C999 C998 1.390 . S
C999 C1000 1.392 . S
C1000 H972 0.929 . S
C1000 C997 1.391 . S
C1000 C999 1.392 . S
N1001 Co945 2.257 . S
N1001 C998 1.391 . S
N1001 C1002 1.388 . S
C1002 H973 0.930 . S
C1002 C997 1.391 . S
C1002 N1001 1.388 . S
Co1003 O1005 2.143 . S
Co1003 O1011 2.074 . S
Co1003 O1014 2.093 . S
Co1003 O1027 2.097 . S
Co1003 N1044 2.151 . S
Co1003 N1052 2.214 . S
Co1004 O1005 2.160 . S
Co1004 O1010 2.058 . S
Co1004 O1020 2.057 . S
Co1004 O1035 2.037 . S
Co1004 N1039 2.145 . S
Co1004 N1060 2.257 . S
O1005 Co1003 2.143 . S
O1005 Co1004 2.160 . S
C1006 O1007 1.278 . S
C1006 O1014 1.224 . S
O1007 C1006 1.278 . S
C1008 O1009 1.245 . S
C1008 O1020 1.232 . S
O1009 C1008 1.245 . S
O1010 Co1004 2.058 . S
O1010 C1036 1.269 . S
O1011 Co1003 2.074 . S
O1011 C1036 1.257 . S
H1012 C1037 0.930 . S
H1013 C1043 0.930 . S
O1014 Co1003 2.093 . S
O1014 C1006 1.224 . S
H1015 C1047 0.929 . S
H1016 C1049 0.930 . S
H1017 C1050 0.930 . S
H1018 C1048 0.929 . S
H1019 C1051 0.928 . S
O1020 Co1004 2.057 . S
O1020 C1008 1.232 . S
H1021 C1040 0.929 . S
H1022 C1041 0.929 . S
H1023 C1053 0.931 . S
H1024 C1045 0.929 . S
H1025 C1054 0.930 . S
H1026 C1046 0.931 . S
O1027 Co1003 2.097 . S
O1027 C1055 1.214 . S
H1028 C1056 0.929 . S
H1029 C1057 0.929 . S
H1030 C1058 0.930 . S
H1031 C1059 0.929 . S
H1032 C1061 0.930 . S
H1033 C1038 0.930 . S
H1034 C1042 0.930 . S
O1035 Co1004 2.037 . S
O1035 C1055 1.234 . S
C1036 O1010 1.269 . S
C1036 O1011 1.257 . S
C1037 H1012 0.930 . S
C1037 C1040 1.388 . S
C1037 C1042 1.418 . S
C1038 H1033 0.930 . S
C1038 C1041 1.404 . S
C1038 C1042 1.353 . S
N1039 Co1004 2.145 . S
N1039 C1040 1.397 . S
N1039 C1041 1.334 . S
C1040 H1021 0.929 . S
C1040 C1037 1.388 . S
C1040 N1039 1.397 . S
C1041 H1022 0.929 . S
C1041 C1038 1.404 . S
C1041 N1039 1.334 . S
C1042 H1034 0.930 . S
C1042 C1037 1.418 . S
C1042 C1038 1.353 . S
C1043 H1013 0.930 . S
C1043 N1044 1.330 . S
C1043 C1045 1.446 . S
N1044 Co1003 2.151 . S
N1044 C1043 1.330 . S
N1044 C1048 1.418 . S
C1045 H1024 0.929 . S
C1045 C1043 1.446 . S
C1045 C1046 1.332 . S
C1046 H1026 0.931 . S
C1046 C1045 1.332 . S
C1046 C1047 1.267 . S
C1047 H1015 0.929 . S
C1047 C1046 1.267 . S
C1047 C1048 1.251 . S
C1048 H1018 0.929 . S
C1048 N1044 1.418 . S
C1048 C1047 1.251 . S
C1049 H1016 0.930 . S
C1049 C1051 1.406 . S
C1049 C1054 1.261 . S
C1050 H1017 0.930 . S
C1050 N1052 1.325 . S
C1050 C1053 1.357 . S
C1051 H1019 0.928 . S
C1051 C1049 1.406 . S
C1051 N1052 1.261 . S
N1052 Co1003 2.214 . S
N1052 C1050 1.325 . S
N1052 C1051 1.261 . S
C1053 H1023 0.931 . S
C1053 C1050 1.357 . S
C1053 C1054 1.312 . S
C1054 H1025 0.930 . S
C1054 C1049 1.261 . S
C1054 C1053 1.312 . S
C1055 O1027 1.214 . S
C1055 O1035 1.234 . S
C1056 H1028 0.929 . S
C1056 C1059 1.391 . S
C1056 C1061 1.391 . S
C1057 H1029 0.929 . S
C1057 C1058 1.390 . S
C1057 N1060 1.391 . S
C1058 H1030 0.930 . S
C1058 C1057 1.390 . S
C1058 C1059 1.392 . S
C1059 H1031 0.929 . S
C1059 C1056 1.391 . S
C1059 C1058 1.392 . S
N1060 Co1004 2.257 . S
N1060 C1057 1.391 . S
N1060 C1061 1.388 . S
C1061 H1032 0.930 . S
C1061 C1056 1.391 . S
C1061 N1060 1.388 . S
Co1062 O1064 2.143 . S
Co1062 O1070 2.074 . S
Co1062 O1073 2.093 . S
Co1062 O1086 2.097 . S
Co1062 N1103 2.151 . S
Co1062 N1111 2.214 . S
Co1063 O1064 2.160 . S
Co1063 O1069 2.058 . S
Co1063 O1079 2.057 . S
Co1063 O1094 2.037 . S
Co1063 N1098 2.145 . S
Co1063 N1119 2.257 . S
O1064 Co1062 2.143 . S
O1064 Co1063 2.160 . S
C1065 O1066 1.278 . S
C1065 O1073 1.224 . S
O1066 C1065 1.278 . S
C1067 O1068 1.245 . S
C1067 O1079 1.232 . S
O1068 C1067 1.245 . S
O1069 Co1063 2.058 . S
O1069 C1095 1.269 . S
O1070 Co1062 2.074 . S
O1070 C1095 1.257 . S
H1071 C1096 0.930 . S
H1072 C1102 0.930 . S
O1073 Co1062 2.093 . S
O1073 C1065 1.224 . S
H1074 C1106 0.929 . S
H1075 C1108 0.930 . S
H1076 C1109 0.930 . S
H1077 C1107 0.929 . S
H1078 C1110 0.928 . S
O1079 Co1063 2.057 . S
O1079 C1067 1.232 . S
H1080 C1099 0.929 . S
H1081 C1100 0.929 . S
H1082 C1112 0.931 . S
H1083 C1104 0.929 . S
H1084 C1113 0.930 . S
H1085 C1105 0.931 . S
O1086 Co1062 2.097 . S
O1086 C1114 1.214 . S
H1087 C1115 0.929 . S
H1088 C1116 0.929 . S
H1089 C1117 0.930 . S
H1090 C1118 0.929 . S
H1091 C1120 0.930 . S
H1092 C1097 0.930 . S
H1093 C1101 0.930 . S
O1094 Co1063 2.037 . S
O1094 C1114 1.234 . S
C1095 O1069 1.269 . S
C1095 O1070 1.257 . S
C1096 H1071 0.930 . S
C1096 C1099 1.388 . S
C1096 C1101 1.418 . S
C1097 H1092 0.930 . S
C1097 C1100 1.404 . S
C1097 C1101 1.353 . S
N1098 Co1063 2.145 . S
N1098 C1099 1.397 . S
N1098 C1100 1.334 . S
C1099 H1080 0.929 . S
C1099 C1096 1.388 . S
C1099 N1098 1.397 . S
C1100 H1081 0.929 . S
C1100 C1097 1.404 . S
C1100 N1098 1.334 . S
C1101 H1093 0.930 . S
C1101 C1096 1.418 . S
C1101 C1097 1.353 . S
C1102 H1072 0.930 . S
C1102 N1103 1.330 . S
C1102 C1104 1.446 . S
N1103 Co1062 2.151 . S
N1103 C1102 1.330 . S
N1103 C1107 1.418 . S
C1104 H1083 0.929 . S
C1104 C1102 1.446 . S
C1104 C1105 1.332 . S
C1105 H1085 0.931 . S
C1105 C1104 1.332 . S
C1105 C1106 1.267 . S
C1106 H1074 0.929 . S
C1106 C1105 1.267 . S
C1106 C1107 1.251 . S
C1107 H1077 0.929 . S
C1107 N1103 1.418 . S
C1107 C1106 1.251 . S
C1108 H1075 0.930 . S
C1108 C1110 1.406 . S
C1108 C1113 1.261 . S
C1109 H1076 0.930 . S
C1109 N1111 1.325 . S
C1109 C1112 1.357 . S
C1110 H1078 0.928 . S
C1110 C1108 1.406 . S
C1110 N1111 1.261 . S
N1111 Co1062 2.214 . S
N1111 C1109 1.325 . S
N1111 C1110 1.261 . S
C1112 H1082 0.931 . S
C1112 C1109 1.357 . S
C1112 C1113 1.312 . S
C1113 H1084 0.930 . S
C1113 C1108 1.261 . S
C1113 C1112 1.312 . S
C1114 O1086 1.214 . S
C1114 O1094 1.234 . S
C1115 H1087 0.929 . S
C1115 C1118 1.391 . S
C1115 C1120 1.391 . S
C1116 H1088 0.929 . S
C1116 C1117 1.390 . S
C1116 N1119 1.391 . S
C1117 H1089 0.930 . S
C1117 C1116 1.390 . S
C1117 C1118 1.392 . S
C1118 H1090 0.929 . S
C1118 C1115 1.391 . S
C1118 C1117 1.392 . S
N1119 Co1063 2.257 . S
N1119 C1116 1.391 . S
N1119 C1120 1.388 . S
C1120 H1091 0.930 . S
C1120 C1115 1.391 . S
C1120 N1119 1.388 . S
Co1121 O1123 2.143 . S
Co1121 O1129 2.074 . S
Co1121 O1132 2.093 . S
Co1121 O1145 2.097 . S
Co1121 N1162 2.151 . S
Co1121 N1170 2.214 . S
Co1122 O1123 2.160 . S
Co1122 O1128 2.058 . S
Co1122 O1138 2.057 . S
Co1122 O1153 2.037 . S
Co1122 N1157 2.145 . S
Co1122 N1178 2.257 . S
O1123 Co1121 2.143 . S
O1123 Co1122 2.160 . S
C1124 O1125 1.278 . S
C1124 O1132 1.224 . S
O1125 C1124 1.278 . S
C1126 O1127 1.245 . S
C1126 O1138 1.232 . S
O1127 C1126 1.245 . S
O1128 Co1122 2.058 . S
O1128 C1154 1.269 . S
O1129 Co1121 2.074 . S
O1129 C1154 1.257 . S
H1130 C1155 0.930 . S
H1131 C1161 0.930 . S
O1132 Co1121 2.093 . S
O1132 C1124 1.224 . S
H1133 C1165 0.929 . S
H1134 C1167 0.930 . S
H1135 C1168 0.930 . S
H1136 C1166 0.929 . S
H1137 C1169 0.928 . S
O1138 Co1122 2.057 . S
O1138 C1126 1.232 . S
H1139 C1158 0.929 . S
H1140 C1159 0.929 . S
H1141 C1171 0.931 . S
H1142 C1163 0.929 . S
H1143 C1172 0.930 . S
H1144 C1164 0.931 . S
O1145 Co1121 2.097 . S
O1145 C1173 1.214 . S
H1146 C1174 0.929 . S
H1147 C1175 0.929 . S
H1148 C1176 0.930 . S
H1149 C1177 0.929 . S
H1150 C1179 0.930 . S
H1151 C1156 0.930 . S
H1152 C1160 0.930 . S
O1153 Co1122 2.037 . S
O1153 C1173 1.234 . S
C1154 O1128 1.269 . S
C1154 O1129 1.257 . S
C1155 H1130 0.930 . S
C1155 C1158 1.388 . S
C1155 C1160 1.418 . S
C1156 H1151 0.930 . S
C1156 C1159 1.404 . S
C1156 C1160 1.353 . S
N1157 Co1122 2.145 . S
N1157 C1158 1.397 . S
N1157 C1159 1.334 . S
C1158 H1139 0.929 . S
C1158 C1155 1.388 . S
C1158 N1157 1.397 . S
C1159 H1140 0.929 . S
C1159 C1156 1.404 . S
C1159 N1157 1.334 . S
C1160 H1152 0.930 . S
C1160 C1155 1.418 . S
C1160 C1156 1.353 . S
C1161 H1131 0.930 . S
C1161 N1162 1.330 . S
C1161 C1163 1.446 . S
N1162 Co1121 2.151 . S
N1162 C1161 1.330 . S
N1162 C1166 1.418 . S
C1163 H1142 0.929 . S
C1163 C1161 1.446 . S
C1163 C1164 1.332 . S
C1164 H1144 0.931 . S
C1164 C1163 1.332 . S
C1164 C1165 1.267 . S
C1165 H1133 0.929 . S
C1165 C1164 1.267 . S
C1165 C1166 1.251 . S
C1166 H1136 0.929 . S
C1166 N1162 1.418 . S
C1166 C1165 1.251 . S
C1167 H1134 0.930 . S
C1167 C1169 1.406 . S
C1167 C1172 1.261 . S
C1168 H1135 0.930 . S
C1168 N1170 1.325 . S
C1168 C1171 1.357 . S
C1169 H1137 0.928 . S
C1169 C1167 1.406 . S
C1169 N1170 1.261 . S
N1170 Co1121 2.214 . S
N1170 C1168 1.325 . S
N1170 C1169 1.261 . S
C1171 H1141 0.931 . S
C1171 C1168 1.357 . S
C1171 C1172 1.312 . S
C1172 H1143 0.930 . S
C1172 C1167 1.261 . S
C1172 C1171 1.312 . S
C1173 O1145 1.214 . S
C1173 O1153 1.234 . S
C1174 H1146 0.929 . S
C1174 C1177 1.391 . S
C1174 C1179 1.391 . S
C1175 H1147 0.929 . S
C1175 C1176 1.390 . S
C1175 N1178 1.391 . S
C1176 H1148 0.930 . S
C1176 C1175 1.390 . S
C1176 C1177 1.392 . S
C1177 H1149 0.929 . S
C1177 C1174 1.391 . S
C1177 C1176 1.392 . S
N1178 Co1122 2.257 . S
N1178 C1175 1.391 . S
N1178 C1179 1.388 . S
C1179 H1150 0.930 . S
C1179 C1174 1.391 . S
C1179 N1178 1.388 . S
Co1180 O1182 2.143 . S
Co1180 O1188 2.074 . S
Co1180 O1191 2.093 . S
Co1180 O1204 2.097 . S
Co1180 N1221 2.151 . S
Co1180 N1229 2.214 . S
Co1181 O1182 2.160 . S
Co1181 O1187 2.058 . S
Co1181 O1197 2.057 . S
Co1181 O1212 2.037 . S
Co1181 N1216 2.145 . S
Co1181 N1237 2.257 . S
O1182 Co1180 2.143 . S
O1182 Co1181 2.160 . S
C1183 O1184 1.278 . S
C1183 O1191 1.224 . S
O1184 C1183 1.278 . S
C1185 O1186 1.245 . S
C1185 O1197 1.232 . S
O1186 C1185 1.245 . S
O1187 Co1181 2.058 . S
O1187 C1213 1.269 . S
O1188 Co1180 2.074 . S
O1188 C1213 1.257 . S
H1189 C1214 0.930 . S
H1190 C1220 0.930 . S
O1191 Co1180 2.093 . S
O1191 C1183 1.224 . S
H1192 C1224 0.929 . S
H1193 C1226 0.930 . S
H1194 C1227 0.930 . S
H1195 C1225 0.929 . S
H1196 C1228 0.928 . S
O1197 Co1181 2.057 . S
O1197 C1185 1.232 . S
H1198 C1217 0.929 . S
H1199 C1218 0.929 . S
H1200 C1230 0.931 . S
H1201 C1222 0.929 . S
H1202 C1231 0.930 . S
H1203 C1223 0.931 . S
O1204 Co1180 2.097 . S
O1204 C1232 1.214 . S
H1205 C1233 0.929 . S
H1206 C1234 0.929 . S
H1207 C1235 0.930 . S
H1208 C1236 0.929 . S
H1209 C1238 0.930 . S
H1210 C1215 0.930 . S
H1211 C1219 0.930 . S
O1212 Co1181 2.037 . S
O1212 C1232 1.234 . S
C1213 O1187 1.269 . S
C1213 O1188 1.257 . S
C1214 H1189 0.930 . S
C1214 C1217 1.388 . S
C1214 C1219 1.418 . S
C1215 H1210 0.930 . S
C1215 C1218 1.404 . S
C1215 C1219 1.353 . S
N1216 Co1181 2.145 . S
N1216 C1217 1.397 . S
N1216 C1218 1.334 . S
C1217 H1198 0.929 . S
C1217 C1214 1.388 . S
C1217 N1216 1.397 . S
C1218 H1199 0.929 . S
C1218 C1215 1.404 . S
C1218 N1216 1.334 . S
C1219 H1211 0.930 . S
C1219 C1214 1.418 . S
C1219 C1215 1.353 . S
C1220 H1190 0.930 . S
C1220 N1221 1.330 . S
C1220 C1222 1.446 . S
N1221 Co1180 2.151 . S
N1221 C1220 1.330 . S
N1221 C1225 1.418 . S
C1222 H1201 0.929 . S
C1222 C1220 1.446 . S
C1222 C1223 1.332 . S
C1223 H1203 0.931 . S
C1223 C1222 1.332 . S
C1223 C1224 1.267 . S
C1224 H1192 0.929 . S
C1224 C1223 1.267 . S
C1224 C1225 1.251 . S
C1225 H1195 0.929 . S
C1225 N1221 1.418 . S
C1225 C1224 1.251 . S
C1226 H1193 0.930 . S
C1226 C1228 1.406 . S
C1226 C1231 1.261 . S
C1227 H1194 0.930 . S
C1227 N1229 1.325 . S
C1227 C1230 1.357 . S
C1228 H1196 0.928 . S
C1228 C1226 1.406 . S
C1228 N1229 1.261 . S
N1229 Co1180 2.214 . S
N1229 C1227 1.325 . S
N1229 C1228 1.261 . S
C1230 H1200 0.931 . S
C1230 C1227 1.357 . S
C1230 C1231 1.312 . S
C1231 H1202 0.930 . S
C1231 C1226 1.261 . S
C1231 C1230 1.312 . S
C1232 O1204 1.214 . S
C1232 O1212 1.234 . S
C1233 H1205 0.929 . S
C1233 C1236 1.391 . S
C1233 C1238 1.391 . S
C1234 H1206 0.929 . S
C1234 C1235 1.390 . S
C1234 N1237 1.391 . S
C1235 H1207 0.930 . S
C1235 C1234 1.390 . S
C1235 C1236 1.392 . S
C1236 H1208 0.929 . S
C1236 C1233 1.391 . S
C1236 C1235 1.392 . S
N1237 Co1181 2.257 . S
N1237 C1234 1.391 . S
N1237 C1238 1.388 . S
C1238 H1209 0.930 . S
C1238 C1233 1.391 . S
C1238 N1237 1.388 . S
Co1239 O1241 2.143 . S
Co1239 O1247 2.074 . S
Co1239 O1250 2.093 . S
Co1239 O1263 2.097 . S
Co1239 N1280 2.151 . S
Co1239 N1288 2.214 . S
Co1240 O1241 2.160 . S
Co1240 O1246 2.058 . S
Co1240 O1256 2.057 . S
Co1240 O1271 2.037 . S
Co1240 N1275 2.145 . S
Co1240 N1296 2.257 . S
O1241 Co1239 2.143 . S
O1241 Co1240 2.160 . S
C1242 O1243 1.278 . S
C1242 O1250 1.224 . S
O1243 C1242 1.278 . S
C1244 O1245 1.245 . S
C1244 O1256 1.232 . S
O1245 C1244 1.245 . S
O1246 Co1240 2.058 . S
O1246 C1272 1.269 . S
O1247 Co1239 2.074 . S
O1247 C1272 1.257 . S
H1248 C1273 0.930 . S
H1249 C1279 0.930 . S
O1250 Co1239 2.093 . S
O1250 C1242 1.224 . S
H1251 C1283 0.929 . S
H1252 C1285 0.930 . S
H1253 C1286 0.930 . S
H1254 C1284 0.929 . S
H1255 C1287 0.928 . S
O1256 Co1240 2.057 . S
O1256 C1244 1.232 . S
H1257 C1276 0.929 . S
H1258 C1277 0.929 . S
H1259 C1289 0.931 . S
H1260 C1281 0.929 . S
H1261 C1290 0.930 . S
H1262 C1282 0.931 . S
O1263 Co1239 2.097 . S
O1263 C1291 1.214 . S
H1264 C1292 0.929 . S
H1265 C1293 0.929 . S
H1266 C1294 0.930 . S
H1267 C1295 0.929 . S
H1268 C1297 0.930 . S
H1269 C1274 0.930 . S
H1270 C1278 0.930 . S
O1271 Co1240 2.037 . S
O1271 C1291 1.234 . S
C1272 O1246 1.269 . S
C1272 O1247 1.257 . S
C1273 H1248 0.930 . S
C1273 C1276 1.388 . S
C1273 C1278 1.418 . S
C1274 H1269 0.930 . S
C1274 C1277 1.404 . S
C1274 C1278 1.353 . S
N1275 Co1240 2.145 . S
N1275 C1276 1.397 . S
N1275 C1277 1.334 . S
C1276 H1257 0.929 . S
C1276 C1273 1.388 . S
C1276 N1275 1.397 . S
C1277 H1258 0.929 . S
C1277 C1274 1.404 . S
C1277 N1275 1.334 . S
C1278 H1270 0.930 . S
C1278 C1273 1.418 . S
C1278 C1274 1.353 . S
C1279 H1249 0.930 . S
C1279 N1280 1.330 . S
C1279 C1281 1.446 . S
N1280 Co1239 2.151 . S
N1280 C1279 1.330 . S
N1280 C1284 1.418 . S
C1281 H1260 0.929 . S
C1281 C1279 1.446 . S
C1281 C1282 1.332 . S
C1282 H1262 0.931 . S
C1282 C1281 1.332 . S
C1282 C1283 1.267 . S
C1283 H1251 0.929 . S
C1283 C1282 1.267 . S
C1283 C1284 1.251 . S
C1284 H1254 0.929 . S
C1284 N1280 1.418 . S
C1284 C1283 1.251 . S
C1285 H1252 0.930 . S
C1285 C1287 1.406 . S
C1285 C1290 1.261 . S
C1286 H1253 0.930 . S
C1286 N1288 1.325 . S
C1286 C1289 1.357 . S
C1287 H1255 0.928 . S
C1287 C1285 1.406 . S
C1287 N1288 1.261 . S
N1288 Co1239 2.214 . S
N1288 C1286 1.325 . S
N1288 C1287 1.261 . S
C1289 H1259 0.931 . S
C1289 C1286 1.357 . S
C1289 C1290 1.312 . S
C1290 H1261 0.930 . S
C1290 C1285 1.261 . S
C1290 C1289 1.312 . S
C1291 O1263 1.214 . S
C1291 O1271 1.234 . S
C1292 H1264 0.929 . S
C1292 C1295 1.391 . S
C1292 C1297 1.391 . S
C1293 H1265 0.929 . S
C1293 C1294 1.390 . S
C1293 N1296 1.391 . S
C1294 H1266 0.930 . S
C1294 C1293 1.390 . S
C1294 C1295 1.392 . S
C1295 H1267 0.929 . S
C1295 C1292 1.391 . S
C1295 C1294 1.392 . S
N1296 Co1240 2.257 . S
N1296 C1293 1.391 . S
N1296 C1297 1.388 . S
C1297 H1268 0.930 . S
C1297 C1292 1.391 . S
C1297 N1296 1.388 . S
Co1298 O1300 2.143 . S
Co1298 O1306 2.074 . S
Co1298 O1309 2.093 . S
Co1298 O1322 2.097 . S
Co1298 N1339 2.151 . S
Co1298 N1347 2.214 . S
Co1299 O1300 2.160 . S
Co1299 O1305 2.058 . S
Co1299 O1315 2.057 . S
Co1299 O1330 2.037 . S
Co1299 N1334 2.145 . S
Co1299 N1355 2.257 . S
O1300 Co1298 2.143 . S
O1300 Co1299 2.160 . S
C1301 O1302 1.278 . S
C1301 O1309 1.224 . S
O1302 C1301 1.278 . S
C1303 O1304 1.245 . S
C1303 O1315 1.232 . S
O1304 C1303 1.245 . S
O1305 Co1299 2.058 . S
O1305 C1331 1.269 . S
O1306 Co1298 2.074 . S
O1306 C1331 1.257 . S
H1307 C1332 0.930 . S
H1308 C1338 0.930 . S
O1309 Co1298 2.093 . S
O1309 C1301 1.224 . S
H1310 C1342 0.929 . S
H1311 C1344 0.930 . S
H1312 C1345 0.930 . S
H1313 C1343 0.929 . S
H1314 C1346 0.928 . S
O1315 Co1299 2.057 . S
O1315 C1303 1.232 . S
H1316 C1335 0.929 . S
H1317 C1336 0.929 . S
H1318 C1348 0.931 . S
H1319 C1340 0.929 . S
H1320 C1349 0.930 . S
H1321 C1341 0.931 . S
O1322 Co1298 2.097 . S
O1322 C1350 1.214 . S
H1323 C1351 0.929 . S
H1324 C1352 0.929 . S
H1325 C1353 0.930 . S
H1326 C1354 0.929 . S
H1327 C1356 0.930 . S
H1328 C1333 0.930 . S
H1329 C1337 0.930 . S
O1330 Co1299 2.037 . S
O1330 C1350 1.234 . S
C1331 O1305 1.269 . S
C1331 O1306 1.257 . S
C1332 H1307 0.930 . S
C1332 C1335 1.388 . S
C1332 C1337 1.418 . S
C1333 H1328 0.930 . S
C1333 C1336 1.404 . S
C1333 C1337 1.353 . S
N1334 Co1299 2.145 . S
N1334 C1335 1.397 . S
N1334 C1336 1.334 . S
C1335 H1316 0.929 . S
C1335 C1332 1.388 . S
C1335 N1334 1.397 . S
C1336 H1317 0.929 . S
C1336 C1333 1.404 . S
C1336 N1334 1.334 . S
C1337 H1329 0.930 . S
C1337 C1332 1.418 . S
C1337 C1333 1.353 . S
C1338 H1308 0.930 . S
C1338 N1339 1.330 . S
C1338 C1340 1.446 . S
N1339 Co1298 2.151 . S
N1339 C1338 1.330 . S
N1339 C1343 1.418 . S
C1340 H1319 0.929 . S
C1340 C1338 1.446 . S
C1340 C1341 1.332 . S
C1341 H1321 0.931 . S
C1341 C1340 1.332 . S
C1341 C1342 1.267 . S
C1342 H1310 0.929 . S
C1342 C1341 1.267 . S
C1342 C1343 1.251 . S
C1343 H1313 0.929 . S
C1343 N1339 1.418 . S
C1343 C1342 1.251 . S
C1344 H1311 0.930 . S
C1344 C1346 1.406 . S
C1344 C1349 1.261 . S
C1345 H1312 0.930 . S
C1345 N1347 1.325 . S
C1345 C1348 1.357 . S
C1346 H1314 0.928 . S
C1346 C1344 1.406 . S
C1346 N1347 1.261 . S
N1347 Co1298 2.214 . S
N1347 C1345 1.325 . S
N1347 C1346 1.261 . S
C1348 H1318 0.931 . S
C1348 C1345 1.357 . S
C1348 C1349 1.312 . S
C1349 H1320 0.930 . S
C1349 C1344 1.261 . S
C1349 C1348 1.312 . S
C1350 O1322 1.214 . S
C1350 O1330 1.234 . S
C1351 H1323 0.929 . S
C1351 C1354 1.391 . S
C1351 C1356 1.391 . S
C1352 H1324 0.929 . S
C1352 C1353 1.390 . S
C1352 N1355 1.391 . S
C1353 H1325 0.930 . S
C1353 C1352 1.390 . S
C1353 C1354 1.392 . S
C1354 H1326 0.929 . S
C1354 C1351 1.391 . S
C1354 C1353 1.392 . S
N1355 Co1299 2.257 . S
N1355 C1352 1.391 . S
N1355 C1356 1.388 . S
C1356 H1327 0.930 . S
C1356 C1351 1.391 . S
C1356 N1355 1.388 . S
Co1357 O1359 2.143 . S
Co1357 O1365 2.074 . S
Co1357 O1368 2.093 . S
Co1357 O1381 2.097 . S
Co1357 N1398 2.151 . S
Co1357 N1406 2.214 . S
Co1358 O1359 2.160 . S
Co1358 O1364 2.058 . S
Co1358 O1374 2.057 . S
Co1358 O1389 2.037 . S
Co1358 N1393 2.145 . S
Co1358 N1414 2.257 . S
O1359 Co1357 2.143 . S
O1359 Co1358 2.160 . S
C1360 O1361 1.278 . S
C1360 O1368 1.224 . S
O1361 C1360 1.278 . S
C1362 O1363 1.245 . S
C1362 O1374 1.232 . S
O1363 C1362 1.245 . S
O1364 Co1358 2.058 . S
O1364 C1390 1.269 . S
O1365 Co1357 2.074 . S
O1365 C1390 1.257 . S
H1366 C1391 0.930 . S
H1367 C1397 0.930 . S
O1368 Co1357 2.093 . S
O1368 C1360 1.224 . S
H1369 C1401 0.929 . S
H1370 C1403 0.930 . S
H1371 C1404 0.930 . S
H1372 C1402 0.929 . S
H1373 C1405 0.928 . S
O1374 Co1358 2.057 . S
O1374 C1362 1.232 . S
H1375 C1394 0.929 . S
H1376 C1395 0.929 . S
H1377 C1407 0.931 . S
H1378 C1399 0.929 . S
H1379 C1408 0.930 . S
H1380 C1400 0.931 . S
O1381 Co1357 2.097 . S
O1381 C1409 1.214 . S
H1382 C1410 0.929 . S
H1383 C1411 0.929 . S
H1384 C1412 0.930 . S
H1385 C1413 0.929 . S
H1386 C1415 0.930 . S
H1387 C1392 0.930 . S
H1388 C1396 0.930 . S
O1389 Co1358 2.037 . S
O1389 C1409 1.234 . S
C1390 O1364 1.269 . S
C1390 O1365 1.257 . S
C1391 H1366 0.930 . S
C1391 C1394 1.388 . S
C1391 C1396 1.418 . S
C1392 H1387 0.930 . S
C1392 C1395 1.404 . S
C1392 C1396 1.353 . S
N1393 Co1358 2.145 . S
N1393 C1394 1.397 . S
N1393 C1395 1.334 . S
C1394 H1375 0.929 . S
C1394 C1391 1.388 . S
C1394 N1393 1.397 . S
C1395 H1376 0.929 . S
C1395 C1392 1.404 . S
C1395 N1393 1.334 . S
C1396 H1388 0.930 . S
C1396 C1391 1.418 . S
C1396 C1392 1.353 . S
C1397 H1367 0.930 . S
C1397 N1398 1.330 . S
C1397 C1399 1.446 . S
N1398 Co1357 2.151 . S
N1398 C1397 1.330 . S
N1398 C1402 1.418 . S
C1399 H1378 0.929 . S
C1399 C1397 1.446 . S
C1399 C1400 1.332 . S
C1400 H1380 0.931 . S
C1400 C1399 1.332 . S
C1400 C1401 1.267 . S
C1401 H1369 0.929 . S
C1401 C1400 1.267 . S
C1401 C1402 1.251 . S
C1402 H1372 0.929 . S
C1402 N1398 1.418 . S
C1402 C1401 1.251 . S
C1403 H1370 0.930 . S
C1403 C1405 1.406 . S
C1403 C1408 1.261 . S
C1404 H1371 0.930 . S
C1404 N1406 1.325 . S
C1404 C1407 1.357 . S
C1405 H1373 0.928 . S
C1405 C1403 1.406 . S
C1405 N1406 1.261 . S
N1406 Co1357 2.214 . S
N1406 C1404 1.325 . S
N1406 C1405 1.261 . S
C1407 H1377 0.931 . S
C1407 C1404 1.357 . S
C1407 C1408 1.312 . S
C1408 H1379 0.930 . S
C1408 C1403 1.261 . S
C1408 C1407 1.312 . S
C1409 O1381 1.214 . S
C1409 O1389 1.234 . S
C1410 H1382 0.929 . S
C1410 C1413 1.391 . S
C1410 C1415 1.391 . S
C1411 H1383 0.929 . S
C1411 C1412 1.390 . S
C1411 N1414 1.391 . S
C1412 H1384 0.930 . S
C1412 C1411 1.390 . S
C1412 C1413 1.392 . S
C1413 H1385 0.929 . S
C1413 C1410 1.391 . S
C1413 C1412 1.392 . S
N1414 Co1358 2.257 . S
N1414 C1411 1.391 . S
N1414 C1415 1.388 . S
C1415 H1386 0.930 . S
C1415 C1410 1.391 . S
C1415 N1414 1.388 . S
Co1416 O1418 2.143 . S
Co1416 O1424 2.074 . S
Co1416 O1427 2.093 . S
Co1416 O1440 2.097 . S
Co1416 N1457 2.151 . S
Co1416 N1465 2.214 . S
Co1417 O1418 2.160 . S
Co1417 O1423 2.058 . S
Co1417 O1433 2.057 . S
Co1417 O1448 2.037 . S
Co1417 N1452 2.145 . S
Co1417 N1473 2.257 . S
O1418 Co1416 2.143 . S
O1418 Co1417 2.160 . S
C1419 O1420 1.278 . S
C1419 O1427 1.224 . S
O1420 C1419 1.278 . S
C1421 O1422 1.245 . S
C1421 O1433 1.232 . S
O1422 C1421 1.245 . S
O1423 Co1417 2.058 . S
O1423 C1449 1.269 . S
O1424 Co1416 2.074 . S
O1424 C1449 1.257 . S
H1425 C1450 0.930 . S
H1426 C1456 0.930 . S
O1427 Co1416 2.093 . S
O1427 C1419 1.224 . S
H1428 C1460 0.929 . S
H1429 C1462 0.930 . S
H1430 C1463 0.930 . S
H1431 C1461 0.929 . S
H1432 C1464 0.928 . S
O1433 Co1417 2.057 . S
O1433 C1421 1.232 . S
H1434 C1453 0.929 . S
H1435 C1454 0.929 . S
H1436 C1466 0.931 . S
H1437 C1458 0.929 . S
H1438 C1467 0.930 . S
H1439 C1459 0.931 . S
O1440 Co1416 2.097 . S
O1440 C1468 1.214 . S
H1441 C1469 0.929 . S
H1442 C1470 0.929 . S
H1443 C1471 0.930 . S
H1444 C1472 0.929 . S
H1445 C1474 0.930 . S
H1446 C1451 0.930 . S
H1447 C1455 0.930 . S
O1448 Co1417 2.037 . S
O1448 C1468 1.234 . S
C1449 O1423 1.269 . S
C1449 O1424 1.257 . S
C1450 H1425 0.930 . S
C1450 C1453 1.388 . S
C1450 C1455 1.418 . S
C1451 H1446 0.930 . S
C1451 C1454 1.404 . S
C1451 C1455 1.353 . S
N1452 Co1417 2.145 . S
N1452 C1453 1.397 . S
N1452 C1454 1.334 . S
C1453 H1434 0.929 . S
C1453 C1450 1.388 . S
C1453 N1452 1.397 . S
C1454 H1435 0.929 . S
C1454 C1451 1.404 . S
C1454 N1452 1.334 . S
C1455 H1447 0.930 . S
C1455 C1450 1.418 . S
C1455 C1451 1.353 . S
C1456 H1426 0.930 . S
C1456 N1457 1.330 . S
C1456 C1458 1.446 . S
N1457 Co1416 2.151 . S
N1457 C1456 1.330 . S
N1457 C1461 1.418 . S
C1458 H1437 0.929 . S
C1458 C1456 1.446 . S
C1458 C1459 1.332 . S
C1459 H1439 0.931 . S
C1459 C1458 1.332 . S
C1459 C1460 1.267 . S
C1460 H1428 0.929 . S
C1460 C1459 1.267 . S
C1460 C1461 1.251 . S
C1461 H1431 0.929 . S
C1461 N1457 1.418 . S
C1461 C1460 1.251 . S
C1462 H1429 0.930 . S
C1462 C1464 1.406 . S
C1462 C1467 1.261 . S
C1463 H1430 0.930 . S
C1463 N1465 1.325 . S
C1463 C1466 1.357 . S
C1464 H1432 0.928 . S
C1464 C1462 1.406 . S
C1464 N1465 1.261 . S
N1465 Co1416 2.214 . S
N1465 C1463 1.325 . S
N1465 C1464 1.261 . S
C1466 H1436 0.931 . S
C1466 C1463 1.357 . S
C1466 C1467 1.312 . S
C1467 H1438 0.930 . S
C1467 C1462 1.261 . S
C1467 C1466 1.312 . S
C1468 O1440 1.214 . S
C1468 O1448 1.234 . S
C1469 H1441 0.929 . S
C1469 C1472 1.391 . S
C1469 C1474 1.391 . S
C1470 H1442 0.929 . S
C1470 C1471 1.390 . S
C1470 N1473 1.391 . S
C1471 H1443 0.930 . S
C1471 C1470 1.390 . S
C1471 C1472 1.392 . S
C1472 H1444 0.929 . S
C1472 C1469 1.391 . S
C1472 C1471 1.392 . S
N1473 Co1417 2.257 . S
N1473 C1470 1.391 . S
N1473 C1474 1.388 . S
C1474 H1445 0.930 . S
C1474 C1469 1.391 . S
C1474 N1473 1.388 . S
Co1475 O1477 2.143 . S
Co1475 O1483 2.074 . S
Co1475 O1486 2.093 . S
Co1475 O1499 2.097 . S
Co1475 N1516 2.151 . S
Co1475 N1524 2.214 . S
Co1476 O1477 2.160 . S
Co1476 O1482 2.058 . S
Co1476 O1492 2.057 . S
Co1476 O1507 2.037 . S
Co1476 N1511 2.145 . S
Co1476 N1532 2.257 . S
O1477 Co1475 2.143 . S
O1477 Co1476 2.160 . S
C1478 O1479 1.278 . S
C1478 O1486 1.224 . S
O1479 C1478 1.278 . S
C1480 O1481 1.245 . S
C1480 O1492 1.232 . S
O1481 C1480 1.245 . S
O1482 Co1476 2.058 . S
O1482 C1508 1.269 . S
O1483 Co1475 2.074 . S
O1483 C1508 1.257 . S
H1484 C1509 0.930 . S
H1485 C1515 0.930 . S
O1486 Co1475 2.093 . S
O1486 C1478 1.224 . S
H1487 C1519 0.929 . S
H1488 C1521 0.930 . S
H1489 C1522 0.930 . S
H1490 C1520 0.929 . S
H1491 C1523 0.928 . S
O1492 Co1476 2.057 . S
O1492 C1480 1.232 . S
H1493 C1512 0.929 . S
H1494 C1513 0.929 . S
H1495 C1525 0.931 . S
H1496 C1517 0.929 . S
H1497 C1526 0.930 . S
H1498 C1518 0.931 . S
O1499 Co1475 2.097 . S
O1499 C1527 1.214 . S
H1500 C1528 0.929 . S
H1501 C1529 0.929 . S
H1502 C1530 0.930 . S
H1503 C1531 0.929 . S
H1504 C1533 0.930 . S
H1505 C1510 0.930 . S
H1506 C1514 0.930 . S
O1507 Co1476 2.037 . S
O1507 C1527 1.234 . S
C1508 O1482 1.269 . S
C1508 O1483 1.257 . S
C1509 H1484 0.930 . S
C1509 C1512 1.388 . S
C1509 C1514 1.418 . S
C1510 H1505 0.930 . S
C1510 C1513 1.404 . S
C1510 C1514 1.353 . S
N1511 Co1476 2.145 . S
N1511 C1512 1.397 . S
N1511 C1513 1.334 . S
C1512 H1493 0.929 . S
C1512 C1509 1.388 . S
C1512 N1511 1.397 . S
C1513 H1494 0.929 . S
C1513 C1510 1.404 . S
C1513 N1511 1.334 . S
C1514 H1506 0.930 . S
C1514 C1509 1.418 . S
C1514 C1510 1.353 . S
C1515 H1485 0.930 . S
C1515 N1516 1.330 . S
C1515 C1517 1.446 . S
N1516 Co1475 2.151 . S
N1516 C1515 1.330 . S
N1516 C1520 1.418 . S
C1517 H1496 0.929 . S
C1517 C1515 1.446 . S
C1517 C1518 1.332 . S
C1518 H1498 0.931 . S
C1518 C1517 1.332 . S
C1518 C1519 1.267 . S
C1519 H1487 0.929 . S
C1519 C1518 1.267 . S
C1519 C1520 1.251 . S
C1520 H1490 0.929 . S
C1520 N1516 1.418 . S
C1520 C1519 1.251 . S
C1521 H1488 0.930 . S
C1521 C1523 1.406 . S
C1521 C1526 1.261 . S
C1522 H1489 0.930 . S
C1522 N1524 1.325 . S
C1522 C1525 1.357 . S
C1523 H1491 0.928 . S
C1523 C1521 1.406 . S
C1523 N1524 1.261 . S
N1524 Co1475 2.214 . S
N1524 C1522 1.325 . S
N1524 C1523 1.261 . S
C1525 H1495 0.931 . S
C1525 C1522 1.357 . S
C1525 C1526 1.312 . S
C1526 H1497 0.930 . S
C1526 C1521 1.261 . S
C1526 C1525 1.312 . S
C1527 O1499 1.214 . S
C1527 O1507 1.234 . S
C1528 H1500 0.929 . S
C1528 C1531 1.391 . S
C1528 C1533 1.391 . S
C1529 H1501 0.929 . S
C1529 C1530 1.390 . S
C1529 N1532 1.391 . S
C1530 H1502 0.930 . S
C1530 C1529 1.390 . S
C1530 C1531 1.392 . S
C1531 H1503 0.929 . S
C1531 C1528 1.391 . S
C1531 C1530 1.392 . S
N1532 Co1476 2.257 . S
N1532 C1529 1.391 . S
N1532 C1533 1.388 . S
C1533 H1504 0.930 . S
C1533 C1528 1.391 . S
C1533 N1532 1.388 . S
Co1534 O1536 2.143 . S
Co1534 O1542 2.074 . S
Co1534 O1545 2.093 . S
Co1534 O1558 2.097 . S
Co1534 N1575 2.151 . S
Co1534 N1583 2.214 . S
Co1535 O1536 2.160 . S
Co1535 O1541 2.058 . S
Co1535 O1551 2.057 . S
Co1535 O1566 2.037 . S
Co1535 N1570 2.145 . S
Co1535 N1591 2.257 . S
O1536 Co1534 2.143 . S
O1536 Co1535 2.160 . S
C1537 O1538 1.278 . S
C1537 O1545 1.224 . S
O1538 C1537 1.278 . S
C1539 O1540 1.245 . S
C1539 O1551 1.232 . S
O1540 C1539 1.245 . S
O1541 Co1535 2.058 . S
O1541 C1567 1.269 . S
O1542 Co1534 2.074 . S
O1542 C1567 1.257 . S
H1543 C1568 0.930 . S
H1544 C1574 0.930 . S
O1545 Co1534 2.093 . S
O1545 C1537 1.224 . S
H1546 C1578 0.929 . S
H1547 C1580 0.930 . S
H1548 C1581 0.930 . S
H1549 C1579 0.929 . S
H1550 C1582 0.928 . S
O1551 Co1535 2.057 . S
O1551 C1539 1.232 . S
H1552 C1571 0.929 . S
H1553 C1572 0.929 . S
H1554 C1584 0.931 . S
H1555 C1576 0.929 . S
H1556 C1585 0.930 . S
H1557 C1577 0.931 . S
O1558 Co1534 2.097 . S
O1558 C1586 1.214 . S
H1559 C1587 0.929 . S
H1560 C1588 0.929 . S
H1561 C1589 0.930 . S
H1562 C1590 0.929 . S
H1563 C1592 0.930 . S
H1564 C1569 0.930 . S
H1565 C1573 0.930 . S
O1566 Co1535 2.037 . S
O1566 C1586 1.234 . S
C1567 O1541 1.269 . S
C1567 O1542 1.257 . S
C1568 H1543 0.930 . S
C1568 C1571 1.388 . S
C1568 C1573 1.418 . S
C1569 H1564 0.930 . S
C1569 C1572 1.404 . S
C1569 C1573 1.353 . S
N1570 Co1535 2.145 . S
N1570 C1571 1.397 . S
N1570 C1572 1.334 . S
C1571 H1552 0.929 . S
C1571 C1568 1.388 . S
C1571 N1570 1.397 . S
C1572 H1553 0.929 . S
C1572 C1569 1.404 . S
C1572 N1570 1.334 . S
C1573 H1565 0.930 . S
C1573 C1568 1.418 . S
C1573 C1569 1.353 . S
C1574 H1544 0.930 . S
C1574 N1575 1.330 . S
C1574 C1576 1.446 . S
N1575 Co1534 2.151 . S
N1575 C1574 1.330 . S
N1575 C1579 1.418 . S
C1576 H1555 0.929 . S
C1576 C1574 1.446 . S
C1576 C1577 1.332 . S
C1577 H1557 0.931 . S
C1577 C1576 1.332 . S
C1577 C1578 1.267 . S
C1578 H1546 0.929 . S
C1578 C1577 1.267 . S
C1578 C1579 1.251 . S
C1579 H1549 0.929 . S
C1579 N1575 1.418 . S
C1579 C1578 1.251 . S
C1580 H1547 0.930 . S
C1580 C1582 1.406 . S
C1580 C1585 1.261 . S
C1581 H1548 0.930 . S
C1581 N1583 1.325 . S
C1581 C1584 1.357 . S
C1582 H1550 0.928 . S
C1582 C1580 1.406 . S
C1582 N1583 1.261 . S
N1583 Co1534 2.214 . S
N1583 C1581 1.325 . S
N1583 C1582 1.261 . S
C1584 H1554 0.931 . S
C1584 C1581 1.357 . S
C1584 C1585 1.312 . S
C1585 H1556 0.930 . S
C1585 C1580 1.261 . S
C1585 C1584 1.312 . S
C1586 O1558 1.214 . S
C1586 O1566 1.234 . S
C1587 H1559 0.929 . S
C1587 C1590 1.391 . S
C1587 C1592 1.391 . S
C1588 H1560 0.929 . S
C1588 C1589 1.390 . S
C1588 N1591 1.391 . S
C1589 H1561 0.930 . S
C1589 C1588 1.390 . S
C1589 C1590 1.392 . S
C1590 H1562 0.929 . S
C1590 C1587 1.391 . S
C1590 C1589 1.392 . S
N1591 Co1535 2.257 . S
N1591 C1588 1.391 . S
N1591 C1592 1.388 . S
C1592 H1563 0.930 . S
C1592 C1587 1.391 . S
C1592 N1591 1.388 . S
Co1593 O1595 2.143 . S
Co1593 O1601 2.074 . S
Co1593 O1604 2.093 . S
Co1593 O1617 2.097 . S
Co1593 N1634 2.151 . S
Co1593 N1642 2.214 . S
Co1594 O1595 2.160 . S
Co1594 O1600 2.058 . S
Co1594 O1610 2.057 . S
Co1594 O1625 2.037 . S
Co1594 N1629 2.145 . S
Co1594 N1650 2.257 . S
O1595 Co1593 2.143 . S
O1595 Co1594 2.160 . S
C1596 O1597 1.278 . S
C1596 O1604 1.224 . S
O1597 C1596 1.278 . S
C1598 O1599 1.245 . S
C1598 O1610 1.232 . S
O1599 C1598 1.245 . S
O1600 Co1594 2.058 . S
O1600 C1626 1.269 . S
O1601 Co1593 2.074 . S
O1601 C1626 1.257 . S
H1602 C1627 0.930 . S
H1603 C1633 0.930 . S
O1604 Co1593 2.093 . S
O1604 C1596 1.224 . S
H1605 C1637 0.929 . S
H1606 C1639 0.930 . S
H1607 C1640 0.930 . S
H1608 C1638 0.929 . S
H1609 C1641 0.928 . S
O1610 Co1594 2.057 . S
O1610 C1598 1.232 . S
H1611 C1630 0.929 . S
H1612 C1631 0.929 . S
H1613 C1643 0.931 . S
H1614 C1635 0.929 . S
H1615 C1644 0.930 . S
H1616 C1636 0.931 . S
O1617 Co1593 2.097 . S
O1617 C1645 1.214 . S
H1618 C1646 0.929 . S
H1619 C1647 0.929 . S
H1620 C1648 0.930 . S
H1621 C1649 0.929 . S
H1622 C1651 0.930 . S
H1623 C1628 0.930 . S
H1624 C1632 0.930 . S
O1625 Co1594 2.037 . S
O1625 C1645 1.234 . S
C1626 O1600 1.269 . S
C1626 O1601 1.257 . S
C1627 H1602 0.930 . S
C1627 C1630 1.388 . S
C1627 C1632 1.418 . S
C1628 H1623 0.930 . S
C1628 C1631 1.404 . S
C1628 C1632 1.353 . S
N1629 Co1594 2.145 . S
N1629 C1630 1.397 . S
N1629 C1631 1.334 . S
C1630 H1611 0.929 . S
C1630 C1627 1.388 . S
C1630 N1629 1.397 . S
C1631 H1612 0.929 . S
C1631 C1628 1.404 . S
C1631 N1629 1.334 . S
C1632 H1624 0.930 . S
C1632 C1627 1.418 . S
C1632 C1628 1.353 . S
C1633 H1603 0.930 . S
C1633 N1634 1.330 . S
C1633 C1635 1.446 . S
N1634 Co1593 2.151 . S
N1634 C1633 1.330 . S
N1634 C1638 1.418 . S
C1635 H1614 0.929 . S
C1635 C1633 1.446 . S
C1635 C1636 1.332 . S
C1636 H1616 0.931 . S
C1636 C1635 1.332 . S
C1636 C1637 1.267 . S
C1637 H1605 0.929 . S
C1637 C1636 1.267 . S
C1637 C1638 1.251 . S
C1638 H1608 0.929 . S
C1638 N1634 1.418 . S
C1638 C1637 1.251 . S
C1639 H1606 0.930 . S
C1639 C1641 1.406 . S
C1639 C1644 1.261 . S
C1640 H1607 0.930 . S
C1640 N1642 1.325 . S
C1640 C1643 1.357 . S
C1641 H1609 0.928 . S
C1641 C1639 1.406 . S
C1641 N1642 1.261 . S
N1642 Co1593 2.214 . S
N1642 C1640 1.325 . S
N1642 C1641 1.261 . S
C1643 H1613 0.931 . S
C1643 C1640 1.357 . S
C1643 C1644 1.312 . S
C1644 H1615 0.930 . S
C1644 C1639 1.261 . S
C1644 C1643 1.312 . S
C1645 O1617 1.214 . S
C1645 O1625 1.234 . S
C1646 H1618 0.929 . S
C1646 C1649 1.391 . S
C1646 C1651 1.391 . S
C1647 H1619 0.929 . S
C1647 C1648 1.390 . S
C1647 N1650 1.391 . S
C1648 H1620 0.930 . S
C1648 C1647 1.390 . S
C1648 C1649 1.392 . S
C1649 H1621 0.929 . S
C1649 C1646 1.391 . S
C1649 C1648 1.392 . S
N1650 Co1594 2.257 . S
N1650 C1647 1.391 . S
N1650 C1651 1.388 . S
C1651 H1622 0.930 . S
C1651 C1646 1.391 . S
C1651 N1650 1.388 . S
Co1652 O1654 2.143 . S
Co1652 O1660 2.074 . S
Co1652 O1663 2.093 . S
Co1652 O1676 2.097 . S
Co1652 N1693 2.151 . S
Co1652 N1701 2.214 . S
Co1653 O1654 2.160 . S
Co1653 O1659 2.058 . S
Co1653 O1669 2.057 . S
Co1653 O1684 2.037 . S
Co1653 N1688 2.145 . S
Co1653 N1709 2.257 . S
O1654 Co1652 2.143 . S
O1654 Co1653 2.160 . S
C1655 O1656 1.278 . S
C1655 O1663 1.224 . S
O1656 C1655 1.278 . S
C1657 O1658 1.245 . S
C1657 O1669 1.232 . S
O1658 C1657 1.245 . S
O1659 Co1653 2.058 . S
O1659 C1685 1.269 . S
O1660 Co1652 2.074 . S
O1660 C1685 1.257 . S
H1661 C1686 0.930 . S
H1662 C1692 0.930 . S
O1663 Co1652 2.093 . S
O1663 C1655 1.224 . S
H1664 C1696 0.929 . S
H1665 C1698 0.930 . S
H1666 C1699 0.930 . S
H1667 C1697 0.929 . S
H1668 C1700 0.928 . S
O1669 Co1653 2.057 . S
O1669 C1657 1.232 . S
H1670 C1689 0.929 . S
H1671 C1690 0.929 . S
H1672 C1702 0.931 . S
H1673 C1694 0.929 . S
H1674 C1703 0.930 . S
H1675 C1695 0.931 . S
O1676 Co1652 2.097 . S
O1676 C1704 1.214 . S
H1677 C1705 0.929 . S
H1678 C1706 0.929 . S
H1679 C1707 0.930 . S
H1680 C1708 0.929 . S
H1681 C1710 0.930 . S
H1682 C1687 0.930 . S
H1683 C1691 0.930 . S
O1684 Co1653 2.037 . S
O1684 C1704 1.234 . S
C1685 O1659 1.269 . S
C1685 O1660 1.257 . S
C1686 H1661 0.930 . S
C1686 C1689 1.388 . S
C1686 C1691 1.418 . S
C1687 H1682 0.930 . S
C1687 C1690 1.404 . S
C1687 C1691 1.353 . S
N1688 Co1653 2.145 . S
N1688 C1689 1.397 . S
N1688 C1690 1.334 . S
C1689 H1670 0.929 . S
C1689 C1686 1.388 . S
C1689 N1688 1.397 . S
C1690 H1671 0.929 . S
C1690 C1687 1.404 . S
C1690 N1688 1.334 . S
C1691 H1683 0.930 . S
C1691 C1686 1.418 . S
C1691 C1687 1.353 . S
C1692 H1662 0.930 . S
C1692 N1693 1.330 . S
C1692 C1694 1.446 . S
N1693 Co1652 2.151 . S
N1693 C1692 1.330 . S
N1693 C1697 1.418 . S
C1694 H1673 0.929 . S
C1694 C1692 1.446 . S
C1694 C1695 1.332 . S
C1695 H1675 0.931 . S
C1695 C1694 1.332 . S
C1695 C1696 1.267 . S
C1696 H1664 0.929 . S
C1696 C1695 1.267 . S
C1696 C1697 1.251 . S
C1697 H1667 0.929 . S
C1697 N1693 1.418 . S
C1697 C1696 1.251 . S
C1698 H1665 0.930 . S
C1698 C1700 1.406 . S
C1698 C1703 1.261 . S
C1699 H1666 0.930 . S
C1699 N1701 1.325 . S
C1699 C1702 1.357 . S
C1700 H1668 0.928 . S
C1700 C1698 1.406 . S
C1700 N1701 1.261 . S
N1701 Co1652 2.214 . S
N1701 C1699 1.325 . S
N1701 C1700 1.261 . S
C1702 H1672 0.931 . S
C1702 C1699 1.357 . S
C1702 C1703 1.312 . S
C1703 H1674 0.930 . S
C1703 C1698 1.261 . S
C1703 C1702 1.312 . S
C1704 O1676 1.214 . S
C1704 O1684 1.234 . S
C1705 H1677 0.929 . S
C1705 C1708 1.391 . S
C1705 C1710 1.391 . S
C1706 H1678 0.929 . S
C1706 C1707 1.390 . S
C1706 N1709 1.391 . S
C1707 H1679 0.930 . S
C1707 C1706 1.390 . S
C1707 C1708 1.392 . S
C1708 H1680 0.929 . S
C1708 C1705 1.391 . S
C1708 C1707 1.392 . S
N1709 Co1653 2.257 . S
N1709 C1706 1.391 . S
N1709 C1710 1.388 . S
C1710 H1681 0.930 . S
C1710 C1705 1.391 . S
C1710 N1709 1.388 . S
Co1711 O1713 2.143 . S
Co1711 O1719 2.074 . S
Co1711 O1722 2.093 . S
Co1711 O1735 2.097 . S
Co1711 N1752 2.151 . S
Co1711 N1760 2.214 . S
Co1712 O1713 2.160 . S
Co1712 O1718 2.058 . S
Co1712 O1728 2.057 . S
Co1712 O1743 2.037 . S
Co1712 N1747 2.145 . S
Co1712 N1768 2.257 . S
O1713 Co1711 2.143 . S
O1713 Co1712 2.160 . S
C1714 O1715 1.278 . S
C1714 O1722 1.224 . S
O1715 C1714 1.278 . S
C1716 O1717 1.245 . S
C1716 O1728 1.232 . S
O1717 C1716 1.245 . S
O1718 Co1712 2.058 . S
O1718 C1744 1.269 . S
O1719 Co1711 2.074 . S
O1719 C1744 1.257 . S
H1720 C1745 0.930 . S
H1721 C1751 0.930 . S
O1722 Co1711 2.093 . S
O1722 C1714 1.224 . S
H1723 C1755 0.929 . S
H1724 C1757 0.930 . S
H1725 C1758 0.930 . S
H1726 C1756 0.929 . S
H1727 C1759 0.928 . S
O1728 Co1712 2.057 . S
O1728 C1716 1.232 . S
H1729 C1748 0.929 . S
H1730 C1749 0.929 . S
H1731 C1761 0.931 . S
H1732 C1753 0.929 . S
H1733 C1762 0.930 . S
H1734 C1754 0.931 . S
O1735 Co1711 2.097 . S
O1735 C1763 1.214 . S
H1736 C1764 0.929 . S
H1737 C1765 0.929 . S
H1738 C1766 0.930 . S
H1739 C1767 0.929 . S
H1740 C1769 0.930 . S
H1741 C1746 0.930 . S
H1742 C1750 0.930 . S
O1743 Co1712 2.037 . S
O1743 C1763 1.234 . S
C1744 O1718 1.269 . S
C1744 O1719 1.257 . S
C1745 H1720 0.930 . S
C1745 C1748 1.388 . S
C1745 C1750 1.418 . S
C1746 H1741 0.930 . S
C1746 C1749 1.404 . S
C1746 C1750 1.353 . S
N1747 Co1712 2.145 . S
N1747 C1748 1.397 . S
N1747 C1749 1.334 . S
C1748 H1729 0.929 . S
C1748 C1745 1.388 . S
C1748 N1747 1.397 . S
C1749 H1730 0.929 . S
C1749 C1746 1.404 . S
C1749 N1747 1.334 . S
C1750 H1742 0.930 . S
C1750 C1745 1.418 . S
C1750 C1746 1.353 . S
C1751 H1721 0.930 . S
C1751 N1752 1.330 . S
C1751 C1753 1.446 . S
N1752 Co1711 2.151 . S
N1752 C1751 1.330 . S
N1752 C1756 1.418 . S
C1753 H1732 0.929 . S
C1753 C1751 1.446 . S
C1753 C1754 1.332 . S
C1754 H1734 0.931 . S
C1754 C1753 1.332 . S
C1754 C1755 1.267 . S
C1755 H1723 0.929 . S
C1755 C1754 1.267 . S
C1755 C1756 1.251 . S
C1756 H1726 0.929 . S
C1756 N1752 1.418 . S
C1756 C1755 1.251 . S
C1757 H1724 0.930 . S
C1757 C1759 1.406 . S
C1757 C1762 1.261 . S
C1758 H1725 0.930 . S
C1758 N1760 1.325 . S
C1758 C1761 1.357 . S
C1759 H1727 0.928 . S
C1759 C1757 1.406 . S
C1759 N1760 1.261 . S
N1760 Co1711 2.214 . S
N1760 C1758 1.325 . S
N1760 C1759 1.261 . S
C1761 H1731 0.931 . S
C1761 C1758 1.357 . S
C1761 C1762 1.312 . S
C1762 H1733 0.930 . S
C1762 C1757 1.261 . S
C1762 C1761 1.312 . S
C1763 O1735 1.214 . S
C1763 O1743 1.234 . S
C1764 H1736 0.929 . S
C1764 C1767 1.391 . S
C1764 C1769 1.391 . S
C1765 H1737 0.929 . S
C1765 C1766 1.390 . S
C1765 N1768 1.391 . S
C1766 H1738 0.930 . S
C1766 C1765 1.390 . S
C1766 C1767 1.392 . S
C1767 H1739 0.929 . S
C1767 C1764 1.391 . S
C1767 C1766 1.392 . S
N1768 Co1712 2.257 . S
N1768 C1765 1.391 . S
N1768 C1769 1.388 . S
C1769 H1740 0.930 . S
C1769 C1764 1.391 . S
C1769 N1768 1.388 . S
Co1770 O1772 2.143 . S
Co1770 O1778 2.074 . S
Co1770 O1781 2.093 . S
Co1770 O1794 2.097 . S
Co1770 N1811 2.151 . S
Co1770 N1819 2.214 . S
Co1771 O1772 2.160 . S
Co1771 O1777 2.058 . S
Co1771 O1787 2.057 . S
Co1771 O1802 2.037 . S
Co1771 N1806 2.145 . S
Co1771 N1827 2.257 . S
O1772 Co1770 2.143 . S
O1772 Co1771 2.160 . S
C1773 O1774 1.278 . S
C1773 O1781 1.224 . S
O1774 C1773 1.278 . S
C1775 O1776 1.245 . S
C1775 O1787 1.232 . S
O1776 C1775 1.245 . S
O1777 Co1771 2.058 . S
O1777 C1803 1.269 . S
O1778 Co1770 2.074 . S
O1778 C1803 1.257 . S
H1779 C1804 0.930 . S
H1780 C1810 0.930 . S
O1781 Co1770 2.093 . S
O1781 C1773 1.224 . S
H1782 C1814 0.929 . S
H1783 C1816 0.930 . S
H1784 C1817 0.930 . S
H1785 C1815 0.929 . S
H1786 C1818 0.928 . S
O1787 Co1771 2.057 . S
O1787 C1775 1.232 . S
H1788 C1807 0.929 . S
H1789 C1808 0.929 . S
H1790 C1820 0.931 . S
H1791 C1812 0.929 . S
H1792 C1821 0.930 . S
H1793 C1813 0.931 . S
O1794 Co1770 2.097 . S
O1794 C1822 1.214 . S
H1795 C1823 0.929 . S
H1796 C1824 0.929 . S
H1797 C1825 0.930 . S
H1798 C1826 0.929 . S
H1799 C1828 0.930 . S
H1800 C1805 0.930 . S
H1801 C1809 0.930 . S
O1802 Co1771 2.037 . S
O1802 C1822 1.234 . S
C1803 O1777 1.269 . S
C1803 O1778 1.257 . S
C1804 H1779 0.930 . S
C1804 C1807 1.388 . S
C1804 C1809 1.418 . S
C1805 H1800 0.930 . S
C1805 C1808 1.404 . S
C1805 C1809 1.353 . S
N1806 Co1771 2.145 . S
N1806 C1807 1.397 . S
N1806 C1808 1.334 . S
C1807 H1788 0.929 . S
C1807 C1804 1.388 . S
C1807 N1806 1.397 . S
C1808 H1789 0.929 . S
C1808 C1805 1.404 . S
C1808 N1806 1.334 . S
C1809 H1801 0.930 . S
C1809 C1804 1.418 . S
C1809 C1805 1.353 . S
C1810 H1780 0.930 . S
C1810 N1811 1.330 . S
C1810 C1812 1.446 . S
N1811 Co1770 2.151 . S
N1811 C1810 1.330 . S
N1811 C1815 1.418 . S
C1812 H1791 0.929 . S
C1812 C1810 1.446 . S
C1812 C1813 1.332 . S
C1813 H1793 0.931 . S
C1813 C1812 1.332 . S
C1813 C1814 1.267 . S
C1814 H1782 0.929 . S
C1814 C1813 1.267 . S
C1814 C1815 1.251 . S
C1815 H1785 0.929 . S
C1815 N1811 1.418 . S
C1815 C1814 1.251 . S
C1816 H1783 0.930 . S
C1816 C1818 1.406 . S
C1816 C1821 1.261 . S
C1817 H1784 0.930 . S
C1817 N1819 1.325 . S
C1817 C1820 1.357 . S
C1818 H1786 0.928 . S
C1818 C1816 1.406 . S
C1818 N1819 1.261 . S
N1819 Co1770 2.214 . S
N1819 C1817 1.325 . S
N1819 C1818 1.261 . S
C1820 H1790 0.931 . S
C1820 C1817 1.357 . S
C1820 C1821 1.312 . S
C1821 H1792 0.930 . S
C1821 C1816 1.261 . S
C1821 C1820 1.312 . S
C1822 O1794 1.214 . S
C1822 O1802 1.234 . S
C1823 H1795 0.929 . S
C1823 C1826 1.391 . S
C1823 C1828 1.391 . S
C1824 H1796 0.929 . S
C1824 C1825 1.390 . S
C1824 N1827 1.391 . S
C1825 H1797 0.930 . S
C1825 C1824 1.390 . S
C1825 C1826 1.392 . S
C1826 H1798 0.929 . S
C1826 C1823 1.391 . S
C1826 C1825 1.392 . S
N1827 Co1771 2.257 . S
N1827 C1824 1.391 . S
N1827 C1828 1.388 . S
C1828 H1799 0.930 . S
C1828 C1823 1.391 . S
C1828 N1827 1.388 . S
Co1829 O1831 2.143 . S
Co1829 O1837 2.074 . S
Co1829 O1840 2.093 . S
Co1829 O1853 2.097 . S
Co1829 N1870 2.151 . S
Co1829 N1878 2.214 . S
Co1830 O1831 2.160 . S
Co1830 O1836 2.058 . S
Co1830 O1846 2.057 . S
Co1830 O1861 2.037 . S
Co1830 N1865 2.145 . S
Co1830 N1886 2.257 . S
O1831 Co1829 2.143 . S
O1831 Co1830 2.160 . S
C1832 O1833 1.278 . S
C1832 O1840 1.224 . S
O1833 C1832 1.278 . S
C1834 O1835 1.245 . S
C1834 O1846 1.232 . S
O1835 C1834 1.245 . S
O1836 Co1830 2.058 . S
O1836 C1862 1.269 . S
O1837 Co1829 2.074 . S
O1837 C1862 1.257 . S
H1838 C1863 0.930 . S
H1839 C1869 0.930 . S
O1840 Co1829 2.093 . S
O1840 C1832 1.224 . S
H1841 C1873 0.929 . S
H1842 C1875 0.930 . S
H1843 C1876 0.930 . S
H1844 C1874 0.929 . S
H1845 C1877 0.928 . S
O1846 Co1830 2.057 . S
O1846 C1834 1.232 . S
H1847 C1866 0.929 . S
H1848 C1867 0.929 . S
H1849 C1879 0.931 . S
H1850 C1871 0.929 . S
H1851 C1880 0.930 . S
H1852 C1872 0.931 . S
O1853 Co1829 2.097 . S
O1853 C1881 1.214 . S
H1854 C1882 0.929 . S
H1855 C1883 0.929 . S
H1856 C1884 0.930 . S
H1857 C1885 0.929 . S
H1858 C1887 0.930 . S
H1859 C1864 0.930 . S
H1860 C1868 0.930 . S
O1861 Co1830 2.037 . S
O1861 C1881 1.234 . S
C1862 O1836 1.269 . S
C1862 O1837 1.257 . S
C1863 H1838 0.930 . S
C1863 C1866 1.388 . S
C1863 C1868 1.418 . S
C1864 H1859 0.930 . S
C1864 C1867 1.404 . S
C1864 C1868 1.353 . S
N1865 Co1830 2.145 . S
N1865 C1866 1.397 . S
N1865 C1867 1.334 . S
C1866 H1847 0.929 . S
C1866 C1863 1.388 . S
C1866 N1865 1.397 . S
C1867 H1848 0.929 . S
C1867 C1864 1.404 . S
C1867 N1865 1.334 . S
C1868 H1860 0.930 . S
C1868 C1863 1.418 . S
C1868 C1864 1.353 . S
C1869 H1839 0.930 . S
C1869 N1870 1.330 . S
C1869 C1871 1.446 . S
N1870 Co1829 2.151 . S
N1870 C1869 1.330 . S
N1870 C1874 1.418 . S
C1871 H1850 0.929 . S
C1871 C1869 1.446 . S
C1871 C1872 1.332 . S
C1872 H1852 0.931 . S
C1872 C1871 1.332 . S
C1872 C1873 1.267 . S
C1873 H1841 0.929 . S
C1873 C1872 1.267 . S
C1873 C1874 1.251 . S
C1874 H1844 0.929 . S
C1874 N1870 1.418 . S
C1874 C1873 1.251 . S
C1875 H1842 0.930 . S
C1875 C1877 1.406 . S
C1875 C1880 1.261 . S
C1876 H1843 0.930 . S
C1876 N1878 1.325 . S
C1876 C1879 1.357 . S
C1877 H1845 0.928 . S
C1877 C1875 1.406 . S
C1877 N1878 1.261 . S
N1878 Co1829 2.214 . S
N1878 C1876 1.325 . S
N1878 C1877 1.261 . S
C1879 H1849 0.931 . S
C1879 C1876 1.357 . S
C1879 C1880 1.312 . S
C1880 H1851 0.930 . S
C1880 C1875 1.261 . S
C1880 C1879 1.312 . S
C1881 O1853 1.214 . S
C1881 O1861 1.234 . S
C1882 H1854 0.929 . S
C1882 C1885 1.391 . S
C1882 C1887 1.391 . S
C1883 H1855 0.929 . S
C1883 C1884 1.390 . S
C1883 N1886 1.391 . S
C1884 H1856 0.930 . S
C1884 C1883 1.390 . S
C1884 C1885 1.392 . S
C1885 H1857 0.929 . S
C1885 C1882 1.391 . S
C1885 C1884 1.392 . S
N1886 Co1830 2.257 . S
N1886 C1883 1.391 . S
N1886 C1887 1.388 . S
C1887 H1858 0.930 . S
C1887 C1882 1.391 . S
C1887 N1886 1.388 . S
C1888 C1889 1.387 . S
C1888 H1892 0.950 . S
C1888 C1897 1.390 . S
C1889 C1888 1.387 . S
C1889 C1891 1.387 . S
H1890 C1897 0.950 . S
C1891 C1889 1.387 . S
C1891 C1893 1.390 . S
C1891 H1895 0.950 . S
H1892 C1888 0.950 . S
C1893 C1891 1.390 . S
C1893 C1894 1.387 . S
C1893 H1896 0.950 . S
C1894 C1893 1.387 . S
C1894 C1897 1.387 . S
H1895 C1891 0.950 . S
H1896 C1893 0.950 . S
C1897 C1888 1.390 . S
C1897 H1890 0.950 . S
C1897 C1894 1.387 . S
C1898 C1899 1.387 . S
C1898 H1902 0.950 . S
C1898 C1907 1.390 . S
C1899 C1898 1.387 . S
C1899 C1901 1.387 . S
H1900 C1907 0.950 . S
C1901 C1899 1.387 . S
C1901 C1903 1.390 . S
C1901 H1905 0.950 . S
H1902 C1898 0.950 . S
C1903 C1901 1.390 . S
C1903 C1904 1.387 . S
C1903 H1906 0.950 . S
C1904 C1903 1.387 . S
C1904 C1907 1.387 . S
H1905 C1901 0.950 . S
H1906 C1903 0.950 . S
C1907 C1898 1.390 . S
C1907 H1900 0.950 . S
C1907 C1904 1.387 . S
C1908 C1909 1.387 . S
C1908 H1912 0.950 . S
C1908 C1917 1.390 . S
C1909 C1908 1.387 . S
C1909 C1911 1.387 . S
H1910 C1917 0.950 . S
C1911 C1909 1.387 . S
C1911 C1913 1.390 . S
C1911 H1915 0.950 . S
H1912 C1908 0.950 . S
C1913 C1911 1.390 . S
C1913 C1914 1.387 . S
C1913 H1916 0.950 . S
C1914 C1913 1.387 . S
C1914 C1917 1.387 . S
H1915 C1911 0.950 . S
H1916 C1913 0.950 . S
C1917 C1908 1.390 . S
C1917 H1910 0.950 . S
C1917 C1914 1.387 . S
C1918 C1919 1.387 . S
C1918 H1922 0.950 . S
C1918 C1927 1.390 . S
C1919 C1918 1.387 . S
C1919 C1921 1.387 . S
H1920 C1927 0.950 . S
C1921 C1919 1.387 . S
C1921 C1923 1.390 . S
C1921 H1925 0.950 . S
H1922 C1918 0.950 . S
C1923 C1921 1.390 . S
C1923 C1924 1.387 . S
C1923 H1926 0.950 . S
C1924 C1923 1.387 . S
C1924 C1927 1.387 . S
H1925 C1921 0.950 . S
H1926 C1923 0.950 . S
C1927 C1918 1.390 . S
C1927 H1920 0.950 . S
C1927 C1924 1.387 . S
C1928 C1929 1.387 . S
C1928 H1932 0.950 . S
C1928 C1937 1.390 . S
C1929 C1928 1.387 . S
C1929 C1931 1.387 . S
H1930 C1937 0.950 . S
C1931 C1929 1.387 . S
C1931 C1933 1.390 . S
C1931 H1935 0.950 . S
H1932 C1928 0.950 . S
C1933 C1931 1.390 . S
C1933 C1934 1.387 . S
C1933 H1936 0.950 . S
C1934 C1933 1.387 . S
C1934 C1937 1.387 . S
H1935 C1931 0.950 . S
H1936 C1933 0.950 . S
C1937 C1928 1.390 . S
C1937 H1930 0.950 . S
C1937 C1934 1.387 . S
C1938 C1939 1.387 . S
C1938 H1942 0.950 . S
C1938 C1947 1.390 . S
C1939 C1938 1.387 . S
C1939 C1941 1.387 . S
H1940 C1947 0.950 . S
C1941 C1939 1.387 . S
C1941 C1943 1.390 . S
C1941 H1945 0.950 . S
H1942 C1938 0.950 . S
C1943 C1941 1.390 . S
C1943 C1944 1.387 . S
C1943 H1946 0.950 . S
C1944 C1943 1.387 . S
C1944 C1947 1.387 . S
H1945 C1941 0.950 . S
H1946 C1943 0.950 . S
C1947 C1938 1.390 . S
C1947 H1940 0.950 . S
C1947 C1944 1.387 . S
C1948 C1949 1.387 . S
C1948 H1952 0.950 . S
C1948 C1957 1.390 . S
C1949 C1948 1.387 . S
C1949 C1951 1.387 . S
H1950 C1957 0.950 . S
C1951 C1949 1.387 . S
C1951 C1953 1.390 . S
C1951 H1955 0.950 . S
H1952 C1948 0.950 . S
C1953 C1951 1.390 . S
C1953 C1954 1.387 . S
C1953 H1956 0.950 . S
C1954 C1953 1.387 . S
C1954 C1957 1.387 . S
H1955 C1951 0.950 . S
H1956 C1953 0.950 . S
C1957 C1948 1.390 . S
C1957 H1950 0.950 . S
C1957 C1954 1.387 . S
C1958 C1959 1.387 . S
C1958 H1962 0.950 . S
C1958 C1967 1.390 . S
C1959 C1958 1.387 . S
C1959 C1961 1.387 . S
H1960 C1967 0.950 . S
C1961 C1959 1.387 . S
C1961 C1963 1.390 . S
C1961 H1965 0.950 . S
H1962 C1958 0.950 . S
C1963 C1961 1.390 . S
C1963 C1964 1.387 . S
C1963 H1966 0.950 . S
C1964 C1963 1.387 . S
C1964 C1967 1.387 . S
H1965 C1961 0.950 . S
H1966 C1963 0.950 . S
C1967 C1958 1.390 . S
C1967 H1960 0.950 . S
C1967 C1964 1.387 . S
C1968 C1969 1.387 . S
C1968 H1972 0.950 . S
C1968 C1977 1.390 . S
C1969 C1968 1.387 . S
C1969 C1971 1.387 . S
H1970 C1977 0.950 . S
C1971 C1969 1.387 . S
C1971 C1973 1.390 . S
C1971 H1975 0.950 . S
H1972 C1968 0.950 . S
C1973 C1971 1.390 . S
C1973 C1974 1.387 . S
C1973 H1976 0.950 . S
C1974 C1973 1.387 . S
C1974 C1977 1.387 . S
H1975 C1971 0.950 . S
H1976 C1973 0.950 . S
C1977 C1968 1.390 . S
C1977 H1970 0.950 . S
C1977 C1974 1.387 . S
C1978 C1979 1.387 . S
C1978 H1982 0.950 . S
C1978 C1987 1.390 . S
C1979 C1978 1.387 . S
C1979 C1981 1.387 . S
H1980 C1987 0.950 . S
C1981 C1979 1.387 . S
C1981 C1983 1.390 . S
C1981 H1985 0.950 . S
H1982 C1978 0.950 . S
C1983 C1981 1.390 . S
C1983 C1984 1.387 . S
C1983 H1986 0.950 . S
C1984 C1983 1.387 . S
C1984 C1987 1.387 . S
H1985 C1981 0.950 . S
H1986 C1983 0.950 . S
C1987 C1978 1.390 . S
C1987 H1980 0.950 . S
C1987 C1984 1.387 . S
C1988 C1989 1.387 . S
C1988 H1992 0.950 . S
C1988 C1997 1.390 . S
C1989 C1988 1.387 . S
C1989 C1991 1.387 . S
H1990 C1997 0.950 . S
C1991 C1989 1.387 . S
C1991 C1993 1.390 . S
C1991 H1995 0.950 . S
H1992 C1988 0.950 . S
C1993 C1991 1.390 . S
C1993 C1994 1.387 . S
C1993 H1996 0.950 . S
C1994 C1993 1.387 . S
C1994 C1997 1.387 . S
H1995 C1991 0.950 . S
H1996 C1993 0.950 . S
C1997 C1988 1.390 . S
C1997 H1990 0.950 . S
C1997 C1994 1.387 . S
C1998 C1999 1.387 . S
C1998 H2002 0.950 . S
C1998 C2007 1.390 . S
C1999 C1998 1.387 . S
C1999 C2001 1.387 . S
H2000 C2007 0.950 . S
C2001 C1999 1.387 . S
C2001 C2003 1.390 . S
C2001 H2005 0.950 . S
H2002 C1998 0.950 . S
C2003 C2001 1.390 . S
C2003 C2004 1.387 . S
C2003 H2006 0.950 . S
C2004 C2003 1.387 . S
C2004 C2007 1.387 . S
H2005 C2001 0.950 . S
H2006 C2003 0.950 . S
C2007 C1998 1.390 . S
C2007 H2000 0.950 . S
C2007 C2004 1.387 . S
C2008 C2009 1.387 . S
C2008 H2012 0.950 . S
C2008 C2017 1.390 . S
C2009 C2008 1.387 . S
C2009 C2011 1.387 . S
H2010 C2017 0.950 . S
C2011 C2009 1.387 . S
C2011 C2013 1.390 . S
C2011 H2015 0.950 . S
H2012 C2008 0.950 . S
C2013 C2011 1.390 . S
C2013 C2014 1.387 . S
C2013 H2016 0.950 . S
C2014 C2013 1.387 . S
C2014 C2017 1.387 . S
H2015 C2011 0.950 . S
H2016 C2013 0.950 . S
C2017 C2008 1.390 . S
C2017 H2010 0.950 . S
C2017 C2014 1.387 . S
C2018 C2019 1.387 . S
C2018 H2022 0.950 . S
C2018 C2027 1.390 . S
C2019 C2018 1.387 . S
C2019 C2021 1.387 . S
H2020 C2027 0.950 . S
C2021 C2019 1.387 . S
C2021 C2023 1.390 . S
C2021 H2025 0.950 . S
H2022 C2018 0.950 . S
C2023 C2021 1.390 . S
C2023 C2024 1.387 . S
C2023 H2026 0.950 . S
C2024 C2023 1.387 . S
C2024 C2027 1.387 . S
H2025 C2021 0.950 . S
H2026 C2023 0.950 . S
C2027 C2018 1.390 . S
C2027 H2020 0.950 . S
C2027 C2024 1.387 . S
C2028 C2029 1.387 . S
C2028 H2032 0.950 . S
C2028 C2037 1.390 . S
C2029 C2028 1.387 . S
C2029 C2031 1.387 . S
H2030 C2037 0.950 . S
C2031 C2029 1.387 . S
C2031 C2033 1.390 . S
C2031 H2035 0.950 . S
H2032 C2028 0.950 . S
C2033 C2031 1.390 . S
C2033 C2034 1.387 . S
C2033 H2036 0.950 . S
C2034 C2033 1.387 . S
C2034 C2037 1.387 . S
H2035 C2031 0.950 . S
H2036 C2033 0.950 . S
C2037 C2028 1.390 . S
C2037 H2030 0.950 . S
C2037 C2034 1.387 . S
C2038 C2039 1.387 . S
C2038 H2042 0.950 . S
C2038 C2047 1.390 . S
C2039 C2038 1.387 . S
C2039 C2041 1.387 . S
H2040 C2047 0.950 . S
C2041 C2039 1.387 . S
C2041 C2043 1.390 . S
C2041 H2045 0.950 . S
H2042 C2038 0.950 . S
C2043 C2041 1.390 . S
C2043 C2044 1.387 . S
C2043 H2046 0.950 . S
C2044 C2043 1.387 . S
C2044 C2047 1.387 . S
H2045 C2041 0.950 . S
H2046 C2043 0.950 . S
C2047 C2038 1.390 . S
C2047 H2040 0.950 . S
C2047 C2044 1.387 . S
C2048 C2049 1.387 . S
C2048 H2052 0.950 . S
C2048 C2057 1.390 1_655 S
C2049 C2048 1.387 . S
C2049 C2051 1.387 . S
H2050 C2057 0.950 . S
C2051 C2049 1.387 . S
C2051 C2053 1.390 1_655 S
C2051 H2055 0.950 . S
H2052 C2048 0.950 . S
C2053 C2051 1.390 1_455 S
C2053 C2054 1.387 . S
C2053 H2056 0.950 . S
C2054 C2053 1.387 . S
C2054 C2057 1.387 . S
H2055 C2051 0.950 . S
H2056 C2053 0.950 . S
C2057 C2048 1.390 1_455 S
C2057 H2050 0.950 . S
C2057 C2054 1.387 . S
C2058 C2059 1.387 . S
C2058 H2062 0.950 . S
C2058 C2067 1.390 1_545 S
C2059 C2058 1.387 . S
C2059 C2061 1.387 . S
H2060 C2067 0.950 . S
C2061 C2059 1.387 . S
C2061 C2063 1.390 1_545 S
C2061 H2065 0.950 . S
H2062 C2058 0.950 . S
C2063 C2061 1.390 1_565 S
C2063 C2064 1.387 . S
C2063 H2066 0.950 . S
C2064 C2063 1.387 . S
C2064 C2067 1.387 . S
H2065 C2061 0.950 . S
H2066 C2063 0.950 . S
C2067 C2058 1.390 1_565 S
C2067 H2060 0.950 . S
C2067 C2064 1.387 . S
C2068 C2069 1.387 . S
C2068 H2072 0.950 . S
C2068 C2077 1.390 1_455 S
C2069 C2068 1.387 . S
C2069 C2071 1.387 . S
H2070 C2077 0.950 . S
C2071 C2069 1.387 . S
C2071 C2073 1.390 1_455 S
C2071 H2075 0.950 . S
H2072 C2068 0.950 . S
C2073 C2071 1.390 1_655 S
C2073 C2074 1.387 . S
C2073 H2076 0.950 . S
C2074 C2073 1.387 . S
C2074 C2077 1.387 . S
H2075 C2071 0.950 . S
H2076 C2073 0.950 . S
C2077 C2068 1.390 1_655 S
C2077 H2070 0.950 . S
C2077 C2074 1.387 . S
C2078 C2079 1.387 . S
C2078 H2082 0.950 . S
C2078 C2087 1.390 1_565 S
C2079 C2078 1.387 . S
C2079 C2081 1.387 . S
H2080 C2087 0.950 . S
C2081 C2079 1.387 . S
C2081 C2083 1.390 1_565 S
C2081 H2085 0.950 . S
H2082 C2078 0.950 . S
C2083 C2081 1.390 1_545 S
C2083 C2084 1.387 . S
C2083 H2086 0.950 . S
C2084 C2083 1.387 . S
C2084 C2087 1.387 . S
H2085 C2081 0.950 . S
H2086 C2083 0.950 . S
C2087 C2078 1.390 1_545 S
C2087 H2080 0.950 . S
C2087 C2084 1.387 . S
C2088 C2089 1.387 . S
C2088 H2092 0.950 . S
C2088 C2097 1.390 1_455 S
C2089 C2088 1.387 . S
C2089 C2091 1.387 . S
H2090 C2097 0.950 . S
C2091 C2089 1.387 . S
C2091 C2093 1.390 1_455 S
C2091 H2095 0.950 . S
H2092 C2088 0.950 . S
C2093 C2091 1.390 1_655 S
C2093 C2094 1.387 . S
C2093 H2096 0.950 . S
C2094 C2093 1.387 . S
C2094 C2097 1.387 . S
H2095 C2091 0.950 . S
H2096 C2093 0.950 . S
C2097 C2088 1.390 1_655 S
C2097 H2090 0.950 . S
C2097 C2094 1.387 . S
C2098 C2099 1.387 . S
C2098 H2102 0.950 . S
C2098 C2107 1.390 1_565 S
C2099 C2098 1.387 . S
C2099 C2101 1.387 . S
H2100 C2107 0.950 . S
C2101 C2099 1.387 . S
C2101 C2103 1.390 1_565 S
C2101 H2105 0.950 . S
H2102 C2098 0.950 . S
C2103 C2101 1.390 1_545 S
C2103 C2104 1.387 . S
C2103 H2106 0.950 . S
C2104 C2103 1.387 . S
C2104 C2107 1.387 . S
H2105 C2101 0.950 . S
H2106 C2103 0.950 . S
C2107 C2098 1.390 1_545 S
C2107 H2100 0.950 . S
C2107 C2104 1.387 . S
C2108 C2109 1.387 . S
C2108 H2112 0.950 . S
C2108 C2117 1.390 1_455 S
C2109 C2108 1.387 . S
C2109 C2111 1.387 . S
H2110 C2117 0.950 . S
C2111 C2109 1.387 . S
C2111 C2113 1.390 1_455 S
C2111 H2115 0.950 . S
H2112 C2108 0.950 . S
C2113 C2111 1.390 1_655 S
C2113 C2114 1.387 . S
C2113 H2116 0.950 . S
C2114 C2113 1.387 . S
C2114 C2117 1.387 . S
H2115 C2111 0.950 . S
H2116 C2113 0.950 . S
C2117 C2108 1.390 1_655 S
C2117 H2110 0.950 . S
C2117 C2114 1.387 . S
C2118 C2119 1.387 . S
C2118 H2122 0.950 . S
C2118 C2127 1.390 1_545 S
C2119 C2118 1.387 . S
C2119 C2121 1.387 . S
H2120 C2127 0.950 . S
C2121 C2119 1.387 . S
C2121 C2123 1.390 1_545 S
C2121 H2125 0.950 . S
H2122 C2118 0.950 . S
C2123 C2121 1.390 1_565 S
C2123 C2124 1.387 . S
C2123 H2126 0.950 . S
C2124 C2123 1.387 . S
C2124 C2127 1.387 . S
H2125 C2121 0.950 . S
H2126 C2123 0.950 . S
C2127 C2118 1.390 1_565 S
C2127 H2120 0.950 . S
C2127 C2124 1.387 . S
C2128 C2129 1.387 . S
C2128 H2132 0.950 . S
C2128 C2137 1.390 . S
C2129 C2128 1.387 . S
C2129 C2131 1.387 . S
H2130 C2137 0.950 . S
C2131 C2129 1.387 . S
C2131 C2133 1.390 . S
C2131 H2135 0.950 . S
H2132 C2128 0.950 . S
C2133 C2131 1.390 . S
C2133 C2134 1.387 . S
C2133 H2136 0.950 . S
C2134 C2133 1.387 . S
C2134 C2137 1.387 . S
H2135 C2131 0.950 . S
H2136 C2133 0.950 . S
C2137 C2128 1.390 . S
C2137 H2130 0.950 . S
C2137 C2134 1.387 . S
C2138 C2139 1.387 . S
C2138 H2142 0.950 . S
C2138 C2147 1.390 . S
C2139 C2138 1.387 . S
C2139 C2141 1.387 . S
H2140 C2147 0.950 . S
C2141 C2139 1.387 . S
C2141 C2143 1.390 . S
C2141 H2145 0.950 . S
H2142 C2138 0.950 . S
C2143 C2141 1.390 . S
C2143 C2144 1.387 . S
C2143 H2146 0.950 . S
C2144 C2143 1.387 . S
C2144 C2147 1.387 . S
H2145 C2141 0.950 . S
H2146 C2143 0.950 . S
C2147 C2138 1.390 . S
C2147 H2140 0.950 . S
C2147 C2144 1.387 . S
C2148 C2149 1.387 . S
C2148 H2152 0.950 . S
C2148 C2157 1.390 . S
C2149 C2148 1.387 . S
C2149 C2151 1.387 . S
H2150 C2157 0.950 . S
C2151 C2149 1.387 . S
C2151 C2153 1.390 . S
C2151 H2155 0.950 . S
H2152 C2148 0.950 . S
C2153 C2151 1.390 . S
C2153 C2154 1.387 . S
C2153 H2156 0.950 . S
C2154 C2153 1.387 . S
C2154 C2157 1.387 . S
H2155 C2151 0.950 . S
H2156 C2153 0.950 . S
C2157 C2148 1.390 . S
C2157 H2150 0.950 . S
C2157 C2154 1.387 . S
C2158 C2159 1.387 . S
C2158 H2162 0.950 . S
C2158 C2167 1.390 . S
C2159 C2158 1.387 . S
C2159 C2161 1.387 . S
H2160 C2167 0.950 . S
C2161 C2159 1.387 . S
C2161 C2163 1.390 . S
C2161 H2165 0.950 . S
H2162 C2158 0.950 . S
C2163 C2161 1.390 . S
C2163 C2164 1.387 . S
C2163 H2166 0.950 . S
C2164 C2163 1.387 . S
C2164 C2167 1.387 . S
H2165 C2161 0.950 . S
H2166 C2163 0.950 . S
C2167 C2158 1.390 . S
C2167 H2160 0.950 . S
C2167 C2164 1.387 . S
C2168 C2169 1.387 . S
C2168 H2172 0.950 . S
C2168 C2177 1.390 . S
C2169 C2168 1.387 . S
C2169 C2171 1.387 . S
H2170 C2177 0.950 . S
C2171 C2169 1.387 . S
C2171 C2173 1.390 . S
C2171 H2175 0.950 . S
H2172 C2168 0.950 . S
C2173 C2171 1.390 . S
C2173 C2174 1.387 . S
C2173 H2176 0.950 . S
C2174 C2173 1.387 . S
C2174 C2177 1.387 . S
H2175 C2171 0.950 . S
H2176 C2173 0.950 . S
C2177 C2168 1.390 . S
C2177 H2170 0.950 . S
C2177 C2174 1.387 . S
C2178 C2179 1.387 . S
C2178 H2182 0.950 . S
C2178 C2187 1.390 . S
C2179 C2178 1.387 . S
C2179 C2181 1.387 . S
H2180 C2187 0.950 . S
C2181 C2179 1.387 . S
C2181 C2183 1.390 . S
C2181 H2185 0.950 . S
H2182 C2178 0.950 . S
C2183 C2181 1.390 . S
C2183 C2184 1.387 . S
C2183 H2186 0.950 . S
C2184 C2183 1.387 . S
C2184 C2187 1.387 . S
H2185 C2181 0.950 . S
H2186 C2183 0.950 . S
C2187 C2178 1.390 . S
C2187 H2180 0.950 . S
C2187 C2184 1.387 . S
C2188 C2189 1.387 . S
C2188 H2192 0.950 . S
C2188 C2197 1.390 . S
C2189 C2188 1.387 . S
C2189 C2191 1.387 . S
H2190 C2197 0.950 . S
C2191 C2189 1.387 . S
C2191 C2193 1.390 . S
C2191 H2195 0.950 . S
H2192 C2188 0.950 . S
C2193 C2191 1.390 . S
C2193 C2194 1.387 . S
C2193 H2196 0.950 . S
C2194 C2193 1.387 . S
C2194 C2197 1.387 . S
H2195 C2191 0.950 . S
H2196 C2193 0.950 . S
C2197 C2188 1.390 . S
C2197 H2190 0.950 . S
C2197 C2194 1.387 . S
C2198 C2199 1.387 . S
C2198 H2202 0.950 . S
C2198 C2207 1.390 . S
C2199 C2198 1.387 . S
C2199 C2201 1.387 . S
H2200 C2207 0.950 . S
C2201 C2199 1.387 . S
C2201 C2203 1.390 . S
C2201 H2205 0.950 . S
H2202 C2198 0.950 . S
C2203 C2201 1.390 . S
C2203 C2204 1.387 . S
C2203 H2206 0.950 . S
C2204 C2203 1.387 . S
C2204 C2207 1.387 . S
H2205 C2201 0.950 . S
H2206 C2203 0.950 . S
C2207 C2198 1.390 . S
C2207 H2200 0.950 . S
C2207 C2204 1.387 . S
C2208 C2209 1.387 . S
C2208 H2212 0.950 . S
C2208 C2217 1.390 . S
C2209 C2208 1.387 . S
C2209 C2211 1.387 . S
H2210 C2217 0.950 . S
C2211 C2209 1.387 . S
C2211 C2213 1.390 . S
C2211 H2215 0.950 . S
H2212 C2208 0.950 . S
C2213 C2211 1.390 . S
C2213 C2214 1.387 . S
C2213 H2216 0.950 . S
C2214 C2213 1.387 . S
C2214 C2217 1.387 . S
H2215 C2211 0.950 . S
H2216 C2213 0.950 . S
C2217 C2208 1.390 . S
C2217 H2210 0.950 . S
C2217 C2214 1.387 . S
C2218 C2219 1.387 . S
C2218 H2222 0.950 . S
C2218 C2227 1.390 . S
C2219 C2218 1.387 . S
C2219 C2221 1.387 . S
H2220 C2227 0.950 . S
C2221 C2219 1.387 . S
C2221 C2223 1.390 . S
C2221 H2225 0.950 . S
H2222 C2218 0.950 . S
C2223 C2221 1.390 . S
C2223 C2224 1.387 . S
C2223 H2226 0.950 . S
C2224 C2223 1.387 . S
C2224 C2227 1.387 . S
H2225 C2221 0.950 . S
H2226 C2223 0.950 . S
C2227 C2218 1.390 . S
C2227 H2220 0.950 . S
C2227 C2224 1.387 . S
C2228 C2229 1.387 . S
C2228 H2232 0.950 . S
C2228 C2237 1.390 . S
C2229 C2228 1.387 . S
C2229 C2231 1.387 . S
H2230 C2237 0.950 . S
C2231 C2229 1.387 . S
C2231 C2233 1.390 . S
C2231 H2235 0.950 . S
H2232 C2228 0.950 . S
C2233 C2231 1.390 . S
C2233 C2234 1.387 . S
C2233 H2236 0.950 . S
C2234 C2233 1.387 . S
C2234 C2237 1.387 . S
H2235 C2231 0.950 . S
H2236 C2233 0.950 . S
C2237 C2228 1.390 . S
C2237 H2230 0.950 . S
C2237 C2234 1.387 . S
C2238 C2239 1.387 . S
C2238 H2242 0.950 . S
C2238 C2247 1.390 . S
C2239 C2238 1.387 . S
C2239 C2241 1.387 . S
H2240 C2247 0.950 . S
C2241 C2239 1.387 . S
C2241 C2243 1.390 . S
C2241 H2245 0.950 . S
H2242 C2238 0.950 . S
C2243 C2241 1.390 . S
C2243 C2244 1.387 . S
C2243 H2246 0.950 . S
C2244 C2243 1.387 . S
C2244 C2247 1.387 . S
H2245 C2241 0.950 . S
H2246 C2243 0.950 . S
C2247 C2238 1.390 . S
C2247 H2240 0.950 . S
C2247 C2244 1.387 . S
C2248 C2249 1.387 . S
C2248 H2252 0.950 . S
C2248 C2257 1.390 . S
C2249 C2248 1.387 . S
C2249 C2251 1.387 . S
H2250 C2257 0.950 . S
C2251 C2249 1.387 . S
C2251 C2253 1.390 . S
C2251 H2255 0.950 . S
H2252 C2248 0.950 . S
C2253 C2251 1.390 . S
C2253 C2254 1.387 . S
C2253 H2256 0.950 . S
C2254 C2253 1.387 . S
C2254 C2257 1.387 . S
H2255 C2251 0.950 . S
H2256 C2253 0.950 . S
C2257 C2248 1.390 . S
C2257 H2250 0.950 . S
C2257 C2254 1.387 . S
C2258 C2259 1.387 . S
C2258 H2262 0.950 . S
C2258 C2267 1.390 . S
C2259 C2258 1.387 . S
C2259 C2261 1.387 . S
H2260 C2267 0.950 . S
C2261 C2259 1.387 . S
C2261 C2263 1.390 . S
C2261 H2265 0.950 . S
H2262 C2258 0.950 . S
C2263 C2261 1.390 . S
C2263 C2264 1.387 . S
C2263 H2266 0.950 . S
C2264 C2263 1.387 . S
C2264 C2267 1.387 . S
H2265 C2261 0.950 . S
H2266 C2263 0.950 . S
C2267 C2258 1.390 . S
C2267 H2260 0.950 . S
C2267 C2264 1.387 . S
C2268 C2269 1.387 . S
C2268 H2272 0.950 . S
C2268 C2277 1.390 . S
C2269 C2268 1.387 . S
C2269 C2271 1.387 . S
H2270 C2277 0.950 . S
C2271 C2269 1.387 . S
C2271 C2273 1.390 . S
C2271 H2275 0.950 . S
H2272 C2268 0.950 . S
C2273 C2271 1.390 . S
C2273 C2274 1.387 . S
C2273 H2276 0.950 . S
C2274 C2273 1.387 . S
C2274 C2277 1.387 . S
H2275 C2271 0.950 . S
H2276 C2273 0.950 . S
C2277 C2268 1.390 . S
C2277 H2270 0.950 . S
C2277 C2274 1.387 . S
C2278 C2279 1.387 . S
C2278 H2282 0.950 . S
C2278 C2287 1.390 . S
C2279 C2278 1.387 . S
C2279 C2281 1.387 . S
H2280 C2287 0.950 . S
C2281 C2279 1.387 . S
C2281 C2283 1.390 . S
C2281 H2285 0.950 . S
H2282 C2278 0.950 . S
C2283 C2281 1.390 . S
C2283 C2284 1.387 . S
C2283 H2286 0.950 . S
C2284 C2283 1.387 . S
C2284 C2287 1.387 . S
H2285 C2281 0.950 . S
H2286 C2283 0.950 . S
C2287 C2278 1.390 . S
C2287 H2280 0.950 . S
C2287 C2284 1.387 . S
C2288 C2289 1.387 . S
C2288 H2292 0.950 . S
C2288 C2297 1.390 1_554 S
C2289 C2288 1.387 . S
C2289 C2291 1.387 . S
H2290 C2297 0.950 . S
C2291 C2289 1.387 . S
C2291 C2293 1.390 1_554 S
C2291 H2295 0.950 . S
H2292 C2288 0.950 . S
C2293 C2291 1.390 1_556 S
C2293 C2294 1.387 . S
C2293 H2296 0.950 . S
C2294 C2293 1.387 . S
C2294 C2297 1.387 . S
H2295 C2291 0.950 . S
H2296 C2293 0.950 . S
C2297 C2288 1.390 1_556 S
C2297 H2290 0.950 . S
C2297 C2294 1.387 . S
C2298 C2299 1.387 . S
C2298 H2302 0.950 . S
C2298 C2307 1.390 1_556 S
C2299 C2298 1.387 . S
C2299 C2301 1.387 . S
H2300 C2307 0.950 . S
C2301 C2299 1.387 . S
C2301 C2303 1.390 1_556 S
C2301 H2305 0.950 . S
H2302 C2298 0.950 . S
C2303 C2301 1.390 1_554 S
C2303 C2304 1.387 . S
C2303 H2306 0.950 . S
C2304 C2303 1.387 . S
C2304 C2307 1.387 . S
H2305 C2301 0.950 . S
H2306 C2303 0.950 . S
C2307 C2298 1.390 1_554 S
C2307 H2300 0.950 . S
C2307 C2304 1.387 . S
C2308 C2309 1.387 . S
C2308 H2312 0.950 . S
C2308 C2317 1.390 1_554 S
C2309 C2308 1.387 . S
C2309 C2311 1.387 . S
H2310 C2317 0.950 . S
C2311 C2309 1.387 . S
C2311 C2313 1.390 1_554 S
C2311 H2315 0.950 . S
H2312 C2308 0.950 . S
C2313 C2311 1.390 1_556 S
C2313 C2314 1.387 . S
C2313 H2316 0.950 . S
C2314 C2313 1.387 . S
C2314 C2317 1.387 . S
H2315 C2311 0.950 . S
H2316 C2313 0.950 . S
C2317 C2308 1.390 1_556 S
C2317 H2310 0.950 . S
C2317 C2314 1.387 . S
C2318 C2319 1.387 . S
C2318 H2322 0.950 . S
C2318 C2327 1.390 1_554 S
C2319 C2318 1.387 . S
C2319 C2321 1.387 . S
H2320 C2327 0.950 . S
C2321 C2319 1.387 . S
C2321 C2323 1.390 1_554 S
C2321 H2325 0.950 . S
H2322 C2318 0.950 . S
C2323 C2321 1.390 1_556 S
C2323 C2324 1.387 . S
C2323 H2326 0.950 . S
C2324 C2323 1.387 . S
C2324 C2327 1.387 . S
H2325 C2321 0.950 . S
H2326 C2323 0.950 . S
C2327 C2318 1.390 1_556 S
C2327 H2320 0.950 . S
C2327 C2324 1.387 . S
C2328 C2329 1.387 . S
C2328 H2332 0.950 . S
C2328 C2337 1.390 1_554 S
C2329 C2328 1.387 . S
C2329 C2331 1.387 . S
H2330 C2337 0.950 . S
C2331 C2329 1.387 . S
C2331 C2333 1.390 1_554 S
C2331 H2335 0.950 . S
H2332 C2328 0.950 . S
C2333 C2331 1.390 1_556 S
C2333 C2334 1.387 . S
C2333 H2336 0.950 . S
C2334 C2333 1.387 . S
C2334 C2337 1.387 . S
H2335 C2331 0.950 . S
H2336 C2333 0.950 . S
C2337 C2328 1.390 1_556 S
C2337 H2330 0.950 . S
C2337 C2334 1.387 . S
C2338 C2339 1.387 . S
C2338 H2342 0.950 . S
C2338 C2347 1.390 1_554 S
C2339 C2338 1.387 . S
C2339 C2341 1.387 . S
H2340 C2347 0.950 . S
C2341 C2339 1.387 . S
C2341 C2343 1.390 1_554 S
C2341 H2345 0.950 . S
H2342 C2338 0.950 . S
C2343 C2341 1.390 1_556 S
C2343 C2344 1.387 . S
C2343 H2346 0.950 . S
C2344 C2343 1.387 . S
C2344 C2347 1.387 . S
H2345 C2341 0.950 . S
H2346 C2343 0.950 . S
C2347 C2338 1.390 1_556 S
C2347 H2340 0.950 . S
C2347 C2344 1.387 . S
C2348 C2349 1.387 . S
C2348 H2352 0.950 . S
C2348 C2357 1.390 1_556 S
C2349 C2348 1.387 . S
C2349 C2351 1.387 . S
H2350 C2357 0.950 . S
C2351 C2349 1.387 . S
C2351 C2353 1.390 1_556 S
C2351 H2355 0.950 . S
H2352 C2348 0.950 . S
C2353 C2351 1.390 1_554 S
C2353 C2354 1.387 . S
C2353 H2356 0.950 . S
C2354 C2353 1.387 . S
C2354 C2357 1.387 . S
H2355 C2351 0.950 . S
H2356 C2353 0.950 . S
C2357 C2348 1.390 1_554 S
C2357 H2350 0.950 . S
C2357 C2354 1.387 . S
C2358 C2359 1.387 . S
C2358 H2362 0.950 . S
C2358 C2367 1.390 1_556 S
C2359 C2358 1.387 . S
C2359 C2361 1.387 . S
H2360 C2367 0.950 . S
C2361 C2359 1.387 . S
C2361 C2363 1.390 1_556 S
C2361 H2365 0.950 . S
H2362 C2358 0.950 . S
C2363 C2361 1.390 1_554 S
C2363 C2364 1.387 . S
C2363 H2366 0.950 . S
C2364 C2363 1.387 . S
C2364 C2367 1.387 . S
H2365 C2361 0.950 . S
H2366 C2363 0.950 . S
C2367 C2358 1.390 1_554 S
C2367 H2360 0.950 . S
C2367 C2364 1.387 . S
C2368 C2369 1.387 . S
C2368 H2372 0.950 . S
C2368 C2377 1.390 . S
C2369 C2368 1.387 . S
C2369 C2371 1.387 . S
H2370 C2377 0.950 . S
C2371 C2369 1.387 . S
C2371 C2373 1.390 . S
C2371 H2375 0.950 . S
H2372 C2368 0.950 . S
C2373 C2371 1.390 . S
C2373 C2374 1.387 . S
C2373 H2376 0.950 . S
C2374 C2373 1.387 . S
C2374 C2377 1.387 . S
H2375 C2371 0.950 . S
H2376 C2373 0.950 . S
C2377 C2368 1.390 . S
C2377 H2370 0.950 . S
C2377 C2374 1.387 . S
C2378 C2379 1.387 . S
C2378 H2382 0.950 . S
C2378 C2387 1.390 . S
C2379 C2378 1.387 . S
C2379 C2381 1.387 . S
H2380 C2387 0.950 . S
C2381 C2379 1.387 . S
C2381 C2383 1.390 . S
C2381 H2385 0.950 . S
H2382 C2378 0.950 . S
C2383 C2381 1.390 . S
C2383 C2384 1.387 . S
C2383 H2386 0.950 . S
C2384 C2383 1.387 . S
C2384 C2387 1.387 . S
H2385 C2381 0.950 . S
H2386 C2383 0.950 . S
C2387 C2378 1.390 . S
C2387 H2380 0.950 . S
C2387 C2384 1.387 . S
C2388 C2389 1.387 . S
C2388 H2392 0.950 . S
C2388 C2397 1.390 . S
C2389 C2388 1.387 . S
C2389 C2391 1.387 . S
H2390 C2397 0.950 . S
C2391 C2389 1.387 . S
C2391 C2393 1.390 . S
C2391 H2395 0.950 . S
H2392 C2388 0.950 . S
C2393 C2391 1.390 . S
C2393 C2394 1.387 . S
C2393 H2396 0.950 . S
C2394 C2393 1.387 . S
C2394 C2397 1.387 . S
H2395 C2391 0.950 . S
H2396 C2393 0.950 . S
C2397 C2388 1.390 . S
C2397 H2390 0.950 . S
C2397 C2394 1.387 . S
C2398 C2399 1.387 . S
C2398 H2402 0.950 . S
C2398 C2407 1.390 . S
C2399 C2398 1.387 . S
C2399 C2401 1.387 . S
H2400 C2407 0.950 . S
C2401 C2399 1.387 . S
C2401 C2403 1.390 . S
C2401 H2405 0.950 . S
H2402 C2398 0.950 . S
C2403 C2401 1.390 . S
C2403 C2404 1.387 . S
C2403 H2406 0.950 . S
C2404 C2403 1.387 . S
C2404 C2407 1.387 . S
H2405 C2401 0.950 . S
H2406 C2403 0.950 . S
C2407 C2398 1.390 . S
C2407 H2400 0.950 . S
C2407 C2404 1.387 . S
C2408 C2409 1.387 . S
C2408 H2412 0.950 . S
C2408 C2417 1.390 . S
C2409 C2408 1.387 . S
C2409 C2411 1.387 . S
H2410 C2417 0.950 . S
C2411 C2409 1.387 . S
C2411 C2413 1.390 . S
C2411 H2415 0.950 . S
H2412 C2408 0.950 . S
C2413 C2411 1.390 . S
C2413 C2414 1.387 . S
C2413 H2416 0.950 . S
C2414 C2413 1.387 . S
C2414 C2417 1.387 . S
H2415 C2411 0.950 . S
H2416 C2413 0.950 . S
C2417 C2408 1.390 . S
C2417 H2410 0.950 . S
C2417 C2414 1.387 . S
C2418 C2419 1.387 . S
C2418 H2422 0.950 . S
C2418 C2427 1.390 . S
C2419 C2418 1.387 . S
C2419 C2421 1.387 . S
H2420 C2427 0.950 . S
C2421 C2419 1.387 . S
C2421 C2423 1.390 . S
C2421 H2425 0.950 . S
H2422 C2418 0.950 . S
C2423 C2421 1.390 . S
C2423 C2424 1.387 . S
C2423 H2426 0.950 . S
C2424 C2423 1.387 . S
C2424 C2427 1.387 . S
H2425 C2421 0.950 . S
H2426 C2423 0.950 . S
C2427 C2418 1.390 . S
C2427 H2420 0.950 . S
C2427 C2424 1.387 . S
C2428 C2429 1.387 . S
C2428 H2432 0.950 . S
C2428 C2437 1.390 . S
C2429 C2428 1.387 . S
C2429 C2431 1.387 . S
H2430 C2437 0.950 . S
C2431 C2429 1.387 . S
C2431 C2433 1.390 . S
C2431 H2435 0.950 . S
H2432 C2428 0.950 . S
C2433 C2431 1.390 . S
C2433 C2434 1.387 . S
C2433 H2436 0.950 . S
C2434 C2433 1.387 . S
C2434 C2437 1.387 . S
H2435 C2431 0.950 . S
H2436 C2433 0.950 . S
C2437 C2428 1.390 . S
C2437 H2430 0.950 . S
C2437 C2434 1.387 . S
C2438 C2439 1.387 . S
C2438 H2442 0.950 . S
C2438 C2447 1.390 . S
C2439 C2438 1.387 . S
C2439 C2441 1.387 . S
H2440 C2447 0.950 . S
C2441 C2439 1.387 . S
C2441 C2443 1.390 . S
C2441 H2445 0.950 . S
H2442 C2438 0.950 . S
C2443 C2441 1.390 . S
C2443 C2444 1.387 . S
C2443 H2446 0.950 . S
C2444 C2443 1.387 . S
C2444 C2447 1.387 . S
H2445 C2441 0.950 . S
H2446 C2443 0.950 . S
C2447 C2438 1.390 . S
C2447 H2440 0.950 . S
C2447 C2444 1.387 . S
C2448 C2449 1.387 . S
C2448 H2452 0.950 . S
C2448 C2457 1.390 . S
C2449 C2448 1.387 . S
C2449 C2451 1.387 . S
H2450 C2457 0.950 . S
C2451 C2449 1.387 . S
C2451 C2453 1.390 . S
C2451 H2455 0.950 . S
H2452 C2448 0.950 . S
C2453 C2451 1.390 . S
C2453 C2454 1.387 . S
C2453 H2456 0.950 . S
C2454 C2453 1.387 . S
C2454 C2457 1.387 . S
H2455 C2451 0.950 . S
H2456 C2453 0.950 . S
C2457 C2448 1.390 . S
C2457 H2450 0.950 . S
C2457 C2454 1.387 . S
C2458 C2459 1.387 . S
C2458 H2462 0.950 . S
C2458 C2467 1.390 . S
C2459 C2458 1.387 . S
C2459 C2461 1.387 . S
H2460 C2467 0.950 . S
C2461 C2459 1.387 . S
C2461 C2463 1.390 . S
C2461 H2465 0.950 . S
H2462 C2458 0.950 . S
C2463 C2461 1.390 . S
C2463 C2464 1.387 . S
C2463 H2466 0.950 . S
C2464 C2463 1.387 . S
C2464 C2467 1.387 . S
H2465 C2461 0.950 . S
H2466 C2463 0.950 . S
C2467 C2458 1.390 . S
C2467 H2460 0.950 . S
C2467 C2464 1.387 . S
C2468 C2469 1.387 . S
C2468 H2472 0.950 . S
C2468 C2477 1.390 . S
C2469 C2468 1.387 . S
C2469 C2471 1.387 . S
H2470 C2477 0.950 . S
C2471 C2469 1.387 . S
C2471 C2473 1.390 . S
C2471 H2475 0.950 . S
H2472 C2468 0.950 . S
C2473 C2471 1.390 . S
C2473 C2474 1.387 . S
C2473 H2476 0.950 . S
C2474 C2473 1.387 . S
C2474 C2477 1.387 . S
H2475 C2471 0.950 . S
H2476 C2473 0.950 . S
C2477 C2468 1.390 . S
C2477 H2470 0.950 . S
C2477 C2474 1.387 . S
C2478 C2479 1.387 . S
C2478 H2482 0.950 . S
C2478 C2487 1.390 . S
C2479 C2478 1.387 . S
C2479 C2481 1.387 . S
H2480 C2487 0.950 . S
C2481 C2479 1.387 . S
C2481 C2483 1.390 . S
C2481 H2485 0.950 . S
H2482 C2478 0.950 . S
C2483 C2481 1.390 . S
C2483 C2484 1.387 . S
C2483 H2486 0.950 . S
C2484 C2483 1.387 . S
C2484 C2487 1.387 . S
H2485 C2481 0.950 . S
H2486 C2483 0.950 . S
C2487 C2478 1.390 . S
C2487 H2480 0.950 . S
C2487 C2484 1.387 . S
C2488 C2489 1.387 . S
C2488 H2492 0.950 . S
C2488 C2497 1.390 . S
C2489 C2488 1.387 . S
C2489 C2491 1.387 . S
H2490 C2497 0.950 . S
C2491 C2489 1.387 . S
C2491 C2493 1.390 . S
C2491 H2495 0.950 . S
H2492 C2488 0.950 . S
C2493 C2491 1.390 . S
C2493 C2494 1.387 . S
C2493 H2496 0.950 . S
C2494 C2493 1.387 . S
C2494 C2497 1.387 . S
H2495 C2491 0.950 . S
H2496 C2493 0.950 . S
C2497 C2488 1.390 . S
C2497 H2490 0.950 . S
C2497 C2494 1.387 . S
C2498 C2499 1.387 . S
C2498 H2502 0.950 . S
C2498 C2507 1.390 . S
C2499 C2498 1.387 . S
C2499 C2501 1.387 . S
H2500 C2507 0.950 . S
C2501 C2499 1.387 . S
C2501 C2503 1.390 . S
C2501 H2505 0.950 . S
H2502 C2498 0.950 . S
C2503 C2501 1.390 . S
C2503 C2504 1.387 . S
C2503 H2506 0.950 . S
C2504 C2503 1.387 . S
C2504 C2507 1.387 . S
H2505 C2501 0.950 . S
H2506 C2503 0.950 . S
C2507 C2498 1.390 . S
C2507 H2500 0.950 . S
C2507 C2504 1.387 . S
C2508 C2509 1.387 . S
C2508 H2512 0.950 . S
C2508 C2517 1.390 . S
C2509 C2508 1.387 . S
C2509 C2511 1.387 . S
H2510 C2517 0.950 . S
C2511 C2509 1.387 . S
C2511 C2513 1.390 . S
C2511 H2515 0.950 . S
H2512 C2508 0.950 . S
C2513 C2511 1.390 . S
C2513 C2514 1.387 . S
C2513 H2516 0.950 . S
C2514 C2513 1.387 . S
C2514 C2517 1.387 . S
H2515 C2511 0.950 . S
H2516 C2513 0.950 . S
C2517 C2508 1.390 . S
C2517 H2510 0.950 . S
C2517 C2514 1.387 . S
C2518 C2519 1.387 . S
C2518 H2522 0.950 . S
C2518 C2527 1.390 . S
C2519 C2518 1.387 . S
C2519 C2521 1.387 . S
H2520 C2527 0.950 . S
C2521 C2519 1.387 . S
C2521 C2523 1.390 . S
C2521 H2525 0.950 . S
H2522 C2518 0.950 . S
C2523 C2521 1.390 . S
C2523 C2524 1.387 . S
C2523 H2526 0.950 . S
C2524 C2523 1.387 . S
C2524 C2527 1.387 . S
H2525 C2521 0.950 . S
H2526 C2523 0.950 . S
C2527 C2518 1.390 . S
C2527 H2520 0.950 . S
C2527 C2524 1.387 . S
C1889 C937 1.574 . S
C1894 C52 1.574 . S
C1899 C111 1.574 . S
C1904 C760 1.574 . S
C1909 C170 1.574 . S
C1914 C819 1.574 . S
C1919 C878 1.574 . S
C1924 C229 1.574 . S
C1929 C288 1.574 . S
C1934 C583 1.574 . S
C1939 C347 1.574 . S
C1944 C642 1.574 . S
C1949 C701 1.574 . S
C1954 C406 1.574 . S
C1959 C524 1.574 . S
C1964 C465 1.574 . S
C1969 C996 1.574 . S
C1974 C1881 1.574 . S
C1979 C1055 1.574 . S
C1984 C1704 1.574 . S
C1989 C1114 1.574 . S
C1994 C1763 1.574 . S
C1999 C1822 1.574 . S
C2004 C1173 1.574 . S
C2009 C1232 1.574 . S
C2014 C1527 1.574 . S
C2019 C1291 1.574 . S
C2024 C1586 1.574 . S
C2029 C1645 1.574 . S
C2034 C1350 1.574 . S
C2039 C1409 1.574 . S
C2044 C1468 1.574 . S
C2049 C713 1.530 . S
C2054 C5 1.531 . S
C2059 C64 1.530 . S
C2064 C772 1.530 . S
C2069 C831 1.530 . S
C2074 C123 1.530 . S
C2079 C182 1.530 . S
C2084 C890 1.530 . S
C2089 C241 1.530 . S
C2094 C477 1.531 . S
C2099 C536 1.531 . S
C2104 C300 1.530 . S
C2109 C595 1.530 . S
C2114 C359 1.531 . S
C2119 C654 1.530 . S
C2124 C418 1.530 . S
C2129 C949 1.530 . S
C2134 C1657 1.530 . S
C2139 C1716 1.530 . S
C2144 C1008 1.530 . S
C2149 C1067 1.530 . S
C2154 C1775 1.531 . S
C2159 C1126 1.531 . S
C2164 C1834 1.530 . S
C2169 C1421 1.530 . S
C2174 C1185 1.530 . S
C2179 C1244 1.530 . S
C2184 C1480 1.530 . S
C2189 C1303 1.530 . S
C2194 C1539 1.530 . S
C2199 C1362 1.530 . S
C2204 C1598 1.530 . S
C2209 C33 1.374 . S
C2214 C623 1.373 . S
C2219 C682 1.374 . S
C2224 C92 1.373 . S
C2229 C151 1.374 . S
C2234 C505 1.374 . S
C2239 C564 1.374 . S
C2244 C210 1.373 . S
C2249 C859 1.374 . S
C2254 C269 1.373 . S
C2259 C918 1.374 . S
C2264 C328 1.373 . S
C2269 C741 1.374 . S
C2274 C387 1.373 . S
C2279 C446 1.374 . S
C2284 C800 1.373 . S
C2289 C1567 1.374 . S
C2294 C977 1.373 . S
C2299 C1036 1.374 . S
C2304 C1626 1.373 . S
C2309 C1449 1.374 . S
C2314 C1095 1.373 . S
C2319 C1508 1.373 . S
C2324 C1154 1.374 . S
C2329 C1213 1.374 . S
C2334 C1803 1.373 . S
C2339 C1272 1.374 . S
C2344 C1862 1.373 . S
C2349 C1685 1.373 . S
C2354 C1331 1.374 . S
C2359 C1744 1.374 . S
C2364 C1390 1.373 . S
C2369 C1360 1.424 . S
C2374 C3 1.424 . S
C2379 C1183 1.425 . S
C2384 C62 1.426 . S
C2389 C1242 1.426 . S
C2394 C121 1.425 . S
C2399 C1301 1.426 . S
C2404 C180 1.424 . S
C2409 C1006 1.426 . S
C2414 C239 1.425 . S
C2419 C298 1.423 . S
C2424 C1065 1.424 . S
C2429 C357 1.424 . S
C2434 C1124 1.426 . S
C2439 C416 1.426 . S
C2444 C947 1.424 . S
C2449 C475 1.425 . S
C2454 C1832 1.426 . S
C2459 C1655 1.424 . S
C2464 C534 1.426 . S
C2469 C593 1.424 . S
C2474 C1714 1.424 . S
C2479 C652 1.424 . S
C2484 C1773 1.424 . S
C2489 C1478 1.424 . S
C2494 C711 1.424 . S
C2499 C1537 1.425 . S
C2504 C770 1.423 . S
C2509 C829 1.425 . S
C2514 C1596 1.423 . S
C2519 C888 1.423 . S
C2524 C1419 1.425 . S
