# Generated by pormake.
# Topology unv, (4)-cn, num edge types: 1
# Building blocks:
#     Node 0, Type 0, BuildingBlock: GALJAG_clean_sbu_0, # of connection points: 4
#     Node 1, Type 0, BuildingBlock: GALJAG_clean_sbu_0, # of connection points: 4
#     Node 2, Type 0, BuildingBlock: GALJAG_clean_sbu_0, # of connection points: 4
#     Node 3, Type 0, BuildingBlock: GALJAG_clean_sbu_0, # of connection points: 4
#     Node 4, Type 0, BuildingBlock: GALJAG_clean_sbu_0, # of connection points: 4
#     Node 5, Type 0, BuildingBlock: GALJAG_clean_sbu_0, # of connection points: 4
#     Node 6, Type 0, BuildingBlock: GALJAG_clean_sbu_0, # of connection points: 4
#     Node 7, Type 0, BuildingBlock: GALJAG_clean_sbu_0, # of connection points: 4
#     Node 8, Type 0, BuildingBlock: GALJAG_clean_sbu_0, # of connection points: 4
#     Node 9, Type 0, BuildingBlock: GALJAG_clean_sbu_0, # of connection points: 4
#     Node 10, Type 0, BuildingBlock: GALJAG_clean_sbu_0, # of connection points: 4
#     Node 11, Type 0, BuildingBlock: GALJAG_clean_sbu_0, # of connection points: 4
#     Node 12, Type 0, BuildingBlock: GALJAG_clean_sbu_0, # of connection points: 4
#     Node 13, Type 0, BuildingBlock: GALJAG_clean_sbu_0, # of connection points: 4
#     Node 14, Type 0, BuildingBlock: GALJAG_clean_sbu_0, # of connection points: 4
#     Node 15, Type 0, BuildingBlock: GALJAG_clean_sbu_0, # of connection points: 4
#     Node 16, Type 0, BuildingBlock: GALJAG_clean_sbu_0, # of connection points: 4
#     Node 17, Type 0, BuildingBlock: GALJAG_clean_sbu_0, # of connection points: 4
#     Node 18, Type 0, BuildingBlock: GALJAG_clean_sbu_0, # of connection points: 4
#     Node 19, Type 0, BuildingBlock: GALJAG_clean_sbu_0, # of connection points: 4
#     Node 20, Type 0, BuildingBlock: GALJAG_clean_sbu_0, # of connection points: 4
#     Node 21, Type 0, BuildingBlock: GALJAG_clean_sbu_0, # of connection points: 4
#     Node 22, Type 0, BuildingBlock: GALJAG_clean_sbu_0, # of connection points: 4
#     Node 23, Type 0, BuildingBlock: GALJAG_clean_sbu_0, # of connection points: 4
#     Edge 24, Type (0, 0), BuildingBlock: UVAHIK_clean_linker_0, # of connection points: 2
#     Edge 25, Type (0, 0), BuildingBlock: UVAHIK_clean_linker_0, # of connection points: 2
#     Edge 26, Type (0, 0), BuildingBlock: UVAHIK_clean_linker_0, # of connection points: 2
#     Edge 27, Type (0, 0), BuildingBlock: UVAHIK_clean_linker_0, # of connection points: 2
#     Edge 28, Type (0, 0), BuildingBlock: UVAHIK_clean_linker_0, # of connection points: 2
#     Edge 29, Type (0, 0), BuildingBlock: UVAHIK_clean_linker_0, # of connection points: 2
#     Edge 30, Type (0, 0), BuildingBlock: UVAHIK_clean_linker_0, # of connection points: 2
#     Edge 31, Type (0, 0), BuildingBlock: UVAHIK_clean_linker_0, # of connection points: 2
#     Edge 32, Type (0, 0), BuildingBlock: UVAHIK_clean_linker_0, # of connection points: 2
#     Edge 33, Type (0, 0), BuildingBlock: UVAHIK_clean_linker_0, # of connection points: 2
#     Edge 34, Type (0, 0), BuildingBlock: UVAHIK_clean_linker_0, # of connection points: 2
#     Edge 35, Type (0, 0), BuildingBlock: UVAHIK_clean_linker_0, # of connection points: 2
#     Edge 36, Type (0, 0), BuildingBlock: UVAHIK_clean_linker_0, # of connection points: 2
#     Edge 37, Type (0, 0), BuildingBlock: UVAHIK_clean_linker_0, # of connection points: 2
#     Edge 38, Type (0, 0), BuildingBlock: UVAHIK_clean_linker_0, # of connection points: 2
#     Edge 39, Type (0, 0), BuildingBlock: UVAHIK_clean_linker_0, # of connection points: 2
#     Edge 40, Type (0, 0), BuildingBlock: UVAHIK_clean_linker_0, # of connection points: 2
#     Edge 41, Type (0, 0), BuildingBlock: UVAHIK_clean_linker_0, # of connection points: 2
#     Edge 42, Type (0, 0), BuildingBlock: UVAHIK_clean_linker_0, # of connection points: 2
#     Edge 43, Type (0, 0), BuildingBlock: UVAHIK_clean_linker_0, # of connection points: 2
#     Edge 44, Type (0, 0), BuildingBlock: UVAHIK_clean_linker_0, # of connection points: 2
#     Edge 45, Type (0, 0), BuildingBlock: UVAHIK_clean_linker_0, # of connection points: 2
#     Edge 46, Type (0, 0), BuildingBlock: UVAHIK_clean_linker_0, # of connection points: 2
#     Edge 47, Type (0, 0), BuildingBlock: UVAHIK_clean_linker_0, # of connection points: 2
#     Edge 48, Type (0, 0), BuildingBlock: UVAHIK_clean_linker_0, # of connection points: 2
#     Edge 49, Type (0, 0), BuildingBlock: UVAHIK_clean_linker_0, # of connection points: 2
#     Edge 50, Type (0, 0), BuildingBlock: UVAHIK_clean_linker_0, # of connection points: 2
#     Edge 51, Type (0, 0), BuildingBlock: UVAHIK_clean_linker_0, # of connection points: 2
#     Edge 52, Type (0, 0), BuildingBlock: UVAHIK_clean_linker_0, # of connection points: 2
#     Edge 53, Type (0, 0), BuildingBlock: UVAHIK_clean_linker_0, # of connection points: 2
#     Edge 54, Type (0, 0), BuildingBlock: UVAHIK_clean_linker_0, # of connection points: 2
#     Edge 55, Type (0, 0), BuildingBlock: UVAHIK_clean_linker_0, # of connection points: 2
#     Edge 56, Type (0, 0), BuildingBlock: UVAHIK_clean_linker_0, # of connection points: 2
#     Edge 57, Type (0, 0), BuildingBlock: UVAHIK_clean_linker_0, # of connection points: 2
#     Edge 58, Type (0, 0), BuildingBlock: UVAHIK_clean_linker_0, # of connection points: 2
#     Edge 59, Type (0, 0), BuildingBlock: UVAHIK_clean_linker_0, # of connection points: 2
#     Edge 60, Type (0, 0), BuildingBlock: UVAHIK_clean_linker_0, # of connection points: 2
#     Edge 61, Type (0, 0), BuildingBlock: UVAHIK_clean_linker_0, # of connection points: 2
#     Edge 62, Type (0, 0), BuildingBlock: UVAHIK_clean_linker_0, # of connection points: 2
#     Edge 63, Type (0, 0), BuildingBlock: UVAHIK_clean_linker_0, # of connection points: 2
#     Edge 64, Type (0, 0), BuildingBlock: UVAHIK_clean_linker_0, # of connection points: 2
#     Edge 65, Type (0, 0), BuildingBlock: UVAHIK_clean_linker_0, # of connection points: 2
#     Edge 66, Type (0, 0), BuildingBlock: UVAHIK_clean_linker_0, # of connection points: 2
#     Edge 67, Type (0, 0), BuildingBlock: UVAHIK_clean_linker_0, # of connection points: 2
#     Edge 68, Type (0, 0), BuildingBlock: UVAHIK_clean_linker_0, # of connection points: 2
#     Edge 69, Type (0, 0), BuildingBlock: UVAHIK_clean_linker_0, # of connection points: 2
#     Edge 70, Type (0, 0), BuildingBlock: UVAHIK_clean_linker_0, # of connection points: 2
#     Edge 71, Type (0, 0), BuildingBlock: UVAHIK_clean_linker_0, # of connection points: 2
# Relax obj value: 0.404
# Max RMSD: 0.239
# Mean RMSD: 0.210
data_MOF--net-unv--node1-GALJAG_clean_sbu_0--edge1-UVAHIK_clean_linker_0
_symmetry_space_group_name_H-M    P1
_symmetry_Int_Tables_number       1
_symmetry_cell_setting            triclinic
loop_
_symmetry_equiv_pos_as_xyz
'x, y, z'
_cell_length_a     62.518875
_cell_length_b     62.584654
_cell_length_c     62.5514
_cell_angle_alpha  90.037206
_cell_angle_beta   89.997097
_cell_angle_gamma 90.017213
loop_
_atom_site_label
_atom_site_type_symbol
_atom_site_fract_x
_atom_site_fract_y
_atom_site_fract_z
_atom_type_partial_charge
In0 In 0.01084 0.09276 0.36603 0.0
O1 O 0.03819 0.0793 0.34588 0.0
O2 O 0.00709 0.07977 0.33227 0.0
C3 C 0.03803 0.0891 0.39929 0.0
C4 C 0.00117 0.13273 0.35332 0.0
C5 C 0.97763 0.07133 0.38333 0.0
O6 O 0.03149 0.07334 0.38857 0.0
O7 O 0.03123 0.10701 0.39297 0.0
O8 O 0.98429 0.08884 0.3908 0.0
O9 O 0.98725 0.06506 0.36675 0.0
C10 C 0.02653 0.07493 0.33003 0.0
O11 O 0.98706 0.11904 0.35776 0.0
O12 O 0.02017 0.12634 0.35551 0.0
In13 In 0.92465 0.3869 0.34435 0.0
O14 O 0.95068 0.36318 0.336 0.0
O15 O 0.91832 0.35351 0.33131 0.0
C16 C 0.94922 0.41678 0.36366 0.0
C17 C 0.91352 0.40606 0.30741 0.0
C18 C 0.89969 0.37629 0.37788 0.0
O19 O 0.95621 0.39844 0.35908 0.0
O20 O 0.93003 0.41996 0.35844 0.0
O21 O 0.8932 0.38834 0.36305 0.0
O22 O 0.91845 0.36933 0.37549 0.0
C23 C 0.93791 0.3486 0.33033 0.0
O24 O 0.89991 0.40159 0.32165 0.0
O25 O 0.93236 0.4003 0.31163 0.0
In26 In 0.01731 0.89824 0.14301 0.0
O27 O 0.99301 0.8732 0.15382 0.0
O28 O 0.02587 0.8654 0.15633 0.0
C29 C 0.98323 0.92381 0.13589 0.0
C30 C 0.03959 0.92423 0.16914 0.0
C31 C 0.03951 0.8906 0.10677 0.0
O32 O 0.99214 0.91319 0.12124 0.0
O33 O 0.99115 0.92111 0.15422 0.0
O34 O 0.04855 0.89415 0.12445 0.0
O35 O 0.01935 0.89054 0.10748 0.0
C36 C 0.00681 0.8596 0.15921 0.0
O37 O 0.03765 0.92778 0.14937 0.0
O38 O 0.03076 0.90727 0.17556 0.0
In39 In 0.97155 0.60212 0.14824 0.0
O40 O 0.9469 0.57541 0.14966 0.0
O41 O 0.95793 0.58854 0.17911 0.0
C42 C 0.95998 0.61064 0.10741 0.0
C43 C 0.97229 0.64005 0.16884 0.0
C44 C 0.00818 0.57929 0.14541 0.0
O45 O 0.97917 0.60905 0.11326 0.0
O46 O 0.9465 0.60775 0.1221 0.0
O47 O 0.00719 0.59876 0.14028 0.0
O48 O 0.9909 0.57156 0.15231 0.0
C49 C 0.94603 0.57507 0.16985 0.0
O50 O 0.98814 0.62762 0.16863 0.0
O51 O 0.9561 0.63317 0.15906 0.0
In52 In 0.37873 0.02334 0.09685 0.0
O53 O 0.36942 -0.0017 0.12138 0.0
O54 O 0.36852 0.0308 0.13116 0.0
C55 C 0.39649 0.98926 0.07717 0.0
C56 C 0.34504 0.03645 0.0733 0.0
C57 C 0.40873 0.05445 0.09738 0.0
O58 O 0.40746 0.0041 0.08528 0.0
O59 O 0.37655 0.9914 0.07932 0.0
O60 O 0.39266 0.0549 0.08522 0.0
O61 O 0.40933 0.03863 0.10986 0.0
C62 C 0.36566 0.01147 0.13615 0.0
O63 O 0.34465 0.03635 0.09347 0.0
O64 O 0.36243 0.03029 0.06519 0.0
In65 In 0.62313 0.47944 0.09091 0.0
O66 O 0.6526 0.46319 0.0765 0.0
O67 O 0.65239 0.49707 0.07908 0.0
C68 C 0.59515 0.44683 0.09293 0.0
C69 C 0.6329 0.48851 0.1317 0.0
C70 C 0.60079 0.50267 0.06244 0.0
O71 O 0.61312 0.44516 0.08383 0.0
O72 O 0.59174 0.46465 0.10174 0.0
O73 O 0.60271 0.5085 0.0817 0.0
O74 O 0.61017 0.48547 0.05781 0.0
C75 C 0.66229 0.48058 0.07311 0.0
O76 O 0.62478 0.50212 0.11922 0.0
O77 O 0.63581 0.47024 0.12367 0.0
In78 In 0.36191 0.94221 0.3944 0.0
O79 O 0.35103 0.96494 0.36822 0.0
O80 O 0.35393 0.93206 0.3603 0.0
C81 C 0.36997 0.9734 0.42321 0.0
C82 C 0.32744 0.9244 0.4131 0.0
C83 C 0.39965 0.92135 0.39089 0.0
O84 O 0.37364 0.97579 0.40353 0.0
O85 O 0.36259 0.95539 0.42824 0.0
O86 O 0.38223 0.91183 0.39443 0.0
O87 O 0.39801 0.94132 0.389 0.0
C88 C 0.34952 0.95071 0.35404 0.0
O89 O 0.34597 0.91651 0.41464 0.0
O90 O 0.3262 0.94078 0.40137 0.0
In91 In 0.65186 0.54309 0.39361 0.0
O92 O 0.67451 0.56728 0.40913 0.0
O93 O 0.68633 0.5362 0.40186 0.0
C94 C 0.61537 0.5647 0.38635 0.0
C95 C 0.66208 0.53414 0.353 0.0
C96 C 0.63803 0.51803 0.42574 0.0
O97 O 0.63179 0.5738 0.39392 0.0
O98 O 0.61761 0.54507 0.38242 0.0
O99 O 0.64174 0.5106 0.40732 0.0
O100 O 0.64144 0.53778 0.42775 0.0
C101 C 0.69002 0.55433 0.40988 0.0
O102 O 0.65757 0.51969 0.36639 0.0
O103 O 0.66189 0.55296 0.36031 0.0
In104 In 0.10285 0.37853 0.02207 0.0
O105 O 0.08903 0.35427 0.04568 0.0
O106 O 0.0883 0.34677 0.01254 0.0
C107 C 0.10896 0.41123 0.04958 0.0
C108 C 0.14162 0.36478 0.00924 0.0
C109 C 0.07265 0.39609 0.99682 0.0
O110 O 0.10106 0.39356 0.05519 0.0
O111 O 0.1144 0.4122 0.03019 0.0
O112 O 0.09196 0.3947 0.99106 0.0
O113 O 0.06882 0.38897 0.01527 0.0
C114 C 0.0835 0.34122 0.03131 0.0
O115 O 0.12769 0.37171 0.99644 0.0
O116 O 0.13614 0.36507 0.02865 0.0
In117 In 0.08228 0.61276 0.49867 0.0
O118 O 0.06661 0.63833 0.47797 0.0
O119 O 0.07764 0.64722 0.50891 0.0
C120 C 0.06452 0.58214 0.47407 0.0
C121 C 0.12428 0.61909 0.49143 0.0
C122 C 0.06776 0.59846 0.53676 0.0
O123 O 0.05553 0.5998 0.47774 0.0
O124 O 0.08272 0.58 0.48254 0.0
O125 O 0.08382 0.59031 0.52767 0.0
O126 O 0.05956 0.61397 0.52691 0.0
C127 C 0.06854 0.6529 0.49182 0.0
O128 O 0.11638 0.61907 0.50998 0.0
O129 O 0.1111 0.61546 0.47663 0.0
In130 In 0.90819 0.86179 0.53189 0.0
O131 O 0.87727 0.85221 0.54905 0.0
O132 O 0.88072 0.84354 0.5165 0.0
C133 C 0.9233 0.87628 0.56962 0.0
C134 C 0.93603 0.83221 0.51745 0.0
C135 C 0.91134 0.89732 0.5077 0.0
O136 O 0.9124 0.88784 0.5572 0.0
O137 O 0.9254 0.85718 0.56354 0.0
O138 O 0.92733 0.88638 0.51328 0.0
O139 O 0.89357 0.89025 0.51417 0.0
C140 C 0.86917 0.8432 0.53296 0.0
O141 O 0.92545 0.84391 0.50489 0.0
O142 O 0.93223 0.83521 0.53699 0.0
In143 In 0.3894 0.63056 0.48147 0.0
O144 O 0.35987 0.63437 0.4601 0.0
O145 O 0.35835 0.6465 0.49166 0.0
C146 C 0.41378 0.6314 0.44586 0.0
C147 C 0.41473 0.65392 0.50733 0.0
C148 C 0.3856 0.59165 0.49977 0.0
O149 O 0.4016 0.61594 0.45033 0.0
O150 O 0.41279 0.64685 0.45875 0.0
O151 O 0.39571 0.59473 0.48262 0.0
O152 O 0.37745 0.60823 0.50782 0.0
C153 C 0.34876 0.64341 0.47426 0.0
O154 O 0.41555 0.63378 0.50669 0.0
O155 O 0.40083 0.6622 0.49524 0.0
In156 In 0.46271 0.60638 0.85381 0.0
O157 O 0.45008 0.63972 0.84465 0.0
O158 O 0.4833 0.63383 0.84226 0.0
C159 C 0.42458 0.59369 0.86959 0.0
C160 C 0.47261 0.57978 0.82135 0.0
C161 C 0.48681 0.59552 0.88776 0.0
O162 O 0.43946 0.60076 0.88122 0.0
O163 O 0.42834 0.59459 0.84978 0.0
O164 O 0.48359 0.58318 0.87213 0.0
O165 O 0.47796 0.61361 0.88625 0.0
C166 C 0.4683 0.64698 0.84005 0.0
O167 O 0.48669 0.58877 0.83264 0.0
O168 O 0.45363 0.5847 0.82603 0.0
In169 In 0.52624 0.90392 0.86791 0.0
O170 O 0.5361 0.86916 0.8618 0.0
O171 O 0.50752 0.88063 0.84753 0.0
C172 C 0.56242 0.91972 0.88533 0.0
C173 C 0.52082 0.93253 0.83622 0.0
C174 C 0.49948 0.90305 0.9015 0.0
O175 O 0.54404 0.92318 0.89281 0.0
O176 O 0.56282 0.90755 0.86923 0.0
O177 O 0.49789 0.91652 0.88654 0.0
O178 O 0.51461 0.8898 0.89946 0.0
C179 C 0.52002 0.86513 0.85026 0.0
O180 O 0.50629 0.92836 0.84957 0.0
O181 O 0.53793 0.9222 0.83882 0.0
In182 In 0.49596 0.40029 0.62463 0.0
O183 O 0.48246 0.36667 0.62871 0.0
O184 O 0.51583 0.37103 0.63304 0.0
C185 C 0.45955 0.415 0.60638 0.0
C186 C 0.50076 0.4189 0.6631 0.0
C187 C 0.52422 0.41483 0.59559 0.0
O188 O 0.47272 0.40344 0.59645 0.0
O189 O 0.46441 0.41851 0.62558 0.0
O190 O 0.51805 0.42589 0.6113 0.0
O191 O 0.5163 0.3963 0.59465 0.0
C192 C 0.50028 0.35826 0.63292 0.0
O193 O 0.51514 0.41957 0.64894 0.0
O194 O 0.48437 0.40826 0.65805 0.0
In195 In 0.49909 0.08952 0.616 0.0
O196 O 0.51764 0.12085 0.61354 0.0
O197 O 0.48808 0.12086 0.63037 0.0
C198 C 0.52499 0.06259 0.59468 0.0
C199 C 0.50021 0.07079 0.65476 0.0
C200 C 0.46632 0.08929 0.58822 0.0
O201 O 0.5054 0.05903 0.59775 0.0
O202 O 0.53182 0.07999 0.60235 0.0
O203 O 0.4648 0.08175 0.6069 0.0
O204 O 0.48421 0.09761 0.58384 0.0
C205 C 0.50404 0.13141 0.62407 0.0
O206 O 0.48299 0.07334 0.64457 0.0
O207 O 0.51662 0.07796 0.64554 0.0
In208 In 0.85507 0.48384 0.59933 0.0
O209 O 0.85342 0.50834 0.57235 0.0
O210 O 0.82432 0.4945 0.58319 0.0
C211 C 0.89329 0.50027 0.61066 0.0
C212 C 0.8367 0.48294 0.63828 0.0
C213 C 0.85863 0.44794 0.57563 0.0
O214 O 0.87777 0.51176 0.60478 0.0
O215 O 0.88944 0.48048 0.61106 0.0
O216 O 0.87294 0.46206 0.57662 0.0
O217 O 0.84244 0.45156 0.58712 0.0
C218 C 0.83335 0.50729 0.57048 0.0
O219 O 0.83392 0.49795 0.62519 0.0
O220 O 0.84847 0.46798 0.63159 0.0
In221 In 0.1583 0.98126 0.6021 0.0
O222 O 0.17652 0.9718 0.63221 0.0
O223 O 0.16561 0.00385 0.62968 0.0
C224 C 0.14855 0.01686 0.5796 0.0
C225 C 0.18587 0.95739 0.57912 0.0
C226 C 0.12061 0.96072 0.60686 0.0
O227 O 0.13791 0.01074 0.59557 0.0
O228 O 0.16468 0.00551 0.57547 0.0
O229 O 0.12765 0.96683 0.589 0.0
O230 O 0.13291 0.96434 0.62242 0.0
C231 C 0.17504 0.98996 0.64083 0.0
O232 O 0.16681 0.95171 0.5825 0.0
O233 O 0.19115 0.97485 0.58776 0.0
In234 In 0.86275 0.52706 0.89699 0.0
O235 O 0.85811 0.54011 0.863 0.0
O236 O 0.84164 0.51186 0.87158 0.0
C237 C 0.87937 0.56411 0.91178 0.0
C238 C 0.83162 0.51669 0.92474 0.0
C239 C 0.89537 0.4995 0.90281 0.0
O240 O 0.89061 0.54986 0.90305 0.0
O241 O 0.8596 0.56016 0.91204 0.0
O242 O 0.88182 0.50378 0.9171 0.0
O243 O 0.89249 0.50907 0.88528 0.0
C244 C 0.84555 0.52544 0.85732 0.0
O245 O 0.84389 0.50291 0.91655 0.0
O246 O 0.83482 0.53566 0.91862 0.0
In247 In 0.13963 0.00871 0.90466 0.0
O248 O 0.15004 0.02247 0.93673 0.0
O249 O 0.17392 0.01755 0.91299 0.0
C250 C 0.10622 0.03603 0.90223 0.0
C251 C 0.15433 0.00466 0.86433 0.0
C252 C 0.12913 0.97174 0.92446 0.0
O253 O 0.12332 0.04047 0.91194 0.0
O254 O 0.10616 0.01802 0.89321 0.0
O255 O 0.11541 0.98481 0.91769 0.0
O256 O 0.14823 0.97695 0.9207 0.0
C257 C 0.16955 0.02374 0.9317 0.0
O258 O 0.14475 0.98974 0.87389 0.0
O259 O 0.15636 0.0216 0.87502 0.0
In260 In 0.60514 0.82576 0.5088 0.0
O261 O 0.63729 0.81418 0.49554 0.0
O262 O 0.6344 0.81953 0.52899 0.0
C263 C 0.58131 0.83068 0.47321 0.0
C264 C 0.58468 0.79218 0.52589 0.0
C265 C 0.60442 0.86637 0.52326 0.0
O266 O 0.60143 0.83254 0.47281 0.0
O267 O 0.57357 0.82615 0.49123 0.0
O268 O 0.59675 0.85102 0.53387 0.0
O269 O 0.61247 0.86118 0.50555 0.0
C270 C 0.64624 0.81403 0.51366 0.0
O271 O 0.58394 0.81063 0.53413 0.0
O272 O 0.5962 0.79065 0.50934 0.0
In273 In 0.60835 0.15053 0.95952 0.0
O274 O 0.59939 0.17948 0.93892 0.0
O275 O 0.57594 0.15549 0.94379 0.0
C276 C 0.62219 0.11423 0.94066 0.0
C277 C 0.64452 0.17181 0.96925 0.0
C278 C 0.58538 0.1405 0.99467 0.0
O279 O 0.60907 0.12673 0.93179 0.0
O280 O 0.62847 0.12019 0.95885 0.0
O281 O 0.58954 0.15957 0.98962 0.0
O282 O 0.59317 0.12664 0.98228 0.0
C283 C 0.58051 0.17325 0.93551 0.0
O284 O 0.63037 0.16759 0.98299 0.0
O285 O 0.64013 0.16582 0.95049 0.0
In286 In 0.39772 0.35148 0.95017 0.0
O287 O 0.41843 0.34021 0.92242 0.0
O288 O 0.40686 0.31679 0.94417 0.0
C289 C 0.38904 0.39136 0.93606 0.0
C290 C 0.35809 0.33544 0.95455 0.0
C291 C 0.42598 0.35775 0.98233 0.0
O292 O 0.39809 0.37751 0.92453 0.0
O293 O 0.3846 0.38519 0.95469 0.0
O294 O 0.40622 0.35547 0.98569 0.0
O295 O 0.4313 0.35707 0.96294 0.0
C296 C 0.41807 0.3208 0.92786 0.0
O297 O 0.37125 0.33621 0.96984 0.0
O298 O 0.36519 0.34214 0.93689 0.0
In299 In 0.90142 0.14578 0.02777 0.0
O300 O 0.87377 0.15443 0.00571 0.0
O301 O 0.86931 0.15887 0.03907 0.0
C302 C 0.92934 0.13174 -0.00189 0.0
C303 C 0.92311 0.18136 0.03833 0.0
C304 C 0.89715 0.11032 0.05198 0.0
O305 O 0.90943 0.13214 0.99466 0.0
O306 O 0.9349 0.13801 0.01644 0.0
O307 O 0.9019 0.12827 0.05987 0.0
O308 O 0.89409 0.11043 0.03207 0.0
C309 C 0.86152 0.16043 0.02055 0.0
O310 O 0.92084 0.166 0.05123 0.0
O311 O 0.91371 0.17903 0.02064 0.0
C312 C 0.12122 0.04397 0.5692 0.0
C313 C 0.14071 0.03363 0.56499 0.0
C314 C 0.11132 0.05622 0.5534 0.0
C315 C 0.11756 0.08012 0.49936 0.0
H316 H 0.05978 0.05899 0.49123 0.0
C317 C 0.06027 0.10416 0.42914 0.0
C318 C 0.05138 0.08643 0.41855 0.0
C319 C 0.07187 0.10137 0.44809 0.0
C320 C 0.07584 0.06516 0.49339 0.0
H321 H 0.1661 0.0296 0.54173 0.0
H322 H 0.14875 0.05089 0.51407 0.0
H323 H 0.07936 0.04949 0.52346 0.0
H324 H 0.04788 0.05195 0.41924 0.0
H325 H 0.06778 0.04718 0.45235 0.0
H326 H 0.11404 0.0952 0.46872 0.0
C327 C 0.14113 0.0496 0.52957 0.0
C328 C 0.08698 0.05992 0.51194 0.0
C329 C 0.15103 0.03731 0.54538 0.0
C330 C 0.05453 0.06592 0.42704 0.0
C331 C 0.06581 0.06318 0.44604 0.0
C332 C 0.10626 0.08558 0.48082 0.0
C333 C 0.12074 0.05838 0.53311 0.0
C334 C 0.10814 0.06691 0.51493 0.0
C335 C 0.07439 0.08087 0.45686 0.0
C336 C 0.08552 0.07762 0.47746 0.0
H337 H 0.11298 0.04158 0.58424 0.0
H338 H 0.09577 0.0631 0.55668 0.0
H339 H 0.13382 0.08578 0.50129 0.0
H340 H 0.05809 0.12015 0.4229 0.0
H341 H 0.07837 0.11523 0.45619 0.0
C342 C 0.89372 0.35653 0.41197 0.0
C343 C 0.88767 0.37287 0.39785 0.0
C344 C 0.88537 0.35582 0.43267 0.0
C345 C 0.84705 0.38337 0.47001 0.0
H346 H 0.89334 0.37511 0.51038 0.0
C347 C 0.84193 0.41773 0.55518 0.0
C348 C 0.86002 0.42999 0.56039 0.0
C349 C 0.84265 0.40324 0.53811 0.0
C350 C 0.88017 0.37736 0.49937 0.0
H351 H 0.86703 0.40032 0.39364 0.0
H352 H 0.85318 0.39977 0.42989 0.0
H353 H 0.89782 0.3637 0.47368 0.0
H354 H 0.89339 0.4357 0.55291 0.0
H355 H 0.89464 0.41087 0.52326 0.0
H356 H 0.83025 0.39892 0.49541 0.0
C357 C 0.86391 0.38709 0.42505 0.0
C358 C 0.88259 0.37053 0.47828 0.0
C359 C 0.87196 0.38754 0.40422 0.0
C360 C 0.87916 0.42653 0.54922 0.0
C361 C 0.87991 0.41209 0.53229 0.0
C362 C 0.84474 0.39048 0.49109 0.0
C363 C 0.87117 0.37173 0.43983 0.0
C364 C 0.86645 0.37433 0.46306 0.0
C365 C 0.86151 0.40072 0.52609 0.0
C366 C 0.8617 0.38847 0.50572 0.0
H367 H 0.90562 0.34484 0.40733 0.0
H368 H 0.89088 0.34339 0.44337 0.0
H369 H 0.83405 0.38604 0.4589 0.0
H370 H 0.82697 0.42006 0.56359 0.0
H371 H 0.82828 0.39455 0.53389 0.0
C372 C 0.04052 0.88981 0.06692 0.0
C373 C 0.05144 0.88879 0.08649 0.0
C374 C 0.05184 0.8912 0.04773 0.0
C375 C 0.10392 0.91033 0.02832 0.0
H376 H 0.08077 0.89273 0.97355 0.0
C377 C 0.13893 0.94308 0.95049 0.0
C378 C 0.1233 0.95344 0.93814 0.0
C379 C 0.13292 0.92862 0.96642 0.0
C380 C 0.08752 0.89758 0.98874 0.0
H381 H 0.08269 0.88678 0.10133 0.0
H382 H 0.10252 0.88857 0.06776 0.0
H383 H 0.0653 0.87857 0.0065 0.0
H384 H 0.08934 0.95555 0.93148 0.0
H385 H 0.07886 0.93025 0.95916 0.0
H386 H 0.12572 0.92976 0.01061 0.0
C387 C 0.08521 0.88893 0.06723 0.0
C388 C 0.07862 0.88958 0.00762 0.0
C389 C 0.07387 0.88779 0.08646 0.0
C390 C 0.10172 0.94786 0.94085 0.0
C391 C 0.09573 0.93326 0.95661 0.0
C392 C 0.11294 0.91812 0.00948 0.0
C393 C 0.07435 0.89137 0.04767 0.0
C394 C 0.0862 0.89648 0.02767 0.0
C395 C 0.1112 0.9241 0.97008 0.0
C396 C 0.10437 0.91241 0.98952 0.0
H397 H 0.02322 0.8906 0.06645 0.0
H398 H 0.04286 0.89333 0.03308 0.0
H399 H 0.11003 0.91628 0.04338 0.0
H400 H 0.1557 0.94705 0.9487 0.0
H401 H 0.14517 0.92164 0.97647 0.0
C402 C 0.93226 0.61649 0.07919 0.0
C403 C 0.95388 0.61484 0.08501 0.0
C404 C 0.9265 0.61892 0.05774 0.0
C405 C 0.94604 0.60436 0.00506 0.0
H406 H 0.89725 0.63704 0.9852 0.0
C407 C 0.9111 0.58509 0.92385 0.0
C408 C 0.88896 0.58141 0.92462 0.0
C409 C 0.9211 0.59701 0.93989 0.0
C410 C 0.91094 0.62785 0.99047 0.0
H411 H 0.98648 0.61547 0.07316 0.0
H412 H 0.9764 0.61958 0.03569 0.0
H413 H 0.91096 0.64273 0.02137 0.0
H414 H 0.85961 0.58913 0.94136 0.0
H415 H 0.87698 0.60921 0.96962 0.0
H416 H 0.94537 0.58845 0.97499 0.0
C417 C 0.96391 0.61886 0.04768 0.0
C418 C 0.91879 0.63114 0.01116 0.0
C419 C 0.96967 0.61651 0.06912 0.0
C420 C 0.87673 0.59164 0.94041 0.0
C421 C 0.88675 0.60328 0.95662 0.0
C422 C 0.93812 0.60095 0.98451 0.0
C423 C 0.94226 0.61966 0.04172 0.0
C424 C 0.93602 0.61895 0.01886 0.0
C425 C 0.90918 0.60513 0.95717 0.0
C426 C 0.92004 0.61215 0.97716 0.0
H427 H 0.91976 0.61534 0.09112 0.0
H428 H 0.90967 0.61922 0.05363 0.0
H429 H 0.95918 0.59454 0.01059 0.0
H430 H 0.92088 0.57762 0.91167 0.0
H431 H 0.93833 0.59867 0.93946 0.0
C432 C 0.44493 0.06779 0.10812 0.0
C433 C 0.42674 0.06954 0.09507 0.0
C434 C 0.46334 0.07966 0.10356 0.0
C435 C 0.5035 0.0911 0.07917 0.0
H436 H 0.50241 0.14538 0.0494 0.0
C437 C 0.56565 0.11327 0.01603 0.0
C438 C 0.57105 0.13475 0.01254 0.0
C439 C 0.55028 0.10779 0.03123 0.0
C440 C 0.50319 0.13042 0.05805 0.0
H441 H 0.41305 0.08602 0.06785 0.0
H442 H 0.44511 0.10622 0.05955 0.0
H443 H 0.47051 0.13298 0.06788 0.0
H444 H 0.56543 0.1673 0.02297 0.0
H445 H 0.53874 0.15769 0.04988 0.0
H446 H 0.53614 0.08852 0.06932 0.0
C447 C 0.44524 0.09604 0.07354 0.0
C448 C 0.48477 0.12316 0.06842 0.0
C449 C 0.42683 0.08432 0.0782 0.0
C450 C 0.56148 0.1506 0.02525 0.0
C451 C 0.54612 0.14511 0.04057 0.0
C452 C 0.52196 0.09844 0.06897 0.0
C453 C 0.46395 0.09339 0.08576 0.0
C454 C 0.48445 0.10303 0.07841 0.0
C455 C 0.54001 0.12365 0.04343 0.0
C456 C 0.52179 0.1178 0.05758 0.0
H457 H 0.44525 0.05662 0.12134 0.0
H458 H 0.47731 0.07752 0.11356 0.0
H459 H 0.5039 0.07547 0.08658 0.0
H460 H 0.57273 0.10068 0.00647 0.0
H461 H 0.54578 0.09114 0.03269 0.0
C462 C 0.55855 0.43308 0.10121 0.0
C463 C 0.57817 0.43062 0.09055 0.0
C464 C 0.54105 0.42028 0.09579 0.0
C465 C 0.52432 0.37354 0.06221 0.0
H466 H 0.47322 0.40761 0.05367 0.0
C467 C 0.46365 0.35891 0.99517 0.0
C468 C 0.44174 0.36126 -0.00049 0.0
C469 C 0.47884 0.3633 0.0109 0.0
C470 C 0.48719 0.39772 0.05634 0.0
H471 H 0.59533 0.41189 0.06698 0.0
H472 H 0.56481 0.39004 0.05709 0.0
H473 H 0.50298 0.42237 0.07382 0.0
H474 H 0.41845 0.36952 0.0238 0.0
H475 H 0.44519 0.37778 0.0513 0.0
H476 H 0.50883 0.34945 0.04337 0.0
C477 C 0.56286 0.40152 0.0699 0.0
C478 C 0.50428 0.40614 0.06798 0.0
C479 C 0.5804 0.41415 0.07548 0.0
C480 C 0.43525 0.36761 0.02005 0.0
C481 C 0.45051 0.37234 0.03574 0.0
C482 C 0.50729 0.36522 0.05035 0.0
C483 C 0.54275 0.40494 0.07943 0.0
C484 C 0.52334 0.39442 0.0705 0.0
C485 C 0.47245 0.3704 0.03122 0.0
C486 C 0.48883 0.3775 0.04679 0.0
H487 H 0.55644 0.44554 0.11305 0.0
H488 H 0.52595 0.42302 0.10383 0.0
H489 H 0.53854 0.36388 0.06422 0.0
H490 H 0.4691 0.35394 0.9795 0.0
H491 H 0.49564 0.36195 0.00688 0.0
C492 C 0.54668 0.82661 0.45426 0.0
C493 C 0.56733 0.83537 0.45486 0.0
C494 C 0.53176 0.83382 0.43937 0.0
C495 C 0.51728 0.88301 0.41396 0.0
H496 H 0.47335 0.84836 0.38721 0.0
C497 C 0.43914 0.92127 0.38446 0.0
C498 C 0.42046 0.91023 0.39026 0.0
C499 C 0.4591 0.91128 0.38574 0.0
C500 C 0.48546 0.85829 0.39461 0.0
H501 H 0.58907 0.85765 0.4397 0.0
H502 H 0.56263 0.87076 0.41381 0.0
H503 H 0.50576 0.83141 0.40088 0.0
H504 H 0.40787 0.87987 0.40116 0.0
H505 H 0.4426 0.86265 0.40408 0.0
H506 H 0.49654 0.90966 0.40919 0.0
C507 C 0.55813 0.85814 0.42477 0.0
C508 C 0.50407 0.84858 0.40227 0.0
C509 C 0.57325 0.85059 0.43947 0.0
C510 C 0.42201 0.88878 0.39657 0.0
C511 C 0.44196 0.87885 0.39806 0.0
C512 C 0.49859 0.89269 0.40651 0.0
C513 C 0.53708 0.85021 0.425 0.0
C514 C 0.51983 0.86076 0.41266 0.0
C515 C 0.46082 0.89009 0.39306 0.0
C516 C 0.48211 0.88035 0.39741 0.0
H517 H 0.54176 0.81481 0.46595 0.0
H518 H 0.51562 0.82756 0.4401 0.0
H519 H 0.52903 0.89277 0.42213 0.0
H520 H 0.4384 0.93778 0.37934 0.0
H521 H 0.47322 0.92031 0.3814 0.0
C522 C 0.44805 0.64395 0.42982 0.0
C523 C 0.43061 0.62981 0.4294 0.0
C524 C 0.46646 0.63956 0.41796 0.0
C525 C 0.49428 0.59208 0.39787 0.0
H526 H 0.53654 0.63345 0.37926 0.0
C527 C 0.57771 0.56464 0.37343 0.0
C528 C 0.59454 0.57546 0.38364 0.0
C529 C 0.55716 0.57327 0.37322 0.0
C530 C 0.52486 0.62174 0.38437 0.0
H531 H 0.41776 0.60131 0.4145 0.0
H532 H 0.44957 0.59404 0.39314 0.0
H533 H 0.50029 0.64534 0.38803 0.0
H534 H 0.6034 0.60439 0.40051 0.0
H535 H 0.56727 0.61941 0.40046 0.0
H536 H 0.51881 0.5686 0.39481 0.0
C537 C 0.44939 0.60811 0.40323 0.0
C538 C 0.50411 0.62852 0.3894 0.0
C539 C 0.43108 0.61235 0.41532 0.0
C540 C 0.5907 0.59569 0.39256 0.0
C541 C 0.57004 0.60433 0.39243 0.0
C542 C 0.51487 0.58533 0.39274 0.0
C543 C 0.4677 0.62106 0.40525 0.0
C544 C 0.48869 0.61381 0.39666 0.0
C545 C 0.55294 0.59287 0.38332 0.0
C546 C 0.53053 0.6001 0.38634 0.0
H547 H 0.44813 0.65757 0.44053 0.0
H548 H 0.48022 0.64987 0.42004 0.0
H549 H 0.48309 0.58032 0.40388 0.0
H550 H 0.58025 0.54912 0.36617 0.0
H551 H 0.5444 0.56425 0.36574 0.0
C552 C 0.11717 0.44974 0.05657 0.0
C553 C 0.10924 0.43004 0.06384 0.0
C554 C 0.11413 0.46829 0.06867 0.0
C555 C 0.09436 0.48851 0.12146 0.0
H556 H 0.07099 0.53421 0.08678 0.0
C557 C 0.02772 0.54477 0.14904 0.0
C558 C 0.02722 0.56591 0.14155 0.0
C559 C 0.04406 0.53094 0.14277 0.0
C560 C 0.07792 0.52188 0.09675 0.0
H561 H 0.09323 0.41401 0.09006 0.0
H562 H 0.08747 0.44628 0.11086 0.0
H563 H 0.08887 0.50441 0.06958 0.0
H564 H 0.0441 0.58958 0.12271 0.0
H565 H 0.07267 0.56527 0.11156 0.0
H566 H 0.08209 0.50554 0.14856 0.0
C567 C 0.09632 0.44752 0.09604 0.0
C568 C 0.08824 0.50474 0.08688 0.0
C569 C 0.09948 0.42899 0.08402 0.0
C570 C 0.04406 0.57333 0.12867 0.0
C571 C 0.06035 0.55942 0.12224 0.0
C572 C 0.08389 0.50562 0.13134 0.0
C573 C 0.10298 0.46751 0.08819 0.0
C574 C 0.09593 0.48747 0.09905 0.0
C575 C 0.06018 0.53792 0.12876 0.0
C576 C 0.07494 0.52212 0.11901 0.0
H577 H 0.12493 0.45099 0.04114 0.0
H578 H 0.11982 0.48336 0.06234 0.0
H579 H 0.10048 0.4757 0.13135 0.0
H580 H 0.01498 0.53864 0.15906 0.0
H581 H 0.04333 0.51443 0.1479 0.0
C582 C 0.95338 0.45342 0.37874 0.0
C583 C 0.9622 0.43323 0.37451 0.0
C584 C 0.96529 0.46897 0.38939 0.0
C585 C 0.02038 0.48484 0.40327 0.0
H586 H 0.9916 0.51938 0.44598 0.0
C587 C 0.06436 0.54533 0.45833 0.0
C588 C 0.05408 0.56502 0.46163 0.0
C589 C 0.05391 0.5288 0.44747 0.0
C590 C -0.00018 0.51001 0.43395 0.0
H591 H 0.99047 0.41349 0.37794 0.0
H592 H 0.01133 0.44069 0.3968 0.0
H593 H 0.97201 0.49115 0.42771 0.0
H594 H 0.02504 0.58304 0.45581 0.0
H595 H 0.00689 0.55431 0.43678 0.0
H596 H 0.04823 0.5038 0.40961 0.0
C597 C 0.99524 0.44454 0.39167 0.0
C598 C 0.9886 0.49383 0.42348 0.0
C599 C 0.98328 0.42894 0.38097 0.0
C600 C 0.03334 0.56801 0.45357 0.0
C601 C 0.02289 0.55151 0.4428 0.0
C602 C 0.03165 0.50104 0.41381 0.0
C603 C 0.98631 0.46468 0.39612 0.0
C604 C -0.00134 0.48121 0.40785 0.0
C605 C 0.03297 0.53166 0.43981 0.0
C606 C 0.0214 0.51394 0.42909 0.0
H607 H 0.9372 0.45724 0.37385 0.0
H608 H 0.95807 0.48444 0.39221 0.0
H609 H 0.02854 0.47552 0.39117 0.0
H610 H 0.08035 0.54257 0.4644 0.0
H611 H 0.06202 0.51363 0.44553 0.0
C612 C 0.8954 0.92776 0.48706 0.0
C613 C 0.91348 0.91721 0.49523 0.0
C614 C 0.89769 0.94675 0.47547 0.0
C615 C 0.93478 0.99159 0.46748 0.0
H616 H 0.90881 -0.0026 0.41148 0.0
C617 C 0.95462 0.0636 0.41508 0.0
C618 C 0.962 0.05778 0.39469 0.0
C619 C 0.94319 0.04901 0.42754 0.0
C620 C 0.91601 0.99607 0.42718 0.0
H621 H 0.94806 0.91823 0.49779 0.0
H622 H 0.95202 0.95134 0.47776 0.0
H623 H 0.90026 0.96632 0.43368 0.0
H624 H 0.96172 0.03282 0.37063 0.0
H625 H 0.94191 0.00734 0.39238 0.0
H626 H 0.95125 0.02071 0.46079 0.0
C627 C 0.93609 0.94503 0.48035 0.0
C628 C 0.91102 0.97838 0.43991 0.0
C629 C 0.93384 0.92599 0.49168 0.0
C630 C 0.95632 0.03772 0.38634 0.0
C631 C 0.94485 0.02316 0.39877 0.0
C632 C 0.93964 0.0093 0.45487 0.0
C633 C 0.91807 0.95563 0.47216 0.0
C634 C 0.92087 0.97568 0.45991 0.0
C635 C 0.93886 0.02836 0.4198 0.0
C636 C 0.93077 0.01146 0.43434 0.0
H637 H 0.87952 0.92131 0.48957 0.0
H638 H 0.88355 0.95464 0.46934 0.0
H639 H 0.9424 0.99002 0.48296 0.0
H640 H 0.95864 0.07901 0.42188 0.0
H641 H 0.93851 0.05357 0.44358 0.0
C642 C 0.3938 0.55262 0.5003 0.0
C643 C 0.38441 0.5705 0.5101 0.0
C644 C 0.39439 0.53298 0.51085 0.0
C645 C 0.39638 0.51215 0.56503 0.0
H646 H 0.39378 0.45719 0.53647 0.0
C647 C 0.42714 0.43817 0.60788 0.0
C648 C 0.4418 0.42627 0.59574 0.0
C649 C 0.41319 0.45245 0.5979 0.0
C650 C 0.39451 0.4724 0.54469 0.0
H651 H 0.3673 0.58164 0.53812 0.0
H652 H 0.36838 0.54727 0.55661 0.0
H653 H 0.38204 0.48933 0.51765 0.0
H654 H 0.45223 0.41861 0.5636 0.0
H655 H 0.42838 0.4439 0.5462 0.0
H656 H 0.4099 0.49567 0.59159 0.0
C657 C 0.37543 0.54851 0.54084 0.0
C658 C 0.38778 0.49079 0.53392 0.0
C659 C 0.37479 0.56815 0.53026 0.0
C660 C 0.4411 0.42761 0.57335 0.0
C661 C 0.42732 0.44206 0.56338 0.0
C662 C 0.40319 0.49384 0.57574 0.0
C663 C 0.38564 0.53083 0.53143 0.0
C664 C 0.38924 0.51093 0.54378 0.0
C665 C 0.41384 0.4553 0.57561 0.0
C666 C 0.40294 0.47382 0.5655 0.0
H667 H 0.40127 0.55394 0.48473 0.0
H668 H 0.40261 0.51976 0.50327 0.0
H669 H 0.39799 0.52744 0.57299 0.0
H670 H 0.42717 0.43724 0.62517 0.0
H671 H 0.40265 0.46202 0.60775 0.0
C672 C 0.57931 0.53463 0.05103 0.0
C673 C 0.58821 0.51453 0.04642 0.0
C674 C 0.56716 0.54538 0.03559 0.0
C675 C 0.53509 0.53493 0.9876 0.0
H676 H 0.54697 0.59361 0.97159 0.0
C677 C 0.50786 0.56813 0.90742 0.0
C678 C 0.49876 0.58861 0.90686 0.0
C679 C 0.51787 0.56075 0.92588 0.0
C680 C 0.54326 0.57733 0.97612 0.0
H681 H 0.59157 0.49 0.02211 0.0
H682 H 0.57043 0.5086 0.99542 0.0
H683 H 0.56575 0.57764 0.00205 0.0
H684 H 0.49349 0.61771 0.92494 0.0
H685 H 0.51109 0.6047 0.95743 0.0
H686 H 0.51292 0.53435 0.96165 0.0
C687 C 0.57265 0.51603 0.01092 0.0
C688 C 0.55398 0.56822 0.99353 0.0
C689 C 0.58487 0.50544 0.02618 0.0
C690 C 0.50038 0.60183 0.92496 0.0
C691 C 0.51048 0.59443 0.94351 0.0
C692 C 0.5244 0.544 0.97033 0.0
C693 C 0.56355 0.53602 0.01548 0.0
C694 C 0.55039 0.54675 -0.00098 0.0
C695 C 0.519 0.57366 0.94423 0.0
C696 C 0.52879 0.56508 0.96402 0.0
H697 H 0.58169 0.542 0.06652 0.0
H698 H 0.56029 0.56079 0.03947 0.0
H699 H 0.53171 0.51848 0.99179 0.0
H700 H 0.50699 0.55762 0.89367 0.0
H701 H 0.52471 0.54485 0.92579 0.0
C702 C 0.42809 0.97224 0.05979 0.0
C703 C 0.40612 0.97195 0.06438 0.0
C704 C 0.43675 0.95779 0.04516 0.0
C705 C 0.45337 0.92246 0.01682 0.0
H706 H 0.41954 0.91843 0.96503 0.0
C707 C 0.48947 0.8905 0.93819 0.0
C708 C 0.48564 0.90387 0.92057 0.0
C709 C 0.47763 0.89293 0.95702 0.0
C710 C 0.42916 0.9193 0.97941 0.0
H711 H 0.37624 0.95535 0.05855 0.0
H712 H 0.39145 0.92982 0.03324 0.0
H713 H 0.40364 0.93332 0.99719 0.0
H714 H 0.46587 0.92961 0.90846 0.0
H715 H 0.44548 0.93404 0.94118 0.0
H716 H 0.47937 0.90987 -0.0015 0.0
C717 C 0.40191 0.94151 0.04058 0.0
C718 C 0.41996 0.92759 -0.00204 0.0
C719 C 0.39321 0.95607 0.05514 0.0
C720 C 0.4692 0.91908 0.92178 0.0
C721 C 0.45738 0.92149 0.94052 0.0
C722 C 0.46262 0.91427 -0.0018 0.0
C723 C 0.42365 0.94265 0.0349 0.0
C724 C 0.43219 0.93 0.01668 0.0
C725 C 0.4617 0.90872 0.9585 0.0
C726 C 0.45083 0.91336 0.97908 0.0
H727 H 0.43843 0.98428 0.0667 0.0
H728 H 0.4535 0.95935 0.04102 0.0
H729 H 0.46311 0.92373 0.03108 0.0
H730 H 0.50202 0.87857 0.93766 0.0
H731 H 0.4812 0.88273 0.97053 0.0
C732 C 0.543 0.41154 0.5604 0.0
C733 C 0.53865 0.42336 0.57901 0.0
C734 C 0.55538 0.42038 0.54401 0.0
C735 C 0.57131 0.47282 0.52282 0.0
H736 H 0.61324 0.44071 0.49028 0.0
C737 C 0.62689 0.51454 0.46375 0.0
C738 C 0.62938 0.50515 0.44351 0.0
C739 C 0.61717 0.50329 0.48031 0.0
C740 C 0.60144 0.44979 0.49913 0.0
H741 H 0.54452 0.45328 0.59549 0.0
H742 H 0.56634 0.46857 0.5671 0.0
H743 H 0.5939 0.42333 0.51955 0.0
H744 H 0.6244 0.47635 0.42491 0.0
H745 H 0.60713 0.45659 0.45402 0.0
H746 H 0.5787 0.49922 0.50252 0.0
C747 C 0.55986 0.45266 0.56493 0.0
C748 C 0.59038 0.43986 0.51587 0.0
C749 C 0.54746 0.44387 0.58125 0.0
C750 C 0.62264 0.48397 0.44036 0.0
C751 C 0.61284 0.47266 0.45702 0.0
C752 C 0.58234 0.4827 0.50619 0.0
C753 C 0.56363 0.44119 0.54596 0.0
C754 C 0.57533 0.45136 0.52801 0.0
C755 C 0.60964 0.4824 0.47704 0.0
C756 C 0.59766 0.47139 0.49428 0.0
H757 H 0.5364 0.39568 0.55826 0.0
H758 H 0.55787 0.4112 0.52955 0.0
H759 H 0.55944 0.48197 0.53148 0.0
H760 H 0.63212 0.53077 0.46674 0.0
H761 H 0.61534 0.51106 0.49568 0.0
C762 C 0.43081 0.07481 0.57719 0.0
C763 C 0.44978 0.08556 0.57182 0.0
C764 C 0.41723 0.06723 0.56118 0.0
C765 C 0.40607 0.06748 0.50277 0.0
H766 H 0.39468 0.00736 0.51241 0.0
C767 C 0.38781 0.00735 0.43476 0.0
C768 C 0.37433 0.99001 0.43935 0.0
C769 C 0.39329 0.02193 0.45082 0.0
C770 C 0.39725 0.02423 0.50953 0.0
H771 H 0.46849 0.09845 0.54564 0.0
H772 H 0.44491 0.08498 0.51767 0.0
H773 H 0.40985 0.02871 0.54089 0.0
H774 H 0.35486 0.97505 0.4638 0.0
H775 H 0.36384 0.00074 0.49157 0.0
H776 H 0.39383 0.06272 0.47111 0.0
C777 C 0.44044 0.0825 0.53421 0.0
C778 C 0.40597 0.03651 0.52593 0.0
C779 C 0.45401 0.09014 0.55024 0.0
C780 C 0.36557 0.98809 0.45991 0.0
C781 C 0.37079 0.00278 0.47584 0.0
C782 C 0.39719 0.05517 0.48631 0.0
C783 C 0.42239 0.0702 0.53951 0.0
C784 C 0.41076 0.05819 0.52268 0.0
C785 C 0.38518 0.01954 0.47168 0.0
C786 C 0.39295 0.03331 0.48944 0.0
H787 H 0.42703 0.07124 0.59371 0.0
H788 H 0.4032 0.05816 0.56575 0.0
H789 H 0.4095 0.08419 0.49985 0.0
H790 H 0.39475 0.00918 0.419 0.0
H791 H 0.40457 0.03452 0.44709 0.0
C792 C 0.06349 0.5688 0.5633 0.0
C793 C 0.05748 0.58909 0.55581 0.0
C794 C 0.05086 0.55821 0.57843 0.0
C795 C 0.00308 0.56456 0.61404 0.0
H796 H 0.98807 0.50879 0.5916 0.0
C797 C 0.91817 0.53129 0.61384 0.0
C798 C 0.91477 0.50915 0.61479 0.0
C799 C 0.93888 0.53959 0.61467 0.0
C800 C 0.99233 0.52407 0.59854 0.0
H801 H 0.03482 0.61501 0.55965 0.0
H802 H 0.01275 0.59658 0.58563 0.0
H803 H 0.02012 0.52649 0.57889 0.0
H804 H 0.93018 0.47838 0.61886 0.0
H805 H 0.96646 0.49291 0.62024 0.0
H806 H 0.97437 0.5626 0.63265 0.0
C807 C 0.02718 0.58877 0.58009 0.0
C808 C 0.01081 0.53425 0.59126 0.0
C809 C 0.03974 0.59931 0.565 0.0
C810 C 0.93235 0.49553 0.61793 0.0
C811 C 0.95311 0.50382 0.61867 0.0
C812 C 0.98454 0.55439 0.62128 0.0
C813 C 0.03207 0.56775 0.58633 0.0
C814 C 0.01587 0.55502 0.59818 0.0
C815 C 0.95663 0.5259 0.61641 0.0
C816 C 0.97849 0.53445 0.61288 0.0
H817 H 0.07719 0.56061 0.55658 0.0
H818 H 0.05523 0.54214 0.58315 0.0
H819 H 0.00679 0.58038 0.62002 0.0
H820 H 0.90491 0.54218 0.61152 0.0
H821 H 0.94102 0.55664 0.61263 0.0
C822 C 0.93567 0.90729 0.59153 0.0
C823 C 0.93666 0.88538 0.58682 0.0
C824 C 0.95237 0.91717 0.60262 0.0
C825 C 0.00601 0.90718 0.62802 0.0
H826 H 0.0221 0.95582 0.59319 0.0
C827 C 0.0905 0.94725 0.62973 0.0
C828 C 0.09894 0.95172 0.60938 0.0
C829 C 0.06923 0.94055 0.63195 0.0
C830 C 0.01784 0.94229 0.60312 0.0
H831 H 0.95441 0.85614 0.59237 0.0
H832 H 0.98372 0.87334 0.61097 0.0
H833 H 0.98606 0.94191 0.59098 0.0
H834 H 0.09205 0.95201 0.5754 0.0
H835 H 0.05525 0.94011 0.57923 0.0
H836 H 0.03854 0.9069 0.63895 0.0
C837 C 0.97012 0.88302 0.6064 0.0
C838 C 0.99699 0.9345 0.60215 0.0
C839 C 0.9533 0.87312 0.59558 0.0
C840 C 0.08597 0.94881 0.5913 0.0
C841 C 0.06482 0.94218 0.59352 0.0
C842 C 0.02699 0.91499 0.62892 0.0
C843 C 0.97048 0.90536 0.60888 0.0
C844 C 0.99098 0.91635 0.61398 0.0
C845 C 0.05608 0.93834 0.61386 0.0
C846 C 0.03328 0.9321 0.6158 0.0
H847 H 0.92285 0.91709 0.58525 0.0
H848 H 0.95182 0.93433 0.60486 0.0
H849 H 0.00185 0.89339 0.63759 0.0
H850 H 0.10015 0.9494 0.64395 0.0
H851 H 0.06293 0.93765 0.64782 0.0
C852 C 0.0603 0.41327 0.96275 0.0
C853 C 0.05562 0.40474 0.983 0.0
C854 C 0.04387 0.42118 0.94976 0.0
C855 C 0.98522 0.41851 0.94236 0.0
H856 H 0.99103 0.47487 0.91729 0.0
C857 C 0.91385 0.4726 0.92544 0.0
C858 C 0.91366 0.48523 0.90692 0.0
C859 C 0.93168 0.46024 0.93047 0.0
C860 C 0.98931 0.45893 0.9238 0.0
H861 H 0.03019 0.39777 0.00553 0.0
H862 H 0.00171 0.41164 0.98307 0.0
H863 H 0.02193 0.45803 0.93427 0.0
H864 H 0.9317 0.49453 0.87884 0.0
H865 H 0.96321 0.47297 0.88784 0.0
H866 H 0.95243 0.41974 0.93267 0.0
C867 C 0.01794 0.41198 0.97703 0.0
C868 C 0.00698 0.4493 0.93354 0.0
C869 C 0.0343 0.40421 0.98999 0.0
C870 C 0.93146 0.48489 0.89321 0.0
C871 C 0.94947 0.47266 0.89839 0.0
C872 C 0.96759 0.42813 0.93269 0.0
C873 C 0.02251 0.42052 0.95676 0.0
C874 C 0.00491 0.4293 0.94354 0.0
C875 C 0.94979 0.46036 0.91718 0.0
C876 C 0.96928 0.44872 0.92394 0.0
H877 H 0.07661 0.41383 0.95695 0.0
H878 H 0.04784 0.42763 0.93419 0.0
H879 H 0.98327 0.40288 0.94952 0.0
H880 H 0.90035 0.47254 0.9363 0.0
H881 H 0.93156 0.45117 0.94522 0.0
C882 C 0.08746 0.06845 0.91583 0.0
C883 C 0.08706 0.04974 0.90347 0.0
C884 C 0.06866 0.07982 0.91972 0.0
C885 C 0.01092 0.07047 0.92366 0.0
H886 H 0.0102 0.13136 0.93511 0.0
C887 C 0.939 0.11307 0.96392 0.0
C888 C 0.94517 0.12475 0.98209 0.0
C889 C 0.95444 0.10578 0.94942 0.0
C890 C 0.01013 0.11437 0.93182 0.0
H891 H 0.06697 0.02897 0.88431 0.0
H892 H 0.03409 0.04906 0.89083 0.0
H893 H 0.04105 0.11547 0.91723 0.0
H894 H 0.9721 0.13862 -0.001 0.0
H895 H -0.00112 0.12613 0.97369 0.0
H896 H 0.98021 0.06936 0.93881 0.0
C897 C 0.04888 0.05472 0.89786 0.0
C898 C 0.02779 0.10525 0.92166 0.0
C899 C 0.06772 0.04329 0.89402 0.0
C900 C 0.96688 0.12956 0.98518 0.0
C901 C 0.98221 0.12258 0.97059 0.0
C902 C 0.99316 0.07964 0.93366 0.0
C903 C 0.04904 0.07279 0.91124 0.0
C904 C 0.02875 0.08307 0.91819 0.0
C905 C 0.97619 0.11043 0.95269 0.0
C906 C 0.99296 0.10153 0.93853 0.0
H907 H 0.10213 0.07382 0.92333 0.0
H908 H 0.06939 0.09348 0.93033 0.0
H909 H 0.01117 0.05331 0.92144 0.0
H910 H 0.92234 0.10918 0.96118 0.0
H911 H 0.94941 0.09643 0.93573 0.0
C912 C 0.52933 0.03146 0.5705 0.0
C913 C 0.53872 0.0469 0.58378 0.0
C914 C 0.54164 0.01508 0.56179 0.0
C915 C 0.58724 0.9824 0.57418 0.0
H916 H 0.57868 0.9612 0.51652 0.0
C917 C 0.59457 0.89391 0.55051 0.0
C918 C 0.60316 0.8888 0.53042 0.0
C919 C 0.59185 0.91524 0.55653 0.0
C920 C 0.58157 0.96706 0.53256 0.0
H921 H 0.56841 0.05781 0.59794 0.0
H922 H 0.59004 0.02862 0.583 0.0
H923 H 0.56458 0.99614 0.52654 0.0
H924 H 0.61642 0.90192 0.50118 0.0
H925 H 0.61148 0.93918 0.51165 0.0
H926 H 0.60343 0.95288 0.58045 0.0
C927 C 0.57315 0.02942 0.57923 0.0
C928 C 0.57339 0.987 0.5383 0.0
C929 C 0.56084 0.0461 0.58767 0.0
C930 C 0.60966 0.90539 0.51675 0.0
C931 C 0.6068 0.92671 0.5227 0.0
C932 C 0.59527 0.96235 0.56848 0.0
C933 C 0.56356 0.01362 0.56642 0.0
C934 C 0.57562 0.99457 0.55932 0.0
C935 C 0.59754 0.93184 0.5425 0.0
C936 C 0.592 0.95425 0.54777 0.0
H937 H 0.51231 0.03175 0.5672 0.0
H938 H 0.53378 0.00299 0.55218 0.0
H939 H 0.58905 0.98782 0.59053 0.0
H940 H 0.58947 0.88145 0.56139 0.0
H941 H 0.58443 0.91871 0.57179 0.0
C942 C 0.61727 0.08543 0.91349 0.0
C943 C 0.62802 0.09328 0.93154 0.0
C944 C 0.6203 0.06435 0.90683 0.0
C945 C 0.63393 0.0126 0.93041 0.0
H946 H 0.62148 0.99358 0.87277 0.0
C947 C 0.57987 0.94281 0.91245 0.0
C948 C 0.58112 0.93191 0.8929 0.0
C949 C 0.59475 0.95858 0.91754 0.0
C950 C 0.62556 -0.0016 0.8889 0.0
H951 H 0.6517 0.08587 0.95574 0.0
H952 H 0.65735 0.04915 0.94385 0.0
H953 H 0.63168 0.03054 0.879 0.0
H954 H 0.60001 0.9274 0.8642 0.0
H955 H 0.62623 0.95509 0.87314 0.0
H956 H 0.6273 0.98059 0.94035 0.0
C957 C 0.64617 0.05909 0.93514 0.0
C958 C 0.6311 0.01973 0.8925 0.0
C959 C 0.643 0.08014 0.9419 0.0
C960 C 0.59867 0.93564 0.87938 0.0
C961 C 0.61357 0.95158 0.88442 0.0
C962 C 0.6286 0.99124 0.92677 0.0
C963 C 0.63429 0.0507 0.91798 0.0
C964 C 0.63415 0.02735 0.91344 0.0
C965 C 0.61119 0.96387 0.90313 0.0
C966 C 0.62313 0.9842 0.90615 0.0
H967 H 0.60565 0.0952 0.90516 0.0
H968 H 0.61062 0.05845 0.89374 0.0
H969 H 0.6362 0.0178 0.94677 0.0
H970 H 0.56656 0.94015 0.92322 0.0
H971 H 0.59223 0.96778 0.93199 0.0
C972 C 0.40845 0.57359 0.8998 0.0
C973 C 0.40725 0.58033 0.87843 0.0
C974 C 0.39703 0.5557 0.9066 0.0
C975 C 0.37723 0.50618 0.88173 0.0
H976 H 0.37057 0.49035 0.94121 0.0
C977 C 0.39431 0.4212 0.91016 0.0
C978 C 0.38425 0.41315 0.92849 0.0
C979 C 0.39062 0.44219 0.90357 0.0
C980 C 0.37188 0.49441 0.92444 0.0
H981 H 0.39079 0.57573 0.84831 0.0
H982 H 0.36989 0.54517 0.86049 0.0
H983 H 0.37213 0.52782 0.9315 0.0
H984 H 0.36175 0.42033 0.95384 0.0
H985 H 0.35463 0.45674 0.94193 0.0
H986 H 0.3765 0.47283 0.8746 0.0
C987 C 0.38049 0.55296 0.87174 0.0
C988 C 0.37309 0.51601 0.91889 0.0
C989 C 0.39226 0.57066 0.8648 0.0
C990 C 0.3699 0.42624 0.93975 0.0
C991 C 0.3659 0.44714 0.93295 0.0
C992 C 0.37556 0.48464 0.88723 0.0
C993 C 0.38384 0.54436 0.89228 0.0
C994 C 0.37689 0.52217 0.89758 0.0
C995 C 0.37646 0.45553 0.91494 0.0
C996 C 0.37397 0.47841 0.90876 0.0
H997 H 0.41977 0.5808 0.91075 0.0
H998 H 0.40019 0.54974 0.92253 0.0
H999 H 0.38021 0.51006 0.86514 0.0
H1000 H 0.40553 0.41148 0.90123 0.0
H1001 H 0.39948 0.4481 0.88993 0.0
C1002 C 0.90056 0.09086 0.08677 0.0
C1003 C 0.89732 0.09038 0.06456 0.0
C1004 C 0.90356 0.07188 0.09816 0.0
C1005 C 0.90138 0.01225 0.0933 0.0
H1006 H 0.94944 0.01491 0.13238 0.0
C1007 C 0.95793 0.94191 0.11085 0.0
C1008 C 0.96641 0.93977 0.13153 0.0
C1009 C 0.94429 0.95889 0.10595 0.0
C1010 C 0.9357 0.01391 0.12186 0.0
H1011 H 0.89358 0.06967 0.03702 0.0
H1012 H 0.89941 0.03671 0.05664 0.0
H1013 H 0.93473 0.04774 0.11792 0.0
H1014 H 0.96636 0.95296 0.1636 0.0
H1015 H 0.94262 0.98274 0.15496 0.0
H1016 H 0.90334 0.97818 0.09643 0.0
C1017 C 0.89924 0.0516 0.06546 0.0
C1018 C 0.9272 0.03278 0.11358 0.0
C1019 C 0.89605 0.07054 0.05414 0.0
C1020 C 0.96011 0.95426 0.14749 0.0
C1021 C 0.9466 0.97134 0.14255 0.0
C1022 C 0.91004 0.99334 0.10145 0.0
C1023 C 0.9036 0.05205 0.08752 0.0
C1024 C 0.91028 0.03218 0.09876 0.0
C1025 C 0.939 0.97413 0.1216 0.0
C1026 C 0.92762 0.99397 0.11542 0.0
H1027 H 0.90142 0.10594 0.09525 0.0
H1028 H 0.90645 0.0728 0.1152 0.0
H1029 H 0.88808 0.01121 0.08226 0.0
H1030 H 0.96247 0.93094 0.09824 0.0
H1031 H 0.93884 0.96072 0.08962 0.0
C1032 C 0.97442 0.16078 0.34379 0.0
C1033 C 0.99586 0.15456 0.34625 0.0
C1034 C 0.96937 0.18164 0.33769 0.0
C1035 C 0.99106 0.23583 0.33968 0.0
H1036 H 0.94431 0.24892 0.30107 0.0
C1037 C 0.96732 0.32257 0.32352 0.0
C1038 C 0.94534 0.32687 0.32513 0.0
C1039 C 0.97459 0.30158 0.32166 0.0
C1040 C 0.95737 0.2455 0.31193 0.0
H1041 H 0.02884 0.16502 0.34375 0.0
H1042 H 0.01999 0.20147 0.33309 0.0
H1043 H 0.95504 0.21177 0.30653 0.0
H1044 H 0.91365 0.31279 0.32485 0.0
H1045 H 0.92634 0.27607 0.32203 0.0
H1046 H 0.99302 0.26934 0.34568 0.0
C1047 C 0.00711 0.19029 0.33606 0.0
C1048 C 0.9635 0.22426 0.31505 0.0
C1049 C 0.01216 0.16943 0.3421 0.0
C1050 C 0.9307 0.30992 0.32365 0.0
C1051 C 0.93798 0.28889 0.32192 0.0
C1052 C 0.9849 0.25702 0.33662 0.0
C1053 C 0.98565 0.19667 0.33399 0.0
C1054 C 0.98022 0.2192 0.32919 0.0
C1055 C 0.96004 0.28445 0.32152 0.0
C1056 C 0.9678 0.26209 0.32294 0.0
H1057 H 0.96153 0.14964 0.34684 0.0
H1058 H 0.95268 0.18615 0.33649 0.0
H1059 H 0.00378 0.23243 0.35093 0.0
H1060 H 0.97895 0.33536 0.32441 0.0
H1061 H 0.99166 0.29872 0.32094 0.0
C1062 C 0.95457 0.6743 0.17877 0.0
C1063 C 0.97323 0.66189 0.1776 0.0
C1064 C 0.95579 0.69604 0.18355 0.0
C1065 C 0.99259 0.73961 0.20099 0.0
H1066 H 0.96013 0.77281 0.15994 0.0
C1067 C 0.01721 0.82343 0.17242 0.0
C1068 C 0.00114 0.83831 0.16752 0.0
C1069 C 0.01185 0.80275 0.1788 0.0
C1070 C 0.96898 0.76389 0.17185 0.0
H1071 H 0.00761 0.66201 0.18195 0.0
H1072 H 0.00987 0.7001 0.18974 0.0
H1073 H 0.954 0.73468 0.16271 0.0
H1074 H 0.96688 0.84361 0.16642 0.0
H1075 H 0.95749 0.80745 0.17764 0.0
H1076 H 0.00821 0.76892 0.20938 0.0
C1077 C 0.99424 0.69306 0.1873 0.0
C1078 C 0.96544 0.74197 0.17347 0.0
C1079 C 0.99298 0.67124 0.18272 0.0
C1080 C 0.9796 0.8324 0.16992 0.0
C1081 C 0.97423 0.8117 0.1763 0.0
C1082 C 0.99617 0.76159 0.19931 0.0
C1083 C 0.97573 0.70584 0.18702 0.0
C1084 C 0.97752 0.72948 0.18772 0.0
C1085 C 0.9903 0.79654 0.1804 0.0
C1086 C 0.98472 0.77387 0.18438 0.0
H1087 H 0.93908 0.6674 0.17515 0.0
H1088 H 0.94119 0.70535 0.18368 0.0
H1089 H 0.00195 0.73047 0.21232 0.0
H1090 H 0.03395 0.82759 0.17077 0.0
H1091 H 0.02459 0.79137 0.18158 0.0
C1092 C 0.356 0.98282 0.16209 0.0
C1093 C 0.35899 0.00462 0.15768 0.0
C1094 C 0.35085 0.97608 0.18271 0.0
C1095 C 0.33092 0.99451 0.23525 0.0
H1096 H 0.36449 0.94707 0.25676 0.0
C1097 C 0.34257 0.97708 0.32496 0.0
C1098 C 0.34467 0.95574 0.33154 0.0
C1099 C 0.34046 0.98205 0.30331 0.0
C1100 C 0.35465 0.96006 0.25093 0.0
H1101 H 0.35831 0.03653 0.17116 0.0
H1102 H 0.34957 0.02472 0.20734 0.0
H1103 H 0.36804 0.95775 0.2196 0.0
H1104 H 0.34495 0.92278 0.32086 0.0
H1105 H 0.34091 0.93144 0.28304 0.0
H1106 H 0.31786 0.99705 0.26681 0.0
C1107 C 0.35098 0.01287 0.19479 0.0
C1108 C 0.35672 0.96621 0.22961 0.0
C1109 C 0.35613 0.01962 0.17413 0.0
C1110 C 0.34355 0.93939 0.31621 0.0
C1111 C 0.34135 0.94436 0.29456 0.0
C1112 C 0.3288 0.98832 0.25662 0.0
C1113 C 0.34861 0.99099 0.19935 0.0
C1114 C 0.3451 0.98366 0.22161 0.0
C1115 C 0.34032 0.96577 0.28783 0.0
C1116 C 0.34087 0.97119 0.26475 0.0
H1117 H 0.35793 0.97091 0.14968 0.0
H1118 H 0.34883 0.95915 0.18567 0.0
H1119 H 0.32155 0.00785 0.22944 0.0
H1120 H 0.34337 0.99001 0.33645 0.0
H1121 H 0.33992 -0.00128 0.29867 0.0
C1122 C 0.63906 0.51495 0.1609 0.0
C1123 C 0.63877 0.49365 0.15391 0.0
C1124 C 0.64463 0.51986 0.18194 0.0
C1125 C 0.67014 0.49715 0.23061 0.0
H1126 H 0.63761 0.54159 0.25906 0.0
C1127 C 0.66482 0.50857 0.3224 0.0
C1128 C 0.66518 0.52966 0.33008 0.0
C1129 C 0.66495 0.50457 0.30042 0.0
C1130 C 0.64704 0.52935 0.25124 0.0
H1131 H 0.64409 0.46075 0.1633 0.0
H1132 H 0.65308 0.4692 0.20026 0.0
H1133 H 0.63071 0.53379 0.22163 0.0
H1134 H 0.66709 0.56304 0.32093 0.0
H1135 H 0.66717 0.55601 0.28257 0.0
H1136 H 0.68585 0.49229 0.2607 0.0
C1137 C 0.64956 0.4822 0.18941 0.0
C1138 C 0.64313 0.52488 0.22976 0.0
C1139 C 0.64423 0.47733 0.16828 0.0
C1140 C 0.6667 0.54662 0.31546 0.0
C1141 C 0.66666 0.54262 0.29353 0.0
C1142 C 0.67389 0.50148 0.25221 0.0
C1143 C 0.64974 0.50353 0.19651 0.0
C1144 C 0.65456 0.50868 0.21919 0.0
C1145 C 0.66526 0.5216 0.28581 0.0
C1146 C 0.66232 0.51759 0.26271 0.0
H1147 H 0.63513 0.52787 0.15007 0.0
H1148 H 0.64498 0.53648 0.18674 0.0
H1149 H 0.67947 0.48479 0.22288 0.0
H1150 H 0.66369 0.4952 0.33333 0.0
H1151 H 0.66375 0.48821 0.29487 0.0
C1152 C 0.32105 0.33066 0.94045 0.0
C1153 C 0.33541 0.3298 0.95769 0.0
C1154 C 0.29906 0.32906 0.94399 0.0
C1155 C 0.25762 0.3164 0.98476 0.0
H1156 H 0.22672 0.3624 0.95702 0.0
C1157 C 0.17811 0.35033 0.01684 0.0
C1158 C 0.16261 0.35689 0.00199 0.0
C1159 C 0.19818 0.3434 0.00991 0.0
C1160 C 0.23495 0.34921 0.96462 0.0
H1161 H 0.33821 0.32509 0.99191 0.0
H1162 H 0.29985 0.32261 -0.00185 0.0
H1163 H 0.2636 0.35541 0.94714 0.0
H1164 H 0.15565 0.36073 0.96825 0.0
H1165 H 0.19061 0.34847 0.95612 0.0
H1166 H 0.229 0.31068 0.0027 0.0
C1167 C 0.30551 0.32433 0.98188 0.0
C1168 C 0.25612 0.34516 0.95892 0.0
C1169 C 0.3275 0.32586 0.97832 0.0
C1170 C 0.16736 0.35595 0.98007 0.0
C1171 C 0.1874 0.34897 0.97313 0.0
C1172 C 0.23639 0.32046 0.99047 0.0
C1173 C 0.29103 0.32665 0.96485 0.0
C1174 C 0.26782 0.32896 0.96916 0.0
C1175 C 0.20311 0.34286 0.98798 0.0
C1176 C 0.22496 0.33715 0.98071 0.0
H1177 H 0.32672 0.3335 0.92433 0.0
H1178 H 0.28831 0.33051 0.9305 0.0
H1179 H 0.26616 0.30365 0.99277 0.0
H1180 H 0.17485 0.35086 0.03385 0.0
H1181 H 0.21003 0.33906 0.02176 0.0
C1182 C 0.15535 0.62188 0.46649 0.0
C1183 C 0.14698 0.62383 0.48724 0.0
C1184 C 0.17673 0.6269 0.4624 0.0
C1185 C 0.22224 0.65757 0.4834 0.0
H1186 H 0.25691 0.61664 0.45234 0.0
C1187 C 0.31372 0.65496 0.48925 0.0
C1188 C 0.32568 0.64754 0.47177 0.0
C1189 C 0.29145 0.65561 0.48824 0.0
C1190 C 0.2474 0.62851 0.46061 0.0
H1191 H 0.15429 0.63265 0.51996 0.0
H1192 H 0.19167 0.64144 0.51282 0.0
H1193 H 0.2187 0.61036 0.45637 0.0
H1194 H 0.32391 0.63641 0.43899 0.0
H1195 H 0.28492 0.63798 0.43702 0.0
H1196 H 0.25095 0.67562 0.48788 0.0
C1197 C 0.18166 0.63615 0.4997 0.0
C1198 C 0.22552 0.62484 0.463 0.0
C1199 C 0.16034 0.63095 0.50382 0.0
C1200 C 0.31506 0.64207 0.45276 0.0
C1201 C 0.29274 0.64282 0.4517 0.0
C1202 C 0.24411 0.66135 0.48087 0.0
C1203 C 0.19005 0.63416 0.47896 0.0
C1204 C 0.21282 0.63909 0.47481 0.0
C1205 C 0.28066 0.64897 0.46966 0.0
C1206 C 0.25703 0.64661 0.46986 0.0
H1207 H 0.14538 0.61648 0.45339 0.0
H1208 H 0.18278 0.62532 0.44625 0.0
H1209 H 0.21272 0.669 0.49228 0.0
H1210 H 0.32148 0.6593 0.50412 0.0
H1211 H 0.2827 0.66022 0.50245 0.0
C1212 C 0.68301 0.80731 0.49923 0.0
C1213 C 0.66916 0.80948 0.51677 0.0
C1214 C 0.7051 0.80587 0.50244 0.0
C1215 C 0.74498 0.82374 0.541 0.0
H1216 H 0.78434 0.78925 0.50778 0.0
C1217 C 0.83553 0.83285 0.55189 0.0
C1218 C 0.84747 0.83401 0.53293 0.0
C1219 C 0.81437 0.82571 0.55146 0.0
C1220 C 0.77353 0.79904 0.51712 0.0
H1221 H 0.66731 0.81034 0.5514 0.0
H1222 H 0.70575 0.80767 0.55696 0.0
H1223 H 0.74578 0.78389 0.50381 0.0
H1224 H 0.84701 0.82791 0.4988 0.0
H1225 H 0.80996 0.81604 0.49793 0.0
H1226 H 0.77242 0.83951 0.55372 0.0
C1227 C 0.69964 0.80747 0.54075 0.0
C1228 C 0.7515 0.79594 0.51486 0.0
C1229 C 0.67763 0.80894 0.53756 0.0
C1230 C 0.83815 0.82719 0.51368 0.0
C1231 C 0.81696 0.82022 0.51321 0.0
C1232 C 0.76693 0.82692 0.54317 0.0
C1233 C 0.71364 0.80657 0.52323 0.0
C1234 C 0.73701 0.80842 0.52663 0.0
C1235 C 0.80468 0.81978 0.53203 0.0
C1236 C 0.78148 0.81481 0.53108 0.0
H1237 H 0.67688 0.80765 0.48304 0.0
H1238 H 0.71554 0.80531 0.48863 0.0
H1239 H 0.73421 0.83389 0.55 0.0
H1240 H 0.8424 0.83781 0.56699 0.0
H1241 H 0.80547 0.82519 0.56631 0.0
C1242 C 0.52973 0.8268 0.84431 0.0
C1243 C 0.51512 0.84366 0.84194 0.0
C1244 C 0.52402 0.80607 0.83825 0.0
C1245 C 0.47728 0.7725 0.83564 0.0
H1246 H 0.51394 0.73279 0.80531 0.0
C1247 C 0.45526 0.68351 0.83016 0.0
C1248 C 0.47225 0.66935 0.83389 0.0
C1249 C 0.45934 0.70508 0.826 0.0
C1250 C 0.50356 0.74365 0.81392 0.0
H1251 H 0.48349 0.85232 0.83057 0.0
H1252 H 0.47345 0.81605 0.82037 0.0
H1253 H 0.5241 0.77041 0.80778 0.0
H1254 H 0.50677 0.66638 0.83555 0.0
H1255 H 0.51385 0.70387 0.82916 0.0
H1256 H 0.45739 0.7458 0.843 0.0
C1257 C 0.48927 0.81889 0.82686 0.0
C1258 C 0.50936 0.76516 0.81522 0.0
C1259 C 0.49505 0.83961 0.83266 0.0
C1260 C 0.49334 0.67693 0.83271 0.0
C1261 C 0.49741 0.69846 0.82882 0.0
C1262 C 0.47164 0.75096 0.83463 0.0
C1263 C 0.50354 0.80189 0.82996 0.0
C1264 C 0.49645 0.77966 0.82643 0.0
C1265 C 0.48047 0.7129 0.82575 0.0
C1266 C 0.48494 0.73617 0.82416 0.0
H1267 H 0.54532 0.82952 0.85137 0.0
H1268 H 0.53524 0.79317 0.84095 0.0
H1269 H 0.46716 0.78336 0.84457 0.0
H1270 H 0.43885 0.67801 0.8308 0.0
H1271 H 0.44593 0.71569 0.82334 0.0
C1272 C 0.52336 0.32594 0.63617 0.0
C1273 C 0.50289 0.33517 0.63649 0.0
C1274 C 0.52577 0.30385 0.638 0.0
C1275 C 0.49945 0.25486 0.65607 0.0
H1276 H 0.5306 0.22738 0.61002 0.0
C1277 C 0.48889 0.16599 0.63656 0.0
C1278 C 0.5063 0.15441 0.62844 0.0
C1279 C 0.4906 0.18792 0.64006 0.0
C1280 C 0.52224 0.23474 0.62328 0.0
H1281 H 0.46897 0.32879 0.63979 0.0
H1282 H 0.47322 0.29013 0.64329 0.0
H1283 H 0.52993 0.26621 0.61232 0.0
H1284 H 0.53936 0.15641 0.61822 0.0
H1285 H 0.5426 0.19472 0.6249 0.0
H1286 H 0.49174 0.22349 0.66712 0.0
C1287 C 0.48735 0.29999 0.64156 0.0
C1288 C 0.52181 0.25699 0.62452 0.0
C1289 C 0.48492 0.32205 0.63943 0.0
C1290 C 0.52563 0.16503 0.62433 0.0
C1291 C 0.52744 0.18697 0.62807 0.0
C1292 C 0.50011 0.2326 0.65501 0.0
C1293 C 0.50777 0.29069 0.64051 0.0
C1294 C 0.51005 0.26722 0.64066 0.0
C1295 C 0.50985 0.19872 0.63576 0.0
C1296 C 0.5111 0.22227 0.63831 0.0
H1297 H 0.53749 0.33572 0.63394 0.0
H1298 H 0.54167 0.29701 0.63725 0.0
H1299 H 0.49047 0.26244 0.6688 0.0
H1300 H 0.47376 0.1582 0.6398 0.0
H1301 H 0.47659 0.19647 0.64558 0.0
C1302 C 0.8459 0.53542 0.81869 0.0
C1303 C 0.83725 0.52324 0.8354 0.0
C1304 C 0.83981 0.53147 0.79758 0.0
C1305 C 0.81865 0.48782 0.76434 0.0
H1306 H 0.81879 0.53184 0.72081 0.0
C1307 C 0.81445 0.50033 0.66639 0.0
C1308 C 0.82888 0.4842 0.66045 0.0
C1309 C 0.80972 0.5039 0.6879 0.0
C1310 C 0.81823 0.51933 0.73275 0.0
H1311 H 0.81452 0.49834 0.84341 0.0
H1312 H 0.80345 0.4918 0.80663 0.0
H1313 H 0.82042 0.54195 0.75827 0.0
H1314 H 0.84869 0.4583 0.6721 0.0
H1315 H 0.84093 0.46483 0.70966 0.0
H1316 H 0.81642 0.46519 0.7388 0.0
C1317 C 0.81536 0.504 0.80971 0.0
C1318 C 0.8195 0.52514 0.75424 0.0
C1319 C 0.8216 0.50782 0.83078 0.0
C1320 C 0.83748 0.47084 0.67625 0.0
C1321 C 0.83293 0.47454 0.69779 0.0
C1322 C 0.8172 0.482 0.74284 0.0
C1323 C 0.82479 0.51539 0.79281 0.0
C1324 C 0.82036 0.50944 0.77026 0.0
C1325 C 0.81951 0.49154 0.7039 0.0
C1326 C 0.81761 0.49766 0.72676 0.0
H1327 H 0.85804 0.5474 0.82182 0.0
H1328 H 0.84762 0.54037 0.78496 0.0
H1329 H 0.81942 0.47527 0.77622 0.0
H1330 H 0.80741 0.51072 0.65447 0.0
H1331 H 0.79895 0.51681 0.69202 0.0
C1332 C 0.1938 0.97889 0.6743 0.0
C1333 C 0.18135 0.99387 0.66318 0.0
C1334 C 0.19705 0.98104 0.6963 0.0
C1335 C 0.18773 0.01796 0.74262 0.0
H1336 H 0.18184 0.96475 0.77372 0.0
C1337 C 0.15467 0.98624 0.82897 0.0
C1338 C 0.16222 0.00265 0.84224 0.0
C1339 C 0.1613 0.98498 0.80771 0.0
C1340 C 0.18335 0.97979 0.76531 0.0
H1341 H 0.16342 0.02336 0.666 0.0
H1342 H 0.16825 0.02669 0.70432 0.0
H1343 H 0.18593 0.96398 0.73522 0.0
H1344 H 0.18327 0.0301 0.84409 0.0
H1345 H 0.19555 0.02746 0.8072 0.0
H1346 H 0.18338 0.03382 0.77251 0.0
C1347 C 0.17607 0.01356 0.6962 0.0
C1348 C 0.18612 0.97934 0.74318 0.0
C1349 C 0.17314 0.0116 0.67418 0.0
C1350 C 0.17703 0.01741 0.83409 0.0
C1351 C 0.18397 0.01594 0.81292 0.0
C1352 C 0.18457 0.01842 0.76471 0.0
C1353 C 0.18758 -0.002 0.70766 0.0
C1354 C 0.18783 -0.00155 0.73146 0.0
C1355 C 0.17594 -0.0001 0.79934 0.0
C1356 C 0.18182 -0.00066 0.77628 0.0
H1357 H 0.20049 0.96517 0.66612 0.0
H1358 H 0.20645 0.96904 0.70448 0.0
H1359 H 0.18945 0.03299 0.73422 0.0
H1360 H 0.14316 0.97471 0.83485 0.0
H1361 H 0.1544 0.97266 0.7977 0.0
C1362 C 0.8317 0.16952 0.99561 0.0
C1363 C 0.83967 0.16835 0.01656 0.0
C1364 C 0.81069 0.17606 0.99187 0.0
C1365 C 0.75855 0.17698 0.01816 0.0
H1366 H 0.74183 0.20993 0.96839 0.0
C1367 C 0.67023 0.18571 0.99648 0.0
C1368 C 0.66564 0.18052 0.97512 0.0
C1369 C 0.69117 0.19034 0.00271 0.0
C1370 C 0.74626 0.20074 0.98237 0.0
H1371 H 0.83222 0.17381 0.04998 0.0
H1372 H 0.79547 0.18527 0.04344 0.0
H1373 H 0.77971 0.20622 0.97732 0.0
H1374 H 0.67898 0.17763 0.94326 0.0
H1375 H 0.71553 0.18533 0.95415 0.0
H1376 H 0.72532 0.1707 0.02279 0.0
C1377 C 0.80541 0.18093 0.02993 0.0
C1378 C 0.76792 0.1986 0.98746 0.0
C1379 C 0.82644 0.17441 0.03367 0.0
C1380 C 0.68207 0.18151 0.95985 0.0
C1381 C 0.70301 0.18606 0.96609 0.0
C1382 C 0.73694 0.17908 0.01306 0.0
C1383 C 0.79722 0.18154 0.00901 0.0
C1384 C 0.7743 0.18626 0.00512 0.0
C1385 C 0.70792 0.18979 0.98772 0.0
C1386 C 0.73056 0.19054 0.99481 0.0
H1387 H 0.84156 0.16499 0.98211 0.0
H1388 H 0.80477 0.17607 0.9756 0.0
H1389 H 0.76293 0.16714 0.0317 0.0
H1390 H 0.65782 0.18526 0.00856 0.0
H1391 H 0.69438 0.19355 0.01943 0.0
C1392 C 0.04803 0.93646 0.20613 0.0
C1393 C 0.04884 0.94004 0.18399 0.0
C1394 C 0.05309 0.95284 0.2204 0.0
C1395 C 0.05065 0.01101 0.22241 0.0
H1396 H 0.07148 0.00188 0.28006 0.0
C1397 C 0.05583 0.05641 0.31001 0.0
C1398 C 0.03462 0.06377 0.3109 0.0
C1399 C 0.06279 0.04405 0.29272 0.0
C1400 C 0.066 0.00489 0.26391 0.0
H1401 H 0.05726 0.96293 0.15938 0.0
H1402 H 0.0664 0.99151 0.18436 0.0
H1403 H 0.07645 0.97414 0.25314 0.0
H1404 H 0.00432 0.06476 0.29409 0.0
H1405 H 0.0163 0.0431 0.26413 0.0
H1406 H 0.03981 0.04156 0.23327 0.0
C1407 C 0.06145 0.97618 0.19067 0.0
C1408 C 0.06865 0.98889 0.24855 0.0
C1409 C 0.05632 0.95979 0.17638 0.0
C1410 C 0.02075 0.05929 0.29384 0.0
C1411 C 0.0277 0.04702 0.27658 0.0
C1412 C 0.04805 0.02701 0.23774 0.0
C1413 C 0.05914 0.97312 0.21283 0.0
C1414 C 0.06031 0.99147 0.22784 0.0
C1415 C 0.04867 0.03893 0.27599 0.0
C1416 C 0.05498 0.0238 0.25885 0.0
H1417 H 0.04237 0.92138 0.21245 0.0
H1418 H 0.05092 0.94996 0.23733 0.0
H1419 H 0.04389 0.01352 0.20667 0.0
H1420 H 0.06689 0.0597 0.32293 0.0
H1421 H 0.07909 0.03821 0.29262 0.0
C1422 C 0.88945 0.43093 0.2873 0.0
C1423 C 0.90857 0.41921 0.28849 0.0
C1424 C 0.8866 0.44622 0.27124 0.0
C1425 C 0.90944 0.46661 0.2202 0.0
H1426 H 0.89448 0.52226 0.24302 0.0
C1427 C 0.93453 0.55816 0.20411 0.0
C1428 C 0.93373 0.5588 0.18169 0.0
C1429 C 0.92515 0.54126 0.21525 0.0
C1430 C 0.89856 0.50681 0.23635 0.0
H1431 H 0.93902 0.41315 0.27306 0.0
H1432 H 0.9341 0.43967 0.24517 0.0
H1433 H 0.88964 0.49051 0.26504 0.0
H1434 H 0.92143 0.54296 0.1534 0.0
H1435 H 0.90491 0.51346 0.17292 0.0
H1436 H 0.91969 0.48302 0.19205 0.0
C1437 C 0.92124 0.43712 0.25648 0.0
C1438 C 0.89554 0.48858 0.24887 0.0
C1439 C 0.92413 0.422 0.27257 0.0
C1440 C 0.92242 0.5428 0.17069 0.0
C1441 C 0.91303 0.52587 0.18185 0.0
C1442 C 0.91246 0.48483 0.20768 0.0
C1443 C 0.90274 0.44987 0.25601 0.0
C1444 C 0.90169 0.46837 0.24121 0.0
C1445 C 0.91475 0.52465 0.20422 0.0
C1446 C 0.90777 0.50521 0.21592 0.0
H1447 H 0.87717 0.42908 0.29939 0.0
H1448 H 0.87209 0.45568 0.27115 0.0
H1449 H 0.91408 0.45122 0.21376 0.0
H1450 H 0.94312 0.57027 0.21302 0.0
H1451 H 0.92702 0.54069 0.23246 0.0
C1452 C 0.18077 0.03631 0.96797 0.0
C1453 C 0.18614 0.03103 0.94681 0.0
C1454 C 0.19672 0.04181 0.98264 0.0
C1455 C 0.25349 0.05841 0.98692 0.0
H1456 H 0.25134 0.02897 0.04141 0.0
C1457 C 0.32801 0.04175 0.03769 0.0
C1458 C 0.32632 0.04196 0.06007 0.0
C1459 C 0.30997 0.04491 0.02496 0.0
C1460 C 0.25201 0.03769 0.02647 0.0
H1461 H 0.21225 0.02799 0.92419 0.0
H1462 H 0.24007 0.03738 0.94979 0.0
H1463 H 0.2212 0.02631 0.01693 0.0
H1464 H 0.30464 0.04652 0.08673 0.0
H1465 H 0.27301 0.05215 0.06441 0.0
H1466 H 0.2846 0.06925 0.99624 0.0
C1467 C 0.22356 0.03751 0.95504 0.0
C1468 C 0.23473 0.03615 0.01242 0.0
C1469 C 0.20764 0.03198 0.94041 0.0
C1470 C 0.30638 0.0462 0.0695 0.0
C1471 C 0.28828 0.04932 0.05674 0.0
C1472 C 0.27077 0.05997 0.00098 0.0
C1473 C 0.21831 0.04219 0.97639 0.0
C1474 C 0.2355 0.04607 0.99228 0.0
C1475 C 0.28983 0.04834 0.03433 0.0
C1476 C 0.27043 0.0492 0.0207 0.0
H1477 H 0.1643 0.03581 0.97332 0.0
H1478 H 0.19217 0.04555 -0.00108 0.0
H1479 H 0.25439 0.06655 0.97167 0.0
H1480 H 0.34318 0.03854 0.02996 0.0
H1481 H 0.31169 0.04377 0.00777 0.0
C1482 C 0.6921 0.50197 0.0577 0.0
C1483 C 0.68282 0.48191 0.06158 0.0
C1484 C 0.71033 0.50373 0.04501 0.0
C1485 C 0.73856 0.47582 0.00183 0.0
H1486 H 0.78168 0.51911 0.01247 0.0
C1487 C 0.81137 0.48975 0.9462 0.0
C1488 C 0.81541 0.51119 0.94094 0.0
C1489 C 0.79651 0.48462 0.96207 0.0
C1490 C 0.76971 0.507 0.00928 0.0
H1491 H 0.68577 0.44786 0.05594 0.0
H1492 H 0.71795 0.45091 0.03389 0.0
H1493 H 0.75417 0.51232 0.03926 0.0
H1494 H 0.80711 0.54408 0.94805 0.0
H1495 H 0.78116 0.53511 0.97576 0.0
H1496 H 0.75406 0.47069 0.97173 0.0
C1497 C 0.71089 0.4653 0.04043 0.0
C1498 C 0.75397 0.50311 0.0246 0.0
C1499 C 0.69257 0.46354 0.05315 0.0
C1500 C 0.8043 0.52741 0.95176 0.0
C1501 C 0.78958 0.52229 0.96773 0.0
C1502 C 0.7544 0.47963 0.98656 0.0
C1503 C 0.71976 0.48547 0.03595 0.0
C1504 C 0.73794 0.48779 0.02086 0.0
C1505 C 0.78559 0.50085 0.97308 0.0
C1506 C 0.76986 0.49556 0.98996 0.0
H1507 H 0.68492 0.51643 0.06395 0.0
H1508 H 0.71653 0.51954 0.04164 0.0
H1509 H 0.72629 0.46411 -0.00167 0.0
H1510 H 0.81976 0.47693 0.93812 0.0
H1511 H 0.7938 0.46797 0.96595 0.0
C1512 C 0.31292 0.90186 0.4427 0.0
C1513 C 0.30959 0.91746 0.42689 0.0
C1514 C 0.29769 0.89861 0.45873 0.0
C1515 C 0.24254 0.91276 0.47638 0.0
H1516 H 0.26892 0.91686 0.53236 0.0
C1517 C 0.22141 0.95257 0.56161 0.0
C1518 C 0.20026 0.94564 0.56456 0.0
C1519 C 0.23431 0.94316 0.54602 0.0
C1520 C 0.2613 0.91556 0.51686 0.0
H1521 H 0.287 0.94055 0.41437 0.0
H1522 H 0.26054 0.93501 0.44234 0.0
H1523 H 0.29114 0.91043 0.50105 0.0
H1524 H 0.1763 0.9228 0.55422 0.0
H1525 H 0.19891 0.90635 0.52687 0.0
H1526 H 0.21283 0.91918 0.49211 0.0
C1527 C 0.27481 0.9252 0.44239 0.0
C1528 C 0.274 0.91162 0.49892 0.0
C1529 C 0.29003 0.92846 0.42639 0.0
C1530 C 0.19254 0.9285 0.55225 0.0
C1531 C 0.20543 0.91915 0.53654 0.0
C1532 C 0.22982 0.91666 0.49434 0.0
C1533 C 0.27885 0.91086 0.45921 0.0
C1534 C 0.26485 0.91087 0.47839 0.0
C1535 C 0.22631 0.92667 0.53299 0.0
C1536 C 0.23918 0.91881 0.51467 0.0
H1537 H 0.3278 0.89304 0.44341 0.0
H1538 H 0.3011 0.8872 0.47129 0.0
H1539 H 0.235 0.91204 0.4608 0.0
H1540 H 0.22779 0.96575 0.57087 0.0
H1541 H 0.25023 0.94951 0.54352 0.0
C1542 C 0.79899 0.51793 0.55331 0.0
C1543 C 0.82136 0.51951 0.55427 0.0
C1544 C 0.7876 0.52844 0.53729 0.0
C1545 C 0.79382 0.54804 0.48268 0.0
H1546 H 0.73671 0.56987 0.49296 0.0
C1547 C 0.71141 0.57627 0.43566 0.0
C1548 C 0.70992 0.55869 0.42177 0.0
C1549 C 0.72845 0.57784 0.45007 0.0
C1550 C 0.7528 0.56432 0.48976 0.0
H1551 H 0.84935 0.53378 0.53961 0.0
H1552 H 0.82936 0.55221 0.51149 0.0
H1553 H 0.75965 0.56112 0.52311 0.0
H1554 H 0.72593 0.53001 0.41073 0.0
H1555 H 0.7554 0.5326 0.43583 0.0
H1556 H 0.78675 0.55075 0.4493 0.0
C1557 C 0.82068 0.54273 0.52309 0.0
C1558 C 0.76584 0.55903 0.50707 0.0
C1559 C 0.8321 0.53224 0.5392 0.0
C1560 C 0.72659 0.54368 0.42134 0.0
C1561 C 0.74361 0.54527 0.43566 0.0
C1562 C 0.78078 0.55337 0.46535 0.0
C1563 C 0.79832 0.54075 0.52184 0.0
C1564 C 0.78617 0.55006 0.50372 0.0
C1565 C 0.74432 0.56191 0.45074 0.0
C1566 C 0.75982 0.5608 0.4687 0.0
H1567 H 0.79028 0.50823 0.5647 0.0
H1568 H 0.77042 0.52627 0.53658 0.0
H1569 H 0.80939 0.54113 0.47954 0.0
H1570 H 0.69881 0.58813 0.43626 0.0
H1571 H 0.72873 0.59101 0.46131 0.0
C1572 C 0.06435 0.31674 0.05661 0.0
C1573 C 0.07058 0.32199 0.03569 0.0
C1574 C 0.05019 0.2998 0.06027 0.0
C1575 C 0.02521 0.25278 0.03343 0.0
H1576 H 0.97842 0.26295 0.07291 0.0
C1577 C 0.9441 0.21236 0.02504 0.0
C1578 C 0.93818 0.19909 0.04214 0.0
C1579 C 0.96086 0.22685 0.02732 0.0
C1580 C 0.99156 0.25986 0.06205 0.0
H1581 H 0.06741 0.31335 0.00226 0.0
H1582 H 0.04253 0.28434 0.00849 0.0
H1583 H 0.00819 0.28834 0.07117 0.0
H1584 H 0.94424 0.19144 0.07541 0.0
H1585 H 0.97337 0.21751 0.07953 0.0
H1586 H 0.00788 0.225 0.02347 0.0
C1587 C 0.04879 0.29285 0.0222 0.0
C1588 C 0.00866 0.27427 0.0611 0.0
C1589 C 0.06298 0.30963 0.01859 0.0
C1590 C 0.9485 0.20149 0.06198 0.0
C1591 C 0.96511 0.21632 0.06435 0.0
C1592 C 0.00802 0.23863 0.03416 0.0
C1593 C 0.04198 0.28788 0.04304 0.0
C1594 C 0.02541 0.27117 0.04636 0.0
C1595 C 0.97177 0.22861 0.04682 0.0
C1596 C 0.99087 0.24233 0.04811 0.0
H1597 H 0.07001 0.32601 0.0701 0.0
H1598 H 0.04548 0.29622 0.07654 0.0
H1599 H 0.03809 0.24959 0.0223 0.0
H1600 H 0.93647 0.21088 0.00956 0.0
H1601 H 0.96567 0.23636 0.01366 0.0
C1602 C 0.06067 0.68936 0.50573 0.0
C1603 C 0.05947 0.67445 0.48901 0.0
C1604 C 0.05023 0.70897 0.50413 0.0
C1605 C 0.00426 0.73349 0.47729 0.0
H1606 H 0.02528 0.78435 0.50585 0.0
C1607 C 0.95308 0.81009 0.48868 0.0
C1608 C 0.95208 0.81658 0.51016 0.0
C1609 C 0.96815 0.79486 0.4822 0.0
C1610 C 0.01928 0.77029 0.49769 0.0
H1611 H 0.04728 0.66872 0.45706 0.0
H1612 H 0.0292 0.70322 0.45413 0.0
H1613 H 0.0491 0.75388 0.50079 0.0
H1614 H 0.96627 0.81277 0.54157 0.0
H1615 H 0.99261 0.78647 0.53023 0.0
H1616 H 0.97428 0.74985 0.47466 0.0
C1617 C 0.03795 0.69959 0.46862 0.0
C1618 C 0.03286 0.75283 0.49487 0.0
C1619 C 0.04837 0.67989 0.47026 0.0
C1620 C 0.96663 0.80799 0.52492 0.0
C1621 C 0.98183 0.79308 0.5184 0.0
C1622 C 0.99073 0.75105 0.47996 0.0
C1623 C 0.03841 0.71418 0.48572 0.0
C1624 C 0.02529 0.73395 0.48531 0.0
C1625 C 0.98265 0.78626 0.49703 0.0
C1626 C -0.00208 0.76931 0.49084 0.0
H1627 H 0.06909 0.68561 0.52039 0.0
H1628 H 0.05067 0.71965 0.51776 0.0
H1629 H -0.00217 0.71914 0.47005 0.0
H1630 H 0.94203 0.81651 0.477 0.0
H1631 H 0.96849 0.78982 0.46563 0.0
C1632 C 0.55759 0.77713 0.55118 0.0
C1633 C 0.57095 0.7745 0.53332 0.0
C1634 C 0.5421 0.76177 0.55607 0.0
C1635 C 0.52252 0.70724 0.54124 0.0
H1636 H 0.46676 0.73239 0.55135 0.0
C1637 C 0.43101 0.68912 0.51647 0.0
C1638 C 0.43046 0.66688 0.51921 0.0
C1639 C 0.44778 0.70113 0.52496 0.0
C1640 C 0.48222 0.72508 0.54859 0.0
H1641 H 0.57953 0.7532 0.50736 0.0
H1642 H 0.55232 0.72676 0.51548 0.0
H1643 H 0.49853 0.75465 0.55345 0.0
H1644 H 0.44617 0.6399 0.53423 0.0
H1645 H 0.4753 0.66097 0.54949 0.0
H1646 H 0.50606 0.67807 0.53468 0.0
C1647 C 0.5539 0.74041 0.52601 0.0
C1648 C 0.50051 0.73779 0.55009 0.0
C1649 C 0.56944 0.75567 0.52123 0.0
C1650 C 0.44628 0.65703 0.53173 0.0
C1651 C 0.46303 0.66908 0.54036 0.0
C1652 C 0.5042 0.69457 0.53953 0.0
C1653 C 0.5396 0.74357 0.5431 0.0
C1654 C 0.52082 0.7292 0.54567 0.0
C1655 C 0.46432 0.69119 0.53652 0.0
C1656 C 0.48377 0.70353 0.54242 0.0
H1657 H 0.55852 0.79144 0.56089 0.0
H1658 H 0.53162 0.76452 0.56958 0.0
H1659 H 0.53795 0.7 0.53816 0.0
H1660 H 0.41904 0.69715 0.50688 0.0
H1661 H 0.44835 0.71805 0.5214 0.0
C1662 C 0.46155 0.55023 0.79706 0.0
C1663 C 0.47779 0.56339 0.80525 0.0
C1664 C 0.46654 0.53347 0.78323 0.0
C1665 C 0.50549 0.51479 0.74449 0.0
H1666 H 0.48135 0.45895 0.75642 0.0
C1667 C 0.52001 0.44387 0.68772 0.0
C1668 C 0.50179 0.43166 0.68289 0.0
C1669 C 0.51976 0.45821 0.70486 0.0
C1670 C 0.48811 0.47446 0.75277 0.0
H1671 H 0.51188 0.56979 0.80502 0.0
H1672 H 0.52054 0.54065 0.78031 0.0
H1673 H 0.47516 0.48836 0.78126 0.0
H1674 H 0.46938 0.42416 0.69267 0.0
H1675 H 0.46872 0.44941 0.72212 0.0
H1676 H 0.51764 0.5013 0.71555 0.0
C1677 C 0.50401 0.54326 0.7848 0.0
C1678 C 0.48459 0.49126 0.76702 0.0
C1679 C 0.49906 0.55987 0.7989 0.0
C1680 C 0.48369 0.43332 0.69605 0.0
C1681 C 0.48337 0.44775 0.71304 0.0
C1682 C 0.5088 0.49806 0.73008 0.0
C1683 C 0.48782 0.52973 0.77712 0.0
C1684 C 0.49295 0.51164 0.76282 0.0
C1685 C 0.50124 0.46071 0.71739 0.0
C1686 C 0.49982 0.47777 0.73386 0.0
H1687 H 0.44502 0.55255 0.80172 0.0
H1688 H 0.45374 0.52342 0.77728 0.0
H1689 H 0.51202 0.53042 0.74088 0.0
H1690 H 0.53423 0.44283 0.67788 0.0
H1691 H 0.53393 0.46767 0.70801 0.0
C1692 C 0.53585 0.95458 0.8067 0.0
C1693 C 0.51811 0.9481 0.8188 0.0
C1694 C 0.53338 0.96896 0.78987 0.0
C1695 C 0.49607 0.00883 0.76681 0.0
H1696 H 0.52979 -0.00108 0.71571 0.0
C1697 C 0.48284 0.0519 0.68547 0.0
C1698 C 0.50145 0.05912 0.67517 0.0
C1699 C 0.48431 0.03948 0.70399 0.0
C1700 C 0.52041 0.00198 0.72995 0.0
H1701 H 0.48388 0.95166 0.82299 0.0
H1702 H 0.4794 0.97638 0.79313 0.0
H1703 H 0.53324 0.97474 0.74593 0.0
H1704 H 0.53613 0.05958 0.67643 0.0
H1705 H 0.53866 0.03779 0.70859 0.0
H1706 H 0.48293 0.03589 0.75037 0.0
C1707 C 0.49532 0.97069 0.79691 0.0
C1708 C 0.52242 0.98818 0.7473 0.0
C1709 C 0.49784 0.95644 0.81392 0.0
C1710 C 0.52151 0.05419 0.68398 0.0
C1711 C 0.52297 0.04164 0.70232 0.0
C1712 C 0.4939 0.02254 0.7493 0.0
C1713 C 0.51305 0.97699 0.78459 0.0
C1714 C 0.51043 0.99153 0.76603 0.0
C1715 C 0.50442 0.03392 0.71232 0.0
C1716 C 0.50621 0.01933 0.7308 0.0
H1717 H 0.55171 0.94856 0.81026 0.0
H1718 H 0.54746 0.97382 0.78104 0.0
H1719 H 0.48677 0.01201 0.78106 0.0
H1720 H 0.46717 0.05551 0.67902 0.0
H1721 H 0.46977 0.03363 0.71137 0.0
C1722 C 0.44884 0.31085 0.90442 0.0
C1723 C 0.43195 0.30457 0.91785 0.0
C1724 C 0.46441 0.29609 0.8982 0.0
C1725 C 0.47834 0.23871 0.89613 0.0
H1726 H 0.53427 0.25779 0.91491 0.0
C1727 C 0.54265 0.18082 0.92566 0.0
C1728 C 0.56434 0.18652 0.92461 0.0
C1729 C 0.52692 0.19467 0.91808 0.0
C1730 C 0.51898 0.25223 0.90899 0.0
H1731 H 0.41713 0.2777 0.93391 0.0
H1732 H 0.44418 0.25187 0.92283 0.0
H1733 H 0.50504 0.28318 0.91287 0.0
H1734 H 0.58674 0.21045 0.91342 0.0
H1735 H 0.55928 0.23443 0.89948 0.0
H1736 H 0.49216 0.20764 0.89262 0.0
C1737 C 0.44544 0.26817 0.91717 0.0
C1738 C 0.50217 0.26685 0.90788 0.0
C1739 C 0.43002 0.28298 0.92361 0.0
C1740 C 0.5701 0.20576 0.91462 0.0
C1741 C 0.55435 0.21953 0.90676 0.0
C1742 C 0.49525 0.22411 0.89694 0.0
C1743 C 0.46318 0.27475 0.90506 0.0
C1744 C 0.48154 0.26009 0.90214 0.0
C1745 C 0.53251 0.21447 0.90901 0.0
C1746 C 0.51561 0.23053 0.90416 0.0
H1747 H 0.45071 0.3274 0.89971 0.0
H1748 H 0.47787 0.30152 0.88874 0.0
H1749 H 0.46262 0.23316 0.89143 0.0
H1750 H 0.53772 0.16608 0.9333 0.0
H1751 H 0.51033 0.19028 0.92042 0.0
loop_
_geom_bond_atom_site_label_1
_geom_bond_atom_site_label_2
_geom_bond_distance
_geom_bond_site_symmetry_2
_ccdc_geom_bond_type
In0 O1 2.294 . S
In0 O2 2.326 1_455 S
In0 O6 2.266 . S
In0 O7 2.325 . S
In0 O8 2.266 1_455 S
In0 O9 2.326 1_455 S
In0 O11 2.294 1_455 S
In0 O12 2.326 . S
O1 In0 2.294 . S
O1 C10 1.199 1_455 S
O2 In0 2.326 1_655 S
O2 C10 1.293 . S
C3 O6 1.252 . S
C3 O7 1.260 . S
C4 O11 1.240 . S
C4 O12 1.252 1_655 S
C5 O8 1.252 . S
C5 O9 1.260 . S
O6 In0 2.266 . S
O6 C3 1.252 . S
O7 In0 2.325 . S
O7 C3 1.260 . S
O8 In0 2.266 1_655 S
O8 C5 1.252 . S
O9 In0 2.326 1_655 S
O9 C5 1.260 . S
C10 O1 1.199 1_655 S
C10 O2 1.293 . S
O11 In0 2.294 1_655 S
O11 C4 1.240 . S
O12 In0 2.326 . S
O12 C4 1.252 1_455 S
In13 O14 2.294 1_655 S
In13 O15 2.326 . S
In13 O19 2.267 1_655 S
In13 O20 2.326 1_655 S
In13 O21 2.266 . S
In13 O22 2.325 . S
In13 O24 2.294 . S
In13 O25 2.326 1_655 S
O14 In13 2.294 1_455 S
O14 C23 1.240 . S
O15 In13 2.326 . S
O15 C23 1.252 1_655 S
C16 O19 1.252 . S
C16 O20 1.260 . S
C17 O24 1.229 1_455 S
C17 O25 1.263 . S
C18 O21 1.252 . S
C18 O22 1.260 . S
O19 In13 2.267 1_455 S
O19 C16 1.252 . S
O20 In13 2.326 1_455 S
O20 C16 1.260 . S
O21 In13 2.266 . S
O21 C18 1.252 . S
O22 In13 2.325 . S
O22 C18 1.260 . S
C23 O14 1.240 . S
C23 O15 1.252 1_455 S
O24 In13 2.294 . S
O24 C17 1.229 1_655 S
O25 In13 2.326 1_455 S
O25 C17 1.263 . S
In26 O27 2.294 1_455 S
In26 O28 2.326 . S
In26 O32 2.266 1_455 S
In26 O33 2.326 1_455 S
In26 O34 2.266 . S
In26 O35 2.325 . S
In26 O37 2.294 . S
In26 O38 2.326 1_455 S
O27 In26 2.294 1_655 S
O27 C36 1.240 . S
O28 In26 2.326 . S
O28 C36 1.252 1_455 S
C29 O32 1.252 . S
C29 O33 1.260 . S
C30 O37 1.255 . S
C30 O38 1.237 1_455 S
C31 O34 1.252 . S
C31 O35 1.260 . S
O32 In26 2.266 1_655 S
O32 C29 1.252 . S
O33 In26 2.326 1_655 S
O33 C29 1.260 . S
O34 In26 2.266 . S
O34 C31 1.252 . S
O35 In26 2.325 . S
O35 C31 1.260 . S
C36 O27 1.240 . S
C36 O28 1.252 1_655 S
O37 In26 2.294 . S
O37 C30 1.255 . S
O38 In26 2.326 1_655 S
O38 C30 1.237 1_655 S
In39 O40 2.294 . S
In39 O41 2.326 1_655 S
In39 O45 2.266 . S
In39 O46 2.325 . S
In39 O47 2.266 1_655 S
In39 O48 2.326 1_655 S
In39 O50 2.294 1_655 S
In39 O51 2.326 . S
O40 In39 2.294 . S
O40 C49 1.286 . S
O41 In39 2.326 1_455 S
O41 C49 1.206 1_455 S
C42 O45 1.252 . S
C42 O46 1.260 . S
C43 O50 1.240 . S
C43 O51 1.252 1_455 S
C44 O47 1.252 . S
C44 O48 1.260 . S
O45 In39 2.266 . S
O45 C42 1.252 . S
O46 In39 2.325 . S
O46 C42 1.260 . S
O47 In39 2.266 1_455 S
O47 C44 1.252 . S
O48 In39 2.326 1_455 S
O48 C44 1.260 . S
C49 O40 1.286 . S
C49 O41 1.206 1_655 S
O50 In39 2.294 1_455 S
O50 C43 1.240 . S
O51 In39 2.326 . S
O51 C43 1.252 1_655 S
In52 O53 2.294 1_545 S
In52 O54 2.326 . S
In52 O58 2.266 1_545 S
In52 O59 2.326 1_545 S
In52 O60 2.266 . S
In52 O61 2.325 . S
In52 O63 2.294 . S
In52 O64 2.326 1_545 S
O53 In52 2.294 1_565 S
O53 C62 1.240 . S
O54 In52 2.326 . S
O54 C62 1.252 1_545 S
C55 O58 1.252 . S
C55 O59 1.260 . S
C56 O63 1.199 1_565 S
C56 O64 1.293 . S
C57 O60 1.252 . S
C57 O61 1.260 . S
O58 In52 2.266 1_565 S
O58 C55 1.252 . S
O59 In52 2.326 1_565 S
O59 C55 1.260 . S
O60 In52 2.266 . S
O60 C57 1.252 . S
O61 In52 2.325 . S
O61 C57 1.260 . S
C62 O53 1.240 . S
C62 O54 1.252 1_565 S
O63 In52 2.294 . S
O63 C56 1.199 1_545 S
O64 In52 2.326 1_565 S
O64 C56 1.293 . S
In65 O66 2.294 . S
In65 O67 2.326 . S
In65 O71 2.266 . S
In65 O72 2.326 . S
In65 O73 2.266 . S
In65 O74 2.326 . S
In65 O76 2.294 . S
In65 O77 2.326 . S
O66 In65 2.294 . S
O66 C75 1.240 . S
O67 In65 2.326 . S
O67 C75 1.252 . S
C68 O71 1.252 . S
C68 O72 1.260 . S
C69 O76 1.240 . S
C69 O77 1.252 . S
C70 O73 1.252 . S
C70 O74 1.260 . S
O71 In65 2.266 . S
O71 C68 1.252 . S
O72 In65 2.326 . S
O72 C68 1.260 . S
O73 In65 2.266 . S
O73 C70 1.252 . S
O74 In65 2.326 . S
O74 C70 1.260 . S
C75 O66 1.240 . S
C75 O67 1.252 . S
O76 In65 2.294 . S
O76 C69 1.240 . S
O77 In65 2.326 . S
O77 C69 1.252 . S
In78 O79 2.294 1_565 S
In78 O80 2.326 . S
In78 O84 2.267 1_565 S
In78 O85 2.326 1_565 S
In78 O86 2.266 . S
In78 O87 2.325 . S
In78 O89 2.294 . S
In78 O90 2.326 1_565 S
O79 In78 2.294 1_545 S
O79 C88 1.240 . S
O80 In78 2.326 . S
O80 C88 1.252 1_565 S
C81 O84 1.252 . S
C81 O85 1.260 . S
C82 O89 1.229 1_545 S
C82 O90 1.263 . S
C83 O86 1.252 . S
C83 O87 1.260 . S
O84 In78 2.267 1_545 S
O84 C81 1.252 . S
O85 In78 2.326 1_545 S
O85 C81 1.260 . S
O86 In78 2.266 . S
O86 C83 1.252 . S
O87 In78 2.325 . S
O87 C83 1.260 . S
C88 O79 1.240 . S
C88 O80 1.252 1_545 S
O89 In78 2.294 . S
O89 C82 1.229 1_565 S
O90 In78 2.326 1_545 S
O90 C82 1.263 . S
In91 O92 2.294 . S
In91 O93 2.326 . S
In91 O97 2.266 . S
In91 O98 2.326 . S
In91 O99 2.266 . S
In91 O100 2.326 . S
In91 O102 2.294 . S
In91 O103 2.326 . S
O92 In91 2.294 . S
O92 C101 1.240 . S
O93 In91 2.326 . S
O93 C101 1.252 . S
C94 O97 1.252 . S
C94 O98 1.260 . S
C95 O102 1.240 . S
C95 O103 1.252 . S
C96 O99 1.252 . S
C96 O100 1.260 . S
O97 In91 2.266 . S
O97 C94 1.252 . S
O98 In91 2.326 . S
O98 C94 1.260 . S
O99 In91 2.266 . S
O99 C96 1.252 . S
O100 In91 2.326 . S
O100 C96 1.260 . S
C101 O92 1.240 . S
C101 O93 1.252 . S
O102 In91 2.294 . S
O102 C95 1.240 . S
O103 In91 2.326 . S
O103 C95 1.252 . S
In104 O105 2.294 . S
In104 O106 2.326 1_554 S
In104 O110 2.266 . S
In104 O111 2.325 . S
In104 O112 2.266 1_554 S
In104 O113 2.326 1_554 S
In104 O115 2.294 1_554 S
In104 O116 2.326 . S
O105 In104 2.294 . S
O105 C114 1.199 1_554 S
O106 In104 2.326 1_556 S
O106 C114 1.293 . S
C107 O110 1.252 . S
C107 O111 1.260 . S
C108 O115 1.240 . S
C108 O116 1.252 1_556 S
C109 O112 1.252 . S
C109 O113 1.260 . S
O110 In104 2.266 . S
O110 C107 1.252 . S
O111 In104 2.325 . S
O111 C107 1.260 . S
O112 In104 2.266 1_556 S
O112 C109 1.252 . S
O113 In104 2.326 1_556 S
O113 C109 1.260 . S
C114 O105 1.199 1_556 S
C114 O106 1.293 . S
O115 In104 2.294 1_556 S
O115 C108 1.240 . S
O116 In104 2.326 . S
O116 C108 1.252 1_554 S
In117 O118 2.294 . S
In117 O119 2.326 . S
In117 O123 2.266 . S
In117 O124 2.326 . S
In117 O125 2.266 . S
In117 O126 2.326 . S
In117 O128 2.294 . S
In117 O129 2.326 . S
O118 In117 2.294 . S
O118 C127 1.240 . S
O119 In117 2.326 . S
O119 C127 1.252 . S
C120 O123 1.252 . S
C120 O124 1.260 . S
C121 O128 1.240 . S
C121 O129 1.252 . S
C122 O125 1.252 . S
C122 O126 1.260 . S
O123 In117 2.266 . S
O123 C120 1.252 . S
O124 In117 2.326 . S
O124 C120 1.260 . S
O125 In117 2.266 . S
O125 C122 1.252 . S
O126 In117 2.326 . S
O126 C122 1.260 . S
C127 O118 1.240 . S
C127 O119 1.252 . S
O128 In117 2.294 . S
O128 C121 1.240 . S
O129 In117 2.326 . S
O129 C121 1.252 . S
In130 O131 2.294 . S
In130 O132 2.326 . S
In130 O136 2.266 . S
In130 O137 2.326 . S
In130 O138 2.266 . S
In130 O139 2.326 . S
In130 O141 2.294 . S
In130 O142 2.326 . S
O131 In130 2.294 . S
O131 C140 1.240 . S
O132 In130 2.326 . S
O132 C140 1.252 . S
C133 O136 1.252 . S
C133 O137 1.260 . S
C134 O141 1.240 . S
C134 O142 1.252 . S
C135 O138 1.252 . S
C135 O139 1.260 . S
O136 In130 2.266 . S
O136 C133 1.252 . S
O137 In130 2.326 . S
O137 C133 1.260 . S
O138 In130 2.266 . S
O138 C135 1.252 . S
O139 In130 2.326 . S
O139 C135 1.260 . S
C140 O131 1.240 . S
C140 O132 1.252 . S
O141 In130 2.294 . S
O141 C134 1.240 . S
O142 In130 2.326 . S
O142 C134 1.252 . S
In143 O144 2.294 . S
In143 O145 2.326 . S
In143 O149 2.266 . S
In143 O150 2.326 . S
In143 O151 2.266 . S
In143 O152 2.326 . S
In143 O154 2.294 . S
In143 O155 2.326 . S
O144 In143 2.294 . S
O144 C153 1.240 . S
O145 In143 2.326 . S
O145 C153 1.252 . S
C146 O149 1.252 . S
C146 O150 1.260 . S
C147 O154 1.240 . S
C147 O155 1.252 . S
C148 O151 1.252 . S
C148 O152 1.260 . S
O149 In143 2.266 . S
O149 C146 1.252 . S
O150 In143 2.326 . S
O150 C146 1.260 . S
O151 In143 2.266 . S
O151 C148 1.252 . S
O152 In143 2.326 . S
O152 C148 1.260 . S
C153 O144 1.240 . S
C153 O145 1.252 . S
O154 In143 2.294 . S
O154 C147 1.240 . S
O155 In143 2.326 . S
O155 C147 1.252 . S
In156 O157 2.294 . S
In156 O158 2.326 . S
In156 O162 2.266 . S
In156 O163 2.326 . S
In156 O164 2.266 . S
In156 O165 2.326 . S
In156 O167 2.294 . S
In156 O168 2.326 . S
O157 In156 2.294 . S
O157 C166 1.240 . S
O158 In156 2.326 . S
O158 C166 1.252 . S
C159 O162 1.252 . S
C159 O163 1.260 . S
C160 O167 1.240 . S
C160 O168 1.252 . S
C161 O164 1.252 . S
C161 O165 1.260 . S
O162 In156 2.266 . S
O162 C159 1.252 . S
O163 In156 2.326 . S
O163 C159 1.260 . S
O164 In156 2.266 . S
O164 C161 1.252 . S
O165 In156 2.326 . S
O165 C161 1.260 . S
C166 O157 1.240 . S
C166 O158 1.252 . S
O167 In156 2.294 . S
O167 C160 1.240 . S
O168 In156 2.326 . S
O168 C160 1.252 . S
In169 O170 2.294 . S
In169 O171 2.326 . S
In169 O175 2.266 . S
In169 O176 2.326 . S
In169 O177 2.266 . S
In169 O178 2.326 . S
In169 O180 2.294 . S
In169 O181 2.326 . S
O170 In169 2.294 . S
O170 C179 1.240 . S
O171 In169 2.326 . S
O171 C179 1.252 . S
C172 O175 1.252 . S
C172 O176 1.260 . S
C173 O180 1.240 . S
C173 O181 1.252 . S
C174 O177 1.252 . S
C174 O178 1.260 . S
O175 In169 2.266 . S
O175 C172 1.252 . S
O176 In169 2.326 . S
O176 C172 1.260 . S
O177 In169 2.266 . S
O177 C174 1.252 . S
O178 In169 2.326 . S
O178 C174 1.260 . S
C179 O170 1.240 . S
C179 O171 1.252 . S
O180 In169 2.294 . S
O180 C173 1.240 . S
O181 In169 2.326 . S
O181 C173 1.252 . S
In182 O183 2.294 . S
In182 O184 2.326 . S
In182 O188 2.266 . S
In182 O189 2.326 . S
In182 O190 2.266 . S
In182 O191 2.326 . S
In182 O193 2.294 . S
In182 O194 2.326 . S
O183 In182 2.294 . S
O183 C192 1.240 . S
O184 In182 2.326 . S
O184 C192 1.252 . S
C185 O188 1.252 . S
C185 O189 1.260 . S
C186 O193 1.240 . S
C186 O194 1.252 . S
C187 O190 1.252 . S
C187 O191 1.260 . S
O188 In182 2.266 . S
O188 C185 1.252 . S
O189 In182 2.326 . S
O189 C185 1.260 . S
O190 In182 2.266 . S
O190 C187 1.252 . S
O191 In182 2.326 . S
O191 C187 1.260 . S
C192 O183 1.240 . S
C192 O184 1.252 . S
O193 In182 2.294 . S
O193 C186 1.240 . S
O194 In182 2.326 . S
O194 C186 1.252 . S
In195 O196 2.294 . S
In195 O197 2.326 . S
In195 O201 2.266 . S
In195 O202 2.326 . S
In195 O203 2.266 . S
In195 O204 2.326 . S
In195 O206 2.294 . S
In195 O207 2.326 . S
O196 In195 2.294 . S
O196 C205 1.240 . S
O197 In195 2.326 . S
O197 C205 1.252 . S
C198 O201 1.252 . S
C198 O202 1.260 . S
C199 O206 1.240 . S
C199 O207 1.252 . S
C200 O203 1.252 . S
C200 O204 1.260 . S
O201 In195 2.266 . S
O201 C198 1.252 . S
O202 In195 2.326 . S
O202 C198 1.260 . S
O203 In195 2.266 . S
O203 C200 1.252 . S
O204 In195 2.326 . S
O204 C200 1.260 . S
C205 O196 1.240 . S
C205 O197 1.252 . S
O206 In195 2.294 . S
O206 C199 1.240 . S
O207 In195 2.326 . S
O207 C199 1.252 . S
In208 O209 2.294 . S
In208 O210 2.326 . S
In208 O214 2.266 . S
In208 O215 2.326 . S
In208 O216 2.266 . S
In208 O217 2.326 . S
In208 O219 2.294 . S
In208 O220 2.326 . S
O209 In208 2.294 . S
O209 C218 1.240 . S
O210 In208 2.326 . S
O210 C218 1.252 . S
C211 O214 1.252 . S
C211 O215 1.260 . S
C212 O219 1.240 . S
C212 O220 1.252 . S
C213 O216 1.252 . S
C213 O217 1.260 . S
O214 In208 2.266 . S
O214 C211 1.252 . S
O215 In208 2.326 . S
O215 C211 1.260 . S
O216 In208 2.266 . S
O216 C213 1.252 . S
O217 In208 2.326 . S
O217 C213 1.260 . S
C218 O209 1.240 . S
C218 O210 1.252 . S
O219 In208 2.294 . S
O219 C212 1.240 . S
O220 In208 2.326 . S
O220 C212 1.252 . S
In221 O222 2.294 1_565 S
In221 O223 2.326 . S
In221 O227 2.266 1_565 S
In221 O228 2.326 1_565 S
In221 O229 2.266 . S
In221 O230 2.325 . S
In221 O232 2.294 . S
In221 O233 2.326 1_565 S
O222 In221 2.294 1_545 S
O222 C231 1.240 . S
O223 In221 2.326 . S
O223 C231 1.252 1_565 S
C224 O227 1.252 . S
C224 O228 1.260 . S
C225 O232 1.286 . S
C225 O233 1.206 1_565 S
C226 O229 1.252 . S
C226 O230 1.260 . S
O227 In221 2.266 1_545 S
O227 C224 1.252 . S
O228 In221 2.326 1_545 S
O228 C224 1.260 . S
O229 In221 2.266 . S
O229 C226 1.252 . S
O230 In221 2.325 . S
O230 C226 1.260 . S
C231 O222 1.240 . S
C231 O223 1.252 1_545 S
O232 In221 2.294 . S
O232 C225 1.286 . S
O233 In221 2.326 1_545 S
O233 C225 1.206 1_545 S
In234 O235 2.294 . S
In234 O236 2.326 . S
In234 O240 2.266 . S
In234 O241 2.326 . S
In234 O242 2.266 . S
In234 O243 2.326 . S
In234 O245 2.294 . S
In234 O246 2.326 . S
O235 In234 2.294 . S
O235 C244 1.240 . S
O236 In234 2.326 . S
O236 C244 1.252 . S
C237 O240 1.252 . S
C237 O241 1.260 . S
C238 O245 1.240 . S
C238 O246 1.252 . S
C239 O242 1.252 . S
C239 O243 1.260 . S
O240 In234 2.266 . S
O240 C237 1.252 . S
O241 In234 2.326 . S
O241 C237 1.260 . S
O242 In234 2.266 . S
O242 C239 1.252 . S
O243 In234 2.326 . S
O243 C239 1.260 . S
C244 O235 1.240 . S
C244 O236 1.252 . S
O245 In234 2.294 . S
O245 C238 1.240 . S
O246 In234 2.326 . S
O246 C238 1.252 . S
In247 O248 2.294 . S
In247 O249 2.326 1_545 S
In247 O253 2.266 . S
In247 O254 2.325 . S
In247 O255 2.266 1_545 S
In247 O256 2.326 1_545 S
In247 O258 2.294 1_545 S
In247 O259 2.326 . S
O248 In247 2.294 . S
O248 C257 1.255 . S
O249 In247 2.326 1_565 S
O249 C257 1.237 1_565 S
C250 O253 1.252 . S
C250 O254 1.260 . S
C251 O258 1.240 . S
C251 O259 1.252 1_565 S
C252 O255 1.252 . S
C252 O256 1.260 . S
O253 In247 2.266 . S
O253 C250 1.252 . S
O254 In247 2.325 . S
O254 C250 1.260 . S
O255 In247 2.266 1_565 S
O255 C252 1.252 . S
O256 In247 2.326 1_565 S
O256 C252 1.260 . S
C257 O248 1.255 . S
C257 O249 1.237 1_545 S
O258 In247 2.294 1_565 S
O258 C251 1.240 . S
O259 In247 2.326 . S
O259 C251 1.252 1_545 S
In260 O261 2.294 . S
In260 O262 2.326 . S
In260 O266 2.266 . S
In260 O267 2.326 . S
In260 O268 2.266 . S
In260 O269 2.326 . S
In260 O271 2.294 . S
In260 O272 2.326 . S
O261 In260 2.294 . S
O261 C270 1.240 . S
O262 In260 2.326 . S
O262 C270 1.252 . S
C263 O266 1.252 . S
C263 O267 1.260 . S
C264 O271 1.240 . S
C264 O272 1.252 . S
C265 O268 1.252 . S
C265 O269 1.260 . S
O266 In260 2.266 . S
O266 C263 1.252 . S
O267 In260 2.326 . S
O267 C263 1.260 . S
O268 In260 2.266 . S
O268 C265 1.252 . S
O269 In260 2.326 . S
O269 C265 1.260 . S
C270 O261 1.240 . S
C270 O262 1.252 . S
O271 In260 2.294 . S
O271 C264 1.240 . S
O272 In260 2.326 . S
O272 C264 1.252 . S
In273 O274 2.294 . S
In273 O275 2.326 1_556 S
In273 O279 2.266 . S
In273 O280 2.325 . S
In273 O281 2.266 1_556 S
In273 O282 2.326 1_556 S
In273 O284 2.294 1_556 S
In273 O285 2.326 . S
O274 In273 2.294 . S
O274 C283 1.286 . S
O275 In273 2.326 1_554 S
O275 C283 1.206 1_554 S
C276 O279 1.252 . S
C276 O280 1.260 . S
C277 O284 1.240 . S
C277 O285 1.252 1_554 S
C278 O281 1.252 . S
C278 O282 1.260 . S
O279 In273 2.266 . S
O279 C276 1.252 . S
O280 In273 2.325 . S
O280 C276 1.260 . S
O281 In273 2.266 1_554 S
O281 C278 1.252 . S
O282 In273 2.326 1_554 S
O282 C278 1.260 . S
C283 O274 1.286 . S
C283 O275 1.206 1_556 S
O284 In273 2.294 1_554 S
O284 C277 1.240 . S
O285 In273 2.326 . S
O285 C277 1.252 1_556 S
In286 O287 2.294 . S
In286 O288 2.326 1_556 S
In286 O292 2.266 . S
In286 O293 2.325 . S
In286 O294 2.267 1_556 S
In286 O295 2.326 1_556 S
In286 O297 2.294 1_556 S
In286 O298 2.326 . S
O287 In286 2.294 . S
O287 C296 1.229 1_556 S
O288 In286 2.326 1_554 S
O288 C296 1.263 . S
C289 O292 1.252 . S
C289 O293 1.260 . S
C290 O297 1.240 . S
C290 O298 1.252 1_554 S
C291 O294 1.252 . S
C291 O295 1.260 . S
O292 In286 2.266 . S
O292 C289 1.252 . S
O293 In286 2.325 . S
O293 C289 1.260 . S
O294 In286 2.267 1_554 S
O294 C291 1.252 . S
O295 In286 2.326 1_554 S
O295 C291 1.260 . S
C296 O287 1.229 1_554 S
C296 O288 1.263 . S
O297 In286 2.294 1_554 S
O297 C290 1.240 . S
O298 In286 2.326 . S
O298 C290 1.252 1_556 S
In299 O300 2.294 1_554 S
In299 O301 2.326 . S
In299 O305 2.266 1_554 S
In299 O306 2.326 1_554 S
In299 O307 2.266 . S
In299 O308 2.325 . S
In299 O310 2.294 . S
In299 O311 2.326 1_554 S
O300 In299 2.294 1_556 S
O300 C309 1.240 . S
O301 In299 2.326 . S
O301 C309 1.252 1_554 S
C302 O305 1.252 . S
C302 O306 1.260 . S
C303 O310 1.255 . S
C303 O311 1.237 1_554 S
C304 O307 1.252 . S
C304 O308 1.260 . S
O305 In299 2.266 1_556 S
O305 C302 1.252 . S
O306 In299 2.326 1_556 S
O306 C302 1.260 . S
O307 In299 2.266 . S
O307 C304 1.252 . S
O308 In299 2.325 . S
O308 C304 1.260 . S
C309 O300 1.240 . S
C309 O301 1.252 1_556 S
O310 In299 2.294 . S
O310 C303 1.255 . S
O311 In299 2.326 1_556 S
O311 C303 1.237 1_556 S
C312 C313 1.349 . S
C312 C314 1.327 . S
C312 H337 0.950 . S
C313 C312 1.349 . S
C313 C329 1.349 . S
C314 C312 1.327 . S
C314 C333 1.429 . S
C314 H338 0.950 . S
C315 C332 1.574 . S
C315 C334 1.368 . S
C315 H339 0.949 . S
H316 C320 0.949 . S
C317 C318 1.349 . S
C317 C319 1.327 . S
C317 H340 0.950 . S
C318 C317 1.349 . S
C318 C330 1.349 . S
C319 C317 1.327 . S
C319 C335 1.429 . S
C319 H341 0.950 . S
C320 H316 0.949 . S
C320 C328 1.574 . S
C320 C336 1.368 . S
H321 C329 0.950 . S
H322 C327 0.950 . S
H323 C328 0.949 . S
H324 C330 0.950 . S
H325 C331 0.950 . S
H326 C332 0.949 . S
C327 H322 0.950 . S
C327 C329 1.327 . S
C327 C333 1.429 . S
C328 C320 1.574 . S
C328 H323 0.949 . S
C328 C334 1.368 . S
C329 C313 1.349 . S
C329 H321 0.950 . S
C329 C327 1.327 . S
C330 C318 1.349 . S
C330 H324 0.950 . S
C330 C331 1.327 . S
C331 H325 0.950 . S
C331 C330 1.327 . S
C331 C335 1.429 . S
C332 C315 1.574 . S
C332 H326 0.949 . S
C332 C336 1.368 . S
C333 C314 1.429 . S
C333 C327 1.429 . S
C333 C334 1.523 . S
C334 C315 1.368 . S
C334 C328 1.368 . S
C334 C333 1.523 . S
C335 C319 1.429 . S
C335 C331 1.429 . S
C335 C336 1.523 . S
C336 C320 1.368 . S
C336 C332 1.368 . S
C336 C335 1.523 . S
H337 C312 0.950 . S
H338 C314 0.950 . S
H339 C315 0.949 . S
H340 C317 0.950 . S
H341 C319 0.950 . S
C342 C343 1.349 . S
C342 C344 1.327 . S
C342 H367 0.950 . S
C343 C342 1.349 . S
C343 C359 1.349 . S
C344 C342 1.327 . S
C344 C363 1.429 . S
C344 H368 0.950 . S
C345 C362 1.574 . S
C345 C364 1.368 . S
C345 H369 0.949 . S
H346 C350 0.949 . S
C347 C348 1.349 . S
C347 C349 1.327 . S
C347 H370 0.950 . S
C348 C347 1.349 . S
C348 C360 1.349 . S
C349 C347 1.327 . S
C349 C365 1.429 . S
C349 H371 0.950 . S
C350 H346 0.949 . S
C350 C358 1.574 . S
C350 C366 1.368 . S
H351 C359 0.950 . S
H352 C357 0.950 . S
H353 C358 0.949 . S
H354 C360 0.950 . S
H355 C361 0.950 . S
H356 C362 0.949 . S
C357 H352 0.950 . S
C357 C359 1.327 . S
C357 C363 1.429 . S
C358 C350 1.574 . S
C358 H353 0.949 . S
C358 C364 1.368 . S
C359 C343 1.349 . S
C359 H351 0.950 . S
C359 C357 1.327 . S
C360 C348 1.349 . S
C360 H354 0.950 . S
C360 C361 1.327 . S
C361 H355 0.950 . S
C361 C360 1.327 . S
C361 C365 1.429 . S
C362 C345 1.574 . S
C362 H356 0.949 . S
C362 C366 1.368 . S
C363 C344 1.429 . S
C363 C357 1.429 . S
C363 C364 1.523 . S
C364 C345 1.368 . S
C364 C358 1.368 . S
C364 C363 1.523 . S
C365 C349 1.429 . S
C365 C361 1.429 . S
C365 C366 1.523 . S
C366 C350 1.368 . S
C366 C362 1.368 . S
C366 C365 1.523 . S
H367 C342 0.950 . S
H368 C344 0.950 . S
H369 C345 0.949 . S
H370 C347 0.950 . S
H371 C349 0.950 . S
C372 C373 1.349 . S
C372 C374 1.327 . S
C372 H397 0.950 . S
C373 C372 1.349 . S
C373 C389 1.349 . S
C374 C372 1.327 . S
C374 C393 1.429 . S
C374 H398 0.950 . S
C375 C392 1.574 . S
C375 C394 1.368 . S
C375 H399 0.949 . S
H376 C380 0.949 1_556 S
C377 C378 1.349 . S
C377 C379 1.327 . S
C377 H400 0.950 . S
C378 C377 1.349 . S
C378 C390 1.349 . S
C379 C377 1.327 . S
C379 C395 1.429 . S
C379 H401 0.950 1_556 S
C380 H376 0.949 1_554 S
C380 C388 1.574 . S
C380 C396 1.368 . S
H381 C389 0.950 . S
H382 C387 0.950 . S
H383 C388 0.949 . S
H384 C390 0.950 . S
H385 C391 0.950 . S
H386 C392 0.949 . S
C387 H382 0.950 . S
C387 C389 1.327 . S
C387 C393 1.429 . S
C388 C380 1.574 . S
C388 H383 0.949 . S
C388 C394 1.368 . S
C389 C373 1.349 . S
C389 H381 0.950 . S
C389 C387 1.327 . S
C390 C378 1.349 . S
C390 H384 0.950 . S
C390 C391 1.327 . S
C391 H385 0.950 . S
C391 C390 1.327 . S
C391 C395 1.429 . S
C392 C375 1.574 . S
C392 H386 0.949 . S
C392 C396 1.368 . S
C393 C374 1.429 . S
C393 C387 1.429 . S
C393 C394 1.523 . S
C394 C375 1.368 . S
C394 C388 1.368 . S
C394 C393 1.523 . S
C395 C379 1.429 . S
C395 C391 1.429 . S
C395 C396 1.523 1_556 S
C396 C380 1.368 . S
C396 C392 1.368 . S
C396 C395 1.523 1_554 S
H397 C372 0.950 . S
H398 C374 0.950 . S
H399 C375 0.949 . S
H400 C377 0.950 . S
H401 C379 0.950 1_554 S
C402 C403 1.349 . S
C402 C404 1.327 . S
C402 H427 0.950 . S
C403 C402 1.349 . S
C403 C419 1.349 . S
C404 C402 1.327 . S
C404 C423 1.429 . S
C404 H428 0.950 . S
C405 C422 1.574 . S
C405 C424 1.368 . S
C405 H429 0.949 . S
H406 C410 0.949 1_556 S
C407 C408 1.349 . S
C407 C409 1.327 . S
C407 H430 0.950 . S
C408 C407 1.349 . S
C408 C420 1.349 . S
C409 C407 1.327 . S
C409 C425 1.429 . S
C409 H431 0.950 . S
C410 H406 0.949 1_554 S
C410 C418 1.574 . S
C410 C426 1.368 . S
H411 C419 0.950 . S
H412 C417 0.950 . S
H413 C418 0.949 . S
H414 C420 0.950 . S
H415 C421 0.950 . S
H416 C422 0.949 . S
C417 H412 0.950 . S
C417 C419 1.327 . S
C417 C423 1.429 . S
C418 C410 1.574 . S
C418 H413 0.949 . S
C418 C424 1.368 . S
C419 C403 1.349 . S
C419 H411 0.950 . S
C419 C417 1.327 . S
C420 C408 1.349 . S
C420 H414 0.950 . S
C420 C421 1.327 . S
C421 H415 0.950 . S
C421 C420 1.327 . S
C421 C425 1.429 . S
C422 C405 1.574 . S
C422 H416 0.949 . S
C422 C426 1.368 . S
C423 C404 1.429 . S
C423 C417 1.429 . S
C423 C424 1.523 . S
C424 C405 1.368 . S
C424 C418 1.368 . S
C424 C423 1.523 . S
C425 C409 1.429 . S
C425 C421 1.429 . S
C425 C426 1.523 1_556 S
C426 C410 1.368 . S
C426 C422 1.368 . S
C426 C425 1.523 1_554 S
H427 C402 0.950 . S
H428 C404 0.950 . S
H429 C405 0.949 . S
H430 C407 0.950 . S
H431 C409 0.950 . S
C432 C433 1.349 . S
C432 C434 1.327 . S
C432 H457 0.950 . S
C433 C432 1.349 . S
C433 C449 1.349 . S
C434 C432 1.327 . S
C434 C453 1.429 . S
C434 H458 0.950 . S
C435 C452 1.574 . S
C435 C454 1.368 . S
C435 H459 0.949 . S
H436 C440 0.949 . S
C437 C438 1.349 . S
C437 C439 1.327 . S
C437 H460 0.961 . S
C438 C437 1.349 . S
C438 C450 1.349 . S
C439 C437 1.327 . S
C439 C455 1.429 . S
C439 H461 0.950 . S
C440 H436 0.949 . S
C440 C448 1.574 . S
C440 C456 1.368 . S
H441 C449 0.950 . S
H442 C447 0.950 . S
H443 C448 0.949 . S
H444 C450 0.950 . S
H445 C451 0.950 . S
H446 C452 0.949 . S
C447 H442 0.950 . S
C447 C449 1.327 . S
C447 C453 1.429 . S
C448 C440 1.574 . S
C448 H443 0.949 . S
C448 C454 1.368 . S
C449 C433 1.349 . S
C449 H441 0.950 . S
C449 C447 1.327 . S
C450 C438 1.349 . S
C450 H444 0.950 . S
C450 C451 1.327 . S
C451 H445 0.950 . S
C451 C450 1.327 . S
C451 C455 1.429 . S
C452 C435 1.574 . S
C452 H446 0.949 . S
C452 C456 1.368 . S
C453 C434 1.429 . S
C453 C447 1.429 . S
C453 C454 1.523 . S
C454 C435 1.368 . S
C454 C448 1.368 . S
C454 C453 1.523 . S
C455 C439 1.429 . S
C455 C451 1.429 . S
C455 C456 1.523 . S
C456 C440 1.368 . S
C456 C452 1.368 . S
C456 C455 1.523 . S
H457 C432 0.950 . S
H458 C434 0.950 . S
H459 C435 0.949 . S
H460 C437 0.961 . S
H461 C439 0.950 . S
C462 C463 1.349 . S
C462 C464 1.327 . S
C462 H487 0.950 . S
C463 C462 1.349 . S
C463 C479 1.349 . S
C464 C462 1.327 . S
C464 C483 1.429 . S
C464 H488 0.950 . S
C465 C482 1.574 . S
C465 C484 1.368 . S
C465 H489 0.949 . S
H466 C470 0.949 . S
C467 C468 1.349 . S
C467 C469 1.327 . S
C467 H490 0.950 . S
C468 C467 1.349 . S
C468 C480 1.349 . S
C469 C467 1.327 . S
C469 C485 1.429 . S
C469 H491 0.950 . S
C470 H466 0.949 . S
C470 C478 1.574 . S
C470 C486 1.368 . S
H471 C479 0.950 . S
H472 C477 0.950 . S
H473 C478 0.949 . S
H474 C480 0.950 . S
H475 C481 0.950 . S
H476 C482 0.949 . S
C477 H472 0.950 . S
C477 C479 1.327 . S
C477 C483 1.429 . S
C478 C470 1.574 . S
C478 H473 0.949 . S
C478 C484 1.368 . S
C479 C463 1.349 . S
C479 H471 0.950 . S
C479 C477 1.327 . S
C480 C468 1.349 . S
C480 H474 0.950 . S
C480 C481 1.327 . S
C481 H475 0.950 . S
C481 C480 1.327 . S
C481 C485 1.429 . S
C482 C465 1.574 . S
C482 H476 0.949 . S
C482 C486 1.368 . S
C483 C464 1.429 . S
C483 C477 1.429 . S
C483 C484 1.523 . S
C484 C465 1.368 . S
C484 C478 1.368 . S
C484 C483 1.523 . S
C485 C469 1.429 . S
C485 C481 1.429 . S
C485 C486 1.523 . S
C486 C470 1.368 . S
C486 C482 1.368 . S
C486 C485 1.523 . S
H487 C462 0.950 . S
H488 C464 0.950 . S
H489 C465 0.949 . S
H490 C467 0.950 . S
H491 C469 0.950 . S
C492 C493 1.349 . S
C492 C494 1.327 . S
C492 H517 0.950 . S
C493 C492 1.349 . S
C493 C509 1.349 . S
C494 C492 1.327 . S
C494 C513 1.429 . S
C494 H518 0.950 . S
C495 C512 1.574 . S
C495 C514 1.368 . S
C495 H519 0.949 . S
H496 C500 0.949 . S
C497 C498 1.349 . S
C497 C499 1.327 . S
C497 H520 0.950 . S
C498 C497 1.349 . S
C498 C510 1.349 . S
C499 C497 1.327 . S
C499 C515 1.429 . S
C499 H521 0.950 . S
C500 H496 0.949 . S
C500 C508 1.574 . S
C500 C516 1.368 . S
H501 C509 0.950 . S
H502 C507 0.950 . S
H503 C508 0.949 . S
H504 C510 0.950 . S
H505 C511 0.950 . S
H506 C512 0.949 . S
C507 H502 0.950 . S
C507 C509 1.327 . S
C507 C513 1.429 . S
C508 C500 1.574 . S
C508 H503 0.949 . S
C508 C514 1.368 . S
C509 C493 1.349 . S
C509 H501 0.950 . S
C509 C507 1.327 . S
C510 C498 1.349 . S
C510 H504 0.950 . S
C510 C511 1.327 . S
C511 H505 0.950 . S
C511 C510 1.327 . S
C511 C515 1.429 . S
C512 C495 1.574 . S
C512 H506 0.949 . S
C512 C516 1.368 . S
C513 C494 1.429 . S
C513 C507 1.429 . S
C513 C514 1.523 . S
C514 C495 1.368 . S
C514 C508 1.368 . S
C514 C513 1.523 . S
C515 C499 1.429 . S
C515 C511 1.429 . S
C515 C516 1.523 . S
C516 C500 1.368 . S
C516 C512 1.368 . S
C516 C515 1.523 . S
H517 C492 0.950 . S
H518 C494 0.950 . S
H519 C495 0.949 . S
H520 C497 0.950 . S
H521 C499 0.950 . S
C522 C523 1.349 . S
C522 C524 1.327 . S
C522 H547 0.950 . S
C523 C522 1.349 . S
C523 C539 1.349 . S
C524 C522 1.327 . S
C524 C543 1.429 . S
C524 H548 0.950 . S
C525 C542 1.574 . S
C525 C544 1.368 . S
C525 H549 0.949 . S
H526 C530 0.949 . S
C527 C528 1.349 . S
C527 C529 1.327 . S
C527 H550 0.950 . S
C528 C527 1.349 . S
C528 C540 1.349 . S
C529 C527 1.327 . S
C529 C545 1.429 . S
C529 H551 0.950 . S
C530 H526 0.949 . S
C530 C538 1.574 . S
C530 C546 1.368 . S
H531 C539 0.950 . S
H532 C537 0.950 . S
H533 C538 0.949 . S
H534 C540 0.950 . S
H535 C541 0.950 . S
H536 C542 0.949 . S
C537 H532 0.950 . S
C537 C539 1.327 . S
C537 C543 1.429 . S
C538 C530 1.574 . S
C538 H533 0.949 . S
C538 C544 1.368 . S
C539 C523 1.349 . S
C539 H531 0.950 . S
C539 C537 1.327 . S
C540 C528 1.349 . S
C540 H534 0.950 . S
C540 C541 1.327 . S
C541 H535 0.950 . S
C541 C540 1.327 . S
C541 C545 1.429 . S
C542 C525 1.574 . S
C542 H536 0.949 . S
C542 C546 1.368 . S
C543 C524 1.429 . S
C543 C537 1.429 . S
C543 C544 1.523 . S
C544 C525 1.368 . S
C544 C538 1.368 . S
C544 C543 1.523 . S
C545 C529 1.429 . S
C545 C541 1.429 . S
C545 C546 1.523 . S
C546 C530 1.368 . S
C546 C542 1.368 . S
C546 C545 1.523 . S
H547 C522 0.950 . S
H548 C524 0.950 . S
H549 C525 0.949 . S
H550 C527 0.950 . S
H551 C529 0.950 . S
C552 C553 1.349 . S
C552 C554 1.327 . S
C552 H577 0.950 . S
C553 C552 1.349 . S
C553 C569 1.349 . S
C554 C552 1.327 . S
C554 C573 1.429 . S
C554 H578 0.950 . S
C555 C572 1.574 . S
C555 C574 1.368 . S
C555 H579 0.949 . S
H556 C560 0.949 . S
C557 C558 1.349 . S
C557 C559 1.327 . S
C557 H580 0.950 . S
C558 C557 1.349 . S
C558 C570 1.349 . S
C559 C557 1.327 . S
C559 C575 1.429 . S
C559 H581 0.950 . S
C560 H556 0.949 . S
C560 C568 1.574 . S
C560 C576 1.368 . S
H561 C569 0.950 . S
H562 C567 0.950 . S
H563 C568 0.949 . S
H564 C570 0.950 . S
H565 C571 0.950 . S
H566 C572 0.949 . S
C567 H562 0.950 . S
C567 C569 1.327 . S
C567 C573 1.429 . S
C568 C560 1.574 . S
C568 H563 0.949 . S
C568 C574 1.368 . S
C569 C553 1.349 . S
C569 H561 0.950 . S
C569 C567 1.327 . S
C570 C558 1.349 . S
C570 H564 0.950 . S
C570 C571 1.327 . S
C571 H565 0.950 . S
C571 C570 1.327 . S
C571 C575 1.429 . S
C572 C555 1.574 . S
C572 H566 0.949 . S
C572 C576 1.368 . S
C573 C554 1.429 . S
C573 C567 1.429 . S
C573 C574 1.523 . S
C574 C555 1.368 . S
C574 C568 1.368 . S
C574 C573 1.523 . S
C575 C559 1.429 . S
C575 C571 1.429 . S
C575 C576 1.523 . S
C576 C560 1.368 . S
C576 C572 1.368 . S
C576 C575 1.523 . S
H577 C552 0.950 . S
H578 C554 0.950 . S
H579 C555 0.949 . S
H580 C557 0.950 . S
H581 C559 0.950 . S
C582 C583 1.349 . S
C582 C584 1.327 . S
C582 H607 0.950 . S
C583 C582 1.349 . S
C583 C599 1.349 . S
C584 C582 1.327 . S
C584 C603 1.429 . S
C584 H608 0.950 . S
C585 C602 1.574 . S
C585 C604 1.368 . S
C585 H609 0.949 . S
H586 C590 0.949 . S
C587 C588 1.349 . S
C587 C589 1.327 . S
C587 H610 0.950 . S
C588 C587 1.349 . S
C588 C600 1.349 . S
C589 C587 1.327 . S
C589 C605 1.429 . S
C589 H611 0.950 . S
C590 H586 0.949 . S
C590 C598 1.574 . S
C590 C606 1.368 . S
H591 C599 0.950 . S
H592 C597 0.950 . S
H593 C598 0.949 . S
H594 C600 0.950 . S
H595 C601 0.950 . S
H596 C602 0.949 . S
C597 H592 0.950 . S
C597 C599 1.327 . S
C597 C603 1.429 . S
C598 C590 1.574 . S
C598 H593 0.949 . S
C598 C604 1.368 . S
C599 C583 1.349 . S
C599 H591 0.950 . S
C599 C597 1.327 . S
C600 C588 1.349 . S
C600 H594 0.950 . S
C600 C601 1.327 . S
C601 H595 0.950 . S
C601 C600 1.327 . S
C601 C605 1.429 . S
C602 C585 1.574 . S
C602 H596 0.949 . S
C602 C606 1.368 . S
C603 C584 1.429 . S
C603 C597 1.429 . S
C603 C604 1.523 . S
C604 C585 1.368 . S
C604 C598 1.368 . S
C604 C603 1.523 . S
C605 C589 1.429 . S
C605 C601 1.429 . S
C605 C606 1.523 . S
C606 C590 1.368 . S
C606 C602 1.368 . S
C606 C605 1.523 . S
H607 C582 0.950 . S
H608 C584 0.950 . S
H609 C585 0.949 . S
H610 C587 0.950 . S
H611 C589 0.950 . S
C612 C613 1.349 . S
C612 C614 1.327 . S
C612 H637 0.950 . S
C613 C612 1.349 . S
C613 C629 1.349 . S
C614 C612 1.327 . S
C614 C633 1.429 . S
C614 H638 0.950 . S
C615 C632 1.574 . S
C615 C634 1.368 . S
C615 H639 0.949 . S
H616 C620 0.949 . S
C617 C618 1.349 . S
C617 C619 1.327 . S
C617 H640 0.950 . S
C618 C617 1.349 . S
C618 C630 1.349 . S
C619 C617 1.327 . S
C619 C635 1.429 . S
C619 H641 0.950 . S
C620 H616 0.949 . S
C620 C628 1.574 . S
C620 C636 1.368 . S
H621 C629 0.950 . S
H622 C627 0.950 . S
H623 C628 0.949 . S
H624 C630 0.950 . S
H625 C631 0.950 . S
H626 C632 0.949 . S
C627 H622 0.950 . S
C627 C629 1.327 . S
C627 C633 1.429 . S
C628 C620 1.574 . S
C628 H623 0.949 . S
C628 C634 1.368 . S
C629 C613 1.349 . S
C629 H621 0.950 . S
C629 C627 1.327 . S
C630 C618 1.349 . S
C630 H624 0.950 . S
C630 C631 1.327 . S
C631 H625 0.950 . S
C631 C630 1.327 . S
C631 C635 1.429 . S
C632 C615 1.574 . S
C632 H626 0.949 . S
C632 C636 1.368 . S
C633 C614 1.429 . S
C633 C627 1.429 . S
C633 C634 1.523 . S
C634 C615 1.368 . S
C634 C628 1.368 . S
C634 C633 1.523 . S
C635 C619 1.429 . S
C635 C631 1.429 . S
C635 C636 1.523 1_545 S
C636 C620 1.368 . S
C636 C632 1.368 . S
C636 C635 1.523 1_565 S
H637 C612 0.950 . S
H638 C614 0.950 . S
H639 C615 0.949 . S
H640 C617 0.950 . S
H641 C619 0.950 . S
C642 C643 1.349 . S
C642 C644 1.327 . S
C642 H667 0.950 . S
C643 C642 1.349 . S
C643 C659 1.349 . S
C644 C642 1.327 . S
C644 C663 1.429 . S
C644 H668 0.950 . S
C645 C662 1.574 . S
C645 C664 1.368 . S
C645 H669 0.949 . S
H646 C650 0.949 . S
C647 C648 1.349 . S
C647 C649 1.327 . S
C647 H670 0.950 . S
C648 C647 1.349 . S
C648 C660 1.349 . S
C649 C647 1.327 . S
C649 C665 1.429 . S
C649 H671 0.950 . S
C650 H646 0.949 . S
C650 C658 1.574 . S
C650 C666 1.368 . S
H651 C659 0.950 . S
H652 C657 0.950 . S
H653 C658 0.949 . S
H654 C660 0.950 . S
H655 C661 0.950 . S
H656 C662 0.949 . S
C657 H652 0.950 . S
C657 C659 1.327 . S
C657 C663 1.429 . S
C658 C650 1.574 . S
C658 H653 0.949 . S
C658 C664 1.368 . S
C659 C643 1.349 . S
C659 H651 0.950 . S
C659 C657 1.327 . S
C660 C648 1.349 . S
C660 H654 0.950 . S
C660 C661 1.327 . S
C661 H655 0.950 . S
C661 C660 1.327 . S
C661 C665 1.429 . S
C662 C645 1.574 . S
C662 H656 0.949 . S
C662 C666 1.368 . S
C663 C644 1.429 . S
C663 C657 1.429 . S
C663 C664 1.523 . S
C664 C645 1.368 . S
C664 C658 1.368 . S
C664 C663 1.523 . S
C665 C649 1.429 . S
C665 C661 1.429 . S
C665 C666 1.523 . S
C666 C650 1.368 . S
C666 C662 1.368 . S
C666 C665 1.523 . S
H667 C642 0.950 . S
H668 C644 0.950 . S
H669 C645 0.949 . S
H670 C647 0.950 . S
H671 C649 0.950 . S
C672 C673 1.349 . S
C672 C674 1.327 . S
C672 H697 0.950 . S
C673 C672 1.349 . S
C673 C689 1.349 . S
C674 C672 1.327 . S
C674 C693 1.429 . S
C674 H698 0.950 . S
C675 C692 1.574 . S
C675 C694 1.368 . S
C675 H699 0.949 . S
H676 C680 0.949 . S
C677 C678 1.349 . S
C677 C679 1.327 . S
C677 H700 0.950 . S
C678 C677 1.349 . S
C678 C690 1.349 . S
C679 C677 1.327 . S
C679 C695 1.429 . S
C679 H701 0.950 . S
C680 H676 0.949 . S
C680 C688 1.574 . S
C680 C696 1.368 . S
H681 C689 0.950 . S
H682 C687 0.950 . S
H683 C688 0.949 . S
H684 C690 0.950 . S
H685 C691 0.950 . S
H686 C692 0.949 . S
C687 H682 0.950 . S
C687 C689 1.327 . S
C687 C693 1.429 . S
C688 C680 1.574 . S
C688 H683 0.949 . S
C688 C694 1.368 . S
C689 C673 1.349 . S
C689 H681 0.950 . S
C689 C687 1.327 . S
C690 C678 1.349 . S
C690 H684 0.950 . S
C690 C691 1.327 . S
C691 H685 0.950 . S
C691 C690 1.327 . S
C691 C695 1.429 . S
C692 C675 1.574 . S
C692 H686 0.949 . S
C692 C696 1.368 . S
C693 C674 1.429 . S
C693 C687 1.429 . S
C693 C694 1.523 1_554 S
C694 C675 1.368 . S
C694 C688 1.368 . S
C694 C693 1.523 1_556 S
C695 C679 1.429 . S
C695 C691 1.429 . S
C695 C696 1.523 . S
C696 C680 1.368 . S
C696 C692 1.368 . S
C696 C695 1.523 . S
H697 C672 0.950 . S
H698 C674 0.950 . S
H699 C675 0.949 . S
H700 C677 0.950 . S
H701 C679 0.950 . S
C702 C703 1.349 . S
C702 C704 1.327 . S
C702 H727 0.993 . S
C703 C702 1.349 . S
C703 C719 1.349 . S
C704 C702 1.327 . S
C704 C723 1.429 . S
C704 H728 0.950 . S
C705 C722 1.574 . S
C705 C724 1.368 . S
C705 H729 0.949 . S
H706 C710 0.949 . S
C707 C708 1.349 . S
C707 C709 1.327 . S
C707 H730 0.950 . S
C708 C707 1.349 . S
C708 C720 1.349 . S
C709 C707 1.327 . S
C709 C725 1.429 . S
C709 H731 0.950 . S
C710 H706 0.949 . S
C710 C718 1.574 . S
C710 C726 1.368 . S
H711 C719 0.950 . S
H712 C717 0.950 . S
H713 C718 0.949 . S
H714 C720 0.950 . S
H715 C721 0.950 . S
H716 C722 0.949 . S
C717 H712 0.950 . S
C717 C719 1.327 . S
C717 C723 1.429 . S
C718 C710 1.574 . S
C718 H713 0.949 . S
C718 C724 1.368 . S
C719 C703 1.349 . S
C719 H711 0.950 . S
C719 C717 1.327 . S
C720 C708 1.349 . S
C720 H714 0.950 . S
C720 C721 1.327 . S
C721 H715 0.950 . S
C721 C720 1.327 . S
C721 C725 1.429 . S
C722 C705 1.574 . S
C722 H716 0.949 . S
C722 C726 1.368 . S
C723 C704 1.429 . S
C723 C717 1.429 . S
C723 C724 1.523 1_554 S
C724 C705 1.368 . S
C724 C718 1.368 . S
C724 C723 1.523 1_556 S
C725 C709 1.429 . S
C725 C721 1.429 . S
C725 C726 1.523 . S
C726 C710 1.368 . S
C726 C722 1.368 . S
C726 C725 1.523 . S
H727 C702 0.993 . S
H728 C704 0.950 . S
H729 C705 0.949 . S
H730 C707 0.950 . S
H731 C709 0.950 . S
C732 C733 1.349 . S
C732 C734 1.327 . S
C732 H757 0.950 . S
C733 C732 1.349 . S
C733 C749 1.349 . S
C734 C732 1.327 . S
C734 C753 1.429 . S
C734 H758 0.950 . S
C735 C752 1.574 . S
C735 C754 1.368 . S
C735 H759 0.949 . S
H736 C740 0.949 . S
C737 C738 1.349 . S
C737 C739 1.327 . S
C737 H760 0.950 . S
C738 C737 1.349 . S
C738 C750 1.349 . S
C739 C737 1.327 . S
C739 C755 1.429 . S
C739 H761 0.950 . S
C740 H736 0.949 . S
C740 C748 1.574 . S
C740 C756 1.368 . S
H741 C749 0.950 . S
H742 C747 0.950 . S
H743 C748 0.949 . S
H744 C750 0.950 . S
H745 C751 0.950 . S
H746 C752 0.949 . S
C747 H742 0.950 . S
C747 C749 1.327 . S
C747 C753 1.429 . S
C748 C740 1.574 . S
C748 H743 0.949 . S
C748 C754 1.368 . S
C749 C733 1.349 . S
C749 H741 0.950 . S
C749 C747 1.327 . S
C750 C738 1.349 . S
C750 H744 0.950 . S
C750 C751 1.327 . S
C751 H745 0.950 . S
C751 C750 1.327 . S
C751 C755 1.429 . S
C752 C735 1.574 . S
C752 H746 0.949 . S
C752 C756 1.368 . S
C753 C734 1.429 . S
C753 C747 1.429 . S
C753 C754 1.523 . S
C754 C735 1.368 . S
C754 C748 1.368 . S
C754 C753 1.523 . S
C755 C739 1.429 . S
C755 C751 1.429 . S
C755 C756 1.523 . S
C756 C740 1.368 . S
C756 C752 1.368 . S
C756 C755 1.523 . S
H757 C732 0.950 . S
H758 C734 0.950 . S
H759 C735 0.949 . S
H760 C737 0.950 . S
H761 C739 0.950 . S
C762 C763 1.349 . S
C762 C764 1.327 . S
C762 H787 0.950 . S
C763 C762 1.349 . S
C763 C779 1.349 . S
C764 C762 1.327 . S
C764 C783 1.429 . S
C764 H788 0.950 . S
C765 C782 1.574 . S
C765 C784 1.368 . S
C765 H789 0.949 . S
H766 C770 0.949 . S
C767 C768 1.349 . S
C767 C769 1.327 . S
C767 H790 0.950 . S
C768 C767 1.349 . S
C768 C780 1.349 . S
C769 C767 1.327 . S
C769 C785 1.429 . S
C769 H791 0.950 . S
C770 H766 0.949 . S
C770 C778 1.574 . S
C770 C786 1.368 . S
H771 C779 0.950 . S
H772 C777 0.950 . S
H773 C778 0.949 . S
H774 C780 0.950 . S
H775 C781 0.950 . S
H776 C782 0.949 . S
C777 H772 0.950 . S
C777 C779 1.327 . S
C777 C783 1.429 . S
C778 C770 1.574 . S
C778 H773 0.949 . S
C778 C784 1.368 . S
C779 C763 1.349 . S
C779 H771 0.950 . S
C779 C777 1.327 . S
C780 C768 1.349 . S
C780 H774 0.950 . S
C780 C781 1.327 . S
C781 H775 0.950 . S
C781 C780 1.327 . S
C781 C785 1.429 . S
C782 C765 1.574 . S
C782 H776 0.949 . S
C782 C786 1.368 . S
C783 C764 1.429 . S
C783 C777 1.429 . S
C783 C784 1.523 . S
C784 C765 1.368 . S
C784 C778 1.368 . S
C784 C783 1.523 . S
C785 C769 1.429 . S
C785 C781 1.429 . S
C785 C786 1.523 . S
C786 C770 1.368 . S
C786 C782 1.368 . S
C786 C785 1.523 . S
H787 C762 0.950 . S
H788 C764 0.950 . S
H789 C765 0.949 . S
H790 C767 0.950 . S
H791 C769 0.950 . S
C792 C793 1.349 . S
C792 C794 1.327 . S
C792 H817 0.950 . S
C793 C792 1.349 . S
C793 C809 1.349 . S
C794 C792 1.327 . S
C794 C813 1.429 . S
C794 H818 0.950 . S
C795 C812 1.574 . S
C795 C814 1.368 . S
C795 H819 0.949 . S
H796 C800 0.949 . S
C797 C798 1.349 . S
C797 C799 1.327 . S
C797 H820 0.950 . S
C798 C797 1.349 . S
C798 C810 1.349 . S
C799 C797 1.327 . S
C799 C815 1.429 . S
C799 H821 0.950 . S
C800 H796 0.949 . S
C800 C808 1.574 . S
C800 C816 1.368 . S
H801 C809 0.950 . S
H802 C807 0.950 . S
H803 C808 0.946 1_455 S
H804 C810 0.950 . S
H805 C811 0.950 . S
H806 C812 0.949 . S
C807 H802 0.950 . S
C807 C809 1.327 . S
C807 C813 1.429 . S
C808 C800 1.574 . S
C808 H803 0.946 1_655 S
C808 C814 1.368 . S
C809 C793 1.349 . S
C809 H801 0.950 . S
C809 C807 1.327 . S
C810 C798 1.349 . S
C810 H804 0.950 . S
C810 C811 1.327 . S
C811 H805 0.950 . S
C811 C810 1.327 . S
C811 C815 1.429 . S
C812 C795 1.574 . S
C812 H806 0.949 . S
C812 C816 1.368 . S
C813 C794 1.429 . S
C813 C807 1.429 . S
C813 C814 1.523 1_455 S
C814 C795 1.368 . S
C814 C808 1.368 . S
C814 C813 1.523 1_655 S
C815 C799 1.429 . S
C815 C811 1.429 . S
C815 C816 1.523 . S
C816 C800 1.368 . S
C816 C812 1.368 . S
C816 C815 1.523 . S
H817 C792 0.950 . S
H818 C794 0.950 . S
H819 C795 0.949 . S
H820 C797 0.950 . S
H821 C799 0.950 . S
C822 C823 1.349 . S
C822 C824 1.327 . S
C822 H847 0.950 . S
C823 C822 1.349 . S
C823 C839 1.349 . S
C824 C822 1.327 . S
C824 C843 1.429 . S
C824 H848 0.950 . S
C825 C842 1.574 . S
C825 C844 1.368 . S
C825 H849 0.949 . S
H826 C830 0.949 . S
C827 C828 1.349 . S
C827 C829 1.327 . S
C827 H850 0.950 . S
C828 C827 1.349 . S
C828 C840 1.349 . S
C829 C827 1.327 . S
C829 C845 1.429 . S
C829 H851 0.950 . S
C830 H826 0.949 . S
C830 C838 1.574 . S
C830 C846 1.368 . S
H831 C839 0.950 . S
H832 C837 0.950 . S
H833 C838 0.949 1_655 S
H834 C840 0.950 . S
H835 C841 0.950 . S
H836 C842 0.949 . S
C837 H832 0.950 . S
C837 C839 1.327 . S
C837 C843 1.429 . S
C838 C830 1.574 . S
C838 H833 0.949 1_455 S
C838 C844 1.368 . S
C839 C823 1.349 . S
C839 H831 0.950 . S
C839 C837 1.327 . S
C840 C828 1.349 . S
C840 H834 0.950 . S
C840 C841 1.327 . S
C841 H835 0.950 . S
C841 C840 1.327 . S
C841 C845 1.429 . S
C842 C825 1.574 . S
C842 H836 0.949 . S
C842 C846 1.368 . S
C843 C824 1.429 . S
C843 C837 1.429 . S
C843 C844 1.523 1_655 S
C844 C825 1.368 . S
C844 C838 1.368 . S
C844 C843 1.523 1_455 S
C845 C829 1.429 . S
C845 C841 1.429 . S
C845 C846 1.523 . S
C846 C830 1.368 . S
C846 C842 1.368 . S
C846 C845 1.523 . S
H847 C822 0.950 . S
H848 C824 0.950 . S
H849 C825 0.949 . S
H850 C827 0.950 . S
H851 C829 0.950 . S
C852 C853 1.349 . S
C852 C854 1.327 . S
C852 H877 0.950 . S
C853 C852 1.349 . S
C853 C869 1.349 . S
C854 C852 1.327 . S
C854 C873 1.429 . S
C854 H878 0.950 . S
C855 C872 1.574 . S
C855 C874 1.368 . S
C855 H879 0.949 . S
H856 C860 0.949 . S
C857 C858 1.349 . S
C857 C859 1.327 . S
C857 H880 0.950 . S
C858 C857 1.349 . S
C858 C870 1.349 . S
C859 C857 1.327 . S
C859 C875 1.429 . S
C859 H881 0.950 . S
C860 H856 0.949 . S
C860 C868 1.574 . S
C860 C876 1.368 . S
H861 C869 0.950 . S
H862 C867 0.950 1_655 S
H863 C868 0.949 1_455 S
H864 C870 0.950 . S
H865 C871 0.950 . S
H866 C872 0.949 . S
C867 H862 0.950 1_455 S
C867 C869 1.327 . S
C867 C873 1.429 . S
C868 C860 1.574 . S
C868 H863 0.949 1_655 S
C868 C874 1.368 . S
C869 C853 1.349 . S
C869 H861 0.950 . S
C869 C867 1.327 . S
C870 C858 1.349 . S
C870 H864 0.950 . S
C870 C871 1.327 . S
C871 H865 0.950 . S
C871 C870 1.327 . S
C871 C875 1.429 . S
C872 C855 1.574 . S
C872 H866 0.949 . S
C872 C876 1.368 . S
C873 C854 1.429 . S
C873 C867 1.429 . S
C873 C874 1.523 1_455 S
C874 C855 1.368 . S
C874 C868 1.368 . S
C874 C873 1.523 1_655 S
C875 C859 1.429 . S
C875 C871 1.429 . S
C875 C876 1.523 . S
C876 C860 1.368 . S
C876 C872 1.368 . S
C876 C875 1.523 . S
H877 C852 0.950 . S
H878 C854 0.950 . S
H879 C855 0.949 . S
H880 C857 0.950 . S
H881 C859 0.950 . S
C882 C883 1.349 . S
C882 C884 1.327 . S
C882 H907 0.950 . S
C883 C882 1.349 . S
C883 C899 1.349 . S
C884 C882 1.327 . S
C884 C903 1.429 . S
C884 H908 0.950 . S
C885 C902 1.574 . S
C885 C904 1.368 . S
C885 H909 0.949 . S
H886 C890 0.949 . S
C887 C888 1.349 . S
C887 C889 1.327 . S
C887 H910 0.950 . S
C888 C887 1.349 . S
C888 C900 1.349 . S
C889 C887 1.327 . S
C889 C905 1.429 . S
C889 H911 0.950 . S
C890 H886 0.949 . S
C890 C898 1.574 . S
C890 C906 1.368 . S
H891 C899 0.950 . S
H892 C897 0.950 . S
H893 C898 0.949 . S
H894 C900 0.994 . S
H895 C901 0.950 . S
H896 C902 0.949 1_655 S
C897 H892 0.950 . S
C897 C899 1.327 . S
C897 C903 1.429 . S
C898 C890 1.574 . S
C898 H893 0.949 . S
C898 C904 1.368 . S
C899 C883 1.349 . S
C899 H891 0.950 . S
C899 C897 1.327 . S
C900 C888 1.349 . S
C900 H894 0.994 . S
C900 C901 1.327 . S
C901 H895 0.950 . S
C901 C900 1.327 . S
C901 C905 1.429 . S
C902 C885 1.574 . S
C902 H896 0.949 1_455 S
C902 C906 1.368 . S
C903 C884 1.429 . S
C903 C897 1.429 . S
C903 C904 1.523 . S
C904 C885 1.368 . S
C904 C898 1.368 . S
C904 C903 1.523 . S
C905 C889 1.429 . S
C905 C901 1.429 . S
C905 C906 1.523 1_655 S
C906 C890 1.368 . S
C906 C902 1.368 . S
C906 C905 1.523 1_455 S
H907 C882 0.950 . S
H908 C884 0.950 . S
H909 C885 0.949 . S
H910 C887 0.950 . S
H911 C889 0.950 . S
C912 C913 1.349 . S
C912 C914 1.327 . S
C912 H937 0.950 . S
C913 C912 1.349 . S
C913 C929 1.349 . S
C914 C912 1.327 . S
C914 C933 1.429 . S
C914 H938 0.950 . S
C915 C932 1.574 . S
C915 C934 1.368 . S
C915 H939 0.949 . S
H916 C920 0.949 . S
C917 C918 1.349 . S
C917 C919 1.327 . S
C917 H940 0.950 . S
C918 C917 1.349 . S
C918 C930 1.349 . S
C919 C917 1.327 . S
C919 C935 1.429 . S
C919 H941 0.950 . S
C920 H916 0.949 . S
C920 C928 1.574 . S
C920 C936 1.368 . S
H921 C929 0.950 . S
H922 C927 0.941 1_565 S
H923 C928 0.949 1_545 S
H924 C930 0.950 . S
H925 C931 0.950 . S
H926 C932 0.949 . S
C927 H922 0.941 1_545 S
C927 C929 1.327 . S
C927 C933 1.429 . S
C928 C920 1.574 . S
C928 H923 0.949 1_565 S
C928 C934 1.368 . S
C929 C913 1.349 . S
C929 H921 0.950 . S
C929 C927 1.327 . S
C930 C918 1.349 . S
C930 H924 0.950 . S
C930 C931 1.327 . S
C931 H925 0.950 . S
C931 C930 1.327 . S
C931 C935 1.429 . S
C932 C915 1.574 . S
C932 H926 0.949 . S
C932 C936 1.368 . S
C933 C914 1.429 . S
C933 C927 1.429 . S
C933 C934 1.523 1_545 S
C934 C915 1.368 . S
C934 C928 1.368 . S
C934 C933 1.523 1_565 S
C935 C919 1.429 . S
C935 C931 1.429 . S
C935 C936 1.523 . S
C936 C920 1.368 . S
C936 C932 1.368 . S
C936 C935 1.523 . S
H937 C912 0.950 . S
H938 C914 0.950 . S
H939 C915 0.949 . S
H940 C917 0.950 . S
H941 C919 0.950 . S
C942 C943 1.349 . S
C942 C944 1.327 . S
C942 H967 0.950 . S
C943 C942 1.349 . S
C943 C959 1.349 . S
C944 C942 1.327 . S
C944 C963 1.429 . S
C944 H968 0.950 . S
C945 C962 1.574 . S
C945 C964 1.368 . S
C945 H969 0.949 . S
H946 C950 0.949 . S
C947 C948 1.349 . S
C947 C949 1.327 . S
C947 H970 0.950 . S
C948 C947 1.349 . S
C948 C960 1.349 . S
C949 C947 1.327 . S
C949 C965 1.429 . S
C949 H971 0.950 . S
C950 H946 0.949 . S
C950 C958 1.574 . S
C950 C966 1.368 . S
H951 C959 0.950 . S
H952 C957 0.950 . S
H953 C958 0.949 . S
H954 C960 0.950 . S
H955 C961 0.950 . S
H956 C962 0.920 1_565 S
C957 H952 0.950 . S
C957 C959 1.327 . S
C957 C963 1.429 . S
C958 C950 1.574 . S
C958 H953 0.949 . S
C958 C964 1.368 . S
C959 C943 1.349 . S
C959 H951 0.950 . S
C959 C957 1.327 . S
C960 C948 1.349 . S
C960 H954 0.950 . S
C960 C961 1.327 . S
C961 H955 0.950 . S
C961 C960 1.327 . S
C961 C965 1.429 . S
C962 C945 1.574 . S
C962 H956 0.920 1_545 S
C962 C966 1.368 . S
C963 C944 1.429 . S
C963 C957 1.429 . S
C963 C964 1.523 . S
C964 C945 1.368 . S
C964 C958 1.368 . S
C964 C963 1.523 . S
C965 C949 1.429 . S
C965 C961 1.429 . S
C965 C966 1.523 1_565 S
C966 C950 1.368 . S
C966 C962 1.368 . S
C966 C965 1.523 1_545 S
H967 C942 0.950 . S
H968 C944 0.950 . S
H969 C945 0.949 . S
H970 C947 0.950 . S
H971 C949 0.950 . S
C972 C973 1.349 . S
C972 C974 1.327 . S
C972 H997 0.950 . S
C973 C972 1.349 . S
C973 C989 1.349 . S
C974 C972 1.327 . S
C974 C993 1.429 . S
C974 H998 0.950 . S
C975 C992 1.574 . S
C975 C994 1.368 . S
C975 H999 0.949 . S
H976 C980 0.949 . S
C977 C978 1.349 . S
C977 C979 1.327 . S
C977 H1000 0.950 . S
C978 C977 1.349 . S
C978 C990 1.349 . S
C979 C977 1.327 . S
C979 C995 1.429 . S
C979 H1001 0.950 . S
C980 H976 0.949 . S
C980 C988 1.574 . S
C980 C996 1.368 . S
H981 C989 0.950 . S
H982 C987 0.950 . S
H983 C988 0.949 . S
H984 C990 0.950 . S
H985 C991 0.950 . S
H986 C992 0.949 . S
C987 H982 0.950 . S
C987 C989 1.327 . S
C987 C993 1.429 . S
C988 C980 1.574 . S
C988 H983 0.949 . S
C988 C994 1.368 . S
C989 C973 1.349 . S
C989 H981 0.950 . S
C989 C987 1.327 . S
C990 C978 1.349 . S
C990 H984 0.950 . S
C990 C991 1.327 . S
C991 H985 0.950 . S
C991 C990 1.327 . S
C991 C995 1.429 . S
C992 C975 1.574 . S
C992 H986 0.949 . S
C992 C996 1.368 . S
C993 C974 1.429 . S
C993 C987 1.429 . S
C993 C994 1.523 . S
C994 C975 1.368 . S
C994 C988 1.368 . S
C994 C993 1.523 . S
C995 C979 1.429 . S
C995 C991 1.429 . S
C995 C996 1.523 . S
C996 C980 1.368 . S
C996 C992 1.368 . S
C996 C995 1.523 . S
H997 C972 0.950 . S
H998 C974 0.950 . S
H999 C975 0.949 . S
H1000 C977 0.950 . S
H1001 C979 0.950 . S
C1002 C1003 1.349 . S
C1002 C1004 1.327 . S
C1002 H1027 0.950 . S
C1003 C1002 1.349 . S
C1003 C1019 1.349 . S
C1004 C1002 1.327 . S
C1004 C1023 1.429 . S
C1004 H1028 0.950 . S
C1005 C1022 1.574 . S
C1005 C1024 1.368 . S
C1005 H1029 0.949 . S
H1006 C1010 0.949 . S
C1007 C1008 1.349 . S
C1007 C1009 1.327 . S
C1007 H1030 0.950 . S
C1008 C1007 1.349 . S
C1008 C1020 1.349 . S
C1009 C1007 1.327 . S
C1009 C1025 1.429 . S
C1009 H1031 0.950 . S
C1010 H1006 0.949 . S
C1010 C1018 1.574 . S
C1010 C1026 1.368 . S
H1011 C1019 0.950 . S
H1012 C1017 0.950 . S
H1013 C1018 0.949 . S
H1014 C1020 0.950 . S
H1015 C1021 0.950 . S
H1016 C1022 0.949 1_565 S
C1017 H1012 0.950 . S
C1017 C1019 1.327 . S
C1017 C1023 1.429 . S
C1018 C1010 1.574 . S
C1018 H1013 0.949 . S
C1018 C1024 1.368 . S
C1019 C1003 1.349 . S
C1019 H1011 0.950 . S
C1019 C1017 1.327 . S
C1020 C1008 1.349 . S
C1020 H1014 0.950 . S
C1020 C1021 1.327 . S
C1021 H1015 0.950 . S
C1021 C1020 1.327 . S
C1021 C1025 1.429 . S
C1022 C1005 1.574 . S
C1022 H1016 0.949 1_545 S
C1022 C1026 1.368 . S
C1023 C1004 1.429 . S
C1023 C1017 1.429 . S
C1023 C1024 1.523 . S
C1024 C1005 1.368 . S
C1024 C1018 1.368 . S
C1024 C1023 1.523 . S
C1025 C1009 1.429 . S
C1025 C1021 1.429 . S
C1025 C1026 1.523 1_565 S
C1026 C1010 1.368 . S
C1026 C1022 1.368 . S
C1026 C1025 1.523 1_545 S
H1027 C1002 0.950 . S
H1028 C1004 0.950 . S
H1029 C1005 0.949 . S
H1030 C1007 0.950 . S
H1031 C1009 0.950 . S
C1032 C1033 1.349 . S
C1032 C1034 1.327 . S
C1032 H1057 0.950 . S
C1033 C1032 1.349 . S
C1033 C1049 1.349 1_655 S
C1034 C1032 1.327 . S
C1034 C1053 1.429 . S
C1034 H1058 0.950 . S
C1035 C1052 1.574 . S
C1035 C1054 1.357 1_455 S
C1035 H1059 0.949 . S
H1036 C1040 0.949 . S
C1037 C1038 1.349 . S
C1037 C1039 1.327 . S
C1037 H1060 0.950 . S
C1038 C1037 1.349 . S
C1038 C1050 1.349 1_455 S
C1039 C1037 1.327 . S
C1039 C1055 1.429 . S
C1039 H1061 0.950 . S
C1040 H1036 0.949 . S
C1040 C1048 1.574 . S
C1040 C1056 1.368 1_655 S
H1041 C1049 0.950 . S
H1042 C1047 0.950 . S
H1043 C1048 0.949 . S
H1044 C1050 0.950 . S
H1045 C1051 0.950 . S
H1046 C1052 0.949 . S
C1047 H1042 0.950 . S
C1047 C1049 1.327 . S
C1047 C1053 1.429 1_455 S
C1048 C1040 1.574 . S
C1048 H1043 0.949 . S
C1048 C1054 1.379 . S
C1049 C1033 1.349 1_455 S
C1049 H1041 0.950 . S
C1049 C1047 1.327 . S
C1050 C1038 1.349 1_655 S
C1050 H1044 0.950 . S
C1050 C1051 1.327 . S
C1051 H1045 0.950 . S
C1051 C1050 1.327 . S
C1051 C1055 1.429 1_655 S
C1052 C1035 1.574 . S
C1052 H1046 0.949 . S
C1052 C1056 1.368 . S
C1053 C1034 1.429 . S
C1053 C1047 1.429 1_655 S
C1053 C1054 1.524 . S
C1054 C1035 1.357 1_655 S
C1054 C1048 1.379 . S
C1054 C1053 1.524 . S
C1055 C1039 1.429 . S
C1055 C1051 1.429 1_455 S
C1055 C1056 1.523 . S
C1056 C1040 1.368 1_455 S
C1056 C1052 1.368 . S
C1056 C1055 1.523 . S
H1057 C1032 0.950 . S
H1058 C1034 0.950 . S
H1059 C1035 0.949 . S
H1060 C1037 0.950 . S
H1061 C1039 0.950 . S
C1062 C1063 1.349 1_655 S
C1062 C1064 1.327 . S
C1062 H1087 0.950 . S
C1063 C1062 1.349 1_455 S
C1063 C1079 1.349 . S
C1064 C1062 1.327 . S
C1064 C1083 1.429 1_655 S
C1064 H1088 0.950 . S
C1065 C1082 1.574 . S
C1065 C1084 1.368 . S
C1065 H1089 0.949 . S
H1066 C1070 0.949 . S
C1067 C1068 1.349 1_455 S
C1067 C1069 1.327 . S
C1067 H1090 0.950 . S
C1068 C1067 1.349 1_655 S
C1068 C1080 1.349 . S
C1069 C1067 1.327 . S
C1069 C1085 1.429 1_455 S
C1069 H1091 0.950 . S
C1070 H1066 0.949 . S
C1070 C1078 1.574 . S
C1070 C1086 1.388 . S
H1071 C1079 0.950 . S
H1072 C1077 0.950 . S
H1073 C1078 0.949 . S
H1074 C1080 0.950 . S
H1075 C1081 0.950 . S
H1076 C1082 0.949 . S
C1077 H1072 0.950 . S
C1077 C1079 1.327 . S
C1077 C1083 1.429 . S
C1078 C1070 1.574 . S
C1078 H1073 0.949 . S
C1078 C1084 1.368 1_655 S
C1079 C1063 1.349 . S
C1079 H1071 0.950 . S
C1079 C1077 1.327 . S
C1080 C1068 1.349 . S
C1080 H1074 0.950 . S
C1080 C1081 1.327 . S
C1081 H1075 0.950 . S
C1081 C1080 1.327 . S
C1081 C1085 1.429 . S
C1082 C1065 1.574 . S
C1082 H1076 0.949 . S
C1082 C1086 1.347 1_455 S
C1083 C1064 1.429 1_455 S
C1083 C1077 1.429 . S
C1083 C1084 1.523 . S
C1084 C1065 1.368 . S
C1084 C1078 1.368 1_455 S
C1084 C1083 1.523 . S
C1085 C1069 1.429 1_655 S
C1085 C1081 1.429 . S
C1085 C1086 1.526 . S
C1086 C1070 1.388 . S
C1086 C1082 1.347 1_655 S
C1086 C1085 1.526 . S
H1087 C1062 0.950 . S
H1088 C1064 0.950 . S
H1089 C1065 0.949 . S
H1090 C1067 0.950 . S
H1091 C1069 0.950 . S
C1092 C1093 1.349 . S
C1092 C1094 1.327 . S
C1092 H1117 0.950 . S
C1093 C1092 1.349 . S
C1093 C1109 1.349 1_565 S
C1094 C1092 1.327 . S
C1094 C1113 1.429 . S
C1094 H1118 0.950 . S
C1095 C1112 1.574 . S
C1095 C1114 1.349 1_545 S
C1095 H1119 0.949 . S
H1096 C1100 0.949 . S
C1097 C1098 1.349 . S
C1097 C1099 1.327 . S
C1097 H1120 0.950 . S
C1098 C1097 1.349 . S
C1098 C1110 1.349 1_545 S
C1099 C1097 1.327 . S
C1099 C1115 1.429 . S
C1099 H1121 0.950 . S
C1100 H1096 0.949 . S
C1100 C1108 1.574 . S
C1100 C1116 1.368 1_565 S
H1101 C1109 0.950 . S
H1102 C1107 0.950 . S
H1103 C1108 0.949 . S
H1104 C1110 0.950 . S
H1105 C1111 0.950 . S
H1106 C1112 0.949 . S
C1107 H1102 0.950 . S
C1107 C1109 1.327 . S
C1107 C1113 1.429 1_545 S
C1108 C1100 1.574 . S
C1108 H1103 0.949 . S
C1108 C1114 1.387 . S
C1109 C1093 1.349 1_545 S
C1109 H1101 0.950 . S
C1109 C1107 1.327 . S
C1110 C1098 1.349 1_565 S
C1110 H1104 0.950 . S
C1110 C1111 1.327 . S
C1111 H1105 0.950 . S
C1111 C1110 1.327 . S
C1111 C1115 1.429 1_565 S
C1112 C1095 1.574 . S
C1112 H1106 0.949 . S
C1112 C1116 1.368 . S
C1113 C1094 1.429 . S
C1113 C1107 1.429 1_565 S
C1113 C1114 1.524 . S
C1114 C1095 1.349 1_565 S
C1114 C1108 1.387 . S
C1114 C1113 1.524 . S
C1115 C1099 1.429 . S
C1115 C1111 1.429 1_545 S
C1115 C1116 1.523 . S
C1116 C1100 1.368 1_545 S
C1116 C1112 1.368 . S
C1116 C1115 1.523 . S
H1117 C1092 0.950 . S
H1118 C1094 0.950 . S
H1119 C1095 0.949 . S
H1120 C1097 0.950 . S
H1121 C1099 0.950 . S
C1122 C1123 1.349 . S
C1122 C1124 1.327 . S
C1122 H1147 0.950 . S
C1123 C1122 1.349 . S
C1123 C1139 1.349 . S
C1124 C1122 1.327 . S
C1124 C1143 1.429 . S
C1124 H1148 0.950 . S
C1125 C1142 1.574 . S
C1125 C1144 1.368 . S
C1125 H1149 0.949 . S
H1126 C1130 0.949 . S
C1127 C1128 1.349 . S
C1127 C1129 1.327 . S
C1127 H1150 0.950 . S
C1128 C1127 1.349 . S
C1128 C1140 1.349 . S
C1129 C1127 1.327 . S
C1129 C1145 1.429 . S
C1129 H1151 0.950 . S
C1130 H1126 0.949 . S
C1130 C1138 1.574 . S
C1130 C1146 1.368 . S
H1131 C1139 0.950 . S
H1132 C1137 0.950 . S
H1133 C1138 0.949 . S
H1134 C1140 0.950 . S
H1135 C1141 0.950 . S
H1136 C1142 0.949 . S
C1137 H1132 0.950 . S
C1137 C1139 1.327 . S
C1137 C1143 1.429 . S
C1138 C1130 1.574 . S
C1138 H1133 0.949 . S
C1138 C1144 1.368 . S
C1139 C1123 1.349 . S
C1139 H1131 0.950 . S
C1139 C1137 1.327 . S
C1140 C1128 1.349 . S
C1140 H1134 0.950 . S
C1140 C1141 1.327 . S
C1141 H1135 0.950 . S
C1141 C1140 1.327 . S
C1141 C1145 1.429 . S
C1142 C1125 1.574 . S
C1142 H1136 0.949 . S
C1142 C1146 1.368 . S
C1143 C1124 1.429 . S
C1143 C1137 1.429 . S
C1143 C1144 1.523 . S
C1144 C1125 1.368 . S
C1144 C1138 1.368 . S
C1144 C1143 1.523 . S
C1145 C1129 1.429 . S
C1145 C1141 1.429 . S
C1145 C1146 1.523 . S
C1146 C1130 1.368 . S
C1146 C1142 1.368 . S
C1146 C1145 1.523 . S
H1147 C1122 0.950 . S
H1148 C1124 0.950 . S
H1149 C1125 0.949 . S
H1150 C1127 0.950 . S
H1151 C1129 0.950 . S
C1152 C1153 1.349 1_556 S
C1152 C1154 1.327 . S
C1152 H1177 0.950 . S
C1153 C1152 1.349 1_554 S
C1153 C1169 1.349 . S
C1154 C1152 1.327 . S
C1154 C1173 1.429 1_556 S
C1154 H1178 0.950 . S
C1155 C1172 1.574 . S
C1155 C1174 1.368 . S
C1155 H1179 0.949 . S
H1156 C1160 0.949 . S
C1157 C1158 1.349 1_554 S
C1157 C1159 1.327 . S
C1157 H1180 0.950 . S
C1158 C1157 1.349 1_556 S
C1158 C1170 1.349 . S
C1159 C1157 1.327 . S
C1159 C1175 1.429 1_554 S
C1159 H1181 0.950 . S
C1160 H1156 0.949 . S
C1160 C1168 1.574 . S
C1160 C1176 1.388 . S
H1161 C1169 0.950 . S
H1162 C1167 0.950 . S
H1163 C1168 0.949 . S
H1164 C1170 0.950 . S
H1165 C1171 0.950 . S
H1166 C1172 0.949 . S
C1167 H1162 0.950 . S
C1167 C1169 1.327 . S
C1167 C1173 1.429 . S
C1168 C1160 1.574 . S
C1168 H1163 0.949 . S
C1168 C1174 1.368 1_556 S
C1169 C1153 1.349 . S
C1169 H1161 0.950 . S
C1169 C1167 1.327 . S
C1170 C1158 1.349 . S
C1170 H1164 0.950 . S
C1170 C1171 1.327 . S
C1171 H1165 0.950 . S
C1171 C1170 1.327 . S
C1171 C1175 1.429 . S
C1172 C1155 1.574 . S
C1172 H1166 0.949 . S
C1172 C1176 1.348 1_554 S
C1173 C1154 1.429 1_554 S
C1173 C1167 1.429 . S
C1173 C1174 1.523 . S
C1174 C1155 1.368 . S
C1174 C1168 1.368 1_554 S
C1174 C1173 1.523 . S
C1175 C1159 1.429 1_556 S
C1175 C1171 1.429 . S
C1175 C1176 1.525 . S
C1176 C1160 1.388 . S
C1176 C1172 1.348 1_556 S
C1176 C1175 1.525 . S
H1177 C1152 0.950 . S
H1178 C1154 0.950 . S
H1179 C1155 0.949 . S
H1180 C1157 0.950 . S
H1181 C1159 0.950 . S
C1182 C1183 1.349 . S
C1182 C1184 1.327 . S
C1182 H1207 0.950 . S
C1183 C1182 1.349 . S
C1183 C1199 1.349 . S
C1184 C1182 1.327 . S
C1184 C1203 1.429 . S
C1184 H1208 0.950 . S
C1185 C1202 1.574 . S
C1185 C1204 1.368 . S
C1185 H1209 0.949 . S
H1186 C1190 0.949 . S
C1187 C1188 1.349 . S
C1187 C1189 1.327 . S
C1187 H1210 0.950 . S
C1188 C1187 1.349 . S
C1188 C1200 1.349 . S
C1189 C1187 1.327 . S
C1189 C1205 1.429 . S
C1189 H1211 0.950 . S
C1190 H1186 0.949 . S
C1190 C1198 1.574 . S
C1190 C1206 1.368 . S
H1191 C1199 0.950 . S
H1192 C1197 0.950 . S
H1193 C1198 0.949 . S
H1194 C1200 0.950 . S
H1195 C1201 0.950 . S
H1196 C1202 0.949 . S
C1197 H1192 0.950 . S
C1197 C1199 1.327 . S
C1197 C1203 1.429 . S
C1198 C1190 1.574 . S
C1198 H1193 0.949 . S
C1198 C1204 1.368 . S
C1199 C1183 1.349 . S
C1199 H1191 0.950 . S
C1199 C1197 1.327 . S
C1200 C1188 1.349 . S
C1200 H1194 0.950 . S
C1200 C1201 1.327 . S
C1201 H1195 0.950 . S
C1201 C1200 1.327 . S
C1201 C1205 1.429 . S
C1202 C1185 1.574 . S
C1202 H1196 0.949 . S
C1202 C1206 1.368 . S
C1203 C1184 1.429 . S
C1203 C1197 1.429 . S
C1203 C1204 1.523 . S
C1204 C1185 1.368 . S
C1204 C1198 1.368 . S
C1204 C1203 1.523 . S
C1205 C1189 1.429 . S
C1205 C1201 1.429 . S
C1205 C1206 1.523 . S
C1206 C1190 1.368 . S
C1206 C1202 1.368 . S
C1206 C1205 1.523 . S
H1207 C1182 0.950 . S
H1208 C1184 0.950 . S
H1209 C1185 0.949 . S
H1210 C1187 0.950 . S
H1211 C1189 0.950 . S
C1212 C1213 1.349 . S
C1212 C1214 1.327 . S
C1212 H1237 0.950 . S
C1213 C1212 1.349 . S
C1213 C1229 1.349 . S
C1214 C1212 1.327 . S
C1214 C1233 1.429 . S
C1214 H1238 0.950 . S
C1215 C1232 1.574 . S
C1215 C1234 1.368 . S
C1215 H1239 0.949 . S
H1216 C1220 0.949 . S
C1217 C1218 1.349 . S
C1217 C1219 1.327 . S
C1217 H1240 0.950 . S
C1218 C1217 1.349 . S
C1218 C1230 1.349 . S
C1219 C1217 1.327 . S
C1219 C1235 1.429 . S
C1219 H1241 0.950 . S
C1220 H1216 0.949 . S
C1220 C1228 1.574 . S
C1220 C1236 1.368 . S
H1221 C1229 0.950 . S
H1222 C1227 0.950 . S
H1223 C1228 0.949 . S
H1224 C1230 0.950 . S
H1225 C1231 0.950 . S
H1226 C1232 0.949 . S
C1227 H1222 0.950 . S
C1227 C1229 1.327 . S
C1227 C1233 1.429 . S
C1228 C1220 1.574 . S
C1228 H1223 0.949 . S
C1228 C1234 1.368 . S
C1229 C1213 1.349 . S
C1229 H1221 0.950 . S
C1229 C1227 1.327 . S
C1230 C1218 1.349 . S
C1230 H1224 0.950 . S
C1230 C1231 1.327 . S
C1231 H1225 0.950 . S
C1231 C1230 1.327 . S
C1231 C1235 1.429 . S
C1232 C1215 1.574 . S
C1232 H1226 0.949 . S
C1232 C1236 1.368 . S
C1233 C1214 1.429 . S
C1233 C1227 1.429 . S
C1233 C1234 1.523 . S
C1234 C1215 1.368 . S
C1234 C1228 1.368 . S
C1234 C1233 1.523 . S
C1235 C1219 1.429 . S
C1235 C1231 1.429 . S
C1235 C1236 1.523 . S
C1236 C1220 1.368 . S
C1236 C1232 1.368 . S
C1236 C1235 1.523 . S
H1237 C1212 0.950 . S
H1238 C1214 0.950 . S
H1239 C1215 0.949 . S
H1240 C1217 0.950 . S
H1241 C1219 0.950 . S
C1242 C1243 1.349 . S
C1242 C1244 1.327 . S
C1242 H1267 0.950 . S
C1243 C1242 1.349 . S
C1243 C1259 1.349 . S
C1244 C1242 1.327 . S
C1244 C1263 1.429 . S
C1244 H1268 0.950 . S
C1245 C1262 1.574 . S
C1245 C1264 1.368 . S
C1245 H1269 0.949 . S
H1246 C1250 0.949 . S
C1247 C1248 1.349 . S
C1247 C1249 1.327 . S
C1247 H1270 0.950 . S
C1248 C1247 1.349 . S
C1248 C1260 1.349 . S
C1249 C1247 1.327 . S
C1249 C1265 1.429 . S
C1249 H1271 0.950 . S
C1250 H1246 0.949 . S
C1250 C1258 1.574 . S
C1250 C1266 1.368 . S
H1251 C1259 0.950 . S
H1252 C1257 0.950 . S
H1253 C1258 0.949 . S
H1254 C1260 0.950 . S
H1255 C1261 0.950 . S
H1256 C1262 0.949 . S
C1257 H1252 0.950 . S
C1257 C1259 1.327 . S
C1257 C1263 1.429 . S
C1258 C1250 1.574 . S
C1258 H1253 0.949 . S
C1258 C1264 1.368 . S
C1259 C1243 1.349 . S
C1259 H1251 0.950 . S
C1259 C1257 1.327 . S
C1260 C1248 1.349 . S
C1260 H1254 0.950 . S
C1260 C1261 1.327 . S
C1261 H1255 0.950 . S
C1261 C1260 1.327 . S
C1261 C1265 1.429 . S
C1262 C1245 1.574 . S
C1262 H1256 0.949 . S
C1262 C1266 1.368 . S
C1263 C1244 1.429 . S
C1263 C1257 1.429 . S
C1263 C1264 1.523 . S
C1264 C1245 1.368 . S
C1264 C1258 1.368 . S
C1264 C1263 1.523 . S
C1265 C1249 1.429 . S
C1265 C1261 1.429 . S
C1265 C1266 1.523 . S
C1266 C1250 1.368 . S
C1266 C1262 1.368 . S
C1266 C1265 1.523 . S
H1267 C1242 0.950 . S
H1268 C1244 0.950 . S
H1269 C1245 0.949 . S
H1270 C1247 0.950 . S
H1271 C1249 0.950 . S
C1272 C1273 1.349 . S
C1272 C1274 1.327 . S
C1272 H1297 0.950 . S
C1273 C1272 1.349 . S
C1273 C1289 1.349 . S
C1274 C1272 1.327 . S
C1274 C1293 1.429 . S
C1274 H1298 0.950 . S
C1275 C1292 1.574 . S
C1275 C1294 1.368 . S
C1275 H1299 0.949 . S
H1276 C1280 0.949 . S
C1277 C1278 1.349 . S
C1277 C1279 1.327 . S
C1277 H1300 0.950 . S
C1278 C1277 1.349 . S
C1278 C1290 1.349 . S
C1279 C1277 1.327 . S
C1279 C1295 1.429 . S
C1279 H1301 0.950 . S
C1280 H1276 0.949 . S
C1280 C1288 1.574 . S
C1280 C1296 1.368 . S
H1281 C1289 0.950 . S
H1282 C1287 0.950 . S
H1283 C1288 0.949 . S
H1284 C1290 0.950 . S
H1285 C1291 0.950 . S
H1286 C1292 0.949 . S
C1287 H1282 0.950 . S
C1287 C1289 1.327 . S
C1287 C1293 1.429 . S
C1288 C1280 1.574 . S
C1288 H1283 0.949 . S
C1288 C1294 1.368 . S
C1289 C1273 1.349 . S
C1289 H1281 0.950 . S
C1289 C1287 1.327 . S
C1290 C1278 1.349 . S
C1290 H1284 0.950 . S
C1290 C1291 1.327 . S
C1291 H1285 0.950 . S
C1291 C1290 1.327 . S
C1291 C1295 1.429 . S
C1292 C1275 1.574 . S
C1292 H1286 0.949 . S
C1292 C1296 1.368 . S
C1293 C1274 1.429 . S
C1293 C1287 1.429 . S
C1293 C1294 1.523 . S
C1294 C1275 1.368 . S
C1294 C1288 1.368 . S
C1294 C1293 1.523 . S
C1295 C1279 1.429 . S
C1295 C1291 1.429 . S
C1295 C1296 1.523 . S
C1296 C1280 1.368 . S
C1296 C1292 1.368 . S
C1296 C1295 1.523 . S
H1297 C1272 0.950 . S
H1298 C1274 0.950 . S
H1299 C1275 0.949 . S
H1300 C1277 0.950 . S
H1301 C1279 0.950 . S
C1302 C1303 1.349 . S
C1302 C1304 1.327 . S
C1302 H1327 0.950 . S
C1303 C1302 1.349 . S
C1303 C1319 1.349 . S
C1304 C1302 1.327 . S
C1304 C1323 1.429 . S
C1304 H1328 0.950 . S
C1305 C1322 1.574 . S
C1305 C1324 1.368 . S
C1305 H1329 0.949 . S
H1306 C1310 0.949 . S
C1307 C1308 1.349 . S
C1307 C1309 1.327 . S
C1307 H1330 0.950 . S
C1308 C1307 1.349 . S
C1308 C1320 1.349 . S
C1309 C1307 1.327 . S
C1309 C1325 1.429 . S
C1309 H1331 0.950 . S
C1310 H1306 0.949 . S
C1310 C1318 1.574 . S
C1310 C1326 1.368 . S
H1311 C1319 0.950 . S
H1312 C1317 0.950 . S
H1313 C1318 0.949 . S
H1314 C1320 0.950 . S
H1315 C1321 0.950 . S
H1316 C1322 0.949 . S
C1317 H1312 0.950 . S
C1317 C1319 1.327 . S
C1317 C1323 1.429 . S
C1318 C1310 1.574 . S
C1318 H1313 0.949 . S
C1318 C1324 1.368 . S
C1319 C1303 1.349 . S
C1319 H1311 0.950 . S
C1319 C1317 1.327 . S
C1320 C1308 1.349 . S
C1320 H1314 0.950 . S
C1320 C1321 1.327 . S
C1321 H1315 0.950 . S
C1321 C1320 1.327 . S
C1321 C1325 1.429 . S
C1322 C1305 1.574 . S
C1322 H1316 0.949 . S
C1322 C1326 1.368 . S
C1323 C1304 1.429 . S
C1323 C1317 1.429 . S
C1323 C1324 1.523 . S
C1324 C1305 1.368 . S
C1324 C1318 1.368 . S
C1324 C1323 1.523 . S
C1325 C1309 1.429 . S
C1325 C1321 1.429 . S
C1325 C1326 1.523 . S
C1326 C1310 1.368 . S
C1326 C1322 1.368 . S
C1326 C1325 1.523 . S
H1327 C1302 0.950 . S
H1328 C1304 0.950 . S
H1329 C1305 0.949 . S
H1330 C1307 0.950 . S
H1331 C1309 0.950 . S
C1332 C1333 1.349 . S
C1332 C1334 1.327 . S
C1332 H1357 0.950 . S
C1333 C1332 1.349 . S
C1333 C1349 1.349 1_545 S
C1334 C1332 1.327 . S
C1334 C1353 1.429 . S
C1334 H1358 0.950 . S
C1335 C1352 1.574 . S
C1335 C1354 1.368 1_565 S
C1335 H1359 0.949 . S
H1336 C1340 0.949 . S
C1337 C1338 1.349 . S
C1337 C1339 1.327 . S
C1337 H1360 0.950 . S
C1338 C1337 1.349 . S
C1338 C1350 1.349 1_565 S
C1339 C1337 1.327 . S
C1339 C1355 1.429 . S
C1339 H1361 0.950 . S
C1340 H1336 0.949 . S
C1340 C1348 1.574 . S
C1340 C1356 1.354 1_545 S
H1341 C1349 0.950 . S
H1342 C1347 0.950 . S
H1343 C1348 0.949 . S
H1344 C1350 0.950 . S
H1345 C1351 0.950 . S
H1346 C1352 0.949 . S
C1347 H1342 0.950 . S
C1347 C1349 1.327 . S
C1347 C1353 1.429 1_565 S
C1348 C1340 1.574 . S
C1348 H1343 0.949 . S
C1348 C1354 1.368 . S
C1349 C1333 1.349 1_565 S
C1349 H1341 0.950 . S
C1349 C1347 1.327 . S
C1350 C1338 1.349 1_545 S
C1350 H1344 0.950 . S
C1350 C1351 1.327 . S
C1351 H1345 0.950 . S
C1351 C1350 1.327 . S
C1351 C1355 1.429 1_545 S
C1352 C1335 1.574 . S
C1352 H1346 0.949 . S
C1352 C1356 1.382 . S
C1353 C1334 1.429 . S
C1353 C1347 1.429 1_545 S
C1353 C1354 1.523 . S
C1354 C1335 1.368 1_545 S
C1354 C1348 1.368 . S
C1354 C1353 1.523 . S
C1355 C1339 1.429 . S
C1355 C1351 1.429 1_565 S
C1355 C1356 1.526 . S
C1356 C1340 1.354 1_565 S
C1356 C1352 1.382 . S
C1356 C1355 1.526 . S
H1357 C1332 0.950 . S
H1358 C1334 0.950 . S
H1359 C1335 0.949 . S
H1360 C1337 0.950 . S
H1361 C1339 0.950 . S
C1362 C1363 1.349 . S
C1362 C1364 1.327 . S
C1362 H1387 0.950 . S
C1363 C1362 1.349 . S
C1363 C1379 1.349 1_556 S
C1364 C1362 1.327 . S
C1364 C1383 1.429 . S
C1364 H1388 0.950 . S
C1365 C1382 1.574 . S
C1365 C1384 1.345 1_554 S
C1365 H1389 0.949 . S
H1366 C1370 0.949 . S
C1367 C1368 1.349 . S
C1367 C1369 1.327 . S
C1367 H1390 0.950 . S
C1368 C1367 1.349 . S
C1368 C1380 1.349 1_554 S
C1369 C1367 1.327 . S
C1369 C1385 1.429 . S
C1369 H1391 0.950 . S
C1370 H1366 0.949 . S
C1370 C1378 1.574 . S
C1370 C1386 1.368 1_556 S
H1371 C1379 0.950 . S
H1372 C1377 0.950 . S
H1373 C1378 0.949 . S
H1374 C1380 0.950 . S
H1375 C1381 0.950 . S
H1376 C1382 0.949 . S
C1377 H1372 0.950 . S
C1377 C1379 1.327 . S
C1377 C1383 1.429 1_554 S
C1378 C1370 1.574 . S
C1378 H1373 0.949 . S
C1378 C1384 1.391 . S
C1379 C1363 1.349 1_554 S
C1379 H1371 0.950 . S
C1379 C1377 1.327 . S
C1380 C1368 1.349 1_556 S
C1380 H1374 0.950 . S
C1380 C1381 1.327 . S
C1381 H1375 0.950 . S
C1381 C1380 1.327 . S
C1381 C1385 1.429 1_556 S
C1382 C1365 1.574 . S
C1382 H1376 0.949 . S
C1382 C1386 1.368 . S
C1383 C1364 1.429 . S
C1383 C1377 1.429 1_556 S
C1383 C1384 1.525 . S
C1384 C1365 1.345 1_556 S
C1384 C1378 1.391 . S
C1384 C1383 1.525 . S
C1385 C1369 1.429 . S
C1385 C1381 1.429 1_554 S
C1385 C1386 1.523 . S
C1386 C1370 1.368 1_554 S
C1386 C1382 1.368 . S
C1386 C1385 1.523 . S
H1387 C1362 0.950 . S
H1388 C1364 0.950 . S
H1389 C1365 0.949 . S
H1390 C1367 0.950 . S
H1391 C1369 0.950 . S
C1392 C1393 1.346 1_655 S
C1392 C1394 1.327 . S
C1392 H1417 0.950 . S
C1393 C1392 1.346 1_455 S
C1393 C1409 1.352 . S
C1394 C1392 1.327 . S
C1394 C1413 1.429 1_655 S
C1394 H1418 0.950 . S
C1395 C1412 1.574 . S
C1395 C1414 1.368 1_445 S
C1395 H1419 0.949 . S
H1396 C1400 0.949 . S
C1397 C1398 1.349 1_455 S
C1397 C1399 1.327 . S
C1397 H1420 0.950 . S
C1398 C1397 1.349 1_655 S
C1398 C1410 1.349 . S
C1399 C1397 1.327 . S
C1399 C1415 1.423 1_455 S
C1399 H1421 0.950 . S
C1400 H1396 0.949 . S
C1400 C1408 1.574 . S
C1400 C1416 1.373 1_565 S
H1401 C1409 0.950 . S
H1402 C1407 0.950 . S
H1403 C1408 0.949 . S
H1404 C1410 0.950 . S
H1405 C1411 0.950 . S
H1406 C1412 0.949 . S
C1407 H1402 0.950 . S
C1407 C1409 1.327 . S
C1407 C1413 1.428 . S
C1408 C1400 1.574 . S
C1408 H1403 0.949 . S
C1408 C1414 1.369 . S
C1409 C1393 1.352 . S
C1409 H1401 0.950 . S
C1409 C1407 1.327 . S
C1410 C1398 1.349 . S
C1410 H1404 0.950 . S
C1410 C1411 1.327 . S
C1411 H1405 0.950 . S
C1411 C1410 1.327 . S
C1411 C1415 1.435 . S
C1412 C1395 1.574 . S
C1412 H1406 0.949 . S
C1412 C1416 1.364 1_455 S
C1413 C1394 1.429 1_455 S
C1413 C1407 1.428 . S
C1413 C1414 1.523 1_455 S
C1414 C1395 1.368 1_665 S
C1414 C1408 1.369 . S
C1414 C1413 1.523 1_655 S
C1415 C1399 1.423 1_655 S
C1415 C1411 1.435 . S
C1415 C1416 1.523 . S
C1416 C1400 1.373 1_545 S
C1416 C1412 1.364 1_655 S
C1416 C1415 1.523 . S
H1417 C1392 0.950 . S
H1418 C1394 0.950 . S
H1419 C1395 0.949 . S
H1420 C1397 0.950 . S
H1421 C1399 0.950 . S
C1422 C1423 1.338 1_655 S
C1422 C1424 1.327 . S
C1422 H1447 0.950 . S
C1423 C1422 1.338 1_455 S
C1423 C1439 1.359 . S
C1424 C1422 1.327 . S
C1424 C1443 1.427 . S
C1424 H1448 0.950 . S
C1425 C1442 1.574 . S
C1425 C1444 1.359 1_455 S
C1425 H1449 0.949 . S
H1426 C1430 0.949 . S
C1427 C1428 1.349 1_455 S
C1427 C1429 1.327 . S
C1427 H1450 0.950 . S
C1428 C1427 1.349 1_655 S
C1428 C1440 1.349 . S
C1429 C1427 1.327 . S
C1429 C1445 1.392 1_455 S
C1429 H1451 0.950 . S
C1430 H1426 0.949 . S
C1430 C1438 1.574 . S
C1430 C1446 1.397 . S
H1431 C1439 0.950 . S
H1432 C1437 0.950 . S
H1433 C1438 0.949 . S
H1434 C1440 0.950 . S
H1435 C1441 0.950 . S
H1436 C1442 0.949 . S
C1437 H1432 0.950 . S
C1437 C1439 1.327 . S
C1437 C1443 1.430 1_455 S
C1438 C1430 1.574 . S
C1438 H1433 0.949 . S
C1438 C1444 1.378 . S
C1439 C1423 1.359 . S
C1439 H1431 0.950 . S
C1439 C1437 1.327 . S
C1440 C1428 1.349 . S
C1440 H1434 0.950 . S
C1440 C1441 1.327 . S
C1441 H1435 0.950 . S
C1441 C1440 1.327 . S
C1441 C1445 1.466 . S
C1442 C1425 1.574 . S
C1442 H1436 0.949 . S
C1442 C1446 1.339 1_455 S
C1443 C1424 1.427 . S
C1443 C1437 1.430 1_655 S
C1443 C1444 1.523 . S
C1444 C1425 1.359 1_655 S
C1444 C1438 1.378 . S
C1444 C1443 1.523 . S
C1445 C1429 1.392 1_655 S
C1445 C1441 1.466 . S
C1445 C1446 1.523 . S
C1446 C1430 1.397 . S
C1446 C1442 1.339 1_655 S
C1446 C1445 1.523 . S
H1447 C1422 0.950 . S
H1448 C1424 0.950 . S
H1449 C1425 0.949 . S
H1450 C1427 0.950 . S
H1451 C1429 0.950 . S
C1452 C1453 1.363 . S
C1452 C1454 1.327 . S
C1452 H1477 0.950 . S
C1453 C1452 1.363 . S
C1453 C1469 1.334 1_545 S
C1454 C1452 1.327 . S
C1454 C1473 1.427 . S
C1454 H1478 0.950 . S
C1455 C1472 1.590 . S
C1455 C1474 1.371 . S
C1455 H1479 0.949 . S
H1456 C1460 0.949 . S
C1457 C1458 1.349 . S
C1457 C1459 1.327 . S
C1457 H1480 0.950 . S
C1458 C1457 1.349 . S
C1458 C1470 1.349 1_565 S
C1459 C1457 1.327 . S
C1459 C1475 1.455 . S
C1459 H1481 0.950 . S
C1460 H1456 0.949 . S
C1460 C1468 1.574 1_554 S
C1460 C1476 1.349 1_545 S
H1461 C1469 0.950 . S
H1462 C1467 0.950 . S
H1463 C1468 0.949 . S
H1464 C1470 0.950 . S
H1465 C1471 0.950 . S
H1466 C1472 0.948 1_554 S
C1467 H1462 0.950 . S
C1467 C1469 1.327 . S
C1467 C1473 1.431 1_565 S
C1468 C1460 1.574 1_556 S
C1468 H1463 0.949 . S
C1468 C1474 1.366 1_545 S
C1469 C1453 1.334 1_565 S
C1469 H1461 0.950 . S
C1469 C1467 1.327 . S
C1470 C1458 1.349 1_545 S
C1470 H1464 0.950 . S
C1470 C1471 1.327 . S
C1471 H1465 0.950 . S
C1471 C1470 1.327 . S
C1471 C1475 1.403 1_545 S
C1472 C1455 1.590 . S
C1472 H1466 0.948 1_556 S
C1472 C1476 1.373 1_556 S
C1473 C1454 1.427 . S
C1473 C1467 1.431 1_545 S
C1473 C1474 1.523 1_545 S
C1474 C1455 1.371 . S
C1474 C1468 1.366 1_565 S
C1474 C1473 1.523 1_565 S
C1475 C1459 1.455 . S
C1475 C1471 1.403 1_565 S
C1475 C1476 1.523 . S
C1476 C1460 1.349 1_565 S
C1476 C1472 1.373 1_554 S
C1476 C1475 1.523 . S
H1477 C1452 0.950 . S
H1478 C1454 0.950 . S
H1479 C1455 0.949 . S
H1480 C1457 0.950 . S
H1481 C1459 0.950 . S
C1482 C1483 1.349 . S
C1482 C1484 1.327 . S
C1482 H1507 0.950 . S
C1483 C1482 1.349 . S
C1483 C1499 1.349 . S
C1484 C1482 1.327 . S
C1484 C1503 1.429 . S
C1484 H1508 0.950 . S
C1485 C1502 1.563 1_554 S
C1485 C1504 1.378 . S
C1485 H1509 0.950 . S
H1486 C1490 0.949 . S
C1487 C1488 1.349 . S
C1487 C1489 1.327 . S
C1487 H1510 0.950 . S
C1488 C1487 1.349 . S
C1488 C1500 1.349 . S
C1489 C1487 1.327 . S
C1489 C1505 1.429 . S
C1489 H1511 0.950 . S
C1490 H1486 0.949 . S
C1490 C1498 1.574 1_556 S
C1490 C1506 1.368 . S
H1491 C1499 0.950 . S
H1492 C1497 0.950 . S
H1493 C1498 0.949 . S
H1494 C1500 0.950 . S
H1495 C1501 0.950 . S
H1496 C1502 0.949 . S
C1497 H1492 0.950 . S
C1497 C1499 1.327 . S
C1497 C1503 1.429 . S
C1498 C1490 1.574 1_554 S
C1498 H1493 0.949 . S
C1498 C1504 1.368 . S
C1499 C1483 1.349 . S
C1499 H1491 0.950 . S
C1499 C1497 1.327 . S
C1500 C1488 1.349 . S
C1500 H1494 0.950 . S
C1500 C1501 1.327 . S
C1501 H1495 0.950 . S
C1501 C1500 1.327 . S
C1501 C1505 1.429 . S
C1502 C1485 1.563 1_556 S
C1502 H1496 0.949 . S
C1502 C1506 1.368 . S
C1503 C1484 1.429 . S
C1503 C1497 1.429 . S
C1503 C1504 1.523 . S
C1504 C1485 1.378 . S
C1504 C1498 1.368 . S
C1504 C1503 1.523 . S
C1505 C1489 1.429 . S
C1505 C1501 1.429 . S
C1505 C1506 1.523 . S
C1506 C1490 1.368 . S
C1506 C1502 1.368 . S
C1506 C1505 1.523 . S
H1507 C1482 0.950 . S
H1508 C1484 0.950 . S
H1509 C1485 0.950 . S
H1510 C1487 0.950 . S
H1511 C1489 0.950 . S
C1512 C1513 1.340 1_565 S
C1512 C1514 1.327 . S
C1512 H1537 0.950 . S
C1513 C1512 1.340 1_545 S
C1513 C1529 1.357 . S
C1514 C1512 1.327 . S
C1514 C1533 1.427 . S
C1514 H1538 0.950 . S
C1515 C1532 1.574 . S
C1515 C1534 1.361 1_545 S
C1515 H1539 0.949 . S
H1516 C1520 0.949 . S
C1517 C1518 1.349 1_545 S
C1517 C1519 1.327 . S
C1517 H1540 0.950 . S
C1518 C1517 1.349 1_565 S
C1518 C1530 1.349 . S
C1519 C1517 1.327 . S
C1519 C1535 1.399 1_545 S
C1519 H1541 0.950 . S
C1520 H1516 0.949 . S
C1520 C1528 1.574 . S
C1520 C1536 1.392 . S
H1521 C1529 0.950 . S
H1522 C1527 0.950 . S
H1523 C1528 0.949 . S
H1524 C1530 0.950 . S
H1525 C1531 0.950 . S
H1526 C1532 0.949 . S
C1527 H1522 0.950 . S
C1527 C1529 1.327 . S
C1527 C1533 1.430 1_545 S
C1528 C1520 1.574 . S
C1528 H1523 0.949 . S
C1528 C1534 1.376 . S
C1529 C1513 1.357 . S
C1529 H1521 0.950 . S
C1529 C1527 1.327 . S
C1530 C1518 1.349 . S
C1530 H1524 0.950 . S
C1530 C1531 1.327 . S
C1531 H1525 0.950 . S
C1531 C1530 1.327 . S
C1531 C1535 1.459 . S
C1532 C1515 1.574 . S
C1532 H1526 0.949 . S
C1532 C1536 1.345 1_545 S
C1533 C1514 1.427 . S
C1533 C1527 1.430 1_565 S
C1533 C1534 1.523 . S
C1534 C1515 1.361 1_565 S
C1534 C1528 1.376 . S
C1534 C1533 1.523 . S
C1535 C1519 1.399 1_565 S
C1535 C1531 1.459 . S
C1535 C1536 1.523 . S
C1536 C1520 1.392 . S
C1536 C1532 1.345 1_565 S
C1536 C1535 1.523 . S
H1537 C1512 0.950 . S
H1538 C1514 0.950 . S
H1539 C1515 0.949 . S
H1540 C1517 0.950 . S
H1541 C1519 0.950 . S
C1542 C1543 1.349 . S
C1542 C1544 1.327 . S
C1542 H1567 0.950 . S
C1543 C1542 1.349 . S
C1543 C1559 1.349 . S
C1544 C1542 1.327 . S
C1544 C1563 1.429 . S
C1544 H1568 0.950 . S
C1545 C1562 1.574 . S
C1545 C1564 1.368 . S
C1545 H1569 0.949 . S
H1546 C1550 0.949 . S
C1547 C1548 1.349 . S
C1547 C1549 1.327 . S
C1547 H1570 0.950 . S
C1548 C1547 1.349 . S
C1548 C1560 1.349 . S
C1549 C1547 1.327 . S
C1549 C1565 1.429 . S
C1549 H1571 0.950 . S
C1550 H1546 0.949 . S
C1550 C1558 1.574 . S
C1550 C1566 1.368 . S
H1551 C1559 0.950 . S
H1552 C1557 0.950 . S
H1553 C1558 0.949 . S
H1554 C1560 0.950 . S
H1555 C1561 0.950 . S
H1556 C1562 0.949 . S
C1557 H1552 0.950 . S
C1557 C1559 1.327 . S
C1557 C1563 1.429 . S
C1558 C1550 1.574 . S
C1558 H1553 0.949 . S
C1558 C1564 1.368 . S
C1559 C1543 1.349 . S
C1559 H1551 0.950 . S
C1559 C1557 1.327 . S
C1560 C1548 1.349 . S
C1560 H1554 0.950 . S
C1560 C1561 1.327 . S
C1561 H1555 0.950 . S
C1561 C1560 1.327 . S
C1561 C1565 1.429 . S
C1562 C1545 1.574 . S
C1562 H1556 0.949 . S
C1562 C1566 1.368 . S
C1563 C1544 1.429 . S
C1563 C1557 1.429 . S
C1563 C1564 1.523 . S
C1564 C1545 1.368 . S
C1564 C1558 1.368 . S
C1564 C1563 1.523 . S
C1565 C1549 1.429 . S
C1565 C1561 1.429 . S
C1565 C1566 1.523 . S
C1566 C1550 1.368 . S
C1566 C1562 1.368 . S
C1566 C1565 1.523 . S
H1567 C1542 0.950 . S
H1568 C1544 0.950 . S
H1569 C1545 0.949 . S
H1570 C1547 0.950 . S
H1571 C1549 0.950 . S
C1572 C1573 1.349 1_554 S
C1572 C1574 1.327 . S
C1572 H1597 0.950 . S
C1573 C1572 1.349 1_556 S
C1573 C1589 1.349 . S
C1574 C1572 1.327 . S
C1574 C1593 1.403 1_554 S
C1574 H1598 0.950 . S
C1575 C1592 1.574 1_455 S
C1575 C1594 1.387 . S
C1575 H1599 0.949 . S
H1576 C1580 0.949 . S
C1577 C1578 1.334 1_556 S
C1577 C1579 1.327 . S
C1577 H1600 0.950 . S
C1578 C1577 1.334 1_554 S
C1578 C1590 1.363 . S
C1579 C1577 1.327 . S
C1579 C1595 1.430 1_556 S
C1579 H1601 0.950 . S
C1580 H1576 0.949 . S
C1580 C1588 1.585 . S
C1580 C1596 1.366 1_554 S
H1581 C1589 0.950 . S
H1582 C1587 0.950 . S
H1583 C1588 0.947 1_455 S
H1584 C1590 0.950 . S
H1585 C1591 0.950 . S
H1586 C1592 0.949 . S
C1587 H1582 0.950 . S
C1587 C1589 1.327 . S
C1587 C1593 1.455 . S
C1588 C1580 1.585 . S
C1588 H1583 0.947 1_655 S
C1588 C1594 1.339 1_654 S
C1589 C1573 1.349 . S
C1589 H1581 0.950 . S
C1589 C1587 1.327 . S
C1590 C1578 1.363 . S
C1590 H1584 0.950 . S
C1590 C1591 1.327 . S
C1591 H1585 0.950 . S
C1591 C1590 1.327 . S
C1591 C1595 1.427 . S
C1592 C1575 1.574 1_655 S
C1592 H1586 0.949 . S
C1592 C1596 1.371 . S
C1593 C1574 1.403 1_556 S
C1593 C1587 1.455 . S
C1593 C1594 1.523 . S
C1594 C1575 1.387 . S
C1594 C1588 1.339 1_456 S
C1594 C1593 1.523 . S
C1595 C1579 1.430 1_554 S
C1595 C1591 1.427 . S
C1595 C1596 1.523 1_554 S
C1596 C1580 1.366 1_556 S
C1596 C1592 1.371 . S
C1596 C1595 1.523 1_556 S
H1597 C1572 0.950 . S
H1598 C1574 0.950 . S
H1599 C1575 0.949 . S
H1600 C1577 0.950 . S
H1601 C1579 0.950 . S
C1602 C1603 1.349 . S
C1602 C1604 1.327 . S
C1602 H1627 0.950 . S
C1603 C1602 1.349 . S
C1603 C1619 1.349 . S
C1604 C1602 1.327 . S
C1604 C1623 1.429 . S
C1604 H1628 0.950 . S
C1605 C1622 1.555 1_455 S
C1605 C1624 1.384 . S
C1605 H1629 0.952 . S
H1606 C1610 0.949 . S
C1607 C1608 1.349 . S
C1607 C1609 1.327 . S
C1607 H1630 0.950 . S
C1608 C1607 1.349 . S
C1608 C1620 1.349 . S
C1609 C1607 1.327 . S
C1609 C1625 1.429 . S
C1609 H1631 0.950 . S
C1610 H1606 0.949 . S
C1610 C1618 1.574 1_655 S
C1610 C1626 1.368 . S
H1611 C1619 0.950 . S
H1612 C1617 0.950 . S
H1613 C1618 0.949 . S
H1614 C1620 0.950 . S
H1615 C1621 0.950 . S
H1616 C1622 0.949 . S
C1617 H1612 0.950 . S
C1617 C1619 1.327 . S
C1617 C1623 1.429 . S
C1618 C1610 1.574 1_455 S
C1618 H1613 0.949 . S
C1618 C1624 1.368 . S
C1619 C1603 1.349 . S
C1619 H1611 0.950 . S
C1619 C1617 1.327 . S
C1620 C1608 1.349 . S
C1620 H1614 0.950 . S
C1620 C1621 1.327 . S
C1621 H1615 0.950 . S
C1621 C1620 1.327 . S
C1621 C1625 1.429 . S
C1622 C1605 1.555 1_655 S
C1622 H1616 0.949 . S
C1622 C1626 1.368 . S
C1623 C1604 1.429 . S
C1623 C1617 1.429 . S
C1623 C1624 1.523 . S
C1624 C1605 1.384 . S
C1624 C1618 1.368 . S
C1624 C1623 1.523 . S
C1625 C1609 1.429 . S
C1625 C1621 1.429 . S
C1625 C1626 1.523 . S
C1626 C1610 1.368 . S
C1626 C1622 1.368 . S
C1626 C1625 1.523 . S
H1627 C1602 0.950 . S
H1628 C1604 0.950 . S
H1629 C1605 0.952 . S
H1630 C1607 0.950 . S
H1631 C1609 0.950 . S
C1632 C1633 1.349 . S
C1632 C1634 1.327 . S
C1632 H1657 0.950 . S
C1633 C1632 1.349 . S
C1633 C1649 1.349 . S
C1634 C1632 1.327 . S
C1634 C1653 1.429 . S
C1634 H1658 0.950 . S
C1635 C1652 1.574 . S
C1635 C1654 1.368 . S
C1635 H1659 0.949 . S
H1636 C1640 0.949 . S
C1637 C1638 1.349 . S
C1637 C1639 1.327 . S
C1637 H1660 0.950 . S
C1638 C1637 1.349 . S
C1638 C1650 1.349 . S
C1639 C1637 1.327 . S
C1639 C1655 1.429 . S
C1639 H1661 0.950 . S
C1640 H1636 0.949 . S
C1640 C1648 1.574 . S
C1640 C1656 1.368 . S
H1641 C1649 0.950 . S
H1642 C1647 0.950 . S
H1643 C1648 0.949 . S
H1644 C1650 0.950 . S
H1645 C1651 0.950 . S
H1646 C1652 0.949 . S
C1647 H1642 0.950 . S
C1647 C1649 1.327 . S
C1647 C1653 1.429 . S
C1648 C1640 1.574 . S
C1648 H1643 0.949 . S
C1648 C1654 1.368 . S
C1649 C1633 1.349 . S
C1649 H1641 0.950 . S
C1649 C1647 1.327 . S
C1650 C1638 1.349 . S
C1650 H1644 0.950 . S
C1650 C1651 1.327 . S
C1651 H1645 0.950 . S
C1651 C1650 1.327 . S
C1651 C1655 1.429 . S
C1652 C1635 1.574 . S
C1652 H1646 0.949 . S
C1652 C1656 1.368 . S
C1653 C1634 1.429 . S
C1653 C1647 1.429 . S
C1653 C1654 1.523 . S
C1654 C1635 1.368 . S
C1654 C1648 1.368 . S
C1654 C1653 1.523 . S
C1655 C1639 1.429 . S
C1655 C1651 1.429 . S
C1655 C1656 1.523 . S
C1656 C1640 1.368 . S
C1656 C1652 1.368 . S
C1656 C1655 1.523 . S
H1657 C1632 0.950 . S
H1658 C1634 0.950 . S
H1659 C1635 0.949 . S
H1660 C1637 0.950 . S
H1661 C1639 0.950 . S
C1662 C1663 1.349 . S
C1662 C1664 1.327 . S
C1662 H1687 0.950 . S
C1663 C1662 1.349 . S
C1663 C1679 1.349 . S
C1664 C1662 1.327 . S
C1664 C1683 1.429 . S
C1664 H1688 0.950 . S
C1665 C1682 1.574 . S
C1665 C1684 1.368 . S
C1665 H1689 0.949 . S
H1666 C1670 0.949 . S
C1667 C1668 1.349 . S
C1667 C1669 1.327 . S
C1667 H1690 0.950 . S
C1668 C1667 1.349 . S
C1668 C1680 1.349 . S
C1669 C1667 1.327 . S
C1669 C1685 1.429 . S
C1669 H1691 0.950 . S
C1670 H1666 0.949 . S
C1670 C1678 1.574 . S
C1670 C1686 1.368 . S
H1671 C1679 0.950 . S
H1672 C1677 0.950 . S
H1673 C1678 0.949 . S
H1674 C1680 0.950 . S
H1675 C1681 0.950 . S
H1676 C1682 0.949 . S
C1677 H1672 0.950 . S
C1677 C1679 1.327 . S
C1677 C1683 1.429 . S
C1678 C1670 1.574 . S
C1678 H1673 0.949 . S
C1678 C1684 1.368 . S
C1679 C1663 1.349 . S
C1679 H1671 0.950 . S
C1679 C1677 1.327 . S
C1680 C1668 1.349 . S
C1680 H1674 0.950 . S
C1680 C1681 1.327 . S
C1681 H1675 0.950 . S
C1681 C1680 1.327 . S
C1681 C1685 1.429 . S
C1682 C1665 1.574 . S
C1682 H1676 0.949 . S
C1682 C1686 1.368 . S
C1683 C1664 1.429 . S
C1683 C1677 1.429 . S
C1683 C1684 1.523 . S
C1684 C1665 1.368 . S
C1684 C1678 1.368 . S
C1684 C1683 1.523 . S
C1685 C1669 1.429 . S
C1685 C1681 1.429 . S
C1685 C1686 1.523 . S
C1686 C1670 1.368 . S
C1686 C1682 1.368 . S
C1686 C1685 1.523 . S
H1687 C1662 0.950 . S
H1688 C1664 0.950 . S
H1689 C1665 0.949 . S
H1690 C1667 0.950 . S
H1691 C1669 0.950 . S
C1692 C1693 1.349 . S
C1692 C1694 1.327 . S
C1692 H1717 0.950 . S
C1693 C1692 1.349 . S
C1693 C1709 1.349 . S
C1694 C1692 1.327 . S
C1694 C1713 1.429 . S
C1694 H1718 0.950 . S
C1695 C1712 1.574 1_565 S
C1695 C1714 1.368 . S
C1695 H1719 0.949 . S
H1696 C1700 0.949 . S
C1697 C1698 1.349 . S
C1697 C1699 1.327 . S
C1697 H1720 0.950 . S
C1698 C1697 1.349 . S
C1698 C1710 1.349 . S
C1699 C1697 1.327 . S
C1699 C1715 1.429 . S
C1699 H1721 0.950 . S
C1700 H1696 0.949 . S
C1700 C1708 1.574 1_545 S
C1700 C1716 1.368 . S
H1701 C1709 0.950 . S
H1702 C1707 0.950 . S
H1703 C1708 0.949 . S
H1704 C1710 0.950 . S
H1705 C1711 0.950 . S
H1706 C1712 0.949 . S
C1707 H1702 0.950 . S
C1707 C1709 1.327 . S
C1707 C1713 1.429 . S
C1708 C1700 1.574 1_565 S
C1708 H1703 0.949 . S
C1708 C1714 1.368 . S
C1709 C1693 1.349 . S
C1709 H1701 0.950 . S
C1709 C1707 1.327 . S
C1710 C1698 1.349 . S
C1710 H1704 0.950 . S
C1710 C1711 1.327 . S
C1711 H1705 0.950 . S
C1711 C1710 1.327 . S
C1711 C1715 1.429 . S
C1712 C1695 1.574 1_545 S
C1712 H1706 0.949 . S
C1712 C1716 1.368 . S
C1713 C1694 1.429 . S
C1713 C1707 1.429 . S
C1713 C1714 1.523 . S
C1714 C1695 1.368 . S
C1714 C1708 1.368 . S
C1714 C1713 1.523 . S
C1715 C1699 1.429 . S
C1715 C1711 1.429 . S
C1715 C1716 1.523 . S
C1716 C1700 1.368 . S
C1716 C1712 1.368 . S
C1716 C1715 1.523 . S
H1717 C1692 0.950 . S
H1718 C1694 0.950 . S
H1719 C1695 0.949 . S
H1720 C1697 0.950 . S
H1721 C1699 0.950 . S
C1722 C1723 1.340 1_556 S
C1722 C1724 1.327 . S
C1722 H1747 0.950 . S
C1723 C1722 1.340 1_554 S
C1723 C1739 1.357 . S
C1724 C1722 1.327 . S
C1724 C1743 1.427 . S
C1724 H1748 0.950 . S
C1725 C1742 1.574 . S
C1725 C1744 1.361 1_554 S
C1725 H1749 0.949 . S
H1726 C1730 0.949 . S
C1727 C1728 1.349 1_554 S
C1727 C1729 1.327 . S
C1727 H1750 0.950 . S
C1728 C1727 1.349 1_556 S
C1728 C1740 1.349 . S
C1729 C1727 1.327 . S
C1729 C1745 1.399 1_554 S
C1729 H1751 0.950 . S
C1730 H1726 0.949 . S
C1730 C1738 1.574 . S
C1730 C1746 1.392 . S
H1731 C1739 0.950 . S
H1732 C1737 0.950 . S
H1733 C1738 0.949 . S
H1734 C1740 0.950 . S
H1735 C1741 0.950 . S
H1736 C1742 0.949 . S
C1737 H1732 0.950 . S
C1737 C1739 1.327 . S
C1737 C1743 1.430 1_554 S
C1738 C1730 1.574 . S
C1738 H1733 0.949 . S
C1738 C1744 1.376 . S
C1739 C1723 1.357 . S
C1739 H1731 0.950 . S
C1739 C1737 1.327 . S
C1740 C1728 1.349 . S
C1740 H1734 0.950 . S
C1740 C1741 1.327 . S
C1741 H1735 0.950 . S
C1741 C1740 1.327 . S
C1741 C1745 1.459 . S
C1742 C1725 1.574 . S
C1742 H1736 0.949 . S
C1742 C1746 1.345 1_554 S
C1743 C1724 1.427 . S
C1743 C1737 1.430 1_556 S
C1743 C1744 1.523 . S
C1744 C1725 1.361 1_556 S
C1744 C1738 1.376 . S
C1744 C1743 1.523 . S
C1745 C1729 1.399 1_556 S
C1745 C1741 1.459 . S
C1745 C1746 1.523 . S
C1746 C1730 1.392 . S
C1746 C1742 1.345 1_556 S
C1746 C1745 1.523 . S
H1747 C1722 0.950 . S
H1748 C1724 0.950 . S
H1749 C1725 0.949 . S
H1750 C1727 0.950 . S
H1751 C1729 0.950 . S
C313 C224 0.269 . S
C318 C3 0.239 . S
C343 C18 0.234 . S
C348 C213 0.405 . S
C373 C31 0.410 . S
C378 C252 0.425 . S
C403 C42 0.415 . S
C408 C237 0.487 . S
C433 C57 0.247 . S
C438 C278 0.274 . S
C463 C68 0.353 . S
C468 C291 0.388 . S
C493 C263 0.405 . S
C498 C83 0.228 . S
C523 C146 0.457 . S
C528 C94 0.352 . S
C553 C107 0.247 . S
C558 C44 0.274 . S
C583 C16 0.383 . S
C588 C120 0.353 . S
C613 C135 0.573 . S
C618 C5 0.586 . S
C643 C148 0.352 . S
C648 C185 0.457 . S
C673 C70 0.610 . S
C678 C161 0.579 . S
C703 C55 0.582 . S
C708 C174 0.574 . S
C733 C187 0.352 . S
C738 C96 0.457 . S
C763 C200 0.353 . S
C768 C81 0.388 . S
C793 C122 0.610 . S
C798 C211 0.579 . S
C823 C133 0.489 . S
C828 C226 0.410 . S
C853 C109 0.582 . S
C858 C239 0.574 . S
C883 C250 0.410 . S
C888 C302 0.425 . S
C913 C198 0.610 . S
C918 C265 0.579 . S
C943 C276 0.415 . S
C948 C172 0.487 . S
C973 C159 0.405 . S
C978 C289 0.228 . S
C1003 C304 0.410 . S
C1008 C29 0.425 . S
C1033 C4 2.102 . S
C1038 C23 2.093 . S
C1063 C43 1.993 . S
C1068 C36 2.002 . S
C1093 C62 2.102 . S
C1098 C88 2.093 . S
C1123 C69 2.288 . S
C1128 C95 2.274 . S
C1153 C290 2.092 . S
C1158 C108 2.102 . S
C1183 C121 2.288 . S
C1188 C153 2.274 . S
C1213 C270 2.174 . S
C1218 C140 2.187 . S
C1243 C179 2.187 . S
C1248 C166 2.174 . S
C1273 C192 2.274 . S
C1278 C205 2.288 . S
C1303 C244 2.187 . S
C1308 C212 2.174 . S
C1333 C231 1.993 . S
C1338 C251 2.002 . S
C1363 C309 2.002 . S
C1368 C277 1.993 . S
C1393 C30 1.139 . S
C1398 C10 1.142 . S
C1423 C17 1.441 . S
C1428 C49 1.439 . S
C1453 C257 1.139 . S
C1458 C56 1.142 . S
C1483 C75 1.336 . S
C1488 C238 1.335 . S
C1513 C82 1.441 . S
C1518 C225 1.439 . S
C1543 C218 1.636 . S
C1548 C101 1.639 . S
C1573 C114 1.142 . S
C1578 C303 1.139 . S
C1603 C127 1.336 . S
C1608 C134 1.335 . S
C1633 C264 1.636 . S
C1638 C147 1.639 . S
C1663 C160 1.636 . S
C1668 C186 1.639 . S
C1693 C173 1.335 . S
C1698 C199 1.336 . S
C1723 C296 1.441 . S
C1728 C283 1.439 . S
