# Generated by pormake.
# Topology fcu, (12)-cn, num edge types: 1
# Building blocks:
#     Node 0, Type 0, BuildingBlock: UKIBUN_clean_sbu_0, # of connection points: 12
#     Node 1, Type 0, BuildingBlock: UKIBUN_clean_sbu_0, # of connection points: 12
#     Node 2, Type 0, BuildingBlock: UKIBUN_clean_sbu_0, # of connection points: 12
#     Node 3, Type 0, BuildingBlock: UKIBUN_clean_sbu_0, # of connection points: 12
#     Edge 4, Type (0, 0), BuildingBlock: ZUJKAS_clean_linker_0, # of connection points: 2
#     Edge 5, Type (0, 0), BuildingBlock: ZUJKAS_clean_linker_0, # of connection points: 2
#     Edge 6, Type (0, 0), BuildingBlock: ZUJKAS_clean_linker_0, # of connection points: 2
#     Edge 7, Type (0, 0), BuildingBlock: ZUJKAS_clean_linker_0, # of connection points: 2
#     Edge 8, Type (0, 0), BuildingBlock: ZUJKAS_clean_linker_0, # of connection points: 2
#     Edge 9, Type (0, 0), BuildingBlock: ZUJKAS_clean_linker_0, # of connection points: 2
#     Edge 10, Type (0, 0), BuildingBlock: ZUJKAS_clean_linker_0, # of connection points: 2
#     Edge 11, Type (0, 0), BuildingBlock: ZUJKAS_clean_linker_0, # of connection points: 2
#     Edge 12, Type (0, 0), BuildingBlock: ZUJKAS_clean_linker_0, # of connection points: 2
#     Edge 13, Type (0, 0), BuildingBlock: ZUJKAS_clean_linker_0, # of connection points: 2
#     Edge 14, Type (0, 0), BuildingBlock: ZUJKAS_clean_linker_0, # of connection points: 2
#     Edge 15, Type (0, 0), BuildingBlock: ZUJKAS_clean_linker_0, # of connection points: 2
#     Edge 16, Type (0, 0), BuildingBlock: ZUJKAS_clean_linker_0, # of connection points: 2
#     Edge 17, Type (0, 0), BuildingBlock: ZUJKAS_clean_linker_0, # of connection points: 2
#     Edge 18, Type (0, 0), BuildingBlock: ZUJKAS_clean_linker_0, # of connection points: 2
#     Edge 19, Type (0, 0), BuildingBlock: ZUJKAS_clean_linker_0, # of connection points: 2
#     Edge 20, Type (0, 0), BuildingBlock: ZUJKAS_clean_linker_0, # of connection points: 2
#     Edge 21, Type (0, 0), BuildingBlock: ZUJKAS_clean_linker_0, # of connection points: 2
#     Edge 22, Type (0, 0), BuildingBlock: ZUJKAS_clean_linker_0, # of connection points: 2
#     Edge 23, Type (0, 0), BuildingBlock: ZUJKAS_clean_linker_0, # of connection points: 2
#     Edge 24, Type (0, 0), BuildingBlock: ZUJKAS_clean_linker_0, # of connection points: 2
#     Edge 25, Type (0, 0), BuildingBlock: ZUJKAS_clean_linker_0, # of connection points: 2
#     Edge 26, Type (0, 0), BuildingBlock: ZUJKAS_clean_linker_0, # of connection points: 2
#     Edge 27, Type (0, 0), BuildingBlock: ZUJKAS_clean_linker_0, # of connection points: 2
# Relax obj value: 0.006
# Max RMSD: 0.049
# Mean RMSD: 0.049
data_MOF--net-fcu--node1-UKIBUN_clean_sbu_0--edge1-ZUJKAS_clean_linker_0
_symmetry_space_group_name_H-M    P1
_symmetry_Int_Tables_number       1
_symmetry_cell_setting            triclinic
loop_
_symmetry_equiv_pos_as_xyz
'x, y, z'
_cell_length_a     32.898385
_cell_length_b     32.894582
_cell_length_c     32.898048
_cell_angle_alpha  89.994183
_cell_angle_beta   90.000339
_cell_angle_gamma 89.99595
loop_
_atom_site_label
_atom_site_type_symbol
_atom_site_fract_x
_atom_site_fract_y
_atom_site_fract_z
_atom_type_partial_charge
C0 C 0.99641 0.09211 0.09295 0.0
C1 C 0.90105 0.09229 -0.00284 0.0
O2 O 0.03104 0.03163 0.03161 0.0
O3 O 0.96256 0.96254 0.03121 0.0
O4 O 0.03135 0.96284 0.03121 0.0
O5 O 0.96224 0.03135 0.03162 0.0
Hf6 Hf -0.0032 -0.00314 0.0702 0.0
O7 O 0.03105 0.03203 0.9628 0.0
Hf8 Hf 0.99649 0.07047 -0.00256 0.0
O9 O 0.03133 0.96326 0.96245 0.0
Hf10 Hf 0.06999 -0.00237 -0.00298 0.0
O11 O 0.96228 0.03171 0.96284 0.0
Hf12 Hf -0.00287 0.92408 0.9966 0.0
Hf13 Hf 0.92361 -0.00302 -0.00298 0.0
O14 O 0.96257 0.96296 0.96245 0.0
Hf15 Hf -0.0032 -0.0023 0.92381 0.0
C16 C 0.90183 0.9015 0.99646 0.0
C17 C 0.09174 0.09312 -0.0027 0.0
C18 C 0.09264 0.90236 0.99642 0.0
C19 C 0.09216 -0.00257 0.09242 0.0
O20 O 0.05473 -0.00289 0.1042 0.0
O21 O 0.93887 0.99646 0.1042 0.0
C22 C 0.90144 0.99637 0.09242 0.0
O23 O 0.93881 -0.00254 0.88983 0.0
O24 O -0.00288 0.89042 0.93844 0.0
O25 O -0.00258 0.88975 0.05435 0.0
O26 O 0.05478 -0.00208 0.88983 0.0
O27 O 0.9963 0.10481 0.9397 0.0
O28 O 0.9964 0.10413 0.0556 0.0
O29 O 0.88937 0.05482 -0.00303 0.0
O30 O 0.88988 0.93888 0.99654 0.0
C31 C 0.0922 -0.00208 0.90166 0.0
O32 O 0.10425 0.93984 -0.00323 0.0
O33 O 0.10373 0.05575 -0.00298 0.0
C34 C 0.90139 -0.00284 0.90166 0.0
O35 O 0.99629 0.05588 0.89017 0.0
O36 O -0.00298 0.9387 0.10386 0.0
O37 O 0.99651 0.05461 0.10453 0.0
O38 O -0.003 0.93994 0.8895 0.0
O39 O 0.88961 -0.00302 0.93908 0.0
O40 O 0.10398 -0.00213 0.93908 0.0
C41 C -0.00292 0.90244 0.90109 0.0
O42 O 0.10398 -0.00237 0.055 0.0
O43 O 0.05427 0.10474 -0.00243 0.0
O44 O 0.88962 0.99652 0.055 0.0
O45 O 0.05527 0.89037 0.99626 0.0
O46 O 0.9393 0.88983 0.99657 0.0
O47 O 0.93842 0.10422 -0.00253 0.0
C48 C 0.99616 0.09323 0.90221 0.0
C49 C -0.00272 0.90134 0.09184 0.0
C50 C -0.00241 0.59298 0.59207 0.0
C51 C 0.90246 0.59372 0.49645 0.0
O52 O 0.03144 0.53143 0.53139 0.0
O53 O 0.96192 0.46338 0.53137 0.0
O54 O 0.0307 0.46265 0.53161 0.0
O55 O 0.96265 0.53216 0.53115 0.0
Hf56 Hf 0.99654 0.49753 0.57017 0.0
O57 O 0.03165 0.53118 0.46265 0.0
Hf58 Hf -0.00243 0.57048 0.49677 0.0
O59 O 0.03097 0.46238 0.46284 0.0
Hf60 Hf 0.06999 0.49651 0.49726 0.0
O61 O 0.96288 0.53195 0.46236 0.0
Hf62 Hf 0.99602 0.42408 0.49726 0.0
Hf63 Hf 0.9236 0.49808 0.49673 0.0
O64 O 0.96219 0.46316 0.46263 0.0
Hf65 Hf -0.00294 0.49704 0.42383 0.0
C66 C 0.90038 0.40294 0.49713 0.0
C67 C 0.0932 0.59163 0.49697 0.0
C68 C 0.09118 0.4009 0.49765 0.0
C69 C 0.09181 0.49657 0.59273 0.0
O70 O 0.05435 0.49722 0.60438 0.0
O71 O 0.93848 0.49808 0.60395 0.0
C72 C 0.90109 0.49856 0.59204 0.0
O73 O 0.93926 0.49742 0.38961 0.0
O74 O 0.9957 0.38989 0.43941 0.0
O75 O 0.99551 0.3903 0.55533 0.0
O76 O 0.05511 0.49638 0.39004 0.0
O77 O -0.00202 0.60427 0.4387 0.0
O78 O -0.00205 0.60467 0.55461 0.0
O79 O 0.89025 0.55642 0.49624 0.0
O80 O 0.88898 0.44049 0.49684 0.0
C81 C 0.09249 0.49633 0.40194 0.0
O82 O 0.10334 0.4382 0.49737 0.0
O83 O 0.1046 0.55409 0.49741 0.0
C84 C 0.90179 0.49762 0.40125 0.0
O85 O -0.00213 0.55488 0.38964 0.0
O86 O 0.99612 0.43969 0.60439 0.0
O87 O -0.00301 0.55559 0.60398 0.0
O88 O 0.99653 0.43897 0.39004 0.0
O89 O 0.88983 0.49788 0.43862 0.0
O90 O 0.1042 0.4964 0.4394 0.0
C91 C 0.99597 0.40158 0.40195 0.0
O92 O 0.10377 0.49611 0.55536 0.0
O93 O 0.0559 0.60384 0.49659 0.0
O94 O 0.8894 0.49872 0.55457 0.0
O95 O 0.05364 0.38945 0.49772 0.0
O96 O 0.93768 0.39073 0.49738 0.0
O97 O 0.94 0.60512 0.49675 0.0
C98 C -0.00188 0.59235 0.40132 0.0
C99 C 0.99571 0.40223 0.59271 0.0
C100 C 0.49601 0.09329 0.59171 0.0
C101 C 0.4005 0.09175 0.49652 0.0
O102 O 0.53086 0.03221 0.53112 0.0
O103 O 0.46268 0.96281 0.53161 0.0
O104 O 0.53144 0.96341 0.53158 0.0
O105 O 0.46211 0.03157 0.53111 0.0
Hf106 Hf 0.49679 -0.00225 0.57017 0.0
O107 O 0.53085 0.03172 0.46237 0.0
Hf108 Hf 0.49611 0.07049 0.49646 0.0
O109 O 0.53148 0.96292 0.46283 0.0
Hf110 Hf 0.56996 -0.0021 0.49698 0.0
O111 O 0.4621 0.03112 0.46234 0.0
Hf112 Hf 0.49738 0.92408 0.49747 0.0
Hf113 Hf 0.42361 0.99662 0.49696 0.0
O114 O 0.46267 0.96232 0.46279 0.0
Hf115 Hf 0.4968 0.99675 0.42379 0.0
C116 C 0.40221 0.90106 0.49765 0.0
C117 C 0.59131 0.09349 0.4963 0.0
C118 C 0.59294 0.9027 0.49768 0.0
C119 C 0.59218 -0.00145 0.59235 0.0
O120 O 0.55476 -0.00167 0.60417 0.0
O121 O 0.43881 -0.00229 0.60415 0.0
C122 C 0.40139 -0.0028 0.59233 0.0
O123 O 0.43886 0.99612 0.38978 0.0
O124 O 0.49755 0.88966 0.43978 0.0
O125 O 0.49776 0.89048 0.55563 0.0
O126 O 0.55474 -0.00298 0.38981 0.0
O127 O 0.49566 0.10405 0.43822 0.0
O128 O 0.49565 0.10487 0.55421 0.0
O129 O 0.38907 0.05422 0.49687 0.0
O130 O 0.39011 0.93839 0.49719 0.0
C131 C 0.59216 -0.0025 0.4016 0.0
O132 O 0.60445 0.94022 0.49753 0.0
O133 O 0.60342 0.05616 0.49671 0.0
C134 C 0.40144 0.99606 0.40157 0.0
O135 O 0.49648 0.05444 0.38937 0.0
O136 O 0.49737 0.94 0.60456 0.0
O137 O 0.49657 0.05594 0.60374 0.0
O138 O 0.4974 0.93854 0.3902 0.0
O139 O 0.38962 0.99623 0.43899 0.0
O140 O 0.60397 -0.00212 0.43902 0.0
C141 C 0.4976 0.9012 0.40228 0.0
O142 O 0.60396 -0.0015 0.55492 0.0
O143 O 0.55379 0.10499 0.49608 0.0
O144 O 0.38962 0.99664 0.5549 0.0
O145 O 0.55562 0.89059 0.4976 0.0
O146 O 0.43973 0.88956 0.4979 0.0
O147 O 0.4378 0.10394 0.49622 0.0
C148 C 0.49597 0.09195 0.40089 0.0
C149 C 0.49771 0.90251 0.59297 0.0
C150 C 0.4973 0.59211 0.09292 0.0
C151 C 0.40178 0.59302 -0.0022 0.0
O152 O 0.53145 0.53137 0.03145 0.0
O153 O 0.46245 0.46282 0.03122 0.0
O154 O 0.53121 0.46259 0.03102 0.0
O155 O 0.46265 0.53161 0.03166 0.0
Hf156 Hf 0.49705 0.49687 0.07013 0.0
O157 O 0.53124 0.53181 0.96269 0.0
Hf158 Hf 0.49709 0.57051 -0.00258 0.0
O159 O 0.531 0.46304 0.96225 0.0
Hf160 Hf 0.57005 0.49705 0.99674 0.0
O161 O 0.46242 0.53205 0.96292 0.0
Hf162 Hf 0.4966 0.42412 0.99648 0.0
Hf163 Hf 0.42361 0.49754 -0.0028 0.0
O164 O 0.46219 0.46324 0.96246 0.0
Hf165 Hf 0.49657 0.49781 0.9238 0.0
C166 C 0.40116 0.40221 -0.00315 0.0
C167 C 0.59257 0.59236 -0.00274 0.0
C168 C 0.59188 0.40157 0.99626 0.0
C169 C 0.59249 0.49662 0.09206 0.0
O170 O 0.5551 0.49654 0.10395 0.0
O171 O 0.43923 0.49687 0.10433 0.0
C172 C 0.40177 0.49696 0.09267 0.0
O173 O 0.43853 0.49802 0.88999 0.0
O174 O 0.49661 0.39052 0.93826 0.0
O175 O 0.49685 0.38975 0.05424 0.0
O176 O 0.55438 0.49784 0.8896 0.0
O177 O 0.4971 0.60489 0.93972 0.0
O178 O 0.49738 0.60413 0.05557 0.0
O179 O 0.38985 0.55563 -0.00235 0.0
O180 O 0.38945 0.43967 -0.00285 0.0
C181 C 0.59185 0.49749 0.90124 0.0
O182 O 0.60383 0.43895 0.99653 0.0
O183 O 0.60424 0.55489 -0.00295 0.0
C184 C 0.40114 0.49811 0.90188 0.0
O185 O 0.49652 0.556 0.89017 0.0
O186 O 0.49686 0.4387 0.10375 0.0
O187 O 0.49715 0.55461 0.10451 0.0
O188 O 0.49623 0.44012 0.8894 0.0
O189 O 0.38942 0.49803 0.93934 0.0
O190 O 0.60381 0.49713 0.93862 0.0
C191 C 0.49638 0.40261 0.90093 0.0
O192 O 0.60421 0.49681 0.05461 0.0
O193 O 0.55518 0.6043 -0.00263 0.0
O194 O 0.38981 0.49717 0.05529 0.0
O195 O 0.55441 0.38992 0.99612 0.0
O196 O 0.43855 0.39031 0.99648 0.0
O197 O 0.43924 0.6047 -0.00224 0.0
C198 C 0.49682 0.59334 0.90223 0.0
C199 C 0.49687 0.40134 0.09173 0.0
H200 H -0.002 0.17495 0.08319 0.0
H201 H -0.00168 0.22689 0.1362 0.0
H202 H 0.99434 0.13366 0.22822 0.0
H203 H 0.99446 0.08133 0.17565 0.0
H204 H 0.93996 0.24051 0.19729 0.0
H205 H 0.09128 0.20422 0.2629 0.0
H206 H 0.07517 0.18572 0.2138 0.0
H207 H 0.05717 0.16172 0.25946 0.0
C208 C -0.00267 0.16533 0.11467 0.0
C209 C 0.9964 0.1238 0.12504 0.0
C210 C -0.00252 0.19513 0.14491 0.0
C211 C -0.00305 0.18406 0.18606 0.0
C212 C 0.99559 0.14278 0.19661 0.0
H213 H 0.99381 0.31883 0.41242 0.0
H214 H 0.99288 0.26644 0.35984 0.0
C215 C 0.99545 0.11292 0.16643 0.0
C216 C -0.00307 0.21579 0.21794 0.0
H217 H 0.05103 0.25215 0.29866 0.0
C218 C 0.96429 0.24322 0.21937 0.0
C219 C 0.02871 0.21907 0.2467 0.0
C220 C 0.06528 0.19138 0.24558 0.0
C221 C 0.96226 0.27356 0.24927 0.0
C222 C 0.99408 0.27689 0.27799 0.0
C223 C 0.02668 0.24942 0.2766 0.0
C224 C 0.99425 0.30885 0.30962 0.0
C225 C 0.92571 0.30127 0.25039 0.0
C226 C 0.9958 0.35003 0.29873 0.0
C227 C 0.99631 0.38014 0.32865 0.0
C228 C 0.99552 0.36961 0.37014 0.0
C229 C 0.99436 0.32817 0.38086 0.0
C230 C 0.99385 0.29812 0.35087 0.0
H231 H 0.89965 0.28834 0.23323 0.0
H232 H 0.91594 0.30711 0.28217 0.0
H233 H 0.93377 0.33085 0.23631 0.0
H234 H -0.00305 0.35889 0.26704 0.0
H235 H -0.00255 0.41165 0.31916 0.0
H236 H 0.91188 -0.00187 0.17515 0.0
H237 H 0.85937 -0.00201 0.22752 0.0
H238 H 0.7665 0.9937 0.13516 0.0
H239 H 0.81864 0.99428 0.08233 0.0
H240 H 0.75255 0.05211 0.19609 0.0
H241 H 0.78888 0.90103 0.2622 0.0
H242 H 0.83138 0.93514 0.25882 0.0
H243 H 0.80751 0.91706 0.21312 0.0
C244 C 0.88033 -0.003 0.16581 0.0
C245 C 0.86961 0.99606 0.12437 0.0
C246 C 0.85036 0.99671 0.19588 0.0
C247 C 0.80914 0.9952 0.18518 0.0
C248 C 0.79822 0.99464 0.14399 0.0
H249 H 0.58178 0.99529 0.31887 0.0
H250 H 0.63432 0.99534 0.26653 0.0
C251 C 0.82813 0.99495 0.11385 0.0
C252 C 0.77732 0.99524 0.21697 0.0
H253 H 0.74112 0.9415 0.29801 0.0
C254 C 0.74988 0.02787 0.21828 0.0
C255 C 0.77407 0.96357 0.24586 0.0
C256 C 0.80177 0.927 0.24487 0.0
C257 C 0.71959 0.03003 0.24823 0.0
C258 C 0.71635 -0.00163 0.27712 0.0
C259 C 0.74379 0.96574 0.27582 0.0
C260 C 0.68452 -0.0016 0.30889 0.0
C261 C 0.69189 0.06659 0.24923 0.0
C262 C 0.69541 -0.00084 0.35009 0.0
C263 C 0.66548 -0.00108 0.38021 0.0
C264 C 0.62401 -0.00233 0.36967 0.0
C265 C 0.61332 0.99652 0.32823 0.0
C266 C 0.6433 0.99675 0.29818 0.0
H267 H 0.70471 0.09253 0.23182 0.0
H268 H 0.66224 0.05841 0.23538 0.0
H269 H 0.68622 0.07658 0.28097 0.0
H270 H 0.72713 0.00022 0.35892 0.0
H271 H 0.67495 -0.00025 0.41173 0.0
H272 H 0.00111 0.8187 0.08109 0.0
H273 H 0.00137 0.76611 0.13341 0.0
H274 H 0.99383 0.85799 0.22655 0.0
H275 H 0.99399 0.91103 0.17463 0.0
H276 H 0.05323 0.79804 0.24114 0.0
H277 H 0.90389 0.72947 0.20225 0.0
H278 H 0.93866 0.73366 0.16036 0.0
H279 H 0.91932 0.77891 0.18407 0.0
C280 C -0.00064 0.82788 0.11266 0.0
C281 C -0.00263 0.86925 0.12353 0.0
C282 C -0.00069 0.79769 0.14251 0.0
C283 C -0.00301 0.80819 0.18375 0.0
C284 C 0.99542 0.84931 0.19481 0.0
H285 H 0.99532 0.67511 0.4113 0.0
H286 H 0.99583 0.72722 0.35852 0.0
C287 C 0.9955 0.87957 0.16503 0.0
C288 C -0.0029 0.77629 0.21546 0.0
H289 H 0.94397 0.69452 0.25089 0.0
C290 C 0.02929 0.77548 0.24343 0.0
C291 C 0.96584 0.74692 0.2182 0.0
C292 C 0.92975 0.74733 0.18988 0.0
C293 C 0.03139 0.7456 0.27379 0.0
C294 C 8e-05 0.71628 0.27659 0.0
C295 C 0.96794 0.71705 0.24857 0.0
C296 C -5e-05 0.68465 0.30857 0.0
C297 C 0.0675 0.74517 0.30209 0.0
C298 C 0.00113 0.64341 0.29788 0.0
C299 C 0.00059 0.61342 0.32794 0.0
C300 C -0.00136 0.62414 0.36934 0.0
C301 C -0.00289 0.66562 0.37982 0.0
C302 C -0.00239 0.69554 0.34971 0.0
H303 H 0.09347 0.76274 0.28953 0.0
H304 H 0.05872 0.7592 0.33148 0.0
H305 H 0.07772 0.71358 0.30819 0.0
H306 H 0.00272 0.63443 0.26623 0.0
H307 H 0.00176 0.58186 0.31863 0.0
H308 H 0.31864 -0.00205 0.41171 0.0
H309 H 0.26644 -0.00247 0.35893 0.0
H310 H 0.35925 0.994 0.2665 0.0
H311 H 0.41181 0.99399 0.31883 0.0
H312 H 0.25535 0.05426 0.29516 0.0
H313 H 0.28413 0.89852 0.23649 0.0
H314 H 0.30325 0.91585 0.28493 0.0
H315 H 0.32824 0.93064 0.23866 0.0
C316 C 0.3281 -0.0031 0.38019 0.0
C317 C 0.36958 0.99581 0.36964 0.0
C318 C 0.29816 0.99672 0.35009 0.0
C319 C 0.30903 0.99517 0.30891 0.0
C320 C 0.35026 0.99443 0.29817 0.0
H321 H 0.17495 0.99538 0.0823 0.0
H322 H 0.22714 0.99597 0.13509 0.0
C323 C 0.38026 0.99465 0.3282 0.0
C324 C 0.2772 0.99525 0.27715 0.0
H325 H 0.23821 0.93944 0.19886 0.0
C326 C 0.25143 0.02911 0.2742 0.0
C327 C 0.27232 0.96239 0.24987 0.0
C328 C 0.29818 0.9246 0.25272 0.0
C329 C 0.22123 0.0313 0.24415 0.0
C330 C 0.21636 -0.00156 0.21687 0.0
C331 C 0.24214 0.96459 0.21982 0.0
C332 C 0.18454 -0.0015 0.1851 0.0
C333 C 0.19538 0.0691 0.2413 0.0
C334 C 0.14331 -0.00073 0.19583 0.0
C335 C 0.11331 -0.00104 0.16579 0.0
C336 C 0.12401 -0.00234 0.12435 0.0
C337 C 0.16548 0.99653 0.11381 0.0
C338 C 0.19542 -0.00318 0.14393 0.0
H339 H 0.20945 0.09518 0.2575 0.0
H340 H 0.19027 0.07782 0.20909 0.0
H341 H 0.16534 0.06307 0.2554 0.0
H342 H 0.1343 -0.0002 0.2275 0.0
H343 H 0.08176 -0.00033 0.17515 0.0
H344 H -0.00168 0.91321 0.81837 0.0
H345 H -0.00163 0.86087 0.76581 0.0
H346 H 0.99573 0.76764 0.85788 0.0
H347 H 0.99612 0.81959 0.91087 0.0
H348 H 0.05381 0.75452 0.79625 0.0
H349 H 0.90158 0.78949 0.73202 0.0
H350 H 0.93535 0.83228 0.73526 0.0
H351 H 0.91794 0.80804 0.78101 0.0
C352 C -0.00239 0.88162 0.8276 0.0
C353 C -0.00296 0.87074 0.86901 0.0
C354 C -0.00257 0.85174 0.79743 0.0
C355 C 0.99642 0.81046 0.808 0.0
C356 C 0.99628 0.7994 0.84915 0.0
H357 H -0.00323 0.58289 0.67487 0.0
H358 H -0.00286 0.63564 0.727 0.0
C359 C 0.99647 0.82921 0.87939 0.0
C360 C 0.99643 0.77873 0.77613 0.0
H361 H 0.9419 0.74188 0.69592 0.0
C362 C 0.02929 0.7516 0.77439 0.0
C363 C 0.9644 0.77516 0.74767 0.0
C364 C 0.92761 0.80253 0.74915 0.0
C365 C 0.03131 0.72127 0.74447 0.0
C366 C -0.00074 0.71766 0.71605 0.0
C367 C 0.96643 0.74483 0.71775 0.0
C368 C -0.0009 0.68571 0.68441 0.0
C369 C 0.0681 0.6939 0.743 0.0
C370 C -0.00089 0.69645 0.64317 0.0
C371 C -0.00133 0.6664 0.61317 0.0
C372 C -0.00204 0.62495 0.62389 0.0
C373 C -0.00246 0.6144 0.66538 0.0
C374 C -0.00202 0.64451 0.6953 0.0
H375 H 0.09419 0.70705 0.75995 0.0
H376 H 0.06042 0.66424 0.75711 0.0
H377 H 0.07765 0.68819 0.71113 0.0
H378 H -0.00026 0.72813 0.63419 0.0
H379 H -0.00109 0.67575 0.5816 0.0
H380 H 0.08215 0.99426 0.81891 0.0
H381 H 0.135 0.99346 0.76678 0.0
H382 H 0.22725 0.00119 0.85954 0.0
H383 H 0.17487 0.00157 0.91203 0.0
H384 H 0.19505 0.05225 0.75135 0.0
H385 H 0.26338 0.90313 0.79147 0.0
H386 H 0.21411 0.91893 0.80977 0.0
H387 H 0.25957 0.93825 0.83309 0.0
C388 C 0.11365 0.99569 0.82837 0.0
C389 C 0.12415 -0.00223 0.86982 0.0
C390 C 0.1438 0.99523 0.79847 0.0
C391 C 0.18498 0.99664 0.80937 0.0
C392 C 0.19564 -0.00078 0.85056 0.0
H393 H 0.41145 0.00111 0.67507 0.0
H394 H 0.35863 0.0019 0.72721 0.0
C395 C 0.16556 -0.00036 0.88052 0.0
C396 C 0.21678 0.99635 0.77756 0.0
H397 H 0.29859 0.9429 0.74268 0.0
C398 C 0.2176 0.02828 0.74928 0.0
C399 C 0.24614 0.96504 0.7751 0.0
C400 C 0.24569 0.92918 0.80372 0.0
C401 C 0.2475 0.03011 0.71893 0.0
C402 C 0.27686 -0.0012 0.71647 0.0
C403 C 0.27604 0.96687 0.74475 0.0
C404 C 0.30864 -0.00149 0.68465 0.0
C405 C 0.24795 0.06597 0.69031 0.0
C406 C 0.29797 0.99585 0.64347 0.0
C407 C 0.32804 0.99544 0.6135 0.0
C408 C 0.36945 -0.00259 0.62417 0.0
C409 C 0.37995 -0.00039 0.66561 0.0
C410 C 0.34982 5e-05 0.69553 0.0
H411 H 0.23022 0.09199 0.70253 0.0
H412 H 0.27954 0.07625 0.68431 0.0
H413 H 0.23413 0.05687 0.66092 0.0
H414 H 0.26636 0.9938 0.63451 0.0
H415 H 0.31872 0.99344 0.58199 0.0
H416 H 5e-05 0.41262 0.67538 0.0
H417 H 0.00057 0.36001 0.72775 0.0
H418 H 0.99093 0.26743 0.63551 0.0
H419 H 0.99084 0.31957 0.58276 0.0
H420 H 0.94125 0.30057 0.74403 0.0
H421 H 0.08935 0.23076 0.70282 0.0
H422 H 0.07384 0.28012 0.6845 0.0
H423 H 0.05393 0.23475 0.66148 0.0
C424 C -0.00186 0.3811 0.66608 0.0
C425 C 0.99563 0.37043 0.62469 0.0
C426 C -0.00158 0.35109 0.69612 0.0
C427 C 0.99641 0.30988 0.68543 0.0
C428 C 0.99336 0.29906 0.64432 0.0
H429 H 0.99139 0.08355 0.8195 0.0
H430 H 0.99041 0.13658 0.76759 0.0
C431 C 0.99312 0.329 0.61422 0.0
C432 C 0.99669 0.27822 0.71737 0.0
H433 H 0.04965 0.19596 0.75195 0.0
C434 C 0.96502 0.27778 0.74594 0.0
C435 C 0.02775 0.24859 0.71964 0.0
C436 C 0.06337 0.24864 0.69073 0.0
C437 C 0.96316 0.24795 0.77637 0.0
C438 C 0.99418 0.21826 0.77858 0.0
C439 C 0.02588 0.21875 0.75006 0.0
C440 C 0.99437 0.18639 0.81032 0.0
C441 C 0.92756 0.2479 0.80531 0.0
C442 C -0.00261 0.19689 0.85151 0.0
C443 C -0.00209 0.16669 0.88136 0.0
C444 C 0.99571 0.12533 0.87053 0.0
C445 C 0.99311 0.115 0.82907 0.0
C446 C 0.99254 0.14526 0.79929 0.0
H447 H 0.90162 0.2659 0.7933 0.0
H448 H 0.917 0.21643 0.81143 0.0
H449 H 0.93706 0.26164 0.8346 0.0
H450 H -0.00031 0.22846 0.86058 0.0
H451 H 0.00023 0.17586 0.91289 0.0
H452 H 0.58203 -0.0014 0.67517 0.0
H453 H 0.63483 -0.00095 0.72736 0.0
H454 H 0.72728 -0.00121 0.63449 0.0
H455 H 0.67494 -0.00123 0.58194 0.0
H456 H 0.69725 0.9414 0.73979 0.0
H457 H 0.75955 0.095 0.70747 0.0
H458 H 0.71078 0.07832 0.68859 0.0
H459 H 0.75678 0.06194 0.6641 0.0
C460 C 0.61356 -0.00119 0.66569 0.0
C461 C 0.62412 -0.00116 0.62421 0.0
C462 C 0.64368 -0.00098 0.69563 0.0
C463 C 0.68488 -0.00047 0.68474 0.0
C464 C 0.69561 -0.0008 0.6435 0.0
H465 H 0.91151 -0.00258 0.81883 0.0
H466 H 0.8587 -0.00313 0.76666 0.0
C467 C 0.66557 -0.00103 0.6135 0.0
C468 C 0.71665 -0.00057 0.71657 0.0
H469 H 0.79628 0.05425 0.75425 0.0
C470 C 0.71881 0.96613 0.74313 0.0
C471 C 0.74472 0.03173 0.72068 0.0
C472 C 0.74277 0.06898 0.69396 0.0
C473 C 0.74882 0.96391 0.77336 0.0
C474 C 0.77688 0.99621 0.77747 0.0
C475 C 0.77472 0.02952 0.75091 0.0
C476 C 0.80867 0.99614 0.8093 0.0
C477 C 0.75078 0.92665 0.80007 0.0
C478 C 0.79794 0.99638 0.85054 0.0
C479 C 0.828 0.99665 0.88053 0.0
C480 C 0.86945 -0.00305 0.86981 0.0
C481 C 0.87999 -0.0029 0.82832 0.0
C482 C 0.84986 -0.00318 0.79839 0.0
H483 H 0.73406 0.90062 0.78652 0.0
H484 H 0.78277 0.91734 0.80549 0.0
H485 H 0.73671 0.93365 0.82991 0.0
H486 H 0.76628 0.99667 0.85956 0.0
H487 H 0.81863 0.99675 0.91209 0.0
H488 H 0.31851 0.41253 0.00174 0.0
H489 H 0.26619 0.35988 0.00261 0.0
H490 H 0.35847 0.26736 0.99266 0.0
H491 H 0.41117 0.31954 0.99221 0.0
H492 H 0.24979 0.30058 0.94334 0.0
H493 H 0.29147 0.23034 0.09109 0.0
H494 H 0.30977 0.27973 0.07565 0.0
H495 H 0.3327 0.23439 0.05555 0.0
C496 C 0.32783 0.38101 -0.00016 0.0
C497 C 0.36921 0.37038 -0.0029 0.0
C498 C 0.29782 0.35097 0.00034 0.0
C499 C 0.30854 0.30977 -0.00168 0.0
C500 C 0.34965 0.29898 0.9951 0.0
H501 H 0.17446 0.08339 0.99257 0.0
H502 H 0.22641 0.1364 0.99194 0.0
C503 C 0.37972 0.32895 0.99465 0.0
C504 C 0.27662 0.27809 -0.00137 0.0
H505 H 0.24227 0.19561 0.0514 0.0
C506 C 0.24796 0.27773 0.96704 0.0
C507 C 0.27447 0.24834 0.02959 0.0
C508 C 0.30349 0.24828 0.06512 0.0
C509 C 0.21756 0.24787 0.96516 0.0
C510 C 0.21545 0.21809 0.99609 0.0
C511 C 0.24407 0.21848 0.02771 0.0
C512 C 0.18371 0.18621 0.99625 0.0
C513 C 0.18854 0.24793 0.92963 0.0
C514 C 0.14252 0.19671 -0.00063 0.0
C515 C 0.11266 0.16654 -0.00032 0.0
C516 C 0.12346 0.12518 -0.00284 0.0
C517 C 0.16491 0.11484 0.99451 0.0
C518 C 0.19472 0.14508 0.99416 0.0
H519 H 0.20047 0.26601 0.90371 0.0
H520 H 0.18241 0.21648 0.91899 0.0
H521 H 0.15926 0.26163 0.93925 0.0
H522 H 0.13348 0.22827 0.00187 0.0
H523 H 0.08113 0.17572 0.00206 0.0
H524 H 0.41225 0.6758 -0.00078 0.0
H525 H 0.35965 0.72819 -0.0003 0.0
H526 H 0.26687 0.63571 0.99658 0.0
H527 H 0.31899 0.58295 0.99652 0.0
H528 H 0.29818 0.7419 0.94146 0.0
H529 H 0.23345 0.70714 0.09348 0.0
H530 H 0.28238 0.68833 0.07719 0.0
H531 H 0.23652 0.66429 0.05977 0.0
C532 C 0.38068 0.66645 -0.00121 0.0
C533 C 0.36997 0.625 -0.00197 0.0
C534 C 0.35068 0.6965 -0.00097 0.0
C535 C 0.30945 0.68577 -0.00123 0.0
C536 C 0.29856 0.64457 -0.00239 0.0
H537 H 0.08286 0.81951 0.99508 0.0
H538 H 0.13588 0.76756 0.99457 0.0
C539 C 0.32848 0.61446 -0.00263 0.0
C540 C 0.27779 0.71771 -0.00125 0.0
H541 H 0.19728 0.75451 0.05285 0.0
C542 C 0.27622 0.74485 0.96588 0.0
C543 C 0.24921 0.72131 0.03065 0.0
C544 C 0.25054 0.69398 0.06748 0.0
C545 C 0.24626 0.77513 0.96367 0.0
C546 C 0.21763 0.77868 0.99555 0.0
C547 C 0.21925 0.75159 0.02845 0.0
C548 C 0.18575 0.8104 0.9954 0.0
C549 C 0.24494 0.80248 0.92686 0.0
C550 C 0.1963 0.85168 0.99649 0.0
C551 C 0.16612 0.88154 0.99674 0.0
C552 C 0.12472 0.87065 0.99616 0.0
C553 C 0.11435 0.82913 0.99544 0.0
C554 C 0.14459 0.79932 0.99519 0.0
H555 H 0.26218 0.78943 0.90091 0.0
H556 H 0.21312 0.808 0.91705 0.0
H557 H 0.2588 0.83224 0.93464 0.0
H558 H 0.22792 0.86081 -0.00252 0.0
H559 H 0.17535 0.91313 -0.00246 0.0
H560 H 0.58119 0.31894 0.99258 0.0
H561 H 0.63352 0.26637 0.99265 0.0
H562 H 0.72661 0.3583 3e-05 0.0
H563 H 0.67467 0.41134 -0.00048 0.0
H564 H 0.74152 0.29802 0.94111 0.0
H565 H 0.70187 0.2303 0.09064 0.0
H566 H 0.66013 0.23425 0.05567 0.0
H567 H 0.68375 0.27963 0.07482 0.0
C568 C 0.61275 0.32814 0.99435 0.0
C569 C 0.6236 0.36951 0.99623 0.0
C570 C 0.64261 0.29796 0.9946 0.0
C571 C 0.68383 0.30848 -0.003 0.0
C572 C 0.69489 0.34962 -0.00161 0.0
H573 H 0.91114 0.17502 0.0002 0.0
H574 H 0.85847 0.22721 -0.00052 0.0
C575 C 0.66509 0.37987 -0.00188 0.0
C576 C 0.71553 0.27658 -0.00278 0.0
H577 H 0.75056 0.19498 0.05092 0.0
C578 C 0.74366 0.27557 0.96517 0.0
C579 C 0.71808 0.24735 0.02865 0.0
C580 C 0.68961 0.24799 0.06461 0.0
C581 C 0.77398 0.24563 0.96336 0.0
C582 C 0.77656 0.21643 0.99482 0.0
C583 C 0.7484 0.21741 0.02683 0.0
C584 C 0.80845 0.18473 0.99524 0.0
C585 C 0.80246 0.24499 0.9274 0.0
C586 C 0.79769 0.14351 0.99411 0.0
C587 C 0.82769 0.11346 0.99476 0.0
C588 C 0.8691 0.12412 -0.00322 0.0
C589 C 0.87965 0.16558 -0.00165 0.0
C590 C 0.8496 0.19555 -0.00227 0.0
H591 H 0.79008 0.26249 0.90129 0.0
H592 H 0.83184 0.25898 0.93628 0.0
H593 H 0.80853 0.21334 0.91734 0.0
H594 H 0.76603 0.13459 0.99242 0.0
H595 H 0.81834 0.08192 0.99357 0.0
H596 H 0.91207 0.81891 0.00255 0.0
H597 H 0.85947 0.76649 0.00184 0.0
H598 H 0.76713 0.85869 0.98972 0.0
H599 H 0.81929 0.91143 0.98999 0.0
H600 H 0.79269 0.75796 0.05598 0.0
H601 H 0.74235 0.77898 0.89615 0.0
H602 H 0.78991 0.79884 0.91503 0.0
H603 H 0.74306 0.82463 0.92614 0.0
C604 C 0.88062 0.82817 -0.00047 0.0
C605 C 0.87003 0.86952 0.99615 0.0
C606 C 0.85062 0.79811 -0.0008 0.0
C607 C 0.80954 0.80874 0.99517 0.0
C608 C 0.79876 0.84986 0.99213 0.0
H609 H 0.58288 0.675 0.99117 0.0
H610 H 0.63583 0.72705 0.99167 0.0
C611 C 0.82868 0.87997 0.99254 0.0
C612 C 0.77786 0.77683 0.9951 0.0
H613 H 0.70255 0.73507 0.93723 0.0
C614 C 0.77309 0.75276 0.02999 0.0
C615 C 0.75236 0.7703 0.96113 0.0
C616 C 0.75727 0.79427 0.92232 0.0
C617 C 0.7429 0.72269 0.03208 0.0
C618 C 0.71737 0.7162 -0.00188 0.0
C619 C 0.72217 0.74024 0.96322 0.0
C620 C 0.6855 0.68448 -0.00185 0.0
C621 C 0.73799 0.69873 0.07089 0.0
C622 C 0.69602 0.64329 0.00119 0.0
C623 C 0.66589 0.61338 0.00091 0.0
C624 C 0.62459 0.62411 -0.00255 0.0
C625 C 0.61428 0.66553 0.99408 0.0
C626 C 0.64448 0.69538 0.99428 0.0
H627 H 0.75309 0.71389 0.09701 0.0
H628 H 0.70534 0.69435 0.07828 0.0
H629 H 0.75198 0.66828 0.06698 0.0
H630 H 0.7276 0.63425 0.00349 0.0
H631 H 0.67507 0.58186 0.00345 0.0
H632 H 0.58116 0.50138 0.81862 0.0
H633 H 0.63347 0.50146 0.76606 0.0
H634 H 0.72657 0.49346 0.85794 0.0
H635 H 0.67463 0.49381 0.91097 0.0
H636 H 0.74139 0.55287 0.79821 0.0
H637 H 0.70195 0.40395 0.72904 0.0
H638 H 0.66017 0.43885 0.73327 0.0
H639 H 0.68376 0.41928 0.7785 0.0
C640 C 0.61271 0.49947 0.82781 0.0
C641 C 0.62356 0.49742 0.86918 0.0
C642 C 0.64256 0.49932 0.79763 0.0
C643 C 0.68379 0.49682 0.80813 0.0
C644 C 0.69484 0.49517 0.84926 0.0
H645 H 0.91116 0.49526 0.67475 0.0
H646 H 0.85845 0.49552 0.72692 0.0
C647 C 0.66505 0.49536 0.87951 0.0
C648 C 0.7155 0.49693 0.77624 0.0
H649 H 0.7506 0.4441 0.69413 0.0
C650 C 0.74357 0.52902 0.77554 0.0
C651 C 0.71808 0.4658 0.74669 0.0
C652 C 0.68964 0.4298 0.74696 0.0
C653 C 0.77388 0.53119 0.74562 0.0
C654 C 0.77652 0.50002 0.71613 0.0
C655 C 0.74841 0.46795 0.71678 0.0
C656 C 0.80845 0.49996 0.68445 0.0
C657 C 0.80229 0.56721 0.74533 0.0
C658 C 0.79771 0.50139 0.64323 0.0
C659 C 0.82773 0.50099 0.6132 0.0
C660 C 0.86914 0.49895 0.62386 0.0
C661 C 0.87967 0.49714 0.66531 0.0
C662 C 0.8496 0.4975 0.69527 0.0
H663 H 0.78981 0.59314 0.76302 0.0
H664 H 0.83166 0.55828 0.7593 0.0
H665 H 0.80838 0.57756 0.71378 0.0
H666 H 0.76605 0.50307 0.6343 0.0
H667 H 0.81839 0.50235 0.58166 0.0
H668 H 0.17443 0.49032 0.58305 0.0
H669 H 0.22642 0.48989 0.63604 0.0
H670 H 0.13369 0.50269 0.72776 0.0
H671 H 0.08132 0.50268 0.67524 0.0
H672 H 0.24303 0.55028 0.69396 0.0
H673 H 0.19956 0.40465 0.76754 0.0
H674 H 0.1816 0.41909 0.71773 0.0
H675 H 0.15875 0.44056 0.76248 0.0
C676 C 0.16494 0.49291 0.61447 0.0
C677 C 0.12354 0.49634 0.62478 0.0
C678 C 0.19476 0.49267 0.6447 0.0
C679 C 0.18382 0.49565 0.68578 0.0
C680 C 0.14268 0.49949 0.69624 0.0
H681 H 0.31856 0.5042 0.91205 0.0
H682 H 0.26628 0.50465 0.85933 0.0
C683 C 0.1128 0.49968 0.66609 0.0
C684 C 0.21558 0.49579 0.71764 0.0
H685 H 0.24925 0.44452 0.80133 0.0
C686 C 0.24456 0.52708 0.71735 0.0
C687 C 0.21732 0.46551 0.74811 0.0
C688 C 0.1879 0.43032 0.74894 0.0
C689 C 0.27494 0.5293 0.74719 0.0
C690 C 0.27672 0.49899 0.77764 0.0
C691 C 0.24771 0.46772 0.77795 0.0
C692 C 0.30862 0.49903 0.80935 0.0
C693 C 0.30435 0.5645 0.74636 0.0
C694 C 0.3497 0.49524 0.79867 0.0
C695 C 0.37974 0.49505 0.82866 0.0
C696 C 0.36923 0.49831 0.87003 0.0
C697 C 0.32787 0.50165 0.88057 0.0
C698 C 0.29789 0.50192 0.8505 0.0
H699 H 0.29257 0.59023 0.72791 0.0
H700 H 0.3108 0.57562 0.77757 0.0
H701 H 0.33343 0.55433 0.73262 0.0
H702 H 0.35853 0.49211 0.76711 0.0
H703 H 0.41117 0.49208 0.81933 0.0
H704 H 0.17514 0.50152 0.41216 0.0
H705 H 0.22741 0.5023 0.35945 0.0
H706 H 0.13508 0.49132 0.2671 0.0
H707 H 0.08244 0.49098 0.31934 0.0
H708 H 0.24425 0.44294 0.30055 0.0
H709 H 0.20128 0.58985 0.22931 0.0
H710 H 0.18307 0.57457 0.27878 0.0
H711 H 0.16033 0.554 0.23355 0.0
C712 C 0.1658 0.49936 0.38067 0.0
C713 C 0.12443 0.4964 0.37009 0.0
C714 C 0.19578 0.49981 0.35059 0.0
C715 C 0.18503 0.49751 0.30941 0.0
C716 C 0.14393 0.49401 0.2987 0.0
H717 H 0.31909 0.49154 0.08294 0.0
H718 H 0.26712 0.49077 0.13594 0.0
C719 C 0.11389 0.49362 0.3287 0.0
C720 C 0.21691 0.49784 0.27768 0.0
H721 H 0.25072 0.55028 0.19476 0.0
C722 C 0.24584 0.46649 0.27752 0.0
C723 C 0.21877 0.5286 0.24769 0.0
C724 C 0.18945 0.56389 0.2474 0.0
C725 C 0.27622 0.46464 0.24764 0.0
C726 C 0.27804 0.49537 0.21762 0.0
C727 C 0.24914 0.52674 0.21781 0.0
C728 C 0.30977 0.49559 0.18574 0.0
C729 C 0.30554 0.42935 0.24793 0.0
C730 C 0.35094 0.49906 0.19622 0.0
C731 C 0.38081 0.49945 0.16606 0.0
C732 C 0.37004 0.49669 0.12472 0.0
C733 C 0.32861 0.4937 0.11438 0.0
C734 C 0.2988 0.49325 0.14462 0.0
H735 H 0.2938 0.40344 0.26614 0.0
H736 H 0.31181 0.41858 0.21656 0.0
H737 H 0.33471 0.43929 0.26163 0.0
H738 H 0.35996 0.50178 0.22777 0.0
H739 H 0.41231 0.50213 0.17523 0.0
H740 H 0.58238 0.49279 0.17475 0.0
H741 H 0.63504 0.49309 0.22696 0.0
H742 H 0.72751 0.50096 0.13444 0.0
H743 H 0.67521 0.50025 0.08175 0.0
H744 H 0.74305 0.44204 0.19471 0.0
H745 H 0.70321 0.59145 0.26252 0.0
H746 H 0.66153 0.55639 0.25878 0.0
H747 H 0.68493 0.57555 0.21328 0.0
C748 C 0.61387 0.49472 0.16534 0.0
C749 C 0.62443 0.49668 0.1239 0.0
C750 C 0.64392 0.49508 0.19532 0.0
C751 C 0.68507 0.49769 0.18454 0.0
C752 C 0.69585 0.49916 0.14333 0.0
H753 H 0.91243 0.50069 0.31858 0.0
H754 H 0.86008 0.50018 0.26605 0.0
C755 C 0.66585 0.49877 0.11328 0.0
C756 C 0.71695 0.49805 0.21625 0.0
H757 H 0.75195 0.55174 0.29784 0.0
C758 C 0.74518 0.46609 0.21717 0.0
C759 C 0.71949 0.52948 0.24548 0.0
C760 C 0.69093 0.56538 0.24491 0.0
C761 C 0.77553 0.4643 0.24709 0.0
C762 C 0.77804 0.4957 0.27634 0.0
C763 C 0.74984 0.52769 0.27538 0.0
C764 C 0.80978 0.49601 0.30821 0.0
C765 C 0.80407 0.42838 0.24767 0.0
C766 C 0.79877 0.49486 0.34936 0.0
C767 C 0.82858 0.49541 0.37959 0.0
C768 C 0.87006 0.49733 0.3692 0.0
C769 C 0.88088 0.49891 0.32781 0.0
C770 C 0.85101 0.4984 0.29765 0.0
H771 H 0.79178 0.4023 0.23007 0.0
H772 H 0.83347 0.43735 0.23378 0.0
H773 H 0.81009 0.41822 0.27929 0.0
H774 H 0.76705 0.49323 0.35809 0.0
H775 H 0.81902 0.4942 0.41107 0.0
H776 H 0.31956 0.91062 0.49231 0.0
H777 H 0.26765 0.85767 0.49268 0.0
H778 H 0.36053 0.76591 0.50413 0.0
H779 H 0.41292 0.8185 0.50333 0.0
H780 H 0.30195 0.7487 0.44452 0.0
H781 H 0.22993 0.79125 0.59112 0.0
H782 H 0.23407 0.83228 0.55534 0.0
H783 H 0.27935 0.80974 0.57602 0.0
C784 C 0.3291 0.87923 0.49509 0.0
C785 C 0.37056 0.86895 0.49797 0.0
C786 C 0.2993 0.84902 0.49549 0.0
C787 C 0.31025 0.80798 0.49909 0.0
C788 C 0.35149 0.79748 0.50156 0.0
H789 H 0.17569 0.58062 0.50262 0.0
H790 H 0.2285 0.63271 0.50271 0.0
C791 C 0.38138 0.82764 0.5011 0.0
C792 C 0.27871 0.77592 0.49931 0.0
H793 H 0.19556 0.74192 0.55121 0.0
C794 C 0.2788 0.74702 0.46794 0.0
C795 C 0.24858 0.77395 0.52991 0.0
C796 C 0.24804 0.80321 0.56524 0.0
C797 C 0.24897 0.7166 0.46587 0.0
C798 C 0.21875 0.71473 0.49639 0.0
C799 C 0.21875 0.74355 0.52783 0.0
C800 C 0.18675 0.68312 0.49625 0.0
C801 C 0.2495 0.68733 0.43055 0.0
C802 C 0.14572 0.69431 0.49357 0.0
C803 C 0.11533 0.66465 0.49377 0.0
C804 C 0.12543 0.62317 0.49686 0.0
C805 C 0.1667 0.61217 0.4999 0.0
C806 C 0.19702 0.64189 0.49975 0.0
H807 H 0.26801 0.69903 0.40483 0.0
H808 H 0.26296 0.65807 0.44059 0.0
H809 H 0.2182 0.68121 0.41947 0.0
H810 H 0.13721 0.72603 0.49105 0.0
H811 H 0.08396 0.67435 0.49141 0.0
H812 H 0.0804 0.31832 0.50311 0.0
H813 H 0.13279 0.26569 0.504 0.0
H814 H 0.22573 0.35745 0.49315 0.0
H815 H 0.17384 0.41041 0.4927 0.0
H816 H 0.19152 0.24863 0.44457 0.0
H817 H 0.26319 0.29073 0.59144 0.0
H818 H 0.21381 0.30927 0.57628 0.0
H819 H 0.25914 0.33191 0.55583 0.0
C820 C 0.11196 0.32745 0.50103 0.0
C821 C 0.1228 0.36875 0.49802 0.0
C822 C 0.14184 0.29727 0.50155 0.0
C823 C 0.18309 0.30776 0.49928 0.0
C824 C 0.19407 0.3488 0.49582 0.0
H825 H 0.40965 0.17451 0.49111 0.0
H826 H 0.3563 0.22614 0.49098 0.0
C827 C 0.16427 0.37902 0.49535 0.0
C828 C 0.21464 0.2757 0.49948 0.0
H829 H 0.29783 0.2417 0.55133 0.0
C830 C 0.21465 0.24691 0.468 0.0
C831 C 0.24474 0.27368 0.5301 0.0
C832 C 0.24516 0.30279 0.56556 0.0
C833 C 0.24456 0.21658 0.46585 0.0
C834 C 0.27477 0.21468 0.49637 0.0
C835 C 0.27466 0.24337 0.52793 0.0
C836 C 0.30683 0.18314 0.49614 0.0
C837 C 0.24413 0.18742 0.43043 0.0
C838 C 0.29664 0.1419 0.49956 0.0
C839 C 0.327 0.11222 0.49958 0.0
C840 C 0.36824 0.12327 0.49648 0.0
C841 C 0.37829 0.16478 0.4935 0.0
C842 C 0.34785 0.19439 0.49343 0.0
H843 H 0.22557 0.19915 0.40475 0.0
H844 H 0.27544 0.18144 0.41933 0.0
H845 H 0.23076 0.15809 0.44037 0.0
H846 H 0.26518 0.13267 0.50254 0.0
H847 H 0.31805 0.08065 0.50225 0.0
H848 H 0.81977 0.5845 0.49061 0.0
H849 H 0.76808 0.63775 0.49046 0.0
H850 H 0.86134 0.72899 0.50283 0.0
H851 H 0.91344 0.67618 0.50252 0.0
H852 H 0.75194 0.6957 0.55084 0.0
H853 H 0.79533 0.76914 0.4051 0.0
H854 H 0.81319 0.71928 0.4195 0.0
H855 H 0.83615 0.76396 0.44098 0.0
C856 C 0.82945 0.61587 0.49317 0.0
C857 C 0.87092 0.62596 0.49637 0.0
C858 C 0.79979 0.64625 0.49309 0.0
C859 C 0.81096 0.68728 0.49603 0.0
C860 C 0.85217 0.69753 0.49966 0.0
H861 H 0.67546 0.91339 0.50371 0.0
H862 H 0.72806 0.86099 0.50454 0.0
C863 C 0.8819 0.66721 0.49967 0.0
C864 C 0.77934 0.71927 0.49628 0.0
H865 H 0.74552 0.80281 0.44483 0.0
C866 C 0.75039 0.71905 0.52761 0.0
C867 C 0.77757 0.7497 0.46595 0.0
C868 C 0.80697 0.75049 0.43075 0.0
C869 C 0.71996 0.74885 0.52976 0.0
C870 C 0.71809 0.77919 0.49936 0.0
C871 C 0.74712 0.7795 0.4681 0.0
C872 C 0.68602 0.81072 0.4992 0.0
C873 C 0.69056 0.74805 0.56498 0.0
C874 C 0.645 0.79977 0.49543 0.0
C875 C 0.61478 0.82958 0.49501 0.0
C876 C 0.62505 0.87103 0.49803 0.0
C877 C 0.66634 0.88184 0.50135 0.0
C878 C 0.6965 0.85195 0.50183 0.0
H879 H 0.70246 0.72982 0.5908 0.0
H880 H 0.68392 0.77929 0.57592 0.0
H881 H 0.66156 0.73408 0.5549 0.0
H882 H 0.63636 0.76813 0.49248 0.0
H883 H 0.58341 0.82005 0.49208 0.0
H884 H 0.58062 0.17604 0.4904 0.0
H885 H 0.63302 0.22863 0.48961 0.0
H886 H 0.72587 0.1369 0.50152 0.0
H887 H 0.67395 0.08395 0.50188 0.0
H888 H 0.6914 0.24605 0.54927 0.0
H889 H 0.7639 0.20305 0.40305 0.0
H890 H 0.71445 0.18459 0.41805 0.0
H891 H 0.75967 0.16213 0.43893 0.0
C892 C 0.61217 0.1669 0.49274 0.0
C893 C 0.62297 0.1256 0.49599 0.0
C894 C 0.64206 0.19707 0.49228 0.0
C895 C 0.68328 0.18658 0.49487 0.0
C896 C 0.69423 0.14555 0.4986 0.0
H897 H 0.90958 0.32024 0.50295 0.0
H898 H 0.85631 0.26857 0.50323 0.0
C899 C 0.66442 0.11533 0.499 0.0
C900 C 0.71483 0.21865 0.49466 0.0
H901 H 0.79816 0.2525 0.44293 0.0
C902 C 0.71464 0.24765 0.52593 0.0
C903 C 0.74507 0.22053 0.46416 0.0
C904 C 0.74572 0.19116 0.42891 0.0
C905 C 0.74445 0.27809 0.528 0.0
C906 C 0.77478 0.27986 0.49759 0.0
C907 C 0.77489 0.25094 0.46624 0.0
C908 C 0.80679 0.31147 0.49774 0.0
C909 C 0.74379 0.30748 0.56322 0.0
C910 C 0.79655 0.35269 0.4941 0.0
C911 C 0.82689 0.3824 0.49399 0.0
C912 C 0.86814 0.37141 0.49722 0.0
C913 C 0.87821 0.32993 0.50044 0.0
C914 C 0.84782 0.30028 0.5006 0.0
H915 H 0.72519 0.29586 0.58891 0.0
H916 H 0.77504 0.31364 0.5744 0.0
H917 H 0.73036 0.33669 0.55304 0.0
H918 H 0.76509 0.36187 0.491 0.0
H919 H 0.81792 0.41396 0.49114 0.0
H920 H 0.50544 0.3202 0.91006 0.0
H921 H 0.50583 0.26843 0.85686 0.0
H922 H 0.48698 0.36103 0.76602 0.0
H923 H 0.48702 0.41319 0.81876 0.0
H924 H 0.44465 0.24961 0.80109 0.0
H925 H 0.58559 0.29913 0.72243 0.0
H926 H 0.57213 0.31664 0.77266 0.0
H927 H 0.5482 0.33841 0.72862 0.0
C928 C 0.50146 0.3297 0.87879 0.0
C929 C 0.49641 0.37101 0.86877 0.0
C930 C 0.50171 0.30001 0.84843 0.0
C931 C 0.49707 0.31099 0.8075 0.0
C932 C 0.49152 0.35203 0.79737 0.0
H933 H 0.4867 0.17557 0.58149 0.0
H934 H 0.48587 0.22801 0.63405 0.0
C935 C 0.49137 0.38178 0.82765 0.0
C936 C 0.49704 0.27935 0.77552 0.0
H937 H 0.54664 0.24784 0.68999 0.0
C938 C 0.46703 0.24907 0.77687 0.0
C939 C 0.52623 0.27889 0.74395 0.0
C940 C 0.56011 0.30977 0.74188 0.0
C941 C 0.46503 0.2186 0.7471 0.0
C942 C 0.49429 0.21807 0.7156 0.0
C943 C 0.52424 0.24841 0.71418 0.0
C944 C 0.49455 0.18609 0.68396 0.0
C945 C 0.43114 0.18775 0.74918 0.0
C946 C 0.50022 0.1452 0.69462 0.0
C947 C 0.50061 0.11507 0.66472 0.0
C948 C 0.49571 0.12531 0.62345 0.0
C949 C 0.49056 0.16648 0.61289 0.0
C950 C 0.49007 0.19655 0.64288 0.0
H951 H 0.40552 0.19857 0.76834 0.0
H952 H 0.41935 0.1806 0.71837 0.0
H953 H 0.44293 0.15922 0.76279 0.0
H954 H 0.50465 0.1366 0.7261 0.0
H955 H 0.50503 0.0838 0.67403 0.0
H956 H 0.50207 0.91307 0.67562 0.0
H957 H 0.50298 0.86053 0.72808 0.0
H958 H 0.49445 0.76774 0.63593 0.0
H959 H 0.49397 0.81979 0.58312 0.0
H960 H 0.44392 0.80099 0.74404 0.0
H961 H 0.59237 0.73134 0.70394 0.0
H962 H 0.57686 0.78061 0.68535 0.0
H963 H 0.55726 0.73511 0.66231 0.0
C964 C 0.50052 0.88151 0.66636 0.0
C965 C 0.49815 0.87077 0.625 0.0
C966 C 0.50104 0.85154 0.69645 0.0
C967 C 0.49941 0.8103 0.6858 0.0
C968 C 0.49661 0.7994 0.6447 0.0
H969 H 0.49261 0.5838 0.81946 0.0
H970 H 0.4924 0.63694 0.76762 0.0
C971 C 0.49613 0.82929 0.61456 0.0
C972 C 0.49956 0.77868 0.71778 0.0
H973 H 0.55219 0.6963 0.75259 0.0
C974 C 0.46767 0.77821 0.7461 0.0
C975 C 0.53059 0.74903 0.72023 0.0
C976 C 0.56643 0.74911 0.69159 0.0
C977 C 0.46555 0.7483 0.77644 0.0
C978 C 0.49653 0.71859 0.77882 0.0
C979 C 0.52846 0.71912 0.75056 0.0
C980 C 0.49639 0.68664 0.81047 0.0
C981 C 0.42972 0.74822 0.80509 0.0
C982 C 0.49918 0.69705 0.85171 0.0
C983 C 0.49925 0.6668 0.8815 0.0
C984 C 0.49681 0.62548 0.87059 0.0
C985 C 0.49446 0.61523 0.82909 0.0
C986 C 0.49436 0.64555 0.79936 0.0
H987 H 0.40393 0.76635 0.79298 0.0
H988 H 0.41903 0.71674 0.81097 0.0
H989 H 0.43904 0.76177 0.83454 0.0
H990 H 0.50161 0.72859 0.86084 0.0
H991 H 0.5014 0.67591 0.91307 0.0
H992 H 0.4935 0.58154 0.1756 0.0
H993 H 0.49289 0.63407 0.22806 0.0
H994 H 0.5011 0.72687 0.13587 0.0
H995 H 0.50128 0.67482 0.08306 0.0
H996 H 0.55189 0.69387 0.24392 0.0
H997 H 0.40308 0.76289 0.20402 0.0
H998 H 0.41873 0.71365 0.18549 0.0
H999 H 0.43815 0.75919 0.16236 0.0
C1000 C 0.49506 0.6131 0.16634 0.0
C1001 C 0.49723 0.62385 0.12495 0.0
C1002 C 0.49472 0.64306 0.19642 0.0
C1003 C 0.49632 0.6843 0.18577 0.0
C1004 C 0.49898 0.69521 0.14466 0.0
H1005 H 0.5015 0.91079 0.31951 0.0
H1006 H 0.50218 0.85768 0.26767 0.0
C1007 C 0.49929 0.66532 0.11452 0.0
C1008 C 0.49611 0.71593 0.21775 0.0
H1009 H 0.44311 0.798 0.25268 0.0
C1010 C 0.52803 0.71654 0.24603 0.0
C1011 C 0.46494 0.74543 0.22026 0.0
C1012 C 0.42906 0.74519 0.19167 0.0
C1013 C 0.53004 0.74643 0.27639 0.0
C1014 C 0.49892 0.77599 0.27884 0.0
C1015 C 0.46695 0.77531 0.25061 0.0
C1016 C 0.4989 0.80792 0.31052 0.0
C1017 C 0.56592 0.74667 0.30498 0.0
C1018 C 0.49637 0.79747 0.35176 0.0
C1019 C 0.49603 0.82771 0.38156 0.0
C1020 C 0.49793 0.86906 0.37064 0.0
C1021 C 0.50005 0.87934 0.32914 0.0
C1022 C 0.50043 0.84904 0.2994 0.0
H1023 H 0.59182 0.72878 0.29275 0.0
H1024 H 0.57639 0.7782 0.31096 0.0
H1025 H 0.55676 0.73291 0.33438 0.0
H1026 H 0.4943 0.7659 0.3609 0.0
H1027 H 0.49408 0.81857 0.41313 0.0
H1028 H 0.48906 0.17456 0.41025 0.0
H1029 H 0.48858 0.22637 0.35709 0.0
H1030 H 0.50263 0.13343 0.26576 0.0
H1031 H 0.50269 0.08123 0.31846 0.0
H1032 H 0.54916 0.24327 0.29952 0.0
H1033 H 0.40439 0.19841 0.2251 0.0
H1034 H 0.41865 0.18066 0.27504 0.0
H1035 H 0.44064 0.15794 0.23049 0.0
C1036 C 0.49193 0.16498 0.37888 0.0
C1037 C 0.49572 0.12357 0.36873 0.0
C1038 C 0.49165 0.1947 0.34855 0.0
C1039 C 0.49496 0.18365 0.30752 0.0
C1040 C 0.49917 0.1425 0.29722 0.0
H1041 H 0.50338 0.31881 0.08132 0.0
H1042 H 0.50396 0.26636 0.13388 0.0
C1043 C 0.49939 0.11272 0.32748 0.0
C1044 C 0.49505 0.21532 0.27557 0.0
H1045 H 0.44391 0.24854 0.19161 0.0
C1046 C 0.52608 0.24458 0.276 0.0
C1047 C 0.46493 0.21677 0.24492 0.0
C1048 C 0.43003 0.18702 0.2439 0.0
C1049 C 0.52817 0.27499 0.24618 0.0
C1050 C 0.49799 0.27652 0.2156 0.0
C1051 C 0.46701 0.24721 0.2151 0.0
C1052 C 0.49784 0.30851 0.18396 0.0
C1053 C 0.56311 0.3047 0.24718 0.0
C1054 C 0.4937 0.34953 0.19475 0.0
C1055 C 0.49344 0.37967 0.16485 0.0
C1056 C 0.49699 0.36931 0.12347 0.0
C1057 C 0.50062 0.32801 0.11281 0.0
C1058 C 0.50095 0.29792 0.14279 0.0
H1059 H 0.58889 0.29309 0.26566 0.0
H1060 H 0.57426 0.31135 0.21602 0.0
H1061 H 0.55266 0.33365 0.26099 0.0
H1062 H 0.49037 0.35824 0.22633 0.0
H1063 H 0.49024 0.41106 0.17426 0.0
loop_
_geom_bond_atom_site_label_1
_geom_bond_atom_site_label_2
_geom_bond_distance
_geom_bond_site_symmetry_2
_ccdc_geom_bond_type
C0 O28 1.284 . S
C0 O37 1.284 . S
C1 O29 1.281 . S
C1 O47 1.281 . S
O2 Hf6 2.202 . S
O2 Hf8 2.202 . S
O2 Hf10 2.202 . S
O3 Hf6 2.202 1_665 S
O3 Hf12 2.202 1_655 S
O3 Hf13 2.202 1_565 S
O4 Hf6 2.072 1_565 S
O4 Hf10 2.072 1_565 S
O4 Hf12 2.072 . S
O5 Hf6 2.072 1_655 S
O5 Hf8 2.072 1_655 S
O5 Hf13 2.072 . S
Hf6 O2 2.202 . S
Hf6 O3 2.202 1_445 S
Hf6 O4 2.072 1_545 S
Hf6 O5 2.072 1_455 S
Hf6 O20 2.209 1_545 S
Hf6 O21 2.209 1_455 S
Hf6 O36 2.209 1_545 S
Hf6 O37 2.209 1_455 S
O7 Hf8 2.072 1_556 S
O7 Hf10 2.072 1_556 S
O7 Hf15 2.072 . S
Hf8 O2 2.202 . S
Hf8 O5 2.072 1_455 S
Hf8 O7 2.072 1_554 S
Hf8 O11 2.202 1_454 S
Hf8 O27 2.209 1_554 S
Hf8 O28 2.209 1_455 S
Hf8 O43 2.209 1_554 S
Hf8 O47 2.209 1_455 S
O9 Hf10 2.202 1_566 S
O9 Hf12 2.202 1_556 S
O9 Hf15 2.202 1_565 S
Hf10 O2 2.202 . S
Hf10 O4 2.072 1_545 S
Hf10 O7 2.072 1_554 S
Hf10 O9 2.202 1_544 S
Hf10 O32 2.209 1_545 S
Hf10 O33 2.209 1_554 S
Hf10 O40 2.209 1_554 S
Hf10 O42 2.209 1_545 S
O11 Hf8 2.202 1_656 S
O11 Hf13 2.202 1_556 S
O11 Hf15 2.202 1_655 S
Hf12 O3 2.202 1_455 S
Hf12 O4 2.072 . S
Hf12 O9 2.202 1_554 S
Hf12 O14 2.072 1_454 S
Hf12 O24 2.209 1_454 S
Hf12 O25 2.209 . S
Hf12 O45 2.209 . S
Hf12 O46 2.209 1_454 S
Hf13 O3 2.202 1_545 S
Hf13 O5 2.072 . S
Hf13 O11 2.202 1_554 S
Hf13 O14 2.072 1_544 S
Hf13 O29 2.209 . S
Hf13 O30 2.209 1_544 S
Hf13 O39 2.209 1_544 S
Hf13 O44 2.209 . S
O14 Hf12 2.072 1_656 S
O14 Hf13 2.072 1_566 S
O14 Hf15 2.072 1_665 S
Hf15 O7 2.072 . S
Hf15 O9 2.202 1_545 S
Hf15 O11 2.202 1_455 S
Hf15 O14 2.072 1_445 S
Hf15 O23 2.209 1_445 S
Hf15 O26 2.209 . S
Hf15 O35 2.209 . S
Hf15 O38 2.209 1_445 S
C16 O30 1.284 . S
C16 O46 1.284 . S
C17 O33 1.284 . S
C17 O43 1.284 . S
C18 O32 1.281 . S
C18 O45 1.281 . S
C19 O20 1.284 . S
C19 O42 1.284 . S
O20 Hf6 2.209 1_565 S
O20 C19 1.284 . S
O21 Hf6 2.209 1_655 S
O21 C22 1.281 . S
C22 O21 1.281 . S
C22 O44 1.281 . S
O23 Hf15 2.209 1_665 S
O23 C34 1.284 . S
O24 Hf12 2.209 1_656 S
O24 C41 1.284 . S
O25 Hf12 2.209 . S
O25 C49 1.281 . S
O26 Hf15 2.209 . S
O26 C31 1.281 . S
O27 Hf8 2.209 1_556 S
O27 C48 1.281 . S
O28 C0 1.284 . S
O28 Hf8 2.209 1_655 S
O29 C1 1.281 . S
O29 Hf13 2.209 . S
O30 Hf13 2.209 1_566 S
O30 C16 1.284 . S
C31 O26 1.281 . S
C31 O40 1.281 . S
O32 Hf10 2.209 1_565 S
O32 C18 1.281 . S
O33 Hf10 2.209 1_556 S
O33 C17 1.284 . S
C34 O23 1.284 . S
C34 O39 1.284 . S
O35 Hf15 2.209 . S
O35 C48 1.281 . S
O36 Hf6 2.209 1_565 S
O36 C49 1.281 . S
O37 C0 1.284 . S
O37 Hf6 2.209 1_655 S
O38 Hf15 2.209 1_665 S
O38 C41 1.284 . S
O39 Hf13 2.209 1_566 S
O39 C34 1.284 . S
O40 Hf10 2.209 1_556 S
O40 C31 1.281 . S
C41 O24 1.284 . S
C41 O38 1.284 . S
O42 Hf10 2.209 1_565 S
O42 C19 1.284 . S
O43 Hf8 2.209 1_556 S
O43 C17 1.284 . S
O44 Hf13 2.209 . S
O44 C22 1.281 . S
O45 Hf12 2.209 . S
O45 C18 1.281 . S
O46 Hf12 2.209 1_656 S
O46 C16 1.284 . S
O47 C1 1.281 . S
O47 Hf8 2.209 1_655 S
C48 O27 1.281 . S
C48 O35 1.281 . S
C49 O25 1.281 . S
C49 O36 1.281 . S
C50 O78 1.284 . S
C50 O87 1.284 . S
C51 O79 1.281 . S
C51 O97 1.281 . S
O52 Hf56 2.202 . S
O52 Hf58 2.202 . S
O52 Hf60 2.202 . S
O53 Hf56 2.202 1_655 S
O53 Hf62 2.202 1_655 S
O53 Hf63 2.202 . S
O54 Hf56 2.072 . S
O54 Hf60 2.072 . S
O54 Hf62 2.072 . S
O55 Hf56 2.072 1_655 S
O55 Hf58 2.072 1_655 S
O55 Hf63 2.072 . S
Hf56 O52 2.202 . S
Hf56 O53 2.202 1_455 S
Hf56 O54 2.072 . S
Hf56 O55 2.072 1_455 S
Hf56 O70 2.209 . S
Hf56 O71 2.209 1_455 S
Hf56 O86 2.209 . S
Hf56 O87 2.209 1_455 S
O57 Hf58 2.072 . S
O57 Hf60 2.072 . S
O57 Hf65 2.072 . S
Hf58 O52 2.202 . S
Hf58 O55 2.072 1_455 S
Hf58 O57 2.072 . S
Hf58 O61 2.202 1_455 S
Hf58 O77 2.209 . S
Hf58 O78 2.209 1_455 S
Hf58 O93 2.209 . S
Hf58 O97 2.209 1_455 S
O59 Hf60 2.202 . S
O59 Hf62 2.202 . S
O59 Hf65 2.202 . S
Hf60 O52 2.202 . S
Hf60 O54 2.072 . S
Hf60 O57 2.072 . S
Hf60 O59 2.202 . S
Hf60 O82 2.209 . S
Hf60 O83 2.209 . S
Hf60 O90 2.209 . S
Hf60 O92 2.209 . S
O61 Hf58 2.202 1_655 S
O61 Hf63 2.202 . S
O61 Hf65 2.202 1_655 S
Hf62 O53 2.202 1_455 S
Hf62 O54 2.072 . S
Hf62 O59 2.202 . S
Hf62 O64 2.072 1_455 S
Hf62 O74 2.209 1_455 S
Hf62 O75 2.209 . S
Hf62 O95 2.209 . S
Hf62 O96 2.209 1_455 S
Hf63 O53 2.202 . S
Hf63 O55 2.072 . S
Hf63 O61 2.202 . S
Hf63 O64 2.072 . S
Hf63 O79 2.209 . S
Hf63 O80 2.209 . S
Hf63 O89 2.209 . S
Hf63 O94 2.209 . S
O64 Hf62 2.072 1_655 S
O64 Hf63 2.072 . S
O64 Hf65 2.072 1_655 S
Hf65 O57 2.072 . S
Hf65 O59 2.202 . S
Hf65 O61 2.202 1_455 S
Hf65 O64 2.072 1_455 S
Hf65 O73 2.209 1_455 S
Hf65 O76 2.209 . S
Hf65 O85 2.209 . S
Hf65 O88 2.209 1_455 S
C66 O80 1.281 . S
C66 O96 1.281 . S
C67 O83 1.281 . S
C67 O93 1.281 . S
C68 O82 1.281 . S
C68 O95 1.281 . S
C69 O70 1.281 . S
C69 O92 1.281 . S
O70 Hf56 2.209 . S
O70 C69 1.281 . S
O71 Hf56 2.209 1_655 S
O71 C72 1.281 . S
C72 O71 1.281 . S
C72 O94 1.281 . S
O73 Hf65 2.209 1_655 S
O73 C84 1.281 . S
O74 Hf62 2.209 1_655 S
O74 C91 1.284 . S
O75 Hf62 2.209 . S
O75 C99 1.281 . S
O76 Hf65 2.209 . S
O76 C81 1.281 . S
O77 Hf58 2.209 . S
O77 C98 1.281 . S
O78 C50 1.284 . S
O78 Hf58 2.209 1_655 S
O79 C51 1.281 . S
O79 Hf63 2.209 . S
O80 Hf63 2.209 . S
O80 C66 1.281 . S
C81 O76 1.281 . S
C81 O90 1.281 . S
O82 Hf60 2.209 . S
O82 C68 1.281 . S
O83 Hf60 2.209 . S
O83 C67 1.281 . S
C84 O73 1.281 . S
C84 O89 1.281 . S
O85 Hf65 2.209 . S
O85 C98 1.281 . S
O86 Hf56 2.209 . S
O86 C99 1.281 . S
O87 C50 1.284 . S
O87 Hf56 2.209 1_655 S
O88 Hf65 2.209 1_655 S
O88 C91 1.284 . S
O89 Hf63 2.209 . S
O89 C84 1.281 . S
O90 Hf60 2.209 . S
O90 C81 1.281 . S
C91 O74 1.284 . S
C91 O88 1.284 . S
O92 Hf60 2.209 . S
O92 C69 1.281 . S
O93 Hf58 2.209 . S
O93 C67 1.281 . S
O94 Hf63 2.209 . S
O94 C72 1.281 . S
O95 Hf62 2.209 . S
O95 C68 1.281 . S
O96 Hf62 2.209 1_655 S
O96 C66 1.281 . S
O97 C51 1.281 . S
O97 Hf58 2.209 1_655 S
C98 O77 1.281 . S
C98 O85 1.281 . S
C99 O75 1.281 . S
C99 O86 1.281 . S
C100 O128 1.281 . S
C100 O137 1.281 . S
C101 O129 1.281 . S
C101 O147 1.281 . S
O102 Hf106 2.202 . S
O102 Hf108 2.202 . S
O102 Hf110 2.202 . S
O103 Hf106 2.202 1_565 S
O103 Hf112 2.202 . S
O103 Hf113 2.202 1_565 S
O104 Hf106 2.072 1_565 S
O104 Hf110 2.072 1_565 S
O104 Hf112 2.072 . S
O105 Hf106 2.072 . S
O105 Hf108 2.072 . S
O105 Hf113 2.072 . S
Hf106 O102 2.202 . S
Hf106 O103 2.202 1_545 S
Hf106 O104 2.072 1_545 S
Hf106 O105 2.072 . S
Hf106 O120 2.209 1_545 S
Hf106 O121 2.209 . S
Hf106 O136 2.209 1_545 S
Hf106 O137 2.209 . S
O107 Hf108 2.072 . S
O107 Hf110 2.072 . S
O107 Hf115 2.072 . S
Hf108 O102 2.202 . S
Hf108 O105 2.072 . S
Hf108 O107 2.072 . S
Hf108 O111 2.202 . S
Hf108 O127 2.209 . S
Hf108 O128 2.209 . S
Hf108 O143 2.209 . S
Hf108 O147 2.209 . S
O109 Hf110 2.202 1_565 S
O109 Hf112 2.202 . S
O109 Hf115 2.202 1_565 S
Hf110 O102 2.202 . S
Hf110 O104 2.072 1_545 S
Hf110 O107 2.072 . S
Hf110 O109 2.202 1_545 S
Hf110 O132 2.209 1_545 S
Hf110 O133 2.209 . S
Hf110 O140 2.209 . S
Hf110 O142 2.209 1_545 S
O111 Hf108 2.202 . S
O111 Hf113 2.202 . S
O111 Hf115 2.202 . S
Hf112 O103 2.202 . S
Hf112 O104 2.072 . S
Hf112 O109 2.202 . S
Hf112 O114 2.072 . S
Hf112 O124 2.209 . S
Hf112 O125 2.209 . S
Hf112 O145 2.209 . S
Hf112 O146 2.209 . S
Hf113 O103 2.202 1_545 S
Hf113 O105 2.072 . S
Hf113 O111 2.202 . S
Hf113 O114 2.072 1_545 S
Hf113 O129 2.209 . S
Hf113 O130 2.209 1_545 S
Hf113 O139 2.209 1_545 S
Hf113 O144 2.209 . S
O114 Hf112 2.072 . S
O114 Hf113 2.072 1_565 S
O114 Hf115 2.072 1_565 S
Hf115 O107 2.072 . S
Hf115 O109 2.202 1_545 S
Hf115 O111 2.202 . S
Hf115 O114 2.072 1_545 S
Hf115 O123 2.209 1_545 S
Hf115 O126 2.209 . S
Hf115 O135 2.209 . S
Hf115 O138 2.209 1_545 S
C116 O130 1.281 . S
C116 O146 1.281 . S
C117 O133 1.281 . S
C117 O143 1.281 . S
C118 O132 1.281 . S
C118 O145 1.281 . S
C119 O120 1.284 . S
C119 O142 1.284 . S
O120 Hf106 2.209 1_565 S
O120 C119 1.284 . S
O121 Hf106 2.209 . S
O121 C122 1.281 . S
C122 O121 1.281 . S
C122 O144 1.281 . S
O123 Hf115 2.209 1_565 S
O123 C134 1.284 . S
O124 Hf112 2.209 . S
O124 C141 1.281 . S
O125 Hf112 2.209 . S
O125 C149 1.281 . S
O126 Hf115 2.209 . S
O126 C131 1.281 . S
O127 Hf108 2.209 . S
O127 C148 1.281 . S
O128 C100 1.281 . S
O128 Hf108 2.209 . S
O129 C101 1.281 . S
O129 Hf113 2.209 . S
O130 Hf113 2.209 1_565 S
O130 C116 1.281 . S
C131 O126 1.281 . S
C131 O140 1.281 . S
O132 Hf110 2.209 1_565 S
O132 C118 1.281 . S
O133 Hf110 2.209 . S
O133 C117 1.281 . S
C134 O123 1.284 . S
C134 O139 1.284 . S
O135 Hf115 2.209 . S
O135 C148 1.281 . S
O136 Hf106 2.209 1_565 S
O136 C149 1.281 . S
O137 C100 1.281 . S
O137 Hf106 2.209 . S
O138 Hf115 2.209 1_565 S
O138 C141 1.281 . S
O139 Hf113 2.209 1_565 S
O139 C134 1.284 . S
O140 Hf110 2.209 . S
O140 C131 1.281 . S
C141 O124 1.281 . S
C141 O138 1.281 . S
O142 Hf110 2.209 1_565 S
O142 C119 1.284 . S
O143 Hf108 2.209 . S
O143 C117 1.281 . S
O144 Hf113 2.209 . S
O144 C122 1.281 . S
O145 Hf112 2.209 . S
O145 C118 1.281 . S
O146 Hf112 2.209 . S
O146 C116 1.281 . S
O147 C101 1.281 . S
O147 Hf108 2.209 . S
C148 O127 1.281 . S
C148 O135 1.281 . S
C149 O125 1.281 . S
C149 O136 1.281 . S
C150 O178 1.281 . S
C150 O187 1.281 . S
C151 O179 1.281 . S
C151 O197 1.281 . S
O152 Hf156 2.202 . S
O152 Hf158 2.202 . S
O152 Hf160 2.202 . S
O153 Hf156 2.202 . S
O153 Hf162 2.202 . S
O153 Hf163 2.202 . S
O154 Hf156 2.072 . S
O154 Hf160 2.072 . S
O154 Hf162 2.072 . S
O155 Hf156 2.072 . S
O155 Hf158 2.072 . S
O155 Hf163 2.072 . S
Hf156 O152 2.202 . S
Hf156 O153 2.202 . S
Hf156 O154 2.072 . S
Hf156 O155 2.072 . S
Hf156 O170 2.209 . S
Hf156 O171 2.209 . S
Hf156 O186 2.209 . S
Hf156 O187 2.209 . S
O157 Hf158 2.072 1_556 S
O157 Hf160 2.072 1_556 S
O157 Hf165 2.072 . S
Hf158 O152 2.202 . S
Hf158 O155 2.072 . S
Hf158 O157 2.072 1_554 S
Hf158 O161 2.202 1_554 S
Hf158 O177 2.209 1_554 S
Hf158 O178 2.209 . S
Hf158 O193 2.209 1_554 S
Hf158 O197 2.209 . S
O159 Hf160 2.202 1_556 S
O159 Hf162 2.202 1_556 S
O159 Hf165 2.202 . S
Hf160 O152 2.202 . S
Hf160 O154 2.072 . S
Hf160 O157 2.072 1_554 S
Hf160 O159 2.202 1_554 S
Hf160 O182 2.209 . S
Hf160 O183 2.209 1_554 S
Hf160 O190 2.209 1_554 S
Hf160 O192 2.209 . S
O161 Hf158 2.202 1_556 S
O161 Hf163 2.202 1_556 S
O161 Hf165 2.202 . S
Hf162 O153 2.202 . S
Hf162 O154 2.072 . S
Hf162 O159 2.202 1_554 S
Hf162 O164 2.072 1_554 S
Hf162 O174 2.209 1_554 S
Hf162 O175 2.209 . S
Hf162 O195 2.209 . S
Hf162 O196 2.209 1_554 S
Hf163 O153 2.202 . S
Hf163 O155 2.072 . S
Hf163 O161 2.202 1_554 S
Hf163 O164 2.072 1_554 S
Hf163 O179 2.209 . S
Hf163 O180 2.209 1_554 S
Hf163 O189 2.209 1_554 S
Hf163 O194 2.209 . S
O164 Hf162 2.072 1_556 S
O164 Hf163 2.072 1_556 S
O164 Hf165 2.072 . S
Hf165 O157 2.072 . S
Hf165 O159 2.202 . S
Hf165 O161 2.202 . S
Hf165 O164 2.072 . S
Hf165 O173 2.209 . S
Hf165 O176 2.209 . S
Hf165 O185 2.209 . S
Hf165 O188 2.209 . S
C166 O180 1.284 . S
C166 O196 1.284 . S
C167 O183 1.284 . S
C167 O193 1.284 . S
C168 O182 1.281 . S
C168 O195 1.281 . S
C169 O170 1.281 . S
C169 O192 1.281 . S
O170 Hf156 2.209 . S
O170 C169 1.281 . S
O171 Hf156 2.209 . S
O171 C172 1.281 . S
C172 O171 1.281 . S
C172 O194 1.281 . S
O173 Hf165 2.209 . S
O173 C184 1.281 . S
O174 Hf162 2.209 1_556 S
O174 C191 1.281 . S
O175 Hf162 2.209 . S
O175 C199 1.281 . S
O176 Hf165 2.209 . S
O176 C181 1.281 . S
O177 Hf158 2.209 1_556 S
O177 C198 1.281 . S
O178 C150 1.281 . S
O178 Hf158 2.209 . S
O179 C151 1.281 . S
O179 Hf163 2.209 . S
O180 Hf163 2.209 1_556 S
O180 C166 1.284 . S
C181 O176 1.281 . S
C181 O190 1.281 . S
O182 Hf160 2.209 . S
O182 C168 1.281 . S
O183 Hf160 2.209 1_556 S
O183 C167 1.284 . S
C184 O173 1.281 . S
C184 O189 1.281 . S
O185 Hf165 2.209 . S
O185 C198 1.281 . S
O186 Hf156 2.209 . S
O186 C199 1.281 . S
O187 C150 1.281 . S
O187 Hf156 2.209 . S
O188 Hf165 2.209 . S
O188 C191 1.281 . S
O189 Hf163 2.209 1_556 S
O189 C184 1.281 . S
O190 Hf160 2.209 1_556 S
O190 C181 1.281 . S
C191 O174 1.281 . S
C191 O188 1.281 . S
O192 Hf160 2.209 . S
O192 C169 1.281 . S
O193 Hf158 2.209 1_556 S
O193 C167 1.284 . S
O194 Hf163 2.209 . S
O194 C172 1.281 . S
O195 Hf162 2.209 . S
O195 C168 1.281 . S
O196 Hf162 2.209 1_556 S
O196 C166 1.284 . S
O197 C151 1.281 . S
O197 Hf158 2.209 . S
C198 O177 1.281 . S
C198 O185 1.281 . S
C199 O175 1.281 . S
C199 O186 1.281 . S
H200 C208 0.929 . S
H201 C210 0.930 . S
H202 C212 0.930 . S
H203 C215 0.929 . S
H204 C218 0.930 . S
H205 C220 0.960 . S
H206 C220 0.960 . S
H207 C220 0.960 . S
C208 H200 0.929 . S
C208 C209 1.377 . S
C208 C210 1.384 . S
C209 C208 1.377 . S
C209 C215 1.390 . S
C210 H201 0.930 . S
C210 C208 1.384 . S
C210 C211 1.372 . S
C211 C210 1.372 . S
C211 C212 1.400 . S
C211 C216 1.490 . S
C212 H202 0.930 . S
C212 C211 1.400 . S
C212 C215 1.386 . S
H213 C229 0.930 . S
H214 C230 0.931 . S
C215 H203 0.929 . S
C215 C209 1.390 . S
C215 C212 1.386 . S
C216 C211 1.490 . S
C216 C218 1.395 . S
C216 C219 1.403 1_655 S
H217 C223 0.930 . S
C218 H204 0.930 . S
C218 C216 1.395 . S
C218 C221 1.403 . S
C219 C216 1.403 1_455 S
C219 C220 1.524 . S
C219 C223 1.400 . S
C220 H205 0.960 . S
C220 H206 0.960 . S
C220 H207 0.960 . S
C220 C219 1.524 . S
C221 C218 1.403 . S
C221 C222 1.392 . S
C221 C225 1.495 . S
C222 C221 1.392 . S
C222 C223 1.385 1_655 S
C222 C224 1.478 . S
C223 H217 0.930 . S
C223 C219 1.400 . S
C223 C222 1.385 1_455 S
C224 C222 1.478 . S
C224 C226 1.381 . S
C224 C230 1.383 . S
C225 C221 1.495 . S
C225 H231 0.959 . S
C225 H232 0.961 . S
C225 H233 0.960 . S
C226 C224 1.381 . S
C226 C227 1.394 . S
C226 H234 0.930 . S
C227 C226 1.394 . S
C227 C228 1.383 . S
C227 H235 0.929 1_655 S
C228 C227 1.383 . S
C228 C229 1.377 . S
C229 H213 0.930 . S
C229 C228 1.377 . S
C229 C230 1.379 . S
C230 H214 0.931 . S
C230 C224 1.383 . S
C230 C229 1.379 . S
H231 C225 0.959 . S
H232 C225 0.961 . S
H233 C225 0.960 . S
H234 C226 0.930 . S
H235 C227 0.929 1_455 S
H236 C244 0.929 . S
H237 C246 0.930 . S
H238 C248 0.930 . S
H239 C251 0.929 . S
H240 C254 0.930 . S
H241 C256 0.960 . S
H242 C256 0.960 . S
H243 C256 0.960 . S
C244 H236 0.929 . S
C244 C245 1.377 . S
C244 C246 1.384 . S
C245 C244 1.377 . S
C245 C251 1.390 1_545 S
C246 H237 0.930 . S
C246 C244 1.384 . S
C246 C247 1.372 . S
C247 C246 1.372 . S
C247 C248 1.400 1_545 S
C247 C252 1.490 . S
C248 H238 0.930 . S
C248 C247 1.400 1_565 S
C248 C251 1.386 . S
H249 C265 0.930 . S
H250 C266 0.931 . S
C251 H239 0.929 . S
C251 C245 1.390 1_565 S
C251 C248 1.386 . S
C252 C247 1.490 . S
C252 C254 1.395 . S
C252 C255 1.403 1_545 S
H253 C259 0.930 . S
C254 H240 0.930 . S
C254 C252 1.395 . S
C254 C257 1.403 . S
C255 C252 1.403 1_565 S
C255 C256 1.524 . S
C255 C259 1.400 . S
C256 H241 0.960 . S
C256 H242 0.960 . S
C256 H243 0.960 . S
C256 C255 1.524 . S
C257 C254 1.403 . S
C257 C258 1.392 . S
C257 C261 1.495 . S
C258 C257 1.392 . S
C258 C259 1.385 1_545 S
C258 C260 1.478 . S
C259 H253 0.930 . S
C259 C255 1.400 . S
C259 C258 1.385 1_565 S
C260 C258 1.478 . S
C260 C262 1.381 . S
C260 C266 1.383 1_545 S
C261 C257 1.495 . S
C261 H267 0.959 . S
C261 H268 0.961 . S
C261 H269 0.960 . S
C262 C260 1.381 . S
C262 C263 1.394 . S
C262 H270 0.930 . S
C263 C262 1.394 . S
C263 C264 1.383 . S
C263 H271 0.929 . S
C264 C263 1.383 . S
C264 C265 1.377 1_545 S
C265 H249 0.930 . S
C265 C264 1.377 1_565 S
C265 C266 1.379 . S
C266 H250 0.931 . S
C266 C260 1.383 1_565 S
C266 C265 1.379 . S
H267 C261 0.959 . S
H268 C261 0.961 . S
H269 C261 0.960 . S
H270 C262 0.930 . S
H271 C263 0.929 . S
H272 C280 0.929 . S
H273 C282 0.930 . S
H274 C284 0.930 . S
H275 C287 0.929 . S
H276 C290 0.930 . S
H277 C292 0.960 . S
H278 C292 0.960 . S
H279 C292 0.960 . S
C280 H272 0.929 . S
C280 C281 1.377 . S
C280 C282 1.384 . S
C281 C280 1.377 . S
C281 C287 1.390 1_455 S
C282 H273 0.930 . S
C282 C280 1.384 . S
C282 C283 1.372 . S
C283 C282 1.372 . S
C283 C284 1.400 1_455 S
C283 C288 1.490 . S
C284 H274 0.930 . S
C284 C283 1.400 1_655 S
C284 C287 1.386 . S
H285 C301 0.930 . S
H286 C302 0.931 . S
C287 H275 0.929 . S
C287 C281 1.390 1_655 S
C287 C284 1.386 . S
C288 C283 1.490 . S
C288 C290 1.395 . S
C288 C291 1.403 1_455 S
H289 C295 0.930 . S
C290 H276 0.930 . S
C290 C288 1.395 . S
C290 C293 1.403 . S
C291 C288 1.403 1_655 S
C291 C292 1.524 . S
C291 C295 1.400 . S
C292 H277 0.960 . S
C292 H278 0.960 . S
C292 H279 0.960 . S
C292 C291 1.524 . S
C293 C290 1.403 . S
C293 C294 1.392 . S
C293 C297 1.495 . S
C294 C293 1.392 . S
C294 C295 1.385 1_455 S
C294 C296 1.478 . S
C295 H289 0.930 . S
C295 C291 1.400 . S
C295 C294 1.385 1_655 S
C296 C294 1.478 . S
C296 C298 1.381 . S
C296 C302 1.383 1_455 S
C297 C293 1.495 . S
C297 H303 0.959 . S
C297 H304 0.961 . S
C297 H305 0.960 . S
C298 C296 1.381 . S
C298 C299 1.394 . S
C298 H306 0.930 . S
C299 C298 1.394 . S
C299 C300 1.383 . S
C299 H307 0.929 . S
C300 C299 1.383 . S
C300 C301 1.377 1_455 S
C301 H285 0.930 . S
C301 C300 1.377 1_655 S
C301 C302 1.379 . S
C302 H286 0.931 . S
C302 C296 1.383 1_655 S
C302 C301 1.379 . S
H303 C297 0.959 . S
H304 C297 0.961 . S
H305 C297 0.960 . S
H306 C298 0.930 . S
H307 C299 0.929 . S
H308 C316 0.934 . S
H309 C318 0.930 . S
H310 C320 0.930 . S
H311 C323 0.929 . S
H312 C326 0.930 . S
H313 C328 0.960 . S
H314 C328 0.960 . S
H315 C328 0.960 . S
C316 H308 0.934 . S
C316 C317 1.373 1_545 S
C316 C318 1.384 . S
C317 C316 1.373 1_565 S
C317 C323 1.390 . S
C318 H309 0.930 . S
C318 C316 1.384 . S
C318 C319 1.372 1_545 S
C319 C318 1.372 1_565 S
C319 C320 1.400 . S
C319 C324 1.490 . S
C320 H310 0.930 . S
C320 C319 1.400 . S
C320 C323 1.386 . S
H321 C337 0.930 . S
H322 C338 0.931 . S
C323 H311 0.929 . S
C323 C317 1.390 . S
C323 C320 1.386 . S
C324 C319 1.490 . S
C324 C326 1.395 1_565 S
C324 C327 1.403 . S
H325 C331 0.930 . S
C326 H312 0.930 . S
C326 C324 1.395 1_545 S
C326 C329 1.403 . S
C327 C324 1.403 . S
C327 C328 1.524 . S
C327 C331 1.400 . S
C328 H313 0.960 . S
C328 H314 0.960 . S
C328 H315 0.960 . S
C328 C327 1.524 . S
C329 C326 1.403 . S
C329 C330 1.392 . S
C329 C333 1.495 . S
C330 C329 1.392 . S
C330 C331 1.386 1_545 S
C330 C332 1.477 . S
C331 H325 0.930 . S
C331 C327 1.400 . S
C331 C330 1.386 1_565 S
C332 C330 1.477 . S
C332 C334 1.383 . S
C332 C338 1.381 1_545 S
C333 C329 1.495 . S
C333 H339 0.959 . S
C333 H340 0.961 . S
C333 H341 0.960 . S
C334 C332 1.383 . S
C334 C335 1.394 . S
C334 H342 0.930 . S
C335 C334 1.394 . S
C335 C336 1.383 1_545 S
C335 H343 0.929 . S
C336 C335 1.383 1_565 S
C336 C337 1.377 . S
C337 H321 0.930 . S
C337 C336 1.377 . S
C337 C338 1.379 . S
C338 H322 0.931 . S
C338 C332 1.381 1_565 S
C338 C337 1.379 . S
H339 C333 0.959 . S
H340 C333 0.961 . S
H341 C333 0.960 . S
H342 C334 0.930 . S
H343 C335 0.929 . S
H344 C352 0.929 . S
H345 C354 0.930 . S
H346 C356 0.930 . S
H347 C359 0.929 . S
H348 C362 0.930 . S
H349 C364 0.960 . S
H350 C364 0.960 . S
H351 C364 0.960 . S
C352 H344 0.929 . S
C352 C353 1.377 1_455 S
C352 C354 1.384 . S
C353 C352 1.377 1_655 S
C353 C359 1.390 . S
C354 H345 0.930 . S
C354 C352 1.384 . S
C354 C355 1.372 1_455 S
C355 C354 1.372 1_655 S
C355 C356 1.400 . S
C355 C360 1.490 . S
C356 H346 0.930 . S
C356 C355 1.400 . S
C356 C359 1.386 . S
H357 C373 0.930 . S
H358 C374 0.931 . S
C359 H347 0.929 . S
C359 C353 1.390 . S
C359 C356 1.386 . S
C360 C355 1.490 . S
C360 C362 1.395 1_655 S
C360 C363 1.403 . S
H361 C367 0.930 . S
C362 H348 0.930 . S
C362 C360 1.395 1_455 S
C362 C365 1.403 . S
C363 C360 1.403 . S
C363 C364 1.524 . S
C363 C367 1.400 . S
C364 H349 0.960 . S
C364 H350 0.960 . S
C364 H351 0.960 . S
C364 C363 1.524 . S
C365 C362 1.403 . S
C365 C366 1.391 . S
C365 C369 1.495 . S
C366 C365 1.391 . S
C366 C367 1.386 1_455 S
C366 C368 1.477 1_455 S
C367 H361 0.930 . S
C367 C363 1.400 . S
C367 C366 1.386 1_655 S
C368 C366 1.477 1_655 S
C368 C370 1.375 1_655 S
C368 C374 1.389 . S
C369 C365 1.495 . S
C369 H375 0.959 . S
C369 H376 0.961 . S
C369 H377 0.960 . S
C370 C368 1.375 1_455 S
C370 C371 1.394 . S
C370 H378 0.930 . S
C371 C370 1.394 . S
C371 C372 1.383 1_455 S
C371 H379 0.929 . S
C372 C371 1.383 1_655 S
C372 C373 1.377 . S
C373 H357 0.930 . S
C373 C372 1.377 . S
C373 C374 1.379 . S
C374 H358 0.931 . S
C374 C368 1.389 . S
C374 C373 1.379 . S
H375 C369 0.959 . S
H376 C369 0.961 . S
H377 C369 0.960 . S
H378 C370 0.930 . S
H379 C371 0.929 . S
H380 C388 0.929 . S
H381 C390 0.930 . S
H382 C392 0.930 . S
H383 C395 0.929 . S
H384 C398 0.930 . S
H385 C400 0.960 . S
H386 C400 0.960 . S
H387 C400 0.960 . S
C388 H380 0.929 . S
C388 C389 1.377 1_565 S
C388 C390 1.384 . S
C389 C388 1.377 1_545 S
C389 C395 1.390 . S
C390 H381 0.930 . S
C390 C388 1.384 . S
C390 C391 1.372 1_565 S
C391 C390 1.372 1_545 S
C391 C392 1.400 . S
C391 C396 1.490 . S
C392 H382 0.930 . S
C392 C391 1.400 . S
C392 C395 1.386 . S
H393 C409 0.930 . S
H394 C410 0.931 . S
C395 H383 0.929 . S
C395 C389 1.390 . S
C395 C392 1.386 . S
C396 C391 1.490 . S
C396 C398 1.395 . S
C396 C399 1.403 1_545 S
H397 C403 0.930 . S
C398 H384 0.930 . S
C398 C396 1.395 . S
C398 C401 1.403 . S
C399 C396 1.403 1_565 S
C399 C400 1.524 . S
C399 C403 1.400 . S
C400 H385 0.960 . S
C400 H386 0.960 . S
C400 H387 0.960 . S
C400 C399 1.524 . S
C401 C398 1.403 . S
C401 C402 1.392 . S
C401 C405 1.495 . S
C402 C401 1.392 . S
C402 C403 1.385 1_545 S
C402 C404 1.478 . S
C403 H397 0.930 . S
C403 C399 1.400 . S
C403 C402 1.385 1_565 S
C404 C402 1.478 . S
C404 C406 1.381 1_545 S
C404 C410 1.383 . S
C405 C401 1.495 . S
C405 H411 0.959 . S
C405 H412 0.961 . S
C405 H413 0.960 . S
C406 C404 1.381 1_565 S
C406 C407 1.394 . S
C406 H414 0.930 . S
C407 C406 1.394 . S
C407 C408 1.383 1_565 S
C407 H415 0.929 . S
C408 C407 1.383 1_545 S
C408 C409 1.377 . S
C409 H393 0.930 . S
C409 C408 1.377 . S
C409 C410 1.379 . S
C410 H394 0.931 . S
C410 C404 1.383 . S
C410 C409 1.379 . S
H411 C405 0.959 . S
H412 C405 0.961 . S
H413 C405 0.960 . S
H414 C406 0.930 . S
H415 C407 0.929 . S
H416 C424 0.929 . S
H417 C426 0.930 . S
H418 C428 0.930 . S
H419 C431 0.929 . S
H420 C434 0.930 . S
H421 C436 0.960 . S
H422 C436 0.960 . S
H423 C436 0.960 . S
C424 H416 0.929 . S
C424 C425 1.377 . S
C424 C426 1.384 . S
C425 C424 1.377 . S
C425 C431 1.390 1_455 S
C426 H417 0.930 . S
C426 C424 1.384 . S
C426 C427 1.372 . S
C427 C426 1.372 . S
C427 C428 1.400 1_455 S
C427 C432 1.490 . S
C428 H418 0.930 . S
C428 C427 1.400 1_655 S
C428 C431 1.386 . S
H429 C445 0.930 . S
H430 C446 0.931 . S
C431 H419 0.929 . S
C431 C425 1.390 1_655 S
C431 C428 1.386 . S
C432 C427 1.490 . S
C432 C434 1.395 1_455 S
C432 C435 1.403 . S
H433 C439 0.930 . S
C434 H420 0.930 . S
C434 C432 1.395 1_655 S
C434 C437 1.403 . S
C435 C432 1.403 . S
C435 C436 1.524 . S
C435 C439 1.400 . S
C436 H421 0.960 . S
C436 H422 0.960 . S
C436 H423 0.960 . S
C436 C435 1.524 . S
C437 C434 1.403 . S
C437 C438 1.392 1_655 S
C437 C441 1.495 . S
C438 C437 1.392 1_455 S
C438 C439 1.385 . S
C438 C440 1.478 . S
C439 H433 0.930 . S
C439 C435 1.400 . S
C439 C438 1.385 . S
C440 C438 1.478 . S
C440 C442 1.381 . S
C440 C446 1.383 1_455 S
C441 C437 1.495 . S
C441 H447 0.959 . S
C441 H448 0.961 . S
C441 H449 0.960 . S
C442 C440 1.381 . S
C442 C443 1.394 . S
C442 H450 0.930 . S
C443 C442 1.394 . S
C443 C444 1.383 . S
C443 H451 0.929 . S
C444 C443 1.383 . S
C444 C445 1.377 1_455 S
C445 H429 0.930 . S
C445 C444 1.377 1_655 S
C445 C446 1.379 . S
C446 H430 0.931 . S
C446 C440 1.383 1_655 S
C446 C445 1.379 . S
H447 C441 0.959 . S
H448 C441 0.961 . S
H449 C441 0.960 . S
H450 C442 0.930 . S
H451 C443 0.929 . S
H452 C460 0.929 . S
H453 C462 0.930 . S
H454 C464 0.930 . S
H455 C467 0.929 . S
H456 C470 0.930 . S
H457 C472 0.960 . S
H458 C472 0.960 . S
H459 C472 0.960 . S
C460 H452 0.929 . S
C460 C461 1.377 . S
C460 C462 1.384 . S
C461 C460 1.377 . S
C461 C467 1.390 . S
C462 H453 0.930 . S
C462 C460 1.384 . S
C462 C463 1.372 . S
C463 C462 1.372 . S
C463 C464 1.400 . S
C463 C468 1.490 . S
C464 H454 0.930 . S
C464 C463 1.400 . S
C464 C467 1.386 . S
H465 C481 0.930 . S
H466 C482 0.931 . S
C467 H455 0.929 . S
C467 C461 1.390 . S
C467 C464 1.386 . S
C468 C463 1.490 . S
C468 C470 1.395 . S
C468 C471 1.403 1_565 S
H469 C475 0.930 . S
C470 H456 0.930 . S
C470 C468 1.395 . S
C470 C473 1.403 . S
C471 C468 1.403 1_545 S
C471 C472 1.524 . S
C471 C475 1.400 . S
C472 H457 0.960 . S
C472 H458 0.960 . S
C472 H459 0.960 . S
C472 C471 1.524 . S
C473 C470 1.403 . S
C473 C474 1.392 . S
C473 C477 1.495 . S
C474 C473 1.392 . S
C474 C475 1.385 1_565 S
C474 C476 1.478 . S
C475 H469 0.930 . S
C475 C471 1.400 . S
C475 C474 1.385 1_545 S
C476 C474 1.478 . S
C476 C478 1.381 . S
C476 C482 1.383 . S
C477 C473 1.495 . S
C477 H483 0.959 . S
C477 H484 0.961 . S
C477 H485 0.960 . S
C478 C476 1.381 . S
C478 C479 1.394 . S
C478 H486 0.930 . S
C479 C478 1.394 . S
C479 C480 1.383 . S
C479 H487 0.929 . S
C480 C479 1.383 . S
C480 C481 1.377 . S
C481 H465 0.930 . S
C481 C480 1.377 . S
C481 C482 1.379 . S
C482 H466 0.931 . S
C482 C476 1.383 . S
C482 C481 1.379 . S
H483 C477 0.959 . S
H484 C477 0.961 . S
H485 C477 0.960 . S
H486 C478 0.930 . S
H487 C479 0.929 . S
H488 C496 0.929 . S
H489 C498 0.930 . S
H490 C500 0.930 . S
H491 C503 0.929 . S
H492 C506 0.930 . S
H493 C508 0.960 . S
H494 C508 0.960 . S
H495 C508 0.960 . S
C496 H488 0.929 . S
C496 C497 1.377 1_554 S
C496 C498 1.384 . S
C497 C496 1.377 1_556 S
C497 C503 1.390 . S
C498 H489 0.930 . S
C498 C496 1.384 . S
C498 C499 1.372 1_554 S
C499 C498 1.372 1_556 S
C499 C500 1.400 . S
C499 C504 1.490 . S
C500 H490 0.930 . S
C500 C499 1.400 . S
C500 C503 1.386 . S
H501 C517 0.930 . S
H502 C518 0.931 . S
C503 H491 0.929 . S
C503 C497 1.390 . S
C503 C500 1.386 . S
C504 C499 1.490 . S
C504 C506 1.395 . S
C504 C507 1.403 1_556 S
H505 C511 0.930 . S
C506 H492 0.930 . S
C506 C504 1.395 . S
C506 C509 1.403 . S
C507 C504 1.403 1_554 S
C507 C508 1.524 . S
C507 C511 1.400 . S
C508 H493 0.960 . S
C508 H494 0.960 . S
C508 H495 0.960 . S
C508 C507 1.524 . S
C509 C506 1.403 . S
C509 C510 1.392 . S
C509 C513 1.495 . S
C510 C509 1.392 . S
C510 C511 1.385 1_556 S
C510 C512 1.478 . S
C511 H505 0.930 . S
C511 C507 1.400 . S
C511 C510 1.385 1_554 S
C512 C510 1.478 . S
C512 C514 1.381 1_556 S
C512 C518 1.383 . S
C513 C509 1.495 . S
C513 H519 0.959 . S
C513 H520 0.961 . S
C513 H521 0.960 . S
C514 C512 1.381 1_554 S
C514 C515 1.394 . S
C514 H522 0.930 . S
C515 C514 1.394 . S
C515 C516 1.383 1_554 S
C515 H523 0.929 . S
C516 C515 1.383 1_556 S
C516 C517 1.377 . S
C517 H501 0.930 . S
C517 C516 1.377 . S
C517 C518 1.379 . S
C518 H502 0.931 . S
C518 C512 1.383 . S
C518 C517 1.379 . S
H519 C513 0.959 . S
H520 C513 0.961 . S
H521 C513 0.960 . S
H522 C514 0.930 . S
H523 C515 0.929 . S
H524 C532 0.929 . S
H525 C534 0.930 . S
H526 C536 0.930 . S
H527 C539 0.929 . S
H528 C542 0.930 . S
H529 C544 0.960 . S
H530 C544 0.960 . S
H531 C544 0.960 . S
C532 H524 0.929 . S
C532 C533 1.377 . S
C532 C534 1.384 . S
C533 C532 1.377 . S
C533 C539 1.390 . S
C534 H525 0.930 . S
C534 C532 1.384 . S
C534 C535 1.372 . S
C535 C534 1.372 . S
C535 C536 1.400 . S
C535 C540 1.490 . S
C536 H526 0.930 . S
C536 C535 1.400 . S
C536 C539 1.386 . S
H537 C553 0.930 . S
H538 C554 0.931 . S
C539 H527 0.929 . S
C539 C533 1.390 . S
C539 C536 1.386 . S
C540 C535 1.490 . S
C540 C542 1.395 1_554 S
C540 C543 1.403 . S
H541 C547 0.930 . S
C542 H528 0.930 . S
C542 C540 1.395 1_556 S
C542 C545 1.403 . S
C543 C540 1.403 . S
C543 C544 1.524 . S
C543 C547 1.400 . S
C544 H529 0.960 . S
C544 H530 0.960 . S
C544 H531 0.960 . S
C544 C543 1.524 . S
C545 C542 1.403 . S
C545 C546 1.392 1_556 S
C545 C549 1.495 . S
C546 C545 1.392 1_554 S
C546 C547 1.385 . S
C546 C548 1.478 . S
C547 H541 0.930 . S
C547 C543 1.400 . S
C547 C546 1.385 . S
C548 C546 1.478 . S
C548 C550 1.385 . S
C548 C554 1.380 1_554 S
C549 C545 1.495 . S
C549 H555 0.959 . S
C549 H556 0.961 . S
C549 H557 0.960 . S
C550 C548 1.385 . S
C550 C551 1.394 . S
C550 H558 0.930 . S
C551 C550 1.394 . S
C551 C552 1.383 . S
C551 H559 0.929 . S
C552 C551 1.383 . S
C552 C553 1.377 1_554 S
C553 H537 0.930 . S
C553 C552 1.377 1_556 S
C553 C554 1.379 . S
C554 H538 0.931 . S
C554 C548 1.380 1_556 S
C554 C553 1.379 . S
H555 C549 0.959 . S
H556 C549 0.961 . S
H557 C549 0.960 . S
H558 C550 0.930 . S
H559 C551 0.929 . S
H560 C568 0.929 . S
H561 C570 0.930 . S
H562 C572 0.930 . S
H563 C575 0.929 . S
H564 C578 0.930 . S
H565 C580 0.960 . S
H566 C580 0.960 . S
H567 C580 0.960 . S
C568 H560 0.929 . S
C568 C569 1.377 1_556 S
C568 C570 1.384 . S
C569 C568 1.377 1_554 S
C569 C575 1.390 . S
C570 H561 0.930 . S
C570 C568 1.384 . S
C570 C571 1.372 1_556 S
C571 C570 1.372 1_554 S
C571 C572 1.400 . S
C571 C576 1.490 . S
C572 H562 0.930 . S
C572 C571 1.400 . S
C572 C575 1.386 . S
H573 C589 0.930 . S
H574 C590 0.931 . S
C575 H563 0.929 . S
C575 C569 1.390 . S
C575 C572 1.386 . S
C576 C571 1.490 . S
C576 C578 1.395 1_554 S
C576 C579 1.403 . S
H577 C583 0.930 . S
C578 H564 0.930 . S
C578 C576 1.395 1_556 S
C578 C581 1.403 . S
C579 C576 1.403 . S
C579 C580 1.524 . S
C579 C583 1.400 . S
C580 H565 0.960 . S
C580 H566 0.960 . S
C580 H567 0.960 . S
C580 C579 1.524 . S
C581 C578 1.403 . S
C581 C582 1.379 1_556 S
C581 C585 1.495 . S
C582 C581 1.379 1_554 S
C582 C583 1.399 . S
C582 C584 1.478 . S
C583 H577 0.930 . S
C583 C579 1.400 . S
C583 C582 1.399 . S
C584 C582 1.478 . S
C584 C586 1.381 1_554 S
C584 C590 1.383 . S
C585 C581 1.495 . S
C585 H591 0.959 . S
C585 H592 0.961 . S
C585 H593 0.960 . S
C586 C584 1.381 1_556 S
C586 C587 1.394 . S
C586 H594 0.930 . S
C587 C586 1.394 . S
C587 C588 1.383 1_556 S
C587 H595 0.929 . S
C588 C587 1.383 1_554 S
C588 C589 1.377 . S
C589 H573 0.930 . S
C589 C588 1.377 . S
C589 C590 1.379 . S
C590 H574 0.931 . S
C590 C584 1.383 . S
C590 C589 1.379 . S
H591 C585 0.959 . S
H592 C585 0.961 . S
H593 C585 0.960 . S
H594 C586 0.930 . S
H595 C587 0.929 . S
H596 C604 0.929 . S
H597 C606 0.930 . S
H598 C608 0.930 . S
H599 C611 0.929 . S
H600 C614 0.930 . S
H601 C616 0.960 . S
H602 C616 0.960 . S
H603 C616 0.960 . S
C604 H596 0.929 . S
C604 C605 1.377 1_554 S
C604 C606 1.384 . S
C605 C604 1.377 1_556 S
C605 C611 1.390 . S
C606 H597 0.930 . S
C606 C604 1.384 . S
C606 C607 1.372 1_554 S
C607 C606 1.372 1_556 S
C607 C608 1.400 . S
C607 C612 1.490 . S
C608 H598 0.930 . S
C608 C607 1.400 . S
C608 C611 1.386 . S
H609 C625 0.930 . S
H610 C626 0.931 . S
C611 H599 0.929 . S
C611 C605 1.390 . S
C611 C608 1.386 . S
C612 C607 1.490 . S
C612 C614 1.395 1_556 S
C612 C615 1.403 . S
H613 C619 0.930 . S
C614 H600 0.930 . S
C614 C612 1.395 1_554 S
C614 C617 1.403 . S
C615 C612 1.403 . S
C615 C616 1.524 . S
C615 C619 1.400 . S
C616 H601 0.960 . S
C616 H602 0.960 . S
C616 H603 0.960 . S
C616 C615 1.524 . S
C617 C614 1.403 . S
C617 C618 1.406 . S
C617 C621 1.495 . S
C618 C617 1.406 . S
C618 C619 1.371 1_554 S
C618 C620 1.478 . S
C619 H613 0.930 . S
C619 C615 1.400 . S
C619 C618 1.371 1_556 S
C620 C618 1.478 . S
C620 C622 1.387 . S
C620 C626 1.376 1_554 S
C621 C617 1.495 . S
C621 H627 0.959 . S
C621 H628 0.961 . S
C621 H629 0.960 . S
C622 C620 1.387 . S
C622 C623 1.394 . S
C622 H630 0.930 . S
C623 C622 1.394 . S
C623 C624 1.383 1_554 S
C623 H631 0.929 . S
C624 C623 1.383 1_556 S
C624 C625 1.377 . S
C625 H609 0.930 . S
C625 C624 1.377 . S
C625 C626 1.379 . S
C626 H610 0.931 . S
C626 C620 1.376 1_556 S
C626 C625 1.379 . S
H627 C621 0.959 . S
H628 C621 0.961 . S
H629 C621 0.960 . S
H630 C622 0.930 . S
H631 C623 0.929 . S
H632 C640 0.929 . S
H633 C642 0.930 . S
H634 C644 0.930 . S
H635 C647 0.929 . S
H636 C650 0.930 . S
H637 C652 0.960 . S
H638 C652 0.960 . S
H639 C652 0.960 . S
C640 H632 0.929 . S
C640 C641 1.377 . S
C640 C642 1.384 . S
C641 C640 1.377 . S
C641 C647 1.390 . S
C642 H633 0.930 . S
C642 C640 1.384 . S
C642 C643 1.372 . S
C643 C642 1.372 . S
C643 C644 1.400 . S
C643 C648 1.490 . S
C644 H634 0.930 . S
C644 C643 1.400 . S
C644 C647 1.386 . S
H645 C661 0.930 . S
H646 C662 0.931 . S
C647 H635 0.929 . S
C647 C641 1.390 . S
C647 C644 1.386 . S
C648 C643 1.490 . S
C648 C650 1.395 . S
C648 C651 1.403 . S
H649 C655 0.930 . S
C650 H636 0.930 . S
C650 C648 1.395 . S
C650 C653 1.403 . S
C651 C648 1.403 . S
C651 C652 1.524 . S
C651 C655 1.400 . S
C652 H637 0.960 . S
C652 H638 0.960 . S
C652 H639 0.960 . S
C652 C651 1.524 . S
C653 C650 1.403 . S
C653 C654 1.392 . S
C653 C657 1.495 . S
C654 C653 1.392 . S
C654 C655 1.385 . S
C654 C656 1.478 . S
C655 H649 0.930 . S
C655 C651 1.400 . S
C655 C654 1.385 . S
C656 C654 1.478 . S
C656 C658 1.381 . S
C656 C662 1.383 . S
C657 C653 1.495 . S
C657 H663 0.959 . S
C657 H664 0.961 . S
C657 H665 0.960 . S
C658 C656 1.381 . S
C658 C659 1.394 . S
C658 H666 0.930 . S
C659 C658 1.394 . S
C659 C660 1.383 . S
C659 H667 0.929 . S
C660 C659 1.383 . S
C660 C661 1.377 . S
C661 H645 0.930 . S
C661 C660 1.377 . S
C661 C662 1.379 . S
C662 H646 0.931 . S
C662 C656 1.383 . S
C662 C661 1.379 . S
H663 C657 0.959 . S
H664 C657 0.961 . S
H665 C657 0.960 . S
H666 C658 0.930 . S
H667 C659 0.929 . S
H668 C676 0.929 . S
H669 C678 0.930 . S
H670 C680 0.930 . S
H671 C683 0.929 . S
H672 C686 0.930 . S
H673 C688 0.960 . S
H674 C688 0.960 . S
H675 C688 0.960 . S
C676 H668 0.929 . S
C676 C677 1.377 . S
C676 C678 1.384 . S
C677 C676 1.377 . S
C677 C683 1.390 . S
C678 H669 0.930 . S
C678 C676 1.384 . S
C678 C679 1.372 . S
C679 C678 1.372 . S
C679 C680 1.400 . S
C679 C684 1.490 . S
C680 H670 0.930 . S
C680 C679 1.400 . S
C680 C683 1.386 . S
H681 C697 0.930 . S
H682 C698 0.931 . S
C683 H671 0.929 . S
C683 C677 1.390 . S
C683 C680 1.386 . S
C684 C679 1.490 . S
C684 C686 1.395 . S
C684 C687 1.403 . S
H685 C691 0.930 . S
C686 H672 0.930 . S
C686 C684 1.395 . S
C686 C689 1.403 . S
C687 C684 1.403 . S
C687 C688 1.524 . S
C687 C691 1.400 . S
C688 H673 0.960 . S
C688 H674 0.960 . S
C688 H675 0.960 . S
C688 C687 1.524 . S
C689 C686 1.403 . S
C689 C690 1.392 . S
C689 C693 1.495 . S
C690 C689 1.392 . S
C690 C691 1.385 . S
C690 C692 1.478 . S
C691 H685 0.930 . S
C691 C687 1.400 . S
C691 C690 1.385 . S
C692 C690 1.478 . S
C692 C694 1.381 . S
C692 C698 1.383 . S
C693 C689 1.495 . S
C693 H699 0.959 . S
C693 H700 0.961 . S
C693 H701 0.960 . S
C694 C692 1.381 . S
C694 C695 1.394 . S
C694 H702 0.930 . S
C695 C694 1.394 . S
C695 C696 1.383 . S
C695 H703 0.929 . S
C696 C695 1.383 . S
C696 C697 1.377 . S
C697 H681 0.930 . S
C697 C696 1.377 . S
C697 C698 1.379 . S
C698 H682 0.931 . S
C698 C692 1.383 . S
C698 C697 1.379 . S
H699 C693 0.959 . S
H700 C693 0.961 . S
H701 C693 0.960 . S
H702 C694 0.930 . S
H703 C695 0.929 . S
H704 C712 0.929 . S
H705 C714 0.930 . S
H706 C716 0.930 . S
H707 C719 0.929 . S
H708 C722 0.930 . S
H709 C724 0.960 . S
H710 C724 0.960 . S
H711 C724 0.960 . S
C712 H704 0.929 . S
C712 C713 1.377 . S
C712 C714 1.384 . S
C713 C712 1.377 . S
C713 C719 1.390 . S
C714 H705 0.930 . S
C714 C712 1.384 . S
C714 C715 1.372 . S
C715 C714 1.372 . S
C715 C716 1.400 . S
C715 C720 1.490 . S
C716 H706 0.930 . S
C716 C715 1.400 . S
C716 C719 1.386 . S
H717 C733 0.930 . S
H718 C734 0.931 . S
C719 H707 0.929 . S
C719 C713 1.390 . S
C719 C716 1.386 . S
C720 C715 1.490 . S
C720 C722 1.395 . S
C720 C723 1.403 . S
H721 C727 0.930 . S
C722 H708 0.930 . S
C722 C720 1.395 . S
C722 C725 1.403 . S
C723 C720 1.403 . S
C723 C724 1.524 . S
C723 C727 1.400 . S
C724 H709 0.960 . S
C724 H710 0.960 . S
C724 H711 0.960 . S
C724 C723 1.524 . S
C725 C722 1.403 . S
C725 C726 1.392 . S
C725 C729 1.495 . S
C726 C725 1.392 . S
C726 C727 1.385 . S
C726 C728 1.478 . S
C727 H721 0.930 . S
C727 C723 1.400 . S
C727 C726 1.385 . S
C728 C726 1.478 . S
C728 C730 1.381 . S
C728 C734 1.383 . S
C729 C725 1.495 . S
C729 H735 0.959 . S
C729 H736 0.961 . S
C729 H737 0.960 . S
C730 C728 1.381 . S
C730 C731 1.394 . S
C730 H738 0.930 . S
C731 C730 1.394 . S
C731 C732 1.383 . S
C731 H739 0.929 . S
C732 C731 1.383 . S
C732 C733 1.377 . S
C733 H717 0.930 . S
C733 C732 1.377 . S
C733 C734 1.379 . S
C734 H718 0.931 . S
C734 C728 1.383 . S
C734 C733 1.379 . S
H735 C729 0.959 . S
H736 C729 0.961 . S
H737 C729 0.960 . S
H738 C730 0.930 . S
H739 C731 0.929 . S
H740 C748 0.929 . S
H741 C750 0.930 . S
H742 C752 0.930 . S
H743 C755 0.929 . S
H744 C758 0.930 . S
H745 C760 0.960 . S
H746 C760 0.960 . S
H747 C760 0.960 . S
C748 H740 0.929 . S
C748 C749 1.377 . S
C748 C750 1.384 . S
C749 C748 1.377 . S
C749 C755 1.390 . S
C750 H741 0.930 . S
C750 C748 1.384 . S
C750 C751 1.372 . S
C751 C750 1.372 . S
C751 C752 1.400 . S
C751 C756 1.490 . S
C752 H742 0.930 . S
C752 C751 1.400 . S
C752 C755 1.386 . S
H753 C769 0.930 . S
H754 C770 0.931 . S
C755 H743 0.929 . S
C755 C749 1.390 . S
C755 C752 1.386 . S
C756 C751 1.490 . S
C756 C758 1.395 . S
C756 C759 1.403 . S
H757 C763 0.930 . S
C758 H744 0.930 . S
C758 C756 1.395 . S
C758 C761 1.403 . S
C759 C756 1.403 . S
C759 C760 1.524 . S
C759 C763 1.400 . S
C760 H745 0.960 . S
C760 H746 0.960 . S
C760 H747 0.960 . S
C760 C759 1.524 . S
C761 C758 1.403 . S
C761 C762 1.392 . S
C761 C765 1.495 . S
C762 C761 1.392 . S
C762 C763 1.385 . S
C762 C764 1.478 . S
C763 H757 0.930 . S
C763 C759 1.400 . S
C763 C762 1.385 . S
C764 C762 1.478 . S
C764 C766 1.381 . S
C764 C770 1.383 . S
C765 C761 1.495 . S
C765 H771 0.959 . S
C765 H772 0.961 . S
C765 H773 0.960 . S
C766 C764 1.381 . S
C766 C767 1.394 . S
C766 H774 0.930 . S
C767 C766 1.394 . S
C767 C768 1.383 . S
C767 H775 0.929 . S
C768 C767 1.383 . S
C768 C769 1.377 . S
C769 H753 0.930 . S
C769 C768 1.377 . S
C769 C770 1.379 . S
C770 H754 0.931 . S
C770 C764 1.383 . S
C770 C769 1.379 . S
H771 C765 0.959 . S
H772 C765 0.961 . S
H773 C765 0.960 . S
H774 C766 0.930 . S
H775 C767 0.929 . S
H776 C784 0.929 . S
H777 C786 0.930 . S
H778 C788 0.930 . S
H779 C791 0.929 . S
H780 C794 0.930 . S
H781 C796 0.960 . S
H782 C796 0.960 . S
H783 C796 0.960 . S
C784 H776 0.929 . S
C784 C785 1.377 . S
C784 C786 1.384 . S
C785 C784 1.377 . S
C785 C791 1.390 . S
C786 H777 0.930 . S
C786 C784 1.384 . S
C786 C787 1.372 . S
C787 C786 1.372 . S
C787 C788 1.400 . S
C787 C792 1.490 . S
C788 H778 0.930 . S
C788 C787 1.400 . S
C788 C791 1.386 . S
H789 C805 0.930 . S
H790 C806 0.931 . S
C791 H779 0.929 . S
C791 C785 1.390 . S
C791 C788 1.386 . S
C792 C787 1.490 . S
C792 C794 1.395 . S
C792 C795 1.403 . S
H793 C799 0.930 . S
C794 H780 0.930 . S
C794 C792 1.395 . S
C794 C797 1.403 . S
C795 C792 1.403 . S
C795 C796 1.524 . S
C795 C799 1.400 . S
C796 H781 0.960 . S
C796 H782 0.960 . S
C796 H783 0.960 . S
C796 C795 1.524 . S
C797 C794 1.403 . S
C797 C798 1.392 . S
C797 C801 1.495 . S
C798 C797 1.392 . S
C798 C799 1.385 . S
C798 C800 1.478 . S
C799 H793 0.930 . S
C799 C795 1.400 . S
C799 C798 1.385 . S
C800 C798 1.478 . S
C800 C802 1.381 . S
C800 C806 1.383 . S
C801 C797 1.495 . S
C801 H807 0.959 . S
C801 H808 0.961 . S
C801 H809 0.960 . S
C802 C800 1.381 . S
C802 C803 1.394 . S
C802 H810 0.930 . S
C803 C802 1.394 . S
C803 C804 1.383 . S
C803 H811 0.929 . S
C804 C803 1.383 . S
C804 C805 1.377 . S
C805 H789 0.930 . S
C805 C804 1.377 . S
C805 C806 1.379 . S
C806 H790 0.931 . S
C806 C800 1.383 . S
C806 C805 1.379 . S
H807 C801 0.959 . S
H808 C801 0.961 . S
H809 C801 0.960 . S
H810 C802 0.930 . S
H811 C803 0.929 . S
H812 C820 0.929 . S
H813 C822 0.930 . S
H814 C824 0.930 . S
H815 C827 0.929 . S
H816 C830 0.930 . S
H817 C832 0.960 . S
H818 C832 0.960 . S
H819 C832 0.960 . S
C820 H812 0.929 . S
C820 C821 1.377 . S
C820 C822 1.384 . S
C821 C820 1.377 . S
C821 C827 1.390 . S
C822 H813 0.930 . S
C822 C820 1.384 . S
C822 C823 1.372 . S
C823 C822 1.372 . S
C823 C824 1.400 . S
C823 C828 1.490 . S
C824 H814 0.930 . S
C824 C823 1.400 . S
C824 C827 1.386 . S
H825 C841 0.930 . S
H826 C842 0.931 . S
C827 H815 0.929 . S
C827 C821 1.390 . S
C827 C824 1.386 . S
C828 C823 1.490 . S
C828 C830 1.395 . S
C828 C831 1.403 . S
H829 C835 0.930 . S
C830 H816 0.930 . S
C830 C828 1.395 . S
C830 C833 1.403 . S
C831 C828 1.403 . S
C831 C832 1.524 . S
C831 C835 1.400 . S
C832 H817 0.960 . S
C832 H818 0.960 . S
C832 H819 0.960 . S
C832 C831 1.524 . S
C833 C830 1.403 . S
C833 C834 1.392 . S
C833 C837 1.495 . S
C834 C833 1.392 . S
C834 C835 1.385 . S
C834 C836 1.478 . S
C835 H829 0.930 . S
C835 C831 1.400 . S
C835 C834 1.385 . S
C836 C834 1.478 . S
C836 C838 1.381 . S
C836 C842 1.383 . S
C837 C833 1.495 . S
C837 H843 0.959 . S
C837 H844 0.961 . S
C837 H845 0.960 . S
C838 C836 1.381 . S
C838 C839 1.394 . S
C838 H846 0.930 . S
C839 C838 1.394 . S
C839 C840 1.383 . S
C839 H847 0.929 . S
C840 C839 1.383 . S
C840 C841 1.377 . S
C841 H825 0.930 . S
C841 C840 1.377 . S
C841 C842 1.379 . S
C842 H826 0.931 . S
C842 C836 1.383 . S
C842 C841 1.379 . S
H843 C837 0.959 . S
H844 C837 0.961 . S
H845 C837 0.960 . S
H846 C838 0.930 . S
H847 C839 0.929 . S
H848 C856 0.929 . S
H849 C858 0.930 . S
H850 C860 0.930 . S
H851 C863 0.929 . S
H852 C866 0.930 . S
H853 C868 0.960 . S
H854 C868 0.960 . S
H855 C868 0.960 . S
C856 H848 0.929 . S
C856 C857 1.377 . S
C856 C858 1.384 . S
C857 C856 1.377 . S
C857 C863 1.390 . S
C858 H849 0.930 . S
C858 C856 1.384 . S
C858 C859 1.372 . S
C859 C858 1.372 . S
C859 C860 1.400 . S
C859 C864 1.490 . S
C860 H850 0.930 . S
C860 C859 1.400 . S
C860 C863 1.386 . S
H861 C877 0.930 . S
H862 C878 0.931 . S
C863 H851 0.929 . S
C863 C857 1.390 . S
C863 C860 1.386 . S
C864 C859 1.490 . S
C864 C866 1.395 . S
C864 C867 1.403 . S
H865 C871 0.930 . S
C866 H852 0.930 . S
C866 C864 1.395 . S
C866 C869 1.403 . S
C867 C864 1.403 . S
C867 C868 1.524 . S
C867 C871 1.400 . S
C868 H853 0.960 . S
C868 H854 0.960 . S
C868 H855 0.960 . S
C868 C867 1.524 . S
C869 C866 1.403 . S
C869 C870 1.392 . S
C869 C873 1.495 . S
C870 C869 1.392 . S
C870 C871 1.385 . S
C870 C872 1.478 . S
C871 H865 0.930 . S
C871 C867 1.400 . S
C871 C870 1.385 . S
C872 C870 1.478 . S
C872 C874 1.381 . S
C872 C878 1.383 . S
C873 C869 1.495 . S
C873 H879 0.959 . S
C873 H880 0.961 . S
C873 H881 0.960 . S
C874 C872 1.381 . S
C874 C875 1.394 . S
C874 H882 0.930 . S
C875 C874 1.394 . S
C875 C876 1.383 . S
C875 H883 0.929 . S
C876 C875 1.383 . S
C876 C877 1.377 . S
C877 H861 0.930 . S
C877 C876 1.377 . S
C877 C878 1.379 . S
C878 H862 0.931 . S
C878 C872 1.383 . S
C878 C877 1.379 . S
H879 C873 0.959 . S
H880 C873 0.961 . S
H881 C873 0.960 . S
H882 C874 0.930 . S
H883 C875 0.929 . S
H884 C892 0.929 . S
H885 C894 0.930 . S
H886 C896 0.930 . S
H887 C899 0.929 . S
H888 C902 0.930 . S
H889 C904 0.960 . S
H890 C904 0.960 . S
H891 C904 0.960 . S
C892 H884 0.929 . S
C892 C893 1.377 . S
C892 C894 1.384 . S
C893 C892 1.377 . S
C893 C899 1.390 . S
C894 H885 0.930 . S
C894 C892 1.384 . S
C894 C895 1.372 . S
C895 C894 1.372 . S
C895 C896 1.400 . S
C895 C900 1.490 . S
C896 H886 0.930 . S
C896 C895 1.400 . S
C896 C899 1.386 . S
H897 C913 0.930 . S
H898 C914 0.931 . S
C899 H887 0.929 . S
C899 C893 1.390 . S
C899 C896 1.386 . S
C900 C895 1.490 . S
C900 C902 1.395 . S
C900 C903 1.403 . S
H901 C907 0.930 . S
C902 H888 0.930 . S
C902 C900 1.395 . S
C902 C905 1.403 . S
C903 C900 1.403 . S
C903 C904 1.524 . S
C903 C907 1.400 . S
C904 H889 0.960 . S
C904 H890 0.960 . S
C904 H891 0.960 . S
C904 C903 1.524 . S
C905 C902 1.403 . S
C905 C906 1.392 . S
C905 C909 1.495 . S
C906 C905 1.392 . S
C906 C907 1.385 . S
C906 C908 1.478 . S
C907 H901 0.930 . S
C907 C903 1.400 . S
C907 C906 1.385 . S
C908 C906 1.478 . S
C908 C910 1.381 . S
C908 C914 1.383 . S
C909 C905 1.495 . S
C909 H915 0.959 . S
C909 H916 0.961 . S
C909 H917 0.960 . S
C910 C908 1.381 . S
C910 C911 1.394 . S
C910 H918 0.930 . S
C911 C910 1.394 . S
C911 C912 1.383 . S
C911 H919 0.929 . S
C912 C911 1.383 . S
C912 C913 1.377 . S
C913 H897 0.930 . S
C913 C912 1.377 . S
C913 C914 1.379 . S
C914 H898 0.931 . S
C914 C908 1.383 . S
C914 C913 1.379 . S
H915 C909 0.959 . S
H916 C909 0.961 . S
H917 C909 0.960 . S
H918 C910 0.930 . S
H919 C911 0.929 . S
H920 C928 0.929 . S
H921 C930 0.930 . S
H922 C932 0.930 . S
H923 C935 0.929 . S
H924 C938 0.930 . S
H925 C940 0.960 . S
H926 C940 0.960 . S
H927 C940 0.960 . S
C928 H920 0.929 . S
C928 C929 1.377 . S
C928 C930 1.384 . S
C929 C928 1.377 . S
C929 C935 1.390 . S
C930 H921 0.930 . S
C930 C928 1.384 . S
C930 C931 1.372 . S
C931 C930 1.372 . S
C931 C932 1.400 . S
C931 C936 1.490 . S
C932 H922 0.930 . S
C932 C931 1.400 . S
C932 C935 1.386 . S
H933 C949 0.930 . S
H934 C950 0.931 . S
C935 H923 0.929 . S
C935 C929 1.390 . S
C935 C932 1.386 . S
C936 C931 1.490 . S
C936 C938 1.395 . S
C936 C939 1.403 . S
H937 C943 0.930 . S
C938 H924 0.930 . S
C938 C936 1.395 . S
C938 C941 1.403 . S
C939 C936 1.403 . S
C939 C940 1.524 . S
C939 C943 1.400 . S
C940 H925 0.960 . S
C940 H926 0.960 . S
C940 H927 0.960 . S
C940 C939 1.524 . S
C941 C938 1.403 . S
C941 C942 1.392 . S
C941 C945 1.495 . S
C942 C941 1.392 . S
C942 C943 1.385 . S
C942 C944 1.478 . S
C943 H937 0.930 . S
C943 C939 1.400 . S
C943 C942 1.385 . S
C944 C942 1.478 . S
C944 C946 1.381 . S
C944 C950 1.383 . S
C945 C941 1.495 . S
C945 H951 0.959 . S
C945 H952 0.961 . S
C945 H953 0.960 . S
C946 C944 1.381 . S
C946 C947 1.394 . S
C946 H954 0.930 . S
C947 C946 1.394 . S
C947 C948 1.383 . S
C947 H955 0.929 . S
C948 C947 1.383 . S
C948 C949 1.377 . S
C949 H933 0.930 . S
C949 C948 1.377 . S
C949 C950 1.379 . S
C950 H934 0.931 . S
C950 C944 1.383 . S
C950 C949 1.379 . S
H951 C945 0.959 . S
H952 C945 0.961 . S
H953 C945 0.960 . S
H954 C946 0.930 . S
H955 C947 0.929 . S
H956 C964 0.929 . S
H957 C966 0.930 . S
H958 C968 0.930 . S
H959 C971 0.929 . S
H960 C974 0.930 . S
H961 C976 0.960 . S
H962 C976 0.960 . S
H963 C976 0.960 . S
C964 H956 0.929 . S
C964 C965 1.377 . S
C964 C966 1.384 . S
C965 C964 1.377 . S
C965 C971 1.390 . S
C966 H957 0.930 . S
C966 C964 1.384 . S
C966 C967 1.372 . S
C967 C966 1.372 . S
C967 C968 1.400 . S
C967 C972 1.490 . S
C968 H958 0.930 . S
C968 C967 1.400 . S
C968 C971 1.386 . S
H969 C985 0.930 . S
H970 C986 0.931 . S
C971 H959 0.929 . S
C971 C965 1.390 . S
C971 C968 1.386 . S
C972 C967 1.490 . S
C972 C974 1.395 . S
C972 C975 1.403 . S
H973 C979 0.930 . S
C974 H960 0.930 . S
C974 C972 1.395 . S
C974 C977 1.403 . S
C975 C972 1.403 . S
C975 C976 1.524 . S
C975 C979 1.400 . S
C976 H961 0.960 . S
C976 H962 0.960 . S
C976 H963 0.960 . S
C976 C975 1.524 . S
C977 C974 1.403 . S
C977 C978 1.392 . S
C977 C981 1.495 . S
C978 C977 1.392 . S
C978 C979 1.385 . S
C978 C980 1.478 . S
C979 H973 0.930 . S
C979 C975 1.400 . S
C979 C978 1.385 . S
C980 C978 1.478 . S
C980 C982 1.381 . S
C980 C986 1.383 . S
C981 C977 1.495 . S
C981 H987 0.959 . S
C981 H988 0.961 . S
C981 H989 0.960 . S
C982 C980 1.381 . S
C982 C983 1.394 . S
C982 H990 0.930 . S
C983 C982 1.394 . S
C983 C984 1.383 . S
C983 H991 0.929 . S
C984 C983 1.383 . S
C984 C985 1.377 . S
C985 H969 0.930 . S
C985 C984 1.377 . S
C985 C986 1.379 . S
C986 H970 0.931 . S
C986 C980 1.383 . S
C986 C985 1.379 . S
H987 C981 0.959 . S
H988 C981 0.961 . S
H989 C981 0.960 . S
H990 C982 0.930 . S
H991 C983 0.929 . S
H992 C1000 0.929 . S
H993 C1002 0.930 . S
H994 C1004 0.930 . S
H995 C1007 0.929 . S
H996 C1010 0.930 . S
H997 C1012 0.960 . S
H998 C1012 0.960 . S
H999 C1012 0.960 . S
C1000 H992 0.929 . S
C1000 C1001 1.377 . S
C1000 C1002 1.384 . S
C1001 C1000 1.377 . S
C1001 C1007 1.390 . S
C1002 H993 0.930 . S
C1002 C1000 1.384 . S
C1002 C1003 1.372 . S
C1003 C1002 1.372 . S
C1003 C1004 1.400 . S
C1003 C1008 1.490 . S
C1004 H994 0.930 . S
C1004 C1003 1.400 . S
C1004 C1007 1.386 . S
H1005 C1021 0.930 . S
H1006 C1022 0.931 . S
C1007 H995 0.929 . S
C1007 C1001 1.390 . S
C1007 C1004 1.386 . S
C1008 C1003 1.490 . S
C1008 C1010 1.395 . S
C1008 C1011 1.403 . S
H1009 C1015 0.930 . S
C1010 H996 0.930 . S
C1010 C1008 1.395 . S
C1010 C1013 1.403 . S
C1011 C1008 1.403 . S
C1011 C1012 1.524 . S
C1011 C1015 1.400 . S
C1012 H997 0.960 . S
C1012 H998 0.960 . S
C1012 H999 0.960 . S
C1012 C1011 1.524 . S
C1013 C1010 1.403 . S
C1013 C1014 1.392 . S
C1013 C1017 1.495 . S
C1014 C1013 1.392 . S
C1014 C1015 1.385 . S
C1014 C1016 1.478 . S
C1015 H1009 0.930 . S
C1015 C1011 1.400 . S
C1015 C1014 1.385 . S
C1016 C1014 1.478 . S
C1016 C1018 1.381 . S
C1016 C1022 1.383 . S
C1017 C1013 1.495 . S
C1017 H1023 0.959 . S
C1017 H1024 0.961 . S
C1017 H1025 0.960 . S
C1018 C1016 1.381 . S
C1018 C1019 1.394 . S
C1018 H1026 0.930 . S
C1019 C1018 1.394 . S
C1019 C1020 1.383 . S
C1019 H1027 0.929 . S
C1020 C1019 1.383 . S
C1020 C1021 1.377 . S
C1021 H1005 0.930 . S
C1021 C1020 1.377 . S
C1021 C1022 1.379 . S
C1022 H1006 0.931 . S
C1022 C1016 1.383 . S
C1022 C1021 1.379 . S
H1023 C1017 0.959 . S
H1024 C1017 0.961 . S
H1025 C1017 0.960 . S
H1026 C1018 0.930 . S
H1027 C1019 0.929 . S
H1028 C1036 0.929 . S
H1029 C1038 0.930 . S
H1030 C1040 0.930 . S
H1031 C1043 0.929 . S
H1032 C1046 0.930 . S
H1033 C1048 0.960 . S
H1034 C1048 0.960 . S
H1035 C1048 0.960 . S
C1036 H1028 0.929 . S
C1036 C1037 1.377 . S
C1036 C1038 1.384 . S
C1037 C1036 1.377 . S
C1037 C1043 1.390 . S
C1038 H1029 0.930 . S
C1038 C1036 1.384 . S
C1038 C1039 1.372 . S
C1039 C1038 1.372 . S
C1039 C1040 1.400 . S
C1039 C1044 1.490 . S
C1040 H1030 0.930 . S
C1040 C1039 1.400 . S
C1040 C1043 1.386 . S
H1041 C1057 0.930 . S
H1042 C1058 0.931 . S
C1043 H1031 0.929 . S
C1043 C1037 1.390 . S
C1043 C1040 1.386 . S
C1044 C1039 1.490 . S
C1044 C1046 1.395 . S
C1044 C1047 1.403 . S
H1045 C1051 0.930 . S
C1046 H1032 0.930 . S
C1046 C1044 1.395 . S
C1046 C1049 1.403 . S
C1047 C1044 1.403 . S
C1047 C1048 1.524 . S
C1047 C1051 1.400 . S
C1048 H1033 0.960 . S
C1048 H1034 0.960 . S
C1048 H1035 0.960 . S
C1048 C1047 1.524 . S
C1049 C1046 1.403 . S
C1049 C1050 1.392 . S
C1049 C1053 1.495 . S
C1050 C1049 1.392 . S
C1050 C1051 1.385 . S
C1050 C1052 1.478 . S
C1051 H1045 0.930 . S
C1051 C1047 1.400 . S
C1051 C1050 1.385 . S
C1052 C1050 1.478 . S
C1052 C1054 1.381 . S
C1052 C1058 1.383 . S
C1053 C1049 1.495 . S
C1053 H1059 0.959 . S
C1053 H1060 0.961 . S
C1053 H1061 0.960 . S
C1054 C1052 1.381 . S
C1054 C1055 1.394 . S
C1054 H1062 0.930 . S
C1055 C1054 1.394 . S
C1055 C1056 1.383 . S
C1055 H1063 0.929 . S
C1056 C1055 1.383 . S
C1056 C1057 1.377 . S
C1057 H1041 0.930 . S
C1057 C1056 1.377 . S
C1057 C1058 1.379 . S
C1058 H1042 0.931 . S
C1058 C1052 1.383 . S
C1058 C1057 1.379 . S
H1059 C1053 0.959 . S
H1060 C1053 0.961 . S
H1061 C1053 0.960 . S
H1062 C1054 0.930 . S
H1063 C1055 0.929 . S
C209 C0 1.493 . S
C228 C91 1.489 . S
C245 C22 1.494 . S
C264 C131 1.493 . S
C281 C49 1.494 . S
C300 C98 1.493 . S
C317 C134 1.495 . S
C336 C19 1.483 . S
C353 C41 1.494 . S
C372 C50 1.493 . S
C389 C31 1.493 . S
C408 C122 1.493 . S
C425 C99 1.495 . S
C444 C48 1.489 . S
C461 C119 1.494 . S
C480 C34 1.499 . S
C497 C166 1.493 . S
C516 C17 1.488 . S
C533 C151 1.495 . S
C552 C18 1.488 . S
C569 C168 1.494 . S
C588 C1 1.488 . S
C605 C16 1.494 . S
C624 C167 1.492 . S
C641 C181 1.494 . S
C660 C72 1.498 . S
C677 C69 1.495 . S
C696 C184 1.491 . S
C713 C81 1.495 . S
C732 C172 1.486 . S
C749 C169 1.494 . S
C768 C84 1.493 . S
C785 C116 1.495 . S
C804 C67 1.492 . S
C821 C68 1.495 . S
C840 C101 1.486 . S
C857 C51 1.493 . S
C876 C118 1.495 . S
C893 C117 1.495 . S
C912 C66 1.490 . S
C929 C191 1.494 . S
C948 C100 1.490 . S
C965 C149 1.495 . S
C984 C198 1.494 . S
C1001 C150 1.495 . S
C1020 C141 1.490 . S
C1037 C148 1.493 . S
C1056 C199 1.486 . S
