# Generated by pormake.
# Topology npo, (4)-cn, num edge types: 1
# Building blocks:
#     Node 0, Type 0, BuildingBlock: NAHDIM_clean_sbu_0, # of connection points: 4
#     Node 1, Type 0, BuildingBlock: NAHDIM_clean_sbu_0, # of connection points: 4
#     Node 2, Type 0, BuildingBlock: NAHDIM_clean_sbu_0, # of connection points: 4
#     Node 3, Type 0, BuildingBlock: NAHDIM_clean_sbu_0, # of connection points: 4
#     Node 4, Type 0, BuildingBlock: NAHDIM_clean_sbu_0, # of connection points: 4
#     Node 5, Type 0, BuildingBlock: NAHDIM_clean_sbu_0, # of connection points: 4
#     Edge 6, Type (0, 0), BuildingBlock: MIFKUJ_clean_linker_0, # of connection points: 2
#     Edge 7, Type (0, 0), BuildingBlock: MIFKUJ_clean_linker_0, # of connection points: 2
#     Edge 8, Type (0, 0), BuildingBlock: MIFKUJ_clean_linker_0, # of connection points: 2
#     Edge 9, Type (0, 0), BuildingBlock: MIFKUJ_clean_linker_0, # of connection points: 2
#     Edge 10, Type (0, 0), BuildingBlock: MIFKUJ_clean_linker_0, # of connection points: 2
#     Edge 11, Type (0, 0), BuildingBlock: MIFKUJ_clean_linker_0, # of connection points: 2
#     Edge 12, Type (0, 0), BuildingBlock: MIFKUJ_clean_linker_0, # of connection points: 2
#     Edge 13, Type (0, 0), BuildingBlock: MIFKUJ_clean_linker_0, # of connection points: 2
#     Edge 14, Type (0, 0), BuildingBlock: MIFKUJ_clean_linker_0, # of connection points: 2
#     Edge 15, Type (0, 0), BuildingBlock: MIFKUJ_clean_linker_0, # of connection points: 2
#     Edge 16, Type (0, 0), BuildingBlock: MIFKUJ_clean_linker_0, # of connection points: 2
#     Edge 17, Type (0, 0), BuildingBlock: MIFKUJ_clean_linker_0, # of connection points: 2
# Relax obj value: 0.249
# Max RMSD: 0.223
# Mean RMSD: 0.223
data_MOF--net-npo--node1-NAHDIM_clean_sbu_0--edge1-MIFKUJ_clean_linker_0
_symmetry_space_group_name_H-M    P1
_symmetry_Int_Tables_number       1
_symmetry_cell_setting            triclinic
loop_
_symmetry_equiv_pos_as_xyz
'x, y, z'
_cell_length_a     53.173623
_cell_length_b     55.841043
_cell_length_c     32.23952
_cell_angle_alpha  92.042871
_cell_angle_beta   89.930252
_cell_angle_gamma 118.69499
loop_
_atom_site_label
_atom_site_type_symbol
_atom_site_fract_x
_atom_site_fract_y
_atom_site_fract_z
_atom_type_partial_charge
C0 C 0.50051 0.06979 0.32443 0.0
O1 O 0.51344 0.06164 0.29709 0.0
O2 O 0.55571 0.12064 0.26569 0.0
Zn3 Zn 0.51305 0.10664 0.26243 0.0
O4 O 0.49603 0.07735 0.21743 0.0
C5 C 0.52425 0.15727 0.22984 0.0
O6 O 0.54565 0.15471 0.21406 0.0
O7 O 0.49695 0.09008 0.31652 0.0
C8 C 0.49219 0.08179 0.18026 0.0
O9 O 0.49806 0.10653 0.1704 0.0
C10 C 0.57014 0.11715 0.23689 0.0
O11 O 0.55688 0.10278 0.20308 0.0
O12 O 0.50616 0.13843 0.2519 0.0
C13 C 0.43673 0.51292 0.63341 0.0
O14 O 0.42771 0.4944 0.66178 0.0
O15 O 0.39224 0.53458 0.70937 0.0
Zn16 Zn 0.43408 0.54789 0.6996 0.0
O17 O 0.45139 0.53489 0.74246 0.0
C18 C 0.46119 0.60145 0.73894 0.0
O19 O 0.45622 0.58744 0.77268 0.0
O20 O 0.44036 0.53666 0.64278 0.0
C21 C 0.47829 0.54367 0.74235 0.0
O22 O 0.49352 0.55961 0.71273 0.0
C23 C 0.38143 0.52784 0.74502 0.0
O24 O 0.39763 0.52799 0.77587 0.0
O25 O 0.45376 0.58876 0.70383 0.0
C26 C 0.90251 0.40546 0.36602 0.0
O27 O 0.87568 0.40032 0.36448 0.0
O28 O 0.87066 0.41419 0.27665 0.0
Zn29 Zn 0.89245 0.3931 0.27909 0.0
O30 O 0.92054 0.4049 0.23281 0.0
C31 C 0.84963 0.34215 0.24168 0.0
O32 O 0.85509 0.35684 0.20862 0.0
O33 O 0.91416 0.40285 0.33301 0.0
C34 C 0.92613 0.38988 0.20823 0.0
O35 O 0.91328 0.36333 0.21245 0.0
C36 C 0.86604 0.42229 0.24256 0.0
O37 O 0.876 0.41706 0.20807 0.0
O38 O 0.86377 0.35315 0.2751 0.0
C39 C 0.4455 0.93182 0.70501 0.0
O40 O 0.43359 0.93602 0.73824 0.0
O41 O 0.45471 0.86045 0.74339 0.0
Zn42 Zn 0.44283 0.8891 0.75304 0.0
O43 O 0.46157 0.91193 0.80409 0.0
C44 C 0.38255 0.86187 0.73143 0.0
O45 O 0.39209 0.86655 0.69336 0.0
O46 O 0.45197 0.91268 0.70433 0.0
C47 C 0.45829 0.90058 0.83856 0.0
O48 O 0.4439 0.8738 0.83941 0.0
C49 C 0.47883 0.86279 0.75383 0.0
O50 O 0.49848 0.88585 0.77134 0.0
O51 O 0.40039 0.87 0.76166 0.0
C52 C 0.60256 0.50919 0.11419 0.0
O53 O 0.62969 0.5157 0.11857 0.0
O54 O 0.6386 0.49815 0.19791 0.0
Zn55 Zn 0.59606 0.48382 0.19339 0.0
O56 O 0.58032 0.49339 0.24394 0.0
C57 C 0.58367 0.43114 0.2177 0.0
O58 O 0.6013 0.44604 0.24807 0.0
O59 O 0.58507 0.49632 0.14243 0.0
C60 C 0.55327 0.48023 0.24772 0.0
O61 O 0.53765 0.46265 0.21796 0.0
C62 C 0.65266 0.50542 0.23206 0.0
O63 O 0.63958 0.50609 0.26633 0.0
O64 O 0.57785 0.44294 0.18922 0.0
C65 C 0.05061 0.5364 0.84435 0.0
O66 O 0.04286 0.52466 0.80713 0.0
O67 O 0.12907 0.56889 0.79918 0.0
Zn68 Zn 0.09629 0.57729 0.79878 0.0
O69 O 0.07283 0.56079 0.74648 0.0
C70 C 0.11531 0.63159 0.76979 0.0
O71 O 0.10366 0.61827 0.73459 0.0
O72 O 0.0724 0.55999 0.84842 0.0
C73 C 0.08378 0.55634 0.71404 0.0
O74 O 0.11134 0.56407 0.71393 0.0
C75 C 0.1248 0.54448 0.79992 0.0
O76 O 0.09838 0.52429 0.80045 0.0
O77 O 0.11336 0.6182 0.80182 0.0
H78 H 0.48195 0.16906 0.25505 0.0
H79 H 0.4807 0.21196 0.24709 0.0
H80 H 0.56133 0.24508 0.18356 0.0
H81 H 0.56222 0.20229 0.19008 0.0
H82 H 0.51477 0.26016 0.27821 0.0
H83 H 0.56858 0.29064 0.11602 0.0
H84 H 0.56715 0.26808 0.04825 0.0
H85 H 0.48368 0.20244 0.0744 0.0
H86 H 0.4844 0.22477 0.14206 0.0
H87 H 0.59845 0.4007 0.266 0.0
H88 H 0.57788 0.35118 0.2643 0.0
H89 H 0.51878 0.34393 0.16681 0.0
H90 H 0.53998 0.39375 0.16744 0.0
H91 H 0.53973 0.31166 0.14879 0.0
H92 H 0.49539 0.32578 0.26673 0.0
H93 H 0.49151 0.34681 0.33329 0.0
H94 H 0.54544 0.32017 0.39284 0.0
H95 H 0.55001 0.29932 0.32652 0.0
C96 C 0.49919 0.18539 0.2389 0.0
C97 C 0.52222 0.18233 0.22328 0.0
C98 C 0.49846 0.20988 0.23441 0.0
C99 C 0.52072 0.23162 0.21425 0.0
C100 C 0.54354 0.2284 0.19832 0.0
C101 C 0.54415 0.20395 0.20243 0.0
C102 C 0.5216 0.2585 0.21251 0.0
C103 C 0.5199 0.27132 0.24983 0.0
C104 C 0.52734 0.27276 0.17524 0.0
C105 C 0.52663 0.25935 0.13428 0.0
C106 C 0.54983 0.27149 0.10723 0.0
C107 C 0.54917 0.25871 0.06884 0.0
C108 C 0.52536 0.23382 0.05706 0.0
C109 C 0.50214 0.22168 0.08361 0.0
C110 C 0.50269 0.23437 0.12201 0.0
C111 C 0.581 0.3886 0.2443 0.0
C112 C 0.5708 0.40111 0.2169 0.0
C113 C 0.5691 0.36025 0.24356 0.0
C114 C 0.54639 0.34379 0.21599 0.0
C115 C 0.53618 0.35623 0.18848 0.0
C116 C 0.54831 0.38467 0.18889 0.0
C117 C 0.53441 0.31371 0.21485 0.0
C118 C 0.534 0.30032 0.177 0.0
C119 C 0.52587 0.29867 0.25141 0.0
C120 C 0.52314 0.31108 0.29154 0.0
C121 C 0.50657 0.32455 0.29396 0.0
C122 C 0.50423 0.33642 0.33166 0.0
C123 C 0.51824 0.33485 0.36726 0.0
C124 C 0.53459 0.32136 0.36524 0.0
C125 C 0.53702 0.30947 0.3276 0.0
H126 H 0.51641 0.34406 0.39642 0.0
H127 H 0.5249 0.22396 0.02734 0.0
H128 H 0.35049 0.51029 0.8159 0.0
H129 H 0.30311 0.50556 0.82986 0.0
H130 H 0.29891 0.53041 0.70596 0.0
H131 H 0.3457 0.53441 0.69144 0.0
H132 H 0.28728 0.54297 0.83315 0.0
H133 H 0.23164 0.50381 0.67078 0.0
H134 H 0.23038 0.47323 0.61277 0.0
H135 H 0.25528 0.42964 0.69595 0.0
H136 H 0.25631 0.45971 0.75457 0.0
H137 H 0.18178 0.5815 0.79693 0.0
H138 H 0.22211 0.57218 0.79325 0.0
H139 H 0.16385 0.48568 0.79713 0.0
H140 H 0.12322 0.49479 0.80024 0.0
H141 H 0.20256 0.49586 0.73842 0.0
H142 H 0.20467 0.51966 0.88159 0.0
H143 H 0.20421 0.5472 0.94279 0.0
H144 H 0.28304 0.61483 0.90489 0.0
H145 H 0.28377 0.58782 0.84311 0.0
C146 C 0.33927 0.51435 0.79144 0.0
C147 C 0.35185 0.52271 0.75255 0.0
C148 C 0.31223 0.51171 0.79951 0.0
C149 C 0.29731 0.51738 0.76886 0.0
C150 C 0.30969 0.52534 0.72983 0.0
C151 C 0.33656 0.52776 0.72163 0.0
C152 C 0.26969 0.51677 0.7783 0.0
C153 C 0.26869 0.53248 0.81261 0.0
C154 C 0.24519 0.50261 0.75204 0.0
C155 C 0.24423 0.48416 0.71704 0.0
C156 C 0.23668 0.4876 0.67675 0.0
C157 C 0.23605 0.47038 0.64374 0.0
C158 C 0.24281 0.44955 0.65065 0.0
C159 C 0.25014 0.44584 0.69062 0.0
C160 C 0.25079 0.463 0.72374 0.0
C161 C 0.1775 0.56048 0.79719 0.0
C162 C 0.14928 0.53888 0.7989 0.0
C163 C 0.20061 0.5552 0.79528 0.0
C164 C 0.19599 0.52825 0.79539 0.0
C165 C 0.16787 0.50663 0.7971 0.0
C166 C 0.1447 0.51189 0.79896 0.0
C167 C 0.22059 0.52278 0.79237 0.0
C168 C 0.22103 0.506 0.75926 0.0
C169 C 0.24434 0.53545 0.82024 0.0
C170 C 0.24417 0.55175 0.85755 0.0
C171 C 0.22182 0.54046 0.88615 0.0
C172 C 0.22152 0.55597 0.92097 0.0
C173 C 0.24356 0.58276 0.92768 0.0
C174 C 0.26598 0.59407 0.89964 0.0
C175 C 0.26637 0.57866 0.86474 0.0
H176 H 0.24329 0.59474 0.95465 0.0
H177 H 0.24234 0.43625 0.62505 0.0
H178 H 0.60416 0.14196 0.3051 0.0
H179 H 0.65524 0.17482 0.30637 0.0
H180 H 0.65846 0.16224 0.17407 0.0
H181 H 0.60742 0.12867 0.17271 0.0
H182 H 0.70816 0.1719 0.21152 0.0
H183 H 0.64817 0.21351 0.2102 0.0
H184 H 0.60892 0.22222 0.233 0.0
H185 H 0.64983 0.2509 0.35274 0.0
H186 H 0.68918 0.24199 0.33083 0.0
H187 H 0.82044 0.3095 0.17425 0.0
H188 H 0.77626 0.26554 0.17435 0.0
H189 H 0.77889 0.26821 0.30816 0.0
H190 H 0.82321 0.31185 0.30844 0.0
H191 H 0.72719 0.26282 0.26907 0.0
H192 H 0.79005 0.2229 0.2636 0.0
H193 H 0.82888 0.21567 0.23444 0.0
H194 H 0.78209 0.18633 0.11883 0.0
H195 H 0.74315 0.19378 0.14712 0.0
C196 C 0.61586 0.14577 0.2764 0.0
C197 C 0.60171 0.13312 0.2387 0.0
C198 C 0.64502 0.16457 0.27716 0.0
C199 C 0.66043 0.17144 0.24016 0.0
C200 C 0.6469 0.15733 0.20293 0.0
C201 C 0.61772 0.13821 0.20221 0.0
C202 C 0.68961 0.19519 0.23985 0.0
C203 C 0.71233 0.19183 0.22381 0.0
C204 C 0.69497 0.22121 0.25577 0.0
C205 C 0.67147 0.2268 0.26902 0.0
C206 C 0.64869 0.22148 0.2415 0.0
C207 C 0.62644 0.22647 0.25424 0.0
C208 C 0.62683 0.23702 0.29433 0.0
C209 C 0.64954 0.24268 0.32172 0.0
C210 C 0.67183 0.23768 0.30915 0.0
C211 C 0.81187 0.30048 0.20366 0.0
C212 C 0.82516 0.31419 0.24134 0.0
C213 C 0.78674 0.27536 0.20364 0.0
C214 C 0.77445 0.26376 0.24127 0.0
C215 C 0.78818 0.2769 0.27885 0.0
C216 C 0.8135 0.30179 0.27891 0.0
C217 C 0.74582 0.23941 0.24157 0.0
C218 C 0.72309 0.24281 0.25721 0.0
C219 C 0.74046 0.21372 0.22436 0.0
C220 C 0.76381 0.20916 0.20736 0.0
C221 C 0.78816 0.21516 0.23183 0.0
C222 C 0.81016 0.21096 0.21549 0.0
C223 C 0.80799 0.20062 0.17477 0.0
C224 C 0.78376 0.19438 0.15035 0.0
C225 C 0.76171 0.19856 0.16654 0.0
H226 H 0.82504 0.19738 0.16218 0.0
H227 H 0.60958 0.24087 0.30413 0.0
H228 H 0.52506 0.85779 0.78059 0.0
H229 H 0.52974 0.81614 0.77878 0.0
H230 H 0.44764 0.77208 0.71561 0.0
H231 H 0.44271 0.81321 0.71741 0.0
H232 H 0.45087 0.74614 0.78286 0.0
H233 H 0.50806 0.78896 0.66402 0.0
H234 H 0.5477 0.8259 0.62744 0.0
H235 H 0.6089 0.8202 0.70757 0.0
H236 H 0.56957 0.78345 0.74501 0.0
H237 H 0.47352 0.63617 0.67529 0.0
H238 H 0.48551 0.68422 0.68035 0.0
H239 H 0.48687 0.68258 0.81395 0.0
H240 H 0.47458 0.63437 0.80928 0.0
H241 H 0.52776 0.73296 0.71622 0.0
H242 H 0.44922 0.7143 0.84905 0.0
H243 H 0.40714 0.67624 0.87997 0.0
H244 H 0.38462 0.63232 0.76199 0.0
H245 H 0.42631 0.67027 0.73032 0.0
C246 C 0.50818 0.83929 0.76591 0.0
C247 C 0.48341 0.83874 0.74946 0.0
C248 C 0.51092 0.81556 0.76486 0.0
C249 C 0.48896 0.79106 0.74723 0.0
C250 C 0.46472 0.79076 0.72963 0.0
C251 C 0.46198 0.81433 0.73063 0.0
C252 C 0.49016 0.76521 0.74882 0.0
C253 C 0.46784 0.74336 0.76859 0.0
C254 C 0.51223 0.7616 0.73006 0.0
C255 C 0.53587 0.7837 0.70763 0.0
C256 C 0.52996 0.79576 0.6741 0.0
C257 C 0.55237 0.81662 0.65315 0.0
C258 C 0.5808 0.82545 0.66526 0.0
C259 C 0.58687 0.81338 0.69828 0.0
C260 C 0.56453 0.79252 0.71936 0.0
C261 C 0.47681 0.64611 0.70578 0.0
C262 C 0.47257 0.63134 0.74191 0.0
C263 C 0.48389 0.67364 0.70858 0.0
C264 C 0.48674 0.68679 0.7475 0.0
C265 C 0.4845 0.67265 0.78363 0.0
C266 C 0.47741 0.6451 0.78087 0.0
C267 C 0.48838 0.71398 0.75003 0.0
C268 C 0.51116 0.736 0.73116 0.0
C269 C 0.46644 0.71773 0.76896 0.0
C270 C 0.44107 0.69496 0.78751 0.0
C271 C 0.43523 0.69654 0.82973 0.0
C272 C 0.41145 0.675 0.84737 0.0
C273 C 0.39328 0.65183 0.823 0.0
C274 C 0.39877 0.65022 0.78088 0.0
C275 C 0.42248 0.67173 0.76308 0.0
H276 H 0.37491 0.63516 0.83672 0.0
H277 H 0.59813 0.84159 0.64899 0.0
H278 H 0.68604 0.50649 0.16708 0.0
H279 H 0.72797 0.4996 0.16954 0.0
H280 H 0.72574 0.50071 0.30329 0.0
H281 H 0.68383 0.50788 0.30121 0.0
H282 H 0.78168 0.52448 0.27308 0.0
H283 H 0.6926 0.44178 0.25449 0.0
H284 H 0.64541 0.41147 0.22173 0.0
H285 H 0.68581 0.41281 0.1058 0.0
H286 H 0.73327 0.44354 0.13774 0.0
H287 H 0.84533 0.4393 0.30846 0.0
H288 H 0.81419 0.46023 0.30636 0.0
H289 H 0.81591 0.45791 0.17256 0.0
H290 H 0.84701 0.43692 0.17428 0.0
H291 H 0.76138 0.4363 0.2028 0.0
H292 H 0.85189 0.51772 0.2258 0.0
H293 H 0.89809 0.54715 0.26185 0.0
H294 H 0.85392 0.5464 0.37378 0.0
H295 H 0.80745 0.51664 0.33856 0.0
C296 C 0.69482 0.5059 0.19709 0.0
C297 C 0.6813 0.50724 0.23395 0.0
C298 C 0.71878 0.50195 0.19841 0.0
C299 C 0.72952 0.49909 0.23656 0.0
C300 C 0.71764 0.50275 0.27355 0.0
C301 C 0.69366 0.50679 0.27227 0.0
C302 C 0.7508 0.48919 0.23747 0.0
C303 C 0.77724 0.50513 0.25803 0.0
C304 C 0.74492 0.46398 0.21761 0.0
C305 C 0.71646 0.4452 0.19839 0.0
C306 C 0.69141 0.43579 0.22193 0.0
C307 C 0.66462 0.41851 0.20352 0.0
C308 C 0.6626 0.41028 0.16168 0.0
C309 C 0.6874 0.41924 0.13819 0.0
C310 C 0.71426 0.43658 0.15644 0.0
C311 C 0.83927 0.44343 0.27857 0.0
C312 C 0.84856 0.43636 0.24151 0.0
C313 C 0.8216 0.45552 0.27746 0.0
C314 C 0.81292 0.46077 0.23931 0.0
C315 C 0.82244 0.45406 0.20231 0.0
C316 C 0.84023 0.4421 0.20338 0.0
C317 C 0.79254 0.47175 0.23793 0.0
C318 C 0.76604 0.45582 0.21752 0.0
C319 C 0.79828 0.49675 0.25843 0.0
C320 C 0.8262 0.51474 0.27963 0.0
C321 C 0.85203 0.52364 0.2582 0.0
C322 C 0.87827 0.54043 0.27847 0.0
C323 C 0.87894 0.54859 0.32011 0.0
C324 C 0.85337 0.54004 0.34154 0.0
C325 C 0.82707 0.52324 0.32142 0.0
H326 H 0.89927 0.56158 0.33575 0.0
H327 H 0.64183 0.3969 0.14749 0.0
H328 H 0.33887 0.83731 0.67391 0.0
H329 H 0.28868 0.8051 0.68666 0.0
H330 H 0.30589 0.81627 0.81868 0.0
H331 H 0.35617 0.84823 0.80625 0.0
H332 H 0.28072 0.76359 0.79426 0.0
H333 H 0.26339 0.83877 0.7735 0.0
H334 H 0.26613 0.87805 0.73718 0.0
H335 H 0.22099 0.82544 0.63196 0.0
H336 H 0.21833 0.78589 0.66739 0.0
H337 H 0.14119 0.66592 0.83729 0.0
H338 H 0.18148 0.71228 0.83673 0.0
H339 H 0.17557 0.71043 0.70311 0.0
H340 H 0.13485 0.6644 0.70341 0.0
H341 H 0.19356 0.76173 0.73546 0.0
H342 H 0.2179 0.68942 0.74937 0.0
H343 H 0.21617 0.64934 0.78188 0.0
H344 H 0.24974 0.69634 0.89601 0.0
H345 H 0.25125 0.7366 0.8643 0.0
C346 C 0.33189 0.83326 0.70569 0.0
C347 C 0.35157 0.84509 0.73905 0.0
C348 C 0.30314 0.81497 0.71293 0.0
C349 C 0.29353 0.80839 0.75364 0.0
C350 C 0.31288 0.82108 0.78704 0.0
C351 C 0.34161 0.83932 0.77984 0.0
C352 C 0.26423 0.78609 0.76113 0.0
C353 C 0.26161 0.76351 0.78229 0.0
C354 C 0.23942 0.78565 0.74437 0.0
C355 C 0.24083 0.80938 0.72303 0.0
C356 C 0.25422 0.8356 0.74249 0.0
C357 C 0.25573 0.85791 0.72208 0.0
C358 C 0.24378 0.85425 0.68226 0.0
C359 C 0.23024 0.82825 0.66281 0.0
C360 C 0.22869 0.80587 0.68307 0.0
C361 C 0.14799 0.67563 0.80786 0.0
C362 C 0.13523 0.66129 0.77033 0.0
C363 C 0.17102 0.70212 0.8076 0.0
C364 C 0.18192 0.71449 0.76981 0.0
C365 C 0.16758 0.70119 0.73259 0.0
C366 C 0.14436 0.6748 0.73284 0.0
C367 C 0.21022 0.73937 0.76852 0.0
C368 C 0.21267 0.76221 0.74824 0.0
C369 C 0.23506 0.74002 0.78562 0.0
C370 C 0.23436 0.7159 0.80464 0.0
C371 C 0.22471 0.69113 0.78149 0.0
C372 C 0.22379 0.6684 0.79975 0.0
C373 C 0.23276 0.67027 0.84102 0.0
C374 C 0.24274 0.6949 0.86407 0.0
C375 C 0.24363 0.71769 0.84598 0.0
H376 H 0.23205 0.65265 0.85511 0.0
H377 H 0.24498 0.87156 0.66651 0.0
H378 H 0.45124 0.88324 0.91819 0.0
H379 H 0.45985 0.91124 0.98212 0.0
H380 H 0.49308 0.98377 0.91065 0.0
H381 H 0.48516 0.95615 0.84692 0.0
H382 H 0.52291 0.9936 0.98186 0.0
H383 H 0.42276 0.95041 0.93877 0.0
H384 H 0.37568 0.911 0.92027 0.0
H385 H 0.37167 0.87871 0.04048 0.0
H386 H 0.41894 0.91779 0.05947 0.0
H387 H 0.49618 0.08762 0.09649 0.0
H388 H 0.49166 0.05339 0.04338 0.0
H389 H 0.46937 0.99347 0.13693 0.0
H390 H 0.47398 0.02762 0.19046 0.0
H391 H 0.43572 0.97374 0.06213 0.0
H392 H 0.53378 0.02115 0.10778 0.0
H393 H 0.57987 0.06194 0.12567 0.0
H394 H 0.58746 0.08724 -3e-05 0.0
H395 H 0.5411 0.04685 0.9815 0.0
C396 C 0.46084 0.9052 0.91617 0.0
C397 C 0.46713 0.91746 0.87748 0.0
C398 C 0.46566 0.92113 0.9527 0.0
C399 C 0.47659 0.94949 0.95097 0.0
C400 C 0.48453 0.96191 0.91263 0.0
C401 C 0.47986 0.94605 0.8762 0.0
C402 C 0.47776 0.96616 0.98832 0.0
C403 C 0.50385 0.9893 -0.00065 0.0
C404 C 0.45298 0.96019 0.01163 0.0
C405 C 0.4245 0.93683 0.00035 0.0
C406 C 0.41192 0.9348 0.96113 0.0
C407 C 0.3852 0.91254 0.95058 0.0
C408 C 0.37074 0.89232 0.97913 0.0
C409 C 0.38293 0.89436 0.01836 0.0
C410 C 0.40967 0.91656 0.02904 0.0
C411 C 0.4899 0.06707 0.10573 0.0
C412 C 0.48566 0.06035 0.14765 0.0
C413 C 0.48748 0.04761 0.07541 0.0
C414 C 0.48061 0.02113 0.08651 0.0
C415 C 0.47484 0.01389 0.12795 0.0
C416 C 0.47752 0.03342 0.1584 0.0
C417 C 0.48067 0.00143 0.05488 0.0
C418 C 0.45486 0.97776 0.04504 0.0
C419 C 0.50567 0.00698 0.03254 0.0
C420 C 0.53383 0.03107 0.04334 0.0
C421 C 0.54516 0.03551 0.08401 0.0
C422 C 0.57135 0.05855 0.09426 0.0
C423 C 0.58656 0.0772 0.064 0.0
C424 C 0.57564 0.07279 0.02339 0.0
C425 C 0.54941 0.04981 0.01301 0.0
H426 H 0.60683 0.09503 0.07199 0.0
H427 H 0.35005 0.8751 0.9709 0.0
H428 H 0.49638 0.45374 0.26618 0.0
H429 H 0.47412 0.45746 0.33066 0.0
H430 H 0.55691 0.51728 0.38032 0.0
H431 H 0.57945 0.51342 0.31613 0.0
H432 H 0.52725 0.47974 0.43622 0.0
H433 H 0.50976 0.53672 0.34513 0.0
H434 H 0.49237 0.54743 0.28122 0.0
H435 H 0.40667 0.48489 0.30478 0.0
H436 H 0.42363 0.47356 0.36858 0.0
H437 H 0.45706 0.54745 0.56939 0.0
H438 H 0.47377 0.53942 0.50264 0.0
H439 H 0.45062 0.45726 0.53567 0.0
H440 H 0.43424 0.4653 0.60318 0.0
H441 H 0.44931 0.5046 0.4381 0.0
H442 H 0.50134 0.44197 0.49605 0.0
H443 H 0.52157 0.43526 0.56073 0.0
H444 H 0.54365 0.51663 0.60449 0.0
H445 H 0.52391 0.52393 0.53987 0.0
C446 C 0.50986 0.46778 0.29073 0.0
C447 C 0.53968 0.48336 0.28602 0.0
C448 C 0.49708 0.4699 0.32753 0.0
C449 C 0.51386 0.48776 0.36012 0.0
C450 C 0.54361 0.50334 0.35552 0.0
C451 C 0.55642 0.50121 0.31875 0.0
C452 C 0.50044 0.49014 0.39919 0.0
C453 C 0.51014 0.48508 0.43663 0.0
C454 C 0.47827 0.49729 0.39968 0.0
C455 C 0.46802 0.5041 0.36138 0.0
C456 C 0.48725 0.5251 0.3365 0.0
C457 C 0.47746 0.53132 0.30033 0.0
C458 C 0.44845 0.5168 0.28888 0.0
C459 C 0.42914 0.49609 0.31365 0.0
C460 C 0.43883 0.48978 0.34983 0.0
C461 C 0.45532 0.52758 0.56246 0.0
C462 C 0.44457 0.50708 0.59176 0.0
C463 C 0.46478 0.523 0.52417 0.0
C464 C 0.46371 0.49787 0.5144 0.0
C465 C 0.45198 0.47695 0.54289 0.0
C466 C 0.44257 0.48155 0.58137 0.0
C467 C 0.47614 0.49424 0.47513 0.0
C468 C 0.46621 0.49898 0.43763 0.0
C469 C 0.4985 0.48733 0.47465 0.0
C470 C 0.51086 0.48335 0.51334 0.0
C471 C 0.51061 0.45844 0.51943 0.0
C472 C 0.52198 0.45454 0.55608 0.0
C473 C 0.53379 0.47547 0.58676 0.0
C474 C 0.53439 0.5004 0.58077 0.0
C475 C 0.52309 0.50442 0.54416 0.0
H476 H 0.54255 0.47239 0.61513 0.0
H477 H 0.44091 0.52165 0.26087 0.0
H478 H 0.06127 0.55424 0.92577 0.0
H479 H 0.04127 0.52709 0.98685 0.0
H480 H 0.98899 0.45623 0.90779 0.0
H481 H 0.00841 0.48333 0.84655 0.0
H482 H 0.95935 0.45924 0.97251 0.0
H483 H 0.05087 0.46442 0.9519 0.0
H484 H 0.10306 0.48734 0.94112 0.0
H485 H 0.11728 0.53045 0.05909 0.0
H486 H 0.06511 0.50809 0.0703 0.0
H487 H 0.92451 0.36523 0.13281 0.0
H488 H 0.94826 0.38802 0.06949 0.0
H489 H 0.99135 0.46509 0.13865 0.0
H490 H 0.96743 0.44262 0.20176 0.0
H491 H 0.02599 0.45589 0.07704 0.0
H492 H 0.93403 0.45311 0.09385 0.0
H493 H 0.88182 0.42964 0.10458 0.0
H494 H 0.86883 0.38089 0.9925 0.0
H495 H 0.92108 0.40379 0.98152 0.0
C496 C 0.04531 0.53295 0.92137 0.0
C497 C 0.03657 0.52088 0.88132 0.0
C498 C 0.03405 0.51742 0.95629 0.0
C499 C 0.0141 0.48952 0.95178 0.0
C500 C 0.0045 0.47769 0.91191 0.0
C501 C 0.01563 0.49323 0.87696 0.0
C502 C 0.00357 0.47259 0.98865 0.0
C503 C 0.97392 0.45816 0.99498 0.0
C504 C 0.02263 0.47145 0.01821 0.0
C505 C 0.05405 0.48474 0.01177 0.0
C506 C 0.06511 0.47893 0.97542 0.0
C507 C 0.09469 0.4918 0.96924 0.0
C508 C 0.11347 0.51038 -0.00064 0.0
C509 C 0.1027 0.51607 0.03577 0.0
C510 C 0.07313 0.50328 0.04207 0.0
C511 C 0.93956 0.3869 0.13466 0.0
C512 C 0.94398 0.40224 0.172 0.0
C513 C 0.95301 0.39987 0.09853 0.0
C514 C 0.9713 0.42821 0.09955 0.0
C515 C 0.97729 0.44319 0.13738 0.0
C516 C 0.96353 0.43036 0.17329 0.0
C517 C 0.98193 0.44278 0.06075 0.0
C518 C 0.01153 0.45679 0.0542 0.0
C519 C 0.96287 0.44345 0.03086 0.0
C520 C 0.93146 0.42991 0.03714 0.0
C521 C 0.92006 0.43722 0.0717 0.0
C522 C 0.89046 0.42405 0.0778 0.0
C523 C 0.87203 0.40373 0.0493 0.0
C524 C 0.88315 0.3966 0.01459 0.0
C525 C 0.91275 0.40966 0.00841 0.0
H526 H 0.84912 0.39355 0.05406 0.0
H527 H 0.13637 0.52034 0.99451 0.0
H528 H 0.47571 0.08295 0.38963 0.0
H529 H 0.4621 0.06077 0.45628 0.0
H530 H 0.49121 0.0039 0.41567 0.0
H531 H 0.50453 0.02563 0.34908 0.0
H532 H 0.44011 0.9785 0.45357 0.0
H533 H 0.53255 0.05862 0.47925 0.0
H534 H 0.56663 0.108 0.48098 0.0
H535 H 0.51201 0.123 0.56387 0.0
H536 H 0.4774 0.0737 0.56219 0.0
H537 H 0.46768 0.92662 0.63112 0.0
H538 H 0.4728 0.95174 0.56861 0.0
H539 H 0.43817 -0.00144 0.63181 0.0
H540 H 0.43314 0.97357 0.69498 0.0
H541 H 0.48568 0.03037 0.58505 0.0
H542 H 0.39606 0.94907 0.56576 0.0
H543 H 0.36299 0.89948 0.5649 0.0
H544 H 0.41251 0.88649 0.47021 0.0
H545 H 0.44615 0.93597 0.47095 0.0
C546 C 0.47908 0.06564 0.39486 0.0
C547 C 0.49129 0.05608 0.36418 0.0
C548 C 0.47138 0.05308 0.43296 0.0
C549 C 0.47588 0.03087 0.44093 0.0
C550 C 0.48754 0.02101 0.41006 0.0
C551 C 0.49523 0.03352 0.37207 0.0
C552 C 0.46897 0.01796 0.48157 0.0
C553 C 0.45016 0.98979 0.48231 0.0
C554 C 0.48144 0.03293 0.51914 0.0
C555 C 0.50224 0.06253 0.52018 0.0
C556 C 0.5277 0.07248 0.49756 0.0
C557 C 0.54713 0.10044 0.49858 0.0
C558 C 0.54144 0.11864 0.52241 0.0
C559 C 0.51635 0.10889 0.54536 0.0
C560 C 0.49683 0.08094 0.5444 0.0
C561 C 0.46122 0.94231 0.63188 0.0
C562 C 0.44983 0.948 0.66792 0.0
C563 C 0.46406 0.95656 0.59607 0.0
C564 C 0.45542 0.97666 0.59551 0.0
C565 C 0.44479 0.98298 0.63168 0.0
C566 C 0.4419 0.96867 0.66764 0.0
C567 C 0.45748 0.99079 0.55678 0.0
C568 C 0.47527 0.01915 0.55642 0.0
C569 C 0.4441 0.97601 0.51949 0.0
C570 C 0.42374 0.94624 0.51861 0.0
C571 C 0.40001 0.93562 0.54494 0.0
C572 C 0.38115 0.90753 0.54446 0.0
C573 C 0.38567 0.88984 0.51757 0.0
C574 C 0.40904 0.90022 0.49103 0.0
C575 C 0.42799 0.92829 0.49143 0.0
H576 H 0.37105 0.8681 0.51724 0.0
H577 H 0.55652 0.14029 0.52317 0.0
H578 H 0.53571 0.56241 0.7548 0.0
H579 H 0.55936 0.55778 0.81665 0.0
H580 H 0.47694 0.50932 0.8717 0.0
H581 H 0.45313 0.51407 0.8103 0.0
H582 H 0.51375 0.55015 0.9242 0.0
H583 H 0.51581 0.48001 0.83464 0.0
H584 H 0.52708 0.46188 0.77057 0.0
H585 H 0.61673 0.51768 0.7902 0.0
H586 H 0.60595 0.53641 0.85413 0.0
H587 H 0.54715 0.49395 0.09296 0.0
H588 H 0.52916 0.50203 0.02848 0.0
H589 H 0.6156 0.54643 0.98402 0.0
H590 H 0.63385 0.53787 0.0484 0.0
H591 H 0.58052 0.51154 0.9252 0.0
H592 H 0.57926 0.58012 0.01641 0.0
H593 H 0.5685 0.59883 0.08031 0.0
H594 H 0.4783 0.54731 0.05737 0.0
H595 H 0.48851 0.528 0.99361 0.0
C596 C 0.5226 0.55051 0.77987 0.0
C597 C 0.49255 0.53867 0.77772 0.0
C598 C 0.53616 0.54785 0.81514 0.0
C599 C 0.51988 0.53318 0.84867 0.0
C600 C 0.48987 0.52081 0.84617 0.0
C601 C 0.47631 0.52346 0.81099 0.0
C602 C 0.53402 0.53161 0.88718 0.0
C603 C 0.5281 0.54143 0.92453 0.0
C604 C 0.55354 0.52115 0.88724 0.0
C605 C 0.56004 0.50981 0.84892 0.0
C606 C 0.53791 0.48857 0.82511 0.0
C607 C 0.54421 0.47816 0.78886 0.0
C608 C 0.57259 0.48868 0.77625 0.0
C609 C 0.59475 0.50958 0.79996 0.0
C610 C 0.58856 0.52009 0.83622 0.0
C611 C 0.56242 0.50559 0.06964 0.0
C612 C 0.59196 0.51533 0.07584 0.0
C613 C 0.55208 0.51029 0.03283 0.0
C614 C 0.57107 0.52514 0.00169 0.0
C615 C 0.6006 0.53498 0.00775 0.0
C616 C 0.61098 0.53014 0.04457 0.0
C617 C 0.55981 0.5296 0.9624 0.0
C618 C 0.56633 0.52044 0.92487 0.0
C619 C 0.54092 0.5408 0.96211 0.0
C620 C 0.53468 0.55247 0.00037 0.0
C621 C 0.55713 0.57264 0.02514 0.0
C622 C 0.55113 0.58338 0.06131 0.0
C623 C 0.52274 0.57423 0.07293 0.0
C624 C 0.50028 0.55437 0.04834 0.0
C625 C 0.50616 0.54355 0.01215 0.0
H626 H 0.51814 0.58256 0.10096 0.0
H627 H 0.57743 0.48059 0.74818 0.0
H628 H 0.02656 0.53896 0.70354 0.0
H629 H 0.99562 0.51189 0.64507 0.0
H630 H 0.06803 0.51179 0.58467 0.0
H631 H 0.09928 0.53932 0.64271 0.0
H632 H 0.03568 0.52119 0.53091 0.0
H633 H 0.01942 0.45606 0.63483 0.0
H634 H 0.00751 0.4373 0.70456 0.0
H635 H 0.92438 0.43179 0.69424 0.0
H636 H 0.93595 0.45091 0.62465 0.0
H637 H 0.95815 0.41761 0.3794 0.0
H638 H 0.98846 0.4413 0.44013 0.0
H639 H 0.91707 0.44383 0.49981 0.0
H640 H 0.8864 0.41976 0.43936 0.0
H641 H 0.949 0.43258 0.5541 0.0
H642 H 0.96575 0.49868 0.45111 0.0
H643 H 0.9777 0.51774 0.38156 0.0
H644 H 0.06009 0.52148 0.39047 0.0
H645 H 0.04846 0.50208 0.45989 0.0
C646 C 0.03595 0.5333 0.67774 0.0
C647 C 0.06535 0.54118 0.6778 0.0
C648 C 0.0182 0.5177 0.64447 0.0
C649 C 0.02947 0.50947 0.6109 0.0
C650 C 0.05892 0.51786 0.6104 0.0
C651 C 0.07672 0.53357 0.64359 0.0
C652 C 0.01053 0.49213 0.57626 0.0
C653 C 0.01697 0.50163 0.5359 0.0
C654 C 0.98577 0.4669 0.58299 0.0
C655 C 0.97866 0.45515 0.62468 0.0
C656 C -0.00133 0.45103 0.64754 0.0
C657 C 0.99197 0.44031 0.68703 0.0
C658 C 0.96523 0.43342 0.70386 0.0
C659 C 0.9451 0.43717 0.68118 0.0
C660 C 0.9517 0.44792 0.6417 0.0
C661 C 0.94878 0.42293 0.4056 0.0
C662 C 0.91994 0.41708 0.40441 0.0
C663 C 0.96617 0.43653 0.44021 0.0
C664 C 0.95511 0.44473 0.47407 0.0
C665 C 0.92601 0.43777 0.47385 0.0
C666 C 0.90855 0.42406 0.43926 0.0
C667 C 0.97422 0.46164 0.50883 0.0
C668 C 0.96778 0.45209 0.54917 0.0
C669 C -0.001 0.48684 0.50212 0.0
C670 C 0.00612 0.49868 0.46051 0.0
C671 C 0.98633 0.50338 0.43811 0.0
C672 C 0.99306 0.51428 0.39873 0.0
C673 C 0.01961 0.52075 0.38156 0.0
C674 C 0.03952 0.51642 0.40379 0.0
C675 C 0.03288 0.5055 0.44316 0.0
H676 H 0.02478 0.52918 0.35107 0.0
H677 H 0.96009 0.42513 0.73444 0.0
loop_
_geom_bond_atom_site_label_1
_geom_bond_atom_site_label_2
_geom_bond_distance
_geom_bond_site_symmetry_2
_ccdc_geom_bond_type
C0 O1 1.160 . S
C0 O7 1.185 . S
O1 C0 1.160 . S
O2 Zn3 1.899 . S
O2 C10 1.284 . S
Zn3 O2 1.899 . S
Zn3 O4 2.032 . S
Zn3 O7 2.086 . S
Zn3 O12 1.977 . S
O4 Zn3 2.032 . S
O4 C8 1.278 . S
C5 O6 1.203 . S
C5 O12 1.267 . S
O6 C5 1.203 . S
O7 C0 1.185 . S
O7 Zn3 2.086 . S
C8 O4 1.278 . S
C8 O9 1.211 . S
O9 C8 1.211 . S
C10 O2 1.284 . S
C10 O11 1.273 . S
O11 C10 1.273 . S
O12 Zn3 1.977 . S
O12 C5 1.267 . S
C13 O14 1.160 . S
C13 O20 1.185 . S
O14 C13 1.160 . S
O15 Zn16 1.899 . S
O15 C23 1.284 . S
Zn16 O15 1.899 . S
Zn16 O17 2.032 . S
Zn16 O20 2.086 . S
Zn16 O25 1.977 . S
O17 Zn16 2.032 . S
O17 C21 1.278 . S
C18 O19 1.203 . S
C18 O25 1.267 . S
O19 C18 1.203 . S
O20 C13 1.185 . S
O20 Zn16 2.086 . S
C21 O17 1.278 . S
C21 O22 1.211 . S
O22 C21 1.211 . S
C23 O15 1.284 . S
C23 O24 1.273 . S
O24 C23 1.273 . S
O25 Zn16 1.977 . S
O25 C18 1.267 . S
C26 O27 1.160 . S
C26 O33 1.185 . S
O27 C26 1.160 . S
O28 Zn29 1.899 . S
O28 C36 1.284 . S
Zn29 O28 1.899 . S
Zn29 O30 2.032 . S
Zn29 O33 2.086 . S
Zn29 O38 1.977 . S
O30 Zn29 2.032 . S
O30 C34 1.278 . S
C31 O32 1.203 . S
C31 O38 1.267 . S
O32 C31 1.203 . S
O33 C26 1.185 . S
O33 Zn29 2.086 . S
C34 O30 1.278 . S
C34 O35 1.211 . S
O35 C34 1.211 . S
C36 O28 1.284 . S
C36 O37 1.273 . S
O37 C36 1.273 . S
O38 Zn29 1.977 . S
O38 C31 1.267 . S
C39 O40 1.160 . S
C39 O46 1.185 . S
O40 C39 1.160 . S
O41 Zn42 1.899 . S
O41 C49 1.284 . S
Zn42 O41 1.899 . S
Zn42 O43 2.032 . S
Zn42 O46 2.086 . S
Zn42 O51 1.977 . S
O43 Zn42 2.032 . S
O43 C47 1.278 . S
C44 O45 1.203 . S
C44 O51 1.267 . S
O45 C44 1.203 . S
O46 C39 1.185 . S
O46 Zn42 2.086 . S
C47 O43 1.278 . S
C47 O48 1.211 . S
O48 C47 1.211 . S
C49 O41 1.284 . S
C49 O50 1.273 . S
O50 C49 1.273 . S
O51 Zn42 1.977 . S
O51 C44 1.267 . S
C52 O53 1.160 . S
C52 O59 1.185 . S
O53 C52 1.160 . S
O54 Zn55 1.899 . S
O54 C62 1.284 . S
Zn55 O54 1.899 . S
Zn55 O56 2.032 . S
Zn55 O59 2.086 . S
Zn55 O64 1.977 . S
O56 Zn55 2.032 . S
O56 C60 1.278 . S
C57 O58 1.203 . S
C57 O64 1.267 . S
O58 C57 1.203 . S
O59 C52 1.185 . S
O59 Zn55 2.086 . S
C60 O56 1.278 . S
C60 O61 1.211 . S
O61 C60 1.211 . S
C62 O54 1.284 . S
C62 O63 1.273 . S
O63 C62 1.273 . S
O64 Zn55 1.977 . S
O64 C57 1.267 . S
C65 O66 1.160 . S
C65 O72 1.185 . S
O66 C65 1.160 . S
O67 Zn68 1.899 . S
O67 C75 1.284 . S
Zn68 O67 1.899 . S
Zn68 O69 2.032 . S
Zn68 O72 2.086 . S
Zn68 O77 1.977 . S
O69 Zn68 2.032 . S
O69 C73 1.278 . S
C70 O71 1.203 . S
C70 O77 1.267 . S
O71 C70 1.203 . S
O72 C65 1.185 . S
O72 Zn68 2.086 . S
C73 O69 1.278 . S
C73 O74 1.211 . S
O74 C73 1.211 . S
C75 O67 1.284 . S
C75 O76 1.273 . S
O76 C75 1.273 . S
O77 Zn68 1.977 . S
O77 C70 1.267 . S
H78 C96 0.951 . S
H79 C98 0.951 . S
H80 C100 0.950 . S
H81 C101 0.950 . S
H82 C103 0.950 . S
H83 C106 0.950 . S
H84 C107 0.950 . S
H85 C109 0.950 . S
H86 C110 0.950 . S
H87 C111 0.951 . S
H88 C113 0.951 . S
H89 C115 0.950 . S
H90 C116 0.950 . S
H91 C118 0.950 . S
H92 C121 0.950 . S
H93 C122 0.950 . S
H94 C124 0.950 . S
H95 C125 0.950 . S
C96 H78 0.951 . S
C96 C97 1.366 . S
C96 C98 1.388 . S
C97 C96 1.366 . S
C97 C101 1.385 . S
C98 H79 0.951 . S
C98 C96 1.388 . S
C98 C99 1.366 . S
C99 C98 1.366 . S
C99 C100 1.414 . S
C99 C102 1.499 . S
C100 H80 0.950 . S
C100 C99 1.414 . S
C100 C101 1.374 . S
C101 H81 0.950 . S
C101 C97 1.385 . S
C101 C100 1.374 . S
C102 C99 1.499 . S
C102 C103 1.373 . S
C102 C104 1.389 . S
C103 H82 0.950 . S
C103 C102 1.373 . S
C103 C119 1.377 . S
C104 C102 1.389 . S
C104 C105 1.524 . S
C104 C118 1.377 . S
C105 C104 1.524 . S
C105 C106 1.397 . S
C105 C110 1.363 . S
C106 H83 0.950 . S
C106 C105 1.397 . S
C106 C107 1.334 . S
C107 H84 0.950 . S
C107 C106 1.334 . S
C107 C108 1.287 . S
C108 C107 1.287 . S
C108 C109 1.524 . S
C108 H127 0.913 . S
C109 H85 0.950 . S
C109 C108 1.524 . S
C109 C110 1.415 . S
C110 H86 0.950 . S
C110 C105 1.363 . S
C110 C109 1.415 . S
C111 H87 0.951 . S
C111 C112 1.366 . S
C111 C113 1.388 . S
C112 C111 1.366 . S
C112 C116 1.385 . S
C113 H88 0.951 . S
C113 C111 1.388 . S
C113 C114 1.366 . S
C114 C113 1.366 . S
C114 C115 1.414 . S
C114 C117 1.499 . S
C115 H89 0.950 . S
C115 C114 1.414 . S
C115 C116 1.374 . S
C116 H90 0.950 . S
C116 C112 1.385 . S
C116 C115 1.374 . S
C117 C114 1.499 . S
C117 C118 1.373 . S
C117 C119 1.389 . S
C118 H91 0.950 . S
C118 C104 1.377 . S
C118 C117 1.373 . S
C119 C103 1.377 . S
C119 C117 1.389 . S
C119 C120 1.524 . S
C120 C119 1.524 . S
C120 C121 1.397 . S
C120 C125 1.363 . S
C121 H92 0.950 . S
C121 C120 1.397 . S
C121 C122 1.334 . S
C122 H93 0.950 . S
C122 C121 1.334 . S
C122 C123 1.287 . S
C123 C122 1.287 . S
C123 C124 1.524 . S
C123 H126 0.999 . S
C124 H94 0.950 . S
C124 C123 1.524 . S
C124 C125 1.415 . S
C125 H95 0.950 . S
C125 C120 1.363 . S
C125 C124 1.415 . S
H126 C123 0.999 . S
H127 C108 0.913 . S
H128 C146 0.951 . S
H129 C148 0.951 . S
H130 C150 0.950 . S
H131 C151 0.950 . S
H132 C153 0.950 . S
H133 C156 0.950 . S
H134 C157 0.950 . S
H135 C159 0.950 . S
H136 C160 0.950 . S
H137 C161 0.951 . S
H138 C163 0.951 . S
H139 C165 0.950 . S
H140 C166 0.950 . S
H141 C168 0.950 . S
H142 C171 0.950 . S
H143 C172 0.950 . S
H144 C174 0.950 . S
H145 C175 0.950 . S
C146 H128 0.951 . S
C146 C147 1.366 . S
C146 C148 1.388 . S
C147 C146 1.366 . S
C147 C151 1.385 . S
C148 H129 0.951 . S
C148 C146 1.388 . S
C148 C149 1.366 . S
C149 C148 1.366 . S
C149 C150 1.414 . S
C149 C152 1.499 . S
C150 H130 0.950 . S
C150 C149 1.414 . S
C150 C151 1.374 . S
C151 H131 0.950 . S
C151 C147 1.385 . S
C151 C150 1.374 . S
C152 C149 1.499 . S
C152 C153 1.373 . S
C152 C154 1.389 . S
C153 H132 0.950 . S
C153 C152 1.373 . S
C153 C169 1.377 . S
C154 C152 1.389 . S
C154 C155 1.524 . S
C154 C168 1.377 . S
C155 C154 1.524 . S
C155 C156 1.397 . S
C155 C160 1.363 . S
C156 H133 0.950 . S
C156 C155 1.397 . S
C156 C157 1.334 . S
C157 H134 0.950 . S
C157 C156 1.334 . S
C157 C158 1.287 . S
C158 C157 1.287 . S
C158 C159 1.524 . S
C158 H177 0.913 . S
C159 H135 0.950 . S
C159 C158 1.524 . S
C159 C160 1.415 . S
C160 H136 0.950 . S
C160 C155 1.363 . S
C160 C159 1.415 . S
C161 H137 0.951 . S
C161 C162 1.366 . S
C161 C163 1.388 . S
C162 C161 1.366 . S
C162 C166 1.385 . S
C163 H138 0.951 . S
C163 C161 1.388 . S
C163 C164 1.366 . S
C164 C163 1.366 . S
C164 C165 1.414 . S
C164 C167 1.499 . S
C165 H139 0.950 . S
C165 C164 1.414 . S
C165 C166 1.374 . S
C166 H140 0.950 . S
C166 C162 1.385 . S
C166 C165 1.374 . S
C167 C164 1.499 . S
C167 C168 1.373 . S
C167 C169 1.389 . S
C168 H141 0.950 . S
C168 C154 1.377 . S
C168 C167 1.373 . S
C169 C153 1.377 . S
C169 C167 1.389 . S
C169 C170 1.524 . S
C170 C169 1.524 . S
C170 C171 1.397 . S
C170 C175 1.363 . S
C171 H142 0.950 . S
C171 C170 1.397 . S
C171 C172 1.334 . S
C172 H143 0.950 . S
C172 C171 1.334 . S
C172 C173 1.287 . S
C173 C172 1.287 . S
C173 C174 1.524 . S
C173 H176 0.999 . S
C174 H144 0.950 . S
C174 C173 1.524 . S
C174 C175 1.415 . S
C175 H145 0.950 . S
C175 C170 1.363 . S
C175 C174 1.415 . S
H176 C173 0.999 . S
H177 C158 0.913 . S
H178 C196 0.951 . S
H179 C198 0.951 . S
H180 C200 0.950 . S
H181 C201 0.950 . S
H182 C203 0.950 . S
H183 C206 0.950 . S
H184 C207 0.950 . S
H185 C209 0.950 . S
H186 C210 0.950 . S
H187 C211 0.951 . S
H188 C213 0.951 . S
H189 C215 0.950 . S
H190 C216 0.950 . S
H191 C218 0.950 . S
H192 C221 0.950 . S
H193 C222 0.950 . S
H194 C224 0.950 . S
H195 C225 0.950 . S
C196 H178 0.951 . S
C196 C197 1.366 . S
C196 C198 1.388 . S
C197 C196 1.366 . S
C197 C201 1.385 . S
C198 H179 0.951 . S
C198 C196 1.388 . S
C198 C199 1.366 . S
C199 C198 1.366 . S
C199 C200 1.414 . S
C199 C202 1.499 . S
C200 H180 0.950 . S
C200 C199 1.414 . S
C200 C201 1.374 . S
C201 H181 0.950 . S
C201 C197 1.385 . S
C201 C200 1.374 . S
C202 C199 1.499 . S
C202 C203 1.373 . S
C202 C204 1.389 . S
C203 H182 0.950 . S
C203 C202 1.373 . S
C203 C219 1.377 . S
C204 C202 1.389 . S
C204 C205 1.524 . S
C204 C218 1.377 . S
C205 C204 1.524 . S
C205 C206 1.397 . S
C205 C210 1.363 . S
C206 H183 0.950 . S
C206 C205 1.397 . S
C206 C207 1.334 . S
C207 H184 0.950 . S
C207 C206 1.334 . S
C207 C208 1.287 . S
C208 C207 1.287 . S
C208 C209 1.524 . S
C208 H227 0.913 . S
C209 H185 0.950 . S
C209 C208 1.524 . S
C209 C210 1.415 . S
C210 H186 0.950 . S
C210 C205 1.363 . S
C210 C209 1.415 . S
C211 H187 0.951 . S
C211 C212 1.366 . S
C211 C213 1.388 . S
C212 C211 1.366 . S
C212 C216 1.385 . S
C213 H188 0.951 . S
C213 C211 1.388 . S
C213 C214 1.366 . S
C214 C213 1.366 . S
C214 C215 1.414 . S
C214 C217 1.499 . S
C215 H189 0.950 . S
C215 C214 1.414 . S
C215 C216 1.374 . S
C216 H190 0.950 . S
C216 C212 1.385 . S
C216 C215 1.374 . S
C217 C214 1.499 . S
C217 C218 1.373 . S
C217 C219 1.389 . S
C218 H191 0.950 . S
C218 C204 1.377 . S
C218 C217 1.373 . S
C219 C203 1.377 . S
C219 C217 1.389 . S
C219 C220 1.524 . S
C220 C219 1.524 . S
C220 C221 1.397 . S
C220 C225 1.363 . S
C221 H192 0.950 . S
C221 C220 1.397 . S
C221 C222 1.334 . S
C222 H193 0.950 . S
C222 C221 1.334 . S
C222 C223 1.287 . S
C223 C222 1.287 . S
C223 C224 1.524 . S
C223 H226 0.999 . S
C224 H194 0.950 . S
C224 C223 1.524 . S
C224 C225 1.415 . S
C225 H195 0.950 . S
C225 C220 1.363 . S
C225 C224 1.415 . S
H226 C223 0.999 . S
H227 C208 0.913 . S
H228 C246 0.951 . S
H229 C248 0.951 . S
H230 C250 0.950 . S
H231 C251 0.950 . S
H232 C253 0.950 . S
H233 C256 0.950 . S
H234 C257 0.950 . S
H235 C259 0.950 . S
H236 C260 0.950 . S
H237 C261 0.951 . S
H238 C263 0.951 . S
H239 C265 0.950 . S
H240 C266 0.950 . S
H241 C268 0.950 . S
H242 C271 0.950 . S
H243 C272 0.950 . S
H244 C274 0.950 . S
H245 C275 0.950 . S
C246 H228 0.951 . S
C246 C247 1.366 . S
C246 C248 1.388 . S
C247 C246 1.366 . S
C247 C251 1.385 . S
C248 H229 0.951 . S
C248 C246 1.388 . S
C248 C249 1.366 . S
C249 C248 1.366 . S
C249 C250 1.414 . S
C249 C252 1.499 . S
C250 H230 0.950 . S
C250 C249 1.414 . S
C250 C251 1.374 . S
C251 H231 0.950 . S
C251 C247 1.385 . S
C251 C250 1.374 . S
C252 C249 1.499 . S
C252 C253 1.373 . S
C252 C254 1.389 . S
C253 H232 0.950 . S
C253 C252 1.373 . S
C253 C269 1.377 . S
C254 C252 1.389 . S
C254 C255 1.524 . S
C254 C268 1.377 . S
C255 C254 1.524 . S
C255 C256 1.397 . S
C255 C260 1.363 . S
C256 H233 0.950 . S
C256 C255 1.397 . S
C256 C257 1.334 . S
C257 H234 0.950 . S
C257 C256 1.334 . S
C257 C258 1.287 . S
C258 C257 1.287 . S
C258 C259 1.524 . S
C258 H277 0.913 . S
C259 H235 0.950 . S
C259 C258 1.524 . S
C259 C260 1.415 . S
C260 H236 0.950 . S
C260 C255 1.363 . S
C260 C259 1.415 . S
C261 H237 0.951 . S
C261 C262 1.366 . S
C261 C263 1.388 . S
C262 C261 1.366 . S
C262 C266 1.385 . S
C263 H238 0.951 . S
C263 C261 1.388 . S
C263 C264 1.366 . S
C264 C263 1.366 . S
C264 C265 1.414 . S
C264 C267 1.499 . S
C265 H239 0.950 . S
C265 C264 1.414 . S
C265 C266 1.374 . S
C266 H240 0.950 . S
C266 C262 1.385 . S
C266 C265 1.374 . S
C267 C264 1.499 . S
C267 C268 1.373 . S
C267 C269 1.389 . S
C268 H241 0.950 . S
C268 C254 1.377 . S
C268 C267 1.373 . S
C269 C253 1.377 . S
C269 C267 1.389 . S
C269 C270 1.524 . S
C270 C269 1.524 . S
C270 C271 1.397 . S
C270 C275 1.363 . S
C271 H242 0.950 . S
C271 C270 1.397 . S
C271 C272 1.334 . S
C272 H243 0.950 . S
C272 C271 1.334 . S
C272 C273 1.287 . S
C273 C272 1.287 . S
C273 C274 1.524 . S
C273 H276 0.999 . S
C274 H244 0.950 . S
C274 C273 1.524 . S
C274 C275 1.415 . S
C275 H245 0.950 . S
C275 C270 1.363 . S
C275 C274 1.415 . S
H276 C273 0.999 . S
H277 C258 0.913 . S
H278 C296 0.951 . S
H279 C298 0.951 . S
H280 C300 0.950 . S
H281 C301 0.950 . S
H282 C303 0.950 . S
H283 C306 0.950 . S
H284 C307 0.950 . S
H285 C309 0.950 . S
H286 C310 0.950 . S
H287 C311 0.951 . S
H288 C313 0.951 . S
H289 C315 0.950 . S
H290 C316 0.950 . S
H291 C318 0.950 . S
H292 C321 0.950 . S
H293 C322 0.950 . S
H294 C324 0.950 . S
H295 C325 0.950 . S
C296 H278 0.951 . S
C296 C297 1.366 . S
C296 C298 1.388 . S
C297 C296 1.366 . S
C297 C301 1.385 . S
C298 H279 0.951 . S
C298 C296 1.388 . S
C298 C299 1.366 . S
C299 C298 1.366 . S
C299 C300 1.414 . S
C299 C302 1.499 . S
C300 H280 0.950 . S
C300 C299 1.414 . S
C300 C301 1.374 . S
C301 H281 0.950 . S
C301 C297 1.385 . S
C301 C300 1.374 . S
C302 C299 1.499 . S
C302 C303 1.373 . S
C302 C304 1.389 . S
C303 H282 0.950 . S
C303 C302 1.373 . S
C303 C319 1.377 . S
C304 C302 1.389 . S
C304 C305 1.524 . S
C304 C318 1.377 . S
C305 C304 1.524 . S
C305 C306 1.397 . S
C305 C310 1.363 . S
C306 H283 0.950 . S
C306 C305 1.397 . S
C306 C307 1.334 . S
C307 H284 0.950 . S
C307 C306 1.334 . S
C307 C308 1.287 . S
C308 C307 1.287 . S
C308 C309 1.524 . S
C308 H327 0.913 . S
C309 H285 0.950 . S
C309 C308 1.524 . S
C309 C310 1.415 . S
C310 H286 0.950 . S
C310 C305 1.363 . S
C310 C309 1.415 . S
C311 H287 0.951 . S
C311 C312 1.366 . S
C311 C313 1.388 . S
C312 C311 1.366 . S
C312 C316 1.385 . S
C313 H288 0.951 . S
C313 C311 1.388 . S
C313 C314 1.366 . S
C314 C313 1.366 . S
C314 C315 1.414 . S
C314 C317 1.499 . S
C315 H289 0.950 . S
C315 C314 1.414 . S
C315 C316 1.374 . S
C316 H290 0.950 . S
C316 C312 1.385 . S
C316 C315 1.374 . S
C317 C314 1.499 . S
C317 C318 1.373 . S
C317 C319 1.389 . S
C318 H291 0.950 . S
C318 C304 1.377 . S
C318 C317 1.373 . S
C319 C303 1.377 . S
C319 C317 1.389 . S
C319 C320 1.524 . S
C320 C319 1.524 . S
C320 C321 1.397 . S
C320 C325 1.363 . S
C321 H292 0.950 . S
C321 C320 1.397 . S
C321 C322 1.334 . S
C322 H293 0.950 . S
C322 C321 1.334 . S
C322 C323 1.287 . S
C323 C322 1.287 . S
C323 C324 1.524 . S
C323 H326 0.999 . S
C324 H294 0.950 . S
C324 C323 1.524 . S
C324 C325 1.415 . S
C325 H295 0.950 . S
C325 C320 1.363 . S
C325 C324 1.415 . S
H326 C323 0.999 . S
H327 C308 0.913 . S
H328 C346 0.951 . S
H329 C348 0.951 . S
H330 C350 0.950 . S
H331 C351 0.950 . S
H332 C353 0.950 . S
H333 C356 0.950 . S
H334 C357 0.950 . S
H335 C359 0.950 . S
H336 C360 0.950 . S
H337 C361 0.951 . S
H338 C363 0.951 . S
H339 C365 0.950 . S
H340 C366 0.950 . S
H341 C368 0.950 . S
H342 C371 0.950 . S
H343 C372 0.950 . S
H344 C374 0.950 . S
H345 C375 0.950 . S
C346 H328 0.951 . S
C346 C347 1.366 . S
C346 C348 1.388 . S
C347 C346 1.366 . S
C347 C351 1.385 . S
C348 H329 0.951 . S
C348 C346 1.388 . S
C348 C349 1.366 . S
C349 C348 1.366 . S
C349 C350 1.414 . S
C349 C352 1.499 . S
C350 H330 0.950 . S
C350 C349 1.414 . S
C350 C351 1.374 . S
C351 H331 0.950 . S
C351 C347 1.385 . S
C351 C350 1.374 . S
C352 C349 1.499 . S
C352 C353 1.373 . S
C352 C354 1.389 . S
C353 H332 0.950 . S
C353 C352 1.373 . S
C353 C369 1.377 . S
C354 C352 1.389 . S
C354 C355 1.524 . S
C354 C368 1.377 . S
C355 C354 1.524 . S
C355 C356 1.397 . S
C355 C360 1.363 . S
C356 H333 0.950 . S
C356 C355 1.397 . S
C356 C357 1.334 . S
C357 H334 0.950 . S
C357 C356 1.334 . S
C357 C358 1.287 . S
C358 C357 1.287 . S
C358 C359 1.524 . S
C358 H377 0.913 . S
C359 H335 0.950 . S
C359 C358 1.524 . S
C359 C360 1.415 . S
C360 H336 0.950 . S
C360 C355 1.363 . S
C360 C359 1.415 . S
C361 H337 0.951 . S
C361 C362 1.366 . S
C361 C363 1.388 . S
C362 C361 1.366 . S
C362 C366 1.385 . S
C363 H338 0.951 . S
C363 C361 1.388 . S
C363 C364 1.366 . S
C364 C363 1.366 . S
C364 C365 1.414 . S
C364 C367 1.499 . S
C365 H339 0.950 . S
C365 C364 1.414 . S
C365 C366 1.374 . S
C366 H340 0.950 . S
C366 C362 1.385 . S
C366 C365 1.374 . S
C367 C364 1.499 . S
C367 C368 1.373 . S
C367 C369 1.389 . S
C368 H341 0.950 . S
C368 C354 1.377 . S
C368 C367 1.373 . S
C369 C353 1.377 . S
C369 C367 1.389 . S
C369 C370 1.524 . S
C370 C369 1.524 . S
C370 C371 1.397 . S
C370 C375 1.363 . S
C371 H342 0.950 . S
C371 C370 1.397 . S
C371 C372 1.334 . S
C372 H343 0.950 . S
C372 C371 1.334 . S
C372 C373 1.287 . S
C373 C372 1.287 . S
C373 C374 1.524 . S
C373 H376 0.999 . S
C374 H344 0.950 . S
C374 C373 1.524 . S
C374 C375 1.415 . S
C375 H345 0.950 . S
C375 C370 1.363 . S
C375 C374 1.415 . S
H376 C373 0.999 . S
H377 C358 0.913 . S
H378 C396 0.951 . S
H379 C398 0.951 . S
H380 C400 0.950 . S
H381 C401 0.950 . S
H382 C403 0.950 . S
H383 C406 0.950 . S
H384 C407 0.950 . S
H385 C409 0.950 . S
H386 C410 0.950 . S
H387 C411 0.951 . S
H388 C413 0.951 . S
H389 C415 0.950 . S
H390 C416 0.950 . S
H391 C418 0.950 . S
H392 C421 0.950 . S
H393 C422 0.950 . S
H394 C424 0.950 . S
H395 C425 0.950 . S
C396 H378 0.951 . S
C396 C397 1.366 . S
C396 C398 1.388 . S
C397 C396 1.366 . S
C397 C401 1.385 . S
C398 H379 0.951 . S
C398 C396 1.388 . S
C398 C399 1.366 . S
C399 C398 1.366 . S
C399 C400 1.414 . S
C399 C402 1.499 . S
C400 H380 0.950 . S
C400 C399 1.414 . S
C400 C401 1.374 . S
C401 H381 0.950 . S
C401 C397 1.385 . S
C401 C400 1.374 . S
C402 C399 1.499 . S
C402 C403 1.373 1_565 S
C402 C404 1.389 . S
C403 H382 0.950 . S
C403 C402 1.373 1_545 S
C403 C419 1.377 1_556 S
C404 C402 1.389 . S
C404 C405 1.524 . S
C404 C418 1.377 1_556 S
C405 C404 1.524 . S
C405 C406 1.397 . S
C405 C410 1.363 1_556 S
C406 H383 0.950 . S
C406 C405 1.397 . S
C406 C407 1.334 . S
C407 H384 0.950 . S
C407 C406 1.334 . S
C407 C408 1.287 . S
C408 C407 1.287 . S
C408 C409 1.524 1_556 S
C408 H427 0.913 . S
C409 H385 0.950 . S
C409 C408 1.524 1_554 S
C409 C410 1.415 . S
C410 H386 0.950 . S
C410 C405 1.363 1_554 S
C410 C409 1.415 . S
C411 H387 0.951 . S
C411 C412 1.366 . S
C411 C413 1.388 . S
C412 C411 1.366 . S
C412 C416 1.385 . S
C413 H388 0.951 . S
C413 C411 1.388 . S
C413 C414 1.366 . S
C414 C413 1.366 . S
C414 C415 1.414 . S
C414 C417 1.499 . S
C415 H389 0.950 . S
C415 C414 1.414 . S
C415 C416 1.374 . S
C416 H390 0.950 . S
C416 C412 1.385 . S
C416 C415 1.374 . S
C417 C414 1.499 . S
C417 C418 1.373 1_545 S
C417 C419 1.389 . S
C418 H391 0.950 . S
C418 C404 1.377 1_554 S
C418 C417 1.373 1_565 S
C419 C403 1.377 1_554 S
C419 C417 1.389 . S
C419 C420 1.524 . S
C420 C419 1.524 . S
C420 C421 1.397 . S
C420 C425 1.363 1_554 S
C421 H392 0.950 . S
C421 C420 1.397 . S
C421 C422 1.334 . S
C422 H393 0.950 . S
C422 C421 1.334 . S
C422 C423 1.287 . S
C423 C422 1.287 . S
C423 C424 1.524 1_554 S
C423 H426 0.999 . S
C424 H394 0.950 . S
C424 C423 1.524 1_556 S
C424 C425 1.415 . S
C425 H395 0.950 . S
C425 C420 1.363 1_556 S
C425 C424 1.415 . S
H426 C423 0.999 . S
H427 C408 0.913 . S
H428 C446 0.951 . S
H429 C448 0.951 . S
H430 C450 0.950 . S
H431 C451 0.950 . S
H432 C453 0.950 . S
H433 C456 0.950 . S
H434 C457 0.950 . S
H435 C459 0.950 . S
H436 C460 0.950 . S
H437 C461 0.951 . S
H438 C463 0.951 . S
H439 C465 0.950 . S
H440 C466 0.950 . S
H441 C468 0.950 . S
H442 C471 0.950 . S
H443 C472 0.950 . S
H444 C474 0.950 . S
H445 C475 0.950 . S
C446 H428 0.951 . S
C446 C447 1.366 . S
C446 C448 1.388 . S
C447 C446 1.366 . S
C447 C451 1.385 . S
C448 H429 0.951 . S
C448 C446 1.388 . S
C448 C449 1.366 . S
C449 C448 1.366 . S
C449 C450 1.414 . S
C449 C452 1.499 . S
C450 H430 0.950 . S
C450 C449 1.414 . S
C450 C451 1.374 . S
C451 H431 0.950 . S
C451 C447 1.385 . S
C451 C450 1.374 . S
C452 C449 1.499 . S
C452 C453 1.373 . S
C452 C454 1.389 . S
C453 H432 0.950 . S
C453 C452 1.373 . S
C453 C469 1.377 . S
C454 C452 1.389 . S
C454 C455 1.524 . S
C454 C468 1.377 . S
C455 C454 1.524 . S
C455 C456 1.397 . S
C455 C460 1.363 . S
C456 H433 0.950 . S
C456 C455 1.397 . S
C456 C457 1.334 . S
C457 H434 0.950 . S
C457 C456 1.334 . S
C457 C458 1.287 . S
C458 C457 1.287 . S
C458 C459 1.524 . S
C458 H477 0.913 . S
C459 H435 0.950 . S
C459 C458 1.524 . S
C459 C460 1.415 . S
C460 H436 0.950 . S
C460 C455 1.363 . S
C460 C459 1.415 . S
C461 H437 0.951 . S
C461 C462 1.366 . S
C461 C463 1.388 . S
C462 C461 1.366 . S
C462 C466 1.385 . S
C463 H438 0.951 . S
C463 C461 1.388 . S
C463 C464 1.366 . S
C464 C463 1.366 . S
C464 C465 1.414 . S
C464 C467 1.499 . S
C465 H439 0.950 . S
C465 C464 1.414 . S
C465 C466 1.374 . S
C466 H440 0.950 . S
C466 C462 1.385 . S
C466 C465 1.374 . S
C467 C464 1.499 . S
C467 C468 1.373 . S
C467 C469 1.389 . S
C468 H441 0.950 . S
C468 C454 1.377 . S
C468 C467 1.373 . S
C469 C453 1.377 . S
C469 C467 1.389 . S
C469 C470 1.524 . S
C470 C469 1.524 . S
C470 C471 1.397 . S
C470 C475 1.363 . S
C471 H442 0.950 . S
C471 C470 1.397 . S
C471 C472 1.334 . S
C472 H443 0.950 . S
C472 C471 1.334 . S
C472 C473 1.287 . S
C473 C472 1.287 . S
C473 C474 1.524 . S
C473 H476 0.999 . S
C474 H444 0.950 . S
C474 C473 1.524 . S
C474 C475 1.415 . S
C475 H445 0.950 . S
C475 C470 1.363 . S
C475 C474 1.415 . S
H476 C473 0.999 . S
H477 C458 0.913 . S
H478 C496 0.951 . S
H479 C498 0.951 . S
H480 C500 0.950 . S
H481 C501 0.950 . S
H482 C503 0.950 . S
H483 C506 0.950 1_556 S
H484 C507 0.950 . S
H485 C509 0.950 . S
H486 C510 0.950 . S
H487 C511 0.951 . S
H488 C513 0.951 . S
H489 C515 0.950 . S
H490 C516 0.950 . S
H491 C518 0.950 . S
H492 C521 0.950 . S
H493 C522 0.950 . S
H494 C524 0.950 . S
H495 C525 0.950 . S
C496 H478 0.951 . S
C496 C497 1.366 . S
C496 C498 1.388 . S
C497 C496 1.366 . S
C497 C501 1.385 . S
C498 H479 0.951 . S
C498 C496 1.388 . S
C498 C499 1.366 . S
C499 C498 1.366 . S
C499 C500 1.414 . S
C499 C502 1.499 . S
C500 H480 0.950 . S
C500 C499 1.414 . S
C500 C501 1.374 . S
C501 H481 0.950 . S
C501 C497 1.385 . S
C501 C500 1.374 . S
C502 C499 1.499 . S
C502 C503 1.373 1_455 S
C502 C504 1.389 1_556 S
C503 H482 0.950 . S
C503 C502 1.373 1_655 S
C503 C519 1.377 1_556 S
C504 C502 1.389 1_554 S
C504 C505 1.524 . S
C504 C518 1.377 . S
C505 C504 1.524 . S
C505 C506 1.397 . S
C505 C510 1.363 . S
C506 H483 0.950 1_554 S
C506 C505 1.397 . S
C506 C507 1.334 . S
C507 H484 0.950 . S
C507 C506 1.334 . S
C507 C508 1.287 . S
C508 C507 1.287 . S
C508 C509 1.524 . S
C508 H527 0.913 . S
C509 H485 0.950 . S
C509 C508 1.524 . S
C509 C510 1.415 . S
C510 H486 0.950 . S
C510 C505 1.363 . S
C510 C509 1.415 . S
C511 H487 0.951 . S
C511 C512 1.366 . S
C511 C513 1.388 . S
C512 C511 1.366 . S
C512 C516 1.385 . S
C513 H488 0.951 . S
C513 C511 1.388 . S
C513 C514 1.366 . S
C514 C513 1.366 . S
C514 C515 1.414 . S
C514 C517 1.499 . S
C515 H489 0.950 . S
C515 C514 1.414 . S
C515 C516 1.374 . S
C516 H490 0.950 . S
C516 C512 1.385 . S
C516 C515 1.374 . S
C517 C514 1.499 . S
C517 C518 1.373 1_655 S
C517 C519 1.389 . S
C518 H491 0.950 . S
C518 C504 1.377 . S
C518 C517 1.373 1_455 S
C519 C503 1.377 1_554 S
C519 C517 1.389 . S
C519 C520 1.524 . S
C520 C519 1.524 . S
C520 C521 1.397 . S
C520 C525 1.363 1_554 S
C521 H492 0.950 . S
C521 C520 1.397 . S
C521 C522 1.334 . S
C522 H493 0.950 . S
C522 C521 1.334 . S
C522 C523 1.287 1_554 S
C523 C522 1.287 1_556 S
C523 C524 1.524 . S
C523 H526 0.999 . S
C524 H494 0.950 . S
C524 C523 1.524 . S
C524 C525 1.415 . S
C525 H495 0.950 . S
C525 C520 1.363 1_556 S
C525 C524 1.415 . S
H526 C523 0.999 . S
H527 C508 0.913 . S
H528 C546 0.951 . S
H529 C548 0.951 . S
H530 C550 0.950 . S
H531 C551 0.950 . S
H532 C553 0.950 . S
H533 C556 0.950 . S
H534 C557 0.950 . S
H535 C559 0.950 . S
H536 C560 0.950 . S
H537 C561 0.951 . S
H538 C563 0.951 . S
H539 C565 0.950 . S
H540 C566 0.950 . S
H541 C568 0.950 . S
H542 C571 0.950 . S
H543 C572 0.950 . S
H544 C574 0.950 . S
H545 C575 0.950 . S
C546 H528 0.951 . S
C546 C547 1.366 . S
C546 C548 1.388 . S
C547 C546 1.366 . S
C547 C551 1.385 . S
C548 H529 0.951 . S
C548 C546 1.388 . S
C548 C549 1.366 . S
C549 C548 1.366 . S
C549 C550 1.414 . S
C549 C552 1.499 . S
C550 H530 0.950 . S
C550 C549 1.414 . S
C550 C551 1.374 . S
C551 H531 0.950 . S
C551 C547 1.385 . S
C551 C550 1.374 . S
C552 C549 1.499 . S
C552 C553 1.373 1_545 S
C552 C554 1.389 . S
C553 H532 0.950 . S
C553 C552 1.373 1_565 S
C553 C569 1.377 . S
C554 C552 1.389 . S
C554 C555 1.524 . S
C554 C568 1.377 . S
C555 C554 1.524 . S
C555 C556 1.397 . S
C555 C560 1.363 . S
C556 H533 0.950 . S
C556 C555 1.397 . S
C556 C557 1.334 . S
C557 H534 0.950 . S
C557 C556 1.334 . S
C557 C558 1.287 . S
C558 C557 1.287 . S
C558 C559 1.524 . S
C558 H577 0.913 . S
C559 H535 0.950 . S
C559 C558 1.524 . S
C559 C560 1.415 . S
C560 H536 0.950 . S
C560 C555 1.363 . S
C560 C559 1.415 . S
C561 H537 0.951 . S
C561 C562 1.366 . S
C561 C563 1.388 . S
C562 C561 1.366 . S
C562 C566 1.385 . S
C563 H538 0.951 . S
C563 C561 1.388 . S
C563 C564 1.366 . S
C564 C563 1.366 . S
C564 C565 1.414 . S
C564 C567 1.499 . S
C565 H539 0.950 . S
C565 C564 1.414 . S
C565 C566 1.374 . S
C566 H540 0.950 . S
C566 C562 1.385 . S
C566 C565 1.374 . S
C567 C564 1.499 . S
C567 C568 1.373 1_565 S
C567 C569 1.389 . S
C568 H541 0.950 . S
C568 C554 1.377 . S
C568 C567 1.373 1_545 S
C569 C553 1.377 . S
C569 C567 1.389 . S
C569 C570 1.524 . S
C570 C569 1.524 . S
C570 C571 1.397 . S
C570 C575 1.363 . S
C571 H542 0.950 . S
C571 C570 1.397 . S
C571 C572 1.334 . S
C572 H543 0.950 . S
C572 C571 1.334 . S
C572 C573 1.287 . S
C573 C572 1.287 . S
C573 C574 1.524 . S
C573 H576 0.999 . S
C574 H544 0.950 . S
C574 C573 1.524 . S
C574 C575 1.415 . S
C575 H545 0.950 . S
C575 C570 1.363 . S
C575 C574 1.415 . S
H576 C573 0.999 . S
H577 C558 0.913 . S
H578 C596 0.951 . S
H579 C598 0.951 . S
H580 C600 0.950 . S
H581 C601 0.950 . S
H582 C603 0.950 . S
H583 C606 0.950 . S
H584 C607 0.950 . S
H585 C609 0.950 . S
H586 C610 0.950 . S
H587 C611 0.951 . S
H588 C613 0.951 . S
H589 C615 0.950 . S
H590 C616 0.950 . S
H591 C618 0.950 . S
H592 C621 0.950 . S
H593 C622 0.950 . S
H594 C624 0.950 . S
H595 C625 0.950 . S
C596 H578 0.951 . S
C596 C597 1.366 . S
C596 C598 1.388 . S
C597 C596 1.366 . S
C597 C601 1.385 . S
C598 H579 0.951 . S
C598 C596 1.388 . S
C598 C599 1.366 . S
C599 C598 1.366 . S
C599 C600 1.414 . S
C599 C602 1.499 . S
C600 H580 0.950 . S
C600 C599 1.414 . S
C600 C601 1.374 . S
C601 H581 0.950 . S
C601 C597 1.385 . S
C601 C600 1.374 . S
C602 C599 1.499 . S
C602 C603 1.373 . S
C602 C604 1.389 . S
C603 H582 0.950 . S
C603 C602 1.373 . S
C603 C619 1.377 1_556 S
C604 C602 1.389 . S
C604 C605 1.524 . S
C604 C618 1.377 . S
C605 C604 1.524 . S
C605 C606 1.397 . S
C605 C610 1.363 . S
C606 H583 0.950 . S
C606 C605 1.397 . S
C606 C607 1.334 . S
C607 H584 0.950 . S
C607 C606 1.334 . S
C607 C608 1.287 . S
C608 C607 1.287 . S
C608 C609 1.524 . S
C608 H627 0.913 . S
C609 H585 0.950 . S
C609 C608 1.524 . S
C609 C610 1.415 . S
C610 H586 0.950 . S
C610 C605 1.363 . S
C610 C609 1.415 . S
C611 H587 0.951 . S
C611 C612 1.366 . S
C611 C613 1.388 . S
C612 C611 1.366 . S
C612 C616 1.385 . S
C613 H588 0.951 . S
C613 C611 1.388 . S
C613 C614 1.366 . S
C614 C613 1.366 . S
C614 C615 1.414 . S
C614 C617 1.499 . S
C615 H589 0.950 . S
C615 C614 1.414 . S
C615 C616 1.374 . S
C616 H590 0.950 . S
C616 C612 1.385 . S
C616 C615 1.374 . S
C617 C614 1.499 . S
C617 C618 1.373 1_554 S
C617 C619 1.389 . S
C618 H591 0.950 . S
C618 C604 1.377 . S
C618 C617 1.373 1_556 S
C619 C603 1.377 1_554 S
C619 C617 1.389 . S
C619 C620 1.524 . S
C620 C619 1.524 . S
C620 C621 1.397 . S
C620 C625 1.363 . S
C621 H592 0.950 . S
C621 C620 1.397 . S
C621 C622 1.334 . S
C622 H593 0.950 . S
C622 C621 1.334 . S
C622 C623 1.287 . S
C623 C622 1.287 . S
C623 C624 1.524 . S
C623 H626 0.999 . S
C624 H594 0.950 . S
C624 C623 1.524 . S
C624 C625 1.415 . S
C625 H595 0.950 . S
C625 C620 1.363 . S
C625 C624 1.415 . S
H626 C623 0.999 . S
H627 C608 0.913 . S
H628 C646 0.951 . S
H629 C648 0.951 . S
H630 C650 0.950 . S
H631 C651 0.950 . S
H632 C653 0.950 . S
H633 C656 0.950 . S
H634 C657 0.950 . S
H635 C659 0.950 . S
H636 C660 0.950 . S
H637 C661 0.951 . S
H638 C663 0.951 . S
H639 C665 0.950 . S
H640 C666 0.950 . S
H641 C668 0.950 . S
H642 C671 0.950 . S
H643 C672 0.950 . S
H644 C674 0.950 . S
H645 C675 0.950 . S
C646 H628 0.951 . S
C646 C647 1.366 . S
C646 C648 1.388 . S
C647 C646 1.366 . S
C647 C651 1.385 . S
C648 H629 0.951 . S
C648 C646 1.388 . S
C648 C649 1.366 . S
C649 C648 1.366 . S
C649 C650 1.414 . S
C649 C652 1.499 . S
C650 H630 0.950 . S
C650 C649 1.414 . S
C650 C651 1.374 . S
C651 H631 0.950 . S
C651 C647 1.385 . S
C651 C650 1.374 . S
C652 C649 1.499 . S
C652 C653 1.373 . S
C652 C654 1.389 1_455 S
C653 H632 0.950 . S
C653 C652 1.373 . S
C653 C669 1.377 . S
C654 C652 1.389 1_655 S
C654 C655 1.524 . S
C654 C668 1.377 . S
C655 C654 1.524 . S
C655 C656 1.397 . S
C655 C660 1.363 . S
C656 H633 0.950 . S
C656 C655 1.397 . S
C656 C657 1.334 . S
C657 H634 0.950 . S
C657 C656 1.334 . S
C657 C658 1.287 . S
C658 C657 1.287 . S
C658 C659 1.524 . S
C658 H677 0.913 . S
C659 H635 0.950 . S
C659 C658 1.524 . S
C659 C660 1.415 . S
C660 H636 0.950 . S
C660 C655 1.363 . S
C660 C659 1.415 . S
C661 H637 0.951 . S
C661 C662 1.366 . S
C661 C663 1.388 . S
C662 C661 1.366 . S
C662 C666 1.385 . S
C663 H638 0.951 . S
C663 C661 1.388 . S
C663 C664 1.366 . S
C664 C663 1.366 . S
C664 C665 1.414 . S
C664 C667 1.499 . S
C665 H639 0.950 . S
C665 C664 1.414 . S
C665 C666 1.374 . S
C666 H640 0.950 . S
C666 C662 1.385 . S
C666 C665 1.374 . S
C667 C664 1.499 . S
C667 C668 1.373 . S
C667 C669 1.389 1_655 S
C668 H641 0.950 . S
C668 C654 1.377 . S
C668 C667 1.373 . S
C669 C653 1.377 . S
C669 C667 1.389 1_455 S
C669 C670 1.524 . S
C670 C669 1.524 . S
C670 C671 1.397 . S
C670 C675 1.363 . S
C671 H642 0.950 . S
C671 C670 1.397 . S
C671 C672 1.334 . S
C672 H643 0.950 . S
C672 C671 1.334 . S
C672 C673 1.287 . S
C673 C672 1.287 . S
C673 C674 1.524 . S
C673 H676 0.999 . S
C674 H644 0.950 . S
C674 C673 1.524 . S
C674 C675 1.415 . S
C675 H645 0.950 . S
C675 C670 1.363 . S
C675 C674 1.415 . S
H676 C673 0.999 . S
H677 C658 0.913 . S
C97 C5 0.744 . S
C112 C57 0.745 . S
C147 C23 0.788 . S
C162 C75 0.787 . S
C197 C10 0.771 . S
C212 C31 0.764 . S
C247 C49 0.769 . S
C262 C18 0.767 . S
C297 C62 0.789 . S
C312 C36 0.789 . S
C347 C44 0.743 . S
C362 C70 0.745 . S
C397 C47 1.264 . S
C412 C8 1.263 . S
C447 C60 1.300 . S
C462 C13 1.296 . S
C497 C65 1.282 . S
C512 C34 1.292 . S
C547 C0 1.291 . S
C562 C39 1.291 . S
C597 C21 1.291 . S
C612 C52 1.282 . S
C647 C73 1.300 . S
C662 C26 1.296 . S
