# Generated by pormake.
# Topology fni, (5)-cn, num edge types: 1
# Building blocks:
#     Node 0, Type 0, BuildingBlock: XOMCOT_clean_sbu_0, # of connection points: 5
#     Node 1, Type 0, BuildingBlock: XOMCOT_clean_sbu_0, # of connection points: 5
#     Node 2, Type 0, BuildingBlock: XOMCOT_clean_sbu_0, # of connection points: 5
#     Node 3, Type 0, BuildingBlock: XOMCOT_clean_sbu_0, # of connection points: 5
#     Node 4, Type 0, BuildingBlock: XOMCOT_clean_sbu_0, # of connection points: 5
#     Node 5, Type 0, BuildingBlock: XOMCOT_clean_sbu_0, # of connection points: 5
#     Node 6, Type 0, BuildingBlock: XOMCOT_clean_sbu_0, # of connection points: 5
#     Node 7, Type 0, BuildingBlock: XOMCOT_clean_sbu_0, # of connection points: 5
#     Edge 8, Type (0, 0), BuildingBlock: ZUJKAS_clean_linker_0, # of connection points: 2
#     Edge 9, Type (0, 0), BuildingBlock: ZUJKAS_clean_linker_0, # of connection points: 2
#     Edge 10, Type (0, 0), BuildingBlock: ZUJKAS_clean_linker_0, # of connection points: 2
#     Edge 11, Type (0, 0), BuildingBlock: ZUJKAS_clean_linker_0, # of connection points: 2
#     Edge 12, Type (0, 0), BuildingBlock: ZUJKAS_clean_linker_0, # of connection points: 2
#     Edge 13, Type (0, 0), BuildingBlock: ZUJKAS_clean_linker_0, # of connection points: 2
#     Edge 14, Type (0, 0), BuildingBlock: ZUJKAS_clean_linker_0, # of connection points: 2
#     Edge 15, Type (0, 0), BuildingBlock: ZUJKAS_clean_linker_0, # of connection points: 2
#     Edge 16, Type (0, 0), BuildingBlock: ZUJKAS_clean_linker_0, # of connection points: 2
#     Edge 17, Type (0, 0), BuildingBlock: ZUJKAS_clean_linker_0, # of connection points: 2
#     Edge 18, Type (0, 0), BuildingBlock: ZUJKAS_clean_linker_0, # of connection points: 2
#     Edge 19, Type (0, 0), BuildingBlock: ZUJKAS_clean_linker_0, # of connection points: 2
#     Edge 20, Type (0, 0), BuildingBlock: ZUJKAS_clean_linker_0, # of connection points: 2
#     Edge 21, Type (0, 0), BuildingBlock: ZUJKAS_clean_linker_0, # of connection points: 2
#     Edge 22, Type (0, 0), BuildingBlock: ZUJKAS_clean_linker_0, # of connection points: 2
#     Edge 23, Type (0, 0), BuildingBlock: ZUJKAS_clean_linker_0, # of connection points: 2
#     Edge 24, Type (0, 0), BuildingBlock: ZUJKAS_clean_linker_0, # of connection points: 2
#     Edge 25, Type (0, 0), BuildingBlock: ZUJKAS_clean_linker_0, # of connection points: 2
#     Edge 26, Type (0, 0), BuildingBlock: ZUJKAS_clean_linker_0, # of connection points: 2
#     Edge 27, Type (0, 0), BuildingBlock: ZUJKAS_clean_linker_0, # of connection points: 2
# Relax obj value: 0.073
# Max RMSD: 0.154
# Mean RMSD: 0.154
data_MOF--net-fni--node1-XOMCOT_clean_sbu_0--edge1-ZUJKAS_clean_linker_0
_symmetry_space_group_name_H-M    P1
_symmetry_Int_Tables_number       1
_symmetry_cell_setting            triclinic
loop_
_symmetry_equiv_pos_as_xyz
'x, y, z'
_cell_length_a     68.704214
_cell_length_b     69.251606
_cell_length_c     22.098655
_cell_angle_alpha  89.571651
_cell_angle_beta   90.456505
_cell_angle_gamma 90.015033
loop_
_atom_site_label
_atom_site_type_symbol
_atom_site_fract_x
_atom_site_fract_y
_atom_site_fract_z
_atom_type_partial_charge
Co0 Co 0.39692 0.36632 0.01304 0.0
C1 C 0.39514 0.37094 0.14609 0.0
C2 C 0.36686 0.37254 0.10423 0.0
C3 C 0.36472 0.37444 0.16566 0.0
N4 N 0.38591 0.37051 0.09196 0.0
N5 N 0.38247 0.37339 0.19196 0.0
H6 H 0.41072 0.36935 0.15172 0.0
H7 H 0.35522 0.37215 0.07113 0.0
C8 C 0.37232 0.39527 0.93916 0.0
O9 O 0.38761 0.40344 0.91437 0.0
N10 N 0.4078 0.36164 0.93305 0.0
C11 C 0.42563 0.3545 0.92094 0.0
C12 C 0.42757 0.35247 0.85956 0.0
C13 C 0.39885 0.3629 0.87837 0.0
N14 N 0.41075 0.35784 0.83267 0.0
C15 C 0.43294 0.38677 0.02464 0.0
C16 C 0.41781 0.42327 0.04089 0.0
C17 C 0.4381 0.4211 0.0369 0.0
C18 C 0.44555 0.40243 0.03017 0.0
C19 C 0.40563 0.40707 0.03496 0.0
N20 N 0.41324 0.38922 0.02352 0.0
H21 H 0.43917 0.37257 0.02254 0.0
H22 H 0.39011 0.40892 0.03968 0.0
H23 H 0.43647 0.35032 0.95408 0.0
H24 H 0.38373 0.36665 0.87187 0.0
O25 O 0.41426 0.34699 0.04754 0.0
O26 O 0.3848 0.34115 0.01066 0.0
O27 O 0.37437 0.38132 0.97681 0.0
C28 C 0.40063 0.33448 0.03584 0.0
H29 H 0.35106 0.37574 0.18936 0.0
H30 H 0.44046 0.34747 0.83663 0.0
H31 H 0.41137 0.43735 0.04775 0.0
H32 H 0.46109 0.39982 0.03017 0.0
Co33 Co 0.63572 0.89311 0.25302 0.0
C34 C 0.63668 0.8897 0.38722 0.0
C35 C 0.64224 0.86272 0.34332 0.0
C36 C 0.64355 0.85987 0.40485 0.0
N37 N 0.63784 0.88136 0.33231 0.0
N38 N 0.64009 0.87683 0.43253 0.0
H39 H 0.63398 0.90492 0.39377 0.0
H40 H 0.64472 0.85201 0.30892 0.0
C41 C 0.60971 0.86518 0.18222 0.0
O42 O 0.60155 0.87911 0.15027 0.0
N43 N 0.634 0.90485 0.17305 0.0
C44 C 0.62988 0.92344 0.15985 0.0
C45 C 0.63046 0.92605 0.09824 0.0
C46 C 0.63777 0.89658 0.11912 0.0
N47 N 0.63522 0.90913 0.07243 0.0
C48 C 0.61392 0.92495 0.29867 0.0
C49 C 0.57714 0.90922 0.28904 0.0
C50 C 0.57905 0.92863 0.30589 0.0
C51 C 0.59779 0.93624 0.31231 0.0
C52 C 0.59381 0.89824 0.27679 0.0
N53 N 0.61192 0.90647 0.27811 0.0
H54 H 0.62806 0.93153 0.30276 0.0
H55 H 0.59188 0.88322 0.26663 0.0
H56 H 0.62701 0.93461 0.19227 0.0
H57 H 0.64176 0.88157 0.11421 0.0
O58 O 0.65481 0.91236 0.27607 0.0
O59 O 0.66175 0.88419 0.23512 0.0
O60 O 0.62175 0.86906 0.22481 0.0
C61 C 0.66798 0.90041 0.25735 0.0
H62 H 0.64676 0.8463 0.42735 0.0
H63 H 0.62782 0.93952 0.07443 0.0
H64 H 0.5629 0.90258 0.28555 0.0
H65 H 0.60001 0.95111 0.32556 0.0
Co66 Co 0.10884 0.13859 0.50424 0.0
C67 C 0.11303 0.13531 0.63939 0.0
C68 C 0.14021 0.13986 0.59476 0.0
C69 C 0.14355 0.13965 0.65621 0.0
N70 N 0.12113 0.13669 0.58388 0.0
N71 N 0.12643 0.13684 0.6843 0.0
H72 H 0.09768 0.13383 0.64744 0.0
H73 H 0.15092 0.14278 0.56027 0.0
C74 C 0.14092 0.10969 0.48867 0.0
O75 O 0.13535 0.10094 0.53861 0.0
N76 N 0.097 0.14095 0.42499 0.0
C77 C 0.07781 0.14155 0.41249 0.0
C78 C 0.07531 0.14227 0.35063 0.0
C79 C 0.10594 0.14138 0.37084 0.0
N80 N 0.093 0.14213 0.32436 0.0
C81 C 0.07813 0.11601 0.55627 0.0
C82 C 0.08318 0.08351 0.48646 0.0
C83 C 0.06792 0.08378 0.52828 0.0
C84 C 0.06547 0.1004 0.56322 0.0
C85 C 0.09551 0.0995 0.48093 0.0
N86 N 0.09344 0.11524 0.51737 0.0
H87 H 0.07493 0.12909 0.58028 0.0
H88 H 0.10622 0.09941 0.44551 0.0
H89 H 0.06643 0.14109 0.44601 0.0
H90 H 0.12158 0.14113 0.3657 0.0
O91 O 0.09091 0.15761 0.53526 0.0
O92 O 0.11972 0.16413 0.49568 0.0
O93 O 0.13127 0.12406 0.46783 0.0
C94 C 0.10394 0.17046 0.52087 0.0
H95 H 0.15738 0.14227 0.67847 0.0
H96 H 0.06146 0.14232 0.32696 0.0
H97 H 0.08545 0.07118 0.45754 0.0
H98 H 0.05336 0.1017 0.59399 0.0
Co99 Co 0.87486 0.61224 0.75334 0.0
C100 C 0.87186 0.6126 0.61903 0.0
C101 C 0.84401 0.61504 0.66162 0.0
C102 C 0.84134 0.61631 0.60004 0.0
N103 N 0.8631 0.6126 0.67357 0.0
N104 N 0.85884 0.61486 0.57317 0.0
H105 H 0.88744 0.61175 0.61315 0.0
H106 H 0.83282 0.61639 0.69533 0.0
C107 C 0.846 0.588 0.82877 0.0
O108 O 0.85941 0.58053 0.86462 0.0
N109 N 0.88678 0.61224 0.83329 0.0
C110 C 0.90576 0.60921 0.84573 0.0
C111 C 0.90874 0.61063 0.90701 0.0
C112 C 0.87859 0.61623 0.88725 0.0
N113 N 0.89163 0.61481 0.93342 0.0
C114 C 0.90697 0.59049 0.70883 0.0
C115 C 0.89434 0.55407 0.74113 0.0
C116 C 0.91358 0.5564 0.7214 0.0
C117 C 0.91952 0.57483 0.70305 0.0
C118 C 0.88208 0.57022 0.74558 0.0
N119 N 0.88887 0.5884 0.73334 0.0
H120 H 0.91246 0.60451 0.69638 0.0
H121 H 0.86733 0.56784 0.75928 0.0
H122 H 0.91689 0.60646 0.81274 0.0
H123 H 0.86333 0.61957 0.89263 0.0
O124 O 0.89398 0.63096 0.72684 0.0
O125 O 0.86547 0.63827 0.76606 0.0
O126 O 0.85066 0.59873 0.78382 0.0
C127 C 0.88171 0.64421 0.74254 0.0
H128 H 0.82753 0.61827 0.57695 0.0
H129 H 0.92258 0.60889 0.93012 0.0
H130 H 0.88886 0.53994 0.75361 0.0
H131 H 0.93418 0.57744 0.68723 0.0
Co132 Co 0.36996 0.10862 0.27936 0.0
C133 C 0.37109 0.11211 0.41303 0.0
C134 C 0.36827 0.13962 0.36837 0.0
C135 C 0.36767 0.14246 0.42983 0.0
N136 N 0.37051 0.12064 0.35789 0.0
N137 N 0.36935 0.12517 0.45801 0.0
H138 H 0.37197 0.09665 0.41988 0.0
H139 H 0.36654 0.15059 0.33374 0.0
C140 C 0.39674 0.13457 0.20387 0.0
O141 O 0.40436 0.11991 0.175 0.0
N142 N 0.36901 0.09659 0.2001 0.0
C143 C 0.36995 0.07756 0.1881 0.0
C144 C 0.36879 0.07497 0.12663 0.0
C145 C 0.36638 0.10524 0.14553 0.0
N146 N 0.36676 0.0924 0.09967 0.0
C147 C 0.39145 0.07537 0.31861 0.0
C148 C 0.42842 0.09067 0.31013 0.0
C149 C 0.42632 0.07091 0.32309 0.0
C150 C 0.40751 0.06349 0.32919 0.0
C151 C 0.41184 0.10219 0.30083 0.0
N152 N 0.39362 0.0942 0.30089 0.0
H153 H 0.3772 0.06908 0.32316 0.0
H154 H 0.41387 0.11744 0.29392 0.0
H155 H 0.37105 0.06612 0.22124 0.0
H156 H 0.36474 0.12067 0.13945 0.0
O157 O 0.3506 0.0905 0.30827 0.0
O158 O 0.34406 0.11878 0.26569 0.0
O159 O 0.38443 0.13175 0.24612 0.0
C160 C 0.3376 0.10306 0.29102 0.0
H161 H 0.36594 0.15624 0.4519 0.0
H162 H 0.36921 0.06123 0.10368 0.0
H163 H 0.44274 0.09717 0.30744 0.0
H164 H 0.40513 0.04839 0.33997 0.0
Co165 Co 0.88941 0.87325 0.52706 0.0
C166 C 0.88597 0.87603 0.66034 0.0
C167 C 0.85811 0.87719 0.61579 0.0
C168 C 0.85526 0.87752 0.6773 0.0
N169 N 0.87735 0.87632 0.60518 0.0
N170 N 0.87276 0.87667 0.70545 0.0
H171 H 0.90152 0.8746 0.66714 0.0
H172 H 0.84687 0.87701 0.58138 0.0
C173 C 0.86567 0.90111 0.44815 0.0
O174 O 0.88132 0.90868 0.42368 0.0
N175 N 0.90138 0.8697 0.44801 0.0
C176 C 0.92031 0.86617 0.43654 0.0
C177 C 0.92281 0.86456 0.37516 0.0
C178 C 0.89251 0.86906 0.39307 0.0
N179 N 0.90535 0.86659 0.34765 0.0
C180 C 0.92442 0.89431 0.55175 0.0
C181 C 0.90812 0.9307 0.55576 0.0
C182 C 0.92844 0.9289 0.55987 0.0
C183 C 0.93647 0.91031 0.55938 0.0
C184 C 0.89657 0.91419 0.54843 0.0
N185 N 0.90489 0.89639 0.54222 0.0
H186 H 0.93092 0.88019 0.55399 0.0
H187 H 0.88095 0.91581 0.54807 0.0
H188 H 0.93164 0.86426 0.46998 0.0
H189 H 0.877 0.87052 0.38624 0.0
O190 O 0.90664 0.85392 0.56186 0.0
O191 O 0.87779 0.84803 0.52045 0.0
O192 O 0.86713 0.88806 0.4891 0.0
C193 C 0.89323 0.8414 0.54795 0.0
H194 H 0.84128 0.87812 0.69941 0.0
H195 H 0.93645 0.86178 0.35268 0.0
H196 H 0.90119 0.9447 0.55873 0.0
H197 H 0.95202 0.90808 0.56372 0.0
Co198 Co 0.14101 0.39806 0.74448 0.0
C199 C 0.13712 0.39443 0.87924 0.0
C200 C 0.14259 0.36739 0.83623 0.0
C201 C 0.14222 0.36434 0.89772 0.0
N202 N 0.13889 0.38617 0.82426 0.0
N203 N 0.13882 0.38136 0.9248 0.0
H204 H 0.13541 0.40968 0.88642 0.0
H205 H 0.14608 0.35671 0.80255 0.0
C206 C 0.11353 0.36498 0.72669 0.0
O207 O 0.10396 0.37076 0.77454 0.0
N208 N 0.14366 0.40959 0.66523 0.0
C209 C 0.14376 0.42862 0.65261 0.0
C210 C 0.14456 0.43107 0.59084 0.0
C211 C 0.14445 0.40067 0.61125 0.0
N212 N 0.14495 0.41349 0.56476 0.0
C213 C 0.11441 0.4267 0.79156 0.0
C214 C 0.08431 0.41885 0.71176 0.0
C215 C 0.08174 0.43359 0.75407 0.0
C216 C 0.09718 0.43752 0.79421 0.0
C217 C 0.10172 0.40852 0.71052 0.0
N218 N 0.11623 0.41177 0.75196 0.0
H219 H 0.12657 0.43099 0.81942 0.0
H220 H 0.10366 0.39827 0.67456 0.0
H221 H 0.14278 0.43992 0.68598 0.0
H222 H 0.14452 0.38515 0.60619 0.0
O223 O 0.15898 0.41713 0.77742 0.0
O224 O 0.16731 0.38868 0.74054 0.0
O225 O 0.12806 0.37472 0.70743 0.0
C226 C 0.17273 0.40479 0.76524 0.0
H227 H 0.14521 0.35081 0.92079 0.0
H228 H 0.14419 0.44478 0.56705 0.0
H229 H 0.07303 0.41537 0.67913 0.0
H230 H 0.09628 0.44935 0.82585 0.0
Co231 Co 0.61799 0.63123 0.03188 0.0
C232 C 0.62089 0.62897 0.16562 0.0
C233 C 0.64887 0.63124 0.1235 0.0
C234 C 0.65157 0.63059 0.18516 0.0
N235 N 0.62968 0.63009 0.11135 0.0
N236 N 0.63399 0.62917 0.21165 0.0
H237 H 0.60528 0.62809 0.17117 0.0
H238 H 0.66012 0.63288 0.08993 0.0
C239 C 0.64392 0.60345 0.96091 0.0
O240 O 0.62911 0.59557 0.9323 0.0
N241 N 0.60646 0.63273 0.9514 0.0
C242 C 0.58736 0.63381 0.93711 0.0
C243 C 0.58535 0.63557 0.87546 0.0
C244 C 0.61579 0.63459 0.89804 0.0
N245 N 0.60322 0.63597 0.8508 0.0
C246 C 0.58349 0.61029 0.06284 0.0
C247 C 0.59903 0.57356 0.063 0.0
C248 C 0.57882 0.5757 0.06967 0.0
C249 C 0.57125 0.59445 0.07132 0.0
C250 C 0.61084 0.58994 0.05521 0.0
N251 N 0.60282 0.60798 0.05084 0.0
H252 H 0.57717 0.62448 0.06515 0.0
H253 H 0.62636 0.58794 0.05311 0.0
H254 H 0.57553 0.63384 0.96874 0.0
H255 H 0.63146 0.63522 0.89394 0.0
O256 O 0.59991 0.65077 0.05939 0.0
O257 O 0.62883 0.6568 0.02038 0.0
O258 O 0.64117 0.61646 1.00062 0.0
C259 C 0.61287 0.66348 0.04354 0.0
H260 H 0.6654 0.6317 0.20868 0.0
H261 H 0.5717 0.63627 0.85074 0.0
H262 H 0.60566 0.55938 0.06418 0.0
H263 H 0.55583 0.59695 0.07739 0.0
H264 H 0.57987 0.54241 1.00324 0.0
H265 H 0.55582 0.51626 1.00157 0.0
H266 H 0.5235 0.54443 0.14211 0.0
H267 H 0.54743 0.57057 0.14412 0.0
H268 H 0.54258 0.49078 0.09072 0.0
H269 H 0.48249 0.53805 1.00904 0.0
H270 H 0.50765 0.54556 1.0082 0.0
H271 H 0.49409 0.54612 0.07741 0.0
C272 C 0.5678 0.54291 0.03441 0.0
C273 C 0.56549 0.55872 0.07333 0.0
C274 C 0.55399 0.528 0.03315 0.0
C275 C 0.53758 0.52861 0.07067 0.0
C276 C 0.53572 0.54391 0.1115 0.0
H277 H 0.43643 0.45263 0.1122 0.0
H278 H 0.46033 0.47883 0.12167 0.0
C279 C 0.54946 0.55883 0.11269 0.0
C280 C 0.52236 0.51334 0.06672 0.0
H281 H 0.47408 0.50592 0.03556 0.0
C282 C 0.52762 0.49409 0.07853 0.0
C283 C 0.5028 0.51766 0.05093 0.0
C284 C 0.49639 0.53793 0.03511 0.0
C285 C 0.51385 0.47909 0.07564 0.0
C286 C 0.49433 0.48338 0.05945 0.0
C287 C 0.48902 0.50265 0.04812 0.0
C288 C 0.47938 0.46798 0.05225 0.0
C289 C 0.52028 0.45878 0.09086 0.0
C290 C 0.48183 0.45351 1.00888 0.0
C291 C 0.46821 0.43863 1.0032 0.0
C292 C 0.45171 0.43787 0.04058 0.0
C293 C 0.4489 0.45279 0.08255 0.0
C294 C 0.4626 0.46772 0.08824 0.0
H295 H 0.53395 0.45864 0.11808 0.0
H296 H 0.50886 0.4509 0.11635 0.0
H297 H 0.52304 0.45086 0.04831 0.0
H298 H 0.49435 0.45369 0.97942 0.0
H299 H 0.47062 0.42766 0.96941 0.0
H300 H 0.45765 0.06886 0.24781 0.0
H301 H 0.48341 0.04438 0.24818 0.0
H302 H 0.45935 0.01882 0.4097 0.0
H303 H 0.4334 0.04302 0.40888 0.0
H304 H 0.51168 0.03402 0.32711 0.0
H305 H 0.46041 0.97296 0.29827 0.0
H306 H 0.45293 0.99782 0.2901 0.0
H307 H 0.45543 0.98705 0.36415 0.0
C308 C 0.45802 0.05818 0.28385 0.0
C309 C 0.44339 0.05775 0.32797 0.0
C310 C 0.47268 0.04412 0.28385 0.0
C311 C 0.47303 0.02942 0.32804 0.0
C312 C 0.45904 0.02962 0.374 0.0
H313 H 0.57237 0.95393 0.39788 0.0
H314 H 0.54626 0.97782 0.40464 0.0
C315 C 0.44429 0.04354 0.37371 0.0
C316 C 0.48789 0.0138 0.32567 0.0
H317 H 0.49335 0.96476 0.32009 0.0
C318 C 0.50767 0.01888 0.32546 0.0
C319 C 0.48267 0.99403 0.32231 0.0
C320 C 0.46171 0.98761 0.31807 0.0
C321 C 0.52235 0.00478 0.32303 0.0
C322 C 0.51715 0.98497 0.32238 0.0
C323 C 0.49736 0.9799 0.32151 0.0
C324 C 0.53202 0.96935 0.32122 0.0
C325 C 0.54328 0.0113 0.31969 0.0
C326 C 0.53211 0.95587 0.27399 0.0
C327 C 0.54687 0.94197 0.27057 0.0
C328 C 0.56185 0.94134 0.31426 0.0
C329 C 0.5612 0.95426 0.36303 0.0
C330 C 0.54635 0.96801 0.36672 0.0
H331 H 0.54445 0.02643 0.30296 0.0
H332 H 0.5499 0.01067 0.36563 0.0
H333 H 0.55185 1.00186 0.28949 0.0
H334 H 0.52112 0.9565 0.23861 0.0
H335 H 0.54705 0.9323 0.23229 0.0
H336 H 0.96117 0.93363 0.63005 0.0
H337 H 0.9842 0.96054 0.628 0.0
H338 H 0.94818 0.99009 0.49626 0.0
H339 H 0.92514 0.9631 0.49743 0.0
H340 H 0.00442 0.97349 0.52494 0.0
H341 H 0.9596 0.03186 0.62396 0.0
H342 H 0.9534 0.00661 0.63156 0.0
H343 H 0.94837 0.01929 0.56196 0.0
C344 C 0.95809 0.94586 0.60072 0.0
C345 C 0.94134 0.94615 0.56364 0.0
C346 C 0.97124 0.96126 0.59982 0.0
C347 C 0.96785 0.97735 0.56228 0.0
C348 C 0.95091 0.97795 0.52634 0.0
H349 H 0.0525 0.06168 0.43701 0.0
H350 H 0.02872 0.03554 0.44559 0.0
C351 C 0.93774 0.96252 0.52714 0.0
C352 C 0.98261 0.99294 0.55831 0.0
H353 H 0.98995 0.04109 0.58201 0.0
C354 C 1.00128 0.98826 0.53754 0.0
C355 C 0.97851 0.01216 0.57522 0.0
C356 C 0.95895 0.01784 0.59994 0.0
C357 C 0.0159 0.00234 0.53253 0.0
C358 C 0.01168 0.02165 0.54813 0.0
C359 C 0.99309 0.02629 0.56967 0.0
C360 C 0.02643 0.03721 0.54298 0.0
C361 C 0.03584 0.99641 0.5114 0.0
C362 C 0.03289 0.04693 0.59483 0.0
C363 C 0.04658 0.0618 0.59017 0.0
C364 C 0.05398 0.06737 0.53342 0.0
C365 C 0.04744 0.05755 0.48154 0.0
C366 C 0.03378 0.04264 0.4863 0.0
H367 H 0.03799 0.98053 0.51468 0.0
H368 H 0.0376 1.00078 0.46335 0.0
H369 H 0.04739 0.00365 0.53835 0.0
H370 H 0.0274 0.04294 0.63902 0.0
H371 H 0.05143 0.06889 0.63113 0.0
H372 H 0.06186 0.44783 0.8518 0.0
H373 H 0.03147 0.46642 0.85091 0.0
H374 H 0.02976 0.46419 0.6561 0.0
H375 H 0.06017 0.44606 0.6563 0.0
H376 H 0.02348 0.50245 0.79266 0.0
H377 H 0.97541 0.44438 0.70573 0.0
H378 H 0.99924 0.43962 0.73758 0.0
H379 H 0.9968 0.44842 0.66116 0.0
C380 C 0.05509 0.45139 0.80872 0.0
C381 C 0.06343 0.44521 0.75416 0.0
C382 C 0.03765 0.46192 0.80834 0.0
C383 C 0.02813 0.46634 0.7535 0.0
C384 C 0.03657 0.4605 0.69903 0.0
H385 H 0.94127 0.5475 0.63736 0.0
H386 H 0.96809 0.52445 0.64836 0.0
C387 C 0.05399 0.45008 0.69931 0.0
C388 C 0.00974 0.47764 0.75266 0.0
H389 H 0.96227 0.47634 0.70471 0.0
C390 C 0.01005 0.49666 0.77411 0.0
C391 C 0.99218 0.47005 0.7286 0.0
C392 C 0.99075 0.44943 0.70744 0.0
C393 C 0.99347 0.5085 0.77008 0.0
C394 C 0.97617 0.50112 0.74416 0.0
C395 C 0.97563 0.48195 0.72429 0.0
C396 C 0.9588 0.51352 0.73531 0.0
C397 C 0.99456 0.52902 0.79224 0.0
C398 C 0.94446 0.51462 0.77997 0.0
C399 C 0.92912 0.52785 0.77399 0.0
C400 C 0.92792 0.54024 0.72326 0.0
C401 C 0.94189 0.53838 0.67736 0.0
C402 C 0.95718 0.52518 0.6834 0.0
H403 H 0.00874 0.53228 0.81441 0.0
H404 H 0.99244 0.53912 0.75348 0.0
H405 H 0.98269 0.53173 0.82491 0.0
H406 H 0.94552 0.50572 0.82039 0.0
H407 H 0.91876 0.52904 0.81045 0.0
H408 H 0.41113 0.35395 0.2516 0.0
H409 H 0.41581 0.35171 0.36157 0.0
H410 H 0.36768 0.39069 0.38721 0.0
H411 H 0.36283 0.39279 0.27766 0.0
H412 H 0.42339 0.3791 0.44846 0.0
H413 H 0.35175 0.34467 0.49002 0.0
H414 H 0.36184 0.34712 0.41522 0.0
H415 H 0.35006 0.36731 0.4503 0.0
C416 C 0.4017 0.36219 0.2807 0.0
C417 C 0.38647 0.37337 0.25607 0.0
C418 C 0.40432 0.36083 0.34349 0.0
C419 C 0.39178 0.37065 0.38263 0.0
C420 C 0.37714 0.38251 0.35798 0.0
H421 H 0.38458 0.3809 0.77418 0.0
H422 H 0.37974 0.38397 0.6646 0.0
C423 C 0.37443 0.38376 0.29538 0.0
C424 C 0.39394 0.36846 0.44921 0.0
H425 H 0.36971 0.3545 0.57678 0.0
C426 C 0.41169 0.37363 0.47648 0.0
C427 C 0.37864 0.36133 0.48573 0.0
C428 C 0.35957 0.35461 0.45885 0.0
C429 C 0.41446 0.37215 0.53938 0.0
C430 C 0.39914 0.3651 0.5758 0.0
C431 C 0.38138 0.35997 0.54866 0.0
C432 C 0.40143 0.36262 0.64212 0.0
C433 C 0.43363 0.37843 0.56655 0.0
C434 C 0.41483 0.34922 0.66566 0.0
C435 C 0.4175 0.34731 0.72813 0.0
C436 C 0.40682 0.35875 0.76843 0.0
C437 C 0.39294 0.37175 0.74461 0.0
C438 C 0.39024 0.37362 0.68199 0.0
H439 H 0.44209 0.3876 0.53474 0.0
H440 H 0.43133 0.38657 0.609 0.0
H441 H 0.44248 0.36546 0.57772 0.0
H442 H 0.42329 0.34029 0.63563 0.0
H443 H 0.428 0.33687 0.74476 0.0
H444 H 0.65591 0.88088 0.01669 0.0
H445 H 0.65779 0.87504 0.90752 0.0
H446 H 0.61878 0.92272 0.87372 0.0
H447 H 0.61666 0.92852 0.98195 0.0
H448 H 0.62746 0.86699 0.82371 0.0
H449 H 0.66517 0.93533 0.76478 0.0
H450 H 0.66389 0.92622 0.84141 0.0
H451 H 0.64344 0.93866 0.80805 0.0
C452 C 0.64769 0.89008 0.98607 0.0
C453 C 0.63635 0.90535 1.0083 0.0
C454 C 0.64884 0.88677 0.92367 0.0
C455 C 0.63875 0.89871 0.88244 0.0
C456 C 0.62712 0.91366 0.90456 0.0
H457 H 0.62094 0.90495 0.49333 0.0
H458 H 0.62081 0.90998 0.60299 0.0
C459 C 0.62596 0.91697 0.96665 0.0
C460 C 0.63994 0.8954 0.81626 0.0
H461 H 0.65219 0.91725 0.6827 0.0
C462 C 0.63302 0.87789 0.79287 0.0
C463 C 0.64712 0.9097 0.77611 0.0
C464 C 0.6555 0.92847 0.79878 0.0
C465 C 0.63262 0.87448 0.73025 0.0
C466 C 0.63965 0.88885 0.69007 0.0
C467 C 0.64672 0.9063 0.71352 0.0
C468 C 0.63997 0.88598 0.62355 0.0
C469 C 0.62418 0.85574 0.70754 0.0
C470 C 0.65109 0.87109 0.59864 0.0
C471 C 0.65126 0.86824 0.53611 0.0
C472 C 0.64037 0.88028 0.49695 0.0
C473 C 0.62957 0.89548 0.522 0.0
C474 C 0.62941 0.89832 0.5847 0.0
H475 H 0.61494 0.84859 0.74213 0.0
H476 H 0.61532 0.85814 0.66591 0.0
H477 H 0.63622 0.84574 0.69642 0.0
H478 H 0.65975 0.86171 0.62759 0.0
H479 H 0.6601 0.85668 0.5185 0.0
H480 H 0.09358 0.14764 0.74302 0.0
H481 H 0.08858 0.14836 0.85247 0.0
H482 H 0.14671 0.12661 0.88179 0.0
H483 H 0.15182 0.12588 0.77248 0.0
H484 H 0.09001 0.11909 0.93763 0.0
H485 H 0.14639 0.17416 0.98834 0.0
H486 H 0.13792 0.16944 0.91236 0.0
H487 H 0.15541 0.15365 0.94808 0.0
C488 C 0.10526 0.14288 0.77265 0.0
C489 C 0.12316 0.1368 0.74883 0.0
C490 C 0.10241 0.1434 0.83529 0.0
C491 C 0.11739 0.1379 0.87545 0.0
C492 C 0.13512 0.13142 0.85182 0.0
H493 H 0.12562 0.12886 0.26888 0.0
H494 H 0.13169 0.1277 0.16002 0.0
C495 C 0.13801 0.13098 0.78925 0.0
C496 C 0.11434 0.13864 0.94197 0.0
H497 H 0.13185 0.15856 0.07267 0.0
C498 C 0.0991 0.12779 0.9671 0.0
C499 C 0.12626 0.14995 0.98049 0.0
C500 C 0.1423 0.16261 0.95601 0.0
C501 C 0.0956 0.12776 0.02968 0.0
C502 C 0.10748 0.13909 0.06811 0.0
C503 C 0.12279 0.14985 0.04312 0.0
C504 C 0.10399 0.14024 0.13424 0.0
C505 C 0.0794 0.11534 0.05431 0.0
C506 C 0.08658 0.14806 0.15595 0.0
C507 C 0.08311 0.14889 0.21814 0.0
C508 C 0.097 0.14195 0.26017 0.0
C509 C 0.11464 0.13449 0.23816 0.0
C510 C 0.11811 0.13371 0.17583 0.0
H511 H 0.07491 0.104 0.02173 0.0
H512 H 0.08386 0.10828 0.09752 0.0
H513 H 0.06654 0.12455 0.06334 0.0
H514 H 0.07567 0.15359 0.12471 0.0
H515 H 0.06956 0.15511 0.23318 0.0
H516 H 0.86187 0.6334 0.98957 0.0
H517 H 0.85616 0.63512 0.09885 0.0
H518 H 0.9075 0.60081 0.13235 0.0
H519 H 0.91317 0.59877 0.02417 0.0
H520 H 0.85086 0.6042 0.18203 0.0
H521 H 0.91595 0.64758 0.24235 0.0
H522 H 0.90693 0.64571 0.16564 0.0
H523 H 0.9213 0.62656 0.19843 0.0
C524 C 0.87193 0.6262 0.02013 0.0
C525 C 0.88813 0.61615 0.99771 0.0
C526 C 0.86869 0.62727 0.0826 0.0
C527 C 0.88164 0.61842 0.12377 0.0
C528 C 0.89762 0.60819 0.10155 0.0
H529 H 0.8892 0.59931 0.51215 0.0
H530 H 0.89462 0.60059 0.40262 0.0
C531 C 0.90085 0.60709 0.0394 0.0
C532 C 0.8782 0.61917 0.18996 0.0
H533 H 0.89904 0.6327 0.32406 0.0
C534 C 0.86128 0.6106 0.21309 0.0
C535 C 0.8919 0.62741 0.2304 0.0
C536 C 0.90996 0.6375 0.20803 0.0
C537 C 0.85794 0.60959 0.27568 0.0
C538 C 0.87171 0.6177 0.31617 0.0
C539 C 0.88855 0.62642 0.293 0.0
C540 C 0.86879 0.61742 0.38269 0.0
C541 C 0.83994 0.59936 0.29802 0.0
C542 C 0.85276 0.62683 0.40793 0.0
C543 C 0.84967 0.62617 0.47031 0.0
C544 C 0.86261 0.61616 0.50903 0.0
C545 C 0.879 0.60719 0.48377 0.0
C546 C 0.88207 0.60785 0.42116 0.0
H547 H 0.83364 0.58971 0.26301 0.0
H548 H 0.84321 0.59064 0.33924 0.0
H549 H 0.82876 0.61024 0.30968 0.0
H550 H 0.84261 0.63473 0.37932 0.0
H551 H 0.83717 0.63365 0.48817 0.0
H552 H 0.38248 0.07041 0.01166 0.0
H553 H 0.38214 0.0767 0.9031 0.0
H554 H 0.35041 0.12951 0.9316 0.0
H555 H 0.35062 0.12326 0.04097 0.0
H556 H 0.35075 0.0808 0.82525 0.0
H557 H 0.39586 0.14737 0.82698 0.0
H558 H 0.39414 0.13144 0.89174 0.0
H559 H 0.37483 0.14817 0.87466 0.0
C560 C 0.37526 0.08329 0.99509 0.0
C561 C 0.36649 0.09628 0.03531 0.0
C562 C 0.37518 0.08692 0.93286 0.0
C563 C 0.36645 0.10366 0.90919 0.0
C564 C 0.35758 0.11667 0.94895 0.0
H565 H 0.35182 0.14734 0.5425 0.0
H566 H 0.35094 0.14172 0.65148 0.0
C567 C 0.35768 0.11307 0.01148 0.0
C568 C 0.36639 0.10714 0.84274 0.0
H569 H 0.38215 0.13824 0.73282 0.0
C570 C 0.35764 0.09334 0.80501 0.0
C571 C 0.37541 0.12351 0.8164 0.0
C572 C 0.38575 0.13841 0.85437 0.0
C573 C 0.35747 0.09556 0.74175 0.0
C574 C 0.36657 0.11186 0.71541 0.0
C575 C 0.37521 0.12573 0.75311 0.0
C576 C 0.36708 0.11495 0.64884 0.0
C577 C 0.34722 0.08061 0.70372 0.0
C578 C 0.37659 0.10182 0.61098 0.0
C579 C 0.37721 0.10503 0.54835 0.0
C580 C 0.36847 0.12154 0.52243 0.0
C581 C 0.35898 0.13464 0.56072 0.0
C582 C 0.35836 0.13141 0.62316 0.0
H583 H 0.33696 0.07176 0.73092 0.0
H584 H 0.33904 0.08751 0.66582 0.0
H585 H 0.35819 0.07075 0.68414 0.0
H586 H 0.38375 0.0892 0.62996 0.0
H587 H 0.38486 0.0948 0.52044 0.0
H588 H 0.93062 0.87707 0.25974 0.0
H589 H 0.92446 0.8786 0.15106 0.0
H590 H 0.86554 0.85928 0.17922 0.0
H591 H 0.87159 0.85774 0.28856 0.0
H592 H 0.91405 0.85013 0.07246 0.0
H593 H 0.85731 0.90717 0.07496 0.0
H594 H 0.87239 0.90169 0.14008 0.0
H595 H 0.85192 0.88658 0.12174 0.0
C596 C 0.91637 0.87298 0.24302 0.0
C597 C 0.90162 0.86722 0.28317 0.0
C598 C 0.91285 0.87397 0.18072 0.0
C599 C 0.89447 0.86932 0.15689 0.0
C600 C 0.87972 0.86338 0.19662 0.0
H601 H 0.84777 0.86391 0.79172 0.0
H602 H 0.85349 0.86219 0.90059 0.0
C603 C 0.88321 0.86245 0.25917 0.0
C604 C 0.89104 0.87036 0.09037 0.0
H605 H 0.86312 0.8921 0.98078 0.0
C606 C 0.90295 0.85936 0.05241 0.0
C607 C 0.87658 0.88243 0.06417 0.0
C608 C 0.86392 0.89528 0.10221 0.0
C609 C 0.90061 0.85986 0.98916 0.0
C610 C 0.88616 0.87191 0.96302 0.0
C611 C 0.87421 0.88288 1.00091 0.0
C612 C 0.88294 0.87309 0.89648 0.0
C613 C 0.91336 0.84717 0.95092 0.0
C614 C 0.89756 0.87997 0.85778 0.0
C615 C 0.8943 0.8811 0.79515 0.0
C616 C 0.8763 0.87547 0.77001 0.0
C617 C 0.8617 0.86866 0.80919 0.0
C618 C 0.86497 0.86756 0.87163 0.0
H619 H 0.92038 0.83551 0.97815 0.0
H620 H 0.90482 0.8405 0.91368 0.0
H621 H 0.92504 0.85609 0.93042 0.0
H622 H 0.91143 0.88467 0.87607 0.0
H623 H 0.90576 0.88665 0.76661 0.0
H624 H 0.15751 0.43696 0.47422 0.0
H625 H 0.15566 0.43101 0.36569 0.0
H626 H 0.1311 0.37474 0.40023 0.0
H627 H 0.13215 0.38087 0.50897 0.0
H628 H 0.1727 0.40282 0.29792 0.0
H629 H 0.09221 0.3977 0.28027 0.0
H630 H 0.10443 0.40689 0.34666 0.0
H631 H 0.10292 0.3813 0.3343 0.0
C632 C 0.15149 0.4234 0.45893 0.0
C633 C 0.14479 0.40949 0.50065 0.0
C634 C 0.15057 0.41997 0.39675 0.0
C635 C 0.14292 0.40258 0.37474 0.0
C636 C 0.13667 0.38844 0.41612 0.0
H637 H 0.12819 0.35626 0.01303 0.0
H638 H 0.12937 0.3615 0.12236 0.0
C639 C 0.13753 0.39188 0.47843 0.0
C640 C 0.14177 0.39926 0.30847 0.0
H641 H 0.11008 0.39008 0.1922 0.0
C642 C 0.159 0.4001 0.27477 0.0
C643 C 0.12388 0.39572 0.27832 0.0
C644 C 0.10477 0.39551 0.31155 0.0
C645 C 0.15886 0.39726 0.21191 0.0
C646 C 0.14098 0.39375 0.18181 0.0
C647 C 0.12376 0.3928 0.21545 0.0
C648 C 0.13988 0.39086 0.11542 0.0
C649 C 0.1779 0.39769 0.17834 0.0
C650 C 0.14507 0.40576 0.07522 0.0
C651 C 0.14446 0.40279 0.01266 0.0
C652 C 0.13862 0.38485 0.98913 0.0
C653 C 0.13304 0.37012 0.02964 0.0
C654 C 0.13359 0.37313 0.09212 0.0
H655 H 0.19057 0.39603 0.20946 0.0
H656 H 0.1784 0.38607 0.14403 0.0
H657 H 0.17933 0.41176 0.15441 0.0
H658 H 0.14968 0.41966 0.09228 0.0
H659 H 0.14898 0.4144 0.98291 0.0
H660 H 0.58105 0.65161 0.76107 0.0
H661 H 0.58692 0.65009 0.65246 0.0
H662 H 0.64147 0.62105 0.68651 0.0
H663 H 0.63536 0.62189 0.79549 0.0
H664 H 0.61693 0.66451 0.58298 0.0
H665 H 0.61376 0.5845 0.56987 0.0
H666 H 0.60582 0.59758 0.63554 0.0
H667 H 0.63133 0.59361 0.62306 0.0
C668 C 0.59425 0.64477 0.74559 0.0
C669 C 0.60762 0.63665 0.78708 0.0
C670 C 0.59763 0.64403 0.68344 0.0
C671 C 0.61443 0.63512 0.66134 0.0
C672 C 0.6282 0.62763 0.70256 0.0
H673 H 0.65779 0.61543 0.30012 0.0
H674 H 0.65272 0.61708 0.40926 0.0
C675 C 0.62481 0.62834 0.76489 0.0
C676 C 0.61736 0.63364 0.5951 0.0
H677 H 0.62237 0.6013 0.48027 0.0
C678 C 0.61808 0.6507 0.56047 0.0
C679 C 0.61878 0.61558 0.56586 0.0
C680 C 0.61722 0.59675 0.60029 0.0
C681 C 0.62047 0.65021 0.49745 0.0
C682 C 0.62188 0.63216 0.46826 0.0
C683 C 0.62123 0.61511 0.50285 0.0
C684 C 0.62447 0.63071 0.40194 0.0
C685 C 0.62185 0.669 0.46276 0.0
C686 C 0.61007 0.63745 0.36159 0.0
C687 C 0.61295 0.63658 0.29904 0.0
C688 C 0.63031 0.62895 0.27581 0.0
C689 C 0.64443 0.62172 0.3165 0.0
C690 C 0.64151 0.62254 0.37889 0.0
H691 H 0.62497 0.68138 0.49305 0.0
H692 H 0.6334 0.66827 0.42798 0.0
H693 H 0.60779 0.67185 0.43928 0.0
H694 H 0.59666 0.64351 0.37851 0.0
H695 H 0.60184 0.64233 0.26901 0.0
H696 H 0.18932 0.4368 0.81798 0.0
H697 H 0.2239 0.44182 0.84291 0.0
H698 H 0.23741 0.38567 0.77136 0.0
H699 H 0.20328 0.38075 0.74556 0.0
H700 H 0.24734 0.42135 0.919 0.0
H701 H 0.27803 0.41847 0.68924 0.0
H702 H 0.25229 0.42138 0.70238 0.0
H703 H 0.26319 0.39771 0.70419 0.0
C704 C 0.19973 0.42564 0.80703 0.0
C705 C 0.19355 0.40843 0.77945 0.0
C706 C 0.21947 0.42852 0.82129 0.0
C707 C 0.23337 0.4143 0.80782 0.0
C708 C 0.22713 0.39711 0.7806 0.0
H709 H 0.33817 0.37885 0.97492 0.0
H710 H 0.30527 0.38716 0.94371 0.0
C711 C 0.20751 0.39425 0.76631 0.0
C712 C 0.25421 0.41665 0.82532 0.0
H713 H 0.30038 0.41113 0.77155 0.0
C714 C 0.25894 0.41947 0.88655 0.0
C715 C 0.26945 0.41463 0.78299 0.0
C716 C 0.26548 0.4131 0.71595 0.0
C717 C 0.27836 0.419 0.90706 0.0
C718 C 0.29345 0.41521 0.86548 0.0
C719 C 0.28883 0.41373 0.80369 0.0
C720 C 0.31375 0.41099 0.88581 0.0
C721 C 0.28246 0.42226 0.97337 0.0
C722 C 0.32971 0.42125 0.86237 0.0
C723 C 0.3488 0.41641 0.87999 0.0
C724 C 0.35226 0.40112 0.92104 0.0
C725 C 0.33618 0.39089 0.94398 0.0
C726 C 0.31723 0.3957 0.92641 0.0
H727 H 0.27109 0.4315 0.9939 0.0
H728 H 0.28235 0.40817 0.99758 0.0
H729 H 0.29688 0.42916 0.98056 0.0
H730 H 0.3274 0.43297 0.83039 0.0
H731 H 0.36082 0.42452 0.86114 0.0
H732 H 0.5865 0.85032 0.09155 0.0
H733 H 0.58218 0.81622 0.065 0.0
H734 H 0.62034 0.79959 0.21223 0.0
H735 H 0.6243 0.83326 0.23983 0.0
H736 H 0.60913 0.79064 0.02873 0.0
H737 H 0.57587 0.76303 0.23886 0.0
H738 H 0.57776 0.78851 0.22228 0.0
H739 H 0.59812 0.77558 0.25475 0.0
C740 C 0.5937 0.83937 0.11888 0.0
C741 C 0.60568 0.8446 0.16806 0.0
C742 C 0.59127 0.81988 0.10352 0.0
C743 C 0.60067 0.80526 0.13723 0.0
C744 C 0.6125 0.81049 0.18648 0.0
H745 H 0.6393 0.69263 0.02976 0.0
H746 H 0.63459 0.72703 0.04859 0.0
C747 C 0.61487 0.82986 0.20195 0.0
C748 C 0.59924 0.78463 0.11919 0.0
H749 H 0.59124 0.73931 0.17583 0.0
C750 C 0.60495 0.77943 0.06063 0.0
C751 C 0.59347 0.76997 0.16032 0.0
C752 C 0.58576 0.77458 0.22231 0.0
C753 C 0.60591 0.75998 0.04308 0.0
C754 C 0.60152 0.74526 0.08573 0.0
C755 C 0.59492 0.75051 0.14333 0.0
C756 C 0.60418 0.72438 0.07235 0.0
C757 C 0.61158 0.75544 0.97892 0.0
C758 C 0.58885 0.71123 0.08111 0.0
C759 C 0.59161 0.69147 0.07133 0.0
C760 C 0.60977 0.68444 0.05252 0.0
C761 C 0.62508 0.6976 0.04363 0.0
C762 C 0.62236 0.71732 0.05394 0.0
H763 H 0.608 0.76761 0.94772 0.0
H764 H 0.62753 0.75308 0.97709 0.0
H765 H 0.60415 0.74223 0.96239 0.0
H766 H 0.57473 0.71627 0.09569 0.0
H767 H 0.57953 0.6817 0.07865 0.0
H768 H 0.30724 0.12629 0.25689 0.0
H769 H 0.27298 0.12289 0.2849 0.0
H770 H 0.28637 0.07013 0.38126 0.0
H771 H 0.32067 0.0734 0.35357 0.0
H772 H 0.24571 0.09006 0.26675 0.0
H773 H 0.26113 0.10707 0.50832 0.0
H774 H 0.27803 0.11277 0.44865 0.0
H775 H 0.27553 0.08833 0.47493 0.0
C776 C 0.30287 0.11387 0.28358 0.0
C777 C 0.31667 0.10017 0.30333 0.0
C778 C 0.2833 0.11194 0.29943 0.0
C779 C 0.27722 0.09637 0.33564 0.0
C780 C 0.29083 0.08235 0.35381 0.0
H781 H 0.1666 0.08123 0.52295 0.0
H782 H 0.19899 0.07519 0.48177 0.0
C783 C 0.3104 0.08422 0.33777 0.0
C784 C 0.25681 0.09532 0.35645 0.0
H785 H 0.22863 0.10053 0.48174 0.0
C786 C 0.24193 0.09224 0.31377 0.0
C787 C 0.252 0.09807 0.41786 0.0
C788 C 0.26744 0.10188 0.46526 0.0
C789 C 0.22227 0.09193 0.3309 0.0
C790 C 0.2174 0.09527 0.39208 0.0
C791 C 0.23236 0.09792 0.4349 0.0
C792 C 0.19693 0.09732 0.41232 0.0
C793 C 0.20696 0.08789 0.28334 0.0
C794 C 0.18492 0.11162 0.38664 0.0
C795 C 0.16638 0.11502 0.40978 0.0
C796 C 0.15954 0.10436 0.45974 0.0
C797 C 0.17139 0.08969 0.48442 0.0
C798 C 0.18993 0.08624 0.461 0.0
H799 H 0.21302 0.07938 0.24545 0.0
H800 H 0.19443 0.0799 0.30267 0.0
H801 H 0.20158 0.10179 0.2643 0.0
H802 H 0.19014 0.1207 0.3501 0.0
H803 H 0.15771 0.1265 0.38976 0.0
H804 H 0.91391 0.6601 0.6906 0.0
H805 H 0.91905 0.69389 0.66199 0.0
H806 H 0.86309 0.7087 0.73547 0.0
H807 H 0.85791 0.67495 0.76487 0.0
H808 H 0.89602 0.71495 0.5824 0.0
H809 H 0.89889 0.75009 0.80694 0.0
H810 H 0.90162 0.72435 0.79768 0.0
H811 H 0.87782 0.73514 0.79596 0.0
C812 C 0.90281 0.67059 0.70149 0.0
C813 C 0.88551 0.66487 0.73011 0.0
C814 C 0.90577 0.68988 0.68501 0.0
C815 C 0.89156 0.70384 0.69717 0.0
C816 C 0.87442 0.69824 0.72673 0.0
H817 H 0.86794 0.81232 0.52103 0.0
H818 H 0.86926 0.77879 0.55593 0.0
C819 C 0.87144 0.67893 0.74323 0.0
C820 C 0.89407 0.72397 0.67524 0.0
H821 H 0.89498 0.77094 0.72107 0.0
C822 C 0.89597 0.72719 0.61276 0.0
C823 C 0.89423 0.73989 0.71496 0.0
C824 C 0.89322 0.73724 0.78269 0.0
C825 C 0.89739 0.74595 0.58875 0.0
C826 C 0.89664 0.7619 0.62822 0.0
C827 C 0.89539 0.75868 0.69087 0.0
C828 C 0.89639 0.78205 0.60521 0.0
C829 C 0.8997 0.74854 0.52133 0.0
C830 C 0.9111 0.79507 0.62192 0.0
C831 C 0.91038 0.8143 0.60206 0.0
C832 C 0.89482 0.82083 0.56565 0.0
C833 C 0.88018 0.80771 0.54874 0.0
C834 C 0.88094 0.78852 0.56844 0.0
H835 H 0.90539 0.73524 0.49988 0.0
H836 H 0.88528 0.7518 0.50067 0.0
H837 H 0.90966 0.76072 0.51087 0.0
H838 H 0.92309 0.79037 0.65057 0.0
H839 H 0.92181 0.8241 0.61611 0.0
H840 H 0.83112 0.88617 0.48551 0.0
H841 H 0.79892 0.89183 0.44352 0.0
H842 H 0.82265 0.93279 0.31596 0.0
H843 H 0.85544 0.92685 0.35734 0.0
H844 H 0.77708 0.92426 0.43566 0.0
H845 H 0.79279 0.89589 0.2062 0.0
H846 H 0.80933 0.8926 0.26924 0.0
H847 H 0.80778 0.91558 0.23134 0.0
C848 C 0.82964 0.8965 0.44878 0.0
C849 C 0.84597 0.90602 0.42475 0.0
C850 C 0.81112 0.89972 0.42477 0.0
C851 C 0.80836 0.91254 0.37611 0.0
C852 C 0.82449 0.92254 0.35281 0.0
H853 H 0.6851 0.93478 0.28613 0.0
H854 H 0.7196 0.94075 0.30754 0.0
C855 C 0.84319 0.91925 0.37681 0.0
C856 C 0.78846 0.91491 0.35033 0.0
H857 H 0.76052 0.90502 0.22578 0.0
C858 C 0.77346 0.92031 0.38951 0.0
C859 C 0.78379 0.90954 0.29028 0.0
C860 C 0.79919 0.90293 0.24677 0.0
C861 C 0.75386 0.91967 0.37133 0.0
C862 C 0.74913 0.91407 0.31148 0.0
C863 C 0.76418 0.90941 0.27149 0.0
C864 C 0.72862 0.9113 0.29144 0.0
C865 C 0.7384 0.9239 0.4176 0.0
C866 C 0.72237 0.89302 0.27214 0.0
C867 C 0.70274 0.88966 0.25882 0.0
C868 C 0.68897 0.9045 0.2649 0.0
C869 C 0.69536 0.923 0.28172 0.0
C870 C 0.71505 0.92641 0.29429 0.0
H871 H 0.7443 0.9234 0.46455 0.0
H872 H 0.7325 0.93861 0.40938 0.0
H873 H 0.72621 0.91343 0.41423 0.0
H874 H 0.73258 0.88114 0.2694 0.0
H875 H 0.69826 0.87526 0.24588 0.0
H876 H 0.12796 0.20034 0.49081 0.0
H877 H 0.12519 0.23412 0.52116 0.0
H878 H 0.07178 0.22115 0.61416 0.0
H879 H 0.07445 0.18725 0.58416 0.0
H880 H 0.09337 0.26165 0.50195 0.0
H881 H 0.10853 0.2452 0.74481 0.0
H882 H 0.11395 0.22835 0.6853 0.0
H883 H 0.08929 0.23166 0.70932 0.0
C884 C 0.11554 0.20468 0.51738 0.0
C885 C 0.10147 0.19111 0.5354 0.0
C886 C 0.11398 0.22399 0.53456 0.0
C887 C 0.09841 0.23005 0.5704 0.0
C888 C 0.08403 0.21668 0.58706 0.0
H889 H 0.08423 0.33994 0.75687 0.0
H890 H 0.07802 0.30789 0.71507 0.0
C891 C 0.08554 0.19735 0.56969 0.0
C892 C 0.09769 0.25024 0.59191 0.0
H893 H 0.10304 0.2777 0.71853 0.0
C894 C 0.09537 0.2652 0.54932 0.0
C895 C 0.10023 0.25476 0.65375 0.0
C896 C 0.10328 0.23921 0.70111 0.0
C897 C 0.09563 0.28465 0.56695 0.0
C898 C 0.09876 0.28921 0.6286 0.0
C899 C 0.10062 0.27419 0.67131 0.0
C900 C 0.10124 0.30938 0.64961 0.0
C901 C 0.09245 0.3001 0.51941 0.0
C902 C 0.11628 0.32093 0.62647 0.0
C903 C 0.11981 0.33928 0.65003 0.0
C904 C 0.10851 0.34637 0.6978 0.0
C905 C 0.0932 0.33494 0.72008 0.0
C906 C 0.08964 0.3166 0.69629 0.0
H907 H 0.08415 0.29445 0.47997 0.0
H908 H 0.08449 0.31265 0.53805 0.0
H909 H 0.10677 0.3052 0.5028 0.0
H910 H 0.12574 0.3155 0.5915 0.0
H911 H 0.13178 0.34764 0.63196 0.0
H912 H 0.65669 0.57206 0.89605 0.0
H913 H 0.69055 0.56283 0.87586 0.0
H914 H 0.71071 0.61279 0.97343 0.0
H915 H 0.67731 0.62172 0.99499 0.0
H916 H 0.71839 0.58049 0.81486 0.0
H917 H 0.74427 0.57237 0.05024 0.0
H918 H 0.71874 0.57436 0.03135 0.0
H919 H 0.73353 0.59572 0.0395 0.0
C920 C 0.66837 0.58096 0.91363 0.0
C921 C 0.66424 0.5975 0.94782 0.0
C922 C 0.68772 0.57566 0.90212 0.0
C923 C 0.70328 0.58681 0.92452 0.0
C924 C 0.69909 0.60351 0.95753 0.0
H925 H 0.81539 0.60897 0.78545 0.0
H926 H 0.78105 0.60509 0.80719 0.0
C927 C 0.67987 0.60869 0.96947 0.0
C928 C 0.72391 0.58186 0.91084 0.0
H929 H 0.76917 0.57913 0.97569 0.0
C930 C 0.72943 0.57985 0.85017 0.0
C931 C 0.73838 0.58047 0.95674 0.0
C932 C 0.73337 0.58062 0.02309 0.0
C933 C 0.74908 0.57782 0.83402 0.0
C934 C 0.76371 0.5784 0.8796 0.0
C935 C 0.75808 0.57906 0.94049 0.0
C936 C 0.78481 0.57994 0.86488 0.0
C937 C 0.75391 0.57526 0.76808 0.0
C938 C 0.79869 0.56756 0.89177 0.0
C939 C 0.81861 0.56993 0.87991 0.0
C940 C 0.825 0.58472 0.84081 0.0
C941 C 0.81104 0.5971 0.81441 0.0
C942 C 0.79128 0.59484 0.82665 0.0
H943 H 0.74188 0.56785 0.74365 0.0
H944 H 0.75586 0.58965 0.7466 0.0
H945 H 0.76748 0.56678 0.7623 0.0
H946 H 0.79411 0.5561 0.9221 0.0
H947 H 0.82898 0.56024 0.90134 0.0
H948 H 0.43353 0.31579 0.07507 0.0
H949 H 0.43741 0.2813 0.09759 0.0
H950 H 0.37693 0.27183 0.05304 0.0
H951 H 0.37312 0.30611 0.0289 0.0
H952 H 0.42065 0.25922 0.18093 0.0
H953 H 0.40193 0.22997 0.95596 0.0
H954 H 0.40667 0.2553 0.96783 0.0
H955 H 0.38301 0.24532 0.98353 0.0
C956 C 0.4211 0.30632 0.0697 0.0
C957 C 0.40304 0.31366 0.04987 0.0
C958 C 0.42334 0.2866 0.08254 0.0
C959 C 0.40758 0.27384 0.07581 0.0
C960 C 0.38947 0.28123 0.05683 0.0
H961 H 0.38342 0.16769 0.25523 0.0
H962 H 0.38897 0.2008 0.22309 0.0
C963 C 0.38726 0.30089 0.04353 0.0
C964 C 0.40975 0.25299 0.0915 0.0
H965 H 0.40031 0.20754 0.03962 0.0
C966 C 0.41644 0.24793 0.14969 0.0
C967 C 0.4047 0.23815 0.05046 0.0
C968 C 0.39889 0.24245 0.98576 0.0
C969 C 0.41727 0.22856 0.16893 0.0
C970 C 0.41077 0.21384 0.12947 0.0
C971 C 0.40505 0.21881 0.07023 0.0
C972 C 0.4084 0.19348 0.15018 0.0
C973 C 0.42501 0.2241 0.23159 0.0
C974 C 0.41711 0.17813 0.1191 0.0
C975 C 0.41379 0.15894 0.13718 0.0
C976 C 0.40158 0.15477 0.18643 0.0
C977 C 0.39304 0.17024 0.21749 0.0
C978 C 0.39631 0.1893 0.19939 0.0
H979 H 0.43542 0.23537 0.24693 0.0
H980 H 0.41273 0.22383 0.26391 0.0
H981 H 0.43243 0.20986 0.23336 0.0
H982 H 0.42636 0.181 0.08059 0.0
H983 H 0.42051 0.1474 0.11196 0.0
loop_
_geom_bond_atom_site_label_1
_geom_bond_atom_site_label_2
_geom_bond_distance
_geom_bond_site_symmetry_2
_ccdc_geom_bond_type
Co0 N4 2.148 . S
Co0 N10 2.128 1_554 S
Co0 N20 2.194 . S
Co0 O25 2.351 . S
Co0 O26 2.155 . S
Co0 O27 2.096 1_554 S
C1 N4 1.301 . S
C1 N5 1.328 . S
C1 H6 0.930 . S
C2 C3 1.333 . S
C2 N4 1.317 . S
C2 H7 0.930 . S
C3 C2 1.333 . S
C3 N5 1.350 . S
C3 H29 0.931 . S
N4 Co0 2.148 . S
N4 C1 1.301 . S
N4 C2 1.317 . S
N5 C1 1.328 . S
N5 C3 1.350 . S
H6 C1 0.930 . S
H7 C2 0.930 . S
C8 O9 1.224 . S
C8 O27 1.247 . S
O9 C8 1.224 . S
N10 Co0 2.128 1_556 S
N10 C11 1.355 . S
N10 C13 1.311 . S
C11 N10 1.355 . S
C11 C12 1.363 . S
C11 H23 0.929 . S
C12 C11 1.363 . S
C12 N14 1.375 . S
C12 H30 0.931 . S
C13 N10 1.311 . S
C13 N14 1.347 . S
C13 H24 0.929 . S
N14 C12 1.375 . S
N14 C13 1.347 . S
C15 C18 1.365 . S
C15 N20 1.328 . S
C15 H21 0.929 . S
C16 C17 1.362 1_556 S
C16 C19 1.378 . S
C16 H31 0.929 . S
C17 C16 1.362 1_554 S
C17 C18 1.366 . S
C18 C15 1.365 . S
C18 C17 1.366 . S
C18 H32 0.930 . S
C19 C16 1.378 . S
C19 N20 1.315 1_556 S
C19 H22 0.930 . S
N20 Co0 2.194 . S
N20 C15 1.328 . S
N20 C19 1.315 1_554 S
H21 C15 0.929 . S
H22 C19 0.930 . S
H23 C11 0.929 . S
H24 C13 0.929 . S
O25 Co0 2.351 . S
O25 C28 1.244 . S
O26 Co0 2.155 . S
O26 C28 1.240 . S
O27 Co0 2.096 1_556 S
O27 C8 1.247 . S
C28 O25 1.244 . S
C28 O26 1.240 . S
H29 C3 0.931 . S
H30 C12 0.931 . S
H31 C16 0.929 . S
H32 C18 0.930 . S
Co33 N37 2.148 . S
Co33 N43 2.128 . S
Co33 N53 2.194 . S
Co33 O58 2.351 . S
Co33 O59 2.155 . S
Co33 O60 2.096 . S
C34 N37 1.301 . S
C34 N38 1.328 . S
C34 H39 0.930 . S
C35 C36 1.333 . S
C35 N37 1.317 . S
C35 H40 0.930 . S
C36 C35 1.333 . S
C36 N38 1.350 . S
C36 H62 0.931 . S
N37 Co33 2.148 . S
N37 C34 1.301 . S
N37 C35 1.317 . S
N38 C34 1.328 . S
N38 C36 1.350 . S
H39 C34 0.930 . S
H40 C35 0.930 . S
C41 O42 1.224 . S
C41 O60 1.247 . S
O42 C41 1.224 . S
N43 Co33 2.128 . S
N43 C44 1.355 . S
N43 C46 1.311 . S
C44 N43 1.355 . S
C44 C45 1.363 . S
C44 H56 0.929 . S
C45 C44 1.363 . S
C45 N47 1.375 . S
C45 H63 0.931 . S
C46 N43 1.311 . S
C46 N47 1.347 . S
C46 H57 0.929 . S
N47 C45 1.375 . S
N47 C46 1.347 . S
C48 C51 1.365 . S
C48 N53 1.328 . S
C48 H54 0.929 . S
C49 C50 1.362 . S
C49 C52 1.378 . S
C49 H64 0.929 . S
C50 C49 1.362 . S
C50 C51 1.366 . S
C51 C48 1.365 . S
C51 C50 1.366 . S
C51 H65 0.930 . S
C52 C49 1.378 . S
C52 N53 1.315 . S
C52 H55 0.930 . S
N53 Co33 2.194 . S
N53 C48 1.328 . S
N53 C52 1.315 . S
H54 C48 0.929 . S
H55 C52 0.930 . S
H56 C44 0.929 . S
H57 C46 0.929 . S
O58 Co33 2.351 . S
O58 C61 1.244 . S
O59 Co33 2.155 . S
O59 C61 1.240 . S
O60 Co33 2.096 . S
O60 C41 1.247 . S
C61 O58 1.244 . S
C61 O59 1.240 . S
H62 C36 0.931 . S
H63 C45 0.931 . S
H64 C49 0.929 . S
H65 C51 0.930 . S
Co66 N70 2.148 . S
Co66 N76 2.128 . S
Co66 N86 2.194 . S
Co66 O91 2.351 . S
Co66 O92 2.155 . S
Co66 O93 2.096 . S
C67 N70 1.301 . S
C67 N71 1.328 . S
C67 H72 0.930 . S
C68 C69 1.333 . S
C68 N70 1.317 . S
C68 H73 0.930 . S
C69 C68 1.333 . S
C69 N71 1.350 . S
C69 H95 0.931 . S
N70 Co66 2.148 . S
N70 C67 1.301 . S
N70 C68 1.317 . S
N71 C67 1.328 . S
N71 C69 1.350 . S
H72 C67 0.930 . S
H73 C68 0.930 . S
C74 O75 1.224 . S
C74 O93 1.247 . S
O75 C74 1.224 . S
N76 Co66 2.128 . S
N76 C77 1.355 . S
N76 C79 1.311 . S
C77 N76 1.355 . S
C77 C78 1.363 . S
C77 H89 0.929 . S
C78 C77 1.363 . S
C78 N80 1.375 . S
C78 H96 0.931 . S
C79 N76 1.311 . S
C79 N80 1.347 . S
C79 H90 0.929 . S
N80 C78 1.375 . S
N80 C79 1.347 . S
C81 C84 1.365 . S
C81 N86 1.328 . S
C81 H87 0.929 . S
C82 C83 1.362 . S
C82 C85 1.378 . S
C82 H97 0.929 . S
C83 C82 1.362 . S
C83 C84 1.366 . S
C84 C81 1.365 . S
C84 C83 1.366 . S
C84 H98 0.930 . S
C85 C82 1.378 . S
C85 N86 1.315 . S
C85 H88 0.930 . S
N86 Co66 2.194 . S
N86 C81 1.328 . S
N86 C85 1.315 . S
H87 C81 0.929 . S
H88 C85 0.930 . S
H89 C77 0.929 . S
H90 C79 0.929 . S
O91 Co66 2.351 . S
O91 C94 1.244 . S
O92 Co66 2.155 . S
O92 C94 1.240 . S
O93 Co66 2.096 . S
O93 C74 1.247 . S
C94 O91 1.244 . S
C94 O92 1.240 . S
H95 C69 0.931 . S
H96 C78 0.931 . S
H97 C82 0.929 . S
H98 C84 0.930 . S
Co99 N103 2.148 . S
Co99 N109 2.128 . S
Co99 N119 2.194 . S
Co99 O124 2.351 . S
Co99 O125 2.155 . S
Co99 O126 2.096 . S
C100 N103 1.301 . S
C100 N104 1.328 . S
C100 H105 0.930 . S
C101 C102 1.333 . S
C101 N103 1.317 . S
C101 H106 0.930 . S
C102 C101 1.333 . S
C102 N104 1.350 . S
C102 H128 0.931 . S
N103 Co99 2.148 . S
N103 C100 1.301 . S
N103 C101 1.317 . S
N104 C100 1.328 . S
N104 C102 1.350 . S
H105 C100 0.930 . S
H106 C101 0.930 . S
C107 O108 1.224 . S
C107 O126 1.247 . S
O108 C107 1.224 . S
N109 Co99 2.128 . S
N109 C110 1.355 . S
N109 C112 1.311 . S
C110 N109 1.355 . S
C110 C111 1.363 . S
C110 H122 0.929 . S
C111 C110 1.363 . S
C111 N113 1.375 . S
C111 H129 0.931 . S
C112 N109 1.311 . S
C112 N113 1.347 . S
C112 H123 0.929 . S
N113 C111 1.375 . S
N113 C112 1.347 . S
C114 C117 1.365 . S
C114 N119 1.328 . S
C114 H120 0.929 . S
C115 C116 1.362 . S
C115 C118 1.378 . S
C115 H130 0.929 . S
C116 C115 1.362 . S
C116 C117 1.366 . S
C117 C114 1.365 . S
C117 C116 1.366 . S
C117 H131 0.930 . S
C118 C115 1.378 . S
C118 N119 1.315 . S
C118 H121 0.930 . S
N119 Co99 2.194 . S
N119 C114 1.328 . S
N119 C118 1.315 . S
H120 C114 0.929 . S
H121 C118 0.930 . S
H122 C110 0.929 . S
H123 C112 0.929 . S
O124 Co99 2.351 . S
O124 C127 1.244 . S
O125 Co99 2.155 . S
O125 C127 1.240 . S
O126 Co99 2.096 . S
O126 C107 1.247 . S
C127 O124 1.244 . S
C127 O125 1.240 . S
H128 C102 0.931 . S
H129 C111 0.931 . S
H130 C115 0.929 . S
H131 C117 0.930 . S
Co132 N136 2.148 . S
Co132 N142 2.128 . S
Co132 N152 2.194 . S
Co132 O157 2.351 . S
Co132 O158 2.155 . S
Co132 O159 2.096 . S
C133 N136 1.301 . S
C133 N137 1.328 . S
C133 H138 0.930 . S
C134 C135 1.333 . S
C134 N136 1.317 . S
C134 H139 0.930 . S
C135 C134 1.333 . S
C135 N137 1.350 . S
C135 H161 0.931 . S
N136 Co132 2.148 . S
N136 C133 1.301 . S
N136 C134 1.317 . S
N137 C133 1.328 . S
N137 C135 1.350 . S
H138 C133 0.930 . S
H139 C134 0.930 . S
C140 O141 1.224 . S
C140 O159 1.247 . S
O141 C140 1.224 . S
N142 Co132 2.128 . S
N142 C143 1.355 . S
N142 C145 1.311 . S
C143 N142 1.355 . S
C143 C144 1.363 . S
C143 H155 0.929 . S
C144 C143 1.363 . S
C144 N146 1.375 . S
C144 H162 0.931 . S
C145 N142 1.311 . S
C145 N146 1.347 . S
C145 H156 0.929 . S
N146 C144 1.375 . S
N146 C145 1.347 . S
C147 C150 1.365 . S
C147 N152 1.328 . S
C147 H153 0.929 . S
C148 C149 1.362 . S
C148 C151 1.378 . S
C148 H163 0.929 . S
C149 C148 1.362 . S
C149 C150 1.366 . S
C150 C147 1.365 . S
C150 C149 1.366 . S
C150 H164 0.930 . S
C151 C148 1.378 . S
C151 N152 1.315 . S
C151 H154 0.930 . S
N152 Co132 2.194 . S
N152 C147 1.328 . S
N152 C151 1.315 . S
H153 C147 0.929 . S
H154 C151 0.930 . S
H155 C143 0.929 . S
H156 C145 0.929 . S
O157 Co132 2.351 . S
O157 C160 1.244 . S
O158 Co132 2.155 . S
O158 C160 1.240 . S
O159 Co132 2.096 . S
O159 C140 1.247 . S
C160 O157 1.244 . S
C160 O158 1.240 . S
H161 C135 0.931 . S
H162 C144 0.931 . S
H163 C148 0.929 . S
H164 C150 0.930 . S
Co165 N169 2.148 . S
Co165 N175 2.128 . S
Co165 N185 2.194 . S
Co165 O190 2.351 . S
Co165 O191 2.155 . S
Co165 O192 2.096 . S
C166 N169 1.301 . S
C166 N170 1.328 . S
C166 H171 0.930 . S
C167 C168 1.333 . S
C167 N169 1.317 . S
C167 H172 0.930 . S
C168 C167 1.333 . S
C168 N170 1.350 . S
C168 H194 0.931 . S
N169 Co165 2.148 . S
N169 C166 1.301 . S
N169 C167 1.317 . S
N170 C166 1.328 . S
N170 C168 1.350 . S
H171 C166 0.930 . S
H172 C167 0.930 . S
C173 O174 1.224 . S
C173 O192 1.247 . S
O174 C173 1.224 . S
N175 Co165 2.128 . S
N175 C176 1.355 . S
N175 C178 1.311 . S
C176 N175 1.355 . S
C176 C177 1.363 . S
C176 H188 0.929 . S
C177 C176 1.363 . S
C177 N179 1.375 . S
C177 H195 0.931 . S
C178 N175 1.311 . S
C178 N179 1.347 . S
C178 H189 0.929 . S
N179 C177 1.375 . S
N179 C178 1.347 . S
C180 C183 1.365 . S
C180 N185 1.328 . S
C180 H186 0.929 . S
C181 C182 1.362 . S
C181 C184 1.378 . S
C181 H196 0.929 . S
C182 C181 1.362 . S
C182 C183 1.366 . S
C183 C180 1.365 . S
C183 C182 1.366 . S
C183 H197 0.930 . S
C184 C181 1.378 . S
C184 N185 1.315 . S
C184 H187 0.930 . S
N185 Co165 2.194 . S
N185 C180 1.328 . S
N185 C184 1.315 . S
H186 C180 0.929 . S
H187 C184 0.930 . S
H188 C176 0.929 . S
H189 C178 0.929 . S
O190 Co165 2.351 . S
O190 C193 1.244 . S
O191 Co165 2.155 . S
O191 C193 1.240 . S
O192 Co165 2.096 . S
O192 C173 1.247 . S
C193 O190 1.244 . S
C193 O191 1.240 . S
H194 C168 0.931 . S
H195 C177 0.931 . S
H196 C181 0.929 . S
H197 C183 0.930 . S
Co198 N202 2.148 . S
Co198 N208 2.128 . S
Co198 N218 2.194 . S
Co198 O223 2.351 . S
Co198 O224 2.155 . S
Co198 O225 2.096 . S
C199 N202 1.301 . S
C199 N203 1.328 . S
C199 H204 0.930 . S
C200 C201 1.333 . S
C200 N202 1.317 . S
C200 H205 0.930 . S
C201 C200 1.333 . S
C201 N203 1.350 . S
C201 H227 0.931 . S
N202 Co198 2.148 . S
N202 C199 1.301 . S
N202 C200 1.317 . S
N203 C199 1.328 . S
N203 C201 1.350 . S
H204 C199 0.930 . S
H205 C200 0.930 . S
C206 O207 1.224 . S
C206 O225 1.247 . S
O207 C206 1.224 . S
N208 Co198 2.128 . S
N208 C209 1.355 . S
N208 C211 1.311 . S
C209 N208 1.355 . S
C209 C210 1.363 . S
C209 H221 0.929 . S
C210 C209 1.363 . S
C210 N212 1.375 . S
C210 H228 0.931 . S
C211 N208 1.311 . S
C211 N212 1.347 . S
C211 H222 0.929 . S
N212 C210 1.375 . S
N212 C211 1.347 . S
C213 C216 1.365 . S
C213 N218 1.328 . S
C213 H219 0.929 . S
C214 C215 1.362 . S
C214 C217 1.378 . S
C214 H229 0.929 . S
C215 C214 1.362 . S
C215 C216 1.366 . S
C216 C213 1.365 . S
C216 C215 1.366 . S
C216 H230 0.930 . S
C217 C214 1.378 . S
C217 N218 1.315 . S
C217 H220 0.930 . S
N218 Co198 2.194 . S
N218 C213 1.328 . S
N218 C217 1.315 . S
H219 C213 0.929 . S
H220 C217 0.930 . S
H221 C209 0.929 . S
H222 C211 0.929 . S
O223 Co198 2.351 . S
O223 C226 1.244 . S
O224 Co198 2.155 . S
O224 C226 1.240 . S
O225 Co198 2.096 . S
O225 C206 1.247 . S
C226 O223 1.244 . S
C226 O224 1.240 . S
H227 C201 0.931 . S
H228 C210 0.931 . S
H229 C214 0.929 . S
H230 C216 0.930 . S
Co231 N235 2.148 . S
Co231 N241 2.128 1_554 S
Co231 N251 2.194 . S
Co231 O256 2.351 . S
Co231 O257 2.155 . S
Co231 O258 2.096 1_554 S
C232 N235 1.301 . S
C232 N236 1.328 . S
C232 H237 0.930 . S
C233 C234 1.333 . S
C233 N235 1.317 . S
C233 H238 0.930 . S
C234 C233 1.333 . S
C234 N236 1.350 . S
C234 H260 0.931 . S
N235 Co231 2.148 . S
N235 C232 1.301 . S
N235 C233 1.317 . S
N236 C232 1.328 . S
N236 C234 1.350 . S
H237 C232 0.930 . S
H238 C233 0.930 . S
C239 O240 1.224 . S
C239 O258 1.247 . S
O240 C239 1.224 . S
N241 Co231 2.128 1_556 S
N241 C242 1.355 . S
N241 C244 1.311 . S
C242 N241 1.355 . S
C242 C243 1.363 . S
C242 H254 0.929 . S
C243 C242 1.363 . S
C243 N245 1.375 . S
C243 H261 0.931 . S
C244 N241 1.311 . S
C244 N245 1.347 . S
C244 H255 0.929 . S
N245 C243 1.375 . S
N245 C244 1.347 . S
C246 C249 1.365 . S
C246 N251 1.328 . S
C246 H252 0.929 . S
C247 C248 1.358 1_556 S
C247 C250 1.377 1_556 S
C247 H262 0.935 . S
C248 C247 1.358 1_554 S
C248 C249 1.366 . S
C249 C246 1.365 . S
C249 C248 1.366 . S
C249 H263 0.930 . S
C250 C247 1.377 1_554 S
C250 N251 1.315 . S
C250 H253 0.930 1_554 S
N251 Co231 2.194 . S
N251 C246 1.328 . S
N251 C250 1.315 . S
H252 C246 0.929 . S
H253 C250 0.930 1_556 S
H254 C242 0.929 . S
H255 C244 0.929 . S
O256 Co231 2.351 . S
O256 C259 1.244 . S
O257 Co231 2.155 . S
O257 C259 1.240 . S
O258 Co231 2.096 1_556 S
O258 C239 1.247 . S
C259 O256 1.244 . S
C259 O257 1.240 . S
H260 C234 0.931 . S
H261 C243 0.931 . S
H262 C247 0.935 . S
H263 C249 0.930 . S
H264 C272 0.929 . S
H265 C274 0.930 . S
H266 C276 0.930 . S
H267 C279 0.929 . S
H268 C282 0.930 . S
H269 C284 0.960 . S
H270 C284 0.960 . S
H271 C284 0.960 . S
C272 H264 0.929 . S
C272 C273 1.377 1_556 S
C272 C274 1.384 . S
C273 C272 1.377 1_554 S
C273 C279 1.390 . S
C274 H265 0.930 . S
C274 C272 1.384 . S
C274 C275 1.372 1_556 S
C275 C274 1.372 1_554 S
C275 C276 1.400 . S
C275 C280 1.490 . S
C276 H266 0.930 . S
C276 C275 1.400 . S
C276 C279 1.386 . S
H277 C293 0.930 . S
H278 C294 0.931 . S
C279 H267 0.929 . S
C279 C273 1.390 . S
C279 C276 1.386 . S
C280 C275 1.490 . S
C280 C282 1.395 . S
C280 C283 1.403 1_554 S
H281 C287 0.930 . S
C282 H268 0.930 . S
C282 C280 1.395 . S
C282 C285 1.403 . S
C283 C280 1.403 1_556 S
C283 C284 1.524 . S
C283 C287 1.400 . S
C284 H269 0.960 . S
C284 H270 0.960 . S
C284 H271 0.960 . S
C284 C283 1.524 . S
C285 C282 1.403 . S
C285 C286 1.392 . S
C285 C289 1.495 . S
C286 C285 1.392 . S
C286 C287 1.385 1_554 S
C286 C288 1.478 . S
C287 H281 0.930 . S
C287 C283 1.400 . S
C287 C286 1.385 1_556 S
C288 C286 1.478 . S
C288 C290 1.381 1_554 S
C288 C294 1.383 . S
C289 C285 1.495 . S
C289 H295 0.959 . S
C289 H296 0.961 . S
C289 H297 0.960 . S
C290 C288 1.381 1_556 S
C290 C291 1.394 . S
C290 H298 0.930 . S
C291 C290 1.394 . S
C291 C292 1.383 1_556 S
C291 H299 0.929 . S
C292 C291 1.383 1_554 S
C292 C293 1.377 . S
C293 H277 0.930 . S
C293 C292 1.377 . S
C293 C294 1.379 . S
C294 H278 0.931 . S
C294 C288 1.383 . S
C294 C293 1.379 . S
H295 C289 0.959 . S
H296 C289 0.961 . S
H297 C289 0.960 . S
H298 C290 0.930 . S
H299 C291 0.929 . S
H300 C308 0.929 . S
H301 C310 0.930 . S
H302 C312 0.930 . S
H303 C315 0.929 . S
H304 C318 0.930 . S
H305 C320 0.960 . S
H306 C320 0.960 . S
H307 C320 0.960 . S
C308 H300 0.929 . S
C308 C309 1.377 . S
C308 C310 1.384 . S
C309 C308 1.377 . S
C309 C315 1.390 . S
C310 H301 0.930 . S
C310 C308 1.384 . S
C310 C311 1.372 . S
C311 C310 1.372 . S
C311 C312 1.400 . S
C311 C316 1.490 . S
C312 H302 0.930 . S
C312 C311 1.400 . S
C312 C315 1.386 . S
H313 C329 0.930 . S
H314 C330 0.931 . S
C315 H303 0.929 . S
C315 C309 1.390 . S
C315 C312 1.386 . S
C316 C311 1.490 . S
C316 C318 1.395 . S
C316 C319 1.403 1_545 S
H317 C323 0.930 . S
C318 H304 0.930 . S
C318 C316 1.395 . S
C318 C321 1.403 . S
C319 C316 1.403 1_565 S
C319 C320 1.524 . S
C319 C323 1.400 . S
C320 H305 0.960 . S
C320 H306 0.960 . S
C320 H307 0.960 . S
C320 C319 1.524 . S
C321 C318 1.403 . S
C321 C322 1.392 1_545 S
C321 C325 1.495 . S
C322 C321 1.392 1_565 S
C322 C323 1.385 . S
C322 C324 1.478 . S
C323 H317 0.930 . S
C323 C319 1.400 . S
C323 C322 1.385 . S
C324 C322 1.478 . S
C324 C326 1.381 . S
C324 C330 1.383 . S
C325 C321 1.495 . S
C325 H331 0.959 . S
C325 H332 0.961 . S
C325 H333 0.960 . S
C326 C324 1.381 . S
C326 C327 1.394 . S
C326 H334 0.930 . S
C327 C326 1.394 . S
C327 C328 1.383 . S
C327 H335 0.929 . S
C328 C327 1.383 . S
C328 C329 1.377 . S
C329 H313 0.930 . S
C329 C328 1.377 . S
C329 C330 1.379 . S
C330 H314 0.931 . S
C330 C324 1.383 . S
C330 C329 1.379 . S
H331 C325 0.959 . S
H332 C325 0.961 . S
H333 C325 0.960 . S
H334 C326 0.930 . S
H335 C327 0.929 . S
H336 C344 0.929 . S
H337 C346 0.930 . S
H338 C348 0.930 . S
H339 C351 0.929 . S
H340 C354 0.930 . S
H341 C356 0.960 . S
H342 C356 0.960 . S
H343 C356 0.960 . S
C344 H336 0.929 . S
C344 C345 1.377 . S
C344 C346 1.384 . S
C345 C344 1.377 . S
C345 C351 1.390 . S
C346 H337 0.930 . S
C346 C344 1.384 . S
C346 C347 1.372 . S
C347 C346 1.372 . S
C347 C348 1.400 . S
C347 C352 1.490 . S
C348 H338 0.930 . S
C348 C347 1.400 . S
C348 C351 1.386 . S
H349 C365 0.930 . S
H350 C366 0.931 . S
C351 H339 0.929 . S
C351 C345 1.390 . S
C351 C348 1.386 . S
C352 C347 1.490 . S
C352 C354 1.395 1_655 S
C352 C355 1.403 1_565 S
H353 C359 0.930 . S
C354 H340 0.930 . S
C354 C352 1.395 1_455 S
C354 C357 1.403 . S
C355 C352 1.403 1_545 S
C355 C356 1.524 . S
C355 C359 1.400 . S
C356 H341 0.960 . S
C356 H342 0.960 . S
C356 H343 0.960 . S
C356 C355 1.524 . S
C357 C354 1.403 . S
C357 C358 1.392 1_565 S
C357 C361 1.495 . S
C358 C357 1.392 1_545 S
C358 C359 1.385 1_455 S
C358 C360 1.478 . S
C359 H353 0.930 . S
C359 C355 1.400 . S
C359 C358 1.385 1_655 S
C360 C358 1.478 . S
C360 C362 1.381 . S
C360 C366 1.383 . S
C361 C357 1.495 . S
C361 H367 0.959 . S
C361 H368 0.961 . S
C361 H369 0.960 . S
C362 C360 1.381 . S
C362 C363 1.394 . S
C362 H370 0.930 . S
C363 C362 1.394 . S
C363 C364 1.383 . S
C363 H371 0.929 . S
C364 C363 1.383 . S
C364 C365 1.377 . S
C365 H349 0.930 . S
C365 C364 1.377 . S
C365 C366 1.379 . S
C366 H350 0.931 . S
C366 C360 1.383 . S
C366 C365 1.379 . S
H367 C361 0.959 . S
H368 C361 0.961 . S
H369 C361 0.960 . S
H370 C362 0.930 . S
H371 C363 0.929 . S
H372 C380 0.929 . S
H373 C382 0.930 . S
H374 C384 0.930 . S
H375 C387 0.929 . S
H376 C390 0.930 . S
H377 C392 0.960 . S
H378 C392 0.960 . S
H379 C392 0.960 . S
C380 H372 0.929 . S
C380 C381 1.377 . S
C380 C382 1.384 . S
C381 C380 1.377 . S
C381 C387 1.390 . S
C382 H373 0.930 . S
C382 C380 1.384 . S
C382 C383 1.372 . S
C383 C382 1.372 . S
C383 C384 1.400 . S
C383 C388 1.490 . S
C384 H374 0.930 . S
C384 C383 1.400 . S
C384 C387 1.386 . S
H385 C401 0.930 . S
H386 C402 0.931 . S
C387 H375 0.929 . S
C387 C381 1.390 . S
C387 C384 1.386 . S
C388 C383 1.490 . S
C388 C390 1.395 . S
C388 C391 1.403 1_455 S
H389 C395 0.930 . S
C390 H376 0.930 . S
C390 C388 1.395 . S
C390 C393 1.403 . S
C391 C388 1.403 1_655 S
C391 C392 1.524 . S
C391 C395 1.400 . S
C392 H377 0.960 . S
C392 H378 0.960 . S
C392 H379 0.960 . S
C392 C391 1.524 . S
C393 C390 1.403 . S
C393 C394 1.392 1_455 S
C393 C397 1.495 . S
C394 C393 1.392 1_655 S
C394 C395 1.385 . S
C394 C396 1.478 . S
C395 H389 0.930 . S
C395 C391 1.400 . S
C395 C394 1.385 . S
C396 C394 1.478 . S
C396 C398 1.381 . S
C396 C402 1.383 . S
C397 C393 1.495 . S
C397 H403 0.959 . S
C397 H404 0.961 . S
C397 H405 0.960 . S
C398 C396 1.381 . S
C398 C399 1.394 . S
C398 H406 0.930 . S
C399 C398 1.394 . S
C399 C400 1.383 . S
C399 H407 0.929 . S
C400 C399 1.383 . S
C400 C401 1.377 . S
C401 H385 0.930 . S
C401 C400 1.377 . S
C401 C402 1.379 . S
C402 H386 0.931 . S
C402 C396 1.383 . S
C402 C401 1.379 . S
H403 C397 0.959 . S
H404 C397 0.961 . S
H405 C397 0.960 . S
H406 C398 0.930 . S
H407 C399 0.929 . S
H408 C416 0.929 . S
H409 C418 0.930 . S
H410 C420 0.930 . S
H411 C423 0.929 . S
H412 C426 0.930 . S
H413 C428 0.960 . S
H414 C428 0.960 . S
H415 C428 0.960 . S
C416 H408 0.929 . S
C416 C417 1.377 . S
C416 C418 1.384 . S
C417 C416 1.377 . S
C417 C423 1.390 . S
C418 H409 0.930 . S
C418 C416 1.384 . S
C418 C419 1.372 . S
C419 C418 1.372 . S
C419 C420 1.400 . S
C419 C424 1.490 . S
C420 H410 0.930 . S
C420 C419 1.400 . S
C420 C423 1.386 . S
H421 C437 0.930 . S
H422 C438 0.931 . S
C423 H411 0.929 . S
C423 C417 1.390 . S
C423 C420 1.386 . S
C424 C419 1.490 . S
C424 C426 1.395 . S
C424 C427 1.403 . S
H425 C431 0.930 . S
C426 H412 0.930 . S
C426 C424 1.395 . S
C426 C429 1.403 . S
C427 C424 1.403 . S
C427 C428 1.524 . S
C427 C431 1.400 . S
C428 H413 0.960 . S
C428 H414 0.960 . S
C428 H415 0.960 . S
C428 C427 1.524 . S
C429 C426 1.403 . S
C429 C430 1.392 . S
C429 C433 1.495 . S
C430 C429 1.392 . S
C430 C431 1.385 . S
C430 C432 1.478 . S
C431 H425 0.930 . S
C431 C427 1.400 . S
C431 C430 1.385 . S
C432 C430 1.478 . S
C432 C434 1.381 . S
C432 C438 1.383 . S
C433 C429 1.495 . S
C433 H439 0.959 . S
C433 H440 0.961 . S
C433 H441 0.960 . S
C434 C432 1.381 . S
C434 C435 1.394 . S
C434 H442 0.930 . S
C435 C434 1.394 . S
C435 C436 1.383 . S
C435 H443 0.929 . S
C436 C435 1.383 . S
C436 C437 1.377 . S
C437 H421 0.930 . S
C437 C436 1.377 . S
C437 C438 1.379 . S
C438 H422 0.931 . S
C438 C432 1.383 . S
C438 C437 1.379 . S
H439 C433 0.959 . S
H440 C433 0.961 . S
H441 C433 0.960 . S
H442 C434 0.930 . S
H443 C435 0.929 . S
H444 C452 0.929 . S
H445 C454 0.930 . S
H446 C456 0.930 . S
H447 C459 0.929 . S
H448 C462 0.930 . S
H449 C464 0.960 . S
H450 C464 0.960 . S
H451 C464 0.960 . S
C452 H444 0.929 . S
C452 C453 1.377 1_556 S
C452 C454 1.384 . S
C453 C452 1.377 1_554 S
C453 C459 1.390 1_554 S
C454 H445 0.930 . S
C454 C452 1.384 . S
C454 C455 1.372 . S
C455 C454 1.372 . S
C455 C456 1.400 . S
C455 C460 1.490 . S
C456 H446 0.930 . S
C456 C455 1.400 . S
C456 C459 1.386 . S
H457 C473 0.930 . S
H458 C474 0.931 . S
C459 H447 0.929 . S
C459 C453 1.390 1_556 S
C459 C456 1.386 . S
C460 C455 1.490 . S
C460 C462 1.395 . S
C460 C463 1.403 . S
H461 C467 0.930 . S
C462 H448 0.930 . S
C462 C460 1.395 . S
C462 C465 1.403 . S
C463 C460 1.403 . S
C463 C464 1.524 . S
C463 C467 1.400 . S
C464 H449 0.960 . S
C464 H450 0.960 . S
C464 H451 0.960 . S
C464 C463 1.524 . S
C465 C462 1.403 . S
C465 C466 1.392 . S
C465 C469 1.495 . S
C466 C465 1.392 . S
C466 C467 1.385 . S
C466 C468 1.478 . S
C467 H461 0.930 . S
C467 C463 1.400 . S
C467 C466 1.385 . S
C468 C466 1.478 . S
C468 C470 1.381 . S
C468 C474 1.383 . S
C469 C465 1.495 . S
C469 H475 0.959 . S
C469 H476 0.961 . S
C469 H477 0.960 . S
C470 C468 1.381 . S
C470 C471 1.394 . S
C470 H478 0.930 . S
C471 C470 1.394 . S
C471 C472 1.383 . S
C471 H479 0.929 . S
C472 C471 1.383 . S
C472 C473 1.377 . S
C473 H457 0.930 . S
C473 C472 1.377 . S
C473 C474 1.379 . S
C474 H458 0.931 . S
C474 C468 1.383 . S
C474 C473 1.379 . S
H475 C469 0.959 . S
H476 C469 0.961 . S
H477 C469 0.960 . S
H478 C470 0.930 . S
H479 C471 0.929 . S
H480 C488 0.929 . S
H481 C490 0.930 . S
H482 C492 0.930 . S
H483 C495 0.929 . S
H484 C498 0.930 . S
H485 C500 0.960 . S
H486 C500 0.960 . S
H487 C500 0.960 . S
C488 H480 0.929 . S
C488 C489 1.377 . S
C488 C490 1.384 . S
C489 C488 1.377 . S
C489 C495 1.390 . S
C490 H481 0.930 . S
C490 C488 1.384 . S
C490 C491 1.372 . S
C491 C490 1.372 . S
C491 C492 1.400 . S
C491 C496 1.490 . S
C492 H482 0.930 . S
C492 C491 1.400 . S
C492 C495 1.386 . S
H493 C509 0.930 . S
H494 C510 0.931 . S
C495 H483 0.929 . S
C495 C489 1.390 . S
C495 C492 1.386 . S
C496 C491 1.490 . S
C496 C498 1.395 . S
C496 C499 1.403 . S
H497 C503 0.930 . S
C498 H484 0.930 . S
C498 C496 1.395 . S
C498 C501 1.403 1_556 S
C499 C496 1.403 . S
C499 C500 1.524 . S
C499 C503 1.400 1_556 S
C500 H485 0.960 . S
C500 H486 0.960 . S
C500 H487 0.960 . S
C500 C499 1.524 . S
C501 C498 1.403 1_554 S
C501 C502 1.392 . S
C501 C505 1.495 . S
C502 C501 1.392 . S
C502 C503 1.385 . S
C502 C504 1.478 . S
C503 H497 0.930 . S
C503 C499 1.400 1_554 S
C503 C502 1.385 . S
C504 C502 1.478 . S
C504 C506 1.381 . S
C504 C510 1.383 . S
C505 C501 1.495 . S
C505 H511 0.959 . S
C505 H512 0.961 . S
C505 H513 0.960 . S
C506 C504 1.381 . S
C506 C507 1.394 . S
C506 H514 0.930 . S
C507 C506 1.394 . S
C507 C508 1.383 . S
C507 H515 0.929 . S
C508 C507 1.383 . S
C508 C509 1.377 . S
C509 H493 0.930 . S
C509 C508 1.377 . S
C509 C510 1.379 . S
C510 H494 0.931 . S
C510 C504 1.383 . S
C510 C509 1.379 . S
H511 C505 0.959 . S
H512 C505 0.961 . S
H513 C505 0.960 . S
H514 C506 0.930 . S
H515 C507 0.929 . S
H516 C524 0.929 . S
H517 C526 0.930 . S
H518 C528 0.930 . S
H519 C531 0.929 . S
H520 C534 0.930 . S
H521 C536 0.960 . S
H522 C536 0.960 . S
H523 C536 0.960 . S
C524 H516 0.929 . S
C524 C525 1.377 1_554 S
C524 C526 1.384 . S
C525 C524 1.377 1_556 S
C525 C531 1.390 1_556 S
C526 H517 0.930 . S
C526 C524 1.384 . S
C526 C527 1.372 . S
C527 C526 1.372 . S
C527 C528 1.400 . S
C527 C532 1.490 . S
C528 H518 0.930 . S
C528 C527 1.400 . S
C528 C531 1.386 . S
H529 C545 0.930 . S
H530 C546 0.931 . S
C531 H519 0.929 . S
C531 C525 1.390 1_554 S
C531 C528 1.386 . S
C532 C527 1.490 . S
C532 C534 1.395 . S
C532 C535 1.403 . S
H533 C539 0.930 . S
C534 H520 0.930 . S
C534 C532 1.395 . S
C534 C537 1.403 . S
C535 C532 1.403 . S
C535 C536 1.524 . S
C535 C539 1.400 . S
C536 H521 0.960 . S
C536 H522 0.960 . S
C536 H523 0.960 . S
C536 C535 1.524 . S
C537 C534 1.403 . S
C537 C538 1.392 . S
C537 C541 1.495 . S
C538 C537 1.392 . S
C538 C539 1.385 . S
C538 C540 1.478 . S
C539 H533 0.930 . S
C539 C535 1.400 . S
C539 C538 1.385 . S
C540 C538 1.478 . S
C540 C542 1.381 . S
C540 C546 1.383 . S
C541 C537 1.495 . S
C541 H547 0.959 . S
C541 H548 0.961 . S
C541 H549 0.960 . S
C542 C540 1.381 . S
C542 C543 1.394 . S
C542 H550 0.930 . S
C543 C542 1.394 . S
C543 C544 1.383 . S
C543 H551 0.929 . S
C544 C543 1.383 . S
C544 C545 1.377 . S
C545 H529 0.930 . S
C545 C544 1.377 . S
C545 C546 1.379 . S
C546 H530 0.931 . S
C546 C540 1.383 . S
C546 C545 1.379 . S
H547 C541 0.959 . S
H548 C541 0.961 . S
H549 C541 0.960 . S
H550 C542 0.930 . S
H551 C543 0.929 . S
H552 C560 0.929 . S
H553 C562 0.930 . S
H554 C564 0.930 . S
H555 C567 0.929 . S
H556 C570 0.930 . S
H557 C572 0.960 . S
H558 C572 0.960 . S
H559 C572 0.960 . S
C560 H552 0.929 . S
C560 C561 1.377 1_556 S
C560 C562 1.384 . S
C561 C560 1.377 1_554 S
C561 C567 1.390 1_554 S
C562 H553 0.930 . S
C562 C560 1.384 . S
C562 C563 1.372 . S
C563 C562 1.372 . S
C563 C564 1.400 . S
C563 C568 1.490 . S
C564 H554 0.930 . S
C564 C563 1.400 . S
C564 C567 1.386 . S
H565 C581 0.930 . S
H566 C582 0.931 . S
C567 H555 0.929 . S
C567 C561 1.390 1_556 S
C567 C564 1.386 . S
C568 C563 1.490 . S
C568 C570 1.395 . S
C568 C571 1.403 . S
H569 C575 0.930 . S
C570 H556 0.930 . S
C570 C568 1.395 . S
C570 C573 1.403 . S
C571 C568 1.403 . S
C571 C572 1.524 . S
C571 C575 1.400 . S
C572 H557 0.960 . S
C572 H558 0.960 . S
C572 H559 0.960 . S
C572 C571 1.524 . S
C573 C570 1.403 . S
C573 C574 1.392 . S
C573 C577 1.495 . S
C574 C573 1.392 . S
C574 C575 1.385 . S
C574 C576 1.478 . S
C575 H569 0.930 . S
C575 C571 1.400 . S
C575 C574 1.385 . S
C576 C574 1.478 . S
C576 C578 1.381 . S
C576 C582 1.383 . S
C577 C573 1.495 . S
C577 H583 0.959 . S
C577 H584 0.961 . S
C577 H585 0.960 . S
C578 C576 1.381 . S
C578 C579 1.394 . S
C578 H586 0.930 . S
C579 C578 1.394 . S
C579 C580 1.383 . S
C579 H587 0.929 . S
C580 C579 1.383 . S
C580 C581 1.377 . S
C581 H565 0.930 . S
C581 C580 1.377 . S
C581 C582 1.379 . S
C582 H566 0.931 . S
C582 C576 1.383 . S
C582 C581 1.379 . S
H583 C577 0.959 . S
H584 C577 0.961 . S
H585 C577 0.960 . S
H586 C578 0.930 . S
H587 C579 0.929 . S
H588 C596 0.929 . S
H589 C598 0.930 . S
H590 C600 0.930 . S
H591 C603 0.929 . S
H592 C606 0.930 . S
H593 C608 0.960 . S
H594 C608 0.960 . S
H595 C608 0.960 . S
C596 H588 0.929 . S
C596 C597 1.377 . S
C596 C598 1.384 . S
C597 C596 1.377 . S
C597 C603 1.390 . S
C598 H589 0.930 . S
C598 C596 1.384 . S
C598 C599 1.372 . S
C599 C598 1.372 . S
C599 C600 1.400 . S
C599 C604 1.490 . S
C600 H590 0.930 . S
C600 C599 1.400 . S
C600 C603 1.386 . S
H601 C617 0.930 . S
H602 C618 0.931 . S
C603 H591 0.929 . S
C603 C597 1.390 . S
C603 C600 1.386 . S
C604 C599 1.490 . S
C604 C606 1.395 . S
C604 C607 1.403 . S
H605 C611 0.930 . S
C606 H592 0.930 . S
C606 C604 1.395 . S
C606 C609 1.403 1_554 S
C607 C604 1.403 . S
C607 C608 1.524 . S
C607 C611 1.400 1_554 S
C608 H593 0.960 . S
C608 H594 0.960 . S
C608 H595 0.960 . S
C608 C607 1.524 . S
C609 C606 1.403 1_556 S
C609 C610 1.392 . S
C609 C613 1.495 . S
C610 C609 1.392 . S
C610 C611 1.385 . S
C610 C612 1.478 . S
C611 H605 0.930 . S
C611 C607 1.400 1_556 S
C611 C610 1.385 . S
C612 C610 1.478 . S
C612 C614 1.381 . S
C612 C618 1.383 . S
C613 C609 1.495 . S
C613 H619 0.959 . S
C613 H620 0.961 . S
C613 H621 0.960 . S
C614 C612 1.381 . S
C614 C615 1.394 . S
C614 H622 0.930 . S
C615 C614 1.394 . S
C615 C616 1.383 . S
C615 H623 0.929 . S
C616 C615 1.383 . S
C616 C617 1.377 . S
C617 H601 0.930 . S
C617 C616 1.377 . S
C617 C618 1.379 . S
C618 H602 0.931 . S
C618 C612 1.383 . S
C618 C617 1.379 . S
H619 C613 0.959 . S
H620 C613 0.961 . S
H621 C613 0.960 . S
H622 C614 0.930 . S
H623 C615 0.929 . S
H624 C632 0.929 . S
H625 C634 0.930 . S
H626 C636 0.930 . S
H627 C639 0.929 . S
H628 C642 0.930 . S
H629 C644 0.960 . S
H630 C644 0.960 . S
H631 C644 0.960 . S
C632 H624 0.929 . S
C632 C633 1.377 . S
C632 C634 1.384 . S
C633 C632 1.377 . S
C633 C639 1.390 . S
C634 H625 0.930 . S
C634 C632 1.384 . S
C634 C635 1.372 . S
C635 C634 1.372 . S
C635 C636 1.400 . S
C635 C640 1.490 . S
C636 H626 0.930 . S
C636 C635 1.400 . S
C636 C639 1.386 . S
H637 C653 0.930 . S
H638 C654 0.931 . S
C639 H627 0.929 . S
C639 C633 1.390 . S
C639 C636 1.386 . S
C640 C635 1.490 . S
C640 C642 1.395 . S
C640 C643 1.403 . S
H641 C647 0.930 . S
C642 H628 0.930 . S
C642 C640 1.395 . S
C642 C645 1.403 . S
C643 C640 1.403 . S
C643 C644 1.524 . S
C643 C647 1.400 . S
C644 H629 0.960 . S
C644 H630 0.960 . S
C644 H631 0.960 . S
C644 C643 1.524 . S
C645 C642 1.403 . S
C645 C646 1.392 . S
C645 C649 1.495 . S
C646 C645 1.392 . S
C646 C647 1.385 . S
C646 C648 1.478 . S
C647 H641 0.930 . S
C647 C643 1.400 . S
C647 C646 1.385 . S
C648 C646 1.478 . S
C648 C650 1.381 . S
C648 C654 1.383 . S
C649 C645 1.495 . S
C649 H655 0.959 . S
C649 H656 0.961 . S
C649 H657 0.960 . S
C650 C648 1.381 . S
C650 C651 1.394 . S
C650 H658 0.930 . S
C651 C650 1.394 . S
C651 C652 1.383 1_554 S
C651 H659 0.929 1_554 S
C652 C651 1.383 1_556 S
C652 C653 1.377 1_556 S
C653 H637 0.930 . S
C653 C652 1.377 1_554 S
C653 C654 1.379 . S
C654 H638 0.931 . S
C654 C648 1.383 . S
C654 C653 1.379 . S
H655 C649 0.959 . S
H656 C649 0.961 . S
H657 C649 0.960 . S
H658 C650 0.930 . S
H659 C651 0.929 1_556 S
H660 C668 0.929 . S
H661 C670 0.930 . S
H662 C672 0.930 . S
H663 C675 0.929 . S
H664 C678 0.930 . S
H665 C680 0.960 . S
H666 C680 0.960 . S
H667 C680 0.960 . S
C668 H660 0.929 . S
C668 C669 1.377 . S
C668 C670 1.384 . S
C669 C668 1.377 . S
C669 C675 1.390 . S
C670 H661 0.930 . S
C670 C668 1.384 . S
C670 C671 1.372 . S
C671 C670 1.372 . S
C671 C672 1.400 . S
C671 C676 1.490 . S
C672 H662 0.930 . S
C672 C671 1.400 . S
C672 C675 1.386 . S
H673 C689 0.930 . S
H674 C690 0.931 . S
C675 H663 0.929 . S
C675 C669 1.390 . S
C675 C672 1.386 . S
C676 C671 1.490 . S
C676 C678 1.395 . S
C676 C679 1.403 . S
H677 C683 0.930 . S
C678 H664 0.930 . S
C678 C676 1.395 . S
C678 C681 1.403 . S
C679 C676 1.403 . S
C679 C680 1.524 . S
C679 C683 1.400 . S
C680 H665 0.960 . S
C680 H666 0.960 . S
C680 H667 0.960 . S
C680 C679 1.524 . S
C681 C678 1.403 . S
C681 C682 1.392 . S
C681 C685 1.495 . S
C682 C681 1.392 . S
C682 C683 1.385 . S
C682 C684 1.478 . S
C683 H677 0.930 . S
C683 C679 1.400 . S
C683 C682 1.385 . S
C684 C682 1.478 . S
C684 C686 1.381 . S
C684 C690 1.383 . S
C685 C681 1.495 . S
C685 H691 0.959 . S
C685 H692 0.961 . S
C685 H693 0.960 . S
C686 C684 1.381 . S
C686 C687 1.394 . S
C686 H694 0.930 . S
C687 C686 1.394 . S
C687 C688 1.383 . S
C687 H695 0.929 . S
C688 C687 1.383 . S
C688 C689 1.377 . S
C689 H673 0.930 . S
C689 C688 1.377 . S
C689 C690 1.379 . S
C690 H674 0.931 . S
C690 C684 1.383 . S
C690 C689 1.379 . S
H691 C685 0.959 . S
H692 C685 0.961 . S
H693 C685 0.960 . S
H694 C686 0.930 . S
H695 C687 0.929 . S
H696 C704 0.929 . S
H697 C706 0.930 . S
H698 C708 0.930 . S
H699 C711 0.929 . S
H700 C714 0.930 . S
H701 C716 0.960 . S
H702 C716 0.960 . S
H703 C716 0.960 . S
C704 H696 0.929 . S
C704 C705 1.377 . S
C704 C706 1.384 . S
C705 C704 1.377 . S
C705 C711 1.390 . S
C706 H697 0.930 . S
C706 C704 1.384 . S
C706 C707 1.372 . S
C707 C706 1.372 . S
C707 C708 1.400 . S
C707 C712 1.490 . S
C708 H698 0.930 . S
C708 C707 1.400 . S
C708 C711 1.386 . S
H709 C725 0.930 . S
H710 C726 0.931 . S
C711 H699 0.929 . S
C711 C705 1.390 . S
C711 C708 1.386 . S
C712 C707 1.490 . S
C712 C714 1.395 . S
C712 C715 1.403 . S
H713 C719 0.930 . S
C714 H700 0.930 . S
C714 C712 1.395 . S
C714 C717 1.403 . S
C715 C712 1.403 . S
C715 C716 1.524 . S
C715 C719 1.400 . S
C716 H701 0.960 . S
C716 H702 0.960 . S
C716 H703 0.960 . S
C716 C715 1.524 . S
C717 C714 1.403 . S
C717 C718 1.392 . S
C717 C721 1.495 1_556 S
C718 C717 1.392 . S
C718 C719 1.385 . S
C718 C720 1.478 . S
C719 H713 0.930 . S
C719 C715 1.400 . S
C719 C718 1.385 . S
C720 C718 1.478 . S
C720 C722 1.381 . S
C720 C726 1.383 . S
C721 C717 1.495 1_554 S
C721 H727 0.959 . S
C721 H728 0.961 . S
C721 H729 0.960 . S
C722 C720 1.381 . S
C722 C723 1.394 . S
C722 H730 0.930 . S
C723 C722 1.394 . S
C723 C724 1.383 . S
C723 H731 0.929 . S
C724 C723 1.383 . S
C724 C725 1.377 . S
C725 H709 0.930 . S
C725 C724 1.377 . S
C725 C726 1.379 . S
C726 H710 0.931 . S
C726 C720 1.383 . S
C726 C725 1.379 . S
H727 C721 0.959 . S
H728 C721 0.961 . S
H729 C721 0.960 . S
H730 C722 0.930 . S
H731 C723 0.929 . S
H732 C740 0.929 . S
H733 C742 0.930 . S
H734 C744 0.930 . S
H735 C747 0.929 . S
H736 C750 0.930 . S
H737 C752 0.960 . S
H738 C752 0.960 . S
H739 C752 0.960 . S
C740 H732 0.929 . S
C740 C741 1.377 . S
C740 C742 1.384 . S
C741 C740 1.377 . S
C741 C747 1.390 . S
C742 H733 0.930 . S
C742 C740 1.384 . S
C742 C743 1.372 . S
C743 C742 1.372 . S
C743 C744 1.400 . S
C743 C748 1.490 . S
C744 H734 0.930 . S
C744 C743 1.400 . S
C744 C747 1.386 . S
H745 C761 0.930 . S
H746 C762 0.931 . S
C747 H735 0.929 . S
C747 C741 1.390 . S
C747 C744 1.386 . S
C748 C743 1.490 . S
C748 C750 1.395 . S
C748 C751 1.403 . S
H749 C755 0.930 . S
C750 H736 0.930 . S
C750 C748 1.395 . S
C750 C753 1.403 . S
C751 C748 1.403 . S
C751 C752 1.524 . S
C751 C755 1.400 . S
C752 H737 0.960 . S
C752 H738 0.960 . S
C752 H739 0.960 . S
C752 C751 1.524 . S
C753 C750 1.403 . S
C753 C754 1.392 . S
C753 C757 1.495 1_554 S
C754 C753 1.392 . S
C754 C755 1.385 . S
C754 C756 1.478 . S
C755 H749 0.930 . S
C755 C751 1.400 . S
C755 C754 1.385 . S
C756 C754 1.478 . S
C756 C758 1.381 . S
C756 C762 1.383 . S
C757 C753 1.495 1_556 S
C757 H763 0.959 . S
C757 H764 0.961 . S
C757 H765 0.960 . S
C758 C756 1.381 . S
C758 C759 1.394 . S
C758 H766 0.930 . S
C759 C758 1.394 . S
C759 C760 1.383 . S
C759 H767 0.929 . S
C760 C759 1.383 . S
C760 C761 1.377 . S
C761 H745 0.930 . S
C761 C760 1.377 . S
C761 C762 1.379 . S
C762 H746 0.931 . S
C762 C756 1.383 . S
C762 C761 1.379 . S
H763 C757 0.959 . S
H764 C757 0.961 . S
H765 C757 0.960 . S
H766 C758 0.930 . S
H767 C759 0.929 . S
H768 C776 0.929 . S
H769 C778 0.930 . S
H770 C780 0.930 . S
H771 C783 0.929 . S
H772 C786 0.930 . S
H773 C788 0.960 . S
H774 C788 0.960 . S
H775 C788 0.960 . S
C776 H768 0.929 . S
C776 C777 1.377 . S
C776 C778 1.384 . S
C777 C776 1.377 . S
C777 C783 1.390 . S
C778 H769 0.930 . S
C778 C776 1.384 . S
C778 C779 1.372 . S
C779 C778 1.372 . S
C779 C780 1.400 . S
C779 C784 1.490 . S
C780 H770 0.930 . S
C780 C779 1.400 . S
C780 C783 1.386 . S
H781 C797 0.930 . S
H782 C798 0.931 . S
C783 H771 0.929 . S
C783 C777 1.390 . S
C783 C780 1.386 . S
C784 C779 1.490 . S
C784 C786 1.395 . S
C784 C787 1.403 . S
H785 C791 0.930 . S
C786 H772 0.930 . S
C786 C784 1.395 . S
C786 C789 1.403 . S
C787 C784 1.403 . S
C787 C788 1.524 . S
C787 C791 1.400 . S
C788 H773 0.960 . S
C788 H774 0.960 . S
C788 H775 0.960 . S
C788 C787 1.524 . S
C789 C786 1.403 . S
C789 C790 1.392 . S
C789 C793 1.495 . S
C790 C789 1.392 . S
C790 C791 1.385 . S
C790 C792 1.478 . S
C791 H785 0.930 . S
C791 C787 1.400 . S
C791 C790 1.385 . S
C792 C790 1.478 . S
C792 C794 1.381 . S
C792 C798 1.383 . S
C793 C789 1.495 . S
C793 H799 0.959 . S
C793 H800 0.961 . S
C793 H801 0.960 . S
C794 C792 1.381 . S
C794 C795 1.394 . S
C794 H802 0.930 . S
C795 C794 1.394 . S
C795 C796 1.383 . S
C795 H803 0.929 . S
C796 C795 1.383 . S
C796 C797 1.377 . S
C797 H781 0.930 . S
C797 C796 1.377 . S
C797 C798 1.379 . S
C798 H782 0.931 . S
C798 C792 1.383 . S
C798 C797 1.379 . S
H799 C793 0.959 . S
H800 C793 0.961 . S
H801 C793 0.960 . S
H802 C794 0.930 . S
H803 C795 0.929 . S
H804 C812 0.929 . S
H805 C814 0.930 . S
H806 C816 0.930 . S
H807 C819 0.929 . S
H808 C822 0.930 . S
H809 C824 0.960 . S
H810 C824 0.960 . S
H811 C824 0.960 . S
C812 H804 0.929 . S
C812 C813 1.377 . S
C812 C814 1.384 . S
C813 C812 1.377 . S
C813 C819 1.390 . S
C814 H805 0.930 . S
C814 C812 1.384 . S
C814 C815 1.372 . S
C815 C814 1.372 . S
C815 C816 1.400 . S
C815 C820 1.490 . S
C816 H806 0.930 . S
C816 C815 1.400 . S
C816 C819 1.386 . S
H817 C833 0.930 . S
H818 C834 0.931 . S
C819 H807 0.929 . S
C819 C813 1.390 . S
C819 C816 1.386 . S
C820 C815 1.490 . S
C820 C822 1.395 . S
C820 C823 1.403 . S
H821 C827 0.930 . S
C822 H808 0.930 . S
C822 C820 1.395 . S
C822 C825 1.403 . S
C823 C820 1.403 . S
C823 C824 1.524 . S
C823 C827 1.400 . S
C824 H809 0.960 . S
C824 H810 0.960 . S
C824 H811 0.960 . S
C824 C823 1.524 . S
C825 C822 1.403 . S
C825 C826 1.392 . S
C825 C829 1.495 . S
C826 C825 1.392 . S
C826 C827 1.385 . S
C826 C828 1.478 . S
C827 H821 0.930 . S
C827 C823 1.400 . S
C827 C826 1.385 . S
C828 C826 1.478 . S
C828 C830 1.381 . S
C828 C834 1.383 . S
C829 C825 1.495 . S
C829 H835 0.959 . S
C829 H836 0.961 . S
C829 H837 0.960 . S
C830 C828 1.381 . S
C830 C831 1.394 . S
C830 H838 0.930 . S
C831 C830 1.394 . S
C831 C832 1.383 . S
C831 H839 0.929 . S
C832 C831 1.383 . S
C832 C833 1.377 . S
C833 H817 0.930 . S
C833 C832 1.377 . S
C833 C834 1.379 . S
C834 H818 0.931 . S
C834 C828 1.383 . S
C834 C833 1.379 . S
H835 C829 0.959 . S
H836 C829 0.961 . S
H837 C829 0.960 . S
H838 C830 0.930 . S
H839 C831 0.929 . S
H840 C848 0.929 . S
H841 C850 0.930 . S
H842 C852 0.930 . S
H843 C855 0.929 . S
H844 C858 0.930 . S
H845 C860 0.960 . S
H846 C860 0.960 . S
H847 C860 0.960 . S
C848 H840 0.929 . S
C848 C849 1.377 . S
C848 C850 1.384 . S
C849 C848 1.377 . S
C849 C855 1.390 . S
C850 H841 0.930 . S
C850 C848 1.384 . S
C850 C851 1.372 . S
C851 C850 1.372 . S
C851 C852 1.400 . S
C851 C856 1.490 . S
C852 H842 0.930 . S
C852 C851 1.400 . S
C852 C855 1.386 . S
H853 C869 0.930 . S
H854 C870 0.931 . S
C855 H843 0.929 . S
C855 C849 1.390 . S
C855 C852 1.386 . S
C856 C851 1.490 . S
C856 C858 1.395 . S
C856 C859 1.403 . S
H857 C863 0.930 . S
C858 H844 0.930 . S
C858 C856 1.395 . S
C858 C861 1.403 . S
C859 C856 1.403 . S
C859 C860 1.524 . S
C859 C863 1.400 . S
C860 H845 0.960 . S
C860 H846 0.960 . S
C860 H847 0.960 . S
C860 C859 1.524 . S
C861 C858 1.403 . S
C861 C862 1.392 . S
C861 C865 1.495 . S
C862 C861 1.392 . S
C862 C863 1.385 . S
C862 C864 1.478 . S
C863 H857 0.930 . S
C863 C859 1.400 . S
C863 C862 1.385 . S
C864 C862 1.478 . S
C864 C866 1.381 . S
C864 C870 1.383 . S
C865 C861 1.495 . S
C865 H871 0.959 . S
C865 H872 0.961 . S
C865 H873 0.960 . S
C866 C864 1.381 . S
C866 C867 1.394 . S
C866 H874 0.930 . S
C867 C866 1.394 . S
C867 C868 1.383 . S
C867 H875 0.929 . S
C868 C867 1.383 . S
C868 C869 1.377 . S
C869 H853 0.930 . S
C869 C868 1.377 . S
C869 C870 1.379 . S
C870 H854 0.931 . S
C870 C864 1.383 . S
C870 C869 1.379 . S
H871 C865 0.959 . S
H872 C865 0.961 . S
H873 C865 0.960 . S
H874 C866 0.930 . S
H875 C867 0.929 . S
H876 C884 0.929 . S
H877 C886 0.930 . S
H878 C888 0.930 . S
H879 C891 0.929 . S
H880 C894 0.930 . S
H881 C896 0.960 . S
H882 C896 0.960 . S
H883 C896 0.960 . S
C884 H876 0.929 . S
C884 C885 1.377 . S
C884 C886 1.384 . S
C885 C884 1.377 . S
C885 C891 1.390 . S
C886 H877 0.930 . S
C886 C884 1.384 . S
C886 C887 1.372 . S
C887 C886 1.372 . S
C887 C888 1.400 . S
C887 C892 1.490 . S
C888 H878 0.930 . S
C888 C887 1.400 . S
C888 C891 1.386 . S
H889 C905 0.930 . S
H890 C906 0.931 . S
C891 H879 0.929 . S
C891 C885 1.390 . S
C891 C888 1.386 . S
C892 C887 1.490 . S
C892 C894 1.395 . S
C892 C895 1.403 . S
H893 C899 0.930 . S
C894 H880 0.930 . S
C894 C892 1.395 . S
C894 C897 1.403 . S
C895 C892 1.403 . S
C895 C896 1.524 . S
C895 C899 1.400 . S
C896 H881 0.960 . S
C896 H882 0.960 . S
C896 H883 0.960 . S
C896 C895 1.524 . S
C897 C894 1.403 . S
C897 C898 1.392 . S
C897 C901 1.495 . S
C898 C897 1.392 . S
C898 C899 1.385 . S
C898 C900 1.478 . S
C899 H893 0.930 . S
C899 C895 1.400 . S
C899 C898 1.385 . S
C900 C898 1.478 . S
C900 C902 1.381 . S
C900 C906 1.383 . S
C901 C897 1.495 . S
C901 H907 0.959 . S
C901 H908 0.961 . S
C901 H909 0.960 . S
C902 C900 1.381 . S
C902 C903 1.394 . S
C902 H910 0.930 . S
C903 C902 1.394 . S
C903 C904 1.383 . S
C903 H911 0.929 . S
C904 C903 1.383 . S
C904 C905 1.377 . S
C905 H889 0.930 . S
C905 C904 1.377 . S
C905 C906 1.379 . S
C906 H890 0.931 . S
C906 C900 1.383 . S
C906 C905 1.379 . S
H907 C901 0.959 . S
H908 C901 0.961 . S
H909 C901 0.960 . S
H910 C902 0.930 . S
H911 C903 0.929 . S
H912 C920 0.929 . S
H913 C922 0.930 . S
H914 C924 0.930 . S
H915 C927 0.929 . S
H916 C930 0.930 . S
H917 C932 0.960 . S
H918 C932 0.960 . S
H919 C932 0.960 . S
C920 H912 0.929 . S
C920 C921 1.377 . S
C920 C922 1.384 . S
C921 C920 1.377 . S
C921 C927 1.390 . S
C922 H913 0.930 . S
C922 C920 1.384 . S
C922 C923 1.372 . S
C923 C922 1.372 . S
C923 C924 1.400 . S
C923 C928 1.490 . S
C924 H914 0.930 . S
C924 C923 1.400 . S
C924 C927 1.386 . S
H925 C941 0.930 . S
H926 C942 0.931 . S
C927 H915 0.929 . S
C927 C921 1.390 . S
C927 C924 1.386 . S
C928 C923 1.490 . S
C928 C930 1.395 . S
C928 C931 1.403 . S
H929 C935 0.930 . S
C930 H916 0.930 . S
C930 C928 1.395 . S
C930 C933 1.403 . S
C931 C928 1.403 . S
C931 C932 1.524 1_556 S
C931 C935 1.400 . S
C932 H917 0.960 . S
C932 H918 0.960 . S
C932 H919 0.960 . S
C932 C931 1.524 1_554 S
C933 C930 1.403 . S
C933 C934 1.392 . S
C933 C937 1.495 . S
C934 C933 1.392 . S
C934 C935 1.385 . S
C934 C936 1.478 . S
C935 H929 0.930 . S
C935 C931 1.400 . S
C935 C934 1.385 . S
C936 C934 1.478 . S
C936 C938 1.381 . S
C936 C942 1.383 . S
C937 C933 1.495 . S
C937 H943 0.959 . S
C937 H944 0.961 . S
C937 H945 0.960 . S
C938 C936 1.381 . S
C938 C939 1.394 . S
C938 H946 0.930 . S
C939 C938 1.394 . S
C939 C940 1.383 . S
C939 H947 0.929 . S
C940 C939 1.383 . S
C940 C941 1.377 . S
C941 H925 0.930 . S
C941 C940 1.377 . S
C941 C942 1.379 . S
C942 H926 0.931 . S
C942 C936 1.383 . S
C942 C941 1.379 . S
H943 C937 0.959 . S
H944 C937 0.961 . S
H945 C937 0.960 . S
H946 C938 0.930 . S
H947 C939 0.929 . S
H948 C956 0.929 1_556 S
H949 C958 0.930 . S
H950 C960 0.930 . S
H951 C963 0.929 . S
H952 C966 0.930 . S
H953 C968 0.960 . S
H954 C968 0.960 . S
H955 C968 0.960 . S
C956 H948 0.929 1_554 S
C956 C957 1.377 . S
C956 C958 1.384 . S
C957 C956 1.377 . S
C957 C963 1.390 . S
C958 H949 0.930 . S
C958 C956 1.384 . S
C958 C959 1.372 . S
C959 C958 1.372 . S
C959 C960 1.400 . S
C959 C964 1.490 . S
C960 H950 0.930 . S
C960 C959 1.400 . S
C960 C963 1.386 . S
H961 C977 0.930 . S
H962 C978 0.931 . S
C963 H951 0.929 . S
C963 C957 1.390 . S
C963 C960 1.386 . S
C964 C959 1.490 . S
C964 C966 1.395 . S
C964 C967 1.403 . S
H965 C971 0.930 . S
C966 H952 0.930 . S
C966 C964 1.395 . S
C966 C969 1.403 . S
C967 C964 1.403 . S
C967 C968 1.524 . S
C967 C971 1.400 . S
C968 H953 0.960 . S
C968 H954 0.960 . S
C968 H955 0.960 . S
C968 C967 1.524 . S
C969 C966 1.403 . S
C969 C970 1.392 . S
C969 C973 1.495 . S
C970 C969 1.392 . S
C970 C971 1.385 . S
C970 C972 1.478 . S
C971 H965 0.930 . S
C971 C967 1.400 . S
C971 C970 1.385 . S
C972 C970 1.478 . S
C972 C974 1.381 . S
C972 C978 1.383 . S
C973 C969 1.495 . S
C973 H979 0.959 . S
C973 H980 0.961 . S
C973 H981 0.960 . S
C974 C972 1.381 . S
C974 C975 1.394 . S
C974 H982 0.930 . S
C975 C974 1.394 . S
C975 C976 1.383 . S
C975 H983 0.929 . S
C976 C975 1.383 . S
C976 C977 1.377 . S
C977 H961 0.930 . S
C977 C976 1.377 . S
C977 C978 1.379 . S
C978 H962 0.931 . S
C978 C972 1.383 . S
C978 C977 1.379 . S
H979 C973 0.959 . S
H980 C973 0.961 . S
H981 C973 0.960 . S
H982 C974 0.930 . S
H983 C975 0.929 . S
C273 C248 1.167 . S
C292 C17 1.160 . S
C309 C149 1.149 . S
C328 C50 1.147 . S
C345 C182 1.131 . S
C364 C83 1.130 . S
C381 C215 1.147 . S
C400 C116 1.147 . S
C417 N5 1.390 . S
C436 N14 1.368 . S
C453 N47 1.385 . S
C472 N38 1.373 . S
C489 N71 1.390 . S
C508 N80 1.367 . S
C525 N113 1.386 . S
C544 N104 1.374 . S
C561 N146 1.386 . S
C580 N137 1.403 . S
C597 N179 1.385 . S
C616 N170 1.402 . S
C633 N212 1.383 . S
C652 N203 1.390 . S
C669 N245 1.388 . S
C688 N236 1.397 . S
C705 C226 1.312 . S
C724 C8 1.316 . S
C741 C41 1.342 . S
C760 C259 1.330 . S
C777 C160 1.287 . S
C796 C74 1.297 . S
C813 C127 1.269 . S
C832 C193 1.269 . S
C849 C173 1.261 . S
C868 C61 1.257 . S
C885 C94 1.282 . S
C904 C206 1.276 . S
C921 C239 1.333 . S
C940 C107 1.332 . S
C957 C28 1.299 . S
C976 C140 1.316 . S
