# Generated by pormake.
# Topology uoj, (4)-cn, num edge types: 1
# Building blocks:
#     Node 0, Type 0, BuildingBlock: QUQFOY_clean_sbu_3, # of connection points: 4
#     Node 1, Type 0, BuildingBlock: QUQFOY_clean_sbu_3, # of connection points: 4
#     Node 2, Type 0, BuildingBlock: QUQFOY_clean_sbu_3, # of connection points: 4
#     Node 3, Type 0, BuildingBlock: QUQFOY_clean_sbu_3, # of connection points: 4
#     Node 4, Type 0, BuildingBlock: QUQFOY_clean_sbu_3, # of connection points: 4
#     Node 5, Type 0, BuildingBlock: QUQFOY_clean_sbu_3, # of connection points: 4
#     Node 6, Type 0, BuildingBlock: QUQFOY_clean_sbu_3, # of connection points: 4
#     Node 7, Type 0, BuildingBlock: QUQFOY_clean_sbu_3, # of connection points: 4
#     Edge 8, Type (0, 0), BuildingBlock: FUNLAD_clean_linker_1, # of connection points: 2
#     Edge 9, Type (0, 0), BuildingBlock: FUNLAD_clean_linker_1, # of connection points: 2
#     Edge 10, Type (0, 0), BuildingBlock: FUNLAD_clean_linker_1, # of connection points: 2
#     Edge 11, Type (0, 0), BuildingBlock: FUNLAD_clean_linker_1, # of connection points: 2
#     Edge 12, Type (0, 0), BuildingBlock: FUNLAD_clean_linker_1, # of connection points: 2
#     Edge 13, Type (0, 0), BuildingBlock: FUNLAD_clean_linker_1, # of connection points: 2
#     Edge 14, Type (0, 0), BuildingBlock: FUNLAD_clean_linker_1, # of connection points: 2
#     Edge 15, Type (0, 0), BuildingBlock: FUNLAD_clean_linker_1, # of connection points: 2
#     Edge 16, Type (0, 0), BuildingBlock: FUNLAD_clean_linker_1, # of connection points: 2
#     Edge 17, Type (0, 0), BuildingBlock: FUNLAD_clean_linker_1, # of connection points: 2
#     Edge 18, Type (0, 0), BuildingBlock: FUNLAD_clean_linker_1, # of connection points: 2
#     Edge 19, Type (0, 0), BuildingBlock: FUNLAD_clean_linker_1, # of connection points: 2
#     Edge 20, Type (0, 0), BuildingBlock: FUNLAD_clean_linker_1, # of connection points: 2
#     Edge 21, Type (0, 0), BuildingBlock: FUNLAD_clean_linker_1, # of connection points: 2
#     Edge 22, Type (0, 0), BuildingBlock: FUNLAD_clean_linker_1, # of connection points: 2
#     Edge 23, Type (0, 0), BuildingBlock: FUNLAD_clean_linker_1, # of connection points: 2
# Relax obj value: 0.110
# Max RMSD: 0.138
# Mean RMSD: 0.138
data_MOF--net-uoj--node1-QUQFOY_clean_sbu_3--edge1-FUNLAD_clean_linker_1
_symmetry_space_group_name_H-M    P1
_symmetry_Int_Tables_number       1
_symmetry_cell_setting            triclinic
loop_
_symmetry_equiv_pos_as_xyz
'x, y, z'
_cell_length_a     36.11359
_cell_length_b     35.69999
_cell_length_c     37.932192
_cell_angle_alpha  89.446074
_cell_angle_beta   89.867101
_cell_angle_gamma 92.1871
loop_
_atom_site_label
_atom_site_type_symbol
_atom_site_fract_x
_atom_site_fract_y
_atom_site_fract_z
_atom_type_partial_charge
C0 C 0.03608 0.30077 0.32701 0.0
O1 O 0.00101 0.29903 0.32936 0.0
Cd2 Cd 0.96707 0.2812 0.38152 0.0
O3 O 0.05628 0.29197 0.35311 0.0
Cd4 Cd 0.04658 0.26943 0.41474 0.0
C5 C 0.00543 0.34879 0.43555 0.0
O6 O -0.00617 0.22626 0.40469 0.0
O7 O 0.0048 0.24072 0.45884 0.0
O8 O 0.09855 0.22934 0.40661 0.0
C9 C -0.01365 0.221 0.43701 0.0
O10 O 0.97677 0.33467 0.4204 0.0
C11 C 0.11325 0.23668 0.43621 0.0
O12 O 0.036 0.3323 0.43521 0.0
O13 O 0.09796 0.26078 0.45523 0.0
C14 C 0.20226 0.88627 0.49279 0.0
O15 O 0.21588 0.89863 0.46392 0.0
Cd16 Cd 0.269 0.94104 0.4641 0.0
O17 O 0.21799 0.89395 0.52183 0.0
Cd18 Cd 0.27409 0.92777 0.54175 0.0
C19 C 0.23949 0.00903 0.5199 0.0
O20 O 0.32112 0.91799 0.49575 0.0
O21 O 0.3278 0.96683 0.52888 0.0
O22 O 0.29127 0.87349 0.57607 0.0
C23 C 0.34176 0.94491 0.50683 0.0
O24 O 0.24879 -0.00041 0.4889 0.0
C25 C 0.29347 0.89032 0.60527 0.0
O26 O 0.24272 -0.0134 0.54585 0.0
O27 O 0.28572 0.92475 0.60541 0.0
C28 C 0.87884 0.66789 0.36231 0.0
O29 O 0.91317 0.67382 0.35619 0.0
Cd30 Cd 0.95843 0.69388 0.39811 0.0
O31 O 0.86516 0.67386 0.39266 0.0
Cd32 Cd 0.88898 0.69765 0.45014 0.0
C33 C 0.94167 0.62293 0.45881 0.0
O34 O 0.93206 0.74522 0.42684 0.0
O35 O 0.94006 0.73034 0.48133 0.0
O36 O 0.83576 0.73575 0.45729 0.0
C37 C 0.94877 0.75163 0.45545 0.0
O38 O 0.96379 0.63948 0.43697 0.0
C39 C 0.82885 0.72551 0.48886 0.0
O40 O 0.91084 0.63669 0.46676 0.0
O41 O 0.84856 0.70023 0.50194 0.0
C42 C 0.74482 0.09475 0.5336 0.0
O43 O 0.727 0.08712 0.50562 0.0
Cd44 Cd 0.67331 0.04606 0.50244 0.0
O45 O 0.73378 0.08183 0.56332 0.0
Cd46 Cd 0.68123 0.04165 0.58528 0.0
C47 C 0.70849 0.96721 0.54047 0.0
O48 O 0.62979 0.05956 0.54741 0.0
O49 O 0.62528 0.0054 0.57356 0.0
O50 O 0.6648 0.08227 0.63339 0.0
C51 C 0.61031 0.03025 0.55492 0.0
O52 O 0.69559 -0.01645 0.51345 0.0
C53 C 0.67096 0.05873 0.65777 0.0
O54 O 0.70969 0.98306 0.57043 0.0
O55 O 0.68326 0.02741 0.64865 0.0
C56 C 0.39873 0.7185 0.968 0.0
O57 O 0.41919 0.73256 0.99194 0.0
Cd58 Cd 0.46823 0.778 0.98019 0.0
O59 O 0.40231 0.72933 0.93605 0.0
Cd60 Cd 0.43961 0.77624 0.90164 0.0
C61 C 0.51844 0.73381 0.91586 0.0
O62 O 0.44602 0.82706 0.94414 0.0
O63 O 0.48491 0.82797 0.90059 0.0
O64 O 0.38422 0.79878 0.8735 0.0
C65 C 0.47199 0.84414 0.92722 0.0
O66 O 0.51575 0.74741 0.94667 0.0
C67 C 0.39555 0.79434 0.84224 0.0
O68 O 0.49247 0.73669 0.8935 0.0
O69 O 0.42703 0.78016 0.83836 0.0
C70 C 0.77656 0.56259 0.12638 0.0
O71 O 0.76663 0.52821 0.12974 0.0
Cd72 Cd 0.74621 0.48794 0.08316 0.0
O73 O 0.77578 0.57913 0.09649 0.0
Cd74 Cd 0.75664 0.56255 0.03557 0.0
C75 C 0.82183 0.49832 0.02848 0.0
O76 O 0.70285 0.52363 0.05171 0.0
O77 O 0.72061 0.51925 -0.00209 0.0
O78 O 0.7314 0.62412 0.02939 0.0
C79 C 0.69719 0.50987 0.02159 0.0
O80 O 0.80087 0.47634 0.047 0.0
C81 C 0.74273 0.62943 -0.00201 0.0
O82 O 0.81391 0.53228 0.023 0.0
O83 O 0.76286 0.60473 0.98483 0.0
C84 C 0.59003 0.24308 -0.00046 0.0
O85 O 0.57955 0.23191 0.02991 0.0
Cd86 Cd 0.53273 0.18293 0.03645 0.0
O87 O 0.57721 0.22738 0.97208 0.0
Cd88 Cd 0.53327 0.17598 0.95819 0.0
C89 C 0.46334 0.22267 0.99014 0.0
O90 O 0.54405 0.12754 0.00282 0.0
O91 O 0.48984 0.12748 0.9784 0.0
O92 O 0.57657 0.15187 0.91569 0.0
C93 C 0.51333 0.11041 -0.00338 0.0
O94 O 0.47469 0.21121 0.01993 0.0
C95 C 0.55495 0.1536 0.88946 0.0
O96 O 0.48134 0.21665 0.96202 0.0
O97 O 0.52293 0.16585 0.895 0.0
C98 C 0.15781 0.41927 0.10587 0.0
O99 O 0.15007 0.45362 0.10704 0.0
Cd100 Cd 0.1507 0.49273 0.05544 0.0
O101 O 0.16775 0.40461 0.07708 0.0
Cd102 Cd 0.17858 0.42434 0.01489 0.0
C103 C 0.08865 0.44008 0.00626 0.0
O104 O 0.20818 0.48563 0.02515 0.0
O105 O 0.19029 0.47476 0.9717 0.0
O106 O 0.23362 0.38869 0.01761 0.0
C107 C 0.20849 0.49545 -0.00706 0.0
O108 O 0.0964 0.4701 0.02302 0.0
C109 C 0.22756 0.3705 0.98951 0.0
O110 O 0.11319 0.41626 0.0007 0.0
O111 O 0.19761 0.37634 0.97325 0.0
H112 H 0.16335 0.36694 0.1366 0.0
C113 C 0.15311 0.39517 0.13743 0.0
H114 H 0.12351 0.43415 0.16679 0.0
H115 H 0.06779 0.27075 0.23848 0.0
H116 H 0.04428 0.25415 0.18055 0.0
H117 H 0.0556 0.29638 0.12947 0.0
H118 H 0.09141 0.35456 0.1357 0.0
C119 C 0.13365 0.40592 0.16555 0.0
C120 C 0.12562 0.38043 0.19611 0.0
C121 C 0.10282 0.34743 0.1921 0.0
C122 C 0.09399 0.32439 0.22195 0.0
C123 C 0.07352 0.29023 0.21695 0.0
C124 C 0.06012 0.28024 0.18383 0.0
C125 C 0.06666 0.30391 0.15505 0.0
C126 C 0.08764 0.33716 0.15898 0.0
H127 H 0.03458 0.32683 0.27438 0.0
C128 C 0.05298 0.31537 0.29406 0.0
H129 H 0.1085 0.30585 0.30775 0.0
H130 H 0.17238 0.43986 0.2124 0.0
H131 H 0.19398 0.45727 0.27071 0.0
H132 H 0.17494 0.4197 0.32305 0.0
H133 H 0.1346 0.36433 0.3174 0.0
C134 C 0.08969 0.31644 0.28804 0.0
C135 C 0.10531 0.33592 0.25608 0.0
C136 C 0.12895 0.36825 0.25996 0.0
C137 C 0.13932 0.39035 0.22988 0.0
C138 C 0.16314 0.4224 0.23443 0.0
C139 C 0.17583 0.43267 0.26774 0.0
C140 C 0.16515 0.41149 0.29719 0.0
C141 C 0.14195 0.3797 0.29354 0.0
H142 H 0.31362 0.84147 0.63408 0.0
C143 C 0.30631 0.87057 0.63686 0.0
H144 H 0.30551 0.91705 0.6708 0.0
H145 H 0.32809 0.76374 0.77184 0.0
H146 H 0.26576 0.74452 0.7542 0.0
H147 H 0.2312 0.78237 0.71162 0.0
H148 H 0.25907 0.83925 0.68596 0.0
C149 C 0.31128 0.88757 0.66796 0.0
C150 C 0.32944 0.86785 0.69758 0.0
C151 C 0.31207 0.8356 0.71349 0.0
C152 C 0.33129 0.81479 0.7393 0.0
C153 C 0.31417 0.78146 0.75322 0.0
C154 C 0.27849 0.76996 0.74314 0.0
C155 C 0.25909 0.79118 0.71906 0.0
C156 C 0.27552 0.82364 0.70434 0.0
H157 H 0.34761 0.82048 0.81782 0.0
C158 C 0.37381 0.80768 0.81222 0.0
H159 H 0.41349 0.79615 0.77328 0.0
H160 H 0.37036 0.92892 0.67287 0.0
H161 H 0.43146 0.94974 0.69254 0.0
H162 H 0.46372 0.9152 0.73916 0.0
H163 H 0.43516 0.8595 0.76623 0.0
C164 C 0.38657 0.80732 0.779 0.0
C165 C 0.3671 0.82734 0.75039 0.0
C166 C 0.3841 0.86009 0.73508 0.0
C167 C 0.36527 0.88034 0.7086 0.0
C168 C 0.38315 0.91266 0.6934 0.0
C169 C 0.41828 0.92494 0.70442 0.0
C170 C 0.43646 0.90547 0.73062 0.0
C171 C 0.41972 0.87346 0.74589 0.0
H172 H 0.82597 0.64497 0.34061 0.0
C173 C 0.85474 0.65234 0.33434 0.0
H174 H 0.89707 0.65189 0.29583 0.0
H175 H 0.83396 0.51929 0.2057 0.0
H176 H 0.88481 0.49009 0.23543 0.0
H177 H 0.91795 0.52207 0.28396 0.0
H178 H 0.9006 0.58369 0.30296 0.0
C179 C 0.86805 0.64575 0.30198 0.0
C180 C 0.84556 0.6256 0.27496 0.0
C181 C 0.85565 0.58929 0.26471 0.0
C182 C 0.8361 0.57054 0.2372 0.0
C183 C 0.84741 0.53467 0.22683 0.0
C184 C 0.87665 0.51755 0.24364 0.0
C185 C 0.89534 0.53559 0.27094 0.0
C186 C 0.88513 0.57102 0.28147 0.0
H187 H 0.80397 0.61087 0.1529 0.0
C188 C 0.79043 0.58347 0.15722 0.0
H189 H 0.77473 0.54149 0.19454 0.0
H190 H 0.82009 0.69578 0.28716 0.0
H191 H 0.76684 0.7234 0.25987 0.0
H192 H 0.72995 0.68878 0.2153 0.0
H193 H 0.74659 0.62659 0.19727 0.0
C194 C 0.78771 0.56909 0.19003 0.0
C195 C 0.80627 0.58803 0.22026 0.0
C196 C 0.79508 0.62362 0.23162 0.0
C197 C 0.81529 0.64284 0.25848 0.0
C198 C 0.80493 0.67931 0.26783 0.0
C199 C 0.77451 0.6956 0.25223 0.0
C200 C 0.75382 0.67616 0.22705 0.0
C201 C 0.76383 0.64059 0.21677 0.0
H202 H 0.54686 0.14465 0.83246 0.0
C203 C 0.56646 0.14225 0.854 0.0
H204 H 0.62058 0.1281 0.86885 0.0
H205 H 0.59303 0.04498 0.71354 0.0
H206 H 0.54755 0.0051 0.74437 0.0
H207 H 0.53239 0.01622 0.80678 0.0
H208 H 0.56213 0.06781 0.8384 0.0
C209 C 0.60036 0.1295 0.84775 0.0
C210 C 0.61237 0.12002 0.81152 0.0
C211 C 0.596 0.08869 0.79392 0.0
C212 C 0.60608 0.08122 0.7585 0.0
C213 C 0.5876 0.05112 0.74087 0.0
C214 C 0.56123 0.0281 0.75821 0.0
C215 C 0.55258 0.03444 0.79329 0.0
C216 C 0.56968 0.06431 0.81107 0.0
H217 H 0.66964 0.046 0.71489 0.0
C218 C 0.66249 0.06651 0.69492 0.0
H219 H 0.63741 0.11796 0.68448 0.0
H220 H 0.64986 0.1816 0.83813 0.0
H221 H 0.69731 0.21995 0.80819 0.0
H222 H 0.71656 0.20554 0.74753 0.0
H223 H 0.68833 0.1528 0.71636 0.0
C224 C 0.64422 0.097 0.70416 0.0
C225 C 0.6338 0.10409 0.74136 0.0
C226 C 0.65086 0.13477 0.75931 0.0
C227 C 0.64011 0.14278 0.79443 0.0
C228 C 0.65723 0.17397 0.81156 0.0
C229 C 0.68448 0.19627 0.79467 0.0
C230 C 0.69529 0.18819 0.7605 0.0
C231 C 0.67879 0.15785 0.7429 0.0
H232 H 0.21689 0.05418 0.55227 0.0
C233 C 0.22446 0.04626 0.52568 0.0
H234 H 0.22777 0.06259 0.47211 0.0
H235 H 0.09775 0.1757 0.51692 0.0
H236 H 0.06096 0.12059 0.53516 0.0
H237 H 0.08858 0.0585 0.53795 0.0
H238 H 0.15296 0.05121 0.52298 0.0
C239 C 0.21916 0.06988 0.49857 0.0
C240 C 0.20344 0.10734 0.5029 0.0
C241 C 0.16554 0.11077 0.51191 0.0
C242 C 0.1493 0.14633 0.50937 0.0
C243 C 0.11135 0.14924 0.51807 0.0
C244 C 0.08991 0.11785 0.5286 0.0
C245 C 0.10548 0.08292 0.53024 0.0
C246 C 0.14272 0.0792 0.52179 0.0
H247 H 0.15612 0.19528 0.43084 0.0
C248 C 0.14365 0.21429 0.44928 0.0
H249 H 0.13689 0.22803 0.50294 0.0
H250 H 0.27796 0.11135 0.48919 0.0
H251 H 0.31451 0.16703 0.4716 0.0
H252 H 0.2855 0.22827 0.46558 0.0
H253 H 0.21966 0.23416 0.47731 0.0
C254 C 0.15099 0.21109 0.48384 0.0
C255 C 0.17052 0.17775 0.49643 0.0
C256 C 0.20887 0.17491 0.49008 0.0
C257 C 0.22543 0.13965 0.49343 0.0
C258 C 0.26385 0.13745 0.4866 0.0
C259 C 0.28516 0.1692 0.47664 0.0
C260 C 0.26883 0.20368 0.47325 0.0
C261 C 0.23109 0.20667 0.47986 0.0
H262 H 0.15722 0.85361 0.51908 0.0
C263 C 0.16713 0.86426 0.49365 0.0
H264 H 0.1554 0.8687 0.43913 0.0
H265 H 0.04344 0.72596 0.45364 0.0
H266 H 0.09503 0.69781 0.4241 0.0
H267 H 0.15396 0.73374 0.41436 0.0
H268 H 0.16163 0.79808 0.43409 0.0
C269 C 0.14611 0.85884 0.46498 0.0
C270 C 0.10975 0.83849 0.4682 0.0
C271 C 0.10573 0.80117 0.45613 0.0
C272 C 0.0718 0.78057 0.46164 0.0
C273 C 0.06857 0.74304 0.44985 0.0
C274 C 0.09799 0.7265 0.43295 0.0
C275 C 0.13117 0.74673 0.42748 0.0
C276 C 0.1352 0.78362 0.43895 0.0
H277 H -0.01158 0.79295 0.43204 0.0
C278 C -0.01803 0.7765 0.4557 0.0
H279 H 0.00079 0.75995 0.50614 0.0
H280 H 0.10738 0.91083 0.49162 0.0
H281 H 0.05569 0.93893 0.52103 0.0
H282 H -0.00281 0.90255 0.53171 0.0
H283 H -0.00998 0.83782 0.51284 0.0
C284 C 0.00599 0.77679 0.48252 0.0
C285 C 0.04196 0.79761 0.47877 0.0
C286 C 0.04581 0.83502 0.49055 0.0
C287 C 0.0797 0.85569 0.48494 0.0
C288 C 0.08254 0.89348 0.49599 0.0
C289 C 0.053 0.91004 0.51271 0.0
C290 C 0.02004 0.88958 0.51866 0.0
C291 C 0.01629 0.8525 0.5077 0.0
H292 H 0.72255 0.91822 0.50951 0.0
C293 C 0.72151 0.92908 0.53619 0.0
H294 H 0.73095 0.91718 0.59022 0.0
H295 H 0.71972 0.75847 0.49611 0.0
H296 H 0.6532 0.76722 0.49772 0.0
H297 H 0.62787 0.82228 0.52686 0.0
H298 H 0.66893 0.86904 0.55443 0.0
C299 C 0.73107 0.90708 0.56329 0.0
C300 C 0.74453 0.86922 0.55583 0.0
C301 C 0.72014 0.84163 0.54103 0.0
C302 C 0.73466 0.8098 0.5246 0.0
C303 C 0.70993 0.78323 0.50888 0.0
C304 C 0.67179 0.78787 0.50973 0.0
C305 C 0.65752 0.81889 0.52612 0.0
C306 C 0.68131 0.84558 0.54164 0.0
H307 H 0.80011 0.73793 0.53866 0.0
C308 C 0.80316 0.74597 0.51106 0.0
H309 H 0.79262 0.78672 0.47198 0.0
H310 H 0.79753 0.91326 0.58825 0.0
H311 H 0.86373 0.90327 0.5891 0.0
H312 H 0.88935 0.84848 0.55984 0.0
H313 H 0.84909 0.80334 0.5298 0.0
C314 C 0.78909 0.77798 0.49934 0.0
C315 C 0.77339 0.80553 0.52354 0.0
C316 C 0.79749 0.83115 0.54156 0.0
C317 C 0.78287 0.86292 0.5581 0.0
C318 C 0.80738 0.88874 0.57515 0.0
C319 C 0.84537 0.88331 0.57586 0.0
C320 C 0.85978 0.85245 0.55941 0.0
C321 C 0.8363 0.82667 0.5423 0.0
H322 H 0.79382 0.12474 0.55606 0.0
C323 C 0.77994 0.117 0.53163 0.0
H324 H 0.78366 0.11633 0.47601 0.0
H325 H 0.9062 0.25353 0.50141 0.0
H326 H 0.85352 0.29035 0.51661 0.0
H327 H 0.7912 0.26043 0.52372 0.0
H328 H 0.78122 0.19346 0.51568 0.0
C329 C 0.79625 0.12549 0.50061 0.0
C330 C 0.83391 0.14335 0.49886 0.0
C331 C 0.83921 0.18242 0.50405 0.0
C332 C 0.87508 0.19966 0.49982 0.0
C333 C 0.87958 0.2389 0.50444 0.0
C334 C 0.84956 0.26041 0.51313 0.0
C335 C 0.81448 0.24356 0.51715 0.0
C336 C 0.80916 0.20506 0.51256 0.0
H337 H 0.93766 0.18361 0.42737 0.0
C338 C 0.95354 0.1981 0.44778 0.0
H339 H 0.95627 0.21214 0.50175 0.0
H340 H 0.8333 0.06736 0.48935 0.0
H341 H 0.88639 0.03015 0.47622 0.0
H342 H 0.94894 0.05989 0.4703 0.0
H343 H 0.95869 0.12708 0.47724 0.0
C344 C 0.94155 0.19659 0.48129 0.0
C345 C 0.90535 0.17774 0.49013 0.0
C346 C 0.90035 0.13838 0.48671 0.0
C347 C 0.86446 0.12121 0.4907 0.0
C348 C 0.86002 0.08189 0.4866 0.0
C349 C 0.89027 0.06017 0.47915 0.0
C350 C 0.92547 0.07692 0.47578 0.0
C351 C 0.93064 0.11554 0.47957 0.0
H352 H 0.23013 0.53507 0.95223 0.0
C353 C 0.23034 0.52845 0.98026 0.0
H354 H 0.25193 0.5432 0.03023 0.0
H355 H 0.38175 0.61766 0.92561 0.0
H356 H 0.39651 0.55336 0.91327 0.0
H357 H 0.35687 0.50063 0.93591 0.0
H358 H 0.30216 0.51189 0.97073 0.0
C359 C 0.25193 0.54898 0.00205 0.0
C360 C 0.27607 0.58047 0.98857 0.0
C361 C 0.30811 0.57321 0.96842 0.0
C362 C 0.33132 0.60353 0.95592 0.0
C363 C 0.36319 0.59564 0.93585 0.0
C364 C 0.37202 0.55886 0.9286 0.0
C365 C 0.34968 0.52919 0.9413 0.0
C366 C 0.31817 0.53609 0.96109 0.0
H367 H 0.36837 0.68083 0.0053 0.0
C368 C 0.37078 0.68913 0.9777 0.0
H369 H 0.35172 0.67892 0.92582 0.0
H370 H 0.21665 0.60371 0.02639 0.0
H371 H 0.20208 0.66807 0.03891 0.0
H372 H 0.24221 0.72072 0.01686 0.0
H373 H 0.2972 0.70932 0.98227 0.0
C374 C 0.34895 0.67204 0.95369 0.0
C375 C 0.32291 0.64083 0.96435 0.0
C376 C 0.29067 0.64809 0.98415 0.0
C377 C 0.26734 0.6178 -0.0035 0.0
C378 C 0.23537 0.62572 0.01639 0.0
C379 C 0.22665 0.66252 0.02371 0.0
C380 C 0.24926 0.69216 0.01132 0.0
C381 C 0.28086 0.68522 0.99167 0.0
H382 H 0.7102 0.67907 0.99002 0.0
C383 C 0.72679 0.65896 0.97629 0.0
H384 H 0.73729 0.6333 0.9276 0.0
H385 H 0.56263 0.6446 0.91552 0.0
H386 H 0.57067 0.57765 0.91485 0.0
H387 H 0.63306 0.55198 0.91758 0.0
H388 H 0.68775 0.59333 0.92125 0.0
C389 C 0.72268 0.65487 0.94132 0.0
C390 C 0.68911 0.67 0.92482 0.0
C391 C 0.65772 0.64549 0.92004 0.0
C392 C 0.62183 0.66032 0.91779 0.0
C393 C 0.59063 0.63511 0.9164 0.0
C394 C 0.59483 0.59648 0.91614 0.0
C395 C 0.62995 0.58202 0.91772 0.0
C396 C 0.66111 0.60609 0.91987 0.0
H397 H 0.55512 0.70376 0.87959 0.0
C398 C 0.55292 0.71588 0.90565 0.0
H399 H 0.5801 0.72905 0.95336 0.0
H400 H 0.74473 0.72353 0.92466 0.0
H401 H 0.73762 0.79116 0.92102 0.0
H402 H 0.67552 0.8173 0.91559 0.0
H403 H 0.62022 0.77614 0.91388 0.0
C404 C 0.58173 0.71539 0.92794 0.0
C405 C 0.61793 0.69966 0.91907 0.0
C406 C 0.64983 0.72404 0.91874 0.0
C407 C 0.68553 0.70913 0.92172 0.0
C408 C 0.717 0.73387 0.92266 0.0
C409 C 0.71326 0.77254 0.92044 0.0
C410 C 0.67829 0.78726 0.91739 0.0
C411 C 0.64682 0.76341 0.91659 0.0
H412 H 0.6553 0.4683 0.0405 0.0
C413 C 0.6728 0.47638 0.0181 0.0
H414 H 0.69524 0.45926 0.96963 0.0
H415 H 0.68616 0.29087 0.02422 0.0
H416 H 0.75262 0.3039 0.02197 0.0
H417 H 0.77791 0.36739 0.00745 0.0
H418 H 0.73701 0.41808 -0.00509 0.0
C419 C 0.67622 0.45262 0.99124 0.0
C420 C 0.6609 0.41372 -0.00508 0.0
C421 C 0.68539 0.38434 0.00155 0.0
C422 C 0.6709 0.34781 0.00997 0.0
C423 C 0.69579 0.31907 0.01735 0.0
C424 C 0.73398 0.3262 0.01627 0.0
C425 C 0.74821 0.36194 0.0081 0.0
C426 C 0.72437 0.3908 0.00091 0.0
H427 H 0.62578 0.28296 0.96925 0.0
C428 C 0.61396 0.27692 -0.00481 0.0
H429 H 0.60257 0.29872 0.04547 0.0
H430 H 0.60692 0.4629 0.97924 0.0
H431 H 0.54042 0.44968 0.98075 0.0
H432 H 0.51512 0.38651 -0.0035 0.0
H433 H 0.55609 0.33625 0.0108 0.0
C434 C 0.61659 0.30299 0.02028 0.0
C435 C 0.63207 0.34091 0.01158 0.0
C436 C 0.60761 0.37001 0.0039 0.0
C437 C 0.62209 0.40645 -0.00478 0.0
C438 C 0.59722 0.43489 0.98676 0.0
C439 C 0.55905 0.42762 0.98732 0.0
C440 C 0.54481 0.39205 -0.00385 0.0
C441 C 0.56865 0.36346 0.00433 0.0
H442 H 0.4143 0.24714 0.01362 0.0
C443 C 0.4287 0.24283 0.98884 0.0
H444 H 0.42859 0.25301 0.93369 0.0
H445 H 0.25784 0.27418 -0.00115 0.0
H446 H 0.25448 0.20626 0.00088 0.0
H447 H 0.30796 0.16978 0.98296 0.0
H448 H 0.36536 0.20124 0.96337 0.0
C449 C 0.41435 0.25587 0.95873 0.0
C450 C 0.37976 0.27688 0.95998 0.0
C451 C 0.34592 0.2581 0.96961 0.0
C452 C 0.31477 0.27911 0.97876 0.0
C453 C 0.28206 0.25969 0.99057 0.0
C454 C 0.2798 0.22065 0.99201 0.0
C455 C 0.30993 0.2001 0.98201 0.0
C456 C 0.34272 0.21847 0.971 0.0
H457 H 0.24878 0.32969 0.95156 0.0
C458 C 0.2549 0.34489 0.97568 0.0
H459 H 0.29447 0.35782 0.01502 0.0
H460 H 0.43913 0.32079 0.93753 0.0
H461 H 0.44161 0.38869 0.93185 0.0
H462 H 0.38696 0.42529 0.94598 0.0
H463 H 0.32965 0.39423 0.96615 0.0
C464 C 0.28765 0.34141 0.99177 0.0
C465 C 0.3174 0.3188 0.97701 0.0
C466 C 0.35027 0.33736 0.96432 0.0
C467 C 0.38156 0.31632 0.95578 0.0
C468 C 0.41448 0.33553 0.94424 0.0
C469 C 0.41625 0.37445 0.94081 0.0
C470 C 0.3855 0.39506 0.9488 0.0
C471 C 0.35283 0.3769 0.96045 0.0
H472 H 0.9268 0.56864 0.48405 0.0
C473 C 0.94911 0.5847 0.47092 0.0
H474 H 0.00144 0.58281 0.44626 0.0
H475 H -0.01555 0.41212 0.51781 0.0
H476 H -0.0023 0.44258 0.57366 0.0
H477 H 0.00281 0.51157 0.57739 0.0
H478 H -0.00543 0.55057 0.52527 0.0
C479 C -0.02043 0.56741 0.46061 0.0
C480 C -0.02108 0.52602 0.45874 0.0
C481 C -0.01576 0.50383 0.4893 0.0
C482 C -0.01811 0.4641 0.48702 0.0
C483 C -0.01339 0.44243 0.518 0.0
C484 C -0.00592 0.45956 0.55021 0.0
C485 C -0.0031 0.49842 0.55232 0.0
C486 C -0.00795 0.52046 0.52229 0.0
H487 H 0.03053 0.40077 0.45745 0.0
C488 C 0.00443 0.3867 0.45025 0.0
H489 H 0.94701 0.39223 0.44255 0.0
H490 H 0.96696 0.56087 0.39511 0.0
H491 H 0.95424 0.53064 0.33944 0.0
H492 H 0.95073 0.46165 0.33524 0.0
H493 H 0.96 0.42264 0.38684 0.0
C494 C 0.97307 0.40564 0.45076 0.0
C495 C 0.9745 0.44694 0.45411 0.0
C496 C 0.96912 0.46921 0.42355 0.0
C497 C 0.97144 0.50884 0.42585 0.0
C498 C 0.96578 0.53055 0.39494 0.0
C499 C 0.95838 0.51355 0.36271 0.0
C500 C 0.95641 0.47475 0.36038 0.0
C501 C 0.96174 0.4527 0.39029 0.0
H502 H 0.55768 0.04744 0.53145 0.0
C503 C 0.57334 0.02355 0.53985 0.0
H504 H 0.57454 0.96474 0.54553 0.0
H505 H 0.40266 0.94384 0.56968 0.0
H506 H 0.42728 0.92278 0.6254 0.0
H507 H 0.49423 0.92901 0.63788 0.0
H508 H 0.53695 0.95573 0.59432 0.0
C509 C 0.55869 -0.01144 0.53726 0.0
C510 C 0.51921 0.98165 0.52814 0.0
C511 C 0.49484 0.96567 0.55401 0.0
C512 C 0.45629 0.96258 0.54712 0.0
C513 C 0.43228 0.94702 0.57352 0.0
C514 C 0.44602 0.93485 0.60573 0.0
C515 C 0.48371 0.93826 0.61268 0.0
C516 C 0.50795 0.9536 0.58731 0.0
H517 H 0.39465 0.92443 0.48653 0.0
C518 C 0.38145 0.94812 0.49837 0.0
H519 H 0.38888 0.00095 0.52249 0.0
H520 H 0.5594 0.00662 0.47058 0.0
H521 H 0.53463 0.02609 0.41408 0.0
H522 H 0.46724 0.02287 0.40308 0.0
H523 H 0.42425 -0.00029 0.44845 0.0
C524 C 0.40195 0.97753 0.51004 0.0
C525 C 0.44238 0.97553 0.51449 0.0
C526 C 0.46685 -0.01056 0.48792 0.0
C527 C 0.50552 -0.00789 0.49458 0.0
C528 C 0.52964 0.00514 0.46727 0.0
C529 C 0.5158 0.01614 0.43466 0.0
C530 C 0.47785 0.01427 0.42844 0.0
C531 C 0.4535 0.00104 0.45467 0.0
H532 H 0.47763 0.06035 0.00407 0.0
C533 C 0.50634 0.07074 0.00494 0.0
H534 H 0.56232 0.05584 0.00121 0.0
H535 H 0.48801 0.88712 0.02957 0.0
H536 H 0.50883 0.89915 0.08935 0.0
H537 H 0.53618 0.96098 0.10562 0.0
H538 H 0.54333 0.01112 0.06189 0.0
C539 C 0.53346 0.04626 0.0032 0.0
C540 C 0.52323 0.00741 -0.00722 0.0
C541 C 0.51912 0.9787 0.0185 0.0
C542 C 0.50293 0.9433 0.00914 0.0
C543 C 0.49969 0.91475 0.03528 0.0
C544 C 0.51158 0.92126 0.06969 0.0
C545 C 0.52698 0.95609 0.07886 0.0
C546 C 0.53081 -0.01539 0.05363 0.0
H547 H 0.51377 0.89038 0.92559 0.0
C548 C 0.4889 0.87971 0.93912 0.0
H549 H 0.44923 0.88947 0.97863 0.0
H550 H 0.53322 0.05481 0.93596 0.0
H551 H 0.50933 0.04486 0.87693 0.0
H552 H 0.47426 -0.01352 0.86219 0.0
H553 H 0.46351 0.93764 0.90609 0.0
C554 C 0.47368 0.90008 0.96444 0.0
C555 C 0.49037 0.93717 0.97417 0.0
C556 C 0.49438 0.96624 0.94842 0.0
C557 C 0.51243 0.00074 0.95742 0.0
C558 C 0.5183 0.02857 0.93083 0.0
C559 C 0.50494 0.02316 0.89679 0.0
C560 C 0.48532 -0.00973 0.88848 0.0
C561 C 0.4798 0.96217 0.9139 0.0
H562 H 0.0429 0.40373 0.98531 0.0
C563 C 0.0499 0.431 -0.00348 0.0
H564 H 0.0295 0.48115 0.0168 0.0
H565 H 0.87151 0.45798 0.94682 0.0
H566 H 0.90228 0.47921 0.89255 0.0
H567 H 0.97058 0.4838 0.88873 0.0
H568 H 0.00853 0.46678 0.93898 0.0
C569 C 0.02294 0.45413 0.00493 0.0
C570 C -0.01672 0.44242 0.00343 0.0
C571 C 0.96183 0.45217 0.97387 0.0
C572 C 0.92259 0.45025 0.9763 0.0
C573 C 0.9015 0.45995 0.94644 0.0
C574 C 0.9188 0.4719 0.9152 0.0
C575 C 0.95727 0.47445 0.91304 0.0
C576 C -0.02129 0.46475 0.942 0.0
H577 H 0.87754 0.50684 0.00604 0.0
C578 C 0.85729 0.48549 0.01506 0.0
H579 H 0.84646 0.42777 0.02486 0.0
H580 H 0.01692 0.4144 0.06211 0.0
H581 H -0.01378 0.38958 0.11484 0.0
H582 H 0.91799 0.38695 0.11942 0.0
H583 H 0.88012 0.40901 0.07135 0.0
C584 C 0.86627 0.44932 0.01554 0.0
C585 C 0.90522 0.43954 0.0086 0.0
C586 C 0.92663 0.42517 0.03653 0.0
C587 C 0.96588 0.42677 0.03396 0.0
C588 C -0.01304 0.41386 0.06276 0.0
C589 C 0.96969 0.39951 0.09315 0.0
C590 C 0.93128 0.39803 0.09572 0.0
C591 C 0.90986 0.41084 0.06791 0.0
loop_
_geom_bond_atom_site_label_1
_geom_bond_atom_site_label_2
_geom_bond_distance
_geom_bond_site_symmetry_2
_ccdc_geom_bond_type
C0 O1 1.306 . S
C0 O3 1.160 . S
O1 C0 1.306 . S
O1 Cd2 2.228 . S
Cd2 O1 2.228 . S
Cd2 O6 2.273 . S
Cd2 O10 2.277 . S
O3 C0 1.160 . S
O3 Cd4 2.203 . S
Cd4 O3 2.203 . S
Cd4 O6 2.411 . S
Cd4 O7 2.333 . S
Cd4 O8 2.352 . S
Cd4 O12 2.277 . S
Cd4 O13 2.356 . S
C5 O10 1.209 . S
C5 O12 1.226 . S
O6 Cd2 2.273 . S
O6 Cd4 2.411 . S
O6 C9 1.320 . S
O7 Cd4 2.333 . S
O7 C9 1.214 . S
O8 Cd4 2.352 . S
O8 C11 1.258 . S
C9 O6 1.320 . S
C9 O7 1.214 . S
O10 Cd2 2.277 . S
O10 C5 1.209 . S
C11 O8 1.258 . S
C11 O13 1.282 . S
O12 Cd4 2.277 . S
O12 C5 1.226 . S
O13 Cd4 2.356 . S
O13 C11 1.282 . S
C14 O15 1.306 . S
C14 O17 1.160 . S
O15 C14 1.306 . S
O15 Cd16 2.228 . S
Cd16 O15 2.228 . S
Cd16 O20 2.273 . S
Cd16 O24 2.277 . S
O17 C14 1.160 . S
O17 Cd18 2.203 . S
Cd18 O17 2.203 . S
Cd18 O20 2.411 . S
Cd18 O21 2.333 . S
Cd18 O22 2.352 . S
Cd18 O26 2.277 . S
Cd18 O27 2.356 . S
C19 O24 1.209 . S
C19 O26 1.226 . S
O20 Cd16 2.273 . S
O20 Cd18 2.411 . S
O20 C23 1.320 . S
O21 Cd18 2.333 . S
O21 C23 1.214 . S
O22 Cd18 2.352 . S
O22 C25 1.258 . S
C23 O20 1.320 . S
C23 O21 1.214 . S
O24 Cd16 2.277 . S
O24 C19 1.209 . S
C25 O22 1.258 . S
C25 O27 1.282 . S
O26 Cd18 2.277 . S
O26 C19 1.226 . S
O27 Cd18 2.356 . S
O27 C25 1.282 . S
C28 O29 1.306 . S
C28 O31 1.160 . S
O29 C28 1.306 . S
O29 Cd30 2.228 . S
Cd30 O29 2.228 . S
Cd30 O34 2.273 . S
Cd30 O38 2.277 . S
O31 C28 1.160 . S
O31 Cd32 2.203 . S
Cd32 O31 2.203 . S
Cd32 O34 2.411 . S
Cd32 O35 2.333 . S
Cd32 O36 2.352 . S
Cd32 O40 2.277 . S
Cd32 O41 2.356 . S
C33 O38 1.209 . S
C33 O40 1.226 . S
O34 Cd30 2.273 . S
O34 Cd32 2.411 . S
O34 C37 1.320 . S
O35 Cd32 2.333 . S
O35 C37 1.214 . S
O36 Cd32 2.352 . S
O36 C39 1.258 . S
C37 O34 1.320 . S
C37 O35 1.214 . S
O38 Cd30 2.277 . S
O38 C33 1.209 . S
C39 O36 1.258 . S
C39 O41 1.282 . S
O40 Cd32 2.277 . S
O40 C33 1.226 . S
O41 Cd32 2.356 . S
O41 C39 1.282 . S
C42 O43 1.306 . S
C42 O45 1.160 . S
O43 C42 1.306 . S
O43 Cd44 2.228 . S
Cd44 O43 2.228 . S
Cd44 O48 2.273 . S
Cd44 O52 2.277 . S
O45 C42 1.160 . S
O45 Cd46 2.203 . S
Cd46 O45 2.203 . S
Cd46 O48 2.411 . S
Cd46 O49 2.333 . S
Cd46 O50 2.352 . S
Cd46 O54 2.277 . S
Cd46 O55 2.356 . S
C47 O52 1.209 . S
C47 O54 1.226 . S
O48 Cd44 2.273 . S
O48 Cd46 2.411 . S
O48 C51 1.320 . S
O49 Cd46 2.333 . S
O49 C51 1.214 . S
O50 Cd46 2.352 . S
O50 C53 1.258 . S
C51 O48 1.320 . S
C51 O49 1.214 . S
O52 Cd44 2.277 . S
O52 C47 1.209 . S
C53 O50 1.258 . S
C53 O55 1.282 . S
O54 Cd46 2.277 . S
O54 C47 1.226 . S
O55 Cd46 2.356 . S
O55 C53 1.282 . S
C56 O57 1.306 1_556 S
C56 O59 1.160 . S
O57 C56 1.306 1_554 S
O57 Cd58 2.228 . S
Cd58 O57 2.228 . S
Cd58 O62 2.273 1_554 S
Cd58 O66 2.288 . S
O59 C56 1.160 . S
O59 Cd60 2.203 . S
Cd60 O59 2.203 . S
Cd60 O62 2.411 . S
Cd60 O63 2.333 . S
Cd60 O64 2.352 . S
Cd60 O68 2.277 . S
Cd60 O69 2.356 . S
C61 O66 1.196 1_556 S
C61 O68 1.226 . S
O62 Cd58 2.273 1_556 S
O62 Cd60 2.411 . S
O62 C65 1.320 . S
O63 Cd60 2.333 . S
O63 C65 1.214 . S
O64 Cd60 2.352 . S
O64 C67 1.258 . S
C65 O62 1.320 . S
C65 O63 1.214 . S
O66 Cd58 2.288 . S
O66 C61 1.196 1_554 S
C67 O64 1.258 . S
C67 O69 1.282 . S
O68 Cd60 2.277 . S
O68 C61 1.226 . S
O69 Cd60 2.356 . S
O69 C67 1.282 . S
C70 O71 1.306 . S
C70 O73 1.160 . S
O71 C70 1.306 . S
O71 Cd72 2.228 . S
Cd72 O71 2.228 . S
Cd72 O76 2.273 . S
Cd72 O80 2.277 . S
O73 C70 1.160 . S
O73 Cd74 2.203 . S
Cd74 O73 2.203 . S
Cd74 O76 2.411 . S
Cd74 O77 2.333 . S
Cd74 O78 2.352 . S
Cd74 O82 2.277 . S
Cd74 O83 2.356 1_554 S
C75 O80 1.209 . S
C75 O82 1.226 . S
O76 Cd72 2.273 . S
O76 Cd74 2.411 . S
O76 C79 1.320 . S
O77 Cd74 2.333 . S
O77 C79 1.214 . S
O78 Cd74 2.352 . S
O78 C81 1.258 . S
C79 O76 1.320 . S
C79 O77 1.214 . S
O80 Cd72 2.277 . S
O80 C75 1.209 . S
C81 O78 1.258 . S
C81 O83 1.282 1_554 S
O82 Cd74 2.277 . S
O82 C75 1.226 . S
O83 Cd74 2.356 1_556 S
O83 C81 1.282 1_556 S
C84 O85 1.306 1_556 S
C84 O87 1.160 . S
O85 C84 1.306 1_554 S
O85 Cd86 2.228 . S
Cd86 O85 2.228 . S
Cd86 O90 2.273 1_554 S
Cd86 O94 2.288 . S
O87 C84 1.160 . S
O87 Cd88 2.203 . S
Cd88 O87 2.203 . S
Cd88 O90 2.411 . S
Cd88 O91 2.333 . S
Cd88 O92 2.352 . S
Cd88 O96 2.277 . S
Cd88 O97 2.356 . S
C89 O94 1.196 1_556 S
C89 O96 1.226 . S
O90 Cd86 2.273 1_556 S
O90 Cd88 2.411 . S
O90 C93 1.320 . S
O91 Cd88 2.333 . S
O91 C93 1.214 . S
O92 Cd88 2.352 . S
O92 C95 1.258 . S
C93 O90 1.320 . S
C93 O91 1.214 . S
O94 Cd86 2.288 . S
O94 C89 1.196 1_554 S
C95 O92 1.258 . S
C95 O97 1.282 . S
O96 Cd88 2.277 . S
O96 C89 1.226 . S
O97 Cd88 2.356 . S
O97 C95 1.282 . S
C98 O99 1.306 . S
C98 O101 1.160 . S
O99 C98 1.306 . S
O99 Cd100 2.228 . S
Cd100 O99 2.228 . S
Cd100 O104 2.273 . S
Cd100 O108 2.277 . S
O101 C98 1.160 . S
O101 Cd102 2.203 . S
Cd102 O101 2.203 . S
Cd102 O104 2.411 . S
Cd102 O105 2.333 . S
Cd102 O106 2.352 . S
Cd102 O110 2.277 . S
Cd102 O111 2.356 1_554 S
C103 O108 1.209 . S
C103 O110 1.226 . S
O104 Cd100 2.273 . S
O104 Cd102 2.411 . S
O104 C107 1.320 . S
O105 Cd102 2.333 . S
O105 C107 1.214 . S
O106 Cd102 2.352 . S
O106 C109 1.258 . S
C107 O104 1.320 . S
C107 O105 1.214 . S
O108 Cd100 2.277 . S
O108 C103 1.209 . S
C109 O106 1.258 . S
C109 O111 1.282 1_554 S
O110 Cd102 2.277 . S
O110 C103 1.226 . S
O111 Cd102 2.356 1_556 S
O111 C109 1.282 1_556 S
H112 C113 0.951 . S
C113 H112 0.951 . S
C113 C119 1.265 . S
H114 C119 0.950 . S
H115 C123 0.949 . S
H116 C124 0.950 . S
H117 C125 0.951 . S
H118 C126 0.951 . S
C119 C113 1.265 . S
C119 H114 0.950 . S
C119 C120 1.478 . S
C120 C119 1.478 . S
C120 C121 1.397 . S
C120 C137 1.394 . S
C121 C120 1.397 . S
C121 C122 1.438 . S
C121 C126 1.429 . S
C122 C121 1.438 . S
C122 C123 1.428 . S
C122 C135 1.394 . S
C123 H115 0.949 . S
C123 C122 1.428 . S
C123 C124 1.345 . S
C124 H116 0.950 . S
C124 C123 1.345 . S
C124 C125 1.424 . S
C125 H117 0.951 . S
C125 C124 1.424 . S
C125 C126 1.347 . S
C126 H118 0.951 . S
C126 C121 1.429 . S
C126 C125 1.347 . S
H127 C128 0.951 . S
C128 H127 0.951 . S
C128 C134 1.265 . S
H129 C134 0.950 . S
H130 C138 0.949 . S
H131 C139 0.950 . S
H132 C140 0.951 . S
H133 C141 0.951 . S
C134 C128 1.265 . S
C134 H129 0.950 . S
C134 C135 1.478 . S
C135 C122 1.394 . S
C135 C134 1.478 . S
C135 C136 1.397 . S
C136 C135 1.397 . S
C136 C137 1.438 . S
C136 C141 1.429 . S
C137 C120 1.394 . S
C137 C136 1.438 . S
C137 C138 1.428 . S
C138 H130 0.949 . S
C138 C137 1.428 . S
C138 C139 1.345 . S
C139 H131 0.950 . S
C139 C138 1.345 . S
C139 C140 1.424 . S
C140 H132 0.951 . S
C140 C139 1.424 . S
C140 C141 1.347 . S
C141 H133 0.951 . S
C141 C136 1.429 . S
C141 C140 1.347 . S
H142 C143 0.951 . S
C143 H142 0.951 . S
C143 C149 1.265 . S
H144 C149 0.950 . S
H145 C153 0.949 . S
H146 C154 0.950 . S
H147 C155 0.951 . S
H148 C156 0.951 . S
C149 C143 1.265 . S
C149 H144 0.950 . S
C149 C150 1.478 . S
C150 C149 1.478 . S
C150 C151 1.397 . S
C150 C167 1.394 . S
C151 C150 1.397 . S
C151 C152 1.438 . S
C151 C156 1.429 . S
C152 C151 1.438 . S
C152 C153 1.428 . S
C152 C165 1.394 . S
C153 H145 0.949 . S
C153 C152 1.428 . S
C153 C154 1.345 . S
C154 H146 0.950 . S
C154 C153 1.345 . S
C154 C155 1.424 . S
C155 H147 0.951 . S
C155 C154 1.424 . S
C155 C156 1.347 . S
C156 H148 0.951 . S
C156 C151 1.429 . S
C156 C155 1.347 . S
H157 C158 0.951 . S
C158 H157 0.951 . S
C158 C164 1.265 . S
H159 C164 0.950 . S
H160 C168 0.949 . S
H161 C169 0.950 . S
H162 C170 0.951 . S
H163 C171 0.951 . S
C164 C158 1.265 . S
C164 H159 0.950 . S
C164 C165 1.478 . S
C165 C152 1.394 . S
C165 C164 1.478 . S
C165 C166 1.397 . S
C166 C165 1.397 . S
C166 C167 1.438 . S
C166 C171 1.429 . S
C167 C150 1.394 . S
C167 C166 1.438 . S
C167 C168 1.428 . S
C168 H160 0.949 . S
C168 C167 1.428 . S
C168 C169 1.345 . S
C169 H161 0.950 . S
C169 C168 1.345 . S
C169 C170 1.424 . S
C170 H162 0.951 . S
C170 C169 1.424 . S
C170 C171 1.347 . S
C171 H163 0.951 . S
C171 C166 1.429 . S
C171 C170 1.347 . S
H172 C173 0.951 . S
C173 H172 0.951 . S
C173 C179 1.265 . S
H174 C179 0.950 . S
H175 C183 0.949 . S
H176 C184 0.950 . S
H177 C185 0.951 . S
H178 C186 0.951 . S
C179 C173 1.265 . S
C179 H174 0.950 . S
C179 C180 1.478 . S
C180 C179 1.478 . S
C180 C181 1.397 . S
C180 C197 1.394 . S
C181 C180 1.397 . S
C181 C182 1.438 . S
C181 C186 1.429 . S
C182 C181 1.438 . S
C182 C183 1.428 . S
C182 C195 1.394 . S
C183 H175 0.949 . S
C183 C182 1.428 . S
C183 C184 1.345 . S
C184 H176 0.950 . S
C184 C183 1.345 . S
C184 C185 1.424 . S
C185 H177 0.951 . S
C185 C184 1.424 . S
C185 C186 1.347 . S
C186 H178 0.951 . S
C186 C181 1.429 . S
C186 C185 1.347 . S
H187 C188 0.951 . S
C188 H187 0.951 . S
C188 C194 1.265 . S
H189 C194 0.950 . S
H190 C198 0.949 . S
H191 C199 0.950 . S
H192 C200 0.951 . S
H193 C201 0.951 . S
C194 C188 1.265 . S
C194 H189 0.950 . S
C194 C195 1.478 . S
C195 C182 1.394 . S
C195 C194 1.478 . S
C195 C196 1.397 . S
C196 C195 1.397 . S
C196 C197 1.438 . S
C196 C201 1.429 . S
C197 C180 1.394 . S
C197 C196 1.438 . S
C197 C198 1.428 . S
C198 H190 0.949 . S
C198 C197 1.428 . S
C198 C199 1.345 . S
C199 H191 0.950 . S
C199 C198 1.345 . S
C199 C200 1.424 . S
C200 H192 0.951 . S
C200 C199 1.424 . S
C200 C201 1.347 . S
C201 H193 0.951 . S
C201 C196 1.429 . S
C201 C200 1.347 . S
H202 C203 0.951 . S
C203 H202 0.951 . S
C203 C209 1.265 . S
H204 C209 0.950 . S
H205 C213 0.949 . S
H206 C214 0.950 . S
H207 C215 0.951 . S
H208 C216 0.951 . S
C209 C203 1.265 . S
C209 H204 0.950 . S
C209 C210 1.478 . S
C210 C209 1.478 . S
C210 C211 1.397 . S
C210 C227 1.394 . S
C211 C210 1.397 . S
C211 C212 1.438 . S
C211 C216 1.429 . S
C212 C211 1.438 . S
C212 C213 1.428 . S
C212 C225 1.394 . S
C213 H205 0.949 . S
C213 C212 1.428 . S
C213 C214 1.345 . S
C214 H206 0.950 . S
C214 C213 1.345 . S
C214 C215 1.424 . S
C215 H207 0.951 . S
C215 C214 1.424 . S
C215 C216 1.347 . S
C216 H208 0.951 . S
C216 C211 1.429 . S
C216 C215 1.347 . S
H217 C218 0.951 . S
C218 H217 0.951 . S
C218 C224 1.265 . S
H219 C224 0.950 . S
H220 C228 0.949 . S
H221 C229 0.950 . S
H222 C230 0.951 . S
H223 C231 0.951 . S
C224 C218 1.265 . S
C224 H219 0.950 . S
C224 C225 1.478 . S
C225 C212 1.394 . S
C225 C224 1.478 . S
C225 C226 1.397 . S
C226 C225 1.397 . S
C226 C227 1.438 . S
C226 C231 1.429 . S
C227 C210 1.394 . S
C227 C226 1.438 . S
C227 C228 1.428 . S
C228 H220 0.949 . S
C228 C227 1.428 . S
C228 C229 1.345 . S
C229 H221 0.950 . S
C229 C228 1.345 . S
C229 C230 1.424 . S
C230 H222 0.951 . S
C230 C229 1.424 . S
C230 C231 1.347 . S
C231 H223 0.951 . S
C231 C226 1.429 . S
C231 C230 1.347 . S
H232 C233 0.951 . S
C233 H232 0.951 . S
C233 C239 1.265 . S
H234 C239 0.950 . S
H235 C243 0.949 . S
H236 C244 0.950 . S
H237 C245 0.951 . S
H238 C246 0.951 . S
C239 C233 1.265 . S
C239 H234 0.950 . S
C239 C240 1.478 . S
C240 C239 1.478 . S
C240 C241 1.397 . S
C240 C257 1.394 . S
C241 C240 1.397 . S
C241 C242 1.438 . S
C241 C246 1.429 . S
C242 C241 1.438 . S
C242 C243 1.428 . S
C242 C255 1.394 . S
C243 H235 0.949 . S
C243 C242 1.428 . S
C243 C244 1.345 . S
C244 H236 0.950 . S
C244 C243 1.345 . S
C244 C245 1.424 . S
C245 H237 0.951 . S
C245 C244 1.424 . S
C245 C246 1.347 . S
C246 H238 0.951 . S
C246 C241 1.429 . S
C246 C245 1.347 . S
H247 C248 0.951 . S
C248 H247 0.951 . S
C248 C254 1.265 . S
H249 C254 0.950 . S
H250 C258 0.949 . S
H251 C259 0.950 . S
H252 C260 0.951 . S
H253 C261 0.951 . S
C254 C248 1.265 . S
C254 H249 0.950 . S
C254 C255 1.478 . S
C255 C242 1.394 . S
C255 C254 1.478 . S
C255 C256 1.397 . S
C256 C255 1.397 . S
C256 C257 1.438 . S
C256 C261 1.429 . S
C257 C240 1.394 . S
C257 C256 1.438 . S
C257 C258 1.428 . S
C258 H250 0.949 . S
C258 C257 1.428 . S
C258 C259 1.345 . S
C259 H251 0.950 . S
C259 C258 1.345 . S
C259 C260 1.424 . S
C260 H252 0.951 . S
C260 C259 1.424 . S
C260 C261 1.347 . S
C261 H253 0.951 . S
C261 C256 1.429 . S
C261 C260 1.347 . S
H262 C263 0.951 . S
C263 H262 0.951 . S
C263 C269 1.265 . S
H264 C269 0.950 . S
H265 C273 0.949 . S
H266 C274 0.950 . S
H267 C275 0.951 . S
H268 C276 0.951 . S
C269 C263 1.265 . S
C269 H264 0.950 . S
C269 C270 1.478 . S
C270 C269 1.478 . S
C270 C271 1.397 . S
C270 C287 1.394 . S
C271 C270 1.397 . S
C271 C272 1.438 . S
C271 C276 1.429 . S
C272 C271 1.438 . S
C272 C273 1.428 . S
C272 C285 1.394 . S
C273 H265 0.949 . S
C273 C272 1.428 . S
C273 C274 1.345 . S
C274 H266 0.950 . S
C274 C273 1.345 . S
C274 C275 1.424 . S
C275 H267 0.951 . S
C275 C274 1.424 . S
C275 C276 1.347 . S
C276 H268 0.951 . S
C276 C271 1.429 . S
C276 C275 1.347 . S
H277 C278 0.951 . S
C278 H277 0.951 . S
C278 C284 1.265 . S
H279 C284 0.950 . S
H280 C288 0.949 . S
H281 C289 0.950 . S
H282 C290 0.951 . S
H283 C291 0.951 . S
C284 C278 1.265 . S
C284 H279 0.950 . S
C284 C285 1.478 . S
C285 C272 1.394 . S
C285 C284 1.478 . S
C285 C286 1.397 . S
C286 C285 1.397 . S
C286 C287 1.438 . S
C286 C291 1.429 . S
C287 C270 1.394 . S
C287 C286 1.438 . S
C287 C288 1.428 . S
C288 H280 0.949 . S
C288 C287 1.428 . S
C288 C289 1.345 . S
C289 H281 0.950 . S
C289 C288 1.345 . S
C289 C290 1.424 . S
C290 H282 0.951 . S
C290 C289 1.424 . S
C290 C291 1.347 . S
C291 H283 0.951 . S
C291 C286 1.429 . S
C291 C290 1.347 . S
H292 C293 0.951 . S
C293 H292 0.951 . S
C293 C299 1.265 . S
H294 C299 0.950 . S
H295 C303 0.949 . S
H296 C304 0.950 . S
H297 C305 0.951 . S
H298 C306 0.951 . S
C299 C293 1.265 . S
C299 H294 0.950 . S
C299 C300 1.478 . S
C300 C299 1.478 . S
C300 C301 1.397 . S
C300 C317 1.394 . S
C301 C300 1.397 . S
C301 C302 1.438 . S
C301 C306 1.429 . S
C302 C301 1.438 . S
C302 C303 1.428 . S
C302 C315 1.394 . S
C303 H295 0.949 . S
C303 C302 1.428 . S
C303 C304 1.345 . S
C304 H296 0.950 . S
C304 C303 1.345 . S
C304 C305 1.424 . S
C305 H297 0.951 . S
C305 C304 1.424 . S
C305 C306 1.347 . S
C306 H298 0.951 . S
C306 C301 1.429 . S
C306 C305 1.347 . S
H307 C308 0.951 . S
C308 H307 0.951 . S
C308 C314 1.265 . S
H309 C314 0.950 . S
H310 C318 0.949 . S
H311 C319 0.950 . S
H312 C320 0.951 . S
H313 C321 0.951 . S
C314 C308 1.265 . S
C314 H309 0.950 . S
C314 C315 1.478 . S
C315 C302 1.394 . S
C315 C314 1.478 . S
C315 C316 1.397 . S
C316 C315 1.397 . S
C316 C317 1.438 . S
C316 C321 1.429 . S
C317 C300 1.394 . S
C317 C316 1.438 . S
C317 C318 1.428 . S
C318 H310 0.949 . S
C318 C317 1.428 . S
C318 C319 1.345 . S
C319 H311 0.950 . S
C319 C318 1.345 . S
C319 C320 1.424 . S
C320 H312 0.951 . S
C320 C319 1.424 . S
C320 C321 1.347 . S
C321 H313 0.951 . S
C321 C316 1.429 . S
C321 C320 1.347 . S
H322 C323 0.951 . S
C323 H322 0.951 . S
C323 C329 1.265 . S
H324 C329 0.950 . S
H325 C333 0.949 . S
H326 C334 0.950 . S
H327 C335 0.951 . S
H328 C336 0.951 . S
C329 C323 1.265 . S
C329 H324 0.950 . S
C329 C330 1.478 . S
C330 C329 1.478 . S
C330 C331 1.397 . S
C330 C347 1.394 . S
C331 C330 1.397 . S
C331 C332 1.438 . S
C331 C336 1.429 . S
C332 C331 1.438 . S
C332 C333 1.428 . S
C332 C345 1.394 . S
C333 H325 0.949 . S
C333 C332 1.428 . S
C333 C334 1.345 . S
C334 H326 0.950 . S
C334 C333 1.345 . S
C334 C335 1.424 . S
C335 H327 0.951 . S
C335 C334 1.424 . S
C335 C336 1.347 . S
C336 H328 0.951 . S
C336 C331 1.429 . S
C336 C335 1.347 . S
H337 C338 0.951 . S
C338 H337 0.951 . S
C338 C344 1.265 . S
H339 C344 0.950 . S
H340 C348 0.949 . S
H341 C349 0.950 . S
H342 C350 0.951 . S
H343 C351 0.951 . S
C344 C338 1.265 . S
C344 H339 0.950 . S
C344 C345 1.478 . S
C345 C332 1.394 . S
C345 C344 1.478 . S
C345 C346 1.397 . S
C346 C345 1.397 . S
C346 C347 1.438 . S
C346 C351 1.429 . S
C347 C330 1.394 . S
C347 C346 1.438 . S
C347 C348 1.428 . S
C348 H340 0.949 . S
C348 C347 1.428 . S
C348 C349 1.345 . S
C349 H341 0.950 . S
C349 C348 1.345 . S
C349 C350 1.424 . S
C350 H342 0.951 . S
C350 C349 1.424 . S
C350 C351 1.347 . S
C351 H343 0.951 . S
C351 C346 1.429 . S
C351 C350 1.347 . S
H352 C353 0.951 . S
C353 H352 0.951 . S
C353 C359 1.265 . S
H354 C359 0.950 . S
H355 C363 0.949 . S
H356 C364 0.950 . S
H357 C365 0.951 . S
H358 C366 0.951 . S
C359 C353 1.265 . S
C359 H354 0.950 . S
C359 C360 1.478 . S
C360 C359 1.478 . S
C360 C361 1.397 1_554 S
C360 C377 1.394 . S
C361 C360 1.397 1_556 S
C361 C362 1.438 . S
C361 C366 1.429 . S
C362 C361 1.438 . S
C362 C363 1.428 . S
C362 C375 1.394 1_556 S
C363 H355 0.949 . S
C363 C362 1.428 . S
C363 C364 1.345 . S
C364 H356 0.950 . S
C364 C363 1.345 . S
C364 C365 1.424 . S
C365 H357 0.951 . S
C365 C364 1.424 . S
C365 C366 1.347 . S
C366 H358 0.951 . S
C366 C361 1.429 . S
C366 C365 1.347 . S
H367 C368 0.951 . S
C368 H367 0.951 . S
C368 C374 1.265 . S
H369 C374 0.951 . S
H370 C378 0.949 . S
H371 C379 0.950 . S
H372 C380 0.951 . S
H373 C381 0.951 . S
C374 C368 1.265 . S
C374 H369 0.951 . S
C374 C375 1.478 1_556 S
C375 C362 1.394 1_554 S
C375 C374 1.478 1_554 S
C375 C376 1.397 . S
C376 C375 1.397 . S
C376 C377 1.438 . S
C376 C381 1.429 . S
C377 C360 1.394 . S
C377 C376 1.438 . S
C377 C378 1.428 . S
C378 H370 0.949 . S
C378 C377 1.428 . S
C378 C379 1.345 . S
C379 H371 0.950 . S
C379 C378 1.345 . S
C379 C380 1.424 . S
C380 H372 0.951 . S
C380 C379 1.424 . S
C380 C381 1.347 . S
C381 H373 0.951 . S
C381 C376 1.429 . S
C381 C380 1.347 . S
H382 C383 0.951 . S
C383 H382 0.951 . S
C383 C389 1.265 1_554 S
H384 C389 0.950 . S
H385 C393 0.949 . S
H386 C394 0.950 . S
H387 C395 0.951 . S
H388 C396 0.951 . S
C389 C383 1.265 1_556 S
C389 H384 0.950 . S
C389 C390 1.478 . S
C390 C389 1.478 . S
C390 C391 1.397 . S
C390 C407 1.394 1_556 S
C391 C390 1.397 . S
C391 C392 1.438 . S
C391 C396 1.429 . S
C392 C391 1.438 . S
C392 C393 1.428 . S
C392 C405 1.394 . S
C393 H385 0.949 . S
C393 C392 1.428 . S
C393 C394 1.345 . S
C394 H386 0.950 . S
C394 C393 1.345 . S
C394 C395 1.424 . S
C395 H387 0.951 . S
C395 C394 1.424 . S
C395 C396 1.347 . S
C396 H388 0.951 . S
C396 C391 1.429 . S
C396 C395 1.347 . S
H397 C398 0.951 . S
C398 H397 0.951 . S
C398 C404 1.265 . S
H399 C404 0.950 1_554 S
H400 C408 0.949 . S
H401 C409 0.950 . S
H402 C410 0.951 . S
H403 C411 0.951 . S
C404 C398 1.265 . S
C404 H399 0.950 1_556 S
C404 C405 1.478 . S
C405 C392 1.394 . S
C405 C404 1.478 . S
C405 C406 1.397 1_556 S
C406 C405 1.397 1_554 S
C406 C407 1.438 . S
C406 C411 1.429 . S
C407 C390 1.394 1_554 S
C407 C406 1.438 . S
C407 C408 1.428 . S
C408 H400 0.949 . S
C408 C407 1.428 . S
C408 C409 1.345 . S
C409 H401 0.950 . S
C409 C408 1.345 . S
C409 C410 1.424 . S
C410 H402 0.951 . S
C410 C409 1.424 . S
C410 C411 1.347 . S
C411 H403 0.951 . S
C411 C406 1.429 . S
C411 C410 1.347 . S
H412 C413 0.951 . S
C413 H412 0.951 . S
C413 C419 1.265 . S
H414 C419 0.950 . S
H415 C423 0.949 . S
H416 C424 0.950 . S
H417 C425 0.951 . S
H418 C426 0.951 . S
C419 C413 1.265 . S
C419 H414 0.950 . S
C419 C420 1.478 . S
C420 C419 1.478 . S
C420 C421 1.397 . S
C420 C437 1.394 1_554 S
C421 C420 1.397 . S
C421 C422 1.438 . S
C421 C426 1.429 . S
C422 C421 1.438 . S
C422 C423 1.428 . S
C422 C435 1.394 . S
C423 H415 0.949 . S
C423 C422 1.428 . S
C423 C424 1.345 . S
C424 H416 0.950 . S
C424 C423 1.345 . S
C424 C425 1.424 . S
C425 H417 0.951 . S
C425 C424 1.424 . S
C425 C426 1.347 . S
C426 H418 0.951 . S
C426 C421 1.429 . S
C426 C425 1.347 . S
H427 C428 0.951 . S
C428 H427 0.951 . S
C428 C434 1.265 . S
H429 C434 0.950 1_554 S
H430 C438 0.949 . S
H431 C439 0.950 . S
H432 C440 0.951 . S
H433 C441 0.951 . S
C434 C428 1.265 . S
C434 H429 0.950 1_556 S
C434 C435 1.478 1_556 S
C435 C422 1.394 . S
C435 C434 1.478 1_554 S
C435 C436 1.397 1_554 S
C436 C435 1.397 1_556 S
C436 C437 1.438 . S
C436 C441 1.429 . S
C437 C420 1.394 1_556 S
C437 C436 1.438 . S
C437 C438 1.428 . S
C438 H430 0.949 . S
C438 C437 1.428 . S
C438 C439 1.345 . S
C439 H431 0.950 . S
C439 C438 1.345 . S
C439 C440 1.424 . S
C440 H432 0.951 . S
C440 C439 1.424 . S
C440 C441 1.347 . S
C441 H433 0.951 . S
C441 C436 1.429 . S
C441 C440 1.347 . S
H442 C443 0.951 . S
C443 H442 0.951 . S
C443 C449 1.265 . S
H444 C449 0.950 . S
H445 C453 0.949 . S
H446 C454 0.950 . S
H447 C455 0.951 . S
H448 C456 0.951 . S
C449 C443 1.265 . S
C449 H444 0.950 . S
C449 C450 1.478 . S
C450 C449 1.478 . S
C450 C451 1.397 1_556 S
C450 C467 1.394 . S
C451 C450 1.397 1_554 S
C451 C452 1.438 . S
C451 C456 1.429 . S
C452 C451 1.438 . S
C452 C453 1.428 . S
C452 C465 1.394 . S
C453 H445 0.949 . S
C453 C452 1.428 . S
C453 C454 1.345 . S
C454 H446 0.950 . S
C454 C453 1.345 . S
C454 C455 1.424 . S
C455 H447 0.951 . S
C455 C454 1.424 . S
C455 C456 1.347 . S
C456 H448 0.951 . S
C456 C451 1.429 . S
C456 C455 1.347 . S
H457 C458 0.952 1_556 S
C458 H457 0.952 1_554 S
C458 C464 1.265 . S
H459 C464 0.950 . S
H460 C468 0.949 . S
H461 C469 0.950 . S
H462 C470 0.951 . S
H463 C471 0.951 . S
C464 C458 1.265 . S
C464 H459 0.950 . S
C464 C465 1.478 . S
C465 C452 1.394 . S
C465 C464 1.478 . S
C465 C466 1.397 1_554 S
C466 C465 1.397 1_556 S
C466 C467 1.438 . S
C466 C471 1.429 . S
C467 C450 1.394 . S
C467 C466 1.438 . S
C467 C468 1.428 . S
C468 H460 0.949 . S
C468 C467 1.428 . S
C468 C469 1.345 . S
C469 H461 0.950 . S
C469 C468 1.345 . S
C469 C470 1.424 . S
C470 H462 0.951 . S
C470 C469 1.424 . S
C470 C471 1.347 . S
C471 H463 0.951 . S
C471 C466 1.429 . S
C471 C470 1.347 . S
H472 C473 0.951 . S
C473 H472 0.951 . S
C473 C479 1.265 . S
H474 C479 0.950 . S
H475 C483 0.949 . S
H476 C484 0.950 . S
H477 C485 0.951 . S
H478 C486 0.951 . S
C479 C473 1.265 . S
C479 H474 0.950 . S
C479 C480 1.478 . S
C480 C479 1.478 . S
C480 C481 1.397 1_655 S
C480 C497 1.394 . S
C481 C480 1.397 1_455 S
C481 C482 1.438 . S
C481 C486 1.429 . S
C482 C481 1.438 . S
C482 C483 1.428 . S
C482 C495 1.394 . S
C483 H475 0.949 . S
C483 C482 1.428 . S
C483 C484 1.345 . S
C484 H476 0.950 . S
C484 C483 1.345 . S
C484 C485 1.424 . S
C485 H477 0.951 . S
C485 C484 1.424 . S
C485 C486 1.347 . S
C486 H478 0.951 . S
C486 C481 1.429 . S
C486 C485 1.347 . S
H487 C488 0.951 . S
C488 H487 0.951 . S
C488 C494 1.265 . S
H489 C494 0.950 . S
H490 C498 0.949 . S
H491 C499 0.950 . S
H492 C500 0.951 . S
H493 C501 0.951 . S
C494 C488 1.265 . S
C494 H489 0.950 . S
C494 C495 1.478 . S
C495 C482 1.394 . S
C495 C494 1.478 . S
C495 C496 1.397 1_455 S
C496 C495 1.397 1_655 S
C496 C497 1.438 . S
C496 C501 1.429 . S
C497 C480 1.394 . S
C497 C496 1.438 . S
C497 C498 1.428 . S
C498 H490 0.949 . S
C498 C497 1.428 . S
C498 C499 1.345 . S
C499 H491 0.950 . S
C499 C498 1.345 . S
C499 C500 1.424 . S
C500 H492 0.951 . S
C500 C499 1.424 . S
C500 C501 1.347 . S
C501 H493 0.951 . S
C501 C496 1.429 . S
C501 C500 1.347 . S
H502 C503 0.951 . S
C503 H502 0.951 . S
C503 C509 1.265 . S
H504 C509 0.950 . S
H505 C513 0.949 . S
H506 C514 0.950 . S
H507 C515 0.951 . S
H508 C516 0.951 . S
C509 C503 1.265 . S
C509 H504 0.950 . S
C509 C510 1.478 . S
C510 C509 1.478 . S
C510 C511 1.397 1_545 S
C510 C527 1.394 . S
C511 C510 1.397 1_565 S
C511 C512 1.438 . S
C511 C516 1.429 . S
C512 C511 1.438 . S
C512 C513 1.428 . S
C512 C525 1.394 . S
C513 H505 0.949 . S
C513 C512 1.428 . S
C513 C514 1.345 . S
C514 H506 0.950 . S
C514 C513 1.345 . S
C514 C515 1.424 . S
C515 H507 0.951 . S
C515 C514 1.424 . S
C515 C516 1.347 . S
C516 H508 0.951 . S
C516 C511 1.429 . S
C516 C515 1.347 . S
H517 C518 0.951 . S
C518 H517 0.951 . S
C518 C524 1.265 . S
H519 C524 0.950 . S
H520 C528 0.949 . S
H521 C529 0.950 . S
H522 C530 0.951 . S
H523 C531 0.951 . S
C524 C518 1.265 . S
C524 H519 0.950 . S
C524 C525 1.478 . S
C525 C512 1.394 . S
C525 C524 1.478 . S
C525 C526 1.397 1_565 S
C526 C525 1.397 1_545 S
C526 C527 1.438 . S
C526 C531 1.429 . S
C527 C510 1.394 . S
C527 C526 1.438 . S
C527 C528 1.428 . S
C528 H520 0.949 . S
C528 C527 1.428 . S
C528 C529 1.345 . S
C529 H521 0.950 . S
C529 C528 1.345 . S
C529 C530 1.424 . S
C530 H522 0.951 . S
C530 C529 1.424 . S
C530 C531 1.347 . S
C531 H523 0.951 . S
C531 C526 1.429 . S
C531 C530 1.347 . S
H532 C533 0.951 . S
C533 H532 0.951 . S
C533 C539 1.265 . S
H534 C539 0.950 . S
H535 C543 0.949 . S
H536 C544 0.950 . S
H537 C545 0.951 . S
H538 C546 0.951 . S
C539 C533 1.265 . S
C539 H534 0.950 . S
C539 C540 1.478 . S
C540 C539 1.478 . S
C540 C541 1.397 1_556 S
C540 C557 1.394 . S
C541 C540 1.397 1_554 S
C541 C542 1.438 1_545 S
C541 C546 1.429 . S
C542 C541 1.438 1_565 S
C542 C543 1.428 . S
C542 C555 1.394 1_554 S
C543 H535 0.949 . S
C543 C542 1.428 . S
C543 C544 1.345 . S
C544 H536 0.950 . S
C544 C543 1.345 . S
C544 C545 1.424 . S
C545 H537 0.951 . S
C545 C544 1.424 . S
C545 C546 1.347 1_565 S
C546 H538 0.951 . S
C546 C541 1.429 . S
C546 C545 1.347 1_545 S
H547 C548 0.951 . S
C548 H547 0.951 . S
C548 C554 1.265 . S
H549 C554 0.950 . S
H550 C558 0.949 . S
H551 C559 0.950 . S
H552 C560 0.951 . S
H553 C561 0.951 . S
C554 C548 1.265 . S
C554 H549 0.950 . S
C554 C555 1.478 . S
C555 C542 1.394 1_556 S
C555 C554 1.478 . S
C555 C556 1.397 . S
C556 C555 1.397 . S
C556 C557 1.438 1_565 S
C556 C561 1.429 . S
C557 C540 1.394 . S
C557 C556 1.438 1_545 S
C557 C558 1.428 . S
C558 H550 0.949 . S
C558 C557 1.428 . S
C558 C559 1.345 . S
C559 H551 0.950 . S
C559 C558 1.345 . S
C559 C560 1.424 . S
C560 H552 0.951 . S
C560 C559 1.424 . S
C560 C561 1.347 1_545 S
C561 H553 0.951 . S
C561 C556 1.429 . S
C561 C560 1.347 1_565 S
H562 C563 0.951 . S
C563 H562 0.951 . S
C563 C569 1.265 . S
H564 C569 0.950 . S
H565 C573 0.949 . S
H566 C574 0.950 . S
H567 C575 0.951 . S
H568 C576 0.951 . S
C569 C563 1.265 . S
C569 H564 0.950 . S
C569 C570 1.478 . S
C570 C569 1.478 . S
C570 C571 1.397 1_554 S
C570 C587 1.394 . S
C571 C570 1.397 1_556 S
C571 C572 1.438 1_455 S
C571 C576 1.429 . S
C572 C571 1.438 1_655 S
C572 C573 1.428 . S
C572 C585 1.394 1_556 S
C573 H565 0.949 . S
C573 C572 1.428 . S
C573 C574 1.345 . S
C574 H566 0.950 . S
C574 C573 1.345 . S
C574 C575 1.424 1_655 S
C575 H567 0.951 . S
C575 C574 1.424 1_455 S
C575 C576 1.347 . S
C576 H568 0.951 . S
C576 C571 1.429 . S
C576 C575 1.347 . S
H577 C578 0.951 . S
C578 H577 0.951 . S
C578 C584 1.265 . S
H579 C584 0.950 . S
H580 C588 0.949 . S
H581 C589 0.950 . S
H582 C590 0.951 . S
H583 C591 0.951 . S
C584 C578 1.265 . S
C584 H579 0.950 . S
C584 C585 1.478 . S
C585 C572 1.394 1_554 S
C585 C584 1.478 . S
C585 C586 1.397 . S
C586 C585 1.397 . S
C586 C587 1.438 1_655 S
C586 C591 1.429 . S
C587 C570 1.394 . S
C587 C586 1.438 1_455 S
C587 C588 1.428 . S
C588 H580 0.949 . S
C588 C587 1.428 . S
C588 C589 1.345 . S
C589 H581 0.950 . S
C589 C588 1.345 . S
C589 C590 1.424 1_455 S
C590 H582 0.951 . S
C590 C589 1.424 1_655 S
C590 C591 1.347 . S
C591 H583 0.951 . S
C591 C586 1.429 . S
C591 C590 1.347 . S
C113 C98 1.521 . S
C128 C0 1.482 . S
C143 C25 1.555 . S
C158 C67 1.573 . S
C173 C28 1.530 . S
C188 C70 1.491 . S
C203 C95 1.529 . S
C218 C53 1.557 . S
C233 C19 1.468 1_545 S
C248 C11 1.430 . S
C263 C14 1.409 . S
C278 C37 1.423 1_455 S
C293 C47 1.484 1_565 S
C308 C39 1.485 . S
C323 C42 1.414 . S
C338 C9 1.423 1_655 S
C353 C107 1.429 . S
C368 C56 1.362 . S
C383 C81 1.429 . S
C398 C61 1.464 . S
C413 C79 1.421 . S
C428 C84 1.431 . S
C443 C89 1.481 . S
C458 C109 1.487 . S
C473 C33 1.092 . S
C488 C5 1.095 . S
C503 C51 1.081 . S
C518 C23 1.075 . S
C533 C93 1.009 . S
C548 C65 1.010 . S
C563 C103 1.094 . S
C578 C75 1.092 . S
