# Generated by pormake.
# Topology umr, (4)-cn, num edge types: 1
# Building blocks:
#     Node 0, Type 0, BuildingBlock: GALJAG_clean_sbu_0, # of connection points: 4
#     Node 1, Type 0, BuildingBlock: GALJAG_clean_sbu_0, # of connection points: 4
#     Node 2, Type 0, BuildingBlock: GALJAG_clean_sbu_0, # of connection points: 4
#     Node 3, Type 0, BuildingBlock: GALJAG_clean_sbu_0, # of connection points: 4
#     Node 4, Type 0, BuildingBlock: GALJAG_clean_sbu_0, # of connection points: 4
#     Node 5, Type 0, BuildingBlock: GALJAG_clean_sbu_0, # of connection points: 4
#     Node 6, Type 0, BuildingBlock: GALJAG_clean_sbu_0, # of connection points: 4
#     Node 7, Type 0, BuildingBlock: GALJAG_clean_sbu_0, # of connection points: 4
#     Node 8, Type 0, BuildingBlock: GALJAG_clean_sbu_0, # of connection points: 4
#     Node 9, Type 0, BuildingBlock: GALJAG_clean_sbu_0, # of connection points: 4
#     Node 10, Type 0, BuildingBlock: GALJAG_clean_sbu_0, # of connection points: 4
#     Node 11, Type 0, BuildingBlock: GALJAG_clean_sbu_0, # of connection points: 4
#     Node 12, Type 0, BuildingBlock: GALJAG_clean_sbu_0, # of connection points: 4
#     Node 13, Type 0, BuildingBlock: GALJAG_clean_sbu_0, # of connection points: 4
#     Node 14, Type 0, BuildingBlock: GALJAG_clean_sbu_0, # of connection points: 4
#     Node 15, Type 0, BuildingBlock: GALJAG_clean_sbu_0, # of connection points: 4
#     Node 16, Type 0, BuildingBlock: GALJAG_clean_sbu_0, # of connection points: 4
#     Node 17, Type 0, BuildingBlock: GALJAG_clean_sbu_0, # of connection points: 4
#     Node 18, Type 0, BuildingBlock: GALJAG_clean_sbu_0, # of connection points: 4
#     Node 19, Type 0, BuildingBlock: GALJAG_clean_sbu_0, # of connection points: 4
#     Node 20, Type 0, BuildingBlock: GALJAG_clean_sbu_0, # of connection points: 4
#     Node 21, Type 0, BuildingBlock: GALJAG_clean_sbu_0, # of connection points: 4
#     Node 22, Type 0, BuildingBlock: GALJAG_clean_sbu_0, # of connection points: 4
#     Node 23, Type 0, BuildingBlock: GALJAG_clean_sbu_0, # of connection points: 4
#     Node 24, Type 0, BuildingBlock: GALJAG_clean_sbu_0, # of connection points: 4
#     Node 25, Type 0, BuildingBlock: GALJAG_clean_sbu_0, # of connection points: 4
#     Node 26, Type 0, BuildingBlock: GALJAG_clean_sbu_0, # of connection points: 4
#     Node 27, Type 0, BuildingBlock: GALJAG_clean_sbu_0, # of connection points: 4
#     Node 28, Type 0, BuildingBlock: GALJAG_clean_sbu_0, # of connection points: 4
#     Node 29, Type 0, BuildingBlock: GALJAG_clean_sbu_0, # of connection points: 4
#     Node 30, Type 0, BuildingBlock: GALJAG_clean_sbu_0, # of connection points: 4
#     Node 31, Type 0, BuildingBlock: GALJAG_clean_sbu_0, # of connection points: 4
#     Edge 32, Type (0, 0), BuildingBlock: UVAHIK_clean_linker_0, # of connection points: 2
#     Edge 33, Type (0, 0), BuildingBlock: UVAHIK_clean_linker_0, # of connection points: 2
#     Edge 34, Type (0, 0), BuildingBlock: UVAHIK_clean_linker_0, # of connection points: 2
#     Edge 35, Type (0, 0), BuildingBlock: UVAHIK_clean_linker_0, # of connection points: 2
#     Edge 36, Type (0, 0), BuildingBlock: UVAHIK_clean_linker_0, # of connection points: 2
#     Edge 37, Type (0, 0), BuildingBlock: UVAHIK_clean_linker_0, # of connection points: 2
#     Edge 38, Type (0, 0), BuildingBlock: UVAHIK_clean_linker_0, # of connection points: 2
#     Edge 39, Type (0, 0), BuildingBlock: UVAHIK_clean_linker_0, # of connection points: 2
#     Edge 40, Type (0, 0), BuildingBlock: UVAHIK_clean_linker_0, # of connection points: 2
#     Edge 41, Type (0, 0), BuildingBlock: UVAHIK_clean_linker_0, # of connection points: 2
#     Edge 42, Type (0, 0), BuildingBlock: UVAHIK_clean_linker_0, # of connection points: 2
#     Edge 43, Type (0, 0), BuildingBlock: UVAHIK_clean_linker_0, # of connection points: 2
#     Edge 44, Type (0, 0), BuildingBlock: UVAHIK_clean_linker_0, # of connection points: 2
#     Edge 45, Type (0, 0), BuildingBlock: UVAHIK_clean_linker_0, # of connection points: 2
#     Edge 46, Type (0, 0), BuildingBlock: UVAHIK_clean_linker_0, # of connection points: 2
#     Edge 47, Type (0, 0), BuildingBlock: UVAHIK_clean_linker_0, # of connection points: 2
#     Edge 48, Type (0, 0), BuildingBlock: UVAHIK_clean_linker_0, # of connection points: 2
#     Edge 49, Type (0, 0), BuildingBlock: UVAHIK_clean_linker_0, # of connection points: 2
#     Edge 50, Type (0, 0), BuildingBlock: UVAHIK_clean_linker_0, # of connection points: 2
#     Edge 51, Type (0, 0), BuildingBlock: UVAHIK_clean_linker_0, # of connection points: 2
#     Edge 52, Type (0, 0), BuildingBlock: UVAHIK_clean_linker_0, # of connection points: 2
#     Edge 53, Type (0, 0), BuildingBlock: UVAHIK_clean_linker_0, # of connection points: 2
#     Edge 54, Type (0, 0), BuildingBlock: UVAHIK_clean_linker_0, # of connection points: 2
#     Edge 55, Type (0, 0), BuildingBlock: UVAHIK_clean_linker_0, # of connection points: 2
#     Edge 56, Type (0, 0), BuildingBlock: UVAHIK_clean_linker_0, # of connection points: 2
#     Edge 57, Type (0, 0), BuildingBlock: UVAHIK_clean_linker_0, # of connection points: 2
#     Edge 58, Type (0, 0), BuildingBlock: UVAHIK_clean_linker_0, # of connection points: 2
#     Edge 59, Type (0, 0), BuildingBlock: UVAHIK_clean_linker_0, # of connection points: 2
#     Edge 60, Type (0, 0), BuildingBlock: UVAHIK_clean_linker_0, # of connection points: 2
#     Edge 61, Type (0, 0), BuildingBlock: UVAHIK_clean_linker_0, # of connection points: 2
#     Edge 62, Type (0, 0), BuildingBlock: UVAHIK_clean_linker_0, # of connection points: 2
#     Edge 63, Type (0, 0), BuildingBlock: UVAHIK_clean_linker_0, # of connection points: 2
#     Edge 64, Type (0, 0), BuildingBlock: UVAHIK_clean_linker_0, # of connection points: 2
#     Edge 65, Type (0, 0), BuildingBlock: UVAHIK_clean_linker_0, # of connection points: 2
#     Edge 66, Type (0, 0), BuildingBlock: UVAHIK_clean_linker_0, # of connection points: 2
#     Edge 67, Type (0, 0), BuildingBlock: UVAHIK_clean_linker_0, # of connection points: 2
#     Edge 68, Type (0, 0), BuildingBlock: UVAHIK_clean_linker_0, # of connection points: 2
#     Edge 69, Type (0, 0), BuildingBlock: UVAHIK_clean_linker_0, # of connection points: 2
#     Edge 70, Type (0, 0), BuildingBlock: UVAHIK_clean_linker_0, # of connection points: 2
#     Edge 71, Type (0, 0), BuildingBlock: UVAHIK_clean_linker_0, # of connection points: 2
#     Edge 72, Type (0, 0), BuildingBlock: UVAHIK_clean_linker_0, # of connection points: 2
#     Edge 73, Type (0, 0), BuildingBlock: UVAHIK_clean_linker_0, # of connection points: 2
#     Edge 74, Type (0, 0), BuildingBlock: UVAHIK_clean_linker_0, # of connection points: 2
#     Edge 75, Type (0, 0), BuildingBlock: UVAHIK_clean_linker_0, # of connection points: 2
#     Edge 76, Type (0, 0), BuildingBlock: UVAHIK_clean_linker_0, # of connection points: 2
#     Edge 77, Type (0, 0), BuildingBlock: UVAHIK_clean_linker_0, # of connection points: 2
#     Edge 78, Type (0, 0), BuildingBlock: UVAHIK_clean_linker_0, # of connection points: 2
#     Edge 79, Type (0, 0), BuildingBlock: UVAHIK_clean_linker_0, # of connection points: 2
#     Edge 80, Type (0, 0), BuildingBlock: UVAHIK_clean_linker_0, # of connection points: 2
#     Edge 81, Type (0, 0), BuildingBlock: UVAHIK_clean_linker_0, # of connection points: 2
#     Edge 82, Type (0, 0), BuildingBlock: UVAHIK_clean_linker_0, # of connection points: 2
#     Edge 83, Type (0, 0), BuildingBlock: UVAHIK_clean_linker_0, # of connection points: 2
#     Edge 84, Type (0, 0), BuildingBlock: UVAHIK_clean_linker_0, # of connection points: 2
#     Edge 85, Type (0, 0), BuildingBlock: UVAHIK_clean_linker_0, # of connection points: 2
#     Edge 86, Type (0, 0), BuildingBlock: UVAHIK_clean_linker_0, # of connection points: 2
#     Edge 87, Type (0, 0), BuildingBlock: UVAHIK_clean_linker_0, # of connection points: 2
#     Edge 88, Type (0, 0), BuildingBlock: UVAHIK_clean_linker_0, # of connection points: 2
#     Edge 89, Type (0, 0), BuildingBlock: UVAHIK_clean_linker_0, # of connection points: 2
#     Edge 90, Type (0, 0), BuildingBlock: UVAHIK_clean_linker_0, # of connection points: 2
#     Edge 91, Type (0, 0), BuildingBlock: UVAHIK_clean_linker_0, # of connection points: 2
#     Edge 92, Type (0, 0), BuildingBlock: UVAHIK_clean_linker_0, # of connection points: 2
#     Edge 93, Type (0, 0), BuildingBlock: UVAHIK_clean_linker_0, # of connection points: 2
#     Edge 94, Type (0, 0), BuildingBlock: UVAHIK_clean_linker_0, # of connection points: 2
#     Edge 95, Type (0, 0), BuildingBlock: UVAHIK_clean_linker_0, # of connection points: 2
# Relax obj value: 0.027
# Max RMSD: 0.060
# Mean RMSD: 0.060
data_MOF--net-umr--node1-GALJAG_clean_sbu_0--edge1-UVAHIK_clean_linker_0
_symmetry_space_group_name_H-M    P1
_symmetry_Int_Tables_number       1
_symmetry_cell_setting            triclinic
loop_
_symmetry_equiv_pos_as_xyz
'x, y, z'
_cell_length_a     104.26726
_cell_length_b     104.27457
_cell_length_c     36.62425
_cell_angle_alpha  90.013172
_cell_angle_beta   90.000179
_cell_angle_gamma 90.01198
loop_
_atom_site_label
_atom_site_type_symbol
_atom_site_fract_x
_atom_site_fract_y
_atom_site_fract_z
_atom_type_partial_charge
In0 In 0.1513 0.27626 0.03113 0.0
O1 O 0.14379 0.25958 0.06608 0.0
O2 O 0.15324 0.27513 0.09242 0.0
C3 C 0.14567 0.26834 0.96288 0.0
C4 C 0.13483 0.29541 0.04452 0.0
C5 C 0.17701 0.27827 0.02729 0.0
O6 O 0.14683 0.26062 0.98922 0.0
O7 O 0.14712 0.27998 0.97118 0.0
O8 O 0.16973 0.28793 0.02631 0.0
O9 O 0.1713 0.26765 0.02995 0.0
C10 C 0.14747 0.26457 0.09576 0.0
O11 O 0.14675 0.29726 0.04117 0.0
O12 O 0.13122 0.28397 0.03977 0.0
In13 In 0.96058 0.90257 0.28012 0.0
O14 O 0.93946 0.89767 0.2857 0.0
O15 O 0.95291 0.88228 0.2832 0.0
C16 C 0.95894 0.92833 0.27803 0.0
C17 C 0.97055 0.89813 0.34678 0.0
C18 C 0.96974 0.89763 0.21278 0.0
O19 O 0.94919 0.9212 0.27574 0.0
O20 O 0.96944 0.92245 0.28123 0.0
O21 O 0.97693 0.89787 0.24054 0.0
O22 O 0.95806 0.89972 0.2192 0.0
C23 C 0.94134 0.8857 0.28658 0.0
O24 O 0.97663 0.89537 0.31795 0.0
O25 O 0.95975 0.90323 0.34166 0.0
In26 In 0.33873 0.70901 0.52864 0.0
O27 O 0.34263 0.68777 0.53624 0.0
O28 O 0.35864 0.70045 0.53296 0.0
C29 C 0.31296 0.7083 0.52463 0.0
C30 C 0.34306 0.71997 0.59421 0.0
C31 C 0.34458 0.71692 0.4606 0.0
O32 O 0.31971 0.69827 0.52584 0.0
O33 O 0.31921 0.71865 0.52548 0.0
O34 O 0.34482 0.72444 0.48767 0.0
O35 O 0.34153 0.70553 0.46805 0.0
C36 C 0.35467 0.68909 0.53703 0.0
O37 O 0.34619 0.72543 0.56472 0.0
O38 O 0.33767 0.70924 0.59032 0.0
In39 In 0.52686 0.08996 0.77799 0.0
O40 O 0.54787 0.09464 0.78773 0.0
O41 O 0.53455 0.11012 0.78511 0.0
C42 C 0.52873 0.06429 0.77218 0.0
C43 C 0.51577 0.09335 0.84366 0.0
C44 C 0.51791 0.09571 0.71094 0.0
O45 O 0.5384 0.07154 0.7705 0.0
O46 O 0.51819 0.07 0.77672 0.0
O47 O 0.51065 0.09484 0.73843 0.0
O48 O 0.52965 0.09395 0.7175 0.0
C49 C 0.54599 0.10658 0.79022 0.0
O50 O 0.51054 0.09722 0.81454 0.0
O51 O 0.5263 0.08762 0.83931 0.0
In52 In 0.15098 0.71304 0.46594 0.0
O53 O 0.14349 0.72909 0.42893 0.0
O54 O 0.15473 0.71424 0.40523 0.0
C55 C 0.14421 0.72208 0.53209 0.0
C56 C 0.1349 0.69372 0.45062 0.0
C57 C 0.17644 0.71101 0.47637 0.0
O58 O 0.14616 0.72936 0.50511 0.0
O59 O 0.14534 0.71027 0.52538 0.0
O60 O 0.16908 0.7014 0.47713 0.0
O61 O 0.17095 0.72155 0.47011 0.0
C62 C 0.14833 0.72435 0.40032 0.0
O63 O 0.14683 0.69204 0.45422 0.0
O64 O 0.13108 0.70505 0.45624 0.0
In65 In 0.52755 0.90216 0.71614 0.0
O66 O 0.51089 0.8957 0.6795 0.0
O67 O 0.52623 0.90621 0.65564 0.0
C68 C 0.51995 0.89427 0.7828 0.0
C69 C 0.54666 0.88607 0.69897 0.0
C70 C 0.52916 0.92759 0.72779 0.0
O71 O 0.51217 0.89571 0.75667 0.0
O72 O 0.5315 0.8966 0.77503 0.0
O73 O 0.53897 0.92058 0.72457 0.0
O74 O 0.51861 0.92175 0.72507 0.0
C75 C 0.51576 0.90041 0.65087 0.0
O76 O 0.54853 0.89789 0.70436 0.0
O77 O 0.53524 0.88236 0.70348 0.0
In78 In 0.33824 0.27734 0.96514 0.0
O79 O 0.34191 0.29828 0.95126 0.0
O80 O 0.35726 0.28495 0.945 0.0
C81 C 0.31342 0.27916 0.98421 0.0
C82 C 0.33752 0.26516 0.90036 0.0
C83 C 0.34851 0.27014 0.0294 0.0
O84 O 0.3203 0.28891 0.97842 0.0
O85 O 0.31908 0.26855 0.98051 0.0
O86 O 0.34567 0.26214 0.00476 0.0
O87 O 0.34637 0.28168 0.02127 0.0
C88 C 0.35338 0.29635 0.94155 0.0
O89 O 0.34404 0.26091 0.92684 0.0
O90 O 0.33117 0.27516 0.90722 0.0
In91 In 0.96483 0.08947 0.2146 0.0
O92 O 0.9812 0.0944 0.17509 0.0
O93 O 0.96539 0.08355 0.15524 0.0
C94 C 0.97361 0.09829 0.27908 0.0
C95 C 0.94636 0.10617 0.19651 0.0
C96 C 0.96201 0.06452 0.23146 0.0
O97 O 0.98103 0.09568 0.25284 0.0
O98 O 0.96186 0.09669 0.27242 0.0
O99 O 0.95254 0.07189 0.22692 0.0
O100 O 0.97283 0.06975 0.22743 0.0
C101 C 0.97593 0.08893 0.14818 0.0
O102 O 0.94396 0.09461 0.20432 0.0
O103 O 0.95803 0.10933 0.19888 0.0
In104 In 0.83787 0.71128 0.95807 0.0
O105 O 0.84165 0.69023 0.94606 0.0
O106 O 0.85762 0.70297 0.94851 0.0
C107 C 0.81233 0.70964 0.96765 0.0
C108 C 0.84111 0.72287 0.89304 0.0
C109 C 0.84462 0.71976 0.02485 0.0
O110 O 0.81948 0.69988 0.96762 0.0
O111 O 0.81805 0.72013 0.96256 0.0
O112 O 0.84272 0.72725 -0.00165 0.0
O113 O 0.84344 0.70801 0.01738 0.0
C114 C 0.85362 0.69172 0.94269 0.0
O115 O 0.84586 0.72739 0.92206 0.0
O116 O 0.83448 0.71288 0.89725 0.0
In117 In 0.02964 0.08869 0.70982 0.0
O118 O 0.01393 0.09746 0.67367 0.0
O119 O 0.02918 0.08729 0.64822 0.0
C120 C 0.02051 0.0935 0.77734 0.0
C121 C 0.0495 0.10477 0.70199 0.0
C122 C 0.03112 0.06294 0.71262 0.0
O123 O 0.01325 0.09252 0.74991 0.0
O124 O 0.0323 0.09231 0.7705 0.0
O125 O 0.0409 0.07002 0.71468 0.0
O126 O 0.02065 0.06885 0.70908 0.0
C127 C 0.01903 0.0937 0.64424 0.0
O128 O 0.05089 0.09273 0.70262 0.0
O129 O 0.03813 0.10866 0.70628 0.0
In130 In 0.6501 0.28089 0.45639 0.0
O131 O 0.64263 0.26563 0.41645 0.0
O132 O 0.65114 0.28255 0.39492 0.0
C133 C 0.64497 0.27044 0.52208 0.0
C134 C 0.63356 0.3005 0.45304 0.0
C135 C 0.67585 0.28242 0.45983 0.0
O136 O 0.64539 0.26378 0.49328 0.0
O137 O 0.64695 0.28225 0.51748 0.0
O138 O 0.66873 0.29214 0.46277 0.0
O139 O 0.66997 0.27198 0.4552 0.0
C140 C 0.64576 0.27197 0.38842 0.0
O141 O 0.64556 0.30214 0.45393 0.0
O142 O 0.62993 0.28895 0.45459 0.0
In143 In 0.46295 0.89967 0.21433 0.0
O144 O 0.47964 0.89265 0.17862 0.0
O145 O 0.46384 0.90193 0.15303 0.0
C146 C 0.471 0.8938 0.28223 0.0
C147 C 0.44401 0.88287 0.20166 0.0
C148 C 0.46104 0.92533 0.22049 0.0
O149 O 0.47865 0.89471 0.2556 0.0
O150 O 0.45937 0.89562 0.27437 0.0
O151 O 0.45132 0.91812 0.22005 0.0
O152 O 0.47164 0.91959 0.21771 0.0
C153 C 0.47449 0.89638 0.1492 0.0
O154 O 0.44202 0.8948 0.20395 0.0
O155 O 0.45549 0.87945 0.20687 0.0
In156 In 0.83716 0.27744 0.52509 0.0
O157 O 0.84215 0.26088 0.56386 0.0
O158 O 0.83208 0.27698 0.58503 0.0
C159 C 0.84553 0.26902 0.45982 0.0
C160 C 0.85416 0.2958 0.54172 0.0
C161 C 0.81205 0.28 0.50998 0.0
O162 O 0.84353 0.26149 0.48626 0.0
O163 O 0.8435 0.28069 0.46663 0.0
O164 O 0.81933 0.28955 0.51446 0.0
O165 O 0.81745 0.26924 0.51324 0.0
C166 C 0.83721 0.26628 0.5914 0.0
O167 O 0.84249 0.29826 0.53565 0.0
O168 O 0.85725 0.28414 0.53848 0.0
In169 In 0.46109 0.08766 0.27568 0.0
O170 O 0.4401 0.09277 0.2846 0.0
O171 O 0.45395 0.10782 0.28531 0.0
C172 C 0.45959 0.06216 0.26529 0.0
C173 C 0.47174 0.08939 0.34245 0.0
C174 C 0.46949 0.09507 0.20952 0.0
O175 O 0.44973 0.06915 0.26724 0.0
O176 O 0.47009 0.06805 0.26854 0.0
O177 O 0.47695 0.09401 0.23657 0.0
O178 O 0.4579 0.09252 0.2161 0.0
C179 C 0.44234 0.1046 0.28872 0.0
O180 O 0.47743 0.09349 0.31427 0.0
O181 O 0.46098 0.08427 0.33655 0.0
In182 In 0.65061 0.71232 0.0333 0.0
O183 O 0.64389 0.72874 0.07028 0.0
O184 O 0.65351 0.71288 0.09447 0.0
C185 C 0.6443 0.72116 0.96658 0.0
C186 C 0.63387 0.69337 0.04643 0.0
C187 C 0.6762 0.71038 0.02548 0.0
O188 O 0.64524 0.72844 0.99402 0.0
O189 O 0.64627 0.70945 0.97304 0.0
O190 O 0.66896 0.70068 0.02559 0.0
O191 O 0.67052 0.72096 0.02937 0.0
C192 C 0.64793 0.72348 0.09916 0.0
O193 O 0.64575 0.69133 0.04278 0.0
O194 O 0.63045 0.70488 0.04207 0.0
In195 In 0.02728 0.90141 0.77764 0.0
O196 O 0.04827 0.89658 0.78734 0.0
O197 O 0.03463 0.88137 0.78901 0.0
C198 C 0.02941 0.9267 0.76423 0.0
C199 C 0.01638 0.90056 0.84431 0.0
C200 C 0.01808 0.89362 0.71254 0.0
O201 O 0.03906 0.91944 0.76646 0.0
O202 O 0.01876 0.9212 0.76896 0.0
O203 O 0.011 0.89485 0.74031 0.0
O204 O 0.02978 0.89605 0.71793 0.0
C205 C 0.04618 0.88479 0.79255 0.0
O206 O 0.01093 0.89591 0.81647 0.0
O207 O 0.02705 0.90582 0.83818 0.0
In208 In 0.65235 0.7783 0.53209 0.0
O209 O 0.6458 0.76214 0.57039 0.0
O210 O 0.65513 0.77843 0.5932 0.0
C211 C 0.64528 0.76983 0.46563 0.0
C212 C 0.63601 0.7977 0.54354 0.0
C213 C 0.67796 0.77929 0.52346 0.0
O214 O 0.64605 0.76243 0.49286 0.0
O215 O 0.64792 0.7814 0.47218 0.0
O216 O 0.67112 0.78927 0.52451 0.0
O217 O 0.67187 0.76891 0.52671 0.0
C218 C 0.64976 0.76779 0.59881 0.0
O219 O 0.64795 0.79946 0.54013 0.0
O220 O 0.63236 0.78621 0.54028 0.0
In221 In 0.46297 0.40022 0.78738 0.0
O222 O 0.47845 0.39036 0.82221 0.0
O223 O 0.4634 0.40038 0.84903 0.0
C224 C 0.4722 0.39623 0.71948 0.0
C225 C 0.44254 0.38481 0.7928 0.0
C226 C 0.46106 0.42597 0.78777 0.0
O227 O 0.47948 0.39839 0.74633 0.0
O228 O 0.46044 0.39585 0.72711 0.0
O229 O 0.45149 0.41874 0.78319 0.0
O230 O 0.47157 0.4202 0.79208 0.0
C231 C 0.47339 0.39368 0.85212 0.0
O232 O 0.44161 0.39689 0.79352 0.0
O233 O 0.4538 0.38053 0.78866 0.0
In234 In 0.83885 0.21222 0.02896 0.0
O235 O 0.84655 0.22849 0.06502 0.0
O236 O 0.83722 0.21269 0.09045 0.0
C237 C 0.8436 0.22104 0.96119 0.0
C238 C 0.85585 0.19326 0.03864 0.0
C239 C 0.81313 0.21035 0.02545 0.0
O240 O 0.84302 0.22839 0.98858 0.0
O241 O 0.84205 0.20931 0.96821 0.0
O242 O 0.82033 0.20063 0.02389 0.0
O243 O 0.81892 0.2209 0.02886 0.0
C244 C 0.84301 0.22321 0.09442 0.0
O245 O 0.8439 0.19126 0.03809 0.0
O246 O 0.85917 0.20474 0.03305 0.0
In247 In 0.02747 0.58978 0.27565 0.0
O248 O 0.01172 0.59685 0.31433 0.0
O249 O 0.02747 0.58659 0.33681 0.0
C250 C 0.01775 0.59647 0.21022 0.0
C251 C 0.047 0.60607 0.2864 0.0
C252 C 0.02912 0.56423 0.26606 0.0
O253 O 0.01081 0.59521 0.23823 0.0
O254 O 0.02955 0.59462 0.21548 0.0
O255 O 0.03886 0.57141 0.26564 0.0
O256 O 0.01863 0.56993 0.27149 0.0
C257 C 0.01711 0.59247 0.3426 0.0
O258 O 0.04866 0.59411 0.28339 0.0
O259 O 0.03554 0.60978 0.28295 0.0
In260 In 0.65171 0.21442 0.95839 0.0
O261 O 0.64657 0.19335 0.95187 0.0
O262 O 0.63153 0.20715 0.94872 0.0
C263 C 0.677 0.21214 0.9716 0.0
C264 C 0.65063 0.22416 0.89032 0.0
C265 C 0.64412 0.22464 0.02242 0.0
O266 O 0.66962 0.20256 0.97028 0.0
O267 O 0.67163 0.22279 0.96607 0.0
O268 O 0.64569 0.23137 0.9941 0.0
O269 O 0.64616 0.21281 0.01814 0.0
C270 C 0.63477 0.1955 0.94684 0.0
O271 O 0.64613 0.23011 0.91752 0.0
O272 O 0.65587 0.21359 0.89777 0.0
In273 In 0.02837 0.40178 0.21557 0.0
O274 O 0.01169 0.39462 0.18004 0.0
O275 O 0.02757 0.40366 0.15415 0.0
C276 C 0.02064 0.39567 0.28356 0.0
C277 C 0.04753 0.38521 0.20344 0.0
C278 C 0.02973 0.42749 0.22099 0.0
O279 O 0.01295 0.39613 0.25694 0.0
O280 O 0.03215 0.39814 0.2757 0.0
O281 O 0.03961 0.4205 0.21996 0.0
O282 O 0.01924 0.4215 0.2193 0.0
C283 C 0.0169 0.39813 0.1505 0.0
O284 O 0.04939 0.39716 0.2056 0.0
O285 O 0.03608 0.38166 0.20846 0.0
In286 In 0.8399 0.77506 0.4614 0.0
O287 O 0.84605 0.75883 0.42279 0.0
O288 O 0.83445 0.77393 0.4019 0.0
C289 C 0.8485 0.76683 0.52666 0.0
C290 C 0.85566 0.79423 0.44252 0.0
C291 C 0.81465 0.77684 0.47565 0.0
O292 O 0.8462 0.75923 0.50061 0.0
O293 O 0.84673 0.77852 0.51942 0.0
O294 O 0.82175 0.7866 0.47304 0.0
O295 O 0.82031 0.76627 0.47129 0.0
C296 C 0.84046 0.76369 0.39545 0.0
O297 O 0.844 0.7961 0.45021 0.0
O298 O 0.85943 0.78277 0.44572 0.0
In299 In 0.46331 0.5862 0.71357 0.0
O300 O 0.47977 0.59131 0.67459 0.0
O301 O 0.46524 0.57854 0.65614 0.0
C302 C 0.47072 0.5969 0.7771 0.0
C303 C 0.44441 0.60142 0.68961 0.0
C304 C 0.46117 0.56165 0.73506 0.0
O305 O 0.47865 0.59388 0.75244 0.0
O306 O 0.45914 0.59476 0.76927 0.0
O307 O 0.45152 0.56853 0.72807 0.0
O308 O 0.47185 0.56717 0.73117 0.0
C309 C 0.47534 0.58463 0.64866 0.0
O310 O 0.44239 0.59002 0.69979 0.0
O311 O 0.45586 0.6052 0.69267 0.0
In312 In 0.3413 0.21635 0.45924 0.0
O313 O 0.35013 0.23243 0.42448 0.0
O314 O 0.33921 0.2179 0.39807 0.0
C315 C 0.34661 0.22495 0.52702 0.0
C316 C 0.35707 0.19662 0.44604 0.0
C317 C 0.31562 0.21416 0.46382 0.0
O318 O 0.34421 0.23244 0.50084 0.0
O319 O 0.34669 0.21322 0.51872 0.0
O320 O 0.32302 0.20464 0.46684 0.0
O321 O 0.32119 0.22472 0.45847 0.0
C322 C 0.34593 0.22788 0.3948 0.0
O323 O 0.34507 0.19524 0.44865 0.0
O324 O 0.36112 0.20788 0.45148 0.0
In325 In 0.5244 0.58834 0.20623 0.0
O326 O 0.50835 0.59737 0.17176 0.0
O327 O 0.52358 0.58767 0.14471 0.0
C328 C 0.51582 0.59226 0.27478 0.0
C329 C 0.54394 0.60473 0.1979 0.0
C330 C 0.5265 0.56261 0.20597 0.0
O331 O 0.50828 0.59079 0.24812 0.0
O332 O 0.52755 0.59202 0.26665 0.0
O333 O 0.5361 0.56989 0.20915 0.0
O334 O 0.51589 0.56832 0.203 0.0
C335 C 0.51336 0.59403 0.14178 0.0
O336 O 0.54554 0.59272 0.19852 0.0
O337 O 0.53252 0.60844 0.20262 0.0
In338 In 0.1515 0.7778 0.96816 0.0
O339 O 0.14535 0.76169 0.92919 0.0
O340 O 0.15597 0.77742 0.90786 0.0
C341 C 0.14351 0.76915 0.03352 0.0
C342 C 0.13505 0.79682 0.95332 0.0
C343 C 0.17684 0.77941 0.98132 0.0
O344 O 0.14538 0.76171 0.0068 0.0
O345 O 0.14546 0.78085 0.02698 0.0
O346 O 0.16981 0.78923 0.97891 0.0
O347 O 0.17107 0.76889 0.97705 0.0
C348 C 0.15028 0.767 0.9015 0.0
O349 O 0.14688 0.79883 0.95829 0.0
O350 O 0.13155 0.78529 0.95683 0.0
In351 In 0.96367 0.39884 0.71707 0.0
O352 O 0.98038 0.39249 0.68045 0.0
O353 O 0.96452 0.40207 0.65614 0.0
C354 C 0.97147 0.39169 0.78416 0.0
C355 C 0.94457 0.38247 0.70211 0.0
C356 C 0.96203 0.42438 0.72646 0.0
O357 O 0.97916 0.3927 0.75765 0.0
O358 O 0.95992 0.39406 0.77655 0.0
O359 O 0.95223 0.41732 0.72425 0.0
O360 O 0.97258 0.41856 0.72393 0.0
C361 C 0.9752 0.39665 0.65157 0.0
O362 O 0.94268 0.39434 0.70637 0.0
O363 O 0.95603 0.37885 0.70655 0.0
In364 In 0.33924 0.77473 0.02808 0.0
O365 O 0.3443 0.79565 0.03787 0.0
O366 O 0.35946 0.78194 0.03795 0.0
C367 C 0.3136 0.77695 0.02189 0.0
C368 C 0.34188 0.7632 0.09345 0.0
C369 C 0.34568 0.76666 0.96055 0.0
O370 O 0.32094 0.78657 0.0223 0.0
O371 O 0.31921 0.76627 0.02433 0.0
O372 O 0.34489 0.75908 0.98735 0.0
O373 O 0.3434 0.77824 0.96802 0.0
C374 C 0.35613 0.7935 0.0421 0.0
O375 O 0.3454 0.75781 0.06417 0.0
O376 O 0.33688 0.7741 0.08937 0.0
In377 In 0.96155 0.58696 0.77548 0.0
O378 O 0.94028 0.59114 0.78192 0.0
O379 O 0.95336 0.60687 0.78274 0.0
C380 C 0.9605 0.56132 0.76743 0.0
C381 C 0.97139 0.59004 0.84289 0.0
C382 C 0.97076 0.59389 0.70969 0.0
O383 O 0.95058 0.56826 0.76691 0.0
O384 O 0.97087 0.56734 0.7719 0.0
O385 O 0.97795 0.59268 0.73725 0.0
O386 O 0.95905 0.59176 0.71557 0.0
C387 C 0.94188 0.6031 0.78528 0.0
O388 O 0.97717 0.59406 0.81479 0.0
O389 O 0.96096 0.58433 0.83666 0.0
In390 In 0.15394 0.21274 0.52814 0.0
O391 O 0.14759 0.22941 0.56485 0.0
O392 O 0.15864 0.21435 0.58817 0.0
C393 C 0.1454 0.2199 0.46179 0.0
C394 C 0.13813 0.19362 0.54722 0.0
C395 C 0.17926 0.21148 0.5146 0.0
O396 O 0.14691 0.22782 0.48755 0.0
O397 O 0.14797 0.20842 0.46981 0.0
O398 O 0.17247 0.20157 0.51895 0.0
O399 O 0.17327 0.22194 0.51718 0.0
C400 C 0.15268 0.22471 0.59318 0.0
O401 O 0.14989 0.19176 0.54085 0.0
O402 O 0.13433 0.205 0.54267 0.0
In403 In 0.52367 0.40242 0.27986 0.0
O404 O 0.50742 0.39711 0.31932 0.0
O405 O 0.52162 0.41037 0.33696 0.0
C406 C 0.51601 0.39162 0.21669 0.0
C407 C 0.54265 0.38739 0.30431 0.0
C408 C 0.52591 0.42691 0.25787 0.0
O409 O 0.50816 0.39489 0.24127 0.0
O410 O 0.52763 0.39355 0.22441 0.0
O411 O 0.53554 0.41991 0.26416 0.0
O412 O 0.5152 0.42153 0.26265 0.0
C413 C 0.51171 0.40403 0.34489 0.0
O414 O 0.54457 0.39882 0.29424 0.0
O415 O 0.53126 0.38347 0.3008 0.0
C416 C 0.29351 0.29198 0.9951 0.0
C417 C 0.29969 0.28003 0.99349 0.0
C418 C 0.28037 0.29269 0.00231 0.0
C419 C 0.25323 0.27415 0.04002 0.0
H420 H 0.23248 0.29602 0.97802 0.0
C421 C 0.19866 0.26814 0.02751 0.0
C422 C 0.19109 0.27926 0.02585 0.0
C423 C 0.212 0.26901 0.02628 0.0
C424 C 0.23816 0.29001 -0.00407 0.0
H425 H 0.29708 0.25948 -0.00124 0.0
H426 H 0.27416 0.2607 0.01105 0.0
H427 H 0.25577 0.29624 0.97171 0.0
H428 H 0.19149 0.3 0.02179 0.0
H429 H 0.21487 0.30152 0.01977 0.0
H430 H 0.23562 0.26777 0.06386 0.0
C431 C 0.27946 0.26953 0.00715 0.0
C432 C 0.25149 0.29014 0.99233 0.0
C433 C 0.29257 0.26883 -0.00013 0.0
C434 C 0.19711 0.29127 0.023 0.0
C435 C 0.21047 0.29214 0.02172 0.0
C436 C 0.23991 0.27402 0.04363 0.0
C437 C 0.2732 0.28146 0.00816 0.0
C438 C 0.25915 0.28207 0.01397 0.0
C439 C 0.21806 0.28101 0.02335 0.0
C440 C 0.23223 0.28181 0.02125 0.0
H441 H 0.29879 0.30077 0.99038 0.0
H442 H 0.27582 0.30202 0.00328 0.0
H443 H 0.25891 0.26798 0.05751 0.0
H444 H 0.19429 0.25875 0.02965 0.0
H445 H 0.21758 0.26025 0.02701 0.0
C446 C 0.96942 0.94981 0.27936 0.0
C447 C 0.95819 0.94244 0.27698 0.0
C448 C 0.96883 0.96316 0.27793 0.0
C449 C 0.94856 0.9896 0.24553 0.0
H450 H 0.97097 0.01014 0.3066 0.0
C451 C 0.94845 0.04507 0.24208 0.0
C452 C 0.96063 0.0508 0.24038 0.0
C453 C 0.94725 0.03198 0.24964 0.0
C454 C 0.96469 0.00452 0.28927 0.0
H455 H 0.93749 0.94322 0.27164 0.0
H456 H 0.93643 0.96662 0.26937 0.0
H457 H 0.97043 0.98692 0.31439 0.0
H458 H 0.98107 0.04744 0.24566 0.0
H459 H 0.97898 0.02463 0.25866 0.0
H460 H 0.94296 0.00721 0.22008 0.0
C461 C 0.94571 0.96205 0.27197 0.0
C462 C 0.96439 0.99124 0.2937 0.0
C463 C 0.94631 0.94867 0.27341 0.0
C464 C 0.97156 0.04328 0.24682 0.0
C465 C 0.97036 0.03024 0.25452 0.0
C466 C 0.94884 0.0029 0.24115 0.0
C467 C 0.95698 0.96943 0.27413 0.0
C468 C 0.95649 0.98361 0.27145 0.0
C469 C 0.9582 0.02444 0.25584 0.0
C470 C 0.95708 0.01047 0.26256 0.0
H471 H 0.97872 0.94526 0.28204 0.0
H472 H 0.9777 0.96855 0.27907 0.0
H473 H 0.94247 0.98397 0.2277 0.0
H474 H 0.93986 0.05066 0.23729 0.0
H475 H 0.93776 0.02778 0.25077 0.0
C476 C 0.1979 0.72124 0.48333 0.0
C477 C 0.19036 0.71009 0.48274 0.0
C478 C 0.21106 0.72048 0.4898 0.0
C479 C 0.23846 0.69854 0.48473 0.0
H480 H 0.2545 0.72336 0.54906 0.0
C481 C 0.29224 0.69627 0.5222 0.0
C482 C 0.29886 0.708 0.52211 0.0
C483 C 0.27888 0.69603 0.51934 0.0
C484 C 0.25018 0.71643 0.53078 0.0
H485 H 0.19062 0.68939 0.48833 0.0
H486 H 0.2137 0.68806 0.49968 0.0
H487 H 0.23133 0.72382 0.54023 0.0
H488 H 0.29676 0.72866 0.51901 0.0
H489 H 0.27349 0.72824 0.5135 0.0
H490 H 0.25733 0.69126 0.47483 0.0
C491 C 0.20942 0.69737 0.49493 0.0
C492 C 0.23692 0.71669 0.52576 0.0
C493 C 0.19622 0.69814 0.48858 0.0
C494 C 0.2919 0.71947 0.51928 0.0
C495 C 0.27857 0.71924 0.51636 0.0
C496 C 0.25174 0.6983 0.48967 0.0
C497 C 0.21695 0.70855 0.49572 0.0
C498 C 0.23094 0.70783 0.5024 0.0
C499 C 0.27191 0.70752 0.5163 0.0
C500 C 0.25775 0.70733 0.51246 0.0
H501 H 0.19364 0.73059 0.47884 0.0
H502 H 0.21665 0.72924 0.48973 0.0
H503 H 0.23412 0.69167 0.46626 0.0
H504 H 0.29737 0.68727 0.52448 0.0
H505 H 0.27401 0.68686 0.51978 0.0
C506 C 0.5184 0.04274 0.7708 0.0
C507 C 0.52958 0.05022 0.76922 0.0
C508 C 0.5191 0.02942 0.76807 0.0
C509 C 0.5397 0.0033 0.73467 0.0
H510 H 0.51776 0.98231 0.79588 0.0
C511 C 0.54182 0.94781 0.73508 0.0
C512 C 0.52991 0.94152 0.73418 0.0
C513 C 0.54244 0.96105 0.7409 0.0
C514 C 0.52388 0.98805 0.77845 0.0
H515 H 0.55027 0.04968 0.76362 0.0
H516 H 0.55152 0.02632 0.75913 0.0
H517 H 0.51773 0.00553 0.80342 0.0
H518 H 0.50933 0.94408 0.73869 0.0
H519 H 0.51041 0.96715 0.7487 0.0
H520 H 0.54578 0.98578 0.70956 0.0
C521 C 0.5422 0.03078 0.76211 0.0
C522 C 0.52386 0.00134 0.78273 0.0
C523 C 0.5415 0.04413 0.76484 0.0
C524 C 0.51865 0.94867 0.73933 0.0
C525 C 0.51927 0.96187 0.74529 0.0
C526 C 0.53974 0.98998 0.73044 0.0
C527 C 0.531 0.02329 0.76375 0.0
C528 C 0.53163 0.00913 0.76058 0.0
C529 C 0.53117 0.9682 0.74611 0.0
C530 C 0.53171 0.98224 0.75198 0.0
H531 H 0.50907 0.04718 0.77402 0.0
H532 H 0.51028 0.02394 0.76882 0.0
H533 H 0.54569 0.00905 0.71692 0.0
H534 H 0.55066 0.94252 0.73122 0.0
H535 H 0.55175 0.96566 0.74169 0.0
C536 C 0.69764 0.72074 0.01953 0.0
C537 C 0.69022 0.70951 0.021 0.0
C538 C 0.7109 0.72004 0.01512 0.0
C539 C 0.73665 0.69877 0.98246 0.0
H540 H 0.75837 0.72243 0.03594 0.0
C541 C 0.79222 0.69704 0.97805 0.0
C542 C 0.79838 0.70893 0.97391 0.0
C543 C 0.77903 0.69648 0.98471 0.0
C544 C 0.75241 0.71582 0.02065 0.0
H545 H 0.69083 0.68874 0.01916 0.0
H546 H 0.71411 0.68749 0.01187 0.0
H547 H 0.7353 0.72249 0.04655 0.0
H548 H 0.79562 0.72955 0.9732 0.0
H549 H 0.77263 0.72857 0.98475 0.0
H550 H 0.75384 0.69214 0.95654 0.0
C551 C 0.70963 0.69684 0.01368 0.0
C552 C 0.73921 0.71586 0.02668 0.0
C553 C 0.69632 0.69755 0.01803 0.0
C554 C 0.79113 0.72024 0.97636 0.0
C555 C 0.77799 0.71969 0.9832 0.0
C556 C 0.74989 0.6987 0.97653 0.0
C557 C 0.71705 0.70809 0.01221 0.0
C558 C 0.73116 0.70746 0.0073 0.0
C559 C 0.77181 0.70782 0.9876 0.0
C560 C 0.75787 0.70735 0.99522 0.0
H561 H 0.69319 0.7301 0.02157 0.0
H562 H 0.71631 0.72888 0.01345 0.0
H563 H 0.73069 0.69228 0.96683 0.0
H564 H 0.79759 0.68817 0.9763 0.0
H565 H 0.77452 0.68721 0.98822 0.0
C566 C 0.04245 0.94649 0.75357 0.0
C567 C 0.03041 0.94053 0.7565 0.0
C568 C 0.04332 0.95962 0.74635 0.0
C569 C 0.02495 0.98666 0.70832 0.0
H570 H 0.04785 0.00776 0.76626 0.0
C571 C 0.02049 0.04152 0.71364 0.0
C572 C 0.03178 0.04883 0.71464 0.0
C573 C 0.02102 0.02819 0.71632 0.0
C574 C 0.04156 0.00198 0.74945 0.0
H575 H 0.00985 0.94357 0.75406 0.0
H576 H 0.01136 0.96647 0.74157 0.0
H577 H 0.04758 0.98458 0.77532 0.0
H578 H 0.05251 0.04798 0.71875 0.0
H579 H 0.05346 0.02462 0.72304 0.0
H580 H 0.01885 0.00403 0.6826 0.0
C581 C 0.02013 0.961 0.74452 0.0
C582 C 0.0414 0.98871 0.75467 0.0
C583 C 0.01927 0.94791 0.75191 0.0
C584 C 0.04365 0.04257 0.71803 0.0
C585 C 0.04418 0.02921 0.72066 0.0
C586 C 0.02514 -9e-05 0.70301 0.0
C587 C 0.03215 0.96699 0.7417 0.0
C588 C 0.03296 0.98095 0.73451 0.0
C589 C 0.03287 0.02188 0.71996 0.0
C590 C 0.03331 0.00773 0.72388 0.0
H591 H 0.0512 0.94102 0.75694 0.0
H592 H 0.05271 0.96398 0.74406 0.0
H593 H 0.01851 0.98088 0.69195 0.0
H594 H 0.0112 0.0461 0.71116 0.0
H595 H 0.01211 0.02284 0.71627 0.0
C596 C 0.69732 0.27191 0.45913 0.0
C597 C 0.68994 0.28313 0.46183 0.0
C598 C 0.71065 0.27248 0.46151 0.0
C599 C 0.73688 0.29253 0.49674 0.0
H600 H 0.75785 0.27074 0.43507 0.0
C601 C 0.79236 0.29332 0.50074 0.0
C602 C 0.79827 0.28123 0.50173 0.0
C603 C 0.77924 0.29437 0.49345 0.0
C604 C 0.75211 0.27683 0.45259 0.0
H605 H 0.69069 0.30377 0.46876 0.0
H606 H 0.71407 0.30479 0.47262 0.0
H607 H 0.73467 0.27116 0.42645 0.0
H608 H 0.79518 0.26077 0.49562 0.0
H609 H 0.77232 0.26259 0.48304 0.0
H610 H 0.75434 0.29809 0.5231 0.0
C611 C 0.70952 0.29554 0.46907 0.0
C612 C 0.73884 0.27707 0.44769 0.0
C613 C 0.69615 0.29496 0.46671 0.0
C614 C 0.79088 0.27022 0.49499 0.0
C615 C 0.77781 0.27127 0.48754 0.0
C616 C 0.75016 0.29232 0.50158 0.0
C617 C 0.7169 0.2843 0.46658 0.0
C618 C 0.73106 0.28477 0.47008 0.0
C619 C 0.77185 0.28335 0.4868 0.0
C620 C 0.75788 0.28432 0.47991 0.0
H621 H 0.69278 0.26265 0.45547 0.0
H622 H 0.71605 0.26363 0.46007 0.0
H623 H 0.73113 0.29846 0.51469 0.0
H624 H 0.79784 0.30197 0.50579 0.0
H625 H 0.77491 0.30381 0.49277 0.0
C626 C 0.44822 0.9455 0.22719 0.0
C627 C 0.46018 0.93938 0.22445 0.0
C628 C 0.44753 0.9588 0.23168 0.0
C629 C 0.46666 0.98623 0.26373 0.0
H630 H 0.44251 0.00673 0.20827 0.0
C631 C 0.4704 0.04102 0.25769 0.0
C632 C 0.45901 0.04815 0.26011 0.0
C633 C 0.46999 0.02774 0.25355 0.0
C634 C 0.44919 0.00111 0.22428 0.0
H635 H 0.48077 0.94233 0.22374 0.0
H636 H 0.47956 0.9655 0.23136 0.0
H637 H 0.44276 0.98345 0.20063 0.0
H638 H 0.43825 0.04702 0.25979 0.0
H639 H 0.43752 0.0237 0.25284 0.0
H640 H 0.47313 0.00382 0.28733 0.0
C641 C 0.47073 0.96004 0.23052 0.0
C642 C 0.44934 0.9878 0.21989 0.0
C643 C 0.47142 0.94678 0.22594 0.0
C644 C 0.44718 0.04175 0.25796 0.0
C645 C 0.44677 0.02842 0.25382 0.0
C646 C 0.4665 -0.00049 0.26814 0.0
C647 C 0.45879 0.96618 0.23366 0.0
C648 C 0.45818 0.98024 0.23929 0.0
C649 C 0.45818 0.02128 0.25182 0.0
C650 C 0.45787 0.00712 0.24818 0.0
H651 H 0.43941 0.94001 0.22612 0.0
H652 H 0.4382 0.96327 0.23427 0.0
H653 H 0.47341 0.98064 0.27959 0.0
H654 H 0.47967 0.0457 0.25906 0.0
H655 H 0.47895 0.02253 0.25144 0.0
C656 C 0.69854 0.79137 0.51601 0.0
C657 C 0.692 0.77964 0.51873 0.0
C658 C 0.71185 0.7916 0.51138 0.0
C659 C 0.73866 0.77154 0.47954 0.0
H660 H 0.75983 0.79499 0.53548 0.0
C661 C 0.79338 0.76642 0.48489 0.0
C662 C 0.80072 0.77766 0.48215 0.0
C663 C 0.78013 0.7671 0.48962 0.0
C664 C 0.75403 0.7885 0.51937 0.0
H665 H 0.6942 0.75895 0.51904 0.0
H666 H 0.71738 0.75934 0.51118 0.0
H667 H 0.73654 0.79546 0.5428 0.0
H668 H 0.80002 0.79844 0.48274 0.0
H669 H 0.77678 0.79964 0.49072 0.0
H670 H 0.75608 0.76455 0.45612 0.0
C671 C 0.71224 0.76837 0.51217 0.0
C672 C 0.74071 0.78877 0.52355 0.0
C673 C 0.69898 0.76815 0.51687 0.0
C674 C 0.79459 0.78962 0.4848 0.0
C675 C 0.7813 0.7903 0.48953 0.0
C676 C 0.75195 0.77128 0.47534 0.0
C677 C 0.71882 0.78008 0.50925 0.0
C678 C 0.7329 0.78021 0.50391 0.0
C679 C 0.77393 0.77904 0.49165 0.0
C680 C 0.75979 0.77967 0.49544 0.0
H681 H 0.69339 0.80038 0.51734 0.0
H682 H 0.71665 0.80076 0.50892 0.0
H683 H 0.73288 0.765 0.46352 0.0
H684 H 0.79786 0.75706 0.48314 0.0
H685 H 0.77474 0.75825 0.4918 0.0
C686 C 0.4711 0.44764 0.79164 0.0
C687 C 0.46007 0.44006 0.78756 0.0
C688 C 0.47025 0.46099 0.79031 0.0
C689 C 0.4499 0.48678 0.7544 0.0
H690 H 0.47084 0.50827 0.81702 0.0
C691 C 0.44812 0.54201 0.74722 0.0
C692 C 0.46012 0.54811 0.74607 0.0
C693 C 0.44723 0.52901 0.75612 0.0
C694 C 0.46497 0.50238 0.79928 0.0
H695 H 0.43946 0.44043 0.7797 0.0
H696 H 0.43794 0.46379 0.77767 0.0
H697 H 0.47083 0.48507 0.82583 0.0
H698 H 0.48056 0.54553 0.75405 0.0
H699 H 0.47903 0.52284 0.76938 0.0
H700 H 0.44419 0.50407 0.72749 0.0
C701 C 0.44727 0.45941 0.78143 0.0
C702 C 0.46498 0.48911 0.80428 0.0
C703 C 0.44813 0.44606 0.78273 0.0
C704 C 0.47118 0.54107 0.75471 0.0
C705 C 0.4703 0.5281 0.76374 0.0
C706 C 0.44987 0.50005 0.74945 0.0
C707 C 0.45834 0.46701 0.78492 0.0
C708 C 0.45759 0.48116 0.78154 0.0
C709 C 0.45833 0.52191 0.76419 0.0
C710 C 0.45756 0.50797 0.77148 0.0
H711 H 0.48043 0.44327 0.79537 0.0
H712 H 0.47897 0.46657 0.79258 0.0
H713 H 0.44423 0.4809 0.73611 0.0
H714 H 0.43942 0.54723 0.74078 0.0
H715 H 0.43787 0.52451 0.7566 0.0
C716 C 0.69667 0.19897 0.98294 0.0
C717 C 0.69083 0.21105 0.97933 0.0
C718 C 0.70979 0.19803 0.99031 0.0
C719 C 0.73687 0.21636 0.02809 0.0
H720 H 0.75801 0.1931 0.97148 0.0
C721 C 0.79167 0.22083 0.02352 0.0
C722 C 0.79904 0.20956 0.02307 0.0
C723 C 0.77835 0.22022 0.02061 0.0
C724 C 0.75222 0.19949 0.98794 0.0
H725 H 0.69409 0.23159 0.98061 0.0
H726 H 0.71696 0.22994 0.99341 0.0
H727 H 0.73484 0.19342 0.96194 0.0
H728 H 0.79829 0.18882 0.01962 0.0
H729 H 0.77492 0.18775 0.01491 0.0
H730 H 0.75419 0.2225 0.05395 0.0
C731 C 0.7114 0.22121 0.99087 0.0
C732 C 0.73896 0.19968 0.98243 0.0
C733 C 0.69832 0.22215 0.98331 0.0
C734 C 0.79284 0.19766 0.01993 0.0
C735 C 0.77948 0.19705 0.01707 0.0
C736 C 0.7501 0.21613 0.0337 0.0
C737 C 0.71727 0.20915 0.99446 0.0
C738 C 0.73119 0.20827 0.00204 0.0
C739 C 0.7721 0.20834 0.0173 0.0
C740 C 0.75795 0.20784 0.01327 0.0
H741 H 0.69111 0.19025 0.98004 0.0
H742 H 0.71406 0.18861 0.99318 0.0
H743 H 0.73108 0.22291 0.04407 0.0
H744 H 0.7962 0.23015 0.02577 0.0
H745 H 0.77298 0.22911 0.02024 0.0
C746 C 0.04219 0.44796 0.22466 0.0
C747 C 0.03033 0.44157 0.22395 0.0
C748 C 0.04267 0.46132 0.22754 0.0
C749 C 0.0229 0.49034 0.21406 0.0
H750 H 0.0474 0.50624 0.27967 0.0
C751 C 0.01858 0.5429 0.25926 0.0
C752 C 0.02985 0.55026 0.26029 0.0
C753 C 0.01918 0.5297 0.2534 0.0
C754 C 0.04061 0.50194 0.2609 0.0
H755 H 0.0097 0.44409 0.2258 0.0
H756 H 0.01053 0.46734 0.23133 0.0
H757 H 0.04748 0.48299 0.27183 0.0
H758 H 0.05059 0.54962 0.25616 0.0
H759 H 0.05163 0.52647 0.24586 0.0
H760 H 0.01591 0.50927 0.20352 0.0
C761 C 0.01945 0.46209 0.22907 0.0
C762 C 0.04067 0.48864 0.25638 0.0
C763 C 0.01898 0.44876 0.22614 0.0
C764 C 0.04175 0.54416 0.25553 0.0
C765 C 0.04235 0.53093 0.2498 0.0
C766 C 0.02282 0.50362 0.21864 0.0
C767 C 0.0313 0.46852 0.22976 0.0
C768 C 0.03171 0.48269 0.2332 0.0
C769 C 0.03105 0.52358 0.24854 0.0
C770 C 0.03159 0.50954 0.2424 0.0
H771 H 0.0511 0.44265 0.22291 0.0
H772 H 0.05194 0.46601 0.22764 0.0
H773 H 0.01604 0.48607 0.19545 0.0
H774 H 0.00928 0.54734 0.26294 0.0
H775 H 0.01032 0.52426 0.2531 0.0
C776 C 0.2957 0.20111 0.47204 0.0
C777 C 0.30156 0.21308 0.46655 0.0
C778 C 0.28237 0.20018 0.47504 0.0
C779 C 0.25245 0.21773 0.45419 0.0
H780 H 0.23783 0.19626 0.52998 0.0
C781 C 0.20001 0.22229 0.50054 0.0
C782 C 0.19314 0.21094 0.50711 0.0
C783 C 0.21315 0.22188 0.49363 0.0
C784 C 0.24177 0.20216 0.50837 0.0
H785 H 0.29813 0.23345 0.45979 0.0
H786 H 0.27492 0.23187 0.46549 0.0
H787 H 0.26103 0.19675 0.52137 0.0
H788 H 0.19459 0.19026 0.51153 0.0
H789 H 0.21764 0.18954 0.49942 0.0
H790 H 0.23321 0.2233 0.44162 0.0
C791 C 0.28057 0.22317 0.46694 0.0
C792 C 0.25505 0.20244 0.50342 0.0
C793 C 0.29387 0.22409 0.46391 0.0
C794 C 0.19966 0.19915 0.5066 0.0
C795 C 0.21284 0.19875 0.49983 0.0
C796 C 0.23919 0.21747 0.45921 0.0
C797 C 0.27467 0.21121 0.47258 0.0
C798 C 0.26054 0.21034 0.47654 0.0
C799 C 0.21972 0.21011 0.49326 0.0
C800 C 0.23372 0.2098 0.48661 0.0
H801 H 0.30141 0.19246 0.47406 0.0
H802 H 0.2781 0.19081 0.479 0.0
H803 H 0.25638 0.22373 0.4328 0.0
H804 H 0.19524 0.23152 0.50083 0.0
H805 H 0.21823 0.23081 0.48916 0.0
C806 C 0.53911 0.44638 0.24458 0.0
C807 C 0.52704 0.44044 0.24675 0.0
C808 C 0.54008 0.45937 0.23565 0.0
C809 C 0.52222 0.48625 0.19413 0.0
H810 H 0.54389 0.50747 0.25546 0.0
C811 C 0.51643 0.54094 0.20317 0.0
C812 C 0.52751 0.54851 0.20613 0.0
C813 C 0.51728 0.5276 0.20428 0.0
C814 C 0.53796 0.50166 0.23767 0.0
H815 H 0.50656 0.44331 0.24055 0.0
H816 H 0.50824 0.46598 0.22517 0.0
H817 H 0.54381 0.48429 0.26389 0.0
H818 H 0.5482 0.54812 0.21189 0.0
H819 H 0.54972 0.52474 0.21359 0.0
H820 H 0.51621 0.50364 0.16831 0.0
C821 C 0.51696 0.4606 0.23003 0.0
C822 C 0.53792 0.48838 0.24251 0.0
C823 C 0.51599 0.44764 0.23909 0.0
C824 C 0.5395 0.5425 0.20971 0.0
C825 C 0.54036 0.52914 0.21083 0.0
C826 C 0.52228 0.49952 0.18924 0.0
C827 C 0.529 0.46663 0.22856 0.0
C828 C 0.52989 0.48057 0.2212 0.0
C829 C 0.52924 0.52155 0.20834 0.0
C830 C 0.52999 0.50739 0.21137 0.0
H831 H 0.5478 0.44104 0.25026 0.0
H832 H 0.5495 0.46374 0.23438 0.0
H833 H 0.51609 0.48044 0.17691 0.0
H834 H 0.50706 0.54532 0.20043 0.0
H835 H 0.50853 0.52203 0.20286 0.0
C836 C 0.29189 0.76696 0.01923 0.0
C837 C 0.29953 0.77804 0.01938 0.0
C838 C 0.27856 0.76792 0.01736 0.0
C839 C 0.25253 0.78956 0.9893 0.0
H840 H 0.23164 0.76666 0.04782 0.0
C841 C 0.19704 0.79194 0.99102 0.0
C842 C 0.19075 0.78007 0.9883 0.0
C843 C 0.21027 0.79244 -0.00294 0.0
C844 C 0.23735 0.77306 0.03116 0.0
H845 H 0.29926 0.79883 0.01768 0.0
H846 H 0.27591 0.80051 0.01461 0.0
H847 H 0.2549 0.76618 0.0541 0.0
H848 H 0.19329 0.75943 0.98996 0.0
H849 H 0.21633 0.7603 0.00027 0.0
H850 H 0.23495 0.79634 0.96609 0.0
C851 C 0.28024 0.79108 0.01561 0.0
C852 C 0.25067 0.77278 0.03472 0.0
C853 C 0.2936 0.79012 0.01751 0.0
C854 C 0.19788 0.76873 0.99201 0.0
C855 C 0.21106 0.76922 -0.00185 0.0
C856 C 0.23919 0.78985 0.98577 0.0
C857 C 0.27259 0.77998 0.01563 0.0
C858 C 0.25842 0.78089 0.01345 0.0
C859 C 0.21741 0.78107 0.00066 0.0
C860 C 0.23148 0.78147 0.00628 0.0
H861 H 0.2962 0.75752 0.02054 0.0
H862 H 0.27294 0.75918 0.0168 0.0
H863 H 0.25825 0.79584 0.97227 0.0
H864 H 0.19176 0.80084 0.98832 0.0
H865 H 0.2149 0.80171 -0.00084 0.0
C866 C 0.94934 0.44462 0.73273 0.0
C867 C 0.96127 0.43838 0.73155 0.0
C868 C 0.9487 0.45791 0.73747 0.0
C869 C 0.96742 0.4853 0.77187 0.0
H870 H 0.94464 0.50567 0.71153 0.0
C871 C 0.97148 0.54013 0.76388 0.0
C872 C 0.96006 0.54726 0.76355 0.0
C873 C 0.97114 0.52681 0.76068 0.0
C874 C 0.95092 0.50009 0.72891 0.0
H875 H 0.98187 0.44109 0.7343 0.0
H876 H 0.98076 0.46425 0.7424 0.0
H877 H 0.94486 0.48237 0.70492 0.0
H878 H 0.93935 0.54611 0.75953 0.0
H879 H 0.93875 0.52275 0.75427 0.0
H880 H 0.97352 0.50297 0.7958 0.0
C881 C 0.9719 0.45889 0.74007 0.0
C882 C 0.95105 0.48676 0.72511 0.0
C883 C 0.97253 0.44564 0.73521 0.0
C884 C 0.9483 0.54084 0.75979 0.0
C885 C 0.94796 0.52749 0.75661 0.0
C886 C 0.96727 0.4986 0.77571 0.0
C887 C 0.95998 0.46516 0.74127 0.0
C888 C 0.9594 0.47925 0.74632 0.0
C889 C 0.95939 0.52033 0.75716 0.0
C890 C 0.95912 0.50616 0.75403 0.0
H891 H 0.94049 0.43925 0.73 0.0
H892 H 0.93938 0.46248 0.7386 0.0
H893 H 0.97379 0.47973 0.78904 0.0
H894 H 0.98069 0.54483 0.76658 0.0
H895 H 0.98012 0.52159 0.76059 0.0
C896 C 0.14525 0.25122 0.91514 0.0
C897 C 0.14366 0.26414 0.92485 0.0
C898 C 0.14457 0.24748 0.87856 0.0
C899 C 0.14782 0.26081 0.78525 0.0
H900 H 0.1354 0.22717 0.75722 0.0
C901 C 0.14556 0.2424 0.63508 0.0
C902 C 0.15109 0.23025 0.62999 0.0
C903 C 0.14358 0.24719 0.67038 0.0
C904 C 0.13889 0.2366 0.76471 0.0
H905 H 0.13954 0.28319 0.90427 0.0
H906 H 0.13793 0.27661 0.84058 0.0
H907 H 0.13317 0.23426 0.82034 0.0
H908 H 0.15892 0.2136 0.65768 0.0
H909 H 0.15534 0.22189 0.71898 0.0
H910 H 0.15348 0.26308 0.72932 0.0
C911 C 0.14007 0.26941 0.86097 0.0
C912 C 0.13768 0.24065 0.80088 0.0
C913 C 0.1409 0.27317 0.89751 0.0
C914 C 0.15466 0.22302 0.66071 0.0
C915 C 0.15253 0.2277 0.69582 0.0
C916 C 0.14889 0.25681 0.74895 0.0
C917 C 0.14214 0.25655 0.85093 0.0
C918 C 0.14236 0.2527 0.8118 0.0
C919 C 0.14691 0.23979 0.70103 0.0
C920 C 0.14467 0.24457 0.73854 0.0
H921 H 0.14746 0.24407 0.93564 0.0
H922 H 0.1464 0.23753 0.87189 0.0
H923 H 0.15171 0.27008 0.79268 0.0
H924 H 0.1427 0.24817 0.61186 0.0
H925 H 0.13923 0.25655 0.67375 0.0
C926 C -0.00143 0.89499 0.88753 0.0
C927 C 0.01109 0.89949 0.88157 0.0
C928 C 0.99381 0.89377 0.92309 0.0
C929 C 0.00415 0.88981 0.0182 0.0
H930 H 0.97109 0.90442 0.04287 0.0
C931 C 0.98769 0.89691 0.16744 0.0
C932 C 0.97457 0.89575 0.1753 0.0
C933 C 0.99203 0.89624 0.13136 0.0
C934 C 0.98024 0.90007 0.0364 0.0
H935 H 0.02847 0.9062 0.908 0.0
H936 H 0.0202 0.90397 0.96992 0.0
H937 H 0.97867 0.90528 0.98 0.0
H938 H 0.95576 0.89239 0.15197 0.0
H939 H 0.96334 0.89078 0.08929 0.0
H940 H 0.00573 0.88447 0.0744 0.0
C941 C 0.01408 0.90136 0.94719 0.0
C942 C 0.98458 0.90061 0.00036 0.0
C943 C 0.01877 0.90273 0.91174 0.0
C944 C 0.96593 0.89344 0.14665 0.0
C945 C 0.97027 0.89262 0.11068 0.0
C946 C -0.00025 0.88913 0.05419 0.0
C947 C 0.00157 0.89687 0.95325 0.0
C948 C -0.00336 0.89562 0.991 0.0
C949 C 0.98334 0.89425 0.10246 0.0
C950 C 0.9878 0.89437 0.06384 0.0
H951 H 0.99246 0.89241 0.86476 0.0
H952 H 0.98414 0.89024 0.92706 0.0
H953 H 0.01342 0.88574 0.0116 0.0
H954 H 0.99455 0.89875 0.18902 0.0
H955 H 0.00214 0.89771 0.12608 0.0
C956 C 0.34746 0.73423 0.414 0.0
C957 C 0.34703 0.72114 0.42279 0.0
C958 C 0.3487 0.73813 0.37765 0.0
C959 C 0.34331 0.72622 0.28362 0.0
H960 H 0.3611 0.75752 0.25714 0.0
C961 C 0.34738 0.74467 0.13435 0.0
C962 C 0.34382 0.75757 0.13 0.0
C963 C 0.34914 0.73955 0.16934 0.0
C964 C 0.35611 0.74875 0.26419 0.0
H965 H 0.34813 0.70186 0.40081 0.0
H966 H 0.35068 0.70864 0.33761 0.0
H967 H 0.36211 0.74978 0.31994 0.0
H968 H 0.3395 0.77527 0.15864 0.0
H969 H 0.34268 0.76638 0.21941 0.0
H970 H 0.33732 0.72525 0.2277 0.0
C971 C 0.34969 0.71592 0.35852 0.0
C972 C 0.35662 0.74435 0.30017 0.0
C973 C 0.34832 0.71203 0.39477 0.0
C974 C 0.3422 0.76528 0.16113 0.0
C975 C 0.34412 0.76022 0.19593 0.0
C976 C 0.34291 0.73056 0.24754 0.0
C977 C 0.34966 0.72902 0.34939 0.0
C978 C 0.35003 0.73315 0.31051 0.0
C979 C 0.34757 0.74731 0.20042 0.0
C980 C 0.3491 0.742 0.23766 0.0
H981 H 0.34643 0.74145 0.43505 0.0
H982 H 0.34846 0.7483 0.37166 0.0
H983 H 0.33795 0.71768 0.29062 0.0
H984 H 0.34871 0.73853 0.11078 0.0
H985 H 0.35182 0.72956 0.17212 0.0
C986 C 0.49984 0.09652 0.66619 0.0
C987 C 0.51302 0.09757 0.67352 0.0
C988 C 0.49538 0.09678 0.63024 0.0
C989 C 0.50343 0.10606 0.53615 0.0
H990 H 0.48097 0.0779 0.50979 0.0
C991 C 0.48946 0.09502 0.38603 0.0
C992 C 0.47685 0.09083 0.37979 0.0
C993 C 0.49407 0.09636 0.42175 0.0
C994 C 0.48707 0.08595 0.5167 0.0
H995 H 0.53179 0.10035 0.64928 0.0
H996 H 0.52394 0.10096 0.58643 0.0
H997 H 0.48818 0.08012 0.5726 0.0
H998 H 0.45909 0.08504 0.40586 0.0
H999 H 0.46695 0.08769 0.46773 0.0
H1000 H 0.50219 0.112 0.4803 0.0
C1001 C 0.5171 0.09989 0.60846 0.0
C1002 C 0.49121 0.08719 0.55273 0.0
C1003 C 0.52158 0.09948 0.64439 0.0
C1004 C 0.46891 0.08814 0.40979 0.0
C1005 C 0.47345 0.0896 0.44533 0.0
C1006 C 0.49917 0.10489 0.50007 0.0
C1007 C 0.50399 0.09825 0.60101 0.0
C1008 C 0.49941 0.09726 0.56284 0.0
C1009 C 0.48611 0.09362 0.45183 0.0
C1010 C 0.49091 0.09483 0.48994 0.0
H1011 H 0.49302 0.09505 0.68811 0.0
H1012 H 0.4852 0.09564 0.62523 0.0
H1013 H 0.50972 0.11393 0.5433 0.0
H1014 H 0.49578 0.09715 0.36336 0.0
H1015 H 0.50392 0.09934 0.42575 0.0
C1016 C 0.14386 0.74968 0.85752 0.0
C1017 C 0.14906 0.76188 0.8641 0.0
C1018 C 0.14257 0.74513 0.82172 0.0
C1019 C 0.15455 0.75108 0.72768 0.0
H1020 H 0.12474 0.7313 0.69861 0.0
C1021 C 0.14408 0.73999 0.57731 0.0
C1022 C 0.14209 0.72697 0.56938 0.0
C1023 C 0.14379 0.74431 0.61339 0.0
C1024 C 0.13312 0.73679 0.70647 0.0
H1025 H 0.15678 0.77899 0.83855 0.0
H1026 H 0.15423 0.77128 0.77652 0.0
H1027 H 0.12684 0.73849 0.76193 0.0
H1028 H 0.13754 0.70838 0.5926 0.0
H1029 H 0.13687 0.716 0.6557 0.0
H1030 H 0.16072 0.74955 0.67216 0.0
C1031 C 0.15147 0.76501 0.79875 0.0
C1032 C 0.13438 0.74084 0.74272 0.0
C1033 C 0.15286 0.76947 0.83437 0.0
C1034 C 0.13914 0.71847 0.59797 0.0
C1035 C 0.13871 0.72283 0.63402 0.0
C1036 C 0.15322 0.74716 0.69149 0.0
C1037 C 0.14637 0.75276 0.7919 0.0
C1038 C 0.1451 0.74808 0.75372 0.0
C1039 C 0.14137 0.73572 0.64212 0.0
C1040 C 0.14249 0.74002 0.68049 0.0
H1041 H 0.14084 0.74363 0.87998 0.0
H1042 H 0.13874 0.7356 0.81747 0.0
H1043 H 0.16308 0.75636 0.73529 0.0
H1044 H 0.14636 0.74675 0.55582 0.0
H1045 H 0.14573 0.75433 0.61892 0.0
C1046 C 0.49275 0.88969 0.10873 0.0
C1047 C 0.48009 0.89407 0.11279 0.0
C1048 C 0.49785 0.88756 0.07386 0.0
C1049 C 0.48842 0.88129 0.97867 0.0
H1050 H 0.52056 0.89762 0.95288 0.0
C1051 C 0.50281 0.89119 0.8297 0.0
C1052 C 0.51585 0.89103 0.82024 0.0
C1053 C 0.49905 0.88943 0.86598 0.0
C1054 C 0.5117 0.89275 0.95971 0.0
H1055 H 0.46278 0.89948 0.08374 0.0
H1056 H 0.47162 0.89568 0.0232 0.0
H1057 H 0.51307 0.89834 0.01588 0.0
H1058 H 0.53515 0.88829 0.84084 0.0
H1059 H 0.52858 0.88488 0.90398 0.0
H1060 H 0.48695 0.87576 0.9226 0.0
C1061 C 0.4776 0.89386 0.04682 0.0
C1062 C 0.50741 0.89321 -0.00417 0.0
C1063 C 0.47259 0.89614 0.08149 0.0
C1064 C 0.52502 0.88856 0.84742 0.0
C1065 C 0.52126 0.88669 0.88364 0.0
C1066 C 0.49275 0.88073 0.94263 0.0
C1067 C 0.49028 0.88959 0.04261 0.0
C1068 C 0.49559 0.88774 0.00546 0.0
C1069 C 0.50824 0.88737 0.89351 0.0
C1070 C 0.50431 0.88671 0.93251 0.0
H1071 H 0.49873 0.888 0.13243 0.0
H1072 H 0.50765 0.88425 0.07131 0.0
H1073 H 0.47934 0.87684 0.98552 0.0
H1074 H 0.49553 0.89313 0.80933 0.0
H1075 H 0.48895 0.89019 0.87258 0.0
C1076 C 0.35236 0.25341 0.07695 0.0
C1077 C 0.35288 0.2663 0.0661 0.0
C1078 C 0.35488 0.25001 0.11313 0.0
C1079 C 0.35382 0.26404 0.20534 0.0
H1080 H 0.36746 0.23082 0.23272 0.0
C1081 C 0.35478 0.24538 0.35497 0.0
C1082 C 0.34909 0.23324 0.35864 0.0
C1083 C 0.35772 0.25021 0.32027 0.0
C1084 C 0.36369 0.24016 0.22545 0.0
H1085 H 0.35725 0.28565 0.08384 0.0
H1086 H 0.36198 0.27969 0.14679 0.0
H1087 H 0.36883 0.23786 0.1693 0.0
H1088 H 0.34223 0.21654 0.32915 0.0
H1089 H 0.34745 0.22489 0.26899 0.0
H1090 H 0.3485 0.2662 0.26152 0.0
C1091 C 0.35929 0.27223 0.12767 0.0
C1092 C 0.36442 0.24417 0.18914 0.0
C1093 C 0.35666 0.27564 0.09156 0.0
C1094 C 0.34656 0.22595 0.32719 0.0
C1095 C 0.34966 0.23068 0.29274 0.0
C1096 C 0.35321 0.26007 0.24173 0.0
C1097 C 0.3581 0.25942 0.13913 0.0
C1098 C 0.35913 0.25599 0.17843 0.0
C1099 C 0.35523 0.24285 0.28889 0.0
C1100 C 0.35778 0.24793 0.25187 0.0
H1101 H 0.34944 0.24601 0.05791 0.0
H1102 H 0.35371 0.24007 0.12101 0.0
H1103 H 0.34951 0.27314 0.19807 0.0
H1104 H 0.35684 0.25117 0.37881 0.0
H1105 H 0.362 0.25964 0.31795 0.0
C1106 C 0.02125 0.09408 0.57657 0.0
C1107 C 0.01388 0.09676 0.60774 0.0
C1108 C 0.01658 0.09689 0.54183 0.0
C1109 C 0.98688 0.10041 0.4909 0.0
H1110 H 0.00903 0.11505 0.41667 0.0
C1111 C 0.96952 0.10574 0.34279 0.0
C1112 C 0.97825 0.10187 0.31575 0.0
C1113 C 0.97361 0.10769 0.37867 0.0
C1114 C 0.00274 0.11089 0.43701 0.0
H1115 H -0.00415 0.10455 0.6271 0.0
H1116 H 0.98752 0.10929 0.56592 0.0
H1117 H 0.01658 0.11351 0.47961 0.0
H1118 H -0.00182 0.09747 0.30462 0.0
H1119 H 0.0053 0.10055 0.36738 0.0
H1120 H 0.97326 0.09725 0.4483 0.0
C1121 C -0.00304 0.10505 0.56858 0.0
C1122 C 0.00705 0.11005 0.47305 0.0
C1123 C 0.00172 0.10236 0.60351 0.0
C1124 C 0.99125 0.10049 0.3249 0.0
C1125 C -0.00467 0.10233 0.36088 0.0
C1126 C 0.98261 0.10115 0.45482 0.0
C1127 C 0.00436 0.10234 0.53742 0.0
C1128 C -0.00074 0.10459 0.5002 0.0
C1129 C 0.98651 0.10569 0.38838 0.0
C1130 C 0.99057 0.10618 0.42729 0.0
H1131 H 0.03068 0.0898 0.57896 0.0
H1132 H 0.02242 0.09452 0.51831 0.0
H1133 H 0.98073 0.09602 0.51119 0.0
H1134 H 0.95945 0.10699 0.33643 0.0
H1135 H 0.96661 0.11053 0.39896 0.0
C1136 C 0.84997 0.71564 0.09032 0.0
C1137 C 0.84679 0.72434 0.06244 0.0
C1138 C 0.8505 0.7197 0.12667 0.0
C1139 C 0.83576 0.74312 0.1863 0.0
H1140 H 0.86309 0.73533 0.25461 0.0
C1141 C 0.83685 0.76567 0.32862 0.0
C1142 C 0.84134 0.75838 0.3582 0.0
C1143 C 0.83795 0.76109 0.29305 0.0
C1144 C 0.85528 0.7374 0.23603 0.0
H1145 H 0.84216 0.74416 0.0504 0.0
H1146 H 0.84292 0.7512 0.114 0.0
H1147 H 0.86486 0.72833 0.19101 0.0
H1148 H 0.85044 0.74054 0.37386 0.0
H1149 H 0.85203 0.73227 0.31143 0.0
H1150 H 0.82596 0.75185 0.23097 0.0
C1151 C 0.84499 0.74127 0.10769 0.0
C1152 C 0.85636 0.73347 0.19961 0.0
C1153 C 0.84463 0.73725 0.07134 0.0
C1154 C 0.8469 0.74635 0.35151 0.0
C1155 C 0.84789 0.74167 0.31576 0.0
C1156 C 0.83461 0.74689 0.22266 0.0
C1157 C 0.84768 0.73247 0.13572 0.0
C1158 C 0.84667 0.73645 0.17438 0.0
C1159 C 0.84342 0.74901 0.28609 0.0
C1160 C 0.84443 0.74425 0.24791 0.0
H1161 H 0.8517 0.70563 0.08419 0.0
H1162 H 0.85255 0.71273 0.14782 0.0
H1163 H 0.82803 0.74529 0.16754 0.0
H1164 H 0.83264 0.77505 0.33285 0.0
H1165 H 0.83468 0.76715 0.27093 0.0
C1166 C 0.97358 0.08502 0.08146 0.0
C1167 C 0.98113 0.08935 0.11071 0.0
C1168 C 0.97803 0.08591 0.04567 0.0
C1169 C 0.00201 0.1027 0.98817 0.0
H1170 H 0.99318 0.07597 0.9189 0.0
C1171 C 0.02419 0.09773 0.84361 0.0
C1172 C 0.01567 0.09494 0.81496 0.0
C1173 C 0.01989 0.09793 0.87972 0.0
C1174 C -0.00439 0.08357 0.93788 0.0
H1175 H -0.00064 0.09785 0.12557 0.0
H1176 H 0.00738 0.09905 0.06291 0.0
H1177 H 0.98649 0.07395 0.98231 0.0
H1178 H -0.00408 0.09052 0.80141 0.0
H1179 H 0.98843 0.09071 0.86471 0.0
H1180 H 0.01144 0.1121 0.94353 0.0
C1181 C -0.00213 0.09523 0.06759 0.0
C1182 C 0.99176 0.08244 0.97423 0.0
C1183 C 0.99333 0.09445 0.1035 0.0
C1184 C 0.00269 0.09271 0.82296 0.0
C1185 C -0.00157 0.09274 0.85914 0.0
C1186 C 0.00599 0.10375 0.95183 0.0
C1187 C 0.99023 0.09102 0.0382 0.0
C1188 C 0.99482 0.09203 -0.00018 0.0
C1189 C 0.00703 0.09518 0.88787 0.0
C1190 C 0.00274 0.09423 0.92631 0.0
H1191 H 0.96407 0.08115 0.08611 0.0
H1192 H 0.97177 0.08282 0.0238 0.0
H1193 H 0.00437 0.11037 0.00694 0.0
H1194 H 0.03425 0.09951 0.8382 0.0
H1195 H 0.02673 0.09977 0.90137 0.0
C1196 C 0.64447 0.25165 0.56456 0.0
C1197 C 0.64314 0.26489 0.55874 0.0
C1198 C 0.64406 0.24666 0.59999 0.0
C1199 C 0.63376 0.25349 0.69418 0.0
H1200 H 0.66236 0.23178 0.72159 0.0
C1201 C 0.64482 0.24115 0.84479 0.0
C1202 C 0.64939 0.22877 0.85239 0.0
C1203 C 0.64346 0.24527 0.80865 0.0
C1204 C 0.65418 0.23765 0.71435 0.0
H1205 H 0.63976 0.28322 0.58501 0.0
H1206 H 0.63888 0.27448 0.64673 0.0
H1207 H 0.66024 0.23893 0.65863 0.0
H1208 H 0.65594 0.21094 0.82827 0.0
H1209 H 0.65326 0.21797 0.7655 0.0
H1210 H 0.62762 0.25215 0.74979 0.0
C1211 C 0.64028 0.26797 0.62403 0.0
C1212 C 0.65299 0.24175 0.67823 0.0
C1213 C 0.64085 0.27297 0.58873 0.0
C1214 C 0.65251 0.22059 0.82326 0.0
C1215 C 0.65103 0.22465 0.78723 0.0
C1216 C 0.63487 0.24928 0.73028 0.0
C1217 C 0.64214 0.25481 0.63008 0.0
C1218 C 0.64283 0.24978 0.66785 0.0
C1219 C 0.64653 0.23706 0.7794 0.0
C1220 C 0.64516 0.24138 0.74088 0.0
H1221 H 0.64625 0.2452 0.54192 0.0
H1222 H 0.64542 0.23645 0.60392 0.0
H1223 H 0.62578 0.25961 0.6868 0.0
H1224 H 0.64236 0.24766 0.86675 0.0
H1225 H 0.64015 0.25496 0.80367 0.0
C1226 C 0.4883 0.89287 0.32941 0.0
C1227 C 0.4753 0.89167 0.32013 0.0
C1228 C 0.49217 0.89211 0.36588 0.0
C1229 C 0.47928 0.89592 0.45953 0.0
H1230 H 0.51258 0.88247 0.48686 0.0
C1231 C 0.49788 0.89352 0.6093 0.0
C1232 C 0.51023 0.89865 0.61412 0.0
C1233 C 0.49301 0.89153 0.57412 0.0
C1234 C 0.50325 0.88626 0.47957 0.0
H1235 H 0.45621 0.88816 0.34136 0.0
H1236 H 0.46299 0.88642 0.40484 0.0
H1237 H 0.50524 0.88039 0.42392 0.0
H1238 H 0.52715 0.9057 0.58605 0.0
H1239 H 0.5187 0.9021 0.52493 0.0
H1240 H 0.47736 0.90173 0.51543 0.0
C1241 C 0.47018 0.88831 0.3842 0.0
C1242 C 0.49906 0.88513 0.4435 0.0
C1243 C 0.4663 0.88922 0.34779 0.0
C1244 C 0.51758 0.90176 0.58323 0.0
C1245 C 0.5128 0.89961 0.54822 0.0
C1246 C 0.48343 0.89691 0.49571 0.0
C1247 C 0.48313 0.88999 0.39381 0.0
C1248 C 0.48713 0.89017 0.43284 0.0
C1249 C 0.5005 0.89445 0.54329 0.0
C1250 C 0.49555 0.89231 0.50588 0.0
H1251 H 0.49544 0.89483 0.30865 0.0
H1252 H 0.5022 0.89363 0.37222 0.0
H1253 H 0.47012 0.90009 0.45228 0.0
H1254 H 0.49202 0.89103 0.63267 0.0
H1255 H 0.48348 0.88752 0.57098 0.0
C1256 C 0.84337 0.22107 0.16209 0.0
C1257 C 0.84568 0.22857 0.13093 0.0
C1258 C 0.84586 0.22592 0.19684 0.0
C1259 C 0.84767 0.25575 0.24776 0.0
H1260 H 0.86355 0.23449 0.322 0.0
C1261 C 0.85235 0.27345 0.39576 0.0
C1262 C 0.84904 0.26455 0.42294 0.0
C1263 C 0.85436 0.26945 0.35984 0.0
C1264 C 0.85904 0.24052 0.30166 0.0
H1265 H 0.85247 0.247 0.11158 0.0
H1266 H 0.85665 0.25561 0.17279 0.0
H1267 H 0.86244 0.22686 0.25907 0.0
H1268 H 0.84569 0.24443 0.43425 0.0
H1269 H 0.84888 0.23745 0.37139 0.0
H1270 H 0.84375 0.26918 0.29036 0.0
C1271 C 0.85295 0.24595 0.17011 0.0
C1272 C 0.85844 0.23617 0.26563 0.0
C1273 C 0.85058 0.24103 0.13518 0.0
C1274 C 0.84826 0.2515 0.41385 0.0
C1275 C 0.85017 0.2475 0.37783 0.0
C1276 C 0.84817 0.26007 0.28384 0.0
C1277 C 0.85061 0.23842 0.20126 0.0
C1278 C 0.85255 0.24364 0.23847 0.0
C1279 C 0.853 0.25647 0.35024 0.0
C1280 C 0.85365 0.25241 0.31136 0.0
H1281 H 0.83963 0.21142 0.15969 0.0
H1282 H 0.84379 0.21996 0.22035 0.0
H1283 H 0.84295 0.26165 0.22747 0.0
H1284 H 0.85313 0.28357 0.40209 0.0
H1285 H 0.85678 0.27658 0.33947 0.0
C1286 C 0.48707 0.09777 0.16371 0.0
C1287 C 0.47398 0.09826 0.17244 0.0
C1288 C 0.49112 0.09951 0.12767 0.0
C1289 C 0.47884 0.09684 0.0333 0.0
H1290 H 0.51175 0.11187 0.00888 0.0
C1291 C 0.49784 0.10035 0.88478 0.0
C1292 C 0.51036 0.09564 0.8803 0.0
C1293 C 0.49288 0.1024 0.91982 0.0
C1294 C 0.50253 0.10766 0.01535 0.0
H1295 H 0.45491 0.10162 0.15089 0.0
H1296 H 0.46198 0.10504 0.08826 0.0
H1297 H 0.50401 0.11282 0.07172 0.0
H1298 H 0.52758 0.0896 0.90875 0.0
H1299 H 0.51897 0.09325 0.96965 0.0
H1300 H 0.47743 0.09163 0.97687 0.0
C1301 C 0.46911 0.10294 0.10892 0.0
C1302 C 0.49812 0.10815 0.05134 0.0
C1303 C 0.46506 0.10107 0.14484 0.0
C1304 C 0.51788 0.0932 0.91135 0.0
C1305 C 0.513 0.09539 0.94622 0.0
C1306 C 0.4832 0.09646 -0.00273 0.0
C1307 C 0.48216 0.1019 0.09971 0.0
C1308 C 0.48633 0.10252 0.06091 0.0
C1309 C 0.50044 0.09995 0.95084 0.0
C1310 C 0.4952 0.10163 0.98811 0.0
H1311 H 0.49414 0.09558 0.18446 0.0
H1312 H 0.50123 0.09847 0.12157 0.0
H1313 H 0.46981 0.09222 0.0397 0.0
H1314 H 0.49185 0.10234 0.86128 0.0
H1315 H 0.48317 0.10596 0.92269 0.0
C1316 C 0.64037 0.71745 0.9001 0.0
C1317 C 0.64216 0.72603 0.92926 0.0
C1318 C 0.63975 0.72195 0.86422 0.0
C1319 C 0.65176 0.74818 0.80866 0.0
H1320 H 0.62716 0.73675 0.73621 0.0
C1321 C 0.65042 0.77066 0.66617 0.0
C1322 C 0.64804 0.76268 0.63605 0.0
C1323 C 0.64891 0.76606 0.70162 0.0
C1324 C 0.6342 0.7399 0.756 0.0
H1325 H 0.64421 0.74607 0.94396 0.0
H1326 H 0.64324 0.75393 0.88118 0.0
H1327 H 0.62545 0.72906 0.79914 0.0
H1328 H 0.64213 0.74365 0.61927 0.0
H1329 H 0.63985 0.73542 0.68154 0.0
H1330 H 0.66078 0.7587 0.76583 0.0
C1331 C 0.64236 0.74372 0.88612 0.0
C1332 C 0.63317 0.73555 0.79203 0.0
C1333 C 0.64285 0.73923 0.92202 0.0
C1334 C 0.64403 0.75 0.64205 0.0
C1335 C 0.64264 0.74533 0.6777 0.0
C1336 C 0.65288 0.75241 0.7727 0.0
C1337 C 0.64105 0.7351 0.85685 0.0
C1338 C 0.6419 0.73974 0.81872 0.0
C1339 C 0.64515 0.75331 0.70791 0.0
C1340 C 0.64406 0.74842 0.74594 0.0
H1341 H 0.63979 0.70721 0.90492 0.0
H1342 H 0.6388 0.7151 0.84215 0.0
H1343 H 0.65879 0.75134 0.82852 0.0
H1344 H 0.65337 0.78053 0.6624 0.0
H1345 H 0.65062 0.77258 0.72413 0.0
C1346 C 0.98834 0.89243 0.39008 0.0
C1347 C 0.97542 0.89557 0.38388 0.0
C1348 C 0.99284 0.89059 0.42574 0.0
C1349 C 0.98442 0.89873 0.52126 0.0
H1350 H 0.01037 0.87353 0.54578 0.0
C1351 C -0.0003 0.89035 0.66973 0.0
C1352 C 0.01298 0.89072 0.67587 0.0
C1353 C 0.99489 0.88922 0.63427 0.0
C1354 C 0.00313 0.88062 0.53924 0.0
H1355 H 0.95698 0.89867 0.40978 0.0
H1356 H 0.96468 0.89513 0.47149 0.0
H1357 H 0.00246 0.87497 0.48301 0.0
H1358 H 0.03166 0.88951 0.65003 0.0
H1359 H 0.02325 0.8875 0.5881 0.0
H1360 H 0.98506 0.90438 0.57732 0.0
C1361 C 0.97147 0.89447 0.44918 0.0
C1362 C -0.00136 0.88149 0.5033 0.0
C1363 C 0.96703 0.89644 0.41375 0.0
C1364 C 0.02137 0.88929 0.6461 0.0
C1365 C 0.01656 0.88807 0.61066 0.0
C1366 C 0.98881 0.89778 0.5571 0.0
C1367 C 0.98447 0.89175 0.45575 0.0
C1368 C 0.98924 0.89059 0.49388 0.0
C1369 C 0.00328 0.88836 0.60431 0.0
C1370 C -0.00176 0.88876 0.56649 0.0
H1371 H -0.005 0.89169 0.3675 0.0
H1372 H 0.00293 0.88861 0.42982 0.0
H1373 H 0.9774 0.90605 0.51491 0.0
H1374 H 0.99301 0.8914 0.69217 0.0
H1375 H 0.9846 0.8893 0.63019 0.0
C1376 C 0.63979 0.77418 0.40055 0.0
C1377 C 0.64235 0.7653 0.42841 0.0
C1378 C 0.63819 0.77008 0.36455 0.0
C1379 C 0.63336 0.74101 0.30696 0.0
H1380 H 0.65019 0.7617 0.2331 0.0
C1381 C 0.64845 0.72135 0.16685 0.0
C1382 C 0.64591 0.72889 0.13591 0.0
C1383 C 0.64637 0.72621 0.20181 0.0
C1384 C 0.64529 0.75592 0.25333 0.0
H1385 H 0.6449 0.74515 0.44081 0.0
H1386 H 0.6425 0.73798 0.37782 0.0
H1387 H 0.64935 0.76931 0.29592 0.0
H1388 H 0.63922 0.74744 0.11721 0.0
H1389 H 0.6358 0.75607 0.17876 0.0
H1390 H 0.62981 0.72739 0.26434 0.0
C1391 C 0.64144 0.7481 0.38374 0.0
C1392 C 0.64476 0.76028 0.28936 0.0
C1393 C 0.64288 0.7522 0.41985 0.0
C1394 C 0.64128 0.74143 0.14061 0.0
C1395 C 0.63934 0.74637 0.17574 0.0
C1396 C 0.63401 0.7366 0.27099 0.0
C1397 C 0.63929 0.75702 0.35554 0.0
C1398 C 0.63893 0.7528 0.31674 0.0
C1399 C 0.64183 0.73876 0.20663 0.0
C1400 C 0.64013 0.74394 0.24396 0.0
H1401 H 0.63921 0.78434 0.40645 0.0
H1402 H 0.63627 0.77719 0.34371 0.0
H1403 H 0.62858 0.73512 0.32715 0.0
H1404 H 0.65199 0.71163 0.16408 0.0
H1405 H 0.64853 0.7202 0.22515 0.0
C1406 C 0.46866 0.39062 0.65409 0.0
C1407 C 0.47683 0.39527 0.68155 0.0
C1408 C 0.47244 0.39092 0.61754 0.0
C1409 C 0.49243 0.4093 0.55575 0.0
H1410 H 0.48858 0.38055 0.48947 0.0
C1411 C 0.513 0.41035 0.41032 0.0
C1412 C 0.50644 0.40392 0.38229 0.0
C1413 C 0.50891 0.40936 0.44643 0.0
C1414 C 0.48951 0.38875 0.50744 0.0
H1415 H 0.4955 0.40356 0.6926 0.0
H1416 H 0.50206 0.40427 0.62843 0.0
H1417 H 0.48288 0.37805 0.55375 0.0
H1418 H 0.49019 0.39173 0.36985 0.0
H1419 H 0.48272 0.39031 0.43302 0.0
H1420 H 0.49871 0.42015 0.50966 0.0
C1421 C 0.49274 0.40037 0.63531 0.0
C1422 C 0.48634 0.38726 0.54428 0.0
C1423 C 0.48902 0.39989 0.67196 0.0
C1424 C 0.49544 0.39677 0.39095 0.0
C1425 C 0.49125 0.39587 0.42717 0.0
C1426 C 0.49544 0.41084 0.51889 0.0
C1427 C 0.4844 0.39606 0.60775 0.0
C1428 C 0.48787 0.3975 0.5688 0.0
C1429 C 0.49804 0.40203 0.45543 0.0
C1430 C 0.49414 0.40056 0.49428 0.0
H1431 H 0.45921 0.38699 0.66077 0.0
H1432 H 0.46582 0.38759 0.5968 0.0
H1433 H 0.49346 0.41742 0.57399 0.0
H1434 H 0.52157 0.41587 0.40456 0.0
H1435 H 0.51452 0.41406 0.4674 0.0
C1436 C 0.84259 0.24857 0.63521 0.0
C1437 C 0.83792 0.26098 0.62871 0.0
C1438 C 0.84357 0.2439 0.67096 0.0
C1439 C 0.83195 0.25025 0.76536 0.0
H1440 H 0.86107 0.22935 0.79352 0.0
C1441 C 0.84322 0.23886 0.91559 0.0
C1442 C 0.84496 0.2258 0.92347 0.0
C1443 C 0.84311 0.24311 0.87942 0.0
C1444 C 0.85287 0.23514 0.78593 0.0
H1445 H 0.83072 0.27829 0.65436 0.0
H1446 H 0.83275 0.27037 0.71633 0.0
H1447 H 0.85902 0.2366 0.73033 0.0
H1448 H 0.84851 0.20704 0.89999 0.0
H1449 H 0.84853 0.21454 0.83677 0.0
H1450 H 0.82596 0.24899 0.82113 0.0
C1451 C 0.83534 0.26404 0.69407 0.0
C1452 C 0.85164 0.23923 0.74972 0.0
C1453 C 0.83424 0.26863 0.65847 0.0
C1454 C 0.84713 0.21716 0.89467 0.0
C1455 C 0.84719 0.22145 0.85853 0.0
C1456 C 0.83327 0.2463 0.80155 0.0
C1457 C 0.84 0.25162 0.70084 0.0
C1458 C 0.84117 0.24688 0.73902 0.0
C1459 C 0.84491 0.23441 0.85055 0.0
C1460 C 0.84375 0.23874 0.8122 0.0
H1461 H 0.84548 0.24247 0.61273 0.0
H1462 H 0.84704 0.23423 0.67512 0.0
H1463 H 0.82361 0.25587 0.75801 0.0
H1464 H 0.84152 0.24572 0.93726 0.0
H1465 H 0.84146 0.25319 0.87396 0.0
C1466 C -0.00079 0.59787 0.16717 0.0
C1467 C 0.01245 0.59884 0.1735 0.0
C1468 C 0.99438 0.59853 0.13164 0.0
C1469 C 0.00171 0.60841 0.03732 0.0
H1470 H 0.97934 0.58018 0.01101 0.0
C1471 C 0.98854 0.5966 0.8872 0.0
C1472 C 0.97608 0.5921 0.88044 0.0
C1473 C 0.99283 0.59835 0.92309 0.0
C1474 C 0.98539 0.58826 0.01792 0.0
H1475 H 0.03097 0.60195 0.14799 0.0
H1476 H 0.0225 0.60322 0.08594 0.0
H1477 H 0.98661 0.58237 0.07373 0.0
H1478 H 0.95819 0.58627 0.90572 0.0
H1479 H 0.96548 0.58963 0.96791 0.0
H1480 H 0.00043 0.61435 0.98147 0.0
C1481 C 0.01587 0.60192 0.1084 0.0
C1482 C 0.98957 0.5895 0.05392 0.0
C1483 C 0.02071 0.60113 0.14388 0.0
C1484 C 0.96792 0.5896 0.91008 0.0
C1485 C 0.97213 0.59147 0.94579 0.0
C1486 C -0.00258 0.60725 0.00127 0.0
C1487 C 0.0027 0.60031 0.10186 0.0
C1488 C -0.0022 0.59954 0.06397 0.0
C1489 C 0.98468 0.59572 0.95284 0.0
C1490 C 0.98923 0.59713 0.99112 0.0
H1491 H 0.99262 0.59613 0.1895 0.0
H1492 H 0.98416 0.5974 0.12735 0.0
H1493 H 0.00802 0.61628 0.04442 0.0
H1494 H -0.00497 0.59861 0.8648 0.0
H1495 H 0.0026 0.6015 0.9275 0.0
C1496 C 0.6451 0.27608 0.3215 0.0
C1497 C 0.64341 0.26754 0.35074 0.0
C1498 C 0.64336 0.27199 0.2856 0.0
C1499 C 0.62969 0.24579 0.22887 0.0
H1500 H 0.65436 0.2582 0.15793 0.0
C1501 C 0.63877 0.2221 0.08846 0.0
C1502 C 0.64109 0.23018 0.05849 0.0
C1503 C 0.63724 0.22721 0.12343 0.0
C1504 C 0.64727 0.2548 0.17726 0.0
H1505 H 0.63833 0.24808 0.3655 0.0
H1506 H 0.63563 0.24076 0.30251 0.0
H1507 H 0.6554 0.26583 0.22054 0.0
H1508 H 0.64311 0.24996 0.04125 0.0
H1509 H 0.64047 0.25892 0.1025 0.0
H1510 H 0.62186 0.23443 0.18544 0.0
C1511 C 0.63807 0.25071 0.30736 0.0
C1512 C 0.64785 0.25918 0.21321 0.0
C1513 C 0.6397 0.25486 0.34343 0.0
C1514 C 0.64136 0.2435 0.06389 0.0
C1515 C 0.63992 0.24862 0.09893 0.0
C1516 C 0.62917 0.24133 0.19287 0.0
C1517 C 0.64003 0.2592 0.27799 0.0
C1518 C 0.6391 0.2547 0.23954 0.0
C1519 C 0.63808 0.2405 0.12914 0.0
C1520 C 0.638 0.24577 0.16675 0.0
H1521 H 0.64781 0.28597 0.32631 0.0
H1522 H 0.64466 0.27887 0.26377 0.0
H1523 H 0.62268 0.24229 0.2483 0.0
H1524 H 0.63849 0.21178 0.08509 0.0
H1525 H 0.63593 0.22071 0.14621 0.0
C1526 C 0.97318 0.39731 0.58391 0.0
C1527 C 0.98078 0.39495 0.61486 0.0
C1528 C 0.97816 0.39555 0.54896 0.0
C1529 C 0.00777 0.39586 0.49718 0.0
H1530 H 0.98763 0.37817 0.42369 0.0
C1531 C 0.02566 0.39115 0.34895 0.0
C1532 C 0.0165 0.39309 0.32137 0.0
C1533 C 0.02184 0.38959 0.38523 0.0
C1534 C 0.99333 0.38324 0.44377 0.0
H1535 H -0.00045 0.38893 0.6336 0.0
H1536 H 0.0084 0.38609 0.57198 0.0
H1537 H 0.98005 0.37892 0.48667 0.0
H1538 H -0.00382 0.39468 0.30989 0.0
H1539 H 0.9895 0.39234 0.37329 0.0
H1540 H 0.02079 0.40067 0.45425 0.0
C1541 C -0.00145 0.38923 0.57503 0.0
C1542 C 0.98901 0.3836 0.47985 0.0
C1543 C 0.9935 0.39083 0.61018 0.0
C1544 C 0.00344 0.39315 0.33059 0.0
C1545 C -0.00037 0.39172 0.36694 0.0
C1546 C 0.01203 0.39561 0.46101 0.0
C1547 C 0.99088 0.39151 0.54413 0.0
C1548 C -0.0039 0.39008 0.50677 0.0
C1549 C 0.00879 0.39008 0.39479 0.0
C1550 C 0.00477 0.38946 0.43373 0.0
H1551 H 0.96333 0.40046 0.58666 0.0
H1552 H 0.97209 0.39754 0.52562 0.0
H1553 H 0.01335 0.40102 0.51736 0.0
H1554 H 0.0358 0.39096 0.34256 0.0
H1555 H 0.02915 0.3881 0.40581 0.0
C1556 C 0.84986 0.74014 0.85235 0.0
C1557 C 0.84372 0.72824 0.85653 0.0
C1558 C 0.85263 0.74486 0.81744 0.0
C1559 C 0.85779 0.73445 0.72285 0.0
H1560 H 0.84615 0.76843 0.69571 0.0
C1561 C 0.85024 0.7495 0.57343 0.0
C1562 C 0.8518 0.76242 0.56374 0.0
C1563 C 0.85168 0.74565 0.60973 0.0
C1564 C 0.84974 0.75903 0.70292 0.0
H1565 H 0.83572 0.71192 0.82765 0.0
H1566 H 0.84064 0.7201 0.76699 0.0
H1567 H 0.84408 0.76132 0.7588 0.0
H1568 H 0.85686 0.78132 0.58378 0.0
H1569 H 0.85978 0.77454 0.64694 0.0
H1570 H 0.86341 0.73208 0.66711 0.0
C1571 C 0.84334 0.72577 0.79058 0.0
C1572 C 0.8485 0.75495 0.73909 0.0
C1573 C 0.84043 0.72115 0.8253 0.0
C1574 C 0.85549 0.7713 0.59059 0.0
C1575 C 0.85707 0.76743 0.62681 0.0
C1576 C 0.85917 0.73857 0.68678 0.0
C1577 C 0.84949 0.73765 0.78628 0.0
C1578 C 0.85223 0.74252 0.74916 0.0
C1579 C 0.85484 0.75462 0.63702 0.0
C1580 C 0.85487 0.75079 0.67615 0.0
H1581 H 0.85253 0.74579 0.876 0.0
H1582 H 0.85738 0.75406 0.81479 0.0
H1583 H 0.86091 0.72488 0.73009 0.0
H1584 H 0.84735 0.74246 0.5533 0.0
H1585 H 0.84973 0.73574 0.61657 0.0
C1586 C 0.49576 0.60281 0.10213 0.0
C1587 C 0.5081 0.59756 0.10576 0.0
C1588 C 0.49094 0.60588 0.06752 0.0
C1589 C 0.50098 0.6125 0.97266 0.0
H1590 H 0.46822 0.59779 0.94542 0.0
C1591 C 0.48757 0.60097 0.82421 0.0
C1592 C 0.47465 0.60141 0.8136 0.0
C1593 C 0.49105 0.60354 0.86031 0.0
C1594 C 0.47725 0.60224 0.95266 0.0
H1595 H 0.52518 0.59169 0.0763 0.0
H1596 H 0.51683 0.59708 0.0163 0.0
H1597 H 0.47525 0.5968 0.00876 0.0
H1598 H 0.45532 0.60569 0.83171 0.0
H1599 H 0.46141 0.61047 0.89453 0.0
H1600 H 0.50314 0.6177 0.91649 0.0
C1601 C 0.51088 0.59888 0.04001 0.0
C1602 C 0.48127 0.60165 0.989 0.0
C1603 C 0.51561 0.59567 0.07438 0.0
C1604 C 0.46536 0.60516 0.83922 0.0
C1605 C 0.46884 0.60783 0.87526 0.0
C1606 C 0.49692 0.61318 0.93638 0.0
C1607 C 0.49848 0.60394 0.03615 0.0
C1608 C 0.49334 0.60643 -0.00088 0.0
C1609 C 0.48168 0.60671 0.88648 0.0
C1610 C 0.48518 0.60772 0.92573 0.0
H1611 H 0.4898 0.60438 0.12593 0.0
H1612 H 0.48135 0.60978 0.06524 0.0
H1613 H 0.51026 0.61644 0.97988 0.0
H1614 H 0.49494 0.59807 0.80505 0.0
H1615 H 0.50101 0.60243 0.86804 0.0
C1616 C 0.34382 0.24169 0.57508 0.0
C1617 C 0.34791 0.22935 0.56509 0.0
C1618 C 0.34337 0.24525 0.61182 0.0
C1619 C 0.35554 0.23816 0.70323 0.0
H1620 H 0.3227 0.25136 0.73573 0.0
C1621 C 0.34506 0.2485 0.85576 0.0
C1622 C 0.33805 0.25969 0.86322 0.0
C1623 C 0.34622 0.24403 0.81985 0.0
C1624 C 0.33199 0.24785 0.72711 0.0
H1625 H 0.35539 0.2113 0.58534 0.0
H1626 H 0.35487 0.21765 0.64963 0.0
H1627 H 0.32576 0.2459 0.67172 0.0
H1628 H 0.32669 0.27493 0.83914 0.0
H1629 H 0.32897 0.2674 0.77691 0.0
H1630 H 0.36192 0.24045 0.75839 0.0
C1631 C 0.35191 0.2245 0.62904 0.0
C1632 C 0.33372 0.24471 0.69044 0.0
C1633 C 0.35217 0.22087 0.59232 0.0
C1634 C 0.33208 0.26621 0.83432 0.0
C1635 C 0.33333 0.26183 0.79856 0.0
C1636 C 0.35388 0.24148 0.73993 0.0
C1637 C 0.34719 0.2366 0.63914 0.0
C1638 C 0.34553 0.23992 0.67811 0.0
C1639 C 0.34047 0.25073 0.79076 0.0
C1640 C 0.3421 0.24646 0.75227 0.0
H1641 H 0.34046 0.24841 0.55465 0.0
H1642 H 0.33982 0.25468 0.61897 0.0
H1643 H 0.36474 0.23449 0.69431 0.0
H1644 H 0.34976 0.24329 0.87756 0.0
H1645 H 0.35164 0.23534 0.8149 0.0
C1646 C 0.47398 0.5788 0.58289 0.0
C1647 C 0.48075 0.58472 0.61142 0.0
C1648 C 0.47831 0.57972 0.54699 0.0
C1649 C 0.49924 0.59938 0.48745 0.0
H1650 H 0.4937 0.57131 0.41972 0.0
C1651 C 0.51998 0.59698 0.34051 0.0
C1652 C 0.51141 0.59315 0.31295 0.0
C1653 C 0.51627 0.59664 0.37713 0.0
C1654 C 0.4952 0.57926 0.43831 0.0
H1655 H 0.49758 0.59594 0.62497 0.0
H1656 H 0.50545 0.5972 0.56215 0.0
H1657 H 0.48812 0.56861 0.48383 0.0
H1658 H 0.49219 0.58626 0.30188 0.0
H1659 H 0.48577 0.58547 0.36613 0.0
H1660 H 0.50665 0.60985 0.44168 0.0
C1661 C 0.49659 0.59211 0.56745 0.0
C1662 C 0.49199 0.57774 0.47504 0.0
C1663 C 0.49216 0.5913 0.60347 0.0
C1664 C 0.49897 0.5893 0.32258 0.0
C1665 C 0.49533 0.58876 0.35927 0.0
C1666 C 0.50261 0.60083 0.45074 0.0
C1667 C 0.48962 0.58645 0.53869 0.0
C1668 C 0.49382 0.58783 0.50005 0.0
C1669 C 0.50401 0.59228 0.38688 0.0
C1670 C 0.50049 0.59082 0.42579 0.0
H1671 H 0.46509 0.57374 0.58811 0.0
H1672 H 0.47254 0.57544 0.52563 0.0
H1673 H 0.5006 0.60742 0.50574 0.0
H1674 H 0.52963 0.60001 0.33381 0.0
H1675 H 0.52315 0.59935 0.39792 0.0
C1676 C 0.14965 0.72245 0.33268 0.0
C1677 C 0.14612 0.72964 0.36352 0.0
C1678 C 0.14717 0.72705 0.29766 0.0
C1679 C 0.14283 0.75633 0.24572 0.0
H1680 H 0.12853 0.73363 0.17228 0.0
C1681 C 0.13656 0.77326 0.09761 0.0
C1682 C 0.1403 0.76453 0.07045 0.0
C1683 C 0.13492 0.7692 0.13363 0.0
C1684 C 0.13262 0.74007 0.19236 0.0
H1685 H 0.13732 0.74732 0.382 0.0
H1686 H 0.13322 0.75554 0.32034 0.0
H1687 H 0.13047 0.72629 0.23529 0.0
H1688 H 0.14484 0.74464 0.05921 0.0
H1689 H 0.14238 0.73759 0.12222 0.0
H1690 H 0.14556 0.76991 0.20282 0.0
C1691 C 0.13782 0.7463 0.32349 0.0
C1692 C 0.13367 0.73587 0.22845 0.0
C1693 C 0.14016 0.7416 0.35867 0.0
C1694 C 0.1419 0.75157 0.07962 0.0
C1695 C 0.14042 0.74752 0.11575 0.0
C1696 C 0.14191 0.76049 0.20957 0.0
C1697 C 0.14123 0.739 0.2927 0.0
C1698 C 0.13898 0.74389 0.25532 0.0
C1699 C 0.13716 0.75635 0.14335 0.0
C1700 C 0.13698 0.75233 0.18231 0.0
H1701 H 0.15422 0.71318 0.33556 0.0
H1702 H 0.15006 0.72132 0.27438 0.0
H1703 H 0.14707 0.76265 0.26586 0.0
H1704 H 0.13514 0.7833 0.09119 0.0
H1705 H 0.13213 0.7762 0.15398 0.0
C1706 C 0.98873 0.38929 0.83104 0.0
C1707 C 0.97568 0.38891 0.82179 0.0
C1708 C 0.99257 0.38805 0.86743 0.0
C1709 C 0.97996 0.39248 0.96087 0.0
H1710 H 0.01248 0.37725 0.98823 0.0
C1711 C -0.00127 0.39106 0.11022 0.0
C1712 C 0.01136 0.39556 0.11415 0.0
C1713 C 0.99372 0.38861 0.07544 0.0
C1714 C 0.00337 0.38152 0.98094 0.0
H1715 H 0.95644 0.38624 0.84293 0.0
H1716 H 0.96314 0.3837 0.90626 0.0
H1717 H 0.00491 0.37534 0.92543 0.0
H1718 H 0.02868 0.40087 0.08498 0.0
H1719 H 0.01997 0.39651 0.02459 0.0
H1720 H 0.97851 0.3987 0.01648 0.0
C1721 C 0.97041 0.38532 0.88566 0.0
C1722 C -0.00096 0.38048 0.94497 0.0
C1723 C 0.96657 0.38669 0.84934 0.0
C1724 C 0.0189 0.39745 0.08282 0.0
C1725 C 0.01396 0.39485 0.04824 0.0
C1726 C 0.98423 0.3934 -0.00307 0.0
C1727 C 0.98343 0.38627 0.89528 0.0
C1728 C 0.98742 0.38619 0.93429 0.0
C1729 C 0.00132 0.39043 0.04416 0.0
C1730 C -0.0039 0.38818 0.00711 0.0
H1731 H -0.00405 0.39104 0.81037 0.0
H1732 H 0.00266 0.389 0.87381 0.0
H1733 H 0.97105 0.39715 0.95358 0.0
H1734 H 0.99273 0.38951 0.13395 0.0
H1735 H 0.98395 0.38519 0.07298 0.0
C1736 C 0.34835 0.74922 0.91423 0.0
C1737 C 0.34837 0.76233 0.92294 0.0
C1738 C 0.34982 0.74522 0.87804 0.0
C1739 C 0.34569 0.75712 0.78363 0.0
H1740 H 0.36263 0.7252 0.75868 0.0
C1741 C 0.34941 0.73827 0.63493 0.0
C1742 C 0.34555 0.72545 0.63068 0.0
C1743 C 0.3514 0.74337 0.66986 0.0
C1744 C 0.35787 0.73414 0.76528 0.0
H1745 H 0.35047 0.78152 0.90095 0.0
H1746 H 0.35335 0.77455 0.83797 0.0
H1747 H 0.36344 0.73305 0.82141 0.0
H1748 H 0.34102 0.70784 0.65945 0.0
H1749 H 0.34457 0.71668 0.72013 0.0
H1750 H 0.34009 0.75813 0.72743 0.0
C1751 C 0.35189 0.76735 0.85886 0.0
C1752 C 0.35828 0.73862 0.80123 0.0
C1753 C 0.35032 0.77134 0.89499 0.0
C1754 C 0.34396 0.71777 0.66186 0.0
C1755 C 0.34608 0.7228 0.69661 0.0
C1756 C 0.34538 0.7527 0.74762 0.0
C1757 C 0.35143 0.75425 0.84981 0.0
C1758 C 0.35199 0.75004 0.81101 0.0
C1759 C 0.34974 0.73567 0.70103 0.0
C1760 C 0.35126 0.74104 0.73825 0.0
H1761 H 0.34682 0.74206 0.93521 0.0
H1762 H 0.34924 0.73507 0.87208 0.0
H1763 H 0.34058 0.76586 0.7902 0.0
H1764 H 0.35073 0.7444 0.61134 0.0
H1765 H 0.35426 0.75331 0.67253 0.0
C1766 C 0.98872 0.5955 0.66465 0.0
C1767 C 0.97564 0.59679 0.67282 0.0
C1768 C 0.99306 0.59694 0.62875 0.0
C1769 C 0.98101 0.59512 0.53384 0.0
H1770 H 0.01475 0.60839 0.51032 0.0
C1771 C -0.00027 0.59948 0.38547 0.0
C1772 C 0.01202 0.59434 0.3798 0.0
C1773 C -0.00496 0.60118 0.42094 0.0
C1774 C 0.00531 0.60464 0.51656 0.0
H1775 H 0.95692 0.60129 0.65047 0.0
H1776 H 0.96451 0.60423 0.58817 0.0
H1777 H 0.00704 0.60935 0.5732 0.0
H1778 H 0.02911 0.58714 0.40663 0.0
H1779 H 0.02096 0.59017 0.46838 0.0
H1780 H 0.97932 0.59043 0.47712 0.0
C1781 C 0.9714 0.6017 0.6091 0.0
C1782 C 0.00091 0.60515 0.55257 0.0
C1783 C 0.96705 0.60011 0.64485 0.0
C1784 C 0.01958 0.59108 0.41016 0.0
C1785 C 0.01496 0.59291 0.44551 0.0
C1786 C 0.98537 0.59474 0.49781 0.0
C1787 C 0.9844 0.59984 0.60041 0.0
C1788 C 0.98877 0.60022 0.56176 0.0
C1789 C 0.00263 0.59792 0.45128 0.0
C1790 C -0.00237 0.59932 0.48892 0.0
H1791 H -0.00446 0.5929 0.68571 0.0
H1792 H 0.00311 0.59529 0.62307 0.0
H1793 H 0.97172 0.59101 0.53993 0.0
H1794 H 0.99371 0.6021 0.36255 0.0
H1795 H 0.98551 0.60511 0.42467 0.0
C1796 C 0.14045 0.24629 0.13568 0.0
C1797 C 0.14488 0.25894 0.13196 0.0
C1798 C 0.13813 0.24116 0.17042 0.0
C1799 C 0.1314 0.25049 0.26542 0.0
H1800 H 0.1481 0.21862 0.29192 0.0
C1801 C 0.14176 0.23678 0.4145 0.0
C1802 C 0.14186 0.22378 0.42439 0.0
C1803 C 0.13979 0.24036 0.37818 0.0
C1804 C 0.14312 0.22739 0.28488 0.0
H1805 H 0.15014 0.27622 0.16142 0.0
H1806 H 0.14598 0.26734 0.22167 0.0
H1807 H 0.14882 0.22599 0.2288 0.0
H1808 H 0.13933 0.20436 0.40453 0.0
H1809 H 0.13556 0.21061 0.34129 0.0
H1810 H 0.1258 0.25201 0.32142 0.0
C1811 C 0.14429 0.26137 0.19792 0.0
C1812 C 0.14357 0.23161 0.24869 0.0
C1813 C 0.14677 0.26641 0.16342 0.0
C1814 C 0.1394 0.21446 0.39761 0.0
C1815 C 0.13733 0.21804 0.36134 0.0
C1816 C 0.13084 0.24622 0.30152 0.0
C1817 C 0.13999 0.2487 0.20182 0.0
C1818 C 0.138 0.24336 0.23884 0.0
C1819 C 0.13777 0.23102 0.35102 0.0
C1820 C 0.13698 0.23478 0.3119 0.0
H1821 H 0.1389 0.24033 0.11185 0.0
H1822 H 0.13481 0.23135 0.17275 0.0
H1823 H 0.12687 0.2595 0.25839 0.0
H1824 H 0.14368 0.24417 0.43456 0.0
H1825 H 0.14038 0.25044 0.37121 0.0
C1826 C 0.52116 0.38297 0.15482 0.0
C1827 C 0.51196 0.38701 0.18037 0.0
C1828 C 0.51759 0.38017 0.11894 0.0
C1829 C 0.48934 0.37489 0.05833 0.0
H1830 H 0.5112 0.39049 0.98501 0.0
C1831 C 0.47087 0.39189 0.91944 0.0
C1832 C 0.47843 0.38992 0.88821 0.0
C1833 C 0.4755 0.38868 0.95393 0.0
C1834 C 0.50512 0.38586 0.00504 0.0
H1835 H 0.49174 0.3907 0.18899 0.0
H1836 H 0.48551 0.38609 0.12626 0.0
H1837 H 0.51827 0.38979 0.04833 0.0
H1838 H 0.4967 0.38286 0.86841 0.0
H1839 H 0.50496 0.37743 0.92925 0.0
H1840 H 0.47593 0.37156 0.01507 0.0
C1841 C 0.49546 0.38488 0.13393 0.0
C1842 C 0.50916 0.38543 0.04138 0.0
C1843 C 0.49903 0.3876 0.16988 0.0
C1844 C 0.49069 0.3845 0.89208 0.0
C1845 C 0.49541 0.38142 0.9268 0.0
C1846 C 0.48526 0.3754 0.02203 0.0
C1847 C 0.50475 0.38142 0.1078 0.0
C1848 C 0.50118 0.38024 0.06863 0.0
C1849 C 0.48785 0.38352 0.95805 0.0
C1850 C 0.49297 0.38119 0.99521 0.0
H1851 H 0.5312 0.38233 0.16225 0.0
H1852 H 0.52494 0.3773 0.09971 0.0
H1853 H 0.48307 0.37059 0.07848 0.0
H1854 H 0.46136 0.396 0.91732 0.0
H1855 H 0.46954 0.39059 0.97752 0.0
C1856 C 0.11322 0.30248 0.06536 0.0
C1857 C 0.12601 0.30552 0.05707 0.0
C1858 C 0.10526 0.31156 0.08169 0.0
C1859 C 0.10096 0.34596 0.09854 0.0
H1860 H 0.08121 0.3342 0.18184 0.0
C1861 C 0.07007 0.38055 0.18433 0.0
C1862 C 0.05767 0.37615 0.19259 0.0
C1863 C 0.07925 0.37213 0.1703 0.0
C1864 C 0.08659 0.33761 0.15849 0.0
H1865 H 0.14037 0.32057 0.05784 0.0
H1866 H 0.12637 0.33652 0.08622 0.0
H1867 H 0.09523 0.31927 0.14985 0.0
H1868 H 0.04526 0.35947 0.19381 0.0
H1869 H 0.06118 0.34483 0.16902 0.0
H1870 H 0.09212 0.36425 0.10673 0.0
C1871 C 0.12254 0.3271 0.08011 0.0
C1872 C 0.0946 0.32906 0.14016 0.0
C1873 C 0.13054 0.31798 0.06393 0.0
C1874 C 0.05475 0.36312 0.18778 0.0
C1875 C 0.0639 0.35472 0.17373 0.0
C1876 C 0.09288 0.35452 0.11678 0.0
C1877 C 0.10992 0.32387 0.08987 0.0
C1878 C 0.10174 0.33312 0.10976 0.0
C1879 C 0.07619 0.35917 0.1643 0.0
C1880 C 0.0855 0.35039 0.1467 0.0
H1881 H 0.10946 0.29296 0.0603 0.0
H1882 H 0.0955 0.3089 0.08837 0.0
H1883 H 0.10631 0.34931 0.07506 0.0
H1884 H 0.07259 0.39056 0.18785 0.0
H1885 H 0.0887 0.37579 0.16378 0.0
C1886 C 0.87647 0.80142 0.41607 0.0
C1887 C 0.86396 0.80437 0.42752 0.0
C1888 C 0.88392 0.81062 0.39839 0.0
C1889 C 0.88766 0.84522 0.38409 0.0
H1890 H 0.90686 0.83445 0.29867 0.0
C1891 C 0.91856 0.88077 0.30228 0.0
C1892 C 0.93103 0.87647 0.29459 0.0
C1893 C 0.90921 0.87217 0.31439 0.0
C1894 C 0.90159 0.83759 0.32255 0.0
H1895 H 0.84955 0.81933 0.43045 0.0
H1896 H 0.86265 0.83548 0.39961 0.0
H1897 H 0.893 0.81914 0.32993 0.0
H1898 H 0.94338 0.85977 0.29187 0.0
H1899 H 0.92714 0.84479 0.31323 0.0
H1900 H 0.89646 0.86359 0.37722 0.0
C1901 C 0.86667 0.82605 0.40438 0.0
C1902 C 0.89369 0.82882 0.34047 0.0
C1903 C 0.85918 0.81682 0.42198 0.0
C1904 C 0.93384 0.86335 0.29759 0.0
C1905 C 0.92451 0.85476 0.30966 0.0
C1906 C 0.89559 0.85398 0.36621 0.0
C1907 C 0.87903 0.82296 0.39189 0.0
C1908 C 0.88681 0.8325 0.37176 0.0
C1909 C 0.91218 0.85912 0.31893 0.0
C1910 C 0.90279 0.8502 0.33558 0.0
H1911 H 0.88041 0.79192 0.42002 0.0
H1912 H 0.89351 0.80806 0.38966 0.0
H1913 H 0.88253 0.84828 0.4083 0.0
H1914 H 0.91612 0.89084 0.30007 0.0
H1915 H 0.89973 0.87577 0.32084 0.0
C1916 C 0.35854 0.66613 0.55303 0.0
C1917 C 0.36342 0.67835 0.54482 0.0
C1918 C 0.36678 0.65631 0.56407 0.0
C1919 C 0.40095 0.64677 0.56739 0.0
H1920 H 0.39091 0.62859 0.65528 0.0
C1921 C 0.43751 0.62163 0.65927 0.0
C1922 C 0.43439 0.60945 0.67288 0.0
C1923 C 0.42834 0.62893 0.64105 0.0
C1924 C 0.39377 0.63344 0.63042 0.0
H1925 H 0.38072 0.68978 0.54023 0.0
H1926 H 0.39507 0.67271 0.55973 0.0
H1927 H 0.37573 0.64307 0.62583 0.0
H1928 H 0.4192 0.59539 0.67871 0.0
H1929 H 0.40307 0.60824 0.64691 0.0
H1930 H 0.4191 0.63739 0.57256 0.0
C1931 C 0.38492 0.67064 0.55736 0.0
C1932 C 0.38508 0.64171 0.6135 0.0
C1933 C 0.3767 0.68045 0.54641 0.0
C1934 C 0.42184 0.60478 0.66857 0.0
C1935 C 0.41262 0.61212 0.65043 0.0
C1936 C 0.40964 0.63853 0.58433 0.0
C1937 C 0.38003 0.65854 0.56696 0.0
C1938 C 0.38868 0.64865 0.58224 0.0
C1939 C 0.41584 0.62421 0.63615 0.0
C1940 C 0.40622 0.632 0.61644 0.0
H1941 H 0.34833 0.66424 0.5519 0.0
H1942 H 0.36277 0.64703 0.57089 0.0
H1943 H 0.40391 0.65183 0.54298 0.0
H1944 H 0.44711 0.62548 0.66223 0.0
H1945 H 0.43101 0.63832 0.63093 0.0
C1946 C 0.61284 0.18849 0.92878 0.0
C1947 C 0.62566 0.18536 0.93629 0.0
C1948 C 0.60448 0.17924 0.91501 0.0
C1949 C 0.6046 0.14914 0.86314 0.0
H1950 H 0.56879 0.14806 0.89149 0.0
C1951 C 0.56837 0.11105 0.81113 0.0
C1952 C 0.55605 0.11554 0.80236 0.0
C1953 C 0.57735 0.11925 0.82714 0.0
C1954 C 0.57875 0.14834 0.88308 0.0
H1955 H 0.63971 0.17003 0.93664 0.0
H1956 H 0.62502 0.15378 0.91296 0.0
H1957 H 0.58342 0.1625 0.92314 0.0
H1958 H 0.54362 0.13223 0.80186 0.0
H1959 H 0.55933 0.14656 0.82949 0.0
H1960 H 0.59986 0.13497 0.82298 0.0
C1961 C 0.62149 0.16344 0.9172 0.0
C1962 C 0.58712 0.15658 0.90124 0.0
C1963 C 0.62987 0.17271 0.931 0.0
C1964 C 0.55304 0.12849 0.80846 0.0
C1965 C 0.56198 0.13666 0.82455 0.0
C1966 C 0.59622 0.14085 0.84503 0.0
C1967 C 0.60877 0.16667 0.90852 0.0
C1968 C 0.60011 0.15719 0.89117 0.0
C1969 C 0.57412 0.13206 0.83476 0.0
C1970 C 0.58317 0.14051 0.85452 0.0
H1971 H 0.60934 0.19818 0.9325 0.0
H1972 H 0.59478 0.18208 0.9082 0.0
H1973 H 0.61452 0.14952 0.85443 0.0
H1974 H 0.57093 0.1011 0.80677 0.0
H1975 H 0.58663 0.11545 0.83483 0.0
C1976 C 0.06984 0.61026 0.30332 0.0
C1977 C 0.05742 0.6149 0.29656 0.0
C1978 C 0.07932 0.61842 0.31699 0.0
C1979 C 0.08727 0.65271 0.33113 0.0
H1980 H 0.10715 0.63997 0.41301 0.0
C1981 C 0.11347 0.68662 0.42854 0.0
C1982 C 0.12628 0.68366 0.43669 0.0
C1983 C 0.1057 0.6777 0.41084 0.0
C1984 C 0.10176 0.6436 0.38993 0.0
H1985 H 0.04528 0.63178 0.29746 0.0
H1986 H 0.06171 0.64597 0.32163 0.0
H1987 H 0.0928 0.62547 0.38026 0.0
H1988 H 0.14089 0.66888 0.4342 0.0
H1989 H 0.1272 0.65318 0.40346 0.0
H1990 H 0.096 0.67092 0.34139 0.0
C1991 C 0.06422 0.63609 0.31603 0.0
C1992 C 0.0936 0.6353 0.37107 0.0
C1993 C 0.05478 0.62794 0.30235 0.0
C1994 C 0.13103 0.6714 0.42827 0.0
C1995 C 0.12321 0.66243 0.41071 0.0
C1996 C 0.09537 0.66101 0.35008 0.0
C1997 C 0.07653 0.63137 0.32411 0.0
C1998 C 0.08612 0.63983 0.34182 0.0
C1999 C 0.11057 0.66562 0.40111 0.0
C2000 C 0.10253 0.65658 0.38002 0.0
H2001 H 0.07215 0.60024 0.29899 0.0
H2002 H 0.08876 0.61456 0.32247 0.0
H2003 H 0.08182 0.65642 0.30828 0.0
H2004 H 0.10954 0.69599 0.43478 0.0
H2005 H 0.0959 0.68031 0.40434 0.0
C2006 C 0.63164 0.82052 0.5604 0.0
C2007 C 0.62709 0.80808 0.55346 0.0
C2008 C 0.62333 0.83 0.57329 0.0
C2009 C 0.58892 0.83799 0.58353 0.0
H2010 H 0.60051 0.85815 0.66626 0.0
C2011 C 0.55371 0.86473 0.67601 0.0
C2012 C 0.55673 0.87746 0.68505 0.0
C2013 C 0.56278 0.8569 0.65915 0.0
C2014 C 0.5972 0.85269 0.64291 0.0
H2015 H 0.61025 0.79587 0.55341 0.0
H2016 H 0.59579 0.81233 0.57615 0.0
H2017 H 0.61544 0.84363 0.63573 0.0
H2018 H 0.57172 0.89188 0.68475 0.0
H2019 H 0.58766 0.87811 0.65536 0.0
H2020 H 0.57062 0.84684 0.59119 0.0
C2021 C 0.60572 0.81484 0.57131 0.0
C2022 C 0.60574 0.84442 0.62535 0.0
C2023 C 0.61402 0.80539 0.55846 0.0
C2024 C 0.56915 0.88209 0.6781 0.0
C2025 C 0.57826 0.87422 0.66135 0.0
C2026 C 0.58039 0.84621 0.60115 0.0
C2027 C 0.61032 0.82719 0.57938 0.0
C2028 C 0.60163 0.83684 0.59582 0.0
C2029 C 0.57507 0.86163 0.65111 0.0
C2030 C 0.58438 0.85348 0.63136 0.0
H2031 H 0.64169 0.82286 0.5567 0.0
H2032 H 0.6271 0.83948 0.57885 0.0
H2033 H 0.58554 0.83245 0.56044 0.0
H2034 H 0.54422 0.86089 0.68112 0.0
H2035 H 0.56015 0.84716 0.65216 0.0
C2036 C 0.43314 0.36299 0.79984 0.0
C2037 C 0.43148 0.37634 0.79915 0.0
C2038 C 0.42302 0.35499 0.80982 0.0
C2039 C 0.39396 0.35542 0.86534 0.0
H2040 H 0.38898 0.32161 0.82357 0.0
C2041 C 0.3567 0.31891 0.92034 0.0
C2042 C 0.36138 0.30637 0.92473 0.0
C2043 C 0.36401 0.32811 0.90201 0.0
C2044 C 0.39029 0.33102 0.83552 0.0
H2045 H 0.41781 0.3918 0.80659 0.0
H2046 H 0.40005 0.37777 0.82383 0.0
H2047 H 0.4037 0.33661 0.79429 0.0
H2048 H 0.3774 0.29365 0.91398 0.0
H2049 H 0.39017 0.3097 0.88231 0.0
H2050 H 0.38075 0.3497 0.90703 0.0
C2051 C 0.40923 0.37352 0.81711 0.0
C2052 C 0.39869 0.3396 0.81877 0.0
C2053 C 0.41936 0.38153 0.80708 0.0
C2054 C 0.37354 0.30324 0.91098 0.0
C2055 C 0.3808 0.31239 0.89254 0.0
C2056 C 0.38552 0.34684 0.88205 0.0
C2057 C 0.41103 0.36019 0.81928 0.0
C2058 C 0.40085 0.35177 0.83402 0.0
C2059 C 0.37607 0.32487 0.88758 0.0
C2060 C 0.38387 0.33445 0.86779 0.0
H2061 H 0.44238 0.35873 0.79385 0.0
H2062 H 0.42476 0.34477 0.81166 0.0
H2063 H 0.39553 0.36468 0.87798 0.0
H2064 H 0.34732 0.32156 0.93059 0.0
H2065 H 0.36014 0.33767 0.89848 0.0
C2066 C 0.86098 0.17101 0.05938 0.0
C2067 C 0.86516 0.18329 0.04907 0.0
C2068 C 0.86963 0.16216 0.07398 0.0
C2069 C 0.89998 0.16147 0.1241 0.0
H2070 H 0.90021 0.12524 0.10022 0.0
C2071 C 0.93992 0.12755 0.17237 0.0
C2072 C 0.93649 0.11509 0.18302 0.0
C2073 C 0.93085 0.13572 0.15686 0.0
C2074 C 0.90013 0.13531 0.10752 0.0
H2075 H 0.88174 0.19574 0.04408 0.0
H2076 H 0.89685 0.18026 0.06922 0.0
H2077 H 0.88525 0.13957 0.06904 0.0
H2078 H 0.92084 0.10145 0.18665 0.0
H2079 H 0.90488 0.11583 0.15997 0.0
H2080 H 0.91477 0.15726 0.16265 0.0
C2081 C 0.88686 0.17754 0.06662 0.0
C2082 C 0.8916 0.1435 0.08959 0.0
C2083 C 0.87823 0.18636 0.05199 0.0
C2084 C 0.92374 0.11102 0.17864 0.0
C2085 C 0.91464 0.11921 0.16312 0.0
C2086 C 0.90845 0.15329 0.14208 0.0
C2087 C 0.8826 0.16547 0.07858 0.0
C2088 C 0.89153 0.15668 0.0975 0.0
C2089 C 0.91814 0.1316 0.15174 0.0
C2090 C 0.9087 0.14014 0.1338 0.0
H2091 H 0.85095 0.1684 0.05744 0.0
H2092 H 0.86607 0.15294 0.08309 0.0
H2093 H 0.89994 0.17154 0.13133 0.0
H2094 H 0.9497 0.13092 0.17527 0.0
H2095 H 0.93389 0.14514 0.14795 0.0
C2096 C 0.85721 0.66929 0.92076 0.0
C2097 C 0.8621 0.68151 0.92898 0.0
C2098 C 0.86495 0.66016 0.9036 0.0
C2099 C 0.89292 0.65816 0.84367 0.0
H2100 H 0.89533 0.62283 0.87585 0.0
C2101 C 0.93388 0.62498 0.80001 0.0
C2102 C 0.93134 0.61191 0.79464 0.0
C2103 C 0.9243 0.63315 0.81273 0.0
C2104 C 0.89457 0.6326 0.86609 0.0
H2105 H 0.87902 0.69362 0.92709 0.0
H2106 H 0.89251 0.67767 0.8973 0.0
H2107 H 0.88085 0.63756 0.90732 0.0
H2108 H 0.91668 0.59717 0.79691 0.0
H2109 H 0.89982 0.61153 0.81878 0.0
H2110 H 0.90666 0.6533 0.80263 0.0
C2111 C 0.88266 0.67521 0.90367 0.0
C2112 C 0.88633 0.64103 0.88422 0.0
C2113 C 0.87497 0.68429 0.92099 0.0
C2114 C 0.91891 0.60722 0.80091 0.0
C2115 C 0.90929 0.61541 0.81365 0.0
C2116 C 0.90109 0.64974 0.82545 0.0
C2117 C 0.87766 0.66316 0.89418 0.0
C2118 C 0.88565 0.65395 0.87362 0.0
C2119 C 0.91196 0.62842 0.82027 0.0
C2120 C 0.90221 0.63694 0.83693 0.0
H2121 H 0.84731 0.66692 0.9266 0.0
H2122 H 0.86087 0.65093 0.89654 0.0
H2123 H 0.89236 0.66802 0.83447 0.0
H2124 H 0.94339 0.62886 0.79548 0.0
H2125 H 0.92672 0.64308 0.818 0.0
C2126 C 0.1171 0.18667 0.57261 0.0
C2127 C 0.12968 0.18359 0.56216 0.0
C2128 C 0.10945 0.17762 0.59018 0.0
C2129 C 0.10504 0.14325 0.6053 0.0
H2130 H 0.08571 0.15465 0.68981 0.0
C2131 C 0.07244 0.10879 0.68592 0.0
C2132 C 0.06014 0.11357 0.69357 0.0
C2133 C 0.08213 0.11702 0.67388 0.0
C2134 C 0.091 0.15133 0.66617 0.0
H2135 H 0.14401 0.16853 0.56082 0.0
H2136 H 0.13052 0.1526 0.59139 0.0
H2137 H 0.10014 0.16952 0.65901 0.0
H2138 H 0.04844 0.13074 0.69605 0.0
H2139 H 0.06525 0.14506 0.67472 0.0
H2140 H 0.09565 0.12516 0.61183 0.0
C2141 C 0.12663 0.16204 0.58598 0.0
C2142 C 0.09925 0.15985 0.64854 0.0
C2143 C 0.13434 0.17114 0.56854 0.0
C2144 C 0.05784 0.12678 0.6904 0.0
C2145 C 0.0675 0.135 0.67836 0.0
C2146 C 0.09674 0.13473 0.62285 0.0
C2147 C 0.1142 0.16529 0.59752 0.0
C2148 C 0.10617 0.15595 0.61756 0.0
C2149 C 0.07968 0.13017 0.66932 0.0
C2150 C 0.08947 0.13876 0.6531 0.0
H2151 H 0.11325 0.19618 0.56798 0.0
H2152 H 0.09981 0.1803 0.59819 0.0
H2153 H 0.11022 0.14002 0.58134 0.0
H2154 H 0.07449 0.09864 0.68825 0.0
H2155 H 0.09147 0.11305 0.6676 0.0
C2156 C 0.54972 0.36715 0.33425 0.0
C2157 C 0.55269 0.37948 0.32142 0.0
C2158 C 0.5589 0.35995 0.35278 0.0
C2159 C 0.59352 0.35629 0.36552 0.0
H2160 H 0.58314 0.33658 0.45038 0.0
C2161 C 0.62906 0.32365 0.44135 0.0
C2162 C 0.62452 0.31115 0.44734 0.0
C2163 C 0.62059 0.33342 0.43147 0.0
C2164 C 0.58617 0.34202 0.42672 0.0
H2165 H 0.56759 0.39392 0.31746 0.0
H2166 H 0.58371 0.38126 0.34986 0.0
H2167 H 0.56779 0.35091 0.421 0.0
H2168 H 0.60754 0.29916 0.44952 0.0
H2169 H 0.59277 0.31616 0.43205 0.0
H2170 H 0.61179 0.34716 0.37062 0.0
C2171 C 0.57429 0.37718 0.34543 0.0
C2172 C 0.57739 0.3502 0.40986 0.0
C2173 C 0.56507 0.38441 0.32693 0.0
C2174 C 0.6113 0.30871 0.44502 0.0
C2175 C 0.60284 0.31848 0.43523 0.0
C2176 C 0.6023 0.34811 0.38237 0.0
C2177 C 0.57124 0.36492 0.35883 0.0
C2178 C 0.5809 0.3572 0.37864 0.0
C2179 C 0.60743 0.33086 0.42753 0.0
C2180 C 0.59863 0.34069 0.41267 0.0
H2181 H 0.54025 0.36311 0.33037 0.0
H2182 H 0.55636 0.35043 0.36218 0.0
H2183 H 0.59646 0.36149 0.34133 0.0
H2184 H 0.63921 0.32581 0.44311 0.0
H2185 H 0.62436 0.34292 0.42615 0.0
C2186 C 0.36088 0.81598 0.06142 0.0
C2187 C 0.36515 0.80342 0.05476 0.0
C2188 C 0.36906 0.82497 0.07749 0.0
C2189 C 0.39723 0.82657 0.13709 0.0
H2190 H 0.39976 0.86178 0.10389 0.0
C2191 C 0.43703 0.86075 0.18531 0.0
C2192 C 0.43398 0.87373 0.19044 0.0
C2193 C 0.42797 0.8523 0.17095 0.0
C2194 C 0.399 0.85203 0.11386 0.0
H2195 H 0.38142 0.79053 0.05829 0.0
H2196 H 0.39572 0.80624 0.08608 0.0
H2197 H 0.38546 0.84692 0.07235 0.0
H2198 H 0.41894 0.888 0.18592 0.0
H2199 H 0.403 0.87317 0.1613 0.0
H2200 H 0.41074 0.83163 0.17857 0.0
C2201 C 0.38601 0.80909 0.07938 0.0
C2202 C 0.39086 0.84352 0.09569 0.0
C2203 C 0.37786 0.80013 0.06321 0.0
C2204 C 0.42156 0.87804 0.18215 0.0
C2205 C 0.41247 0.86958 0.16781 0.0
C2206 C 0.40533 0.83507 0.15532 0.0
C2207 C 0.38162 0.82152 0.08731 0.0
C2208 C 0.39001 0.83067 0.1069 0.0
C2209 C 0.41565 0.85667 0.1615 0.0
C2210 C 0.40641 0.84786 0.14368 0.0
H2211 H 0.35111 0.81877 0.05523 0.0
H2212 H 0.36542 0.83447 0.08343 0.0
H2213 H 0.39656 0.81677 0.14679 0.0
H2214 H 0.44655 0.85717 0.19135 0.0
H2215 H 0.43077 0.84245 0.16605 0.0
C2216 C 0.9221 0.37828 0.68161 0.0
C2217 C 0.93446 0.37367 0.68941 0.0
C2218 C 0.91296 0.37023 0.66567 0.0
C2219 C 0.91094 0.34142 0.60863 0.0
H2220 H 0.87534 0.34051 0.6391 0.0
C2221 C 0.87609 0.30212 0.5618 0.0
C2222 C 0.86336 0.30558 0.5542 0.0
C2223 C 0.88459 0.31106 0.57647 0.0
C2224 C 0.88521 0.34081 0.62993 0.0
H2225 H 0.94681 0.35695 0.68814 0.0
H2226 H 0.93084 0.34288 0.66067 0.0
H2227 H 0.89038 0.35473 0.67038 0.0
H2228 H 0.84958 0.32116 0.55501 0.0
H2229 H 0.86453 0.33688 0.58036 0.0
H2230 H 0.90584 0.32752 0.56827 0.0
C2231 C 0.92827 0.35275 0.6663 0.0
C2232 C 0.89381 0.34891 0.64791 0.0
C2233 C 0.93738 0.36077 0.68228 0.0
C2234 C 0.85935 0.31824 0.56067 0.0
C2235 C 0.86787 0.3272 0.5754 0.0
C2236 C 0.90235 0.33336 0.59062 0.0
C2237 C 0.91606 0.35746 0.65718 0.0
C2238 C 0.9068 0.34917 0.6377 0.0
C2239 C 0.88054 0.32365 0.58382 0.0
C2240 C 0.88943 0.33286 0.60134 0.0
H2241 H 0.9196 0.3882 0.68679 0.0
H2242 H 0.90364 0.37413 0.6588 0.0
H2243 H 0.92084 0.34164 0.59965 0.0
H2244 H 0.87942 0.29242 0.5572 0.0
H2245 H 0.89423 0.30799 0.58308 0.0
C2246 C 0.36057 0.174 0.42589 0.0
C2247 C 0.36556 0.18622 0.43356 0.0
C2248 C 0.36829 0.16463 0.40976 0.0
C2249 C 0.39655 0.16184 0.35122 0.0
H2250 H 0.39746 0.12642 0.38338 0.0
C2251 C 0.43568 0.12674 0.30549 0.0
C2252 C 0.43239 0.11385 0.29962 0.0
C2253 C 0.42666 0.13534 0.31923 0.0
C2254 C 0.39714 0.13623 0.37368 0.0
H2255 H 0.38263 0.1981 0.43181 0.0
H2256 H 0.39612 0.18173 0.40383 0.0
H2257 H 0.38356 0.14174 0.41471 0.0
H2258 H 0.41699 0.09991 0.3023 0.0
H2259 H 0.40111 0.11503 0.32595 0.0
H2260 H 0.4101 0.15641 0.31026 0.0
C2261 C 0.38621 0.17944 0.40984 0.0
C2262 C 0.38923 0.14499 0.39172 0.0
C2263 C 0.37852 0.18877 0.42612 0.0
C2264 C 0.41978 0.1098 0.30664 0.0
C2265 C 0.41073 0.11842 0.32041 0.0
C2266 C 0.4044 0.15309 0.33309 0.0
C2267 C 0.3811 0.16738 0.40084 0.0
C2268 C 0.38903 0.15792 0.381 0.0
C2269 C 0.41414 0.13124 0.32733 0.0
C2270 C 0.40493 0.14023 0.34447 0.0
H2271 H 0.35059 0.17179 0.43132 0.0
H2272 H 0.36411 0.15542 0.40301 0.0
H2273 H 0.39636 0.17169 0.34189 0.0
H2274 H 0.44533 0.13013 0.30042 0.0
H2275 H 0.42965 0.1451 0.32471 0.0
C2276 C 0.62919 0.67087 0.06579 0.0
C2277 C 0.62488 0.6834 0.05884 0.0
C2278 C 0.621 0.66187 0.08176 0.0
C2279 C 0.59271 0.66026 0.14072 0.0
H2280 H 0.58976 0.62522 0.10632 0.0
C2281 C 0.55177 0.62681 0.18456 0.0
C2282 C 0.55438 0.6137 0.18882 0.0
C2283 C 0.56123 0.63511 0.17173 0.0
C2284 C 0.59064 0.63491 0.11666 0.0
H2285 H 0.60852 0.69621 0.06172 0.0
H2286 H 0.59422 0.68048 0.08938 0.0
H2287 H 0.60445 0.63996 0.07579 0.0
H2288 H 0.56906 0.59904 0.18464 0.0
H2289 H 0.5857 0.61361 0.16276 0.0
H2290 H 0.57892 0.65529 0.18152 0.0
C2291 C 0.60396 0.67767 0.08297 0.0
C2292 C 0.59901 0.64335 0.09907 0.0
C2293 C 0.61212 0.68663 0.06687 0.0
C2294 C 0.56677 0.60911 0.18147 0.0
C2295 C 0.57626 0.61743 0.16869 0.0
C2296 C 0.5844 0.65183 0.15841 0.0
C2297 C 0.6084 0.66529 0.0912 0.0
C2298 C 0.59997 0.65615 0.11061 0.0
C2299 C 0.57351 0.63047 0.16302 0.0
C2300 C 0.58314 0.63911 0.14626 0.0
H2301 H 0.63899 0.66813 0.05992 0.0
H2302 H 0.62466 0.65239 0.08791 0.0
H2303 H 0.59347 0.67002 0.15065 0.0
H2304 H 0.54228 0.63061 0.18992 0.0
H2305 H 0.55876 0.64508 0.16727 0.0
C2306 C 0.05303 0.86317 0.8139 0.0
C2307 C 0.05619 0.87592 0.80547 0.0
C2308 C 0.06204 0.85514 0.83025 0.0
C2309 C 0.09647 0.85065 0.84742 0.0
H2310 H 0.08435 0.83048 0.92949 0.0
C2311 C 0.13054 0.8194 0.93416 0.0
C2312 C 0.12611 0.80694 0.94152 0.0
C2313 C 0.12224 0.82861 0.91974 0.0
C2314 C 0.08786 0.83599 0.90649 0.0
H2315 H 0.07138 0.89013 0.80613 0.0
H2316 H 0.08718 0.87603 0.83472 0.0
H2317 H 0.06958 0.84473 0.89777 0.0
H2318 H 0.10949 0.79443 0.94056 0.0
H2319 H 0.09506 0.81043 0.91523 0.0
H2320 H 0.11472 0.84174 0.85585 0.0
C2321 C 0.07774 0.87227 0.82861 0.0
C2322 C 0.0794 0.84412 0.88829 0.0
C2323 C 0.06869 0.88034 0.81232 0.0
C2324 C 0.11317 0.80397 0.93525 0.0
C2325 C 0.10488 0.81316 0.92089 0.0
C2326 C 0.10494 0.84247 0.86559 0.0
C2327 C 0.0744 0.85968 0.83843 0.0
C2328 C 0.08357 0.85141 0.85829 0.0
C2329 C 0.10936 0.82552 0.91254 0.0
C2330 C 0.10067 0.83494 0.89503 0.0
H2331 H 0.04348 0.85949 0.8088 0.0
H2332 H 0.05929 0.8454 0.8369 0.0
H2333 H 0.09991 0.85611 0.82426 0.0
H2334 H 0.14048 0.82195 0.93878 0.0
H2335 H 0.12591 0.83811 0.91398 0.0
loop_
_geom_bond_atom_site_label_1
_geom_bond_atom_site_label_2
_geom_bond_distance
_geom_bond_site_symmetry_2
_ccdc_geom_bond_type
In0 O1 2.294 . S
In0 O2 2.326 . S
In0 O6 2.266 . S
In0 O7 2.311 1_554 S
In0 O8 2.266 . S
In0 O9 2.326 . S
In0 O11 2.294 . S
In0 O12 2.326 . S
O1 In0 2.294 . S
O1 C10 1.240 . S
O2 In0 2.326 . S
O2 C10 1.252 . S
C3 O6 1.252 1_556 S
C3 O7 1.262 . S
C4 O11 1.240 . S
C4 O12 1.252 . S
C5 O8 1.252 . S
C5 O9 1.260 . S
O6 In0 2.266 . S
O6 C3 1.252 1_554 S
O7 In0 2.311 1_556 S
O7 C3 1.262 . S
O8 In0 2.266 . S
O8 C5 1.252 . S
O9 In0 2.326 . S
O9 C5 1.260 . S
C10 O1 1.240 . S
C10 O2 1.252 . S
O11 In0 2.294 . S
O11 C4 1.240 . S
O12 In0 2.326 . S
O12 C4 1.252 . S
In13 O14 2.294 . S
In13 O15 2.326 . S
In13 O19 2.266 . S
In13 O20 2.326 . S
In13 O21 2.266 . S
In13 O22 2.326 . S
In13 O24 2.294 . S
In13 O25 2.326 . S
O14 In13 2.294 . S
O14 C23 1.240 . S
O15 In13 2.326 . S
O15 C23 1.252 . S
C16 O19 1.252 . S
C16 O20 1.260 . S
C17 O24 1.240 . S
C17 O25 1.252 . S
C18 O21 1.252 . S
C18 O22 1.260 . S
O19 In13 2.266 . S
O19 C16 1.252 . S
O20 In13 2.326 . S
O20 C16 1.260 . S
O21 In13 2.266 . S
O21 C18 1.252 . S
O22 In13 2.326 . S
O22 C18 1.260 . S
C23 O14 1.240 . S
C23 O15 1.252 . S
O24 In13 2.294 . S
O24 C17 1.240 . S
O25 In13 2.326 . S
O25 C17 1.252 . S
In26 O27 2.294 . S
In26 O28 2.326 . S
In26 O32 2.266 . S
In26 O33 2.326 . S
In26 O34 2.266 . S
In26 O35 2.326 . S
In26 O37 2.294 . S
In26 O38 2.326 . S
O27 In26 2.294 . S
O27 C36 1.240 . S
O28 In26 2.326 . S
O28 C36 1.252 . S
C29 O32 1.252 . S
C29 O33 1.260 . S
C30 O37 1.240 . S
C30 O38 1.252 . S
C31 O34 1.252 . S
C31 O35 1.260 . S
O32 In26 2.266 . S
O32 C29 1.252 . S
O33 In26 2.326 . S
O33 C29 1.260 . S
O34 In26 2.266 . S
O34 C31 1.252 . S
O35 In26 2.326 . S
O35 C31 1.260 . S
C36 O27 1.240 . S
C36 O28 1.252 . S
O37 In26 2.294 . S
O37 C30 1.240 . S
O38 In26 2.326 . S
O38 C30 1.252 . S
In39 O40 2.294 . S
In39 O41 2.326 . S
In39 O45 2.266 . S
In39 O46 2.326 . S
In39 O47 2.266 . S
In39 O48 2.326 . S
In39 O50 2.294 . S
In39 O51 2.326 . S
O40 In39 2.294 . S
O40 C49 1.240 . S
O41 In39 2.326 . S
O41 C49 1.252 . S
C42 O45 1.252 . S
C42 O46 1.260 . S
C43 O50 1.240 . S
C43 O51 1.252 . S
C44 O47 1.252 . S
C44 O48 1.260 . S
O45 In39 2.266 . S
O45 C42 1.252 . S
O46 In39 2.326 . S
O46 C42 1.260 . S
O47 In39 2.266 . S
O47 C44 1.252 . S
O48 In39 2.326 . S
O48 C44 1.260 . S
C49 O40 1.240 . S
C49 O41 1.252 . S
O50 In39 2.294 . S
O50 C43 1.240 . S
O51 In39 2.326 . S
O51 C43 1.252 . S
In52 O53 2.294 . S
In52 O54 2.326 . S
In52 O58 2.266 . S
In52 O59 2.326 . S
In52 O60 2.266 . S
In52 O61 2.326 . S
In52 O63 2.294 . S
In52 O64 2.326 . S
O53 In52 2.294 . S
O53 C62 1.240 . S
O54 In52 2.326 . S
O54 C62 1.252 . S
C55 O58 1.252 . S
C55 O59 1.260 . S
C56 O63 1.240 . S
C56 O64 1.252 . S
C57 O60 1.252 . S
C57 O61 1.260 . S
O58 In52 2.266 . S
O58 C55 1.252 . S
O59 In52 2.326 . S
O59 C55 1.260 . S
O60 In52 2.266 . S
O60 C57 1.252 . S
O61 In52 2.326 . S
O61 C57 1.260 . S
C62 O53 1.240 . S
C62 O54 1.252 . S
O63 In52 2.294 . S
O63 C56 1.240 . S
O64 In52 2.326 . S
O64 C56 1.252 . S
In65 O66 2.294 . S
In65 O67 2.326 . S
In65 O71 2.266 . S
In65 O72 2.326 . S
In65 O73 2.266 . S
In65 O74 2.326 . S
In65 O76 2.294 . S
In65 O77 2.326 . S
O66 In65 2.294 . S
O66 C75 1.240 . S
O67 In65 2.326 . S
O67 C75 1.252 . S
C68 O71 1.252 . S
C68 O72 1.260 . S
C69 O76 1.240 . S
C69 O77 1.252 . S
C70 O73 1.252 . S
C70 O74 1.260 . S
O71 In65 2.266 . S
O71 C68 1.252 . S
O72 In65 2.326 . S
O72 C68 1.260 . S
O73 In65 2.266 . S
O73 C70 1.252 . S
O74 In65 2.326 . S
O74 C70 1.260 . S
C75 O66 1.240 . S
C75 O67 1.252 . S
O76 In65 2.294 . S
O76 C69 1.240 . S
O77 In65 2.326 . S
O77 C69 1.252 . S
In78 O79 2.294 . S
In78 O80 2.326 . S
In78 O84 2.266 . S
In78 O85 2.326 . S
In78 O86 2.266 . S
In78 O87 2.307 1_556 S
In78 O89 2.294 . S
In78 O90 2.326 . S
O79 In78 2.294 . S
O79 C88 1.240 . S
O80 In78 2.326 . S
O80 C88 1.252 . S
C81 O84 1.252 . S
C81 O85 1.260 . S
C82 O89 1.240 . S
C82 O90 1.252 . S
C83 O86 1.252 1_554 S
C83 O87 1.263 . S
O84 In78 2.266 . S
O84 C81 1.252 . S
O85 In78 2.326 . S
O85 C81 1.260 . S
O86 In78 2.266 . S
O86 C83 1.252 1_556 S
O87 In78 2.307 1_554 S
O87 C83 1.263 . S
C88 O79 1.240 . S
C88 O80 1.252 . S
O89 In78 2.294 . S
O89 C82 1.240 . S
O90 In78 2.326 . S
O90 C82 1.252 . S
In91 O92 2.294 . S
In91 O93 2.326 . S
In91 O97 2.266 . S
In91 O98 2.326 . S
In91 O99 2.266 . S
In91 O100 2.326 . S
In91 O102 2.294 . S
In91 O103 2.326 . S
O92 In91 2.294 . S
O92 C101 1.240 . S
O93 In91 2.326 . S
O93 C101 1.252 . S
C94 O97 1.252 . S
C94 O98 1.260 . S
C95 O102 1.240 . S
C95 O103 1.252 . S
C96 O99 1.252 . S
C96 O100 1.260 . S
O97 In91 2.266 . S
O97 C94 1.252 . S
O98 In91 2.326 . S
O98 C94 1.260 . S
O99 In91 2.266 . S
O99 C96 1.252 . S
O100 In91 2.326 . S
O100 C96 1.260 . S
C101 O92 1.240 . S
C101 O93 1.252 . S
O102 In91 2.294 . S
O102 C95 1.240 . S
O103 In91 2.326 . S
O103 C95 1.252 . S
In104 O105 2.294 . S
In104 O106 2.326 . S
In104 O110 2.266 . S
In104 O111 2.326 . S
In104 O112 2.266 . S
In104 O113 2.311 1_556 S
In104 O115 2.294 . S
In104 O116 2.326 . S
O105 In104 2.294 . S
O105 C114 1.240 . S
O106 In104 2.326 . S
O106 C114 1.252 . S
C107 O110 1.252 . S
C107 O111 1.260 . S
C108 O115 1.240 . S
C108 O116 1.252 . S
C109 O112 1.252 1_554 S
C109 O113 1.262 . S
O110 In104 2.266 . S
O110 C107 1.252 . S
O111 In104 2.326 . S
O111 C107 1.260 . S
O112 In104 2.266 . S
O112 C109 1.252 1_556 S
O113 In104 2.311 1_554 S
O113 C109 1.262 . S
C114 O105 1.240 . S
C114 O106 1.252 . S
O115 In104 2.294 . S
O115 C108 1.240 . S
O116 In104 2.326 . S
O116 C108 1.252 . S
In117 O118 2.294 . S
In117 O119 2.326 . S
In117 O123 2.266 . S
In117 O124 2.326 . S
In117 O125 2.266 . S
In117 O126 2.326 . S
In117 O128 2.294 . S
In117 O129 2.326 . S
O118 In117 2.294 . S
O118 C127 1.240 . S
O119 In117 2.326 . S
O119 C127 1.252 . S
C120 O123 1.252 . S
C120 O124 1.260 . S
C121 O128 1.240 . S
C121 O129 1.252 . S
C122 O125 1.252 . S
C122 O126 1.260 . S
O123 In117 2.266 . S
O123 C120 1.252 . S
O124 In117 2.326 . S
O124 C120 1.260 . S
O125 In117 2.266 . S
O125 C122 1.252 . S
O126 In117 2.326 . S
O126 C122 1.260 . S
C127 O118 1.240 . S
C127 O119 1.252 . S
O128 In117 2.294 . S
O128 C121 1.240 . S
O129 In117 2.326 . S
O129 C121 1.252 . S
In130 O131 2.294 . S
In130 O132 2.326 . S
In130 O136 2.266 . S
In130 O137 2.326 . S
In130 O138 2.266 . S
In130 O139 2.326 . S
In130 O141 2.294 . S
In130 O142 2.326 . S
O131 In130 2.294 . S
O131 C140 1.240 . S
O132 In130 2.326 . S
O132 C140 1.252 . S
C133 O136 1.252 . S
C133 O137 1.260 . S
C134 O141 1.240 . S
C134 O142 1.252 . S
C135 O138 1.252 . S
C135 O139 1.260 . S
O136 In130 2.266 . S
O136 C133 1.252 . S
O137 In130 2.326 . S
O137 C133 1.260 . S
O138 In130 2.266 . S
O138 C135 1.252 . S
O139 In130 2.326 . S
O139 C135 1.260 . S
C140 O131 1.240 . S
C140 O132 1.252 . S
O141 In130 2.294 . S
O141 C134 1.240 . S
O142 In130 2.326 . S
O142 C134 1.252 . S
In143 O144 2.294 . S
In143 O145 2.326 . S
In143 O149 2.266 . S
In143 O150 2.326 . S
In143 O151 2.266 . S
In143 O152 2.326 . S
In143 O154 2.294 . S
In143 O155 2.326 . S
O144 In143 2.294 . S
O144 C153 1.240 . S
O145 In143 2.326 . S
O145 C153 1.252 . S
C146 O149 1.252 . S
C146 O150 1.260 . S
C147 O154 1.240 . S
C147 O155 1.252 . S
C148 O151 1.252 . S
C148 O152 1.260 . S
O149 In143 2.266 . S
O149 C146 1.252 . S
O150 In143 2.326 . S
O150 C146 1.260 . S
O151 In143 2.266 . S
O151 C148 1.252 . S
O152 In143 2.326 . S
O152 C148 1.260 . S
C153 O144 1.240 . S
C153 O145 1.252 . S
O154 In143 2.294 . S
O154 C147 1.240 . S
O155 In143 2.326 . S
O155 C147 1.252 . S
In156 O157 2.294 . S
In156 O158 2.326 . S
In156 O162 2.266 . S
In156 O163 2.326 . S
In156 O164 2.266 . S
In156 O165 2.326 . S
In156 O167 2.294 . S
In156 O168 2.326 . S
O157 In156 2.294 . S
O157 C166 1.240 . S
O158 In156 2.326 . S
O158 C166 1.252 . S
C159 O162 1.252 . S
C159 O163 1.260 . S
C160 O167 1.240 . S
C160 O168 1.252 . S
C161 O164 1.252 . S
C161 O165 1.260 . S
O162 In156 2.266 . S
O162 C159 1.252 . S
O163 In156 2.326 . S
O163 C159 1.260 . S
O164 In156 2.266 . S
O164 C161 1.252 . S
O165 In156 2.326 . S
O165 C161 1.260 . S
C166 O157 1.240 . S
C166 O158 1.252 . S
O167 In156 2.294 . S
O167 C160 1.240 . S
O168 In156 2.326 . S
O168 C160 1.252 . S
In169 O170 2.294 . S
In169 O171 2.326 . S
In169 O175 2.266 . S
In169 O176 2.326 . S
In169 O177 2.266 . S
In169 O178 2.326 . S
In169 O180 2.294 . S
In169 O181 2.326 . S
O170 In169 2.294 . S
O170 C179 1.240 . S
O171 In169 2.326 . S
O171 C179 1.252 . S
C172 O175 1.252 . S
C172 O176 1.260 . S
C173 O180 1.240 . S
C173 O181 1.252 . S
C174 O177 1.252 . S
C174 O178 1.260 . S
O175 In169 2.266 . S
O175 C172 1.252 . S
O176 In169 2.326 . S
O176 C172 1.260 . S
O177 In169 2.266 . S
O177 C174 1.252 . S
O178 In169 2.326 . S
O178 C174 1.260 . S
C179 O170 1.240 . S
C179 O171 1.252 . S
O180 In169 2.294 . S
O180 C173 1.240 . S
O181 In169 2.326 . S
O181 C173 1.252 . S
In182 O183 2.294 . S
In182 O184 2.326 . S
In182 O188 2.266 . S
In182 O189 2.307 1_554 S
In182 O190 2.266 . S
In182 O191 2.326 . S
In182 O193 2.294 . S
In182 O194 2.326 . S
O183 In182 2.294 . S
O183 C192 1.240 . S
O184 In182 2.326 . S
O184 C192 1.252 . S
C185 O188 1.252 1_556 S
C185 O189 1.263 . S
C186 O193 1.240 . S
C186 O194 1.252 . S
C187 O190 1.252 . S
C187 O191 1.260 . S
O188 In182 2.266 . S
O188 C185 1.252 1_554 S
O189 In182 2.307 1_556 S
O189 C185 1.263 . S
O190 In182 2.266 . S
O190 C187 1.252 . S
O191 In182 2.326 . S
O191 C187 1.260 . S
C192 O183 1.240 . S
C192 O184 1.252 . S
O193 In182 2.294 . S
O193 C186 1.240 . S
O194 In182 2.326 . S
O194 C186 1.252 . S
In195 O196 2.294 . S
In195 O197 2.326 . S
In195 O201 2.266 . S
In195 O202 2.326 . S
In195 O203 2.266 . S
In195 O204 2.326 . S
In195 O206 2.294 . S
In195 O207 2.326 . S
O196 In195 2.294 . S
O196 C205 1.240 . S
O197 In195 2.326 . S
O197 C205 1.252 . S
C198 O201 1.252 . S
C198 O202 1.260 . S
C199 O206 1.240 . S
C199 O207 1.252 . S
C200 O203 1.252 . S
C200 O204 1.260 . S
O201 In195 2.266 . S
O201 C198 1.252 . S
O202 In195 2.326 . S
O202 C198 1.260 . S
O203 In195 2.266 . S
O203 C200 1.252 . S
O204 In195 2.326 . S
O204 C200 1.260 . S
C205 O196 1.240 . S
C205 O197 1.252 . S
O206 In195 2.294 . S
O206 C199 1.240 . S
O207 In195 2.326 . S
O207 C199 1.252 . S
In208 O209 2.294 . S
In208 O210 2.326 . S
In208 O214 2.266 . S
In208 O215 2.326 . S
In208 O216 2.266 . S
In208 O217 2.326 . S
In208 O219 2.294 . S
In208 O220 2.326 . S
O209 In208 2.294 . S
O209 C218 1.240 . S
O210 In208 2.326 . S
O210 C218 1.252 . S
C211 O214 1.252 . S
C211 O215 1.260 . S
C212 O219 1.240 . S
C212 O220 1.252 . S
C213 O216 1.252 . S
C213 O217 1.260 . S
O214 In208 2.266 . S
O214 C211 1.252 . S
O215 In208 2.326 . S
O215 C211 1.260 . S
O216 In208 2.266 . S
O216 C213 1.252 . S
O217 In208 2.326 . S
O217 C213 1.260 . S
C218 O209 1.240 . S
C218 O210 1.252 . S
O219 In208 2.294 . S
O219 C212 1.240 . S
O220 In208 2.326 . S
O220 C212 1.252 . S
In221 O222 2.294 . S
In221 O223 2.326 . S
In221 O227 2.266 . S
In221 O228 2.326 . S
In221 O229 2.266 . S
In221 O230 2.326 . S
In221 O232 2.294 . S
In221 O233 2.326 . S
O222 In221 2.294 . S
O222 C231 1.240 . S
O223 In221 2.326 . S
O223 C231 1.252 . S
C224 O227 1.252 . S
C224 O228 1.260 . S
C225 O232 1.240 . S
C225 O233 1.252 . S
C226 O229 1.252 . S
C226 O230 1.260 . S
O227 In221 2.266 . S
O227 C224 1.252 . S
O228 In221 2.326 . S
O228 C224 1.260 . S
O229 In221 2.266 . S
O229 C226 1.252 . S
O230 In221 2.326 . S
O230 C226 1.260 . S
C231 O222 1.240 . S
C231 O223 1.252 . S
O232 In221 2.294 . S
O232 C225 1.240 . S
O233 In221 2.326 . S
O233 C225 1.252 . S
In234 O235 2.294 . S
In234 O236 2.326 . S
In234 O240 2.266 . S
In234 O241 2.311 1_554 S
In234 O242 2.266 . S
In234 O243 2.326 . S
In234 O245 2.294 . S
In234 O246 2.326 . S
O235 In234 2.294 . S
O235 C244 1.240 . S
O236 In234 2.326 . S
O236 C244 1.252 . S
C237 O240 1.252 1_556 S
C237 O241 1.262 . S
C238 O245 1.240 . S
C238 O246 1.252 . S
C239 O242 1.252 . S
C239 O243 1.260 . S
O240 In234 2.266 . S
O240 C237 1.252 1_554 S
O241 In234 2.311 1_556 S
O241 C237 1.262 . S
O242 In234 2.266 . S
O242 C239 1.252 . S
O243 In234 2.326 . S
O243 C239 1.260 . S
C244 O235 1.240 . S
C244 O236 1.252 . S
O245 In234 2.294 . S
O245 C238 1.240 . S
O246 In234 2.326 . S
O246 C238 1.252 . S
In247 O248 2.294 . S
In247 O249 2.326 . S
In247 O253 2.266 . S
In247 O254 2.326 . S
In247 O255 2.266 . S
In247 O256 2.326 . S
In247 O258 2.294 . S
In247 O259 2.326 . S
O248 In247 2.294 . S
O248 C257 1.240 . S
O249 In247 2.326 . S
O249 C257 1.252 . S
C250 O253 1.252 . S
C250 O254 1.260 . S
C251 O258 1.240 . S
C251 O259 1.252 . S
C252 O255 1.252 . S
C252 O256 1.260 . S
O253 In247 2.266 . S
O253 C250 1.252 . S
O254 In247 2.326 . S
O254 C250 1.260 . S
O255 In247 2.266 . S
O255 C252 1.252 . S
O256 In247 2.326 . S
O256 C252 1.260 . S
C257 O248 1.240 . S
C257 O249 1.252 . S
O258 In247 2.294 . S
O258 C251 1.240 . S
O259 In247 2.326 . S
O259 C251 1.252 . S
In260 O261 2.294 . S
In260 O262 2.326 . S
In260 O266 2.266 . S
In260 O267 2.326 . S
In260 O268 2.266 . S
In260 O269 2.307 1_556 S
In260 O271 2.294 . S
In260 O272 2.326 . S
O261 In260 2.294 . S
O261 C270 1.240 . S
O262 In260 2.326 . S
O262 C270 1.252 . S
C263 O266 1.252 . S
C263 O267 1.260 . S
C264 O271 1.240 . S
C264 O272 1.252 . S
C265 O268 1.252 1_554 S
C265 O269 1.263 . S
O266 In260 2.266 . S
O266 C263 1.252 . S
O267 In260 2.326 . S
O267 C263 1.260 . S
O268 In260 2.266 . S
O268 C265 1.252 1_556 S
O269 In260 2.307 1_554 S
O269 C265 1.263 . S
C270 O261 1.240 . S
C270 O262 1.252 . S
O271 In260 2.294 . S
O271 C264 1.240 . S
O272 In260 2.326 . S
O272 C264 1.252 . S
In273 O274 2.294 . S
In273 O275 2.326 . S
In273 O279 2.266 . S
In273 O280 2.326 . S
In273 O281 2.266 . S
In273 O282 2.326 . S
In273 O284 2.294 . S
In273 O285 2.326 . S
O274 In273 2.294 . S
O274 C283 1.240 . S
O275 In273 2.326 . S
O275 C283 1.252 . S
C276 O279 1.252 . S
C276 O280 1.260 . S
C277 O284 1.240 . S
C277 O285 1.252 . S
C278 O281 1.252 . S
C278 O282 1.260 . S
O279 In273 2.266 . S
O279 C276 1.252 . S
O280 In273 2.326 . S
O280 C276 1.260 . S
O281 In273 2.266 . S
O281 C278 1.252 . S
O282 In273 2.326 . S
O282 C278 1.260 . S
C283 O274 1.240 . S
C283 O275 1.252 . S
O284 In273 2.294 . S
O284 C277 1.240 . S
O285 In273 2.326 . S
O285 C277 1.252 . S
In286 O287 2.294 . S
In286 O288 2.326 . S
In286 O292 2.266 . S
In286 O293 2.326 . S
In286 O294 2.266 . S
In286 O295 2.326 . S
In286 O297 2.294 . S
In286 O298 2.326 . S
O287 In286 2.294 . S
O287 C296 1.240 . S
O288 In286 2.326 . S
O288 C296 1.252 . S
C289 O292 1.252 . S
C289 O293 1.260 . S
C290 O297 1.240 . S
C290 O298 1.252 . S
C291 O294 1.252 . S
C291 O295 1.260 . S
O292 In286 2.266 . S
O292 C289 1.252 . S
O293 In286 2.326 . S
O293 C289 1.260 . S
O294 In286 2.266 . S
O294 C291 1.252 . S
O295 In286 2.326 . S
O295 C291 1.260 . S
C296 O287 1.240 . S
C296 O288 1.252 . S
O297 In286 2.294 . S
O297 C290 1.240 . S
O298 In286 2.326 . S
O298 C290 1.252 . S
In299 O300 2.294 . S
In299 O301 2.326 . S
In299 O305 2.266 . S
In299 O306 2.326 . S
In299 O307 2.266 . S
In299 O308 2.326 . S
In299 O310 2.294 . S
In299 O311 2.326 . S
O300 In299 2.294 . S
O300 C309 1.240 . S
O301 In299 2.326 . S
O301 C309 1.252 . S
C302 O305 1.252 . S
C302 O306 1.260 . S
C303 O310 1.240 . S
C303 O311 1.252 . S
C304 O307 1.252 . S
C304 O308 1.260 . S
O305 In299 2.266 . S
O305 C302 1.252 . S
O306 In299 2.326 . S
O306 C302 1.260 . S
O307 In299 2.266 . S
O307 C304 1.252 . S
O308 In299 2.326 . S
O308 C304 1.260 . S
C309 O300 1.240 . S
C309 O301 1.252 . S
O310 In299 2.294 . S
O310 C303 1.240 . S
O311 In299 2.326 . S
O311 C303 1.252 . S
In312 O313 2.294 . S
In312 O314 2.326 . S
In312 O318 2.266 . S
In312 O319 2.326 . S
In312 O320 2.266 . S
In312 O321 2.326 . S
In312 O323 2.294 . S
In312 O324 2.326 . S
O313 In312 2.294 . S
O313 C322 1.240 . S
O314 In312 2.326 . S
O314 C322 1.252 . S
C315 O318 1.252 . S
C315 O319 1.260 . S
C316 O323 1.240 . S
C316 O324 1.252 . S
C317 O320 1.252 . S
C317 O321 1.260 . S
O318 In312 2.266 . S
O318 C315 1.252 . S
O319 In312 2.326 . S
O319 C315 1.260 . S
O320 In312 2.266 . S
O320 C317 1.252 . S
O321 In312 2.326 . S
O321 C317 1.260 . S
C322 O313 1.240 . S
C322 O314 1.252 . S
O323 In312 2.294 . S
O323 C316 1.240 . S
O324 In312 2.326 . S
O324 C316 1.252 . S
In325 O326 2.294 . S
In325 O327 2.326 . S
In325 O331 2.266 . S
In325 O332 2.326 . S
In325 O333 2.266 . S
In325 O334 2.326 . S
In325 O336 2.294 . S
In325 O337 2.326 . S
O326 In325 2.294 . S
O326 C335 1.240 . S
O327 In325 2.326 . S
O327 C335 1.252 . S
C328 O331 1.252 . S
C328 O332 1.260 . S
C329 O336 1.240 . S
C329 O337 1.252 . S
C330 O333 1.252 . S
C330 O334 1.260 . S
O331 In325 2.266 . S
O331 C328 1.252 . S
O332 In325 2.326 . S
O332 C328 1.260 . S
O333 In325 2.266 . S
O333 C330 1.252 . S
O334 In325 2.326 . S
O334 C330 1.260 . S
C335 O326 1.240 . S
C335 O327 1.252 . S
O336 In325 2.294 . S
O336 C329 1.240 . S
O337 In325 2.326 . S
O337 C329 1.252 . S
In338 O339 2.294 . S
In338 O340 2.326 . S
In338 O344 2.266 . S
In338 O345 2.311 1_556 S
In338 O346 2.266 . S
In338 O347 2.326 . S
In338 O349 2.294 . S
In338 O350 2.326 . S
O339 In338 2.294 . S
O339 C348 1.240 . S
O340 In338 2.326 . S
O340 C348 1.252 . S
C341 O344 1.252 1_554 S
C341 O345 1.262 . S
C342 O349 1.240 . S
C342 O350 1.252 . S
C343 O346 1.252 . S
C343 O347 1.260 . S
O344 In338 2.266 . S
O344 C341 1.252 1_556 S
O345 In338 2.311 1_554 S
O345 C341 1.262 . S
O346 In338 2.266 . S
O346 C343 1.252 . S
O347 In338 2.326 . S
O347 C343 1.260 . S
C348 O339 1.240 . S
C348 O340 1.252 . S
O349 In338 2.294 . S
O349 C342 1.240 . S
O350 In338 2.326 . S
O350 C342 1.252 . S
In351 O352 2.294 . S
In351 O353 2.326 . S
In351 O357 2.266 . S
In351 O358 2.326 . S
In351 O359 2.266 . S
In351 O360 2.326 . S
In351 O362 2.294 . S
In351 O363 2.326 . S
O352 In351 2.294 . S
O352 C361 1.240 . S
O353 In351 2.326 . S
O353 C361 1.252 . S
C354 O357 1.252 . S
C354 O358 1.260 . S
C355 O362 1.240 . S
C355 O363 1.252 . S
C356 O359 1.252 . S
C356 O360 1.260 . S
O357 In351 2.266 . S
O357 C354 1.252 . S
O358 In351 2.326 . S
O358 C354 1.260 . S
O359 In351 2.266 . S
O359 C356 1.252 . S
O360 In351 2.326 . S
O360 C356 1.260 . S
C361 O352 1.240 . S
C361 O353 1.252 . S
O362 In351 2.294 . S
O362 C355 1.240 . S
O363 In351 2.326 . S
O363 C355 1.252 . S
In364 O365 2.294 . S
In364 O366 2.326 . S
In364 O370 2.266 . S
In364 O371 2.326 . S
In364 O372 2.266 . S
In364 O373 2.307 1_554 S
In364 O375 2.294 . S
In364 O376 2.326 . S
O365 In364 2.294 . S
O365 C374 1.240 . S
O366 In364 2.326 . S
O366 C374 1.252 . S
C367 O370 1.252 . S
C367 O371 1.260 . S
C368 O375 1.240 . S
C368 O376 1.252 . S
C369 O372 1.252 1_556 S
C369 O373 1.263 . S
O370 In364 2.266 . S
O370 C367 1.252 . S
O371 In364 2.326 . S
O371 C367 1.260 . S
O372 In364 2.266 . S
O372 C369 1.252 1_554 S
O373 In364 2.307 1_556 S
O373 C369 1.263 . S
C374 O365 1.240 . S
C374 O366 1.252 . S
O375 In364 2.294 . S
O375 C368 1.240 . S
O376 In364 2.326 . S
O376 C368 1.252 . S
In377 O378 2.294 . S
In377 O379 2.326 . S
In377 O383 2.266 . S
In377 O384 2.326 . S
In377 O385 2.266 . S
In377 O386 2.326 . S
In377 O388 2.294 . S
In377 O389 2.326 . S
O378 In377 2.294 . S
O378 C387 1.240 . S
O379 In377 2.326 . S
O379 C387 1.252 . S
C380 O383 1.252 . S
C380 O384 1.260 . S
C381 O388 1.240 . S
C381 O389 1.252 . S
C382 O385 1.252 . S
C382 O386 1.260 . S
O383 In377 2.266 . S
O383 C380 1.252 . S
O384 In377 2.326 . S
O384 C380 1.260 . S
O385 In377 2.266 . S
O385 C382 1.252 . S
O386 In377 2.326 . S
O386 C382 1.260 . S
C387 O378 1.240 . S
C387 O379 1.252 . S
O388 In377 2.294 . S
O388 C381 1.240 . S
O389 In377 2.326 . S
O389 C381 1.252 . S
In390 O391 2.294 . S
In390 O392 2.326 . S
In390 O396 2.266 . S
In390 O397 2.326 . S
In390 O398 2.266 . S
In390 O399 2.326 . S
In390 O401 2.294 . S
In390 O402 2.326 . S
O391 In390 2.294 . S
O391 C400 1.240 . S
O392 In390 2.326 . S
O392 C400 1.252 . S
C393 O396 1.252 . S
C393 O397 1.260 . S
C394 O401 1.240 . S
C394 O402 1.252 . S
C395 O398 1.252 . S
C395 O399 1.260 . S
O396 In390 2.266 . S
O396 C393 1.252 . S
O397 In390 2.326 . S
O397 C393 1.260 . S
O398 In390 2.266 . S
O398 C395 1.252 . S
O399 In390 2.326 . S
O399 C395 1.260 . S
C400 O391 1.240 . S
C400 O392 1.252 . S
O401 In390 2.294 . S
O401 C394 1.240 . S
O402 In390 2.326 . S
O402 C394 1.252 . S
In403 O404 2.294 . S
In403 O405 2.326 . S
In403 O409 2.266 . S
In403 O410 2.326 . S
In403 O411 2.266 . S
In403 O412 2.326 . S
In403 O414 2.294 . S
In403 O415 2.326 . S
O404 In403 2.294 . S
O404 C413 1.240 . S
O405 In403 2.326 . S
O405 C413 1.252 . S
C406 O409 1.252 . S
C406 O410 1.260 . S
C407 O414 1.240 . S
C407 O415 1.252 . S
C408 O411 1.252 . S
C408 O412 1.260 . S
O409 In403 2.266 . S
O409 C406 1.252 . S
O410 In403 2.326 . S
O410 C406 1.260 . S
O411 In403 2.266 . S
O411 C408 1.252 . S
O412 In403 2.326 . S
O412 C408 1.260 . S
C413 O404 1.240 . S
C413 O405 1.252 . S
O414 In403 2.294 . S
O414 C407 1.240 . S
O415 In403 2.326 . S
O415 C407 1.252 . S
C416 C417 1.349 . S
C416 C418 1.327 . S
C416 H441 0.950 . S
C417 C416 1.349 . S
C417 C433 1.349 . S
C418 C416 1.327 . S
C418 C437 1.429 . S
C418 H442 0.950 . S
C419 C436 1.574 . S
C419 C438 1.368 1_554 S
C419 H443 0.949 . S
H420 C424 0.949 . S
C421 C422 1.349 . S
C421 C423 1.327 . S
C421 H444 0.950 . S
C422 C421 1.349 . S
C422 C434 1.349 . S
C423 C421 1.327 . S
C423 C439 1.429 . S
C423 H445 0.950 . S
C424 H420 0.949 . S
C424 C432 1.574 . S
C424 C440 1.368 1_556 S
H425 C433 0.950 . S
H426 C431 0.950 1_554 S
H427 C432 0.949 . S
H428 C434 0.950 . S
H429 C435 0.950 1_556 S
H430 C436 0.949 . S
C431 H426 0.950 1_556 S
C431 C433 1.327 . S
C431 C437 1.429 . S
C432 C424 1.574 . S
C432 H427 0.949 . S
C432 C438 1.368 . S
C433 C417 1.349 . S
C433 H425 0.950 . S
C433 C431 1.327 . S
C434 C422 1.349 . S
C434 H428 0.950 . S
C434 C435 1.327 . S
C435 H429 0.950 1_554 S
C435 C434 1.327 . S
C435 C439 1.429 . S
C436 C419 1.574 . S
C436 H430 0.949 . S
C436 C440 1.368 . S
C437 C418 1.429 . S
C437 C431 1.429 . S
C437 C438 1.523 . S
C438 C419 1.368 1_556 S
C438 C432 1.368 . S
C438 C437 1.523 . S
C439 C423 1.429 . S
C439 C435 1.429 . S
C439 C440 1.523 . S
C440 C424 1.368 1_554 S
C440 C436 1.368 . S
C440 C439 1.523 . S
H441 C416 0.950 . S
H442 C418 0.950 . S
H443 C419 0.949 . S
H444 C421 0.950 . S
H445 C423 0.950 . S
C446 C447 1.349 . S
C446 C448 1.327 . S
C446 H471 0.950 . S
C447 C446 1.349 . S
C447 C463 1.349 . S
C448 C446 1.327 . S
C448 C467 1.429 . S
C448 H472 0.950 . S
C449 C466 1.574 1_565 S
C449 C468 1.368 . S
C449 H473 0.949 . S
H450 C454 0.949 . S
C451 C452 1.349 . S
C451 C453 1.327 . S
C451 H474 0.950 . S
C452 C451 1.349 . S
C452 C464 1.349 . S
C453 C451 1.327 . S
C453 C469 1.429 . S
C453 H475 0.950 . S
C454 H450 0.949 . S
C454 C462 1.574 1_545 S
C454 C470 1.368 . S
H455 C463 0.950 . S
H456 C461 0.950 . S
H457 C462 0.949 . S
H458 C464 0.950 . S
H459 C465 0.950 . S
H460 C466 0.949 . S
C461 H456 0.950 . S
C461 C463 1.327 . S
C461 C467 1.429 . S
C462 C454 1.574 1_565 S
C462 H457 0.949 . S
C462 C468 1.368 . S
C463 C447 1.349 . S
C463 H455 0.950 . S
C463 C461 1.327 . S
C464 C452 1.349 . S
C464 H458 0.950 . S
C464 C465 1.327 . S
C465 H459 0.950 . S
C465 C464 1.327 . S
C465 C469 1.429 . S
C466 C449 1.574 1_545 S
C466 H460 0.949 . S
C466 C470 1.368 . S
C467 C448 1.429 . S
C467 C461 1.429 . S
C467 C468 1.523 . S
C468 C449 1.368 . S
C468 C462 1.368 . S
C468 C467 1.523 . S
C469 C453 1.429 . S
C469 C465 1.429 . S
C469 C470 1.523 . S
C470 C454 1.368 . S
C470 C466 1.368 . S
C470 C469 1.523 . S
H471 C446 0.950 . S
H472 C448 0.950 . S
H473 C449 0.949 . S
H474 C451 0.950 . S
H475 C453 0.950 . S
C476 C477 1.349 . S
C476 C478 1.327 . S
C476 H501 0.950 . S
C477 C476 1.349 . S
C477 C493 1.349 . S
C478 C476 1.327 . S
C478 C497 1.429 . S
C478 H502 0.950 . S
C479 C496 1.574 . S
C479 C498 1.368 . S
C479 H503 0.949 . S
H480 C484 0.949 . S
C481 C482 1.349 . S
C481 C483 1.327 . S
C481 H504 0.950 . S
C482 C481 1.349 . S
C482 C494 1.349 . S
C483 C481 1.327 . S
C483 C499 1.429 . S
C483 H505 0.950 . S
C484 H480 0.949 . S
C484 C492 1.574 . S
C484 C500 1.368 . S
H485 C493 0.950 . S
H486 C491 0.950 . S
H487 C492 0.949 . S
H488 C494 0.950 . S
H489 C495 0.950 . S
H490 C496 0.949 . S
C491 H486 0.950 . S
C491 C493 1.327 . S
C491 C497 1.429 . S
C492 C484 1.574 . S
C492 H487 0.949 . S
C492 C498 1.368 . S
C493 C477 1.349 . S
C493 H485 0.950 . S
C493 C491 1.327 . S
C494 C482 1.349 . S
C494 H488 0.950 . S
C494 C495 1.327 . S
C495 H489 0.950 . S
C495 C494 1.327 . S
C495 C499 1.429 . S
C496 C479 1.574 . S
C496 H490 0.949 . S
C496 C500 1.368 . S
C497 C478 1.429 . S
C497 C491 1.429 . S
C497 C498 1.523 . S
C498 C479 1.368 . S
C498 C492 1.368 . S
C498 C497 1.523 . S
C499 C483 1.429 . S
C499 C495 1.429 . S
C499 C500 1.523 . S
C500 C484 1.368 . S
C500 C496 1.368 . S
C500 C499 1.523 . S
H501 C476 0.950 . S
H502 C478 0.950 . S
H503 C479 0.949 . S
H504 C481 0.950 . S
H505 C483 0.950 . S
C506 C507 1.349 . S
C506 C508 1.327 . S
C506 H531 0.950 . S
C507 C506 1.349 . S
C507 C523 1.349 . S
C508 C506 1.327 . S
C508 C527 1.429 . S
C508 H532 0.950 . S
C509 C526 1.574 1_545 S
C509 C528 1.368 . S
C509 H533 0.949 . S
H510 C514 0.949 . S
C511 C512 1.349 . S
C511 C513 1.327 . S
C511 H534 0.950 . S
C512 C511 1.349 . S
C512 C524 1.349 . S
C513 C511 1.327 . S
C513 C529 1.429 . S
C513 H535 0.950 . S
C514 H510 0.949 . S
C514 C522 1.574 1_565 S
C514 C530 1.368 . S
H515 C523 0.950 . S
H516 C521 0.950 . S
H517 C522 0.949 . S
H518 C524 0.950 . S
H519 C525 0.950 . S
H520 C526 0.949 . S
C521 H516 0.950 . S
C521 C523 1.327 . S
C521 C527 1.429 . S
C522 C514 1.574 1_545 S
C522 H517 0.949 . S
C522 C528 1.368 . S
C523 C507 1.349 . S
C523 H515 0.950 . S
C523 C521 1.327 . S
C524 C512 1.349 . S
C524 H518 0.950 . S
C524 C525 1.327 . S
C525 H519 0.950 . S
C525 C524 1.327 . S
C525 C529 1.429 . S
C526 C509 1.574 1_565 S
C526 H520 0.949 . S
C526 C530 1.368 . S
C527 C508 1.429 . S
C527 C521 1.429 . S
C527 C528 1.523 . S
C528 C509 1.368 . S
C528 C522 1.368 . S
C528 C527 1.523 . S
C529 C513 1.429 . S
C529 C525 1.429 . S
C529 C530 1.523 . S
C530 C514 1.368 . S
C530 C526 1.368 . S
C530 C529 1.523 . S
H531 C506 0.950 . S
H532 C508 0.950 . S
H533 C509 0.949 . S
H534 C511 0.950 . S
H535 C513 0.950 . S
C536 C537 1.349 . S
C536 C538 1.327 . S
C536 H561 0.950 . S
C537 C536 1.349 . S
C537 C553 1.349 . S
C538 C536 1.327 . S
C538 C557 1.429 . S
C538 H562 0.950 . S
C539 C556 1.574 . S
C539 C558 1.368 1_556 S
C539 H563 0.949 . S
H540 C544 0.949 . S
C541 C542 1.349 . S
C541 C543 1.327 . S
C541 H564 0.950 . S
C542 C541 1.349 . S
C542 C554 1.349 . S
C543 C541 1.327 . S
C543 C559 1.429 . S
C543 H565 0.950 . S
C544 H540 0.949 . S
C544 C552 1.574 . S
C544 C560 1.368 1_554 S
H545 C553 0.950 . S
H546 C551 0.950 1_556 S
H547 C552 0.949 . S
H548 C554 0.950 . S
H549 C555 0.950 1_554 S
H550 C556 0.949 . S
C551 H546 0.950 1_554 S
C551 C553 1.327 . S
C551 C557 1.429 . S
C552 C544 1.574 . S
C552 H547 0.949 . S
C552 C558 1.368 . S
C553 C537 1.349 . S
C553 H545 0.950 . S
C553 C551 1.327 . S
C554 C542 1.349 . S
C554 H548 0.950 . S
C554 C555 1.327 . S
C555 H549 0.950 1_556 S
C555 C554 1.327 . S
C555 C559 1.429 . S
C556 C539 1.574 . S
C556 H550 0.949 . S
C556 C560 1.368 . S
C557 C538 1.429 . S
C557 C551 1.429 . S
C557 C558 1.523 . S
C558 C539 1.368 1_554 S
C558 C552 1.368 . S
C558 C557 1.523 . S
C559 C543 1.429 . S
C559 C555 1.429 . S
C559 C560 1.523 . S
C560 C544 1.368 1_556 S
C560 C556 1.368 . S
C560 C559 1.523 . S
H561 C536 0.950 . S
H562 C538 0.950 . S
H563 C539 0.949 . S
H564 C541 0.950 . S
H565 C543 0.950 . S
C566 C567 1.349 . S
C566 C568 1.327 . S
C566 H591 0.950 . S
C567 C566 1.349 . S
C567 C583 1.349 . S
C568 C566 1.327 . S
C568 C587 1.429 . S
C568 H592 0.950 . S
C569 C586 1.574 1_565 S
C569 C588 1.368 . S
C569 H593 0.949 . S
H570 C574 0.949 . S
C571 C572 1.349 . S
C571 C573 1.327 . S
C571 H594 0.950 . S
C572 C571 1.349 . S
C572 C584 1.349 . S
C573 C571 1.327 . S
C573 C589 1.429 . S
C573 H595 0.950 . S
C574 H570 0.949 . S
C574 C582 1.574 1_545 S
C574 C590 1.368 . S
H575 C583 0.950 . S
H576 C581 0.950 . S
H577 C582 0.949 . S
H578 C584 0.950 . S
H579 C585 0.950 . S
H580 C586 0.949 . S
C581 H576 0.950 . S
C581 C583 1.327 . S
C581 C587 1.429 . S
C582 C574 1.574 1_565 S
C582 H577 0.949 . S
C582 C588 1.368 . S
C583 C567 1.349 . S
C583 H575 0.950 . S
C583 C581 1.327 . S
C584 C572 1.349 . S
C584 H578 0.950 . S
C584 C585 1.327 . S
C585 H579 0.950 . S
C585 C584 1.327 . S
C585 C589 1.429 . S
C586 C569 1.574 1_545 S
C586 H580 0.949 . S
C586 C590 1.368 . S
C587 C568 1.429 . S
C587 C581 1.429 . S
C587 C588 1.523 . S
C588 C569 1.368 . S
C588 C582 1.368 . S
C588 C587 1.523 . S
C589 C573 1.429 . S
C589 C585 1.429 . S
C589 C590 1.523 . S
C590 C574 1.368 . S
C590 C586 1.368 . S
C590 C589 1.523 . S
H591 C566 0.950 . S
H592 C568 0.950 . S
H593 C569 0.949 . S
H594 C571 0.950 . S
H595 C573 0.950 . S
C596 C597 1.349 . S
C596 C598 1.327 . S
C596 H621 0.950 . S
C597 C596 1.349 . S
C597 C613 1.349 . S
C598 C596 1.327 . S
C598 C617 1.429 . S
C598 H622 0.950 . S
C599 C616 1.574 . S
C599 C618 1.368 . S
C599 H623 0.949 . S
H600 C604 0.949 . S
C601 C602 1.349 . S
C601 C603 1.327 . S
C601 H624 0.950 . S
C602 C601 1.349 . S
C602 C614 1.349 . S
C603 C601 1.327 . S
C603 C619 1.429 . S
C603 H625 0.950 . S
C604 H600 0.949 . S
C604 C612 1.574 . S
C604 C620 1.368 . S
H605 C613 0.950 . S
H606 C611 0.950 . S
H607 C612 0.949 . S
H608 C614 0.950 . S
H609 C615 0.950 . S
H610 C616 0.949 . S
C611 H606 0.950 . S
C611 C613 1.327 . S
C611 C617 1.429 . S
C612 C604 1.574 . S
C612 H607 0.949 . S
C612 C618 1.368 . S
C613 C597 1.349 . S
C613 H605 0.950 . S
C613 C611 1.327 . S
C614 C602 1.349 . S
C614 H608 0.950 . S
C614 C615 1.327 . S
C615 H609 0.950 . S
C615 C614 1.327 . S
C615 C619 1.429 . S
C616 C599 1.574 . S
C616 H610 0.949 . S
C616 C620 1.368 . S
C617 C598 1.429 . S
C617 C611 1.429 . S
C617 C618 1.523 . S
C618 C599 1.368 . S
C618 C612 1.368 . S
C618 C617 1.523 . S
C619 C603 1.429 . S
C619 C615 1.429 . S
C619 C620 1.523 . S
C620 C604 1.368 . S
C620 C616 1.368 . S
C620 C619 1.523 . S
H621 C596 0.950 . S
H622 C598 0.950 . S
H623 C599 0.949 . S
H624 C601 0.950 . S
H625 C603 0.950 . S
C626 C627 1.349 . S
C626 C628 1.327 . S
C626 H651 0.950 . S
C627 C626 1.349 . S
C627 C643 1.349 . S
C628 C626 1.327 . S
C628 C647 1.429 . S
C628 H652 0.950 . S
C629 C646 1.574 1_565 S
C629 C648 1.368 . S
C629 H653 0.949 . S
H630 C634 0.949 . S
C631 C632 1.349 . S
C631 C633 1.327 . S
C631 H654 0.950 . S
C632 C631 1.349 . S
C632 C644 1.349 . S
C633 C631 1.327 . S
C633 C649 1.429 . S
C633 H655 0.950 . S
C634 H630 0.949 . S
C634 C642 1.574 1_545 S
C634 C650 1.368 . S
H635 C643 0.950 . S
H636 C641 0.950 . S
H637 C642 0.949 . S
H638 C644 0.950 . S
H639 C645 0.950 . S
H640 C646 0.949 . S
C641 H636 0.950 . S
C641 C643 1.327 . S
C641 C647 1.429 . S
C642 C634 1.574 1_565 S
C642 H637 0.949 . S
C642 C648 1.368 . S
C643 C627 1.349 . S
C643 H635 0.950 . S
C643 C641 1.327 . S
C644 C632 1.349 . S
C644 H638 0.950 . S
C644 C645 1.327 . S
C645 H639 0.950 . S
C645 C644 1.327 . S
C645 C649 1.429 . S
C646 C629 1.574 1_545 S
C646 H640 0.949 . S
C646 C650 1.368 . S
C647 C628 1.429 . S
C647 C641 1.429 . S
C647 C648 1.523 . S
C648 C629 1.368 . S
C648 C642 1.368 . S
C648 C647 1.523 . S
C649 C633 1.429 . S
C649 C645 1.429 . S
C649 C650 1.523 . S
C650 C634 1.368 . S
C650 C646 1.368 . S
C650 C649 1.523 . S
H651 C626 0.950 . S
H652 C628 0.950 . S
H653 C629 0.949 . S
H654 C631 0.950 . S
H655 C633 0.950 . S
C656 C657 1.349 . S
C656 C658 1.327 . S
C656 H681 0.950 . S
C657 C656 1.349 . S
C657 C673 1.349 . S
C658 C656 1.327 . S
C658 C677 1.429 . S
C658 H682 0.950 . S
C659 C676 1.574 . S
C659 C678 1.368 . S
C659 H683 0.949 . S
H660 C664 0.949 . S
C661 C662 1.349 . S
C661 C663 1.327 . S
C661 H684 0.950 . S
C662 C661 1.349 . S
C662 C674 1.349 . S
C663 C661 1.327 . S
C663 C679 1.429 . S
C663 H685 0.950 . S
C664 H660 0.949 . S
C664 C672 1.574 . S
C664 C680 1.368 . S
H665 C673 0.950 . S
H666 C671 0.950 . S
H667 C672 0.949 . S
H668 C674 0.950 . S
H669 C675 0.950 . S
H670 C676 0.949 . S
C671 H666 0.950 . S
C671 C673 1.327 . S
C671 C677 1.429 . S
C672 C664 1.574 . S
C672 H667 0.949 . S
C672 C678 1.368 . S
C673 C657 1.349 . S
C673 H665 0.950 . S
C673 C671 1.327 . S
C674 C662 1.349 . S
C674 H668 0.950 . S
C674 C675 1.327 . S
C675 H669 0.950 . S
C675 C674 1.327 . S
C675 C679 1.429 . S
C676 C659 1.574 . S
C676 H670 0.949 . S
C676 C680 1.368 . S
C677 C658 1.429 . S
C677 C671 1.429 . S
C677 C678 1.523 . S
C678 C659 1.368 . S
C678 C672 1.368 . S
C678 C677 1.523 . S
C679 C663 1.429 . S
C679 C675 1.429 . S
C679 C680 1.523 . S
C680 C664 1.368 . S
C680 C676 1.368 . S
C680 C679 1.523 . S
H681 C656 0.950 . S
H682 C658 0.950 . S
H683 C659 0.949 . S
H684 C661 0.950 . S
H685 C663 0.950 . S
C686 C687 1.349 . S
C686 C688 1.327 . S
C686 H711 0.950 . S
C687 C686 1.349 . S
C687 C703 1.349 . S
C688 C686 1.327 . S
C688 C707 1.429 . S
C688 H712 0.950 . S
C689 C706 1.574 . S
C689 C708 1.368 . S
C689 H713 0.949 . S
H690 C694 0.949 . S
C691 C692 1.349 . S
C691 C693 1.327 . S
C691 H714 0.950 . S
C692 C691 1.349 . S
C692 C704 1.349 . S
C693 C691 1.327 . S
C693 C709 1.429 . S
C693 H715 0.950 . S
C694 H690 0.949 . S
C694 C702 1.574 . S
C694 C710 1.368 . S
H695 C703 0.950 . S
H696 C701 0.950 . S
H697 C702 0.949 . S
H698 C704 0.950 . S
H699 C705 0.950 . S
H700 C706 0.949 . S
C701 H696 0.950 . S
C701 C703 1.327 . S
C701 C707 1.429 . S
C702 C694 1.574 . S
C702 H697 0.949 . S
C702 C708 1.368 . S
C703 C687 1.349 . S
C703 H695 0.950 . S
C703 C701 1.327 . S
C704 C692 1.349 . S
C704 H698 0.950 . S
C704 C705 1.327 . S
C705 H699 0.950 . S
C705 C704 1.327 . S
C705 C709 1.429 . S
C706 C689 1.574 . S
C706 H700 0.949 . S
C706 C710 1.368 . S
C707 C688 1.429 . S
C707 C701 1.429 . S
C707 C708 1.523 . S
C708 C689 1.368 . S
C708 C702 1.368 . S
C708 C707 1.523 . S
C709 C693 1.429 . S
C709 C705 1.429 . S
C709 C710 1.523 . S
C710 C694 1.368 . S
C710 C706 1.368 . S
C710 C709 1.523 . S
H711 C686 0.950 . S
H712 C688 0.950 . S
H713 C689 0.949 . S
H714 C691 0.950 . S
H715 C693 0.950 . S
C716 C717 1.349 . S
C716 C718 1.327 . S
C716 H741 0.950 . S
C717 C716 1.349 . S
C717 C733 1.349 . S
C718 C716 1.327 . S
C718 C737 1.429 . S
C718 H742 0.950 . S
C719 C736 1.574 . S
C719 C738 1.368 1_554 S
C719 H743 0.949 . S
H720 C724 0.949 . S
C721 C722 1.349 . S
C721 C723 1.327 . S
C721 H744 0.950 . S
C722 C721 1.349 . S
C722 C734 1.349 . S
C723 C721 1.327 . S
C723 C739 1.429 . S
C723 H745 0.950 . S
C724 H720 0.949 . S
C724 C732 1.574 . S
C724 C740 1.368 1_556 S
H725 C733 0.950 . S
H726 C731 0.950 1_554 S
H727 C732 0.949 . S
H728 C734 0.950 . S
H729 C735 0.950 1_556 S
H730 C736 0.949 . S
C731 H726 0.950 1_556 S
C731 C733 1.327 . S
C731 C737 1.429 . S
C732 C724 1.574 . S
C732 H727 0.949 . S
C732 C738 1.368 . S
C733 C717 1.349 . S
C733 H725 0.950 . S
C733 C731 1.327 . S
C734 C722 1.349 . S
C734 H728 0.950 . S
C734 C735 1.327 . S
C735 H729 0.950 1_554 S
C735 C734 1.327 . S
C735 C739 1.429 . S
C736 C719 1.574 . S
C736 H730 0.949 . S
C736 C740 1.368 . S
C737 C718 1.429 . S
C737 C731 1.429 . S
C737 C738 1.523 . S
C738 C719 1.368 1_556 S
C738 C732 1.368 . S
C738 C737 1.523 . S
C739 C723 1.429 . S
C739 C735 1.429 . S
C739 C740 1.523 . S
C740 C724 1.368 1_554 S
C740 C736 1.368 . S
C740 C739 1.523 . S
H741 C716 0.950 . S
H742 C718 0.950 . S
H743 C719 0.949 . S
H744 C721 0.950 . S
H745 C723 0.950 . S
C746 C747 1.349 . S
C746 C748 1.327 . S
C746 H771 0.950 . S
C747 C746 1.349 . S
C747 C763 1.349 . S
C748 C746 1.327 . S
C748 C767 1.429 . S
C748 H772 0.950 . S
C749 C766 1.574 . S
C749 C768 1.368 . S
C749 H773 0.949 . S
H750 C754 0.949 . S
C751 C752 1.349 . S
C751 C753 1.327 . S
C751 H774 0.950 . S
C752 C751 1.349 . S
C752 C764 1.349 . S
C753 C751 1.327 . S
C753 C769 1.429 . S
C753 H775 0.950 . S
C754 H750 0.949 . S
C754 C762 1.574 . S
C754 C770 1.368 . S
H755 C763 0.950 . S
H756 C761 0.950 . S
H757 C762 0.949 . S
H758 C764 0.950 . S
H759 C765 0.950 . S
H760 C766 0.949 . S
C761 H756 0.950 . S
C761 C763 1.327 . S
C761 C767 1.429 . S
C762 C754 1.574 . S
C762 H757 0.949 . S
C762 C768 1.368 . S
C763 C747 1.349 . S
C763 H755 0.950 . S
C763 C761 1.327 . S
C764 C752 1.349 . S
C764 H758 0.950 . S
C764 C765 1.327 . S
C765 H759 0.950 . S
C765 C764 1.327 . S
C765 C769 1.429 . S
C766 C749 1.574 . S
C766 H760 0.949 . S
C766 C770 1.368 . S
C767 C748 1.429 . S
C767 C761 1.429 . S
C767 C768 1.523 . S
C768 C749 1.368 . S
C768 C762 1.368 . S
C768 C767 1.523 . S
C769 C753 1.429 . S
C769 C765 1.429 . S
C769 C770 1.523 . S
C770 C754 1.368 . S
C770 C766 1.368 . S
C770 C769 1.523 . S
H771 C746 0.950 . S
H772 C748 0.950 . S
H773 C749 0.949 . S
H774 C751 0.950 . S
H775 C753 0.950 . S
C776 C777 1.349 . S
C776 C778 1.327 . S
C776 H801 0.950 . S
C777 C776 1.349 . S
C777 C793 1.349 . S
C778 C776 1.327 . S
C778 C797 1.429 . S
C778 H802 0.950 . S
C779 C796 1.574 . S
C779 C798 1.368 . S
C779 H803 0.949 . S
H780 C784 0.949 . S
C781 C782 1.349 . S
C781 C783 1.327 . S
C781 H804 0.950 . S
C782 C781 1.349 . S
C782 C794 1.349 . S
C783 C781 1.327 . S
C783 C799 1.429 . S
C783 H805 0.950 . S
C784 H780 0.949 . S
C784 C792 1.574 . S
C784 C800 1.368 . S
H785 C793 0.950 . S
H786 C791 0.950 . S
H787 C792 0.949 . S
H788 C794 0.950 . S
H789 C795 0.950 . S
H790 C796 0.949 . S
C791 H786 0.950 . S
C791 C793 1.327 . S
C791 C797 1.429 . S
C792 C784 1.574 . S
C792 H787 0.949 . S
C792 C798 1.368 . S
C793 C777 1.349 . S
C793 H785 0.950 . S
C793 C791 1.327 . S
C794 C782 1.349 . S
C794 H788 0.950 . S
C794 C795 1.327 . S
C795 H789 0.950 . S
C795 C794 1.327 . S
C795 C799 1.429 . S
C796 C779 1.574 . S
C796 H790 0.949 . S
C796 C800 1.368 . S
C797 C778 1.429 . S
C797 C791 1.429 . S
C797 C798 1.523 . S
C798 C779 1.368 . S
C798 C792 1.368 . S
C798 C797 1.523 . S
C799 C783 1.429 . S
C799 C795 1.429 . S
C799 C800 1.523 . S
C800 C784 1.368 . S
C800 C796 1.368 . S
C800 C799 1.523 . S
H801 C776 0.950 . S
H802 C778 0.950 . S
H803 C779 0.949 . S
H804 C781 0.950 . S
H805 C783 0.950 . S
C806 C807 1.349 . S
C806 C808 1.327 . S
C806 H831 0.950 . S
C807 C806 1.349 . S
C807 C823 1.349 . S
C808 C806 1.327 . S
C808 C827 1.429 . S
C808 H832 0.950 . S
C809 C826 1.574 . S
C809 C828 1.368 . S
C809 H833 0.949 . S
H810 C814 0.949 . S
C811 C812 1.349 . S
C811 C813 1.327 . S
C811 H834 0.950 . S
C812 C811 1.349 . S
C812 C824 1.349 . S
C813 C811 1.327 . S
C813 C829 1.429 . S
C813 H835 0.950 . S
C814 H810 0.949 . S
C814 C822 1.574 . S
C814 C830 1.368 . S
H815 C823 0.950 . S
H816 C821 0.950 . S
H817 C822 0.949 . S
H818 C824 0.950 . S
H819 C825 0.950 . S
H820 C826 0.949 . S
C821 H816 0.950 . S
C821 C823 1.327 . S
C821 C827 1.429 . S
C822 C814 1.574 . S
C822 H817 0.949 . S
C822 C828 1.368 . S
C823 C807 1.349 . S
C823 H815 0.950 . S
C823 C821 1.327 . S
C824 C812 1.349 . S
C824 H818 0.950 . S
C824 C825 1.327 . S
C825 H819 0.950 . S
C825 C824 1.327 . S
C825 C829 1.429 . S
C826 C809 1.574 . S
C826 H820 0.949 . S
C826 C830 1.368 . S
C827 C808 1.429 . S
C827 C821 1.429 . S
C827 C828 1.523 . S
C828 C809 1.368 . S
C828 C822 1.368 . S
C828 C827 1.523 . S
C829 C813 1.429 . S
C829 C825 1.429 . S
C829 C830 1.523 . S
C830 C814 1.368 . S
C830 C826 1.368 . S
C830 C829 1.523 . S
H831 C806 0.950 . S
H832 C808 0.950 . S
H833 C809 0.949 . S
H834 C811 0.950 . S
H835 C813 0.950 . S
C836 C837 1.349 . S
C836 C838 1.327 . S
C836 H861 0.950 . S
C837 C836 1.349 . S
C837 C853 1.349 . S
C838 C836 1.327 . S
C838 C857 1.429 . S
C838 H862 0.950 . S
C839 C856 1.574 . S
C839 C858 1.368 1_556 S
C839 H863 0.949 . S
H840 C844 0.949 . S
C841 C842 1.349 . S
C841 C843 1.327 . S
C841 H864 0.950 . S
C842 C841 1.349 . S
C842 C854 1.349 . S
C843 C841 1.327 . S
C843 C859 1.429 . S
C843 H865 0.950 . S
C844 H840 0.949 . S
C844 C852 1.574 . S
C844 C860 1.368 1_554 S
H845 C853 0.950 . S
H846 C851 0.950 1_556 S
H847 C852 0.949 . S
H848 C854 0.950 . S
H849 C855 0.950 1_554 S
H850 C856 0.949 . S
C851 H846 0.950 1_554 S
C851 C853 1.327 . S
C851 C857 1.429 . S
C852 C844 1.574 . S
C852 H847 0.949 . S
C852 C858 1.368 . S
C853 C837 1.349 . S
C853 H845 0.950 . S
C853 C851 1.327 . S
C854 C842 1.349 . S
C854 H848 0.950 . S
C854 C855 1.327 . S
C855 H849 0.950 1_556 S
C855 C854 1.327 . S
C855 C859 1.429 . S
C856 C839 1.574 . S
C856 H850 0.949 . S
C856 C860 1.368 . S
C857 C838 1.429 . S
C857 C851 1.429 . S
C857 C858 1.523 . S
C858 C839 1.368 1_554 S
C858 C852 1.368 . S
C858 C857 1.523 . S
C859 C843 1.429 . S
C859 C855 1.429 . S
C859 C860 1.523 . S
C860 C844 1.368 1_556 S
C860 C856 1.368 . S
C860 C859 1.523 . S
H861 C836 0.950 . S
H862 C838 0.950 . S
H863 C839 0.949 . S
H864 C841 0.950 . S
H865 C843 0.950 . S
C866 C867 1.349 . S
C866 C868 1.327 . S
C866 H891 0.950 . S
C867 C866 1.349 . S
C867 C883 1.349 . S
C868 C866 1.327 . S
C868 C887 1.429 . S
C868 H892 0.950 . S
C869 C886 1.574 . S
C869 C888 1.368 . S
C869 H893 0.949 . S
H870 C874 0.949 . S
C871 C872 1.349 . S
C871 C873 1.327 . S
C871 H894 0.950 . S
C872 C871 1.349 . S
C872 C884 1.349 . S
C873 C871 1.327 . S
C873 C889 1.429 . S
C873 H895 0.950 . S
C874 H870 0.949 . S
C874 C882 1.574 . S
C874 C890 1.368 . S
H875 C883 0.950 . S
H876 C881 0.950 . S
H877 C882 0.949 . S
H878 C884 0.950 . S
H879 C885 0.950 . S
H880 C886 0.949 . S
C881 H876 0.950 . S
C881 C883 1.327 . S
C881 C887 1.429 . S
C882 C874 1.574 . S
C882 H877 0.949 . S
C882 C888 1.368 . S
C883 C867 1.349 . S
C883 H875 0.950 . S
C883 C881 1.327 . S
C884 C872 1.349 . S
C884 H878 0.950 . S
C884 C885 1.327 . S
C885 H879 0.950 . S
C885 C884 1.327 . S
C885 C889 1.429 . S
C886 C869 1.574 . S
C886 H880 0.949 . S
C886 C890 1.368 . S
C887 C868 1.429 . S
C887 C881 1.429 . S
C887 C888 1.523 . S
C888 C869 1.368 . S
C888 C882 1.368 . S
C888 C887 1.523 . S
C889 C873 1.429 . S
C889 C885 1.429 . S
C889 C890 1.523 . S
C890 C874 1.368 . S
C890 C886 1.368 . S
C890 C889 1.523 . S
H891 C866 0.950 . S
H892 C868 0.950 . S
H893 C869 0.949 . S
H894 C871 0.950 . S
H895 C873 0.950 . S
C896 C897 1.349 . S
C896 C898 1.327 . S
C896 H921 0.950 . S
C897 C896 1.349 . S
C897 C913 1.349 . S
C898 C896 1.327 . S
C898 C917 1.429 . S
C898 H922 0.950 . S
C899 C916 1.574 . S
C899 C918 1.368 . S
C899 H923 0.949 . S
H900 C904 0.949 . S
C901 C902 1.349 . S
C901 C903 1.327 . S
C901 H924 0.950 . S
C902 C901 1.349 . S
C902 C914 1.349 . S
C903 C901 1.327 . S
C903 C919 1.429 . S
C903 H925 0.950 . S
C904 H900 0.949 . S
C904 C912 1.574 . S
C904 C920 1.368 . S
H905 C913 0.950 . S
H906 C911 0.950 . S
H907 C912 0.949 . S
H908 C914 0.950 . S
H909 C915 0.950 . S
H910 C916 0.949 . S
C911 H906 0.950 . S
C911 C913 1.327 . S
C911 C917 1.429 . S
C912 C904 1.574 . S
C912 H907 0.949 . S
C912 C918 1.368 . S
C913 C897 1.349 . S
C913 H905 0.950 . S
C913 C911 1.327 . S
C914 C902 1.349 . S
C914 H908 0.950 . S
C914 C915 1.327 . S
C915 H909 0.950 . S
C915 C914 1.327 . S
C915 C919 1.429 . S
C916 C899 1.574 . S
C916 H910 0.949 . S
C916 C920 1.368 . S
C917 C898 1.429 . S
C917 C911 1.429 . S
C917 C918 1.523 . S
C918 C899 1.368 . S
C918 C912 1.368 . S
C918 C917 1.523 . S
C919 C903 1.429 . S
C919 C915 1.429 . S
C919 C920 1.523 . S
C920 C904 1.368 . S
C920 C916 1.368 . S
C920 C919 1.523 . S
H921 C896 0.950 . S
H922 C898 0.950 . S
H923 C899 0.949 . S
H924 C901 0.950 . S
H925 C903 0.950 . S
C926 C927 1.349 . S
C926 C928 1.327 . S
C926 H951 0.950 . S
C927 C926 1.349 . S
C927 C943 1.349 . S
C928 C926 1.327 . S
C928 C947 1.429 . S
C928 H952 0.950 1_455 S
C929 C946 1.574 . S
C929 C948 1.368 . S
C929 H953 0.949 . S
H930 C934 0.949 . S
C931 C932 1.349 . S
C931 C933 1.327 . S
C931 H954 0.950 . S
C932 C931 1.349 . S
C932 C944 1.349 . S
C933 C931 1.327 . S
C933 C949 1.429 . S
C933 H955 0.950 1_655 S
C934 H930 0.949 . S
C934 C942 1.574 . S
C934 C950 1.368 . S
H935 C943 0.950 . S
H936 C941 0.950 . S
H937 C942 0.949 . S
H938 C944 0.950 . S
H939 C945 0.950 . S
H940 C946 0.949 . S
C941 H936 0.950 . S
C941 C943 1.327 . S
C941 C947 1.429 . S
C942 C934 1.574 . S
C942 H937 0.949 . S
C942 C948 1.368 1_655 S
C943 C927 1.349 . S
C943 H935 0.950 . S
C943 C941 1.327 . S
C944 C932 1.349 . S
C944 H938 0.950 . S
C944 C945 1.327 . S
C945 H939 0.950 . S
C945 C944 1.327 . S
C945 C949 1.429 . S
C946 C929 1.574 . S
C946 H940 0.949 . S
C946 C950 1.368 1_455 S
C947 C928 1.429 . S
C947 C941 1.429 . S
C947 C948 1.523 1_556 S
C948 C929 1.368 . S
C948 C942 1.368 1_455 S
C948 C947 1.523 1_554 S
C949 C933 1.429 . S
C949 C945 1.429 . S
C949 C950 1.523 . S
C950 C934 1.368 . S
C950 C946 1.368 1_655 S
C950 C949 1.523 . S
H951 C926 0.950 . S
H952 C928 0.950 1_655 S
H953 C929 0.949 . S
H954 C931 0.950 . S
H955 C933 0.950 1_455 S
C956 C957 1.349 . S
C956 C958 1.327 . S
C956 H981 0.950 . S
C957 C956 1.349 . S
C957 C973 1.349 . S
C958 C956 1.327 . S
C958 C977 1.429 . S
C958 H982 0.950 . S
C959 C976 1.574 . S
C959 C978 1.368 . S
C959 H983 0.949 . S
H960 C964 0.949 . S
C961 C962 1.349 . S
C961 C963 1.327 . S
C961 H984 0.950 . S
C962 C961 1.349 . S
C962 C974 1.349 . S
C963 C961 1.327 . S
C963 C979 1.429 . S
C963 H985 0.950 . S
C964 H960 0.949 . S
C964 C972 1.574 . S
C964 C980 1.368 . S
H965 C973 0.950 . S
H966 C971 0.950 . S
H967 C972 0.949 . S
H968 C974 0.950 . S
H969 C975 0.950 . S
H970 C976 0.949 . S
C971 H966 0.950 . S
C971 C973 1.327 . S
C971 C977 1.429 . S
C972 C964 1.574 . S
C972 H967 0.949 . S
C972 C978 1.368 . S
C973 C957 1.349 . S
C973 H965 0.950 . S
C973 C971 1.327 . S
C974 C962 1.349 . S
C974 H968 0.950 . S
C974 C975 1.327 . S
C975 H969 0.950 . S
C975 C974 1.327 . S
C975 C979 1.429 . S
C976 C959 1.574 . S
C976 H970 0.949 . S
C976 C980 1.368 . S
C977 C958 1.429 . S
C977 C971 1.429 . S
C977 C978 1.523 . S
C978 C959 1.368 . S
C978 C972 1.368 . S
C978 C977 1.523 . S
C979 C963 1.429 . S
C979 C975 1.429 . S
C979 C980 1.523 . S
C980 C964 1.368 . S
C980 C976 1.368 . S
C980 C979 1.523 . S
H981 C956 0.950 . S
H982 C958 0.950 . S
H983 C959 0.949 . S
H984 C961 0.950 . S
H985 C963 0.950 . S
C986 C987 1.349 . S
C986 C988 1.327 . S
C986 H1011 0.950 . S
C987 C986 1.349 . S
C987 C1003 1.349 . S
C988 C986 1.327 . S
C988 C1007 1.429 . S
C988 H1012 0.950 . S
C989 C1006 1.574 . S
C989 C1008 1.368 . S
C989 H1013 0.949 . S
H990 C994 0.949 . S
C991 C992 1.349 . S
C991 C993 1.327 . S
C991 H1014 0.950 . S
C992 C991 1.349 . S
C992 C1004 1.349 . S
C993 C991 1.327 . S
C993 C1009 1.429 . S
C993 H1015 0.950 . S
C994 H990 0.949 . S
C994 C1002 1.574 . S
C994 C1010 1.368 . S
H995 C1003 0.950 . S
H996 C1001 0.950 . S
H997 C1002 0.949 . S
H998 C1004 0.950 . S
H999 C1005 0.950 . S
H1000 C1006 0.949 . S
C1001 H996 0.950 . S
C1001 C1003 1.327 . S
C1001 C1007 1.429 . S
C1002 C994 1.574 . S
C1002 H997 0.949 . S
C1002 C1008 1.368 . S
C1003 C987 1.349 . S
C1003 H995 0.950 . S
C1003 C1001 1.327 . S
C1004 C992 1.349 . S
C1004 H998 0.950 . S
C1004 C1005 1.327 . S
C1005 H999 0.950 . S
C1005 C1004 1.327 . S
C1005 C1009 1.429 . S
C1006 C989 1.574 . S
C1006 H1000 0.949 . S
C1006 C1010 1.368 . S
C1007 C988 1.429 . S
C1007 C1001 1.429 . S
C1007 C1008 1.523 . S
C1008 C989 1.368 . S
C1008 C1002 1.368 . S
C1008 C1007 1.523 . S
C1009 C993 1.429 . S
C1009 C1005 1.429 . S
C1009 C1010 1.523 . S
C1010 C994 1.368 . S
C1010 C1006 1.368 . S
C1010 C1009 1.523 . S
H1011 C986 0.950 . S
H1012 C988 0.950 . S
H1013 C989 0.949 . S
H1014 C991 0.950 . S
H1015 C993 0.950 . S
C1016 C1017 1.349 . S
C1016 C1018 1.327 . S
C1016 H1041 0.950 . S
C1017 C1016 1.349 . S
C1017 C1033 1.349 . S
C1018 C1016 1.327 . S
C1018 C1037 1.429 . S
C1018 H1042 0.950 . S
C1019 C1036 1.574 . S
C1019 C1038 1.368 . S
C1019 H1043 0.949 . S
H1020 C1024 0.949 . S
C1021 C1022 1.349 . S
C1021 C1023 1.327 . S
C1021 H1044 0.950 . S
C1022 C1021 1.349 . S
C1022 C1034 1.349 . S
C1023 C1021 1.327 . S
C1023 C1039 1.429 . S
C1023 H1045 0.950 . S
C1024 H1020 0.949 . S
C1024 C1032 1.574 . S
C1024 C1040 1.368 . S
H1025 C1033 0.950 . S
H1026 C1031 0.950 . S
H1027 C1032 0.949 . S
H1028 C1034 0.950 . S
H1029 C1035 0.950 . S
H1030 C1036 0.949 . S
C1031 H1026 0.950 . S
C1031 C1033 1.327 . S
C1031 C1037 1.429 . S
C1032 C1024 1.574 . S
C1032 H1027 0.949 . S
C1032 C1038 1.368 . S
C1033 C1017 1.349 . S
C1033 H1025 0.950 . S
C1033 C1031 1.327 . S
C1034 C1022 1.349 . S
C1034 H1028 0.950 . S
C1034 C1035 1.327 . S
C1035 H1029 0.950 . S
C1035 C1034 1.327 . S
C1035 C1039 1.429 . S
C1036 C1019 1.574 . S
C1036 H1030 0.949 . S
C1036 C1040 1.368 . S
C1037 C1018 1.429 . S
C1037 C1031 1.429 . S
C1037 C1038 1.523 . S
C1038 C1019 1.368 . S
C1038 C1032 1.368 . S
C1038 C1037 1.523 . S
C1039 C1023 1.429 . S
C1039 C1035 1.429 . S
C1039 C1040 1.523 . S
C1040 C1024 1.368 . S
C1040 C1036 1.368 . S
C1040 C1039 1.523 . S
H1041 C1016 0.950 . S
H1042 C1018 0.950 . S
H1043 C1019 0.949 . S
H1044 C1021 0.950 . S
H1045 C1023 0.950 . S
C1046 C1047 1.349 . S
C1046 C1048 1.327 . S
C1046 H1071 0.950 . S
C1047 C1046 1.349 . S
C1047 C1063 1.349 . S
C1048 C1046 1.327 . S
C1048 C1067 1.429 . S
C1048 H1072 0.950 . S
C1049 C1066 1.574 . S
C1049 C1068 1.368 . S
C1049 H1073 0.949 . S
H1050 C1054 0.949 . S
C1051 C1052 1.349 . S
C1051 C1053 1.327 . S
C1051 H1074 0.950 . S
C1052 C1051 1.349 . S
C1052 C1064 1.349 . S
C1053 C1051 1.327 . S
C1053 C1069 1.429 . S
C1053 H1075 0.950 . S
C1054 H1050 0.949 . S
C1054 C1062 1.574 . S
C1054 C1070 1.368 . S
H1055 C1063 0.950 . S
H1056 C1061 0.950 . S
H1057 C1062 0.949 . S
H1058 C1064 0.950 . S
H1059 C1065 0.950 . S
H1060 C1066 0.949 . S
C1061 H1056 0.950 . S
C1061 C1063 1.327 . S
C1061 C1067 1.429 . S
C1062 C1054 1.574 . S
C1062 H1057 0.949 . S
C1062 C1068 1.368 . S
C1063 C1047 1.349 . S
C1063 H1055 0.950 . S
C1063 C1061 1.327 . S
C1064 C1052 1.349 . S
C1064 H1058 0.950 . S
C1064 C1065 1.327 . S
C1065 H1059 0.950 . S
C1065 C1064 1.327 . S
C1065 C1069 1.429 . S
C1066 C1049 1.574 . S
C1066 H1060 0.949 . S
C1066 C1070 1.368 . S
C1067 C1048 1.429 . S
C1067 C1061 1.429 . S
C1067 C1068 1.523 1_554 S
C1068 C1049 1.368 . S
C1068 C1062 1.368 . S
C1068 C1067 1.523 1_556 S
C1069 C1053 1.429 . S
C1069 C1065 1.429 . S
C1069 C1070 1.523 . S
C1070 C1054 1.368 . S
C1070 C1066 1.368 . S
C1070 C1069 1.523 . S
H1071 C1046 0.950 . S
H1072 C1048 0.950 . S
H1073 C1049 0.949 . S
H1074 C1051 0.950 . S
H1075 C1053 0.950 . S
C1076 C1077 1.349 . S
C1076 C1078 1.327 . S
C1076 H1101 0.950 . S
C1077 C1076 1.349 . S
C1077 C1093 1.349 . S
C1078 C1076 1.327 . S
C1078 C1097 1.429 . S
C1078 H1102 0.950 . S
C1079 C1096 1.574 . S
C1079 C1098 1.368 . S
C1079 H1103 0.949 . S
H1080 C1084 0.949 . S
C1081 C1082 1.349 . S
C1081 C1083 1.327 . S
C1081 H1104 0.950 . S
C1082 C1081 1.349 . S
C1082 C1094 1.349 . S
C1083 C1081 1.327 . S
C1083 C1099 1.429 . S
C1083 H1105 0.950 . S
C1084 H1080 0.949 . S
C1084 C1092 1.574 . S
C1084 C1100 1.368 . S
H1085 C1093 0.950 . S
H1086 C1091 0.950 . S
H1087 C1092 0.949 . S
H1088 C1094 0.950 . S
H1089 C1095 0.950 . S
H1090 C1096 0.949 . S
C1091 H1086 0.950 . S
C1091 C1093 1.327 . S
C1091 C1097 1.429 . S
C1092 C1084 1.574 . S
C1092 H1087 0.949 . S
C1092 C1098 1.368 . S
C1093 C1077 1.349 . S
C1093 H1085 0.950 . S
C1093 C1091 1.327 . S
C1094 C1082 1.349 . S
C1094 H1088 0.950 . S
C1094 C1095 1.327 . S
C1095 H1089 0.950 . S
C1095 C1094 1.327 . S
C1095 C1099 1.429 . S
C1096 C1079 1.574 . S
C1096 H1090 0.949 . S
C1096 C1100 1.368 . S
C1097 C1078 1.429 . S
C1097 C1091 1.429 . S
C1097 C1098 1.523 . S
C1098 C1079 1.368 . S
C1098 C1092 1.368 . S
C1098 C1097 1.523 . S
C1099 C1083 1.429 . S
C1099 C1095 1.429 . S
C1099 C1100 1.523 . S
C1100 C1084 1.368 . S
C1100 C1096 1.368 . S
C1100 C1099 1.523 . S
H1101 C1076 0.950 . S
H1102 C1078 0.950 . S
H1103 C1079 0.949 . S
H1104 C1081 0.950 . S
H1105 C1083 0.950 . S
C1106 C1107 1.349 . S
C1106 C1108 1.327 . S
C1106 H1131 0.950 . S
C1107 C1106 1.349 . S
C1107 C1123 1.349 . S
C1108 C1106 1.327 . S
C1108 C1127 1.429 . S
C1108 H1132 0.950 . S
C1109 C1126 1.574 . S
C1109 C1128 1.368 1_655 S
C1109 H1133 0.949 . S
H1110 C1114 0.949 . S
C1111 C1112 1.349 . S
C1111 C1113 1.327 . S
C1111 H1134 0.950 . S
C1112 C1111 1.349 . S
C1112 C1124 1.349 . S
C1113 C1111 1.327 . S
C1113 C1129 1.429 . S
C1113 H1135 0.950 . S
C1114 H1110 0.949 . S
C1114 C1122 1.574 . S
C1114 C1130 1.368 1_455 S
H1115 C1123 0.950 . S
H1116 C1121 0.950 1_655 S
H1117 C1122 0.949 . S
H1118 C1124 0.950 . S
H1119 C1125 0.950 1_455 S
H1120 C1126 0.949 . S
C1121 H1116 0.950 1_455 S
C1121 C1123 1.327 . S
C1121 C1127 1.429 . S
C1122 C1114 1.574 . S
C1122 H1117 0.949 . S
C1122 C1128 1.368 . S
C1123 C1107 1.349 . S
C1123 H1115 0.950 . S
C1123 C1121 1.327 . S
C1124 C1112 1.349 . S
C1124 H1118 0.950 . S
C1124 C1125 1.327 . S
C1125 H1119 0.950 1_655 S
C1125 C1124 1.327 . S
C1125 C1129 1.429 . S
C1126 C1109 1.574 . S
C1126 H1120 0.949 . S
C1126 C1130 1.368 . S
C1127 C1108 1.429 . S
C1127 C1121 1.429 . S
C1127 C1128 1.523 . S
C1128 C1109 1.368 1_455 S
C1128 C1122 1.368 . S
C1128 C1127 1.523 . S
C1129 C1113 1.429 . S
C1129 C1125 1.429 . S
C1129 C1130 1.523 . S
C1130 C1114 1.368 1_655 S
C1130 C1126 1.368 . S
C1130 C1129 1.523 . S
H1131 C1106 0.950 . S
H1132 C1108 0.950 . S
H1133 C1109 0.949 . S
H1134 C1111 0.950 . S
H1135 C1113 0.950 . S
C1136 C1137 1.349 . S
C1136 C1138 1.327 . S
C1136 H1161 0.950 . S
C1137 C1136 1.349 . S
C1137 C1153 1.349 . S
C1138 C1136 1.327 . S
C1138 C1157 1.429 . S
C1138 H1162 0.950 . S
C1139 C1156 1.574 . S
C1139 C1158 1.368 . S
C1139 H1163 0.949 . S
H1140 C1144 0.949 . S
C1141 C1142 1.349 . S
C1141 C1143 1.327 . S
C1141 H1164 0.950 . S
C1142 C1141 1.349 . S
C1142 C1154 1.349 . S
C1143 C1141 1.327 . S
C1143 C1159 1.429 . S
C1143 H1165 0.950 . S
C1144 H1140 0.949 . S
C1144 C1152 1.574 . S
C1144 C1160 1.368 . S
H1145 C1153 0.950 . S
H1146 C1151 0.950 . S
H1147 C1152 0.949 . S
H1148 C1154 0.950 . S
H1149 C1155 0.950 . S
H1150 C1156 0.949 . S
C1151 H1146 0.950 . S
C1151 C1153 1.327 . S
C1151 C1157 1.429 . S
C1152 C1144 1.574 . S
C1152 H1147 0.949 . S
C1152 C1158 1.368 . S
C1153 C1137 1.349 . S
C1153 H1145 0.950 . S
C1153 C1151 1.327 . S
C1154 C1142 1.349 . S
C1154 H1148 0.950 . S
C1154 C1155 1.327 . S
C1155 H1149 0.950 . S
C1155 C1154 1.327 . S
C1155 C1159 1.429 . S
C1156 C1139 1.574 . S
C1156 H1150 0.949 . S
C1156 C1160 1.368 . S
C1157 C1138 1.429 . S
C1157 C1151 1.429 . S
C1157 C1158 1.523 . S
C1158 C1139 1.368 . S
C1158 C1152 1.368 . S
C1158 C1157 1.523 . S
C1159 C1143 1.429 . S
C1159 C1155 1.429 . S
C1159 C1160 1.523 . S
C1160 C1144 1.368 . S
C1160 C1156 1.368 . S
C1160 C1159 1.523 . S
H1161 C1136 0.950 . S
H1162 C1138 0.950 . S
H1163 C1139 0.949 . S
H1164 C1141 0.950 . S
H1165 C1143 0.950 . S
C1166 C1167 1.349 . S
C1166 C1168 1.327 . S
C1166 H1191 0.950 . S
C1167 C1166 1.349 . S
C1167 C1183 1.349 . S
C1168 C1166 1.327 . S
C1168 C1187 1.429 . S
C1168 H1192 0.950 . S
C1169 C1186 1.574 . S
C1169 C1188 1.368 1_455 S
C1169 H1193 0.949 . S
H1170 C1174 0.949 . S
C1171 C1172 1.349 . S
C1171 C1173 1.327 . S
C1171 H1194 0.950 . S
C1172 C1171 1.349 . S
C1172 C1184 1.349 . S
C1173 C1171 1.327 . S
C1173 C1189 1.429 . S
C1173 H1195 0.950 . S
C1174 H1170 0.949 . S
C1174 C1182 1.574 . S
C1174 C1190 1.368 1_655 S
H1175 C1183 0.950 . S
H1176 C1181 0.950 1_455 S
H1177 C1182 0.949 . S
H1178 C1184 0.950 . S
H1179 C1185 0.950 1_655 S
H1180 C1186 0.949 . S
C1181 H1176 0.950 1_655 S
C1181 C1183 1.327 . S
C1181 C1187 1.429 . S
C1182 C1174 1.574 . S
C1182 H1177 0.949 . S
C1182 C1188 1.368 . S
C1183 C1167 1.349 . S
C1183 H1175 0.950 . S
C1183 C1181 1.327 . S
C1184 C1172 1.349 . S
C1184 H1178 0.950 . S
C1184 C1185 1.327 . S
C1185 H1179 0.950 1_455 S
C1185 C1184 1.327 . S
C1185 C1189 1.429 . S
C1186 C1169 1.574 . S
C1186 H1180 0.949 . S
C1186 C1190 1.368 . S
C1187 C1168 1.429 . S
C1187 C1181 1.429 . S
C1187 C1188 1.523 1_554 S
C1188 C1169 1.368 1_655 S
C1188 C1182 1.368 . S
C1188 C1187 1.523 1_556 S
C1189 C1173 1.429 . S
C1189 C1185 1.429 . S
C1189 C1190 1.523 . S
C1190 C1174 1.368 1_455 S
C1190 C1186 1.368 . S
C1190 C1189 1.523 . S
H1191 C1166 0.950 . S
H1192 C1168 0.950 . S
H1193 C1169 0.949 . S
H1194 C1171 0.950 . S
H1195 C1173 0.950 . S
C1196 C1197 1.349 . S
C1196 C1198 1.327 . S
C1196 H1221 0.950 . S
C1197 C1196 1.349 . S
C1197 C1213 1.349 . S
C1198 C1196 1.327 . S
C1198 C1217 1.429 . S
C1198 H1222 0.950 . S
C1199 C1216 1.574 . S
C1199 C1218 1.368 . S
C1199 H1223 0.949 . S
H1200 C1204 0.949 . S
C1201 C1202 1.349 . S
C1201 C1203 1.327 . S
C1201 H1224 0.950 . S
C1202 C1201 1.349 . S
C1202 C1214 1.349 . S
C1203 C1201 1.327 . S
C1203 C1219 1.429 . S
C1203 H1225 0.950 . S
C1204 H1200 0.949 . S
C1204 C1212 1.574 . S
C1204 C1220 1.368 . S
H1205 C1213 0.950 . S
H1206 C1211 0.950 . S
H1207 C1212 0.949 . S
H1208 C1214 0.950 . S
H1209 C1215 0.950 . S
H1210 C1216 0.949 . S
C1211 H1206 0.950 . S
C1211 C1213 1.327 . S
C1211 C1217 1.429 . S
C1212 C1204 1.574 . S
C1212 H1207 0.949 . S
C1212 C1218 1.368 . S
C1213 C1197 1.349 . S
C1213 H1205 0.950 . S
C1213 C1211 1.327 . S
C1214 C1202 1.349 . S
C1214 H1208 0.950 . S
C1214 C1215 1.327 . S
C1215 H1209 0.950 . S
C1215 C1214 1.327 . S
C1215 C1219 1.429 . S
C1216 C1199 1.574 . S
C1216 H1210 0.949 . S
C1216 C1220 1.368 . S
C1217 C1198 1.429 . S
C1217 C1211 1.429 . S
C1217 C1218 1.523 . S
C1218 C1199 1.368 . S
C1218 C1212 1.368 . S
C1218 C1217 1.523 . S
C1219 C1203 1.429 . S
C1219 C1215 1.429 . S
C1219 C1220 1.523 . S
C1220 C1204 1.368 . S
C1220 C1216 1.368 . S
C1220 C1219 1.523 . S
H1221 C1196 0.950 . S
H1222 C1198 0.950 . S
H1223 C1199 0.949 . S
H1224 C1201 0.950 . S
H1225 C1203 0.950 . S
C1226 C1227 1.349 . S
C1226 C1228 1.327 . S
C1226 H1251 0.950 . S
C1227 C1226 1.349 . S
C1227 C1243 1.349 . S
C1228 C1226 1.327 . S
C1228 C1247 1.429 . S
C1228 H1252 0.950 . S
C1229 C1246 1.574 . S
C1229 C1248 1.368 . S
C1229 H1253 0.949 . S
H1230 C1234 0.949 . S
C1231 C1232 1.349 . S
C1231 C1233 1.327 . S
C1231 H1254 0.950 . S
C1232 C1231 1.349 . S
C1232 C1244 1.349 . S
C1233 C1231 1.327 . S
C1233 C1249 1.429 . S
C1233 H1255 0.950 . S
C1234 H1230 0.949 . S
C1234 C1242 1.574 . S
C1234 C1250 1.368 . S
H1235 C1243 0.950 . S
H1236 C1241 0.950 . S
H1237 C1242 0.949 . S
H1238 C1244 0.950 . S
H1239 C1245 0.950 . S
H1240 C1246 0.949 . S
C1241 H1236 0.950 . S
C1241 C1243 1.327 . S
C1241 C1247 1.429 . S
C1242 C1234 1.574 . S
C1242 H1237 0.949 . S
C1242 C1248 1.368 . S
C1243 C1227 1.349 . S
C1243 H1235 0.950 . S
C1243 C1241 1.327 . S
C1244 C1232 1.349 . S
C1244 H1238 0.950 . S
C1244 C1245 1.327 . S
C1245 H1239 0.950 . S
C1245 C1244 1.327 . S
C1245 C1249 1.429 . S
C1246 C1229 1.574 . S
C1246 H1240 0.949 . S
C1246 C1250 1.368 . S
C1247 C1228 1.429 . S
C1247 C1241 1.429 . S
C1247 C1248 1.523 . S
C1248 C1229 1.368 . S
C1248 C1242 1.368 . S
C1248 C1247 1.523 . S
C1249 C1233 1.429 . S
C1249 C1245 1.429 . S
C1249 C1250 1.523 . S
C1250 C1234 1.368 . S
C1250 C1246 1.368 . S
C1250 C1249 1.523 . S
H1251 C1226 0.950 . S
H1252 C1228 0.950 . S
H1253 C1229 0.949 . S
H1254 C1231 0.950 . S
H1255 C1233 0.950 . S
C1256 C1257 1.349 . S
C1256 C1258 1.327 . S
C1256 H1281 0.950 . S
C1257 C1256 1.349 . S
C1257 C1273 1.349 . S
C1258 C1256 1.327 . S
C1258 C1277 1.429 . S
C1258 H1282 0.950 . S
C1259 C1276 1.574 . S
C1259 C1278 1.368 . S
C1259 H1283 0.949 . S
H1260 C1264 0.949 . S
C1261 C1262 1.349 . S
C1261 C1263 1.327 . S
C1261 H1284 0.950 . S
C1262 C1261 1.349 . S
C1262 C1274 1.349 . S
C1263 C1261 1.327 . S
C1263 C1279 1.429 . S
C1263 H1285 0.950 . S
C1264 H1260 0.949 . S
C1264 C1272 1.574 . S
C1264 C1280 1.368 . S
H1265 C1273 0.950 . S
H1266 C1271 0.950 . S
H1267 C1272 0.949 . S
H1268 C1274 0.950 . S
H1269 C1275 0.950 . S
H1270 C1276 0.949 . S
C1271 H1266 0.950 . S
C1271 C1273 1.327 . S
C1271 C1277 1.429 . S
C1272 C1264 1.574 . S
C1272 H1267 0.949 . S
C1272 C1278 1.368 . S
C1273 C1257 1.349 . S
C1273 H1265 0.950 . S
C1273 C1271 1.327 . S
C1274 C1262 1.349 . S
C1274 H1268 0.950 . S
C1274 C1275 1.327 . S
C1275 H1269 0.950 . S
C1275 C1274 1.327 . S
C1275 C1279 1.429 . S
C1276 C1259 1.574 . S
C1276 H1270 0.949 . S
C1276 C1280 1.368 . S
C1277 C1258 1.429 . S
C1277 C1271 1.429 . S
C1277 C1278 1.523 . S
C1278 C1259 1.368 . S
C1278 C1272 1.368 . S
C1278 C1277 1.523 . S
C1279 C1263 1.429 . S
C1279 C1275 1.429 . S
C1279 C1280 1.523 . S
C1280 C1264 1.368 . S
C1280 C1276 1.368 . S
C1280 C1279 1.523 . S
H1281 C1256 0.950 . S
H1282 C1258 0.950 . S
H1283 C1259 0.949 . S
H1284 C1261 0.950 . S
H1285 C1263 0.950 . S
C1286 C1287 1.349 . S
C1286 C1288 1.327 . S
C1286 H1311 0.950 . S
C1287 C1286 1.349 . S
C1287 C1303 1.349 . S
C1288 C1286 1.327 . S
C1288 C1307 1.429 . S
C1288 H1312 0.950 . S
C1289 C1306 1.574 . S
C1289 C1308 1.368 . S
C1289 H1313 0.949 . S
H1290 C1294 0.949 . S
C1291 C1292 1.349 . S
C1291 C1293 1.327 . S
C1291 H1314 0.950 . S
C1292 C1291 1.349 . S
C1292 C1304 1.349 . S
C1293 C1291 1.327 . S
C1293 C1309 1.429 . S
C1293 H1315 0.950 . S
C1294 H1290 0.949 . S
C1294 C1302 1.574 . S
C1294 C1310 1.368 . S
H1295 C1303 0.950 . S
H1296 C1301 0.950 . S
H1297 C1302 0.949 . S
H1298 C1304 0.950 . S
H1299 C1305 0.950 . S
H1300 C1306 0.949 . S
C1301 H1296 0.950 . S
C1301 C1303 1.327 . S
C1301 C1307 1.429 . S
C1302 C1294 1.574 . S
C1302 H1297 0.949 . S
C1302 C1308 1.368 . S
C1303 C1287 1.349 . S
C1303 H1295 0.950 . S
C1303 C1301 1.327 . S
C1304 C1292 1.349 . S
C1304 H1298 0.950 . S
C1304 C1305 1.327 . S
C1305 H1299 0.950 . S
C1305 C1304 1.327 . S
C1305 C1309 1.429 . S
C1306 C1289 1.574 . S
C1306 H1300 0.949 . S
C1306 C1310 1.368 . S
C1307 C1288 1.429 . S
C1307 C1301 1.429 . S
C1307 C1308 1.523 . S
C1308 C1289 1.368 . S
C1308 C1302 1.368 . S
C1308 C1307 1.523 . S
C1309 C1293 1.429 . S
C1309 C1305 1.429 . S
C1309 C1310 1.523 1_556 S
C1310 C1294 1.368 . S
C1310 C1306 1.368 . S
C1310 C1309 1.523 1_554 S
H1311 C1286 0.950 . S
H1312 C1288 0.950 . S
H1313 C1289 0.949 . S
H1314 C1291 0.950 . S
H1315 C1293 0.950 . S
C1316 C1317 1.349 . S
C1316 C1318 1.327 . S
C1316 H1341 0.950 . S
C1317 C1316 1.349 . S
C1317 C1333 1.349 . S
C1318 C1316 1.327 . S
C1318 C1337 1.429 . S
C1318 H1342 0.950 . S
C1319 C1336 1.574 . S
C1319 C1338 1.368 . S
C1319 H1343 0.949 . S
H1320 C1324 0.949 . S
C1321 C1322 1.349 . S
C1321 C1323 1.327 . S
C1321 H1344 0.950 . S
C1322 C1321 1.349 . S
C1322 C1334 1.349 . S
C1323 C1321 1.327 . S
C1323 C1339 1.429 . S
C1323 H1345 0.950 . S
C1324 H1320 0.949 . S
C1324 C1332 1.574 . S
C1324 C1340 1.368 . S
H1325 C1333 0.950 . S
H1326 C1331 0.950 . S
H1327 C1332 0.949 . S
H1328 C1334 0.950 . S
H1329 C1335 0.950 . S
H1330 C1336 0.949 . S
C1331 H1326 0.950 . S
C1331 C1333 1.327 . S
C1331 C1337 1.429 . S
C1332 C1324 1.574 . S
C1332 H1327 0.949 . S
C1332 C1338 1.368 . S
C1333 C1317 1.349 . S
C1333 H1325 0.950 . S
C1333 C1331 1.327 . S
C1334 C1322 1.349 . S
C1334 H1328 0.950 . S
C1334 C1335 1.327 . S
C1335 H1329 0.950 . S
C1335 C1334 1.327 . S
C1335 C1339 1.429 . S
C1336 C1319 1.574 . S
C1336 H1330 0.949 . S
C1336 C1340 1.368 . S
C1337 C1318 1.429 . S
C1337 C1331 1.429 . S
C1337 C1338 1.523 . S
C1338 C1319 1.368 . S
C1338 C1332 1.368 . S
C1338 C1337 1.523 . S
C1339 C1323 1.429 . S
C1339 C1335 1.429 . S
C1339 C1340 1.523 . S
C1340 C1324 1.368 . S
C1340 C1336 1.368 . S
C1340 C1339 1.523 . S
H1341 C1316 0.950 . S
H1342 C1318 0.950 . S
H1343 C1319 0.949 . S
H1344 C1321 0.950 . S
H1345 C1323 0.950 . S
C1346 C1347 1.349 . S
C1346 C1348 1.327 . S
C1346 H1371 0.950 . S
C1347 C1346 1.349 . S
C1347 C1363 1.349 . S
C1348 C1346 1.327 . S
C1348 C1367 1.429 . S
C1348 H1372 0.950 1_655 S
C1349 C1366 1.574 . S
C1349 C1368 1.368 . S
C1349 H1373 0.949 . S
H1350 C1354 0.949 . S
C1351 C1352 1.349 . S
C1351 C1353 1.327 . S
C1351 H1374 0.950 . S
C1352 C1351 1.349 . S
C1352 C1364 1.349 . S
C1353 C1351 1.327 . S
C1353 C1369 1.429 . S
C1353 H1375 0.950 1_455 S
C1354 H1350 0.949 . S
C1354 C1362 1.574 . S
C1354 C1370 1.368 . S
H1355 C1363 0.950 . S
H1356 C1361 0.950 . S
H1357 C1362 0.949 . S
H1358 C1364 0.950 . S
H1359 C1365 0.950 . S
H1360 C1366 0.949 . S
C1361 H1356 0.950 . S
C1361 C1363 1.327 . S
C1361 C1367 1.429 . S
C1362 C1354 1.574 . S
C1362 H1357 0.949 . S
C1362 C1368 1.368 1_455 S
C1363 C1347 1.349 . S
C1363 H1355 0.950 . S
C1363 C1361 1.327 . S
C1364 C1352 1.349 . S
C1364 H1358 0.950 . S
C1364 C1365 1.327 . S
C1365 H1359 0.950 . S
C1365 C1364 1.327 . S
C1365 C1369 1.429 . S
C1366 C1349 1.574 . S
C1366 H1360 0.949 . S
C1366 C1370 1.368 1_655 S
C1367 C1348 1.429 . S
C1367 C1361 1.429 . S
C1367 C1368 1.523 . S
C1368 C1349 1.368 . S
C1368 C1362 1.368 1_655 S
C1368 C1367 1.523 . S
C1369 C1353 1.429 . S
C1369 C1365 1.429 . S
C1369 C1370 1.523 . S
C1370 C1354 1.368 . S
C1370 C1366 1.368 1_455 S
C1370 C1369 1.523 . S
H1371 C1346 0.950 . S
H1372 C1348 0.950 1_455 S
H1373 C1349 0.949 . S
H1374 C1351 0.950 . S
H1375 C1353 0.950 1_655 S
C1376 C1377 1.349 . S
C1376 C1378 1.327 . S
C1376 H1401 0.950 . S
C1377 C1376 1.349 . S
C1377 C1393 1.349 . S
C1378 C1376 1.327 . S
C1378 C1397 1.429 . S
C1378 H1402 0.950 . S
C1379 C1396 1.574 . S
C1379 C1398 1.368 . S
C1379 H1403 0.949 . S
H1380 C1384 0.949 . S
C1381 C1382 1.349 . S
C1381 C1383 1.327 . S
C1381 H1404 0.950 . S
C1382 C1381 1.349 . S
C1382 C1394 1.349 . S
C1383 C1381 1.327 . S
C1383 C1399 1.429 . S
C1383 H1405 0.950 . S
C1384 H1380 0.949 . S
C1384 C1392 1.574 . S
C1384 C1400 1.368 . S
H1385 C1393 0.950 . S
H1386 C1391 0.950 . S
H1387 C1392 0.949 . S
H1388 C1394 0.950 . S
H1389 C1395 0.950 . S
H1390 C1396 0.949 . S
C1391 H1386 0.950 . S
C1391 C1393 1.327 . S
C1391 C1397 1.429 . S
C1392 C1384 1.574 . S
C1392 H1387 0.949 . S
C1392 C1398 1.368 . S
C1393 C1377 1.349 . S
C1393 H1385 0.950 . S
C1393 C1391 1.327 . S
C1394 C1382 1.349 . S
C1394 H1388 0.950 . S
C1394 C1395 1.327 . S
C1395 H1389 0.950 . S
C1395 C1394 1.327 . S
C1395 C1399 1.429 . S
C1396 C1379 1.574 . S
C1396 H1390 0.949 . S
C1396 C1400 1.368 . S
C1397 C1378 1.429 . S
C1397 C1391 1.429 . S
C1397 C1398 1.523 . S
C1398 C1379 1.368 . S
C1398 C1392 1.368 . S
C1398 C1397 1.523 . S
C1399 C1383 1.429 . S
C1399 C1395 1.429 . S
C1399 C1400 1.523 . S
C1400 C1384 1.368 . S
C1400 C1396 1.368 . S
C1400 C1399 1.523 . S
H1401 C1376 0.950 . S
H1402 C1378 0.950 . S
H1403 C1379 0.949 . S
H1404 C1381 0.950 . S
H1405 C1383 0.950 . S
C1406 C1407 1.349 . S
C1406 C1408 1.327 . S
C1406 H1431 0.950 . S
C1407 C1406 1.349 . S
C1407 C1423 1.349 . S
C1408 C1406 1.327 . S
C1408 C1427 1.429 . S
C1408 H1432 0.950 . S
C1409 C1426 1.574 . S
C1409 C1428 1.368 . S
C1409 H1433 0.949 . S
H1410 C1414 0.949 . S
C1411 C1412 1.349 . S
C1411 C1413 1.327 . S
C1411 H1434 0.950 . S
C1412 C1411 1.349 . S
C1412 C1424 1.349 . S
C1413 C1411 1.327 . S
C1413 C1429 1.429 . S
C1413 H1435 0.950 . S
C1414 H1410 0.949 . S
C1414 C1422 1.574 . S
C1414 C1430 1.368 . S
H1415 C1423 0.950 . S
H1416 C1421 0.950 . S
H1417 C1422 0.949 . S
H1418 C1424 0.950 . S
H1419 C1425 0.950 . S
H1420 C1426 0.949 . S
C1421 H1416 0.950 . S
C1421 C1423 1.327 . S
C1421 C1427 1.429 . S
C1422 C1414 1.574 . S
C1422 H1417 0.949 . S
C1422 C1428 1.368 . S
C1423 C1407 1.349 . S
C1423 H1415 0.950 . S
C1423 C1421 1.327 . S
C1424 C1412 1.349 . S
C1424 H1418 0.950 . S
C1424 C1425 1.327 . S
C1425 H1419 0.950 . S
C1425 C1424 1.327 . S
C1425 C1429 1.429 . S
C1426 C1409 1.574 . S
C1426 H1420 0.949 . S
C1426 C1430 1.368 . S
C1427 C1408 1.429 . S
C1427 C1421 1.429 . S
C1427 C1428 1.523 . S
C1428 C1409 1.368 . S
C1428 C1422 1.368 . S
C1428 C1427 1.523 . S
C1429 C1413 1.429 . S
C1429 C1425 1.429 . S
C1429 C1430 1.523 . S
C1430 C1414 1.368 . S
C1430 C1426 1.368 . S
C1430 C1429 1.523 . S
H1431 C1406 0.950 . S
H1432 C1408 0.950 . S
H1433 C1409 0.949 . S
H1434 C1411 0.950 . S
H1435 C1413 0.950 . S
C1436 C1437 1.349 . S
C1436 C1438 1.327 . S
C1436 H1461 0.950 . S
C1437 C1436 1.349 . S
C1437 C1453 1.349 . S
C1438 C1436 1.327 . S
C1438 C1457 1.429 . S
C1438 H1462 0.950 . S
C1439 C1456 1.574 . S
C1439 C1458 1.368 . S
C1439 H1463 0.949 . S
H1440 C1444 0.949 . S
C1441 C1442 1.349 . S
C1441 C1443 1.327 . S
C1441 H1464 0.950 . S
C1442 C1441 1.349 . S
C1442 C1454 1.349 . S
C1443 C1441 1.327 . S
C1443 C1459 1.429 . S
C1443 H1465 0.950 . S
C1444 H1440 0.949 . S
C1444 C1452 1.574 . S
C1444 C1460 1.368 . S
H1445 C1453 0.950 . S
H1446 C1451 0.950 . S
H1447 C1452 0.949 . S
H1448 C1454 0.950 . S
H1449 C1455 0.950 . S
H1450 C1456 0.949 . S
C1451 H1446 0.950 . S
C1451 C1453 1.327 . S
C1451 C1457 1.429 . S
C1452 C1444 1.574 . S
C1452 H1447 0.949 . S
C1452 C1458 1.368 . S
C1453 C1437 1.349 . S
C1453 H1445 0.950 . S
C1453 C1451 1.327 . S
C1454 C1442 1.349 . S
C1454 H1448 0.950 . S
C1454 C1455 1.327 . S
C1455 H1449 0.950 . S
C1455 C1454 1.327 . S
C1455 C1459 1.429 . S
C1456 C1439 1.574 . S
C1456 H1450 0.949 . S
C1456 C1460 1.368 . S
C1457 C1438 1.429 . S
C1457 C1451 1.429 . S
C1457 C1458 1.523 . S
C1458 C1439 1.368 . S
C1458 C1452 1.368 . S
C1458 C1457 1.523 . S
C1459 C1443 1.429 . S
C1459 C1455 1.429 . S
C1459 C1460 1.523 . S
C1460 C1444 1.368 . S
C1460 C1456 1.368 . S
C1460 C1459 1.523 . S
H1461 C1436 0.950 . S
H1462 C1438 0.950 . S
H1463 C1439 0.949 . S
H1464 C1441 0.950 . S
H1465 C1443 0.950 . S
C1466 C1467 1.349 . S
C1466 C1468 1.327 . S
C1466 H1491 0.950 . S
C1467 C1466 1.349 . S
C1467 C1483 1.349 . S
C1468 C1466 1.327 . S
C1468 C1487 1.429 . S
C1468 H1492 0.950 1_455 S
C1469 C1486 1.574 . S
C1469 C1488 1.368 . S
C1469 H1493 0.949 . S
H1470 C1474 0.949 . S
C1471 C1472 1.349 . S
C1471 C1473 1.327 . S
C1471 H1494 0.950 . S
C1472 C1471 1.349 . S
C1472 C1484 1.349 . S
C1473 C1471 1.327 . S
C1473 C1489 1.429 . S
C1473 H1495 0.950 1_655 S
C1474 H1470 0.949 . S
C1474 C1482 1.574 . S
C1474 C1490 1.368 . S
H1475 C1483 0.950 . S
H1476 C1481 0.950 . S
H1477 C1482 0.949 . S
H1478 C1484 0.950 . S
H1479 C1485 0.950 . S
H1480 C1486 0.949 . S
C1481 H1476 0.950 . S
C1481 C1483 1.327 . S
C1481 C1487 1.429 . S
C1482 C1474 1.574 . S
C1482 H1477 0.949 . S
C1482 C1488 1.368 1_655 S
C1483 C1467 1.349 . S
C1483 H1475 0.950 . S
C1483 C1481 1.327 . S
C1484 C1472 1.349 . S
C1484 H1478 0.950 . S
C1484 C1485 1.327 . S
C1485 H1479 0.950 . S
C1485 C1484 1.327 . S
C1485 C1489 1.429 . S
C1486 C1469 1.574 . S
C1486 H1480 0.949 . S
C1486 C1490 1.368 1_455 S
C1487 C1468 1.429 . S
C1487 C1481 1.429 . S
C1487 C1488 1.523 . S
C1488 C1469 1.368 . S
C1488 C1482 1.368 1_455 S
C1488 C1487 1.523 . S
C1489 C1473 1.429 . S
C1489 C1485 1.429 . S
C1489 C1490 1.523 1_556 S
C1490 C1474 1.368 . S
C1490 C1486 1.368 1_655 S
C1490 C1489 1.523 1_554 S
H1491 C1466 0.950 . S
H1492 C1468 0.950 1_655 S
H1493 C1469 0.949 . S
H1494 C1471 0.950 . S
H1495 C1473 0.950 1_455 S
C1496 C1497 1.349 . S
C1496 C1498 1.327 . S
C1496 H1521 0.950 . S
C1497 C1496 1.349 . S
C1497 C1513 1.349 . S
C1498 C1496 1.327 . S
C1498 C1517 1.429 . S
C1498 H1522 0.950 . S
C1499 C1516 1.574 . S
C1499 C1518 1.368 . S
C1499 H1523 0.949 . S
H1500 C1504 0.949 . S
C1501 C1502 1.349 . S
C1501 C1503 1.327 . S
C1501 H1524 0.950 . S
C1502 C1501 1.349 . S
C1502 C1514 1.349 . S
C1503 C1501 1.327 . S
C1503 C1519 1.429 . S
C1503 H1525 0.950 . S
C1504 H1500 0.949 . S
C1504 C1512 1.574 . S
C1504 C1520 1.368 . S
H1505 C1513 0.950 . S
H1506 C1511 0.950 . S
H1507 C1512 0.949 . S
H1508 C1514 0.950 . S
H1509 C1515 0.950 . S
H1510 C1516 0.949 . S
C1511 H1506 0.950 . S
C1511 C1513 1.327 . S
C1511 C1517 1.429 . S
C1512 C1504 1.574 . S
C1512 H1507 0.949 . S
C1512 C1518 1.368 . S
C1513 C1497 1.349 . S
C1513 H1505 0.950 . S
C1513 C1511 1.327 . S
C1514 C1502 1.349 . S
C1514 H1508 0.950 . S
C1514 C1515 1.327 . S
C1515 H1509 0.950 . S
C1515 C1514 1.327 . S
C1515 C1519 1.429 . S
C1516 C1499 1.574 . S
C1516 H1510 0.949 . S
C1516 C1520 1.368 . S
C1517 C1498 1.429 . S
C1517 C1511 1.429 . S
C1517 C1518 1.523 . S
C1518 C1499 1.368 . S
C1518 C1512 1.368 . S
C1518 C1517 1.523 . S
C1519 C1503 1.429 . S
C1519 C1515 1.429 . S
C1519 C1520 1.523 . S
C1520 C1504 1.368 . S
C1520 C1516 1.368 . S
C1520 C1519 1.523 . S
H1521 C1496 0.950 . S
H1522 C1498 0.950 . S
H1523 C1499 0.949 . S
H1524 C1501 0.950 . S
H1525 C1503 0.950 . S
C1526 C1527 1.349 . S
C1526 C1528 1.327 . S
C1526 H1551 0.950 . S
C1527 C1526 1.349 . S
C1527 C1543 1.349 . S
C1528 C1526 1.327 . S
C1528 C1547 1.429 . S
C1528 H1552 0.950 . S
C1529 C1546 1.574 . S
C1529 C1548 1.368 1_455 S
C1529 H1553 0.949 . S
H1530 C1534 0.949 . S
C1531 C1532 1.349 . S
C1531 C1533 1.327 . S
C1531 H1554 0.950 . S
C1532 C1531 1.349 . S
C1532 C1544 1.349 . S
C1533 C1531 1.327 . S
C1533 C1549 1.429 . S
C1533 H1555 0.950 . S
C1534 H1530 0.949 . S
C1534 C1542 1.574 . S
C1534 C1550 1.368 1_655 S
H1535 C1543 0.950 . S
H1536 C1541 0.950 1_455 S
H1537 C1542 0.949 . S
H1538 C1544 0.950 . S
H1539 C1545 0.950 1_655 S
H1540 C1546 0.949 . S
C1541 H1536 0.950 1_655 S
C1541 C1543 1.327 . S
C1541 C1547 1.429 . S
C1542 C1534 1.574 . S
C1542 H1537 0.949 . S
C1542 C1548 1.368 . S
C1543 C1527 1.349 . S
C1543 H1535 0.950 . S
C1543 C1541 1.327 . S
C1544 C1532 1.349 . S
C1544 H1538 0.950 . S
C1544 C1545 1.327 . S
C1545 H1539 0.950 1_455 S
C1545 C1544 1.327 . S
C1545 C1549 1.429 . S
C1546 C1529 1.574 . S
C1546 H1540 0.949 . S
C1546 C1550 1.368 . S
C1547 C1528 1.429 . S
C1547 C1541 1.429 . S
C1547 C1548 1.523 . S
C1548 C1529 1.368 1_655 S
C1548 C1542 1.368 . S
C1548 C1547 1.523 . S
C1549 C1533 1.429 . S
C1549 C1545 1.429 . S
C1549 C1550 1.523 . S
C1550 C1534 1.368 1_455 S
C1550 C1546 1.368 . S
C1550 C1549 1.523 . S
H1551 C1526 0.950 . S
H1552 C1528 0.950 . S
H1553 C1529 0.949 . S
H1554 C1531 0.950 . S
H1555 C1533 0.950 . S
C1556 C1557 1.349 . S
C1556 C1558 1.327 . S
C1556 H1581 0.950 . S
C1557 C1556 1.349 . S
C1557 C1573 1.349 . S
C1558 C1556 1.327 . S
C1558 C1577 1.429 . S
C1558 H1582 0.950 . S
C1559 C1576 1.574 . S
C1559 C1578 1.368 . S
C1559 H1583 0.949 . S
H1560 C1564 0.949 . S
C1561 C1562 1.349 . S
C1561 C1563 1.327 . S
C1561 H1584 0.950 . S
C1562 C1561 1.349 . S
C1562 C1574 1.349 . S
C1563 C1561 1.327 . S
C1563 C1579 1.429 . S
C1563 H1585 0.950 . S
C1564 H1560 0.949 . S
C1564 C1572 1.574 . S
C1564 C1580 1.368 . S
H1565 C1573 0.950 . S
H1566 C1571 0.950 . S
H1567 C1572 0.949 . S
H1568 C1574 0.950 . S
H1569 C1575 0.950 . S
H1570 C1576 0.949 . S
C1571 H1566 0.950 . S
C1571 C1573 1.327 . S
C1571 C1577 1.429 . S
C1572 C1564 1.574 . S
C1572 H1567 0.949 . S
C1572 C1578 1.368 . S
C1573 C1557 1.349 . S
C1573 H1565 0.950 . S
C1573 C1571 1.327 . S
C1574 C1562 1.349 . S
C1574 H1568 0.950 . S
C1574 C1575 1.327 . S
C1575 H1569 0.950 . S
C1575 C1574 1.327 . S
C1575 C1579 1.429 . S
C1576 C1559 1.574 . S
C1576 H1570 0.949 . S
C1576 C1580 1.368 . S
C1577 C1558 1.429 . S
C1577 C1571 1.429 . S
C1577 C1578 1.523 . S
C1578 C1559 1.368 . S
C1578 C1572 1.368 . S
C1578 C1577 1.523 . S
C1579 C1563 1.429 . S
C1579 C1575 1.429 . S
C1579 C1580 1.523 . S
C1580 C1564 1.368 . S
C1580 C1576 1.368 . S
C1580 C1579 1.523 . S
H1581 C1556 0.950 . S
H1582 C1558 0.950 . S
H1583 C1559 0.949 . S
H1584 C1561 0.950 . S
H1585 C1563 0.950 . S
C1586 C1587 1.349 . S
C1586 C1588 1.327 . S
C1586 H1611 0.950 . S
C1587 C1586 1.349 . S
C1587 C1603 1.349 . S
C1588 C1586 1.327 . S
C1588 C1607 1.429 . S
C1588 H1612 0.950 . S
C1589 C1606 1.574 . S
C1589 C1608 1.368 . S
C1589 H1613 0.949 . S
H1590 C1594 0.949 . S
C1591 C1592 1.349 . S
C1591 C1593 1.327 . S
C1591 H1614 0.950 . S
C1592 C1591 1.349 . S
C1592 C1604 1.349 . S
C1593 C1591 1.327 . S
C1593 C1609 1.429 . S
C1593 H1615 0.950 . S
C1594 H1590 0.949 . S
C1594 C1602 1.574 . S
C1594 C1610 1.368 . S
H1595 C1603 0.950 . S
H1596 C1601 0.950 . S
H1597 C1602 0.949 . S
H1598 C1604 0.950 . S
H1599 C1605 0.950 . S
H1600 C1606 0.949 . S
C1601 H1596 0.950 . S
C1601 C1603 1.327 . S
C1601 C1607 1.429 . S
C1602 C1594 1.574 . S
C1602 H1597 0.949 . S
C1602 C1608 1.368 . S
C1603 C1587 1.349 . S
C1603 H1595 0.950 . S
C1603 C1601 1.327 . S
C1604 C1592 1.349 . S
C1604 H1598 0.950 . S
C1604 C1605 1.327 . S
C1605 H1599 0.950 . S
C1605 C1604 1.327 . S
C1605 C1609 1.429 . S
C1606 C1589 1.574 . S
C1606 H1600 0.949 . S
C1606 C1610 1.368 . S
C1607 C1588 1.429 . S
C1607 C1601 1.429 . S
C1607 C1608 1.523 1_554 S
C1608 C1589 1.368 . S
C1608 C1602 1.368 . S
C1608 C1607 1.523 1_556 S
C1609 C1593 1.429 . S
C1609 C1605 1.429 . S
C1609 C1610 1.523 . S
C1610 C1594 1.368 . S
C1610 C1606 1.368 . S
C1610 C1609 1.523 . S
H1611 C1586 0.950 . S
H1612 C1588 0.950 . S
H1613 C1589 0.949 . S
H1614 C1591 0.950 . S
H1615 C1593 0.950 . S
C1616 C1617 1.349 . S
C1616 C1618 1.327 . S
C1616 H1641 0.950 . S
C1617 C1616 1.349 . S
C1617 C1633 1.349 . S
C1618 C1616 1.327 . S
C1618 C1637 1.429 . S
C1618 H1642 0.950 . S
C1619 C1636 1.574 . S
C1619 C1638 1.368 . S
C1619 H1643 0.949 . S
H1620 C1624 0.949 . S
C1621 C1622 1.349 . S
C1621 C1623 1.327 . S
C1621 H1644 0.950 . S
C1622 C1621 1.349 . S
C1622 C1634 1.349 . S
C1623 C1621 1.327 . S
C1623 C1639 1.429 . S
C1623 H1645 0.950 . S
C1624 H1620 0.949 . S
C1624 C1632 1.574 . S
C1624 C1640 1.368 . S
H1625 C1633 0.950 . S
H1626 C1631 0.950 . S
H1627 C1632 0.949 . S
H1628 C1634 0.950 . S
H1629 C1635 0.950 . S
H1630 C1636 0.949 . S
C1631 H1626 0.950 . S
C1631 C1633 1.327 . S
C1631 C1637 1.429 . S
C1632 C1624 1.574 . S
C1632 H1627 0.949 . S
C1632 C1638 1.368 . S
C1633 C1617 1.349 . S
C1633 H1625 0.950 . S
C1633 C1631 1.327 . S
C1634 C1622 1.349 . S
C1634 H1628 0.950 . S
C1634 C1635 1.327 . S
C1635 H1629 0.950 . S
C1635 C1634 1.327 . S
C1635 C1639 1.429 . S
C1636 C1619 1.574 . S
C1636 H1630 0.949 . S
C1636 C1640 1.368 . S
C1637 C1618 1.429 . S
C1637 C1631 1.429 . S
C1637 C1638 1.523 . S
C1638 C1619 1.368 . S
C1638 C1632 1.368 . S
C1638 C1637 1.523 . S
C1639 C1623 1.429 . S
C1639 C1635 1.429 . S
C1639 C1640 1.523 . S
C1640 C1624 1.368 . S
C1640 C1636 1.368 . S
C1640 C1639 1.523 . S
H1641 C1616 0.950 . S
H1642 C1618 0.950 . S
H1643 C1619 0.949 . S
H1644 C1621 0.950 . S
H1645 C1623 0.950 . S
C1646 C1647 1.349 . S
C1646 C1648 1.327 . S
C1646 H1671 0.950 . S
C1647 C1646 1.349 . S
C1647 C1663 1.349 . S
C1648 C1646 1.327 . S
C1648 C1667 1.429 . S
C1648 H1672 0.950 . S
C1649 C1666 1.574 . S
C1649 C1668 1.368 . S
C1649 H1673 0.949 . S
H1650 C1654 0.949 . S
C1651 C1652 1.349 . S
C1651 C1653 1.327 . S
C1651 H1674 0.950 . S
C1652 C1651 1.349 . S
C1652 C1664 1.349 . S
C1653 C1651 1.327 . S
C1653 C1669 1.429 . S
C1653 H1675 0.950 . S
C1654 H1650 0.949 . S
C1654 C1662 1.574 . S
C1654 C1670 1.368 . S
H1655 C1663 0.950 . S
H1656 C1661 0.950 . S
H1657 C1662 0.949 . S
H1658 C1664 0.950 . S
H1659 C1665 0.950 . S
H1660 C1666 0.949 . S
C1661 H1656 0.950 . S
C1661 C1663 1.327 . S
C1661 C1667 1.429 . S
C1662 C1654 1.574 . S
C1662 H1657 0.949 . S
C1662 C1668 1.368 . S
C1663 C1647 1.349 . S
C1663 H1655 0.950 . S
C1663 C1661 1.327 . S
C1664 C1652 1.349 . S
C1664 H1658 0.950 . S
C1664 C1665 1.327 . S
C1665 H1659 0.950 . S
C1665 C1664 1.327 . S
C1665 C1669 1.429 . S
C1666 C1649 1.574 . S
C1666 H1660 0.949 . S
C1666 C1670 1.368 . S
C1667 C1648 1.429 . S
C1667 C1661 1.429 . S
C1667 C1668 1.523 . S
C1668 C1649 1.368 . S
C1668 C1662 1.368 . S
C1668 C1667 1.523 . S
C1669 C1653 1.429 . S
C1669 C1665 1.429 . S
C1669 C1670 1.523 . S
C1670 C1654 1.368 . S
C1670 C1666 1.368 . S
C1670 C1669 1.523 . S
H1671 C1646 0.950 . S
H1672 C1648 0.950 . S
H1673 C1649 0.949 . S
H1674 C1651 0.950 . S
H1675 C1653 0.950 . S
C1676 C1677 1.349 . S
C1676 C1678 1.327 . S
C1676 H1701 0.950 . S
C1677 C1676 1.349 . S
C1677 C1693 1.349 . S
C1678 C1676 1.327 . S
C1678 C1697 1.429 . S
C1678 H1702 0.950 . S
C1679 C1696 1.574 . S
C1679 C1698 1.368 . S
C1679 H1703 0.949 . S
H1680 C1684 0.949 . S
C1681 C1682 1.349 . S
C1681 C1683 1.327 . S
C1681 H1704 0.950 . S
C1682 C1681 1.349 . S
C1682 C1694 1.349 . S
C1683 C1681 1.327 . S
C1683 C1699 1.429 . S
C1683 H1705 0.950 . S
C1684 H1680 0.949 . S
C1684 C1692 1.574 . S
C1684 C1700 1.368 . S
H1685 C1693 0.950 . S
H1686 C1691 0.950 . S
H1687 C1692 0.949 . S
H1688 C1694 0.950 . S
H1689 C1695 0.950 . S
H1690 C1696 0.949 . S
C1691 H1686 0.950 . S
C1691 C1693 1.327 . S
C1691 C1697 1.429 . S
C1692 C1684 1.574 . S
C1692 H1687 0.949 . S
C1692 C1698 1.368 . S
C1693 C1677 1.349 . S
C1693 H1685 0.950 . S
C1693 C1691 1.327 . S
C1694 C1682 1.349 . S
C1694 H1688 0.950 . S
C1694 C1695 1.327 . S
C1695 H1689 0.950 . S
C1695 C1694 1.327 . S
C1695 C1699 1.429 . S
C1696 C1679 1.574 . S
C1696 H1690 0.949 . S
C1696 C1700 1.368 . S
C1697 C1678 1.429 . S
C1697 C1691 1.429 . S
C1697 C1698 1.523 . S
C1698 C1679 1.368 . S
C1698 C1692 1.368 . S
C1698 C1697 1.523 . S
C1699 C1683 1.429 . S
C1699 C1695 1.429 . S
C1699 C1700 1.523 . S
C1700 C1684 1.368 . S
C1700 C1696 1.368 . S
C1700 C1699 1.523 . S
H1701 C1676 0.950 . S
H1702 C1678 0.950 . S
H1703 C1679 0.949 . S
H1704 C1681 0.950 . S
H1705 C1683 0.950 . S
C1706 C1707 1.349 . S
C1706 C1708 1.327 . S
C1706 H1731 0.950 . S
C1707 C1706 1.349 . S
C1707 C1723 1.349 . S
C1708 C1706 1.327 . S
C1708 C1727 1.429 . S
C1708 H1732 0.950 1_655 S
C1709 C1726 1.574 . S
C1709 C1728 1.368 . S
C1709 H1733 0.949 . S
H1710 C1714 0.949 . S
C1711 C1712 1.349 . S
C1711 C1713 1.327 . S
C1711 H1734 0.950 . S
C1712 C1711 1.349 . S
C1712 C1724 1.349 . S
C1713 C1711 1.327 . S
C1713 C1729 1.429 . S
C1713 H1735 0.950 1_455 S
C1714 H1710 0.949 . S
C1714 C1722 1.574 . S
C1714 C1730 1.368 . S
H1715 C1723 0.950 . S
H1716 C1721 0.950 . S
H1717 C1722 0.949 . S
H1718 C1724 0.950 . S
H1719 C1725 0.950 . S
H1720 C1726 0.949 . S
C1721 H1716 0.950 . S
C1721 C1723 1.327 . S
C1721 C1727 1.429 . S
C1722 C1714 1.574 . S
C1722 H1717 0.949 . S
C1722 C1728 1.368 1_455 S
C1723 C1707 1.349 . S
C1723 H1715 0.950 . S
C1723 C1721 1.327 . S
C1724 C1712 1.349 . S
C1724 H1718 0.950 . S
C1724 C1725 1.327 . S
C1725 H1719 0.950 . S
C1725 C1724 1.327 . S
C1725 C1729 1.429 . S
C1726 C1709 1.574 . S
C1726 H1720 0.949 . S
C1726 C1730 1.368 1_655 S
C1727 C1708 1.429 . S
C1727 C1721 1.429 . S
C1727 C1728 1.523 . S
C1728 C1709 1.368 . S
C1728 C1722 1.368 1_655 S
C1728 C1727 1.523 . S
C1729 C1713 1.429 . S
C1729 C1725 1.429 . S
C1729 C1730 1.523 1_554 S
C1730 C1714 1.368 . S
C1730 C1726 1.368 1_455 S
C1730 C1729 1.523 1_556 S
H1731 C1706 0.950 . S
H1732 C1708 0.950 1_455 S
H1733 C1709 0.949 . S
H1734 C1711 0.950 . S
H1735 C1713 0.950 1_655 S
C1736 C1737 1.349 . S
C1736 C1738 1.327 . S
C1736 H1761 0.950 . S
C1737 C1736 1.349 . S
C1737 C1753 1.349 . S
C1738 C1736 1.327 . S
C1738 C1757 1.429 . S
C1738 H1762 0.950 . S
C1739 C1756 1.574 . S
C1739 C1758 1.368 . S
C1739 H1763 0.949 . S
H1740 C1744 0.949 . S
C1741 C1742 1.349 . S
C1741 C1743 1.327 . S
C1741 H1764 0.950 . S
C1742 C1741 1.349 . S
C1742 C1754 1.349 . S
C1743 C1741 1.327 . S
C1743 C1759 1.429 . S
C1743 H1765 0.950 . S
C1744 H1740 0.949 . S
C1744 C1752 1.574 . S
C1744 C1760 1.368 . S
H1745 C1753 0.950 . S
H1746 C1751 0.950 . S
H1747 C1752 0.949 . S
H1748 C1754 0.950 . S
H1749 C1755 0.950 . S
H1750 C1756 0.949 . S
C1751 H1746 0.950 . S
C1751 C1753 1.327 . S
C1751 C1757 1.429 . S
C1752 C1744 1.574 . S
C1752 H1747 0.949 . S
C1752 C1758 1.368 . S
C1753 C1737 1.349 . S
C1753 H1745 0.950 . S
C1753 C1751 1.327 . S
C1754 C1742 1.349 . S
C1754 H1748 0.950 . S
C1754 C1755 1.327 . S
C1755 H1749 0.950 . S
C1755 C1754 1.327 . S
C1755 C1759 1.429 . S
C1756 C1739 1.574 . S
C1756 H1750 0.949 . S
C1756 C1760 1.368 . S
C1757 C1738 1.429 . S
C1757 C1751 1.429 . S
C1757 C1758 1.523 . S
C1758 C1739 1.368 . S
C1758 C1752 1.368 . S
C1758 C1757 1.523 . S
C1759 C1743 1.429 . S
C1759 C1755 1.429 . S
C1759 C1760 1.523 . S
C1760 C1744 1.368 . S
C1760 C1756 1.368 . S
C1760 C1759 1.523 . S
H1761 C1736 0.950 . S
H1762 C1738 0.950 . S
H1763 C1739 0.949 . S
H1764 C1741 0.950 . S
H1765 C1743 0.950 . S
C1766 C1767 1.349 . S
C1766 C1768 1.327 . S
C1766 H1791 0.950 . S
C1767 C1766 1.349 . S
C1767 C1783 1.349 . S
C1768 C1766 1.327 . S
C1768 C1787 1.429 . S
C1768 H1792 0.950 1_655 S
C1769 C1786 1.574 . S
C1769 C1788 1.368 . S
C1769 H1793 0.949 . S
H1770 C1774 0.949 . S
C1771 C1772 1.349 . S
C1771 C1773 1.327 . S
C1771 H1794 0.950 . S
C1772 C1771 1.349 . S
C1772 C1784 1.349 . S
C1773 C1771 1.327 . S
C1773 C1789 1.429 . S
C1773 H1795 0.950 1_455 S
C1774 H1770 0.949 . S
C1774 C1782 1.574 . S
C1774 C1790 1.368 . S
H1775 C1783 0.950 . S
H1776 C1781 0.950 . S
H1777 C1782 0.949 . S
H1778 C1784 0.950 . S
H1779 C1785 0.950 . S
H1780 C1786 0.949 . S
C1781 H1776 0.950 . S
C1781 C1783 1.327 . S
C1781 C1787 1.429 . S
C1782 C1774 1.574 . S
C1782 H1777 0.949 . S
C1782 C1788 1.368 1_455 S
C1783 C1767 1.349 . S
C1783 H1775 0.950 . S
C1783 C1781 1.327 . S
C1784 C1772 1.349 . S
C1784 H1778 0.950 . S
C1784 C1785 1.327 . S
C1785 H1779 0.950 . S
C1785 C1784 1.327 . S
C1785 C1789 1.429 . S
C1786 C1769 1.574 . S
C1786 H1780 0.949 . S
C1786 C1790 1.368 1_655 S
C1787 C1768 1.429 . S
C1787 C1781 1.429 . S
C1787 C1788 1.523 . S
C1788 C1769 1.368 . S
C1788 C1782 1.368 1_655 S
C1788 C1787 1.523 . S
C1789 C1773 1.429 . S
C1789 C1785 1.429 . S
C1789 C1790 1.523 . S
C1790 C1774 1.368 . S
C1790 C1786 1.368 1_455 S
C1790 C1789 1.523 . S
H1791 C1766 0.950 . S
H1792 C1768 0.950 1_455 S
H1793 C1769 0.949 . S
H1794 C1771 0.950 . S
H1795 C1773 0.950 1_655 S
C1796 C1797 1.349 . S
C1796 C1798 1.327 . S
C1796 H1821 0.950 . S
C1797 C1796 1.349 . S
C1797 C1813 1.349 . S
C1798 C1796 1.327 . S
C1798 C1817 1.429 . S
C1798 H1822 0.950 . S
C1799 C1816 1.574 . S
C1799 C1818 1.368 . S
C1799 H1823 0.949 . S
H1800 C1804 0.949 . S
C1801 C1802 1.349 . S
C1801 C1803 1.327 . S
C1801 H1824 0.950 . S
C1802 C1801 1.349 . S
C1802 C1814 1.349 . S
C1803 C1801 1.327 . S
C1803 C1819 1.429 . S
C1803 H1825 0.950 . S
C1804 H1800 0.949 . S
C1804 C1812 1.574 . S
C1804 C1820 1.368 . S
H1805 C1813 0.950 . S
H1806 C1811 0.950 . S
H1807 C1812 0.949 . S
H1808 C1814 0.950 . S
H1809 C1815 0.950 . S
H1810 C1816 0.949 . S
C1811 H1806 0.950 . S
C1811 C1813 1.327 . S
C1811 C1817 1.429 . S
C1812 C1804 1.574 . S
C1812 H1807 0.949 . S
C1812 C1818 1.368 . S
C1813 C1797 1.349 . S
C1813 H1805 0.950 . S
C1813 C1811 1.327 . S
C1814 C1802 1.349 . S
C1814 H1808 0.950 . S
C1814 C1815 1.327 . S
C1815 H1809 0.950 . S
C1815 C1814 1.327 . S
C1815 C1819 1.429 . S
C1816 C1799 1.574 . S
C1816 H1810 0.949 . S
C1816 C1820 1.368 . S
C1817 C1798 1.429 . S
C1817 C1811 1.429 . S
C1817 C1818 1.523 . S
C1818 C1799 1.368 . S
C1818 C1812 1.368 . S
C1818 C1817 1.523 . S
C1819 C1803 1.429 . S
C1819 C1815 1.429 . S
C1819 C1820 1.523 . S
C1820 C1804 1.368 . S
C1820 C1816 1.368 . S
C1820 C1819 1.523 . S
H1821 C1796 0.950 . S
H1822 C1798 0.950 . S
H1823 C1799 0.949 . S
H1824 C1801 0.950 . S
H1825 C1803 0.950 . S
C1826 C1827 1.349 . S
C1826 C1828 1.327 . S
C1826 H1851 0.950 . S
C1827 C1826 1.349 . S
C1827 C1843 1.349 . S
C1828 C1826 1.327 . S
C1828 C1847 1.429 . S
C1828 H1852 0.950 . S
C1829 C1846 1.574 . S
C1829 C1848 1.368 . S
C1829 H1853 0.949 . S
H1830 C1834 0.949 . S
C1831 C1832 1.349 . S
C1831 C1833 1.327 . S
C1831 H1854 0.950 . S
C1832 C1831 1.349 . S
C1832 C1844 1.349 . S
C1833 C1831 1.327 . S
C1833 C1849 1.429 . S
C1833 H1855 0.950 . S
C1834 H1830 0.949 . S
C1834 C1842 1.574 . S
C1834 C1850 1.368 . S
H1835 C1843 0.950 . S
H1836 C1841 0.950 . S
H1837 C1842 0.949 . S
H1838 C1844 0.950 . S
H1839 C1845 0.950 . S
H1840 C1846 0.949 . S
C1841 H1836 0.950 . S
C1841 C1843 1.327 . S
C1841 C1847 1.429 . S
C1842 C1834 1.574 . S
C1842 H1837 0.949 . S
C1842 C1848 1.368 . S
C1843 C1827 1.349 . S
C1843 H1835 0.950 . S
C1843 C1841 1.327 . S
C1844 C1832 1.349 . S
C1844 H1838 0.950 . S
C1844 C1845 1.327 . S
C1845 H1839 0.950 . S
C1845 C1844 1.327 . S
C1845 C1849 1.429 . S
C1846 C1829 1.574 . S
C1846 H1840 0.949 . S
C1846 C1850 1.368 . S
C1847 C1828 1.429 . S
C1847 C1841 1.429 . S
C1847 C1848 1.523 . S
C1848 C1829 1.368 . S
C1848 C1842 1.368 . S
C1848 C1847 1.523 . S
C1849 C1833 1.429 . S
C1849 C1845 1.429 . S
C1849 C1850 1.523 1_556 S
C1850 C1834 1.368 . S
C1850 C1846 1.368 . S
C1850 C1849 1.523 1_554 S
H1851 C1826 0.950 . S
H1852 C1828 0.950 . S
H1853 C1829 0.949 . S
H1854 C1831 0.950 . S
H1855 C1833 0.950 . S
C1856 C1857 1.349 . S
C1856 C1858 1.327 . S
C1856 H1881 0.950 . S
C1857 C1856 1.349 . S
C1857 C1873 1.349 . S
C1858 C1856 1.327 . S
C1858 C1877 1.429 . S
C1858 H1882 0.950 . S
C1859 C1876 1.574 . S
C1859 C1878 1.368 . S
C1859 H1883 0.949 . S
H1860 C1864 0.949 . S
C1861 C1862 1.349 . S
C1861 C1863 1.327 . S
C1861 H1884 0.950 . S
C1862 C1861 1.349 . S
C1862 C1874 1.349 . S
C1863 C1861 1.327 . S
C1863 C1879 1.429 . S
C1863 H1885 0.950 . S
C1864 H1860 0.949 . S
C1864 C1872 1.574 . S
C1864 C1880 1.368 . S
H1865 C1873 0.950 . S
H1866 C1871 0.950 . S
H1867 C1872 0.949 . S
H1868 C1874 0.950 . S
H1869 C1875 0.950 . S
H1870 C1876 0.949 . S
C1871 H1866 0.950 . S
C1871 C1873 1.327 . S
C1871 C1877 1.429 . S
C1872 C1864 1.574 . S
C1872 H1867 0.949 . S
C1872 C1878 1.368 . S
C1873 C1857 1.349 . S
C1873 H1865 0.950 . S
C1873 C1871 1.327 . S
C1874 C1862 1.349 . S
C1874 H1868 0.950 . S
C1874 C1875 1.327 . S
C1875 H1869 0.950 . S
C1875 C1874 1.327 . S
C1875 C1879 1.429 . S
C1876 C1859 1.574 . S
C1876 H1870 0.949 . S
C1876 C1880 1.368 . S
C1877 C1858 1.429 . S
C1877 C1871 1.429 . S
C1877 C1878 1.523 . S
C1878 C1859 1.368 . S
C1878 C1872 1.368 . S
C1878 C1877 1.523 . S
C1879 C1863 1.429 . S
C1879 C1875 1.429 . S
C1879 C1880 1.523 . S
C1880 C1864 1.368 . S
C1880 C1876 1.368 . S
C1880 C1879 1.523 . S
H1881 C1856 0.950 . S
H1882 C1858 0.950 . S
H1883 C1859 0.949 . S
H1884 C1861 0.950 . S
H1885 C1863 0.950 . S
C1886 C1887 1.349 . S
C1886 C1888 1.327 . S
C1886 H1911 0.950 . S
C1887 C1886 1.349 . S
C1887 C1903 1.349 . S
C1888 C1886 1.327 . S
C1888 C1907 1.429 . S
C1888 H1912 0.950 . S
C1889 C1906 1.574 . S
C1889 C1908 1.368 . S
C1889 H1913 0.949 . S
H1890 C1894 0.949 . S
C1891 C1892 1.349 . S
C1891 C1893 1.327 . S
C1891 H1914 0.950 . S
C1892 C1891 1.349 . S
C1892 C1904 1.349 . S
C1893 C1891 1.327 . S
C1893 C1909 1.429 . S
C1893 H1915 0.950 . S
C1894 H1890 0.949 . S
C1894 C1902 1.574 . S
C1894 C1910 1.368 . S
H1895 C1903 0.950 . S
H1896 C1901 0.950 . S
H1897 C1902 0.949 . S
H1898 C1904 0.950 . S
H1899 C1905 0.950 . S
H1900 C1906 0.949 . S
C1901 H1896 0.950 . S
C1901 C1903 1.327 . S
C1901 C1907 1.429 . S
C1902 C1894 1.574 . S
C1902 H1897 0.949 . S
C1902 C1908 1.368 . S
C1903 C1887 1.349 . S
C1903 H1895 0.950 . S
C1903 C1901 1.327 . S
C1904 C1892 1.349 . S
C1904 H1898 0.950 . S
C1904 C1905 1.327 . S
C1905 H1899 0.950 . S
C1905 C1904 1.327 . S
C1905 C1909 1.429 . S
C1906 C1889 1.574 . S
C1906 H1900 0.949 . S
C1906 C1910 1.368 . S
C1907 C1888 1.429 . S
C1907 C1901 1.429 . S
C1907 C1908 1.523 . S
C1908 C1889 1.368 . S
C1908 C1902 1.368 . S
C1908 C1907 1.523 . S
C1909 C1893 1.429 . S
C1909 C1905 1.429 . S
C1909 C1910 1.523 . S
C1910 C1894 1.368 . S
C1910 C1906 1.368 . S
C1910 C1909 1.523 . S
H1911 C1886 0.950 . S
H1912 C1888 0.950 . S
H1913 C1889 0.949 . S
H1914 C1891 0.950 . S
H1915 C1893 0.950 . S
C1916 C1917 1.349 . S
C1916 C1918 1.327 . S
C1916 H1941 0.950 . S
C1917 C1916 1.349 . S
C1917 C1933 1.349 . S
C1918 C1916 1.327 . S
C1918 C1937 1.429 . S
C1918 H1942 0.950 . S
C1919 C1936 1.574 . S
C1919 C1938 1.368 . S
C1919 H1943 0.949 . S
H1920 C1924 0.949 . S
C1921 C1922 1.349 . S
C1921 C1923 1.327 . S
C1921 H1944 0.950 . S
C1922 C1921 1.349 . S
C1922 C1934 1.349 . S
C1923 C1921 1.327 . S
C1923 C1939 1.429 . S
C1923 H1945 0.950 . S
C1924 H1920 0.949 . S
C1924 C1932 1.574 . S
C1924 C1940 1.368 . S
H1925 C1933 0.950 . S
H1926 C1931 0.950 . S
H1927 C1932 0.949 . S
H1928 C1934 0.950 . S
H1929 C1935 0.950 . S
H1930 C1936 0.949 . S
C1931 H1926 0.950 . S
C1931 C1933 1.327 . S
C1931 C1937 1.429 . S
C1932 C1924 1.574 . S
C1932 H1927 0.949 . S
C1932 C1938 1.368 . S
C1933 C1917 1.349 . S
C1933 H1925 0.950 . S
C1933 C1931 1.327 . S
C1934 C1922 1.349 . S
C1934 H1928 0.950 . S
C1934 C1935 1.327 . S
C1935 H1929 0.950 . S
C1935 C1934 1.327 . S
C1935 C1939 1.429 . S
C1936 C1919 1.574 . S
C1936 H1930 0.949 . S
C1936 C1940 1.368 . S
C1937 C1918 1.429 . S
C1937 C1931 1.429 . S
C1937 C1938 1.523 . S
C1938 C1919 1.368 . S
C1938 C1932 1.368 . S
C1938 C1937 1.523 . S
C1939 C1923 1.429 . S
C1939 C1935 1.429 . S
C1939 C1940 1.523 . S
C1940 C1924 1.368 . S
C1940 C1936 1.368 . S
C1940 C1939 1.523 . S
H1941 C1916 0.950 . S
H1942 C1918 0.950 . S
H1943 C1919 0.949 . S
H1944 C1921 0.950 . S
H1945 C1923 0.950 . S
C1946 C1947 1.349 . S
C1946 C1948 1.327 . S
C1946 H1971 0.950 . S
C1947 C1946 1.349 . S
C1947 C1963 1.349 . S
C1948 C1946 1.327 . S
C1948 C1967 1.429 . S
C1948 H1972 0.950 . S
C1949 C1966 1.574 . S
C1949 C1968 1.368 . S
C1949 H1973 0.949 . S
H1950 C1954 0.949 . S
C1951 C1952 1.349 . S
C1951 C1953 1.327 . S
C1951 H1974 0.950 . S
C1952 C1951 1.349 . S
C1952 C1964 1.349 . S
C1953 C1951 1.327 . S
C1953 C1969 1.429 . S
C1953 H1975 0.950 . S
C1954 H1950 0.949 . S
C1954 C1962 1.574 . S
C1954 C1970 1.368 . S
H1955 C1963 0.950 . S
H1956 C1961 0.950 . S
H1957 C1962 0.949 . S
H1958 C1964 0.950 . S
H1959 C1965 0.950 . S
H1960 C1966 0.949 . S
C1961 H1956 0.950 . S
C1961 C1963 1.327 . S
C1961 C1967 1.429 . S
C1962 C1954 1.574 . S
C1962 H1957 0.949 . S
C1962 C1968 1.368 . S
C1963 C1947 1.349 . S
C1963 H1955 0.950 . S
C1963 C1961 1.327 . S
C1964 C1952 1.349 . S
C1964 H1958 0.950 . S
C1964 C1965 1.327 . S
C1965 H1959 0.950 . S
C1965 C1964 1.327 . S
C1965 C1969 1.429 . S
C1966 C1949 1.574 . S
C1966 H1960 0.949 . S
C1966 C1970 1.368 . S
C1967 C1948 1.429 . S
C1967 C1961 1.429 . S
C1967 C1968 1.523 . S
C1968 C1949 1.368 . S
C1968 C1962 1.368 . S
C1968 C1967 1.523 . S
C1969 C1953 1.429 . S
C1969 C1965 1.429 . S
C1969 C1970 1.523 . S
C1970 C1954 1.368 . S
C1970 C1966 1.368 . S
C1970 C1969 1.523 . S
H1971 C1946 0.950 . S
H1972 C1948 0.950 . S
H1973 C1949 0.949 . S
H1974 C1951 0.950 . S
H1975 C1953 0.950 . S
C1976 C1977 1.349 . S
C1976 C1978 1.327 . S
C1976 H2001 0.950 . S
C1977 C1976 1.349 . S
C1977 C1993 1.349 . S
C1978 C1976 1.327 . S
C1978 C1997 1.429 . S
C1978 H2002 0.950 . S
C1979 C1996 1.574 . S
C1979 C1998 1.368 . S
C1979 H2003 0.949 . S
H1980 C1984 0.949 . S
C1981 C1982 1.349 . S
C1981 C1983 1.327 . S
C1981 H2004 0.950 . S
C1982 C1981 1.349 . S
C1982 C1994 1.349 . S
C1983 C1981 1.327 . S
C1983 C1999 1.429 . S
C1983 H2005 0.950 . S
C1984 H1980 0.949 . S
C1984 C1992 1.574 . S
C1984 C2000 1.368 . S
H1985 C1993 0.950 . S
H1986 C1991 0.950 . S
H1987 C1992 0.949 . S
H1988 C1994 0.950 . S
H1989 C1995 0.950 . S
H1990 C1996 0.949 . S
C1991 H1986 0.950 . S
C1991 C1993 1.327 . S
C1991 C1997 1.429 . S
C1992 C1984 1.574 . S
C1992 H1987 0.949 . S
C1992 C1998 1.368 . S
C1993 C1977 1.349 . S
C1993 H1985 0.950 . S
C1993 C1991 1.327 . S
C1994 C1982 1.349 . S
C1994 H1988 0.950 . S
C1994 C1995 1.327 . S
C1995 H1989 0.950 . S
C1995 C1994 1.327 . S
C1995 C1999 1.429 . S
C1996 C1979 1.574 . S
C1996 H1990 0.949 . S
C1996 C2000 1.368 . S
C1997 C1978 1.429 . S
C1997 C1991 1.429 . S
C1997 C1998 1.523 . S
C1998 C1979 1.368 . S
C1998 C1992 1.368 . S
C1998 C1997 1.523 . S
C1999 C1983 1.429 . S
C1999 C1995 1.429 . S
C1999 C2000 1.523 . S
C2000 C1984 1.368 . S
C2000 C1996 1.368 . S
C2000 C1999 1.523 . S
H2001 C1976 0.950 . S
H2002 C1978 0.950 . S
H2003 C1979 0.949 . S
H2004 C1981 0.950 . S
H2005 C1983 0.950 . S
C2006 C2007 1.349 . S
C2006 C2008 1.327 . S
C2006 H2031 0.950 . S
C2007 C2006 1.349 . S
C2007 C2023 1.349 . S
C2008 C2006 1.327 . S
C2008 C2027 1.429 . S
C2008 H2032 0.950 . S
C2009 C2026 1.574 . S
C2009 C2028 1.368 . S
C2009 H2033 0.949 . S
H2010 C2014 0.949 . S
C2011 C2012 1.349 . S
C2011 C2013 1.327 . S
C2011 H2034 0.950 . S
C2012 C2011 1.349 . S
C2012 C2024 1.349 . S
C2013 C2011 1.327 . S
C2013 C2029 1.429 . S
C2013 H2035 0.950 . S
C2014 H2010 0.949 . S
C2014 C2022 1.574 . S
C2014 C2030 1.368 . S
H2015 C2023 0.950 . S
H2016 C2021 0.950 . S
H2017 C2022 0.949 . S
H2018 C2024 0.950 . S
H2019 C2025 0.950 . S
H2020 C2026 0.949 . S
C2021 H2016 0.950 . S
C2021 C2023 1.327 . S
C2021 C2027 1.429 . S
C2022 C2014 1.574 . S
C2022 H2017 0.949 . S
C2022 C2028 1.368 . S
C2023 C2007 1.349 . S
C2023 H2015 0.950 . S
C2023 C2021 1.327 . S
C2024 C2012 1.349 . S
C2024 H2018 0.950 . S
C2024 C2025 1.327 . S
C2025 H2019 0.950 . S
C2025 C2024 1.327 . S
C2025 C2029 1.429 . S
C2026 C2009 1.574 . S
C2026 H2020 0.949 . S
C2026 C2030 1.368 . S
C2027 C2008 1.429 . S
C2027 C2021 1.429 . S
C2027 C2028 1.523 . S
C2028 C2009 1.368 . S
C2028 C2022 1.368 . S
C2028 C2027 1.523 . S
C2029 C2013 1.429 . S
C2029 C2025 1.429 . S
C2029 C2030 1.523 . S
C2030 C2014 1.368 . S
C2030 C2026 1.368 . S
C2030 C2029 1.523 . S
H2031 C2006 0.950 . S
H2032 C2008 0.950 . S
H2033 C2009 0.949 . S
H2034 C2011 0.950 . S
H2035 C2013 0.950 . S
C2036 C2037 1.349 . S
C2036 C2038 1.327 . S
C2036 H2061 0.950 . S
C2037 C2036 1.349 . S
C2037 C2053 1.349 . S
C2038 C2036 1.327 . S
C2038 C2057 1.429 . S
C2038 H2062 0.950 . S
C2039 C2056 1.574 . S
C2039 C2058 1.368 . S
C2039 H2063 0.949 . S
H2040 C2044 0.949 . S
C2041 C2042 1.349 . S
C2041 C2043 1.327 . S
C2041 H2064 0.950 . S
C2042 C2041 1.349 . S
C2042 C2054 1.349 . S
C2043 C2041 1.327 . S
C2043 C2059 1.429 . S
C2043 H2065 0.950 . S
C2044 H2040 0.949 . S
C2044 C2052 1.574 . S
C2044 C2060 1.368 . S
H2045 C2053 0.950 . S
H2046 C2051 0.950 . S
H2047 C2052 0.949 . S
H2048 C2054 0.950 . S
H2049 C2055 0.950 . S
H2050 C2056 0.949 . S
C2051 H2046 0.950 . S
C2051 C2053 1.327 . S
C2051 C2057 1.429 . S
C2052 C2044 1.574 . S
C2052 H2047 0.949 . S
C2052 C2058 1.368 . S
C2053 C2037 1.349 . S
C2053 H2045 0.950 . S
C2053 C2051 1.327 . S
C2054 C2042 1.349 . S
C2054 H2048 0.950 . S
C2054 C2055 1.327 . S
C2055 H2049 0.950 . S
C2055 C2054 1.327 . S
C2055 C2059 1.429 . S
C2056 C2039 1.574 . S
C2056 H2050 0.949 . S
C2056 C2060 1.368 . S
C2057 C2038 1.429 . S
C2057 C2051 1.429 . S
C2057 C2058 1.523 . S
C2058 C2039 1.368 . S
C2058 C2052 1.368 . S
C2058 C2057 1.523 . S
C2059 C2043 1.429 . S
C2059 C2055 1.429 . S
C2059 C2060 1.523 . S
C2060 C2044 1.368 . S
C2060 C2056 1.368 . S
C2060 C2059 1.523 . S
H2061 C2036 0.950 . S
H2062 C2038 0.950 . S
H2063 C2039 0.949 . S
H2064 C2041 0.950 . S
H2065 C2043 0.950 . S
C2066 C2067 1.349 . S
C2066 C2068 1.327 . S
C2066 H2091 0.950 . S
C2067 C2066 1.349 . S
C2067 C2083 1.349 . S
C2068 C2066 1.327 . S
C2068 C2087 1.429 . S
C2068 H2092 0.950 . S
C2069 C2086 1.574 . S
C2069 C2088 1.368 . S
C2069 H2093 0.949 . S
H2070 C2074 0.949 . S
C2071 C2072 1.349 . S
C2071 C2073 1.327 . S
C2071 H2094 0.950 . S
C2072 C2071 1.349 . S
C2072 C2084 1.349 . S
C2073 C2071 1.327 . S
C2073 C2089 1.429 . S
C2073 H2095 0.950 . S
C2074 H2070 0.949 . S
C2074 C2082 1.574 . S
C2074 C2090 1.368 . S
H2075 C2083 0.950 . S
H2076 C2081 0.950 . S
H2077 C2082 0.949 . S
H2078 C2084 0.950 . S
H2079 C2085 0.950 . S
H2080 C2086 0.949 . S
C2081 H2076 0.950 . S
C2081 C2083 1.327 . S
C2081 C2087 1.429 . S
C2082 C2074 1.574 . S
C2082 H2077 0.949 . S
C2082 C2088 1.368 . S
C2083 C2067 1.349 . S
C2083 H2075 0.950 . S
C2083 C2081 1.327 . S
C2084 C2072 1.349 . S
C2084 H2078 0.950 . S
C2084 C2085 1.327 . S
C2085 H2079 0.950 . S
C2085 C2084 1.327 . S
C2085 C2089 1.429 . S
C2086 C2069 1.574 . S
C2086 H2080 0.949 . S
C2086 C2090 1.368 . S
C2087 C2068 1.429 . S
C2087 C2081 1.429 . S
C2087 C2088 1.523 . S
C2088 C2069 1.368 . S
C2088 C2082 1.368 . S
C2088 C2087 1.523 . S
C2089 C2073 1.429 . S
C2089 C2085 1.429 . S
C2089 C2090 1.523 . S
C2090 C2074 1.368 . S
C2090 C2086 1.368 . S
C2090 C2089 1.523 . S
H2091 C2066 0.950 . S
H2092 C2068 0.950 . S
H2093 C2069 0.949 . S
H2094 C2071 0.950 . S
H2095 C2073 0.950 . S
C2096 C2097 1.349 . S
C2096 C2098 1.327 . S
C2096 H2121 0.950 . S
C2097 C2096 1.349 . S
C2097 C2113 1.349 . S
C2098 C2096 1.327 . S
C2098 C2117 1.429 . S
C2098 H2122 0.950 . S
C2099 C2116 1.574 . S
C2099 C2118 1.368 . S
C2099 H2123 0.949 . S
H2100 C2104 0.949 . S
C2101 C2102 1.349 . S
C2101 C2103 1.327 . S
C2101 H2124 0.950 . S
C2102 C2101 1.349 . S
C2102 C2114 1.349 . S
C2103 C2101 1.327 . S
C2103 C2119 1.429 . S
C2103 H2125 0.950 . S
C2104 H2100 0.949 . S
C2104 C2112 1.574 . S
C2104 C2120 1.368 . S
H2105 C2113 0.950 . S
H2106 C2111 0.950 . S
H2107 C2112 0.949 . S
H2108 C2114 0.950 . S
H2109 C2115 0.950 . S
H2110 C2116 0.949 . S
C2111 H2106 0.950 . S
C2111 C2113 1.327 . S
C2111 C2117 1.429 . S
C2112 C2104 1.574 . S
C2112 H2107 0.949 . S
C2112 C2118 1.368 . S
C2113 C2097 1.349 . S
C2113 H2105 0.950 . S
C2113 C2111 1.327 . S
C2114 C2102 1.349 . S
C2114 H2108 0.950 . S
C2114 C2115 1.327 . S
C2115 H2109 0.950 . S
C2115 C2114 1.327 . S
C2115 C2119 1.429 . S
C2116 C2099 1.574 . S
C2116 H2110 0.949 . S
C2116 C2120 1.368 . S
C2117 C2098 1.429 . S
C2117 C2111 1.429 . S
C2117 C2118 1.523 . S
C2118 C2099 1.368 . S
C2118 C2112 1.368 . S
C2118 C2117 1.523 . S
C2119 C2103 1.429 . S
C2119 C2115 1.429 . S
C2119 C2120 1.523 . S
C2120 C2104 1.368 . S
C2120 C2116 1.368 . S
C2120 C2119 1.523 . S
H2121 C2096 0.950 . S
H2122 C2098 0.950 . S
H2123 C2099 0.949 . S
H2124 C2101 0.950 . S
H2125 C2103 0.950 . S
C2126 C2127 1.349 . S
C2126 C2128 1.327 . S
C2126 H2151 0.950 . S
C2127 C2126 1.349 . S
C2127 C2143 1.349 . S
C2128 C2126 1.327 . S
C2128 C2147 1.429 . S
C2128 H2152 0.950 . S
C2129 C2146 1.574 . S
C2129 C2148 1.368 . S
C2129 H2153 0.949 . S
H2130 C2134 0.949 . S
C2131 C2132 1.349 . S
C2131 C2133 1.327 . S
C2131 H2154 0.950 . S
C2132 C2131 1.349 . S
C2132 C2144 1.349 . S
C2133 C2131 1.327 . S
C2133 C2149 1.429 . S
C2133 H2155 0.950 . S
C2134 H2130 0.949 . S
C2134 C2142 1.574 . S
C2134 C2150 1.368 . S
H2135 C2143 0.950 . S
H2136 C2141 0.950 . S
H2137 C2142 0.949 . S
H2138 C2144 0.950 . S
H2139 C2145 0.950 . S
H2140 C2146 0.949 . S
C2141 H2136 0.950 . S
C2141 C2143 1.327 . S
C2141 C2147 1.429 . S
C2142 C2134 1.574 . S
C2142 H2137 0.949 . S
C2142 C2148 1.368 . S
C2143 C2127 1.349 . S
C2143 H2135 0.950 . S
C2143 C2141 1.327 . S
C2144 C2132 1.349 . S
C2144 H2138 0.950 . S
C2144 C2145 1.327 . S
C2145 H2139 0.950 . S
C2145 C2144 1.327 . S
C2145 C2149 1.429 . S
C2146 C2129 1.574 . S
C2146 H2140 0.949 . S
C2146 C2150 1.368 . S
C2147 C2128 1.429 . S
C2147 C2141 1.429 . S
C2147 C2148 1.523 . S
C2148 C2129 1.368 . S
C2148 C2142 1.368 . S
C2148 C2147 1.523 . S
C2149 C2133 1.429 . S
C2149 C2145 1.429 . S
C2149 C2150 1.523 . S
C2150 C2134 1.368 . S
C2150 C2146 1.368 . S
C2150 C2149 1.523 . S
H2151 C2126 0.950 . S
H2152 C2128 0.950 . S
H2153 C2129 0.949 . S
H2154 C2131 0.950 . S
H2155 C2133 0.950 . S
C2156 C2157 1.349 . S
C2156 C2158 1.327 . S
C2156 H2181 0.950 . S
C2157 C2156 1.349 . S
C2157 C2173 1.349 . S
C2158 C2156 1.327 . S
C2158 C2177 1.429 . S
C2158 H2182 0.950 . S
C2159 C2176 1.574 . S
C2159 C2178 1.368 . S
C2159 H2183 0.949 . S
H2160 C2164 0.949 . S
C2161 C2162 1.349 . S
C2161 C2163 1.327 . S
C2161 H2184 0.950 . S
C2162 C2161 1.349 . S
C2162 C2174 1.349 . S
C2163 C2161 1.327 . S
C2163 C2179 1.429 . S
C2163 H2185 0.950 . S
C2164 H2160 0.949 . S
C2164 C2172 1.574 . S
C2164 C2180 1.368 . S
H2165 C2173 0.950 . S
H2166 C2171 0.950 . S
H2167 C2172 0.949 . S
H2168 C2174 0.950 . S
H2169 C2175 0.950 . S
H2170 C2176 0.949 . S
C2171 H2166 0.950 . S
C2171 C2173 1.327 . S
C2171 C2177 1.429 . S
C2172 C2164 1.574 . S
C2172 H2167 0.949 . S
C2172 C2178 1.368 . S
C2173 C2157 1.349 . S
C2173 H2165 0.950 . S
C2173 C2171 1.327 . S
C2174 C2162 1.349 . S
C2174 H2168 0.950 . S
C2174 C2175 1.327 . S
C2175 H2169 0.950 . S
C2175 C2174 1.327 . S
C2175 C2179 1.429 . S
C2176 C2159 1.574 . S
C2176 H2170 0.949 . S
C2176 C2180 1.368 . S
C2177 C2158 1.429 . S
C2177 C2171 1.429 . S
C2177 C2178 1.523 . S
C2178 C2159 1.368 . S
C2178 C2172 1.368 . S
C2178 C2177 1.523 . S
C2179 C2163 1.429 . S
C2179 C2175 1.429 . S
C2179 C2180 1.523 . S
C2180 C2164 1.368 . S
C2180 C2176 1.368 . S
C2180 C2179 1.523 . S
H2181 C2156 0.950 . S
H2182 C2158 0.950 . S
H2183 C2159 0.949 . S
H2184 C2161 0.950 . S
H2185 C2163 0.950 . S
C2186 C2187 1.349 . S
C2186 C2188 1.327 . S
C2186 H2211 0.950 . S
C2187 C2186 1.349 . S
C2187 C2203 1.349 . S
C2188 C2186 1.327 . S
C2188 C2207 1.429 . S
C2188 H2212 0.950 . S
C2189 C2206 1.574 . S
C2189 C2208 1.368 . S
C2189 H2213 0.949 . S
H2190 C2194 0.949 . S
C2191 C2192 1.349 . S
C2191 C2193 1.327 . S
C2191 H2214 0.950 . S
C2192 C2191 1.349 . S
C2192 C2204 1.349 . S
C2193 C2191 1.327 . S
C2193 C2209 1.429 . S
C2193 H2215 0.950 . S
C2194 H2190 0.949 . S
C2194 C2202 1.574 . S
C2194 C2210 1.368 . S
H2195 C2203 0.950 . S
H2196 C2201 0.950 . S
H2197 C2202 0.949 . S
H2198 C2204 0.950 . S
H2199 C2205 0.950 . S
H2200 C2206 0.949 . S
C2201 H2196 0.950 . S
C2201 C2203 1.327 . S
C2201 C2207 1.429 . S
C2202 C2194 1.574 . S
C2202 H2197 0.949 . S
C2202 C2208 1.368 . S
C2203 C2187 1.349 . S
C2203 H2195 0.950 . S
C2203 C2201 1.327 . S
C2204 C2192 1.349 . S
C2204 H2198 0.950 . S
C2204 C2205 1.327 . S
C2205 H2199 0.950 . S
C2205 C2204 1.327 . S
C2205 C2209 1.429 . S
C2206 C2189 1.574 . S
C2206 H2200 0.949 . S
C2206 C2210 1.368 . S
C2207 C2188 1.429 . S
C2207 C2201 1.429 . S
C2207 C2208 1.523 . S
C2208 C2189 1.368 . S
C2208 C2202 1.368 . S
C2208 C2207 1.523 . S
C2209 C2193 1.429 . S
C2209 C2205 1.429 . S
C2209 C2210 1.523 . S
C2210 C2194 1.368 . S
C2210 C2206 1.368 . S
C2210 C2209 1.523 . S
H2211 C2186 0.950 . S
H2212 C2188 0.950 . S
H2213 C2189 0.949 . S
H2214 C2191 0.950 . S
H2215 C2193 0.950 . S
C2216 C2217 1.349 . S
C2216 C2218 1.327 . S
C2216 H2241 0.950 . S
C2217 C2216 1.349 . S
C2217 C2233 1.349 . S
C2218 C2216 1.327 . S
C2218 C2237 1.429 . S
C2218 H2242 0.950 . S
C2219 C2236 1.574 . S
C2219 C2238 1.368 . S
C2219 H2243 0.949 . S
H2220 C2224 0.949 . S
C2221 C2222 1.349 . S
C2221 C2223 1.327 . S
C2221 H2244 0.950 . S
C2222 C2221 1.349 . S
C2222 C2234 1.349 . S
C2223 C2221 1.327 . S
C2223 C2239 1.429 . S
C2223 H2245 0.950 . S
C2224 H2220 0.949 . S
C2224 C2232 1.574 . S
C2224 C2240 1.368 . S
H2225 C2233 0.950 . S
H2226 C2231 0.950 . S
H2227 C2232 0.949 . S
H2228 C2234 0.950 . S
H2229 C2235 0.950 . S
H2230 C2236 0.949 . S
C2231 H2226 0.950 . S
C2231 C2233 1.327 . S
C2231 C2237 1.429 . S
C2232 C2224 1.574 . S
C2232 H2227 0.949 . S
C2232 C2238 1.368 . S
C2233 C2217 1.349 . S
C2233 H2225 0.950 . S
C2233 C2231 1.327 . S
C2234 C2222 1.349 . S
C2234 H2228 0.950 . S
C2234 C2235 1.327 . S
C2235 H2229 0.950 . S
C2235 C2234 1.327 . S
C2235 C2239 1.429 . S
C2236 C2219 1.574 . S
C2236 H2230 0.949 . S
C2236 C2240 1.368 . S
C2237 C2218 1.429 . S
C2237 C2231 1.429 . S
C2237 C2238 1.523 . S
C2238 C2219 1.368 . S
C2238 C2232 1.368 . S
C2238 C2237 1.523 . S
C2239 C2223 1.429 . S
C2239 C2235 1.429 . S
C2239 C2240 1.523 . S
C2240 C2224 1.368 . S
C2240 C2236 1.368 . S
C2240 C2239 1.523 . S
H2241 C2216 0.950 . S
H2242 C2218 0.950 . S
H2243 C2219 0.949 . S
H2244 C2221 0.950 . S
H2245 C2223 0.950 . S
C2246 C2247 1.349 . S
C2246 C2248 1.327 . S
C2246 H2271 0.950 . S
C2247 C2246 1.349 . S
C2247 C2263 1.349 . S
C2248 C2246 1.327 . S
C2248 C2267 1.429 . S
C2248 H2272 0.950 . S
C2249 C2266 1.574 . S
C2249 C2268 1.368 . S
C2249 H2273 0.949 . S
H2250 C2254 0.949 . S
C2251 C2252 1.349 . S
C2251 C2253 1.327 . S
C2251 H2274 0.950 . S
C2252 C2251 1.349 . S
C2252 C2264 1.349 . S
C2253 C2251 1.327 . S
C2253 C2269 1.429 . S
C2253 H2275 0.950 . S
C2254 H2250 0.949 . S
C2254 C2262 1.574 . S
C2254 C2270 1.368 . S
H2255 C2263 0.950 . S
H2256 C2261 0.950 . S
H2257 C2262 0.949 . S
H2258 C2264 0.950 . S
H2259 C2265 0.950 . S
H2260 C2266 0.949 . S
C2261 H2256 0.950 . S
C2261 C2263 1.327 . S
C2261 C2267 1.429 . S
C2262 C2254 1.574 . S
C2262 H2257 0.949 . S
C2262 C2268 1.368 . S
C2263 C2247 1.349 . S
C2263 H2255 0.950 . S
C2263 C2261 1.327 . S
C2264 C2252 1.349 . S
C2264 H2258 0.950 . S
C2264 C2265 1.327 . S
C2265 H2259 0.950 . S
C2265 C2264 1.327 . S
C2265 C2269 1.429 . S
C2266 C2249 1.574 . S
C2266 H2260 0.949 . S
C2266 C2270 1.368 . S
C2267 C2248 1.429 . S
C2267 C2261 1.429 . S
C2267 C2268 1.523 . S
C2268 C2249 1.368 . S
C2268 C2262 1.368 . S
C2268 C2267 1.523 . S
C2269 C2253 1.429 . S
C2269 C2265 1.429 . S
C2269 C2270 1.523 . S
C2270 C2254 1.368 . S
C2270 C2266 1.368 . S
C2270 C2269 1.523 . S
H2271 C2246 0.950 . S
H2272 C2248 0.950 . S
H2273 C2249 0.949 . S
H2274 C2251 0.950 . S
H2275 C2253 0.950 . S
C2276 C2277 1.349 . S
C2276 C2278 1.327 . S
C2276 H2301 0.950 . S
C2277 C2276 1.349 . S
C2277 C2293 1.349 . S
C2278 C2276 1.327 . S
C2278 C2297 1.429 . S
C2278 H2302 0.950 . S
C2279 C2296 1.574 . S
C2279 C2298 1.368 . S
C2279 H2303 0.949 . S
H2280 C2284 0.949 . S
C2281 C2282 1.349 . S
C2281 C2283 1.327 . S
C2281 H2304 0.950 . S
C2282 C2281 1.349 . S
C2282 C2294 1.349 . S
C2283 C2281 1.327 . S
C2283 C2299 1.429 . S
C2283 H2305 0.950 . S
C2284 H2280 0.949 . S
C2284 C2292 1.574 . S
C2284 C2300 1.368 . S
H2285 C2293 0.950 . S
H2286 C2291 0.950 . S
H2287 C2292 0.949 . S
H2288 C2294 0.950 . S
H2289 C2295 0.950 . S
H2290 C2296 0.949 . S
C2291 H2286 0.950 . S
C2291 C2293 1.327 . S
C2291 C2297 1.429 . S
C2292 C2284 1.574 . S
C2292 H2287 0.949 . S
C2292 C2298 1.368 . S
C2293 C2277 1.349 . S
C2293 H2285 0.950 . S
C2293 C2291 1.327 . S
C2294 C2282 1.349 . S
C2294 H2288 0.950 . S
C2294 C2295 1.327 . S
C2295 H2289 0.950 . S
C2295 C2294 1.327 . S
C2295 C2299 1.429 . S
C2296 C2279 1.574 . S
C2296 H2290 0.949 . S
C2296 C2300 1.368 . S
C2297 C2278 1.429 . S
C2297 C2291 1.429 . S
C2297 C2298 1.523 . S
C2298 C2279 1.368 . S
C2298 C2292 1.368 . S
C2298 C2297 1.523 . S
C2299 C2283 1.429 . S
C2299 C2295 1.429 . S
C2299 C2300 1.523 . S
C2300 C2284 1.368 . S
C2300 C2296 1.368 . S
C2300 C2299 1.523 . S
H2301 C2276 0.950 . S
H2302 C2278 0.950 . S
H2303 C2279 0.949 . S
H2304 C2281 0.950 . S
H2305 C2283 0.950 . S
C2306 C2307 1.349 . S
C2306 C2308 1.327 . S
C2306 H2331 0.950 . S
C2307 C2306 1.349 . S
C2307 C2323 1.349 . S
C2308 C2306 1.327 . S
C2308 C2327 1.429 . S
C2308 H2332 0.950 . S
C2309 C2326 1.574 . S
C2309 C2328 1.368 . S
C2309 H2333 0.949 . S
H2310 C2314 0.949 . S
C2311 C2312 1.349 . S
C2311 C2313 1.327 . S
C2311 H2334 0.950 . S
C2312 C2311 1.349 . S
C2312 C2324 1.349 . S
C2313 C2311 1.327 . S
C2313 C2329 1.429 . S
C2313 H2335 0.950 . S
C2314 H2310 0.949 . S
C2314 C2322 1.574 . S
C2314 C2330 1.368 . S
H2315 C2323 0.950 . S
H2316 C2321 0.950 . S
H2317 C2322 0.949 . S
H2318 C2324 0.950 . S
H2319 C2325 0.950 . S
H2320 C2326 0.949 . S
C2321 H2316 0.950 . S
C2321 C2323 1.327 . S
C2321 C2327 1.429 . S
C2322 C2314 1.574 . S
C2322 H2317 0.949 . S
C2322 C2328 1.368 . S
C2323 C2307 1.349 . S
C2323 H2315 0.950 . S
C2323 C2321 1.327 . S
C2324 C2312 1.349 . S
C2324 H2318 0.950 . S
C2324 C2325 1.327 . S
C2325 H2319 0.950 . S
C2325 C2324 1.327 . S
C2325 C2329 1.429 . S
C2326 C2309 1.574 . S
C2326 H2320 0.949 . S
C2326 C2330 1.368 . S
C2327 C2308 1.429 . S
C2327 C2321 1.429 . S
C2327 C2328 1.523 . S
C2328 C2309 1.368 . S
C2328 C2322 1.368 . S
C2328 C2327 1.523 . S
C2329 C2313 1.429 . S
C2329 C2325 1.429 . S
C2329 C2330 1.523 . S
C2330 C2314 1.368 . S
C2330 C2326 1.368 . S
C2330 C2329 1.523 . S
H2331 C2306 0.950 . S
H2332 C2308 0.950 . S
H2333 C2309 0.949 . S
H2334 C2311 0.950 . S
H2335 C2313 0.950 . S
C417 C81 1.505 . S
C422 C5 1.505 . S
C447 C16 1.505 . S
C452 C96 1.505 . S
C477 C57 1.505 . S
C482 C29 1.505 . S
C507 C42 1.505 . S
C512 C70 1.505 . S
C537 C187 1.505 . S
C542 C107 1.505 . S
C567 C198 1.505 . S
C572 C122 1.505 . S
C597 C135 1.505 . S
C602 C161 1.505 . S
C627 C148 1.505 . S
C632 C172 1.505 . S
C657 C213 1.505 . S
C662 C291 1.505 . S
C687 C226 1.505 . S
C692 C304 1.505 . S
C717 C263 1.505 . S
C722 C239 1.505 . S
C747 C278 1.505 . S
C752 C252 1.505 . S
C777 C317 1.505 . S
C782 C395 1.505 . S
C807 C408 1.505 . S
C812 C330 1.505 . S
C837 C367 1.505 . S
C842 C343 1.505 . S
C867 C356 1.505 . S
C872 C380 1.505 . S
C897 C3 1.302 . S
C902 C400 1.307 . S
C927 C199 1.307 . S
C932 C18 1.302 . S
C957 C31 1.302 . S
C962 C368 1.307 . S
C987 C44 1.302 . S
C992 C173 1.307 . S
C1017 C348 1.307 . S
C1022 C55 1.302 . S
C1047 C153 1.307 . S
C1052 C68 1.302 . S
C1077 C83 1.302 . S
C1082 C322 1.307 . S
C1107 C127 1.307 . S
C1112 C94 1.302 . S
C1137 C109 1.302 . S
C1142 C296 1.307 . S
C1167 C101 1.307 . S
C1172 C120 1.302 . S
C1197 C133 1.302 . S
C1202 C264 1.307 . S
C1227 C146 1.302 . S
C1232 C75 1.307 . S
C1257 C244 1.307 . S
C1262 C159 1.302 . S
C1287 C174 1.302 . S
C1292 C43 1.307 . S
C1317 C185 1.302 . S
C1322 C218 1.307 . S
C1347 C17 1.307 . S
C1352 C200 1.302 . S
C1377 C211 1.302 . S
C1382 C192 1.307 . S
C1407 C224 1.302 . S
C1412 C413 1.307 . S
C1437 C166 1.307 . S
C1442 C237 1.302 . S
C1467 C250 1.302 . S
C1472 C381 1.307 . S
C1497 C140 1.307 . S
C1502 C265 1.302 . S
C1527 C361 1.307 . S
C1532 C276 1.302 . S
C1557 C108 1.307 . S
C1562 C289 1.302 . S
C1587 C335 1.307 . S
C1592 C302 1.302 . S
C1617 C315 1.302 . S
C1622 C82 1.307 . S
C1647 C309 1.307 . S
C1652 C328 1.302 . S
C1677 C62 1.307 . S
C1682 C341 1.302 . S
C1707 C354 1.302 . S
C1712 C283 1.307 . S
C1737 C369 1.302 . S
C1742 C30 1.307 . S
C1767 C382 1.302 . S
C1772 C257 1.307 . S
C1797 C10 1.307 . S
C1802 C393 1.302 . S
C1827 C406 1.302 . S
C1832 C231 1.307 . S
C1857 C4 1.438 . S
C1862 C277 1.438 . S
C1887 C290 1.438 . S
C1892 C23 1.438 . S
C1917 C36 1.438 . S
C1922 C303 1.438 . S
C1947 C270 1.438 . S
C1952 C49 1.438 . S
C1977 C251 1.438 . S
C1982 C56 1.438 . S
C2007 C212 1.438 . S
C2012 C69 1.438 . S
C2037 C225 1.438 . S
C2042 C88 1.438 . S
C2067 C238 1.438 . S
C2072 C95 1.438 . S
C2097 C114 1.438 . S
C2102 C387 1.438 . S
C2127 C394 1.438 . S
C2132 C121 1.438 . S
C2157 C407 1.438 . S
C2162 C134 1.438 . S
C2187 C374 1.438 . S
C2192 C147 1.438 . S
C2217 C355 1.438 . S
C2222 C160 1.438 . S
C2247 C316 1.438 . S
C2252 C179 1.438 . S
C2277 C186 1.438 . S
C2282 C329 1.438 . S
C2307 C205 1.438 . S
C2312 C342 1.438 . S
