# Generated by pormake.
# Topology uot, (4)-cn, num edge types: 1
# Building blocks:
#     Node 0, Type 0, BuildingBlock: AZAVOO_clean_sbu_0, # of connection points: 4
#     Node 1, Type 0, BuildingBlock: AZAVOO_clean_sbu_0, # of connection points: 4
#     Node 2, Type 0, BuildingBlock: AZAVOO_clean_sbu_0, # of connection points: 4
#     Node 3, Type 0, BuildingBlock: AZAVOO_clean_sbu_0, # of connection points: 4
#     Node 4, Type 0, BuildingBlock: AZAVOO_clean_sbu_0, # of connection points: 4
#     Node 5, Type 0, BuildingBlock: AZAVOO_clean_sbu_0, # of connection points: 4
#     Node 6, Type 0, BuildingBlock: AZAVOO_clean_sbu_0, # of connection points: 4
#     Node 7, Type 0, BuildingBlock: AZAVOO_clean_sbu_0, # of connection points: 4
#     Node 8, Type 0, BuildingBlock: AZAVOO_clean_sbu_0, # of connection points: 4
#     Node 9, Type 0, BuildingBlock: AZAVOO_clean_sbu_0, # of connection points: 4
#     Node 10, Type 0, BuildingBlock: AZAVOO_clean_sbu_0, # of connection points: 4
#     Node 11, Type 0, BuildingBlock: AZAVOO_clean_sbu_0, # of connection points: 4
#     Node 12, Type 0, BuildingBlock: AZAVOO_clean_sbu_0, # of connection points: 4
#     Node 13, Type 0, BuildingBlock: AZAVOO_clean_sbu_0, # of connection points: 4
#     Node 14, Type 0, BuildingBlock: AZAVOO_clean_sbu_0, # of connection points: 4
#     Node 15, Type 0, BuildingBlock: AZAVOO_clean_sbu_0, # of connection points: 4
#     Edge 16, Type (0, 0), BuildingBlock: MIFKUJ_clean_linker_0, # of connection points: 2
#     Edge 17, Type (0, 0), BuildingBlock: MIFKUJ_clean_linker_0, # of connection points: 2
#     Edge 18, Type (0, 0), BuildingBlock: MIFKUJ_clean_linker_0, # of connection points: 2
#     Edge 19, Type (0, 0), BuildingBlock: MIFKUJ_clean_linker_0, # of connection points: 2
#     Edge 20, Type (0, 0), BuildingBlock: MIFKUJ_clean_linker_0, # of connection points: 2
#     Edge 21, Type (0, 0), BuildingBlock: MIFKUJ_clean_linker_0, # of connection points: 2
#     Edge 22, Type (0, 0), BuildingBlock: MIFKUJ_clean_linker_0, # of connection points: 2
#     Edge 23, Type (0, 0), BuildingBlock: MIFKUJ_clean_linker_0, # of connection points: 2
#     Edge 24, Type (0, 0), BuildingBlock: MIFKUJ_clean_linker_0, # of connection points: 2
#     Edge 25, Type (0, 0), BuildingBlock: MIFKUJ_clean_linker_0, # of connection points: 2
#     Edge 26, Type (0, 0), BuildingBlock: MIFKUJ_clean_linker_0, # of connection points: 2
#     Edge 27, Type (0, 0), BuildingBlock: MIFKUJ_clean_linker_0, # of connection points: 2
#     Edge 28, Type (0, 0), BuildingBlock: MIFKUJ_clean_linker_0, # of connection points: 2
#     Edge 29, Type (0, 0), BuildingBlock: MIFKUJ_clean_linker_0, # of connection points: 2
#     Edge 30, Type (0, 0), BuildingBlock: MIFKUJ_clean_linker_0, # of connection points: 2
#     Edge 31, Type (0, 0), BuildingBlock: MIFKUJ_clean_linker_0, # of connection points: 2
#     Edge 32, Type (0, 0), BuildingBlock: MIFKUJ_clean_linker_0, # of connection points: 2
#     Edge 33, Type (0, 0), BuildingBlock: MIFKUJ_clean_linker_0, # of connection points: 2
#     Edge 34, Type (0, 0), BuildingBlock: MIFKUJ_clean_linker_0, # of connection points: 2
#     Edge 35, Type (0, 0), BuildingBlock: MIFKUJ_clean_linker_0, # of connection points: 2
#     Edge 36, Type (0, 0), BuildingBlock: MIFKUJ_clean_linker_0, # of connection points: 2
#     Edge 37, Type (0, 0), BuildingBlock: MIFKUJ_clean_linker_0, # of connection points: 2
#     Edge 38, Type (0, 0), BuildingBlock: MIFKUJ_clean_linker_0, # of connection points: 2
#     Edge 39, Type (0, 0), BuildingBlock: MIFKUJ_clean_linker_0, # of connection points: 2
#     Edge 40, Type (0, 0), BuildingBlock: MIFKUJ_clean_linker_0, # of connection points: 2
#     Edge 41, Type (0, 0), BuildingBlock: MIFKUJ_clean_linker_0, # of connection points: 2
#     Edge 42, Type (0, 0), BuildingBlock: MIFKUJ_clean_linker_0, # of connection points: 2
#     Edge 43, Type (0, 0), BuildingBlock: MIFKUJ_clean_linker_0, # of connection points: 2
#     Edge 44, Type (0, 0), BuildingBlock: MIFKUJ_clean_linker_0, # of connection points: 2
#     Edge 45, Type (0, 0), BuildingBlock: MIFKUJ_clean_linker_0, # of connection points: 2
#     Edge 46, Type (0, 0), BuildingBlock: MIFKUJ_clean_linker_0, # of connection points: 2
#     Edge 47, Type (0, 0), BuildingBlock: MIFKUJ_clean_linker_0, # of connection points: 2
# Relax obj value: 0.218
# Max RMSD: 0.312
# Mean RMSD: 0.230
data_MOF--net-uot--node1-AZAVOO_clean_sbu_0--edge1-MIFKUJ_clean_linker_0
_symmetry_space_group_name_H-M    P1
_symmetry_Int_Tables_number       1
_symmetry_cell_setting            triclinic
loop_
_symmetry_equiv_pos_as_xyz
'x, y, z'
_cell_length_a     62.742324
_cell_length_b     46.087278
_cell_length_c     51.941622
_cell_angle_alpha  89.99146
_cell_angle_beta   90.000191
_cell_angle_gamma 90.098038
loop_
_atom_site_label
_atom_site_type_symbol
_atom_site_fract_x
_atom_site_fract_y
_atom_site_fract_z
_atom_type_partial_charge
Mg0 Mg 0.17127 0.43505 0.33134 0.0
O1 O 0.16322 0.4764 0.30812 0.0
O2 O 0.1839 0.51152 0.32424 0.0
Mg3 Mg 0.2037 0.49394 0.35762 0.0
C4 C 0.16979 0.5027 0.30834 0.0
C5 C 0.1512 0.38041 0.31249 0.0
O6 O 0.16102 0.37375 0.33404 0.0
O7 O 0.20319 0.42968 0.31082 0.0
O8 O 0.22235 0.46448 0.33001 0.0
O9 O 0.14633 0.44574 0.36027 0.0
O10 O 0.17996 0.45958 0.36303 0.0
C11 C 0.22079 0.44308 0.31447 0.0
C12 C 0.16105 0.4597 0.37261 0.0
O13 O 0.15343 0.40592 0.30354 0.0
Mg14 Mg 0.46654 0.6994 0.71011 0.0
O15 O 0.45299 0.74478 0.71774 0.0
O16 O 0.47921 0.77731 0.7136 0.0
Mg17 Mg 0.50976 0.7527 0.70348 0.0
C18 C 0.45978 0.7709 0.71827 0.0
C19 C 0.42971 0.65459 0.71276 0.0
O20 O 0.44641 0.63801 0.71674 0.0
O21 O 0.46787 0.70805 0.66618 0.0
O22 O 0.4953 0.73907 0.66516 0.0
O23 O 0.47622 0.69684 0.75212 0.0
O24 O 0.4967 0.71316 0.72079 0.0
C25 C 0.48106 0.72403 0.65373 0.0
C26 C 0.49402 0.70854 0.74492 0.0
O27 O 0.43258 0.6815 0.70861 0.0
Mg28 Mg 0.82804 0.576 0.32638 0.0
O29 O 0.83562 0.53311 0.30526 0.0
O30 O 0.81412 0.49896 0.32156 0.0
Mg31 Mg 0.79467 0.51852 0.35434 0.0
C32 C 0.82856 0.50707 0.30581 0.0
C33 C 0.86704 0.59525 0.29637 0.0
O34 O 0.87319 0.57157 0.30831 0.0
O35 O 0.79628 0.58078 0.30496 0.0
O36 O 0.77689 0.54683 0.32516 0.0
O37 O 0.85224 0.5672 0.35665 0.0
O38 O 0.81871 0.55276 0.35889 0.0
C39 C 0.77868 0.56741 0.30881 0.0
C40 C 0.83744 0.55349 0.36898 0.0
O41 O 0.84748 0.60241 0.29751 0.0
Mg42 Mg 0.53333 0.29782 0.70583 0.0
O43 O 0.54687 0.25269 0.71499 0.0
O44 O 0.5211 0.21981 0.70939 0.0
Mg45 Mg 0.49098 0.24388 0.69659 0.0
C46 C 0.54021 0.2265 0.71546 0.0
C47 C 0.56933 0.34345 0.70984 0.0
O48 O 0.55221 0.35962 0.71223 0.0
O49 O 0.53414 0.28881 0.66204 0.0
O50 O 0.50716 0.2572 0.65907 0.0
O51 O 0.52172 0.30072 0.74697 0.0
O52 O 0.5028 0.28391 0.71438 0.0
C53 C 0.52181 0.2725 0.64869 0.0
C54 C 0.50433 0.28886 0.73861 0.0
O55 O 0.56709 0.31632 0.70633 0.0
Mg56 Mg 0.1721 0.54247 0.68135 0.0
O57 O 0.16235 0.50072 0.70268 0.0
O58 O 0.18209 0.46476 0.68663 0.0
Mg59 Mg 0.20361 0.48303 0.65489 0.0
C60 C 0.16776 0.47402 0.702 0.0
C61 C 0.13396 0.56568 0.71133 0.0
O62 O 0.12608 0.54246 0.70013 0.0
O63 O 0.20367 0.54602 0.70305 0.0
O64 O 0.22247 0.51097 0.68381 0.0
O65 O 0.14772 0.53386 0.65136 0.0
O66 O 0.18111 0.51896 0.64894 0.0
C67 C 0.22106 0.53211 0.69966 0.0
C68 C 0.16234 0.51994 0.63893 0.0
O69 O 0.15388 0.5705 0.7097 0.0
Mg70 Mg 0.52566 0.70302 0.32305 0.0
O71 O 0.53789 0.74918 0.31576 0.0
O72 O 0.51054 0.78 0.31669 0.0
Mg73 Mg 0.4806 0.75344 0.32632 0.0
C74 C 0.53034 0.77476 0.31354 0.0
C75 C 0.56483 0.66455 0.31475 0.0
O76 O 0.54948 0.64952 0.30382 0.0
O77 O 0.52216 0.7115 0.3666 0.0
O78 O 0.49352 0.74029 0.36577 0.0
O79 O 0.51882 0.69993 0.28078 0.0
O80 O 0.49553 0.7146 0.30989 0.0
C81 C 0.50766 0.72607 0.37814 0.0
C82 C 0.50035 0.71089 0.28608 0.0
O83 O 0.56016 0.68809 0.32617 0.0
Mg84 Mg 0.82503 0.45557 0.67722 0.0
O85 O 0.83636 0.49636 0.69883 0.0
O86 O 0.81694 0.53355 0.68443 0.0
Mg87 Mg 0.79481 0.51729 0.6525 0.0
C88 C 0.83138 0.52322 0.69911 0.0
C89 C 0.86299 0.43068 0.70568 0.0
O90 O 0.8708 0.45376 0.69418 0.0
O91 O 0.7939 0.45365 0.69982 0.0
O92 O 0.77555 0.48955 0.6812 0.0
O93 O 0.84904 0.4625 0.64669 0.0
O94 O 0.81646 0.4806 0.6454 0.0
C95 C 0.77675 0.46821 0.69688 0.0
C96 C 0.83498 0.47808 0.63489 0.0
O97 O 0.843 0.42623 0.70479 0.0
Mg98 Mg 0.47247 0.30213 0.32013 0.0
O99 O 0.46287 0.25458 0.31355 0.0
O100 O 0.49233 0.22759 0.31182 0.0
Mg101 Mg 0.52076 0.25768 0.31971 0.0
C102 C 0.47211 0.23018 0.31028 0.0
C103 C 0.43228 0.33918 0.32012 0.0
O104 O 0.44732 0.35773 0.31377 0.0
O105 O 0.47873 0.29411 0.36324 0.0
O106 O 0.50892 0.26864 0.36023 0.0
O107 O 0.47623 0.30522 0.27754 0.0
O108 O 0.50242 0.29429 0.3044 0.0
C109 C 0.49452 0.28106 0.37366 0.0
C110 C 0.49555 0.29633 0.28115 0.0
O111 O 0.43753 0.31337 0.32589 0.0
Mg112 Mg 0.66275 0.91216 0.80685 0.0
O113 O 0.65609 0.96049 0.80192 0.0
O114 O 0.66875 0.98557 0.83527 0.0
Mg115 Mg 0.6846 0.95199 0.86174 0.0
C116 C 0.65894 0.98439 0.81378 0.0
C117 C 0.63832 0.89233 0.7561 0.0
O118 O 0.63413 0.8932 0.73133 0.0
O119 O 0.69791 0.91812 0.79674 0.0
O120 O 0.71012 0.94185 0.83132 0.0
O121 O 0.63231 0.90873 0.82967 0.0
O122 O 0.6642 0.91688 0.84632 0.0
C123 C 0.71308 0.92994 0.80939 0.0
C124 C 0.64403 0.91403 0.84965 0.0
O125 O 0.65416 0.90654 0.76465 0.0
Mg126 Mg 0.94788 0.20427 0.18047 0.0
O127 O 0.93271 0.24989 0.18339 0.0
O128 O 0.95831 0.28217 0.17433 0.0
Mg129 Mg 0.98902 0.25827 0.16423 0.0
C130 C 0.93925 0.27607 0.18104 0.0
C131 C 0.90562 0.17425 0.20107 0.0
O132 O 0.91548 0.17687 0.22326 0.0
O133 O 0.9479 0.20535 0.13624 0.0
O134 O 0.97372 0.23777 0.12892 0.0
O135 O 0.95864 0.20825 0.22195 0.0
O136 O 0.97756 0.22246 0.18839 0.0
C137 C 0.95972 0.21984 0.12086 0.0
C138 C 0.97532 0.22133 0.21294 0.0
O139 O 0.9147 0.18344 0.18074 0.0
Mg140 Mg 0.33381 0.08225 0.80176 0.0
O141 O 0.34123 0.03389 0.80092 0.0
O142 O 0.33202 0.01326 0.83814 0.0
Mg143 Mg 0.31619 0.04923 0.86216 0.0
C144 C 0.34006 0.0118 0.81561 0.0
C145 C 0.35384 0.09711 0.74638 0.0
O146 O 0.3557 0.09329 0.72141 0.0
O147 O 0.29854 0.07321 0.79523 0.0
O148 O 0.28873 0.05423 0.83304 0.0
O149 O 0.36528 0.08995 0.82184 0.0
O150 O 0.33457 0.08287 0.84163 0.0
C151 C 0.28431 0.0628 0.81023 0.0
C152 C 0.35473 0.08727 0.84311 0.0
O153 O 0.33953 0.08311 0.75844 0.0
Mg154 Mg 0.05534 0.80998 0.18664 0.0
O155 O 0.06681 0.76258 0.18884 0.0
O156 O 0.03906 0.73324 0.18182 0.0
Mg157 Mg 0.01039 0.76163 0.17195 0.0
C158 C 0.05869 0.73719 0.18727 0.0
C159 C 0.09381 0.85193 0.18128 0.0
O160 O 0.07769 0.86888 0.17546 0.0
O161 O 0.05469 0.80899 0.14247 0.0
O162 O 0.02733 0.77853 0.13602 0.0
O163 O 0.04499 0.80557 0.22807 0.0
O164 O 0.02426 0.7972 0.19447 0.0
C165 C 0.04226 0.79479 0.12757 0.0
C166 C 0.02687 0.79684 0.21894 0.0
O167 O 0.09005 0.8256 0.1871 0.0
Mg168 Mg 0.65467 0.04491 0.1388 0.0
O169 O 0.64613 0.0056 0.1639 0.0
O170 O 0.66563 0.96817 0.15026 0.0
Mg171 Mg 0.68545 0.98337 0.11555 0.0
C172 C 0.65179 0.97906 0.16547 0.0
C173 C 0.61839 0.0716 0.17027 0.0
O174 O 0.60893 0.04916 0.15962 0.0
O175 O 0.68688 0.05013 0.15853 0.0
O176 O 0.70571 0.01407 0.14105 0.0
O177 O 0.62884 0.03339 0.11151 0.0
O178 O 0.66206 0.01803 0.10785 0.0
C179 C 0.70441 0.03652 0.15546 0.0
C180 C 0.64273 0.01784 0.09937 0.0
O181 O 0.63827 0.07517 0.16682 0.0
Mg182 Mg 0.02559 0.17714 0.80085 0.0
O183 O 0.03949 0.22333 0.80085 0.0
O184 O 0.01343 0.25542 0.80715 0.0
Mg185 Mg 0.98325 0.22899 0.81536 0.0
C186 C 0.03293 0.24947 0.80261 0.0
C187 C 0.06555 0.14119 0.78424 0.0
O188 O 0.05186 0.13178 0.767 0.0
O189 O 0.02401 0.17651 0.84497 0.0
O190 O 0.99863 0.20988 0.85136 0.0
O191 O 0.01717 0.18477 0.75935 0.0
O192 O 0.99561 0.19301 0.79225 0.0
C193 C 0.01232 0.19181 0.85984 0.0
C194 C 0.99935 0.19501 0.76804 0.0
O195 O 0.05948 0.15965 0.80085 0.0
Mg196 Mg 0.3522 0.96423 0.12565 0.0
O197 O 0.36091 0.99933 0.1555 0.0
O198 O 0.34259 0.03909 0.1448 0.0
Mg199 Mg 0.32343 0.02993 0.10812 0.0
C200 C 0.35569 0.02577 0.15944 0.0
C201 C 0.38038 0.91327 0.1386 0.0
O202 O 0.38445 0.91881 0.11428 0.0
O203 O 0.31925 0.95776 0.14333 0.0
O204 O 0.30185 0.99704 0.12959 0.0
O205 O 0.37925 0.97833 0.10123 0.0
O206 O 0.34666 0.99599 0.09779 0.0
C207 C 0.3022 0.97268 0.14138 0.0
C208 C 0.3663 0.99638 0.09038 0.0
O209 O 0.36674 0.92878 0.15035 0.0
Mg210 Mg 0.97349 0.81518 0.8054 0.0
O211 O 0.96045 0.76863 0.80453 0.0
O212 O 0.98728 0.7371 0.80742 0.0
Mg213 Mg 0.01751 0.76398 0.81408 0.0
C214 C 0.96749 0.74265 0.80471 0.0
C215 C 0.93286 0.85081 0.79282 0.0
O216 O 0.94639 0.86196 0.77622 0.0
O217 O 0.9775 0.81338 0.84928 0.0
O218 O 0.00408 0.78117 0.85202 0.0
O219 O 0.97956 0.81032 0.76308 0.0
O220 O 0.00321 0.80082 0.79357 0.0
C221 C 0.99054 0.79813 0.8625 0.0
C222 C 0.99801 0.80021 0.76968 0.0
O223 O 0.93929 0.83132 0.80827 0.0
H224 H 0.2285 0.38757 0.29813 0.0
H225 H 0.26355 0.36564 0.29112 0.0
H226 H 0.29329 0.44942 0.30035 0.0
H227 H 0.25844 0.47147 0.30733 0.0
H228 H 0.31389 0.41472 0.26384 0.0
H229 H 0.28669 0.40792 0.35163 0.0
H230 H 0.26008 0.39322 0.38408 0.0
H231 H 0.267 0.30416 0.36132 0.0
H232 H 0.29345 0.31843 0.32847 0.0
H233 H 0.41598 0.39362 0.31472 0.0
H234 H 0.37894 0.40722 0.30727 0.0
H235 H 0.36028 0.31715 0.31118 0.0
H236 H 0.39733 0.30346 0.31946 0.0
H237 H 0.3326 0.34864 0.33582 0.0
H238 H 0.364 0.35409 0.25262 0.0
H239 H 0.39042 0.36833 0.2198 0.0
H240 H 0.37558 0.45815 0.23229 0.0
H241 H 0.34929 0.44448 0.26545 0.0
C242 C 0.24243 0.40147 0.29783 0.0
C243 C 0.24075 0.43119 0.30365 0.0
C244 C 0.26245 0.38887 0.29395 0.0
C245 C 0.281 0.40585 0.29569 0.0
C246 C 0.27917 0.43593 0.29905 0.0
C247 C 0.25924 0.44847 0.30312 0.0
C248 C 0.30232 0.39223 0.29734 0.0
C249 C 0.31805 0.40028 0.27954 0.0
C250 C 0.30755 0.37285 0.31751 0.0
C251 C 0.29184 0.36427 0.33742 0.0
C252 C 0.28242 0.38523 0.35343 0.0
C253 C 0.26738 0.37698 0.37191 0.0
C254 C 0.2618 0.34778 0.37471 0.0
C255 C 0.2713 0.32677 0.35909 0.0
C256 C 0.28631 0.33492 0.34055 0.0
C257 C 0.40399 0.3767 0.31414 0.0
C258 C 0.4096 0.34746 0.31759 0.0
C259 C 0.38283 0.38448 0.30964 0.0
C260 C 0.36687 0.36315 0.308 0.0
C261 C 0.37233 0.33398 0.31215 0.0
C262 C 0.39351 0.32619 0.31695 0.0
C263 C 0.34445 0.37151 0.30255 0.0
C264 C 0.32848 0.36256 0.31973 0.0
C265 C 0.33901 0.3899 0.28168 0.0
C266 C 0.35476 0.39824 0.26166 0.0
C267 C 0.36647 0.37689 0.24849 0.0
C268 C 0.38141 0.38486 0.22981 0.0
C269 C 0.3847 0.41412 0.22399 0.0
C270 C 0.37302 0.43548 0.23682 0.0
C271 C 0.35808 0.42763 0.25554 0.0
H272 H 0.39628 0.42025 0.20952 0.0
H273 H 0.25016 0.34143 0.38903 0.0
H274 H 0.39156 0.68357 0.71249 0.0
H275 H 0.35571 0.66265 0.71531 0.0
H276 H 0.38273 0.57677 0.71877 0.0
H277 H 0.41856 0.59741 0.71597 0.0
H278 H 0.34984 0.58096 0.68396 0.0
H279 H 0.36337 0.60743 0.77228 0.0
H280 H 0.37295 0.64104 0.80737 0.0
H281 H 0.31948 0.69503 0.78848 0.0
H282 H 0.30975 0.66194 0.75302 0.0
H283 H 0.25779 0.50236 0.70911 0.0
H284 H 0.29299 0.5231 0.71733 0.0
H285 H 0.2653 0.60857 0.72184 0.0
H286 H 0.22991 0.58778 0.71456 0.0
H287 H 0.29853 0.60528 0.75338 0.0
H288 H 0.28548 0.58235 0.66485 0.0
H289 H 0.27543 0.55122 0.62818 0.0
H290 H 0.32751 0.49398 0.64511 0.0
H291 H 0.33769 0.52458 0.68213 0.0
C292 C 0.38988 0.66023 0.71384 0.0
C293 C 0.40793 0.64215 0.714 0.0
C294 C 0.36938 0.64833 0.71561 0.0
C295 C 0.36658 0.61817 0.7175 0.0
C296 C 0.38455 0.6001 0.7174 0.0
C297 C 0.40502 0.61196 0.71582 0.0
C298 C 0.3449 0.60527 0.71881 0.0
C299 C 0.33874 0.58593 0.69936 0.0
C300 C 0.33019 0.61253 0.73844 0.0
C301 C 0.33595 0.63235 0.75984 0.0
C302 C 0.35375 0.62659 0.77547 0.0
C303 C 0.35919 0.64552 0.79546 0.0
C304 C 0.34686 0.67019 0.80011 0.0
C305 C 0.32903 0.67593 0.78483 0.0
C306 C 0.32353 0.65708 0.76481 0.0
C307 C 0.25912 0.52547 0.71257 0.0
C308 C 0.24111 0.54347 0.71087 0.0
C309 C 0.27927 0.53734 0.7171 0.0
C310 C 0.28189 0.56751 0.71937 0.0
C311 C 0.26371 0.58526 0.71991 0.0
C312 C 0.24346 0.57332 0.71581 0.0
C313 C 0.30356 0.58064 0.71868 0.0
C314 C 0.30968 0.60016 0.73809 0.0
C315 C 0.3182 0.57393 0.69876 0.0
C316 C 0.31221 0.55559 0.67641 0.0
C317 C 0.2947 0.56302 0.66086 0.0
C318 C 0.28899 0.54548 0.64 0.0
C319 C 0.30079 0.5206 0.63436 0.0
C320 C 0.31836 0.51324 0.64953 0.0
C321 C 0.32412 0.53067 0.67044 0.0
H322 H 0.29634 0.50705 0.61821 0.0
H323 H 0.3511 0.68482 0.81559 0.0
H324 H 0.57937 0.61205 0.2982 0.0
H325 H 0.61634 0.59705 0.29191 0.0
H326 H 0.63807 0.68087 0.31796 0.0
H327 H 0.60102 0.69608 0.32449 0.0
H328 H 0.65884 0.66019 0.27212 0.0
H329 H 0.64184 0.62818 0.35803 0.0
H330 H 0.62039 0.60294 0.39095 0.0
H331 H 0.62942 0.52206 0.35143 0.0
H332 H 0.65068 0.54691 0.31806 0.0
H333 H 0.76729 0.62378 0.30115 0.0
H334 H 0.73091 0.64164 0.29555 0.0
H335 H 0.70857 0.55368 0.28571 0.0
H336 H 0.74475 0.5358 0.29251 0.0
H337 H 0.68759 0.57733 0.32209 0.0
H338 H 0.70578 0.60773 0.2369 0.0
H339 H 0.72687 0.63224 0.20325 0.0
H340 H 0.71556 0.71458 0.23937 0.0
H341 H 0.69463 0.69052 0.27347 0.0
C342 C 0.59199 0.6273 0.30268 0.0
C343 C 0.58727 0.6552 0.31199 0.0
C344 C 0.6131 0.6187 0.29903 0.0
C345 C 0.6299 0.63786 0.30448 0.0
C346 C 0.62529 0.66582 0.31357 0.0
C347 C 0.60415 0.67437 0.31749 0.0
C348 C 0.65227 0.62827 0.30133 0.0
C349 C 0.6653 0.64228 0.28318 0.0
C350 C 0.6604 0.60445 0.31532 0.0
C351 C 0.64766 0.58946 0.33541 0.0
C352 C 0.63909 0.60506 0.35624 0.0
C353 C 0.627 0.59082 0.375 0.0
C354 C 0.6235 0.56093 0.37324 0.0
C355 C 0.63212 0.54522 0.35275 0.0
C356 C 0.64421 0.55937 0.33391 0.0
C357 C 0.75473 0.60839 0.29681 0.0
C358 C 0.75876 0.57843 0.29737 0.0
C359 C 0.73388 0.6186 0.29364 0.0
C360 C 0.71688 0.599 0.29036 0.0
C361 C 0.72134 0.56922 0.28848 0.0
C362 C 0.74204 0.55901 0.29217 0.0
C363 C 0.69439 0.60892 0.2925 0.0
C364 C 0.68127 0.59508 0.3107 0.0
C365 C 0.68622 0.63272 0.27837 0.0
C366 C 0.69879 0.64727 0.25789 0.0
C367 C 0.70793 0.63104 0.2378 0.0
C368 C 0.71983 0.64485 0.21861 0.0
C369 C 0.7226 0.67493 0.21921 0.0
C370 C 0.71343 0.69127 0.23895 0.0
C371 C 0.70152 0.67756 0.2582 0.0
H372 H 0.73182 0.68559 0.20433 0.0
H373 H 0.61414 0.54994 0.3878 0.0
H374 H 0.60796 0.31578 0.7116 0.0
H375 H 0.64333 0.33797 0.71508 0.0
H376 H 0.61471 0.42298 0.71607 0.0
H377 H 0.57934 0.40105 0.71257 0.0
H378 H 0.64812 0.41917 0.68223 0.0
H379 H 0.63399 0.39449 0.77067 0.0
H380 H 0.62441 0.36165 0.80633 0.0
H381 H 0.67876 0.30841 0.78958 0.0
H382 H 0.68851 0.34073 0.75357 0.0
H383 H 0.74019 0.49861 0.70594 0.0
H384 H 0.70494 0.47839 0.71482 0.0
H385 H 0.73225 0.39283 0.721 0.0
H386 H 0.76768 0.41307 0.71304 0.0
H387 H 0.69915 0.39728 0.7526 0.0
H388 H 0.71234 0.41799 0.66347 0.0
H389 H 0.72239 0.44841 0.62632 0.0
H390 H 0.67023 0.50586 0.64227 0.0
H391 H 0.66005 0.47598 0.67976 0.0
C392 C 0.60918 0.3392 0.71258 0.0
C393 C 0.59082 0.35665 0.71179 0.0
C394 C 0.6294 0.35183 0.71473 0.0
C395 C 0.63162 0.38211 0.71609 0.0
C396 C 0.61334 0.39956 0.71513 0.0
C397 C 0.59313 0.38697 0.71315 0.0
C398 C 0.65303 0.39573 0.71758 0.0
C399 C 0.65914 0.41476 0.69785 0.0
C400 C 0.66764 0.38925 0.73753 0.0
C401 C 0.66187 0.36989 0.75927 0.0
C402 C 0.64381 0.37566 0.77446 0.0
C403 C 0.63836 0.35716 0.79476 0.0
C404 C 0.65094 0.33292 0.80018 0.0
C405 C 0.66902 0.32718 0.78534 0.0
C406 C 0.67453 0.3456 0.765 0.0
C407 C 0.73878 0.4756 0.7099 0.0
C408 C 0.75668 0.45738 0.70843 0.0
C409 C 0.71859 0.46404 0.71482 0.0
C410 C 0.71586 0.43396 0.71775 0.0
C411 C 0.73394 0.41607 0.71856 0.0
C412 C 0.75422 0.4277 0.71405 0.0
C413 C 0.69416 0.42094 0.71735 0.0
C414 C 0.68805 0.40189 0.73712 0.0
C415 C 0.67959 0.42704 0.69721 0.0
C416 C 0.68557 0.44492 0.67457 0.0
C417 C 0.7031 0.43722 0.65915 0.0
C418 C 0.70882 0.45435 0.63803 0.0
C419 C 0.697 0.47909 0.63198 0.0
C420 C 0.6794 0.48672 0.64701 0.0
C421 C 0.67364 0.46969 0.66819 0.0
H422 H 0.70144 0.49233 0.61562 0.0
H423 H 0.64669 0.31862 0.8159 0.0
H424 H 0.72916 0.88823 0.77738 0.0
H425 H 0.76679 0.8766 0.77076 0.0
H426 H 0.78486 0.95254 0.8142 0.0
H427 H 0.74733 0.96371 0.82163 0.0
H428 H 0.80209 0.89895 0.75125 0.0
H429 H 0.82526 0.93668 0.85392 0.0
H430 H 0.80835 0.94363 0.89637 0.0
H431 H 0.76107 0.87955 0.87767 0.0
H432 H 0.77787 0.87193 0.83528 0.0
H433 H 0.9147 0.89476 0.76509 0.0
H434 H 0.87727 0.90933 0.76456 0.0
H435 H 0.86238 0.8418 0.81926 0.0
H436 H 0.89985 0.82755 0.82037 0.0
H437 H 0.84301 0.88909 0.83255 0.0
H438 H 0.84986 0.83533 0.75464 0.0
H439 H 0.86518 0.82175 0.71263 0.0
H440 H 0.85013 0.90607 0.6826 0.0
H441 H 0.83496 0.9203 0.72456 0.0
C442 C 0.74115 0.90281 0.78501 0.0
C443 C 0.7353 0.92663 0.80037 0.0
C444 C 0.76267 0.89612 0.78123 0.0
C445 C 0.77864 0.91328 0.79256 0.0
C446 C 0.7728 0.93857 0.80585 0.0
C447 C 0.75134 0.945 0.80998 0.0
C448 C 0.80116 0.90341 0.7925 0.0
C449 C 0.81109 0.89693 0.76899 0.0
C450 C 0.81273 0.8999 0.81572 0.0
C451 C 0.8027 0.90398 0.84134 0.0
C452 C 0.81131 0.924 0.85893 0.0
C453 C 0.80174 0.92806 0.88296 0.0
C454 C 0.78361 0.91211 0.88968 0.0
C455 C 0.77507 0.89196 0.87241 0.0
C456 C 0.7846 0.88778 0.84838 0.0
C457 C 0.90346 0.88302 0.77704 0.0
C458 C 0.91026 0.85998 0.79278 0.0
C459 C 0.88204 0.89127 0.77659 0.0
C460 C 0.86694 0.87644 0.79162 0.0
C461 C 0.87373 0.85358 0.80749 0.0
C462 C 0.89516 0.84544 0.80809 0.0
C463 C 0.84414 0.88507 0.79125 0.0
C464 C 0.83412 0.89129 0.81474 0.0
C465 C 0.83234 0.88741 0.76808 0.0
C466 C 0.84148 0.87897 0.74283 0.0
C467 C 0.84998 0.85106 0.73914 0.0
C468 C 0.85861 0.84323 0.71533 0.0
C469 C 0.85868 0.86306 0.69498 0.0
C470 C 0.85009 0.89075 0.69839 0.0
C471 C 0.84146 0.8987 0.72218 0.0
H472 H 0.86536 0.85696 0.67655 0.0
H473 H 0.77621 0.91532 0.90828 0.0
H474 H 0.74518 0.01597 0.15052 0.0
H475 H 0.77813 0.03946 0.16412 0.0
H476 H 0.74197 0.10826 0.1995 0.0
H477 H 0.70883 0.08516 0.18555 0.0
H478 H 0.77219 0.1304 0.17062 0.0
H479 H 0.76958 0.05832 0.23609 0.0
H480 H 0.76598 0.00916 0.25433 0.0
H481 H 0.8216 0.98165 0.21289 0.0
H482 H 0.82537 0.03055 0.1941 0.0
H483 H 0.88171 0.15214 0.24067 0.0
H484 H 0.84648 0.12943 0.23814 0.0
H485 H 0.84616 0.14184 0.15584 0.0
H486 H 0.88117 0.1649 0.15822 0.0
H487 H 0.83254 0.08162 0.21449 0.0
H488 H 0.79617 0.15558 0.1354 0.0
H489 H 0.79889 0.20629 0.12051 0.0
H490 H 0.81912 0.23295 0.19587 0.0
H491 H 0.81623 0.1825 0.2113 0.0
C492 C 0.74414 0.03587 0.16153 0.0
C493 C 0.72426 0.04869 0.16681 0.0
C494 C 0.76307 0.04925 0.1694 0.0
C495 C 0.76258 0.0756 0.18295 0.0
C496 C 0.74277 0.08797 0.18902 0.0
C497 C 0.72381 0.07464 0.1811 0.0
C498 C 0.78275 0.09115 0.18917 0.0
C499 C 0.78533 0.11974 0.18033 0.0
C500 C 0.79983 0.07751 0.20224 0.0
C501 C 0.79766 0.04807 0.21354 0.0
C502 C 0.78095 0.04173 0.23071 0.0
C503 C 0.7789 0.01392 0.24118 0.0
C504 C 0.79352 0.99228 0.23474 0.0
C505 C 0.81027 0.99843 0.21785 0.0
C506 C 0.81239 0.0262 0.20732 0.0
C507 C 0.87412 0.15012 0.22203 0.0
C508 C 0.88425 0.16047 0.19966 0.0
C509 C 0.85401 0.13704 0.22062 0.0
C510 C 0.84356 0.13418 0.19685 0.0
C511 C 0.85374 0.14422 0.17446 0.0
C512 C 0.87381 0.15732 0.17585 0.0
C513 C 0.8221 0.12052 0.19532 0.0
C514 C 0.81932 0.0923 0.20497 0.0
C515 C 0.80468 0.13469 0.18345 0.0
C516 C 0.80615 0.1652 0.17443 0.0
C517 C 0.8011 0.17228 0.14883 0.0
C518 C 0.80269 0.20098 0.14028 0.0
C519 C 0.80923 0.22281 0.15721 0.0
C520 C 0.81412 0.21601 0.18275 0.0
C521 C 0.81254 0.18736 0.19139 0.0
H522 H 0.81047 0.245 0.15055 0.0
H523 H 0.7919 0.97076 0.24286 0.0
H524 H 0.08357 0.10054 0.75253 0.0
H525 H 0.12056 0.0837 0.75251 0.0
H526 H 0.13486 0.14123 0.81572 0.0
H527 H 0.09807 0.15836 0.81573 0.0
H528 H 0.16524 0.14397 0.77956 0.0
H529 H 0.1275 0.06941 0.82586 0.0
H530 H 0.09989 0.03192 0.83215 0.0
H531 H 0.12393 0.98458 0.76717 0.0
H532 H 0.15152 0.02203 0.76029 0.0
H533 H 0.24955 0.04487 0.83774 0.0
H534 H 0.21221 0.05407 0.82806 0.0
H535 H 0.22993 0.09151 0.75501 0.0
H536 H 0.26754 0.08299 0.76476 0.0
H537 H 0.18349 0.04025 0.79247 0.0
H538 H 0.19869 0.15099 0.74486 0.0
H539 H 0.22626 0.18925 0.74353 0.0
H540 H 0.24698 0.16555 0.81946 0.0
H541 H 0.21937 0.12743 0.82134 0.0
C542 C 0.09459 0.10961 0.76643 0.0
C543 C 0.08786 0.13075 0.78418 0.0
C544 C 0.1157 0.0999 0.76642 0.0
C545 C 0.13042 0.11111 0.7842 0.0
C546 C 0.12377 0.13235 0.80178 0.0
C547 C 0.1027 0.14202 0.80184 0.0
C548 C 0.15279 0.10076 0.78468 0.0
C549 C 0.16922 0.12125 0.78217 0.0
C550 C 0.15799 0.07117 0.78831 0.0
C551 C 0.1414 0.04869 0.79238 0.0
C552 C 0.12677 0.05114 0.81278 0.0
C553 C 0.11116 0.02988 0.81648 0.0
C554 C 0.11011 0.00593 0.80002 0.0
C555 C 0.12473 0.00317 0.77987 0.0
C556 C 0.14036 0.0244 0.77607 0.0
C557 C 0.24557 0.05467 0.81941 0.0
C558 C 0.26163 0.06364 0.80223 0.0
C559 C 0.22415 0.0598 0.81386 0.0
C560 C 0.2183 0.07394 0.79103 0.0
C561 C 0.23413 0.08101 0.77296 0.0
C562 C 0.25563 0.07603 0.77855 0.0
C563 C 0.19592 0.08348 0.78744 0.0
C564 C 0.17949 0.06288 0.78935 0.0
C565 C 0.19068 0.11308 0.78384 0.0
C566 C 0.20715 0.13617 0.78309 0.0
C567 C 0.2091 0.15402 0.76128 0.0
C568 C 0.22473 0.17567 0.76043 0.0
C569 C 0.23841 0.17975 0.78136 0.0
C570 C 0.23643 0.16229 0.80323 0.0
C571 C 0.2208 0.14065 0.80419 0.0
H572 H 0.25052 0.19649 0.78065 0.0
H573 H 0.09802 0.98948 0.80293 0.0
H574 H 0.2628 0.99826 0.14168 0.0
H575 H 0.22879 0.97635 0.15352 0.0
H576 H 0.261 0.89739 0.17504 0.0
H577 H 0.2952 0.91903 0.16293 0.0
H578 H 0.22749 0.88612 0.14461 0.0
H579 H 0.23926 0.94157 0.22083 0.0
H580 H 0.24777 0.98511 0.24644 0.0
H581 H 0.19301 0.0286 0.21546 0.0
H582 H 0.18432 0.98545 0.18937 0.0
H583 H 0.13106 0.82302 0.19185 0.0
H584 H 0.16745 0.8422 0.1898 0.0
H585 H 0.14301 0.92573 0.16691 0.0
H586 H 0.10668 0.90692 0.16927 0.0
H587 H 0.17401 0.93193 0.20194 0.0
H588 H 0.16436 0.87845 0.12291 0.0
H589 H 0.15588 0.83527 0.09678 0.0
H590 H 0.20684 0.78841 0.13297 0.0
H591 H 0.21544 0.83123 0.15957 0.0
C592 C 0.26276 0.97635 0.14923 0.0
C593 C 0.28182 0.96044 0.15127 0.0
C594 C 0.24325 0.96387 0.1561 0.0
C595 C 0.24231 0.93526 0.16534 0.0
C596 C 0.26133 0.9195 0.16796 0.0
C597 C 0.28089 0.93199 0.16112 0.0
C598 C 0.22136 0.92138 0.17081 0.0
C599 C 0.21596 0.89584 0.15756 0.0
C600 C 0.20611 0.93433 0.18727 0.0
C601 C 0.21124 0.96033 0.20298 0.0
C602 C 0.22912 0.96049 0.21932 0.0
C603 C 0.23396 0.98509 0.23395 0.0
C604 C 0.22096 0.00963 0.23253 0.0
C605 C 0.20307 0.00958 0.21652 0.0
C606 C 0.19816 0.98504 0.20183 0.0
C607 C 0.13343 0.84549 0.18644 0.0
C608 C 0.11593 0.86339 0.18061 0.0
C609 C 0.15425 0.85641 0.18521 0.0
C610 C 0.158 0.88536 0.17795 0.0
C611 C 0.14054 0.90335 0.17258 0.0
C612 C 0.11975 0.89249 0.17383 0.0
C613 C 0.18007 0.89694 0.17547 0.0
C614 C 0.18565 0.92205 0.18925 0.0
C615 C 0.19549 0.88363 0.15947 0.0
C616 C 0.19038 0.85792 0.14343 0.0
C617 C 0.17364 0.85886 0.12544 0.0
C618 C 0.16884 0.83447 0.11052 0.0
C619 C 0.18077 0.80908 0.11327 0.0
C620 C 0.19758 0.80807 0.13089 0.0
C621 C 0.20244 0.8324 0.14588 0.0
H622 H 0.17703 0.79022 0.1017 0.0
H623 H 0.22474 0.02865 0.24388 0.0
H624 H 0.18424 0.55722 0.29746 0.0
H625 H 0.1665 0.59485 0.27251 0.0
H626 H 0.11525 0.53564 0.25484 0.0
H627 H 0.13317 0.49744 0.27953 0.0
H628 H 0.1249 0.56989 0.21357 0.0
H629 H 0.10956 0.58407 0.3029 0.0
H630 H 0.11787 0.58976 0.34903 0.0
H631 H 0.15449 0.66631 0.33243 0.0
H632 H 0.14665 0.66083 0.28613 0.0
H633 H 0.0473 0.67972 0.18609 0.0
H634 H 0.06767 0.63837 0.20206 0.0
H635 H 0.12029 0.6951 0.22025 0.0
H636 H 0.1 0.73668 0.20452 0.0
H637 H 0.10948 0.6612 0.26057 0.0
H638 H 0.12345 0.64708 0.17053 0.0
H639 H 0.11398 0.64101 0.12478 0.0
H640 H 0.07827 0.56417 0.1431 0.0
H641 H 0.08729 0.57 0.18905 0.0
C642 C 0.16929 0.55201 0.28811 0.0
C643 C 0.16001 0.52435 0.29079 0.0
C644 C 0.15914 0.57362 0.27386 0.0
C645 C 0.13933 0.56827 0.26225 0.0
C646 C 0.13048 0.5403 0.26376 0.0
C647 C 0.14073 0.5185 0.27791 0.0
C648 C 0.12748 0.59237 0.24978 0.0
C649 C 0.12129 0.58973 0.22391 0.0
C650 C 0.12301 0.61844 0.26317 0.0
C651 C 0.12768 0.62188 0.29102 0.0
C652 C 0.11952 0.60199 0.30906 0.0
C653 C 0.12413 0.6052 0.33524 0.0
C654 C 0.13675 0.62834 0.34364 0.0
C655 C 0.14474 0.64837 0.32589 0.0
C656 C 0.14021 0.64524 0.29968 0.0
C657 C 0.06332 0.68342 0.19314 0.0
C658 C 0.07195 0.71164 0.1941 0.0
C659 C 0.07498 0.65968 0.20218 0.0
C660 C 0.09554 0.6636 0.21227 0.0
C661 C 0.10444 0.69157 0.21256 0.0
C662 C 0.09282 0.71533 0.20347 0.0
C663 C 0.10715 0.63896 0.22422 0.0
C664 C 0.11317 0.64144 0.25014 0.0
C665 C 0.11126 0.61275 0.2109 0.0
C666 C 0.10588 0.60914 0.18327 0.0
C667 C 0.11343 0.62902 0.16484 0.0
C668 C 0.10818 0.62559 0.13886 0.0
C669 C 0.09549 0.60226 0.13105 0.0
C670 C 0.08808 0.58225 0.14919 0.0
C671 C 0.09328 0.58559 0.1752 0.0
H672 H 0.09143 0.59964 0.11092 0.0
H673 H 0.14029 0.63078 0.36392 0.0
H674 H 0.53517 0.71925 0.73426 0.0
H675 H 0.561 0.74435 0.76037 0.0
H676 H 0.51629 0.74738 0.82356 0.0
H677 H 0.48954 0.72275 0.79644 0.0
H678 H 0.5325 0.7975 0.81944 0.0
H679 H 0.5662 0.71092 0.83097 0.0
H680 H 0.57942 0.66137 0.82325 0.0
H681 H 0.62232 0.69349 0.76547 0.0
H682 H 0.60916 0.74315 0.77244 0.0
H683 H 0.65022 0.8589 0.79717 0.0
H684 H 0.6275 0.82545 0.82179 0.0
H685 H 0.57304 0.85304 0.7773 0.0
H686 H 0.59555 0.88639 0.75315 0.0
H687 H 0.60953 0.7806 0.80441 0.0
H688 H 0.52687 0.8465 0.80771 0.0
H689 H 0.51491 0.89305 0.82607 0.0
H690 H 0.57202 0.89872 0.87107 0.0
H691 H 0.58422 0.85198 0.8537 0.0
C692 C 0.53082 0.72479 0.75384 0.0
C693 C 0.51025 0.71929 0.7632 0.0
C694 C 0.54582 0.73883 0.76902 0.0
C695 C 0.54091 0.74735 0.79428 0.0
C696 C 0.52058 0.7408 0.80423 0.0
C697 C 0.50534 0.72666 0.7888 0.0
C698 C 0.55631 0.76643 0.80806 0.0
C699 C 0.54937 0.79375 0.81661 0.0
C700 C 0.57848 0.7608 0.80684 0.0
C701 C 0.58673 0.73094 0.80241 0.0
C702 C 0.57841 0.70746 0.81655 0.0
C703 C 0.5859 0.67931 0.81229 0.0
C704 C 0.60173 0.6743 0.79393 0.0
C705 C 0.61011 0.69743 0.77978 0.0
C706 C 0.60269 0.72563 0.78395 0.0
C707 C 0.63327 0.85833 0.79327 0.0
C708 C 0.62455 0.87521 0.77336 0.0
C709 C 0.62032 0.83923 0.80731 0.0
C710 C 0.59846 0.83688 0.80168 0.0
C711 C 0.5897 0.85484 0.78254 0.0
C712 C 0.60262 0.87367 0.76846 0.0
C713 C 0.58534 0.81258 0.81192 0.0
C714 C 0.59277 0.7842 0.80824 0.0
C715 C 0.56386 0.81691 0.81926 0.0
C716 C 0.55654 0.84553 0.82923 0.0
C717 C 0.53688 0.85748 0.82162 0.0
C718 C 0.53007 0.88401 0.8318 0.0
C719 C 0.54277 0.8989 0.8495 0.0
C720 C 0.56229 0.88729 0.85717 0.0
C721 C 0.56916 0.86078 0.84715 0.0
H722 H 0.53744 0.9194 0.85735 0.0
H723 H 0.60749 0.65249 0.79064 0.0
H724 H 0.9517 0.32922 0.19797 0.0
H725 H 0.92962 0.36732 0.21652 0.0
H726 H 0.87325 0.31624 0.20212 0.0
H727 H 0.89544 0.27724 0.18405 0.0
H728 H 0.87121 0.37983 0.18886 0.0
H729 H 0.88592 0.31431 0.25597 0.0
H730 H 0.90596 0.28251 0.28529 0.0
H731 H 0.94024 0.35608 0.31463 0.0
H732 H 0.92125 0.38819 0.28446 0.0
H733 H 0.80951 0.45803 0.28747 0.0
H734 H 0.82581 0.41935 0.2618 0.0
H735 H 0.88502 0.46685 0.26017 0.0
H736 H 0.86867 0.50612 0.28522 0.0
H737 H 0.88213 0.40234 0.28138 0.0
H738 H 0.86702 0.46656 0.20916 0.0
H739 H 0.84311 0.49622 0.18226 0.0
H740 H 0.80448 0.42129 0.16656 0.0
H741 H 0.82801 0.39126 0.19373 0.0
C742 C 0.93459 0.32614 0.19836 0.0
C743 C 0.92531 0.30018 0.18947 0.0
C744 C 0.92201 0.34792 0.2091 0.0
C745 C 0.89987 0.34449 0.21078 0.0
C746 C 0.89035 0.31921 0.20096 0.0
C747 C 0.90302 0.29699 0.1907 0.0
C748 C 0.88706 0.36706 0.22386 0.0
C749 C 0.87338 0.38452 0.20916 0.0
C750 C 0.88993 0.37312 0.25035 0.0
C751 C 0.90238 0.35366 0.26751 0.0
C752 C 0.89813 0.32367 0.26813 0.0
C753 C 0.90929 0.30556 0.28498 0.0
C754 C 0.92448 0.31723 0.30168 0.0
C755 C 0.92859 0.34703 0.30151 0.0
C756 C 0.91773 0.36518 0.28442 0.0
C757 C 0.82592 0.46043 0.28134 0.0
C758 C 0.83785 0.48505 0.28841 0.0
C759 C 0.83515 0.43838 0.26663 0.0
C760 C 0.85654 0.44038 0.25912 0.0
C761 C 0.86842 0.4651 0.26573 0.0
C762 C 0.85906 0.48749 0.27996 0.0
C763 C 0.86697 0.4156 0.24621 0.0
C764 C 0.88007 0.3976 0.26106 0.0
C765 C 0.86322 0.40875 0.22008 0.0
C766 C 0.84911 0.42677 0.20375 0.0
C767 C 0.85329 0.45648 0.20023 0.0
C768 C 0.83984 0.47334 0.18486 0.0
C769 C 0.82224 0.46067 0.17278 0.0
C770 C 0.81809 0.43109 0.17597 0.0
C771 C 0.83149 0.41414 0.19134 0.0
H772 H 0.81185 0.47376 0.16088 0.0
H773 H 0.93298 0.30322 0.31487 0.0
H774 H 0.46294 0.2831 0.7267 0.0
H775 H 0.43607 0.25597 0.74982 0.0
H776 H 0.48017 0.24204 0.81246 0.0
H777 H 0.50769 0.26916 0.78859 0.0
H778 H 0.4647 0.19298 0.79881 0.0
H779 H 0.43097 0.27716 0.82388 0.0
H780 H 0.41753 0.32734 0.82251 0.0
H781 H 0.3738 0.30407 0.76237 0.0
H782 H 0.38717 0.25388 0.76301 0.0
H783 H 0.3458 0.13214 0.78787 0.0
H784 H 0.37057 0.16611 0.80867 0.0
H785 H 0.41936 0.14196 0.75413 0.0
H786 H 0.3951 0.1073 0.73433 0.0
H787 H 0.38718 0.2121 0.7915 0.0
H788 H 0.46738 0.14797 0.77394 0.0
H789 H 0.48068 0.09825 0.7804 0.0
H790 H 0.43131 0.08215 0.8358 0.0
H791 H 0.41778 0.1319 0.82996 0.0
C792 C 0.4668 0.27494 0.7457 0.0
C793 C 0.48742 0.27799 0.75578 0.0
C794 C 0.45128 0.25966 0.75914 0.0
C795 C 0.45589 0.24717 0.78315 0.0
C796 C 0.47617 0.25167 0.79406 0.0
C797 C 0.49184 0.26721 0.78051 0.0
C798 C 0.44058 0.22572 0.7939 0.0
C799 C 0.44773 0.19721 0.79778 0.0
C800 C 0.4184 0.23139 0.79417 0.0
C801 C 0.41006 0.26159 0.79361 0.0
C802 C 0.41854 0.28273 0.81028 0.0
C803 C 0.41093 0.31121 0.80963 0.0
C804 C 0.3948 0.31888 0.7924 0.0
C805 C 0.38625 0.29807 0.77578 0.0
C806 C 0.39379 0.26955 0.77634 0.0
C807 C 0.36203 0.13354 0.7809 0.0
C808 C 0.36872 0.11669 0.75987 0.0
C809 C 0.37613 0.15306 0.79269 0.0
C810 C 0.39706 0.15615 0.78344 0.0
C811 C 0.4036 0.13931 0.76231 0.0
C812 C 0.38962 0.11976 0.75072 0.0
C813 C 0.41148 0.17922 0.79335 0.0
C814 C 0.40409 0.20794 0.79359 0.0
C815 C 0.43338 0.1738 0.79784 0.0
C816 C 0.44157 0.14381 0.80151 0.0
C817 C 0.45944 0.13397 0.78768 0.0
C818 C 0.46698 0.10571 0.79117 0.0
C819 C 0.45682 0.08706 0.80848 0.0
C820 C 0.4391 0.09661 0.82234 0.0
C821 C 0.43147 0.12483 0.81891 0.0
H822 H 0.4627 0.06519 0.81116 0.0
H823 H 0.38895 0.34095 0.79191 0.0
H824 H 0.17803 0.41728 0.71113 0.0
H825 H 0.15643 0.38057 0.73273 0.0
H826 H 0.10864 0.44494 0.74975 0.0
H827 H 0.13042 0.48207 0.72864 0.0
H828 H 0.11271 0.40767 0.7893 0.0
H829 H 0.10313 0.39996 0.69809 0.0
H830 H 0.11449 0.39535 0.65282 0.0
H831 H 0.14396 0.31353 0.66979 0.0
H832 H 0.13302 0.31785 0.71526 0.0
H833 H 0.02528 0.30813 0.80373 0.0
H834 H 0.04955 0.34722 0.79117 0.0
H835 H 0.09911 0.2846 0.77669 0.0
H836 H 0.07501 0.24538 0.78907 0.0
H837 H 0.09396 0.32153 0.73661 0.0
H838 H 0.10183 0.32931 0.82838 0.0
H839 H 0.08932 0.3346 0.87313 0.0
H840 H 0.06133 0.41691 0.85445 0.0
H841 H 0.07342 0.41192 0.80947 0.0
C842 C 0.16305 0.42377 0.71972 0.0
C843 C 0.15587 0.45261 0.71787 0.0
C844 C 0.15067 0.4027 0.73201 0.0
C845 C 0.13068 0.40984 0.74238 0.0
C846 C 0.12396 0.43888 0.74178 0.0
C847 C 0.13644 0.46008 0.72966 0.0
C848 C 0.11638 0.38671 0.75251 0.0
C849 C 0.10841 0.38899 0.7777 0.0
C850 C 0.11095 0.36213 0.73749 0.0
C851 C 0.11744 0.35937 0.71013 0.0
C852 C 0.11216 0.38109 0.6922 0.0
C853 C 0.11851 0.37851 0.66651 0.0
C854 C 0.12999 0.3542 0.65845 0.0
C855 C 0.13509 0.33237 0.67607 0.0
C856 C 0.12881 0.33486 0.7018 0.0
C857 C 0.04142 0.30265 0.79819 0.0
C858 C 0.04814 0.27352 0.79738 0.0
C859 C 0.05531 0.32508 0.79109 0.0
C860 C 0.07619 0.31886 0.78308 0.0
C861 C 0.08307 0.2899 0.78278 0.0
C862 C 0.06925 0.26749 0.78995 0.0
C863 C 0.09047 0.34227 0.77352 0.0
C864 C 0.09833 0.34012 0.7483 0.0
C865 C 0.0956 0.36702 0.78844 0.0
C866 C 0.08836 0.3701 0.81549 0.0
C867 C 0.09285 0.34842 0.83376 0.0
C868 C 0.08587 0.35139 0.85918 0.0
C869 C 0.07449 0.37604 0.86661 0.0
C870 C 0.07012 0.39781 0.84866 0.0
C871 C 0.07706 0.39494 0.8232 0.0
H872 H 0.0691 0.3783 0.8863 0.0
H873 H 0.13488 0.35224 0.63855 0.0
H874 H 0.37037 0.88756 0.18451 0.0
H875 H 0.38997 0.84898 0.20648 0.0
H876 H 0.43636 0.84815 0.14511 0.0
H877 H 0.4164 0.88583 0.12261 0.0
H878 H 0.4287 0.79508 0.15911 0.0
H879 H 0.44588 0.8829 0.20363 0.0
H880 H 0.43878 0.92858 0.2268 0.0
H881 H 0.4062 0.88139 0.28628 0.0
H882 H 0.41286 0.83545 0.26329 0.0
H883 H 0.5116 0.72871 0.2375 0.0
H884 H 0.49005 0.75887 0.20851 0.0
H885 H 0.43706 0.75294 0.26119 0.0
H886 H 0.45833 0.72297 0.29003 0.0
H887 H 0.44935 0.80926 0.25042 0.0
H888 H 0.4339 0.72052 0.20445 0.0
H889 H 0.44327 0.67591 0.18085 0.0
H890 H 0.47592 0.72651 0.12367 0.0
H891 H 0.46699 0.77143 0.14713 0.0
C892 C 0.38472 0.87909 0.17571 0.0
C893 C 0.39193 0.88982 0.15195 0.0
C894 C 0.39595 0.85712 0.18829 0.0
C895 C 0.41485 0.84601 0.17764 0.0
C896 C 0.42184 0.85638 0.1537 0.0
C897 C 0.41045 0.878 0.14092 0.0
C898 C 0.42758 0.82405 0.19171 0.0
C899 C 0.43342 0.79832 0.179 0.0
C900 C 0.43367 0.82818 0.21769 0.0
C901 C 0.42969 0.85577 0.23161 0.0
C902 C 0.43707 0.88229 0.22156 0.0
C903 C 0.43314 0.90823 0.23467 0.0
C904 C 0.422 0.9079 0.25796 0.0
C905 C 0.4148 0.88162 0.26822 0.0
C906 C 0.41866 0.85562 0.25517 0.0
C907 C 0.49516 0.7332 0.24249 0.0
C908 C 0.48667 0.72382 0.26611 0.0
C909 C 0.48291 0.75044 0.22597 0.0
C910 C 0.46204 0.75824 0.23287 0.0
C911 C 0.45318 0.7473 0.25565 0.0
C912 C 0.46535 0.73019 0.27208 0.0
C913 C 0.45009 0.78017 0.21799 0.0
C914 C 0.44456 0.80602 0.23055 0.0
C915 C 0.44464 0.7763 0.19183 0.0
C916 C 0.44996 0.74931 0.1777 0.0
C917 C 0.44324 0.72212 0.18697 0.0
C918 C 0.44843 0.69679 0.17359 0.0
C919 C 0.46023 0.69837 0.15082 0.0
C920 C 0.46681 0.72531 0.14134 0.0
C921 C 0.46166 0.75072 0.15465 0.0
H922 H 0.46424 0.67873 0.14049 0.0
H923 H 0.41898 0.928 0.26809 0.0
H924 H 0.8203 0.57809 0.71377 0.0
H925 H 0.84216 0.61345 0.73673 0.0
H926 H 0.89254 0.55034 0.74375 0.0
H927 H 0.87043 0.51446 0.72149 0.0
H928 H 0.89066 0.5823 0.78617 0.0
H929 H 0.89288 0.60216 0.69561 0.0
H930 H 0.87793 0.61178 0.65254 0.0
H931 H 0.84758 0.6888 0.68103 0.0
H932 H 0.86212 0.67942 0.72438 0.0
H933 H 0.97637 0.68455 0.80017 0.0
H934 H 0.952 0.64577 0.78721 0.0
H935 H 0.90017 0.70703 0.78435 0.0
H936 H 0.92437 0.74597 0.79709 0.0
H937 H 0.90284 0.6756 0.74077 0.0
H938 H 0.90285 0.65583 0.83167 0.0
H939 H 0.91923 0.64564 0.87386 0.0
H940 H 0.94741 0.56797 0.84357 0.0
H941 H 0.93143 0.5779 0.80108 0.0
C942 C 0.83593 0.57159 0.72044 0.0
C943 C 0.84371 0.54354 0.71552 0.0
C944 C 0.84846 0.59189 0.7335 0.0
C945 C 0.86922 0.58481 0.74143 0.0
C946 C 0.87663 0.55638 0.7377 0.0
C947 C 0.86397 0.53589 0.72493 0.0
C948 C 0.88352 0.60749 0.75231 0.0
C949 C 0.8935 0.60258 0.77612 0.0
C950 C 0.88708 0.63413 0.73938 0.0
C951 C 0.87842 0.63993 0.71329 0.0
C952 C 0.8829 0.62104 0.69273 0.0
C953 C 0.87452 0.62646 0.66827 0.0
C954 C 0.86177 0.65084 0.66407 0.0
C955 C 0.85743 0.6699 0.68432 0.0
C956 C 0.86575 0.66455 0.70883 0.0
C957 C 0.95973 0.68975 0.79715 0.0
C958 C 0.95239 0.71847 0.7996 0.0
C959 C 0.94579 0.66749 0.78982 0.0
C960 C 0.92424 0.67347 0.7849 0.0
C961 C 0.91675 0.70193 0.78802 0.0
C962 C 0.93063 0.72417 0.79537 0.0
C963 C 0.90979 0.65059 0.77476 0.0
C964 C 0.89989 0.6554 0.75093 0.0
C965 C 0.90655 0.62382 0.78756 0.0
C966 C 0.9161 0.61776 0.81313 0.0
C967 C 0.91268 0.6367 0.83395 0.0
C968 C 0.92187 0.63095 0.85793 0.0
C969 C 0.9344 0.60622 0.86138 0.0
C970 C 0.93772 0.58714 0.84087 0.0
C971 C 0.92858 0.5928 0.81684 0.0
H972 H 0.9415 0.6018 0.87996 0.0
H973 H 0.85529 0.655 0.64512 0.0
H974 H 0.63266 0.1218 0.19243 0.0
H975 H 0.61114 0.16203 0.20849 0.0
H976 H 0.55374 0.11388 0.19192 0.0
H977 H 0.57512 0.07357 0.17562 0.0
H978 H 0.55198 0.16954 0.17355 0.0
H979 H 0.56946 0.12178 0.2528 0.0
H980 H 0.59322 0.09974 0.28515 0.0
H981 H 0.62595 0.18099 0.29433 0.0
H982 H 0.60256 0.20342 0.26177 0.0
H983 H 0.47998 0.25752 0.24669 0.0
H984 H 0.50102 0.22148 0.2234 0.0
H985 H 0.5589 0.26445 0.24751 0.0
H986 H 0.53782 0.29952 0.2719 0.0
H987 H 0.56017 0.21098 0.26108 0.0
H988 H 0.54201 0.25932 0.18204 0.0
H989 H 0.51795 0.28101 0.14982 0.0
H990 H 0.48623 0.1991 0.14024 0.0
H991 H 0.50992 0.17699 0.17264 0.0
C992 C 0.61547 0.1196 0.19248 0.0
C993 C 0.60559 0.09451 0.18272 0.0
C994 C 0.6032 0.14262 0.20166 0.0
C995 C 0.58087 0.14088 0.20137 0.0
C996 C 0.57097 0.11564 0.19217 0.0
C997 C 0.58322 0.09258 0.18303 0.0
C998 C 0.56788 0.16571 0.21015 0.0
C999 C 0.55355 0.1785 0.19278 0.0
C1000 C 0.57033 0.17763 0.23502 0.0
C1001 C 0.58439 0.1642 0.25465 0.0
C1002 C 0.58184 0.13488 0.26156 0.0
C1003 C 0.59522 0.12234 0.27997 0.0
C1004 C 0.61112 0.13894 0.29174 0.0
C1005 C 0.61364 0.16815 0.28517 0.0
C1006 C 0.60032 0.18079 0.26676 0.0
C1007 C 0.49715 0.25992 0.24606 0.0
C1008 C 0.50738 0.28128 0.26084 0.0
C1009 C 0.50919 0.23927 0.23281 0.0
C1010 C 0.53158 0.24022 0.2337 0.0
C1011 C 0.54167 0.26318 0.24667 0.0
C1012 C 0.52966 0.28336 0.26038 0.0
C1013 C 0.54444 0.21539 0.22434 0.0
C1014 C 0.55867 0.20236 0.24173 0.0
C1015 C 0.54186 0.20332 0.19948 0.0
C1016 C 0.52764 0.21657 0.17993 0.0
C1017 C 0.5298 0.24599 0.1732 0.0
C1018 C 0.51625 0.25834 0.15488 0.0
C1019 C 0.50055 0.24146 0.14304 0.0
C1020 C 0.49839 0.21216 0.14944 0.0
C1021 C 0.5119 0.19969 0.16776 0.0
H1022 H 0.49007 0.25107 0.12886 0.0
H1023 H 0.62146 0.12918 0.30599 0.0
H1024 H 0.66555 0.04096 0.82866 0.0
H1025 H 0.64855 0.08452 0.81127 0.0
H1026 H 0.61346 0.03178 0.75722 0.0
H1027 H 0.6308 0.98846 0.77386 0.0
H1028 H 0.62623 0.07832 0.73398 0.0
H1029 H 0.59087 0.05874 0.81435 0.0
H1030 H 0.58921 0.04965 0.8611 0.0
H1031 H 0.61715 0.13315 0.87572 0.0
H1032 H 0.61919 0.14261 0.829 0.0
H1033 H 0.53654 0.16804 0.70746 0.0
H1034 H 0.55991 0.12962 0.72352 0.0
H1035 H 0.59986 0.19364 0.76013 0.0
H1036 H 0.57677 0.23234 0.74381 0.0
H1037 H 0.5873 0.1449 0.79241 0.0
H1038 H 0.61897 0.16486 0.71004 0.0
H1039 H 0.61888 0.17216 0.66302 0.0
H1040 H 0.59531 0.08552 0.65207 0.0
H1041 H 0.59495 0.07784 0.69907 0.0
C1042 C 0.65429 0.03867 0.81299 0.0
C1043 C 0.6495 0.01116 0.80275 0.0
C1044 C 0.64451 0.06359 0.80313 0.0
C1045 C 0.62946 0.06145 0.78315 0.0
C1046 C 0.62501 0.03407 0.77259 0.0
C1047 C 0.63494 0.00925 0.78221 0.0
C1048 C 0.61794 0.08746 0.77343 0.0
C1049 C 0.6176 0.09271 0.74679 0.0
C1050 C 0.60695 0.10664 0.7901 0.0
C1051 C 0.60539 0.10125 0.81819 0.0
C1052 C 0.59676 0.0751 0.82754 0.0
C1053 C 0.59573 0.06989 0.85402 0.0
C1054 C 0.60314 0.09076 0.87137 0.0
C1055 C 0.61146 0.11697 0.86226 0.0
C1056 C 0.61253 0.12229 0.83578 0.0
C1057 C 0.55035 0.174 0.71881 0.0
C1058 C 0.55481 0.20327 0.7243 0.0
C1059 C 0.5637 0.15202 0.72794 0.0
C1060 C 0.58161 0.15884 0.74296 0.0
C1061 C 0.5861 0.18798 0.74856 0.0
C1062 C 0.57295 0.21004 0.73909 0.0
C1063 C 0.59541 0.13536 0.75305 0.0
C1064 C 0.59614 0.13062 0.77972 0.0
C1065 C 0.60647 0.11637 0.73639 0.0
C1066 C 0.60675 0.12087 0.7081 0.0
C1067 C 0.61359 0.14745 0.69762 0.0
C1068 C 0.61366 0.15164 0.67096 0.0
C1069 C 0.60705 0.12934 0.65457 0.0
C1070 C 0.60041 0.10278 0.66479 0.0
C1071 C 0.60029 0.09849 0.69144 0.0
H1072 H 0.60712 0.13262 0.63393 0.0
H1073 H 0.60239 0.08665 0.89186 0.0
H1074 H 0.14101 0.32613 0.32958 0.0
H1075 H 0.11091 0.29611 0.31624 0.0
H1076 H 0.09478 0.35894 0.25786 0.0
H1077 H 0.12468 0.38942 0.27139 0.0
H1078 H 0.06106 0.3457 0.28717 0.0
H1079 H 0.11573 0.29224 0.24262 0.0
H1080 H 0.14937 0.26499 0.23884 0.0
H1081 H 0.12617 0.20159 0.2926 0.0
H1082 H 0.09248 0.22868 0.29696 0.0
H1083 H 0.98923 0.27635 0.20663 0.0
H1084 H 0.01865 0.3 0.22823 0.0
H1085 H 0.02453 0.22694 0.27975 0.0
H1086 H 0.99531 0.20219 0.2567 0.0
H1087 H 0.06262 0.24232 0.26071 0.0
H1088 H 0.00607 0.29423 0.30141 0.0
H1089 H 0.97242 0.3215 0.30342 0.0
H1090 H 0.99919 0.38827 0.2556 0.0
H1091 H 0.03301 0.36124 0.25312 0.0
C1092 C 0.13128 0.33338 0.31362 0.0
C1093 C 0.13515 0.36029 0.30165 0.0
C1094 C 0.1141 0.31611 0.30598 0.0
C1095 C 0.10059 0.32529 0.28608 0.0
C1096 C 0.10497 0.35153 0.27335 0.0
C1097 C 0.12212 0.36885 0.28102 0.0
C1098 C 0.08103 0.3087 0.27971 0.0
C1099 C 0.06142 0.32317 0.28115 0.0
C1100 C 0.08143 0.27896 0.27294 0.0
C1101 C 0.10168 0.26267 0.27035 0.0
C1102 C 0.11788 0.27263 0.25382 0.0
C1103 C 0.13694 0.25718 0.25153 0.0
C1104 C 0.13993 0.23162 0.26553 0.0
C1105 C 0.12384 0.22142 0.2818 0.0
C1106 C 0.10476 0.2368 0.28417 0.0
C1107 C 0.99677 0.26518 0.22242 0.0
C1108 C 0.99033 0.23719 0.22959 0.0
C1109 C 0.01342 0.27899 0.23514 0.0
C1110 C 0.02374 0.26542 0.25581 0.0
C1111 C 0.01675 0.23784 0.26386 0.0
C1112 C 1.0 0.22385 0.25089 0.0
C1113 C 0.0427 0.2796 0.26743 0.0
C1114 C 0.06221 0.26471 0.26712 0.0
C1115 C 0.04226 0.30904 0.27519 0.0
C1116 C 0.02205 0.32563 0.27702 0.0
C1117 C 0.00476 0.31467 0.29124 0.0
C1118 C 0.98564 0.33011 0.29245 0.0
C1119 C 0.98363 0.3566 0.27957 0.0
C1120 C 0.00077 0.36776 0.26556 0.0
C1121 C 0.01994 0.35243 0.26431 0.0
H1122 H 0.96882 0.36855 0.28045 0.0
H1123 H 0.1547 0.21969 0.26373 0.0
H1124 H 0.34595 0.99476 0.76587 0.0
H1125 H 0.36371 0.95088 0.7504 0.0
H1126 H 0.3737 0.92303 0.82871 0.0
H1127 H 0.3554 0.9666 0.84439 0.0
H1128 H 0.41151 0.92378 0.79458 0.0
H1129 H 0.33977 0.88721 0.79943 0.0
H1130 H 0.3011 0.88812 0.79103 0.0
H1131 H 0.31284 0.88612 0.7096 0.0
H1132 H 0.35161 0.88563 0.71752 0.0
H1133 H 0.42237 0.76571 0.7449 0.0
H1134 H 0.39997 0.8048 0.76155 0.0
H1135 H 0.44074 0.86801 0.72494 0.0
H1136 H 0.4637 0.8291 0.70916 0.0
H1137 H 0.37668 0.84748 0.74175 0.0
H1138 H 0.44461 0.92724 0.76058 0.0
H1139 H 0.48373 0.92581 0.76515 0.0
H1140 H 0.47961 0.84117 0.79935 0.0
H1141 H 0.4404 0.84223 0.79525 0.0
C1142 C 0.35172 0.97916 0.77982 0.0
C1143 C 0.3493 0.98415 0.80638 0.0
C1144 C 0.36183 0.95411 0.77093 0.0
C1145 C 0.37 0.9338 0.78842 0.0
C1146 C 0.36747 0.93851 0.81494 0.0
C1147 C 0.35695 0.96331 0.82385 0.0
C1148 C 0.38187 0.90826 0.77884 0.0
C1149 C 0.4039 0.90696 0.7832 0.0
C1150 C 0.3719 0.88648 0.7639 0.0
C1151 C 0.3486 0.88665 0.75908 0.0
C1152 C 0.33411 0.88722 0.77973 0.0
C1153 C 0.31217 0.88761 0.77505 0.0
C1154 C 0.30451 0.88725 0.74979 0.0
C1155 C 0.31879 0.88643 0.72916 0.0
C1156 C 0.34075 0.88606 0.73373 0.0
C1157 C 0.42649 0.78793 0.74024 0.0
C1158 C 0.44498 0.79434 0.72601 0.0
C1159 C 0.41363 0.81026 0.74974 0.0
C1160 C 0.41891 0.83938 0.74499 0.0
C1161 C 0.43666 0.84574 0.72946 0.0
C1162 C 0.44974 0.82347 0.72037 0.0
C1163 C 0.40644 0.86305 0.75726 0.0
C1164 C 0.38431 0.8641 0.75334 0.0
C1165 C 0.41631 0.88464 0.77263 0.0
C1166 C 0.43962 0.88475 0.77743 0.0
C1167 C 0.45203 0.9085 0.76939 0.0
C1168 C 0.47421 0.9077 0.7718 0.0
C1169 C 0.48413 0.88333 0.78233 0.0
C1170 C 0.47188 0.85996 0.79105 0.0
C1171 C 0.44968 0.86066 0.78872 0.0
H1172 H 0.50132 0.88252 0.7836 0.0
H1173 H 0.28752 0.88754 0.74621 0.0
H1174 H 0.86073 0.64786 0.27271 0.0
H1175 H 0.88798 0.68383 0.26141 0.0
H1176 H 0.93719 0.62516 0.28671 0.0
H1177 H 0.91021 0.58912 0.29787 0.0
H1178 H 0.94144 0.68058 0.30747 0.0
H1179 H 0.93096 0.63581 0.22473 0.0
H1180 H 0.90999 0.61874 0.18754 0.0
H1181 H 0.88853 0.70569 0.17327 0.0
H1182 H 0.90916 0.72323 0.21063 0.0
H1183 H 0.03267 0.75369 0.25426 0.0
H1184 H 0.00483 0.72105 0.27058 0.0
H1185 H 0.95678 0.7742 0.23437 0.0
H1186 H 0.9846 0.80586 0.21723 0.0
H1187 H 0.95158 0.72152 0.22004 0.0
H1188 H 0.96222 0.76717 0.30195 0.0
H1189 H 0.98268 0.78479 0.33936 0.0
H1190 H 0.00309 0.69786 0.35579 0.0
H1191 H 0.98297 0.67975 0.31827 0.0
C1192 C 0.87736 0.64245 0.27549 0.0
C1193 C 0.88327 0.61563 0.28624 0.0
C1194 C 0.8929 0.66304 0.2691 0.0
C1195 C 0.91458 0.65717 0.27338 0.0
C1196 C 0.92054 0.63017 0.28344 0.0
C1197 C 0.90507 0.60953 0.28963 0.0
C1198 C 0.93107 0.6794 0.26795 0.0
C1199 C 0.94386 0.68939 0.28832 0.0
C1200 C 0.93382 0.69128 0.24311 0.0
C1201 C 0.92142 0.68078 0.22064 0.0
C1202 C 0.92161 0.65125 0.21381 0.0
C1203 C 0.90982 0.6415 0.19266 0.0
C1204 C 0.89788 0.6611 0.17809 0.0
C1205 C 0.89776 0.69052 0.1846 0.0
C1206 C 0.90951 0.70038 0.20574 0.0
C1207 C 0.0161 0.75888 0.25067 0.0
C1208 C 0.01065 0.7823 0.23475 0.0
C1209 C 0.00018 0.7402 0.25989 0.0
C1210 C 0.97864 0.74511 0.25367 0.0
C1211 C 0.97324 0.7698 0.23927 0.0
C1212 C 0.98911 0.78804 0.2297 0.0
C1213 C 0.96195 0.72316 0.25964 0.0
C1214 C 0.94915 0.71301 0.2393 0.0
C1215 C 0.95913 0.71133 0.28456 0.0
C1216 C 0.97125 0.72215 0.30714 0.0
C1217 C 0.97121 0.75184 0.31341 0.0
C1218 C 0.98272 0.76191 0.33467 0.0
C1219 C 0.99422 0.74246 0.3499 0.0
C1220 C 0.9942 0.7129 0.34396 0.0
C1221 C 0.98272 0.70272 0.32271 0.0
H1222 H 0.00312 0.7503 0.36635 0.0
H1223 H 0.88877 0.65351 0.16173 0.0
H1224 H 0.61579 0.99027 0.19361 0.0
H1225 H 0.59675 0.95733 0.22238 0.0
H1226 H 0.64462 0.89175 0.20974 0.0
H1227 H 0.6634 0.92426 0.18029 0.0
H1228 H 0.6071 0.86847 0.20567 0.0
H1229 H 0.64 0.93118 0.26792 0.0
H1230 H 0.64928 0.97804 0.28796 0.0
H1231 H 0.58297 0.99579 0.30084 0.0
H1232 H 0.57327 0.94919 0.28058 0.0
H1233 H 0.57267 0.771 0.30103 0.0
H1234 H 0.59467 0.80777 0.28008 0.0
H1235 H 0.54261 0.86857 0.28358 0.0
H1236 H 0.52038 0.83193 0.30467 0.0
H1237 H 0.58243 0.8944 0.29346 0.0
H1238 H 0.54974 0.83253 0.23018 0.0
H1239 H 0.54038 0.78541 0.21068 0.0
H1240 H 0.60675 0.76625 0.19998 0.0
H1241 H 0.61651 0.81307 0.21984 0.0
C1242 C 0.62242 0.96895 0.19714 0.0
C1243 C 0.64115 0.95993 0.18458 0.0
C1244 C 0.61153 0.95014 0.21373 0.0
C1245 C 0.61934 0.92209 0.21852 0.0
C1246 C 0.63824 0.91325 0.20636 0.0
C1247 C 0.64901 0.93191 0.18955 0.0
C1248 C 0.60727 0.90143 0.23513 0.0
C1249 C 0.60206 0.87405 0.22503 0.0
C1250 C 0.6001 0.90886 0.26017 0.0
C1251 C 0.60591 0.9368 0.27252 0.0
C1252 C 0.62739 0.94517 0.27487 0.0
C1253 C 0.63272 0.97166 0.28629 0.0
C1254 C 0.61672 0.98991 0.29561 0.0
C1255 C 0.59535 0.98165 0.29359 0.0
C1256 C 0.58992 0.95518 0.28217 0.0
C1257 C 0.56592 0.79231 0.29776 0.0
C1258 C 0.54462 0.79835 0.30434 0.0
C1259 C 0.57855 0.81329 0.2857 0.0
C1260 C 0.57017 0.84075 0.27993 0.0
C1261 C 0.54937 0.84748 0.2878 0.0
C1262 C 0.53667 0.82645 0.29981 0.0
C1263 C 0.58258 0.86156 0.26403 0.0
C1264 C 0.58768 0.88891 0.27418 0.0
C1265 C 0.5897 0.85416 0.23903 0.0
C1266 C 0.58386 0.82618 0.22672 0.0
C1267 C 0.56234 0.81818 0.22384 0.0
C1268 C 0.55696 0.79154 0.2127 0.0
C1269 C 0.57297 0.77283 0.20415 0.0
C1270 C 0.59438 0.78076 0.20665 0.0
C1271 C 0.59984 0.80735 0.21783 0.0
H1272 H 0.56878 0.75221 0.19554 0.0
H1273 H 0.62088 0.01042 0.30444 0.0
H1274 H 0.90643 0.43066 0.70365 0.0
H1275 H 0.93025 0.38991 0.71196 0.0
H1276 H 0.87665 0.33756 0.7355 0.0
H1277 H 0.85259 0.37825 0.7272 0.0
H1278 H 0.91219 0.33194 0.76735 0.0
H1279 H 0.89591 0.32999 0.67634 0.0
H1280 H 0.89376 0.35111 0.6328 0.0
H1281 H 0.96137 0.36575 0.63299 0.0
H1282 H 0.96387 0.34509 0.67671 0.0
H1283 H 0.95653 0.19517 0.76718 0.0
H1284 H 0.93382 0.2353 0.75358 0.0
H1285 H 0.9889 0.2805 0.72394 0.0
H1286 H 0.01166 0.23969 0.73695 0.0
H1287 H 0.95398 0.2912 0.69468 0.0
H1288 H 0.97112 0.29984 0.78462 0.0
H1289 H 0.97504 0.28461 0.82992 0.0
H1290 H 0.90887 0.26083 0.83247 0.0
H1291 H 0.90446 0.27659 0.78734 0.0
C1292 C 0.89969 0.41063 0.71093 0.0
C1293 C 0.87757 0.40762 0.71458 0.0
C1294 C 0.91334 0.38731 0.71548 0.0
C1295 C 0.90512 0.36062 0.72382 0.0
C1296 C 0.88323 0.35797 0.72884 0.0
C1297 C 0.86953 0.38125 0.72416 0.0
C1298 C 0.91932 0.3353 0.72694 0.0
C1299 C 0.92109 0.32278 0.75139 0.0
C1300 C 0.93152 0.32409 0.70627 0.0
C1301 C 0.93004 0.33625 0.67989 0.0
C1302 C 0.91029 0.33792 0.66718 0.0
C1303 C 0.90901 0.34977 0.64245 0.0
C1304 C 0.92741 0.35983 0.63016 0.0
C1305 C 0.94713 0.35798 0.64254 0.0
C1306 C 0.94849 0.34618 0.66729 0.0
C1307 C 0.96364 0.21319 0.75686 0.0
C1308 C 0.98573 0.21437 0.75288 0.0
C1309 C 0.95073 0.23626 0.74942 0.0
C1310 C 0.95978 0.26122 0.73845 0.0
C1311 C 0.98164 0.26148 0.73254 0.0
C1312 C 0.99458 0.2381 0.7397 0.0
C1313 C 0.94658 0.28757 0.73504 0.0
C1314 C 0.94505 0.30034 0.71061 0.0
C1315 C 0.93484 0.29944 0.7558 0.0
C1316 C 0.93752 0.28911 0.78261 0.0
C1317 C 0.95745 0.29123 0.79482 0.0
C1318 C 0.95971 0.28271 0.82051 0.0
C1319 C 0.94225 0.2716 0.83402 0.0
C1320 C 0.9224 0.26935 0.82196 0.0
C1321 C 0.91997 0.27826 0.7964 0.0
H1322 H 0.94409 0.26481 0.85384 0.0
H1323 H 0.92638 0.36901 0.61102 0.0
H1324 H 0.42969 0.22906 0.29783 0.0
H1325 H 0.4098 0.18954 0.27798 0.0
H1326 H 0.46515 0.13441 0.2829 0.0
H1327 H 0.48542 0.17419 0.30218 0.0
H1328 H 0.44928 0.13144 0.23674 0.0
H1329 H 0.41953 0.12309 0.32079 0.0
H1330 H 0.40255 0.13982 0.36092 0.0
H1331 H 0.34753 0.16741 0.31836 0.0
H1332 H 0.3643 0.15122 0.27791 0.0
H1333 H 0.39127 0.0108 0.18718 0.0
H1334 H 0.41063 0.04076 0.21836 0.0
H1335 H 0.36352 0.10816 0.21028 0.0
H1336 H 0.34411 0.07849 0.17913 0.0
H1337 H 0.37634 0.10019 0.26122 0.0
H1338 H 0.4082 0.11296 0.17719 0.0
H1339 H 0.42535 0.09636 0.1371 0.0
H1340 H 0.47686 0.05982 0.18076 0.0
H1341 H 0.45984 0.07586 0.22115 0.0
C1342 C 0.4376 0.2084 0.29513 0.0
C1343 C 0.45922 0.2049 0.30163 0.0
C1344 C 0.42612 0.1857 0.28383 0.0
C1345 C 0.43587 0.1588 0.2791 0.0
C1346 C 0.45725 0.15493 0.28633 0.0
C1347 C 0.46881 0.17771 0.29747 0.0
C1348 C 0.42422 0.13559 0.26489 0.0
C1349 C 0.43353 0.12417 0.24248 0.0
C1350 C 0.40345 0.12644 0.27196 0.0
C1351 C 0.39325 0.13612 0.29627 0.0
C1352 C 0.40387 0.13292 0.31995 0.0
C1353 C 0.39427 0.14227 0.34277 0.0
C1354 C 0.37399 0.15472 0.34219 0.0
C1355 C 0.36324 0.15778 0.31878 0.0
C1356 C 0.37278 0.14847 0.29591 0.0
C1357 C 0.38485 0.03182 0.19229 0.0
C1358 C 0.3662 0.04231 0.18047 0.0
C1359 C 0.39598 0.04896 0.21006 0.0
C1360 C 0.38862 0.07681 0.21644 0.0
C1361 C 0.3695 0.08675 0.20562 0.0
C1362 C 0.35847 0.06978 0.18771 0.0
C1363 C 0.4014 0.09638 0.23315 0.0
C1364 C 0.39226 0.10717 0.25587 0.0
C1365 C 0.42236 0.1049 0.22646 0.0
C1366 C 0.43261 0.09528 0.20219 0.0
C1367 C 0.42308 0.10115 0.17825 0.0
C1368 C 0.4328 0.09189 0.15547 0.0
C1369 C 0.45215 0.07696 0.15639 0.0
C1370 C 0.46185 0.07133 0.18008 0.0
C1371 C 0.45218 0.0805 0.20292 0.0
H1372 H 0.45965 0.06982 0.13873 0.0
H1373 H 0.36659 0.16196 0.35987 0.0
H1374 H 0.14447 0.62003 0.72839 0.0
H1375 H 0.12023 0.66051 0.73591 0.0
H1376 H 0.06636 0.60443 0.72176 0.0
H1377 H 0.0905 0.56386 0.71386 0.0
H1378 H 0.06344 0.65373 0.69418 0.0
H1379 H 0.07706 0.62864 0.78209 0.0
H1380 H 0.09903 0.61741 0.82016 0.0
H1381 H 0.12794 0.7018 0.81603 0.0
H1382 H 0.10634 0.7134 0.77771 0.0
H1383 H 0.9846 0.75321 0.74274 0.0
H1384 H 0.00763 0.71347 0.72851 0.0
H1385 H 0.06315 0.76551 0.74559 0.0
H1386 H 0.04011 0.80461 0.76078 0.0
H1387 H 0.06433 0.71706 0.77131 0.0
H1388 H 0.05033 0.74221 0.68305 0.0
H1389 H 0.02785 0.75318 0.64535 0.0
H1390 H 0.99905 0.66879 0.65044 0.0
H1391 H 0.02117 0.65744 0.68839 0.0
C1392 C 0.12746 0.61613 0.72736 0.0
C1393 C 0.11943 0.58873 0.72041 0.0
C1394 C 0.11361 0.63932 0.73164 0.0
C1395 C 0.09149 0.63548 0.72934 0.0
C1396 C 0.08339 0.60789 0.72347 0.0
C1397 C 0.09722 0.58469 0.71914 0.0
C1398 C 0.07692 0.66058 0.73187 0.0
C1399 C 0.06339 0.66741 0.71118 0.0
C1400 C 0.07722 0.6787 0.75381 0.0
C1401 C 0.09022 0.67178 0.77688 0.0
C1402 C 0.08823 0.64472 0.78917 0.0
C1403 C 0.10059 0.63831 0.81082 0.0
C1404 C 0.11491 0.65885 0.82047 0.0
C1405 C 0.11686 0.68589 0.80852 0.0
C1406 C 0.10455 0.69241 0.78685 0.0
C1407 C 0.0017 0.75658 0.7422 0.0
C1408 C 0.0107 0.78192 0.75251 0.0
C1409 C 0.01487 0.73382 0.73424 0.0
C1410 C 0.03715 0.73645 0.7361 0.0
C1411 C 0.04602 0.76293 0.74412 0.0
C1412 C 0.03289 0.78538 0.7525 0.0
C1413 C 0.05109 0.71067 0.7334 0.0
C1414 C 0.0644 0.70354 0.7542 0.0
C1415 C 0.05053 0.69232 0.71159 0.0
C1416 C 0.03728 0.69908 0.68871 0.0
C1417 C 0.03909 0.72607 0.67626 0.0
C1418 C 0.02644 0.73234 0.65482 0.0
C1419 C 0.012 0.71172 0.64555 0.0
C1420 C 0.01023 0.68475 0.65766 0.0
C1421 C 0.02284 0.67838 0.67911 0.0
H1422 H 0.00222 0.71662 0.62895 0.0
H1423 H 0.12446 0.65385 0.83724 0.0
H1424 H 0.19167 0.5018 0.60387 0.0
H1425 H 0.18568 0.49301 0.55808 0.0
H1426 H 0.11808 0.50445 0.56879 0.0
H1427 H 0.12391 0.51376 0.61474 0.0
H1428 H 0.13299 0.45615 0.53305 0.0
H1429 H 0.13835 0.55899 0.54883 0.0
H1430 H 0.15475 0.60271 0.56779 0.0
H1431 H 0.21297 0.58528 0.52723 0.0
H1432 H 0.19702 0.54117 0.50836 0.0
H1433 H 0.12274 0.46522 0.39738 0.0
H1434 H 0.11718 0.47896 0.44242 0.0
H1435 H 0.18456 0.49571 0.45049 0.0
H1436 H 0.1901 0.48296 0.40557 0.0
H1437 H 0.16327 0.53351 0.47738 0.0
H1438 H 0.16114 0.42894 0.46646 0.0
H1439 H 0.14718 0.38309 0.44862 0.0
H1440 H 0.0855 0.40147 0.48047 0.0
H1441 H 0.09906 0.44763 0.49824 0.0
C1442 C 0.17547 0.50179 0.59666 0.0
C1443 C 0.15827 0.50875 0.61281 0.0
C1444 C 0.17211 0.49687 0.5705 0.0
C1445 C 0.1515 0.4985 0.56018 0.0
C1446 C 0.13409 0.50324 0.57652 0.0
C1447 C 0.13747 0.50855 0.60269 0.0
C1448 C 0.14859 0.49772 0.53204 0.0
C1449 C 0.13918 0.47326 0.52079 0.0
C1450 C 0.15697 0.51997 0.51627 0.0
C1451 C 0.16654 0.54665 0.52736 0.0
C1452 C 0.15471 0.56435 0.54413 0.0
C1453 C 0.16391 0.58922 0.55483 0.0
C1454 C 0.1849 0.59673 0.54877 0.0
C1455 C 0.19672 0.57942 0.53193 0.0
C1456 C 0.18759 0.5545 0.52121 0.0
C1457 C 0.13627 0.47245 0.40863 0.0
C1458 C 0.15689 0.47274 0.39803 0.0
C1459 C 0.13309 0.48012 0.43439 0.0
C1460 C 0.15053 0.48771 0.44995 0.0
C1461 C 0.17087 0.48982 0.43888 0.0
C1462 C 0.17402 0.48248 0.41315 0.0
C1463 C 0.14818 0.49147 0.47813 0.0
C1464 C 0.15663 0.51659 0.4895 0.0
C1465 C 0.13916 0.46961 0.49398 0.0
C1466 C 0.13103 0.44187 0.48338 0.0
C1467 C 0.14457 0.42329 0.46949 0.0
C1468 C 0.13674 0.39724 0.45942 0.0
C1469 C 0.11545 0.38942 0.46334 0.0
C1470 C 0.10197 0.40759 0.4774 0.0
C1471 C 0.10972 0.43369 0.48748 0.0
H1472 H 0.10942 0.36924 0.45553 0.0
H1473 H 0.192 0.616 0.55707 0.0
H1474 H 0.47396 0.74401 0.40686 0.0
H1475 H 0.4694 0.74165 0.45312 0.0
H1476 H 0.53188 0.7038 0.46103 0.0
H1477 H 0.5364 0.70521 0.414 0.0
H1478 H 0.50413 0.67766 0.49285 0.0
H1479 H 0.52349 0.77574 0.47469 0.0
H1480 H 0.52165 0.82302 0.45259 0.0
H1481 H 0.45731 0.83438 0.47884 0.0
H1482 H 0.45867 0.78696 0.50082 0.0
H1483 H 0.50398 0.76007 0.62291 0.0
H1484 H 0.50808 0.75833 0.57663 0.0
H1485 H 0.46287 0.68783 0.57246 0.0
H1486 H 0.45909 0.68881 0.61958 0.0
H1487 H 0.48318 0.7676 0.53876 0.0
H1488 H 0.47688 0.64413 0.5207 0.0
H1489 H 0.48312 0.59807 0.54372 0.0
H1490 H 0.52935 0.63994 0.59212 0.0
H1491 H 0.52359 0.68612 0.56917 0.0
C1492 C 0.48689 0.73528 0.41828 0.0
C1493 C 0.50572 0.72514 0.40662 0.0
C1494 C 0.4842 0.73396 0.44485 0.0
C1495 C 0.50042 0.72304 0.46065 0.0
C1496 C 0.51917 0.71242 0.4492 0.0
C1497 C 0.52179 0.71341 0.42236 0.0
C1498 C 0.49765 0.72335 0.48907 0.0
C1499 C 0.4996 0.69732 0.50292 0.0
C1500 C 0.49197 0.74906 0.50231 0.0
C1501 C 0.49113 0.77768 0.48923 0.0
C1502 C 0.5089 0.78823 0.47561 0.0
C1503 C 0.50795 0.81507 0.46312 0.0
C1504 C 0.48936 0.83167 0.46426 0.0
C1505 C 0.4717 0.82149 0.47795 0.0
C1506 C 0.47255 0.79465 0.49046 0.0
C1507 C 0.49477 0.74415 0.61233 0.0
C1508 C 0.48128 0.7244 0.62513 0.0
C1509 C 0.49712 0.74328 0.58571 0.0
C1510 C 0.486 0.72277 0.57099 0.0
C1511 C 0.4719 0.70357 0.58347 0.0
C1512 C 0.4696 0.70431 0.61036 0.0
C1513 C 0.48953 0.72188 0.54268 0.0
C1514 C 0.48765 0.74786 0.52876 0.0
C1515 C 0.49589 0.69633 0.52962 0.0
C1516 C 0.4996 0.66864 0.54342 0.0
C1517 C 0.48841 0.64347 0.53622 0.0
C1518 C 0.49186 0.61735 0.54925 0.0
C1519 C 0.50656 0.61611 0.56943 0.0
C1520 C 0.51791 0.64096 0.57656 0.0
C1521 C 0.51453 0.66712 0.56357 0.0
H1522 H 0.5092 0.59587 0.57951 0.0
H1523 H 0.48866 0.85244 0.45458 0.0
H1524 H 0.86393 0.57549 0.40501 0.0
H1525 H 0.86651 0.56132 0.45006 0.0
H1526 H 0.82309 0.49016 0.4361 0.0
H1527 H 0.81937 0.50574 0.3913 0.0
H1528 H 0.81108 0.51406 0.47595 0.0
H1529 H 0.87949 0.48201 0.44974 0.0
H1530 H 0.91492 0.48439 0.42932 0.0
H1531 H 0.93306 0.5535 0.48028 0.0
H1532 H 0.89762 0.55181 0.5008 0.0
H1533 H 0.86452 0.45838 0.60121 0.0
H1534 H 0.86773 0.47051 0.55578 0.0
H1535 H 0.81932 0.53629 0.56456 0.0
H1536 H 0.8151 0.52281 0.60984 0.0
H1537 H 0.8779 0.51147 0.52689 0.0
H1538 H 0.78871 0.54123 0.51261 0.0
H1539 H 0.75379 0.52969 0.53197 0.0
H1540 H 0.77817 0.44828 0.55923 0.0
H1541 H 0.81313 0.45917 0.53975 0.0
C1542 C 0.85523 0.55652 0.4115 0.0
C1543 C 0.8414 0.54171 0.39481 0.0
C1544 C 0.8568 0.54831 0.43726 0.0
C1545 C 0.84519 0.52443 0.44657 0.0
C1546 C 0.83211 0.50878 0.42948 0.0
C1547 C 0.83003 0.51758 0.40388 0.0
C1548 C 0.84537 0.51727 0.47445 0.0
C1549 C 0.82575 0.51329 0.48698 0.0
C1550 C 0.86446 0.5158 0.48896 0.0
C1551 C 0.88582 0.51693 0.47667 0.0
C1552 C 0.89097 0.49786 0.45647 0.0
C1553 C 0.91107 0.49906 0.4449 0.0
C1554 C 0.92621 0.51913 0.45345 0.0
C1555 C 0.9213 0.53799 0.47365 0.0
C1556 C 0.90122 0.53689 0.48529 0.0
C1557 C 0.85473 0.4757 0.59354 0.0
C1558 C 0.83932 0.48939 0.60892 0.0
C1559 C 0.85662 0.48265 0.56754 0.0
C1560 C 0.8434 0.50381 0.55653 0.0
C1561 C 0.82921 0.51921 0.57242 0.0
C1562 C 0.8269 0.51167 0.59832 0.0
C1563 C 0.84364 0.50839 0.52825 0.0
C1564 C 0.8633 0.51205 0.51573 0.0
C1565 C 0.82466 0.5081 0.5135 0.0
C1566 C 0.80359 0.50117 0.52495 0.0
C1567 C 0.78658 0.52082 0.52265 0.0
C1568 C 0.76679 0.5144 0.53366 0.0
C1569 C 0.76378 0.48831 0.5469 0.0
C1570 C 0.78053 0.46852 0.54905 0.0
C1571 C 0.80034 0.47481 0.53804 0.0
H1572 H 0.74846 0.48341 0.55544 0.0
H1573 H 0.94176 0.52002 0.44447 0.0
H1574 H 0.53044 0.26746 0.40032 0.0
H1575 H 0.53599 0.26781 0.44654 0.0
H1576 H 0.47105 0.29544 0.45815 0.0
H1577 H 0.46544 0.29599 0.4113 0.0
H1578 H 0.49724 0.32345 0.49051 0.0
H1579 H 0.48549 0.22438 0.46725 0.0
H1580 H 0.49089 0.17934 0.4425 0.0
H1581 H 0.55612 0.17608 0.46733 0.0
H1582 H 0.55118 0.22134 0.49197 0.0
H1583 H 0.50307 0.23402 0.61613 0.0
H1584 H 0.49981 0.23716 0.5697 0.0
H1585 H 0.5396 0.31362 0.56933 0.0
H1586 H 0.54248 0.3111 0.61646 0.0
H1587 H 0.52541 0.23402 0.5313 0.0
H1588 H 0.5222 0.35861 0.52023 0.0
H1589 H 0.51259 0.40184 0.54573 0.0
H1590 H 0.46975 0.35045 0.59142 0.0
H1591 H 0.4789 0.30704 0.56599 0.0
C1592 C 0.51721 0.27355 0.41258 0.0
C1593 C 0.49735 0.28134 0.40203 0.0
C1594 C 0.52046 0.27373 0.4391 0.0
C1595 C 0.50385 0.28112 0.45589 0.0
C1596 C 0.48409 0.28954 0.44554 0.0
C1597 C 0.48086 0.28971 0.4188 0.0
C1598 C 0.50721 0.27933 0.48417 0.0
C1599 C 0.50339 0.3039 0.49944 0.0
C1600 C 0.51501 0.25372 0.49594 0.0
C1601 C 0.51801 0.22639 0.48127 0.0
C1602 C 0.50102 0.21416 0.4673 0.0
C1603 C 0.50399 0.18858 0.4533 0.0
C1604 C 0.52385 0.17489 0.45329 0.0
C1605 C 0.54075 0.18672 0.46733 0.0
C1606 C 0.53787 0.21232 0.48134 0.0
C1607 C 0.51131 0.25147 0.60629 0.0
C1608 C 0.52288 0.2725 0.62014 0.0
C1609 C 0.50947 0.25316 0.57962 0.0
C1610 C 0.51917 0.27585 0.56598 0.0
C1611 C 0.53164 0.29618 0.5795 0.0
C1612 C 0.53346 0.29456 0.60641 0.0
C1613 C 0.51556 0.27818 0.53774 0.0
C1614 C 0.51938 0.25366 0.5224 0.0
C1615 C 0.50719 0.30355 0.52612 0.0
C1616 C 0.50145 0.32954 0.54141 0.0
C1617 C 0.5107 0.35657 0.53569 0.0
C1618 C 0.50533 0.3811 0.55013 0.0
C1619 C 0.49063 0.37887 0.57025 0.0
C1620 C 0.4812 0.35213 0.5759 0.0
C1621 C 0.48649 0.32755 0.5615 0.0
H1622 H 0.48651 0.39788 0.58141 0.0
H1623 H 0.52612 0.15509 0.44244 0.0
H1624 H 0.6028 0.00899 0.07978 0.0
H1625 H 0.59366 0.98959 0.03723 0.0
H1626 H 0.66019 0.97345 0.02225 0.0
H1627 H 0.66946 0.99252 0.06469 0.0
H1628 H 0.63899 0.0072 0.98409 0.0
H1629 H 0.62931 0.9186 0.03413 0.0
H1630 H 0.61272 0.88927 0.06844 0.0
H1631 H 0.55101 0.90316 0.03492 0.0
H1632 H 0.56723 0.93293 0.00058 0.0
H1633 H 0.66426 0.90713 0.89481 0.0
H1634 H 0.65258 0.92306 0.93711 0.0
H1635 H 0.59201 0.9491 0.90549 0.0
H1636 H 0.60379 0.93308 0.86243 0.0
H1637 H 0.59932 0.91657 0.96449 0.0
H1638 H 0.61006 0.00169 0.91101 0.0
H1639 H 0.62831 0.02777 0.87582 0.0
H1640 H 0.6879 0.02004 0.91581 0.0
H1641 H 0.6701 0.99331 0.95095 0.0
C1642 C 0.61545 0.00086 0.06757 0.0
C1643 C 0.63688 0.00238 0.0755 0.0
C1644 C 0.61018 0.98983 0.04331 0.0
C1645 C 0.62628 0.98036 0.02662 0.0
C1646 C 0.64757 0.98086 0.03487 0.0
C1647 C 0.65283 0.99159 0.05917 0.0
C1648 C 0.62133 0.97129 0.0 0.0
C1649 C 0.63006 0.98761 0.97979 0.0
C1650 C 0.60912 0.94623 0.99441 0.0
C1651 C 0.59944 0.9283 0.01501 0.0
C1652 C 0.61218 0.91564 0.03422 0.0
C1653 C 0.60285 0.89888 0.05364 0.0
C1654 C 0.58081 0.89444 0.05392 0.0
C1655 C 0.56807 0.90667 0.03472 0.0
C1656 C 0.57732 0.92348 0.01527 0.0
C1657 C 0.64829 0.91574 0.89685 0.0
C1658 C 0.63501 0.91928 0.87536 0.0
C1659 C 0.6416 0.9246 0.92106 0.0
C1660 C 0.62154 0.93731 0.92427 0.0
C1661 C 0.60753 0.93915 0.90326 0.0
C1662 C 0.61426 0.93009 0.87878 0.0
C1663 C 0.61733 0.95223 0.94881 0.0
C1664 C 0.60725 0.93695 0.96873 0.0
C1665 C 0.62808 0.97848 0.95422 0.0
C1666 C 0.63875 0.99538 0.93355 0.0
C1667 C 0.62707 0.00541 0.91222 0.0
C1668 C 0.63733 0.02032 0.8923 0.0
C1669 C 0.65923 0.02558 0.8936 0.0
C1670 C 0.67093 0.01597 0.91485 0.0
C1671 C 0.66076 0.00096 0.93478 0.0
H1672 H 0.66715 0.03713 0.87817 0.0
H1673 H 0.57362 0.88145 0.06896 0.0
H1674 H 0.01451 0.23392 0.89566 0.0
H1675 H 0.0078 0.22898 0.94177 0.0
H1676 H 0.00315 0.13608 0.93321 0.0
H1677 H 0.01046 0.14098 0.88678 0.0
H1678 H 0.9668 0.16421 0.95723 0.0
H1679 H 0.0417 0.15717 0.96765 0.0
H1680 H 0.07943 0.16987 0.96067 0.0
H1681 H 0.06867 0.25438 0.99287 0.0
H1682 H 0.03078 0.24238 -0.0003 0.0
H1683 H 0.9502 0.16838 0.09684 0.0
H1684 H 0.95967 0.15524 0.05246 0.0
H1685 H 0.97956 0.24343 0.03814 0.0
H1686 H 0.97041 0.25651 0.0822 0.0
H1687 H 0.01094 0.20505 0.02769 0.0
H1688 H 0.93547 0.21517 0.00998 0.0
H1689 H 0.89732 0.204 0.01572 0.0
H1690 H 0.90897 0.11478 0.99662 0.0
H1691 H 0.94728 0.12537 0.99109 0.0
C1692 C 0.01274 0.21239 0.90378 0.0
C1693 C 0.01316 0.18781 0.88788 0.0
C1694 C 0.00885 0.20958 0.93005 0.0
C1695 C 0.00496 0.18217 0.94083 0.0
C1696 C 0.00619 0.15738 0.92519 0.0
C1697 C 0.01055 0.16016 0.89883 0.0
C1698 C 0.9978 0.18038 0.96791 0.0
C1699 C 0.97659 0.17237 0.97286 0.0
C1700 C 0.01051 0.19151 0.98806 0.0
C1701 C 0.03334 0.19889 0.98408 0.0
C1702 C 0.04733 0.17855 0.97308 0.0
C1703 C 0.06876 0.18561 0.96918 0.0
C1704 C 0.07644 0.21292 0.9763 0.0
C1705 C 0.0627 0.23322 0.98737 0.0
C1706 C 0.04124 0.22628 0.9913 0.0
C1707 C 0.95595 0.18511 0.08394 0.0
C1708 C 0.95975 0.21341 0.09301 0.0
C1709 C 0.96148 0.17754 0.05866 0.0
C1710 C 0.97063 0.19828 0.04216 0.0
C1711 C 0.97282 0.227 0.05067 0.0
C1712 C 0.96745 0.23449 0.07581 0.0
C1713 C 0.97965 0.19008 0.01681 0.0
C1714 C 0.00126 0.19619 0.01225 0.0
C1715 C 0.96726 0.17735 0.99706 0.0
C1716 C 0.94428 0.17097 0.00048 0.0
C1717 C 0.92994 0.19311 0.00727 0.0
C1718 C 0.90827 0.1869 0.01042 0.0
C1719 C 0.90074 0.15867 0.00663 0.0
C1720 C 0.91484 0.13661 -0.00039 0.0
C1721 C 0.93653 0.14271 0.99646 0.0
H1722 H 0.88396 0.15391 0.00907 0.0
H1723 H 0.09304 0.21834 0.97326 0.0
H1724 H 0.39581 0.07198 0.85564 0.0
H1725 H 0.41024 0.06589 0.89943 0.0
H1726 H 0.35087 0.09668 0.93118 0.0
H1727 H 0.33659 0.10263 0.888 0.0
H1728 H 0.38529 0.11526 0.95978 0.0
H1729 H 0.35689 0.02579 0.92171 0.0
H1730 H 0.35614 0.988 0.88815 0.0
H1731 H 0.42202 0.96876 0.90265 0.0
H1732 H 0.42314 0.0067 0.93625 0.0
H1733 H 0.34381 0.03832 0.06482 0.0
H1734 H 0.35407 0.0629 0.02504 0.0
H1735 H 0.41514 0.02013 0.02678 0.0
H1736 H 0.4051 0.99564 0.06674 0.0
H1737 H 0.39322 0.01104 0.98166 0.0
H1738 H 0.41488 0.0914 0.03182 0.0
H1739 H 0.41238 0.12837 0.06596 0.0
H1740 H 0.35713 0.1648 0.02953 0.0
H1741 H 0.35906 0.12777 0.99538 0.0
C1742 C 0.38614 0.07806 0.87203 0.0
C1743 C 0.36504 0.08737 0.86857 0.0
C1744 C 0.39435 0.0746 0.89695 0.0
C1745 C 0.38156 0.08073 0.91852 0.0
C1746 C 0.36105 0.09196 0.91485 0.0
C1747 C 0.35283 0.09506 0.89015 0.0
C1748 C 0.3878 0.07182 0.94485 0.0
C1749 C 0.3873 0.09254 0.96466 0.0
C1750 C 0.39085 0.04225 0.95107 0.0
C1751 C 0.39017 0.01923 0.93121 0.0
C1752 C 0.37123 0.01358 0.91763 0.0
C1753 C 0.37074 0.99215 0.89861 0.0
C1754 C 0.38906 0.97606 0.89316 0.0
C1755 C 0.40787 0.9813 0.90683 0.0
C1756 C 0.40844 0.00274 0.92588 0.0
C1757 C 0.35961 0.03467 0.05712 0.0
C1758 C 0.37357 0.01489 0.06885 0.0
C1759 C 0.3655 0.04884 0.03443 0.0
C1760 C 0.38541 0.04339 0.02303 0.0
C1761 C 0.39975 0.02469 0.03532 0.0
C1762 C 0.39396 0.01074 0.05816 0.0
C1763 C 0.38987 0.05436 0.99678 0.0
C1764 C 0.39224 0.03394 0.97694 0.0
C1765 C 0.3883 0.08417 0.99063 0.0
C1766 C 0.38709 0.1067 0.01104 0.0
C1767 C 0.40211 0.10717 0.03116 0.0
C1768 C 0.4008 0.12817 0.05051 0.0
C1769 C 0.38461 0.14891 0.04992 0.0
C1770 C 0.36969 0.14873 0.02995 0.0
C1771 C 0.37091 0.12777 0.01055 0.0
H1772 H 0.38362 0.16515 0.06493 0.0
H1773 H 0.38866 0.95948 0.8784 0.0
H1774 H 0.00151 0.75649 0.89667 0.0
H1775 H 0.00849 0.76222 0.94254 0.0
H1776 H 0.98962 0.85204 0.93826 0.0
H1777 H 0.98234 0.84632 0.89193 0.0
H1778 H 0.03044 0.84166 0.96238 0.0
H1779 H 0.95821 0.81005 0.96961 0.0
H1780 H 0.92704 0.77915 0.96027 0.0
H1781 H 0.96009 0.70491 0.99014 0.0
H1782 H 0.99159 0.73527 -0.00068 0.0
H1783 H 0.04248 0.84598 0.10138 0.0
H1784 H 0.03309 0.85235 0.05589 0.0
H1785 H 0.03398 0.75938 0.04555 0.0
H1786 H 0.04226 0.75311 0.09113 0.0
H1787 H 0.99808 0.77937 0.02975 0.0
H1788 H 0.07152 0.80842 0.01748 0.0
H1789 H 0.10368 0.83786 0.02563 0.0
H1790 H 0.0697 0.91509 0.00453 0.0
H1791 H 0.03724 0.88613 0.99657 0.0
C1792 C 0.99848 0.77735 0.90555 0.0
C1793 C 0.99137 0.80097 0.89077 0.0
C1794 C 0.00247 0.78059 0.93175 0.0
C1795 C 0.99958 0.80754 0.94374 0.0
C1796 C 0.99193 0.83107 0.92927 0.0
C1797 C 0.98761 0.82772 0.90295 0.0
C1798 C 0.00563 0.81085 0.97112 0.0
C1799 C 0.02312 0.82856 0.97733 0.0
C1800 C 0.99631 0.79328 0.99035 0.0
C1801 C 0.97732 0.77495 0.98504 0.0
C1802 C 0.95889 0.7871 0.97403 0.0
C1803 C 0.94115 0.76968 0.96879 0.0
C1804 C 0.94159 0.74008 0.97458 0.0
C1805 C 0.95977 0.72785 0.98567 0.0
C1806 C 0.97756 0.74516 0.99094 0.0
C1807 C 0.04139 0.82705 0.08909 0.0
C1808 C 0.04313 0.79907 0.09956 0.0
C1809 C 0.03594 0.83067 0.06312 0.0
C1810 C 0.03267 0.80632 0.04726 0.0
C1811 C 0.03616 0.77849 0.05743 0.0
C1812 C 0.04111 0.77489 0.08338 0.0
C1813 C 0.02357 0.80925 0.02097 0.0
C1814 C 0.00534 0.7928 0.015 0.0
C1815 C 0.03238 0.82777 0.00198 0.0
C1816 C 0.05189 0.84515 0.00672 0.0
C1817 C 0.07086 0.83171 0.01479 0.0
C1818 C 0.08915 0.8483 0.01933 0.0
C1819 C 0.08871 0.87834 0.01568 0.0
C1820 C 0.07 0.89183 0.0074 0.0
C1821 C 0.05166 0.87534 0.00285 0.0
H1822 H 0.10289 0.89115 0.01921 0.0
H1823 H 0.92785 0.72663 0.9705 0.0
loop_
_geom_bond_atom_site_label_1
_geom_bond_atom_site_label_2
_geom_bond_distance
_geom_bond_site_symmetry_2
_ccdc_geom_bond_type
Mg0 O1 2.028 . S
Mg0 O7 1.986 . S
Mg0 O9 2.114 . S
Mg0 O10 2.251 . S
Mg0 O13 2.010 . S
O1 Mg0 2.028 . S
O1 C4 1.250 . S
O2 Mg3 2.028 . S
O2 C4 1.248 . S
Mg3 O2 2.028 . S
Mg3 O8 2.032 . S
Mg3 O10 2.079 . S
C4 O1 1.250 . S
C4 O2 1.248 . S
C5 O6 1.264 . S
C5 O13 1.249 . S
O6 C5 1.264 . S
O7 Mg0 1.986 . S
O7 C11 1.246 . S
O8 Mg3 2.032 . S
O8 C11 1.259 . S
O9 Mg0 2.114 . S
O9 C12 1.252 . S
O10 Mg0 2.251 . S
O10 Mg3 2.079 . S
O10 C12 1.273 . S
C11 O7 1.246 . S
C11 O8 1.259 . S
C12 O9 1.252 . S
C12 O10 1.273 . S
O13 Mg0 2.010 . S
O13 C5 1.249 . S
Mg14 O15 2.028 . S
Mg14 O21 1.986 . S
Mg14 O23 2.114 . S
Mg14 O24 2.251 . S
Mg14 O27 2.010 . S
O15 Mg14 2.028 . S
O15 C18 1.250 . S
O16 Mg17 2.028 . S
O16 C18 1.248 . S
Mg17 O16 2.028 . S
Mg17 O22 2.032 . S
Mg17 O24 2.079 . S
C18 O15 1.250 . S
C18 O16 1.248 . S
C19 O20 1.264 . S
C19 O27 1.249 . S
O20 C19 1.264 . S
O21 Mg14 1.986 . S
O21 C25 1.246 . S
O22 Mg17 2.032 . S
O22 C25 1.259 . S
O23 Mg14 2.114 . S
O23 C26 1.252 . S
O24 Mg14 2.251 . S
O24 Mg17 2.079 . S
O24 C26 1.273 . S
C25 O21 1.246 . S
C25 O22 1.259 . S
C26 O23 1.252 . S
C26 O24 1.273 . S
O27 Mg14 2.010 . S
O27 C19 1.249 . S
Mg28 O29 2.028 . S
Mg28 O35 1.986 . S
Mg28 O37 2.114 . S
Mg28 O38 2.251 . S
Mg28 O41 2.010 . S
O29 Mg28 2.028 . S
O29 C32 1.250 . S
O30 Mg31 2.028 . S
O30 C32 1.248 . S
Mg31 O30 2.028 . S
Mg31 O36 2.032 . S
Mg31 O38 2.079 . S
C32 O29 1.250 . S
C32 O30 1.248 . S
C33 O34 1.264 . S
C33 O41 1.249 . S
O34 C33 1.264 . S
O35 Mg28 1.986 . S
O35 C39 1.246 . S
O36 Mg31 2.032 . S
O36 C39 1.259 . S
O37 Mg28 2.114 . S
O37 C40 1.252 . S
O38 Mg28 2.251 . S
O38 Mg31 2.079 . S
O38 C40 1.273 . S
C39 O35 1.246 . S
C39 O36 1.259 . S
C40 O37 1.252 . S
C40 O38 1.273 . S
O41 Mg28 2.010 . S
O41 C33 1.249 . S
Mg42 O43 2.028 . S
Mg42 O49 1.986 . S
Mg42 O51 2.114 . S
Mg42 O52 2.251 . S
Mg42 O55 2.010 . S
O43 Mg42 2.028 . S
O43 C46 1.250 . S
O44 Mg45 2.028 . S
O44 C46 1.248 . S
Mg45 O44 2.028 . S
Mg45 O50 2.032 . S
Mg45 O52 2.079 . S
C46 O43 1.250 . S
C46 O44 1.248 . S
C47 O48 1.264 . S
C47 O55 1.249 . S
O48 C47 1.264 . S
O49 Mg42 1.986 . S
O49 C53 1.246 . S
O50 Mg45 2.032 . S
O50 C53 1.259 . S
O51 Mg42 2.114 . S
O51 C54 1.252 . S
O52 Mg42 2.251 . S
O52 Mg45 2.079 . S
O52 C54 1.273 . S
C53 O49 1.246 . S
C53 O50 1.259 . S
C54 O51 1.252 . S
C54 O52 1.273 . S
O55 Mg42 2.010 . S
O55 C47 1.249 . S
Mg56 O57 2.028 . S
Mg56 O63 1.986 . S
Mg56 O65 2.114 . S
Mg56 O66 2.251 . S
Mg56 O69 2.010 . S
O57 Mg56 2.028 . S
O57 C60 1.250 . S
O58 Mg59 2.028 . S
O58 C60 1.248 . S
Mg59 O58 2.028 . S
Mg59 O64 2.032 . S
Mg59 O66 2.079 . S
C60 O57 1.250 . S
C60 O58 1.248 . S
C61 O62 1.264 . S
C61 O69 1.249 . S
O62 C61 1.264 . S
O63 Mg56 1.986 . S
O63 C67 1.246 . S
O64 Mg59 2.032 . S
O64 C67 1.259 . S
O65 Mg56 2.114 . S
O65 C68 1.252 . S
O66 Mg56 2.251 . S
O66 Mg59 2.079 . S
O66 C68 1.273 . S
C67 O63 1.246 . S
C67 O64 1.259 . S
C68 O65 1.252 . S
C68 O66 1.273 . S
O69 Mg56 2.010 . S
O69 C61 1.249 . S
Mg70 O71 2.028 . S
Mg70 O77 1.986 . S
Mg70 O79 2.114 . S
Mg70 O80 2.251 . S
Mg70 O83 2.010 . S
O71 Mg70 2.028 . S
O71 C74 1.250 . S
O72 Mg73 2.028 . S
O72 C74 1.248 . S
Mg73 O72 2.028 . S
Mg73 O78 2.032 . S
Mg73 O80 2.079 . S
C74 O71 1.250 . S
C74 O72 1.248 . S
C75 O76 1.264 . S
C75 O83 1.249 . S
O76 C75 1.264 . S
O77 Mg70 1.986 . S
O77 C81 1.246 . S
O78 Mg73 2.032 . S
O78 C81 1.259 . S
O79 Mg70 2.114 . S
O79 C82 1.252 . S
O80 Mg70 2.251 . S
O80 Mg73 2.079 . S
O80 C82 1.273 . S
C81 O77 1.246 . S
C81 O78 1.259 . S
C82 O79 1.252 . S
C82 O80 1.273 . S
O83 Mg70 2.010 . S
O83 C75 1.249 . S
Mg84 O85 2.028 . S
Mg84 O91 1.986 . S
Mg84 O93 2.114 . S
Mg84 O94 2.251 . S
Mg84 O97 2.010 . S
O85 Mg84 2.028 . S
O85 C88 1.250 . S
O86 Mg87 2.028 . S
O86 C88 1.248 . S
Mg87 O86 2.028 . S
Mg87 O92 2.032 . S
Mg87 O94 2.079 . S
C88 O85 1.250 . S
C88 O86 1.248 . S
C89 O90 1.264 . S
C89 O97 1.249 . S
O90 C89 1.264 . S
O91 Mg84 1.986 . S
O91 C95 1.246 . S
O92 Mg87 2.032 . S
O92 C95 1.259 . S
O93 Mg84 2.114 . S
O93 C96 1.252 . S
O94 Mg84 2.251 . S
O94 Mg87 2.079 . S
O94 C96 1.273 . S
C95 O91 1.246 . S
C95 O92 1.259 . S
C96 O93 1.252 . S
C96 O94 1.273 . S
O97 Mg84 2.010 . S
O97 C89 1.249 . S
Mg98 O99 2.028 . S
Mg98 O105 1.986 . S
Mg98 O107 2.114 . S
Mg98 O108 2.251 . S
Mg98 O111 2.010 . S
O99 Mg98 2.028 . S
O99 C102 1.250 . S
O100 Mg101 2.028 . S
O100 C102 1.248 . S
Mg101 O100 2.028 . S
Mg101 O106 2.032 . S
Mg101 O108 2.079 . S
C102 O99 1.250 . S
C102 O100 1.248 . S
C103 O104 1.264 . S
C103 O111 1.249 . S
O104 C103 1.264 . S
O105 Mg98 1.986 . S
O105 C109 1.246 . S
O106 Mg101 2.032 . S
O106 C109 1.259 . S
O107 Mg98 2.114 . S
O107 C110 1.252 . S
O108 Mg98 2.251 . S
O108 Mg101 2.079 . S
O108 C110 1.273 . S
C109 O105 1.246 . S
C109 O106 1.259 . S
C110 O107 1.252 . S
C110 O108 1.273 . S
O111 Mg98 2.010 . S
O111 C103 1.249 . S
Mg112 O113 2.028 . S
Mg112 O119 1.986 . S
Mg112 O121 2.114 . S
Mg112 O122 2.251 . S
Mg112 O125 2.010 . S
O113 Mg112 2.028 . S
O113 C116 1.250 . S
O114 Mg115 2.028 . S
O114 C116 1.248 . S
Mg115 O114 2.028 . S
Mg115 O120 2.032 . S
Mg115 O122 2.079 . S
C116 O113 1.250 . S
C116 O114 1.248 . S
C117 O118 1.264 . S
C117 O125 1.249 . S
O118 C117 1.264 . S
O119 Mg112 1.986 . S
O119 C123 1.246 . S
O120 Mg115 2.032 . S
O120 C123 1.259 . S
O121 Mg112 2.114 . S
O121 C124 1.252 . S
O122 Mg112 2.251 . S
O122 Mg115 2.079 . S
O122 C124 1.273 . S
C123 O119 1.246 . S
C123 O120 1.259 . S
C124 O121 1.252 . S
C124 O122 1.273 . S
O125 Mg112 2.010 . S
O125 C117 1.249 . S
Mg126 O127 2.028 . S
Mg126 O133 1.986 . S
Mg126 O135 2.114 . S
Mg126 O136 2.251 . S
Mg126 O139 2.010 . S
O127 Mg126 2.028 . S
O127 C130 1.250 . S
O128 Mg129 2.028 . S
O128 C130 1.248 . S
Mg129 O128 2.028 . S
Mg129 O134 2.032 . S
Mg129 O136 2.079 . S
C130 O127 1.250 . S
C130 O128 1.248 . S
C131 O132 1.264 . S
C131 O139 1.249 . S
O132 C131 1.264 . S
O133 Mg126 1.986 . S
O133 C137 1.246 . S
O134 Mg129 2.032 . S
O134 C137 1.259 . S
O135 Mg126 2.114 . S
O135 C138 1.252 . S
O136 Mg126 2.251 . S
O136 Mg129 2.079 . S
O136 C138 1.273 . S
C137 O133 1.246 . S
C137 O134 1.259 . S
C138 O135 1.252 . S
C138 O136 1.273 . S
O139 Mg126 2.010 . S
O139 C131 1.249 . S
Mg140 O141 2.028 . S
Mg140 O147 1.986 . S
Mg140 O149 2.114 . S
Mg140 O150 2.251 . S
Mg140 O153 2.010 . S
O141 Mg140 2.028 . S
O141 C144 1.250 . S
O142 Mg143 2.028 . S
O142 C144 1.248 . S
Mg143 O142 2.028 . S
Mg143 O148 2.032 . S
Mg143 O150 2.079 . S
C144 O141 1.250 . S
C144 O142 1.248 . S
C145 O146 1.264 . S
C145 O153 1.249 . S
O146 C145 1.264 . S
O147 Mg140 1.986 . S
O147 C151 1.246 . S
O148 Mg143 2.032 . S
O148 C151 1.259 . S
O149 Mg140 2.114 . S
O149 C152 1.252 . S
O150 Mg140 2.251 . S
O150 Mg143 2.079 . S
O150 C152 1.273 . S
C151 O147 1.246 . S
C151 O148 1.259 . S
C152 O149 1.252 . S
C152 O150 1.273 . S
O153 Mg140 2.010 . S
O153 C145 1.249 . S
Mg154 O155 2.028 . S
Mg154 O161 1.986 . S
Mg154 O163 2.114 . S
Mg154 O164 2.251 . S
Mg154 O167 2.010 . S
O155 Mg154 2.028 . S
O155 C158 1.250 . S
O156 Mg157 2.028 . S
O156 C158 1.248 . S
Mg157 O156 2.028 . S
Mg157 O162 2.032 . S
Mg157 O164 2.079 . S
C158 O155 1.250 . S
C158 O156 1.248 . S
C159 O160 1.264 . S
C159 O167 1.249 . S
O160 C159 1.264 . S
O161 Mg154 1.986 . S
O161 C165 1.246 . S
O162 Mg157 2.032 . S
O162 C165 1.259 . S
O163 Mg154 2.114 . S
O163 C166 1.252 . S
O164 Mg154 2.251 . S
O164 Mg157 2.079 . S
O164 C166 1.273 . S
C165 O161 1.246 . S
C165 O162 1.259 . S
C166 O163 1.252 . S
C166 O164 1.273 . S
O167 Mg154 2.010 . S
O167 C159 1.249 . S
Mg168 O169 2.028 . S
Mg168 O175 1.986 . S
Mg168 O177 2.114 . S
Mg168 O178 2.251 . S
Mg168 O181 2.010 . S
O169 Mg168 2.028 . S
O169 C172 1.250 . S
O170 Mg171 2.028 . S
O170 C172 1.248 . S
Mg171 O170 2.028 . S
Mg171 O176 2.032 . S
Mg171 O178 2.079 . S
C172 O169 1.250 . S
C172 O170 1.248 . S
C173 O174 1.264 . S
C173 O181 1.249 . S
O174 C173 1.264 . S
O175 Mg168 1.986 . S
O175 C179 1.246 . S
O176 Mg171 2.032 . S
O176 C179 1.259 . S
O177 Mg168 2.114 . S
O177 C180 1.252 . S
O178 Mg168 2.251 . S
O178 Mg171 2.079 . S
O178 C180 1.273 . S
C179 O175 1.246 . S
C179 O176 1.259 . S
C180 O177 1.252 . S
C180 O178 1.273 . S
O181 Mg168 2.010 . S
O181 C173 1.249 . S
Mg182 O183 2.028 . S
Mg182 O189 1.986 . S
Mg182 O191 2.114 . S
Mg182 O192 2.251 . S
Mg182 O195 2.010 . S
O183 Mg182 2.028 . S
O183 C186 1.250 . S
O184 Mg185 2.028 . S
O184 C186 1.248 . S
Mg185 O184 2.028 . S
Mg185 O190 2.032 . S
Mg185 O192 2.079 . S
C186 O183 1.250 . S
C186 O184 1.248 . S
C187 O188 1.264 . S
C187 O195 1.249 . S
O188 C187 1.264 . S
O189 Mg182 1.986 . S
O189 C193 1.246 . S
O190 Mg185 2.032 . S
O190 C193 1.259 . S
O191 Mg182 2.114 . S
O191 C194 1.252 . S
O192 Mg182 2.251 . S
O192 Mg185 2.079 . S
O192 C194 1.273 . S
C193 O189 1.246 . S
C193 O190 1.259 . S
C194 O191 1.252 . S
C194 O192 1.273 . S
O195 Mg182 2.010 . S
O195 C187 1.249 . S
Mg196 O197 2.028 . S
Mg196 O203 1.986 . S
Mg196 O205 2.114 . S
Mg196 O206 2.251 . S
Mg196 O209 2.010 . S
O197 Mg196 2.028 . S
O197 C200 1.250 . S
O198 Mg199 2.028 . S
O198 C200 1.248 . S
Mg199 O198 2.028 . S
Mg199 O204 2.032 . S
Mg199 O206 2.079 . S
C200 O197 1.250 . S
C200 O198 1.248 . S
C201 O202 1.264 . S
C201 O209 1.249 . S
O202 C201 1.264 . S
O203 Mg196 1.986 . S
O203 C207 1.246 . S
O204 Mg199 2.032 . S
O204 C207 1.259 . S
O205 Mg196 2.114 . S
O205 C208 1.252 . S
O206 Mg196 2.251 . S
O206 Mg199 2.079 . S
O206 C208 1.273 . S
C207 O203 1.246 . S
C207 O204 1.259 . S
C208 O205 1.252 . S
C208 O206 1.273 . S
O209 Mg196 2.010 . S
O209 C201 1.249 . S
Mg210 O211 2.028 . S
Mg210 O217 1.986 . S
Mg210 O219 2.114 . S
Mg210 O220 2.251 . S
Mg210 O223 2.010 . S
O211 Mg210 2.028 . S
O211 C214 1.250 . S
O212 Mg213 2.028 . S
O212 C214 1.248 . S
Mg213 O212 2.028 . S
Mg213 O218 2.032 . S
Mg213 O220 2.079 . S
C214 O211 1.250 . S
C214 O212 1.248 . S
C215 O216 1.264 . S
C215 O223 1.249 . S
O216 C215 1.264 . S
O217 Mg210 1.986 . S
O217 C221 1.246 . S
O218 Mg213 2.032 . S
O218 C221 1.259 . S
O219 Mg210 2.114 . S
O219 C222 1.252 . S
O220 Mg210 2.251 . S
O220 Mg213 2.079 . S
O220 C222 1.273 . S
C221 O217 1.246 . S
C221 O218 1.259 . S
C222 O219 1.252 . S
C222 O220 1.273 . S
O223 Mg210 2.010 . S
O223 C215 1.249 . S
H224 C242 0.951 . S
H225 C244 0.951 . S
H226 C246 0.950 . S
H227 C247 0.950 . S
H228 C249 0.950 . S
H229 C252 0.950 . S
H230 C253 0.950 . S
H231 C255 0.950 . S
H232 C256 0.950 . S
H233 C257 0.951 . S
H234 C259 0.951 . S
H235 C261 0.950 . S
H236 C262 0.950 . S
H237 C264 0.950 . S
H238 C267 0.950 . S
H239 C268 0.950 . S
H240 C270 0.950 . S
H241 C271 0.950 . S
C242 H224 0.951 . S
C242 C243 1.366 . S
C242 C244 1.388 . S
C243 C242 1.366 . S
C243 C247 1.385 . S
C244 H225 0.951 . S
C244 C242 1.388 . S
C244 C245 1.366 . S
C245 C244 1.366 . S
C245 C246 1.414 . S
C245 C248 1.499 . S
C246 H226 0.950 . S
C246 C245 1.414 . S
C246 C247 1.374 . S
C247 H227 0.950 . S
C247 C243 1.385 . S
C247 C246 1.374 . S
C248 C245 1.499 . S
C248 C249 1.373 . S
C248 C250 1.389 . S
C249 H228 0.950 . S
C249 C248 1.373 . S
C249 C265 1.377 . S
C250 C248 1.389 . S
C250 C251 1.524 . S
C250 C264 1.377 . S
C251 C250 1.524 . S
C251 C252 1.397 . S
C251 C256 1.363 . S
C252 H229 0.950 . S
C252 C251 1.397 . S
C252 C253 1.334 . S
C253 H230 0.950 . S
C253 C252 1.334 . S
C253 C254 1.287 . S
C254 C253 1.287 . S
C254 C255 1.524 . S
C254 H273 0.913 . S
C255 H231 0.950 . S
C255 C254 1.524 . S
C255 C256 1.415 . S
C256 H232 0.950 . S
C256 C251 1.363 . S
C256 C255 1.415 . S
C257 H233 0.951 . S
C257 C258 1.366 . S
C257 C259 1.388 . S
C258 C257 1.366 . S
C258 C262 1.385 . S
C259 H234 0.951 . S
C259 C257 1.388 . S
C259 C260 1.366 . S
C260 C259 1.366 . S
C260 C261 1.414 . S
C260 C263 1.499 . S
C261 H235 0.950 . S
C261 C260 1.414 . S
C261 C262 1.374 . S
C262 H236 0.950 . S
C262 C258 1.385 . S
C262 C261 1.374 . S
C263 C260 1.499 . S
C263 C264 1.373 . S
C263 C265 1.389 . S
C264 H237 0.950 . S
C264 C250 1.377 . S
C264 C263 1.373 . S
C265 C249 1.377 . S
C265 C263 1.389 . S
C265 C266 1.524 . S
C266 C265 1.524 . S
C266 C267 1.397 . S
C266 C271 1.363 . S
C267 H238 0.950 . S
C267 C266 1.397 . S
C267 C268 1.334 . S
C268 H239 0.950 . S
C268 C267 1.334 . S
C268 C269 1.287 . S
C269 C268 1.287 . S
C269 C270 1.524 . S
C269 H272 0.999 . S
C270 H240 0.950 . S
C270 C269 1.524 . S
C270 C271 1.415 . S
C271 H241 0.950 . S
C271 C266 1.363 . S
C271 C270 1.415 . S
H272 C269 0.999 . S
H273 C254 0.913 . S
H274 C292 0.951 . S
H275 C294 0.951 . S
H276 C296 0.950 . S
H277 C297 0.950 . S
H278 C299 0.950 . S
H279 C302 0.950 . S
H280 C303 0.950 . S
H281 C305 0.950 . S
H282 C306 0.950 . S
H283 C307 0.951 . S
H284 C309 0.951 . S
H285 C311 0.950 . S
H286 C312 0.950 . S
H287 C314 0.950 . S
H288 C317 0.950 . S
H289 C318 0.950 . S
H290 C320 0.950 . S
H291 C321 0.950 . S
C292 H274 0.951 . S
C292 C293 1.366 . S
C292 C294 1.388 . S
C293 C292 1.366 . S
C293 C297 1.385 . S
C294 H275 0.951 . S
C294 C292 1.388 . S
C294 C295 1.366 . S
C295 C294 1.366 . S
C295 C296 1.414 . S
C295 C298 1.499 . S
C296 H276 0.950 . S
C296 C295 1.414 . S
C296 C297 1.374 . S
C297 H277 0.950 . S
C297 C293 1.385 . S
C297 C296 1.374 . S
C298 C295 1.499 . S
C298 C299 1.373 . S
C298 C300 1.389 . S
C299 H278 0.950 . S
C299 C298 1.373 . S
C299 C315 1.377 . S
C300 C298 1.389 . S
C300 C301 1.524 . S
C300 C314 1.377 . S
C301 C300 1.524 . S
C301 C302 1.397 . S
C301 C306 1.363 . S
C302 H279 0.950 . S
C302 C301 1.397 . S
C302 C303 1.334 . S
C303 H280 0.950 . S
C303 C302 1.334 . S
C303 C304 1.287 . S
C304 C303 1.287 . S
C304 C305 1.524 . S
C304 H323 0.913 . S
C305 H281 0.950 . S
C305 C304 1.524 . S
C305 C306 1.415 . S
C306 H282 0.950 . S
C306 C301 1.363 . S
C306 C305 1.415 . S
C307 H283 0.951 . S
C307 C308 1.366 . S
C307 C309 1.388 . S
C308 C307 1.366 . S
C308 C312 1.385 . S
C309 H284 0.951 . S
C309 C307 1.388 . S
C309 C310 1.366 . S
C310 C309 1.366 . S
C310 C311 1.414 . S
C310 C313 1.499 . S
C311 H285 0.950 . S
C311 C310 1.414 . S
C311 C312 1.374 . S
C312 H286 0.950 . S
C312 C308 1.385 . S
C312 C311 1.374 . S
C313 C310 1.499 . S
C313 C314 1.373 . S
C313 C315 1.389 . S
C314 H287 0.950 . S
C314 C300 1.377 . S
C314 C313 1.373 . S
C315 C299 1.377 . S
C315 C313 1.389 . S
C315 C316 1.524 . S
C316 C315 1.524 . S
C316 C317 1.397 . S
C316 C321 1.363 . S
C317 H288 0.950 . S
C317 C316 1.397 . S
C317 C318 1.334 . S
C318 H289 0.950 . S
C318 C317 1.334 . S
C318 C319 1.287 . S
C319 C318 1.287 . S
C319 C320 1.524 . S
C319 H322 0.999 . S
C320 H290 0.950 . S
C320 C319 1.524 . S
C320 C321 1.415 . S
C321 H291 0.950 . S
C321 C316 1.363 . S
C321 C320 1.415 . S
H322 C319 0.999 . S
H323 C304 0.913 . S
H324 C342 0.951 . S
H325 C344 0.951 . S
H326 C346 0.950 . S
H327 C347 0.950 . S
H328 C349 0.950 . S
H329 C352 0.950 . S
H330 C353 0.950 . S
H331 C355 0.950 . S
H332 C356 0.950 . S
H333 C357 0.951 . S
H334 C359 0.951 . S
H335 C361 0.950 . S
H336 C362 0.950 . S
H337 C364 0.950 . S
H338 C367 0.950 . S
H339 C368 0.950 . S
H340 C370 0.950 . S
H341 C371 0.950 . S
C342 H324 0.951 . S
C342 C343 1.366 . S
C342 C344 1.388 . S
C343 C342 1.366 . S
C343 C347 1.385 . S
C344 H325 0.951 . S
C344 C342 1.388 . S
C344 C345 1.366 . S
C345 C344 1.366 . S
C345 C346 1.414 . S
C345 C348 1.499 . S
C346 H326 0.950 . S
C346 C345 1.414 . S
C346 C347 1.374 . S
C347 H327 0.950 . S
C347 C343 1.385 . S
C347 C346 1.374 . S
C348 C345 1.499 . S
C348 C349 1.373 . S
C348 C350 1.389 . S
C349 H328 0.950 . S
C349 C348 1.373 . S
C349 C365 1.377 . S
C350 C348 1.389 . S
C350 C351 1.524 . S
C350 C364 1.377 . S
C351 C350 1.524 . S
C351 C352 1.397 . S
C351 C356 1.363 . S
C352 H329 0.950 . S
C352 C351 1.397 . S
C352 C353 1.334 . S
C353 H330 0.950 . S
C353 C352 1.334 . S
C353 C354 1.287 . S
C354 C353 1.287 . S
C354 C355 1.524 . S
C354 H373 0.913 . S
C355 H331 0.950 . S
C355 C354 1.524 . S
C355 C356 1.415 . S
C356 H332 0.950 . S
C356 C351 1.363 . S
C356 C355 1.415 . S
C357 H333 0.951 . S
C357 C358 1.366 . S
C357 C359 1.388 . S
C358 C357 1.366 . S
C358 C362 1.385 . S
C359 H334 0.951 . S
C359 C357 1.388 . S
C359 C360 1.366 . S
C360 C359 1.366 . S
C360 C361 1.414 . S
C360 C363 1.499 . S
C361 H335 0.950 . S
C361 C360 1.414 . S
C361 C362 1.374 . S
C362 H336 0.950 . S
C362 C358 1.385 . S
C362 C361 1.374 . S
C363 C360 1.499 . S
C363 C364 1.373 . S
C363 C365 1.389 . S
C364 H337 0.950 . S
C364 C350 1.377 . S
C364 C363 1.373 . S
C365 C349 1.377 . S
C365 C363 1.389 . S
C365 C366 1.524 . S
C366 C365 1.524 . S
C366 C367 1.397 . S
C366 C371 1.363 . S
C367 H338 0.950 . S
C367 C366 1.397 . S
C367 C368 1.334 . S
C368 H339 0.950 . S
C368 C367 1.334 . S
C368 C369 1.287 . S
C369 C368 1.287 . S
C369 C370 1.524 . S
C369 H372 0.999 . S
C370 H340 0.950 . S
C370 C369 1.524 . S
C370 C371 1.415 . S
C371 H341 0.950 . S
C371 C366 1.363 . S
C371 C370 1.415 . S
H372 C369 0.999 . S
H373 C354 0.913 . S
H374 C392 0.951 . S
H375 C394 0.951 . S
H376 C396 0.950 . S
H377 C397 0.950 . S
H378 C399 0.950 . S
H379 C402 0.950 . S
H380 C403 0.950 . S
H381 C405 0.950 . S
H382 C406 0.950 . S
H383 C407 0.951 . S
H384 C409 0.951 . S
H385 C411 0.950 . S
H386 C412 0.950 . S
H387 C414 0.950 . S
H388 C417 0.950 . S
H389 C418 0.950 . S
H390 C420 0.950 . S
H391 C421 0.950 . S
C392 H374 0.951 . S
C392 C393 1.366 . S
C392 C394 1.388 . S
C393 C392 1.366 . S
C393 C397 1.385 . S
C394 H375 0.951 . S
C394 C392 1.388 . S
C394 C395 1.366 . S
C395 C394 1.366 . S
C395 C396 1.414 . S
C395 C398 1.499 . S
C396 H376 0.950 . S
C396 C395 1.414 . S
C396 C397 1.374 . S
C397 H377 0.950 . S
C397 C393 1.385 . S
C397 C396 1.374 . S
C398 C395 1.499 . S
C398 C399 1.373 . S
C398 C400 1.389 . S
C399 H378 0.950 . S
C399 C398 1.373 . S
C399 C415 1.377 . S
C400 C398 1.389 . S
C400 C401 1.524 . S
C400 C414 1.377 . S
C401 C400 1.524 . S
C401 C402 1.397 . S
C401 C406 1.363 . S
C402 H379 0.950 . S
C402 C401 1.397 . S
C402 C403 1.334 . S
C403 H380 0.950 . S
C403 C402 1.334 . S
C403 C404 1.287 . S
C404 C403 1.287 . S
C404 C405 1.524 . S
C404 H423 0.913 . S
C405 H381 0.950 . S
C405 C404 1.524 . S
C405 C406 1.415 . S
C406 H382 0.950 . S
C406 C401 1.363 . S
C406 C405 1.415 . S
C407 H383 0.951 . S
C407 C408 1.366 . S
C407 C409 1.388 . S
C408 C407 1.366 . S
C408 C412 1.385 . S
C409 H384 0.951 . S
C409 C407 1.388 . S
C409 C410 1.366 . S
C410 C409 1.366 . S
C410 C411 1.414 . S
C410 C413 1.499 . S
C411 H385 0.950 . S
C411 C410 1.414 . S
C411 C412 1.374 . S
C412 H386 0.950 . S
C412 C408 1.385 . S
C412 C411 1.374 . S
C413 C410 1.499 . S
C413 C414 1.373 . S
C413 C415 1.389 . S
C414 H387 0.950 . S
C414 C400 1.377 . S
C414 C413 1.373 . S
C415 C399 1.377 . S
C415 C413 1.389 . S
C415 C416 1.524 . S
C416 C415 1.524 . S
C416 C417 1.397 . S
C416 C421 1.363 . S
C417 H388 0.950 . S
C417 C416 1.397 . S
C417 C418 1.334 . S
C418 H389 0.950 . S
C418 C417 1.334 . S
C418 C419 1.287 . S
C419 C418 1.287 . S
C419 C420 1.524 . S
C419 H422 0.999 . S
C420 H390 0.950 . S
C420 C419 1.524 . S
C420 C421 1.415 . S
C421 H391 0.950 . S
C421 C416 1.363 . S
C421 C420 1.415 . S
H422 C419 0.999 . S
H423 C404 0.913 . S
H424 C442 0.951 . S
H425 C444 0.951 . S
H426 C446 0.950 . S
H427 C447 0.950 . S
H428 C449 0.950 . S
H429 C452 0.950 . S
H430 C453 0.950 . S
H431 C455 0.950 . S
H432 C456 0.950 . S
H433 C457 0.951 . S
H434 C459 0.951 . S
H435 C461 0.950 . S
H436 C462 0.950 . S
H437 C464 0.950 . S
H438 C467 0.950 . S
H439 C468 0.950 . S
H440 C470 0.950 . S
H441 C471 0.950 . S
C442 H424 0.951 . S
C442 C443 1.366 . S
C442 C444 1.388 . S
C443 C442 1.366 . S
C443 C447 1.385 . S
C444 H425 0.951 . S
C444 C442 1.388 . S
C444 C445 1.366 . S
C445 C444 1.366 . S
C445 C446 1.414 . S
C445 C448 1.499 . S
C446 H426 0.950 . S
C446 C445 1.414 . S
C446 C447 1.374 . S
C447 H427 0.950 . S
C447 C443 1.385 . S
C447 C446 1.374 . S
C448 C445 1.499 . S
C448 C449 1.373 . S
C448 C450 1.389 . S
C449 H428 0.950 . S
C449 C448 1.373 . S
C449 C465 1.377 . S
C450 C448 1.389 . S
C450 C451 1.524 . S
C450 C464 1.377 . S
C451 C450 1.524 . S
C451 C452 1.397 . S
C451 C456 1.363 . S
C452 H429 0.950 . S
C452 C451 1.397 . S
C452 C453 1.334 . S
C453 H430 0.950 . S
C453 C452 1.334 . S
C453 C454 1.287 . S
C454 C453 1.287 . S
C454 C455 1.524 . S
C454 H473 0.913 . S
C455 H431 0.950 . S
C455 C454 1.524 . S
C455 C456 1.415 . S
C456 H432 0.950 . S
C456 C451 1.363 . S
C456 C455 1.415 . S
C457 H433 0.951 . S
C457 C458 1.366 . S
C457 C459 1.388 . S
C458 C457 1.366 . S
C458 C462 1.385 . S
C459 H434 0.951 . S
C459 C457 1.388 . S
C459 C460 1.366 . S
C460 C459 1.366 . S
C460 C461 1.414 . S
C460 C463 1.499 . S
C461 H435 0.950 . S
C461 C460 1.414 . S
C461 C462 1.374 . S
C462 H436 0.950 . S
C462 C458 1.385 . S
C462 C461 1.374 . S
C463 C460 1.499 . S
C463 C464 1.373 . S
C463 C465 1.389 . S
C464 H437 0.950 . S
C464 C450 1.377 . S
C464 C463 1.373 . S
C465 C449 1.377 . S
C465 C463 1.389 . S
C465 C466 1.524 . S
C466 C465 1.524 . S
C466 C467 1.397 . S
C466 C471 1.363 . S
C467 H438 0.950 . S
C467 C466 1.397 . S
C467 C468 1.334 . S
C468 H439 0.950 . S
C468 C467 1.334 . S
C468 C469 1.287 . S
C469 C468 1.287 . S
C469 C470 1.524 . S
C469 H472 0.999 . S
C470 H440 0.950 . S
C470 C469 1.524 . S
C470 C471 1.415 . S
C471 H441 0.950 . S
C471 C466 1.363 . S
C471 C470 1.415 . S
H472 C469 0.999 . S
H473 C454 0.913 . S
H474 C492 0.951 . S
H475 C494 0.951 . S
H476 C496 0.950 . S
H477 C497 0.950 . S
H478 C499 0.950 . S
H479 C502 0.950 . S
H480 C503 0.950 . S
H481 C505 0.950 . S
H482 C506 0.950 . S
H483 C507 0.951 . S
H484 C509 0.951 . S
H485 C511 0.950 . S
H486 C512 0.950 . S
H487 C514 0.950 . S
H488 C517 0.950 . S
H489 C518 0.950 . S
H490 C520 0.950 . S
H491 C521 0.950 . S
C492 H474 0.951 . S
C492 C493 1.366 . S
C492 C494 1.388 . S
C493 C492 1.366 . S
C493 C497 1.385 . S
C494 H475 0.951 . S
C494 C492 1.388 . S
C494 C495 1.366 . S
C495 C494 1.366 . S
C495 C496 1.414 . S
C495 C498 1.499 . S
C496 H476 0.950 . S
C496 C495 1.414 . S
C496 C497 1.374 . S
C497 H477 0.950 . S
C497 C493 1.385 . S
C497 C496 1.374 . S
C498 C495 1.499 . S
C498 C499 1.373 . S
C498 C500 1.389 . S
C499 H478 0.950 . S
C499 C498 1.373 . S
C499 C515 1.377 . S
C500 C498 1.389 . S
C500 C501 1.524 . S
C500 C514 1.377 . S
C501 C500 1.524 . S
C501 C502 1.397 . S
C501 C506 1.363 . S
C502 H479 0.950 . S
C502 C501 1.397 . S
C502 C503 1.334 . S
C503 H480 0.950 . S
C503 C502 1.334 . S
C503 C504 1.287 . S
C504 C503 1.287 . S
C504 C505 1.524 . S
C504 H523 0.913 1_545 S
C505 H481 0.950 . S
C505 C504 1.524 . S
C505 C506 1.415 . S
C506 H482 0.950 . S
C506 C501 1.363 . S
C506 C505 1.415 . S
C507 H483 0.951 . S
C507 C508 1.366 . S
C507 C509 1.388 . S
C508 C507 1.366 . S
C508 C512 1.385 . S
C509 H484 0.951 . S
C509 C507 1.388 . S
C509 C510 1.366 . S
C510 C509 1.366 . S
C510 C511 1.414 . S
C510 C513 1.499 . S
C511 H485 0.950 . S
C511 C510 1.414 . S
C511 C512 1.374 . S
C512 H486 0.950 . S
C512 C508 1.385 . S
C512 C511 1.374 . S
C513 C510 1.499 . S
C513 C514 1.373 . S
C513 C515 1.389 . S
C514 H487 0.950 . S
C514 C500 1.377 . S
C514 C513 1.373 . S
C515 C499 1.377 . S
C515 C513 1.389 . S
C515 C516 1.524 . S
C516 C515 1.524 . S
C516 C517 1.397 . S
C516 C521 1.363 . S
C517 H488 0.950 . S
C517 C516 1.397 . S
C517 C518 1.334 . S
C518 H489 0.950 . S
C518 C517 1.334 . S
C518 C519 1.287 . S
C519 C518 1.287 . S
C519 C520 1.524 . S
C519 H522 0.999 . S
C520 H490 0.950 . S
C520 C519 1.524 . S
C520 C521 1.415 . S
C521 H491 0.950 . S
C521 C516 1.363 . S
C521 C520 1.415 . S
H522 C519 0.999 . S
H523 C504 0.913 1_565 S
H524 C542 0.951 . S
H525 C544 0.951 . S
H526 C546 0.950 . S
H527 C547 0.950 . S
H528 C549 0.950 . S
H529 C552 0.950 . S
H530 C553 0.950 . S
H531 C555 0.950 . S
H532 C556 0.950 . S
H533 C557 0.951 . S
H534 C559 0.951 . S
H535 C561 0.950 . S
H536 C562 0.950 . S
H537 C564 0.950 . S
H538 C567 0.950 . S
H539 C568 0.950 . S
H540 C570 0.950 . S
H541 C571 0.950 . S
C542 H524 0.951 . S
C542 C543 1.366 . S
C542 C544 1.388 . S
C543 C542 1.366 . S
C543 C547 1.385 . S
C544 H525 0.951 . S
C544 C542 1.388 . S
C544 C545 1.366 . S
C545 C544 1.366 . S
C545 C546 1.414 . S
C545 C548 1.499 . S
C546 H526 0.950 . S
C546 C545 1.414 . S
C546 C547 1.374 . S
C547 H527 0.950 . S
C547 C543 1.385 . S
C547 C546 1.374 . S
C548 C545 1.499 . S
C548 C549 1.373 . S
C548 C550 1.389 . S
C549 H528 0.950 . S
C549 C548 1.373 . S
C549 C565 1.377 . S
C550 C548 1.389 . S
C550 C551 1.524 . S
C550 C564 1.377 . S
C551 C550 1.524 . S
C551 C552 1.397 . S
C551 C556 1.363 . S
C552 H529 0.950 . S
C552 C551 1.397 . S
C552 C553 1.334 . S
C553 H530 0.950 . S
C553 C552 1.334 . S
C553 C554 1.287 . S
C554 C553 1.287 . S
C554 C555 1.524 . S
C554 H573 0.913 . S
C555 H531 0.950 . S
C555 C554 1.524 . S
C555 C556 1.415 . S
C556 H532 0.950 . S
C556 C551 1.363 . S
C556 C555 1.415 . S
C557 H533 0.951 . S
C557 C558 1.366 . S
C557 C559 1.388 . S
C558 C557 1.366 . S
C558 C562 1.385 . S
C559 H534 0.951 . S
C559 C557 1.388 . S
C559 C560 1.366 . S
C560 C559 1.366 . S
C560 C561 1.414 . S
C560 C563 1.499 . S
C561 H535 0.950 . S
C561 C560 1.414 . S
C561 C562 1.374 . S
C562 H536 0.950 . S
C562 C558 1.385 . S
C562 C561 1.374 . S
C563 C560 1.499 . S
C563 C564 1.373 . S
C563 C565 1.389 . S
C564 H537 0.950 . S
C564 C550 1.377 . S
C564 C563 1.373 . S
C565 C549 1.377 . S
C565 C563 1.389 . S
C565 C566 1.524 . S
C566 C565 1.524 . S
C566 C567 1.397 . S
C566 C571 1.363 . S
C567 H538 0.950 . S
C567 C566 1.397 . S
C567 C568 1.334 . S
C568 H539 0.950 . S
C568 C567 1.334 . S
C568 C569 1.287 . S
C569 C568 1.287 . S
C569 C570 1.524 . S
C569 H572 0.999 . S
C570 H540 0.950 . S
C570 C569 1.524 . S
C570 C571 1.415 . S
C571 H541 0.950 . S
C571 C566 1.363 . S
C571 C570 1.415 . S
H572 C569 0.999 . S
H573 C554 0.913 . S
H574 C592 0.951 . S
H575 C594 0.951 . S
H576 C596 0.950 . S
H577 C597 0.950 . S
H578 C599 0.950 . S
H579 C602 0.950 . S
H580 C603 0.950 . S
H581 C605 0.950 . S
H582 C606 0.950 . S
H583 C607 0.951 . S
H584 C609 0.951 . S
H585 C611 0.950 . S
H586 C612 0.950 . S
H587 C614 0.950 . S
H588 C617 0.950 . S
H589 C618 0.950 . S
H590 C620 0.950 . S
H591 C621 0.950 . S
C592 H574 0.951 . S
C592 C593 1.366 . S
C592 C594 1.388 . S
C593 C592 1.366 . S
C593 C597 1.385 . S
C594 H575 0.951 . S
C594 C592 1.388 . S
C594 C595 1.366 . S
C595 C594 1.366 . S
C595 C596 1.414 . S
C595 C598 1.499 . S
C596 H576 0.950 . S
C596 C595 1.414 . S
C596 C597 1.374 . S
C597 H577 0.950 . S
C597 C593 1.385 . S
C597 C596 1.374 . S
C598 C595 1.499 . S
C598 C599 1.373 . S
C598 C600 1.389 . S
C599 H578 0.950 . S
C599 C598 1.373 . S
C599 C615 1.377 . S
C600 C598 1.389 . S
C600 C601 1.524 . S
C600 C614 1.377 . S
C601 C600 1.524 . S
C601 C602 1.397 . S
C601 C606 1.363 . S
C602 H579 0.950 . S
C602 C601 1.397 . S
C602 C603 1.334 . S
C603 H580 0.950 . S
C603 C602 1.334 . S
C603 C604 1.287 . S
C604 C603 1.287 . S
C604 C605 1.524 . S
C604 H623 0.913 1_565 S
C605 H581 0.950 . S
C605 C604 1.524 . S
C605 C606 1.415 . S
C606 H582 0.950 . S
C606 C601 1.363 . S
C606 C605 1.415 . S
C607 H583 0.951 . S
C607 C608 1.366 . S
C607 C609 1.388 . S
C608 C607 1.366 . S
C608 C612 1.385 . S
C609 H584 0.951 . S
C609 C607 1.388 . S
C609 C610 1.366 . S
C610 C609 1.366 . S
C610 C611 1.414 . S
C610 C613 1.499 . S
C611 H585 0.950 . S
C611 C610 1.414 . S
C611 C612 1.374 . S
C612 H586 0.950 . S
C612 C608 1.385 . S
C612 C611 1.374 . S
C613 C610 1.499 . S
C613 C614 1.373 . S
C613 C615 1.389 . S
C614 H587 0.950 . S
C614 C600 1.377 . S
C614 C613 1.373 . S
C615 C599 1.377 . S
C615 C613 1.389 . S
C615 C616 1.524 . S
C616 C615 1.524 . S
C616 C617 1.397 . S
C616 C621 1.363 . S
C617 H588 0.950 . S
C617 C616 1.397 . S
C617 C618 1.334 . S
C618 H589 0.950 . S
C618 C617 1.334 . S
C618 C619 1.287 . S
C619 C618 1.287 . S
C619 C620 1.524 . S
C619 H622 0.999 . S
C620 H590 0.950 . S
C620 C619 1.524 . S
C620 C621 1.415 . S
C621 H591 0.950 . S
C621 C616 1.363 . S
C621 C620 1.415 . S
H622 C619 0.999 . S
H623 C604 0.913 1_545 S
H624 C642 0.951 . S
H625 C644 0.951 . S
H626 C646 0.950 . S
H627 C647 0.950 . S
H628 C649 0.950 . S
H629 C652 0.950 . S
H630 C653 0.950 . S
H631 C655 0.950 . S
H632 C656 0.950 . S
H633 C657 0.951 . S
H634 C659 0.951 . S
H635 C661 0.950 . S
H636 C662 0.950 . S
H637 C664 0.950 . S
H638 C667 0.950 . S
H639 C668 0.950 . S
H640 C670 0.950 . S
H641 C671 0.950 . S
C642 H624 0.951 . S
C642 C643 1.366 . S
C642 C644 1.388 . S
C643 C642 1.366 . S
C643 C647 1.385 . S
C644 H625 0.951 . S
C644 C642 1.388 . S
C644 C645 1.366 . S
C645 C644 1.366 . S
C645 C646 1.414 . S
C645 C648 1.499 . S
C646 H626 0.950 . S
C646 C645 1.414 . S
C646 C647 1.374 . S
C647 H627 0.950 . S
C647 C643 1.385 . S
C647 C646 1.374 . S
C648 C645 1.499 . S
C648 C649 1.373 . S
C648 C650 1.389 . S
C649 H628 0.950 . S
C649 C648 1.373 . S
C649 C665 1.377 . S
C650 C648 1.389 . S
C650 C651 1.524 . S
C650 C664 1.377 . S
C651 C650 1.524 . S
C651 C652 1.397 . S
C651 C656 1.363 . S
C652 H629 0.950 . S
C652 C651 1.397 . S
C652 C653 1.334 . S
C653 H630 0.950 . S
C653 C652 1.334 . S
C653 C654 1.287 . S
C654 C653 1.287 . S
C654 C655 1.524 . S
C654 H673 0.913 . S
C655 H631 0.950 . S
C655 C654 1.524 . S
C655 C656 1.415 . S
C656 H632 0.950 . S
C656 C651 1.363 . S
C656 C655 1.415 . S
C657 H633 0.951 . S
C657 C658 1.366 . S
C657 C659 1.388 . S
C658 C657 1.366 . S
C658 C662 1.385 . S
C659 H634 0.951 . S
C659 C657 1.388 . S
C659 C660 1.366 . S
C660 C659 1.366 . S
C660 C661 1.414 . S
C660 C663 1.499 . S
C661 H635 0.950 . S
C661 C660 1.414 . S
C661 C662 1.374 . S
C662 H636 0.950 . S
C662 C658 1.385 . S
C662 C661 1.374 . S
C663 C660 1.499 . S
C663 C664 1.373 . S
C663 C665 1.389 . S
C664 H637 0.950 . S
C664 C650 1.377 . S
C664 C663 1.373 . S
C665 C649 1.377 . S
C665 C663 1.389 . S
C665 C666 1.524 . S
C666 C665 1.524 . S
C666 C667 1.397 . S
C666 C671 1.363 . S
C667 H638 0.950 . S
C667 C666 1.397 . S
C667 C668 1.334 . S
C668 H639 0.950 . S
C668 C667 1.334 . S
C668 C669 1.287 . S
C669 C668 1.287 . S
C669 C670 1.524 . S
C669 H672 0.999 . S
C670 H640 0.950 . S
C670 C669 1.524 . S
C670 C671 1.415 . S
C671 H641 0.950 . S
C671 C666 1.363 . S
C671 C670 1.415 . S
H672 C669 0.999 . S
H673 C654 0.913 . S
H674 C692 0.951 . S
H675 C694 0.951 . S
H676 C696 0.950 . S
H677 C697 0.950 . S
H678 C699 0.950 . S
H679 C702 0.950 . S
H680 C703 0.950 . S
H681 C705 0.950 . S
H682 C706 0.950 . S
H683 C707 0.951 . S
H684 C709 0.951 . S
H685 C711 0.950 . S
H686 C712 0.950 . S
H687 C714 0.950 . S
H688 C717 0.950 . S
H689 C718 0.950 . S
H690 C720 0.950 . S
H691 C721 0.950 . S
C692 H674 0.951 . S
C692 C693 1.366 . S
C692 C694 1.388 . S
C693 C692 1.366 . S
C693 C697 1.385 . S
C694 H675 0.951 . S
C694 C692 1.388 . S
C694 C695 1.366 . S
C695 C694 1.366 . S
C695 C696 1.414 . S
C695 C698 1.499 . S
C696 H676 0.950 . S
C696 C695 1.414 . S
C696 C697 1.374 . S
C697 H677 0.950 . S
C697 C693 1.385 . S
C697 C696 1.374 . S
C698 C695 1.499 . S
C698 C699 1.373 . S
C698 C700 1.389 . S
C699 H678 0.950 . S
C699 C698 1.373 . S
C699 C715 1.377 . S
C700 C698 1.389 . S
C700 C701 1.524 . S
C700 C714 1.377 . S
C701 C700 1.524 . S
C701 C702 1.397 . S
C701 C706 1.363 . S
C702 H679 0.950 . S
C702 C701 1.397 . S
C702 C703 1.334 . S
C703 H680 0.950 . S
C703 C702 1.334 . S
C703 C704 1.287 . S
C704 C703 1.287 . S
C704 C705 1.524 . S
C704 H723 0.913 . S
C705 H681 0.950 . S
C705 C704 1.524 . S
C705 C706 1.415 . S
C706 H682 0.950 . S
C706 C701 1.363 . S
C706 C705 1.415 . S
C707 H683 0.951 . S
C707 C708 1.366 . S
C707 C709 1.388 . S
C708 C707 1.366 . S
C708 C712 1.385 . S
C709 H684 0.951 . S
C709 C707 1.388 . S
C709 C710 1.366 . S
C710 C709 1.366 . S
C710 C711 1.414 . S
C710 C713 1.499 . S
C711 H685 0.950 . S
C711 C710 1.414 . S
C711 C712 1.374 . S
C712 H686 0.950 . S
C712 C708 1.385 . S
C712 C711 1.374 . S
C713 C710 1.499 . S
C713 C714 1.373 . S
C713 C715 1.389 . S
C714 H687 0.950 . S
C714 C700 1.377 . S
C714 C713 1.373 . S
C715 C699 1.377 . S
C715 C713 1.389 . S
C715 C716 1.524 . S
C716 C715 1.524 . S
C716 C717 1.397 . S
C716 C721 1.363 . S
C717 H688 0.950 . S
C717 C716 1.397 . S
C717 C718 1.334 . S
C718 H689 0.950 . S
C718 C717 1.334 . S
C718 C719 1.287 . S
C719 C718 1.287 . S
C719 C720 1.524 . S
C719 H722 0.999 . S
C720 H690 0.950 . S
C720 C719 1.524 . S
C720 C721 1.415 . S
C721 H691 0.950 . S
C721 C716 1.363 . S
C721 C720 1.415 . S
H722 C719 0.999 . S
H723 C704 0.913 . S
H724 C742 0.951 . S
H725 C744 0.951 . S
H726 C746 0.950 . S
H727 C747 0.950 . S
H728 C749 0.950 . S
H729 C752 0.950 . S
H730 C753 0.950 . S
H731 C755 0.950 . S
H732 C756 0.950 . S
H733 C757 0.951 . S
H734 C759 0.951 . S
H735 C761 0.950 . S
H736 C762 0.950 . S
H737 C764 0.950 . S
H738 C767 0.950 . S
H739 C768 0.950 . S
H740 C770 0.950 . S
H741 C771 0.950 . S
C742 H724 0.951 . S
C742 C743 1.366 . S
C742 C744 1.388 . S
C743 C742 1.366 . S
C743 C747 1.385 . S
C744 H725 0.951 . S
C744 C742 1.388 . S
C744 C745 1.366 . S
C745 C744 1.366 . S
C745 C746 1.414 . S
C745 C748 1.499 . S
C746 H726 0.950 . S
C746 C745 1.414 . S
C746 C747 1.374 . S
C747 H727 0.950 . S
C747 C743 1.385 . S
C747 C746 1.374 . S
C748 C745 1.499 . S
C748 C749 1.373 . S
C748 C750 1.389 . S
C749 H728 0.950 . S
C749 C748 1.373 . S
C749 C765 1.377 . S
C750 C748 1.389 . S
C750 C751 1.524 . S
C750 C764 1.377 . S
C751 C750 1.524 . S
C751 C752 1.397 . S
C751 C756 1.363 . S
C752 H729 0.950 . S
C752 C751 1.397 . S
C752 C753 1.334 . S
C753 H730 0.950 . S
C753 C752 1.334 . S
C753 C754 1.287 . S
C754 C753 1.287 . S
C754 C755 1.524 . S
C754 H773 0.913 . S
C755 H731 0.950 . S
C755 C754 1.524 . S
C755 C756 1.415 . S
C756 H732 0.950 . S
C756 C751 1.363 . S
C756 C755 1.415 . S
C757 H733 0.951 . S
C757 C758 1.366 . S
C757 C759 1.388 . S
C758 C757 1.366 . S
C758 C762 1.385 . S
C759 H734 0.951 . S
C759 C757 1.388 . S
C759 C760 1.366 . S
C760 C759 1.366 . S
C760 C761 1.414 . S
C760 C763 1.499 . S
C761 H735 0.950 . S
C761 C760 1.414 . S
C761 C762 1.374 . S
C762 H736 0.950 . S
C762 C758 1.385 . S
C762 C761 1.374 . S
C763 C760 1.499 . S
C763 C764 1.373 . S
C763 C765 1.389 . S
C764 H737 0.950 . S
C764 C750 1.377 . S
C764 C763 1.373 . S
C765 C749 1.377 . S
C765 C763 1.389 . S
C765 C766 1.524 . S
C766 C765 1.524 . S
C766 C767 1.397 . S
C766 C771 1.363 . S
C767 H738 0.950 . S
C767 C766 1.397 . S
C767 C768 1.334 . S
C768 H739 0.950 . S
C768 C767 1.334 . S
C768 C769 1.287 . S
C769 C768 1.287 . S
C769 C770 1.524 . S
C769 H772 0.999 . S
C770 H740 0.950 . S
C770 C769 1.524 . S
C770 C771 1.415 . S
C771 H741 0.950 . S
C771 C766 1.363 . S
C771 C770 1.415 . S
H772 C769 0.999 . S
H773 C754 0.913 . S
H774 C792 0.951 . S
H775 C794 0.951 . S
H776 C796 0.950 . S
H777 C797 0.950 . S
H778 C799 0.950 . S
H779 C802 0.950 . S
H780 C803 0.950 . S
H781 C805 0.950 . S
H782 C806 0.950 . S
H783 C807 0.951 . S
H784 C809 0.951 . S
H785 C811 0.950 . S
H786 C812 0.950 . S
H787 C814 0.950 . S
H788 C817 0.950 . S
H789 C818 0.950 . S
H790 C820 0.950 . S
H791 C821 0.950 . S
C792 H774 0.951 . S
C792 C793 1.366 . S
C792 C794 1.388 . S
C793 C792 1.366 . S
C793 C797 1.385 . S
C794 H775 0.951 . S
C794 C792 1.388 . S
C794 C795 1.366 . S
C795 C794 1.366 . S
C795 C796 1.414 . S
C795 C798 1.499 . S
C796 H776 0.950 . S
C796 C795 1.414 . S
C796 C797 1.374 . S
C797 H777 0.950 . S
C797 C793 1.385 . S
C797 C796 1.374 . S
C798 C795 1.499 . S
C798 C799 1.373 . S
C798 C800 1.389 . S
C799 H778 0.950 . S
C799 C798 1.373 . S
C799 C815 1.377 . S
C800 C798 1.389 . S
C800 C801 1.524 . S
C800 C814 1.377 . S
C801 C800 1.524 . S
C801 C802 1.397 . S
C801 C806 1.363 . S
C802 H779 0.950 . S
C802 C801 1.397 . S
C802 C803 1.334 . S
C803 H780 0.950 . S
C803 C802 1.334 . S
C803 C804 1.287 . S
C804 C803 1.287 . S
C804 C805 1.524 . S
C804 H823 0.913 . S
C805 H781 0.950 . S
C805 C804 1.524 . S
C805 C806 1.415 . S
C806 H782 0.950 . S
C806 C801 1.363 . S
C806 C805 1.415 . S
C807 H783 0.951 . S
C807 C808 1.366 . S
C807 C809 1.388 . S
C808 C807 1.366 . S
C808 C812 1.385 . S
C809 H784 0.951 . S
C809 C807 1.388 . S
C809 C810 1.366 . S
C810 C809 1.366 . S
C810 C811 1.414 . S
C810 C813 1.499 . S
C811 H785 0.950 . S
C811 C810 1.414 . S
C811 C812 1.374 . S
C812 H786 0.950 . S
C812 C808 1.385 . S
C812 C811 1.374 . S
C813 C810 1.499 . S
C813 C814 1.373 . S
C813 C815 1.389 . S
C814 H787 0.950 . S
C814 C800 1.377 . S
C814 C813 1.373 . S
C815 C799 1.377 . S
C815 C813 1.389 . S
C815 C816 1.524 . S
C816 C815 1.524 . S
C816 C817 1.397 . S
C816 C821 1.363 . S
C817 H788 0.950 . S
C817 C816 1.397 . S
C817 C818 1.334 . S
C818 H789 0.950 . S
C818 C817 1.334 . S
C818 C819 1.287 . S
C819 C818 1.287 . S
C819 C820 1.524 . S
C819 H822 0.999 . S
C820 H790 0.950 . S
C820 C819 1.524 . S
C820 C821 1.415 . S
C821 H791 0.950 . S
C821 C816 1.363 . S
C821 C820 1.415 . S
H822 C819 0.999 . S
H823 C804 0.913 . S
H824 C842 0.951 . S
H825 C844 0.951 . S
H826 C846 0.950 . S
H827 C847 0.950 . S
H828 C849 0.950 . S
H829 C852 0.950 . S
H830 C853 0.950 . S
H831 C855 0.950 . S
H832 C856 0.950 . S
H833 C857 0.951 . S
H834 C859 0.951 . S
H835 C861 0.950 . S
H836 C862 0.950 . S
H837 C864 0.950 . S
H838 C867 0.950 . S
H839 C868 0.950 . S
H840 C870 0.950 . S
H841 C871 0.950 . S
C842 H824 0.951 . S
C842 C843 1.366 . S
C842 C844 1.388 . S
C843 C842 1.366 . S
C843 C847 1.385 . S
C844 H825 0.951 . S
C844 C842 1.388 . S
C844 C845 1.366 . S
C845 C844 1.366 . S
C845 C846 1.414 . S
C845 C848 1.499 . S
C846 H826 0.950 . S
C846 C845 1.414 . S
C846 C847 1.374 . S
C847 H827 0.950 . S
C847 C843 1.385 . S
C847 C846 1.374 . S
C848 C845 1.499 . S
C848 C849 1.373 . S
C848 C850 1.389 . S
C849 H828 0.950 . S
C849 C848 1.373 . S
C849 C865 1.377 . S
C850 C848 1.389 . S
C850 C851 1.524 . S
C850 C864 1.377 . S
C851 C850 1.524 . S
C851 C852 1.397 . S
C851 C856 1.363 . S
C852 H829 0.950 . S
C852 C851 1.397 . S
C852 C853 1.334 . S
C853 H830 0.950 . S
C853 C852 1.334 . S
C853 C854 1.287 . S
C854 C853 1.287 . S
C854 C855 1.524 . S
C854 H873 0.913 . S
C855 H831 0.950 . S
C855 C854 1.524 . S
C855 C856 1.415 . S
C856 H832 0.950 . S
C856 C851 1.363 . S
C856 C855 1.415 . S
C857 H833 0.951 . S
C857 C858 1.366 . S
C857 C859 1.388 . S
C858 C857 1.366 . S
C858 C862 1.385 . S
C859 H834 0.951 . S
C859 C857 1.388 . S
C859 C860 1.366 . S
C860 C859 1.366 . S
C860 C861 1.414 . S
C860 C863 1.499 . S
C861 H835 0.950 . S
C861 C860 1.414 . S
C861 C862 1.374 . S
C862 H836 0.950 . S
C862 C858 1.385 . S
C862 C861 1.374 . S
C863 C860 1.499 . S
C863 C864 1.373 . S
C863 C865 1.389 . S
C864 H837 0.950 . S
C864 C850 1.377 . S
C864 C863 1.373 . S
C865 C849 1.377 . S
C865 C863 1.389 . S
C865 C866 1.524 . S
C866 C865 1.524 . S
C866 C867 1.397 . S
C866 C871 1.363 . S
C867 H838 0.950 . S
C867 C866 1.397 . S
C867 C868 1.334 . S
C868 H839 0.950 . S
C868 C867 1.334 . S
C868 C869 1.287 . S
C869 C868 1.287 . S
C869 C870 1.524 . S
C869 H872 0.999 . S
C870 H840 0.950 . S
C870 C869 1.524 . S
C870 C871 1.415 . S
C871 H841 0.950 . S
C871 C866 1.363 . S
C871 C870 1.415 . S
H872 C869 0.999 . S
H873 C854 0.913 . S
H874 C892 0.951 . S
H875 C894 0.951 . S
H876 C896 0.950 . S
H877 C897 0.950 . S
H878 C899 0.950 . S
H879 C902 0.950 . S
H880 C903 0.950 . S
H881 C905 0.950 . S
H882 C906 0.950 . S
H883 C907 0.951 . S
H884 C909 0.951 . S
H885 C911 0.950 . S
H886 C912 0.950 . S
H887 C914 0.950 . S
H888 C917 0.950 . S
H889 C918 0.950 . S
H890 C920 0.950 . S
H891 C921 0.950 . S
C892 H874 0.951 . S
C892 C893 1.366 . S
C892 C894 1.388 . S
C893 C892 1.366 . S
C893 C897 1.385 . S
C894 H875 0.951 . S
C894 C892 1.388 . S
C894 C895 1.366 . S
C895 C894 1.366 . S
C895 C896 1.414 . S
C895 C898 1.499 . S
C896 H876 0.950 . S
C896 C895 1.414 . S
C896 C897 1.374 . S
C897 H877 0.950 . S
C897 C893 1.385 . S
C897 C896 1.374 . S
C898 C895 1.499 . S
C898 C899 1.373 . S
C898 C900 1.389 . S
C899 H878 0.950 . S
C899 C898 1.373 . S
C899 C915 1.377 . S
C900 C898 1.389 . S
C900 C901 1.524 . S
C900 C914 1.377 . S
C901 C900 1.524 . S
C901 C902 1.397 . S
C901 C906 1.363 . S
C902 H879 0.950 . S
C902 C901 1.397 . S
C902 C903 1.334 . S
C903 H880 0.950 . S
C903 C902 1.334 . S
C903 C904 1.287 . S
C904 C903 1.287 . S
C904 C905 1.524 . S
C904 H923 0.913 . S
C905 H881 0.950 . S
C905 C904 1.524 . S
C905 C906 1.415 . S
C906 H882 0.950 . S
C906 C901 1.363 . S
C906 C905 1.415 . S
C907 H883 0.951 . S
C907 C908 1.366 . S
C907 C909 1.388 . S
C908 C907 1.366 . S
C908 C912 1.385 . S
C909 H884 0.951 . S
C909 C907 1.388 . S
C909 C910 1.366 . S
C910 C909 1.366 . S
C910 C911 1.414 . S
C910 C913 1.499 . S
C911 H885 0.950 . S
C911 C910 1.414 . S
C911 C912 1.374 . S
C912 H886 0.950 . S
C912 C908 1.385 . S
C912 C911 1.374 . S
C913 C910 1.499 . S
C913 C914 1.373 . S
C913 C915 1.389 . S
C914 H887 0.950 . S
C914 C900 1.377 . S
C914 C913 1.373 . S
C915 C899 1.377 . S
C915 C913 1.389 . S
C915 C916 1.524 . S
C916 C915 1.524 . S
C916 C917 1.397 . S
C916 C921 1.363 . S
C917 H888 0.950 . S
C917 C916 1.397 . S
C917 C918 1.334 . S
C918 H889 0.950 . S
C918 C917 1.334 . S
C918 C919 1.287 . S
C919 C918 1.287 . S
C919 C920 1.524 . S
C919 H922 0.999 . S
C920 H890 0.950 . S
C920 C919 1.524 . S
C920 C921 1.415 . S
C921 H891 0.950 . S
C921 C916 1.363 . S
C921 C920 1.415 . S
H922 C919 0.999 . S
H923 C904 0.913 . S
H924 C942 0.951 . S
H925 C944 0.951 . S
H926 C946 0.950 . S
H927 C947 0.950 . S
H928 C949 0.950 . S
H929 C952 0.950 . S
H930 C953 0.950 . S
H931 C955 0.950 . S
H932 C956 0.950 . S
H933 C957 0.951 . S
H934 C959 0.951 . S
H935 C961 0.950 . S
H936 C962 0.950 . S
H937 C964 0.950 . S
H938 C967 0.950 . S
H939 C968 0.950 . S
H940 C970 0.950 . S
H941 C971 0.950 . S
C942 H924 0.951 . S
C942 C943 1.366 . S
C942 C944 1.388 . S
C943 C942 1.366 . S
C943 C947 1.385 . S
C944 H925 0.951 . S
C944 C942 1.388 . S
C944 C945 1.366 . S
C945 C944 1.366 . S
C945 C946 1.414 . S
C945 C948 1.499 . S
C946 H926 0.950 . S
C946 C945 1.414 . S
C946 C947 1.374 . S
C947 H927 0.950 . S
C947 C943 1.385 . S
C947 C946 1.374 . S
C948 C945 1.499 . S
C948 C949 1.373 . S
C948 C950 1.389 . S
C949 H928 0.950 . S
C949 C948 1.373 . S
C949 C965 1.377 . S
C950 C948 1.389 . S
C950 C951 1.524 . S
C950 C964 1.377 . S
C951 C950 1.524 . S
C951 C952 1.397 . S
C951 C956 1.363 . S
C952 H929 0.950 . S
C952 C951 1.397 . S
C952 C953 1.334 . S
C953 H930 0.950 . S
C953 C952 1.334 . S
C953 C954 1.287 . S
C954 C953 1.287 . S
C954 C955 1.524 . S
C954 H973 0.913 . S
C955 H931 0.950 . S
C955 C954 1.524 . S
C955 C956 1.415 . S
C956 H932 0.950 . S
C956 C951 1.363 . S
C956 C955 1.415 . S
C957 H933 0.951 . S
C957 C958 1.366 . S
C957 C959 1.388 . S
C958 C957 1.366 . S
C958 C962 1.385 . S
C959 H934 0.951 . S
C959 C957 1.388 . S
C959 C960 1.366 . S
C960 C959 1.366 . S
C960 C961 1.414 . S
C960 C963 1.499 . S
C961 H935 0.950 . S
C961 C960 1.414 . S
C961 C962 1.374 . S
C962 H936 0.950 . S
C962 C958 1.385 . S
C962 C961 1.374 . S
C963 C960 1.499 . S
C963 C964 1.373 . S
C963 C965 1.389 . S
C964 H937 0.950 . S
C964 C950 1.377 . S
C964 C963 1.373 . S
C965 C949 1.377 . S
C965 C963 1.389 . S
C965 C966 1.524 . S
C966 C965 1.524 . S
C966 C967 1.397 . S
C966 C971 1.363 . S
C967 H938 0.950 . S
C967 C966 1.397 . S
C967 C968 1.334 . S
C968 H939 0.950 . S
C968 C967 1.334 . S
C968 C969 1.287 . S
C969 C968 1.287 . S
C969 C970 1.524 . S
C969 H972 0.999 . S
C970 H940 0.950 . S
C970 C969 1.524 . S
C970 C971 1.415 . S
C971 H941 0.950 . S
C971 C966 1.363 . S
C971 C970 1.415 . S
H972 C969 0.999 . S
H973 C954 0.913 . S
H974 C992 0.951 . S
H975 C994 0.951 . S
H976 C996 0.950 . S
H977 C997 0.950 . S
H978 C999 0.950 . S
H979 C1002 0.950 . S
H980 C1003 0.950 . S
H981 C1005 0.950 . S
H982 C1006 0.950 . S
H983 C1007 0.951 . S
H984 C1009 0.951 . S
H985 C1011 0.950 . S
H986 C1012 0.950 . S
H987 C1014 0.950 . S
H988 C1017 0.950 . S
H989 C1018 0.950 . S
H990 C1020 0.950 . S
H991 C1021 0.950 . S
C992 H974 0.951 . S
C992 C993 1.366 . S
C992 C994 1.388 . S
C993 C992 1.366 . S
C993 C997 1.385 . S
C994 H975 0.951 . S
C994 C992 1.388 . S
C994 C995 1.366 . S
C995 C994 1.366 . S
C995 C996 1.414 . S
C995 C998 1.499 . S
C996 H976 0.950 . S
C996 C995 1.414 . S
C996 C997 1.374 . S
C997 H977 0.950 . S
C997 C993 1.385 . S
C997 C996 1.374 . S
C998 C995 1.499 . S
C998 C999 1.373 . S
C998 C1000 1.389 . S
C999 H978 0.950 . S
C999 C998 1.373 . S
C999 C1015 1.377 . S
C1000 C998 1.389 . S
C1000 C1001 1.524 . S
C1000 C1014 1.377 . S
C1001 C1000 1.524 . S
C1001 C1002 1.397 . S
C1001 C1006 1.363 . S
C1002 H979 0.950 . S
C1002 C1001 1.397 . S
C1002 C1003 1.334 . S
C1003 H980 0.950 . S
C1003 C1002 1.334 . S
C1003 C1004 1.287 . S
C1004 C1003 1.287 . S
C1004 C1005 1.524 . S
C1004 H1023 0.913 . S
C1005 H981 0.950 . S
C1005 C1004 1.524 . S
C1005 C1006 1.415 . S
C1006 H982 0.950 . S
C1006 C1001 1.363 . S
C1006 C1005 1.415 . S
C1007 H983 0.951 . S
C1007 C1008 1.366 . S
C1007 C1009 1.388 . S
C1008 C1007 1.366 . S
C1008 C1012 1.385 . S
C1009 H984 0.951 . S
C1009 C1007 1.388 . S
C1009 C1010 1.366 . S
C1010 C1009 1.366 . S
C1010 C1011 1.414 . S
C1010 C1013 1.499 . S
C1011 H985 0.950 . S
C1011 C1010 1.414 . S
C1011 C1012 1.374 . S
C1012 H986 0.950 . S
C1012 C1008 1.385 . S
C1012 C1011 1.374 . S
C1013 C1010 1.499 . S
C1013 C1014 1.373 . S
C1013 C1015 1.389 . S
C1014 H987 0.950 . S
C1014 C1000 1.377 . S
C1014 C1013 1.373 . S
C1015 C999 1.377 . S
C1015 C1013 1.389 . S
C1015 C1016 1.524 . S
C1016 C1015 1.524 . S
C1016 C1017 1.397 . S
C1016 C1021 1.363 . S
C1017 H988 0.950 . S
C1017 C1016 1.397 . S
C1017 C1018 1.334 . S
C1018 H989 0.950 . S
C1018 C1017 1.334 . S
C1018 C1019 1.287 . S
C1019 C1018 1.287 . S
C1019 C1020 1.524 . S
C1019 H1022 0.999 . S
C1020 H990 0.950 . S
C1020 C1019 1.524 . S
C1020 C1021 1.415 . S
C1021 H991 0.950 . S
C1021 C1016 1.363 . S
C1021 C1020 1.415 . S
H1022 C1019 0.999 . S
H1023 C1004 0.913 . S
H1024 C1042 0.951 . S
H1025 C1044 0.951 . S
H1026 C1046 0.950 . S
H1027 C1047 0.950 . S
H1028 C1049 0.950 . S
H1029 C1052 0.950 . S
H1030 C1053 0.950 . S
H1031 C1055 0.950 . S
H1032 C1056 0.950 . S
H1033 C1057 0.951 . S
H1034 C1059 0.951 . S
H1035 C1061 0.950 . S
H1036 C1062 0.950 . S
H1037 C1064 0.950 . S
H1038 C1067 0.950 . S
H1039 C1068 0.950 . S
H1040 C1070 0.950 . S
H1041 C1071 0.950 . S
C1042 H1024 0.951 . S
C1042 C1043 1.366 1_545 S
C1042 C1044 1.388 . S
C1043 C1042 1.366 1_565 S
C1043 C1047 1.385 . S
C1044 H1025 0.951 . S
C1044 C1042 1.388 . S
C1044 C1045 1.366 . S
C1045 C1044 1.366 . S
C1045 C1046 1.414 . S
C1045 C1048 1.499 . S
C1046 H1026 0.950 . S
C1046 C1045 1.414 . S
C1046 C1047 1.374 1_545 S
C1047 H1027 0.950 . S
C1047 C1043 1.385 . S
C1047 C1046 1.374 1_565 S
C1048 C1045 1.499 . S
C1048 C1049 1.373 . S
C1048 C1050 1.389 . S
C1049 H1028 0.950 . S
C1049 C1048 1.373 . S
C1049 C1065 1.377 . S
C1050 C1048 1.389 . S
C1050 C1051 1.524 . S
C1050 C1064 1.377 . S
C1051 C1050 1.524 . S
C1051 C1052 1.397 . S
C1051 C1056 1.363 . S
C1052 H1029 0.950 . S
C1052 C1051 1.397 . S
C1052 C1053 1.334 . S
C1053 H1030 0.950 . S
C1053 C1052 1.334 . S
C1053 C1054 1.287 . S
C1054 C1053 1.287 . S
C1054 C1055 1.524 . S
C1054 H1073 0.913 . S
C1055 H1031 0.950 . S
C1055 C1054 1.524 . S
C1055 C1056 1.415 . S
C1056 H1032 0.950 . S
C1056 C1051 1.363 . S
C1056 C1055 1.415 . S
C1057 H1033 0.951 . S
C1057 C1058 1.366 . S
C1057 C1059 1.388 . S
C1058 C1057 1.366 . S
C1058 C1062 1.385 . S
C1059 H1034 0.951 . S
C1059 C1057 1.388 . S
C1059 C1060 1.366 . S
C1060 C1059 1.366 . S
C1060 C1061 1.414 . S
C1060 C1063 1.499 . S
C1061 H1035 0.950 . S
C1061 C1060 1.414 . S
C1061 C1062 1.374 . S
C1062 H1036 0.950 . S
C1062 C1058 1.385 . S
C1062 C1061 1.374 . S
C1063 C1060 1.499 . S
C1063 C1064 1.373 . S
C1063 C1065 1.389 . S
C1064 H1037 0.950 . S
C1064 C1050 1.377 . S
C1064 C1063 1.373 . S
C1065 C1049 1.377 . S
C1065 C1063 1.389 . S
C1065 C1066 1.524 . S
C1066 C1065 1.524 . S
C1066 C1067 1.397 . S
C1066 C1071 1.363 . S
C1067 H1038 0.950 . S
C1067 C1066 1.397 . S
C1067 C1068 1.334 . S
C1068 H1039 0.950 . S
C1068 C1067 1.334 . S
C1068 C1069 1.287 . S
C1069 C1068 1.287 . S
C1069 C1070 1.524 . S
C1069 H1072 0.999 . S
C1070 H1040 0.950 . S
C1070 C1069 1.524 . S
C1070 C1071 1.415 . S
C1071 H1041 0.950 . S
C1071 C1066 1.363 . S
C1071 C1070 1.415 . S
H1072 C1069 0.999 . S
H1073 C1054 0.913 . S
H1074 C1092 0.951 . S
H1075 C1094 0.951 . S
H1076 C1096 0.950 . S
H1077 C1097 0.950 . S
H1078 C1099 0.950 . S
H1079 C1102 0.950 . S
H1080 C1103 0.950 . S
H1081 C1105 0.950 . S
H1082 C1106 0.950 . S
H1083 C1107 0.951 . S
H1084 C1109 0.951 . S
H1085 C1111 0.950 . S
H1086 C1112 0.950 . S
H1087 C1114 0.950 . S
H1088 C1117 0.950 . S
H1089 C1118 0.950 . S
H1090 C1120 0.950 . S
H1091 C1121 0.950 . S
C1092 H1074 0.951 . S
C1092 C1093 1.366 . S
C1092 C1094 1.388 . S
C1093 C1092 1.366 . S
C1093 C1097 1.385 . S
C1094 H1075 0.951 . S
C1094 C1092 1.388 . S
C1094 C1095 1.366 . S
C1095 C1094 1.366 . S
C1095 C1096 1.414 . S
C1095 C1098 1.499 . S
C1096 H1076 0.950 . S
C1096 C1095 1.414 . S
C1096 C1097 1.374 . S
C1097 H1077 0.950 . S
C1097 C1093 1.385 . S
C1097 C1096 1.374 . S
C1098 C1095 1.499 . S
C1098 C1099 1.373 . S
C1098 C1100 1.389 . S
C1099 H1078 0.950 . S
C1099 C1098 1.373 . S
C1099 C1115 1.377 . S
C1100 C1098 1.389 . S
C1100 C1101 1.524 . S
C1100 C1114 1.377 . S
C1101 C1100 1.524 . S
C1101 C1102 1.397 . S
C1101 C1106 1.363 . S
C1102 H1079 0.950 . S
C1102 C1101 1.397 . S
C1102 C1103 1.334 . S
C1103 H1080 0.950 . S
C1103 C1102 1.334 . S
C1103 C1104 1.287 . S
C1104 C1103 1.287 . S
C1104 C1105 1.524 . S
C1104 H1123 0.913 . S
C1105 H1081 0.950 . S
C1105 C1104 1.524 . S
C1105 C1106 1.415 . S
C1106 H1082 0.950 . S
C1106 C1101 1.363 . S
C1106 C1105 1.415 . S
C1107 H1083 0.951 . S
C1107 C1108 1.366 . S
C1107 C1109 1.388 1_655 S
C1108 C1107 1.366 . S
C1108 C1112 1.385 . S
C1109 H1084 0.951 . S
C1109 C1107 1.388 1_455 S
C1109 C1110 1.366 . S
C1110 C1109 1.366 . S
C1110 C1111 1.414 . S
C1110 C1113 1.499 . S
C1111 H1085 0.950 . S
C1111 C1110 1.414 . S
C1111 C1112 1.374 1_455 S
C1112 H1086 0.950 . S
C1112 C1108 1.385 . S
C1112 C1111 1.374 1_655 S
C1113 C1110 1.499 . S
C1113 C1114 1.373 . S
C1113 C1115 1.389 . S
C1114 H1087 0.950 . S
C1114 C1100 1.377 . S
C1114 C1113 1.373 . S
C1115 C1099 1.377 . S
C1115 C1113 1.389 . S
C1115 C1116 1.524 . S
C1116 C1115 1.524 . S
C1116 C1117 1.397 1_455 S
C1116 C1121 1.363 . S
C1117 H1088 0.950 . S
C1117 C1116 1.397 1_655 S
C1117 C1118 1.334 . S
C1118 H1089 0.950 . S
C1118 C1117 1.334 . S
C1118 C1119 1.287 . S
C1119 C1118 1.287 . S
C1119 C1120 1.524 . S
C1119 H1122 0.999 . S
C1120 H1090 0.950 . S
C1120 C1119 1.524 . S
C1120 C1121 1.415 1_655 S
C1121 H1091 0.950 . S
C1121 C1116 1.363 . S
C1121 C1120 1.415 1_455 S
H1122 C1119 0.999 . S
H1123 C1104 0.913 . S
H1124 C1142 0.951 1_545 S
H1125 C1144 0.951 . S
H1126 C1146 0.950 . S
H1127 C1147 0.950 . S
H1128 C1149 0.950 . S
H1129 C1152 0.950 . S
H1130 C1153 0.950 . S
H1131 C1155 0.950 . S
H1132 C1156 0.950 . S
H1133 C1157 0.951 . S
H1134 C1159 0.951 . S
H1135 C1161 0.950 . S
H1136 C1162 0.950 . S
H1137 C1164 0.950 . S
H1138 C1167 0.950 . S
H1139 C1168 0.950 . S
H1140 C1170 0.950 . S
H1141 C1171 0.950 . S
C1142 H1124 0.951 1_565 S
C1142 C1143 1.366 1_565 S
C1142 C1144 1.388 . S
C1143 C1142 1.366 1_545 S
C1143 C1147 1.385 1_545 S
C1144 H1125 0.951 . S
C1144 C1142 1.388 . S
C1144 C1145 1.366 . S
C1145 C1144 1.366 . S
C1145 C1146 1.414 . S
C1145 C1148 1.499 . S
C1146 H1126 0.950 . S
C1146 C1145 1.414 . S
C1146 C1147 1.374 . S
C1147 H1127 0.950 . S
C1147 C1143 1.385 1_565 S
C1147 C1146 1.374 . S
C1148 C1145 1.499 . S
C1148 C1149 1.373 . S
C1148 C1150 1.389 . S
C1149 H1128 0.950 . S
C1149 C1148 1.373 . S
C1149 C1165 1.377 . S
C1150 C1148 1.389 . S
C1150 C1151 1.524 . S
C1150 C1164 1.377 . S
C1151 C1150 1.524 . S
C1151 C1152 1.397 . S
C1151 C1156 1.363 . S
C1152 H1129 0.950 . S
C1152 C1151 1.397 . S
C1152 C1153 1.334 . S
C1153 H1130 0.950 . S
C1153 C1152 1.334 . S
C1153 C1154 1.287 . S
C1154 C1153 1.287 . S
C1154 C1155 1.524 . S
C1154 H1173 0.913 . S
C1155 H1131 0.950 . S
C1155 C1154 1.524 . S
C1155 C1156 1.415 . S
C1156 H1132 0.950 . S
C1156 C1151 1.363 . S
C1156 C1155 1.415 . S
C1157 H1133 0.951 . S
C1157 C1158 1.366 . S
C1157 C1159 1.388 . S
C1158 C1157 1.366 . S
C1158 C1162 1.385 . S
C1159 H1134 0.951 . S
C1159 C1157 1.388 . S
C1159 C1160 1.366 . S
C1160 C1159 1.366 . S
C1160 C1161 1.414 . S
C1160 C1163 1.499 . S
C1161 H1135 0.950 . S
C1161 C1160 1.414 . S
C1161 C1162 1.374 . S
C1162 H1136 0.950 . S
C1162 C1158 1.385 . S
C1162 C1161 1.374 . S
C1163 C1160 1.499 . S
C1163 C1164 1.373 . S
C1163 C1165 1.389 . S
C1164 H1137 0.950 . S
C1164 C1150 1.377 . S
C1164 C1163 1.373 . S
C1165 C1149 1.377 . S
C1165 C1163 1.389 . S
C1165 C1166 1.524 . S
C1166 C1165 1.524 . S
C1166 C1167 1.397 . S
C1166 C1171 1.363 . S
C1167 H1138 0.950 . S
C1167 C1166 1.397 . S
C1167 C1168 1.334 . S
C1168 H1139 0.950 . S
C1168 C1167 1.334 . S
C1168 C1169 1.287 . S
C1169 C1168 1.287 . S
C1169 C1170 1.524 . S
C1169 H1172 0.999 . S
C1170 H1140 0.950 . S
C1170 C1169 1.524 . S
C1170 C1171 1.415 . S
C1171 H1141 0.950 . S
C1171 C1166 1.363 . S
C1171 C1170 1.415 . S
H1172 C1169 0.999 . S
H1173 C1154 0.913 . S
H1174 C1192 0.951 . S
H1175 C1194 0.951 . S
H1176 C1196 0.950 . S
H1177 C1197 0.950 . S
H1178 C1199 0.950 . S
H1179 C1202 0.950 . S
H1180 C1203 0.950 . S
H1181 C1205 0.950 . S
H1182 C1206 0.950 . S
H1183 C1207 0.951 . S
H1184 C1209 0.951 . S
H1185 C1211 0.950 . S
H1186 C1212 0.950 . S
H1187 C1214 0.950 . S
H1188 C1217 0.950 . S
H1189 C1218 0.950 . S
H1190 C1220 0.950 . S
H1191 C1221 0.950 . S
C1192 H1174 0.951 . S
C1192 C1193 1.366 . S
C1192 C1194 1.388 . S
C1193 C1192 1.366 . S
C1193 C1197 1.385 . S
C1194 H1175 0.951 . S
C1194 C1192 1.388 . S
C1194 C1195 1.366 . S
C1195 C1194 1.366 . S
C1195 C1196 1.414 . S
C1195 C1198 1.499 . S
C1196 H1176 0.950 . S
C1196 C1195 1.414 . S
C1196 C1197 1.374 . S
C1197 H1177 0.950 . S
C1197 C1193 1.385 . S
C1197 C1196 1.374 . S
C1198 C1195 1.499 . S
C1198 C1199 1.373 . S
C1198 C1200 1.389 . S
C1199 H1178 0.950 . S
C1199 C1198 1.373 . S
C1199 C1215 1.377 . S
C1200 C1198 1.389 . S
C1200 C1201 1.524 . S
C1200 C1214 1.377 . S
C1201 C1200 1.524 . S
C1201 C1202 1.397 . S
C1201 C1206 1.363 . S
C1202 H1179 0.950 . S
C1202 C1201 1.397 . S
C1202 C1203 1.334 . S
C1203 H1180 0.950 . S
C1203 C1202 1.334 . S
C1203 C1204 1.287 . S
C1204 C1203 1.287 . S
C1204 C1205 1.524 . S
C1204 H1223 0.913 . S
C1205 H1181 0.950 . S
C1205 C1204 1.524 . S
C1205 C1206 1.415 . S
C1206 H1182 0.950 . S
C1206 C1201 1.363 . S
C1206 C1205 1.415 . S
C1207 H1183 0.951 . S
C1207 C1208 1.366 . S
C1207 C1209 1.388 . S
C1208 C1207 1.366 . S
C1208 C1212 1.385 1_455 S
C1209 H1184 0.951 . S
C1209 C1207 1.388 . S
C1209 C1210 1.366 1_455 S
C1210 C1209 1.366 1_655 S
C1210 C1211 1.414 . S
C1210 C1213 1.499 . S
C1211 H1185 0.950 . S
C1211 C1210 1.414 . S
C1211 C1212 1.374 . S
C1212 H1186 0.950 . S
C1212 C1208 1.385 1_655 S
C1212 C1211 1.374 . S
C1213 C1210 1.499 . S
C1213 C1214 1.373 . S
C1213 C1215 1.389 . S
C1214 H1187 0.950 . S
C1214 C1200 1.377 . S
C1214 C1213 1.373 . S
C1215 C1199 1.377 . S
C1215 C1213 1.389 . S
C1215 C1216 1.524 . S
C1216 C1215 1.524 . S
C1216 C1217 1.397 . S
C1216 C1221 1.363 . S
C1217 H1188 0.950 . S
C1217 C1216 1.397 . S
C1217 C1218 1.334 . S
C1218 H1189 0.950 . S
C1218 C1217 1.334 . S
C1218 C1219 1.287 1_655 S
C1219 C1218 1.287 1_455 S
C1219 C1220 1.524 . S
C1219 H1222 0.999 . S
C1220 H1190 0.950 . S
C1220 C1219 1.524 . S
C1220 C1221 1.415 1_455 S
C1221 H1191 0.950 . S
C1221 C1216 1.363 . S
C1221 C1220 1.415 1_655 S
H1222 C1219 0.999 . S
H1223 C1204 0.913 . S
H1224 C1242 0.951 1_545 S
H1225 C1244 0.951 . S
H1226 C1246 0.950 . S
H1227 C1247 0.950 . S
H1228 C1249 0.950 . S
H1229 C1252 0.950 . S
H1230 C1253 0.950 1_545 S
H1231 C1255 0.950 . S
H1232 C1256 0.950 . S
H1233 C1257 0.951 . S
H1234 C1259 0.951 . S
H1235 C1261 0.950 . S
H1236 C1262 0.950 . S
H1237 C1264 0.950 . S
H1238 C1267 0.950 . S
H1239 C1268 0.950 . S
H1240 C1270 0.950 . S
H1241 C1271 0.950 . S
C1242 H1224 0.951 1_565 S
C1242 C1243 1.366 1_565 S
C1242 C1244 1.388 . S
C1243 C1242 1.366 1_545 S
C1243 C1247 1.385 1_545 S
C1244 H1225 0.951 . S
C1244 C1242 1.388 . S
C1244 C1245 1.366 . S
C1245 C1244 1.366 . S
C1245 C1246 1.414 . S
C1245 C1248 1.499 . S
C1246 H1226 0.950 . S
C1246 C1245 1.414 . S
C1246 C1247 1.374 . S
C1247 H1227 0.950 . S
C1247 C1243 1.385 1_565 S
C1247 C1246 1.374 . S
C1248 C1245 1.499 . S
C1248 C1249 1.373 . S
C1248 C1250 1.389 . S
C1249 H1228 0.950 . S
C1249 C1248 1.373 . S
C1249 C1265 1.377 . S
C1250 C1248 1.389 . S
C1250 C1251 1.524 . S
C1250 C1264 1.377 . S
C1251 C1250 1.524 . S
C1251 C1252 1.397 . S
C1251 C1256 1.363 . S
C1252 H1229 0.950 . S
C1252 C1251 1.397 . S
C1252 C1253 1.334 . S
C1253 H1230 0.950 1_565 S
C1253 C1252 1.334 . S
C1253 C1254 1.287 . S
C1254 C1253 1.287 . S
C1254 C1255 1.524 . S
C1254 H1273 0.913 1_565 S
C1255 H1231 0.950 . S
C1255 C1254 1.524 . S
C1255 C1256 1.415 . S
C1256 H1232 0.950 . S
C1256 C1251 1.363 . S
C1256 C1255 1.415 . S
C1257 H1233 0.951 . S
C1257 C1258 1.366 . S
C1257 C1259 1.388 . S
C1258 C1257 1.366 . S
C1258 C1262 1.385 . S
C1259 H1234 0.951 . S
C1259 C1257 1.388 . S
C1259 C1260 1.366 . S
C1260 C1259 1.366 . S
C1260 C1261 1.414 . S
C1260 C1263 1.499 . S
C1261 H1235 0.950 . S
C1261 C1260 1.414 . S
C1261 C1262 1.374 . S
C1262 H1236 0.950 . S
C1262 C1258 1.385 . S
C1262 C1261 1.374 . S
C1263 C1260 1.499 . S
C1263 C1264 1.373 . S
C1263 C1265 1.389 . S
C1264 H1237 0.950 . S
C1264 C1250 1.377 . S
C1264 C1263 1.373 . S
C1265 C1249 1.377 . S
C1265 C1263 1.389 . S
C1265 C1266 1.524 . S
C1266 C1265 1.524 . S
C1266 C1267 1.397 . S
C1266 C1271 1.363 . S
C1267 H1238 0.950 . S
C1267 C1266 1.397 . S
C1267 C1268 1.334 . S
C1268 H1239 0.950 . S
C1268 C1267 1.334 . S
C1268 C1269 1.287 . S
C1269 C1268 1.287 . S
C1269 C1270 1.524 . S
C1269 H1272 0.999 . S
C1270 H1240 0.950 . S
C1270 C1269 1.524 . S
C1270 C1271 1.415 . S
C1271 H1241 0.950 . S
C1271 C1266 1.363 . S
C1271 C1270 1.415 . S
H1272 C1269 0.999 . S
H1273 C1254 0.913 1_545 S
H1274 C1292 0.951 . S
H1275 C1294 0.951 . S
H1276 C1296 0.950 . S
H1277 C1297 0.950 . S
H1278 C1299 0.950 . S
H1279 C1302 0.950 . S
H1280 C1303 0.950 . S
H1281 C1305 0.950 1_455 S
H1282 C1306 0.950 . S
H1283 C1307 0.959 . S
H1284 C1309 0.951 . S
H1285 C1311 0.950 . S
H1286 C1312 0.950 . S
H1287 C1314 0.950 . S
H1288 C1317 0.950 . S
H1289 C1318 0.950 . S
H1290 C1320 0.950 . S
H1291 C1321 0.950 . S
C1292 H1274 0.951 . S
C1292 C1293 1.366 . S
C1292 C1294 1.388 . S
C1293 C1292 1.366 . S
C1293 C1297 1.385 . S
C1294 H1275 0.951 . S
C1294 C1292 1.388 . S
C1294 C1295 1.366 . S
C1295 C1294 1.366 . S
C1295 C1296 1.414 . S
C1295 C1298 1.499 . S
C1296 H1276 0.950 . S
C1296 C1295 1.414 . S
C1296 C1297 1.374 . S
C1297 H1277 0.950 . S
C1297 C1293 1.385 . S
C1297 C1296 1.374 . S
C1298 C1295 1.499 . S
C1298 C1299 1.373 . S
C1298 C1300 1.389 . S
C1299 H1278 0.950 . S
C1299 C1298 1.373 . S
C1299 C1315 1.377 . S
C1300 C1298 1.389 . S
C1300 C1301 1.524 . S
C1300 C1314 1.377 . S
C1301 C1300 1.524 . S
C1301 C1302 1.397 . S
C1301 C1306 1.363 . S
C1302 H1279 0.950 . S
C1302 C1301 1.397 . S
C1302 C1303 1.334 . S
C1303 H1280 0.950 . S
C1303 C1302 1.334 . S
C1303 C1304 1.287 . S
C1304 C1303 1.287 . S
C1304 C1305 1.524 . S
C1304 H1323 0.913 . S
C1305 H1281 0.950 1_655 S
C1305 C1304 1.524 . S
C1305 C1306 1.415 . S
C1306 H1282 0.950 . S
C1306 C1301 1.363 . S
C1306 C1305 1.415 . S
C1307 H1283 0.959 . S
C1307 C1308 1.321 1_655 S
C1307 C1309 1.427 . S
C1308 C1307 1.321 1_455 S
C1308 C1312 1.385 . S
C1309 H1284 0.951 . S
C1309 C1307 1.427 . S
C1309 C1310 1.366 . S
C1310 C1309 1.366 . S
C1310 C1311 1.414 1_655 S
C1310 C1313 1.499 . S
C1311 H1285 0.950 . S
C1311 C1310 1.414 1_455 S
C1311 C1312 1.374 . S
C1312 H1286 0.950 . S
C1312 C1308 1.385 . S
C1312 C1311 1.374 . S
C1313 C1310 1.499 . S
C1313 C1314 1.373 . S
C1313 C1315 1.389 . S
C1314 H1287 0.950 . S
C1314 C1300 1.377 . S
C1314 C1313 1.373 . S
C1315 C1299 1.377 . S
C1315 C1313 1.389 . S
C1315 C1316 1.524 . S
C1316 C1315 1.524 . S
C1316 C1317 1.397 . S
C1316 C1321 1.363 . S
C1317 H1288 0.950 . S
C1317 C1316 1.397 . S
C1317 C1318 1.334 . S
C1318 H1289 0.950 . S
C1318 C1317 1.334 . S
C1318 C1319 1.287 . S
C1319 C1318 1.287 . S
C1319 C1320 1.524 . S
C1319 H1322 0.999 . S
C1320 H1290 0.950 . S
C1320 C1319 1.524 . S
C1320 C1321 1.415 . S
C1321 H1291 0.950 . S
C1321 C1316 1.363 . S
C1321 C1320 1.415 . S
H1322 C1319 0.999 . S
H1323 C1304 0.913 . S
H1324 C1342 0.951 . S
H1325 C1344 0.951 . S
H1326 C1346 0.950 . S
H1327 C1347 0.950 . S
H1328 C1349 0.950 . S
H1329 C1352 0.950 . S
H1330 C1353 0.950 . S
H1331 C1355 0.950 . S
H1332 C1356 0.950 . S
H1333 C1357 0.951 . S
H1334 C1359 0.951 . S
H1335 C1361 0.950 . S
H1336 C1362 0.950 . S
H1337 C1364 0.950 . S
H1338 C1367 0.950 . S
H1339 C1368 0.950 . S
H1340 C1370 0.950 . S
H1341 C1371 0.950 . S
C1342 H1324 0.951 . S
C1342 C1343 1.366 . S
C1342 C1344 1.388 . S
C1343 C1342 1.366 . S
C1343 C1347 1.385 . S
C1344 H1325 0.951 . S
C1344 C1342 1.388 . S
C1344 C1345 1.366 . S
C1345 C1344 1.366 . S
C1345 C1346 1.414 . S
C1345 C1348 1.499 . S
C1346 H1326 0.950 . S
C1346 C1345 1.414 . S
C1346 C1347 1.374 . S
C1347 H1327 0.950 . S
C1347 C1343 1.385 . S
C1347 C1346 1.374 . S
C1348 C1345 1.499 . S
C1348 C1349 1.373 . S
C1348 C1350 1.389 . S
C1349 H1328 0.950 . S
C1349 C1348 1.373 . S
C1349 C1365 1.377 . S
C1350 C1348 1.389 . S
C1350 C1351 1.524 . S
C1350 C1364 1.377 . S
C1351 C1350 1.524 . S
C1351 C1352 1.397 . S
C1351 C1356 1.363 . S
C1352 H1329 0.950 . S
C1352 C1351 1.397 . S
C1352 C1353 1.334 . S
C1353 H1330 0.950 . S
C1353 C1352 1.334 . S
C1353 C1354 1.287 . S
C1354 C1353 1.287 . S
C1354 C1355 1.524 . S
C1354 H1373 0.913 . S
C1355 H1331 0.950 . S
C1355 C1354 1.524 . S
C1355 C1356 1.415 . S
C1356 H1332 0.950 . S
C1356 C1351 1.363 . S
C1356 C1355 1.415 . S
C1357 H1333 0.951 . S
C1357 C1358 1.366 . S
C1357 C1359 1.388 1_565 S
C1358 C1357 1.366 . S
C1358 C1362 1.385 1_565 S
C1359 H1334 0.951 . S
C1359 C1357 1.388 1_545 S
C1359 C1360 1.366 . S
C1360 C1359 1.366 . S
C1360 C1361 1.414 . S
C1360 C1363 1.499 . S
C1361 H1335 0.950 . S
C1361 C1360 1.414 . S
C1361 C1362 1.374 . S
C1362 H1336 0.950 . S
C1362 C1358 1.385 1_545 S
C1362 C1361 1.374 . S
C1363 C1360 1.499 . S
C1363 C1364 1.373 . S
C1363 C1365 1.389 . S
C1364 H1337 0.950 . S
C1364 C1350 1.377 . S
C1364 C1363 1.373 . S
C1365 C1349 1.377 . S
C1365 C1363 1.389 . S
C1365 C1366 1.524 . S
C1366 C1365 1.524 . S
C1366 C1367 1.397 . S
C1366 C1371 1.363 . S
C1367 H1338 0.950 . S
C1367 C1366 1.397 . S
C1367 C1368 1.334 . S
C1368 H1339 0.950 . S
C1368 C1367 1.334 . S
C1368 C1369 1.287 . S
C1369 C1368 1.287 . S
C1369 C1370 1.524 . S
C1369 H1372 0.999 . S
C1370 H1340 0.950 . S
C1370 C1369 1.524 . S
C1370 C1371 1.415 . S
C1371 H1341 0.950 . S
C1371 C1366 1.363 . S
C1371 C1370 1.415 . S
H1372 C1369 0.999 . S
H1373 C1354 0.913 . S
H1374 C1392 0.951 . S
H1375 C1394 0.951 . S
H1376 C1396 0.950 . S
H1377 C1397 0.950 . S
H1378 C1399 0.950 . S
H1379 C1402 0.950 . S
H1380 C1403 0.950 . S
H1381 C1405 0.950 . S
H1382 C1406 0.950 . S
H1383 C1407 0.951 . S
H1384 C1409 0.953 . S
H1385 C1411 0.950 . S
H1386 C1412 0.950 . S
H1387 C1414 0.950 . S
H1388 C1417 0.950 . S
H1389 C1418 0.950 . S
H1390 C1420 0.950 . S
H1391 C1421 0.946 . S
C1392 H1374 0.951 . S
C1392 C1393 1.366 . S
C1392 C1394 1.388 . S
C1393 C1392 1.366 . S
C1393 C1397 1.385 . S
C1394 H1375 0.951 . S
C1394 C1392 1.388 . S
C1394 C1395 1.366 . S
C1395 C1394 1.366 . S
C1395 C1396 1.414 . S
C1395 C1398 1.499 . S
C1396 H1376 0.950 . S
C1396 C1395 1.414 . S
C1396 C1397 1.374 . S
C1397 H1377 0.950 . S
C1397 C1393 1.385 . S
C1397 C1396 1.374 . S
C1398 C1395 1.499 . S
C1398 C1399 1.373 . S
C1398 C1400 1.389 . S
C1399 H1378 0.950 . S
C1399 C1398 1.373 . S
C1399 C1415 1.377 . S
C1400 C1398 1.389 . S
C1400 C1401 1.524 . S
C1400 C1414 1.377 . S
C1401 C1400 1.524 . S
C1401 C1402 1.397 . S
C1401 C1406 1.363 . S
C1402 H1379 0.950 . S
C1402 C1401 1.397 . S
C1402 C1403 1.334 . S
C1403 H1380 0.950 . S
C1403 C1402 1.334 . S
C1403 C1404 1.287 . S
C1404 C1403 1.287 . S
C1404 C1405 1.524 . S
C1404 H1423 0.913 . S
C1405 H1381 0.950 . S
C1405 C1404 1.524 . S
C1405 C1406 1.415 . S
C1406 H1382 0.950 . S
C1406 C1401 1.363 . S
C1406 C1405 1.415 . S
C1407 H1383 0.951 . S
C1407 C1408 1.366 . S
C1407 C1409 1.372 1_655 S
C1408 C1407 1.366 . S
C1408 C1412 1.385 . S
C1409 H1384 0.953 . S
C1409 C1407 1.372 1_455 S
C1409 C1410 1.379 . S
C1410 C1409 1.379 . S
C1410 C1411 1.414 . S
C1410 C1413 1.499 . S
C1411 H1385 0.950 . S
C1411 C1410 1.414 . S
C1411 C1412 1.374 1_455 S
C1412 H1386 0.950 . S
C1412 C1408 1.385 . S
C1412 C1411 1.374 1_655 S
C1413 C1410 1.499 . S
C1413 C1414 1.373 . S
C1413 C1415 1.389 . S
C1414 H1387 0.950 . S
C1414 C1400 1.377 . S
C1414 C1413 1.373 . S
C1415 C1399 1.377 . S
C1415 C1413 1.389 . S
C1415 C1416 1.524 . S
C1416 C1415 1.524 . S
C1416 C1417 1.397 1_455 S
C1416 C1421 1.362 . S
C1417 H1388 0.950 . S
C1417 C1416 1.397 1_655 S
C1417 C1418 1.334 . S
C1418 H1389 0.950 . S
C1418 C1417 1.334 . S
C1418 C1419 1.287 . S
C1419 C1418 1.287 . S
C1419 C1420 1.524 . S
C1419 H1422 0.999 . S
C1420 H1390 0.950 . S
C1420 C1419 1.524 . S
C1420 C1421 1.420 1_655 S
C1421 H1391 0.946 . S
C1421 C1416 1.362 . S
C1421 C1420 1.420 1_455 S
H1422 C1419 0.999 . S
H1423 C1404 0.913 . S
H1424 C1442 0.951 . S
H1425 C1444 0.951 . S
H1426 C1446 0.950 . S
H1427 C1447 0.950 . S
H1428 C1449 0.950 . S
H1429 C1452 0.950 . S
H1430 C1453 0.950 . S
H1431 C1455 0.950 . S
H1432 C1456 0.950 . S
H1433 C1457 0.951 . S
H1434 C1459 0.951 . S
H1435 C1461 0.950 . S
H1436 C1462 0.950 . S
H1437 C1464 0.950 . S
H1438 C1467 0.950 . S
H1439 C1468 0.950 . S
H1440 C1470 0.950 . S
H1441 C1471 0.950 . S
C1442 H1424 0.951 . S
C1442 C1443 1.366 . S
C1442 C1444 1.388 . S
C1443 C1442 1.366 . S
C1443 C1447 1.385 . S
C1444 H1425 0.951 . S
C1444 C1442 1.388 . S
C1444 C1445 1.366 . S
C1445 C1444 1.366 . S
C1445 C1446 1.414 . S
C1445 C1448 1.499 . S
C1446 H1426 0.950 . S
C1446 C1445 1.414 . S
C1446 C1447 1.374 . S
C1447 H1427 0.950 . S
C1447 C1443 1.385 . S
C1447 C1446 1.374 . S
C1448 C1445 1.499 . S
C1448 C1449 1.373 . S
C1448 C1450 1.389 . S
C1449 H1428 0.950 . S
C1449 C1448 1.373 . S
C1449 C1465 1.377 . S
C1450 C1448 1.389 . S
C1450 C1451 1.524 . S
C1450 C1464 1.377 . S
C1451 C1450 1.524 . S
C1451 C1452 1.397 . S
C1451 C1456 1.363 . S
C1452 H1429 0.950 . S
C1452 C1451 1.397 . S
C1452 C1453 1.334 . S
C1453 H1430 0.950 . S
C1453 C1452 1.334 . S
C1453 C1454 1.287 . S
C1454 C1453 1.287 . S
C1454 C1455 1.524 . S
C1454 H1473 0.913 . S
C1455 H1431 0.950 . S
C1455 C1454 1.524 . S
C1455 C1456 1.415 . S
C1456 H1432 0.950 . S
C1456 C1451 1.363 . S
C1456 C1455 1.415 . S
C1457 H1433 0.951 . S
C1457 C1458 1.366 . S
C1457 C1459 1.388 . S
C1458 C1457 1.366 . S
C1458 C1462 1.385 . S
C1459 H1434 0.951 . S
C1459 C1457 1.388 . S
C1459 C1460 1.366 . S
C1460 C1459 1.366 . S
C1460 C1461 1.414 . S
C1460 C1463 1.499 . S
C1461 H1435 0.950 . S
C1461 C1460 1.414 . S
C1461 C1462 1.374 . S
C1462 H1436 0.950 . S
C1462 C1458 1.385 . S
C1462 C1461 1.374 . S
C1463 C1460 1.499 . S
C1463 C1464 1.373 . S
C1463 C1465 1.389 . S
C1464 H1437 0.950 . S
C1464 C1450 1.377 . S
C1464 C1463 1.373 . S
C1465 C1449 1.377 . S
C1465 C1463 1.389 . S
C1465 C1466 1.524 . S
C1466 C1465 1.524 . S
C1466 C1467 1.397 . S
C1466 C1471 1.363 . S
C1467 H1438 0.950 . S
C1467 C1466 1.397 . S
C1467 C1468 1.334 . S
C1468 H1439 0.950 . S
C1468 C1467 1.334 . S
C1468 C1469 1.287 . S
C1469 C1468 1.287 . S
C1469 C1470 1.524 . S
C1469 H1472 0.999 . S
C1470 H1440 0.950 . S
C1470 C1469 1.524 . S
C1470 C1471 1.415 . S
C1471 H1441 0.950 . S
C1471 C1466 1.363 . S
C1471 C1470 1.415 . S
H1472 C1469 0.999 . S
H1473 C1454 0.913 . S
H1474 C1492 0.951 . S
H1475 C1494 0.951 . S
H1476 C1496 0.950 . S
H1477 C1497 0.950 . S
H1478 C1499 0.950 . S
H1479 C1502 0.950 . S
H1480 C1503 0.950 . S
H1481 C1505 0.950 . S
H1482 C1506 0.950 . S
H1483 C1507 0.951 . S
H1484 C1509 0.951 . S
H1485 C1511 0.950 . S
H1486 C1512 0.950 . S
H1487 C1514 0.950 . S
H1488 C1517 0.950 . S
H1489 C1518 0.950 . S
H1490 C1520 0.950 . S
H1491 C1521 0.950 . S
C1492 H1474 0.951 . S
C1492 C1493 1.366 . S
C1492 C1494 1.388 . S
C1493 C1492 1.366 . S
C1493 C1497 1.385 . S
C1494 H1475 0.951 . S
C1494 C1492 1.388 . S
C1494 C1495 1.366 . S
C1495 C1494 1.366 . S
C1495 C1496 1.414 . S
C1495 C1498 1.499 . S
C1496 H1476 0.950 . S
C1496 C1495 1.414 . S
C1496 C1497 1.374 . S
C1497 H1477 0.950 . S
C1497 C1493 1.385 . S
C1497 C1496 1.374 . S
C1498 C1495 1.499 . S
C1498 C1499 1.373 . S
C1498 C1500 1.389 . S
C1499 H1478 0.950 . S
C1499 C1498 1.373 . S
C1499 C1515 1.377 . S
C1500 C1498 1.389 . S
C1500 C1501 1.524 . S
C1500 C1514 1.377 . S
C1501 C1500 1.524 . S
C1501 C1502 1.397 . S
C1501 C1506 1.363 . S
C1502 H1479 0.950 . S
C1502 C1501 1.397 . S
C1502 C1503 1.334 . S
C1503 H1480 0.950 . S
C1503 C1502 1.334 . S
C1503 C1504 1.287 . S
C1504 C1503 1.287 . S
C1504 C1505 1.524 . S
C1504 H1523 0.913 . S
C1505 H1481 0.950 . S
C1505 C1504 1.524 . S
C1505 C1506 1.415 . S
C1506 H1482 0.950 . S
C1506 C1501 1.363 . S
C1506 C1505 1.415 . S
C1507 H1483 0.951 . S
C1507 C1508 1.366 . S
C1507 C1509 1.388 . S
C1508 C1507 1.366 . S
C1508 C1512 1.385 . S
C1509 H1484 0.951 . S
C1509 C1507 1.388 . S
C1509 C1510 1.366 . S
C1510 C1509 1.366 . S
C1510 C1511 1.414 . S
C1510 C1513 1.499 . S
C1511 H1485 0.950 . S
C1511 C1510 1.414 . S
C1511 C1512 1.374 . S
C1512 H1486 0.950 . S
C1512 C1508 1.385 . S
C1512 C1511 1.374 . S
C1513 C1510 1.499 . S
C1513 C1514 1.373 . S
C1513 C1515 1.389 . S
C1514 H1487 0.950 . S
C1514 C1500 1.377 . S
C1514 C1513 1.373 . S
C1515 C1499 1.377 . S
C1515 C1513 1.389 . S
C1515 C1516 1.524 . S
C1516 C1515 1.524 . S
C1516 C1517 1.397 . S
C1516 C1521 1.363 . S
C1517 H1488 0.950 . S
C1517 C1516 1.397 . S
C1517 C1518 1.334 . S
C1518 H1489 0.950 . S
C1518 C1517 1.334 . S
C1518 C1519 1.287 . S
C1519 C1518 1.287 . S
C1519 C1520 1.524 . S
C1519 H1522 0.999 . S
C1520 H1490 0.950 . S
C1520 C1519 1.524 . S
C1520 C1521 1.415 . S
C1521 H1491 0.950 . S
C1521 C1516 1.363 . S
C1521 C1520 1.415 . S
H1522 C1519 0.999 . S
H1523 C1504 0.913 . S
H1524 C1542 0.951 . S
H1525 C1544 0.951 . S
H1526 C1546 0.950 . S
H1527 C1547 0.950 . S
H1528 C1549 0.950 . S
H1529 C1552 0.950 . S
H1530 C1553 0.950 . S
H1531 C1555 0.950 . S
H1532 C1556 0.950 . S
H1533 C1557 0.951 . S
H1534 C1559 0.951 . S
H1535 C1561 0.950 . S
H1536 C1562 0.950 . S
H1537 C1564 0.950 . S
H1538 C1567 0.950 . S
H1539 C1568 0.950 . S
H1540 C1570 0.950 . S
H1541 C1571 0.950 . S
C1542 H1524 0.951 . S
C1542 C1543 1.366 . S
C1542 C1544 1.388 . S
C1543 C1542 1.366 . S
C1543 C1547 1.385 . S
C1544 H1525 0.951 . S
C1544 C1542 1.388 . S
C1544 C1545 1.366 . S
C1545 C1544 1.366 . S
C1545 C1546 1.414 . S
C1545 C1548 1.499 . S
C1546 H1526 0.950 . S
C1546 C1545 1.414 . S
C1546 C1547 1.374 . S
C1547 H1527 0.950 . S
C1547 C1543 1.385 . S
C1547 C1546 1.374 . S
C1548 C1545 1.499 . S
C1548 C1549 1.373 . S
C1548 C1550 1.389 . S
C1549 H1528 0.950 . S
C1549 C1548 1.373 . S
C1549 C1565 1.377 . S
C1550 C1548 1.389 . S
C1550 C1551 1.524 . S
C1550 C1564 1.377 . S
C1551 C1550 1.524 . S
C1551 C1552 1.397 . S
C1551 C1556 1.363 . S
C1552 H1529 0.950 . S
C1552 C1551 1.397 . S
C1552 C1553 1.334 . S
C1553 H1530 0.950 . S
C1553 C1552 1.334 . S
C1553 C1554 1.287 . S
C1554 C1553 1.287 . S
C1554 C1555 1.524 . S
C1554 H1573 0.913 . S
C1555 H1531 0.950 . S
C1555 C1554 1.524 . S
C1555 C1556 1.415 . S
C1556 H1532 0.950 . S
C1556 C1551 1.363 . S
C1556 C1555 1.415 . S
C1557 H1533 0.951 . S
C1557 C1558 1.366 . S
C1557 C1559 1.388 . S
C1558 C1557 1.366 . S
C1558 C1562 1.385 . S
C1559 H1534 0.951 . S
C1559 C1557 1.388 . S
C1559 C1560 1.366 . S
C1560 C1559 1.366 . S
C1560 C1561 1.414 . S
C1560 C1563 1.499 . S
C1561 H1535 0.950 . S
C1561 C1560 1.414 . S
C1561 C1562 1.374 . S
C1562 H1536 0.950 . S
C1562 C1558 1.385 . S
C1562 C1561 1.374 . S
C1563 C1560 1.499 . S
C1563 C1564 1.373 . S
C1563 C1565 1.389 . S
C1564 H1537 0.950 . S
C1564 C1550 1.377 . S
C1564 C1563 1.373 . S
C1565 C1549 1.377 . S
C1565 C1563 1.389 . S
C1565 C1566 1.524 . S
C1566 C1565 1.524 . S
C1566 C1567 1.397 . S
C1566 C1571 1.363 . S
C1567 H1538 0.950 . S
C1567 C1566 1.397 . S
C1567 C1568 1.334 . S
C1568 H1539 0.950 . S
C1568 C1567 1.334 . S
C1568 C1569 1.287 . S
C1569 C1568 1.287 . S
C1569 C1570 1.524 . S
C1569 H1572 0.999 . S
C1570 H1540 0.950 . S
C1570 C1569 1.524 . S
C1570 C1571 1.415 . S
C1571 H1541 0.950 . S
C1571 C1566 1.363 . S
C1571 C1570 1.415 . S
H1572 C1569 0.999 . S
H1573 C1554 0.913 . S
H1574 C1592 0.951 . S
H1575 C1594 0.951 . S
H1576 C1596 0.950 . S
H1577 C1597 0.950 . S
H1578 C1599 0.950 . S
H1579 C1602 0.950 . S
H1580 C1603 0.950 . S
H1581 C1605 0.950 . S
H1582 C1606 0.950 . S
H1583 C1607 0.951 . S
H1584 C1609 0.951 . S
H1585 C1611 0.950 . S
H1586 C1612 0.950 . S
H1587 C1614 0.950 . S
H1588 C1617 0.950 . S
H1589 C1618 0.950 . S
H1590 C1620 0.950 . S
H1591 C1621 0.950 . S
C1592 H1574 0.951 . S
C1592 C1593 1.366 . S
C1592 C1594 1.388 . S
C1593 C1592 1.366 . S
C1593 C1597 1.385 . S
C1594 H1575 0.951 . S
C1594 C1592 1.388 . S
C1594 C1595 1.366 . S
C1595 C1594 1.366 . S
C1595 C1596 1.414 . S
C1595 C1598 1.499 . S
C1596 H1576 0.950 . S
C1596 C1595 1.414 . S
C1596 C1597 1.374 . S
C1597 H1577 0.950 . S
C1597 C1593 1.385 . S
C1597 C1596 1.374 . S
C1598 C1595 1.499 . S
C1598 C1599 1.373 . S
C1598 C1600 1.389 . S
C1599 H1578 0.950 . S
C1599 C1598 1.373 . S
C1599 C1615 1.377 . S
C1600 C1598 1.389 . S
C1600 C1601 1.524 . S
C1600 C1614 1.377 . S
C1601 C1600 1.524 . S
C1601 C1602 1.397 . S
C1601 C1606 1.363 . S
C1602 H1579 0.950 . S
C1602 C1601 1.397 . S
C1602 C1603 1.334 . S
C1603 H1580 0.950 . S
C1603 C1602 1.334 . S
C1603 C1604 1.287 . S
C1604 C1603 1.287 . S
C1604 C1605 1.524 . S
C1604 H1623 0.913 . S
C1605 H1581 0.950 . S
C1605 C1604 1.524 . S
C1605 C1606 1.415 . S
C1606 H1582 0.950 . S
C1606 C1601 1.363 . S
C1606 C1605 1.415 . S
C1607 H1583 0.951 . S
C1607 C1608 1.366 . S
C1607 C1609 1.388 . S
C1608 C1607 1.366 . S
C1608 C1612 1.385 . S
C1609 H1584 0.951 . S
C1609 C1607 1.388 . S
C1609 C1610 1.366 . S
C1610 C1609 1.366 . S
C1610 C1611 1.414 . S
C1610 C1613 1.499 . S
C1611 H1585 0.950 . S
C1611 C1610 1.414 . S
C1611 C1612 1.374 . S
C1612 H1586 0.950 . S
C1612 C1608 1.385 . S
C1612 C1611 1.374 . S
C1613 C1610 1.499 . S
C1613 C1614 1.373 . S
C1613 C1615 1.389 . S
C1614 H1587 0.950 . S
C1614 C1600 1.377 . S
C1614 C1613 1.373 . S
C1615 C1599 1.377 . S
C1615 C1613 1.389 . S
C1615 C1616 1.524 . S
C1616 C1615 1.524 . S
C1616 C1617 1.397 . S
C1616 C1621 1.363 . S
C1617 H1588 0.950 . S
C1617 C1616 1.397 . S
C1617 C1618 1.334 . S
C1618 H1589 0.950 . S
C1618 C1617 1.334 . S
C1618 C1619 1.287 . S
C1619 C1618 1.287 . S
C1619 C1620 1.524 . S
C1619 H1622 0.999 . S
C1620 H1590 0.950 . S
C1620 C1619 1.524 . S
C1620 C1621 1.415 . S
C1621 H1591 0.950 . S
C1621 C1616 1.363 . S
C1621 C1620 1.415 . S
H1622 C1619 0.999 . S
H1623 C1604 0.913 . S
H1624 C1642 0.951 . S
H1625 C1644 0.951 . S
H1626 C1646 0.950 . S
H1627 C1647 0.950 . S
H1628 C1649 0.950 . S
H1629 C1652 0.950 . S
H1630 C1653 0.950 . S
H1631 C1655 0.950 . S
H1632 C1656 0.950 . S
H1633 C1657 0.951 . S
H1634 C1659 0.951 . S
H1635 C1661 0.950 . S
H1636 C1662 0.950 . S
H1637 C1664 0.950 . S
H1638 C1667 0.950 . S
H1639 C1668 0.950 . S
H1640 C1670 0.950 . S
H1641 C1671 0.950 . S
C1642 H1624 0.951 . S
C1642 C1643 1.366 . S
C1642 C1644 1.388 . S
C1643 C1642 1.366 . S
C1643 C1647 1.385 . S
C1644 H1625 0.951 . S
C1644 C1642 1.388 . S
C1644 C1645 1.366 . S
C1645 C1644 1.366 . S
C1645 C1646 1.414 . S
C1645 C1648 1.499 . S
C1646 H1626 0.950 . S
C1646 C1645 1.414 . S
C1646 C1647 1.374 . S
C1647 H1627 0.950 . S
C1647 C1643 1.385 . S
C1647 C1646 1.374 . S
C1648 C1645 1.499 . S
C1648 C1649 1.373 . S
C1648 C1650 1.389 1_545 S
C1649 H1628 0.950 . S
C1649 C1648 1.373 . S
C1649 C1665 1.377 1_554 S
C1650 C1648 1.389 1_565 S
C1650 C1651 1.524 . S
C1650 C1664 1.377 1_554 S
C1651 C1650 1.524 . S
C1651 C1652 1.397 . S
C1651 C1656 1.363 . S
C1652 H1629 0.950 . S
C1652 C1651 1.397 . S
C1652 C1653 1.334 . S
C1653 H1630 0.950 . S
C1653 C1652 1.334 . S
C1653 C1654 1.287 . S
C1654 C1653 1.287 . S
C1654 C1655 1.524 . S
C1654 H1673 0.913 . S
C1655 H1631 0.950 . S
C1655 C1654 1.524 . S
C1655 C1656 1.415 . S
C1656 H1632 0.950 . S
C1656 C1651 1.363 . S
C1656 C1655 1.415 . S
C1657 H1633 0.951 . S
C1657 C1658 1.366 . S
C1657 C1659 1.388 . S
C1658 C1657 1.366 . S
C1658 C1662 1.385 . S
C1659 H1634 0.951 . S
C1659 C1657 1.388 . S
C1659 C1660 1.366 . S
C1660 C1659 1.366 . S
C1660 C1661 1.414 . S
C1660 C1663 1.499 . S
C1661 H1635 0.950 . S
C1661 C1660 1.414 . S
C1661 C1662 1.374 . S
C1662 H1636 0.950 . S
C1662 C1658 1.385 . S
C1662 C1661 1.374 . S
C1663 C1660 1.499 . S
C1663 C1664 1.373 . S
C1663 C1665 1.389 1_565 S
C1664 H1637 0.950 . S
C1664 C1650 1.377 1_556 S
C1664 C1663 1.373 . S
C1665 C1649 1.377 1_556 S
C1665 C1663 1.389 1_545 S
C1665 C1666 1.524 . S
C1666 C1665 1.524 . S
C1666 C1667 1.397 . S
C1666 C1671 1.363 . S
C1667 H1638 0.950 . S
C1667 C1666 1.397 . S
C1667 C1668 1.334 . S
C1668 H1639 0.950 . S
C1668 C1667 1.334 . S
C1668 C1669 1.287 . S
C1669 C1668 1.287 . S
C1669 C1670 1.524 . S
C1669 H1672 0.999 . S
C1670 H1640 0.950 . S
C1670 C1669 1.524 . S
C1670 C1671 1.415 . S
C1671 H1641 0.950 . S
C1671 C1666 1.363 . S
C1671 C1670 1.415 . S
H1672 C1669 0.999 . S
H1673 C1654 0.913 . S
H1674 C1692 0.951 . S
H1675 C1694 0.951 . S
H1676 C1696 0.950 1_655 S
H1677 C1697 0.950 . S
H1678 C1699 0.950 . S
H1679 C1702 0.950 . S
H1680 C1703 0.950 . S
H1681 C1705 0.950 . S
H1682 C1706 0.950 . S
H1683 C1707 0.951 . S
H1684 C1709 0.951 . S
H1685 C1711 0.950 1_455 S
H1686 C1712 0.950 . S
H1687 C1714 0.950 . S
H1688 C1717 0.950 . S
H1689 C1718 0.950 . S
H1690 C1720 0.950 . S
H1691 C1721 0.950 . S
C1692 H1674 0.951 . S
C1692 C1693 1.366 . S
C1692 C1694 1.388 . S
C1693 C1692 1.366 . S
C1693 C1697 1.385 . S
C1694 H1675 0.951 . S
C1694 C1692 1.388 . S
C1694 C1695 1.366 . S
C1695 C1694 1.366 . S
C1695 C1696 1.414 . S
C1695 C1698 1.499 . S
C1696 H1676 0.950 1_455 S
C1696 C1695 1.414 . S
C1696 C1697 1.374 . S
C1697 H1677 0.950 . S
C1697 C1693 1.385 . S
C1697 C1696 1.374 . S
C1698 C1695 1.499 . S
C1698 C1699 1.373 1_455 S
C1698 C1700 1.389 . S
C1699 H1678 0.950 . S
C1699 C1698 1.373 1_655 S
C1699 C1715 1.377 1_556 S
C1700 C1698 1.389 . S
C1700 C1701 1.524 . S
C1700 C1714 1.377 1_556 S
C1701 C1700 1.524 . S
C1701 C1702 1.397 . S
C1701 C1706 1.363 1_556 S
C1702 H1679 0.950 . S
C1702 C1701 1.397 . S
C1702 C1703 1.334 . S
C1703 H1680 0.950 . S
C1703 C1702 1.334 . S
C1703 C1704 1.287 . S
C1704 C1703 1.287 . S
C1704 C1705 1.524 1_556 S
C1704 H1723 0.913 . S
C1705 H1681 0.950 . S
C1705 C1704 1.524 1_554 S
C1705 C1706 1.415 . S
C1706 H1682 0.950 . S
C1706 C1701 1.363 1_554 S
C1706 C1705 1.415 . S
C1707 H1683 0.951 . S
C1707 C1708 1.366 . S
C1707 C1709 1.388 . S
C1708 C1707 1.366 . S
C1708 C1712 1.385 . S
C1709 H1684 0.951 . S
C1709 C1707 1.388 . S
C1709 C1710 1.366 . S
C1710 C1709 1.366 . S
C1710 C1711 1.414 . S
C1710 C1713 1.499 . S
C1711 H1685 0.950 1_655 S
C1711 C1710 1.414 . S
C1711 C1712 1.374 . S
C1712 H1686 0.950 . S
C1712 C1708 1.385 . S
C1712 C1711 1.374 . S
C1713 C1710 1.499 . S
C1713 C1714 1.373 1_655 S
C1713 C1715 1.389 . S
C1714 H1687 0.950 . S
C1714 C1700 1.377 1_554 S
C1714 C1713 1.373 1_455 S
C1715 C1699 1.377 1_554 S
C1715 C1713 1.389 . S
C1715 C1716 1.524 . S
C1716 C1715 1.524 . S
C1716 C1717 1.397 . S
C1716 C1721 1.363 1_554 S
C1717 H1688 0.950 . S
C1717 C1716 1.397 . S
C1717 C1718 1.334 . S
C1718 H1689 0.950 . S
C1718 C1717 1.334 . S
C1718 C1719 1.287 . S
C1719 C1718 1.287 . S
C1719 C1720 1.524 1_554 S
C1719 H1722 0.999 . S
C1720 H1690 0.950 . S
C1720 C1719 1.524 1_556 S
C1720 C1721 1.415 . S
C1721 H1691 0.950 . S
C1721 C1716 1.363 1_556 S
C1721 C1720 1.415 . S
H1722 C1719 0.999 . S
H1723 C1704 0.913 . S
H1724 C1742 0.951 . S
H1725 C1744 0.951 1_565 S
H1726 C1746 0.950 . S
H1727 C1747 0.950 . S
H1728 C1749 0.950 . S
H1729 C1752 0.950 . S
H1730 C1753 0.950 . S
H1731 C1755 0.950 . S
H1732 C1756 0.950 . S
H1733 C1757 0.951 . S
H1734 C1759 0.951 1_545 S
H1735 C1761 0.950 . S
H1736 C1762 0.950 . S
H1737 C1764 0.950 . S
H1738 C1767 0.950 . S
H1739 C1768 0.950 . S
H1740 C1770 0.950 . S
H1741 C1771 0.950 . S
C1742 H1724 0.951 . S
C1742 C1743 1.366 . S
C1742 C1744 1.388 . S
C1743 C1742 1.366 . S
C1743 C1747 1.385 . S
C1744 H1725 0.951 1_545 S
C1744 C1742 1.388 . S
C1744 C1745 1.366 . S
C1745 C1744 1.366 . S
C1745 C1746 1.414 . S
C1745 C1748 1.499 . S
C1746 H1726 0.950 . S
C1746 C1745 1.414 . S
C1746 C1747 1.374 . S
C1747 H1727 0.950 . S
C1747 C1743 1.385 . S
C1747 C1746 1.374 . S
C1748 C1745 1.499 . S
C1748 C1749 1.373 . S
C1748 C1750 1.389 1_545 S
C1749 H1728 0.950 . S
C1749 C1748 1.373 . S
C1749 C1765 1.377 1_556 S
C1750 C1748 1.389 1_565 S
C1750 C1751 1.524 . S
C1750 C1764 1.377 1_556 S
C1751 C1750 1.524 . S
C1751 C1752 1.397 . S
C1751 C1756 1.363 . S
C1752 H1729 0.950 . S
C1752 C1751 1.397 . S
C1752 C1753 1.334 . S
C1753 H1730 0.950 . S
C1753 C1752 1.334 . S
C1753 C1754 1.287 . S
C1754 C1753 1.287 . S
C1754 C1755 1.524 . S
C1754 H1773 0.913 . S
C1755 H1731 0.950 . S
C1755 C1754 1.524 . S
C1755 C1756 1.415 . S
C1756 H1732 0.950 . S
C1756 C1751 1.363 . S
C1756 C1755 1.415 . S
C1757 H1733 0.951 . S
C1757 C1758 1.366 . S
C1757 C1759 1.388 . S
C1758 C1757 1.366 . S
C1758 C1762 1.385 . S
C1759 H1734 0.951 1_565 S
C1759 C1757 1.388 . S
C1759 C1760 1.366 . S
C1760 C1759 1.366 . S
C1760 C1761 1.414 . S
C1760 C1763 1.499 . S
C1761 H1735 0.950 . S
C1761 C1760 1.414 . S
C1761 C1762 1.374 . S
C1762 H1736 0.950 . S
C1762 C1758 1.385 . S
C1762 C1761 1.374 . S
C1763 C1760 1.499 . S
C1763 C1764 1.373 . S
C1763 C1765 1.389 1_565 S
C1764 H1737 0.950 . S
C1764 C1750 1.377 1_554 S
C1764 C1763 1.373 . S
C1765 C1749 1.377 1_554 S
C1765 C1763 1.389 1_545 S
C1765 C1766 1.524 . S
C1766 C1765 1.524 . S
C1766 C1767 1.397 . S
C1766 C1771 1.363 . S
C1767 H1738 0.950 . S
C1767 C1766 1.397 . S
C1767 C1768 1.334 . S
C1768 H1739 0.950 . S
C1768 C1767 1.334 . S
C1768 C1769 1.287 . S
C1769 C1768 1.287 . S
C1769 C1770 1.524 . S
C1769 H1772 0.999 . S
C1770 H1740 0.950 . S
C1770 C1769 1.524 . S
C1770 C1771 1.415 . S
C1771 H1741 0.950 . S
C1771 C1766 1.363 . S
C1771 C1770 1.415 . S
H1772 C1769 0.999 . S
H1773 C1754 0.913 . S
H1774 C1792 0.951 . S
H1775 C1794 0.951 . S
H1776 C1796 0.950 . S
H1777 C1797 0.950 . S
H1778 C1799 0.950 . S
H1779 C1802 0.950 . S
H1780 C1803 0.950 . S
H1781 C1805 0.950 . S
H1782 C1806 0.950 1_455 S
H1783 C1807 0.951 . S
H1784 C1809 0.951 . S
H1785 C1811 0.950 . S
H1786 C1812 0.950 . S
H1787 C1814 0.950 . S
H1788 C1817 0.950 . S
H1789 C1818 0.950 . S
H1790 C1820 0.950 . S
H1791 C1821 0.950 1_655 S
C1792 H1774 0.951 . S
C1792 C1793 1.366 . S
C1792 C1794 1.388 . S
C1793 C1792 1.366 . S
C1793 C1797 1.385 . S
C1794 H1775 0.951 . S
C1794 C1792 1.388 . S
C1794 C1795 1.366 . S
C1795 C1794 1.366 . S
C1795 C1796 1.414 . S
C1795 C1798 1.499 . S
C1796 H1776 0.950 . S
C1796 C1795 1.414 . S
C1796 C1797 1.374 . S
C1797 H1777 0.950 . S
C1797 C1793 1.385 . S
C1797 C1796 1.374 . S
C1798 C1795 1.499 . S
C1798 C1799 1.373 . S
C1798 C1800 1.389 . S
C1799 H1778 0.950 . S
C1799 C1798 1.373 . S
C1799 C1815 1.377 1_656 S
C1800 C1798 1.389 . S
C1800 C1801 1.524 . S
C1800 C1814 1.377 1_656 S
C1801 C1800 1.524 . S
C1801 C1802 1.397 . S
C1801 C1806 1.363 . S
C1802 H1779 0.950 . S
C1802 C1801 1.397 . S
C1802 C1803 1.334 . S
C1803 H1780 0.950 . S
C1803 C1802 1.334 . S
C1803 C1804 1.287 . S
C1804 C1803 1.287 . S
C1804 C1805 1.524 . S
C1804 H1823 0.913 . S
C1805 H1781 0.950 . S
C1805 C1804 1.524 . S
C1805 C1806 1.415 . S
C1806 H1782 0.950 1_655 S
C1806 C1801 1.363 . S
C1806 C1805 1.415 . S
C1807 H1783 0.951 . S
C1807 C1808 1.366 . S
C1807 C1809 1.388 . S
C1808 C1807 1.366 . S
C1808 C1812 1.385 . S
C1809 H1784 0.951 . S
C1809 C1807 1.388 . S
C1809 C1810 1.366 . S
C1810 C1809 1.366 . S
C1810 C1811 1.414 . S
C1810 C1813 1.499 . S
C1811 H1785 0.950 . S
C1811 C1810 1.414 . S
C1811 C1812 1.374 . S
C1812 H1786 0.950 . S
C1812 C1808 1.385 . S
C1812 C1811 1.374 . S
C1813 C1810 1.499 . S
C1813 C1814 1.373 . S
C1813 C1815 1.389 . S
C1814 H1787 0.950 . S
C1814 C1800 1.377 1_454 S
C1814 C1813 1.373 . S
C1815 C1799 1.377 1_454 S
C1815 C1813 1.389 . S
C1815 C1816 1.524 . S
C1816 C1815 1.524 . S
C1816 C1817 1.397 . S
C1816 C1821 1.363 . S
C1817 H1788 0.950 . S
C1817 C1816 1.397 . S
C1817 C1818 1.334 . S
C1818 H1789 0.950 . S
C1818 C1817 1.334 . S
C1818 C1819 1.287 . S
C1819 C1818 1.287 . S
C1819 C1820 1.524 . S
C1819 H1822 0.999 . S
C1820 H1790 0.950 . S
C1820 C1819 1.524 . S
C1820 C1821 1.415 . S
C1821 H1791 0.950 1_455 S
C1821 C1816 1.363 . S
C1821 C1820 1.415 . S
H1822 C1819 0.999 . S
H1823 C1804 0.913 . S
C243 C11 1.197 . S
C258 C103 1.143 . S
C293 C19 1.142 . S
C308 C67 1.198 . S
C343 C75 1.144 . S
C358 C39 1.197 . S
C393 C47 1.142 . S
C408 C95 1.198 . S
C443 C123 1.198 . S
C458 C215 1.142 . S
C493 C179 1.197 . S
C508 C131 1.142 . S
C543 C187 1.144 . S
C558 C151 1.197 . S
C593 C207 1.197 . S
C608 C159 1.142 . S
C643 C4 1.141 . S
C658 C158 1.123 . S
C693 C26 0.841 . S
C708 C117 0.803 . S
C743 C130 1.123 . S
C758 C32 1.140 . S
C793 C54 0.841 . S
C808 C145 0.803 . S
C843 C60 1.141 . S
C858 C186 1.123 . S
C893 C201 0.802 . S
C908 C82 0.841 . S
C943 C88 1.141 . S
C958 C214 1.123 . S
C993 C173 0.803 . S
C1008 C110 0.842 . S
C1043 C116 1.141 . S
C1058 C46 1.122 . S
C1093 C5 0.805 . S
C1108 C138 0.843 . S
C1143 C144 1.141 . S
C1158 C18 1.124 . S
C1193 C33 0.802 . S
C1208 C166 0.841 . S
C1243 C172 1.140 . S
C1258 C74 1.122 . S
C1293 C89 0.804 . S
C1308 C194 0.842 . S
C1343 C102 1.122 . S
C1358 C200 1.141 . S
C1393 C61 0.805 . S
C1408 C222 0.843 . S
C1443 C68 1.407 . S
C1458 C12 1.407 . S
C1493 C81 1.735 . S
C1508 C25 1.735 . S
C1543 C40 1.407 . S
C1558 C96 1.407 . S
C1593 C109 1.735 . S
C1608 C53 1.735 . S
C1643 C180 1.407 . S
C1658 C124 1.407 . S
C1693 C193 1.735 . S
C1708 C137 1.735 . S
C1743 C152 1.407 . S
C1758 C208 1.407 . S
C1793 C221 1.735 . S
C1808 C165 1.735 . S
