# Generated by pormake.
# Topology uma, (4)-cn, num edge types: 1
# Building blocks:
#     Node 0, Type 0, BuildingBlock: KOZSID_clean_sbu_0, # of connection points: 4
#     Node 1, Type 0, BuildingBlock: KOZSID_clean_sbu_0, # of connection points: 4
#     Node 2, Type 0, BuildingBlock: KOZSID_clean_sbu_0, # of connection points: 4
#     Node 3, Type 0, BuildingBlock: KOZSID_clean_sbu_0, # of connection points: 4
#     Node 4, Type 0, BuildingBlock: KOZSID_clean_sbu_0, # of connection points: 4
#     Node 5, Type 0, BuildingBlock: KOZSID_clean_sbu_0, # of connection points: 4
#     Node 6, Type 0, BuildingBlock: KOZSID_clean_sbu_0, # of connection points: 4
#     Node 7, Type 0, BuildingBlock: KOZSID_clean_sbu_0, # of connection points: 4
#     Node 8, Type 0, BuildingBlock: KOZSID_clean_sbu_0, # of connection points: 4
#     Node 9, Type 0, BuildingBlock: KOZSID_clean_sbu_0, # of connection points: 4
#     Node 10, Type 0, BuildingBlock: KOZSID_clean_sbu_0, # of connection points: 4
#     Node 11, Type 0, BuildingBlock: KOZSID_clean_sbu_0, # of connection points: 4
#     Node 12, Type 0, BuildingBlock: KOZSID_clean_sbu_0, # of connection points: 4
#     Node 13, Type 0, BuildingBlock: KOZSID_clean_sbu_0, # of connection points: 4
#     Node 14, Type 0, BuildingBlock: KOZSID_clean_sbu_0, # of connection points: 4
#     Node 15, Type 0, BuildingBlock: KOZSID_clean_sbu_0, # of connection points: 4
#     Node 16, Type 0, BuildingBlock: KOZSID_clean_sbu_0, # of connection points: 4
#     Node 17, Type 0, BuildingBlock: KOZSID_clean_sbu_0, # of connection points: 4
#     Node 18, Type 0, BuildingBlock: KOZSID_clean_sbu_0, # of connection points: 4
#     Node 19, Type 0, BuildingBlock: KOZSID_clean_sbu_0, # of connection points: 4
#     Node 20, Type 0, BuildingBlock: KOZSID_clean_sbu_0, # of connection points: 4
#     Node 21, Type 0, BuildingBlock: KOZSID_clean_sbu_0, # of connection points: 4
#     Node 22, Type 0, BuildingBlock: KOZSID_clean_sbu_0, # of connection points: 4
#     Node 23, Type 0, BuildingBlock: KOZSID_clean_sbu_0, # of connection points: 4
#     Node 24, Type 0, BuildingBlock: KOZSID_clean_sbu_0, # of connection points: 4
#     Node 25, Type 0, BuildingBlock: KOZSID_clean_sbu_0, # of connection points: 4
#     Node 26, Type 0, BuildingBlock: KOZSID_clean_sbu_0, # of connection points: 4
#     Node 27, Type 0, BuildingBlock: KOZSID_clean_sbu_0, # of connection points: 4
#     Node 28, Type 0, BuildingBlock: KOZSID_clean_sbu_0, # of connection points: 4
#     Node 29, Type 0, BuildingBlock: KOZSID_clean_sbu_0, # of connection points: 4
#     Node 30, Type 0, BuildingBlock: KOZSID_clean_sbu_0, # of connection points: 4
#     Node 31, Type 0, BuildingBlock: KOZSID_clean_sbu_0, # of connection points: 4
#     Node 32, Type 0, BuildingBlock: KOZSID_clean_sbu_0, # of connection points: 4
#     Node 33, Type 0, BuildingBlock: KOZSID_clean_sbu_0, # of connection points: 4
#     Node 34, Type 0, BuildingBlock: KOZSID_clean_sbu_0, # of connection points: 4
#     Node 35, Type 0, BuildingBlock: KOZSID_clean_sbu_0, # of connection points: 4
#     Edge 36, Type (0, 0), BuildingBlock: OJICUG_clean_linker_0, # of connection points: 2
#     Edge 37, Type (0, 0), BuildingBlock: OJICUG_clean_linker_0, # of connection points: 2
#     Edge 38, Type (0, 0), BuildingBlock: OJICUG_clean_linker_0, # of connection points: 2
#     Edge 39, Type (0, 0), BuildingBlock: OJICUG_clean_linker_0, # of connection points: 2
#     Edge 40, Type (0, 0), BuildingBlock: OJICUG_clean_linker_0, # of connection points: 2
#     Edge 41, Type (0, 0), BuildingBlock: OJICUG_clean_linker_0, # of connection points: 2
#     Edge 42, Type (0, 0), BuildingBlock: OJICUG_clean_linker_0, # of connection points: 2
#     Edge 43, Type (0, 0), BuildingBlock: OJICUG_clean_linker_0, # of connection points: 2
#     Edge 44, Type (0, 0), BuildingBlock: OJICUG_clean_linker_0, # of connection points: 2
#     Edge 45, Type (0, 0), BuildingBlock: OJICUG_clean_linker_0, # of connection points: 2
#     Edge 46, Type (0, 0), BuildingBlock: OJICUG_clean_linker_0, # of connection points: 2
#     Edge 47, Type (0, 0), BuildingBlock: OJICUG_clean_linker_0, # of connection points: 2
#     Edge 48, Type (0, 0), BuildingBlock: OJICUG_clean_linker_0, # of connection points: 2
#     Edge 49, Type (0, 0), BuildingBlock: OJICUG_clean_linker_0, # of connection points: 2
#     Edge 50, Type (0, 0), BuildingBlock: OJICUG_clean_linker_0, # of connection points: 2
#     Edge 51, Type (0, 0), BuildingBlock: OJICUG_clean_linker_0, # of connection points: 2
#     Edge 52, Type (0, 0), BuildingBlock: OJICUG_clean_linker_0, # of connection points: 2
#     Edge 53, Type (0, 0), BuildingBlock: OJICUG_clean_linker_0, # of connection points: 2
#     Edge 54, Type (0, 0), BuildingBlock: OJICUG_clean_linker_0, # of connection points: 2
#     Edge 55, Type (0, 0), BuildingBlock: OJICUG_clean_linker_0, # of connection points: 2
#     Edge 56, Type (0, 0), BuildingBlock: OJICUG_clean_linker_0, # of connection points: 2
#     Edge 57, Type (0, 0), BuildingBlock: OJICUG_clean_linker_0, # of connection points: 2
#     Edge 58, Type (0, 0), BuildingBlock: OJICUG_clean_linker_0, # of connection points: 2
#     Edge 59, Type (0, 0), BuildingBlock: OJICUG_clean_linker_0, # of connection points: 2
#     Edge 60, Type (0, 0), BuildingBlock: OJICUG_clean_linker_0, # of connection points: 2
#     Edge 61, Type (0, 0), BuildingBlock: OJICUG_clean_linker_0, # of connection points: 2
#     Edge 62, Type (0, 0), BuildingBlock: OJICUG_clean_linker_0, # of connection points: 2
#     Edge 63, Type (0, 0), BuildingBlock: OJICUG_clean_linker_0, # of connection points: 2
#     Edge 64, Type (0, 0), BuildingBlock: OJICUG_clean_linker_0, # of connection points: 2
#     Edge 65, Type (0, 0), BuildingBlock: OJICUG_clean_linker_0, # of connection points: 2
#     Edge 66, Type (0, 0), BuildingBlock: OJICUG_clean_linker_0, # of connection points: 2
#     Edge 67, Type (0, 0), BuildingBlock: OJICUG_clean_linker_0, # of connection points: 2
#     Edge 68, Type (0, 0), BuildingBlock: OJICUG_clean_linker_0, # of connection points: 2
#     Edge 69, Type (0, 0), BuildingBlock: OJICUG_clean_linker_0, # of connection points: 2
#     Edge 70, Type (0, 0), BuildingBlock: OJICUG_clean_linker_0, # of connection points: 2
#     Edge 71, Type (0, 0), BuildingBlock: OJICUG_clean_linker_0, # of connection points: 2
#     Edge 72, Type (0, 0), BuildingBlock: OJICUG_clean_linker_0, # of connection points: 2
#     Edge 73, Type (0, 0), BuildingBlock: OJICUG_clean_linker_0, # of connection points: 2
#     Edge 74, Type (0, 0), BuildingBlock: OJICUG_clean_linker_0, # of connection points: 2
#     Edge 75, Type (0, 0), BuildingBlock: OJICUG_clean_linker_0, # of connection points: 2
#     Edge 76, Type (0, 0), BuildingBlock: OJICUG_clean_linker_0, # of connection points: 2
#     Edge 77, Type (0, 0), BuildingBlock: OJICUG_clean_linker_0, # of connection points: 2
#     Edge 78, Type (0, 0), BuildingBlock: OJICUG_clean_linker_0, # of connection points: 2
#     Edge 79, Type (0, 0), BuildingBlock: OJICUG_clean_linker_0, # of connection points: 2
#     Edge 80, Type (0, 0), BuildingBlock: OJICUG_clean_linker_0, # of connection points: 2
#     Edge 81, Type (0, 0), BuildingBlock: OJICUG_clean_linker_0, # of connection points: 2
#     Edge 82, Type (0, 0), BuildingBlock: OJICUG_clean_linker_0, # of connection points: 2
#     Edge 83, Type (0, 0), BuildingBlock: OJICUG_clean_linker_0, # of connection points: 2
#     Edge 84, Type (0, 0), BuildingBlock: OJICUG_clean_linker_0, # of connection points: 2
#     Edge 85, Type (0, 0), BuildingBlock: OJICUG_clean_linker_0, # of connection points: 2
#     Edge 86, Type (0, 0), BuildingBlock: OJICUG_clean_linker_0, # of connection points: 2
#     Edge 87, Type (0, 0), BuildingBlock: OJICUG_clean_linker_0, # of connection points: 2
#     Edge 88, Type (0, 0), BuildingBlock: OJICUG_clean_linker_0, # of connection points: 2
#     Edge 89, Type (0, 0), BuildingBlock: OJICUG_clean_linker_0, # of connection points: 2
#     Edge 90, Type (0, 0), BuildingBlock: OJICUG_clean_linker_0, # of connection points: 2
#     Edge 91, Type (0, 0), BuildingBlock: OJICUG_clean_linker_0, # of connection points: 2
#     Edge 92, Type (0, 0), BuildingBlock: OJICUG_clean_linker_0, # of connection points: 2
#     Edge 93, Type (0, 0), BuildingBlock: OJICUG_clean_linker_0, # of connection points: 2
#     Edge 94, Type (0, 0), BuildingBlock: OJICUG_clean_linker_0, # of connection points: 2
#     Edge 95, Type (0, 0), BuildingBlock: OJICUG_clean_linker_0, # of connection points: 2
#     Edge 96, Type (0, 0), BuildingBlock: OJICUG_clean_linker_0, # of connection points: 2
#     Edge 97, Type (0, 0), BuildingBlock: OJICUG_clean_linker_0, # of connection points: 2
#     Edge 98, Type (0, 0), BuildingBlock: OJICUG_clean_linker_0, # of connection points: 2
#     Edge 99, Type (0, 0), BuildingBlock: OJICUG_clean_linker_0, # of connection points: 2
#     Edge 100, Type (0, 0), BuildingBlock: OJICUG_clean_linker_0, # of connection points: 2
#     Edge 101, Type (0, 0), BuildingBlock: OJICUG_clean_linker_0, # of connection points: 2
#     Edge 102, Type (0, 0), BuildingBlock: OJICUG_clean_linker_0, # of connection points: 2
#     Edge 103, Type (0, 0), BuildingBlock: OJICUG_clean_linker_0, # of connection points: 2
#     Edge 104, Type (0, 0), BuildingBlock: OJICUG_clean_linker_0, # of connection points: 2
#     Edge 105, Type (0, 0), BuildingBlock: OJICUG_clean_linker_0, # of connection points: 2
#     Edge 106, Type (0, 0), BuildingBlock: OJICUG_clean_linker_0, # of connection points: 2
#     Edge 107, Type (0, 0), BuildingBlock: OJICUG_clean_linker_0, # of connection points: 2
# Relax obj value: 0.151
# Max RMSD: 0.177
# Mean RMSD: 0.158
data_MOF--net-uma--node1-KOZSID_clean_sbu_0--edge1-OJICUG_clean_linker_0
_symmetry_space_group_name_H-M    P1
_symmetry_Int_Tables_number       1
_symmetry_cell_setting            triclinic
loop_
_symmetry_equiv_pos_as_xyz
'x, y, z'
_cell_length_a     80.179779
_cell_length_b     84.230616
_cell_length_c     33.153546
_cell_angle_alpha  87.273721
_cell_angle_beta   89.996646
_cell_angle_gamma 118.5176
loop_
_atom_site_label
_atom_site_type_symbol
_atom_site_fract_x
_atom_site_fract_y
_atom_site_fract_z
_atom_type_partial_charge
C0 C 0.09485 0.3806 0.10059 0.0
C1 C 0.08695 0.36876 0.13424 0.0
C2 C 0.08604 0.35265 0.12521 0.0
C3 C 0.09298 0.35516 0.08629 0.0
N4 N 0.09819 0.37188 0.07017 0.0
Co5 Co 0.106 0.37967 0.01219 0.0
N6 N 0.09511 0.35437 0.99419 0.0
C7 C 0.09047 0.33978 0.01935 0.0
C8 C 0.08326 0.32395 0.99974 0.0
C9 C 0.08362 0.32884 0.95958 0.0
C10 C 0.09122 0.34753 0.9566 0.0
N11 N 0.11352 0.38753 0.95421 0.0
C12 C 0.10809 0.37818 0.91958 0.0
C13 C 0.11776 0.3895 0.88627 0.0
C14 C 0.12958 0.40624 0.9004 0.0
C15 C 0.12662 0.40436 0.94159 0.0
N16 N 0.11664 0.40478 0.03053 0.0
C17 C 0.12962 0.41956 1.00937 0.0
C18 C 0.13429 0.43522 0.02848 0.0
C19 C 0.12351 0.42994 0.06374 0.0
C20 C 0.11261 0.41126 0.06433 0.0
N21 N 0.13052 0.37997 0.02135 0.0
C22 C 0.16561 0.38013 0.03339 0.0
C23 C 0.15773 0.38645 0.06255 0.0
C24 C 0.14035 0.38638 0.05585 0.0
C25 C 0.15537 0.3739 0.99797 0.0
C26 C 0.13796 0.37375 0.99281 0.0
N27 N 0.08213 0.37958 1.00314 0.0
C28 C 0.06507 0.39542 0.98247 0.0
C29 C 0.04867 0.38159 1.0012 0.0
C30 C 0.04901 0.36637 0.019 0.0
C31 C 0.06584 0.36555 0.01928 0.0
C32 C 0.0818 0.39419 0.98402 0.0
H33 H 0.06578 0.35378 0.03355 0.0
H34 H 0.09453 0.40525 0.97065 0.0
H35 H 0.1348 0.39143 0.07874 0.0
H36 H 0.13057 0.36856 0.9654 0.0
C37 C 0.09028 0.3412 0.06129 0.0
C38 C 0.09959 0.4001 0.09873 0.0
C39 C 0.09571 0.35828 0.91744 0.0
C40 C 0.1339 0.41836 0.96877 0.0
H41 H 0.08161 0.37101 0.16205 0.0
H42 H 0.07962 0.34015 0.14374 0.0
H43 H 0.07776 0.31036 0.01314 0.0
H44 H 0.07885 0.31963 0.93536 0.0
H45 H 0.11671 0.38591 0.85511 0.0
H46 H 0.13896 0.41841 0.88259 0.0
H47 H 0.14371 0.44895 0.01725 0.0
H48 H 0.12364 0.43884 0.08636 0.0
H49 H 0.16471 0.3912 0.09076 0.0
H50 H 0.16075 0.36927 0.97383 0.0
H51 H 0.065 0.40709 0.96743 0.0
H52 H 0.03627 0.35511 0.03241 0.0
C53 C 0.6245 0.71242 0.1059 0.0
C54 C 0.63498 0.71895 0.14028 0.0
C55 C 0.65198 0.73332 0.12778 0.0
C56 C 0.65094 0.73506 0.08664 0.0
N57 N 0.63409 0.72297 0.07226 0.0
Co58 Co 0.62721 0.72107 0.0137 0.0
N59 N 0.65415 0.73758 0.99394 0.0
C60 C 0.66913 0.74596 0.0181 0.0
C61 C 0.68617 0.7552 0.9974 0.0
C62 C 0.6819 0.75245 0.95757 0.0
C63 C 0.66233 0.74186 0.95587 0.0
N64 N 0.62031 0.71945 0.95512 0.0
C65 C 0.63124 0.72596 0.92026 0.0
C66 C 0.61992 0.72192 0.88662 0.0
C67 C 0.60147 0.71237 0.90043 0.0
C68 C 0.60239 0.7112 0.94171 0.0
N69 N 0.60064 0.70342 0.03375 0.0
C70 C 0.58543 0.6957 1.00991 0.0
C71 C 0.56994 0.68159 0.02903 0.0
C72 C 0.57567 0.67986 0.06708 0.0
C73 C 0.59438 0.69332 0.06978 0.0
N74 N 0.6222 0.7423 0.01677 0.0
C75 C 0.61576 0.77279 0.01521 0.0
C76 C 0.60122 0.75557 1.00742 0.0
C77 C 0.60462 0.74067 1.00891 0.0
C78 C 0.63345 0.77439 0.02481 0.0
C79 C 0.63635 0.75921 0.02519 0.0
N80 N 0.63178 0.70031 1.01074 0.0
C81 C 0.62051 0.66936 0.99412 0.0
C82 C 0.63409 0.66833 0.01864 0.0
C83 C 0.64713 0.68379 0.03739 0.0
C84 C 0.64587 0.69964 0.03264 0.0
C85 C 0.61963 0.68547 0.99053 0.0
H86 H 0.65617 0.71113 0.0475 0.0
H87 H 0.60879 0.68554 0.97195 0.0
H88 H 0.59271 0.72804 1.00339 0.0
H89 H 0.65031 0.76174 0.03196 0.0
C90 C 0.66661 0.74479 0.06024 0.0
C91 C 0.60591 0.69569 0.10661 0.0
C92 C 0.65227 0.73623 0.91732 0.0
C93 C 0.5871 0.70026 0.96824 0.0
H94 H 0.63109 0.71346 0.17106 0.0
H95 H 0.66416 0.74076 0.14622 0.0
H96 H 0.70011 0.76282 1.00984 0.0
H97 H 0.69215 0.75757 0.93272 0.0
H98 H 0.62451 0.72536 0.85525 0.0
H99 H 0.5889 0.70642 0.88237 0.0
H100 H 0.55647 0.67273 0.01596 0.0
H101 H 0.56715 0.6692 0.08924 0.0
H102 H 0.58714 0.75352 1.00055 0.0
H103 H 0.64524 0.78744 0.031 0.0
H104 H 0.6106 0.6578 0.97805 0.0
H105 H 0.6585 0.68377 0.05503 0.0
C106 C 0.29673 0.90821 0.12191 0.0
C107 C 0.287 0.90746 0.15714 0.0
C108 C 0.26907 0.90411 0.14621 0.0
C109 C 0.26865 0.90282 0.10497 0.0
N110 N 0.28516 0.90505 0.08949 0.0
Co111 Co 0.29055 0.90521 0.03075 0.0
N112 N 0.27 0.91076 0.01308 0.0
C113 C 0.25556 0.9086 0.03744 0.0
C114 C 0.24348 0.91366 0.0184 0.0
C115 C 0.25059 0.91907 0.97951 0.0
C116 C 0.26661 0.91684 0.9764 0.0
N117 N 0.29626 0.90549 0.97199 0.0
C118 C 0.29079 0.91175 0.93833 0.0
C119 C 0.29774 0.90807 0.90364 0.0
C120 C 0.30779 0.89937 0.91588 0.0
C121 C 0.3064 0.89803 0.95731 0.0
N122 N 0.31134 0.90013 0.04876 0.0
C123 C 0.32015 0.89376 0.02506 0.0
C124 C 0.33554 0.89374 0.04316 0.0
C125 C 0.3365 0.90057 0.08042 0.0
C126 C 0.32138 0.90417 0.08377 0.0
N127 N 0.27232 0.87908 0.03047 0.0
C128 C 0.24288 0.84281 0.03247 0.0
C129 C 0.24553 0.85491 0.99951 0.0
C130 C 0.26014 0.87277 0.99911 0.0
C131 C 0.25575 0.84926 0.06415 0.0
C132 C 0.27045 0.86735 0.06238 0.0
N133 N 0.30804 0.93075 0.03125 0.0
C134 C 0.33763 0.95666 1.01161 0.0
C135 C 0.33256 0.96755 0.03369 0.0
C136 C 0.3155 0.95941 0.05622 0.0
C137 C 0.30317 0.94125 0.05322 0.0
C138 C 0.32524 0.93815 1.01136 0.0
H139 H 0.28962 0.93576 0.06865 0.0
H140 H 0.32937 0.9299 0.99451 0.0
H141 H 0.2611 0.88163 0.97369 0.0
H142 H 0.28003 0.87198 0.08726 0.0
C143 C 0.25543 0.90428 0.07914 0.0
C144 C 0.31654 0.91097 0.12059 0.0
C145 C 0.27735 0.91929 0.93762 0.0
C146 C 0.3167 0.89254 0.98346 0.0
H147 H 0.29237 0.90938 0.18745 0.0
H148 H 0.25813 0.90384 0.16577 0.0
H149 H 0.23128 0.91395 0.03153 0.0
H150 H 0.24454 0.92402 0.95624 0.0
H151 H 0.29548 0.91101 0.87262 0.0
H152 H 0.31557 0.89496 0.89679 0.0
H153 H 0.34582 0.89058 0.02964 0.0
H154 H 0.34762 0.90318 0.10159 0.0
H155 H 0.23591 0.85083 0.97452 0.0
H156 H 0.25446 0.84043 0.09015 0.0
H157 H 0.35064 0.96239 0.99354 0.0
H158 H 0.31124 0.96714 0.07488 0.0
C159 C 0.39473 0.10203 0.9045 0.0
C160 C 0.3853 0.10181 0.86929 0.0
C161 C 0.37041 0.10476 0.87984 0.0
C162 C 0.37154 0.1068 0.92084 0.0
N163 N 0.38628 0.10542 0.9365 0.0
Co164 Co 0.39216 0.10676 0.99496 0.0
N165 N 0.36589 0.10048 0.01294 0.0
C166 C 0.35319 0.10197 0.98871 0.0
C167 C 0.33626 0.09715 1.00857 0.0
C168 C 0.33853 0.09253 0.0478 0.0
C169 C 0.35678 0.09474 0.04999 0.0
N170 N 0.39816 0.10797 0.05357 0.0
C171 C 0.38665 0.10184 0.08757 0.0
C172 C 0.39751 0.10607 0.12194 0.0
C173 C 0.41621 0.11525 0.10909 0.0
C174 C 0.41588 0.11617 0.06763 0.0
N175 N 0.41819 0.11248 0.97657 0.0
C176 C 0.43357 0.11975 0.9997 0.0
C177 C 0.44908 0.11985 0.9819 0.0
C178 C 0.44307 0.11211 0.9455 0.0
C179 C 0.42416 0.10794 0.94221 0.0
N180 N 0.39904 0.1327 0.99262 0.0
C181 C 0.40516 0.16877 0.98856 0.0
C182 C 0.39592 0.1569 0.02199 0.0
C183 C 0.39301 0.13916 0.02341 0.0
C184 C 0.41156 0.16213 0.95721 0.0
C185 C 0.40851 0.14414 0.95999 0.0
N186 N 0.38508 0.08141 0.99742 0.0
C187 C 0.38907 0.05647 0.02369 0.0
C188 C 0.37224 0.04456 1.00555 0.0
C189 C 0.36291 0.05149 0.98071 0.0
C190 C 0.36923 0.06987 0.978 0.0
C191 C 0.39541 0.07501 0.01878 0.0
H192 H 0.3609 0.07463 0.96112 0.0
H193 H 0.40822 0.08408 0.0334 0.0
H194 H 0.38536 0.13054 0.04932 0.0
H195 H 0.41351 0.13938 0.93546 0.0
C196 C 0.35693 0.10553 0.9467 0.0
C197 C 0.41227 0.10007 0.90607 0.0
C198 C 0.36556 0.09322 0.08858 0.0
C199 C 0.43156 0.12163 0.04107 0.0
H200 H 0.38868 0.09957 0.83922 0.0
H201 H 0.35942 0.10434 0.86027 0.0
H202 H 0.32359 0.09666 0.9959 0.0
H203 H 0.3281 0.08839 0.07223 0.0
H204 H 0.39246 0.10292 0.15307 0.0
H205 H 0.42857 0.12008 0.12781 0.0
H206 H 0.46269 0.1236 0.99527 0.0
H207 H 0.45163 0.10924 0.92505 0.0
H208 H 0.39035 0.16108 0.04672 0.0
H209 H 0.4189 0.17076 0.93079 0.0
H210 H 0.39671 0.05154 0.04295 0.0
H211 H 0.35015 0.0427 0.96514 0.0
C212 C 0.92178 0.29934 0.91832 0.0
C213 C 0.9266 0.29316 0.88451 0.0
C214 C 0.92981 0.27924 0.89771 0.0
C215 C 0.92645 0.27738 0.93867 0.0
N216 N 0.92077 0.28892 0.95229 0.0
Co217 Co 0.91465 0.29037 1.01048 0.0
N218 N 0.9253 0.27425 0.03156 0.0
C219 C 0.9327 0.26633 1.00813 0.0
C220 C 0.94031 0.25716 0.02968 0.0
C221 C 0.93777 0.25941 0.06934 0.0
C222 C 0.92842 0.26967 0.07009 0.0
N223 N 0.90834 0.29161 0.06872 0.0
C224 C 0.91218 0.28494 0.10411 0.0
C225 C 0.90428 0.28876 0.13705 0.0
C226 C 0.89555 0.29829 0.12231 0.0
C227 C 0.89835 0.29968 0.0812 0.0
N228 N 0.90533 0.30753 0.98918 0.0
C229 C 0.89721 0.31489 0.01231 0.0
C230 C 0.89564 0.32879 0.99273 0.0
C231 C 0.90363 0.33077 0.95514 0.0
C232 C 0.90937 0.31765 0.95308 0.0
N233 N 0.88877 0.26873 1.00578 0.0
C234 C 0.85232 0.23755 1.00508 0.0
C235 C 0.85439 0.25435 0.0148 0.0
C236 C 0.87247 0.26961 0.01439 0.0
C237 C 0.86878 0.23676 0.99464 0.0
C238 C 0.88661 0.25226 0.99543 0.0
N239 N 0.93966 0.31159 0.01493 0.0
C240 C 0.95805 0.34296 0.03003 0.0
C241 C 0.97299 0.34455 1.00573 0.0
C242 C 0.97153 0.32911 0.98856 0.0
C243 C 0.95492 0.31279 0.994 0.0
C244 C 0.94156 0.32635 0.03435 0.0
H245 H 0.95444 0.30137 0.98017 0.0
H246 H 0.93035 0.32587 0.05258 0.0
H247 H 0.87275 0.28189 0.02139 0.0
H248 H 0.89838 0.25035 0.98801 0.0
C249 C 0.93229 0.26785 0.96584 0.0
C250 C 0.91917 0.31567 0.91679 0.0
C251 C 0.92292 0.27469 0.10826 0.0
C252 C 0.89403 0.3104 0.05398 0.0
H253 H 0.92838 0.29857 0.85363 0.0
H254 H 0.93521 0.27217 0.87989 0.0
H255 H 0.94715 0.24988 0.01793 0.0
H256 H 0.94247 0.25419 0.09475 0.0
H257 H 0.90487 0.28515 0.16857 0.0
H258 H 0.88847 0.30401 0.13967 0.0
H259 H 0.8906 0.3374 1.0053 0.0
H260 H 0.90582 0.34142 0.93294 0.0
H261 H 0.84205 0.25578 0.02244 0.0
H262 H 0.86799 0.22406 0.98697 0.0
H263 H 0.959 0.35447 0.04515 0.0
H264 H 0.98327 0.32957 0.9714 0.0
C265 C 0.72108 0.62837 0.92432 0.0
C266 C 0.72757 0.63887 0.88846 0.0
C267 C 0.74325 0.65475 0.89746 0.0
C268 C 0.74571 0.65313 0.93816 0.0
N269 N 0.73261 0.6372 0.95527 0.0
Co270 Co 0.73176 0.62986 0.01364 0.0
N271 N 0.74719 0.65526 0.0302 0.0
C272 C 0.75831 0.66927 1.00454 0.0
C273 C 0.768 0.68522 0.02346 0.0
C274 C 0.76285 0.68097 0.06365 0.0
C275 C 0.75018 0.66258 0.06728 0.0
N276 N 0.73078 0.62252 0.0722 0.0
C277 C 0.73507 0.63232 0.10614 0.0
C278 C 0.73193 0.62105 0.14044 0.0
C279 C 0.72601 0.60395 0.12761 0.0
C280 C 0.72568 0.60554 0.08624 0.0
N281 N 0.71604 0.60461 0.99652 0.0
C282 C 0.71234 0.5897 0.01972 0.0
C283 C 0.69898 0.57415 1.00345 0.0
C284 C 0.69397 0.57957 0.96787 0.0
C285 C 0.70487 0.59827 0.96339 0.0
N286 N 0.75528 0.62814 1.00615 0.0
C287 C 0.79001 0.62764 0.99442 0.0
C288 C 0.78631 0.63443 0.02925 0.0
C289 C 0.76911 0.63467 0.03434 0.0
C290 C 0.77551 0.62066 0.96601 0.0
C291 C 0.7583 0.62093 0.97254 0.0
N292 N 0.7087 0.63149 0.02091 0.0
C293 C 0.67585 0.61771 0.04175 0.0
C294 C 0.67426 0.63166 0.02087 0.0
C295 C 0.69032 0.64592 1.00171 0.0
C296 C 0.70746 0.64568 1.00249 0.0
C297 C 0.69328 0.61781 0.04114 0.0
H298 H 0.71961 0.65675 0.98731 0.0
H299 H 0.69413 0.60665 0.05625 0.0
H300 H 0.76715 0.64037 0.06118 0.0
H301 H 0.74753 0.61556 0.95003 0.0
C302 C 0.75744 0.66724 0.96258 0.0
C303 C 0.70479 0.60963 0.92712 0.0
C304 C 0.74329 0.65235 0.1069 0.0
C305 C 0.71773 0.59118 0.06028 0.0
H306 H 0.72164 0.63544 0.85883 0.0
H307 H 0.75133 0.66639 0.87702 0.0
H308 H 0.77748 0.69845 1.00965 0.0
H309 H 0.76822 0.69027 0.08767 0.0
H310 H 0.73371 0.62473 0.17157 0.0
H311 H 0.72176 0.5917 0.14638 0.0
H312 H 0.69241 0.56058 0.01741 0.0
H313 H 0.68287 0.57063 0.94884 0.0
H314 H 0.79662 0.63956 0.05281 0.0
H315 H 0.77751 0.61537 0.93837 0.0
H316 H 0.66373 0.60678 0.0578 0.0
H317 H 0.68966 0.6573 0.98661 0.0
C318 C 0.87801 0.64717 0.94213 0.0
C319 C 0.87335 0.65774 0.91608 0.0
C320 C 0.89003 0.67056 0.89769 0.0
C321 C 0.90387 0.66704 0.91337 0.0
N322 N 0.8969 0.65278 0.94024 0.0
Co323 Co 0.9118 0.64318 0.97042 0.0
N324 N 0.93583 0.66629 0.96084 0.0
C325 C 0.93857 0.67957 0.93301 0.0
C326 C 0.95659 0.69392 0.93275 0.0
C327 C 0.96592 0.68926 0.96164 0.0
C328 C 0.95306 0.67217 0.97781 0.0
N329 N 0.92666 0.63335 1.0004 0.0
C330 C 0.94485 0.64179 0.01305 0.0
C331 C 0.94975 0.62936 0.03069 0.0
C332 C 0.93424 0.6126 0.02832 0.0
C333 C 0.92074 0.61567 1.00944 0.0
N334 N 0.88756 0.62028 0.9799 0.0
C335 C 0.88589 0.60401 0.99097 0.0
C336 C 0.86732 0.59099 0.99782 0.0
C337 C 0.85671 0.59965 0.99062 0.0
C338 C 0.86942 0.61752 0.9794 0.0
N339 N 0.91679 0.63426 0.92078 0.0
C340 C 0.92401 0.61709 0.85821 0.0
C341 C 0.90559 0.61439 0.86571 0.0
C342 C 0.90233 0.62338 0.89679 0.0
C343 C 0.93879 0.62923 0.88109 0.0
C344 C 0.93488 0.63752 0.91219 0.0
N345 N 0.90708 0.65184 0.02033 0.0
C346 C 0.89952 0.64668 0.09145 0.0
C347 C 0.90401 0.66476 0.09431 0.0
C348 C 0.90913 0.67608 0.05906 0.0
C349 C 0.91035 0.66927 0.0222 0.0
C350 C 0.90129 0.64054 0.05432 0.0
H351 H 0.91456 0.67824 0.99549 0.0
H352 H 0.89862 0.62678 0.05351 0.0
H353 H 0.88803 0.62099 0.90244 0.0
H354 H 0.94657 0.6459 0.93037 0.0
C355 C 0.92341 0.67888 0.91071 0.0
C356 C 0.86415 0.63157 0.96719 0.0
C357 C 0.95857 0.66101 1.00431 0.0
C358 C 0.90188 0.60262 1.0033 0.0
H359 H 0.85941 0.65645 0.91129 0.0
H360 H 0.89194 0.68172 0.87718 0.0
H361 H 0.96225 0.70635 0.91406 0.0
H362 H 0.98072 0.69726 0.96891 0.0
H363 H 0.96332 0.63206 0.04288 0.0
H364 H 0.93295 0.59974 0.03931 0.0
H365 H 0.86215 0.57715 1.00925 0.0
H366 H 0.84145 0.5935 0.99405 0.0
H367 H 0.89381 0.6052 0.84819 0.0
H368 H 0.95319 0.6316 0.87647 0.0
H369 H 0.89576 0.63758 0.11812 0.0
H370 H 0.91266 0.69017 0.06021 0.0
C371 C 0.41628 0.31523 0.94904 0.0
C372 C 0.43454 0.32922 0.9545 0.0
C373 C 0.44007 0.32589 0.99165 0.0
C374 C 0.42486 0.3104 1.0074 0.0
N375 N 0.41013 0.30382 0.98232 0.0
Co376 Co 0.38459 0.28336 0.99501 0.0
N377 N 0.38878 0.28565 0.0536 0.0
C378 C 0.40572 0.29364 0.07135 0.0
C379 C 0.40414 0.29273 0.11271 0.0
C380 C 0.38501 0.28349 0.12138 0.0
C381 C 0.37598 0.27932 0.08459 0.0
N382 N 0.35911 0.26286 1.00777 0.0
C383 C 0.34872 0.25835 0.04268 0.0
C384 C 0.33147 0.24286 0.03875 0.0
C385 C 0.33132 0.23753 1.00006 0.0
C386 C 0.34842 0.25003 0.98246 0.0
N387 N 0.38074 0.28139 0.93634 0.0
C388 C 0.36804 0.26669 0.91803 0.0
C389 C 0.36848 0.26974 0.8768 0.0
C390 C 0.38229 0.28744 0.86912 0.0
C391 C 0.38947 0.29426 0.90621 0.0
N392 N 0.3947 0.26602 0.99483 0.0
C393 C 0.40343 0.2373 0.99048 0.0
C394 C 0.4097 0.25129 0.96005 0.0
C395 C 0.40541 0.26563 0.96305 0.0
C396 C 0.3933 0.23849 0.02362 0.0
C397 C 0.38908 0.25276 0.02516 0.0
N398 N 0.37369 0.29993 0.99509 0.0
C399 C 0.348 0.30574 0.97603 0.0
C400 C 0.35521 0.32115 0.99872 0.0
C401 C 0.37226 0.32591 0.01902 0.0
C402 C 0.38133 0.31518 0.01663 0.0
C403 C 0.35734 0.29542 0.97467 0.0
H404 H 0.39429 0.31901 0.03273 0.0
H405 H 0.35092 0.28343 0.95776 0.0
H406 H 0.41022 0.27608 0.93902 0.0
H407 H 0.38051 0.25254 0.0504 0.0
C408 C 0.42223 0.3046 0.04829 0.0
C409 C 0.40521 0.31257 0.91203 0.0
C410 C 0.3555 0.26796 0.08016 0.0
C411 C 0.35353 0.25213 0.94107 0.0
H412 H 0.44297 0.34097 0.93476 0.0
H413 H 0.45304 0.33458 1.00663 0.0
H414 H 0.41546 0.29867 0.13398 0.0
H415 H 0.37849 0.28005 0.15134 0.0
H416 H 0.32021 0.23613 0.06139 0.0
H417 H 0.31979 0.22632 0.98601 0.0
H418 H 0.3592 0.26058 0.8551 0.0
H419 H 0.3865 0.29453 0.83975 0.0
H420 H 0.41776 0.25114 0.93402 0.0
H421 H 0.38789 0.22801 0.04772 0.0
H422 H 0.33475 0.30119 0.96045 0.0
H423 H 0.37851 0.33776 0.03675 0.0
C424 C 0.70282 0.11001 0.96691 0.0
C425 C 0.68858 0.11493 0.96589 0.0
C426 C 0.68848 0.12171 1.00269 0.0
C427 C 0.70254 0.12046 0.024 0.0
N428 N 0.71142 0.11337 1.00275 0.0
Co429 Co 0.73215 0.10876 0.02127 0.0
N430 N 0.72483 0.1084 0.07831 0.0
C431 C 0.71437 0.11569 0.09234 0.0
C432 C 0.71208 0.11379 0.1336 0.0
C433 C 0.72186 0.10492 0.14625 0.0
C434 C 0.7296 0.1019 0.11177 0.0
N435 N 0.75314 0.1045 0.03983 0.0
C436 C 0.75576 0.09857 0.07669 0.0
C437 C 0.77267 0.09778 0.07705 0.0
C438 C 0.78094 0.10376 0.03914 0.0
C439 C 0.76865 0.10779 0.01768 0.0
N440 N 0.73908 0.10913 0.96398 0.0
C441 C 0.75593 0.11195 0.94914 0.0
C442 C 0.7556 0.11009 0.90803 0.0
C443 C 0.73742 0.10582 0.89684 0.0
C444 C 0.7277 0.1053 0.93183 0.0
N445 N 0.74954 0.13504 0.02174 0.0
C446 C 0.78021 0.17055 0.0163 0.0
C447 C 0.76754 0.16377 0.9845 0.0
C448 C 0.75213 0.14614 0.9881 0.0
C449 C 0.77638 0.15955 0.0518 0.0
C450 C 0.76114 0.14192 0.05383 0.0
N451 N 0.71553 0.08233 0.02022 0.0
C452 C 0.71184 0.0538 0.99931 0.0
C453 C 0.69372 0.04422 0.01766 0.0
C454 C 0.68654 0.05447 0.03655 0.0
C455 C 0.69762 0.07351 0.0373 0.0
C456 C 0.72246 0.07247 1.00159 0.0
H457 H 0.69185 0.08107 0.05198 0.0
H458 H 0.73647 0.0789 0.988 0.0
H459 H 0.74287 0.14117 0.96282 0.0
H460 H 0.75946 0.13356 0.08074 0.0
C461 C 0.70481 0.12179 0.06576 0.0
C462 C 0.70811 0.10218 0.9341 0.0
C463 C 0.74314 0.09485 0.11219 0.0
C464 C 0.76957 0.1118 0.97567 0.0
H465 H 0.67904 0.11354 0.94167 0.0
H466 H 0.67854 0.12594 0.01343 0.0
H467 H 0.70392 0.11795 0.15222 0.0
H468 H 0.72347 0.10149 0.17735 0.0
H469 H 0.77848 0.09347 0.10207 0.0
H470 H 0.79401 0.10446 0.02823 0.0
H471 H 0.76681 0.11063 0.88888 0.0
H472 H 0.73188 0.10326 0.8667 0.0
H473 H 0.76974 0.1719 0.95673 0.0
H474 H 0.78574 0.16415 0.07715 0.0
H475 H 0.71802 0.04701 0.98287 0.0
H476 H 0.67265 0.04789 0.0513 0.0
C477 C 0.59681 0.90167 0.05495 0.0
C478 C 0.57827 0.89873 0.05775 0.0
C479 C 0.57044 0.8931 0.02092 0.0
C480 C 0.5846 0.89297 0.99784 0.0
N481 N 0.60073 0.89803 0.01807 0.0
Co482 Co 0.62488 0.90047 0.99678 0.0
N483 N 0.61763 0.90223 0.94026 0.0
C484 C 0.60032 0.89903 0.92803 0.0
C485 C 0.60076 0.9061 0.88975 0.0
C486 C 0.61934 0.91379 0.87694 0.0
C487 C 0.62917 0.91008 0.9073 0.0
N488 N 0.64877 0.90217 0.97578 0.0
C489 C 0.65561 0.9051 0.93721 0.0
C490 C 0.66945 0.89965 0.93402 0.0
C491 C 0.67187 0.89404 0.97198 0.0
C492 C 0.65904 0.89573 0.99619 0.0
N493 N 0.63216 0.89921 0.05334 0.0
C494 C 0.64509 0.89447 0.06636 0.0
C495 C 0.64737 0.89563 0.10745 0.0
C496 C 0.63505 0.90148 0.12074 0.0
C497 C 0.62599 0.90352 0.08685 0.0
N498 N 0.61337 0.87389 0.99542 0.0
C499 C 0.60794 0.83826 1.00114 0.0
C500 C 0.6032 0.84554 0.0337 0.0
C501 C 0.60562 0.86319 0.02995 0.0
C502 C 0.61355 0.84859 0.96443 0.0
C503 C 0.61612 0.86628 0.96217 0.0
N504 N 0.6369 0.92704 0.99885 0.0
C505 C 0.6629 0.95469 0.0208 0.0
C506 C 0.65417 0.96495 1.00711 0.0
C507 C 0.63634 0.95547 0.98925 0.0
C508 C 0.62793 0.93661 0.98577 0.0
C509 C 0.65431 0.93607 0.01571 0.0
H510 H 0.61412 0.92977 0.97262 0.0
H511 H 0.66169 0.92888 0.02627 0.0
H512 H 0.60246 0.86861 0.05599 0.0
H513 H 0.62167 0.87418 0.93418 0.0
C514 C 0.58517 0.89355 0.95573 0.0
C515 C 0.61064 0.90821 0.087 0.0
C516 C 0.64837 0.91176 0.90279 0.0
C517 C 0.65673 0.89215 0.03829 0.0
H518 H 0.57132 0.901 0.08308 0.0
H519 H 0.55664 0.89091 1.01119 0.0
H520 H 0.58928 0.90688 0.8742 0.0
H521 H 0.62481 0.92154 0.84867 0.0
H522 H 0.6767 0.89914 0.90702 0.0
H523 H 0.6816 0.88903 0.98067 0.0
H524 H 0.65733 0.89325 0.12537 0.0
H525 H 0.63287 0.90386 0.15161 0.0
H526 H 0.59826 0.83787 0.06234 0.0
H527 H 0.61718 0.84352 0.93826 0.0
H528 H 0.67629 0.96082 0.036 0.0
H529 H 0.6289 0.96248 0.97754 0.0
C530 C 0.10699 0.69688 0.07293 0.0
C531 C 0.11091 0.68267 0.06804 0.0
C532 C 0.11951 0.68554 0.03071 0.0
C533 C 0.12 0.70101 0.01434 0.0
N534 N 0.11219 0.70799 0.03918 0.0
Co535 Co 0.10757 0.72864 0.02581 0.0
N536 N 0.10917 0.72586 0.96736 0.0
C537 C 0.11778 0.71752 0.9499 0.0
C538 C 0.11697 0.71815 0.90854 0.0
C539 C 0.10734 0.72759 0.89958 0.0
C540 C 0.10276 0.73214 0.9362 0.0
N541 N 0.10305 0.74933 0.01232 0.0
C542 C 0.09716 0.7537 0.97731 0.0
C543 C 0.09574 0.76938 0.98064 0.0
C544 C 0.10119 0.77498 0.01908 0.0
C545 C 0.10557 0.76244 0.03711 0.0
N546 N 0.10602 0.73113 0.08434 0.0
C547 C 0.10843 0.74608 0.10206 0.0
C548 C 0.10607 0.74341 0.14338 0.0
C549 C 0.10193 0.7257 0.15177 0.0
C550 C 0.1019 0.7185 0.11498 0.0
N551 N 0.13514 0.74563 0.02536 0.0
C552 C 0.17275 0.77415 0.02932 0.0
C553 C 0.16495 0.76024 0.0599 0.0
C554 C 0.14624 0.746 0.05711 0.0
C555 C 0.16146 0.77292 0.99609 0.0
C556 C 0.14289 0.75874 0.99474 0.0
N557 N 0.07999 0.71242 0.02633 0.0
C558 C 0.04871 0.7073 0.04547 0.0
C559 C 0.04015 0.69179 0.02319 0.0
C560 C 0.05212 0.6866 1.0031 0.0
C561 C 0.07199 0.69703 1.00526 0.0
C562 C 0.06843 0.71732 0.0466 0.0
H563 H 0.08089 0.69289 0.9893 0.0
H564 H 0.07431 0.72943 0.06316 0.0
H565 H 0.14052 0.73564 0.08131 0.0
H566 H 0.13454 0.75893 0.96947 0.0
C567 C 0.12311 0.7065 0.97329 0.0
C568 C 0.09903 0.70006 0.10992 0.0
C569 C 0.09396 0.74375 0.94026 0.0
C570 C 0.1087 0.76059 0.07851 0.0
H571 H 0.10755 0.67108 0.08835 0.0
H572 H 0.12353 0.6766 0.0161 0.0
H573 H 0.12208 0.71191 0.8875 0.0
H574 H 0.10424 0.7309 0.86953 0.0
H575 H 0.09128 0.77606 0.9578 0.0
H576 H 0.10117 0.7864 0.03268 0.0
H577 H 0.10631 0.75285 0.16471 0.0
H578 H 0.09916 0.71887 0.18141 0.0
H579 H 0.17316 0.76042 0.08597 0.0
H580 H 0.1666 0.78334 0.97186 0.0
H581 H 0.04026 0.71215 0.06089 0.0
H582 H 0.04622 0.67463 0.98572 0.0
C583 C 0.23425 0.36026 0.08035 0.0
C584 C 0.21829 0.34821 0.10313 0.0
C585 C 0.22193 0.33477 0.11839 0.0
C586 C 0.23987 0.33941 0.10431 0.0
N587 N 0.24776 0.35496 0.08136 0.0
Co588 Co 0.27337 0.36657 0.05522 0.0
N589 N 0.27472 0.34355 0.05927 0.0
C590 C 0.26346 0.32884 0.08317 0.0
C591 C 0.26768 0.31495 0.08028 0.0
C592 C 0.28277 0.32141 0.05348 0.0
C593 C 0.28703 0.33902 0.04162 0.0
N594 N 0.29918 0.37838 0.02943 0.0
C595 C 0.30986 0.37109 0.01565 0.0
C596 C 0.32768 0.38457 1.00236 0.0
C597 C 0.32825 0.40079 1.00873 0.0
C598 C 0.31082 0.39637 0.02549 0.0
N599 N 0.27157 0.38937 0.05117 0.0
C600 C 0.28621 0.40616 0.04495 0.0
C601 C 0.28042 0.41909 0.04076 0.0
C602 C 0.26096 0.40982 0.04462 0.0
C603 C 0.2559 0.39167 0.05138 0.0
N604 N 0.28527 0.37293 0.1079 0.0
C605 C 0.30906 0.38957 0.1717 0.0
C606 C 0.29298 0.39172 0.16476 0.0
C607 C 0.28098 0.38292 0.13316 0.0
C608 C 0.312 0.37772 0.14847 0.0
C609 C 0.30007 0.36966 0.11674 0.0
N610 N 0.26216 0.36065 1.00222 0.0
C611 C 0.26218 0.37014 0.93278 0.0
C612 C 0.24967 0.35234 0.92337 0.0
C613 C 0.2426 0.33894 0.95507 0.0
C614 C 0.24886 0.34344 0.99439 0.0
C615 C 0.26847 0.37391 0.97193 0.0
H616 H 0.24344 0.3329 0.01816 0.0
H617 H 0.2789 0.38756 0.9773 0.0
H618 H 0.26894 0.3851 0.12766 0.0
H619 H 0.30384 0.36183 0.09784 0.0
C620 C 0.24797 0.32793 0.10464 0.0
C621 C 0.23637 0.37689 0.05933 0.0
C622 C 0.30453 0.35174 0.01901 0.0
C623 C 0.30424 0.4086 0.03425 0.0
H624 H 0.20534 0.34896 0.10783 0.0
H625 H 0.21222 0.3226 0.13578 0.0
H626 H 0.26056 0.30166 0.09558 0.0
H627 H 0.29024 0.31421 0.04486 0.0
H628 H 0.33923 0.38284 0.99037 0.0
H629 H 0.33994 0.41418 1.00169 0.0
H630 H 0.28917 0.43339 0.03318 0.0
H631 H 0.25169 0.4158 0.04195 0.0
H632 H 0.29007 0.40057 0.18272 0.0
H633 H 0.32426 0.37569 0.15284 0.0
H634 H 0.26759 0.38112 0.90985 0.0
H635 H 0.23293 0.32496 0.94947 0.0
C636 C 0.76555 0.71761 0.44196 0.0
C637 C 0.76194 0.70764 0.47848 0.0
C638 C 0.76187 0.69174 0.47056 0.0
C639 C 0.76563 0.69283 0.42979 0.0
N640 N 0.76814 0.70845 0.41163 0.0
Co641 Co 0.77397 0.71497 0.35279 0.0
N642 N 0.76425 0.68935 0.33802 0.0
C643 C 0.7614 0.67569 0.3647 0.0
C644 C 0.75458 0.65938 0.34715 0.0
C645 C 0.75331 0.66301 0.30678 0.0
C646 C 0.75965 0.68148 0.30153 0.0
N647 N 0.77974 0.72154 0.29385 0.0
C648 C 0.77411 0.71125 0.26069 0.0
C649 C 0.78247 0.72195 0.22577 0.0
C650 C 0.79358 0.7393 0.23736 0.0
C651 C 0.79157 0.73836 0.27869 0.0
N652 N 0.78322 0.74044 0.36802 0.0
C653 C 0.79415 0.7551 0.34382 0.0
C654 C 0.79632 0.77081 0.3591 0.0
C655 C 0.78619 0.76575 0.39511 0.0
C656 C 0.77857 0.74711 0.40077 0.0
N657 N 0.79954 0.71733 0.35975 0.0
C658 C 0.83527 0.71878 0.37088 0.0
C659 C 0.82817 0.72667 0.39788 0.0
C660 C 0.81037 0.72579 0.39182 0.0
C661 C 0.82402 0.71043 0.33789 0.0
C662 C 0.80645 0.70995 0.3328 0.0
N663 N 0.74897 0.71269 0.34597 0.0
C664 C 0.72902 0.72503 0.32219 0.0
C665 C 0.71363 0.71104 0.34353 0.0
C666 C 0.71605 0.69764 0.36503 0.0
C667 C 0.73378 0.69859 0.36547 0.0
C668 C 0.7467 0.7257 0.32413 0.0
H669 H 0.73526 0.68806 0.38205 0.0
H670 H 0.75855 0.73685 0.3084 0.0
H671 H 0.80527 0.73182 0.41334 0.0
H672 H 0.79834 0.70328 0.30715 0.0
C673 C 0.76296 0.67835 0.40639 0.0
C674 C 0.76757 0.73615 0.43786 0.0
C675 C 0.7626 0.69119 0.26123 0.0
C676 C 0.79797 0.75312 0.30352 0.0
H677 H 0.75955 0.7114 0.50781 0.0
H678 H 0.75853 0.68038 0.49173 0.0
H679 H 0.7505 0.64628 0.36205 0.0
H680 H 0.74843 0.65314 0.28391 0.0
H681 H 0.78095 0.71763 0.19515 0.0
H682 H 0.80174 0.75126 0.2178 0.0
H683 H 0.80317 0.78422 0.34435 0.0
H684 H 0.78417 0.77487 0.41379 0.0
H685 H 0.83628 0.73355 0.42357 0.0
H686 H 0.82845 0.70381 0.31639 0.0
H687 H 0.72739 0.73533 0.30449 0.0
H688 H 0.70419 0.68625 0.38069 0.0
C689 C 0.29653 0.04817 0.43656 0.0
C690 C 0.30699 0.05513 0.47076 0.0
C691 C 0.32321 0.07056 0.4582 0.0
C692 C 0.32179 0.07241 0.41714 0.0
N693 N 0.30563 0.0592 0.40313 0.0
Co694 Co 0.29857 0.05731 0.34514 0.0
N695 N 0.32527 0.07315 0.32471 0.0
C696 C 0.3395 0.08406 0.34807 0.0
C697 C 0.35652 0.09347 0.32724 0.0
C698 C 0.35276 0.08847 0.28811 0.0
C699 C 0.33348 0.07641 0.28677 0.0
N700 N 0.29142 0.0553 0.28705 0.0
C701 C 0.30216 0.06017 0.25185 0.0
C702 C 0.29061 0.05702 0.21873 0.0
C703 C 0.27232 0.05015 0.23348 0.0
C704 C 0.27355 0.0495 0.27478 0.0
N705 N 0.2721 0.0412 0.36631 0.0
C706 C 0.25649 0.0366 0.34442 0.0
C707 C 0.2404 0.0233 0.3638 0.0
C708 C 0.24623 0.01928 0.40003 0.0
C709 C 0.26567 0.03064 0.40171 0.0
N710 N 0.29483 0.0788 0.34725 0.0
C711 C 0.28868 0.10917 0.34704 0.0
C712 C 0.29855 0.1067 0.31519 0.0
C713 C 0.30148 0.09162 0.31591 0.0
C714 C 0.28225 0.09617 0.3796 0.0
C715 C 0.28538 0.08107 0.37903 0.0
N716 N 0.30194 0.03611 0.34292 0.0
C717 C 0.28846 1.00451 0.33111 0.0
C718 C 0.30291 1.00371 0.35299 0.0
C719 C 0.3174 0.01957 0.3679 0.0
C720 C 0.31676 0.03569 0.36213 0.0
C721 C 0.28823 0.02089 0.32645 0.0
H722 H 0.32791 0.0477 0.3743 0.0
H723 H 0.2766 0.02106 0.31069 0.0
H724 H 0.3091 0.09039 0.29063 0.0
H725 H 0.28003 0.07114 0.40413 0.0
C726 C 0.33674 0.08356 0.39007 0.0
C727 C 0.27763 0.03159 0.43744 0.0
C728 C 0.3233 0.06979 0.24843 0.0
C729 C 0.25823 0.04142 0.30283 0.0
H730 H 0.30338 0.04959 0.50156 0.0
H731 H 0.33509 0.07884 0.47659 0.0
H732 H 0.37016 0.10261 0.3392 0.0
H733 H 0.36308 0.09342 0.26338 0.0
H734 H 0.29498 0.05983 0.18718 0.0
H735 H 0.25961 0.04586 0.21605 0.0
H736 H 0.22633 0.0162 0.35163 0.0
H737 H 0.23711 0.00856 0.42144 0.0
H738 H 0.3042 0.11648 0.28975 0.0
H739 H 0.27453 0.09743 0.40495 0.0
H740 H 0.27735 0.99256 0.31824 0.0
H741 H 0.32928 0.01957 0.38348 0.0
C742 C 0.96234 0.24082 0.45095 0.0
C743 C 0.95277 0.24012 0.48638 0.0
C744 C 0.93471 0.23654 0.47592 0.0
C745 C 0.93404 0.23508 0.43471 0.0
N746 N 0.95054 0.2374 0.41887 0.0
Co747 Co 0.95569 0.23749 0.3601 0.0
N748 N 0.93509 0.24302 0.34302 0.0
C749 C 0.92052 0.24052 0.36741 0.0
C750 C 0.90795 0.24487 0.34811 0.0
C751 C 0.91494 0.25024 0.30907 0.0
C752 C 0.93149 0.24892 0.30641 0.0
N753 N 0.96112 0.23764 0.30123 0.0
C754 C 0.95546 0.24382 0.26779 0.0
C755 C 0.96272 0.24065 0.2329 0.0
C756 C 0.9729 0.23204 0.24479 0.0
C757 C 0.97141 0.2304 0.28622 0.0
N758 N 0.97658 0.23249 0.3776 0.0
C759 C 0.98539 0.2262 0.35367 0.0
C760 C 1.00099 0.22645 0.37132 0.0
C761 C 1.00213 0.23341 0.40847 0.0
C762 C 0.98688 0.23681 0.41225 0.0
N763 N 0.9374 0.2113 0.36008 0.0
C764 C 0.90791 0.17496 0.36226 0.0
C765 C 0.91049 0.18708 0.32938 0.0
C766 C 0.92511 0.20496 0.3289 0.0
C767 C 0.92085 0.18145 0.39383 0.0
C768 C 0.93557 0.19957 0.39197 0.0
N769 N 0.97318 0.26309 0.36034 0.0
C770 C 1.0027 0.2891 0.34056 0.0
C771 C 0.99782 0.29991 0.36348 0.0
C772 C 0.98084 0.29164 0.38632 0.0
C773 C 0.96842 0.27352 0.38282 0.0
C774 C 0.99028 0.27058 0.34003 0.0
H775 H 0.95491 0.268 0.39846 0.0
H776 H 0.99433 0.2624 0.32271 0.0
H777 H 0.92599 0.2138 0.30351 0.0
H778 H 0.94521 0.20421 0.41676 0.0
C779 C 0.92056 0.23626 0.40913 0.0
C780 C 0.98223 0.24378 0.44904 0.0
C781 C 0.94208 0.25139 0.26766 0.0
C782 C 0.98187 0.22501 0.31212 0.0
H783 H 0.95834 0.24222 0.51653 0.0
H784 H 0.92383 0.23624 0.49573 0.0
H785 H 0.89537 0.24451 0.36101 0.0
H786 H 0.90838 0.25427 0.28503 0.0
H787 H 0.96077 0.24408 0.20203 0.0
H788 H 0.98096 0.22801 0.22551 0.0
H789 H 0.01134 0.22346 0.35748 0.0
H790 H 0.0135 0.23632 0.42915 0.0
H791 H 0.90083 0.183 0.30447 0.0
H792 H 0.91963 0.17263 0.41979 0.0
H793 H 0.01561 0.29487 0.32216 0.0
H794 H 0.97669 0.29919 0.40577 0.0
C795 C 0.05651 0.43286 0.23083 0.0
C796 C 0.04504 0.4302 0.19769 0.0
C797 C 0.03036 0.43317 0.20951 0.0
C798 C 0.03321 0.43715 0.24942 0.0
N799 N 0.04885 0.43689 0.26332 0.0
Co800 Co 0.05599 0.4389 0.32125 0.0
N801 N 0.02998 0.43227 0.34183 0.0
C802 C 0.01655 0.43315 0.31901 0.0
C803 C 0.99999 0.42821 0.34053 0.0
C804 C 1.00329 0.42418 0.37942 0.0
C805 C 0.02174 0.42681 0.37969 0.0
N806 N 0.06334 0.44082 0.37905 0.0
C807 C 0.05259 0.43485 0.41413 0.0
C808 C 0.06422 0.43971 0.4473 0.0
C809 C 0.08263 0.44917 0.43257 0.0
C810 C 0.08138 0.44959 0.39122 0.0
N811 N 0.08171 0.44501 0.30049 0.0
C812 C 0.0977 0.45353 0.32132 0.0
C813 C 0.11341 0.4555 0.30026 0.0
C814 C 0.10681 0.44759 0.26416 0.0
C815 C 0.08731 0.44099 0.26508 0.0
N816 N 0.06233 0.46471 0.31842 0.0
C817 C 0.06862 0.50081 0.31499 0.0
C818 C 0.05979 0.48902 0.34875 0.0
C819 C 0.05681 0.47126 0.34985 0.0
C820 C 0.07436 0.49404 0.28281 0.0
C821 C 0.07122 0.47602 0.28524 0.0
N822 N 0.04948 0.41366 0.32435 0.0
C823 C 0.05448 0.38928 0.3506 0.0
C824 C 0.03721 0.37693 0.33468 0.0
C825 C 0.02714 0.38335 0.3107 0.0
C826 C 0.03321 0.40166 0.30688 0.0
C827 C 0.06051 0.40775 0.3446 0.0
H828 H 0.02433 0.40601 0.29088 0.0
H829 H 0.07366 0.4172 0.35758 0.0
H830 H 0.04961 0.46273 0.3762 0.0
H831 H 0.07576 0.47116 0.26014 0.0
C832 C 0.01917 0.43597 0.27678 0.0
C833 C 0.07476 0.43195 0.23084 0.0
C834 C 0.03149 0.42593 0.41723 0.0
C835 C 0.09659 0.45561 0.36297 0.0
H836 H 0.04635 0.42579 0.16844 0.0
H837 H 0.01814 0.43103 0.19199 0.0
H838 H 0.98689 0.4272 0.32914 0.0
H839 H 0.99338 0.42008 0.40484 0.0
H840 H 0.05988 0.43689 0.47887 0.0
H841 H 0.09542 0.45461 0.44999 0.0
H842 H 0.1278 0.46109 0.31075 0.0
H843 H 0.11536 0.44665 0.2401 0.0
H844 H 0.05469 0.49329 0.37411 0.0
H845 H 0.08132 0.5026 0.25607 0.0
H846 H 0.06271 0.38475 0.36903 0.0
H847 H 0.01401 0.3742 0.29678 0.0
C848 C 0.58313 0.62863 0.25644 0.0
C849 C 0.58623 0.62144 0.2222 0.0
C850 C 0.58699 0.60603 0.23488 0.0
C851 C 0.58412 0.60444 0.27606 0.0
N852 N 0.58147 0.61782 0.28999 0.0
Co853 Co 0.57704 0.6203 0.34795 0.0
N854 N 0.588 0.60458 0.36808 0.0
C855 C 0.5908 0.59329 0.34499 0.0
C856 C 0.59863 0.58408 0.36573 0.0
C857 C 0.60058 0.58965 0.40449 0.0
C858 C 0.59357 0.60185 0.4057 0.0
N859 N 0.57268 0.62293 0.40602 0.0
C860 C 0.57919 0.61861 0.44086 0.0
C861 C 0.57134 0.62212 0.47436 0.0
C862 C 0.55961 0.6287 0.46018 0.0
C863 C 0.56077 0.62881 0.41883 0.0
N864 N 0.5665 0.63623 0.32717 0.0
C865 C 0.5557 0.64097 0.34932 0.0
C866 C 0.55259 0.65399 0.32963 0.0
C867 C 0.56201 0.65766 0.29292 0.0
C868 C 0.57017 0.6464 0.29141 0.0
N869 N 0.5517 0.59878 0.34736 0.0
C870 C 0.51605 0.56715 0.34722 0.0
C871 C 0.52831 0.5705 0.37966 0.0
C872 C 0.54588 0.58617 0.3791 0.0
C873 C 0.52197 0.58034 0.31506 0.0
C874 C 0.5398 0.59602 0.31571 0.0
N875 N 0.60182 0.64147 0.34854 0.0
C876 C 0.62101 0.67289 0.36118 0.0
C877 C 0.6362 0.67313 0.34013 0.0
C878 C 0.63409 0.65714 0.32449 0.0
C879 C 0.61684 0.64142 0.3294 0.0
C880 C 0.60386 0.65688 0.36489 0.0
H881 H 0.61554 0.62928 0.31711 0.0
H882 H 0.59217 0.6571 0.38034 0.0
H883 H 0.55479 0.58796 0.40458 0.0
H884 H 0.54406 0.60583 0.29043 0.0
C885 C 0.58805 0.5934 0.30312 0.0
C886 C 0.58086 0.64517 0.2556 0.0
C887 C 0.59088 0.60921 0.44371 0.0
C888 C 0.55312 0.63657 0.3911 0.0
H889 H 0.58793 0.62683 0.1913 0.0
H890 H 0.59032 0.59759 0.21647 0.0
H891 H 0.60286 0.57475 0.35389 0.0
H892 H 0.60633 0.58502 0.42904 0.0
H893 H 0.5735 0.61977 0.50583 0.0
H894 H 0.55149 0.6332 0.47797 0.0
H895 H 0.54566 0.66112 0.34178 0.0
H896 H 0.56323 0.66805 0.27096 0.0
H897 H 0.52437 0.56109 0.40577 0.0
H898 H 0.51311 0.57844 0.28916 0.0
H899 H 0.62238 0.68495 0.37444 0.0
H900 H 0.64582 0.6567 0.30935 0.0
C901 C 0.38526 0.95826 0.25664 0.0
C902 C 0.39135 0.96817 0.21998 0.0
C903 C 0.40718 0.98417 0.22748 0.0
C904 C 0.41011 0.98322 0.26816 0.0
N905 N 0.39715 0.96759 0.28669 0.0
Co906 Co 0.39677 0.96132 0.34564 0.0
N907 N 0.41274 0.98705 0.35984 0.0
C908 C 0.42333 1.00065 0.33277 0.0
C909 C 0.43285 0.01707 0.34988 0.0
C910 C 0.42822 0.0136 0.39037 0.0
C911 C 0.41623 0.99511 0.39615 0.0
N912 N 0.39635 0.95504 0.40466 0.0
C913 C 0.40127 0.9655 0.43762 0.0
C914 C 0.39913 0.95494 0.47265 0.0
C915 C 0.39275 0.93753 0.46136 0.0
C916 C 0.39141 0.93828 0.42008 0.0
N917 N 0.38045 0.93576 0.331 0.0
C918 C 0.3769 0.92121 0.35536 0.0
C919 C 0.3636 0.90534 0.34004 0.0
C920 C 0.35849 0.91019 0.3038 0.0
C921 C 0.36919 0.92887 0.29821 0.0
N922 N 0.41992 0.95896 0.33822 0.0
C923 C 0.45357 0.9563 0.32766 0.0
C924 C 0.43819 0.94805 0.30164 0.0
C925 C 0.42167 0.94965 0.30721 0.0
C926 C 0.45142 0.96582 0.35918 0.0
C927 C 0.43459 0.96679 0.36417 0.0
N928 N 0.37402 0.96345 0.35294 0.0
C929 C 0.34163 0.95066 0.37665 0.0
C930 C 0.33996 0.96434 0.35477 0.0
C931 C 0.35572 0.97791 0.33328 0.0
C932 C 0.37269 0.97734 0.33314 0.0
C933 C 0.35885 0.95038 0.37503 0.0
H934 H 0.38464 0.98794 0.31641 0.0
H935 H 0.35976 0.93943 0.39108 0.0
H936 H 0.41029 0.94336 0.28633 0.0
H937 H 0.43361 0.97407 0.38907 0.0
C938 C 0.42197 0.99782 0.29118 0.0
C939 C 0.36891 0.93963 0.26105 0.0
C940 C 0.40983 0.98558 0.43676 0.0
C941 C 0.38291 0.92339 0.39555 0.0
H942 H 0.38501 0.96428 0.19084 0.0
H943 H 0.41502 0.99551 0.20612 0.0
H944 H 0.44171 0.03013 0.33462 0.0
H945 H 0.43331 0.02359 0.41297 0.0
H946 H 0.40213 0.9594 0.50314 0.0
H947 H 0.38907 0.92566 0.48111 0.0
H948 H 0.35731 0.89193 0.35475 0.0
H949 H 0.34767 0.90093 0.28467 0.0
H950 H 0.43871 0.94025 0.27715 0.0
H951 H 0.46276 0.97287 0.37979 0.0
H952 H 0.32977 0.94029 0.39444 0.0
H953 H 0.35502 0.9891 0.31729 0.0
C954 C 0.54175 0.97421 0.27953 0.0
C955 C 0.53773 0.98567 0.25476 0.0
C956 C 0.55467 0.99917 0.2398 0.0
C957 C 0.56808 0.99539 0.25645 0.0
N958 N 0.56078 0.98001 0.28038 0.0
Co959 Co 0.57553 0.97116 0.31512 0.0
N960 N 0.60043 0.99278 0.29838 0.0
C961 C 0.60298 0.00642 0.2716 0.0
C962 C 0.62157 0.01924 0.26523 0.0
C963 C 0.63161 0.01331 0.28881 0.0
C964 C 0.61851 0.99705 0.30812 0.0
N965 N 0.5902 0.96268 0.35122 0.0
C966 C 0.60924 0.96991 0.35671 0.0
C967 C 0.61324 0.95936 0.38431 0.0
C968 C 0.59623 0.94499 0.39658 0.0
C969 C 0.58279 0.94749 0.37589 0.0
N970 N 0.55066 0.9493 0.33076 0.0
C971 C 0.54818 0.93471 0.35423 0.0
C972 C 0.52946 0.92218 0.36102 0.0
C973 C 0.51939 0.92938 0.34149 0.0
C974 C 0.53258 0.94601 0.32409 0.0
N975 N 0.57891 0.95819 0.26996 0.0
C976 C 0.58937 0.94176 0.20988 0.0
C977 C 0.58387 0.9337 0.2487 0.0
C978 C 0.57848 0.94188 0.27761 0.0
C979 C 0.58875 0.9579 0.20109 0.0
C980 C 0.58347 0.96582 0.23138 0.0
N981 N 0.57235 0.98396 0.36052 0.0
C982 C 0.56277 0.9831 0.42985 0.0
C983 C 0.57005 1.00179 0.42794 0.0
C984 C 0.57772 0.01142 0.39113 0.0
C985 C 0.57847 1.00221 0.3577 0.0
C986 C 0.56419 0.97458 0.39628 0.0
H987 H 0.58442 0.01013 0.33023 0.0
H988 H 0.55906 0.96044 0.40062 0.0
H989 H 0.57455 0.93487 0.30624 0.0
H990 H 0.58349 0.97821 0.22309 0.0
C991 C 0.58758 0.00697 0.25349 0.0
C992 C 0.52724 0.95871 0.30379 0.0
C993 C 0.62405 0.98615 0.33499 0.0
C994 C 0.56341 0.93486 0.37541 0.0
H995 H 0.52413 0.98495 0.24918 0.0
H996 H 0.55698 0.01089 0.2208 0.0
H997 H 0.62715 0.03142 0.24569 0.0
H998 H 0.6469 0.0202 0.29129 0.0
H999 H 0.62705 0.96152 0.39375 0.0
H1000 H 0.59399 0.93368 0.41697 0.0
H1001 H 0.52378 0.90986 0.38011 0.0
H1002 H 0.50408 0.92345 0.34153 0.0
H1003 H 0.58418 0.92129 0.25745 0.0
H1004 H 0.59234 0.96445 0.1711 0.0
H1005 H 0.55703 0.97513 0.45793 0.0
H1006 H 0.5835 0.02598 0.38846 0.0
C1007 C 0.08196 0.64799 0.27893 0.0
C1008 C 0.10034 0.6619 0.28359 0.0
C1009 C 0.10611 0.65875 0.3206 0.0
C1010 C 0.09091 0.64343 0.33705 0.0
N1011 N 0.07595 0.63682 0.31258 0.0
Co1012 Co 0.05043 0.61653 0.32631 0.0
N1013 N 0.05522 0.61901 0.38468 0.0
C1014 C 0.07234 0.62696 0.4017 0.0
C1015 C 0.07116 0.62621 0.44311 0.0
C1016 C 0.0521 0.61713 0.45259 0.0
C1017 C 0.04272 0.61289 0.4162 0.0
N1018 N 0.02497 0.5962 0.34019 0.0
C1019 C 0.01494 0.59193 0.37553 0.0
C1020 C 0.99754 0.57652 0.3724 0.0
C1021 C 0.99694 0.57097 0.33375 0.0
C1022 C 0.01392 0.58329 0.3154 0.0
N1023 N 0.04596 0.61432 0.26784 0.0
C1024 C 0.03295 0.59956 0.25016 0.0
C1025 C 0.03311 0.60236 0.2089 0.0
C1026 C 0.04707 0.61992 0.20051 0.0
C1027 C 0.05462 0.62694 0.23723 0.0
N1028 N 0.06031 0.59903 0.3255 0.0
C1029 C 0.06836 0.56995 0.31985 0.0
C1030 C 0.07456 0.58396 0.2895 0.0
C1031 C 0.07063 0.59848 0.29315 0.0
C1032 C 0.05873 0.57134 0.35368 0.0
C1033 C 0.05484 0.58579 0.35586 0.0
N1034 N 0.03975 0.63327 0.32697 0.0
C1035 C 0.01405 0.63927 0.30896 0.0
C1036 C 0.02159 0.65478 0.33132 0.0
C1037 C 0.03878 0.65947 0.35098 0.0
C1038 C 0.04768 0.64861 0.34822 0.0
C1039 C 0.02323 0.62881 0.30723 0.0
H1040 H 0.06077 0.6524 0.36381 0.0
H1041 H 0.01656 0.61675 0.29058 0.0
H1042 H 0.07535 0.60892 0.26913 0.0
H1043 H 0.0466 0.58573 0.38158 0.0
C1044 C 0.08866 0.63779 0.378 0.0
C1045 C 0.07071 0.64514 0.24217 0.0
C1046 C 0.02217 0.60172 0.41262 0.0
C1047 C 0.01859 0.58518 0.27382 0.0
H1048 H 0.10872 0.67346 0.2633 0.0
H1049 H 0.11928 0.66741 0.33499 0.0
H1050 H 0.0827 0.63218 0.46387 0.0
H1051 H 0.04587 0.61387 0.4828 0.0
H1052 H 0.98648 0.56998 0.39552 0.0
H1053 H 0.98518 0.55976 0.32024 0.0
H1054 H 0.0236 0.5931 0.18764 0.0
H1055 H 0.05116 0.62679 0.17089 0.0
H1056 H 0.08228 0.58367 0.26299 0.0
H1057 H 0.05343 0.56087 0.37779 0.0
H1058 H 1.00067 0.63475 0.29389 0.0
H1059 H 0.04529 0.6714 0.36845 0.0
C1060 C 0.36465 0.44274 0.30829 0.0
C1061 C 0.35132 0.44881 0.30639 0.0
C1062 C 0.35163 0.45604 0.34282 0.0
C1063 C 0.36499 0.45388 0.36483 0.0
N1064 N 0.37309 0.44584 0.34436 0.0
Co1065 Co 0.39243 0.43943 0.36436 0.0
N1066 N 0.38519 0.43999 0.42116 0.0
C1067 C 0.37547 0.44823 0.43409 0.0
C1068 C 0.37293 0.44677 0.47527 0.0
C1069 C 0.38183 0.43725 0.48914 0.0
C1070 C 0.38936 0.43344 0.45545 0.0
N1071 N 0.41203 0.43333 0.38434 0.0
C1072 C 0.41428 0.42769 0.4219 0.0
C1073 C 0.43047 0.42564 0.42304 0.0
C1074 C 0.43872 0.43052 0.38499 0.0
C1075 C 0.42715 0.43522 0.36268 0.0
N1076 N 0.39931 0.43891 0.30747 0.0
C1077 C 0.41566 0.44024 0.29339 0.0
C1078 C 0.41535 0.43809 0.25242 0.0
C1079 C 0.39769 0.43519 0.24047 0.0
C1080 C 0.38824 0.43572 0.27492 0.0
N1081 N 0.41139 0.46533 0.36426 0.0
C1082 C 0.44362 0.49993 0.35804 0.0
C1083 C 0.43038 0.49393 0.32706 0.0
C1084 C 0.41437 0.47664 0.3308 0.0
C1085 C 0.43948 0.4887 0.39333 0.0
C1086 C 0.42339 0.47163 0.3959 0.0
N1087 N 0.37405 0.41341 0.36359 0.0
C1088 C 0.3671 0.384 0.3416 0.0
C1089 C 0.34833 0.37648 0.35576 0.0
C1090 C 0.34271 0.38776 0.37495 0.0
C1091 C 0.35576 0.40627 0.3782 0.0
C1092 C 0.37968 0.40225 0.3462 0.0
H1093 H 0.35106 0.41484 0.3921 0.0
H1094 H 0.39399 0.40737 0.33488 0.0
H1095 H 0.40489 0.47208 0.30576 0.0
H1096 H 0.42123 0.46321 0.42294 0.0
C1097 C 0.36695 0.45511 0.40663 0.0
C1098 C 0.36919 0.43402 0.27619 0.0
C1099 C 0.4024 0.42581 0.4576 0.0
C1100 C 0.42851 0.43902 0.32058 0.0
H1101 H 0.34205 0.44786 0.28192 0.0
H1102 H 0.34229 0.46109 0.35293 0.0
H1103 H 0.36527 0.45175 0.49306 0.0
H1104 H 0.38309 0.43396 0.52056 0.0
H1105 H 0.43591 0.42137 0.44881 0.0
H1106 H 0.45138 0.43025 0.37468 0.0
H1107 H 0.42615 0.43753 0.23389 0.0
H1108 H 0.39228 0.43277 0.21021 0.0
H1109 H 0.43282 0.50212 0.29929 0.0
H1110 H 0.44891 0.49288 0.41863 0.0
H1111 H 0.37212 0.37573 0.32716 0.0
H1112 H 0.32831 0.3824 0.38663 0.0
C1113 C 0.26135 0.23308 0.38266 0.0
C1114 C 0.24188 0.22677 0.38372 0.0
C1115 C 0.23534 0.21944 0.34718 0.0
C1116 C 0.25113 0.22178 0.32595 0.0
N1117 N 0.2671 0.23005 0.347 0.0
Co1118 Co 0.2931 0.23674 0.32816 0.0
N1119 N 0.28575 0.23592 0.27101 0.0
C1120 C 0.26791 0.22736 0.25741 0.0
C1121 C 0.26718 0.22868 0.21612 0.0
C1122 C 0.28572 0.23849 0.20293 0.0
C1123 C 0.29677 0.24261 0.23712 0.0
N1124 N 0.31906 0.24314 0.30931 0.0
C1125 C 0.32729 0.24897 0.27206 0.0
C1126 C 0.34567 0.25136 0.27178 0.0
C1127 C 0.3488 0.24652 0.31008 0.0
C1128 C 0.33225 0.24151 0.33168 0.0
N1129 N 0.30009 0.23749 0.38537 0.0
C1130 C 0.31511 0.23641 0.40026 0.0
C1131 C 0.31657 0.23858 0.44125 0.0
C1132 C 0.30153 0.24121 0.45237 0.0
C1133 C 0.2918 0.24051 0.41744 0.0
N1134 N 0.28644 0.21092 0.32895 0.0
C1135 C 0.28281 0.17583 0.33539 0.0
C1136 C 0.27589 0.18221 0.3662 0.0
C1137 C 0.27771 0.19966 0.36227 0.0
C1138 C 0.29076 0.18722 0.30054 0.0
C1139 C 0.29237 0.20454 0.29788 0.0
N1140 N 0.30039 0.26268 0.32833 0.0
C1141 C 0.32223 0.29224 0.35077 0.0
C1142 C 0.31081 0.29943 0.33587 0.0
C1143 C 0.29419 0.28792 0.31601 0.0
C1144 C 0.28912 0.2695 0.31291 0.0
C1145 C 0.31695 0.27407 0.34629 0.0
H1146 H 0.27604 0.26074 0.29855 0.0
H1147 H 0.32624 0.26919 0.35822 0.0
H1148 H 0.27263 0.20429 0.38689 0.0
H1149 H 0.29919 0.21303 0.27119 0.0
C1150 C 0.25224 0.22039 0.28427 0.0
C1151 C 0.27428 0.24189 0.41526 0.0
C1152 C 0.31753 0.25084 0.23595 0.0
C1153 C 0.3295 0.23779 0.37376 0.0
H1154 H 0.23327 0.2276 0.40774 0.0
H1155 H 0.221 0.21415 0.3365 0.0
H1156 H 0.25468 0.22346 0.1978 0.0
H1157 H 0.29055 0.24182 0.17167 0.0
H1158 H 0.35567 0.25588 0.24645 0.0
H1159 H 0.36177 0.24708 0.32106 0.0
H1160 H 0.32783 0.23931 0.46035 0.0
H1161 H 0.29819 0.24354 0.48242 0.0
H1162 H 0.26929 0.17386 0.39341 0.0
H1163 H 0.29647 0.18313 0.27592 0.0
H1164 H 0.33532 0.3007 0.36572 0.0
H1165 H 0.28503 0.29301 0.30375 0.0
C1166 C 0.77327 0.02697 0.39871 0.0
C1167 C 0.77755 0.01303 0.39303 0.0
C1168 C 0.78673 0.01664 0.3562 0.0
C1169 C 0.78715 0.03222 0.34079 0.0
N1170 N 0.77879 0.03859 0.36582 0.0
Co1171 Co 0.77344 0.05885 0.35335 0.0
N1172 N 0.77554 0.05673 0.29478 0.0
C1173 C 0.78471 0.04896 0.27704 0.0
C1174 C 0.78426 0.05004 0.23567 0.0
C1175 C 0.77432 0.05919 0.22697 0.0
C1176 C 0.7692 0.06313 0.26377 0.0
N1177 N 0.76823 0.07918 0.34091 0.0
C1178 C 0.76255 0.08382 0.30596 0.0
C1179 C 0.76063 0.09919 0.31009 0.0
C1180 C 0.76557 0.10436 0.34896 0.0
C1181 C 0.77018 0.09187 0.36643 0.0
N1182 N 0.77136 0.06062 0.41198 0.0
C1183 C 0.7732 0.07519 0.43057 0.0
C1184 C 0.77048 0.07196 0.47175 0.0
C1185 C 0.76667 0.05429 0.47907 0.0
C1186 C 0.76716 0.04766 0.44182 0.0
N1187 N 0.80088 0.07649 0.35382 0.0
C1188 C 0.83816 0.10569 0.35862 0.0
C1189 C 0.83053 0.09162 0.38892 0.0
C1190 C 0.812 0.07706 0.38571 0.0
C1191 C 0.82684 0.10432 0.32537 0.0
C1192 C 0.80846 0.08983 0.3236 0.0
N1193 N 0.74594 0.04195 0.35297 0.0
C1194 C 0.71418 0.03545 0.37232 0.0
C1195 C 0.70617 0.01973 0.3506 0.0
C1196 C 0.71872 0.01529 0.33031 0.0
C1197 C 0.73852 0.02653 0.33199 0.0
C1198 C 0.73386 0.04624 0.37313 0.0
H1199 H 0.74783 0.02289 0.31599 0.0
H1200 H 0.73926 0.05834 0.38966 0.0
H1201 H 0.80643 0.06657 0.40966 0.0
H1202 H 0.80011 0.08993 0.29827 0.0
C1203 C 0.79041 0.03812 0.29999 0.0
C1204 C 0.76455 0.0294 0.43551 0.0
C1205 C 0.76017 0.07454 0.26818 0.0
C1206 C 0.77314 0.08972 0.4078 0.0
H1207 H 0.77396 1.00109 0.4123 0.0
H1208 H 0.79106 0.00804 0.34106 0.0
H1209 H 0.78989 0.04433 0.2144 0.0
H1210 H 0.77145 0.06278 0.19697 0.0
H1211 H 0.7562 0.10599 0.28745 0.0
H1212 H 0.76514 0.11547 0.36314 0.0
H1213 H 0.77021 0.08098 0.49362 0.0
H1214 H 0.7637 0.04708 0.50831 0.0
H1215 H 0.83875 0.09189 0.41504 0.0
H1216 H 0.8318 0.11484 0.30136 0.0
H1217 H 0.70533 0.03984 0.38779 0.0
H1218 H 0.71332 1.00324 0.31328 0.0
C1219 C 0.90132 0.69468 0.4151 0.0
C1220 C 0.88493 0.682 0.43577 0.0
C1221 C 0.88845 0.66841 0.45035 0.0
C1222 C 0.90665 0.67341 0.43756 0.0
N1223 N 0.91483 0.68932 0.41593 0.0
Co1224 Co 0.94052 0.70091 0.38974 0.0
N1225 N 0.94177 0.67782 0.39312 0.0
C1226 C 0.93037 0.66297 0.41648 0.0
C1227 C 0.93451 0.64906 0.41316 0.0
C1228 C 0.9497 0.65563 0.38662 0.0
C1229 C 0.95407 0.67332 0.37531 0.0
N1230 N 0.96634 0.71273 0.36394 0.0
C1231 C 0.97699 0.70544 0.34993 0.0
C1232 C 0.99485 0.71892 0.33686 0.0
C1233 C 0.99549 0.73513 0.34364 0.0
C1234 C 0.97806 0.73072 0.36039 0.0
N1235 N 0.93891 0.72378 0.38621 0.0
C1236 C 0.95363 0.74057 0.38077 0.0
C1237 C 0.94802 0.75367 0.37859 0.0
C1238 C 0.92856 0.7445 0.38293 0.0
C1239 C 0.92338 0.72627 0.38739 0.0
N1240 N 0.95243 0.70702 0.44246 0.0
C1241 C 0.97666 0.72383 0.50553 0.0
C1242 C 0.96054 0.72597 0.49912 0.0
C1243 C 0.94832 0.71708 0.4679 0.0
C1244 C 0.97935 0.71181 0.48236 0.0
C1245 C 0.9672 0.70367 0.45101 0.0
N1246 N 0.92929 0.69525 0.33671 0.0
C1247 C 0.92923 0.70496 0.26746 0.0
C1248 C 0.91658 0.68721 0.25792 0.0
C1249 C 0.90952 0.67374 0.28946 0.0
C1250 C 0.91589 0.6781 0.32873 0.0
C1251 C 0.93562 0.70859 0.30661 0.0
H1252 H 0.91046 0.66749 0.35233 0.0
H1253 H 0.94612 0.72221 0.31214 0.0
H1254 H 0.93627 0.71928 0.46273 0.0
H1255 H 0.97082 0.69575 0.43204 0.0
C1256 C 0.91472 0.66193 0.43745 0.0
C1257 C 0.90383 0.71176 0.3955 0.0
C1258 C 0.97161 0.68608 0.35288 0.0
C1259 C 0.97162 0.74299 0.36982 0.0
H1260 H 0.87164 0.68221 0.43936 0.0
H1261 H 0.87847 0.65585 0.46609 0.0
H1262 H 0.92725 0.63566 0.42792 0.0
H1263 H 0.95714 0.64844 0.37773 0.0
H1264 H 1.00639 0.71719 0.32479 0.0
H1265 H 1.00725 0.74853 0.33695 0.0
H1266 H 0.95689 0.76808 0.37259 0.0
H1267 H 0.91926 0.75049 0.38281 0.0
H1268 H 0.9578 0.73493 0.51708 0.0
H1269 H 0.99162 0.70976 0.48634 0.0
H1270 H 0.93466 0.71599 0.24464 0.0
H1271 H 0.89979 0.65979 0.28378 0.0
C1272 C 0.43363 0.05206 0.77056 0.0
C1273 C 0.4296 0.04185 0.80683 0.0
C1274 C 0.42935 0.02589 0.79867 0.0
C1275 C 0.43341 0.02715 0.758 0.0
N1276 N 0.43624 0.04293 0.74012 0.0
Co1277 Co 0.44231 0.04962 0.68136 0.0
N1278 N 0.43224 0.02404 0.66612 0.0
C1279 C 0.42952 0.01031 0.6925 0.0
C1280 C 0.42314 0.99414 0.67448 0.0
C1281 C 0.42197 0.99793 0.63414 0.0
C1282 C 0.42766 0.01628 0.62949 0.0
N1283 N 0.44817 0.05633 0.6224 0.0
C1284 C 0.44239 0.04614 0.58903 0.0
C1285 C 0.45021 0.05707 0.55414 0.0
C1286 C 0.46149 0.07435 0.56601 0.0
C1287 C 0.45993 0.0732 0.60742 0.0
N1288 N 0.45201 0.07508 0.69716 0.0
C1289 C 0.46313 0.08976 0.67319 0.0
C1290 C 0.46574 0.10553 0.68898 0.0
C1291 C 0.45566 0.1005 0.72505 0.0
C1292 C 0.4476 0.0818 0.73018 0.0
N1293 N 0.46772 0.05153 0.68834 0.0
C1294 C 0.50332 0.05246 0.69894 0.0
C1295 C 0.49575 0.05923 0.72776 0.0
C1296 C 0.47814 0.05881 0.72173 0.0
C1297 C 0.49263 0.04566 0.66427 0.0
C1298 C 0.47499 0.04511 0.65986 0.0
N1299 N 0.41751 0.04781 0.67458 0.0
C1300 C 0.39808 0.06103 0.65265 0.0
C1301 C 0.38261 0.04712 0.67391 0.0
C1302 C 0.38466 0.03323 0.69414 0.0
C1303 C 0.40217 0.03372 0.69369 0.0
C1304 C 0.41555 0.06121 0.65367 0.0
H1305 H 0.4034 0.02287 0.70948 0.0
H1306 H 0.4275 0.07232 0.63812 0.0
H1307 H 0.47281 0.06413 0.74446 0.0
H1308 H 0.46718 0.03929 0.63326 0.0
C1309 C 0.43088 0.01279 0.73429 0.0
C1310 C 0.43625 0.07083 0.76691 0.0
C1311 C 0.43065 0.02605 0.58933 0.0
C1312 C 0.46662 0.08784 0.63264 0.0
H1313 H 0.4271 0.04554 0.83616 0.0
H1314 H 0.42575 0.0144 0.81962 0.0
H1315 H 0.41947 0.98106 0.68899 0.0
H1316 H 0.41786 0.98835 0.61067 0.0
H1317 H 0.44807 0.05306 0.52327 0.0
H1318 H 0.46934 0.08642 0.54657 0.0
H1319 H 0.47282 0.11899 0.6745 0.0
H1320 H 0.45396 0.10967 0.74415 0.0
H1321 H 0.50307 0.0645 0.75537 0.0
H1322 H 0.49774 0.04073 0.64023 0.0
H1323 H 0.39671 0.07167 0.63581 0.0
H1324 H 0.37269 0.02188 0.70961 0.0
C1325 C 0.96359 0.38281 0.76624 0.0
C1326 C 0.97402 0.38986 0.80043 0.0
C1327 C 0.9903 0.4052 0.78774 0.0
C1328 C 0.98892 0.40691 0.74663 0.0
N1329 N 0.97275 0.39369 0.7327 0.0
Co1330 Co 0.96568 0.3916 0.67475 0.0
N1331 N 0.99238 0.40735 0.65432 0.0
C1332 C 1.00664 0.41833 0.67756 0.0
C1333 C 0.02367 0.4276 0.65672 0.0
C1334 C 0.01989 0.42244 0.6177 0.0
C1335 C 1.00059 0.41043 0.61644 0.0
N1336 N 0.95853 0.38941 0.61669 0.0
C1337 C 0.96927 0.39414 0.58155 0.0
C1338 C 0.95775 0.39094 0.54836 0.0
C1339 C 0.93947 0.38417 0.56301 0.0
C1340 C 0.94067 0.38364 0.60432 0.0
N1341 N 0.93919 0.37561 0.69587 0.0
C1342 C 0.92358 0.371 0.67395 0.0
C1343 C 0.90745 0.35785 0.6935 0.0
C1344 C 0.91325 0.35395 0.72991 0.0
C1345 C 0.93272 0.36523 0.73145 0.0
N1346 N 0.96198 0.41312 0.67649 0.0
C1347 C 0.95606 0.44361 0.67634 0.0
C1348 C 0.96582 0.44105 0.6444 0.0
C1349 C 0.96864 0.4259 0.64508 0.0
C1350 C 0.94957 0.4306 0.70888 0.0
C1351 C 0.95259 0.41545 0.70829 0.0
N1352 N 0.96903 0.37035 0.67302 0.0
C1353 C 0.95558 0.3387 0.6617 0.0
C1354 C 0.97012 0.33798 0.68342 0.0
C1355 C 0.9846 0.35392 0.69812 0.0
C1356 C 0.98389 0.37001 0.69222 0.0
C1357 C 0.95529 0.35506 0.65685 0.0
H1358 H 0.99504 0.38205 0.70423 0.0
H1359 H 0.94361 0.35517 0.64114 0.0
H1360 H 0.9762 0.42459 0.61979 0.0
H1361 H 0.94723 0.40554 0.73342 0.0
C1362 C 1.0039 0.41797 0.71952 0.0
C1363 C 0.94466 0.36631 0.76721 0.0
C1364 C 0.9904 0.40364 0.57821 0.0
C1365 C 0.92533 0.37569 0.6323 0.0
H1366 H 0.97036 0.38444 0.8313 0.0
H1367 H 1.00217 0.41353 0.8061 0.0
H1368 H 0.03733 0.43674 0.66861 0.0
H1369 H 0.03022 0.42724 0.59301 0.0
H1370 H 0.96214 0.39365 0.51681 0.0
H1371 H 0.92677 0.37987 0.54553 0.0
H1372 H 0.89337 0.35078 0.68141 0.0
H1373 H 0.90409 0.34339 0.75157 0.0
H1374 H 0.9715 0.45083 0.61895 0.0
H1375 H 0.9419 0.43191 0.73428 0.0
H1376 H 0.94443 0.3267 0.64905 0.0
H1377 H 0.99654 0.354 0.71359 0.0
C1378 C 0.63297 0.58238 0.78863 0.0
C1379 C 0.62458 0.58416 0.82351 0.0
C1380 C 0.60746 0.58298 0.81276 0.0
C1381 C 0.60612 0.58035 0.77203 0.0
N1382 N 0.62127 0.57968 0.75667 0.0
Co1383 Co 0.62468 0.57633 0.69879 0.0
N1384 N 0.60642 0.58469 0.67972 0.0
C1385 C 0.59324 0.58533 0.70373 0.0
C1386 C 0.58206 0.59106 0.6831 0.0
C1387 C 0.58843 0.59401 0.64355 0.0
C1388 C 0.60326 0.58993 0.642 0.0
N1389 N 0.62825 0.57303 0.64077 0.0
C1390 C 0.62322 0.57893 0.60599 0.0
C1391 C 0.62849 0.57291 0.57252 0.0
C1392 C 0.63668 0.56273 0.58678 0.0
C1393 C 0.63608 0.56308 0.62812 0.0
N1394 N 0.64325 0.56848 0.71847 0.0
C1395 C 0.64975 0.55945 0.69656 0.0
C1396 C 0.66454 0.55824 0.71455 0.0
C1397 C 0.66755 0.56705 0.74981 0.0
C1398 C 0.6541 0.57293 0.75239 0.0
N1399 N 0.60364 0.55114 0.70395 0.0
C1400 C 0.57309 0.51531 0.70875 0.0
C1401 C 0.57556 0.52729 0.67568 0.0
C1402 C 0.5907 0.54491 0.6739 0.0
C1403 C 0.58629 0.52185 0.73985 0.0
C1404 C 0.60151 0.53973 0.73675 0.0
N1405 N 0.64519 0.60092 0.69336 0.0
C1406 C 0.67698 0.62222 0.67136 0.0
C1407 C 0.67521 0.63588 0.6899 0.0
C1408 C 0.65815 0.63185 0.70973 0.0
C1409 C 0.64323 0.61432 0.7107 0.0
C1410 C 0.66179 0.60472 0.67377 0.0
H1411 H 0.63012 0.61158 0.72562 0.0
H1412 H 0.66353 0.59429 0.65994 0.0
H1413 H 0.59179 0.55351 0.64787 0.0
H1414 H 0.61155 0.54435 0.76083 0.0
C1415 C 0.59345 0.58256 0.74593 0.0
C1416 C 0.65152 0.58227 0.7875 0.0
C1417 C 0.61224 0.58903 0.60357 0.0
C1418 C 0.64535 0.5569 0.65553 0.0
H1419 H 0.63026 0.58623 0.85355 0.0
H1420 H 0.5977 0.58485 0.83198 0.0
H1421 H 0.57079 0.59315 0.6954 0.0
H1422 H 0.58252 0.59821 0.61852 0.0
H1423 H 0.62653 0.57548 0.54106 0.0
H1424 H 0.64291 0.55636 0.56899 0.0
H1425 H 0.67329 0.55304 0.70185 0.0
H1426 H 0.67904 0.56949 0.76979 0.0
H1427 H 0.56564 0.5232 0.65124 0.0
H1428 H 0.58507 0.51315 0.76606 0.0
H1429 H 0.68995 0.62507 0.65522 0.0
H1430 H 0.65619 0.64231 0.72336 0.0
C1431 C 0.72323 0.76436 0.57433 0.0
C1432 C 0.71315 0.76251 0.53927 0.0
C1433 C 0.69724 0.76382 0.54961 0.0
C1434 C 0.69845 0.76658 0.59028 0.0
N1435 N 0.71419 0.76721 0.606 0.0
Co1436 Co 0.72077 0.77058 0.66396 0.0
N1437 N 0.69408 0.76235 0.68255 0.0
C1438 C 0.68039 0.76178 0.65824 0.0
C1439 C 0.66339 0.75611 0.67854 0.0
C1440 C 0.66663 0.75312 0.71819 0.0
C1441 C 0.68551 0.7571 0.72012 0.0
N1442 N 0.72743 0.77385 0.72209 0.0
C1443 C 0.71634 0.76792 0.75671 0.0
C1444 C 0.72756 0.77385 0.79035 0.0
C1445 C 0.74601 0.784 0.77637 0.0
C1446 C 0.7452 0.78373 0.735 0.0
N1447 N 0.74725 0.77832 0.64474 0.0
C1448 C 0.76274 0.78736 0.6668 0.0
C1449 C 0.77881 0.7886 0.649 0.0
C1450 C 0.77307 0.77979 0.61371 0.0
C1451 C 0.75371 0.77384 0.61097 0.0
N1452 N 0.72519 0.79584 0.6586 0.0
C1453 C 0.73159 0.83201 0.65401 0.0
C1454 C 0.72178 0.82009 0.68699 0.0
C1455 C 0.71868 0.80226 0.6886 0.0
C1456 C 0.73791 0.82523 0.62284 0.0
C1457 C 0.7347 0.80719 0.62586 0.0
N1458 N 0.7165 0.74595 0.66959 0.0
C1459 C 0.72722 0.7248 0.69103 0.0
C1460 C 0.71189 0.71114 0.67216 0.0
C1461 C 0.69874 0.71507 0.65261 0.0
C1462 C 0.70119 0.73254 0.65206 0.0
C1463 C 0.72934 0.74221 0.68914 0.0
H1464 H 0.6908 0.73524 0.63718 0.0
H1465 H 0.74147 0.75264 0.70318 0.0
H1466 H 0.71096 0.7937 0.71453 0.0
H1467 H 0.73997 0.80242 0.60181 0.0
C1468 C 0.68351 0.76448 0.61607 0.0
C1469 C 0.74182 0.76439 0.5759 0.0
C1470 C 0.69521 0.75787 0.75875 0.0
C1471 C 0.76077 0.7899 0.70781 0.0
H1472 H 0.71681 0.7603 0.50941 0.0
H1473 H 0.68566 0.76193 0.53017 0.0
H1474 H 0.6501 0.75407 0.66597 0.0
H1475 H 0.6564 0.74894 0.74302 0.0
H1476 H 0.72293 0.77121 0.82175 0.0
H1477 H 0.75857 0.79029 0.79436 0.0
H1478 H 0.79275 0.79385 0.66182 0.0
H1479 H 0.78217 0.77741 0.59374 0.0
H1480 H 0.71624 0.82443 0.71149 0.0
H1481 H 0.74558 0.83387 0.59669 0.0
H1482 H 0.73744 0.72205 0.70695 0.0
H1483 H 0.68638 0.7046 0.63875 0.0
C1484 C 0.255 0.96441 0.58893 0.0
C1485 C 0.25873 0.9574 0.55511 0.0
C1486 C 0.25956 0.94207 0.5682 0.0
C1487 C 0.25609 0.94031 0.60919 0.0
N1488 N 0.25301 0.95352 0.62264 0.0
Co1489 Co 0.24745 0.95546 0.68032 0.0
N1490 N 0.25843 0.93989 0.70158 0.0
C1491 C 0.26156 0.92869 0.67891 0.0
C1492 C 0.26848 0.91891 0.7007 0.0
C1493 C 0.26951 0.92405 0.73971 0.0
C1494 C 0.26315 0.93675 0.73981 0.0
N1495 N 0.24188 0.95746 0.73814 0.0
C1496 C 0.24757 0.95267 0.77363 0.0
C1497 C 0.23922 0.95606 0.80644 0.0
C1498 C 0.22782 0.96283 0.79117 0.0
C1499 C 0.22975 0.96326 0.74989 0.0
N1500 N 0.237 0.97133 0.65836 0.0
C1501 C 0.22586 0.97593 0.67979 0.0
C1502 C 0.22306 0.9891 0.65994 0.0
C1503 C 0.23302 0.99304 0.62387 0.0
C1504 C 0.24118 0.98175 0.62275 0.0
N1505 N 0.22231 0.93374 0.67776 0.0
C1506 C 0.18679 0.90202 0.67551 0.0
C1507 C 0.19869 0.90517 0.70852 0.0
C1508 C 0.21619 0.92088 0.70901 0.0
C1509 C 0.19301 0.91545 0.64378 0.0
C1510 C 0.21079 0.93116 0.64546 0.0
N1511 N 0.27198 0.97679 0.6829 0.0
C1512 C 0.29034 0.00831 0.69554 0.0
C1513 C 0.30579 0.009 0.67469 0.0
C1514 C 0.30434 0.99314 0.65972 0.0
C1515 C 0.28738 0.97713 0.66458 0.0
C1516 C 0.27347 0.99202 0.69917 0.0
H1517 H 0.28654 0.96512 0.65256 0.0
H1518 H 0.26152 0.99191 0.71419 0.0
H1519 H 0.22475 0.92249 0.735 0.0
H1520 H 0.2153 0.94115 0.6205 0.0
C1521 C 0.25957 0.9291 0.63677 0.0
C1522 C 0.25236 0.9808 0.58736 0.0
C1523 C 0.2595 0.94354 0.77758 0.0
C1524 C 0.22264 0.97125 0.72141 0.0
H1525 H 0.26072 0.96281 0.52419 0.0
H1526 H 0.26323 0.93374 0.55019 0.0
H1527 H 0.27245 0.90928 0.68953 0.0
H1528 H 0.27387 0.91863 0.76541 0.0
H1529 H 0.24099 0.95367 0.83811 0.0
H1530 H 0.21946 0.9673 0.80822 0.0
H1531 H 0.21599 0.99616 0.67169 0.0
H1532 H 0.23465 1.00367 0.60221 0.0
H1533 H 0.19451 0.89557 0.73431 0.0
H1534 H 0.18441 0.9137 0.61749 0.0
H1535 H 0.29124 0.02027 0.70844 0.0
H1536 H 0.31634 0.99306 0.64488 0.0
C1537 C 0.05182 0.29245 0.58309 0.0
C1538 C 0.05769 0.30251 0.54659 0.0
C1539 C 0.07342 0.3186 0.55418 0.0
C1540 C 0.07651 0.31754 0.59476 0.0
N1541 N 0.06374 0.30178 0.61311 0.0
Co1542 Co 0.06357 0.29535 0.67186 0.0
N1543 N 0.07901 0.32106 0.68647 0.0
C1544 C 0.08971 0.33475 0.65972 0.0
C1545 C 0.09947 0.35103 0.67738 0.0
C1546 C 0.09482 0.34734 0.71787 0.0
C1547 C 0.08237 0.32893 0.72296 0.0
N1548 N 0.06334 0.28888 0.73073 0.0
C1549 C 0.06802 0.29919 0.7639 0.0
C1550 C 0.0653 0.2884 0.79886 0.0
C1551 C 0.05929 0.27111 0.78721 0.0
C1552 C 0.05846 0.27209 0.74587 0.0
N1553 N 0.04773 0.26978 0.65673 0.0
C1554 C 0.04443 0.25522 0.68078 0.0
C1555 C 0.03123 0.23932 0.66541 0.0
C1556 C 0.02589 0.24416 0.6295 0.0
C1557 C 0.03638 0.26287 0.62409 0.0
N1558 N 0.08712 0.29367 0.66404 0.0
C1559 C 0.12167 0.29275 0.6524 0.0
C1560 C 0.10651 0.28449 0.62585 0.0
C1561 C 0.08948 0.28515 0.6321 0.0
C1562 C 0.11882 0.30126 0.6851 0.0
C1563 C 0.1016 0.30145 0.69049 0.0
N1564 N 0.04052 0.29695 0.67956 0.0
C1565 C 0.00826 0.28404 0.70427 0.0
C1566 C 1.00649 0.29788 0.68334 0.0
C1567 C 0.02211 0.3115 0.6616 0.0
C1568 C 0.03905 0.3109 0.66049 0.0
C1569 C 0.02545 0.28372 0.70163 0.0
H1570 H 0.0509 0.32161 0.64374 0.0
H1571 H 0.02647 0.2727 0.71706 0.0
H1572 H 0.07824 0.27886 0.61091 0.0
H1573 H 0.10018 0.30817 0.71604 0.0
C1574 C 0.08839 0.33209 0.61801 0.0
C1575 C 0.03572 0.27365 0.58735 0.0
C1576 C 0.07613 0.31924 0.76333 0.0
C1577 C 0.05027 0.25732 0.72103 0.0
H1578 H 0.05128 0.29866 0.5175 0.0
H1579 H 0.0811 0.33003 0.53296 0.0
H1580 H 0.10868 0.3641 0.66255 0.0
H1581 H 0.10039 0.35701 0.74114 0.0
H1582 H 0.06739 0.2925 0.82967 0.0
H1583 H 0.05529 0.25912 0.80678 0.0
H1584 H 0.02507 0.2259 0.68002 0.0
H1585 H 0.01497 0.23487 0.61061 0.0
H1586 H 0.10767 0.27747 0.6004 0.0
H1587 H 0.12997 0.30819 0.70622 0.0
H1588 H 0.9965 0.2736 0.72219 0.0
H1589 H 0.02133 0.32278 0.64628 0.0
C1590 C 0.21168 0.3161 0.60433 0.0
C1591 C 0.20773 0.32793 0.58078 0.0
C1592 C 0.22467 0.3409 0.56385 0.0
C1593 C 0.23804 0.33646 0.57821 0.0
N1594 N 0.23057 0.32147 0.60305 0.0
Co1595 Co 0.24504 0.3111 0.63253 0.0
N1596 N 0.26938 0.3341 0.62488 0.0
C1597 C 0.27253 0.34794 0.59839 0.0
C1598 C 0.29063 0.3621 0.59944 0.0
C1599 C 0.29958 0.35673 0.62783 0.0
C1600 C 0.28642 0.33945 0.64239 0.0
N1601 N 0.25941 0.30049 0.66168 0.0
C1602 C 0.2775 0.30846 0.67503 0.0
C1603 C 0.28204 0.29558 0.69151 0.0
C1604 C 0.2664 0.27903 0.68768 0.0
C1605 C 0.25319 0.28264 0.66915 0.0
N1606 N 0.22059 0.28832 0.64027 0.0
C1607 C 0.2186 0.27179 0.64956 0.0
C1608 C 0.1999 0.25871 0.65387 0.0
C1609 C 0.18953 0.26763 0.64686 0.0
C1610 C 0.20252 0.2857 0.63878 0.0
N1611 N 0.25021 0.30282 0.58207 0.0
C1612 C 0.25734 0.28539 0.51989 0.0
C1613 C 0.23902 0.28306 0.5268 0.0
C1614 C 0.23582 0.2922 0.55763 0.0
C1615 C 0.27213 0.2975 0.5428 0.0
C1616 C 0.26828 0.30593 0.57372 0.0
N1617 N 0.24012 0.31905 0.68328 0.0
C1618 C 0.23229 0.31285 0.75423 0.0
C1619 C 0.23717 0.33095 0.75866 0.0
C1620 C 0.24255 0.34279 0.72425 0.0
C1621 C 0.24372 0.33649 0.68668 0.0
C1622 C 0.234 0.30722 0.7164 0.0
H1623 H 0.24819 0.34588 0.66069 0.0
H1624 H 0.23106 0.29342 0.71438 0.0
H1625 H 0.22158 0.29001 0.56293 0.0
H1626 H 0.27993 0.31414 0.59216 0.0
C1627 C 0.25764 0.348 0.57659 0.0
C1628 C 0.19733 0.29981 0.62709 0.0
C1629 C 0.29146 0.32772 0.66812 0.0
C1630 C 0.23434 0.26991 0.66176 0.0
H1631 H 0.1942 0.32761 0.5768 0.0
H1632 H 0.22708 0.35281 0.5455 0.0
H1633 H 0.29655 0.3749 0.58207 0.0
H1634 H 0.3143 0.36444 0.63593 0.0
H1635 H 0.29545 0.29788 0.70388 0.0
H1636 H 0.26484 0.26593 0.69748 0.0
H1637 H 0.19444 0.24455 0.66295 0.0
H1638 H 0.1742 0.26157 0.64762 0.0
H1639 H 0.22723 0.27395 0.50918 0.0
H1640 H 0.28647 0.29962 0.53858 0.0
H1641 H 0.22829 0.30335 0.78019 0.0
H1642 H 0.24635 0.35689 0.72659 0.0
C1643 C 0.74788 0.98038 0.60525 0.0
C1644 C 0.76597 0.99513 0.607 0.0
C1645 C 0.77255 0.99416 0.64456 0.0
C1646 C 0.75808 0.97924 0.66412 0.0
N1647 N 0.74282 0.9707 0.64102 0.0
Co1648 Co 0.71812 0.9499 0.65867 0.0
N1649 N 0.7235 0.95492 0.71634 0.0
C1650 C 0.74026 0.96678 0.73133 0.0
C1651 C 0.73839 0.97179 0.76903 0.0
C1652 C 0.71943 0.96223 0.77854 0.0
C1653 C 0.71081 0.95093 0.74711 0.0
N1654 N 0.69374 0.92874 0.67623 0.0
C1655 C 0.68542 0.92352 0.7136 0.0
C1656 C 0.67113 0.90557 0.71428 0.0
C1657 C 0.67007 0.89984 0.67587 0.0
C1658 C 0.68403 0.91427 0.65397 0.0
N1659 N 0.71264 0.94549 0.60092 0.0
C1660 C 0.70009 0.92977 0.58594 0.0
C1661 C 0.69925 0.93099 0.54455 0.0
C1662 C 0.71214 0.94859 0.53306 0.0
C1663 C 0.72011 0.95714 0.5682 0.0
N1664 N 0.72963 0.93363 0.6608 0.0
C1665 C 0.73628 0.90355 0.65759 0.0
C1666 C 0.74154 0.91652 0.62504 0.0
C1667 C 0.73834 0.93154 0.62745 0.0
C1668 C 0.72901 0.90694 0.69277 0.0
C1669 C 0.72597 0.92197 0.69386 0.0
N1670 N 0.70587 0.96541 0.65654 0.0
C1671 C 0.67813 0.96871 0.64193 0.0
C1672 C 0.68628 0.98577 0.65848 0.0
C1673 C 0.70481 0.99257 0.67301 0.0
C1674 C 0.71432 0.98224 0.67172 0.0
C1675 C 0.68811 0.95888 0.6411 0.0
H1676 H 0.7284 0.98777 0.68362 0.0
H1677 H 0.68121 0.94573 0.62863 0.0
H1678 H 0.74202 0.94093 0.60149 0.0
H1679 H 0.7194 0.92335 0.72084 0.0
C1680 C 0.75612 0.97664 0.70596 0.0
C1681 C 0.73587 0.97572 0.56952 0.0
C1682 C 0.69167 0.93485 0.74922 0.0
C1683 C 0.68764 0.91532 0.61214 0.0
H1684 H 0.77353 0.006 0.58452 0.0
H1685 H 0.78554 1.0042 0.65732 0.0
H1686 H 0.74922 0.98232 0.78607 0.0
H1687 H 0.71288 0.96368 0.80561 0.0
H1688 H 0.66266 0.89714 0.73986 0.0
H1689 H 0.66035 0.88666 0.66534 0.0
H1690 H 0.68997 0.92053 0.52513 0.0
H1691 H 0.71547 0.95442 0.50241 0.0
H1692 H 0.74772 0.91492 0.59752 0.0
H1693 H 0.72462 0.89751 0.71887 0.0
H1694 H 0.66384 0.96261 0.63073 0.0
H1695 H 0.71198 0.00578 0.68545 0.0
C1696 C 0.03448 0.77813 0.63816 0.0
C1697 C 0.02137 0.78447 0.6372 0.0
C1698 C 0.02228 0.79185 0.67372 0.0
C1699 C 0.03575 0.78951 0.69484 0.0
N1700 N 0.04335 0.7812 0.67372 0.0
Co1701 Co 0.06264 0.77447 0.69234 0.0
N1702 N 0.05611 0.7752 0.74951 0.0
C1703 C 0.04689 0.78378 0.76327 0.0
C1704 C 0.04483 0.78237 0.80456 0.0
C1705 C 0.05349 0.7725 0.81757 0.0
C1706 C 0.0604 0.76843 0.78329 0.0
N1707 N 0.08217 0.76804 0.71092 0.0
C1708 C 0.08457 0.76216 0.74809 0.0
C1709 C 0.10055 0.75977 0.74821 0.0
C1710 C 0.10851 0.76467 0.70989 0.0
C1711 C 0.09699 0.76972 0.68844 0.0
N1712 N 0.06881 0.7738 0.63506 0.0
C1713 C 0.0849 0.7749 0.62001 0.0
C1714 C 0.08406 0.77265 0.57903 0.0
C1715 C 0.06632 0.76993 0.56814 0.0
C1716 C 0.05737 0.77065 0.60318 0.0
N1717 N 0.08193 0.80029 0.69179 0.0
C1718 C 0.11436 0.83479 0.6851 0.0
C1719 C 0.10088 0.82891 0.65456 0.0
C1720 C 0.08477 0.81167 0.65853 0.0
C1721 C 0.1104 0.82347 0.72019 0.0
C1722 C 0.09422 0.80646 0.72299 0.0
N1723 N 0.04392 0.74851 0.6921 0.0
C1724 C 0.03633 0.71888 0.67042 0.0
C1725 C 0.01782 0.71154 0.6861 0.0
C1726 C 0.01266 0.72304 0.70577 0.0
C1727 C 0.02589 0.74157 0.70807 0.0
C1728 C 0.0491 0.73716 0.6741 0.0
H1729 H 0.02155 0.7503 0.72245 0.0
H1730 H 0.06322 0.74212 0.66172 0.0
H1731 H 0.07507 0.80722 0.63383 0.0
H1732 H 0.09222 0.79797 0.74984 0.0
C1733 C 0.03827 0.79084 0.73652 0.0
C1734 C 0.03842 0.76917 0.60566 0.0
C1735 C 0.07295 0.76024 0.78426 0.0
C1736 C 0.09794 0.7735 0.64637 0.0
H1737 H 0.01187 0.78362 0.6133 0.0
H1738 H 0.01327 0.79715 0.6845 0.0
H1739 H 0.03759 0.78758 0.82298 0.0
H1740 H 0.05499 0.76913 0.8488 0.0
H1741 H 0.10602 0.75519 0.77344 0.0
H1742 H 0.12092 0.76413 0.69881 0.0
H1743 H 0.09454 0.77189 0.55982 0.0
H1744 H 0.06053 0.76749 0.5382 0.0
H1745 H 0.10316 0.83717 0.62697 0.0
H1746 H 0.12 0.82753 0.7452 0.0
H1747 H 0.041 0.71045 0.65555 0.0
H1748 H 0.99848 0.71784 0.71861 0.0
C1749 C 0.92894 0.56724 0.71634 0.0
C1750 C 0.90948 0.56098 0.71743 0.0
C1751 C 0.90299 0.55403 0.68057 0.0
C1752 C 0.9188 0.55653 0.65915 0.0
N1753 N 0.93474 0.56456 0.68036 0.0
Co1754 Co 0.96075 0.57128 0.66145 0.0
N1755 N 0.95346 0.57088 0.60432 0.0
C1756 C 0.93563 0.56252 0.5906 0.0
C1757 C 0.93494 0.56413 0.54935 0.0
C1758 C 0.95349 0.57391 0.53629 0.0
C1759 C 0.96451 0.57772 0.57051 0.0
N1760 N 0.98672 0.57773 0.6425 0.0
C1761 C 0.99498 0.58373 0.60533 0.0
C1762 C 0.01334 0.58607 0.6049 0.0
C1763 C 0.01642 0.58102 0.64301 0.0
C1764 C 0.99987 0.57593 0.66465 0.0
N1765 N 0.96766 0.57157 0.71866 0.0
C1766 C 0.98264 0.57032 0.73327 0.0
C1767 C 0.98401 0.57205 0.7744 0.0
C1768 C 0.96895 0.57458 0.78593 0.0
C1769 C 0.9593 0.57425 0.75108 0.0
N1770 N 0.95398 0.54546 0.66123 0.0
C1771 C 0.95033 0.51036 0.6664 0.0
C1772 C 0.94334 0.51652 0.6975 0.0
C1773 C 0.94517 0.53399 0.69421 0.0
C1774 C 0.95834 0.52196 0.63187 0.0
C1775 C 0.95996 0.53928 0.62984 0.0
N1776 N 0.96816 0.59723 0.66255 0.0
C1777 C 0.99015 0.62666 0.68549 0.0
C1778 C 0.9791 0.63414 0.66985 0.0
C1779 C 0.96253 0.62279 0.64962 0.0
C1780 C 0.95718 0.6043 0.64672 0.0
C1781 C 0.98463 0.60843 0.68108 0.0
H1782 H 0.94415 0.5957 0.63197 0.0
H1783 H 0.99372 0.60337 0.69327 0.0
H1784 H 0.94004 0.53845 0.71905 0.0
H1785 H 0.96682 0.54794 0.60338 0.0
C1786 C 0.91994 0.55544 0.61739 0.0
C1787 C 0.94179 0.57563 0.7493 0.0
C1788 C 0.98526 0.58577 0.56933 0.0
C1789 C 0.99706 0.57188 0.70662 0.0
H1790 H 0.90086 0.56158 0.74174 0.0
H1791 H 0.88866 0.54885 0.66987 0.0
H1792 H 0.92245 0.5591 0.531 0.0
H1793 H 0.95834 0.57741 0.50507 0.0
H1794 H 0.02335 0.59069 0.57957 0.0
H1795 H 0.02935 0.58144 0.65384 0.0
H1796 H 0.99521 0.57256 0.79338 0.0
H1797 H 0.96554 0.57658 0.81621 0.0
H1798 H 0.93667 0.50801 0.72447 0.0
H1799 H 0.9641 0.51803 0.60704 0.0
H1800 H 1.0032 0.63496 0.70071 0.0
H1801 H 0.95364 0.62808 0.63681 0.0
C1802 C 0.44062 0.36661 0.74553 0.0
C1803 C 0.4455 0.35304 0.74015 0.0
C1804 C 0.45448 0.35664 0.70308 0.0
C1805 C 0.45423 0.37186 0.68728 0.0
N1806 N 0.44558 0.37799 0.71224 0.0
Co1807 Co 0.43971 0.3979 0.69943 0.0
N1808 N 0.44203 0.3958 0.6409 0.0
C1809 C 0.45159 0.38839 0.62331 0.0
C1810 C 0.45103 0.3893 0.58192 0.0
C1811 C 0.44054 0.39792 0.5731 0.0
C1812 C 0.43524 0.40172 0.60983 0.0
N1813 N 0.4339 0.41781 0.68645 0.0
C1814 C 0.42774 0.42191 0.65149 0.0
C1815 C 0.42525 0.43699 0.65523 0.0
C1816 C 0.43026 0.44248 0.69391 0.0
C1817 C 0.43549 0.43047 0.71167 0.0
N1818 N 0.43749 0.39972 0.75806 0.0
C1819 C 0.4389 0.41422 0.77627 0.0
C1820 C 0.43631 0.41115 0.8175 0.0
C1821 C 0.43308 0.39368 0.82529 0.0
C1822 C 0.43378 0.38698 0.78826 0.0
N1823 N 0.467 0.41593 0.70006 0.0
C1824 C 0.50394 0.44559 0.70514 0.0
C1825 C 0.49653 0.43148 0.73536 0.0
C1826 C 0.47816 0.41669 0.73201 0.0
C1827 C 0.49259 0.44404 0.67182 0.0
C1828 C 0.47438 0.4293 0.6699 0.0
N1829 N 0.41236 0.38067 0.69883 0.0
C1830 C 0.38045 0.37413 0.71677 0.0
C1831 C 0.37271 0.35906 0.69299 0.0
C1832 C 0.38542 0.35478 0.67292 0.0
C1833 C 0.40517 0.36568 0.67646 0.0
C1834 C 0.40008 0.38464 0.71921 0.0
H1835 H 0.41464 0.36225 0.6604 0.0
H1836 H 0.40529 0.39644 0.73673 0.0
H1837 H 0.47275 0.40617 0.7559 0.0
H1838 H 0.46596 0.42923 0.64453 0.0
C1839 C 0.4575 0.37776 0.64646 0.0
C1840 C 0.432 0.36896 0.78261 0.0
C1841 C 0.42523 0.41225 0.61421 0.0
C1842 C 0.43847 0.4285 0.75313 0.0
H1843 H 0.44254 0.3414 0.75995 0.0
H1844 H 0.45925 0.34831 0.6882 0.0
H1845 H 0.45683 0.38371 0.56075 0.0
H1846 H 0.43732 0.40114 0.54309 0.0
H1847 H 0.42033 0.44333 0.6325 0.0
H1848 H 0.42939 0.45343 0.70786 0.0
H1849 H 0.4358 0.42015 0.83914 0.0
H1850 H 0.43041 0.38665 0.8547 0.0
H1851 H 0.50479 0.4319 0.76151 0.0
H1852 H 0.49741 0.45457 0.64785 0.0
H1853 H 0.37143 0.37831 0.73228 0.0
H1854 H 0.38017 0.34319 0.6544 0.0
C1855 C 0.57047 0.03088 0.74634 0.0
C1856 C 0.55428 0.01909 0.76879 0.0
C1857 C 0.55707 1.00498 0.78291 0.0
C1858 C 0.5748 0.00898 0.76853 0.0
N1859 N 0.58332 0.02476 0.74651 0.0
Co1860 Co 0.60886 0.03565 0.72028 0.0
N1861 N 0.6087 0.01193 0.72162 0.0
C1862 C 0.59696 0.99715 0.74481 0.0
C1863 C 0.60023 0.98276 0.74043 0.0
C1864 C 0.61519 0.98892 0.71336 0.0
C1865 C 0.62031 0.00686 0.7027 0.0
N1866 N 0.63463 0.04672 0.69457 0.0
C1867 C 0.64455 0.03888 0.67952 0.0
C1868 C 0.66269 0.05193 0.66693 0.0
C1869 C 0.66427 0.06839 0.67522 0.0
C1870 C 0.64706 0.06456 0.69227 0.0
N1871 N 0.60846 0.05912 0.71871 0.0
C1872 C 0.62368 0.07562 0.71364 0.0
C1873 C 0.61877 0.08918 0.71059 0.0
C1874 C 0.59927 0.08063 0.71393 0.0
C1875 C 0.5933 0.06225 0.71923 0.0
N1876 N 0.62083 0.0406 0.77306 0.0
C1877 C 0.64621 0.05697 0.83457 0.0
C1878 C 0.63037 0.05968 0.8295 0.0
C1879 C 0.61755 0.05099 0.79907 0.0
C1880 C 0.64789 0.04442 0.81128 0.0
C1881 C 0.63514 0.03646 0.7807 0.0
N1882 N 0.59762 0.03127 0.66724 0.0
C1883 C 0.59807 0.0425 0.59914 0.0
C1884 C 0.58408 0.02542 0.58881 0.0
C1885 C 0.57623 0.0115 0.61932 0.0
C1886 C 0.58311 0.01477 0.6585 0.0
C1887 C 0.60481 0.04504 0.6381 0.0
H1888 H 0.57712 1.00386 0.68141 0.0
H1889 H 0.61619 0.05816 0.64425 0.0
H1890 H 0.60581 0.05375 0.7947 0.0
H1891 H 0.638 0.02815 0.76135 0.0
C1892 C 0.58196 0.99678 0.76724 0.0
C1893 C 0.57342 0.04795 0.72613 0.0
C1894 C 0.63805 0.01926 0.68039 0.0
C1895 C 0.64138 0.07729 0.70258 0.0
H1896 H 0.54169 0.02044 0.77391 0.0
H1897 H 0.54693 0.99278 0.79961 0.0
H1898 H 0.59262 0.96935 0.75504 0.0
H1899 H 0.62206 0.98129 0.7039 0.0
H1900 H 0.67378 0.04974 0.65401 0.0
H1901 H 0.67645 0.08158 0.66911 0.0
H1902 H 0.62811 0.10347 0.70398 0.0
H1903 H 0.59059 0.08726 0.71184 0.0
H1904 H 0.62836 0.069 0.84773 0.0
H1905 H 0.65987 0.04187 0.81441 0.0
H1906 H 0.60425 0.05378 0.57697 0.0
H1907 H 0.56547 0.998 0.61273 0.0
C1908 C 1.00091 0.36696 0.96465 0.0
C1909 C 0.99112 0.3614 1.00213 0.0
H1910 H 0.02819 0.37895 0.93495 0.0
C1911 C 1.0007 0.36895 0.03738 0.0
H1912 H 0.99361 0.36153 0.93703 0.0
C1913 C 0.02042 0.37905 0.03608 0.0
C1914 C 0.03042 0.38151 0.99958 0.0
H1915 H 0.99339 0.36498 0.06657 0.0
H1916 H 0.02787 0.38252 0.06426 0.0
C1917 C 0.02063 0.37707 0.96338 0.0
C1918 C 0.65087 0.63662 0.05844 0.0
C1919 C 0.65671 0.63291 0.0219 0.0
H1920 H 0.63835 0.65099 0.086 0.0
C1921 C 0.64964 0.63602 0.98539 0.0
H1922 H 0.65619 0.63424 0.08687 0.0
C1923 C 0.63957 0.64565 0.98482 0.0
C1924 C 0.63665 0.65219 0.02079 0.0
H1925 H 0.654 0.6331 0.95696 0.0
H1926 H 0.63634 0.64994 0.95589 0.0
C1927 C 0.64084 0.6463 0.05788 0.0
C1928 C 0.34326 0.01596 0.02262 0.0
C1929 C 0.36294 0.02504 0.01563 0.0
H1930 H 0.3183 0.99093 0.03111 0.0
C1931 C 0.3731 0.01532 0.01747 0.0
H1932 H 0.33511 0.02317 0.02261 0.0
C1933 C 0.3634 0.99654 0.0246 0.0
C1934 C 0.34351 0.98742 0.02959 0.0
H1935 H 0.38835 0.02212 0.01242 0.0
H1936 H 0.37141 0.98919 0.02571 0.0
C1937 C 0.33363 0.9974 0.02855 0.0
C1938 C 1.00695 0.68014 0.05256 0.0
C1939 C 0.01898 0.68195 0.01956 0.0
H1940 H 0.97848 0.6721 0.07357 0.0
C1941 C 0.01064 0.67557 0.9823 0.0
H1942 H 0.01277 0.68459 0.08191 0.0
C1943 C 0.99099 0.66833 0.9778 0.0
C1944 C 0.97922 0.66731 1.01036 0.0
H1945 H 0.01936 0.67686 0.95613 0.0
H1946 H 0.985 0.66396 0.94851 0.0
C1947 C 0.98731 0.67292 0.04798 0.0
C1948 C 0.33416 0.3334 0.96963 0.0
C1949 C 0.34422 0.33129 1.00258 0.0
H1950 H 0.31379 0.34157 0.94902 0.0
C1951 C 0.3423 0.33754 0.04002 0.0
H1952 H 0.33549 0.32905 0.94015 0.0
C1953 C 0.32999 0.34486 0.0448 0.0
C1954 C 0.31934 0.34611 0.01231 0.0
H1955 H 0.3496 0.33601 0.06617 0.0
H1956 H 0.32824 0.34895 0.07431 0.0
C1957 C 0.32182 0.34067 0.97449 0.0
C1958 C 0.68383 0.99523 0.0122 0.0
C1959 C 0.66389 0.98525 1.01087 0.0
H1960 H 0.70843 0.02064 0.01802 0.0
C1961 C 0.65365 0.99499 0.0132 0.0
H1962 H 0.69258 0.98874 1.00967 0.0
C1963 C 0.66308 0.01396 0.01599 0.0
C1964 C 0.68306 0.02382 0.01704 0.0
H1965 H 0.6383 0.98802 0.01303 0.0
H1966 H 0.65468 0.02089 0.0166 0.0
C1967 C 0.69313 0.01395 0.01602 0.0
C1968 C 0.68357 0.70584 0.37579 0.0
C1969 C 0.69443 0.70877 0.34034 0.0
H1970 H 0.65579 0.69211 0.40318 0.0
C1971 C 0.6855 0.70439 0.30313 0.0
H1972 H 0.69034 0.70923 0.40472 0.0
C1973 C 0.66579 0.6945 0.30224 0.0
C1974 C 0.65504 0.68913 0.33854 0.0
H1975 H 0.69372 0.70657 0.27552 0.0
H1976 H 0.65912 0.68939 0.27387 0.0
C1977 C 0.66386 0.69608 0.37487 0.0
C1978 C 0.31486 0.96871 0.32164 0.0
C1979 C 0.32283 0.96624 0.35749 0.0
H1980 H 0.30173 0.98284 0.29234 0.0
C1981 C 0.31862 0.97142 0.39402 0.0
H1982 H 0.31797 0.96468 0.29325 0.0
C1983 C 0.30948 0.98191 0.3935 0.0
C1984 C 0.30448 0.98707 0.35649 0.0
H1985 H 0.32467 0.96957 0.42194 0.0
H1986 H 0.30836 0.98773 0.42117 0.0
C1987 C 0.30563 0.97911 0.32114 0.0
C1988 C 0.02869 0.32896 0.35314 0.0
C1989 C 0.00888 0.31985 0.36009 0.0
H1990 H 0.05344 0.35453 0.33903 0.0
C1991 C 0.99914 0.32995 0.36148 0.0
H1992 H 0.03665 0.3216 0.35249 0.0
C1993 C 0.00876 0.34851 0.35563 0.0
C1994 C 0.02824 0.35752 0.34613 0.0
H1995 H 0.98388 0.32359 0.36556 0.0
H1996 H 1.0007 0.35578 0.35719 0.0
C1997 C 0.03833 0.34776 0.34596 0.0
C1998 C 0.65646 0.99296 0.30832 0.0
C1999 C 0.64477 0.99221 0.34082 0.0
H2000 H 0.68485 1.00226 0.2856 0.0
C2001 C 0.65323 0.99901 0.37757 0.0
H2002 H 0.65028 0.98788 0.27957 0.0
C2003 C 0.673 0.00707 0.38128 0.0
C2004 C 0.68492 0.00877 0.34815 0.0
H2005 H 0.64458 0.99864 0.40306 0.0
H2006 H 0.67898 0.01237 0.41 0.0
C2007 C 0.67628 1.00115 0.31189 0.0
C2008 C 0.99716 0.67914 0.37792 0.0
C2009 C 0.98632 0.68035 0.34575 0.0
H2010 H 0.01674 0.67015 0.39876 0.0
C2011 C 0.98842 0.67466 0.30796 0.0
H2012 H 0.99568 0.6834 0.40743 0.0
C2013 C 1.00057 0.66719 0.3028 0.0
C2014 C 0.01082 0.66512 0.33543 0.0
H2015 H 0.98023 0.67549 0.28275 0.0
H2016 H 1.0016 0.66265 0.27335 0.0
C2017 C 0.00928 0.67163 0.37284 0.0
C2018 C 0.32881 0.34455 0.38459 0.0
C2019 C 0.33529 0.35685 0.35081 0.0
H2020 H 0.31599 0.31665 0.40621 0.0
C2021 C 0.3316 0.34999 0.312 0.0
H2022 H 0.33168 0.34943 0.41479 0.0
C2023 C 0.32232 0.33125 0.30706 0.0
C2024 C 0.3169 0.31896 0.34083 0.0
H2025 H 0.33661 0.35918 0.28543 0.0
H2026 H 0.32042 0.32639 0.27685 0.0
C2027 C 0.31989 0.32581 0.37965 0.0
C2028 C 0.33343 0.03255 0.70809 0.0
C2029 C 0.32425 0.02544 0.67221 0.0
H2030 H 0.36027 0.04588 0.7365 0.0
C2031 C 0.33452 0.03096 0.63532 0.0
H2032 H 0.3257 0.02848 0.73681 0.0
C2033 C 0.35424 0.04101 0.63514 0.0
C2034 C 0.3636 0.04539 0.67186 0.0
H2035 H 0.32753 0.02571 0.6073 0.0
H2036 H 0.36213 0.04316 0.60705 0.0
C2037 C 0.35315 0.04249 0.70793 0.0
C2038 C 0.97723 0.31642 0.72369 0.0
C2039 C 0.97174 0.32134 0.68699 0.0
H2040 H 0.99248 0.30396 0.75133 0.0
C2041 C 0.97216 0.31294 0.65178 0.0
H2042 H 0.97665 0.32255 0.7513 0.0
C2043 C 0.98107 0.30225 0.6519 0.0
C2044 C 0.98948 0.29994 0.68722 0.0
H2045 H 0.96789 0.31647 0.6232 0.0
H2046 H 0.98362 0.29786 0.62342 0.0
C2047 C 0.98606 0.30565 0.72382 0.0
C2048 C 0.7038 0.68205 0.64193 0.0
C2049 C 0.70821 0.69236 0.67616 0.0
H2050 H 0.69001 0.65544 0.61985 0.0
C2051 C 0.70552 0.68388 0.71481 0.0
H2052 H 0.70592 0.68848 0.61189 0.0
C2053 C 0.69633 0.66509 0.71935 0.0
C2054 C 0.69005 0.65475 0.68524 0.0
H2055 H 0.70879 0.69166 0.74153 0.0
H2056 H 0.69273 0.65863 0.74947 0.0
C2057 C 0.69485 0.66326 0.64647 0.0
C2058 C 0.33895 0.34614 0.72015 0.0
C2059 C 0.35163 0.34884 0.68777 0.0
H2060 H 0.31005 0.33735 0.73929 0.0
C2061 C 0.344 0.34309 0.64964 0.0
H2062 H 0.3442 0.35008 0.75012 0.0
C2063 C 0.32442 0.33567 0.64371 0.0
C2064 C 0.312 0.33385 0.67569 0.0
H2065 H 0.35323 0.34505 0.6239 0.0
H2066 H 0.319 0.33188 0.61377 0.0
C2067 C 0.31937 0.33876 0.71414 0.0
C2068 C 0.66189 0.9947 0.63267 0.0
C2069 C 0.67518 0.9959 0.66196 0.0
H2070 H 0.63986 1.0012 0.61544 0.0
C2071 C 0.67699 0.00611 0.69578 0.0
H2072 H 0.66021 0.98727 0.60587 0.0
C2073 C 0.66552 0.01432 0.70072 0.0
C2074 C 0.65193 0.01259 0.67204 0.0
H2075 H 0.68675 0.00718 0.71937 0.0
H2076 H 0.66678 0.02153 0.72773 0.0
C2077 C 0.65034 1.00285 0.63779 0.0
C2078 C 1.00027 0.68462 0.64386 0.0
C2079 C 1.00457 0.69186 0.68227 0.0
H2080 H 0.98831 0.66066 0.60986 0.0
C2081 C 0.99843 0.67986 0.71659 0.0
H2082 H 1.00499 0.69356 0.61688 0.0
C2083 C 0.98923 0.66105 0.71254 0.0
C2084 C 0.98561 0.65381 0.67409 0.0
H2085 H 1.00176 0.68503 0.74649 0.0
H2086 H 0.98556 0.65212 0.73947 0.0
C2087 C 0.9907 0.66581 0.63983 0.0
C2088 C 0.20466 0.36623 0.02738 0.0
C2089 C 0.21897 0.3788 0.05102 0.0
H2090 H 0.17677 0.35626 1.00445 0.0
C2091 C 0.2156 0.39174 0.06945 0.0
H2092 H 0.20663 0.35581 0.0136 0.0
C2093 C 0.19854 0.39237 0.06346 0.0
C2094 C 0.18411 0.37976 0.03967 0.0
H2095 H 0.22598 0.40116 0.08924 0.0
H2096 H 0.19676 0.4028 0.07756 0.0
C2097 C 0.18751 0.36662 0.02195 0.0
C2098 C 0.60332 0.79214 0.97989 0.0
C2099 C 0.61268 0.78901 0.01278 0.0
H2100 H 0.59452 0.81007 0.95027 0.0
C2101 C 0.61958 0.80179 0.04268 0.0
H2102 H 0.59794 0.78265 0.95619 0.0
C2103 C 0.61739 0.81737 0.03956 0.0
C2104 C 0.60852 0.82077 1.00611 0.0
H2105 H 0.62674 0.79976 0.06853 0.0
H2106 H 0.62322 0.82707 0.06276 0.0
C2107 C 0.60144 0.8079 0.97639 0.0
C2108 C 0.19826 0.79931 0.06829 0.0
C2109 C 0.19207 0.79035 0.03206 0.0
H2110 H 0.21899 0.82283 0.09698 0.0
C2111 C 0.20383 0.79793 0.99728 0.0
H2112 H 0.18956 0.79398 0.09564 0.0
C2113 C 0.22066 0.81442 0.99804 0.0
C2114 C 0.22635 0.82396 0.03361 0.0
H2115 H 0.19982 0.79129 0.96901 0.0
H2116 H 0.22906 0.81991 0.97034 0.0
C2117 C 0.21518 0.8159 0.06905 0.0
C2118 C 0.41093 0.21374 0.02272 0.0
C2119 C 0.40659 0.22114 0.98788 0.0
H2120 H 0.41442 0.19201 0.04999 0.0
C2121 C 0.40375 0.21203 0.95183 0.0
H2122 H 0.41363 0.2205 0.05084 0.0
C2123 C 0.40414 0.19547 0.95135 0.0
C2124 C 0.40741 0.1876 0.9869 0.0
H2125 H 0.40028 0.21723 0.92443 0.0
H2126 H 0.40097 0.18841 0.92359 0.0
C2127 C 0.41136 0.19731 0.02222 0.0
C2128 C 0.82084 0.21677 0.04024 0.0
C2129 C 0.83328 0.22094 1.00672 0.0
H2130 H 0.79446 0.19766 0.06966 0.0
C2131 C 0.82763 0.2088 0.97546 0.0
H2132 H 0.82479 0.22574 0.06496 0.0
C2133 C 0.8101 0.19284 0.97788 0.0
C2134 C 0.79793 0.18841 0.01197 0.0
H2135 H 0.8368 0.21163 0.94913 0.0
H2136 H 0.80636 0.18366 0.95362 0.0
C2137 C 0.80349 0.20064 0.04302 0.0
C2138 C 0.82832 0.61575 0.96009 0.0
C2139 C 0.84489 0.62968 0.97571 0.0
H2140 H 0.79814 0.6038 0.95447 0.0
C2141 C 0.84335 0.64299 0.99683 0.0
H2142 H 0.82912 0.60566 0.94237 0.0
C2143 C 0.8257 0.64232 1.00273 0.0
C2144 C 0.80892 0.62823 0.98781 0.0
H2145 H 0.85593 0.65411 1.00839 0.0
H2146 H 0.82536 0.65315 0.01836 0.0
C2147 C 0.81057 0.61493 0.96638 0.0
C2148 C 0.86008 0.71738 0.41661 0.0
C2149 C 0.85384 0.71863 0.37739 0.0
H2150 H 0.88084 0.71463 0.45306 0.0
C2151 C 0.86516 0.71895 0.34437 0.0
H2152 H 0.85189 0.71698 0.44295 0.0
C2153 C 0.88158 0.71721 0.35037 0.0
C2154 C 0.88722 0.71517 0.38948 0.0
H2155 H 0.8613 0.7204 0.31367 0.0
H2156 H 0.88967 0.71704 0.32435 0.0
C2157 C 0.87661 0.71582 0.42252 0.0
C2158 C 0.2794 0.14728 0.30603 0.0
C2159 C 0.28247 0.15782 0.33972 0.0
H2160 H 0.27853 0.12375 0.28207 0.0
C2161 C 0.28624 0.15142 0.37687 0.0
H2162 H 0.27601 0.15143 0.27713 0.0
C2163 C 0.28763 0.13536 0.37976 0.0
C2164 C 0.28536 0.12529 0.34555 0.0
H2165 H 0.28886 0.15918 0.40346 0.0
H2166 H 0.29122 0.13123 0.40844 0.0
C2167 C 0.28083 0.13132 0.30889 0.0
C2168 C 0.86906 0.12996 0.32669 0.0
C2169 C 0.85736 0.12212 0.36149 0.0
H2170 H 0.89411 0.1522 0.29982 0.0
C2171 C 0.86353 0.13101 0.39784 0.0
H2172 H 0.86511 0.12341 0.29831 0.0
C2173 C 0.88034 0.14773 0.39871 0.0
C2174 C 0.89144 0.15602 0.36326 0.0
H2175 H 0.8549 0.12549 0.42524 0.0
H2176 H 0.88413 0.15456 0.42676 0.0
C2177 C 0.88577 0.14657 0.32756 0.0
C2178 C 0.07573 0.52944 0.3494 0.0
C2179 C 0.07116 0.51974 0.31398 0.0
H2180 H 0.07881 0.55276 0.3788 0.0
C2181 C 0.06762 0.52777 0.27903 0.0
H2182 H 0.07903 0.52403 0.3767 0.0
C2183 C 0.06759 0.54447 0.28023 0.0
C2184 C 0.07107 0.55358 0.31642 0.0
H2185 H 0.06398 0.52074 0.25122 0.0
H2186 H 0.06393 0.5498 0.2533 0.0
C2187 C 0.07564 0.54601 0.35062 0.0
C2188 C 0.49627 0.53364 0.36418 0.0
C2189 C 0.4975 0.54986 0.34744 0.0
H2190 H 0.47873 0.5055 0.38018 0.0
C2191 C 0.4808 0.54934 0.33238 0.0
H2192 H 0.5088 0.53323 0.37504 0.0
C2193 C 0.46335 0.53319 0.33516 0.0
C2194 C 0.46212 0.51717 0.35326 0.0
H2195 H 0.48109 0.56151 0.31943 0.0
H2196 H 0.45073 0.53337 0.32411 0.0
C2197 C 0.47892 0.51763 0.36714 0.0
C2198 C 0.48359 0.95683 0.35464 0.0
C2199 C 0.47183 0.95545 0.32176 0.0
H2200 H 0.51016 0.95916 0.37458 0.0
C2201 C 0.47807 0.95381 0.28311 0.0
H2202 H 0.47927 0.95747 0.38516 0.0
C2203 C 0.49559 0.95409 0.2775 0.0
C2204 C 0.50768 0.95657 0.31004 0.0
H2205 H 0.46975 0.95282 0.25675 0.0
H2206 H 0.49996 0.9529 0.24737 0.0
C2207 C 0.50128 0.95754 0.34879 0.0
C2208 C 0.54205 0.03805 0.69313 0.0
C2209 C 0.55643 0.05047 0.71691 0.0
H2210 H 0.51424 0.02836 0.6701 0.0
C2211 C 0.55331 0.06365 0.73497 0.0
H2212 H 0.5438 0.02746 0.6796 0.0
C2213 C 0.53641 0.06457 0.72867 0.0
C2214 C 0.52184 0.05202 0.70498 0.0
H2215 H 0.5637 0.07295 0.75492 0.0
H2216 H 0.53482 0.07513 0.74264 0.0
C2217 C 0.52505 0.03871 0.68748 0.0
C2218 C 0.9485 0.46606 0.63858 0.0
C2219 C 0.9529 0.45982 0.67512 0.0
H2220 H 0.94377 0.48633 0.60735 0.0
C2221 C 0.95511 0.46972 0.7096 0.0
H2222 H 0.94626 0.45862 0.61156 0.0
C2223 C 0.95373 0.48578 0.70715 0.0
C2224 C 0.95004 0.49236 0.67017 0.0
H2225 H 0.95862 0.46545 0.7382 0.0
H2226 H 0.95628 0.49339 0.73397 0.0
C2227 C 0.94708 0.48203 0.63615 0.0
C2228 C 0.54562 0.488 0.74531 0.0
C2229 C 0.55672 0.49634 0.70989 0.0
H2230 H 0.52031 0.46557 0.77178 0.0
C2231 C 0.55123 0.48683 0.67425 0.0
H2232 H 0.54931 0.49487 0.77332 0.0
C2233 C 0.53468 0.47011 0.67336 0.0
C2234 C 0.52297 0.4622 0.7081 0.0
H2235 H 0.5596 0.49249 0.64656 0.0
H2236 H 0.53087 0.4635 0.64502 0.0
C2237 C 0.52896 0.47115 0.74442 0.0
C2238 C 0.73311 0.87681 0.61889 0.0
C2239 C 0.73735 0.88621 0.65483 0.0
H2240 H 0.72797 0.85251 0.59024 0.0
C2241 C 0.74127 0.87814 0.68918 0.0
H2242 H 0.72984 0.88238 0.59182 0.0
C2243 C 0.74002 0.86097 0.68831 0.0
C2244 C 0.73494 0.85121 0.65299 0.0
H2245 H 0.74508 0.885 0.71719 0.0
H2246 H 0.74282 0.8552 0.71568 0.0
C2247 C 0.73198 0.85959 0.61796 0.0
C2248 C 0.14973 0.85239 0.69361 0.0
C2249 C 0.1329 0.85201 0.68015 0.0
H2250 H 0.17961 0.86796 0.70162 0.0
C2251 C 0.13413 0.86812 0.66255 0.0
H2252 H 0.14954 0.84021 0.70623 0.0
C2253 C 0.1516 0.88428 0.65999 0.0
C2254 C 0.16829 0.88472 0.67485 0.0
H2255 H 0.1215 0.86837 0.6518 0.0
H2256 H 0.15189 0.89653 0.64752 0.0
C2257 C 0.16707 0.8684 0.69093 0.0
C2258 C 0.17006 0.29529 0.67256 0.0
C2259 C 0.17737 0.29657 0.63338 0.0
H2260 H 0.14687 0.29257 0.7095 0.0
C2261 C 0.16569 0.29508 0.60055 0.0
H2262 H 0.17859 0.29604 0.69847 0.0
C2263 C 0.1476 0.29353 0.60661 0.0
C2264 C 0.14047 0.29302 0.64583 0.0
H2265 H 0.17074 0.29553 0.57 0.0
H2266 H 0.13951 0.29328 0.58031 0.0
C2267 C 0.15188 0.29349 0.67874 0.0
C2268 C 0.08982 0.41301 0.20521 0.0
C2269 C 0.08151 0.42426 0.19641 0.0
H2270 H 0.10323 0.39808 0.18335 0.0
C2271 C 0.08063 0.42845 0.15476 0.0
H2272 H 0.09154 0.40976 0.23641 0.0
C2273 C 0.08623 0.42063 0.12384 0.0
C2274 C 0.09383 0.4088 0.13273 0.0
H2275 H 0.076 0.43818 0.14563 0.0
H2276 H 0.08467 0.42397 0.09262 0.0
C2277 C 0.09619 0.40585 0.17431 0.0
C2278 C 0.60523 0.66482 0.19917 0.0
C2279 C 0.58703 0.65832 0.21756 0.0
H2280 H 0.62498 0.68062 0.15053 0.0
C2281 C 0.57488 0.66393 0.19791 0.0
H2282 H 0.61514 0.66089 0.21245 0.0
C2283 C 0.58095 0.67615 0.16328 0.0
C2284 C 0.59904 0.68242 0.14453 0.0
H2285 H 0.56039 0.65866 0.20872 0.0
H2286 H 0.57134 0.68073 0.15136 0.0
C2287 C 0.61097 0.67634 0.1634 0.0
C2288 C 0.33347 0.9343 0.17482 0.0
C2289 C 0.32972 0.91794 0.15729 0.0
H2290 H 0.34798 0.95357 0.2202 0.0
C2291 C 0.33852 0.90843 0.17577 0.0
H2292 H 0.32703 0.94214 0.16235 0.0
C2293 C 0.35115 0.91534 0.20837 0.0
C2294 C 0.35488 0.93167 0.226 0.0
H2295 H 0.33559 0.89541 0.16528 0.0
H2296 H 0.35825 0.90788 0.21922 0.0
C2297 C 0.34565 0.94094 0.20827 0.0
C2298 C 0.43693 0.10229 0.85147 0.0
C2299 C 0.4186 0.09281 0.87001 0.0
H2300 H 0.45736 0.1026 0.80884 0.0
C2301 C 0.40606 0.07626 0.85301 0.0
H2302 H 0.44696 0.11548 0.86127 0.0
C2303 C 0.41165 0.06946 0.81992 0.0
C2304 C 0.43017 0.07872 0.80213 0.0
H2305 H 0.39177 0.06841 0.86551 0.0
H2306 H 0.40136 0.05675 0.80823 0.0
C2307 C 0.44274 0.09516 0.8195 0.0
C2308 C 0.9437 0.33534 0.86004 0.0
C2309 C 0.92553 0.32892 0.87864 0.0
H2310 H 0.9634 0.35093 0.81112 0.0
C2311 C 0.91359 0.33491 0.8594 0.0
H2312 H 0.95359 0.33137 0.87323 0.0
C2313 C 0.91974 0.34717 0.82476 0.0
C2314 C 0.93764 0.35308 0.80534 0.0
H2315 H 0.89927 0.33007 0.87094 0.0
H2316 H 0.91039 0.35224 0.81385 0.0
C2317 C 0.94945 0.34682 0.82414 0.0
C2318 C 0.68624 0.58561 0.87429 0.0
C2319 C 0.6909 0.60224 0.89159 0.0
H2320 H 0.66918 0.56543 0.83318 0.0
C2321 C 0.68255 0.61223 0.87338 0.0
H2322 H 0.69284 0.57767 0.88494 0.0
C2323 C 0.67031 0.60595 0.83993 0.0
C2324 C 0.66531 0.5891 0.82332 0.0
H2325 H 0.68558 0.62512 0.88497 0.0
H2326 H 0.66466 0.61439 0.82702 0.0
C2327 C 0.67322 0.5789 0.84236 0.0
C2328 C 0.91739 0.58753 0.83103 0.0
C2329 C 0.92796 0.6065 0.82897 0.0
H2330 H 0.9141 0.56276 0.80845 0.0
C2331 C 0.94348 0.61514 0.80153 0.0
H2332 H 0.90567 0.58055 0.85261 0.0
C2333 C 0.94822 0.605 0.77632 0.0
C2334 C 0.93759 0.58608 0.77835 0.0
H2335 H 0.95194 0.62975 0.79959 0.0
H2336 H 0.96001 0.61191 0.75488 0.0
C2337 C 0.92229 0.57739 0.80615 0.0
C2338 C 0.39992 0.3335 0.86304 0.0
C2339 C 0.41187 0.32683 0.87833 0.0
H2340 H 0.39694 0.35205 0.82039 0.0
C2341 C 0.43035 0.33408 0.86184 0.0
H2342 H 0.38555 0.32805 0.87502 0.0
C2343 C 0.43719 0.34848 0.83287 0.0
C2344 C 0.42517 0.35483 0.8166 0.0
H2345 H 0.43969 0.32879 0.8718 0.0
H2346 H 0.45186 0.35441 0.82257 0.0
C2347 C 0.40647 0.34731 0.83221 0.0
C2348 C 0.68598 0.09843 0.87795 0.0
C2349 C 0.69357 0.09074 0.90584 0.0
H2350 H 0.66459 0.09364 0.83433 0.0
C2351 C 0.68569 0.07186 0.91011 0.0
H2352 H 0.69199 0.113 0.87413 0.0
C2353 C 0.6701 0.06079 0.88735 0.0
C2354 C 0.66203 0.06847 0.86044 0.0
H2355 H 0.69129 0.06571 0.9318 0.0
H2356 H 0.66416 0.04623 0.89118 0.0
C2357 C 0.67022 0.08739 0.8557 0.0
C2358 C 0.61582 0.93566 0.1218 0.0
C2359 C 0.60711 0.91677 0.12135 0.0
H2360 H 0.61725 0.95848 0.15057 0.0
C2361 C 0.59309 0.90611 0.15046 0.0
H2362 H 0.62657 0.94404 0.09911 0.0
C2363 C 0.58726 0.91423 0.17887 0.0
C2364 C 0.59565 0.93322 0.17928 0.0
H2365 H 0.58604 0.89148 0.14998 0.0
H2366 H 0.57577 0.90555 0.19976 0.0
C2367 C 0.61022 0.94385 0.15072 0.0
C2368 C 0.09598 0.66524 0.1908 0.0
C2369 C 0.07769 0.65895 0.2076 0.0
H2370 H 0.11778 0.68453 0.15042 0.0
C2371 C 0.0663 0.66617 0.19189 0.0
H2372 H 0.10488 0.65953 0.20128 0.0
C2373 C 0.07325 0.67963 0.16033 0.0
C2374 C 0.09177 0.68622 0.14441 0.0
H2375 H 0.05209 0.66145 0.20415 0.0
H2376 H 0.06416 0.68485 0.14824 0.0
C2377 C 0.10323 0.67929 0.161 0.0
C2378 C 0.34706 0.43064 0.22 0.0
C2379 C 0.35442 0.42276 0.24803 0.0
H2380 H 0.32644 0.42616 0.17466 0.0
C2381 C 0.3467 0.40389 0.25128 0.0
H2382 H 0.35309 0.44521 0.21655 0.0
C2383 C 0.33158 0.393 0.22724 0.0
C2384 C 0.32387 0.40085 0.19983 0.0
H2385 H 0.35219 0.39759 0.2728 0.0
H2386 H 0.32587 0.37845 0.2301 0.0
C2387 C 0.33177 0.41977 0.19638 0.0
C2388 C 0.76684 0.76752 0.52111 0.0
C2389 C 0.74878 0.75735 0.5405 0.0
H2390 H 0.78758 0.76864 0.47828 0.0
C2391 C 0.73692 0.74033 0.52458 0.0
H2392 H 0.77628 0.78108 0.52988 0.0
C2393 C 0.74284 0.73384 0.49151 0.0
C2394 C 0.76112 0.74381 0.47289 0.0
H2395 H 0.72285 0.73191 0.53778 0.0
H2396 H 0.733 0.72079 0.48053 0.0
C2397 C 0.77309 0.76066 0.48939 0.0
C2398 C 0.28249 0.01202 0.49441 0.0
C2399 C 0.27064 0.01824 0.47554 0.0
H2400 H 0.28666 0.99651 0.54343 0.0
C2401 C 0.25266 0.0121 0.49482 0.0
H2402 H 0.29647 0.01623 0.48146 0.0
C2403 C 0.24654 0.99977 0.52938 0.0
C2404 C 0.25858 0.99397 0.54896 0.0
H2405 H 0.2432 0.01702 0.48383 0.0
H2406 H 0.23208 0.9946 0.54022 0.0
C2407 C 0.27674 1.00046 0.53028 0.0
C2408 C 0.01795 0.24921 0.53503 0.0
C2409 C 0.02156 0.26552 0.55257 0.0
H2410 H 1.0021 0.2289 0.49298 0.0
C2411 C 0.01192 0.27448 0.53529 0.0
H2412 H 0.02539 0.24201 0.54543 0.0
C2413 C 0.9994 0.26751 0.50244 0.0
C2414 C 0.99572 0.25112 0.48515 0.0
H2415 H 0.01413 0.28708 0.54717 0.0
H2416 H 0.99265 0.27511 0.49026 0.0
C2417 C 1.00496 0.24194 0.5032 0.0
C2418 C 0.28124 0.27177 0.44031 0.0
C2419 C 0.27026 0.25288 0.4432 0.0
H2420 H 0.28545 0.29699 0.46182 0.0
C2421 C 0.25486 0.24473 0.47085 0.0
H2422 H 0.29315 0.27828 0.41905 0.0
C2423 C 0.25017 0.25537 0.4946 0.0
C2424 C 0.26107 0.27431 0.49162 0.0
H2425 H 0.24643 0.23014 0.47397 0.0
H2426 H 0.23836 0.24878 0.5161 0.0
C2427 C 0.27673 0.28242 0.46442 0.0
C2428 C 0.73114 0.99562 0.51674 0.0
C2429 C 0.74225 0.98813 0.53258 0.0
H2430 H 0.72952 0.01452 0.47292 0.0
C2431 C 0.76026 0.99366 0.51515 0.0
H2432 H 0.71717 0.99151 0.52963 0.0
C2433 C 0.76778 0.00761 0.48523 0.0
C2434 C 0.75673 0.01504 0.46886 0.0
H2435 H 0.76899 0.98786 0.52629 0.0
H2436 H 0.78236 0.01264 0.47509 0.0
C2437 C 0.73828 0.00888 0.48481 0.0
C2438 C 0.01527 0.76532 0.55138 0.0
C2439 C 0.02312 0.75768 0.57876 0.0
H2440 H 0.99393 0.76046 0.50755 0.0
C2441 C 0.01546 0.73882 0.58255 0.0
H2442 H 0.02123 0.77987 0.54747 0.0
C2443 C 0.99996 0.72772 0.55966 0.0
C2444 C 0.9918 0.73533 0.53282 0.0
H2445 H 0.02132 0.73269 0.60358 0.0
H2446 H 0.99433 0.71318 0.56289 0.0
C2447 C 0.9996 0.75424 0.52888 0.0
C2448 C 0.09911 0.33773 0.86627 0.0
C2449 C 0.09134 0.34895 0.87688 0.0
H2450 H 0.10077 0.31996 0.82343 0.0
C2451 C 0.07904 0.35082 0.84875 0.0
H2452 H 0.1089 0.33609 0.88635 0.0
C2453 C 0.07427 0.34141 0.81236 0.0
C2454 C 0.08154 0.32969 0.80247 0.0
H2455 H 0.07282 0.35937 0.85522 0.0
H2456 H 0.06461 0.34314 0.79206 0.0
C2457 C 0.09435 0.32834 0.82998 0.0
C2458 C 0.6615 0.72885 0.84866 0.0
C2459 C 0.66306 0.74182 0.87613 0.0
H2460 H 0.67007 0.72354 0.79113 0.0
C2461 C 0.67505 0.76017 0.86385 0.0
H2462 H 0.65243 0.71461 0.85646 0.0
C2463 C 0.68535 0.7653 0.82642 0.0
C2464 C 0.68406 0.75232 0.79934 0.0
H2465 H 0.67649 0.77069 0.88336 0.0
H2466 H 0.69435 0.77955 0.81852 0.0
C2467 C 0.67171 0.73399 0.81104 0.0
C2468 C 0.25391 0.91766 0.88173 0.0
C2469 C 0.27248 0.9259 0.89712 0.0
H2470 H 0.23527 0.91667 0.83354 0.0
C2471 C 0.28671 0.93997 0.87217 0.0
H2472 H 0.24253 0.90639 0.89868 0.0
C2473 C 0.28256 0.94564 0.83408 0.0
C2474 C 0.26394 0.93762 0.8192 0.0
H2475 H 0.30123 0.9466 0.8821 0.0
H2476 H 0.29402 0.95641 0.81615 0.0
C2477 C 0.24972 0.92348 0.84388 0.0
C2478 C 0.34235 0.0687 0.14054 0.0
C2479 C 0.35413 0.08716 0.12894 0.0
H2480 H 0.32378 0.04882 0.18619 0.0
C2481 C 0.35515 0.09982 0.15664 0.0
H2482 H 0.341 0.05845 0.12029 0.0
C2483 C 0.34512 0.09429 0.19445 0.0
C2484 C 0.33377 0.0758 0.20674 0.0
H2485 H 0.36382 0.11415 0.14903 0.0
H2486 H 0.3463 0.10461 0.21427 0.0
C2487 C 0.33242 0.06314 0.17858 0.0
C2488 C 0.92536 0.24471 0.19925 0.0
C2489 C 0.93635 0.25735 0.22768 0.0
H2490 H 0.91234 0.23994 0.1409 0.0
C2491 C 0.94234 0.27575 0.21687 0.0
H2492 H 0.92034 0.23043 0.20617 0.0
C2493 C 0.93791 0.28129 0.17891 0.0
C2494 C 0.92721 0.26867 0.15008 0.0
H2495 H 0.95079 0.28597 0.23761 0.0
H2496 H 0.94313 0.29559 0.17185 0.0
C2497 C 0.92082 0.25022 0.16149 0.0
C2498 C 0.74543 0.68311 0.19328 0.0
C2499 C 0.75761 0.68115 0.22158 0.0
H2500 H 0.73138 0.6758 0.13614 0.0
C2501 C 0.76536 0.66989 0.21104 0.0
H2502 H 0.73933 0.69178 0.19957 0.0
C2503 C 0.76075 0.66065 0.17456 0.0
C2504 C 0.74819 0.66224 0.14672 0.0
H2505 H 0.77521 0.66831 0.23103 0.0
H2506 H 0.76722 0.65232 0.16791 0.0
C2507 C 0.74084 0.67388 0.1567 0.0
C2508 C 0.89455 0.66848 0.20427 0.0
C2509 C 0.91217 0.68269 0.215 0.0
H2510 H 0.87804 0.65171 0.15721 0.0
C2511 C 0.92621 0.69197 0.18448 0.0
H2512 H 0.88328 0.66124 0.22671 0.0
C2513 C 0.92296 0.68684 0.14471 0.0
C2514 C 0.90576 0.6721 0.13455 0.0
H2515 H 0.94013 0.70267 0.19142 0.0
H2516 H 0.93436 0.69373 0.12236 0.0
C2517 C 0.89144 0.66313 0.16446 0.0
C2518 C 0.3314 0.27155 0.17437 0.0
C2519 C 0.32722 0.25526 0.19574 0.0
H2520 H 0.34349 0.28819 0.11999 0.0
C2521 C 0.3307 0.24243 0.17734 0.0
H2522 H 0.32847 0.28144 0.18792 0.0
C2523 C 0.33885 0.24609 0.13847 0.0
C2524 C 0.34342 0.26255 0.11737 0.0
H2525 H 0.3272 0.22963 0.19319 0.0
H2526 H 0.34219 0.23636 0.12542 0.0
C2527 C 0.33961 0.27524 0.13551 0.0
C2528 C 0.73845 0.06845 0.21055 0.0
C2529 C 0.75453 0.08069 0.2307 0.0
H2530 H 0.72243 0.06339 0.15633 0.0
C2531 C 0.76709 0.09741 0.21141 0.0
H2532 H 0.72888 0.05531 0.22472 0.0
C2533 C 0.76363 0.10184 0.17234 0.0
C2534 C 0.74774 0.08946 0.15193 0.0
H2535 H 0.77986 0.10679 0.22612 0.0
H2536 H 0.77333 0.1149 0.15801 0.0
C2537 C 0.73499 0.07288 0.17143 0.0
C2538 C 0.66048 0.91975 0.78918 0.0
C2539 C 0.68042 0.92837 0.78854 0.0
H2540 H 0.63509 0.90386 0.82388 0.0
C2541 C 0.68941 0.93034 0.82587 0.0
H2542 H 0.65276 0.9177 0.76146 0.0
C2543 C 0.67916 0.92676 0.86215 0.0
C2544 C 0.65923 0.9174 0.86293 0.0
H2545 H 0.70446 0.93489 0.8276 0.0
H2546 H 0.68698 0.93062 0.88979 0.0
C2547 C 0.65016 0.91281 0.82558 0.0
C2548 C 0.0948 0.7688 0.84239 0.0
C2549 C 0.07832 0.75593 0.82441 0.0
H2550 H 0.11252 0.77505 0.89407 0.0
C2551 C 0.06609 0.73981 0.84626 0.0
H2552 H 0.10417 0.78148 0.82616 0.0
C2553 C 0.07065 0.73631 0.88522 0.0
C2554 C 0.08731 0.74903 0.90293 0.0
H2555 H 0.05314 0.72992 0.83304 0.0
H2556 H 0.06147 0.72348 0.90115 0.0
C2557 C 0.09933 0.76532 0.88133 0.0
C2558 C 0.25631 0.35227 0.81016 0.0
C2559 C 0.23905 0.33773 0.79957 0.0
H2560 H 0.27347 0.36774 0.85728 0.0
C2561 C 0.22472 0.32856 0.82938 0.0
H2562 H 0.26774 0.35929 0.78792 0.0
C2563 C 0.22781 0.33363 0.86942 0.0
C2564 C 0.24542 0.34778 0.88043 0.0
H2565 H 0.21128 0.31726 0.82182 0.0
H2566 H 0.21651 0.32631 0.89174 0.0
C2567 C 0.25954 0.35712 0.8501 0.0
C2568 C 0.02219 0.43305 0.48586 0.0
C2569 C 0.02081 0.42018 0.45841 0.0
H2570 H 0.01371 0.43826 0.54342 0.0
C2571 C 0.00891 0.40179 0.47045 0.0
H2572 H 0.03089 0.44733 0.47778 0.0
C2573 C 0.99919 0.39651 0.5087 0.0
C2574 C 1.00085 0.40938 0.53655 0.0
H2575 H 1.00722 0.39141 0.4503 0.0
H2576 H 0.99041 0.38223 0.51664 0.0
C2577 C 0.01234 0.42779 0.52385 0.0
C2578 C 0.61329 0.61252 0.5494 0.0
C2579 C 0.60661 0.59425 0.56273 0.0
H2580 H 0.61391 0.63149 0.5023 0.0
C2581 C 0.59427 0.58099 0.53691 0.0
H2582 H 0.62262 0.62317 0.56835 0.0
C2583 C 0.58911 0.58577 0.49911 0.0
C2584 C 0.59624 0.60403 0.48509 0.0
H2585 H 0.58849 0.5668 0.54611 0.0
H2586 H 0.57942 0.57505 0.48073 0.0
C2587 C 0.60826 0.6173 0.51135 0.0
C2588 C 0.40623 1.00369 0.54106 0.0
C2589 C 0.42532 0.01566 0.55005 0.0
H2590 H 0.38645 0.98519 0.49946 0.0
C2591 C 0.43925 0.01712 0.52173 0.0
H2592 H 0.39499 1.00184 0.56198 0.0
C2593 C 0.43433 0.00748 0.48576 0.0
C2594 C 0.41521 0.9959 0.47615 0.0
H2595 H 0.45413 0.02568 0.52757 0.0
H2596 H 0.44562 0.00903 0.46539 0.0
C2597 C 0.40129 0.99406 0.50498 0.0
C2598 C 0.59017 0.02444 0.47608 0.0
C2599 C 0.57215 0.01097 0.46587 0.0
H2600 H 0.6082 0.03913 0.52305 0.0
C2601 C 0.55733 1.00398 0.49511 0.0
H2602 H 0.60192 0.02982 0.45432 0.0
C2603 C 0.56086 0.00939 0.53477 0.0
C2604 C 0.5793 0.0218 0.54582 0.0
H2605 H 0.54326 0.99362 0.48778 0.0
H2606 H 0.54934 1.00334 0.55705 0.0
C2607 C 0.59375 0.02973 0.51568 0.0
C2608 C 0.99796 0.5769 0.51077 0.0
C2609 C 0.99485 0.58998 0.52907 0.0
H2610 H 0.00884 0.57033 0.45867 0.0
C2611 C 0.99914 0.60624 0.50743 0.0
H2612 H 0.99436 0.56412 0.52685 0.0
C2613 C 1.00705 0.60963 0.46833 0.0
C2614 C 0.01044 0.59666 0.45026 0.0
H2615 H 0.99648 0.61631 0.5209 0.0
H2616 H 0.01099 0.62254 0.45254 0.0
C2617 C 1.00581 0.58026 0.47169 0.0
C2618 C 0.42398 0.43605 0.51608 0.0
C2619 C 0.40804 0.42235 0.49825 0.0
H2620 H 0.44172 0.44363 0.56776 0.0
C2621 C 0.39667 0.40606 0.52044 0.0
H2622 H 0.43269 0.44883 0.49954 0.0
C2623 C 0.40161 0.40323 0.55955 0.0
C2624 C 0.41779 0.41678 0.57709 0.0
H2625 H 0.38414 0.3955 0.50731 0.0
H2626 H 0.39318 0.39027 0.57569 0.0
C2627 C 0.42888 0.43324 0.5552 0.0
loop_
_geom_bond_atom_site_label_1
_geom_bond_atom_site_label_2
_geom_bond_distance
_geom_bond_site_symmetry_2
_ccdc_geom_bond_type
C0 C1 1.443 . S
C0 N4 1.376 . S
C0 C38 1.389 . S
C1 C0 1.443 . S
C1 C2 1.340 . S
C1 H41 0.951 . S
C2 C1 1.340 . S
C2 C3 1.439 . S
C2 H42 0.950 . S
C3 C2 1.439 . S
C3 N4 1.374 . S
C3 C37 1.395 . S
N4 C0 1.376 . S
N4 C3 1.374 . S
N4 Co5 2.008 . S
Co5 N4 2.008 . S
Co5 N6 1.995 1_554 S
Co5 N11 2.008 1_554 S
Co5 N16 1.995 . S
Co5 N21 2.282 . S
Co5 N27 2.282 1_554 S
N6 Co5 1.995 1_556 S
N6 C7 1.376 1_556 S
N6 C10 1.383 . S
C7 N6 1.376 1_554 S
C7 C8 1.446 1_554 S
C7 C37 1.391 . S
C8 C7 1.446 1_556 S
C8 C9 1.339 . S
C8 H43 0.949 1_556 S
C9 C8 1.339 . S
C9 C10 1.439 . S
C9 H44 0.950 . S
C10 N6 1.383 . S
C10 C9 1.439 . S
C10 C39 1.392 . S
N11 Co5 2.008 1_556 S
N11 C12 1.376 . S
N11 C15 1.374 . S
C12 N11 1.376 . S
C12 C13 1.443 . S
C12 C39 1.389 . S
C13 C12 1.443 . S
C13 C14 1.340 . S
C13 H45 0.951 . S
C14 C13 1.340 . S
C14 C15 1.439 . S
C14 H46 0.950 . S
C15 N11 1.374 . S
C15 C14 1.439 . S
C15 C40 1.395 . S
N16 Co5 1.995 . S
N16 C17 1.376 1_554 S
N16 C20 1.383 . S
C17 N16 1.376 1_556 S
C17 C18 1.446 1_556 S
C17 C40 1.391 . S
C18 C17 1.446 1_554 S
C18 C19 1.339 . S
C18 H47 0.949 1_554 S
C19 C18 1.339 . S
C19 C20 1.439 . S
C19 H48 0.950 . S
C20 N16 1.383 . S
C20 C19 1.439 . S
C20 C38 1.392 . S
N21 Co5 2.282 . S
N21 C24 1.332 1_554 S
N21 C26 1.332 . S
C22 C23 1.386 . S
C22 C25 1.381 1_556 S
C23 C22 1.386 . S
C23 C24 1.382 . S
C23 H49 0.950 . S
C24 N21 1.332 1_556 S
C24 C23 1.382 . S
C24 H35 0.952 . S
C25 C22 1.381 1_554 S
C25 C26 1.386 . S
C25 H50 0.954 . S
C26 N21 1.332 . S
C26 C25 1.386 . S
C26 H36 0.948 . S
N27 Co5 2.282 1_556 S
N27 C31 1.332 1_556 S
N27 C32 1.332 . S
C28 C29 1.383 1_556 S
C28 C32 1.385 . S
C28 H51 0.953 . S
C29 C28 1.383 1_554 S
C29 C30 1.386 . S
C30 C29 1.386 . S
C30 C31 1.382 . S
C30 H52 0.950 . S
C31 N27 1.332 1_554 S
C31 C30 1.382 . S
C31 H33 0.952 . S
C32 N27 1.332 . S
C32 C28 1.385 . S
C32 H34 0.948 . S
H33 C31 0.952 . S
H34 C32 0.948 . S
H35 C24 0.952 . S
H36 C26 0.948 . S
C37 C3 1.395 . S
C37 C7 1.391 . S
C38 C0 1.389 . S
C38 C20 1.392 . S
C39 C10 1.392 . S
C39 C12 1.389 . S
C40 C15 1.395 . S
C40 C17 1.391 . S
H41 C1 0.951 . S
H42 C2 0.950 . S
H43 C8 0.949 1_554 S
H44 C9 0.950 . S
H45 C13 0.951 . S
H46 C14 0.950 . S
H47 C18 0.949 1_556 S
H48 C19 0.950 . S
H49 C23 0.950 . S
H50 C25 0.954 . S
H51 C28 0.953 . S
H52 C30 0.950 . S
C53 C54 1.443 . S
C53 N57 1.376 . S
C53 C91 1.389 . S
C54 C53 1.443 . S
C54 C55 1.340 . S
C54 H94 0.951 . S
C55 C54 1.340 . S
C55 C56 1.439 . S
C55 H95 0.950 . S
C56 C55 1.439 . S
C56 N57 1.374 . S
C56 C90 1.395 . S
N57 C53 1.376 . S
N57 C56 1.374 . S
N57 Co58 2.008 . S
Co58 N57 2.008 . S
Co58 N59 1.995 1_554 S
Co58 N64 2.008 1_554 S
Co58 N69 1.995 . S
Co58 N74 2.282 . S
Co58 N80 2.282 1_554 S
N59 Co58 1.995 1_556 S
N59 C60 1.376 1_556 S
N59 C63 1.383 . S
C60 N59 1.376 1_554 S
C60 C61 1.446 1_554 S
C60 C90 1.391 . S
C61 C60 1.446 1_556 S
C61 C62 1.339 . S
C61 H96 0.949 . S
C62 C61 1.339 . S
C62 C63 1.439 . S
C62 H97 0.950 . S
C63 N59 1.383 . S
C63 C62 1.439 . S
C63 C92 1.392 . S
N64 Co58 2.008 1_556 S
N64 C65 1.376 . S
N64 C68 1.374 . S
C65 N64 1.376 . S
C65 C66 1.443 . S
C65 C92 1.389 . S
C66 C65 1.443 . S
C66 C67 1.340 . S
C66 H98 0.951 . S
C67 C66 1.340 . S
C67 C68 1.439 . S
C67 H99 0.950 . S
C68 N64 1.374 . S
C68 C67 1.439 . S
C68 C93 1.395 . S
N69 Co58 1.995 . S
N69 C70 1.376 1_554 S
N69 C73 1.383 . S
C70 N69 1.376 1_556 S
C70 C71 1.446 1_556 S
C70 C93 1.391 . S
C71 C70 1.446 1_554 S
C71 C72 1.339 . S
C71 H100 0.949 . S
C72 C71 1.339 . S
C72 C73 1.439 . S
C72 H101 0.950 . S
C73 N69 1.383 . S
C73 C72 1.439 . S
C73 C91 1.392 . S
N74 Co58 2.282 . S
N74 C77 1.332 1_554 S
N74 C79 1.332 . S
C75 C76 1.386 . S
C75 C78 1.388 . S
C76 C75 1.386 . S
C76 C77 1.382 . S
C76 H102 0.950 . S
C77 N74 1.332 1_556 S
C77 C76 1.382 . S
C77 H88 0.952 . S
C78 C75 1.388 . S
C78 C79 1.382 1_556 S
C78 H103 0.950 . S
C79 N74 1.332 . S
C79 C78 1.382 1_554 S
C79 H89 0.948 . S
N80 Co58 2.282 1_556 S
N80 C84 1.332 1_556 S
N80 C85 1.332 . S
C81 C82 1.388 . S
C81 C85 1.382 1_554 S
C81 H104 0.950 . S
C82 C81 1.388 . S
C82 C83 1.386 . S
C83 C82 1.386 . S
C83 C84 1.382 . S
C83 H105 0.950 . S
C84 N80 1.332 1_554 S
C84 C83 1.382 . S
C84 H86 0.952 . S
C85 N80 1.332 . S
C85 C81 1.382 1_556 S
C85 H87 0.948 . S
H86 C84 0.952 . S
H87 C85 0.948 . S
H88 C77 0.952 . S
H89 C79 0.948 . S
C90 C56 1.395 . S
C90 C60 1.391 . S
C91 C53 1.389 . S
C91 C73 1.392 . S
C92 C63 1.392 . S
C92 C65 1.389 . S
C93 C68 1.395 . S
C93 C70 1.391 . S
H94 C54 0.951 . S
H95 C55 0.950 . S
H96 C61 0.949 . S
H97 C62 0.950 . S
H98 C66 0.951 . S
H99 C67 0.950 . S
H100 C71 0.949 . S
H101 C72 0.950 . S
H102 C76 0.950 . S
H103 C78 0.950 . S
H104 C81 0.950 . S
H105 C83 0.950 . S
C106 C107 1.443 . S
C106 N110 1.376 . S
C106 C144 1.389 . S
C107 C106 1.443 . S
C107 C108 1.340 . S
C107 H147 0.951 . S
C108 C107 1.340 . S
C108 C109 1.439 . S
C108 H148 0.950 . S
C109 C108 1.439 . S
C109 N110 1.374 . S
C109 C143 1.395 . S
N110 C106 1.376 . S
N110 C109 1.374 . S
N110 Co111 2.008 . S
Co111 N110 2.008 . S
Co111 N112 1.995 1_554 S
Co111 N117 2.008 1_554 S
Co111 N122 1.995 . S
Co111 N127 2.282 . S
Co111 N133 2.282 1_554 S
N112 Co111 1.995 1_556 S
N112 C113 1.376 1_556 S
N112 C116 1.383 . S
C113 N112 1.376 1_554 S
C113 C114 1.446 1_554 S
C113 C143 1.391 . S
C114 C113 1.446 1_556 S
C114 C115 1.339 . S
C114 H149 0.949 . S
C115 C114 1.339 . S
C115 C116 1.439 . S
C115 H150 0.950 . S
C116 N112 1.383 . S
C116 C115 1.439 . S
C116 C145 1.392 . S
N117 Co111 2.008 1_556 S
N117 C118 1.376 . S
N117 C121 1.374 . S
C118 N117 1.376 . S
C118 C119 1.443 . S
C118 C145 1.389 . S
C119 C118 1.443 . S
C119 C120 1.340 . S
C119 H151 0.951 . S
C120 C119 1.340 . S
C120 C121 1.439 . S
C120 H152 0.950 . S
C121 N117 1.374 . S
C121 C120 1.439 . S
C121 C146 1.395 . S
N122 Co111 1.995 . S
N122 C123 1.376 1_554 S
N122 C126 1.383 . S
C123 N122 1.376 1_556 S
C123 C124 1.446 1_556 S
C123 C146 1.391 . S
C124 C123 1.446 1_554 S
C124 C125 1.339 . S
C124 H153 0.949 . S
C125 C124 1.339 . S
C125 C126 1.439 . S
C125 H154 0.950 . S
C126 N122 1.383 . S
C126 C125 1.439 . S
C126 C144 1.392 . S
N127 Co111 2.282 . S
N127 C130 1.332 1_554 S
N127 C132 1.332 . S
C128 C129 1.386 . S
C128 C131 1.386 1_556 S
C129 C128 1.386 . S
C129 C130 1.382 . S
C129 H155 0.950 . S
C130 N127 1.332 1_556 S
C130 C129 1.382 . S
C130 H141 0.952 . S
C131 C128 1.386 1_554 S
C131 C132 1.384 . S
C131 H156 0.951 . S
C132 N127 1.332 . S
C132 C131 1.384 . S
C132 H142 0.948 . S
N133 Co111 2.282 1_556 S
N133 C137 1.332 1_556 S
N133 C138 1.332 . S
C134 C135 1.388 1_556 S
C134 C138 1.383 . S
C134 H157 0.950 . S
C135 C134 1.388 1_554 S
C135 C136 1.386 . S
C136 C135 1.386 . S
C136 C137 1.382 . S
C136 H158 0.950 . S
C137 N133 1.332 1_554 S
C137 C136 1.382 . S
C137 H139 0.952 . S
C138 N133 1.332 . S
C138 C134 1.383 . S
C138 H140 0.948 . S
H139 C137 0.952 . S
H140 C138 0.948 . S
H141 C130 0.952 . S
H142 C132 0.948 . S
C143 C109 1.395 . S
C143 C113 1.391 . S
C144 C106 1.389 . S
C144 C126 1.392 . S
C145 C116 1.392 . S
C145 C118 1.389 . S
C146 C121 1.395 . S
C146 C123 1.391 . S
H147 C107 0.951 . S
H148 C108 0.950 . S
H149 C114 0.949 . S
H150 C115 0.950 . S
H151 C119 0.951 . S
H152 C120 0.950 . S
H153 C124 0.949 . S
H154 C125 0.950 . S
H155 C129 0.950 . S
H156 C131 0.951 . S
H157 C134 0.950 . S
H158 C136 0.950 . S
C159 C160 1.443 . S
C159 N163 1.376 . S
C159 C197 1.389 . S
C160 C159 1.443 . S
C160 C161 1.340 . S
C160 H200 0.951 . S
C161 C160 1.340 . S
C161 C162 1.439 . S
C161 H201 0.950 . S
C162 C161 1.439 . S
C162 N163 1.374 . S
C162 C196 1.395 . S
N163 C159 1.376 . S
N163 C162 1.374 . S
N163 Co164 2.008 . S
Co164 N163 2.008 . S
Co164 N165 1.995 1_556 S
Co164 N170 2.008 1_556 S
Co164 N175 1.995 . S
Co164 N180 2.282 . S
Co164 N186 2.282 1_556 S
N165 Co164 1.995 1_554 S
N165 C166 1.376 1_554 S
N165 C169 1.383 . S
C166 N165 1.376 1_556 S
C166 C167 1.446 1_556 S
C166 C196 1.391 . S
C167 C166 1.446 1_554 S
C167 C168 1.339 . S
C167 H202 0.949 . S
C168 C167 1.339 . S
C168 C169 1.439 . S
C168 H203 0.950 . S
C169 N165 1.383 . S
C169 C168 1.439 . S
C169 C198 1.392 . S
N170 Co164 2.008 1_554 S
N170 C171 1.376 . S
N170 C174 1.374 . S
C171 N170 1.376 . S
C171 C172 1.443 . S
C171 C198 1.389 . S
C172 C171 1.443 . S
C172 C173 1.340 . S
C172 H204 0.951 . S
C173 C172 1.340 . S
C173 C174 1.439 . S
C173 H205 0.950 . S
C174 N170 1.374 . S
C174 C173 1.439 . S
C174 C199 1.395 . S
N175 Co164 1.995 . S
N175 C176 1.376 1_556 S
N175 C179 1.383 . S
C176 N175 1.376 1_554 S
C176 C177 1.446 1_554 S
C176 C199 1.391 . S
C177 C176 1.446 1_556 S
C177 C178 1.339 . S
C177 H206 0.949 . S
C178 C177 1.339 . S
C178 C179 1.439 . S
C178 H207 0.950 . S
C179 N175 1.383 . S
C179 C178 1.439 . S
C179 C197 1.392 . S
N180 Co164 2.282 . S
N180 C183 1.332 1_556 S
N180 C185 1.332 . S
C181 C182 1.386 . S
C181 C184 1.386 1_554 S
C182 C181 1.386 . S
C182 C183 1.382 . S
C182 H208 0.950 . S
C183 N180 1.332 1_554 S
C183 C182 1.382 . S
C183 H194 0.952 . S
C184 C181 1.386 1_556 S
C184 C185 1.384 . S
C184 H209 0.951 . S
C185 N180 1.332 . S
C185 C184 1.384 . S
C185 H195 0.948 . S
N186 Co164 2.282 1_554 S
N186 C190 1.332 1_554 S
N186 C191 1.332 . S
C187 C188 1.388 1_554 S
C187 C191 1.383 . S
C187 H210 0.950 . S
C188 C187 1.388 1_556 S
C188 C189 1.386 . S
C189 C188 1.386 . S
C189 C190 1.382 . S
C189 H211 0.950 . S
C190 N186 1.332 1_556 S
C190 C189 1.382 . S
C190 H192 0.952 . S
C191 N186 1.332 . S
C191 C187 1.383 . S
C191 H193 0.948 . S
H192 C190 0.952 . S
H193 C191 0.948 . S
H194 C183 0.952 . S
H195 C185 0.948 . S
C196 C162 1.395 . S
C196 C166 1.391 . S
C197 C159 1.389 . S
C197 C179 1.392 . S
C198 C169 1.392 . S
C198 C171 1.389 . S
C199 C174 1.395 . S
C199 C176 1.391 . S
H200 C160 0.951 . S
H201 C161 0.950 . S
H202 C167 0.949 . S
H203 C168 0.950 . S
H204 C172 0.951 . S
H205 C173 0.950 . S
H206 C177 0.949 . S
H207 C178 0.950 . S
H208 C182 0.950 . S
H209 C184 0.951 . S
H210 C187 0.950 . S
H211 C189 0.950 . S
C212 C213 1.443 . S
C212 N216 1.376 . S
C212 C250 1.389 . S
C213 C212 1.443 . S
C213 C214 1.340 . S
C213 H253 0.951 . S
C214 C213 1.340 . S
C214 C215 1.439 . S
C214 H254 0.950 . S
C215 C214 1.439 . S
C215 N216 1.374 . S
C215 C249 1.395 . S
N216 C212 1.376 . S
N216 C215 1.374 . S
N216 Co217 2.008 . S
Co217 N216 2.008 . S
Co217 N218 1.995 1_556 S
Co217 N223 2.008 1_556 S
Co217 N228 1.995 . S
Co217 N233 2.282 . S
Co217 N239 2.282 1_556 S
N218 Co217 1.995 1_554 S
N218 C219 1.376 1_554 S
N218 C222 1.383 . S
C219 N218 1.376 1_556 S
C219 C220 1.446 1_556 S
C219 C249 1.391 . S
C220 C219 1.446 1_554 S
C220 C221 1.339 . S
C220 H255 0.949 . S
C221 C220 1.339 . S
C221 C222 1.439 . S
C221 H256 0.950 . S
C222 N218 1.383 . S
C222 C221 1.439 . S
C222 C251 1.392 . S
N223 Co217 2.008 1_554 S
N223 C224 1.376 . S
N223 C227 1.374 . S
C224 N223 1.376 . S
C224 C225 1.443 . S
C224 C251 1.389 . S
C225 C224 1.443 . S
C225 C226 1.340 . S
C225 H257 0.951 . S
C226 C225 1.340 . S
C226 C227 1.439 . S
C226 H258 0.950 . S
C227 N223 1.374 . S
C227 C226 1.439 . S
C227 C252 1.395 . S
N228 Co217 1.995 . S
N228 C229 1.376 1_556 S
N228 C232 1.383 . S
C229 N228 1.376 1_554 S
C229 C230 1.446 1_554 S
C229 C252 1.391 . S
C230 C229 1.446 1_556 S
C230 C231 1.339 . S
C230 H259 0.949 . S
C231 C230 1.339 . S
C231 C232 1.439 . S
C231 H260 0.950 . S
C232 N228 1.383 . S
C232 C231 1.439 . S
C232 C250 1.392 . S
N233 Co217 2.282 . S
N233 C236 1.332 1_556 S
N233 C238 1.332 . S
C234 C235 1.386 . S
C234 C237 1.388 . S
C235 C234 1.386 . S
C235 C236 1.382 . S
C235 H261 0.950 . S
C236 N233 1.332 1_554 S
C236 C235 1.382 . S
C236 H247 0.952 . S
C237 C234 1.388 . S
C237 C238 1.382 1_554 S
C237 H262 0.950 . S
C238 N233 1.332 . S
C238 C237 1.382 1_556 S
C238 H248 0.948 . S
N239 Co217 2.282 1_554 S
N239 C243 1.332 1_554 S
N239 C244 1.332 . S
C240 C241 1.388 . S
C240 C244 1.382 1_556 S
C240 H263 0.950 . S
C241 C240 1.388 . S
C241 C242 1.386 . S
C242 C241 1.386 . S
C242 C243 1.382 . S
C242 H264 0.950 . S
C243 N239 1.332 1_556 S
C243 C242 1.382 . S
C243 H245 0.952 . S
C244 N239 1.332 . S
C244 C240 1.382 1_554 S
C244 H246 0.948 . S
H245 C243 0.952 . S
H246 C244 0.948 . S
H247 C236 0.952 . S
H248 C238 0.948 . S
C249 C215 1.395 . S
C249 C219 1.391 . S
C250 C212 1.389 . S
C250 C232 1.392 . S
C251 C222 1.392 . S
C251 C224 1.389 . S
C252 C227 1.395 . S
C252 C229 1.391 . S
H253 C213 0.951 . S
H254 C214 0.950 . S
H255 C220 0.949 . S
H256 C221 0.950 . S
H257 C225 0.951 . S
H258 C226 0.950 . S
H259 C230 0.949 . S
H260 C231 0.950 . S
H261 C235 0.950 . S
H262 C237 0.950 . S
H263 C240 0.950 . S
H264 C242 0.950 . S
C265 C266 1.443 . S
C265 N269 1.376 . S
C265 C303 1.389 . S
C266 C265 1.443 . S
C266 C267 1.340 . S
C266 H306 0.951 . S
C267 C266 1.340 . S
C267 C268 1.439 . S
C267 H307 0.950 . S
C268 C267 1.439 . S
C268 N269 1.374 . S
C268 C302 1.395 . S
N269 C265 1.376 . S
N269 C268 1.374 . S
N269 Co270 2.008 . S
Co270 N269 2.008 . S
Co270 N271 1.995 1_556 S
Co270 N276 2.008 1_556 S
Co270 N281 1.995 . S
Co270 N286 2.282 . S
Co270 N292 2.282 1_556 S
N271 Co270 1.995 1_554 S
N271 C272 1.376 1_554 S
N271 C275 1.383 . S
C272 N271 1.376 1_556 S
C272 C273 1.446 1_556 S
C272 C302 1.391 . S
C273 C272 1.446 1_554 S
C273 C274 1.339 . S
C273 H308 0.949 1_554 S
C274 C273 1.339 . S
C274 C275 1.439 . S
C274 H309 0.950 . S
C275 N271 1.383 . S
C275 C274 1.439 . S
C275 C304 1.392 . S
N276 Co270 2.008 1_554 S
N276 C277 1.376 . S
N276 C280 1.374 . S
C277 N276 1.376 . S
C277 C278 1.443 . S
C277 C304 1.389 . S
C278 C277 1.443 . S
C278 C279 1.340 . S
C278 H310 0.951 . S
C279 C278 1.340 . S
C279 C280 1.439 . S
C279 H311 0.950 . S
C280 N276 1.374 . S
C280 C279 1.439 . S
C280 C305 1.395 . S
N281 Co270 1.995 . S
N281 C282 1.376 1_556 S
N281 C285 1.383 . S
C282 N281 1.376 1_554 S
C282 C283 1.446 1_554 S
C282 C305 1.391 . S
C283 C282 1.446 1_556 S
C283 C284 1.339 . S
C283 H312 0.949 1_556 S
C284 C283 1.339 . S
C284 C285 1.439 . S
C284 H313 0.950 . S
C285 N281 1.383 . S
C285 C284 1.439 . S
C285 C303 1.392 . S
N286 Co270 2.282 . S
N286 C289 1.332 1_556 S
N286 C291 1.332 . S
C287 C288 1.386 . S
C287 C290 1.381 1_554 S
C288 C287 1.386 . S
C288 C289 1.382 . S
C288 H314 0.950 . S
C289 N286 1.332 1_554 S
C289 C288 1.382 . S
C289 H300 0.952 . S
C290 C287 1.381 1_556 S
C290 C291 1.386 . S
C290 H315 0.954 . S
C291 N286 1.332 . S
C291 C290 1.386 . S
C291 H301 0.948 . S
N292 Co270 2.282 1_554 S
N292 C296 1.332 1_554 S
N292 C297 1.332 . S
C293 C294 1.383 1_554 S
C293 C297 1.385 . S
C293 H316 0.953 . S
C294 C293 1.383 1_556 S
C294 C295 1.386 . S
C295 C294 1.386 . S
C295 C296 1.382 . S
C295 H317 0.950 . S
C296 N292 1.332 1_556 S
C296 C295 1.382 . S
C296 H298 0.952 . S
C297 N292 1.332 . S
C297 C293 1.385 . S
C297 H299 0.948 . S
H298 C296 0.952 . S
H299 C297 0.948 . S
H300 C289 0.952 . S
H301 C291 0.948 . S
C302 C268 1.395 . S
C302 C272 1.391 . S
C303 C265 1.389 . S
C303 C285 1.392 . S
C304 C275 1.392 . S
C304 C277 1.389 . S
C305 C280 1.395 . S
C305 C282 1.391 . S
H306 C266 0.951 . S
H307 C267 0.950 . S
H308 C273 0.949 1_556 S
H309 C274 0.950 . S
H310 C278 0.951 . S
H311 C279 0.950 . S
H312 C283 0.949 1_554 S
H313 C284 0.950 . S
H314 C288 0.950 . S
H315 C290 0.954 . S
H316 C293 0.953 . S
H317 C295 0.950 . S
C318 C319 1.443 . S
C318 N322 1.376 . S
C318 C356 1.389 1_556 S
C319 C318 1.443 . S
C319 C320 1.340 . S
C319 H359 0.951 . S
C320 C319 1.340 . S
C320 C321 1.439 . S
C320 H360 0.950 . S
C321 C320 1.439 . S
C321 N322 1.374 . S
C321 C355 1.395 . S
N322 C318 1.376 . S
N322 C321 1.374 . S
N322 Co323 2.008 . S
Co323 N322 2.008 . S
Co323 N324 1.995 . S
Co323 N329 2.008 1_556 S
Co323 N334 1.995 1_556 S
Co323 N339 2.282 . S
Co323 N345 2.282 1_556 S
N324 Co323 1.995 . S
N324 C325 1.376 . S
N324 C328 1.383 . S
C325 N324 1.376 . S
C325 C326 1.446 . S
C325 C355 1.391 . S
C326 C325 1.446 . S
C326 C327 1.339 . S
C326 H361 0.949 . S
C327 C326 1.339 . S
C327 C328 1.439 . S
C327 H362 0.950 . S
C328 N324 1.383 . S
C328 C327 1.439 . S
C328 C357 1.392 . S
N329 Co323 2.008 1_554 S
N329 C330 1.376 . S
N329 C333 1.374 . S
C330 N329 1.376 . S
C330 C331 1.443 . S
C330 C357 1.389 1_554 S
C331 C330 1.443 . S
C331 C332 1.340 . S
C331 H363 0.951 . S
C332 C331 1.340 . S
C332 C333 1.439 . S
C332 H364 0.950 . S
C333 N329 1.374 . S
C333 C332 1.439 . S
C333 C358 1.395 . S
N334 Co323 1.995 1_554 S
N334 C335 1.376 . S
N334 C338 1.383 . S
C335 N334 1.376 . S
C335 C336 1.446 . S
C335 C358 1.391 . S
C336 C335 1.446 . S
C336 C337 1.339 . S
C336 H365 0.949 . S
C337 C336 1.339 . S
C337 C338 1.439 . S
C337 H366 0.950 . S
C338 N334 1.383 . S
C338 C337 1.439 . S
C338 C356 1.392 . S
N339 Co323 2.282 . S
N339 C342 1.332 . S
N339 C344 1.332 . S
C340 C341 1.386 . S
C340 C343 1.388 . S
C341 C340 1.386 . S
C341 C342 1.382 . S
C341 H367 0.950 . S
C342 N339 1.332 . S
C342 C341 1.382 . S
C342 H353 0.952 . S
C343 C340 1.388 . S
C343 C344 1.382 . S
C343 H368 0.950 . S
C344 N339 1.332 . S
C344 C343 1.382 . S
C344 H354 0.948 . S
N345 Co323 2.282 1_554 S
N345 C349 1.332 . S
N345 C350 1.332 . S
C346 C347 1.388 . S
C346 C350 1.382 . S
C346 H369 0.950 . S
C347 C346 1.388 . S
C347 C348 1.386 . S
C348 C347 1.386 . S
C348 C349 1.382 . S
C348 H370 0.950 . S
C349 N345 1.332 . S
C349 C348 1.382 . S
C349 H351 0.952 . S
C350 N345 1.332 . S
C350 C346 1.382 . S
C350 H352 0.948 . S
H351 C349 0.952 . S
H352 C350 0.948 . S
H353 C342 0.952 . S
H354 C344 0.948 . S
C355 C321 1.395 . S
C355 C325 1.391 . S
C356 C318 1.389 1_554 S
C356 C338 1.392 . S
C357 C328 1.392 . S
C357 C330 1.389 1_556 S
C358 C333 1.395 . S
C358 C335 1.391 . S
H359 C319 0.951 . S
H360 C320 0.950 . S
H361 C326 0.949 . S
H362 C327 0.950 . S
H363 C331 0.951 . S
H364 C332 0.950 . S
H365 C336 0.949 . S
H366 C337 0.950 . S
H367 C341 0.950 . S
H368 C343 0.950 . S
H369 C346 0.950 . S
H370 C348 0.950 . S
C371 C372 1.443 . S
C371 N375 1.376 . S
C371 C409 1.389 . S
C372 C371 1.443 . S
C372 C373 1.340 . S
C372 H412 0.951 . S
C373 C372 1.340 . S
C373 C374 1.439 1_556 S
C373 H413 0.950 . S
C374 C373 1.439 1_554 S
C374 N375 1.374 1_554 S
C374 C408 1.395 . S
N375 C371 1.376 . S
N375 C374 1.374 1_556 S
N375 Co376 2.008 . S
Co376 N375 2.008 . S
Co376 N377 1.995 1_556 S
Co376 N382 2.008 1_556 S
Co376 N387 1.995 . S
Co376 N392 2.282 1_556 S
Co376 N398 2.282 . S
N377 Co376 1.995 1_554 S
N377 C378 1.376 . S
N377 C381 1.383 . S
C378 N377 1.376 . S
C378 C379 1.446 . S
C378 C408 1.391 . S
C379 C378 1.446 . S
C379 C380 1.339 . S
C379 H414 0.949 . S
C380 C379 1.339 . S
C380 C381 1.439 . S
C380 H415 0.950 . S
C381 N377 1.383 . S
C381 C380 1.439 . S
C381 C410 1.392 . S
N382 Co376 2.008 1_554 S
N382 C383 1.376 . S
N382 C386 1.374 1_554 S
C383 N382 1.376 . S
C383 C384 1.443 . S
C383 C410 1.389 . S
C384 C383 1.443 . S
C384 C385 1.340 . S
C384 H416 0.951 . S
C385 C384 1.340 . S
C385 C386 1.439 1_554 S
C385 H417 0.950 . S
C386 N382 1.374 1_556 S
C386 C385 1.439 1_556 S
C386 C411 1.395 . S
N387 Co376 1.995 . S
N387 C388 1.376 . S
N387 C391 1.383 . S
C388 N387 1.376 . S
C388 C389 1.446 . S
C388 C411 1.391 . S
C389 C388 1.446 . S
C389 C390 1.339 . S
C389 H418 0.949 . S
C390 C389 1.339 . S
C390 C391 1.439 . S
C390 H419 0.950 . S
C391 N387 1.383 . S
C391 C390 1.439 . S
C391 C409 1.392 . S
N392 Co376 2.282 1_554 S
N392 C395 1.332 1_554 S
N392 C397 1.332 . S
C393 C394 1.386 1_554 S
C393 C396 1.388 . S
C394 C393 1.386 1_556 S
C394 C395 1.382 . S
C394 H420 0.950 . S
C395 N392 1.332 1_556 S
C395 C394 1.382 . S
C395 H406 0.952 . S
C396 C393 1.388 . S
C396 C397 1.382 . S
C396 H421 0.950 . S
C397 N392 1.332 . S
C397 C396 1.382 . S
C397 H407 0.948 . S
N398 Co376 2.282 . S
N398 C402 1.332 1_556 S
N398 C403 1.332 . S
C399 C400 1.388 . S
C399 C403 1.382 . S
C399 H422 0.950 . S
C400 C399 1.388 . S
C400 C401 1.386 1_556 S
C401 C400 1.386 1_554 S
C401 C402 1.382 . S
C401 H423 0.950 . S
C402 N398 1.332 1_554 S
C402 C401 1.382 . S
C402 H404 0.952 . S
C403 N398 1.332 . S
C403 C399 1.382 . S
C403 H405 0.948 . S
H404 C402 0.952 . S
H405 C403 0.948 . S
H406 C395 0.952 . S
H407 C397 0.948 . S
C408 C374 1.395 . S
C408 C378 1.391 . S
C409 C371 1.389 . S
C409 C391 1.392 . S
C410 C381 1.392 . S
C410 C383 1.389 . S
C411 C386 1.395 . S
C411 C388 1.391 . S
H412 C372 0.951 . S
H413 C373 0.950 . S
H414 C379 0.949 . S
H415 C380 0.950 . S
H416 C384 0.951 . S
H417 C385 0.950 . S
H418 C389 0.949 . S
H419 C390 0.950 . S
H420 C394 0.950 . S
H421 C396 0.950 . S
H422 C399 0.950 . S
H423 C401 0.950 . S
C424 C425 1.443 . S
C424 N428 1.376 . S
C424 C462 1.389 . S
C425 C424 1.443 . S
C425 C426 1.340 . S
C425 H465 0.951 . S
C426 C425 1.340 . S
C426 C427 1.439 1_556 S
C426 H466 0.950 . S
C427 C426 1.439 1_554 S
C427 N428 1.374 1_554 S
C427 C461 1.395 . S
N428 C424 1.376 . S
N428 C427 1.374 1_556 S
N428 Co429 2.008 . S
Co429 N428 2.008 . S
Co429 N430 1.995 1_556 S
Co429 N435 2.008 1_556 S
Co429 N440 1.995 . S
Co429 N445 2.282 1_556 S
Co429 N451 2.281 . S
N430 Co429 1.995 1_554 S
N430 C431 1.376 . S
N430 C434 1.383 . S
C431 N430 1.376 . S
C431 C432 1.446 . S
C431 C461 1.391 . S
C432 C431 1.446 . S
C432 C433 1.339 . S
C432 H467 0.949 . S
C433 C432 1.339 . S
C433 C434 1.439 . S
C433 H468 0.950 . S
C434 N430 1.383 . S
C434 C433 1.439 . S
C434 C463 1.392 . S
N435 Co429 2.008 1_554 S
N435 C436 1.376 . S
N435 C439 1.374 1_554 S
C436 N435 1.376 . S
C436 C437 1.443 . S
C436 C463 1.389 . S
C437 C436 1.443 . S
C437 C438 1.340 . S
C437 H469 0.951 . S
C438 C437 1.340 . S
C438 C439 1.439 1_554 S
C438 H470 0.950 . S
C439 N435 1.374 1_556 S
C439 C438 1.439 1_556 S
C439 C464 1.395 . S
N440 Co429 1.995 . S
N440 C441 1.376 . S
N440 C444 1.383 . S
C441 N440 1.376 . S
C441 C442 1.446 . S
C441 C464 1.391 . S
C442 C441 1.446 . S
C442 C443 1.339 . S
C442 H471 0.949 . S
C443 C442 1.339 . S
C443 C444 1.439 . S
C443 H472 0.950 . S
C444 N440 1.383 . S
C444 C443 1.439 . S
C444 C462 1.392 . S
N445 Co429 2.282 1_554 S
N445 C448 1.325 1_554 S
N445 C450 1.342 . S
C446 C447 1.386 1_554 S
C446 C449 1.388 . S
C447 C446 1.386 1_556 S
C447 C448 1.382 . S
C447 H473 0.950 . S
C448 N445 1.325 1_556 S
C448 C447 1.382 . S
C448 H459 0.952 . S
C449 C446 1.388 . S
C449 C450 1.382 . S
C449 H474 0.950 . S
C450 N445 1.342 . S
C450 C449 1.382 . S
C450 H460 0.948 . S
N451 Co429 2.281 . S
N451 C455 1.322 1_556 S
N451 C456 1.347 . S
C452 C453 1.388 . S
C452 C456 1.382 . S
C452 H475 0.950 . S
C453 C452 1.388 . S
C453 C454 1.386 1_556 S
C454 C453 1.386 1_554 S
C454 C455 1.382 . S
C454 H476 0.950 . S
C455 N451 1.322 1_554 S
C455 C454 1.382 . S
C455 H457 0.952 . S
C456 N451 1.347 . S
C456 C452 1.382 . S
C456 H458 0.948 . S
H457 C455 0.952 . S
H458 C456 0.948 . S
H459 C448 0.952 . S
H460 C450 0.948 . S
C461 C427 1.395 . S
C461 C431 1.391 . S
C462 C424 1.389 . S
C462 C444 1.392 . S
C463 C434 1.392 . S
C463 C436 1.389 . S
C464 C439 1.395 . S
C464 C441 1.391 . S
H465 C425 0.951 . S
H466 C426 0.950 . S
H467 C432 0.949 . S
H468 C433 0.950 . S
H469 C437 0.951 . S
H470 C438 0.950 . S
H471 C442 0.949 . S
H472 C443 0.950 . S
H473 C447 0.950 . S
H474 C449 0.950 . S
H475 C452 0.950 . S
H476 C454 0.950 . S
C477 C478 1.443 . S
C477 N481 1.376 . S
C477 C515 1.389 . S
C478 C477 1.443 . S
C478 C479 1.340 . S
C478 H518 0.951 . S
C479 C478 1.340 . S
C479 C480 1.439 1_554 S
C479 H519 0.950 . S
C480 C479 1.439 1_556 S
C480 N481 1.374 1_556 S
C480 C514 1.395 . S
N481 C477 1.376 . S
N481 C480 1.374 1_554 S
N481 Co482 2.008 . S
Co482 N481 2.008 . S
Co482 N483 1.995 1_554 S
Co482 N488 2.008 1_554 S
Co482 N493 1.995 . S
Co482 N498 2.282 1_554 S
Co482 N504 2.281 . S
N483 Co482 1.995 1_556 S
N483 C484 1.376 . S
N483 C487 1.383 . S
C484 N483 1.376 . S
C484 C485 1.446 . S
C484 C514 1.391 . S
C485 C484 1.446 . S
C485 C486 1.339 . S
C485 H520 0.949 . S
C486 C485 1.339 . S
C486 C487 1.439 . S
C486 H521 0.950 . S
C487 N483 1.383 . S
C487 C486 1.439 . S
C487 C516 1.392 . S
N488 Co482 2.008 1_556 S
N488 C489 1.376 . S
N488 C492 1.374 1_556 S
C489 N488 1.376 . S
C489 C490 1.443 . S
C489 C516 1.389 . S
C490 C489 1.443 . S
C490 C491 1.340 . S
C490 H522 0.951 . S
C491 C490 1.340 . S
C491 C492 1.439 1_556 S
C491 H523 0.950 . S
C492 N488 1.374 1_554 S
C492 C491 1.439 1_554 S
C492 C517 1.395 . S
N493 Co482 1.995 . S
N493 C494 1.376 . S
N493 C497 1.383 . S
C494 N493 1.376 . S
C494 C495 1.446 . S
C494 C517 1.391 . S
C495 C494 1.446 . S
C495 C496 1.339 . S
C495 H524 0.949 . S
C496 C495 1.339 . S
C496 C497 1.439 . S
C496 H525 0.950 . S
C497 N493 1.383 . S
C497 C496 1.439 . S
C497 C515 1.392 . S
N498 Co482 2.282 1_556 S
N498 C501 1.325 1_556 S
N498 C503 1.342 . S
C499 C500 1.386 1_556 S
C499 C502 1.388 . S
C500 C499 1.386 1_554 S
C500 C501 1.382 . S
C500 H526 0.950 . S
C501 N498 1.325 1_554 S
C501 C500 1.382 . S
C501 H512 0.952 . S
C502 C499 1.388 . S
C502 C503 1.382 . S
C502 H527 0.950 . S
C503 N498 1.342 . S
C503 C502 1.382 . S
C503 H513 0.948 . S
N504 Co482 2.281 . S
N504 C508 1.322 1_554 S
N504 C509 1.347 . S
C505 C506 1.388 . S
C505 C509 1.382 . S
C505 H528 0.950 . S
C506 C505 1.388 . S
C506 C507 1.386 1_554 S
C507 C506 1.386 1_556 S
C507 C508 1.382 . S
C507 H529 0.950 . S
C508 N504 1.322 1_556 S
C508 C507 1.382 . S
C508 H510 0.952 . S
C509 N504 1.347 . S
C509 C505 1.382 . S
C509 H511 0.948 . S
H510 C508 0.952 . S
H511 C509 0.948 . S
H512 C501 0.952 . S
H513 C503 0.948 . S
C514 C480 1.395 . S
C514 C484 1.391 . S
C515 C477 1.389 . S
C515 C497 1.392 . S
C516 C487 1.392 . S
C516 C489 1.389 . S
C517 C492 1.395 . S
C517 C494 1.391 . S
H518 C478 0.951 . S
H519 C479 0.950 . S
H520 C485 0.949 . S
H521 C486 0.950 . S
H522 C490 0.951 . S
H523 C491 0.950 . S
H524 C495 0.949 . S
H525 C496 0.950 . S
H526 C500 0.950 . S
H527 C502 0.950 . S
H528 C505 0.950 . S
H529 C507 0.950 . S
C530 C531 1.443 . S
C530 N534 1.376 . S
C530 C568 1.389 . S
C531 C530 1.443 . S
C531 C532 1.340 . S
C531 H571 0.951 . S
C532 C531 1.340 . S
C532 C533 1.439 1_554 S
C532 H572 0.950 . S
C533 C532 1.439 1_556 S
C533 N534 1.374 1_556 S
C533 C567 1.395 . S
N534 C530 1.376 . S
N534 C533 1.374 1_554 S
N534 Co535 2.008 . S
Co535 N534 2.008 . S
Co535 N536 1.995 1_554 S
Co535 N541 2.008 1_554 S
Co535 N546 1.995 . S
Co535 N551 2.282 1_554 S
Co535 N557 2.282 . S
N536 Co535 1.995 1_556 S
N536 C537 1.376 . S
N536 C540 1.383 . S
C537 N536 1.376 . S
C537 C538 1.446 . S
C537 C567 1.391 . S
C538 C537 1.446 . S
C538 C539 1.339 . S
C538 H573 0.949 . S
C539 C538 1.339 . S
C539 C540 1.439 . S
C539 H574 0.950 . S
C540 N536 1.383 . S
C540 C539 1.439 . S
C540 C569 1.392 . S
N541 Co535 2.008 1_556 S
N541 C542 1.376 . S
N541 C545 1.374 1_556 S
C542 N541 1.376 . S
C542 C543 1.443 . S
C542 C569 1.389 . S
C543 C542 1.443 . S
C543 C544 1.340 . S
C543 H575 0.951 . S
C544 C543 1.340 . S
C544 C545 1.439 1_556 S
C544 H576 0.950 . S
C545 N541 1.374 1_554 S
C545 C544 1.439 1_554 S
C545 C570 1.395 . S
N546 Co535 1.995 . S
N546 C547 1.376 . S
N546 C550 1.383 . S
C547 N546 1.376 . S
C547 C548 1.446 . S
C547 C570 1.391 . S
C548 C547 1.446 . S
C548 C549 1.339 . S
C548 H577 0.949 . S
C549 C548 1.339 . S
C549 C550 1.439 . S
C549 H578 0.950 . S
C550 N546 1.383 . S
C550 C549 1.439 . S
C550 C568 1.392 . S
N551 Co535 2.282 1_556 S
N551 C554 1.332 1_556 S
N551 C556 1.332 . S
C552 C553 1.386 1_556 S
C552 C555 1.388 . S
C553 C552 1.386 1_554 S
C553 C554 1.382 . S
C553 H579 0.950 . S
C554 N551 1.332 1_554 S
C554 C553 1.382 . S
C554 H565 0.952 . S
C555 C552 1.388 . S
C555 C556 1.382 . S
C555 H580 0.950 . S
C556 N551 1.332 . S
C556 C555 1.382 . S
C556 H566 0.948 . S
N557 Co535 2.282 . S
N557 C561 1.332 1_554 S
N557 C562 1.332 . S
C558 C559 1.388 . S
C558 C562 1.382 . S
C558 H581 0.950 . S
C559 C558 1.388 . S
C559 C560 1.386 1_554 S
C560 C559 1.386 1_556 S
C560 C561 1.382 . S
C560 H582 0.950 . S
C561 N557 1.332 1_556 S
C561 C560 1.382 . S
C561 H563 0.952 . S
C562 N557 1.332 . S
C562 C558 1.382 . S
C562 H564 0.948 . S
H563 C561 0.952 . S
H564 C562 0.948 . S
H565 C554 0.952 . S
H566 C556 0.948 . S
C567 C533 1.395 . S
C567 C537 1.391 . S
C568 C530 1.389 . S
C568 C550 1.392 . S
C569 C540 1.392 . S
C569 C542 1.389 . S
C570 C545 1.395 . S
C570 C547 1.391 . S
H571 C531 0.951 . S
H572 C532 0.950 . S
H573 C538 0.949 . S
H574 C539 0.950 . S
H575 C543 0.951 . S
H576 C544 0.950 . S
H577 C548 0.949 . S
H578 C549 0.950 . S
H579 C553 0.950 . S
H580 C555 0.950 . S
H581 C558 0.950 . S
H582 C560 0.950 . S
C583 C584 1.443 . S
C583 N587 1.376 . S
C583 C621 1.389 1_554 S
C584 C583 1.443 . S
C584 C585 1.340 . S
C584 H624 0.951 . S
C585 C584 1.340 . S
C585 C586 1.439 . S
C585 H625 0.950 . S
C586 C585 1.439 . S
C586 N587 1.374 . S
C586 C620 1.395 . S
N587 C583 1.376 . S
N587 C586 1.374 . S
N587 Co588 2.008 . S
Co588 N587 2.008 . S
Co588 N589 1.995 . S
Co588 N594 2.008 1_554 S
Co588 N599 1.995 1_554 S
Co588 N604 2.282 . S
Co588 N610 2.282 1_554 S
N589 Co588 1.995 . S
N589 C590 1.376 . S
N589 C593 1.383 . S
C590 N589 1.376 . S
C590 C591 1.446 . S
C590 C620 1.391 . S
C591 C590 1.446 . S
C591 C592 1.339 . S
C591 H626 0.949 . S
C592 C591 1.339 . S
C592 C593 1.439 . S
C592 H627 0.950 . S
C593 N589 1.383 . S
C593 C592 1.439 . S
C593 C622 1.392 . S
N594 Co588 2.008 1_556 S
N594 C595 1.376 . S
N594 C598 1.374 . S
C595 N594 1.376 . S
C595 C596 1.443 . S
C595 C622 1.389 1_556 S
C596 C595 1.443 . S
C596 C597 1.340 . S
C596 H628 0.951 . S
C597 C596 1.340 . S
C597 C598 1.439 . S
C597 H629 0.950 . S
C598 N594 1.374 . S
C598 C597 1.439 . S
C598 C623 1.395 . S
N599 Co588 1.995 1_556 S
N599 C600 1.376 . S
N599 C603 1.383 . S
C600 N599 1.376 . S
C600 C601 1.446 . S
C600 C623 1.391 . S
C601 C600 1.446 . S
C601 C602 1.339 . S
C601 H630 0.949 . S
C602 C601 1.339 . S
C602 C603 1.439 . S
C602 H631 0.950 . S
C603 N599 1.383 . S
C603 C602 1.439 . S
C603 C621 1.392 . S
N604 Co588 2.282 . S
N604 C607 1.332 . S
N604 C609 1.332 . S
C605 C606 1.386 . S
C605 C608 1.388 . S
C606 C605 1.386 . S
C606 C607 1.382 . S
C606 H632 0.950 . S
C607 N604 1.332 . S
C607 C606 1.382 . S
C607 H618 0.952 . S
C608 C605 1.388 . S
C608 C609 1.382 . S
C608 H633 0.950 . S
C609 N604 1.332 . S
C609 C608 1.382 . S
C609 H619 0.948 . S
N610 Co588 2.282 1_556 S
N610 C614 1.332 . S
N610 C615 1.332 . S
C611 C612 1.388 . S
C611 C615 1.382 . S
C611 H634 0.950 . S
C612 C611 1.388 . S
C612 C613 1.386 . S
C613 C612 1.386 . S
C613 C614 1.382 . S
C613 H635 0.950 . S
C614 N610 1.332 . S
C614 C613 1.382 . S
C614 H616 0.952 . S
C615 N610 1.332 . S
C615 C611 1.382 . S
C615 H617 0.948 . S
H616 C614 0.952 . S
H617 C615 0.948 . S
H618 C607 0.952 . S
H619 C609 0.948 . S
C620 C586 1.395 . S
C620 C590 1.391 . S
C621 C583 1.389 1_556 S
C621 C603 1.392 . S
C622 C593 1.392 . S
C622 C595 1.389 1_554 S
C623 C598 1.395 . S
C623 C600 1.391 . S
H624 C584 0.951 . S
H625 C585 0.950 . S
H626 C591 0.949 . S
H627 C592 0.950 . S
H628 C596 0.951 . S
H629 C597 0.950 . S
H630 C601 0.949 . S
H631 C602 0.950 . S
H632 C606 0.950 . S
H633 C608 0.950 . S
H634 C611 0.950 . S
H635 C613 0.950 . S
C636 C637 1.443 . S
C636 N640 1.376 . S
C636 C674 1.389 . S
C637 C636 1.443 . S
C637 C638 1.340 . S
C637 H677 0.951 . S
C638 C637 1.340 . S
C638 C639 1.439 . S
C638 H678 0.950 . S
C639 C638 1.439 . S
C639 N640 1.374 . S
C639 C673 1.395 . S
N640 C636 1.376 . S
N640 C639 1.374 . S
N640 Co641 2.008 . S
Co641 N640 2.008 . S
Co641 N642 1.995 . S
Co641 N647 2.008 . S
Co641 N652 1.995 . S
Co641 N657 2.282 . S
Co641 N663 2.282 . S
N642 Co641 1.995 . S
N642 C643 1.376 . S
N642 C646 1.383 . S
C643 N642 1.376 . S
C643 C644 1.446 . S
C643 C673 1.391 . S
C644 C643 1.446 . S
C644 C645 1.339 . S
C644 H679 0.949 . S
C645 C644 1.339 . S
C645 C646 1.439 . S
C645 H680 0.950 . S
C646 N642 1.383 . S
C646 C645 1.439 . S
C646 C675 1.392 . S
N647 Co641 2.008 . S
N647 C648 1.376 . S
N647 C651 1.374 . S
C648 N647 1.376 . S
C648 C649 1.443 . S
C648 C675 1.389 . S
C649 C648 1.443 . S
C649 C650 1.340 . S
C649 H681 0.951 . S
C650 C649 1.340 . S
C650 C651 1.439 . S
C650 H682 0.950 . S
C651 N647 1.374 . S
C651 C650 1.439 . S
C651 C676 1.395 . S
N652 Co641 1.995 . S
N652 C653 1.376 . S
N652 C656 1.383 . S
C653 N652 1.376 . S
C653 C654 1.446 . S
C653 C676 1.391 . S
C654 C653 1.446 . S
C654 C655 1.339 . S
C654 H683 0.949 . S
C655 C654 1.339 . S
C655 C656 1.439 . S
C655 H684 0.950 . S
C656 N652 1.383 . S
C656 C655 1.439 . S
C656 C674 1.392 . S
N657 Co641 2.282 . S
N657 C660 1.332 . S
N657 C662 1.332 . S
C658 C659 1.386 . S
C658 C661 1.388 . S
C659 C658 1.386 . S
C659 C660 1.382 . S
C659 H685 0.950 . S
C660 N657 1.332 . S
C660 C659 1.382 . S
C660 H671 0.952 . S
C661 C658 1.388 . S
C661 C662 1.382 . S
C661 H686 0.950 . S
C662 N657 1.332 . S
C662 C661 1.382 . S
C662 H672 0.948 . S
N663 Co641 2.282 . S
N663 C667 1.332 . S
N663 C668 1.332 . S
C664 C665 1.388 . S
C664 C668 1.382 . S
C664 H687 0.950 . S
C665 C664 1.388 . S
C665 C666 1.386 . S
C666 C665 1.386 . S
C666 C667 1.382 . S
C666 H688 0.950 . S
C667 N663 1.332 . S
C667 C666 1.382 . S
C667 H669 0.952 . S
C668 N663 1.332 . S
C668 C664 1.382 . S
C668 H670 0.948 . S
H669 C667 0.952 . S
H670 C668 0.948 . S
H671 C660 0.952 . S
H672 C662 0.948 . S
C673 C639 1.395 . S
C673 C643 1.391 . S
C674 C636 1.389 . S
C674 C656 1.392 . S
C675 C646 1.392 . S
C675 C648 1.389 . S
C676 C651 1.395 . S
C676 C653 1.391 . S
H677 C637 0.951 . S
H678 C638 0.950 . S
H679 C644 0.949 . S
H680 C645 0.950 . S
H681 C649 0.951 . S
H682 C650 0.950 . S
H683 C654 0.949 . S
H684 C655 0.950 . S
H685 C659 0.950 . S
H686 C661 0.950 . S
H687 C664 0.950 . S
H688 C666 0.950 . S
C689 C690 1.443 . S
C689 N693 1.376 . S
C689 C727 1.389 . S
C690 C689 1.443 . S
C690 C691 1.340 . S
C690 H730 0.951 . S
C691 C690 1.340 . S
C691 C692 1.439 . S
C691 H731 0.950 . S
C692 C691 1.439 . S
C692 N693 1.374 . S
C692 C726 1.395 . S
N693 C689 1.376 . S
N693 C692 1.374 . S
N693 Co694 2.008 . S
Co694 N693 2.008 . S
Co694 N695 1.995 . S
Co694 N700 2.008 . S
Co694 N705 1.995 . S
Co694 N710 2.282 . S
Co694 N716 2.282 . S
N695 Co694 1.995 . S
N695 C696 1.376 . S
N695 C699 1.383 . S
C696 N695 1.376 . S
C696 C697 1.446 . S
C696 C726 1.391 . S
C697 C696 1.446 . S
C697 C698 1.339 . S
C697 H732 0.949 . S
C698 C697 1.339 . S
C698 C699 1.439 . S
C698 H733 0.950 . S
C699 N695 1.383 . S
C699 C698 1.439 . S
C699 C728 1.392 . S
N700 Co694 2.008 . S
N700 C701 1.376 . S
N700 C704 1.374 . S
C701 N700 1.376 . S
C701 C702 1.443 . S
C701 C728 1.389 . S
C702 C701 1.443 . S
C702 C703 1.340 . S
C702 H734 0.951 . S
C703 C702 1.340 . S
C703 C704 1.439 . S
C703 H735 0.950 . S
C704 N700 1.374 . S
C704 C703 1.439 . S
C704 C729 1.395 . S
N705 Co694 1.995 . S
N705 C706 1.376 . S
N705 C709 1.383 . S
C706 N705 1.376 . S
C706 C707 1.446 . S
C706 C729 1.391 . S
C707 C706 1.446 . S
C707 C708 1.339 . S
C707 H736 0.949 1_545 S
C708 C707 1.339 . S
C708 C709 1.439 . S
C708 H737 0.950 1_545 S
C709 N705 1.383 . S
C709 C708 1.439 . S
C709 C727 1.392 . S
N710 Co694 2.282 . S
N710 C713 1.332 . S
N710 C715 1.332 . S
C711 C712 1.386 . S
C711 C714 1.388 . S
C712 C711 1.386 . S
C712 C713 1.382 . S
C712 H738 0.950 . S
C713 N710 1.332 . S
C713 C712 1.382 . S
C713 H724 0.952 . S
C714 C711 1.388 . S
C714 C715 1.382 . S
C714 H739 0.950 . S
C715 N710 1.332 . S
C715 C714 1.382 . S
C715 H725 0.948 . S
N716 Co694 2.282 . S
N716 C720 1.332 . S
N716 C721 1.332 . S
C717 C718 1.388 . S
C717 C721 1.382 1_565 S
C717 H740 0.950 . S
C718 C717 1.388 . S
C718 C719 1.386 1_565 S
C719 C718 1.386 1_545 S
C719 C720 1.382 . S
C719 H741 0.950 . S
C720 N716 1.332 . S
C720 C719 1.382 . S
C720 H722 0.952 . S
C721 N716 1.332 . S
C721 C717 1.382 1_545 S
C721 H723 0.945 . S
H722 C720 0.952 . S
H723 C721 0.945 . S
H724 C713 0.952 . S
H725 C715 0.948 . S
C726 C692 1.395 . S
C726 C696 1.391 . S
C727 C689 1.389 . S
C727 C709 1.392 . S
C728 C699 1.392 . S
C728 C701 1.389 . S
C729 C704 1.395 . S
C729 C706 1.391 . S
H730 C690 0.951 . S
H731 C691 0.950 . S
H732 C697 0.949 . S
H733 C698 0.950 . S
H734 C702 0.951 . S
H735 C703 0.950 . S
H736 C707 0.949 1_565 S
H737 C708 0.950 1_565 S
H738 C712 0.950 . S
H739 C714 0.950 . S
H740 C717 0.950 . S
H741 C719 0.950 . S
C742 C743 1.443 . S
C742 N746 1.376 . S
C742 C780 1.389 . S
C743 C742 1.443 . S
C743 C744 1.340 . S
C743 H783 0.951 . S
C744 C743 1.340 . S
C744 C745 1.439 . S
C744 H784 0.950 . S
C745 C744 1.439 . S
C745 N746 1.374 . S
C745 C779 1.395 . S
N746 C742 1.376 . S
N746 C745 1.374 . S
N746 Co747 2.008 . S
Co747 N746 2.008 . S
Co747 N748 1.995 . S
Co747 N753 2.008 . S
Co747 N758 1.995 . S
Co747 N763 2.282 . S
Co747 N769 2.282 . S
N748 Co747 1.995 . S
N748 C749 1.376 . S
N748 C752 1.383 . S
C749 N748 1.376 . S
C749 C750 1.446 . S
C749 C779 1.391 . S
C750 C749 1.446 . S
C750 C751 1.339 . S
C750 H785 0.949 . S
C751 C750 1.339 . S
C751 C752 1.439 . S
C751 H786 0.950 . S
C752 N748 1.383 . S
C752 C751 1.439 . S
C752 C781 1.392 . S
N753 Co747 2.008 . S
N753 C754 1.376 . S
N753 C757 1.374 . S
C754 N753 1.376 . S
C754 C755 1.443 . S
C754 C781 1.389 . S
C755 C754 1.443 . S
C755 C756 1.340 . S
C755 H787 0.951 . S
C756 C755 1.340 . S
C756 C757 1.439 . S
C756 H788 0.950 . S
C757 N753 1.374 . S
C757 C756 1.439 . S
C757 C782 1.395 . S
N758 Co747 1.995 . S
N758 C759 1.376 . S
N758 C762 1.383 . S
C759 N758 1.376 . S
C759 C760 1.446 . S
C759 C782 1.391 . S
C760 C759 1.446 . S
C760 C761 1.339 . S
C760 H789 0.949 1_655 S
C761 C760 1.339 . S
C761 C762 1.439 . S
C761 H790 0.950 1_655 S
C762 N758 1.383 . S
C762 C761 1.439 . S
C762 C780 1.392 . S
N763 Co747 2.282 . S
N763 C766 1.332 . S
N763 C768 1.332 . S
C764 C765 1.386 . S
C764 C767 1.388 . S
C765 C764 1.386 . S
C765 C766 1.382 . S
C765 H791 0.950 . S
C766 N763 1.332 . S
C766 C765 1.382 . S
C766 H777 0.952 . S
C767 C764 1.388 . S
C767 C768 1.382 . S
C767 H792 0.950 . S
C768 N763 1.332 . S
C768 C767 1.382 . S
C768 H778 0.948 . S
N769 Co747 2.282 . S
N769 C773 1.332 . S
N769 C774 1.332 . S
C770 C771 1.388 . S
C770 C774 1.382 1_455 S
C770 H793 0.950 . S
C771 C770 1.388 . S
C771 C772 1.386 1_455 S
C772 C771 1.386 1_655 S
C772 C773 1.382 . S
C772 H794 0.950 . S
C773 N769 1.332 . S
C773 C772 1.382 . S
C773 H775 0.952 . S
C774 N769 1.332 . S
C774 C770 1.382 1_655 S
C774 H776 0.948 . S
H775 C773 0.952 . S
H776 C774 0.948 . S
H777 C766 0.952 . S
H778 C768 0.948 . S
C779 C745 1.395 . S
C779 C749 1.391 . S
C780 C742 1.389 . S
C780 C762 1.392 . S
C781 C752 1.392 . S
C781 C754 1.389 . S
C782 C757 1.395 . S
C782 C759 1.391 . S
H783 C743 0.951 . S
H784 C744 0.950 . S
H785 C750 0.949 . S
H786 C751 0.950 . S
H787 C755 0.951 . S
H788 C756 0.950 . S
H789 C760 0.949 1_455 S
H790 C761 0.950 1_455 S
H791 C765 0.950 . S
H792 C767 0.950 . S
H793 C770 0.950 . S
H794 C772 0.950 . S
C795 C796 1.443 . S
C795 N799 1.376 . S
C795 C833 1.389 . S
C796 C795 1.443 . S
C796 C797 1.340 . S
C796 H836 0.951 . S
C797 C796 1.340 . S
C797 C798 1.439 . S
C797 H837 0.950 . S
C798 C797 1.439 . S
C798 N799 1.374 . S
C798 C832 1.395 . S
N799 C795 1.376 . S
N799 C798 1.374 . S
N799 Co800 2.008 . S
Co800 N799 2.008 . S
Co800 N801 1.995 . S
Co800 N806 2.008 . S
Co800 N811 1.995 . S
Co800 N816 2.282 . S
Co800 N822 2.282 . S
N801 Co800 1.995 . S
N801 C802 1.376 . S
N801 C805 1.383 . S
C802 N801 1.376 . S
C802 C803 1.446 1_455 S
C802 C832 1.391 . S
C803 C802 1.446 1_655 S
C803 C804 1.339 1_655 S
C803 H838 0.949 . S
C804 C803 1.339 1_455 S
C804 C805 1.439 . S
C804 H839 0.950 1_455 S
C805 N801 1.383 . S
C805 C804 1.439 . S
C805 C834 1.392 . S
N806 Co800 2.008 . S
N806 C807 1.376 . S
N806 C810 1.374 . S
C807 N806 1.376 . S
C807 C808 1.443 . S
C807 C834 1.389 . S
C808 C807 1.443 . S
C808 C809 1.340 . S
C808 H840 0.951 . S
C809 C808 1.340 . S
C809 C810 1.439 . S
C809 H841 0.950 . S
C810 N806 1.374 . S
C810 C809 1.439 . S
C810 C835 1.395 . S
N811 Co800 1.995 . S
N811 C812 1.376 . S
N811 C815 1.383 . S
C812 N811 1.376 . S
C812 C813 1.446 . S
C812 C835 1.391 . S
C813 C812 1.446 . S
C813 C814 1.339 . S
C813 H842 0.949 . S
C814 C813 1.339 . S
C814 C815 1.439 . S
C814 H843 0.950 . S
C815 N811 1.383 . S
C815 C814 1.439 . S
C815 C833 1.392 . S
N816 Co800 2.282 . S
N816 C819 1.332 . S
N816 C821 1.332 . S
C817 C818 1.386 . S
C817 C820 1.388 . S
C818 C817 1.386 . S
C818 C819 1.382 . S
C818 H844 0.950 . S
C819 N816 1.332 . S
C819 C818 1.382 . S
C819 H830 0.952 . S
C820 C817 1.388 . S
C820 C821 1.382 . S
C820 H845 0.950 . S
C821 N816 1.332 . S
C821 C820 1.382 . S
C821 H831 0.948 . S
N822 Co800 2.282 . S
N822 C826 1.332 . S
N822 C827 1.332 . S
C823 C824 1.388 . S
C823 C827 1.382 . S
C823 H846 0.950 . S
C824 C823 1.388 . S
C824 C825 1.386 . S
C825 C824 1.386 . S
C825 C826 1.382 . S
C825 H847 0.950 . S
C826 N822 1.332 . S
C826 C825 1.382 . S
C826 H828 0.952 . S
C827 N822 1.332 . S
C827 C823 1.382 . S
C827 H829 0.948 . S
H828 C826 0.952 . S
H829 C827 0.948 . S
H830 C819 0.952 . S
H831 C821 0.948 . S
C832 C798 1.395 . S
C832 C802 1.391 . S
C833 C795 1.389 . S
C833 C815 1.392 . S
C834 C805 1.392 . S
C834 C807 1.389 . S
C835 C810 1.395 . S
C835 C812 1.391 . S
H836 C796 0.951 . S
H837 C797 0.950 . S
H838 C803 0.949 . S
H839 C804 0.950 1_655 S
H840 C808 0.951 . S
H841 C809 0.950 . S
H842 C813 0.949 . S
H843 C814 0.950 . S
H844 C818 0.950 . S
H845 C820 0.950 . S
H846 C823 0.950 . S
H847 C825 0.950 . S
C848 C849 1.443 . S
C848 N852 1.376 . S
C848 C886 1.389 . S
C849 C848 1.443 . S
C849 C850 1.340 . S
C849 H889 0.951 . S
C850 C849 1.340 . S
C850 C851 1.439 . S
C850 H890 0.950 . S
C851 C850 1.439 . S
C851 N852 1.374 . S
C851 C885 1.395 . S
N852 C848 1.376 . S
N852 C851 1.374 . S
N852 Co853 2.008 . S
Co853 N852 2.008 . S
Co853 N854 1.995 . S
Co853 N859 2.008 . S
Co853 N864 1.995 . S
Co853 N869 2.282 . S
Co853 N875 2.282 . S
N854 Co853 1.995 . S
N854 C855 1.376 . S
N854 C858 1.383 . S
C855 N854 1.376 . S
C855 C856 1.446 . S
C855 C885 1.391 . S
C856 C855 1.446 . S
C856 C857 1.339 . S
C856 H891 0.949 . S
C857 C856 1.339 . S
C857 C858 1.439 . S
C857 H892 0.950 . S
C858 N854 1.383 . S
C858 C857 1.439 . S
C858 C887 1.392 . S
N859 Co853 2.008 . S
N859 C860 1.376 . S
N859 C863 1.374 . S
C860 N859 1.376 . S
C860 C861 1.443 . S
C860 C887 1.389 . S
C861 C860 1.443 . S
C861 C862 1.340 . S
C861 H893 0.951 . S
C862 C861 1.340 . S
C862 C863 1.439 . S
C862 H894 0.950 . S
C863 N859 1.374 . S
C863 C862 1.439 . S
C863 C888 1.395 . S
N864 Co853 1.995 . S
N864 C865 1.376 . S
N864 C868 1.383 . S
C865 N864 1.376 . S
C865 C866 1.446 . S
C865 C888 1.391 . S
C866 C865 1.446 . S
C866 C867 1.339 . S
C866 H895 0.949 . S
C867 C866 1.339 . S
C867 C868 1.439 . S
C867 H896 0.950 . S
C868 N864 1.383 . S
C868 C867 1.439 . S
C868 C886 1.392 . S
N869 Co853 2.282 . S
N869 C872 1.332 . S
N869 C874 1.332 . S
C870 C871 1.386 . S
C870 C873 1.388 . S
C871 C870 1.386 . S
C871 C872 1.382 . S
C871 H897 0.950 . S
C872 N869 1.332 . S
C872 C871 1.382 . S
C872 H883 0.952 . S
C873 C870 1.388 . S
C873 C874 1.382 . S
C873 H898 0.950 . S
C874 N869 1.332 . S
C874 C873 1.382 . S
C874 H884 0.948 . S
N875 Co853 2.282 . S
N875 C879 1.332 . S
N875 C880 1.332 . S
C876 C877 1.388 . S
C876 C880 1.382 . S
C876 H899 0.950 . S
C877 C876 1.388 . S
C877 C878 1.386 . S
C878 C877 1.386 . S
C878 C879 1.382 . S
C878 H900 0.950 . S
C879 N875 1.332 . S
C879 C878 1.382 . S
C879 H881 0.952 . S
C880 N875 1.332 . S
C880 C876 1.382 . S
C880 H882 0.948 . S
H881 C879 0.952 . S
H882 C880 0.948 . S
H883 C872 0.952 . S
H884 C874 0.948 . S
C885 C851 1.395 . S
C885 C855 1.391 . S
C886 C848 1.389 . S
C886 C868 1.392 . S
C887 C858 1.392 . S
C887 C860 1.389 . S
C888 C863 1.395 . S
C888 C865 1.391 . S
H889 C849 0.951 . S
H890 C850 0.950 . S
H891 C856 0.949 . S
H892 C857 0.950 . S
H893 C861 0.951 . S
H894 C862 0.950 . S
H895 C866 0.949 . S
H896 C867 0.950 . S
H897 C871 0.950 . S
H898 C873 0.950 . S
H899 C876 0.950 . S
H900 C878 0.950 . S
C901 C902 1.443 . S
C901 N905 1.376 . S
C901 C939 1.389 . S
C902 C901 1.443 . S
C902 C903 1.340 . S
C902 H942 0.951 . S
C903 C902 1.340 . S
C903 C904 1.439 . S
C903 H943 0.950 . S
C904 C903 1.439 . S
C904 N905 1.374 . S
C904 C938 1.395 . S
N905 C901 1.376 . S
N905 C904 1.374 . S
N905 Co906 2.008 . S
Co906 N905 2.008 . S
Co906 N907 1.995 . S
Co906 N912 2.008 . S
Co906 N917 1.995 . S
Co906 N922 2.282 . S
Co906 N928 2.282 . S
N907 Co906 1.995 . S
N907 C908 1.376 . S
N907 C911 1.383 . S
C908 N907 1.376 . S
C908 C909 1.446 . S
C908 C938 1.391 . S
C909 C908 1.446 . S
C909 C910 1.339 . S
C909 H944 0.949 1_565 S
C910 C909 1.339 . S
C910 C911 1.439 . S
C910 H945 0.950 . S
C911 N907 1.383 . S
C911 C910 1.439 . S
C911 C940 1.392 . S
N912 Co906 2.008 . S
N912 C913 1.376 . S
N912 C916 1.374 . S
C913 N912 1.376 . S
C913 C914 1.443 . S
C913 C940 1.389 . S
C914 C913 1.443 . S
C914 C915 1.340 . S
C914 H946 0.951 . S
C915 C914 1.340 . S
C915 C916 1.439 . S
C915 H947 0.950 . S
C916 N912 1.374 . S
C916 C915 1.439 . S
C916 C941 1.395 . S
N917 Co906 1.995 . S
N917 C918 1.376 . S
N917 C921 1.383 . S
C918 N917 1.376 . S
C918 C919 1.446 . S
C918 C941 1.391 . S
C919 C918 1.446 . S
C919 C920 1.339 . S
C919 H948 0.949 . S
C920 C919 1.339 . S
C920 C921 1.439 . S
C920 H949 0.950 . S
C921 N917 1.383 . S
C921 C920 1.439 . S
C921 C939 1.392 . S
N922 Co906 2.282 . S
N922 C925 1.332 . S
N922 C927 1.332 . S
C923 C924 1.386 . S
C923 C926 1.388 . S
C924 C923 1.386 . S
C924 C925 1.382 . S
C924 H950 0.950 . S
C925 N922 1.332 . S
C925 C924 1.382 . S
C925 H936 0.952 . S
C926 C923 1.388 . S
C926 C927 1.382 . S
C926 H951 0.950 . S
C927 N922 1.332 . S
C927 C926 1.382 . S
C927 H937 0.948 . S
N928 Co906 2.282 . S
N928 C932 1.332 . S
N928 C933 1.332 . S
C929 C930 1.388 . S
C929 C933 1.382 . S
C929 H952 0.950 . S
C930 C929 1.388 . S
C930 C931 1.386 . S
C931 C930 1.386 . S
C931 C932 1.382 . S
C931 H953 0.950 . S
C932 N928 1.332 . S
C932 C931 1.382 . S
C932 H934 0.952 . S
C933 N928 1.332 . S
C933 C929 1.382 . S
C933 H935 0.948 . S
H934 C932 0.952 . S
H935 C933 0.948 . S
H936 C925 0.952 . S
H937 C927 0.948 . S
C938 C904 1.395 . S
C938 C908 1.391 . S
C939 C901 1.389 . S
C939 C921 1.392 . S
C940 C911 1.392 . S
C940 C913 1.389 . S
C941 C916 1.395 . S
C941 C918 1.391 . S
H942 C902 0.951 . S
H943 C903 0.950 . S
H944 C909 0.949 1_545 S
H945 C910 0.950 . S
H946 C914 0.951 . S
H947 C915 0.950 . S
H948 C919 0.949 . S
H949 C920 0.950 . S
H950 C924 0.950 . S
H951 C926 0.950 . S
H952 C929 0.950 . S
H953 C931 0.950 . S
C954 C955 1.443 . S
C954 N958 1.376 . S
C954 C992 1.389 . S
C955 C954 1.443 . S
C955 C956 1.340 . S
C955 H995 0.951 . S
C956 C955 1.340 . S
C956 C957 1.439 . S
C956 H996 0.950 . S
C957 C956 1.439 . S
C957 N958 1.374 . S
C957 C991 1.395 . S
N958 C954 1.376 . S
N958 C957 1.374 . S
N958 Co959 2.008 . S
Co959 N958 2.008 . S
Co959 N960 1.995 . S
Co959 N965 2.008 . S
Co959 N970 1.995 . S
Co959 N975 2.282 . S
Co959 N981 2.282 . S
N960 Co959 1.995 . S
N960 C961 1.376 . S
N960 C964 1.383 . S
C961 N960 1.376 . S
C961 C962 1.446 . S
C961 C991 1.391 . S
C962 C961 1.446 . S
C962 C963 1.339 . S
C962 H997 0.949 1_565 S
C963 C962 1.339 . S
C963 C964 1.439 . S
C963 H998 0.950 . S
C964 N960 1.383 . S
C964 C963 1.439 . S
C964 C993 1.392 . S
N965 Co959 2.008 . S
N965 C966 1.376 . S
N965 C969 1.374 . S
C966 N965 1.376 . S
C966 C967 1.443 . S
C966 C993 1.389 . S
C967 C966 1.443 . S
C967 C968 1.340 . S
C967 H999 0.951 . S
C968 C967 1.340 . S
C968 C969 1.439 . S
C968 H1000 0.950 . S
C969 N965 1.374 . S
C969 C968 1.439 . S
C969 C994 1.395 . S
N970 Co959 1.995 . S
N970 C971 1.376 . S
N970 C974 1.383 . S
C971 N970 1.376 . S
C971 C972 1.446 . S
C971 C994 1.391 . S
C972 C971 1.446 . S
C972 C973 1.339 . S
C972 H1001 0.949 . S
C973 C972 1.339 . S
C973 C974 1.439 . S
C973 H1002 0.950 . S
C974 N970 1.383 . S
C974 C973 1.439 . S
C974 C992 1.392 . S
N975 Co959 2.282 . S
N975 C978 1.332 . S
N975 C980 1.332 . S
C976 C977 1.386 . S
C976 C979 1.388 . S
C977 C976 1.386 . S
C977 C978 1.382 . S
C977 H1003 0.950 . S
C978 N975 1.332 . S
C978 C977 1.382 . S
C978 H989 0.952 . S
C979 C976 1.388 . S
C979 C980 1.382 . S
C979 H1004 0.950 . S
C980 N975 1.332 . S
C980 C979 1.382 . S
C980 H990 0.948 . S
N981 Co959 2.282 . S
N981 C985 1.332 . S
N981 C986 1.332 . S
C982 C983 1.388 . S
C982 C986 1.382 . S
C982 H1005 0.950 . S
C983 C982 1.388 . S
C983 C984 1.386 . S
C984 C983 1.386 . S
C984 C985 1.382 . S
C984 H1006 0.950 . S
C985 N981 1.332 . S
C985 C984 1.382 . S
C985 H987 0.952 . S
C986 N981 1.332 . S
C986 C982 1.382 . S
C986 H988 0.948 . S
H987 C985 0.952 . S
H988 C986 0.948 . S
H989 C978 0.952 . S
H990 C980 0.948 . S
C991 C957 1.395 . S
C991 C961 1.391 . S
C992 C954 1.389 . S
C992 C974 1.392 . S
C993 C964 1.392 . S
C993 C966 1.389 . S
C994 C969 1.395 . S
C994 C971 1.391 . S
H995 C955 0.951 . S
H996 C956 0.950 . S
H997 C962 0.949 1_545 S
H998 C963 0.950 . S
H999 C967 0.951 . S
H1000 C968 0.950 . S
H1001 C972 0.949 . S
H1002 C973 0.950 . S
H1003 C977 0.950 . S
H1004 C979 0.950 . S
H1005 C982 0.950 . S
H1006 C984 0.950 . S
C1007 C1008 1.443 . S
C1007 N1011 1.376 . S
C1007 C1045 1.389 . S
C1008 C1007 1.443 . S
C1008 C1009 1.340 . S
C1008 H1048 0.951 . S
C1009 C1008 1.340 . S
C1009 C1010 1.439 . S
C1009 H1049 0.950 . S
C1010 C1009 1.439 . S
C1010 N1011 1.374 . S
C1010 C1044 1.395 . S
N1011 C1007 1.376 . S
N1011 C1010 1.374 . S
N1011 Co1012 2.008 . S
Co1012 N1011 2.008 . S
Co1012 N1013 1.995 . S
Co1012 N1018 2.008 . S
Co1012 N1023 1.995 . S
Co1012 N1028 2.282 . S
Co1012 N1034 2.282 . S
N1013 Co1012 1.995 . S
N1013 C1014 1.376 . S
N1013 C1017 1.383 . S
C1014 N1013 1.376 . S
C1014 C1015 1.446 . S
C1014 C1044 1.391 . S
C1015 C1014 1.446 . S
C1015 C1016 1.339 . S
C1015 H1050 0.949 . S
C1016 C1015 1.339 . S
C1016 C1017 1.439 . S
C1016 H1051 0.950 . S
C1017 N1013 1.383 . S
C1017 C1016 1.439 . S
C1017 C1046 1.392 . S
N1018 Co1012 2.008 . S
N1018 C1019 1.376 . S
N1018 C1022 1.374 . S
C1019 N1018 1.376 . S
C1019 C1020 1.443 . S
C1019 C1046 1.389 . S
C1020 C1019 1.443 . S
C1020 C1021 1.340 . S
C1020 H1052 0.951 . S
C1021 C1020 1.340 . S
C1021 C1022 1.439 . S
C1021 H1053 0.950 1_455 S
C1022 N1018 1.374 . S
C1022 C1021 1.439 . S
C1022 C1047 1.395 . S
N1023 Co1012 1.995 . S
N1023 C1024 1.376 . S
N1023 C1027 1.383 . S
C1024 N1023 1.376 . S
C1024 C1025 1.446 . S
C1024 C1047 1.391 . S
C1025 C1024 1.446 . S
C1025 C1026 1.339 . S
C1025 H1054 0.949 . S
C1026 C1025 1.339 . S
C1026 C1027 1.439 . S
C1026 H1055 0.950 . S
C1027 N1023 1.383 . S
C1027 C1026 1.439 . S
C1027 C1045 1.392 . S
N1028 Co1012 2.282 . S
N1028 C1031 1.332 . S
N1028 C1033 1.332 . S
C1029 C1030 1.386 . S
C1029 C1032 1.388 . S
C1030 C1029 1.386 . S
C1030 C1031 1.382 . S
C1030 H1056 0.950 . S
C1031 N1028 1.332 . S
C1031 C1030 1.382 . S
C1031 H1042 0.952 . S
C1032 C1029 1.388 . S
C1032 C1033 1.382 . S
C1032 H1057 0.950 . S
C1033 N1028 1.332 . S
C1033 C1032 1.382 . S
C1033 H1043 0.948 . S
N1034 Co1012 2.282 . S
N1034 C1038 1.332 . S
N1034 C1039 1.332 . S
C1035 C1036 1.388 . S
C1035 C1039 1.382 . S
C1035 H1058 0.950 . S
C1036 C1035 1.388 . S
C1036 C1037 1.386 . S
C1037 C1036 1.386 . S
C1037 C1038 1.382 . S
C1037 H1059 0.950 . S
C1038 N1034 1.332 . S
C1038 C1037 1.382 . S
C1038 H1040 0.952 . S
C1039 N1034 1.332 . S
C1039 C1035 1.382 . S
C1039 H1041 0.948 . S
H1040 C1038 0.952 . S
H1041 C1039 0.948 . S
H1042 C1031 0.952 . S
H1043 C1033 0.948 . S
C1044 C1010 1.395 . S
C1044 C1014 1.391 . S
C1045 C1007 1.389 . S
C1045 C1027 1.392 . S
C1046 C1017 1.392 . S
C1046 C1019 1.389 . S
C1047 C1022 1.395 . S
C1047 C1024 1.391 . S
H1048 C1008 0.951 . S
H1049 C1009 0.950 . S
H1050 C1015 0.949 . S
H1051 C1016 0.950 . S
H1052 C1020 0.951 . S
H1053 C1021 0.950 1_655 S
H1054 C1025 0.949 . S
H1055 C1026 0.950 . S
H1056 C1030 0.950 . S
H1057 C1032 0.950 . S
H1058 C1035 0.950 . S
H1059 C1037 0.950 . S
C1060 C1061 1.443 . S
C1060 N1064 1.376 . S
C1060 C1098 1.389 . S
C1061 C1060 1.443 . S
C1061 C1062 1.340 . S
C1061 H1101 0.951 . S
C1062 C1061 1.340 . S
C1062 C1063 1.439 . S
C1062 H1102 0.950 . S
C1063 C1062 1.439 . S
C1063 N1064 1.374 . S
C1063 C1097 1.395 . S
N1064 C1060 1.376 . S
N1064 C1063 1.374 . S
N1064 Co1065 2.008 . S
Co1065 N1064 2.008 . S
Co1065 N1066 1.995 . S
Co1065 N1071 2.008 . S
Co1065 N1076 1.995 . S
Co1065 N1081 2.282 . S
Co1065 N1087 2.282 . S
N1066 Co1065 1.995 . S
N1066 C1067 1.376 . S
N1066 C1070 1.383 . S
C1067 N1066 1.376 . S
C1067 C1068 1.446 . S
C1067 C1097 1.391 . S
C1068 C1067 1.446 . S
C1068 C1069 1.339 . S
C1068 H1103 0.949 . S
C1069 C1068 1.339 . S
C1069 C1070 1.439 . S
C1069 H1104 0.950 . S
C1070 N1066 1.383 . S
C1070 C1069 1.439 . S
C1070 C1099 1.392 . S
N1071 Co1065 2.008 . S
N1071 C1072 1.376 . S
N1071 C1075 1.374 . S
C1072 N1071 1.376 . S
C1072 C1073 1.443 . S
C1072 C1099 1.389 . S
C1073 C1072 1.443 . S
C1073 C1074 1.340 . S
C1073 H1105 0.951 . S
C1074 C1073 1.340 . S
C1074 C1075 1.439 . S
C1074 H1106 0.950 . S
C1075 N1071 1.374 . S
C1075 C1074 1.439 . S
C1075 C1100 1.395 . S
N1076 Co1065 1.995 . S
N1076 C1077 1.376 . S
N1076 C1080 1.383 . S
C1077 N1076 1.376 . S
C1077 C1078 1.446 . S
C1077 C1100 1.391 . S
C1078 C1077 1.446 . S
C1078 C1079 1.339 . S
C1078 H1107 0.949 . S
C1079 C1078 1.339 . S
C1079 C1080 1.439 . S
C1079 H1108 0.950 . S
C1080 N1076 1.383 . S
C1080 C1079 1.439 . S
C1080 C1098 1.392 . S
N1081 Co1065 2.282 . S
N1081 C1084 1.332 . S
N1081 C1086 1.332 . S
C1082 C1083 1.386 . S
C1082 C1085 1.388 . S
C1083 C1082 1.386 . S
C1083 C1084 1.382 . S
C1083 H1109 0.950 . S
C1084 N1081 1.332 . S
C1084 C1083 1.382 . S
C1084 H1095 0.952 . S
C1085 C1082 1.388 . S
C1085 C1086 1.382 . S
C1085 H1110 0.950 . S
C1086 N1081 1.332 . S
C1086 C1085 1.382 . S
C1086 H1096 0.948 . S
N1087 Co1065 2.282 . S
N1087 C1091 1.332 . S
N1087 C1092 1.332 . S
C1088 C1089 1.388 . S
C1088 C1092 1.382 . S
C1088 H1111 0.950 . S
C1089 C1088 1.388 . S
C1089 C1090 1.386 . S
C1090 C1089 1.386 . S
C1090 C1091 1.382 . S
C1090 H1112 0.950 . S
C1091 N1087 1.332 . S
C1091 C1090 1.382 . S
C1091 H1093 0.952 . S
C1092 N1087 1.332 . S
C1092 C1088 1.382 . S
C1092 H1094 0.948 . S
H1093 C1091 0.952 . S
H1094 C1092 0.948 . S
H1095 C1084 0.952 . S
H1096 C1086 0.948 . S
C1097 C1063 1.395 . S
C1097 C1067 1.391 . S
C1098 C1060 1.389 . S
C1098 C1080 1.392 . S
C1099 C1070 1.392 . S
C1099 C1072 1.389 . S
C1100 C1075 1.395 . S
C1100 C1077 1.391 . S
H1101 C1061 0.951 . S
H1102 C1062 0.950 . S
H1103 C1068 0.949 . S
H1104 C1069 0.950 . S
H1105 C1073 0.951 . S
H1106 C1074 0.950 . S
H1107 C1078 0.949 . S
H1108 C1079 0.950 . S
H1109 C1083 0.950 . S
H1110 C1085 0.950 . S
H1111 C1088 0.950 . S
H1112 C1090 0.950 . S
C1113 C1114 1.443 . S
C1113 N1117 1.376 . S
C1113 C1151 1.389 . S
C1114 C1113 1.443 . S
C1114 C1115 1.340 . S
C1114 H1154 0.951 . S
C1115 C1114 1.340 . S
C1115 C1116 1.439 . S
C1115 H1155 0.950 . S
C1116 C1115 1.439 . S
C1116 N1117 1.374 . S
C1116 C1150 1.395 . S
N1117 C1113 1.376 . S
N1117 C1116 1.374 . S
N1117 Co1118 2.008 . S
Co1118 N1117 2.008 . S
Co1118 N1119 1.995 . S
Co1118 N1124 2.008 . S
Co1118 N1129 1.995 . S
Co1118 N1134 2.282 . S
Co1118 N1140 2.282 . S
N1119 Co1118 1.995 . S
N1119 C1120 1.376 . S
N1119 C1123 1.383 . S
C1120 N1119 1.376 . S
C1120 C1121 1.446 . S
C1120 C1150 1.391 . S
C1121 C1120 1.446 . S
C1121 C1122 1.339 . S
C1121 H1156 0.949 . S
C1122 C1121 1.339 . S
C1122 C1123 1.439 . S
C1122 H1157 0.950 . S
C1123 N1119 1.383 . S
C1123 C1122 1.439 . S
C1123 C1152 1.392 . S
N1124 Co1118 2.008 . S
N1124 C1125 1.376 . S
N1124 C1128 1.374 . S
C1125 N1124 1.376 . S
C1125 C1126 1.443 . S
C1125 C1152 1.389 . S
C1126 C1125 1.443 . S
C1126 C1127 1.340 . S
C1126 H1158 0.951 . S
C1127 C1126 1.340 . S
C1127 C1128 1.439 . S
C1127 H1159 0.950 . S
C1128 N1124 1.374 . S
C1128 C1127 1.439 . S
C1128 C1153 1.395 . S
N1129 Co1118 1.995 . S
N1129 C1130 1.376 . S
N1129 C1133 1.383 . S
C1130 N1129 1.376 . S
C1130 C1131 1.446 . S
C1130 C1153 1.391 . S
C1131 C1130 1.446 . S
C1131 C1132 1.339 . S
C1131 H1160 0.949 . S
C1132 C1131 1.339 . S
C1132 C1133 1.439 . S
C1132 H1161 0.950 . S
C1133 N1129 1.383 . S
C1133 C1132 1.439 . S
C1133 C1151 1.392 . S
N1134 Co1118 2.282 . S
N1134 C1137 1.332 . S
N1134 C1139 1.332 . S
C1135 C1136 1.386 . S
C1135 C1138 1.388 . S
C1136 C1135 1.386 . S
C1136 C1137 1.382 . S
C1136 H1162 0.950 . S
C1137 N1134 1.332 . S
C1137 C1136 1.382 . S
C1137 H1148 0.952 . S
C1138 C1135 1.388 . S
C1138 C1139 1.382 . S
C1138 H1163 0.950 . S
C1139 N1134 1.332 . S
C1139 C1138 1.382 . S
C1139 H1149 0.948 . S
N1140 Co1118 2.282 . S
N1140 C1144 1.332 . S
N1140 C1145 1.332 . S
C1141 C1142 1.388 . S
C1141 C1145 1.382 . S
C1141 H1164 0.950 . S
C1142 C1141 1.388 . S
C1142 C1143 1.386 . S
C1143 C1142 1.386 . S
C1143 C1144 1.382 . S
C1143 H1165 0.950 . S
C1144 N1140 1.332 . S
C1144 C1143 1.382 . S
C1144 H1146 0.952 . S
C1145 N1140 1.332 . S
C1145 C1141 1.382 . S
C1145 H1147 0.948 . S
H1146 C1144 0.952 . S
H1147 C1145 0.948 . S
H1148 C1137 0.952 . S
H1149 C1139 0.948 . S
C1150 C1116 1.395 . S
C1150 C1120 1.391 . S
C1151 C1113 1.389 . S
C1151 C1133 1.392 . S
C1152 C1123 1.392 . S
C1152 C1125 1.389 . S
C1153 C1128 1.395 . S
C1153 C1130 1.391 . S
H1154 C1114 0.951 . S
H1155 C1115 0.950 . S
H1156 C1121 0.949 . S
H1157 C1122 0.950 . S
H1158 C1126 0.951 . S
H1159 C1127 0.950 . S
H1160 C1131 0.949 . S
H1161 C1132 0.950 . S
H1162 C1136 0.950 . S
H1163 C1138 0.950 . S
H1164 C1141 0.950 . S
H1165 C1143 0.950 . S
C1166 C1167 1.443 . S
C1166 N1170 1.376 . S
C1166 C1204 1.389 . S
C1167 C1166 1.443 . S
C1167 C1168 1.340 1_545 S
C1167 H1207 0.951 1_545 S
C1168 C1167 1.340 1_565 S
C1168 C1169 1.439 1_565 S
C1168 H1208 0.950 . S
C1169 C1168 1.439 1_545 S
C1169 N1170 1.374 . S
C1169 C1203 1.395 . S
N1170 C1166 1.376 . S
N1170 C1169 1.374 . S
N1170 Co1171 2.008 . S
Co1171 N1170 2.008 . S
Co1171 N1172 1.995 . S
Co1171 N1177 2.008 . S
Co1171 N1182 1.995 . S
Co1171 N1187 2.282 . S
Co1171 N1193 2.282 . S
N1172 Co1171 1.995 . S
N1172 C1173 1.376 . S
N1172 C1176 1.383 . S
C1173 N1172 1.376 . S
C1173 C1174 1.446 . S
C1173 C1203 1.391 . S
C1174 C1173 1.446 . S
C1174 C1175 1.339 . S
C1174 H1209 0.949 . S
C1175 C1174 1.339 . S
C1175 C1176 1.439 . S
C1175 H1210 0.950 . S
C1176 N1172 1.383 . S
C1176 C1175 1.439 . S
C1176 C1205 1.392 . S
N1177 Co1171 2.008 . S
N1177 C1178 1.376 . S
N1177 C1181 1.374 . S
C1178 N1177 1.376 . S
C1178 C1179 1.443 . S
C1178 C1205 1.389 . S
C1179 C1178 1.443 . S
C1179 C1180 1.340 . S
C1179 H1211 0.951 . S
C1180 C1179 1.340 . S
C1180 C1181 1.439 . S
C1180 H1212 0.950 . S
C1181 N1177 1.374 . S
C1181 C1180 1.439 . S
C1181 C1206 1.395 . S
N1182 Co1171 1.995 . S
N1182 C1183 1.376 . S
N1182 C1186 1.383 . S
C1183 N1182 1.376 . S
C1183 C1184 1.446 . S
C1183 C1206 1.391 . S
C1184 C1183 1.446 . S
C1184 C1185 1.339 . S
C1184 H1213 0.949 . S
C1185 C1184 1.339 . S
C1185 C1186 1.439 . S
C1185 H1214 0.950 . S
C1186 N1182 1.383 . S
C1186 C1185 1.439 . S
C1186 C1204 1.392 . S
N1187 Co1171 2.282 . S
N1187 C1190 1.332 . S
N1187 C1192 1.332 . S
C1188 C1189 1.386 . S
C1188 C1191 1.388 . S
C1189 C1188 1.386 . S
C1189 C1190 1.382 . S
C1189 H1215 0.950 . S
C1190 N1187 1.332 . S
C1190 C1189 1.382 . S
C1190 H1201 0.952 . S
C1191 C1188 1.388 . S
C1191 C1192 1.382 . S
C1191 H1216 0.950 . S
C1192 N1187 1.332 . S
C1192 C1191 1.382 . S
C1192 H1202 0.948 . S
N1193 Co1171 2.282 . S
N1193 C1197 1.332 . S
N1193 C1198 1.332 . S
C1194 C1195 1.388 1_545 S
C1194 C1198 1.382 . S
C1194 H1217 0.950 . S
C1195 C1194 1.388 1_565 S
C1195 C1196 1.386 . S
C1196 C1195 1.386 . S
C1196 C1197 1.382 1_565 S
C1196 H1218 0.950 . S
C1197 N1193 1.332 . S
C1197 C1196 1.382 1_545 S
C1197 H1199 0.952 . S
C1198 N1193 1.332 . S
C1198 C1194 1.382 . S
C1198 H1200 0.948 . S
H1199 C1197 0.952 . S
H1200 C1198 0.948 . S
H1201 C1190 0.952 . S
H1202 C1192 0.948 . S
C1203 C1169 1.395 . S
C1203 C1173 1.391 . S
C1204 C1166 1.389 . S
C1204 C1186 1.392 . S
C1205 C1176 1.392 . S
C1205 C1178 1.389 . S
C1206 C1181 1.395 . S
C1206 C1183 1.391 . S
H1207 C1167 0.951 1_565 S
H1208 C1168 0.950 . S
H1209 C1174 0.949 . S
H1210 C1175 0.950 . S
H1211 C1179 0.951 . S
H1212 C1180 0.950 . S
H1213 C1184 0.949 . S
H1214 C1185 0.950 . S
H1215 C1189 0.950 . S
H1216 C1191 0.950 . S
H1217 C1194 0.950 . S
H1218 C1196 0.950 . S
C1219 C1220 1.443 . S
C1219 N1223 1.376 . S
C1219 C1257 1.389 . S
C1220 C1219 1.443 . S
C1220 C1221 1.340 . S
C1220 H1260 0.951 . S
C1221 C1220 1.340 . S
C1221 C1222 1.439 . S
C1221 H1261 0.950 . S
C1222 C1221 1.439 . S
C1222 N1223 1.374 . S
C1222 C1256 1.395 . S
N1223 C1219 1.376 . S
N1223 C1222 1.374 . S
N1223 Co1224 2.008 . S
Co1224 N1223 2.008 . S
Co1224 N1225 1.995 . S
Co1224 N1230 2.008 . S
Co1224 N1235 1.995 . S
Co1224 N1240 2.282 . S
Co1224 N1246 2.282 . S
N1225 Co1224 1.995 . S
N1225 C1226 1.376 . S
N1225 C1229 1.383 . S
C1226 N1225 1.376 . S
C1226 C1227 1.446 . S
C1226 C1256 1.391 . S
C1227 C1226 1.446 . S
C1227 C1228 1.339 . S
C1227 H1262 0.949 . S
C1228 C1227 1.339 . S
C1228 C1229 1.439 . S
C1228 H1263 0.950 . S
C1229 N1225 1.383 . S
C1229 C1228 1.439 . S
C1229 C1258 1.392 . S
N1230 Co1224 2.008 . S
N1230 C1231 1.376 . S
N1230 C1234 1.374 . S
C1231 N1230 1.376 . S
C1231 C1232 1.443 1_655 S
C1231 C1258 1.389 . S
C1232 C1231 1.443 1_455 S
C1232 C1233 1.340 . S
C1232 H1264 0.951 . S
C1233 C1232 1.340 . S
C1233 C1234 1.439 1_455 S
C1233 H1265 0.950 . S
C1234 N1230 1.374 . S
C1234 C1233 1.439 1_655 S
C1234 C1259 1.395 . S
N1235 Co1224 1.995 . S
N1235 C1236 1.376 . S
N1235 C1239 1.383 . S
C1236 N1235 1.376 . S
C1236 C1237 1.446 . S
C1236 C1259 1.391 . S
C1237 C1236 1.446 . S
C1237 C1238 1.339 . S
C1237 H1266 0.949 . S
C1238 C1237 1.339 . S
C1238 C1239 1.439 . S
C1238 H1267 0.950 . S
C1239 N1235 1.383 . S
C1239 C1238 1.439 . S
C1239 C1257 1.392 . S
N1240 Co1224 2.282 . S
N1240 C1243 1.332 . S
N1240 C1245 1.332 . S
C1241 C1242 1.386 . S
C1241 C1244 1.388 . S
C1242 C1241 1.386 . S
C1242 C1243 1.382 . S
C1242 H1268 0.950 . S
C1243 N1240 1.332 . S
C1243 C1242 1.382 . S
C1243 H1254 0.952 . S
C1244 C1241 1.388 . S
C1244 C1245 1.382 . S
C1244 H1269 0.950 . S
C1245 N1240 1.332 . S
C1245 C1244 1.382 . S
C1245 H1255 0.948 . S
N1246 Co1224 2.282 . S
N1246 C1250 1.332 . S
N1246 C1251 1.332 . S
C1247 C1248 1.388 . S
C1247 C1251 1.382 . S
C1247 H1270 0.950 . S
C1248 C1247 1.388 . S
C1248 C1249 1.386 . S
C1249 C1248 1.386 . S
C1249 C1250 1.382 . S
C1249 H1271 0.950 . S
C1250 N1246 1.332 . S
C1250 C1249 1.382 . S
C1250 H1252 0.952 . S
C1251 N1246 1.332 . S
C1251 C1247 1.382 . S
C1251 H1253 0.948 . S
H1252 C1250 0.952 . S
H1253 C1251 0.948 . S
H1254 C1243 0.952 . S
H1255 C1245 0.948 . S
C1256 C1222 1.395 . S
C1256 C1226 1.391 . S
C1257 C1219 1.389 . S
C1257 C1239 1.392 . S
C1258 C1229 1.392 . S
C1258 C1231 1.389 . S
C1259 C1234 1.395 . S
C1259 C1236 1.391 . S
H1260 C1220 0.951 . S
H1261 C1221 0.950 . S
H1262 C1227 0.949 . S
H1263 C1228 0.950 . S
H1264 C1232 0.951 . S
H1265 C1233 0.950 . S
H1266 C1237 0.949 . S
H1267 C1238 0.950 . S
H1268 C1242 0.950 . S
H1269 C1244 0.950 . S
H1270 C1247 0.950 . S
H1271 C1249 0.950 . S
C1272 C1273 1.443 . S
C1272 N1276 1.376 . S
C1272 C1310 1.389 . S
C1273 C1272 1.443 . S
C1273 C1274 1.340 . S
C1273 H1313 0.951 . S
C1274 C1273 1.340 . S
C1274 C1275 1.439 . S
C1274 H1314 0.950 . S
C1275 C1274 1.439 . S
C1275 N1276 1.374 . S
C1275 C1309 1.395 . S
N1276 C1272 1.376 . S
N1276 C1275 1.374 . S
N1276 Co1277 2.008 . S
Co1277 N1276 2.008 . S
Co1277 N1278 1.995 . S
Co1277 N1283 2.008 . S
Co1277 N1288 1.995 . S
Co1277 N1293 2.282 . S
Co1277 N1299 2.282 . S
N1278 Co1277 1.995 . S
N1278 C1279 1.376 . S
N1278 C1282 1.383 . S
C1279 N1278 1.376 . S
C1279 C1280 1.446 . S
C1279 C1309 1.391 . S
C1280 C1279 1.446 . S
C1280 C1281 1.339 . S
C1280 H1315 0.949 1_545 S
C1281 C1280 1.339 . S
C1281 C1282 1.439 . S
C1281 H1316 0.950 . S
C1282 N1278 1.383 . S
C1282 C1281 1.439 . S
C1282 C1311 1.392 . S
N1283 Co1277 2.008 . S
N1283 C1284 1.376 . S
N1283 C1287 1.374 . S
C1284 N1283 1.376 . S
C1284 C1285 1.443 . S
C1284 C1311 1.389 . S
C1285 C1284 1.443 . S
C1285 C1286 1.340 . S
C1285 H1317 0.951 . S
C1286 C1285 1.340 . S
C1286 C1287 1.439 . S
C1286 H1318 0.950 . S
C1287 N1283 1.374 . S
C1287 C1286 1.439 . S
C1287 C1312 1.395 . S
N1288 Co1277 1.995 . S
N1288 C1289 1.376 . S
N1288 C1292 1.383 . S
C1289 N1288 1.376 . S
C1289 C1290 1.446 . S
C1289 C1312 1.391 . S
C1290 C1289 1.446 . S
C1290 C1291 1.339 . S
C1290 H1319 0.949 . S
C1291 C1290 1.339 . S
C1291 C1292 1.439 . S
C1291 H1320 0.950 . S
C1292 N1288 1.383 . S
C1292 C1291 1.439 . S
C1292 C1310 1.392 . S
N1293 Co1277 2.282 . S
N1293 C1296 1.332 . S
N1293 C1298 1.332 . S
C1294 C1295 1.386 . S
C1294 C1297 1.388 . S
C1295 C1294 1.386 . S
C1295 C1296 1.382 . S
C1295 H1321 0.950 . S
C1296 N1293 1.332 . S
C1296 C1295 1.382 . S
C1296 H1307 0.952 . S
C1297 C1294 1.388 . S
C1297 C1298 1.382 . S
C1297 H1322 0.950 . S
C1298 N1293 1.332 . S
C1298 C1297 1.382 . S
C1298 H1308 0.948 . S
N1299 Co1277 2.282 . S
N1299 C1303 1.332 . S
N1299 C1304 1.332 . S
C1300 C1301 1.388 . S
C1300 C1304 1.382 . S
C1300 H1323 0.950 . S
C1301 C1300 1.388 . S
C1301 C1302 1.386 . S
C1302 C1301 1.386 . S
C1302 C1303 1.382 . S
C1302 H1324 0.950 . S
C1303 N1299 1.332 . S
C1303 C1302 1.382 . S
C1303 H1305 0.952 . S
C1304 N1299 1.332 . S
C1304 C1300 1.382 . S
C1304 H1306 0.948 . S
H1305 C1303 0.952 . S
H1306 C1304 0.948 . S
H1307 C1296 0.952 . S
H1308 C1298 0.948 . S
C1309 C1275 1.395 . S
C1309 C1279 1.391 . S
C1310 C1272 1.389 . S
C1310 C1292 1.392 . S
C1311 C1282 1.392 . S
C1311 C1284 1.389 . S
C1312 C1287 1.395 . S
C1312 C1289 1.391 . S
H1313 C1273 0.951 . S
H1314 C1274 0.950 . S
H1315 C1280 0.949 1_565 S
H1316 C1281 0.950 . S
H1317 C1285 0.951 . S
H1318 C1286 0.950 . S
H1319 C1290 0.949 . S
H1320 C1291 0.950 . S
H1321 C1295 0.950 . S
H1322 C1297 0.950 . S
H1323 C1300 0.950 . S
H1324 C1302 0.950 . S
C1325 C1326 1.443 . S
C1325 N1329 1.376 . S
C1325 C1363 1.389 . S
C1326 C1325 1.443 . S
C1326 C1327 1.340 . S
C1326 H1366 0.951 . S
C1327 C1326 1.340 . S
C1327 C1328 1.439 . S
C1327 H1367 0.950 . S
C1328 C1327 1.439 . S
C1328 N1329 1.374 . S
C1328 C1362 1.395 . S
N1329 C1325 1.376 . S
N1329 C1328 1.374 . S
N1329 Co1330 2.008 . S
Co1330 N1329 2.008 . S
Co1330 N1331 1.995 . S
Co1330 N1336 2.008 . S
Co1330 N1341 1.995 . S
Co1330 N1346 2.282 . S
Co1330 N1352 2.282 . S
N1331 Co1330 1.995 . S
N1331 C1332 1.376 . S
N1331 C1335 1.383 . S
C1332 N1331 1.376 . S
C1332 C1333 1.446 1_655 S
C1332 C1362 1.391 . S
C1333 C1332 1.446 1_455 S
C1333 C1334 1.339 1_455 S
C1333 H1368 0.949 . S
C1334 C1333 1.339 1_655 S
C1334 C1335 1.439 . S
C1334 H1369 0.950 1_655 S
C1335 N1331 1.383 . S
C1335 C1334 1.439 . S
C1335 C1364 1.392 . S
N1336 Co1330 2.008 . S
N1336 C1337 1.376 . S
N1336 C1340 1.374 . S
C1337 N1336 1.376 . S
C1337 C1338 1.443 . S
C1337 C1364 1.389 . S
C1338 C1337 1.443 . S
C1338 C1339 1.340 . S
C1338 H1370 0.951 . S
C1339 C1338 1.340 . S
C1339 C1340 1.439 . S
C1339 H1371 0.950 . S
C1340 N1336 1.374 . S
C1340 C1339 1.439 . S
C1340 C1365 1.395 . S
N1341 Co1330 1.995 . S
N1341 C1342 1.376 . S
N1341 C1345 1.383 . S
C1342 N1341 1.376 . S
C1342 C1343 1.446 . S
C1342 C1365 1.391 . S
C1343 C1342 1.446 . S
C1343 C1344 1.339 . S
C1343 H1372 0.949 . S
C1344 C1343 1.339 . S
C1344 C1345 1.439 . S
C1344 H1373 0.950 . S
C1345 N1341 1.383 . S
C1345 C1344 1.439 . S
C1345 C1363 1.392 . S
N1346 Co1330 2.282 . S
N1346 C1349 1.332 . S
N1346 C1351 1.332 . S
C1347 C1348 1.386 . S
C1347 C1350 1.388 . S
C1348 C1347 1.386 . S
C1348 C1349 1.382 . S
C1348 H1374 0.950 . S
C1349 N1346 1.332 . S
C1349 C1348 1.382 . S
C1349 H1360 0.952 . S
C1350 C1347 1.388 . S
C1350 C1351 1.382 . S
C1350 H1375 0.950 . S
C1351 N1346 1.332 . S
C1351 C1350 1.382 . S
C1351 H1361 0.948 . S
N1352 Co1330 2.282 . S
N1352 C1356 1.332 . S
N1352 C1357 1.332 . S
C1353 C1354 1.388 . S
C1353 C1357 1.382 . S
C1353 H1376 0.950 . S
C1354 C1353 1.388 . S
C1354 C1355 1.386 . S
C1355 C1354 1.386 . S
C1355 C1356 1.382 . S
C1355 H1377 0.950 . S
C1356 N1352 1.332 . S
C1356 C1355 1.382 . S
C1356 H1358 0.952 . S
C1357 N1352 1.332 . S
C1357 C1353 1.382 . S
C1357 H1359 0.948 . S
H1358 C1356 0.952 . S
H1359 C1357 0.948 . S
H1360 C1349 0.952 . S
H1361 C1351 0.948 . S
C1362 C1328 1.395 . S
C1362 C1332 1.391 . S
C1363 C1325 1.389 . S
C1363 C1345 1.392 . S
C1364 C1335 1.392 . S
C1364 C1337 1.389 . S
C1365 C1340 1.395 . S
C1365 C1342 1.391 . S
H1366 C1326 0.951 . S
H1367 C1327 0.950 . S
H1368 C1333 0.949 . S
H1369 C1334 0.950 1_455 S
H1370 C1338 0.951 . S
H1371 C1339 0.950 . S
H1372 C1343 0.949 . S
H1373 C1344 0.950 . S
H1374 C1348 0.950 . S
H1375 C1350 0.950 . S
H1376 C1353 0.950 . S
H1377 C1355 0.950 . S
C1378 C1379 1.443 . S
C1378 N1382 1.376 . S
C1378 C1416 1.389 . S
C1379 C1378 1.443 . S
C1379 C1380 1.340 . S
C1379 H1419 0.951 . S
C1380 C1379 1.340 . S
C1380 C1381 1.439 . S
C1380 H1420 0.950 . S
C1381 C1380 1.439 . S
C1381 N1382 1.374 . S
C1381 C1415 1.395 . S
N1382 C1378 1.376 . S
N1382 C1381 1.374 . S
N1382 Co1383 2.008 . S
Co1383 N1382 2.008 . S
Co1383 N1384 1.995 . S
Co1383 N1389 2.008 . S
Co1383 N1394 1.995 . S
Co1383 N1399 2.282 . S
Co1383 N1405 2.282 . S
N1384 Co1383 1.995 . S
N1384 C1385 1.376 . S
N1384 C1388 1.383 . S
C1385 N1384 1.376 . S
C1385 C1386 1.446 . S
C1385 C1415 1.391 . S
C1386 C1385 1.446 . S
C1386 C1387 1.339 . S
C1386 H1421 0.949 . S
C1387 C1386 1.339 . S
C1387 C1388 1.439 . S
C1387 H1422 0.950 . S
C1388 N1384 1.383 . S
C1388 C1387 1.439 . S
C1388 C1417 1.392 . S
N1389 Co1383 2.008 . S
N1389 C1390 1.376 . S
N1389 C1393 1.374 . S
C1390 N1389 1.376 . S
C1390 C1391 1.443 . S
C1390 C1417 1.389 . S
C1391 C1390 1.443 . S
C1391 C1392 1.340 . S
C1391 H1423 0.951 . S
C1392 C1391 1.340 . S
C1392 C1393 1.439 . S
C1392 H1424 0.950 . S
C1393 N1389 1.374 . S
C1393 C1392 1.439 . S
C1393 C1418 1.395 . S
N1394 Co1383 1.995 . S
N1394 C1395 1.376 . S
N1394 C1398 1.383 . S
C1395 N1394 1.376 . S
C1395 C1396 1.446 . S
C1395 C1418 1.391 . S
C1396 C1395 1.446 . S
C1396 C1397 1.339 . S
C1396 H1425 0.949 . S
C1397 C1396 1.339 . S
C1397 C1398 1.439 . S
C1397 H1426 0.950 . S
C1398 N1394 1.383 . S
C1398 C1397 1.439 . S
C1398 C1416 1.392 . S
N1399 Co1383 2.282 . S
N1399 C1402 1.332 . S
N1399 C1404 1.332 . S
C1400 C1401 1.386 . S
C1400 C1403 1.388 . S
C1401 C1400 1.386 . S
C1401 C1402 1.382 . S
C1401 H1427 0.950 . S
C1402 N1399 1.332 . S
C1402 C1401 1.382 . S
C1402 H1413 0.952 . S
C1403 C1400 1.388 . S
C1403 C1404 1.382 . S
C1403 H1428 0.950 . S
C1404 N1399 1.332 . S
C1404 C1403 1.382 . S
C1404 H1414 0.948 . S
N1405 Co1383 2.282 . S
N1405 C1409 1.332 . S
N1405 C1410 1.332 . S
C1406 C1407 1.388 . S
C1406 C1410 1.382 . S
C1406 H1429 0.950 . S
C1407 C1406 1.388 . S
C1407 C1408 1.386 . S
C1408 C1407 1.386 . S
C1408 C1409 1.382 . S
C1408 H1430 0.950 . S
C1409 N1405 1.332 . S
C1409 C1408 1.382 . S
C1409 H1411 0.952 . S
C1410 N1405 1.332 . S
C1410 C1406 1.382 . S
C1410 H1412 0.948 . S
H1411 C1409 0.952 . S
H1412 C1410 0.948 . S
H1413 C1402 0.952 . S
H1414 C1404 0.948 . S
C1415 C1381 1.395 . S
C1415 C1385 1.391 . S
C1416 C1378 1.389 . S
C1416 C1398 1.392 . S
C1417 C1388 1.392 . S
C1417 C1390 1.389 . S
C1418 C1393 1.395 . S
C1418 C1395 1.391 . S
H1419 C1379 0.951 . S
H1420 C1380 0.950 . S
H1421 C1386 0.949 . S
H1422 C1387 0.950 . S
H1423 C1391 0.951 . S
H1424 C1392 0.950 . S
H1425 C1396 0.949 . S
H1426 C1397 0.950 . S
H1427 C1401 0.950 . S
H1428 C1403 0.950 . S
H1429 C1406 0.950 . S
H1430 C1408 0.950 . S
C1431 C1432 1.443 . S
C1431 N1435 1.376 . S
C1431 C1469 1.389 . S
C1432 C1431 1.443 . S
C1432 C1433 1.340 . S
C1432 H1472 0.951 . S
C1433 C1432 1.340 . S
C1433 C1434 1.439 . S
C1433 H1473 0.950 . S
C1434 C1433 1.439 . S
C1434 N1435 1.374 . S
C1434 C1468 1.395 . S
N1435 C1431 1.376 . S
N1435 C1434 1.374 . S
N1435 Co1436 2.008 . S
Co1436 N1435 2.008 . S
Co1436 N1437 1.995 . S
Co1436 N1442 2.008 . S
Co1436 N1447 1.995 . S
Co1436 N1452 2.282 . S
Co1436 N1458 2.282 . S
N1437 Co1436 1.995 . S
N1437 C1438 1.376 . S
N1437 C1441 1.383 . S
C1438 N1437 1.376 . S
C1438 C1439 1.446 . S
C1438 C1468 1.391 . S
C1439 C1438 1.446 . S
C1439 C1440 1.339 . S
C1439 H1474 0.949 . S
C1440 C1439 1.339 . S
C1440 C1441 1.439 . S
C1440 H1475 0.950 . S
C1441 N1437 1.383 . S
C1441 C1440 1.439 . S
C1441 C1470 1.392 . S
N1442 Co1436 2.008 . S
N1442 C1443 1.376 . S
N1442 C1446 1.374 . S
C1443 N1442 1.376 . S
C1443 C1444 1.443 . S
C1443 C1470 1.389 . S
C1444 C1443 1.443 . S
C1444 C1445 1.340 . S
C1444 H1476 0.951 . S
C1445 C1444 1.340 . S
C1445 C1446 1.439 . S
C1445 H1477 0.950 . S
C1446 N1442 1.374 . S
C1446 C1445 1.439 . S
C1446 C1471 1.395 . S
N1447 Co1436 1.995 . S
N1447 C1448 1.376 . S
N1447 C1451 1.383 . S
C1448 N1447 1.376 . S
C1448 C1449 1.446 . S
C1448 C1471 1.391 . S
C1449 C1448 1.446 . S
C1449 C1450 1.339 . S
C1449 H1478 0.949 . S
C1450 C1449 1.339 . S
C1450 C1451 1.439 . S
C1450 H1479 0.950 . S
C1451 N1447 1.383 . S
C1451 C1450 1.439 . S
C1451 C1469 1.392 . S
N1452 Co1436 2.282 . S
N1452 C1455 1.332 . S
N1452 C1457 1.332 . S
C1453 C1454 1.386 . S
C1453 C1456 1.388 . S
C1454 C1453 1.386 . S
C1454 C1455 1.382 . S
C1454 H1480 0.950 . S
C1455 N1452 1.332 . S
C1455 C1454 1.382 . S
C1455 H1466 0.952 . S
C1456 C1453 1.388 . S
C1456 C1457 1.382 . S
C1456 H1481 0.950 . S
C1457 N1452 1.332 . S
C1457 C1456 1.382 . S
C1457 H1467 0.948 . S
N1458 Co1436 2.282 . S
N1458 C1462 1.332 . S
N1458 C1463 1.332 . S
C1459 C1460 1.388 . S
C1459 C1463 1.382 . S
C1459 H1482 0.950 . S
C1460 C1459 1.388 . S
C1460 C1461 1.386 . S
C1461 C1460 1.386 . S
C1461 C1462 1.382 . S
C1461 H1483 0.950 . S
C1462 N1458 1.332 . S
C1462 C1461 1.382 . S
C1462 H1464 0.952 . S
C1463 N1458 1.332 . S
C1463 C1459 1.382 . S
C1463 H1465 0.948 . S
H1464 C1462 0.952 . S
H1465 C1463 0.948 . S
H1466 C1455 0.952 . S
H1467 C1457 0.948 . S
C1468 C1434 1.395 . S
C1468 C1438 1.391 . S
C1469 C1431 1.389 . S
C1469 C1451 1.392 . S
C1470 C1441 1.392 . S
C1470 C1443 1.389 . S
C1471 C1446 1.395 . S
C1471 C1448 1.391 . S
H1472 C1432 0.951 . S
H1473 C1433 0.950 . S
H1474 C1439 0.949 . S
H1475 C1440 0.950 . S
H1476 C1444 0.951 . S
H1477 C1445 0.950 . S
H1478 C1449 0.949 . S
H1479 C1450 0.950 . S
H1480 C1454 0.950 . S
H1481 C1456 0.950 . S
H1482 C1459 0.950 . S
H1483 C1461 0.950 . S
C1484 C1485 1.443 . S
C1484 N1488 1.376 . S
C1484 C1522 1.389 . S
C1485 C1484 1.443 . S
C1485 C1486 1.340 . S
C1485 H1525 0.951 . S
C1486 C1485 1.340 . S
C1486 C1487 1.439 . S
C1486 H1526 0.950 . S
C1487 C1486 1.439 . S
C1487 N1488 1.374 . S
C1487 C1521 1.395 . S
N1488 C1484 1.376 . S
N1488 C1487 1.374 . S
N1488 Co1489 2.008 . S
Co1489 N1488 2.008 . S
Co1489 N1490 1.995 . S
Co1489 N1495 2.008 . S
Co1489 N1500 1.995 . S
Co1489 N1505 2.282 . S
Co1489 N1511 2.282 . S
N1490 Co1489 1.995 . S
N1490 C1491 1.376 . S
N1490 C1494 1.383 . S
C1491 N1490 1.376 . S
C1491 C1492 1.446 . S
C1491 C1521 1.391 . S
C1492 C1491 1.446 . S
C1492 C1493 1.339 . S
C1492 H1527 0.949 . S
C1493 C1492 1.339 . S
C1493 C1494 1.439 . S
C1493 H1528 0.950 . S
C1494 N1490 1.383 . S
C1494 C1493 1.439 . S
C1494 C1523 1.392 . S
N1495 Co1489 2.008 . S
N1495 C1496 1.376 . S
N1495 C1499 1.374 . S
C1496 N1495 1.376 . S
C1496 C1497 1.443 . S
C1496 C1523 1.389 . S
C1497 C1496 1.443 . S
C1497 C1498 1.340 . S
C1497 H1529 0.951 . S
C1498 C1497 1.340 . S
C1498 C1499 1.439 . S
C1498 H1530 0.950 . S
C1499 N1495 1.374 . S
C1499 C1498 1.439 . S
C1499 C1524 1.395 . S
N1500 Co1489 1.995 . S
N1500 C1501 1.376 . S
N1500 C1504 1.383 . S
C1501 N1500 1.376 . S
C1501 C1502 1.446 . S
C1501 C1524 1.391 . S
C1502 C1501 1.446 . S
C1502 C1503 1.339 . S
C1502 H1531 0.949 1_565 S
C1503 C1502 1.339 . S
C1503 C1504 1.439 . S
C1503 H1532 0.950 1_565 S
C1504 N1500 1.383 . S
C1504 C1503 1.439 . S
C1504 C1522 1.392 . S
N1505 Co1489 2.282 . S
N1505 C1508 1.332 . S
N1505 C1510 1.332 . S
C1506 C1507 1.386 . S
C1506 C1509 1.388 . S
C1507 C1506 1.386 . S
C1507 C1508 1.382 . S
C1507 H1533 0.950 . S
C1508 N1505 1.332 . S
C1508 C1507 1.382 . S
C1508 H1519 0.952 . S
C1509 C1506 1.388 . S
C1509 C1510 1.382 . S
C1509 H1534 0.950 . S
C1510 N1505 1.332 . S
C1510 C1509 1.382 . S
C1510 H1520 0.948 . S
N1511 Co1489 2.282 . S
N1511 C1515 1.332 . S
N1511 C1516 1.332 . S
C1512 C1513 1.388 . S
C1512 C1516 1.382 1_545 S
C1512 H1535 0.950 . S
C1513 C1512 1.388 . S
C1513 C1514 1.386 1_545 S
C1514 C1513 1.386 1_565 S
C1514 C1515 1.382 . S
C1514 H1536 0.950 . S
C1515 N1511 1.332 . S
C1515 C1514 1.382 . S
C1515 H1517 0.952 . S
C1516 N1511 1.332 . S
C1516 C1512 1.382 1_565 S
C1516 H1518 0.950 1_565 S
H1517 C1515 0.952 . S
H1518 C1516 0.950 1_545 S
H1519 C1508 0.952 . S
H1520 C1510 0.948 . S
C1521 C1487 1.395 . S
C1521 C1491 1.391 . S
C1522 C1484 1.389 . S
C1522 C1504 1.392 . S
C1523 C1494 1.392 . S
C1523 C1496 1.389 . S
C1524 C1499 1.395 . S
C1524 C1501 1.391 . S
H1525 C1485 0.951 . S
H1526 C1486 0.950 . S
H1527 C1492 0.949 . S
H1528 C1493 0.950 . S
H1529 C1497 0.951 . S
H1530 C1498 0.950 . S
H1531 C1502 0.949 1_545 S
H1532 C1503 0.950 1_545 S
H1533 C1507 0.950 . S
H1534 C1509 0.950 . S
H1535 C1512 0.950 . S
H1536 C1514 0.950 . S
C1537 C1538 1.443 . S
C1537 N1541 1.376 . S
C1537 C1575 1.389 . S
C1538 C1537 1.443 . S
C1538 C1539 1.340 . S
C1538 H1578 0.951 . S
C1539 C1538 1.340 . S
C1539 C1540 1.439 . S
C1539 H1579 0.950 . S
C1540 C1539 1.439 . S
C1540 N1541 1.374 . S
C1540 C1574 1.395 . S
N1541 C1537 1.376 . S
N1541 C1540 1.374 . S
N1541 Co1542 2.008 . S
Co1542 N1541 2.008 . S
Co1542 N1543 1.995 . S
Co1542 N1548 2.008 . S
Co1542 N1553 1.995 . S
Co1542 N1558 2.282 . S
Co1542 N1564 2.282 . S
N1543 Co1542 1.995 . S
N1543 C1544 1.376 . S
N1543 C1547 1.383 . S
C1544 N1543 1.376 . S
C1544 C1545 1.446 . S
C1544 C1574 1.391 . S
C1545 C1544 1.446 . S
C1545 C1546 1.339 . S
C1545 H1580 0.949 . S
C1546 C1545 1.339 . S
C1546 C1547 1.439 . S
C1546 H1581 0.950 . S
C1547 N1543 1.383 . S
C1547 C1546 1.439 . S
C1547 C1576 1.392 . S
N1548 Co1542 2.008 . S
N1548 C1549 1.376 . S
N1548 C1552 1.374 . S
C1549 N1548 1.376 . S
C1549 C1550 1.443 . S
C1549 C1576 1.389 . S
C1550 C1549 1.443 . S
C1550 C1551 1.340 . S
C1550 H1582 0.951 . S
C1551 C1550 1.340 . S
C1551 C1552 1.439 . S
C1551 H1583 0.950 . S
C1552 N1548 1.374 . S
C1552 C1551 1.439 . S
C1552 C1577 1.395 . S
N1553 Co1542 1.995 . S
N1553 C1554 1.376 . S
N1553 C1557 1.383 . S
C1554 N1553 1.376 . S
C1554 C1555 1.446 . S
C1554 C1577 1.391 . S
C1555 C1554 1.446 . S
C1555 C1556 1.339 . S
C1555 H1584 0.943 1_455 S
C1556 C1555 1.339 . S
C1556 C1557 1.439 . S
C1556 H1585 0.950 . S
C1557 N1553 1.383 . S
C1557 C1556 1.439 . S
C1557 C1575 1.392 . S
N1558 Co1542 2.282 . S
N1558 C1561 1.332 . S
N1558 C1563 1.332 . S
C1559 C1560 1.386 . S
C1559 C1562 1.388 . S
C1560 C1559 1.386 . S
C1560 C1561 1.382 . S
C1560 H1586 0.950 . S
C1561 N1558 1.332 . S
C1561 C1560 1.382 . S
C1561 H1572 0.952 . S
C1562 C1559 1.388 . S
C1562 C1563 1.382 . S
C1562 H1587 0.950 . S
C1563 N1558 1.332 . S
C1563 C1562 1.382 . S
C1563 H1573 0.948 . S
N1564 Co1542 2.282 . S
N1564 C1568 1.332 . S
N1564 C1569 1.332 . S
C1565 C1566 1.386 1_655 S
C1565 C1569 1.382 1_655 S
C1565 H1588 0.950 . S
C1566 C1565 1.386 1_455 S
C1566 C1567 1.380 . S
C1567 C1566 1.380 . S
C1567 C1568 1.382 . S
C1567 H1589 0.950 . S
C1568 N1564 1.332 . S
C1568 C1567 1.382 . S
C1568 H1570 0.952 . S
C1569 N1564 1.332 . S
C1569 C1565 1.382 1_455 S
C1569 H1571 0.948 . S
H1570 C1568 0.952 . S
H1571 C1569 0.948 . S
H1572 C1561 0.952 . S
H1573 C1563 0.948 . S
C1574 C1540 1.395 . S
C1574 C1544 1.391 . S
C1575 C1537 1.389 . S
C1575 C1557 1.392 . S
C1576 C1547 1.392 . S
C1576 C1549 1.389 . S
C1577 C1552 1.395 . S
C1577 C1554 1.391 . S
H1578 C1538 0.951 . S
H1579 C1539 0.950 . S
H1580 C1545 0.949 . S
H1581 C1546 0.950 . S
H1582 C1550 0.951 . S
H1583 C1551 0.950 . S
H1584 C1555 0.943 1_655 S
H1585 C1556 0.950 . S
H1586 C1560 0.950 . S
H1587 C1562 0.950 . S
H1588 C1565 0.950 . S
H1589 C1567 0.950 . S
C1590 C1591 1.443 . S
C1590 N1594 1.376 . S
C1590 C1628 1.389 . S
C1591 C1590 1.443 . S
C1591 C1592 1.340 . S
C1591 H1631 0.951 . S
C1592 C1591 1.340 . S
C1592 C1593 1.439 . S
C1592 H1632 0.950 . S
C1593 C1592 1.439 . S
C1593 N1594 1.374 . S
C1593 C1627 1.395 . S
N1594 C1590 1.376 . S
N1594 C1593 1.374 . S
N1594 Co1595 2.008 . S
Co1595 N1594 2.008 . S
Co1595 N1596 1.995 . S
Co1595 N1601 2.008 . S
Co1595 N1606 1.995 . S
Co1595 N1611 2.282 . S
Co1595 N1617 2.282 . S
N1596 Co1595 1.995 . S
N1596 C1597 1.376 . S
N1596 C1600 1.383 . S
C1597 N1596 1.376 . S
C1597 C1598 1.446 . S
C1597 C1627 1.391 . S
C1598 C1597 1.446 . S
C1598 C1599 1.339 . S
C1598 H1633 0.949 . S
C1599 C1598 1.339 . S
C1599 C1600 1.439 . S
C1599 H1634 0.950 . S
C1600 N1596 1.383 . S
C1600 C1599 1.439 . S
C1600 C1629 1.392 . S
N1601 Co1595 2.008 . S
N1601 C1602 1.376 . S
N1601 C1605 1.374 . S
C1602 N1601 1.376 . S
C1602 C1603 1.443 . S
C1602 C1629 1.389 . S
C1603 C1602 1.443 . S
C1603 C1604 1.340 . S
C1603 H1635 0.951 . S
C1604 C1603 1.340 . S
C1604 C1605 1.439 . S
C1604 H1636 0.950 . S
C1605 N1601 1.374 . S
C1605 C1604 1.439 . S
C1605 C1630 1.395 . S
N1606 Co1595 1.995 . S
N1606 C1607 1.376 . S
N1606 C1610 1.383 . S
C1607 N1606 1.376 . S
C1607 C1608 1.446 . S
C1607 C1630 1.391 . S
C1608 C1607 1.446 . S
C1608 C1609 1.339 . S
C1608 H1637 0.949 . S
C1609 C1608 1.339 . S
C1609 C1610 1.439 . S
C1609 H1638 0.950 . S
C1610 N1606 1.383 . S
C1610 C1609 1.439 . S
C1610 C1628 1.392 . S
N1611 Co1595 2.282 . S
N1611 C1614 1.332 . S
N1611 C1616 1.332 . S
C1612 C1613 1.386 . S
C1612 C1615 1.388 . S
C1613 C1612 1.386 . S
C1613 C1614 1.382 . S
C1613 H1639 0.950 . S
C1614 N1611 1.332 . S
C1614 C1613 1.382 . S
C1614 H1625 0.952 . S
C1615 C1612 1.388 . S
C1615 C1616 1.382 . S
C1615 H1640 0.950 . S
C1616 N1611 1.332 . S
C1616 C1615 1.382 . S
C1616 H1626 0.948 . S
N1617 Co1595 2.282 . S
N1617 C1621 1.332 . S
N1617 C1622 1.332 . S
C1618 C1619 1.388 . S
C1618 C1622 1.382 . S
C1618 H1641 0.950 . S
C1619 C1618 1.388 . S
C1619 C1620 1.386 . S
C1620 C1619 1.386 . S
C1620 C1621 1.382 . S
C1620 H1642 0.950 . S
C1621 N1617 1.332 . S
C1621 C1620 1.382 . S
C1621 H1623 0.952 . S
C1622 N1617 1.332 . S
C1622 C1618 1.382 . S
C1622 H1624 0.948 . S
H1623 C1621 0.952 . S
H1624 C1622 0.948 . S
H1625 C1614 0.952 . S
H1626 C1616 0.948 . S
C1627 C1593 1.395 . S
C1627 C1597 1.391 . S
C1628 C1590 1.389 . S
C1628 C1610 1.392 . S
C1629 C1600 1.392 . S
C1629 C1602 1.389 . S
C1630 C1605 1.395 . S
C1630 C1607 1.391 . S
H1631 C1591 0.951 . S
H1632 C1592 0.950 . S
H1633 C1598 0.949 . S
H1634 C1599 0.950 . S
H1635 C1603 0.951 . S
H1636 C1604 0.950 . S
H1637 C1608 0.949 . S
H1638 C1609 0.950 . S
H1639 C1613 0.950 . S
H1640 C1615 0.950 . S
H1641 C1618 0.950 . S
H1642 C1620 0.950 . S
C1643 C1644 1.469 . S
C1643 N1647 1.376 . S
C1643 C1681 1.389 . S
C1644 C1643 1.469 . S
C1644 C1645 1.340 1_565 S
C1644 H1684 0.932 1_565 S
C1645 C1644 1.340 1_545 S
C1645 C1646 1.439 1_545 S
C1645 H1685 0.950 . S
C1646 C1645 1.439 1_565 S
C1646 N1647 1.374 . S
C1646 C1680 1.395 . S
N1647 C1643 1.376 . S
N1647 C1646 1.374 . S
N1647 Co1648 2.008 . S
Co1648 N1647 2.008 . S
Co1648 N1649 1.995 . S
Co1648 N1654 2.008 . S
Co1648 N1659 1.995 . S
Co1648 N1664 2.282 . S
Co1648 N1670 2.282 . S
N1649 Co1648 1.995 . S
N1649 C1650 1.376 . S
N1649 C1653 1.383 . S
C1650 N1649 1.376 . S
C1650 C1651 1.446 . S
C1650 C1680 1.391 . S
C1651 C1650 1.446 . S
C1651 C1652 1.339 . S
C1651 H1686 0.949 . S
C1652 C1651 1.339 . S
C1652 C1653 1.439 . S
C1652 H1687 0.950 . S
C1653 N1649 1.383 . S
C1653 C1652 1.439 . S
C1653 C1682 1.392 . S
N1654 Co1648 2.008 . S
N1654 C1655 1.376 . S
N1654 C1658 1.374 . S
C1655 N1654 1.376 . S
C1655 C1656 1.443 . S
C1655 C1682 1.389 . S
C1656 C1655 1.443 . S
C1656 C1657 1.340 . S
C1656 H1688 0.951 . S
C1657 C1656 1.340 . S
C1657 C1658 1.439 . S
C1657 H1689 0.950 . S
C1658 N1654 1.374 . S
C1658 C1657 1.439 . S
C1658 C1683 1.395 . S
N1659 Co1648 1.995 . S
N1659 C1660 1.376 . S
N1659 C1663 1.383 . S
C1660 N1659 1.376 . S
C1660 C1661 1.446 . S
C1660 C1683 1.391 . S
C1661 C1660 1.446 . S
C1661 C1662 1.339 . S
C1661 H1690 0.949 . S
C1662 C1661 1.339 . S
C1662 C1663 1.439 . S
C1662 H1691 0.950 . S
C1663 N1659 1.383 . S
C1663 C1662 1.439 . S
C1663 C1681 1.392 . S
N1664 Co1648 2.282 . S
N1664 C1667 1.332 . S
N1664 C1669 1.332 . S
C1665 C1666 1.386 . S
C1665 C1668 1.388 . S
C1666 C1665 1.386 . S
C1666 C1667 1.382 . S
C1666 H1692 0.950 . S
C1667 N1664 1.332 . S
C1667 C1666 1.382 . S
C1667 H1678 0.952 . S
C1668 C1665 1.388 . S
C1668 C1669 1.382 . S
C1668 H1693 0.950 . S
C1669 N1664 1.332 . S
C1669 C1668 1.382 . S
C1669 H1679 0.948 . S
N1670 Co1648 2.282 . S
N1670 C1674 1.332 . S
N1670 C1675 1.332 . S
C1671 C1672 1.388 1_565 S
C1671 C1675 1.382 . S
C1671 H1694 0.950 . S
C1672 C1671 1.388 1_545 S
C1672 C1673 1.386 . S
C1673 C1672 1.386 . S
C1673 C1674 1.382 1_545 S
C1673 H1695 0.950 . S
C1674 N1670 1.332 . S
C1674 C1673 1.382 1_565 S
C1674 H1676 0.952 . S
C1675 N1670 1.332 . S
C1675 C1671 1.382 . S
C1675 H1677 0.948 . S
H1676 C1674 0.952 . S
H1677 C1675 0.948 . S
H1678 C1667 0.952 . S
H1679 C1669 0.948 . S
C1680 C1646 1.395 . S
C1680 C1650 1.391 . S
C1681 C1643 1.389 . S
C1681 C1663 1.392 . S
C1682 C1653 1.392 . S
C1682 C1655 1.389 . S
C1683 C1658 1.395 . S
C1683 C1660 1.391 . S
H1684 C1644 0.932 1_545 S
H1685 C1645 0.950 . S
H1686 C1651 0.949 . S
H1687 C1652 0.950 . S
H1688 C1656 0.951 . S
H1689 C1657 0.950 . S
H1690 C1661 0.949 . S
H1691 C1662 0.950 . S
H1692 C1666 0.950 . S
H1693 C1668 0.950 . S
H1694 C1671 0.950 . S
H1695 C1673 0.950 . S
C1696 C1697 1.443 1_455 S
C1696 N1700 1.376 . S
C1696 C1734 1.389 . S
C1697 C1696 1.443 1_655 S
C1697 C1698 1.340 . S
C1697 H1737 0.951 . S
C1698 C1697 1.340 . S
C1698 C1699 1.439 1_655 S
C1698 H1738 0.950 . S
C1699 C1698 1.439 1_455 S
C1699 N1700 1.374 . S
C1699 C1733 1.395 . S
N1700 C1696 1.376 . S
N1700 C1699 1.374 . S
N1700 Co1701 2.008 . S
Co1701 N1700 2.008 . S
Co1701 N1702 1.995 . S
Co1701 N1707 2.008 . S
Co1701 N1712 1.995 . S
Co1701 N1717 2.282 . S
Co1701 N1723 2.282 . S
N1702 Co1701 1.995 . S
N1702 C1703 1.376 . S
N1702 C1706 1.383 . S
C1703 N1702 1.376 . S
C1703 C1704 1.446 . S
C1703 C1733 1.391 . S
C1704 C1703 1.446 . S
C1704 C1705 1.339 . S
C1704 H1739 0.949 . S
C1705 C1704 1.339 . S
C1705 C1706 1.439 . S
C1705 H1740 0.950 . S
C1706 N1702 1.383 . S
C1706 C1705 1.439 . S
C1706 C1735 1.392 . S
N1707 Co1701 2.008 . S
N1707 C1708 1.376 . S
N1707 C1711 1.374 . S
C1708 N1707 1.376 . S
C1708 C1709 1.443 . S
C1708 C1735 1.389 . S
C1709 C1708 1.443 . S
C1709 C1710 1.340 . S
C1709 H1741 0.951 . S
C1710 C1709 1.340 . S
C1710 C1711 1.439 . S
C1710 H1742 0.950 . S
C1711 N1707 1.374 . S
C1711 C1710 1.439 . S
C1711 C1736 1.395 . S
N1712 Co1701 1.995 . S
N1712 C1713 1.376 . S
N1712 C1716 1.383 . S
C1713 N1712 1.376 . S
C1713 C1714 1.446 . S
C1713 C1736 1.391 . S
C1714 C1713 1.446 . S
C1714 C1715 1.339 . S
C1714 H1743 0.949 . S
C1715 C1714 1.339 . S
C1715 C1716 1.439 . S
C1715 H1744 0.950 . S
C1716 N1712 1.383 . S
C1716 C1715 1.439 . S
C1716 C1734 1.392 . S
N1717 Co1701 2.282 . S
N1717 C1720 1.332 . S
N1717 C1722 1.332 . S
C1718 C1719 1.386 . S
C1718 C1721 1.388 . S
C1719 C1718 1.386 . S
C1719 C1720 1.382 . S
C1719 H1745 0.950 . S
C1720 N1717 1.332 . S
C1720 C1719 1.382 . S
C1720 H1731 0.952 . S
C1721 C1718 1.388 . S
C1721 C1722 1.382 . S
C1721 H1746 0.950 . S
C1722 N1717 1.332 . S
C1722 C1721 1.382 . S
C1722 H1732 0.948 . S
N1723 Co1701 2.282 . S
N1723 C1727 1.332 . S
N1723 C1728 1.332 . S
C1724 C1725 1.388 1_455 S
C1724 C1728 1.382 . S
C1724 H1747 0.950 . S
C1725 C1724 1.388 1_655 S
C1725 C1726 1.386 . S
C1726 C1725 1.386 . S
C1726 C1727 1.382 1_655 S
C1726 H1748 0.950 . S
C1727 N1723 1.332 . S
C1727 C1726 1.382 1_455 S
C1727 H1729 0.952 . S
C1728 N1723 1.332 . S
C1728 C1724 1.382 . S
C1728 H1730 0.948 . S
H1729 C1727 0.952 . S
H1730 C1728 0.948 . S
H1731 C1720 0.952 . S
H1732 C1722 0.948 . S
C1733 C1699 1.395 . S
C1733 C1703 1.391 . S
C1734 C1696 1.389 . S
C1734 C1716 1.392 . S
C1735 C1706 1.392 . S
C1735 C1708 1.389 . S
C1736 C1711 1.395 . S
C1736 C1713 1.391 . S
H1737 C1697 0.951 . S
H1738 C1698 0.950 . S
H1739 C1704 0.949 . S
H1740 C1705 0.950 . S
H1741 C1709 0.951 . S
H1742 C1710 0.950 . S
H1743 C1714 0.949 . S
H1744 C1715 0.950 . S
H1745 C1719 0.950 . S
H1746 C1721 0.950 . S
H1747 C1724 0.950 . S
H1748 C1726 0.950 . S
C1749 C1750 1.443 . S
C1749 N1753 1.376 . S
C1749 C1787 1.389 . S
C1750 C1749 1.443 . S
C1750 C1751 1.340 . S
C1750 H1790 0.951 . S
C1751 C1750 1.340 . S
C1751 C1752 1.439 . S
C1751 H1791 0.950 . S
C1752 C1751 1.439 . S
C1752 N1753 1.374 . S
C1752 C1786 1.395 . S
N1753 C1749 1.376 . S
N1753 C1752 1.374 . S
N1753 Co1754 2.008 . S
Co1754 N1753 2.008 . S
Co1754 N1755 1.995 . S
Co1754 N1760 2.008 . S
Co1754 N1765 1.995 . S
Co1754 N1770 2.282 . S
Co1754 N1776 2.282 . S
N1755 Co1754 1.995 . S
N1755 C1756 1.376 . S
N1755 C1759 1.383 . S
C1756 N1755 1.376 . S
C1756 C1757 1.446 . S
C1756 C1786 1.391 . S
C1757 C1756 1.446 . S
C1757 C1758 1.339 . S
C1757 H1792 0.949 . S
C1758 C1757 1.339 . S
C1758 C1759 1.439 . S
C1758 H1793 0.950 . S
C1759 N1755 1.383 . S
C1759 C1758 1.439 . S
C1759 C1788 1.392 . S
N1760 Co1754 2.008 . S
N1760 C1761 1.376 . S
N1760 C1764 1.374 . S
C1761 N1760 1.376 . S
C1761 C1762 1.443 . S
C1761 C1788 1.389 . S
C1762 C1761 1.443 . S
C1762 C1763 1.340 . S
C1762 H1794 0.951 1_655 S
C1763 C1762 1.340 . S
C1763 C1764 1.439 . S
C1763 H1795 0.950 1_655 S
C1764 N1760 1.374 . S
C1764 C1763 1.439 . S
C1764 C1789 1.395 . S
N1765 Co1754 1.995 . S
N1765 C1766 1.376 . S
N1765 C1769 1.383 . S
C1766 N1765 1.376 . S
C1766 C1767 1.446 . S
C1766 C1789 1.391 . S
C1767 C1766 1.446 . S
C1767 C1768 1.339 . S
C1767 H1796 0.949 . S
C1768 C1767 1.339 . S
C1768 C1769 1.439 . S
C1768 H1797 0.950 . S
C1769 N1765 1.383 . S
C1769 C1768 1.439 . S
C1769 C1787 1.392 . S
N1770 Co1754 2.282 . S
N1770 C1773 1.332 . S
N1770 C1775 1.332 . S
C1771 C1772 1.386 . S
C1771 C1774 1.388 . S
C1772 C1771 1.386 . S
C1772 C1773 1.382 . S
C1772 H1798 0.950 . S
C1773 N1770 1.332 . S
C1773 C1772 1.382 . S
C1773 H1784 0.952 . S
C1774 C1771 1.388 . S
C1774 C1775 1.382 . S
C1774 H1799 0.950 . S
C1775 N1770 1.332 . S
C1775 C1774 1.382 . S
C1775 H1785 0.948 . S
N1776 Co1754 2.282 . S
N1776 C1780 1.332 . S
N1776 C1781 1.332 . S
C1777 C1778 1.388 . S
C1777 C1781 1.382 . S
C1777 H1800 0.950 . S
C1778 C1777 1.388 . S
C1778 C1779 1.386 . S
C1779 C1778 1.386 . S
C1779 C1780 1.382 . S
C1779 H1801 0.950 . S
C1780 N1776 1.332 . S
C1780 C1779 1.382 . S
C1780 H1782 0.952 . S
C1781 N1776 1.332 . S
C1781 C1777 1.382 . S
C1781 H1783 0.948 . S
H1782 C1780 0.952 . S
H1783 C1781 0.948 . S
H1784 C1773 0.952 . S
H1785 C1775 0.948 . S
C1786 C1752 1.395 . S
C1786 C1756 1.391 . S
C1787 C1749 1.389 . S
C1787 C1769 1.392 . S
C1788 C1759 1.392 . S
C1788 C1761 1.389 . S
C1789 C1764 1.395 . S
C1789 C1766 1.391 . S
H1790 C1750 0.951 . S
H1791 C1751 0.950 . S
H1792 C1757 0.949 . S
H1793 C1758 0.950 . S
H1794 C1762 0.951 1_455 S
H1795 C1763 0.950 1_455 S
H1796 C1767 0.949 . S
H1797 C1768 0.950 . S
H1798 C1772 0.950 . S
H1799 C1774 0.950 . S
H1800 C1777 0.950 . S
H1801 C1779 0.950 . S
C1802 C1803 1.443 . S
C1802 N1806 1.376 . S
C1802 C1840 1.389 . S
C1803 C1802 1.443 . S
C1803 C1804 1.340 . S
C1803 H1843 0.951 . S
C1804 C1803 1.340 . S
C1804 C1805 1.439 . S
C1804 H1844 0.950 . S
C1805 C1804 1.439 . S
C1805 N1806 1.374 . S
C1805 C1839 1.395 . S
N1806 C1802 1.376 . S
N1806 C1805 1.374 . S
N1806 Co1807 2.008 . S
Co1807 N1806 2.008 . S
Co1807 N1808 1.995 . S
Co1807 N1813 2.008 . S
Co1807 N1818 1.995 . S
Co1807 N1823 2.282 . S
Co1807 N1829 2.282 . S
N1808 Co1807 1.995 . S
N1808 C1809 1.376 . S
N1808 C1812 1.383 . S
C1809 N1808 1.376 . S
C1809 C1810 1.446 . S
C1809 C1839 1.391 . S
C1810 C1809 1.446 . S
C1810 C1811 1.339 . S
C1810 H1845 0.949 . S
C1811 C1810 1.339 . S
C1811 C1812 1.439 . S
C1811 H1846 0.950 . S
C1812 N1808 1.383 . S
C1812 C1811 1.439 . S
C1812 C1841 1.392 . S
N1813 Co1807 2.008 . S
N1813 C1814 1.376 . S
N1813 C1817 1.374 . S
C1814 N1813 1.376 . S
C1814 C1815 1.443 . S
C1814 C1841 1.389 . S
C1815 C1814 1.443 . S
C1815 C1816 1.340 . S
C1815 H1847 0.951 . S
C1816 C1815 1.340 . S
C1816 C1817 1.439 . S
C1816 H1848 0.950 . S
C1817 N1813 1.374 . S
C1817 C1816 1.439 . S
C1817 C1842 1.395 . S
N1818 Co1807 1.995 . S
N1818 C1819 1.376 . S
N1818 C1822 1.383 . S
C1819 N1818 1.376 . S
C1819 C1820 1.446 . S
C1819 C1842 1.391 . S
C1820 C1819 1.446 . S
C1820 C1821 1.339 . S
C1820 H1849 0.949 . S
C1821 C1820 1.339 . S
C1821 C1822 1.439 . S
C1821 H1850 0.950 . S
C1822 N1818 1.383 . S
C1822 C1821 1.439 . S
C1822 C1840 1.392 . S
N1823 Co1807 2.282 . S
N1823 C1826 1.332 . S
N1823 C1828 1.332 . S
C1824 C1825 1.386 . S
C1824 C1827 1.388 . S
C1825 C1824 1.386 . S
C1825 C1826 1.382 . S
C1825 H1851 0.950 . S
C1826 N1823 1.332 . S
C1826 C1825 1.382 . S
C1826 H1837 0.952 . S
C1827 C1824 1.388 . S
C1827 C1828 1.382 . S
C1827 H1852 0.950 . S
C1828 N1823 1.332 . S
C1828 C1827 1.382 . S
C1828 H1838 0.948 . S
N1829 Co1807 2.282 . S
N1829 C1833 1.332 . S
N1829 C1834 1.332 . S
C1830 C1831 1.388 . S
C1830 C1834 1.382 . S
C1830 H1853 0.950 . S
C1831 C1830 1.388 . S
C1831 C1832 1.386 . S
C1832 C1831 1.386 . S
C1832 C1833 1.382 . S
C1832 H1854 0.950 . S
C1833 N1829 1.332 . S
C1833 C1832 1.382 . S
C1833 H1835 0.952 . S
C1834 N1829 1.332 . S
C1834 C1830 1.382 . S
C1834 H1836 0.948 . S
H1835 C1833 0.952 . S
H1836 C1834 0.948 . S
H1837 C1826 0.952 . S
H1838 C1828 0.948 . S
C1839 C1805 1.395 . S
C1839 C1809 1.391 . S
C1840 C1802 1.389 . S
C1840 C1822 1.392 . S
C1841 C1812 1.392 . S
C1841 C1814 1.389 . S
C1842 C1817 1.395 . S
C1842 C1819 1.391 . S
H1843 C1803 0.951 . S
H1844 C1804 0.950 . S
H1845 C1810 0.949 . S
H1846 C1811 0.950 . S
H1847 C1815 0.951 . S
H1848 C1816 0.950 . S
H1849 C1820 0.949 . S
H1850 C1821 0.950 . S
H1851 C1825 0.950 . S
H1852 C1827 0.950 . S
H1853 C1830 0.950 . S
H1854 C1832 0.950 . S
C1855 C1856 1.443 . S
C1855 N1859 1.376 . S
C1855 C1893 1.389 . S
C1856 C1855 1.443 . S
C1856 C1857 1.340 . S
C1856 H1896 0.951 . S
C1857 C1856 1.340 . S
C1857 C1858 1.439 . S
C1857 H1897 0.950 . S
C1858 C1857 1.439 . S
C1858 N1859 1.374 . S
C1858 C1892 1.395 . S
N1859 C1855 1.376 . S
N1859 C1858 1.374 . S
N1859 Co1860 2.008 . S
Co1860 N1859 2.008 . S
Co1860 N1861 1.995 . S
Co1860 N1866 2.008 . S
Co1860 N1871 1.995 . S
Co1860 N1876 2.282 . S
Co1860 N1882 2.282 . S
N1861 Co1860 1.995 . S
N1861 C1862 1.376 . S
N1861 C1865 1.383 . S
C1862 N1861 1.376 . S
C1862 C1863 1.446 . S
C1862 C1892 1.391 . S
C1863 C1862 1.446 . S
C1863 C1864 1.339 . S
C1863 H1898 0.949 1_545 S
C1864 C1863 1.339 . S
C1864 C1865 1.439 . S
C1864 H1899 0.950 . S
C1865 N1861 1.383 . S
C1865 C1864 1.439 . S
C1865 C1894 1.392 . S
N1866 Co1860 2.008 . S
N1866 C1867 1.376 . S
N1866 C1870 1.374 . S
C1867 N1866 1.376 . S
C1867 C1868 1.443 . S
C1867 C1894 1.389 . S
C1868 C1867 1.443 . S
C1868 C1869 1.340 . S
C1868 H1900 0.951 . S
C1869 C1868 1.340 . S
C1869 C1870 1.439 . S
C1869 H1901 0.950 . S
C1870 N1866 1.374 . S
C1870 C1869 1.439 . S
C1870 C1895 1.395 . S
N1871 Co1860 1.995 . S
N1871 C1872 1.376 . S
N1871 C1875 1.383 . S
C1872 N1871 1.376 . S
C1872 C1873 1.446 . S
C1872 C1895 1.391 . S
C1873 C1872 1.446 . S
C1873 C1874 1.339 . S
C1873 H1902 0.949 . S
C1874 C1873 1.339 . S
C1874 C1875 1.439 . S
C1874 H1903 0.950 . S
C1875 N1871 1.383 . S
C1875 C1874 1.439 . S
C1875 C1893 1.392 . S
N1876 Co1860 2.282 . S
N1876 C1879 1.332 . S
N1876 C1881 1.332 . S
C1877 C1878 1.386 . S
C1877 C1880 1.388 . S
C1878 C1877 1.386 . S
C1878 C1879 1.382 . S
C1878 H1904 0.950 . S
C1879 N1876 1.332 . S
C1879 C1878 1.382 . S
C1879 H1890 0.952 . S
C1880 C1877 1.388 . S
C1880 C1881 1.382 . S
C1880 H1905 0.950 . S
C1881 N1876 1.332 . S
C1881 C1880 1.382 . S
C1881 H1891 0.948 . S
N1882 Co1860 2.282 . S
N1882 C1886 1.332 . S
N1882 C1887 1.332 . S
C1883 C1884 1.388 . S
C1883 C1887 1.382 . S
C1883 H1906 0.950 . S
C1884 C1883 1.388 . S
C1884 C1885 1.386 . S
C1885 C1884 1.386 . S
C1885 C1886 1.382 . S
C1885 H1907 0.950 . S
C1886 N1882 1.332 . S
C1886 C1885 1.382 . S
C1886 H1888 0.952 . S
C1887 N1882 1.332 . S
C1887 C1883 1.382 . S
C1887 H1889 0.948 . S
H1888 C1886 0.952 . S
H1889 C1887 0.948 . S
H1890 C1879 0.952 . S
H1891 C1881 0.948 . S
C1892 C1858 1.395 . S
C1892 C1862 1.391 . S
C1893 C1855 1.389 . S
C1893 C1875 1.392 . S
C1894 C1865 1.392 . S
C1894 C1867 1.389 . S
C1895 C1870 1.395 . S
C1895 C1872 1.391 . S
H1896 C1856 0.951 . S
H1897 C1857 0.950 . S
H1898 C1863 0.949 1_565 S
H1899 C1864 0.950 . S
H1900 C1868 0.951 . S
H1901 C1869 0.950 . S
H1902 C1873 0.949 . S
H1903 C1874 0.950 . S
H1904 C1878 0.950 . S
H1905 C1880 0.950 . S
H1906 C1883 0.950 . S
H1907 C1885 0.950 . S
C1908 C1909 1.392 . S
C1908 H1912 0.952 . S
C1908 C1917 1.383 1_655 S
C1909 C1908 1.392 . S
C1909 C1911 1.387 1_556 S
H1910 C1917 0.950 . S
C1911 C1909 1.387 1_554 S
C1911 C1913 1.390 1_655 S
C1911 H1915 0.950 . S
H1912 C1908 0.952 . S
C1913 C1911 1.390 1_455 S
C1913 C1914 1.387 . S
C1913 H1916 0.950 . S
C1914 C1913 1.387 . S
C1914 C1917 1.387 1_554 S
H1915 C1911 0.950 . S
H1916 C1913 0.950 . S
C1917 C1908 1.383 1_455 S
C1917 H1910 0.950 . S
C1917 C1914 1.387 1_556 S
C1918 C1919 1.387 1_554 S
C1918 H1922 0.950 . S
C1918 C1927 1.390 . S
C1919 C1918 1.387 1_556 S
C1919 C1921 1.387 . S
H1920 C1927 0.950 . S
C1921 C1919 1.387 . S
C1921 C1923 1.390 . S
C1921 H1925 0.950 . S
H1922 C1918 0.950 . S
C1923 C1921 1.390 . S
C1923 C1924 1.387 1_556 S
C1923 H1926 0.950 . S
C1924 C1923 1.387 1_554 S
C1924 C1927 1.387 . S
H1925 C1921 0.950 . S
H1926 C1923 0.950 . S
C1927 C1918 1.390 . S
C1927 H1920 0.950 . S
C1927 C1924 1.387 . S
C1928 C1929 1.387 . S
C1928 H1932 0.950 . S
C1928 C1937 1.390 1_546 S
C1929 C1928 1.387 . S
C1929 C1931 1.387 . S
H1930 C1937 0.950 . S
C1931 C1929 1.387 . S
C1931 C1933 1.390 1_546 S
C1931 H1935 0.950 . S
H1932 C1928 0.950 . S
C1933 C1931 1.390 1_564 S
C1933 C1934 1.387 . S
C1933 H1936 0.950 . S
C1934 C1933 1.387 . S
C1934 C1937 1.387 . S
H1935 C1931 0.950 . S
H1936 C1933 0.950 . S
C1937 C1928 1.390 1_564 S
C1937 H1930 0.950 . S
C1937 C1934 1.387 . S
C1938 C1939 1.387 1_655 S
C1938 H1942 0.950 . S
C1938 C1947 1.390 . S
C1939 C1938 1.387 1_455 S
C1939 C1941 1.387 1_454 S
H1940 C1947 0.950 . S
C1941 C1939 1.387 1_656 S
C1941 C1943 1.390 . S
C1941 H1945 0.950 1_655 S
H1942 C1938 0.950 . S
C1943 C1941 1.390 . S
C1943 C1944 1.387 . S
C1943 H1946 0.950 . S
C1944 C1943 1.387 . S
C1944 C1947 1.387 1_556 S
H1945 C1941 0.950 1_455 S
H1946 C1943 0.950 . S
C1947 C1938 1.390 . S
C1947 H1940 0.950 . S
C1947 C1944 1.387 1_554 S
C1948 C1949 1.387 . S
C1948 H1952 0.950 . S
C1948 C1957 1.390 . S
C1949 C1948 1.387 . S
C1949 C1951 1.387 1_556 S
H1950 C1957 0.950 . S
C1951 C1949 1.387 1_554 S
C1951 C1953 1.390 . S
C1951 H1955 0.950 . S
H1952 C1948 0.950 . S
C1953 C1951 1.390 . S
C1953 C1954 1.387 . S
C1953 H1956 0.950 . S
C1954 C1953 1.387 . S
C1954 C1957 1.387 1_554 S
H1955 C1951 0.950 . S
H1956 C1953 0.950 . S
C1957 C1948 1.390 . S
C1957 H1950 0.950 . S
C1957 C1954 1.387 1_556 S
C1958 C1959 1.386 1_556 S
C1958 H1962 0.950 . S
C1958 C1967 1.391 1_565 S
C1959 C1958 1.386 1_554 S
C1959 C1961 1.387 . S
H1960 C1967 0.950 . S
C1961 C1959 1.387 . S
C1961 C1963 1.392 1_565 S
C1961 H1965 0.950 . S
H1962 C1958 0.950 . S
C1963 C1961 1.392 1_545 S
C1963 C1964 1.385 1_554 S
C1963 H1966 0.950 . S
C1964 C1963 1.385 1_556 S
C1964 C1967 1.387 . S
H1965 C1961 0.950 . S
H1966 C1963 0.950 . S
C1967 C1958 1.391 1_545 S
C1967 H1960 0.950 . S
C1967 C1964 1.387 . S
C1968 C1969 1.387 . S
C1968 H1972 0.950 . S
C1968 C1977 1.390 . S
C1969 C1968 1.387 . S
C1969 C1971 1.387 . S
H1970 C1977 0.950 . S
C1971 C1969 1.387 . S
C1971 C1973 1.390 . S
C1971 H1975 0.950 . S
H1972 C1968 0.950 . S
C1973 C1971 1.390 . S
C1973 C1974 1.387 . S
C1973 H1976 0.950 . S
C1974 C1973 1.387 . S
C1974 C1977 1.387 . S
H1975 C1971 0.950 . S
H1976 C1973 0.950 . S
C1977 C1968 1.390 . S
C1977 H1970 0.950 . S
C1977 C1974 1.387 . S
C1978 C1979 1.387 . S
C1978 H1982 0.950 . S
C1978 C1987 1.390 . S
C1979 C1978 1.387 . S
C1979 C1981 1.387 . S
H1980 C1987 0.950 . S
C1981 C1979 1.387 . S
C1981 C1983 1.390 . S
C1981 H1985 0.950 . S
H1982 C1978 0.950 . S
C1983 C1981 1.390 . S
C1983 C1984 1.387 . S
C1983 H1986 0.950 . S
C1984 C1983 1.387 . S
C1984 C1987 1.387 . S
H1985 C1981 0.950 . S
H1986 C1983 0.950 . S
C1987 C1978 1.390 . S
C1987 H1980 0.950 . S
C1987 C1984 1.387 . S
C1988 C1989 1.387 . S
C1988 H1992 0.950 . S
C1988 C1997 1.390 . S
C1989 C1988 1.387 . S
C1989 C1991 1.387 . S
H1990 C1997 0.950 . S
C1991 C1989 1.387 . S
C1991 C1993 1.390 . S
C1991 H1995 0.950 1_455 S
H1992 C1988 0.950 . S
C1993 C1991 1.390 . S
C1993 C1994 1.387 . S
C1993 H1996 0.950 . S
C1994 C1993 1.387 . S
C1994 C1997 1.387 . S
H1995 C1991 0.950 1_655 S
H1996 C1993 0.950 . S
C1997 C1988 1.390 . S
C1997 H1990 0.950 . S
C1997 C1994 1.387 . S
C1998 C1999 1.387 . S
C1998 H2002 0.950 . S
C1998 C2007 1.390 . S
C1999 C1998 1.387 . S
C1999 C2001 1.387 . S
H2000 C2007 0.950 . S
C2001 C1999 1.387 . S
C2001 C2003 1.390 . S
C2001 H2005 0.950 . S
H2002 C1998 0.950 . S
C2003 C2001 1.390 . S
C2003 C2004 1.387 . S
C2003 H2006 0.950 . S
C2004 C2003 1.387 . S
C2004 C2007 1.387 . S
H2005 C2001 0.950 . S
H2006 C2003 0.950 . S
C2007 C1998 1.390 . S
C2007 H2000 0.950 . S
C2007 C2004 1.387 . S
C2008 C2009 1.387 . S
C2008 H2012 0.950 . S
C2008 C2017 1.390 . S
C2009 C2008 1.387 . S
C2009 C2011 1.387 . S
H2010 C2017 0.950 . S
C2011 C2009 1.387 . S
C2011 C2013 1.390 . S
C2011 H2015 0.950 . S
H2012 C2008 0.950 . S
C2013 C2011 1.390 . S
C2013 C2014 1.387 . S
C2013 H2016 0.950 . S
C2014 C2013 1.387 . S
C2014 C2017 1.387 . S
H2015 C2011 0.950 . S
H2016 C2013 0.950 . S
C2017 C2008 1.390 . S
C2017 H2010 0.950 . S
C2017 C2014 1.387 . S
C2018 C2019 1.387 . S
C2018 H2022 0.950 . S
C2018 C2027 1.390 . S
C2019 C2018 1.387 . S
C2019 C2021 1.387 . S
H2020 C2027 0.950 . S
C2021 C2019 1.387 . S
C2021 C2023 1.390 . S
C2021 H2025 0.950 . S
H2022 C2018 0.950 . S
C2023 C2021 1.390 . S
C2023 C2024 1.387 . S
C2023 H2026 0.950 . S
C2024 C2023 1.387 . S
C2024 C2027 1.387 . S
H2025 C2021 0.950 . S
H2026 C2023 0.950 . S
C2027 C2018 1.390 . S
C2027 H2020 0.950 . S
C2027 C2024 1.387 . S
C2028 C2029 1.387 . S
C2028 H2032 0.950 . S
C2028 C2037 1.390 . S
C2029 C2028 1.387 . S
C2029 C2031 1.387 . S
H2030 C2037 0.950 . S
C2031 C2029 1.387 . S
C2031 C2033 1.390 . S
C2031 H2035 0.950 . S
H2032 C2028 0.950 . S
C2033 C2031 1.390 . S
C2033 C2034 1.387 . S
C2033 H2036 0.950 . S
C2034 C2033 1.387 . S
C2034 C2037 1.387 . S
H2035 C2031 0.950 . S
H2036 C2033 0.950 . S
C2037 C2028 1.390 . S
C2037 H2030 0.950 . S
C2037 C2034 1.387 . S
C2038 C2039 1.387 . S
C2038 H2042 0.950 . S
C2038 C2047 1.390 . S
C2039 C2038 1.387 . S
C2039 C2041 1.387 . S
H2040 C2047 0.950 . S
C2041 C2039 1.387 . S
C2041 C2043 1.390 . S
C2041 H2045 0.950 . S
H2042 C2038 0.950 . S
C2043 C2041 1.390 . S
C2043 C2044 1.387 . S
C2043 H2046 0.950 . S
C2044 C2043 1.387 . S
C2044 C2047 1.387 . S
H2045 C2041 0.950 . S
H2046 C2043 0.950 . S
C2047 C2038 1.390 . S
C2047 H2040 0.950 . S
C2047 C2044 1.387 . S
C2048 C2049 1.387 . S
C2048 H2052 0.950 . S
C2048 C2057 1.390 . S
C2049 C2048 1.387 . S
C2049 C2051 1.387 . S
H2050 C2057 0.950 . S
C2051 C2049 1.387 . S
C2051 C2053 1.390 . S
C2051 H2055 0.950 . S
H2052 C2048 0.950 . S
C2053 C2051 1.390 . S
C2053 C2054 1.387 . S
C2053 H2056 0.950 . S
C2054 C2053 1.387 . S
C2054 C2057 1.387 . S
H2055 C2051 0.950 . S
H2056 C2053 0.950 . S
C2057 C2048 1.390 . S
C2057 H2050 0.950 . S
C2057 C2054 1.387 . S
C2058 C2059 1.387 . S
C2058 H2062 0.950 . S
C2058 C2067 1.390 . S
C2059 C2058 1.387 . S
C2059 C2061 1.387 . S
H2060 C2067 0.950 . S
C2061 C2059 1.387 . S
C2061 C2063 1.390 . S
C2061 H2065 0.950 . S
H2062 C2058 0.950 . S
C2063 C2061 1.390 . S
C2063 C2064 1.387 . S
C2063 H2066 0.950 . S
C2064 C2063 1.387 . S
C2064 C2067 1.387 . S
H2065 C2061 0.950 . S
H2066 C2063 0.950 . S
C2067 C2058 1.390 . S
C2067 H2060 0.950 . S
C2067 C2064 1.387 . S
C2068 C2069 1.387 . S
C2068 H2072 0.950 . S
C2068 C2077 1.390 . S
C2069 C2068 1.387 . S
C2069 C2071 1.387 . S
H2070 C2077 0.950 . S
C2071 C2069 1.387 . S
C2071 C2073 1.390 . S
C2071 H2075 0.972 . S
H2072 C2068 0.950 . S
C2073 C2071 1.390 . S
C2073 C2074 1.387 . S
C2073 H2076 0.950 . S
C2074 C2073 1.387 . S
C2074 C2077 1.387 . S
H2075 C2071 0.972 . S
H2076 C2073 0.950 . S
C2077 C2068 1.390 . S
C2077 H2070 0.950 . S
C2077 C2074 1.387 . S
C2078 C2079 1.387 . S
C2078 H2082 0.950 . S
C2078 C2087 1.390 . S
C2079 C2078 1.387 . S
C2079 C2081 1.387 . S
H2080 C2087 0.950 . S
C2081 C2079 1.387 . S
C2081 C2083 1.390 . S
C2081 H2085 0.950 . S
H2082 C2078 0.950 . S
C2083 C2081 1.390 . S
C2083 C2084 1.387 . S
C2083 H2086 0.950 . S
C2084 C2083 1.387 . S
C2084 C2087 1.387 . S
H2085 C2081 0.950 . S
H2086 C2083 0.950 . S
C2087 C2078 1.390 . S
C2087 H2080 0.950 . S
C2087 C2084 1.387 . S
C2088 C2089 1.382 1_554 S
C2088 H2092 0.956 . S
C2088 C2097 1.390 1_554 S
C2089 C2088 1.382 1_556 S
C2089 C2091 1.387 . S
H2090 C2097 0.949 1_554 S
C2091 C2089 1.387 . S
C2091 C2093 1.390 . S
C2091 H2095 0.950 . S
H2092 C2088 0.956 . S
C2093 C2091 1.390 . S
C2093 C2094 1.387 . S
C2093 H2096 0.950 . S
C2094 C2093 1.387 . S
C2094 C2097 1.388 . S
H2095 C2091 0.950 . S
H2096 C2093 0.950 . S
C2097 C2088 1.390 1_556 S
C2097 H2090 0.949 1_556 S
C2097 C2094 1.388 . S
C2098 C2099 1.387 . S
C2098 H2102 0.950 . S
C2098 C2107 1.390 . S
C2099 C2098 1.387 . S
C2099 C2101 1.387 1_556 S
H2100 C2107 0.950 . S
C2101 C2099 1.387 1_554 S
C2101 C2103 1.390 . S
C2101 H2105 0.950 . S
H2102 C2098 0.950 . S
C2103 C2101 1.390 . S
C2103 C2104 1.387 1_554 S
C2103 H2106 0.950 . S
C2104 C2103 1.387 1_556 S
C2104 C2107 1.387 . S
H2105 C2101 0.950 . S
H2106 C2103 0.950 . S
C2107 C2098 1.390 . S
C2107 H2100 0.950 . S
C2107 C2104 1.387 . S
C2108 C2109 1.387 1_554 S
C2108 H2112 0.950 . S
C2108 C2117 1.390 . S
C2109 C2108 1.387 1_556 S
C2109 C2111 1.387 . S
H2110 C2117 0.950 . S
C2111 C2109 1.387 . S
C2111 C2113 1.390 . S
C2111 H2115 0.950 . S
H2112 C2108 0.950 . S
C2113 C2111 1.390 . S
C2113 C2114 1.387 . S
C2113 H2116 0.950 . S
C2114 C2113 1.387 . S
C2114 C2117 1.387 1_556 S
H2115 C2111 0.950 . S
H2116 C2113 0.950 . S
C2117 C2108 1.390 . S
C2117 H2110 0.950 . S
C2117 C2114 1.387 1_554 S
C2118 C2119 1.387 . S
C2118 H2122 0.950 . S
C2118 C2127 1.390 . S
C2119 C2118 1.387 . S
C2119 C2121 1.387 1_554 S
H2120 C2127 0.950 . S
C2121 C2119 1.387 1_556 S
C2121 C2123 1.390 . S
C2121 H2125 0.950 . S
H2122 C2118 0.950 . S
C2123 C2121 1.390 . S
C2123 C2124 1.387 1_556 S
C2123 H2126 0.950 . S
C2124 C2123 1.387 1_554 S
C2124 C2127 1.387 . S
H2125 C2121 0.950 . S
H2126 C2123 0.950 . S
C2127 C2118 1.390 . S
C2127 H2120 0.950 . S
C2127 C2124 1.387 . S
C2128 C2129 1.387 . S
C2128 H2132 0.950 . S
C2128 C2137 1.390 . S
C2129 C2128 1.387 . S
C2129 C2131 1.387 1_554 S
H2130 C2137 0.950 . S
C2131 C2129 1.387 1_556 S
C2131 C2133 1.390 . S
C2131 H2135 0.950 . S
H2132 C2128 0.950 . S
C2133 C2131 1.390 . S
C2133 C2134 1.387 1_556 S
C2133 H2136 0.950 . S
C2134 C2133 1.387 1_554 S
C2134 C2137 1.387 . S
H2135 C2131 0.950 . S
H2136 C2133 0.950 . S
C2137 C2128 1.390 . S
C2137 H2130 0.950 . S
C2137 C2134 1.387 . S
C2138 C2139 1.387 1_556 S
C2138 H2142 0.950 . S
C2138 C2147 1.390 . S
C2139 C2138 1.387 1_554 S
C2139 C2141 1.387 . S
H2140 C2147 0.950 . S
C2141 C2139 1.387 . S
C2141 C2143 1.390 . S
C2141 H2145 0.950 . S
H2142 C2138 0.950 . S
C2143 C2141 1.390 . S
C2143 C2144 1.387 . S
C2143 H2146 0.950 . S
C2144 C2143 1.387 . S
C2144 C2147 1.387 1_554 S
H2145 C2141 0.950 . S
H2146 C2143 0.950 . S
C2147 C2138 1.390 . S
C2147 H2140 0.950 . S
C2147 C2144 1.387 1_556 S
C2148 C2149 1.387 . S
C2148 H2152 0.950 . S
C2148 C2157 1.390 . S
C2149 C2148 1.387 . S
C2149 C2151 1.387 . S
H2150 C2157 0.950 . S
C2151 C2149 1.387 . S
C2151 C2153 1.390 . S
C2151 H2155 0.950 . S
H2152 C2148 0.950 . S
C2153 C2151 1.390 . S
C2153 C2154 1.387 . S
C2153 H2156 0.950 . S
C2154 C2153 1.387 . S
C2154 C2157 1.387 . S
H2155 C2151 0.950 . S
H2156 C2153 0.950 . S
C2157 C2148 1.390 . S
C2157 H2150 0.950 . S
C2157 C2154 1.387 . S
C2158 C2159 1.387 . S
C2158 H2162 0.950 . S
C2158 C2167 1.390 . S
C2159 C2158 1.387 . S
C2159 C2161 1.387 . S
H2160 C2167 0.950 . S
C2161 C2159 1.387 . S
C2161 C2163 1.390 . S
C2161 H2165 0.950 . S
H2162 C2158 0.950 . S
C2163 C2161 1.390 . S
C2163 C2164 1.387 . S
C2163 H2166 0.950 . S
C2164 C2163 1.387 . S
C2164 C2167 1.387 . S
H2165 C2161 0.950 . S
H2166 C2163 0.950 . S
C2167 C2158 1.390 . S
C2167 H2160 0.950 . S
C2167 C2164 1.387 . S
C2168 C2169 1.387 . S
C2168 H2172 0.950 . S
C2168 C2177 1.390 . S
C2169 C2168 1.387 . S
C2169 C2171 1.387 . S
H2170 C2177 0.950 . S
C2171 C2169 1.387 . S
C2171 C2173 1.390 . S
C2171 H2175 0.950 . S
H2172 C2168 0.950 . S
C2173 C2171 1.390 . S
C2173 C2174 1.387 . S
C2173 H2176 0.950 . S
C2174 C2173 1.387 . S
C2174 C2177 1.387 . S
H2175 C2171 0.950 . S
H2176 C2173 0.950 . S
C2177 C2168 1.390 . S
C2177 H2170 0.950 . S
C2177 C2174 1.387 . S
C2178 C2179 1.387 . S
C2178 H2182 0.950 . S
C2178 C2187 1.390 . S
C2179 C2178 1.387 . S
C2179 C2181 1.387 . S
H2180 C2187 0.950 . S
C2181 C2179 1.387 . S
C2181 C2183 1.390 . S
C2181 H2185 0.950 . S
H2182 C2178 0.950 . S
C2183 C2181 1.390 . S
C2183 C2184 1.387 . S
C2183 H2186 0.950 . S
C2184 C2183 1.387 . S
C2184 C2187 1.387 . S
H2185 C2181 0.950 . S
H2186 C2183 0.950 . S
C2187 C2178 1.390 . S
C2187 H2180 0.950 . S
C2187 C2184 1.387 . S
C2188 C2189 1.387 . S
C2188 H2192 0.950 . S
C2188 C2197 1.390 . S
C2189 C2188 1.387 . S
C2189 C2191 1.387 . S
H2190 C2197 0.950 . S
C2191 C2189 1.387 . S
C2191 C2193 1.390 . S
C2191 H2195 0.950 . S
H2192 C2188 0.950 . S
C2193 C2191 1.390 . S
C2193 C2194 1.387 . S
C2193 H2196 0.950 . S
C2194 C2193 1.387 . S
C2194 C2197 1.387 . S
H2195 C2191 0.950 . S
H2196 C2193 0.950 . S
C2197 C2188 1.390 . S
C2197 H2190 0.950 . S
C2197 C2194 1.387 . S
C2198 C2199 1.387 . S
C2198 H2202 0.950 . S
C2198 C2207 1.390 . S
C2199 C2198 1.387 . S
C2199 C2201 1.387 . S
H2200 C2207 0.950 . S
C2201 C2199 1.387 . S
C2201 C2203 1.390 . S
C2201 H2205 0.950 . S
H2202 C2198 0.950 . S
C2203 C2201 1.390 . S
C2203 C2204 1.387 . S
C2203 H2206 0.950 . S
C2204 C2203 1.387 . S
C2204 C2207 1.387 . S
H2205 C2201 0.950 . S
H2206 C2203 0.950 . S
C2207 C2198 1.390 . S
C2207 H2200 0.950 . S
C2207 C2204 1.387 . S
C2208 C2209 1.387 . S
C2208 H2212 0.950 . S
C2208 C2217 1.390 . S
C2209 C2208 1.387 . S
C2209 C2211 1.387 . S
H2210 C2217 0.950 . S
C2211 C2209 1.387 . S
C2211 C2213 1.390 . S
C2211 H2215 0.950 . S
H2212 C2208 0.950 . S
C2213 C2211 1.390 . S
C2213 C2214 1.387 . S
C2213 H2216 0.950 . S
C2214 C2213 1.387 . S
C2214 C2217 1.387 . S
H2215 C2211 0.950 . S
H2216 C2213 0.950 . S
C2217 C2208 1.390 . S
C2217 H2210 0.950 . S
C2217 C2214 1.387 . S
C2218 C2219 1.387 . S
C2218 H2222 0.950 . S
C2218 C2227 1.390 . S
C2219 C2218 1.387 . S
C2219 C2221 1.387 . S
H2220 C2227 0.950 . S
C2221 C2219 1.387 . S
C2221 C2223 1.390 . S
C2221 H2225 0.950 . S
H2222 C2218 0.950 . S
C2223 C2221 1.390 . S
C2223 C2224 1.387 . S
C2223 H2226 0.950 . S
C2224 C2223 1.387 . S
C2224 C2227 1.387 . S
H2225 C2221 0.950 . S
H2226 C2223 0.950 . S
C2227 C2218 1.390 . S
C2227 H2220 0.950 . S
C2227 C2224 1.387 . S
C2228 C2229 1.387 . S
C2228 H2232 0.950 . S
C2228 C2237 1.390 . S
C2229 C2228 1.387 . S
C2229 C2231 1.387 . S
H2230 C2237 0.950 . S
C2231 C2229 1.387 . S
C2231 C2233 1.390 . S
C2231 H2235 0.950 . S
H2232 C2228 0.950 . S
C2233 C2231 1.390 . S
C2233 C2234 1.387 . S
C2233 H2236 0.950 . S
C2234 C2233 1.387 . S
C2234 C2237 1.387 . S
H2235 C2231 0.950 . S
H2236 C2233 0.950 . S
C2237 C2228 1.390 . S
C2237 H2230 0.950 . S
C2237 C2234 1.387 . S
C2238 C2239 1.387 . S
C2238 H2242 0.950 . S
C2238 C2247 1.390 . S
C2239 C2238 1.387 . S
C2239 C2241 1.387 . S
H2240 C2247 0.950 . S
C2241 C2239 1.387 . S
C2241 C2243 1.390 . S
C2241 H2245 0.950 . S
H2242 C2238 0.950 . S
C2243 C2241 1.390 . S
C2243 C2244 1.387 . S
C2243 H2246 0.950 . S
C2244 C2243 1.387 . S
C2244 C2247 1.387 . S
H2245 C2241 0.950 . S
H2246 C2243 0.950 . S
C2247 C2238 1.390 . S
C2247 H2240 0.950 . S
C2247 C2244 1.387 . S
C2248 C2249 1.387 . S
C2248 H2252 0.950 . S
C2248 C2257 1.390 . S
C2249 C2248 1.387 . S
C2249 C2251 1.387 . S
H2250 C2257 0.950 . S
C2251 C2249 1.387 . S
C2251 C2253 1.390 . S
C2251 H2255 0.950 . S
H2252 C2248 0.950 . S
C2253 C2251 1.390 . S
C2253 C2254 1.387 . S
C2253 H2256 0.950 . S
C2254 C2253 1.387 . S
C2254 C2257 1.387 . S
H2255 C2251 0.950 . S
H2256 C2253 0.950 . S
C2257 C2248 1.390 . S
C2257 H2250 0.950 . S
C2257 C2254 1.387 . S
C2258 C2259 1.387 . S
C2258 H2262 0.950 . S
C2258 C2267 1.390 . S
C2259 C2258 1.387 . S
C2259 C2261 1.387 . S
H2260 C2267 0.950 . S
C2261 C2259 1.387 . S
C2261 C2263 1.390 . S
C2261 H2265 0.950 . S
H2262 C2258 0.950 . S
C2263 C2261 1.390 . S
C2263 C2264 1.387 . S
C2263 H2266 0.950 . S
C2264 C2263 1.387 . S
C2264 C2267 1.387 . S
H2265 C2261 0.950 . S
H2266 C2263 0.950 . S
C2267 C2258 1.390 . S
C2267 H2260 0.950 . S
C2267 C2264 1.387 . S
C2268 C2269 1.387 . S
C2268 H2272 0.950 . S
C2268 C2277 1.390 . S
C2269 C2268 1.387 . S
C2269 C2271 1.387 . S
H2270 C2277 0.950 . S
C2271 C2269 1.387 . S
C2271 C2273 1.390 . S
C2271 H2275 0.950 . S
H2272 C2268 0.950 . S
C2273 C2271 1.390 . S
C2273 C2274 1.387 . S
C2273 H2276 0.950 . S
C2274 C2273 1.387 . S
C2274 C2277 1.387 . S
H2275 C2271 0.950 . S
H2276 C2273 0.950 . S
C2277 C2268 1.390 . S
C2277 H2270 0.950 . S
C2277 C2274 1.387 . S
C2278 C2279 1.387 . S
C2278 H2282 0.950 . S
C2278 C2287 1.390 . S
C2279 C2278 1.387 . S
C2279 C2281 1.387 . S
H2280 C2287 0.950 . S
C2281 C2279 1.387 . S
C2281 C2283 1.390 . S
C2281 H2285 0.950 . S
H2282 C2278 0.950 . S
C2283 C2281 1.390 . S
C2283 C2284 1.387 . S
C2283 H2286 0.950 . S
C2284 C2283 1.387 . S
C2284 C2287 1.387 . S
H2285 C2281 0.950 . S
H2286 C2283 0.950 . S
C2287 C2278 1.390 . S
C2287 H2280 0.950 . S
C2287 C2284 1.387 . S
C2288 C2289 1.387 . S
C2288 H2292 0.950 . S
C2288 C2297 1.390 . S
C2289 C2288 1.387 . S
C2289 C2291 1.387 . S
H2290 C2297 0.950 . S
C2291 C2289 1.387 . S
C2291 C2293 1.390 . S
C2291 H2295 0.950 . S
H2292 C2288 0.950 . S
C2293 C2291 1.390 . S
C2293 C2294 1.387 . S
C2293 H2296 0.950 . S
C2294 C2293 1.387 . S
C2294 C2297 1.387 . S
H2295 C2291 0.950 . S
H2296 C2293 0.950 . S
C2297 C2288 1.390 . S
C2297 H2290 0.950 . S
C2297 C2294 1.387 . S
C2298 C2299 1.387 . S
C2298 H2302 0.950 . S
C2298 C2307 1.390 . S
C2299 C2298 1.387 . S
C2299 C2301 1.387 . S
H2300 C2307 0.950 . S
C2301 C2299 1.387 . S
C2301 C2303 1.390 . S
C2301 H2305 0.950 . S
H2302 C2298 0.950 . S
C2303 C2301 1.390 . S
C2303 C2304 1.387 . S
C2303 H2306 0.950 . S
C2304 C2303 1.387 . S
C2304 C2307 1.387 . S
H2305 C2301 0.950 . S
H2306 C2303 0.950 . S
C2307 C2298 1.390 . S
C2307 H2300 0.950 . S
C2307 C2304 1.387 . S
C2308 C2309 1.387 . S
C2308 H2312 0.950 . S
C2308 C2317 1.390 . S
C2309 C2308 1.387 . S
C2309 C2311 1.387 . S
H2310 C2317 0.950 . S
C2311 C2309 1.387 . S
C2311 C2313 1.390 . S
C2311 H2315 0.950 . S
H2312 C2308 0.950 . S
C2313 C2311 1.390 . S
C2313 C2314 1.387 . S
C2313 H2316 0.950 . S
C2314 C2313 1.387 . S
C2314 C2317 1.387 . S
H2315 C2311 0.950 . S
H2316 C2313 0.950 . S
C2317 C2308 1.390 . S
C2317 H2310 0.950 . S
C2317 C2314 1.387 . S
C2318 C2319 1.387 . S
C2318 H2322 0.950 . S
C2318 C2327 1.390 . S
C2319 C2318 1.387 . S
C2319 C2321 1.387 . S
H2320 C2327 0.950 . S
C2321 C2319 1.387 . S
C2321 C2323 1.390 . S
C2321 H2325 0.950 . S
H2322 C2318 0.950 . S
C2323 C2321 1.390 . S
C2323 C2324 1.387 . S
C2323 H2326 0.950 . S
C2324 C2323 1.387 . S
C2324 C2327 1.387 . S
H2325 C2321 0.950 . S
H2326 C2323 0.950 . S
C2327 C2318 1.390 . S
C2327 H2320 0.950 . S
C2327 C2324 1.387 . S
C2328 C2329 1.387 . S
C2328 H2332 0.950 . S
C2328 C2337 1.390 . S
C2329 C2328 1.387 . S
C2329 C2331 1.387 . S
H2330 C2337 0.950 . S
C2331 C2329 1.387 . S
C2331 C2333 1.390 . S
C2331 H2335 0.950 . S
H2332 C2328 0.950 . S
C2333 C2331 1.390 . S
C2333 C2334 1.387 . S
C2333 H2336 0.950 . S
C2334 C2333 1.387 . S
C2334 C2337 1.387 . S
H2335 C2331 0.950 . S
H2336 C2333 0.950 . S
C2337 C2328 1.390 . S
C2337 H2330 0.950 . S
C2337 C2334 1.387 . S
C2338 C2339 1.387 . S
C2338 H2342 0.950 . S
C2338 C2347 1.390 . S
C2339 C2338 1.387 . S
C2339 C2341 1.387 . S
H2340 C2347 0.950 . S
C2341 C2339 1.387 . S
C2341 C2343 1.390 . S
C2341 H2345 0.950 . S
H2342 C2338 0.950 . S
C2343 C2341 1.390 . S
C2343 C2344 1.387 . S
C2343 H2346 0.950 . S
C2344 C2343 1.387 . S
C2344 C2347 1.387 . S
H2345 C2341 0.950 . S
H2346 C2343 0.950 . S
C2347 C2338 1.390 . S
C2347 H2340 0.950 . S
C2347 C2344 1.387 . S
C2348 C2349 1.387 . S
C2348 H2352 0.950 . S
C2348 C2357 1.390 . S
C2349 C2348 1.387 . S
C2349 C2351 1.387 . S
H2350 C2357 0.950 . S
C2351 C2349 1.387 . S
C2351 C2353 1.390 . S
C2351 H2355 0.950 . S
H2352 C2348 0.950 . S
C2353 C2351 1.390 . S
C2353 C2354 1.387 . S
C2353 H2356 0.950 . S
C2354 C2353 1.387 . S
C2354 C2357 1.387 . S
H2355 C2351 0.950 . S
H2356 C2353 0.950 . S
C2357 C2348 1.390 . S
C2357 H2350 0.950 . S
C2357 C2354 1.387 . S
C2358 C2359 1.387 . S
C2358 H2362 0.950 . S
C2358 C2367 1.390 . S
C2359 C2358 1.387 . S
C2359 C2361 1.387 . S
H2360 C2367 0.950 . S
C2361 C2359 1.387 . S
C2361 C2363 1.390 . S
C2361 H2365 0.950 . S
H2362 C2358 0.950 . S
C2363 C2361 1.390 . S
C2363 C2364 1.387 . S
C2363 H2366 0.950 . S
C2364 C2363 1.387 . S
C2364 C2367 1.387 . S
H2365 C2361 0.950 . S
H2366 C2363 0.950 . S
C2367 C2358 1.390 . S
C2367 H2360 0.950 . S
C2367 C2364 1.387 . S
C2368 C2369 1.387 . S
C2368 H2372 0.950 . S
C2368 C2377 1.390 . S
C2369 C2368 1.387 . S
C2369 C2371 1.387 . S
H2370 C2377 0.950 . S
C2371 C2369 1.387 . S
C2371 C2373 1.390 . S
C2371 H2375 0.950 . S
H2372 C2368 0.950 . S
C2373 C2371 1.390 . S
C2373 C2374 1.387 . S
C2373 H2376 0.950 . S
C2374 C2373 1.387 . S
C2374 C2377 1.387 . S
H2375 C2371 0.950 . S
H2376 C2373 0.950 . S
C2377 C2368 1.390 . S
C2377 H2370 0.950 . S
C2377 C2374 1.387 . S
C2378 C2379 1.387 . S
C2378 H2382 0.950 . S
C2378 C2387 1.390 . S
C2379 C2378 1.387 . S
C2379 C2381 1.387 . S
H2380 C2387 0.950 . S
C2381 C2379 1.387 . S
C2381 C2383 1.390 . S
C2381 H2385 0.950 . S
H2382 C2378 0.950 . S
C2383 C2381 1.390 . S
C2383 C2384 1.387 . S
C2383 H2386 0.950 . S
C2384 C2383 1.387 . S
C2384 C2387 1.387 . S
H2385 C2381 0.950 . S
H2386 C2383 0.950 . S
C2387 C2378 1.390 . S
C2387 H2380 0.950 . S
C2387 C2384 1.387 . S
C2388 C2389 1.387 . S
C2388 H2392 0.950 . S
C2388 C2397 1.390 . S
C2389 C2388 1.387 . S
C2389 C2391 1.387 . S
H2390 C2397 0.950 . S
C2391 C2389 1.387 . S
C2391 C2393 1.390 . S
C2391 H2395 0.950 . S
H2392 C2388 0.950 . S
C2393 C2391 1.390 . S
C2393 C2394 1.387 . S
C2393 H2396 0.950 . S
C2394 C2393 1.387 . S
C2394 C2397 1.387 . S
H2395 C2391 0.950 . S
H2396 C2393 0.950 . S
C2397 C2388 1.390 . S
C2397 H2390 0.950 . S
C2397 C2394 1.387 . S
C2398 C2399 1.387 . S
C2398 H2402 0.950 . S
C2398 C2407 1.390 1_545 S
C2399 C2398 1.387 . S
C2399 C2401 1.387 . S
H2400 C2407 0.950 . S
C2401 C2399 1.387 . S
C2401 C2403 1.390 1_545 S
C2401 H2405 0.950 . S
H2402 C2398 0.950 . S
C2403 C2401 1.390 1_565 S
C2403 C2404 1.387 . S
C2403 H2406 0.950 . S
C2404 C2403 1.387 . S
C2404 C2407 1.387 . S
H2405 C2401 0.950 . S
H2406 C2403 0.950 . S
C2407 C2398 1.390 1_565 S
C2407 H2400 0.950 . S
C2407 C2404 1.387 . S
C2408 C2409 1.387 1_655 S
C2408 H2412 0.950 . S
C2408 C2417 1.390 . S
C2409 C2408 1.387 1_455 S
C2409 C2411 1.387 . S
H2410 C2417 0.950 . S
C2411 C2409 1.387 . S
C2411 C2413 1.390 . S
C2411 H2415 0.950 . S
H2412 C2408 0.950 . S
C2413 C2411 1.390 . S
C2413 C2414 1.387 1_455 S
C2413 H2416 0.950 . S
C2414 C2413 1.387 1_655 S
C2414 C2417 1.387 . S
H2415 C2411 0.950 . S
H2416 C2413 0.950 . S
C2417 C2408 1.390 . S
C2417 H2410 0.950 . S
C2417 C2414 1.387 . S
C2418 C2419 1.387 . S
C2418 H2422 0.950 . S
C2418 C2427 1.390 . S
C2419 C2418 1.387 . S
C2419 C2421 1.387 . S
H2420 C2427 0.950 . S
C2421 C2419 1.387 . S
C2421 C2423 1.390 . S
C2421 H2425 0.950 . S
H2422 C2418 0.950 . S
C2423 C2421 1.390 . S
C2423 C2424 1.387 . S
C2423 H2426 0.950 . S
C2424 C2423 1.387 . S
C2424 C2427 1.387 . S
H2425 C2421 0.950 . S
H2426 C2423 0.950 . S
C2427 C2418 1.390 . S
C2427 H2420 0.950 . S
C2427 C2424 1.387 . S
C2428 C2429 1.387 . S
C2428 H2432 0.950 . S
C2428 C2437 1.390 1_565 S
C2429 C2428 1.387 . S
C2429 C2431 1.387 . S
H2430 C2437 0.950 . S
C2431 C2429 1.387 . S
C2431 C2433 1.390 1_565 S
C2431 H2435 0.950 . S
H2432 C2428 0.950 . S
C2433 C2431 1.390 1_545 S
C2433 C2434 1.387 . S
C2433 H2436 0.950 . S
C2434 C2433 1.387 . S
C2434 C2437 1.387 . S
H2435 C2431 0.950 . S
H2436 C2433 0.950 . S
C2437 C2428 1.390 1_545 S
C2437 H2430 0.950 . S
C2437 C2434 1.387 . S
C2438 C2439 1.387 . S
C2438 H2442 0.950 . S
C2438 C2447 1.390 . S
C2439 C2438 1.387 . S
C2439 C2441 1.387 1_455 S
H2440 C2447 0.950 . S
C2441 C2439 1.387 1_655 S
C2441 C2443 1.390 . S
C2441 H2445 0.950 . S
H2442 C2438 0.950 . S
C2443 C2441 1.390 . S
C2443 C2444 1.387 . S
C2443 H2446 0.950 . S
C2444 C2443 1.387 . S
C2444 C2447 1.387 1_655 S
H2445 C2441 0.950 . S
H2446 C2443 0.950 . S
C2447 C2438 1.390 . S
C2447 H2440 0.950 . S
C2447 C2444 1.387 1_455 S
C2448 C2449 1.387 . S
C2448 H2452 0.950 . S
C2448 C2457 1.390 . S
C2449 C2448 1.387 . S
C2449 C2451 1.387 . S
H2450 C2457 0.950 . S
C2451 C2449 1.387 . S
C2451 C2453 1.390 . S
C2451 H2455 0.950 . S
H2452 C2448 0.950 . S
C2453 C2451 1.390 . S
C2453 C2454 1.387 . S
C2453 H2456 0.950 . S
C2454 C2453 1.387 . S
C2454 C2457 1.387 . S
H2455 C2451 0.950 . S
H2456 C2453 0.950 . S
C2457 C2448 1.390 . S
C2457 H2450 0.950 . S
C2457 C2454 1.387 . S
C2458 C2459 1.387 . S
C2458 H2462 0.950 . S
C2458 C2467 1.390 . S
C2459 C2458 1.387 . S
C2459 C2461 1.387 . S
H2460 C2467 0.950 . S
C2461 C2459 1.387 . S
C2461 C2463 1.390 . S
C2461 H2465 0.950 . S
H2462 C2458 0.950 . S
C2463 C2461 1.390 . S
C2463 C2464 1.387 . S
C2463 H2466 0.950 . S
C2464 C2463 1.387 . S
C2464 C2467 1.387 . S
H2465 C2461 0.950 . S
H2466 C2463 0.950 . S
C2467 C2458 1.390 . S
C2467 H2460 0.950 . S
C2467 C2464 1.387 . S
C2468 C2469 1.387 . S
C2468 H2472 0.950 . S
C2468 C2477 1.390 . S
C2469 C2468 1.387 . S
C2469 C2471 1.387 . S
H2470 C2477 0.950 . S
C2471 C2469 1.387 . S
C2471 C2473 1.390 . S
C2471 H2475 0.950 . S
H2472 C2468 0.950 . S
C2473 C2471 1.390 . S
C2473 C2474 1.387 . S
C2473 H2476 0.950 . S
C2474 C2473 1.387 . S
C2474 C2477 1.387 . S
H2475 C2471 0.950 . S
H2476 C2473 0.950 . S
C2477 C2468 1.390 . S
C2477 H2470 0.950 . S
C2477 C2474 1.387 . S
C2478 C2479 1.387 . S
C2478 H2482 0.950 . S
C2478 C2487 1.390 . S
C2479 C2478 1.387 . S
C2479 C2481 1.387 . S
H2480 C2487 0.950 . S
C2481 C2479 1.387 . S
C2481 C2483 1.390 . S
C2481 H2485 0.950 . S
H2482 C2478 0.950 . S
C2483 C2481 1.390 . S
C2483 C2484 1.387 . S
C2483 H2486 0.950 . S
C2484 C2483 1.387 . S
C2484 C2487 1.387 . S
H2485 C2481 0.950 . S
H2486 C2483 0.950 . S
C2487 C2478 1.390 . S
C2487 H2480 0.950 . S
C2487 C2484 1.387 . S
C2488 C2489 1.387 . S
C2488 H2492 0.950 . S
C2488 C2497 1.390 . S
C2489 C2488 1.387 . S
C2489 C2491 1.387 . S
H2490 C2497 0.950 . S
C2491 C2489 1.387 . S
C2491 C2493 1.390 . S
C2491 H2495 0.950 . S
H2492 C2488 0.950 . S
C2493 C2491 1.390 . S
C2493 C2494 1.387 . S
C2493 H2496 0.950 . S
C2494 C2493 1.387 . S
C2494 C2497 1.387 . S
H2495 C2491 0.950 . S
H2496 C2493 0.950 . S
C2497 C2488 1.390 . S
C2497 H2490 0.950 . S
C2497 C2494 1.387 . S
C2498 C2499 1.387 . S
C2498 H2502 0.950 . S
C2498 C2507 1.390 . S
C2499 C2498 1.387 . S
C2499 C2501 1.387 . S
H2500 C2507 0.950 . S
C2501 C2499 1.387 . S
C2501 C2503 1.390 . S
C2501 H2505 0.950 . S
H2502 C2498 0.950 . S
C2503 C2501 1.390 . S
C2503 C2504 1.387 . S
C2503 H2506 0.950 . S
C2504 C2503 1.387 . S
C2504 C2507 1.387 . S
H2505 C2501 0.950 . S
H2506 C2503 0.950 . S
C2507 C2498 1.390 . S
C2507 H2500 0.950 . S
C2507 C2504 1.387 . S
C2508 C2509 1.387 . S
C2508 H2512 0.950 . S
C2508 C2517 1.390 . S
C2509 C2508 1.387 . S
C2509 C2511 1.387 . S
H2510 C2517 0.950 . S
C2511 C2509 1.387 . S
C2511 C2513 1.390 . S
C2511 H2515 0.950 . S
H2512 C2508 0.950 . S
C2513 C2511 1.390 . S
C2513 C2514 1.387 . S
C2513 H2516 0.950 . S
C2514 C2513 1.387 . S
C2514 C2517 1.387 . S
H2515 C2511 0.950 . S
H2516 C2513 0.950 . S
C2517 C2508 1.390 . S
C2517 H2510 0.950 . S
C2517 C2514 1.387 . S
C2518 C2519 1.387 . S
C2518 H2522 0.950 . S
C2518 C2527 1.390 . S
C2519 C2518 1.387 . S
C2519 C2521 1.387 . S
H2520 C2527 0.950 . S
C2521 C2519 1.387 . S
C2521 C2523 1.390 . S
C2521 H2525 0.950 . S
H2522 C2518 0.950 . S
C2523 C2521 1.390 . S
C2523 C2524 1.387 . S
C2523 H2526 0.950 . S
C2524 C2523 1.387 . S
C2524 C2527 1.387 . S
H2525 C2521 0.950 . S
H2526 C2523 0.950 . S
C2527 C2518 1.390 . S
C2527 H2520 0.950 . S
C2527 C2524 1.387 . S
C2528 C2529 1.387 . S
C2528 H2532 0.950 . S
C2528 C2537 1.390 . S
C2529 C2528 1.387 . S
C2529 C2531 1.387 . S
H2530 C2537 0.950 . S
C2531 C2529 1.387 . S
C2531 C2533 1.390 . S
C2531 H2535 0.950 . S
H2532 C2528 0.950 . S
C2533 C2531 1.390 . S
C2533 C2534 1.387 . S
C2533 H2536 0.950 . S
C2534 C2533 1.387 . S
C2534 C2537 1.387 . S
H2535 C2531 0.950 . S
H2536 C2533 0.950 . S
C2537 C2528 1.390 . S
C2537 H2530 0.950 . S
C2537 C2534 1.387 . S
C2538 C2539 1.387 . S
C2538 H2542 0.950 . S
C2538 C2547 1.390 . S
C2539 C2538 1.387 . S
C2539 C2541 1.387 . S
H2540 C2547 0.950 . S
C2541 C2539 1.387 . S
C2541 C2543 1.390 . S
C2541 H2545 0.950 . S
H2542 C2538 0.950 . S
C2543 C2541 1.390 . S
C2543 C2544 1.387 . S
C2543 H2546 0.950 . S
C2544 C2543 1.387 . S
C2544 C2547 1.387 . S
H2545 C2541 0.950 . S
H2546 C2543 0.950 . S
C2547 C2538 1.390 . S
C2547 H2540 0.950 . S
C2547 C2544 1.387 . S
C2548 C2549 1.387 . S
C2548 H2552 0.950 . S
C2548 C2557 1.390 . S
C2549 C2548 1.387 . S
C2549 C2551 1.387 . S
H2550 C2557 0.950 . S
C2551 C2549 1.387 . S
C2551 C2553 1.390 . S
C2551 H2555 0.950 . S
H2552 C2548 0.950 . S
C2553 C2551 1.390 . S
C2553 C2554 1.387 . S
C2553 H2556 0.950 . S
C2554 C2553 1.387 . S
C2554 C2557 1.387 . S
H2555 C2551 0.950 . S
H2556 C2553 0.950 . S
C2557 C2548 1.390 . S
C2557 H2550 0.950 . S
C2557 C2554 1.387 . S
C2558 C2559 1.387 . S
C2558 H2562 0.950 . S
C2558 C2567 1.390 . S
C2559 C2558 1.387 . S
C2559 C2561 1.387 . S
H2560 C2567 0.950 . S
C2561 C2559 1.387 . S
C2561 C2563 1.390 . S
C2561 H2565 0.950 . S
H2562 C2558 0.950 . S
C2563 C2561 1.390 . S
C2563 C2564 1.387 . S
C2563 H2566 0.950 . S
C2564 C2563 1.387 . S
C2564 C2567 1.387 . S
H2565 C2561 0.950 . S
H2566 C2563 0.950 . S
C2567 C2558 1.390 . S
C2567 H2560 0.950 . S
C2567 C2564 1.387 . S
C2568 C2569 1.387 . S
C2568 H2572 0.950 . S
C2568 C2577 1.435 . S
C2569 C2568 1.387 . S
C2569 C2571 1.421 . S
H2570 C2577 0.950 . S
C2571 C2569 1.421 . S
C2571 C2573 1.356 1_455 S
C2571 H2575 0.950 . S
H2572 C2568 0.950 . S
C2573 C2571 1.356 1_655 S
C2573 C2574 1.387 . S
C2573 H2576 0.950 . S
C2574 C2573 1.387 . S
C2574 C2577 1.346 1_655 S
H2575 C2571 0.950 . S
H2576 C2573 0.950 . S
C2577 C2568 1.435 . S
C2577 H2570 0.950 . S
C2577 C2574 1.346 1_455 S
C2578 C2579 1.387 . S
C2578 H2582 0.950 . S
C2578 C2587 1.390 . S
C2579 C2578 1.387 . S
C2579 C2581 1.387 . S
H2580 C2587 0.950 . S
C2581 C2579 1.387 . S
C2581 C2583 1.390 . S
C2581 H2585 0.950 . S
H2582 C2578 0.950 . S
C2583 C2581 1.390 . S
C2583 C2584 1.387 . S
C2583 H2586 0.950 . S
C2584 C2583 1.387 . S
C2584 C2587 1.387 . S
H2585 C2581 0.950 . S
H2586 C2583 0.950 . S
C2587 C2578 1.390 . S
C2587 H2580 0.950 . S
C2587 C2584 1.387 . S
C2588 C2589 1.387 . S
C2588 H2592 0.950 . S
C2588 C2597 1.390 1_545 S
C2589 C2588 1.387 . S
C2589 C2591 1.387 . S
H2590 C2597 0.950 . S
C2591 C2589 1.387 . S
C2591 C2593 1.390 1_545 S
C2591 H2595 0.950 . S
H2592 C2588 0.950 . S
C2593 C2591 1.390 1_565 S
C2593 C2594 1.387 . S
C2593 H2596 0.950 . S
C2594 C2593 1.387 . S
C2594 C2597 1.387 . S
H2595 C2591 0.950 . S
H2596 C2593 0.950 . S
C2597 C2588 1.390 1_565 S
C2597 H2590 0.950 . S
C2597 C2594 1.387 . S
C2598 C2599 1.387 . S
C2598 H2602 0.950 . S
C2598 C2607 1.390 1_565 S
C2599 C2598 1.387 . S
C2599 C2601 1.387 . S
H2600 C2607 0.950 . S
C2601 C2599 1.387 . S
C2601 C2603 1.390 1_565 S
C2601 H2605 0.950 . S
H2602 C2598 0.950 . S
C2603 C2601 1.390 1_545 S
C2603 C2604 1.387 . S
C2603 H2606 0.950 . S
C2604 C2603 1.387 . S
C2604 C2607 1.387 . S
H2605 C2601 0.950 . S
H2606 C2603 0.950 . S
C2607 C2598 1.390 1_545 S
C2607 H2600 0.950 . S
C2607 C2604 1.387 . S
C2608 C2609 1.387 . S
C2608 H2612 0.950 . S
C2608 C2617 1.390 1_655 S
C2609 C2608 1.387 . S
C2609 C2611 1.387 . S
H2610 C2617 0.950 . S
C2611 C2609 1.387 . S
C2611 C2613 1.390 1_655 S
C2611 H2615 0.950 . S
H2612 C2608 0.950 . S
C2613 C2611 1.390 1_455 S
C2613 C2614 1.387 . S
C2613 H2616 0.950 . S
C2614 C2613 1.387 . S
C2614 C2617 1.387 . S
H2615 C2611 0.950 . S
H2616 C2613 0.950 . S
C2617 C2608 1.390 1_455 S
C2617 H2610 0.950 . S
C2617 C2614 1.387 . S
C2618 C2619 1.387 . S
C2618 H2622 0.950 . S
C2618 C2627 1.390 . S
C2619 C2618 1.387 . S
C2619 C2621 1.387 . S
H2620 C2627 0.950 . S
C2621 C2619 1.387 . S
C2621 C2623 1.390 . S
C2621 H2625 0.950 . S
H2622 C2618 0.950 . S
C2623 C2621 1.390 . S
C2623 C2624 1.387 . S
C2623 H2626 0.950 . S
C2624 C2623 1.387 . S
C2624 C2627 1.387 . S
H2625 C2621 0.950 . S
H2626 C2623 0.950 . S
C2627 C2618 1.390 . S
C2627 H2620 0.950 . S
C2627 C2624 1.387 . S
C1909 C241 1.283 . S
C1914 C29 1.305 . S
C1919 C294 1.304 . S
C1924 C82 1.283 . S
C1929 C188 1.300 . S
C1934 C135 1.299 . S
C1939 C559 1.733 . S
C1944 C357 1.748 . S
C1949 C400 1.733 . S
C1954 C622 1.748 . S
C1959 C506 1.354 . S
C1964 C453 1.354 . S
C1969 C665 1.209 . S
C1974 C877 1.207 . S
C1979 C930 1.258 . S
C1984 C718 1.256 . S
C1989 C771 1.274 . S
C1994 C824 1.272 . S
C1999 C993 1.683 . S
C2004 C1195 1.663 . S
C2009 C1258 1.756 1_455 S
C2014 C1036 1.725 . S
C2019 C1089 1.407 . S
C2024 C1142 1.405 . S
C2029 C1513 1.255 . S
C2034 C1301 1.258 . S
C2039 C1354 1.204 . S
C2044 C1566 1.217 1_655 S
C2049 C1460 1.272 . S
C2054 C1407 1.271 . S
C2059 C1831 1.727 . S
C2064 C1629 1.755 . S
C2069 C1672 1.663 . S
C2074 C1894 1.680 . S
C2079 C1725 1.405 . S
C2084 C1778 1.407 . S
C2089 C621 1.759 . S
C2094 C22 1.757 . S
C2099 C75 1.659 . S
C2104 C499 1.681 . S
C2109 C552 1.844 . S
C2114 C128 1.842 . S
C2119 C393 1.845 . S
C2124 C181 1.841 . S
C2129 C234 1.658 . S
C2134 C446 1.681 . S
C2139 C356 1.759 . S
C2144 C287 1.757 . S
C2149 C658 1.849 . S
C2154 C1257 1.885 . S
C2159 C1135 1.830 . S
C2164 C711 1.835 . S
C2169 C1188 1.893 . S
C2174 C764 1.891 . S
C2179 C817 1.909 . S
C2184 C1029 1.906 . S
C2189 C870 1.753 . S
C2194 C1082 1.751 . S
C2199 C923 1.794 . S
C2204 C992 1.834 . S
C2209 C1893 1.835 . S
C2214 C1294 1.795 . S
C2219 C1347 1.754 . S
C2224 C1771 1.752 . S
C2229 C1400 1.909 . S
C2234 C1824 1.905 . S
C2239 C1665 1.893 . S
C2244 C1453 1.892 . S
C2249 C1718 1.830 . S
C2254 C1506 1.835 . S
C2259 C1628 1.886 . S
C2264 C1559 1.848 . S
C2269 C833 2.260 . S
C2274 C38 2.264 . S
C2279 C886 2.134 . S
C2284 C91 2.137 . S
C2289 C144 2.378 . S
C2294 C939 2.369 . S
C2299 C197 2.378 . S
C2304 C1310 2.369 . S
C2309 C250 2.140 . S
C2314 C1363 2.131 . S
C2319 C303 2.266 . S
C2324 C1416 2.256 . S
C2329 C340 1.633 . S
C2334 C1787 1.638 . S
C2339 C409 1.901 . S
C2344 C1840 1.894 . S
C2349 C462 1.403 . S
C2354 C1877 1.386 . S
C2359 C515 1.405 . S
C2364 C976 1.389 . S
C2369 C1045 1.898 . S
C2374 C568 1.899 . S
C2379 C1098 1.641 . S
C2384 C605 1.630 . S
C2389 C1469 2.575 . S
C2394 C674 2.574 . S
C2399 C727 2.453 . S
C2404 C1522 2.453 . S
C2409 C1575 2.574 . S
C2414 C780 2.575 . S
C2419 C1151 1.769 . S
C2424 C1612 1.760 . S
C2429 C1681 2.182 . S
C2434 C1204 2.182 . S
C2439 C1734 1.769 . S
C2444 C1241 1.759 . S
C2449 C39 2.340 . S
C2454 C1576 2.353 . S
C2459 C92 2.078 . S
C2464 C1470 2.090 . S
C2469 C145 2.020 . S
C2474 C1523 2.034 . S
C2479 C198 2.018 . S
C2484 C728 2.033 . S
C2489 C781 2.088 . S
C2494 C251 2.083 . S
C2499 C675 2.350 . S
C2504 C304 2.341 . S
C2509 C1248 1.547 . S
C2514 C347 1.537 . S
C2519 C1152 1.754 . S
C2524 C410 1.763 . S
C2529 C1205 1.819 . S
C2534 C463 1.788 . S
C2539 C1682 1.817 . S
C2544 C516 1.788 . S
C2549 C1735 1.751 . S
C2554 C569 1.761 . S
C2559 C1619 1.551 . S
C2564 C612 1.541 . S
C2569 C834 1.740 . S
C2574 C1364 1.749 . S
C2579 C1417 1.740 . S
C2584 C887 1.746 . S
C2589 C1311 2.166 . S
C2594 C940 2.165 . S
C2599 C983 1.180 . S
C2604 C1884 1.180 . S
C2609 C1788 1.578 . S
C2614 C1046 1.579 . S
C2619 C1099 1.578 . S
C2624 C1841 1.579 . S
