# Generated by pormake.
# Topology mer, (4)-cn, num edge types: 1
# Building blocks:
#     Node 0, Type 0, BuildingBlock: NAHDIM_clean_sbu_0, # of connection points: 4
#     Node 1, Type 0, BuildingBlock: NAHDIM_clean_sbu_0, # of connection points: 4
#     Node 2, Type 0, BuildingBlock: NAHDIM_clean_sbu_0, # of connection points: 4
#     Node 3, Type 0, BuildingBlock: NAHDIM_clean_sbu_0, # of connection points: 4
#     Node 4, Type 0, BuildingBlock: NAHDIM_clean_sbu_0, # of connection points: 4
#     Node 5, Type 0, BuildingBlock: NAHDIM_clean_sbu_0, # of connection points: 4
#     Node 6, Type 0, BuildingBlock: NAHDIM_clean_sbu_0, # of connection points: 4
#     Node 7, Type 0, BuildingBlock: NAHDIM_clean_sbu_0, # of connection points: 4
#     Node 8, Type 0, BuildingBlock: NAHDIM_clean_sbu_0, # of connection points: 4
#     Node 9, Type 0, BuildingBlock: NAHDIM_clean_sbu_0, # of connection points: 4
#     Node 10, Type 0, BuildingBlock: NAHDIM_clean_sbu_0, # of connection points: 4
#     Node 11, Type 0, BuildingBlock: NAHDIM_clean_sbu_0, # of connection points: 4
#     Node 12, Type 0, BuildingBlock: NAHDIM_clean_sbu_0, # of connection points: 4
#     Node 13, Type 0, BuildingBlock: NAHDIM_clean_sbu_0, # of connection points: 4
#     Node 14, Type 0, BuildingBlock: NAHDIM_clean_sbu_0, # of connection points: 4
#     Node 15, Type 0, BuildingBlock: NAHDIM_clean_sbu_0, # of connection points: 4
#     Node 16, Type 0, BuildingBlock: NAHDIM_clean_sbu_0, # of connection points: 4
#     Node 17, Type 0, BuildingBlock: NAHDIM_clean_sbu_0, # of connection points: 4
#     Node 18, Type 0, BuildingBlock: NAHDIM_clean_sbu_0, # of connection points: 4
#     Node 19, Type 0, BuildingBlock: NAHDIM_clean_sbu_0, # of connection points: 4
#     Node 20, Type 0, BuildingBlock: NAHDIM_clean_sbu_0, # of connection points: 4
#     Node 21, Type 0, BuildingBlock: NAHDIM_clean_sbu_0, # of connection points: 4
#     Node 22, Type 0, BuildingBlock: NAHDIM_clean_sbu_0, # of connection points: 4
#     Node 23, Type 0, BuildingBlock: NAHDIM_clean_sbu_0, # of connection points: 4
#     Node 24, Type 0, BuildingBlock: NAHDIM_clean_sbu_0, # of connection points: 4
#     Node 25, Type 0, BuildingBlock: NAHDIM_clean_sbu_0, # of connection points: 4
#     Node 26, Type 0, BuildingBlock: NAHDIM_clean_sbu_0, # of connection points: 4
#     Node 27, Type 0, BuildingBlock: NAHDIM_clean_sbu_0, # of connection points: 4
#     Node 28, Type 0, BuildingBlock: NAHDIM_clean_sbu_0, # of connection points: 4
#     Node 29, Type 0, BuildingBlock: NAHDIM_clean_sbu_0, # of connection points: 4
#     Node 30, Type 0, BuildingBlock: NAHDIM_clean_sbu_0, # of connection points: 4
#     Node 31, Type 0, BuildingBlock: NAHDIM_clean_sbu_0, # of connection points: 4
#     Edge 32, Type (0, 0), BuildingBlock: AJUNOK_clean_linker_0, # of connection points: 2
#     Edge 33, Type (0, 0), BuildingBlock: AJUNOK_clean_linker_0, # of connection points: 2
#     Edge 34, Type (0, 0), BuildingBlock: AJUNOK_clean_linker_0, # of connection points: 2
#     Edge 35, Type (0, 0), BuildingBlock: AJUNOK_clean_linker_0, # of connection points: 2
#     Edge 36, Type (0, 0), BuildingBlock: AJUNOK_clean_linker_0, # of connection points: 2
#     Edge 37, Type (0, 0), BuildingBlock: AJUNOK_clean_linker_0, # of connection points: 2
#     Edge 38, Type (0, 0), BuildingBlock: AJUNOK_clean_linker_0, # of connection points: 2
#     Edge 39, Type (0, 0), BuildingBlock: AJUNOK_clean_linker_0, # of connection points: 2
#     Edge 40, Type (0, 0), BuildingBlock: AJUNOK_clean_linker_0, # of connection points: 2
#     Edge 41, Type (0, 0), BuildingBlock: AJUNOK_clean_linker_0, # of connection points: 2
#     Edge 42, Type (0, 0), BuildingBlock: AJUNOK_clean_linker_0, # of connection points: 2
#     Edge 43, Type (0, 0), BuildingBlock: AJUNOK_clean_linker_0, # of connection points: 2
#     Edge 44, Type (0, 0), BuildingBlock: AJUNOK_clean_linker_0, # of connection points: 2
#     Edge 45, Type (0, 0), BuildingBlock: AJUNOK_clean_linker_0, # of connection points: 2
#     Edge 46, Type (0, 0), BuildingBlock: AJUNOK_clean_linker_0, # of connection points: 2
#     Edge 47, Type (0, 0), BuildingBlock: AJUNOK_clean_linker_0, # of connection points: 2
#     Edge 48, Type (0, 0), BuildingBlock: AJUNOK_clean_linker_0, # of connection points: 2
#     Edge 49, Type (0, 0), BuildingBlock: AJUNOK_clean_linker_0, # of connection points: 2
#     Edge 50, Type (0, 0), BuildingBlock: AJUNOK_clean_linker_0, # of connection points: 2
#     Edge 51, Type (0, 0), BuildingBlock: AJUNOK_clean_linker_0, # of connection points: 2
#     Edge 52, Type (0, 0), BuildingBlock: AJUNOK_clean_linker_0, # of connection points: 2
#     Edge 53, Type (0, 0), BuildingBlock: AJUNOK_clean_linker_0, # of connection points: 2
#     Edge 54, Type (0, 0), BuildingBlock: AJUNOK_clean_linker_0, # of connection points: 2
#     Edge 55, Type (0, 0), BuildingBlock: AJUNOK_clean_linker_0, # of connection points: 2
#     Edge 56, Type (0, 0), BuildingBlock: AJUNOK_clean_linker_0, # of connection points: 2
#     Edge 57, Type (0, 0), BuildingBlock: AJUNOK_clean_linker_0, # of connection points: 2
#     Edge 58, Type (0, 0), BuildingBlock: AJUNOK_clean_linker_0, # of connection points: 2
#     Edge 59, Type (0, 0), BuildingBlock: AJUNOK_clean_linker_0, # of connection points: 2
#     Edge 60, Type (0, 0), BuildingBlock: AJUNOK_clean_linker_0, # of connection points: 2
#     Edge 61, Type (0, 0), BuildingBlock: AJUNOK_clean_linker_0, # of connection points: 2
#     Edge 62, Type (0, 0), BuildingBlock: AJUNOK_clean_linker_0, # of connection points: 2
#     Edge 63, Type (0, 0), BuildingBlock: AJUNOK_clean_linker_0, # of connection points: 2
#     Edge 64, Type (0, 0), BuildingBlock: AJUNOK_clean_linker_0, # of connection points: 2
#     Edge 65, Type (0, 0), BuildingBlock: AJUNOK_clean_linker_0, # of connection points: 2
#     Edge 66, Type (0, 0), BuildingBlock: AJUNOK_clean_linker_0, # of connection points: 2
#     Edge 67, Type (0, 0), BuildingBlock: AJUNOK_clean_linker_0, # of connection points: 2
#     Edge 68, Type (0, 0), BuildingBlock: AJUNOK_clean_linker_0, # of connection points: 2
#     Edge 69, Type (0, 0), BuildingBlock: AJUNOK_clean_linker_0, # of connection points: 2
#     Edge 70, Type (0, 0), BuildingBlock: AJUNOK_clean_linker_0, # of connection points: 2
#     Edge 71, Type (0, 0), BuildingBlock: AJUNOK_clean_linker_0, # of connection points: 2
#     Edge 72, Type (0, 0), BuildingBlock: AJUNOK_clean_linker_0, # of connection points: 2
#     Edge 73, Type (0, 0), BuildingBlock: AJUNOK_clean_linker_0, # of connection points: 2
#     Edge 74, Type (0, 0), BuildingBlock: AJUNOK_clean_linker_0, # of connection points: 2
#     Edge 75, Type (0, 0), BuildingBlock: AJUNOK_clean_linker_0, # of connection points: 2
#     Edge 76, Type (0, 0), BuildingBlock: AJUNOK_clean_linker_0, # of connection points: 2
#     Edge 77, Type (0, 0), BuildingBlock: AJUNOK_clean_linker_0, # of connection points: 2
#     Edge 78, Type (0, 0), BuildingBlock: AJUNOK_clean_linker_0, # of connection points: 2
#     Edge 79, Type (0, 0), BuildingBlock: AJUNOK_clean_linker_0, # of connection points: 2
#     Edge 80, Type (0, 0), BuildingBlock: AJUNOK_clean_linker_0, # of connection points: 2
#     Edge 81, Type (0, 0), BuildingBlock: AJUNOK_clean_linker_0, # of connection points: 2
#     Edge 82, Type (0, 0), BuildingBlock: AJUNOK_clean_linker_0, # of connection points: 2
#     Edge 83, Type (0, 0), BuildingBlock: AJUNOK_clean_linker_0, # of connection points: 2
#     Edge 84, Type (0, 0), BuildingBlock: AJUNOK_clean_linker_0, # of connection points: 2
#     Edge 85, Type (0, 0), BuildingBlock: AJUNOK_clean_linker_0, # of connection points: 2
#     Edge 86, Type (0, 0), BuildingBlock: AJUNOK_clean_linker_0, # of connection points: 2
#     Edge 87, Type (0, 0), BuildingBlock: AJUNOK_clean_linker_0, # of connection points: 2
#     Edge 88, Type (0, 0), BuildingBlock: AJUNOK_clean_linker_0, # of connection points: 2
#     Edge 89, Type (0, 0), BuildingBlock: AJUNOK_clean_linker_0, # of connection points: 2
#     Edge 90, Type (0, 0), BuildingBlock: AJUNOK_clean_linker_0, # of connection points: 2
#     Edge 91, Type (0, 0), BuildingBlock: AJUNOK_clean_linker_0, # of connection points: 2
#     Edge 92, Type (0, 0), BuildingBlock: AJUNOK_clean_linker_0, # of connection points: 2
#     Edge 93, Type (0, 0), BuildingBlock: AJUNOK_clean_linker_0, # of connection points: 2
#     Edge 94, Type (0, 0), BuildingBlock: AJUNOK_clean_linker_0, # of connection points: 2
#     Edge 95, Type (0, 0), BuildingBlock: AJUNOK_clean_linker_0, # of connection points: 2
# Relax obj value: 0.161
# Max RMSD: 0.166
# Mean RMSD: 0.154
data_MOF--net-mer--node1-NAHDIM_clean_sbu_0--edge1-AJUNOK_clean_linker_0
_symmetry_space_group_name_H-M    P1
_symmetry_Int_Tables_number       1
_symmetry_cell_setting            triclinic
loop_
_symmetry_equiv_pos_as_xyz
'x, y, z'
_cell_length_a     51.5166
_cell_length_b     50.16698
_cell_length_c     32.621905
_cell_angle_alpha  90.03438
_cell_angle_beta   90.065013
_cell_angle_gamma 89.975576
loop_
_atom_site_label
_atom_site_type_symbol
_atom_site_fract_x
_atom_site_fract_y
_atom_site_fract_z
_atom_type_partial_charge
C0 C 0.04342 0.26636 0.3005 0.0
O1 O 0.05292 0.29065 0.29972 0.0
O2 O 0.10814 0.28602 0.28286 0.0
Zn3 Zn 0.09629 0.25548 0.31794 0.0
O4 O 0.10119 0.26358 0.3781 0.0
C5 C 0.14388 0.23151 0.30999 0.0
O6 O 0.14915 0.25601 0.32152 0.0
O7 O 0.05885 0.24697 0.30635 0.0
C8 C 0.08416 0.25693 0.40434 0.0
O9 O 0.06246 0.246 0.39157 0.0
C10 C 0.11162 0.30972 0.29534 0.0
O11 O 0.10619 0.31568 0.33361 0.0
O12 O 0.12022 0.22486 0.30558 0.0
C13 C 0.68905 0.12718 0.28805 0.0
O14 O 0.70392 0.11035 0.268 0.0
O15 O 0.71496 0.06841 0.33346 0.0
Zn16 Zn 0.71917 0.10626 0.3523 0.0
O17 O 0.75326 0.1218 0.33433 0.0
C18 C 0.72532 0.08753 0.43445 0.0
O19 O 0.7334 0.06636 0.41444 0.0
O20 O 0.69135 0.12873 0.32675 0.0
C21 C 0.77493 0.11599 0.35067 0.0
O22 O 0.77574 0.09779 0.37953 0.0
C23 C 0.73011 0.05662 0.30867 0.0
O24 O 0.74973 0.06977 0.29288 0.0
O25 O 0.71745 0.1076 0.41416 0.0
C26 C 0.94934 0.73607 0.30784 0.0
O27 O 0.93647 0.71357 0.31074 0.0
O28 O 0.88193 0.72531 0.29765 0.0
Zn29 Zn 0.89938 0.75534 0.32793 0.0
O30 O 0.89701 0.7493 0.38866 0.0
C31 C 0.86731 0.79204 0.28234 0.0
O32 O 0.87 0.77413 0.25323 0.0
O33 O 0.93715 0.75785 0.31291 0.0
C34 C 0.87545 0.75238 0.4069 0.0
O35 O 0.8549 0.75897 0.38525 0.0
C36 C 0.87605 0.7032 0.31419 0.0
O37 O 0.88239 0.69901 0.35265 0.0
O38 O 0.87964 0.78893 0.31574 0.0
C39 C 0.31828 0.87625 0.28531 0.0
O40 O 0.30571 0.89437 0.26405 0.0
O41 O 0.2789 0.92757 0.32175 0.0
Zn42 Zn 0.27922 0.89001 0.34335 0.0
O43 O 0.24813 0.86902 0.32419 0.0
C44 C 0.2699 0.91097 0.42385 0.0
O45 O 0.26022 0.93048 0.40181 0.0
O46 O 0.31084 0.87123 0.32163 0.0
C47 C 0.22618 0.8699 0.34184 0.0
O48 O 0.223 0.88605 0.37314 0.0
C49 C 0.26005 0.93871 0.30333 0.0
O50 O 0.23878 0.92503 0.29628 0.0
O51 O 0.27964 0.89096 0.40546 0.0
C52 C 0.04723 0.75476 0.72344 0.0
O53 O 0.06088 0.74186 0.75107 0.0
O54 O 0.11051 0.7275 0.71312 0.0
Zn55 Zn 0.09609 0.7572 0.67896 0.0
O56 O 0.09915 0.74784 0.61926 0.0
C57 C 0.12985 0.79383 0.72183 0.0
O58 O 0.12673 0.77695 0.75221 0.0
O59 O 0.05853 0.76354 0.6916 0.0
C60 C 0.12131 0.74636 0.60236 0.0
O61 O 0.14214 0.75052 0.62475 0.0
C62 C 0.10978 0.70324 0.70217 0.0
O63 O 0.09871 0.69691 0.66719 0.0
O64 O 0.11764 0.78991 0.68852 0.0
C65 C 0.31732 0.12787 0.70354 0.0
O66 O 0.30412 0.11003 0.72435 0.0
O67 O 0.28703 0.07087 0.66096 0.0
Zn68 Zn 0.28373 0.10872 0.64145 0.0
O69 O 0.25007 0.12517 0.65998 0.0
C70 C 0.27704 0.08883 0.55973 0.0
O71 O 0.27012 0.06752 0.58038 0.0
O72 O 0.31254 0.13069 0.66556 0.0
C73 C 0.22842 0.11983 0.64317 0.0
O74 O 0.22763 0.102 0.61372 0.0
C75 C 0.27142 0.05971 0.68571 0.0
O76 O 0.2522 0.07361 0.70124 0.0
O77 O 0.28451 0.10934 0.57942 0.0
C78 C 0.94755 0.23494 0.73081 0.0
O79 O 0.93638 0.25119 0.75701 0.0
O80 O 0.88977 0.27155 0.71981 0.0
Zn81 Zn 0.89791 0.2379 0.68894 0.0
O82 O 0.89454 0.24437 0.62826 0.0
C83 C 0.85052 0.21669 0.72142 0.0
O84 O 0.84745 0.24185 0.73134 0.0
O85 O 0.9345 0.2262 0.70058 0.0
C86 C 0.87264 0.2499 0.61238 0.0
O87 O 0.85233 0.25216 0.63643 0.0
C88 C 0.88923 0.29484 0.70464 0.0
O89 O 0.89595 0.29832 0.66618 0.0
O90 O 0.87152 0.20961 0.70402 0.0
C91 C 0.672 0.86831 0.71045 0.0
O92 O 0.6826 0.88839 0.73015 0.0
O93 O 0.71117 0.91933 0.66466 0.0
Zn94 Zn 0.71269 0.87993 0.65346 0.0
O95 O 0.7436 0.86269 0.67989 0.0
C96 C 0.70337 0.88788 0.56663 0.0
O97 O 0.68792 0.90686 0.57982 0.0
O98 O 0.68115 0.86164 0.67576 0.0
C99 C 0.76633 0.86598 0.66579 0.0
O100 O 0.76967 0.88238 0.63485 0.0
C101 C 0.72513 0.93132 0.69099 0.0
O102 O 0.74165 0.91753 0.71316 0.0
O103 O 0.71545 0.87371 0.59269 0.0
C104 C 0.93457 0.75297 0.71797 0.0
O105 O 0.92025 0.73982 0.74439 0.0
O106 O 0.87301 0.72319 0.70049 0.0
Zn107 Zn 0.88743 0.75421 0.66841 0.0
O108 O 0.88775 0.74629 0.6078 0.0
C109 C 0.8466 0.78826 0.70128 0.0
O110 O 0.84217 0.76799 0.72574 0.0
O111 O 0.92425 0.76132 0.68498 0.0
C112 C 0.86879 0.75297 0.58503 0.0
O113 O 0.8482 0.76382 0.60195 0.0
C114 C 0.85658 0.70706 0.68536 0.0
O115 O 0.84896 0.71038 0.64728 0.0
O116 O 0.86551 0.787 0.6764 0.0
C117 C 0.27935 0.94462 0.6964 0.0
O118 O 0.30052 0.93305 0.68268 0.0
O119 O 0.28836 0.87324 0.71647 0.0
Zn120 Zn 0.26125 0.89243 0.68359 0.0
O121 O 0.27 0.89222 0.62334 0.0
C122 C 0.21868 0.86497 0.72386 0.0
O123 O 0.2335 0.86668 0.75656 0.0
O124 O 0.25917 0.93051 0.70153 0.0
C125 C 0.25766 0.90891 0.6014 0.0
O126 O 0.24033 0.92431 0.61905 0.0
C127 C 0.29228 0.84856 0.71052 0.0
O128 O 0.27865 0.83625 0.68217 0.0
O129 O 0.22667 0.8747 0.69024 0.0
C130 C 0.05927 0.23229 0.71533 0.0
O131 O 0.07277 0.25147 0.73262 0.0
O132 O 0.12296 0.25629 0.69224 0.0
Zn133 Zn 0.10334 0.22871 0.65977 0.0
O134 O 0.09485 0.2418 0.60319 0.0
C135 C 0.1423 0.19026 0.68171 0.0
O136 O 0.143 0.20452 0.71548 0.0
O137 O 0.06922 0.2194 0.68575 0.0
C138 C 0.11177 0.24783 0.57651 0.0
O139 O 0.13646 0.24672 0.58654 0.0
C140 C 0.12346 0.28108 0.68435 0.0
O141 O 0.10966 0.29025 0.65356 0.0
O142 O 0.12605 0.19638 0.65395 0.0
C143 C 0.71623 0.04689 0.69807 0.0
O144 O 0.69584 0.05815 0.6811 0.0
O145 O 0.70125 0.11599 0.72867 0.0
Zn146 Zn 0.73104 0.10056 0.69631 0.0
O147 O 0.72443 0.1035 0.63558 0.0
C148 C 0.76151 0.1457 0.71785 0.0
O149 O 0.73822 0.15632 0.71837 0.0
O150 O 0.73491 0.06167 0.70948 0.0
C151 C 0.73817 0.08921 0.61187 0.0
O152 O 0.75598 0.07363 0.62796 0.0
C153 C 0.68416 0.1307 0.71199 0.0
O154 O 0.68526 0.13488 0.67228 0.0
O155 O 0.7638 0.12108 0.70924 0.0
C156 C 0.93173 0.25691 0.31814 0.0
O157 O 0.91766 0.27866 0.31501 0.0
O158 O 0.86265 0.26183 0.31991 0.0
Zn159 Zn 0.88489 0.23756 0.35435 0.0
O160 O 0.88573 0.24907 0.4133 0.0
C161 C 0.85634 0.19296 0.32215 0.0
O162 O 0.85622 0.20754 0.2887 0.0
O163 O 0.92145 0.23614 0.33329 0.0
C164 C 0.86501 0.24878 0.43439 0.0
O165 O 0.84306 0.24262 0.41618 0.0
C166 C 0.85688 0.28585 0.32816 0.0
O167 O 0.86642 0.29693 0.36142 0.0
O168 O 0.86856 0.20134 0.35342 0.0
C169 C 0.71736 0.94205 0.29632 0.0
O170 O 0.6955 0.93131 0.30883 0.0
O171 O 0.70749 0.87053 0.27111 0.0
Zn172 Zn 0.73302 0.889 0.30798 0.0
O173 O 0.71987 0.88908 0.36617 0.0
C174 C 0.77799 0.86244 0.27304 0.0
O175 O 0.7656 0.86576 0.23818 0.0
O176 O 0.73702 0.92712 0.29161 0.0
C177 C 0.72862 0.87363 0.39376 0.0
O178 O 0.74634 0.85593 0.38387 0.0
C179 C 0.70162 0.84644 0.27853 0.0
O180 O 0.71259 0.83451 0.30994 0.0
O181 O 0.76768 0.87079 0.30596 0.0
C182 C 0.06177 0.73344 0.31637 0.0
O183 O 0.07357 0.71039 0.3204 0.0
O184 O 0.12866 0.72135 0.30857 0.0
Zn185 Zn 0.11137 0.74992 0.34237 0.0
O186 O 0.1102 0.74023 0.40211 0.0
C187 C 0.14901 0.78775 0.31093 0.0
O188 O 0.15242 0.76944 0.28266 0.0
O189 O 0.07452 0.75463 0.32347 0.0
C190 C 0.13015 0.74264 0.42471 0.0
O191 O 0.15218 0.74992 0.40782 0.0
C192 C 0.13518 0.69841 0.32151 0.0
O193 O 0.13056 0.69203 0.35985 0.0
O194 O 0.1317 0.78411 0.33809 0.0
C195 C 0.26835 0.05345 0.28556 0.0
O196 O 0.29109 0.06435 0.29285 0.0
O197 O 0.28257 0.12203 0.2634 0.0
Zn198 Zn 0.25513 0.10649 0.30033 0.0
O199 O 0.26658 0.10711 0.35952 0.0
C200 C 0.22749 0.15381 0.30242 0.0
O201 O 0.25116 0.16112 0.31232 0.0
O202 O 0.24846 0.0684 0.28494 0.0
C203 C 0.2559 0.09099 0.38434 0.0
O204 O 0.23805 0.07461 0.37043 0.0
C205 C 0.30244 0.13402 0.27726 0.0
O206 O 0.30585 0.13553 0.31711 0.0
O207 O 0.22317 0.12929 0.29545 0.0
C208 C 0.5423 0.74449 0.7786 0.0
O209 O 0.55379 0.76283 0.75637 0.0
O210 O 0.6071 0.76925 0.78432 0.0
Zn211 Zn 0.59314 0.7385 0.81686 0.0
O212 O 0.5967 0.74628 0.87696 0.0
C213 C 0.62687 0.70317 0.77152 0.0
O214 O 0.6231 0.72064 0.74214 0.0
O215 O 0.55551 0.73159 0.80484 0.0
C216 C 0.61894 0.75042 0.89259 0.0
O217 O 0.63933 0.75052 0.86845 0.0
C218 C 0.60571 0.79332 0.79619 0.0
O219 O 0.59365 0.79882 0.83063 0.0
O220 O 0.61506 0.70625 0.80537 0.0
C221 C 0.17427 0.62642 0.78796 0.0
O222 O 0.18393 0.60661 0.76648 0.0
O223 O 0.20638 0.56988 0.82503 0.0
Zn224 Zn 0.21175 0.6074 0.84494 0.0
O225 O 0.24528 0.6232 0.82456 0.0
C226 C 0.22115 0.58718 0.92543 0.0
O227 O 0.22691 0.56587 0.90388 0.0
O228 O 0.18283 0.63045 0.82398 0.0
C229 C 0.26709 0.61744 0.84052 0.0
O230 O 0.2681 0.5991 0.86916 0.0
C231 C 0.22162 0.55726 0.80139 0.0
O232 O 0.24274 0.56902 0.78796 0.0
O233 O 0.21286 0.60778 0.90689 0.0
C234 C 0.4453 0.25527 0.7767 0.0
O235 O 0.4334 0.23957 0.75048 0.0
O236 O 0.382 0.22709 0.78292 0.0
Zn237 Zn 0.39484 0.25784 0.81684 0.0
O238 O 0.39123 0.24981 0.87698 0.0
C239 C 0.35941 0.29206 0.77218 0.0
O240 O 0.36242 0.2742 0.74309 0.0
O241 O 0.43241 0.26551 0.80591 0.0
C242 C 0.36928 0.25158 0.8945 0.0
O243 O 0.3488 0.25753 0.87228 0.0
C244 C 0.37908 0.2036 0.79661 0.0
O245 O 0.38533 0.19846 0.83485 0.0
O246 O 0.37238 0.28968 0.80512 0.0
C247 C 0.82275 0.37049 0.7872 0.0
O248 O 0.8119 0.38973 0.76589 0.0
O249 O 0.78168 0.42125 0.83027 0.0
Zn250 Zn 0.78095 0.38203 0.8427 0.0
O251 O 0.75039 0.36368 0.81695 0.0
C252 C 0.79117 0.39019 0.92927 0.0
O253 O 0.80756 0.40816 0.91564 0.0
O254 O 0.81314 0.3643 0.82174 0.0
C255 C 0.7277 0.36701 0.8312 0.0
O256 O 0.72433 0.38415 0.86121 0.0
C257 C 0.76759 0.43268 0.80353 0.0
O258 O 0.75134 0.41838 0.78164 0.0
O259 O 0.77816 0.37662 0.90357 0.0
C260 C 0.55357 0.23426 0.18107 0.0
O261 O 0.5659 0.21231 0.17085 0.0
O262 O 0.62097 0.22389 0.20565 0.0
Zn263 Zn 0.60439 0.25271 0.17176 0.0
O264 O 0.60685 0.2445 0.11162 0.0
C265 C 0.63389 0.2924 0.21596 0.0
O266 O 0.63037 0.27604 0.2469 0.0
O267 O 0.56658 0.2556 0.1852 0.0
C268 C 0.62777 0.24766 0.09166 0.0
O269 O 0.64868 0.25557 0.11129 0.0
C270 C 0.6274 0.20127 0.19141 0.0
O271 O 0.62287 0.19596 0.15262 0.0
O272 O 0.62345 0.28696 0.18168 0.0
C273 C 0.81155 0.63029 0.21997 0.0
O274 O 0.79709 0.61223 0.23803 0.0
O275 O 0.78611 0.57444 0.16363 0.0
Zn276 Zn 0.78102 0.61349 0.15258 0.0
O277 O 0.74664 0.62619 0.17358 0.0
C278 C 0.78103 0.60231 0.06559 0.0
O279 O 0.78054 0.57753 0.07855 0.0
O280 O 0.80854 0.63433 0.18181 0.0
C281 C 0.7257 0.62134 0.15443 0.0
O282 O 0.72655 0.60659 0.12115 0.0
C283 C 0.77216 0.56096 0.18807 0.0
O284 O 0.7531 0.57279 0.20768 0.0
O285 O 0.78208 0.62103 0.0918 0.0
C286 C 0.45061 0.74825 0.21762 0.0
O287 O 0.43914 0.76303 0.24548 0.0
O288 O 0.38977 0.78153 0.21011 0.0
Zn289 Zn 0.40037 0.74977 0.17634 0.0
O290 O 0.397 0.75737 0.11593 0.0
C291 C 0.35454 0.72374 0.20576 0.0
O292 O 0.34914 0.74824 0.21711 0.0
O293 O 0.43751 0.74002 0.1871 0.0
C294 C 0.37498 0.7594 0.09862 0.0
O295 O 0.35392 0.75786 0.12118 0.0
C296 C 0.3866 0.80494 0.19626 0.0
O297 O 0.3921 0.80984 0.15769 0.0
O298 O 0.37628 0.71905 0.1888 0.0
C299 C 0.17687 0.3806 0.201 0.0
O300 O 0.1816 0.40512 0.21294 0.0
O301 O 0.22811 0.42411 0.16325 0.0
Zn302 Zn 0.22432 0.38515 0.15122 0.0
O303 O 0.25457 0.36521 0.17439 0.0
C304 C 0.2117 0.39376 0.06556 0.0
O305 O 0.19721 0.41303 0.08039 0.0
O306 O 0.19189 0.36948 0.17529 0.0
C307 C 0.27758 0.37131 0.16414 0.0
O308 O 0.2812 0.39179 0.13974 0.0
C309 C 0.23413 0.4334 0.19823 0.0
O310 O 0.23724 0.41709 0.22934 0.0
O311 O 0.22461 0.37933 0.09024 0.0
C312 C 0.44099 0.23296 0.17086 0.0
O313 O 0.42934 0.21019 0.1633 0.0
O314 O 0.37298 0.22263 0.18512 0.0
Zn315 Zn 0.39047 0.25161 0.15261 0.0
O316 O 0.38847 0.24445 0.09196 0.0
C317 C 0.35526 0.28967 0.18989 0.0
O318 O 0.35064 0.2701 0.2156 0.0
O319 O 0.42785 0.25433 0.1688 0.0
C320 C 0.36732 0.2489 0.07302 0.0
O321 O 0.34698 0.25662 0.09415 0.0
C322 C 0.36421 0.20114 0.16982 0.0
O323 O 0.36703 0.19669 0.13041 0.0
O324 O 0.37223 0.28645 0.16211 0.0
C325 C 0.78256 0.44566 0.19466 0.0
O326 O 0.80292 0.43322 0.17976 0.0
O327 O 0.78851 0.3733 0.22522 0.0
Zn328 Zn 0.76405 0.39341 0.18845 0.0
O329 O 0.77675 0.39206 0.13007 0.0
C330 C 0.71901 0.36794 0.22442 0.0
O331 O 0.73221 0.37059 0.25866 0.0
O332 O 0.76258 0.43204 0.20365 0.0
C333 C 0.76687 0.37721 0.10265 0.0
O334 O 0.74815 0.36072 0.11282 0.0
C335 C 0.79006 0.34824 0.22018 0.0
O336 O 0.77599 0.33714 0.19122 0.0
O337 O 0.72861 0.37687 0.19133 0.0
C338 C 0.56267 0.73979 0.20348 0.0
O339 O 0.57885 0.75193 0.2284 0.0
O340 O 0.62796 0.76041 0.18426 0.0
Zn341 Zn 0.6078 0.73423 0.15013 0.0
O342 O 0.60666 0.74562 0.09118 0.0
C343 C 0.63917 0.69218 0.18352 0.0
O344 O 0.63732 0.70671 0.2169 0.0
O345 O 0.57116 0.73036 0.16991 0.0
C346 C 0.62741 0.74763 0.07038 0.0
O347 O 0.64977 0.74354 0.08873 0.0
C348 C 0.63086 0.78494 0.1758 0.0
O349 O 0.61941 0.79474 0.14312 0.0
O350 O 0.62679 0.6994 0.15172 0.0
C351 C 0.23508 0.54835 0.21895 0.0
O352 O 0.22068 0.55874 0.24808 0.0
O353 O 0.21066 0.61615 0.22135 0.0
Zn354 Zn 0.23872 0.60246 0.18373 0.0
O355 O 0.22879 0.60576 0.12421 0.0
C356 C 0.26902 0.64837 0.20012 0.0
O357 O 0.24559 0.65864 0.20161 0.0
O358 O 0.245 0.56345 0.19204 0.0
C359 C 0.24418 0.59381 0.09993 0.0
O360 O 0.2651 0.58256 0.11518 0.0
C361 C 0.19267 0.63122 0.20816 0.0
O362 O 0.19157 0.63653 0.16876 0.0
O363 O 0.27146 0.62358 0.19309 0.0
C364 C 0.43011 0.74322 0.79215 0.0
O365 O 0.41641 0.76202 0.77431 0.0
O366 O 0.3635 0.7609 0.80599 0.0
Zn367 Zn 0.38341 0.73493 0.84086 0.0
O368 O 0.38602 0.74791 0.89904 0.0
C369 C 0.34984 0.69325 0.81144 0.0
O370 O 0.34972 0.70796 0.77814 0.0
O371 O 0.41963 0.72917 0.81997 0.0
C372 C 0.36597 0.75034 0.92138 0.0
O373 O 0.34309 0.74536 0.90526 0.0
C374 C 0.36228 0.78581 0.81267 0.0
O375 O 0.37526 0.79591 0.84368 0.0
O376 O 0.36367 0.70046 0.84173 0.0
C377 C 0.20885 0.44278 0.79032 0.0
O378 O 0.18756 0.43124 0.80356 0.0
O379 O 0.19961 0.37099 0.77073 0.0
Zn380 Zn 0.22651 0.39063 0.80365 0.0
O381 O 0.21638 0.39167 0.86333 0.0
C382 C 0.26917 0.36151 0.7659 0.0
O383 O 0.25425 0.36166 0.7332 0.0
O384 O 0.22902 0.42858 0.7855 0.0
C385 C 0.22688 0.37689 0.89027 0.0
O386 O 0.24414 0.35913 0.87868 0.0
C387 C 0.19455 0.34695 0.77984 0.0
O388 O 0.20703 0.33589 0.8106 0.0
O389 O 0.26123 0.3728 0.79839 0.0
C390 C 0.55779 0.25437 0.78604 0.0
O391 O 0.57132 0.23962 0.76054 0.0
O392 O 0.61993 0.2253 0.8002 0.0
Zn393 Zn 0.6057 0.25576 0.83346 0.0
O394 O 0.60656 0.24686 0.89353 0.0
C395 C 0.64669 0.28911 0.8004 0.0
O396 O 0.65013 0.26886 0.77546 0.0
O397 O 0.56874 0.26351 0.818 0.0
C398 C 0.6278 0.24761 0.91333 0.0
O399 O 0.64931 0.25331 0.89356 0.0
C400 C 0.62292 0.20177 0.8138 0.0
O401 O 0.61571 0.19624 0.85144 0.0
O402 O 0.62815 0.28826 0.82605 0.0
C403 C 0.77298 0.54836 0.79855 0.0
O404 O 0.79328 0.56009 0.815 0.0
O405 O 0.78074 0.62124 0.77401 0.0
Zn406 Zn 0.755 0.60067 0.80789 0.0
O407 O 0.76507 0.60026 0.86746 0.0
C408 C 0.71334 0.62865 0.76833 0.0
O409 O 0.72863 0.62589 0.73641 0.0
O410 O 0.75319 0.56245 0.79009 0.0
C411 C 0.76414 0.62036 0.89112 0.0
O412 O 0.75674 0.64346 0.87617 0.0
C413 C 0.80252 0.6296 0.787 0.0
O414 O 0.80984 0.62358 0.82444 0.0
O415 O 0.72027 0.61852 0.80234 0.0
C416 C 0.18016 0.16566 0.30276 0.0
C417 C 0.2063 0.17377 0.30113 0.0
C418 C 0.15996 0.18441 0.3045 0.0
C419 C 0.16518 0.21195 0.30464 0.0
H420 H 0.17526 0.14467 0.3038 0.0
H421 H 0.14019 0.17724 0.30686 0.0
S422 S 0.23013 0.24355 0.29556 0.0
N423 N 0.23612 0.21125 0.29613 0.0
N424 N 0.19832 0.24636 0.29932 0.0
C425 C 0.19117 0.22029 0.30126 0.0
C426 C 0.21168 0.20125 0.29953 0.0
C427 C 0.79759 0.14904 0.3061 0.0
C428 C 0.79814 0.13214 0.34053 0.0
C429 C 0.81742 0.16751 0.29892 0.0
C430 C 0.83848 0.17 0.32612 0.0
H431 H 0.78123 0.1487 0.2852 0.0
H432 H 0.81545 0.18084 0.273 0.0
S433 S 0.85098 0.12811 0.41782 0.0
N434 N 0.82297 0.11722 0.3998 0.0
N435 N 0.86015 0.15211 0.38643 0.0
C436 C 0.84016 0.15208 0.3592 0.0
C437 C 0.82003 0.13309 0.36635 0.0
C438 C 0.83192 0.81474 0.24294 0.0
C439 C 0.84695 0.81289 0.27891 0.0
C440 C 0.81024 0.83158 0.24077 0.0
C441 C 0.80263 0.84716 0.27455 0.0
H442 H 0.83637 0.80245 0.21656 0.0
H443 H 0.79886 0.8316 0.21283 0.0
S444 S 0.83705 0.85205 0.3744 0.0
N445 N 0.85391 0.82999 0.34798 0.0
N446 N 0.81319 0.86148 0.3439 0.0
C447 C 0.81823 0.84656 0.31001 0.0
C448 C 0.84039 0.82951 0.31217 0.0
C449 C 0.16474 0.82842 0.34786 0.0
C450 C 0.16725 0.81057 0.31475 0.0
C451 C 0.18335 0.84818 0.35535 0.0
C452 C 0.20533 0.85092 0.33015 0.0
H453 H 0.14867 0.82666 0.36907 0.0
H454 H 0.18084 0.86079 0.38202 0.0
S455 S 0.21966 0.81131 0.2366 0.0
N456 N 0.19242 0.79847 0.2544 0.0
N457 N 0.22739 0.83556 0.26854 0.0
C458 C 0.20745 0.83411 0.2957 0.0
C459 C 0.18843 0.81398 0.28799 0.0
C460 C 0.16755 0.81517 0.75752 0.0
C461 C 0.15022 0.81471 0.72412 0.0
C462 C 0.18907 0.83226 0.75795 0.0
C463 C 0.19415 0.84952 0.72496 0.0
H464 H 0.16509 0.80155 0.78297 0.0
H465 H 0.20232 0.83114 0.78369 0.0
S466 S 0.15282 0.85873 0.63265 0.0
N467 N 0.13821 0.83504 0.65902 0.0
N468 N 0.17861 0.86705 0.65983 0.0
C469 C 0.17619 0.85035 0.69241 0.0
C470 C 0.15424 0.833 0.69201 0.0
C471 C 0.20567 0.15217 0.68908 0.0
C472 C 0.20494 0.13525 0.65465 0.0
C473 C 0.18484 0.169 0.69856 0.0
C474 C 0.16247 0.1698 0.67382 0.0
H475 H 0.22273 0.15291 0.70849 0.0
H476 H 0.18677 0.18216 0.72471 0.0
S477 S 0.14967 0.1277 0.58232 0.0
N478 N 0.17907 0.11896 0.59737 0.0
N479 N 0.13998 0.15073 0.61508 0.0
C480 C 0.16096 0.15216 0.64031 0.0
C481 C 0.18214 0.13485 0.63078 0.0
C482 C 0.80902 0.15458 0.70865 0.0
C483 C 0.78467 0.16282 0.72352 0.0
C484 C 0.8305 0.17175 0.70951 0.0
C485 C 0.82851 0.19776 0.7255 0.0
H486 H 0.81131 0.13509 0.6948 0.0
H487 H 0.84858 0.16481 0.69634 0.0
S488 S 0.76977 0.2277 0.77309 0.0
N489 N 0.76038 0.1978 0.75811 0.0
N490 N 0.80062 0.22994 0.76005 0.0
C491 C 0.80458 0.20568 0.74252 0.0
C492 C 0.78271 0.18826 0.74142 0.0
C493 C 0.83087 0.82973 0.66675 0.0
C494 C 0.82756 0.81038 0.69757 0.0
C495 C 0.8115 0.84849 0.65814 0.0
C496 C 0.78796 0.84871 0.67994 0.0
H497 H 0.84815 0.82982 0.64785 0.0
H498 H 0.81466 0.8622 0.63299 0.0
S499 S 0.77109 0.80487 0.76773 0.0
N500 N 0.80001 0.79448 0.75298 0.0
N501 N 0.7636 0.82975 0.73682 0.0
C502 C 0.78506 0.83063 0.71266 0.0
C503 C 0.80485 0.81148 0.72146 0.0
C504 C 0.65272 0.66575 0.80152 0.0
C505 C 0.64706 0.68217 0.76767 0.0
C506 C 0.67359 0.64789 0.80081 0.0
C507 C 0.68972 0.64558 0.7662 0.0
H508 H 0.64144 0.6672 0.82943 0.0
H509 H 0.67746 0.63631 0.82816 0.0
S510 S 0.68188 0.68223 0.668 0.0
N511 N 0.65828 0.6936 0.69737 0.0
N512 N 0.69749 0.66 0.69601 0.0
C513 C 0.68358 0.66095 0.73137 0.0
C514 C 0.66229 0.67923 0.73212 0.0
C515 C 0.28945 0.65129 0.79687 0.0
C516 C 0.29026 0.6337 0.83045 0.0
C517 C 0.30952 0.6695 0.78968 0.0
C518 C 0.33109 0.67106 0.81605 0.0
H519 H 0.27279 0.65159 0.77657 0.0
H520 H 0.30746 0.68325 0.7643 0.0
S521 S 0.34414 0.62744 0.90563 0.0
N522 N 0.31568 0.6174 0.88824 0.0
N523 N 0.35327 0.6518 0.87487 0.0
C524 C 0.33287 0.65263 0.84843 0.0
C525 C 0.31251 0.6339 0.85557 0.0
C526 C 0.32155 0.31214 0.73519 0.0
C527 C 0.3385 0.31235 0.76908 0.0
C528 C 0.2997 0.32878 0.73375 0.0
C529 C 0.29387 0.34628 0.76618 0.0
H530 H 0.32463 0.29841 0.71003 0.0
H531 H 0.28686 0.32721 0.70755 0.0
S532 S 0.33361 0.35678 0.85995 0.0
N533 N 0.34909 0.33327 0.83438 0.0
N534 N 0.3081 0.36445 0.83169 0.0
C535 C 0.31134 0.34766 0.79937 0.0
C536 C 0.33363 0.33075 0.8008 0.0
C537 C 0.66271 0.33158 0.83167 0.0
C538 C 0.66618 0.31087 0.80303 0.0
C539 C 0.68224 0.35038 0.83909 0.0
C540 C 0.70612 0.34926 0.81827 0.0
H541 H 0.64509 0.33283 0.84965 0.0
H542 H 0.67886 0.36529 0.8625 0.0
S543 S 0.72397 0.30089 0.73669 0.0
N544 N 0.69457 0.29181 0.75105 0.0
N545 N 0.73126 0.32712 0.76499 0.0
C546 C 0.70932 0.32959 0.78783 0.0
C547 C 0.68937 0.31043 0.78021 0.0
C548 C 0.66769 0.3176 0.25525 0.0
C549 C 0.65292 0.31454 0.21922 0.0
C550 C 0.68828 0.33581 0.25728 0.0
C551 C 0.69497 0.35167 0.22334 0.0
H552 H 0.66402 0.30514 0.28172 0.0
H553 H 0.69964 0.33663 0.28521 0.0
S554 S 0.66024 0.354 0.12354 0.0
N555 N 0.64482 0.33095 0.15011 0.0
N556 N 0.68349 0.36507 0.15394 0.0
C557 C 0.67941 0.34997 0.18793 0.0
C558 C 0.6584 0.33146 0.18587 0.0
C559 C 0.68177 0.6388 0.13641 0.0
C560 C 0.7016 0.63568 0.16566 0.0
C561 C 0.66083 0.65598 0.1435 0.0
C562 C 0.65879 0.67061 0.18022 0.0
H563 H 0.68304 0.629 0.10688 0.0
H564 H 0.64674 0.65862 0.11917 0.0
S565 S 0.70343 0.666 0.26946 0.0
N566 N 0.71631 0.64605 0.23475 0.0
N567 N 0.67689 0.67826 0.24823 0.0
C568 C 0.67745 0.66607 0.21102 0.0
C569 C 0.69888 0.64865 0.20368 0.0
C570 C 0.28833 0.69221 0.21882 0.0
C571 C 0.29192 0.66599 0.20468 0.0
C572 C 0.30894 0.71027 0.22053 0.0
C573 C 0.33407 0.70299 0.20788 0.0
H574 H 0.26929 0.69912 0.22809 0.0
H575 H 0.30484 0.73037 0.23081 0.0
S576 S 0.35431 0.63607 0.17107 0.0
N577 N 0.32291 0.63307 0.17996 0.0
N578 N 0.36175 0.66714 0.18294 0.0
C579 C 0.33822 0.67651 0.19508 0.0
C580 C 0.31715 0.65799 0.19355 0.0
C581 C 0.29475 0.3317 0.20184 0.0
C582 C 0.29932 0.35329 0.17524 0.0
C583 C 0.3136 0.31205 0.20835 0.0
C584 C 0.33773 0.31308 0.18833 0.0
H585 H 0.27609 0.32935 0.21668 0.0
H586 H 0.30863 0.29527 0.22769 0.0
S587 S 0.36094 0.3674 0.12038 0.0
N588 N 0.33097 0.37605 0.13233 0.0
N589 N 0.36634 0.33901 0.14446 0.0
C590 C 0.34325 0.33545 0.16382 0.0
C591 C 0.32408 0.35559 0.15734 0.0
C592 C 0.97154 0.28213 0.29835 0.0
C593 C 0.95989 0.2577 0.30876 0.0
C594 C -0.00154 0.28439 0.29408 0.0
C595 C 0.01491 0.26231 0.29991 0.0
H596 H 0.95992 0.29998 0.29477 0.0
H597 H 0.00643 0.30387 0.28732 0.0
S598 S 0.99397 0.19307 0.32285 0.0
N599 N 0.96673 0.21037 0.32132 0.0
N600 N 0.01737 0.21463 0.31326 0.0
C601 C 0.00345 0.2374 0.30811 0.0
C602 C 0.97595 0.2351 0.31256 0.0
C603 C 0.70354 0.01522 0.31388 0.0
C604 C 0.72641 0.02782 0.30046 0.0
C605 C 0.70035 0.98764 0.31058 0.0
C606 C 0.71997 0.97142 0.29399 0.0
H607 H 0.68811 0.02666 0.32802 0.0
H608 H 0.68269 0.97894 0.32259 0.0
S609 S 0.78257 0.99471 0.2505 0.0
N610 N 0.76825 0.02214 0.26695 0.0
N611 N 0.76229 0.97017 0.26089 0.0
C612 C 0.74246 0.98383 0.27861 0.0
C613 C 0.74566 0.01204 0.28178 0.0
C614 C 0.01958 0.75824 0.31578 0.0
C615 C 0.03342 0.7345 0.30859 0.0
C616 C 0.99241 0.75889 0.31364 0.0
C617 C 0.97803 0.73583 0.30425 0.0
H618 H 0.02967 0.77628 0.32469 0.0
H619 H 0.98262 0.77739 0.32103 0.0
S620 S 0.00517 0.6696 0.27675 0.0
N621 N 0.03083 0.68807 0.28729 0.0
N622 N 0.97985 0.68929 0.2833 0.0
C623 C 0.99171 0.71237 0.29458 0.0
C624 C 0.01937 0.7117 0.29675 0.0
C625 C 0.28579 0.98052 0.29641 0.0
C626 C 0.26167 0.9675 0.29349 0.0
C627 C 0.28782 0.00814 0.29185 0.0
C628 C 0.2658 0.02401 0.2844 0.0
H629 H 0.30329 0.96939 0.30328 0.0
H630 H 0.30678 0.01713 0.29562 0.0
S631 S 0.19836 -0.00049 0.27014 0.0
N632 N 0.21548 0.97237 0.27961 0.0
N633 N 0.21927 0.02442 0.27117 0.0
C634 C 0.24169 0.01116 0.27939 0.0
C635 C 0.23964 0.98289 0.28388 0.0
C636 C 0.00467 0.77052 0.69606 0.0
C637 C 0.01853 0.75658 0.72645 0.0
C638 C 0.97756 0.77009 0.69474 0.0
C639 C 0.96303 0.75569 0.72374 0.0
H640 H 0.01481 0.78132 0.67221 0.0
H641 H 0.96801 0.78057 0.66993 0.0
S642 S 0.98973 0.71802 0.81227 0.0
N643 N 0.01557 0.72962 0.78831 0.0
N644 N 0.96449 0.7288 0.78581 0.0
C645 C 0.97652 0.74279 0.75565 0.0
C646 C 0.00427 0.74323 0.757 0.0
C647 C 0.29844 0.98952 0.68369 0.0
C648 C 0.27797 0.97407 0.69938 0.0
C649 C 0.29643 0.01725 0.68081 0.0
C650 C 0.27394 0.03075 0.69376 0.0
H651 H 0.31588 0.98013 0.67205 0.0
H652 H 0.31247 0.02809 0.66732 0.0
S653 S 0.21583 -0.00016 0.74131 0.0
N654 N 0.23522 0.97449 0.73113 0.0
N655 N 0.23148 0.02671 0.72586 0.0
C656 C 0.25384 0.01572 0.71159 0.0
C657 C 0.25584 0.98737 0.71434 0.0
C658 C 0.01892 0.24746 0.75109 0.0
C659 C 0.03124 0.22916 0.72478 0.0
C660 C 0.99183 0.24812 0.75483 0.0
C661 C 0.97599 0.23057 0.73229 0.0
H662 H 0.03012 0.26231 0.76748 0.0
H663 H 0.98326 0.26346 0.77387 0.0
S664 S -0.00128 0.17563 0.66501 0.0
N665 N 0.02558 0.19061 0.6802 0.0
N666 N 0.97471 0.19202 0.68707 0.0
C667 C 0.98811 0.21082 0.70838 0.0
C668 C 0.01571 0.21006 0.7047 0.0
C669 C 0.69978 0.00183 0.67886 0.0
C670 C 0.71831 0.01742 0.69958 0.0
C671 C 0.70204 0.97408 0.67683 0.0
C672 C 0.72283 0.96064 0.6957 0.0
H673 H 0.68357 0.0111 0.66319 0.0
H674 H 0.68739 0.96314 0.65993 0.0
S675 S 0.77596 0.992 0.75577 0.0
N676 N 0.75774 0.01726 0.74078 0.0
N677 N 0.76192 0.965 0.73716 0.0
C678 C 0.74117 0.97586 0.71755 0.0
C679 C 0.73894 0.00425 0.71942 0.0
C680 C 0.49833 0.76105 0.75821 0.0
C681 C 0.51367 0.74146 0.77736 0.0
C682 C 0.47121 0.76076 0.76152 0.0
C683 C 0.45835 0.74084 0.78409 0.0
H684 H 0.50731 0.77744 0.74194 0.0
H685 H 0.46038 0.77692 0.74764 0.0
S686 S 0.48935 0.68257 0.83456 0.0
N687 N 0.51382 0.69985 0.81571 0.0
N688 N 0.46292 0.69926 0.8219 0.0
C689 C 0.47336 0.72015 0.80112 0.0
C690 C 0.50098 0.72047 0.79777 0.0
C691 C 0.23459 0.4844 0.77876 0.0
C692 C 0.21056 0.47224 0.78733 0.0
C693 C 0.23771 0.51209 0.78148 0.0
C694 C 0.21697 0.52866 0.79306 0.0
H695 H 0.25145 0.47243 0.77137 0.0
H696 H 0.25684 0.52037 0.7762 0.0
S697 S 0.14913 0.50733 0.81277 0.0
N698 N 0.16492 0.47936 0.80344 0.0
N699 N 0.17088 0.53132 0.80872 0.0
C700 C 0.19247 0.51698 0.79927 0.0
C701 C 0.18923 0.4888 0.79631 0.0
C702 C 0.48885 0.2415 0.75005 0.0
C703 C 0.47396 0.25812 0.77566 0.0
C704 C 0.51602 0.24126 0.75234 0.0
C705 C 0.52939 0.25761 0.78037 0.0
H706 H 0.47948 0.22778 0.7291 0.0
H707 H 0.5265 0.22736 0.73307 0.0
S708 S 0.49973 0.30765 0.85002 0.0
N709 N 0.47481 0.29348 0.82684 0.0
N710 N 0.52579 0.29297 0.83117 0.0
C711 C 0.51483 0.27548 0.80442 0.0
C712 C 0.48716 0.27576 0.80205 0.0
C713 C 0.79024 0.47587 0.81593 0.0
C714 C 0.76925 0.46199 0.79842 0.0
C715 C 0.79169 0.50367 0.81429 0.0
C716 C 0.77209 0.51888 0.79541 0.0
H717 H 0.80561 0.46522 0.83163 0.0
H718 H 0.80802 0.51329 0.82911 0.0
S719 S 0.71375 0.49221 0.74249 0.0
N720 N 0.72902 0.46549 0.75959 0.0
N721 N 0.73166 0.51788 0.75676 0.0
C722 C 0.75138 0.50526 0.77653 0.0
C723 C 0.74999 0.47681 0.77796 0.0
C724 C 0.48404 0.21021 0.17355 0.0
C725 C 0.46943 0.23373 0.17787 0.0
C726 C 0.51114 0.21054 0.1761 0.0
C727 C 0.52482 0.23438 0.18317 0.0
H728 H 0.4746 0.1914 0.16699 0.0
H729 H 0.52141 0.19194 0.17142 0.0
S730 S 0.49561 0.30109 0.20097 0.0
N731 N 0.47055 0.28129 0.19273 0.0
N732 N 0.52154 0.28189 0.19756 0.0
C733 C 0.51042 0.25789 0.18947 0.0
C734 C 0.48274 0.25757 0.18679 0.0
C735 C 0.75725 0.51594 0.211 0.0
C736 C 0.7764 0.53188 0.19251 0.0
C737 C 0.75981 0.48816 0.21272 0.0
C738 C 0.78169 0.4752 0.19626 0.0
H739 H 0.73976 0.52485 0.22328 0.0
H740 H 0.74418 0.47675 0.22631 0.0
S741 S 0.83849 0.50808 0.14769 0.0
N742 N 0.81881 0.53283 0.15972 0.0
N743 N 0.82367 0.48071 0.16305 0.0
C744 C 0.8015 0.49101 0.17917 0.0
C745 C 0.79883 0.5193 0.17723 0.0
C746 C 0.4907 0.72861 0.18713 0.0
C747 C 0.47909 0.74372 0.21852 0.0
C748 C 0.51767 0.72659 0.18371 0.0
C749 C 0.53431 0.73958 0.21153 0.0
H750 H 0.47892 0.71885 0.16406 0.0
H751 H 0.52546 0.71535 0.15817 0.0
S752 S 0.51384 0.77915 0.30219 0.0
N753 N 0.48636 0.77005 0.2802 0.0
N754 N 0.53716 0.76624 0.27376 0.0
C755 C 0.52302 0.75354 0.24448 0.0
C756 C 0.49542 0.75561 0.24797 0.0
C757 C 0.23057 0.47423 0.24198 0.0
C758 C 0.23642 0.46251 0.20392 0.0
C759 C 0.23067 0.50203 0.24691 0.0
C760 C 0.2371 0.51903 0.21416 0.0
H761 H 0.22506 0.46191 0.26781 0.0
H762 H 0.22536 0.51023 0.27646 0.0
S763 S 0.25582 0.49788 0.10895 0.0
N764 N 0.25005 0.46977 0.13353 0.0
N765 N 0.25064 0.52182 0.14267 0.0
C766 C 0.24394 0.50739 0.17631 0.0
C767 C 0.24347 0.47919 0.17122 0.0
C768 C 0.11615 0.26049 0.46192 0.0
C769 C 0.09022 0.258 0.44876 0.0
C770 C 0.12281 0.25812 0.50343 0.0
C771 C 0.10382 0.25332 0.53352 0.0
H772 H 0.13162 0.26326 0.43986 0.0
H773 H 0.14315 0.25929 0.51173 0.0
S774 S 0.03267 0.24863 0.51559 0.0
N775 N 0.04518 0.2529 0.46952 0.0
N776 N 0.05757 0.24861 0.54746 0.0
C777 C 0.07763 0.25228 0.521 0.0
C778 C 0.07088 0.25456 0.47868 0.0
C779 C 0.74517 0.06919 0.54277 0.0
C780 C 0.73396 0.08937 0.56689 0.0
C781 C 0.74186 0.06864 0.50021 0.0
C782 C 0.72739 0.0884 0.4798 0.0
H783 H 0.75661 0.05352 0.55679 0.0
H784 H 0.75108 0.05269 0.4832 0.0
S785 S 0.6937 0.14558 0.52879 0.0
N786 N 0.70745 0.12954 0.5673 0.0
N787 N 0.7014 0.12864 0.48712 0.0
C788 C 0.71592 0.10869 0.50351 0.0
C789 C 0.71914 0.10912 0.54706 0.0
C790 C 0.85119 0.75904 0.47242 0.0
C791 C 0.87375 0.75031 0.45218 0.0
C792 C 0.84959 0.75915 0.51526 0.0
C793 C 0.87045 0.75045 0.53975 0.0
H794 H 0.83476 0.76649 0.45513 0.0
H795 H 0.83196 0.76665 0.52919 0.0
S796 S 0.93318 0.72345 0.50184 0.0
N797 N 0.91691 0.73115 0.45988 0.0
N798 N 0.91391 0.73132 0.54039 0.0
C799 C 0.89283 0.74074 0.51991 0.0
C800 C 0.89448 0.7407 0.47619 0.0
C801 C 0.27341 0.88903 0.53543 0.0
C802 C 0.26197 0.91048 0.55653 0.0
C803 C 0.27628 0.88952 0.49266 0.0
C804 C 0.26797 0.91156 0.46932 0.0
H805 H 0.27969 0.87143 0.55192 0.0
H806 H 0.28473 0.87227 0.4778 0.0
S807 S 0.23899 0.97396 0.51049 0.0
N808 N 0.24379 0.95511 0.55124 0.0
N809 N 0.24926 0.95616 0.47116 0.0
C810 C 0.25726 0.93352 0.49029 0.0
C811 C 0.25423 0.93295 0.53378 0.0
C812 C 0.14943 0.74679 0.49487 0.0
C813 C 0.12797 0.74042 0.46999 0.0
C814 C 0.14729 0.74776 0.53766 0.0
C815 C 0.12357 0.74249 0.55739 0.0
H816 H 0.16795 0.75185 0.48125 0.0
H817 H 0.16423 0.75354 0.55524 0.0
S818 S 0.06218 0.72179 0.50675 0.0
N819 N 0.08269 0.7265 0.46861 0.0
N820 N 0.07867 0.72841 0.54895 0.0
C821 C 0.10223 0.73487 0.53306 0.0
C822 C 0.10443 0.7338 0.48943 0.0
C823 C 0.2548 0.06924 0.45305 0.0
C824 C 0.26296 0.09065 0.42843 0.0
C825 C 0.26008 0.06862 0.49511 0.0
C826 C 0.27357 0.0895 0.51455 0.0
H827 H 0.24405 0.05277 0.43986 0.0
H828 H 0.253 0.05177 0.51258 0.0
S829 S 0.30014 0.1498 0.46368 0.0
N830 N 0.28604 0.13295 0.42631 0.0
N831 N 0.29582 0.13189 0.50556 0.0
C832 C 0.28233 0.11085 0.49021 0.0
C833 C 0.27709 0.11139 0.44714 0.0
C834 C 0.89053 0.25127 0.49954 0.0
C835 C 0.86629 0.25194 0.4796 0.0
C836 C 0.89234 0.25129 0.54237 0.0
C837 C 0.87002 0.25217 0.56717 0.0
H838 H 0.90833 0.24987 0.48202 0.0
H839 H 0.91148 0.25009 0.55606 0.0
S840 S 0.80191 0.25676 0.53019 0.0
N841 N 0.81948 0.25538 0.48795 0.0
N842 N 0.82287 0.25556 0.56845 0.0
C843 C 0.84567 0.25404 0.54766 0.0
C844 C 0.84382 0.25388 0.50393 0.0
C845 C 0.72546 0.86392 0.50908 0.0
C846 C 0.70802 0.88382 0.52209 0.0
C847 C 0.73149 0.86045 0.46757 0.0
C848 C 0.72036 0.87672 0.43715 0.0
H849 H 0.73494 0.85106 0.53118 0.0
H850 H 0.74536 0.8451 0.45947 0.0
S851 S 0.67244 0.93096 0.45451 0.0
N852 N 0.67886 0.91943 0.5008 0.0
N853 N 0.69018 0.91293 0.42281 0.0
C854 C 0.70236 0.8963 0.44953 0.0
C855 C 0.6962 0.89984 0.49192 0.0
C856 C 0.60164 0.75087 0.0056 0.0
C857 C 0.62596 0.75139 0.02528 0.0
C858 C 0.59961 0.75145 0.96283 0.0
C859 C 0.6218 0.75265 0.93778 0.0
H860 H 0.58391 0.74919 0.02324 0.0
H861 H 0.58041 0.75026 0.94938 0.0
S862 S 0.69005 0.75735 0.97404 0.0
N863 N 0.67271 0.75531 0.01644 0.0
N864 N 0.66891 0.75645 0.936 0.0
C865 C 0.64623 0.75448 0.95703 0.0
C866 C 0.6483 0.75383 0.00074 0.0
C867 C 0.215 0.6076 0.99493 0.0
C868 C 0.22659 0.588 0.97005 0.0
C869 C 0.22056 0.60922 0.03699 0.0
C870 C 0.23829 0.59162 0.05558 0.0
H871 H 0.20146 0.62177 0.98187 0.0
H872 H 0.21116 0.62463 0.05492 0.0
S873 S 0.27393 0.53665 0.00401 0.0
N874 N 0.25649 0.55045 0.96727 0.0
N875 N 0.2672 0.55376 0.04588 0.0
C876 C 0.25001 0.57193 0.03103 0.0
C877 C 0.24407 0.57003 0.98841 0.0
C878 C 0.38894 0.24074 0.00548 0.0
C879 C 0.36641 0.24753 0.02753 0.0
C880 C 0.38942 0.24144 0.96258 0.0
C881 C 0.36738 0.24891 0.93976 0.0
H882 H 0.40663 0.23535 0.02144 0.0
H883 H 0.40744 0.23651 0.94727 0.0
S884 S 0.3029 0.26703 0.98246 0.0
N885 N 0.32102 0.2608 0.02309 0.0
N886 N 0.32193 0.26211 0.9425 0.0
C887 C 0.34442 0.2549 0.9613 0.0
C888 C 0.34394 0.25422 0.00511 0.0
C889 C 0.76315 0.36384 0.029 0.0
C890 C 0.7749 0.3799 0.05911 0.0
C891 C 0.76893 0.36704 0.98736 0.0
C892 C 0.78673 0.38645 0.97391 0.0
H893 H 0.749 0.34886 0.03747 0.0
H894 H 0.759 0.35434 0.96553 0.0
S895 S 0.82379 0.433 0.04049 0.0
N896 N 0.80595 0.41547 0.07263 0.0
N897 N 0.81679 0.42146 0.9944 0.0
C898 C 0.79914 0.40227 0.00374 0.0
C899 C 0.79324 0.399 0.04627 0.0
C900 C 0.65015 0.25239 0.024 0.0
C901 C 0.62799 0.24483 0.04634 0.0
C902 C 0.65017 0.25234 0.98104 0.0
C903 C 0.628 0.24479 0.95861 0.0
H904 H 0.66749 0.25912 0.03969 0.0
H905 H 0.6675 0.25907 0.96541 0.0
S906 S 0.56584 0.22041 0.00226 0.0
N907 N 0.58391 0.22746 0.04264 0.0
N908 N 0.58394 0.22745 0.962 0.0
C909 C 0.60607 0.23606 0.98051 0.0
C910 C 0.60606 0.23605 0.0243 0.0
C911 C 0.77924 0.587 0.99279 0.0
C912 C 0.77848 0.60813 0.02113 0.0
C913 C 0.77516 0.59134 0.95091 0.0
C914 C 0.77001 0.617 0.93542 0.0
H915 H 0.78268 0.56676 0.00299 0.0
H916 H 0.77561 0.57422 0.93067 0.0
S917 S 0.76717 0.67949 0.99638 0.0
N918 N 0.77317 0.65599 0.03049 0.0
N919 N 0.76544 0.66413 0.9517 0.0
C920 C 0.76983 0.63848 0.96322 0.0
C921 C 0.77409 0.63406 0.00603 0.0
C922 C 0.34658 0.75411 0.99148 0.0
C923 C 0.36854 0.75584 0.96597 0.0
C924 C 0.34874 0.75633 0.03417 0.0
C925 C 0.37296 0.76034 0.05321 0.0
H926 H 0.32758 0.75018 0.97858 0.0
H927 H 0.33132 0.75399 0.05238 0.0
S928 S 0.43607 0.76955 0.0001 0.0
N929 N 0.41505 0.76422 0.96278 0.0
N930 N 0.4191 0.76835 0.04293 0.0
C931 C 0.39492 0.76346 0.02798 0.0
C932 C 0.39271 0.76122 0.98444 0.0
C933 C 0.23332 0.36437 0.96379 0.0
C934 C 0.22124 0.38083 0.93453 0.0
C935 C 0.22975 0.3685 0.00586 0.0
C936 C 0.21395 0.3893 0.02064 0.0
H937 H 0.24598 0.34828 0.95425 0.0
H938 H 0.2398 0.35537 0.02693 0.0
S939 S 0.1771 0.43763 0.95684 0.0
N940 N 0.19215 0.41843 0.92335 0.0
N941 N 0.18547 0.42619 0.0024 0.0
C942 C 0.20129 0.40564 0.99174 0.0
C943 C 0.20492 0.40141 0.94877 0.0
C944 C 0.14871 0.37124 0.26165 0.0
C945 C 0.15682 0.36446 0.22183 0.0
C946 C 0.13304 0.35397 0.28459 0.0
C947 C 0.12478 0.32935 0.26846 0.0
H948 H 0.15556 0.38939 0.27607 0.0
H949 H 0.1283 0.35954 0.31578 0.0
S950 S 0.13714 0.30448 0.16291 0.0
N951 N 0.15293 0.33305 0.16538 0.0
N952 N 0.12334 0.30068 0.20815 0.0
C953 C 0.13124 0.32327 0.22754 0.0
C954 C 0.1473 0.34079 0.20433 0.0
C955 C 0.6531 0.15937 0.19948 0.0
C956 C 0.64131 0.18176 0.21755 0.0
C957 C 0.66793 0.14156 0.22278 0.0
C958 C 0.67147 0.14527 0.26519 0.0
H959 H 0.65143 0.15582 0.16683 0.0
H960 H 0.67701 0.12495 0.20714 0.0
S961 S 0.64313 0.19974 0.32803 0.0
N962 N 0.63303 0.20594 0.28097 0.0
N963 N 0.66084 0.1724 0.32476 0.0
C964 C 0.65905 0.16708 0.28399 0.0
C965 C 0.64402 0.18533 0.26018 0.0
C966 C 0.84059 0.66998 0.22597 0.0
C967 C 0.82947 0.64727 0.24415 0.0
C968 C 0.85601 0.68756 0.2487 0.0
C969 C 0.86111 0.68313 0.29055 0.0
H970 H 0.8369 0.67465 0.19408 0.0
H971 H 0.86366 0.70499 0.23332 0.0
S972 S 0.83816 0.62553 0.35213 0.0
N973 N 0.82576 0.62052 0.3061 0.0
N974 N 0.8548 0.65354 0.34883 0.0
C975 C 0.85084 0.66002 0.30886 0.0
C976 C 0.835 0.64213 0.28568 0.0
C977 C 0.36166 0.84751 0.20243 0.0
C978 C 0.37267 0.82501 0.22139 0.0
C979 C 0.34499 0.86457 0.22391 0.0
C980 C 0.33871 0.85992 0.2653 0.0
H981 H 0.36497 0.8514 0.1702 0.0
H982 H 0.33628 0.88102 0.20737 0.0
S983 S 0.36549 0.80594 0.33081 0.0
N984 N 0.37837 0.8006 0.28525 0.0
N985 N 0.34708 0.83266 0.32563 0.0
C986 C 0.35093 0.83847 0.2854 0.0
C987 C 0.36788 0.82104 0.26345 0.0
C988 C 0.14626 0.63999 0.72894 0.0
C989 C 0.15555 0.64512 0.76879 0.0
C990 C 0.13061 0.65843 0.70826 0.0
C991 C 0.12374 0.68284 0.72648 0.0
H992 H 0.15161 0.62185 0.71304 0.0
H993 H 0.12463 0.65386 0.67719 0.0
S994 S 0.14062 0.70487 0.83189 0.0
N995 N 0.15494 0.67561 0.82693 0.0
N996 N 0.12561 0.71027 0.78796 0.0
C997 C 0.13188 0.68775 0.76699 0.0
C998 C 0.14774 0.6689 0.78817 0.0
C999 C 0.3403 0.14227 0.76733 0.0
C1000 C 0.33556 0.14596 0.72519 0.0
C1001 C 0.35527 0.16044 0.7898 0.0
C1002 C 0.366 0.18315 0.77112 0.0
H1003 H 0.33186 0.12555 0.78353 0.0
H1004 H 0.35764 0.15707 0.82238 0.0
S1005 S 0.3618 0.20067 0.6607 0.0
N1006 N 0.34463 0.17304 0.66496 0.0
N1007 N 0.37268 0.20721 0.70723 0.0
C1008 C 0.36244 0.18648 0.72862 0.0
C1009 C 0.34727 0.16789 0.70565 0.0
C1010 C 0.86578 0.33845 0.70684 0.0
C1011 C 0.87645 0.31655 0.72785 0.0
C1012 C 0.8495 0.35666 0.72685 0.0
C1013 C 0.84333 0.3537 0.76864 0.0
H1014 H 0.86884 0.34081 0.6742 0.0
H1015 H 0.84077 0.37243 0.70884 0.0
S1016 S 0.87014 0.30244 0.8391 0.0
N1017 N 0.88249 0.29491 0.7939 0.0
N1018 N 0.85201 0.32912 0.83155 0.0
C1019 C 0.85551 0.33306 0.79069 0.0
C1020 C 0.87204 0.3145 0.77029 0.0
C1021 C 0.64632 0.82616 0.71373 0.0
C1022 C 0.65232 0.85122 0.73065 0.0
C1023 C 0.63047 0.80805 0.73453 0.0
C1024 C 0.61976 0.81426 0.77305 0.0
H1025 H 0.65469 0.81997 0.6848 0.0
H1026 H 0.62718 0.78872 0.72065 0.0
S1027 S 0.62695 0.87848 0.82862 0.0
N1028 N 0.64446 0.88225 0.78668 0.0
N1029 N 0.61454 0.8482 0.82577 0.0
C1030 C 0.62438 0.83982 0.78934 0.0
C1031 C 0.64069 0.85828 0.76817 0.0
C1032 C 0.82315 0.6717 0.69611 0.0
C1033 C 0.84463 0.68601 0.71111 0.0
C1034 C 0.81018 0.65306 0.72054 0.0
C1035 C 0.81819 0.64779 0.76102 0.0
H1036 H 0.8158 0.67531 0.66549 0.0
H1037 H 0.79342 0.64306 0.70765 0.0
S1038 S 0.87466 0.67841 0.81405 0.0
N1039 N 0.8743 0.69256 0.76839 0.0
N1040 N 0.84996 0.65746 0.81431 0.0
C1041 C 0.84023 0.66125 0.776 0.0
C1042 C 0.85342 0.68037 0.75109 0.0
C1043 C 0.33105 0.79094 0.75449 0.0
C1044 C 0.3455 0.80277 0.78635 0.0
C1045 C 0.31424 0.80598 0.72998 0.0
C1046 C 0.31109 0.83354 0.73616 0.0
H1047 H 0.33246 0.76975 0.74854 0.0
H1048 H 0.30343 0.79575 0.70621 0.0
S1049 S 0.34511 0.87452 0.8145 0.0
N1050 N 0.35605 0.84399 0.82205 0.0
N1051 N 0.32445 0.87229 0.77595 0.0
C1052 C 0.32573 0.84579 0.76747 0.0
C1053 C 0.3429 0.83042 0.79253 0.0
C1054 C 0.15431 0.28844 0.74245 0.0
C1055 C 0.14048 0.29892 0.70886 0.0
C1056 C 0.17142 0.30422 0.76531 0.0
C1057 C 0.17554 0.3312 0.75562 0.0
H1058 H 0.15213 0.26772 0.75114 0.0
H1059 H 0.18167 0.29498 0.79059 0.0
S1060 S 0.1436 0.36873 0.67132 0.0
N1061 N 0.13166 0.3383 0.66757 0.0
N1062 N 0.16384 0.36799 0.71055 0.0
C1063 C 0.16157 0.34214 0.72248 0.0
C1064 C 0.14405 0.32602 0.69915 0.0
C1065 C 0.654 0.16918 0.72119 0.0
C1066 C 0.66608 0.14645 0.73773 0.0
C1067 C 0.63948 0.18646 0.74586 0.0
C1068 C 0.63617 0.18158 0.78801 0.0
H1069 H 0.65655 0.17433 0.68921 0.0
H1070 H 0.63123 0.2041 0.73181 0.0
S1071 S 0.66163 0.12332 0.8456 0.0
N1072 N 0.67223 0.1189 0.79834 0.0
N1073 N 0.64473 0.15128 0.8447 0.0
C1074 C 0.64704 0.1582 0.80459 0.0
C1075 C 0.66205 0.14068 0.77948 0.0
C1076 C 0.82096 0.34392 0.27922 0.0
C1077 C 0.80702 0.33183 0.24704 0.0
C1078 C 0.83692 0.32891 0.30532 0.0
C1079 C 0.83972 0.30121 0.30021 0.0
H1080 H 0.81953 0.36519 0.2845 0.0
H1081 H 0.84724 0.33921 0.32955 0.0
S1082 S 0.80712 0.25969 0.22104 0.0
N1083 N 0.79691 0.29028 0.21184 0.0
N1084 N 0.82684 0.26217 0.26073 0.0
C1085 C 0.82586 0.28882 0.26819 0.0
C1086 C 0.80954 0.30409 0.24168 0.0
C1087 C 0.66043 0.79014 0.23606 0.0
C1088 C 0.64804 0.80164 0.20186 0.0
C1089 C 0.6775 0.80485 0.2606 0.0
C1090 C 0.68299 0.83175 0.25211 0.0
H1091 H 0.65713 0.76945 0.24394 0.0
H1092 H 0.68657 0.79487 0.28633 0.0
S1093 S 0.65519 0.87168 0.16677 0.0
N1094 N 0.64212 0.84186 0.1612 0.0
N1095 N 0.67422 0.86955 0.20737 0.0
C1096 C 0.67053 0.84368 0.21828 0.0
C1097 C 0.65308 0.82864 0.1932 0.0
C1098 C 0.14874 0.685 0.25099 0.0
C1099 C 0.14826 0.6795 0.29329 0.0
C1100 C 0.16222 0.6686 0.22359 0.0
C1101 C 0.17603 0.64612 0.23733 0.0
H1102 H 0.13892 0.70238 0.23881 0.0
H1103 H 0.16245 0.67419 0.19153 0.0
S1104 S 0.17948 0.62173 0.34467 0.0
N1105 N 0.16162 0.649 0.34736 0.0
N1106 N 0.18713 0.61824 0.29584 0.0
C1107 C 0.17502 0.63981 0.27937 0.0
C1108 C 0.16109 0.65646 0.30732 0.0
C1109 C 0.33619 0.16881 0.26506 0.0
C1110 C 0.31971 0.14898 0.24918 0.0
C1111 C 0.35086 0.18513 0.23915 0.0
C1112 C 0.34988 0.18215 0.19626 0.0
H1113 H 0.33724 0.17238 0.29777 0.0
H1114 H 0.36279 0.20049 0.25297 0.0
S1115 S 0.31131 0.13175 0.13923 0.0
N1116 N 0.30434 0.12623 0.18787 0.0
N1117 N 0.33206 0.15681 0.13914 0.0
C1118 C 0.33425 0.16171 0.17998 0.0
C1119 C 0.31912 0.14518 0.20642 0.0
loop_
_geom_bond_atom_site_label_1
_geom_bond_atom_site_label_2
_geom_bond_distance
_geom_bond_site_symmetry_2
_ccdc_geom_bond_type
C0 O1 1.160 . S
C0 O7 1.185 . S
O1 C0 1.160 . S
O2 Zn3 1.899 . S
O2 C10 1.284 . S
Zn3 O2 1.899 . S
Zn3 O4 2.032 . S
Zn3 O7 2.086 . S
Zn3 O12 1.977 . S
O4 Zn3 2.032 . S
O4 C8 1.278 . S
C5 O6 1.203 . S
C5 O12 1.267 . S
O6 C5 1.203 . S
O7 C0 1.185 . S
O7 Zn3 2.086 . S
C8 O4 1.278 . S
C8 O9 1.211 . S
O9 C8 1.211 . S
C10 O2 1.284 . S
C10 O11 1.273 . S
O11 C10 1.273 . S
O12 Zn3 1.977 . S
O12 C5 1.267 . S
C13 O14 1.160 . S
C13 O20 1.185 . S
O14 C13 1.160 . S
O15 Zn16 1.899 . S
O15 C23 1.284 . S
Zn16 O15 1.899 . S
Zn16 O17 2.032 . S
Zn16 O20 2.086 . S
Zn16 O25 1.977 . S
O17 Zn16 2.032 . S
O17 C21 1.278 . S
C18 O19 1.203 . S
C18 O25 1.267 . S
O19 C18 1.203 . S
O20 C13 1.185 . S
O20 Zn16 2.086 . S
C21 O17 1.278 . S
C21 O22 1.211 . S
O22 C21 1.211 . S
C23 O15 1.284 . S
C23 O24 1.273 . S
O24 C23 1.273 . S
O25 Zn16 1.977 . S
O25 C18 1.267 . S
C26 O27 1.160 . S
C26 O33 1.185 . S
O27 C26 1.160 . S
O28 Zn29 1.899 . S
O28 C36 1.284 . S
Zn29 O28 1.899 . S
Zn29 O30 2.032 . S
Zn29 O33 2.086 . S
Zn29 O38 1.977 . S
O30 Zn29 2.032 . S
O30 C34 1.278 . S
C31 O32 1.203 . S
C31 O38 1.267 . S
O32 C31 1.203 . S
O33 C26 1.185 . S
O33 Zn29 2.086 . S
C34 O30 1.278 . S
C34 O35 1.211 . S
O35 C34 1.211 . S
C36 O28 1.284 . S
C36 O37 1.273 . S
O37 C36 1.273 . S
O38 Zn29 1.977 . S
O38 C31 1.267 . S
C39 O40 1.160 . S
C39 O46 1.185 . S
O40 C39 1.160 . S
O41 Zn42 1.899 . S
O41 C49 1.284 . S
Zn42 O41 1.899 . S
Zn42 O43 2.032 . S
Zn42 O46 2.086 . S
Zn42 O51 1.977 . S
O43 Zn42 2.032 . S
O43 C47 1.278 . S
C44 O45 1.203 . S
C44 O51 1.267 . S
O45 C44 1.203 . S
O46 C39 1.185 . S
O46 Zn42 2.086 . S
C47 O43 1.278 . S
C47 O48 1.211 . S
O48 C47 1.211 . S
C49 O41 1.284 . S
C49 O50 1.273 . S
O50 C49 1.273 . S
O51 Zn42 1.977 . S
O51 C44 1.267 . S
C52 O53 1.160 . S
C52 O59 1.185 . S
O53 C52 1.160 . S
O54 Zn55 1.899 . S
O54 C62 1.284 . S
Zn55 O54 1.899 . S
Zn55 O56 2.032 . S
Zn55 O59 2.086 . S
Zn55 O64 1.977 . S
O56 Zn55 2.032 . S
O56 C60 1.278 . S
C57 O58 1.203 . S
C57 O64 1.267 . S
O58 C57 1.203 . S
O59 C52 1.185 . S
O59 Zn55 2.086 . S
C60 O56 1.278 . S
C60 O61 1.211 . S
O61 C60 1.211 . S
C62 O54 1.284 . S
C62 O63 1.273 . S
O63 C62 1.273 . S
O64 Zn55 1.977 . S
O64 C57 1.267 . S
C65 O66 1.160 . S
C65 O72 1.185 . S
O66 C65 1.160 . S
O67 Zn68 1.899 . S
O67 C75 1.284 . S
Zn68 O67 1.899 . S
Zn68 O69 2.032 . S
Zn68 O72 2.086 . S
Zn68 O77 1.977 . S
O69 Zn68 2.032 . S
O69 C73 1.278 . S
C70 O71 1.203 . S
C70 O77 1.267 . S
O71 C70 1.203 . S
O72 C65 1.185 . S
O72 Zn68 2.086 . S
C73 O69 1.278 . S
C73 O74 1.211 . S
O74 C73 1.211 . S
C75 O67 1.284 . S
C75 O76 1.273 . S
O76 C75 1.273 . S
O77 Zn68 1.977 . S
O77 C70 1.267 . S
C78 O79 1.160 . S
C78 O85 1.185 . S
O79 C78 1.160 . S
O80 Zn81 1.899 . S
O80 C88 1.284 . S
Zn81 O80 1.899 . S
Zn81 O82 2.032 . S
Zn81 O85 2.086 . S
Zn81 O90 1.977 . S
O82 Zn81 2.032 . S
O82 C86 1.278 . S
C83 O84 1.203 . S
C83 O90 1.267 . S
O84 C83 1.203 . S
O85 C78 1.185 . S
O85 Zn81 2.086 . S
C86 O82 1.278 . S
C86 O87 1.211 . S
O87 C86 1.211 . S
C88 O80 1.284 . S
C88 O89 1.273 . S
O89 C88 1.273 . S
O90 Zn81 1.977 . S
O90 C83 1.267 . S
C91 O92 1.160 . S
C91 O98 1.185 . S
O92 C91 1.160 . S
O93 Zn94 1.899 . S
O93 C101 1.284 . S
Zn94 O93 1.899 . S
Zn94 O95 2.032 . S
Zn94 O98 2.086 . S
Zn94 O103 1.977 . S
O95 Zn94 2.032 . S
O95 C99 1.278 . S
C96 O97 1.203 . S
C96 O103 1.267 . S
O97 C96 1.203 . S
O98 C91 1.185 . S
O98 Zn94 2.086 . S
C99 O95 1.278 . S
C99 O100 1.211 . S
O100 C99 1.211 . S
C101 O93 1.284 . S
C101 O102 1.273 . S
O102 C101 1.273 . S
O103 Zn94 1.977 . S
O103 C96 1.267 . S
C104 O105 1.160 . S
C104 O111 1.185 . S
O105 C104 1.160 . S
O106 Zn107 1.899 . S
O106 C114 1.284 . S
Zn107 O106 1.899 . S
Zn107 O108 2.032 . S
Zn107 O111 2.086 . S
Zn107 O116 1.977 . S
O108 Zn107 2.032 . S
O108 C112 1.278 . S
C109 O110 1.203 . S
C109 O116 1.267 . S
O110 C109 1.203 . S
O111 C104 1.185 . S
O111 Zn107 2.086 . S
C112 O108 1.278 . S
C112 O113 1.211 . S
O113 C112 1.211 . S
C114 O106 1.284 . S
C114 O115 1.273 . S
O115 C114 1.273 . S
O116 Zn107 1.977 . S
O116 C109 1.267 . S
C117 O118 1.160 . S
C117 O124 1.185 . S
O118 C117 1.160 . S
O119 Zn120 1.899 . S
O119 C127 1.284 . S
Zn120 O119 1.899 . S
Zn120 O121 2.032 . S
Zn120 O124 2.086 . S
Zn120 O129 1.977 . S
O121 Zn120 2.032 . S
O121 C125 1.278 . S
C122 O123 1.203 . S
C122 O129 1.267 . S
O123 C122 1.203 . S
O124 C117 1.185 . S
O124 Zn120 2.086 . S
C125 O121 1.278 . S
C125 O126 1.211 . S
O126 C125 1.211 . S
C127 O119 1.284 . S
C127 O128 1.273 . S
O128 C127 1.273 . S
O129 Zn120 1.977 . S
O129 C122 1.267 . S
C130 O131 1.160 . S
C130 O137 1.185 . S
O131 C130 1.160 . S
O132 Zn133 1.899 . S
O132 C140 1.284 . S
Zn133 O132 1.899 . S
Zn133 O134 2.032 . S
Zn133 O137 2.086 . S
Zn133 O142 1.977 . S
O134 Zn133 2.032 . S
O134 C138 1.278 . S
C135 O136 1.203 . S
C135 O142 1.267 . S
O136 C135 1.203 . S
O137 C130 1.185 . S
O137 Zn133 2.086 . S
C138 O134 1.278 . S
C138 O139 1.211 . S
O139 C138 1.211 . S
C140 O132 1.284 . S
C140 O141 1.273 . S
O141 C140 1.273 . S
O142 Zn133 1.977 . S
O142 C135 1.267 . S
C143 O144 1.160 . S
C143 O150 1.185 . S
O144 C143 1.160 . S
O145 Zn146 1.899 . S
O145 C153 1.284 . S
Zn146 O145 1.899 . S
Zn146 O147 2.032 . S
Zn146 O150 2.086 . S
Zn146 O155 1.977 . S
O147 Zn146 2.032 . S
O147 C151 1.278 . S
C148 O149 1.203 . S
C148 O155 1.267 . S
O149 C148 1.203 . S
O150 C143 1.185 . S
O150 Zn146 2.086 . S
C151 O147 1.278 . S
C151 O152 1.211 . S
O152 C151 1.211 . S
C153 O145 1.284 . S
C153 O154 1.273 . S
O154 C153 1.273 . S
O155 Zn146 1.977 . S
O155 C148 1.267 . S
C156 O157 1.160 . S
C156 O163 1.185 . S
O157 C156 1.160 . S
O158 Zn159 1.899 . S
O158 C166 1.284 . S
Zn159 O158 1.899 . S
Zn159 O160 2.032 . S
Zn159 O163 2.086 . S
Zn159 O168 1.977 . S
O160 Zn159 2.032 . S
O160 C164 1.278 . S
C161 O162 1.203 . S
C161 O168 1.267 . S
O162 C161 1.203 . S
O163 C156 1.185 . S
O163 Zn159 2.086 . S
C164 O160 1.278 . S
C164 O165 1.211 . S
O165 C164 1.211 . S
C166 O158 1.284 . S
C166 O167 1.273 . S
O167 C166 1.273 . S
O168 Zn159 1.977 . S
O168 C161 1.267 . S
C169 O170 1.160 . S
C169 O176 1.185 . S
O170 C169 1.160 . S
O171 Zn172 1.899 . S
O171 C179 1.284 . S
Zn172 O171 1.899 . S
Zn172 O173 2.032 . S
Zn172 O176 2.086 . S
Zn172 O181 1.977 . S
O173 Zn172 2.032 . S
O173 C177 1.278 . S
C174 O175 1.203 . S
C174 O181 1.267 . S
O175 C174 1.203 . S
O176 C169 1.185 . S
O176 Zn172 2.086 . S
C177 O173 1.278 . S
C177 O178 1.211 . S
O178 C177 1.211 . S
C179 O171 1.284 . S
C179 O180 1.273 . S
O180 C179 1.273 . S
O181 Zn172 1.977 . S
O181 C174 1.267 . S
C182 O183 1.160 . S
C182 O189 1.185 . S
O183 C182 1.160 . S
O184 Zn185 1.899 . S
O184 C192 1.284 . S
Zn185 O184 1.899 . S
Zn185 O186 2.032 . S
Zn185 O189 2.086 . S
Zn185 O194 1.977 . S
O186 Zn185 2.032 . S
O186 C190 1.278 . S
C187 O188 1.203 . S
C187 O194 1.267 . S
O188 C187 1.203 . S
O189 C182 1.185 . S
O189 Zn185 2.086 . S
C190 O186 1.278 . S
C190 O191 1.211 . S
O191 C190 1.211 . S
C192 O184 1.284 . S
C192 O193 1.273 . S
O193 C192 1.273 . S
O194 Zn185 1.977 . S
O194 C187 1.267 . S
C195 O196 1.160 . S
C195 O202 1.185 . S
O196 C195 1.160 . S
O197 Zn198 1.899 . S
O197 C205 1.284 . S
Zn198 O197 1.899 . S
Zn198 O199 2.032 . S
Zn198 O202 2.086 . S
Zn198 O207 1.977 . S
O199 Zn198 2.032 . S
O199 C203 1.278 . S
C200 O201 1.203 . S
C200 O207 1.267 . S
O201 C200 1.203 . S
O202 C195 1.185 . S
O202 Zn198 2.086 . S
C203 O199 1.278 . S
C203 O204 1.211 . S
O204 C203 1.211 . S
C205 O197 1.284 . S
C205 O206 1.273 . S
O206 C205 1.273 . S
O207 Zn198 1.977 . S
O207 C200 1.267 . S
C208 O209 1.160 . S
C208 O215 1.185 . S
O209 C208 1.160 . S
O210 Zn211 1.899 . S
O210 C218 1.284 . S
Zn211 O210 1.899 . S
Zn211 O212 2.032 . S
Zn211 O215 2.086 . S
Zn211 O220 1.977 . S
O212 Zn211 2.032 . S
O212 C216 1.278 . S
C213 O214 1.203 . S
C213 O220 1.267 . S
O214 C213 1.203 . S
O215 C208 1.185 . S
O215 Zn211 2.086 . S
C216 O212 1.278 . S
C216 O217 1.211 . S
O217 C216 1.211 . S
C218 O210 1.284 . S
C218 O219 1.273 . S
O219 C218 1.273 . S
O220 Zn211 1.977 . S
O220 C213 1.267 . S
C221 O222 1.160 . S
C221 O228 1.185 . S
O222 C221 1.160 . S
O223 Zn224 1.899 . S
O223 C231 1.284 . S
Zn224 O223 1.899 . S
Zn224 O225 2.032 . S
Zn224 O228 2.086 . S
Zn224 O233 1.977 . S
O225 Zn224 2.032 . S
O225 C229 1.278 . S
C226 O227 1.203 . S
C226 O233 1.267 . S
O227 C226 1.203 . S
O228 C221 1.185 . S
O228 Zn224 2.086 . S
C229 O225 1.278 . S
C229 O230 1.211 . S
O230 C229 1.211 . S
C231 O223 1.284 . S
C231 O232 1.273 . S
O232 C231 1.273 . S
O233 Zn224 1.977 . S
O233 C226 1.267 . S
C234 O235 1.160 . S
C234 O241 1.185 . S
O235 C234 1.160 . S
O236 Zn237 1.899 . S
O236 C244 1.284 . S
Zn237 O236 1.899 . S
Zn237 O238 2.032 . S
Zn237 O241 2.086 . S
Zn237 O246 1.977 . S
O238 Zn237 2.032 . S
O238 C242 1.278 . S
C239 O240 1.203 . S
C239 O246 1.267 . S
O240 C239 1.203 . S
O241 C234 1.185 . S
O241 Zn237 2.086 . S
C242 O238 1.278 . S
C242 O243 1.211 . S
O243 C242 1.211 . S
C244 O236 1.284 . S
C244 O245 1.273 . S
O245 C244 1.273 . S
O246 Zn237 1.977 . S
O246 C239 1.267 . S
C247 O248 1.160 . S
C247 O254 1.185 . S
O248 C247 1.160 . S
O249 Zn250 1.899 . S
O249 C257 1.284 . S
Zn250 O249 1.899 . S
Zn250 O251 2.032 . S
Zn250 O254 2.086 . S
Zn250 O259 1.977 . S
O251 Zn250 2.032 . S
O251 C255 1.278 . S
C252 O253 1.203 . S
C252 O259 1.267 . S
O253 C252 1.203 . S
O254 C247 1.185 . S
O254 Zn250 2.086 . S
C255 O251 1.278 . S
C255 O256 1.211 . S
O256 C255 1.211 . S
C257 O249 1.284 . S
C257 O258 1.273 . S
O258 C257 1.273 . S
O259 Zn250 1.977 . S
O259 C252 1.267 . S
C260 O261 1.160 . S
C260 O267 1.185 . S
O261 C260 1.160 . S
O262 Zn263 1.899 . S
O262 C270 1.284 . S
Zn263 O262 1.899 . S
Zn263 O264 2.032 . S
Zn263 O267 2.086 . S
Zn263 O272 1.977 . S
O264 Zn263 2.032 . S
O264 C268 1.278 . S
C265 O266 1.203 . S
C265 O272 1.267 . S
O266 C265 1.203 . S
O267 C260 1.185 . S
O267 Zn263 2.086 . S
C268 O264 1.278 . S
C268 O269 1.211 . S
O269 C268 1.211 . S
C270 O262 1.284 . S
C270 O271 1.273 . S
O271 C270 1.273 . S
O272 Zn263 1.977 . S
O272 C265 1.267 . S
C273 O274 1.160 . S
C273 O280 1.185 . S
O274 C273 1.160 . S
O275 Zn276 1.899 . S
O275 C283 1.284 . S
Zn276 O275 1.899 . S
Zn276 O277 2.032 . S
Zn276 O280 2.086 . S
Zn276 O285 1.977 . S
O277 Zn276 2.032 . S
O277 C281 1.278 . S
C278 O279 1.203 . S
C278 O285 1.267 . S
O279 C278 1.203 . S
O280 C273 1.185 . S
O280 Zn276 2.086 . S
C281 O277 1.278 . S
C281 O282 1.211 . S
O282 C281 1.211 . S
C283 O275 1.284 . S
C283 O284 1.273 . S
O284 C283 1.273 . S
O285 Zn276 1.977 . S
O285 C278 1.267 . S
C286 O287 1.160 . S
C286 O293 1.185 . S
O287 C286 1.160 . S
O288 Zn289 1.899 . S
O288 C296 1.284 . S
Zn289 O288 1.899 . S
Zn289 O290 2.032 . S
Zn289 O293 2.086 . S
Zn289 O298 1.977 . S
O290 Zn289 2.032 . S
O290 C294 1.278 . S
C291 O292 1.203 . S
C291 O298 1.267 . S
O292 C291 1.203 . S
O293 C286 1.185 . S
O293 Zn289 2.086 . S
C294 O290 1.278 . S
C294 O295 1.211 . S
O295 C294 1.211 . S
C296 O288 1.284 . S
C296 O297 1.273 . S
O297 C296 1.273 . S
O298 Zn289 1.977 . S
O298 C291 1.267 . S
C299 O300 1.160 . S
C299 O306 1.185 . S
O300 C299 1.160 . S
O301 Zn302 1.899 . S
O301 C309 1.284 . S
Zn302 O301 1.899 . S
Zn302 O303 2.032 . S
Zn302 O306 2.086 . S
Zn302 O311 1.977 . S
O303 Zn302 2.032 . S
O303 C307 1.278 . S
C304 O305 1.203 . S
C304 O311 1.267 . S
O305 C304 1.203 . S
O306 C299 1.185 . S
O306 Zn302 2.086 . S
C307 O303 1.278 . S
C307 O308 1.211 . S
O308 C307 1.211 . S
C309 O301 1.284 . S
C309 O310 1.273 . S
O310 C309 1.273 . S
O311 Zn302 1.977 . S
O311 C304 1.267 . S
C312 O313 1.160 . S
C312 O319 1.185 . S
O313 C312 1.160 . S
O314 Zn315 1.899 . S
O314 C322 1.284 . S
Zn315 O314 1.899 . S
Zn315 O316 2.032 . S
Zn315 O319 2.086 . S
Zn315 O324 1.977 . S
O316 Zn315 2.032 . S
O316 C320 1.278 . S
C317 O318 1.203 . S
C317 O324 1.267 . S
O318 C317 1.203 . S
O319 C312 1.185 . S
O319 Zn315 2.086 . S
C320 O316 1.278 . S
C320 O321 1.211 . S
O321 C320 1.211 . S
C322 O314 1.284 . S
C322 O323 1.273 . S
O323 C322 1.273 . S
O324 Zn315 1.977 . S
O324 C317 1.267 . S
C325 O326 1.160 . S
C325 O332 1.185 . S
O326 C325 1.160 . S
O327 Zn328 1.899 . S
O327 C335 1.284 . S
Zn328 O327 1.899 . S
Zn328 O329 2.032 . S
Zn328 O332 2.086 . S
Zn328 O337 1.977 . S
O329 Zn328 2.032 . S
O329 C333 1.278 . S
C330 O331 1.203 . S
C330 O337 1.267 . S
O331 C330 1.203 . S
O332 C325 1.185 . S
O332 Zn328 2.086 . S
C333 O329 1.278 . S
C333 O334 1.211 . S
O334 C333 1.211 . S
C335 O327 1.284 . S
C335 O336 1.273 . S
O336 C335 1.273 . S
O337 Zn328 1.977 . S
O337 C330 1.267 . S
C338 O339 1.160 . S
C338 O345 1.185 . S
O339 C338 1.160 . S
O340 Zn341 1.899 . S
O340 C348 1.284 . S
Zn341 O340 1.899 . S
Zn341 O342 2.032 . S
Zn341 O345 2.086 . S
Zn341 O350 1.977 . S
O342 Zn341 2.032 . S
O342 C346 1.278 . S
C343 O344 1.203 . S
C343 O350 1.267 . S
O344 C343 1.203 . S
O345 C338 1.185 . S
O345 Zn341 2.086 . S
C346 O342 1.278 . S
C346 O347 1.211 . S
O347 C346 1.211 . S
C348 O340 1.284 . S
C348 O349 1.273 . S
O349 C348 1.273 . S
O350 Zn341 1.977 . S
O350 C343 1.267 . S
C351 O352 1.160 . S
C351 O358 1.185 . S
O352 C351 1.160 . S
O353 Zn354 1.899 . S
O353 C361 1.284 . S
Zn354 O353 1.899 . S
Zn354 O355 2.032 . S
Zn354 O358 2.086 . S
Zn354 O363 1.977 . S
O355 Zn354 2.032 . S
O355 C359 1.278 . S
C356 O357 1.203 . S
C356 O363 1.267 . S
O357 C356 1.203 . S
O358 C351 1.185 . S
O358 Zn354 2.086 . S
C359 O355 1.278 . S
C359 O360 1.211 . S
O360 C359 1.211 . S
C361 O353 1.284 . S
C361 O362 1.273 . S
O362 C361 1.273 . S
O363 Zn354 1.977 . S
O363 C356 1.267 . S
C364 O365 1.160 . S
C364 O371 1.185 . S
O365 C364 1.160 . S
O366 Zn367 1.899 . S
O366 C374 1.284 . S
Zn367 O366 1.899 . S
Zn367 O368 2.032 . S
Zn367 O371 2.086 . S
Zn367 O376 1.977 . S
O368 Zn367 2.032 . S
O368 C372 1.278 . S
C369 O370 1.203 . S
C369 O376 1.267 . S
O370 C369 1.203 . S
O371 C364 1.185 . S
O371 Zn367 2.086 . S
C372 O368 1.278 . S
C372 O373 1.211 . S
O373 C372 1.211 . S
C374 O366 1.284 . S
C374 O375 1.273 . S
O375 C374 1.273 . S
O376 Zn367 1.977 . S
O376 C369 1.267 . S
C377 O378 1.160 . S
C377 O384 1.185 . S
O378 C377 1.160 . S
O379 Zn380 1.899 . S
O379 C387 1.284 . S
Zn380 O379 1.899 . S
Zn380 O381 2.032 . S
Zn380 O384 2.086 . S
Zn380 O389 1.977 . S
O381 Zn380 2.032 . S
O381 C385 1.278 . S
C382 O383 1.203 . S
C382 O389 1.267 . S
O383 C382 1.203 . S
O384 C377 1.185 . S
O384 Zn380 2.086 . S
C385 O381 1.278 . S
C385 O386 1.211 . S
O386 C385 1.211 . S
C387 O379 1.284 . S
C387 O388 1.273 . S
O388 C387 1.273 . S
O389 Zn380 1.977 . S
O389 C382 1.267 . S
C390 O391 1.160 . S
C390 O397 1.185 . S
O391 C390 1.160 . S
O392 Zn393 1.899 . S
O392 C400 1.284 . S
Zn393 O392 1.899 . S
Zn393 O394 2.032 . S
Zn393 O397 2.086 . S
Zn393 O402 1.977 . S
O394 Zn393 2.032 . S
O394 C398 1.278 . S
C395 O396 1.203 . S
C395 O402 1.267 . S
O396 C395 1.203 . S
O397 C390 1.185 . S
O397 Zn393 2.086 . S
C398 O394 1.278 . S
C398 O399 1.211 . S
O399 C398 1.211 . S
C400 O392 1.284 . S
C400 O401 1.273 . S
O401 C400 1.273 . S
O402 Zn393 1.977 . S
O402 C395 1.267 . S
C403 O404 1.160 . S
C403 O410 1.185 . S
O404 C403 1.160 . S
O405 Zn406 1.899 . S
O405 C413 1.284 . S
Zn406 O405 1.899 . S
Zn406 O407 2.032 . S
Zn406 O410 2.086 . S
Zn406 O415 1.977 . S
O407 Zn406 2.032 . S
O407 C411 1.278 . S
C408 O409 1.203 . S
C408 O415 1.267 . S
O409 C408 1.203 . S
O410 C403 1.185 . S
O410 Zn406 2.086 . S
C411 O407 1.278 . S
C411 O412 1.211 . S
O412 C411 1.211 . S
C413 O405 1.284 . S
C413 O414 1.273 . S
O414 C413 1.273 . S
O415 Zn406 1.977 . S
O415 C408 1.267 . S
C416 C417 1.369 . S
C416 C418 1.419 . S
C416 H420 0.930 . S
C417 C416 1.369 . S
C417 C426 1.429 . S
C418 C416 1.419 . S
C418 C419 1.363 . S
C418 H421 0.929 . S
C419 C418 1.363 . S
C419 C425 1.428 . S
H420 C416 0.930 . S
H421 C418 0.929 . S
S422 N423 1.613 . S
S422 N424 1.610 . S
N423 S422 1.613 . S
N423 C426 1.350 . S
N424 S422 1.610 . S
N424 C425 1.351 . S
C425 C419 1.428 . S
C425 N424 1.351 . S
C425 C426 1.434 . S
C426 C417 1.429 . S
C426 N423 1.350 . S
C426 C425 1.434 . S
C427 C428 1.369 . S
C427 C429 1.419 . S
C427 H431 0.930 . S
C428 C427 1.369 . S
C428 C437 1.429 . S
C429 C427 1.419 . S
C429 C430 1.363 . S
C429 H432 0.929 . S
C430 C429 1.363 . S
C430 C436 1.428 . S
H431 C427 0.930 . S
H432 C429 0.929 . S
S433 N434 1.613 . S
S433 N435 1.610 . S
N434 S433 1.613 . S
N434 C437 1.350 . S
N435 S433 1.610 . S
N435 C436 1.351 . S
C436 C430 1.428 . S
C436 N435 1.351 . S
C436 C437 1.434 . S
C437 C428 1.429 . S
C437 N434 1.350 . S
C437 C436 1.434 . S
C438 C439 1.369 . S
C438 C440 1.419 . S
C438 H442 0.930 . S
C439 C438 1.369 . S
C439 C448 1.429 . S
C440 C438 1.419 . S
C440 C441 1.363 . S
C440 H443 0.929 . S
C441 C440 1.363 . S
C441 C447 1.428 . S
H442 C438 0.930 . S
H443 C440 0.929 . S
S444 N445 1.613 . S
S444 N446 1.610 . S
N445 S444 1.613 . S
N445 C448 1.350 . S
N446 S444 1.610 . S
N446 C447 1.351 . S
C447 C441 1.428 . S
C447 N446 1.351 . S
C447 C448 1.434 . S
C448 C439 1.429 . S
C448 N445 1.350 . S
C448 C447 1.434 . S
C449 C450 1.369 . S
C449 C451 1.419 . S
C449 H453 0.930 . S
C450 C449 1.369 . S
C450 C459 1.429 . S
C451 C449 1.419 . S
C451 C452 1.363 . S
C451 H454 0.929 . S
C452 C451 1.363 . S
C452 C458 1.428 . S
H453 C449 0.930 . S
H454 C451 0.929 . S
S455 N456 1.613 . S
S455 N457 1.610 . S
N456 S455 1.613 . S
N456 C459 1.350 . S
N457 S455 1.610 . S
N457 C458 1.351 . S
C458 C452 1.428 . S
C458 N457 1.351 . S
C458 C459 1.434 . S
C459 C450 1.429 . S
C459 N456 1.350 . S
C459 C458 1.434 . S
C460 C461 1.369 . S
C460 C462 1.419 . S
C460 H464 0.930 . S
C461 C460 1.369 . S
C461 C470 1.429 . S
C462 C460 1.419 . S
C462 C463 1.363 . S
C462 H465 0.929 . S
C463 C462 1.363 . S
C463 C469 1.428 . S
H464 C460 0.930 . S
H465 C462 0.929 . S
S466 N467 1.613 . S
S466 N468 1.610 . S
N467 S466 1.613 . S
N467 C470 1.350 . S
N468 S466 1.610 . S
N468 C469 1.351 . S
C469 C463 1.428 . S
C469 N468 1.351 . S
C469 C470 1.434 . S
C470 C461 1.429 . S
C470 N467 1.350 . S
C470 C469 1.434 . S
C471 C472 1.369 . S
C471 C473 1.419 . S
C471 H475 0.930 . S
C472 C471 1.369 . S
C472 C481 1.429 . S
C473 C471 1.419 . S
C473 C474 1.363 . S
C473 H476 0.929 . S
C474 C473 1.363 . S
C474 C480 1.428 . S
H475 C471 0.930 . S
H476 C473 0.929 . S
S477 N478 1.613 . S
S477 N479 1.610 . S
N478 S477 1.613 . S
N478 C481 1.350 . S
N479 S477 1.610 . S
N479 C480 1.351 . S
C480 C474 1.428 . S
C480 N479 1.351 . S
C480 C481 1.434 . S
C481 C472 1.429 . S
C481 N478 1.350 . S
C481 C480 1.434 . S
C482 C483 1.369 . S
C482 C484 1.419 . S
C482 H486 0.930 . S
C483 C482 1.369 . S
C483 C492 1.429 . S
C484 C482 1.419 . S
C484 C485 1.363 . S
C484 H487 0.929 . S
C485 C484 1.363 . S
C485 C491 1.428 . S
H486 C482 0.930 . S
H487 C484 0.929 . S
S488 N489 1.613 . S
S488 N490 1.610 . S
N489 S488 1.613 . S
N489 C492 1.350 . S
N490 S488 1.610 . S
N490 C491 1.351 . S
C491 C485 1.428 . S
C491 N490 1.351 . S
C491 C492 1.434 . S
C492 C483 1.429 . S
C492 N489 1.350 . S
C492 C491 1.434 . S
C493 C494 1.369 . S
C493 C495 1.419 . S
C493 H497 0.930 . S
C494 C493 1.369 . S
C494 C503 1.429 . S
C495 C493 1.419 . S
C495 C496 1.363 . S
C495 H498 0.929 . S
C496 C495 1.363 . S
C496 C502 1.428 . S
H497 C493 0.930 . S
H498 C495 0.929 . S
S499 N500 1.613 . S
S499 N501 1.610 . S
N500 S499 1.613 . S
N500 C503 1.350 . S
N501 S499 1.610 . S
N501 C502 1.351 . S
C502 C496 1.428 . S
C502 N501 1.351 . S
C502 C503 1.434 . S
C503 C494 1.429 . S
C503 N500 1.350 . S
C503 C502 1.434 . S
C504 C505 1.369 . S
C504 C506 1.419 . S
C504 H508 0.930 . S
C505 C504 1.369 . S
C505 C514 1.429 . S
C506 C504 1.419 . S
C506 C507 1.363 . S
C506 H509 0.929 . S
C507 C506 1.363 . S
C507 C513 1.428 . S
H508 C504 0.930 . S
H509 C506 0.929 . S
S510 N511 1.613 . S
S510 N512 1.610 . S
N511 S510 1.613 . S
N511 C514 1.350 . S
N512 S510 1.610 . S
N512 C513 1.351 . S
C513 C507 1.428 . S
C513 N512 1.351 . S
C513 C514 1.434 . S
C514 C505 1.429 . S
C514 N511 1.350 . S
C514 C513 1.434 . S
C515 C516 1.369 . S
C515 C517 1.419 . S
C515 H519 0.930 . S
C516 C515 1.369 . S
C516 C525 1.429 . S
C517 C515 1.419 . S
C517 C518 1.363 . S
C517 H520 0.929 . S
C518 C517 1.363 . S
C518 C524 1.428 . S
H519 C515 0.930 . S
H520 C517 0.929 . S
S521 N522 1.613 . S
S521 N523 1.610 . S
N522 S521 1.613 . S
N522 C525 1.350 . S
N523 S521 1.610 . S
N523 C524 1.351 . S
C524 C518 1.428 . S
C524 N523 1.351 . S
C524 C525 1.434 . S
C525 C516 1.429 . S
C525 N522 1.350 . S
C525 C524 1.434 . S
C526 C527 1.369 . S
C526 C528 1.419 . S
C526 H530 0.930 . S
C527 C526 1.369 . S
C527 C536 1.429 . S
C528 C526 1.419 . S
C528 C529 1.363 . S
C528 H531 0.929 . S
C529 C528 1.363 . S
C529 C535 1.428 . S
H530 C526 0.930 . S
H531 C528 0.929 . S
S532 N533 1.613 . S
S532 N534 1.610 . S
N533 S532 1.613 . S
N533 C536 1.350 . S
N534 S532 1.610 . S
N534 C535 1.351 . S
C535 C529 1.428 . S
C535 N534 1.351 . S
C535 C536 1.434 . S
C536 C527 1.429 . S
C536 N533 1.350 . S
C536 C535 1.434 . S
C537 C538 1.369 . S
C537 C539 1.419 . S
C537 H541 0.930 . S
C538 C537 1.369 . S
C538 C547 1.429 . S
C539 C537 1.419 . S
C539 C540 1.363 . S
C539 H542 0.929 . S
C540 C539 1.363 . S
C540 C546 1.428 . S
H541 C537 0.930 . S
H542 C539 0.929 . S
S543 N544 1.613 . S
S543 N545 1.610 . S
N544 S543 1.613 . S
N544 C547 1.350 . S
N545 S543 1.610 . S
N545 C546 1.351 . S
C546 C540 1.428 . S
C546 N545 1.351 . S
C546 C547 1.434 . S
C547 C538 1.429 . S
C547 N544 1.350 . S
C547 C546 1.434 . S
C548 C549 1.369 . S
C548 C550 1.419 . S
C548 H552 0.930 . S
C549 C548 1.369 . S
C549 C558 1.429 . S
C550 C548 1.419 . S
C550 C551 1.363 . S
C550 H553 0.929 . S
C551 C550 1.363 . S
C551 C557 1.428 . S
H552 C548 0.930 . S
H553 C550 0.929 . S
S554 N555 1.613 . S
S554 N556 1.610 . S
N555 S554 1.613 . S
N555 C558 1.350 . S
N556 S554 1.610 . S
N556 C557 1.351 . S
C557 C551 1.428 . S
C557 N556 1.351 . S
C557 C558 1.434 . S
C558 C549 1.429 . S
C558 N555 1.350 . S
C558 C557 1.434 . S
C559 C560 1.369 . S
C559 C561 1.419 . S
C559 H563 0.930 . S
C560 C559 1.369 . S
C560 C569 1.429 . S
C561 C559 1.419 . S
C561 C562 1.363 . S
C561 H564 0.929 . S
C562 C561 1.363 . S
C562 C568 1.428 . S
H563 C559 0.930 . S
H564 C561 0.929 . S
S565 N566 1.613 . S
S565 N567 1.610 . S
N566 S565 1.613 . S
N566 C569 1.350 . S
N567 S565 1.610 . S
N567 C568 1.351 . S
C568 C562 1.428 . S
C568 N567 1.351 . S
C568 C569 1.434 . S
C569 C560 1.429 . S
C569 N566 1.350 . S
C569 C568 1.434 . S
C570 C571 1.369 . S
C570 C572 1.419 . S
C570 H574 0.930 . S
C571 C570 1.369 . S
C571 C580 1.429 . S
C572 C570 1.419 . S
C572 C573 1.363 . S
C572 H575 0.929 . S
C573 C572 1.363 . S
C573 C579 1.428 . S
H574 C570 0.930 . S
H575 C572 0.929 . S
S576 N577 1.613 . S
S576 N578 1.610 . S
N577 S576 1.613 . S
N577 C580 1.350 . S
N578 S576 1.610 . S
N578 C579 1.351 . S
C579 C573 1.428 . S
C579 N578 1.351 . S
C579 C580 1.434 . S
C580 C571 1.429 . S
C580 N577 1.350 . S
C580 C579 1.434 . S
C581 C582 1.369 . S
C581 C583 1.419 . S
C581 H585 0.930 . S
C582 C581 1.369 . S
C582 C591 1.429 . S
C583 C581 1.419 . S
C583 C584 1.363 . S
C583 H586 0.929 . S
C584 C583 1.363 . S
C584 C590 1.428 . S
H585 C581 0.930 . S
H586 C583 0.929 . S
S587 N588 1.613 . S
S587 N589 1.610 . S
N588 S587 1.613 . S
N588 C591 1.350 . S
N589 S587 1.610 . S
N589 C590 1.351 . S
C590 C584 1.428 . S
C590 N589 1.351 . S
C590 C591 1.434 . S
C591 C582 1.429 . S
C591 N588 1.350 . S
C591 C590 1.434 . S
C592 C593 1.369 . S
C592 C594 1.419 1_655 S
C592 H596 0.930 . S
C593 C592 1.369 . S
C593 C602 1.429 . S
C594 C592 1.419 1_455 S
C594 C595 1.363 . S
C594 H597 0.929 . S
C595 C594 1.363 . S
C595 C601 1.428 . S
H596 C592 0.930 . S
H597 C594 0.929 . S
S598 N599 1.613 . S
S598 N600 1.610 1_655 S
N599 S598 1.613 . S
N599 C602 1.350 . S
N600 S598 1.610 1_455 S
N600 C601 1.351 . S
C601 C595 1.428 . S
C601 N600 1.351 . S
C601 C602 1.434 1_455 S
C602 C593 1.429 . S
C602 N599 1.350 . S
C602 C601 1.434 1_655 S
C603 C604 1.369 . S
C603 C605 1.419 1_545 S
C603 H607 0.930 . S
C604 C603 1.369 . S
C604 C613 1.429 . S
C605 C603 1.419 1_565 S
C605 C606 1.363 . S
C605 H608 0.929 . S
C606 C605 1.363 . S
C606 C612 1.456 . S
H607 C603 0.930 . S
H608 C605 0.929 . S
S609 N610 1.613 . S
S609 N611 1.610 1_545 S
N610 S609 1.613 . S
N610 C613 1.350 . S
N611 S609 1.610 1_565 S
N611 C612 1.362 . S
C612 C606 1.456 . S
C612 N611 1.362 . S
C612 C613 1.392 1_565 S
C613 C604 1.429 . S
C613 N610 1.350 . S
C613 C612 1.392 1_545 S
C614 C615 1.369 . S
C614 C616 1.419 1_455 S
C614 H618 0.930 . S
C615 C614 1.369 . S
C615 C624 1.429 . S
C616 C614 1.419 1_655 S
C616 C617 1.363 . S
C616 H619 0.929 . S
C617 C616 1.363 . S
C617 C623 1.428 . S
H618 C614 0.930 . S
H619 C616 0.929 . S
S620 N621 1.613 . S
S620 N622 1.610 1_455 S
N621 S620 1.613 . S
N621 C624 1.350 . S
N622 S620 1.610 1_655 S
N622 C623 1.351 . S
C623 C617 1.428 . S
C623 N622 1.351 . S
C623 C624 1.434 1_655 S
C624 C615 1.429 . S
C624 N621 1.350 . S
C624 C623 1.434 1_455 S
C625 C626 1.369 . S
C625 C627 1.419 1_565 S
C625 H629 0.930 . S
C626 C625 1.369 . S
C626 C635 1.429 . S
C627 C625 1.419 1_545 S
C627 C628 1.363 . S
C627 H630 0.929 . S
C628 C627 1.363 . S
C628 C634 1.457 . S
H629 C625 0.930 . S
H630 C627 0.929 . S
S631 N632 1.613 . S
S631 N633 1.610 1_565 S
N632 S631 1.613 . S
N632 C635 1.350 . S
N633 S631 1.610 1_545 S
N633 C634 1.362 . S
C634 C628 1.457 . S
C634 N633 1.362 . S
C634 C635 1.391 1_545 S
C635 C626 1.429 . S
C635 N632 1.350 . S
C635 C634 1.391 1_565 S
C636 C637 1.369 . S
C636 C638 1.419 1_455 S
C636 H640 0.930 . S
C637 C636 1.369 . S
C637 C646 1.429 . S
C638 C636 1.419 1_655 S
C638 C639 1.363 . S
C638 H641 0.929 . S
C639 C638 1.363 . S
C639 C645 1.428 . S
H640 C636 0.930 . S
H641 C638 0.929 . S
S642 N643 1.613 1_655 S
S642 N644 1.610 . S
N643 S642 1.613 1_455 S
N643 C646 1.350 . S
N644 S642 1.610 . S
N644 C645 1.351 . S
C645 C639 1.428 . S
C645 N644 1.351 . S
C645 C646 1.434 1_655 S
C646 C637 1.429 . S
C646 N643 1.350 . S
C646 C645 1.434 1_455 S
C647 C648 1.369 . S
C647 C649 1.419 1_565 S
C647 H651 0.930 . S
C648 C647 1.369 . S
C648 C657 1.429 . S
C649 C647 1.419 1_545 S
C649 C650 1.363 . S
C649 H652 0.929 . S
C650 C649 1.363 . S
C650 C656 1.428 . S
H651 C647 0.930 . S
H652 C649 0.929 . S
S653 N654 1.613 1_545 S
S653 N655 1.610 . S
N654 S653 1.613 1_565 S
N654 C657 1.350 . S
N655 S653 1.610 . S
N655 C656 1.351 . S
C656 C650 1.428 . S
C656 N655 1.351 . S
C656 C657 1.434 1_545 S
C657 C648 1.429 . S
C657 N654 1.350 . S
C657 C656 1.434 1_565 S
C658 C659 1.369 . S
C658 C660 1.419 1_455 S
C658 H662 0.930 . S
C659 C658 1.369 . S
C659 C668 1.429 . S
C660 C658 1.419 1_655 S
C660 C661 1.363 . S
C660 H663 0.929 . S
C661 C660 1.363 . S
C661 C667 1.428 . S
H662 C658 0.930 . S
H663 C660 0.929 . S
S664 N665 1.613 . S
S664 N666 1.610 1_455 S
N665 S664 1.613 . S
N665 C668 1.350 . S
N666 S664 1.610 1_655 S
N666 C667 1.351 . S
C667 C661 1.428 . S
C667 N666 1.351 . S
C667 C668 1.434 1_655 S
C668 C659 1.429 . S
C668 N665 1.350 . S
C668 C667 1.434 1_455 S
C669 C670 1.369 . S
C669 C671 1.419 1_545 S
C669 H673 0.930 . S
C670 C669 1.369 . S
C670 C679 1.429 . S
C671 C669 1.419 1_565 S
C671 C672 1.363 . S
C671 H674 0.929 . S
C672 C671 1.363 . S
C672 C678 1.428 . S
H673 C669 0.930 . S
H674 C671 0.929 . S
S675 N676 1.613 1_565 S
S675 N677 1.610 . S
N676 S675 1.613 1_545 S
N676 C679 1.350 . S
N677 S675 1.610 . S
N677 C678 1.351 . S
C678 C672 1.428 . S
C678 N677 1.351 . S
C678 C679 1.434 1_565 S
C679 C670 1.429 . S
C679 N676 1.350 . S
C679 C678 1.434 1_545 S
C680 C681 1.369 . S
C680 C682 1.419 . S
C680 H684 0.930 . S
C681 C680 1.369 . S
C681 C690 1.429 . S
C682 C680 1.419 . S
C682 C683 1.363 . S
C682 H685 0.929 . S
C683 C682 1.363 . S
C683 C689 1.428 . S
H684 C680 0.930 . S
H685 C682 0.929 . S
S686 N687 1.613 . S
S686 N688 1.610 . S
N687 S686 1.613 . S
N687 C690 1.350 . S
N688 S686 1.610 . S
N688 C689 1.351 . S
C689 C683 1.428 . S
C689 N688 1.351 . S
C689 C690 1.434 . S
C690 C681 1.429 . S
C690 N687 1.350 . S
C690 C689 1.434 . S
C691 C692 1.369 . S
C691 C693 1.419 . S
C691 H695 0.930 . S
C692 C691 1.369 . S
C692 C701 1.429 . S
C693 C691 1.419 . S
C693 C694 1.363 . S
C693 H696 0.929 . S
C694 C693 1.363 . S
C694 C700 1.428 . S
H695 C691 0.930 . S
H696 C693 0.929 . S
S697 N698 1.613 . S
S697 N699 1.610 . S
N698 S697 1.613 . S
N698 C701 1.350 . S
N699 S697 1.610 . S
N699 C700 1.351 . S
C700 C694 1.428 . S
C700 N699 1.351 . S
C700 C701 1.434 . S
C701 C692 1.429 . S
C701 N698 1.350 . S
C701 C700 1.434 . S
C702 C703 1.369 . S
C702 C704 1.419 . S
C702 H706 0.930 . S
C703 C702 1.369 . S
C703 C712 1.429 . S
C704 C702 1.419 . S
C704 C705 1.363 . S
C704 H707 0.929 . S
C705 C704 1.363 . S
C705 C711 1.428 . S
H706 C702 0.930 . S
H707 C704 0.929 . S
S708 N709 1.613 . S
S708 N710 1.610 . S
N709 S708 1.613 . S
N709 C712 1.350 . S
N710 S708 1.610 . S
N710 C711 1.351 . S
C711 C705 1.428 . S
C711 N710 1.351 . S
C711 C712 1.434 . S
C712 C703 1.429 . S
C712 N709 1.350 . S
C712 C711 1.434 . S
C713 C714 1.369 . S
C713 C715 1.419 . S
C713 H717 0.930 . S
C714 C713 1.369 . S
C714 C723 1.429 . S
C715 C713 1.419 . S
C715 C716 1.363 . S
C715 H718 0.929 . S
C716 C715 1.363 . S
C716 C722 1.428 . S
H717 C713 0.930 . S
H718 C715 0.929 . S
S719 N720 1.613 . S
S719 N721 1.610 . S
N720 S719 1.613 . S
N720 C723 1.350 . S
N721 S719 1.610 . S
N721 C722 1.351 . S
C722 C716 1.428 . S
C722 N721 1.351 . S
C722 C723 1.434 . S
C723 C714 1.429 . S
C723 N720 1.350 . S
C723 C722 1.434 . S
C724 C725 1.369 . S
C724 C726 1.419 . S
C724 H728 0.930 . S
C725 C724 1.369 . S
C725 C734 1.429 . S
C726 C724 1.419 . S
C726 C727 1.363 . S
C726 H729 0.929 . S
C727 C726 1.363 . S
C727 C733 1.428 . S
H728 C724 0.930 . S
H729 C726 0.929 . S
S730 N731 1.613 . S
S730 N732 1.610 . S
N731 S730 1.613 . S
N731 C734 1.350 . S
N732 S730 1.610 . S
N732 C733 1.351 . S
C733 C727 1.428 . S
C733 N732 1.351 . S
C733 C734 1.434 . S
C734 C725 1.429 . S
C734 N731 1.350 . S
C734 C733 1.434 . S
C735 C736 1.369 . S
C735 C737 1.419 . S
C735 H739 0.930 . S
C736 C735 1.369 . S
C736 C745 1.429 . S
C737 C735 1.419 . S
C737 C738 1.363 . S
C737 H740 0.929 . S
C738 C737 1.363 . S
C738 C744 1.428 . S
H739 C735 0.930 . S
H740 C737 0.929 . S
S741 N742 1.613 . S
S741 N743 1.610 . S
N742 S741 1.613 . S
N742 C745 1.350 . S
N743 S741 1.610 . S
N743 C744 1.351 . S
C744 C738 1.428 . S
C744 N743 1.351 . S
C744 C745 1.434 . S
C745 C736 1.429 . S
C745 N742 1.350 . S
C745 C744 1.434 . S
C746 C747 1.369 . S
C746 C748 1.419 . S
C746 H750 0.930 . S
C747 C746 1.369 . S
C747 C756 1.429 . S
C748 C746 1.419 . S
C748 C749 1.363 . S
C748 H751 0.929 . S
C749 C748 1.363 . S
C749 C755 1.428 . S
H750 C746 0.930 . S
H751 C748 0.929 . S
S752 N753 1.613 . S
S752 N754 1.610 . S
N753 S752 1.613 . S
N753 C756 1.350 . S
N754 S752 1.610 . S
N754 C755 1.351 . S
C755 C749 1.428 . S
C755 N754 1.351 . S
C755 C756 1.434 . S
C756 C747 1.429 . S
C756 N753 1.350 . S
C756 C755 1.434 . S
C757 C758 1.369 . S
C757 C759 1.419 . S
C757 H761 0.930 . S
C758 C757 1.369 . S
C758 C767 1.429 . S
C759 C757 1.419 . S
C759 C760 1.363 . S
C759 H762 0.929 . S
C760 C759 1.363 . S
C760 C766 1.428 . S
H761 C757 0.930 . S
H762 C759 0.929 . S
S763 N764 1.613 . S
S763 N765 1.610 . S
N764 S763 1.613 . S
N764 C767 1.350 . S
N765 S763 1.610 . S
N765 C766 1.351 . S
C766 C760 1.428 . S
C766 N765 1.351 . S
C766 C767 1.434 . S
C767 C758 1.429 . S
C767 N764 1.350 . S
C767 C766 1.434 . S
C768 C769 1.369 . S
C768 C770 1.419 . S
C768 H772 0.930 . S
C769 C768 1.369 . S
C769 C778 1.429 . S
C770 C768 1.419 . S
C770 C771 1.363 . S
C770 H773 0.929 . S
C771 C770 1.363 . S
C771 C777 1.428 . S
H772 C768 0.930 . S
H773 C770 0.929 . S
S774 N775 1.613 . S
S774 N776 1.610 . S
N775 S774 1.613 . S
N775 C778 1.350 . S
N776 S774 1.610 . S
N776 C777 1.351 . S
C777 C771 1.428 . S
C777 N776 1.351 . S
C777 C778 1.434 . S
C778 C769 1.429 . S
C778 N775 1.350 . S
C778 C777 1.434 . S
C779 C780 1.369 . S
C779 C781 1.419 . S
C779 H783 0.930 . S
C780 C779 1.369 . S
C780 C789 1.429 . S
C781 C779 1.419 . S
C781 C782 1.363 . S
C781 H784 0.929 . S
C782 C781 1.363 . S
C782 C788 1.428 . S
H783 C779 0.930 . S
H784 C781 0.929 . S
S785 N786 1.613 . S
S785 N787 1.610 . S
N786 S785 1.613 . S
N786 C789 1.350 . S
N787 S785 1.610 . S
N787 C788 1.351 . S
C788 C782 1.428 . S
C788 N787 1.351 . S
C788 C789 1.434 . S
C789 C780 1.429 . S
C789 N786 1.350 . S
C789 C788 1.434 . S
C790 C791 1.369 . S
C790 C792 1.419 . S
C790 H794 0.930 . S
C791 C790 1.369 . S
C791 C800 1.429 . S
C792 C790 1.419 . S
C792 C793 1.363 . S
C792 H795 0.929 . S
C793 C792 1.363 . S
C793 C799 1.428 . S
H794 C790 0.930 . S
H795 C792 0.929 . S
S796 N797 1.613 . S
S796 N798 1.610 . S
N797 S796 1.613 . S
N797 C800 1.350 . S
N798 S796 1.610 . S
N798 C799 1.351 . S
C799 C793 1.428 . S
C799 N798 1.351 . S
C799 C800 1.434 . S
C800 C791 1.429 . S
C800 N797 1.350 . S
C800 C799 1.434 . S
C801 C802 1.369 . S
C801 C803 1.419 . S
C801 H805 0.930 . S
C802 C801 1.369 . S
C802 C811 1.429 . S
C803 C801 1.419 . S
C803 C804 1.363 . S
C803 H806 0.929 . S
C804 C803 1.363 . S
C804 C810 1.428 . S
H805 C801 0.930 . S
H806 C803 0.929 . S
S807 N808 1.613 . S
S807 N809 1.610 . S
N808 S807 1.613 . S
N808 C811 1.350 . S
N809 S807 1.610 . S
N809 C810 1.351 . S
C810 C804 1.428 . S
C810 N809 1.351 . S
C810 C811 1.434 . S
C811 C802 1.429 . S
C811 N808 1.350 . S
C811 C810 1.434 . S
C812 C813 1.369 . S
C812 C814 1.419 . S
C812 H816 0.930 . S
C813 C812 1.369 . S
C813 C822 1.429 . S
C814 C812 1.419 . S
C814 C815 1.363 . S
C814 H817 0.929 . S
C815 C814 1.363 . S
C815 C821 1.428 . S
H816 C812 0.930 . S
H817 C814 0.929 . S
S818 N819 1.613 . S
S818 N820 1.610 . S
N819 S818 1.613 . S
N819 C822 1.350 . S
N820 S818 1.610 . S
N820 C821 1.351 . S
C821 C815 1.428 . S
C821 N820 1.351 . S
C821 C822 1.434 . S
C822 C813 1.429 . S
C822 N819 1.350 . S
C822 C821 1.434 . S
C823 C824 1.369 . S
C823 C825 1.419 . S
C823 H827 0.930 . S
C824 C823 1.369 . S
C824 C833 1.429 . S
C825 C823 1.419 . S
C825 C826 1.363 . S
C825 H828 0.929 . S
C826 C825 1.363 . S
C826 C832 1.428 . S
H827 C823 0.930 . S
H828 C825 0.929 . S
S829 N830 1.613 . S
S829 N831 1.610 . S
N830 S829 1.613 . S
N830 C833 1.350 . S
N831 S829 1.610 . S
N831 C832 1.351 . S
C832 C826 1.428 . S
C832 N831 1.351 . S
C832 C833 1.434 . S
C833 C824 1.429 . S
C833 N830 1.350 . S
C833 C832 1.434 . S
C834 C835 1.369 . S
C834 C836 1.419 . S
C834 H838 0.930 . S
C835 C834 1.369 . S
C835 C844 1.429 . S
C836 C834 1.419 . S
C836 C837 1.363 . S
C836 H839 0.929 . S
C837 C836 1.363 . S
C837 C843 1.428 . S
H838 C834 0.930 . S
H839 C836 0.929 . S
S840 N841 1.613 . S
S840 N842 1.610 . S
N841 S840 1.613 . S
N841 C844 1.350 . S
N842 S840 1.610 . S
N842 C843 1.351 . S
C843 C837 1.428 . S
C843 N842 1.351 . S
C843 C844 1.434 . S
C844 C835 1.429 . S
C844 N841 1.350 . S
C844 C843 1.434 . S
C845 C846 1.369 . S
C845 C847 1.419 . S
C845 H849 0.930 . S
C846 C845 1.369 . S
C846 C855 1.429 . S
C847 C845 1.419 . S
C847 C848 1.363 . S
C847 H850 0.929 . S
C848 C847 1.363 . S
C848 C854 1.428 . S
H849 C845 0.930 . S
H850 C847 0.929 . S
S851 N852 1.613 . S
S851 N853 1.610 . S
N852 S851 1.613 . S
N852 C855 1.350 . S
N853 S851 1.610 . S
N853 C854 1.351 . S
C854 C848 1.428 . S
C854 N853 1.351 . S
C854 C855 1.434 . S
C855 C846 1.429 . S
C855 N852 1.350 . S
C855 C854 1.434 . S
C856 C857 1.369 . S
C856 C858 1.419 1_554 S
C856 H860 0.930 . S
C857 C856 1.369 . S
C857 C866 1.429 . S
C858 C856 1.419 1_556 S
C858 C859 1.363 . S
C858 H861 0.929 . S
C859 C858 1.363 . S
C859 C865 1.428 . S
H860 C856 0.930 . S
H861 C858 0.929 . S
S862 N863 1.613 1_556 S
S862 N864 1.610 . S
N863 S862 1.613 1_554 S
N863 C866 1.350 . S
N864 S862 1.610 . S
N864 C865 1.351 . S
C865 C859 1.428 . S
C865 N864 1.351 . S
C865 C866 1.434 1_556 S
C866 C857 1.429 . S
C866 N863 1.350 . S
C866 C865 1.434 1_554 S
C867 C868 1.369 . S
C867 C869 1.419 1_556 S
C867 H871 0.930 . S
C868 C867 1.369 . S
C868 C877 1.429 . S
C869 C867 1.419 1_554 S
C869 C870 1.363 . S
C869 H872 0.929 . S
C870 C869 1.363 . S
C870 C876 1.428 . S
H871 C867 0.930 . S
H872 C869 0.929 . S
S873 N874 1.613 1_554 S
S873 N875 1.610 . S
N874 S873 1.613 1_556 S
N874 C877 1.350 . S
N875 S873 1.610 . S
N875 C876 1.351 . S
C876 C870 1.428 . S
C876 N875 1.351 . S
C876 C877 1.434 1_554 S
C877 C868 1.429 . S
C877 N874 1.350 . S
C877 C876 1.434 1_556 S
C878 C879 1.369 . S
C878 C880 1.419 1_554 S
C878 H882 0.930 . S
C879 C878 1.369 . S
C879 C888 1.429 . S
C880 C878 1.419 1_556 S
C880 C881 1.363 . S
C880 H883 0.929 . S
C881 C880 1.363 . S
C881 C887 1.428 . S
H882 C878 0.930 . S
H883 C880 0.929 . S
S884 N885 1.613 1_556 S
S884 N886 1.610 . S
N885 S884 1.613 1_554 S
N885 C888 1.350 . S
N886 S884 1.610 . S
N886 C887 1.351 . S
C887 C881 1.428 . S
C887 N886 1.351 . S
C887 C888 1.434 1_556 S
C888 C879 1.429 . S
C888 N885 1.350 . S
C888 C887 1.434 1_554 S
C889 C890 1.369 . S
C889 C891 1.419 1_554 S
C889 H893 0.930 . S
C890 C889 1.369 . S
C890 C899 1.429 . S
C891 C889 1.419 1_556 S
C891 C892 1.363 . S
C891 H894 0.929 . S
C892 C891 1.363 . S
C892 C898 1.428 . S
H893 C889 0.930 . S
H894 C891 0.929 . S
S895 N896 1.613 . S
S895 N897 1.610 1_554 S
N896 S895 1.613 . S
N896 C899 1.350 . S
N897 S895 1.610 1_556 S
N897 C898 1.351 . S
C898 C892 1.428 . S
C898 N897 1.351 . S
C898 C899 1.434 1_556 S
C899 C890 1.429 . S
C899 N896 1.350 . S
C899 C898 1.434 1_554 S
C900 C901 1.369 . S
C900 C902 1.419 1_554 S
C900 H904 0.930 . S
C901 C900 1.369 . S
C901 C910 1.429 . S
C902 C900 1.419 1_556 S
C902 C903 1.363 . S
C902 H905 0.929 . S
C903 C902 1.363 . S
C903 C909 1.428 . S
H904 C900 0.930 . S
H905 C902 0.929 . S
S906 N907 1.591 1_556 S
S906 N908 1.631 . S
N907 S906 1.591 1_554 S
N907 C910 1.350 . S
N908 S906 1.631 . S
N908 C909 1.351 . S
C909 C903 1.428 . S
C909 N908 1.351 . S
C909 C910 1.434 1_556 S
C910 C901 1.429 . S
C910 N907 1.350 . S
C910 C909 1.434 1_554 S
C911 C912 1.369 . S
C911 C913 1.419 1_554 S
C911 H915 0.930 . S
C912 C911 1.369 . S
C912 C921 1.429 . S
C913 C911 1.419 1_556 S
C913 C914 1.363 . S
C913 H916 0.929 . S
C914 C913 1.363 . S
C914 C920 1.428 . S
H915 C911 0.930 . S
H916 C913 0.929 . S
S917 N918 1.613 1_556 S
S917 N919 1.610 . S
N918 S917 1.613 1_554 S
N918 C921 1.350 . S
N919 S917 1.610 . S
N919 C920 1.351 . S
C920 C914 1.428 . S
C920 N919 1.351 . S
C920 C921 1.434 1_556 S
C921 C912 1.429 . S
C921 N918 1.350 . S
C921 C920 1.434 1_554 S
C922 C923 1.369 . S
C922 C924 1.419 1_556 S
C922 H926 0.930 . S
C923 C922 1.369 . S
C923 C932 1.429 . S
C924 C922 1.419 1_554 S
C924 C925 1.363 . S
C924 H927 0.929 . S
C925 C924 1.363 . S
C925 C931 1.428 . S
H926 C922 0.930 . S
H927 C924 0.929 . S
S928 N929 1.613 . S
S928 N930 1.610 1_556 S
N929 S928 1.613 . S
N929 C932 1.350 . S
N930 S928 1.610 1_554 S
N930 C931 1.351 . S
C931 C925 1.428 . S
C931 N930 1.351 . S
C931 C932 1.434 1_554 S
C932 C923 1.429 . S
C932 N929 1.350 . S
C932 C931 1.434 1_556 S
C933 C934 1.369 . S
C933 C935 1.419 1_556 S
C933 H937 0.930 . S
C934 C933 1.369 . S
C934 C943 1.429 . S
C935 C933 1.419 1_554 S
C935 C936 1.363 . S
C935 H938 0.929 . S
C936 C935 1.363 . S
C936 C942 1.428 . S
H937 C933 0.930 . S
H938 C935 0.929 . S
S939 N940 1.613 . S
S939 N941 1.610 1_556 S
N940 S939 1.613 . S
N940 C943 1.350 . S
N941 S939 1.610 1_554 S
N941 C942 1.351 . S
C942 C936 1.428 . S
C942 N941 1.351 . S
C942 C943 1.434 1_554 S
C943 C934 1.429 . S
C943 N940 1.350 . S
C943 C942 1.434 1_556 S
C944 C945 1.369 . S
C944 C946 1.419 . S
C944 H948 0.930 . S
C945 C944 1.369 . S
C945 C954 1.429 . S
C946 C944 1.419 . S
C946 C947 1.363 . S
C946 H949 0.929 . S
C947 C946 1.363 . S
C947 C953 1.428 . S
H948 C944 0.930 . S
H949 C946 0.929 . S
S950 N951 1.613 . S
S950 N952 1.610 . S
N951 S950 1.613 . S
N951 C954 1.350 . S
N952 S950 1.610 . S
N952 C953 1.351 . S
C953 C947 1.428 . S
C953 N952 1.351 . S
C953 C954 1.434 . S
C954 C945 1.429 . S
C954 N951 1.350 . S
C954 C953 1.434 . S
C955 C956 1.369 . S
C955 C957 1.419 . S
C955 H959 0.930 . S
C956 C955 1.369 . S
C956 C965 1.429 . S
C957 C955 1.419 . S
C957 C958 1.363 . S
C957 H960 0.929 . S
C958 C957 1.363 . S
C958 C964 1.428 . S
H959 C955 0.930 . S
H960 C957 0.929 . S
S961 N962 1.613 . S
S961 N963 1.610 . S
N962 S961 1.613 . S
N962 C965 1.350 . S
N963 S961 1.610 . S
N963 C964 1.351 . S
C964 C958 1.428 . S
C964 N963 1.351 . S
C964 C965 1.434 . S
C965 C956 1.429 . S
C965 N962 1.350 . S
C965 C964 1.434 . S
C966 C967 1.369 . S
C966 C968 1.419 . S
C966 H970 0.930 . S
C967 C966 1.369 . S
C967 C976 1.429 . S
C968 C966 1.419 . S
C968 C969 1.363 . S
C968 H971 0.929 . S
C969 C968 1.363 . S
C969 C975 1.428 . S
H970 C966 0.930 . S
H971 C968 0.929 . S
S972 N973 1.613 . S
S972 N974 1.610 . S
N973 S972 1.613 . S
N973 C976 1.350 . S
N974 S972 1.610 . S
N974 C975 1.351 . S
C975 C969 1.428 . S
C975 N974 1.351 . S
C975 C976 1.434 . S
C976 C967 1.429 . S
C976 N973 1.350 . S
C976 C975 1.434 . S
C977 C978 1.369 . S
C977 C979 1.419 . S
C977 H981 0.930 . S
C978 C977 1.369 . S
C978 C987 1.429 . S
C979 C977 1.419 . S
C979 C980 1.363 . S
C979 H982 0.929 . S
C980 C979 1.363 . S
C980 C986 1.428 . S
H981 C977 0.930 . S
H982 C979 0.929 . S
S983 N984 1.613 . S
S983 N985 1.610 . S
N984 S983 1.613 . S
N984 C987 1.350 . S
N985 S983 1.610 . S
N985 C986 1.351 . S
C986 C980 1.428 . S
C986 N985 1.351 . S
C986 C987 1.434 . S
C987 C978 1.429 . S
C987 N984 1.350 . S
C987 C986 1.434 . S
C988 C989 1.369 . S
C988 C990 1.419 . S
C988 H992 0.930 . S
C989 C988 1.369 . S
C989 C998 1.429 . S
C990 C988 1.419 . S
C990 C991 1.363 . S
C990 H993 0.929 . S
C991 C990 1.363 . S
C991 C997 1.428 . S
H992 C988 0.930 . S
H993 C990 0.929 . S
S994 N995 1.613 . S
S994 N996 1.610 . S
N995 S994 1.613 . S
N995 C998 1.350 . S
N996 S994 1.610 . S
N996 C997 1.351 . S
C997 C991 1.428 . S
C997 N996 1.351 . S
C997 C998 1.434 . S
C998 C989 1.429 . S
C998 N995 1.350 . S
C998 C997 1.434 . S
C999 C1000 1.369 . S
C999 C1001 1.419 . S
C999 H1003 0.930 . S
C1000 C999 1.369 . S
C1000 C1009 1.429 . S
C1001 C999 1.419 . S
C1001 C1002 1.363 . S
C1001 H1004 0.929 . S
C1002 C1001 1.363 . S
C1002 C1008 1.428 . S
H1003 C999 0.930 . S
H1004 C1001 0.929 . S
S1005 N1006 1.613 . S
S1005 N1007 1.610 . S
N1006 S1005 1.613 . S
N1006 C1009 1.350 . S
N1007 S1005 1.610 . S
N1007 C1008 1.351 . S
C1008 C1002 1.428 . S
C1008 N1007 1.351 . S
C1008 C1009 1.434 . S
C1009 C1000 1.429 . S
C1009 N1006 1.350 . S
C1009 C1008 1.434 . S
C1010 C1011 1.369 . S
C1010 C1012 1.419 . S
C1010 H1014 0.930 . S
C1011 C1010 1.369 . S
C1011 C1020 1.429 . S
C1012 C1010 1.419 . S
C1012 C1013 1.363 . S
C1012 H1015 0.929 . S
C1013 C1012 1.363 . S
C1013 C1019 1.428 . S
H1014 C1010 0.930 . S
H1015 C1012 0.929 . S
S1016 N1017 1.613 . S
S1016 N1018 1.610 . S
N1017 S1016 1.613 . S
N1017 C1020 1.350 . S
N1018 S1016 1.610 . S
N1018 C1019 1.351 . S
C1019 C1013 1.428 . S
C1019 N1018 1.351 . S
C1019 C1020 1.434 . S
C1020 C1011 1.429 . S
C1020 N1017 1.350 . S
C1020 C1019 1.434 . S
C1021 C1022 1.369 . S
C1021 C1023 1.419 . S
C1021 H1025 0.930 . S
C1022 C1021 1.369 . S
C1022 C1031 1.429 . S
C1023 C1021 1.419 . S
C1023 C1024 1.363 . S
C1023 H1026 0.929 . S
C1024 C1023 1.363 . S
C1024 C1030 1.428 . S
H1025 C1021 0.930 . S
H1026 C1023 0.929 . S
S1027 N1028 1.613 . S
S1027 N1029 1.610 . S
N1028 S1027 1.613 . S
N1028 C1031 1.350 . S
N1029 S1027 1.610 . S
N1029 C1030 1.351 . S
C1030 C1024 1.428 . S
C1030 N1029 1.351 . S
C1030 C1031 1.434 . S
C1031 C1022 1.429 . S
C1031 N1028 1.350 . S
C1031 C1030 1.434 . S
C1032 C1033 1.369 . S
C1032 C1034 1.419 . S
C1032 H1036 0.930 . S
C1033 C1032 1.369 . S
C1033 C1042 1.429 . S
C1034 C1032 1.419 . S
C1034 C1035 1.363 . S
C1034 H1037 0.929 . S
C1035 C1034 1.363 . S
C1035 C1041 1.428 . S
H1036 C1032 0.930 . S
H1037 C1034 0.929 . S
S1038 N1039 1.613 . S
S1038 N1040 1.610 . S
N1039 S1038 1.613 . S
N1039 C1042 1.350 . S
N1040 S1038 1.610 . S
N1040 C1041 1.351 . S
C1041 C1035 1.428 . S
C1041 N1040 1.351 . S
C1041 C1042 1.434 . S
C1042 C1033 1.429 . S
C1042 N1039 1.350 . S
C1042 C1041 1.434 . S
C1043 C1044 1.369 . S
C1043 C1045 1.419 . S
C1043 H1047 0.930 . S
C1044 C1043 1.369 . S
C1044 C1053 1.429 . S
C1045 C1043 1.419 . S
C1045 C1046 1.363 . S
C1045 H1048 0.929 . S
C1046 C1045 1.363 . S
C1046 C1052 1.428 . S
H1047 C1043 0.930 . S
H1048 C1045 0.929 . S
S1049 N1050 1.613 . S
S1049 N1051 1.610 . S
N1050 S1049 1.613 . S
N1050 C1053 1.350 . S
N1051 S1049 1.610 . S
N1051 C1052 1.351 . S
C1052 C1046 1.428 . S
C1052 N1051 1.351 . S
C1052 C1053 1.434 . S
C1053 C1044 1.429 . S
C1053 N1050 1.350 . S
C1053 C1052 1.434 . S
C1054 C1055 1.369 . S
C1054 C1056 1.419 . S
C1054 H1058 0.930 . S
C1055 C1054 1.369 . S
C1055 C1064 1.429 . S
C1056 C1054 1.419 . S
C1056 C1057 1.363 . S
C1056 H1059 0.929 . S
C1057 C1056 1.363 . S
C1057 C1063 1.428 . S
H1058 C1054 0.930 . S
H1059 C1056 0.929 . S
S1060 N1061 1.613 . S
S1060 N1062 1.610 . S
N1061 S1060 1.613 . S
N1061 C1064 1.350 . S
N1062 S1060 1.610 . S
N1062 C1063 1.351 . S
C1063 C1057 1.428 . S
C1063 N1062 1.351 . S
C1063 C1064 1.434 . S
C1064 C1055 1.429 . S
C1064 N1061 1.350 . S
C1064 C1063 1.434 . S
C1065 C1066 1.369 . S
C1065 C1067 1.419 . S
C1065 H1069 0.930 . S
C1066 C1065 1.369 . S
C1066 C1075 1.429 . S
C1067 C1065 1.419 . S
C1067 C1068 1.363 . S
C1067 H1070 0.929 . S
C1068 C1067 1.363 . S
C1068 C1074 1.428 . S
H1069 C1065 0.930 . S
H1070 C1067 0.929 . S
S1071 N1072 1.613 . S
S1071 N1073 1.610 . S
N1072 S1071 1.613 . S
N1072 C1075 1.350 . S
N1073 S1071 1.610 . S
N1073 C1074 1.351 . S
C1074 C1068 1.428 . S
C1074 N1073 1.351 . S
C1074 C1075 1.434 . S
C1075 C1066 1.429 . S
C1075 N1072 1.350 . S
C1075 C1074 1.434 . S
C1076 C1077 1.369 . S
C1076 C1078 1.419 . S
C1076 H1080 0.930 . S
C1077 C1076 1.369 . S
C1077 C1086 1.429 . S
C1078 C1076 1.419 . S
C1078 C1079 1.363 . S
C1078 H1081 0.929 . S
C1079 C1078 1.363 . S
C1079 C1085 1.428 . S
H1080 C1076 0.930 . S
H1081 C1078 0.929 . S
S1082 N1083 1.613 . S
S1082 N1084 1.610 . S
N1083 S1082 1.613 . S
N1083 C1086 1.350 . S
N1084 S1082 1.610 . S
N1084 C1085 1.351 . S
C1085 C1079 1.428 . S
C1085 N1084 1.351 . S
C1085 C1086 1.434 . S
C1086 C1077 1.429 . S
C1086 N1083 1.350 . S
C1086 C1085 1.434 . S
C1087 C1088 1.369 . S
C1087 C1089 1.419 . S
C1087 H1091 0.930 . S
C1088 C1087 1.369 . S
C1088 C1097 1.429 . S
C1089 C1087 1.419 . S
C1089 C1090 1.363 . S
C1089 H1092 0.929 . S
C1090 C1089 1.363 . S
C1090 C1096 1.428 . S
H1091 C1087 0.930 . S
H1092 C1089 0.929 . S
S1093 N1094 1.613 . S
S1093 N1095 1.610 . S
N1094 S1093 1.613 . S
N1094 C1097 1.350 . S
N1095 S1093 1.610 . S
N1095 C1096 1.351 . S
C1096 C1090 1.428 . S
C1096 N1095 1.351 . S
C1096 C1097 1.434 . S
C1097 C1088 1.429 . S
C1097 N1094 1.350 . S
C1097 C1096 1.434 . S
C1098 C1099 1.369 . S
C1098 C1100 1.419 . S
C1098 H1102 0.930 . S
C1099 C1098 1.369 . S
C1099 C1108 1.429 . S
C1100 C1098 1.419 . S
C1100 C1101 1.363 . S
C1100 H1103 0.929 . S
C1101 C1100 1.363 . S
C1101 C1107 1.428 . S
H1102 C1098 0.930 . S
H1103 C1100 0.929 . S
S1104 N1105 1.613 . S
S1104 N1106 1.610 . S
N1105 S1104 1.613 . S
N1105 C1108 1.350 . S
N1106 S1104 1.610 . S
N1106 C1107 1.351 . S
C1107 C1101 1.428 . S
C1107 N1106 1.351 . S
C1107 C1108 1.434 . S
C1108 C1099 1.429 . S
C1108 N1105 1.350 . S
C1108 C1107 1.434 . S
C1109 C1110 1.369 . S
C1109 C1111 1.419 . S
C1109 H1113 0.930 . S
C1110 C1109 1.369 . S
C1110 C1119 1.429 . S
C1111 C1109 1.419 . S
C1111 C1112 1.363 . S
C1111 H1114 0.929 . S
C1112 C1111 1.363 . S
C1112 C1118 1.428 . S
H1113 C1109 0.930 . S
H1114 C1111 0.929 . S
S1115 N1116 1.613 . S
S1115 N1117 1.610 . S
N1116 S1115 1.613 . S
N1116 C1119 1.350 . S
N1117 S1115 1.610 . S
N1117 C1118 1.351 . S
C1118 C1112 1.428 . S
C1118 N1117 1.351 . S
C1118 C1119 1.434 . S
C1119 C1110 1.429 . S
C1119 N1116 1.350 . S
C1119 C1118 1.434 . S
C417 C200 1.338 . S
C419 C5 1.340 . S
C428 C21 1.391 . S
C430 C161 1.383 . S
C439 C31 1.349 . S
C441 C174 1.347 . S
C450 C187 1.387 . S
C452 C47 1.399 . S
C461 C57 1.344 . S
C463 C122 1.343 . S
C472 C73 1.391 . S
C474 C135 1.384 . S
C483 C148 1.339 . S
C485 C83 1.341 . S
C494 C109 1.382 . S
C496 C99 1.393 . S
C505 C213 1.339 . S
C507 C408 1.340 . S
C516 C229 1.391 . S
C518 C369 1.386 . S
C527 C239 1.349 . S
C529 C382 1.347 . S
C538 C395 1.382 . S
C540 C255 1.396 . S
C549 C265 1.347 . S
C551 C330 1.346 . S
C560 C281 1.399 . S
C562 C343 1.385 . S
C571 C356 1.348 . S
C573 C291 1.347 . S
C582 C307 1.395 . S
C584 C317 1.390 . S
C593 C156 1.257 . S
C595 C0 1.255 . S
C604 C23 1.241 . S
C606 C169 1.230 . S
C615 C182 1.251 . S
C617 C26 1.251 . S
C626 C49 1.241 . S
C628 C195 1.231 . S
C637 C52 1.249 . S
C639 C104 1.252 . S
C648 C117 1.230 . S
C650 C75 1.239 . S
C659 C130 1.256 . S
C661 C78 1.255 . S
C670 C143 1.233 . S
C672 C101 1.239 . S
C681 C208 1.256 . S
C683 C364 1.256 . S
C692 C377 1.226 . S
C694 C231 1.242 . S
C703 C234 1.257 . S
C705 C390 1.257 . S
C714 C257 1.238 . S
C716 C403 1.232 . S
C725 C312 1.257 . S
C727 C260 1.254 . S
C736 C283 1.240 . S
C738 C325 1.228 . S
C747 C286 1.250 . S
C749 C338 1.252 . S
C758 C309 1.238 . S
C760 C351 1.230 . S
C769 C8 1.446 . S
C771 C138 1.448 . S
C780 C151 1.435 . S
C782 C18 1.435 . S
C791 C34 1.452 . S
C793 C112 1.454 . S
C802 C125 1.427 . S
C804 C44 1.431 . S
C813 C190 1.448 . S
C815 C60 1.447 . S
C824 C203 1.435 . S
C826 C70 1.435 . S
C835 C164 1.452 . S
C837 C86 1.450 . S
C846 C96 1.437 . S
C848 C177 1.434 . S
C857 C346 1.454 . S
C859 C216 1.451 . S
C868 C226 1.430 . S
C870 C359 1.430 . S
C879 C320 1.447 . S
C881 C242 1.446 . S
C890 C333 1.434 . S
C892 C252 1.433 . S
C901 C268 1.453 . S
C903 C398 1.454 . S
C912 C278 1.437 . S
C914 C411 1.431 . S
C923 C372 1.449 . S
C925 C294 1.448 . S
C934 C385 1.435 . S
C936 C304 1.433 . S
C945 C299 1.239 . S
C947 C10 1.231 . S
C956 C270 1.227 . S
C958 C13 1.238 . S
C967 C273 1.237 . S
C969 C36 1.226 . S
C978 C296 1.227 . S
C980 C39 1.238 . S
C989 C221 1.237 . S
C991 C62 1.230 . S
C1000 C65 1.240 . S
C1002 C244 1.231 . S
C1011 C88 1.226 . S
C1013 C247 1.238 . S
C1022 C91 1.236 . S
C1024 C218 1.228 . S
C1033 C114 1.394 . S
C1035 C413 1.386 . S
C1044 C374 1.392 . S
C1046 C127 1.387 . S
C1055 C140 1.393 . S
C1057 C387 1.387 . S
C1066 C153 1.385 . S
C1068 C400 1.395 . S
C1077 C335 1.384 . S
C1079 C166 1.392 . S
C1088 C348 1.393 . S
C1090 C179 1.387 . S
C1099 C192 1.391 . S
C1101 C361 1.387 . S
C1110 C205 1.388 . S
C1112 C322 1.391 . S
