# Generated by pormake.
# Topology wiu, (6)-cn, num edge types: 1
# Building blocks:
#     Node 0, Type 0, BuildingBlock: BETGAK_clean_sbu_0, # of connection points: 6
#     Node 1, Type 0, BuildingBlock: BETGAK_clean_sbu_0, # of connection points: 6
#     Node 2, Type 0, BuildingBlock: BETGAK_clean_sbu_0, # of connection points: 6
#     Node 3, Type 0, BuildingBlock: BETGAK_clean_sbu_0, # of connection points: 6
#     Node 4, Type 0, BuildingBlock: BETGAK_clean_sbu_0, # of connection points: 6
#     Node 5, Type 0, BuildingBlock: BETGAK_clean_sbu_0, # of connection points: 6
#     Node 6, Type 0, BuildingBlock: BETGAK_clean_sbu_0, # of connection points: 6
#     Node 7, Type 0, BuildingBlock: BETGAK_clean_sbu_0, # of connection points: 6
#     Node 8, Type 0, BuildingBlock: BETGAK_clean_sbu_0, # of connection points: 6
#     Node 9, Type 0, BuildingBlock: BETGAK_clean_sbu_0, # of connection points: 6
#     Node 10, Type 0, BuildingBlock: BETGAK_clean_sbu_0, # of connection points: 6
#     Node 11, Type 0, BuildingBlock: BETGAK_clean_sbu_0, # of connection points: 6
#     Node 12, Type 0, BuildingBlock: BETGAK_clean_sbu_0, # of connection points: 6
#     Node 13, Type 0, BuildingBlock: BETGAK_clean_sbu_0, # of connection points: 6
#     Node 14, Type 0, BuildingBlock: BETGAK_clean_sbu_0, # of connection points: 6
#     Node 15, Type 0, BuildingBlock: BETGAK_clean_sbu_0, # of connection points: 6
#     Edge 16, Type (0, 0), BuildingBlock: XIVTED_clean_linker_0, # of connection points: 2
#     Edge 17, Type (0, 0), BuildingBlock: XIVTED_clean_linker_0, # of connection points: 2
#     Edge 18, Type (0, 0), BuildingBlock: XIVTED_clean_linker_0, # of connection points: 2
#     Edge 19, Type (0, 0), BuildingBlock: XIVTED_clean_linker_0, # of connection points: 2
#     Edge 20, Type (0, 0), BuildingBlock: XIVTED_clean_linker_0, # of connection points: 2
#     Edge 21, Type (0, 0), BuildingBlock: XIVTED_clean_linker_0, # of connection points: 2
#     Edge 22, Type (0, 0), BuildingBlock: XIVTED_clean_linker_0, # of connection points: 2
#     Edge 23, Type (0, 0), BuildingBlock: XIVTED_clean_linker_0, # of connection points: 2
#     Edge 24, Type (0, 0), BuildingBlock: XIVTED_clean_linker_0, # of connection points: 2
#     Edge 25, Type (0, 0), BuildingBlock: XIVTED_clean_linker_0, # of connection points: 2
#     Edge 26, Type (0, 0), BuildingBlock: XIVTED_clean_linker_0, # of connection points: 2
#     Edge 27, Type (0, 0), BuildingBlock: XIVTED_clean_linker_0, # of connection points: 2
#     Edge 28, Type (0, 0), BuildingBlock: XIVTED_clean_linker_0, # of connection points: 2
#     Edge 29, Type (0, 0), BuildingBlock: XIVTED_clean_linker_0, # of connection points: 2
#     Edge 30, Type (0, 0), BuildingBlock: XIVTED_clean_linker_0, # of connection points: 2
#     Edge 31, Type (0, 0), BuildingBlock: XIVTED_clean_linker_0, # of connection points: 2
#     Edge 32, Type (0, 0), BuildingBlock: XIVTED_clean_linker_0, # of connection points: 2
#     Edge 33, Type (0, 0), BuildingBlock: XIVTED_clean_linker_0, # of connection points: 2
#     Edge 34, Type (0, 0), BuildingBlock: XIVTED_clean_linker_0, # of connection points: 2
#     Edge 35, Type (0, 0), BuildingBlock: XIVTED_clean_linker_0, # of connection points: 2
#     Edge 36, Type (0, 0), BuildingBlock: XIVTED_clean_linker_0, # of connection points: 2
#     Edge 37, Type (0, 0), BuildingBlock: XIVTED_clean_linker_0, # of connection points: 2
#     Edge 38, Type (0, 0), BuildingBlock: XIVTED_clean_linker_0, # of connection points: 2
#     Edge 39, Type (0, 0), BuildingBlock: XIVTED_clean_linker_0, # of connection points: 2
#     Edge 40, Type (0, 0), BuildingBlock: XIVTED_clean_linker_0, # of connection points: 2
#     Edge 41, Type (0, 0), BuildingBlock: XIVTED_clean_linker_0, # of connection points: 2
#     Edge 42, Type (0, 0), BuildingBlock: XIVTED_clean_linker_0, # of connection points: 2
#     Edge 43, Type (0, 0), BuildingBlock: XIVTED_clean_linker_0, # of connection points: 2
#     Edge 44, Type (0, 0), BuildingBlock: XIVTED_clean_linker_0, # of connection points: 2
#     Edge 45, Type (0, 0), BuildingBlock: XIVTED_clean_linker_0, # of connection points: 2
#     Edge 46, Type (0, 0), BuildingBlock: XIVTED_clean_linker_0, # of connection points: 2
#     Edge 47, Type (0, 0), BuildingBlock: XIVTED_clean_linker_0, # of connection points: 2
#     Edge 48, Type (0, 0), BuildingBlock: XIVTED_clean_linker_0, # of connection points: 2
#     Edge 49, Type (0, 0), BuildingBlock: XIVTED_clean_linker_0, # of connection points: 2
#     Edge 50, Type (0, 0), BuildingBlock: XIVTED_clean_linker_0, # of connection points: 2
#     Edge 51, Type (0, 0), BuildingBlock: XIVTED_clean_linker_0, # of connection points: 2
#     Edge 52, Type (0, 0), BuildingBlock: XIVTED_clean_linker_0, # of connection points: 2
#     Edge 53, Type (0, 0), BuildingBlock: XIVTED_clean_linker_0, # of connection points: 2
#     Edge 54, Type (0, 0), BuildingBlock: XIVTED_clean_linker_0, # of connection points: 2
#     Edge 55, Type (0, 0), BuildingBlock: XIVTED_clean_linker_0, # of connection points: 2
#     Edge 56, Type (0, 0), BuildingBlock: XIVTED_clean_linker_0, # of connection points: 2
#     Edge 57, Type (0, 0), BuildingBlock: XIVTED_clean_linker_0, # of connection points: 2
#     Edge 58, Type (0, 0), BuildingBlock: XIVTED_clean_linker_0, # of connection points: 2
#     Edge 59, Type (0, 0), BuildingBlock: XIVTED_clean_linker_0, # of connection points: 2
#     Edge 60, Type (0, 0), BuildingBlock: XIVTED_clean_linker_0, # of connection points: 2
#     Edge 61, Type (0, 0), BuildingBlock: XIVTED_clean_linker_0, # of connection points: 2
#     Edge 62, Type (0, 0), BuildingBlock: XIVTED_clean_linker_0, # of connection points: 2
#     Edge 63, Type (0, 0), BuildingBlock: XIVTED_clean_linker_0, # of connection points: 2
# Relax obj value: 0.565
# Max RMSD: 0.321
# Mean RMSD: 0.321
data_MOF--net-wiu--node1-BETGAK_clean_sbu_0--edge1-XIVTED_clean_linker_0
_symmetry_space_group_name_H-M    P1
_symmetry_Int_Tables_number       1
_symmetry_cell_setting            triclinic
loop_
_symmetry_equiv_pos_as_xyz
'x, y, z'
_cell_length_a     37.482043
_cell_length_b     37.391947
_cell_length_c     55.545395
_cell_angle_alpha  90.479145
_cell_angle_beta   89.842256
_cell_angle_gamma 90.103989
loop_
_atom_site_label
_atom_site_type_symbol
_atom_site_fract_x
_atom_site_fract_y
_atom_site_fract_z
_atom_type_partial_charge
La0 La 0.3543 0.18339 0.30364 0.0
La1 La 0.39854 0.12624 0.28539 0.0
C2 C 0.31428 0.23056 0.32226 0.0
C3 C 0.30523 0.26727 0.31482 0.0
C4 C 0.31808 0.28092 0.29296 0.0
C5 C 0.30956 0.31572 0.28589 0.0
C6 C 0.28758 0.33747 0.3004 0.0
C7 C 0.27464 0.32362 0.32228 0.0
C8 C 0.28351 0.28889 0.32944 0.0
C9 C 0.41842 0.20701 0.28777 0.0
C10 C 0.38433 0.1226 0.34092 0.0
C11 C 0.45167 0.09674 0.26579 0.0
C12 C 0.47995 0.11152 0.2507 0.0
C13 C 0.50891 0.09022 0.24394 0.0
C14 C 0.53661 0.10474 0.23033 0.0
C15 C 0.53587 0.14092 0.22342 0.0
C16 C 0.50703 0.16238 0.23081 0.0
C17 C 0.47922 0.14772 0.24427 0.0
C18 C 0.33352 0.10357 0.29694 0.0
C19 C 0.34558 0.16486 0.24749 0.0
O20 O 0.30291 0.20496 0.30808 0.0
O21 O 0.34737 0.22539 0.32869 0.0
O22 O 0.38786 0.2216 0.28403 0.0
O23 O 0.41214 0.17878 0.29974 0.0
O24 O 0.3605 0.14856 0.33679 0.0
O25 O 0.40514 0.11144 0.32318 0.0
O26 O 0.41968 0.09618 0.25651 0.0
O27 O 0.45154 0.10925 0.28775 0.0
O28 O 0.36165 0.08318 0.29686 0.0
O29 O 0.34275 0.13307 0.28839 0.0
O30 O 0.37519 0.14554 0.25053 0.0
O31 O 0.3313 0.1814 0.26656 0.0
H32 H 0.33446 0.26458 0.28119 0.0
H33 H 0.31953 0.32532 0.2688 0.0
H34 H 0.25787 0.33976 0.33396 0.0
H35 H 0.27331 0.27888 0.34637 0.0
H36 H 0.50995 0.06232 0.24901 0.0
H37 H 0.55796 0.08719 0.22449 0.0
H38 H 0.50573 0.19032 0.22591 0.0
H39 H 0.4571 0.1646 0.24967 0.0
La40 La 0.63274 0.60858 0.55231 0.0
La41 La 0.6918 0.64838 0.53702 0.0
C42 C 0.58334 0.57141 0.57077 0.0
C43 C 0.54653 0.56307 0.56323 0.0
C44 C 0.53138 0.57992 0.54321 0.0
C45 C 0.49678 0.57128 0.53574 0.0
C46 C 0.47672 0.54533 0.548 0.0
C47 C 0.49198 0.52859 0.56813 0.0
C48 C 0.52655 0.53745 0.57568 0.0
C49 C 0.61246 0.67379 0.53703 0.0
C50 C 0.68783 0.64112 0.59179 0.0
C51 C 0.73355 0.69078 0.51622 0.0
C52 C 0.76162 0.68558 0.49783 0.0
C53 C 0.79762 0.68497 0.50485 0.0
C54 C 0.82457 0.67924 0.4879 0.0
C55 C 0.81617 0.67454 0.46345 0.0
C56 C 0.78006 0.67474 0.45649 0.0
C57 C 0.75307 0.68011 0.47349 0.0
C58 C 0.71021 0.58202 0.54928 0.0
C59 C 0.65505 0.59559 0.49716 0.0
O60 O 0.60851 0.55833 0.55706 0.0
O61 O 0.58974 0.6047 0.57659 0.0
O62 O 0.59834 0.64347 0.53128 0.0
O63 O 0.63972 0.66684 0.54995 0.0
O64 O 0.6667 0.61356 0.58599 0.0
O65 O 0.69489 0.6646 0.57489 0.0
O66 O 0.74017 0.67619 0.53698 0.0
O67 O 0.70027 0.68607 0.50964 0.0
O68 O 0.73084 0.60961 0.55136 0.0
O69 O 0.68262 0.59222 0.53883 0.0
O70 O 0.67879 0.62139 0.50173 0.0
O71 O 0.63365 0.58519 0.51501 0.0
H72 H 0.54641 0.59947 0.53315 0.0
H73 H 0.48607 0.58433 0.52 0.0
H74 H 0.47713 0.50875 0.57813 0.0
H75 H 0.53776 0.52411 0.59115 0.0
H76 H 0.805 0.68898 0.52353 0.0
H77 H 0.85202 0.67898 0.49392 0.0
H78 H 0.77257 0.67205 0.43774 0.0
H79 H 0.72561 0.68035 0.46749 0.0
La80 La 0.20747 0.88713 0.80273 0.0
La81 La 0.16388 0.94371 0.78402 0.0
C82 C 0.24735 0.84044 0.82134 0.0
C83 C 0.25726 0.80405 0.81334 0.0
C84 C 0.24611 0.79094 0.79081 0.0
C85 C 0.25522 0.75633 0.78326 0.0
C86 C 0.27603 0.73423 0.79799 0.0
C87 C 0.28725 0.74755 0.82054 0.0
C88 C 0.27783 0.78211 0.82817 0.0
C89 C 0.14383 0.86304 0.7865 0.0
C90 C 0.17808 0.95022 0.83956 0.0
C91 C 0.10987 0.97214 0.76544 0.0
C92 C 0.07866 0.95787 0.75238 0.0
C93 C 0.04539 0.95629 0.76408 0.0
C94 C 1.01542 0.94305 0.7521 0.0
C95 C 1.018 0.93154 0.72803 0.0
C96 C 0.05157 0.93223 0.71657 0.0
C97 C 0.08159 0.94518 0.72863 0.0
C98 C 0.22865 0.96681 0.7957 0.0
C99 C 0.21783 0.90501 0.74644 0.0
O100 O 0.259 0.86647 0.80791 0.0
O101 O 0.21387 0.84495 0.82719 0.0
O102 O 0.17453 0.84849 0.78283 0.0
O103 O 0.14978 0.89164 0.79849 0.0
O104 O 0.19939 0.92177 0.83624 0.0
O105 O 0.15952 0.96255 0.82126 0.0
O106 O 0.141 0.97067 0.75475 0.0
O107 O 0.11179 0.9627 0.78794 0.0
O108 O 0.20069 0.98736 0.79479 0.0
O109 O 0.21959 0.93688 0.78747 0.0
O110 O 0.1883 0.9246 0.74925 0.0
O111 O 0.23135 0.88857 0.76563 0.0
H112 H 0.23056 0.80755 0.77894 0.0
H113 H 0.24657 0.74714 0.76568 0.0
H114 H 0.30306 0.73112 0.83241 0.0
H115 H 0.28665 0.7917 0.84563 0.0
H116 H 0.04246 0.96566 0.78249 0.0
H117 H 0.99007 0.94266 0.76149 0.0
H118 H 0.05448 0.92434 0.69787 0.0
H119 H 0.10687 0.94585 0.71915 0.0
La120 La 0.92942 0.46042 1.05096 0.0
La121 La 0.87167 0.41835 1.03242 0.0
C122 C 0.97741 0.4992 1.06983 0.0
C123 C 1.01406 0.50832 1.0622 0.0
C124 C 1.02803 0.49482 1.04046 0.0
C125 C 0.06284 0.50334 1.03329 0.0
C126 C 0.08427 0.52593 1.04757 0.0
C127 C 0.07009 0.53952 1.06931 0.0
C128 C 0.03536 0.53067 1.07658 0.0
C129 C 0.95157 0.39595 1.03449 0.0
C130 C 0.86699 0.43198 1.08808 0.0
C131 C 0.84006 0.366 1.01303 0.0
C132 C 0.85312 0.33425 1.00031 0.0
C133 C 0.82937 0.3068 0.99434 0.0
C134 C 0.84182 0.27586 0.98296 0.0
C135 C 0.87836 0.27176 0.97756 0.0
C136 C 0.90224 0.29911 0.98427 0.0
C137 C 0.88965 0.3302 0.99547 0.0
C138 C 0.85028 0.48366 1.04489 0.0
C139 C 0.91075 0.47156 0.99495 0.0
O140 O 0.95184 0.51149 1.05633 0.0
O141 O 0.97193 0.46579 1.07541 0.0
O142 O 0.9665 0.42641 1.03054 0.0
O143 O 0.92339 0.40259 1.0466 0.0
O144 O 0.89558 0.45302 1.08469 0.0
O145 O 0.85388 0.41364 1.06973 0.0
O146 O 0.84499 0.39662 1.00237 0.0
O147 O 0.84898 0.36746 1.03565 0.0
O148 O 0.82934 0.45592 1.04401 0.0
O149 O 0.87972 0.47421 1.03623 0.0
O150 O 0.89042 0.44252 0.99773 0.0
O151 O 0.92806 0.48459 1.01411 0.0
H152 H 1.01196 0.4779 1.02891 0.0
H153 H 0.07271 0.49284 1.01631 0.0
H154 H 0.08598 0.55677 1.08081 0.0
H155 H 1.0251 0.54136 1.09341 0.0
H156 H 0.80115 0.30946 0.99822 0.0
H157 H 0.82248 0.25582 0.97756 0.0
H158 H 0.93051 0.29676 0.9805 0.0
H159 H 0.90834 0.35118 1.00027 0.0
La160 La 0.66804 0.94832 1.01354 0.0
La161 La 0.7072 0.88797 0.99846 0.0
C162 C 0.62552 0.99122 1.03346 0.0
C163 C 0.6299 1.02041 1.05117 0.0
C164 C 0.62384 0.05576 1.04395 0.0
C165 C 0.62867 0.08414 1.06006 0.0
C166 C 0.63913 0.07769 1.08391 0.0
C167 C 0.6459 0.04224 1.09096 0.0
C168 C 0.6415 1.01389 1.07472 0.0
C169 C 0.73497 0.96539 1.00147 0.0
C170 C 0.71931 0.91137 1.05361 0.0
C171 C 0.7441 0.83789 0.98021 0.0
C172 C 0.75267 0.80122 0.98787 0.0
C173 C 0.73556 0.78594 1.00784 0.0
C174 C 0.74451 0.75145 1.01536 0.0
C175 C 0.77097 0.73166 1.00318 0.0
C176 C 0.78789 0.74709 0.9831 0.0
C177 C 0.77878 0.78151 0.97552 0.0
C178 C 0.64158 0.86916 1.01386 0.0
C179 C 0.67587 0.94283 0.95878 0.0
O180 O 0.64088 0.99698 1.01275 0.0
O181 O 0.63007 0.95826 1.04077 0.0
O182 O 0.70797 0.98661 0.99936 0.0
O183 O 0.72385 0.93797 1.01178 0.0
O184 O 0.69404 0.93547 1.04894 0.0
O185 O 0.72962 0.8894 1.03587 0.0
O186 O 0.75725 0.86356 0.99355 0.0
O187 O 0.71083 0.84398 0.97471 0.0
O188 O 0.6714 0.8544 1.01959 0.0
O189 O 0.64929 0.89609 1.00077 0.0
O190 O 0.703 0.92144 0.96462 0.0
O191 O 0.65241 0.95055 0.97569 0.0
H192 H 0.61529 0.06147 1.02576 0.0
H193 H 0.62361 0.11107 1.05394 0.0
H194 H 0.65327 0.03612 1.1093 0.0
H195 H 0.64677 0.98694 1.08074 0.0
H196 H 0.71555 0.80077 1.01778 0.0
H197 H 0.73125 0.74061 1.03105 0.0
H198 H 0.80808 0.73246 0.97312 0.0
H199 H 0.7923 0.79282 0.96008 0.0
La200 La 0.36902 0.41871 0.76252 0.0
La201 La 0.42738 0.45955 0.74616 0.0
C202 C 0.32774 0.37585 0.78333 0.0
C203 C 0.29964 0.38084 0.80171 0.0
C204 C 0.26363 0.38065 0.79472 0.0
C205 C 0.23663 0.38646 0.81163 0.0
C206 C 0.24502 0.39206 0.836 0.0
C207 C 0.28114 0.39256 0.84293 0.0
C208 C 0.30816 0.38712 0.82597 0.0
C209 C 0.34976 0.48518 0.75078 0.0
C210 C 0.40645 0.47193 0.80165 0.0
C211 C 0.47642 0.49711 0.72763 0.0
C212 C 0.5129 0.50588 0.73564 0.0
C213 C 0.53469 0.52818 0.72175 0.0
C214 C 0.56902 0.53729 0.72966 0.0
C215 C 0.58223 0.52408 0.75158 0.0
C216 C 0.56034 0.50141 0.7653 0.0
C217 C 0.52597 0.49257 0.75747 0.0
C218 C 0.44839 0.39475 0.76176 0.0
C219 C 0.3719 0.42606 0.70752 0.0
O220 O 0.32096 0.39035 0.76257 0.0
O221 O 0.36096 0.38093 0.7899 0.0
O222 O 0.329 0.45763 0.74938 0.0
O223 O 0.37785 0.47486 0.76048 0.0
O224 O 0.38491 0.44394 0.79796 0.0
O225 O 0.42507 0.48433 0.78299 0.0
O226 O 0.45076 0.51007 0.74097 0.0
O227 O 0.47054 0.46366 0.72198 0.0
O228 O 0.46248 0.42524 0.76713 0.0
O229 O 0.42092 0.40126 0.74894 0.0
O230 O 0.39268 0.45402 0.71296 0.0
O231 O 0.3657 0.40251 0.72456 0.0
H232 H 0.25628 0.37602 0.7761 0.0
H233 H 0.20916 0.38612 0.80563 0.0
H234 H 0.28863 0.39592 0.86163 0.0
H235 H 0.33565 0.38752 0.83195 0.0
H236 H 0.52509 0.53874 0.70486 0.0
H237 H 0.58531 0.55455 0.71855 0.0
H238 H 0.56945 0.49118 0.7824 0.0
H239 H 0.50946 0.47569 0.76864 0.0
La240 La 0.89525 0.12033 0.51577 0.0
La241 La 0.8566 0.17966 0.49884 0.0
C242 C 0.93714 0.08006 0.53808 0.0
C243 C 0.93052 0.05366 0.55683 0.0
C244 C 0.95818 1.03148 0.56443 0.0
C245 C 0.9515 1.00501 0.58142 0.0
C246 C 0.91704 1.00046 0.59108 0.0
C247 C 0.88927 1.02257 0.5832 0.0
C248 C 0.89592 0.04879 0.56601 0.0
C249 C 0.8294 0.10206 0.50239 0.0
C250 C 0.84147 0.15887 0.55408 0.0
C251 C 0.82007 0.22879 0.47982 0.0
C252 C 0.81003 0.26507 0.48794 0.0
C253 C 0.82354 0.27937 0.50953 0.0
C254 C 0.8135 0.3136 0.51736 0.0
C255 C 0.78945 0.3341 0.50385 0.0
C256 C 0.77607 0.31964 0.48217 0.0
C257 C 0.78632 0.28548 0.47429 0.0
C258 C 0.92133 0.19957 0.5151 0.0
C259 C 0.88972 0.12185 0.46054 0.0
O260 O 0.92282 0.07189 0.51739 0.0
O261 O 0.9318 0.11361 0.54404 0.0
O262 O 0.85656 0.0808 0.50156 0.0
O263 O 0.83957 0.13027 0.51249 0.0
O264 O 0.86703 0.13473 0.55023 0.0
O265 O 0.83208 0.17992 0.53587 0.0
O266 O 0.80639 0.20253 0.49213 0.0
O267 O 0.85393 0.22365 0.47553 0.0
O268 O 0.89119 0.21443 0.5202 0.0
O269 O 0.91435 0.1718 0.50234 0.0
O270 O 0.86382 0.14562 0.46502 0.0
O271 O 0.91124 0.1133 0.47829 0.0
H272 H 0.9849 0.03465 0.55725 0.0
H273 H 0.97357 0.98881 0.58753 0.0
H274 H 0.86252 1.01962 0.59036 0.0
H275 H 0.87406 0.06512 0.55977 0.0
H276 H 0.84161 0.26395 0.52048 0.0
H277 H 0.82396 0.32368 0.53427 0.0
H278 H 0.75783 0.33484 0.47118 0.0
H279 H 0.77561 0.27493 0.45758 0.0
La280 La 0.19269 0.65186 0.26708 0.0
La281 La 0.13647 0.60884 0.24723 0.0
C282 C 0.22244 0.7048 0.28691 0.0
C283 C 0.20808 0.73487 0.30077 0.0
C284 C 0.22997 0.76412 0.30611 0.0
C285 C 0.21599 0.79377 0.31822 0.0
C286 C 0.17977 0.79468 0.32506 0.0
C287 C 0.1577 0.7655 0.3191 0.0
C288 C 0.1718 0.73578 0.30705 0.0
C289 C 0.21553 0.58671 0.25513 0.0
C290 C 0.15293 0.59819 0.30349 0.0
C291 C 0.08926 0.56938 0.22811 0.0
C292 C 0.05303 0.55922 0.23604 0.0
C293 C 0.04005 0.57031 0.25864 0.0
C294 C 1.00561 0.56091 0.2661 0.0
C295 C 0.98353 0.53986 0.25121 0.0
C296 C 0.99672 0.52872 0.22858 0.0
C297 C 0.0311 0.53843 0.22105 0.0
C298 C 0.11289 0.67268 0.2641 0.0
C299 C 0.19932 0.6388 0.21124 0.0
O300 O 0.22027 0.67329 0.29685 0.0
O301 O 0.21214 0.7041 0.26452 0.0
O302 O 0.23605 0.61473 0.25644 0.0
O303 O 0.18558 0.59591 0.26302 0.0
O304 O 0.17043 0.62916 0.30141 0.0
O305 O 0.13902 0.58352 0.28363 0.0
O306 O 0.11542 0.55736 0.2412 0.0
O307 O 0.09382 0.60306 0.22291 0.0
O308 O 0.0984 0.64187 0.26766 0.0
O309 O 0.14128 0.66668 0.2521 0.0
O310 O 0.17104 0.6172 0.21405 0.0
O311 O 0.21149 0.65712 0.22993 0.0
H312 H 0.25792 0.76394 0.30106 0.0
H313 H 0.23395 0.81539 0.32301 0.0
H314 H 0.12973 0.76544 0.32404 0.0
H315 H 0.15444 0.7135 0.30262 0.0
H316 H 0.05664 0.58605 0.27062 0.0
H317 H 0.99653 0.56952 0.28374 0.0
H318 H 0.98031 0.51277 0.21658 0.0
H319 H 0.04058 0.52965 0.20353 0.0
La320 La 0.85574 0.68052 0.80194 0.0
La321 La 0.8946 0.62096 0.78549 0.0
C322 C 0.81906 0.72998 0.8211 0.0
C323 C 0.80955 0.76624 0.81315 0.0
C324 C 0.82324 0.77989 0.79152 0.0
C325 C 0.81342 0.81395 0.78369 0.0
C326 C 0.78942 0.83493 0.79722 0.0
C327 C 0.77593 0.82116 0.81896 0.0
C328 C 0.78596 0.78716 0.82685 0.0
C329 C 0.92071 0.70029 0.78587 0.0
C330 C 0.88894 0.62482 0.84047 0.0
C331 C 0.93561 0.57914 0.7633 0.0
C332 C 0.92908 0.5522 0.74424 0.0
C333 C 0.92897 0.51572 0.75011 0.0
C334 C 0.92153 0.4898 0.73263 0.0
C335 C 0.91461 0.49974 0.70876 0.0
C336 C 0.91423 0.53635 0.70299 0.0
C337 C 0.92127 0.5623 0.72055 0.0
C338 C 0.8283 0.6033 0.79856 0.0
C339 C 0.84168 0.65878 0.74674 0.0
O340 O 0.80555 0.70379 0.8084 0.0
O341 O 0.85274 0.72456 0.82571 0.0
O342 O 0.8906 0.71491 0.78069 0.0
O343 O 0.91365 0.67289 0.79866 0.0
O344 O 0.86161 0.64638 0.83538 0.0
O345 O 0.91168 0.61733 0.82303 0.0
O346 O 0.92104 0.57185 0.78406 0.0
O347 O 0.93202 0.61295 0.75768 0.0
O348 O 0.85548 0.58219 0.80011 0.0
O349 O 0.83889 0.63087 0.7882 0.0
O350 O 0.86721 0.63471 0.75073 0.0
O351 O 0.83188 0.68016 0.76492 0.0
H352 H 0.84119 0.76405 0.78052 0.0
H353 H 0.82396 0.8235 0.76673 0.0
H354 H 0.7577 0.83676 0.82995 0.0
H355 H 0.77509 0.77709 0.84358 0.0
H356 H 0.93462 0.5072 0.7683 0.0
H357 H 0.92174 0.46192 0.73776 0.0
H358 H 0.90982 0.54503 0.68469 0.0
H359 H 0.92092 0.5902 0.71546 0.0
La360 La 0.13562 0.10767 1.05428 0.0
La361 La 0.19152 0.15259 1.03535 0.0
C362 C 0.08867 0.06769 1.0728 0.0
C363 C 0.0521 0.0585 1.06506 0.0
C364 C 0.03973 0.06879 1.04229 0.0
C365 C 1.0052 0.05985 1.0348 0.0
C366 C 0.98241 0.04006 1.04982 0.0
C367 C 0.99491 1.02985 1.07266 0.0
C368 C 1.0294 0.0391 1.08022 0.0
C369 C 0.11105 0.171 1.03779 0.0
C370 C 0.19616 0.13938 1.09111 0.0
C371 C 0.22085 0.2057 1.01588 0.0
C372 C 0.20657 0.2346 1.00126 0.0
C373 C 0.22802 0.26408 0.99596 0.0
C374 C 0.21412 0.29249 0.9829 0.0
C375 C 0.17842 0.2919 0.97505 0.0
C376 C 0.15672 0.26256 0.981 0.0
C377 C 0.17074 0.23407 0.99401 0.0
C378 C 0.21554 0.08825 1.04728 0.0
C379 C 0.15341 0.09746 0.99829 0.0
O380 O 0.11419 0.05618 1.05873 0.0
O381 O 0.09391 0.10093 1.07935 0.0
O382 O 0.09694 0.13996 1.03424 0.0
O383 O 0.13931 0.16564 1.04985 0.0
O384 O 0.17075 0.1148 1.08715 0.0
O385 O 0.20631 0.16038 1.07332 0.0
O386 O 0.22047 0.17371 1.00621 0.0
O387 O 0.20893 0.20563 1.03793 0.0
O388 O 0.23548 0.11673 1.04645 0.0
O389 O 0.18577 0.09664 1.03893 0.0
O390 O 0.16994 0.12902 1.00074 0.0
O391 O 0.13969 0.08233 1.01789 0.0
H392 H 0.05692 0.08337 1.03014 0.0
H393 H 0.99666 0.06769 1.017 0.0
H394 H 0.97794 1.01488 1.08476 0.0
H395 H 0.03841 1.03094 1.09786 0.0
H396 H 0.2556 0.26499 1.00174 0.0
H397 H 0.23183 0.31427 0.97816 0.0
H398 H 0.12912 0.26139 0.9753 0.0
H399 H 0.15369 0.21161 0.99838 0.0
La400 La 0.70871 0.38739 0.30192 0.0
La401 La 0.66874 0.4461 0.28546 0.0
C402 C 0.74555 0.33798 0.32016 0.0
C403 C 0.75555 0.30144 0.31178 0.0
C404 C 0.73793 0.27121 0.32096 0.0
C405 C 0.74684 0.23676 0.31285 0.0
C406 C 0.7738 0.23165 0.29548 0.0
C407 C 0.79141 0.26195 0.28634 0.0
C408 C 0.78248 0.29633 0.2944 0.0
C409 C 0.6437 0.36674 0.28631 0.0
C410 C 0.67548 0.4434 0.34056 0.0
C411 C 0.62612 0.48703 0.26435 0.0
C412 C 0.63188 0.51368 0.24564 0.0
C413 C 0.60432 0.53698 0.23953 0.0
C414 C 0.61024 0.56368 0.22259 0.0
C415 C 0.64388 0.56746 0.21154 0.0
C416 C 0.67161 0.54424 0.21799 0.0
C417 C 0.66569 0.51764 0.23504 0.0
C418 C 0.73525 0.46487 0.29764 0.0
C419 C 0.72156 0.40768 0.24652 0.0
O420 O 0.75909 0.36486 0.30834 0.0
O421 O 0.71194 0.34333 0.32523 0.0
O422 O 0.67387 0.35201 0.28098 0.0
O423 O 0.65073 0.39451 0.29901 0.0
O424 O 0.70305 0.42214 0.33529 0.0
O425 O 0.65237 0.45004 0.32331 0.0
O426 O 0.64149 0.4948 0.28477 0.0
O427 O 0.63098 0.45356 0.25803 0.0
O428 O 0.70796 0.48588 0.29911 0.0
O429 O 0.72458 0.4368 0.2877 0.0
O430 O 0.69397 0.42961 0.25016 0.0
O431 O 0.73346 0.38891 0.26517 0.0
H432 H 0.71721 0.2742 0.33446 0.0
H433 H 0.73303 0.21407 0.32053 0.0
H434 H 0.81199 0.25916 0.27274 0.0
H435 H 0.79668 0.31891 0.28688 0.0
H436 H 0.57823 0.53448 0.2478 0.0
H437 H 0.58813 0.58067 0.2176 0.0
H438 H 0.69776 0.54656 0.20979 0.0
H439 H 0.6875 0.50026 0.24001 0.0
La440 La 0.42664 0.96002 0.55206 0.0
La441 La 0.36726 0.92026 0.53645 0.0
C442 C 0.47568 0.99768 0.57074 0.0
C443 C 0.51211 1.00696 0.56287 0.0
C444 C 0.5264 0.99233 0.54157 0.0
C445 C 0.56068 1.00184 0.53387 0.0
C446 C 0.58124 1.02645 0.54721 0.0
C447 C 0.56681 0.04092 0.56861 0.0
C448 C 0.53258 1.0312 0.57637 0.0
C449 C 0.44679 0.89463 0.5364 0.0
C450 C 0.37138 0.9271 0.59127 0.0
C451 C 0.32515 0.87841 0.51525 0.0
C452 C 0.2975 0.88445 0.49686 0.0
C453 C 0.26145 0.88647 0.50379 0.0
C454 C 0.23502 0.89352 0.48686 0.0
C455 C 0.24397 0.89816 0.46252 0.0
C456 C 0.28014 0.89645 0.45565 0.0
C457 C 0.30662 0.88977 0.47262 0.0
C458 C 0.34967 0.98711 0.54914 0.0
C459 C 0.4044 0.97257 0.49691 0.0
O460 O 0.44995 1.01059 0.55768 0.0
O461 O 0.4701 0.96412 0.57585 0.0
O462 O 0.46122 0.92483 0.53092 0.0
O463 O 0.41929 0.90182 0.54925 0.0
O464 O 0.39255 0.9547 0.58579 0.0
O465 O 0.36417 0.90379 0.57407 0.0
O466 O 0.31855 0.89307 0.5362 0.0
O467 O 0.35862 0.88242 0.50881 0.0
O468 O 0.32856 0.95988 0.55106 0.0
O469 O 0.37708 0.97617 0.53866 0.0
O470 O 0.38061 0.94683 0.50133 0.0
O471 O 0.42584 0.983 0.5148 0.0
H472 H 0.51091 0.97385 0.53074 0.0
H473 H 0.57076 0.99055 0.51718 0.0
H474 H 0.58206 0.05964 0.57945 0.0
H475 H 0.52201 0.04279 0.59284 0.0
H476 H 0.25364 0.88264 0.52239 0.0
H477 H 0.20752 0.89487 0.49282 0.0
H478 H 0.28802 0.899 0.43697 0.0
H479 H 0.33413 0.88848 0.46668 0.0
La480 La 0.16461 0.44407 0.51562 0.0
La481 La 0.20688 0.38701 0.49647 0.0
C482 C 0.11233 0.47504 0.53534 0.0
C483 C 0.08112 0.46165 0.54825 0.0
C484 C 0.05354 0.4851 0.55435 0.0
C485 C 1.02299 0.47229 0.56578 0.0
C486 C 1.0194 0.43566 0.57111 0.0
C487 C 0.04692 0.41208 0.56434 0.0
C488 C 0.07763 0.42505 0.55309 0.0
C489 C 0.22948 0.46646 0.50357 0.0
C490 C 0.21814 0.40512 0.55268 0.0
C491 C 0.24572 0.33914 0.47754 0.0
C492 C 0.2554 0.30308 0.48589 0.0
C493 C 0.24481 0.2915 0.50882 0.0
C494 C 0.25347 0.25716 0.5167 0.0
C495 C 0.2733 0.2338 0.50192 0.0
C496 C 0.28405 0.2456 0.47898 0.0
C497 C 0.27503 0.27989 0.47101 0.0
C498 C 0.14327 0.36374 0.51324 0.0
C499 C 0.17766 0.44945 0.45996 0.0
O500 O 0.14318 0.47088 0.54581 0.0
O501 O 0.1134 0.46568 0.51271 0.0
O502 O 0.20163 0.48709 0.50461 0.0
O503 O 0.22042 0.43671 0.51182 0.0
O504 O 0.18889 0.42505 0.55014 0.0
O505 O 0.23134 0.3884 0.53329 0.0
O506 O 0.25807 0.36575 0.49041 0.0
O507 O 0.21213 0.34374 0.47224 0.0
O508 O 0.17399 0.34946 0.517 0.0
O509 O 0.14918 0.39194 0.50111 0.0
O510 O 0.19883 0.42095 0.46305 0.0
O511 O 0.15943 0.46221 0.47848 0.0
H512 H 0.05577 0.51337 0.55047 0.0
H513 H 1.00281 0.49141 0.57124 0.0
H514 H 0.04497 0.38376 0.56806 0.0
H515 H 0.09871 0.40658 0.5482 0.0
H516 H 0.23001 0.30909 0.52074 0.0
H517 H 0.24524 0.24915 0.53457 0.0
H518 H 0.29912 0.22816 0.46709 0.0
H519 H 0.28341 0.28829 0.45325 0.0
La520 La 0.87566 0.91771 0.26552 0.0
La521 La 0.93072 0.96279 0.24634 0.0
C522 C 0.84642 0.86448 0.28495 0.0
C523 C 0.86013 0.83512 0.2994 0.0
C524 C 0.838 0.80604 0.30446 0.0
C525 C 0.85115 0.77717 0.31741 0.0
C526 C 0.88677 0.7769 0.32543 0.0
C527 C 0.90916 0.80585 0.31973 0.0
C528 C 0.89591 0.83478 0.30678 0.0
C529 C 0.85054 0.98157 0.25364 0.0
C530 C 0.91347 0.97331 0.30232 0.0
C531 C 0.97764 1.00261 0.22782 0.0
C532 C 1.01472 1.01194 0.23502 0.0
C533 C 0.04281 0.98712 0.23304 0.0
C534 C 0.0773 0.99609 0.2408 0.0
C535 C 0.08457 1.03005 0.2508 0.0
C536 C 0.05635 0.05476 0.25274 0.0
C537 C 1.02203 0.0459 0.24483 0.0
C538 C 0.95606 0.89971 0.26284 0.0
C539 C 0.87013 0.93111 0.20976 0.0
O540 O 0.84721 0.89633 0.2948 0.0
O541 O 0.85831 0.86467 0.2629 0.0
O542 O 0.83111 0.95279 0.25457 0.0
O543 O 0.88062 0.97387 0.26184 0.0
O544 O 0.89738 0.9415 0.30004 0.0
O545 O 0.9266 0.98852 0.28258 0.0
O546 O 0.95235 1.01427 0.24205 0.0
O547 O 0.97155 0.96974 0.22067 0.0
O548 O 0.96984 0.93094 0.26637 0.0
O549 O 0.92776 0.90482 0.25078 0.0
O550 O 0.89534 0.95587 0.21363 0.0
O551 O 0.8605 0.90991 0.22759 0.0
H552 H 0.81046 0.80579 0.29859 0.0
H553 H 0.83294 0.75573 0.32195 0.0
H554 H 0.9367 0.80635 0.3256 0.0
H555 H 0.91348 0.85692 0.30258 0.0
H556 H 0.03822 0.96066 0.22557 0.0
H557 H 0.09832 0.97649 0.23866 0.0
H558 H 0.06055 0.08094 0.26071 0.0
H559 H 1.00099 0.06558 0.24668 0.0
La560 La 0.39746 0.62747 1.01523 0.0
La561 La 0.35386 0.68371 0.99619 0.0
C562 C 0.45146 0.59902 1.03374 0.0
C563 C 0.48174 0.61287 1.04794 0.0
C564 C 0.51533 0.61657 1.0369 0.0
C565 C 0.54445 0.62952 1.04993 0.0
C566 C 0.5407 0.6386 1.07438 0.0
C567 C 0.5068 0.63574 1.08523 0.0
C568 C 0.47761 0.62308 1.07214 0.0
C569 C 0.33252 0.60417 1.00389 0.0
C570 C 0.34399 0.66653 1.05252 0.0
C571 C 0.31448 0.73109 0.97805 0.0
C572 C 0.30435 0.7677 0.98624 0.0
C573 C 0.32237 0.79788 0.97731 0.0
C574 C 0.31383 0.83231 0.98564 0.0
C575 C 0.28688 0.83748 1.003 0.0
C576 C 0.26868 0.80728 1.01176 0.0
C577 C 0.27722 0.7729 1.00347 0.0
C578 C 0.41737 0.7079 1.01257 0.0
C579 C 0.38317 0.62076 0.95957 0.0
O580 O 0.41985 0.59865 1.04386 0.0
O581 O 0.45023 0.61045 1.01163 0.0
O582 O 0.36051 0.58369 1.00484 0.0
O583 O 0.34165 0.63426 1.01182 0.0
O584 O 0.37486 0.64906 1.05001 0.0
O585 O 0.32921 0.68066 1.03292 0.0
O586 O 0.30239 0.70435 0.9907 0.0
O587 O 0.34785 0.7263 0.97198 0.0
O588 O 0.38661 0.7224 1.01629 0.0
O589 O 0.41146 0.67937 1.0005 0.0
O590 O 0.36195 0.64923 0.96279 0.0
O591 O 0.40164 0.60838 0.97792 0.0
H592 H 0.51919 0.60912 1.01818 0.0
H593 H 0.57008 0.63163 1.041 0.0
H594 H 0.50304 0.64172 1.10417 0.0
H595 H 0.45205 0.62072 1.08114 0.0
H596 H 0.34324 0.79488 0.96392 0.0
H597 H 0.32804 0.85492 0.97819 0.0
H598 H 0.24805 0.8101 1.02533 0.0
H599 H 0.26271 0.75036 1.01077 0.0
La600 La 0.69192 0.14721 0.76437 0.0
La601 La 0.63265 0.10781 0.74846 0.0
C602 C 0.73333 0.18894 0.78628 0.0
C603 C 0.76024 0.18265 0.80513 0.0
C604 C 0.79662 0.18256 0.79896 0.0
C605 C 0.82249 0.17506 0.8162 0.0
C606 C 0.81258 0.16804 0.84011 0.0
C607 C 0.77608 0.16775 0.84619 0.0
C608 C 0.75018 0.17486 0.82888 0.0
C609 C 0.71017 0.08101 0.75111 0.0
C610 C 0.65463 0.09411 0.80342 0.0
C611 C 0.58322 0.07099 0.72948 0.0
C612 C 0.54636 0.06272 0.73698 0.0
C613 C 0.53119 0.07952 0.75726 0.0
C614 C 0.4965 0.07101 0.76464 0.0
C615 C 0.47638 0.04523 0.75203 0.0
C616 C 0.49168 1.02855 0.73165 0.0
C617 C 0.52633 0.03728 0.72419 0.0
C618 C 0.61289 0.17325 0.76426 0.0
C619 C 0.68813 0.14062 0.70946 0.0
O620 O 0.74068 0.17433 0.76543 0.0
O621 O 0.69961 0.18503 0.79215 0.0
O622 O 0.73091 0.10856 0.74944 0.0
O623 O 0.68238 0.09112 0.76163 0.0
O624 O 0.67871 0.11965 0.7992 0.0
O625 O 0.63307 0.08428 0.78547 0.0
O626 O 0.60831 0.05768 0.74292 0.0
O627 O 0.58975 0.10431 0.72419 0.0
O628 O 0.59841 0.14312 0.7698 0.0
O629 O 0.64024 0.1659 0.75135 0.0
O630 O 0.66677 0.11313 0.71482 0.0
O631 O 0.69552 0.16375 0.72676 0.0
H632 H 0.80512 0.18821 0.78072 0.0
H633 H 0.85028 0.17522 0.81083 0.0
H634 H 0.76743 0.16329 0.86454 0.0
H635 H 0.72236 0.17449 0.8342 0.0
H636 H 0.54626 0.09895 0.76757 0.0
H637 H 0.48575 0.084 0.78058 0.0
H638 H 0.47679 1.00884 0.72138 0.0
H639 H 0.53756 1.02399 0.70851 0.0
H640 H 0.49001 0.18621 0.2935 0.0
H641 H 0.57261 0.38721 0.29528 0.0
H642 H 0.42551 0.27989 0.2827 0.0
H643 H 0.6361 0.29415 0.27909 0.0
H644 H 0.51883 0.34864 0.29579 0.0
H645 H 0.54379 0.22473 0.29321 0.0
C646 C 0.48696 0.21476 0.29116 0.0
C647 C 0.45263 0.22937 0.28806 0.0
C648 C 0.54457 0.33663 0.29216 0.0
C649 C 0.51481 0.27439 0.28823 0.0
C650 C 0.57545 0.3588 0.2919 0.0
C651 C 0.60949 0.34439 0.28705 0.0
C652 C 0.54735 0.29931 0.28805 0.0
C653 C 0.6108 0.30698 0.28283 0.0
C654 C 0.51784 0.2369 0.29096 0.0
C655 C 0.45105 0.26693 0.28509 0.0
N656 N 0.58068 0.28606 0.2836 0.0
N657 N 0.48121 0.28782 0.28544 0.0
H658 H 0.63103 0.74605 0.54515 0.0
H659 H 0.42806 0.82263 0.54472 0.0
H660 H 0.5397 0.6789 0.53148 0.0
H661 H 0.5196 0.88924 0.53088 0.0
H662 H 0.46806 0.76996 0.54551 0.0
H663 H 0.59099 0.79873 0.54558 0.0
C664 C 0.6027 0.74217 0.54237 0.0
C665 C 0.58924 0.70743 0.53819 0.0
C666 C 0.47941 0.79616 0.54236 0.0
C667 C 0.54247 0.7683 0.53908 0.0
C668 C 0.45642 0.8264 0.54196 0.0
C669 C 0.46995 0.86098 0.53763 0.0
C670 C 0.51668 0.80013 0.53896 0.0
C671 C 0.50738 0.86348 0.53418 0.0
C672 C 0.57969 0.77241 0.54256 0.0
C673 C 0.55186 0.70478 0.53467 0.0
N674 N 0.52907 0.83397 0.53507 0.0
N675 N 0.53014 0.73431 0.53536 0.0
H676 H 0.0717 0.88338 0.78963 0.0
H677 H 0.99177 0.68136 0.79637 0.0
H678 H 0.13802 0.78968 0.78444 0.0
H679 H 0.92786 0.77221 0.7769 0.0
H680 H 0.04501 0.72071 0.7968 0.0
H681 H 1.01847 0.84406 0.78967 0.0
C682 C 0.07525 0.85467 0.78864 0.0
C683 C 0.10993 0.84026 0.78703 0.0
C684 C 1.01929 0.73205 0.79246 0.0
C685 C 0.04838 0.79439 0.78745 0.0
C686 C 0.98873 0.70944 0.79224 0.0
C687 C 0.95473 0.72298 0.78652 0.0
C688 C 1.01622 0.76898 0.78739 0.0
C689 C 0.95314 0.76002 0.78135 0.0
C690 C 0.0447 0.83207 0.7886 0.0
C691 C 0.11219 0.80248 0.78566 0.0
N692 N 0.98294 0.78139 0.78207 0.0
N693 N 0.0823 0.7812 0.78608 0.0
H694 H 0.13149 0.243 1.04293 0.0
H695 H 0.93106 0.32478 1.0434 0.0
H696 H 0.03833 0.17733 1.03202 0.0
H697 H 1.02384 0.38831 1.02708 0.0
H698 H 0.96943 0.27098 1.04399 0.0
H699 H 0.09295 0.29662 1.04191 0.0
C700 C 0.10304 0.23967 1.0404 0.0
C701 C 0.08858 0.20507 1.0375 0.0
C702 C 0.98142 0.29673 1.0403 0.0
C703 C 0.04353 0.26708 1.03683 0.0
C704 C 0.95937 0.32761 1.03997 0.0
C705 C 0.97376 0.36167 1.03507 0.0
C706 C 1.01864 0.29954 1.03631 0.0
C707 C 1.01104 0.363 1.03086 0.0
C708 C 0.08089 0.27045 1.03979 0.0
C709 C 0.05114 0.2031 1.03428 0.0
N710 N 0.03188 0.33288 1.03177 0.0
N711 N 1.03022 0.23322 1.03423 0.0
H712 H 0.57084 0.88855 1.00273 0.0
H713 H 0.48935 0.68722 1.00969 0.0
H714 H 0.6337 0.79738 1.02303 0.0
H715 H 0.42354 0.7813 1.01456 0.0
H716 H 0.5428 0.72621 1.00977 0.0
H717 H 0.51727 0.84963 1.00215 0.0
C718 C 0.57359 0.86049 1.007 0.0
C719 C 0.6074 0.84673 1.01302 0.0
C720 C 0.51664 0.73837 1.01074 0.0
C721 C 0.54553 0.80123 1.01197 0.0
C722 C 0.48596 0.71595 1.01064 0.0
C723 C 0.45136 0.73056 1.01214 0.0
C724 C 0.51318 0.77606 1.01183 0.0
C725 C 0.4493 0.76836 1.01345 0.0
C726 C 0.54284 0.83813 1.0067 0.0
C727 C 0.6086 0.80974 1.01836 0.0
N728 N 0.47933 0.78946 1.01309 0.0
N729 N 0.57864 0.78861 1.01755 0.0
H730 H 0.63198 0.24496 0.75553 0.0
H731 H 0.42951 0.32249 0.75428 0.0
H732 H 0.54011 0.17905 0.76989 0.0
H733 H 0.52107 0.38945 0.76764 0.0
H734 H 0.46927 0.26963 0.75438 0.0
H735 H 0.59226 0.29781 0.75438 0.0
C736 C 0.6036 0.24139 0.75835 0.0
C737 C 0.58988 0.20696 0.76293 0.0
C738 C 0.48068 0.29594 0.75723 0.0
C739 C 0.5435 0.268 0.76116 0.0
C740 C 0.45784 0.32628 0.75711 0.0
C741 C 0.47146 0.36102 0.76103 0.0
C742 C 0.5179 0.29994 0.76075 0.0
C743 C 0.50882 0.36357 0.76463 0.0
C744 C 0.58078 0.27173 0.75773 0.0
C745 C 0.55246 0.20469 0.76642 0.0
N746 N 0.53038 0.33392 0.76424 0.0
N747 N 0.53093 0.23429 0.76531 0.0
H748 H 0.0715 0.38262 0.50554 0.0
H749 H 0.99309 0.18 0.50727 0.0
H750 H 0.13744 0.29115 0.52012 0.0
H751 H 0.92739 0.27251 0.52058 0.0
H752 H 0.04612 0.21965 0.50658 0.0
H753 H 1.01857 0.34293 0.5058 0.0
C754 C 0.07505 0.35433 0.50874 0.0
C755 C 0.10951 0.34071 0.51294 0.0
C756 C 1.02005 0.23127 0.50961 0.0
C757 C 0.04838 0.2943 0.51265 0.0
C758 C 0.98961 0.20849 0.50995 0.0
C759 C 0.95518 0.22243 0.51407 0.0
C760 C 1.01641 0.2687 0.51287 0.0
C761 C 0.95302 0.26 0.51744 0.0
C762 C 0.04467 0.33152 0.50889 0.0
C763 C 0.11177 0.30338 0.51688 0.0
N764 N 0.98272 0.28147 0.51659 0.0
N765 N 0.08211 0.2818 0.51646 0.0
H766 H 0.04049 0.67915 0.27098 0.0
H767 H 1.0287 0.89416 0.26908 0.0
H768 H 0.13272 0.7447 0.25699 0.0
H769 H 0.93666 0.82735 0.25702 0.0
H770 H 0.06664 0.84074 0.26897 0.0
H771 H 1.00282 0.73263 0.27024 0.0
C772 C 0.05308 0.70477 0.2678 0.0
C773 C 0.09035 0.70675 0.26396 0.0
C774 C 0.03819 0.83758 0.26632 0.0
C775 C 0.0463 0.76949 0.26342 0.0
C776 C 1.01622 0.86827 0.26646 0.0
C777 C 0.97893 0.86588 0.26299 0.0
C778 C 1.02322 0.80332 0.26318 0.0
C779 C 0.96503 0.83105 0.25969 0.0
C780 C 0.03124 0.73552 0.2673 0.0
C781 C 0.10437 0.7413 0.25996 0.0
N782 N 0.98693 0.80147 0.26006 0.0
N783 N 0.08257 0.77099 0.25999 0.0
H784 H 0.52488 0.18477 0.1849 0.0
H785 H 0.68417 0.08849 1.12246 0.0
H786 H 0.60804 0.12783 0.22203 0.0
H787 H 0.59233 0.13371 1.08724 0.0
H788 H 0.67093 0.125 0.15805 0.0
H789 H 0.5639 0.19027 0.15013 0.0
C790 C 0.55177 0.1744 0.18611 0.0
C791 C 0.56267 0.15437 0.20603 0.0
C792 C 0.65432 0.12768 1.14224 0.0
C793 C 0.60696 0.1595 0.16589 0.0
C794 C 0.6617 0.10663 1.12198 0.0
C795 C 0.63843 0.10684 1.1022 0.0
C796 C 0.62335 0.14875 1.1427 0.0
C797 C 0.61068 0.13201 1.10217 0.0
C798 C 0.57403 0.17738 0.16611 0.0
C799 C 0.59799 0.142 0.20656 0.0
N800 N 0.6034 0.15128 1.12236 0.0
N801 N 0.61856 0.14379 0.18646 0.0
H802 H 0.87901 0.71222 0.46301 0.0
H803 H 0.87333 0.70463 0.32352 0.0
H804 H 0.8188 0.6351 0.42138 0.0
H805 H 0.92634 0.78544 0.36633 0.0
H806 H 0.87426 0.66466 0.35806 0.0
H807 H 0.91671 0.72298 0.42823 0.0
C808 C 0.87425 0.6967 0.44679 0.0
C809 C 0.8447 0.67373 0.44486 0.0
C810 C 0.88667 0.69074 0.35968 0.0
C811 C 0.88718 0.68701 0.40463 0.0
C812 C 0.88604 0.71361 0.33999 0.0
C813 C 0.89835 0.74893 0.34242 0.0
C814 C 0.89927 0.7036 0.38192 0.0
C815 C 0.91576 0.75873 0.36379 0.0
C816 C 0.89579 0.70305 0.42681 0.0
C817 C 0.84027 0.65429 0.42334 0.0
N818 N 0.9148 0.73654 0.38297 0.0
N819 N 0.86063 0.66211 0.40382 0.0
H820 H 0.95329 0.96545 0.7305 0.0
H821 H 0.93982 0.93113 0.59433 0.0
H822 H 1.00819 0.88051 0.69263 0.0
H823 H 0.88192 1.01259 0.63345 0.0
H824 H 0.94632 0.89757 0.63156 0.0
H825 H 0.90892 0.9666 0.69883 0.0
C826 C 0.95548 0.94615 0.71594 0.0
C827 C 0.9855 0.92395 0.71367 0.0
C828 C 0.93129 0.92227 0.63194 0.0
C829 C 0.93539 0.92622 0.67679 0.0
C830 C 0.92771 0.94147 0.61069 0.0
C831 C 0.91151 0.97524 0.61109 0.0
C832 C 0.91938 0.93751 0.65373 0.0
C833 C 0.89529 0.98697 0.63249 0.0
C834 C 0.93011 0.947 0.69767 0.0
C835 C 0.98641 0.89931 0.69448 0.0
N836 N 0.90053 0.96861 0.65315 0.0
N837 N 0.96237 0.90186 0.67636 0.0
H838 H 0.92718 0.27287 0.94074 0.0
H839 H 0.81256 0.12509 0.88022 0.0
H840 H 0.8564 0.20146 0.97863 0.0
H841 H 0.87537 0.20527 0.8439 0.0
H842 H 0.84806 0.13503 0.9165 0.0
H843 H 0.93007 0.23021 0.90763 0.0
C844 C 0.91314 0.2477 0.94253 0.0
C845 C 0.89007 0.24151 0.96201 0.0
C846 C 0.85473 0.14966 0.90035 0.0
C847 C 0.89219 0.19322 0.92364 0.0
C848 C 0.83427 0.14422 0.87968 0.0
C849 C 0.83993 0.1655 0.8593 0.0
C850 C 0.88069 0.17679 0.90061 0.0
C851 C 0.86942 0.18869 0.85928 0.0
C852 C 0.91462 0.22336 0.92344 0.0
C853 C 0.87306 0.2081 0.96335 0.0
N854 N 0.8881 0.19436 0.87982 0.0
N855 N 0.87349 0.18566 0.94403 0.0
H856 H 0.18267 0.35358 0.83708 0.0
H857 H 0.19059 0.36445 0.97625 0.0
H858 H 0.24198 0.43285 0.87746 0.0
H859 H 0.13811 0.28195 0.9346 0.0
H860 H 0.18809 0.4038 0.94143 0.0
H861 H 0.14544 0.34325 0.87215 0.0
C862 C 0.18731 0.36965 0.85308 0.0
C863 C 0.21654 0.3931 0.8546 0.0
C864 C 0.17613 0.37746 0.94013 0.0
C865 C 0.17463 0.38032 0.89517 0.0
C866 C 0.17769 0.35494 0.95998 0.0
C867 C 0.166 0.31936 0.95794 0.0
C868 C 0.16326 0.36399 0.91812 0.0
C869 C 0.14825 0.30889 0.93683 0.0
C870 C 0.16604 0.36356 0.87322 0.0
C871 C 0.2208 0.41327 0.87584 0.0
N872 N 0.14833 0.33077 0.91749 0.0
N873 N 0.20076 0.40568 0.89554 0.0
H874 H 0.17952 0.86331 0.46133 0.0
H875 H 0.19403 0.86675 0.3227 0.0
H876 H 0.24372 0.93796 0.42101 0.0
H877 H 0.1364 0.78875 0.36448 0.0
H878 H 0.19073 0.90843 0.35671 0.0
H879 H 0.14271 0.85353 0.42603 0.0
C880 C 0.18534 0.87855 0.4453 0.0
C881 C 0.21582 0.90034 0.44385 0.0
C882 C 0.17782 0.88259 0.35818 0.0
C883 C 0.17438 0.88807 0.40302 0.0
C884 C 0.17983 0.85874 0.3388 0.0
C885 C 0.16695 0.82367 0.34121 0.0
C886 C 0.16332 0.87095 0.38011 0.0
C887 C 0.14754 0.81519 0.36202 0.0
C888 C 0.1643 0.87275 0.42501 0.0
C889 C 0.22154 0.91954 0.42257 0.0
N890 N 0.14722 0.8383 0.38095 0.0
N891 N 0.20169 0.91215 0.40274 0.0
H892 H 1.02123 0.38709 0.60777 0.0
H893 H 0.87211 0.49946 0.66832 0.0
H894 H 0.94902 0.45655 0.56994 0.0
H895 H 0.95219 0.43721 0.7047 0.0
H896 H 0.8827 0.46422 0.63177 0.0
H897 H 0.97865 0.38353 0.64066 0.0
C898 C 0.99593 0.4007 0.60595 0.0
C899 C 0.98944 0.4236 0.58656 0.0
C900 C 0.89718 0.4576 0.64798 0.0
C901 C 0.9412 0.42072 0.62468 0.0
C902 C 0.89135 0.47791 0.6688 0.0
C903 C 0.91241 0.47236 0.68931 0.0
C904 C 0.92447 0.43191 0.64769 0.0
C905 C 0.93577 0.44306 0.68924 0.0
C906 C 0.97162 0.39884 0.62491 0.0
C907 C 0.95587 0.44005 0.58516 0.0
N908 N 0.94181 0.42454 0.66856 0.0
N909 N 0.93344 0.43927 0.60437 0.0
H910 H 0.62091 0.63693 0.20915 0.0
H911 H 0.6066 0.60717 1.0716 0.0
H912 H 0.67688 0.55595 0.16827 0.0
H913 H 0.54755 0.6868 1.11182 0.0
H914 H 0.65057 0.6056 1.10354 0.0
H915 H 0.61269 0.671 0.17227 0.0
C916 C 0.6322 0.62676 0.19248 0.0
C917 C 0.64835 0.59296 0.19154 0.0
C918 C 0.6285 0.62414 1.10517 0.0
C919 C 0.63874 0.63144 1.14934 0.0
C920 C 0.60337 0.62525 1.08678 0.0
C921 C 0.57244 0.64605 1.08951 0.0
C922 C 0.62217 0.64328 1.12662 0.0
C923 C 0.57014 0.6691 1.10952 0.0
C924 C 0.62766 0.64627 0.17144 0.0
C925 C 0.6636 0.58156 0.16972 0.0
N926 N 0.59409 0.66632 1.12768 0.0
N927 N 0.65756 0.6003 1.14933 0.0
H928 H 0.22174 0.36894 0.30233 0.0
H929 H 0.28467 0.56084 0.25538 0.0
H930 H 0.33023 0.38936 0.28018 0.0
H931 H 0.17481 0.52741 0.26087 0.0
H932 H 0.30323 0.49945 0.26511 0.0
H933 H 0.20521 0.42869 0.28903 0.0
C934 C 0.24216 0.38608 0.29479 0.0
C935 C 0.27745 0.37408 0.29245 0.0
C936 C 0.27508 0.50559 0.26394 0.0
C937 C 0.25863 0.44278 0.27693 0.0
C938 C 0.2645 0.54054 0.25828 0.0
C939 C 0.22813 0.54931 0.25742 0.0
C940 C 0.24904 0.47948 0.26896 0.0
C941 C 0.20312 0.52199 0.26145 0.0
C942 C 0.23265 0.42015 0.28699 0.0
C943 C 0.30265 0.3974 0.28217 0.0
N944 N 0.214 0.48856 0.26724 0.0
N945 N 0.29281 0.4307 0.27491 0.0
H946 H 0.42273 0.58906 0.53213 0.0
H947 H 0.28879 0.42577 0.50736 0.0
H948 H 0.44802 0.47813 0.54416 0.0
H949 H 0.25511 0.53585 0.5046 0.0
H950 H 0.34928 0.4454 0.51618 0.0
H951 H 0.36326 0.57104 0.51812 0.0
C952 C 0.41586 0.56092 0.53173 0.0
C953 C 0.44041 0.53508 0.53948 0.0
C954 C 0.32884 0.4654 0.51349 0.0
C955 C 0.37243 0.51432 0.52343 0.0
C956 C 0.29425 0.45418 0.50829 0.0
C957 C 0.26681 0.47919 0.50534 0.0
C958 C 0.33632 0.50206 0.51583 0.0
C959 C 0.27551 0.51568 0.50677 0.0
C960 C 0.38187 0.55069 0.52381 0.0
C961 C 0.42988 0.49905 0.53874 0.0
N962 N 0.30952 0.52606 0.5121 0.0
N963 N 0.39681 0.4898 0.53087 0.0
H964 H 0.34143 0.70232 0.80166 0.0
H965 H 0.2814 0.51248 0.74734 0.0
H966 H 0.23499 0.68313 0.7751 0.0
H967 H 0.39053 0.54315 0.76088 0.0
H968 H 0.26267 0.57395 0.75745 0.0
H969 H 0.35874 0.64271 0.78787 0.0
C970 C 0.32161 0.68547 0.79303 0.0
C971 C 0.28667 0.69778 0.78963 0.0
C972 C 0.29074 0.56721 0.75796 0.0
C973 C 0.30642 0.62924 0.77351 0.0
C974 C 0.30142 0.53222 0.75209 0.0
C975 C 0.33755 0.52267 0.75337 0.0
C976 C 0.31642 0.59256 0.76529 0.0
C977 C 0.36238 0.54924 0.75974 0.0
C978 C 0.33158 0.65148 0.78496 0.0
C979 C 0.2623 0.67485 0.77794 0.0
N980 N 0.35135 0.58273 0.76564 0.0
N981 N 0.27257 0.64163 0.77042 0.0
H982 H 0.13638 0.48285 1.0277 0.0
H983 H 0.27345 0.64496 1.00965 0.0
H984 H 0.11559 0.59212 1.04888 0.0
H985 H 0.30642 0.53481 1.00374 0.0
H986 H 0.21309 0.62544 1.01881 0.0
H987 H 0.19635 0.50071 1.0144 0.0
C988 C 0.14436 0.5106 1.02947 0.0
C989 C 0.1209 0.53601 1.03953 0.0
C990 C 0.23335 0.60541 1.01538 0.0
C991 C 0.18938 0.55658 1.02424 0.0
C992 C 0.2679 0.61657 1.00999 0.0
C993 C 0.29515 0.5915 1.00604 0.0
C994 C 0.22561 0.56876 1.01678 0.0
C995 C 0.28621 0.55503 1.00669 0.0
C996 C 0.17863 0.52071 1.02197 0.0
C997 C 0.13283 0.57151 1.04156 0.0
N998 N 0.25217 0.5447 1.0121 0.0
N999 N 0.16607 0.58069 1.03394 0.0
H1000 H 0.89119 0.54298 1.0399 0.0
H1001 H 0.72773 0.67705 1.01925 0.0
H1002 H 0.78136 0.50967 1.04582 0.0
H1003 H 0.83824 0.70364 1.00665 0.0
H1004 H 0.74609 0.6175 1.03263 0.0
H1005 H 0.87159 0.60374 1.03192 0.0
C1006 C 0.86287 0.54858 1.03983 0.0
C1007 C 0.83788 0.52116 1.04343 0.0
C1008 C 0.76628 0.63642 1.02697 0.0
C1009 C 0.81504 0.59097 1.03393 0.0
C1010 C 0.75585 0.67048 1.01942 0.0
C1011 C 0.78146 0.69541 1.01164 0.0
C1012 C 0.80262 0.62726 1.02693 0.0
C1013 C 0.81748 0.68521 1.01207 0.0
C1014 C 0.85165 0.58332 1.03512 0.0
C1015 C 0.8015 0.53003 1.04311 0.0
N1016 N 0.82692 0.65204 1.01955 0.0
N1017 N 0.79113 0.56417 1.03825 0.0
H1018 H 0.6334 0.48196 0.77271 0.0
H1019 H 0.77072 0.64456 0.78978 0.0
H1020 H 0.6131 0.59047 0.75086 0.0
H1021 H 0.80066 0.53484 0.80168 0.0
H1022 H 0.71039 0.62513 0.78019 0.0
H1023 H 0.69237 0.50059 0.78731 0.0
C1024 C 0.64126 0.50972 0.77107 0.0
C1025 C 0.61827 0.53466 0.76041 0.0
C1026 C 0.72995 0.6052 0.78506 0.0
C1027 C 0.68566 0.55613 0.77715 0.0
C1028 C 0.76442 0.61633 0.79071 0.0
C1029 C 0.7908 0.59127 0.79646 0.0
C1030 C 0.72152 0.56862 0.78512 0.0
C1031 C 0.78109 0.55503 0.79735 0.0
C1032 C 0.67497 0.52028 0.77934 0.0
C1033 C 0.63005 0.57019 0.75859 0.0
N1034 N 0.74722 0.54471 0.79156 0.0
N1035 N 0.66279 0.57981 0.76688 0.0
H1036 H 0.72213 0.3624 0.5032 0.0
H1037 H 0.77851 0.55551 0.55441 0.0
H1038 H 0.82991 0.38776 0.52455 0.0
H1039 H 0.67045 0.52352 0.53859 0.0
H1040 H 0.79838 0.49417 0.5452 0.0
H1041 H 0.70322 0.42151 0.51689 0.0
C1042 C 0.7419 0.38048 0.51066 0.0
C1043 C 0.77773 0.37008 0.51254 0.0
C1044 C 0.77028 0.50056 0.54398 0.0
C1045 C 0.75612 0.4381 0.52859 0.0
C1046 C 0.75895 0.53549 0.54935 0.0
C1047 C 0.72281 0.54462 0.54717 0.0
C1048 C 0.74525 0.47477 0.53633 0.0
C1049 C 0.69858 0.51771 0.54043 0.0
C1050 C 0.73103 0.41422 0.51868 0.0
C1051 C 0.80197 0.39453 0.52286 0.0
N1052 N 0.71025 0.48421 0.5351 0.0
N1053 N 0.79077 0.42745 0.53037 0.0
H1054 H 0.76293 0.5332 0.30218 0.0
H1055 H 0.95167 0.47418 0.24676 0.0
H1056 H 0.79273 0.42412 0.28644 0.0
H1057 H 0.93266 0.58051 0.27463 0.0
H1058 H 0.89229 0.45645 0.26027 0.0
H1059 H 0.82417 0.55214 0.29225 0.0
C1060 C 0.78243 0.51323 0.29697 0.0
C1061 C 0.7727 0.47706 0.29505 0.0
C1062 C 0.90106 0.48367 0.26353 0.0
C1063 C 0.84237 0.49846 0.28332 0.0
C1064 C 0.93493 0.49388 0.25562 0.0
C1065 C 0.94723 0.52893 0.25946 0.0
C1066 C 0.87893 0.50868 0.27528 0.0
C1067 C 0.92442 0.55312 0.27144 0.0
C1068 C 0.8173 0.52403 0.2912 0.0
C1069 C 0.79897 0.4523 0.28809 0.0
N1070 N 0.89133 0.54262 0.2788 0.0
N1071 N 0.83237 0.46346 0.28231 0.0
H1072 H 0.72208 0.8631 0.79772 0.0
H1073 H 0.77871 0.05479 0.74646 0.0
H1074 H 0.83005 0.88793 0.77641 0.0
H1075 H 0.6703 1.02243 0.76086 0.0
H1076 H 0.79863 0.99378 0.75579 0.0
H1077 H 0.70318 0.92164 0.78366 0.0
C1078 C 0.74189 0.88096 0.79019 0.0
C1079 C 0.77776 0.87059 0.78842 0.0
C1080 C 0.77045 1.0 0.75664 0.0
C1081 C 0.75618 0.93792 0.77195 0.0
C1082 C 0.75909 0.03474 0.75121 0.0
C1083 C 0.72283 0.04368 0.753 0.0
C1084 C 0.74533 0.97424 0.76399 0.0
C1085 C 0.69853 1.01675 0.75933 0.0
C1086 C 0.73103 0.91436 0.78196 0.0
C1087 C 0.80207 0.8947 0.77802 0.0
N1088 N 0.71022 0.98345 0.76477 0.0
N1089 N 0.79089 0.92731 0.77031 0.0
H1090 H 0.76345 1.03322 0.99636 0.0
H1091 H 0.94955 0.97509 1.05478 0.0
H1092 H 0.79168 0.92466 1.01358 0.0
H1093 H 0.93276 0.0802 1.02548 0.0
H1094 H 0.89048 0.95734 1.0407 0.0
H1095 H 0.82454 0.05208 1.00679 0.0
C1096 C 0.7826 1.01333 1.00198 0.0
C1097 C 0.77246 0.97735 1.00419 0.0
C1098 C 0.89966 0.9843 1.03726 0.0
C1099 C 0.84192 0.99868 1.0165 0.0
C1100 C 0.93334 0.99454 1.0455 0.0
C1101 C 0.94617 1.02924 1.04142 0.0
C1102 C 0.87826 1.00895 1.02494 0.0
C1103 C 0.92407 0.05308 1.02889 0.0
C1104 C 0.81737 1.02409 1.00804 0.0
C1105 C 0.79827 0.95269 1.01168 0.0
N1106 N 0.89114 0.04257 1.02121 0.0
N1107 N 0.83156 0.96383 1.01774 0.0
H1108 H 0.78056 1.00464 0.25663 0.0
H1109 H 0.84101 0.20614 0.28633 0.0
H1110 H 0.88916 0.04269 0.25494 0.0
H1111 H 0.73057 0.17324 0.2861 0.0
H1112 H 0.85808 0.14641 0.27305 0.0
H1113 H 0.76046 0.06617 0.26512 0.0
C1114 C 0.80008 1.02598 0.25765 0.0
C1115 C 0.83661 1.01856 0.25516 0.0
C1116 C 0.83005 0.15217 0.27577 0.0
C1117 C 0.814 0.08864 0.26514 0.0
C1118 C 0.82024 0.18646 0.28327 0.0
C1119 C 0.78423 0.19497 0.28729 0.0
C1120 C 0.80378 0.12577 0.27226 0.0
C1121 C 0.75869 0.16787 0.28349 0.0
C1122 C 0.78865 0.06102 0.26265 0.0
C1123 C 0.86079 0.04715 0.25681 0.0
N1124 N 0.76894 0.13451 0.27622 0.0
N1125 N 0.84911 0.08072 0.26183 0.0
H1126 H 0.80241 1.03356 0.49835 0.0
H1127 H 0.60997 0.09382 0.54699 0.0
H1128 H 0.77122 0.14299 0.5114 0.0
H1129 H 0.63451 0.98462 0.52757 0.0
H1130 H 0.66914 0.11182 0.53331 0.0
H1131 H 0.74097 1.01454 0.50738 0.0
C1132 C 0.78253 0.05358 0.50274 0.0
C1133 C 0.79191 0.08988 0.5042 0.0
C1134 C 0.66165 0.0839 0.53194 0.0
C1135 C 0.72196 0.06841 0.51487 0.0
C1136 C 0.62788 0.07356 0.53995 0.0
C1137 C 0.61725 0.0376 0.5386 0.0
C1138 C 0.68529 0.05814 0.52257 0.0
C1139 C 0.64147 1.01267 0.52883 0.0
C1140 C 0.74755 0.04274 0.50801 0.0
C1141 C 0.76519 0.11472 0.5101 0.0
N1142 N 0.67441 1.02336 0.52132 0.0
N1143 N 0.73163 0.10353 0.51538 0.0
H1144 H 0.23176 0.18485 0.52602 0.0
H1145 H 0.3912 0.04418 0.539 0.0
H1146 H 0.33798 0.20039 0.49787 0.0
H1147 H 0.28167 1.01557 0.55312 0.0
H1148 H 0.37242 0.1045 0.52915 0.0
H1149 H 0.24962 0.12561 0.54045 0.0
C1150 C 0.25886 0.17587 0.52295 0.0
C1151 C 0.28339 0.19762 0.51062 0.0
C1152 C 0.35239 0.08523 0.53455 0.0
C1153 C 0.30398 0.12999 0.52718 0.0
C1154 C 0.36315 0.05076 0.54035 0.0
C1155 C 0.33796 1.02473 0.54681 0.0
C1156 C 0.31604 0.09409 0.5352 0.0
C1157 C 0.30196 0.03485 0.54823 0.0
C1158 C 0.26896 0.14203 0.53111 0.0
C1159 C 0.31804 0.18445 0.50698 0.0
N1160 N 0.29199 0.06877 0.54232 0.0
N1161 N 0.32727 0.15165 0.51527 0.0
H1162 H 0.11792 0.09528 0.24744 0.0
H1163 H 0.30766 1.03407 0.29765 0.0
H1164 H 0.13576 0.98775 0.27247 0.0
H1165 H 0.27456 0.1438 0.29024 0.0
H1166 H 0.24638 1.01485 0.28774 0.0
H1167 H 0.17703 0.11195 0.26146 0.0
C1168 C 0.13405 0.07514 0.25609 0.0
C1169 C 0.12136 0.04005 0.25892 0.0
C1170 C 0.25258 0.04312 0.28856 0.0
C1171 C 0.1901 0.05903 0.27472 0.0
C1172 C 0.28745 0.05408 0.29432 0.0
C1173 C 0.29626 0.0906 0.29467 0.0
C1174 C 0.22665 0.06893 0.28294 0.0
C1175 C 0.2691 0.11539 0.29009 0.0
C1176 C 0.16804 0.0847 0.26402 0.0
C1177 C 0.14434 1.01504 0.26966 0.0
N1178 N 0.23579 0.10413 0.28422 0.0
N1179 N 0.17759 1.02498 0.27713 0.0
H1180 H 0.28506 0.06383 1.04394 0.0
H1181 H 0.22023 0.86417 1.01273 0.0
H1182 H 0.17577 1.02791 1.04587 0.0
H1183 H 0.33133 0.89476 1.01289 0.0
H1184 H 0.20452 0.92393 1.02673 0.0
H1185 H 0.30385 1.00202 1.03494 0.0
C1186 C 0.26512 0.04288 1.04288 0.0
C1187 C 0.22877 0.05101 1.04559 0.0
C1188 C 0.2324 0.91765 1.02383 0.0
C1189 C 0.24987 0.98062 1.03501 0.0
C1190 C 0.24143 0.88333 1.01592 0.0
C1191 C 0.27722 0.87417 1.01164 0.0
C1192 C 0.25925 0.94342 1.0275 0.0
C1193 C 0.30335 0.90064 1.01565 0.0
C1194 C 0.27579 1.00769 1.03759 0.0
C1195 C 0.20402 1.02292 1.04386 0.0
N1196 N 0.29386 0.93405 1.02332 0.0
N1197 N 0.21496 0.98919 1.03855 0.0
H1198 H 0.42245 0.08911 0.76854 0.0
H1199 H 0.28795 0.92611 0.79127 0.0
H1200 H 0.44741 0.97815 0.75498 0.0
H1201 H 0.25434 0.0362 0.79533 0.0
H1202 H 0.34848 0.94566 0.78264 0.0
H1203 H 0.36279 0.07123 0.78231 0.0
C1204 C 0.41547 0.06099 0.76855 0.0
C1205 C 0.43998 0.0351 0.76044 0.0
C1206 C 0.32805 0.96568 0.78557 0.0
C1207 C 0.37179 1.01451 0.77621 0.0
C1208 C 0.29342 0.9545 0.79067 0.0
C1209 C 0.26598 0.97953 0.79394 0.0
C1210 C 0.33559 1.00233 0.78366 0.0
C1211 C 0.27472 1.01601 0.79291 0.0
C1212 C 0.38137 0.05085 0.77633 0.0
C1213 C 0.42931 0.9991 0.76069 0.0
N1214 N 0.3088 1.02636 0.78768 0.0
N1215 N 0.39614 0.98994 0.76844 0.0
H1216 H 0.2991 0.21439 0.22701 0.0
H1217 H 0.21508 0.08635 1.12417 0.0
H1218 H 0.34224 0.10951 0.2136 0.0
H1219 H 0.22436 0.19982 1.11344 0.0
H1220 H 0.25176 0.09249 0.16099 0.0
H1221 H 0.26296 0.20839 0.19004 0.0
C1222 C 0.30129 0.19013 0.21632 0.0
C1223 C 0.32472 0.16276 0.22369 0.0
C1224 C 0.24558 0.11613 0.15069 0.0
C1225 C 0.28139 0.15496 0.18109 0.0
C1226 C 0.22423 0.11267 1.12962 0.0
C1227 C 0.21596 0.14257 1.11528 0.0
C1228 C 0.25834 0.14997 0.15835 0.0
C1229 C 0.22959 0.17583 1.1236 0.0
C1230 C 0.28041 0.18668 0.19509 0.0
C1231 C 0.32538 0.13179 0.20879 0.0
N1232 N 0.24941 0.17861 1.14439 0.0
N1233 N 0.30403 0.12864 0.18869 0.0
H1234 H 0.61443 0.46873 0.36344 0.0
H1235 H 0.71141 0.58983 0.46469 0.0
H1236 H 0.72823 0.46564 0.37316 0.0
H1237 H 0.60459 0.55035 0.47521 0.0
H1238 H 0.71669 0.55203 0.42832 0.0
H1239 H 0.60898 0.50449 0.40075 0.0
C1240 C 0.63839 0.47525 0.37341 0.0
C1241 C 0.67188 0.46325 0.36481 0.0
C1242 C 0.69198 0.55166 0.43847 0.0
C1243 C 0.66575 0.50619 0.40801 0.0
C1244 C 0.68876 0.57362 0.45934 0.0
C1245 C 0.65731 0.57398 0.47349 0.0
C1246 C 0.66331 0.52993 0.43078 0.0
C1247 C 0.62937 0.55153 0.46521 0.0
C1248 C 0.63518 0.4959 0.39488 0.0
C1249 C 0.70172 0.47343 0.37889 0.0
N1250 N 0.63288 0.53102 0.44456 0.0
N1251 N 0.698 0.49438 0.39932 0.0
H1252 H 0.21802 0.95809 0.71162 0.0
H1253 H 0.35084 0.8658 0.61553 0.0
H1254 H 0.26907 0.85795 0.72723 0.0
H1255 H 0.34477 0.9803 0.62244 0.0
H1256 H 0.31484 0.85996 0.65251 0.0
H1257 H 0.25635 0.96415 0.67573 0.0
C1258 C 0.23683 0.93697 0.70745 0.0
C1259 C 0.23953 0.90718 0.72288 0.0
C1260 C 0.32149 0.88643 0.64611 0.0
C1261 C 0.28427 0.91407 0.68076 0.0
C1262 C 0.3423 0.88987 0.62485 0.0
C1263 C 0.35186 0.92369 0.61557 0.0
C1264 C 0.30844 0.91698 0.65831 0.0
C1265 C 0.33902 0.9536 0.62876 0.0
C1266 C 0.25912 0.9407 0.68687 0.0
C1267 C 0.26538 0.88133 0.71617 0.0
N1268 N 0.31788 0.94956 0.64898 0.0
N1269 N 0.28611 0.88515 0.69575 0.0
H1270 H 0.95025 0.60257 0.86397 0.0
H1271 H 0.85687 0.47308 0.96065 0.0
H1272 H 0.8361 0.59981 0.87211 0.0
H1273 H 0.95879 0.52152 0.97551 0.0
H1274 H 0.85105 0.5113 0.92494 0.0
H1275 H 0.95609 0.56669 0.9008 0.0
C1276 C 0.92627 0.59478 0.87352 0.0
C1277 C 0.89256 0.60523 0.86463 0.0
C1278 C 0.87483 0.51352 0.93587 0.0
C1279 C 0.89922 0.56197 0.9072 0.0
C1280 C 0.87841 0.4913 0.95635 0.0
C1281 C 0.90863 0.49328 0.97153 0.0
C1282 C 0.90202 0.5379 0.92957 0.0
C1283 C 0.93504 0.51839 0.96465 0.0
C1284 C 0.92971 0.57404 0.8947 0.0
C1285 C 0.86275 0.59334 0.87812 0.0
N1286 N 0.93133 0.53907 0.94432 0.0
N1287 N 0.86675 0.57225 0.89823 0.0
H1288 H 0.84009 0.87093 0.18847 0.0
H1289 H 0.72735 0.96906 1.0851 0.0
H1290 H 0.85232 0.9837 0.17592 0.0
H1291 H 0.76159 0.85987 1.07641 0.0
H1292 H 0.7648 0.97432 1.12138 0.0
H1293 H 0.80467 0.86575 0.15131 0.0
C1294 C 0.83559 0.89473 0.17793 0.0
C1295 C 0.85007 0.92781 0.1857 0.0
C1296 C 0.76408 0.94911 1.11165 0.0
C1297 C 0.80755 0.92207 1.14261 0.0
C1298 C 0.7423 0.94591 1.09085 0.0
C1299 C 0.74059 0.91378 1.07724 0.0
C1300 C 0.78418 0.91976 1.11984 0.0
C1301 C 0.76149 0.8852 1.08599 0.0
C1302 C 0.81516 0.89166 0.15653 0.0
C1303 C 0.84251 0.95746 0.17087 0.0
N1304 N 0.78177 0.88873 1.10658 0.0
N1305 N 0.82167 0.95398 0.1505 0.0
H1306 H 0.3742 0.64415 0.91176 0.0
H1307 H 0.38749 0.44941 0.8478 0.0
H1308 H 0.39733 0.54902 0.9519 0.0
H1309 H 0.41895 0.54453 0.81009 0.0
H1310 H 0.38164 0.48527 0.88512 0.0
H1311 H 0.38072 0.60898 0.87397 0.0
C1312 C 0.38038 0.61593 0.9128 0.0
C1313 C 0.38529 0.60003 0.93555 0.0
C1314 C 0.38995 0.49838 0.86873 0.0
C1315 C 0.39221 0.55877 0.89164 0.0
C1316 C 0.3934 0.47775 0.84725 0.0
C1317 C 0.4044 0.49337 0.82537 0.0
C1318 C 0.3963 0.53566 0.8687 0.0
C1319 C 0.41102 0.53071 0.82629 0.0
C1320 C 0.3843 0.59576 0.89106 0.0
C1321 C 0.39344 0.56301 0.93513 0.0
N1322 N 0.40657 0.55032 0.84723 0.0
N1323 N 0.39623 0.54395 0.91391 0.0
H1324 H 0.71315 0.20155 0.68664 0.0
H1325 H 0.83437 0.10299 0.58636 0.0
H1326 H 0.71003 0.08733 0.67677 0.0
H1327 H 0.79589 0.21001 0.5754 0.0
H1328 H 0.7961 0.09829 0.62221 0.0
H1329 H 0.74883 0.20664 0.64948 0.0
C1330 C 0.71961 0.17742 0.67665 0.0
C1331 C 0.70763 0.14391 0.68517 0.0
C1332 C 0.79601 0.12292 0.61209 0.0
C1333 C 0.75051 0.14964 0.64216 0.0
C1334 C 0.81826 0.12581 0.59149 0.0
C1335 C 0.81911 0.15713 0.57736 0.0
C1336 C 0.77442 0.15181 0.61958 0.0
C1337 C 0.79672 0.1853 0.58539 0.0
C1338 C 0.74022 0.18043 0.65527 0.0
C1339 C 0.71777 0.11386 0.6711 0.0
N1340 N 0.77591 0.18212 0.60582 0.0
N1341 N 0.7387 0.1174 0.65076 0.0
H1342 H 0.18976 0.42674 0.41183 0.0
H1343 H 0.16421 0.62156 0.35091 0.0
H1344 H 0.15984 0.52025 0.45282 0.0
H1345 H 0.14784 0.52448 0.31021 0.0
H1346 H 0.17046 0.58563 0.38773 0.0
H1347 H 0.18288 0.46177 0.37441 0.0
C1348 C 0.18198 0.45455 0.41315 0.0
C1349 C 0.17531 0.47 0.43605 0.0
C1350 C 0.16538 0.57207 0.37079 0.0
C1351 C 0.16784 0.51117 0.39253 0.0
C1352 C 0.16169 0.59276 0.34957 0.0
C1353 C 0.15483 0.5766 0.32696 0.0
C1354 C 0.16337 0.5343 0.36984 0.0
C1355 C 0.15246 0.53871 0.32696 0.0
C1356 C 0.17787 0.47466 0.3916 0.0
C1357 C 0.16516 0.50654 0.43595 0.0
N1358 N 0.15698 0.51918 0.3477 0.0
N1359 N 0.1621 0.52553 0.41494 0.0
H1360 H 0.71253 0.70179 0.61565 0.0
H1361 H 0.83539 0.60288 0.71362 0.0
H1362 H 0.71068 0.58738 0.62322 0.0
H1363 H 0.79609 0.70956 0.72609 0.0
H1364 H 0.79708 0.59812 0.67776 0.0
H1365 H 0.74861 0.70651 0.65256 0.0
C1366 C 0.71935 0.67753 0.62509 0.0
C1367 C 0.70757 0.64409 0.61599 0.0
C1368 C 0.79685 0.62268 0.68822 0.0
C1369 C 0.75097 0.6494 0.65873 0.0
C1370 C 0.81911 0.62561 0.70881 0.0
C1371 C 0.8197 0.65686 0.72336 0.0
C1372 C 0.77501 0.65147 0.68122 0.0
C1373 C 0.79713 0.68492 0.71576 0.0
C1374 C 0.7402 0.68032 0.64633 0.0
C1375 C 0.71822 0.61386 0.62937 0.0
N1376 N 0.77633 0.6817 0.69538 0.0
N1377 N 0.73937 0.61721 0.64959 0.0
H1378 H 0.16234 1.02156 0.84641 0.0
H1379 H 0.14768 1.02404 0.99133 0.0
H1380 H 0.18864 0.92856 0.8879 0.0
H1381 H 0.16622 0.11993 0.95078 0.0
H1382 H 0.15525 0.98839 0.9542 0.0
H1383 H 0.15687 0.05655 0.88377 0.0
C1384 C 0.16697 1.0082 0.86334 0.0
C1385 C 0.17609 0.97147 0.86342 0.0
C1386 C 0.15753 1.01722 0.9533 0.0
C1387 C 0.16898 1.01246 0.90744 0.0
C1388 C 0.15289 0.03789 0.97464 0.0
C1389 C 0.15586 0.07566 0.97469 0.0
C1390 C 0.16459 1.03391 0.93111 0.0
C1391 C 0.16337 0.09121 0.95208 0.0
C1392 C 0.16388 1.02853 0.88487 0.0
C1393 C 0.18177 0.95655 0.88644 0.0
N1394 N 0.16703 0.07056 0.9315 0.0
N1395 N 0.17776 0.97677 0.90724 0.0
H1396 H 0.79492 0.42244 1.09503 0.0
H1397 H 0.79338 0.39231 0.23848 0.0
H1398 H 0.89083 0.4368 1.13647 0.0
H1399 H 0.70073 0.42936 0.20054 0.0
H1400 H 0.82911 0.39991 0.20147 0.0
H1401 H 0.76062 0.41695 1.13251 0.0
C1402 C 0.80903 0.42446 1.11198 0.0
C1403 C 0.84634 0.4303 1.11204 0.0
C1404 C 0.80094 0.40622 0.20113 0.0
C1405 C 0.8062 0.42296 0.15611 0.0
C1406 C 0.78021 0.40156 0.22236 0.0
C1407 C 0.74335 0.40971 0.22305 0.0
C1408 C 0.78502 0.41844 0.17973 0.0
C1409 C 0.72869 0.42232 0.20126 0.0
C1410 C 0.78913 0.42135 1.13356 0.0
C1411 C 0.86233 0.43263 1.13507 0.0
N1412 N 0.7492 0.42583 0.18076 0.0
N1413 N 0.84245 0.42854 0.1559 0.0
H1414 H 0.34731 0.97929 0.46539 0.0
H1415 H 0.44443 0.09516 0.36277 0.0
H1416 H 0.45509 1.01687 0.47452 0.0
H1417 H 0.33132 0.10393 0.37474 0.0
H1418 H 0.44964 0.06022 0.39997 0.0
H1419 H 0.34176 1.01689 0.42937 0.0
C1420 C 0.37011 0.99503 0.4598 0.0
C1421 C 0.40193 0.99417 0.47346 0.0
C1422 C 0.42364 0.06987 0.39464 0.0
C1423 C 0.3956 0.03797 0.43111 0.0
C1424 C 0.42056 0.09005 0.37323 0.0
C1425 C 0.38737 0.10343 0.36526 0.0
C1426 C 0.39318 0.06133 0.4084 0.0
C1427 C 0.35763 0.09505 0.37996 0.0
C1428 C 0.36672 1.01689 0.43913 0.0
C1429 C 0.43003 1.01606 0.4649 0.0
N1430 N 0.36116 0.07441 0.40035 0.0
N1431 N 0.42635 0.0364 0.44442 0.0
H1432 H 0.34997 0.36466 0.68314 0.0
H1433 H 0.21912 0.45839 0.58793 0.0
H1434 H 0.34586 0.47918 0.67686 0.0
H1435 H 0.26851 0.35728 0.57138 0.0
H1436 H 0.25732 0.46397 0.62382 0.0
H1437 H 0.31388 0.359 0.64622 0.0
C1438 C 0.3418 0.38876 0.674 0.0
C1439 C 0.35193 0.42253 0.68343 0.0
C1440 C 0.25975 0.44041 0.61248 0.0
C1441 C 0.30849 0.41606 0.64077 0.0
C1442 C 0.23754 0.43697 0.59189 0.0
C1443 C 0.23982 0.40706 0.57619 0.0
C1444 C 0.28439 0.41338 0.61834 0.0
C1445 C 0.26517 0.38079 0.58265 0.0
C1446 C 0.32097 0.38543 0.65277 0.0
C1447 C 0.33961 0.4525 0.67044 0.0
N1448 N 0.28583 0.38435 0.60309 0.0
N1449 N 0.31846 0.44857 0.65026 0.0
H1450 H 0.91679 0.05412 0.45321 0.0
H1451 H 0.91319 0.04696 0.30842 0.0
H1452 H 0.86971 0.13971 0.41289 0.0
H1453 H 0.90679 0.95098 0.35048 0.0
H1454 H 0.9061 0.08284 0.34551 0.0
H1455 H 0.92186 1.01857 0.41601 0.0
C1456 C 0.90764 0.0658 0.43655 0.0
C1457 C 0.8928 0.1006 0.43674 0.0
C1458 C 0.90638 0.05396 0.34674 0.0
C1459 C 0.89932 0.05905 0.39293 0.0
C1460 C 0.91075 1.03318 0.32542 0.0
C1461 C 0.91101 0.99532 0.32582 0.0
C1462 C 0.90306 0.03734 0.36933 0.0
C1463 C 0.90702 0.9798 0.34883 0.0
C1464 C 0.91045 0.04511 0.41515 0.0
C1465 C 0.88131 0.11331 0.41411 0.0
N1466 N 0.90371 1.00061 0.36937 0.0
N1467 N 0.88519 0.09295 0.39336 0.0
H1468 H 0.27019 0.65615 0.20443 0.0
H1469 H 0.27072 0.67237 1.05963 0.0
H1470 H 0.17723 0.62852 0.16286 0.0
H1471 H 0.36687 0.65366 1.09978 0.0
H1472 H 0.23562 0.66424 1.09678 0.0
H1473 H 0.30448 0.66262 0.16702 0.0
C1474 C 0.2567 0.65144 0.18748 0.0
C1475 C 0.22021 0.64162 0.18738 0.0
C1476 C 0.26439 0.66208 1.09758 0.0
C1477 C 0.26032 0.64993 1.14333 0.0
C1478 C 0.28473 0.66706 1.07624 0.0
C1479 C 0.3224 0.66419 1.07609 0.0
C1480 C 0.28135 0.65481 1.11965 0.0
C1481 C 0.3382 0.65649 1.09858 0.0
C1482 C 0.27661 0.65512 0.16593 0.0
C1483 C 0.20507 0.63592 0.16432 0.0
N1484 N 0.31789 0.65251 1.11915 0.0
N1485 N 0.22486 0.64051 1.14352 0.0
H1486 H 0.7299 0.96313 0.92657 0.0
H1487 H 0.6031 0.05008 0.82473 0.0
H1488 H 0.61594 0.96884 0.93534 0.0
H1489 H 0.71095 0.08635 0.8357 0.0
H1490 H 0.60814 1.01313 0.86123 0.0
H1491 H 0.7248 0.99977 0.88986 0.0
C1492 C 0.70369 0.97143 0.92069 0.0
C1493 C 0.67333 0.96213 0.93446 0.0
C1494 C 0.63074 1.0292 0.85573 0.0
C1495 C 0.66718 1.00475 0.89155 0.0
C1496 C 0.62786 0.05054 0.83474 0.0
C1497 C 0.65641 0.07223 0.82677 0.0
C1498 C 0.66288 1.02814 0.86898 0.0
C1499 C 0.68784 0.07078 0.84089 0.0
C1500 C 0.70082 0.9928 0.89967 0.0
C1501 C 0.64028 0.9748 0.92562 0.0
N1502 N 0.69027 0.04917 0.86083 0.0
N1503 N 0.63813 0.99484 0.90496 0.0
loop_
_geom_bond_atom_site_label_1
_geom_bond_atom_site_label_2
_geom_bond_distance
_geom_bond_site_symmetry_2
_ccdc_geom_bond_type
La0 C2 2.928 . S
La0 O20 2.521 . S
La0 O21 2.628 . S
La0 O22 2.554 . S
La0 O23 2.757 . S
La0 O24 2.470 . S
La0 O29 2.482 . S
La0 O31 2.503 . S
La1 C11 2.928 . S
La1 O23 2.482 . S
La1 O25 2.503 . S
La1 O26 2.521 . S
La1 O27 2.628 . S
La1 O28 2.554 . S
La1 O29 2.757 . S
La1 O30 2.470 . S
C2 La0 2.928 . S
C2 C3 1.503 . S
C2 O20 1.261 . S
C2 O21 1.243 . S
C3 C2 1.503 . S
C3 C4 1.394 . S
C3 C8 1.373 . S
C4 C3 1.394 . S
C4 C5 1.380 . S
C4 H32 0.930 . S
C5 C4 1.380 . S
C5 C6 1.376 . S
C5 H33 0.930 . S
C6 C5 1.376 . S
C6 C7 1.370 . S
C7 C6 1.370 . S
C7 C8 1.396 . S
C7 H34 0.929 . S
C8 C3 1.373 . S
C8 C7 1.396 . S
C8 H35 0.929 . S
C9 O22 1.240 . S
C9 O23 1.289 . S
C10 O24 1.258 . S
C10 O25 1.256 . S
C11 La1 2.928 . S
C11 C12 1.503 . S
C11 O26 1.261 . S
C11 O27 1.243 . S
C12 C11 1.503 . S
C12 C13 1.394 . S
C12 C17 1.373 . S
C13 C12 1.394 . S
C13 C14 1.380 1_545 S
C13 H36 0.930 1_545 S
C14 C13 1.380 1_565 S
C14 C15 1.376 . S
C14 H37 0.930 . S
C15 C14 1.376 . S
C15 C16 1.370 1_565 S
C16 C15 1.370 1_545 S
C16 C17 1.396 . S
C16 H38 0.929 . S
C17 C12 1.373 . S
C17 C16 1.396 . S
C17 H39 0.929 . S
C18 O28 1.240 . S
C18 O29 1.289 . S
C19 O30 1.258 . S
C19 O31 1.256 . S
O20 La0 2.521 . S
O20 C2 1.261 . S
O21 La0 2.628 . S
O21 C2 1.243 . S
O22 La0 2.554 . S
O22 C9 1.240 . S
O23 La0 2.757 . S
O23 La1 2.482 . S
O23 C9 1.289 . S
O24 La0 2.470 . S
O24 C10 1.258 . S
O25 La1 2.503 . S
O25 C10 1.256 . S
O26 La1 2.521 . S
O26 C11 1.261 . S
O27 La1 2.628 . S
O27 C11 1.243 . S
O28 La1 2.554 . S
O28 C18 1.240 . S
O29 La0 2.482 . S
O29 La1 2.757 . S
O29 C18 1.289 . S
O30 La1 2.470 . S
O30 C19 1.258 . S
O31 La0 2.503 . S
O31 C19 1.256 . S
H32 C4 0.930 . S
H33 C5 0.930 . S
H34 C7 0.929 . S
H35 C8 0.929 . S
H36 C13 0.930 1_565 S
H37 C14 0.930 . S
H38 C16 0.929 . S
H39 C17 0.929 . S
La40 C42 2.928 . S
La40 O60 2.521 . S
La40 O61 2.628 . S
La40 O62 2.554 . S
La40 O63 2.757 . S
La40 O64 2.470 . S
La40 O69 2.482 . S
La40 O71 2.503 . S
La41 C51 2.928 . S
La41 O63 2.482 . S
La41 O65 2.503 . S
La41 O66 2.521 . S
La41 O67 2.628 . S
La41 O68 2.554 . S
La41 O69 2.757 . S
La41 O70 2.470 . S
C42 La40 2.928 . S
C42 C43 1.503 . S
C42 O60 1.261 . S
C42 O61 1.243 . S
C43 C42 1.503 . S
C43 C44 1.394 . S
C43 C48 1.373 . S
C44 C43 1.394 . S
C44 C45 1.380 . S
C44 H72 0.930 . S
C45 C44 1.380 . S
C45 C46 1.376 . S
C45 H73 0.930 . S
C46 C45 1.376 . S
C46 C47 1.370 . S
C47 C46 1.370 . S
C47 C48 1.396 . S
C47 H74 0.929 . S
C48 C43 1.373 . S
C48 C47 1.396 . S
C48 H75 0.929 . S
C49 O62 1.240 . S
C49 O63 1.289 . S
C50 O64 1.258 . S
C50 O65 1.256 . S
C51 La41 2.928 . S
C51 C52 1.503 . S
C51 O66 1.261 . S
C51 O67 1.243 . S
C52 C51 1.503 . S
C52 C53 1.394 . S
C52 C57 1.373 . S
C53 C52 1.394 . S
C53 C54 1.380 . S
C53 H76 0.930 . S
C54 C53 1.380 . S
C54 C55 1.376 . S
C54 H77 0.930 . S
C55 C54 1.376 . S
C55 C56 1.370 . S
C56 C55 1.370 . S
C56 C57 1.396 . S
C56 H78 0.929 . S
C57 C52 1.373 . S
C57 C56 1.396 . S
C57 H79 0.929 . S
C58 O68 1.240 . S
C58 O69 1.289 . S
C59 O70 1.258 . S
C59 O71 1.256 . S
O60 La40 2.521 . S
O60 C42 1.261 . S
O61 La40 2.628 . S
O61 C42 1.243 . S
O62 La40 2.554 . S
O62 C49 1.240 . S
O63 La40 2.757 . S
O63 La41 2.482 . S
O63 C49 1.289 . S
O64 La40 2.470 . S
O64 C50 1.258 . S
O65 La41 2.503 . S
O65 C50 1.256 . S
O66 La41 2.521 . S
O66 C51 1.261 . S
O67 La41 2.628 . S
O67 C51 1.243 . S
O68 La41 2.554 . S
O68 C58 1.240 . S
O69 La40 2.482 . S
O69 La41 2.757 . S
O69 C58 1.289 . S
O70 La41 2.470 . S
O70 C59 1.258 . S
O71 La40 2.503 . S
O71 C59 1.256 . S
H72 C44 0.930 . S
H73 C45 0.930 . S
H74 C47 0.929 . S
H75 C48 0.929 . S
H76 C53 0.930 . S
H77 C54 0.930 . S
H78 C56 0.929 . S
H79 C57 0.929 . S
La80 C82 2.928 . S
La80 O100 2.521 . S
La80 O101 2.628 . S
La80 O102 2.554 . S
La80 O103 2.757 . S
La80 O104 2.470 . S
La80 O109 2.482 . S
La80 O111 2.503 . S
La81 C91 2.928 . S
La81 O103 2.482 . S
La81 O105 2.503 . S
La81 O106 2.521 . S
La81 O107 2.628 . S
La81 O108 2.554 . S
La81 O109 2.757 . S
La81 O110 2.470 . S
C82 La80 2.928 . S
C82 C83 1.503 . S
C82 O100 1.261 . S
C82 O101 1.243 . S
C83 C82 1.503 . S
C83 C84 1.394 . S
C83 C88 1.373 . S
C84 C83 1.394 . S
C84 C85 1.380 . S
C84 H112 0.930 . S
C85 C84 1.380 . S
C85 C86 1.376 . S
C85 H113 0.930 . S
C86 C85 1.376 . S
C86 C87 1.370 . S
C87 C86 1.370 . S
C87 C88 1.396 . S
C87 H114 0.929 . S
C88 C83 1.373 . S
C88 C87 1.396 . S
C88 H115 0.929 . S
C89 O102 1.240 . S
C89 O103 1.289 . S
C90 O104 1.258 . S
C90 O105 1.256 . S
C91 La81 2.928 . S
C91 C92 1.503 . S
C91 O106 1.261 . S
C91 O107 1.243 . S
C92 C91 1.503 . S
C92 C93 1.394 . S
C92 C97 1.373 . S
C93 C92 1.394 . S
C93 C94 1.380 1_565 S
C93 H116 0.930 1_565 S
C94 C93 1.380 1_545 S
C94 C95 1.376 . S
C94 H117 0.930 . S
C95 C94 1.376 . S
C95 C96 1.370 1_545 S
C96 C95 1.370 1_565 S
C96 C97 1.396 . S
C96 H118 0.929 . S
C97 C92 1.373 . S
C97 C96 1.396 . S
C97 H119 0.929 . S
C98 O108 1.240 . S
C98 O109 1.289 . S
C99 O110 1.258 . S
C99 O111 1.256 . S
O100 La80 2.521 . S
O100 C82 1.261 . S
O101 La80 2.628 . S
O101 C82 1.243 . S
O102 La80 2.554 . S
O102 C89 1.240 . S
O103 La80 2.757 . S
O103 La81 2.482 . S
O103 C89 1.289 . S
O104 La80 2.470 . S
O104 C90 1.258 . S
O105 La81 2.503 . S
O105 C90 1.256 . S
O106 La81 2.521 . S
O106 C91 1.261 . S
O107 La81 2.628 . S
O107 C91 1.243 . S
O108 La81 2.554 . S
O108 C98 1.240 . S
O109 La80 2.482 . S
O109 La81 2.757 . S
O109 C98 1.289 . S
O110 La81 2.470 . S
O110 C99 1.258 . S
O111 La80 2.503 . S
O111 C99 1.256 . S
H112 C84 0.930 . S
H113 C85 0.930 . S
H114 C87 0.929 . S
H115 C88 0.929 . S
H116 C93 0.930 1_545 S
H117 C94 0.930 . S
H118 C96 0.929 . S
H119 C97 0.929 . S
La120 C122 2.928 . S
La120 O140 2.521 . S
La120 O141 2.628 . S
La120 O142 2.554 . S
La120 O143 2.757 . S
La120 O144 2.470 . S
La120 O149 2.482 . S
La120 O151 2.503 . S
La121 C131 2.928 . S
La121 O143 2.482 . S
La121 O145 2.503 . S
La121 O146 2.521 . S
La121 O147 2.628 . S
La121 O148 2.554 . S
La121 O149 2.757 . S
La121 O150 2.470 . S
C122 La120 2.928 . S
C122 C123 1.503 1_655 S
C122 O140 1.261 . S
C122 O141 1.243 . S
C123 C122 1.503 1_455 S
C123 C124 1.394 . S
C123 C128 1.373 1_455 S
C124 C123 1.394 . S
C124 C125 1.380 . S
C124 H152 0.930 . S
C125 C124 1.380 . S
C125 C126 1.376 . S
C125 H153 0.930 . S
C126 C125 1.376 . S
C126 C127 1.370 . S
C127 C126 1.370 . S
C127 C128 1.396 1_455 S
C127 H154 0.929 . S
C128 C123 1.373 1_655 S
C128 C127 1.396 1_655 S
C128 H155 0.929 . S
C129 O142 1.240 . S
C129 O143 1.289 . S
C130 O144 1.258 . S
C130 O145 1.256 . S
C131 La121 2.928 . S
C131 C132 1.503 . S
C131 O146 1.261 . S
C131 O147 1.243 . S
C132 C131 1.503 . S
C132 C133 1.394 . S
C132 C137 1.373 . S
C133 C132 1.394 . S
C133 C134 1.380 . S
C133 H156 0.930 . S
C134 C133 1.380 . S
C134 C135 1.376 . S
C134 H157 0.930 . S
C135 C134 1.376 . S
C135 C136 1.370 . S
C136 C135 1.370 . S
C136 C137 1.396 . S
C136 H158 0.929 . S
C137 C132 1.373 . S
C137 C136 1.396 . S
C137 H159 0.929 . S
C138 O148 1.240 . S
C138 O149 1.289 . S
C139 O150 1.258 . S
C139 O151 1.256 . S
O140 La120 2.521 . S
O140 C122 1.261 . S
O141 La120 2.628 . S
O141 C122 1.243 . S
O142 La120 2.554 . S
O142 C129 1.240 . S
O143 La120 2.757 . S
O143 La121 2.482 . S
O143 C129 1.289 . S
O144 La120 2.470 . S
O144 C130 1.258 . S
O145 La121 2.503 . S
O145 C130 1.256 . S
O146 La121 2.521 . S
O146 C131 1.261 . S
O147 La121 2.628 . S
O147 C131 1.243 . S
O148 La121 2.554 . S
O148 C138 1.240 . S
O149 La120 2.482 . S
O149 La121 2.757 . S
O149 C138 1.289 . S
O150 La121 2.470 . S
O150 C139 1.258 . S
O151 La120 2.503 . S
O151 C139 1.256 . S
H152 C124 0.930 . S
H153 C125 0.930 . S
H154 C127 0.929 . S
H155 C128 0.929 . S
H156 C133 0.930 . S
H157 C134 0.930 . S
H158 C136 0.929 . S
H159 C137 0.929 . S
La160 C162 2.928 . S
La160 O180 2.521 . S
La160 O181 2.628 . S
La160 O182 2.554 . S
La160 O183 2.757 . S
La160 O184 2.470 . S
La160 O189 2.482 . S
La160 O191 2.503 . S
La161 C171 2.928 . S
La161 O183 2.482 . S
La161 O185 2.503 . S
La161 O186 2.521 . S
La161 O187 2.628 . S
La161 O188 2.554 . S
La161 O189 2.757 . S
La161 O190 2.470 . S
C162 La160 2.928 . S
C162 C163 1.503 . S
C162 O180 1.261 . S
C162 O181 1.243 . S
C163 C162 1.503 . S
C163 C164 1.394 . S
C163 C168 1.373 . S
C164 C163 1.394 . S
C164 C165 1.380 1_565 S
C164 H192 0.930 1_565 S
C165 C164 1.380 1_545 S
C165 C166 1.376 . S
C165 H193 0.930 . S
C166 C165 1.376 . S
C166 C167 1.370 1_545 S
C167 C166 1.370 1_565 S
C167 C168 1.396 . S
C167 H194 0.929 . S
C168 C163 1.373 . S
C168 C167 1.396 . S
C168 H195 0.929 . S
C169 O182 1.240 . S
C169 O183 1.289 . S
C170 O184 1.258 . S
C170 O185 1.256 . S
C171 La161 2.928 . S
C171 C172 1.503 . S
C171 O186 1.261 . S
C171 O187 1.243 . S
C172 C171 1.503 . S
C172 C173 1.394 . S
C172 C177 1.373 . S
C173 C172 1.394 . S
C173 C174 1.380 . S
C173 H196 0.930 . S
C174 C173 1.380 . S
C174 C175 1.376 . S
C174 H197 0.930 . S
C175 C174 1.376 . S
C175 C176 1.370 . S
C176 C175 1.370 . S
C176 C177 1.396 . S
C176 H198 0.929 . S
C177 C172 1.373 . S
C177 C176 1.396 . S
C177 H199 0.929 . S
C178 O188 1.240 . S
C178 O189 1.289 . S
C179 O190 1.258 . S
C179 O191 1.256 . S
O180 La160 2.521 . S
O180 C162 1.261 . S
O181 La160 2.628 . S
O181 C162 1.243 . S
O182 La160 2.554 . S
O182 C169 1.240 . S
O183 La160 2.757 . S
O183 La161 2.482 . S
O183 C169 1.289 . S
O184 La160 2.470 . S
O184 C170 1.258 . S
O185 La161 2.503 . S
O185 C170 1.256 . S
O186 La161 2.521 . S
O186 C171 1.261 . S
O187 La161 2.628 . S
O187 C171 1.243 . S
O188 La161 2.554 . S
O188 C178 1.240 . S
O189 La160 2.482 . S
O189 La161 2.757 . S
O189 C178 1.289 . S
O190 La161 2.470 . S
O190 C179 1.258 . S
O191 La160 2.503 . S
O191 C179 1.256 . S
H192 C164 0.930 1_545 S
H193 C165 0.930 . S
H194 C167 0.929 . S
H195 C168 0.929 . S
H196 C173 0.930 . S
H197 C174 0.930 . S
H198 C176 0.929 . S
H199 C177 0.929 . S
La200 C202 2.928 . S
La200 O220 2.521 . S
La200 O221 2.628 . S
La200 O222 2.554 . S
La200 O223 2.757 . S
La200 O224 2.470 . S
La200 O229 2.482 . S
La200 O231 2.503 . S
La201 C211 2.928 . S
La201 O223 2.482 . S
La201 O225 2.503 . S
La201 O226 2.521 . S
La201 O227 2.628 . S
La201 O228 2.554 . S
La201 O229 2.757 . S
La201 O230 2.470 . S
C202 La200 2.928 . S
C202 C203 1.503 . S
C202 O220 1.261 . S
C202 O221 1.243 . S
C203 C202 1.503 . S
C203 C204 1.394 . S
C203 C208 1.373 . S
C204 C203 1.394 . S
C204 C205 1.380 . S
C204 H232 0.930 . S
C205 C204 1.380 . S
C205 C206 1.376 . S
C205 H233 0.930 . S
C206 C205 1.376 . S
C206 C207 1.370 . S
C207 C206 1.370 . S
C207 C208 1.396 . S
C207 H234 0.929 . S
C208 C203 1.373 . S
C208 C207 1.396 . S
C208 H235 0.929 . S
C209 O222 1.240 . S
C209 O223 1.289 . S
C210 O224 1.258 . S
C210 O225 1.256 . S
C211 La201 2.928 . S
C211 C212 1.503 . S
C211 O226 1.261 . S
C211 O227 1.243 . S
C212 C211 1.503 . S
C212 C213 1.394 . S
C212 C217 1.373 . S
C213 C212 1.394 . S
C213 C214 1.380 . S
C213 H236 0.930 . S
C214 C213 1.380 . S
C214 C215 1.376 . S
C214 H237 0.930 . S
C215 C214 1.376 . S
C215 C216 1.370 . S
C216 C215 1.370 . S
C216 C217 1.396 . S
C216 H238 0.929 . S
C217 C212 1.373 . S
C217 C216 1.396 . S
C217 H239 0.929 . S
C218 O228 1.240 . S
C218 O229 1.289 . S
C219 O230 1.258 . S
C219 O231 1.256 . S
O220 La200 2.521 . S
O220 C202 1.261 . S
O221 La200 2.628 . S
O221 C202 1.243 . S
O222 La200 2.554 . S
O222 C209 1.240 . S
O223 La200 2.757 . S
O223 La201 2.482 . S
O223 C209 1.289 . S
O224 La200 2.470 . S
O224 C210 1.258 . S
O225 La201 2.503 . S
O225 C210 1.256 . S
O226 La201 2.521 . S
O226 C211 1.261 . S
O227 La201 2.628 . S
O227 C211 1.243 . S
O228 La201 2.554 . S
O228 C218 1.240 . S
O229 La200 2.482 . S
O229 La201 2.757 . S
O229 C218 1.289 . S
O230 La201 2.470 . S
O230 C219 1.258 . S
O231 La200 2.503 . S
O231 C219 1.256 . S
H232 C204 0.930 . S
H233 C205 0.930 . S
H234 C207 0.929 . S
H235 C208 0.929 . S
H236 C213 0.930 . S
H237 C214 0.930 . S
H238 C216 0.929 . S
H239 C217 0.929 . S
La240 C242 2.928 . S
La240 O260 2.521 . S
La240 O261 2.628 . S
La240 O262 2.554 . S
La240 O263 2.757 . S
La240 O264 2.470 . S
La240 O269 2.482 . S
La240 O271 2.503 . S
La241 C251 2.928 . S
La241 O263 2.482 . S
La241 O265 2.503 . S
La241 O266 2.521 . S
La241 O267 2.628 . S
La241 O268 2.554 . S
La241 O269 2.757 . S
La241 O270 2.470 . S
C242 La240 2.928 . S
C242 C243 1.503 . S
C242 O260 1.261 . S
C242 O261 1.243 . S
C243 C242 1.503 . S
C243 C244 1.394 . S
C243 C248 1.373 . S
C244 C243 1.394 . S
C244 C245 1.380 1_545 S
C244 H272 0.930 1_545 S
C245 C244 1.380 1_565 S
C245 C246 1.376 . S
C245 H273 0.930 . S
C246 C245 1.376 . S
C246 C247 1.370 1_565 S
C247 C246 1.370 1_545 S
C247 C248 1.396 . S
C247 H274 0.929 . S
C248 C243 1.373 . S
C248 C247 1.396 . S
C248 H275 0.929 . S
C249 O262 1.240 . S
C249 O263 1.289 . S
C250 O264 1.258 . S
C250 O265 1.256 . S
C251 La241 2.928 . S
C251 C252 1.503 . S
C251 O266 1.261 . S
C251 O267 1.243 . S
C252 C251 1.503 . S
C252 C253 1.394 . S
C252 C257 1.373 . S
C253 C252 1.394 . S
C253 C254 1.380 . S
C253 H276 0.930 . S
C254 C253 1.380 . S
C254 C255 1.376 . S
C254 H277 0.930 . S
C255 C254 1.376 . S
C255 C256 1.370 . S
C256 C255 1.370 . S
C256 C257 1.396 . S
C256 H278 0.929 . S
C257 C252 1.373 . S
C257 C256 1.396 . S
C257 H279 0.929 . S
C258 O268 1.240 . S
C258 O269 1.289 . S
C259 O270 1.258 . S
C259 O271 1.256 . S
O260 La240 2.521 . S
O260 C242 1.261 . S
O261 La240 2.628 . S
O261 C242 1.243 . S
O262 La240 2.554 . S
O262 C249 1.240 . S
O263 La240 2.757 . S
O263 La241 2.482 . S
O263 C249 1.289 . S
O264 La240 2.470 . S
O264 C250 1.258 . S
O265 La241 2.503 . S
O265 C250 1.256 . S
O266 La241 2.521 . S
O266 C251 1.261 . S
O267 La241 2.628 . S
O267 C251 1.243 . S
O268 La241 2.554 . S
O268 C258 1.240 . S
O269 La240 2.482 . S
O269 La241 2.757 . S
O269 C258 1.289 . S
O270 La241 2.470 . S
O270 C259 1.258 . S
O271 La240 2.503 . S
O271 C259 1.256 . S
H272 C244 0.930 1_565 S
H273 C245 0.930 . S
H274 C247 0.929 . S
H275 C248 0.929 . S
H276 C253 0.930 . S
H277 C254 0.930 . S
H278 C256 0.929 . S
H279 C257 0.929 . S
La280 C282 2.928 . S
La280 O300 2.521 . S
La280 O301 2.628 . S
La280 O302 2.554 . S
La280 O303 2.757 . S
La280 O304 2.470 . S
La280 O309 2.482 . S
La280 O311 2.503 . S
La281 C291 2.928 . S
La281 O303 2.482 . S
La281 O305 2.503 . S
La281 O306 2.521 . S
La281 O307 2.628 . S
La281 O308 2.554 . S
La281 O309 2.757 . S
La281 O310 2.470 . S
C282 La280 2.928 . S
C282 C283 1.503 . S
C282 O300 1.261 . S
C282 O301 1.243 . S
C283 C282 1.503 . S
C283 C284 1.394 . S
C283 C288 1.373 . S
C284 C283 1.394 . S
C284 C285 1.380 . S
C284 H312 0.930 . S
C285 C284 1.380 . S
C285 C286 1.376 . S
C285 H313 0.930 . S
C286 C285 1.376 . S
C286 C287 1.370 . S
C287 C286 1.370 . S
C287 C288 1.396 . S
C287 H314 0.929 . S
C288 C283 1.373 . S
C288 C287 1.396 . S
C288 H315 0.929 . S
C289 O302 1.240 . S
C289 O303 1.289 . S
C290 O304 1.258 . S
C290 O305 1.256 . S
C291 La281 2.928 . S
C291 C292 1.503 1_455 S
C291 O306 1.261 . S
C291 O307 1.243 . S
C292 C291 1.503 1_655 S
C292 C293 1.394 . S
C292 C297 1.373 1_655 S
C293 C292 1.394 . S
C293 C294 1.380 . S
C293 H316 0.930 . S
C294 C293 1.380 . S
C294 C295 1.376 . S
C294 H317 0.930 . S
C295 C294 1.376 . S
C295 C296 1.370 . S
C296 C295 1.370 . S
C296 C297 1.396 1_655 S
C296 H318 0.929 . S
C297 C292 1.373 1_455 S
C297 C296 1.396 1_455 S
C297 H319 0.929 . S
C298 O308 1.240 . S
C298 O309 1.289 . S
C299 O310 1.258 . S
C299 O311 1.256 . S
O300 La280 2.521 . S
O300 C282 1.261 . S
O301 La280 2.628 . S
O301 C282 1.243 . S
O302 La280 2.554 . S
O302 C289 1.240 . S
O303 La280 2.757 . S
O303 La281 2.482 . S
O303 C289 1.289 . S
O304 La280 2.470 . S
O304 C290 1.258 . S
O305 La281 2.503 . S
O305 C290 1.256 . S
O306 La281 2.521 . S
O306 C291 1.261 . S
O307 La281 2.628 . S
O307 C291 1.243 . S
O308 La281 2.554 . S
O308 C298 1.240 . S
O309 La280 2.482 . S
O309 La281 2.757 . S
O309 C298 1.289 . S
O310 La281 2.470 . S
O310 C299 1.258 . S
O311 La280 2.503 . S
O311 C299 1.256 . S
H312 C284 0.930 . S
H313 C285 0.930 . S
H314 C287 0.929 . S
H315 C288 0.929 . S
H316 C293 0.930 . S
H317 C294 0.930 . S
H318 C296 0.929 . S
H319 C297 0.929 . S
La320 C322 2.928 . S
La320 O340 2.521 . S
La320 O341 2.628 . S
La320 O342 2.554 . S
La320 O343 2.757 . S
La320 O344 2.470 . S
La320 O349 2.482 . S
La320 O351 2.503 . S
La321 C331 2.928 . S
La321 O343 2.482 . S
La321 O345 2.503 . S
La321 O346 2.521 . S
La321 O347 2.628 . S
La321 O348 2.554 . S
La321 O349 2.757 . S
La321 O350 2.470 . S
C322 La320 2.928 . S
C322 C323 1.503 . S
C322 O340 1.261 . S
C322 O341 1.243 . S
C323 C322 1.503 . S
C323 C324 1.394 . S
C323 C328 1.373 . S
C324 C323 1.394 . S
C324 C325 1.380 . S
C324 H352 0.930 . S
C325 C324 1.380 . S
C325 C326 1.376 . S
C325 H353 0.930 . S
C326 C325 1.376 . S
C326 C327 1.370 . S
C327 C326 1.370 . S
C327 C328 1.396 . S
C327 H354 0.929 . S
C328 C323 1.373 . S
C328 C327 1.396 . S
C328 H355 0.929 . S
C329 O342 1.240 . S
C329 O343 1.289 . S
C330 O344 1.258 . S
C330 O345 1.256 . S
C331 La321 2.928 . S
C331 C332 1.503 . S
C331 O346 1.261 . S
C331 O347 1.243 . S
C332 C331 1.503 . S
C332 C333 1.394 . S
C332 C337 1.373 . S
C333 C332 1.394 . S
C333 C334 1.380 . S
C333 H356 0.930 . S
C334 C333 1.380 . S
C334 C335 1.376 . S
C334 H357 0.930 . S
C335 C334 1.376 . S
C335 C336 1.370 . S
C336 C335 1.370 . S
C336 C337 1.396 . S
C336 H358 0.929 . S
C337 C332 1.373 . S
C337 C336 1.396 . S
C337 H359 0.929 . S
C338 O348 1.240 . S
C338 O349 1.289 . S
C339 O350 1.258 . S
C339 O351 1.256 . S
O340 La320 2.521 . S
O340 C322 1.261 . S
O341 La320 2.628 . S
O341 C322 1.243 . S
O342 La320 2.554 . S
O342 C329 1.240 . S
O343 La320 2.757 . S
O343 La321 2.482 . S
O343 C329 1.289 . S
O344 La320 2.470 . S
O344 C330 1.258 . S
O345 La321 2.503 . S
O345 C330 1.256 . S
O346 La321 2.521 . S
O346 C331 1.261 . S
O347 La321 2.628 . S
O347 C331 1.243 . S
O348 La321 2.554 . S
O348 C338 1.240 . S
O349 La320 2.482 . S
O349 La321 2.757 . S
O349 C338 1.289 . S
O350 La321 2.470 . S
O350 C339 1.258 . S
O351 La320 2.503 . S
O351 C339 1.256 . S
H352 C324 0.930 . S
H353 C325 0.930 . S
H354 C327 0.929 . S
H355 C328 0.929 . S
H356 C333 0.930 . S
H357 C334 0.930 . S
H358 C336 0.929 . S
H359 C337 0.929 . S
La360 C362 2.928 . S
La360 O380 2.521 . S
La360 O381 2.628 1_545 S
La360 O382 2.554 . S
La360 O383 2.757 . S
La360 O384 2.470 . S
La360 O389 2.482 . S
La360 O391 2.503 . S
La361 C371 2.928 . S
La361 O383 2.482 . S
La361 O385 2.503 . S
La361 O386 2.521 . S
La361 O387 2.628 . S
La361 O388 2.554 . S
La361 O389 2.757 . S
La361 O390 2.470 . S
C362 La360 2.928 . S
C362 C363 1.503 1_445 S
C362 O380 1.261 . S
C362 O381 1.243 1_545 S
C363 C362 1.503 1_665 S
C363 C364 1.394 1_565 S
C363 C368 1.373 1_655 S
C364 C363 1.394 1_545 S
C364 C365 1.380 1_545 S
C364 H392 0.930 . S
C365 C364 1.380 1_565 S
C365 C366 1.376 . S
C365 H393 0.930 . S
C366 C365 1.376 . S
C366 C367 1.370 . S
C367 C366 1.370 . S
C367 C368 1.396 1_655 S
C367 H394 0.929 . S
C368 C363 1.373 1_455 S
C368 C367 1.396 1_455 S
C368 H395 0.929 . S
C369 O382 1.240 . S
C369 O383 1.289 . S
C370 O384 1.258 . S
C370 O385 1.256 . S
C371 La361 2.928 . S
C371 C372 1.503 . S
C371 O386 1.261 . S
C371 O387 1.243 . S
C372 C371 1.503 . S
C372 C373 1.394 . S
C372 C377 1.373 . S
C373 C372 1.394 . S
C373 C374 1.380 . S
C373 H396 0.930 . S
C374 C373 1.380 . S
C374 C375 1.376 . S
C374 H397 0.930 . S
C375 C374 1.376 . S
C375 C376 1.370 . S
C376 C375 1.370 . S
C376 C377 1.396 . S
C376 H398 0.929 . S
C377 C372 1.373 . S
C377 C376 1.396 . S
C377 H399 0.929 . S
C378 O388 1.240 . S
C378 O389 1.289 . S
C379 O390 1.258 . S
C379 O391 1.256 . S
O380 La360 2.521 . S
O380 C362 1.261 . S
O381 La360 2.628 1_565 S
O381 C362 1.243 1_565 S
O382 La360 2.554 . S
O382 C369 1.240 . S
O383 La360 2.757 . S
O383 La361 2.482 . S
O383 C369 1.289 . S
O384 La360 2.470 . S
O384 C370 1.258 . S
O385 La361 2.503 . S
O385 C370 1.256 . S
O386 La361 2.521 . S
O386 C371 1.261 . S
O387 La361 2.628 . S
O387 C371 1.243 . S
O388 La361 2.554 . S
O388 C378 1.240 . S
O389 La360 2.482 . S
O389 La361 2.757 . S
O389 C378 1.289 . S
O390 La361 2.470 . S
O390 C379 1.258 . S
O391 La360 2.503 . S
O391 C379 1.256 . S
H392 C364 0.930 . S
H393 C365 0.930 . S
H394 C367 0.929 . S
H395 C368 0.929 . S
H396 C373 0.930 . S
H397 C374 0.930 . S
H398 C376 0.929 . S
H399 C377 0.929 . S
La400 C402 2.928 . S
La400 O420 2.521 . S
La400 O421 2.628 . S
La400 O422 2.554 . S
La400 O423 2.757 . S
La400 O424 2.470 . S
La400 O429 2.482 . S
La400 O431 2.503 . S
La401 C411 2.928 . S
La401 O423 2.482 . S
La401 O425 2.503 . S
La401 O426 2.521 . S
La401 O427 2.628 . S
La401 O428 2.554 . S
La401 O429 2.757 . S
La401 O430 2.470 . S
C402 La400 2.928 . S
C402 C403 1.503 . S
C402 O420 1.261 . S
C402 O421 1.243 . S
C403 C402 1.503 . S
C403 C404 1.394 . S
C403 C408 1.373 . S
C404 C403 1.394 . S
C404 C405 1.380 . S
C404 H432 0.930 . S
C405 C404 1.380 . S
C405 C406 1.376 . S
C405 H433 0.930 . S
C406 C405 1.376 . S
C406 C407 1.370 . S
C407 C406 1.370 . S
C407 C408 1.396 . S
C407 H434 0.929 . S
C408 C403 1.373 . S
C408 C407 1.396 . S
C408 H435 0.929 . S
C409 O422 1.240 . S
C409 O423 1.289 . S
C410 O424 1.258 . S
C410 O425 1.256 . S
C411 La401 2.928 . S
C411 C412 1.503 . S
C411 O426 1.261 . S
C411 O427 1.243 . S
C412 C411 1.503 . S
C412 C413 1.394 . S
C412 C417 1.373 . S
C413 C412 1.394 . S
C413 C414 1.380 . S
C413 H436 0.930 . S
C414 C413 1.380 . S
C414 C415 1.376 . S
C414 H437 0.930 . S
C415 C414 1.376 . S
C415 C416 1.370 . S
C416 C415 1.370 . S
C416 C417 1.396 . S
C416 H438 0.929 . S
C417 C412 1.373 . S
C417 C416 1.396 . S
C417 H439 0.929 . S
C418 O428 1.240 . S
C418 O429 1.289 . S
C419 O430 1.258 . S
C419 O431 1.256 . S
O420 La400 2.521 . S
O420 C402 1.261 . S
O421 La400 2.628 . S
O421 C402 1.243 . S
O422 La400 2.554 . S
O422 C409 1.240 . S
O423 La400 2.757 . S
O423 La401 2.482 . S
O423 C409 1.289 . S
O424 La400 2.470 . S
O424 C410 1.258 . S
O425 La401 2.503 . S
O425 C410 1.256 . S
O426 La401 2.521 . S
O426 C411 1.261 . S
O427 La401 2.628 . S
O427 C411 1.243 . S
O428 La401 2.554 . S
O428 C418 1.240 . S
O429 La400 2.482 . S
O429 La401 2.757 . S
O429 C418 1.289 . S
O430 La401 2.470 . S
O430 C419 1.258 . S
O431 La400 2.503 . S
O431 C419 1.256 . S
H432 C404 0.930 . S
H433 C405 0.930 . S
H434 C407 0.929 . S
H435 C408 0.929 . S
H436 C413 0.930 . S
H437 C414 0.930 . S
H438 C416 0.929 . S
H439 C417 0.929 . S
La440 C442 2.928 . S
La440 O460 2.521 . S
La440 O461 2.628 1_565 S
La440 O462 2.554 . S
La440 O463 2.757 . S
La440 O464 2.470 . S
La440 O469 2.482 . S
La440 O471 2.503 . S
La441 C451 2.928 . S
La441 O463 2.482 . S
La441 O465 2.503 . S
La441 O466 2.521 . S
La441 O467 2.628 . S
La441 O468 2.554 . S
La441 O469 2.757 . S
La441 O470 2.470 . S
C442 La440 2.928 . S
C442 C443 1.503 1_565 S
C442 O460 1.261 . S
C442 O461 1.243 1_565 S
C443 C442 1.503 1_545 S
C443 C444 1.394 1_545 S
C443 C448 1.373 . S
C444 C443 1.394 1_565 S
C444 C445 1.380 1_565 S
C444 H472 0.930 . S
C445 C444 1.380 1_545 S
C445 C446 1.376 . S
C445 H473 0.930 . S
C446 C445 1.376 . S
C446 C447 1.370 . S
C447 C446 1.370 . S
C447 C448 1.396 . S
C447 H474 0.929 . S
C448 C443 1.373 . S
C448 C447 1.396 . S
C448 H475 0.929 . S
C449 O462 1.240 . S
C449 O463 1.289 . S
C450 O464 1.258 . S
C450 O465 1.256 . S
C451 La441 2.928 . S
C451 C452 1.503 . S
C451 O466 1.261 . S
C451 O467 1.243 . S
C452 C451 1.503 . S
C452 C453 1.394 . S
C452 C457 1.373 . S
C453 C452 1.394 . S
C453 C454 1.380 . S
C453 H476 0.930 . S
C454 C453 1.380 . S
C454 C455 1.376 . S
C454 H477 0.930 . S
C455 C454 1.376 . S
C455 C456 1.370 . S
C456 C455 1.370 . S
C456 C457 1.396 . S
C456 H478 0.929 . S
C457 C452 1.373 . S
C457 C456 1.396 . S
C457 H479 0.929 . S
C458 O468 1.240 . S
C458 O469 1.289 . S
C459 O470 1.258 . S
C459 O471 1.256 . S
O460 La440 2.521 . S
O460 C442 1.261 . S
O461 La440 2.628 1_545 S
O461 C442 1.243 1_545 S
O462 La440 2.554 . S
O462 C449 1.240 . S
O463 La440 2.757 . S
O463 La441 2.482 . S
O463 C449 1.289 . S
O464 La440 2.470 . S
O464 C450 1.258 . S
O465 La441 2.503 . S
O465 C450 1.256 . S
O466 La441 2.521 . S
O466 C451 1.261 . S
O467 La441 2.628 . S
O467 C451 1.243 . S
O468 La441 2.554 . S
O468 C458 1.240 . S
O469 La440 2.482 . S
O469 La441 2.757 . S
O469 C458 1.289 . S
O470 La441 2.470 . S
O470 C459 1.258 . S
O471 La440 2.503 . S
O471 C459 1.256 . S
H472 C444 0.930 . S
H473 C445 0.930 . S
H474 C447 0.929 . S
H475 C448 0.929 . S
H476 C453 0.930 . S
H477 C454 0.930 . S
H478 C456 0.929 . S
H479 C457 0.929 . S
La480 C482 2.928 . S
La480 O500 2.521 . S
La480 O501 2.628 . S
La480 O502 2.554 . S
La480 O503 2.757 . S
La480 O504 2.470 . S
La480 O509 2.482 . S
La480 O511 2.503 . S
La481 C491 2.928 . S
La481 O503 2.482 . S
La481 O505 2.503 . S
La481 O506 2.521 . S
La481 O507 2.628 . S
La481 O508 2.554 . S
La481 O509 2.757 . S
La481 O510 2.470 . S
C482 La480 2.928 . S
C482 C483 1.503 . S
C482 O500 1.261 . S
C482 O501 1.243 . S
C483 C482 1.503 . S
C483 C484 1.394 . S
C483 C488 1.373 . S
C484 C483 1.394 . S
C484 C485 1.380 . S
C484 H512 0.930 . S
C485 C484 1.380 . S
C485 C486 1.376 . S
C485 H513 0.930 . S
C486 C485 1.376 . S
C486 C487 1.370 . S
C487 C486 1.370 . S
C487 C488 1.396 . S
C487 H514 0.929 . S
C488 C483 1.373 . S
C488 C487 1.396 . S
C488 H515 0.929 . S
C489 O502 1.240 . S
C489 O503 1.289 . S
C490 O504 1.258 . S
C490 O505 1.256 . S
C491 La481 2.928 . S
C491 C492 1.503 . S
C491 O506 1.261 . S
C491 O507 1.243 . S
C492 C491 1.503 . S
C492 C493 1.394 . S
C492 C497 1.373 . S
C493 C492 1.394 . S
C493 C494 1.380 . S
C493 H516 0.930 . S
C494 C493 1.380 . S
C494 C495 1.376 . S
C494 H517 0.930 . S
C495 C494 1.376 . S
C495 C496 1.370 . S
C496 C495 1.370 . S
C496 C497 1.396 . S
C496 H518 0.929 . S
C497 C492 1.373 . S
C497 C496 1.396 . S
C497 H519 0.929 . S
C498 O508 1.240 . S
C498 O509 1.289 . S
C499 O510 1.258 . S
C499 O511 1.256 . S
O500 La480 2.521 . S
O500 C482 1.261 . S
O501 La480 2.628 . S
O501 C482 1.243 . S
O502 La480 2.554 . S
O502 C489 1.240 . S
O503 La480 2.757 . S
O503 La481 2.482 . S
O503 C489 1.289 . S
O504 La480 2.470 . S
O504 C490 1.258 . S
O505 La481 2.503 . S
O505 C490 1.256 . S
O506 La481 2.521 . S
O506 C491 1.261 . S
O507 La481 2.628 . S
O507 C491 1.243 . S
O508 La481 2.554 . S
O508 C498 1.240 . S
O509 La480 2.482 . S
O509 La481 2.757 . S
O509 C498 1.289 . S
O510 La481 2.470 . S
O510 C499 1.258 . S
O511 La480 2.503 . S
O511 C499 1.256 . S
H512 C484 0.930 . S
H513 C485 0.930 . S
H514 C487 0.929 . S
H515 C488 0.929 . S
H516 C493 0.930 . S
H517 C494 0.930 . S
H518 C496 0.929 . S
H519 C497 0.929 . S
La520 C522 2.928 . S
La520 O540 2.521 . S
La520 O541 2.628 . S
La520 O542 2.554 . S
La520 O543 2.757 . S
La520 O544 2.470 . S
La520 O549 2.482 . S
La520 O551 2.503 . S
La521 C531 2.928 . S
La521 O543 2.482 . S
La521 O545 2.503 . S
La521 O546 2.521 . S
La521 O547 2.628 1_565 S
La521 O548 2.554 . S
La521 O549 2.757 . S
La521 O550 2.470 . S
C522 La520 2.928 . S
C522 C523 1.503 . S
C522 O540 1.261 . S
C522 O541 1.243 . S
C523 C522 1.503 . S
C523 C524 1.394 . S
C523 C528 1.373 . S
C524 C523 1.394 . S
C524 C525 1.380 . S
C524 H552 0.930 . S
C525 C524 1.380 . S
C525 C526 1.376 . S
C525 H553 0.930 . S
C526 C525 1.376 . S
C526 C527 1.370 . S
C527 C526 1.370 . S
C527 C528 1.396 . S
C527 H554 0.929 . S
C528 C523 1.373 . S
C528 C527 1.396 . S
C528 H555 0.929 . S
C529 O542 1.240 . S
C529 O543 1.289 . S
C530 O544 1.258 . S
C530 O545 1.256 . S
C531 La521 2.928 . S
C531 C532 1.503 1_665 S
C531 O546 1.261 . S
C531 O547 1.243 1_565 S
C532 C531 1.503 1_445 S
C532 C533 1.394 1_545 S
C532 C537 1.373 1_455 S
C533 C532 1.394 1_565 S
C533 C534 1.380 1_565 S
C533 H556 0.930 . S
C534 C533 1.380 1_545 S
C534 C535 1.376 . S
C534 H557 0.930 . S
C535 C534 1.376 . S
C535 C536 1.370 . S
C536 C535 1.370 . S
C536 C537 1.396 1_455 S
C536 H558 0.929 . S
C537 C532 1.373 1_655 S
C537 C536 1.396 1_655 S
C537 H559 0.929 . S
C538 O548 1.240 . S
C538 O549 1.289 . S
C539 O550 1.258 . S
C539 O551 1.256 . S
O540 La520 2.521 . S
O540 C522 1.261 . S
O541 La520 2.628 . S
O541 C522 1.243 . S
O542 La520 2.554 . S
O542 C529 1.240 . S
O543 La520 2.757 . S
O543 La521 2.482 . S
O543 C529 1.289 . S
O544 La520 2.470 . S
O544 C530 1.258 . S
O545 La521 2.503 . S
O545 C530 1.256 . S
O546 La521 2.521 . S
O546 C531 1.261 . S
O547 La521 2.628 1_545 S
O547 C531 1.243 1_545 S
O548 La521 2.554 . S
O548 C538 1.240 . S
O549 La520 2.482 . S
O549 La521 2.757 . S
O549 C538 1.289 . S
O550 La521 2.470 . S
O550 C539 1.258 . S
O551 La520 2.503 . S
O551 C539 1.256 . S
H552 C524 0.930 . S
H553 C525 0.930 . S
H554 C527 0.929 . S
H555 C528 0.929 . S
H556 C533 0.930 . S
H557 C534 0.930 . S
H558 C536 0.929 . S
H559 C537 0.929 . S
La560 C562 2.928 . S
La560 O580 2.521 . S
La560 O581 2.628 . S
La560 O582 2.554 . S
La560 O583 2.757 . S
La560 O584 2.470 . S
La560 O589 2.482 . S
La560 O591 2.503 . S
La561 C571 2.928 . S
La561 O583 2.482 . S
La561 O585 2.503 . S
La561 O586 2.521 . S
La561 O587 2.628 . S
La561 O588 2.554 . S
La561 O589 2.757 . S
La561 O590 2.470 . S
C562 La560 2.928 . S
C562 C563 1.503 . S
C562 O580 1.261 . S
C562 O581 1.243 . S
C563 C562 1.503 . S
C563 C564 1.394 . S
C563 C568 1.373 . S
C564 C563 1.394 . S
C564 C565 1.380 . S
C564 H592 0.930 . S
C565 C564 1.380 . S
C565 C566 1.376 . S
C565 H593 0.930 . S
C566 C565 1.376 . S
C566 C567 1.370 . S
C567 C566 1.370 . S
C567 C568 1.396 . S
C567 H594 0.929 . S
C568 C563 1.373 . S
C568 C567 1.396 . S
C568 H595 0.929 . S
C569 O582 1.240 . S
C569 O583 1.289 . S
C570 O584 1.258 . S
C570 O585 1.256 . S
C571 La561 2.928 . S
C571 C572 1.503 . S
C571 O586 1.261 . S
C571 O587 1.243 . S
C572 C571 1.503 . S
C572 C573 1.394 . S
C572 C577 1.373 . S
C573 C572 1.394 . S
C573 C574 1.380 . S
C573 H596 0.930 . S
C574 C573 1.380 . S
C574 C575 1.376 . S
C574 H597 0.930 . S
C575 C574 1.376 . S
C575 C576 1.370 . S
C576 C575 1.370 . S
C576 C577 1.396 . S
C576 H598 0.929 . S
C577 C572 1.373 . S
C577 C576 1.396 . S
C577 H599 0.929 . S
C578 O588 1.240 . S
C578 O589 1.289 . S
C579 O590 1.258 . S
C579 O591 1.256 . S
O580 La560 2.521 . S
O580 C562 1.261 . S
O581 La560 2.628 . S
O581 C562 1.243 . S
O582 La560 2.554 . S
O582 C569 1.240 . S
O583 La560 2.757 . S
O583 La561 2.482 . S
O583 C569 1.289 . S
O584 La560 2.470 . S
O584 C570 1.258 . S
O585 La561 2.503 . S
O585 C570 1.256 . S
O586 La561 2.521 . S
O586 C571 1.261 . S
O587 La561 2.628 . S
O587 C571 1.243 . S
O588 La561 2.554 . S
O588 C578 1.240 . S
O589 La560 2.482 . S
O589 La561 2.757 . S
O589 C578 1.289 . S
O590 La561 2.470 . S
O590 C579 1.258 . S
O591 La560 2.503 . S
O591 C579 1.256 . S
H592 C564 0.930 . S
H593 C565 0.930 . S
H594 C567 0.929 . S
H595 C568 0.929 . S
H596 C573 0.930 . S
H597 C574 0.930 . S
H598 C576 0.929 . S
H599 C577 0.929 . S
La600 C602 2.928 . S
La600 O620 2.521 . S
La600 O621 2.628 . S
La600 O622 2.554 . S
La600 O623 2.757 . S
La600 O624 2.470 . S
La600 O629 2.482 . S
La600 O631 2.503 . S
La601 C611 2.928 . S
La601 O623 2.482 . S
La601 O625 2.503 . S
La601 O626 2.521 . S
La601 O627 2.628 1_545 S
La601 O628 2.554 . S
La601 O629 2.757 . S
La601 O630 2.470 . S
C602 La600 2.928 . S
C602 C603 1.503 . S
C602 O620 1.261 . S
C602 O621 1.243 . S
C603 C602 1.503 . S
C603 C604 1.394 . S
C603 C608 1.373 . S
C604 C603 1.394 . S
C604 C605 1.380 . S
C604 H632 0.930 . S
C605 C604 1.380 . S
C605 C606 1.376 . S
C605 H633 0.930 . S
C606 C605 1.376 . S
C606 C607 1.370 . S
C607 C606 1.370 . S
C607 C608 1.396 . S
C607 H634 0.929 . S
C608 C603 1.373 . S
C608 C607 1.396 . S
C608 H635 0.929 . S
C609 O622 1.240 . S
C609 O623 1.289 . S
C610 O624 1.258 . S
C610 O625 1.256 . S
C611 La601 2.928 . S
C611 C612 1.503 1_545 S
C611 O626 1.261 . S
C611 O627 1.243 1_545 S
C612 C611 1.503 1_565 S
C612 C613 1.394 1_565 S
C612 C617 1.373 . S
C613 C612 1.394 1_545 S
C613 C614 1.380 1_545 S
C613 H636 0.930 . S
C614 C613 1.380 1_565 S
C614 C615 1.376 . S
C614 H637 0.930 . S
C615 C614 1.376 . S
C615 C616 1.370 . S
C616 C615 1.370 . S
C616 C617 1.396 . S
C616 H638 0.929 . S
C617 C612 1.373 . S
C617 C616 1.396 . S
C617 H639 0.929 . S
C618 O628 1.240 . S
C618 O629 1.289 . S
C619 O630 1.258 . S
C619 O631 1.256 . S
O620 La600 2.521 . S
O620 C602 1.261 . S
O621 La600 2.628 . S
O621 C602 1.243 . S
O622 La600 2.554 . S
O622 C609 1.240 . S
O623 La600 2.757 . S
O623 La601 2.482 . S
O623 C609 1.289 . S
O624 La600 2.470 . S
O624 C610 1.258 . S
O625 La601 2.503 . S
O625 C610 1.256 . S
O626 La601 2.521 . S
O626 C611 1.261 . S
O627 La601 2.628 1_565 S
O627 C611 1.243 1_565 S
O628 La601 2.554 . S
O628 C618 1.240 . S
O629 La600 2.482 . S
O629 La601 2.757 . S
O629 C618 1.289 . S
O630 La601 2.470 . S
O630 C619 1.258 . S
O631 La600 2.503 . S
O631 C619 1.256 . S
H632 C604 0.930 . S
H633 C605 0.930 . S
H634 C607 0.929 . S
H635 C608 0.929 . S
H636 C613 0.930 . S
H637 C614 0.930 . S
H638 C616 0.929 . S
H639 C617 0.929 . S
H640 C646 0.930 . S
H641 C650 0.930 . S
H642 C655 0.929 . S
H643 C653 0.929 . S
H644 C648 0.929 . S
H645 C654 0.929 . S
C646 H640 0.930 . S
C646 C647 1.367 . S
C646 C654 1.378 . S
C647 C646 1.367 . S
C647 C655 1.433 . S
C648 H644 0.929 . S
C648 C650 1.378 . S
C648 C652 1.350 . S
C649 C652 1.463 . S
C649 C654 1.350 . S
C649 N657 1.427 . S
C650 H641 0.930 . S
C650 C648 1.378 . S
C650 C651 1.367 . S
C651 C650 1.367 . S
C651 C653 1.433 . S
C652 C648 1.350 . S
C652 C649 1.463 . S
C652 N656 1.427 . S
C653 H643 0.929 . S
C653 C651 1.433 . S
C653 N656 1.384 . S
C654 H645 0.929 . S
C654 C646 1.378 . S
C654 C649 1.350 . S
C655 H642 0.929 . S
C655 C647 1.433 . S
C655 N657 1.384 . S
N656 C652 1.427 . S
N656 C653 1.384 . S
N657 C649 1.427 . S
N657 C655 1.384 . S
H658 C664 0.930 . S
H659 C668 0.930 . S
H660 C673 0.929 . S
H661 C671 0.929 . S
H662 C666 0.929 . S
H663 C672 0.929 . S
C664 H658 0.930 . S
C664 C665 1.367 . S
C664 C672 1.378 . S
C665 C664 1.367 . S
C665 C673 1.433 . S
C666 H662 0.929 . S
C666 C668 1.378 . S
C666 C670 1.350 . S
C667 C670 1.463 . S
C667 C672 1.350 . S
C667 N675 1.427 . S
C668 H659 0.930 . S
C668 C666 1.378 . S
C668 C669 1.367 . S
C669 C668 1.367 . S
C669 C671 1.433 . S
C670 C666 1.350 . S
C670 C667 1.463 . S
C670 N674 1.427 . S
C671 H661 0.929 . S
C671 C669 1.433 . S
C671 N674 1.384 . S
C672 H663 0.929 . S
C672 C664 1.378 . S
C672 C667 1.350 . S
C673 H660 0.929 . S
C673 C665 1.433 . S
C673 N675 1.384 . S
N674 C670 1.427 . S
N674 C671 1.384 . S
N675 C667 1.427 . S
N675 C673 1.384 . S
H676 C682 0.930 . S
H677 C686 0.930 . S
H678 C691 0.929 . S
H679 C689 0.929 . S
H680 C684 0.924 1_455 S
H681 C690 0.924 1_655 S
C682 H676 0.930 . S
C682 C683 1.367 . S
C682 C690 1.378 . S
C683 C682 1.367 . S
C683 C691 1.433 . S
C684 H680 0.924 1_655 S
C684 C686 1.378 . S
C684 C688 1.350 . S
C685 C688 1.463 1_455 S
C685 C690 1.350 . S
C685 N693 1.427 . S
C686 H677 0.930 . S
C686 C684 1.378 . S
C686 C687 1.367 . S
C687 C686 1.367 . S
C687 C689 1.433 . S
C688 C684 1.350 . S
C688 C685 1.463 1_655 S
C688 N692 1.427 . S
C689 H679 0.929 . S
C689 C687 1.433 . S
C689 N692 1.384 . S
C690 H681 0.924 1_455 S
C690 C682 1.378 . S
C690 C685 1.350 . S
C691 H678 0.929 . S
C691 C683 1.433 . S
C691 N693 1.384 . S
N692 C688 1.427 . S
N692 C689 1.384 . S
N693 C685 1.427 . S
N693 C691 1.384 . S
H694 C700 0.930 . S
H695 C704 0.930 . S
H696 C709 0.929 1_655 S
H697 C707 0.929 1_455 S
H698 C702 0.929 . S
H699 C708 0.929 . S
C700 H694 0.930 . S
C700 C701 1.367 . S
C700 C708 1.378 . S
C701 C700 1.367 . S
C701 C709 1.433 . S
C702 H698 0.929 . S
C702 C704 1.378 . S
C702 C706 1.350 . S
C703 C706 1.463 1_455 S
C703 C708 1.350 . S
C703 N711 1.427 1_455 S
C704 H695 0.930 . S
C704 C702 1.378 . S
C704 C705 1.367 . S
C705 C704 1.367 . S
C705 C707 1.433 . S
C706 C702 1.350 . S
C706 C703 1.463 1_655 S
C706 N710 1.427 1_655 S
C707 H697 0.929 1_655 S
C707 C705 1.433 . S
C707 N710 1.384 1_655 S
C708 H699 0.929 . S
C708 C700 1.378 . S
C708 C703 1.350 . S
C709 H696 0.929 1_455 S
C709 C701 1.433 . S
C709 N711 1.384 1_455 S
N710 C706 1.427 1_455 S
N710 C707 1.384 1_455 S
N711 C703 1.427 1_655 S
N711 C709 1.384 1_655 S
H712 C718 0.930 . S
H713 C722 0.930 . S
H714 C727 0.929 . S
H715 C725 0.929 . S
H716 C720 0.929 . S
H717 C726 0.929 . S
C718 H712 0.930 . S
C718 C719 1.367 . S
C718 C726 1.378 . S
C719 C718 1.367 . S
C719 C727 1.433 . S
C720 H716 0.929 . S
C720 C722 1.378 . S
C720 C724 1.350 . S
C721 C724 1.463 . S
C721 C726 1.350 . S
C721 N729 1.427 . S
C722 H713 0.930 . S
C722 C720 1.378 . S
C722 C723 1.367 . S
C723 C722 1.367 . S
C723 C725 1.433 . S
C724 C720 1.350 . S
C724 C721 1.463 . S
C724 N728 1.427 . S
C725 H715 0.929 . S
C725 C723 1.433 . S
C725 N728 1.384 . S
C726 H717 0.929 . S
C726 C718 1.378 . S
C726 C721 1.350 . S
C727 H714 0.929 . S
C727 C719 1.433 . S
C727 N729 1.384 . S
N728 C724 1.427 . S
N728 C725 1.384 . S
N729 C721 1.427 . S
N729 C727 1.384 . S
H730 C736 0.930 . S
H731 C740 0.930 . S
H732 C745 0.929 . S
H733 C743 0.929 . S
H734 C738 0.929 . S
H735 C744 0.929 . S
C736 H730 0.930 . S
C736 C737 1.367 . S
C736 C744 1.378 . S
C737 C736 1.367 . S
C737 C745 1.433 . S
C738 H734 0.929 . S
C738 C740 1.378 . S
C738 C742 1.350 . S
C739 C742 1.463 . S
C739 C744 1.350 . S
C739 N747 1.427 . S
C740 H731 0.930 . S
C740 C738 1.378 . S
C740 C741 1.367 . S
C741 C740 1.367 . S
C741 C743 1.433 . S
C742 C738 1.350 . S
C742 C739 1.463 . S
C742 N746 1.427 . S
C743 H733 0.929 . S
C743 C741 1.433 . S
C743 N746 1.384 . S
C744 H735 0.929 . S
C744 C736 1.378 . S
C744 C739 1.350 . S
C745 H732 0.929 . S
C745 C737 1.433 . S
C745 N747 1.384 . S
N746 C742 1.427 . S
N746 C743 1.384 . S
N747 C739 1.427 . S
N747 C745 1.384 . S
H748 C754 0.930 . S
H749 C758 0.930 . S
H750 C763 0.929 . S
H751 C761 0.929 . S
H752 C756 0.929 . S
H753 C762 0.929 . S
C754 H748 0.930 . S
C754 C755 1.367 . S
C754 C762 1.378 . S
C755 C754 1.367 . S
C755 C763 1.433 . S
C756 H752 0.929 . S
C756 C758 1.378 . S
C756 C760 1.350 . S
C757 C760 1.463 1_455 S
C757 C762 1.350 . S
C757 N765 1.427 . S
C758 H749 0.930 . S
C758 C756 1.378 . S
C758 C759 1.367 . S
C759 C758 1.367 . S
C759 C761 1.433 . S
C760 C756 1.350 . S
C760 C757 1.463 1_655 S
C760 N764 1.427 . S
C761 H751 0.929 . S
C761 C759 1.433 . S
C761 N764 1.384 . S
C762 H753 0.929 . S
C762 C754 1.378 . S
C762 C757 1.350 . S
C763 H750 0.929 . S
C763 C755 1.433 . S
C763 N765 1.384 . S
N764 C760 1.427 . S
N764 C761 1.384 . S
N765 C757 1.427 . S
N765 C763 1.384 . S
H766 C772 0.930 . S
H767 C776 0.930 . S
H768 C781 0.929 . S
H769 C779 0.929 . S
H770 C774 0.929 1_455 S
H771 C780 0.929 1_655 S
C772 H766 0.930 . S
C772 C773 1.367 . S
C772 C780 1.378 . S
C773 C772 1.367 . S
C773 C781 1.433 . S
C774 H770 0.929 1_655 S
C774 C776 1.378 . S
C774 C778 1.350 . S
C775 C778 1.463 1_455 S
C775 C780 1.350 . S
C775 N783 1.427 . S
C776 H767 0.930 . S
C776 C774 1.378 . S
C776 C777 1.367 . S
C777 C776 1.367 . S
C777 C779 1.433 . S
C778 C774 1.350 . S
C778 C775 1.463 1_655 S
C778 N782 1.427 . S
C779 H769 0.929 . S
C779 C777 1.433 . S
C779 N782 1.384 . S
C780 H771 0.929 1_455 S
C780 C772 1.378 . S
C780 C775 1.350 . S
C781 H768 0.929 . S
C781 C773 1.433 . S
C781 N783 1.384 . S
N782 C778 1.427 . S
N782 C779 1.384 . S
N783 C775 1.427 . S
N783 C781 1.384 . S
H784 C790 0.930 . S
H785 C794 0.930 . S
H786 C799 0.929 . S
H787 C797 0.929 . S
H788 C792 0.929 . S
H789 C798 0.929 . S
C790 H784 0.930 . S
C790 C791 1.367 1_546 S
C790 C798 1.378 . S
C791 C790 1.367 1_564 S
C791 C799 1.433 . S
C792 H788 0.929 . S
C792 C794 1.378 . S
C792 C796 1.350 1_564 S
C793 C796 1.463 1_564 S
C793 C798 1.350 1_564 S
C793 N801 1.427 . S
C794 H785 0.930 . S
C794 C792 1.378 . S
C794 C795 1.367 1_564 S
C795 C794 1.367 1_546 S
C795 C797 1.433 . S
C796 C792 1.350 1_546 S
C796 C793 1.463 1_546 S
C796 N800 1.427 . S
C797 H787 0.929 . S
C797 C795 1.433 . S
C797 N800 1.384 . S
C798 H789 0.929 . S
C798 C790 1.378 . S
C798 C793 1.350 1_546 S
C799 H786 0.929 . S
C799 C791 1.433 . S
C799 N801 1.384 . S
N800 C796 1.427 . S
N800 C797 1.384 . S
N801 C793 1.427 . S
N801 C799 1.384 . S
H802 C808 0.930 . S
H803 C812 0.930 . S
H804 C817 0.929 . S
H805 C815 0.929 . S
H806 C810 0.929 . S
H807 C816 0.929 . S
C808 H802 0.930 . S
C808 C809 1.367 . S
C808 C816 1.378 . S
C809 C808 1.367 . S
C809 C817 1.433 . S
C810 H806 0.929 . S
C810 C812 1.378 . S
C810 C814 1.350 . S
C811 C814 1.463 . S
C811 C816 1.350 . S
C811 N819 1.427 . S
C812 H803 0.930 . S
C812 C810 1.378 . S
C812 C813 1.367 . S
C813 C812 1.367 . S
C813 C815 1.433 . S
C814 C810 1.350 . S
C814 C811 1.463 . S
C814 N818 1.427 . S
C815 H805 0.929 . S
C815 C813 1.433 . S
C815 N818 1.384 . S
C816 H807 0.929 . S
C816 C808 1.378 . S
C816 C811 1.350 . S
C817 H804 0.929 . S
C817 C809 1.433 . S
C817 N819 1.384 . S
N818 C814 1.427 . S
N818 C815 1.384 . S
N819 C811 1.427 . S
N819 C817 1.384 . S
H820 C826 0.930 . S
H821 C830 0.930 . S
H822 C835 0.929 . S
H823 C833 0.929 . S
H824 C828 0.929 . S
H825 C834 0.929 . S
C826 H820 0.930 . S
C826 C827 1.367 . S
C826 C834 1.378 . S
C827 C826 1.367 . S
C827 C835 1.433 1_545 S
C828 H824 0.929 . S
C828 C830 1.378 . S
C828 C832 1.350 . S
C829 C832 1.463 1_445 S
C829 C834 1.350 . S
C829 N837 1.427 1_545 S
C830 H821 0.930 . S
C830 C828 1.378 . S
C830 C831 1.367 . S
C831 C830 1.367 . S
C831 C833 1.433 1_565 S
C832 C828 1.350 . S
C832 C829 1.463 1_665 S
C832 N836 1.427 1_565 S
C833 H823 0.929 . S
C833 C831 1.433 1_545 S
C833 N836 1.384 . S
C834 H825 0.929 . S
C834 C826 1.378 . S
C834 C829 1.350 . S
C835 H822 0.929 . S
C835 C827 1.433 1_565 S
C835 N837 1.384 . S
N836 C832 1.427 1_545 S
N836 C833 1.384 . S
N837 C829 1.427 1_565 S
N837 C835 1.384 . S
H838 C844 0.930 . S
H839 C848 0.930 . S
H840 C853 0.929 . S
H841 C851 0.929 . S
H842 C846 0.929 . S
H843 C852 0.929 . S
C844 H838 0.930 . S
C844 C845 1.367 . S
C844 C852 1.378 . S
C845 C844 1.367 . S
C845 C853 1.433 . S
C846 H842 0.929 . S
C846 C848 1.378 . S
C846 C850 1.350 . S
C847 C850 1.463 . S
C847 C852 1.350 . S
C847 N855 1.427 . S
C848 H839 0.930 . S
C848 C846 1.378 . S
C848 C849 1.367 . S
C849 C848 1.367 . S
C849 C851 1.433 . S
C850 C846 1.350 . S
C850 C847 1.463 . S
C850 N854 1.427 . S
C851 H841 0.929 . S
C851 C849 1.433 . S
C851 N854 1.384 . S
C852 H843 0.929 . S
C852 C844 1.378 . S
C852 C847 1.350 . S
C853 H840 0.929 . S
C853 C845 1.433 . S
C853 N855 1.384 . S
N854 C850 1.427 . S
N854 C851 1.384 . S
N855 C847 1.427 . S
N855 C853 1.384 . S
H856 C862 0.930 . S
H857 C866 0.930 . S
H858 C871 0.929 . S
H859 C869 0.929 . S
H860 C864 0.929 . S
H861 C870 0.929 . S
C862 H856 0.930 . S
C862 C863 1.367 . S
C862 C870 1.378 . S
C863 C862 1.367 . S
C863 C871 1.433 . S
C864 H860 0.929 . S
C864 C866 1.378 . S
C864 C868 1.350 . S
C865 C868 1.463 . S
C865 C870 1.350 . S
C865 N873 1.427 . S
C866 H857 0.930 . S
C866 C864 1.378 . S
C866 C867 1.367 . S
C867 C866 1.367 . S
C867 C869 1.433 . S
C868 C864 1.350 . S
C868 C865 1.463 . S
C868 N872 1.427 . S
C869 H859 0.929 . S
C869 C867 1.433 . S
C869 N872 1.384 . S
C870 H861 0.929 . S
C870 C862 1.378 . S
C870 C865 1.350 . S
C871 H858 0.929 . S
C871 C863 1.433 . S
C871 N873 1.384 . S
N872 C868 1.427 . S
N872 C869 1.384 . S
N873 C865 1.427 . S
N873 C871 1.384 . S
H874 C880 0.930 . S
H875 C884 0.930 . S
H876 C889 0.929 . S
H877 C887 0.929 . S
H878 C882 0.929 . S
H879 C888 0.929 . S
C880 H874 0.930 . S
C880 C881 1.367 . S
C880 C888 1.378 . S
C881 C880 1.367 . S
C881 C889 1.433 . S
C882 H878 0.929 . S
C882 C884 1.378 . S
C882 C886 1.350 . S
C883 C886 1.463 . S
C883 C888 1.350 . S
C883 N891 1.427 . S
C884 H875 0.930 . S
C884 C882 1.378 . S
C884 C885 1.367 . S
C885 C884 1.367 . S
C885 C887 1.433 . S
C886 C882 1.350 . S
C886 C883 1.463 . S
C886 N890 1.427 . S
C887 H877 0.929 . S
C887 C885 1.433 . S
C887 N890 1.384 . S
C888 H879 0.929 . S
C888 C880 1.378 . S
C888 C883 1.350 . S
C889 H876 0.929 . S
C889 C881 1.433 . S
C889 N891 1.384 . S
N890 C886 1.427 . S
N890 C887 1.384 . S
N891 C883 1.427 . S
N891 C889 1.384 . S
H892 C898 0.930 . S
H893 C902 0.930 . S
H894 C907 0.929 . S
H895 C905 0.929 . S
H896 C900 0.929 . S
H897 C906 0.929 . S
C898 H892 0.930 . S
C898 C899 1.367 . S
C898 C906 1.378 . S
C899 C898 1.367 . S
C899 C907 1.433 . S
C900 H896 0.929 . S
C900 C902 1.378 . S
C900 C904 1.350 . S
C901 C904 1.463 1_455 S
C901 C906 1.350 . S
C901 N909 1.427 . S
C902 H893 0.930 . S
C902 C900 1.378 . S
C902 C903 1.367 . S
C903 C902 1.367 . S
C903 C905 1.433 . S
C904 C900 1.350 . S
C904 C901 1.463 1_655 S
C904 N908 1.427 . S
C905 H895 0.929 . S
C905 C903 1.433 . S
C905 N908 1.384 . S
C906 H897 0.929 . S
C906 C898 1.378 . S
C906 C901 1.350 . S
C907 H894 0.929 . S
C907 C899 1.433 . S
C907 N909 1.384 . S
N908 C904 1.427 . S
N908 C905 1.384 . S
N909 C901 1.427 . S
N909 C907 1.384 . S
H910 C916 0.930 . S
H911 C920 0.930 . S
H912 C925 0.929 . S
H913 C923 0.929 . S
H914 C918 0.950 . S
H915 C924 0.950 . S
C916 H910 0.930 . S
C916 C917 1.367 . S
C916 C924 1.367 1_554 S
C917 C916 1.367 . S
C917 C925 1.433 . S
C918 H914 0.950 . S
C918 C920 1.367 1_554 S
C918 C922 1.343 1_554 S
C919 C922 1.463 1_554 S
C919 C924 1.343 1_554 S
C919 N927 1.427 . S
C920 H911 0.930 . S
C920 C918 1.367 1_556 S
C920 C921 1.367 . S
C921 C920 1.367 . S
C921 C923 1.433 . S
C922 C918 1.343 1_556 S
C922 C919 1.463 1_556 S
C922 N926 1.427 . S
C923 H913 0.929 . S
C923 C921 1.433 . S
C923 N926 1.384 . S
C924 H915 0.950 . S
C924 C916 1.367 1_556 S
C924 C919 1.343 1_556 S
C925 H912 0.929 . S
C925 C917 1.433 . S
C925 N927 1.384 . S
N926 C922 1.427 . S
N926 C923 1.384 . S
N927 C919 1.427 . S
N927 C925 1.384 . S
H928 C934 0.930 . S
H929 C938 0.930 . S
H930 C943 0.929 . S
H931 C941 0.929 . S
H932 C936 0.929 . S
H933 C942 0.929 . S
C934 H928 0.930 . S
C934 C935 1.367 . S
C934 C942 1.378 . S
C935 C934 1.367 . S
C935 C943 1.433 . S
C936 H932 0.929 . S
C936 C938 1.378 . S
C936 C940 1.350 . S
C937 C940 1.463 . S
C937 C942 1.350 . S
C937 N945 1.427 . S
C938 H929 0.930 . S
C938 C936 1.378 . S
C938 C939 1.367 . S
C939 C938 1.367 . S
C939 C941 1.433 . S
C940 C936 1.350 . S
C940 C937 1.463 . S
C940 N944 1.427 . S
C941 H931 0.929 . S
C941 C939 1.433 . S
C941 N944 1.384 . S
C942 H933 0.929 . S
C942 C934 1.378 . S
C942 C937 1.350 . S
C943 H930 0.929 . S
C943 C935 1.433 . S
C943 N945 1.384 . S
N944 C940 1.427 . S
N944 C941 1.384 . S
N945 C937 1.427 . S
N945 C943 1.384 . S
H946 C952 0.930 . S
H947 C956 0.930 . S
H948 C961 0.929 . S
H949 C959 0.929 . S
H950 C954 0.929 . S
H951 C960 0.929 . S
C952 H946 0.930 . S
C952 C953 1.367 . S
C952 C960 1.378 . S
C953 C952 1.367 . S
C953 C961 1.433 . S
C954 H950 0.929 . S
C954 C956 1.378 . S
C954 C958 1.350 . S
C955 C958 1.463 . S
C955 C960 1.350 . S
C955 N963 1.427 . S
C956 H947 0.930 . S
C956 C954 1.378 . S
C956 C957 1.367 . S
C957 C956 1.367 . S
C957 C959 1.433 . S
C958 C954 1.350 . S
C958 C955 1.463 . S
C958 N962 1.427 . S
C959 H949 0.929 . S
C959 C957 1.433 . S
C959 N962 1.384 . S
C960 H951 0.929 . S
C960 C952 1.378 . S
C960 C955 1.350 . S
C961 H948 0.929 . S
C961 C953 1.433 . S
C961 N963 1.384 . S
N962 C958 1.427 . S
N962 C959 1.384 . S
N963 C955 1.427 . S
N963 C961 1.384 . S
H964 C970 0.930 . S
H965 C974 0.930 . S
H966 C979 0.929 . S
H967 C977 0.929 . S
H968 C972 0.929 . S
H969 C978 0.929 . S
C970 H964 0.930 . S
C970 C971 1.367 . S
C970 C978 1.378 . S
C971 C970 1.367 . S
C971 C979 1.433 . S
C972 H968 0.929 . S
C972 C974 1.378 . S
C972 C976 1.350 . S
C973 C976 1.463 . S
C973 C978 1.350 . S
C973 N981 1.427 . S
C974 H965 0.930 . S
C974 C972 1.378 . S
C974 C975 1.367 . S
C975 C974 1.367 . S
C975 C977 1.433 . S
C976 C972 1.350 . S
C976 C973 1.463 . S
C976 N980 1.427 . S
C977 H967 0.929 . S
C977 C975 1.433 . S
C977 N980 1.384 . S
C978 H969 0.929 . S
C978 C970 1.378 . S
C978 C973 1.350 . S
C979 H966 0.929 . S
C979 C971 1.433 . S
C979 N981 1.384 . S
N980 C976 1.427 . S
N980 C977 1.384 . S
N981 C973 1.427 . S
N981 C979 1.384 . S
H982 C988 0.930 . S
H983 C992 0.930 . S
H984 C997 0.929 . S
H985 C995 0.929 . S
H986 C990 0.929 . S
H987 C996 0.929 . S
C988 H982 0.930 . S
C988 C989 1.367 . S
C988 C996 1.378 . S
C989 C988 1.367 . S
C989 C997 1.433 . S
C990 H986 0.929 . S
C990 C992 1.378 . S
C990 C994 1.350 . S
C991 C994 1.463 . S
C991 C996 1.350 . S
C991 N999 1.427 . S
C992 H983 0.930 . S
C992 C990 1.378 . S
C992 C993 1.367 . S
C993 C992 1.367 . S
C993 C995 1.433 . S
C994 C990 1.350 . S
C994 C991 1.463 . S
C994 N998 1.427 . S
C995 H985 0.929 . S
C995 C993 1.433 . S
C995 N998 1.384 . S
C996 H987 0.929 . S
C996 C988 1.378 . S
C996 C991 1.350 . S
C997 H984 0.929 . S
C997 C989 1.433 . S
C997 N999 1.384 . S
N998 C994 1.427 . S
N998 C995 1.384 . S
N999 C991 1.427 . S
N999 C997 1.384 . S
H1000 C1006 0.930 . S
H1001 C1010 0.930 . S
H1002 C1015 0.929 . S
H1003 C1013 0.929 . S
H1004 C1008 0.929 . S
H1005 C1014 0.929 . S
C1006 H1000 0.930 . S
C1006 C1007 1.367 . S
C1006 C1014 1.378 . S
C1007 C1006 1.367 . S
C1007 C1015 1.433 . S
C1008 H1004 0.929 . S
C1008 C1010 1.378 . S
C1008 C1012 1.350 . S
C1009 C1012 1.463 . S
C1009 C1014 1.350 . S
C1009 N1017 1.427 . S
C1010 H1001 0.930 . S
C1010 C1008 1.378 . S
C1010 C1011 1.367 . S
C1011 C1010 1.367 . S
C1011 C1013 1.433 . S
C1012 C1008 1.350 . S
C1012 C1009 1.463 . S
C1012 N1016 1.427 . S
C1013 H1003 0.929 . S
C1013 C1011 1.433 . S
C1013 N1016 1.384 . S
C1014 H1005 0.929 . S
C1014 C1006 1.378 . S
C1014 C1009 1.350 . S
C1015 H1002 0.929 . S
C1015 C1007 1.433 . S
C1015 N1017 1.384 . S
N1016 C1012 1.427 . S
N1016 C1013 1.384 . S
N1017 C1009 1.427 . S
N1017 C1015 1.384 . S
H1018 C1024 0.930 . S
H1019 C1028 0.930 . S
H1020 C1033 0.929 . S
H1021 C1031 0.929 . S
H1022 C1026 0.929 . S
H1023 C1032 0.929 . S
C1024 H1018 0.930 . S
C1024 C1025 1.367 . S
C1024 C1032 1.378 . S
C1025 C1024 1.367 . S
C1025 C1033 1.433 . S
C1026 H1022 0.929 . S
C1026 C1028 1.378 . S
C1026 C1030 1.350 . S
C1027 C1030 1.463 . S
C1027 C1032 1.350 . S
C1027 N1035 1.427 . S
C1028 H1019 0.930 . S
C1028 C1026 1.378 . S
C1028 C1029 1.367 . S
C1029 C1028 1.367 . S
C1029 C1031 1.433 . S
C1030 C1026 1.350 . S
C1030 C1027 1.463 . S
C1030 N1034 1.427 . S
C1031 H1021 0.929 . S
C1031 C1029 1.433 . S
C1031 N1034 1.384 . S
C1032 H1023 0.929 . S
C1032 C1024 1.378 . S
C1032 C1027 1.350 . S
C1033 H1020 0.929 . S
C1033 C1025 1.433 . S
C1033 N1035 1.384 . S
N1034 C1030 1.427 . S
N1034 C1031 1.384 . S
N1035 C1027 1.427 . S
N1035 C1033 1.384 . S
H1036 C1042 0.930 . S
H1037 C1046 0.930 . S
H1038 C1051 0.929 . S
H1039 C1049 0.929 . S
H1040 C1044 0.929 . S
H1041 C1050 0.929 . S
C1042 H1036 0.930 . S
C1042 C1043 1.367 . S
C1042 C1050 1.378 . S
C1043 C1042 1.367 . S
C1043 C1051 1.433 . S
C1044 H1040 0.929 . S
C1044 C1046 1.378 . S
C1044 C1048 1.350 . S
C1045 C1048 1.463 . S
C1045 C1050 1.350 . S
C1045 N1053 1.427 . S
C1046 H1037 0.930 . S
C1046 C1044 1.378 . S
C1046 C1047 1.367 . S
C1047 C1046 1.367 . S
C1047 C1049 1.433 . S
C1048 C1044 1.350 . S
C1048 C1045 1.463 . S
C1048 N1052 1.427 . S
C1049 H1039 0.929 . S
C1049 C1047 1.433 . S
C1049 N1052 1.384 . S
C1050 H1041 0.929 . S
C1050 C1042 1.378 . S
C1050 C1045 1.350 . S
C1051 H1038 0.929 . S
C1051 C1043 1.433 . S
C1051 N1053 1.384 . S
N1052 C1048 1.427 . S
N1052 C1049 1.384 . S
N1053 C1045 1.427 . S
N1053 C1051 1.384 . S
H1054 C1060 0.930 . S
H1055 C1064 0.930 . S
H1056 C1069 0.929 . S
H1057 C1067 0.929 . S
H1058 C1062 0.929 . S
H1059 C1068 0.929 . S
C1060 H1054 0.930 . S
C1060 C1061 1.367 . S
C1060 C1068 1.378 . S
C1061 C1060 1.367 . S
C1061 C1069 1.433 . S
C1062 H1058 0.929 . S
C1062 C1064 1.378 . S
C1062 C1066 1.350 . S
C1063 C1066 1.463 . S
C1063 C1068 1.350 . S
C1063 N1071 1.427 . S
C1064 H1055 0.930 . S
C1064 C1062 1.378 . S
C1064 C1065 1.367 . S
C1065 C1064 1.367 . S
C1065 C1067 1.433 . S
C1066 C1062 1.350 . S
C1066 C1063 1.463 . S
C1066 N1070 1.427 . S
C1067 H1057 0.929 . S
C1067 C1065 1.433 . S
C1067 N1070 1.384 . S
C1068 H1059 0.929 . S
C1068 C1060 1.378 . S
C1068 C1063 1.350 . S
C1069 H1056 0.929 . S
C1069 C1061 1.433 . S
C1069 N1071 1.384 . S
N1070 C1066 1.427 . S
N1070 C1067 1.384 . S
N1071 C1063 1.427 . S
N1071 C1069 1.384 . S
H1072 C1078 0.930 . S
H1073 C1082 0.930 . S
H1074 C1087 0.929 . S
H1075 C1085 0.929 . S
H1076 C1080 0.929 . S
H1077 C1086 0.929 . S
C1078 H1072 0.930 . S
C1078 C1079 1.367 . S
C1078 C1086 1.378 . S
C1079 C1078 1.367 . S
C1079 C1087 1.433 . S
C1080 H1076 0.929 . S
C1080 C1082 1.378 . S
C1080 C1084 1.350 . S
C1081 C1084 1.463 . S
C1081 C1086 1.350 . S
C1081 N1089 1.427 . S
C1082 H1073 0.930 . S
C1082 C1080 1.378 . S
C1082 C1083 1.367 . S
C1083 C1082 1.367 . S
C1083 C1085 1.433 . S
C1084 C1080 1.350 . S
C1084 C1081 1.463 . S
C1084 N1088 1.427 . S
C1085 H1075 0.929 . S
C1085 C1083 1.433 . S
C1085 N1088 1.384 . S
C1086 H1077 0.929 . S
C1086 C1078 1.378 . S
C1086 C1081 1.350 . S
C1087 H1074 0.929 . S
C1087 C1079 1.433 . S
C1087 N1089 1.384 . S
N1088 C1084 1.427 . S
N1088 C1085 1.384 . S
N1089 C1081 1.427 . S
N1089 C1087 1.384 . S
H1090 C1096 0.930 . S
H1091 C1100 0.930 . S
H1092 C1105 0.929 . S
H1093 C1103 0.929 1_545 S
H1094 C1098 0.929 . S
H1095 C1104 0.929 . S
C1096 H1090 0.930 . S
C1096 C1097 1.367 . S
C1096 C1104 1.378 . S
C1097 C1096 1.367 . S
C1097 C1105 1.433 . S
C1098 H1094 0.929 . S
C1098 C1100 1.378 . S
C1098 C1102 1.350 . S
C1099 C1102 1.463 . S
C1099 C1104 1.350 . S
C1099 N1107 1.427 . S
C1100 H1091 0.930 . S
C1100 C1098 1.378 . S
C1100 C1101 1.367 . S
C1101 C1100 1.367 . S
C1101 C1103 1.433 . S
C1102 C1098 1.350 . S
C1102 C1099 1.463 . S
C1102 N1106 1.427 . S
C1103 H1093 0.929 1_565 S
C1103 C1101 1.433 . S
C1103 N1106 1.384 . S
C1104 H1095 0.929 . S
C1104 C1096 1.378 . S
C1104 C1099 1.350 . S
C1105 H1092 0.929 . S
C1105 C1097 1.433 . S
C1105 N1107 1.384 . S
N1106 C1102 1.427 . S
N1106 C1103 1.384 . S
N1107 C1099 1.427 . S
N1107 C1105 1.384 . S
H1108 C1114 0.930 . S
H1109 C1118 0.930 . S
H1110 C1123 0.929 . S
H1111 C1121 0.929 . S
H1112 C1116 0.929 . S
H1113 C1122 0.929 . S
C1114 H1108 0.930 . S
C1114 C1115 1.367 . S
C1114 C1122 1.378 . S
C1115 C1114 1.367 . S
C1115 C1123 1.433 . S
C1116 H1112 0.929 . S
C1116 C1118 1.378 . S
C1116 C1120 1.350 . S
C1117 C1120 1.463 . S
C1117 C1122 1.350 . S
C1117 N1125 1.427 . S
C1118 H1109 0.930 . S
C1118 C1116 1.378 . S
C1118 C1119 1.367 . S
C1119 C1118 1.367 . S
C1119 C1121 1.433 . S
C1120 C1116 1.350 . S
C1120 C1117 1.463 . S
C1120 N1124 1.427 . S
C1121 H1111 0.929 . S
C1121 C1119 1.433 . S
C1121 N1124 1.384 . S
C1122 H1113 0.929 . S
C1122 C1114 1.378 . S
C1122 C1117 1.350 . S
C1123 H1110 0.929 . S
C1123 C1115 1.433 . S
C1123 N1125 1.384 . S
N1124 C1120 1.427 . S
N1124 C1121 1.384 . S
N1125 C1117 1.427 . S
N1125 C1123 1.384 . S
H1126 C1132 0.930 . S
H1127 C1136 0.930 . S
H1128 C1141 0.929 . S
H1129 C1139 0.929 1_565 S
H1130 C1134 0.929 . S
H1131 C1140 0.929 . S
C1132 H1126 0.930 . S
C1132 C1133 1.367 . S
C1132 C1140 1.378 . S
C1133 C1132 1.367 . S
C1133 C1141 1.433 . S
C1134 H1130 0.929 . S
C1134 C1136 1.378 . S
C1134 C1138 1.350 . S
C1135 C1138 1.463 . S
C1135 C1140 1.350 . S
C1135 N1143 1.427 . S
C1136 H1127 0.930 . S
C1136 C1134 1.378 . S
C1136 C1137 1.367 . S
C1137 C1136 1.367 . S
C1137 C1139 1.433 . S
C1138 C1134 1.350 . S
C1138 C1135 1.463 . S
C1138 N1142 1.427 . S
C1139 H1129 0.929 1_545 S
C1139 C1137 1.433 . S
C1139 N1142 1.384 . S
C1140 H1131 0.929 . S
C1140 C1132 1.378 . S
C1140 C1135 1.350 . S
C1141 H1128 0.929 . S
C1141 C1133 1.433 . S
C1141 N1143 1.384 . S
N1142 C1138 1.427 . S
N1142 C1139 1.384 . S
N1143 C1135 1.427 . S
N1143 C1141 1.384 . S
H1144 C1150 0.930 . S
H1145 C1154 0.930 . S
H1146 C1159 0.929 . S
H1147 C1157 0.929 . S
H1148 C1152 0.929 . S
H1149 C1158 0.929 . S
C1150 H1144 0.930 . S
C1150 C1151 1.367 . S
C1150 C1158 1.378 . S
C1151 C1150 1.367 . S
C1151 C1159 1.433 . S
C1152 H1148 0.929 . S
C1152 C1154 1.378 . S
C1152 C1156 1.350 . S
C1153 C1156 1.463 . S
C1153 C1158 1.350 . S
C1153 N1161 1.427 . S
C1154 H1145 0.930 . S
C1154 C1152 1.378 . S
C1154 C1155 1.367 . S
C1155 C1154 1.367 . S
C1155 C1157 1.433 . S
C1156 C1152 1.350 . S
C1156 C1153 1.463 . S
C1156 N1160 1.427 . S
C1157 H1147 0.929 . S
C1157 C1155 1.433 . S
C1157 N1160 1.384 . S
C1158 H1149 0.929 . S
C1158 C1150 1.378 . S
C1158 C1153 1.350 . S
C1159 H1146 0.929 . S
C1159 C1151 1.433 . S
C1159 N1161 1.384 . S
N1160 C1156 1.427 . S
N1160 C1157 1.384 . S
N1161 C1153 1.427 . S
N1161 C1159 1.384 . S
H1162 C1168 0.930 . S
H1163 C1172 0.930 . S
H1164 C1177 0.929 . S
H1165 C1175 0.929 . S
H1166 C1170 0.929 . S
H1167 C1176 0.929 . S
C1168 H1162 0.930 . S
C1168 C1169 1.367 . S
C1168 C1176 1.378 . S
C1169 C1168 1.367 . S
C1169 C1177 1.433 . S
C1170 H1166 0.929 . S
C1170 C1172 1.378 . S
C1170 C1174 1.350 . S
C1171 C1174 1.463 . S
C1171 C1176 1.350 . S
C1171 N1179 1.427 . S
C1172 H1163 0.930 . S
C1172 C1170 1.378 . S
C1172 C1173 1.367 . S
C1173 C1172 1.367 . S
C1173 C1175 1.433 . S
C1174 C1170 1.350 . S
C1174 C1171 1.463 . S
C1174 N1178 1.427 . S
C1175 H1165 0.929 . S
C1175 C1173 1.433 . S
C1175 N1178 1.384 . S
C1176 H1167 0.929 . S
C1176 C1168 1.378 . S
C1176 C1171 1.350 . S
C1177 H1164 0.929 . S
C1177 C1169 1.433 . S
C1177 N1179 1.384 . S
N1178 C1174 1.427 . S
N1178 C1175 1.384 . S
N1179 C1171 1.427 . S
N1179 C1177 1.384 . S
H1180 C1186 0.930 . S
H1181 C1190 0.930 . S
H1182 C1195 0.929 . S
H1183 C1193 0.929 . S
H1184 C1188 0.929 . S
H1185 C1194 0.929 . S
C1186 H1180 0.930 . S
C1186 C1187 1.367 . S
C1186 C1194 1.378 . S
C1187 C1186 1.367 . S
C1187 C1195 1.433 . S
C1188 H1184 0.929 . S
C1188 C1190 1.378 . S
C1188 C1192 1.350 . S
C1189 C1192 1.463 . S
C1189 C1194 1.350 . S
C1189 N1197 1.427 . S
C1190 H1181 0.930 . S
C1190 C1188 1.378 . S
C1190 C1191 1.367 . S
C1191 C1190 1.367 . S
C1191 C1193 1.433 . S
C1192 C1188 1.350 . S
C1192 C1189 1.463 . S
C1192 N1196 1.427 . S
C1193 H1183 0.929 . S
C1193 C1191 1.433 . S
C1193 N1196 1.384 . S
C1194 H1185 0.929 . S
C1194 C1186 1.378 . S
C1194 C1189 1.350 . S
C1195 H1182 0.929 . S
C1195 C1187 1.433 . S
C1195 N1197 1.384 . S
N1196 C1192 1.427 . S
N1196 C1193 1.384 . S
N1197 C1189 1.427 . S
N1197 C1195 1.384 . S
H1198 C1204 0.930 . S
H1199 C1208 0.930 . S
H1200 C1213 0.929 . S
H1201 C1211 0.929 . S
H1202 C1206 0.929 . S
H1203 C1212 0.929 . S
C1204 H1198 0.930 . S
C1204 C1205 1.367 . S
C1204 C1212 1.378 . S
C1205 C1204 1.367 . S
C1205 C1213 1.433 . S
C1206 H1202 0.929 . S
C1206 C1208 1.378 . S
C1206 C1210 1.350 . S
C1207 C1210 1.463 . S
C1207 C1212 1.350 . S
C1207 N1215 1.427 . S
C1208 H1199 0.930 . S
C1208 C1206 1.378 . S
C1208 C1209 1.367 . S
C1209 C1208 1.367 . S
C1209 C1211 1.433 . S
C1210 C1206 1.350 . S
C1210 C1207 1.463 . S
C1210 N1214 1.427 . S
C1211 H1201 0.929 . S
C1211 C1209 1.433 . S
C1211 N1214 1.384 . S
C1212 H1203 0.929 . S
C1212 C1204 1.378 . S
C1212 C1207 1.350 . S
C1213 H1200 0.929 . S
C1213 C1205 1.433 . S
C1213 N1215 1.384 . S
N1214 C1210 1.427 . S
N1214 C1211 1.384 . S
N1215 C1207 1.427 . S
N1215 C1213 1.384 . S
H1216 C1222 0.930 . S
H1217 C1226 0.930 . S
H1218 C1231 0.929 . S
H1219 C1229 0.929 . S
H1220 C1224 0.929 . S
H1221 C1230 0.929 . S
C1222 H1216 0.930 . S
C1222 C1223 1.367 1_556 S
C1222 C1230 1.378 . S
C1223 C1222 1.367 1_554 S
C1223 C1231 1.433 . S
C1224 H1220 0.929 . S
C1224 C1226 1.378 . S
C1224 C1228 1.350 . S
C1225 C1228 1.463 . S
C1225 C1230 1.350 . S
C1225 N1233 1.427 . S
C1226 H1217 0.930 . S
C1226 C1224 1.378 . S
C1226 C1227 1.367 . S
C1227 C1226 1.367 . S
C1227 C1229 1.433 . S
C1228 C1224 1.350 . S
C1228 C1225 1.463 . S
C1228 N1232 1.427 . S
C1229 H1219 0.929 . S
C1229 C1227 1.433 . S
C1229 N1232 1.384 . S
C1230 H1221 0.929 . S
C1230 C1222 1.378 . S
C1230 C1225 1.350 . S
C1231 H1218 0.929 . S
C1231 C1223 1.433 . S
C1231 N1233 1.384 1_554 S
N1232 C1228 1.427 . S
N1232 C1229 1.384 . S
N1233 C1225 1.427 . S
N1233 C1231 1.384 1_556 S
H1234 C1240 0.930 . S
H1235 C1244 0.930 . S
H1236 C1249 0.929 . S
H1237 C1247 0.929 . S
H1238 C1242 0.929 . S
H1239 C1248 0.929 . S
C1240 H1234 0.930 . S
C1240 C1241 1.367 . S
C1240 C1248 1.378 . S
C1241 C1240 1.367 . S
C1241 C1249 1.433 . S
C1242 H1238 0.929 . S
C1242 C1244 1.378 . S
C1242 C1246 1.350 . S
C1243 C1246 1.463 . S
C1243 C1248 1.350 . S
C1243 N1251 1.427 . S
C1244 H1235 0.930 . S
C1244 C1242 1.378 . S
C1244 C1245 1.367 . S
C1245 C1244 1.367 . S
C1245 C1247 1.433 . S
C1246 C1242 1.350 . S
C1246 C1243 1.463 . S
C1246 N1250 1.427 . S
C1247 H1237 0.929 . S
C1247 C1245 1.433 . S
C1247 N1250 1.384 . S
C1248 H1239 0.929 . S
C1248 C1240 1.378 . S
C1248 C1243 1.350 . S
C1249 H1236 0.929 . S
C1249 C1241 1.433 . S
C1249 N1251 1.384 . S
N1250 C1246 1.427 . S
N1250 C1247 1.384 . S
N1251 C1243 1.427 . S
N1251 C1249 1.384 . S
H1252 C1258 0.930 . S
H1253 C1262 0.930 . S
H1254 C1267 0.929 . S
H1255 C1265 0.929 . S
H1256 C1260 0.929 . S
H1257 C1266 0.929 . S
C1258 H1252 0.930 . S
C1258 C1259 1.367 . S
C1258 C1266 1.378 . S
C1259 C1258 1.367 . S
C1259 C1267 1.433 . S
C1260 H1256 0.929 . S
C1260 C1262 1.378 . S
C1260 C1264 1.350 . S
C1261 C1264 1.463 . S
C1261 C1266 1.350 . S
C1261 N1269 1.427 . S
C1262 H1253 0.930 . S
C1262 C1260 1.378 . S
C1262 C1263 1.367 . S
C1263 C1262 1.367 . S
C1263 C1265 1.433 . S
C1264 C1260 1.350 . S
C1264 C1261 1.463 . S
C1264 N1268 1.427 . S
C1265 H1255 0.929 . S
C1265 C1263 1.433 . S
C1265 N1268 1.384 . S
C1266 H1257 0.929 . S
C1266 C1258 1.378 . S
C1266 C1261 1.350 . S
C1267 H1254 0.929 . S
C1267 C1259 1.433 . S
C1267 N1269 1.384 . S
N1268 C1264 1.427 . S
N1268 C1265 1.384 . S
N1269 C1261 1.427 . S
N1269 C1267 1.384 . S
H1270 C1276 0.930 . S
H1271 C1280 0.930 . S
H1272 C1285 0.929 . S
H1273 C1283 0.929 . S
H1274 C1278 0.929 . S
H1275 C1284 0.929 . S
C1276 H1270 0.930 . S
C1276 C1277 1.367 . S
C1276 C1284 1.378 . S
C1277 C1276 1.367 . S
C1277 C1285 1.433 . S
C1278 H1274 0.929 . S
C1278 C1280 1.378 . S
C1278 C1282 1.350 . S
C1279 C1282 1.463 . S
C1279 C1284 1.350 . S
C1279 N1287 1.427 . S
C1280 H1271 0.930 . S
C1280 C1278 1.378 . S
C1280 C1281 1.367 . S
C1281 C1280 1.367 . S
C1281 C1283 1.433 . S
C1282 C1278 1.350 . S
C1282 C1279 1.463 . S
C1282 N1286 1.427 . S
C1283 H1273 0.929 . S
C1283 C1281 1.433 . S
C1283 N1286 1.384 . S
C1284 H1275 0.929 . S
C1284 C1276 1.378 . S
C1284 C1279 1.350 . S
C1285 H1272 0.929 . S
C1285 C1277 1.433 . S
C1285 N1287 1.384 . S
N1286 C1282 1.427 . S
N1286 C1283 1.384 . S
N1287 C1279 1.427 . S
N1287 C1285 1.384 . S
H1288 C1294 0.930 . S
H1289 C1298 0.930 . S
H1290 C1303 0.929 . S
H1291 C1301 0.929 . S
H1292 C1296 0.929 . S
H1293 C1302 0.929 . S
C1294 H1288 0.930 . S
C1294 C1295 1.367 . S
C1294 C1302 1.378 . S
C1295 C1294 1.367 . S
C1295 C1303 1.433 . S
C1296 H1292 0.929 . S
C1296 C1298 1.378 1_554 S
C1296 C1300 1.350 . S
C1297 C1300 1.463 . S
C1297 C1302 1.350 . S
C1297 N1305 1.427 . S
C1298 H1289 0.930 . S
C1298 C1296 1.378 1_556 S
C1298 C1299 1.367 . S
C1299 C1298 1.367 . S
C1299 C1301 1.433 1_556 S
C1300 C1296 1.350 . S
C1300 C1297 1.463 . S
C1300 N1304 1.427 . S
C1301 H1291 0.929 . S
C1301 C1299 1.433 1_554 S
C1301 N1304 1.384 . S
C1302 H1293 0.929 . S
C1302 C1294 1.378 . S
C1302 C1297 1.350 . S
C1303 H1290 0.929 . S
C1303 C1295 1.433 . S
C1303 N1305 1.384 . S
N1304 C1300 1.427 . S
N1304 C1301 1.384 . S
N1305 C1297 1.427 . S
N1305 C1303 1.384 . S
H1306 C1312 0.930 . S
H1307 C1316 0.930 . S
H1308 C1321 0.929 . S
H1309 C1319 0.929 . S
H1310 C1314 0.929 . S
H1311 C1320 0.929 . S
C1312 H1306 0.930 . S
C1312 C1313 1.367 . S
C1312 C1320 1.378 . S
C1313 C1312 1.367 . S
C1313 C1321 1.433 . S
C1314 H1310 0.929 . S
C1314 C1316 1.378 . S
C1314 C1318 1.350 . S
C1315 C1318 1.463 . S
C1315 C1320 1.350 . S
C1315 N1323 1.427 . S
C1316 H1307 0.930 . S
C1316 C1314 1.378 . S
C1316 C1317 1.367 . S
C1317 C1316 1.367 . S
C1317 C1319 1.433 . S
C1318 C1314 1.350 . S
C1318 C1315 1.463 . S
C1318 N1322 1.427 . S
C1319 H1309 0.929 . S
C1319 C1317 1.433 . S
C1319 N1322 1.384 . S
C1320 H1311 0.929 . S
C1320 C1312 1.378 . S
C1320 C1315 1.350 . S
C1321 H1308 0.929 . S
C1321 C1313 1.433 . S
C1321 N1323 1.384 . S
N1322 C1318 1.427 . S
N1322 C1319 1.384 . S
N1323 C1315 1.427 . S
N1323 C1321 1.384 . S
H1324 C1330 0.930 . S
H1325 C1334 0.930 . S
H1326 C1339 0.929 . S
H1327 C1337 0.929 . S
H1328 C1332 0.929 . S
H1329 C1338 0.929 . S
C1330 H1324 0.930 . S
C1330 C1331 1.367 . S
C1330 C1338 1.378 . S
C1331 C1330 1.367 . S
C1331 C1339 1.433 . S
C1332 H1328 0.929 . S
C1332 C1334 1.378 . S
C1332 C1336 1.350 . S
C1333 C1336 1.463 . S
C1333 C1338 1.350 . S
C1333 N1341 1.427 . S
C1334 H1325 0.930 . S
C1334 C1332 1.378 . S
C1334 C1335 1.367 . S
C1335 C1334 1.367 . S
C1335 C1337 1.433 . S
C1336 C1332 1.350 . S
C1336 C1333 1.463 . S
C1336 N1340 1.427 . S
C1337 H1327 0.929 . S
C1337 C1335 1.433 . S
C1337 N1340 1.384 . S
C1338 H1329 0.929 . S
C1338 C1330 1.378 . S
C1338 C1333 1.350 . S
C1339 H1326 0.929 . S
C1339 C1331 1.433 . S
C1339 N1341 1.384 . S
N1340 C1336 1.427 . S
N1340 C1337 1.384 . S
N1341 C1333 1.427 . S
N1341 C1339 1.384 . S
H1342 C1348 0.930 . S
H1343 C1352 0.930 . S
H1344 C1357 0.929 . S
H1345 C1355 0.929 . S
H1346 C1350 0.929 . S
H1347 C1356 0.929 . S
C1348 H1342 0.930 . S
C1348 C1349 1.367 . S
C1348 C1356 1.378 . S
C1349 C1348 1.367 . S
C1349 C1357 1.433 . S
C1350 H1346 0.929 . S
C1350 C1352 1.378 . S
C1350 C1354 1.350 . S
C1351 C1354 1.463 . S
C1351 C1356 1.350 . S
C1351 N1359 1.427 . S
C1352 H1343 0.930 . S
C1352 C1350 1.378 . S
C1352 C1353 1.367 . S
C1353 C1352 1.367 . S
C1353 C1355 1.433 . S
C1354 C1350 1.350 . S
C1354 C1351 1.463 . S
C1354 N1358 1.427 . S
C1355 H1345 0.929 . S
C1355 C1353 1.433 . S
C1355 N1358 1.384 . S
C1356 H1347 0.929 . S
C1356 C1348 1.378 . S
C1356 C1351 1.350 . S
C1357 H1344 0.929 . S
C1357 C1349 1.433 . S
C1357 N1359 1.384 . S
N1358 C1354 1.427 . S
N1358 C1355 1.384 . S
N1359 C1351 1.427 . S
N1359 C1357 1.384 . S
H1360 C1366 0.930 . S
H1361 C1370 0.930 . S
H1362 C1375 0.929 . S
H1363 C1373 0.929 . S
H1364 C1368 0.929 . S
H1365 C1374 0.929 . S
C1366 H1360 0.930 . S
C1366 C1367 1.367 . S
C1366 C1374 1.378 . S
C1367 C1366 1.367 . S
C1367 C1375 1.433 . S
C1368 H1364 0.929 . S
C1368 C1370 1.378 . S
C1368 C1372 1.350 . S
C1369 C1372 1.463 . S
C1369 C1374 1.350 . S
C1369 N1377 1.427 . S
C1370 H1361 0.930 . S
C1370 C1368 1.378 . S
C1370 C1371 1.367 . S
C1371 C1370 1.367 . S
C1371 C1373 1.433 . S
C1372 C1368 1.350 . S
C1372 C1369 1.463 . S
C1372 N1376 1.427 . S
C1373 H1363 0.929 . S
C1373 C1371 1.433 . S
C1373 N1376 1.384 . S
C1374 H1365 0.929 . S
C1374 C1366 1.378 . S
C1374 C1369 1.350 . S
C1375 H1362 0.929 . S
C1375 C1367 1.433 . S
C1375 N1377 1.384 . S
N1376 C1372 1.427 . S
N1376 C1373 1.384 . S
N1377 C1369 1.427 . S
N1377 C1375 1.384 . S
H1378 C1384 0.930 . S
H1379 C1388 0.930 . S
H1380 C1393 0.929 . S
H1381 C1391 0.929 . S
H1382 C1386 0.929 . S
H1383 C1392 0.929 . S
C1384 H1378 0.930 . S
C1384 C1385 1.367 . S
C1384 C1392 1.378 . S
C1385 C1384 1.367 . S
C1385 C1393 1.433 . S
C1386 H1382 0.929 . S
C1386 C1388 1.378 . S
C1386 C1390 1.350 . S
C1387 C1390 1.463 . S
C1387 C1392 1.350 . S
C1387 N1395 1.427 . S
C1388 H1379 0.930 . S
C1388 C1386 1.378 . S
C1388 C1389 1.396 . S
C1389 C1388 1.396 . S
C1389 C1391 1.422 1_565 S
C1390 C1386 1.350 . S
C1390 C1387 1.463 . S
C1390 N1394 1.427 . S
C1391 H1381 0.929 . S
C1391 C1389 1.422 1_545 S
C1391 N1394 1.384 1_545 S
C1392 H1383 0.929 . S
C1392 C1384 1.378 . S
C1392 C1387 1.350 . S
C1393 H1380 0.929 . S
C1393 C1385 1.433 . S
C1393 N1395 1.384 . S
N1394 C1390 1.427 . S
N1394 C1391 1.384 1_565 S
N1395 C1387 1.427 . S
N1395 C1393 1.384 . S
H1396 C1402 0.930 . S
H1397 C1406 0.930 . S
H1398 C1411 0.929 . S
H1399 C1409 0.929 . S
H1400 C1404 0.929 . S
H1401 C1410 0.929 . S
C1402 H1396 0.930 . S
C1402 C1403 1.367 . S
C1402 C1410 1.378 . S
C1403 C1402 1.367 . S
C1403 C1411 1.433 . S
C1404 H1400 0.929 . S
C1404 C1406 1.378 1_556 S
C1404 C1408 1.350 . S
C1405 C1408 1.463 . S
C1405 C1410 1.350 . S
C1405 N1413 1.427 . S
C1406 H1397 0.930 . S
C1406 C1404 1.378 1_554 S
C1406 C1407 1.367 . S
C1407 C1406 1.367 . S
C1407 C1409 1.433 1_554 S
C1408 C1404 1.350 . S
C1408 C1405 1.463 . S
C1408 N1412 1.427 . S
C1409 H1399 0.929 . S
C1409 C1407 1.433 1_556 S
C1409 N1412 1.384 . S
C1410 H1401 0.929 . S
C1410 C1402 1.378 . S
C1410 C1405 1.350 . S
C1411 H1398 0.929 . S
C1411 C1403 1.433 . S
C1411 N1413 1.384 . S
N1412 C1408 1.427 . S
N1412 C1409 1.384 . S
N1413 C1405 1.427 . S
N1413 C1411 1.384 . S
H1414 C1420 0.930 1_565 S
H1415 C1424 0.930 . S
H1416 C1429 0.929 . S
H1417 C1427 0.929 . S
H1418 C1422 0.929 . S
H1419 C1428 0.929 . S
C1420 H1414 0.930 1_545 S
C1420 C1421 1.367 . S
C1420 C1428 1.378 . S
C1421 C1420 1.367 . S
C1421 C1429 1.437 . S
C1422 H1418 0.929 . S
C1422 C1424 1.378 . S
C1422 C1426 1.350 . S
C1423 C1426 1.463 . S
C1423 C1428 1.350 . S
C1423 N1431 1.427 . S
C1424 H1415 0.930 . S
C1424 C1422 1.378 . S
C1424 C1425 1.367 . S
C1425 C1424 1.367 . S
C1425 C1427 1.433 . S
C1426 C1422 1.350 . S
C1426 C1423 1.463 . S
C1426 N1430 1.427 . S
C1427 H1417 0.929 . S
C1427 C1425 1.433 . S
C1427 N1430 1.384 . S
C1428 H1419 0.929 . S
C1428 C1420 1.378 . S
C1428 C1423 1.350 . S
C1429 H1416 0.929 . S
C1429 C1421 1.437 . S
C1429 N1431 1.384 . S
N1430 C1426 1.427 . S
N1430 C1427 1.384 . S
N1431 C1423 1.427 . S
N1431 C1429 1.384 . S
H1432 C1438 0.930 . S
H1433 C1442 0.930 . S
H1434 C1447 0.929 . S
H1435 C1445 0.929 . S
H1436 C1440 0.929 . S
H1437 C1446 0.929 . S
C1438 H1432 0.930 . S
C1438 C1439 1.367 . S
C1438 C1446 1.378 . S
C1439 C1438 1.367 . S
C1439 C1447 1.433 . S
C1440 H1436 0.929 . S
C1440 C1442 1.378 . S
C1440 C1444 1.350 . S
C1441 C1444 1.463 . S
C1441 C1446 1.350 . S
C1441 N1449 1.427 . S
C1442 H1433 0.930 . S
C1442 C1440 1.378 . S
C1442 C1443 1.367 . S
C1443 C1442 1.367 . S
C1443 C1445 1.433 . S
C1444 C1440 1.350 . S
C1444 C1441 1.463 . S
C1444 N1448 1.427 . S
C1445 H1435 0.929 . S
C1445 C1443 1.433 . S
C1445 N1448 1.384 . S
C1446 H1437 0.929 . S
C1446 C1438 1.378 . S
C1446 C1441 1.350 . S
C1447 H1434 0.929 . S
C1447 C1439 1.433 . S
C1447 N1449 1.384 . S
N1448 C1444 1.427 . S
N1448 C1445 1.384 . S
N1449 C1441 1.427 . S
N1449 C1447 1.384 . S
H1450 C1456 0.930 . S
H1451 C1460 0.930 . S
H1452 C1465 0.929 . S
H1453 C1463 0.929 . S
H1454 C1458 0.929 . S
H1455 C1464 0.929 . S
C1456 H1450 0.930 . S
C1456 C1457 1.367 . S
C1456 C1464 1.378 . S
C1457 C1456 1.367 . S
C1457 C1465 1.433 . S
C1458 H1454 0.929 . S
C1458 C1460 1.378 . S
C1458 C1462 1.350 . S
C1459 C1462 1.463 . S
C1459 C1464 1.350 . S
C1459 N1467 1.427 . S
C1460 H1451 0.930 . S
C1460 C1458 1.378 . S
C1460 C1461 1.389 . S
C1461 C1460 1.389 . S
C1461 C1463 1.427 1_545 S
C1462 C1458 1.350 . S
C1462 C1459 1.463 . S
C1462 N1466 1.427 . S
C1463 H1453 0.929 . S
C1463 C1461 1.427 1_565 S
C1463 N1466 1.384 1_565 S
C1464 H1455 0.929 . S
C1464 C1456 1.378 . S
C1464 C1459 1.350 . S
C1465 H1452 0.929 . S
C1465 C1457 1.433 . S
C1465 N1467 1.384 . S
N1466 C1462 1.427 . S
N1466 C1463 1.384 1_545 S
N1467 C1459 1.427 . S
N1467 C1465 1.384 . S
H1468 C1474 0.930 . S
H1469 C1478 0.930 . S
H1470 C1483 0.929 . S
H1471 C1481 0.929 . S
H1472 C1476 0.929 . S
H1473 C1482 0.929 . S
C1474 H1468 0.930 . S
C1474 C1475 1.367 . S
C1474 C1482 1.378 . S
C1475 C1474 1.367 . S
C1475 C1483 1.433 . S
C1476 H1472 0.929 . S
C1476 C1478 1.378 1_554 S
C1476 C1480 1.350 . S
C1477 C1480 1.463 . S
C1477 C1482 1.350 . S
C1477 N1485 1.427 . S
C1478 H1469 0.930 . S
C1478 C1476 1.378 1_556 S
C1478 C1479 1.367 . S
C1479 C1478 1.367 . S
C1479 C1481 1.433 1_556 S
C1480 C1476 1.350 . S
C1480 C1477 1.463 . S
C1480 N1484 1.427 . S
C1481 H1471 0.929 . S
C1481 C1479 1.433 1_554 S
C1481 N1484 1.384 . S
C1482 H1473 0.929 . S
C1482 C1474 1.378 . S
C1482 C1477 1.350 . S
C1483 H1470 0.929 . S
C1483 C1475 1.433 . S
C1483 N1485 1.384 . S
N1484 C1480 1.427 . S
N1484 C1481 1.384 . S
N1485 C1477 1.427 . S
N1485 C1483 1.384 . S
H1486 C1492 0.930 . S
H1487 C1496 0.930 . S
H1488 C1501 0.929 . S
H1489 C1499 0.929 . S
H1490 C1494 0.929 . S
H1491 C1500 0.929 . S
C1492 H1486 0.930 . S
C1492 C1493 1.367 . S
C1492 C1500 1.378 . S
C1493 C1492 1.367 . S
C1493 C1501 1.433 . S
C1494 H1490 0.929 . S
C1494 C1496 1.378 . S
C1494 C1498 1.350 . S
C1495 C1498 1.463 . S
C1495 C1500 1.350 . S
C1495 N1503 1.427 . S
C1496 H1487 0.930 . S
C1496 C1494 1.378 . S
C1496 C1497 1.384 . S
C1497 C1496 1.384 . S
C1497 C1499 1.430 1_565 S
C1498 C1494 1.350 . S
C1498 C1495 1.463 . S
C1498 N1502 1.427 . S
C1499 H1489 0.929 . S
C1499 C1497 1.430 1_545 S
C1499 N1502 1.384 1_545 S
C1500 H1491 0.929 . S
C1500 C1492 1.378 . S
C1500 C1495 1.350 . S
C1501 H1488 0.929 . S
C1501 C1493 1.433 . S
C1501 N1503 1.384 . S
N1502 C1498 1.427 . S
N1502 C1499 1.384 1_565 S
N1503 C1495 1.427 . S
N1503 C1501 1.384 . S
C647 C9 2.651 . S
C651 C409 2.650 . S
C665 C49 2.651 . S
C669 C449 2.649 . S
C683 C89 2.651 . S
C687 C329 2.650 . S
C701 C369 2.650 . S
C705 C129 2.651 . S
C719 C178 2.650 . S
C723 C578 2.651 . S
C737 C618 2.651 . S
C741 C218 2.650 . S
C755 C498 2.649 . S
C759 C258 2.647 . S
C773 C298 2.645 . S
C777 C538 2.647 . S
C791 C15 0.972 . S
C795 C166 0.972 . S
C809 C55 0.959 . S
C813 C526 0.958 . S
C827 C95 0.993 . S
C831 C246 0.993 . S
C845 C135 0.990 . S
C849 C606 0.990 . S
C863 C206 0.960 . S
C867 C375 0.960 . S
C881 C455 0.969 . S
C885 C286 0.969 . S
C899 C486 0.964 . S
C903 C335 0.964 . S
C917 C415 0.992 . S
C921 C566 0.992 . S
C935 C6 1.088 . S
C939 C289 1.188 . S
C953 C46 1.087 . S
C957 C489 1.198 . S
C971 C86 1.087 . S
C975 C209 1.188 . S
C989 C126 1.102 . S
C993 C569 1.205 . S
C1007 C138 1.201 . S
C1011 C175 1.092 . S
C1025 C215 1.083 . S
C1029 C338 1.189 . S
C1043 C255 1.094 . S
C1047 C58 1.189 . S
C1061 C418 1.189 . S
C1065 C295 1.095 . S
C1079 C326 1.093 . S
C1083 C609 1.189 1_565 S
C1097 C169 1.194 . S
C1101 C366 1.105 . S
C1115 C529 1.197 1_545 S
C1119 C406 1.110 . S
C1133 C249 1.193 . S
C1137 C446 1.104 . S
C1151 C495 1.085 . S
C1155 C458 1.197 1_545 S
C1169 C535 1.113 . S
C1173 C18 1.201 . S
C1187 C378 1.202 1_565 S
C1191 C575 1.113 . S
C1205 C615 1.110 . S
C1209 C98 1.205 . S
C1223 C19 4.050 . S
C1227 C370 4.105 . S
C1241 C410 4.099 . S
C1245 C59 4.044 . S
C1259 C99 4.046 . S
C1263 C450 4.100 . S
C1277 C330 4.101 . S
C1281 C139 4.047 . S
C1295 C539 4.100 . S
C1299 C170 4.046 . S
C1313 C579 4.105 . S
C1317 C210 4.051 . S
C1331 C619 4.099 . S
C1335 C250 4.044 . S
C1349 C499 4.102 . S
C1353 C290 4.048 . S
C1367 C50 4.100 . S
C1371 C339 4.046 . S
C1385 C90 4.099 . S
C1389 C379 4.028 1_565 S
C1403 C130 4.101 . S
C1407 C419 4.045 . S
C1421 C459 4.044 1_545 S
C1425 C10 4.101 . S
C1439 C219 4.099 . S
C1443 C490 4.044 . S
C1457 C259 4.102 . S
C1461 C530 4.032 1_545 S
C1475 C299 4.100 . S
C1479 C570 4.044 . S
C1493 C179 4.103 . S
C1497 C610 4.034 1_565 S
