# Generated by pormake.
# Topology irl, (4)-cn, num edge types: 1
# Building blocks:
#     Node 0, Type 0, BuildingBlock: NAHDIM_clean_sbu_0, # of connection points: 4
#     Node 1, Type 0, BuildingBlock: NAHDIM_clean_sbu_0, # of connection points: 4
#     Node 2, Type 0, BuildingBlock: NAHDIM_clean_sbu_0, # of connection points: 4
#     Node 3, Type 0, BuildingBlock: NAHDIM_clean_sbu_0, # of connection points: 4
#     Node 4, Type 0, BuildingBlock: NAHDIM_clean_sbu_0, # of connection points: 4
#     Node 5, Type 0, BuildingBlock: NAHDIM_clean_sbu_0, # of connection points: 4
#     Node 6, Type 0, BuildingBlock: NAHDIM_clean_sbu_0, # of connection points: 4
#     Node 7, Type 0, BuildingBlock: NAHDIM_clean_sbu_0, # of connection points: 4
#     Edge 8, Type (0, 0), BuildingBlock: TEMPAE_clean_linker_10, # of connection points: 2
#     Edge 9, Type (0, 0), BuildingBlock: TEMPAE_clean_linker_10, # of connection points: 2
#     Edge 10, Type (0, 0), BuildingBlock: TEMPAE_clean_linker_10, # of connection points: 2
#     Edge 11, Type (0, 0), BuildingBlock: TEMPAE_clean_linker_10, # of connection points: 2
#     Edge 12, Type (0, 0), BuildingBlock: TEMPAE_clean_linker_10, # of connection points: 2
#     Edge 13, Type (0, 0), BuildingBlock: TEMPAE_clean_linker_10, # of connection points: 2
#     Edge 14, Type (0, 0), BuildingBlock: TEMPAE_clean_linker_10, # of connection points: 2
#     Edge 15, Type (0, 0), BuildingBlock: TEMPAE_clean_linker_10, # of connection points: 2
#     Edge 16, Type (0, 0), BuildingBlock: TEMPAE_clean_linker_10, # of connection points: 2
#     Edge 17, Type (0, 0), BuildingBlock: TEMPAE_clean_linker_10, # of connection points: 2
#     Edge 18, Type (0, 0), BuildingBlock: TEMPAE_clean_linker_10, # of connection points: 2
#     Edge 19, Type (0, 0), BuildingBlock: TEMPAE_clean_linker_10, # of connection points: 2
#     Edge 20, Type (0, 0), BuildingBlock: TEMPAE_clean_linker_10, # of connection points: 2
#     Edge 21, Type (0, 0), BuildingBlock: TEMPAE_clean_linker_10, # of connection points: 2
#     Edge 22, Type (0, 0), BuildingBlock: TEMPAE_clean_linker_10, # of connection points: 2
#     Edge 23, Type (0, 0), BuildingBlock: TEMPAE_clean_linker_10, # of connection points: 2
# Relax obj value: 0.190
# Max RMSD: 0.180
# Mean RMSD: 0.180
data_MOF--net-irl--node1-NAHDIM_clean_sbu_0--edge1-TEMPAE_clean_linker_10
_symmetry_space_group_name_H-M    P1
_symmetry_Int_Tables_number       1
_symmetry_cell_setting            triclinic
loop_
_symmetry_equiv_pos_as_xyz
'x, y, z'
_cell_length_a     40.749148
_cell_length_b     36.37004
_cell_length_c     26.856657
_cell_angle_alpha  89.798054
_cell_angle_beta   89.652621
_cell_angle_gamma 90.044844
loop_
_atom_site_label
_atom_site_type_symbol
_atom_site_fract_x
_atom_site_fract_y
_atom_site_fract_z
_atom_type_partial_charge
C0 C 0.12322 0.21962 0.03859 0.0
O1 O 0.10891 0.20379 0.07705 0.0
O2 O 0.03258 0.24278 0.04696 0.0
Zn3 Zn 0.05823 0.21874 -0.00765 0.0
O4 O 0.04638 0.23828 0.92517 0.0
C5 C 0.02212 0.15289 0.97376 0.0
O6 O 0.00316 0.1766 0.95074 0.0
O7 O 0.10634 0.22763 0.00049 0.0
C8 C 0.02313 0.26019 0.91487 0.0
O9 O 0.004 0.27239 0.95071 0.0
C10 C 0.04173 0.27089 0.07118 0.0
O11 O 0.06932 0.28738 0.05888 0.0
O12 O 0.04809 0.1644 -0.00534 0.0
C13 C 0.86264 0.77948 -0.00498 0.0
O14 O 0.88117 0.75704 0.96894 0.0
O15 O 0.94946 0.79518 0.05613 0.0
Zn16 Zn 0.92341 0.81856 0.00112 0.0
O17 O 0.93675 0.79987 0.93359 0.0
C18 C 0.9592 0.88424 0.98202 0.0
O19 O 0.97882 0.86005 0.96118 0.0
O20 O 0.87526 0.80867 0.0125 0.0
C21 C 0.95346 0.77118 0.92435 0.0
O22 O 0.96336 0.75028 0.96129 0.0
C23 C 0.94264 0.76444 0.07641 0.0
O24 O 0.91796 0.745 0.05957 0.0
O25 O 0.93273 0.8731 0.00244 0.0
C26 C 0.12347 0.75672 0.49547 0.0
O27 O 0.10517 0.73291 0.51991 0.0
O28 O 0.03645 0.76757 0.43611 0.0
Zn29 Zn 0.06201 0.79403 0.48898 0.0
O30 O 0.04944 0.77786 0.55795 0.0
C31 C 0.02703 0.85976 0.4597 0.0
O32 O 0.00813 0.83578 0.43727 0.0
O33 O 0.1103 0.7858 0.47851 0.0
C34 C 0.0271 0.75486 0.56919 0.0
O35 O 0.01043 0.73888 0.53357 0.0
C36 C 0.04778 0.74325 0.40682 0.0
O37 O 0.0779 0.73133 0.41282 0.0
O38 O 0.05188 0.84838 0.48375 0.0
C39 C 0.86824 0.22865 0.50319 0.0
O40 O 0.88703 0.2504 0.52958 0.0
O41 O 0.9526 0.22038 0.42617 0.0
Zn42 Zn 0.93009 0.19409 0.48258 0.0
O43 O 0.94663 0.21099 0.54875 0.0
C44 C 0.96603 0.12874 0.45606 0.0
O45 O 0.98593 0.15299 0.43566 0.0
O46 O 0.88126 0.2023 0.47919 0.0
C47 C 0.95963 0.2419 0.55838 0.0
O48 O 0.96379 0.26614 0.52252 0.0
C49 C 0.94377 0.25069 0.40676 0.0
O50 O 0.91823 0.26816 0.42505 0.0
O51 O 0.94003 0.13983 0.47772 0.0
C52 C 0.6236 0.7158 0.04017 0.0
O53 O 0.61096 0.70293 0.08184 0.0
O54 O 0.53463 0.73142 0.06068 0.0
Zn55 Zn 0.5569 0.71087 0.00046 0.0
O56 O 0.54068 0.73496 0.93827 0.0
C57 C 0.51992 0.64545 0.98133 0.0
O58 O 0.49883 0.66994 0.96509 0.0
O59 O 0.60524 0.72039 0.00263 0.0
C60 C 0.51443 0.75344 0.93388 0.0
O61 O 0.49504 0.75779 0.97267 0.0
C62 C 0.54164 0.76183 0.08116 0.0
O63 O 0.5649 0.78259 0.06188 0.0
O64 O 0.54739 0.65635 -0.00193 0.0
C65 C 0.36515 0.27051 0.00736 0.0
O66 O 0.38283 0.24754 0.98077 0.0
O67 O 0.45401 0.28633 0.06196 0.0
Zn68 Zn 0.42625 0.30913 0.00853 0.0
O69 O 0.43699 0.28956 0.9405 0.0
C70 C 0.45914 0.37605 0.98182 0.0
O71 O 0.47642 0.35293 0.95487 0.0
O72 O 0.37848 0.29969 0.02358 0.0
C73 C 0.45521 0.26222 0.9304 0.0
O74 O 0.46874 0.24349 0.96678 0.0
C75 C 0.4482 0.25559 0.08293 0.0
O76 O 0.42342 0.23555 0.06774 0.0
O77 O 0.43557 0.36377 0.00837 0.0
C78 C 0.6236 0.26806 0.5126 0.0
O79 O 0.60517 0.24631 0.54015 0.0
O80 O 0.5374 0.278 0.44241 0.0
Zn81 Zn 0.56179 0.30326 0.49715 0.0
O82 O 0.54732 0.28628 0.56494 0.0
C83 C 0.52518 0.36911 0.51091 0.0
O84 O 0.50542 0.34565 0.53326 0.0
O85 O 0.61033 0.29481 0.48976 0.0
C86 C 0.52839 0.25948 0.57506 0.0
O87 O 0.51639 0.23955 0.53875 0.0
C88 C 0.54846 0.25108 0.41738 0.0
O89 O 0.57692 0.23668 0.42921 0.0
O90 O 0.55183 0.35741 0.49186 0.0
C91 C 0.3653 0.7064 0.45618 0.0
O92 O 0.37817 0.68973 0.41738 0.0
O93 O 0.45631 0.73118 0.44212 0.0
Zn94 Zn 0.43171 0.70495 0.49628 0.0
O95 O 0.44639 0.72081 0.56357 0.0
C96 C 0.46758 0.63885 0.50857 0.0
O97 O 0.4875 0.66224 0.53012 0.0
O98 O 0.38355 0.71495 0.49248 0.0
C99 C 0.44632 0.75347 0.58007 0.0
O100 O 0.43729 0.78065 0.55089 0.0
C101 C 0.44648 0.76005 0.42002 0.0
O102 O 0.41886 0.77552 0.43419 0.0
O103 O 0.44092 0.6507 0.49011 0.0
C104 C -0.00622 0.93637 0.95102 0.0
C105 C 0.96806 0.92376 0.98159 0.0
C106 C 0.00267 0.97364 0.94998 0.0
C107 C 0.9857 0.9989 0.9807 0.0
C108 C 0.95985 0.98635 0.01192 0.0
C109 C 0.95119 0.94894 0.01175 0.0
C110 C 0.03008 0.98602 0.9157 0.0
C111 C 0.94142 0.01243 0.04558 0.0
C112 C 0.02861 0.08933 0.00873 0.0
C113 C 0.01297 0.11348 0.97569 0.0
C114 C 0.01965 0.05206 0.01129 0.0
C115 C -0.00521 0.03855 0.97958 0.0
C116 C 0.97903 0.06277 0.94602 0.0
C117 C 0.98816 0.09997 0.94471 0.0
C118 C 0.03677 0.02714 0.04795 0.0
C119 C 0.95271 0.04932 0.91113 0.0
H120 H 0.00686 0.91713 0.92743 0.0
H121 H 0.9314 0.93937 0.03564 0.0
H122 H 0.02084 0.0071 0.88932 0.0
H123 H 0.04994 0.99897 0.93761 0.0
H124 H 0.04069 0.96293 0.89395 0.0
H125 H 0.92241 0.99819 0.06836 0.0
H126 H 0.95879 0.0264 0.07096 0.0
H127 H 0.92935 0.0341 0.02304 0.0
H128 H 0.04766 0.09963 0.03299 0.0
H129 H 0.97603 0.11843 0.91895 0.0
H130 H 0.04962 0.00477 0.02778 0.0
H131 H 0.01846 0.01402 0.0731 0.0
H132 H 0.05494 0.04213 0.07094 0.0
H133 H 0.96276 0.02743 0.88675 0.0
H134 H 0.94285 0.07169 0.88728 0.0
H135 H 0.93215 0.03706 0.93276 0.0
C136 C -0.00548 0.91222 0.42547 0.0
C137 C 0.01879 0.89939 0.45802 0.0
C138 C 0.98581 0.94952 0.42407 0.0
C139 C 0.00151 0.97456 0.45637 0.0
C140 C 0.02609 0.96184 0.48925 0.0
C141 C 0.03457 0.92442 0.48949 0.0
C142 C 0.95975 0.96212 0.3881 0.0
C143 C 0.04318 0.98769 0.52453 0.0
C144 C 9e-05 0.07643 0.42476 0.0
C145 C 0.9745 0.08916 0.45532 0.0
C146 C 0.00897 0.03916 0.42445 0.0
C147 C 0.99211 0.01408 0.45587 0.0
C148 C 0.96623 0.02672 0.48678 0.0
C149 C 0.9576 0.06408 0.48591 0.0
C150 C 0.03641 0.02662 0.39051 0.0
C151 C 0.94787 1.00084 0.52111 0.0
H152 H 0.9823 0.8931 0.40087 0.0
H153 H 0.05325 0.91469 0.51488 0.0
H154 H 0.93883 0.9743 0.40887 0.0
H155 H 0.96978 0.98387 0.36323 0.0
H156 H 0.95037 0.93929 0.36477 0.0
H157 H 0.0617 0.97343 0.54784 0.0
H158 H 0.0556 0.00995 0.50326 0.0
H159 H 0.02488 1.0009 0.54944 0.0
H160 H 0.01318 0.0956 0.40086 0.0
H161 H 0.9379 0.07373 0.50981 0.0
H162 H 0.02738 0.0049 0.3651 0.0
H163 H 0.05648 0.01441 0.41285 0.0
H164 H 0.04669 0.04949 0.36773 0.0
H165 H 0.93625 0.97858 0.49923 0.0
H166 H 0.9285 0.01507 0.54303 0.0
H167 H 0.96523 0.98762 0.54732 0.0
C168 C 0.53055 0.58016 0.00684 0.0
C169 C 0.51132 0.60584 0.98109 0.0
C170 C 0.52205 0.54272 0.00778 0.0
C171 C 0.49388 0.53062 0.98188 0.0
C172 C 0.47455 0.55637 0.95549 0.0
C173 C 0.48339 0.59367 0.95564 0.0
C174 C 0.54312 0.51612 0.03669 0.0
C175 C 0.44456 0.54449 0.92693 0.0
C176 C 0.48919 0.42989 0.9456 0.0
C177 C 0.46754 0.4157 0.98167 0.0
C178 C 0.49781 0.46726 0.94509 0.0
C179 C 0.4848 0.49096 0.98192 0.0
C180 C 0.463 0.47681 0.01854 0.0
C181 C 0.45445 0.43938 0.01778 0.0
C182 C 0.52079 0.48139 0.90502 0.0
C183 C 0.44887 0.50117 0.0587 0.0
H184 H 0.55207 0.58936 0.0268 0.0
H185 H 0.46846 0.6133 0.93549 0.0
H186 H 0.52803 0.50175 0.06527 0.0
H187 H 0.55314 0.49481 0.01136 0.0
H188 H 0.56392 0.53 0.05549 0.0
H189 H 0.43229 0.5679 0.90799 0.0
H190 H 0.45153 0.52382 0.89848 0.0
H191 H 0.42664 0.53118 0.95251 0.0
H192 H 0.4993 0.41182 0.91741 0.0
H193 H 0.43784 0.42858 0.04591 0.0
H194 H 0.54307 0.4933 0.92219 0.0
H195 H 0.50872 0.50369 0.8836 0.0
H196 H 0.52844 0.45946 0.87872 0.0
H197 H 0.46901 0.51389 0.0803 0.0
H198 H 0.43258 0.48584 0.0848 0.0
H199 H 0.43461 0.52387 0.04163 0.0
C200 C 0.49135 0.42249 0.53892 0.0
C201 C 0.51649 0.40858 0.50849 0.0
C202 C 0.48305 0.4599 0.53784 0.0
C203 C 0.49999 0.48392 0.50499 0.0
C204 C 0.52504 0.46996 0.47357 0.0
C205 C 0.53318 0.43248 0.47597 0.0
C206 C 0.45651 0.47384 0.57243 0.0
C207 C 0.54334 0.49467 0.43761 0.0
C208 C 0.45902 0.57525 0.47539 0.0
C209 C 0.47601 0.5993 0.50679 0.0
C210 C 0.46696 0.53769 0.47371 0.0
C211 C 0.4921 0.52384 0.50472 0.0
C212 C 0.5093 0.548 0.53649 0.0
C213 C 0.5012 0.58547 0.53686 0.0
C214 C 0.44839 0.51281 0.43888 0.0
C215 C 0.53596 0.5342 0.57062 0.0
H216 H 0.47842 0.40421 0.56428 0.0
H217 H 0.55249 0.42185 0.45211 0.0
H218 H 0.46679 0.49496 0.59766 0.0
H219 H 0.43675 0.4872 0.55067 0.0
H220 H 0.4455 0.45152 0.59542 0.0
H221 H 0.56123 0.47926 0.41431 0.0
H222 H 0.52576 0.5089 0.41275 0.0
H223 H 0.55676 0.5162 0.45842 0.0
H224 H 0.43966 0.58582 0.45184 0.0
H225 H 0.51435 0.60386 0.56139 0.0
H226 H 0.43513 0.49139 0.46056 0.0
H227 H 0.4658 0.49844 0.41368 0.0
H228 H 0.43034 0.5281 0.41591 0.0
H229 H 0.52577 0.51319 0.59648 0.0
H230 H 0.54705 0.55661 0.59293 0.0
H231 H 0.55564 0.52075 0.54856 0.0
C232 C 0.03864 0.30357 0.15306 0.0
C233 C 0.02413 0.28053 0.11763 0.0
C234 C 0.02506 0.3069 0.20104 0.0
C235 C -0.00348 0.2866 0.2136 0.0
C236 C 0.98027 0.26595 0.1766 0.0
C237 C -0.00576 0.26325 0.12904 0.0
C238 C 0.04269 0.32981 0.23924 0.0
C239 C 0.94962 0.24409 0.18832 0.0
C240 C 0.98647 0.24353 0.34078 0.0
C241 C 0.96019 0.26368 0.36068 0.0
C242 C -0.00032 0.25213 0.29398 0.0
C243 C 0.98649 0.28185 0.26646 0.0
C244 C 0.96147 0.30388 0.28765 0.0
C245 C 0.94847 0.29442 0.33457 0.0
C246 C 0.02644 0.22793 0.27279 0.0
C247 C 0.94724 0.33617 0.25975 0.0
H248 H 0.06157 0.31734 0.14436 0.0
H249 H 0.98256 0.24592 0.10155 0.0
H250 H 0.02496 0.34556 0.2623 0.0
H251 H 0.05657 0.31145 0.26459 0.0
H252 H 0.06028 0.34932 0.2216 0.0
H253 H 0.93798 0.23295 0.15425 0.0
H254 H 0.95593 0.2207 0.21313 0.0
H255 H 0.93143 0.26135 0.20829 0.0
H256 H -0.00403 0.21999 0.36092 0.0
H257 H 0.92837 0.31036 0.3499 0.0
H258 H 0.04744 0.24491 0.25978 0.0
H259 H 0.01694 0.21278 0.24009 0.0
H260 H 0.03555 0.20758 0.30036 0.0
H261 H 0.96697 0.35273 0.24192 0.0
H262 H 0.93253 0.35428 0.28452 0.0
H263 H 0.93106 0.326 0.22972 0.0
C264 C 0.04439 0.71402 0.32275 0.0
C265 C 0.0295 0.73437 0.36097 0.0
C266 C 0.03 0.7118 0.27549 0.0
C267 C 0.00017 0.7305 0.26645 0.0
C268 C 0.98373 0.74846 0.30604 0.0
C269 C -0.00146 0.75005 0.35289 0.0
C270 C 0.04794 0.69181 0.2344 0.0
C271 C 0.95176 0.76857 0.29802 0.0
C272 C 0.98495 0.77519 0.14146 0.0
C273 C 0.96014 0.75286 0.12194 0.0
C274 C -0.00085 0.76719 0.18757 0.0
C275 C 0.98843 0.73595 0.21474 0.0
C276 C 0.96469 0.71214 0.1941 0.0
C277 C 0.95071 0.72095 0.14789 0.0
C278 C 0.0245 0.79325 0.20828 0.0
C279 C 0.95298 0.67835 0.22176 0.0
H280 H 0.06815 0.70145 0.32882 0.0
H281 H 0.98661 0.76538 0.38242 0.0
H282 H 0.03065 0.67516 0.21203 0.0
H283 H 0.05956 0.71217 0.20896 0.0
H284 H 0.06742 0.6735 0.24918 0.0
H285 H 0.94035 0.77753 0.33364 0.0
H286 H 0.95627 0.79328 0.27459 0.0
H287 H 0.93406 0.75088 0.27798 0.0
H288 H 0.99259 0.79973 0.1215 0.0
H289 H 0.93169 0.7034 0.1329 0.0
H290 H 0.0469 0.77794 0.2191 0.0
H291 H 0.01466 0.80662 0.24232 0.0
H292 H 0.03156 0.81506 0.18118 0.0
H293 H 0.97411 0.66251 0.23638 0.0
H294 H 0.93803 0.66007 0.19781 0.0
H295 H 0.93777 0.68675 0.25417 0.0
C296 C 0.99012 0.72891 0.63555 0.0
C297 C 0.01815 0.74916 0.62216 0.0
C298 C 0.97947 0.72716 0.68535 0.0
C299 C -0.00273 0.74614 0.72239 0.0
C300 C 0.02656 0.76487 0.70944 0.0
C301 C 0.03665 0.76612 0.65953 0.0
C302 C 0.94827 0.70664 0.6979 0.0
C303 C 0.0463 0.78539 0.74786 0.0
C304 C 0.9529 0.78625 0.83371 0.0
C305 C 0.96278 0.76272 0.87229 0.0
C306 C 0.9631 0.78033 0.78453 0.0
C307 C 0.98363 0.75004 0.7735 0.0
C308 C 0.99279 0.72538 0.81187 0.0
C309 C 0.98229 0.73207 0.86095 0.0
C310 C 0.95283 0.80732 0.74465 0.0
C311 C 0.01448 0.69267 0.80134 0.0
H312 H 0.97581 0.71552 0.60696 0.0
H313 H 0.05856 0.78147 0.64964 0.0
H314 H 0.9519 0.68869 0.73089 0.0
H315 H 0.92866 0.7266 0.70748 0.0
H316 H 0.93969 0.68951 0.66638 0.0
H317 H 0.06997 0.79573 0.73256 0.0
H318 H 0.03192 0.8092 0.7617 0.0
H319 H 0.05146 0.76739 0.78029 0.0
H320 H 0.93768 0.80991 0.84201 0.0
H321 H 0.98988 0.71364 0.89051 0.0
H322 H 0.9411 0.79259 0.71334 0.0
H323 H 0.97479 0.82164 0.72947 0.0
H324 H 0.93541 0.82833 0.75893 0.0
H325 H 0.00463 0.67657 0.76975 0.0
H326 H 0.0168 0.67424 0.83421 0.0
H327 H 0.03934 0.70228 0.79035 0.0
C328 C 0.98544 0.28287 0.84814 0.0
C329 C 0.01576 0.26797 0.86207 0.0
C330 C 0.97645 0.28479 0.7978 0.0
C331 C -0.00163 0.27156 0.76088 0.0
C332 C 0.02994 0.25914 0.77456 0.0
C333 C 0.03824 0.25748 0.825 0.0
C334 C 0.94266 0.2985 0.78451 0.0
C335 C 0.0541 0.24499 0.7363 0.0
C336 C 0.96361 0.22425 0.64781 0.0
C337 C 0.96887 0.2505 0.61022 0.0
C338 C 0.9724 0.23129 0.69711 0.0
C339 C 0.98682 0.26547 0.70929 0.0
C340 C 0.99171 0.29242 0.67183 0.0
C341 C 0.98269 0.28459 0.62257 0.0
C342 C 0.96685 0.20174 0.73601 0.0
C343 C 0.00696 0.32918 0.68366 0.0
H344 H 0.96806 0.29129 0.87659 0.0
H345 H 0.06195 0.24649 0.83544 0.0
H346 H 0.94386 0.31732 0.75195 0.0
H347 H 0.92697 0.27484 0.77405 0.0
H348 H 0.93072 0.31308 0.81605 0.0
H349 H 0.07893 0.24079 0.75219 0.0
H350 H 0.04527 0.2183 0.72156 0.0
H351 H 0.05609 0.26433 0.70441 0.0
H352 H 0.95282 0.19788 0.63872 0.0
H353 H 0.98668 0.30507 0.59375 0.0
H354 H 0.95183 0.21271 0.76718 0.0
H355 H 0.99072 0.19293 0.7517 0.0
H356 H 0.95426 0.17719 0.72068 0.0
H357 H -0.00651 0.3425 0.71473 0.0
H358 H 0.00706 0.34805 0.65104 0.0
H359 H 0.03264 0.32516 0.69604 0.0
C360 C 0.49975 0.74987 0.14705 0.0
C361 C 0.5257 0.77153 0.12893 0.0
C362 C 0.48687 0.75529 0.19483 0.0
C363 C 0.50015 0.78319 0.2253 0.0
C364 C 0.52491 0.80673 0.20618 0.0
C365 C 0.5375 0.80056 0.15809 0.0
C366 C 0.46031 0.72966 0.2137 0.0
C367 C 0.53932 0.83709 0.23736 0.0
C368 C 0.44879 0.7974 0.34148 0.0
C369 C 0.46355 0.77224 0.3741 0.0
C370 C 0.462 0.80379 0.29379 0.0
C371 C 0.49046 0.78444 0.27863 0.0
C372 C 0.50694 0.76148 0.31298 0.0
C373 C 0.49332 0.75572 0.36032 0.0
C374 C 0.44411 0.82903 0.25847 0.0
C375 C 0.53751 0.74052 0.29843 0.0
H376 H 0.49016 0.72771 0.12449 0.0
H377 H 0.55739 0.8176 0.14418 0.0
H378 H 0.47009 0.71242 0.24439 0.0
H379 H 0.43938 0.74562 0.22893 0.0
H380 H 0.45101 0.71118 0.18409 0.0
H381 H 0.55387 0.8568 0.2145 0.0
H382 H 0.5197 0.85236 0.25727 0.0
H383 H 0.55569 0.825 0.26591 0.0
H384 H 0.42596 0.81061 0.35205 0.0
H385 H 0.5052 0.73673 0.38564 0.0
H386 H 0.43018 0.81232 0.2313 0.0
H387 H 0.46167 0.84635 0.23709 0.0
H388 H 0.42653 0.84719 0.27841 0.0
H389 H 0.53103 0.71878 0.27128 0.0
H390 H 0.5494 0.72726 0.33099 0.0
H391 H 0.55555 0.75905 0.28009 0.0
C392 C 0.50178 0.25666 0.35833 0.0
C393 C 0.53187 0.24047 0.37075 0.0
C394 C 0.48837 0.2523 0.31086 0.0
C395 C 0.50539 0.23106 0.27499 0.0
C396 C 0.53442 0.21226 0.28846 0.0
C397 C 0.54739 0.21724 0.3363 0.0
C398 C 0.45718 0.2726 0.2981 0.0
C399 C 0.55293 0.1889 0.25144 0.0
C400 C 0.45658 0.215 0.15735 0.0
C401 C 0.46647 0.24522 0.12827 0.0
C402 C 0.47058 0.20842 0.2042 0.0
C403 C 0.49485 0.23273 0.22222 0.0
C404 C 0.50646 0.26175 0.19156 0.0
C405 C 0.49218 0.26758 0.14493 0.0
C406 C 0.45798 0.17684 0.23554 0.0
C407 C 0.53248 0.28819 0.20929 0.0
H408 H 0.48937 0.27423 0.38497 0.0
H409 H 0.57052 0.20435 0.34575 0.0
H410 H 0.46281 0.29487 0.27099 0.0
H411 H 0.43936 0.25378 0.2803 0.0
H412 H 0.44538 0.28505 0.33139 0.0
H413 H 0.57145 0.17114 0.26987 0.0
H414 H 0.53584 0.17125 0.23014 0.0
H415 H 0.56583 0.20698 0.22432 0.0
H416 H 0.43693 0.19737 0.14455 0.0
H417 H 0.50028 0.2907 0.12243 0.0
H418 H 0.442 0.18766 0.26568 0.0
H419 H 0.47858 0.162 0.25344 0.0
H420 H 0.4435 0.157 0.21324 0.0
H421 H 0.52258 0.30478 0.24056 0.0
H422 H 0.5408 0.30725 0.17936 0.0
H423 H 0.55407 0.27292 0.22343 0.0
C424 C 0.48688 0.22759 0.8654 0.0
C425 C 0.46305 0.25388 0.87778 0.0
C426 C 0.49693 0.22265 0.81574 0.0
C427 C 0.48281 0.24458 0.77786 0.0
C428 C 0.45747 0.26965 0.78986 0.0
C429 C 0.44789 0.27396 0.83963 0.0
C430 C 0.52384 0.19543 0.80422 0.0
C431 C 0.44174 0.29351 0.75051 0.0
C432 C 0.53282 0.27359 0.66548 0.0
C433 C 0.51871 0.25261 0.62746 0.0
C434 C 0.52223 0.27001 0.71491 0.0
C435 C 0.49693 0.24475 0.72677 0.0
C436 C 0.48352 0.22229 0.68904 0.0
C437 C 0.49457 0.22651 0.63967 0.0
C438 C 0.53721 0.29447 0.75409 0.0
C439 C 0.45664 0.19491 0.70047 0.0
H440 H 0.49854 0.21177 0.89462 0.0
H441 H 0.42917 0.29404 0.84875 0.0
H442 H 0.51716 0.17829 0.77171 0.0
H443 H 0.54667 0.21048 0.79433 0.0
H444 H 0.52905 0.17708 0.83637 0.0
H445 H 0.42036 0.30909 0.76523 0.0
H446 H 0.46004 0.31347 0.73586 0.0
H447 H 0.43348 0.2765 0.71875 0.0
H448 H 0.55171 0.29359 0.65651 0.0
H449 H 0.48367 0.21006 0.61053 0.0
H450 H 0.546 0.27772 0.78591 0.0
H451 H 0.51831 0.31364 0.7687 0.0
H452 H 0.5581 0.31094 0.73932 0.0
H453 H 0.46333 0.17767 0.73301 0.0
H454 H 0.45151 0.17667 0.66834 0.0
H455 H 0.43376 0.20979 0.71033 0.0
C456 C 0.52736 0.7666 0.84495 0.0
C457 C 0.50424 0.76559 0.88382 0.0
C458 C 0.51755 0.77171 0.79556 0.0
C459 C 0.48379 0.77557 0.78484 0.0
C460 C 0.46062 0.7776 0.82426 0.0
C461 C 0.47118 0.77272 0.8735 0.0
C462 C 0.54308 0.76983 0.75464 0.0
C463 C 0.42441 0.78178 0.81425 0.0
C464 C 0.46006 0.79569 0.65074 0.0
C465 C 0.45511 0.76001 0.6326 0.0
C466 C 0.46888 0.8015 0.70063 0.0
C467 C 0.47251 0.7709 0.73284 0.0
C468 C 0.46689 0.73494 0.71487 0.0
C469 C 0.45842 0.72995 0.66501 0.0
C470 C 0.47495 0.84017 0.7186 0.0
C471 C 0.47031 0.70153 0.74811 0.0
H472 H 0.55306 0.76177 0.85286 0.0
H473 H 0.45324 0.77221 0.90347 0.0
H474 H 0.5411 0.74302 0.73529 0.0
H475 H 0.53897 0.79176 0.72656 0.0
H476 H 0.5684 0.77253 0.76929 0.0
H477 H 0.41047 0.78918 0.84845 0.0
H478 H 0.42005 0.80309 0.7854 0.0
H479 H 0.41458 0.75541 0.79993 0.0
H480 H 0.45751 0.81902 0.62584 0.0
H481 H 0.45436 0.70229 0.65145 0.0
H482 H 0.5011 0.8433 0.72903 0.0
H483 H 0.46006 0.84576 0.75244 0.0
H484 H 0.46902 0.86111 0.68982 0.0
H485 H 0.496 0.6992 0.76123 0.0
H486 H 0.46369 0.67563 0.72879 0.0
H487 H 0.45437 0.70438 0.78151 0.0
C488 C 0.31038 0.2881 0.04275 0.0
C489 C 0.33017 0.26249 0.01776 0.0
C490 C 0.27682 0.28136 0.05067 0.0
C491 C 0.26284 0.2482 0.03326 0.0
C492 C 0.2829 0.22177 0.00941 0.0
C493 C 0.31631 0.22926 0.00188 0.0
C494 C 0.25614 0.3102 0.0762 0.0
C495 C 0.26888 0.18604 -0.00956 0.0
C496 C 0.17869 0.21706 0.07858 0.0
C497 C 0.15878 0.22795 0.03874 0.0
C498 C 0.21262 0.224 0.07784 0.0
C499 C 0.22682 0.24229 0.03635 0.0
C500 C 0.20674 0.25391 -0.00348 0.0
C501 C 0.17302 0.24659 -0.00182 0.0
C502 C 0.23335 0.21123 0.12095 0.0
C503 C 0.22096 0.27358 0.95165 0.0
H504 H 0.32094 0.31378 0.05534 0.0
H505 H 0.33147 0.20918 0.98288 0.0
H506 H 0.23808 0.32156 0.04951 0.0
H507 H 0.24205 0.29776 0.10747 0.0
H508 H 0.27116 0.33321 0.09083 0.0
H509 H 0.28817 0.16734 0.9758 0.0
H510 H 0.25527 0.17163 0.02063 0.0
H511 H 0.25115 0.19177 0.96019 0.0
H512 H 0.16785 0.20272 0.11008 0.0
H513 H 0.15784 0.2553 0.96732 0.0
H514 H 0.24747 0.23464 0.13629 0.0
H515 H 0.2514 0.19053 0.10785 0.0
H516 H 0.21836 0.19882 0.15135 0.0
H517 H 0.23447 0.29851 0.96354 0.0
H518 H 0.2018 0.2819 0.9246 0.0
H519 H 0.23881 0.25544 0.93236 0.0
C520 C 0.67101 0.74245 -0.00687 0.0
C521 C 0.65881 0.72556 0.03651 0.0
C522 C 0.70424 0.75179 -0.01155 0.0
C523 C 0.7259 0.74389 0.028 0.0
C524 C 0.71379 0.72708 0.07207 0.0
C525 C 0.68031 0.71817 0.07587 0.0
C526 C 0.7162 0.76984 0.94092 0.0
C527 C 0.73628 0.71813 0.1149 0.0
C528 C 0.81559 0.73558 -0.00834 0.0
C529 C 0.82787 0.7702 0.00498 0.0
C530 C 0.78264 0.72632 0.00026 0.0
C531 C 0.76138 0.7524 0.02235 0.0
C532 C 0.77367 0.78723 0.0365 0.0
C533 C 0.80684 0.79568 0.02779 0.0
C534 C 0.77046 0.68882 0.9849 0.0
C535 C 0.75163 0.81582 0.05983 0.0
H536 H 0.65457 0.74845 0.96258 0.0
H537 H 0.67106 0.70516 0.1095 0.0
H538 H 0.72834 0.79637 0.94946 0.0
H539 H 0.73474 0.75208 0.92252 0.0
H540 H 0.69598 0.77506 0.91425 0.0
H541 H 0.72289 0.70577 0.14701 0.0
H542 H 0.75554 0.69861 0.10244 0.0
H543 H 0.74892 0.7434 0.12762 0.0
H544 H 0.83173 0.71562 0.97436 0.0
H545 H 0.81617 0.82246 0.03825 0.0
H546 H 0.75168 0.69179 0.95541 0.0
H547 H 0.75853 0.67478 0.01698 0.0
H548 H 0.79052 0.67102 0.97057 0.0
H549 H 0.73213 0.82374 0.03321 0.0
H550 H 0.7653 0.84096 0.07068 0.0
H551 H 0.73928 0.80433 0.09336 0.0
C552 C 0.17841 0.77491 0.46116 0.0
C553 C 0.1587 0.74924 0.48655 0.0
C554 C 0.21194 0.76831 0.45312 0.0
C555 C 0.22603 0.73525 0.47085 0.0
C556 C 0.20618 0.70898 0.49576 0.0
C557 C 0.17275 0.71631 0.50336 0.0
C558 C 0.2324 0.79699 0.4265 0.0
C559 C 0.22037 0.67339 0.51517 0.0
C560 C 0.30863 0.70359 0.4205 0.0
C561 C 0.32978 0.71469 0.45862 0.0
C562 C 0.27476 0.71049 0.4236 0.0
C563 C 0.26189 0.72892 0.46575 0.0
C564 C 0.28319 0.74066 0.50393 0.0
C565 C 0.31684 0.7334 0.49991 0.0
C566 C 0.25271 0.69764 0.38217 0.0
C567 C 0.27038 0.76049 0.54941 0.0
H568 H 0.16771 0.80038 0.4479 0.0
H569 H 0.15767 0.69625 0.5228 0.0
H570 H 0.25147 0.8077 0.45196 0.0
H571 H 0.2453 0.78453 0.39422 0.0
H572 H 0.21741 0.82046 0.41303 0.0
H573 H 0.20134 0.65515 0.53179 0.0
H574 H 0.23291 0.65838 0.48461 0.0
H575 H 0.23907 0.67932 0.54391 0.0
H576 H 0.31844 0.68919 0.38846 0.0
H577 H 0.333 0.74222 0.52948 0.0
H578 H 0.23854 0.72115 0.36705 0.0
H579 H 0.23471 0.67739 0.39692 0.0
H580 H 0.26669 0.68469 0.35123 0.0
H581 H 0.25681 0.78556 0.53808 0.0
H582 H 0.29034 0.76861 0.57515 0.0
H583 H 0.25287 0.74257 0.56997 0.0
C584 C 0.67862 0.28217 0.47526 0.0
C585 C 0.65934 0.2616 0.50866 0.0
C586 C 0.71264 0.2767 0.47197 0.0
C587 C 0.72769 0.25022 0.50309 0.0
C588 C 0.70833 0.22915 0.53653 0.0
C589 C 0.67436 0.235 0.53878 0.0
C590 C 0.73252 0.29949 0.43562 0.0
C591 C 0.72358 0.20082 0.57053 0.0
C592 C 0.81237 0.21373 0.47059 0.0
C593 C 0.83236 0.23459 0.50211 0.0
C594 C 0.77825 0.21887 0.46998 0.0
C595 C 0.76384 0.24531 0.50186 0.0
C596 C 0.7839 0.2666 0.5335 0.0
C597 C 0.81793 0.26107 0.53312 0.0
C598 C 0.75759 0.19585 0.43551 0.0
C599 C 0.76937 0.29492 0.56823 0.0
H600 H 0.66715 0.30265 0.45168 0.0
H601 H 0.65964 0.21901 0.56472 0.0
H602 H 0.75052 0.31653 0.4561 0.0
H603 H 0.74667 0.28128 0.41034 0.0
H604 H 0.71692 0.31796 0.41277 0.0
H605 H 0.70499 0.1862 0.59367 0.0
H606 H 0.73733 0.18025 0.54829 0.0
H607 H 0.74142 0.21431 0.59562 0.0
H608 H 0.82337 0.19332 0.44638 0.0
H609 H 0.83319 0.27728 0.55762 0.0
H610 H 0.74291 0.21391 0.41083 0.0
H611 H 0.74003 0.17897 0.45756 0.0
H612 H 0.77268 0.17722 0.41201 0.0
H613 H 0.75519 0.31551 0.54671 0.0
H614 H 0.78842 0.30953 0.59001 0.0
H615 H 0.75204 0.28145 0.5946 0.0
loop_
_geom_bond_atom_site_label_1
_geom_bond_atom_site_label_2
_geom_bond_distance
_geom_bond_site_symmetry_2
_ccdc_geom_bond_type
C0 O1 1.160 . S
C0 O7 1.185 1_554 S
O1 C0 1.160 . S
O2 Zn3 1.899 . S
O2 C10 1.284 . S
Zn3 O2 1.899 . S
Zn3 O4 2.032 1_554 S
Zn3 O7 2.086 1_554 S
Zn3 O12 1.977 1_554 S
O4 Zn3 2.032 1_556 S
O4 C8 1.278 . S
C5 O6 1.203 . S
C5 O12 1.267 1_554 S
O6 C5 1.203 . S
O7 C0 1.185 1_556 S
O7 Zn3 2.086 1_556 S
C8 O4 1.278 . S
C8 O9 1.211 . S
O9 C8 1.211 . S
C10 O2 1.284 . S
C10 O11 1.273 . S
O11 C10 1.273 . S
O12 Zn3 1.977 1_556 S
O12 C5 1.267 1_556 S
C13 O14 1.160 . S
C13 O20 1.185 1_554 S
O14 C13 1.160 . S
O15 Zn16 1.899 . S
O15 C23 1.284 . S
Zn16 O15 1.899 . S
Zn16 O17 2.032 1_554 S
Zn16 O20 2.086 1_554 S
Zn16 O25 1.977 1_554 S
O17 Zn16 2.032 1_556 S
O17 C21 1.278 . S
C18 O19 1.203 . S
C18 O25 1.267 1_554 S
O19 C18 1.203 . S
O20 C13 1.185 1_556 S
O20 Zn16 2.086 1_556 S
C21 O17 1.278 . S
C21 O22 1.211 . S
O22 C21 1.211 . S
C23 O15 1.284 . S
C23 O24 1.273 . S
O24 C23 1.273 . S
O25 Zn16 1.977 1_556 S
O25 C18 1.267 1_556 S
C26 O27 1.160 . S
C26 O33 1.185 . S
O27 C26 1.160 . S
O28 Zn29 1.899 . S
O28 C36 1.284 . S
Zn29 O28 1.899 . S
Zn29 O30 2.032 . S
Zn29 O33 2.086 . S
Zn29 O38 1.977 . S
O30 Zn29 2.032 . S
O30 C34 1.278 . S
C31 O32 1.203 . S
C31 O38 1.267 . S
O32 C31 1.203 . S
O33 C26 1.185 . S
O33 Zn29 2.086 . S
C34 O30 1.278 . S
C34 O35 1.211 . S
O35 C34 1.211 . S
C36 O28 1.284 . S
C36 O37 1.273 . S
O37 C36 1.273 . S
O38 Zn29 1.977 . S
O38 C31 1.267 . S
C39 O40 1.160 . S
C39 O46 1.185 . S
O40 C39 1.160 . S
O41 Zn42 1.899 . S
O41 C49 1.284 . S
Zn42 O41 1.899 . S
Zn42 O43 2.032 . S
Zn42 O46 2.086 . S
Zn42 O51 1.977 . S
O43 Zn42 2.032 . S
O43 C47 1.278 . S
C44 O45 1.203 . S
C44 O51 1.267 . S
O45 C44 1.203 . S
O46 C39 1.185 . S
O46 Zn42 2.086 . S
C47 O43 1.278 . S
C47 O48 1.211 . S
O48 C47 1.211 . S
C49 O41 1.284 . S
C49 O50 1.273 . S
O50 C49 1.273 . S
O51 Zn42 1.977 . S
O51 C44 1.267 . S
C52 O53 1.160 . S
C52 O59 1.185 1_554 S
O53 C52 1.160 . S
O54 Zn55 1.899 . S
O54 C62 1.284 . S
Zn55 O54 1.899 . S
Zn55 O56 2.032 1_554 S
Zn55 O59 2.086 1_554 S
Zn55 O64 1.977 1_554 S
O56 Zn55 2.032 1_556 S
O56 C60 1.278 . S
C57 O58 1.203 . S
C57 O64 1.267 1_554 S
O58 C57 1.203 . S
O59 C52 1.185 1_556 S
O59 Zn55 2.086 1_556 S
C60 O56 1.278 . S
C60 O61 1.211 . S
O61 C60 1.211 . S
C62 O54 1.284 . S
C62 O63 1.273 . S
O63 C62 1.273 . S
O64 Zn55 1.977 1_556 S
O64 C57 1.267 1_556 S
C65 O66 1.160 . S
C65 O72 1.185 1_554 S
O66 C65 1.160 . S
O67 Zn68 1.899 . S
O67 C75 1.284 . S
Zn68 O67 1.899 . S
Zn68 O69 2.032 1_554 S
Zn68 O72 2.086 1_554 S
Zn68 O77 1.977 1_554 S
O69 Zn68 2.032 1_556 S
O69 C73 1.278 . S
C70 O71 1.203 . S
C70 O77 1.267 1_554 S
O71 C70 1.203 . S
O72 C65 1.185 1_556 S
O72 Zn68 2.086 1_556 S
C73 O69 1.278 . S
C73 O74 1.211 . S
O74 C73 1.211 . S
C75 O67 1.284 . S
C75 O76 1.273 . S
O76 C75 1.273 . S
O77 Zn68 1.977 1_556 S
O77 C70 1.267 1_556 S
C78 O79 1.160 . S
C78 O85 1.185 . S
O79 C78 1.160 . S
O80 Zn81 1.899 . S
O80 C88 1.284 . S
Zn81 O80 1.899 . S
Zn81 O82 2.032 . S
Zn81 O85 2.086 . S
Zn81 O90 1.977 . S
O82 Zn81 2.032 . S
O82 C86 1.278 . S
C83 O84 1.203 . S
C83 O90 1.267 . S
O84 C83 1.203 . S
O85 C78 1.185 . S
O85 Zn81 2.086 . S
C86 O82 1.278 . S
C86 O87 1.211 . S
O87 C86 1.211 . S
C88 O80 1.284 . S
C88 O89 1.273 . S
O89 C88 1.273 . S
O90 Zn81 1.977 . S
O90 C83 1.267 . S
C91 O92 1.160 . S
C91 O98 1.185 . S
O92 C91 1.160 . S
O93 Zn94 1.899 . S
O93 C101 1.284 . S
Zn94 O93 1.899 . S
Zn94 O95 2.032 . S
Zn94 O98 2.086 . S
Zn94 O103 1.977 . S
O95 Zn94 2.032 . S
O95 C99 1.278 . S
C96 O97 1.203 . S
C96 O103 1.267 . S
O97 C96 1.203 . S
O98 C91 1.185 . S
O98 Zn94 2.086 . S
C99 O95 1.278 . S
C99 O100 1.211 . S
O100 C99 1.211 . S
C101 O93 1.284 . S
C101 O102 1.273 . S
O102 C101 1.273 . S
O103 Zn94 1.977 . S
O103 C96 1.267 . S
C104 C105 1.391 1_556 S
C104 C106 1.394 1_655 S
C104 H120 0.931 1_655 S
C105 C104 1.391 1_554 S
C105 C109 1.376 . S
C106 C104 1.394 1_455 S
C106 C107 1.369 1_455 S
C106 C110 1.531 . S
C107 C106 1.369 1_655 S
C107 C108 1.410 1_556 S
C107 C115 1.503 1_666 S
C108 C107 1.410 1_554 S
C108 C109 1.392 . S
C108 C111 1.511 1_565 S
C109 C105 1.376 . S
C109 C108 1.392 . S
C109 H121 0.929 . S
C110 C106 1.531 . S
C110 H122 0.960 . S
C110 H123 0.962 . S
C110 H124 0.960 . S
C111 C108 1.511 1_545 S
C111 H125 0.961 1_545 S
C111 H126 0.961 . S
C111 H127 0.961 . S
C112 C113 1.370 . S
C112 C114 1.363 . S
C112 H128 0.931 . S
C113 C112 1.370 . S
C113 C117 1.408 1_554 S
C114 C112 1.363 . S
C114 C115 1.383 . S
C114 C118 1.517 1_545 S
C115 C107 1.503 1_444 S
C115 C114 1.383 . S
C115 C116 1.391 1_454 S
C116 C115 1.391 1_656 S
C116 C117 1.404 1_655 S
C116 C119 1.539 . S
C117 C113 1.408 1_556 S
C117 C116 1.404 1_455 S
C117 H129 0.930 1_455 S
C118 C114 1.517 1_565 S
C118 H130 0.963 . S
C118 H131 0.965 . S
C118 H132 0.957 1_565 S
C119 C116 1.539 . S
C119 H133 0.958 . S
C119 H134 0.961 . S
C119 H135 0.960 . S
H120 C104 0.931 1_455 S
H121 C109 0.929 . S
H122 C110 0.960 . S
H123 C110 0.962 . S
H124 C110 0.960 . S
H125 C111 0.961 1_565 S
H126 C111 0.961 . S
H127 C111 0.961 . S
H128 C112 0.931 . S
H129 C117 0.930 1_655 S
H130 C118 0.963 . S
H131 C118 0.965 . S
H132 C118 0.957 1_545 S
H133 C119 0.958 . S
H134 C119 0.961 . S
H135 C119 0.960 . S
C136 C137 1.385 1_655 S
C136 C138 1.396 . S
C136 H152 0.934 . S
C137 C136 1.385 1_455 S
C137 C141 1.376 . S
C138 C136 1.396 . S
C138 C139 1.369 1_655 S
C138 C142 1.531 . S
C139 C138 1.369 1_455 S
C139 C140 1.410 . S
C139 C147 1.503 1_465 S
C140 C139 1.410 . S
C140 C141 1.392 . S
C140 C143 1.511 . S
C141 C137 1.376 . S
C141 C140 1.392 . S
C141 H153 0.929 . S
C142 C138 1.531 . S
C142 H154 0.960 . S
C142 H155 0.962 . S
C142 H156 0.960 . S
C143 C140 1.511 . S
C143 H157 0.961 . S
C143 H158 0.961 1_565 S
C143 H159 0.961 . S
C144 C145 1.370 . S
C144 C146 1.363 1_655 S
C144 H160 0.931 1_655 S
C145 C144 1.370 . S
C145 C149 1.408 . S
C146 C144 1.363 1_455 S
C146 C147 1.370 1_455 S
C146 C150 1.524 . S
C147 C139 1.503 1_645 S
C147 C146 1.370 1_655 S
C147 C148 1.403 . S
C148 C147 1.403 . S
C148 C149 1.404 . S
C148 C151 1.539 . S
C149 C145 1.408 . S
C149 C148 1.404 . S
C149 H161 0.930 . S
C150 C146 1.524 . S
C150 H162 0.956 . S
C150 H163 0.961 . S
C150 H164 0.961 . S
C151 C148 1.539 . S
C151 H165 0.958 1_545 S
C151 H166 0.961 . S
C151 H167 0.960 1_545 S
H152 C136 0.934 . S
H153 C141 0.929 . S
H154 C142 0.960 . S
H155 C142 0.962 . S
H156 C142 0.960 . S
H157 C143 0.961 . S
H158 C143 0.961 1_545 S
H159 C143 0.961 . S
H160 C144 0.931 1_455 S
H161 C149 0.930 . S
H162 C150 0.956 . S
H163 C150 0.961 . S
H164 C150 0.961 . S
H165 C151 0.958 1_565 S
H166 C151 0.961 . S
H167 C151 0.960 1_565 S
C168 C169 1.391 . S
C168 C170 1.394 . S
C168 H184 0.931 . S
C169 C168 1.391 . S
C169 C173 1.376 1_554 S
C170 C168 1.394 . S
C170 C171 1.369 . S
C170 C174 1.531 . S
C171 C170 1.369 . S
C171 C172 1.410 1_554 S
C171 C179 1.503 . S
C172 C171 1.410 1_556 S
C172 C173 1.392 . S
C172 C175 1.511 . S
C173 C169 1.376 1_556 S
C173 C172 1.392 . S
C173 H185 0.929 . S
C174 C170 1.531 . S
C174 H186 0.960 . S
C174 H187 0.962 . S
C174 H188 0.960 . S
C175 C172 1.511 . S
C175 H189 0.961 . S
C175 H190 0.961 . S
C175 H191 0.975 . S
C176 C177 1.370 1_556 S
C176 C178 1.363 . S
C176 H192 0.931 . S
C177 C176 1.370 1_554 S
C177 C181 1.408 . S
C178 C176 1.363 . S
C178 C179 1.370 1_556 S
C178 C182 1.524 . S
C179 C171 1.503 . S
C179 C178 1.370 1_554 S
C179 C180 1.403 . S
C180 C179 1.403 . S
C180 C181 1.404 . S
C180 C183 1.539 . S
C181 C177 1.408 . S
C181 C180 1.404 . S
C181 H193 0.930 . S
C182 C178 1.524 . S
C182 H194 0.956 . S
C182 H195 0.961 . S
C182 H196 0.961 . S
C183 C180 1.539 . S
C183 H197 0.958 . S
C183 H198 0.961 . S
C183 H199 0.960 . S
H184 C168 0.931 . S
H185 C173 0.929 . S
H186 C174 0.960 . S
H187 C174 0.962 . S
H188 C174 0.960 . S
H189 C175 0.961 . S
H190 C175 0.961 . S
H191 C175 0.975 . S
H192 C176 0.931 . S
H193 C181 0.930 . S
H194 C182 0.956 . S
H195 C182 0.961 . S
H196 C182 0.961 . S
H197 C183 0.958 . S
H198 C183 0.961 . S
H199 C183 0.960 . S
C200 C201 1.391 . S
C200 C202 1.394 . S
C200 H216 0.931 . S
C201 C200 1.391 . S
C201 C205 1.376 . S
C202 C200 1.394 . S
C202 C203 1.369 . S
C202 C206 1.531 . S
C203 C202 1.369 . S
C203 C204 1.410 . S
C203 C211 1.503 . S
C204 C203 1.410 . S
C204 C205 1.392 . S
C204 C207 1.511 . S
C205 C201 1.376 . S
C205 C204 1.392 . S
C205 H217 0.929 . S
C206 C202 1.531 . S
C206 H218 0.960 . S
C206 H219 0.962 . S
C206 H220 0.960 . S
C207 C204 1.511 . S
C207 H221 0.961 . S
C207 H222 0.961 . S
C207 H223 0.961 . S
C208 C209 1.370 . S
C208 C210 1.363 . S
C208 H224 0.931 . S
C209 C208 1.370 . S
C209 C213 1.408 . S
C210 C208 1.363 . S
C210 C211 1.370 . S
C210 C214 1.524 . S
C211 C203 1.503 . S
C211 C210 1.370 . S
C211 C212 1.403 . S
C212 C211 1.403 . S
C212 C213 1.404 . S
C212 C215 1.539 . S
C213 C209 1.408 . S
C213 C212 1.404 . S
C213 H225 0.930 . S
C214 C210 1.524 . S
C214 H226 0.956 . S
C214 H227 0.961 . S
C214 H228 0.961 . S
C215 C212 1.539 . S
C215 H229 0.958 . S
C215 H230 0.961 . S
C215 H231 0.960 . S
H216 C200 0.931 . S
H217 C205 0.929 . S
H218 C206 0.960 . S
H219 C206 0.962 . S
H220 C206 0.960 . S
H221 C207 0.961 . S
H222 C207 0.961 . S
H223 C207 0.961 . S
H224 C208 0.931 . S
H225 C213 0.930 . S
H226 C214 0.956 . S
H227 C214 0.961 . S
H228 C214 0.961 . S
H229 C215 0.958 . S
H230 C215 0.961 . S
H231 C215 0.960 . S
C232 C233 1.391 . S
C232 C234 1.394 . S
C232 H248 0.931 . S
C233 C232 1.391 . S
C233 C237 1.376 1_455 S
C234 C232 1.394 . S
C234 C235 1.369 . S
C234 C238 1.531 . S
C235 C234 1.369 . S
C235 C236 1.410 1_455 S
C235 C243 1.503 1_455 S
C236 C235 1.410 1_655 S
C236 C237 1.392 . S
C236 C239 1.511 . S
C237 C233 1.376 1_655 S
C237 C236 1.392 . S
C237 H249 0.929 . S
C238 C234 1.531 . S
C238 H250 0.960 . S
C238 H251 0.962 . S
C238 H252 0.960 . S
C239 C236 1.511 . S
C239 H253 0.961 . S
C239 H254 0.961 . S
C239 H255 0.961 . S
C240 C241 1.370 . S
C240 C242 1.363 . S
C240 H256 0.931 . S
C241 C240 1.370 . S
C241 C245 1.408 . S
C242 C240 1.363 . S
C242 C243 1.370 . S
C242 C246 1.524 . S
C243 C235 1.503 1_655 S
C243 C242 1.370 . S
C243 C244 1.403 . S
C244 C243 1.403 . S
C244 C245 1.404 . S
C244 C247 1.539 . S
C245 C241 1.408 . S
C245 C244 1.404 . S
C245 H257 0.930 . S
C246 C242 1.524 . S
C246 H258 0.956 1_655 S
C246 H259 0.961 . S
C246 H260 0.961 . S
C247 C244 1.539 . S
C247 H261 0.958 1_655 S
C247 H262 0.961 . S
C247 H263 0.960 . S
H248 C232 0.931 . S
H249 C237 0.929 . S
H250 C238 0.960 . S
H251 C238 0.962 . S
H252 C238 0.960 . S
H253 C239 0.961 . S
H254 C239 0.961 . S
H255 C239 0.961 . S
H256 C240 0.931 . S
H257 C245 0.930 . S
H258 C246 0.956 1_455 S
H259 C246 0.961 . S
H260 C246 0.961 . S
H261 C247 0.958 1_455 S
H262 C247 0.961 . S
H263 C247 0.960 . S
C264 C265 1.391 . S
C264 C266 1.394 . S
C264 H280 0.931 . S
C265 C264 1.391 . S
C265 C269 1.376 1_455 S
C266 C264 1.394 . S
C266 C267 1.389 . S
C266 C270 1.531 . S
C267 C266 1.389 . S
C267 C268 1.393 1_455 S
C267 C275 1.500 1_455 S
C268 C267 1.393 1_655 S
C268 C269 1.392 . S
C268 C271 1.511 . S
C269 C265 1.376 1_655 S
C269 C268 1.392 . S
C269 H281 0.929 . S
C270 C266 1.531 . S
C270 H282 0.960 . S
C270 H283 0.962 . S
C270 H284 0.960 . S
C271 C268 1.511 . S
C271 H285 0.961 . S
C271 H286 0.961 . S
C271 H287 0.961 . S
C272 C273 1.370 . S
C272 C274 1.363 1_655 S
C272 H288 0.931 1_655 S
C273 C272 1.370 . S
C273 C277 1.408 . S
C274 C272 1.363 1_455 S
C274 C275 1.370 1_455 S
C274 C278 1.524 . S
C275 C267 1.500 1_655 S
C275 C274 1.370 1_655 S
C275 C276 1.403 . S
C276 C275 1.403 . S
C276 C277 1.404 . S
C276 C279 1.539 . S
C277 C273 1.408 . S
C277 C276 1.404 . S
C277 H289 0.930 . S
C278 C274 1.524 . S
C278 H290 0.956 . S
C278 H291 0.961 . S
C278 H292 0.961 . S
C279 C276 1.539 . S
C279 H293 0.958 . S
C279 H294 0.961 . S
C279 H295 0.960 . S
H280 C264 0.931 . S
H281 C269 0.929 . S
H282 C270 0.960 . S
H283 C270 0.962 . S
H284 C270 0.960 . S
H285 C271 0.961 . S
H286 C271 0.961 . S
H287 C271 0.961 . S
H288 C272 0.931 1_455 S
H289 C277 0.930 . S
H290 C278 0.956 . S
H291 C278 0.961 . S
H292 C278 0.961 . S
H293 C279 0.958 . S
H294 C279 0.961 . S
H295 C279 0.960 . S
C296 C297 1.391 1_655 S
C296 C298 1.394 . S
C296 H312 0.931 . S
C297 C296 1.391 1_455 S
C297 C301 1.376 . S
C298 C296 1.394 . S
C298 C299 1.369 1_655 S
C298 C302 1.531 . S
C299 C298 1.369 1_455 S
C299 C300 1.410 . S
C299 C307 1.503 1_455 S
C300 C299 1.410 . S
C300 C301 1.392 . S
C300 C303 1.511 . S
C301 C297 1.376 . S
C301 C300 1.392 . S
C301 H313 0.929 . S
C302 C298 1.531 . S
C302 H314 0.960 . S
C302 H315 0.962 . S
C302 H316 0.960 . S
C303 C300 1.511 . S
C303 H317 0.961 . S
C303 H318 0.961 . S
C303 H319 0.961 . S
C304 C305 1.370 . S
C304 C306 1.363 . S
C304 H320 0.931 . S
C305 C304 1.370 . S
C305 C309 1.408 1_655 S
C306 C304 1.363 . S
C306 C307 1.370 . S
C306 C310 1.524 . S
C307 C299 1.503 1_655 S
C307 C306 1.370 . S
C307 C308 1.403 1_655 S
C308 C307 1.403 1_455 S
C308 C309 1.404 . S
C308 C311 1.539 . S
C309 C305 1.408 1_455 S
C309 C308 1.404 . S
C309 H321 0.930 . S
C310 C306 1.524 . S
C310 H322 0.956 . S
C310 H323 0.961 . S
C310 H324 0.961 . S
C311 C308 1.539 . S
C311 H325 0.958 . S
C311 H326 0.961 . S
C311 H327 0.960 . S
H312 C296 0.931 . S
H313 C301 0.929 . S
H314 C302 0.960 . S
H315 C302 0.962 . S
H316 C302 0.960 . S
H317 C303 0.961 . S
H318 C303 0.961 . S
H319 C303 0.961 . S
H320 C304 0.931 . S
H321 C309 0.930 . S
H322 C310 0.956 . S
H323 C310 0.961 . S
H324 C310 0.961 . S
H325 C311 0.958 . S
H326 C311 0.961 . S
H327 C311 0.960 . S
C328 C329 1.391 1_655 S
C328 C330 1.394 . S
C328 H344 0.931 . S
C329 C328 1.391 1_455 S
C329 C333 1.376 . S
C330 C328 1.394 . S
C330 C331 1.369 1_655 S
C330 C334 1.531 . S
C331 C330 1.369 1_455 S
C331 C332 1.410 . S
C331 C339 1.503 1_455 S
C332 C331 1.410 . S
C332 C333 1.392 . S
C332 C335 1.511 . S
C333 C329 1.376 . S
C333 C332 1.392 . S
C333 H345 0.929 . S
C334 C330 1.531 . S
C334 H346 0.960 . S
C334 H347 0.962 . S
C334 H348 0.960 . S
C335 C332 1.511 . S
C335 H349 0.961 . S
C335 H350 0.961 . S
C335 H351 0.961 . S
C336 C337 1.370 . S
C336 C338 1.363 . S
C336 H352 0.931 . S
C337 C336 1.370 . S
C337 C341 1.408 . S
C338 C336 1.363 . S
C338 C339 1.370 . S
C338 C342 1.524 . S
C339 C331 1.503 1_655 S
C339 C338 1.370 . S
C339 C340 1.403 1_655 S
C340 C339 1.403 1_455 S
C340 C341 1.404 1_455 S
C340 C343 1.539 . S
C341 C337 1.408 . S
C341 C340 1.404 1_655 S
C341 H353 0.930 1_655 S
C342 C338 1.524 . S
C342 H354 0.956 . S
C342 H355 0.961 . S
C342 H356 0.961 . S
C343 C340 1.539 . S
C343 H357 0.958 . S
C343 H358 0.961 . S
C343 H359 0.960 . S
H344 C328 0.931 . S
H345 C333 0.929 . S
H346 C334 0.960 . S
H347 C334 0.962 . S
H348 C334 0.960 . S
H349 C335 0.961 . S
H350 C335 0.961 . S
H351 C335 0.961 . S
H352 C336 0.931 . S
H353 C341 0.930 1_455 S
H354 C342 0.956 . S
H355 C342 0.961 . S
H356 C342 0.961 . S
H357 C343 0.958 . S
H358 C343 0.961 . S
H359 C343 0.960 . S
C360 C361 1.391 . S
C360 C362 1.394 . S
C360 H376 0.931 . S
C361 C360 1.391 . S
C361 C365 1.376 . S
C362 C360 1.394 . S
C362 C363 1.369 . S
C362 C366 1.531 . S
C363 C362 1.369 . S
C363 C364 1.410 . S
C363 C371 1.503 . S
C364 C363 1.410 . S
C364 C365 1.392 . S
C364 C367 1.511 . S
C365 C361 1.376 . S
C365 C364 1.392 . S
C365 H377 0.929 . S
C366 C362 1.531 . S
C366 H378 0.960 . S
C366 H379 0.962 . S
C366 H380 0.960 . S
C367 C364 1.511 . S
C367 H381 0.961 . S
C367 H382 0.961 . S
C367 H383 0.961 . S
C368 C369 1.370 . S
C368 C370 1.363 . S
C368 H384 0.931 . S
C369 C368 1.370 . S
C369 C373 1.408 . S
C370 C368 1.363 . S
C370 C371 1.370 . S
C370 C374 1.524 . S
C371 C363 1.503 . S
C371 C370 1.370 . S
C371 C372 1.403 . S
C372 C371 1.403 . S
C372 C373 1.404 . S
C372 C375 1.539 . S
C373 C369 1.408 . S
C373 C372 1.404 . S
C373 H385 0.930 . S
C374 C370 1.524 . S
C374 H386 0.956 . S
C374 H387 0.961 . S
C374 H388 0.961 . S
C375 C372 1.539 . S
C375 H389 0.958 . S
C375 H390 0.961 . S
C375 H391 0.960 . S
H376 C360 0.931 . S
H377 C365 0.929 . S
H378 C366 0.960 . S
H379 C366 0.962 . S
H380 C366 0.960 . S
H381 C367 0.961 . S
H382 C367 0.961 . S
H383 C367 0.961 . S
H384 C368 0.931 . S
H385 C373 0.930 . S
H386 C374 0.956 . S
H387 C374 0.961 . S
H388 C374 0.961 . S
H389 C375 0.958 . S
H390 C375 0.961 . S
H391 C375 0.960 . S
C392 C393 1.391 . S
C392 C394 1.394 . S
C392 H408 0.931 . S
C393 C392 1.391 . S
C393 C397 1.376 . S
C394 C392 1.394 . S
C394 C395 1.369 . S
C394 C398 1.531 . S
C395 C394 1.369 . S
C395 C396 1.410 . S
C395 C403 1.503 . S
C396 C395 1.410 . S
C396 C397 1.392 . S
C396 C399 1.511 . S
C397 C393 1.376 . S
C397 C396 1.392 . S
C397 H409 0.929 . S
C398 C394 1.531 . S
C398 H410 0.960 . S
C398 H411 0.962 . S
C398 H412 0.960 . S
C399 C396 1.511 . S
C399 H413 0.961 . S
C399 H414 0.961 . S
C399 H415 0.961 . S
C400 C401 1.370 . S
C400 C402 1.363 . S
C400 H416 0.931 . S
C401 C400 1.370 . S
C401 C405 1.408 . S
C402 C400 1.363 . S
C402 C403 1.370 . S
C402 C406 1.524 . S
C403 C395 1.503 . S
C403 C402 1.370 . S
C403 C404 1.403 . S
C404 C403 1.403 . S
C404 C405 1.404 . S
C404 C407 1.539 . S
C405 C401 1.408 . S
C405 C404 1.404 . S
C405 H417 0.930 . S
C406 C402 1.524 . S
C406 H418 0.956 . S
C406 H419 0.961 . S
C406 H420 0.961 . S
C407 C404 1.539 . S
C407 H421 0.958 . S
C407 H422 0.961 . S
C407 H423 0.960 . S
H408 C392 0.931 . S
H409 C397 0.929 . S
H410 C398 0.960 . S
H411 C398 0.962 . S
H412 C398 0.960 . S
H413 C399 0.961 . S
H414 C399 0.961 . S
H415 C399 0.961 . S
H416 C400 0.931 . S
H417 C405 0.930 . S
H418 C406 0.956 . S
H419 C406 0.961 . S
H420 C406 0.961 . S
H421 C407 0.958 . S
H422 C407 0.961 . S
H423 C407 0.960 . S
C424 C425 1.391 . S
C424 C426 1.394 . S
C424 H440 0.931 . S
C425 C424 1.391 . S
C425 C429 1.376 . S
C426 C424 1.394 . S
C426 C427 1.369 . S
C426 C430 1.531 . S
C427 C426 1.369 . S
C427 C428 1.410 . S
C427 C435 1.503 . S
C428 C427 1.410 . S
C428 C429 1.392 . S
C428 C431 1.511 . S
C429 C425 1.376 . S
C429 C428 1.392 . S
C429 H441 0.929 . S
C430 C426 1.531 . S
C430 H442 0.960 . S
C430 H443 0.962 . S
C430 H444 0.960 . S
C431 C428 1.511 . S
C431 H445 0.961 . S
C431 H446 0.961 . S
C431 H447 0.961 . S
C432 C433 1.370 . S
C432 C434 1.363 . S
C432 H448 0.931 . S
C433 C432 1.370 . S
C433 C437 1.408 . S
C434 C432 1.363 . S
C434 C435 1.370 . S
C434 C438 1.524 . S
C435 C427 1.503 . S
C435 C434 1.370 . S
C435 C436 1.403 . S
C436 C435 1.403 . S
C436 C437 1.404 . S
C436 C439 1.539 . S
C437 C433 1.408 . S
C437 C436 1.404 . S
C437 H449 0.930 . S
C438 C434 1.524 . S
C438 H450 0.956 . S
C438 H451 0.961 . S
C438 H452 0.961 . S
C439 C436 1.539 . S
C439 H453 0.958 . S
C439 H454 0.961 . S
C439 H455 0.960 . S
H440 C424 0.931 . S
H441 C429 0.929 . S
H442 C430 0.960 . S
H443 C430 0.962 . S
H444 C430 0.960 . S
H445 C431 0.961 . S
H446 C431 0.961 . S
H447 C431 0.961 . S
H448 C432 0.931 . S
H449 C437 0.930 . S
H450 C438 0.956 . S
H451 C438 0.961 . S
H452 C438 0.961 . S
H453 C439 0.958 . S
H454 C439 0.961 . S
H455 C439 0.960 . S
C456 C457 1.391 . S
C456 C458 1.394 . S
C456 H472 0.931 . S
C457 C456 1.391 . S
C457 C461 1.376 . S
C458 C456 1.394 . S
C458 C459 1.369 . S
C458 C462 1.531 . S
C459 C458 1.369 . S
C459 C460 1.410 . S
C459 C467 1.503 . S
C460 C459 1.410 . S
C460 C461 1.392 . S
C460 C463 1.511 . S
C461 C457 1.376 . S
C461 C460 1.392 . S
C461 H473 0.929 . S
C462 C458 1.531 . S
C462 H474 0.960 . S
C462 H475 0.962 . S
C462 H476 0.960 . S
C463 C460 1.511 . S
C463 H477 0.961 . S
C463 H478 0.961 . S
C463 H479 0.961 . S
C464 C465 1.370 . S
C464 C466 1.363 . S
C464 H480 0.931 . S
C465 C464 1.370 . S
C465 C469 1.408 . S
C466 C464 1.363 . S
C466 C467 1.370 . S
C466 C470 1.524 . S
C467 C459 1.503 . S
C467 C466 1.370 . S
C467 C468 1.403 . S
C468 C467 1.403 . S
C468 C469 1.404 . S
C468 C471 1.539 . S
C469 C465 1.408 . S
C469 C468 1.404 . S
C469 H481 0.930 . S
C470 C466 1.524 . S
C470 H482 0.956 . S
C470 H483 0.961 . S
C470 H484 0.961 . S
C471 C468 1.539 . S
C471 H485 0.958 . S
C471 H486 0.961 . S
C471 H487 0.960 . S
H472 C456 0.931 . S
H473 C461 0.929 . S
H474 C462 0.960 . S
H475 C462 0.962 . S
H476 C462 0.960 . S
H477 C463 0.961 . S
H478 C463 0.961 . S
H479 C463 0.961 . S
H480 C464 0.931 . S
H481 C469 0.930 . S
H482 C470 0.956 . S
H483 C470 0.961 . S
H484 C470 0.961 . S
H485 C471 0.958 . S
H486 C471 0.961 . S
H487 C471 0.960 . S
C488 C489 1.391 . S
C488 C490 1.394 . S
C488 H504 0.931 . S
C489 C488 1.391 . S
C489 C493 1.376 1_556 S
C490 C488 1.394 . S
C490 C491 1.369 . S
C490 C494 1.531 . S
C491 C490 1.369 . S
C491 C492 1.410 1_556 S
C491 C499 1.503 . S
C492 C491 1.410 1_554 S
C492 C493 1.392 . S
C492 C495 1.511 . S
C493 C489 1.376 1_554 S
C493 C492 1.392 . S
C493 H505 0.929 . S
C494 C490 1.531 . S
C494 H506 0.960 . S
C494 H507 0.962 . S
C494 H508 0.960 . S
C495 C492 1.511 . S
C495 H509 0.961 . S
C495 H510 0.961 . S
C495 H511 0.961 1_554 S
C496 C497 1.370 1_554 S
C496 C498 1.363 . S
C496 H512 0.931 . S
C497 C496 1.370 1_556 S
C497 C501 1.408 . S
C498 C496 1.363 . S
C498 C499 1.370 1_554 S
C498 C502 1.524 . S
C499 C491 1.503 . S
C499 C498 1.370 1_556 S
C499 C500 1.403 . S
C500 C499 1.403 . S
C500 C501 1.404 . S
C500 C503 1.539 . S
C501 C497 1.408 . S
C501 C500 1.404 . S
C501 H513 0.930 . S
C502 C498 1.524 . S
C502 H514 0.956 . S
C502 H515 0.961 . S
C502 H516 0.961 . S
C503 C500 1.539 . S
C503 H517 0.958 . S
C503 H518 0.961 . S
C503 H519 0.960 . S
H504 C488 0.931 . S
H505 C493 0.929 . S
H506 C494 0.960 . S
H507 C494 0.962 . S
H508 C494 0.960 . S
H509 C495 0.961 . S
H510 C495 0.961 . S
H511 C495 0.961 1_556 S
H512 C496 0.931 . S
H513 C501 0.930 . S
H514 C502 0.956 . S
H515 C502 0.961 . S
H516 C502 0.961 . S
H517 C503 0.958 . S
H518 C503 0.961 . S
H519 C503 0.960 . S
C520 C521 1.391 . S
C520 C522 1.394 . S
C520 H536 0.931 . S
C521 C520 1.391 . S
C521 C525 1.376 1_556 S
C522 C520 1.394 . S
C522 C523 1.369 . S
C522 C526 1.531 . S
C523 C522 1.369 . S
C523 C524 1.410 1_556 S
C523 C531 1.503 . S
C524 C523 1.410 1_554 S
C524 C525 1.392 . S
C524 C527 1.511 . S
C525 C521 1.376 1_554 S
C525 C524 1.392 . S
C525 H537 0.929 . S
C526 C522 1.531 . S
C526 H538 0.960 . S
C526 H539 0.962 . S
C526 H540 0.960 . S
C527 C524 1.511 . S
C527 H541 0.961 . S
C527 H542 0.961 . S
C527 H543 0.961 . S
C528 C529 1.360 1_554 S
C528 C530 1.363 . S
C528 H544 0.931 . S
C529 C528 1.360 1_556 S
C529 C533 1.420 . S
C530 C528 1.363 . S
C530 C531 1.370 1_554 S
C530 C534 1.524 . S
C531 C523 1.503 . S
C531 C530 1.370 1_556 S
C531 C532 1.403 . S
C532 C531 1.403 . S
C532 C533 1.404 . S
C532 C535 1.539 . S
C533 C529 1.420 . S
C533 C532 1.404 . S
C533 H545 0.930 . S
C534 C530 1.524 . S
C534 H546 0.956 . S
C534 H547 0.961 . S
C534 H548 0.961 . S
C535 C532 1.539 . S
C535 H549 0.958 . S
C535 H550 0.961 . S
C535 H551 0.960 . S
H536 C520 0.931 . S
H537 C525 0.929 . S
H538 C526 0.960 . S
H539 C526 0.962 . S
H540 C526 0.960 . S
H541 C527 0.961 . S
H542 C527 0.961 . S
H543 C527 0.961 . S
H544 C528 0.931 . S
H545 C533 0.930 . S
H546 C534 0.956 . S
H547 C534 0.961 . S
H548 C534 0.961 . S
H549 C535 0.958 . S
H550 C535 0.961 . S
H551 C535 0.960 . S
C552 C553 1.391 . S
C552 C554 1.394 . S
C552 H568 0.931 . S
C553 C552 1.391 . S
C553 C557 1.376 . S
C554 C552 1.394 . S
C554 C555 1.369 . S
C554 C558 1.531 . S
C555 C554 1.369 . S
C555 C556 1.410 . S
C555 C563 1.503 . S
C556 C555 1.410 . S
C556 C557 1.392 . S
C556 C559 1.511 . S
C557 C553 1.376 . S
C557 C556 1.392 . S
C557 H569 0.929 . S
C558 C554 1.531 . S
C558 H570 0.960 . S
C558 H571 0.962 . S
C558 H572 0.960 . S
C559 C556 1.511 . S
C559 H573 0.961 . S
C559 H574 0.961 . S
C559 H575 0.961 . S
C560 C561 1.370 . S
C560 C562 1.363 . S
C560 H576 0.931 . S
C561 C560 1.370 . S
C561 C565 1.408 . S
C562 C560 1.363 . S
C562 C563 1.370 . S
C562 C566 1.524 . S
C563 C555 1.503 . S
C563 C562 1.370 . S
C563 C564 1.403 . S
C564 C563 1.403 . S
C564 C565 1.404 . S
C564 C567 1.539 . S
C565 C561 1.408 . S
C565 C564 1.404 . S
C565 H577 0.930 . S
C566 C562 1.524 . S
C566 H578 0.956 . S
C566 H579 0.961 . S
C566 H580 0.961 . S
C567 C564 1.539 . S
C567 H581 0.958 . S
C567 H582 0.961 . S
C567 H583 0.960 . S
H568 C552 0.931 . S
H569 C557 0.929 . S
H570 C558 0.960 . S
H571 C558 0.962 . S
H572 C558 0.960 . S
H573 C559 0.961 . S
H574 C559 0.961 . S
H575 C559 0.961 . S
H576 C560 0.931 . S
H577 C565 0.930 . S
H578 C566 0.956 . S
H579 C566 0.961 . S
H580 C566 0.961 . S
H581 C567 0.958 . S
H582 C567 0.961 . S
H583 C567 0.960 . S
C584 C585 1.391 . S
C584 C586 1.394 . S
C584 H600 0.931 . S
C585 C584 1.391 . S
C585 C589 1.376 . S
C586 C584 1.394 . S
C586 C587 1.369 . S
C586 C590 1.531 . S
C587 C586 1.369 . S
C587 C588 1.410 . S
C587 C595 1.503 . S
C588 C587 1.410 . S
C588 C589 1.392 . S
C588 C591 1.511 . S
C589 C585 1.376 . S
C589 C588 1.392 . S
C589 H601 0.929 . S
C590 C586 1.531 . S
C590 H602 0.960 . S
C590 H603 0.962 . S
C590 H604 0.960 . S
C591 C588 1.511 . S
C591 H605 0.961 . S
C591 H606 0.961 . S
C591 H607 0.961 . S
C592 C593 1.370 . S
C592 C594 1.363 . S
C592 H608 0.931 . S
C593 C592 1.370 . S
C593 C597 1.408 . S
C594 C592 1.363 . S
C594 C595 1.370 . S
C594 C598 1.524 . S
C595 C587 1.503 . S
C595 C594 1.370 . S
C595 C596 1.403 . S
C596 C595 1.403 . S
C596 C597 1.404 . S
C596 C599 1.539 . S
C597 C593 1.408 . S
C597 C596 1.404 . S
C597 H609 0.930 . S
C598 C594 1.524 . S
C598 H610 0.956 . S
C598 H611 0.961 . S
C598 H612 0.961 . S
C599 C596 1.539 . S
C599 H613 0.958 . S
C599 H614 0.961 . S
C599 H615 0.960 . S
H600 C584 0.931 . S
H601 C589 0.929 . S
H602 C590 0.960 . S
H603 C590 0.962 . S
H604 C590 0.960 . S
H605 C591 0.961 . S
H606 C591 0.961 . S
H607 C591 0.961 . S
H608 C592 0.931 . S
H609 C597 0.930 . S
H610 C598 0.956 . S
H611 C598 0.961 . S
H612 C598 0.961 . S
H613 C599 0.958 . S
H614 C599 0.961 . S
H615 C599 0.960 . S
C105 C18 1.496 . S
C113 C5 1.468 . S
C137 C31 1.460 . S
C145 C44 1.483 . S
C169 C57 1.449 . S
C177 C70 1.478 . S
C201 C83 1.497 . S
C209 C96 1.467 . S
C233 C10 1.194 . S
C241 C49 1.187 . S
C265 C36 1.195 . S
C273 C23 1.185 . S
C297 C34 1.141 . S
C305 C21 1.117 . S
C329 C8 1.144 . S
C337 C47 1.118 . S
C361 C62 1.161 . S
C369 C101 1.176 . S
C393 C88 1.162 . S
C401 C75 1.179 . S
C425 C73 1.132 . S
C433 C86 1.112 . S
C457 C60 1.048 . S
C465 C99 1.079 . S
C489 C65 1.538 1_556 S
C497 C0 1.532 1_556 S
C521 C52 1.530 1_556 S
C529 C13 1.524 1_556 S
C553 C26 1.539 . S
C561 C91 1.532 . S
C585 C78 1.533 . S
C593 C39 1.528 . S
