# Generated by pormake.
# Topology wfy, (7)-cn, num edge types: 1
# Building blocks:
#     Node 0, Type 0, BuildingBlock: HICVOG_clean_sbu_0, # of connection points: 7
#     Node 1, Type 0, BuildingBlock: HICVOG_clean_sbu_0, # of connection points: 7
#     Node 2, Type 0, BuildingBlock: HICVOG_clean_sbu_0, # of connection points: 7
#     Node 3, Type 0, BuildingBlock: HICVOG_clean_sbu_0, # of connection points: 7
#     Node 4, Type 0, BuildingBlock: HICVOG_clean_sbu_0, # of connection points: 7
#     Node 5, Type 0, BuildingBlock: HICVOG_clean_sbu_0, # of connection points: 7
#     Node 6, Type 0, BuildingBlock: HICVOG_clean_sbu_0, # of connection points: 7
#     Node 7, Type 0, BuildingBlock: HICVOG_clean_sbu_0, # of connection points: 7
#     Edge 8, Type (0, 0), BuildingBlock: OJICUG_clean_linker_0, # of connection points: 2
#     Edge 9, Type (0, 0), BuildingBlock: OJICUG_clean_linker_0, # of connection points: 2
#     Edge 10, Type (0, 0), BuildingBlock: OJICUG_clean_linker_0, # of connection points: 2
#     Edge 11, Type (0, 0), BuildingBlock: OJICUG_clean_linker_0, # of connection points: 2
#     Edge 12, Type (0, 0), BuildingBlock: OJICUG_clean_linker_0, # of connection points: 2
#     Edge 13, Type (0, 0), BuildingBlock: OJICUG_clean_linker_0, # of connection points: 2
#     Edge 14, Type (0, 0), BuildingBlock: OJICUG_clean_linker_0, # of connection points: 2
#     Edge 15, Type (0, 0), BuildingBlock: OJICUG_clean_linker_0, # of connection points: 2
#     Edge 16, Type (0, 0), BuildingBlock: OJICUG_clean_linker_0, # of connection points: 2
#     Edge 17, Type (0, 0), BuildingBlock: OJICUG_clean_linker_0, # of connection points: 2
#     Edge 18, Type (0, 0), BuildingBlock: OJICUG_clean_linker_0, # of connection points: 2
#     Edge 19, Type (0, 0), BuildingBlock: OJICUG_clean_linker_0, # of connection points: 2
#     Edge 20, Type (0, 0), BuildingBlock: OJICUG_clean_linker_0, # of connection points: 2
#     Edge 21, Type (0, 0), BuildingBlock: OJICUG_clean_linker_0, # of connection points: 2
#     Edge 22, Type (0, 0), BuildingBlock: OJICUG_clean_linker_0, # of connection points: 2
#     Edge 23, Type (0, 0), BuildingBlock: OJICUG_clean_linker_0, # of connection points: 2
#     Edge 24, Type (0, 0), BuildingBlock: OJICUG_clean_linker_0, # of connection points: 2
#     Edge 25, Type (0, 0), BuildingBlock: OJICUG_clean_linker_0, # of connection points: 2
#     Edge 26, Type (0, 0), BuildingBlock: OJICUG_clean_linker_0, # of connection points: 2
#     Edge 27, Type (0, 0), BuildingBlock: OJICUG_clean_linker_0, # of connection points: 2
#     Edge 28, Type (0, 0), BuildingBlock: OJICUG_clean_linker_0, # of connection points: 2
#     Edge 29, Type (0, 0), BuildingBlock: OJICUG_clean_linker_0, # of connection points: 2
#     Edge 30, Type (0, 0), BuildingBlock: OJICUG_clean_linker_0, # of connection points: 2
#     Edge 31, Type (0, 0), BuildingBlock: OJICUG_clean_linker_0, # of connection points: 2
#     Edge 32, Type (0, 0), BuildingBlock: OJICUG_clean_linker_0, # of connection points: 2
#     Edge 33, Type (0, 0), BuildingBlock: OJICUG_clean_linker_0, # of connection points: 2
#     Edge 34, Type (0, 0), BuildingBlock: OJICUG_clean_linker_0, # of connection points: 2
#     Edge 35, Type (0, 0), BuildingBlock: OJICUG_clean_linker_0, # of connection points: 2
# Relax obj value: 0.132
# Max RMSD: 0.238
# Mean RMSD: 0.238
data_MOF--net-wfy--node1-HICVOG_clean_sbu_0--edge1-OJICUG_clean_linker_0
_symmetry_space_group_name_H-M    P1
_symmetry_Int_Tables_number       1
_symmetry_cell_setting            triclinic
loop_
_symmetry_equiv_pos_as_xyz
'x, y, z'
_cell_length_a     29.290068
_cell_length_b     29.292361
_cell_length_c     18.460773
_cell_angle_alpha  89.987056
_cell_angle_beta   90.063867
_cell_angle_gamma 90.024994
loop_
_atom_site_label
_atom_site_type_symbol
_atom_site_fract_x
_atom_site_fract_y
_atom_site_fract_z
_atom_type_partial_charge
Zn0 Zn 0.347 0.09522 0.11126 0.0
C1 C 0.30151 0.22172 0.08946 0.0
N2 N 0.34488 0.23251 0.10623 0.0
C3 C 0.36709 0.19262 0.10083 0.0
N4 N 0.33853 0.15838 0.08288 0.0
N5 N 0.29763 0.17673 0.07404 0.0
C6 C 0.15923 0.17186 0.03481 0.0
O7 O 0.16288 0.13417 0.07293 0.0
O8 O 0.40925 0.06951 0.08794 0.0
Zn9 Zn 0.25461 0.15097 1.00507 0.0
N10 N 0.34323 0.09242 0.21555 0.0
C11 C 0.3336 0.12394 0.33334 0.0
C12 C 0.33508 0.12932 0.25824 0.0
C13 C 0.34886 0.05031 0.24468 0.0
N14 N 0.3386 0.08161 0.36244 0.0
C15 C 0.34562 0.04428 0.31995 0.0
O16 O 0.23962 0.08355 1.02247 0.0
C17 C 0.25984 0.04805 0.04658 0.0
O18 O 0.29914 0.05049 0.07591 0.0
H19 H 0.3297 0.16253 0.23449 0.0
H20 H 0.35547 0.02184 0.20886 0.0
C21 C 0.27903 0.18715 0.86084 0.0
C22 C 0.30171 0.18444 0.79341 0.0
C23 C 0.33585 0.11485 0.83051 0.0
C24 C 0.31321 0.11749 0.89672 0.0
N25 N 0.28488 0.15315 0.91059 0.0
N26 N 0.32923 0.14799 0.78024 0.0
H27 H 0.25605 0.21508 0.87272 0.0
C28 C 0.42912 0.06285 0.02769 0.0
O29 O 0.40938 0.07591 0.96727 0.0
O30 O 0.19444 0.18697 1.00199 0.0
H31 H 0.31795 0.09106 0.93685 0.0
H32 H 0.32768 0.15304 0.36814 0.0
H33 H 0.35818 0.08639 0.81882 0.0
Zn34 Zn 0.15199 0.77451 0.0479 0.0
C35 C 0.1937 0.66275 0.95171 0.0
N36 N 0.23358 0.68504 0.94656 0.0
C37 C 0.22269 0.7284 0.96306 0.0
N38 N 0.17767 0.73217 0.97812 0.0
N39 N 0.15939 0.69124 0.96936 0.0
C40 C 0.04921 0.60764 1.02104 0.0
O41 O 0.03968 0.63775 0.0715 0.0
O42 O 0.18772 0.83485 0.05136 0.0
Zn43 Zn 0.0963 0.68229 0.94147 0.0
N44 N 0.15495 0.7435 0.14177 0.0
C45 C 0.11826 0.69023 0.22008 0.0
C46 C 0.12037 0.71361 0.15441 0.0
C47 C 0.1885 0.75009 0.19209 0.0
N48 N 0.15088 0.69761 0.27098 0.0
C49 C 0.18635 0.72661 0.2589 0.0
O50 O 0.0512 0.72976 0.97706 0.0
C51 C 0.04878 0.76887 1.00695 0.0
O52 O 0.08432 0.78901 0.03124 0.0
H53 H 0.09439 0.70824 0.11371 0.0
H54 H 0.21566 0.77417 0.18112 0.0
C55 C 0.05092 0.68029 0.80815 0.0
C56 C 0.04488 0.68301 0.7328 0.0
C57 C 0.12472 0.69359 0.71905 0.0
C58 C 0.13017 0.69261 0.79415 0.0
N59 N 0.09317 0.68544 0.83709 0.0
N60 N 0.08228 0.68906 0.69011 0.0
H61 H 0.02239 0.67441 0.84415 0.0
C62 C 0.17227 0.8702 1.01923 0.0
O63 O 0.13429 0.86664 0.98174 0.0
O64 O 0.07272 0.61959 0.9664 0.0
H65 H 0.16351 0.6976 0.81768 0.0
H66 H 0.09062 0.66669 0.23081 0.0
H67 H 0.15388 0.69873 0.68407 0.0
Zn68 Zn 0.68306 0.93307 0.11214 0.0
C69 C 0.72924 0.80664 0.09059 0.0
N70 N 0.68583 0.79567 0.10671 0.0
C71 C 0.66357 0.83556 0.1018 0.0
N72 N 0.69215 0.86994 0.08473 0.0
N73 N 0.73311 0.85173 0.076 0.0
C74 C 0.8711 0.85679 0.03435 0.0
O75 O 0.86773 0.89483 0.07164 0.0
O76 O 0.6204 0.95644 0.08628 0.0
Zn77 Zn 0.77529 0.87722 1.00575 0.0
N78 N 0.68586 0.93649 0.2166 0.0
C79 C 0.69297 0.90488 0.33485 0.0
C80 C 0.69247 0.89946 0.25974 0.0
C81 C 0.68094 0.97879 0.2454 0.0
N82 N 0.68857 0.94733 0.36365 0.0
C83 C 0.68315 0.98479 0.32081 0.0
O84 O 0.78979 0.94495 1.02192 0.0
C85 C 0.7697 0.98046 0.04629 0.0
O86 O 0.73068 0.978 0.07643 0.0
H87 H 0.69739 0.86609 0.23637 0.0
H88 H 0.67561 1.00742 0.2093 0.0
C89 C 0.75088 0.84056 0.86166 0.0
C90 C 0.72722 0.84251 0.79495 0.0
C91 C 0.69021 0.91014 0.83399 0.0
C92 C 0.71375 0.90822 0.89957 0.0
N93 N 0.74405 0.87398 0.91204 0.0
N94 N 0.69782 0.87766 0.78303 0.0
H95 H 0.77526 0.81365 0.87252 0.0
C96 C 0.60922 0.98157 0.03301 0.0
O97 O 0.64018 0.99302 0.98491 0.0
O98 O 0.83565 0.84143 1.00236 0.0
H99 H 0.70817 0.93407 0.94032 0.0
H100 H 0.69764 0.87567 0.36996 0.0
H101 H 0.66634 0.93752 0.82338 0.0
Zn102 Zn 0.93421 0.34603 0.94128 0.0
C103 C 0.80761 0.30068 0.96387 0.0
N104 N 0.79682 0.34406 0.94731 0.0
C105 C 0.83679 0.36623 0.95233 0.0
N106 N 0.87107 0.33762 0.96984 0.0
N107 N 0.85266 0.29675 0.97887 0.0
C108 C 0.85741 0.15826 1.0185 0.0
O109 O 0.89535 0.16174 0.981 0.0
O110 O 0.95983 0.4083 0.96468 0.0
Zn111 Zn 0.87828 0.25381 0.0481 0.0
N112 N 0.93707 0.3424 0.83689 0.0
C113 C 0.90528 0.33438 0.71888 0.0
C114 C 0.9 0.33525 0.79402 0.0
C115 C 0.97928 0.34749 0.80784 0.0
N116 N 0.94765 0.339 0.68983 0.0
C117 C 0.98514 0.34496 0.73247 0.0
O118 O 0.94581 0.23895 0.03109 0.0
C119 C 0.98129 0.25908 1.00671 0.0
O120 O 0.97884 0.29821 0.97692 0.0
H121 H 0.86672 0.33025 0.81766 0.0
H122 H 1.00795 0.35325 0.84373 0.0
C123 C 0.84181 0.27829 0.19227 0.0
C124 C 0.84448 0.30104 0.25971 0.0
C125 C 0.91413 0.33515 0.22281 0.0
C126 C 0.91153 0.31244 0.15662 0.0
N127 N 0.87585 0.28409 0.14263 0.0
N128 N 0.88096 0.32858 0.27295 0.0
H129 H 0.81387 0.25529 0.18031 0.0
C130 C 0.96786 0.42753 1.02508 0.0
O131 O 0.95662 0.4069 0.08564 0.0
O132 O 0.84221 0.19359 0.05089 0.0
H133 H 0.93801 0.31709 0.11663 0.0
H134 H 0.87603 0.32929 0.68396 0.0
H135 H 0.94261 0.3575 0.23458 0.0
Zn136 Zn 0.84678 0.59526 0.61237 0.0
C137 C 0.80116 0.72171 0.59019 0.0
N138 N 0.84456 0.73257 0.60665 0.0
C139 C 0.86678 0.69268 0.60139 0.0
N140 N 0.83822 0.65838 0.5838 0.0
N141 N 0.79729 0.67668 0.57504 0.0
C142 C 0.65886 0.67148 0.53485 0.0
O143 O 0.66235 0.63357 0.57247 0.0
O144 O 0.90909 0.56976 0.58906 0.0
Zn145 Zn 0.7544 0.65088 0.50595 0.0
N146 N 0.84318 0.59251 0.71671 0.0
C147 C 0.8344 0.62412 0.83459 0.0
C148 C 0.83559 0.62948 0.75948 0.0
C149 C 0.84854 0.55034 0.74578 0.0
N150 N 0.83916 0.58175 0.86366 0.0
C151 C 0.84564 0.54435 0.8211 0.0
O152 O 0.73952 0.58345 0.5234 0.0
C153 C 0.75972 0.54797 0.54765 0.0
O154 O 0.79898 0.55043 0.57708 0.0
H155 H 0.83046 0.66275 0.73579 0.0
H156 H 0.85476 0.52181 0.70991 0.0
C157 C 0.77904 0.68717 0.36187 0.0
C158 C 0.80174 0.68447 0.29446 0.0
C159 C 0.83557 0.61468 0.33138 0.0
C160 C 0.81289 0.61732 0.39755 0.0
N161 N 0.78472 0.65309 0.41152 0.0
N162 N 0.82912 0.64791 0.28122 0.0
H163 H 0.75616 0.71518 0.37382 0.0
C164 C 0.92796 0.56115 0.52864 0.0
O165 O 0.90689 0.57158 0.46806 0.0
O166 O 0.69421 0.68681 0.50267 0.0
H167 H 0.81744 0.59079 0.43756 0.0
H168 H 0.82892 0.65328 0.86946 0.0
H169 H 0.85778 0.58614 0.31962 0.0
Zn170 Zn 0.65182 0.27448 0.54862 0.0
C171 C 0.69354 0.16281 0.45224 0.0
N172 N 0.73341 0.18511 0.44702 0.0
C173 C 0.72253 0.22846 0.46358 0.0
N174 N 0.67751 0.23223 0.47873 0.0
N175 N 0.65924 0.19129 0.46999 0.0
C176 C 0.54792 0.10813 0.52081 0.0
O177 O 0.53703 0.13879 0.56972 0.0
O178 O 0.68756 0.3348 0.55221 0.0
Zn179 Zn 0.59616 0.1823 0.44212 0.0
N180 N 0.65483 0.24341 0.64244 0.0
C181 C 0.61833 0.19002 0.72076 0.0
C182 C 0.62036 0.21339 0.65508 0.0
C183 C 0.68835 0.25014 0.69277 0.0
N184 N 0.65093 0.19753 0.77167 0.0
C185 C 0.68629 0.22666 0.75959 0.0
O186 O 0.55107 0.22979 0.47764 0.0
C187 C 0.54863 0.26888 0.50758 0.0
O188 O 0.58414 0.28901 0.53198 0.0
H189 H 0.59442 0.20789 0.61436 0.0
H190 H 0.71543 0.27432 0.68179 0.0
C191 C 0.55086 0.18013 0.30865 0.0
C192 C 0.54488 0.18301 0.23329 0.0
C193 C 0.62469 0.19402 0.21983 0.0
C194 C 0.63006 0.19289 0.29493 0.0
N195 N 0.59306 0.18544 0.33773 0.0
N196 N 0.5823 0.18936 0.19076 0.0
H197 H 0.52234 0.174 0.34456 0.0
C198 C 0.67217 0.37014 0.52001 0.0
O199 O 0.63424 0.36658 0.48238 0.0
O200 O 0.57263 0.1196 0.46724 0.0
H201 H 0.66335 0.198 0.31857 0.0
H202 H 0.59078 0.16637 0.7315 0.0
H203 H 0.65386 0.1994 0.18496 0.0
Zn204 Zn 0.18296 0.43303 0.61184 0.0
C205 C 0.22885 0.30657 0.5898 0.0
N206 N 0.18547 0.29567 0.60617 0.0
C207 C 0.16326 0.3356 0.60138 0.0
N208 N 0.19186 0.36993 0.58413 0.0
N209 N 0.23276 0.35165 0.57515 0.0
C210 C 0.3709 0.35683 0.53413 0.0
O211 O 0.36748 0.39493 0.57123 0.0
O212 O 0.12022 0.45659 0.58702 0.0
Zn213 Zn 0.2751 0.37716 0.5051 0.0
N214 N 0.18618 0.43636 0.71627 0.0
C215 C 0.19349 0.40472 0.83448 0.0
C216 C 0.19285 0.39931 0.75936 0.0
C217 C 0.18132 0.47865 0.74511 0.0
N218 N 0.18913 0.44718 0.86332 0.0
C219 C 0.18362 0.48463 0.82051 0.0
O220 O 0.28952 0.44493 0.52121 0.0
C221 C 0.26941 0.48044 0.54551 0.0
O222 O 0.23041 0.47798 0.57574 0.0
H223 H 0.19766 0.36594 0.73594 0.0
H224 H 0.17589 0.50728 0.70905 0.0
C225 C 0.25088 0.34043 0.36083 0.0
C226 C 0.22739 0.34249 0.29398 0.0
C227 C 0.19059 0.41028 0.33282 0.0
C228 C 0.21399 0.40827 0.39851 0.0
N229 N 0.24409 0.37388 0.41117 0.0
N230 N 0.19817 0.37777 0.2819 0.0
H231 H 0.27514 0.31341 0.3718 0.0
C232 C 0.10796 0.4796 0.53196 0.0
O233 O 0.13773 0.48853 0.48074 0.0
O234 O 0.3355 0.3414 0.50209 0.0
H235 H 0.20849 0.43416 0.43919 0.0
H236 H 0.19821 0.37551 0.86955 0.0
H237 H 0.16687 0.43778 0.32207 0.0
Zn238 Zn 0.37809 0.75373 0.5474 0.0
C239 C 0.33677 0.86624 0.45131 0.0
N240 N 0.29682 0.84406 0.44596 0.0
C241 C 0.30753 0.80074 0.46296 0.0
N242 N 0.35251 0.79687 0.47848 0.0
N243 N 0.37099 0.8377 0.46942 0.0
C244 C 0.46671 0.92794 0.52488 0.0
O245 O 0.45378 0.90804 0.5852 0.0
O246 O 0.34191 0.69358 0.55013 0.0
Zn247 Zn 0.43418 0.84599 0.44096 0.0
N248 N 0.37586 0.78395 0.64199 0.0
C249 C 0.41425 0.83496 0.72211 0.0
C250 C 0.41157 0.81227 0.65591 0.0
C251 C 0.34186 0.77817 0.6917 0.0
N252 N 0.38112 0.8284 0.77232 0.0
C253 C 0.34461 0.8009 0.75913 0.0
O254 O 0.47871 0.79808 0.47661 0.0
C255 C 0.48107 0.75887 0.50616 0.0
O256 O 0.44553 0.73872 0.53028 0.0
H257 H 0.438 0.81695 0.61584 0.0
H258 H 0.31387 0.7552 0.67977 0.0
C259 C 0.47933 0.8475 0.30758 0.0
C260 C 0.48527 0.8448 0.23224 0.0
C261 C 0.40546 0.83387 0.21854 0.0
C262 C 0.40012 0.83486 0.29366 0.0
N263 N 0.43712 0.8423 0.33657 0.0
N264 N 0.44784 0.8386 0.18955 0.0
H265 H 0.50796 0.85342 0.34349 0.0
C266 C 0.35691 0.65833 0.51729 0.0
O267 O 0.39465 0.66189 0.47933 0.0
O268 O 0.45996 0.9082 0.46451 0.0
H269 H 0.36686 0.82971 0.31726 0.0
H270 H 0.44276 0.85728 0.73383 0.0
H271 H 0.37626 0.82857 0.18358 0.0
C272 C 0.32731 0.96099 0.31539 0.0
C273 C 0.34659 0.99813 0.35269 0.0
H274 H 0.30914 0.89046 0.31806 0.0
C275 C 0.36386 0.99122 0.42304 0.0
H276 H 0.31212 0.9652 0.26231 0.0
C277 C 0.36198 0.94788 0.45511 0.0
C278 C 0.34299 0.91107 0.41717 0.0
H279 H 0.37828 0.01936 0.45351 0.0
H280 H 0.37369 0.94349 0.51027 0.0
C281 C 0.32529 0.91811 0.3475 0.0
C282 C 0.99155 0.66471 0.63005 0.0
C283 C 0.99871 0.68241 0.70005 0.0
H284 H 0.94363 0.65465 0.54307 0.0
C285 C 0.96183 0.70241 0.73692 0.0
H286 H 0.01949 0.6497 0.59993 0.0
C287 C 0.91895 0.70467 0.70476 0.0
C288 C 0.91167 0.68655 0.63544 0.0
H289 H 0.96625 0.71791 0.7897 0.0
H290 H 0.89147 0.72123 0.73392 0.0
C291 C 0.94822 0.66685 0.59792 0.0
C292 C 0.66618 0.08171 0.45475 0.0
C293 C 0.68742 0.11787 0.41824 0.0
H294 H 0.64774 1.01074 0.45191 0.0
C295 C 0.70664 0.11025 0.3498 0.0
H296 H 0.6526 0.0866 0.50873 0.0
C297 C 0.70412 0.06743 0.31756 0.0
C298 C 0.6828 0.03093 0.35352 0.0
H299 H 0.72411 0.13746 0.32127 0.0
H300 H 0.7204 0.06272 0.26545 0.0
C301 C 0.66391 0.0384 0.4226 0.0
C302 C 0.06783 0.32431 0.7357 0.0
C303 C 0.03126 0.34555 0.69973 0.0
H304 H 0.13793 0.30464 0.73212 0.0
C305 C 0.03871 0.36469 0.63078 0.0
H306 H 0.06313 0.30789 0.78773 0.0
C307 C 0.08207 0.36274 0.59878 0.0
C308 C 0.1183 0.34157 0.6353 0.0
H309 H 1.011 0.38081 0.60149 0.0
H310 H 0.08696 0.37649 0.54488 0.0
C311 C 0.11068 0.3221 0.70361 0.0
C312 C 0.82671 0.4612 0.81687 0.0
C313 C 0.84648 0.4982 0.85386 0.0
H314 H 0.80825 0.39074 0.81972 0.0
C315 C 0.86424 0.49115 0.92387 0.0
H316 H 0.81118 0.46552 0.76406 0.0
C317 C 0.86237 0.44779 0.9559 0.0
C318 C 0.84288 0.41111 0.91826 0.0
H319 H 0.87906 0.51918 0.95408 0.0
H320 H 0.87454 0.44328 1.01079 0.0
C321 C 0.82471 0.4183 0.84894 0.0
C322 C 0.49193 0.16523 0.12983 0.0
C323 C 0.49876 0.18228 0.20033 0.0
H324 H 0.44439 0.15585 0.04217 0.0
C325 C 0.4616 0.2016 0.23743 0.0
H326 H 0.52007 0.15079 0.09949 0.0
C327 C 0.4188 0.20384 0.205 0.0
C328 C 0.41187 0.18637 0.13518 0.0
H329 H 0.46573 0.21664 0.2906 0.0
H330 H 0.39112 0.21995 0.23433 0.0
C331 C 0.44869 0.16739 0.09743 0.0
C332 C 0.20455 0.56728 0.81724 0.0
C333 C 0.18322 0.53078 0.8532 0.0
H334 H 0.22444 0.63734 0.82088 0.0
C335 C 0.16422 0.53828 0.9222 0.0
H336 H 0.22088 0.56255 0.76519 0.0
C337 C 0.16639 0.58162 0.95427 0.0
C338 C 0.18763 0.61779 0.91776 0.0
H339 H 0.14804 0.51062 0.9515 0.0
H340 H 0.15275 0.58654 1.00821 0.0
C341 C 0.20696 0.61013 0.8494 0.0
C342 C 0.53894 0.86454 0.1307 0.0
C343 C 0.53141 0.8454 0.19963 0.0
H344 H 0.58731 0.87642 0.04501 0.0
C345 C 0.56793 0.82416 0.23572 0.0
H346 H 0.51126 0.88065 0.10132 0.0
C347 C 0.61082 0.82196 0.20377 0.0
C348 C 0.61854 0.84146 0.13551 0.0
H349 H 0.56316 0.80775 0.28774 0.0
H350 H 0.63804 0.80451 0.23237 0.0
C351 C 0.58235 0.86263 0.09887 0.0
C352 C 0.48988 0.01672 0.08814 0.0
C353 C 0.47469 0.04097 0.027 0.0
H354 H 0.54361 0.97841 0.13741 0.0
C355 C 0.50355 0.04431 0.96645 0.0
H356 H 0.46838 1.01322 0.13554 0.0
C357 C 0.54718 0.02464 0.96779 0.0
C358 C 0.56243 1.0007 0.0293 0.0
H359 H 0.49279 0.06282 0.91859 0.0
H360 H 0.56901 0.02839 0.92085 0.0
C361 C 0.53303 0.99656 0.08908 0.0
C362 C 0.98851 0.50092 0.08795 0.0
C363 C 0.9896 0.47317 1.02586 0.0
H364 H 1.00628 0.56548 0.13519 0.0
C365 C 1.01156 0.48952 0.96336 0.0
H366 H 0.97181 0.48926 0.1369 0.0
C367 C 0.03175 0.53265 0.96267 0.0
C368 C 0.02991 0.56091 1.02414 0.0
H369 H 1.01329 0.4689 0.91471 0.0
H370 H 0.04815 0.54412 0.91333 0.0
C371 C 1.00821 0.54455 0.08693 0.0
C372 C 0.99047 0.51832 0.59074 0.0
C373 C 0.97362 0.53945 0.52779 0.0
H374 H 0.04541 0.4823 0.64093 0.0
C375 C 1.00083 0.53966 0.46512 0.0
H376 H 0.97027 0.51727 0.63985 0.0
C377 C 0.04443 0.5199 0.46595 0.0
C378 C 0.06127 0.499 0.52916 0.0
H379 H 0.98878 0.5557 0.41581 0.0
H380 H 0.06494 0.52113 0.41721 0.0
C381 C 0.03356 0.49806 0.59125 0.0
C382 C 0.50526 0.04576 0.58579 0.0
C383 C 0.52876 0.06134 0.52412 0.0
H384 H 0.46745 0.99109 0.63483 0.0
C385 C 0.53247 0.03225 0.46386 0.0
H386 H 0.50185 0.06734 0.6331 0.0
C387 C 0.51234 0.98908 0.46452 0.0
C388 C 0.48854 0.97354 0.52584 0.0
H389 H 0.55028 0.04309 0.4154 0.0
H390 H 0.51552 0.96781 0.41678 0.0
C391 C 0.48561 1.00211 0.58683 0.0
C392 C 0.26851 0.23334 0.61121 0.0
C393 C 0.26452 0.28001 0.62697 0.0
H394 H 0.28402 0.16656 0.65189 0.0
C395 C 0.2797 0.29598 0.69473 0.0
H396 H 0.25591 0.22003 0.5602 0.0
C397 C 0.29338 0.26519 0.74862 0.0
C398 C 0.29362 0.21807 0.7347 0.0
H399 H 0.27604 0.33168 0.7089 0.0
H400 H 0.30175 0.27801 0.80205 0.0
C401 C 0.2837 0.20271 0.66426 0.0
C402 C 0.2038 0.74574 0.3879 0.0
C403 C 0.21958 0.7352 0.31799 0.0
H404 H 0.2206 0.7743 0.49162 0.0
C405 C 0.26678 0.73518 0.30485 0.0
H406 H 0.16756 0.74561 0.39959 0.0
C407 C 0.2973 0.7491 0.35901 0.0
C408 C 0.28099 0.76489 0.42615 0.0
H409 H 0.27987 0.72637 0.25181 0.0
H410 H 0.33312 0.75243 0.3454 0.0
C411 C 0.23418 0.76124 0.44114 0.0
C412 C 0.76176 0.795 0.61258 0.0
C413 C 0.76548 0.74817 0.62746 0.0
H414 H 0.74609 0.86152 0.65426 0.0
C415 C 0.74989 0.73175 0.69468 0.0
H416 H 0.77466 0.80867 0.56204 0.0
C417 C 0.73605 0.76218 0.74894 0.0
C418 C 0.73593 0.80938 0.73585 0.0
H419 H 0.75326 0.69592 0.70819 0.0
H420 H 0.72735 0.74899 0.80199 0.0
C421 C 0.74632 0.82527 0.66592 0.0
C422 C 0.76372 0.29269 0.3045 0.0
C423 C 0.81086 0.29299 0.3184 0.0
H424 H 0.69724 0.27551 0.34437 0.0
C425 C 0.82626 0.28329 0.38893 0.0
H426 H 0.75086 0.30091 0.25103 0.0
C427 C 0.79566 0.26826 0.44208 0.0
C428 C 0.74897 0.26419 0.42636 0.0
H429 H 0.86243 0.28368 0.40131 0.0
H430 H 0.80903 0.25581 0.49315 0.0
C431 C 0.73296 0.27919 0.35851 0.0
C432 C 0.79334 0.76526 0.24986 0.0
C433 C 0.79378 0.71816 0.23579 0.0
H434 H 0.77591 0.83174 0.21022 0.0
C435 C 0.78414 0.70287 0.1652 0.0
H436 H 0.80148 0.77805 0.30339 0.0
C437 C 0.76905 0.73351 0.11212 0.0
C438 C 0.76485 0.78015 0.128 0.0
H439 H 0.78462 0.66673 0.15272 0.0
H440 H 0.75667 0.72023 0.06096 0.0
C441 C 0.77974 0.79608 0.19594 0.0
C442 C 0.73421 0.26128 0.9418 0.0
C443 C 0.78101 0.26498 0.92675 0.0
H444 H 0.66758 0.2456 0.90035 0.0
C445 C 0.79729 0.24931 0.85952 0.0
H446 H 0.72066 0.27426 0.99237 0.0
C447 C 0.76673 0.2354 0.80539 0.0
C448 C 0.71955 0.23532 0.81862 0.0
H449 H 0.83309 0.25269 0.84587 0.0
H450 H 0.7798 0.22664 0.75231 0.0
C451 C 0.70381 0.24579 0.88858 0.0
C452 C 0.236 0.26217 0.24775 0.0
C453 C 0.23614 0.3094 0.23484 0.0
H454 H 0.25302 0.1959 0.20688 0.0
C455 C 0.2468 0.32534 0.16505 0.0
H456 H 0.22708 0.24895 0.30068 0.0
C457 C 0.26226 0.29509 0.11171 0.0
C458 C 0.26574 0.24822 0.12645 0.0
H459 H 0.24675 0.36161 0.15352 0.0
H460 H 0.27538 0.30878 0.06133 0.0
C461 C 0.24986 0.23176 0.19347 0.0
C462 C 0.29583 0.76819 0.94153 0.0
C463 C 0.24913 0.76411 0.92583 0.0
H464 H 0.36258 0.7836 0.90074 0.0
C465 C 0.23311 0.77909 0.85798 0.0
H466 H 0.30919 0.75575 0.99261 0.0
C467 C 0.26386 0.7926 0.80396 0.0
C468 C 0.311 0.7929 0.81785 0.0
H469 H 0.19738 0.77541 0.84386 0.0
H470 H 0.25098 0.8008 0.75049 0.0
C471 C 0.32641 0.78322 0.88837 0.0
C472 C 0.25753 0.96319 0.07061 0.0
C473 C 0.23749 1.00245 0.03981 0.0
H474 H 0.25297 0.89089 0.08843 0.0
C475 C 0.19611 0.99749 1.00194 0.0
H476 H 0.28936 0.96557 0.10031 0.0
C477 C 0.1754 0.95459 0.99493 0.0
C478 C 0.19532 0.91539 1.02585 0.0
H479 H 0.17965 0.02676 0.97738 0.0
H480 H 0.1435 0.95228 0.96543 0.0
C481 C 0.23667 0.92025 0.06382 0.0
C482 C 0.96383 0.77124 0.98324 0.0
C483 C 1.00318 0.79121 1.01394 0.0
H484 H 0.89151 0.77597 0.96544 0.0
C485 C 0.99835 0.83259 0.05174 0.0
H486 H 0.96609 0.73941 0.95362 0.0
C487 C 0.95552 0.8534 0.0587 0.0
C488 C 0.91623 0.83359 0.02783 0.0
H489 H 0.0277 0.84901 0.07622 0.0
H490 H 0.95334 0.88531 0.08812 0.0
C491 C 0.92094 0.7922 0.98999 0.0
C492 C 0.77207 0.06537 0.06997 0.0
C493 C 0.79198 0.02609 0.03912 0.0
H494 H 0.77679 0.13766 0.0878 0.0
C495 C 0.83322 0.03102 1.00102 0.0
H496 H 0.74033 0.06302 0.09981 0.0
C497 C 0.85397 0.0739 0.99393 0.0
C498 C 0.83423 0.11311 1.02499 0.0
H499 H 0.84959 1.00173 0.97641 0.0
H500 H 0.88578 0.07617 0.96431 0.0
C501 C 0.79296 0.10829 0.0631 0.0
C502 C 0.06609 0.25664 0.98237 0.0
C503 C 0.02692 0.23682 1.01375 0.0
H504 H 0.13834 0.25199 0.96427 0.0
C505 C 0.03199 0.19578 0.05243 0.0
H506 H 0.06363 0.28821 0.95204 0.0
C507 C 0.07492 0.17518 0.05964 0.0
C508 C 0.11403 0.19486 0.02812 0.0
H509 H 1.00278 0.17951 0.07746 0.0
H510 H 0.07731 0.14353 0.08976 0.0
C511 C 0.10906 0.23589 0.98936 0.0
C512 C 0.7365 0.42018 0.56487 0.0
C513 C 0.69521 0.41533 0.52671 0.0
H514 H 0.78914 0.4655 0.60157 0.0
C515 C 0.67535 0.45452 0.4957 0.0
H516 H 0.75275 0.39082 0.58955 0.0
C517 C 0.69605 0.49741 0.50278 0.0
C518 C 0.73737 0.50237 0.54082 0.0
H519 H 0.6435 0.45222 0.46606 0.0
H520 H 0.67964 0.52669 0.47813 0.0
C521 C 0.75735 0.46312 0.57174 0.0
C522 C 0.45529 0.35349 0.55877 0.0
C523 C 0.41604 0.33362 0.52787 0.0
H524 H 0.52746 0.34914 0.57649 0.0
C525 C 0.42079 0.29215 0.49026 0.0
H526 H 0.45308 0.38545 0.58801 0.0
C527 C 0.46369 0.27118 0.48373 0.0
C528 C 0.50301 0.29121 0.51443 0.0
H529 H 0.39139 0.27587 0.46571 0.0
H530 H 0.46598 0.23929 0.45426 0.0
C531 C 0.49814 0.33267 0.55202 0.0
C532 C 0.33266 0.53111 0.49956 0.0
C533 C 0.29162 0.5261 0.53818 0.0
H534 H 0.38501 0.57634 0.46234 0.0
C535 C 0.27184 0.56533 0.56941 0.0
H536 H 0.34891 0.50186 0.47464 0.0
C537 C 0.29268 0.60827 0.56244 0.0
C538 C 0.33375 0.61317 0.52383 0.0
H539 H 0.24027 0.56292 0.59967 0.0
H540 H 0.27663 0.6376 0.58747 0.0
C541 C 0.35335 0.57401 0.49235 0.0
C542 C 0.57446 0.67467 0.55886 0.0
C543 C 0.61369 0.6945 0.52796 0.0
H544 H 0.50226 0.67893 0.57605 0.0
C545 C 0.60888 0.73571 0.48964 0.0
H546 H 0.57673 0.64288 0.58861 0.0
C547 C 0.56594 0.75651 0.48249 0.0
C548 C 0.52665 0.73655 0.51327 0.0
H549 H 0.63826 0.75193 0.46503 0.0
H550 H 0.5636 0.78823 0.45254 0.0
C551 C 0.53157 0.69532 0.55149 0.0
loop_
_geom_bond_atom_site_label_1
_geom_bond_atom_site_label_2
_geom_bond_distance
_geom_bond_site_symmetry_2
_ccdc_geom_bond_type
Zn0 N4 2.020 . S
Zn0 O8 2.020 . S
Zn0 N10 2.119 . S
Zn0 O18 1.985 . S
C1 N2 1.334 . S
C1 N5 1.336 . S
N2 C1 1.334 . S
N2 C3 1.334 . S
C3 N2 1.334 . S
C3 N4 1.336 . S
N4 Zn0 2.020 . S
N4 C3 1.336 . S
N4 N5 1.354 . S
N5 C1 1.336 . S
N5 N4 1.354 . S
N5 Zn9 2.020 . S
C6 O7 1.244 . S
C6 O30 1.257 . S
O7 C6 1.244 . S
O8 Zn0 2.020 . S
O8 C28 1.258 . S
Zn9 N5 2.020 . S
Zn9 O16 1.975 . S
Zn9 N25 2.119 1_554 S
Zn9 O30 2.019 . S
N10 Zn0 2.119 . S
N10 C12 1.334 . S
N10 C13 1.328 1_545 S
C11 C12 1.391 1_565 S
C11 N14 1.329 . S
C11 H32 0.930 . S
C12 N10 1.334 . S
C12 C11 1.391 1_545 S
C12 H19 0.930 . S
C13 N10 1.328 1_565 S
C13 C15 1.392 . S
C13 H20 0.930 . S
N14 C11 1.329 . S
N14 C15 1.331 . S
C15 C13 1.392 . S
C15 N14 1.331 . S
O16 Zn9 1.975 . S
O16 C17 1.252 1_554 S
C17 O16 1.252 1_556 S
C17 O18 1.249 1_556 S
O18 Zn0 1.985 . S
O18 C17 1.249 1_554 S
H19 C12 0.930 . S
H20 C13 0.930 . S
C21 C22 1.392 . S
C21 N25 1.328 . S
C21 H27 0.930 . S
C22 C21 1.392 . S
C22 N26 1.331 . S
C23 C24 1.391 . S
C23 N26 1.329 . S
C23 H33 0.930 . S
C24 C23 1.391 . S
C24 N25 1.334 . S
C24 H31 0.930 . S
N25 Zn9 2.119 1_556 S
N25 C21 1.328 . S
N25 C24 1.334 . S
N26 C22 1.331 . S
N26 C23 1.329 . S
H27 C21 0.930 . S
C28 O8 1.258 . S
C28 O29 1.244 . S
O29 C28 1.244 . S
O30 C6 1.257 . S
O30 Zn9 2.019 . S
H31 C24 0.930 . S
H32 C11 0.930 . S
H33 C23 0.930 . S
Zn34 N38 2.020 . S
Zn34 O42 2.019 . S
Zn34 N44 2.119 1_556 S
Zn34 O52 1.975 . S
C35 N36 1.334 . S
C35 N39 1.336 . S
N36 C35 1.334 . S
N36 C37 1.334 . S
C37 N36 1.334 . S
C37 N38 1.336 . S
N38 Zn34 2.020 . S
N38 C37 1.336 . S
N38 N39 1.354 . S
N39 C35 1.336 . S
N39 N38 1.354 . S
N39 Zn43 2.020 . S
C40 O41 1.244 . S
C40 O64 1.258 . S
O41 C40 1.244 . S
O42 Zn34 2.019 . S
O42 C62 1.257 . S
Zn43 N39 2.020 . S
Zn43 O50 1.985 . S
Zn43 N59 2.119 . S
Zn43 O64 2.020 . S
N44 Zn34 2.119 1_554 S
N44 C46 1.334 . S
N44 C47 1.328 . S
C45 C46 1.391 . S
C45 N48 1.329 . S
C45 H66 0.930 . S
C46 N44 1.334 . S
C46 C45 1.391 . S
C46 H53 0.930 . S
C47 N44 1.328 . S
C47 C49 1.392 . S
C47 H54 0.930 . S
N48 C45 1.329 . S
N48 C49 1.331 . S
C49 C47 1.392 . S
C49 N48 1.331 . S
O50 Zn43 1.985 . S
O50 C51 1.249 1_556 S
C51 O50 1.249 1_554 S
C51 O52 1.252 1_554 S
O52 Zn34 1.975 . S
O52 C51 1.252 1_556 S
H53 C46 0.930 . S
H54 C47 0.930 . S
C55 C56 1.392 . S
C55 N59 1.328 1_655 S
C55 H61 0.930 . S
C56 C55 1.392 . S
C56 N60 1.331 . S
C57 C58 1.391 1_655 S
C57 N60 1.329 . S
C57 H67 0.930 . S
C58 C57 1.391 1_455 S
C58 N59 1.334 . S
C58 H65 0.930 . S
N59 Zn43 2.119 . S
N59 C55 1.328 1_455 S
N59 C58 1.334 . S
N60 C56 1.331 . S
N60 C57 1.329 . S
H61 C55 0.930 . S
C62 O42 1.257 . S
C62 O63 1.244 . S
O63 C62 1.244 . S
O64 C40 1.258 . S
O64 Zn43 2.020 . S
H65 C58 0.930 . S
H66 C45 0.930 . S
H67 C57 0.930 . S
Zn68 N72 2.020 . S
Zn68 O76 2.020 . S
Zn68 N78 2.119 . S
Zn68 O86 1.985 . S
C69 N70 1.334 . S
C69 N73 1.336 . S
N70 C69 1.334 . S
N70 C71 1.334 . S
C71 N70 1.334 . S
C71 N72 1.336 . S
N72 Zn68 2.020 . S
N72 C71 1.336 . S
N72 N73 1.354 . S
N73 C69 1.336 . S
N73 N72 1.354 . S
N73 Zn77 2.020 . S
C74 O75 1.244 . S
C74 O98 1.257 . S
O75 C74 1.244 . S
O76 Zn68 2.020 . S
O76 C96 1.258 . S
Zn77 N73 2.020 . S
Zn77 O84 1.975 . S
Zn77 N93 2.119 1_554 S
Zn77 O98 2.019 . S
N78 Zn68 2.119 . S
N78 C80 1.334 . S
N78 C81 1.328 1_565 S
C79 C80 1.391 1_545 S
C79 N82 1.329 . S
C79 H100 0.930 . S
C80 N78 1.334 . S
C80 C79 1.391 1_565 S
C80 H87 0.930 . S
C81 N78 1.328 1_545 S
C81 C83 1.392 . S
C81 H88 0.930 . S
N82 C79 1.329 . S
N82 C83 1.331 . S
C83 C81 1.392 . S
C83 N82 1.331 . S
O84 Zn77 1.975 . S
O84 C85 1.252 1_554 S
C85 O84 1.252 1_556 S
C85 O86 1.249 1_556 S
O86 Zn68 1.985 . S
O86 C85 1.249 1_554 S
H87 C80 0.930 . S
H88 C81 0.930 . S
C89 C90 1.392 . S
C89 N93 1.328 . S
C89 H95 0.930 . S
C90 C89 1.392 . S
C90 N94 1.331 . S
C91 C92 1.391 . S
C91 N94 1.329 . S
C91 H101 0.930 . S
C92 C91 1.391 . S
C92 N93 1.334 . S
C92 H99 0.930 . S
N93 Zn77 2.119 1_556 S
N93 C89 1.328 . S
N93 C92 1.334 . S
N94 C90 1.331 . S
N94 C91 1.329 . S
H95 C89 0.930 . S
C96 O76 1.258 . S
C96 O97 1.244 . S
O97 C96 1.244 . S
O98 C74 1.257 . S
O98 Zn77 2.019 . S
H99 C92 0.930 . S
H100 C79 0.930 . S
H101 C91 0.930 . S
Zn102 N106 2.020 . S
Zn102 O110 2.020 . S
Zn102 N112 2.119 . S
Zn102 O120 1.985 . S
C103 N104 1.334 . S
C103 N107 1.336 . S
N104 C103 1.334 . S
N104 C105 1.334 . S
C105 N104 1.334 . S
C105 N106 1.336 . S
N106 Zn102 2.020 . S
N106 C105 1.336 . S
N106 N107 1.354 . S
N107 C103 1.336 . S
N107 N106 1.354 . S
N107 Zn111 2.020 . S
C108 O109 1.244 . S
C108 O132 1.257 . S
O109 C108 1.244 . S
O110 Zn102 2.020 . S
O110 C130 1.258 . S
Zn111 N107 2.020 . S
Zn111 O118 1.975 . S
Zn111 N127 2.119 1_556 S
Zn111 O132 2.019 . S
N112 Zn102 2.119 . S
N112 C114 1.334 . S
N112 C115 1.328 1_655 S
C113 C114 1.391 1_455 S
C113 N116 1.329 . S
C113 H134 0.930 . S
C114 N112 1.334 . S
C114 C113 1.391 1_655 S
C114 H121 0.930 . S
C115 N112 1.328 1_455 S
C115 C117 1.392 . S
C115 H122 0.930 . S
N116 C113 1.329 . S
N116 C117 1.331 . S
C117 C115 1.392 . S
C117 N116 1.331 . S
O118 Zn111 1.975 . S
O118 C119 1.252 1_556 S
C119 O118 1.252 1_554 S
C119 O120 1.249 1_554 S
O120 Zn102 1.985 . S
O120 C119 1.249 1_556 S
H121 C114 0.930 . S
H122 C115 0.930 . S
C123 C124 1.392 . S
C123 N127 1.328 . S
C123 H129 0.930 . S
C124 C123 1.392 . S
C124 N128 1.331 . S
C125 C126 1.391 . S
C125 N128 1.329 . S
C125 H135 0.930 . S
C126 C125 1.391 . S
C126 N127 1.334 . S
C126 H133 0.930 . S
N127 Zn111 2.119 1_554 S
N127 C123 1.328 . S
N127 C126 1.334 . S
N128 C124 1.331 . S
N128 C125 1.329 . S
H129 C123 0.930 . S
C130 O110 1.258 . S
C130 O131 1.244 . S
O131 C130 1.244 . S
O132 C108 1.257 . S
O132 Zn111 2.019 . S
H133 C126 0.930 . S
H134 C113 0.930 . S
H135 C125 0.930 . S
Zn136 N140 2.020 . S
Zn136 O144 2.019 . S
Zn136 N146 2.119 . S
Zn136 O154 1.975 . S
C137 N138 1.334 . S
C137 N141 1.336 . S
N138 C137 1.334 . S
N138 C139 1.334 . S
C139 N138 1.334 . S
C139 N140 1.336 . S
N140 Zn136 2.020 . S
N140 C139 1.336 . S
N140 N141 1.354 . S
N141 C137 1.336 . S
N141 N140 1.354 . S
N141 Zn145 2.020 . S
C142 O143 1.244 . S
C142 O166 1.257 . S
O143 C142 1.244 . S
O144 Zn136 2.019 . S
O144 C164 1.257 . S
Zn145 N141 2.020 . S
Zn145 O152 1.975 . S
Zn145 N161 2.119 . S
Zn145 O166 2.019 . S
N146 Zn136 2.119 . S
N146 C148 1.334 . S
N146 C149 1.328 . S
C147 C148 1.391 . S
C147 N150 1.329 . S
C147 H168 0.930 . S
C148 N146 1.334 . S
C148 C147 1.391 . S
C148 H155 0.930 . S
C149 N146 1.328 . S
C149 C151 1.392 . S
C149 H156 0.930 . S
N150 C147 1.329 . S
N150 C151 1.331 . S
C151 C149 1.392 . S
C151 N150 1.331 . S
O152 Zn145 1.975 . S
O152 C153 1.252 . S
C153 O152 1.252 . S
C153 O154 1.252 . S
O154 Zn136 1.975 . S
O154 C153 1.252 . S
H155 C148 0.930 . S
H156 C149 0.930 . S
C157 C158 1.392 . S
C157 N161 1.328 . S
C157 H163 0.930 . S
C158 C157 1.392 . S
C158 N162 1.331 . S
C159 C160 1.391 . S
C159 N162 1.329 . S
C159 H169 0.930 . S
C160 C159 1.391 . S
C160 N161 1.334 . S
C160 H167 0.930 . S
N161 Zn145 2.119 . S
N161 C157 1.328 . S
N161 C160 1.334 . S
N162 C158 1.331 . S
N162 C159 1.329 . S
H163 C157 0.930 . S
C164 O144 1.257 . S
C164 O165 1.244 . S
O165 C164 1.244 . S
O166 C142 1.257 . S
O166 Zn145 2.019 . S
H167 C160 0.930 . S
H168 C147 0.930 . S
H169 C159 0.930 . S
Zn170 N174 2.020 . S
Zn170 O178 2.019 . S
Zn170 N180 2.119 . S
Zn170 O188 1.975 . S
C171 N172 1.334 . S
C171 N175 1.336 . S
N172 C171 1.334 . S
N172 C173 1.334 . S
C173 N172 1.334 . S
C173 N174 1.336 . S
N174 Zn170 2.020 . S
N174 C173 1.336 . S
N174 N175 1.354 . S
N175 C171 1.336 . S
N175 N174 1.354 . S
N175 Zn179 2.020 . S
C176 O177 1.244 . S
C176 O200 1.257 . S
O177 C176 1.244 . S
O178 Zn170 2.019 . S
O178 C198 1.257 . S
Zn179 N175 2.020 . S
Zn179 O186 1.975 . S
Zn179 N195 2.119 . S
Zn179 O200 2.019 . S
N180 Zn170 2.119 . S
N180 C182 1.334 . S
N180 C183 1.328 . S
C181 C182 1.391 . S
C181 N184 1.329 . S
C181 H202 0.930 . S
C182 N180 1.334 . S
C182 C181 1.391 . S
C182 H189 0.930 . S
C183 N180 1.328 . S
C183 C185 1.392 . S
C183 H190 0.930 . S
N184 C181 1.329 . S
N184 C185 1.331 . S
C185 C183 1.392 . S
C185 N184 1.331 . S
O186 Zn179 1.975 . S
O186 C187 1.252 . S
C187 O186 1.252 . S
C187 O188 1.252 . S
O188 Zn170 1.975 . S
O188 C187 1.252 . S
H189 C182 0.930 . S
H190 C183 0.930 . S
C191 C192 1.392 . S
C191 N195 1.328 . S
C191 H197 0.930 . S
C192 C191 1.392 . S
C192 N196 1.331 . S
C193 C194 1.391 . S
C193 N196 1.329 . S
C193 H203 0.930 . S
C194 C193 1.391 . S
C194 N195 1.334 . S
C194 H201 0.930 . S
N195 Zn179 2.119 . S
N195 C191 1.328 . S
N195 C194 1.334 . S
N196 C192 1.331 . S
N196 C193 1.329 . S
H197 C191 0.930 . S
C198 O178 1.257 . S
C198 O199 1.244 . S
O199 C198 1.244 . S
O200 C176 1.257 . S
O200 Zn179 2.019 . S
H201 C194 0.930 . S
H202 C181 0.930 . S
H203 C193 0.930 . S
Zn204 N208 2.020 . S
Zn204 O212 2.019 . S
Zn204 N214 2.119 . S
Zn204 O222 1.975 . S
C205 N206 1.334 . S
C205 N209 1.336 . S
N206 C205 1.334 . S
N206 C207 1.334 . S
C207 N206 1.334 . S
C207 N208 1.336 . S
N208 Zn204 2.020 . S
N208 C207 1.336 . S
N208 N209 1.354 . S
N209 C205 1.336 . S
N209 N208 1.354 . S
N209 Zn213 2.020 . S
C210 O211 1.244 . S
C210 O234 1.257 . S
O211 C210 1.244 . S
O212 Zn204 2.019 . S
O212 C232 1.257 . S
Zn213 N209 2.020 . S
Zn213 O220 1.975 . S
Zn213 N229 2.119 . S
Zn213 O234 2.019 . S
N214 Zn204 2.119 . S
N214 C216 1.334 . S
N214 C217 1.328 . S
C215 C216 1.391 . S
C215 N218 1.329 . S
C215 H236 0.930 . S
C216 N214 1.334 . S
C216 C215 1.391 . S
C216 H223 0.930 . S
C217 N214 1.328 . S
C217 C219 1.392 . S
C217 H224 0.930 . S
N218 C215 1.329 . S
N218 C219 1.331 . S
C219 C217 1.392 . S
C219 N218 1.331 . S
O220 Zn213 1.975 . S
O220 C221 1.252 . S
C221 O220 1.252 . S
C221 O222 1.252 . S
O222 Zn204 1.975 . S
O222 C221 1.252 . S
H223 C216 0.930 . S
H224 C217 0.930 . S
C225 C226 1.392 . S
C225 N229 1.328 . S
C225 H231 0.930 . S
C226 C225 1.392 . S
C226 N230 1.331 . S
C227 C228 1.391 . S
C227 N230 1.329 . S
C227 H237 0.930 . S
C228 C227 1.391 . S
C228 N229 1.334 . S
C228 H235 0.930 . S
N229 Zn213 2.119 . S
N229 C225 1.328 . S
N229 C228 1.334 . S
N230 C226 1.331 . S
N230 C227 1.329 . S
H231 C225 0.930 . S
C232 O212 1.257 . S
C232 O233 1.244 . S
O233 C232 1.244 . S
O234 C210 1.257 . S
O234 Zn213 2.019 . S
H235 C228 0.930 . S
H236 C215 0.930 . S
H237 C227 0.930 . S
Zn238 N242 2.020 . S
Zn238 O246 2.019 . S
Zn238 N248 2.119 . S
Zn238 O256 1.975 . S
C239 N240 1.334 . S
C239 N243 1.336 . S
N240 C239 1.334 . S
N240 C241 1.334 . S
C241 N240 1.334 . S
C241 N242 1.336 . S
N242 Zn238 2.020 . S
N242 C241 1.336 . S
N242 N243 1.354 . S
N243 C239 1.336 . S
N243 N242 1.354 . S
N243 Zn247 2.020 . S
C244 O245 1.244 . S
C244 O268 1.257 . S
O245 C244 1.244 . S
O246 Zn238 2.019 . S
O246 C266 1.257 . S
Zn247 N243 2.020 . S
Zn247 O254 1.975 . S
Zn247 N263 2.119 . S
Zn247 O268 2.019 . S
N248 Zn238 2.119 . S
N248 C250 1.334 . S
N248 C251 1.328 . S
C249 C250 1.391 . S
C249 N252 1.329 . S
C249 H270 0.930 . S
C250 N248 1.334 . S
C250 C249 1.391 . S
C250 H257 0.930 . S
C251 N248 1.328 . S
C251 C253 1.392 . S
C251 H258 0.930 . S
N252 C249 1.329 . S
N252 C253 1.331 . S
C253 C251 1.392 . S
C253 N252 1.331 . S
O254 Zn247 1.975 . S
O254 C255 1.252 . S
C255 O254 1.252 . S
C255 O256 1.252 . S
O256 Zn238 1.975 . S
O256 C255 1.252 . S
H257 C250 0.930 . S
H258 C251 0.930 . S
C259 C260 1.392 . S
C259 N263 1.328 . S
C259 H265 0.930 . S
C260 C259 1.392 . S
C260 N264 1.331 . S
C261 C262 1.391 . S
C261 N264 1.329 . S
C261 H271 0.930 . S
C262 C261 1.391 . S
C262 N263 1.334 . S
C262 H269 0.930 . S
N263 Zn247 2.119 . S
N263 C259 1.328 . S
N263 C262 1.334 . S
N264 C260 1.331 . S
N264 C261 1.329 . S
H265 C259 0.930 . S
C266 O246 1.257 . S
C266 O267 1.244 . S
O267 C266 1.244 . S
O268 C244 1.257 . S
O268 Zn247 2.019 . S
H269 C262 0.930 . S
H270 C249 0.930 . S
H271 C261 0.930 . S
C272 C273 1.387 . S
C272 H276 0.950 . S
C272 C281 1.390 . S
C273 C272 1.387 . S
C273 C275 1.387 . S
H274 C281 0.950 . S
C275 C273 1.387 . S
C275 C277 1.390 . S
C275 H279 0.950 . S
H276 C272 0.950 . S
C277 C275 1.390 . S
C277 C278 1.387 . S
C277 H280 0.950 . S
C278 C277 1.387 . S
C278 C281 1.387 . S
H279 C275 0.950 . S
H280 C277 0.950 . S
C281 C272 1.390 . S
C281 H274 0.950 . S
C281 C278 1.387 . S
C282 C283 1.387 . S
C282 H286 0.950 . S
C282 C291 1.390 . S
C283 C282 1.387 . S
C283 C285 1.387 . S
H284 C291 0.950 . S
C285 C283 1.387 . S
C285 C287 1.390 . S
C285 H289 0.950 . S
H286 C282 0.950 . S
C287 C285 1.390 . S
C287 C288 1.387 . S
C287 H290 0.950 . S
C288 C287 1.387 . S
C288 C291 1.387 . S
H289 C285 0.950 . S
H290 C287 0.950 . S
C291 C282 1.390 . S
C291 H284 0.950 . S
C291 C288 1.387 . S
C292 C293 1.387 . S
C292 H296 0.950 . S
C292 C301 1.390 . S
C293 C292 1.387 . S
C293 C295 1.387 . S
H294 C301 0.950 . S
C295 C293 1.387 . S
C295 C297 1.390 . S
C295 H299 0.950 . S
H296 C292 0.950 . S
C297 C295 1.390 . S
C297 C298 1.387 . S
C297 H300 0.950 . S
C298 C297 1.387 . S
C298 C301 1.387 . S
H299 C295 0.950 . S
H300 C297 0.950 . S
C301 C292 1.390 . S
C301 H294 0.950 . S
C301 C298 1.387 . S
C302 C303 1.387 . S
C302 H306 0.950 . S
C302 C311 1.390 . S
C303 C302 1.387 . S
C303 C305 1.387 . S
H304 C311 0.950 . S
C305 C303 1.387 . S
C305 C307 1.390 . S
C305 H309 0.950 . S
H306 C302 0.950 . S
C307 C305 1.390 . S
C307 C308 1.387 . S
C307 H310 0.950 . S
C308 C307 1.387 . S
C308 C311 1.387 . S
H309 C305 0.950 . S
H310 C307 0.950 . S
C311 C302 1.390 . S
C311 H304 0.950 . S
C311 C308 1.387 . S
C312 C313 1.387 . S
C312 H316 0.950 . S
C312 C321 1.390 . S
C313 C312 1.387 . S
C313 C315 1.387 . S
H314 C321 0.950 . S
C315 C313 1.387 . S
C315 C317 1.390 . S
C315 H319 0.950 . S
H316 C312 0.950 . S
C317 C315 1.390 . S
C317 C318 1.387 . S
C317 H320 0.950 . S
C318 C317 1.387 . S
C318 C321 1.387 . S
H319 C315 0.950 . S
H320 C317 0.950 . S
C321 C312 1.390 . S
C321 H314 0.950 . S
C321 C318 1.387 . S
C322 C323 1.387 . S
C322 H326 0.950 . S
C322 C331 1.390 . S
C323 C322 1.387 . S
C323 C325 1.387 . S
H324 C331 0.950 . S
C325 C323 1.387 . S
C325 C327 1.390 . S
C325 H329 0.950 . S
H326 C322 0.950 . S
C327 C325 1.390 . S
C327 C328 1.387 . S
C327 H330 0.950 . S
C328 C327 1.387 . S
C328 C331 1.387 . S
H329 C325 0.950 . S
H330 C327 0.950 . S
C331 C322 1.390 . S
C331 H324 0.950 . S
C331 C328 1.387 . S
C332 C333 1.387 . S
C332 H336 0.950 . S
C332 C341 1.390 . S
C333 C332 1.387 . S
C333 C335 1.387 . S
H334 C341 0.950 . S
C335 C333 1.387 . S
C335 C337 1.390 . S
C335 H339 0.950 . S
H336 C332 0.950 . S
C337 C335 1.390 . S
C337 C338 1.387 . S
C337 H340 0.950 . S
C338 C337 1.387 . S
C338 C341 1.387 . S
H339 C335 0.950 . S
H340 C337 0.950 . S
C341 C332 1.390 . S
C341 H334 0.950 . S
C341 C338 1.387 . S
C342 C343 1.387 . S
C342 H346 0.950 . S
C342 C351 1.390 . S
C343 C342 1.387 . S
C343 C345 1.387 . S
H344 C351 0.950 . S
C345 C343 1.387 . S
C345 C347 1.390 . S
C345 H349 0.950 . S
H346 C342 0.950 . S
C347 C345 1.390 . S
C347 C348 1.387 . S
C347 H350 0.950 . S
C348 C347 1.387 . S
C348 C351 1.387 . S
H349 C345 0.950 . S
H350 C347 0.950 . S
C351 C342 1.390 . S
C351 H344 0.950 . S
C351 C348 1.387 . S
C352 C353 1.387 . S
C352 H356 0.950 . S
C352 C361 1.390 1_545 S
C353 C352 1.387 . S
C353 C355 1.387 1_554 S
H354 C361 0.950 . S
C355 C353 1.387 1_556 S
C355 C357 1.390 1_545 S
C355 H359 0.950 . S
H356 C352 0.950 . S
C357 C355 1.390 1_565 S
C357 C358 1.387 1_556 S
C357 H360 0.950 . S
C358 C357 1.387 1_554 S
C358 C361 1.387 . S
H359 C355 0.950 . S
H360 C357 0.950 . S
C361 C352 1.390 1_565 S
C361 H354 0.950 . S
C361 C358 1.387 . S
C362 C363 1.387 1_554 S
C362 H366 0.950 . S
C362 C371 1.390 1_655 S
C363 C362 1.387 1_556 S
C363 C365 1.387 . S
H364 C371 0.950 . S
C365 C363 1.387 . S
C365 C367 1.390 1_655 S
C365 H369 0.950 . S
H366 C362 0.950 . S
C367 C365 1.390 1_455 S
C367 C368 1.387 . S
C367 H370 0.950 . S
C368 C367 1.387 . S
C368 C371 1.387 1_556 S
H369 C365 0.950 . S
H370 C367 0.950 . S
C371 C362 1.390 1_455 S
C371 H364 0.950 . S
C371 C368 1.387 1_554 S
C372 C373 1.387 . S
C372 H376 0.950 . S
C372 C381 1.390 1_655 S
C373 C372 1.387 . S
C373 C375 1.387 . S
H374 C381 0.950 . S
C375 C373 1.387 . S
C375 C377 1.390 1_655 S
C375 H379 0.950 . S
H376 C372 0.950 . S
C377 C375 1.390 1_455 S
C377 C378 1.387 . S
C377 H380 0.950 . S
C378 C377 1.387 . S
C378 C381 1.387 . S
H379 C375 0.950 . S
H380 C377 0.950 . S
C381 C372 1.390 1_455 S
C381 H374 0.950 . S
C381 C378 1.387 . S
C382 C383 1.387 . S
C382 H386 0.950 . S
C382 C391 1.390 1_545 S
C383 C382 1.387 . S
C383 C385 1.387 . S
H384 C391 0.950 . S
C385 C383 1.387 . S
C385 C387 1.390 1_545 S
C385 H389 0.950 . S
H386 C382 0.950 . S
C387 C385 1.390 1_565 S
C387 C388 1.387 . S
C387 H390 0.950 . S
C388 C387 1.387 . S
C388 C391 1.387 . S
H389 C385 0.950 . S
H390 C387 0.950 . S
C391 C382 1.390 1_565 S
C391 H384 0.950 . S
C391 C388 1.387 . S
C392 C393 1.387 . S
C392 H396 0.950 . S
C392 C401 1.390 . S
C393 C392 1.387 . S
C393 C395 1.387 . S
H394 C401 0.950 . S
C395 C393 1.387 . S
C395 C397 1.390 . S
C395 H399 0.950 . S
H396 C392 0.950 . S
C397 C395 1.390 . S
C397 C398 1.387 . S
C397 H400 0.950 . S
C398 C397 1.387 . S
C398 C401 1.387 . S
H399 C395 0.950 . S
H400 C397 0.950 . S
C401 C392 1.390 . S
C401 H394 0.950 . S
C401 C398 1.387 . S
C402 C403 1.387 . S
C402 H406 0.950 . S
C402 C411 1.390 . S
C403 C402 1.387 . S
C403 C405 1.387 . S
H404 C411 0.950 . S
C405 C403 1.387 . S
C405 C407 1.390 . S
C405 H409 0.950 . S
H406 C402 0.950 . S
C407 C405 1.390 . S
C407 C408 1.387 . S
C407 H410 0.950 . S
C408 C407 1.387 . S
C408 C411 1.387 . S
H409 C405 0.950 . S
H410 C407 0.950 . S
C411 C402 1.390 . S
C411 H404 0.950 . S
C411 C408 1.387 . S
C412 C413 1.387 . S
C412 H416 0.950 . S
C412 C421 1.390 . S
C413 C412 1.387 . S
C413 C415 1.387 . S
H414 C421 0.950 . S
C415 C413 1.387 . S
C415 C417 1.390 . S
C415 H419 0.950 . S
H416 C412 0.950 . S
C417 C415 1.390 . S
C417 C418 1.387 . S
C417 H420 0.950 . S
C418 C417 1.387 . S
C418 C421 1.387 . S
H419 C415 0.950 . S
H420 C417 0.950 . S
C421 C412 1.390 . S
C421 H414 0.950 . S
C421 C418 1.387 . S
C422 C423 1.387 . S
C422 H426 0.950 . S
C422 C431 1.390 . S
C423 C422 1.387 . S
C423 C425 1.387 . S
H424 C431 0.950 . S
C425 C423 1.387 . S
C425 C427 1.390 . S
C425 H429 0.950 . S
H426 C422 0.950 . S
C427 C425 1.390 . S
C427 C428 1.387 . S
C427 H430 0.950 . S
C428 C427 1.387 . S
C428 C431 1.387 . S
H429 C425 0.950 . S
H430 C427 0.950 . S
C431 C422 1.390 . S
C431 H424 0.950 . S
C431 C428 1.387 . S
C432 C433 1.387 . S
C432 H436 0.950 . S
C432 C441 1.390 . S
C433 C432 1.387 . S
C433 C435 1.387 . S
H434 C441 0.950 . S
C435 C433 1.387 . S
C435 C437 1.390 . S
C435 H439 0.950 . S
H436 C432 0.950 . S
C437 C435 1.390 . S
C437 C438 1.387 . S
C437 H440 0.950 . S
C438 C437 1.387 . S
C438 C441 1.387 . S
H439 C435 0.950 . S
H440 C437 0.950 . S
C441 C432 1.390 . S
C441 H434 0.950 . S
C441 C438 1.387 . S
C442 C443 1.387 . S
C442 H446 0.950 . S
C442 C451 1.390 . S
C443 C442 1.387 . S
C443 C445 1.387 . S
H444 C451 0.950 . S
C445 C443 1.387 . S
C445 C447 1.390 . S
C445 H449 0.950 . S
H446 C442 0.950 . S
C447 C445 1.390 . S
C447 C448 1.387 . S
C447 H450 0.950 . S
C448 C447 1.387 . S
C448 C451 1.387 . S
H449 C445 0.950 . S
H450 C447 0.950 . S
C451 C442 1.390 . S
C451 H444 0.950 . S
C451 C448 1.387 . S
C452 C453 1.387 . S
C452 H456 0.950 . S
C452 C461 1.390 . S
C453 C452 1.387 . S
C453 C455 1.387 . S
H454 C461 0.950 . S
C455 C453 1.387 . S
C455 C457 1.390 . S
C455 H459 0.950 . S
H456 C452 0.950 . S
C457 C455 1.390 . S
C457 C458 1.387 . S
C457 H460 0.950 . S
C458 C457 1.387 . S
C458 C461 1.387 . S
H459 C455 0.950 . S
H460 C457 0.950 . S
C461 C452 1.390 . S
C461 H454 0.950 . S
C461 C458 1.387 . S
C462 C463 1.387 . S
C462 H466 0.950 . S
C462 C471 1.390 . S
C463 C462 1.387 . S
C463 C465 1.387 . S
H464 C471 0.950 . S
C465 C463 1.387 . S
C465 C467 1.390 . S
C465 H469 0.950 . S
H466 C462 0.950 . S
C467 C465 1.390 . S
C467 C468 1.387 . S
C467 H470 0.950 . S
C468 C467 1.387 . S
C468 C471 1.387 . S
H469 C465 0.950 . S
H470 C467 0.950 . S
C471 C462 1.390 . S
C471 H464 0.950 . S
C471 C468 1.387 . S
C472 C473 1.387 1_554 S
C472 H476 0.950 . S
C472 C481 1.390 . S
C473 C472 1.387 1_556 S
C473 C475 1.387 . S
H474 C481 0.950 . S
C475 C473 1.387 . S
C475 C477 1.390 . S
C475 H479 0.950 . S
H476 C472 0.950 . S
C477 C475 1.390 . S
C477 C478 1.387 . S
C477 H480 0.950 . S
C478 C477 1.387 . S
C478 C481 1.387 1_556 S
H479 C475 0.950 . S
H480 C477 0.950 . S
C481 C472 1.390 . S
C481 H474 0.950 . S
C481 C478 1.387 1_554 S
C482 C483 1.387 . S
C482 H486 0.950 1_554 S
C482 C491 1.390 . S
C483 C482 1.387 . S
C483 C485 1.387 . S
H484 C491 0.950 . S
C485 C483 1.387 . S
C485 C487 1.390 . S
C485 H489 0.950 1_655 S
H486 C482 0.950 1_556 S
C487 C485 1.390 . S
C487 C488 1.387 . S
C487 H490 0.950 . S
C488 C487 1.387 . S
C488 C491 1.387 . S
H489 C485 0.950 1_455 S
H490 C487 0.950 . S
C491 C482 1.390 . S
C491 H484 0.950 . S
C491 C488 1.387 . S
C492 C493 1.387 1_554 S
C492 H496 0.950 . S
C492 C501 1.390 . S
C493 C492 1.387 1_556 S
C493 C495 1.387 . S
H494 C501 0.950 . S
C495 C493 1.387 . S
C495 C497 1.390 . S
C495 H499 0.950 . S
H496 C492 0.950 . S
C497 C495 1.390 . S
C497 C498 1.387 . S
C497 H500 0.950 . S
C498 C497 1.387 . S
C498 C501 1.387 1_556 S
H499 C495 0.950 . S
H500 C497 0.950 . S
C501 C492 1.390 . S
C501 H494 0.950 . S
C501 C498 1.387 1_554 S
C502 C503 1.387 1_556 S
C502 H506 0.950 . S
C502 C511 1.390 . S
C503 C502 1.387 1_554 S
C503 C505 1.387 . S
H504 C511 0.950 . S
C505 C503 1.387 . S
C505 C507 1.390 . S
C505 H509 0.950 . S
H506 C502 0.950 . S
C507 C505 1.390 . S
C507 C508 1.387 . S
C507 H510 0.950 . S
C508 C507 1.387 . S
C508 C511 1.387 1_554 S
H509 C505 0.950 . S
H510 C507 0.950 . S
C511 C502 1.390 . S
C511 H504 0.950 . S
C511 C508 1.387 1_556 S
C512 C513 1.387 . S
C512 H516 0.950 . S
C512 C521 1.390 . S
C513 C512 1.387 . S
C513 C515 1.387 . S
H514 C521 0.950 . S
C515 C513 1.387 . S
C515 C517 1.390 . S
C515 H519 0.950 . S
H516 C512 0.950 . S
C517 C515 1.390 . S
C517 C518 1.387 . S
C517 H520 0.950 . S
C518 C517 1.387 . S
C518 C521 1.387 . S
H519 C515 0.950 . S
H520 C517 0.950 . S
C521 C512 1.390 . S
C521 H514 0.950 . S
C521 C518 1.387 . S
C522 C523 1.387 . S
C522 H526 0.950 . S
C522 C531 1.390 . S
C523 C522 1.387 . S
C523 C525 1.387 . S
H524 C531 0.950 . S
C525 C523 1.387 . S
C525 C527 1.390 . S
C525 H529 0.950 . S
H526 C522 0.950 . S
C527 C525 1.390 . S
C527 C528 1.387 . S
C527 H530 0.950 . S
C528 C527 1.387 . S
C528 C531 1.387 . S
H529 C525 0.950 . S
H530 C527 0.950 . S
C531 C522 1.390 . S
C531 H524 0.950 . S
C531 C528 1.387 . S
C532 C533 1.387 . S
C532 H536 0.950 . S
C532 C541 1.390 . S
C533 C532 1.387 . S
C533 C535 1.387 . S
H534 C541 0.950 . S
C535 C533 1.387 . S
C535 C537 1.390 . S
C535 H539 0.950 . S
H536 C532 0.950 . S
C537 C535 1.390 . S
C537 C538 1.387 . S
C537 H540 0.950 . S
C538 C537 1.387 . S
C538 C541 1.387 . S
H539 C535 0.950 . S
H540 C537 0.950 . S
C541 C532 1.390 . S
C541 H534 0.950 . S
C541 C538 1.387 . S
C542 C543 1.387 . S
C542 H546 0.950 . S
C542 C551 1.390 . S
C543 C542 1.387 . S
C543 C545 1.387 . S
H544 C551 0.950 . S
C545 C543 1.387 . S
C545 C547 1.390 . S
C545 H549 0.950 . S
H546 C542 0.950 . S
C547 C545 1.390 . S
C547 C548 1.387 . S
C547 H550 0.950 . S
C548 C547 1.387 . S
C548 C551 1.387 . S
H549 C545 0.950 . S
H550 C547 0.950 . S
C551 C542 1.390 . S
C551 H544 0.950 . S
C551 C548 1.387 . S
C273 C15 0.915 . S
C278 C239 0.857 . S
C283 C56 0.916 . S
C288 C139 0.858 . S
C293 C171 0.850 . S
C298 C83 0.915 . S
C303 C117 0.915 . S
C308 C207 0.853 . S
C313 C151 0.916 . S
C318 C105 0.858 . S
C323 C192 0.916 . S
C328 C3 0.858 . S
C333 C219 0.916 . S
C338 C35 0.858 . S
C343 C260 0.916 . S
C348 C71 0.857 . S
C353 C28 1.535 . S
C358 C96 1.535 . S
C363 C130 1.535 . S
C368 C40 1.535 . S
C373 C164 1.535 . S
C378 C232 1.535 . S
C383 C176 1.535 . S
C388 C244 1.535 . S
C393 C205 1.467 . S
C398 C22 1.638 . S
C403 C49 1.639 . S
C408 C241 1.471 . S
C413 C137 1.467 . S
C418 C90 1.638 . S
C423 C124 1.638 . S
C428 C173 1.467 . S
C433 C158 1.640 . S
C438 C69 1.471 . S
C443 C103 1.471 . S
C448 C185 1.639 . S
C453 C226 1.639 . S
C458 C1 1.471 . S
C463 C37 1.471 . S
C468 C253 1.639 . S
C473 C17 1.939 1_565 S
C478 C62 1.975 . S
C483 C51 1.937 1_655 S
C488 C74 1.974 . S
C493 C85 1.939 1_545 S
C498 C108 1.975 . S
C503 C119 1.938 1_455 S
C508 C6 1.973 . S
C513 C198 1.975 . S
C518 C153 1.939 . S
C523 C210 1.975 . S
C528 C187 1.938 . S
C533 C221 1.938 . S
C538 C266 1.973 . S
C543 C142 1.975 . S
C548 C255 1.939 . S
