# Generated by pormake.
# Topology wft, (7)-cn, num edge types: 1
# Building blocks:
#     Node 0, Type 0, BuildingBlock: NUHQUE_clean_sbu_2, # of connection points: 7
#     Node 1, Type 0, BuildingBlock: NUHQUE_clean_sbu_2, # of connection points: 7
#     Node 2, Type 0, BuildingBlock: NUHQUE_clean_sbu_2, # of connection points: 7
#     Node 3, Type 0, BuildingBlock: NUHQUE_clean_sbu_2, # of connection points: 7
#     Node 4, Type 0, BuildingBlock: NUHQUE_clean_sbu_2, # of connection points: 7
#     Node 5, Type 0, BuildingBlock: NUHQUE_clean_sbu_2, # of connection points: 7
#     Node 6, Type 0, BuildingBlock: NUHQUE_clean_sbu_2, # of connection points: 7
#     Node 7, Type 0, BuildingBlock: NUHQUE_clean_sbu_2, # of connection points: 7
#     Edge 8, Type (0, 0), BuildingBlock: OJICUG_clean_linker_0, # of connection points: 2
#     Edge 9, Type (0, 0), BuildingBlock: OJICUG_clean_linker_0, # of connection points: 2
#     Edge 10, Type (0, 0), BuildingBlock: OJICUG_clean_linker_0, # of connection points: 2
#     Edge 11, Type (0, 0), BuildingBlock: OJICUG_clean_linker_0, # of connection points: 2
#     Edge 12, Type (0, 0), BuildingBlock: OJICUG_clean_linker_0, # of connection points: 2
#     Edge 13, Type (0, 0), BuildingBlock: OJICUG_clean_linker_0, # of connection points: 2
#     Edge 14, Type (0, 0), BuildingBlock: OJICUG_clean_linker_0, # of connection points: 2
#     Edge 15, Type (0, 0), BuildingBlock: OJICUG_clean_linker_0, # of connection points: 2
#     Edge 16, Type (0, 0), BuildingBlock: OJICUG_clean_linker_0, # of connection points: 2
#     Edge 17, Type (0, 0), BuildingBlock: OJICUG_clean_linker_0, # of connection points: 2
#     Edge 18, Type (0, 0), BuildingBlock: OJICUG_clean_linker_0, # of connection points: 2
#     Edge 19, Type (0, 0), BuildingBlock: OJICUG_clean_linker_0, # of connection points: 2
#     Edge 20, Type (0, 0), BuildingBlock: OJICUG_clean_linker_0, # of connection points: 2
#     Edge 21, Type (0, 0), BuildingBlock: OJICUG_clean_linker_0, # of connection points: 2
#     Edge 22, Type (0, 0), BuildingBlock: OJICUG_clean_linker_0, # of connection points: 2
#     Edge 23, Type (0, 0), BuildingBlock: OJICUG_clean_linker_0, # of connection points: 2
#     Edge 24, Type (0, 0), BuildingBlock: OJICUG_clean_linker_0, # of connection points: 2
#     Edge 25, Type (0, 0), BuildingBlock: OJICUG_clean_linker_0, # of connection points: 2
#     Edge 26, Type (0, 0), BuildingBlock: OJICUG_clean_linker_0, # of connection points: 2
#     Edge 27, Type (0, 0), BuildingBlock: OJICUG_clean_linker_0, # of connection points: 2
#     Edge 28, Type (0, 0), BuildingBlock: OJICUG_clean_linker_0, # of connection points: 2
#     Edge 29, Type (0, 0), BuildingBlock: OJICUG_clean_linker_0, # of connection points: 2
#     Edge 30, Type (0, 0), BuildingBlock: OJICUG_clean_linker_0, # of connection points: 2
#     Edge 31, Type (0, 0), BuildingBlock: OJICUG_clean_linker_0, # of connection points: 2
#     Edge 32, Type (0, 0), BuildingBlock: OJICUG_clean_linker_0, # of connection points: 2
#     Edge 33, Type (0, 0), BuildingBlock: OJICUG_clean_linker_0, # of connection points: 2
#     Edge 34, Type (0, 0), BuildingBlock: OJICUG_clean_linker_0, # of connection points: 2
#     Edge 35, Type (0, 0), BuildingBlock: OJICUG_clean_linker_0, # of connection points: 2
# Relax obj value: 0.108
# Max RMSD: 0.180
# Mean RMSD: 0.180
data_MOF--net-wft--node1-NUHQUE_clean_sbu_2--edge1-OJICUG_clean_linker_0
_symmetry_space_group_name_H-M    P1
_symmetry_Int_Tables_number       1
_symmetry_cell_setting            triclinic
loop_
_symmetry_equiv_pos_as_xyz
'x, y, z'
_cell_length_a     25.928891
_cell_length_b     26.086518
_cell_length_c     26.796842
_cell_angle_alpha  91.352579
_cell_angle_beta   90.984875
_cell_angle_gamma 88.91556
loop_
_atom_site_label
_atom_site_type_symbol
_atom_site_fract_x
_atom_site_fract_y
_atom_site_fract_z
_atom_type_partial_charge
O0 O 0.33292 0.36019 0.43867 0.0
Tb1 Tb 0.36172 0.28145 0.43439 0.0
Eu2 Eu 0.34618 0.15577 0.38822 0.0
C3 C 0.28576 0.37161 0.45328 0.0
O4 O 0.25144 0.33528 0.45396 0.0
C5 C 0.29839 0.20261 0.48212 0.0
O6 O 0.38061 0.07731 0.37502 0.0
C7 C 0.26562 0.17772 0.33387 0.0
C8 C 0.40604 0.06631 0.33403 0.0
O9 O 0.40435 0.09875 0.29724 0.0
C10 C 0.43439 0.23552 0.35465 0.0
C11 C 0.23774 0.18361 0.28614 0.0
C12 C 0.18442 0.19379 0.28747 0.0
C13 C 0.15601 0.20182 0.24332 0.0
C14 C 0.18142 0.19957 0.19745 0.0
C15 C 0.23449 0.18765 0.19552 0.0
C16 C 0.26266 0.17966 0.2401 0.0
O17 O 0.2933 0.23901 0.44949 0.0
O18 O 0.32663 0.16254 0.46935 0.0
O19 O 0.40313 0.31348 0.49887 0.0
O20 O 0.41683 0.23538 0.47842 0.0
C21 C 0.4285 0.27194 0.51024 0.0
O22 O 0.42249 0.18848 0.36655 0.0
O23 O 0.40351 0.27508 0.36479 0.0
O24 O 0.27651 0.13103 0.34893 0.0
O25 O 0.30051 0.21183 0.34681 0.0
H26 H 0.16506 0.19625 0.32304 0.0
H27 H 0.15947 0.20494 0.16309 0.0
H28 H 0.30353 0.17022 0.23893 0.0
O29 O 0.34459 0.63754 0.67408 0.0
Tb30 Tb 0.26681 0.60847 0.66849 0.0
Eu31 Eu 0.14374 0.63112 0.7151 0.0
C32 C 0.35343 0.68601 0.66584 0.0
O33 O 0.31477 0.7192 0.6664 0.0
C34 C 0.18502 0.67091 0.6159 0.0
O35 O 0.06297 0.6078 0.73019 0.0
C36 C 0.17568 0.70646 0.7721 0.0
C37 C 0.05392 0.57333 0.76374 0.0
O38 O 0.09063 0.56077 0.79582 0.0
C39 C 0.22007 0.53752 0.74577 0.0
C40 C 0.18267 0.73415 0.82063 0.0
C41 C 0.19117 0.78706 0.81877 0.0
C42 C 0.19871 0.81641 0.86249 0.0
C43 C 0.19758 0.79274 0.90881 0.0
C44 C 0.18947 0.73956 0.91228 0.0
C45 C 0.18161 0.71029 0.86752 0.0
O46 O 0.2248 0.6771 0.64601 0.0
O47 O 0.14649 0.64486 0.63229 0.0
O48 O 0.30483 0.56811 0.60677 0.0
O49 O 0.22629 0.55254 0.62018 0.0
C50 C 0.26533 0.54178 0.5916 0.0
O51 O 0.17297 0.55174 0.73263 0.0
O52 O 0.25981 0.56684 0.73761 0.0
O53 O 0.12925 0.70541 0.75157 0.0
O54 O 0.20459 0.66574 0.76149 0.0
H55 H 0.19208 0.80561 0.78298 0.0
H56 H 0.20233 0.81637 0.94234 0.0
H57 H 0.17539 0.66941 0.86901 0.0
O58 O 0.63129 0.61391 0.4649 0.0
Tb59 Tb 0.59319 0.68785 0.46351 0.0
Eu60 Eu 0.63009 0.82201 0.38766 0.0
C61 C 0.67672 0.61011 0.48693 0.0
O62 O 0.69965 0.65214 0.50234 0.0
C63 C 0.66035 0.7846 0.48475 0.0
O64 O 0.58664 0.89612 0.37747 0.0
C65 C 0.68887 0.79878 0.31334 0.0
C66 C 0.56049 0.90446 0.33593 0.0
O67 O 0.56492 0.87181 0.29809 0.0
C68 C 0.53356 0.73697 0.37632 0.0
C69 C 0.73097 0.78563 0.2786 0.0
C70 C 0.78123 0.77233 0.29519 0.0
C71 C 0.81956 0.75991 0.26008 0.0
C72 C 0.80712 0.76013 0.20894 0.0
C73 C 0.75777 0.77525 0.19159 0.0
C74 C 0.71993 0.78784 0.22714 0.0
O75 O 0.64143 0.75116 0.45296 0.0
O76 O 0.66793 0.82841 0.46454 0.0
O77 O 0.57168 0.69405 0.54208 0.0
O78 O 0.51307 0.69802 0.48551 0.0
C79 C 0.52235 0.69935 0.53336 0.0
O80 O 0.5502 0.78484 0.38159 0.0
O81 O 0.56189 0.69633 0.38835 0.0
O82 O 0.67878 0.84664 0.32718 0.0
O83 O 0.66888 0.76362 0.3414 0.0
H84 H 0.79046 0.772 0.33478 0.0
H85 H 0.83681 0.74888 0.18269 0.0
H86 H 0.68177 0.80046 0.21508 0.0
O87 O 0.61583 0.32963 0.65539 0.0
Tb88 Tb 0.69436 0.35614 0.66013 0.0
Eu89 Eu 0.8183 0.34451 0.71079 0.0
C90 C 0.60495 0.28291 0.63964 0.0
O91 O 0.64238 0.24859 0.63507 0.0
C92 C 0.77926 0.2969 0.61116 0.0
O93 O 0.89006 0.38691 0.73158 0.0
C94 C 0.80156 0.26537 0.76398 0.0
C95 C 0.89558 0.43048 0.70884 0.0
O96 O 0.86282 0.44222 0.67272 0.0
C97 C 0.73004 0.43011 0.74234 0.0
C98 C 0.7954 0.23294 0.80771 0.0
C99 C 0.78796 0.18038 0.7984 0.0
C100 C 0.7819 0.14716 0.83784 0.0
C101 C 0.78207 0.16676 0.88682 0.0
C102 C 0.79182 0.21898 0.89787 0.0
C103 C 0.79808 0.25222 0.85737 0.0
O104 O 0.742 0.28967 0.64255 0.0
O105 O 0.81757 0.32489 0.62791 0.0
O106 O 0.66683 0.39707 0.5948 0.0
O107 O 0.73983 0.41591 0.62678 0.0
C108 C 0.70674 0.42593 0.59124 0.0
O109 O 0.77889 0.41962 0.73335 0.0
O110 O 0.69406 0.39656 0.73147 0.0
O111 O 0.84813 0.27793 0.75028 0.0
O112 O 0.76439 0.29772 0.75069 0.0
H113 H 0.7873 0.16518 0.76036 0.0
H114 H 0.77447 0.14036 0.91626 0.0
H115 H 0.80588 0.29244 0.86402 0.0
O116 O 0.84263 0.11883 0.15338 0.0
Tb117 Tb 0.86662 0.19805 0.15775 0.0
Eu118 Eu 0.84247 0.32467 0.20829 0.0
C119 C 0.79602 0.10662 0.13758 0.0
O120 O 0.76048 0.14287 0.1334 0.0
C121 C 0.80022 0.2785 0.10923 0.0
O122 O 0.87898 0.40024 0.22595 0.0
C123 C 0.76723 0.30208 0.26531 0.0
C124 C 0.9054 0.40706 0.26782 0.0
O125 O 0.90205 0.37341 0.30328 0.0
C126 C 0.9361 0.24429 0.23786 0.0
C127 C 0.73529 0.29278 0.30914 0.0
C128 C 0.68308 0.28183 0.30005 0.0
C129 C 0.65094 0.27049 0.33939 0.0
C130 C 0.67118 0.2697 0.38802 0.0
C131 C 0.72237 0.28438 0.3992 0.0
C132 C 0.75479 0.2951 0.35875 0.0
O133 O 0.79703 0.24145 0.1411 0.0
O134 O 0.82143 0.32086 0.1259 0.0
O135 O 0.91209 0.1703 0.09462 0.0
O136 O 0.92502 0.24523 0.12386 0.0
C137 C 0.9391 0.21129 0.09034 0.0
O138 O 0.92156 0.29129 0.22634 0.0
O139 O 0.90498 0.20547 0.22997 0.0
O140 O 0.77502 0.34919 0.25087 0.0
O141 O 0.80204 0.26774 0.25052 0.0
H142 H 0.66748 0.28174 0.26222 0.0
H143 H 0.64583 0.25813 0.4172 0.0
H144 H 0.79442 0.30603 0.36543 0.0
O145 O 0.1422 0.13523 0.97575 0.0
Tb146 Tb 0.20416 0.0785 0.9728 0.0
Eu147 Eu 0.31416 0.132 0.88573 0.0
C148 C 0.13649 0.166 1.01477 0.0
O149 O 0.17204 0.16593 1.05013 0.0
C150 C 0.2994 0.13955 0.99574 0.0
O151 O 0.39372 0.09603 0.88411 0.0
C152 C 0.29396 0.19817 0.81846 0.0
C153 C 0.40001 0.05103 0.90485 0.0
O154 O 0.3612 0.0311 0.92797 0.0
C155 C 0.23327 0.03476 0.87163 0.0
C156 C 0.28246 0.23582 0.77986 0.0
C157 C 0.26849 0.28658 0.79313 0.0
C158 C 0.257 0.32198 0.75581 0.0
C159 C 0.25823 0.30606 0.70557 0.0
C160 C 0.27409 0.25593 0.69157 0.0
C161 C 0.28627 0.22099 0.72939 0.0
O162 O 0.28447 0.09538 0.97818 0.0
O163 O 0.31645 0.17018 0.96249 0.0
O164 O 0.19009 0.05253 1.04761 0.0
O165 O 0.1962 -0.00253 0.98742 0.0
C166 C 0.19012 0.00406 1.03533 0.0
O167 O 0.28048 0.05264 0.86792 0.0
O168 O 0.1968 0.06182 0.8938 0.0
O169 O 0.34075 0.17878 0.82531 0.0
O170 O 0.25781 0.1808 0.84728 0.0
H171 H 0.26714 0.29858 0.8321 0.0
H172 H 0.24751 0.33361 0.67741 0.0
H173 H 0.29933 0.18233 0.71993 0.0
O174 O 0.14221 0.83213 0.18529 0.0
Tb175 Tb 0.11098 0.75658 0.17484 0.0
Eu176 Eu 0.12555 0.6376 0.21509 0.0
C177 C 0.18979 0.84047 0.17241 0.0
O178 O 0.22265 0.80171 0.16924 0.0
C179 C 0.16987 0.67619 0.11759 0.0
O180 O 0.0953 0.56001 0.23124 0.0
C181 C 0.20387 0.6662 0.27028 0.0
C182 C 0.06999 0.55265 0.27245 0.0
O183 O 0.07191 0.58739 0.30871 0.0
C184 C 0.03479 0.71556 0.25098 0.0
C185 C 0.23277 0.67653 0.31761 0.0
C186 C 0.28571 0.6869 0.31435 0.0
C187 C 0.31508 0.69918 0.35724 0.0
C188 C 0.29148 0.70012 0.40379 0.0
C189 C 0.23873 0.68954 0.4086 0.0
C190 C 0.20933 0.67757 0.3649 0.0
O191 O 0.17848 0.7133 0.1502 0.0
O192 O 0.14015 0.63956 0.13202 0.0
O193 O 0.07617 0.79652 0.11186 0.0
O194 O 0.05358 0.72021 0.12527 0.0
C195 C 0.04745 0.75908 0.096 0.0
O196 O 0.04698 0.66834 0.23689 0.0
O197 O 0.06604 0.7535 0.24262 0.0
O198 O 0.19746 0.61844 0.25473 0.0
O199 O 0.16629 0.69787 0.25673 0.0
H200 H 0.30397 0.68625 0.27821 0.0
H201 H 0.31521 0.70783 0.43672 0.0
H202 H 0.1686 0.66972 0.36749 0.0
O203 O 0.87569 0.83305 0.93816 0.0
Tb204 Tb 0.79681 0.8619 0.93298 0.0
Eu205 Eu 0.67027 0.8463 0.88407 0.0
C206 C 0.88635 0.78523 0.9497 0.0
O207 O 0.84965 0.75126 0.94654 0.0
C208 C 0.71669 0.7988 0.97931 0.0
O209 O 0.59286 0.88647 0.88147 0.0
C210 C 0.67872 0.7645 0.82778 0.0
C211 C 0.59029 0.93421 0.89843 0.0
O212 O 0.63207 0.9555 0.91718 0.0
C213 C 0.75452 0.93059 0.84832 0.0
C214 C 0.68223 0.73411 0.78081 0.0
C215 C 0.69022 0.6809 0.78442 0.0
C216 C 0.69219 0.64911 0.74153 0.0
C217 C 0.68754 0.67142 0.69442 0.0
C218 C 0.68041 0.7248 0.68995 0.0
C219 C 0.67696 0.7561 0.73347 0.0
O220 O 0.75462 0.79365 0.94795 0.0
O221 O 0.6767 0.82653 0.96531 0.0
O222 O 0.82815 0.90288 0.99803 0.0
O223 O 0.75054 0.91835 0.97583 0.0
C224 C 0.78673 0.92939 1.0084 0.0
O225 O 0.70631 0.9182 0.85607 0.0
O226 O 0.79393 0.90133 0.86248 0.0
O227 O 0.63393 0.78506 0.84041 0.0
O228 O 0.719 0.79041 0.84412 0.0
H229 H 0.69383 0.66396 0.82093 0.0
H230 H 0.68974 0.64718 0.66104 0.0
H231 H 0.67105 0.79717 0.73052 0.0
C232 C 0.27232 0.12758 0.13251 0.0
C233 C 0.25859 0.17796 0.14657 0.0
H234 H 0.29588 0.07635 0.07348 0.0
C235 C 0.26302 0.21725 0.11192 0.0
H236 H 0.26891 0.09672 0.15857 0.0
C237 C 0.2794 0.20579 0.06314 0.0
C238 C 0.28968 0.15466 1.04825 0.0
H239 H 0.25233 0.25639 0.12216 0.0
H240 H 0.28102 0.23625 1.03648 0.0
C241 C 0.2874 0.11601 0.08378 0.0
C242 C 0.21788 0.71928 1.05056 0.0
C243 C 0.17953 0.68507 0.06374 0.0
H244 H 0.25253 0.76133 0.99288 0.0
C245 C 0.14755 0.66441 1.02555 0.0
H246 H 0.24344 0.73561 0.07885 0.0
C247 C 0.15209 0.68 0.97581 0.0
C248 C 0.18888 0.7164 0.96314 0.0
H249 H 0.11727 0.63827 1.03445 0.0
H250 H 0.12512 0.6655 0.94785 0.0
C251 C 0.2228 0.73432 1.0011 0.0
C252 C 0.68681 0.7785 0.06511 0.0
C253 C 0.72679 0.79039 1.03299 0.0
H254 H 0.66528 0.76169 0.13957 0.0
C255 C 0.77672 0.79654 1.0529 0.0
H256 H 0.64795 0.77342 1.05059 0.0
C257 C 0.78641 0.79223 0.104 0.0
C258 C 0.74677 0.77967 0.13668 0.0
H259 H 0.80823 0.80649 1.02924 0.0
H260 H 0.82504 0.79998 0.1177 0.0
C261 C 0.69681 0.77236 0.11627 0.0
C262 C 0.81141 0.20172 0.98854 0.0
C263 C 0.79627 0.23688 0.95166 0.0
H264 H 0.82068 0.18625 0.06563 0.0
C265 C 0.78436 0.28776 0.96749 0.0
H266 H 0.82386 0.16298 0.97899 0.0
C267 C 0.78654 0.30217 1.01856 0.0
C268 C 0.79886 0.26565 0.05488 0.0
H269 H 0.77239 0.31628 0.9408 0.0
H270 H 0.77716 0.34138 1.02971 0.0
C271 C 0.81083 0.21538 1.039 0.0
C272 C 0.70253 0.29992 0.49019 0.0
C273 C 0.73955 0.28955 0.45317 0.0
H274 H 0.68533 0.30608 0.5672 0.0
C275 C 0.79155 0.28339 0.46907 0.0
H276 H 0.66258 0.30822 0.48076 0.0
C277 C 0.80529 0.28648 0.5203 0.0
C278 C 0.76716 0.29387 0.55666 0.0
H279 H 0.82158 0.27541 0.4423 0.0
H280 H 0.8454 0.2818 0.5315 0.0
C281 C 0.71578 0.29999 0.54065 0.0
C282 C 0.2939 0.27831 0.60338 0.0
C283 C 0.27975 0.24128 0.63771 0.0
H284 H 0.30918 0.29533 0.5279 0.0
C285 C 0.2717 0.19067 0.61991 0.0
H286 H 0.30251 0.31718 0.61529 0.0
C287 C 0.27797 0.17767 0.56929 0.0
C288 C 0.29078 0.21533 0.53537 0.0
H289 H 0.26013 0.16109 0.64482 0.0
H290 H 0.27204 0.13848 0.55653 0.0
C291 C 0.2983 0.26569 0.55293 0.0
C292 C 0.18258 0.65173 0.47461 0.0
C293 C 0.21658 0.68984 0.45996 0.0
H294 H 0.14535 0.61604 0.53557 0.0
C295 C 0.23429 0.72532 0.49663 0.0
H296 H 0.16836 0.62358 0.44766 0.0
C297 C 0.22224 0.72018 0.54688 0.0
C298 C 0.19072 0.68049 0.56188 0.0
H299 H 0.2593 0.75616 0.48682 0.0
H300 H 0.23877 0.74659 0.57429 0.0
C301 C 0.16952 0.6473 0.52506 0.0
C302 C 0.71791 0.73785 0.60596 0.0
C303 C 0.67734 0.74684 0.63934 0.0
H304 H 0.74445 0.74426 0.53096 0.0
C305 C 0.63258 0.77289 0.62253 0.0
H306 H 0.75297 0.71827 0.61813 0.0
C307 C 0.62757 0.78724 0.57242 0.0
C308 C 0.66718 0.77559 0.53865 0.0
H309 H 0.60065 0.77995 0.64747 0.0
H310 H 0.59195 0.8053 0.55959 0.0
C311 C 0.71303 0.75258 0.55621 0.0
C312 C 0.46468 0.00422 0.28854 0.0
C313 C 0.44351 0.02302 0.33346 0.0
H314 H 0.51838 0.95132 0.25399 0.0
C315 C 0.46135 0.00268 0.3788 0.0
H316 H 0.4518 0.01943 0.25309 0.0
C317 C 0.50016 0.96502 0.37937 0.0
C318 C 0.52127 0.94606 0.33458 0.0
H319 H 0.44624 0.01671 0.4141 0.0
H320 H 0.51312 0.95028 0.415 0.0
C321 C 0.50285 0.96552 0.28906 0.0
C322 C 0.96999 0.45654 0.76423 0.0
C323 C 0.93419 0.46806 0.72601 0.0
H324 H 0.03568 0.4815 0.80711 0.0
C325 C 0.93466 0.51668 0.70459 0.0
H326 H 0.97007 0.41962 0.78188 0.0
C327 C 0.97161 0.55224 0.7194 0.0
C328 C 0.00909 0.53992 0.75583 0.0
H329 H 0.90699 0.52713 0.67566 0.0
H330 H 0.97188 0.58872 0.70092 0.0
C331 C 0.00717 0.49221 0.77905 0.0
C332 C 0.96835 0.46127 0.22556 0.0
C333 C 0.94665 0.44524 0.27008 0.0
H334 H 0.02531 0.50621 0.19159 0.0
C335 C 0.96741 0.46298 0.31596 0.0
H336 H 0.95382 0.44757 0.18961 0.0
C337 C 0.00838 0.49728 0.31711 0.0
C338 C 0.0301 0.51305 0.27243 0.0
H339 H 0.95166 0.45075 0.35082 0.0
H340 H 0.02301 0.51147 0.35284 0.0
C341 C 0.00993 0.49431 0.22673 0.0
C342 C 0.49591 0.04636 0.89719 0.0
C343 C 0.44871 0.0215 0.90072 0.0
H344 H 0.57815 0.03783 0.89449 0.0
C345 C 0.44815 0.96763 0.90141 0.0
H346 H 0.49726 0.08782 0.89661 0.0
C347 C 0.49413 0.93903 0.89907 0.0
C348 C 0.54147 0.96391 0.89731 0.0
H349 H 0.4121 0.94754 0.90367 0.0
H350 H 0.49271 0.89758 0.90006 0.0
C351 C 0.54203 0.01778 0.89618 0.0
C352 C 0.52374 0.20286 0.33554 0.0
C353 C 0.48831 0.24445 0.3391 0.0
H354 H 0.60334 0.17876 0.33284 0.0
C355 C 0.50694 0.29448 0.33497 0.0
H356 H 0.51104 0.16374 0.33843 0.0
C357 C 0.56 0.30276 0.33112 0.0
C358 C 0.59528 0.26126 0.33129 0.0
H359 H 0.48098 0.3274 0.33762 0.0
H360 H 0.57374 0.34173 0.33108 0.0
C361 C 0.57669 0.21124 0.33216 0.0
C362 C 0.19603 0.39649 0.76266 0.0
C363 C 0.24641 0.37673 0.76743 0.0
H364 H 0.14795 0.46307 0.75372 0.0
C365 C 0.28761 0.4107 0.7726 0.0
H366 H 0.16383 0.37084 0.75787 0.0
C367 C 0.2789 0.46372 0.76935 0.0
C368 C 0.22877 0.48351 0.76088 0.0
H369 H 0.32689 0.39603 0.77554 0.0
H370 H 0.31175 0.48877 0.77039 0.0
C371 C 0.18719 0.44938 0.75996 0.0
C372 C 0.44137 0.76847 0.37504 0.0
C373 C 0.47785 0.72914 0.36484 0.0
H374 H 0.36117 0.78942 0.38094 0.0
C375 C 0.46004 0.68115 0.34745 0.0
H376 H 0.45357 0.80579 0.38874 0.0
C377 C 0.40702 0.67224 0.342 0.0
C378 C 0.37079 0.71082 0.3547 0.0
H379 H 0.48708 0.65009 0.33914 0.0
H380 H 0.39427 0.6345 0.33012 0.0
C381 C 0.38845 0.75918 0.37061 0.0
C382 C 0.74095 0.57197 0.77339 0.0
C383 C 0.69915 0.59261 0.74592 0.0
H384 H 0.78347 0.50404 0.79394 0.0
C385 C 0.66462 0.55893 0.72177 0.0
H386 H 0.76826 0.59708 0.79219 0.0
C387 C 0.67236 0.5057 0.7241 0.0
C388 C 0.71547 0.48503 0.74971 0.0
H389 H 0.63199 0.57384 0.7005 0.0
H390 H 0.6462 0.48087 0.70341 0.0
C391 C 0.74943 0.51877 0.77467 0.0
C392 C 0.01195 0.18678 0.26108 0.0
C393 C -0.00758 0.23428 0.24473 0.0
H394 H 0.07961 0.13958 0.27425 0.0
C395 C 0.0276 0.27135 0.22984 0.0
H396 H 0.98601 0.15737 0.27254 0.0
C397 C 0.08054 0.26059 0.22942 0.0
C398 C 0.09987 0.21309 0.24514 0.0
H399 H 0.01424 0.30825 0.21653 0.0
H400 H 0.10648 0.28937 0.21655 0.0
C401 C 0.06535 0.17654 0.2619 0.0
C402 C 0.17417 0.95992 0.86056 0.0
C403 C 0.22461 0.97904 0.86274 0.0
H404 H 0.12662 0.89323 0.85837 0.0
C405 C 0.26648 0.94383 0.86178 0.0
H406 H 0.14108 -0.01412 0.86123 0.0
C407 C 0.25801 0.8909 0.86078 0.0
C408 C 0.20763 0.87217 0.86004 0.0
H409 H 0.30581 0.95704 0.86389 0.0
H410 H 0.29079 0.86454 0.86166 0.0
C411 C 0.16579 0.907 0.85903 0.0
C412 C 0.90959 0.78865 0.27571 0.0
C413 C 0.87398 0.74872 0.27443 0.0
H414 H -0.01125 0.80968 0.27013 0.0
C415 C 0.89246 0.69783 0.27366 0.0
H416 H 0.89611 0.8282 0.2752 0.0
C417 C 0.94547 0.68703 0.2706 0.0
C418 C 0.98106 0.72698 0.26743 0.0
H419 H 0.86567 0.66644 0.27163 0.0
H420 H 0.95808 0.6473 0.2671 0.0
C421 C 0.96265 0.77793 0.27242 0.0
C422 C 0.81952 0.05845 0.8372 0.0
C423 C 0.77684 0.09128 0.82909 0.0
H424 H 0.84644 0.98134 0.84809 0.0
C425 C 0.72828 0.07019 0.81966 0.0
H426 H 0.85729 0.07417 0.84485 0.0
C427 C 0.72186 0.0171 0.8215 0.0
C428 C 0.76391 -0.0159 0.83312 0.0
H429 H 0.69482 0.09496 0.81375 0.0
H430 H 0.68325 0.00235 0.81689 0.0
C431 C 0.81323 0.0053 0.83888 0.0
C432 C 0.31596 0.45604 0.48759 0.0
C433 C 0.27617 0.4205 0.48118 0.0
H434 H 0.34351 0.52221 0.52769 0.0
C435 C 0.23016 0.42869 0.50764 0.0
H436 H 0.35184 0.45107 0.46778 0.0
C437 C 0.22548 0.46962 0.54215 0.0
C438 C 0.26673 0.5029 0.55078 0.0
H439 H 0.19874 0.40206 0.50363 0.0
H440 H 0.19056 0.47382 0.5636 0.0
C441 C 0.31131 0.49671 0.52212 0.0
C442 C 0.43446 0.72595 0.55962 0.0
C443 C 0.48217 0.7027 0.57134 0.0
H444 H 0.35671 0.74054 0.58185 0.0
C445 C 0.48933 0.67916 0.61761 0.0
H446 H 0.42811 0.74423 0.52408 0.0
C447 C 0.44795 0.67578 0.65023 0.0
C448 C 0.39973 0.69772 0.63769 0.0
H449 H 0.52589 0.66081 0.62721 0.0
H450 H 0.45307 0.65466 0.68434 0.0
C451 C 0.39382 0.72421 0.59287 0.0
C452 C 0.67553 0.47036 0.51587 0.0
C453 C 0.70908 0.4689 0.55736 0.0
H454 H 0.64007 0.51647 0.4597 0.0
C455 C 0.73907 0.51163 0.56986 0.0
H456 H 0.65256 0.43743 0.50531 0.0
C457 C 0.73175 0.5571 0.54395 0.0
C458 C 0.69452 0.55999 0.50526 0.0
H459 H 0.76517 0.51117 0.60188 0.0
H460 H 0.75247 0.59078 0.55665 0.0
C461 C 0.66847 0.51553 0.48981 0.0
C462 C 0.50365 0.22808 0.55179 0.0
C463 C 0.46821 0.26931 0.54993 0.0
H464 H 0.57506 0.19962 0.58262 0.0
C465 C 0.47376 0.31088 0.5836 0.0
H466 H 0.49988 0.19545 0.52632 0.0
C467 C 0.51632 0.3132 0.61599 0.0
C468 C 0.55435 0.2741 0.61504 0.0
H469 H 0.44645 0.34284 0.58333 0.0
H470 H 0.52086 0.34711 0.63966 0.0
C471 C 0.54654 0.23046 0.58414 0.0
C472 C 0.74221 0.00432 1.05013 0.0
C473 C 0.78414 0.96964 1.04776 0.0
H474 H 0.71263 0.07498 0.0814 0.0
C475 C 0.82628 0.97628 0.0807 0.0
H476 H 0.70914 -0.00024 1.02528 0.0
C477 C 0.82831 0.01903 0.1129 0.0
C478 C 0.78826 0.05606 0.11267 0.0
H479 H 0.85885 0.94965 0.08001 0.0
H480 H 0.86257 0.02437 0.136 0.0
C481 C 0.74423 0.04725 0.0824 0.0
C482 C 0.03018 0.23707 0.08255 0.0
C483 C -0.01308 0.21222 0.0621 0.0
H484 H 0.11262 0.24159 0.0833 0.0
C485 C -0.00755 0.18006 1.01986 0.0
H486 H 0.02669 0.26195 0.11531 0.0
C487 C 0.04131 0.16918 1.00094 0.0
C488 C 0.08539 0.18925 1.02497 0.0
H489 H 0.95939 0.16068 1.00353 0.0
H490 H 0.0447 0.14154 0.97031 0.0
C491 C 0.0793 0.22522 0.0644 0.0
C492 C 0.21794 0.87695 0.09344 0.0
C493 C 0.19711 0.88479 0.14111 0.0
H494 H 0.22997 0.90844 1.02167 0.0
C495 C 0.1746 0.93243 0.15411 0.0
H496 H 0.23428 0.84004 0.08212 0.0
C497 C 0.17268 0.97173 0.11966 0.0
C498 C 0.19158 0.96301 0.07141 0.0
H499 H 0.15744 0.93875 0.19037 0.0
H500 H 0.15521 0.00836 0.13024 0.0
C501 C 0.21457 0.91562 0.05859 0.0
C502 C 0.97017 0.81252 0.9882 0.0
C503 C 0.93376 0.77399 0.97925 0.0
H504 H 0.03474 0.83781 1.03239 0.0
C505 C 0.93904 0.72779 1.00511 0.0
H506 H 0.96744 0.84844 0.96877 0.0
C507 C 0.97755 0.72188 1.04183 0.0
C508 C 0.01137 0.762 1.05313 0.0
H509 H 0.91171 0.69728 0.99908 0.0
H510 H 0.97938 0.68688 0.06281 0.0
C511 C 0.00857 0.80658 1.02484 0.0
loop_
_geom_bond_atom_site_label_1
_geom_bond_atom_site_label_2
_geom_bond_distance
_geom_bond_site_symmetry_2
_ccdc_geom_bond_type
O0 Tb1 2.292 . S
O0 C3 1.255 . S
Tb1 O0 2.292 . S
Tb1 O17 2.326 . S
Tb1 O19 2.500 . S
Tb1 O20 2.473 . S
Tb1 O23 2.324 . S
Eu2 O6 2.292 . S
Eu2 C7 2.852 . S
Eu2 O18 2.324 . S
Eu2 O22 2.326 . S
Eu2 O24 2.500 . S
Eu2 O25 2.473 . S
C3 O0 1.255 . S
C3 O4 1.247 . S
O4 C3 1.247 . S
C5 O17 1.242 . S
C5 O18 1.258 . S
O6 Eu2 2.292 . S
O6 C8 1.255 . S
C7 Eu2 2.852 . S
C7 C11 1.503 . S
C7 O24 1.273 . S
C7 O25 1.257 . S
C8 O6 1.255 . S
C8 O9 1.247 . S
O9 C8 1.247 . S
C10 O22 1.242 . S
C10 O23 1.258 . S
C11 C7 1.503 . S
C11 C12 1.379 . S
C11 C16 1.392 . S
C12 C11 1.379 . S
C12 C13 1.404 . S
C12 H26 0.929 . S
C13 C12 1.404 . S
C13 C14 1.389 . S
C14 C13 1.389 . S
C14 C15 1.399 . S
C14 H27 0.931 . S
C15 C14 1.399 . S
C15 C16 1.390 . S
C16 C11 1.392 . S
C16 C15 1.390 . S
C16 H28 0.929 . S
O17 Tb1 2.326 . S
O17 C5 1.242 . S
O18 Eu2 2.324 . S
O18 C5 1.258 . S
O19 Tb1 2.500 . S
O19 C21 1.273 . S
O20 Tb1 2.473 . S
O20 C21 1.257 . S
C21 O19 1.273 . S
C21 O20 1.257 . S
O22 Eu2 2.326 . S
O22 C10 1.242 . S
O23 Tb1 2.324 . S
O23 C10 1.258 . S
O24 Eu2 2.500 . S
O24 C7 1.273 . S
O25 Eu2 2.473 . S
O25 C7 1.257 . S
H26 C12 0.929 . S
H27 C14 0.931 . S
H28 C16 0.929 . S
O29 Tb30 2.292 . S
O29 C32 1.255 . S
Tb30 O29 2.292 . S
Tb30 O46 2.326 . S
Tb30 O48 2.500 . S
Tb30 O49 2.473 . S
Tb30 O52 2.324 . S
Eu31 O35 2.292 . S
Eu31 C36 2.852 . S
Eu31 O47 2.324 . S
Eu31 O51 2.326 . S
Eu31 O53 2.500 . S
Eu31 O54 2.473 . S
C32 O29 1.255 . S
C32 O33 1.247 . S
O33 C32 1.247 . S
C34 O46 1.242 . S
C34 O47 1.258 . S
O35 Eu31 2.292 . S
O35 C37 1.255 . S
C36 Eu31 2.852 . S
C36 C40 1.503 . S
C36 O53 1.273 . S
C36 O54 1.257 . S
C37 O35 1.255 . S
C37 O38 1.247 . S
O38 C37 1.247 . S
C39 O51 1.242 . S
C39 O52 1.258 . S
C40 C36 1.503 . S
C40 C41 1.379 . S
C40 C45 1.392 . S
C41 C40 1.379 . S
C41 C42 1.404 . S
C41 H55 0.929 . S
C42 C41 1.404 . S
C42 C43 1.389 . S
C43 C42 1.389 . S
C43 C44 1.399 . S
C43 H56 0.931 . S
C44 C43 1.399 . S
C44 C45 1.390 . S
C45 C40 1.392 . S
C45 C44 1.390 . S
C45 H57 0.929 . S
O46 Tb30 2.326 . S
O46 C34 1.242 . S
O47 Eu31 2.324 . S
O47 C34 1.258 . S
O48 Tb30 2.500 . S
O48 C50 1.273 . S
O49 Tb30 2.473 . S
O49 C50 1.257 . S
C50 O48 1.273 . S
C50 O49 1.257 . S
O51 Eu31 2.326 . S
O51 C39 1.242 . S
O52 Tb30 2.324 . S
O52 C39 1.258 . S
O53 Eu31 2.500 . S
O53 C36 1.273 . S
O54 Eu31 2.473 . S
O54 C36 1.257 . S
H55 C41 0.929 . S
H56 C43 0.931 . S
H57 C45 0.929 . S
O58 Tb59 2.292 . S
O58 C61 1.255 . S
Tb59 O58 2.292 . S
Tb59 O75 2.326 . S
Tb59 O77 2.500 . S
Tb59 O78 2.473 . S
Tb59 O81 2.324 . S
Eu60 O64 2.292 . S
Eu60 C65 2.852 . S
Eu60 O76 2.324 . S
Eu60 O80 2.326 . S
Eu60 O82 2.500 . S
Eu60 O83 2.473 . S
C61 O58 1.255 . S
C61 O62 1.247 . S
O62 C61 1.247 . S
C63 O75 1.242 . S
C63 O76 1.258 . S
O64 Eu60 2.292 . S
O64 C66 1.255 . S
C65 Eu60 2.852 . S
C65 C69 1.503 . S
C65 O82 1.273 . S
C65 O83 1.257 . S
C66 O64 1.255 . S
C66 O67 1.247 . S
O67 C66 1.247 . S
C68 O80 1.242 . S
C68 O81 1.258 . S
C69 C65 1.503 . S
C69 C70 1.379 . S
C69 C74 1.392 . S
C70 C69 1.379 . S
C70 C71 1.404 . S
C70 H84 0.929 . S
C71 C70 1.404 . S
C71 C72 1.389 . S
C72 C71 1.389 . S
C72 C73 1.399 . S
C72 H85 0.931 . S
C73 C72 1.399 . S
C73 C74 1.390 . S
C74 C69 1.392 . S
C74 C73 1.390 . S
C74 H86 0.929 . S
O75 Tb59 2.326 . S
O75 C63 1.242 . S
O76 Eu60 2.324 . S
O76 C63 1.258 . S
O77 Tb59 2.500 . S
O77 C79 1.273 . S
O78 Tb59 2.473 . S
O78 C79 1.257 . S
C79 O77 1.273 . S
C79 O78 1.257 . S
O80 Eu60 2.326 . S
O80 C68 1.242 . S
O81 Tb59 2.324 . S
O81 C68 1.258 . S
O82 Eu60 2.500 . S
O82 C65 1.273 . S
O83 Eu60 2.473 . S
O83 C65 1.257 . S
H84 C70 0.929 . S
H85 C72 0.931 . S
H86 C74 0.929 . S
O87 Tb88 2.292 . S
O87 C90 1.255 . S
Tb88 O87 2.292 . S
Tb88 O104 2.326 . S
Tb88 O106 2.500 . S
Tb88 O107 2.473 . S
Tb88 O110 2.324 . S
Eu89 O93 2.292 . S
Eu89 C94 2.852 . S
Eu89 O105 2.324 . S
Eu89 O109 2.326 . S
Eu89 O111 2.500 . S
Eu89 O112 2.473 . S
C90 O87 1.255 . S
C90 O91 1.247 . S
O91 C90 1.247 . S
C92 O104 1.242 . S
C92 O105 1.258 . S
O93 Eu89 2.292 . S
O93 C95 1.255 . S
C94 Eu89 2.852 . S
C94 C98 1.503 . S
C94 O111 1.273 . S
C94 O112 1.257 . S
C95 O93 1.255 . S
C95 O96 1.247 . S
O96 C95 1.247 . S
C97 O109 1.242 . S
C97 O110 1.258 . S
C98 C94 1.503 . S
C98 C99 1.379 . S
C98 C103 1.392 . S
C99 C98 1.379 . S
C99 C100 1.404 . S
C99 H113 0.929 . S
C100 C99 1.404 . S
C100 C101 1.389 . S
C101 C100 1.389 . S
C101 C102 1.399 . S
C101 H114 0.931 . S
C102 C101 1.399 . S
C102 C103 1.390 . S
C103 C98 1.392 . S
C103 C102 1.390 . S
C103 H115 0.929 . S
O104 Tb88 2.326 . S
O104 C92 1.242 . S
O105 Eu89 2.324 . S
O105 C92 1.258 . S
O106 Tb88 2.500 . S
O106 C108 1.273 . S
O107 Tb88 2.473 . S
O107 C108 1.257 . S
C108 O106 1.273 . S
C108 O107 1.257 . S
O109 Eu89 2.326 . S
O109 C97 1.242 . S
O110 Tb88 2.324 . S
O110 C97 1.258 . S
O111 Eu89 2.500 . S
O111 C94 1.273 . S
O112 Eu89 2.473 . S
O112 C94 1.257 . S
H113 C99 0.929 . S
H114 C101 0.931 . S
H115 C103 0.929 . S
O116 Tb117 2.292 . S
O116 C119 1.255 . S
Tb117 O116 2.292 . S
Tb117 O133 2.326 . S
Tb117 O135 2.500 . S
Tb117 O136 2.473 . S
Tb117 O139 2.324 . S
Eu118 O122 2.292 . S
Eu118 C123 2.852 . S
Eu118 O134 2.324 . S
Eu118 O138 2.326 . S
Eu118 O140 2.500 . S
Eu118 O141 2.473 . S
C119 O116 1.255 . S
C119 O120 1.247 . S
O120 C119 1.247 . S
C121 O133 1.242 . S
C121 O134 1.258 . S
O122 Eu118 2.292 . S
O122 C124 1.255 . S
C123 Eu118 2.852 . S
C123 C127 1.503 . S
C123 O140 1.273 . S
C123 O141 1.257 . S
C124 O122 1.255 . S
C124 O125 1.247 1_655 S
O125 C124 1.247 1_455 S
C126 O138 1.242 . S
C126 O139 1.258 . S
C127 C123 1.503 . S
C127 C128 1.379 . S
C127 C132 1.392 . S
C128 C127 1.379 . S
C128 C129 1.404 . S
C128 H142 0.929 . S
C129 C128 1.404 . S
C129 C130 1.389 . S
C130 C129 1.389 . S
C130 C131 1.399 . S
C130 H143 0.931 . S
C131 C130 1.399 . S
C131 C132 1.390 . S
C132 C127 1.392 . S
C132 C131 1.390 . S
C132 H144 0.929 . S
O133 Tb117 2.326 . S
O133 C121 1.242 . S
O134 Eu118 2.324 . S
O134 C121 1.258 . S
O135 Tb117 2.500 . S
O135 C137 1.273 . S
O136 Tb117 2.473 . S
O136 C137 1.257 . S
C137 O135 1.273 . S
C137 O136 1.257 . S
O138 Eu118 2.326 . S
O138 C126 1.242 . S
O139 Tb117 2.324 . S
O139 C126 1.258 . S
O140 Eu118 2.500 . S
O140 C123 1.273 . S
O141 Eu118 2.473 . S
O141 C123 1.257 . S
H142 C128 0.929 . S
H143 C130 0.931 . S
H144 C132 0.929 . S
O145 Tb146 2.292 . S
O145 C148 1.255 . S
Tb146 O145 2.292 . S
Tb146 O162 2.326 . S
Tb146 O164 2.500 . S
Tb146 O165 2.473 . S
Tb146 O168 2.324 . S
Eu147 O151 2.292 . S
Eu147 C152 2.852 . S
Eu147 O163 2.324 . S
Eu147 O167 2.326 . S
Eu147 O169 2.500 . S
Eu147 O170 2.473 . S
C148 O145 1.255 . S
C148 O149 1.247 . S
O149 C148 1.247 . S
C150 O162 1.242 . S
C150 O163 1.258 . S
O151 Eu147 2.292 . S
O151 C153 1.255 . S
C152 Eu147 2.852 . S
C152 C156 1.503 . S
C152 O169 1.273 . S
C152 O170 1.257 . S
C153 O151 1.255 . S
C153 O154 1.247 1_545 S
O154 C153 1.247 1_565 S
C155 O167 1.242 . S
C155 O168 1.258 . S
C156 C152 1.503 . S
C156 C157 1.379 . S
C156 C161 1.392 . S
C157 C156 1.379 . S
C157 C158 1.404 . S
C157 H171 0.929 . S
C158 C157 1.404 . S
C158 C159 1.389 . S
C159 C158 1.389 . S
C159 C160 1.399 . S
C159 H172 0.931 . S
C160 C159 1.399 . S
C160 C161 1.390 . S
C161 C156 1.392 . S
C161 C160 1.390 . S
C161 H173 0.929 . S
O162 Tb146 2.326 . S
O162 C150 1.242 . S
O163 Eu147 2.324 . S
O163 C150 1.258 . S
O164 Tb146 2.500 . S
O164 C166 1.273 . S
O165 Tb146 2.473 . S
O165 C166 1.257 . S
C166 O164 1.273 . S
C166 O165 1.257 . S
O167 Eu147 2.326 . S
O167 C155 1.242 . S
O168 Tb146 2.324 . S
O168 C155 1.258 . S
O169 Eu147 2.500 . S
O169 C152 1.273 . S
O170 Eu147 2.473 . S
O170 C152 1.257 . S
H171 C157 0.929 . S
H172 C159 0.931 . S
H173 C161 0.929 . S
O174 Tb175 2.292 . S
O174 C177 1.255 . S
Tb175 O174 2.292 . S
Tb175 O191 2.326 . S
Tb175 O193 2.500 . S
Tb175 O194 2.473 . S
Tb175 O197 2.324 . S
Eu176 O180 2.292 . S
Eu176 C181 2.852 . S
Eu176 O192 2.324 . S
Eu176 O196 2.326 . S
Eu176 O198 2.500 . S
Eu176 O199 2.473 . S
C177 O174 1.255 . S
C177 O178 1.247 . S
O178 C177 1.247 . S
C179 O191 1.242 . S
C179 O192 1.258 . S
O180 Eu176 2.292 . S
O180 C182 1.255 . S
C181 Eu176 2.852 . S
C181 C185 1.503 . S
C181 O198 1.273 . S
C181 O199 1.257 . S
C182 O180 1.255 . S
C182 O183 1.247 1_455 S
O183 C182 1.247 1_655 S
C184 O196 1.242 . S
C184 O197 1.258 . S
C185 C181 1.503 . S
C185 C186 1.379 . S
C185 C190 1.392 . S
C186 C185 1.379 . S
C186 C187 1.404 . S
C186 H200 0.929 . S
C187 C186 1.404 . S
C187 C188 1.389 . S
C188 C187 1.389 . S
C188 C189 1.399 . S
C188 H201 0.931 . S
C189 C188 1.399 . S
C189 C190 1.390 . S
C190 C185 1.392 . S
C190 C189 1.390 . S
C190 H202 0.929 . S
O191 Tb175 2.326 . S
O191 C179 1.242 . S
O192 Eu176 2.324 . S
O192 C179 1.258 . S
O193 Tb175 2.500 . S
O193 C195 1.273 . S
O194 Tb175 2.473 . S
O194 C195 1.257 . S
C195 O193 1.273 . S
C195 O194 1.257 . S
O196 Eu176 2.326 . S
O196 C184 1.242 . S
O197 Tb175 2.324 . S
O197 C184 1.258 . S
O198 Eu176 2.500 . S
O198 C181 1.273 . S
O199 Eu176 2.473 . S
O199 C181 1.257 . S
H200 C186 0.929 . S
H201 C188 0.931 . S
H202 C190 0.929 . S
O203 Tb204 2.292 . S
O203 C206 1.255 . S
Tb204 O203 2.292 . S
Tb204 O220 2.326 . S
Tb204 O222 2.500 . S
Tb204 O223 2.473 . S
Tb204 O226 2.324 . S
Eu205 O209 2.292 . S
Eu205 C210 2.852 . S
Eu205 O221 2.324 . S
Eu205 O225 2.326 . S
Eu205 O227 2.500 . S
Eu205 O228 2.473 . S
C206 O203 1.255 . S
C206 O207 1.247 . S
O207 C206 1.247 . S
C208 O220 1.242 . S
C208 O221 1.258 . S
O209 Eu205 2.292 . S
O209 C211 1.255 . S
C210 Eu205 2.852 . S
C210 C214 1.503 . S
C210 O227 1.273 . S
C210 O228 1.257 . S
C211 O209 1.255 . S
C211 O212 1.247 1_565 S
O212 C211 1.247 1_545 S
C213 O225 1.242 . S
C213 O226 1.258 . S
C214 C210 1.503 . S
C214 C215 1.379 . S
C214 C219 1.392 . S
C215 C214 1.379 . S
C215 C216 1.404 . S
C215 H229 0.929 . S
C216 C215 1.404 . S
C216 C217 1.389 . S
C217 C216 1.389 . S
C217 C218 1.399 . S
C217 H230 0.931 . S
C218 C217 1.399 . S
C218 C219 1.390 . S
C219 C214 1.392 . S
C219 C218 1.390 . S
C219 H231 0.929 . S
O220 Tb204 2.326 . S
O220 C208 1.242 . S
O221 Eu205 2.324 . S
O221 C208 1.258 . S
O222 Tb204 2.500 . S
O222 C224 1.273 . S
O223 Tb204 2.473 . S
O223 C224 1.257 . S
C224 O222 1.273 . S
C224 O223 1.257 . S
O225 Eu205 2.326 . S
O225 C213 1.242 . S
O226 Tb204 2.324 . S
O226 C213 1.258 . S
O227 Eu205 2.500 . S
O227 C210 1.273 . S
O228 Eu205 2.473 . S
O228 C210 1.257 . S
H229 C215 0.929 . S
H230 C217 0.931 . S
H231 C219 0.929 . S
C232 C233 1.387 . S
C232 H236 0.950 . S
C232 C241 1.390 . S
C233 C232 1.387 . S
C233 C235 1.387 . S
H234 C241 0.950 . S
C235 C233 1.387 . S
C235 C237 1.390 . S
C235 H239 0.950 . S
H236 C232 0.950 . S
C237 C235 1.390 . S
C237 C238 1.387 . S
C237 H240 0.950 . S
C238 C237 1.387 . S
C238 C241 1.387 . S
H239 C235 0.950 . S
H240 C237 0.950 . S
C241 C232 1.390 . S
C241 H234 0.950 . S
C241 C238 1.387 . S
C242 C243 1.387 . S
C242 H246 0.950 . S
C242 C251 1.390 . S
C243 C242 1.387 . S
C243 C245 1.387 . S
H244 C251 0.950 . S
C245 C243 1.387 . S
C245 C247 1.390 . S
C245 H249 0.950 . S
H246 C242 0.950 . S
C247 C245 1.390 . S
C247 C248 1.387 . S
C247 H250 0.950 . S
C248 C247 1.387 . S
C248 C251 1.387 . S
H249 C245 0.950 . S
H250 C247 0.950 . S
C251 C242 1.390 . S
C251 H244 0.950 . S
C251 C248 1.387 . S
C252 C253 1.387 . S
C252 H256 0.950 . S
C252 C261 1.390 . S
C253 C252 1.387 . S
C253 C255 1.387 . S
H254 C261 0.950 . S
C255 C253 1.387 . S
C255 C257 1.390 . S
C255 H259 0.950 . S
H256 C252 0.950 . S
C257 C255 1.390 . S
C257 C258 1.387 . S
C257 H260 0.950 . S
C258 C257 1.387 . S
C258 C261 1.387 . S
H259 C255 0.950 . S
H260 C257 0.950 . S
C261 C252 1.390 . S
C261 H254 0.950 . S
C261 C258 1.387 . S
C262 C263 1.387 . S
C262 H266 0.950 . S
C262 C271 1.390 . S
C263 C262 1.387 . S
C263 C265 1.387 . S
H264 C271 0.950 . S
C265 C263 1.387 . S
C265 C267 1.390 . S
C265 H269 0.950 . S
H266 C262 0.950 . S
C267 C265 1.390 . S
C267 C268 1.387 . S
C267 H270 0.950 . S
C268 C267 1.387 . S
C268 C271 1.387 . S
H269 C265 0.950 . S
H270 C267 0.950 . S
C271 C262 1.390 . S
C271 H264 0.950 . S
C271 C268 1.387 . S
C272 C273 1.387 . S
C272 H276 0.950 . S
C272 C281 1.390 . S
C273 C272 1.387 . S
C273 C275 1.387 . S
H274 C281 0.950 . S
C275 C273 1.387 . S
C275 C277 1.390 . S
C275 H279 0.950 . S
H276 C272 0.950 . S
C277 C275 1.390 . S
C277 C278 1.387 . S
C277 H280 0.950 . S
C278 C277 1.387 . S
C278 C281 1.387 . S
H279 C275 0.950 . S
H280 C277 0.950 . S
C281 C272 1.390 . S
C281 H274 0.950 . S
C281 C278 1.387 . S
C282 C283 1.387 . S
C282 H286 0.950 . S
C282 C291 1.390 . S
C283 C282 1.387 . S
C283 C285 1.387 . S
H284 C291 0.950 . S
C285 C283 1.387 . S
C285 C287 1.390 . S
C285 H289 0.950 . S
H286 C282 0.950 . S
C287 C285 1.390 . S
C287 C288 1.387 . S
C287 H290 0.950 . S
C288 C287 1.387 . S
C288 C291 1.387 . S
H289 C285 0.950 . S
H290 C287 0.950 . S
C291 C282 1.390 . S
C291 H284 0.950 . S
C291 C288 1.387 . S
C292 C293 1.387 . S
C292 H296 0.950 . S
C292 C301 1.390 . S
C293 C292 1.387 . S
C293 C295 1.387 . S
H294 C301 0.950 . S
C295 C293 1.387 . S
C295 C297 1.390 . S
C295 H299 0.950 . S
H296 C292 0.950 . S
C297 C295 1.390 . S
C297 C298 1.387 . S
C297 H300 0.950 . S
C298 C297 1.387 . S
C298 C301 1.387 . S
H299 C295 0.950 . S
H300 C297 0.950 . S
C301 C292 1.390 . S
C301 H294 0.950 . S
C301 C298 1.387 . S
C302 C303 1.387 . S
C302 H306 0.950 . S
C302 C311 1.390 . S
C303 C302 1.387 . S
C303 C305 1.387 . S
H304 C311 0.950 . S
C305 C303 1.387 . S
C305 C307 1.390 . S
C305 H309 0.950 . S
H306 C302 0.950 . S
C307 C305 1.390 . S
C307 C308 1.387 . S
C307 H310 0.950 . S
C308 C307 1.387 . S
C308 C311 1.387 . S
H309 C305 0.950 . S
H310 C307 0.950 . S
C311 C302 1.390 . S
C311 H304 0.950 . S
C311 C308 1.387 . S
C312 C313 1.387 . S
C312 H316 0.950 . S
C312 C321 1.390 1_545 S
C313 C312 1.387 . S
C313 C315 1.387 . S
H314 C321 0.950 . S
C315 C313 1.387 . S
C315 C317 1.390 1_545 S
C315 H319 0.950 . S
H316 C312 0.950 . S
C317 C315 1.390 1_565 S
C317 C318 1.387 . S
C317 H320 0.950 . S
C318 C317 1.387 . S
C318 C321 1.387 . S
H319 C315 0.950 . S
H320 C317 0.950 . S
C321 C312 1.390 1_565 S
C321 H314 0.950 . S
C321 C318 1.387 . S
C322 C323 1.387 . S
C322 H326 0.950 . S
C322 C331 1.390 1_655 S
C323 C322 1.387 . S
C323 C325 1.387 . S
H324 C331 0.950 . S
C325 C323 1.387 . S
C325 C327 1.390 1_655 S
C325 H329 0.950 . S
H326 C322 0.950 . S
C327 C325 1.390 1_455 S
C327 C328 1.387 . S
C327 H330 0.950 . S
C328 C327 1.387 . S
C328 C331 1.387 . S
H329 C325 0.950 . S
H330 C327 0.950 . S
C331 C322 1.390 1_455 S
C331 H324 0.950 . S
C331 C328 1.387 . S
C332 C333 1.387 . S
C332 H336 0.950 . S
C332 C341 1.390 1_655 S
C333 C332 1.387 . S
C333 C335 1.387 . S
H334 C341 0.950 . S
C335 C333 1.387 . S
C335 C337 1.390 1_655 S
C335 H339 0.950 . S
H336 C332 0.950 . S
C337 C335 1.390 1_455 S
C337 C338 1.387 . S
C337 H340 0.950 . S
C338 C337 1.387 . S
C338 C341 1.387 . S
H339 C335 0.950 . S
H340 C337 0.950 . S
C341 C332 1.390 1_455 S
C341 H334 0.950 . S
C341 C338 1.387 . S
C342 C343 1.387 . S
C342 H346 0.950 . S
C342 C351 1.390 . S
C343 C342 1.387 . S
C343 C345 1.387 1_545 S
H344 C351 0.950 . S
C345 C343 1.387 1_565 S
C345 C347 1.390 . S
C345 H349 0.950 . S
H346 C342 0.950 . S
C347 C345 1.390 . S
C347 C348 1.387 . S
C347 H350 0.950 . S
C348 C347 1.387 . S
C348 C351 1.387 1_565 S
H349 C345 0.950 . S
H350 C347 0.950 . S
C351 C342 1.390 . S
C351 H344 0.950 . S
C351 C348 1.387 1_545 S
C352 C353 1.387 . S
C352 H356 0.950 . S
C352 C361 1.390 . S
C353 C352 1.387 . S
C353 C355 1.387 . S
H354 C361 0.950 . S
C355 C353 1.387 . S
C355 C357 1.390 . S
C355 H359 0.950 . S
H356 C352 0.950 . S
C357 C355 1.390 . S
C357 C358 1.387 . S
C357 H360 0.950 . S
C358 C357 1.387 . S
C358 C361 1.387 . S
H359 C355 0.950 . S
H360 C357 0.950 . S
C361 C352 1.390 . S
C361 H354 0.950 . S
C361 C358 1.387 . S
C362 C363 1.387 . S
C362 H366 0.950 . S
C362 C371 1.390 . S
C363 C362 1.387 . S
C363 C365 1.387 . S
H364 C371 0.950 . S
C365 C363 1.387 . S
C365 C367 1.390 . S
C365 H369 0.950 . S
H366 C362 0.950 . S
C367 C365 1.390 . S
C367 C368 1.387 . S
C367 H370 0.950 . S
C368 C367 1.387 . S
C368 C371 1.387 . S
H369 C365 0.950 . S
H370 C367 0.950 . S
C371 C362 1.390 . S
C371 H364 0.950 . S
C371 C368 1.387 . S
C372 C373 1.387 . S
C372 H376 0.950 . S
C372 C381 1.390 . S
C373 C372 1.387 . S
C373 C375 1.387 . S
H374 C381 0.950 . S
C375 C373 1.387 . S
C375 C377 1.390 . S
C375 H379 0.950 . S
H376 C372 0.950 . S
C377 C375 1.390 . S
C377 C378 1.387 . S
C377 H380 0.950 . S
C378 C377 1.387 . S
C378 C381 1.387 . S
H379 C375 0.950 . S
H380 C377 0.950 . S
C381 C372 1.390 . S
C381 H374 0.950 . S
C381 C378 1.387 . S
C382 C383 1.387 . S
C382 H386 0.950 . S
C382 C391 1.390 . S
C383 C382 1.387 . S
C383 C385 1.387 . S
H384 C391 0.950 . S
C385 C383 1.387 . S
C385 C387 1.390 . S
C385 H389 0.950 . S
H386 C382 0.950 . S
C387 C385 1.390 . S
C387 C388 1.387 . S
C387 H390 0.950 . S
C388 C387 1.387 . S
C388 C391 1.387 . S
H389 C385 0.950 . S
H390 C387 0.950 . S
C391 C382 1.390 . S
C391 H384 0.950 . S
C391 C388 1.387 . S
C392 C393 1.387 . S
C392 H396 0.950 . S
C392 C401 1.390 . S
C393 C392 1.387 . S
C393 C395 1.387 . S
H394 C401 0.950 . S
C395 C393 1.387 . S
C395 C397 1.390 . S
C395 H399 0.950 . S
H396 C392 0.950 . S
C397 C395 1.390 . S
C397 C398 1.387 . S
C397 H400 0.950 . S
C398 C397 1.387 . S
C398 C401 1.387 . S
H399 C395 0.950 . S
H400 C397 0.950 . S
C401 C392 1.390 . S
C401 H394 0.950 . S
C401 C398 1.387 . S
C402 C403 1.387 . S
C402 H406 0.950 . S
C402 C411 1.390 . S
C403 C402 1.387 . S
C403 C405 1.387 . S
H404 C411 0.950 . S
C405 C403 1.387 . S
C405 C407 1.390 . S
C405 H409 0.950 . S
H406 C402 0.950 . S
C407 C405 1.390 . S
C407 C408 1.387 . S
C407 H410 0.950 . S
C408 C407 1.387 . S
C408 C411 1.387 . S
H409 C405 0.950 . S
H410 C407 0.950 . S
C411 C402 1.390 . S
C411 H404 0.950 . S
C411 C408 1.387 . S
C412 C413 1.387 . S
C412 H416 0.950 . S
C412 C421 1.390 . S
C413 C412 1.387 . S
C413 C415 1.387 . S
H414 C421 0.950 . S
C415 C413 1.387 . S
C415 C417 1.390 . S
C415 H419 0.950 . S
H416 C412 0.950 . S
C417 C415 1.390 . S
C417 C418 1.387 . S
C417 H420 0.950 . S
C418 C417 1.387 . S
C418 C421 1.387 . S
H419 C415 0.950 . S
H420 C417 0.950 . S
C421 C412 1.390 . S
C421 H414 0.950 . S
C421 C418 1.387 . S
C422 C423 1.387 . S
C422 H426 0.950 . S
C422 C431 1.390 . S
C423 C422 1.387 . S
C423 C425 1.387 . S
H424 C431 0.950 . S
C425 C423 1.387 . S
C425 C427 1.390 . S
C425 H429 0.950 . S
H426 C422 0.950 . S
C427 C425 1.390 . S
C427 C428 1.387 . S
C427 H430 0.950 . S
C428 C427 1.387 . S
C428 C431 1.387 . S
H429 C425 0.950 . S
H430 C427 0.950 . S
C431 C422 1.390 . S
C431 H424 0.950 . S
C431 C428 1.387 . S
C432 C433 1.387 . S
C432 H436 0.950 . S
C432 C441 1.390 . S
C433 C432 1.387 . S
C433 C435 1.387 . S
H434 C441 0.950 . S
C435 C433 1.387 . S
C435 C437 1.390 . S
C435 H439 0.950 . S
H436 C432 0.950 . S
C437 C435 1.390 . S
C437 C438 1.387 . S
C437 H440 0.950 . S
C438 C437 1.387 . S
C438 C441 1.387 . S
H439 C435 0.950 . S
H440 C437 0.950 . S
C441 C432 1.390 . S
C441 H434 0.950 . S
C441 C438 1.387 . S
C442 C443 1.387 . S
C442 H446 0.950 . S
C442 C451 1.390 . S
C443 C442 1.387 . S
C443 C445 1.387 . S
H444 C451 0.950 . S
C445 C443 1.387 . S
C445 C447 1.390 . S
C445 H449 0.950 . S
H446 C442 0.950 . S
C447 C445 1.390 . S
C447 C448 1.387 . S
C447 H450 0.950 . S
C448 C447 1.387 . S
C448 C451 1.387 . S
H449 C445 0.950 . S
H450 C447 0.950 . S
C451 C442 1.390 . S
C451 H444 0.950 . S
C451 C448 1.387 . S
C452 C453 1.387 . S
C452 H456 0.950 . S
C452 C461 1.390 . S
C453 C452 1.387 . S
C453 C455 1.387 . S
H454 C461 0.950 . S
C455 C453 1.387 . S
C455 C457 1.390 . S
C455 H459 0.950 . S
H456 C452 0.950 . S
C457 C455 1.390 . S
C457 C458 1.387 . S
C457 H460 0.950 . S
C458 C457 1.387 . S
C458 C461 1.387 . S
H459 C455 0.950 . S
H460 C457 0.950 . S
C461 C452 1.390 . S
C461 H454 0.950 . S
C461 C458 1.387 . S
C462 C463 1.387 . S
C462 H466 0.950 . S
C462 C471 1.390 . S
C463 C462 1.387 . S
C463 C465 1.387 . S
H464 C471 0.950 . S
C465 C463 1.387 . S
C465 C467 1.390 . S
C465 H469 0.950 . S
H466 C462 0.950 . S
C467 C465 1.390 . S
C467 C468 1.387 . S
C467 H470 0.950 . S
C468 C467 1.387 . S
C468 C471 1.387 . S
H469 C465 0.950 . S
H470 C467 0.950 . S
C471 C462 1.390 . S
C471 H464 0.950 . S
C471 C468 1.387 . S
C472 C473 1.391 1_545 S
C472 H476 0.953 1_545 S
C472 C481 1.383 1_556 S
C473 C472 1.391 1_565 S
C473 C475 1.391 1_565 S
H474 C481 0.950 . S
C475 C473 1.391 1_545 S
C475 C477 1.383 1_556 S
C475 H479 0.953 . S
H476 C472 0.953 1_565 S
C477 C475 1.383 1_554 S
C477 C478 1.387 . S
C477 H480 0.950 . S
C478 C477 1.387 . S
C478 C481 1.387 . S
H479 C475 0.953 . S
H480 C477 0.950 . S
C481 C472 1.383 1_554 S
C481 H474 0.950 . S
C481 C478 1.387 . S
C482 C483 1.387 1_455 S
C482 H486 0.950 1_455 S
C482 C491 1.390 1_554 S
C483 C482 1.387 1_655 S
C483 C485 1.387 1_654 S
H484 C491 0.950 . S
C485 C483 1.387 1_456 S
C485 C487 1.390 . S
C485 H489 0.950 1_556 S
H486 C482 0.950 1_655 S
C487 C485 1.390 . S
C487 C488 1.387 . S
C487 H490 0.950 . S
C488 C487 1.387 . S
C488 C491 1.387 . S
H489 C485 0.950 1_554 S
H490 C487 0.950 . S
C491 C482 1.390 1_556 S
C491 H484 0.950 . S
C491 C488 1.387 . S
C492 C493 1.387 . S
C492 H496 0.950 1_554 S
C492 C501 1.390 1_554 S
C493 C492 1.387 . S
C493 C495 1.387 . S
H494 C501 0.950 . S
C495 C493 1.387 . S
C495 C497 1.390 1_565 S
C495 H499 0.950 . S
H496 C492 0.950 1_556 S
C497 C495 1.390 1_545 S
C497 C498 1.387 1_554 S
C497 H500 0.950 . S
C498 C497 1.387 1_556 S
C498 C501 1.387 1_545 S
H499 C495 0.950 . S
H500 C497 0.950 . S
C501 C492 1.390 1_556 S
C501 H494 0.950 . S
C501 C498 1.387 1_565 S
C502 C503 1.387 . S
C502 H506 0.950 . S
C502 C511 1.383 1_556 S
C503 C502 1.387 . S
C503 C505 1.387 . S
H504 C511 0.953 . S
C505 C503 1.387 . S
C505 C507 1.383 1_556 S
C505 H509 0.950 . S
H506 C502 0.950 . S
C507 C505 1.383 1_554 S
C507 C508 1.391 1_655 S
C507 H510 0.953 1_655 S
C508 C507 1.391 1_455 S
C508 C511 1.391 1_455 S
H509 C505 0.950 . S
H510 C507 0.953 1_455 S
C511 C502 1.383 1_554 S
C511 H504 0.953 . S
C511 C508 1.391 1_655 S
C233 C15 2.108 . S
C238 C150 2.085 1_554 S
C243 C179 2.085 1_556 S
C248 C44 2.107 . S
C253 C208 2.084 1_554 S
C258 C73 2.107 . S
C263 C102 2.107 . S
C268 C121 2.084 1_556 S
C273 C131 2.109 . S
C278 C92 2.086 . S
C283 C160 2.107 . S
C288 C5 2.084 . S
C293 C189 2.108 . S
C298 C34 2.085 . S
C303 C218 2.108 . S
C308 C63 2.085 . S
C313 C8 1.220 . S
C318 C66 1.220 . S
C323 C95 1.221 . S
C328 C37 1.221 . S
C333 C124 1.221 . S
C338 C182 1.221 . S
C343 C153 1.223 . S
C348 C211 1.218 . S
C353 C10 2.142 . S
C358 C129 2.016 . S
C363 C158 2.012 . S
C368 C39 2.143 . S
C373 C68 2.143 . S
C378 C187 2.016 . S
C383 C216 2.014 . S
C388 C97 2.144 . S
C393 C126 2.143 1_455 S
C398 C13 2.012 . S
C403 C155 2.143 1_565 S
C408 C42 2.016 . S
C413 C71 2.012 . S
C418 C184 2.143 1_655 S
C423 C100 2.016 . S
C428 C213 2.143 1_545 S
C433 C3 1.020 . S
C438 C50 1.033 . S
C443 C79 1.033 . S
C448 C32 1.018 . S
C453 C108 1.032 . S
C458 C61 1.020 . S
C463 C21 1.032 . S
C468 C90 1.021 . S
C473 C224 1.031 . S
C478 C119 1.020 . S
C483 C137 1.032 . S
C488 C148 1.020 . S
C493 C177 1.022 . S
C498 C166 1.031 . S
C503 C206 1.020 . S
C508 C195 1.031 . S
