# Generated by pormake.
# Topology zfb, (5)-cn, num edge types: 1
# Building blocks:
#     Node 0, Type 0, BuildingBlock: BEQFEK_clean_sbu_0, # of connection points: 5
#     Node 1, Type 0, BuildingBlock: BEQFEK_clean_sbu_0, # of connection points: 5
#     Node 2, Type 0, BuildingBlock: BEQFEK_clean_sbu_0, # of connection points: 5
#     Node 3, Type 0, BuildingBlock: BEQFEK_clean_sbu_0, # of connection points: 5
#     Node 4, Type 0, BuildingBlock: BEQFEK_clean_sbu_0, # of connection points: 5
#     Node 5, Type 0, BuildingBlock: BEQFEK_clean_sbu_0, # of connection points: 5
#     Node 6, Type 0, BuildingBlock: BEQFEK_clean_sbu_0, # of connection points: 5
#     Node 7, Type 0, BuildingBlock: BEQFEK_clean_sbu_0, # of connection points: 5
#     Edge 8, Type (0, 0), BuildingBlock: MIFKUJ_clean_linker_0, # of connection points: 2
#     Edge 9, Type (0, 0), BuildingBlock: MIFKUJ_clean_linker_0, # of connection points: 2
#     Edge 10, Type (0, 0), BuildingBlock: MIFKUJ_clean_linker_0, # of connection points: 2
#     Edge 11, Type (0, 0), BuildingBlock: MIFKUJ_clean_linker_0, # of connection points: 2
#     Edge 12, Type (0, 0), BuildingBlock: MIFKUJ_clean_linker_0, # of connection points: 2
#     Edge 13, Type (0, 0), BuildingBlock: MIFKUJ_clean_linker_0, # of connection points: 2
#     Edge 14, Type (0, 0), BuildingBlock: MIFKUJ_clean_linker_0, # of connection points: 2
#     Edge 15, Type (0, 0), BuildingBlock: MIFKUJ_clean_linker_0, # of connection points: 2
#     Edge 16, Type (0, 0), BuildingBlock: MIFKUJ_clean_linker_0, # of connection points: 2
#     Edge 17, Type (0, 0), BuildingBlock: MIFKUJ_clean_linker_0, # of connection points: 2
#     Edge 18, Type (0, 0), BuildingBlock: MIFKUJ_clean_linker_0, # of connection points: 2
#     Edge 19, Type (0, 0), BuildingBlock: MIFKUJ_clean_linker_0, # of connection points: 2
#     Edge 20, Type (0, 0), BuildingBlock: MIFKUJ_clean_linker_0, # of connection points: 2
#     Edge 21, Type (0, 0), BuildingBlock: MIFKUJ_clean_linker_0, # of connection points: 2
#     Edge 22, Type (0, 0), BuildingBlock: MIFKUJ_clean_linker_0, # of connection points: 2
#     Edge 23, Type (0, 0), BuildingBlock: MIFKUJ_clean_linker_0, # of connection points: 2
#     Edge 24, Type (0, 0), BuildingBlock: MIFKUJ_clean_linker_0, # of connection points: 2
#     Edge 25, Type (0, 0), BuildingBlock: MIFKUJ_clean_linker_0, # of connection points: 2
#     Edge 26, Type (0, 0), BuildingBlock: MIFKUJ_clean_linker_0, # of connection points: 2
#     Edge 27, Type (0, 0), BuildingBlock: MIFKUJ_clean_linker_0, # of connection points: 2
# Relax obj value: 0.125
# Max RMSD: 0.143
# Mean RMSD: 0.143
data_MOF--net-zfb--node1-BEQFEK_clean_sbu_0--edge1-MIFKUJ_clean_linker_0
_symmetry_space_group_name_H-M    P1
_symmetry_Int_Tables_number       1
_symmetry_cell_setting            triclinic
loop_
_symmetry_equiv_pos_as_xyz
'x, y, z'
_cell_length_a     38.978904
_cell_length_b     39.040006
_cell_length_c     47.799133
_cell_angle_alpha  90.00702
_cell_angle_beta   90.005474
_cell_angle_gamma 90.018882
loop_
_atom_site_label
_atom_site_type_symbol
_atom_site_fract_x
_atom_site_fract_y
_atom_site_fract_z
_atom_type_partial_charge
Co0 Co 0.19974 0.3565 0.06882 0.0
Co1 Co 0.20748 0.3587 0.00304 0.0
C2 C 0.14396 0.38351 0.03124 0.0
O3 O 0.15562 0.37572 0.05535 0.0
O4 O 0.16117 0.37787 0.00905 0.0
C5 C 0.17037 0.33668 0.12216 0.0
O6 O 0.14407 0.32647 0.10712 0.0
C7 C 0.19589 0.34915 0.94212 0.0
C8 C 0.24855 0.35662 0.92622 0.0
C9 C 0.21521 0.35014 0.91745 0.0
N10 N 0.21704 0.3548 0.96392 0.0
N11 N 0.24841 0.35929 0.95422 0.0
C12 C 0.15852 0.34144 0.9456 0.0
H13 H 0.15273 0.33458 0.96762 0.0
H14 H 0.15085 0.31991 0.93179 0.0
H15 H 0.14329 0.36447 0.94007 0.0
C16 C 0.21359 0.2827 0.05794 0.0
N17 N 0.21053 0.31543 0.04932 0.0
N18 N 0.21282 0.31632 0.02184 0.0
C19 C 0.21699 0.28423 0.01208 0.0
C20 C 0.21755 0.26181 0.03464 0.0
C21 C 0.21283 0.27164 0.08789 0.0
H22 H 0.22624 0.29074 0.10112 0.0
H23 H 0.18578 0.26979 0.09493 0.0
H24 H 0.2252 0.24625 0.09058 0.0
O25 O 0.23451 0.39268 0.06308 0.0
O26 O 0.23999 0.3933 0.01694 0.0
H27 H 0.23954 0.28653 0.97133 0.0
H28 H 0.21636 0.24721 0.97797 0.0
C29 C 0.2167 0.27521 0.98163 0.0
H30 H 0.19354 0.28626 0.97177 0.0
H31 H 0.26974 0.36433 0.96675 0.0
O32 O 0.19645 0.34932 0.10996 0.0
C33 C 0.2478 0.40497 0.04093 0.0
Co34 Co 0.63699 0.19911 0.57476 0.0
Co35 Co 0.63276 0.21077 0.50945 0.0
C36 C 0.61135 0.14447 0.53601 0.0
O37 O 0.61965 0.15475 0.56042 0.0
O38 O 0.61518 0.1635 0.51455 0.0
C39 C 0.6584 0.16925 0.62779 0.0
O40 O 0.66927 0.14338 0.6126 0.0
C41 C 0.63974 0.20076 0.44831 0.0
C42 C 0.63571 0.25417 0.43326 0.0
C43 C 0.63975 0.22072 0.42422 0.0
N44 N 0.63621 0.22163 0.47053 0.0
N45 N 0.63378 0.25347 0.46135 0.0
C46 C 0.63992 0.1625 0.4504 0.0
H47 H 0.6151 0.15394 0.45929 0.0
H48 H 0.66044 0.15426 0.46501 0.0
H49 H 0.64334 0.14994 0.42981 0.0
C50 C 0.71043 0.21509 0.56296 0.0
N51 N 0.67735 0.21226 0.55502 0.0
N52 N 0.67547 0.2165 0.52772 0.0
C53 C 0.70717 0.22202 0.51746 0.0
C54 C 0.73035 0.22133 0.53946 0.0
C55 C 0.72296 0.21093 0.59233 0.0
H56 H 0.70491 0.22342 0.60707 0.0
H57 H 0.72429 0.18325 0.59742 0.0
H58 H 0.7489 0.22221 0.59495 0.0
O59 O 0.5991 0.23257 0.57033 0.0
O60 O 0.59798 0.24215 0.5246 0.0
H61 H 0.70352 0.24715 0.47785 0.0
H62 H 0.7434 0.22442 0.48291 0.0
C63 C 0.7154 0.22384 0.48689 0.0
H64 H 0.70437 0.20122 0.47616 0.0
H65 H 0.63052 0.27474 0.4743 0.0
O66 O 0.64495 0.19501 0.61577 0.0
C67 C 0.58645 0.24758 0.54907 0.0
Co68 Co 0.80177 0.64084 0.06632 0.0
Co69 Co 0.80338 0.64432 1.00063 0.0
C70 C 0.86361 0.61935 0.03087 0.0
O71 O 0.84747 0.62311 0.05392 0.0
O72 O 0.85017 0.62778 0.00757 0.0
C73 C 0.82692 0.66191 0.12007 0.0
O74 O 0.8502 0.678 0.10514 0.0
C75 C 0.81525 0.65288 0.93956 0.0
C76 C 0.76215 0.66299 0.92554 0.0
C77 C 0.7955 0.65968 0.91597 0.0
N78 N 0.79432 0.65215 0.96195 0.0
N79 N 0.76266 0.65808 0.95335 0.0
C80 C 0.85342 0.64952 0.94126 0.0
H81 H 0.86033 0.62195 0.94106 0.0
H82 H 0.8629 0.66081 0.96111 0.0
H83 H 0.8661 0.66242 0.92335 0.0
C84 C 0.78541 0.7152 0.0584 0.0
N85 N 0.79189 0.68339 0.04866 0.0
N86 N 0.79475 0.68474 0.02126 0.0
C87 C 0.79152 0.71743 0.01277 0.0
C88 C 0.78505 0.73787 0.03595 0.0
C89 C 0.77883 0.72361 0.08845 0.0
H90 H 0.76703 0.70142 0.09926 0.0
H91 H 0.80349 0.72986 0.09885 0.0
H92 H 0.76168 0.7462 0.09027 0.0
O93 O 0.76725 0.60541 0.05715 0.0
O94 O 0.77217 0.60656 0.01099 0.0
H95 H 0.77524 0.72662 0.97072 0.0
H96 H 0.80715 0.75643 0.98314 0.0
C97 C 0.79881 0.72927 0.98355 0.0
H98 H 0.81932 0.71337 0.97414 0.0
H99 H 0.74139 0.65899 0.96659 0.0
O100 O 0.80346 0.64512 0.10769 0.0
C101 C 0.75957 0.59363 0.03313 0.0
Co102 Co 0.36442 0.79178 0.56565 0.0
Co103 Co 0.36201 0.79278 0.49973 0.0
C104 C 0.38916 0.85214 0.53038 0.0
O105 O 0.38404 0.83655 0.55348 0.0
O106 O 0.3808 0.83879 0.50701 0.0
C107 C 0.34384 0.81839 0.61909 0.0
O108 O 0.33058 0.84304 0.60381 0.0
C109 C 0.35289 0.80558 0.43871 0.0
C110 C 0.34469 0.75249 0.42406 0.0
C111 C 0.34664 0.78607 0.41487 0.0
N112 N 0.35456 0.7843 0.46085 0.0
N113 N 0.3498 0.75266 0.45185 0.0
C114 C 0.35471 0.84376 0.44091 0.0
H115 H 0.38185 0.85197 0.43886 0.0
H116 H 0.34513 0.8523 0.46162 0.0
H117 H 0.33943 0.85613 0.42413 0.0
C118 C 0.28942 0.77882 0.55683 0.0
N119 N 0.32172 0.78355 0.54737 0.0
N120 N 0.3209 0.78592 0.51991 0.0
C121 C 0.28818 0.7838 0.5111 0.0
C122 C 0.2671 0.7789 0.53414 0.0
C123 C 0.2801 0.77377 0.5869 0.0
H124 H 0.30122 0.76064 0.59815 0.0
H125 H 0.27565 0.7991 0.59676 0.0
H126 H 0.25621 0.75847 0.58882 0.0
O127 O 0.39926 0.75641 0.5568 0.0
O128 O 0.39776 0.75958 0.51054 0.0
H129 H 0.28077 0.76689 0.46899 0.0
H130 H 0.2498 0.79827 0.48042 0.0
C131 C 0.27712 0.79048 0.48158 0.0
H132 H 0.29299 0.81117 0.47242 0.0
H133 H 0.34976 0.73115 0.46481 0.0
O134 O 0.35902 0.79362 0.60704 0.0
C135 C 0.4104 0.74726 0.53291 0.0
Co136 Co 0.69714 0.14156 0.98338 0.0
Co137 Co 0.70478 0.13828 0.04927 0.0
C138 C 0.64322 0.10962 0.01922 0.0
O139 O 0.65417 0.1193 0.99537 0.0
O140 O 0.66012 0.11547 0.04156 0.0
C141 C 0.66785 0.15538 0.92881 0.0
O142 O 0.63883 0.15815 0.9426 0.0
C143 C 0.69053 0.14875 0.11008 0.0
C144 C 0.74253 0.14093 0.12734 0.0
C145 C 0.70904 0.14816 0.13505 0.0
N146 N 0.71231 0.1424 0.08879 0.0
N147 N 0.74328 0.13776 0.09935 0.0
C148 C 0.65268 0.15355 0.10653 0.0
H149 H 0.64384 0.14293 0.08634 0.0
H150 H 0.64669 0.18132 0.10669 0.0
H151 H 0.63852 0.1411 0.12392 0.0
C152 C 0.70353 0.21593 0.99563 0.0
N153 N 0.70402 0.18286 0.00372 0.0
N154 N 0.70774 0.18142 0.03108 0.0
C155 C 0.7104 0.21351 0.04121 0.0
C156 C 0.70745 0.23652 0.01918 0.0
C157 C 0.69553 0.22721 0.96642 0.0
H158 H 0.67009 0.21696 0.96033 0.0
H159 H 0.69482 0.25545 0.96428 0.0
H160 H 0.71488 0.21644 0.95185 0.0
O161 O 0.73401 0.10739 0.98968 0.0
O162 O 0.74017 0.10657 0.03577 0.0
H163 H 0.73631 0.20481 0.08008 0.0
H164 H 0.72474 0.24884 0.07418 0.0
C165 C 0.71631 0.22192 0.07138 0.0
H166 H 0.69221 0.21778 0.08322 0.0
H167 H 0.76499 0.13225 0.08741 0.0
O168 O 0.69541 0.14943 0.94219 0.0
C169 C 0.74837 0.0957 0.01162 0.0
Co170 Co 0.86343 0.70492 0.47366 0.0
Co171 Co 0.86445 0.71014 0.53944 0.0
C172 C 0.89277 0.64914 0.51027 0.0
O173 O 0.88543 0.662 0.48649 0.0
O174 O 0.88532 0.66449 0.53302 0.0
C175 C 0.84876 0.67393 0.42036 0.0
O176 O 0.84518 0.64592 0.43532 0.0
C177 C 0.85631 0.69733 0.60013 0.0
C178 C 0.85227 0.75043 0.61586 0.0
C179 C 0.85211 0.71652 0.6244 0.0
N180 N 0.85883 0.71904 0.57837 0.0
N181 N 0.85663 0.7507 0.58797 0.0
C182 C 0.85539 0.65919 0.59721 0.0
H183 H 0.84541 0.6519 0.5763 0.0
H184 H 0.83912 0.6475 0.6137 0.0
H185 H 0.88185 0.64901 0.59926 0.0
C186 C 0.78859 0.71226 0.48421 0.0
N187 N 0.82146 0.71204 0.49299 0.0
N188 N 0.82196 0.71399 0.52048 0.0
C189 C 0.78947 0.71556 0.53005 0.0
C190 C 0.7673 0.71445 0.50739 0.0
C191 C 0.77776 0.70947 0.45428 0.0
H192 H 0.79433 0.72591 0.44103 0.0
H193 H 0.78077 0.68255 0.44729 0.0
H194 H 0.75056 0.71719 0.45152 0.0
O195 O 0.8974 0.74173 0.48016 0.0
O196 O 0.89808 0.74427 0.52646 0.0
H197 H 0.78889 0.73815 0.57076 0.0
H198 H 0.75181 0.71189 0.56342 0.0
C199 C 0.7799 0.7144 0.56036 0.0
H200 H 0.79277 0.69233 0.57045 0.0
H201 H 0.85774 0.77251 0.57539 0.0
O202 O 0.856 0.70192 0.43262 0.0
C203 C 0.90926 0.7541 0.50281 0.0
Co204 Co 0.29757 0.85727 0.97281 0.0
Co205 Co 0.29313 0.858 0.03876 0.0
C206 C 0.35603 0.88153 0.00972 0.0
O207 O 0.34262 0.87553 0.98585 0.0
O208 O 0.33994 0.87539 0.03238 0.0
C209 C 0.32645 0.83759 0.91967 0.0
O210 O 0.35284 0.82825 0.93497 0.0
C211 C 0.30496 0.85081 0.09986 0.0
C212 C 0.25157 0.8455 0.11484 0.0
C213 C 0.28532 0.8464 0.12388 0.0
N214 N 0.28365 0.85253 0.07773 0.0
N215 N 0.25181 0.84955 0.08691 0.0
C216 C 0.34324 0.85058 0.09754 0.0
H217 H 0.3528 0.87733 0.09847 0.0
H218 H 0.3512 0.83931 0.07726 0.0
H219 H 0.35497 0.83576 0.11489 0.0
C220 C 0.28147 0.78363 0.98303 0.0
N221 N 0.28653 0.81601 0.99195 0.0
N222 N 0.28653 0.81628 0.01948 0.0
C223 C 0.28259 0.78409 0.02898 0.0
C224 C 0.27886 0.76226 0.00622 0.0
C225 C 0.27881 0.77355 0.95291 0.0
H226 H 0.26565 0.79395 0.94086 0.0
H227 H 0.30499 0.77018 0.94422 0.0
H228 H 0.2645 0.74914 0.95051 0.0
O229 O 0.26316 0.8935 0.97954 0.0
O230 O 0.26085 0.89358 0.02588 0.0
H231 H 0.26241 0.77935 0.07039 0.0
H232 H 0.29331 0.74667 0.06142 0.0
C233 C 0.28669 0.77413 0.05906 0.0
H234 H 0.3074 0.7895 0.06874 0.0
H235 H 0.23023 0.84991 0.074 0.0
O236 O 0.30013 0.85002 0.93165 0.0
C237 C 0.25142 0.90551 0.00236 0.0
Co238 Co 0.13544 0.29413 0.47666 0.0
Co239 Co 0.1332 0.28912 0.54253 0.0
C240 C 0.10894 0.35162 0.51292 0.0
O241 O 0.11642 0.33893 0.48909 0.0
O242 O 0.11444 0.3352 0.53551 0.0
C243 C 0.15579 0.32216 0.42313 0.0
O244 O 0.16586 0.34862 0.43801 0.0
C245 C 0.14339 0.30325 0.60284 0.0
C246 C 0.13256 0.25225 0.62092 0.0
C247 C 0.14087 0.2856 0.62792 0.0
N248 N 0.13694 0.2812 0.58184 0.0
N249 N 0.13058 0.25078 0.59284 0.0
C250 C 0.14907 0.34086 0.599 0.0
H251 H 0.12462 0.35454 0.60302 0.0
H252 H 0.1575 0.34648 0.57732 0.0
H253 H 0.16841 0.35051 0.61409 0.0
C254 C 0.20944 0.28031 0.48805 0.0
N255 N 0.17664 0.28396 0.49648 0.0
N256 N 0.17566 0.2829 0.52401 0.0
C257 C 0.20774 0.27901 0.53398 0.0
C258 C 0.23025 0.27717 0.51151 0.0
C259 C 0.22067 0.27997 0.45813 0.0
H260 H 0.20152 0.26625 0.44515 0.0
H261 H 0.2227 0.30672 0.45048 0.0
H262 H 0.24606 0.26742 0.45583 0.0
O263 O 0.09931 0.25921 0.48302 0.0
O264 O 0.09875 0.25617 0.52929 0.0
H265 H 0.20523 0.25897 0.57559 0.0
H266 H 0.24474 0.28152 0.56814 0.0
C267 C 0.21671 0.28108 0.56442 0.0
H268 H 0.2057 0.30482 0.57331 0.0
H269 H 0.12434 0.22907 0.58116 0.0
O270 O 0.14296 0.29633 0.43551 0.0
C271 C 0.08719 0.24691 0.50561 0.0
H272 H 0.21242 0.93262 0.04439 0.0
H273 H 0.19561 0.99276 0.04898 0.0
H274 H 0.23184 0.01265 0.96539 0.0
H275 H 0.24804 0.95256 0.96026 0.0
H276 H 0.26522 0.04307 0.02527 0.0
H277 H 0.16678 0.03189 0.96157 0.0
H278 H 0.11139 0.0064 0.94784 0.0
H279 H 0.0672 0.03766 0.02607 0.0
H280 H 0.12256 0.06287 0.04043 0.0
H281 H 0.26254 0.22103 0.00682 0.0
H282 H 0.26015 0.15881 1.0016 0.0
H283 H 0.17192 0.15518 0.05616 0.0
H284 H 0.17307 0.21778 0.05993 0.0
H285 H 0.16106 0.11475 0.01421 0.0
H286 H 0.2532 0.12929 0.07797 0.0
H287 H 0.30728 0.15241 0.09693 0.0
H288 H 0.36243 0.11198 0.02654 0.0
H289 H 0.30858 0.08906 0.00691 0.0
C290 C 0.21554 0.94948 0.02657 0.0
C291 C 0.23196 0.93797 0.00209 0.0
C292 C 0.20586 0.98377 0.02923 0.0
C293 C 0.21256 0.0069 0.00752 0.0
C294 C 0.22619 0.99493 0.98222 0.0
C295 C 0.23539 0.96057 0.97935 0.0
C296 C 0.21207 0.04395 0.01321 0.0
C297 C 0.24263 0.05897 0.02253 0.0
C298 C 0.18211 0.06394 0.01088 0.0
C299 C 0.14892 0.0488 0.00222 0.0
C300 C 0.14539 0.03292 0.97599 0.0
C301 C 0.11397 0.01864 0.96805 0.0
C302 C 0.08583 0.02029 0.98611 0.0
C303 C 0.08904 0.03633 0.01212 0.0
C304 C 0.12042 0.05063 0.02016 0.0
C305 C 0.24265 0.20687 0.01763 0.0
C306 C 0.21796 0.22403 0.03369 0.0
C307 C 0.24145 0.17133 0.01487 0.0
C308 C 0.21609 0.15222 0.02877 0.0
C309 C 0.19172 0.16936 0.04525 0.0
C310 C 0.19263 0.20502 0.04766 0.0
C311 C 0.21473 0.11446 0.0255 0.0
C312 C 0.18379 0.09909 0.01696 0.0
C313 C 0.24428 0.09386 0.02917 0.0
C314 C 0.27677 0.10771 0.04084 0.0
C315 C 0.27681 0.12557 0.06641 0.0
C316 C 0.30744 0.1386 0.0773 0.0
C317 C 0.33826 0.13373 0.06292 0.0
C318 C 0.33852 0.11577 0.03764 0.0
C319 C 0.30796 0.10272 0.02663 0.0
H320 H 0.36195 0.14382 0.0714 0.0
H321 H 0.06152 0.00923 0.97992 0.0
H322 H 0.04371 0.23692 0.46122 0.0
H323 H 0.98288 0.22227 0.46481 0.0
H324 H 0.99603 0.19891 0.55228 0.0
H325 H 0.05674 0.21321 0.54899 0.0
H326 H 0.93666 0.16826 0.48821 0.0
H327 H 0.94248 0.25555 0.5845 0.0
H328 H 0.98047 0.29994 0.6044 0.0
H329 H 0.01207 0.32936 0.52176 0.0
H330 H 0.9738 0.28559 0.5014 0.0
H331 H 0.774 0.17098 0.55577 0.0
H332 H 0.83626 0.16856 0.54825 0.0
H333 H 0.83327 0.26883 0.51033 0.0
H334 H 0.77099 0.27121 0.51787 0.0
H335 H 0.88753 0.26118 0.54688 0.0
H336 H 0.83687 0.20225 0.46951 0.0
H337 H 0.79958 0.15962 0.44665 0.0
H338 H 0.85659 0.07814 0.48509 0.0
H339 H 0.89389 0.12034 0.50861 0.0
C340 C 0.03403 0.22726 0.48094 0.0
C341 C 0.05483 0.22713 0.50502 0.0
C342 C 0.99924 0.21884 0.48292 0.0
C343 C 0.98503 0.21027 0.50894 0.0
C344 C 0.00661 0.20584 0.5321 0.0
C345 C 0.0413 0.21414 0.53015 0.0
C346 C 0.94762 0.21272 0.51325 0.0
C347 C 0.92582 0.18837 0.50113 0.0
C348 C 0.93363 0.23964 0.52948 0.0
C349 C 0.95555 0.26706 0.54148 0.0
C350 C 0.95736 0.27166 0.5706 0.0
C351 C 0.97896 0.29669 0.58194 0.0
C352 C 0.99876 0.31738 0.56435 0.0
C353 C 0.99681 0.31325 0.53536 0.0
C354 C 0.97517 0.28833 0.52392 0.0
C355 C 0.78684 0.19263 0.54621 0.0
C356 C 0.76805 0.22129 0.53736 0.0
C357 C 0.82221 0.19114 0.54174 0.0
C358 C 0.83921 0.21837 0.52848 0.0
C359 C 0.82056 0.24754 0.52054 0.0
C360 C 0.78515 0.2489 0.52481 0.0
C361 C 0.87634 0.21619 0.52239 0.0
C362 C 0.8982 0.24082 0.53411 0.0
C363 C 0.89018 0.18993 0.50531 0.0
C364 C 0.86796 0.16447 0.49106 0.0
C365 C 0.84128 0.17525 0.4733 0.0
C366 C 0.82016 0.15116 0.46018 0.0
C367 C 0.82566 0.11619 0.46447 0.0
C368 C 0.85234 0.10524 0.48183 0.0
C369 C 0.87348 0.12924 0.49505 0.0
H370 H 0.80929 0.09758 0.45428 0.0
H371 H 0.01555 0.33665 0.57318 0.0
H372 H 0.751 0.05058 0.96805 0.0
H373 H 0.76563 0.99003 0.97184 0.0
H374 H 0.80448 0.00669 0.05515 0.0
H375 H 0.78952 0.06737 0.0518 0.0
H376 H 0.83937 0.95209 0.01979 0.0
H377 H 0.7284 0.99074 0.05479 0.0
H378 H 0.67377 0.02206 0.04981 0.0
H379 H 0.64686 0.95951 0.97925 0.0
H380 H 0.70174 0.92836 0.98341 0.0
H381 H 0.81643 0.78364 0.07098 0.0
H382 H 0.81515 0.84622 0.06786 0.0
H383 H 0.74665 0.83941 0.99709 0.0
H384 H 0.74621 0.77708 1.00135 0.0
H385 H 0.7283 0.89043 0.02734 0.0
H386 H 0.83598 0.85146 0.99051 0.0
H387 H 0.8913 0.82087 0.9913 0.0
H388 H 0.92491 0.88293 0.06024 0.0
H389 H 0.86956 0.91359 0.06011 0.0
C390 C 0.76398 0.04179 0.98676 0.0
C391 C 0.76842 0.06364 0.00988 0.0
C392 C 0.7722 0.0071 0.98889 0.0
C393 C 0.78542 0.99397 0.01397 0.0
C394 C 0.79409 0.01645 0.0357 0.0
C395 C 0.78549 0.05111 0.03373 0.0
C396 C 0.78442 0.95674 0.01925 0.0
C397 C 0.8152 0.93852 0.02176 0.0
C398 C 0.75273 0.93924 0.02131 0.0
C399 C 0.71937 0.95748 0.01922 0.0
C400 C 0.71099 0.98388 0.03805 0.0
C401 C 0.67997 0.00158 0.0354 0.0
C402 C 0.65691 0.99284 0.01418 0.0
C403 C 0.66478 0.9663 0.99564 0.0
C404 C 0.69585 0.94863 0.99813 0.0
C405 C 0.80043 0.79559 0.05525 0.0
C406 C 0.7816 0.7756 0.03626 0.0
C407 C 0.80012 0.83132 0.0532 0.0
C408 C 0.78149 0.84755 0.03178 0.0
C409 C 0.76145 0.82755 0.01364 0.0
C410 C 0.76137 0.79194 0.01597 0.0
C411 C 0.78339 0.88522 0.02766 0.0
C412 C 0.75263 0.90373 0.02546 0.0
C413 C 0.81513 0.90283 0.02546 0.0
C414 C 0.84849 0.88457 0.02549 0.0
C415 C 0.85507 0.85842 0.00597 0.0
C416 C 0.88645 0.84109 0.00628 0.0
C417 C 0.91157 0.84989 0.02586 0.0
C418 C 0.90541 0.8761 0.04512 0.0
C419 C 0.87404 0.89348 0.04493 0.0
H420 H 0.93585 0.83644 0.02607 0.0
H421 H 0.6329 0.00654 0.01214 0.0
H422 H 0.9566 0.75608 0.46089 0.0
H423 H 0.01727 0.76956 0.46681 0.0
H424 H 0.99704 0.80856 0.54951 0.0
H425 H 0.93621 0.79445 0.54411 0.0
H426 H 0.05591 0.84189 0.51149 0.0
H427 H 0.01253 0.73701 0.55558 0.0
H428 H 0.97828 0.68388 0.55447 0.0
H429 H 0.03723 0.64756 0.48464 0.0
H430 H 0.07134 0.7009 0.48495 0.0
H431 H 0.22261 0.81518 0.56692 0.0
H432 H 0.15994 0.817 0.56308 0.0
H433 H 0.164 0.74266 0.49629 0.0
H434 H 0.22639 0.73967 0.50105 0.0
H435 H 0.11171 0.72937 0.52825 0.0
H436 H 0.15668 0.83006 0.48391 0.0
H437 H 0.19019 0.88351 0.48082 0.0
H438 H 0.1292 0.92796 0.54623 0.0
H439 H 0.09563 0.87454 0.54999 0.0
C440 C 0.96467 0.7689 0.47989 0.0
C441 C 0.94172 0.77364 0.50225 0.0
C442 C -0.00058 0.77649 0.48323 0.0
C443 C 0.01149 0.78952 0.50872 0.0
C444 C 0.98806 0.79844 0.52971 0.0
C445 C 0.95335 0.79032 0.52658 0.0
C446 C 0.04842 0.78753 0.51524 0.0
C447 C 0.06819 0.81746 0.51557 0.0
C448 C 0.06423 0.75546 0.51995 0.0
C449 C 0.04421 0.7231 0.52009 0.0
C450 C 0.01796 0.71785 0.53981 0.0
C451 C 0.9986 0.68769 0.53935 0.0
C452 C 0.00554 0.66239 0.51947 0.0
C453 C 0.03186 0.66721 0.50001 0.0
C454 C 0.05121 0.6974 0.50031 0.0
C455 C 0.20998 0.79868 0.55191 0.0
C456 C 0.2292 0.77741 0.53416 0.0
C457 C 0.17425 0.80006 0.54946 0.0
C458 C 0.15731 0.7805 0.52899 0.0
C459 C 0.17648 0.75813 0.51212 0.0
C460 C 0.21209 0.75655 0.51475 0.0
C461 C 0.11978 0.78384 0.52448 0.0
C462 C 0.09969 0.754 0.52446 0.0
C463 C 0.10385 0.816 0.51972 0.0
C464 C 0.1239 0.84818 0.51744 0.0
C465 C 0.15059 0.85114 0.49778 0.0
C466 C 0.16957 0.88144 0.49589 0.0
C467 C 0.16189 0.90908 0.51337 0.0
C468 C 0.13516 0.9065 0.53274 0.0
C469 C 0.11614 0.87623 0.53475 0.0
H470 H 0.1766 0.93252 0.51187 0.0
H471 H 0.99062 0.63901 0.51921 0.0
H472 H 0.71784 0.56312 0.0723 0.0
H473 H 0.69524 0.50454 0.07081 0.0
H474 H 0.73843 0.49129 0.98832 0.0
H475 H 0.75883 0.54993 0.98895 0.0
H476 H 0.68455 0.45623 0.99003 0.0
H477 H 0.78055 0.47014 0.0534 0.0
H478 H 0.81059 0.49393 0.09449 0.0
H479 H 0.73291 0.4529 0.14865 0.0
H480 H 0.70203 0.42948 0.10782 0.0
H481 H 0.74309 0.28328 0.98837 0.0
H482 H 0.73986 0.34593 0.99152 0.0
H483 H 0.66572 0.33729 0.05811 0.0
H484 H 0.66774 0.27466 0.05419 0.0
H485 H 0.72483 0.3828 0.06811 0.0
H486 H 0.63504 0.36104 1.00133 0.0
H487 H 0.61082 0.3354 0.95851 0.0
H488 H 0.68487 0.38924 0.90861 0.0
H489 H 0.7099 0.41478 0.95117 0.0
C490 C 0.72168 0.54791 0.0536 0.0
C491 C 0.74045 0.56103 0.03089 0.0
C492 C 0.709 0.51436 0.05283 0.0
C493 C 0.71602 0.49306 0.02979 0.0
C494 C 0.73273 0.50701 0.00641 0.0
C495 C 0.74451 0.54068 0.00685 0.0
C496 C 0.70896 0.45562 0.03054 0.0
C497 C 0.69343 0.44026 0.00713 0.0
C498 C 0.72006 0.43458 0.053 0.0
C499 C 0.73877 0.44844 0.07754 0.0
C500 C 0.76978 0.46638 0.07406 0.0
C501 C 0.78694 0.4798 0.0973 0.0
C502 C 0.77364 0.47497 0.12415 0.0
C503 C 0.74315 0.45668 0.12783 0.0
C504 C 0.72577 0.44338 0.10465 0.0
C505 C 0.72574 0.29482 0.00335 0.0
C506 C 0.70557 0.27428 0.02095 0.0
C507 C 0.72402 0.33048 0.00522 0.0
C508 C 0.70243 0.34607 0.02496 0.0
C509 C 0.6825 0.32563 0.04276 0.0
C510 C 0.6838 0.28998 0.04058 0.0
C511 C 0.70144 0.38378 0.02737 0.0
C512 C 0.71544 0.399 0.05133 0.0
C513 C 0.68982 0.4046 0.00515 0.0
C514 C 0.67449 0.38964 0.97948 0.0
C515 C 0.64633 0.36722 0.98125 0.0
C516 C 0.63243 0.35273 0.95702 0.0
C517 C 0.64634 0.36064 0.93086 0.0
C518 C 0.67413 0.38313 0.92888 0.0
C519 C 0.68815 0.39765 0.95305 0.0
H520 H 0.63555 0.34938 0.91213 0.0
H521 H 0.787 0.48533 0.14211 0.0
H522 H 0.43804 0.71891 0.48587 0.0
H523 H 0.49728 0.7004 0.47968 0.0
H524 H 0.51524 0.71225 0.56817 0.0
H525 H 0.45589 0.73085 0.57464 0.0
H526 H 0.54801 0.74583 0.49079 0.0
H527 H 0.58491 0.66114 0.58593 0.0
H528 H 0.55923 0.61586 0.61519 0.0
H529 H 0.49256 0.58722 0.54761 0.0
H530 H 0.51816 0.63197 0.51781 0.0
H531 H 0.72261 0.76026 0.52947 0.0
H532 H 0.65987 0.7554 0.53195 0.0
H533 H 0.66484 0.65747 0.49032 0.0
H534 H 0.72766 0.66252 0.48758 0.0
H535 H 0.62041 0.65988 0.53934 0.0
H536 H 0.64123 0.71862 0.45255 0.0
H537 H 0.66695 0.76329 0.42272 0.0
H538 H 0.61674 0.84129 0.47104 0.0
H539 H 0.59116 0.79708 0.50146 0.0
C540 C 0.45424 0.71664 0.5042 0.0
C541 C 0.44239 0.72697 0.5307 0.0
C542 C 0.48813 0.70609 0.50058 0.0
C543 C 0.51072 0.70533 0.52339 0.0
C544 C 0.49816 0.7125 0.55029 0.0
C545 C 0.46418 0.72314 0.55396 0.0
C546 C 0.54811 0.70221 0.51846 0.0
C547 C 0.56375 0.72681 0.50124 0.0
C548 C 0.56862 0.67739 0.53205 0.0
C549 C 0.55329 0.65014 0.54971 0.0
C550 C 0.56488 0.64509 0.57726 0.0
C551 C 0.55031 0.61952 0.59396 0.0
C552 C 0.52421 0.59874 0.58329 0.0
C553 C 0.51269 0.60342 0.55588 0.0
C554 C 0.52718 0.62893 0.5391 0.0
C555 C 0.71017 0.73781 0.52082 0.0
C556 C 0.72959 0.71186 0.50819 0.0
C557 C 0.67451 0.735 0.52228 0.0
C558 C 0.65786 0.70607 0.51132 0.0
C559 C 0.67731 0.67991 0.49896 0.0
C560 C 0.71299 0.68293 0.49719 0.0
C561 C 0.62001 0.70383 0.51212 0.0
C562 C 0.60444 0.67852 0.52867 0.0
C563 C 0.5994 0.72789 0.49783 0.0
C564 C 0.61451 0.75453 0.47942 0.0
C565 C 0.63589 0.7453 0.45695 0.0
C566 C 0.65041 0.77054 0.43992 0.0
C567 C 0.64353 0.80511 0.44501 0.0
C568 C 0.62206 0.8145 0.46713 0.0
C569 C 0.60752 0.78936 0.48426 0.0
H570 H 0.65479 0.82461 0.43179 0.0
H571 H 0.51296 0.57898 0.59626 0.0
H572 H 0.28863 0.43387 1.00087 0.0
H573 H 0.3022 0.49486 0.99689 0.0
H574 H 0.25977 0.5125 0.0789 0.0
H575 H 0.24669 0.45161 0.08338 0.0
H576 H 0.22578 0.54523 0.03017 0.0
H577 H 0.33653 0.53046 0.07366 0.0
H578 H 0.39388 0.50461 0.07876 0.0
H579 H 0.4211 0.53902 0.99638 0.0
H580 H 0.36369 0.56467 0.99062 0.0
H581 H 0.23734 0.72438 0.03972 0.0
H582 H 0.23786 0.66247 0.04609 0.0
H583 H 0.31245 0.65279 0.97973 0.0
H584 H 0.31413 0.71519 0.9751 0.0
H585 H 0.33155 0.6146 0.0194 0.0
H586 H 0.2237 0.62677 0.97312 0.0
H587 H 0.16571 0.64913 0.96349 0.0
H588 H 0.13215 0.6166 0.04481 0.0
H589 H 0.19001 0.59427 0.05501 0.0
C590 C 0.28345 0.45049 0.01853 0.0
C591 C 0.26615 0.43802 0.04227 0.0
C592 C 0.2912 0.4853 0.01619 0.0
C593 C 0.28156 0.50802 0.03748 0.0
C594 C 0.2673 0.4952 0.06227 0.0
C595 C 0.26003 0.46035 0.06482 0.0
C596 C 0.28095 0.54518 0.03199 0.0
C597 C 0.24884 0.56066 0.02826 0.0
C598 C 0.31113 0.56455 0.02815 0.0
C599 C 0.34566 0.54917 0.03161 0.0
C600 C 0.35461 0.53222 0.05652 0.0
C601 C 0.38716 0.51768 0.05956 0.0
C602 C 0.41109 0.52009 0.03788 0.0
C603 C 0.40253 0.53714 0.01314 0.0
C604 C 0.36999 0.55171 0.00999 0.0
C605 C 0.25381 0.70899 0.02649 0.0
C606 C 0.2758 0.72453 0.00703 0.0
C607 C 0.25377 0.67353 0.02987 0.0
C608 C 0.27484 0.65274 0.01312 0.0
C609 C 0.29595 0.66822 0.99291 0.0
C610 C 0.29656 0.70384 0.98999 0.0
C611 C 0.27616 0.61516 0.01787 0.0
C612 C 0.30836 0.5994 0.02129 0.0
C613 C 0.246 0.59522 0.02079 0.0
C614 C 0.2113 0.60916 0.01492 0.0
C615 C 0.20404 0.62467 0.98904 0.0
C616 C 0.17117 0.63727 0.98346 0.0
C617 C 0.14531 0.63442 0.00357 0.0
C618 C 0.15225 0.61895 0.0293 0.0
C619 C 0.18506 0.60624 0.03497 0.0
H620 H 0.11985 0.64409 0.99917 0.0
H621 H 0.43628 0.50882 0.04027 0.0
H622 H 0.27083 0.2332 0.54062 0.0
H623 H 0.33304 0.23724 0.54762 0.0
H624 H 0.33706 0.32382 0.49168 0.0
H625 H 0.27464 0.32058 0.48536 0.0
H626 H 0.3909 0.27065 0.48485 0.0
H627 H 0.33775 0.34269 0.55487 0.0
H628 H 0.29596 0.35348 0.59257 0.0
H629 H 0.34172 0.27396 0.64214 0.0
H630 H 0.38339 0.26224 0.60448 0.0
H631 H 0.56192 0.29908 0.51602 0.0
H632 H 0.50178 0.31618 0.51175 0.0
H633 H 0.47589 0.25137 0.5818 0.0
H634 H 0.53607 0.23593 0.58717 0.0
H635 H 0.43221 0.30066 0.58004 0.0
H636 H 0.47739 0.22131 0.51229 0.0
H637 H 0.51759 0.2024 0.47554 0.0
H638 H 0.4856 0.28575 0.42305 0.0
H639 H 0.44556 0.30545 0.4597 0.0
C640 C 0.2851 0.25296 0.52974 0.0
C641 C 0.2681 0.27679 0.51271 0.0
C642 C 0.32048 0.25521 0.53371 0.0
C643 C 0.33938 0.28109 0.52041 0.0
C644 C 0.32277 0.30376 0.50214 0.0
C645 C 0.28726 0.30178 0.49846 0.0
C646 C 0.37627 0.28518 0.52657 0.0
C647 C 0.40005 0.27788 0.50547 0.0
C648 C 0.3879 0.29366 0.55373 0.0
C649 C 0.36355 0.30144 0.57676 0.0
C650 C 0.33878 0.32737 0.57374 0.0
C651 C 0.31511 0.33366 0.5951 0.0
C652 C 0.31614 0.31438 0.61971 0.0
C653 C 0.34094 0.28887 0.62305 0.0
C654 C 0.36461 0.28241 0.60171 0.0
C655 C 0.54354 0.2896 0.53117 0.0
C656 C 0.5535 0.26582 0.55166 0.0
C657 C 0.50916 0.29914 0.52858 0.0
C658 C 0.48413 0.28399 0.54575 0.0
C659 C 0.49463 0.26313 0.5681 0.0
C660 C 0.52913 0.25434 0.57118 0.0
C661 C 0.44718 0.28591 0.53833 0.0
C662 C 0.42325 0.29412 0.55923 0.0
C663 C 0.43532 0.27728 0.51114 0.0
C664 C 0.45879 0.26506 0.48883 0.0
C665 C 0.47905 0.23568 0.49294 0.0
C666 C 0.50181 0.22483 0.47215 0.0
C667 C 0.50423 0.24292 0.44701 0.0
C668 C 0.48376 0.27181 0.44256 0.0
C669 C 0.46103 0.28283 0.46333 0.0
H670 H 0.5219 0.23453 0.43095 0.0
H671 H 0.29776 0.31925 0.63621 0.0
H672 H 0.11668 0.41444 0.98491 0.0
H673 H 0.0694 0.45548 0.98361 0.0
H674 H 0.052 0.44012 0.07183 0.0
H675 H 0.09911 0.39896 0.07341 0.0
H676 H 0.99212 0.44405 0.04175 0.0
H677 H 0.09804 0.50677 0.05047 0.0
H678 H 0.15674 0.52281 0.03634 0.0
H679 H 0.11877 0.55949 0.95755 0.0
H680 H 0.05987 0.54308 0.97099 0.0
H681 H 0.89592 0.58948 0.07537 0.0
H682 H 0.94503 0.55081 0.07396 0.0
H683 H 0.95548 0.5681 0.98528 0.0
H684 H 0.90624 0.60692 0.98636 0.0
H685 H 0.01897 0.56354 0.01367 0.0
H686 H 0.91377 0.50094 0.00433 0.0
H687 H 0.85542 0.48168 0.01661 0.0
H688 H 0.89226 0.44385 0.09541 0.0
H689 H 0.95077 0.4634 0.08381 0.0
C690 C 0.10246 0.41931 0.00397 0.0
C691 C 0.11191 0.40365 0.02935 0.0
C692 C 0.07561 0.44296 0.0032 0.0
C693 C 0.05775 0.45128 0.02774 0.0
C694 C 0.06571 0.43419 0.05271 0.0
C695 C 0.09263 0.41066 0.05355 0.0
C696 C 0.03151 0.47863 0.0277 0.0
C697 C 0.99806 0.47026 0.03593 0.0
C698 C 0.03926 0.51263 0.01946 0.0
C699 C 0.07457 0.52323 0.01159 0.0
C700 C 0.10222 0.51797 0.03003 0.0
C701 C 0.13554 0.52711 0.02214 0.0
C702 C 0.1415 0.54183 0.99595 0.0
C703 C 0.11412 0.54784 0.97774 0.0
C704 C 0.08076 0.53864 0.98549 0.0
C705 C 0.90898 0.58564 0.05562 0.0
C706 C 0.89683 0.60097 0.0309 0.0
C707 C 0.93699 0.56342 0.05487 0.0
C708 C 0.95342 0.55622 0.02944 0.0
C709 C 0.94297 0.57326 0.00508 0.0
C710 C 0.91478 0.59537 0.00575 0.0
C711 C 0.97969 0.52895 0.02803 0.0
C712 C 0.01308 0.53733 0.01949 0.0
C713 C 0.97194 0.49488 0.03593 0.0
C714 C 0.9366 0.48393 0.0433 0.0
C715 C 0.90937 0.4889 0.02442 0.0
C716 C 0.87628 0.47785 0.03123 0.0
C717 C 0.87018 0.46153 0.05675 0.0
C718 C 0.89706 0.45648 0.07564 0.0
C719 C 0.93018 0.46753 0.06896 0.0
H720 H 0.84468 0.45258 0.06183 0.0
H721 H 0.16731 0.54883 0.98986 0.0
H722 H 0.42422 0.88033 0.57405 0.0
H723 H 0.46168 0.93014 0.57321 0.0
H724 H 0.43541 0.94812 0.48673 0.0
H725 H 0.39866 0.89727 0.48709 0.0
H726 H 0.50171 0.95308 0.49311 0.0
H727 H 0.40514 0.00026 0.54141 0.0
H728 H 0.35972 0.0027 0.57727 0.0
H729 H 0.43597 0.00481 0.64208 0.0
H730 H 0.48186 0.00196 0.60662 0.0
H731 H 0.57709 0.1201 0.49016 0.0
H732 H 0.54021 0.06976 0.48769 0.0
H733 H 0.56708 0.0436 0.5726 0.0
H734 H 0.60371 0.09426 0.57543 0.0
H735 H 0.4992 0.04409 0.56548 0.0
H736 H 0.59576 0.99609 0.5162 0.0
H737 H 0.64048 0.99467 0.47972 0.0
H738 H 0.56301 0.99574 0.41585 0.0
H739 H 0.51782 0.99758 0.45196 0.0
C740 C 0.42595 0.8951 0.55492 0.0
C741 C 0.40837 0.88483 0.53064 0.0
C742 C 0.44736 0.92371 0.5545 0.0
C743 C 0.45109 0.94317 0.53 0.0
C744 C 0.43294 0.93348 0.50588 0.0
C745 C 0.41181 0.90453 0.50616 0.0
C746 C 0.47518 0.97262 0.52933 0.0
C747 C 0.5008 0.97329 0.50866 0.0
C748 C 0.47449 -0.00138 0.54996 0.0
C749 C 0.44693 0.00063 0.57134 0.0
C750 C 0.41222 0.00104 0.56331 0.0
C751 C 0.38639 0.00252 0.58357 0.0
C752 C 0.39496 0.00384 0.61194 0.0
C753 C 0.42938 0.00377 0.6201 0.0
C754 C 0.4553 0.00227 0.59993 0.0
C755 C 0.5758 0.10329 0.50813 0.0
C756 C 0.59333 0.11129 0.53303 0.0
C757 C 0.55465 0.07447 0.50667 0.0
C758 C 0.55095 0.05288 0.52994 0.0
C759 C 0.56949 0.06002 0.55443 0.0
C760 C 0.59051 0.08892 0.55597 0.0
C761 C 0.52591 0.02431 0.52949 0.0
C762 C 0.50004 0.02389 0.5499 0.0
C763 C 0.52626 -0.00127 0.50852 0.0
C764 C 0.55342 0.99729 0.48679 0.0
C765 C 0.58827 0.99626 0.49437 0.0
C766 C 0.6137 0.99533 0.47376 0.0
C767 C 0.6046 0.99521 0.44548 0.0
C768 C 0.57003 0.99587 0.43776 0.0
C769 C 0.54449 0.99681 0.45829 0.0
H770 H 0.62432 0.99453 0.42956 0.0
H771 H 0.37492 0.00496 0.62759 0.0
H772 H 0.39052 0.91321 0.96724 0.0
H773 H 0.44161 0.94886 0.97093 0.0
H774 H 0.44892 0.9254 0.05897 0.0
H775 H 0.39704 0.89047 0.05563 0.0
H776 H 0.45456 0.99129 0.0515 0.0
H777 H 0.50723 0.89327 0.0096 0.0
H778 H 0.51415 0.8468 0.97511 0.0
H779 H 0.52549 0.92085 0.90935 0.0
H780 H 0.51817 0.96777 0.94338 0.0
H781 H 0.61766 0.07471 0.06436 0.0
H782 H 0.57038 0.0336 0.06464 0.0
H783 H 0.55125 0.05428 0.97736 0.0
H784 H 0.59873 0.09496 0.97672 0.0
H785 H 0.55433 0.98682 0.98723 0.0
H786 H 0.49766 0.08437 0.02881 0.0
H787 H 0.49045 0.13081 0.06331 0.0
H788 H 0.48704 0.05698 0.12983 0.0
H789 H 0.49464 0.01012 0.09575 0.0
C790 C 0.40329 0.91512 0.98731 0.0
C791 C 0.38963 0.89907 0.01117 0.0
C792 C 0.43262 0.93546 0.98937 0.0
C793 C 0.44932 0.93961 0.01519 0.0
C794 C 0.43643 0.92262 0.03884 0.0
C795 C 0.40684 0.90257 0.03688 0.0
C796 C 0.47871 0.96356 0.01782 0.0
C797 C 0.47668 0.9899 0.03778 0.0
C798 C 0.50724 0.96223 0.99954 0.0
C799 C 0.5119 0.93404 0.97904 0.0
C800 C 0.51097 0.89965 0.98776 0.0
C801 C 0.515 0.87322 0.96829 0.0
C802 C 0.52019 0.88087 0.94005 0.0
C803 C 0.52145 0.91496 0.93123 0.0
C804 C 0.51742 0.94148 0.9506 0.0
C805 C 0.60306 0.07094 0.04533 0.0
C806 C 0.612 0.08814 0.02051 0.0
C807 C 0.57605 0.0474 0.04554 0.0
C808 C 0.55727 0.04095 0.02103 0.0
C809 C 0.56553 0.05878 0.99647 0.0
C810 C 0.59258 0.08216 0.99619 0.0
C811 C 0.52981 0.01473 0.02056 0.0
C812 C 0.53229 0.98796 1.00106 0.0
C813 C 0.50174 0.01562 0.03928 0.0
C814 C 0.49708 0.04378 0.05976 0.0
C815 C 0.49564 0.07807 0.05082 0.0
C816 C 0.49142 0.10446 0.07029 0.0
C817 C 0.48839 0.09686 0.09875 0.0
C818 C 0.48945 0.06284 0.10779 0.0
C819 C 0.49367 0.03635 0.0884 0.0
H820 H 0.48513 0.11732 0.11379 0.0
H821 H 0.52328 0.86038 0.92501 0.0
H822 H 0.92754 0.61903 0.46741 0.0
H823 H 0.96475 0.5691 0.46945 0.0
H824 H 0.94116 0.55648 0.55707 0.0
H825 H 0.90474 0.60755 0.55545 0.0
H826 H 0.00708 0.54864 0.54905 0.0
H827 H 0.9063 0.50316 0.50483 0.0
H828 H 0.85969 0.50138 0.46996 0.0
H829 H 0.93366 0.4927 0.40378 0.0
H830 H 0.98074 0.49484 0.43824 0.0
H831 H 0.07611 0.37969 0.55795 0.0
H832 H 0.04023 0.43086 0.55867 0.0
H833 H 0.06398 0.44961 0.47184 0.0
H834 H 0.09933 0.39795 0.47072 0.0
H835 H 0.997 0.45354 0.4807 0.0
H836 H 0.09779 0.49942 0.52535 0.0
H837 H 0.14409 0.50105 0.56049 0.0
H838 H 0.06949 0.50823 0.62633 0.0
H839 H 0.02272 0.50619 0.59159 0.0
C840 C 0.92988 0.60545 0.48708 0.0
C841 C 0.91292 0.6171 0.51124 0.0
C842 C 0.95116 0.57681 0.48819 0.0
C843 C 0.9553 0.55864 0.51329 0.0
C844 C 0.93825 0.57005 0.53744 0.0
C845 C 0.91732 0.59911 0.53646 0.0
C846 C 0.97817 0.52829 0.51438 0.0
C847 C 0.00454 0.52756 0.53439 0.0
C848 C 0.97536 0.50116 0.49485 0.0
C849 C 0.94705 0.49941 0.47411 0.0
C850 C 0.91263 0.50106 0.48283 0.0
C851 C 0.88613 0.49996 0.46314 0.0
C852 C 0.89371 0.497 0.43467 0.0
C853 C 0.92782 0.49501 0.42584 0.0
C854 C 0.95442 0.4961 0.44544 0.0
C855 C 0.07417 0.39497 0.53909 0.0
C856 C 0.09061 0.38474 0.51425 0.0
C857 C 0.05366 0.42427 0.53957 0.0
C858 C 0.04961 0.4442 0.51536 0.0
C859 C 0.06672 0.43456 0.49075 0.0
C860 C 0.08701 0.4051 0.49017 0.0
C861 C 0.02605 0.47401 0.51521 0.0
C862 C -0.0005 0.47458 0.49539 0.0
C863 C 0.02863 0.50086 0.53499 0.0
C864 C 0.05675 0.50233 0.55588 0.0
C865 C 0.09125 0.5011 0.54733 0.0
C866 C 0.11758 0.50214 0.56718 0.0
C867 C 0.10974 0.50465 0.59563 0.0
C868 C 0.07554 0.50624 0.60429 0.0
C869 C 0.04911 0.50518 0.58453 0.0
H870 H 0.13016 0.50544 0.61096 0.0
H871 H 0.87316 0.49619 0.41946 0.0
H872 H 0.2123 0.36859 0.15979 0.0
H873 H 0.21041 0.36505 0.21073 0.0
H874 H 0.12584 0.29395 0.20548 0.0
H875 H 0.12674 0.29852 0.15442 0.0
H876 H 0.11318 0.3372 0.24472 0.0
H877 H 0.21088 0.26879 0.22193 0.0
H878 H 0.26646 0.25524 0.19994 0.0
H879 H 0.31433 0.33704 0.2456 0.0
H880 H 0.25891 0.35139 0.2676 0.0
H881 H 0.12538 0.27876 0.38572 0.0
H882 H 0.12876 0.28056 0.33463 0.0
H883 H 0.19641 0.36776 0.33943 0.0
H884 H 0.19289 0.36643 0.39062 0.0
H885 H 0.21784 0.31529 0.30104 0.0
H886 H 0.1178 0.38267 0.3234 0.0
H887 H 0.06179 0.3933 0.34576 0.0
H888 H 0.01807 0.30857 0.30089 0.0
H889 H 0.07399 0.29713 0.27856 0.0
C890 C 0.19337 0.35209 0.16946 0.0
C891 C 0.16972 0.33375 0.15306 0.0
C892 C 0.19243 0.34993 0.19864 0.0
C893 C 0.16837 0.32875 0.21206 0.0
C894 C 0.14469 0.31043 0.19568 0.0
C895 C 0.14527 0.313 0.16648 0.0
C896 C 0.16739 0.32635 0.24316 0.0
C897 C 0.13603 0.33187 0.25693 0.0
C898 C 0.19725 0.32001 0.25932 0.0
C899 C 0.23066 0.31136 0.24622 0.0
C900 C 0.23321 0.28405 0.22714 0.0
C901 C 0.26469 0.2762 0.21469 0.0
C902 C 0.29389 0.29532 0.22131 0.0
C903 C 0.29168 0.32228 0.24046 0.0
C904 C 0.26025 0.33026 0.25295 0.0
C905 C 0.14109 0.29827 0.37595 0.0
C906 C 0.15878 0.32255 0.39223 0.0
C907 C 0.1429 0.2993 0.34675 0.0
C908 C 0.16267 0.32441 0.33329 0.0
C909 C 0.181 0.3482 0.34945 0.0
C910 C 0.17885 0.34747 0.37867 0.0
C911 C 0.16376 0.32612 0.3023 0.0
C912 C 0.1951 0.3205 0.28866 0.0
C913 C 0.13384 0.33187 0.28625 0.0
C914 C 0.10017 0.33883 0.29954 0.0
C915 C 0.09632 0.36612 0.31849 0.0
C916 C 0.06457 0.37233 0.33112 0.0
C917 C 0.03641 0.35156 0.32481 0.0
C918 C 0.03992 0.3246 0.30579 0.0
C919 C 0.07162 0.31826 0.29312 0.0
H920 H 0.01186 0.35641 0.3346 0.0
H921 H 0.31824 0.2892 0.21165 0.0
H922 H 0.71735 0.13285 0.8928 0.0
H923 H 0.71701 0.13551 0.84177 0.0
H924 H 0.61981 0.18841 0.84396 0.0
H925 H 0.61931 0.18432 0.89501 0.0
H926 H 0.61696 0.14379 0.80529 0.0
H927 H 0.69994 0.22919 0.82894 0.0
H928 H 0.75151 0.25304 0.85161 0.0
H929 H 0.81474 0.18078 0.80771 0.0
H930 H 0.76347 0.15617 0.78506 0.0
H931 H 0.62327 0.20813 0.66559 0.0
H932 H 0.62649 0.20558 0.71667 0.0
H933 H 0.70337 0.12653 0.71109 0.0
H934 H 0.69983 0.12839 0.65983 0.0
H935 H 0.7173 0.18407 0.75053 0.0
H936 H 0.63102 0.10003 0.72674 0.0
H937 H 0.57819 0.08019 0.70343 0.0
H938 H 0.51969 0.15616 0.7475 0.0
H939 H 0.5723 0.17679 0.77078 0.0
C940 C 0.69599 0.14522 0.88241 0.0
C941 C 0.66838 0.15845 0.89793 0.0
C942 C 0.6959 0.1469 0.85318 0.0
C943 C 0.66865 0.16268 0.83887 0.0
C944 C 0.64114 0.17609 0.85442 0.0
C945 C 0.64092 0.17383 0.88363 0.0
C946 C 0.66827 0.16431 0.8077 0.0
C947 C 0.6388 0.15308 0.79345 0.0
C948 C 0.69691 0.17584 0.79198 0.0
C949 C 0.72781 0.19062 0.80551 0.0
C950 C 0.72481 0.21822 0.82428 0.0
C951 C 0.75399 0.2319 0.8371 0.0
C952 C 0.78637 0.21838 0.83116 0.0
C953 C 0.78964 0.1912 0.81232 0.0
C954 C 0.76053 0.17739 0.79947 0.0
C955 C 0.64096 0.19026 0.67519 0.0
C956 C 0.66123 0.16837 0.65868 0.0
C957 C 0.6427 0.18881 0.70437 0.0
C958 C 0.66508 0.16581 0.71758 0.0
C959 C 0.68594 0.14445 0.70122 0.0
C960 C 0.68378 0.14545 0.67199 0.0
C961 C 0.66609 0.16372 0.74852 0.0
C962 C 0.69561 0.17484 0.76259 0.0
C963 C 0.63733 0.15269 0.76411 0.0
C964 C 0.60565 0.14018 0.75028 0.0
C965 C 0.60694 0.11271 0.73127 0.0
C966 C 0.57703 0.10128 0.7181 0.0
C967 C 0.54562 0.11697 0.72392 0.0
C968 C 0.54404 0.14406 0.74299 0.0
C969 C 0.5739 0.15561 0.75619 0.0
H970 H 0.52248 0.10808 0.71371 0.0
H971 H 0.80893 0.22901 0.84111 0.0
H972 H 0.82971 0.61945 0.38785 0.0
H973 H 0.82465 0.61756 0.33692 0.0
H974 H 0.85455 0.72381 0.33213 0.0
H975 H 0.85889 0.72614 0.38309 0.0
H976 H 0.80366 0.71207 0.29722 0.0
H977 H 0.91128 0.65884 0.31697 0.0
H978 H 0.95082 0.61813 0.33965 0.0
H979 H 0.8957 0.53375 0.30354 0.0
H980 H 0.8555 0.57399 0.28095 0.0
H981 H 0.85683 0.71069 0.15295 0.0
H982 H 0.85854 0.71265 0.20424 0.0
H983 H 0.80204 0.61782 0.2081 0.0
H984 H 0.7994 0.61612 0.15686 0.0
H985 H 0.86608 0.62349 0.24286 0.0
H986 H 0.75858 0.67961 0.22276 0.0
H987 H 0.72177 0.72226 0.19943 0.0
H988 H 0.78096 0.80374 0.23568 0.0
H989 H 0.81851 0.76151 0.25888 0.0
C990 C 0.83514 0.64245 0.37598 0.0
C991 C 0.84489 0.6729 0.38954 0.0
C992 C 0.83238 0.64129 0.34683 0.0
C993 C 0.83972 0.67041 0.33063 0.0
C994 C 0.84883 0.701 0.34416 0.0
C995 C 0.8514 0.70225 0.37331 0.0
C996 C 0.83809 0.66895 0.29958 0.0
C997 C 0.81765 0.69293 0.28537 0.0
C998 C 0.85598 0.64372 0.28404 0.0
C999 C 0.88016 0.61943 0.29751 0.0
C1000 C 0.90742 0.6316 0.31404 0.0
C1001 C 0.92998 0.60861 0.32686 0.0
C1002 C 0.92571 0.57337 0.32311 0.0
C1003 C 0.89893 0.56106 0.30647 0.0
C1004 C 0.87627 0.58394 0.29363 0.0
C1005 C 0.84474 0.69029 0.16474 0.0
C1006 C 0.82794 0.66327 0.15095 0.0
C1007 C 0.84569 0.69149 0.19397 0.0
C1008 C 0.8304 0.66538 0.20983 0.0
C1009 C 0.81397 0.63817 0.19615 0.0
C1010 C 0.81237 0.63734 0.16694 0.0
C1011 C 0.83166 0.66648 0.24075 0.0
C1012 C 0.85209 0.64251 0.25485 0.0
C1013 C 0.81417 0.69197 0.25615 0.0
C1014 C 0.79161 0.7174 0.24228 0.0
C1015 C 0.76399 0.70662 0.22551 0.0
C1016 C 0.74293 0.73071 0.21237 0.0
C1017 C 0.74909 0.76569 0.21599 0.0
C1018 C 0.77627 0.77664 0.23284 0.0
C1019 C 0.79743 0.75263 0.24601 0.0
H1020 H 0.73275 0.78431 0.20581 0.0
H1021 H 0.9432 0.55561 0.33305 0.0
H1022 H 0.27908 0.86018 0.88166 0.0
H1023 H 0.28147 0.85567 0.83076 0.0
H1024 H 0.37795 0.80201 0.83676 0.0
H1025 H 0.37616 0.8072 0.88772 0.0
H1026 H 0.38153 0.84814 0.79701 0.0
H1027 H 0.30166 0.76016 0.82118 0.0
H1028 H 0.25051 0.73508 0.84357 0.0
H1029 H 0.18558 0.80288 0.79669 0.0
H1030 H 0.23641 0.82873 0.7743 0.0
H1031 H 0.38208 0.78298 0.65727 0.0
H1032 H 0.37828 0.78578 0.70837 0.0
H1033 H 0.29508 0.85808 0.70184 0.0
H1034 H 0.29911 0.85593 0.65068 0.0
H1035 H 0.28461 0.80182 0.7413 0.0
H1036 H 0.36635 0.88973 0.71772 0.0
H1037 H 0.41829 0.9127 0.69503 0.0
H1038 H 0.48066 0.84149 0.74085 0.0
H1039 H 0.42898 0.81773 0.76352 0.0
C1040 C 0.30077 0.8473 0.87219 0.0
C1041 C 0.32741 0.834 0.88879 0.0
C1042 C 0.30202 0.8446 0.84304 0.0
C1043 C 0.32968 0.82811 0.82986 0.0
C1044 C 0.35633 0.81483 0.84641 0.0
C1045 C 0.35521 0.81774 0.87557 0.0
C1046 C 0.33118 0.82538 0.79883 0.0
C1047 C 0.36051 0.83753 0.78492 0.0
C1048 C 0.30352 0.81214 0.78289 0.0
C1049 C 0.27288 0.79662 0.79627 0.0
C1050 C 0.27649 0.76992 0.81581 0.0
C1051 C 0.24755 0.75553 0.82847 0.0
C1052 C 0.21482 0.76744 0.82161 0.0
C1053 C 0.21096 0.79372 0.80201 0.0
C1054 C 0.23982 0.80823 0.78931 0.0
C1055 C 0.36291 0.79941 0.6667 0.0
C1056 C 0.34097 0.81934 0.64996 0.0
C1057 C 0.36083 0.80102 0.69587 0.0
C1058 C 0.33648 0.82221 0.70882 0.0
C1059 C 0.31404 0.84157 0.6922 0.0
C1060 C 0.31649 0.84043 0.66301 0.0
C1061 C 0.33486 0.82454 0.73974 0.0
C1062 C 0.30557 0.81233 0.75353 0.0
C1063 C 0.36264 0.83739 0.75561 0.0
C1064 C 0.39376 0.85169 0.74207 0.0
C1065 C 0.39111 0.87874 0.72276 0.0
C1066 C 0.4205 0.89195 0.70994 0.0
C1067 C 0.45275 0.87849 0.71643 0.0
C1068 C 0.45566 0.85185 0.73581 0.0
C1069 C 0.42632 0.83851 0.74866 0.0
H1070 H 0.47548 0.88876 0.7065 0.0
H1071 H 0.19244 0.75626 0.83143 0.0
H1072 H 0.77069 0.70478 0.87817 0.0
H1073 H 0.7834 0.708 0.82826 0.0
H1074 H 0.85537 0.62467 0.83659 0.0
H1075 H 0.84281 0.62148 0.88684 0.0
H1076 H 0.87983 0.67442 0.80194 0.0
H1077 H 0.7771 0.60927 0.81004 0.0
H1078 H 0.71867 0.59585 0.82649 0.0
H1079 H 0.68004 0.68597 0.78578 0.0
H1080 H 0.73834 0.70023 0.76943 0.0
H1081 H 0.88328 0.6628 0.65166 0.0
H1082 H 0.87592 0.64616 0.70078 0.0
H1083 H 0.80384 0.72881 0.71225 0.0
H1084 H 0.81055 0.74506 0.66323 0.0
H1085 H 0.78151 0.66916 0.73609 0.0
H1086 H 0.88598 0.73695 0.733 0.0
H1087 H 0.94462 0.7501 0.71684 0.0
H1088 H 0.97989 0.6531 0.74789 0.0
H1089 H 0.92131 0.63919 0.76391 0.0
C1090 C 0.78943 0.68732 0.86941 0.0
C1091 C 0.80598 0.6631 0.8864 0.0
C1092 C 0.79658 0.68908 0.84089 0.0
C1093 C 0.81991 0.66619 0.82863 0.0
C1094 C 0.83727 0.64256 0.84566 0.0
C1095 C 0.83025 0.64092 0.87436 0.0
C1096 C 0.82531 0.66677 0.79793 0.0
C1097 C 0.85845 0.67259 0.78748 0.0
C1098 C 0.79737 0.66456 0.77908 0.0
C1099 C 0.76216 0.65593 0.78865 0.0
C1100 C 0.75619 0.62635 0.80474 0.0
C1101 C 0.72308 0.61857 0.81403 0.0
C1102 C 0.69567 0.64007 0.80722 0.0
C1103 C 0.7013 0.66934 0.79105 0.0
C1104 C 0.73437 0.67726 0.78173 0.0
C1105 C 0.86533 0.67692 0.66451 0.0
C1106 C 0.84707 0.70491 0.65354 0.0
C1107 C 0.86147 0.66765 0.69263 0.0
C1108 C 0.83941 0.68633 0.71015 0.0
C1109 C 0.8209 0.71398 0.69907 0.0
C1110 C 0.82487 0.72332 0.67111 0.0
C1111 C 0.83581 0.67788 0.74022 0.0
C1112 C 0.80296 0.67045 0.75052 0.0
C1113 C 0.86403 0.67843 0.75885 0.0
C1114 C 0.89922 0.68686 0.74933 0.0
C1115 C 0.90619 0.71831 0.73616 0.0
C1116 C 0.93942 0.72593 0.72708 0.0
C1117 C 0.96594 0.7024 0.73126 0.0
C1118 C 0.95931 0.67126 0.74462 0.0
C1119 C 0.92611 0.6635 0.75371 0.0
H1120 H 0.99165 0.70835 0.72421 0.0
H1121 H 0.67006 0.63401 0.81444 0.0
H1122 H 0.38078 0.83685 0.38609 0.0
H1123 H 0.37523 0.8509 0.33632 0.0
H1124 H 0.29786 0.77259 0.32733 0.0
H1125 H 0.3033 0.75852 0.37685 0.0
H1126 H 0.34466 0.76739 0.28723 0.0
H1127 H 0.27776 0.85862 0.32848 0.0
H1128 H 0.2681 0.90824 0.35942 0.0
H1129 H 0.34824 0.96366 0.31756 0.0
H1130 H 0.35869 0.91415 0.2866 0.0
H1131 H 0.25766 0.80384 0.16245 0.0
H1132 H 0.27411 0.79701 0.21144 0.0
H1133 H 0.35382 0.87259 0.20099 0.0
H1134 H 0.33708 0.87991 0.15182 0.0
H1135 H 0.31478 0.88203 0.24968 0.0
H1136 H 0.37713 0.79224 0.20511 0.0
H1137 H 0.38541 0.74268 0.17387 0.0
H1138 H 0.31299 0.68437 0.22198 0.0
H1139 H 0.30387 0.73377 0.25329 0.0
C1140 C 0.36202 0.82323 0.37364 0.0
C1141 C 0.34206 0.79694 0.38546 0.0
C1142 C 0.35903 0.83112 0.34516 0.0
C1143 C 0.33599 0.8129 0.32812 0.0
C1144 C 0.31589 0.7869 0.34003 0.0
C1145 C 0.31896 0.77895 0.36834 0.0
C1146 C 0.33327 0.81986 0.29766 0.0
C1147 C 0.33789 0.79241 0.27906 0.0
C1148 C 0.32561 0.85277 0.28691 0.0
C1149 C 0.31928 0.88254 0.30546 0.0
C1150 C 0.29352 0.88128 0.32603 0.0
C1151 C 0.28787 0.9094 0.34354 0.0
C1152 C 0.30762 0.93904 0.34052 0.0
C1153 C 0.33301 0.94066 0.31992 0.0
C1154 C 0.3388 0.91258 0.30238 0.0
C1155 C 0.27879 0.81892 0.17055 0.0
C1156 C 0.29653 0.8419 0.1532 0.0
C1157 C 0.28823 0.8149 0.19849 0.0
C1158 C 0.31548 0.83396 0.20972 0.0
C1159 C 0.33292 0.85744 0.19262 0.0
C1160 C 0.3236 0.86129 0.1645 0.0
C1161 C 0.32516 0.82931 0.23946 0.0
C1162 C 0.322 0.85714 0.25787 0.0
C1163 C 0.33407 0.79672 0.25012 0.0
C1164 C 0.33965 0.76682 0.23144 0.0
C1165 C 0.36278 0.76894 0.20892 0.0
C1166 C 0.36765 0.74086 0.19121 0.0
C1167 C 0.34969 0.71042 0.19591 0.0
C1168 C 0.32688 0.70798 0.21836 0.0
C1169 C 0.32188 0.736 0.23612 0.0
H1170 H 0.3535 0.68871 0.18217 0.0
H1171 H 0.3032 0.96079 0.35409 0.0
H1172 H 0.19844 0.3145 0.6497 0.0
H1173 H 0.2091 0.32904 0.69898 0.0
H1174 H 0.10579 0.29888 0.71985 0.0
H1175 H 0.09535 0.28354 0.67071 0.0
H1176 H 0.13518 0.36606 0.74519 0.0
H1177 H 0.15507 0.24333 0.7333 0.0
H1178 H 0.18188 0.194 0.70962 0.0
H1179 H 0.2819 0.23432 0.72797 0.0
H1180 H 0.25562 0.28418 0.7514 0.0
H1181 H 0.15052 0.35503 0.89218 0.0
H1182 H 0.13634 0.34521 0.84353 0.0
H1183 H 0.24343 0.32939 0.82471 0.0
H1184 H 0.25749 0.3356 0.87387 0.0
H1185 H 0.21092 0.28614 0.79715 0.0
H1186 H 0.19592 0.40679 0.80945 0.0
H1187 H 0.17333 0.45969 0.8308 0.0
H1188 H 0.07063 0.42943 0.80962 0.0
H1189 H 0.09259 0.37612 0.78845 0.0
C1190 C 0.17786 0.31174 0.66476 0.0
C1191 C 0.14599 0.29835 0.65659 0.0
C1192 C 0.18398 0.31988 0.69281 0.0
C1193 C 0.15815 0.3151 0.7129 0.0
C1194 C 0.12589 0.30294 0.70455 0.0
C1195 C 0.12 0.29414 0.67662 0.0
C1196 C 0.16565 0.32026 0.74291 0.0
C1197 C 0.15143 0.3485 0.75677 0.0
C1198 C 0.18762 0.29781 0.75757 0.0
C1199 C 0.20339 0.26763 0.74382 0.0
C1200 C 0.18277 0.24182 0.73206 0.0
C1201 C 0.19787 0.21374 0.71873 0.0
C1202 C 0.23357 0.21107 0.71722 0.0
C1203 C 0.25425 0.23644 0.72912 0.0
C1204 C 0.23927 0.2646 0.74245 0.0
C1205 C 0.17108 0.34828 0.87819 0.0
C1206 C 0.20517 0.34513 0.88759 0.0
C1207 C 0.16294 0.34354 0.84992 0.0
C1208 C 0.18882 0.33697 0.83016 0.0
C1209 C 0.22286 0.33427 0.83942 0.0
C1210 C 0.23088 0.3381 0.86769 0.0
C1211 C 0.18065 0.33233 0.79994 0.0
C1212 C 0.1947 0.30399 0.78586 0.0
C1213 C 0.15916 0.35526 0.78496 0.0
C1214 C 0.14587 0.38731 0.79763 0.0
C1215 C 0.1685 0.41131 0.80953 0.0
C1216 C 0.15581 0.44138 0.82157 0.0
C1217 C 0.12056 0.44787 0.82164 0.0
C1218 C 0.09793 0.42435 0.80959 0.0
C1219 C 0.11048 0.39421 0.79755 0.0
H1220 H 0.11079 0.47117 0.83097 0.0
H1221 H 0.24521 0.18932 0.70689 0.0
H1222 H 0.65687 0.18962 0.15501 0.0
H1223 H 0.64025 0.19858 0.20359 0.0
H1224 H 0.72064 0.13016 0.23047 0.0
H1225 H 0.73604 0.11941 0.1818 0.0
H1226 H 0.66567 0.11974 0.26109 0.0
H1227 H 0.72969 0.21892 0.23155 0.0
H1228 H 0.74281 0.26853 0.20146 0.0
H1229 H 0.64457 0.31246 0.22051 0.0
H1230 H 0.63068 0.26286 0.25045 0.0
H1231 H 0.68661 0.1765 0.4017 0.0
H1232 H 0.69398 0.16174 0.35226 0.0
H1233 H 0.60955 0.22812 0.33061 0.0
H1234 H 0.60219 0.24292 0.38007 0.0
H1235 H 0.66298 0.23889 0.29711 0.0
H1236 H 0.60108 0.14025 0.32957 0.0
H1237 H 0.58996 0.09101 0.36059 0.0
H1238 H 0.68627 0.04622 0.33688 0.0
H1239 H 0.69821 0.09546 0.30603 0.0
C1240 C 0.67032 0.17555 0.17106 0.0
C1241 C 0.69737 0.1532 0.16434 0.0
C1242 C 0.66117 0.18122 0.19899 0.0
C1243 C 0.67943 0.16534 0.22077 0.0
C1244 C 0.7061 0.14267 0.21408 0.0
C1245 C 0.71502 0.13673 0.18621 0.0
C1246 C 0.67164 0.17309 0.25055 0.0
C1247 C 0.66538 0.14578 0.26901 0.0
C1248 C 0.67062 0.20709 0.26086 0.0
C1249 C 0.67901 0.23702 0.243 0.0
C1250 C 0.71079 0.23905 0.22917 0.0
C1251 C 0.71838 0.26718 0.21216 0.0
C1252 C 0.6945 0.29358 0.20901 0.0
C1253 C 0.66302 0.29196 0.22293 0.0
C1254 C 0.65528 0.26386 0.23993 0.0
C1255 C 0.66909 0.18721 0.38644 0.0
C1256 C 0.64324 0.21011 0.3947 0.0
C1257 C 0.67342 0.17893 0.3582 0.0
C1258 C 0.65195 0.1934 0.33775 0.0
C1259 C 0.62629 0.21651 0.34602 0.0
C1260 C 0.62206 0.22488 0.37423 0.0
C1261 C 0.65713 0.18556 0.30765 0.0
C1262 C 0.66298 0.21286 0.28915 0.0
C1263 C 0.658 0.15156 0.29738 0.0
C1264 C 0.65066 0.1217 0.31565 0.0
C1265 C 0.61999 0.12001 0.33111 0.0
C1266 C 0.61353 0.09208 0.34864 0.0
C1267 C 0.63742 0.06554 0.35075 0.0
C1268 C 0.66779 0.06682 0.33525 0.0
C1269 C 0.6744 0.09471 0.31771 0.0
H1270 H 0.63238 0.04395 0.36436 0.0
H1271 H 0.70042 0.31534 0.19583 0.0
loop_
_geom_bond_atom_site_label_1
_geom_bond_atom_site_label_2
_geom_bond_distance
_geom_bond_site_symmetry_2
_ccdc_geom_bond_type
Co0 O3 1.970 . S
Co0 N17 1.989 . S
Co0 O25 1.967 . S
Co0 O32 1.920 . S
Co1 O4 1.966 1_556 S
Co1 N10 2.022 . S
Co1 N18 1.993 1_556 S
Co1 O26 1.941 1_556 S
C2 O3 1.258 . S
C2 O4 1.263 . S
O3 Co0 1.970 . S
O3 C2 1.258 . S
O4 Co1 1.966 1_554 S
O4 C2 1.263 . S
C5 O6 1.235 . S
C5 O32 1.289 . S
O6 C5 1.235 . S
C7 C9 1.400 . S
C7 N10 1.351 . S
C7 C12 1.501 . S
C8 C9 1.387 . S
C8 N11 1.341 . S
C9 C7 1.400 . S
C9 C8 1.387 . S
N10 Co1 2.022 . S
N10 C7 1.351 . S
N10 N11 1.365 . S
N11 C8 1.341 . S
N11 N10 1.365 . S
N11 H31 0.862 . S
C12 C7 1.501 . S
C12 H13 0.961 . S
C12 H14 0.961 . S
C12 H15 0.960 . S
H13 C12 0.961 . S
H14 C12 0.961 . S
H15 C12 0.960 . S
C16 N17 1.342 . S
C16 C20 1.401 . S
C16 C21 1.499 . S
N17 Co0 1.989 . S
N17 C16 1.342 . S
N17 N18 1.388 . S
N18 Co1 1.993 1_554 S
N18 N17 1.388 . S
N18 C19 1.346 . S
C19 N18 1.346 . S
C19 C20 1.396 . S
C19 C29 1.510 1_554 S
C20 C16 1.401 . S
C20 C19 1.396 . S
C21 C16 1.499 . S
C21 H22 0.959 . S
C21 H23 0.960 . S
C21 H24 0.961 . S
H22 C21 0.959 . S
H23 C21 0.960 . S
H24 C21 0.961 . S
O25 Co0 1.967 . S
O25 C33 1.258 . S
O26 Co1 1.941 1_554 S
O26 C33 1.266 . S
H27 C29 0.959 . S
H28 C29 0.961 . S
C29 C19 1.510 1_556 S
C29 H27 0.959 . S
C29 H28 0.961 . S
C29 H30 0.960 . S
H30 C29 0.960 . S
H31 N11 0.862 . S
O32 Co0 1.920 . S
O32 C5 1.289 . S
C33 O25 1.258 . S
C33 O26 1.266 . S
Co34 O37 1.970 . S
Co34 N51 1.989 . S
Co34 O59 1.967 . S
Co34 O66 1.920 . S
Co35 O38 1.966 . S
Co35 N44 2.022 . S
Co35 N52 1.993 . S
Co35 O60 1.941 . S
C36 O37 1.258 . S
C36 O38 1.263 . S
O37 Co34 1.970 . S
O37 C36 1.258 . S
O38 Co35 1.966 . S
O38 C36 1.263 . S
C39 O40 1.235 . S
C39 O66 1.289 . S
O40 C39 1.235 . S
C41 C43 1.400 . S
C41 N44 1.351 . S
C41 C46 1.501 . S
C42 C43 1.387 . S
C42 N45 1.341 . S
C43 C41 1.400 . S
C43 C42 1.387 . S
N44 Co35 2.022 . S
N44 C41 1.351 . S
N44 N45 1.365 . S
N45 C42 1.341 . S
N45 N44 1.365 . S
N45 H65 0.862 . S
C46 C41 1.501 . S
C46 H47 0.961 . S
C46 H48 0.961 . S
C46 H49 0.960 . S
H47 C46 0.961 . S
H48 C46 0.961 . S
H49 C46 0.960 . S
C50 N51 1.342 . S
C50 C54 1.401 . S
C50 C55 1.499 . S
N51 Co34 1.989 . S
N51 C50 1.342 . S
N51 N52 1.388 . S
N52 Co35 1.993 . S
N52 N51 1.388 . S
N52 C53 1.346 . S
C53 N52 1.346 . S
C53 C54 1.396 . S
C53 C63 1.510 . S
C54 C50 1.401 . S
C54 C53 1.396 . S
C55 C50 1.499 . S
C55 H56 0.959 . S
C55 H57 0.960 . S
C55 H58 0.961 . S
H56 C55 0.959 . S
H57 C55 0.960 . S
H58 C55 0.961 . S
O59 Co34 1.967 . S
O59 C67 1.258 . S
O60 Co35 1.941 . S
O60 C67 1.266 . S
H61 C63 0.959 . S
H62 C63 0.961 . S
C63 C53 1.510 . S
C63 H61 0.959 . S
C63 H62 0.961 . S
C63 H64 0.960 . S
H64 C63 0.960 . S
H65 N45 0.862 . S
O66 Co34 1.920 . S
O66 C39 1.289 . S
C67 O59 1.258 . S
C67 O60 1.266 . S
Co68 O71 1.970 . S
Co68 N85 1.989 . S
Co68 O93 1.967 . S
Co68 O100 1.920 . S
Co69 O72 1.966 1_556 S
Co69 N78 2.022 . S
Co69 N86 1.993 1_556 S
Co69 O94 1.941 1_556 S
C70 O71 1.258 . S
C70 O72 1.263 . S
O71 Co68 1.970 . S
O71 C70 1.258 . S
O72 Co69 1.966 1_554 S
O72 C70 1.263 . S
C73 O74 1.235 . S
C73 O100 1.289 . S
O74 C73 1.235 . S
C75 C77 1.400 . S
C75 N78 1.351 . S
C75 C80 1.501 . S
C76 C77 1.387 . S
C76 N79 1.341 . S
C77 C75 1.400 . S
C77 C76 1.387 . S
N78 Co69 2.022 . S
N78 C75 1.351 . S
N78 N79 1.365 . S
N79 C76 1.341 . S
N79 N78 1.365 . S
N79 H99 0.862 . S
C80 C75 1.501 . S
C80 H81 0.961 . S
C80 H82 0.961 . S
C80 H83 0.960 . S
H81 C80 0.961 . S
H82 C80 0.961 . S
H83 C80 0.960 . S
C84 N85 1.342 . S
C84 C88 1.401 . S
C84 C89 1.499 . S
N85 Co68 1.989 . S
N85 C84 1.342 . S
N85 N86 1.388 . S
N86 Co69 1.993 1_554 S
N86 N85 1.388 . S
N86 C87 1.346 . S
C87 N86 1.346 . S
C87 C88 1.396 . S
C87 C97 1.510 1_554 S
C88 C84 1.401 . S
C88 C87 1.396 . S
C89 C84 1.499 . S
C89 H90 0.959 . S
C89 H91 0.960 . S
C89 H92 0.961 . S
H90 C89 0.959 . S
H91 C89 0.960 . S
H92 C89 0.961 . S
O93 Co68 1.967 . S
O93 C101 1.258 . S
O94 Co69 1.941 1_554 S
O94 C101 1.266 . S
H95 C97 0.959 . S
H96 C97 0.961 . S
C97 C87 1.510 1_556 S
C97 H95 0.959 . S
C97 H96 0.961 . S
C97 H98 0.960 . S
H98 C97 0.960 . S
H99 N79 0.862 . S
O100 Co68 1.920 . S
O100 C73 1.289 . S
C101 O93 1.258 . S
C101 O94 1.266 . S
Co102 O105 1.970 . S
Co102 N119 1.989 . S
Co102 O127 1.967 . S
Co102 O134 1.920 . S
Co103 O106 1.966 . S
Co103 N112 2.022 . S
Co103 N120 1.993 . S
Co103 O128 1.941 . S
C104 O105 1.258 . S
C104 O106 1.263 . S
O105 Co102 1.970 . S
O105 C104 1.258 . S
O106 Co103 1.966 . S
O106 C104 1.263 . S
C107 O108 1.235 . S
C107 O134 1.289 . S
O108 C107 1.235 . S
C109 C111 1.400 . S
C109 N112 1.351 . S
C109 C114 1.501 . S
C110 C111 1.387 . S
C110 N113 1.341 . S
C111 C109 1.400 . S
C111 C110 1.387 . S
N112 Co103 2.022 . S
N112 C109 1.351 . S
N112 N113 1.365 . S
N113 C110 1.341 . S
N113 N112 1.365 . S
N113 H133 0.862 . S
C114 C109 1.501 . S
C114 H115 0.961 . S
C114 H116 0.961 . S
C114 H117 0.960 . S
H115 C114 0.961 . S
H116 C114 0.961 . S
H117 C114 0.960 . S
C118 N119 1.342 . S
C118 C122 1.401 . S
C118 C123 1.499 . S
N119 Co102 1.989 . S
N119 C118 1.342 . S
N119 N120 1.388 . S
N120 Co103 1.993 . S
N120 N119 1.388 . S
N120 C121 1.346 . S
C121 N120 1.346 . S
C121 C122 1.396 . S
C121 C131 1.510 . S
C122 C118 1.401 . S
C122 C121 1.396 . S
C123 C118 1.499 . S
C123 H124 0.959 . S
C123 H125 0.960 . S
C123 H126 0.961 . S
H124 C123 0.959 . S
H125 C123 0.960 . S
H126 C123 0.961 . S
O127 Co102 1.967 . S
O127 C135 1.258 . S
O128 Co103 1.941 . S
O128 C135 1.266 . S
H129 C131 0.959 . S
H130 C131 0.961 . S
C131 C121 1.510 . S
C131 H129 0.959 . S
C131 H130 0.961 . S
C131 H132 0.960 . S
H132 C131 0.960 . S
H133 N113 0.862 . S
O134 Co102 1.920 . S
O134 C107 1.289 . S
C135 O127 1.258 . S
C135 O128 1.266 . S
Co136 O139 1.970 . S
Co136 N153 1.989 1_556 S
Co136 O161 1.967 . S
Co136 O168 1.920 . S
Co137 O140 1.966 . S
Co137 N146 2.022 . S
Co137 N154 1.993 . S
Co137 O162 1.941 . S
C138 O139 1.258 1_554 S
C138 O140 1.263 . S
O139 Co136 1.970 . S
O139 C138 1.258 1_556 S
O140 Co137 1.966 . S
O140 C138 1.263 . S
C141 O142 1.235 . S
C141 O168 1.289 . S
O142 C141 1.235 . S
C143 C145 1.400 . S
C143 N146 1.351 . S
C143 C148 1.501 . S
C144 C145 1.387 . S
C144 N147 1.341 . S
C145 C143 1.400 . S
C145 C144 1.387 . S
N146 Co137 2.022 . S
N146 C143 1.351 . S
N146 N147 1.365 . S
N147 C144 1.341 . S
N147 N146 1.365 . S
N147 H167 0.862 . S
C148 C143 1.501 . S
C148 H149 0.961 . S
C148 H150 0.961 . S
C148 H151 0.960 . S
H149 C148 0.961 . S
H150 C148 0.961 . S
H151 C148 0.960 . S
C152 N153 1.342 1_556 S
C152 C156 1.401 1_556 S
C152 C157 1.499 . S
N153 Co136 1.989 1_554 S
N153 C152 1.342 1_554 S
N153 N154 1.388 . S
N154 Co137 1.993 . S
N154 N153 1.388 . S
N154 C155 1.346 . S
C155 N154 1.346 . S
C155 C156 1.396 . S
C155 C165 1.510 . S
C156 C152 1.401 1_554 S
C156 C155 1.396 . S
C157 C152 1.499 . S
C157 H158 0.959 . S
C157 H159 0.960 . S
C157 H160 0.961 . S
H158 C157 0.959 . S
H159 C157 0.960 . S
H160 C157 0.961 . S
O161 Co136 1.967 . S
O161 C169 1.258 1_556 S
O162 Co137 1.941 . S
O162 C169 1.266 . S
H163 C165 0.959 . S
H164 C165 0.961 . S
C165 C155 1.510 . S
C165 H163 0.959 . S
C165 H164 0.961 . S
C165 H166 0.960 . S
H166 C165 0.960 . S
H167 N147 0.862 . S
O168 Co136 1.920 . S
O168 C141 1.289 . S
C169 O161 1.258 1_554 S
C169 O162 1.266 . S
Co170 O173 1.970 . S
Co170 N187 1.989 . S
Co170 O195 1.967 . S
Co170 O202 1.920 . S
Co171 O174 1.966 . S
Co171 N180 2.022 . S
Co171 N188 1.993 . S
Co171 O196 1.941 . S
C172 O173 1.258 . S
C172 O174 1.263 . S
O173 Co170 1.970 . S
O173 C172 1.258 . S
O174 Co171 1.966 . S
O174 C172 1.263 . S
C175 O176 1.235 . S
C175 O202 1.289 . S
O176 C175 1.235 . S
C177 C179 1.400 . S
C177 N180 1.351 . S
C177 C182 1.501 . S
C178 C179 1.387 . S
C178 N181 1.341 . S
C179 C177 1.400 . S
C179 C178 1.387 . S
N180 Co171 2.022 . S
N180 C177 1.351 . S
N180 N181 1.365 . S
N181 C178 1.341 . S
N181 N180 1.365 . S
N181 H201 0.862 . S
C182 C177 1.501 . S
C182 H183 0.961 . S
C182 H184 0.961 . S
C182 H185 0.960 . S
H183 C182 0.961 . S
H184 C182 0.961 . S
H185 C182 0.960 . S
C186 N187 1.342 . S
C186 C190 1.401 . S
C186 C191 1.499 . S
N187 Co170 1.989 . S
N187 C186 1.342 . S
N187 N188 1.388 . S
N188 Co171 1.993 . S
N188 N187 1.388 . S
N188 C189 1.346 . S
C189 N188 1.346 . S
C189 C190 1.396 . S
C189 C199 1.510 . S
C190 C186 1.401 . S
C190 C189 1.396 . S
C191 C186 1.499 . S
C191 H192 0.959 . S
C191 H193 0.960 . S
C191 H194 0.961 . S
H192 C191 0.959 . S
H193 C191 0.960 . S
H194 C191 0.961 . S
O195 Co170 1.967 . S
O195 C203 1.258 . S
O196 Co171 1.941 . S
O196 C203 1.266 . S
H197 C199 0.959 . S
H198 C199 0.961 . S
C199 C189 1.510 . S
C199 H197 0.959 . S
C199 H198 0.961 . S
C199 H200 0.960 . S
H200 C199 0.960 . S
H201 N181 0.862 . S
O202 Co170 1.920 . S
O202 C175 1.289 . S
C203 O195 1.258 . S
C203 O196 1.266 . S
Co204 O207 1.970 . S
Co204 N221 1.989 1_556 S
Co204 O229 1.967 . S
Co204 O236 1.920 . S
Co205 O208 1.966 . S
Co205 N214 2.022 . S
Co205 N222 1.993 . S
Co205 O230 1.941 . S
C206 O207 1.258 1_554 S
C206 O208 1.263 . S
O207 Co204 1.970 . S
O207 C206 1.258 1_556 S
O208 Co205 1.966 . S
O208 C206 1.263 . S
C209 O210 1.235 . S
C209 O236 1.289 . S
O210 C209 1.235 . S
C211 C213 1.400 . S
C211 N214 1.351 . S
C211 C216 1.501 . S
C212 C213 1.387 . S
C212 N215 1.341 . S
C213 C211 1.400 . S
C213 C212 1.387 . S
N214 Co205 2.022 . S
N214 C211 1.351 . S
N214 N215 1.365 . S
N215 C212 1.341 . S
N215 N214 1.365 . S
N215 H235 0.862 . S
C216 C211 1.501 . S
C216 H217 0.961 . S
C216 H218 0.961 . S
C216 H219 0.960 . S
H217 C216 0.961 . S
H218 C216 0.961 . S
H219 C216 0.960 . S
C220 N221 1.342 1_556 S
C220 C224 1.401 1_556 S
C220 C225 1.499 . S
N221 Co204 1.989 1_554 S
N221 C220 1.342 1_554 S
N221 N222 1.388 . S
N222 Co205 1.993 . S
N222 N221 1.388 . S
N222 C223 1.346 . S
C223 N222 1.346 . S
C223 C224 1.396 . S
C223 C233 1.510 . S
C224 C220 1.401 1_554 S
C224 C223 1.396 . S
C225 C220 1.499 . S
C225 H226 0.959 . S
C225 H227 0.960 . S
C225 H228 0.961 . S
H226 C225 0.959 . S
H227 C225 0.960 . S
H228 C225 0.961 . S
O229 Co204 1.967 . S
O229 C237 1.258 1_556 S
O230 Co205 1.941 . S
O230 C237 1.266 . S
H231 C233 0.959 . S
H232 C233 0.961 . S
C233 C223 1.510 . S
C233 H231 0.959 . S
C233 H232 0.961 . S
C233 H234 0.960 . S
H234 C233 0.960 . S
H235 N215 0.862 . S
O236 Co204 1.920 . S
O236 C209 1.289 . S
C237 O229 1.258 1_554 S
C237 O230 1.266 . S
Co238 O241 1.970 . S
Co238 N255 1.989 . S
Co238 O263 1.967 . S
Co238 O270 1.920 . S
Co239 O242 1.966 . S
Co239 N248 2.022 . S
Co239 N256 1.993 . S
Co239 O264 1.941 . S
C240 O241 1.258 . S
C240 O242 1.263 . S
O241 Co238 1.970 . S
O241 C240 1.258 . S
O242 Co239 1.966 . S
O242 C240 1.263 . S
C243 O244 1.235 . S
C243 O270 1.289 . S
O244 C243 1.235 . S
C245 C247 1.400 . S
C245 N248 1.351 . S
C245 C250 1.501 . S
C246 C247 1.387 . S
C246 N249 1.341 . S
C247 C245 1.400 . S
C247 C246 1.387 . S
N248 Co239 2.022 . S
N248 C245 1.351 . S
N248 N249 1.365 . S
N249 C246 1.341 . S
N249 N248 1.365 . S
N249 H269 0.862 . S
C250 C245 1.501 . S
C250 H251 0.961 . S
C250 H252 0.961 . S
C250 H253 0.960 . S
H251 C250 0.961 . S
H252 C250 0.961 . S
H253 C250 0.960 . S
C254 N255 1.342 . S
C254 C258 1.401 . S
C254 C259 1.499 . S
N255 Co238 1.989 . S
N255 C254 1.342 . S
N255 N256 1.388 . S
N256 Co239 1.993 . S
N256 N255 1.388 . S
N256 C257 1.346 . S
C257 N256 1.346 . S
C257 C258 1.396 . S
C257 C267 1.510 . S
C258 C254 1.401 . S
C258 C257 1.396 . S
C259 C254 1.499 . S
C259 H260 0.959 . S
C259 H261 0.960 . S
C259 H262 0.961 . S
H260 C259 0.959 . S
H261 C259 0.960 . S
H262 C259 0.961 . S
O263 Co238 1.967 . S
O263 C271 1.258 . S
O264 Co239 1.941 . S
O264 C271 1.266 . S
H265 C267 0.959 . S
H266 C267 0.961 . S
C267 C257 1.510 . S
C267 H265 0.959 . S
C267 H266 0.961 . S
C267 H268 0.960 . S
H268 C267 0.960 . S
H269 N249 0.862 . S
O270 Co238 1.920 . S
O270 C243 1.289 . S
C271 O263 1.258 . S
C271 O264 1.266 . S
H272 C290 0.951 . S
H273 C292 0.951 . S
H274 C294 0.950 . S
H275 C295 0.950 . S
H276 C297 0.950 . S
H277 C300 0.950 . S
H278 C301 0.950 . S
H279 C303 0.950 . S
H280 C304 0.950 . S
H281 C305 0.951 1_556 S
H282 C307 0.951 1_556 S
H283 C309 0.950 . S
H284 C310 0.950 . S
H285 C312 0.950 . S
H286 C315 0.950 . S
H287 C316 0.950 . S
H288 C318 0.950 . S
H289 C319 0.950 . S
C290 H272 0.951 . S
C290 C291 1.366 . S
C290 C292 1.388 1_565 S
C291 C290 1.366 . S
C291 C295 1.385 1_554 S
C292 H273 0.951 . S
C292 C290 1.388 1_545 S
C292 C293 1.366 . S
C293 C292 1.366 . S
C293 C294 1.414 1_554 S
C293 C296 1.499 . S
C294 H274 0.950 . S
C294 C293 1.414 1_556 S
C294 C295 1.374 1_545 S
C295 H275 0.950 . S
C295 C291 1.385 1_556 S
C295 C294 1.374 1_565 S
C296 C293 1.499 . S
C296 C297 1.373 . S
C296 C298 1.389 . S
C297 H276 0.950 . S
C297 C296 1.373 . S
C297 C313 1.377 . S
C298 C296 1.389 . S
C298 C299 1.524 . S
C298 C312 1.377 . S
C299 C298 1.524 . S
C299 C300 1.397 1_554 S
C299 C304 1.363 . S
C300 H277 0.950 . S
C300 C299 1.397 1_556 S
C300 C301 1.334 . S
C301 H278 0.950 . S
C301 C300 1.334 . S
C301 C302 1.287 . S
C302 C301 1.287 . S
C302 C303 1.524 1_556 S
C302 H321 0.913 . S
C303 H279 0.950 . S
C303 C302 1.524 1_554 S
C303 C304 1.415 . S
C304 H280 0.950 . S
C304 C299 1.363 . S
C304 C303 1.415 . S
C305 H281 0.951 1_554 S
C305 C306 1.366 . S
C305 C307 1.388 . S
C306 C305 1.366 . S
C306 C310 1.385 . S
C307 H282 0.951 1_554 S
C307 C305 1.388 . S
C307 C308 1.366 . S
C308 C307 1.366 . S
C308 C309 1.414 . S
C308 C311 1.499 . S
C309 H283 0.950 . S
C309 C308 1.414 . S
C309 C310 1.374 . S
C310 H284 0.950 . S
C310 C306 1.385 . S
C310 C309 1.374 . S
C311 C308 1.499 . S
C311 C312 1.373 . S
C311 C313 1.389 . S
C312 H285 0.950 . S
C312 C298 1.377 . S
C312 C311 1.373 . S
C313 C297 1.377 . S
C313 C311 1.389 . S
C313 C314 1.524 . S
C314 C313 1.524 . S
C314 C315 1.397 . S
C314 C319 1.363 . S
C315 H286 0.950 . S
C315 C314 1.397 . S
C315 C316 1.334 . S
C316 H287 0.950 . S
C316 C315 1.334 . S
C316 C317 1.287 . S
C317 C316 1.287 . S
C317 C318 1.524 . S
C317 H320 0.999 . S
C318 H288 0.950 . S
C318 C317 1.524 . S
C318 C319 1.415 . S
C319 H289 0.950 . S
C319 C314 1.363 . S
C319 C318 1.415 . S
H320 C317 0.999 . S
H321 C302 0.913 . S
H322 C340 0.951 . S
H323 C342 0.951 . S
H324 C344 0.950 . S
H325 C345 0.950 . S
H326 C347 0.950 . S
H327 C350 0.950 . S
H328 C351 0.950 . S
H329 C353 0.950 . S
H330 C354 0.950 . S
H331 C355 0.951 . S
H332 C357 0.951 . S
H333 C359 0.950 . S
H334 C360 0.950 . S
H335 C362 0.950 . S
H336 C365 0.950 . S
H337 C366 0.950 . S
H338 C368 0.950 . S
H339 C369 0.950 . S
C340 H322 0.951 . S
C340 C341 1.366 . S
C340 C342 1.388 1_455 S
C341 C340 1.366 . S
C341 C345 1.385 . S
C342 H323 0.951 . S
C342 C340 1.388 1_655 S
C342 C343 1.366 . S
C343 C342 1.366 . S
C343 C344 1.414 . S
C343 C346 1.499 . S
C344 H324 0.950 . S
C344 C343 1.414 . S
C344 C345 1.374 1_655 S
C345 H325 0.950 . S
C345 C341 1.385 . S
C345 C344 1.374 1_455 S
C346 C343 1.499 . S
C346 C347 1.373 . S
C346 C348 1.389 . S
C347 H326 0.950 . S
C347 C346 1.373 . S
C347 C363 1.377 . S
C348 C346 1.389 . S
C348 C349 1.524 . S
C348 C362 1.377 . S
C349 C348 1.524 . S
C349 C350 1.397 . S
C349 C354 1.363 . S
C350 H327 0.950 . S
C350 C349 1.397 . S
C350 C351 1.334 . S
C351 H328 0.950 . S
C351 C350 1.334 . S
C351 C352 1.287 . S
C352 C351 1.287 . S
C352 C353 1.524 . S
C352 H371 0.913 . S
C353 H329 0.950 . S
C353 C352 1.524 . S
C353 C354 1.415 . S
C354 H330 0.950 . S
C354 C349 1.363 . S
C354 C353 1.415 . S
C355 H331 0.951 . S
C355 C356 1.366 . S
C355 C357 1.388 . S
C356 C355 1.366 . S
C356 C360 1.385 . S
C357 H332 0.951 . S
C357 C355 1.388 . S
C357 C358 1.366 . S
C358 C357 1.366 . S
C358 C359 1.414 . S
C358 C361 1.499 . S
C359 H333 0.950 . S
C359 C358 1.414 . S
C359 C360 1.374 . S
C360 H334 0.950 . S
C360 C356 1.385 . S
C360 C359 1.374 . S
C361 C358 1.499 . S
C361 C362 1.373 . S
C361 C363 1.389 . S
C362 H335 0.950 . S
C362 C348 1.377 . S
C362 C361 1.373 . S
C363 C347 1.377 . S
C363 C361 1.389 . S
C363 C364 1.524 . S
C364 C363 1.524 . S
C364 C365 1.397 . S
C364 C369 1.363 . S
C365 H336 0.950 . S
C365 C364 1.397 . S
C365 C366 1.334 . S
C366 H337 0.950 . S
C366 C365 1.334 . S
C366 C367 1.287 . S
C367 C366 1.287 . S
C367 C368 1.524 . S
C367 H370 0.999 . S
C368 H338 0.950 . S
C368 C367 1.524 . S
C368 C369 1.415 . S
C369 H339 0.950 . S
C369 C364 1.363 . S
C369 C368 1.415 . S
H370 C367 0.999 . S
H371 C352 0.913 . S
H372 C390 0.951 . S
H373 C392 0.951 . S
H374 C394 0.950 . S
H375 C395 0.950 . S
H376 C397 0.950 . S
H377 C400 0.950 1_554 S
H378 C401 0.950 . S
H379 C403 0.950 . S
H380 C404 0.950 . S
H381 C405 0.951 . S
H382 C407 0.951 . S
H383 C409 0.950 . S
H384 C410 0.950 . S
H385 C412 0.929 1_556 S
H386 C415 0.950 . S
H387 C416 0.950 . S
H388 C418 0.950 . S
H389 C419 0.950 . S
C390 H372 0.951 . S
C390 C391 1.366 1_556 S
C390 C392 1.388 1_545 S
C391 C390 1.366 1_554 S
C391 C395 1.385 . S
C392 H373 0.951 . S
C392 C390 1.388 1_565 S
C392 C393 1.366 1_556 S
C393 C392 1.366 1_554 S
C393 C394 1.414 . S
C393 C396 1.499 . S
C394 H374 0.950 . S
C394 C393 1.414 . S
C394 C395 1.374 1_565 S
C395 H375 0.950 . S
C395 C391 1.385 . S
C395 C394 1.374 1_545 S
C396 C393 1.499 . S
C396 C397 1.373 . S
C396 C398 1.400 . S
C397 H376 0.950 . S
C397 C396 1.373 . S
C397 C413 1.377 . S
C398 C396 1.400 . S
C398 C399 1.514 1_554 S
C398 C412 1.376 . S
C399 C398 1.514 1_556 S
C399 C400 1.397 . S
C399 C404 1.363 . S
C400 H377 0.950 1_556 S
C400 C399 1.397 . S
C400 C401 1.334 . S
C401 H378 0.950 . S
C401 C400 1.334 . S
C401 C402 1.287 . S
C402 C401 1.287 . S
C402 C403 1.524 . S
C402 H421 0.913 . S
C403 H379 0.950 . S
C403 C402 1.524 . S
C403 C404 1.415 . S
C404 H380 0.950 . S
C404 C399 1.363 . S
C404 C403 1.415 . S
C405 H381 0.951 . S
C405 C406 1.366 . S
C405 C407 1.388 . S
C406 C405 1.366 . S
C406 C410 1.385 1_554 S
C407 H382 0.951 . S
C407 C405 1.388 . S
C407 C408 1.366 . S
C408 C407 1.366 . S
C408 C409 1.414 1_554 S
C408 C411 1.499 . S
C409 H383 0.950 . S
C409 C408 1.414 1_556 S
C409 C410 1.374 . S
C410 H384 0.950 . S
C410 C406 1.385 1_556 S
C410 C409 1.374 . S
C411 C408 1.499 . S
C411 C412 1.395 . S
C411 C413 1.389 . S
C412 H385 0.929 1_554 S
C412 C398 1.376 . S
C412 C411 1.395 . S
C413 C397 1.377 . S
C413 C411 1.389 . S
C413 C414 1.524 . S
C414 C413 1.524 . S
C414 C415 1.397 . S
C414 C419 1.363 . S
C415 H386 0.950 . S
C415 C414 1.397 . S
C415 C416 1.334 . S
C416 H387 0.950 . S
C416 C415 1.334 . S
C416 C417 1.287 . S
C417 C416 1.287 . S
C417 C418 1.524 . S
C417 H420 0.999 . S
C418 H388 0.950 . S
C418 C417 1.524 . S
C418 C419 1.415 . S
C419 H389 0.950 . S
C419 C414 1.363 . S
C419 C418 1.415 . S
H420 C417 0.999 . S
H421 C402 0.913 . S
H422 C440 0.951 . S
H423 C442 0.951 . S
H424 C444 0.950 . S
H425 C445 0.950 . S
H426 C447 0.950 . S
H427 C450 0.950 . S
H428 C451 0.950 . S
H429 C453 0.950 . S
H430 C454 0.950 . S
H431 C455 0.951 . S
H432 C457 0.951 . S
H433 C459 0.950 . S
H434 C460 0.950 . S
H435 C462 0.950 . S
H436 C465 0.950 . S
H437 C466 0.950 . S
H438 C468 0.950 . S
H439 C469 0.950 . S
C440 H422 0.951 . S
C440 C441 1.366 . S
C440 C442 1.388 1_655 S
C441 C440 1.366 . S
C441 C445 1.385 . S
C442 H423 0.951 . S
C442 C440 1.388 1_455 S
C442 C443 1.366 . S
C443 C442 1.366 . S
C443 C444 1.414 . S
C443 C446 1.499 . S
C444 H424 0.950 . S
C444 C443 1.414 . S
C444 C445 1.374 1_455 S
C445 H425 0.950 . S
C445 C441 1.385 . S
C445 C444 1.374 1_655 S
C446 C443 1.499 . S
C446 C447 1.373 . S
C446 C448 1.389 . S
C447 H426 0.950 . S
C447 C446 1.373 . S
C447 C463 1.377 . S
C448 C446 1.389 . S
C448 C449 1.524 . S
C448 C462 1.377 . S
C449 C448 1.524 . S
C449 C450 1.397 . S
C449 C454 1.363 . S
C450 H427 0.950 . S
C450 C449 1.397 . S
C450 C451 1.334 . S
C451 H428 0.950 . S
C451 C450 1.334 . S
C451 C452 1.287 . S
C452 C451 1.287 . S
C452 C453 1.524 . S
C452 H471 0.913 . S
C453 H429 0.950 . S
C453 C452 1.524 . S
C453 C454 1.415 . S
C454 H430 0.950 . S
C454 C449 1.363 . S
C454 C453 1.415 . S
C455 H431 0.951 . S
C455 C456 1.366 . S
C455 C457 1.388 . S
C456 C455 1.366 . S
C456 C460 1.385 . S
C457 H432 0.951 . S
C457 C455 1.388 . S
C457 C458 1.366 . S
C458 C457 1.366 . S
C458 C459 1.414 . S
C458 C461 1.499 . S
C459 H433 0.950 . S
C459 C458 1.414 . S
C459 C460 1.374 . S
C460 H434 0.950 . S
C460 C456 1.385 . S
C460 C459 1.374 . S
C461 C458 1.499 . S
C461 C462 1.373 . S
C461 C463 1.389 . S
C462 H435 0.950 . S
C462 C448 1.377 . S
C462 C461 1.373 . S
C463 C447 1.377 . S
C463 C461 1.389 . S
C463 C464 1.524 . S
C464 C463 1.524 . S
C464 C465 1.397 . S
C464 C469 1.363 . S
C465 H436 0.950 . S
C465 C464 1.397 . S
C465 C466 1.334 . S
C466 H437 0.950 . S
C466 C465 1.334 . S
C466 C467 1.287 . S
C467 C466 1.287 . S
C467 C468 1.524 . S
C467 H470 0.999 . S
C468 H438 0.950 . S
C468 C467 1.524 . S
C468 C469 1.415 . S
C469 H439 0.950 . S
C469 C464 1.363 . S
C469 C468 1.415 . S
H470 C467 0.999 . S
H471 C452 0.913 . S
H472 C490 0.951 . S
H473 C492 0.951 . S
H474 C494 0.950 1_556 S
H475 C495 0.950 1_556 S
H476 C497 0.974 . S
H477 C500 0.950 . S
H478 C501 0.950 . S
H479 C503 0.950 . S
H480 C504 0.950 . S
H481 C505 0.962 . S
H482 C507 0.942 1_556 S
H483 C509 0.950 . S
H484 C510 0.950 . S
H485 C512 0.950 . S
H486 C515 0.950 . S
H487 C516 0.950 . S
H488 C518 0.950 . S
H489 C519 0.950 . S
C490 H472 0.951 . S
C490 C491 1.366 . S
C490 C492 1.388 . S
C491 C490 1.366 . S
C491 C495 1.385 . S
C492 H473 0.951 . S
C492 C490 1.388 . S
C492 C493 1.366 . S
C493 C492 1.366 . S
C493 C494 1.414 . S
C493 C496 1.499 . S
C494 H474 0.950 1_554 S
C494 C493 1.414 . S
C494 C495 1.374 . S
C495 H475 0.950 1_554 S
C495 C491 1.385 . S
C495 C494 1.374 . S
C496 C493 1.499 . S
C496 C497 1.348 1_554 S
C496 C498 1.389 . S
C497 H476 0.974 . S
C497 C496 1.348 1_556 S
C497 C513 1.378 . S
C498 C496 1.389 . S
C498 C499 1.524 . S
C498 C512 1.377 . S
C499 C498 1.524 . S
C499 C500 1.397 . S
C499 C504 1.363 . S
C500 H477 0.950 . S
C500 C499 1.397 . S
C500 C501 1.334 . S
C501 H478 0.950 . S
C501 C500 1.334 . S
C501 C502 1.287 . S
C502 C501 1.287 . S
C502 C503 1.524 . S
C502 H521 0.913 . S
C503 H479 0.950 . S
C503 C502 1.524 . S
C503 C504 1.415 . S
C504 H480 0.950 . S
C504 C499 1.363 . S
C504 C503 1.415 . S
C505 H481 0.962 . S
C505 C506 1.355 1_556 S
C505 C507 1.387 1_556 S
C506 C505 1.355 1_554 S
C506 C510 1.385 . S
C507 H482 0.942 1_554 S
C507 C505 1.387 1_554 S
C507 C508 1.375 . S
C508 C507 1.375 . S
C508 C509 1.414 . S
C508 C511 1.499 . S
C509 H483 0.950 . S
C509 C508 1.414 . S
C509 C510 1.374 . S
C510 H484 0.950 . S
C510 C506 1.385 . S
C510 C509 1.374 . S
C511 C508 1.499 . S
C511 C512 1.373 . S
C511 C513 1.389 1_554 S
C512 H485 0.950 . S
C512 C498 1.377 . S
C512 C511 1.373 . S
C513 C497 1.378 . S
C513 C511 1.389 1_556 S
C513 C514 1.524 . S
C514 C513 1.524 . S
C514 C515 1.397 . S
C514 C519 1.363 . S
C515 H486 0.950 . S
C515 C514 1.397 . S
C515 C516 1.334 . S
C516 H487 0.950 . S
C516 C515 1.334 . S
C516 C517 1.287 . S
C517 C516 1.287 . S
C517 C518 1.524 . S
C517 H520 0.999 . S
C518 H488 0.950 . S
C518 C517 1.524 . S
C518 C519 1.415 . S
C519 H489 0.950 . S
C519 C514 1.363 . S
C519 C518 1.415 . S
H520 C517 0.999 . S
H521 C502 0.913 . S
H522 C540 0.951 . S
H523 C542 0.951 . S
H524 C544 0.950 . S
H525 C545 0.950 . S
H526 C547 0.950 . S
H527 C550 0.950 . S
H528 C551 0.950 . S
H529 C553 0.950 . S
H530 C554 0.950 . S
H531 C555 0.951 . S
H532 C557 0.951 . S
H533 C559 0.950 . S
H534 C560 0.950 . S
H535 C562 0.950 . S
H536 C565 0.950 . S
H537 C566 0.950 . S
H538 C568 0.950 . S
H539 C569 0.950 . S
C540 H522 0.951 . S
C540 C541 1.366 . S
C540 C542 1.388 . S
C541 C540 1.366 . S
C541 C545 1.385 . S
C542 H523 0.951 . S
C542 C540 1.388 . S
C542 C543 1.366 . S
C543 C542 1.366 . S
C543 C544 1.414 . S
C543 C546 1.499 . S
C544 H524 0.950 . S
C544 C543 1.414 . S
C544 C545 1.374 . S
C545 H525 0.950 . S
C545 C541 1.385 . S
C545 C544 1.374 . S
C546 C543 1.499 . S
C546 C547 1.373 . S
C546 C548 1.389 . S
C547 H526 0.950 . S
C547 C546 1.373 . S
C547 C563 1.377 . S
C548 C546 1.389 . S
C548 C549 1.524 . S
C548 C562 1.377 . S
C549 C548 1.524 . S
C549 C550 1.397 . S
C549 C554 1.363 . S
C550 H527 0.950 . S
C550 C549 1.397 . S
C550 C551 1.334 . S
C551 H528 0.950 . S
C551 C550 1.334 . S
C551 C552 1.287 . S
C552 C551 1.287 . S
C552 C553 1.524 . S
C552 H571 0.913 . S
C553 H529 0.950 . S
C553 C552 1.524 . S
C553 C554 1.415 . S
C554 H530 0.950 . S
C554 C549 1.363 . S
C554 C553 1.415 . S
C555 H531 0.951 . S
C555 C556 1.366 . S
C555 C557 1.388 . S
C556 C555 1.366 . S
C556 C560 1.385 . S
C557 H532 0.951 . S
C557 C555 1.388 . S
C557 C558 1.366 . S
C558 C557 1.366 . S
C558 C559 1.414 . S
C558 C561 1.499 . S
C559 H533 0.950 . S
C559 C558 1.414 . S
C559 C560 1.374 . S
C560 H534 0.950 . S
C560 C556 1.385 . S
C560 C559 1.374 . S
C561 C558 1.499 . S
C561 C562 1.373 . S
C561 C563 1.389 . S
C562 H535 0.950 . S
C562 C548 1.377 . S
C562 C561 1.373 . S
C563 C547 1.377 . S
C563 C561 1.389 . S
C563 C564 1.524 . S
C564 C563 1.524 . S
C564 C565 1.397 . S
C564 C569 1.363 . S
C565 H536 0.950 . S
C565 C564 1.397 . S
C565 C566 1.334 . S
C566 H537 0.950 . S
C566 C565 1.334 . S
C566 C567 1.287 . S
C567 C566 1.287 . S
C567 C568 1.524 . S
C567 H570 0.999 . S
C568 H538 0.950 . S
C568 C567 1.524 . S
C568 C569 1.415 . S
C569 H539 0.950 . S
C569 C564 1.363 . S
C569 C568 1.415 . S
H570 C567 0.999 . S
H571 C552 0.913 . S
H572 C590 0.951 . S
H573 C592 0.968 . S
H574 C594 0.950 . S
H575 C595 0.950 . S
H576 C597 0.950 . S
H577 C600 0.950 . S
H578 C601 0.950 . S
H579 C603 0.950 . S
H580 C604 0.950 . S
H581 C605 0.951 . S
H582 C607 0.951 . S
H583 C609 0.950 1_556 S
H584 C610 0.950 1_556 S
H585 C612 0.950 . S
H586 C615 0.950 . S
H587 C616 0.950 . S
H588 C618 0.950 . S
H589 C619 0.950 . S
C590 H572 0.951 . S
C590 C591 1.366 . S
C590 C592 1.388 . S
C591 C590 1.366 . S
C591 C595 1.385 . S
C592 H573 0.968 . S
C592 C590 1.388 . S
C592 C593 1.366 . S
C593 C592 1.366 . S
C593 C594 1.414 . S
C593 C596 1.499 . S
C594 H574 0.950 . S
C594 C593 1.414 . S
C594 C595 1.374 . S
C595 H575 0.950 . S
C595 C591 1.385 . S
C595 C594 1.374 . S
C596 C593 1.499 . S
C596 C597 1.373 . S
C596 C598 1.389 . S
C597 H576 0.950 . S
C597 C596 1.373 . S
C597 C613 1.377 . S
C598 C596 1.389 . S
C598 C599 1.524 . S
C598 C612 1.377 . S
C599 C598 1.524 . S
C599 C600 1.397 . S
C599 C604 1.363 . S
C600 H577 0.950 . S
C600 C599 1.397 . S
C600 C601 1.334 . S
C601 H578 0.950 . S
C601 C600 1.334 . S
C601 C602 1.287 . S
C602 C601 1.287 . S
C602 C603 1.524 . S
C602 H621 0.913 . S
C603 H579 0.950 . S
C603 C602 1.524 . S
C603 C604 1.415 . S
C604 H580 0.950 . S
C604 C599 1.363 . S
C604 C603 1.415 . S
C605 H581 0.951 . S
C605 C606 1.366 . S
C605 C607 1.388 . S
C606 C605 1.366 . S
C606 C610 1.385 . S
C607 H582 0.951 . S
C607 C605 1.388 . S
C607 C608 1.366 . S
C608 C607 1.366 . S
C608 C609 1.414 . S
C608 C611 1.499 . S
C609 H583 0.950 1_554 S
C609 C608 1.414 . S
C609 C610 1.374 . S
C610 H584 0.950 1_554 S
C610 C606 1.385 . S
C610 C609 1.374 . S
C611 C608 1.499 . S
C611 C612 1.373 . S
C611 C613 1.389 . S
C612 H585 0.950 . S
C612 C598 1.377 . S
C612 C611 1.373 . S
C613 C597 1.377 . S
C613 C611 1.389 . S
C613 C614 1.524 . S
C614 C613 1.524 . S
C614 C615 1.397 1_554 S
C614 C619 1.363 . S
C615 H586 0.950 . S
C615 C614 1.397 1_556 S
C615 C616 1.334 . S
C616 H587 0.950 . S
C616 C615 1.334 . S
C616 C617 1.287 . S
C617 C616 1.287 . S
C617 C618 1.524 1_556 S
C617 H620 0.999 . S
C618 H588 0.950 . S
C618 C617 1.524 1_554 S
C618 C619 1.415 . S
C619 H589 0.950 . S
C619 C614 1.363 . S
C619 C618 1.415 . S
H620 C617 0.999 . S
H621 C602 0.913 . S
H622 C640 0.951 . S
H623 C642 0.951 . S
H624 C644 0.950 . S
H625 C645 0.950 . S
H626 C647 0.950 . S
H627 C650 0.950 . S
H628 C651 0.950 . S
H629 C653 0.950 . S
H630 C654 0.950 . S
H631 C655 0.951 . S
H632 C657 0.951 . S
H633 C659 0.950 . S
H634 C660 0.950 . S
H635 C662 0.950 . S
H636 C665 0.950 . S
H637 C666 0.950 . S
H638 C668 0.950 . S
H639 C669 0.950 . S
C640 H622 0.951 . S
C640 C641 1.366 . S
C640 C642 1.388 . S
C641 C640 1.366 . S
C641 C645 1.385 . S
C642 H623 0.951 . S
C642 C640 1.388 . S
C642 C643 1.366 . S
C643 C642 1.366 . S
C643 C644 1.414 . S
C643 C646 1.499 . S
C644 H624 0.950 . S
C644 C643 1.414 . S
C644 C645 1.374 . S
C645 H625 0.950 . S
C645 C641 1.385 . S
C645 C644 1.374 . S
C646 C643 1.499 . S
C646 C647 1.373 . S
C646 C648 1.389 . S
C647 H626 0.950 . S
C647 C646 1.373 . S
C647 C663 1.377 . S
C648 C646 1.389 . S
C648 C649 1.524 . S
C648 C662 1.377 . S
C649 C648 1.524 . S
C649 C650 1.397 . S
C649 C654 1.363 . S
C650 H627 0.950 . S
C650 C649 1.397 . S
C650 C651 1.334 . S
C651 H628 0.950 . S
C651 C650 1.334 . S
C651 C652 1.287 . S
C652 C651 1.287 . S
C652 C653 1.524 . S
C652 H671 0.913 . S
C653 H629 0.950 . S
C653 C652 1.524 . S
C653 C654 1.415 . S
C654 H630 0.950 . S
C654 C649 1.363 . S
C654 C653 1.415 . S
C655 H631 0.951 . S
C655 C656 1.366 . S
C655 C657 1.388 . S
C656 C655 1.366 . S
C656 C660 1.385 . S
C657 H632 0.951 . S
C657 C655 1.388 . S
C657 C658 1.366 . S
C658 C657 1.366 . S
C658 C659 1.414 . S
C658 C661 1.499 . S
C659 H633 0.950 . S
C659 C658 1.414 . S
C659 C660 1.374 . S
C660 H634 0.950 . S
C660 C656 1.385 . S
C660 C659 1.374 . S
C661 C658 1.499 . S
C661 C662 1.373 . S
C661 C663 1.389 . S
C662 H635 0.950 . S
C662 C648 1.377 . S
C662 C661 1.373 . S
C663 C647 1.377 . S
C663 C661 1.389 . S
C663 C664 1.524 . S
C664 C663 1.524 . S
C664 C665 1.397 . S
C664 C669 1.363 . S
C665 H636 0.950 . S
C665 C664 1.397 . S
C665 C666 1.334 . S
C666 H637 0.950 . S
C666 C665 1.334 . S
C666 C667 1.287 . S
C667 C666 1.287 . S
C667 C668 1.524 . S
C667 H670 0.999 . S
C668 H638 0.950 . S
C668 C667 1.524 . S
C668 C669 1.415 . S
C669 H639 0.950 . S
C669 C664 1.363 . S
C669 C668 1.415 . S
H670 C667 0.999 . S
H671 C652 0.913 . S
H672 C690 0.951 1_556 S
H673 C692 0.951 1_556 S
H674 C694 0.950 . S
H675 C695 0.950 . S
H676 C697 0.950 . S
H677 C700 0.950 . S
H678 C701 0.950 . S
H679 C703 0.950 . S
H680 C704 0.950 . S
H681 C705 0.951 . S
H682 C707 0.951 . S
H683 C709 0.946 1_556 S
H684 C710 0.929 1_556 S
H685 C712 0.950 . S
H686 C715 0.950 1_556 S
H687 C716 0.950 . S
H688 C718 0.950 . S
H689 C719 0.950 . S
C690 H672 0.951 1_554 S
C690 C691 1.366 . S
C690 C692 1.388 . S
C691 C690 1.366 . S
C691 C695 1.385 . S
C692 H673 0.951 1_554 S
C692 C690 1.388 . S
C692 C693 1.366 . S
C693 C692 1.366 . S
C693 C694 1.414 . S
C693 C696 1.499 . S
C694 H674 0.950 . S
C694 C693 1.414 . S
C694 C695 1.374 . S
C695 H675 0.950 . S
C695 C691 1.385 . S
C695 C694 1.374 . S
C696 C693 1.499 . S
C696 C697 1.373 1_455 S
C696 C698 1.389 . S
C697 H676 0.950 . S
C697 C696 1.373 1_655 S
C697 C713 1.377 . S
C698 C696 1.389 . S
C698 C699 1.524 . S
C698 C712 1.377 . S
C699 C698 1.524 . S
C699 C700 1.397 . S
C699 C704 1.363 1_554 S
C700 H677 0.950 . S
C700 C699 1.397 . S
C700 C701 1.334 . S
C701 H678 0.950 . S
C701 C700 1.334 . S
C701 C702 1.287 . S
C702 C701 1.287 . S
C702 C703 1.524 1_554 S
C702 H721 0.913 . S
C703 H679 0.950 . S
C703 C702 1.524 1_556 S
C703 C704 1.415 . S
C704 H680 0.950 . S
C704 C699 1.363 1_556 S
C704 C703 1.415 . S
C705 H681 0.951 . S
C705 C706 1.366 . S
C705 C707 1.388 . S
C706 C705 1.366 . S
C706 C710 1.406 . S
C707 H682 0.951 . S
C707 C705 1.388 . S
C707 C708 1.366 . S
C708 C707 1.366 . S
C708 C709 1.418 . S
C708 C711 1.499 . S
C709 H683 0.946 1_554 S
C709 C708 1.418 . S
C709 C710 1.374 . S
C710 H684 0.929 1_554 S
C710 C706 1.406 . S
C710 C709 1.374 . S
C711 C708 1.499 . S
C711 C712 1.373 1_655 S
C711 C713 1.389 . S
C712 H685 0.950 . S
C712 C698 1.377 . S
C712 C711 1.373 1_455 S
C713 C697 1.377 . S
C713 C711 1.389 . S
C713 C714 1.524 . S
C714 C713 1.524 . S
C714 C715 1.397 . S
C714 C719 1.363 . S
C715 H686 0.950 1_554 S
C715 C714 1.397 . S
C715 C716 1.334 . S
C716 H687 0.950 . S
C716 C715 1.334 . S
C716 C717 1.287 . S
C717 C716 1.287 . S
C717 C718 1.524 . S
C717 H720 0.999 . S
C718 H688 0.950 . S
C718 C717 1.524 . S
C718 C719 1.415 . S
C719 H689 0.950 . S
C719 C714 1.363 . S
C719 C718 1.415 . S
H720 C717 0.999 . S
H721 C702 0.913 . S
H722 C740 0.951 . S
H723 C742 0.951 . S
H724 C744 0.950 . S
H725 C745 0.950 . S
H726 C747 0.950 . S
H727 C750 0.950 . S
H728 C751 0.950 . S
H729 C753 0.950 . S
H730 C754 0.950 . S
H731 C755 0.951 . S
H732 C757 0.951 . S
H733 C759 0.950 . S
H734 C760 0.950 . S
H735 C762 0.950 . S
H736 C765 0.950 . S
H737 C766 0.950 . S
H738 C768 0.950 . S
H739 C769 0.950 . S
C740 H722 0.951 . S
C740 C741 1.366 . S
C740 C742 1.388 . S
C741 C740 1.366 . S
C741 C745 1.385 . S
C742 H723 0.951 . S
C742 C740 1.388 . S
C742 C743 1.366 . S
C743 C742 1.366 . S
C743 C744 1.414 . S
C743 C746 1.499 . S
C744 H724 0.950 . S
C744 C743 1.414 . S
C744 C745 1.374 . S
C745 H725 0.950 . S
C745 C741 1.385 . S
C745 C744 1.374 . S
C746 C743 1.499 . S
C746 C747 1.373 . S
C746 C748 1.389 . S
C747 H726 0.950 . S
C747 C746 1.373 . S
C747 C763 1.377 1_565 S
C748 C746 1.389 . S
C748 C749 1.524 . S
C748 C762 1.377 1_565 S
C749 C748 1.524 . S
C749 C750 1.397 . S
C749 C754 1.363 . S
C750 H727 0.950 . S
C750 C749 1.397 . S
C750 C751 1.334 . S
C751 H728 0.950 . S
C751 C750 1.334 . S
C751 C752 1.287 . S
C752 C751 1.287 . S
C752 C753 1.524 . S
C752 H771 0.913 . S
C753 H729 0.950 . S
C753 C752 1.524 . S
C753 C754 1.415 . S
C754 H730 0.950 . S
C754 C749 1.363 . S
C754 C753 1.415 . S
C755 H731 0.951 . S
C755 C756 1.366 . S
C755 C757 1.388 . S
C756 C755 1.366 . S
C756 C760 1.385 . S
C757 H732 0.951 . S
C757 C755 1.388 . S
C757 C758 1.366 . S
C758 C757 1.366 . S
C758 C759 1.414 . S
C758 C761 1.499 . S
C759 H733 0.950 . S
C759 C758 1.414 . S
C759 C760 1.374 . S
C760 H734 0.950 . S
C760 C756 1.385 . S
C760 C759 1.374 . S
C761 C758 1.499 . S
C761 C762 1.373 . S
C761 C763 1.389 . S
C762 H735 0.950 . S
C762 C748 1.377 1_545 S
C762 C761 1.373 . S
C763 C747 1.377 1_545 S
C763 C761 1.389 . S
C763 C764 1.524 . S
C764 C763 1.524 . S
C764 C765 1.397 . S
C764 C769 1.363 . S
C765 H736 0.950 . S
C765 C764 1.397 . S
C765 C766 1.334 . S
C766 H737 0.950 . S
C766 C765 1.334 . S
C766 C767 1.287 . S
C767 C766 1.287 . S
C767 C768 1.524 . S
C767 H770 0.999 . S
C768 H738 0.950 . S
C768 C767 1.524 . S
C768 C769 1.415 . S
C769 H739 0.950 . S
C769 C764 1.363 . S
C769 C768 1.415 . S
H770 C767 0.999 . S
H771 C752 0.913 . S
H772 C790 0.951 . S
H773 C792 0.951 . S
H774 C794 0.950 . S
H775 C795 0.950 . S
H776 C797 0.950 . S
H777 C800 0.950 . S
H778 C801 0.950 . S
H779 C803 0.950 . S
H780 C804 0.950 . S
H781 C805 0.951 . S
H782 C807 0.951 . S
H783 C809 0.950 . S
H784 C810 0.950 . S
H785 C812 0.950 . S
H786 C815 0.950 . S
H787 C816 0.950 . S
H788 C818 0.950 . S
H789 C819 0.950 . S
C790 H772 0.951 . S
C790 C791 1.366 . S
C790 C792 1.388 . S
C791 C790 1.366 . S
C791 C795 1.385 . S
C792 H773 0.951 . S
C792 C790 1.388 . S
C792 C793 1.366 . S
C793 C792 1.366 . S
C793 C794 1.414 . S
C793 C796 1.499 . S
C794 H774 0.950 . S
C794 C793 1.414 . S
C794 C795 1.374 . S
C795 H775 0.950 . S
C795 C791 1.385 . S
C795 C794 1.374 . S
C796 C793 1.499 . S
C796 C797 1.373 . S
C796 C798 1.408 1_554 S
C797 H776 0.950 . S
C797 C796 1.373 . S
C797 C813 1.358 1_565 S
C798 C796 1.408 1_556 S
C798 C799 1.525 . S
C798 C812 1.358 1_565 S
C799 C798 1.525 . S
C799 C800 1.397 . S
C799 C804 1.363 1_565 S
C800 H777 0.950 . S
C800 C799 1.397 . S
C800 C801 1.334 . S
C801 H778 0.950 . S
C801 C800 1.334 . S
C801 C802 1.287 . S
C802 C801 1.287 . S
C802 C803 1.524 1_565 S
C802 H821 0.913 . S
C803 H779 0.950 . S
C803 C802 1.524 1_545 S
C803 C804 1.415 . S
C804 H780 0.950 . S
C804 C799 1.363 1_545 S
C804 C803 1.415 . S
C805 H781 0.951 . S
C805 C806 1.366 . S
C805 C807 1.388 . S
C806 C805 1.366 . S
C806 C810 1.385 . S
C807 H782 0.951 . S
C807 C805 1.388 . S
C807 C808 1.366 . S
C808 C807 1.366 . S
C808 C809 1.414 . S
C808 C811 1.499 . S
C809 H783 0.950 . S
C809 C808 1.414 . S
C809 C810 1.374 . S
C810 H784 0.950 . S
C810 C806 1.385 . S
C810 C809 1.374 . S
C811 C808 1.499 . S
C811 C812 1.373 1_554 S
C811 C813 1.408 . S
C812 H785 0.950 . S
C812 C798 1.358 1_545 S
C812 C811 1.373 1_556 S
C813 C797 1.358 1_545 S
C813 C811 1.408 . S
C813 C814 1.525 . S
C814 C813 1.525 . S
C814 C815 1.397 . S
C814 C819 1.363 1_545 S
C815 H786 0.950 . S
C815 C814 1.397 . S
C815 C816 1.334 . S
C816 H787 0.950 . S
C816 C815 1.334 . S
C816 C817 1.287 . S
C817 C816 1.287 . S
C817 C818 1.524 1_545 S
C817 H820 0.999 . S
C818 H788 0.950 . S
C818 C817 1.524 1_565 S
C818 C819 1.415 . S
C819 H789 0.950 . S
C819 C814 1.363 1_565 S
C819 C818 1.415 . S
H820 C817 0.999 . S
H821 C802 0.913 . S
H822 C840 0.951 . S
H823 C842 0.951 . S
H824 C844 0.950 . S
H825 C845 0.950 . S
H826 C847 0.950 . S
H827 C850 0.950 . S
H828 C851 0.950 . S
H829 C853 0.950 . S
H830 C854 0.950 . S
H831 C855 0.951 . S
H832 C857 0.951 . S
H833 C859 0.950 . S
H834 C860 0.950 . S
H835 C862 0.950 . S
H836 C865 0.950 . S
H837 C866 0.950 . S
H838 C868 0.950 . S
H839 C869 0.950 . S
C840 H822 0.951 . S
C840 C841 1.366 . S
C840 C842 1.388 . S
C841 C840 1.366 . S
C841 C845 1.385 . S
C842 H823 0.951 . S
C842 C840 1.388 . S
C842 C843 1.366 . S
C843 C842 1.366 . S
C843 C844 1.414 . S
C843 C846 1.499 . S
C844 H824 0.950 . S
C844 C843 1.414 . S
C844 C845 1.374 . S
C845 H825 0.950 . S
C845 C841 1.385 . S
C845 C844 1.374 . S
C846 C843 1.499 . S
C846 C847 1.373 . S
C846 C848 1.389 . S
C847 H826 0.950 . S
C847 C846 1.373 . S
C847 C863 1.377 1_655 S
C848 C846 1.389 . S
C848 C849 1.524 . S
C848 C862 1.377 1_655 S
C849 C848 1.524 . S
C849 C850 1.397 . S
C849 C854 1.363 1_655 S
C850 H827 0.950 . S
C850 C849 1.397 . S
C850 C851 1.334 . S
C851 H828 0.950 . S
C851 C850 1.334 . S
C851 C852 1.287 . S
C852 C851 1.287 . S
C852 C853 1.524 1_655 S
C852 H871 0.913 . S
C853 H829 0.950 . S
C853 C852 1.524 1_455 S
C853 C854 1.415 . S
C854 H830 0.950 . S
C854 C849 1.363 1_455 S
C854 C853 1.415 . S
C855 H831 0.951 . S
C855 C856 1.366 . S
C855 C857 1.388 . S
C856 C855 1.366 . S
C856 C860 1.385 . S
C857 H832 0.951 . S
C857 C855 1.388 . S
C857 C858 1.366 . S
C858 C857 1.366 . S
C858 C859 1.414 . S
C858 C861 1.499 . S
C859 H833 0.950 . S
C859 C858 1.414 . S
C859 C860 1.374 . S
C860 H834 0.950 . S
C860 C856 1.385 . S
C860 C859 1.374 . S
C861 C858 1.499 . S
C861 C862 1.373 . S
C861 C863 1.389 . S
C862 H835 0.950 . S
C862 C848 1.377 1_455 S
C862 C861 1.373 . S
C863 C847 1.377 1_455 S
C863 C861 1.389 . S
C863 C864 1.524 . S
C864 C863 1.524 . S
C864 C865 1.397 . S
C864 C869 1.363 1_455 S
C865 H836 0.950 . S
C865 C864 1.397 . S
C865 C866 1.334 . S
C866 H837 0.950 . S
C866 C865 1.334 . S
C866 C867 1.287 . S
C867 C866 1.287 . S
C867 C868 1.524 1_455 S
C867 H870 0.999 . S
C868 H838 0.950 . S
C868 C867 1.524 1_655 S
C868 C869 1.415 . S
C869 H839 0.950 . S
C869 C864 1.363 1_655 S
C869 C868 1.415 . S
H870 C867 0.999 . S
H871 C852 0.913 . S
H872 C890 0.951 . S
H873 C892 0.951 . S
H874 C894 0.950 . S
H875 C895 0.950 . S
H876 C897 0.950 . S
H877 C900 0.950 . S
H878 C901 0.950 . S
H879 C903 0.950 . S
H880 C904 0.950 . S
H881 C905 0.951 . S
H882 C907 0.951 . S
H883 C909 0.950 . S
H884 C910 0.950 . S
H885 C912 0.950 . S
H886 C915 0.950 . S
H887 C916 0.950 . S
H888 C918 0.948 1_655 S
H889 C919 0.950 . S
C890 H872 0.951 . S
C890 C891 1.366 . S
C890 C892 1.388 . S
C891 C890 1.366 . S
C891 C895 1.385 . S
C892 H873 0.951 . S
C892 C890 1.388 . S
C892 C893 1.366 . S
C893 C892 1.366 . S
C893 C894 1.414 . S
C893 C896 1.499 . S
C894 H874 0.950 . S
C894 C893 1.414 . S
C894 C895 1.374 . S
C895 H875 0.950 . S
C895 C891 1.385 . S
C895 C894 1.374 . S
C896 C893 1.499 . S
C896 C897 1.373 . S
C896 C898 1.389 . S
C897 H876 0.950 . S
C897 C896 1.373 . S
C897 C913 1.377 . S
C898 C896 1.389 . S
C898 C899 1.524 . S
C898 C912 1.377 . S
C899 C898 1.524 . S
C899 C900 1.397 . S
C899 C904 1.363 . S
C900 H877 0.950 . S
C900 C899 1.397 . S
C900 C901 1.334 . S
C901 H878 0.950 . S
C901 C900 1.334 . S
C901 C902 1.287 . S
C902 C901 1.287 . S
C902 C903 1.524 . S
C902 H921 0.913 . S
C903 H879 0.950 . S
C903 C902 1.524 . S
C903 C904 1.415 . S
C904 H880 0.950 . S
C904 C899 1.363 . S
C904 C903 1.415 . S
C905 H881 0.951 . S
C905 C906 1.366 . S
C905 C907 1.388 . S
C906 C905 1.366 . S
C906 C910 1.385 . S
C907 H882 0.951 . S
C907 C905 1.388 . S
C907 C908 1.366 . S
C908 C907 1.366 . S
C908 C909 1.414 . S
C908 C911 1.499 . S
C909 H883 0.950 . S
C909 C908 1.414 . S
C909 C910 1.374 . S
C910 H884 0.950 . S
C910 C906 1.385 . S
C910 C909 1.374 . S
C911 C908 1.499 . S
C911 C912 1.373 . S
C911 C913 1.389 . S
C912 H885 0.950 . S
C912 C898 1.377 . S
C912 C911 1.373 . S
C913 C897 1.377 . S
C913 C911 1.389 . S
C913 C914 1.524 . S
C914 C913 1.524 . S
C914 C915 1.397 . S
C914 C919 1.363 . S
C915 H886 0.950 . S
C915 C914 1.397 . S
C915 C916 1.334 . S
C916 H887 0.950 . S
C916 C915 1.334 . S
C916 C917 1.287 . S
C917 C916 1.287 . S
C917 C918 1.524 . S
C917 H920 0.999 1_455 S
C918 H888 0.948 1_455 S
C918 C917 1.524 . S
C918 C919 1.415 . S
C919 H889 0.950 . S
C919 C914 1.363 . S
C919 C918 1.415 . S
H920 C917 0.999 1_655 S
H921 C902 0.913 . S
H922 C940 0.951 . S
H923 C942 0.951 . S
H924 C944 0.950 . S
H925 C945 0.950 . S
H926 C947 0.950 . S
H927 C950 0.950 . S
H928 C951 0.950 . S
H929 C953 0.950 . S
H930 C954 0.950 . S
H931 C955 0.951 . S
H932 C957 0.951 . S
H933 C959 0.950 . S
H934 C960 0.950 . S
H935 C962 0.950 . S
H936 C965 0.950 . S
H937 C966 0.950 . S
H938 C968 0.950 . S
H939 C969 0.950 . S
C940 H922 0.951 . S
C940 C941 1.366 . S
C940 C942 1.388 . S
C941 C940 1.366 . S
C941 C945 1.385 . S
C942 H923 0.951 . S
C942 C940 1.388 . S
C942 C943 1.366 . S
C943 C942 1.366 . S
C943 C944 1.414 . S
C943 C946 1.499 . S
C944 H924 0.950 . S
C944 C943 1.414 . S
C944 C945 1.374 . S
C945 H925 0.950 . S
C945 C941 1.385 . S
C945 C944 1.374 . S
C946 C943 1.499 . S
C946 C947 1.373 . S
C946 C948 1.389 . S
C947 H926 0.950 . S
C947 C946 1.373 . S
C947 C963 1.377 . S
C948 C946 1.389 . S
C948 C949 1.524 . S
C948 C962 1.377 . S
C949 C948 1.524 . S
C949 C950 1.397 . S
C949 C954 1.363 . S
C950 H927 0.950 . S
C950 C949 1.397 . S
C950 C951 1.334 . S
C951 H928 0.950 . S
C951 C950 1.334 . S
C951 C952 1.287 . S
C952 C951 1.287 . S
C952 C953 1.524 . S
C952 H971 0.913 . S
C953 H929 0.950 . S
C953 C952 1.524 . S
C953 C954 1.415 . S
C954 H930 0.950 . S
C954 C949 1.363 . S
C954 C953 1.415 . S
C955 H931 0.951 . S
C955 C956 1.366 . S
C955 C957 1.388 . S
C956 C955 1.366 . S
C956 C960 1.385 . S
C957 H932 0.951 . S
C957 C955 1.388 . S
C957 C958 1.366 . S
C958 C957 1.366 . S
C958 C959 1.414 . S
C958 C961 1.499 . S
C959 H933 0.950 . S
C959 C958 1.414 . S
C959 C960 1.374 . S
C960 H934 0.950 . S
C960 C956 1.385 . S
C960 C959 1.374 . S
C961 C958 1.499 . S
C961 C962 1.373 . S
C961 C963 1.389 . S
C962 H935 0.950 . S
C962 C948 1.377 . S
C962 C961 1.373 . S
C963 C947 1.377 . S
C963 C961 1.389 . S
C963 C964 1.524 . S
C964 C963 1.524 . S
C964 C965 1.397 . S
C964 C969 1.363 . S
C965 H936 0.950 . S
C965 C964 1.397 . S
C965 C966 1.334 . S
C966 H937 0.950 . S
C966 C965 1.334 . S
C966 C967 1.287 . S
C967 C966 1.287 . S
C967 C968 1.524 . S
C967 H970 0.999 . S
C968 H938 0.950 . S
C968 C967 1.524 . S
C968 C969 1.415 . S
C969 H939 0.950 . S
C969 C964 1.363 . S
C969 C968 1.415 . S
H970 C967 0.999 . S
H971 C952 0.913 . S
H972 C990 0.951 . S
H973 C992 0.951 . S
H974 C994 0.950 . S
H975 C995 0.950 . S
H976 C997 0.950 . S
H977 C1000 0.950 . S
H978 C1001 0.950 . S
H979 C1003 0.950 . S
H980 C1004 0.950 . S
H981 C1005 0.951 . S
H982 C1007 0.951 . S
H983 C1009 0.950 . S
H984 C1010 0.950 . S
H985 C1012 0.950 . S
H986 C1015 0.950 . S
H987 C1016 0.950 . S
H988 C1018 0.950 . S
H989 C1019 0.950 . S
C990 H972 0.951 . S
C990 C991 1.366 . S
C990 C992 1.388 . S
C991 C990 1.366 . S
C991 C995 1.385 . S
C992 H973 0.951 . S
C992 C990 1.388 . S
C992 C993 1.366 . S
C993 C992 1.366 . S
C993 C994 1.414 . S
C993 C996 1.499 . S
C994 H974 0.950 . S
C994 C993 1.414 . S
C994 C995 1.374 . S
C995 H975 0.950 . S
C995 C991 1.385 . S
C995 C994 1.374 . S
C996 C993 1.499 . S
C996 C997 1.373 . S
C996 C998 1.389 . S
C997 H976 0.950 . S
C997 C996 1.373 . S
C997 C1013 1.377 . S
C998 C996 1.389 . S
C998 C999 1.524 . S
C998 C1012 1.377 . S
C999 C998 1.524 . S
C999 C1000 1.397 . S
C999 C1004 1.363 . S
C1000 H977 0.950 . S
C1000 C999 1.397 . S
C1000 C1001 1.334 . S
C1001 H978 0.950 . S
C1001 C1000 1.334 . S
C1001 C1002 1.287 . S
C1002 C1001 1.287 . S
C1002 C1003 1.524 . S
C1002 H1021 0.913 1_655 S
C1003 H979 0.950 . S
C1003 C1002 1.524 . S
C1003 C1004 1.415 . S
C1004 H980 0.950 . S
C1004 C999 1.363 . S
C1004 C1003 1.415 . S
C1005 H981 0.951 . S
C1005 C1006 1.366 . S
C1005 C1007 1.388 . S
C1006 C1005 1.366 . S
C1006 C1010 1.385 . S
C1007 H982 0.951 . S
C1007 C1005 1.388 . S
C1007 C1008 1.366 . S
C1008 C1007 1.366 . S
C1008 C1009 1.414 . S
C1008 C1011 1.499 . S
C1009 H983 0.950 . S
C1009 C1008 1.414 . S
C1009 C1010 1.374 . S
C1010 H984 0.950 . S
C1010 C1006 1.385 . S
C1010 C1009 1.374 . S
C1011 C1008 1.499 . S
C1011 C1012 1.373 . S
C1011 C1013 1.389 . S
C1012 H985 0.950 . S
C1012 C998 1.377 . S
C1012 C1011 1.373 . S
C1013 C997 1.377 . S
C1013 C1011 1.389 . S
C1013 C1014 1.524 . S
C1014 C1013 1.524 . S
C1014 C1015 1.397 . S
C1014 C1019 1.363 . S
C1015 H986 0.950 . S
C1015 C1014 1.397 . S
C1015 C1016 1.334 . S
C1016 H987 0.950 . S
C1016 C1015 1.334 . S
C1016 C1017 1.287 . S
C1017 C1016 1.287 . S
C1017 C1018 1.524 . S
C1017 H1020 0.999 . S
C1018 H988 0.950 . S
C1018 C1017 1.524 . S
C1018 C1019 1.415 . S
C1019 H989 0.950 . S
C1019 C1014 1.363 . S
C1019 C1018 1.415 . S
H1020 C1017 0.999 . S
H1021 C1002 0.913 1_455 S
H1022 C1040 0.951 . S
H1023 C1042 0.951 . S
H1024 C1044 0.950 . S
H1025 C1045 0.950 . S
H1026 C1047 0.950 . S
H1027 C1050 0.950 . S
H1028 C1051 0.950 . S
H1029 C1053 0.950 . S
H1030 C1054 0.950 . S
H1031 C1055 0.951 . S
H1032 C1057 0.951 . S
H1033 C1059 0.950 . S
H1034 C1060 0.950 . S
H1035 C1062 0.950 . S
H1036 C1065 0.950 . S
H1037 C1066 0.950 . S
H1038 C1068 0.950 . S
H1039 C1069 0.950 . S
C1040 H1022 0.951 . S
C1040 C1041 1.366 . S
C1040 C1042 1.388 . S
C1041 C1040 1.366 . S
C1041 C1045 1.385 . S
C1042 H1023 0.951 . S
C1042 C1040 1.388 . S
C1042 C1043 1.366 . S
C1043 C1042 1.366 . S
C1043 C1044 1.414 . S
C1043 C1046 1.499 . S
C1044 H1024 0.950 . S
C1044 C1043 1.414 . S
C1044 C1045 1.374 . S
C1045 H1025 0.950 . S
C1045 C1041 1.385 . S
C1045 C1044 1.374 . S
C1046 C1043 1.499 . S
C1046 C1047 1.373 . S
C1046 C1048 1.389 . S
C1047 H1026 0.950 . S
C1047 C1046 1.373 . S
C1047 C1063 1.377 . S
C1048 C1046 1.389 . S
C1048 C1049 1.524 . S
C1048 C1062 1.377 . S
C1049 C1048 1.524 . S
C1049 C1050 1.397 . S
C1049 C1054 1.363 . S
C1050 H1027 0.950 . S
C1050 C1049 1.397 . S
C1050 C1051 1.334 . S
C1051 H1028 0.950 . S
C1051 C1050 1.334 . S
C1051 C1052 1.287 . S
C1052 C1051 1.287 . S
C1052 C1053 1.524 . S
C1052 H1071 0.913 . S
C1053 H1029 0.950 . S
C1053 C1052 1.524 . S
C1053 C1054 1.415 . S
C1054 H1030 0.950 . S
C1054 C1049 1.363 . S
C1054 C1053 1.415 . S
C1055 H1031 0.951 . S
C1055 C1056 1.366 . S
C1055 C1057 1.388 . S
C1056 C1055 1.366 . S
C1056 C1060 1.385 . S
C1057 H1032 0.951 . S
C1057 C1055 1.388 . S
C1057 C1058 1.366 . S
C1058 C1057 1.366 . S
C1058 C1059 1.414 . S
C1058 C1061 1.499 . S
C1059 H1033 0.950 . S
C1059 C1058 1.414 . S
C1059 C1060 1.374 . S
C1060 H1034 0.950 . S
C1060 C1056 1.385 . S
C1060 C1059 1.374 . S
C1061 C1058 1.499 . S
C1061 C1062 1.373 . S
C1061 C1063 1.389 . S
C1062 H1035 0.950 . S
C1062 C1048 1.377 . S
C1062 C1061 1.373 . S
C1063 C1047 1.377 . S
C1063 C1061 1.389 . S
C1063 C1064 1.524 . S
C1064 C1063 1.524 . S
C1064 C1065 1.397 . S
C1064 C1069 1.363 . S
C1065 H1036 0.950 . S
C1065 C1064 1.397 . S
C1065 C1066 1.334 . S
C1066 H1037 0.950 . S
C1066 C1065 1.334 . S
C1066 C1067 1.287 . S
C1067 C1066 1.287 . S
C1067 C1068 1.524 . S
C1067 H1070 0.999 . S
C1068 H1038 0.950 . S
C1068 C1067 1.524 . S
C1068 C1069 1.415 . S
C1069 H1039 0.950 . S
C1069 C1064 1.363 . S
C1069 C1068 1.415 . S
H1070 C1067 0.999 . S
H1071 C1052 0.913 . S
H1072 C1090 0.951 . S
H1073 C1092 0.951 . S
H1074 C1094 0.950 . S
H1075 C1095 0.950 . S
H1076 C1097 0.950 . S
H1077 C1100 0.950 . S
H1078 C1101 0.950 . S
H1079 C1103 0.950 . S
H1080 C1104 0.950 . S
H1081 C1105 0.951 . S
H1082 C1107 0.951 . S
H1083 C1109 0.950 . S
H1084 C1110 0.950 . S
H1085 C1112 0.950 . S
H1086 C1115 0.950 . S
H1087 C1116 0.950 . S
H1088 C1118 0.950 . S
H1089 C1119 0.950 . S
C1090 H1072 0.951 . S
C1090 C1091 1.366 . S
C1090 C1092 1.388 . S
C1091 C1090 1.366 . S
C1091 C1095 1.385 . S
C1092 H1073 0.951 . S
C1092 C1090 1.388 . S
C1092 C1093 1.366 . S
C1093 C1092 1.366 . S
C1093 C1094 1.414 . S
C1093 C1096 1.499 . S
C1094 H1074 0.950 . S
C1094 C1093 1.414 . S
C1094 C1095 1.374 . S
C1095 H1075 0.950 . S
C1095 C1091 1.385 . S
C1095 C1094 1.374 . S
C1096 C1093 1.499 . S
C1096 C1097 1.373 . S
C1096 C1098 1.389 . S
C1097 H1076 0.950 . S
C1097 C1096 1.373 . S
C1097 C1113 1.377 . S
C1098 C1096 1.389 . S
C1098 C1099 1.524 . S
C1098 C1112 1.377 . S
C1099 C1098 1.524 . S
C1099 C1100 1.397 . S
C1099 C1104 1.363 . S
C1100 H1077 0.950 . S
C1100 C1099 1.397 . S
C1100 C1101 1.334 . S
C1101 H1078 0.950 . S
C1101 C1100 1.334 . S
C1101 C1102 1.287 . S
C1102 C1101 1.287 . S
C1102 C1103 1.524 . S
C1102 H1121 0.913 . S
C1103 H1079 0.950 . S
C1103 C1102 1.524 . S
C1103 C1104 1.415 . S
C1104 H1080 0.950 . S
C1104 C1099 1.363 . S
C1104 C1103 1.415 . S
C1105 H1081 0.951 . S
C1105 C1106 1.366 . S
C1105 C1107 1.388 . S
C1106 C1105 1.366 . S
C1106 C1110 1.385 . S
C1107 H1082 0.951 . S
C1107 C1105 1.388 . S
C1107 C1108 1.366 . S
C1108 C1107 1.366 . S
C1108 C1109 1.414 . S
C1108 C1111 1.499 . S
C1109 H1083 0.950 . S
C1109 C1108 1.414 . S
C1109 C1110 1.374 . S
C1110 H1084 0.950 . S
C1110 C1106 1.385 . S
C1110 C1109 1.374 . S
C1111 C1108 1.499 . S
C1111 C1112 1.373 . S
C1111 C1113 1.389 . S
C1112 H1085 0.950 . S
C1112 C1098 1.377 . S
C1112 C1111 1.373 . S
C1113 C1097 1.377 . S
C1113 C1111 1.389 . S
C1113 C1114 1.524 . S
C1114 C1113 1.524 . S
C1114 C1115 1.397 . S
C1114 C1119 1.363 . S
C1115 H1086 0.950 . S
C1115 C1114 1.397 . S
C1115 C1116 1.334 . S
C1116 H1087 0.950 . S
C1116 C1115 1.334 . S
C1116 C1117 1.287 . S
C1117 C1116 1.287 . S
C1117 C1118 1.524 . S
C1117 H1120 0.983 1_655 S
C1118 H1088 0.950 . S
C1118 C1117 1.524 . S
C1118 C1119 1.415 . S
C1119 H1089 0.950 . S
C1119 C1114 1.363 . S
C1119 C1118 1.415 . S
H1120 C1117 0.983 1_455 S
H1121 C1102 0.913 . S
H1122 C1140 0.951 . S
H1123 C1142 0.951 . S
H1124 C1144 0.950 . S
H1125 C1145 0.950 . S
H1126 C1147 0.950 . S
H1127 C1150 0.950 . S
H1128 C1151 0.950 . S
H1129 C1153 0.950 . S
H1130 C1154 0.950 . S
H1131 C1155 0.951 . S
H1132 C1157 0.951 . S
H1133 C1159 0.950 . S
H1134 C1160 0.950 . S
H1135 C1162 0.950 . S
H1136 C1165 0.950 . S
H1137 C1166 0.950 . S
H1138 C1168 0.950 . S
H1139 C1169 0.950 . S
C1140 H1122 0.951 . S
C1140 C1141 1.366 . S
C1140 C1142 1.388 . S
C1141 C1140 1.366 . S
C1141 C1145 1.385 . S
C1142 H1123 0.951 . S
C1142 C1140 1.388 . S
C1142 C1143 1.366 . S
C1143 C1142 1.366 . S
C1143 C1144 1.414 . S
C1143 C1146 1.499 . S
C1144 H1124 0.950 . S
C1144 C1143 1.414 . S
C1144 C1145 1.374 . S
C1145 H1125 0.950 . S
C1145 C1141 1.385 . S
C1145 C1144 1.374 . S
C1146 C1143 1.499 . S
C1146 C1147 1.373 . S
C1146 C1148 1.389 . S
C1147 H1126 0.950 . S
C1147 C1146 1.373 . S
C1147 C1163 1.377 . S
C1148 C1146 1.389 . S
C1148 C1149 1.524 . S
C1148 C1162 1.377 . S
C1149 C1148 1.524 . S
C1149 C1150 1.397 . S
C1149 C1154 1.363 . S
C1150 H1127 0.950 . S
C1150 C1149 1.397 . S
C1150 C1151 1.334 . S
C1151 H1128 0.950 . S
C1151 C1150 1.334 . S
C1151 C1152 1.287 . S
C1152 C1151 1.287 . S
C1152 C1153 1.524 . S
C1152 H1171 0.913 . S
C1153 H1129 0.950 . S
C1153 C1152 1.524 . S
C1153 C1154 1.415 . S
C1154 H1130 0.950 . S
C1154 C1149 1.363 . S
C1154 C1153 1.415 . S
C1155 H1131 0.951 . S
C1155 C1156 1.366 . S
C1155 C1157 1.388 . S
C1156 C1155 1.366 . S
C1156 C1160 1.385 . S
C1157 H1132 0.951 . S
C1157 C1155 1.388 . S
C1157 C1158 1.366 . S
C1158 C1157 1.366 . S
C1158 C1159 1.414 . S
C1158 C1161 1.499 . S
C1159 H1133 0.950 . S
C1159 C1158 1.414 . S
C1159 C1160 1.374 . S
C1160 H1134 0.950 . S
C1160 C1156 1.385 . S
C1160 C1159 1.374 . S
C1161 C1158 1.499 . S
C1161 C1162 1.373 . S
C1161 C1163 1.389 . S
C1162 H1135 0.950 . S
C1162 C1148 1.377 . S
C1162 C1161 1.373 . S
C1163 C1147 1.377 . S
C1163 C1161 1.389 . S
C1163 C1164 1.524 . S
C1164 C1163 1.524 . S
C1164 C1165 1.397 . S
C1164 C1169 1.363 . S
C1165 H1136 0.950 . S
C1165 C1164 1.397 . S
C1165 C1166 1.334 . S
C1166 H1137 0.950 . S
C1166 C1165 1.334 . S
C1166 C1167 1.287 . S
C1167 C1166 1.287 . S
C1167 C1168 1.524 . S
C1167 H1170 0.999 . S
C1168 H1138 0.950 . S
C1168 C1167 1.524 . S
C1168 C1169 1.415 . S
C1169 H1139 0.950 . S
C1169 C1164 1.363 . S
C1169 C1168 1.415 . S
H1170 C1167 0.999 . S
H1171 C1152 0.913 . S
H1172 C1190 0.951 . S
H1173 C1192 0.951 . S
H1174 C1194 0.950 . S
H1175 C1195 0.950 . S
H1176 C1197 0.950 . S
H1177 C1200 0.950 . S
H1178 C1201 0.950 . S
H1179 C1203 0.950 . S
H1180 C1204 0.950 . S
H1181 C1205 0.951 . S
H1182 C1207 0.951 . S
H1183 C1209 0.950 . S
H1184 C1210 0.950 . S
H1185 C1212 0.950 . S
H1186 C1215 0.950 . S
H1187 C1216 0.950 . S
H1188 C1218 0.950 . S
H1189 C1219 0.950 . S
C1190 H1172 0.951 . S
C1190 C1191 1.366 . S
C1190 C1192 1.388 . S
C1191 C1190 1.366 . S
C1191 C1195 1.385 . S
C1192 H1173 0.951 . S
C1192 C1190 1.388 . S
C1192 C1193 1.366 . S
C1193 C1192 1.366 . S
C1193 C1194 1.414 . S
C1193 C1196 1.499 . S
C1194 H1174 0.950 . S
C1194 C1193 1.414 . S
C1194 C1195 1.374 . S
C1195 H1175 0.950 . S
C1195 C1191 1.385 . S
C1195 C1194 1.374 . S
C1196 C1193 1.499 . S
C1196 C1197 1.373 . S
C1196 C1198 1.389 . S
C1197 H1176 0.950 . S
C1197 C1196 1.373 . S
C1197 C1213 1.377 . S
C1198 C1196 1.389 . S
C1198 C1199 1.524 . S
C1198 C1212 1.377 . S
C1199 C1198 1.524 . S
C1199 C1200 1.397 . S
C1199 C1204 1.363 . S
C1200 H1177 0.950 . S
C1200 C1199 1.397 . S
C1200 C1201 1.334 . S
C1201 H1178 0.950 . S
C1201 C1200 1.334 . S
C1201 C1202 1.287 . S
C1202 C1201 1.287 . S
C1202 C1203 1.524 . S
C1202 H1221 0.913 . S
C1203 H1179 0.950 . S
C1203 C1202 1.524 . S
C1203 C1204 1.415 . S
C1204 H1180 0.950 . S
C1204 C1199 1.363 . S
C1204 C1203 1.415 . S
C1205 H1181 0.951 . S
C1205 C1206 1.366 . S
C1205 C1207 1.388 . S
C1206 C1205 1.366 . S
C1206 C1210 1.385 . S
C1207 H1182 0.951 . S
C1207 C1205 1.388 . S
C1207 C1208 1.366 . S
C1208 C1207 1.366 . S
C1208 C1209 1.414 . S
C1208 C1211 1.499 . S
C1209 H1183 0.950 . S
C1209 C1208 1.414 . S
C1209 C1210 1.374 . S
C1210 H1184 0.950 . S
C1210 C1206 1.385 . S
C1210 C1209 1.374 . S
C1211 C1208 1.499 . S
C1211 C1212 1.373 . S
C1211 C1213 1.389 . S
C1212 H1185 0.950 . S
C1212 C1198 1.377 . S
C1212 C1211 1.373 . S
C1213 C1197 1.377 . S
C1213 C1211 1.389 . S
C1213 C1214 1.524 . S
C1214 C1213 1.524 . S
C1214 C1215 1.397 . S
C1214 C1219 1.363 . S
C1215 H1186 0.950 . S
C1215 C1214 1.397 . S
C1215 C1216 1.334 . S
C1216 H1187 0.950 . S
C1216 C1215 1.334 . S
C1216 C1217 1.287 . S
C1217 C1216 1.287 . S
C1217 C1218 1.524 . S
C1217 H1220 0.999 . S
C1218 H1188 0.950 . S
C1218 C1217 1.524 . S
C1218 C1219 1.415 . S
C1219 H1189 0.950 . S
C1219 C1214 1.363 . S
C1219 C1218 1.415 . S
H1220 C1217 0.999 . S
H1221 C1202 0.913 . S
H1222 C1240 0.951 . S
H1223 C1242 0.951 . S
H1224 C1244 0.950 . S
H1225 C1245 0.950 . S
H1226 C1247 0.950 . S
H1227 C1250 0.950 . S
H1228 C1251 0.950 . S
H1229 C1253 0.950 . S
H1230 C1254 0.950 . S
H1231 C1255 0.951 . S
H1232 C1257 0.951 . S
H1233 C1259 0.950 . S
H1234 C1260 0.950 . S
H1235 C1262 0.950 . S
H1236 C1265 0.950 . S
H1237 C1266 0.950 . S
H1238 C1268 0.950 . S
H1239 C1269 0.950 . S
C1240 H1222 0.951 . S
C1240 C1241 1.366 . S
C1240 C1242 1.388 . S
C1241 C1240 1.366 . S
C1241 C1245 1.385 . S
C1242 H1223 0.951 . S
C1242 C1240 1.388 . S
C1242 C1243 1.366 . S
C1243 C1242 1.366 . S
C1243 C1244 1.414 . S
C1243 C1246 1.499 . S
C1244 H1224 0.950 . S
C1244 C1243 1.414 . S
C1244 C1245 1.374 . S
C1245 H1225 0.950 . S
C1245 C1241 1.385 . S
C1245 C1244 1.374 . S
C1246 C1243 1.499 . S
C1246 C1247 1.373 . S
C1246 C1248 1.389 . S
C1247 H1226 0.950 . S
C1247 C1246 1.373 . S
C1247 C1263 1.377 . S
C1248 C1246 1.389 . S
C1248 C1249 1.524 . S
C1248 C1262 1.377 . S
C1249 C1248 1.524 . S
C1249 C1250 1.397 . S
C1249 C1254 1.363 . S
C1250 H1227 0.950 . S
C1250 C1249 1.397 . S
C1250 C1251 1.334 . S
C1251 H1228 0.950 . S
C1251 C1250 1.334 . S
C1251 C1252 1.287 . S
C1252 C1251 1.287 . S
C1252 C1253 1.524 . S
C1252 H1271 0.913 . S
C1253 H1229 0.950 . S
C1253 C1252 1.524 . S
C1253 C1254 1.415 . S
C1254 H1230 0.950 . S
C1254 C1249 1.363 . S
C1254 C1253 1.415 . S
C1255 H1231 0.951 . S
C1255 C1256 1.366 . S
C1255 C1257 1.388 . S
C1256 C1255 1.366 . S
C1256 C1260 1.385 . S
C1257 H1232 0.951 . S
C1257 C1255 1.388 . S
C1257 C1258 1.366 . S
C1258 C1257 1.366 . S
C1258 C1259 1.414 . S
C1258 C1261 1.499 . S
C1259 H1233 0.950 . S
C1259 C1258 1.414 . S
C1259 C1260 1.374 . S
C1260 H1234 0.950 . S
C1260 C1256 1.385 . S
C1260 C1259 1.374 . S
C1261 C1258 1.499 . S
C1261 C1262 1.373 . S
C1261 C1263 1.389 . S
C1262 H1235 0.950 . S
C1262 C1248 1.377 . S
C1262 C1261 1.373 . S
C1263 C1247 1.377 . S
C1263 C1261 1.389 . S
C1263 C1264 1.524 . S
C1264 C1263 1.524 . S
C1264 C1265 1.397 . S
C1264 C1269 1.363 . S
C1265 H1236 0.950 . S
C1265 C1264 1.397 . S
C1265 C1266 1.334 . S
C1266 H1237 0.950 . S
C1266 C1265 1.334 . S
C1266 C1267 1.287 . S
C1267 C1266 1.287 . S
C1267 C1268 1.524 . S
C1267 H1270 0.999 . S
C1268 H1238 0.950 . S
C1268 C1267 1.524 . S
C1268 C1269 1.415 . S
C1269 H1239 0.950 . S
C1269 C1264 1.363 . S
C1269 C1268 1.415 . S
H1270 C1267 0.999 . S
H1271 C1252 0.913 . S
C291 C237 1.449 . S
C306 C20 1.474 . S
C341 C271 1.450 . S
C356 C54 1.474 . S
C391 C169 1.450 . S
C406 C88 1.474 . S
C441 C203 1.450 . S
C456 C122 1.474 . S
C491 C101 1.450 . S
C506 C156 1.474 . S
C541 C135 1.449 . S
C556 C190 1.474 . S
C591 C33 1.449 . S
C606 C224 1.474 . S
C641 C258 1.474 . S
C656 C67 1.450 . S
C691 C2 0.222 . S
C706 C70 0.221 . S
C741 C104 0.220 . S
C756 C36 0.219 . S
C791 C206 0.220 . S
C806 C138 0.219 . S
C841 C172 0.220 . S
C856 C240 0.219 . S
C891 C5 1.852 . S
C906 C243 1.852 . S
C941 C141 1.852 . S
C956 C39 1.852 . S
C991 C175 1.852 . S
C1006 C73 1.852 . S
C1041 C209 1.852 . S
C1056 C107 1.852 . S
C1091 C77 1.049 . S
C1106 C179 1.049 . S
C1141 C111 1.047 . S
C1156 C213 1.048 . S
C1191 C247 1.049 . S
C1206 C9 1.049 . S
C1241 C145 1.048 . S
C1256 C43 1.048 . S
