# Generated by pormake.
# Topology wjy, (5)-cn, num edge types: 1
# Building blocks:
#     Node 0, Type 0, BuildingBlock: BEQFEK_clean_sbu_0, # of connection points: 5
#     Node 1, Type 0, BuildingBlock: BEQFEK_clean_sbu_0, # of connection points: 5
#     Node 2, Type 0, BuildingBlock: BEQFEK_clean_sbu_0, # of connection points: 5
#     Node 3, Type 0, BuildingBlock: BEQFEK_clean_sbu_0, # of connection points: 5
#     Node 4, Type 0, BuildingBlock: BEQFEK_clean_sbu_0, # of connection points: 5
#     Node 5, Type 0, BuildingBlock: BEQFEK_clean_sbu_0, # of connection points: 5
#     Node 6, Type 0, BuildingBlock: BEQFEK_clean_sbu_0, # of connection points: 5
#     Node 7, Type 0, BuildingBlock: BEQFEK_clean_sbu_0, # of connection points: 5
#     Node 8, Type 0, BuildingBlock: BEQFEK_clean_sbu_0, # of connection points: 5
#     Node 9, Type 0, BuildingBlock: BEQFEK_clean_sbu_0, # of connection points: 5
#     Node 10, Type 0, BuildingBlock: BEQFEK_clean_sbu_0, # of connection points: 5
#     Node 11, Type 0, BuildingBlock: BEQFEK_clean_sbu_0, # of connection points: 5
#     Edge 12, Type (0, 0), BuildingBlock: CIFDUS_clean_linker_0, # of connection points: 2
#     Edge 13, Type (0, 0), BuildingBlock: CIFDUS_clean_linker_0, # of connection points: 2
#     Edge 14, Type (0, 0), BuildingBlock: CIFDUS_clean_linker_0, # of connection points: 2
#     Edge 15, Type (0, 0), BuildingBlock: CIFDUS_clean_linker_0, # of connection points: 2
#     Edge 16, Type (0, 0), BuildingBlock: CIFDUS_clean_linker_0, # of connection points: 2
#     Edge 17, Type (0, 0), BuildingBlock: CIFDUS_clean_linker_0, # of connection points: 2
#     Edge 18, Type (0, 0), BuildingBlock: CIFDUS_clean_linker_0, # of connection points: 2
#     Edge 19, Type (0, 0), BuildingBlock: CIFDUS_clean_linker_0, # of connection points: 2
#     Edge 20, Type (0, 0), BuildingBlock: CIFDUS_clean_linker_0, # of connection points: 2
#     Edge 21, Type (0, 0), BuildingBlock: CIFDUS_clean_linker_0, # of connection points: 2
#     Edge 22, Type (0, 0), BuildingBlock: CIFDUS_clean_linker_0, # of connection points: 2
#     Edge 23, Type (0, 0), BuildingBlock: CIFDUS_clean_linker_0, # of connection points: 2
#     Edge 24, Type (0, 0), BuildingBlock: CIFDUS_clean_linker_0, # of connection points: 2
#     Edge 25, Type (0, 0), BuildingBlock: CIFDUS_clean_linker_0, # of connection points: 2
#     Edge 26, Type (0, 0), BuildingBlock: CIFDUS_clean_linker_0, # of connection points: 2
#     Edge 27, Type (0, 0), BuildingBlock: CIFDUS_clean_linker_0, # of connection points: 2
#     Edge 28, Type (0, 0), BuildingBlock: CIFDUS_clean_linker_0, # of connection points: 2
#     Edge 29, Type (0, 0), BuildingBlock: CIFDUS_clean_linker_0, # of connection points: 2
#     Edge 30, Type (0, 0), BuildingBlock: CIFDUS_clean_linker_0, # of connection points: 2
#     Edge 31, Type (0, 0), BuildingBlock: CIFDUS_clean_linker_0, # of connection points: 2
#     Edge 32, Type (0, 0), BuildingBlock: CIFDUS_clean_linker_0, # of connection points: 2
#     Edge 33, Type (0, 0), BuildingBlock: CIFDUS_clean_linker_0, # of connection points: 2
#     Edge 34, Type (0, 0), BuildingBlock: CIFDUS_clean_linker_0, # of connection points: 2
#     Edge 35, Type (0, 0), BuildingBlock: CIFDUS_clean_linker_0, # of connection points: 2
#     Edge 36, Type (0, 0), BuildingBlock: CIFDUS_clean_linker_0, # of connection points: 2
#     Edge 37, Type (0, 0), BuildingBlock: CIFDUS_clean_linker_0, # of connection points: 2
#     Edge 38, Type (0, 0), BuildingBlock: CIFDUS_clean_linker_0, # of connection points: 2
#     Edge 39, Type (0, 0), BuildingBlock: CIFDUS_clean_linker_0, # of connection points: 2
#     Edge 40, Type (0, 0), BuildingBlock: CIFDUS_clean_linker_0, # of connection points: 2
#     Edge 41, Type (0, 0), BuildingBlock: CIFDUS_clean_linker_0, # of connection points: 2
# Relax obj value: 0.141
# Max RMSD: 0.163
# Mean RMSD: 0.163
data_MOF--net-wjy--node1-BEQFEK_clean_sbu_0--edge1-CIFDUS_clean_linker_0
_symmetry_space_group_name_H-M    P1
_symmetry_Int_Tables_number       1
_symmetry_cell_setting            triclinic
loop_
_symmetry_equiv_pos_as_xyz
'x, y, z'
_cell_length_a     64.34105
_cell_length_b     64.361627
_cell_length_c     17.151943
_cell_angle_alpha  89.965972
_cell_angle_beta   90.114118
_cell_angle_gamma 119.96419
loop_
_atom_site_label
_atom_site_type_symbol
_atom_site_fract_x
_atom_site_fract_y
_atom_site_fract_z
_atom_type_partial_charge
Co0 Co 0.45609 0.11069 0.20786 0.0
Co1 Co 0.48056 0.12383 0.04142 0.0
C2 C 0.43904 0.07395 0.08498 0.0
O3 O 0.43599 0.07908 0.15443 0.0
O4 O 0.45544 0.0895 0.04144 0.0
C5 C 0.43269 0.106 0.36986 0.0
O6 O 0.41056 0.09732 0.34501 0.0
C7 C 0.47431 0.12602 0.87163 0.0
C8 C 0.5116 0.14374 0.82928 0.0
C9 C 0.48798 0.13316 0.80339 0.0
N10 N 0.4892 0.13199 0.93356 0.0
N11 N 0.51147 0.14277 0.90768 0.0
C12 C 0.44756 0.11305 0.87886 0.0
H13 H 0.44187 0.10721 0.93957 0.0
H14 H 0.44083 0.12533 0.86282 0.0
H15 H 0.43938 0.09734 0.83909 0.0
C16 C 0.44989 0.15256 0.17021 0.0
N17 N 0.45688 0.13662 0.15167 0.0
N18 N 0.46813 0.14272 0.08414 0.0
C19 C 0.46897 0.1629 0.05836 0.0
C20 C 0.4573 0.16972 0.1117 0.0
C21 C 0.43804 0.15234 0.24534 0.0
H22 H 0.44973 0.15344 0.29464 0.0
H23 H 0.42089 0.13516 0.25045 0.0
H24 H 0.43449 0.1675 0.24927 0.0
O25 O 0.48904 0.11671 0.21631 0.0
O26 O 0.50873 0.1278 0.10447 0.0
H27 H 0.49869 0.17676 0.97936 0.0
H28 H 0.48303 0.19361 0.98066 0.0
C29 C 0.48088 0.17544 0.9842 0.0
H30 H 0.46975 0.1648 0.93414 0.0
H31 H 0.52656 0.14889 0.94342 0.0
O32 O 0.44951 0.11111 0.32144 0.0
C33 C 0.5081 0.12348 0.17734 0.0
Co34 Co 0.3495 0.45603 0.36258 0.0
Co35 Co 0.36591 0.47732 0.19531 0.0
C36 C 0.37014 0.43519 0.25432 0.0
O37 O 0.36091 0.43472 0.3204 0.0
O38 O 0.37286 0.45058 0.20273 0.0
C39 C 0.35423 0.44843 0.51528 0.0
O40 O 0.37464 0.45278 0.48386 0.0
C41 C 0.3632 0.47345 0.02567 0.0
C42 C 0.38817 0.51071 0.98912 0.0
C43 C 0.37373 0.48767 0.96086 0.0
N44 N 0.37096 0.48744 0.08944 0.0
N45 N 0.38565 0.50975 0.06717 0.0
C46 C 0.34805 0.44672 0.0278 0.0
H47 H 0.34118 0.44042 0.08752 0.0
H48 H 0.3327 0.44069 0.98701 0.0
H49 H 0.35888 0.43862 0.0084 0.0
C50 C 0.30421 0.45315 0.30788 0.0
N51 N 0.32675 0.4576 0.29585 0.0
N52 N 0.33396 0.46735 0.22651 0.0
C53 C 0.31633 0.46972 0.19274 0.0
C54 C 0.29683 0.46061 0.24278 0.0
C55 C 0.29111 0.44432 0.38338 0.0
H56 H 0.29233 0.42858 0.40362 0.0
H57 H 0.27201 0.4394 0.37756 0.0
H58 H 0.29987 0.45861 0.42803 0.0
O59 O 0.37735 0.48863 0.37753 0.0
O60 O 0.3894 0.50461 0.26048 0.0
H61 H 0.30368 0.4854 0.10605 0.0
H62 H 0.31866 0.47023 0.06863 0.0
C63 C 0.31869 0.48189 0.1162 0.0
H64 H 0.33598 0.49903 0.1142 0.0
H65 H 0.39471 0.52415 0.10545 0.0
O66 O 0.33757 0.44644 0.47046 0.0
C67 C 0.39153 0.50603 0.3344 0.0
Co68 Co 0.90326 0.35441 0.52642 0.0
Co69 Co 0.89233 0.35826 0.3539 0.0
C70 C 0.94131 0.36849 0.40822 0.0
O71 O 0.93456 0.3633 0.47867 0.0
O72 O 0.92683 0.36743 0.35567 0.0
C73 C 0.91179 0.33943 0.68254 0.0
O74 O 0.91585 0.32286 0.65407 0.0
C75 C 0.88937 0.34358 0.1938 0.0
C76 C 0.8714 0.36104 0.13592 0.0
C77 C 0.88167 0.34691 0.12229 0.0
N78 N 0.88363 0.35491 0.24782 0.0
N79 N 0.87266 0.36513 0.21322 0.0
C80 C 0.90382 0.33167 0.20986 0.0
H81 H 0.92254 0.34358 0.19016 0.0
H82 H 0.90383 0.32801 0.27306 0.0
H83 H 0.89651 0.31461 0.17695 0.0
C84 C 0.86058 0.30506 0.50716 0.0
N85 N 0.87721 0.32682 0.48027 0.0
N86 N 0.87246 0.32875 0.40682 0.0
C87 C 0.85266 0.30833 0.38466 0.0
C88 C 0.84453 0.2926 0.44737 0.0
C89 C 0.85892 0.29708 0.58994 0.0
H90 H 0.8631 0.3122 0.62991 0.0
H91 H 0.8722 0.29115 0.59974 0.0
H92 H 0.84077 0.28191 0.60341 0.0
O93 O 0.89747 0.38176 0.52082 0.0
O94 O 0.88867 0.38486 0.39821 0.0
H95 H 0.83969 0.31907 0.28619 0.0
H96 H 0.82461 0.28698 0.30057 0.0
C97 C 0.84205 0.30384 0.3044 0.0
H98 H 0.85448 0.3024 0.26313 0.0
H99 H 0.86676 0.37553 0.24196 0.0
O100 O 0.90612 0.3516 0.63834 0.0
C101 C 0.89174 0.39203 0.46865 0.0
Co102 Co 0.54973 0.89626 0.66233 0.0
Co103 Co 0.52756 0.88534 0.49285 0.0
C104 C 0.57046 0.93362 0.53941 0.0
O105 O 0.57145 0.92766 0.60983 0.0
O106 O 0.55455 0.91896 0.49228 0.0
C107 C 0.5636 0.91255 0.81972 0.0
O108 O 0.56762 0.93314 0.79088 0.0
C109 C 0.53291 0.88294 0.32374 0.0
C110 C 0.49549 0.86208 0.28241 0.0
C111 C 0.51908 0.87394 0.25686 0.0
N112 N 0.51824 0.87692 0.38581 0.0
N113 N 0.49586 0.86443 0.36062 0.0
C114 C 0.55965 0.8952 0.32929 0.0
H115 H 0.56537 0.89438 0.38975 0.0
H116 H 0.56665 0.88674 0.28861 0.0
H117 H 0.56737 0.91421 0.31193 0.0
C118 C 0.5529 0.85272 0.62734 0.0
N119 N 0.54786 0.86991 0.60626 0.0
N120 N 0.53769 0.86475 0.5369 0.0
C121 C 0.53562 0.84392 0.5122 0.0
C122 C 0.54526 0.83565 0.56849 0.0
C123 C 0.56268 0.85161 0.70543 0.0
H124 H 0.54889 0.84781 0.75054 0.0
H125 H 0.57856 0.86928 0.71915 0.0
H126 H 0.56771 0.83745 0.70751 0.0
O127 O 0.51729 0.89206 0.67126 0.0
O128 O 0.50018 0.88348 0.5544 0.0
H129 H 0.50607 0.83018 0.43243 0.0
H130 H 0.52234 0.81393 0.43172 0.0
C131 C 0.52406 0.83189 0.43696 0.0
H132 H 0.53511 0.84315 0.3878 0.0
H133 H 0.48084 0.85752 0.39679 0.0
O134 O 0.55797 0.89504 0.77368 0.0
C135 C 0.4994 0.88692 0.6274 0.0
Co136 Co 0.66285 0.55296 0.84648 0.0
Co137 Co 0.65049 0.53298 0.67704 0.0
C138 C 0.6442 0.5742 0.7309 0.0
O139 O 0.65182 0.57409 0.79947 0.0
O140 O 0.64295 0.5594 0.67927 0.0
C141 C 0.65644 0.55945 -0.00041 0.0
O142 O 0.63541 0.55323 0.96871 0.0
C143 C 0.65363 0.53553 0.5073 0.0
C144 C 0.6317 0.49733 0.47458 0.0
C145 C 0.64405 0.52029 0.44396 0.0
N146 N 0.64719 0.52219 0.57246 0.0
N147 N 0.63443 0.49934 0.5525 0.0
C148 C 0.6663 0.56235 0.50672 0.0
H149 H 0.6731 0.56966 0.56571 0.0
H150 H 0.68161 0.56952 0.46562 0.0
H151 H 0.65376 0.56835 0.48641 0.0
C152 C 0.70938 0.5566 0.80488 0.0
N153 N 0.68715 0.55212 0.78649 0.0
N154 N 0.68183 0.54327 0.71542 0.0
C155 C 0.70048 0.54175 0.68648 0.0
C156 C 0.71862 0.5503 0.74195 0.0
C157 C 0.72056 0.56464 0.88364 0.0
H158 H 0.71971 0.58078 0.90143 0.0
H159 H 0.7395 0.56875 0.88402 0.0
H160 H 0.71014 0.5503 0.92675 0.0
O161 O 0.63506 0.52008 0.8585 0.0
O162 O 0.6261 0.50555 0.73867 0.0
H163 H 0.71654 0.52919 0.6013 0.0
H164 H 0.69923 0.54186 0.56215 0.0
C165 C 0.70022 0.53067 0.60957 0.0
H166 H 0.68404 0.51261 0.60554 0.0
H167 H 0.62661 0.48521 0.59225 0.0
O168 O 0.67354 0.56292 0.95468 0.0
C169 C 0.62214 0.50317 0.81168 0.0
Co170 Co 0.1126 0.6566 0.02536 0.0
Co171 Co 0.12323 0.65174 0.85328 0.0
C172 C 0.07471 0.64302 0.90565 0.0
O173 O 0.08155 0.64837 0.97607 0.0
O174 O 0.089 0.64351 0.85363 0.0
C175 C 0.10586 0.67328 0.18179 0.0
O176 O 0.10396 0.69126 0.15385 0.0
C177 C 0.12774 0.66726 0.69379 0.0
C178 C 0.14263 0.64701 0.63521 0.0
C179 C 0.13444 0.66296 0.62198 0.0
N180 N 0.13199 0.65467 0.74744 0.0
N181 N 0.14117 0.6428 0.71245 0.0
C182 C 0.11528 0.68114 0.71044 0.0
H183 H 0.09665 0.67107 0.68765 0.0
H184 H 0.11482 0.68398 0.77406 0.0
H185 H 0.12454 0.69875 0.68053 0.0
C186 C 0.15757 0.70421 0.00725 0.0
N187 N 0.13936 0.68346 0.97914 0.0
N188 N 0.1438 0.68108 0.90579 0.0
C189 C 0.16489 0.70023 0.88497 0.0
C190 C 0.17412 0.71562 0.9481 0.0
C191 C 0.16046 0.71167 0.09093 0.0
H192 H 0.15546 0.69596 0.12909 0.0
H193 H 0.14832 0.71881 0.10373 0.0
H194 H 0.17914 0.72587 0.10394 0.0
O195 O 0.11745 0.62865 0.02164 0.0
O196 O 0.12598 0.62484 0.8994 0.0
H197 H 0.17679 0.68576 0.79419 0.0
H198 H 0.19604 0.71763 0.80963 0.0
C199 C 0.17716 0.70274 0.8086 0.0
H200 H 0.16748 0.70649 0.76221 0.0
H201 H 0.14559 0.63117 0.74084 0.0
O202 O 0.10976 0.65993 0.13715 0.0
C203 C 0.12281 0.61792 0.97014 0.0
Co204 Co 0.90249 0.55428 0.61483 0.0
Co205 Co 0.89374 0.53793 0.78841 0.0
C206 C 0.94204 0.577 0.73182 0.0
O207 O 0.93461 0.5757 0.66204 0.0
O208 O 0.92806 0.56353 0.78526 0.0
C209 C 0.92028 0.57015 0.461 0.0
O210 O 0.94106 0.57541 0.49175 0.0
C211 C 0.89311 0.54373 0.95693 0.0
C212 C 0.86632 0.50724 0.99544 0.0
C213 C 0.88168 0.53024 0.02238 0.0
N214 N 0.88497 0.52935 0.8942 0.0
N215 N 0.86902 0.50753 0.91754 0.0
C216 C 0.90982 0.57022 0.95277 0.0
H217 H 0.90865 0.5772 0.89472 0.0
H218 H 0.90557 0.5796 -0.00106 0.0
H219 H 0.92844 0.57398 0.96185 0.0
C220 C 0.86091 0.56113 0.64667 0.0
N221 N 0.87751 0.55545 0.66952 0.0
N222 N 0.87364 0.54844 0.74269 0.0
C223 C 0.85445 0.54951 0.76895 0.0
C224 C 0.84568 0.55754 0.70895 0.0
C225 C 0.85869 0.56792 0.56488 0.0
H226 H 0.85727 0.55383 0.52435 0.0
H227 H 0.87515 0.5849 0.54942 0.0
H228 H 0.84276 0.57008 0.55711 0.0
O229 O 0.89665 0.52103 0.61116 0.0
O230 O 0.89006 0.50895 0.73416 0.0
H231 H 0.83853 0.52414 0.86159 0.0
H232 H 0.83023 0.54718 0.86102 0.0
C233 C 0.84501 0.54339 0.85044 0.0
H234 H 0.85967 0.55412 0.89214 0.0
H235 H 0.85981 0.49291 0.88019 0.0
O236 O 0.90201 0.56248 0.5047 0.0
C237 C 0.8919 0.50499 0.66245 0.0
Co238 Co 0.35688 0.89881 0.84855 0.0
Co239 Co 0.36581 0.88564 0.01733 0.0
C240 C 0.37386 0.93523 0.97297 0.0
O241 O 0.36679 0.93007 0.90235 0.0
O242 O 0.37448 0.91982 0.01798 0.0
C243 C 0.33901 0.90465 0.68801 0.0
O244 O 0.32559 0.91317 0.71442 0.0
C245 C 0.35725 0.88315 0.18685 0.0
C246 C 0.37588 0.86426 0.22789 0.0
C247 C 0.36358 0.87551 0.2544 0.0
N248 N 0.36562 0.87685 0.12448 0.0
N249 N 0.37649 0.86533 0.14953 0.0
C250 C 0.34425 0.89696 0.18091 0.0
H251 H 0.34417 0.90282 0.12039 0.0
H252 H 0.32525 0.88526 0.19795 0.0
H253 H 0.35249 0.91268 0.22063 0.0
C254 C 0.30841 0.85647 0.87927 0.0
N255 N 0.33108 0.87234 0.90092 0.0
N256 N 0.33507 0.86652 0.97079 0.0
C257 C 0.31511 0.84675 0.99561 0.0
C258 C 0.29748 0.83975 0.9386 0.0
C259 C 0.29806 0.8564 0.80103 0.0
H260 H 0.29604 0.87248 0.79591 0.0
H261 H 0.28036 0.84007 0.7918 0.0
H262 H 0.31053 0.85734 0.75485 0.0
O263 O 0.38452 0.89362 0.8435 0.0
O264 O 0.39102 0.88244 0.95879 0.0
H265 H 0.29576 0.81828 0.08015 0.0
H266 H 0.31371 0.84778 0.11966 0.0
C267 C 0.3129 0.83536 0.07359 0.0
H268 H 0.32815 0.83215 0.08248 0.0
H269 H 0.38501 0.85886 0.11327 0.0
O270 O 0.35066 0.89906 0.73519 0.0
C271 C 0.39618 0.88699 0.88674 0.0
Co272 Co 0.46462 0.35408 0.9936 0.0
Co273 Co 0.48162 0.3652 0.16615 0.0
C274 C 0.44061 0.37087 0.10285 0.0
O275 O 0.44173 0.36344 0.03501 0.0
O276 O 0.45496 0.37244 0.15684 0.0
C277 C 0.44126 0.33359 0.8377 0.0
O278 O 0.41962 0.32018 0.86627 0.0
C279 C 0.47597 0.35869 0.33632 0.0
C280 C 0.51386 0.37689 0.37427 0.0
C281 C 0.49053 0.36478 0.40212 0.0
N282 N 0.49015 0.36677 0.27302 0.0
N283 N 0.51275 0.37752 0.29615 0.0
C284 C 0.44914 0.34612 0.33319 0.0
H285 H 0.44274 0.34813 0.27542 0.0
H286 H 0.44182 0.32667 0.34321 0.0
H287 H 0.44214 0.35312 0.37916 0.0
C288 C 0.4615 0.30754 0.03371 0.0
N289 N 0.46514 0.32944 0.05267 0.0
N290 N 0.47294 0.33441 0.12504 0.0
C291 C 0.47473 0.31589 0.15413 0.0
C292 C 0.46742 0.29822 0.09747 0.0
C293 C 0.45485 0.29688 0.95383 0.0
H294 H 0.46747 0.30985 0.91061 0.0
H295 H 0.43658 0.2934 0.93942 0.0
H296 H 0.45518 0.27984 0.94959 0.0
O297 O 0.49703 0.3826 0.9903 0.0
O298 O 0.5103 0.39076 0.1117 0.0
H299 H 0.50219 0.33159 0.24117 0.0
H300 H 0.48541 0.29913 0.24336 0.0
C301 C 0.4842 0.31553 0.23359 0.0
H302 H 0.47207 0.31616 0.2781 0.0
H303 H 0.52743 0.38552 0.25857 0.0
O304 O 0.45882 0.34621 0.88256 0.0
C305 C 0.51336 0.39535 0.03911 0.0
Co306 Co 0.11156 0.45607 0.11316 0.0
Co307 Co 0.12209 0.47182 0.28499 0.0
C308 C 0.07322 0.43284 0.23055 0.0
O309 O 0.08008 0.4339 0.16044 0.0
O310 O 0.08764 0.44656 0.28262 0.0
C311 C 0.10377 0.43251 0.95666 0.0
O312 O 0.09984 0.41186 0.98449 0.0
C313 C 0.12493 0.46031 0.44523 0.0
C314 C 0.14178 0.49561 0.50362 0.0
C315 C 0.13217 0.47128 0.51695 0.0
N316 N 0.1303 0.47735 0.39138 0.0
N317 N 0.14058 0.49848 0.42628 0.0
C318 C 0.11123 0.43396 0.42868 0.0
H319 H 0.11119 0.4305 0.36532 0.0
H320 H 0.11918 0.42465 0.46074 0.0
H321 H 0.09247 0.42651 0.44903 0.0
C322 C 0.15434 0.44961 0.13649 0.0
N323 N 0.13755 0.45479 0.16145 0.0
N324 N 0.14221 0.46211 0.23432 0.0
C325 C 0.16218 0.46202 0.25783 0.0
C326 C 0.17044 0.45397 0.19683 0.0
C327 C 0.15602 0.44239 0.05494 0.0
H328 H 0.15223 0.45318 0.01294 0.0
H329 H 0.14242 0.42322 0.0467 0.0
H330 H 0.17404 0.44479 0.04293 0.0
O331 O 0.11724 0.48923 0.11643 0.0
O332 O 0.12584 0.50176 0.2385 0.0
H333 H 0.17433 0.48659 0.35408 0.0
H334 H 0.19102 0.47113 0.34126 0.0
C335 C 0.17301 0.46933 0.33752 0.0
H336 H 0.16132 0.45546 0.38005 0.0
H337 H 0.14609 0.51472 0.39768 0.0
O338 O 0.10904 0.45012 0.0014 0.0
C339 C 0.12285 0.50548 0.16754 0.0
Co340 Co 0.66338 0.11149 0.32617 0.0
Co341 Co 0.64985 0.12249 0.49306 0.0
C342 C 0.64358 0.07367 0.44727 0.0
O343 O 0.652 0.07963 0.37829 0.0
O344 O 0.64204 0.08855 0.49246 0.0
C345 C 0.66084 0.09575 0.16828 0.0
O346 O 0.64371 0.07547 0.19699 0.0
C347 C 0.65703 0.12412 0.66283 0.0
C348 C 0.64018 0.14458 0.70488 0.0
C349 C 0.65212 0.13286 0.73017 0.0
N350 N 0.64827 0.13019 0.60089 0.0
N351 N 0.63815 0.1424 0.62658 0.0
C352 C 0.67181 0.11218 0.65667 0.0
H353 H 0.6782 0.1131 0.59603 0.0
H354 H 0.68737 0.1208 0.69706 0.0
H355 H 0.66081 0.09312 0.67393 0.0
C356 C 0.70976 0.15461 0.36772 0.0
N357 N 0.68732 0.1373 0.38586 0.0
N358 N 0.68134 0.14241 0.45365 0.0
C359 C 0.69969 0.16324 0.48017 0.0
C360 C 0.71836 0.17155 0.42703 0.0
C361 C 0.72157 0.1562 0.29125 0.0
H362 H 0.71292 0.16151 0.24544 0.0
H363 H 0.71898 0.13834 0.27539 0.0
H364 H 0.74102 0.16961 0.29334 0.0
O365 O 0.63605 0.11674 0.31379 0.0
O366 O 0.6258 0.12587 0.42663 0.0
H367 H 0.68177 0.17648 0.55255 0.0
H368 H 0.71422 0.19432 0.55616 0.0
C369 C 0.69868 0.17584 0.55213 0.0
H370 H 0.69878 0.16563 0.60408 0.0
H371 H 0.62997 0.14934 0.59069 0.0
O372 O 0.67339 0.11299 0.21471 0.0
C373 C 0.62296 0.12249 0.35302 0.0
Co374 Co 0.56165 0.66424 0.44309 0.0
Co375 Co 0.53963 0.65064 0.61053 0.0
C376 C 0.58063 0.64339 0.55791 0.0
O377 O 0.58173 0.65203 0.49015 0.0
O378 O 0.56535 0.64199 0.60788 0.0
C379 C 0.56763 0.65776 0.28938 0.0
O380 O 0.56114 0.63669 0.32022 0.0
C381 C 0.54257 0.65362 0.78068 0.0
C382 C 0.50447 0.63201 0.81443 0.0
C383 C 0.52754 0.64428 0.84453 0.0
N384 N 0.52901 0.64719 0.71577 0.0
N385 N 0.50623 0.63458 0.73641 0.0
C386 C 0.56939 0.6662 0.78067 0.0
H387 H 0.57656 0.67263 0.72135 0.0
H388 H 0.57671 0.68173 0.82098 0.0
H389 H 0.57539 0.65374 0.80181 0.0
C390 C 0.56739 0.71125 0.48918 0.0
N391 N 0.56118 0.68837 0.50495 0.0
N392 N 0.5512 0.68254 0.57437 0.0
C393 C 0.55052 0.7015 0.60474 0.0
C394 C 0.56083 0.72038 0.55191 0.0
C395 C 0.57727 0.72311 0.41242 0.0
H396 H 0.5937 0.72225 0.39904 0.0
H397 H 0.58148 0.74205 0.41199 0.0
H398 H 0.56395 0.71311 0.36594 0.0
O399 O 0.52858 0.63731 0.42937 0.0
O400 O 0.51196 0.62712 0.54618 0.0
H401 H 0.53961 0.71816 0.69344 0.0
H402 H 0.55097 0.69941 0.72881 0.0
C403 C 0.54001 0.70138 0.68261 0.0
H404 H 0.52156 0.68578 0.68641 0.0
H405 H 0.49195 0.6268 0.69706 0.0
O406 O 0.57175 0.67505 0.33459 0.0
C407 C 0.51075 0.62417 0.47256 0.0
H408 H 0.43122 0.25212 0.09209 0.0
H409 H 0.50806 0.29577 0.10919 0.0
H410 H 0.51183 0.25975 0.11509 0.0
H411 H 0.49313 0.21576 0.11588 0.0
H412 H 0.41626 0.17186 0.10314 0.0
H413 H 0.41239 0.20788 0.09575 0.0
C414 C 0.44871 0.25358 0.097 0.0
C415 C 0.46936 0.27634 0.10023 0.0
C416 C 0.45065 0.2328 0.10144 0.0
C417 C 0.49199 0.27829 0.10686 0.0
C418 C 0.49413 0.25776 0.11023 0.0
C419 C 0.47559 0.21421 0.11137 0.0
C420 C 0.455 0.19141 0.10946 0.0
C421 C 0.47359 0.23493 0.10769 0.0
C422 C 0.43229 0.18937 0.10455 0.0
C423 C 0.43012 0.20991 0.10016 0.0
H424 H 0.21627 0.48883 0.22099 0.0
H425 H 0.1727 0.41347 0.17109 0.0
H426 H 0.20808 0.40856 0.18124 0.0
H427 H 0.25143 0.42577 0.20948 0.0
H428 H 0.29474 0.50125 0.25824 0.0
H429 H 0.25953 0.5062 0.24474 0.0
C430 C 0.21465 0.47139 0.21227 0.0
C431 C 0.19206 0.45146 0.19625 0.0
C432 C 0.23496 0.46876 0.21886 0.0
C433 C 0.19002 0.42899 0.18368 0.0
C434 C 0.21018 0.42619 0.18991 0.0
C435 C 0.25298 0.44321 0.21714 0.0
C436 C 0.27537 0.46313 0.23523 0.0
C437 C 0.2327 0.4459 0.20846 0.0
C438 C 0.2775 0.48575 0.2446 0.0
C439 C 0.25745 0.48856 0.2367 0.0
H440 H 0.76402 0.18323 0.46166 0.0
H441 H 0.72034 0.2133 0.39087 0.0
H442 H 0.7555 0.25372 0.39282 0.0
H443 H 0.79866 0.28045 0.41552 0.0
H444 H 0.84265 0.25077 0.48687 0.0
H445 H 0.80747 0.21027 0.48567 0.0
C446 C 0.76241 0.19872 0.44637 0.0
C447 C 0.7399 0.19557 0.42566 0.0
C448 C 0.78266 0.22187 0.44849 0.0
C449 C 0.73767 0.21555 0.40654 0.0
C450 C 0.75769 0.23857 0.40792 0.0
C451 C 0.80047 0.26503 0.43038 0.0
C452 C 0.8231 0.26837 0.45031 0.0
C453 C 0.78026 0.24194 0.42891 0.0
C454 C 0.8253 0.24847 0.47116 0.0
C455 C 0.80526 0.22537 0.47011 0.0
H456 H 0.5238 0.7287 0.56491 0.0
H457 H 0.60083 0.76447 0.54984 0.0
H458 H 0.60308 0.80364 0.55666 0.0
H459 H 0.58279 0.82766 0.56456 0.0
H460 H 0.50567 0.79165 0.57503 0.0
H461 H 0.5036 0.75258 0.57304 0.0
C462 C 0.54103 0.74514 0.56367 0.0
C463 C 0.56214 0.74391 0.55733 0.0
C464 C 0.54209 0.76745 0.5668 0.0
C465 C 0.5844 0.76517 0.55475 0.0
C466 C 0.58566 0.78748 0.55872 0.0
C467 C 0.56562 0.81118 0.56679 0.0
C468 C 0.5444 0.81229 0.56995 0.0
C469 C 0.56461 0.78885 0.56447 0.0
C470 C 0.52217 0.79101 0.57243 0.0
C471 C 0.521 0.76875 0.57125 0.0
H472 H 0.76354 0.5844 0.70145 0.0
H473 H 0.7218 0.51122 0.77885 0.0
H474 H 0.7575 0.5068 0.77502 0.0
H475 H 0.80057 0.5238 0.74863 0.0
H476 H 0.84258 0.59701 0.67135 0.0
H477 H 0.8069 0.60148 0.67499 0.0
C478 C 0.76245 0.56758 0.71755 0.0
C479 C 0.74036 0.54815 0.74063 0.0
C480 C 0.78302 0.56521 0.71475 0.0
C481 C 0.73881 0.52634 0.76116 0.0
C482 C 0.75915 0.52384 0.75884 0.0
C483 C 0.80185 0.54074 0.733 0.0
C484 C 0.82405 0.56009 0.70999 0.0
C485 C 0.78133 0.54314 0.73566 0.0
C486 C 0.82557 0.58187 0.6889 0.0
C487 C 0.80523 0.58444 0.69128 0.0
H488 H 0.28401 0.79306 0.96153 0.0
H489 H 0.25582 0.84021 0.91787 0.0
H490 H 0.2148 0.80597 0.91955 0.0
H491 H 0.18695 0.7623 0.9321 0.0
H492 H 0.21532 0.71536 0.97615 0.0
H493 H 0.25628 0.74973 0.97739 0.0
C494 C 0.26881 0.79577 0.95327 0.0
C495 C 0.27277 0.81901 0.94009 0.0
C496 C 0.24538 0.77606 0.95489 0.0
C497 C 0.25308 0.82239 0.92796 0.0
C498 C 0.22968 0.80287 0.92921 0.0
C499 C 0.20218 0.7598 0.94273 0.0
C500 C 0.19842 0.73661 0.95461 0.0
C501 C 0.22561 0.77961 0.94257 0.0
C502 C 0.21805 0.73324 0.9675 0.0
C503 C 0.24138 0.75282 0.96786 0.0
H504 H 0.44553 0.12565 0.73301 0.0
H505 H 0.51398 0.13144 0.6818 0.0
H506 H 0.50311 0.12392 0.54482 0.0
H507 H 0.47424 0.11498 0.4396 0.0
H508 H 0.40488 0.10686 0.49006 0.0
H509 H 0.41583 0.11516 0.6281 0.0
C510 C 0.45792 0.12463 0.69316 0.0
C511 C 0.48045 0.12864 0.71955 0.0
C512 C 0.45137 0.11978 0.61389 0.0
C513 C 0.4965 0.12842 0.66424 0.0
C514 C 0.49028 0.124 0.58552 0.0
C515 C 0.46143 0.11499 0.48063 0.0
C516 C 0.43875 0.11033 0.45422 0.0
C517 C 0.46776 0.11956 0.55976 0.0
C518 C 0.42242 0.1103 0.50862 0.0
C519 C 0.42872 0.11512 0.58759 0.0
H520 H 0.39118 0.46709 0.61686 0.0
H521 H 0.31428 0.43583 0.60476 0.0
H522 H 0.31326 0.44394 0.744 0.0
H523 H 0.33483 0.46241 0.86724 0.0
H524 H 0.41195 0.49617 0.87363 0.0
H525 H 0.41236 0.48475 0.73804 0.0
C526 C 0.3741 0.46171 0.64469 0.0
C527 C 0.35281 0.45075 0.60061 0.0
C528 C 0.37377 0.46713 0.72355 0.0
C529 C 0.33091 0.44423 0.63755 0.0
C530 C 0.33034 0.44894 0.71701 0.0
C531 C 0.35162 0.46691 0.83891 0.0
C532 C 0.37333 0.4799 0.8799 0.0
C533 C 0.35173 0.46074 0.76031 0.0
C534 C 0.39507 0.48621 0.84268 0.0
C535 C 0.3953 0.47963 0.76544 0.0
H536 H 0.89394 0.30703 0.80091 0.0
H537 H 0.93114 0.38275 0.74965 0.0
H538 H 0.92587 0.3918 0.88356 0.0
H539 H 0.90718 0.37809 0.01083 0.0
H540 H 0.86901 0.30267 0.06441 0.0
H541 H 0.87796 0.29339 0.9341 0.0
C542 C 0.9014 0.32546 0.82008 0.0
C543 C 0.91285 0.34423 0.76626 0.0
C544 C 0.89768 0.33051 0.89681 0.0
C545 C 0.9222 0.36808 0.79066 0.0
C546 C 0.91907 0.37326 0.86686 0.0
C547 C 0.90094 0.35966 0.9937 0.0
C548 C 0.88741 0.34104 0.04578 0.0
C549 C 0.90618 0.3546 0.91955 0.0
C550 C 0.87956 0.31721 0.02442 0.0
C551 C 0.88465 0.31195 0.95021 0.0
H552 H 0.53611 0.87045 0.89581 0.0
H553 H 0.58447 0.94587 0.93512 0.0
H554 H 0.57625 0.94026 0.0751 0.0
H555 H 0.55283 0.91454 0.1846 0.0
H556 H 0.50235 0.83978 0.14392 0.0
H557 H 0.51361 0.84451 0.00602 0.0
C558 C 0.5452 0.88558 0.93519 0.0
C559 C 0.56102 0.90854 0.90514 0.0
C560 C 0.53973 0.88237 0.01523 0.0
C561 C 0.57227 0.92803 0.95681 0.0
C562 C 0.56751 0.92484 0.03681 0.0
C563 C 0.54474 0.89917 0.14597 0.0
C564 C 0.52709 0.87673 0.17462 0.0
C565 C 0.55094 0.90218 0.06649 0.0
C566 C 0.51605 0.85719 0.12316 0.0
C567 C 0.52251 0.85989 0.04441 0.0
H568 H 0.62022 0.53527 0.10074 0.0
H569 H 0.69737 0.57794 0.08795 0.0
H570 H 0.70044 0.57039 0.22643 0.0
H571 H 0.68103 0.5495 0.34895 0.0
H572 H 0.60406 0.50494 0.35703 0.0
H573 H 0.60103 0.51503 0.22172 0.0
C574 C 0.63772 0.54326 0.12842 0.0
C575 C 0.65854 0.55731 0.08449 0.0
C576 C 0.63934 0.5382 0.2068 0.0
C577 C 0.68109 0.56714 0.12084 0.0
C578 C 0.68284 0.56275 0.19979 0.0
C579 C 0.66363 0.54238 0.3212 0.0
C580 C 0.64276 0.52677 0.36258 0.0
C581 C 0.66208 0.548 0.24304 0.0
C582 C 0.62033 0.51698 0.3258 0.0
C583 C 0.61858 0.52282 0.24876 0.0
H584 H 0.12549 0.7054 0.30073 0.0
H585 H 0.08419 0.62982 0.24863 0.0
H586 H 0.08864 0.61999 0.38246 0.0
H587 H 0.10759 0.6327 0.50997 0.0
H588 H 0.14975 0.70788 0.56455 0.0
H589 H 0.14182 0.71823 0.43424 0.0
C590 C 0.11699 0.68686 0.31965 0.0
C591 C 0.1046 0.66833 0.26555 0.0
C592 C 0.12019 0.68131 0.39642 0.0
C593 C 0.09388 0.64432 0.28975 0.0
C594 C 0.09653 0.63868 0.36595 0.0
C595 C 0.11493 0.65132 0.4931 0.0
C596 C 0.12928 0.66954 0.54553 0.0
C597 C 0.11027 0.657 0.41891 0.0
C598 C 0.13854 0.69364 0.52441 0.0
C599 C 0.13405 0.69951 0.45015 0.0
H600 H 0.92345 0.5598 0.09741 0.0
H601 H 0.847 0.51726 0.13166 0.0
H602 H 0.85205 0.52814 0.2698 0.0
H603 H 0.87831 0.54767 0.38136 0.0
H604 H 0.95505 0.58854 0.34886 0.0
H605 H 0.94972 0.58103 0.20847 0.0
C606 C 0.90787 0.55341 0.13472 0.0
C607 C 0.88486 0.53805 0.10447 0.0
C608 C 0.91097 0.55946 0.2141 0.0
C609 C 0.86488 0.52914 0.15395 0.0
C610 C 0.86775 0.5354 0.2327 0.0
C611 C 0.89389 0.55528 0.34354 0.0
C612 C 0.91706 0.5686 0.37551 0.0
C613 C 0.89074 0.55029 0.26353 0.0
C614 C 0.93703 0.57817 0.32567 0.0
C615 C 0.934 0.57381 0.2455 0.0
H616 H 0.3715 0.89629 0.61617 0.0
H617 H 0.30933 0.90331 0.57004 0.0
H618 H 0.31084 0.89426 0.43203 0.0
H619 H 0.32914 0.88307 0.32648 0.0
H620 H 0.39264 0.87829 0.37339 0.0
H621 H 0.39062 0.88687 0.51022 0.0
C622 C 0.35825 0.8959 0.57608 0.0
C623 C 0.34027 0.90042 0.60357 0.0
C624 C 0.35931 0.89084 0.49717 0.0
C625 C 0.3234 0.89999 0.55046 0.0
C626 C 0.32422 0.89472 0.47161 0.0
C627 C 0.34301 0.88457 0.36536 0.0
C628 C 0.36138 0.88053 0.33803 0.0
C629 C 0.34208 0.89005 0.44433 0.0
C630 C 0.37829 0.88132 0.39195 0.0
C631 C 0.37726 0.88636 0.47046 0.0
H632 H 0.45075 0.32778 0.47333 0.0
H633 H 0.51606 0.39436 0.52006 0.0
H634 H 0.50647 0.39032 0.65821 0.0
H635 H 0.47973 0.36855 0.76464 0.0
H636 H 0.41327 0.30297 0.72079 0.0
H637 H 0.42274 0.30647 0.58105 0.0
C638 C 0.46256 0.34178 0.513 0.0
C639 C 0.48387 0.36166 0.48565 0.0
C640 C 0.45672 0.33957 0.59261 0.0
C641 C 0.49953 0.37891 0.53928 0.0
C642 C 0.49403 0.37669 0.61832 0.0
C643 C 0.46724 0.35492 0.72477 0.0
C644 C 0.44589 0.33542 0.75301 0.0
C645 C 0.4727 0.35715 0.64542 0.0
C646 C 0.42981 0.31815 0.70033 0.0
C647 C 0.43527 0.32013 0.62064 0.0
H648 H 0.10646 0.47598 0.62993 0.0
H649 H 0.14614 0.44048 0.57314 0.0
H650 H 0.13793 0.42203 0.70308 0.0
H651 H 0.12208 0.41897 0.83688 0.0
H652 H 0.08338 0.45579 0.89141 0.0
H653 H 0.08801 0.47035 0.75791 0.0
C654 C 0.11319 0.46413 0.64627 0.0
C655 C 0.1269 0.45956 0.59331 0.0
C656 C 0.10838 0.45371 0.72027 0.0
C657 C 0.13541 0.44403 0.61372 0.0
C658 C 0.13075 0.43356 0.68776 0.0
C659 C 0.11417 0.42963 0.81852 0.0
C660 C 0.10247 0.43639 0.87314 0.0
C661 C 0.1175 0.43853 0.74198 0.0
C662 C 0.09253 0.4505 0.84978 0.0
C663 C 0.09528 0.45893 0.7738 0.0
H664 H 0.64701 0.09286 0.80321 0.0
H665 H 0.66898 0.16714 0.84286 0.0
H666 H 0.67629 0.163 0.98062 0.0
H667 H 0.67413 0.1376 0.09153 0.0
H668 H 0.6492 0.06257 0.05323 0.0
H669 H 0.64596 0.06774 0.91322 0.0
C670 C 0.65394 0.10827 0.84156 0.0
C671 C 0.65784 0.1304 0.8125 0.0
C672 C 0.65758 0.10559 0.92113 0.0
C673 C 0.66593 0.14996 0.86378 0.0
C674 C 0.67014 0.1476 0.94252 0.0
C675 C 0.66846 0.1225 0.05229 0.0
C676 C 0.66214 0.09976 0.08272 0.0
C677 C 0.66577 0.12543 0.97212 0.0
C678 C 0.65428 0.08026 0.03127 0.0
C679 C 0.65232 0.08319 0.95122 0.0
H680 H 0.54317 0.62141 0.1885 0.0
H681 H 0.58571 0.69856 0.20031 0.0
H682 H 0.57791 0.7013 0.06173 0.0
H683 H 0.55699 0.68157 0.93904 0.0
H684 H 0.51249 0.6046 0.9324 0.0
H685 H 0.52279 0.60193 0.0678 0.0
C686 C 0.55107 0.63885 0.16066 0.0
C687 C 0.56518 0.65975 0.2044 0.0
C688 C 0.54588 0.64028 0.08217 0.0
C689 C 0.57488 0.68221 0.16767 0.0
C690 C 0.57034 0.68377 0.08862 0.0
C691 C 0.5499 0.66425 0.96716 0.0
C692 C 0.53426 0.64327 0.92604 0.0
C693 C 0.5556 0.66292 0.04553 0.0
C694 C 0.52456 0.62095 0.96332 0.0
C695 C 0.5305 0.61942 0.04047 0.0
H696 H 0.54887 0.12604 0.11777 0.0
H697 H 0.51506 0.12664 0.33427 0.0
H698 H 0.54786 0.12765 0.40787 0.0
H699 H 0.58532 0.12617 0.41206 0.0
H700 H 0.61866 0.12458 0.19561 0.0
H701 H 0.58723 0.12625 0.12195 0.0
C702 C 0.54882 0.12663 0.18096 0.0
C703 C 0.52939 0.12608 0.22002 0.0
C704 C 0.5677 0.12689 0.22359 0.0
C705 C 0.52963 0.1268 0.30224 0.0
C706 C 0.54844 0.1274 0.34474 0.0
C707 C 0.5858 0.12638 0.34885 0.0
C708 C 0.60429 0.12506 0.30992 0.0
C709 C 0.56742 0.12708 0.30619 0.0
C710 C 0.60457 0.12535 0.22765 0.0
C711 C 0.58657 0.12634 0.18509 0.0
H712 H 0.4284 0.54494 0.26343 0.0
H713 H 0.39915 0.51597 0.49013 0.0
H714 H 0.43262 0.55042 0.55283 0.0
H715 H 0.47124 0.58799 0.54395 0.0
H716 H 0.50092 0.61634 0.31706 0.0
H717 H 0.4663 0.58309 0.25449 0.0
C718 C 0.42924 0.54622 0.32653 0.0
C719 C 0.41126 0.52779 0.37172 0.0
C720 C 0.44872 0.56601 0.36254 0.0
C721 C 0.41272 0.52981 0.45358 0.0
C722 C 0.4319 0.54953 0.48971 0.0
C723 C 0.47005 0.58701 0.48084 0.0
C724 C 0.48876 0.60466 0.43557 0.0
C725 C 0.45015 0.56762 0.44484 0.0
C726 C 0.48688 0.60301 0.35369 0.0
C727 C 0.46706 0.58396 0.31762 0.0
H728 H 0.88888 0.40634 0.61508 0.0
H729 H 0.88941 0.42502 0.373 0.0
H730 H 0.8886 0.46119 0.4117 0.0
H731 H 0.88971 0.48843 0.51446 0.0
H732 H 0.88878 0.4692 0.75631 0.0
H733 H 0.88768 0.43224 0.71717 0.0
C734 C 0.88874 0.41825 0.57057 0.0
C735 C 0.88943 0.41304 0.49116 0.0
C736 C 0.88826 0.43896 0.59319 0.0
C737 C 0.88893 0.42857 0.43449 0.0
C738 C 0.88853 0.44931 0.45661 0.0
C739 C 0.88916 0.47612 0.55871 0.0
C740 C 0.88952 0.48175 0.63833 0.0
C741 C 0.88851 0.45483 0.53582 0.0
C742 C 0.88857 0.46542 0.69468 0.0
C743 C 0.88799 0.44427 0.67236 0.0
H744 H 0.40476 0.88577 0.73232 0.0
H745 H 0.43232 0.88347 0.96001 0.0
H746 H 0.4663 0.88264 0.89924 0.0
H747 H 0.48885 0.88414 0.78189 0.0
H748 H 0.46087 0.88579 0.55429 0.0
H749 H 0.42621 0.88522 0.61502 0.0
C750 C 0.41816 0.88504 0.76893 0.0
C751 C 0.41607 0.88491 0.85088 0.0
C752 C 0.43756 0.88451 0.73361 0.0
C753 C 0.43346 0.88363 0.897 0.0
C754 C 0.45293 0.88322 0.86222 0.0
C755 C 0.47517 0.88433 0.74533 0.0
C756 C 0.47761 0.88522 0.66341 0.0
C757 C 0.45527 0.88391 0.78064 0.0
C758 C 0.45951 0.88515 0.61728 0.0
C759 C 0.43971 0.88488 0.65203 0.0
H760 H 0.52794 0.40589 0.88867 0.0
H761 H 0.54951 0.43152 0.12407 0.0
H762 H 0.58544 0.46679 0.0745 0.0
H763 H 0.60988 0.49101 0.96402 0.0
H764 H 0.58813 0.46491 0.72897 0.0
H765 H 0.55311 0.42909 0.77911 0.0
C766 C 0.5405 0.41913 0.92937 0.0
C767 C 0.53589 0.4161 0.01005 0.0
C768 C 0.56108 0.43931 0.90054 0.0
C769 C 0.55255 0.43337 0.06173 0.0
C770 C 0.57309 0.45358 0.0334 0.0
C771 C 0.59756 0.47745 0.92365 0.0
C772 C 0.60163 0.48078 0.84267 0.0
C773 C 0.57741 0.45684 0.95286 0.0
C774 C 0.58549 0.46291 0.79147 0.0
C775 C 0.56541 0.4424 0.82009 0.0
H776 H 0.1247 0.52167 0.01977 0.0
H777 H 0.12598 0.54142 0.26108 0.0
H778 H 0.12685 0.57827 0.22079 0.0
H779 H 0.12549 0.60392 0.11751 0.0
H780 H 0.12471 0.58448 0.87615 0.0
H781 H 0.12552 0.54843 0.91631 0.0
C782 C 0.12526 0.53405 0.06371 0.0
C783 C 0.12507 0.52864 0.14346 0.0
C784 C 0.12578 0.55521 0.04016 0.0
C785 C 0.12607 0.54507 0.19939 0.0
C786 C 0.1265 0.56613 0.17638 0.0
C787 C 0.12555 0.59185 0.07351 0.0
C788 C 0.12481 0.59682 0.99383 0.0
C789 C 0.12607 0.57122 0.09698 0.0
C790 C 0.12522 0.58111 0.9378 0.0
C791 C 0.12563 0.56045 0.96075 0.0
H792 H 0.41489 0.03165 0.1646 0.0
H793 H 0.42995 0.06124 0.93227 0.0
H794 H 0.40923 0.02107 0.8765 0.0
H795 H 0.38959 0.9773 0.89318 0.0
H796 H 0.37692 0.94787 0.12568 0.0
H797 H 0.39362 0.98784 0.18124 0.0
C798 C 0.41329 0.02928 0.10185 0.0
C799 C 0.42402 0.04945 0.05288 0.0
C800 C 0.40188 0.00602 0.06984 0.0
C801 C 0.42198 0.04604 0.97151 0.0
C802 C 0.41014 0.02303 0.93937 0.0
C803 C 0.3902 0.97962 0.95592 0.0
C804 C 0.38205 0.95955 0.00495 0.0
C805 C 0.40045 1.00285 0.98789 0.0
C806 C 0.38316 0.96295 0.08631 0.0
C807 C 0.39274 0.98587 0.11837 0.0
H808 H 0.42454 0.37662 0.24342 0.0
H809 H 0.41872 0.38508 0.99604 0.0
H810 H 0.39492 0.40432 0.02106 0.0
H811 H 0.37869 0.42176 0.11336 0.0
H812 H 0.38351 0.4124 0.36062 0.0
H813 H 0.40452 0.39025 0.33538 0.0
C814 C 0.41786 0.38246 0.19495 0.0
C815 C 0.42366 0.37967 0.118 0.0
C816 C 0.40408 0.39343 0.20971 0.0
C817 C 0.41457 0.38702 0.05583 0.0
C818 C 0.40103 0.39813 0.07008 0.0
C819 C 0.38412 0.41465 0.16171 0.0
C820 C 0.37978 0.41897 0.23877 0.0
C821 C 0.39613 0.40189 0.1468 0.0
C822 C 0.38662 0.40935 0.30075 0.0
C823 C 0.39875 0.39679 0.28638 0.0
H824 H 0.0538 0.42002 0.37558 0.0
H825 H 0.03504 0.40989 0.13126 0.0
H826 H 0.99251 0.38773 0.16482 0.0
H827 H 0.96066 0.37408 0.26326 0.0
H828 H 0.97946 0.3837 0.50758 0.0
H829 H 0.02193 0.40303 0.47409 0.0
C830 C 0.04044 0.41276 0.32961 0.0
C831 C 0.04765 0.41686 0.251 0.0
C832 C 0.01599 0.40005 0.34926 0.0
C833 C 0.03005 0.40707 0.19225 0.0
C834 C 1.00568 0.39447 0.21137 0.0
C835 C 0.97401 0.38018 0.30926 0.0
C836 C 0.96683 0.37764 0.38782 0.0
C837 C 0.99845 0.3913 0.28964 0.0
C838 C 0.98442 0.38544 0.44662 0.0
C839 C 0.00876 0.3966 0.42754 0.0
H840 H 0.5953 0.97461 0.62535 0.0
H841 H 0.58267 0.94818 0.38916 0.0
H842 H 0.60631 0.98888 0.33944 0.0
H843 H 0.62775 0.03249 0.3622 0.0
H844 H 0.63775 0.0589 0.5982 0.0
H845 H 0.61839 0.01812 0.64836 0.0
C846 C 0.59804 0.97774 0.56311 0.0
C847 C 0.58715 0.95829 0.51117 0.0
C848 C 0.61116 1.00138 0.53459 0.0
C849 C 0.59073 0.96276 0.43056 0.0
C850 C 0.60426 0.9861 0.40192 0.0
C851 C 0.62603 0.02932 0.42458 0.0
C852 C 0.63424 0.04882 0.47621 0.0
C853 C 0.61414 0.00563 0.45326 0.0
C854 C 0.6316 0.0443 0.55697 0.0
C855 C 0.62044 0.02091 0.58588 0.0
H856 H 0.59251 0.63522 0.70245 0.0
H857 H 0.60355 0.62854 0.45773 0.0
H858 H 0.62536 0.60762 0.48991 0.0
H859 H 0.63875 0.58871 0.58716 0.0
H860 H 0.62875 0.5964 0.832 0.0
H861 H 0.60927 0.61963 0.80012 0.0
C862 C 0.59986 0.62937 0.65616 0.0
C863 C 0.59618 0.63323 0.57777 0.0
C864 C 0.61249 0.61745 0.67507 0.0
C865 C 0.60611 0.62581 0.51854 0.0
C866 C 0.6185 0.61374 0.53687 0.0
C867 C 0.63249 0.59564 0.63358 0.0
C868 C 0.63499 0.5906 0.71182 0.0
C869 C 0.62141 0.60908 0.61486 0.0
C870 C 0.62707 0.6 0.7713 0.0
C871 C 0.61582 0.6132 0.75311 0.0
H872 H 0.0549 0.63582 0.76031 0.0
H873 H 0.03698 0.62971 0.00494 0.0
H874 H 0.99443 0.61017 0.97226 0.0
H875 H 0.96223 0.59192 0.87509 0.0
H876 H 0.97982 0.59828 0.63042 0.0
H877 H 0.02255 0.62081 0.66235 0.0
C878 C 0.04171 0.63044 0.8065 0.0
C879 C 0.04919 0.63402 0.88504 0.0
C880 C 0.01718 0.61913 0.78736 0.0
C881 C 0.03181 0.62716 0.94402 0.0
C882 C 0.00742 0.61588 0.92542 0.0
C883 C 0.97537 0.59839 0.82866 0.0
C884 C 0.96777 0.59314 0.75055 0.0
C885 C 0.99989 0.61131 0.84742 0.0
C886 C 0.98511 0.60199 0.69109 0.0
C887 C 0.00958 0.61481 0.70931 0.0
loop_
_geom_bond_atom_site_label_1
_geom_bond_atom_site_label_2
_geom_bond_distance
_geom_bond_site_symmetry_2
_ccdc_geom_bond_type
Co0 O3 1.970 . S
Co0 N17 1.989 . S
Co0 O25 1.967 . S
Co0 O32 1.920 . S
Co1 O4 1.966 . S
Co1 N10 2.022 1_554 S
Co1 N18 1.993 . S
Co1 O26 1.941 . S
C2 O3 1.258 . S
C2 O4 1.263 . S
O3 Co0 1.970 . S
O3 C2 1.258 . S
O4 Co1 1.966 . S
O4 C2 1.263 . S
C5 O6 1.235 . S
C5 O32 1.289 . S
O6 C5 1.235 . S
C7 C9 1.400 . S
C7 N10 1.351 . S
C7 C12 1.501 . S
C8 C9 1.387 . S
C8 N11 1.341 . S
C9 C7 1.400 . S
C9 C8 1.387 . S
N10 Co1 2.022 1_556 S
N10 C7 1.351 . S
N10 N11 1.365 . S
N11 C8 1.341 . S
N11 N10 1.365 . S
N11 H31 0.862 . S
C12 C7 1.501 . S
C12 H13 0.961 . S
C12 H14 0.961 . S
C12 H15 0.960 . S
H13 C12 0.961 . S
H14 C12 0.961 . S
H15 C12 0.960 . S
C16 N17 1.342 . S
C16 C20 1.401 . S
C16 C21 1.499 . S
N17 Co0 1.989 . S
N17 C16 1.342 . S
N17 N18 1.388 . S
N18 Co1 1.993 . S
N18 N17 1.388 . S
N18 C19 1.346 . S
C19 N18 1.346 . S
C19 C20 1.396 . S
C19 C29 1.510 1_554 S
C20 C16 1.401 . S
C20 C19 1.396 . S
C21 C16 1.499 . S
C21 H22 0.959 . S
C21 H23 0.960 . S
C21 H24 0.961 . S
H22 C21 0.959 . S
H23 C21 0.960 . S
H24 C21 0.961 . S
O25 Co0 1.967 . S
O25 C33 1.258 . S
O26 Co1 1.941 . S
O26 C33 1.266 . S
H27 C29 0.959 . S
H28 C29 0.961 . S
C29 C19 1.510 1_556 S
C29 H27 0.959 . S
C29 H28 0.961 . S
C29 H30 0.960 . S
H30 C29 0.960 . S
H31 N11 0.862 . S
O32 Co0 1.920 . S
O32 C5 1.289 . S
C33 O25 1.258 . S
C33 O26 1.266 . S
Co34 O37 1.970 . S
Co34 N51 1.989 . S
Co34 O59 1.967 . S
Co34 O66 1.920 . S
Co35 O38 1.966 . S
Co35 N44 2.022 . S
Co35 N52 1.993 . S
Co35 O60 1.941 . S
C36 O37 1.258 . S
C36 O38 1.263 . S
O37 Co34 1.970 . S
O37 C36 1.258 . S
O38 Co35 1.966 . S
O38 C36 1.263 . S
C39 O40 1.235 . S
C39 O66 1.289 . S
O40 C39 1.235 . S
C41 C43 1.400 1_554 S
C41 N44 1.351 . S
C41 C46 1.501 . S
C42 C43 1.387 . S
C42 N45 1.341 1_556 S
C43 C41 1.400 1_556 S
C43 C42 1.387 . S
N44 Co35 2.022 . S
N44 C41 1.351 . S
N44 N45 1.365 . S
N45 C42 1.341 1_554 S
N45 N44 1.365 . S
N45 H65 0.862 . S
C46 C41 1.501 . S
C46 H47 0.961 . S
C46 H48 0.961 . S
C46 H49 0.960 1_554 S
H47 C46 0.961 . S
H48 C46 0.961 . S
H49 C46 0.960 1_556 S
C50 N51 1.342 . S
C50 C54 1.401 . S
C50 C55 1.499 . S
N51 Co34 1.989 . S
N51 C50 1.342 . S
N51 N52 1.388 . S
N52 Co35 1.993 . S
N52 N51 1.388 . S
N52 C53 1.346 . S
C53 N52 1.346 . S
C53 C54 1.396 . S
C53 C63 1.510 . S
C54 C50 1.401 . S
C54 C53 1.396 . S
C55 C50 1.499 . S
C55 H56 0.959 . S
C55 H57 0.960 . S
C55 H58 0.961 . S
H56 C55 0.959 . S
H57 C55 0.960 . S
H58 C55 0.961 . S
O59 Co34 1.967 . S
O59 C67 1.258 . S
O60 Co35 1.941 . S
O60 C67 1.266 . S
H61 C63 0.959 . S
H62 C63 0.961 . S
C63 C53 1.510 . S
C63 H61 0.959 . S
C63 H62 0.961 . S
C63 H64 0.960 . S
H64 C63 0.960 . S
H65 N45 0.862 . S
O66 Co34 1.920 . S
O66 C39 1.289 . S
C67 O59 1.258 . S
C67 O60 1.266 . S
Co68 O71 1.970 . S
Co68 N85 1.989 . S
Co68 O93 1.967 . S
Co68 O100 1.920 . S
Co69 O72 1.966 . S
Co69 N78 2.022 . S
Co69 N86 1.993 . S
Co69 O94 1.941 . S
C70 O71 1.258 . S
C70 O72 1.263 . S
O71 Co68 1.970 . S
O71 C70 1.258 . S
O72 Co69 1.966 . S
O72 C70 1.263 . S
C73 O74 1.235 . S
C73 O100 1.289 . S
O74 C73 1.235 . S
C75 C77 1.400 . S
C75 N78 1.351 . S
C75 C80 1.501 . S
C76 C77 1.387 . S
C76 N79 1.341 . S
C77 C75 1.400 . S
C77 C76 1.387 . S
N78 Co69 2.022 . S
N78 C75 1.351 . S
N78 N79 1.365 . S
N79 C76 1.341 . S
N79 N78 1.365 . S
N79 H99 0.862 . S
C80 C75 1.501 . S
C80 H81 0.961 . S
C80 H82 0.961 . S
C80 H83 0.960 . S
H81 C80 0.961 . S
H82 C80 0.961 . S
H83 C80 0.960 . S
C84 N85 1.342 . S
C84 C88 1.401 . S
C84 C89 1.499 . S
N85 Co68 1.989 . S
N85 C84 1.342 . S
N85 N86 1.388 . S
N86 Co69 1.993 . S
N86 N85 1.388 . S
N86 C87 1.346 . S
C87 N86 1.346 . S
C87 C88 1.396 . S
C87 C97 1.510 . S
C88 C84 1.401 . S
C88 C87 1.396 . S
C89 C84 1.499 . S
C89 H90 0.959 . S
C89 H91 0.960 . S
C89 H92 0.961 . S
H90 C89 0.959 . S
H91 C89 0.960 . S
H92 C89 0.961 . S
O93 Co68 1.967 . S
O93 C101 1.258 . S
O94 Co69 1.941 . S
O94 C101 1.266 . S
H95 C97 0.959 . S
H96 C97 0.961 . S
C97 C87 1.510 . S
C97 H95 0.959 . S
C97 H96 0.961 . S
C97 H98 0.960 . S
H98 C97 0.960 . S
H99 N79 0.862 . S
O100 Co68 1.920 . S
O100 C73 1.289 . S
C101 O93 1.258 . S
C101 O94 1.266 . S
Co102 O105 1.970 . S
Co102 N119 1.989 . S
Co102 O127 1.967 . S
Co102 O134 1.920 . S
Co103 O106 1.966 . S
Co103 N112 2.022 . S
Co103 N120 1.993 . S
Co103 O128 1.941 . S
C104 O105 1.258 . S
C104 O106 1.263 . S
O105 Co102 1.970 . S
O105 C104 1.258 . S
O106 Co103 1.966 . S
O106 C104 1.263 . S
C107 O108 1.235 . S
C107 O134 1.289 . S
O108 C107 1.235 . S
C109 C111 1.400 . S
C109 N112 1.351 . S
C109 C114 1.501 . S
C110 C111 1.387 . S
C110 N113 1.341 . S
C111 C109 1.400 . S
C111 C110 1.387 . S
N112 Co103 2.022 . S
N112 C109 1.351 . S
N112 N113 1.365 . S
N113 C110 1.341 . S
N113 N112 1.365 . S
N113 H133 0.862 . S
C114 C109 1.501 . S
C114 H115 0.961 . S
C114 H116 0.961 . S
C114 H117 0.960 . S
H115 C114 0.961 . S
H116 C114 0.961 . S
H117 C114 0.960 . S
C118 N119 1.342 . S
C118 C122 1.401 . S
C118 C123 1.499 . S
N119 Co102 1.989 . S
N119 C118 1.342 . S
N119 N120 1.388 . S
N120 Co103 1.993 . S
N120 N119 1.388 . S
N120 C121 1.346 . S
C121 N120 1.346 . S
C121 C122 1.396 . S
C121 C131 1.510 . S
C122 C118 1.401 . S
C122 C121 1.396 . S
C123 C118 1.499 . S
C123 H124 0.959 . S
C123 H125 0.960 . S
C123 H126 0.961 . S
H124 C123 0.959 . S
H125 C123 0.960 . S
H126 C123 0.961 . S
O127 Co102 1.967 . S
O127 C135 1.258 . S
O128 Co103 1.941 . S
O128 C135 1.266 . S
H129 C131 0.959 . S
H130 C131 0.961 . S
C131 C121 1.510 . S
C131 H129 0.959 . S
C131 H130 0.961 . S
C131 H132 0.960 . S
H132 C131 0.960 . S
H133 N113 0.862 . S
O134 Co102 1.920 . S
O134 C107 1.289 . S
C135 O127 1.258 . S
C135 O128 1.266 . S
Co136 O139 1.970 . S
Co136 N153 1.989 . S
Co136 O161 1.967 . S
Co136 O168 1.920 . S
Co137 O140 1.966 . S
Co137 N146 2.022 . S
Co137 N154 1.993 . S
Co137 O162 1.941 . S
C138 O139 1.258 . S
C138 O140 1.263 . S
O139 Co136 1.970 . S
O139 C138 1.258 . S
O140 Co137 1.966 . S
O140 C138 1.263 . S
C141 O142 1.235 1_554 S
C141 O168 1.289 1_554 S
O142 C141 1.235 1_556 S
C143 C145 1.400 . S
C143 N146 1.351 . S
C143 C148 1.501 . S
C144 C145 1.387 . S
C144 N147 1.341 . S
C145 C143 1.400 . S
C145 C144 1.387 . S
N146 Co137 2.022 . S
N146 C143 1.351 . S
N146 N147 1.365 . S
N147 C144 1.341 . S
N147 N146 1.365 . S
N147 H167 0.862 . S
C148 C143 1.501 . S
C148 H149 0.961 . S
C148 H150 0.961 . S
C148 H151 0.960 . S
H149 C148 0.961 . S
H150 C148 0.961 . S
H151 C148 0.960 . S
C152 N153 1.342 . S
C152 C156 1.401 . S
C152 C157 1.499 . S
N153 Co136 1.989 . S
N153 C152 1.342 . S
N153 N154 1.388 . S
N154 Co137 1.993 . S
N154 N153 1.388 . S
N154 C155 1.346 . S
C155 N154 1.346 . S
C155 C156 1.396 . S
C155 C165 1.510 . S
C156 C152 1.401 . S
C156 C155 1.396 . S
C157 C152 1.499 . S
C157 H158 0.959 . S
C157 H159 0.960 . S
C157 H160 0.961 . S
H158 C157 0.959 . S
H159 C157 0.960 . S
H160 C157 0.961 . S
O161 Co136 1.967 . S
O161 C169 1.258 . S
O162 Co137 1.941 . S
O162 C169 1.266 . S
H163 C165 0.959 . S
H164 C165 0.961 . S
C165 C155 1.510 . S
C165 H163 0.959 . S
C165 H164 0.961 . S
C165 H166 0.960 . S
H166 C165 0.960 . S
H167 N147 0.862 . S
O168 Co136 1.920 . S
O168 C141 1.289 1_556 S
C169 O161 1.258 . S
C169 O162 1.266 . S
Co170 O173 1.970 1_554 S
Co170 N187 1.989 1_554 S
Co170 O195 1.967 . S
Co170 O202 1.920 . S
Co171 O174 1.966 . S
Co171 N180 2.022 . S
Co171 N188 1.993 . S
Co171 O196 1.941 . S
C172 O173 1.258 . S
C172 O174 1.263 . S
O173 Co170 1.970 1_556 S
O173 C172 1.258 . S
O174 Co171 1.966 . S
O174 C172 1.263 . S
C175 O176 1.235 . S
C175 O202 1.289 . S
O176 C175 1.235 . S
C177 C179 1.400 . S
C177 N180 1.351 . S
C177 C182 1.501 . S
C178 C179 1.387 . S
C178 N181 1.341 . S
C179 C177 1.400 . S
C179 C178 1.387 . S
N180 Co171 2.022 . S
N180 C177 1.351 . S
N180 N181 1.365 . S
N181 C178 1.341 . S
N181 N180 1.365 . S
N181 H201 0.862 . S
C182 C177 1.501 . S
C182 H183 0.961 . S
C182 H184 0.961 . S
C182 H185 0.960 . S
H183 C182 0.961 . S
H184 C182 0.961 . S
H185 C182 0.960 . S
C186 N187 1.342 . S
C186 C190 1.401 . S
C186 C191 1.499 1_556 S
N187 Co170 1.989 1_556 S
N187 C186 1.342 . S
N187 N188 1.388 . S
N188 Co171 1.993 . S
N188 N187 1.388 . S
N188 C189 1.346 . S
C189 N188 1.346 . S
C189 C190 1.396 . S
C189 C199 1.510 . S
C190 C186 1.401 . S
C190 C189 1.396 . S
C191 C186 1.499 1_554 S
C191 H192 0.959 . S
C191 H193 0.960 . S
C191 H194 0.961 . S
H192 C191 0.959 . S
H193 C191 0.960 . S
H194 C191 0.961 . S
O195 Co170 1.967 . S
O195 C203 1.258 1_554 S
O196 Co171 1.941 . S
O196 C203 1.266 . S
H197 C199 0.959 . S
H198 C199 0.961 . S
C199 C189 1.510 . S
C199 H197 0.959 . S
C199 H198 0.961 . S
C199 H200 0.960 . S
H200 C199 0.960 . S
H201 N181 0.862 . S
O202 Co170 1.920 . S
O202 C175 1.289 . S
C203 O195 1.258 1_556 S
C203 O196 1.266 . S
Co204 O207 1.970 . S
Co204 N221 1.989 . S
Co204 O229 1.967 . S
Co204 O236 1.920 . S
Co205 O208 1.966 . S
Co205 N214 2.022 . S
Co205 N222 1.993 . S
Co205 O230 1.941 . S
C206 O207 1.258 . S
C206 O208 1.263 . S
O207 Co204 1.970 . S
O207 C206 1.258 . S
O208 Co205 1.966 . S
O208 C206 1.263 . S
C209 O210 1.235 . S
C209 O236 1.289 . S
O210 C209 1.235 . S
C211 C213 1.400 1_556 S
C211 N214 1.351 . S
C211 C216 1.501 . S
C212 C213 1.387 . S
C212 N215 1.341 1_554 S
C213 C211 1.400 1_554 S
C213 C212 1.387 . S
N214 Co205 2.022 . S
N214 C211 1.351 . S
N214 N215 1.365 . S
N215 C212 1.341 1_556 S
N215 N214 1.365 . S
N215 H235 0.862 . S
C216 C211 1.501 . S
C216 H217 0.961 . S
C216 H218 0.961 . S
C216 H219 0.960 1_556 S
H217 C216 0.961 . S
H218 C216 0.961 . S
H219 C216 0.960 1_554 S
C220 N221 1.342 . S
C220 C224 1.401 . S
C220 C225 1.499 . S
N221 Co204 1.989 . S
N221 C220 1.342 . S
N221 N222 1.388 . S
N222 Co205 1.993 . S
N222 N221 1.388 . S
N222 C223 1.346 . S
C223 N222 1.346 . S
C223 C224 1.396 . S
C223 C233 1.510 . S
C224 C220 1.401 . S
C224 C223 1.396 . S
C225 C220 1.499 . S
C225 H226 0.959 . S
C225 H227 0.960 . S
C225 H228 0.961 . S
H226 C225 0.959 . S
H227 C225 0.960 . S
H228 C225 0.961 . S
O229 Co204 1.967 . S
O229 C237 1.258 . S
O230 Co205 1.941 . S
O230 C237 1.266 . S
H231 C233 0.959 . S
H232 C233 0.961 . S
C233 C223 1.510 . S
C233 H231 0.959 . S
C233 H232 0.961 . S
C233 H234 0.960 . S
H234 C233 0.960 . S
H235 N215 0.862 . S
O236 Co204 1.920 . S
O236 C209 1.289 . S
C237 O229 1.258 . S
C237 O230 1.266 . S
Co238 O241 1.970 . S
Co238 N255 1.989 . S
Co238 O263 1.967 . S
Co238 O270 1.920 . S
Co239 O242 1.966 . S
Co239 N248 2.022 1_556 S
Co239 N256 1.993 . S
Co239 O264 1.941 . S
C240 O241 1.258 . S
C240 O242 1.263 . S
O241 Co238 1.970 . S
O241 C240 1.258 . S
O242 Co239 1.966 . S
O242 C240 1.263 . S
C243 O244 1.235 . S
C243 O270 1.289 . S
O244 C243 1.235 . S
C245 C247 1.400 . S
C245 N248 1.351 . S
C245 C250 1.501 . S
C246 C247 1.387 . S
C246 N249 1.341 . S
C247 C245 1.400 . S
C247 C246 1.387 . S
N248 Co239 2.022 1_554 S
N248 C245 1.351 . S
N248 N249 1.365 . S
N249 C246 1.341 . S
N249 N248 1.365 . S
N249 H269 0.862 . S
C250 C245 1.501 . S
C250 H251 0.961 . S
C250 H252 0.961 . S
C250 H253 0.960 . S
H251 C250 0.961 . S
H252 C250 0.961 . S
H253 C250 0.960 . S
C254 N255 1.342 . S
C254 C258 1.401 . S
C254 C259 1.499 . S
N255 Co238 1.989 . S
N255 C254 1.342 . S
N255 N256 1.388 . S
N256 Co239 1.993 . S
N256 N255 1.388 . S
N256 C257 1.346 . S
C257 N256 1.346 . S
C257 C258 1.396 . S
C257 C267 1.510 1_556 S
C258 C254 1.401 . S
C258 C257 1.396 . S
C259 C254 1.499 . S
C259 H260 0.959 . S
C259 H261 0.960 . S
C259 H262 0.961 . S
H260 C259 0.959 . S
H261 C259 0.960 . S
H262 C259 0.961 . S
O263 Co238 1.967 . S
O263 C271 1.258 . S
O264 Co239 1.941 . S
O264 C271 1.266 . S
H265 C267 0.959 . S
H266 C267 0.961 . S
C267 C257 1.510 1_554 S
C267 H265 0.959 . S
C267 H266 0.961 . S
C267 H268 0.960 . S
H268 C267 0.960 . S
H269 N249 0.862 . S
O270 Co238 1.920 . S
O270 C243 1.289 . S
C271 O263 1.258 . S
C271 O264 1.266 . S
Co272 O275 1.970 1_556 S
Co272 N289 1.989 1_556 S
Co272 O297 1.967 . S
Co272 O304 1.920 . S
Co273 O276 1.966 . S
Co273 N282 2.022 . S
Co273 N290 1.993 . S
Co273 O298 1.941 . S
C274 O275 1.258 . S
C274 O276 1.263 . S
O275 Co272 1.970 1_554 S
O275 C274 1.258 . S
O276 Co273 1.966 . S
O276 C274 1.263 . S
C277 O278 1.235 . S
C277 O304 1.289 . S
O278 C277 1.235 . S
C279 C281 1.400 . S
C279 N282 1.351 . S
C279 C284 1.501 . S
C280 C281 1.387 . S
C280 N283 1.341 . S
C281 C279 1.400 . S
C281 C280 1.387 . S
N282 Co273 2.022 . S
N282 C279 1.351 . S
N282 N283 1.365 . S
N283 C280 1.341 . S
N283 N282 1.365 . S
N283 H303 0.862 . S
C284 C279 1.501 . S
C284 H285 0.961 . S
C284 H286 0.961 . S
C284 H287 0.960 . S
H285 C284 0.961 . S
H286 C284 0.961 . S
H287 C284 0.960 . S
C288 N289 1.342 . S
C288 C292 1.401 . S
C288 C293 1.499 1_554 S
N289 Co272 1.989 1_554 S
N289 C288 1.342 . S
N289 N290 1.388 . S
N290 Co273 1.993 . S
N290 N289 1.388 . S
N290 C291 1.346 . S
C291 N290 1.346 . S
C291 C292 1.396 . S
C291 C301 1.510 . S
C292 C288 1.401 . S
C292 C291 1.396 . S
C293 C288 1.499 1_556 S
C293 H294 0.959 . S
C293 H295 0.960 . S
C293 H296 0.961 . S
H294 C293 0.959 . S
H295 C293 0.960 . S
H296 C293 0.961 . S
O297 Co272 1.967 . S
O297 C305 1.258 1_556 S
O298 Co273 1.941 . S
O298 C305 1.266 . S
H299 C301 0.959 . S
H300 C301 0.961 . S
C301 C291 1.510 . S
C301 H299 0.959 . S
C301 H300 0.961 . S
C301 H302 0.960 . S
H302 C301 0.960 . S
H303 N283 0.862 . S
O304 Co272 1.920 . S
O304 C277 1.289 . S
C305 O297 1.258 1_554 S
C305 O298 1.266 . S
Co306 O309 1.970 . S
Co306 N323 1.989 . S
Co306 O331 1.967 . S
Co306 O338 1.920 . S
Co307 O310 1.966 . S
Co307 N316 2.022 . S
Co307 N324 1.993 . S
Co307 O332 1.941 . S
C308 O309 1.258 . S
C308 O310 1.263 . S
O309 Co306 1.970 . S
O309 C308 1.258 . S
O310 Co307 1.966 . S
O310 C308 1.263 . S
C311 O312 1.235 1_556 S
C311 O338 1.289 1_556 S
O312 C311 1.235 1_554 S
C313 C315 1.400 . S
C313 N316 1.351 . S
C313 C318 1.501 . S
C314 C315 1.387 . S
C314 N317 1.341 . S
C315 C313 1.400 . S
C315 C314 1.387 . S
N316 Co307 2.022 . S
N316 C313 1.351 . S
N316 N317 1.365 . S
N317 C314 1.341 . S
N317 N316 1.365 . S
N317 H337 0.862 . S
C318 C313 1.501 . S
C318 H319 0.961 . S
C318 H320 0.961 . S
C318 H321 0.960 . S
H319 C318 0.961 . S
H320 C318 0.961 . S
H321 C318 0.960 . S
C322 N323 1.342 . S
C322 C326 1.401 . S
C322 C327 1.499 . S
N323 Co306 1.989 . S
N323 C322 1.342 . S
N323 N324 1.388 . S
N324 Co307 1.993 . S
N324 N323 1.388 . S
N324 C325 1.346 . S
C325 N324 1.346 . S
C325 C326 1.396 . S
C325 C335 1.510 . S
C326 C322 1.401 . S
C326 C325 1.396 . S
C327 C322 1.499 . S
C327 H328 0.959 . S
C327 H329 0.960 . S
C327 H330 0.961 . S
H328 C327 0.959 . S
H329 C327 0.960 . S
H330 C327 0.961 . S
O331 Co306 1.967 . S
O331 C339 1.258 . S
O332 Co307 1.941 . S
O332 C339 1.266 . S
H333 C335 0.959 . S
H334 C335 0.961 . S
C335 C325 1.510 . S
C335 H333 0.959 . S
C335 H334 0.961 . S
C335 H336 0.960 . S
H336 C335 0.960 . S
H337 N317 0.862 . S
O338 Co306 1.920 . S
O338 C311 1.289 1_554 S
C339 O331 1.258 . S
C339 O332 1.266 . S
Co340 O343 1.970 . S
Co340 N357 1.989 . S
Co340 O365 1.967 . S
Co340 O372 1.920 . S
Co341 O344 1.966 . S
Co341 N350 2.022 . S
Co341 N358 1.993 . S
Co341 O366 1.941 . S
C342 O343 1.258 . S
C342 O344 1.263 . S
O343 Co340 1.970 . S
O343 C342 1.258 . S
O344 Co341 1.966 . S
O344 C342 1.263 . S
C345 O346 1.235 . S
C345 O372 1.289 . S
O346 C345 1.235 . S
C347 C349 1.400 . S
C347 N350 1.351 . S
C347 C352 1.501 . S
C348 C349 1.387 . S
C348 N351 1.341 . S
C349 C347 1.400 . S
C349 C348 1.387 . S
N350 Co341 2.022 . S
N350 C347 1.351 . S
N350 N351 1.365 . S
N351 C348 1.341 . S
N351 N350 1.365 . S
N351 H371 0.862 . S
C352 C347 1.501 . S
C352 H353 0.961 . S
C352 H354 0.961 . S
C352 H355 0.960 . S
H353 C352 0.961 . S
H354 C352 0.961 . S
H355 C352 0.960 . S
C356 N357 1.342 . S
C356 C360 1.401 . S
C356 C361 1.499 . S
N357 Co340 1.989 . S
N357 C356 1.342 . S
N357 N358 1.388 . S
N358 Co341 1.993 . S
N358 N357 1.388 . S
N358 C359 1.346 . S
C359 N358 1.346 . S
C359 C360 1.396 . S
C359 C369 1.510 . S
C360 C356 1.401 . S
C360 C359 1.396 . S
C361 C356 1.499 . S
C361 H362 0.959 . S
C361 H363 0.960 . S
C361 H364 0.961 . S
H362 C361 0.959 . S
H363 C361 0.960 . S
H364 C361 0.961 . S
O365 Co340 1.967 . S
O365 C373 1.258 . S
O366 Co341 1.941 . S
O366 C373 1.266 . S
H367 C369 0.959 . S
H368 C369 0.961 . S
C369 C359 1.510 . S
C369 H367 0.959 . S
C369 H368 0.961 . S
C369 H370 0.960 . S
H370 C369 0.960 . S
H371 N351 0.862 . S
O372 Co340 1.920 . S
O372 C345 1.289 . S
C373 O365 1.258 . S
C373 O366 1.266 . S
Co374 O377 1.970 . S
Co374 N391 1.989 . S
Co374 O399 1.967 . S
Co374 O406 1.920 . S
Co375 O378 1.966 . S
Co375 N384 2.022 . S
Co375 N392 1.993 . S
Co375 O400 1.941 . S
C376 O377 1.258 . S
C376 O378 1.263 . S
O377 Co374 1.970 . S
O377 C376 1.258 . S
O378 Co375 1.966 . S
O378 C376 1.263 . S
C379 O380 1.235 . S
C379 O406 1.289 . S
O380 C379 1.235 . S
C381 C383 1.400 . S
C381 N384 1.351 . S
C381 C386 1.501 . S
C382 C383 1.387 . S
C382 N385 1.341 . S
C383 C381 1.400 . S
C383 C382 1.387 . S
N384 Co375 2.022 . S
N384 C381 1.351 . S
N384 N385 1.365 . S
N385 C382 1.341 . S
N385 N384 1.365 . S
N385 H405 0.862 . S
C386 C381 1.501 . S
C386 H387 0.961 . S
C386 H388 0.961 . S
C386 H389 0.960 . S
H387 C386 0.961 . S
H388 C386 0.961 . S
H389 C386 0.960 . S
C390 N391 1.342 . S
C390 C394 1.401 . S
C390 C395 1.499 . S
N391 Co374 1.989 . S
N391 C390 1.342 . S
N391 N392 1.388 . S
N392 Co375 1.993 . S
N392 N391 1.388 . S
N392 C393 1.346 . S
C393 N392 1.346 . S
C393 C394 1.396 . S
C393 C403 1.510 . S
C394 C390 1.401 . S
C394 C393 1.396 . S
C395 C390 1.499 . S
C395 H396 0.959 . S
C395 H397 0.960 . S
C395 H398 0.961 . S
H396 C395 0.959 . S
H397 C395 0.960 . S
H398 C395 0.961 . S
O399 Co374 1.967 . S
O399 C407 1.258 . S
O400 Co375 1.941 . S
O400 C407 1.266 . S
H401 C403 0.959 . S
H402 C403 0.961 . S
C403 C393 1.510 . S
C403 H401 0.959 . S
C403 H402 0.961 . S
C403 H404 0.960 . S
H404 C403 0.960 . S
H405 N385 0.862 . S
O406 Co374 1.920 . S
O406 C379 1.289 . S
C407 O399 1.258 . S
C407 O400 1.266 . S
H408 C414 0.930 . S
H409 C417 0.930 . S
H410 C418 0.930 . S
H411 C419 0.930 . S
H412 C422 0.930 . S
H413 C423 0.930 . S
C414 H408 0.930 . S
C414 C415 1.355 . S
C414 C416 1.415 . S
C415 C414 1.355 . S
C415 C417 1.419 . S
C416 C414 1.415 . S
C416 C421 1.425 . S
C416 C423 1.409 . S
C417 H409 0.930 . S
C417 C415 1.419 . S
C417 C418 1.362 . S
C418 H410 0.930 . S
C418 C417 1.362 . S
C418 C421 1.409 . S
C419 H411 0.930 . S
C419 C420 1.355 . S
C419 C421 1.415 . S
C420 C419 1.355 . S
C420 C422 1.419 . S
C421 C416 1.425 . S
C421 C418 1.409 . S
C421 C419 1.415 . S
C422 H412 0.930 . S
C422 C420 1.419 . S
C422 C423 1.362 . S
C423 H413 0.930 . S
C423 C416 1.409 . S
C423 C422 1.362 . S
H424 C430 0.930 . S
H425 C433 0.930 . S
H426 C434 0.930 . S
H427 C435 0.930 . S
H428 C438 0.930 . S
H429 C439 0.930 . S
C430 H424 0.930 . S
C430 C431 1.355 . S
C430 C432 1.415 . S
C431 C430 1.355 . S
C431 C433 1.419 . S
C432 C430 1.415 . S
C432 C437 1.425 . S
C432 C439 1.409 . S
C433 H425 0.930 . S
C433 C431 1.419 . S
C433 C434 1.362 . S
C434 H426 0.930 . S
C434 C433 1.362 . S
C434 C437 1.409 . S
C435 H427 0.930 . S
C435 C436 1.355 . S
C435 C437 1.415 . S
C436 C435 1.355 . S
C436 C438 1.419 . S
C437 C432 1.425 . S
C437 C434 1.409 . S
C437 C435 1.415 . S
C438 H428 0.930 . S
C438 C436 1.419 . S
C438 C439 1.362 . S
C439 H429 0.930 . S
C439 C432 1.409 . S
C439 C438 1.362 . S
H440 C446 0.930 . S
H441 C449 0.930 . S
H442 C450 0.930 . S
H443 C451 0.930 . S
H444 C454 0.930 . S
H445 C455 0.930 . S
C446 H440 0.930 . S
C446 C447 1.355 . S
C446 C448 1.415 . S
C447 C446 1.355 . S
C447 C449 1.419 . S
C448 C446 1.415 . S
C448 C453 1.425 . S
C448 C455 1.409 . S
C449 H441 0.930 . S
C449 C447 1.419 . S
C449 C450 1.362 . S
C450 H442 0.930 . S
C450 C449 1.362 . S
C450 C453 1.409 . S
C451 H443 0.930 . S
C451 C452 1.355 . S
C451 C453 1.415 . S
C452 C451 1.355 . S
C452 C454 1.419 . S
C453 C448 1.425 . S
C453 C450 1.409 . S
C453 C451 1.415 . S
C454 H444 0.930 . S
C454 C452 1.419 . S
C454 C455 1.362 . S
C455 H445 0.930 . S
C455 C448 1.409 . S
C455 C454 1.362 . S
H456 C462 0.930 . S
H457 C465 0.930 . S
H458 C466 0.930 . S
H459 C467 0.930 . S
H460 C470 0.930 . S
H461 C471 0.930 . S
C462 H456 0.930 . S
C462 C463 1.355 . S
C462 C464 1.415 . S
C463 C462 1.355 . S
C463 C465 1.419 . S
C464 C462 1.415 . S
C464 C469 1.425 . S
C464 C471 1.409 . S
C465 H457 0.930 . S
C465 C463 1.419 . S
C465 C466 1.362 . S
C466 H458 0.930 . S
C466 C465 1.362 . S
C466 C469 1.409 . S
C467 H459 0.930 . S
C467 C468 1.355 . S
C467 C469 1.415 . S
C468 C467 1.355 . S
C468 C470 1.419 . S
C469 C464 1.425 . S
C469 C466 1.409 . S
C469 C467 1.415 . S
C470 H460 0.930 . S
C470 C468 1.419 . S
C470 C471 1.362 . S
C471 H461 0.930 . S
C471 C464 1.409 . S
C471 C470 1.362 . S
H472 C478 0.930 . S
H473 C481 0.930 . S
H474 C482 0.930 . S
H475 C483 0.930 . S
H476 C486 0.930 . S
H477 C487 0.930 . S
C478 H472 0.930 . S
C478 C479 1.355 . S
C478 C480 1.415 . S
C479 C478 1.355 . S
C479 C481 1.419 . S
C480 C478 1.415 . S
C480 C485 1.425 . S
C480 C487 1.409 . S
C481 H473 0.930 . S
C481 C479 1.419 . S
C481 C482 1.362 . S
C482 H474 0.930 . S
C482 C481 1.362 . S
C482 C485 1.409 . S
C483 H475 0.930 . S
C483 C484 1.355 . S
C483 C485 1.415 . S
C484 C483 1.355 . S
C484 C486 1.419 . S
C485 C480 1.425 . S
C485 C482 1.409 . S
C485 C483 1.415 . S
C486 H476 0.930 . S
C486 C484 1.419 . S
C486 C487 1.362 . S
C487 H477 0.930 . S
C487 C480 1.409 . S
C487 C486 1.362 . S
H488 C494 0.930 . S
H489 C497 0.930 1_554 S
H490 C498 0.930 . S
H491 C499 0.930 1_554 S
H492 C502 0.930 . S
H493 C503 0.930 . S
C494 H488 0.930 . S
C494 C495 1.355 . S
C494 C496 1.415 . S
C495 C494 1.355 . S
C495 C497 1.419 . S
C496 C494 1.415 . S
C496 C501 1.425 . S
C496 C503 1.409 . S
C497 H489 0.930 1_556 S
C497 C495 1.419 . S
C497 C498 1.362 1_556 S
C498 H490 0.930 . S
C498 C497 1.362 1_554 S
C498 C501 1.409 1_554 S
C499 H491 0.930 1_556 S
C499 C500 1.355 . S
C499 C501 1.415 . S
C500 C499 1.355 . S
C500 C502 1.419 . S
C501 C496 1.425 . S
C501 C498 1.409 1_556 S
C501 C499 1.415 . S
C502 H492 0.930 . S
C502 C500 1.419 . S
C502 C503 1.362 . S
C503 H493 0.930 . S
C503 C496 1.409 . S
C503 C502 1.362 . S
H504 C510 0.930 . S
H505 C513 0.930 . S
H506 C514 0.930 . S
H507 C515 0.930 . S
H508 C518 0.930 . S
H509 C519 0.930 . S
C510 H504 0.930 . S
C510 C511 1.355 . S
C510 C512 1.415 . S
C511 C510 1.355 . S
C511 C513 1.419 . S
C512 C510 1.415 . S
C512 C517 1.425 . S
C512 C519 1.409 . S
C513 H505 0.930 . S
C513 C511 1.419 . S
C513 C514 1.362 . S
C514 H506 0.930 . S
C514 C513 1.362 . S
C514 C517 1.409 . S
C515 H507 0.930 . S
C515 C516 1.355 . S
C515 C517 1.415 . S
C516 C515 1.355 . S
C516 C518 1.419 . S
C517 C512 1.425 . S
C517 C514 1.409 . S
C517 C515 1.415 . S
C518 H508 0.930 . S
C518 C516 1.419 . S
C518 C519 1.362 . S
C519 H509 0.930 . S
C519 C512 1.409 . S
C519 C518 1.362 . S
H520 C526 0.930 . S
H521 C529 0.930 . S
H522 C530 0.930 . S
H523 C531 0.930 . S
H524 C534 0.930 . S
H525 C535 0.930 . S
C526 H520 0.930 . S
C526 C527 1.355 . S
C526 C528 1.415 . S
C527 C526 1.355 . S
C527 C529 1.419 . S
C528 C526 1.415 . S
C528 C533 1.425 . S
C528 C535 1.409 . S
C529 H521 0.930 . S
C529 C527 1.419 . S
C529 C530 1.362 . S
C530 H522 0.930 . S
C530 C529 1.362 . S
C530 C533 1.409 . S
C531 H523 0.930 . S
C531 C532 1.355 . S
C531 C533 1.415 . S
C532 C531 1.355 . S
C532 C534 1.419 . S
C533 C528 1.425 . S
C533 C530 1.409 . S
C533 C531 1.415 . S
C534 H524 0.930 . S
C534 C532 1.419 . S
C534 C535 1.362 . S
C535 H525 0.930 . S
C535 C528 1.409 . S
C535 C534 1.362 . S
H536 C542 0.930 . S
H537 C545 0.930 . S
H538 C546 0.930 . S
H539 C547 0.930 . S
H540 C550 0.930 . S
H541 C551 0.930 . S
C542 H536 0.930 . S
C542 C543 1.355 . S
C542 C544 1.415 . S
C543 C542 1.355 . S
C543 C545 1.419 . S
C544 C542 1.415 . S
C544 C549 1.425 . S
C544 C551 1.409 . S
C545 H537 0.930 . S
C545 C543 1.419 . S
C545 C546 1.362 . S
C546 H538 0.930 . S
C546 C545 1.362 . S
C546 C549 1.409 . S
C547 H539 0.930 . S
C547 C548 1.355 1_556 S
C547 C549 1.415 . S
C548 C547 1.355 1_554 S
C548 C550 1.419 . S
C549 C544 1.425 . S
C549 C546 1.409 . S
C549 C547 1.415 . S
C550 H540 0.930 . S
C550 C548 1.419 . S
C550 C551 1.362 1_554 S
C551 H541 0.930 . S
C551 C544 1.409 . S
C551 C550 1.362 1_556 S
H552 C558 0.930 . S
H553 C561 0.930 . S
H554 C562 0.930 . S
H555 C563 0.930 . S
H556 C566 0.930 . S
H557 C567 0.930 . S
C558 H552 0.930 . S
C558 C559 1.355 . S
C558 C560 1.415 1_556 S
C559 C558 1.355 . S
C559 C561 1.419 . S
C560 C558 1.415 1_554 S
C560 C565 1.425 . S
C560 C567 1.409 . S
C561 H553 0.930 . S
C561 C559 1.419 . S
C561 C562 1.362 1_556 S
C562 H554 0.930 . S
C562 C561 1.362 1_554 S
C562 C565 1.409 . S
C563 H555 0.930 . S
C563 C564 1.355 . S
C563 C565 1.415 . S
C564 C563 1.355 . S
C564 C566 1.419 . S
C565 C560 1.425 . S
C565 C562 1.409 . S
C565 C563 1.415 . S
C566 H556 0.930 . S
C566 C564 1.419 . S
C566 C567 1.362 . S
C567 H557 0.930 . S
C567 C560 1.409 . S
C567 C566 1.362 . S
H568 C574 0.930 . S
H569 C577 0.930 . S
H570 C578 0.930 . S
H571 C579 0.930 . S
H572 C582 0.930 . S
H573 C583 0.930 . S
C574 H568 0.930 . S
C574 C575 1.355 . S
C574 C576 1.415 . S
C575 C574 1.355 . S
C575 C577 1.419 . S
C576 C574 1.415 . S
C576 C581 1.425 . S
C576 C583 1.409 . S
C577 H569 0.930 . S
C577 C575 1.419 . S
C577 C578 1.362 . S
C578 H570 0.930 . S
C578 C577 1.362 . S
C578 C581 1.409 . S
C579 H571 0.930 . S
C579 C580 1.355 . S
C579 C581 1.415 . S
C580 C579 1.355 . S
C580 C582 1.419 . S
C581 C576 1.425 . S
C581 C578 1.409 . S
C581 C579 1.415 . S
C582 H572 0.930 . S
C582 C580 1.419 . S
C582 C583 1.362 . S
C583 H573 0.930 . S
C583 C576 1.409 . S
C583 C582 1.362 . S
H584 C590 0.930 . S
H585 C593 0.930 . S
H586 C594 0.930 . S
H587 C595 0.930 . S
H588 C598 0.930 . S
H589 C599 0.930 . S
C590 H584 0.930 . S
C590 C591 1.355 . S
C590 C592 1.415 . S
C591 C590 1.355 . S
C591 C593 1.419 . S
C592 C590 1.415 . S
C592 C597 1.425 . S
C592 C599 1.409 . S
C593 H585 0.930 . S
C593 C591 1.419 . S
C593 C594 1.362 . S
C594 H586 0.930 . S
C594 C593 1.362 . S
C594 C597 1.409 . S
C595 H587 0.930 . S
C595 C596 1.355 . S
C595 C597 1.415 . S
C596 C595 1.355 . S
C596 C598 1.419 . S
C597 C592 1.425 . S
C597 C594 1.409 . S
C597 C595 1.415 . S
C598 H588 0.930 . S
C598 C596 1.419 . S
C598 C599 1.362 . S
C599 H589 0.930 . S
C599 C592 1.409 . S
C599 C598 1.362 . S
H600 C606 0.930 . S
H601 C609 0.930 . S
H602 C610 0.930 . S
H603 C611 0.930 . S
H604 C614 0.930 . S
H605 C615 0.930 . S
C606 H600 0.930 . S
C606 C607 1.355 . S
C606 C608 1.415 . S
C607 C606 1.355 . S
C607 C609 1.419 . S
C608 C606 1.415 . S
C608 C613 1.425 . S
C608 C615 1.409 . S
C609 H601 0.930 . S
C609 C607 1.419 . S
C609 C610 1.362 . S
C610 H602 0.930 . S
C610 C609 1.362 . S
C610 C613 1.409 . S
C611 H603 0.930 . S
C611 C612 1.355 . S
C611 C613 1.415 . S
C612 C611 1.355 . S
C612 C614 1.419 . S
C613 C608 1.425 . S
C613 C610 1.409 . S
C613 C611 1.415 . S
C614 H604 0.930 . S
C614 C612 1.419 . S
C614 C615 1.362 . S
C615 H605 0.930 . S
C615 C608 1.409 . S
C615 C614 1.362 . S
H616 C622 0.930 . S
H617 C625 0.930 . S
H618 C626 0.930 . S
H619 C627 0.930 . S
H620 C630 0.930 . S
H621 C631 0.930 . S
C622 H616 0.930 . S
C622 C623 1.355 . S
C622 C624 1.415 . S
C623 C622 1.355 . S
C623 C625 1.419 . S
C624 C622 1.415 . S
C624 C629 1.425 . S
C624 C631 1.409 . S
C625 H617 0.930 . S
C625 C623 1.419 . S
C625 C626 1.362 . S
C626 H618 0.930 . S
C626 C625 1.362 . S
C626 C629 1.409 . S
C627 H619 0.930 . S
C627 C628 1.355 . S
C627 C629 1.415 . S
C628 C627 1.355 . S
C628 C630 1.419 . S
C629 C624 1.425 . S
C629 C626 1.409 . S
C629 C627 1.415 . S
C630 H620 0.930 . S
C630 C628 1.419 . S
C630 C631 1.362 . S
C631 H621 0.930 . S
C631 C624 1.409 . S
C631 C630 1.362 . S
H632 C638 0.930 . S
H633 C641 0.930 . S
H634 C642 0.930 . S
H635 C643 0.930 . S
H636 C646 0.930 . S
H637 C647 0.930 . S
C638 H632 0.930 . S
C638 C639 1.355 . S
C638 C640 1.415 . S
C639 C638 1.355 . S
C639 C641 1.419 . S
C640 C638 1.415 . S
C640 C645 1.425 . S
C640 C647 1.409 . S
C641 H633 0.930 . S
C641 C639 1.419 . S
C641 C642 1.362 . S
C642 H634 0.930 . S
C642 C641 1.362 . S
C642 C645 1.409 . S
C643 H635 0.930 . S
C643 C644 1.355 . S
C643 C645 1.415 . S
C644 C643 1.355 . S
C644 C646 1.419 . S
C645 C640 1.425 . S
C645 C642 1.409 . S
C645 C643 1.415 . S
C646 H636 0.930 . S
C646 C644 1.419 . S
C646 C647 1.362 . S
C647 H637 0.930 . S
C647 C640 1.409 . S
C647 C646 1.362 . S
H648 C654 0.930 . S
H649 C657 0.930 . S
H650 C658 0.930 . S
H651 C659 0.930 . S
H652 C662 0.930 . S
H653 C663 0.930 . S
C654 H648 0.930 . S
C654 C655 1.355 . S
C654 C656 1.415 . S
C655 C654 1.355 . S
C655 C657 1.419 . S
C656 C654 1.415 . S
C656 C661 1.425 . S
C656 C663 1.409 . S
C657 H649 0.930 . S
C657 C655 1.419 . S
C657 C658 1.362 . S
C658 H650 0.930 . S
C658 C657 1.362 . S
C658 C661 1.409 . S
C659 H651 0.930 . S
C659 C660 1.355 . S
C659 C661 1.415 . S
C660 C659 1.355 . S
C660 C662 1.419 . S
C661 C656 1.425 . S
C661 C658 1.409 . S
C661 C659 1.415 . S
C662 H652 0.930 . S
C662 C660 1.419 . S
C662 C663 1.362 . S
C663 H653 0.930 . S
C663 C656 1.409 . S
C663 C662 1.362 . S
H664 C670 0.930 . S
H665 C673 0.930 . S
H666 C674 0.930 . S
H667 C675 0.930 . S
H668 C678 0.930 . S
H669 C679 0.930 . S
C670 H664 0.930 . S
C670 C671 1.355 . S
C670 C672 1.415 . S
C671 C670 1.355 . S
C671 C673 1.419 . S
C672 C670 1.415 . S
C672 C677 1.425 . S
C672 C679 1.409 . S
C673 H665 0.930 . S
C673 C671 1.419 . S
C673 C674 1.362 . S
C674 H666 0.930 . S
C674 C673 1.362 . S
C674 C677 1.409 . S
C675 H667 0.930 . S
C675 C676 1.355 . S
C675 C677 1.415 1_554 S
C676 C675 1.355 . S
C676 C678 1.419 . S
C677 C672 1.425 . S
C677 C674 1.409 . S
C677 C675 1.415 1_556 S
C678 H668 0.930 . S
C678 C676 1.419 . S
C678 C679 1.362 1_554 S
C679 H669 0.930 . S
C679 C672 1.409 . S
C679 C678 1.362 1_556 S
H680 C686 0.930 . S
H681 C689 0.930 . S
H682 C690 0.930 . S
H683 C691 0.930 . S
H684 C694 0.930 . S
H685 C695 0.930 . S
C686 H680 0.930 . S
C686 C687 1.355 . S
C686 C688 1.415 . S
C687 C686 1.355 . S
C687 C689 1.419 . S
C688 C686 1.415 . S
C688 C693 1.425 . S
C688 C695 1.409 . S
C689 H681 0.930 . S
C689 C687 1.419 . S
C689 C690 1.362 . S
C690 H682 0.930 . S
C690 C689 1.362 . S
C690 C693 1.409 . S
C691 H683 0.930 . S
C691 C692 1.355 1_554 S
C691 C693 1.415 . S
C692 C691 1.355 1_556 S
C692 C694 1.419 . S
C693 C688 1.425 . S
C693 C690 1.409 . S
C693 C691 1.415 . S
C694 H684 0.930 . S
C694 C692 1.419 . S
C694 C695 1.362 1_556 S
C695 H685 0.930 . S
C695 C688 1.409 . S
C695 C694 1.362 1_554 S
H696 C702 0.930 . S
H697 C705 0.930 . S
H698 C706 0.930 . S
H699 C707 0.930 . S
H700 C710 0.930 . S
H701 C711 0.930 . S
C702 H696 0.930 . S
C702 C703 1.355 . S
C702 C704 1.415 . S
C703 C702 1.355 . S
C703 C705 1.419 . S
C704 C702 1.415 . S
C704 C709 1.425 . S
C704 C711 1.409 . S
C705 H697 0.930 . S
C705 C703 1.419 . S
C705 C706 1.362 . S
C706 H698 0.930 . S
C706 C705 1.362 . S
C706 C709 1.409 . S
C707 H699 0.930 . S
C707 C708 1.355 . S
C707 C709 1.415 . S
C708 C707 1.355 . S
C708 C710 1.419 . S
C709 C704 1.425 . S
C709 C706 1.409 . S
C709 C707 1.415 . S
C710 H700 0.930 . S
C710 C708 1.419 . S
C710 C711 1.362 . S
C711 H701 0.930 . S
C711 C704 1.409 . S
C711 C710 1.362 . S
H712 C718 0.930 . S
H713 C721 0.930 . S
H714 C722 0.930 . S
H715 C723 0.930 . S
H716 C726 0.930 . S
H717 C727 0.930 . S
C718 H712 0.930 . S
C718 C719 1.355 . S
C718 C720 1.415 . S
C719 C718 1.355 . S
C719 C721 1.419 . S
C720 C718 1.415 . S
C720 C725 1.425 . S
C720 C727 1.409 . S
C721 H713 0.930 . S
C721 C719 1.419 . S
C721 C722 1.362 . S
C722 H714 0.930 . S
C722 C721 1.362 . S
C722 C725 1.409 . S
C723 H715 0.930 . S
C723 C724 1.355 . S
C723 C725 1.415 . S
C724 C723 1.355 . S
C724 C726 1.419 . S
C725 C720 1.425 . S
C725 C722 1.409 . S
C725 C723 1.415 . S
C726 H716 0.930 . S
C726 C724 1.419 . S
C726 C727 1.362 . S
C727 H717 0.930 . S
C727 C720 1.409 . S
C727 C726 1.362 . S
H728 C734 0.930 . S
H729 C737 0.930 . S
H730 C738 0.930 . S
H731 C739 0.930 . S
H732 C742 0.930 . S
H733 C743 0.930 . S
C734 H728 0.930 . S
C734 C735 1.355 . S
C734 C736 1.415 . S
C735 C734 1.355 . S
C735 C737 1.419 . S
C736 C734 1.415 . S
C736 C741 1.425 . S
C736 C743 1.409 . S
C737 H729 0.930 . S
C737 C735 1.419 . S
C737 C738 1.362 . S
C738 H730 0.930 . S
C738 C737 1.362 . S
C738 C741 1.409 . S
C739 H731 0.930 . S
C739 C740 1.355 . S
C739 C741 1.415 . S
C740 C739 1.355 . S
C740 C742 1.419 . S
C741 C736 1.425 . S
C741 C738 1.409 . S
C741 C739 1.415 . S
C742 H732 0.930 . S
C742 C740 1.419 . S
C742 C743 1.362 . S
C743 H733 0.930 . S
C743 C736 1.409 . S
C743 C742 1.362 . S
H744 C750 0.930 . S
H745 C753 0.930 . S
H746 C754 0.930 . S
H747 C755 0.930 . S
H748 C758 0.930 . S
H749 C759 0.930 . S
C750 H744 0.930 . S
C750 C751 1.355 . S
C750 C752 1.415 . S
C751 C750 1.355 . S
C751 C753 1.419 . S
C752 C750 1.415 . S
C752 C757 1.425 . S
C752 C759 1.409 . S
C753 H745 0.930 . S
C753 C751 1.419 . S
C753 C754 1.362 . S
C754 H746 0.930 . S
C754 C753 1.362 . S
C754 C757 1.409 . S
C755 H747 0.930 . S
C755 C756 1.355 . S
C755 C757 1.415 . S
C756 C755 1.355 . S
C756 C758 1.419 . S
C757 C752 1.425 . S
C757 C754 1.409 . S
C757 C755 1.415 . S
C758 H748 0.930 . S
C758 C756 1.419 . S
C758 C759 1.362 . S
C759 H749 0.930 . S
C759 C752 1.409 . S
C759 C758 1.362 . S
H760 C766 0.930 . S
H761 C769 0.930 1_554 S
H762 C770 0.930 . S
H763 C771 0.930 . S
H764 C774 0.930 . S
H765 C775 0.930 . S
C766 H760 0.930 . S
C766 C767 1.355 1_556 S
C766 C768 1.415 . S
C767 C766 1.355 1_554 S
C767 C769 1.419 1_554 S
C768 C766 1.415 . S
C768 C773 1.425 . S
C768 C775 1.409 . S
C769 H761 0.930 1_556 S
C769 C767 1.419 1_556 S
C769 C770 1.362 . S
C770 H762 0.930 . S
C770 C769 1.362 . S
C770 C773 1.409 . S
C771 H763 0.930 . S
C771 C772 1.355 . S
C771 C773 1.415 . S
C772 C771 1.355 . S
C772 C774 1.419 . S
C773 C768 1.425 . S
C773 C770 1.409 . S
C773 C771 1.415 . S
C774 H764 0.930 . S
C774 C772 1.419 . S
C774 C775 1.362 . S
C775 H765 0.930 . S
C775 C768 1.409 . S
C775 C774 1.362 . S
H776 C782 0.930 . S
H777 C785 0.930 . S
H778 C786 0.930 . S
H779 C787 0.930 . S
H780 C790 0.930 . S
H781 C791 0.930 . S
C782 H776 0.930 . S
C782 C783 1.355 . S
C782 C784 1.415 . S
C783 C782 1.355 . S
C783 C785 1.419 . S
C784 C782 1.415 . S
C784 C789 1.425 . S
C784 C791 1.409 . S
C785 H777 0.930 . S
C785 C783 1.419 . S
C785 C786 1.362 . S
C786 H778 0.930 . S
C786 C785 1.362 . S
C786 C789 1.409 . S
C787 H779 0.930 . S
C787 C788 1.355 . S
C787 C789 1.415 . S
C788 C787 1.355 . S
C788 C790 1.419 . S
C789 C784 1.425 . S
C789 C786 1.409 . S
C789 C787 1.415 . S
C790 H780 0.930 . S
C790 C788 1.419 . S
C790 C791 1.362 . S
C791 H781 0.930 . S
C791 C784 1.409 . S
C791 C790 1.362 . S
H792 C798 0.930 . S
H793 C801 0.930 . S
H794 C802 0.930 . S
H795 C803 0.930 . S
H796 C806 0.930 . S
H797 C807 0.930 . S
C798 H792 0.930 . S
C798 C799 1.355 . S
C798 C800 1.385 1_545 S
C799 C798 1.355 . S
C799 C801 1.419 1_554 S
C800 C798 1.385 1_565 S
C800 C805 1.423 1_564 S
C800 C807 1.442 . S
C801 H793 0.930 . S
C801 C799 1.419 1_556 S
C801 C802 1.362 . S
C802 H794 0.930 . S
C802 C801 1.362 . S
C802 C805 1.442 . S
C803 H795 0.930 . S
C803 C804 1.355 . S
C803 C805 1.385 1_565 S
C804 C803 1.355 . S
C804 C806 1.419 1_556 S
C805 C800 1.423 1_546 S
C805 C802 1.442 . S
C805 C803 1.385 1_545 S
C806 H796 0.930 . S
C806 C804 1.419 1_554 S
C806 C807 1.362 . S
C807 H797 0.930 . S
C807 C800 1.442 . S
C807 C806 1.362 . S
H808 C814 0.930 . S
H809 C817 0.930 1_556 S
H810 C818 0.930 . S
H811 C819 0.930 . S
H812 C822 0.930 . S
H813 C823 0.930 . S
C814 H808 0.930 . S
C814 C815 1.355 . S
C814 C816 1.415 . S
C815 C814 1.355 . S
C815 C817 1.419 . S
C816 C814 1.415 . S
C816 C821 1.425 . S
C816 C823 1.409 . S
C817 H809 0.930 1_554 S
C817 C815 1.419 . S
C817 C818 1.362 . S
C818 H810 0.930 . S
C818 C817 1.362 . S
C818 C821 1.409 . S
C819 H811 0.930 . S
C819 C820 1.355 . S
C819 C821 1.415 . S
C820 C819 1.355 . S
C820 C822 1.419 . S
C821 C816 1.425 . S
C821 C818 1.409 . S
C821 C819 1.415 . S
C822 H812 0.930 . S
C822 C820 1.419 . S
C822 C823 1.362 . S
C823 H813 0.930 . S
C823 C816 1.409 . S
C823 C822 1.362 . S
H824 C830 0.930 . S
H825 C833 0.930 . S
H826 C834 0.930 . S
H827 C835 0.930 . S
H828 C838 0.930 . S
H829 C839 0.930 . S
C830 H824 0.930 . S
C830 C831 1.355 . S
C830 C832 1.415 . S
C831 C830 1.355 . S
C831 C833 1.419 . S
C832 C830 1.415 . S
C832 C837 1.425 1_455 S
C832 C839 1.409 1_455 S
C833 H825 0.930 . S
C833 C831 1.419 . S
C833 C834 1.362 . S
C834 H826 0.930 . S
C834 C833 1.362 . S
C834 C837 1.409 1_455 S
C835 H827 0.930 . S
C835 C836 1.355 . S
C835 C837 1.415 . S
C836 C835 1.355 . S
C836 C838 1.419 . S
C837 C832 1.425 1_655 S
C837 C834 1.409 1_655 S
C837 C835 1.415 . S
C838 H828 0.930 . S
C838 C836 1.419 . S
C838 C839 1.362 . S
C839 H829 0.930 . S
C839 C832 1.409 1_655 S
C839 C838 1.362 . S
H840 C846 0.930 . S
H841 C849 0.930 . S
H842 C850 0.930 . S
H843 C851 0.930 . S
H844 C854 0.930 . S
H845 C855 0.930 . S
C846 H840 0.930 . S
C846 C847 1.355 . S
C846 C848 1.386 1_565 S
C847 C846 1.355 . S
C847 C849 1.419 . S
C848 C846 1.386 1_545 S
C848 C853 1.420 1_545 S
C848 C855 1.442 . S
C849 H841 0.930 . S
C849 C847 1.419 . S
C849 C850 1.362 . S
C850 H842 0.930 . S
C850 C849 1.362 . S
C850 C853 1.442 . S
C851 H843 0.930 . S
C851 C852 1.355 . S
C851 C853 1.386 1_545 S
C852 C851 1.355 . S
C852 C854 1.419 . S
C853 C848 1.420 1_565 S
C853 C850 1.442 . S
C853 C851 1.386 1_565 S
C854 H844 0.930 . S
C854 C852 1.419 . S
C854 C855 1.362 . S
C855 H845 0.930 . S
C855 C848 1.442 . S
C855 C854 1.362 . S
H856 C862 0.930 . S
H857 C865 0.930 . S
H858 C866 0.930 . S
H859 C867 0.930 . S
H860 C870 0.930 . S
H861 C871 0.930 . S
C862 H856 0.930 . S
C862 C863 1.355 . S
C862 C864 1.415 . S
C863 C862 1.355 . S
C863 C865 1.419 . S
C864 C862 1.415 . S
C864 C869 1.425 . S
C864 C871 1.409 . S
C865 H857 0.930 . S
C865 C863 1.419 . S
C865 C866 1.362 . S
C866 H858 0.930 . S
C866 C865 1.362 . S
C866 C869 1.409 . S
C867 H859 0.930 . S
C867 C868 1.355 . S
C867 C869 1.415 . S
C868 C867 1.355 . S
C868 C870 1.419 . S
C869 C864 1.425 . S
C869 C866 1.409 . S
C869 C867 1.415 . S
C870 H860 0.930 . S
C870 C868 1.419 . S
C870 C871 1.362 . S
C871 H861 0.930 . S
C871 C864 1.409 . S
C871 C870 1.362 . S
H872 C878 0.930 . S
H873 C881 0.930 . S
H874 C882 0.930 . S
H875 C883 0.930 . S
H876 C886 0.930 . S
H877 C887 0.930 . S
C878 H872 0.930 . S
C878 C879 1.355 . S
C878 C880 1.415 . S
C879 C878 1.355 . S
C879 C881 1.419 . S
C880 C878 1.415 . S
C880 C885 1.425 1_455 S
C880 C887 1.409 1_455 S
C881 H873 0.930 . S
C881 C879 1.419 . S
C881 C882 1.362 . S
C882 H874 0.930 . S
C882 C881 1.362 . S
C882 C885 1.409 1_455 S
C883 H875 0.930 . S
C883 C884 1.355 . S
C883 C885 1.415 . S
C884 C883 1.355 . S
C884 C886 1.419 . S
C885 C880 1.425 1_655 S
C885 C882 1.409 1_655 S
C885 C883 1.415 . S
C886 H876 0.930 . S
C886 C884 1.419 . S
C886 C887 1.362 . S
C887 H877 0.930 . S
C887 C880 1.409 1_655 S
C887 C886 1.362 . S
C415 C292 1.515 . S
C420 C20 1.509 . S
C431 C326 1.513 . S
C436 C54 1.510 . S
C447 C360 1.515 . S
C452 C88 1.509 . S
C463 C394 1.510 . S
C468 C122 1.514 . S
C479 C156 1.514 . S
C484 C224 1.509 . S
C495 C258 1.510 . S
C500 C190 1.514 . S
C511 C9 1.307 . S
C516 C5 1.300 . S
C527 C39 1.297 . S
C532 C43 1.314 . S
C543 C73 1.294 . S
C548 C77 1.325 . S
C559 C107 1.322 . S
C564 C111 1.297 . S
C575 C141 1.305 . S
C580 C145 1.300 . S
C591 C175 1.294 . S
C596 C179 1.327 . S
C607 C213 1.280 . S
C612 C209 1.328 . S
C623 C243 1.323 . S
C628 C247 1.279 . S
C639 C281 1.290 . S
C644 C277 1.312 . S
C655 C315 1.319 . S
C660 C311 1.306 . S
C671 C349 1.278 . S
C676 C345 1.326 . S
C687 C379 1.305 . S
C692 C383 1.300 . S
C703 C33 1.597 . S
C708 C373 1.601 . S
C719 C67 1.600 . S
C724 C407 1.606 . S
C735 C101 1.630 . S
C740 C237 1.624 . S
C751 C271 1.633 . S
C756 C135 1.636 . S
C767 C305 1.622 . S
C772 C169 1.629 . S
C783 C339 1.612 . S
C788 C203 1.605 1_554 S
C799 C2 1.572 . S
C804 C240 1.575 . S
C815 C274 1.604 . S
C820 C36 1.598 . S
C831 C308 1.587 . S
C836 C70 1.578 . S
C847 C104 1.572 . S
C852 C342 1.574 . S
C863 C376 1.590 . S
C868 C138 1.581 . S
C879 C172 1.584 . S
C884 C206 1.576 . S
