# Generated by pormake.
# Topology pcb, (4)-cn, num edge types: 1
# Building blocks:
#     Node 0, Type 0, BuildingBlock: UXUYUI_clean_sbu_0, # of connection points: 4
#     Node 1, Type 0, BuildingBlock: UXUYUI_clean_sbu_0, # of connection points: 4
#     Node 2, Type 0, BuildingBlock: UXUYUI_clean_sbu_0, # of connection points: 4
#     Node 3, Type 0, BuildingBlock: UXUYUI_clean_sbu_0, # of connection points: 4
#     Node 4, Type 0, BuildingBlock: UXUYUI_clean_sbu_0, # of connection points: 4
#     Node 5, Type 0, BuildingBlock: UXUYUI_clean_sbu_0, # of connection points: 4
#     Node 6, Type 0, BuildingBlock: UXUYUI_clean_sbu_0, # of connection points: 4
#     Node 7, Type 0, BuildingBlock: UXUYUI_clean_sbu_0, # of connection points: 4
#     Node 8, Type 0, BuildingBlock: UXUYUI_clean_sbu_0, # of connection points: 4
#     Node 9, Type 0, BuildingBlock: UXUYUI_clean_sbu_0, # of connection points: 4
#     Node 10, Type 0, BuildingBlock: UXUYUI_clean_sbu_0, # of connection points: 4
#     Node 11, Type 0, BuildingBlock: UXUYUI_clean_sbu_0, # of connection points: 4
#     Node 12, Type 0, BuildingBlock: UXUYUI_clean_sbu_0, # of connection points: 4
#     Node 13, Type 0, BuildingBlock: UXUYUI_clean_sbu_0, # of connection points: 4
#     Node 14, Type 0, BuildingBlock: UXUYUI_clean_sbu_0, # of connection points: 4
#     Node 15, Type 0, BuildingBlock: UXUYUI_clean_sbu_0, # of connection points: 4
#     Edge 16, Type (0, 0), BuildingBlock: TEMPAE_clean_linker_10, # of connection points: 2
#     Edge 17, Type (0, 0), BuildingBlock: TEMPAE_clean_linker_10, # of connection points: 2
#     Edge 18, Type (0, 0), BuildingBlock: TEMPAE_clean_linker_10, # of connection points: 2
#     Edge 19, Type (0, 0), BuildingBlock: TEMPAE_clean_linker_10, # of connection points: 2
#     Edge 20, Type (0, 0), BuildingBlock: TEMPAE_clean_linker_10, # of connection points: 2
#     Edge 21, Type (0, 0), BuildingBlock: TEMPAE_clean_linker_10, # of connection points: 2
#     Edge 22, Type (0, 0), BuildingBlock: TEMPAE_clean_linker_10, # of connection points: 2
#     Edge 23, Type (0, 0), BuildingBlock: TEMPAE_clean_linker_10, # of connection points: 2
#     Edge 24, Type (0, 0), BuildingBlock: TEMPAE_clean_linker_10, # of connection points: 2
#     Edge 25, Type (0, 0), BuildingBlock: TEMPAE_clean_linker_10, # of connection points: 2
#     Edge 26, Type (0, 0), BuildingBlock: TEMPAE_clean_linker_10, # of connection points: 2
#     Edge 27, Type (0, 0), BuildingBlock: TEMPAE_clean_linker_10, # of connection points: 2
#     Edge 28, Type (0, 0), BuildingBlock: TEMPAE_clean_linker_10, # of connection points: 2
#     Edge 29, Type (0, 0), BuildingBlock: TEMPAE_clean_linker_10, # of connection points: 2
#     Edge 30, Type (0, 0), BuildingBlock: TEMPAE_clean_linker_10, # of connection points: 2
#     Edge 31, Type (0, 0), BuildingBlock: TEMPAE_clean_linker_10, # of connection points: 2
#     Edge 32, Type (0, 0), BuildingBlock: TEMPAE_clean_linker_10, # of connection points: 2
#     Edge 33, Type (0, 0), BuildingBlock: TEMPAE_clean_linker_10, # of connection points: 2
#     Edge 34, Type (0, 0), BuildingBlock: TEMPAE_clean_linker_10, # of connection points: 2
#     Edge 35, Type (0, 0), BuildingBlock: TEMPAE_clean_linker_10, # of connection points: 2
#     Edge 36, Type (0, 0), BuildingBlock: TEMPAE_clean_linker_10, # of connection points: 2
#     Edge 37, Type (0, 0), BuildingBlock: TEMPAE_clean_linker_10, # of connection points: 2
#     Edge 38, Type (0, 0), BuildingBlock: TEMPAE_clean_linker_10, # of connection points: 2
#     Edge 39, Type (0, 0), BuildingBlock: TEMPAE_clean_linker_10, # of connection points: 2
#     Edge 40, Type (0, 0), BuildingBlock: TEMPAE_clean_linker_10, # of connection points: 2
#     Edge 41, Type (0, 0), BuildingBlock: TEMPAE_clean_linker_10, # of connection points: 2
#     Edge 42, Type (0, 0), BuildingBlock: TEMPAE_clean_linker_10, # of connection points: 2
#     Edge 43, Type (0, 0), BuildingBlock: TEMPAE_clean_linker_10, # of connection points: 2
#     Edge 44, Type (0, 0), BuildingBlock: TEMPAE_clean_linker_10, # of connection points: 2
#     Edge 45, Type (0, 0), BuildingBlock: TEMPAE_clean_linker_10, # of connection points: 2
#     Edge 46, Type (0, 0), BuildingBlock: TEMPAE_clean_linker_10, # of connection points: 2
#     Edge 47, Type (0, 0), BuildingBlock: TEMPAE_clean_linker_10, # of connection points: 2
# Relax obj value: 0.233
# Max RMSD: 0.082
# Mean RMSD: 0.081
data_MOF--net-pcb--node1-UXUYUI_clean_sbu_0--edge1-TEMPAE_clean_linker_10
_symmetry_space_group_name_H-M    P1
_symmetry_Int_Tables_number       1
_symmetry_cell_setting            triclinic
loop_
_symmetry_equiv_pos_as_xyz
'x, y, z'
_cell_length_a     69.605973
_cell_length_b     69.307506
_cell_length_c     69.462345
_cell_angle_alpha  90.039687
_cell_angle_beta   89.922013
_cell_angle_gamma 90.172533
loop_
_atom_site_label
_atom_site_type_symbol
_atom_site_fract_x
_atom_site_fract_y
_atom_site_fract_z
_atom_type_partial_charge
Li0 Li 0.15057 0.15992 0.13388 0.0
Li1 Li 0.16083 0.16526 0.16686 0.0
Li2 Li 0.14967 0.13248 0.15666 0.0
Li3 Li 0.12755 0.15918 0.16159 0.0
C4 C 0.18784 0.1408 0.13776 0.0
N5 N 0.2195 0.12707 0.11798 0.0
C6 C 0.2054 0.15061 0.13873 0.0
C7 C 0.18652 0.1238 0.12698 0.0
C8 C 0.22119 0.1435 0.12855 0.0
C9 C 0.20265 0.11714 0.11703 0.0
C10 C 0.14843 0.19969 0.15438 0.0
C11 C 0.15123 0.2276 0.17494 0.0
N12 N 0.16082 0.23706 0.1607 0.0
C13 C 0.15815 0.20974 0.13988 0.0
C14 C 0.14477 0.20873 0.17199 0.0
C15 C 0.16435 0.22861 0.14338 0.0
C16 C 0.13789 0.16946 0.09702 0.0
N17 N 0.15397 0.16701 0.1078 0.0
C18 C 0.17401 0.17258 0.08045 0.0
C19 C 0.17181 0.16898 0.10007 0.0
C20 C 0.15766 0.17446 0.06883 0.0
C21 C 0.1394 0.17325 0.07736 0.0
H22 H 0.12389 0.16796 0.10364 0.0
H23 H 0.18436 0.16755 0.10903 0.0
C24 C 0.1801 0.17549 0.20098 0.0
N25 N 0.17914 0.1786 0.1817 0.0
C26 C 0.19354 0.18544 0.21209 0.0
C27 C 0.20473 0.20148 0.18322 0.0
C28 C 0.19122 0.19109 0.17269 0.0
C29 C 0.206 0.19874 0.20321 0.0
H30 H 0.17047 0.16523 0.20769 0.0
H31 H 0.19029 0.19305 0.15729 0.0
C32 C 0.12232 0.12915 0.12543 0.0
N33 N 0.10844 0.10419 0.09763 0.0
C34 C 0.10321 0.12289 0.12604 0.0
C35 C 0.13425 0.12294 0.11048 0.0
C36 C 0.0965 0.11019 0.11192 0.0
C37 C 0.127 0.11028 0.0966 0.0
C38 C 0.13248 0.14441 0.19637 0.0
C39 C 0.12487 0.12625 0.20077 0.0
C40 C 0.12758 0.16033 0.2077 0.0
C41 C 0.1122 0.12439 0.21628 0.0
C42 C 0.11485 0.15788 0.22307 0.0
N43 N 0.10747 0.14011 0.22699 0.0
C44 C 0.17032 0.09871 0.16517 0.0
C45 C 0.13789 0.09366 0.15604 0.0
C46 C 0.17319 0.07887 0.1669 0.0
N47 N 0.15298 0.10562 0.15951 0.0
C48 C 0.14011 0.07377 0.15752 0.0
C49 C 0.15798 0.06612 0.1629 0.0
H50 H 0.18196 0.10864 0.16818 0.0
H51 H 0.1241 0.09956 0.15214 0.0
C52 C 0.09497 0.18248 0.1701 0.0
N53 N 0.10201 0.16424 0.16923 0.0
C54 C 0.07565 0.18554 0.17467 0.0
C55 C 0.0715 0.151 0.17773 0.0
C56 C 0.09079 0.14864 0.17304 0.0
C57 C 0.06364 0.16962 0.17836 0.0
H58 H 0.10422 0.19461 0.16685 0.0
H59 H 0.09677 0.1343 0.172 0.0
O60 O 0.17224 0.14758 0.14771 0.0
O61 O 0.14241 0.18115 0.15126 0.0
O62 O 0.12908 0.1416 0.13919 0.0
O63 O 0.14467 0.14657 0.18106 0.0
H64 H 0.20683 0.16362 0.14716 0.0
H65 H 0.17332 0.11561 0.1265 0.0
H66 H 0.23481 0.15104 0.12908 0.0
H67 H 0.20179 0.10402 0.10862 0.0
H68 H 0.14863 0.23472 0.18856 0.0
H69 H 0.16101 0.20299 0.12613 0.0
H70 H 0.13716 0.2012 0.18331 0.0
H71 H 0.172 0.23652 0.13234 0.0
H72 H 0.18831 0.1737 0.07438 0.0
H73 H 0.12647 0.1745 0.06881 0.0
H74 H 0.19424 0.18267 0.22741 0.0
H75 H 0.21386 0.21176 0.17582 0.0
H76 H 0.09365 0.12771 0.13732 0.0
H77 H 0.14884 0.12808 0.10935 0.0
H78 H 0.08178 0.10514 0.11231 0.0
H79 H 0.1361 0.10538 0.08496 0.0
H80 H 0.12859 0.11377 0.19222 0.0
H81 H 0.13345 0.17444 0.20457 0.0
H82 H 0.1061 0.11045 0.21977 0.0
H83 H 0.11082 0.1701 0.23187 0.0
H84 H 0.18711 0.07358 0.17139 0.0
H85 H 0.12803 0.06448 0.15416 0.0
H86 H 0.07012 0.20012 0.17505 0.0
H87 H 0.06268 0.13832 0.18009 0.0
Li88 Li 0.823 0.16314 0.16629 0.0
Li89 Li 0.82961 0.13064 0.15535 0.0
Li90 Li 0.85526 0.15439 0.15912 0.0
Li91 Li 0.83187 0.15697 0.1331 0.0
C92 C 0.85127 0.13887 0.19319 0.0
N93 N 0.87893 0.12999 0.22024 0.0
C94 C 0.85741 0.11982 0.19544 0.0
C95 C 0.85911 0.15338 0.20478 0.0
C96 C 0.87141 0.11563 0.20919 0.0
C97 C 0.87312 0.14861 0.21834 0.0
C98 C 0.79339 0.13599 0.14746 0.0
C99 C 0.77511 0.10946 0.13435 0.0
N100 N 0.7631 0.11024 0.14979 0.0
C101 C 0.78084 0.13657 0.16318 0.0
C102 C 0.79047 0.12239 0.13288 0.0
C103 C 0.76561 0.12342 0.16409 0.0
C104 C 0.79383 0.18969 0.17367 0.0
N105 N 0.80701 0.17807 0.18217 0.0
C106 C 0.79729 0.18845 0.21341 0.0
C107 C 0.80881 0.17704 0.20161 0.0
C108 C 0.78395 0.20101 0.205 0.0
C109 C 0.7822 0.20153 0.18489 0.0
H110 H 0.79252 0.18985 0.15816 0.0
H111 H 0.81922 0.16741 0.20793 0.0
C112 C 0.83053 0.09133 0.14593 0.0
N113 N 0.82316 0.10431 0.15854 0.0
C114 C 0.82661 0.07175 0.14811 0.0
C115 C 0.80762 0.07922 0.17632 0.0
C116 C 0.81192 0.09872 0.17357 0.0
C117 C 0.81507 0.06546 0.16349 0.0
H118 H 0.83977 0.09613 0.13439 0.0
H119 H 0.8065 0.1094 0.18353 0.0
C120 C 0.8368 0.19616 0.15351 0.0
N121 N 0.8252 0.23351 0.16104 0.0
C122 C 0.82637 0.20644 0.13975 0.0
C123 C 0.84147 0.20493 0.17103 0.0
C124 C 0.82062 0.2253 0.14384 0.0
C125 C 0.83541 0.2238 0.17459 0.0
C126 C 0.85867 0.1336 0.1198 0.0
C127 C 0.87692 0.14093 0.11557 0.0
C128 C 0.84809 0.12431 0.10539 0.0
C129 C 0.88424 0.13895 0.09693 0.0
C130 C 0.85589 0.12269 0.08692 0.0
N131 N 0.87366 0.12998 0.08311 0.0
C132 C 0.89254 0.14175 0.16745 0.0
C133 C 0.88887 0.17575 0.16754 0.0
C134 C 0.91206 0.14357 0.1715 0.0
N135 N 0.88144 0.15772 0.16556 0.0
C136 C 0.90836 0.17827 0.17154 0.0
C137 C 0.92025 0.16203 0.1734 0.0
H138 H 0.88623 0.12759 0.16555 0.0
H139 H 0.87976 0.18819 0.16565 0.0
C140 C 0.81154 0.16078 0.09821 0.0
N141 N 0.82844 0.1646 0.10722 0.0
C142 C 0.80961 0.16436 0.07855 0.0
C143 C 0.8423 0.17637 0.07807 0.0
C144 C 0.84347 0.17286 0.09779 0.0
C145 C 0.82531 0.17177 0.06822 0.0
H146 H 0.79976 0.15445 0.10616 0.0
H147 H 0.85661 0.17603 0.10547 0.0
O148 O 0.83782 0.14333 0.17958 0.0
O149 O 0.80859 0.1485 0.14647 0.0
O150 O 0.84227 0.17757 0.14991 0.0
O151 O 0.85109 0.1357 0.13788 0.0
H152 H 0.8516 0.10841 0.18653 0.0
H153 H 0.85463 0.16822 0.20313 0.0
H154 H 0.87637 0.10096 0.21103 0.0
H155 H 0.87941 0.15971 0.2273 0.0
H156 H 0.77277 0.09876 0.12324 0.0
H157 H 0.78292 0.14693 0.17464 0.0
H158 H 0.80013 0.12164 0.12069 0.0
H159 H 0.75584 0.12365 0.17621 0.0
H160 H 0.799 0.18773 0.22889 0.0
H161 H 0.77186 0.21088 0.17796 0.0
H162 H 0.83305 0.06159 0.13817 0.0
H163 H 0.79866 0.07495 0.18835 0.0
H164 H 0.82259 0.19987 0.12614 0.0
H165 H 0.84942 0.19713 0.18189 0.0
H166 H 0.81246 0.2334 0.13337 0.0
H167 H 0.83878 0.2307 0.18815 0.0
H168 H 0.88528 0.14826 0.12647 0.0
H169 H 0.83385 0.11875 0.10833 0.0
H170 H 0.89831 0.14463 0.09344 0.0
H171 H 0.84779 0.11572 0.07559 0.0
H172 H 0.92068 0.13068 0.173 0.0
H173 H 0.91415 0.19275 0.17258 0.0
H174 H 0.79633 0.16059 0.07135 0.0
H175 H 0.85462 0.18225 0.07052 0.0
Li176 Li 0.83954 0.85708 0.15813 0.0
Li177 Li 0.86152 0.82952 0.15753 0.0
Li178 Li 0.83675 0.8321 0.13341 0.0
Li179 Li 0.82967 0.82502 0.16714 0.0
C180 C 0.87432 0.86153 0.13707 0.0
N181 N 0.90703 0.88422 0.13632 0.0
C182 C 0.88192 0.86892 0.1542 0.0
C183 C 0.88342 0.8656 0.11959 0.0
C184 C 0.89845 0.88039 0.15351 0.0
C185 C 0.89992 0.87712 0.11951 0.0
C186 C 0.84653 0.83738 0.19909 0.0
C187 C 0.84563 0.81425 0.22504 0.0
N188 N 0.84032 0.8285 0.2374 0.0
C189 C 0.84132 0.85183 0.21211 0.0
C190 C 0.84895 0.81848 0.20566 0.0
C191 C 0.83817 0.84704 0.2314 0.0
C192 C 0.82307 0.88902 0.17692 0.0
N193 N 0.83526 0.88381 0.16253 0.0
C194 C 0.83964 0.91672 0.15344 0.0
C195 C 0.84323 0.89719 0.15063 0.0
C196 C 0.82756 0.9226 0.16852 0.0
C197 C 0.81906 0.90848 0.18028 0.0
H198 H 0.81627 0.87802 0.18564 0.0
H199 H 0.85202 0.89276 0.13863 0.0
C200 C 0.89877 0.82172 0.14474 0.0
N201 N 0.88762 0.82223 0.1608 0.0
C202 C 0.91836 0.81807 0.14619 0.0
C203 C 0.91456 0.81463 0.18064 0.0
C204 C 0.89503 0.81865 0.17854 0.0
C205 C 0.92645 0.8147 0.16434 0.0
H206 H 0.89249 0.82457 0.1308 0.0
H207 H 0.88595 0.81938 0.19111 0.0
C208 C 0.8039 0.85452 0.13972 0.0
N209 N 0.77902 0.87754 0.11905 0.0
C210 C 0.78409 0.85296 0.14259 0.0
C211 C 0.81107 0.8678 0.12638 0.0
C212 C 0.77174 0.86472 0.13198 0.0
C213 C 0.79826 0.8793 0.11607 0.0
C214 C 0.85673 0.79483 0.14406 0.0
C215 C 0.86436 0.79358 0.12547 0.0
C216 C 0.86282 0.78188 0.1582 0.0
C217 C 0.87809 0.77948 0.12139 0.0
C218 C 0.8766 0.76801 0.15355 0.0
N219 N 0.88389 0.76711 0.1354 0.0
C220 C 0.83552 0.84041 0.09404 0.0
C221 C 0.81974 0.81135 0.10295 0.0
C222 C 0.83111 0.83727 0.07475 0.0
N223 N 0.8298 0.82752 0.10762 0.0
C224 C 0.81524 0.80748 0.08374 0.0
C225 C 0.82097 0.82057 0.06941 0.0
H226 H 0.84365 0.85304 0.0982 0.0
H227 H 0.8155 0.80134 0.11413 0.0
C228 C 0.80109 0.82207 0.19524 0.0
N229 N 0.81248 0.81173 0.18317 0.0
C230 C 0.78848 0.81261 0.20766 0.0
C231 C 0.79924 0.78212 0.19452 0.0
C232 C 0.81172 0.79217 0.18245 0.0
C233 C 0.78749 0.79236 0.20741 0.0
H234 H 0.80202 0.83765 0.19533 0.0
H235 H 0.8208 0.78442 0.17248 0.0
O236 O 0.85842 0.84985 0.13739 0.0
O237 O 0.84945 0.84177 0.18008 0.0
O238 O 0.81612 0.84313 0.15008 0.0
O239 O 0.84358 0.80881 0.14844 0.0
H240 H 0.87518 0.86587 0.16789 0.0
H241 H 0.87788 0.85981 0.10623 0.0
H242 H 0.90447 0.88621 0.16664 0.0
H243 H 0.90712 0.88038 0.10608 0.0
H244 H 0.84723 0.79964 0.23023 0.0
H245 H 0.83989 0.86662 0.20744 0.0
H246 H 0.85305 0.80714 0.19582 0.0
H247 H 0.83406 0.85808 0.2416 0.0
H248 H 0.84597 0.92709 0.14363 0.0
H249 H 0.80953 0.91242 0.19196 0.0
H250 H 0.92716 0.81813 0.13331 0.0
H251 H 0.92043 0.81225 0.19487 0.0
H252 H 0.77833 0.84276 0.15291 0.0
H253 H 0.82635 0.86926 0.12407 0.0
H254 H 0.75636 0.86366 0.13404 0.0
H255 H 0.80363 0.88965 0.1057 0.0
H256 H 0.86001 0.80358 0.11438 0.0
H257 H 0.85706 0.78256 0.17264 0.0
H258 H 0.8842 0.77845 0.1071 0.0
H259 H 0.8815 0.75797 0.16438 0.0
H260 H 0.83604 0.84753 0.06406 0.0
H261 H 0.80742 0.79445 0.0801 0.0
H262 H 0.7798 0.82102 0.2175 0.0
H263 H 0.79864 0.76653 0.19361 0.0
Li264 Li 0.13352 0.82894 0.15362 0.0
Li265 Li 0.16708 0.82372 0.16188 0.0
Li266 Li 0.15634 0.85507 0.15112 0.0
Li267 Li 0.15857 0.82777 0.12904 0.0
C268 C 0.13685 0.84048 0.19017 0.0
N269 N 0.11228 0.83816 0.22136 0.0
C270 C 0.1404 0.82726 0.20492 0.0
C271 C 0.12088 0.85261 0.19134 0.0
C272 C 0.1278 0.8263 0.22057 0.0
C273 C 0.1086 0.85118 0.2072 0.0
C274 C 0.14859 0.79174 0.13434 0.0
C275 C 0.16331 0.76745 0.11434 0.0
N276 N 0.14563 0.76201 0.10799 0.0
C277 C 0.13056 0.78584 0.12771 0.0
C278 C 0.1651 0.78241 0.12771 0.0
C279 C 0.12936 0.7708 0.11436 0.0
C280 C 0.09447 0.82835 0.14556 0.0
N281 N 0.10765 0.82211 0.15852 0.0
C282 C 0.08326 0.80621 0.17689 0.0
C283 C 0.10254 0.81087 0.17376 0.0
C284 C 0.0694 0.81263 0.16378 0.0
C285 C 0.07515 0.82368 0.14788 0.0
H286 H 0.09899 0.83687 0.13334 0.0
H287 H 0.11342 0.80554 0.18346 0.0
C288 C 0.19391 0.82195 0.19185 0.0
N289 N 0.18334 0.81122 0.17936 0.0
C290 C 0.20589 0.81293 0.20511 0.0
C291 C 0.19509 0.78203 0.19294 0.0
C292 C 0.18359 0.79166 0.1797 0.0
C293 C 0.20655 0.79268 0.2058 0.0
H294 H 0.19298 0.83751 0.19152 0.0
H295 H 0.17464 0.78355 0.16988 0.0
C296 C 0.13194 0.86323 0.12337 0.0
N297 N 0.12224 0.89823 0.10711 0.0
C298 C 0.14003 0.86883 0.10581 0.0
C299 C 0.11879 0.87534 0.13259 0.0
C300 C 0.13495 0.8866 0.09783 0.0
C301 C 0.11413 0.89301 0.12416 0.0
C302 C 0.19828 0.84061 0.14782 0.0
C303 C 0.20637 0.85626 0.15762 0.0
C304 C 0.2095 0.8244 0.14382 0.0
C305 C 0.22554 0.85533 0.16348 0.0
C306 C 0.2286 0.82401 0.14996 0.0
N307 N 0.23615 0.83935 0.15958 0.0
C308 C 0.15437 0.8909 0.1701 0.0
C309 C 0.16814 0.89183 0.13885 0.0
C310 C 0.15642 0.91082 0.17195 0.0
N311 N 0.15996 0.88193 0.15363 0.0
C312 C 0.17028 0.9118 0.14 0.0
C313 C 0.16426 0.9215 0.15667 0.0
H314 H 0.14821 0.8826 0.18173 0.0
H315 H 0.17283 0.88419 0.12611 0.0
C316 C 0.14723 0.81712 0.09229 0.0
N317 N 0.16297 0.82124 0.10307 0.0
C318 C 0.14896 0.81453 0.07249 0.0
C319 C 0.18317 0.82013 0.07532 0.0
C320 C 0.18077 0.82254 0.09514 0.0
C321 C 0.16704 0.8165 0.06371 0.0
H322 H 0.13321 0.81654 0.09901 0.0
H323 H 0.19296 0.82621 0.10405 0.0
O324 O 0.14899 0.8416 0.1747 0.0
O325 O 0.15009 0.80664 0.14717 0.0
O326 O 0.137 0.84608 0.13162 0.0
O327 O 0.17949 0.84116 0.14215 0.0
H328 H 0.15267 0.81775 0.20427 0.0
H329 H 0.1179 0.86289 0.18004 0.0
H330 H 0.13033 0.8161 0.23206 0.0
H331 H 0.09612 0.86039 0.20823 0.0
H332 H 0.17597 0.76019 0.10899 0.0
H333 H 0.11763 0.79288 0.13269 0.0
H334 H 0.17916 0.78679 0.13272 0.0
H335 H 0.11551 0.76614 0.10902 0.0
H336 H 0.07922 0.79754 0.18923 0.0
H337 H 0.06475 0.82889 0.13754 0.0
H338 H 0.21458 0.82174 0.2146 0.0
H339 H 0.19474 0.76641 0.19327 0.0
H340 H 0.1503 0.85969 0.09853 0.0
H341 H 0.11239 0.8712 0.14617 0.0
H342 H 0.14118 0.89117 0.0843 0.0
H343 H 0.10407 0.90259 0.13119 0.0
H344 H 0.19789 0.86892 0.16085 0.0
H345 H 0.20346 0.81217 0.13625 0.0
H346 H 0.23196 0.86729 0.17117 0.0
H347 H 0.23741 0.8115 0.14709 0.0
H348 H 0.15152 0.91784 0.18499 0.0
H349 H 0.1766 0.91956 0.12802 0.0
H350 H 0.1362 0.81154 0.06408 0.0
H351 H 0.19731 0.822 0.06906 0.0
Li352 Li 0.15663 0.86023 0.82845 0.0
Li353 Li 0.15843 0.83661 0.85451 0.0
Li354 Li 0.16611 0.82875 0.82165 0.0
Li355 Li 0.13285 0.835 0.8306 0.0
C356 C 0.19844 0.84199 0.83737 0.0
N357 N 0.23632 0.83045 0.8342 0.0
C358 C 0.20718 0.83182 0.85235 0.0
C359 C 0.20912 0.84658 0.82092 0.0
C360 C 0.22631 0.82605 0.85045 0.0
C361 C 0.2282 0.84052 0.81954 0.0
C362 C 0.12426 0.85509 0.86371 0.0
C363 C 0.10498 0.83702 0.8863 0.0
N364 N 0.09693 0.85375 0.89257 0.0
C365 C 0.11579 0.87209 0.87035 0.0
C366 C 0.11881 0.83739 0.87172 0.0
C367 C 0.102 0.87112 0.88496 0.0
C368 C 0.14426 0.89782 0.82036 0.0
N369 N 0.16004 0.88662 0.82282 0.0
C370 C 0.18083 0.91371 0.81855 0.0
C371 C 0.17809 0.89406 0.82186 0.0
C372 C 0.1648 0.92576 0.81633 0.0
C373 C 0.14632 0.91756 0.81703 0.0
H374 H 0.13009 0.89143 0.82132 0.0
H375 H 0.19035 0.88478 0.82395 0.0
C376 C 0.16785 0.81436 0.88693 0.0
N377 N 0.16399 0.83252 0.88073 0.0
C378 C 0.1712 0.81088 0.90641 0.0
C379 C 0.16676 0.84493 0.91263 0.0
C380 C 0.16359 0.84775 0.89302 0.0
C381 C 0.17049 0.82626 0.91956 0.0
H382 H 0.16832 0.80261 0.87672 0.0
H383 H 0.16045 0.86203 0.88761 0.0
C384 C 0.14605 0.85664 0.79245 0.0
N385 N 0.14471 0.88365 0.76319 0.0
C386 C 0.12838 0.8627 0.78511 0.0
C387 C 0.16303 0.86401 0.78456 0.0
C388 C 0.12799 0.87643 0.77041 0.0
C389 C 0.16207 0.87774 0.76989 0.0
C390 C 0.14504 0.7962 0.83225 0.0
C391 C 0.14018 0.79474 0.81276 0.0
C392 C 0.14503 0.77963 0.84371 0.0
C393 C 0.13541 0.77671 0.80509 0.0
C394 C 0.14015 0.76188 0.83551 0.0
N395 N 0.13549 0.7608 0.81653 0.0
C396 C 0.19361 0.80005 0.81546 0.0
C397 C 0.1806 0.81365 0.78697 0.0
C398 C 0.20546 0.78801 0.80468 0.0
N399 N 0.18183 0.81277 0.80647 0.0
C400 C 0.19188 0.80159 0.77563 0.0
C401 C 0.20458 0.78876 0.78455 0.0
H402 H 0.19377 0.79926 0.831 0.0
H403 H 0.1707 0.82354 0.78025 0.0
C404 C 0.09506 0.84513 0.82315 0.0
N405 N 0.10616 0.82967 0.82757 0.0
C406 C 0.07529 0.84297 0.82079 0.0
C407 C 0.07855 0.80912 0.8284 0.0
C408 C 0.09827 0.81195 0.8306 0.0
C409 C 0.0668 0.82475 0.82335 0.0
H410 H 0.10161 0.85922 0.82162 0.0
H411 H 0.10707 0.80002 0.83509 0.0
O412 O 0.17964 0.8476 0.83891 0.0
O413 O 0.1377 0.85589 0.84934 0.0
O414 O 0.14674 0.84344 0.80711 0.0
O415 O 0.15007 0.81363 0.84009 0.0
H416 H 0.19932 0.82831 0.86528 0.0
H417 H 0.20276 0.85459 0.80926 0.0
H418 H 0.23319 0.81807 0.86188 0.0
H419 H 0.23654 0.84382 0.80681 0.0
H420 H 0.10063 0.82343 0.89263 0.0
H421 H 0.11982 0.8859 0.86425 0.0
H422 H 0.12514 0.82406 0.86674 0.0
H423 H 0.09533 0.88417 0.89025 0.0
H424 H 0.19531 0.91945 0.81796 0.0
H425 H 0.13359 0.9264 0.81567 0.0
H426 H 0.17428 0.79632 0.91111 0.0
H427 H 0.1658 0.85715 0.92231 0.0
H428 H 0.11509 0.85677 0.79055 0.0
H429 H 0.17681 0.85931 0.78984 0.0
H430 H 0.1144 0.88131 0.76468 0.0
H431 H 0.17512 0.8837 0.76383 0.0
H432 H 0.13999 0.80734 0.80363 0.0
H433 H 0.14869 0.78046 0.85882 0.0
H434 H 0.13163 0.77539 0.79005 0.0
H435 H 0.14006 0.74896 0.84423 0.0
H436 H 0.21494 0.77802 0.81193 0.0
H437 H 0.19086 0.80238 0.76009 0.0
H438 H 0.06676 0.85543 0.81695 0.0
H439 H 0.0725 0.79496 0.83109 0.0
Li440 Li 0.15435 0.16237 0.85873 0.0
Li441 Li 0.15572 0.13613 0.8338 0.0
Li442 Li 0.16215 0.16863 0.82629 0.0
Li443 Li 0.13004 0.16069 0.83287 0.0
C444 C 0.19489 0.15579 0.83846 0.0
N445 N 0.2311 0.16472 0.82475 0.0
C446 C 0.203 0.14489 0.82361 0.0
C447 C 0.20523 0.17114 0.84644 0.0
C448 C 0.22132 0.14965 0.81686 0.0
C449 C 0.22352 0.17545 0.83928 0.0
C450 C 0.127 0.13001 0.86629 0.0
C451 C 0.09969 0.11173 0.87761 0.0
N452 N 0.10984 0.10647 0.89347 0.0
C453 C 0.13714 0.12445 0.88273 0.0
C454 C 0.1081 0.12364 0.86372 0.0
C455 C 0.12822 0.11254 0.89629 0.0
C456 C 0.14071 0.17292 0.89456 0.0
N457 N 0.15701 0.16803 0.885 0.0
C458 C 0.17526 0.16922 0.91401 0.0
C459 C 0.17414 0.16625 0.89417 0.0
C460 C 0.15853 0.17377 0.92435 0.0
C461 C 0.14112 0.17579 0.9144 0.0
H462 H 0.12731 0.17409 0.88679 0.0
H463 H 0.18678 0.16203 0.88617 0.0
C464 C 0.16453 0.10272 0.81172 0.0
N465 N 0.16152 0.10964 0.8298 0.0
C466 C 0.16688 0.08297 0.80867 0.0
C467 C 0.16441 0.07803 0.84303 0.0
C468 C 0.16202 0.09784 0.84538 0.0
C469 C 0.16639 0.07031 0.82444 0.0
H470 H 0.16468 0.11248 0.79959 0.0
H471 H 0.16036 0.10376 0.85963 0.0
C472 C 0.13745 0.19955 0.83361 0.0
N473 N 0.12344 0.23202 0.8154 0.0
C474 C 0.13348 0.19913 0.81388 0.0
C475 C 0.13429 0.21648 0.84406 0.0
C476 C 0.1264 0.2157 0.80494 0.0
C477 C 0.12721 0.23275 0.83459 0.0
C478 C 0.13502 0.13879 0.7998 0.0
C479 C 0.13582 0.1403 0.77976 0.0
C480 C 0.12294 0.12505 0.80827 0.0
C481 C 0.12451 0.12802 0.7685 0.0
C482 C 0.11187 0.11302 0.79652 0.0
N483 N 0.11288 0.11475 0.77704 0.0
C484 C 0.18292 0.17807 0.7931 0.0
C485 C 0.18359 0.20192 0.81764 0.0
C486 C 0.19464 0.18939 0.78138 0.0
N487 N 0.17774 0.1845 0.81082 0.0
C488 C 0.19526 0.21375 0.80639 0.0
C489 C 0.20092 0.20748 0.78803 0.0
H490 H 0.17801 0.1641 0.78816 0.0
H491 H 0.17932 0.20651 0.8319 0.0
C492 C 0.09328 0.16898 0.84503 0.0
N493 N 0.10364 0.16543 0.82886 0.0
C494 C 0.07353 0.17193 0.84388 0.0
C495 C 0.07561 0.16812 0.80933 0.0
C496 C 0.09537 0.16543 0.81115 0.0
C497 C 0.06437 0.17116 0.82588 0.0
H498 H 0.10038 0.16925 0.85887 0.0
H499 H 0.10401 0.16313 0.79844 0.0
O500 O 0.17676 0.15167 0.84487 0.0
O501 O 0.13533 0.14202 0.85301 0.0
O502 O 0.14437 0.18355 0.84279 0.0
O503 O 0.14601 0.15087 0.81088 0.0
H504 H 0.19513 0.13302 0.81723 0.0
H505 H 0.19907 0.17985 0.8578 0.0
H506 H 0.22773 0.14142 0.80529 0.0
H507 H 0.23163 0.18738 0.8452 0.0
H508 H 0.08508 0.10668 0.87579 0.0
H509 H 0.1518 0.12915 0.88493 0.0
H510 H 0.09998 0.12784 0.85114 0.0
H511 H 0.13592 0.1081 0.90905 0.0
H512 H 0.18888 0.16732 0.92129 0.0
H513 H 0.12797 0.17937 0.92193 0.0
H514 H 0.16842 0.07763 0.79409 0.0
H515 H 0.16452 0.06884 0.85563 0.0
H516 H 0.13583 0.18621 0.80551 0.0
H517 H 0.13729 0.21702 0.85934 0.0
H518 H 0.12327 0.21557 0.78969 0.0
H519 H 0.1247 0.24595 0.84251 0.0
H520 H 0.14506 0.1509 0.77297 0.0
H521 H 0.12217 0.12355 0.82369 0.0
H522 H 0.12499 0.12905 0.75297 0.0
H523 H 0.1025 0.10231 0.80289 0.0
H524 H 0.19857 0.18417 0.76722 0.0
H525 H 0.20002 0.2275 0.81208 0.0
H526 H 0.06552 0.17466 0.85697 0.0
H527 H 0.06916 0.16733 0.79517 0.0
Li528 Li 0.83051 0.13186 0.83195 0.0
Li529 Li 0.83018 0.15584 0.85817 0.0
Li530 Li 0.82129 0.16374 0.82518 0.0
Li531 Li 0.85503 0.15714 0.83282 0.0
C532 C 0.78969 0.15121 0.84124 0.0
N533 N 0.75256 0.16441 0.8367 0.0
C534 C 0.78133 0.16288 0.85534 0.0
C535 C 0.77911 0.14609 0.82491 0.0
C536 C 0.76254 0.16943 0.85277 0.0
C537 C 0.76038 0.15298 0.82285 0.0
C538 C 0.86098 0.13226 0.86749 0.0
C539 C 0.88327 0.14162 0.89236 0.0
N540 N 0.88204 0.1236 0.90001 0.0
C541 C 0.86 0.1138 0.87553 0.0
C542 C 0.87275 0.14627 0.87591 0.0
C543 C 0.87073 0.10972 0.892 0.0
C544 C 0.84387 0.09458 0.82696 0.0
N545 N 0.82755 0.10524 0.82721 0.0
C546 C 0.80828 0.07708 0.82268 0.0
C547 C 0.80995 0.09702 0.82502 0.0
C548 C 0.8249 0.0656 0.82278 0.0
C549 C 0.84289 0.07464 0.82476 0.0
H550 H 0.85765 0.10159 0.82888 0.0
H551 H 0.79722 0.10589 0.82539 0.0
C552 C 0.8236 0.17834 0.89136 0.0
N553 N 0.8256 0.16006 0.88461 0.0
C554 C 0.82117 0.18162 0.91104 0.0
C555 C 0.82252 0.14716 0.91628 0.0
C556 C 0.82464 0.14455 0.89651 0.0
C557 C 0.82091 0.16591 0.92384 0.0
H558 H 0.82396 0.19036 0.88147 0.0
H559 H 0.82584 0.13016 0.89065 0.0
C560 C 0.84231 0.13428 0.79672 0.0
N561 N 0.84712 0.10473 0.77043 0.0
C562 C 0.86073 0.12772 0.79216 0.0
C563 C 0.82634 0.12593 0.78774 0.0
C564 C 0.86286 0.11274 0.77887 0.0
C565 C 0.82907 0.11097 0.77455 0.0
C566 C 0.84718 0.19571 0.84318 0.0
C567 C 0.84503 0.20836 0.82766 0.0
C568 C 0.85841 0.20121 0.85894 0.0
C569 C 0.85432 0.22626 0.82811 0.0
C570 C 0.86749 0.21921 0.85881 0.0
N571 N 0.86528 0.23125 0.84353 0.0
C572 C 0.79634 0.19483 0.81991 0.0
C573 C 0.80318 0.17701 0.79155 0.0
C574 C 0.78468 0.20743 0.80962 0.0
N575 N 0.80524 0.18001 0.81075 0.0
C576 C 0.79162 0.18923 0.7807 0.0
C577 C 0.78228 0.20473 0.78973 0.0
H578 H 0.79852 0.19694 0.83518 0.0
H579 H 0.8106 0.16521 0.78466 0.0
C580 C 0.89366 0.14743 0.83162 0.0
N581 N 0.88141 0.16221 0.82794 0.0
C582 C 0.91333 0.14975 0.82875 0.0
C583 C 0.9075 0.18239 0.81802 0.0
C584 C 0.88786 0.17933 0.82085 0.0
C585 C 0.92045 0.16747 0.82206 0.0
H586 H 0.88813 0.13379 0.83675 0.0
H587 H 0.87787 0.1906 0.8173 0.0
O588 O 0.8082 0.145 0.84331 0.0
O589 O 0.85036 0.13657 0.85152 0.0
O590 O 0.8399 0.14863 0.81004 0.0
O591 O 0.83806 0.17819 0.8431 0.0
H592 H 0.78929 0.16697 0.86807 0.0
H593 H 0.78539 0.13717 0.8138 0.0
H594 H 0.75592 0.17856 0.86352 0.0
H595 H 0.75209 0.14928 0.8102 0.0
H596 H 0.89241 0.15234 0.89905 0.0
H597 H 0.85091 0.10281 0.8692 0.0
H598 H 0.87377 0.16056 0.86976 0.0
H599 H 0.87005 0.09552 0.89843 0.0
H600 H 0.79416 0.07071 0.82101 0.0
H601 H 0.85604 0.06635 0.82527 0.0
H602 H 0.81956 0.19629 0.91615 0.0
H603 H 0.82262 0.1346 0.92555 0.0
H604 H 0.87325 0.13406 0.79886 0.0
H605 H 0.81197 0.13072 0.79118 0.0
H606 H 0.87704 0.10747 0.77528 0.0
H607 H 0.81684 0.10427 0.76764 0.0
H608 H 0.83653 0.20433 0.81527 0.0
H609 H 0.86005 0.19173 0.87117 0.0
H610 H 0.85287 0.23614 0.81615 0.0
H611 H 0.87626 0.22362 0.87089 0.0
H612 H 0.77794 0.21937 0.81706 0.0
H613 H 0.78996 0.18654 0.76543 0.0
H614 H 0.92292 0.13793 0.83209 0.0
H615 H 0.91249 0.19616 0.81257 0.0
Li616 Li 0.83643 0.85465 0.83951 0.0
Li617 Li 0.83401 0.82685 0.86126 0.0
Li618 Li 0.85878 0.82808 0.83619 0.0
Li619 Li 0.82476 0.82351 0.82858 0.0
C620 C 0.86241 0.86147 0.86696 0.0
N621 N 0.87561 0.89506 0.88386 0.0
C622 C 0.85616 0.86664 0.88537 0.0
C623 C 0.87551 0.87327 0.8572 0.0
C624 C 0.86298 0.8837 0.89366 0.0
C625 C 0.88196 0.89023 0.86597 0.0
C626 C 0.79433 0.84091 0.84335 0.0
C627 C 0.76344 0.82517 0.84161 0.0
N628 N 0.75634 0.84062 0.83192 0.0
C629 C 0.78671 0.85669 0.83349 0.0
C630 C 0.7826 0.82507 0.84758 0.0
C631 C 0.76746 0.85626 0.82781 0.0
C632 C 0.83616 0.88972 0.81945 0.0
N633 N 0.8334 0.8816 0.83704 0.0
C634 C 0.82598 0.91224 0.8508 0.0
C635 C 0.82807 0.89231 0.85253 0.0
C636 C 0.82899 0.92104 0.83285 0.0
C637 C 0.83399 0.90955 0.817 0.0
H638 H 0.83996 0.88079 0.80729 0.0
H639 H 0.82541 0.88535 0.8662 0.0
C640 C 0.84482 0.81326 0.89748 0.0
N641 N 0.82965 0.81981 0.88712 0.0
C642 C 0.84271 0.8092 0.917 0.0
C643 C 0.80942 0.81889 0.91486 0.0
C644 C 0.81212 0.82252 0.89528 0.0
C645 C 0.82492 0.81241 0.92605 0.0
H646 H 0.85867 0.81159 0.89063 0.0
H647 H 0.80043 0.82809 0.88674 0.0
C648 C 0.85429 0.84068 0.79958 0.0
N649 N 0.87693 0.83974 0.7669 0.0
C650 C 0.85024 0.82753 0.78485 0.0
C651 C 0.86977 0.85343 0.79764 0.0
C652 C 0.86187 0.82729 0.76844 0.0
C653 C 0.88108 0.85269 0.78104 0.0
C654 C 0.84335 0.79056 0.85482 0.0
C655 C 0.86145 0.78352 0.85987 0.0
C656 C 0.82684 0.78186 0.86238 0.0
C657 C 0.86274 0.76799 0.87261 0.0
C658 C 0.82874 0.76639 0.87511 0.0
N659 N 0.8465 0.75984 0.87993 0.0
C660 C 0.8974 0.82659 0.84505 0.0
C661 C 0.89059 0.81274 0.81457 0.0
C662 C 0.91693 0.82317 0.84262 0.0
N663 N 0.88474 0.8217 0.83099 0.0
C664 C 0.91012 0.80936 0.81136 0.0
C665 C 0.92349 0.81471 0.8255 0.0
H666 H 0.89233 0.83325 0.85816 0.0
H667 H 0.88018 0.80837 0.80391 0.0
C668 C 0.79754 0.82278 0.7989 0.0
N669 N 0.80742 0.81168 0.81157 0.0
C670 C 0.78413 0.81436 0.78658 0.0
C671 C 0.79198 0.78321 0.80015 0.0
C672 C 0.80506 0.79227 0.81233 0.0
C673 C 0.78118 0.79431 0.78716 0.0
H674 H 0.79999 0.83819 0.7985 0.0
H675 H 0.81339 0.78381 0.82234 0.0
O676 O 0.85578 0.84492 0.85852 0.0
O677 O 0.81321 0.84095 0.84879 0.0
O678 O 0.84303 0.8412 0.81572 0.0
O679 O 0.8418 0.80589 0.84254 0.0
H680 H 0.84603 0.85765 0.89312 0.0
H681 H 0.88054 0.8694 0.84298 0.0
H682 H 0.8582 0.88794 0.90787 0.0
H683 H 0.89201 0.89956 0.85855 0.0
H684 H 0.75423 0.81294 0.84465 0.0
H685 H 0.79559 0.86908 0.8301 0.0
H686 H 0.78828 0.81274 0.8552 0.0
H687 H 0.76139 0.86832 0.82007 0.0
H688 H 0.82184 0.92065 0.86328 0.0
H689 H 0.83646 0.91586 0.80295 0.0
H690 H 0.85499 0.804 0.925 0.0
H691 H 0.79556 0.8219 0.92128 0.0
H692 H 0.83834 0.81755 0.78611 0.0
H693 H 0.87306 0.86372 0.80889 0.0
H694 H 0.85895 0.81715 0.75695 0.0
H695 H 0.89316 0.8624 0.77938 0.0
H696 H 0.87437 0.79003 0.8541 0.0
H697 H 0.81273 0.78715 0.85864 0.0
H698 H 0.87665 0.76245 0.87672 0.0
H699 H 0.81609 0.75961 0.88119 0.0
H700 H 0.92686 0.82756 0.8538 0.0
H701 H 0.91472 0.80263 0.79807 0.0
H702 H 0.77604 0.82346 0.77688 0.0
H703 H 0.79052 0.76766 0.80075 0.0
Li704 Li 0.66345 0.66819 0.66661 0.0
Li705 Li 0.65805 0.65779 0.63405 0.0
Li706 Li 0.63189 0.6573 0.65911 0.0
Li707 Li 0.65789 0.63358 0.66023 0.0
C708 C 0.64981 0.69867 0.64942 0.0
N709 N 0.65963 0.73705 0.65399 0.0
C710 C 0.66322 0.70724 0.63709 0.0
C711 C 0.64124 0.70966 0.66395 0.0
C712 C 0.66802 0.72666 0.63966 0.0
C713 C 0.64645 0.72902 0.66607 0.0
C714 C 0.69445 0.64126 0.64165 0.0
C715 C 0.70628 0.61509 0.62207 0.0
N716 N 0.72412 0.62313 0.62236 0.0
C717 C 0.71295 0.64916 0.64192 0.0
C718 C 0.69113 0.62401 0.63177 0.0
C719 C 0.72774 0.63983 0.63202 0.0
C720 C 0.67197 0.69137 0.69895 0.0
N721 N 0.67773 0.68621 0.68098 0.0
C722 C 0.70416 0.70813 0.68228 0.0
C723 C 0.69341 0.69427 0.67251 0.0
C724 C 0.69849 0.71379 0.70081 0.0
C725 C 0.68215 0.70535 0.70916 0.0
H726 H 0.65949 0.68469 0.70533 0.0
H727 H 0.69738 0.69009 0.65806 0.0
C728 C 0.6467 0.66378 0.59654 0.0
N729 N 0.66265 0.66268 0.60771 0.0
C730 C 0.64839 0.66704 0.57683 0.0
C731 C 0.68291 0.66853 0.58057 0.0
C732 C 0.68054 0.66527 0.60026 0.0
C733 C 0.66669 0.66933 0.5686 0.0
H734 H 0.63266 0.66185 0.60296 0.0
H735 H 0.69295 0.66489 0.60953 0.0
C736 C 0.63505 0.6475 0.69637 0.0
N737 N 0.60864 0.64296 0.72579 0.0
C738 C 0.63195 0.62932 0.70453 0.0
C739 C 0.62485 0.66341 0.70333 0.0
C740 C 0.6185 0.62732 0.71936 0.0
C741 C 0.61152 0.6608 0.71815 0.0
C742 C 0.63178 0.62321 0.62799 0.0
C743 C 0.61394 0.61467 0.63178 0.0
C744 C 0.64218 0.61739 0.61175 0.0
C745 C 0.60706 0.60017 0.61961 0.0
C746 C 0.63481 0.60286 0.59991 0.0
N747 N 0.61756 0.59459 0.60406 0.0
C748 C 0.59669 0.67712 0.65709 0.0
C749 C 0.59488 0.6461 0.67137 0.0
C750 C 0.57696 0.67969 0.65953 0.0
N751 N 0.60518 0.66052 0.663 0.0
C752 C 0.57518 0.64808 0.67417 0.0
C753 C 0.56597 0.66501 0.66813 0.0
H754 H 0.60523 0.68829 0.65035 0.0
H755 H 0.60197 0.63296 0.67574 0.0
C756 C 0.68122 0.60224 0.67274 0.0
N757 N 0.66337 0.6077 0.66703 0.0
C758 C 0.68505 0.58285 0.67666 0.0
C759 C 0.65186 0.57537 0.66953 0.0
C760 C 0.6487 0.59482 0.6658 0.0
C761 C 0.67028 0.56911 0.67485 0.0
H762 H 0.69255 0.61289 0.67396 0.0
H763 H 0.63454 0.59965 0.66183 0.0
O764 O 0.64532 0.67955 0.64746 0.0
O765 O 0.6798 0.65034 0.65121 0.0
O766 O 0.64809 0.64969 0.68176 0.0
O767 O 0.63859 0.63766 0.63968 0.0
H768 H 0.67003 0.69893 0.62581 0.0
H769 H 0.63082 0.70325 0.6736 0.0
H770 H 0.67847 0.73345 0.63031 0.0
H771 H 0.64004 0.73766 0.67734 0.0
H772 H 0.70387 0.60172 0.61438 0.0
H773 H 0.71589 0.66238 0.64966 0.0
H774 H 0.67711 0.61738 0.63188 0.0
H775 H 0.7421 0.64584 0.63203 0.0
H776 H 0.71665 0.71447 0.67541 0.0
H777 H 0.67754 0.70925 0.72354 0.0
H778 H 0.63553 0.66733 0.56807 0.0
H779 H 0.69725 0.67049 0.57479 0.0
H780 H 0.63985 0.61689 0.69951 0.0
H781 H 0.62693 0.67755 0.6971 0.0
H782 H 0.61592 0.61332 0.72575 0.0
H783 H 0.6034 0.67296 0.72354 0.0
H784 H 0.60553 0.61905 0.64407 0.0
H785 H 0.65571 0.62411 0.6081 0.0
H786 H 0.59335 0.59336 0.62252 0.0
H787 H 0.64276 0.59822 0.58735 0.0
H788 H 0.57037 0.69299 0.65473 0.0
H789 H 0.56716 0.63629 0.68056 0.0
H790 H 0.6994 0.57867 0.68095 0.0
H791 H 0.64008 0.5653 0.66774 0.0
Li792 Li 0.33013 0.62895 0.65956 0.0
Li793 Li 0.32418 0.66167 0.66598 0.0
Li794 Li 0.33143 0.65337 0.63381 0.0
Li795 Li 0.35643 0.65316 0.65983 0.0
C796 C 0.29684 0.6336 0.63795 0.0
N797 N 0.27304 0.6107 0.61571 0.0
C798 C 0.2769 0.6349 0.63991 0.0
C799 C 0.30466 0.62065 0.62467 0.0
C800 C 0.26511 0.6232 0.62854 0.0
C801 C 0.2924 0.60921 0.61356 0.0
C802 C 0.33141 0.63796 0.69792 0.0
C803 C 0.33271 0.62832 0.73125 0.0
N804 N 0.31341 0.62522 0.73106 0.0
C805 C 0.31158 0.63466 0.69805 0.0
C806 C 0.34208 0.63475 0.71463 0.0
C807 C 0.30275 0.62823 0.71494 0.0
C808 C 0.34113 0.59176 0.66848 0.0
N809 N 0.32534 0.60282 0.66558 0.0
C810 C 0.30466 0.57571 0.67039 0.0
C811 C 0.30729 0.59537 0.66693 0.0
C812 C 0.32076 0.56381 0.67278 0.0
C813 C 0.33917 0.57209 0.67212 0.0
H814 H 0.35528 0.5982 0.66755 0.0
H815 H 0.29495 0.60459 0.66514 0.0
C816 C 0.29232 0.68492 0.67393 0.0
N817 N 0.30925 0.67843 0.68109 0.0
C818 C 0.28101 0.69739 0.68482 0.0
C819 C 0.30467 0.69585 0.7103 0.0
C820 C 0.31569 0.68373 0.69879 0.0
C821 C 0.28715 0.70278 0.70328 0.0
H822 H 0.2877 0.68046 0.65975 0.0
H823 H 0.32939 0.67854 0.70392 0.0
C824 C 0.36287 0.62383 0.62845 0.0
N825 N 0.38841 0.60496 0.60449 0.0
C826 C 0.37973 0.63304 0.62241 0.0
C827 C 0.3591 0.60495 0.62241 0.0
C828 C 0.39243 0.62329 0.61026 0.0
C829 C 0.37216 0.59568 0.61027 0.0
C830 C 0.33726 0.69368 0.65153 0.0
C831 C 0.32314 0.7022 0.6401 0.0
C832 C 0.34549 0.70412 0.66666 0.0
C833 C 0.3173 0.72104 0.64415 0.0
C834 C 0.33924 0.72292 0.67024 0.0
N835 N 0.32539 0.73092 0.65902 0.0
C836 C 0.30991 0.66064 0.59964 0.0
C837 C 0.3437 0.65902 0.59582 0.0
C838 C 0.30747 0.66275 0.57981 0.0
N839 N 0.32779 0.65821 0.60713 0.0
C840 C 0.34195 0.66117 0.57597 0.0
C841 C 0.32363 0.66265 0.56768 0.0
H842 H 0.2975 0.66064 0.60899 0.0
H843 H 0.35775 0.65792 0.60221 0.0
C844 C 0.39241 0.64207 0.67335 0.0
N845 N 0.38259 0.65675 0.66503 0.0
C846 C 0.41218 0.64366 0.67616 0.0
C847 C 0.41114 0.67562 0.66217 0.0
C848 C 0.3914 0.67338 0.65958 0.0
C849 C 0.4218 0.66053 0.67034 0.0
H850 H 0.3849 0.629 0.67742 0.0
H851 H 0.38318 0.68468 0.65276 0.0
O852 O 0.30845 0.64489 0.64919 0.0
O853 O 0.34049 0.64423 0.68158 0.0
O854 O 0.35042 0.63301 0.64067 0.0
O855 O 0.34278 0.67508 0.64812 0.0
H856 H 0.27062 0.64482 0.65017 0.0
H857 H 0.32 0.61954 0.62284 0.0
H858 H 0.24965 0.62405 0.62992 0.0
H859 H 0.29828 0.59916 0.6032 0.0
H860 H 0.34079 0.62579 0.74429 0.0
H861 H 0.30305 0.63707 0.68529 0.0
H862 H 0.35744 0.63721 0.71475 0.0
H863 H 0.28742 0.62564 0.71525 0.0
H864 H 0.29023 0.56985 0.67104 0.0
H865 H 0.35194 0.56334 0.67371 0.0
H866 H 0.26749 0.70251 0.67907 0.0
H867 H 0.30983 0.69993 0.72444 0.0
H868 H 0.3829 0.64765 0.62687 0.0
H869 H 0.34625 0.59747 0.62707 0.0
H870 H 0.40548 0.63029 0.60542 0.0
H871 H 0.36939 0.58108 0.60547 0.0
H872 H 0.3166 0.69426 0.62839 0.0
H873 H 0.35635 0.69766 0.67571 0.0
H874 H 0.30629 0.72779 0.63551 0.0
H875 H 0.34535 0.73113 0.682 0.0
H876 H 0.29309 0.66392 0.57402 0.0
H877 H 0.35482 0.6616 0.56719 0.0
H878 H 0.41988 0.63178 0.68266 0.0
H879 H 0.41808 0.68873 0.65723 0.0
Li880 Li 0.33565 0.35422 0.6526 0.0
Li881 Li 0.35937 0.3299 0.65371 0.0
Li882 Li 0.33469 0.33013 0.62795 0.0
Li883 Li 0.326 0.32301 0.6621 0.0
C884 C 0.37003 0.36235 0.63331 0.0
N885 N 0.39973 0.38888 0.6343 0.0
C886 C 0.37609 0.37014 0.65087 0.0
C887 C 0.37906 0.36807 0.61627 0.0
C888 C 0.39113 0.38352 0.65106 0.0
C889 C 0.39405 0.3815 0.61706 0.0
C890 C 0.35029 0.33209 0.69264 0.0
C891 C 0.35888 0.30398 0.71114 0.0
N892 N 0.36261 0.31546 0.72658 0.0
C893 C 0.35418 0.34361 0.7087 0.0
C894 C 0.35264 0.31211 0.69386 0.0
C895 C 0.36041 0.33493 0.72572 0.0
C896 C 0.32744 0.38705 0.67502 0.0
N897 N 0.33127 0.38074 0.6569 0.0
C898 C 0.32974 0.41277 0.64456 0.0
C899 C 0.33237 0.39307 0.64175 0.0
C900 C 0.32609 0.41984 0.66318 0.0
C901 C 0.32478 0.40669 0.67852 0.0
H902 H 0.32664 0.37683 0.68675 0.0
H903 H 0.33536 0.38755 0.6275 0.0
C904 C 0.3942 0.31348 0.64344 0.0
N905 N 0.38551 0.32379 0.6576 0.0
C906 C 0.41386 0.3098 0.6443 0.0
C907 C 0.41517 0.32722 0.67446 0.0
C908 C 0.39549 0.33062 0.67298 0.0
C909 C 0.42461 0.31691 0.65986 0.0
H910 H 0.38588 0.30849 0.63126 0.0
H911 H 0.38838 0.33927 0.68376 0.0
C912 C 0.29998 0.35419 0.64149 0.0
N913 N 0.27496 0.38486 0.63829 0.0
C914 C 0.28881 0.35975 0.65726 0.0
C915 C 0.29836 0.36412 0.62406 0.0
C916 C 0.27626 0.37534 0.65536 0.0
C917 C 0.28563 0.37961 0.62274 0.0
C918 C 0.34374 0.28924 0.64094 0.0
C919 C 0.33058 0.28098 0.62815 0.0
C920 C 0.35752 0.27759 0.64977 0.0
C921 C 0.33125 0.26115 0.62462 0.0
C922 C 0.35773 0.25782 0.64586 0.0
N923 N 0.3447 0.25007 0.63348 0.0
C924 C 0.34498 0.32494 0.58963 0.0
C925 C 0.31168 0.32091 0.59592 0.0
C926 C 0.34196 0.32216 0.57 0.0
N927 N 0.32989 0.32448 0.60202 0.0
C928 C 0.30801 0.31794 0.5764 0.0
C929 C 0.32325 0.31885 0.56317 0.0
H930 H 0.35929 0.32778 0.59501 0.0
H931 H 0.3 0.32071 0.60621 0.0
C932 C 0.30407 0.3166 0.69512 0.0
N933 N 0.30926 0.30872 0.67797 0.0
C934 C 0.29192 0.30654 0.70753 0.0
C935 C 0.2902 0.28076 0.68408 0.0
C936 C 0.30245 0.29129 0.67217 0.0
C937 C 0.2849 0.28835 0.70205 0.0
H938 H 0.30941 0.3307 0.69914 0.0
H939 H 0.30645 0.28556 0.65832 0.0
O940 O 0.35536 0.34917 0.63268 0.0
O941 O 0.34425 0.34051 0.6759 0.0
O942 O 0.31265 0.33927 0.64318 0.0
O943 O 0.34351 0.3087 0.64435 0.0
H944 H 0.36927 0.36595 0.66422 0.0
H945 H 0.37452 0.3622 0.60256 0.0
H946 H 0.39596 0.38965 0.66454 0.0
H947 H 0.40117 0.38606 0.60397 0.0
H948 H 0.36071 0.28853 0.71228 0.0
H949 H 0.35246 0.35911 0.70798 0.0
H950 H 0.34953 0.30297 0.68169 0.0
H951 H 0.3635 0.34368 0.73825 0.0
H952 H 0.33055 0.42237 0.63229 0.0
H953 H 0.32216 0.41156 0.6931 0.0
H954 H 0.42062 0.30174 0.63279 0.0
H955 H 0.42303 0.33328 0.68649 0.0
H956 H 0.28997 0.35223 0.67085 0.0
H957 H 0.30704 0.36009 0.61177 0.0
H958 H 0.2676 0.37989 0.66747 0.0
H959 H 0.28432 0.38751 0.60939 0.0
H960 H 0.31978 0.28973 0.62123 0.0
H961 H 0.36799 0.28373 0.65952 0.0
H962 H 0.32107 0.25455 0.61486 0.0
H963 H 0.36829 0.24865 0.65264 0.0
H964 H 0.3541 0.32274 0.56023 0.0
H965 H 0.29338 0.31557 0.57165 0.0
H966 H 0.28789 0.31299 0.72115 0.0
H967 H 0.28514 0.26673 0.6794 0.0
Li968 Li 0.63382 0.33625 0.65318 0.0
Li969 Li 0.66659 0.32891 0.66386 0.0
Li970 Li 0.65773 0.36042 0.65311 0.0
Li971 Li 0.65982 0.33423 0.62924 0.0
C972 C 0.64958 0.36052 0.68928 0.0
N973 N 0.65447 0.39036 0.71524 0.0
C974 C 0.66604 0.36135 0.70076 0.0
C975 C 0.63555 0.37479 0.6911 0.0
C976 C 0.66825 0.37656 0.71379 0.0
C977 C 0.63831 0.38979 0.70427 0.0
C978 C 0.64622 0.29474 0.6484 0.0
C979 C 0.65143 0.26152 0.63944 0.0
N980 N 0.63845 0.25587 0.65297 0.0
C981 C 0.63282 0.28859 0.66212 0.0
C982 C 0.65551 0.2811 0.63687 0.0
C983 C 0.62914 0.26888 0.66426 0.0
C984 C 0.59847 0.3195 0.64298 0.0
N985 N 0.60763 0.32983 0.65686 0.0
C986 C 0.57874 0.33247 0.67514 0.0
C987 C 0.59835 0.336 0.67292 0.0
C988 C 0.56874 0.32236 0.66076 0.0
C989 C 0.57888 0.31557 0.64464 0.0
H990 H 0.60633 0.31471 0.63042 0.0
H991 H 0.6061 0.34389 0.68385 0.0
C992 C 0.70012 0.31858 0.68477 0.0
N993 N 0.68123 0.31451 0.68179 0.0
C994 C 0.71082 0.3076 0.69767 0.0
C995 C 0.68221 0.28912 0.70495 0.0
C996 C 0.67207 0.30051 0.69198 0.0
C997 C 0.70189 0.29247 0.70772 0.0
H998 H 0.70692 0.33036 0.6772 0.0
H999 H 0.65686 0.29828 0.69018 0.0
C1000 C 0.62204 0.35745 0.62411 0.0
N1001 N 0.58562 0.36225 0.60902 0.0
C1002 C 0.61766 0.35039 0.60578 0.0
C1003 C 0.60795 0.36722 0.63464 0.0
C1004 C 0.59916 0.35291 0.59843 0.0
C1005 C 0.58961 0.3694 0.62682 0.0
C1006 C 0.69819 0.33781 0.64001 0.0
C1007 C 0.71418 0.34974 0.63729 0.0
C1008 C 0.69985 0.31795 0.63698 0.0
C1009 C 0.73161 0.34157 0.63159 0.0
C1010 C 0.71752 0.31033 0.63129 0.0
N1011 N 0.7329 0.3222 0.62873 0.0
C1012 C 0.68016 0.39252 0.66434 0.0
C1013 C 0.64944 0.40005 0.65177 0.0
C1014 C 0.6841 0.41206 0.66738 0.0
N1015 N 0.66302 0.38698 0.65673 0.0
C1016 C 0.6527 0.41966 0.65466 0.0
C1017 C 0.67026 0.42592 0.66247 0.0
H1018 H 0.6907 0.38173 0.66811 0.0
H1019 H 0.636 0.39526 0.6457 0.0
C1020 C 0.65492 0.31344 0.59498 0.0
N1021 N 0.66598 0.32701 0.60376 0.0
C1022 C 0.65784 0.30904 0.5756 0.0
C1023 C 0.68414 0.33195 0.57501 0.0
C1024 C 0.68046 0.33619 0.59429 0.0
C1025 C 0.67249 0.31852 0.5654 0.0
H1026 H 0.64334 0.30659 0.60285 0.0
H1027 H 0.68877 0.3472 0.60153 0.0
O1028 O 0.64744 0.34603 0.67605 0.0
O1029 O 0.64976 0.31402 0.64579 0.0
O1030 O 0.64002 0.35483 0.63167 0.0
O1031 O 0.681 0.34568 0.64542 0.0
H1032 H 0.67709 0.3505 0.6995 0.0
H1033 H 0.62281 0.37451 0.68221 0.0
H1034 H 0.68096 0.37743 0.72269 0.0
H1035 H 0.62764 0.40102 0.70571 0.0
H1036 H 0.65855 0.25082 0.63064 0.0
H1037 H 0.62551 0.29889 0.67123 0.0
H1038 H 0.66571 0.28554 0.62597 0.0
H1039 H 0.6189 0.26394 0.6749 0.0
H1040 H 0.57145 0.3377 0.6879 0.0
H1041 H 0.57163 0.30787 0.63317 0.0
H1042 H 0.72597 0.31069 0.6995 0.0
H1043 H 0.67471 0.27791 0.71284 0.0
H1044 H 0.62841 0.34309 0.59727 0.0
H1045 H 0.61098 0.37264 0.64892 0.0
H1046 H 0.59557 0.34744 0.58429 0.0
H1047 H 0.57851 0.37669 0.63493 0.0
H1048 H 0.71311 0.36516 0.63954 0.0
H1049 H 0.68768 0.30852 0.63914 0.0
H1050 H 0.74411 0.35063 0.62943 0.0
H1051 H 0.719 0.29497 0.62894 0.0
H1052 H 0.69789 0.41626 0.67327 0.0
H1053 H 0.64146 0.42978 0.65099 0.0
H1054 H 0.64853 0.29869 0.56853 0.0
H1055 H 0.69535 0.33975 0.56745 0.0
Li1056 Li 0.65854 0.36317 0.33204 0.0
Li1057 Li 0.66187 0.33717 0.35774 0.0
Li1058 Li 0.66606 0.33038 0.32405 0.0
Li1059 Li 0.63492 0.33706 0.33553 0.0
C1060 C 0.69985 0.34333 0.33491 0.0
N1061 N 0.73613 0.33192 0.3235 0.0
C1062 C 0.71087 0.33149 0.34682 0.0
C1063 C 0.70739 0.34959 0.31732 0.0
C1064 C 0.72916 0.32583 0.34077 0.0
C1065 C 0.72572 0.34359 0.31176 0.0
C1066 C 0.62489 0.35882 0.36471 0.0
C1067 C 0.60167 0.34546 0.38683 0.0
N1068 N 0.58998 0.36081 0.38357 0.0
C1069 C 0.6127 0.3745 0.36164 0.0
C1070 C 0.61938 0.3442 0.37744 0.0
C1071 C 0.5951 0.37523 0.3713 0.0
C1072 C 0.64614 0.40017 0.32247 0.0
N1073 N 0.66194 0.3895 0.3266 0.0
C1074 C 0.68227 0.41713 0.32366 0.0
C1075 C 0.67981 0.39745 0.32711 0.0
C1076 C 0.66611 0.42859 0.32003 0.0
C1077 C 0.64788 0.41996 0.31933 0.0
H1078 H 0.63219 0.3933 0.32184 0.0
H1079 H 0.69209 0.38855 0.33043 0.0
C1080 C 0.67671 0.31522 0.38869 0.0
N1081 N 0.66934 0.33252 0.38332 0.0
C1082 C 0.68101 0.31171 0.40801 0.0
C1083 C 0.6699 0.34384 0.4157 0.0
C1084 C 0.66612 0.34682 0.39626 0.0
C1085 C 0.67738 0.32606 0.42188 0.0
H1086 H 0.67906 0.30412 0.37799 0.0
H1087 H 0.66011 0.36038 0.39152 0.0
C1088 C 0.64601 0.35164 0.29305 0.0
N1089 N 0.64443 0.36065 0.25434 0.0
C1090 C 0.63164 0.3437 0.28143 0.0
C1091 C 0.65945 0.36434 0.28502 0.0
C1092 C 0.63113 0.34838 0.26188 0.0
C1093 C 0.65845 0.36866 0.26541 0.0
C1094 C 0.6449 0.29812 0.33572 0.0
C1095 C 0.63786 0.29749 0.3169 0.0
C1096 C 0.64545 0.28123 0.34667 0.0
C1097 C 0.63143 0.27995 0.30934 0.0
C1098 C 0.63888 0.26396 0.33861 0.0
N1099 N 0.63206 0.26368 0.32027 0.0
C1100 C 0.69015 0.29959 0.31658 0.0
C1101 C 0.68119 0.31614 0.28812 0.0
C1102 C 0.70142 0.28682 0.30602 0.0
N1103 N 0.68048 0.314 0.30756 0.0
C1104 C 0.69211 0.30356 0.27696 0.0
C1105 C 0.70244 0.28876 0.28596 0.0
H1106 H 0.68914 0.29811 0.33205 0.0
H1107 H 0.67341 0.32757 0.28118 0.0
C1108 C 0.59805 0.34592 0.3235 0.0
N1109 N 0.60825 0.33243 0.33326 0.0
C1110 C 0.57814 0.34441 0.32223 0.0
C1111 C 0.57966 0.31486 0.3407 0.0
C1112 C 0.59955 0.31707 0.34181 0.0
C1113 C 0.56874 0.32877 0.33098 0.0
H1114 H 0.60542 0.35808 0.31706 0.0
H1115 H 0.60798 0.3068 0.34986 0.0
O1116 O 0.68173 0.34861 0.34039 0.0
O1117 O 0.64187 0.35743 0.35486 0.0
O1118 O 0.64654 0.34736 0.31227 0.0
O1119 O 0.65142 0.31507 0.34345 0.0
H1120 H 0.7053 0.32657 0.3605 0.0
H1121 H 0.69909 0.35878 0.30794 0.0
H1122 H 0.73779 0.31655 0.34978 0.0
H1123 H 0.73165 0.34818 0.29811 0.0
H1124 H 0.59716 0.33419 0.39661 0.0
H1125 H 0.61672 0.38593 0.35184 0.0
H1126 H 0.62852 0.33182 0.37977 0.0
H1127 H 0.58547 0.38723 0.36899 0.0
H1128 H 0.6965 0.42345 0.32441 0.0
H1129 H 0.63517 0.42845 0.31645 0.0
H1130 H 0.68697 0.29787 0.41203 0.0
H1131 H 0.66641 0.3552 0.42582 0.0
H1132 H 0.62098 0.33402 0.28744 0.0
H1133 H 0.67061 0.3707 0.29376 0.0
H1134 H 0.62012 0.34228 0.2527 0.0
H1135 H 0.66881 0.37839 0.259 0.0
H1136 H 0.63742 0.31037 0.30819 0.0
H1137 H 0.65091 0.28148 0.36126 0.0
H1138 H 0.62596 0.27926 0.29479 0.0
H1139 H 0.63921 0.25078 0.34692 0.0
H1140 H 0.70908 0.27544 0.3134 0.0
H1141 H 0.69269 0.30552 0.2615 0.0
H1142 H 0.57016 0.35537 0.31455 0.0
H1143 H 0.57282 0.30276 0.34785 0.0
Li1144 Li 0.65475 0.66044 0.35825 0.0
Li1145 Li 0.65667 0.63687 0.33217 0.0
Li1146 Li 0.66194 0.67094 0.32655 0.0
Li1147 Li 0.63 0.65877 0.33354 0.0
C1148 C 0.69553 0.65754 0.33728 0.0
N1149 N 0.73187 0.66712 0.32434 0.0
C1150 C 0.70526 0.64527 0.32464 0.0
C1151 C 0.70434 0.6746 0.34347 0.0
C1152 C 0.72363 0.65038 0.31825 0.0
C1153 C 0.72269 0.67922 0.33671 0.0
C1154 C 0.63422 0.62052 0.3584 0.0
C1155 C 0.62241 0.58828 0.3526 0.0
N1156 N 0.63033 0.58243 0.36949 0.0
C1157 C 0.64219 0.6142 0.37574 0.0
C1158 C 0.62416 0.60749 0.34677 0.0
C1159 C 0.64007 0.59488 0.38109 0.0
C1160 C 0.64266 0.6637 0.39624 0.0
N1161 N 0.65854 0.66417 0.38487 0.0
C1162 C 0.67881 0.66888 0.41216 0.0
C1163 C 0.6764 0.66671 0.39233 0.0
C1164 C 0.66266 0.66827 0.4243 0.0
C1165 C 0.64439 0.66582 0.41609 0.0
H1166 H 0.62867 0.66151 0.38984 0.0
H1167 H 0.68877 0.66678 0.38292 0.0
C1168 C 0.66055 0.60441 0.30787 0.0
N1169 N 0.66433 0.61156 0.32567 0.0
C1170 C 0.66432 0.58509 0.3037 0.0
C1171 C 0.67636 0.58115 0.3361 0.0
C1172 C 0.67274 0.60061 0.33948 0.0
C1173 C 0.6718 0.573 0.31811 0.0
H1174 H 0.65424 0.6136 0.29704 0.0
H1175 H 0.67589 0.60685 0.3534 0.0
C1176 C 0.63869 0.69445 0.35859 0.0
N1177 N 0.63073 0.71824 0.38951 0.0
C1178 C 0.61994 0.69581 0.3657 0.0
C1179 C 0.65336 0.70529 0.36711 0.0
C1180 C 0.61622 0.70791 0.38136 0.0
C1181 C 0.64906 0.71719 0.38277 0.0
C1182 C 0.63398 0.65431 0.29619 0.0
C1183 C 0.63395 0.67098 0.28488 0.0
C1184 C 0.62064 0.63966 0.29251 0.0
C1185 C 0.62045 0.67277 0.27012 0.0
C1186 C 0.60734 0.64201 0.27766 0.0
N1187 N 0.60752 0.65838 0.26687 0.0
C1188 C 0.68604 0.68119 0.29634 0.0
C1189 C 0.67604 0.70758 0.31564 0.0
C1190 C 0.69725 0.69335 0.28499 0.0
N1191 N 0.67598 0.68845 0.31144 0.0
C1192 C 0.68698 0.72032 0.30459 0.0
C1193 C 0.69785 0.71318 0.2891 0.0
H1194 H 0.6855 0.66589 0.2933 0.0
H1195 H 0.66763 0.71294 0.32757 0.0
C1196 C 0.59125 0.64951 0.33832 0.0
N1197 N 0.60339 0.66188 0.32924 0.0
C1198 C 0.57147 0.6517 0.33653 0.0
C1199 C 0.57701 0.67935 0.31599 0.0
C1200 C 0.59675 0.67671 0.31833 0.0
C1201 C 0.56416 0.66682 0.32533 0.0
H1202 H 0.59691 0.63814 0.34725 0.0
H1203 H 0.60677 0.68666 0.31173 0.0
O1204 O 0.6774 0.65296 0.3434 0.0
O1205 O 0.63639 0.63932 0.35275 0.0
O1206 O 0.6427 0.6824 0.34351 0.0
O1207 O 0.64693 0.65238 0.31085 0.0
H1208 H 0.69865 0.63203 0.31968 0.0
H1209 H 0.69694 0.68433 0.35313 0.0
H1210 H 0.73129 0.64108 0.3084 0.0
H1211 H 0.72961 0.69246 0.34123 0.0
H1212 H 0.6148 0.57801 0.34366 0.0
H1213 H 0.65012 0.62403 0.38487 0.0
H1214 H 0.61798 0.61211 0.33326 0.0
H1215 H 0.64624 0.58977 0.39442 0.0
H1216 H 0.69316 0.67052 0.41797 0.0
H1217 H 0.63156 0.66549 0.42493 0.0
H1218 H 0.66104 0.57963 0.28947 0.0
H1219 H 0.6819 0.57247 0.34778 0.0
H1220 H 0.60842 0.68748 0.35935 0.0
H1221 H 0.66797 0.70429 0.3619 0.0
H1222 H 0.6018 0.70903 0.38707 0.0
H1223 H 0.6603 0.72553 0.38961 0.0
H1224 H 0.64411 0.68251 0.28756 0.0
H1225 H 0.62043 0.62668 0.30115 0.0
H1226 H 0.6202 0.68563 0.26131 0.0
H1227 H 0.59686 0.63084 0.27473 0.0
H1228 H 0.7056 0.68722 0.27334 0.0
H1229 H 0.68683 0.73555 0.30803 0.0
H1230 H 0.56199 0.64169 0.34386 0.0
H1231 H 0.57184 0.6913 0.30742 0.0
Li1232 Li 0.32906 0.65583 0.35751 0.0
Li1233 Li 0.32955 0.63245 0.33015 0.0
Li1234 Li 0.35475 0.65735 0.33389 0.0
Li1235 Li 0.32289 0.66591 0.32534 0.0
C1236 C 0.36275 0.63354 0.36476 0.0
N1237 N 0.39176 0.6292 0.39148 0.0
C1238 C 0.37172 0.61568 0.36701 0.0
C1239 C 0.36854 0.64921 0.37605 0.0
C1240 C 0.38636 0.61377 0.38061 0.0
C1241 C 0.38323 0.64671 0.38949 0.0
C1242 C 0.28919 0.65352 0.33906 0.0
C1243 C 0.26036 0.65734 0.32023 0.0
N1244 N 0.25226 0.66745 0.33492 0.0
C1245 C 0.2805 0.66376 0.35406 0.0
C1246 C 0.27897 0.65009 0.32209 0.0
C1247 C 0.26185 0.67074 0.35166 0.0
C1248 C 0.3219 0.67644 0.39157 0.0
N1249 N 0.32333 0.6585 0.38384 0.0
C1250 C 0.3187 0.64393 0.41458 0.0
C1251 C 0.32158 0.64236 0.39477 0.0
C1252 C 0.31765 0.66229 0.42311 0.0
C1253 C 0.31905 0.67869 0.41132 0.0
H1254 H 0.32325 0.68897 0.38241 0.0
H1255 H 0.3229 0.6283 0.38814 0.0
C1256 C 0.34133 0.59624 0.31826 0.0
N1257 N 0.32558 0.60655 0.32338 0.0
C1258 C 0.33975 0.57653 0.31465 0.0
C1259 C 0.30561 0.57862 0.32102 0.0
C1260 C 0.30788 0.59832 0.3246 0.0
C1261 C 0.32176 0.56743 0.31635 0.0
H1262 H 0.35519 0.60331 0.31746 0.0
H1263 H 0.29566 0.60696 0.32881 0.0
C1264 C 0.34645 0.696 0.33737 0.0
N1265 N 0.36045 0.73037 0.32274 0.0
C1266 C 0.35224 0.69721 0.31812 0.0
C1267 C 0.34783 0.71228 0.34918 0.0
C1268 C 0.35926 0.71471 0.311 0.0
C1269 C 0.35494 0.72952 0.34152 0.0
C1270 C 0.33836 0.64587 0.29145 0.0
C1271 C 0.35171 0.65285 0.27808 0.0
C1272 C 0.32252 0.63523 0.28507 0.0
C1273 C 0.34888 0.64918 0.25851 0.0
C1274 C 0.32021 0.63185 0.26538 0.0
N1275 N 0.33332 0.63885 0.25262 0.0
C1276 C 0.39004 0.65069 0.31646 0.0
C1277 C 0.39098 0.67488 0.34061 0.0
C1278 C 0.40965 0.65287 0.31304 0.0
N1279 N 0.38119 0.66162 0.33004 0.0
C1280 C 0.41066 0.67747 0.33776 0.0
C1281 C 0.42025 0.6663 0.32388 0.0
H1282 H 0.38183 0.64018 0.30838 0.0
H1283 H 0.38357 0.68326 0.35144 0.0
C1284 C 0.29826 0.69719 0.3224 0.0
N1285 N 0.30836 0.68444 0.31148 0.0
C1286 C 0.28723 0.71146 0.31368 0.0
C1287 C 0.29822 0.70003 0.28266 0.0
C1288 C 0.30868 0.68573 0.29196 0.0
C1289 C 0.28727 0.71291 0.29361 0.0
H1290 H 0.29883 0.69626 0.33793 0.0
H1291 H 0.31712 0.6759 0.2835 0.0
O1292 O 0.3485 0.63565 0.3514 0.0
O1293 O 0.30756 0.64682 0.34107 0.0
O1294 O 0.33947 0.67905 0.34475 0.0
O1295 O 0.34099 0.64934 0.31066 0.0
H1296 H 0.36742 0.60344 0.35832 0.0
H1297 H 0.36186 0.66318 0.37438 0.0
H1298 H 0.39344 0.60004 0.38252 0.0
H1299 H 0.38788 0.65872 0.39831 0.0
H1300 H 0.25235 0.65495 0.3071 0.0
H1301 H 0.28812 0.66646 0.36734 0.0
H1302 H 0.28535 0.64207 0.3104 0.0
H1303 H 0.25501 0.67881 0.36309 0.0
H1304 H 0.31796 0.63093 0.4232 0.0
H1305 H 0.31811 0.69309 0.41732 0.0
H1306 H 0.35249 0.56842 0.31089 0.0
H1307 H 0.29156 0.57207 0.32267 0.0
H1308 H 0.35134 0.68483 0.30874 0.0
H1309 H 0.34348 0.71161 0.36412 0.0
H1310 H 0.36376 0.71583 0.29613 0.0
H1311 H 0.35608 0.74223 0.3505 0.0
H1312 H 0.36406 0.66113 0.28276 0.0
H1313 H 0.31212 0.62964 0.29517 0.0
H1314 H 0.35905 0.65456 0.24801 0.0
H1315 H 0.30799 0.62366 0.26025 0.0
H1316 H 0.41644 0.6441 0.30208 0.0
H1317 H 0.41834 0.68773 0.34667 0.0
H1318 H 0.27896 0.72135 0.32245 0.0
H1319 H 0.29846 0.70089 0.26709 0.0
Li1320 Li 0.33146 0.35844 0.33339 0.0
Li1321 Li 0.329 0.33185 0.35628 0.0
Li1322 Li 0.35763 0.3345 0.33475 0.0
Li1323 Li 0.32643 0.32417 0.3228 0.0
C1324 C 0.35901 0.36826 0.36146 0.0
N1325 N 0.37959 0.40011 0.37381 0.0
C1326 C 0.35631 0.3755 0.38006 0.0
C1327 C 0.37239 0.37706 0.34927 0.0
C1328 C 0.36678 0.39166 0.386 0.0
C1329 C 0.38261 0.39317 0.35574 0.0
C1330 C 0.29306 0.34137 0.34936 0.0
C1331 C 0.26708 0.32468 0.36531 0.0
N1332 N 0.2611 0.34169 0.37301 0.0
C1333 C 0.28654 0.35871 0.35726 0.0
C1334 C 0.28315 0.32424 0.35325 0.0
C1335 C 0.2704 0.35856 0.36924 0.0
C1336 C 0.32188 0.39035 0.31025 0.0
N1337 N 0.32531 0.38457 0.32862 0.0
C1338 C 0.3208 0.41659 0.34032 0.0
C1339 C 0.32446 0.39713 0.3436 0.0
C1340 C 0.31776 0.42316 0.32144 0.0
C1341 C 0.31812 0.40972 0.30629 0.0
H1342 H 0.3223 0.37993 0.29866 0.0
H1343 H 0.32667 0.39207 0.35812 0.0
C1344 C 0.32255 0.30727 0.3881 0.0
N1345 N 0.32102 0.32566 0.38155 0.0
C1346 C 0.31833 0.30299 0.40726 0.0
C1347 C 0.31067 0.33661 0.41242 0.0
C1348 C 0.31497 0.34021 0.39315 0.0
C1349 C 0.31268 0.31785 0.41978 0.0
H1350 H 0.32763 0.29602 0.37863 0.0
H1351 H 0.31409 0.35473 0.38758 0.0
C1352 C 0.35497 0.34883 0.29637 0.0
N1353 N 0.37758 0.35835 0.26499 0.0
C1354 C 0.35753 0.33564 0.28136 0.0
C1355 C 0.36358 0.36705 0.29517 0.0
C1356 C 0.36911 0.34066 0.2657 0.0
C1357 C 0.37504 0.37154 0.27927 0.0
C1358 C 0.34231 0.29201 0.33801 0.0
C1359 C 0.35867 0.28282 0.33082 0.0
C1360 C 0.32542 0.28139 0.34074 0.0
C1361 C 0.35776 0.26322 0.32619 0.0
C1362 C 0.32507 0.26182 0.33591 0.0
N1363 N 0.34112 0.25322 0.32877 0.0
C1364 C 0.39526 0.33511 0.349 0.0
C1365 C 0.39286 0.32371 0.31693 0.0
C1366 C 0.41517 0.33313 0.34857 0.0
N1367 N 0.38461 0.33083 0.33318 0.0
C1368 C 0.41273 0.3213 0.31592 0.0
C1369 C 0.42419 0.32624 0.33182 0.0
H1370 H 0.38831 0.34019 0.36195 0.0
H1371 H 0.38402 0.3196 0.30486 0.0
C1372 C 0.29462 0.31165 0.30206 0.0
N1373 N 0.31369 0.3085 0.30462 0.0
C1374 C 0.28407 0.29993 0.28967 0.0
C1375 C 0.31309 0.28213 0.28253 0.0
C1376 C 0.32312 0.29438 0.29488 0.0
C1377 C 0.2933 0.28481 0.27996 0.0
H1378 H 0.28755 0.32313 0.30984 0.0
H1379 H 0.33837 0.29241 0.29693 0.0
O1380 O 0.34871 0.35254 0.35535 0.0
O1381 O 0.30903 0.34117 0.33785 0.0
O1382 O 0.34352 0.34417 0.31175 0.0
O1383 O 0.34292 0.31123 0.34251 0.0
H1384 H 0.34619 0.36876 0.3898 0.0
H1385 H 0.37509 0.37131 0.33509 0.0
H1386 H 0.36475 0.39748 0.40031 0.0
H1387 H 0.39299 0.40011 0.34642 0.0
H1388 H 0.25935 0.31151 0.36854 0.0
H1389 H 0.29394 0.37211 0.35432 0.0
H1390 H 0.28784 0.31074 0.34706 0.0
H1391 H 0.26528 0.37186 0.37556 0.0
H1392 H 0.32083 0.42646 0.35242 0.0
H1393 H 0.31558 0.41412 0.29156 0.0
H1394 H 0.31994 0.28831 0.41233 0.0
H1395 H 0.3067 0.34857 0.42162 0.0
H1396 H 0.3508 0.32159 0.28186 0.0
H1397 H 0.36127 0.37774 0.30625 0.0
H1398 H 0.37135 0.33049 0.25409 0.0
H1399 H 0.38184 0.38556 0.27822 0.0
H1400 H 0.37192 0.29073 0.32881 0.0
H1401 H 0.31267 0.28821 0.34639 0.0
H1402 H 0.3703 0.25596 0.32053 0.0
H1403 H 0.31205 0.25348 0.33781 0.0
H1404 H 0.4234 0.33727 0.36114 0.0
H1405 H 0.41901 0.31548 0.30289 0.0
H1406 H 0.26878 0.30232 0.28808 0.0
H1407 H 0.32067 0.27071 0.27509 0.0
C1408 C 0.26929 0.27888 0.25406 0.0
C1409 C 0.28211 0.27154 0.26771 0.0
C1410 C 0.25773 0.26647 0.24313 0.0
C1411 C 0.25893 0.24632 0.24616 0.0
C1412 C 0.27211 0.23882 0.2597 0.0
C1413 C 0.28366 0.25156 0.27027 0.0
C1414 C 0.24401 0.27494 0.2286 0.0
C1415 C 0.27358 0.21741 0.26342 0.0
C1416 C 0.21467 0.21759 0.23265 0.0
C1417 C 0.21999 0.21001 0.21471 0.0
C1418 C 0.22743 0.22904 0.24328 0.0
C1419 C 0.24583 0.23318 0.23564 0.0
C1420 C 0.25143 0.22535 0.2177 0.0
C1421 C 0.23847 0.21374 0.20749 0.0
C1422 C 0.22105 0.23707 0.26247 0.0
C1423 C 0.27095 0.22956 0.20912 0.0
H1424 H 0.26827 0.29435 0.252 0.0
H1425 H 0.29347 0.24595 0.28099 0.0
H1426 H 0.24649 0.26839 0.21424 0.0
H1427 H 0.229 0.27156 0.23282 0.0
H1428 H 0.24554 0.29085 0.22735 0.0
H1429 H 0.28514 0.2139 0.27385 0.0
H1430 H 0.25973 0.21194 0.26919 0.0
H1431 H 0.27642 0.20959 0.24978 0.0
H1432 H 0.20033 0.21499 0.2382 0.0
H1433 H 0.24278 0.20764 0.19379 0.0
H1434 H 0.22044 0.25305 0.26173 0.0
H1435 H 0.23159 0.23327 0.27381 0.0
H1436 H 0.20668 0.23158 0.26685 0.0
H1437 H 0.27253 0.2453 0.20665 0.0
H1438 H 0.27324 0.22194 0.19523 0.0
H1439 H 0.28242 0.22523 0.21929 0.0
C1440 C 0.73336 0.27185 0.27973 0.0
C1441 C 0.71429 0.27546 0.27445 0.0
C1442 C 0.74492 0.25957 0.26869 0.0
C1443 C 0.73707 0.25057 0.25217 0.0
C1444 C 0.71774 0.25398 0.24693 0.0
C1445 C 0.70659 0.26651 0.2581 0.0
C1446 C 0.76556 0.25643 0.27454 0.0
C1447 C 0.70886 0.24442 0.22952 0.0
C1448 C 0.77075 0.23338 0.21299 0.0
C1449 C 0.772 0.21366 0.21713 0.0
C1450 C 0.75954 0.24562 0.22441 0.0
C1451 C 0.7492 0.23783 0.24016 0.0
C1452 C 0.75036 0.21789 0.24436 0.0
C1453 C 0.76189 0.20603 0.23283 0.0
C1454 C 0.75881 0.26687 0.21968 0.0
C1455 C 0.73932 0.20909 0.26091 0.0
H1456 H 0.73932 0.27895 0.2923 0.0
H1457 H 0.69176 0.26919 0.25418 0.0
H1458 H 0.76822 0.24085 0.27696 0.0
H1459 H 0.7753 0.26116 0.26278 0.0
H1460 H 0.76939 0.26444 0.28786 0.0
H1461 H 0.69347 0.24821 0.22775 0.0
H1462 H 0.71674 0.24879 0.21633 0.0
H1463 H 0.71008 0.22851 0.23075 0.0
H1464 H 0.77878 0.23926 0.20094 0.0
H1465 H 0.76277 0.19072 0.23589 0.0
H1466 H 0.76362 0.27547 0.23227 0.0
H1467 H 0.74381 0.27119 0.21649 0.0
H1468 H 0.76797 0.27065 0.20712 0.0
H1469 H 0.74361 0.21605 0.27464 0.0
H1470 H 0.74172 0.1933 0.26216 0.0
H1471 H 0.72371 0.21169 0.259 0.0
C1472 C 0.78005 0.7649 0.22948 0.0
C1473 C 0.77416 0.78193 0.22038 0.0
C1474 C 0.76738 0.75441 0.24114 0.0
C1475 C 0.74844 0.76124 0.24389 0.0
C1476 C 0.74252 0.77864 0.23514 0.0
C1477 C 0.75545 0.78876 0.22339 0.0
C1478 C 0.77415 0.73585 0.25025 0.0
C1479 C 0.72244 0.78637 0.23788 0.0
C1480 C 0.71103 0.72395 0.2574 0.0
C1481 C 0.71002 0.72625 0.27743 0.0
C1482 C 0.72329 0.73546 0.24627 0.0
C1483 C 0.73465 0.74973 0.25539 0.0
C1484 C 0.73333 0.75251 0.27552 0.0
C1485 C 0.72107 0.74065 0.28634 0.0
C1486 C 0.72438 0.73209 0.2248 0.0
C1487 C 0.74519 0.76769 0.28568 0.0
H1488 H 0.7946 0.75975 0.22747 0.0
H1489 H 0.75077 0.80181 0.21622 0.0
H1490 H 0.77232 0.73655 0.26611 0.0
H1491 H 0.76528 0.72361 0.24499 0.0
H1492 H 0.78946 0.73277 0.24699 0.0
H1493 H 0.72044 0.80064 0.23089 0.0
H1494 H 0.71185 0.77609 0.23174 0.0
H1495 H 0.71916 0.78781 0.25345 0.0
H1496 H 0.70226 0.71305 0.25042 0.0
H1497 H 0.7205 0.74234 0.30184 0.0
H1498 H 0.73917 0.72774 0.22075 0.0
H1499 H 0.72115 0.74564 0.21697 0.0
H1500 H 0.71423 0.72071 0.2199 0.0
H1501 H 0.76068 0.76428 0.28419 0.0
H1502 H 0.74166 0.76872 0.30125 0.0
H1503 H 0.74286 0.782 0.27894 0.0
C1504 C 0.25552 0.72575 0.28416 0.0
C1505 C 0.27553 0.72743 0.28386 0.0
C1506 C 0.24417 0.7378 0.27272 0.0
C1507 C 0.25316 0.75199 0.26111 0.0
C1508 C 0.27335 0.75445 0.26172 0.0
C1509 C 0.28436 0.74188 0.27294 0.0
C1510 C 0.22271 0.73455 0.27216 0.0
C1511 C 0.28336 0.76973 0.24988 0.0
C1512 C 0.22839 0.76557 0.21473 0.0
C1513 C 0.21898 0.78267 0.21992 0.0
C1514 C 0.23952 0.75546 0.22806 0.0
C1515 C 0.24168 0.76288 0.24691 0.0
C1516 C 0.23269 0.78037 0.25216 0.0
C1517 C 0.22125 0.78997 0.23864 0.0
C1518 C 0.24877 0.7367 0.22202 0.0
C1519 C 0.23503 0.78883 0.27206 0.0
H1520 H 0.24887 0.71439 0.2926 0.0
H1521 H 0.2999 0.74306 0.27288 0.0
H1522 H 0.21498 0.74832 0.27451 0.0
H1523 H 0.21854 0.7291 0.25772 0.0
H1524 H 0.21786 0.72396 0.28315 0.0
H1525 H 0.29874 0.77131 0.25384 0.0
H1526 H 0.2825 0.7659 0.2344 0.0
H1527 H 0.27616 0.78388 0.25173 0.0
H1528 H 0.22708 0.76006 0.20019 0.0
H1529 H 0.21383 0.80303 0.24287 0.0
H1530 H 0.2439 0.72485 0.2316 0.0
H1531 H 0.26461 0.7378 0.22345 0.0
H1532 H 0.24531 0.73274 0.20691 0.0
H1533 H 0.22876 0.77891 0.28291 0.0
H1534 H 0.22797 0.80312 0.27348 0.0
H1535 H 0.25051 0.79048 0.27552 0.0
C1536 C 0.26953 0.73349 0.7084 0.0
C1537 C 0.27521 0.71544 0.71529 0.0
C1538 C 0.25828 0.74573 0.7198 0.0
C1539 C 0.25231 0.73947 0.73826 0.0
C1540 C 0.25792 0.72114 0.74519 0.0
C1541 C 0.26951 0.70938 0.73365 0.0
C1542 C 0.25285 0.76536 0.71214 0.0
C1543 C 0.25149 0.71387 0.76466 0.0
C1544 C 0.23673 0.77658 0.77504 0.0
C1545 C 0.21677 0.77605 0.77285 0.0
C1546 C 0.24855 0.76483 0.76371 0.0
C1547 C 0.24005 0.75204 0.75027 0.0
C1548 C 0.21983 0.75129 0.74826 0.0
C1549 C 0.2084 0.76351 0.75947 0.0
C1550 C 0.27009 0.76624 0.76595 0.0
C1551 C 0.2103 0.73752 0.73435 0.0
H1552 H 0.27414 0.73812 0.69422 0.0
H1553 H 0.27388 0.6953 0.73881 0.0
H1554 H 0.237 0.76653 0.71108 0.0
H1555 H 0.25778 0.77676 0.72223 0.0
H1556 H 0.25916 0.76823 0.69772 0.0
H1557 H 0.25693 0.69915 0.76778 0.0
H1558 H 0.25658 0.72378 0.77613 0.0
H1559 H 0.23556 0.71361 0.76538 0.0
H1560 H 0.24308 0.78645 0.78537 0.0
H1561 H 0.1929 0.76311 0.758 0.0
H1562 H 0.27677 0.77012 0.75196 0.0
H1563 H 0.27601 0.75205 0.77027 0.0
H1564 H 0.27437 0.77716 0.77686 0.0
H1565 H 0.21503 0.74071 0.71944 0.0
H1566 H 0.19437 0.73838 0.73495 0.0
H1567 H 0.21467 0.72249 0.73761 0.0
C1568 C 0.22893 0.21172 0.76598 0.0
C1569 C 0.2133 0.21976 0.77583 0.0
C1570 C 0.24067 0.22315 0.7542 0.0
C1571 C 0.23661 0.24304 0.75225 0.0
C1572 C 0.22092 0.25127 0.76225 0.0
C1573 C 0.20944 0.23951 0.77396 0.0
C1574 C 0.25737 0.21394 0.7438 0.0
C1575 C 0.21617 0.27244 0.76041 0.0
C1576 C 0.27668 0.2756 0.73463 0.0
C1577 C 0.27221 0.27725 0.71504 0.0
C1578 C 0.2651 0.26462 0.74699 0.0
C1579 C 0.24867 0.25518 0.73952 0.0
C1580 C 0.24393 0.25702 0.71981 0.0
C1581 C 0.2558 0.26804 0.70778 0.0
C1582 C 0.27059 0.26289 0.76794 0.0
C1583 C 0.22643 0.24722 0.71142 0.0
H1584 H 0.23207 0.1965 0.76763 0.0
H1585 H 0.19723 0.24569 0.78142 0.0
H1586 H 0.25562 0.21568 0.72802 0.0
H1587 H 0.27097 0.22125 0.74787 0.0
H1588 H 0.25869 0.19831 0.74707 0.0
H1589 H 0.20364 0.27662 0.7694 0.0
H1590 H 0.22871 0.28134 0.76475 0.0
H1591 H 0.21297 0.27596 0.74517 0.0
H1592 H 0.28949 0.28256 0.7402 0.0
H1593 H 0.2522 0.26953 0.69267 0.0
H1594 H 0.2734 0.24756 0.77153 0.0
H1595 H 0.25855 0.26776 0.77722 0.0
H1596 H 0.28357 0.27152 0.77153 0.0
H1597 H 0.22762 0.23136 0.7132 0.0
H1598 H 0.22456 0.25046 0.69587 0.0
H1599 H 0.21334 0.25187 0.71925 0.0
C1600 C 0.77667 0.2246 0.76031 0.0
C1601 C 0.77034 0.21818 0.77838 0.0
C1602 C 0.76543 0.23708 0.74924 0.0
C1603 C 0.7475 0.24336 0.75648 0.0
C1604 C 0.74112 0.23715 0.77481 0.0
C1605 C 0.75262 0.22456 0.78554 0.0
C1606 C 0.77268 0.24344 0.72973 0.0
C1607 C 0.72206 0.24359 0.78295 0.0
C1608 C 0.72621 0.2881 0.73377 0.0
C1609 C 0.7131 0.28001 0.72075 0.0
C1610 C 0.7373 0.27634 0.74578 0.0
C1611 C 0.73524 0.25605 0.7446 0.0
C1612 C 0.72187 0.24782 0.73164 0.0
C1613 C 0.71092 0.25992 0.71987 0.0
C1614 C 0.75134 0.28557 0.75957 0.0
C1615 C 0.71941 0.22622 0.72991 0.0
H1616 H 0.79051 0.21995 0.75487 0.0
H1617 H 0.74759 0.21947 0.79942 0.0
H1618 H 0.76243 0.23883 0.71839 0.0
H1619 H 0.7736 0.25941 0.72915 0.0
H1620 H 0.78704 0.23739 0.72631 0.0
H1621 H 0.71953 0.23798 0.79771 0.0
H1622 H 0.72142 0.25958 0.78335 0.0
H1623 H 0.71022 0.23856 0.77351 0.0
H1624 H 0.72773 0.30365 0.7346 0.0
H1625 H 0.70094 0.25365 0.70964 0.0
H1626 H 0.76618 0.28097 0.75601 0.0
H1627 H 0.74831 0.28073 0.77449 0.0
H1628 H 0.75075 0.30158 0.75914 0.0
H1629 H 0.73311 0.2196 0.72515 0.0
H1630 H 0.70798 0.22218 0.71951 0.0
H1631 H 0.71579 0.21994 0.74415 0.0
C1632 C 0.75595 0.76943 0.78075 0.0
C1633 C 0.76723 0.78485 0.77411 0.0
C1634 C 0.74389 0.75924 0.76824 0.0
C1635 C 0.74285 0.76483 0.74869 0.0
C1636 C 0.75345 0.78094 0.74207 0.0
C1637 C 0.76566 0.7907 0.75484 0.0
C1638 C 0.73283 0.74204 0.7758 0.0
C1639 C 0.75243 0.78745 0.72135 0.0
C1640 C 0.72979 0.72499 0.7139 0.0
C1641 C 0.71002 0.72784 0.71178 0.0
C1642 C 0.74076 0.73727 0.72553 0.0
C1643 C 0.7317 0.75289 0.735 0.0
C1644 C 0.71185 0.75629 0.73229 0.0
C1645 C 0.70117 0.74356 0.72081 0.0
C1646 C 0.76185 0.73306 0.72831 0.0
C1647 C 0.70185 0.77304 0.74188 0.0
H1648 H 0.75675 0.76514 0.79573 0.0
H1649 H 0.77444 0.80251 0.74956 0.0
H1650 H 0.7173 0.74366 0.77268 0.0
H1651 H 0.73777 0.72874 0.7684 0.0
H1652 H 0.73467 0.74007 0.79156 0.0
H1653 H 0.75993 0.80142 0.71901 0.0
H1654 H 0.75912 0.77642 0.71192 0.0
H1655 H 0.73724 0.78896 0.71678 0.0
H1656 H 0.73654 0.71271 0.70701 0.0
H1657 H 0.68587 0.74581 0.71896 0.0
H1658 H 0.76464 0.72958 0.74364 0.0
H1659 H 0.77059 0.74597 0.72469 0.0
H1660 H 0.76682 0.72079 0.7193 0.0
H1661 H 0.7018 0.77095 0.75771 0.0
H1662 H 0.68676 0.77463 0.73694 0.0
H1663 H 0.70971 0.78668 0.73891 0.0
C1664 C 0.14561 0.16514 0.95665 0.0
C1665 C 0.15899 0.17539 0.94555 0.0
C1666 C 0.14607 0.16599 0.97678 0.0
C1667 C 0.16012 0.17756 0.98598 0.0
C1668 C 0.17352 0.18815 0.97483 0.0
C1669 C 0.1729 0.18681 0.95468 0.0
C1670 C 0.13172 0.15425 0.9882 0.0
C1671 C 0.18852 0.20082 0.98419 0.0
C1672 C 0.14876 0.19031 0.0378 0.0
C1673 C 0.15957 0.17653 0.04775 0.0
C1674 C 0.14943 0.19137 0.01765 0.0
C1675 C 0.16094 0.17812 0.0073 0.0
C1676 C 0.17224 0.16449 0.01732 0.0
C1677 C 0.1715 0.16394 0.03746 0.0
C1678 C 0.1374 0.20626 0.00742 0.0
C1679 C 0.18449 0.14997 0.00675 0.0
H1680 H 0.13502 0.15611 0.94956 0.0
H1681 H 0.18316 0.19483 0.94604 0.0
H1682 H 0.13939 0.14391 -0.00237 0.0
H1683 H 0.12317 0.16385 -0.00233 0.0
H1684 H 0.12171 0.14603 0.9788 0.0
H1685 H 0.19748 0.20861 0.97344 0.0
H1686 H 0.1815 0.21156 0.99371 0.0
H1687 H 0.19808 0.19194 0.99336 0.0
H1688 H 0.13968 0.20015 0.04579 0.0
H1689 H 0.17969 0.15313 0.04516 0.0
H1690 H 0.12596 0.19897 -0.00101 0.0
H1691 H 0.14638 0.21456 -0.00289 0.0
H1692 H 0.13053 0.21652 0.01761 0.0
H1693 H 0.17516 0.14022 -0.00182 0.0
H1694 H 0.19325 0.14107 0.01671 0.0
H1695 H 0.19427 0.1574 -0.00347 0.0
C1696 C 0.82947 0.1844 0.95371 0.0
C1697 C 0.81964 0.16899 0.94498 0.0
C1698 C 0.82959 0.18662 0.97377 0.0
C1699 C 0.81996 0.1729 0.9854 0.0
C1700 C 0.80958 0.15764 0.97671 0.0
C1701 C 0.80939 0.15598 0.9566 0.0
C1702 C 0.84057 0.20325 0.98255 0.0
C1703 C 0.79927 0.14262 0.98866 0.0
C1704 C 0.83853 0.16422 0.03585 0.0
C1705 C 0.82445 0.17326 0.04705 0.0
C1706 C 0.83732 0.16418 0.01573 0.0
C1707 C 0.82181 0.1737 0.00665 0.0
C1708 C 0.80782 0.18332 0.01791 0.0
C1709 C 0.8092 0.1828 0.03806 0.0
C1710 C 0.85233 0.15348 0.00422 0.0
C1711 C 0.79131 0.19392 0.00868 0.0
H1712 H 0.83763 0.19441 0.94491 0.0
H1713 H 0.80139 0.14429 0.94999 0.0
H1714 H 0.83147 0.21097 0.99316 0.0
H1715 H 0.85327 0.19769 0.9904 0.0
H1716 H 0.8456 0.21372 0.97153 0.0
H1717 H 0.79126 0.13208 0.97966 0.0
H1718 H 0.80983 0.13464 -0.00245 0.0
H1719 H 0.78903 0.14965 -0.00132 0.0
H1720 H 0.85018 0.15663 0.04288 0.0
H1721 H 0.79837 0.18983 0.0468 0.0
H1722 H 0.85932 0.16337 0.99379 0.0
H1723 H 0.8454 0.14176 -0.00419 0.0
H1724 H 0.8636 0.14705 0.01351 0.0
H1725 H 0.79684 0.20457 -0.00191 0.0
H1726 H 0.78231 0.20161 0.01944 0.0
H1727 H 0.78208 0.1836 0.0007 0.0
C1728 C 0.80604 0.80324 0.95556 0.0
C1729 C 0.82299 0.81048 0.94726 0.0
C1730 C 0.80365 0.80285 0.97563 0.0
C1731 C 0.81861 0.80972 0.9876 0.0
C1732 C 0.83596 0.81644 0.97933 0.0
C1733 C 0.83789 0.81685 0.95928 0.0
C1734 C 0.78494 0.79562 0.984 0.0
C1735 C 0.85231 0.82381 0.99163 0.0
C1736 C 0.81029 0.83117 0.03688 0.0
C1737 C 0.81737 0.81657 0.04883 0.0
C1738 C 0.80939 0.8286 0.0169 0.0
C1739 C 0.81593 0.81109 0.00874 0.0
C1740 C 0.82204 0.79588 0.02085 0.0
C1741 C 0.82262 0.79879 0.04083 0.0
C1742 C 0.80255 0.84507 0.00448 0.0
C1743 C 0.82919 0.77704 0.01265 0.0
H1744 H 0.79457 0.79806 0.94637 0.0
H1745 H 0.85089 0.82281 0.95304 0.0
H1746 H 0.7877 0.78437 0.99499 0.0
H1747 H 0.77742 0.80766 0.99134 0.0
H1748 H 0.77525 0.78955 0.97282 0.0
H1749 H 0.86529 0.82735 0.98299 0.0
H1750 H 0.84773 0.837 -0.00056 0.0
H1751 H 0.85625 0.81289 0.00259 0.0
H1752 H 0.80599 0.84483 0.04314 0.0
H1753 H 0.8282 0.78753 0.05008 0.0
H1754 H 0.79192 0.83986 0.99377 0.0
H1755 H 0.81488 0.85121 -0.00362 0.0
H1756 H 0.7959 0.85679 0.01311 0.0
H1757 H 0.81919 0.77151 0.00151 0.0
H1758 H 0.83094 0.76584 0.02395 0.0
H1759 H 0.84331 0.77942 0.0056 0.0
C1760 C 0.15525 0.82626 0.03128 0.0
C1761 C 0.16875 0.81632 0.04244 0.0
C1762 C 0.15676 0.82684 0.01121 0.0
C1763 C 0.1722 0.81729 0.00204 0.0
C1764 C 0.18589 0.80717 0.01317 0.0
C1765 C 0.18401 0.80682 0.0333 0.0
C1766 C 0.14192 0.83787 -0.00017 0.0
C1767 C 0.20249 0.79678 0.00382 0.0
C1768 C 0.16366 0.80696 0.94923 0.0
C1769 C 0.17274 0.8228 0.9405 0.0
C1770 C 0.16418 0.80444 0.96924 0.0
C1771 C 0.17393 0.81815 0.98077 0.0
C1772 C 0.1838 0.83372 0.972 0.0
C1773 C 0.18311 0.83584 0.95195 0.0
C1774 C 0.1535 0.78765 0.9781 0.0
C1775 C 0.19438 0.84861 0.98386 0.0
H1776 H 0.14365 0.83397 0.0383 0.0
H1777 H 0.1944 0.79903 0.04188 0.0
H1778 H 0.14898 0.84962 0.99157 0.0
H1779 H 0.13486 0.82816 0.98926 0.0
H1780 H 0.13067 0.8443 0.00917 0.0
H1781 H 0.2118 0.78945 0.01452 0.0
H1782 H 0.19702 0.78586 0.99349 0.0
H1783 H 0.21138 0.80716 -0.00449 0.0
H1784 H 0.15546 0.79693 0.9405 0.0
H1785 H 0.19043 0.84792 0.94524 0.0
H1786 H 0.1409 0.79306 0.98625 0.0
H1787 H 0.16284 0.77991 0.98845 0.0
H1788 H 0.14835 0.77722 0.96708 0.0
H1789 H 0.18395 0.85694 0.99261 0.0
H1790 H 0.20267 0.85887 0.97476 0.0
H1791 H 0.2044 0.84147 0.99399 0.0
C1792 C 0.03291 0.16081 0.19493 0.0
C1793 C 0.04269 0.17206 0.18129 0.0
C1794 C 0.01279 0.16063 0.19571 0.0
C1795 C 0.00226 0.172 0.18253 0.0
C1796 C 0.01207 0.18434 0.16958 0.0
C1797 C 0.0322 0.18422 0.1691 0.0
C1798 C 0.00282 0.14738 0.20981 0.0
C1799 C 0.00132 0.19673 0.15535 0.0
C1800 C 0.95409 0.15284 0.16589 0.0
C1801 C 0.94123 0.16434 0.17632 0.0
C1802 C 0.97397 0.15511 0.16797 0.0
C1803 C 0.98118 0.1693 0.18074 0.0
C1804 C 0.96832 0.18091 0.19142 0.0
C1805 C 0.94845 0.17828 0.18909 0.0
C1806 C 0.98725 0.14245 0.15629 0.0
C1807 C 0.97554 0.19615 0.20518 0.0
H1808 H 0.041 0.15163 0.20459 0.0
H1809 H 0.03968 0.19283 0.15843 0.0
H1810 H 0.99123 0.15515 0.21754 0.0
H1811 H -0.00397 0.13525 0.20188 0.0
H1812 H 0.01294 0.1413 0.22056 0.0
H1813 H 0.01093 0.20717 0.14791 0.0
H1814 H 0.99447 0.18738 0.14433 0.0
H1815 H 0.9897 0.20483 0.16268 0.0
H1816 H 0.94861 0.14228 0.15576 0.0
H1817 H 0.93855 0.18708 0.19732 0.0
H1818 H -0.00296 0.13444 0.16599 0.0
H1819 H -0.00368 0.15152 0.14673 0.0
H1820 H 0.97931 0.13187 0.14727 0.0
H1821 H 0.98499 0.1895 0.21616 0.0
H1822 H 0.96365 0.20376 0.21263 0.0
H1823 H 0.98432 0.20693 0.19726 0.0
C1824 C 0.83868 0.95681 0.16977 0.0
C1825 C 0.82366 0.9434 0.17147 0.0
C1826 C 0.83511 0.97665 0.17042 0.0
C1827 C 0.81607 0.98326 0.17304 0.0
C1828 C 0.80096 0.96983 0.17578 0.0
C1829 C 0.80493 0.95 0.17489 0.0
C1830 C 0.85165 0.99052 0.16749 0.0
C1831 C 0.78052 0.97639 0.17882 0.0
C1832 C 0.81394 0.03648 0.18499 0.0
C1833 C 0.81192 0.04453 0.16658 0.0
C1834 C 0.81394 0.01641 0.18758 0.0
C1835 C 0.81205 0.0042 0.17136 0.0
C1836 C 0.80871 0.01226 0.15295 0.0
C1837 C 0.80861 0.03234 0.15081 0.0
C1838 C 0.81726 0.00831 0.20747 0.0
C1839 C 0.80655 -0.00029 0.13529 0.0
H1840 H 0.85324 0.95176 0.16753 0.0
H1841 H 0.79326 0.93968 0.17614 0.0
H1842 H 0.84946 -0.0012 0.15401 0.0
H1843 H 0.85226 0.00107 0.17949 0.0
H1844 H 0.86571 0.98303 0.16656 0.0
H1845 H 0.77092 0.96431 0.18315 0.0
H1846 H 0.77991 0.98779 0.19003 0.0
H1847 H 0.77492 0.98274 0.16529 0.0
H1848 H 0.81656 0.04582 0.19724 0.0
H1849 H 0.80662 0.03853 0.13662 0.0
H1850 H 0.83212 0.00265 0.20844 0.0
H1851 H 0.80731 -0.00388 0.21037 0.0
H1852 H 0.81534 0.01942 0.21884 0.0
H1853 H 0.82045 0.99257 0.1321 0.0
H1854 H 0.80215 0.00813 0.12244 0.0
H1855 H 0.79577 0.98818 0.13787 0.0
C1856 C 0.95525 0.79653 0.17573 0.0
C1857 C 0.94741 0.81251 0.16627 0.0
C1858 C 0.97525 0.79424 0.17704 0.0
C1859 C 0.98749 0.80848 0.16902 0.0
C1860 C 0.97954 0.82487 0.15989 0.0
C1861 C 0.95958 0.82659 0.15849 0.0
C1862 C 0.98327 0.77645 0.18659 0.0
C1863 C 0.99212 0.84054 0.15143 0.0
C1864 C 0.03953 0.81514 0.18329 0.0
C1865 C 0.04885 0.80847 0.16673 0.0
C1866 C 0.01945 0.81424 0.18479 0.0
C1867 C 0.00865 0.80619 0.16948 0.0
C1868 C 0.0182 0.79815 0.15337 0.0
C1869 C 0.03823 0.7996 0.15208 0.0
C1870 C 0.00976 0.82319 0.20207 0.0
C1871 C 0.00721 0.78912 0.13693 0.0
H1872 H 0.94574 0.78565 0.18169 0.0
H1873 H 0.95342 0.83906 0.1514 0.0
H1874 H 0.99165 0.76798 0.17595 0.0
H1875 H 0.99326 0.78059 0.19832 0.0
H1876 H 0.9718 0.76706 0.19266 0.0
H1877 H 0.98362 0.85278 0.14568 0.0
H1878 H 0.00213 0.84615 0.16254 0.0
H1879 H 0.00097 0.83453 0.13958 0.0
H1880 H 0.04784 0.8221 0.19453 0.0
H1881 H 0.04558 0.79435 0.13935 0.0
H1882 H -0.00146 0.81342 0.20791 0.0
H1883 H 0.00254 0.83674 0.19765 0.0
H1884 H 0.02015 0.82665 0.21371 0.0
H1885 H -0.00387 0.779 0.14247 0.0
H1886 H 0.01679 0.7812 0.12687 0.0
H1887 H -0.00033 0.80054 0.12872 0.0
C1888 C 0.14617 0.03307 0.17136 0.0
C1889 C 0.16072 0.04493 0.16387 0.0
C1890 C 0.14783 0.01294 0.17091 0.0
C1891 C 0.16453 0.00449 0.16297 0.0
C1892 C 0.1796 0.01636 0.15606 0.0
C1893 C 0.17748 0.03647 0.15651 0.0
C1894 C 0.13144 0.00072 0.17841 0.0
C1895 C 0.19769 0.00782 0.14763 0.0
C1896 C 0.17274 0.9517 0.17447 0.0
C1897 C 0.16548 0.94276 0.1579 0.0
C1898 C 0.17304 0.97186 0.17614 0.0
C1899 C 0.16569 0.98324 0.16094 0.0
C1900 C 0.15863 0.97427 0.14404 0.0
C1901 C 0.15869 0.95411 0.1427 0.0
C1902 C 0.1809 0.98097 0.19425 0.0
C1903 C 0.1505 0.98594 0.12762 0.0
H1904 H 0.13335 0.03953 0.17741 0.0
H1905 H 0.1887 0.04555 0.15053 0.0
H1906 H 0.12533 0.99198 0.16649 0.0
H1907 H 0.13673 0.99051 0.18948 0.0
H1908 H 0.11976 0.00955 0.1848 0.0
H1909 H 0.20868 0.01901 0.14435 0.0
H1910 H 0.20397 -0.00281 0.15773 0.0
H1911 H 0.19419 0.0 0.13413 0.0
H1912 H 0.17816 0.9429 0.18615 0.0
H1913 H 0.15288 0.94717 0.12996 0.0
H1914 H 0.1693 0.98886 0.20185 0.0
H1915 H 0.19221 0.99167 0.19058 0.0
H1916 H 0.18705 0.97013 0.20425 0.0
H1917 H 0.13776 0.9941 0.13265 0.0
H1918 H 0.14617 0.97676 0.11524 0.0
H1919 H 0.16125 -0.00336 0.12255 0.0
C1920 C 0.95574 0.80409 0.83668 0.0
C1921 C 0.94433 0.8124 0.82234 0.0
C1922 C 0.97581 0.80437 0.83528 0.0
C1923 C 0.9846 0.8134 0.81925 0.0
C1924 C 0.97311 0.82093 0.80423 0.0
C1925 C 0.95304 0.82024 0.80592 0.0
C1926 C 0.98758 0.79593 0.85144 0.0
C1927 C 0.98199 0.83076 0.78698 0.0
C1928 C 0.03319 0.8359 0.82924 0.0
C1929 C 0.04574 0.82216 0.82146 0.0
C1930 C 0.01325 0.83339 0.82819 0.0
C1931 C 0.00567 0.81668 0.81924 0.0
C1932 C 0.01821 0.80287 0.81109 0.0
C1933 C 0.03813 0.80579 0.81229 0.0
C1934 C 0.0003 0.84845 0.83705 0.0
C1935 C 0.0106 0.78489 0.80144 0.0
H1936 H 0.94893 0.79786 0.84929 0.0
H1937 H 0.94417 0.82679 0.7949 0.0
H1938 H -0.00116 0.78624 0.84562 0.0
H1939 H -0.00503 0.80772 0.85935 0.0
H1940 H 0.97861 0.78768 0.86182 0.0
H1941 H 0.97122 0.83387 0.77561 0.0
H1942 H 0.98865 0.84459 0.79155 0.0
H1943 H 0.99355 0.82172 0.78072 0.0
H1944 H 0.03897 0.84844 0.83659 0.0
H1945 H 0.04778 0.79525 0.80603 0.0
H1946 H 0.99199 0.84198 0.84907 0.0
H1947 H 0.98981 0.85366 0.82624 0.0
H1948 H 0.00847 0.86103 0.84269 0.0
H1949 H 0.00256 0.77602 0.81205 0.0
H1950 H 0.02225 0.77595 0.79515 0.0
H1951 H 0.00039 0.78881 0.78985 0.0
C1952 C 0.15584 0.95761 0.80193 0.0
C1953 C 0.16725 0.94694 0.81466 0.0
C1954 C 0.15672 0.97783 0.80168 0.0
C1955 C 0.16925 0.98753 0.8145 0.0
C1956 C 0.18141 0.9768 0.82676 0.0
C1957 C 0.18025 0.95662 0.82671 0.0
C1958 C 0.14365 0.98882 0.78829 0.0
C1959 C 0.19492 0.98664 0.84068 0.0
C1960 C 0.17987 0.04093 0.80818 0.0
C1961 C 0.16717 0.04913 0.82156 0.0
C1962 C 0.18058 0.02087 0.80549 0.0
C1963 C 0.16833 0.00881 0.81648 0.0
C1964 C 0.15537 0.01702 0.82986 0.0
C1965 C 0.15491 0.03707 0.83219 0.0
C1966 C 0.19454 0.01256 0.79107 0.0
C1967 C 0.14206 0.00462 0.84184 0.0
H1968 H 0.14599 0.95015 0.7924 0.0
H1969 H 0.18894 0.94846 0.83673 0.0
H1970 H 0.13266 -0.00336 0.79683 0.0
H1971 H 0.15195 -0.00023 0.78009 0.0
H1972 H 0.13617 0.97916 0.77794 0.0
H1973 H 0.20466 0.97626 0.84791 0.0
H1974 H 0.20376 -0.0024 0.8331 0.0
H1975 H 0.18647 0.99429 0.85188 0.0
H1976 H 0.18946 0.05018 0.80003 0.0
H1977 H 0.14478 0.04334 0.84225 0.0
H1978 H 0.18678 0.00342 0.7805 0.0
H1979 H 0.20502 0.00316 0.79855 0.0
H1980 H 0.20256 0.02395 0.78316 0.0
H1981 H 0.13277 -0.00424 0.83232 0.0
H1982 H 0.13273 0.01331 0.85148 0.0
H1983 H 0.15057 0.99453 0.8508 0.0
C1984 C 0.03451 0.18264 0.80923 0.0
C1985 C 0.04316 0.17268 0.82451 0.0
C1986 C 0.01445 0.18333 0.80742 0.0
C1987 C 0.00282 0.17401 0.82132 0.0
C1988 C 0.01144 0.16428 0.83697 0.0
C1989 C 0.03149 0.16361 0.83829 0.0
C1990 C 0.0057 0.19375 0.7905 0.0
C1991 C -0.00051 0.15423 0.85215 0.0
C1992 C 0.95032 0.18641 0.82832 0.0
C1993 C 0.94136 0.1704 0.81987 0.0
C1994 C 0.97039 0.18822 0.82825 0.0
C1995 C 0.98162 0.17375 0.81932 0.0
C1996 C 0.97256 0.15807 0.80991 0.0
C1997 C 0.9525 0.15652 0.8104 0.0
C1998 C 0.97958 0.20504 0.83859 0.0
C1999 C 0.98407 0.14251 0.80001 0.0
H2000 H 0.04343 0.18989 0.79866 0.0
H2001 H 0.03802 0.15558 0.84994 0.0
H2002 H -0.00272 0.18344 0.78163 0.0
H2003 H -0.00439 0.205 0.79563 0.0
H2004 H 0.01674 0.20068 0.7812 0.0
H2005 H 0.00841 0.14812 0.86389 0.0
H2006 H 0.98904 0.16447 0.85853 0.0
H2007 H 0.99112 0.14233 0.84548 0.0
H2008 H 0.94167 0.19707 0.83575 0.0
H2009 H 0.9455 0.14426 0.80367 0.0
H2010 H 0.99036 0.21218 0.8292 0.0
H2011 H 0.98726 0.19974 0.85152 0.0
H2012 H 0.96885 0.21594 0.84322 0.0
H2013 H 0.99466 0.14903 0.78996 0.0
H2014 H 0.97481 0.13232 0.79183 0.0
H2015 H 0.99225 0.13419 0.81088 0.0
C2016 C 0.83635 0.95454 0.8437 0.0
C2017 C 0.82715 0.94216 0.83069 0.0
C2018 C 0.83522 0.9746 0.84155 0.0
C2019 C 0.82445 0.9824 0.82615 0.0
C2020 C 0.81492 0.96996 0.8131 0.0
C2021 C 0.81649 0.94993 0.81546 0.0
C2022 C 0.84576 0.98744 0.85562 0.0
C2023 C 0.8031 0.9778 0.79667 0.0
C2024 C 0.80938 0.03448 0.83257 0.0
C2025 C 0.82357 0.04424 0.82199 0.0
C2026 C 0.80905 0.01428 0.83346 0.0
C2027 C 0.82336 0.00362 0.82368 0.0
C2028 C 0.83733 0.01333 0.81244 0.0
C2029 C 0.8372 0.03354 0.81165 0.0
C2030 C 0.79383 0.00438 0.84545 0.0
C2031 C 0.85283 0.00243 0.80183 0.0
H2032 H 0.84476 0.94851 0.85534 0.0
H2033 H 0.80923 0.94032 0.80551 0.0
H2034 H 0.85631 -0.00341 0.84781 0.0
H2035 H 0.83549 -0.00273 0.86287 0.0
H2036 H 0.85351 0.97906 0.86679 0.0
H2037 H 0.79632 0.96615 0.788 0.0
H2038 H 0.79164 0.98735 0.80234 0.0
H2039 H 0.81228 0.98667 0.78706 0.0
H2040 H 0.79893 0.04264 0.84079 0.0
H2041 H 0.84799 0.04098 0.80316 0.0
H2042 H 0.80062 -0.00269 0.85804 0.0
H2043 H 0.78661 0.99292 0.83693 0.0
H2044 H 0.78278 0.01462 0.85077 0.0
H2045 H 0.86209 0.99478 0.81232 0.0
H2046 H 0.86203 0.01208 0.79296 0.0
H2047 H 0.84633 0.99133 0.79232 0.0
C2048 C 0.67722 0.68317 0.45379 0.0
C2049 C 0.66482 0.66953 0.44547 0.0
C2050 C 0.67912 0.68452 0.47386 0.0
C2051 C 0.66837 0.67192 0.48578 0.0
C2052 C 0.65598 0.65803 0.47744 0.0
C2053 C 0.65438 0.65699 0.45738 0.0
C2054 C 0.69244 0.6995 0.48231 0.0
C2055 C 0.64434 0.64429 0.48969 0.0
C2056 C 0.68237 0.66105 0.53728 0.0
C2057 C 0.66872 0.6718 0.54752 0.0
C2058 C 0.68304 0.66165 0.51712 0.0
C2059 C 0.66975 0.67328 0.50704 0.0
C2060 C 0.65657 0.68487 0.51734 0.0
C2061 C 0.65621 0.68399 0.53748 0.0
C2062 C 0.69731 0.64909 0.50659 0.0
C2063 C 0.64224 0.69754 0.50707 0.0
H2064 H 0.6852 0.69298 0.44461 0.0
H2065 H 0.64504 0.64621 0.45099 0.0
H2066 H 0.68416 0.70965 0.49145 0.0
H2067 H 0.70323 0.69247 0.4917 0.0
H2068 H 0.7001 0.70791 0.47104 0.0
H2069 H 0.6355 0.63423 0.48091 0.0
H2070 H 0.65402 0.63567 0.49898 0.0
H2071 H 0.63464 0.65254 0.49933 0.0
H2072 H 0.69197 0.6515 0.54498 0.0
H2073 H 0.64586 0.69257 0.54539 0.0
H2074 H 0.70519 0.65764 0.49562 0.0
H2075 H 0.68955 0.6374 0.49891 0.0
H2076 H 0.70789 0.64243 0.51651 0.0
H2077 H 0.64963 0.70676 0.4963 0.0
H2078 H 0.63417 0.70695 0.51717 0.0
H2079 H 0.6318 0.68837 0.49916 0.0
C2080 C 0.33271 0.65158 0.53469 0.0
C2081 C 0.32146 0.66351 0.54646 0.0
C2082 C 0.33101 0.65213 0.51463 0.0
C2083 C 0.31763 0.66485 0.5061 0.0
C2084 C 0.30609 0.67683 0.51786 0.0
C2085 C 0.30816 0.67603 0.53794 0.0
C2086 C 0.34356 0.63911 0.50255 0.0
C2087 C 0.29168 0.69055 0.50921 0.0
C2088 C 0.32801 0.67741 0.45407 0.0
C2089 C 0.31619 0.66425 0.4443 0.0
C2090 C 0.32808 0.67827 0.47423 0.0
C2091 C 0.31603 0.66568 0.48482 0.0
C2092 C 0.30354 0.65287 0.47504 0.0
C2093 C 0.30379 0.65228 0.45486 0.0
C2094 C 0.34167 0.69207 0.48418 0.0
C2095 C 0.29039 0.63932 0.48588 0.0
H2096 H 0.34275 0.64161 0.54121 0.0
H2097 H 0.29955 0.6854 0.54696 0.0
H2098 H 0.33448 0.62948 0.49358 0.0
H2099 H 0.35248 0.6479 0.4926 0.0
H2100 H 0.35323 0.63005 0.51145 0.0
H2101 H 0.28348 0.69855 0.52037 0.0
H2102 H 0.29916 0.70114 0.49984 0.0
H2103 H 0.28139 0.6825 0.50002 0.0
H2104 H 0.33778 0.68653 0.44598 0.0
H2105 H 0.29445 0.64227 0.44733 0.0
H2106 H 0.35279 0.68379 0.49204 0.0
H2107 H 0.33381 0.70087 0.49494 0.0
H2108 H 0.34897 0.70193 0.47388 0.0
H2109 H 0.29909 0.62868 0.49398 0.0
H2110 H 0.28051 0.63135 0.47615 0.0
H2111 H 0.28172 0.64744 0.49655 0.0
C2112 C 0.32451 0.30311 0.45033 0.0
C2113 C 0.31079 0.31433 0.44075 0.0
C2114 C 0.32473 0.30192 0.47045 0.0
C2115 C 0.31096 0.31232 0.48123 0.0
C2116 C 0.29636 0.32273 0.47166 0.0
C2117 C 0.29644 0.32359 0.45149 0.0
C2118 C 0.34049 0.29061 0.48016 0.0
C2119 C 0.28137 0.33391 0.4827 0.0
C2120 C 0.3077 0.30262 0.53494 0.0
C2121 C 0.31962 0.31722 0.54226 0.0
C2122 C 0.30449 0.30092 0.51506 0.0
C2123 C 0.31332 0.31422 0.50236 0.0
C2124 C 0.32508 0.32918 0.50974 0.0
C2125 C 0.32811 0.33047 0.52961 0.0
C2126 C 0.29196 0.28475 0.50763 0.0
C2127 C 0.33464 0.34374 0.49665 0.0
H2128 H 0.33578 0.29608 0.44217 0.0
H2129 H 0.2856 0.33202 0.44413 0.0
H2130 H 0.35074 0.30073 0.4871 0.0
H2131 H 0.33445 0.28124 0.49163 0.0
H2132 H 0.34857 0.28146 0.46982 0.0
H2133 H 0.26969 0.33923 0.47322 0.0
H2134 H 0.27496 0.32484 0.4942 0.0
H2135 H 0.28824 0.34652 0.48979 0.0
H2136 H 0.3012 0.29232 0.54473 0.0
H2137 H 0.33704 0.34197 0.53529 0.0
H2138 H 0.3006 0.27497 0.49842 0.0
H2139 H 0.28027 0.29063 0.49854 0.0
H2140 H 0.28545 0.27615 0.51947 0.0
H2141 H 0.34456 0.33628 0.48661 0.0
H2142 H 0.34293 0.35478 0.50477 0.0
H2143 H 0.32367 0.35119 0.4878 0.0
C2144 C 0.68629 0.33735 0.45498 0.0
C2145 C 0.68032 0.32236 0.44276 0.0
C2146 C 0.68648 0.33497 0.475 0.0
C2147 C 0.68111 0.31697 0.483 0.0
C2148 C 0.67641 0.30136 0.47074 0.0
C2149 C 0.67584 0.30429 0.45077 0.0
C2150 C 0.69141 0.35205 0.48761 0.0
C2151 C 0.67106 0.28182 0.47876 0.0
C2152 C 0.69221 0.31139 0.53617 0.0
C2153 C 0.67442 0.31595 0.54441 0.0
C2154 C 0.69443 0.31068 0.51609 0.0
C2155 C 0.6786 0.3152 0.50414 0.0
C2156 C 0.66051 0.31939 0.51248 0.0
C2157 C 0.6586 0.31951 0.53254 0.0
C2158 C 0.71377 0.30562 0.50768 0.0
C2159 C 0.64338 0.32466 0.50024 0.0
H2160 H 0.69032 0.35119 0.44893 0.0
H2161 H 0.67108 0.29262 0.44153 0.0
H2162 H 0.6786 0.35625 0.49616 0.0
H2163 H 0.7029 0.34819 0.49793 0.0
H2164 H 0.69623 0.36475 0.47911 0.0
H2165 H 0.67059 0.27055 0.46739 0.0
H2166 H 0.68146 0.27736 0.48999 0.0
H2167 H 0.6567 0.2826 0.48565 0.0
H2168 H 0.7044 0.30858 0.54544 0.0
H2169 H 0.64491 0.32324 0.539 0.0
H2170 H 0.72015 0.31851 0.50067 0.0
H2171 H 0.71217 0.29435 0.49644 0.0
H2172 H 0.72393 0.30037 0.51882 0.0
H2173 H 0.64653 0.33807 0.49209 0.0
H2174 H 0.6302 0.32698 0.50897 0.0
H2175 H 0.64045 0.31312 0.48957 0.0
C2176 C 0.5356 0.66103 0.68699 0.0
C2177 C 0.54488 0.66685 0.67002 0.0
C2178 C 0.51551 0.66111 0.68834 0.0
C2179 C 0.50451 0.66708 0.67232 0.0
C2180 C 0.51381 0.6736 0.65539 0.0
C2181 C 0.53392 0.67343 0.65446 0.0
C2182 C 0.50606 0.6542 0.70667 0.0
C2183 C 0.50253 0.68001 0.63799 0.0
C2184 C 0.45448 0.64645 0.66615 0.0
C2185 C 0.44297 0.662 0.67183 0.0
C2186 C 0.47455 0.64785 0.66651 0.0
C2187 C 0.48329 0.66524 0.67272 0.0
C2188 C 0.47177 0.6809 0.67878 0.0
C2189 C 0.4517 0.6791 0.67822 0.0
C2190 C 0.48639 0.63087 0.65986 0.0
C2191 C 0.48064 0.69959 0.68559 0.0
H2192 H 0.54408 0.65618 0.69913 0.0
H2193 H 0.54105 0.67775 0.64125 0.0
H2194 H 0.49552 0.665 0.71186 0.0
H2195 H 0.49803 0.64064 0.70382 0.0
H2196 H 0.51665 0.65145 0.71829 0.0
H2197 H 0.51193 0.68588 0.62644 0.0
H2198 H 0.49432 0.66761 0.63208 0.0
H2199 H 0.49196 0.69123 0.64212 0.0
H2200 H 0.44779 0.63331 0.66093 0.0
H2201 H 0.44281 0.69109 0.68279 0.0
H2202 H 0.49652 0.62647 0.67135 0.0
H2203 H 0.49512 0.63505 0.64714 0.0
H2204 H 0.47736 0.61823 0.65593 0.0
H2205 H 0.49068 0.69679 0.69766 0.0
H2206 H 0.46966 0.71014 0.69046 0.0
H2207 H 0.48913 0.7062 0.67378 0.0
C2208 C 0.3067 0.5326 0.66172 0.0
C2209 C 0.31855 0.54266 0.67459 0.0
C2210 C 0.30642 0.51239 0.66144 0.0
C2211 C 0.31818 0.50207 0.67444 0.0
C2212 C 0.32932 0.51216 0.68822 0.0
C2213 C 0.32945 0.53238 0.68806 0.0
C2214 C 0.29445 0.50213 0.64646 0.0
C2215 C 0.34183 0.50162 0.70247 0.0
C2216 C 0.31004 0.44808 0.67901 0.0
C2217 C 0.32418 0.44086 0.66655 0.0
C2218 C 0.30804 0.46801 0.68199 0.0
C2219 C 0.32041 0.48093 0.6722 0.0
C2220 C 0.33483 0.47371 0.65977 0.0
C2221 C 0.33659 0.45377 0.65717 0.0
C2222 C 0.29258 0.47524 0.69542 0.0
C2223 C 0.34833 0.48706 0.64908 0.0
H2224 H 0.2984 0.54053 0.65118 0.0
H2225 H 0.33843 0.54018 0.69817 0.0
H2226 H 0.30406 0.49518 0.63577 0.0
H2227 H 0.2857 0.49057 0.65321 0.0
H2228 H 0.2847 0.51213 0.63872 0.0
H2229 H 0.34779 0.51144 0.71363 0.0
H2230 H 0.33356 0.48998 0.70969 0.0
H2231 H 0.35398 0.49472 0.69476 0.0
H2232 H 0.30031 0.43816 0.68617 0.0
H2233 H 0.3478 0.44826 0.64784 0.0
H2234 H 0.28211 0.48409 0.68728 0.0
H2235 H 0.29897 0.48468 0.70663 0.0
H2236 H 0.28471 0.46327 0.7026 0.0
H2237 H 0.33998 0.4969 0.63969 0.0
H2238 H 0.3588 0.47908 0.64 0.0
H2239 H 0.3564 0.49616 0.65944 0.0
C2240 C 0.53601 0.33542 0.66714 0.0
C2241 C 0.54767 0.31977 0.66208 0.0
C2242 C 0.51597 0.33364 0.6674 0.0
C2243 C 0.50741 0.31573 0.66255 0.0
C2244 C 0.51911 0.29974 0.65786 0.0
C2245 C 0.53915 0.30197 0.6576 0.0
C2246 C 0.50394 0.35107 0.67233 0.0
C2247 C 0.51046 0.2804 0.65277 0.0
C2248 C 0.45526 0.30993 0.67731 0.0
C2249 C 0.44577 0.31483 0.66022 0.0
C2250 C 0.47539 0.30946 0.67813 0.0
C2251 C 0.48619 0.31415 0.66149 0.0
C2252 C 0.47667 0.31857 0.64406 0.0
C2253 C 0.45655 0.31882 0.64363 0.0
C2254 C 0.48508 0.30451 0.69691 0.0
C2255 C 0.48771 0.32378 0.62606 0.0
H2256 H 0.54256 0.34927 0.67035 0.0
H2257 H 0.54818 0.28981 0.65386 0.0
H2258 H 0.49497 0.3551 0.65978 0.0
H2259 H 0.49404 0.34765 0.68439 0.0
H2260 H 0.51286 0.36373 0.67646 0.0
H2261 H 0.52157 0.26914 0.65055 0.0
H2262 H 0.50054 0.27558 0.66434 0.0
H2263 H 0.50186 0.2817 0.6394 0.0
H2264 H 0.44692 0.30665 0.6901 0.0
H2265 H 0.44926 0.32286 0.63046 0.0
H2266 H 0.49297 0.31731 0.7024 0.0
H2267 H 0.49578 0.29289 0.69466 0.0
H2268 H 0.47466 0.29977 0.70808 0.0
H2269 H 0.49585 0.33736 0.62846 0.0
H2270 H 0.47816 0.32577 0.61342 0.0
H2271 H 0.49833 0.31237 0.62262 0.0
C2272 C 0.66019 0.5363 0.68601 0.0
C2273 C 0.67404 0.54819 0.67733 0.0
C2274 C 0.66185 0.51618 0.68546 0.0
C2275 C 0.67793 0.50776 0.67627 0.0
C2276 C 0.69276 0.51968 0.6689 0.0
C2277 C 0.69058 0.53979 0.66941 0.0
C2278 C 0.64571 0.50397 0.69347 0.0
C2279 C 0.7103 0.5112 0.65933 0.0
C2280 C 0.68296 0.45355 0.6822 0.0
C2281 C 0.67389 0.44683 0.66544 0.0
C2282 C 0.68514 0.47341 0.68564 0.0
C2283 C 0.67785 0.48676 0.67211 0.0
C2284 C 0.66925 0.48005 0.65491 0.0
C2285 C 0.66754 0.46018 0.65171 0.0
C2286 C 0.69467 0.48008 0.70399 0.0
C2287 C 0.66125 0.49384 0.64012 0.0
H2288 H 0.64761 0.54273 0.69259 0.0
H2289 H 0.70134 0.54886 0.66262 0.0
H2290 H 0.63801 0.49678 0.68145 0.0
H2291 H 0.65147 0.49248 0.70292 0.0
H2292 H 0.6352 0.51265 0.70181 0.0
H2293 H 0.72183 0.52213 0.65732 0.0
H2294 H 0.71606 0.49905 0.66793 0.0
H2295 H 0.70629 0.5054 0.64499 0.0
H2296 H 0.68781 0.44332 0.69292 0.0
H2297 H 0.66096 0.4551 0.63851 0.0
H2298 H 0.68383 0.4868 0.71357 0.0
H2299 H 0.70572 0.49121 0.70081 0.0
H2300 H 0.70156 0.468 0.71186 0.0
H2301 H 0.64953 0.50249 0.64665 0.0
H2302 H 0.65546 0.48625 0.62728 0.0
H2303 H 0.67257 0.50406 0.63534 0.0
C2304 C 0.4554 0.32979 0.31412 0.0
C2305 C 0.44544 0.32458 0.33091 0.0
C2306 C 0.47552 0.32935 0.31342 0.0
C2307 C 0.48592 0.3238 0.32999 0.0
C2308 C 0.47599 0.31811 0.34684 0.0
C2309 C 0.45586 0.31844 0.34705 0.0
C2310 C 0.48566 0.33535 0.29513 0.0
C2311 C 0.48662 0.3122 0.36483 0.0
C2312 C 0.53848 0.3101 0.32539 0.0
C2313 C 0.54756 0.3274 0.33056 0.0
C2314 C 0.51837 0.30873 0.32495 0.0
C2315 C 0.5072 0.32498 0.33006 0.0
C2316 C 0.51634 0.34245 0.3354 0.0
C2317 C 0.53643 0.34348 0.33549 0.0
C2318 C 0.50908 0.28996 0.31893 0.0
C2319 C 0.5049 0.36001 0.3412 0.0
H2320 H 0.4475 0.33477 0.30165 0.0
H2321 H 0.44827 0.314 0.35996 0.0
H2322 H 0.49386 0.34886 0.29768 0.0
H2323 H 0.49613 0.32414 0.29072 0.0
H2324 H 0.47548 0.33781 0.28308 0.0
H2325 H 0.47675 0.30752 0.37652 0.0
H2326 H 0.49665 0.30023 0.36157 0.0
H2327 H 0.49538 0.32449 0.37016 0.0
H2328 H 0.54712 0.29772 0.32145 0.0
H2329 H 0.54349 0.35678 0.33972 0.0
H2330 H 0.49965 0.29239 0.3063 0.0
H2331 H 0.49986 0.28438 0.33074 0.0
H2332 H 0.51983 0.27875 0.31516 0.0
H2333 H 0.49533 0.36443 0.32924 0.0
H2334 H 0.51424 0.37244 0.34508 0.0
H2335 H 0.4956 0.35651 0.35372 0.0
C2336 C 0.67991 0.45758 0.30373 0.0
C2337 C 0.66811 0.44965 0.31803 0.0
C2338 C 0.68176 0.47766 0.30179 0.0
C2339 C 0.67195 0.4899 0.31481 0.0
C2340 C 0.66023 0.48186 0.32945 0.0
C2341 C 0.65828 0.4618 0.33073 0.0
C2342 C 0.69397 0.48577 0.28574 0.0
C2343 C 0.64984 0.49444 0.34385 0.0
C2344 C 0.68816 0.54128 0.32398 0.0
C2345 C 0.6735 0.55183 0.315 0.0
C2346 C 0.68828 0.52106 0.32343 0.0
C2347 C 0.67369 0.51117 0.31322 0.0
C2348 C 0.65964 0.52171 0.30302 0.0
C2349 C 0.65956 0.54189 0.30423 0.0
C2350 C 0.70337 0.51028 0.3347 0.0
C2351 C 0.64408 0.51166 0.29163 0.0
H2352 H 0.68742 0.44805 0.2939 0.0
H2353 H 0.64931 0.45554 0.34189 0.0
H2354 H 0.6851 0.49514 0.27636 0.0
H2355 H 0.70562 0.4949 0.29176 0.0
H2356 H 0.70053 0.47427 0.27675 0.0
H2357 H 0.64185 0.48584 0.35474 0.0
H2358 H 0.66027 0.5039 0.35142 0.0
H2359 H 0.63951 0.50394 0.33629 0.0
H2360 H 0.69929 0.54879 0.33192 0.0
H2361 H 0.648 0.54978 0.29742 0.0
H2362 H 0.71046 0.49935 0.32547 0.0
H2363 H 0.69644 0.50246 0.3468 0.0
H2364 H 0.71454 0.52007 0.34067 0.0
H2365 H 0.65034 0.50027 0.28234 0.0
H2366 H 0.63591 0.52186 0.28244 0.0
H2367 H 0.63386 0.50453 0.30165 0.0
C2368 C 0.53179 0.66882 0.34046 0.0
C2369 C 0.54317 0.66957 0.32383 0.0
C2370 C 0.51176 0.66991 0.33931 0.0
C2371 C 0.50292 0.67169 0.32106 0.0
C2372 C 0.51437 0.67315 0.30426 0.0
C2373 C 0.53444 0.67213 0.30586 0.0
C2374 C 0.50003 0.6685 0.35758 0.0
C2375 C 0.5054 0.675 0.28458 0.0
C2376 C 0.45253 0.6513 0.31927 0.0
C2377 C 0.44135 0.66796 0.32142 0.0
C2378 C 0.47259 0.65243 0.31829 0.0
C2379 C 0.4817 0.67065 0.31964 0.0
C2380 C 0.47052 0.6876 0.32119 0.0
C2381 C 0.45044 0.68605 0.32203 0.0
C2382 C 0.48406 0.63403 0.31661 0.0
C2383 C 0.47978 0.70727 0.32264 0.0
H2384 H 0.53858 0.66717 0.3544 0.0
H2385 H 0.54327 0.67264 0.29299 0.0
H2386 H 0.48992 0.6808 0.35858 0.0
H2387 H 0.4913 0.65508 0.35736 0.0
H2388 H 0.50916 0.66838 0.37068 0.0
H2389 H 0.51629 0.67764 0.27317 0.0
H2390 H 0.49748 0.66154 0.28103 0.0
H2391 H 0.49485 0.68696 0.28442 0.0
H2392 H 0.44564 0.63726 0.31905 0.0
H2393 H 0.44185 0.699 0.32338 0.0
H2394 H 0.49239 0.63172 0.33001 0.0
H2395 H 0.49451 0.63513 0.30459 0.0
H2396 H 0.47477 0.6212 0.31415 0.0
H2397 H 0.48789 0.70837 0.33634 0.0
H2398 H 0.46906 0.7191 0.32218 0.0
H2399 H 0.49023 0.70939 0.31075 0.0
C2400 C 0.32475 0.45293 0.30223 0.0
C2401 C 0.31516 0.44405 0.31765 0.0
C2402 C 0.32435 0.47302 0.2999 0.0
C2403 C 0.31426 0.48446 0.3134 0.0
C2404 C 0.30371 0.47551 0.32837 0.0
C2405 C 0.30422 0.4554 0.33026 0.0
C2406 C 0.33564 0.48206 0.28364 0.0
C2407 C 0.29276 0.48724 0.34306 0.0
C2408 C 0.33344 0.53443 0.32416 0.0
C2409 C 0.32016 0.5462 0.31465 0.0
C2410 C 0.33178 0.51431 0.32361 0.0
C2411 C 0.31649 0.50575 0.31322 0.0
C2412 C 0.3032 0.51752 0.3033 0.0
C2413 C 0.30513 0.53767 0.30422 0.0
C2414 C 0.34615 0.50224 0.33453 0.0
C2415 C 0.28686 0.50883 0.29192 0.0
H2416 H 0.33335 0.44428 0.2925 0.0
H2417 H 0.29644 0.44857 0.34196 0.0
H2418 H 0.32685 0.49302 0.27609 0.0
H2419 H 0.34844 0.48956 0.28956 0.0
H2420 H 0.34056 0.47117 0.273 0.0
H2421 H 0.28389 0.47804 0.35271 0.0
H2422 H 0.30304 0.49558 0.35202 0.0
H2423 H 0.28325 0.49777 0.3358 0.0
H2424 H 0.34489 0.54099 0.33249 0.0
H2425 H 0.29493 0.54677 0.29675 0.0
H2426 H 0.35326 0.49191 0.32463 0.0
H2427 H 0.33865 0.49366 0.34575 0.0
H2428 H 0.3574 0.51117 0.34159 0.0
H2429 H 0.29252 0.49849 0.28113 0.0
H2430 H 0.27826 0.51996 0.28435 0.0
H2431 H 0.27721 0.50061 0.30166 0.0
loop_
_geom_bond_atom_site_label_1
_geom_bond_atom_site_label_2
_geom_bond_distance
_geom_bond_site_symmetry_2
_ccdc_geom_bond_type
Li0 N17 1.990 . S
Li0 O60 1.956 . S
Li0 O61 1.970 . S
Li0 O62 1.961 . S
Li1 N25 1.990 . S
Li1 O60 1.970 . S
Li1 O61 1.956 . S
Li1 O63 1.961 . S
Li2 N47 1.990 . S
Li2 O60 1.961 . S
Li2 O62 1.956 . S
Li2 O63 1.970 . S
Li3 N53 1.990 . S
Li3 O61 1.961 . S
Li3 O62 1.970 . S
Li3 O63 1.956 . S
C4 C6 1.348 . S
C4 C7 1.356 . S
C4 O60 1.325 . S
N5 C8 1.314 . S
N5 C9 1.279 . S
C6 C4 1.348 . S
C6 C8 1.353 . S
C6 H64 0.929 . S
C7 C4 1.356 . S
C7 C9 1.358 . S
C7 H65 0.930 . S
C8 N5 1.314 . S
C8 C6 1.353 . S
C8 H66 0.930 . S
C9 N5 1.279 . S
C9 C7 1.358 . S
C9 H67 0.930 . S
C10 C13 1.348 . S
C10 C14 1.356 . S
C10 O61 1.325 . S
C11 N12 1.279 . S
C11 C14 1.358 . S
C11 H68 0.930 . S
N12 C11 1.279 . S
N12 C15 1.314 . S
C13 C10 1.348 . S
C13 C15 1.353 . S
C13 H69 0.929 . S
C14 C10 1.356 . S
C14 C11 1.358 . S
C14 H70 0.930 . S
C15 N12 1.314 . S
C15 C13 1.353 . S
C15 H71 0.930 . S
C16 N17 1.314 . S
C16 C21 1.353 . S
C16 H22 0.930 . S
N17 Li0 1.990 . S
N17 C16 1.314 . S
N17 C19 1.279 . S
C18 C19 1.358 . S
C18 C20 1.356 . S
C18 H72 0.930 . S
C19 N17 1.279 . S
C19 C18 1.358 . S
C19 H23 0.930 . S
C20 C18 1.356 . S
C20 C21 1.348 . S
C21 C16 1.353 . S
C21 C20 1.348 . S
C21 H73 0.929 . S
H22 C16 0.930 . S
H23 C19 0.930 . S
C24 N25 1.314 . S
C24 C26 1.353 . S
C24 H30 0.930 . S
N25 Li1 1.990 . S
N25 C24 1.314 . S
N25 C28 1.279 . S
C26 C24 1.353 . S
C26 C29 1.348 . S
C26 H74 0.929 . S
C27 C28 1.358 . S
C27 C29 1.356 . S
C27 H75 0.930 . S
C28 N25 1.279 . S
C28 C27 1.358 . S
C28 H31 0.930 . S
C29 C26 1.348 . S
C29 C27 1.356 . S
H30 C24 0.930 . S
H31 C28 0.930 . S
C32 C34 1.348 . S
C32 C35 1.356 . S
C32 O62 1.325 . S
N33 C36 1.314 . S
N33 C37 1.279 . S
C34 C32 1.348 . S
C34 C36 1.353 . S
C34 H76 0.929 . S
C35 C32 1.356 . S
C35 C37 1.358 . S
C35 H77 0.930 . S
C36 N33 1.314 . S
C36 C34 1.353 . S
C36 H78 0.930 . S
C37 N33 1.279 . S
C37 C35 1.358 . S
C37 H79 0.930 . S
C38 C39 1.348 . S
C38 C40 1.356 . S
C38 O63 1.325 . S
C39 C38 1.348 . S
C39 C41 1.353 . S
C39 H80 0.929 . S
C40 C38 1.356 . S
C40 C42 1.358 . S
C40 H81 0.930 . S
C41 C39 1.353 . S
C41 N43 1.314 . S
C41 H82 0.930 . S
C42 C40 1.358 . S
C42 N43 1.279 . S
C42 H83 0.930 . S
N43 C41 1.314 . S
N43 C42 1.279 . S
C44 C46 1.353 . S
C44 N47 1.314 . S
C44 H50 0.930 . S
C45 N47 1.279 . S
C45 C48 1.358 . S
C45 H51 0.930 . S
C46 C44 1.353 . S
C46 C49 1.348 . S
C46 H84 0.929 . S
N47 Li2 1.990 . S
N47 C44 1.314 . S
N47 C45 1.279 . S
C48 C45 1.358 . S
C48 C49 1.356 . S
C48 H85 0.930 . S
C49 C46 1.348 . S
C49 C48 1.356 . S
H50 C44 0.930 . S
H51 C45 0.930 . S
C52 N53 1.314 . S
C52 C54 1.353 . S
C52 H58 0.930 . S
N53 Li3 1.990 . S
N53 C52 1.314 . S
N53 C56 1.279 . S
C54 C52 1.353 . S
C54 C57 1.348 . S
C54 H86 0.929 . S
C55 C56 1.358 . S
C55 C57 1.356 . S
C55 H87 0.930 . S
C56 N53 1.279 . S
C56 C55 1.358 . S
C56 H59 0.930 . S
C57 C54 1.348 . S
C57 C55 1.356 . S
H58 C52 0.930 . S
H59 C56 0.930 . S
O60 Li0 1.956 . S
O60 Li1 1.970 . S
O60 Li2 1.961 . S
O60 C4 1.325 . S
O61 Li0 1.970 . S
O61 Li1 1.956 . S
O61 Li3 1.961 . S
O61 C10 1.325 . S
O62 Li0 1.961 . S
O62 Li2 1.956 . S
O62 Li3 1.970 . S
O62 C32 1.325 . S
O63 Li1 1.961 . S
O63 Li2 1.970 . S
O63 Li3 1.956 . S
O63 C38 1.325 . S
H64 C6 0.929 . S
H65 C7 0.930 . S
H66 C8 0.930 . S
H67 C9 0.930 . S
H68 C11 0.930 . S
H69 C13 0.929 . S
H70 C14 0.930 . S
H71 C15 0.930 . S
H72 C18 0.930 . S
H73 C21 0.929 . S
H74 C26 0.929 . S
H75 C27 0.930 . S
H76 C34 0.929 . S
H77 C35 0.930 . S
H78 C36 0.930 . S
H79 C37 0.930 . S
H80 C39 0.929 . S
H81 C40 0.930 . S
H82 C41 0.930 . S
H83 C42 0.930 . S
H84 C46 0.929 . S
H85 C48 0.930 . S
H86 C54 0.929 . S
H87 C55 0.930 . S
Li88 N105 1.990 . S
Li88 O148 1.956 . S
Li88 O149 1.970 . S
Li88 O150 1.961 . S
Li89 N113 1.990 . S
Li89 O148 1.970 . S
Li89 O149 1.956 . S
Li89 O151 1.961 . S
Li90 N135 1.990 . S
Li90 O148 1.961 . S
Li90 O150 1.956 . S
Li90 O151 1.970 . S
Li91 N141 1.990 . S
Li91 O149 1.961 . S
Li91 O150 1.970 . S
Li91 O151 1.956 . S
C92 C94 1.348 . S
C92 C95 1.356 . S
C92 O148 1.325 . S
N93 C96 1.314 . S
N93 C97 1.279 . S
C94 C92 1.348 . S
C94 C96 1.353 . S
C94 H152 0.929 . S
C95 C92 1.356 . S
C95 C97 1.358 . S
C95 H153 0.930 . S
C96 N93 1.314 . S
C96 C94 1.353 . S
C96 H154 0.930 . S
C97 N93 1.279 . S
C97 C95 1.358 . S
C97 H155 0.930 . S
C98 C101 1.348 . S
C98 C102 1.356 . S
C98 O149 1.325 . S
C99 N100 1.279 . S
C99 C102 1.358 . S
C99 H156 0.930 . S
N100 C99 1.279 . S
N100 C103 1.314 . S
C101 C98 1.348 . S
C101 C103 1.353 . S
C101 H157 0.929 . S
C102 C98 1.356 . S
C102 C99 1.358 . S
C102 H158 0.930 . S
C103 N100 1.314 . S
C103 C101 1.353 . S
C103 H159 0.930 . S
C104 N105 1.314 . S
C104 C109 1.353 . S
C104 H110 0.930 . S
N105 Li88 1.990 . S
N105 C104 1.314 . S
N105 C107 1.279 . S
C106 C107 1.358 . S
C106 C108 1.356 . S
C106 H160 0.930 . S
C107 N105 1.279 . S
C107 C106 1.358 . S
C107 H111 0.930 . S
C108 C106 1.356 . S
C108 C109 1.348 . S
C109 C104 1.353 . S
C109 C108 1.348 . S
C109 H161 0.929 . S
H110 C104 0.930 . S
H111 C107 0.930 . S
C112 N113 1.314 . S
C112 C114 1.353 . S
C112 H118 0.930 . S
N113 Li89 1.990 . S
N113 C112 1.314 . S
N113 C116 1.279 . S
C114 C112 1.353 . S
C114 C117 1.348 . S
C114 H162 0.929 . S
C115 C116 1.358 . S
C115 C117 1.356 . S
C115 H163 0.930 . S
C116 N113 1.279 . S
C116 C115 1.358 . S
C116 H119 0.930 . S
C117 C114 1.348 . S
C117 C115 1.356 . S
H118 C112 0.930 . S
H119 C116 0.930 . S
C120 C122 1.348 . S
C120 C123 1.356 . S
C120 O150 1.325 . S
N121 C124 1.314 . S
N121 C125 1.279 . S
C122 C120 1.348 . S
C122 C124 1.353 . S
C122 H164 0.929 . S
C123 C120 1.356 . S
C123 C125 1.358 . S
C123 H165 0.930 . S
C124 N121 1.314 . S
C124 C122 1.353 . S
C124 H166 0.930 . S
C125 N121 1.279 . S
C125 C123 1.358 . S
C125 H167 0.930 . S
C126 C127 1.348 . S
C126 C128 1.356 . S
C126 O151 1.325 . S
C127 C126 1.348 . S
C127 C129 1.353 . S
C127 H168 0.929 . S
C128 C126 1.356 . S
C128 C130 1.358 . S
C128 H169 0.930 . S
C129 C127 1.353 . S
C129 N131 1.314 . S
C129 H170 0.930 . S
C130 C128 1.358 . S
C130 N131 1.279 . S
C130 H171 0.930 . S
N131 C129 1.314 . S
N131 C130 1.279 . S
C132 C134 1.353 . S
C132 N135 1.314 . S
C132 H138 0.930 . S
C133 N135 1.279 . S
C133 C136 1.358 . S
C133 H139 0.930 . S
C134 C132 1.353 . S
C134 C137 1.348 . S
C134 H172 0.929 . S
N135 Li90 1.990 . S
N135 C132 1.314 . S
N135 C133 1.279 . S
C136 C133 1.358 . S
C136 C137 1.356 . S
C136 H173 0.930 . S
C137 C134 1.348 . S
C137 C136 1.356 . S
H138 C132 0.930 . S
H139 C133 0.930 . S
C140 N141 1.314 . S
C140 C142 1.353 . S
C140 H146 0.930 . S
N141 Li91 1.990 . S
N141 C140 1.314 . S
N141 C144 1.279 . S
C142 C140 1.353 . S
C142 C145 1.348 . S
C142 H174 0.929 . S
C143 C144 1.358 . S
C143 C145 1.356 . S
C143 H175 0.930 . S
C144 N141 1.279 . S
C144 C143 1.358 . S
C144 H147 0.930 . S
C145 C142 1.348 . S
C145 C143 1.356 . S
H146 C140 0.930 . S
H147 C144 0.930 . S
O148 Li88 1.956 . S
O148 Li89 1.970 . S
O148 Li90 1.961 . S
O148 C92 1.325 . S
O149 Li88 1.970 . S
O149 Li89 1.956 . S
O149 Li91 1.961 . S
O149 C98 1.325 . S
O150 Li88 1.961 . S
O150 Li90 1.956 . S
O150 Li91 1.970 . S
O150 C120 1.325 . S
O151 Li89 1.961 . S
O151 Li90 1.970 . S
O151 Li91 1.956 . S
O151 C126 1.325 . S
H152 C94 0.929 . S
H153 C95 0.930 . S
H154 C96 0.930 . S
H155 C97 0.930 . S
H156 C99 0.930 . S
H157 C101 0.929 . S
H158 C102 0.930 . S
H159 C103 0.930 . S
H160 C106 0.930 . S
H161 C109 0.929 . S
H162 C114 0.929 . S
H163 C115 0.930 . S
H164 C122 0.929 . S
H165 C123 0.930 . S
H166 C124 0.930 . S
H167 C125 0.930 . S
H168 C127 0.929 . S
H169 C128 0.930 . S
H170 C129 0.930 . S
H171 C130 0.930 . S
H172 C134 0.929 . S
H173 C136 0.930 . S
H174 C142 0.929 . S
H175 C143 0.930 . S
Li176 N193 1.990 . S
Li176 O236 1.956 . S
Li176 O237 1.970 . S
Li176 O238 1.961 . S
Li177 N201 1.990 . S
Li177 O236 1.970 . S
Li177 O237 1.956 . S
Li177 O239 1.961 . S
Li178 N223 1.990 . S
Li178 O236 1.961 . S
Li178 O238 1.956 . S
Li178 O239 1.970 . S
Li179 N229 1.990 . S
Li179 O237 1.961 . S
Li179 O238 1.970 . S
Li179 O239 1.956 . S
C180 C182 1.348 . S
C180 C183 1.356 . S
C180 O236 1.325 . S
N181 C184 1.314 . S
N181 C185 1.279 . S
C182 C180 1.348 . S
C182 C184 1.353 . S
C182 H240 0.929 . S
C183 C180 1.356 . S
C183 C185 1.358 . S
C183 H241 0.930 . S
C184 N181 1.314 . S
C184 C182 1.353 . S
C184 H242 0.930 . S
C185 N181 1.279 . S
C185 C183 1.358 . S
C185 H243 0.930 . S
C186 C189 1.348 . S
C186 C190 1.356 . S
C186 O237 1.325 . S
C187 N188 1.279 . S
C187 C190 1.358 . S
C187 H244 0.930 . S
N188 C187 1.279 . S
N188 C191 1.314 . S
C189 C186 1.348 . S
C189 C191 1.353 . S
C189 H245 0.929 . S
C190 C186 1.356 . S
C190 C187 1.358 . S
C190 H246 0.930 . S
C191 N188 1.314 . S
C191 C189 1.353 . S
C191 H247 0.930 . S
C192 N193 1.314 . S
C192 C197 1.353 . S
C192 H198 0.930 . S
N193 Li176 1.990 . S
N193 C192 1.314 . S
N193 C195 1.279 . S
C194 C195 1.358 . S
C194 C196 1.356 . S
C194 H248 0.930 . S
C195 N193 1.279 . S
C195 C194 1.358 . S
C195 H199 0.930 . S
C196 C194 1.356 . S
C196 C197 1.348 . S
C197 C192 1.353 . S
C197 C196 1.348 . S
C197 H249 0.929 . S
H198 C192 0.930 . S
H199 C195 0.930 . S
C200 N201 1.314 . S
C200 C202 1.353 . S
C200 H206 0.930 . S
N201 Li177 1.990 . S
N201 C200 1.314 . S
N201 C204 1.279 . S
C202 C200 1.353 . S
C202 C205 1.348 . S
C202 H250 0.929 . S
C203 C204 1.358 . S
C203 C205 1.356 . S
C203 H251 0.930 . S
C204 N201 1.279 . S
C204 C203 1.358 . S
C204 H207 0.930 . S
C205 C202 1.348 . S
C205 C203 1.356 . S
H206 C200 0.930 . S
H207 C204 0.930 . S
C208 C210 1.348 . S
C208 C211 1.356 . S
C208 O238 1.325 . S
N209 C212 1.314 . S
N209 C213 1.279 . S
C210 C208 1.348 . S
C210 C212 1.353 . S
C210 H252 0.929 . S
C211 C208 1.356 . S
C211 C213 1.358 . S
C211 H253 0.930 . S
C212 N209 1.314 . S
C212 C210 1.353 . S
C212 H254 0.930 . S
C213 N209 1.279 . S
C213 C211 1.358 . S
C213 H255 0.930 . S
C214 C215 1.348 . S
C214 C216 1.356 . S
C214 O239 1.325 . S
C215 C214 1.348 . S
C215 C217 1.353 . S
C215 H256 0.929 . S
C216 C214 1.356 . S
C216 C218 1.358 . S
C216 H257 0.930 . S
C217 C215 1.353 . S
C217 N219 1.314 . S
C217 H258 0.930 . S
C218 C216 1.358 . S
C218 N219 1.279 . S
C218 H259 0.930 . S
N219 C217 1.314 . S
N219 C218 1.279 . S
C220 C222 1.353 . S
C220 N223 1.314 . S
C220 H226 0.930 . S
C221 N223 1.279 . S
C221 C224 1.358 . S
C221 H227 0.930 . S
C222 C220 1.353 . S
C222 C225 1.348 . S
C222 H260 0.929 . S
N223 Li178 1.990 . S
N223 C220 1.314 . S
N223 C221 1.279 . S
C224 C221 1.358 . S
C224 C225 1.356 . S
C224 H261 0.930 . S
C225 C222 1.348 . S
C225 C224 1.356 . S
H226 C220 0.930 . S
H227 C221 0.930 . S
C228 N229 1.314 . S
C228 C230 1.353 . S
C228 H234 0.930 . S
N229 Li179 1.990 . S
N229 C228 1.314 . S
N229 C232 1.279 . S
C230 C228 1.353 . S
C230 C233 1.348 . S
C230 H262 0.929 . S
C231 C232 1.358 . S
C231 C233 1.356 . S
C231 H263 0.930 . S
C232 N229 1.279 . S
C232 C231 1.358 . S
C232 H235 0.930 . S
C233 C230 1.348 . S
C233 C231 1.356 . S
H234 C228 0.930 . S
H235 C232 0.930 . S
O236 Li176 1.956 . S
O236 Li177 1.970 . S
O236 Li178 1.961 . S
O236 C180 1.325 . S
O237 Li176 1.970 . S
O237 Li177 1.956 . S
O237 Li179 1.961 . S
O237 C186 1.325 . S
O238 Li176 1.961 . S
O238 Li178 1.956 . S
O238 Li179 1.970 . S
O238 C208 1.325 . S
O239 Li177 1.961 . S
O239 Li178 1.970 . S
O239 Li179 1.956 . S
O239 C214 1.325 . S
H240 C182 0.929 . S
H241 C183 0.930 . S
H242 C184 0.930 . S
H243 C185 0.930 . S
H244 C187 0.930 . S
H245 C189 0.929 . S
H246 C190 0.930 . S
H247 C191 0.930 . S
H248 C194 0.930 . S
H249 C197 0.929 . S
H250 C202 0.929 . S
H251 C203 0.930 . S
H252 C210 0.929 . S
H253 C211 0.930 . S
H254 C212 0.930 . S
H255 C213 0.930 . S
H256 C215 0.929 . S
H257 C216 0.930 . S
H258 C217 0.930 . S
H259 C218 0.930 . S
H260 C222 0.929 . S
H261 C224 0.930 . S
H262 C230 0.929 . S
H263 C231 0.930 . S
Li264 N281 1.990 . S
Li264 O324 1.956 . S
Li264 O325 1.970 . S
Li264 O326 1.961 . S
Li265 N289 1.990 . S
Li265 O324 1.970 . S
Li265 O325 1.956 . S
Li265 O327 1.961 . S
Li266 N311 1.990 . S
Li266 O324 1.961 . S
Li266 O326 1.956 . S
Li266 O327 1.970 . S
Li267 N317 1.990 . S
Li267 O325 1.961 . S
Li267 O326 1.970 . S
Li267 O327 1.956 . S
C268 C270 1.348 . S
C268 C271 1.356 . S
C268 O324 1.325 . S
N269 C272 1.314 . S
N269 C273 1.279 . S
C270 C268 1.348 . S
C270 C272 1.353 . S
C270 H328 0.929 . S
C271 C268 1.356 . S
C271 C273 1.358 . S
C271 H329 0.930 . S
C272 N269 1.314 . S
C272 C270 1.353 . S
C272 H330 0.930 . S
C273 N269 1.279 . S
C273 C271 1.358 . S
C273 H331 0.930 . S
C274 C277 1.348 . S
C274 C278 1.356 . S
C274 O325 1.325 . S
C275 N276 1.279 . S
C275 C278 1.358 . S
C275 H332 0.930 . S
N276 C275 1.279 . S
N276 C279 1.314 . S
C277 C274 1.348 . S
C277 C279 1.353 . S
C277 H333 0.929 . S
C278 C274 1.356 . S
C278 C275 1.358 . S
C278 H334 0.930 . S
C279 N276 1.314 . S
C279 C277 1.353 . S
C279 H335 0.930 . S
C280 N281 1.314 . S
C280 C285 1.353 . S
C280 H286 0.930 . S
N281 Li264 1.990 . S
N281 C280 1.314 . S
N281 C283 1.279 . S
C282 C283 1.358 . S
C282 C284 1.356 . S
C282 H336 0.930 . S
C283 N281 1.279 . S
C283 C282 1.358 . S
C283 H287 0.930 . S
C284 C282 1.356 . S
C284 C285 1.348 . S
C285 C280 1.353 . S
C285 C284 1.348 . S
C285 H337 0.929 . S
H286 C280 0.930 . S
H287 C283 0.930 . S
C288 N289 1.314 . S
C288 C290 1.353 . S
C288 H294 0.930 . S
N289 Li265 1.990 . S
N289 C288 1.314 . S
N289 C292 1.279 . S
C290 C288 1.353 . S
C290 C293 1.348 . S
C290 H338 0.929 . S
C291 C292 1.358 . S
C291 C293 1.356 . S
C291 H339 0.930 . S
C292 N289 1.279 . S
C292 C291 1.358 . S
C292 H295 0.930 . S
C293 C290 1.348 . S
C293 C291 1.356 . S
H294 C288 0.930 . S
H295 C292 0.930 . S
C296 C298 1.348 . S
C296 C299 1.356 . S
C296 O326 1.325 . S
N297 C300 1.314 . S
N297 C301 1.279 . S
C298 C296 1.348 . S
C298 C300 1.353 . S
C298 H340 0.929 . S
C299 C296 1.356 . S
C299 C301 1.358 . S
C299 H341 0.930 . S
C300 N297 1.314 . S
C300 C298 1.353 . S
C300 H342 0.930 . S
C301 N297 1.279 . S
C301 C299 1.358 . S
C301 H343 0.930 . S
C302 C303 1.348 . S
C302 C304 1.356 . S
C302 O327 1.325 . S
C303 C302 1.348 . S
C303 C305 1.353 . S
C303 H344 0.929 . S
C304 C302 1.356 . S
C304 C306 1.358 . S
C304 H345 0.930 . S
C305 C303 1.353 . S
C305 N307 1.314 . S
C305 H346 0.930 . S
C306 C304 1.358 . S
C306 N307 1.279 . S
C306 H347 0.930 . S
N307 C305 1.314 . S
N307 C306 1.279 . S
C308 C310 1.353 . S
C308 N311 1.314 . S
C308 H314 0.930 . S
C309 N311 1.279 . S
C309 C312 1.358 . S
C309 H315 0.930 . S
C310 C308 1.353 . S
C310 C313 1.348 . S
C310 H348 0.929 . S
N311 Li266 1.990 . S
N311 C308 1.314 . S
N311 C309 1.279 . S
C312 C309 1.358 . S
C312 C313 1.356 . S
C312 H349 0.930 . S
C313 C310 1.348 . S
C313 C312 1.356 . S
H314 C308 0.930 . S
H315 C309 0.930 . S
C316 N317 1.314 . S
C316 C318 1.353 . S
C316 H322 0.930 . S
N317 Li267 1.990 . S
N317 C316 1.314 . S
N317 C320 1.279 . S
C318 C316 1.353 . S
C318 C321 1.348 . S
C318 H350 0.929 . S
C319 C320 1.358 . S
C319 C321 1.356 . S
C319 H351 0.930 . S
C320 N317 1.279 . S
C320 C319 1.358 . S
C320 H323 0.930 . S
C321 C318 1.348 . S
C321 C319 1.356 . S
H322 C316 0.930 . S
H323 C320 0.930 . S
O324 Li264 1.956 . S
O324 Li265 1.970 . S
O324 Li266 1.961 . S
O324 C268 1.325 . S
O325 Li264 1.970 . S
O325 Li265 1.956 . S
O325 Li267 1.961 . S
O325 C274 1.325 . S
O326 Li264 1.961 . S
O326 Li266 1.956 . S
O326 Li267 1.970 . S
O326 C296 1.325 . S
O327 Li265 1.961 . S
O327 Li266 1.970 . S
O327 Li267 1.956 . S
O327 C302 1.325 . S
H328 C270 0.929 . S
H329 C271 0.930 . S
H330 C272 0.930 . S
H331 C273 0.930 . S
H332 C275 0.930 . S
H333 C277 0.929 . S
H334 C278 0.930 . S
H335 C279 0.930 . S
H336 C282 0.930 . S
H337 C285 0.929 . S
H338 C290 0.929 . S
H339 C291 0.930 . S
H340 C298 0.929 . S
H341 C299 0.930 . S
H342 C300 0.930 . S
H343 C301 0.930 . S
H344 C303 0.929 . S
H345 C304 0.930 . S
H346 C305 0.930 . S
H347 C306 0.930 . S
H348 C310 0.929 . S
H349 C312 0.930 . S
H350 C318 0.929 . S
H351 C319 0.930 . S
Li352 N369 1.990 . S
Li352 O412 1.956 . S
Li352 O413 1.970 . S
Li352 O414 1.961 . S
Li353 N377 1.990 . S
Li353 O412 1.970 . S
Li353 O413 1.956 . S
Li353 O415 1.961 . S
Li354 N399 1.990 . S
Li354 O412 1.961 . S
Li354 O414 1.956 . S
Li354 O415 1.970 . S
Li355 N405 1.990 . S
Li355 O413 1.961 . S
Li355 O414 1.970 . S
Li355 O415 1.956 . S
C356 C358 1.348 . S
C356 C359 1.356 . S
C356 O412 1.325 . S
N357 C360 1.314 . S
N357 C361 1.279 . S
C358 C356 1.348 . S
C358 C360 1.353 . S
C358 H416 0.929 . S
C359 C356 1.356 . S
C359 C361 1.358 . S
C359 H417 0.930 . S
C360 N357 1.314 . S
C360 C358 1.353 . S
C360 H418 0.930 . S
C361 N357 1.279 . S
C361 C359 1.358 . S
C361 H419 0.930 . S
C362 C365 1.348 . S
C362 C366 1.356 . S
C362 O413 1.325 . S
C363 N364 1.279 . S
C363 C366 1.358 . S
C363 H420 0.930 . S
N364 C363 1.279 . S
N364 C367 1.314 . S
C365 C362 1.348 . S
C365 C367 1.353 . S
C365 H421 0.929 . S
C366 C362 1.356 . S
C366 C363 1.358 . S
C366 H422 0.930 . S
C367 N364 1.314 . S
C367 C365 1.353 . S
C367 H423 0.930 . S
C368 N369 1.314 . S
C368 C373 1.353 . S
C368 H374 0.930 . S
N369 Li352 1.990 . S
N369 C368 1.314 . S
N369 C371 1.279 . S
C370 C371 1.358 . S
C370 C372 1.356 . S
C370 H424 0.930 . S
C371 N369 1.279 . S
C371 C370 1.358 . S
C371 H375 0.930 . S
C372 C370 1.356 . S
C372 C373 1.348 . S
C373 C368 1.353 . S
C373 C372 1.348 . S
C373 H425 0.929 . S
H374 C368 0.930 . S
H375 C371 0.930 . S
C376 N377 1.314 . S
C376 C378 1.353 . S
C376 H382 0.930 . S
N377 Li353 1.990 . S
N377 C376 1.314 . S
N377 C380 1.279 . S
C378 C376 1.353 . S
C378 C381 1.348 . S
C378 H426 0.929 . S
C379 C380 1.358 . S
C379 C381 1.356 . S
C379 H427 0.930 . S
C380 N377 1.279 . S
C380 C379 1.358 . S
C380 H383 0.930 . S
C381 C378 1.348 . S
C381 C379 1.356 . S
H382 C376 0.930 . S
H383 C380 0.930 . S
C384 C386 1.348 . S
C384 C387 1.356 . S
C384 O414 1.325 . S
N385 C388 1.314 . S
N385 C389 1.279 . S
C386 C384 1.348 . S
C386 C388 1.353 . S
C386 H428 0.929 . S
C387 C384 1.356 . S
C387 C389 1.358 . S
C387 H429 0.930 . S
C388 N385 1.314 . S
C388 C386 1.353 . S
C388 H430 0.930 . S
C389 N385 1.279 . S
C389 C387 1.358 . S
C389 H431 0.930 . S
C390 C391 1.348 . S
C390 C392 1.356 . S
C390 O415 1.325 . S
C391 C390 1.348 . S
C391 C393 1.353 . S
C391 H432 0.929 . S
C392 C390 1.356 . S
C392 C394 1.358 . S
C392 H433 0.930 . S
C393 C391 1.353 . S
C393 N395 1.314 . S
C393 H434 0.930 . S
C394 C392 1.358 . S
C394 N395 1.279 . S
C394 H435 0.930 . S
N395 C393 1.314 . S
N395 C394 1.279 . S
C396 C398 1.353 . S
C396 N399 1.314 . S
C396 H402 0.930 . S
C397 N399 1.279 . S
C397 C400 1.358 . S
C397 H403 0.930 . S
C398 C396 1.353 . S
C398 C401 1.348 . S
C398 H436 0.929 . S
N399 Li354 1.990 . S
N399 C396 1.314 . S
N399 C397 1.279 . S
C400 C397 1.358 . S
C400 C401 1.356 . S
C400 H437 0.930 . S
C401 C398 1.348 . S
C401 C400 1.356 . S
H402 C396 0.930 . S
H403 C397 0.930 . S
C404 N405 1.314 . S
C404 C406 1.353 . S
C404 H410 0.930 . S
N405 Li355 1.990 . S
N405 C404 1.314 . S
N405 C408 1.279 . S
C406 C404 1.353 . S
C406 C409 1.348 . S
C406 H438 0.929 . S
C407 C408 1.358 . S
C407 C409 1.356 . S
C407 H439 0.930 . S
C408 N405 1.279 . S
C408 C407 1.358 . S
C408 H411 0.930 . S
C409 C406 1.348 . S
C409 C407 1.356 . S
H410 C404 0.930 . S
H411 C408 0.930 . S
O412 Li352 1.956 . S
O412 Li353 1.970 . S
O412 Li354 1.961 . S
O412 C356 1.325 . S
O413 Li352 1.970 . S
O413 Li353 1.956 . S
O413 Li355 1.961 . S
O413 C362 1.325 . S
O414 Li352 1.961 . S
O414 Li354 1.956 . S
O414 Li355 1.970 . S
O414 C384 1.325 . S
O415 Li353 1.961 . S
O415 Li354 1.970 . S
O415 Li355 1.956 . S
O415 C390 1.325 . S
H416 C358 0.929 . S
H417 C359 0.930 . S
H418 C360 0.930 . S
H419 C361 0.930 . S
H420 C363 0.930 . S
H421 C365 0.929 . S
H422 C366 0.930 . S
H423 C367 0.930 . S
H424 C370 0.930 . S
H425 C373 0.929 . S
H426 C378 0.929 . S
H427 C379 0.930 . S
H428 C386 0.929 . S
H429 C387 0.930 . S
H430 C388 0.930 . S
H431 C389 0.930 . S
H432 C391 0.929 . S
H433 C392 0.930 . S
H434 C393 0.930 . S
H435 C394 0.930 . S
H436 C398 0.929 . S
H437 C400 0.930 . S
H438 C406 0.929 . S
H439 C407 0.930 . S
Li440 N457 1.990 . S
Li440 O500 1.956 . S
Li440 O501 1.970 . S
Li440 O502 1.961 . S
Li441 N465 1.990 . S
Li441 O500 1.970 . S
Li441 O501 1.956 . S
Li441 O503 1.961 . S
Li442 N487 1.990 . S
Li442 O500 1.961 . S
Li442 O502 1.956 . S
Li442 O503 1.970 . S
Li443 N493 1.990 . S
Li443 O501 1.961 . S
Li443 O502 1.970 . S
Li443 O503 1.956 . S
C444 C446 1.348 . S
C444 C447 1.356 . S
C444 O500 1.325 . S
N445 C448 1.314 . S
N445 C449 1.279 . S
C446 C444 1.348 . S
C446 C448 1.353 . S
C446 H504 0.929 . S
C447 C444 1.356 . S
C447 C449 1.358 . S
C447 H505 0.930 . S
C448 N445 1.314 . S
C448 C446 1.353 . S
C448 H506 0.930 . S
C449 N445 1.279 . S
C449 C447 1.358 . S
C449 H507 0.930 . S
C450 C453 1.348 . S
C450 C454 1.356 . S
C450 O501 1.325 . S
C451 N452 1.279 . S
C451 C454 1.358 . S
C451 H508 0.930 . S
N452 C451 1.279 . S
N452 C455 1.314 . S
C453 C450 1.348 . S
C453 C455 1.353 . S
C453 H509 0.929 . S
C454 C450 1.356 . S
C454 C451 1.358 . S
C454 H510 0.930 . S
C455 N452 1.314 . S
C455 C453 1.353 . S
C455 H511 0.930 . S
C456 N457 1.314 . S
C456 C461 1.353 . S
C456 H462 0.930 . S
N457 Li440 1.990 . S
N457 C456 1.314 . S
N457 C459 1.279 . S
C458 C459 1.358 . S
C458 C460 1.356 . S
C458 H512 0.930 . S
C459 N457 1.279 . S
C459 C458 1.358 . S
C459 H463 0.930 . S
C460 C458 1.356 . S
C460 C461 1.348 . S
C461 C456 1.353 . S
C461 C460 1.348 . S
C461 H513 0.929 . S
H462 C456 0.930 . S
H463 C459 0.930 . S
C464 N465 1.314 . S
C464 C466 1.353 . S
C464 H470 0.930 . S
N465 Li441 1.990 . S
N465 C464 1.314 . S
N465 C468 1.279 . S
C466 C464 1.353 . S
C466 C469 1.348 . S
C466 H514 0.929 . S
C467 C468 1.358 . S
C467 C469 1.356 . S
C467 H515 0.930 . S
C468 N465 1.279 . S
C468 C467 1.358 . S
C468 H471 0.930 . S
C469 C466 1.348 . S
C469 C467 1.356 . S
H470 C464 0.930 . S
H471 C468 0.930 . S
C472 C474 1.348 . S
C472 C475 1.356 . S
C472 O502 1.325 . S
N473 C476 1.314 . S
N473 C477 1.279 . S
C474 C472 1.348 . S
C474 C476 1.353 . S
C474 H516 0.929 . S
C475 C472 1.356 . S
C475 C477 1.358 . S
C475 H517 0.930 . S
C476 N473 1.314 . S
C476 C474 1.353 . S
C476 H518 0.930 . S
C477 N473 1.279 . S
C477 C475 1.358 . S
C477 H519 0.930 . S
C478 C479 1.348 . S
C478 C480 1.356 . S
C478 O503 1.325 . S
C479 C478 1.348 . S
C479 C481 1.353 . S
C479 H520 0.929 . S
C480 C478 1.356 . S
C480 C482 1.358 . S
C480 H521 0.930 . S
C481 C479 1.353 . S
C481 N483 1.314 . S
C481 H522 0.930 . S
C482 C480 1.358 . S
C482 N483 1.279 . S
C482 H523 0.930 . S
N483 C481 1.314 . S
N483 C482 1.279 . S
C484 C486 1.353 . S
C484 N487 1.314 . S
C484 H490 0.930 . S
C485 N487 1.279 . S
C485 C488 1.358 . S
C485 H491 0.930 . S
C486 C484 1.353 . S
C486 C489 1.348 . S
C486 H524 0.929 . S
N487 Li442 1.990 . S
N487 C484 1.314 . S
N487 C485 1.279 . S
C488 C485 1.358 . S
C488 C489 1.356 . S
C488 H525 0.930 . S
C489 C486 1.348 . S
C489 C488 1.356 . S
H490 C484 0.930 . S
H491 C485 0.930 . S
C492 N493 1.314 . S
C492 C494 1.353 . S
C492 H498 0.930 . S
N493 Li443 1.990 . S
N493 C492 1.314 . S
N493 C496 1.279 . S
C494 C492 1.353 . S
C494 C497 1.348 . S
C494 H526 0.929 . S
C495 C496 1.358 . S
C495 C497 1.356 . S
C495 H527 0.930 . S
C496 N493 1.279 . S
C496 C495 1.358 . S
C496 H499 0.930 . S
C497 C494 1.348 . S
C497 C495 1.356 . S
H498 C492 0.930 . S
H499 C496 0.930 . S
O500 Li440 1.956 . S
O500 Li441 1.970 . S
O500 Li442 1.961 . S
O500 C444 1.325 . S
O501 Li440 1.970 . S
O501 Li441 1.956 . S
O501 Li443 1.961 . S
O501 C450 1.325 . S
O502 Li440 1.961 . S
O502 Li442 1.956 . S
O502 Li443 1.970 . S
O502 C472 1.325 . S
O503 Li441 1.961 . S
O503 Li442 1.970 . S
O503 Li443 1.956 . S
O503 C478 1.325 . S
H504 C446 0.929 . S
H505 C447 0.930 . S
H506 C448 0.930 . S
H507 C449 0.930 . S
H508 C451 0.930 . S
H509 C453 0.929 . S
H510 C454 0.930 . S
H511 C455 0.930 . S
H512 C458 0.930 . S
H513 C461 0.929 . S
H514 C466 0.929 . S
H515 C467 0.930 . S
H516 C474 0.929 . S
H517 C475 0.930 . S
H518 C476 0.930 . S
H519 C477 0.930 . S
H520 C479 0.929 . S
H521 C480 0.930 . S
H522 C481 0.930 . S
H523 C482 0.930 . S
H524 C486 0.929 . S
H525 C488 0.930 . S
H526 C494 0.929 . S
H527 C495 0.930 . S
Li528 N545 1.990 . S
Li528 O588 1.956 . S
Li528 O589 1.970 . S
Li528 O590 1.961 . S
Li529 N553 1.990 . S
Li529 O588 1.970 . S
Li529 O589 1.956 . S
Li529 O591 1.961 . S
Li530 N575 1.990 . S
Li530 O588 1.961 . S
Li530 O590 1.956 . S
Li530 O591 1.970 . S
Li531 N581 1.990 . S
Li531 O589 1.961 . S
Li531 O590 1.970 . S
Li531 O591 1.956 . S
C532 C534 1.348 . S
C532 C535 1.356 . S
C532 O588 1.325 . S
N533 C536 1.314 . S
N533 C537 1.279 . S
C534 C532 1.348 . S
C534 C536 1.353 . S
C534 H592 0.929 . S
C535 C532 1.356 . S
C535 C537 1.358 . S
C535 H593 0.930 . S
C536 N533 1.314 . S
C536 C534 1.353 . S
C536 H594 0.930 . S
C537 N533 1.279 . S
C537 C535 1.358 . S
C537 H595 0.930 . S
C538 C541 1.348 . S
C538 C542 1.356 . S
C538 O589 1.325 . S
C539 N540 1.279 . S
C539 C542 1.358 . S
C539 H596 0.930 . S
N540 C539 1.279 . S
N540 C543 1.314 . S
C541 C538 1.348 . S
C541 C543 1.353 . S
C541 H597 0.929 . S
C542 C538 1.356 . S
C542 C539 1.358 . S
C542 H598 0.930 . S
C543 N540 1.314 . S
C543 C541 1.353 . S
C543 H599 0.930 . S
C544 N545 1.314 . S
C544 C549 1.353 . S
C544 H550 0.930 . S
N545 Li528 1.990 . S
N545 C544 1.314 . S
N545 C547 1.279 . S
C546 C547 1.358 . S
C546 C548 1.356 . S
C546 H600 0.930 . S
C547 N545 1.279 . S
C547 C546 1.358 . S
C547 H551 0.930 . S
C548 C546 1.356 . S
C548 C549 1.348 . S
C549 C544 1.353 . S
C549 C548 1.348 . S
C549 H601 0.929 . S
H550 C544 0.930 . S
H551 C547 0.930 . S
C552 N553 1.314 . S
C552 C554 1.353 . S
C552 H558 0.930 . S
N553 Li529 1.990 . S
N553 C552 1.314 . S
N553 C556 1.279 . S
C554 C552 1.353 . S
C554 C557 1.348 . S
C554 H602 0.929 . S
C555 C556 1.358 . S
C555 C557 1.356 . S
C555 H603 0.930 . S
C556 N553 1.279 . S
C556 C555 1.358 . S
C556 H559 0.930 . S
C557 C554 1.348 . S
C557 C555 1.356 . S
H558 C552 0.930 . S
H559 C556 0.930 . S
C560 C562 1.348 . S
C560 C563 1.356 . S
C560 O590 1.325 . S
N561 C564 1.314 . S
N561 C565 1.279 . S
C562 C560 1.348 . S
C562 C564 1.353 . S
C562 H604 0.929 . S
C563 C560 1.356 . S
C563 C565 1.358 . S
C563 H605 0.930 . S
C564 N561 1.314 . S
C564 C562 1.353 . S
C564 H606 0.930 . S
C565 N561 1.279 . S
C565 C563 1.358 . S
C565 H607 0.930 . S
C566 C567 1.348 . S
C566 C568 1.356 . S
C566 O591 1.325 . S
C567 C566 1.348 . S
C567 C569 1.353 . S
C567 H608 0.929 . S
C568 C566 1.356 . S
C568 C570 1.358 . S
C568 H609 0.930 . S
C569 C567 1.353 . S
C569 N571 1.314 . S
C569 H610 0.930 . S
C570 C568 1.358 . S
C570 N571 1.279 . S
C570 H611 0.930 . S
N571 C569 1.314 . S
N571 C570 1.279 . S
C572 C574 1.353 . S
C572 N575 1.314 . S
C572 H578 0.930 . S
C573 N575 1.279 . S
C573 C576 1.358 . S
C573 H579 0.930 . S
C574 C572 1.353 . S
C574 C577 1.348 . S
C574 H612 0.929 . S
N575 Li530 1.990 . S
N575 C572 1.314 . S
N575 C573 1.279 . S
C576 C573 1.358 . S
C576 C577 1.356 . S
C576 H613 0.930 . S
C577 C574 1.348 . S
C577 C576 1.356 . S
H578 C572 0.930 . S
H579 C573 0.930 . S
C580 N581 1.314 . S
C580 C582 1.353 . S
C580 H586 0.930 . S
N581 Li531 1.990 . S
N581 C580 1.314 . S
N581 C584 1.279 . S
C582 C580 1.353 . S
C582 C585 1.348 . S
C582 H614 0.929 . S
C583 C584 1.358 . S
C583 C585 1.356 . S
C583 H615 0.930 . S
C584 N581 1.279 . S
C584 C583 1.358 . S
C584 H587 0.930 . S
C585 C582 1.348 . S
C585 C583 1.356 . S
H586 C580 0.930 . S
H587 C584 0.930 . S
O588 Li528 1.956 . S
O588 Li529 1.970 . S
O588 Li530 1.961 . S
O588 C532 1.325 . S
O589 Li528 1.970 . S
O589 Li529 1.956 . S
O589 Li531 1.961 . S
O589 C538 1.325 . S
O590 Li528 1.961 . S
O590 Li530 1.956 . S
O590 Li531 1.970 . S
O590 C560 1.325 . S
O591 Li529 1.961 . S
O591 Li530 1.970 . S
O591 Li531 1.956 . S
O591 C566 1.325 . S
H592 C534 0.929 . S
H593 C535 0.930 . S
H594 C536 0.930 . S
H595 C537 0.930 . S
H596 C539 0.930 . S
H597 C541 0.929 . S
H598 C542 0.930 . S
H599 C543 0.930 . S
H600 C546 0.930 . S
H601 C549 0.929 . S
H602 C554 0.929 . S
H603 C555 0.930 . S
H604 C562 0.929 . S
H605 C563 0.930 . S
H606 C564 0.930 . S
H607 C565 0.930 . S
H608 C567 0.929 . S
H609 C568 0.930 . S
H610 C569 0.930 . S
H611 C570 0.930 . S
H612 C574 0.929 . S
H613 C576 0.930 . S
H614 C582 0.929 . S
H615 C583 0.930 . S
Li616 N633 1.990 . S
Li616 O676 1.956 . S
Li616 O677 1.970 . S
Li616 O678 1.961 . S
Li617 N641 1.990 . S
Li617 O676 1.970 . S
Li617 O677 1.956 . S
Li617 O679 1.961 . S
Li618 N663 1.990 . S
Li618 O676 1.961 . S
Li618 O678 1.956 . S
Li618 O679 1.970 . S
Li619 N669 1.990 . S
Li619 O677 1.961 . S
Li619 O678 1.970 . S
Li619 O679 1.956 . S
C620 C622 1.348 . S
C620 C623 1.356 . S
C620 O676 1.325 . S
N621 C624 1.314 . S
N621 C625 1.279 . S
C622 C620 1.348 . S
C622 C624 1.353 . S
C622 H680 0.929 . S
C623 C620 1.356 . S
C623 C625 1.358 . S
C623 H681 0.930 . S
C624 N621 1.314 . S
C624 C622 1.353 . S
C624 H682 0.930 . S
C625 N621 1.279 . S
C625 C623 1.358 . S
C625 H683 0.930 . S
C626 C629 1.348 . S
C626 C630 1.356 . S
C626 O677 1.325 . S
C627 N628 1.279 . S
C627 C630 1.358 . S
C627 H684 0.930 . S
N628 C627 1.279 . S
N628 C631 1.314 . S
C629 C626 1.348 . S
C629 C631 1.353 . S
C629 H685 0.929 . S
C630 C626 1.356 . S
C630 C627 1.358 . S
C630 H686 0.930 . S
C631 N628 1.314 . S
C631 C629 1.353 . S
C631 H687 0.930 . S
C632 N633 1.314 . S
C632 C637 1.353 . S
C632 H638 0.930 . S
N633 Li616 1.990 . S
N633 C632 1.314 . S
N633 C635 1.279 . S
C634 C635 1.358 . S
C634 C636 1.356 . S
C634 H688 0.930 . S
C635 N633 1.279 . S
C635 C634 1.358 . S
C635 H639 0.930 . S
C636 C634 1.356 . S
C636 C637 1.348 . S
C637 C632 1.353 . S
C637 C636 1.348 . S
C637 H689 0.929 . S
H638 C632 0.930 . S
H639 C635 0.930 . S
C640 N641 1.314 . S
C640 C642 1.353 . S
C640 H646 0.930 . S
N641 Li617 1.990 . S
N641 C640 1.314 . S
N641 C644 1.279 . S
C642 C640 1.353 . S
C642 C645 1.348 . S
C642 H690 0.929 . S
C643 C644 1.358 . S
C643 C645 1.356 . S
C643 H691 0.930 . S
C644 N641 1.279 . S
C644 C643 1.358 . S
C644 H647 0.930 . S
C645 C642 1.348 . S
C645 C643 1.356 . S
H646 C640 0.930 . S
H647 C644 0.930 . S
C648 C650 1.348 . S
C648 C651 1.356 . S
C648 O678 1.325 . S
N649 C652 1.314 . S
N649 C653 1.279 . S
C650 C648 1.348 . S
C650 C652 1.353 . S
C650 H692 0.929 . S
C651 C648 1.356 . S
C651 C653 1.358 . S
C651 H693 0.930 . S
C652 N649 1.314 . S
C652 C650 1.353 . S
C652 H694 0.930 . S
C653 N649 1.279 . S
C653 C651 1.358 . S
C653 H695 0.930 . S
C654 C655 1.348 . S
C654 C656 1.356 . S
C654 O679 1.325 . S
C655 C654 1.348 . S
C655 C657 1.353 . S
C655 H696 0.929 . S
C656 C654 1.356 . S
C656 C658 1.358 . S
C656 H697 0.930 . S
C657 C655 1.353 . S
C657 N659 1.314 . S
C657 H698 0.930 . S
C658 C656 1.358 . S
C658 N659 1.279 . S
C658 H699 0.930 . S
N659 C657 1.314 . S
N659 C658 1.279 . S
C660 C662 1.353 . S
C660 N663 1.314 . S
C660 H666 0.930 . S
C661 N663 1.279 . S
C661 C664 1.358 . S
C661 H667 0.930 . S
C662 C660 1.353 . S
C662 C665 1.348 . S
C662 H700 0.929 . S
N663 Li618 1.990 . S
N663 C660 1.314 . S
N663 C661 1.279 . S
C664 C661 1.358 . S
C664 C665 1.356 . S
C664 H701 0.930 . S
C665 C662 1.348 . S
C665 C664 1.356 . S
H666 C660 0.930 . S
H667 C661 0.930 . S
C668 N669 1.314 . S
C668 C670 1.353 . S
C668 H674 0.930 . S
N669 Li619 1.990 . S
N669 C668 1.314 . S
N669 C672 1.279 . S
C670 C668 1.353 . S
C670 C673 1.348 . S
C670 H702 0.929 . S
C671 C672 1.358 . S
C671 C673 1.356 . S
C671 H703 0.930 . S
C672 N669 1.279 . S
C672 C671 1.358 . S
C672 H675 0.930 . S
C673 C670 1.348 . S
C673 C671 1.356 . S
H674 C668 0.930 . S
H675 C672 0.930 . S
O676 Li616 1.956 . S
O676 Li617 1.970 . S
O676 Li618 1.961 . S
O676 C620 1.325 . S
O677 Li616 1.970 . S
O677 Li617 1.956 . S
O677 Li619 1.961 . S
O677 C626 1.325 . S
O678 Li616 1.961 . S
O678 Li618 1.956 . S
O678 Li619 1.970 . S
O678 C648 1.325 . S
O679 Li617 1.961 . S
O679 Li618 1.970 . S
O679 Li619 1.956 . S
O679 C654 1.325 . S
H680 C622 0.929 . S
H681 C623 0.930 . S
H682 C624 0.930 . S
H683 C625 0.930 . S
H684 C627 0.930 . S
H685 C629 0.929 . S
H686 C630 0.930 . S
H687 C631 0.930 . S
H688 C634 0.930 . S
H689 C637 0.929 . S
H690 C642 0.929 . S
H691 C643 0.930 . S
H692 C650 0.929 . S
H693 C651 0.930 . S
H694 C652 0.930 . S
H695 C653 0.930 . S
H696 C655 0.929 . S
H697 C656 0.930 . S
H698 C657 0.930 . S
H699 C658 0.930 . S
H700 C662 0.929 . S
H701 C664 0.930 . S
H702 C670 0.929 . S
H703 C671 0.930 . S
Li704 N721 1.990 . S
Li704 O764 1.956 . S
Li704 O765 1.970 . S
Li704 O766 1.961 . S
Li705 N729 1.990 . S
Li705 O764 1.970 . S
Li705 O765 1.956 . S
Li705 O767 1.961 . S
Li706 N751 1.990 . S
Li706 O764 1.961 . S
Li706 O766 1.956 . S
Li706 O767 1.970 . S
Li707 N757 1.990 . S
Li707 O765 1.961 . S
Li707 O766 1.970 . S
Li707 O767 1.956 . S
C708 C710 1.348 . S
C708 C711 1.356 . S
C708 O764 1.325 . S
N709 C712 1.314 . S
N709 C713 1.279 . S
C710 C708 1.348 . S
C710 C712 1.353 . S
C710 H768 0.929 . S
C711 C708 1.356 . S
C711 C713 1.358 . S
C711 H769 0.930 . S
C712 N709 1.314 . S
C712 C710 1.353 . S
C712 H770 0.930 . S
C713 N709 1.279 . S
C713 C711 1.358 . S
C713 H771 0.930 . S
C714 C717 1.348 . S
C714 C718 1.356 . S
C714 O765 1.325 . S
C715 N716 1.279 . S
C715 C718 1.358 . S
C715 H772 0.930 . S
N716 C715 1.279 . S
N716 C719 1.314 . S
C717 C714 1.348 . S
C717 C719 1.353 . S
C717 H773 0.929 . S
C718 C714 1.356 . S
C718 C715 1.358 . S
C718 H774 0.930 . S
C719 N716 1.314 . S
C719 C717 1.353 . S
C719 H775 0.930 . S
C720 N721 1.314 . S
C720 C725 1.353 . S
C720 H726 0.930 . S
N721 Li704 1.990 . S
N721 C720 1.314 . S
N721 C723 1.279 . S
C722 C723 1.358 . S
C722 C724 1.356 . S
C722 H776 0.930 . S
C723 N721 1.279 . S
C723 C722 1.358 . S
C723 H727 0.930 . S
C724 C722 1.356 . S
C724 C725 1.348 . S
C725 C720 1.353 . S
C725 C724 1.348 . S
C725 H777 0.929 . S
H726 C720 0.930 . S
H727 C723 0.930 . S
C728 N729 1.314 . S
C728 C730 1.353 . S
C728 H734 0.930 . S
N729 Li705 1.990 . S
N729 C728 1.314 . S
N729 C732 1.279 . S
C730 C728 1.353 . S
C730 C733 1.348 . S
C730 H778 0.929 . S
C731 C732 1.358 . S
C731 C733 1.356 . S
C731 H779 0.930 . S
C732 N729 1.279 . S
C732 C731 1.358 . S
C732 H735 0.930 . S
C733 C730 1.348 . S
C733 C731 1.356 . S
H734 C728 0.930 . S
H735 C732 0.930 . S
C736 C738 1.348 . S
C736 C739 1.356 . S
C736 O766 1.325 . S
N737 C740 1.314 . S
N737 C741 1.279 . S
C738 C736 1.348 . S
C738 C740 1.353 . S
C738 H780 0.929 . S
C739 C736 1.356 . S
C739 C741 1.358 . S
C739 H781 0.930 . S
C740 N737 1.314 . S
C740 C738 1.353 . S
C740 H782 0.930 . S
C741 N737 1.279 . S
C741 C739 1.358 . S
C741 H783 0.930 . S
C742 C743 1.348 . S
C742 C744 1.356 . S
C742 O767 1.325 . S
C743 C742 1.348 . S
C743 C745 1.353 . S
C743 H784 0.929 . S
C744 C742 1.356 . S
C744 C746 1.358 . S
C744 H785 0.930 . S
C745 C743 1.353 . S
C745 N747 1.314 . S
C745 H786 0.930 . S
C746 C744 1.358 . S
C746 N747 1.279 . S
C746 H787 0.930 . S
N747 C745 1.314 . S
N747 C746 1.279 . S
C748 C750 1.353 . S
C748 N751 1.314 . S
C748 H754 0.930 . S
C749 N751 1.279 . S
C749 C752 1.358 . S
C749 H755 0.930 . S
C750 C748 1.353 . S
C750 C753 1.348 . S
C750 H788 0.929 . S
N751 Li706 1.990 . S
N751 C748 1.314 . S
N751 C749 1.279 . S
C752 C749 1.358 . S
C752 C753 1.356 . S
C752 H789 0.930 . S
C753 C750 1.348 . S
C753 C752 1.356 . S
H754 C748 0.930 . S
H755 C749 0.930 . S
C756 N757 1.314 . S
C756 C758 1.353 . S
C756 H762 0.930 . S
N757 Li707 1.990 . S
N757 C756 1.314 . S
N757 C760 1.279 . S
C758 C756 1.353 . S
C758 C761 1.348 . S
C758 H790 0.929 . S
C759 C760 1.358 . S
C759 C761 1.356 . S
C759 H791 0.930 . S
C760 N757 1.279 . S
C760 C759 1.358 . S
C760 H763 0.930 . S
C761 C758 1.348 . S
C761 C759 1.356 . S
H762 C756 0.930 . S
H763 C760 0.930 . S
O764 Li704 1.956 . S
O764 Li705 1.970 . S
O764 Li706 1.961 . S
O764 C708 1.325 . S
O765 Li704 1.970 . S
O765 Li705 1.956 . S
O765 Li707 1.961 . S
O765 C714 1.325 . S
O766 Li704 1.961 . S
O766 Li706 1.956 . S
O766 Li707 1.970 . S
O766 C736 1.325 . S
O767 Li705 1.961 . S
O767 Li706 1.970 . S
O767 Li707 1.956 . S
O767 C742 1.325 . S
H768 C710 0.929 . S
H769 C711 0.930 . S
H770 C712 0.930 . S
H771 C713 0.930 . S
H772 C715 0.930 . S
H773 C717 0.929 . S
H774 C718 0.930 . S
H775 C719 0.930 . S
H776 C722 0.930 . S
H777 C725 0.929 . S
H778 C730 0.929 . S
H779 C731 0.930 . S
H780 C738 0.929 . S
H781 C739 0.930 . S
H782 C740 0.930 . S
H783 C741 0.930 . S
H784 C743 0.929 . S
H785 C744 0.930 . S
H786 C745 0.930 . S
H787 C746 0.930 . S
H788 C750 0.929 . S
H789 C752 0.930 . S
H790 C758 0.929 . S
H791 C759 0.930 . S
Li792 N809 1.990 . S
Li792 O852 1.956 . S
Li792 O853 1.970 . S
Li792 O854 1.961 . S
Li793 N817 1.990 . S
Li793 O852 1.970 . S
Li793 O853 1.956 . S
Li793 O855 1.961 . S
Li794 N839 1.990 . S
Li794 O852 1.961 . S
Li794 O854 1.956 . S
Li794 O855 1.970 . S
Li795 N845 1.990 . S
Li795 O853 1.961 . S
Li795 O854 1.970 . S
Li795 O855 1.956 . S
C796 C798 1.348 . S
C796 C799 1.356 . S
C796 O852 1.325 . S
N797 C800 1.314 . S
N797 C801 1.279 . S
C798 C796 1.348 . S
C798 C800 1.353 . S
C798 H856 0.929 . S
C799 C796 1.356 . S
C799 C801 1.358 . S
C799 H857 0.930 . S
C800 N797 1.314 . S
C800 C798 1.353 . S
C800 H858 0.930 . S
C801 N797 1.279 . S
C801 C799 1.358 . S
C801 H859 0.930 . S
C802 C805 1.348 . S
C802 C806 1.356 . S
C802 O853 1.325 . S
C803 N804 1.279 . S
C803 C806 1.358 . S
C803 H860 0.930 . S
N804 C803 1.279 . S
N804 C807 1.314 . S
C805 C802 1.348 . S
C805 C807 1.353 . S
C805 H861 0.929 . S
C806 C802 1.356 . S
C806 C803 1.358 . S
C806 H862 0.930 . S
C807 N804 1.314 . S
C807 C805 1.353 . S
C807 H863 0.930 . S
C808 N809 1.314 . S
C808 C813 1.353 . S
C808 H814 0.930 . S
N809 Li792 1.990 . S
N809 C808 1.314 . S
N809 C811 1.279 . S
C810 C811 1.358 . S
C810 C812 1.356 . S
C810 H864 0.930 . S
C811 N809 1.279 . S
C811 C810 1.358 . S
C811 H815 0.930 . S
C812 C810 1.356 . S
C812 C813 1.348 . S
C813 C808 1.353 . S
C813 C812 1.348 . S
C813 H865 0.929 . S
H814 C808 0.930 . S
H815 C811 0.930 . S
C816 N817 1.314 . S
C816 C818 1.353 . S
C816 H822 0.930 . S
N817 Li793 1.990 . S
N817 C816 1.314 . S
N817 C820 1.279 . S
C818 C816 1.353 . S
C818 C821 1.348 . S
C818 H866 0.929 . S
C819 C820 1.358 . S
C819 C821 1.356 . S
C819 H867 0.930 . S
C820 N817 1.279 . S
C820 C819 1.358 . S
C820 H823 0.930 . S
C821 C818 1.348 . S
C821 C819 1.356 . S
H822 C816 0.930 . S
H823 C820 0.930 . S
C824 C826 1.348 . S
C824 C827 1.356 . S
C824 O854 1.325 . S
N825 C828 1.314 . S
N825 C829 1.279 . S
C826 C824 1.348 . S
C826 C828 1.353 . S
C826 H868 0.929 . S
C827 C824 1.356 . S
C827 C829 1.358 . S
C827 H869 0.930 . S
C828 N825 1.314 . S
C828 C826 1.353 . S
C828 H870 0.930 . S
C829 N825 1.279 . S
C829 C827 1.358 . S
C829 H871 0.930 . S
C830 C831 1.348 . S
C830 C832 1.356 . S
C830 O855 1.325 . S
C831 C830 1.348 . S
C831 C833 1.353 . S
C831 H872 0.929 . S
C832 C830 1.356 . S
C832 C834 1.358 . S
C832 H873 0.930 . S
C833 C831 1.353 . S
C833 N835 1.314 . S
C833 H874 0.930 . S
C834 C832 1.358 . S
C834 N835 1.279 . S
C834 H875 0.930 . S
N835 C833 1.314 . S
N835 C834 1.279 . S
C836 C838 1.353 . S
C836 N839 1.314 . S
C836 H842 0.930 . S
C837 N839 1.279 . S
C837 C840 1.358 . S
C837 H843 0.930 . S
C838 C836 1.353 . S
C838 C841 1.348 . S
C838 H876 0.929 . S
N839 Li794 1.990 . S
N839 C836 1.314 . S
N839 C837 1.279 . S
C840 C837 1.358 . S
C840 C841 1.356 . S
C840 H877 0.930 . S
C841 C838 1.348 . S
C841 C840 1.356 . S
H842 C836 0.930 . S
H843 C837 0.930 . S
C844 N845 1.314 . S
C844 C846 1.353 . S
C844 H850 0.930 . S
N845 Li795 1.990 . S
N845 C844 1.314 . S
N845 C848 1.279 . S
C846 C844 1.353 . S
C846 C849 1.348 . S
C846 H878 0.929 . S
C847 C848 1.358 . S
C847 C849 1.356 . S
C847 H879 0.930 . S
C848 N845 1.279 . S
C848 C847 1.358 . S
C848 H851 0.930 . S
C849 C846 1.348 . S
C849 C847 1.356 . S
H850 C844 0.930 . S
H851 C848 0.930 . S
O852 Li792 1.956 . S
O852 Li793 1.970 . S
O852 Li794 1.961 . S
O852 C796 1.325 . S
O853 Li792 1.970 . S
O853 Li793 1.956 . S
O853 Li795 1.961 . S
O853 C802 1.325 . S
O854 Li792 1.961 . S
O854 Li794 1.956 . S
O854 Li795 1.970 . S
O854 C824 1.325 . S
O855 Li793 1.961 . S
O855 Li794 1.970 . S
O855 Li795 1.956 . S
O855 C830 1.325 . S
H856 C798 0.929 . S
H857 C799 0.930 . S
H858 C800 0.930 . S
H859 C801 0.930 . S
H860 C803 0.930 . S
H861 C805 0.929 . S
H862 C806 0.930 . S
H863 C807 0.930 . S
H864 C810 0.930 . S
H865 C813 0.929 . S
H866 C818 0.929 . S
H867 C819 0.930 . S
H868 C826 0.929 . S
H869 C827 0.930 . S
H870 C828 0.930 . S
H871 C829 0.930 . S
H872 C831 0.929 . S
H873 C832 0.930 . S
H874 C833 0.930 . S
H875 C834 0.930 . S
H876 C838 0.929 . S
H877 C840 0.930 . S
H878 C846 0.929 . S
H879 C847 0.930 . S
Li880 N897 1.990 . S
Li880 O940 1.956 . S
Li880 O941 1.970 . S
Li880 O942 1.961 . S
Li881 N905 1.990 . S
Li881 O940 1.970 . S
Li881 O941 1.956 . S
Li881 O943 1.961 . S
Li882 N927 1.990 . S
Li882 O940 1.961 . S
Li882 O942 1.956 . S
Li882 O943 1.970 . S
Li883 N933 1.990 . S
Li883 O941 1.961 . S
Li883 O942 1.970 . S
Li883 O943 1.956 . S
C884 C886 1.348 . S
C884 C887 1.356 . S
C884 O940 1.325 . S
N885 C888 1.314 . S
N885 C889 1.279 . S
C886 C884 1.348 . S
C886 C888 1.353 . S
C886 H944 0.929 . S
C887 C884 1.356 . S
C887 C889 1.358 . S
C887 H945 0.930 . S
C888 N885 1.314 . S
C888 C886 1.353 . S
C888 H946 0.930 . S
C889 N885 1.279 . S
C889 C887 1.358 . S
C889 H947 0.930 . S
C890 C893 1.348 . S
C890 C894 1.356 . S
C890 O941 1.325 . S
C891 N892 1.279 . S
C891 C894 1.358 . S
C891 H948 0.930 . S
N892 C891 1.279 . S
N892 C895 1.314 . S
C893 C890 1.348 . S
C893 C895 1.353 . S
C893 H949 0.929 . S
C894 C890 1.356 . S
C894 C891 1.358 . S
C894 H950 0.930 . S
C895 N892 1.314 . S
C895 C893 1.353 . S
C895 H951 0.930 . S
C896 N897 1.314 . S
C896 C901 1.353 . S
C896 H902 0.930 . S
N897 Li880 1.990 . S
N897 C896 1.314 . S
N897 C899 1.279 . S
C898 C899 1.358 . S
C898 C900 1.356 . S
C898 H952 0.930 . S
C899 N897 1.279 . S
C899 C898 1.358 . S
C899 H903 0.930 . S
C900 C898 1.356 . S
C900 C901 1.348 . S
C901 C896 1.353 . S
C901 C900 1.348 . S
C901 H953 0.929 . S
H902 C896 0.930 . S
H903 C899 0.930 . S
C904 N905 1.314 . S
C904 C906 1.353 . S
C904 H910 0.930 . S
N905 Li881 1.990 . S
N905 C904 1.314 . S
N905 C908 1.279 . S
C906 C904 1.353 . S
C906 C909 1.348 . S
C906 H954 0.929 . S
C907 C908 1.358 . S
C907 C909 1.356 . S
C907 H955 0.930 . S
C908 N905 1.279 . S
C908 C907 1.358 . S
C908 H911 0.930 . S
C909 C906 1.348 . S
C909 C907 1.356 . S
H910 C904 0.930 . S
H911 C908 0.930 . S
C912 C914 1.348 . S
C912 C915 1.356 . S
C912 O942 1.325 . S
N913 C916 1.314 . S
N913 C917 1.279 . S
C914 C912 1.348 . S
C914 C916 1.353 . S
C914 H956 0.929 . S
C915 C912 1.356 . S
C915 C917 1.358 . S
C915 H957 0.930 . S
C916 N913 1.314 . S
C916 C914 1.353 . S
C916 H958 0.930 . S
C917 N913 1.279 . S
C917 C915 1.358 . S
C917 H959 0.930 . S
C918 C919 1.348 . S
C918 C920 1.356 . S
C918 O943 1.325 . S
C919 C918 1.348 . S
C919 C921 1.353 . S
C919 H960 0.929 . S
C920 C918 1.356 . S
C920 C922 1.358 . S
C920 H961 0.930 . S
C921 C919 1.353 . S
C921 N923 1.314 . S
C921 H962 0.930 . S
C922 C920 1.358 . S
C922 N923 1.279 . S
C922 H963 0.930 . S
N923 C921 1.314 . S
N923 C922 1.279 . S
C924 C926 1.353 . S
C924 N927 1.314 . S
C924 H930 0.930 . S
C925 N927 1.279 . S
C925 C928 1.358 . S
C925 H931 0.930 . S
C926 C924 1.353 . S
C926 C929 1.348 . S
C926 H964 0.929 . S
N927 Li882 1.990 . S
N927 C924 1.314 . S
N927 C925 1.279 . S
C928 C925 1.358 . S
C928 C929 1.356 . S
C928 H965 0.930 . S
C929 C926 1.348 . S
C929 C928 1.356 . S
H930 C924 0.930 . S
H931 C925 0.930 . S
C932 N933 1.314 . S
C932 C934 1.353 . S
C932 H938 0.930 . S
N933 Li883 1.990 . S
N933 C932 1.314 . S
N933 C936 1.279 . S
C934 C932 1.353 . S
C934 C937 1.348 . S
C934 H966 0.929 . S
C935 C936 1.358 . S
C935 C937 1.356 . S
C935 H967 0.930 . S
C936 N933 1.279 . S
C936 C935 1.358 . S
C936 H939 0.930 . S
C937 C934 1.348 . S
C937 C935 1.356 . S
H938 C932 0.930 . S
H939 C936 0.930 . S
O940 Li880 1.956 . S
O940 Li881 1.970 . S
O940 Li882 1.961 . S
O940 C884 1.325 . S
O941 Li880 1.970 . S
O941 Li881 1.956 . S
O941 Li883 1.961 . S
O941 C890 1.325 . S
O942 Li880 1.961 . S
O942 Li882 1.956 . S
O942 Li883 1.970 . S
O942 C912 1.325 . S
O943 Li881 1.961 . S
O943 Li882 1.970 . S
O943 Li883 1.956 . S
O943 C918 1.325 . S
H944 C886 0.929 . S
H945 C887 0.930 . S
H946 C888 0.930 . S
H947 C889 0.930 . S
H948 C891 0.930 . S
H949 C893 0.929 . S
H950 C894 0.930 . S
H951 C895 0.930 . S
H952 C898 0.930 . S
H953 C901 0.929 . S
H954 C906 0.929 . S
H955 C907 0.930 . S
H956 C914 0.929 . S
H957 C915 0.930 . S
H958 C916 0.930 . S
H959 C917 0.930 . S
H960 C919 0.929 . S
H961 C920 0.930 . S
H962 C921 0.930 . S
H963 C922 0.930 . S
H964 C926 0.929 . S
H965 C928 0.930 . S
H966 C934 0.929 . S
H967 C935 0.930 . S
Li968 N985 1.990 . S
Li968 O1028 1.956 . S
Li968 O1029 1.970 . S
Li968 O1030 1.961 . S
Li969 N993 1.990 . S
Li969 O1028 1.970 . S
Li969 O1029 1.956 . S
Li969 O1031 1.961 . S
Li970 N1015 1.990 . S
Li970 O1028 1.961 . S
Li970 O1030 1.956 . S
Li970 O1031 1.970 . S
Li971 N1021 1.990 . S
Li971 O1029 1.961 . S
Li971 O1030 1.970 . S
Li971 O1031 1.956 . S
C972 C974 1.348 . S
C972 C975 1.356 . S
C972 O1028 1.325 . S
N973 C976 1.314 . S
N973 C977 1.279 . S
C974 C972 1.348 . S
C974 C976 1.353 . S
C974 H1032 0.929 . S
C975 C972 1.356 . S
C975 C977 1.358 . S
C975 H1033 0.930 . S
C976 N973 1.314 . S
C976 C974 1.353 . S
C976 H1034 0.930 . S
C977 N973 1.279 . S
C977 C975 1.358 . S
C977 H1035 0.930 . S
C978 C981 1.348 . S
C978 C982 1.356 . S
C978 O1029 1.325 . S
C979 N980 1.279 . S
C979 C982 1.358 . S
C979 H1036 0.930 . S
N980 C979 1.279 . S
N980 C983 1.314 . S
C981 C978 1.348 . S
C981 C983 1.353 . S
C981 H1037 0.929 . S
C982 C978 1.356 . S
C982 C979 1.358 . S
C982 H1038 0.930 . S
C983 N980 1.314 . S
C983 C981 1.353 . S
C983 H1039 0.930 . S
C984 N985 1.314 . S
C984 C989 1.353 . S
C984 H990 0.930 . S
N985 Li968 1.990 . S
N985 C984 1.314 . S
N985 C987 1.279 . S
C986 C987 1.358 . S
C986 C988 1.356 . S
C986 H1040 0.930 . S
C987 N985 1.279 . S
C987 C986 1.358 . S
C987 H991 0.930 . S
C988 C986 1.356 . S
C988 C989 1.348 . S
C989 C984 1.353 . S
C989 C988 1.348 . S
C989 H1041 0.929 . S
H990 C984 0.930 . S
H991 C987 0.930 . S
C992 N993 1.314 . S
C992 C994 1.353 . S
C992 H998 0.930 . S
N993 Li969 1.990 . S
N993 C992 1.314 . S
N993 C996 1.279 . S
C994 C992 1.353 . S
C994 C997 1.348 . S
C994 H1042 0.929 . S
C995 C996 1.358 . S
C995 C997 1.356 . S
C995 H1043 0.930 . S
C996 N993 1.279 . S
C996 C995 1.358 . S
C996 H999 0.930 . S
C997 C994 1.348 . S
C997 C995 1.356 . S
H998 C992 0.930 . S
H999 C996 0.930 . S
C1000 C1002 1.348 . S
C1000 C1003 1.356 . S
C1000 O1030 1.325 . S
N1001 C1004 1.314 . S
N1001 C1005 1.279 . S
C1002 C1000 1.348 . S
C1002 C1004 1.353 . S
C1002 H1044 0.929 . S
C1003 C1000 1.356 . S
C1003 C1005 1.358 . S
C1003 H1045 0.930 . S
C1004 N1001 1.314 . S
C1004 C1002 1.353 . S
C1004 H1046 0.930 . S
C1005 N1001 1.279 . S
C1005 C1003 1.358 . S
C1005 H1047 0.930 . S
C1006 C1007 1.348 . S
C1006 C1008 1.356 . S
C1006 O1031 1.325 . S
C1007 C1006 1.348 . S
C1007 C1009 1.353 . S
C1007 H1048 0.929 . S
C1008 C1006 1.356 . S
C1008 C1010 1.358 . S
C1008 H1049 0.930 . S
C1009 C1007 1.353 . S
C1009 N1011 1.314 . S
C1009 H1050 0.930 . S
C1010 C1008 1.358 . S
C1010 N1011 1.279 . S
C1010 H1051 0.930 . S
N1011 C1009 1.314 . S
N1011 C1010 1.279 . S
C1012 C1014 1.353 . S
C1012 N1015 1.314 . S
C1012 H1018 0.930 . S
C1013 N1015 1.279 . S
C1013 C1016 1.358 . S
C1013 H1019 0.930 . S
C1014 C1012 1.353 . S
C1014 C1017 1.348 . S
C1014 H1052 0.929 . S
N1015 Li970 1.990 . S
N1015 C1012 1.314 . S
N1015 C1013 1.279 . S
C1016 C1013 1.358 . S
C1016 C1017 1.356 . S
C1016 H1053 0.930 . S
C1017 C1014 1.348 . S
C1017 C1016 1.356 . S
H1018 C1012 0.930 . S
H1019 C1013 0.930 . S
C1020 N1021 1.314 . S
C1020 C1022 1.353 . S
C1020 H1026 0.930 . S
N1021 Li971 1.990 . S
N1021 C1020 1.314 . S
N1021 C1024 1.279 . S
C1022 C1020 1.353 . S
C1022 C1025 1.348 . S
C1022 H1054 0.929 . S
C1023 C1024 1.358 . S
C1023 C1025 1.356 . S
C1023 H1055 0.930 . S
C1024 N1021 1.279 . S
C1024 C1023 1.358 . S
C1024 H1027 0.930 . S
C1025 C1022 1.348 . S
C1025 C1023 1.356 . S
H1026 C1020 0.930 . S
H1027 C1024 0.930 . S
O1028 Li968 1.956 . S
O1028 Li969 1.970 . S
O1028 Li970 1.961 . S
O1028 C972 1.325 . S
O1029 Li968 1.970 . S
O1029 Li969 1.956 . S
O1029 Li971 1.961 . S
O1029 C978 1.325 . S
O1030 Li968 1.961 . S
O1030 Li970 1.956 . S
O1030 Li971 1.970 . S
O1030 C1000 1.325 . S
O1031 Li969 1.961 . S
O1031 Li970 1.970 . S
O1031 Li971 1.956 . S
O1031 C1006 1.325 . S
H1032 C974 0.929 . S
H1033 C975 0.930 . S
H1034 C976 0.930 . S
H1035 C977 0.930 . S
H1036 C979 0.930 . S
H1037 C981 0.929 . S
H1038 C982 0.930 . S
H1039 C983 0.930 . S
H1040 C986 0.930 . S
H1041 C989 0.929 . S
H1042 C994 0.929 . S
H1043 C995 0.930 . S
H1044 C1002 0.929 . S
H1045 C1003 0.930 . S
H1046 C1004 0.930 . S
H1047 C1005 0.930 . S
H1048 C1007 0.929 . S
H1049 C1008 0.930 . S
H1050 C1009 0.930 . S
H1051 C1010 0.930 . S
H1052 C1014 0.929 . S
H1053 C1016 0.930 . S
H1054 C1022 0.929 . S
H1055 C1023 0.930 . S
Li1056 N1073 1.990 . S
Li1056 O1116 1.956 . S
Li1056 O1117 1.970 . S
Li1056 O1118 1.961 . S
Li1057 N1081 1.990 . S
Li1057 O1116 1.970 . S
Li1057 O1117 1.956 . S
Li1057 O1119 1.961 . S
Li1058 N1103 1.990 . S
Li1058 O1116 1.961 . S
Li1058 O1118 1.956 . S
Li1058 O1119 1.970 . S
Li1059 N1109 1.990 . S
Li1059 O1117 1.961 . S
Li1059 O1118 1.970 . S
Li1059 O1119 1.956 . S
C1060 C1062 1.348 . S
C1060 C1063 1.356 . S
C1060 O1116 1.325 . S
N1061 C1064 1.314 . S
N1061 C1065 1.279 . S
C1062 C1060 1.348 . S
C1062 C1064 1.353 . S
C1062 H1120 0.929 . S
C1063 C1060 1.356 . S
C1063 C1065 1.358 . S
C1063 H1121 0.930 . S
C1064 N1061 1.314 . S
C1064 C1062 1.353 . S
C1064 H1122 0.930 . S
C1065 N1061 1.279 . S
C1065 C1063 1.358 . S
C1065 H1123 0.930 . S
C1066 C1069 1.348 . S
C1066 C1070 1.356 . S
C1066 O1117 1.325 . S
C1067 N1068 1.279 . S
C1067 C1070 1.358 . S
C1067 H1124 0.930 . S
N1068 C1067 1.279 . S
N1068 C1071 1.314 . S
C1069 C1066 1.348 . S
C1069 C1071 1.353 . S
C1069 H1125 0.929 . S
C1070 C1066 1.356 . S
C1070 C1067 1.358 . S
C1070 H1126 0.930 . S
C1071 N1068 1.314 . S
C1071 C1069 1.353 . S
C1071 H1127 0.930 . S
C1072 N1073 1.314 . S
C1072 C1077 1.353 . S
C1072 H1078 0.930 . S
N1073 Li1056 1.990 . S
N1073 C1072 1.314 . S
N1073 C1075 1.279 . S
C1074 C1075 1.358 . S
C1074 C1076 1.356 . S
C1074 H1128 0.930 . S
C1075 N1073 1.279 . S
C1075 C1074 1.358 . S
C1075 H1079 0.930 . S
C1076 C1074 1.356 . S
C1076 C1077 1.348 . S
C1077 C1072 1.353 . S
C1077 C1076 1.348 . S
C1077 H1129 0.929 . S
H1078 C1072 0.930 . S
H1079 C1075 0.930 . S
C1080 N1081 1.314 . S
C1080 C1082 1.353 . S
C1080 H1086 0.930 . S
N1081 Li1057 1.990 . S
N1081 C1080 1.314 . S
N1081 C1084 1.279 . S
C1082 C1080 1.353 . S
C1082 C1085 1.348 . S
C1082 H1130 0.929 . S
C1083 C1084 1.358 . S
C1083 C1085 1.356 . S
C1083 H1131 0.930 . S
C1084 N1081 1.279 . S
C1084 C1083 1.358 . S
C1084 H1087 0.930 . S
C1085 C1082 1.348 . S
C1085 C1083 1.356 . S
H1086 C1080 0.930 . S
H1087 C1084 0.930 . S
C1088 C1090 1.348 . S
C1088 C1091 1.356 . S
C1088 O1118 1.325 . S
N1089 C1092 1.314 . S
N1089 C1093 1.279 . S
C1090 C1088 1.348 . S
C1090 C1092 1.353 . S
C1090 H1132 0.929 . S
C1091 C1088 1.356 . S
C1091 C1093 1.358 . S
C1091 H1133 0.930 . S
C1092 N1089 1.314 . S
C1092 C1090 1.353 . S
C1092 H1134 0.930 . S
C1093 N1089 1.279 . S
C1093 C1091 1.358 . S
C1093 H1135 0.930 . S
C1094 C1095 1.348 . S
C1094 C1096 1.356 . S
C1094 O1119 1.325 . S
C1095 C1094 1.348 . S
C1095 C1097 1.353 . S
C1095 H1136 0.929 . S
C1096 C1094 1.356 . S
C1096 C1098 1.358 . S
C1096 H1137 0.930 . S
C1097 C1095 1.353 . S
C1097 N1099 1.314 . S
C1097 H1138 0.930 . S
C1098 C1096 1.358 . S
C1098 N1099 1.279 . S
C1098 H1139 0.930 . S
N1099 C1097 1.314 . S
N1099 C1098 1.279 . S
C1100 C1102 1.353 . S
C1100 N1103 1.314 . S
C1100 H1106 0.930 . S
C1101 N1103 1.279 . S
C1101 C1104 1.358 . S
C1101 H1107 0.930 . S
C1102 C1100 1.353 . S
C1102 C1105 1.348 . S
C1102 H1140 0.929 . S
N1103 Li1058 1.990 . S
N1103 C1100 1.314 . S
N1103 C1101 1.279 . S
C1104 C1101 1.358 . S
C1104 C1105 1.356 . S
C1104 H1141 0.930 . S
C1105 C1102 1.348 . S
C1105 C1104 1.356 . S
H1106 C1100 0.930 . S
H1107 C1101 0.930 . S
C1108 N1109 1.314 . S
C1108 C1110 1.353 . S
C1108 H1114 0.930 . S
N1109 Li1059 1.990 . S
N1109 C1108 1.314 . S
N1109 C1112 1.279 . S
C1110 C1108 1.353 . S
C1110 C1113 1.348 . S
C1110 H1142 0.929 . S
C1111 C1112 1.358 . S
C1111 C1113 1.356 . S
C1111 H1143 0.930 . S
C1112 N1109 1.279 . S
C1112 C1111 1.358 . S
C1112 H1115 0.930 . S
C1113 C1110 1.348 . S
C1113 C1111 1.356 . S
H1114 C1108 0.930 . S
H1115 C1112 0.930 . S
O1116 Li1056 1.956 . S
O1116 Li1057 1.970 . S
O1116 Li1058 1.961 . S
O1116 C1060 1.325 . S
O1117 Li1056 1.970 . S
O1117 Li1057 1.956 . S
O1117 Li1059 1.961 . S
O1117 C1066 1.325 . S
O1118 Li1056 1.961 . S
O1118 Li1058 1.956 . S
O1118 Li1059 1.970 . S
O1118 C1088 1.325 . S
O1119 Li1057 1.961 . S
O1119 Li1058 1.970 . S
O1119 Li1059 1.956 . S
O1119 C1094 1.325 . S
H1120 C1062 0.929 . S
H1121 C1063 0.930 . S
H1122 C1064 0.930 . S
H1123 C1065 0.930 . S
H1124 C1067 0.930 . S
H1125 C1069 0.929 . S
H1126 C1070 0.930 . S
H1127 C1071 0.930 . S
H1128 C1074 0.930 . S
H1129 C1077 0.929 . S
H1130 C1082 0.929 . S
H1131 C1083 0.930 . S
H1132 C1090 0.929 . S
H1133 C1091 0.930 . S
H1134 C1092 0.930 . S
H1135 C1093 0.930 . S
H1136 C1095 0.929 . S
H1137 C1096 0.930 . S
H1138 C1097 0.930 . S
H1139 C1098 0.930 . S
H1140 C1102 0.929 . S
H1141 C1104 0.930 . S
H1142 C1110 0.929 . S
H1143 C1111 0.930 . S
Li1144 N1161 1.990 . S
Li1144 O1204 1.956 . S
Li1144 O1205 1.970 . S
Li1144 O1206 1.961 . S
Li1145 N1169 1.990 . S
Li1145 O1204 1.970 . S
Li1145 O1205 1.956 . S
Li1145 O1207 1.961 . S
Li1146 N1191 1.990 . S
Li1146 O1204 1.961 . S
Li1146 O1206 1.956 . S
Li1146 O1207 1.970 . S
Li1147 N1197 1.990 . S
Li1147 O1205 1.961 . S
Li1147 O1206 1.970 . S
Li1147 O1207 1.956 . S
C1148 C1150 1.348 . S
C1148 C1151 1.356 . S
C1148 O1204 1.325 . S
N1149 C1152 1.314 . S
N1149 C1153 1.279 . S
C1150 C1148 1.348 . S
C1150 C1152 1.353 . S
C1150 H1208 0.929 . S
C1151 C1148 1.356 . S
C1151 C1153 1.358 . S
C1151 H1209 0.930 . S
C1152 N1149 1.314 . S
C1152 C1150 1.353 . S
C1152 H1210 0.930 . S
C1153 N1149 1.279 . S
C1153 C1151 1.358 . S
C1153 H1211 0.930 . S
C1154 C1157 1.348 . S
C1154 C1158 1.356 . S
C1154 O1205 1.325 . S
C1155 N1156 1.279 . S
C1155 C1158 1.358 . S
C1155 H1212 0.930 . S
N1156 C1155 1.279 . S
N1156 C1159 1.314 . S
C1157 C1154 1.348 . S
C1157 C1159 1.353 . S
C1157 H1213 0.929 . S
C1158 C1154 1.356 . S
C1158 C1155 1.358 . S
C1158 H1214 0.930 . S
C1159 N1156 1.314 . S
C1159 C1157 1.353 . S
C1159 H1215 0.930 . S
C1160 N1161 1.314 . S
C1160 C1165 1.353 . S
C1160 H1166 0.930 . S
N1161 Li1144 1.990 . S
N1161 C1160 1.314 . S
N1161 C1163 1.279 . S
C1162 C1163 1.358 . S
C1162 C1164 1.356 . S
C1162 H1216 0.930 . S
C1163 N1161 1.279 . S
C1163 C1162 1.358 . S
C1163 H1167 0.930 . S
C1164 C1162 1.356 . S
C1164 C1165 1.348 . S
C1165 C1160 1.353 . S
C1165 C1164 1.348 . S
C1165 H1217 0.929 . S
H1166 C1160 0.930 . S
H1167 C1163 0.930 . S
C1168 N1169 1.314 . S
C1168 C1170 1.353 . S
C1168 H1174 0.930 . S
N1169 Li1145 1.990 . S
N1169 C1168 1.314 . S
N1169 C1172 1.279 . S
C1170 C1168 1.353 . S
C1170 C1173 1.348 . S
C1170 H1218 0.929 . S
C1171 C1172 1.358 . S
C1171 C1173 1.356 . S
C1171 H1219 0.930 . S
C1172 N1169 1.279 . S
C1172 C1171 1.358 . S
C1172 H1175 0.930 . S
C1173 C1170 1.348 . S
C1173 C1171 1.356 . S
H1174 C1168 0.930 . S
H1175 C1172 0.930 . S
C1176 C1178 1.348 . S
C1176 C1179 1.356 . S
C1176 O1206 1.325 . S
N1177 C1180 1.314 . S
N1177 C1181 1.279 . S
C1178 C1176 1.348 . S
C1178 C1180 1.353 . S
C1178 H1220 0.929 . S
C1179 C1176 1.356 . S
C1179 C1181 1.358 . S
C1179 H1221 0.930 . S
C1180 N1177 1.314 . S
C1180 C1178 1.353 . S
C1180 H1222 0.930 . S
C1181 N1177 1.279 . S
C1181 C1179 1.358 . S
C1181 H1223 0.930 . S
C1182 C1183 1.348 . S
C1182 C1184 1.356 . S
C1182 O1207 1.325 . S
C1183 C1182 1.348 . S
C1183 C1185 1.353 . S
C1183 H1224 0.929 . S
C1184 C1182 1.356 . S
C1184 C1186 1.358 . S
C1184 H1225 0.930 . S
C1185 C1183 1.353 . S
C1185 N1187 1.314 . S
C1185 H1226 0.930 . S
C1186 C1184 1.358 . S
C1186 N1187 1.279 . S
C1186 H1227 0.930 . S
N1187 C1185 1.314 . S
N1187 C1186 1.279 . S
C1188 C1190 1.353 . S
C1188 N1191 1.314 . S
C1188 H1194 0.930 . S
C1189 N1191 1.279 . S
C1189 C1192 1.358 . S
C1189 H1195 0.930 . S
C1190 C1188 1.353 . S
C1190 C1193 1.348 . S
C1190 H1228 0.929 . S
N1191 Li1146 1.990 . S
N1191 C1188 1.314 . S
N1191 C1189 1.279 . S
C1192 C1189 1.358 . S
C1192 C1193 1.356 . S
C1192 H1229 0.930 . S
C1193 C1190 1.348 . S
C1193 C1192 1.356 . S
H1194 C1188 0.930 . S
H1195 C1189 0.930 . S
C1196 N1197 1.314 . S
C1196 C1198 1.353 . S
C1196 H1202 0.930 . S
N1197 Li1147 1.990 . S
N1197 C1196 1.314 . S
N1197 C1200 1.279 . S
C1198 C1196 1.353 . S
C1198 C1201 1.348 . S
C1198 H1230 0.929 . S
C1199 C1200 1.358 . S
C1199 C1201 1.356 . S
C1199 H1231 0.930 . S
C1200 N1197 1.279 . S
C1200 C1199 1.358 . S
C1200 H1203 0.930 . S
C1201 C1198 1.348 . S
C1201 C1199 1.356 . S
H1202 C1196 0.930 . S
H1203 C1200 0.930 . S
O1204 Li1144 1.956 . S
O1204 Li1145 1.970 . S
O1204 Li1146 1.961 . S
O1204 C1148 1.325 . S
O1205 Li1144 1.970 . S
O1205 Li1145 1.956 . S
O1205 Li1147 1.961 . S
O1205 C1154 1.325 . S
O1206 Li1144 1.961 . S
O1206 Li1146 1.956 . S
O1206 Li1147 1.970 . S
O1206 C1176 1.325 . S
O1207 Li1145 1.961 . S
O1207 Li1146 1.970 . S
O1207 Li1147 1.956 . S
O1207 C1182 1.325 . S
H1208 C1150 0.929 . S
H1209 C1151 0.930 . S
H1210 C1152 0.930 . S
H1211 C1153 0.930 . S
H1212 C1155 0.930 . S
H1213 C1157 0.929 . S
H1214 C1158 0.930 . S
H1215 C1159 0.930 . S
H1216 C1162 0.930 . S
H1217 C1165 0.929 . S
H1218 C1170 0.929 . S
H1219 C1171 0.930 . S
H1220 C1178 0.929 . S
H1221 C1179 0.930 . S
H1222 C1180 0.930 . S
H1223 C1181 0.930 . S
H1224 C1183 0.929 . S
H1225 C1184 0.930 . S
H1226 C1185 0.930 . S
H1227 C1186 0.930 . S
H1228 C1190 0.929 . S
H1229 C1192 0.930 . S
H1230 C1198 0.929 . S
H1231 C1199 0.930 . S
Li1232 N1249 1.990 . S
Li1232 O1292 1.956 . S
Li1232 O1293 1.970 . S
Li1232 O1294 1.961 . S
Li1233 N1257 1.990 . S
Li1233 O1292 1.970 . S
Li1233 O1293 1.956 . S
Li1233 O1295 1.961 . S
Li1234 N1279 1.990 . S
Li1234 O1292 1.961 . S
Li1234 O1294 1.956 . S
Li1234 O1295 1.970 . S
Li1235 N1285 1.990 . S
Li1235 O1293 1.961 . S
Li1235 O1294 1.970 . S
Li1235 O1295 1.956 . S
C1236 C1238 1.348 . S
C1236 C1239 1.356 . S
C1236 O1292 1.325 . S
N1237 C1240 1.314 . S
N1237 C1241 1.279 . S
C1238 C1236 1.348 . S
C1238 C1240 1.353 . S
C1238 H1296 0.929 . S
C1239 C1236 1.356 . S
C1239 C1241 1.358 . S
C1239 H1297 0.930 . S
C1240 N1237 1.314 . S
C1240 C1238 1.353 . S
C1240 H1298 0.930 . S
C1241 N1237 1.279 . S
C1241 C1239 1.358 . S
C1241 H1299 0.930 . S
C1242 C1245 1.348 . S
C1242 C1246 1.356 . S
C1242 O1293 1.325 . S
C1243 N1244 1.279 . S
C1243 C1246 1.358 . S
C1243 H1300 0.930 . S
N1244 C1243 1.279 . S
N1244 C1247 1.314 . S
C1245 C1242 1.348 . S
C1245 C1247 1.353 . S
C1245 H1301 0.929 . S
C1246 C1242 1.356 . S
C1246 C1243 1.358 . S
C1246 H1302 0.930 . S
C1247 N1244 1.314 . S
C1247 C1245 1.353 . S
C1247 H1303 0.930 . S
C1248 N1249 1.314 . S
C1248 C1253 1.353 . S
C1248 H1254 0.930 . S
N1249 Li1232 1.990 . S
N1249 C1248 1.314 . S
N1249 C1251 1.279 . S
C1250 C1251 1.358 . S
C1250 C1252 1.356 . S
C1250 H1304 0.930 . S
C1251 N1249 1.279 . S
C1251 C1250 1.358 . S
C1251 H1255 0.930 . S
C1252 C1250 1.356 . S
C1252 C1253 1.348 . S
C1253 C1248 1.353 . S
C1253 C1252 1.348 . S
C1253 H1305 0.929 . S
H1254 C1248 0.930 . S
H1255 C1251 0.930 . S
C1256 N1257 1.314 . S
C1256 C1258 1.353 . S
C1256 H1262 0.930 . S
N1257 Li1233 1.990 . S
N1257 C1256 1.314 . S
N1257 C1260 1.279 . S
C1258 C1256 1.353 . S
C1258 C1261 1.348 . S
C1258 H1306 0.929 . S
C1259 C1260 1.358 . S
C1259 C1261 1.356 . S
C1259 H1307 0.930 . S
C1260 N1257 1.279 . S
C1260 C1259 1.358 . S
C1260 H1263 0.930 . S
C1261 C1258 1.348 . S
C1261 C1259 1.356 . S
H1262 C1256 0.930 . S
H1263 C1260 0.930 . S
C1264 C1266 1.348 . S
C1264 C1267 1.356 . S
C1264 O1294 1.325 . S
N1265 C1268 1.314 . S
N1265 C1269 1.279 . S
C1266 C1264 1.348 . S
C1266 C1268 1.353 . S
C1266 H1308 0.929 . S
C1267 C1264 1.356 . S
C1267 C1269 1.358 . S
C1267 H1309 0.930 . S
C1268 N1265 1.314 . S
C1268 C1266 1.353 . S
C1268 H1310 0.930 . S
C1269 N1265 1.279 . S
C1269 C1267 1.358 . S
C1269 H1311 0.930 . S
C1270 C1271 1.348 . S
C1270 C1272 1.356 . S
C1270 O1295 1.325 . S
C1271 C1270 1.348 . S
C1271 C1273 1.353 . S
C1271 H1312 0.929 . S
C1272 C1270 1.356 . S
C1272 C1274 1.358 . S
C1272 H1313 0.930 . S
C1273 C1271 1.353 . S
C1273 N1275 1.314 . S
C1273 H1314 0.930 . S
C1274 C1272 1.358 . S
C1274 N1275 1.279 . S
C1274 H1315 0.930 . S
N1275 C1273 1.314 . S
N1275 C1274 1.279 . S
C1276 C1278 1.353 . S
C1276 N1279 1.314 . S
C1276 H1282 0.930 . S
C1277 N1279 1.279 . S
C1277 C1280 1.358 . S
C1277 H1283 0.930 . S
C1278 C1276 1.353 . S
C1278 C1281 1.348 . S
C1278 H1316 0.929 . S
N1279 Li1234 1.990 . S
N1279 C1276 1.314 . S
N1279 C1277 1.279 . S
C1280 C1277 1.358 . S
C1280 C1281 1.356 . S
C1280 H1317 0.930 . S
C1281 C1278 1.348 . S
C1281 C1280 1.356 . S
H1282 C1276 0.930 . S
H1283 C1277 0.930 . S
C1284 N1285 1.314 . S
C1284 C1286 1.353 . S
C1284 H1290 0.930 . S
N1285 Li1235 1.990 . S
N1285 C1284 1.314 . S
N1285 C1288 1.279 . S
C1286 C1284 1.353 . S
C1286 C1289 1.348 . S
C1286 H1318 0.929 . S
C1287 C1288 1.358 . S
C1287 C1289 1.356 . S
C1287 H1319 0.930 . S
C1288 N1285 1.279 . S
C1288 C1287 1.358 . S
C1288 H1291 0.930 . S
C1289 C1286 1.348 . S
C1289 C1287 1.356 . S
H1290 C1284 0.930 . S
H1291 C1288 0.930 . S
O1292 Li1232 1.956 . S
O1292 Li1233 1.970 . S
O1292 Li1234 1.961 . S
O1292 C1236 1.325 . S
O1293 Li1232 1.970 . S
O1293 Li1233 1.956 . S
O1293 Li1235 1.961 . S
O1293 C1242 1.325 . S
O1294 Li1232 1.961 . S
O1294 Li1234 1.956 . S
O1294 Li1235 1.970 . S
O1294 C1264 1.325 . S
O1295 Li1233 1.961 . S
O1295 Li1234 1.970 . S
O1295 Li1235 1.956 . S
O1295 C1270 1.325 . S
H1296 C1238 0.929 . S
H1297 C1239 0.930 . S
H1298 C1240 0.930 . S
H1299 C1241 0.930 . S
H1300 C1243 0.930 . S
H1301 C1245 0.929 . S
H1302 C1246 0.930 . S
H1303 C1247 0.930 . S
H1304 C1250 0.930 . S
H1305 C1253 0.929 . S
H1306 C1258 0.929 . S
H1307 C1259 0.930 . S
H1308 C1266 0.929 . S
H1309 C1267 0.930 . S
H1310 C1268 0.930 . S
H1311 C1269 0.930 . S
H1312 C1271 0.929 . S
H1313 C1272 0.930 . S
H1314 C1273 0.930 . S
H1315 C1274 0.930 . S
H1316 C1278 0.929 . S
H1317 C1280 0.930 . S
H1318 C1286 0.929 . S
H1319 C1287 0.930 . S
Li1320 N1337 1.990 . S
Li1320 O1380 1.956 . S
Li1320 O1381 1.970 . S
Li1320 O1382 1.961 . S
Li1321 N1345 1.990 . S
Li1321 O1380 1.970 . S
Li1321 O1381 1.956 . S
Li1321 O1383 1.961 . S
Li1322 N1367 1.990 . S
Li1322 O1380 1.961 . S
Li1322 O1382 1.956 . S
Li1322 O1383 1.970 . S
Li1323 N1373 1.990 . S
Li1323 O1381 1.961 . S
Li1323 O1382 1.970 . S
Li1323 O1383 1.956 . S
C1324 C1326 1.348 . S
C1324 C1327 1.356 . S
C1324 O1380 1.325 . S
N1325 C1328 1.314 . S
N1325 C1329 1.279 . S
C1326 C1324 1.348 . S
C1326 C1328 1.353 . S
C1326 H1384 0.929 . S
C1327 C1324 1.356 . S
C1327 C1329 1.358 . S
C1327 H1385 0.930 . S
C1328 N1325 1.314 . S
C1328 C1326 1.353 . S
C1328 H1386 0.930 . S
C1329 N1325 1.279 . S
C1329 C1327 1.358 . S
C1329 H1387 0.930 . S
C1330 C1333 1.348 . S
C1330 C1334 1.356 . S
C1330 O1381 1.325 . S
C1331 N1332 1.279 . S
C1331 C1334 1.358 . S
C1331 H1388 0.930 . S
N1332 C1331 1.279 . S
N1332 C1335 1.314 . S
C1333 C1330 1.348 . S
C1333 C1335 1.353 . S
C1333 H1389 0.929 . S
C1334 C1330 1.356 . S
C1334 C1331 1.358 . S
C1334 H1390 0.930 . S
C1335 N1332 1.314 . S
C1335 C1333 1.353 . S
C1335 H1391 0.930 . S
C1336 N1337 1.314 . S
C1336 C1341 1.353 . S
C1336 H1342 0.930 . S
N1337 Li1320 1.990 . S
N1337 C1336 1.314 . S
N1337 C1339 1.279 . S
C1338 C1339 1.358 . S
C1338 C1340 1.356 . S
C1338 H1392 0.930 . S
C1339 N1337 1.279 . S
C1339 C1338 1.358 . S
C1339 H1343 0.930 . S
C1340 C1338 1.356 . S
C1340 C1341 1.348 . S
C1341 C1336 1.353 . S
C1341 C1340 1.348 . S
C1341 H1393 0.929 . S
H1342 C1336 0.930 . S
H1343 C1339 0.930 . S
C1344 N1345 1.314 . S
C1344 C1346 1.353 . S
C1344 H1350 0.930 . S
N1345 Li1321 1.990 . S
N1345 C1344 1.314 . S
N1345 C1348 1.279 . S
C1346 C1344 1.353 . S
C1346 C1349 1.348 . S
C1346 H1394 0.929 . S
C1347 C1348 1.358 . S
C1347 C1349 1.356 . S
C1347 H1395 0.930 . S
C1348 N1345 1.279 . S
C1348 C1347 1.358 . S
C1348 H1351 0.930 . S
C1349 C1346 1.348 . S
C1349 C1347 1.356 . S
H1350 C1344 0.930 . S
H1351 C1348 0.930 . S
C1352 C1354 1.348 . S
C1352 C1355 1.356 . S
C1352 O1382 1.325 . S
N1353 C1356 1.314 . S
N1353 C1357 1.279 . S
C1354 C1352 1.348 . S
C1354 C1356 1.353 . S
C1354 H1396 0.929 . S
C1355 C1352 1.356 . S
C1355 C1357 1.358 . S
C1355 H1397 0.930 . S
C1356 N1353 1.314 . S
C1356 C1354 1.353 . S
C1356 H1398 0.930 . S
C1357 N1353 1.279 . S
C1357 C1355 1.358 . S
C1357 H1399 0.930 . S
C1358 C1359 1.348 . S
C1358 C1360 1.356 . S
C1358 O1383 1.325 . S
C1359 C1358 1.348 . S
C1359 C1361 1.353 . S
C1359 H1400 0.929 . S
C1360 C1358 1.356 . S
C1360 C1362 1.358 . S
C1360 H1401 0.930 . S
C1361 C1359 1.353 . S
C1361 N1363 1.314 . S
C1361 H1402 0.930 . S
C1362 C1360 1.358 . S
C1362 N1363 1.279 . S
C1362 H1403 0.930 . S
N1363 C1361 1.314 . S
N1363 C1362 1.279 . S
C1364 C1366 1.353 . S
C1364 N1367 1.314 . S
C1364 H1370 0.930 . S
C1365 N1367 1.279 . S
C1365 C1368 1.358 . S
C1365 H1371 0.930 . S
C1366 C1364 1.353 . S
C1366 C1369 1.348 . S
C1366 H1404 0.929 . S
N1367 Li1322 1.990 . S
N1367 C1364 1.314 . S
N1367 C1365 1.279 . S
C1368 C1365 1.358 . S
C1368 C1369 1.356 . S
C1368 H1405 0.930 . S
C1369 C1366 1.348 . S
C1369 C1368 1.356 . S
H1370 C1364 0.930 . S
H1371 C1365 0.930 . S
C1372 N1373 1.314 . S
C1372 C1374 1.353 . S
C1372 H1378 0.930 . S
N1373 Li1323 1.990 . S
N1373 C1372 1.314 . S
N1373 C1376 1.279 . S
C1374 C1372 1.353 . S
C1374 C1377 1.348 . S
C1374 H1406 0.929 . S
C1375 C1376 1.358 . S
C1375 C1377 1.356 . S
C1375 H1407 0.930 . S
C1376 N1373 1.279 . S
C1376 C1375 1.358 . S
C1376 H1379 0.930 . S
C1377 C1374 1.348 . S
C1377 C1375 1.356 . S
H1378 C1372 0.930 . S
H1379 C1376 0.930 . S
O1380 Li1320 1.956 . S
O1380 Li1321 1.970 . S
O1380 Li1322 1.961 . S
O1380 C1324 1.325 . S
O1381 Li1320 1.970 . S
O1381 Li1321 1.956 . S
O1381 Li1323 1.961 . S
O1381 C1330 1.325 . S
O1382 Li1320 1.961 . S
O1382 Li1322 1.956 . S
O1382 Li1323 1.970 . S
O1382 C1352 1.325 . S
O1383 Li1321 1.961 . S
O1383 Li1322 1.970 . S
O1383 Li1323 1.956 . S
O1383 C1358 1.325 . S
H1384 C1326 0.929 . S
H1385 C1327 0.930 . S
H1386 C1328 0.930 . S
H1387 C1329 0.930 . S
H1388 C1331 0.930 . S
H1389 C1333 0.929 . S
H1390 C1334 0.930 . S
H1391 C1335 0.930 . S
H1392 C1338 0.930 . S
H1393 C1341 0.929 . S
H1394 C1346 0.929 . S
H1395 C1347 0.930 . S
H1396 C1354 0.929 . S
H1397 C1355 0.930 . S
H1398 C1356 0.930 . S
H1399 C1357 0.930 . S
H1400 C1359 0.929 . S
H1401 C1360 0.930 . S
H1402 C1361 0.930 . S
H1403 C1362 0.930 . S
H1404 C1366 0.929 . S
H1405 C1368 0.930 . S
H1406 C1374 0.929 . S
H1407 C1375 0.930 . S
C1408 C1409 1.391 . S
C1408 C1410 1.394 . S
C1408 H1424 0.931 . S
C1409 C1408 1.391 . S
C1409 C1413 1.376 . S
C1410 C1408 1.394 . S
C1410 C1411 1.369 . S
C1410 C1414 1.531 . S
C1411 C1410 1.369 . S
C1411 C1412 1.410 . S
C1411 C1419 1.503 . S
C1412 C1411 1.410 . S
C1412 C1413 1.392 . S
C1412 C1415 1.511 . S
C1413 C1409 1.376 . S
C1413 C1412 1.392 . S
C1413 H1425 0.929 . S
C1414 C1410 1.531 . S
C1414 H1426 0.960 . S
C1414 H1427 0.962 . S
C1414 H1428 0.960 . S
C1415 C1412 1.511 . S
C1415 H1429 0.961 . S
C1415 H1430 0.961 . S
C1415 H1431 0.961 . S
C1416 C1417 1.370 . S
C1416 C1418 1.363 . S
C1416 H1432 0.931 . S
C1417 C1416 1.370 . S
C1417 C1421 1.408 . S
C1418 C1416 1.363 . S
C1418 C1419 1.370 . S
C1418 C1422 1.524 . S
C1419 C1411 1.503 . S
C1419 C1418 1.370 . S
C1419 C1420 1.403 . S
C1420 C1419 1.403 . S
C1420 C1421 1.404 . S
C1420 C1423 1.539 . S
C1421 C1417 1.408 . S
C1421 C1420 1.404 . S
C1421 H1433 0.930 . S
C1422 C1418 1.524 . S
C1422 H1434 0.956 . S
C1422 H1435 0.961 . S
C1422 H1436 0.961 . S
C1423 C1420 1.539 . S
C1423 H1437 0.958 . S
C1423 H1438 0.961 . S
C1423 H1439 0.960 . S
H1424 C1408 0.931 . S
H1425 C1413 0.929 . S
H1426 C1414 0.960 . S
H1427 C1414 0.962 . S
H1428 C1414 0.960 . S
H1429 C1415 0.961 . S
H1430 C1415 0.961 . S
H1431 C1415 0.961 . S
H1432 C1416 0.931 . S
H1433 C1421 0.930 . S
H1434 C1422 0.956 . S
H1435 C1422 0.961 . S
H1436 C1422 0.961 . S
H1437 C1423 0.958 . S
H1438 C1423 0.961 . S
H1439 C1423 0.960 . S
C1440 C1441 1.391 . S
C1440 C1442 1.394 . S
C1440 H1456 0.931 . S
C1441 C1440 1.391 . S
C1441 C1445 1.376 . S
C1442 C1440 1.394 . S
C1442 C1443 1.369 . S
C1442 C1446 1.531 . S
C1443 C1442 1.369 . S
C1443 C1444 1.410 . S
C1443 C1451 1.503 . S
C1444 C1443 1.410 . S
C1444 C1445 1.392 . S
C1444 C1447 1.511 . S
C1445 C1441 1.376 . S
C1445 C1444 1.392 . S
C1445 H1457 0.929 . S
C1446 C1442 1.531 . S
C1446 H1458 0.960 . S
C1446 H1459 0.962 . S
C1446 H1460 0.960 . S
C1447 C1444 1.511 . S
C1447 H1461 0.961 . S
C1447 H1462 0.961 . S
C1447 H1463 0.961 . S
C1448 C1449 1.370 . S
C1448 C1450 1.363 . S
C1448 H1464 0.931 . S
C1449 C1448 1.370 . S
C1449 C1453 1.408 . S
C1450 C1448 1.363 . S
C1450 C1451 1.370 . S
C1450 C1454 1.524 . S
C1451 C1443 1.503 . S
C1451 C1450 1.370 . S
C1451 C1452 1.403 . S
C1452 C1451 1.403 . S
C1452 C1453 1.404 . S
C1452 C1455 1.539 . S
C1453 C1449 1.408 . S
C1453 C1452 1.404 . S
C1453 H1465 0.930 . S
C1454 C1450 1.524 . S
C1454 H1466 0.956 . S
C1454 H1467 0.961 . S
C1454 H1468 0.961 . S
C1455 C1452 1.539 . S
C1455 H1469 0.958 . S
C1455 H1470 0.961 . S
C1455 H1471 0.960 . S
H1456 C1440 0.931 . S
H1457 C1445 0.929 . S
H1458 C1446 0.960 . S
H1459 C1446 0.962 . S
H1460 C1446 0.960 . S
H1461 C1447 0.961 . S
H1462 C1447 0.961 . S
H1463 C1447 0.961 . S
H1464 C1448 0.931 . S
H1465 C1453 0.930 . S
H1466 C1454 0.956 . S
H1467 C1454 0.961 . S
H1468 C1454 0.961 . S
H1469 C1455 0.958 . S
H1470 C1455 0.961 . S
H1471 C1455 0.960 . S
C1472 C1473 1.391 . S
C1472 C1474 1.394 . S
C1472 H1488 0.931 . S
C1473 C1472 1.391 . S
C1473 C1477 1.376 . S
C1474 C1472 1.394 . S
C1474 C1475 1.369 . S
C1474 C1478 1.531 . S
C1475 C1474 1.369 . S
C1475 C1476 1.410 . S
C1475 C1483 1.503 . S
C1476 C1475 1.410 . S
C1476 C1477 1.392 . S
C1476 C1479 1.511 . S
C1477 C1473 1.376 . S
C1477 C1476 1.392 . S
C1477 H1489 0.929 . S
C1478 C1474 1.531 . S
C1478 H1490 0.960 . S
C1478 H1491 0.962 . S
C1478 H1492 0.960 . S
C1479 C1476 1.511 . S
C1479 H1493 0.961 . S
C1479 H1494 0.961 . S
C1479 H1495 0.961 . S
C1480 C1481 1.370 . S
C1480 C1482 1.363 . S
C1480 H1496 0.931 . S
C1481 C1480 1.370 . S
C1481 C1485 1.408 . S
C1482 C1480 1.363 . S
C1482 C1483 1.370 . S
C1482 C1486 1.524 . S
C1483 C1475 1.503 . S
C1483 C1482 1.370 . S
C1483 C1484 1.403 . S
C1484 C1483 1.403 . S
C1484 C1485 1.404 . S
C1484 C1487 1.539 . S
C1485 C1481 1.408 . S
C1485 C1484 1.404 . S
C1485 H1497 0.930 . S
C1486 C1482 1.524 . S
C1486 H1498 0.956 . S
C1486 H1499 0.961 . S
C1486 H1500 0.961 . S
C1487 C1484 1.539 . S
C1487 H1501 0.958 . S
C1487 H1502 0.961 . S
C1487 H1503 0.960 . S
H1488 C1472 0.931 . S
H1489 C1477 0.929 . S
H1490 C1478 0.960 . S
H1491 C1478 0.962 . S
H1492 C1478 0.960 . S
H1493 C1479 0.961 . S
H1494 C1479 0.961 . S
H1495 C1479 0.961 . S
H1496 C1480 0.931 . S
H1497 C1485 0.930 . S
H1498 C1486 0.956 . S
H1499 C1486 0.961 . S
H1500 C1486 0.961 . S
H1501 C1487 0.958 . S
H1502 C1487 0.961 . S
H1503 C1487 0.960 . S
C1504 C1505 1.391 . S
C1504 C1506 1.394 . S
C1504 H1520 0.931 . S
C1505 C1504 1.391 . S
C1505 C1509 1.376 . S
C1506 C1504 1.394 . S
C1506 C1507 1.369 . S
C1506 C1510 1.531 . S
C1507 C1506 1.369 . S
C1507 C1508 1.410 . S
C1507 C1515 1.503 . S
C1508 C1507 1.410 . S
C1508 C1509 1.392 . S
C1508 C1511 1.511 . S
C1509 C1505 1.376 . S
C1509 C1508 1.392 . S
C1509 H1521 0.929 . S
C1510 C1506 1.531 . S
C1510 H1522 0.960 . S
C1510 H1523 0.962 . S
C1510 H1524 0.960 . S
C1511 C1508 1.511 . S
C1511 H1525 0.961 . S
C1511 H1526 0.961 . S
C1511 H1527 0.961 . S
C1512 C1513 1.370 . S
C1512 C1514 1.363 . S
C1512 H1528 0.931 . S
C1513 C1512 1.370 . S
C1513 C1517 1.408 . S
C1514 C1512 1.363 . S
C1514 C1515 1.370 . S
C1514 C1518 1.524 . S
C1515 C1507 1.503 . S
C1515 C1514 1.370 . S
C1515 C1516 1.403 . S
C1516 C1515 1.403 . S
C1516 C1517 1.404 . S
C1516 C1519 1.539 . S
C1517 C1513 1.408 . S
C1517 C1516 1.404 . S
C1517 H1529 0.930 . S
C1518 C1514 1.524 . S
C1518 H1530 0.956 . S
C1518 H1531 0.961 . S
C1518 H1532 0.961 . S
C1519 C1516 1.539 . S
C1519 H1533 0.958 . S
C1519 H1534 0.961 . S
C1519 H1535 0.960 . S
H1520 C1504 0.931 . S
H1521 C1509 0.929 . S
H1522 C1510 0.960 . S
H1523 C1510 0.962 . S
H1524 C1510 0.960 . S
H1525 C1511 0.961 . S
H1526 C1511 0.961 . S
H1527 C1511 0.961 . S
H1528 C1512 0.931 . S
H1529 C1517 0.930 . S
H1530 C1518 0.956 . S
H1531 C1518 0.961 . S
H1532 C1518 0.961 . S
H1533 C1519 0.958 . S
H1534 C1519 0.961 . S
H1535 C1519 0.960 . S
C1536 C1537 1.391 . S
C1536 C1538 1.394 . S
C1536 H1552 0.931 . S
C1537 C1536 1.391 . S
C1537 C1541 1.376 . S
C1538 C1536 1.394 . S
C1538 C1539 1.369 . S
C1538 C1542 1.531 . S
C1539 C1538 1.369 . S
C1539 C1540 1.410 . S
C1539 C1547 1.503 . S
C1540 C1539 1.410 . S
C1540 C1541 1.392 . S
C1540 C1543 1.511 . S
C1541 C1537 1.376 . S
C1541 C1540 1.392 . S
C1541 H1553 0.929 . S
C1542 C1538 1.531 . S
C1542 H1554 0.960 . S
C1542 H1555 0.962 . S
C1542 H1556 0.960 . S
C1543 C1540 1.511 . S
C1543 H1557 0.961 . S
C1543 H1558 0.961 . S
C1543 H1559 0.961 . S
C1544 C1545 1.370 . S
C1544 C1546 1.363 . S
C1544 H1560 0.931 . S
C1545 C1544 1.370 . S
C1545 C1549 1.408 . S
C1546 C1544 1.363 . S
C1546 C1547 1.370 . S
C1546 C1550 1.524 . S
C1547 C1539 1.503 . S
C1547 C1546 1.370 . S
C1547 C1548 1.403 . S
C1548 C1547 1.403 . S
C1548 C1549 1.404 . S
C1548 C1551 1.539 . S
C1549 C1545 1.408 . S
C1549 C1548 1.404 . S
C1549 H1561 0.930 . S
C1550 C1546 1.524 . S
C1550 H1562 0.956 . S
C1550 H1563 0.961 . S
C1550 H1564 0.961 . S
C1551 C1548 1.539 . S
C1551 H1565 0.958 . S
C1551 H1566 0.961 . S
C1551 H1567 0.960 . S
H1552 C1536 0.931 . S
H1553 C1541 0.929 . S
H1554 C1542 0.960 . S
H1555 C1542 0.962 . S
H1556 C1542 0.960 . S
H1557 C1543 0.961 . S
H1558 C1543 0.961 . S
H1559 C1543 0.961 . S
H1560 C1544 0.931 . S
H1561 C1549 0.930 . S
H1562 C1550 0.956 . S
H1563 C1550 0.961 . S
H1564 C1550 0.961 . S
H1565 C1551 0.958 . S
H1566 C1551 0.961 . S
H1567 C1551 0.960 . S
C1568 C1569 1.391 . S
C1568 C1570 1.394 . S
C1568 H1584 0.931 . S
C1569 C1568 1.391 . S
C1569 C1573 1.376 . S
C1570 C1568 1.394 . S
C1570 C1571 1.369 . S
C1570 C1574 1.531 . S
C1571 C1570 1.369 . S
C1571 C1572 1.410 . S
C1571 C1579 1.503 . S
C1572 C1571 1.410 . S
C1572 C1573 1.392 . S
C1572 C1575 1.511 . S
C1573 C1569 1.376 . S
C1573 C1572 1.392 . S
C1573 H1585 0.929 . S
C1574 C1570 1.531 . S
C1574 H1586 0.960 . S
C1574 H1587 0.962 . S
C1574 H1588 0.960 . S
C1575 C1572 1.511 . S
C1575 H1589 0.961 . S
C1575 H1590 0.961 . S
C1575 H1591 0.961 . S
C1576 C1577 1.370 . S
C1576 C1578 1.363 . S
C1576 H1592 0.931 . S
C1577 C1576 1.370 . S
C1577 C1581 1.408 . S
C1578 C1576 1.363 . S
C1578 C1579 1.370 . S
C1578 C1582 1.524 . S
C1579 C1571 1.503 . S
C1579 C1578 1.370 . S
C1579 C1580 1.403 . S
C1580 C1579 1.403 . S
C1580 C1581 1.404 . S
C1580 C1583 1.539 . S
C1581 C1577 1.408 . S
C1581 C1580 1.404 . S
C1581 H1593 0.930 . S
C1582 C1578 1.524 . S
C1582 H1594 0.956 . S
C1582 H1595 0.961 . S
C1582 H1596 0.961 . S
C1583 C1580 1.539 . S
C1583 H1597 0.958 . S
C1583 H1598 0.961 . S
C1583 H1599 0.960 . S
H1584 C1568 0.931 . S
H1585 C1573 0.929 . S
H1586 C1574 0.960 . S
H1587 C1574 0.962 . S
H1588 C1574 0.960 . S
H1589 C1575 0.961 . S
H1590 C1575 0.961 . S
H1591 C1575 0.961 . S
H1592 C1576 0.931 . S
H1593 C1581 0.930 . S
H1594 C1582 0.956 . S
H1595 C1582 0.961 . S
H1596 C1582 0.961 . S
H1597 C1583 0.958 . S
H1598 C1583 0.961 . S
H1599 C1583 0.960 . S
C1600 C1601 1.391 . S
C1600 C1602 1.394 . S
C1600 H1616 0.931 . S
C1601 C1600 1.391 . S
C1601 C1605 1.376 . S
C1602 C1600 1.394 . S
C1602 C1603 1.369 . S
C1602 C1606 1.531 . S
C1603 C1602 1.369 . S
C1603 C1604 1.410 . S
C1603 C1611 1.503 . S
C1604 C1603 1.410 . S
C1604 C1605 1.392 . S
C1604 C1607 1.511 . S
C1605 C1601 1.376 . S
C1605 C1604 1.392 . S
C1605 H1617 0.929 . S
C1606 C1602 1.531 . S
C1606 H1618 0.960 . S
C1606 H1619 0.962 . S
C1606 H1620 0.960 . S
C1607 C1604 1.511 . S
C1607 H1621 0.961 . S
C1607 H1622 0.961 . S
C1607 H1623 0.961 . S
C1608 C1609 1.370 . S
C1608 C1610 1.363 . S
C1608 H1624 0.931 . S
C1609 C1608 1.370 . S
C1609 C1613 1.408 . S
C1610 C1608 1.363 . S
C1610 C1611 1.370 . S
C1610 C1614 1.524 . S
C1611 C1603 1.503 . S
C1611 C1610 1.370 . S
C1611 C1612 1.403 . S
C1612 C1611 1.403 . S
C1612 C1613 1.404 . S
C1612 C1615 1.539 . S
C1613 C1609 1.408 . S
C1613 C1612 1.404 . S
C1613 H1625 0.930 . S
C1614 C1610 1.524 . S
C1614 H1626 0.956 . S
C1614 H1627 0.961 . S
C1614 H1628 0.961 . S
C1615 C1612 1.539 . S
C1615 H1629 0.958 . S
C1615 H1630 0.961 . S
C1615 H1631 0.960 . S
H1616 C1600 0.931 . S
H1617 C1605 0.929 . S
H1618 C1606 0.960 . S
H1619 C1606 0.962 . S
H1620 C1606 0.960 . S
H1621 C1607 0.961 . S
H1622 C1607 0.961 . S
H1623 C1607 0.961 . S
H1624 C1608 0.931 . S
H1625 C1613 0.930 . S
H1626 C1614 0.956 . S
H1627 C1614 0.961 . S
H1628 C1614 0.961 . S
H1629 C1615 0.958 . S
H1630 C1615 0.961 . S
H1631 C1615 0.960 . S
C1632 C1633 1.391 . S
C1632 C1634 1.394 . S
C1632 H1648 0.931 . S
C1633 C1632 1.391 . S
C1633 C1637 1.376 . S
C1634 C1632 1.394 . S
C1634 C1635 1.369 . S
C1634 C1638 1.531 . S
C1635 C1634 1.369 . S
C1635 C1636 1.410 . S
C1635 C1643 1.503 . S
C1636 C1635 1.410 . S
C1636 C1637 1.392 . S
C1636 C1639 1.511 . S
C1637 C1633 1.376 . S
C1637 C1636 1.392 . S
C1637 H1649 0.929 . S
C1638 C1634 1.531 . S
C1638 H1650 0.960 . S
C1638 H1651 0.962 . S
C1638 H1652 0.960 . S
C1639 C1636 1.511 . S
C1639 H1653 0.961 . S
C1639 H1654 0.961 . S
C1639 H1655 0.961 . S
C1640 C1641 1.370 . S
C1640 C1642 1.363 . S
C1640 H1656 0.931 . S
C1641 C1640 1.370 . S
C1641 C1645 1.408 . S
C1642 C1640 1.363 . S
C1642 C1643 1.370 . S
C1642 C1646 1.524 . S
C1643 C1635 1.503 . S
C1643 C1642 1.370 . S
C1643 C1644 1.403 . S
C1644 C1643 1.403 . S
C1644 C1645 1.404 . S
C1644 C1647 1.539 . S
C1645 C1641 1.408 . S
C1645 C1644 1.404 . S
C1645 H1657 0.930 . S
C1646 C1642 1.524 . S
C1646 H1658 0.956 . S
C1646 H1659 0.961 . S
C1646 H1660 0.961 . S
C1647 C1644 1.539 . S
C1647 H1661 0.958 . S
C1647 H1662 0.961 . S
C1647 H1663 0.960 . S
H1648 C1632 0.931 . S
H1649 C1637 0.929 . S
H1650 C1638 0.960 . S
H1651 C1638 0.962 . S
H1652 C1638 0.960 . S
H1653 C1639 0.961 . S
H1654 C1639 0.961 . S
H1655 C1639 0.961 . S
H1656 C1640 0.931 . S
H1657 C1645 0.930 . S
H1658 C1646 0.956 . S
H1659 C1646 0.961 . S
H1660 C1646 0.961 . S
H1661 C1647 0.958 . S
H1662 C1647 0.961 . S
H1663 C1647 0.960 . S
C1664 C1665 1.391 . S
C1664 C1666 1.394 . S
C1664 H1680 0.931 . S
C1665 C1664 1.391 . S
C1665 C1669 1.376 . S
C1666 C1664 1.394 . S
C1666 C1667 1.369 . S
C1666 C1670 1.531 . S
C1667 C1666 1.369 . S
C1667 C1668 1.410 . S
C1667 C1675 1.503 1_556 S
C1668 C1667 1.410 . S
C1668 C1669 1.392 . S
C1668 C1671 1.511 . S
C1669 C1665 1.376 . S
C1669 C1668 1.392 . S
C1669 H1681 0.929 . S
C1670 C1666 1.531 . S
C1670 H1682 0.960 1_556 S
C1670 H1683 0.962 . S
C1670 H1684 0.960 . S
C1671 C1668 1.511 . S
C1671 H1685 0.961 . S
C1671 H1686 0.961 1_556 S
C1671 H1687 0.961 . S
C1672 C1673 1.370 . S
C1672 C1674 1.363 . S
C1672 H1688 0.931 . S
C1673 C1672 1.370 . S
C1673 C1677 1.408 . S
C1674 C1672 1.363 . S
C1674 C1675 1.370 . S
C1674 C1678 1.524 . S
C1675 C1667 1.503 1_554 S
C1675 C1674 1.370 . S
C1675 C1676 1.403 . S
C1676 C1675 1.403 . S
C1676 C1677 1.404 . S
C1676 C1679 1.539 . S
C1677 C1673 1.408 . S
C1677 C1676 1.404 . S
C1677 H1689 0.930 . S
C1678 C1674 1.524 . S
C1678 H1690 0.981 . S
C1678 H1691 0.961 1_554 S
C1678 H1692 0.961 . S
C1679 C1676 1.539 . S
C1679 H1693 0.958 . S
C1679 H1694 0.961 . S
C1679 H1695 0.960 1_554 S
H1680 C1664 0.931 . S
H1681 C1669 0.929 . S
H1682 C1670 0.960 1_554 S
H1683 C1670 0.962 . S
H1684 C1670 0.960 . S
H1685 C1671 0.961 . S
H1686 C1671 0.961 1_554 S
H1687 C1671 0.961 . S
H1688 C1672 0.931 . S
H1689 C1677 0.930 . S
H1690 C1678 0.981 . S
H1691 C1678 0.961 1_556 S
H1692 C1678 0.961 . S
H1693 C1679 0.958 . S
H1694 C1679 0.961 . S
H1695 C1679 0.960 1_556 S
C1696 C1697 1.391 . S
C1696 C1698 1.394 . S
C1696 H1712 0.931 . S
C1697 C1696 1.391 . S
C1697 C1701 1.376 . S
C1698 C1696 1.394 . S
C1698 C1699 1.369 . S
C1698 C1702 1.531 . S
C1699 C1698 1.369 . S
C1699 C1700 1.410 . S
C1699 C1707 1.503 1_556 S
C1700 C1699 1.410 . S
C1700 C1701 1.392 . S
C1700 C1703 1.511 . S
C1701 C1697 1.376 . S
C1701 C1700 1.392 . S
C1701 H1713 0.929 . S
C1702 C1698 1.531 . S
C1702 H1714 0.960 1_556 S
C1702 H1715 0.962 . S
C1702 H1716 0.960 . S
C1703 C1700 1.511 . S
C1703 H1717 0.961 . S
C1703 H1718 0.961 1_556 S
C1703 H1719 0.961 . S
C1704 C1705 1.370 . S
C1704 C1706 1.363 . S
C1704 H1720 0.931 . S
C1705 C1704 1.370 . S
C1705 C1709 1.408 . S
C1706 C1704 1.363 . S
C1706 C1707 1.370 . S
C1706 C1710 1.524 . S
C1707 C1699 1.503 1_554 S
C1707 C1706 1.370 . S
C1707 C1708 1.403 . S
C1708 C1707 1.403 . S
C1708 C1709 1.404 . S
C1708 C1711 1.539 . S
C1709 C1705 1.408 . S
C1709 C1708 1.404 . S
C1709 H1721 0.930 . S
C1710 C1706 1.524 . S
C1710 H1722 0.956 . S
C1710 H1723 0.931 1_554 S
C1710 H1724 0.961 . S
C1711 C1708 1.539 . S
C1711 H1725 0.958 . S
C1711 H1726 0.961 . S
C1711 H1727 0.960 . S
H1712 C1696 0.931 . S
H1713 C1701 0.929 . S
H1714 C1702 0.960 1_554 S
H1715 C1702 0.962 . S
H1716 C1702 0.960 . S
H1717 C1703 0.961 . S
H1718 C1703 0.961 1_554 S
H1719 C1703 0.961 . S
H1720 C1704 0.931 . S
H1721 C1709 0.930 . S
H1722 C1710 0.956 . S
H1723 C1710 0.931 1_556 S
H1724 C1710 0.961 . S
H1725 C1711 0.958 . S
H1726 C1711 0.961 . S
H1727 C1711 0.960 . S
C1728 C1729 1.391 . S
C1728 C1730 1.394 . S
C1728 H1744 0.931 . S
C1729 C1728 1.391 . S
C1729 C1733 1.376 . S
C1730 C1728 1.394 . S
C1730 C1731 1.369 . S
C1730 C1734 1.531 . S
C1731 C1730 1.369 . S
C1731 C1732 1.410 . S
C1731 C1739 1.503 1_556 S
C1732 C1731 1.410 . S
C1732 C1733 1.392 . S
C1732 C1735 1.511 . S
C1733 C1729 1.376 . S
C1733 C1732 1.392 . S
C1733 H1745 0.929 . S
C1734 C1730 1.531 . S
C1734 H1746 0.960 1_556 S
C1734 H1747 0.962 . S
C1734 H1748 0.960 . S
C1735 C1732 1.511 . S
C1735 H1749 0.961 . S
C1735 H1750 0.961 1_556 S
C1735 H1751 0.961 . S
C1736 C1737 1.370 . S
C1736 C1738 1.363 . S
C1736 H1752 0.931 . S
C1737 C1736 1.370 . S
C1737 C1741 1.408 . S
C1738 C1736 1.363 . S
C1738 C1739 1.370 . S
C1738 C1742 1.524 . S
C1739 C1731 1.503 1_554 S
C1739 C1738 1.370 . S
C1739 C1740 1.403 . S
C1740 C1739 1.403 . S
C1740 C1741 1.404 . S
C1740 C1743 1.539 . S
C1741 C1737 1.408 . S
C1741 C1740 1.404 . S
C1741 H1753 0.930 . S
C1742 C1738 1.524 . S
C1742 H1754 0.956 . S
C1742 H1755 0.926 1_554 S
C1742 H1756 0.961 . S
C1743 C1740 1.539 . S
C1743 H1757 0.958 . S
C1743 H1758 0.961 . S
C1743 H1759 0.959 1_554 S
H1744 C1728 0.931 . S
H1745 C1733 0.929 . S
H1746 C1734 0.960 1_554 S
H1747 C1734 0.962 . S
H1748 C1734 0.960 . S
H1749 C1735 0.961 . S
H1750 C1735 0.961 1_554 S
H1751 C1735 0.961 . S
H1752 C1736 0.931 . S
H1753 C1741 0.930 . S
H1754 C1742 0.956 . S
H1755 C1742 0.926 1_556 S
H1756 C1742 0.961 . S
H1757 C1743 0.958 . S
H1758 C1743 0.961 . S
H1759 C1743 0.959 1_556 S
C1760 C1761 1.391 . S
C1760 C1762 1.394 . S
C1760 H1776 0.931 . S
C1761 C1760 1.391 . S
C1761 C1765 1.376 . S
C1762 C1760 1.394 . S
C1762 C1763 1.369 . S
C1762 C1766 1.531 . S
C1763 C1762 1.369 . S
C1763 C1764 1.410 . S
C1763 C1771 1.503 1_554 S
C1764 C1763 1.410 . S
C1764 C1765 1.392 . S
C1764 C1767 1.511 . S
C1765 C1761 1.376 . S
C1765 C1764 1.392 . S
C1765 H1777 0.929 . S
C1766 C1762 1.531 . S
C1766 H1778 0.960 1_554 S
C1766 H1779 0.962 . S
C1766 H1780 0.960 . S
C1767 C1764 1.511 . S
C1767 H1781 0.961 . S
C1767 H1782 0.961 1_554 S
C1767 H1783 0.961 . S
C1768 C1769 1.370 . S
C1768 C1770 1.363 . S
C1768 H1784 0.931 . S
C1769 C1768 1.370 . S
C1769 C1773 1.408 . S
C1770 C1768 1.363 . S
C1770 C1771 1.370 . S
C1770 C1774 1.524 . S
C1771 C1763 1.503 1_556 S
C1771 C1770 1.370 . S
C1771 C1772 1.403 . S
C1772 C1771 1.403 . S
C1772 C1773 1.404 . S
C1772 C1775 1.539 . S
C1773 C1769 1.408 . S
C1773 C1772 1.404 . S
C1773 H1785 0.930 . S
C1774 C1770 1.524 . S
C1774 H1786 0.956 . S
C1774 H1787 0.931 1_556 S
C1774 H1788 0.961 . S
C1775 C1772 1.539 . S
C1775 H1789 0.958 . S
C1775 H1790 0.961 . S
C1775 H1791 0.986 . S
H1776 C1760 0.931 . S
H1777 C1765 0.929 . S
H1778 C1766 0.960 1_556 S
H1779 C1766 0.962 . S
H1780 C1766 0.960 . S
H1781 C1767 0.961 . S
H1782 C1767 0.961 1_556 S
H1783 C1767 0.961 . S
H1784 C1768 0.931 . S
H1785 C1773 0.930 . S
H1786 C1774 0.956 . S
H1787 C1774 0.931 1_554 S
H1788 C1774 0.961 . S
H1789 C1775 0.958 . S
H1790 C1775 0.961 . S
H1791 C1775 0.986 . S
C1792 C1793 1.391 . S
C1792 C1794 1.394 . S
C1792 H1808 0.931 . S
C1793 C1792 1.391 . S
C1793 C1797 1.376 . S
C1794 C1792 1.394 . S
C1794 C1795 1.369 . S
C1794 C1798 1.531 . S
C1795 C1794 1.369 . S
C1795 C1796 1.410 . S
C1795 C1803 1.503 1_455 S
C1796 C1795 1.410 . S
C1796 C1797 1.392 . S
C1796 C1799 1.511 . S
C1797 C1793 1.376 . S
C1797 C1796 1.392 . S
C1797 H1809 0.929 . S
C1798 C1794 1.531 . S
C1798 H1810 0.960 1_455 S
C1798 H1811 0.962 . S
C1798 H1812 0.960 . S
C1799 C1796 1.511 . S
C1799 H1813 0.961 . S
C1799 H1814 0.961 1_455 S
C1799 H1815 0.961 . S
C1800 C1801 1.370 . S
C1800 C1802 1.363 . S
C1800 H1816 0.931 . S
C1801 C1800 1.370 . S
C1801 C1805 1.408 . S
C1802 C1800 1.363 . S
C1802 C1803 1.370 . S
C1802 C1806 1.524 . S
C1803 C1795 1.503 1_655 S
C1803 C1802 1.370 . S
C1803 C1804 1.403 . S
C1804 C1803 1.403 . S
C1804 C1805 1.404 . S
C1804 C1807 1.539 . S
C1805 C1801 1.408 . S
C1805 C1804 1.404 . S
C1805 H1817 0.930 . S
C1806 C1802 1.524 . S
C1806 H1818 0.989 . S
C1806 H1819 0.927 1_655 S
C1806 H1820 0.961 . S
C1807 C1804 1.539 . S
C1807 H1821 0.958 . S
C1807 H1822 0.961 . S
C1807 H1823 0.981 . S
H1808 C1792 0.931 . S
H1809 C1797 0.929 . S
H1810 C1798 0.960 1_655 S
H1811 C1798 0.962 . S
H1812 C1798 0.960 . S
H1813 C1799 0.961 . S
H1814 C1799 0.961 1_655 S
H1815 C1799 0.961 . S
H1816 C1800 0.931 . S
H1817 C1805 0.930 . S
H1818 C1806 0.989 . S
H1819 C1806 0.927 1_455 S
H1820 C1806 0.961 . S
H1821 C1807 0.958 . S
H1822 C1807 0.961 . S
H1823 C1807 0.981 . S
C1824 C1825 1.391 . S
C1824 C1826 1.394 . S
C1824 H1840 0.931 . S
C1825 C1824 1.391 . S
C1825 C1829 1.376 . S
C1826 C1824 1.394 . S
C1826 C1827 1.369 . S
C1826 C1830 1.531 . S
C1827 C1826 1.369 . S
C1827 C1828 1.410 . S
C1827 C1835 1.503 1_565 S
C1828 C1827 1.410 . S
C1828 C1829 1.392 . S
C1828 C1831 1.511 . S
C1829 C1825 1.376 . S
C1829 C1828 1.392 . S
C1829 H1841 0.929 . S
C1830 C1826 1.531 . S
C1830 H1842 0.960 1_565 S
C1830 H1843 0.962 . S
C1830 H1844 0.960 . S
C1831 C1828 1.511 . S
C1831 H1845 0.961 . S
C1831 H1846 0.910 1_565 S
C1831 H1847 0.961 . S
C1832 C1833 1.370 . S
C1832 C1834 1.363 . S
C1832 H1848 0.931 . S
C1833 C1832 1.370 . S
C1833 C1837 1.408 . S
C1834 C1832 1.363 . S
C1834 C1835 1.370 . S
C1834 C1838 1.524 . S
C1835 C1827 1.503 1_545 S
C1835 C1834 1.370 . S
C1835 C1836 1.403 . S
C1836 C1835 1.403 . S
C1836 C1837 1.404 . S
C1836 C1839 1.539 . S
C1837 C1833 1.408 . S
C1837 C1836 1.404 . S
C1837 H1849 0.930 . S
C1838 C1834 1.524 . S
C1838 H1850 0.961 . S
C1838 H1851 0.961 1_545 S
C1838 H1852 0.961 . S
C1839 C1836 1.539 . S
C1839 H1853 0.958 . S
C1839 H1854 0.961 . S
C1839 H1855 0.926 1_545 S
H1840 C1824 0.931 . S
H1841 C1829 0.929 . S
H1842 C1830 0.960 1_545 S
H1843 C1830 0.962 . S
H1844 C1830 0.960 . S
H1845 C1831 0.961 . S
H1846 C1831 0.910 1_545 S
H1847 C1831 0.961 . S
H1848 C1832 0.931 . S
H1849 C1837 0.930 . S
H1850 C1838 0.961 . S
H1851 C1838 0.961 1_565 S
H1852 C1838 0.961 . S
H1853 C1839 0.958 . S
H1854 C1839 0.961 . S
H1855 C1839 0.926 1_565 S
C1856 C1857 1.391 . S
C1856 C1858 1.394 . S
C1856 H1872 0.931 . S
C1857 C1856 1.391 . S
C1857 C1861 1.376 . S
C1858 C1856 1.394 . S
C1858 C1859 1.369 . S
C1858 C1862 1.531 . S
C1859 C1858 1.369 . S
C1859 C1860 1.410 . S
C1859 C1867 1.503 1_655 S
C1860 C1859 1.410 . S
C1860 C1861 1.392 . S
C1860 C1863 1.511 . S
C1861 C1857 1.376 . S
C1861 C1860 1.392 . S
C1861 H1873 0.929 . S
C1862 C1858 1.531 . S
C1862 H1874 0.960 1_655 S
C1862 H1875 0.962 . S
C1862 H1876 0.960 . S
C1863 C1860 1.511 . S
C1863 H1877 0.961 . S
C1863 H1878 0.961 1_655 S
C1863 H1879 0.961 . S
C1864 C1865 1.370 . S
C1864 C1866 1.363 . S
C1864 H1880 0.931 . S
C1865 C1864 1.370 . S
C1865 C1869 1.408 . S
C1866 C1864 1.363 . S
C1866 C1867 1.370 . S
C1866 C1870 1.524 . S
C1867 C1859 1.503 1_455 S
C1867 C1866 1.370 . S
C1867 C1868 1.403 . S
C1868 C1867 1.403 . S
C1868 C1869 1.404 . S
C1868 C1871 1.539 . S
C1869 C1865 1.408 . S
C1869 C1868 1.404 . S
C1869 H1881 0.930 . S
C1870 C1866 1.524 . S
C1870 H1882 0.956 . S
C1870 H1883 0.953 1_455 S
C1870 H1884 0.961 . S
C1871 C1868 1.539 . S
C1871 H1885 0.958 . S
C1871 H1886 0.961 . S
C1871 H1887 0.960 . S
H1872 C1856 0.931 . S
H1873 C1861 0.929 . S
H1874 C1862 0.960 1_455 S
H1875 C1862 0.962 . S
H1876 C1862 0.960 . S
H1877 C1863 0.961 . S
H1878 C1863 0.961 1_455 S
H1879 C1863 0.961 . S
H1880 C1864 0.931 . S
H1881 C1869 0.930 . S
H1882 C1870 0.956 . S
H1883 C1870 0.953 1_655 S
H1884 C1870 0.961 . S
H1885 C1871 0.958 . S
H1886 C1871 0.961 . S
H1887 C1871 0.960 . S
C1888 C1889 1.391 . S
C1888 C1890 1.394 . S
C1888 H1904 0.931 . S
C1889 C1888 1.391 . S
C1889 C1893 1.376 . S
C1890 C1888 1.394 . S
C1890 C1891 1.369 . S
C1890 C1894 1.531 . S
C1891 C1890 1.369 . S
C1891 C1892 1.410 . S
C1891 C1899 1.503 1_545 S
C1892 C1891 1.410 . S
C1892 C1893 1.392 . S
C1892 C1895 1.511 . S
C1893 C1889 1.376 . S
C1893 C1892 1.392 . S
C1893 H1905 0.929 . S
C1894 C1890 1.531 . S
C1894 H1906 0.960 1_545 S
C1894 H1907 0.962 . S
C1894 H1908 0.960 . S
C1895 C1892 1.511 . S
C1895 H1909 0.961 . S
C1895 H1910 0.961 1_545 S
C1895 H1911 0.961 . S
C1896 C1897 1.370 . S
C1896 C1898 1.363 . S
C1896 H1912 0.931 . S
C1897 C1896 1.370 . S
C1897 C1901 1.408 . S
C1898 C1896 1.363 . S
C1898 C1899 1.370 . S
C1898 C1902 1.524 . S
C1899 C1891 1.503 1_565 S
C1899 C1898 1.370 . S
C1899 C1900 1.403 . S
C1900 C1899 1.403 . S
C1900 C1901 1.404 . S
C1900 C1903 1.539 . S
C1901 C1897 1.408 . S
C1901 C1900 1.404 . S
C1901 H1913 0.930 . S
C1902 C1898 1.524 . S
C1902 H1914 0.963 . S
C1902 H1915 0.961 1_565 S
C1902 H1916 0.961 . S
C1903 C1900 1.539 . S
C1903 H1917 0.958 . S
C1903 H1918 0.961 . S
C1903 H1919 0.969 . S
H1904 C1888 0.931 . S
H1905 C1893 0.929 . S
H1906 C1894 0.960 1_565 S
H1907 C1894 0.962 . S
H1908 C1894 0.960 . S
H1909 C1895 0.961 . S
H1910 C1895 0.961 1_565 S
H1911 C1895 0.961 . S
H1912 C1896 0.931 . S
H1913 C1901 0.930 . S
H1914 C1902 0.963 . S
H1915 C1902 0.961 1_545 S
H1916 C1902 0.961 . S
H1917 C1903 0.958 . S
H1918 C1903 0.961 . S
H1919 C1903 0.969 . S
C1920 C1921 1.391 . S
C1920 C1922 1.394 . S
C1920 H1936 0.931 . S
C1921 C1920 1.391 . S
C1921 C1925 1.376 . S
C1922 C1920 1.394 . S
C1922 C1923 1.369 . S
C1922 C1926 1.531 . S
C1923 C1922 1.369 . S
C1923 C1924 1.410 . S
C1923 C1931 1.503 1_655 S
C1924 C1923 1.410 . S
C1924 C1925 1.392 . S
C1924 C1927 1.511 . S
C1925 C1921 1.376 . S
C1925 C1924 1.392 . S
C1925 H1937 0.929 . S
C1926 C1922 1.531 . S
C1926 H1938 0.960 1_655 S
C1926 H1939 0.962 . S
C1926 H1940 0.960 . S
C1927 C1924 1.511 . S
C1927 H1941 0.961 . S
C1927 H1942 0.961 1_655 S
C1927 H1943 0.961 . S
C1928 C1929 1.370 . S
C1928 C1930 1.363 . S
C1928 H1944 0.931 . S
C1929 C1928 1.370 . S
C1929 C1933 1.408 . S
C1930 C1928 1.363 . S
C1930 C1931 1.370 . S
C1930 C1934 1.524 . S
C1931 C1923 1.503 1_455 S
C1931 C1930 1.370 . S
C1931 C1932 1.403 . S
C1932 C1931 1.403 . S
C1932 C1933 1.404 . S
C1932 C1935 1.539 . S
C1933 C1929 1.408 . S
C1933 C1932 1.404 . S
C1933 H1945 0.930 . S
C1934 C1930 1.524 . S
C1934 H1946 0.956 . S
C1934 H1947 0.928 1_455 S
C1934 H1948 0.961 . S
C1935 C1932 1.539 . S
C1935 H1949 0.958 . S
C1935 H1950 0.961 . S
C1935 H1951 0.985 . S
H1936 C1920 0.931 . S
H1937 C1925 0.929 . S
H1938 C1926 0.960 1_455 S
H1939 C1926 0.962 . S
H1940 C1926 0.960 . S
H1941 C1927 0.961 . S
H1942 C1927 0.961 1_455 S
H1943 C1927 0.961 . S
H1944 C1928 0.931 . S
H1945 C1933 0.930 . S
H1946 C1934 0.956 . S
H1947 C1934 0.928 1_655 S
H1948 C1934 0.961 . S
H1949 C1935 0.958 . S
H1950 C1935 0.961 . S
H1951 C1935 0.985 . S
C1952 C1953 1.391 . S
C1952 C1954 1.394 . S
C1952 H1968 0.931 . S
C1953 C1952 1.391 . S
C1953 C1957 1.376 . S
C1954 C1952 1.394 . S
C1954 C1955 1.369 . S
C1954 C1958 1.531 . S
C1955 C1954 1.369 . S
C1955 C1956 1.410 . S
C1955 C1963 1.503 1_565 S
C1956 C1955 1.410 . S
C1956 C1957 1.392 . S
C1956 C1959 1.511 . S
C1957 C1953 1.376 . S
C1957 C1956 1.392 . S
C1957 H1969 0.929 . S
C1958 C1954 1.531 . S
C1958 H1970 0.960 1_565 S
C1958 H1971 0.962 . S
C1958 H1972 0.960 . S
C1959 C1956 1.511 . S
C1959 H1973 0.961 . S
C1959 H1974 0.961 1_565 S
C1959 H1975 0.961 . S
C1960 C1961 1.370 . S
C1960 C1962 1.363 . S
C1960 H1976 0.931 . S
C1961 C1960 1.370 . S
C1961 C1965 1.408 . S
C1962 C1960 1.363 . S
C1962 C1963 1.370 . S
C1962 C1966 1.524 . S
C1963 C1955 1.503 1_545 S
C1963 C1962 1.370 . S
C1963 C1964 1.403 . S
C1964 C1963 1.403 . S
C1964 C1965 1.404 . S
C1964 C1967 1.539 . S
C1965 C1961 1.408 . S
C1965 C1964 1.404 . S
C1965 H1977 0.930 . S
C1966 C1962 1.524 . S
C1966 H1978 0.956 . S
C1966 H1979 0.946 1_545 S
C1966 H1980 0.961 . S
C1967 C1964 1.539 . S
C1967 H1981 0.958 . S
C1967 H1982 0.961 . S
C1967 H1983 1.003 . S
H1968 C1952 0.931 . S
H1969 C1957 0.929 . S
H1970 C1958 0.960 1_545 S
H1971 C1958 0.962 . S
H1972 C1958 0.960 . S
H1973 C1959 0.961 . S
H1974 C1959 0.961 1_545 S
H1975 C1959 0.961 . S
H1976 C1960 0.931 . S
H1977 C1965 0.930 . S
H1978 C1966 0.956 . S
H1979 C1966 0.946 1_565 S
H1980 C1966 0.961 . S
H1981 C1967 0.958 . S
H1982 C1967 0.961 . S
H1983 C1967 1.003 . S
C1984 C1985 1.391 . S
C1984 C1986 1.394 . S
C1984 H2000 0.931 . S
C1985 C1984 1.391 . S
C1985 C1989 1.376 . S
C1986 C1984 1.394 . S
C1986 C1987 1.369 . S
C1986 C1990 1.531 . S
C1987 C1986 1.369 . S
C1987 C1988 1.410 . S
C1987 C1995 1.503 1_455 S
C1988 C1987 1.410 . S
C1988 C1989 1.392 . S
C1988 C1991 1.511 . S
C1989 C1985 1.376 . S
C1989 C1988 1.392 . S
C1989 H2001 0.929 . S
C1990 C1986 1.531 . S
C1990 H2002 0.960 1_455 S
C1990 H2003 0.962 . S
C1990 H2004 0.960 . S
C1991 C1988 1.511 . S
C1991 H2005 0.961 . S
C1991 H2006 0.961 1_455 S
C1991 H2007 0.961 . S
C1992 C1993 1.370 . S
C1992 C1994 1.363 . S
C1992 H2008 0.931 . S
C1993 C1992 1.370 . S
C1993 C1997 1.408 . S
C1994 C1992 1.363 . S
C1994 C1995 1.370 . S
C1994 C1998 1.524 . S
C1995 C1987 1.503 1_655 S
C1995 C1994 1.370 . S
C1995 C1996 1.403 . S
C1996 C1995 1.403 . S
C1996 C1997 1.404 . S
C1996 C1999 1.539 . S
C1997 C1993 1.408 . S
C1997 C1996 1.404 . S
C1997 H2009 0.930 . S
C1998 C1994 1.524 . S
C1998 H2010 0.956 . S
C1998 H2011 0.952 1_655 S
C1998 H2012 0.961 . S
C1999 C1996 1.539 . S
C1999 H2013 0.958 . S
C1999 H2014 0.961 . S
C1999 H2015 0.960 . S
H2000 C1984 0.931 . S
H2001 C1989 0.929 . S
H2002 C1990 0.960 1_655 S
H2003 C1990 0.962 . S
H2004 C1990 0.960 . S
H2005 C1991 0.961 . S
H2006 C1991 0.961 1_655 S
H2007 C1991 0.961 . S
H2008 C1992 0.931 . S
H2009 C1997 0.930 . S
H2010 C1998 0.956 . S
H2011 C1998 0.952 1_455 S
H2012 C1998 0.961 . S
H2013 C1999 0.958 . S
H2014 C1999 0.961 . S
H2015 C1999 0.960 . S
C2016 C2017 1.391 . S
C2016 C2018 1.394 . S
C2016 H2032 0.931 . S
C2017 C2016 1.391 . S
C2017 C2021 1.376 . S
C2018 C2016 1.394 . S
C2018 C2019 1.369 . S
C2018 C2022 1.531 . S
C2019 C2018 1.369 . S
C2019 C2020 1.410 . S
C2019 C2027 1.503 1_565 S
C2020 C2019 1.410 . S
C2020 C2021 1.392 . S
C2020 C2023 1.511 . S
C2021 C2017 1.376 . S
C2021 C2020 1.392 . S
C2021 H2033 0.929 . S
C2022 C2018 1.531 . S
C2022 H2034 0.960 1_565 S
C2022 H2035 0.962 . S
C2022 H2036 0.960 . S
C2023 C2020 1.511 . S
C2023 H2037 0.961 . S
C2023 H2038 0.961 1_565 S
C2023 H2039 0.961 . S
C2024 C2025 1.370 . S
C2024 C2026 1.363 . S
C2024 H2040 0.931 . S
C2025 C2024 1.370 . S
C2025 C2029 1.408 . S
C2026 C2024 1.363 . S
C2026 C2027 1.370 . S
C2026 C2030 1.524 . S
C2027 C2019 1.503 1_545 S
C2027 C2026 1.370 . S
C2027 C2028 1.403 . S
C2028 C2027 1.403 . S
C2028 C2029 1.404 . S
C2028 C2031 1.539 . S
C2029 C2025 1.408 . S
C2029 C2028 1.404 . S
C2029 H2041 0.930 . S
C2030 C2026 1.524 . S
C2030 H2042 0.972 . S
C2030 H2043 0.961 1_545 S
C2030 H2044 0.961 . S
C2031 C2028 1.539 . S
C2031 H2045 0.958 . S
C2031 H2046 0.961 . S
C2031 H2047 0.974 . S
H2032 C2016 0.931 . S
H2033 C2021 0.929 . S
H2034 C2022 0.960 1_545 S
H2035 C2022 0.962 . S
H2036 C2022 0.960 . S
H2037 C2023 0.961 . S
H2038 C2023 0.961 1_545 S
H2039 C2023 0.961 . S
H2040 C2024 0.931 . S
H2041 C2029 0.930 . S
H2042 C2030 0.972 . S
H2043 C2030 0.961 1_565 S
H2044 C2030 0.961 . S
H2045 C2031 0.958 . S
H2046 C2031 0.961 . S
H2047 C2031 0.974 . S
C2048 C2049 1.391 . S
C2048 C2050 1.394 . S
C2048 H2064 0.931 . S
C2049 C2048 1.391 . S
C2049 C2053 1.376 . S
C2050 C2048 1.394 . S
C2050 C2051 1.369 . S
C2050 C2054 1.531 . S
C2051 C2050 1.369 . S
C2051 C2052 1.410 . S
C2051 C2059 1.503 . S
C2052 C2051 1.410 . S
C2052 C2053 1.392 . S
C2052 C2055 1.511 . S
C2053 C2049 1.376 . S
C2053 C2052 1.392 . S
C2053 H2065 0.929 . S
C2054 C2050 1.531 . S
C2054 H2066 0.960 . S
C2054 H2067 0.962 . S
C2054 H2068 0.960 . S
C2055 C2052 1.511 . S
C2055 H2069 0.961 . S
C2055 H2070 0.961 . S
C2055 H2071 0.961 . S
C2056 C2057 1.370 . S
C2056 C2058 1.363 . S
C2056 H2072 0.931 . S
C2057 C2056 1.370 . S
C2057 C2061 1.408 . S
C2058 C2056 1.363 . S
C2058 C2059 1.370 . S
C2058 C2062 1.524 . S
C2059 C2051 1.503 . S
C2059 C2058 1.370 . S
C2059 C2060 1.403 . S
C2060 C2059 1.403 . S
C2060 C2061 1.404 . S
C2060 C2063 1.539 . S
C2061 C2057 1.408 . S
C2061 C2060 1.404 . S
C2061 H2073 0.930 . S
C2062 C2058 1.524 . S
C2062 H2074 0.956 . S
C2062 H2075 0.961 . S
C2062 H2076 0.961 . S
C2063 C2060 1.539 . S
C2063 H2077 0.958 . S
C2063 H2078 0.961 . S
C2063 H2079 0.960 . S
H2064 C2048 0.931 . S
H2065 C2053 0.929 . S
H2066 C2054 0.960 . S
H2067 C2054 0.962 . S
H2068 C2054 0.960 . S
H2069 C2055 0.961 . S
H2070 C2055 0.961 . S
H2071 C2055 0.961 . S
H2072 C2056 0.931 . S
H2073 C2061 0.930 . S
H2074 C2062 0.956 . S
H2075 C2062 0.961 . S
H2076 C2062 0.961 . S
H2077 C2063 0.958 . S
H2078 C2063 0.961 . S
H2079 C2063 0.960 . S
C2080 C2081 1.391 . S
C2080 C2082 1.394 . S
C2080 H2096 0.931 . S
C2081 C2080 1.391 . S
C2081 C2085 1.376 . S
C2082 C2080 1.394 . S
C2082 C2083 1.369 . S
C2082 C2086 1.531 . S
C2083 C2082 1.369 . S
C2083 C2084 1.410 . S
C2083 C2091 1.503 . S
C2084 C2083 1.410 . S
C2084 C2085 1.392 . S
C2084 C2087 1.511 . S
C2085 C2081 1.376 . S
C2085 C2084 1.392 . S
C2085 H2097 0.929 . S
C2086 C2082 1.531 . S
C2086 H2098 0.960 . S
C2086 H2099 0.962 . S
C2086 H2100 0.960 . S
C2087 C2084 1.511 . S
C2087 H2101 0.961 . S
C2087 H2102 0.961 . S
C2087 H2103 0.961 . S
C2088 C2089 1.370 . S
C2088 C2090 1.363 . S
C2088 H2104 0.931 . S
C2089 C2088 1.370 . S
C2089 C2093 1.408 . S
C2090 C2088 1.363 . S
C2090 C2091 1.370 . S
C2090 C2094 1.524 . S
C2091 C2083 1.503 . S
C2091 C2090 1.370 . S
C2091 C2092 1.403 . S
C2092 C2091 1.403 . S
C2092 C2093 1.404 . S
C2092 C2095 1.539 . S
C2093 C2089 1.408 . S
C2093 C2092 1.404 . S
C2093 H2105 0.930 . S
C2094 C2090 1.524 . S
C2094 H2106 0.956 . S
C2094 H2107 0.961 . S
C2094 H2108 0.961 . S
C2095 C2092 1.539 . S
C2095 H2109 0.958 . S
C2095 H2110 0.961 . S
C2095 H2111 0.960 . S
H2096 C2080 0.931 . S
H2097 C2085 0.929 . S
H2098 C2086 0.960 . S
H2099 C2086 0.962 . S
H2100 C2086 0.960 . S
H2101 C2087 0.961 . S
H2102 C2087 0.961 . S
H2103 C2087 0.961 . S
H2104 C2088 0.931 . S
H2105 C2093 0.930 . S
H2106 C2094 0.956 . S
H2107 C2094 0.961 . S
H2108 C2094 0.961 . S
H2109 C2095 0.958 . S
H2110 C2095 0.961 . S
H2111 C2095 0.960 . S
C2112 C2113 1.391 . S
C2112 C2114 1.394 . S
C2112 H2128 0.931 . S
C2113 C2112 1.391 . S
C2113 C2117 1.376 . S
C2114 C2112 1.394 . S
C2114 C2115 1.369 . S
C2114 C2118 1.531 . S
C2115 C2114 1.369 . S
C2115 C2116 1.410 . S
C2115 C2123 1.503 . S
C2116 C2115 1.410 . S
C2116 C2117 1.392 . S
C2116 C2119 1.511 . S
C2117 C2113 1.376 . S
C2117 C2116 1.392 . S
C2117 H2129 0.929 . S
C2118 C2114 1.531 . S
C2118 H2130 0.960 . S
C2118 H2131 0.962 . S
C2118 H2132 0.960 . S
C2119 C2116 1.511 . S
C2119 H2133 0.961 . S
C2119 H2134 0.961 . S
C2119 H2135 0.961 . S
C2120 C2121 1.370 . S
C2120 C2122 1.363 . S
C2120 H2136 0.931 . S
C2121 C2120 1.370 . S
C2121 C2125 1.408 . S
C2122 C2120 1.363 . S
C2122 C2123 1.370 . S
C2122 C2126 1.524 . S
C2123 C2115 1.503 . S
C2123 C2122 1.370 . S
C2123 C2124 1.403 . S
C2124 C2123 1.403 . S
C2124 C2125 1.404 . S
C2124 C2127 1.539 . S
C2125 C2121 1.408 . S
C2125 C2124 1.404 . S
C2125 H2137 0.930 . S
C2126 C2122 1.524 . S
C2126 H2138 0.956 . S
C2126 H2139 0.961 . S
C2126 H2140 0.961 . S
C2127 C2124 1.539 . S
C2127 H2141 0.958 . S
C2127 H2142 0.961 . S
C2127 H2143 0.960 . S
H2128 C2112 0.931 . S
H2129 C2117 0.929 . S
H2130 C2118 0.960 . S
H2131 C2118 0.962 . S
H2132 C2118 0.960 . S
H2133 C2119 0.961 . S
H2134 C2119 0.961 . S
H2135 C2119 0.961 . S
H2136 C2120 0.931 . S
H2137 C2125 0.930 . S
H2138 C2126 0.956 . S
H2139 C2126 0.961 . S
H2140 C2126 0.961 . S
H2141 C2127 0.958 . S
H2142 C2127 0.961 . S
H2143 C2127 0.960 . S
C2144 C2145 1.391 . S
C2144 C2146 1.394 . S
C2144 H2160 0.931 . S
C2145 C2144 1.391 . S
C2145 C2149 1.376 . S
C2146 C2144 1.394 . S
C2146 C2147 1.369 . S
C2146 C2150 1.531 . S
C2147 C2146 1.369 . S
C2147 C2148 1.410 . S
C2147 C2155 1.503 . S
C2148 C2147 1.410 . S
C2148 C2149 1.392 . S
C2148 C2151 1.511 . S
C2149 C2145 1.376 . S
C2149 C2148 1.392 . S
C2149 H2161 0.929 . S
C2150 C2146 1.531 . S
C2150 H2162 0.960 . S
C2150 H2163 0.962 . S
C2150 H2164 0.960 . S
C2151 C2148 1.511 . S
C2151 H2165 0.961 . S
C2151 H2166 0.961 . S
C2151 H2167 0.961 . S
C2152 C2153 1.370 . S
C2152 C2154 1.363 . S
C2152 H2168 0.931 . S
C2153 C2152 1.370 . S
C2153 C2157 1.408 . S
C2154 C2152 1.363 . S
C2154 C2155 1.370 . S
C2154 C2158 1.524 . S
C2155 C2147 1.503 . S
C2155 C2154 1.370 . S
C2155 C2156 1.403 . S
C2156 C2155 1.403 . S
C2156 C2157 1.404 . S
C2156 C2159 1.539 . S
C2157 C2153 1.408 . S
C2157 C2156 1.404 . S
C2157 H2169 0.930 . S
C2158 C2154 1.524 . S
C2158 H2170 0.956 . S
C2158 H2171 0.961 . S
C2158 H2172 0.961 . S
C2159 C2156 1.539 . S
C2159 H2173 0.958 . S
C2159 H2174 0.961 . S
C2159 H2175 0.960 . S
H2160 C2144 0.931 . S
H2161 C2149 0.929 . S
H2162 C2150 0.960 . S
H2163 C2150 0.962 . S
H2164 C2150 0.960 . S
H2165 C2151 0.961 . S
H2166 C2151 0.961 . S
H2167 C2151 0.961 . S
H2168 C2152 0.931 . S
H2169 C2157 0.930 . S
H2170 C2158 0.956 . S
H2171 C2158 0.961 . S
H2172 C2158 0.961 . S
H2173 C2159 0.958 . S
H2174 C2159 0.961 . S
H2175 C2159 0.960 . S
C2176 C2177 1.391 . S
C2176 C2178 1.394 . S
C2176 H2192 0.931 . S
C2177 C2176 1.391 . S
C2177 C2181 1.376 . S
C2178 C2176 1.394 . S
C2178 C2179 1.369 . S
C2178 C2182 1.531 . S
C2179 C2178 1.369 . S
C2179 C2180 1.410 . S
C2179 C2187 1.503 . S
C2180 C2179 1.410 . S
C2180 C2181 1.392 . S
C2180 C2183 1.511 . S
C2181 C2177 1.376 . S
C2181 C2180 1.392 . S
C2181 H2193 0.929 . S
C2182 C2178 1.531 . S
C2182 H2194 0.960 . S
C2182 H2195 0.962 . S
C2182 H2196 0.960 . S
C2183 C2180 1.511 . S
C2183 H2197 0.961 . S
C2183 H2198 0.961 . S
C2183 H2199 0.961 . S
C2184 C2185 1.370 . S
C2184 C2186 1.363 . S
C2184 H2200 0.931 . S
C2185 C2184 1.370 . S
C2185 C2189 1.408 . S
C2186 C2184 1.363 . S
C2186 C2187 1.370 . S
C2186 C2190 1.524 . S
C2187 C2179 1.503 . S
C2187 C2186 1.370 . S
C2187 C2188 1.403 . S
C2188 C2187 1.403 . S
C2188 C2189 1.404 . S
C2188 C2191 1.539 . S
C2189 C2185 1.408 . S
C2189 C2188 1.404 . S
C2189 H2201 0.930 . S
C2190 C2186 1.524 . S
C2190 H2202 0.956 . S
C2190 H2203 0.961 . S
C2190 H2204 0.961 . S
C2191 C2188 1.539 . S
C2191 H2205 0.958 . S
C2191 H2206 0.961 . S
C2191 H2207 0.960 . S
H2192 C2176 0.931 . S
H2193 C2181 0.929 . S
H2194 C2182 0.960 . S
H2195 C2182 0.962 . S
H2196 C2182 0.960 . S
H2197 C2183 0.961 . S
H2198 C2183 0.961 . S
H2199 C2183 0.961 . S
H2200 C2184 0.931 . S
H2201 C2189 0.930 . S
H2202 C2190 0.956 . S
H2203 C2190 0.961 . S
H2204 C2190 0.961 . S
H2205 C2191 0.958 . S
H2206 C2191 0.961 . S
H2207 C2191 0.960 . S
C2208 C2209 1.391 . S
C2208 C2210 1.394 . S
C2208 H2224 0.931 . S
C2209 C2208 1.391 . S
C2209 C2213 1.376 . S
C2210 C2208 1.394 . S
C2210 C2211 1.369 . S
C2210 C2214 1.531 . S
C2211 C2210 1.369 . S
C2211 C2212 1.410 . S
C2211 C2219 1.503 . S
C2212 C2211 1.410 . S
C2212 C2213 1.392 . S
C2212 C2215 1.511 . S
C2213 C2209 1.376 . S
C2213 C2212 1.392 . S
C2213 H2225 0.929 . S
C2214 C2210 1.531 . S
C2214 H2226 0.960 . S
C2214 H2227 0.962 . S
C2214 H2228 0.960 . S
C2215 C2212 1.511 . S
C2215 H2229 0.961 . S
C2215 H2230 0.961 . S
C2215 H2231 0.961 . S
C2216 C2217 1.370 . S
C2216 C2218 1.363 . S
C2216 H2232 0.931 . S
C2217 C2216 1.370 . S
C2217 C2221 1.408 . S
C2218 C2216 1.363 . S
C2218 C2219 1.370 . S
C2218 C2222 1.524 . S
C2219 C2211 1.503 . S
C2219 C2218 1.370 . S
C2219 C2220 1.403 . S
C2220 C2219 1.403 . S
C2220 C2221 1.404 . S
C2220 C2223 1.539 . S
C2221 C2217 1.408 . S
C2221 C2220 1.404 . S
C2221 H2233 0.930 . S
C2222 C2218 1.524 . S
C2222 H2234 0.956 . S
C2222 H2235 0.961 . S
C2222 H2236 0.961 . S
C2223 C2220 1.539 . S
C2223 H2237 0.958 . S
C2223 H2238 0.961 . S
C2223 H2239 0.960 . S
H2224 C2208 0.931 . S
H2225 C2213 0.929 . S
H2226 C2214 0.960 . S
H2227 C2214 0.962 . S
H2228 C2214 0.960 . S
H2229 C2215 0.961 . S
H2230 C2215 0.961 . S
H2231 C2215 0.961 . S
H2232 C2216 0.931 . S
H2233 C2221 0.930 . S
H2234 C2222 0.956 . S
H2235 C2222 0.961 . S
H2236 C2222 0.961 . S
H2237 C2223 0.958 . S
H2238 C2223 0.961 . S
H2239 C2223 0.960 . S
C2240 C2241 1.391 . S
C2240 C2242 1.394 . S
C2240 H2256 0.931 . S
C2241 C2240 1.391 . S
C2241 C2245 1.376 . S
C2242 C2240 1.394 . S
C2242 C2243 1.369 . S
C2242 C2246 1.531 . S
C2243 C2242 1.369 . S
C2243 C2244 1.410 . S
C2243 C2251 1.503 . S
C2244 C2243 1.410 . S
C2244 C2245 1.392 . S
C2244 C2247 1.511 . S
C2245 C2241 1.376 . S
C2245 C2244 1.392 . S
C2245 H2257 0.929 . S
C2246 C2242 1.531 . S
C2246 H2258 0.960 . S
C2246 H2259 0.962 . S
C2246 H2260 0.960 . S
C2247 C2244 1.511 . S
C2247 H2261 0.961 . S
C2247 H2262 0.961 . S
C2247 H2263 0.961 . S
C2248 C2249 1.370 . S
C2248 C2250 1.363 . S
C2248 H2264 0.931 . S
C2249 C2248 1.370 . S
C2249 C2253 1.408 . S
C2250 C2248 1.363 . S
C2250 C2251 1.370 . S
C2250 C2254 1.524 . S
C2251 C2243 1.503 . S
C2251 C2250 1.370 . S
C2251 C2252 1.403 . S
C2252 C2251 1.403 . S
C2252 C2253 1.404 . S
C2252 C2255 1.539 . S
C2253 C2249 1.408 . S
C2253 C2252 1.404 . S
C2253 H2265 0.930 . S
C2254 C2250 1.524 . S
C2254 H2266 0.956 . S
C2254 H2267 0.961 . S
C2254 H2268 0.961 . S
C2255 C2252 1.539 . S
C2255 H2269 0.958 . S
C2255 H2270 0.961 . S
C2255 H2271 0.960 . S
H2256 C2240 0.931 . S
H2257 C2245 0.929 . S
H2258 C2246 0.960 . S
H2259 C2246 0.962 . S
H2260 C2246 0.960 . S
H2261 C2247 0.961 . S
H2262 C2247 0.961 . S
H2263 C2247 0.961 . S
H2264 C2248 0.931 . S
H2265 C2253 0.930 . S
H2266 C2254 0.956 . S
H2267 C2254 0.961 . S
H2268 C2254 0.961 . S
H2269 C2255 0.958 . S
H2270 C2255 0.961 . S
H2271 C2255 0.960 . S
C2272 C2273 1.391 . S
C2272 C2274 1.394 . S
C2272 H2288 0.931 . S
C2273 C2272 1.391 . S
C2273 C2277 1.376 . S
C2274 C2272 1.394 . S
C2274 C2275 1.369 . S
C2274 C2278 1.531 . S
C2275 C2274 1.369 . S
C2275 C2276 1.410 . S
C2275 C2283 1.503 . S
C2276 C2275 1.410 . S
C2276 C2277 1.392 . S
C2276 C2279 1.511 . S
C2277 C2273 1.376 . S
C2277 C2276 1.392 . S
C2277 H2289 0.929 . S
C2278 C2274 1.531 . S
C2278 H2290 0.960 . S
C2278 H2291 0.962 . S
C2278 H2292 0.960 . S
C2279 C2276 1.511 . S
C2279 H2293 0.961 . S
C2279 H2294 0.961 . S
C2279 H2295 0.961 . S
C2280 C2281 1.370 . S
C2280 C2282 1.363 . S
C2280 H2296 0.931 . S
C2281 C2280 1.370 . S
C2281 C2285 1.408 . S
C2282 C2280 1.363 . S
C2282 C2283 1.370 . S
C2282 C2286 1.524 . S
C2283 C2275 1.503 . S
C2283 C2282 1.370 . S
C2283 C2284 1.403 . S
C2284 C2283 1.403 . S
C2284 C2285 1.404 . S
C2284 C2287 1.539 . S
C2285 C2281 1.408 . S
C2285 C2284 1.404 . S
C2285 H2297 0.930 . S
C2286 C2282 1.524 . S
C2286 H2298 0.956 . S
C2286 H2299 0.961 . S
C2286 H2300 0.961 . S
C2287 C2284 1.539 . S
C2287 H2301 0.958 . S
C2287 H2302 0.961 . S
C2287 H2303 0.960 . S
H2288 C2272 0.931 . S
H2289 C2277 0.929 . S
H2290 C2278 0.960 . S
H2291 C2278 0.962 . S
H2292 C2278 0.960 . S
H2293 C2279 0.961 . S
H2294 C2279 0.961 . S
H2295 C2279 0.961 . S
H2296 C2280 0.931 . S
H2297 C2285 0.930 . S
H2298 C2286 0.956 . S
H2299 C2286 0.961 . S
H2300 C2286 0.961 . S
H2301 C2287 0.958 . S
H2302 C2287 0.961 . S
H2303 C2287 0.960 . S
C2304 C2305 1.391 . S
C2304 C2306 1.394 . S
C2304 H2320 0.931 . S
C2305 C2304 1.391 . S
C2305 C2309 1.376 . S
C2306 C2304 1.394 . S
C2306 C2307 1.369 . S
C2306 C2310 1.531 . S
C2307 C2306 1.369 . S
C2307 C2308 1.410 . S
C2307 C2315 1.503 . S
C2308 C2307 1.410 . S
C2308 C2309 1.392 . S
C2308 C2311 1.511 . S
C2309 C2305 1.376 . S
C2309 C2308 1.392 . S
C2309 H2321 0.929 . S
C2310 C2306 1.531 . S
C2310 H2322 0.960 . S
C2310 H2323 0.962 . S
C2310 H2324 0.960 . S
C2311 C2308 1.511 . S
C2311 H2325 0.961 . S
C2311 H2326 0.961 . S
C2311 H2327 0.961 . S
C2312 C2313 1.370 . S
C2312 C2314 1.363 . S
C2312 H2328 0.931 . S
C2313 C2312 1.370 . S
C2313 C2317 1.408 . S
C2314 C2312 1.363 . S
C2314 C2315 1.370 . S
C2314 C2318 1.524 . S
C2315 C2307 1.503 . S
C2315 C2314 1.370 . S
C2315 C2316 1.403 . S
C2316 C2315 1.403 . S
C2316 C2317 1.404 . S
C2316 C2319 1.539 . S
C2317 C2313 1.408 . S
C2317 C2316 1.404 . S
C2317 H2329 0.930 . S
C2318 C2314 1.524 . S
C2318 H2330 0.956 . S
C2318 H2331 0.961 . S
C2318 H2332 0.961 . S
C2319 C2316 1.539 . S
C2319 H2333 0.958 . S
C2319 H2334 0.961 . S
C2319 H2335 0.960 . S
H2320 C2304 0.931 . S
H2321 C2309 0.929 . S
H2322 C2310 0.960 . S
H2323 C2310 0.962 . S
H2324 C2310 0.960 . S
H2325 C2311 0.961 . S
H2326 C2311 0.961 . S
H2327 C2311 0.961 . S
H2328 C2312 0.931 . S
H2329 C2317 0.930 . S
H2330 C2318 0.956 . S
H2331 C2318 0.961 . S
H2332 C2318 0.961 . S
H2333 C2319 0.958 . S
H2334 C2319 0.961 . S
H2335 C2319 0.960 . S
C2336 C2337 1.391 . S
C2336 C2338 1.394 . S
C2336 H2352 0.931 . S
C2337 C2336 1.391 . S
C2337 C2341 1.376 . S
C2338 C2336 1.394 . S
C2338 C2339 1.369 . S
C2338 C2342 1.531 . S
C2339 C2338 1.369 . S
C2339 C2340 1.410 . S
C2339 C2347 1.503 . S
C2340 C2339 1.410 . S
C2340 C2341 1.392 . S
C2340 C2343 1.511 . S
C2341 C2337 1.376 . S
C2341 C2340 1.392 . S
C2341 H2353 0.929 . S
C2342 C2338 1.531 . S
C2342 H2354 0.960 . S
C2342 H2355 0.962 . S
C2342 H2356 0.960 . S
C2343 C2340 1.511 . S
C2343 H2357 0.961 . S
C2343 H2358 0.961 . S
C2343 H2359 0.961 . S
C2344 C2345 1.370 . S
C2344 C2346 1.363 . S
C2344 H2360 0.931 . S
C2345 C2344 1.370 . S
C2345 C2349 1.408 . S
C2346 C2344 1.363 . S
C2346 C2347 1.370 . S
C2346 C2350 1.524 . S
C2347 C2339 1.503 . S
C2347 C2346 1.370 . S
C2347 C2348 1.403 . S
C2348 C2347 1.403 . S
C2348 C2349 1.404 . S
C2348 C2351 1.539 . S
C2349 C2345 1.408 . S
C2349 C2348 1.404 . S
C2349 H2361 0.930 . S
C2350 C2346 1.524 . S
C2350 H2362 0.956 . S
C2350 H2363 0.961 . S
C2350 H2364 0.961 . S
C2351 C2348 1.539 . S
C2351 H2365 0.958 . S
C2351 H2366 0.961 . S
C2351 H2367 0.960 . S
H2352 C2336 0.931 . S
H2353 C2341 0.929 . S
H2354 C2342 0.960 . S
H2355 C2342 0.962 . S
H2356 C2342 0.960 . S
H2357 C2343 0.961 . S
H2358 C2343 0.961 . S
H2359 C2343 0.961 . S
H2360 C2344 0.931 . S
H2361 C2349 0.930 . S
H2362 C2350 0.956 . S
H2363 C2350 0.961 . S
H2364 C2350 0.961 . S
H2365 C2351 0.958 . S
H2366 C2351 0.961 . S
H2367 C2351 0.960 . S
C2368 C2369 1.391 . S
C2368 C2370 1.394 . S
C2368 H2384 0.931 . S
C2369 C2368 1.391 . S
C2369 C2373 1.376 . S
C2370 C2368 1.394 . S
C2370 C2371 1.369 . S
C2370 C2374 1.531 . S
C2371 C2370 1.369 . S
C2371 C2372 1.410 . S
C2371 C2379 1.503 . S
C2372 C2371 1.410 . S
C2372 C2373 1.392 . S
C2372 C2375 1.511 . S
C2373 C2369 1.376 . S
C2373 C2372 1.392 . S
C2373 H2385 0.929 . S
C2374 C2370 1.531 . S
C2374 H2386 0.960 . S
C2374 H2387 0.962 . S
C2374 H2388 0.960 . S
C2375 C2372 1.511 . S
C2375 H2389 0.961 . S
C2375 H2390 0.961 . S
C2375 H2391 0.961 . S
C2376 C2377 1.370 . S
C2376 C2378 1.363 . S
C2376 H2392 0.931 . S
C2377 C2376 1.370 . S
C2377 C2381 1.408 . S
C2378 C2376 1.363 . S
C2378 C2379 1.370 . S
C2378 C2382 1.524 . S
C2379 C2371 1.503 . S
C2379 C2378 1.370 . S
C2379 C2380 1.403 . S
C2380 C2379 1.403 . S
C2380 C2381 1.404 . S
C2380 C2383 1.539 . S
C2381 C2377 1.408 . S
C2381 C2380 1.404 . S
C2381 H2393 0.930 . S
C2382 C2378 1.524 . S
C2382 H2394 0.956 . S
C2382 H2395 0.961 . S
C2382 H2396 0.961 . S
C2383 C2380 1.539 . S
C2383 H2397 0.958 . S
C2383 H2398 0.961 . S
C2383 H2399 0.960 . S
H2384 C2368 0.931 . S
H2385 C2373 0.929 . S
H2386 C2374 0.960 . S
H2387 C2374 0.962 . S
H2388 C2374 0.960 . S
H2389 C2375 0.961 . S
H2390 C2375 0.961 . S
H2391 C2375 0.961 . S
H2392 C2376 0.931 . S
H2393 C2381 0.930 . S
H2394 C2382 0.956 . S
H2395 C2382 0.961 . S
H2396 C2382 0.961 . S
H2397 C2383 0.958 . S
H2398 C2383 0.961 . S
H2399 C2383 0.960 . S
C2400 C2401 1.391 . S
C2400 C2402 1.394 . S
C2400 H2416 0.931 . S
C2401 C2400 1.391 . S
C2401 C2405 1.376 . S
C2402 C2400 1.394 . S
C2402 C2403 1.369 . S
C2402 C2406 1.531 . S
C2403 C2402 1.369 . S
C2403 C2404 1.410 . S
C2403 C2411 1.503 . S
C2404 C2403 1.410 . S
C2404 C2405 1.392 . S
C2404 C2407 1.511 . S
C2405 C2401 1.376 . S
C2405 C2404 1.392 . S
C2405 H2417 0.929 . S
C2406 C2402 1.531 . S
C2406 H2418 0.960 . S
C2406 H2419 0.962 . S
C2406 H2420 0.960 . S
C2407 C2404 1.511 . S
C2407 H2421 0.961 . S
C2407 H2422 0.961 . S
C2407 H2423 0.961 . S
C2408 C2409 1.370 . S
C2408 C2410 1.363 . S
C2408 H2424 0.931 . S
C2409 C2408 1.370 . S
C2409 C2413 1.408 . S
C2410 C2408 1.363 . S
C2410 C2411 1.370 . S
C2410 C2414 1.524 . S
C2411 C2403 1.503 . S
C2411 C2410 1.370 . S
C2411 C2412 1.403 . S
C2412 C2411 1.403 . S
C2412 C2413 1.404 . S
C2412 C2415 1.539 . S
C2413 C2409 1.408 . S
C2413 C2412 1.404 . S
C2413 H2425 0.930 . S
C2414 C2410 1.524 . S
C2414 H2426 0.956 . S
C2414 H2427 0.961 . S
C2414 H2428 0.961 . S
C2415 C2412 1.539 . S
C2415 H2429 0.958 . S
C2415 H2430 0.961 . S
C2415 H2431 0.960 . S
H2416 C2400 0.931 . S
H2417 C2405 0.929 . S
H2418 C2406 0.960 . S
H2419 C2406 0.962 . S
H2420 C2406 0.960 . S
H2421 C2407 0.961 . S
H2422 C2407 0.961 . S
H2423 C2407 0.961 . S
H2424 C2408 0.931 . S
H2425 C2413 0.930 . S
H2426 C2414 0.956 . S
H2427 C2414 0.961 . S
H2428 C2414 0.961 . S
H2429 C2415 0.958 . S
H2430 C2415 0.961 . S
H2431 C2415 0.960 . S
C1409 C1377 0.507 . S
C1417 C29 0.501 . S
C1441 C1105 0.511 . S
C1449 C108 0.503 . S
C1473 C233 0.504 . S
C1481 C1193 0.498 . S
C1505 C1289 0.516 . S
C1513 C293 0.506 . S
C1537 C821 0.512 . S
C1545 C401 0.502 . S
C1569 C489 0.512 . S
C1577 C937 0.501 . S
C1601 C577 0.499 . S
C1609 C997 0.501 . S
C1633 C673 0.501 . S
C1641 C724 0.497 . S
C1665 C460 1.463 . S
C1673 C20 1.465 . S
C1697 C557 1.484 . S
C1705 C145 1.478 . S
C1729 C645 1.487 . S
C1737 C225 1.479 . S
C1761 C321 1.475 . S
C1769 C381 1.475 . S
C1793 C57 1.493 . S
C1801 C137 1.488 . S
C1825 C196 1.457 . S
C1833 C117 1.468 . S
C1857 C205 1.473 . S
C1865 C284 1.472 . S
C1889 C49 1.439 . S
C1897 C313 1.451 . S
C1921 C665 1.473 . S
C1929 C409 1.467 . S
C1953 C372 1.466 . S
C1961 C469 1.470 . S
C1985 C497 1.462 . S
C1993 C585 1.470 . S
C2017 C636 1.483 . S
C2025 C548 1.496 . S
C2049 C1164 1.469 . S
C2057 C733 1.466 . S
C2081 C841 1.465 . S
C2089 C1252 1.471 . S
C2113 C1349 1.463 . S
C2121 C929 1.467 . S
C2145 C1085 1.451 . S
C2153 C1025 1.475 . S
C2177 C753 1.492 . S
C2185 C849 1.487 . S
C2209 C812 1.452 . S
C2217 C900 1.464 . S
C2241 C988 1.453 . S
C2249 C909 1.472 . S
C2273 C761 1.439 . S
C2281 C1017 1.452 . S
C2305 C1369 1.439 . S
C2313 C1113 1.453 . S
C2337 C1076 1.488 . S
C2345 C1173 1.479 . S
C2369 C1201 1.480 . S
C2377 C1281 1.476 . S
C2401 C1340 1.501 . S
C2409 C1261 1.499 . S
