# Generated by pormake.
# Topology mon, (4)-cn, num edge types: 1
# Building blocks:
#     Node 0, Type 0, BuildingBlock: CEKHIL_clean_sbu_0, # of connection points: 4
#     Node 1, Type 0, BuildingBlock: CEKHIL_clean_sbu_0, # of connection points: 4
#     Node 2, Type 0, BuildingBlock: CEKHIL_clean_sbu_0, # of connection points: 4
#     Node 3, Type 0, BuildingBlock: CEKHIL_clean_sbu_0, # of connection points: 4
#     Node 4, Type 0, BuildingBlock: CEKHIL_clean_sbu_0, # of connection points: 4
#     Node 5, Type 0, BuildingBlock: CEKHIL_clean_sbu_0, # of connection points: 4
#     Node 6, Type 0, BuildingBlock: CEKHIL_clean_sbu_0, # of connection points: 4
#     Node 7, Type 0, BuildingBlock: CEKHIL_clean_sbu_0, # of connection points: 4
#     Node 8, Type 0, BuildingBlock: CEKHIL_clean_sbu_0, # of connection points: 4
#     Node 9, Type 0, BuildingBlock: CEKHIL_clean_sbu_0, # of connection points: 4
#     Node 10, Type 0, BuildingBlock: CEKHIL_clean_sbu_0, # of connection points: 4
#     Node 11, Type 0, BuildingBlock: CEKHIL_clean_sbu_0, # of connection points: 4
#     Node 12, Type 0, BuildingBlock: CEKHIL_clean_sbu_0, # of connection points: 4
#     Node 13, Type 0, BuildingBlock: CEKHIL_clean_sbu_0, # of connection points: 4
#     Node 14, Type 0, BuildingBlock: CEKHIL_clean_sbu_0, # of connection points: 4
#     Node 15, Type 0, BuildingBlock: CEKHIL_clean_sbu_0, # of connection points: 4
#     Edge 16, Type (0, 0), BuildingBlock: UVAHIK_clean_linker_0, # of connection points: 2
#     Edge 17, Type (0, 0), BuildingBlock: UVAHIK_clean_linker_0, # of connection points: 2
#     Edge 18, Type (0, 0), BuildingBlock: UVAHIK_clean_linker_0, # of connection points: 2
#     Edge 19, Type (0, 0), BuildingBlock: UVAHIK_clean_linker_0, # of connection points: 2
#     Edge 20, Type (0, 0), BuildingBlock: UVAHIK_clean_linker_0, # of connection points: 2
#     Edge 21, Type (0, 0), BuildingBlock: UVAHIK_clean_linker_0, # of connection points: 2
#     Edge 22, Type (0, 0), BuildingBlock: UVAHIK_clean_linker_0, # of connection points: 2
#     Edge 23, Type (0, 0), BuildingBlock: UVAHIK_clean_linker_0, # of connection points: 2
#     Edge 24, Type (0, 0), BuildingBlock: UVAHIK_clean_linker_0, # of connection points: 2
#     Edge 25, Type (0, 0), BuildingBlock: UVAHIK_clean_linker_0, # of connection points: 2
#     Edge 26, Type (0, 0), BuildingBlock: UVAHIK_clean_linker_0, # of connection points: 2
#     Edge 27, Type (0, 0), BuildingBlock: UVAHIK_clean_linker_0, # of connection points: 2
#     Edge 28, Type (0, 0), BuildingBlock: UVAHIK_clean_linker_0, # of connection points: 2
#     Edge 29, Type (0, 0), BuildingBlock: UVAHIK_clean_linker_0, # of connection points: 2
#     Edge 30, Type (0, 0), BuildingBlock: UVAHIK_clean_linker_0, # of connection points: 2
#     Edge 31, Type (0, 0), BuildingBlock: UVAHIK_clean_linker_0, # of connection points: 2
#     Edge 32, Type (0, 0), BuildingBlock: UVAHIK_clean_linker_0, # of connection points: 2
#     Edge 33, Type (0, 0), BuildingBlock: UVAHIK_clean_linker_0, # of connection points: 2
#     Edge 34, Type (0, 0), BuildingBlock: UVAHIK_clean_linker_0, # of connection points: 2
#     Edge 35, Type (0, 0), BuildingBlock: UVAHIK_clean_linker_0, # of connection points: 2
#     Edge 36, Type (0, 0), BuildingBlock: UVAHIK_clean_linker_0, # of connection points: 2
#     Edge 37, Type (0, 0), BuildingBlock: UVAHIK_clean_linker_0, # of connection points: 2
#     Edge 38, Type (0, 0), BuildingBlock: UVAHIK_clean_linker_0, # of connection points: 2
#     Edge 39, Type (0, 0), BuildingBlock: UVAHIK_clean_linker_0, # of connection points: 2
#     Edge 40, Type (0, 0), BuildingBlock: UVAHIK_clean_linker_0, # of connection points: 2
#     Edge 41, Type (0, 0), BuildingBlock: UVAHIK_clean_linker_0, # of connection points: 2
#     Edge 42, Type (0, 0), BuildingBlock: UVAHIK_clean_linker_0, # of connection points: 2
#     Edge 43, Type (0, 0), BuildingBlock: UVAHIK_clean_linker_0, # of connection points: 2
#     Edge 44, Type (0, 0), BuildingBlock: UVAHIK_clean_linker_0, # of connection points: 2
#     Edge 45, Type (0, 0), BuildingBlock: UVAHIK_clean_linker_0, # of connection points: 2
#     Edge 46, Type (0, 0), BuildingBlock: UVAHIK_clean_linker_0, # of connection points: 2
#     Edge 47, Type (0, 0), BuildingBlock: UVAHIK_clean_linker_0, # of connection points: 2
# Relax obj value: 0.188
# Max RMSD: 0.178
# Mean RMSD: 0.178
data_MOF--net-mon--node1-CEKHIL_clean_sbu_0--edge1-UVAHIK_clean_linker_0
_symmetry_space_group_name_H-M    P1
_symmetry_Int_Tables_number       1
_symmetry_cell_setting            triclinic
loop_
_symmetry_equiv_pos_as_xyz
'x, y, z'
_cell_length_a     43.226473
_cell_length_b     43.137875
_cell_length_c     109.82452
_cell_angle_alpha  89.996856
_cell_angle_beta   90.0193
_cell_angle_gamma 90.015706
loop_
_atom_site_label
_atom_site_type_symbol
_atom_site_fract_x
_atom_site_fract_y
_atom_site_fract_z
_atom_type_partial_charge
Co0 Co 0.01775 0.02953 0.58201 0.0
O1 O 0.03796 0.06519 0.57507 0.0
O2 O 0.9926 0.06607 0.58444 0.0
C3 C 0.06026 0.01083 0.59134 0.0
O4 O 0.99033 0.99822 0.59087 0.0
Co5 Co 0.03763 0.96198 0.5759 0.0
O6 O 0.01445 0.95209 0.59094 0.0
C7 C 0.9976 0.99692 0.55878 0.0
C8 C 0.0146 0.08125 0.57898 0.0
C9 C 0.99328 0.97019 0.59475 0.0
O10 O 0.99652 0.02043 0.566 0.0
O11 O 0.01349 0.97246 0.56091 0.0
O12 O 0.04406 0.03257 0.59648 0.0
O13 O 0.05155 0.00281 0.58057 0.0
Co14 Co 0.22485 0.76687 0.8323 0.0
O15 O 0.1869 0.78791 0.82849 0.0
O16 O 0.18995 0.74122 0.8368 0.0
C17 C 0.24784 0.8081 0.84106 0.0
O18 O 0.25972 0.73846 0.83799 0.0
Co19 Co 0.28744 0.78899 0.82113 0.0
O20 O 0.30563 0.75916 0.8328 0.0
C21 C 0.24361 0.75246 0.80631 0.0
C22 C 0.17274 0.76394 0.83294 0.0
C23 C 0.28953 0.73853 0.83818 0.0
O24 O 0.22597 0.74775 0.81555 0.0
O25 O 0.26754 0.76989 0.80646 0.0
O26 O 0.22878 0.79103 0.84729 0.0
O27 O 0.25042 0.80118 0.82969 0.0
Co28 Co 0.50197 0.96867 0.08046 0.0
O29 O 0.48319 0.9311 0.07462 0.0
O30 O 0.52797 0.9334 0.08436 0.0
C31 C 0.45859 0.9881 0.0889 0.0
O32 O 0.52769 0.0031 0.0884 0.0
Co33 Co 0.47946 0.03319 0.07118 0.0
O34 O 0.50379 0.04865 0.08513 0.0
C35 C 0.52272 0.99605 0.05625 0.0
C36 C 0.50663 0.91652 0.07925 0.0
C37 C 0.52472 0.03249 0.09027 0.0
O38 O 0.52397 0.97463 0.0644 0.0
O39 O 0.5056 0.02015 0.05708 0.0
O40 O 0.47517 0.96793 0.09478 0.0
O41 O 0.46722 0.9937 0.07788 0.0
Co42 Co 0.28639 0.23939 0.33 0.0
O43 O 0.32437 0.22122 0.32436 0.0
O44 O 0.32083 0.26661 0.33367 0.0
C45 C 0.26816 0.19595 0.3389 0.0
O46 O 0.25152 0.26481 0.33767 0.0
Co47 Co 0.22242 0.21445 0.32116 0.0
O48 O 0.20648 0.23978 0.33475 0.0
C49 C 0.25778 0.25847 0.30582 0.0
C50 C 0.33827 0.24531 0.32883 0.0
C51 C 0.22226 0.26151 0.33957 0.0
O52 O 0.27965 0.26035 0.31375 0.0
O53 O 0.23415 0.24081 0.30693 0.0
O54 O 0.28787 0.21349 0.3446 0.0
O55 O 0.26229 0.20373 0.3278 0.0
Co56 Co 0.02156 0.96984 0.4106 0.0
O57 O 0.04105 0.93302 0.41682 0.0
O58 O 0.99456 0.9345 0.40836 0.0
C59 C 0.06348 0.98738 0.40054 0.0
O60 O 0.99454 0.00294 0.40262 0.0
Co61 Co 0.04563 0.03576 0.41723 0.0
O62 O 0.01986 0.04845 0.40317 0.0
C63 C 0.00701 0.00084 0.43481 0.0
C64 C 0.01655 0.91814 0.41329 0.0
C65 C 0.99774 0.03147 0.39938 0.0
O66 O 0.00279 0.97882 0.42706 0.0
O67 O 0.02459 0.02419 0.43281 0.0
O68 O 0.04573 0.96663 0.39556 0.0
O69 O 0.05668 0.99488 0.41158 0.0
Co70 Co 0.28998 0.76151 0.66005 0.0
O71 O 0.32824 0.77992 0.66531 0.0
O72 O 0.32412 0.73405 0.6564 0.0
C73 C 0.27127 0.80448 0.65099 0.0
O74 O 0.25493 0.73559 0.65281 0.0
Co75 Co 0.22608 0.78622 0.66891 0.0
O76 O 0.21012 0.76132 0.65516 0.0
C77 C 0.26244 0.74361 0.68451 0.0
C78 C 0.34182 0.75544 0.66101 0.0
C79 C 0.22586 0.7392 0.65062 0.0
O80 O 0.28402 0.74137 0.67648 0.0
O81 O 0.23856 0.76087 0.68335 0.0
O82 O 0.29073 0.78674 0.64527 0.0
O83 O 0.26583 0.79714 0.66216 0.0
Co84 Co 0.49323 0.03416 0.91049 0.0
O85 O 0.47697 0.07172 0.91732 0.0
O86 O 0.52286 0.06756 0.90852 0.0
C87 C 0.44978 0.02092 0.90044 0.0
O88 O 0.51698 0.99952 0.90194 0.0
Co89 Co 0.46363 0.97016 0.91667 0.0
O90 O 0.4877 0.95642 0.90231 0.0
C91 C 0.50647 -4e-05 0.93419 0.0
C92 C 0.50229 0.08507 0.91378 0.0
C93 C 0.51109 0.97156 0.8985 0.0
O94 O 0.51196 0.02223 0.92667 0.0
O95 O 0.48675 0.97842 0.93213 0.0
O96 O 0.46895 0.04067 0.89566 0.0
O97 O 0.45617 0.01209 0.91136 0.0
Co98 Co 0.22886 0.23414 0.15877 0.0
O99 O 0.19022 0.21613 0.16369 0.0
O100 O 0.19541 0.26327 0.15599 0.0
C101 C 0.24588 0.19218 0.14852 0.0
O102 O 0.26492 0.25981 0.1522 0.0
Co103 Co 0.29121 0.20435 0.16723 0.0
O104 O 0.30947 0.23412 0.15558 0.0
C105 C 0.25615 0.24502 0.184 0.0
C106 C 0.1772 0.24163 0.16012 0.0
C107 C 0.29446 0.25684 0.15108 0.0
O108 O 0.23596 0.25118 0.1757 0.0
O109 O 0.27813 0.22548 0.18257 0.0
O110 O 0.22708 0.21155 0.14328 0.0
O111 O 0.25141 0.19736 0.15985 0.0
Co112 Co 0.79195 0.26118 0.16176 0.0
O113 O 0.83033 0.28205 0.165 0.0
O114 O 0.82642 0.23412 0.15795 0.0
C115 C 0.76925 0.30102 0.15193 0.0
O116 O 0.75625 0.23281 0.15688 0.0
Co117 Co 0.73082 0.2871 0.17302 0.0
O118 O 0.71129 0.25357 0.16334 0.0
C119 C 0.7757 0.25429 0.18841 0.0
C120 C 0.84407 0.25708 0.16127 0.0
C121 C 0.72652 0.23262 0.15775 0.0
O122 O 0.79054 0.24487 0.17896 0.0
O123 O 0.75369 0.27408 0.18803 0.0
O124 O 0.7882 0.28282 0.14615 0.0
O125 O 0.76713 0.29628 0.16348 0.0
Co126 Co 0.72673 0.73435 0.66054 0.0
O127 O 0.68828 0.71412 0.66423 0.0
O128 O 0.69252 0.76223 0.65738 0.0
C129 C 0.74719 0.69394 0.6503 0.0
O130 O 0.7623 0.76241 0.65527 0.0
Co131 Co 0.78935 0.70715 0.66993 0.0
O132 O 0.80781 0.73917 0.65922 0.0
C133 C 0.74684 0.73945 0.68678 0.0
C134 C 0.67473 0.73946 0.66077 0.0
C135 C 0.79207 0.76136 0.6547 0.0
O136 O 0.73031 0.74965 0.67788 0.0
O137 O 0.76882 0.71984 0.68547 0.0
O138 O 0.7285 0.71291 0.64476 0.0
O139 O 0.75087 0.69881 0.66175 0.0
Co140 Co 0.72322 0.262 0.33337 0.0
O141 O 0.68464 0.28066 0.32873 0.0
O142 O 0.68911 0.23511 0.33787 0.0
C143 C 0.74343 0.30534 0.34165 0.0
O144 O 0.75905 0.23604 0.33998 0.0
Co145 Co 0.78587 0.2863 0.32293 0.0
O146 O 0.80388 0.26047 0.33601 0.0
C147 C 0.74733 0.24273 0.30855 0.0
C148 C 0.67122 0.25653 0.33338 0.0
C149 C 0.78862 0.23879 0.34112 0.0
O150 O 0.72684 0.24088 0.31701 0.0
O151 O 0.77122 0.2602 0.30904 0.0
O152 O 0.72484 0.28799 0.34799 0.0
O153 O 0.74718 0.29733 0.33046 0.0
Co154 Co 0.78913 0.74156 0.8343 0.0
O155 O 0.82894 0.72364 0.83117 0.0
O156 O 0.82137 0.77082 0.83857 0.0
C157 C 0.76901 0.69971 0.84367 0.0
O158 O 0.75138 0.76701 0.83919 0.0
Co159 Co 0.72996 0.71232 0.82271 0.0
O160 O 0.70837 0.74055 0.83414 0.0
C161 C 0.7718 0.7506 0.80778 0.0
C162 C 0.8407 0.74929 0.83523 0.0
C163 C 0.7218 0.76329 0.83935 0.0
O164 O 0.78736 0.75871 0.81723 0.0
O165 O 0.75006 0.73048 0.8079 0.0
O166 O 0.78637 0.71895 0.84969 0.0
O167 O 0.76689 0.70483 0.83214 0.0
Co168 Co 0.52291 0.53045 0.08101 0.0
O169 O 0.54162 0.56905 0.07637 0.0
O170 O 0.49433 0.56437 0.08389 0.0
C171 C 0.5643 0.51222 0.09128 0.0
O172 O 0.49661 0.49444 0.08729 0.0
Co173 Co 0.55197 0.46791 0.07218 0.0
O174 O 0.52129 0.44949 0.0834 0.0
C175 C 0.512 0.50429 0.05559 0.0
C176 C 0.51631 0.58239 0.07992 0.0
C177 C 0.49892 0.4647 0.08804 0.0
O178 O 0.50603 0.52426 0.064 0.0
O179 O 0.53125 0.48199 0.0569 0.0
O180 O 0.54526 0.53124 0.09657 0.0
O181 O 0.55923 0.50729 0.0799 0.0
Co182 Co 0.99633 0.46629 0.58158 0.0
O183 O 0.97849 0.42832 0.57574 0.0
O184 O 0.02469 0.43217 0.58432 0.0
C185 C 0.95342 0.48288 0.59122 0.0
O186 O 0.02172 0.5013 0.58919 0.0
Co187 Co 0.96931 0.53045 0.57391 0.0
O188 O 0.99465 0.54563 0.58767 0.0
C189 C 0.01034 0.49594 0.55708 0.0
C190 C 0.00347 0.41466 0.57948 0.0
C191 C 0.01742 0.53012 0.59181 0.0
O192 O 0.0151 0.47463 0.56508 0.0
O193 O 0.9918 0.51872 0.55869 0.0
O194 O 0.97185 0.4633 0.59655 0.0
O195 O 0.96024 0.48967 0.58013 0.0
Co196 Co 0.51579 0.46992 0.91054 0.0
O197 O 0.53646 0.43455 0.91749 0.0
O198 O 0.49132 0.43297 0.90796 0.0
C199 C 0.55829 0.4894 0.90143 0.0
O200 O 0.48797 0.50084 0.90168 0.0
Co201 Co 0.53447 0.53786 0.91669 0.0
O202 O 0.51125 0.54742 0.90162 0.0
C203 C 0.49391 0.50241 0.9335 0.0
C204 C 0.51346 0.41813 0.91348 0.0
C205 C 0.49034 0.52896 0.89786 0.0
O206 O 0.49396 0.47857 0.92643 0.0
O207 O 0.50928 0.52721 0.93139 0.0
O208 O 0.54255 0.46749 0.89617 0.0
O209 O 0.5491 0.49721 0.91216 0.0
Co210 Co 0.99145 0.53367 0.40831 0.0
O211 O 0.97226 0.57174 0.4133 0.0
O212 O 0.02131 0.56721 0.40778 0.0
C213 C 0.95299 0.51888 0.39579 0.0
O214 O 0.01892 0.49848 0.40218 0.0
Co215 Co 0.95924 0.47023 0.41369 0.0
O216 O 0.99391 0.45287 0.40415 0.0
C217 C 0.99629 0.50121 0.43285 0.0
C218 C -0.00127 0.58499 0.41135 0.0
C219 C 0.01722 0.46887 0.40085 0.0
O220 O 0.00333 0.52374 0.42567 0.0
O221 O 0.97798 0.47909 0.42995 0.0
O222 O 0.97402 0.53801 0.39193 0.0
O223 O 0.95444 0.51137 0.40711 0.0
C224 C 0.04165 0.1317 0.57559 0.0
C225 C 0.01407 0.11538 0.57782 0.0
C226 C 0.04174 0.16408 0.57516 0.0
C227 C 0.99367 0.23128 0.56896 0.0
H228 H 0.04952 0.27637 0.59019 0.0
C229 C 0.98029 0.36235 0.57644 0.0
C230 C 0.00663 0.3806 0.57859 0.0
C231 C 0.98251 0.33013 0.57585 0.0
C232 C 0.03417 0.26427 0.58402 0.0
H233 H 0.96486 0.12008 0.58109 0.0
H234 H 0.96488 0.17684 0.57997 0.0
H235 H 0.05092 0.21983 0.5898 0.0
H236 H 0.05611 0.37946 0.58164 0.0
H237 H 0.06035 0.32307 0.58012 0.0
H238 H 0.97741 0.27534 0.56286 0.0
C239 C 0.98644 0.16446 0.57869 0.0
C240 C 0.03488 0.23184 0.58387 0.0
C241 C 0.98644 0.13206 0.57936 0.0
C242 C 0.0354 0.36594 0.58002 0.0
C243 C 0.03773 0.33359 0.57923 0.0
C244 C 0.99333 0.26367 0.56893 0.0
C245 C 0.01415 0.18075 0.57671 0.0
C246 C 0.01434 0.21508 0.57647 0.0
C247 C 0.01125 0.31521 0.57717 0.0
C248 C 0.01321 0.28067 0.57661 0.0
H249 H 0.06334 0.11949 0.57442 0.0
H250 H 0.06336 0.17612 0.57356 0.0
H251 H 0.9779 0.21885 0.56305 0.0
H252 H 0.95771 0.37292 0.57543 0.0
H253 H 0.96145 0.31695 0.57457 0.0
C254 C 0.88823 0.78247 0.83721 0.0
C255 C 0.87457 0.75305 0.83615 0.0
C256 C 0.92049 0.78544 0.8377 0.0
C257 C 0.99132 0.74302 0.84539 0.0
H258 H 0.03197 0.79687 0.82211 0.0
C259 C 0.12276 0.73581 0.83654 0.0
C260 C 0.13864 0.76334 0.83385 0.0
C261 C 0.09046 0.73568 0.83739 0.0
C262 C 0.02108 0.78212 0.82884 0.0
H263 H 0.88378 0.70367 0.83509 0.0
H264 H 0.93981 0.70886 0.83618 0.0
H265 H 0.97565 0.79586 0.82316 0.0
H266 H 0.13327 0.81246 0.8302 0.0
H267 H 0.07729 0.81249 0.83207 0.0
H268 H 0.03652 0.72948 0.85123 0.0
C269 C 0.92571 0.7296 0.83656 0.0
C270 C 0.98879 0.78154 0.8294 0.0
C271 C 0.89364 0.72668 0.83585 0.0
C272 C 0.12166 0.79077 0.83216 0.0
C273 C 0.08948 0.79075 0.83317 0.0
C274 C 0.02362 0.74389 0.84496 0.0
C275 C 0.93947 0.75897 0.8374 0.0
C276 C 0.97362 0.76167 0.83756 0.0
C277 C 0.07338 0.76318 0.83574 0.0
C278 C 0.03896 0.76314 0.83656 0.0
H279 H 0.87405 0.80317 0.83745 0.0
H280 H 0.93061 0.80835 0.83838 0.0
H281 H 0.98014 0.7277 0.85185 0.0
H282 H 0.13525 0.71429 0.83785 0.0
H283 H 0.07888 0.71389 0.83918 0.0
C284 C 0.48495 0.6315 0.0809 0.0
C285 C 0.51373 0.61658 0.0799 0.0
C286 C 0.48323 0.66397 0.08092 0.0
C287 C 0.528 0.73333 0.08825 0.0
H288 H 0.47508 0.77615 0.06526 0.0
C289 C 0.53523 0.86622 0.08182 0.0
C290 C 0.50779 0.88224 0.07917 0.0
C291 C 0.53567 0.83373 0.08191 0.0
C292 C 0.48962 0.76469 0.07191 0.0
H293 H 0.56324 0.62392 0.07829 0.0
H294 H 0.5602 0.6803 0.0786 0.0
H295 H 0.47496 0.71965 0.06593 0.0
H296 H 0.45919 0.87688 0.07474 0.0
H297 H 0.45959 0.82068 0.07537 0.0
H298 H 0.54217 0.77804 0.0945 0.0
C299 C 0.53902 0.66699 0.07928 0.0
C300 C 0.48956 0.73227 0.07224 0.0
C301 C 0.54069 0.63469 0.07903 0.0
C302 C 0.48082 0.86521 0.07668 0.0
C303 C 0.48111 0.83285 0.07697 0.0
C304 C 0.52769 0.76574 0.08807 0.0
C305 C 0.51032 0.68196 0.0802 0.0
C306 C 0.50895 0.7163 0.08033 0.0
C307 C 0.50854 0.81657 0.07955 0.0
C308 C 0.50868 0.78193 0.07983 0.0
H309 H 0.46382 0.61812 0.08158 0.0
H310 H 0.46082 0.67502 0.08167 0.0
H311 H 0.54299 0.72153 0.09465 0.0
H312 H 0.5564 0.87875 0.08373 0.0
H313 H 0.55739 0.82214 0.08372 0.0
C314 C 0.62208 0.22568 0.33507 0.0
C315 C 0.63711 0.25434 0.33369 0.0
C316 C 0.58969 0.22407 0.33494 0.0
C317 C 0.51968 0.26921 0.34066 0.0
H318 H 0.48001 0.21473 0.31734 0.0
C319 C 0.38783 0.27485 0.33178 0.0
C320 C 0.37244 0.24703 0.3291 0.0
C321 C 0.4202 0.27569 0.33243 0.0
C322 C 0.49055 0.2297 0.32408 0.0
H323 H 0.63015 0.30382 0.33146 0.0
H324 H 0.57378 0.30103 0.33155 0.0
H325 H 0.53619 0.21493 0.31908 0.0
H326 H 0.37878 0.19818 0.32516 0.0
H327 H 0.43471 0.19929 0.32674 0.0
H328 H 0.47429 0.2835 0.34594 0.0
C329 C 0.58697 0.27983 0.33259 0.0
C330 C 0.5228 0.22983 0.32502 0.0
C331 C 0.61922 0.28137 0.33247 0.0
C332 C 0.38998 0.2201 0.3271 0.0
C333 C 0.42219 0.2208 0.32794 0.0
C334 C 0.48739 0.26871 0.33988 0.0
C335 C 0.57189 0.25118 0.33372 0.0
C336 C 0.53766 0.24974 0.33325 0.0
C337 C 0.43784 0.24859 0.33059 0.0
C338 C 0.47233 0.24909 0.33151 0.0
H339 H 0.63531 0.2045 0.33602 0.0
H340 H 0.57854 0.2017 0.33586 0.0
H341 H 0.53064 0.28465 0.34713 0.0
H342 H 0.3749 0.29598 0.33334 0.0
H343 H 0.43134 0.29767 0.33427 0.0
C344 C 0.04159 0.86675 0.41681 0.0
C345 C 0.01473 0.88401 0.41432 0.0
C346 C 0.04057 0.8344 0.41719 0.0
C347 C 0.98933 0.76842 0.42221 0.0
H348 H 0.04849 0.72234 0.40279 0.0
C349 C 0.97561 0.63751 0.41392 0.0
C350 C 0.00212 0.61894 0.4127 0.0
C351 C 0.9781 0.66968 0.41475 0.0
C352 C 0.03215 0.73473 0.40846 0.0
H353 H 0.96561 0.88096 0.41055 0.0
H354 H 0.96371 0.82422 0.41149 0.0
H355 H 0.05077 0.77881 0.40321 0.0
H356 H 0.05214 0.61948 0.41165 0.0
H357 H 0.05671 0.67577 0.41354 0.0
H358 H 0.97105 0.7246 0.42772 0.0
C359 C 0.98556 0.83586 0.41305 0.0
C360 C 0.03338 0.76712 0.40863 0.0
C361 C 0.98667 0.86827 0.41248 0.0
C362 C 0.0313 0.63323 0.41253 0.0
C363 C 0.03385 0.66552 0.41353 0.0
C364 C 0.98837 0.73603 0.42219 0.0
C365 C 0.01259 0.81863 0.41528 0.0
C366 C 0.01178 0.78427 0.4154 0.0
C367 C 0.00723 0.68421 0.41458 0.0
C368 C 0.00952 0.7187 0.41519 0.0
H369 H 0.0636 0.8782 0.41824 0.0
H370 H 0.06168 0.82169 0.41902 0.0
H371 H 0.97269 0.78109 0.42764 0.0
H372 H 0.95273 0.62726 0.41398 0.0
H373 H 0.95702 0.68316 0.41527 0.0
C374 C 0.39064 0.72451 0.65869 0.0
C375 C 0.37592 0.75299 0.66089 0.0
C376 C 0.42298 0.72269 0.65843 0.0
C377 C 0.49252 0.76879 0.65285 0.0
H378 H 0.53458 0.70775 0.67275 0.0
C379 C 0.62549 0.77015 0.6593 0.0
C380 C 0.64061 0.74151 0.66045 0.0
C381 C 0.59311 0.77158 0.65914 0.0
C382 C 0.5233 0.72462 0.66696 0.0
H383 H 0.38342 0.80193 0.66439 0.0
H384 H 0.43975 0.79878 0.66371 0.0
H385 H 0.47826 0.70929 0.67247 0.0
H386 H 0.6338 0.69185 0.66199 0.0
H387 H 0.57776 0.69416 0.66125 0.0
H388 H 0.53735 0.78375 0.64707 0.0
C389 C 0.42632 0.77789 0.66226 0.0
C390 C 0.49099 0.72553 0.66686 0.0
C391 C 0.39409 0.77961 0.66273 0.0
C392 C 0.62281 0.71435 0.66124 0.0
C393 C 0.59058 0.7157 0.6609 0.0
C394 C 0.52485 0.76761 0.6528 0.0
C395 C 0.44108 0.74943 0.66014 0.0
C396 C 0.47531 0.74773 0.65986 0.0
C397 C 0.57521 0.74433 0.65995 0.0
C398 C 0.54072 0.7456 0.6599 0.0
H399 H 0.37721 0.70364 0.65723 0.0
H400 H 0.43384 0.70049 0.65673 0.0
H401 H 0.48093 0.78598 0.64728 0.0
H402 H 0.63864 0.79148 0.65871 0.0
H403 H 0.58217 0.7941 0.65857 0.0
C404 C 0.4859 0.367 0.91336 0.0
C405 C 0.51342 0.38401 0.91463 0.0
C406 C 0.48627 0.33463 0.91418 0.0
C407 C 0.53448 0.26738 0.9089 0.0
H408 H 0.47974 0.22474 0.93127 0.0
C409 C 0.53492 0.13338 0.91318 0.0
C410 C 0.50618 0.11898 0.91506 0.0
C411 C 0.53768 0.1657 0.914 0.0
C412 C 0.49489 0.23615 0.92483 0.0
H413 H 0.56292 0.38054 0.91761 0.0
H414 H 0.56358 0.3239 0.91868 0.0
H415 H 0.47996 0.28119 0.93063 0.0
H416 H 0.45778 0.12711 0.91916 0.0
H417 H 0.4622 0.18297 0.92008 0.0
H418 H 0.54849 0.22259 0.90265 0.0
C419 C 0.54176 0.33568 0.91722 0.0
C420 C 0.49508 0.26852 0.92454 0.0
C421 C 0.54131 0.36805 0.91667 0.0
C422 C 0.48036 0.13745 0.91779 0.0
C423 C 0.48298 0.16962 0.91841 0.0
C424 C 0.53388 0.23494 0.90901 0.0
C425 C 0.51424 0.3187 0.916 0.0
C426 C 0.51473 0.28441 0.91653 0.0
C427 C 0.51164 0.1843 0.91654 0.0
C428 C 0.51385 0.21884 0.91691 0.0
H429 H 0.4641 0.3787 0.91178 0.0
H430 H 0.46477 0.32197 0.91315 0.0
H431 H 0.54975 0.27917 0.9026 0.0
H432 H 0.55525 0.1197 0.9111 0.0
H433 H 0.56025 0.17604 0.91267 0.0
C434 C 0.12867 0.27358 0.15846 0.0
C435 C 0.14312 0.24477 0.16026 0.0
C436 C 0.09631 0.27579 0.15838 0.0
C437 C 0.02641 0.23011 0.15255 0.0
H438 H 0.98437 0.29035 0.17281 0.0
C439 C 0.89371 0.22715 0.15942 0.0
C440 C 0.87822 0.25554 0.16073 0.0
C441 C 0.9261 0.22616 0.15916 0.0
C442 C 0.99565 0.27371 0.16693 0.0
H443 H 0.13503 0.19572 0.16335 0.0
H444 H 0.07885 0.19959 0.16301 0.0
H445 H 0.04075 0.28911 0.1724 0.0
H446 H 0.88443 0.30523 0.16249 0.0
H447 H 0.94051 0.3037 0.16159 0.0
H448 H 0.98158 0.21502 0.14684 0.0
C449 C 0.09244 0.22043 0.16169 0.0
C450 C 0.02799 0.27299 0.16674 0.0
C451 C 0.12464 0.2183 0.16196 0.0
C452 C 0.89569 0.28292 0.16159 0.0
C453 C 0.92795 0.282 0.16116 0.0
C454 C 0.99408 0.2311 0.1526 0.0
C455 C 0.07793 0.24915 0.15989 0.0
C456 C 0.04367 0.25102 0.15963 0.0
C457 C 0.94368 0.25361 0.16004 0.0
C458 C 0.97821 0.25277 0.15985 0.0
H459 H 0.14233 0.29436 0.15712 0.0
H460 H 0.08565 0.29821 0.15694 0.0
H461 H 0.03796 0.21313 0.14689 0.0
H462 H 0.88084 0.20566 0.15878 0.0
H463 H 0.93731 0.20379 0.15847 0.0
C464 C 0.978 0.97171 0.45105 0.0
C465 C 0.99128 0.99939 0.44677 0.0
C466 C 0.96597 0.9701 0.46287 0.0
C467 C 0.94441 0.018 0.48988 0.0
H468 H 0.98016 0.94981 0.508 0.0
C469 C 0.97941 0.02544 0.54027 0.0
C470 C 0.98085 0.998 0.5471 0.0
C471 C 0.96934 0.02463 0.52816 0.0
C472 C 0.96921 0.96865 0.50311 0.0
H473 H 0.00032 0.04762 0.45123 0.0
H474 H 0.97993 0.04463 0.47173 0.0
H475 H 0.98252 0.94948 0.48599 0.0
H476 H 0.96969 0.94901 0.54722 0.0
H477 H 0.9511 0.94779 0.52631 0.0
H478 H 0.93241 0.03783 0.50713 0.0
C479 C 0.97855 0.02421 0.46601 0.0
C480 C 0.97058 0.96842 0.49044 0.0
C481 C 0.99066 0.02579 0.45428 0.0
C482 C 0.96936 0.9704 0.54205 0.0
C483 C 0.95883 0.96969 0.53006 0.0
C484 C 0.94298 0.01822 0.5026 0.0
C485 C 0.96679 0.99618 0.47056 0.0
C486 C 0.95921 0.99359 0.48369 0.0
C487 C 0.96015 0.99643 0.52278 0.0
C488 C 0.9563 0.99401 0.50937 0.0
H489 H 0.97791 0.95103 0.44546 0.0
H490 H 0.9568 0.94823 0.46611 0.0
H491 H 0.93503 0.03753 0.48489 0.0
H492 H 0.98816 0.047 0.54398 0.0
H493 H 0.97083 0.04566 0.52281 0.0
C494 C 0.25193 0.70827 0.79234 0.0
C495 C 0.23706 0.7364 0.79489 0.0
C496 C 0.25175 0.69633 0.78052 0.0
C497 C 0.27087 0.69571 0.75385 0.0
H498 H 0.20355 0.70925 0.73119 0.0
C499 C 0.28843 0.73096 0.7041 0.0
C500 C 0.26451 0.72553 0.69577 0.0
C501 C 0.28581 0.72016 0.71606 0.0
C502 C 0.22253 0.7045 0.73735 0.0
H503 H 0.20954 0.77374 0.78752 0.0
H504 H 0.20905 0.7531 0.76683 0.0
H505 H 0.19375 0.71212 0.75289 0.0
H506 H 0.22092 0.70212 0.69275 0.0
H507 H 0.217 0.68186 0.71343 0.0
H508 H 0.29984 0.6888 0.73827 0.0
C509 C 0.22037 0.73978 0.7739 0.0
C510 C 0.2169 0.70655 0.74982 0.0
C511 C 0.22064 0.75169 0.78571 0.0
C512 C 0.23951 0.7067 0.69913 0.0
C513 C 0.23719 0.69536 0.71098 0.0
C514 C 0.2765 0.69349 0.74135 0.0
C515 C 0.23679 0.71251 0.77109 0.0
C516 C 0.24124 0.70348 0.75818 0.0
C517 C 0.25938 0.70347 0.71978 0.0
C518 C 0.25264 0.69908 0.73294 0.0
H519 H 0.26506 0.69644 0.79935 0.0
H520 H 0.26437 0.67517 0.77864 0.0
H521 H 0.29019 0.69331 0.76006 0.0
H522 H 0.30779 0.74567 0.70166 0.0
H523 H 0.30329 0.72705 0.72259 0.0
C524 C 0.53967 0.96581 0.03809 0.0
C525 C 0.54107 0.99297 0.04507 0.0
C526 C 0.55051 0.96588 0.02609 0.0
C527 C 0.55726 0.02324 0.00171 0.0
H528 H 0.5795 0.95133 0.98248 0.0
C529 C 0.54112 0.02415 0.94997 0.0
C530 C 0.52353 0.9988 0.94587 0.0
C531 C 0.55504 0.02347 0.96147 0.0
C532 C 0.57353 0.9717 0.98775 0.0
H533 H 0.558 0.04017 0.04572 0.0
H534 H 0.57829 0.03992 0.02502 0.0
H535 H 0.58439 0.94937 0.00464 0.0
H536 H 0.50852 0.95207 0.95034 0.0
H537 H 0.53213 0.95119 0.97032 0.0
H538 H 0.54495 0.04506 0.98497 0.0
C539 C 0.56774 0.01897 0.02853 0.0
C540 C 0.57626 0.97056 0.00043 0.0
C541 C 0.55631 0.01909 0.04039 0.0
C542 C 0.52155 0.97221 0.95324 0.0
C543 C 0.5355 0.97149 0.96467 0.0
C544 C 0.55463 0.0244 0.98908 0.0
C545 C 0.5633 0.99301 0.02099 0.0
C546 C 0.56701 0.99593 0.00758 0.0
C547 C 0.55177 0.99736 0.96905 0.0
C548 C 0.56152 0.99825 0.98199 0.0
H549 H 0.52791 0.94544 0.04155 0.0
H550 H 0.54656 0.94549 0.02055 0.0
H551 H 0.54942 0.04312 0.00688 0.0
H552 H 0.54335 0.04488 0.94447 0.0
H553 H 0.56765 0.04367 0.96458 0.0
C554 C 0.22837 0.27756 0.19961 0.0
C555 C 0.25503 0.26172 0.19575 0.0
C556 C 0.22749 0.29151 0.21112 0.0
C557 C 0.27703 0.31397 0.23757 0.0
H558 H 0.20792 0.28402 0.25666 0.0
C559 C 0.28629 0.27757 0.28752 0.0
C560 C 0.2594 0.27711 0.29464 0.0
C561 C 0.28517 0.28898 0.2756 0.0
C562 C 0.22707 0.29346 0.2515 0.0
H563 H 0.30232 0.2499 0.20064 0.0
H564 H 0.30056 0.27357 0.22056 0.0
H565 H 0.20607 0.28013 0.23471 0.0
H566 H 0.21145 0.2914 0.29565 0.0
H567 H 0.20978 0.31249 0.27508 0.0
H568 H 0.29873 0.3257 0.2545 0.0
C569 C 0.28039 0.27553 0.21476 0.0
C570 C 0.22595 0.2912 0.23885 0.0
C571 C 0.28119 0.26148 0.20337 0.0
C572 C 0.23235 0.29107 0.2902 0.0
C573 C 0.23138 0.30301 0.27842 0.0
C574 C 0.27815 0.31628 0.25026 0.0
C575 C 0.25337 0.29015 0.21889 0.0
C576 C 0.25147 0.3001 0.23179 0.0
C577 C 0.25724 0.30048 0.27074 0.0
C578 C 0.25371 0.30481 0.25739 0.0
H579 H 0.20794 0.27837 0.1939 0.0
H580 H 0.20637 0.30273 0.21407 0.0
H581 H 0.29685 0.32153 0.23232 0.0
H582 H 0.30739 0.26687 0.2908 0.0
H583 H 0.30552 0.28652 0.26994 0.0
C584 C 0.77715 0.20808 0.2019 0.0
C585 C 0.782 0.23999 0.20024 0.0
C586 C 0.77613 0.19562 0.21366 0.0
C587 C 0.7461 0.19285 0.23972 0.0
H588 H 0.80829 0.21055 0.26417 0.0
C589 C 0.72192 0.22916 0.28894 0.0
C590 C 0.74465 0.22314 0.29771 0.0
C591 C 0.72543 0.21762 0.27711 0.0
C592 C 0.79086 0.20463 0.25748 0.0
H593 H 0.79114 0.28366 0.20921 0.0
H594 H 0.79094 0.26169 0.22974 0.0
H595 H 0.82092 0.21671 0.24273 0.0
H596 H 0.78677 0.198 0.30167 0.0
H597 H 0.79248 0.17713 0.28114 0.0
H598 H 0.71527 0.18307 0.25454 0.0
C599 C 0.7876 0.24638 0.22202 0.0
C600 C 0.79814 0.20833 0.24521 0.0
C601 C 0.78775 0.25893 0.21034 0.0
C602 C 0.76902 0.20289 0.29497 0.0
C603 C 0.77235 0.19111 0.28323 0.0
C604 C 0.73864 0.18952 0.25204 0.0
C605 C 0.78082 0.21486 0.22379 0.0
C606 C 0.77553 0.20353 0.23627 0.0
C607 C 0.75168 0.19996 0.274 0.0
C608 C 0.76068 0.19642 0.26105 0.0
H609 H 0.77212 0.19325 0.19418 0.0
H610 H 0.77072 0.17129 0.21487 0.0
H611 H 0.72824 0.1893 0.23293 0.0
H612 H 0.70314 0.24502 0.2909 0.0
H613 H 0.70919 0.22499 0.27017 0.0
C614 C 0.75038 0.73339 0.70912 0.0
C615 C 0.74255 0.75207 0.69912 0.0
C616 C 0.7533 0.74625 0.72065 0.0
C617 C 0.73294 0.79774 0.74284 0.0
H618 H 0.81825 0.78938 0.75343 0.0
C619 C 0.76397 0.79447 0.79355 0.0
C620 C 0.77794 0.76588 0.79616 0.0
C621 C 0.7633 0.80556 0.78159 0.0
C622 C 0.79446 0.79254 0.75058 0.0
H623 H 0.7295 0.79841 0.69345 0.0
H624 H 0.73444 0.82107 0.71399 0.0
H625 H 0.80553 0.78494 0.73183 0.0
H626 H 0.80338 0.72711 0.78877 0.0
H627 H 0.80291 0.7466 0.76792 0.0
H628 H 0.72145 0.80249 0.76171 0.0
C629 C 0.73841 0.7965 0.7127 0.0
C630 C 0.78723 0.79015 0.73825 0.0
C631 C 0.73541 0.78352 0.70104 0.0
C632 C 0.79296 0.74946 0.78692 0.0
C633 C 0.79271 0.76071 0.77502 0.0
C634 C 0.74017 0.80018 0.75522 0.0
C635 C 0.74843 0.77801 0.72244 0.0
C636 C 0.75629 0.79113 0.7344 0.0
C637 C 0.77689 0.78829 0.77216 0.0
C638 C 0.7708 0.79579 0.75923 0.0
H639 H 0.75569 0.70903 0.70793 0.0
H640 H 0.76064 0.73158 0.72813 0.0
H641 H 0.70892 0.79821 0.74003 0.0
H642 H 0.75188 0.80716 0.80061 0.0
H643 H 0.75094 0.82682 0.77961 0.0
C644 C 0.46298 0.52883 0.94946 0.0
C645 C 0.47631 0.50145 0.94496 0.0
C646 C 0.45183 0.53018 0.96134 0.0
C647 C 0.43882 0.48386 0.98962 0.0
H648 H 0.47682 0.55541 0.00495 0.0
C649 C 0.49488 0.47976 0.03622 0.0
C650 C 0.49524 0.5059 0.04387 0.0
C651 C 0.48061 0.4809 0.02488 0.0
C652 C 0.46525 0.53571 0.00087 0.0
H653 H 0.48612 0.45329 0.9489 0.0
H654 H 0.46774 0.45582 0.9699 0.0
H655 H 0.47223 0.55353 0.983 0.0
H656 H 0.4795 0.55336 0.04583 0.0
H657 H 0.45478 0.55554 0.02573 0.0
H658 H 0.43373 0.46532 0.0076 0.0
C659 C 0.46526 0.47615 0.9642 0.0
C660 C 0.4626 0.53457 0.98822 0.0
C661 C 0.47595 0.47466 0.95219 0.0
C662 C 0.47984 0.53293 0.0401 0.0
C663 C 0.46568 0.53416 0.02862 0.0
C664 C 0.44152 0.485 0.0023 0.0
C665 C 0.45438 0.50435 0.96906 0.0
C666 C 0.45056 0.50807 0.98242 0.0
C667 C 0.46637 0.50824 0.02084 0.0
C668 C 0.45606 0.51034 0.00799 0.0
H669 H 0.46247 0.54966 0.94394 0.0
H670 H 0.44283 0.552 0.9647 0.0
H671 H 0.42888 0.46341 0.98545 0.0
H672 H 0.5061 0.45836 0.03888 0.0
H673 H 0.48206 0.4607 0.01905 0.0
C674 C 0.03534 0.46533 0.54034 0.0
C675 C 0.02594 0.49398 0.54515 0.0
C676 C 0.04501 0.46327 0.52821 0.0
C677 C 0.0644 0.5098 0.50058 0.0
H678 H 0.01232 0.44957 0.48431 0.0
C679 C 0.01783 0.52577 0.45176 0.0
C680 C 0.01114 0.4992 0.44489 0.0
C681 C 0.02927 0.52285 0.46364 0.0
C682 C 0.02769 0.46608 0.48862 0.0
H683 H 0.02236 0.54331 0.54153 0.0
H684 H 0.03884 0.53967 0.52048 0.0
H685 H 0.01792 0.44748 0.50619 0.0
H686 H 0.01382 0.44901 0.44448 0.0
H687 H 0.03466 0.44396 0.46491 0.0
H688 H 0.0731 0.52913 0.48294 0.0
C689 C 0.0388 0.51879 0.52596 0.0
C690 C 0.03095 0.4648 0.50122 0.0
C691 C 0.02895 0.52081 0.538 0.0
C692 C 0.01802 0.46987 0.44973 0.0
C693 C 0.02995 0.46698 0.46144 0.0
C694 C 0.06126 0.511 0.48792 0.0
C695 C 0.0457 0.48986 0.52078 0.0
C696 C 0.04846 0.48725 0.50738 0.0
C697 C 0.03469 0.49332 0.46871 0.0
C698 C 0.04206 0.48971 0.48184 0.0
H699 H 0.03348 0.44431 0.54568 0.0
H700 H 0.05051 0.44071 0.52447 0.0
H701 H 0.0783 0.52724 0.5051 0.0
H702 H 0.01289 0.54864 0.44818 0.0
H703 H 0.03244 0.54365 0.46902 0.0
C704 C 0.2344 0.84885 0.65168 0.0
C705 C 0.25334 0.82895 0.64482 0.0
C706 C 0.2158 0.87084 0.64592 0.0
C707 C 0.17636 0.88483 0.6171 0.0
H708 H 0.16749 0.96908 0.62896 0.0
C709 C 0.10417 0.97375 0.59095 0.0
C710 C 0.08492 0.99359 0.59767 0.0
C711 C 0.1263 0.9556 0.59678 0.0
C712 C 0.16946 0.94554 0.62563 0.0
H713 H 0.26822 0.81684 0.62659 0.0
H714 H 0.23548 0.85526 0.61647 0.0
H715 H 0.20392 0.93386 0.6389 0.0
H716 H 0.07409 0.01058 0.61574 0.0
H717 H 0.11255 0.97818 0.62605 0.0
H718 H 0.14155 0.89599 0.60403 0.0
C719 C 0.235 0.85372 0.62632 0.0
C720 C 0.19039 0.92544 0.63129 0.0
C721 C 0.25384 0.83187 0.6321 0.0
C722 C 0.08872 0.99552 0.61034 0.0
C723 C 0.1108 0.97706 0.61623 0.0
C724 C 0.15534 0.90479 0.61151 0.0
C725 C 0.21558 0.8732 0.63317 0.0
C726 C 0.19409 0.89492 0.62704 0.0
C727 C 0.12953 0.95655 0.6095 0.0
C728 C 0.15173 0.93543 0.61565 0.0
H729 H 0.23359 0.84715 0.66152 0.0
H730 H 0.20087 0.88534 0.65142 0.0
H731 H 0.17825 0.86124 0.61379 0.0
H732 H 0.10199 0.97203 0.58115 0.0
H733 H 0.14081 0.94065 0.59129 0.0
C734 C 0.28534 0.8517 0.83918 0.0
C735 C 0.26622 0.83326 0.84655 0.0
C736 C 0.30289 0.87556 0.84425 0.0
C737 C 0.30974 0.92508 0.87161 0.0
H738 H 0.39479 0.93437 0.86095 0.0
C739 C 0.40292 0.98767 0.89955 0.0
C740 C 0.42495 0.0058 0.89343 0.0
C741 C 0.38102 0.97073 0.89304 0.0
C742 C 0.37092 0.93245 0.86386 0.0
H743 H 0.2503 0.82531 0.865 0.0
H744 H 0.28146 0.86671 0.87394 0.0
H745 H 0.36172 0.89588 0.85124 0.0
H746 H 0.44086 0.02132 0.87574 0.0
H747 H 0.40246 0.99136 0.86428 0.0
H748 H 0.31936 0.96109 0.88449 0.0
C749 C 0.28249 0.86306 0.86419 0.0
C750 C 0.35198 0.91037 0.85832 0.0
C751 C 0.26483 0.83921 0.8591 0.0
C752 C 0.42408 0.00753 0.88067 0.0
C753 C 0.40227 0.99029 0.87413 0.0
C754 C 0.32874 0.94709 0.87718 0.0
C755 C 0.30179 0.88144 0.85682 0.0
C756 C 0.3213 0.90613 0.86225 0.0
C757 C 0.38081 0.9714 0.88027 0.0
C758 C 0.35965 0.95067 0.87348 0.0
H759 H 0.28674 0.84779 0.82945 0.0
H760 H 0.31718 0.88955 0.83829 0.0
H761 H 0.28604 0.92279 0.87468 0.0
H762 H 0.40301 0.98597 0.90939 0.0
H763 H 0.36503 0.95612 0.89802 0.0
C764 C 0.4162 0.02725 0.08787 0.0
C765 C 0.43356 0.00594 0.09472 0.0
C766 C 0.39343 0.0453 0.09342 0.0
C767 C 0.37254 0.07734 0.12311 0.0
H768 H 0.29288 0.09339 0.10808 0.0
C769 C 0.27925 0.14538 0.1484 0.0
C770 C 0.26296 0.16802 0.14184 0.0
C771 C 0.29776 0.12389 0.14238 0.0
C772 C 0.31514 0.08935 0.11232 0.0
H773 H 0.44028 0.98623 0.11269 0.0
H774 H 0.40043 0.01781 0.12242 0.0
H775 H 0.32964 0.05855 0.09811 0.0
H776 H 0.25236 0.18543 0.12381 0.0
H777 H 0.28538 0.14803 0.1132 0.0
H778 H 0.35854 0.10842 0.13718 0.0
C779 C 0.40463 0.02072 0.11276 0.0
C780 C 0.33613 0.06937 0.10664 0.0
C781 C 0.42733 0.00255 0.10719 0.0
C782 C 0.26467 0.16815 0.12907 0.0
C783 C 0.28348 0.14669 0.12302 0.0
C784 C 0.35169 0.09735 0.12875 0.0
C785 C 0.38767 0.04248 0.10596 0.0
C786 C 0.365 0.06312 0.11201 0.0
C787 C 0.30069 0.1247 0.12964 0.0
C788 C 0.32269 0.10349 0.12347 0.0
H789 H 0.42047 0.03032 0.07823 0.0
H790 H 0.38095 0.06208 0.08797 0.0
H791 H 0.39486 0.0735 0.12733 0.0
H792 H 0.27807 0.1445 0.15825 0.0
H793 H 0.31008 0.10679 0.14773 0.0
C794 C 0.1091 0.02231 0.40031 0.0
C795 C 0.08772 0.00422 0.39382 0.0
C796 C 0.13074 0.04041 0.39417 0.0
C797 C 0.16804 0.05359 0.36427 0.0
H798 H 0.18133 0.13587 0.37755 0.0
C799 C 0.23024 0.15239 0.33834 0.0
C800 C 0.25071 0.1711 0.34504 0.0
C801 C 0.21228 0.12998 0.34417 0.0
C802 C 0.17819 0.11284 0.37382 0.0
H803 H 0.07264 0.99014 0.37584 0.0
H804 H 0.11021 0.02249 0.36501 0.0
H805 H 0.14601 0.10053 0.38773 0.0
H806 H 0.26904 0.18057 0.36303 0.0
H807 H 0.23754 0.14137 0.37326 0.0
H808 H 0.19988 0.06645 0.35019 0.0
C809 C 0.11052 0.02227 0.37487 0.0
C810 C 0.15796 0.09253 0.37965 0.0
C811 C 0.08895 0.00384 0.38105 0.0
C812 C 0.25339 0.16653 0.35765 0.0
C813 C 0.23528 0.14422 0.3635 0.0
C814 C 0.1882 0.07404 0.35838 0.0
C815 C 0.1313 0.04117 0.38139 0.0
C816 C 0.15274 0.06261 0.375 0.0
C817 C 0.2143 0.12596 0.35683 0.0
C818 C 0.19354 0.10383 0.36314 0.0
H819 H 0.10893 0.02277 0.41017 0.0
H820 H 0.14689 0.05406 0.39948 0.0
H821 H 0.16475 0.03061 0.36052 0.0
H822 H 0.22773 0.15535 0.3286 0.0
H823 H 0.19611 0.11645 0.33882 0.0
C824 C 0.98119 0.07326 0.38511 0.0
C825 C 0.97397 0.04614 0.39159 0.0
C826 C 0.9584 0.08904 0.37861 0.0
C827 C 0.87547 0.10381 0.37837 0.0
H828 H 0.89427 0.14233 0.34733 0.0
C829 C 0.792 0.18773 0.35228 0.0
C830 C 0.80643 0.21452 0.34765 0.0
C831 C 0.80973 0.16368 0.3573 0.0
C832 C 0.88868 0.13177 0.35601 0.0
H833 H 0.93725 0.01383 0.39609 0.0
H834 H 0.8971 0.04182 0.38476 0.0
H835 H 0.93037 0.1051 0.35607 0.0
H836 H 0.85081 0.23742 0.3452 0.0
H837 H 0.88127 0.19587 0.3539 0.0
H838 H 0.83409 0.13133 0.37841 0.0
C839 C 0.92053 0.05072 0.38474 0.0
C840 C 0.90932 0.11042 0.36099 0.0
C841 C 0.94353 0.03463 0.39115 0.0
C842 C 0.83879 0.2171 0.34855 0.0
C843 C 0.85638 0.19313 0.35346 0.0
C844 C 0.85473 0.12526 0.37336 0.0
C845 C 0.92773 0.07826 0.3785 0.0
C846 C 0.90342 0.09692 0.37239 0.0
C847 C 0.84217 0.16592 0.35768 0.0
C848 C 0.86165 0.14016 0.36231 0.0
H849 H 0.00444 0.08265 0.38521 0.0
H850 H 0.96463 0.11037 0.37402 0.0
H851 H 0.8704 0.09389 0.3872 0.0
H852 H 0.76713 0.18498 0.35176 0.0
H853 H 0.79818 0.14298 0.36054 0.0
C854 C 0.56973 0.03333 0.10501 0.0
C855 C 0.547 0.0491 0.09824 0.0
C856 C 0.59052 0.04984 0.1124 0.0
C857 C 0.64196 0.09361 0.12172 0.0
H858 H 0.60933 0.16563 0.13847 0.0
C859 C 0.71969 0.19086 0.14198 0.0
C860 C 0.70877 0.20683 0.15227 0.0
C861 C 0.70135 0.16814 0.13638 0.0
C862 C 0.61892 0.14536 0.13405 0.0
H863 H 0.52893 0.09476 0.09378 0.0
H864 H 0.56501 0.12305 0.10632 0.0
H865 H 0.57454 0.13203 0.12737 0.0
H866 H 0.67116 0.21002 0.16527 0.0
H867 H 0.63991 0.16989 0.15587 0.0
H868 H 0.68642 0.10687 0.12867 0.0
C869 C 0.56647 0.09799 0.10622 0.0
C870 C 0.59893 0.12628 0.12751 0.0
C871 C 0.54579 0.08164 0.09894 0.0
C872 C 0.67995 0.19858 0.15719 0.0
C873 C 0.66195 0.17561 0.15176 0.0
C874 C 0.66207 0.11268 0.12839 0.0
C875 C 0.58891 0.08239 0.11314 0.0
C876 C 0.61021 0.10054 0.12105 0.0
C877 C 0.67195 0.16067 0.14108 0.0
C878 C 0.65081 0.13904 0.13452 0.0
H879 H 0.57137 0.00829 0.10465 0.0
H880 H 0.6075 0.03713 0.11765 0.0
H881 H 0.65141 0.07402 0.11681 0.0
H882 H 0.74186 0.19673 0.138 0.0
H883 H 0.70975 0.15733 0.12813 0.0
C884 C 0.67003 0.78177 0.84645 0.0
C885 C 0.70211 0.78663 0.84553 0.0
C886 C 0.65108 0.80365 0.85205 0.0
C887 C 0.64576 0.88578 0.86064 0.0
H888 H 0.58102 0.85541 0.88197 0.0
C889 C 0.56434 0.96474 0.88965 0.0
C890 C 0.53342 0.9549 0.89065 0.0
C891 C 0.58618 0.94625 0.88363 0.0
C892 C 0.59875 0.86428 0.87594 0.0
H893 H 0.73936 0.81863 0.84978 0.0
H894 H 0.70601 0.85695 0.85967 0.0
H895 H 0.61734 0.81903 0.87299 0.0
H896 H 0.5007 0.91923 0.8853 0.0
H897 H 0.53846 0.88749 0.87471 0.0
H898 H 0.62683 0.93116 0.86361 0.0
C899 C 0.69567 0.83613 0.85595 0.0
C900 C 0.61962 0.84342 0.87081 0.0
C901 C 0.71476 0.81408 0.85036 0.0
C902 C 0.52443 0.92724 0.88489 0.0
C903 C 0.54612 0.90894 0.87886 0.0
C904 C 0.62476 0.90677 0.86579 0.0
C905 C 0.66364 0.83103 0.8569 0.0
C906 C 0.64305 0.85382 0.86296 0.0
C907 C 0.5774 0.91771 0.87849 0.0
C908 C 0.60072 0.89612 0.87334 0.0
H909 H 0.65936 0.76101 0.84282 0.0
H910 H 0.62643 0.79925 0.85246 0.0
H911 H 0.66349 0.89444 0.85457 0.0
H912 H 0.57198 0.98595 0.89398 0.0
H913 H 0.61012 0.95363 0.88348 0.0
C914 C 0.84169 0.7881 0.64948 0.0
C915 C 0.80917 0.78765 0.64914 0.0
C916 C 0.85814 0.81322 0.64483 0.0
C917 C 0.85382 0.87769 0.62325 0.0
H918 H 0.92706 0.90487 0.64067 0.0
C919 C 0.93948 0.96819 0.60337 0.0
C920 C 0.97012 0.95724 0.60324 0.0
C921 C 0.9169 0.95303 0.61033 0.0
C922 C 0.90661 0.89764 0.63573 0.0
H923 H 0.76851 0.81334 0.64342 0.0
H924 H 0.79752 0.85736 0.63517 0.0
H925 H 0.89231 0.8673 0.65005 0.0
H926 H 0.00151 0.92306 0.61079 0.0
H927 H 0.96244 0.89703 0.62299 0.0
H928 H 0.86878 0.90744 0.60875 0.0
C929 C 0.81012 0.8381 0.6391 0.0
C930 C 0.88677 0.87607 0.64107 0.0
C931 C 0.79353 0.8129 0.64384 0.0
C932 C 0.97806 0.93192 0.61065 0.0
C933 C 0.9557 0.91714 0.61771 0.0
C934 C 0.87371 0.8994 0.61789 0.0
C935 C 0.84261 0.83863 0.63967 0.0
C936 C 0.86075 0.86503 0.63472 0.0
C937 C 0.92477 0.92709 0.61745 0.0
C938 C 0.90084 0.90877 0.62393 0.0
H939 H 0.85463 0.76911 0.65344 0.0
H940 H 0.88318 0.81259 0.64517 0.0
H941 H 0.83401 0.86958 0.61812 0.0
H942 H 0.9327 0.9876 0.59771 0.0
H943 H 0.89324 0.96124 0.61001 0.0
C944 C 0.75107 0.32794 0.13305 0.0
C945 C 0.75007 0.32448 0.14575 0.0
C946 C 0.73231 0.34987 0.12728 0.0
C947 C 0.68703 0.42114 0.13282 0.0
H948 H 0.64337 0.3961 0.1036 0.0
C949 C 0.58865 0.49363 0.11071 0.0
C950 C 0.5879 0.49429 0.09793 0.0
C951 C 0.60969 0.4744 0.11678 0.0
C952 C 0.65569 0.40362 0.11166 0.0
H953 H 0.72899 0.34144 0.1624 0.0
H954 H 0.69613 0.37945 0.15233 0.0
H955 H 0.67812 0.35972 0.11356 0.0
H956 H 0.60939 0.47658 0.08149 0.0
H957 H 0.64625 0.44366 0.09203 0.0
H958 H 0.66443 0.46508 0.1309 0.0
C959 C 0.71159 0.3655 0.14683 0.0
C960 C 0.67562 0.38275 0.11736 0.0
C961 C 0.73026 0.34356 0.15258 0.0
C962 C 0.60918 0.4763 0.09136 0.0
C963 C 0.6302 0.45728 0.09739 0.0
C964 C 0.6671 0.44208 0.12709 0.0
C965 C 0.71227 0.36877 0.13412 0.0
C966 C 0.69154 0.39128 0.12799 0.0
C967 C 0.63033 0.45563 0.11016 0.0
C968 C 0.6513 0.43356 0.11642 0.0
H969 H 0.7662 0.31362 0.12756 0.0
H970 H 0.73358 0.35212 0.11747 0.0
H971 H 0.69922 0.42845 0.14095 0.0
H972 H 0.57245 0.50726 0.11599 0.0
H973 H 0.60914 0.47351 0.12664 0.0
C974 C 0.77485 0.35322 0.33939 0.0
C975 C 0.76206 0.33044 0.34702 0.0
C976 C 0.79432 0.376 0.34414 0.0
C977 C 0.8504 0.38897 0.36774 0.0
H978 H 0.837 0.47681 0.36216 0.0
C979 C 0.94183 0.48258 0.37881 0.0
C980 C 0.93112 0.50332 0.38768 0.0
C981 C 0.92095 0.46321 0.37274 0.0
C982 C 0.84102 0.45233 0.36369 0.0
H983 H 0.75928 0.31357 0.36556 0.0
H984 H 0.79423 0.35319 0.37387 0.0
H985 H 0.79959 0.43889 0.35431 0.0
H986 H 0.89082 0.52128 0.39697 0.0
H987 H 0.85401 0.48846 0.38589 0.0
H988 H 0.89206 0.40235 0.37695 0.0
C989 C 0.78879 0.35347 0.36424 0.0
C990 C 0.81972 0.43074 0.35924 0.0
C991 C 0.76874 0.33101 0.35952 0.0
C992 C 0.89934 0.50564 0.39001 0.0
C993 C 0.87841 0.48692 0.38372 0.0
C994 C 0.87203 0.4105 0.37195 0.0
C995 C 0.80183 0.37602 0.35656 0.0
C996 C 0.82411 0.39893 0.36134 0.0
C997 C 0.88914 0.46497 0.3753 0.0
C998 C 0.86738 0.44232 0.37002 0.0
H999 H 0.77003 0.35329 0.32971 0.0
H1000 H 0.80425 0.39305 0.33804 0.0
H1001 H 0.85437 0.36452 0.36936 0.0
H1002 H 0.96639 0.48012 0.37709 0.0
H1003 H 0.92964 0.44633 0.36629 0.0
C1004 C 0.90827 0.51851 0.59099 0.0
C1005 C 0.92852 0.4995 0.59765 0.0
C1006 C 0.88605 0.53635 0.59692 0.0
C1007 C 0.87168 0.57384 0.62612 0.0
H1008 H 0.78914 0.58645 0.61312 0.0
C1009 C 0.78264 0.64874 0.65105 0.0
C1010 C 0.76497 0.66949 0.64406 0.0
C1011 C 0.80063 0.62611 0.64546 0.0
C1012 C 0.81221 0.58337 0.61678 0.0
H1013 H 0.94086 0.48344 0.6157 0.0
H1014 H 0.9018 0.51481 0.62615 0.0
H1015 H 0.82362 0.54877 0.60354 0.0
H1016 H 0.75176 0.68249 0.62573 0.0
H1017 H 0.7838 0.64291 0.61585 0.0
H1018 H 0.86063 0.60872 0.63921 0.0
C1019 C 0.90335 0.516 0.61632 0.0
C1020 C 0.83189 0.56173 0.61134 0.0
C1021 C 0.92556 0.49795 0.61035 0.0
C1022 C 0.76518 0.66678 0.63133 0.0
C1023 C 0.78338 0.64406 0.62569 0.0
C1024 C 0.85207 0.59548 0.63154 0.0
C1025 C 0.88365 0.53567 0.60966 0.0
C1026 C 0.86188 0.55688 0.61592 0.0
C1027 C 0.80156 0.62373 0.63273 0.0
C1028 C 0.82215 0.60056 0.62691 0.0
H1029 H 0.90994 0.52011 0.58116 0.0
H1030 H 0.87149 0.55152 0.59154 0.0
H1031 H 0.89486 0.57107 0.62971 0.0
H1032 H 0.78273 0.65001 0.6609 0.0
H1033 H 0.81385 0.61044 0.65115 0.0
C1034 C 0.73311 0.65453 0.8426 0.0
C1035 C 0.75048 0.6754 0.84966 0.0
C1036 C 0.71439 0.63232 0.84818 0.0
C1037 C 0.67219 0.61816 0.87646 0.0
H1038 H 0.66718 0.53332 0.8649 0.0
C1039 C 0.60137 0.5274 0.90214 0.0
C1040 C 0.58293 0.50708 0.89528 0.0
C1041 C 0.62337 0.54605 0.89648 0.0
C1042 C 0.6681 0.55701 0.86814 0.0
H1043 H 0.76242 0.68908 0.86806 0.0
H1044 H 0.72959 0.65023 0.87784 0.0
H1045 H 0.70332 0.56947 0.8553 0.0
H1046 H 0.57352 0.48966 0.87715 0.0
H1047 H 0.61184 0.52288 0.86713 0.0
H1048 H 0.63674 0.60612 0.88913 0.0
C1049 C 0.73033 0.65121 0.86799 0.0
C1050 C 0.68883 0.57766 0.86267 0.0
C1051 C 0.74922 0.67333 0.8624 0.0
C1052 C 0.58749 0.50511 0.88265 0.0
C1053 C 0.60948 0.52404 0.87694 0.0
C1054 C 0.65142 0.59763 0.88187 0.0
C1055 C 0.71253 0.63067 0.86093 0.0
C1056 C 0.69112 0.60842 0.86682 0.0
C1057 C 0.6273 0.54508 0.88379 0.0
C1058 C 0.64922 0.56678 0.87782 0.0
H1059 H 0.73367 0.65555 0.83275 0.0
H1060 H 0.70071 0.61701 0.84251 0.0
H1061 H 0.67298 0.64189 0.87968 0.0
H1062 H 0.59863 0.52916 0.91192 0.0
H1063 H 0.63719 0.56142 0.90207 0.0
C1064 C 0.43541 0.5324 0.89067 0.0
C1065 C 0.46647 0.5417 0.88966 0.0
C1066 C 0.41229 0.5479 0.88412 0.0
C1067 C 0.3993 0.59939 0.85785 0.0
H1068 H 0.33357 0.63612 0.87709 0.0
C1069 C 0.33843 0.70995 0.84282 0.0
C1070 C 0.3062 0.71266 0.84421 0.0
C1071 C 0.35433 0.68488 0.84779 0.0
C1072 C 0.35139 0.62556 0.87153 0.0
H1073 H 0.49799 0.5732 0.88059 0.0
H1074 H 0.4579 0.59963 0.86895 0.0
H1075 H 0.36808 0.59778 0.88635 0.0
H1076 H 0.26555 0.69123 0.85219 0.0
H1077 H 0.29366 0.64731 0.86102 0.0
H1078 H 0.38333 0.62763 0.84315 0.0
C1079 C 0.45128 0.58063 0.87485 0.0
C1080 C 0.3711 0.60361 0.87683 0.0
C1081 C 0.47421 0.56561 0.88155 0.0
C1082 C 0.29035 0.68984 0.85092 0.0
C1083 C 0.30642 0.66472 0.85599 0.0
C1084 C 0.37959 0.62115 0.85256 0.0
C1085 C 0.42004 0.57242 0.87626 0.0
C1086 C 0.39586 0.59111 0.87013 0.0
C1087 C 0.33854 0.66181 0.85432 0.0
C1088 C 0.3561 0.63528 0.85946 0.0
H1089 H 0.42882 0.51418 0.89695 0.0
H1090 H 0.38837 0.54112 0.88535 0.0
H1091 H 0.41792 0.58974 0.85244 0.0
H1092 H 0.35151 0.72701 0.83773 0.0
H1093 H 0.37917 0.68369 0.84656 0.0
C1094 C 0.07035 0.53446 0.60136 0.0
C1095 C 0.04096 0.54718 0.599 0.0
C1096 C 0.09357 0.55258 0.60676 0.0
C1097 C 0.11581 0.63422 0.60943 0.0
H1098 H 0.16739 0.6092 0.63659 0.0
C1099 C 0.1792 0.72247 0.63895 0.0
C1100 C 0.20919 0.71594 0.64317 0.0
C1101 C 0.16218 0.70012 0.63271 0.0
C1102 C 0.15354 0.61628 0.62886 0.0
H1103 H 0.01241 0.58825 0.60125 0.0
H1104 H 0.05261 0.61942 0.61059 0.0
H1105 H 0.13038 0.57227 0.62784 0.0
H1106 H 0.24502 0.68077 0.64395 0.0
H1107 H 0.21503 0.64147 0.63295 0.0
H1108 H 0.13836 0.67821 0.61048 0.0
C1109 C 0.05796 0.59575 0.60804 0.0
C1110 C 0.13233 0.5952 0.62389 0.0
C1111 C 0.03487 0.57777 0.60273 0.0
C1112 C 0.22201 0.68658 0.64078 0.0
C1113 C 0.20479 0.66401 0.63457 0.0
C1114 C 0.13695 0.65515 0.61435 0.0
C1115 C 0.08777 0.58368 0.60981 0.0
C1116 C 0.11267 0.60432 0.61435 0.0
C1117 C 0.17463 0.67056 0.63052 0.0
C1118 C 0.15544 0.64675 0.62433 0.0
H1119 H 0.07579 0.51096 0.59863 0.0
H1120 H 0.11636 0.54268 0.60807 0.0
H1121 H 0.10146 0.64165 0.60189 0.0
H1122 H 0.16857 0.74482 0.6406 0.0
H1123 H 0.13885 0.70578 0.62988 0.0
C1124 C 0.06073 0.46195 0.38594 0.0
C1125 C 0.04418 0.45177 0.39617 0.0
C1126 C 0.08433 0.44347 0.38102 0.0
C1127 C 0.1082 0.36098 0.3808 0.0
H1128 H 0.17938 0.39161 0.36303 0.0
C1129 C 0.22085 0.30845 0.35333 0.0
C1130 C 0.20539 0.28453 0.34709 0.0
C1131 C 0.20411 0.33022 0.36017 0.0
C1132 C 0.15984 0.3827 0.36811 0.0
H1133 H 0.04079 0.41601 0.40994 0.0
H1134 H 0.08267 0.38473 0.40185 0.0
H1135 H 0.14596 0.42812 0.3739 0.0
H1136 H 0.16007 0.26526 0.34299 0.0
H1137 H 0.13136 0.30304 0.35458 0.0
H1138 H 0.12214 0.31571 0.37531 0.0
C1139 C 0.0767 0.406 0.39717 0.0
C1140 C 0.14045 0.40365 0.3742 0.0
C1141 C 0.05278 0.42399 0.40186 0.0
C1142 C 0.17294 0.28305 0.34777 0.0
C1143 C 0.15636 0.30472 0.3545 0.0
C1144 C 0.12761 0.34019 0.37486 0.0
C1145 C 0.09207 0.41486 0.38644 0.0
C1146 C 0.11414 0.39303 0.38051 0.0
C1147 C 0.17165 0.32841 0.36088 0.0
C1148 C 0.15327 0.35076 0.36821 0.0
H1149 H 0.0545 0.48341 0.38144 0.0
H1150 H 0.09553 0.45099 0.37272 0.0
H1151 H 0.08795 0.3518 0.38535 0.0
H1152 H 0.24582 0.31033 0.35296 0.0
H1153 H 0.21658 0.34815 0.36503 0.0
C1154 C 0.46948 0.41559 0.09055 0.0
C1155 C 0.47409 0.44661 0.09399 0.0
C1156 C 0.44729 0.39744 0.09632 0.0
C1157 C 0.37891 0.39878 0.11674 0.0
H1158 H 0.40569 0.31454 0.12311 0.0
C1159 C 0.34447 0.28359 0.14699 0.0
C1160 C 0.31252 0.28127 0.14481 0.0
C1161 C 0.36223 0.30583 0.14104 0.0
C1162 C 0.39785 0.33805 0.12153 0.0
H1163 H 0.45818 0.48331 0.10591 0.0
H1164 H 0.41976 0.45102 0.1164 0.0
H1165 H 0.43994 0.34976 0.11258 0.0
H1166 H 0.27399 0.3012 0.13488 0.0
H1167 H 0.30545 0.33978 0.12412 0.0
H1168 H 0.33704 0.38693 0.12618 0.0
C1169 C 0.43313 0.44098 0.10906 0.0
C1170 C 0.41738 0.3582 0.1153 0.0
C1171 C 0.45521 0.45941 0.10311 0.0
C1172 C 0.29858 0.30233 0.13671 0.0
C1173 C 0.31656 0.32453 0.13061 0.0
C1174 C 0.3593 0.37852 0.12309 0.0
C1175 C 0.42937 0.40957 0.10587 0.0
C1176 C 0.40818 0.38876 0.11275 0.0
C1177 C 0.34871 0.32618 0.13259 0.0
C1178 C 0.36867 0.34794 0.1256 0.0
H1179 H 0.48312 0.40518 0.08336 0.0
H1180 H 0.44441 0.37367 0.09336 0.0
H1181 H 0.37103 0.42211 0.11485 0.0
H1182 H 0.35591 0.26821 0.15335 0.0
H1183 H 0.38673 0.30697 0.14307 0.0
loop_
_geom_bond_atom_site_label_1
_geom_bond_atom_site_label_2
_geom_bond_distance
_geom_bond_site_symmetry_2
_ccdc_geom_bond_type
Co0 O1 2.216 . S
Co0 O2 2.091 1_455 S
Co0 O4 2.004 1_455 S
Co0 O10 2.021 1_455 S
Co0 O12 2.137 . S
Co0 O13 2.244 1_545 S
O1 Co0 2.216 . S
O1 C8 1.247 . S
O2 Co0 2.091 1_655 S
O2 C8 1.261 1_655 S
C3 O12 1.247 . S
C3 O13 1.272 1_545 S
O4 Co0 2.004 1_655 S
O4 C9 1.259 1_545 S
Co5 O6 2.061 1_455 S
Co5 O11 2.052 . S
Co5 O13 2.135 . S
O6 Co5 2.061 1_655 S
O6 C9 1.235 . S
C7 O10 1.238 1_455 S
C7 O11 1.241 1_545 S
C8 O1 1.247 . S
C8 O2 1.261 1_455 S
C9 O4 1.259 1_565 S
C9 O6 1.235 . S
O10 Co0 2.021 1_655 S
O10 C7 1.238 1_655 S
O11 Co5 2.052 . S
O11 C7 1.241 1_565 S
O12 Co0 2.137 . S
O12 C3 1.247 . S
O13 Co0 2.244 1_565 S
O13 C3 1.272 1_565 S
O13 Co5 2.135 . S
Co14 O15 2.216 . S
Co14 O16 2.091 . S
Co14 O18 2.004 . S
Co14 O24 2.021 . S
Co14 O26 2.137 . S
Co14 O27 2.244 . S
O15 Co14 2.216 . S
O15 C22 1.247 . S
O16 Co14 2.091 . S
O16 C22 1.261 . S
C17 O26 1.247 . S
C17 O27 1.272 . S
O18 Co14 2.004 . S
O18 C23 1.259 . S
Co19 O20 2.061 . S
Co19 O25 2.052 . S
Co19 O27 2.135 . S
O20 Co19 2.061 . S
O20 C23 1.235 . S
C21 O24 1.238 . S
C21 O25 1.241 . S
C22 O15 1.247 . S
C22 O16 1.261 . S
C23 O18 1.259 . S
C23 O20 1.235 . S
O24 Co14 2.021 . S
O24 C21 1.238 . S
O25 Co19 2.052 . S
O25 C21 1.241 . S
O26 Co14 2.137 . S
O26 C17 1.247 . S
O27 Co14 2.244 . S
O27 C17 1.272 . S
O27 Co19 2.135 . S
Co28 O29 2.216 . S
Co28 O30 2.091 . S
Co28 O32 2.004 . S
Co28 O38 2.021 . S
Co28 O40 2.137 . S
Co28 O41 2.244 1_565 S
O29 Co28 2.216 . S
O29 C36 1.247 . S
O30 Co28 2.091 . S
O30 C36 1.261 . S
C31 O40 1.247 . S
C31 O41 1.272 1_565 S
O32 Co28 2.004 . S
O32 C37 1.259 1_565 S
Co33 O34 2.061 . S
Co33 O39 2.052 . S
Co33 O41 2.135 . S
O34 Co33 2.061 . S
O34 C37 1.235 . S
C35 O38 1.238 . S
C35 O39 1.241 1_565 S
C36 O29 1.247 . S
C36 O30 1.261 . S
C37 O32 1.259 1_545 S
C37 O34 1.235 . S
O38 Co28 2.021 . S
O38 C35 1.238 . S
O39 Co33 2.052 . S
O39 C35 1.241 1_545 S
O40 Co28 2.137 . S
O40 C31 1.247 . S
O41 Co28 2.244 1_545 S
O41 C31 1.272 1_545 S
O41 Co33 2.135 . S
Co42 O43 2.216 . S
Co42 O44 2.091 . S
Co42 O46 2.004 . S
Co42 O52 2.021 . S
Co42 O54 2.137 . S
Co42 O55 2.244 . S
O43 Co42 2.216 . S
O43 C50 1.247 . S
O44 Co42 2.091 . S
O44 C50 1.261 . S
C45 O54 1.247 . S
C45 O55 1.272 . S
O46 Co42 2.004 . S
O46 C51 1.259 . S
Co47 O48 2.061 . S
Co47 O53 2.052 . S
Co47 O55 2.135 . S
O48 Co47 2.061 . S
O48 C51 1.235 . S
C49 O52 1.238 . S
C49 O53 1.241 . S
C50 O43 1.247 . S
C50 O44 1.261 . S
C51 O46 1.259 . S
C51 O48 1.235 . S
O52 Co42 2.021 . S
O52 C49 1.238 . S
O53 Co47 2.052 . S
O53 C49 1.241 . S
O54 Co42 2.137 . S
O54 C45 1.247 . S
O55 Co42 2.244 . S
O55 C45 1.272 . S
O55 Co47 2.135 . S
Co56 O57 2.216 . S
Co56 O58 2.091 1_455 S
Co56 O60 2.004 1_455 S
Co56 O66 2.021 1_455 S
Co56 O68 2.137 . S
Co56 O69 2.244 1_565 S
O57 Co56 2.216 . S
O57 C64 1.247 . S
O58 Co56 2.091 1_655 S
O58 C64 1.261 1_655 S
C59 O68 1.247 . S
C59 O69 1.272 1_565 S
O60 Co56 2.004 1_655 S
O60 C65 1.259 1_565 S
Co61 O62 2.061 1_455 S
Co61 O67 2.052 . S
Co61 O69 2.135 . S
O62 Co61 2.061 1_655 S
O62 C65 1.235 . S
C63 O66 1.238 1_455 S
C63 O67 1.241 1_565 S
C64 O57 1.247 . S
C64 O58 1.261 1_455 S
C65 O60 1.259 1_545 S
C65 O62 1.235 . S
O66 Co56 2.021 1_655 S
O66 C63 1.238 1_655 S
O67 Co61 2.052 . S
O67 C63 1.241 1_545 S
O68 Co56 2.137 . S
O68 C59 1.247 . S
O69 Co56 2.244 1_545 S
O69 C59 1.272 1_545 S
O69 Co61 2.135 . S
Co70 O71 2.216 . S
Co70 O72 2.091 . S
Co70 O74 2.004 . S
Co70 O80 2.021 . S
Co70 O82 2.137 . S
Co70 O83 2.244 . S
O71 Co70 2.216 . S
O71 C78 1.247 . S
O72 Co70 2.091 . S
O72 C78 1.261 . S
C73 O82 1.247 . S
C73 O83 1.272 . S
O74 Co70 2.004 . S
O74 C79 1.259 . S
Co75 O76 2.061 . S
Co75 O81 2.052 . S
Co75 O83 2.135 . S
O76 Co75 2.061 . S
O76 C79 1.235 . S
C77 O80 1.238 . S
C77 O81 1.241 . S
C78 O71 1.247 . S
C78 O72 1.261 . S
C79 O74 1.259 . S
C79 O76 1.235 . S
O80 Co70 2.021 . S
O80 C77 1.238 . S
O81 Co75 2.052 . S
O81 C77 1.241 . S
O82 Co70 2.137 . S
O82 C73 1.247 . S
O83 Co70 2.244 . S
O83 C73 1.272 . S
O83 Co75 2.135 . S
Co84 O85 2.216 . S
Co84 O86 2.091 . S
Co84 O88 2.004 . S
Co84 O94 2.021 . S
Co84 O96 2.137 . S
Co84 O97 2.244 1_545 S
O85 Co84 2.216 . S
O85 C92 1.247 . S
O86 Co84 2.091 . S
O86 C92 1.261 . S
C87 O96 1.247 . S
C87 O97 1.272 1_545 S
O88 Co84 2.004 . S
O88 C93 1.259 1_545 S
Co89 O90 2.061 . S
Co89 O95 2.052 . S
Co89 O97 2.135 . S
O90 Co89 2.061 . S
O90 C93 1.235 . S
C91 O94 1.238 . S
C91 O95 1.241 1_545 S
C92 O85 1.247 . S
C92 O86 1.261 . S
C93 O88 1.259 1_565 S
C93 O90 1.235 . S
O94 Co84 2.021 . S
O94 C91 1.238 . S
O95 Co89 2.052 . S
O95 C91 1.241 1_565 S
O96 Co84 2.137 . S
O96 C87 1.247 . S
O97 Co84 2.244 1_565 S
O97 C87 1.272 1_565 S
O97 Co89 2.135 . S
Co98 O99 2.216 . S
Co98 O100 2.091 . S
Co98 O102 2.004 . S
Co98 O108 2.021 . S
Co98 O110 2.137 . S
Co98 O111 2.244 . S
O99 Co98 2.216 . S
O99 C106 1.247 . S
O100 Co98 2.091 . S
O100 C106 1.261 . S
C101 O110 1.247 . S
C101 O111 1.272 . S
O102 Co98 2.004 . S
O102 C107 1.259 . S
Co103 O104 2.061 . S
Co103 O109 2.052 . S
Co103 O111 2.135 . S
O104 Co103 2.061 . S
O104 C107 1.235 . S
C105 O108 1.238 . S
C105 O109 1.241 . S
C106 O99 1.247 . S
C106 O100 1.261 . S
C107 O102 1.259 . S
C107 O104 1.235 . S
O108 Co98 2.021 . S
O108 C105 1.238 . S
O109 Co103 2.052 . S
O109 C105 1.241 . S
O110 Co98 2.137 . S
O110 C101 1.247 . S
O111 Co98 2.244 . S
O111 C101 1.272 . S
O111 Co103 2.135 . S
Co112 O113 2.216 . S
Co112 O114 2.091 . S
Co112 O116 2.004 . S
Co112 O122 2.021 . S
Co112 O124 2.137 . S
Co112 O125 2.244 . S
O113 Co112 2.216 . S
O113 C120 1.247 . S
O114 Co112 2.091 . S
O114 C120 1.261 . S
C115 O124 1.247 . S
C115 O125 1.272 . S
O116 Co112 2.004 . S
O116 C121 1.259 . S
Co117 O118 2.061 . S
Co117 O123 2.052 . S
Co117 O125 2.135 . S
O118 Co117 2.061 . S
O118 C121 1.235 . S
C119 O122 1.238 . S
C119 O123 1.241 . S
C120 O113 1.247 . S
C120 O114 1.261 . S
C121 O116 1.259 . S
C121 O118 1.235 . S
O122 Co112 2.021 . S
O122 C119 1.238 . S
O123 Co117 2.052 . S
O123 C119 1.241 . S
O124 Co112 2.137 . S
O124 C115 1.247 . S
O125 Co112 2.244 . S
O125 C115 1.272 . S
O125 Co117 2.135 . S
Co126 O127 2.216 . S
Co126 O128 2.091 . S
Co126 O130 2.004 . S
Co126 O136 2.021 . S
Co126 O138 2.137 . S
Co126 O139 2.244 . S
O127 Co126 2.216 . S
O127 C134 1.247 . S
O128 Co126 2.091 . S
O128 C134 1.261 . S
C129 O138 1.247 . S
C129 O139 1.272 . S
O130 Co126 2.004 . S
O130 C135 1.259 . S
Co131 O132 2.061 . S
Co131 O137 2.052 . S
Co131 O139 2.135 . S
O132 Co131 2.061 . S
O132 C135 1.235 . S
C133 O136 1.238 . S
C133 O137 1.241 . S
C134 O127 1.247 . S
C134 O128 1.261 . S
C135 O130 1.259 . S
C135 O132 1.235 . S
O136 Co126 2.021 . S
O136 C133 1.238 . S
O137 Co131 2.052 . S
O137 C133 1.241 . S
O138 Co126 2.137 . S
O138 C129 1.247 . S
O139 Co126 2.244 . S
O139 C129 1.272 . S
O139 Co131 2.135 . S
Co140 O141 2.216 . S
Co140 O142 2.091 . S
Co140 O144 2.004 . S
Co140 O150 2.021 . S
Co140 O152 2.137 . S
Co140 O153 2.244 . S
O141 Co140 2.216 . S
O141 C148 1.247 . S
O142 Co140 2.091 . S
O142 C148 1.261 . S
C143 O152 1.247 . S
C143 O153 1.272 . S
O144 Co140 2.004 . S
O144 C149 1.259 . S
Co145 O146 2.061 . S
Co145 O151 2.052 . S
Co145 O153 2.135 . S
O146 Co145 2.061 . S
O146 C149 1.235 . S
C147 O150 1.238 . S
C147 O151 1.241 . S
C148 O141 1.247 . S
C148 O142 1.261 . S
C149 O144 1.259 . S
C149 O146 1.235 . S
O150 Co140 2.021 . S
O150 C147 1.238 . S
O151 Co145 2.052 . S
O151 C147 1.241 . S
O152 Co140 2.137 . S
O152 C143 1.247 . S
O153 Co140 2.244 . S
O153 C143 1.272 . S
O153 Co145 2.135 . S
Co154 O155 2.216 . S
Co154 O156 2.091 . S
Co154 O158 2.004 . S
Co154 O164 2.021 . S
Co154 O166 2.137 . S
Co154 O167 2.244 . S
O155 Co154 2.216 . S
O155 C162 1.247 . S
O156 Co154 2.091 . S
O156 C162 1.261 . S
C157 O166 1.247 . S
C157 O167 1.272 . S
O158 Co154 2.004 . S
O158 C163 1.259 . S
Co159 O160 2.061 . S
Co159 O165 2.052 . S
Co159 O167 2.135 . S
O160 Co159 2.061 . S
O160 C163 1.235 . S
C161 O164 1.238 . S
C161 O165 1.241 . S
C162 O155 1.247 . S
C162 O156 1.261 . S
C163 O158 1.259 . S
C163 O160 1.235 . S
O164 Co154 2.021 . S
O164 C161 1.238 . S
O165 Co159 2.052 . S
O165 C161 1.241 . S
O166 Co154 2.137 . S
O166 C157 1.247 . S
O167 Co154 2.244 . S
O167 C157 1.272 . S
O167 Co159 2.135 . S
Co168 O169 2.216 . S
Co168 O170 2.091 . S
Co168 O172 2.004 . S
Co168 O178 2.021 . S
Co168 O180 2.137 . S
Co168 O181 2.244 . S
O169 Co168 2.216 . S
O169 C176 1.247 . S
O170 Co168 2.091 . S
O170 C176 1.261 . S
C171 O180 1.247 . S
C171 O181 1.272 . S
O172 Co168 2.004 . S
O172 C177 1.259 . S
Co173 O174 2.061 . S
Co173 O179 2.052 . S
Co173 O181 2.135 . S
O174 Co173 2.061 . S
O174 C177 1.235 . S
C175 O178 1.238 . S
C175 O179 1.241 . S
C176 O169 1.247 . S
C176 O170 1.261 . S
C177 O172 1.259 . S
C177 O174 1.235 . S
O178 Co168 2.021 . S
O178 C175 1.238 . S
O179 Co173 2.052 . S
O179 C175 1.241 . S
O180 Co168 2.137 . S
O180 C171 1.247 . S
O181 Co168 2.244 . S
O181 C171 1.272 . S
O181 Co173 2.135 . S
Co182 O183 2.216 1_455 S
Co182 O184 2.091 . S
Co182 O186 2.004 . S
Co182 O192 2.021 . S
Co182 O194 2.137 1_455 S
Co182 O195 2.244 1_455 S
O183 Co182 2.216 1_655 S
O183 C190 1.247 . S
O184 Co182 2.091 . S
O184 C190 1.261 1_455 S
C185 O194 1.247 . S
C185 O195 1.272 . S
O186 Co182 2.004 . S
O186 C191 1.259 . S
Co187 O188 2.061 1_655 S
Co187 O193 2.057 . S
Co187 O195 2.135 . S
O188 Co187 2.061 1_455 S
O188 C191 1.235 . S
C189 O192 1.238 . S
C189 O193 1.223 1_455 S
C190 O183 1.247 . S
C190 O184 1.261 1_655 S
C191 O186 1.259 . S
C191 O188 1.235 . S
O192 Co182 2.021 . S
O192 C189 1.238 . S
O193 Co187 2.057 . S
O193 C189 1.223 1_655 S
O194 Co182 2.137 1_655 S
O194 C185 1.247 . S
O195 Co182 2.244 1_655 S
O195 C185 1.272 . S
O195 Co187 2.135 . S
Co196 O197 2.216 . S
Co196 O198 2.091 . S
Co196 O200 2.004 . S
Co196 O206 2.021 . S
Co196 O208 2.137 . S
Co196 O209 2.244 . S
O197 Co196 2.216 . S
O197 C204 1.247 . S
O198 Co196 2.091 . S
O198 C204 1.261 . S
C199 O208 1.247 . S
C199 O209 1.272 . S
O200 Co196 2.004 . S
O200 C205 1.259 . S
Co201 O202 2.061 . S
Co201 O207 2.052 . S
Co201 O209 2.135 . S
O202 Co201 2.061 . S
O202 C205 1.235 . S
C203 O206 1.238 . S
C203 O207 1.241 . S
C204 O197 1.247 . S
C204 O198 1.261 . S
C205 O200 1.259 . S
C205 O202 1.235 . S
O206 Co196 2.021 . S
O206 C203 1.238 . S
O207 Co201 2.052 . S
O207 C203 1.241 . S
O208 Co196 2.137 . S
O208 C199 1.247 . S
O209 Co196 2.244 . S
O209 C199 1.272 . S
O209 Co201 2.135 . S
Co210 O211 2.216 1_455 S
Co210 O212 2.091 . S
Co210 O214 2.004 . S
Co210 O220 2.021 . S
Co210 O222 2.137 1_455 S
Co210 O223 2.244 1_455 S
O211 Co210 2.216 1_655 S
O211 C218 1.247 . S
O212 Co210 2.091 . S
O212 C218 1.261 1_455 S
C213 O222 1.247 . S
C213 O223 1.272 . S
O214 Co210 2.004 . S
O214 C219 1.259 . S
Co215 O216 2.061 1_655 S
Co215 O221 2.057 . S
Co215 O223 2.135 . S
O216 Co215 2.061 1_455 S
O216 C219 1.235 . S
C217 O220 1.238 . S
C217 O221 1.223 1_455 S
C218 O211 1.247 . S
C218 O212 1.261 1_655 S
C219 O214 1.259 . S
C219 O216 1.235 . S
O220 Co210 2.021 . S
O220 C217 1.238 . S
O221 Co215 2.057 . S
O221 C217 1.223 1_655 S
O222 Co210 2.137 1_655 S
O222 C213 1.247 . S
O223 Co210 2.244 1_655 S
O223 C213 1.272 . S
O223 Co215 2.135 . S
C224 C225 1.349 . S
C224 C226 1.327 . S
C224 H249 0.950 . S
C225 C224 1.349 . S
C225 C241 1.349 . S
C226 C224 1.327 . S
C226 C245 1.429 . S
C226 H250 0.950 . S
C227 C244 1.574 . S
C227 C246 1.368 1_655 S
C227 H251 0.949 . S
H228 C232 0.949 . S
C229 C230 1.349 . S
C229 C231 1.327 . S
C229 H252 0.950 . S
C230 C229 1.349 . S
C230 C242 1.349 1_655 S
C231 C229 1.327 . S
C231 C247 1.429 1_655 S
C231 H253 0.950 . S
C232 H228 0.949 . S
C232 C240 1.574 . S
C232 C248 1.368 . S
H233 C241 0.950 1_655 S
H234 C239 0.950 1_655 S
H235 C240 0.949 . S
H236 C242 0.950 . S
H237 C243 0.950 . S
H238 C244 0.949 . S
C239 H234 0.950 1_455 S
C239 C241 1.327 . S
C239 C245 1.429 . S
C240 C232 1.574 . S
C240 H235 0.949 . S
C240 C246 1.368 . S
C241 C225 1.349 . S
C241 H233 0.950 1_455 S
C241 C239 1.327 . S
C242 C230 1.349 1_455 S
C242 H236 0.950 . S
C242 C243 1.327 . S
C243 H237 0.950 . S
C243 C242 1.327 . S
C243 C247 1.429 . S
C244 C227 1.574 . S
C244 H238 0.949 . S
C244 C248 1.368 1_655 S
C245 C226 1.429 . S
C245 C239 1.429 . S
C245 C246 1.523 . S
C246 C227 1.368 1_455 S
C246 C240 1.368 . S
C246 C245 1.523 . S
C247 C231 1.429 1_455 S
C247 C243 1.429 . S
C247 C248 1.523 . S
C248 C232 1.368 . S
C248 C244 1.368 1_455 S
C248 C247 1.523 . S
H249 C224 0.950 . S
H250 C226 0.950 . S
H251 C227 0.949 . S
H252 C229 0.950 . S
H253 C231 0.950 . S
C254 C255 1.349 . S
C254 C256 1.327 . S
C254 H279 0.950 . S
C255 C254 1.349 . S
C255 C271 1.349 . S
C256 C254 1.327 . S
C256 C275 1.429 . S
C256 H280 0.950 . S
C257 C274 1.574 1_655 S
C257 C276 1.368 . S
C257 H281 0.949 . S
H258 C262 0.949 . S
C259 C260 1.349 . S
C259 C261 1.327 . S
C259 H282 0.950 . S
C260 C259 1.349 . S
C260 C272 1.349 . S
C261 C259 1.327 . S
C261 C277 1.429 . S
C261 H283 0.950 . S
C262 H258 0.949 . S
C262 C270 1.574 1_455 S
C262 C278 1.368 . S
H263 C271 0.950 . S
H264 C269 0.950 . S
H265 C270 0.949 . S
H266 C272 0.950 . S
H267 C273 0.950 . S
H268 C274 0.949 . S
C269 H264 0.950 . S
C269 C271 1.327 . S
C269 C275 1.429 . S
C270 C262 1.574 1_655 S
C270 H265 0.949 . S
C270 C276 1.368 . S
C271 C255 1.349 . S
C271 H263 0.950 . S
C271 C269 1.327 . S
C272 C260 1.349 . S
C272 H266 0.950 . S
C272 C273 1.327 . S
C273 H267 0.950 . S
C273 C272 1.327 . S
C273 C277 1.429 . S
C274 C257 1.574 1_455 S
C274 H268 0.949 . S
C274 C278 1.368 . S
C275 C256 1.429 . S
C275 C269 1.429 . S
C275 C276 1.523 . S
C276 C257 1.368 . S
C276 C270 1.368 . S
C276 C275 1.523 . S
C277 C261 1.429 . S
C277 C273 1.429 . S
C277 C278 1.523 . S
C278 C262 1.368 . S
C278 C274 1.368 . S
C278 C277 1.523 . S
H279 C254 0.950 . S
H280 C256 0.950 . S
H281 C257 0.949 . S
H282 C259 0.950 . S
H283 C261 0.950 . S
C284 C285 1.349 . S
C284 C286 1.327 . S
C284 H309 0.950 . S
C285 C284 1.349 . S
C285 C301 1.349 . S
C286 C284 1.327 . S
C286 C305 1.429 . S
C286 H310 0.950 . S
C287 C304 1.574 . S
C287 C306 1.368 . S
C287 H311 0.949 . S
H288 C292 0.949 . S
C289 C290 1.349 . S
C289 C291 1.327 . S
C289 H312 0.950 . S
C290 C289 1.349 . S
C290 C302 1.349 . S
C291 C289 1.327 . S
C291 C307 1.429 . S
C291 H313 0.950 . S
C292 H288 0.949 . S
C292 C300 1.574 . S
C292 C308 1.368 . S
H293 C301 0.950 . S
H294 C299 0.950 . S
H295 C300 0.949 . S
H296 C302 0.950 . S
H297 C303 0.950 . S
H298 C304 0.949 . S
C299 H294 0.950 . S
C299 C301 1.327 . S
C299 C305 1.429 . S
C300 C292 1.574 . S
C300 H295 0.949 . S
C300 C306 1.368 . S
C301 C285 1.349 . S
C301 H293 0.950 . S
C301 C299 1.327 . S
C302 C290 1.349 . S
C302 H296 0.950 . S
C302 C303 1.327 . S
C303 H297 0.950 . S
C303 C302 1.327 . S
C303 C307 1.429 . S
C304 C287 1.574 . S
C304 H298 0.949 . S
C304 C308 1.368 . S
C305 C286 1.429 . S
C305 C299 1.429 . S
C305 C306 1.523 . S
C306 C287 1.368 . S
C306 C300 1.368 . S
C306 C305 1.523 . S
C307 C291 1.429 . S
C307 C303 1.429 . S
C307 C308 1.523 . S
C308 C292 1.368 . S
C308 C304 1.368 . S
C308 C307 1.523 . S
H309 C284 0.950 . S
H310 C286 0.950 . S
H311 C287 0.949 . S
H312 C289 0.950 . S
H313 C291 0.950 . S
C314 C315 1.349 . S
C314 C316 1.327 . S
C314 H339 0.950 . S
C315 C314 1.349 . S
C315 C331 1.349 . S
C316 C314 1.327 . S
C316 C335 1.429 . S
C316 H340 0.950 . S
C317 C334 1.574 . S
C317 C336 1.368 . S
C317 H341 0.949 . S
H318 C322 0.949 . S
C319 C320 1.349 . S
C319 C321 1.327 . S
C319 H342 0.950 . S
C320 C319 1.349 . S
C320 C332 1.349 . S
C321 C319 1.327 . S
C321 C337 1.429 . S
C321 H343 0.950 . S
C322 H318 0.949 . S
C322 C330 1.574 . S
C322 C338 1.368 . S
H323 C331 0.950 . S
H324 C329 0.950 . S
H325 C330 0.949 . S
H326 C332 0.950 . S
H327 C333 0.950 . S
H328 C334 0.949 . S
C329 H324 0.950 . S
C329 C331 1.327 . S
C329 C335 1.429 . S
C330 C322 1.574 . S
C330 H325 0.949 . S
C330 C336 1.368 . S
C331 C315 1.349 . S
C331 H323 0.950 . S
C331 C329 1.327 . S
C332 C320 1.349 . S
C332 H326 0.950 . S
C332 C333 1.327 . S
C333 H327 0.950 . S
C333 C332 1.327 . S
C333 C337 1.429 . S
C334 C317 1.574 . S
C334 H328 0.949 . S
C334 C338 1.368 . S
C335 C316 1.429 . S
C335 C329 1.429 . S
C335 C336 1.523 . S
C336 C317 1.368 . S
C336 C330 1.368 . S
C336 C335 1.523 . S
C337 C321 1.429 . S
C337 C333 1.429 . S
C337 C338 1.523 . S
C338 C322 1.368 . S
C338 C334 1.368 . S
C338 C337 1.523 . S
H339 C314 0.950 . S
H340 C316 0.950 . S
H341 C317 0.949 . S
H342 C319 0.950 . S
H343 C321 0.950 . S
C344 C345 1.349 . S
C344 C346 1.327 . S
C344 H369 0.950 . S
C345 C344 1.349 . S
C345 C361 1.349 . S
C346 C344 1.327 . S
C346 C365 1.429 . S
C346 H370 0.950 . S
C347 C364 1.574 . S
C347 C366 1.368 1_655 S
C347 H371 0.949 . S
H348 C352 0.949 . S
C349 C350 1.349 . S
C349 C351 1.327 . S
C349 H372 0.950 . S
C350 C349 1.349 . S
C350 C362 1.349 1_655 S
C351 C349 1.327 . S
C351 C367 1.429 1_655 S
C351 H373 0.950 . S
C352 H348 0.949 . S
C352 C360 1.574 . S
C352 C368 1.368 . S
H353 C361 0.950 1_655 S
H354 C359 0.950 1_655 S
H355 C360 0.949 . S
H356 C362 0.950 . S
H357 C363 0.950 . S
H358 C364 0.949 . S
C359 H354 0.950 1_455 S
C359 C361 1.327 . S
C359 C365 1.429 . S
C360 C352 1.574 . S
C360 H355 0.949 . S
C360 C366 1.368 . S
C361 C345 1.349 . S
C361 H353 0.950 1_455 S
C361 C359 1.327 . S
C362 C350 1.349 1_455 S
C362 H356 0.950 . S
C362 C363 1.327 . S
C363 H357 0.950 . S
C363 C362 1.327 . S
C363 C367 1.429 . S
C364 C347 1.574 . S
C364 H358 0.949 . S
C364 C368 1.368 1_655 S
C365 C346 1.429 . S
C365 C359 1.429 . S
C365 C366 1.523 . S
C366 C347 1.368 1_455 S
C366 C360 1.368 . S
C366 C365 1.523 . S
C367 C351 1.429 1_455 S
C367 C363 1.429 . S
C367 C368 1.523 . S
C368 C352 1.368 . S
C368 C364 1.368 1_455 S
C368 C367 1.523 . S
H369 C344 0.950 . S
H370 C346 0.950 . S
H371 C347 0.949 . S
H372 C349 0.950 . S
H373 C351 0.950 . S
C374 C375 1.349 . S
C374 C376 1.327 . S
C374 H399 0.950 . S
C375 C374 1.349 . S
C375 C391 1.349 . S
C376 C374 1.327 . S
C376 C395 1.429 . S
C376 H400 0.950 . S
C377 C394 1.574 . S
C377 C396 1.368 . S
C377 H401 0.949 . S
H378 C382 0.949 . S
C379 C380 1.349 . S
C379 C381 1.327 . S
C379 H402 0.950 . S
C380 C379 1.349 . S
C380 C392 1.349 . S
C381 C379 1.327 . S
C381 C397 1.429 . S
C381 H403 0.950 . S
C382 H378 0.949 . S
C382 C390 1.574 . S
C382 C398 1.368 . S
H383 C391 0.950 . S
H384 C389 0.950 . S
H385 C390 0.949 . S
H386 C392 0.950 . S
H387 C393 0.950 . S
H388 C394 0.949 . S
C389 H384 0.950 . S
C389 C391 1.327 . S
C389 C395 1.429 . S
C390 C382 1.574 . S
C390 H385 0.949 . S
C390 C396 1.368 . S
C391 C375 1.349 . S
C391 H383 0.950 . S
C391 C389 1.327 . S
C392 C380 1.349 . S
C392 H386 0.950 . S
C392 C393 1.327 . S
C393 H387 0.950 . S
C393 C392 1.327 . S
C393 C397 1.429 . S
C394 C377 1.574 . S
C394 H388 0.949 . S
C394 C398 1.368 . S
C395 C376 1.429 . S
C395 C389 1.429 . S
C395 C396 1.523 . S
C396 C377 1.368 . S
C396 C390 1.368 . S
C396 C395 1.523 . S
C397 C381 1.429 . S
C397 C393 1.429 . S
C397 C398 1.523 . S
C398 C382 1.368 . S
C398 C394 1.368 . S
C398 C397 1.523 . S
H399 C374 0.950 . S
H400 C376 0.950 . S
H401 C377 0.949 . S
H402 C379 0.950 . S
H403 C381 0.950 . S
C404 C405 1.349 . S
C404 C406 1.327 . S
C404 H429 0.950 . S
C405 C404 1.349 . S
C405 C421 1.349 . S
C406 C404 1.327 . S
C406 C425 1.429 . S
C406 H430 0.950 . S
C407 C424 1.574 . S
C407 C426 1.368 . S
C407 H431 0.949 . S
H408 C412 0.949 . S
C409 C410 1.349 . S
C409 C411 1.327 . S
C409 H432 0.950 . S
C410 C409 1.349 . S
C410 C422 1.349 . S
C411 C409 1.327 . S
C411 C427 1.429 . S
C411 H433 0.950 . S
C412 H408 0.949 . S
C412 C420 1.574 . S
C412 C428 1.368 . S
H413 C421 0.950 . S
H414 C419 0.950 . S
H415 C420 0.949 . S
H416 C422 0.950 . S
H417 C423 0.950 . S
H418 C424 0.949 . S
C419 H414 0.950 . S
C419 C421 1.327 . S
C419 C425 1.429 . S
C420 C412 1.574 . S
C420 H415 0.949 . S
C420 C426 1.368 . S
C421 C405 1.349 . S
C421 H413 0.950 . S
C421 C419 1.327 . S
C422 C410 1.349 . S
C422 H416 0.950 . S
C422 C423 1.327 . S
C423 H417 0.950 . S
C423 C422 1.327 . S
C423 C427 1.429 . S
C424 C407 1.574 . S
C424 H418 0.949 . S
C424 C428 1.368 . S
C425 C406 1.429 . S
C425 C419 1.429 . S
C425 C426 1.523 . S
C426 C407 1.368 . S
C426 C420 1.368 . S
C426 C425 1.523 . S
C427 C411 1.429 . S
C427 C423 1.429 . S
C427 C428 1.523 . S
C428 C412 1.368 . S
C428 C424 1.368 . S
C428 C427 1.523 . S
H429 C404 0.950 . S
H430 C406 0.950 . S
H431 C407 0.949 . S
H432 C409 0.950 . S
H433 C411 0.950 . S
C434 C435 1.349 . S
C434 C436 1.327 . S
C434 H459 0.950 . S
C435 C434 1.349 . S
C435 C451 1.349 . S
C436 C434 1.327 . S
C436 C455 1.429 . S
C436 H460 0.950 . S
C437 C454 1.574 1_455 S
C437 C456 1.368 . S
C437 H461 0.949 . S
H438 C442 0.949 . S
C439 C440 1.349 . S
C439 C441 1.327 . S
C439 H462 0.950 . S
C440 C439 1.349 . S
C440 C452 1.349 . S
C441 C439 1.327 . S
C441 C457 1.429 . S
C441 H463 0.950 . S
C442 H438 0.949 . S
C442 C450 1.574 1_655 S
C442 C458 1.368 . S
H443 C451 0.950 . S
H444 C449 0.950 . S
H445 C450 0.949 . S
H446 C452 0.950 . S
H447 C453 0.950 . S
H448 C454 0.949 . S
C449 H444 0.950 . S
C449 C451 1.327 . S
C449 C455 1.429 . S
C450 C442 1.574 1_455 S
C450 H445 0.949 . S
C450 C456 1.368 . S
C451 C435 1.349 . S
C451 H443 0.950 . S
C451 C449 1.327 . S
C452 C440 1.349 . S
C452 H446 0.950 . S
C452 C453 1.327 . S
C453 H447 0.950 . S
C453 C452 1.327 . S
C453 C457 1.429 . S
C454 C437 1.574 1_655 S
C454 H448 0.949 . S
C454 C458 1.368 . S
C455 C436 1.429 . S
C455 C449 1.429 . S
C455 C456 1.523 . S
C456 C437 1.368 . S
C456 C450 1.368 . S
C456 C455 1.523 . S
C457 C441 1.429 . S
C457 C453 1.429 . S
C457 C458 1.523 . S
C458 C442 1.368 . S
C458 C454 1.368 . S
C458 C457 1.523 . S
H459 C434 0.950 . S
H460 C436 0.950 . S
H461 C437 0.949 . S
H462 C439 0.950 . S
H463 C441 0.950 . S
C464 C465 1.354 . S
C464 C466 1.327 . S
C464 H489 0.950 . S
C465 C464 1.354 . S
C465 C481 1.344 1_465 S
C466 C464 1.327 . S
C466 C485 1.434 . S
C466 H490 0.950 . S
C467 C484 1.574 . S
C467 C486 1.363 1_645 S
C467 H491 0.949 . S
H468 C472 0.949 . S
C469 C470 1.344 1_655 S
C469 C471 1.327 . S
C469 H492 0.950 . S
C470 C469 1.344 1_455 S
C470 C482 1.354 1_545 S
C471 C469 1.327 . S
C471 C487 1.424 1_655 S
C471 H493 0.950 . S
C472 H468 0.949 . S
C472 C480 1.574 . S
C472 C488 1.374 1_565 S
H473 C481 0.950 . S
H474 C479 0.950 . S
H475 C480 0.949 . S
H476 C482 0.950 . S
H477 C483 0.950 . S
H478 C484 0.949 . S
C479 H474 0.950 . S
C479 C481 1.327 . S
C479 C485 1.424 1_645 S
C480 C472 1.574 . S
C480 H475 0.949 . S
C480 C486 1.374 . S
C481 C465 1.344 1_645 S
C481 H473 0.950 . S
C481 C479 1.327 . S
C482 C470 1.354 1_565 S
C482 H476 0.950 . S
C482 C483 1.327 . S
C483 H477 0.950 . S
C483 C482 1.327 . S
C483 C487 1.434 1_565 S
C484 C467 1.574 . S
C484 H478 0.949 . S
C484 C488 1.363 1_655 S
C485 C466 1.434 . S
C485 C479 1.424 1_465 S
C485 C486 1.523 . S
C486 C467 1.363 1_465 S
C486 C480 1.374 . S
C486 C485 1.523 . S
C487 C471 1.424 1_455 S
C487 C483 1.434 1_545 S
C487 C488 1.523 . S
C488 C472 1.374 1_545 S
C488 C484 1.363 1_455 S
C488 C487 1.523 . S
H489 C464 0.950 . S
H490 C466 0.950 . S
H491 C467 0.949 . S
H492 C469 0.950 . S
H493 C471 0.950 . S
C494 C495 1.349 . S
C494 C496 1.327 . S
C494 H519 0.950 . S
C495 C494 1.349 . S
C495 C511 1.349 . S
C496 C494 1.327 . S
C496 C515 1.429 . S
C496 H520 0.950 . S
C497 C514 1.574 . S
C497 C516 1.368 . S
C497 H521 0.949 . S
H498 C502 0.949 . S
C499 C500 1.349 . S
C499 C501 1.327 . S
C499 H522 0.950 . S
C500 C499 1.349 . S
C500 C512 1.349 . S
C501 C499 1.327 . S
C501 C517 1.429 . S
C501 H523 0.950 . S
C502 H498 0.949 . S
C502 C510 1.574 . S
C502 C518 1.368 . S
H503 C511 0.950 . S
H504 C509 0.950 . S
H505 C510 0.949 . S
H506 C512 0.950 . S
H507 C513 0.950 . S
H508 C514 0.949 . S
C509 H504 0.950 . S
C509 C511 1.327 . S
C509 C515 1.429 . S
C510 C502 1.574 . S
C510 H505 0.949 . S
C510 C516 1.368 . S
C511 C495 1.349 . S
C511 H503 0.950 . S
C511 C509 1.327 . S
C512 C500 1.349 . S
C512 H506 0.950 . S
C512 C513 1.327 . S
C513 H507 0.950 . S
C513 C512 1.327 . S
C513 C517 1.429 . S
C514 C497 1.574 . S
C514 H508 0.949 . S
C514 C518 1.368 . S
C515 C496 1.429 . S
C515 C509 1.429 . S
C515 C516 1.523 . S
C516 C497 1.368 . S
C516 C510 1.368 . S
C516 C515 1.523 . S
C517 C501 1.429 . S
C517 C513 1.429 . S
C517 C518 1.523 . S
C518 C502 1.368 . S
C518 C514 1.368 . S
C518 C517 1.523 . S
H519 C494 0.950 . S
H520 C496 0.950 . S
H521 C497 0.949 . S
H522 C499 0.950 . S
H523 C501 0.950 . S
C524 C525 1.349 . S
C524 C526 1.327 . S
C524 H549 0.950 . S
C525 C524 1.349 . S
C525 C541 1.349 1_565 S
C526 C524 1.327 . S
C526 C545 1.429 . S
C526 H550 0.950 . S
C527 C544 1.574 1_554 S
C527 C546 1.368 1_545 S
C527 H551 0.949 . S
H528 C532 0.949 . S
C529 C530 1.349 . S
C529 C531 1.327 . S
C529 H552 0.950 . S
C530 C529 1.349 . S
C530 C542 1.349 1_545 S
C531 C529 1.327 . S
C531 C547 1.429 . S
C531 H553 0.950 . S
C532 H528 0.949 . S
C532 C540 1.574 1_556 S
C532 C548 1.368 1_565 S
H533 C541 0.950 . S
H534 C539 0.950 . S
H535 C540 0.949 . S
H536 C542 0.950 . S
H537 C543 0.950 . S
H538 C544 0.949 . S
C539 H534 0.950 . S
C539 C541 1.327 . S
C539 C545 1.429 1_545 S
C540 C532 1.574 1_554 S
C540 H535 0.949 . S
C540 C546 1.368 . S
C541 C525 1.349 1_545 S
C541 H533 0.950 . S
C541 C539 1.327 . S
C542 C530 1.349 1_565 S
C542 H536 0.950 . S
C542 C543 1.327 . S
C543 H537 0.950 . S
C543 C542 1.327 . S
C543 C547 1.429 1_565 S
C544 C527 1.574 1_556 S
C544 H538 0.949 . S
C544 C548 1.368 . S
C545 C526 1.429 . S
C545 C539 1.429 1_565 S
C545 C546 1.523 . S
C546 C527 1.368 1_565 S
C546 C540 1.368 . S
C546 C545 1.523 . S
C547 C531 1.429 . S
C547 C543 1.429 1_545 S
C547 C548 1.523 . S
C548 C532 1.368 1_545 S
C548 C544 1.368 . S
C548 C547 1.523 . S
H549 C524 0.950 . S
H550 C526 0.950 . S
H551 C527 0.949 . S
H552 C529 0.950 . S
H553 C531 0.950 . S
C554 C555 1.349 . S
C554 C556 1.327 . S
C554 H579 0.950 . S
C555 C554 1.349 . S
C555 C571 1.349 . S
C556 C554 1.327 . S
C556 C575 1.429 . S
C556 H580 0.950 . S
C557 C574 1.574 . S
C557 C576 1.368 . S
C557 H581 0.949 . S
H558 C562 0.949 . S
C559 C560 1.349 . S
C559 C561 1.327 . S
C559 H582 0.950 . S
C560 C559 1.349 . S
C560 C572 1.349 . S
C561 C559 1.327 . S
C561 C577 1.429 . S
C561 H583 0.950 . S
C562 H558 0.949 . S
C562 C570 1.574 . S
C562 C578 1.368 . S
H563 C571 0.950 . S
H564 C569 0.950 . S
H565 C570 0.949 . S
H566 C572 0.950 . S
H567 C573 0.950 . S
H568 C574 0.949 . S
C569 H564 0.950 . S
C569 C571 1.327 . S
C569 C575 1.429 . S
C570 C562 1.574 . S
C570 H565 0.949 . S
C570 C576 1.368 . S
C571 C555 1.349 . S
C571 H563 0.950 . S
C571 C569 1.327 . S
C572 C560 1.349 . S
C572 H566 0.950 . S
C572 C573 1.327 . S
C573 H567 0.950 . S
C573 C572 1.327 . S
C573 C577 1.429 . S
C574 C557 1.574 . S
C574 H568 0.949 . S
C574 C578 1.368 . S
C575 C556 1.429 . S
C575 C569 1.429 . S
C575 C576 1.523 . S
C576 C557 1.368 . S
C576 C570 1.368 . S
C576 C575 1.523 . S
C577 C561 1.429 . S
C577 C573 1.429 . S
C577 C578 1.523 . S
C578 C562 1.368 . S
C578 C574 1.368 . S
C578 C577 1.523 . S
H579 C554 0.950 . S
H580 C556 0.950 . S
H581 C557 0.949 . S
H582 C559 0.950 . S
H583 C561 0.950 . S
C584 C585 1.349 . S
C584 C586 1.327 . S
C584 H609 0.950 . S
C585 C584 1.349 . S
C585 C601 1.349 . S
C586 C584 1.327 . S
C586 C605 1.429 . S
C586 H610 0.950 . S
C587 C604 1.574 . S
C587 C606 1.368 . S
C587 H611 0.949 . S
H588 C592 0.949 . S
C589 C590 1.349 . S
C589 C591 1.327 . S
C589 H612 0.950 . S
C590 C589 1.349 . S
C590 C602 1.349 . S
C591 C589 1.327 . S
C591 C607 1.429 . S
C591 H613 0.950 . S
C592 H588 0.949 . S
C592 C600 1.574 . S
C592 C608 1.368 . S
H593 C601 0.950 . S
H594 C599 0.950 . S
H595 C600 0.949 . S
H596 C602 0.950 . S
H597 C603 0.950 . S
H598 C604 0.949 . S
C599 H594 0.950 . S
C599 C601 1.327 . S
C599 C605 1.429 . S
C600 C592 1.574 . S
C600 H595 0.949 . S
C600 C606 1.368 . S
C601 C585 1.349 . S
C601 H593 0.950 . S
C601 C599 1.327 . S
C602 C590 1.349 . S
C602 H596 0.950 . S
C602 C603 1.327 . S
C603 H597 0.950 . S
C603 C602 1.327 . S
C603 C607 1.429 . S
C604 C587 1.574 . S
C604 H598 0.949 . S
C604 C608 1.368 . S
C605 C586 1.429 . S
C605 C599 1.429 . S
C605 C606 1.523 . S
C606 C587 1.368 . S
C606 C600 1.368 . S
C606 C605 1.523 . S
C607 C591 1.429 . S
C607 C603 1.429 . S
C607 C608 1.523 . S
C608 C592 1.368 . S
C608 C604 1.368 . S
C608 C607 1.523 . S
H609 C584 0.950 . S
H610 C586 0.950 . S
H611 C587 0.949 . S
H612 C589 0.950 . S
H613 C591 0.950 . S
C614 C615 1.349 . S
C614 C616 1.327 . S
C614 H639 0.950 . S
C615 C614 1.349 . S
C615 C631 1.349 . S
C616 C614 1.327 . S
C616 C635 1.429 . S
C616 H640 0.950 . S
C617 C634 1.574 . S
C617 C636 1.368 . S
C617 H641 0.949 . S
H618 C622 0.949 . S
C619 C620 1.349 . S
C619 C621 1.327 . S
C619 H642 0.950 . S
C620 C619 1.349 . S
C620 C632 1.349 . S
C621 C619 1.327 . S
C621 C637 1.429 . S
C621 H643 0.950 . S
C622 H618 0.949 . S
C622 C630 1.574 . S
C622 C638 1.368 . S
H623 C631 0.950 . S
H624 C629 0.950 . S
H625 C630 0.949 . S
H626 C632 0.950 . S
H627 C633 0.950 . S
H628 C634 0.949 . S
C629 H624 0.950 . S
C629 C631 1.327 . S
C629 C635 1.429 . S
C630 C622 1.574 . S
C630 H625 0.949 . S
C630 C636 1.368 . S
C631 C615 1.349 . S
C631 H623 0.950 . S
C631 C629 1.327 . S
C632 C620 1.349 . S
C632 H626 0.950 . S
C632 C633 1.327 . S
C633 H627 0.950 . S
C633 C632 1.327 . S
C633 C637 1.429 . S
C634 C617 1.574 . S
C634 H628 0.949 . S
C634 C638 1.368 . S
C635 C616 1.429 . S
C635 C629 1.429 . S
C635 C636 1.523 . S
C636 C617 1.368 . S
C636 C630 1.368 . S
C636 C635 1.523 . S
C637 C621 1.429 . S
C637 C633 1.429 . S
C637 C638 1.523 . S
C638 C622 1.368 . S
C638 C634 1.368 . S
C638 C637 1.523 . S
H639 C614 0.950 . S
H640 C616 0.950 . S
H641 C617 0.949 . S
H642 C619 0.950 . S
H643 C621 0.950 . S
C644 C645 1.349 . S
C644 C646 1.327 . S
C644 H669 0.950 . S
C645 C644 1.349 . S
C645 C661 1.349 . S
C646 C644 1.327 . S
C646 C665 1.429 . S
C646 H670 0.950 . S
C647 C664 1.574 1_556 S
C647 C666 1.368 . S
C647 H671 0.949 . S
H648 C652 0.949 . S
C649 C650 1.349 . S
C649 C651 1.327 . S
C649 H672 0.950 . S
C650 C649 1.349 . S
C650 C662 1.349 . S
C651 C649 1.327 . S
C651 C667 1.429 . S
C651 H673 0.950 . S
C652 H648 0.949 . S
C652 C660 1.574 1_554 S
C652 C668 1.368 . S
H653 C661 0.950 . S
H654 C659 0.950 . S
H655 C660 0.949 . S
H656 C662 0.950 . S
H657 C663 0.950 . S
H658 C664 0.949 . S
C659 H654 0.950 . S
C659 C661 1.327 . S
C659 C665 1.429 . S
C660 C652 1.574 1_556 S
C660 H655 0.949 . S
C660 C666 1.368 . S
C661 C645 1.349 . S
C661 H653 0.950 . S
C661 C659 1.327 . S
C662 C650 1.349 . S
C662 H656 0.950 . S
C662 C663 1.327 . S
C663 H657 0.950 . S
C663 C662 1.327 . S
C663 C667 1.429 . S
C664 C647 1.574 1_554 S
C664 H658 0.949 . S
C664 C668 1.368 . S
C665 C646 1.429 . S
C665 C659 1.429 . S
C665 C666 1.523 . S
C666 C647 1.368 . S
C666 C660 1.368 . S
C666 C665 1.523 . S
C667 C651 1.429 . S
C667 C663 1.429 . S
C667 C668 1.523 . S
C668 C652 1.368 . S
C668 C664 1.368 . S
C668 C667 1.523 . S
H669 C644 0.950 . S
H670 C646 0.950 . S
H671 C647 0.949 . S
H672 C649 0.950 . S
H673 C651 0.950 . S
C674 C675 1.349 . S
C674 C676 1.327 . S
C674 H699 0.950 1_455 S
C675 C674 1.349 . S
C675 C691 1.349 . S
C676 C674 1.327 . S
C676 C695 1.429 . S
C676 H700 0.950 1_455 S
C677 C694 1.574 . S
C677 C696 1.368 . S
C677 H701 0.949 . S
H678 C682 0.949 1_655 S
C679 C680 1.349 . S
C679 C681 1.327 . S
C679 H702 0.950 . S
C680 C679 1.349 . S
C680 C692 1.349 . S
C681 C679 1.327 . S
C681 C697 1.429 . S
C681 H703 0.950 . S
C682 H678 0.949 1_455 S
C682 C690 1.574 . S
C682 C698 1.368 . S
H683 C691 0.950 . S
H684 C689 0.950 . S
H685 C690 0.949 1_655 S
H686 C692 0.950 1_655 S
H687 C693 0.950 1_655 S
H688 C694 0.949 . S
C689 H684 0.950 . S
C689 C691 1.327 . S
C689 C695 1.429 . S
C690 C682 1.574 . S
C690 H685 0.949 1_455 S
C690 C696 1.368 . S
C691 C675 1.349 . S
C691 H683 0.950 . S
C691 C689 1.327 . S
C692 C680 1.349 . S
C692 H686 0.950 1_455 S
C692 C693 1.327 . S
C693 H687 0.950 1_455 S
C693 C692 1.327 . S
C693 C697 1.429 . S
C694 C677 1.574 . S
C694 H688 0.949 . S
C694 C698 1.368 . S
C695 C676 1.429 . S
C695 C689 1.429 . S
C695 C696 1.523 . S
C696 C677 1.368 . S
C696 C690 1.368 . S
C696 C695 1.523 . S
C697 C681 1.429 . S
C697 C693 1.429 . S
C697 C698 1.523 . S
C698 C682 1.368 . S
C698 C694 1.368 . S
C698 C697 1.523 . S
H699 C674 0.950 1_655 S
H700 C676 0.950 1_655 S
H701 C677 0.949 . S
H702 C679 0.950 . S
H703 C681 0.950 . S
C704 C705 1.349 . S
C704 C706 1.327 . S
C704 H729 0.950 . S
C705 C704 1.349 . S
C705 C721 1.349 . S
C706 C704 1.327 . S
C706 C725 1.429 . S
C706 H730 0.950 . S
C707 C724 1.574 . S
C707 C726 1.368 . S
C707 H731 0.949 . S
H708 C712 0.949 . S
C709 C710 1.349 . S
C709 C711 1.327 . S
C709 H732 0.950 . S
C710 C709 1.349 . S
C710 C722 1.352 . S
C711 C709 1.327 . S
C711 C727 1.429 . S
C711 H733 0.950 . S
C712 H708 0.949 . S
C712 C720 1.574 . S
C712 C728 1.368 . S
H713 C721 0.950 . S
H714 C719 0.950 . S
H715 C720 0.949 . S
H716 C722 0.940 1_545 S
H717 C723 0.950 . S
H718 C724 0.949 . S
C719 H714 0.950 . S
C719 C721 1.327 . S
C719 C725 1.429 . S
C720 C712 1.574 . S
C720 H715 0.949 . S
C720 C726 1.368 . S
C721 C705 1.349 . S
C721 H713 0.950 . S
C721 C719 1.327 . S
C722 C710 1.352 . S
C722 H716 0.940 1_565 S
C722 C723 1.333 . S
C723 H717 0.950 . S
C723 C722 1.333 . S
C723 C727 1.429 . S
C724 C707 1.574 . S
C724 H718 0.949 . S
C724 C728 1.368 . S
C725 C706 1.429 . S
C725 C719 1.429 . S
C725 C726 1.523 . S
C726 C707 1.368 . S
C726 C720 1.368 . S
C726 C725 1.523 . S
C727 C711 1.429 . S
C727 C723 1.429 . S
C727 C728 1.523 . S
C728 C712 1.368 . S
C728 C724 1.368 . S
C728 C727 1.523 . S
H729 C704 0.950 . S
H730 C706 0.950 . S
H731 C707 0.949 . S
H732 C709 0.950 . S
H733 C711 0.950 . S
C734 C735 1.349 . S
C734 C736 1.327 . S
C734 H759 0.950 . S
C735 C734 1.349 . S
C735 C751 1.349 . S
C736 C734 1.327 . S
C736 C755 1.429 . S
C736 H760 0.950 . S
C737 C754 1.574 . S
C737 C756 1.368 . S
C737 H761 0.949 . S
H738 C742 0.949 . S
C739 C740 1.349 . S
C739 C741 1.327 . S
C739 H762 0.951 1_565 S
C740 C739 1.349 . S
C740 C752 1.349 . S
C741 C739 1.327 . S
C741 C757 1.429 . S
C741 H763 0.950 . S
C742 H738 0.949 . S
C742 C750 1.574 . S
C742 C758 1.368 . S
H743 C751 0.950 . S
H744 C749 0.950 . S
H745 C750 0.949 . S
H746 C752 0.950 . S
H747 C753 0.950 . S
H748 C754 0.949 . S
C749 H744 0.950 . S
C749 C751 1.327 . S
C749 C755 1.429 . S
C750 C742 1.574 . S
C750 H745 0.949 . S
C750 C756 1.368 . S
C751 C735 1.349 . S
C751 H743 0.950 . S
C751 C749 1.327 . S
C752 C740 1.349 . S
C752 H746 0.950 . S
C752 C753 1.327 . S
C753 H747 0.950 . S
C753 C752 1.327 . S
C753 C757 1.429 . S
C754 C737 1.574 . S
C754 H748 0.949 . S
C754 C758 1.368 . S
C755 C736 1.429 . S
C755 C749 1.429 . S
C755 C756 1.523 . S
C756 C737 1.368 . S
C756 C750 1.368 . S
C756 C755 1.523 . S
C757 C741 1.429 . S
C757 C753 1.429 . S
C757 C758 1.523 . S
C758 C742 1.368 . S
C758 C754 1.368 . S
C758 C757 1.523 . S
H759 C734 0.950 . S
H760 C736 0.950 . S
H761 C737 0.949 . S
H762 C739 0.951 1_545 S
H763 C741 0.950 . S
C764 C765 1.349 . S
C764 C766 1.327 . S
C764 H789 0.950 . S
C765 C764 1.349 . S
C765 C781 1.349 . S
C766 C764 1.327 . S
C766 C785 1.429 . S
C766 H790 0.950 . S
C767 C784 1.574 . S
C767 C786 1.368 . S
C767 H791 0.949 . S
H768 C772 0.949 . S
C769 C770 1.349 . S
C769 C771 1.327 . S
C769 H792 0.950 . S
C770 C769 1.349 . S
C770 C782 1.349 . S
C771 C769 1.327 . S
C771 C787 1.429 . S
C771 H793 0.950 . S
C772 H768 0.949 . S
C772 C780 1.574 . S
C772 C788 1.368 . S
H773 C781 0.950 . S
H774 C779 0.950 . S
H775 C780 0.949 . S
H776 C782 0.950 . S
H777 C783 0.950 . S
H778 C784 0.949 . S
C779 H774 0.950 . S
C779 C781 1.327 . S
C779 C785 1.429 . S
C780 C772 1.574 . S
C780 H775 0.949 . S
C780 C786 1.368 . S
C781 C765 1.349 . S
C781 H773 0.950 . S
C781 C779 1.327 . S
C782 C770 1.349 . S
C782 H776 0.950 . S
C782 C783 1.327 . S
C783 H777 0.950 . S
C783 C782 1.327 . S
C783 C787 1.429 . S
C784 C767 1.574 . S
C784 H778 0.949 . S
C784 C788 1.368 . S
C785 C766 1.429 . S
C785 C779 1.429 . S
C785 C786 1.523 . S
C786 C767 1.368 . S
C786 C780 1.368 . S
C786 C785 1.523 . S
C787 C771 1.429 . S
C787 C783 1.429 . S
C787 C788 1.523 . S
C788 C772 1.368 . S
C788 C784 1.368 . S
C788 C787 1.523 . S
H789 C764 0.950 . S
H790 C766 0.950 . S
H791 C767 0.949 . S
H792 C769 0.950 . S
H793 C771 0.950 . S
C794 C795 1.349 . S
C794 C796 1.327 . S
C794 H819 0.950 . S
C795 C794 1.349 . S
C795 C811 1.349 . S
C796 C794 1.327 . S
C796 C815 1.429 . S
C796 H820 0.950 . S
C797 C814 1.574 . S
C797 C816 1.368 . S
C797 H821 0.949 . S
H798 C802 0.949 . S
C799 C800 1.349 . S
C799 C801 1.327 . S
C799 H822 0.950 . S
C800 C799 1.349 . S
C800 C812 1.349 . S
C801 C799 1.327 . S
C801 C817 1.429 . S
C801 H823 0.950 . S
C802 H798 0.949 . S
C802 C810 1.574 . S
C802 C818 1.368 . S
H803 C811 0.950 1_565 S
H804 C809 0.950 . S
H805 C810 0.949 . S
H806 C812 0.950 . S
H807 C813 0.950 . S
H808 C814 0.949 . S
C809 H804 0.950 . S
C809 C811 1.327 . S
C809 C815 1.429 . S
C810 C802 1.574 . S
C810 H805 0.949 . S
C810 C816 1.368 . S
C811 C795 1.349 . S
C811 H803 0.950 1_545 S
C811 C809 1.327 . S
C812 C800 1.349 . S
C812 H806 0.950 . S
C812 C813 1.327 . S
C813 H807 0.950 . S
C813 C812 1.327 . S
C813 C817 1.429 . S
C814 C797 1.574 . S
C814 H808 0.949 . S
C814 C818 1.368 . S
C815 C796 1.429 . S
C815 C809 1.429 . S
C815 C816 1.523 . S
C816 C797 1.368 . S
C816 C810 1.368 . S
C816 C815 1.523 . S
C817 C801 1.429 . S
C817 C813 1.429 . S
C817 C818 1.523 . S
C818 C802 1.368 . S
C818 C814 1.368 . S
C818 C817 1.523 . S
H819 C794 0.950 . S
H820 C796 0.950 . S
H821 C797 0.949 . S
H822 C799 0.950 . S
H823 C801 0.950 . S
C824 C825 1.349 . S
C824 C826 1.327 . S
C824 H849 0.950 . S
C825 C824 1.349 . S
C825 C841 1.349 . S
C826 C824 1.327 . S
C826 C845 1.429 . S
C826 H850 0.950 . S
C827 C844 1.574 . S
C827 C846 1.368 . S
C827 H851 0.949 . S
H828 C832 0.949 . S
C829 C830 1.349 . S
C829 C831 1.327 . S
C829 H852 0.950 . S
C830 C829 1.349 . S
C830 C842 1.349 . S
C831 C829 1.327 . S
C831 C847 1.429 . S
C831 H853 0.950 . S
C832 H828 0.949 . S
C832 C840 1.574 . S
C832 C848 1.368 . S
H833 C841 0.950 . S
H834 C839 0.950 . S
H835 C840 0.949 . S
H836 C842 0.950 . S
H837 C843 0.950 . S
H838 C844 0.949 . S
C839 H834 0.950 . S
C839 C841 1.327 . S
C839 C845 1.429 . S
C840 C832 1.574 . S
C840 H835 0.949 . S
C840 C846 1.368 . S
C841 C825 1.349 . S
C841 H833 0.950 . S
C841 C839 1.327 . S
C842 C830 1.349 . S
C842 H836 0.950 . S
C842 C843 1.327 . S
C843 H837 0.950 . S
C843 C842 1.327 . S
C843 C847 1.429 . S
C844 C827 1.574 . S
C844 H838 0.949 . S
C844 C848 1.368 . S
C845 C826 1.429 . S
C845 C839 1.429 . S
C845 C846 1.523 . S
C846 C827 1.368 . S
C846 C840 1.368 . S
C846 C845 1.523 . S
C847 C831 1.429 . S
C847 C843 1.429 . S
C847 C848 1.523 . S
C848 C832 1.368 . S
C848 C844 1.368 . S
C848 C847 1.523 . S
H849 C824 0.950 . S
H850 C826 0.950 . S
H851 C827 0.949 . S
H852 C829 0.950 . S
H853 C831 0.950 . S
C854 C855 1.349 . S
C854 C856 1.327 . S
C854 H879 0.950 . S
C855 C854 1.349 . S
C855 C871 1.349 . S
C856 C854 1.327 . S
C856 C875 1.429 . S
C856 H880 0.950 . S
C857 C874 1.574 . S
C857 C876 1.368 . S
C857 H881 0.949 . S
H858 C862 0.949 . S
C859 C860 1.349 . S
C859 C861 1.327 . S
C859 H882 0.950 . S
C860 C859 1.349 . S
C860 C872 1.349 . S
C861 C859 1.327 . S
C861 C877 1.429 . S
C861 H883 0.950 . S
C862 H858 0.949 . S
C862 C870 1.574 . S
C862 C878 1.368 . S
H863 C871 0.950 . S
H864 C869 0.950 . S
H865 C870 0.949 . S
H866 C872 0.950 . S
H867 C873 0.950 . S
H868 C874 0.949 . S
C869 H864 0.950 . S
C869 C871 1.327 . S
C869 C875 1.429 . S
C870 C862 1.574 . S
C870 H865 0.949 . S
C870 C876 1.368 . S
C871 C855 1.349 . S
C871 H863 0.950 . S
C871 C869 1.327 . S
C872 C860 1.349 . S
C872 H866 0.950 . S
C872 C873 1.327 . S
C873 H867 0.950 . S
C873 C872 1.327 . S
C873 C877 1.429 . S
C874 C857 1.574 . S
C874 H868 0.949 . S
C874 C878 1.368 . S
C875 C856 1.429 . S
C875 C869 1.429 . S
C875 C876 1.523 . S
C876 C857 1.368 . S
C876 C870 1.368 . S
C876 C875 1.523 . S
C877 C861 1.429 . S
C877 C873 1.429 . S
C877 C878 1.523 . S
C878 C862 1.368 . S
C878 C874 1.368 . S
C878 C877 1.523 . S
H879 C854 0.950 . S
H880 C856 0.950 . S
H881 C857 0.949 . S
H882 C859 0.950 . S
H883 C861 0.950 . S
C884 C885 1.349 . S
C884 C886 1.327 . S
C884 H909 0.950 . S
C885 C884 1.349 . S
C885 C901 1.349 . S
C886 C884 1.327 . S
C886 C905 1.429 . S
C886 H910 0.950 . S
C887 C904 1.574 . S
C887 C906 1.368 . S
C887 H911 0.949 . S
H888 C892 0.949 . S
C889 C890 1.349 . S
C889 C891 1.327 . S
C889 H912 0.950 . S
C890 C889 1.349 . S
C890 C902 1.349 . S
C891 C889 1.327 . S
C891 C907 1.429 . S
C891 H913 0.950 . S
C892 H888 0.949 . S
C892 C900 1.574 . S
C892 C908 1.368 . S
H893 C901 0.950 . S
H894 C899 0.950 . S
H895 C900 0.949 . S
H896 C902 0.950 . S
H897 C903 0.950 . S
H898 C904 0.949 . S
C899 H894 0.950 . S
C899 C901 1.327 . S
C899 C905 1.429 . S
C900 C892 1.574 . S
C900 H895 0.949 . S
C900 C906 1.368 . S
C901 C885 1.349 . S
C901 H893 0.950 . S
C901 C899 1.327 . S
C902 C890 1.349 . S
C902 H896 0.950 . S
C902 C903 1.327 . S
C903 H897 0.950 . S
C903 C902 1.327 . S
C903 C907 1.429 . S
C904 C887 1.574 . S
C904 H898 0.949 . S
C904 C908 1.368 . S
C905 C886 1.429 . S
C905 C899 1.429 . S
C905 C906 1.523 . S
C906 C887 1.368 . S
C906 C900 1.368 . S
C906 C905 1.523 . S
C907 C891 1.429 . S
C907 C903 1.429 . S
C907 C908 1.523 . S
C908 C892 1.368 . S
C908 C904 1.368 . S
C908 C907 1.523 . S
H909 C884 0.950 . S
H910 C886 0.950 . S
H911 C887 0.949 . S
H912 C889 0.950 . S
H913 C891 0.950 . S
C914 C915 1.349 . S
C914 C916 1.327 . S
C914 H939 0.950 . S
C915 C914 1.349 . S
C915 C931 1.349 . S
C916 C914 1.327 . S
C916 C935 1.429 . S
C916 H940 0.950 . S
C917 C934 1.574 . S
C917 C936 1.368 . S
C917 H941 0.949 . S
H918 C922 0.949 . S
C919 C920 1.349 . S
C919 C921 1.327 . S
C919 H942 0.950 . S
C920 C919 1.349 . S
C920 C932 1.349 . S
C921 C919 1.327 . S
C921 C937 1.429 . S
C921 H943 0.950 . S
C922 H918 0.949 . S
C922 C930 1.574 . S
C922 C938 1.368 . S
H923 C931 0.950 . S
H924 C929 0.950 . S
H925 C930 0.949 . S
H926 C932 0.950 . S
H927 C933 0.950 . S
H928 C934 0.949 . S
C929 H924 0.950 . S
C929 C931 1.327 . S
C929 C935 1.429 . S
C930 C922 1.574 . S
C930 H925 0.949 . S
C930 C936 1.368 . S
C931 C915 1.349 . S
C931 H923 0.950 . S
C931 C929 1.327 . S
C932 C920 1.349 . S
C932 H926 0.950 . S
C932 C933 1.327 . S
C933 H927 0.950 . S
C933 C932 1.327 . S
C933 C937 1.429 . S
C934 C917 1.574 . S
C934 H928 0.949 . S
C934 C938 1.368 . S
C935 C916 1.429 . S
C935 C929 1.429 . S
C935 C936 1.523 . S
C936 C917 1.368 . S
C936 C930 1.368 . S
C936 C935 1.523 . S
C937 C921 1.429 . S
C937 C933 1.429 . S
C937 C938 1.523 . S
C938 C922 1.368 . S
C938 C934 1.368 . S
C938 C937 1.523 . S
H939 C914 0.950 . S
H940 C916 0.950 . S
H941 C917 0.949 . S
H942 C919 0.950 . S
H943 C921 0.950 . S
C944 C945 1.349 . S
C944 C946 1.327 . S
C944 H969 0.950 . S
C945 C944 1.349 . S
C945 C961 1.349 . S
C946 C944 1.327 . S
C946 C965 1.429 . S
C946 H970 0.950 . S
C947 C964 1.574 . S
C947 C966 1.368 . S
C947 H971 0.949 . S
H948 C952 0.949 . S
C949 C950 1.349 . S
C949 C951 1.327 . S
C949 H972 0.950 . S
C950 C949 1.349 . S
C950 C962 1.349 . S
C951 C949 1.327 . S
C951 C967 1.429 . S
C951 H973 0.950 . S
C952 H948 0.949 . S
C952 C960 1.574 . S
C952 C968 1.368 . S
H953 C961 0.950 . S
H954 C959 0.950 . S
H955 C960 0.949 . S
H956 C962 0.950 . S
H957 C963 0.950 . S
H958 C964 0.949 . S
C959 H954 0.950 . S
C959 C961 1.327 . S
C959 C965 1.429 . S
C960 C952 1.574 . S
C960 H955 0.949 . S
C960 C966 1.368 . S
C961 C945 1.349 . S
C961 H953 0.950 . S
C961 C959 1.327 . S
C962 C950 1.349 . S
C962 H956 0.950 . S
C962 C963 1.327 . S
C963 H957 0.950 . S
C963 C962 1.327 . S
C963 C967 1.429 . S
C964 C947 1.574 . S
C964 H958 0.949 . S
C964 C968 1.368 . S
C965 C946 1.429 . S
C965 C959 1.429 . S
C965 C966 1.523 . S
C966 C947 1.368 . S
C966 C960 1.368 . S
C966 C965 1.523 . S
C967 C951 1.429 . S
C967 C963 1.429 . S
C967 C968 1.523 . S
C968 C952 1.368 . S
C968 C964 1.368 . S
C968 C967 1.523 . S
H969 C944 0.950 . S
H970 C946 0.950 . S
H971 C947 0.949 . S
H972 C949 0.950 . S
H973 C951 0.950 . S
C974 C975 1.349 . S
C974 C976 1.327 . S
C974 H999 0.950 . S
C975 C974 1.349 . S
C975 C991 1.349 . S
C976 C974 1.327 . S
C976 C995 1.429 . S
C976 H1000 0.950 . S
C977 C994 1.574 . S
C977 C996 1.368 . S
C977 H1001 0.949 . S
H978 C982 0.949 . S
C979 C980 1.349 . S
C979 C981 1.327 . S
C979 H1002 0.950 . S
C980 C979 1.349 . S
C980 C992 1.349 . S
C981 C979 1.327 . S
C981 C997 1.429 . S
C981 H1003 0.950 . S
C982 H978 0.949 . S
C982 C990 1.574 . S
C982 C998 1.368 . S
H983 C991 0.950 . S
H984 C989 0.950 . S
H985 C990 0.949 . S
H986 C992 0.950 . S
H987 C993 0.950 . S
H988 C994 0.949 . S
C989 H984 0.950 . S
C989 C991 1.327 . S
C989 C995 1.429 . S
C990 C982 1.574 . S
C990 H985 0.949 . S
C990 C996 1.368 . S
C991 C975 1.349 . S
C991 H983 0.950 . S
C991 C989 1.327 . S
C992 C980 1.349 . S
C992 H986 0.950 . S
C992 C993 1.327 . S
C993 H987 0.950 . S
C993 C992 1.327 . S
C993 C997 1.429 . S
C994 C977 1.574 . S
C994 H988 0.949 . S
C994 C998 1.368 . S
C995 C976 1.429 . S
C995 C989 1.429 . S
C995 C996 1.523 . S
C996 C977 1.368 . S
C996 C990 1.368 . S
C996 C995 1.523 . S
C997 C981 1.429 . S
C997 C993 1.429 . S
C997 C998 1.523 . S
C998 C982 1.368 . S
C998 C994 1.368 . S
C998 C997 1.523 . S
H999 C974 0.950 . S
H1000 C976 0.950 . S
H1001 C977 0.949 . S
H1002 C979 0.950 . S
H1003 C981 0.950 . S
C1004 C1005 1.349 . S
C1004 C1006 1.327 . S
C1004 H1029 0.950 . S
C1005 C1004 1.349 . S
C1005 C1021 1.349 . S
C1006 C1004 1.327 . S
C1006 C1025 1.429 . S
C1006 H1030 0.950 . S
C1007 C1024 1.574 . S
C1007 C1026 1.368 . S
C1007 H1031 0.949 . S
H1008 C1012 0.949 . S
C1009 C1010 1.349 . S
C1009 C1011 1.327 . S
C1009 H1032 0.950 . S
C1010 C1009 1.349 . S
C1010 C1022 1.349 . S
C1011 C1009 1.327 . S
C1011 C1027 1.429 . S
C1011 H1033 0.950 . S
C1012 H1008 0.949 . S
C1012 C1020 1.574 . S
C1012 C1028 1.368 . S
H1013 C1021 0.950 . S
H1014 C1019 0.950 . S
H1015 C1020 0.949 . S
H1016 C1022 0.950 . S
H1017 C1023 0.950 . S
H1018 C1024 0.949 . S
C1019 H1014 0.950 . S
C1019 C1021 1.327 . S
C1019 C1025 1.429 . S
C1020 C1012 1.574 . S
C1020 H1015 0.949 . S
C1020 C1026 1.368 . S
C1021 C1005 1.349 . S
C1021 H1013 0.950 . S
C1021 C1019 1.327 . S
C1022 C1010 1.349 . S
C1022 H1016 0.950 . S
C1022 C1023 1.327 . S
C1023 H1017 0.950 . S
C1023 C1022 1.327 . S
C1023 C1027 1.429 . S
C1024 C1007 1.574 . S
C1024 H1018 0.949 . S
C1024 C1028 1.368 . S
C1025 C1006 1.429 . S
C1025 C1019 1.429 . S
C1025 C1026 1.523 . S
C1026 C1007 1.368 . S
C1026 C1020 1.368 . S
C1026 C1025 1.523 . S
C1027 C1011 1.429 . S
C1027 C1023 1.429 . S
C1027 C1028 1.523 . S
C1028 C1012 1.368 . S
C1028 C1024 1.368 . S
C1028 C1027 1.523 . S
H1029 C1004 0.950 . S
H1030 C1006 0.950 . S
H1031 C1007 0.949 . S
H1032 C1009 0.950 . S
H1033 C1011 0.950 . S
C1034 C1035 1.349 . S
C1034 C1036 1.327 . S
C1034 H1059 0.950 . S
C1035 C1034 1.349 . S
C1035 C1051 1.349 . S
C1036 C1034 1.327 . S
C1036 C1055 1.429 . S
C1036 H1060 0.950 . S
C1037 C1054 1.574 . S
C1037 C1056 1.368 . S
C1037 H1061 0.949 . S
H1038 C1042 0.949 . S
C1039 C1040 1.349 . S
C1039 C1041 1.327 . S
C1039 H1062 0.950 . S
C1040 C1039 1.349 . S
C1040 C1052 1.349 . S
C1041 C1039 1.327 . S
C1041 C1057 1.429 . S
C1041 H1063 0.950 . S
C1042 H1038 0.949 . S
C1042 C1050 1.574 . S
C1042 C1058 1.368 . S
H1043 C1051 0.950 . S
H1044 C1049 0.950 . S
H1045 C1050 0.949 . S
H1046 C1052 0.950 . S
H1047 C1053 0.950 . S
H1048 C1054 0.949 . S
C1049 H1044 0.950 . S
C1049 C1051 1.327 . S
C1049 C1055 1.429 . S
C1050 C1042 1.574 . S
C1050 H1045 0.949 . S
C1050 C1056 1.368 . S
C1051 C1035 1.349 . S
C1051 H1043 0.950 . S
C1051 C1049 1.327 . S
C1052 C1040 1.349 . S
C1052 H1046 0.950 . S
C1052 C1053 1.327 . S
C1053 H1047 0.950 . S
C1053 C1052 1.327 . S
C1053 C1057 1.429 . S
C1054 C1037 1.574 . S
C1054 H1048 0.949 . S
C1054 C1058 1.368 . S
C1055 C1036 1.429 . S
C1055 C1049 1.429 . S
C1055 C1056 1.523 . S
C1056 C1037 1.368 . S
C1056 C1050 1.368 . S
C1056 C1055 1.523 . S
C1057 C1041 1.429 . S
C1057 C1053 1.429 . S
C1057 C1058 1.523 . S
C1058 C1042 1.368 . S
C1058 C1054 1.368 . S
C1058 C1057 1.523 . S
H1059 C1034 0.950 . S
H1060 C1036 0.950 . S
H1061 C1037 0.949 . S
H1062 C1039 0.950 . S
H1063 C1041 0.950 . S
C1064 C1065 1.349 . S
C1064 C1066 1.327 . S
C1064 H1089 0.950 . S
C1065 C1064 1.349 . S
C1065 C1081 1.349 . S
C1066 C1064 1.327 . S
C1066 C1085 1.429 . S
C1066 H1090 0.950 . S
C1067 C1084 1.574 . S
C1067 C1086 1.368 . S
C1067 H1091 0.949 . S
H1068 C1072 0.949 . S
C1069 C1070 1.349 . S
C1069 C1071 1.327 . S
C1069 H1092 0.950 . S
C1070 C1069 1.349 . S
C1070 C1082 1.349 . S
C1071 C1069 1.327 . S
C1071 C1087 1.429 . S
C1071 H1093 0.950 . S
C1072 H1068 0.949 . S
C1072 C1080 1.574 . S
C1072 C1088 1.368 . S
H1073 C1081 0.950 . S
H1074 C1079 0.950 . S
H1075 C1080 0.949 . S
H1076 C1082 0.950 . S
H1077 C1083 0.950 . S
H1078 C1084 0.949 . S
C1079 H1074 0.950 . S
C1079 C1081 1.327 . S
C1079 C1085 1.429 . S
C1080 C1072 1.574 . S
C1080 H1075 0.949 . S
C1080 C1086 1.368 . S
C1081 C1065 1.349 . S
C1081 H1073 0.950 . S
C1081 C1079 1.327 . S
C1082 C1070 1.349 . S
C1082 H1076 0.950 . S
C1082 C1083 1.327 . S
C1083 H1077 0.950 . S
C1083 C1082 1.327 . S
C1083 C1087 1.429 . S
C1084 C1067 1.574 . S
C1084 H1078 0.949 . S
C1084 C1088 1.368 . S
C1085 C1066 1.429 . S
C1085 C1079 1.429 . S
C1085 C1086 1.523 . S
C1086 C1067 1.368 . S
C1086 C1080 1.368 . S
C1086 C1085 1.523 . S
C1087 C1071 1.429 . S
C1087 C1083 1.429 . S
C1087 C1088 1.523 . S
C1088 C1072 1.368 . S
C1088 C1084 1.368 . S
C1088 C1087 1.523 . S
H1089 C1064 0.950 . S
H1090 C1066 0.950 . S
H1091 C1067 0.949 . S
H1092 C1069 0.950 . S
H1093 C1071 0.950 . S
C1094 C1095 1.349 . S
C1094 C1096 1.327 . S
C1094 H1119 0.950 . S
C1095 C1094 1.349 . S
C1095 C1111 1.349 . S
C1096 C1094 1.327 . S
C1096 C1115 1.429 . S
C1096 H1120 0.950 . S
C1097 C1114 1.574 . S
C1097 C1116 1.368 . S
C1097 H1121 0.949 . S
H1098 C1102 0.949 . S
C1099 C1100 1.349 . S
C1099 C1101 1.327 . S
C1099 H1122 0.950 . S
C1100 C1099 1.349 . S
C1100 C1112 1.349 . S
C1101 C1099 1.327 . S
C1101 C1117 1.429 . S
C1101 H1123 0.950 . S
C1102 H1098 0.949 . S
C1102 C1110 1.574 . S
C1102 C1118 1.368 . S
H1103 C1111 0.950 . S
H1104 C1109 0.950 . S
H1105 C1110 0.949 . S
H1106 C1112 0.950 . S
H1107 C1113 0.950 . S
H1108 C1114 0.949 . S
C1109 H1104 0.950 . S
C1109 C1111 1.327 . S
C1109 C1115 1.429 . S
C1110 C1102 1.574 . S
C1110 H1105 0.949 . S
C1110 C1116 1.368 . S
C1111 C1095 1.349 . S
C1111 H1103 0.950 . S
C1111 C1109 1.327 . S
C1112 C1100 1.349 . S
C1112 H1106 0.950 . S
C1112 C1113 1.327 . S
C1113 H1107 0.950 . S
C1113 C1112 1.327 . S
C1113 C1117 1.429 . S
C1114 C1097 1.574 . S
C1114 H1108 0.949 . S
C1114 C1118 1.368 . S
C1115 C1096 1.429 . S
C1115 C1109 1.429 . S
C1115 C1116 1.523 . S
C1116 C1097 1.368 . S
C1116 C1110 1.368 . S
C1116 C1115 1.523 . S
C1117 C1101 1.429 . S
C1117 C1113 1.429 . S
C1117 C1118 1.523 . S
C1118 C1102 1.368 . S
C1118 C1114 1.368 . S
C1118 C1117 1.523 . S
H1119 C1094 0.950 . S
H1120 C1096 0.950 . S
H1121 C1097 0.949 . S
H1122 C1099 0.950 . S
H1123 C1101 0.950 . S
C1124 C1125 1.349 . S
C1124 C1126 1.327 . S
C1124 H1149 0.950 . S
C1125 C1124 1.349 . S
C1125 C1141 1.349 . S
C1126 C1124 1.327 . S
C1126 C1145 1.429 . S
C1126 H1150 0.950 . S
C1127 C1144 1.574 . S
C1127 C1146 1.368 . S
C1127 H1151 0.949 . S
H1128 C1132 0.949 . S
C1129 C1130 1.349 . S
C1129 C1131 1.327 . S
C1129 H1152 0.950 . S
C1130 C1129 1.349 . S
C1130 C1142 1.349 . S
C1131 C1129 1.327 . S
C1131 C1147 1.429 . S
C1131 H1153 0.950 . S
C1132 H1128 0.949 . S
C1132 C1140 1.574 . S
C1132 C1148 1.368 . S
H1133 C1141 0.950 . S
H1134 C1139 0.950 . S
H1135 C1140 0.949 . S
H1136 C1142 0.950 . S
H1137 C1143 0.950 . S
H1138 C1144 0.949 . S
C1139 H1134 0.950 . S
C1139 C1141 1.327 . S
C1139 C1145 1.429 . S
C1140 C1132 1.574 . S
C1140 H1135 0.949 . S
C1140 C1146 1.368 . S
C1141 C1125 1.349 . S
C1141 H1133 0.950 . S
C1141 C1139 1.327 . S
C1142 C1130 1.349 . S
C1142 H1136 0.950 . S
C1142 C1143 1.327 . S
C1143 H1137 0.950 . S
C1143 C1142 1.327 . S
C1143 C1147 1.429 . S
C1144 C1127 1.574 . S
C1144 H1138 0.949 . S
C1144 C1148 1.368 . S
C1145 C1126 1.429 . S
C1145 C1139 1.429 . S
C1145 C1146 1.523 . S
C1146 C1127 1.368 . S
C1146 C1140 1.368 . S
C1146 C1145 1.523 . S
C1147 C1131 1.429 . S
C1147 C1143 1.429 . S
C1147 C1148 1.523 . S
C1148 C1132 1.368 . S
C1148 C1144 1.368 . S
C1148 C1147 1.523 . S
H1149 C1124 0.950 . S
H1150 C1126 0.950 . S
H1151 C1127 0.949 . S
H1152 C1129 0.950 . S
H1153 C1131 0.950 . S
C1154 C1155 1.349 . S
C1154 C1156 1.327 . S
C1154 H1179 0.950 . S
C1155 C1154 1.349 . S
C1155 C1171 1.349 . S
C1156 C1154 1.327 . S
C1156 C1175 1.429 . S
C1156 H1180 0.950 . S
C1157 C1174 1.574 . S
C1157 C1176 1.368 . S
C1157 H1181 0.949 . S
H1158 C1162 0.949 . S
C1159 C1160 1.349 . S
C1159 C1161 1.327 . S
C1159 H1182 0.950 . S
C1160 C1159 1.349 . S
C1160 C1172 1.349 . S
C1161 C1159 1.327 . S
C1161 C1177 1.429 . S
C1161 H1183 0.950 . S
C1162 H1158 0.949 . S
C1162 C1170 1.574 . S
C1162 C1178 1.368 . S
H1163 C1171 0.950 . S
H1164 C1169 0.950 . S
H1165 C1170 0.949 . S
H1166 C1172 0.950 . S
H1167 C1173 0.950 . S
H1168 C1174 0.949 . S
C1169 H1164 0.950 . S
C1169 C1171 1.327 . S
C1169 C1175 1.429 . S
C1170 C1162 1.574 . S
C1170 H1165 0.949 . S
C1170 C1176 1.368 . S
C1171 C1155 1.349 . S
C1171 H1163 0.950 . S
C1171 C1169 1.327 . S
C1172 C1160 1.349 . S
C1172 H1166 0.950 . S
C1172 C1173 1.327 . S
C1173 H1167 0.950 . S
C1173 C1172 1.327 . S
C1173 C1177 1.429 . S
C1174 C1157 1.574 . S
C1174 H1168 0.949 . S
C1174 C1178 1.368 . S
C1175 C1156 1.429 . S
C1175 C1169 1.429 . S
C1175 C1176 1.523 . S
C1176 C1157 1.368 . S
C1176 C1170 1.368 . S
C1176 C1175 1.523 . S
C1177 C1161 1.429 . S
C1177 C1173 1.429 . S
C1177 C1178 1.523 . S
C1178 C1162 1.368 . S
C1178 C1174 1.368 . S
C1178 C1177 1.523 . S
H1179 C1154 0.950 . S
H1180 C1156 0.950 . S
H1181 C1157 0.949 . S
H1182 C1159 0.950 . S
H1183 C1161 0.950 . S
C225 C8 1.206 . S
C230 C190 1.206 . S
C255 C162 1.206 . S
C260 C22 1.206 . S
C285 C176 1.206 . S
C290 C36 1.206 . S
C315 C148 1.206 . S
C320 C50 1.206 . S
C345 C64 1.206 . S
C350 C218 1.206 . S
C375 C78 1.206 . S
C380 C134 1.206 . S
C405 C204 1.206 . S
C410 C92 1.206 . S
C435 C106 1.206 . S
C440 C120 1.206 . S
C465 C63 1.620 . S
C470 C7 1.620 . S
C495 C21 1.619 . S
C500 C77 1.619 . S
C525 C35 1.619 . S
C530 C91 1.619 . S
C555 C105 1.619 . S
C560 C49 1.619 . S
C585 C119 1.619 . S
C590 C147 1.619 . S
C615 C133 1.619 . S
C620 C161 1.619 . S
C645 C203 1.619 . S
C650 C175 1.619 . S
C675 C189 1.619 . S
C680 C217 1.619 . S
C705 C73 1.369 . S
C710 C3 1.369 1_565 S
C735 C17 1.369 . S
C740 C87 1.369 1_565 S
C765 C31 1.369 1_545 S
C770 C101 1.369 . S
C795 C59 1.369 1_545 S
C800 C45 1.369 . S
C825 C65 1.115 . S
C830 C149 1.115 . S
C855 C37 1.115 . S
C860 C121 1.115 . S
C885 C163 1.115 . S
C890 C93 1.115 . S
C915 C135 1.115 . S
C920 C9 1.115 . S
C945 C115 1.369 . S
C950 C171 1.369 . S
C975 C143 1.369 . S
C980 C213 1.369 . S
C1005 C185 1.369 . S
C1010 C129 1.369 . S
C1035 C157 1.369 . S
C1040 C199 1.369 . S
C1065 C205 1.115 . S
C1070 C23 1.115 . S
C1095 C191 1.115 . S
C1100 C79 1.115 . S
C1125 C219 1.115 . S
C1130 C51 1.115 . S
C1155 C177 1.115 . S
C1160 C107 1.115 . S
