# Generated by pormake.
# Topology sxa, (6)-cn, num edge types: 1
# Building blocks:
#     Node 0, Type 0, BuildingBlock: VOLQOD_clean_sbu_1, # of connection points: 6
#     Node 1, Type 0, BuildingBlock: VOLQOD_clean_sbu_1, # of connection points: 6
#     Node 2, Type 0, BuildingBlock: VOLQOD_clean_sbu_1, # of connection points: 6
#     Node 3, Type 0, BuildingBlock: VOLQOD_clean_sbu_1, # of connection points: 6
#     Edge 4, Type (0, 0), BuildingBlock: XUDNAN_clean_linker_2, # of connection points: 2
#     Edge 5, Type (0, 0), BuildingBlock: XUDNAN_clean_linker_2, # of connection points: 2
#     Edge 6, Type (0, 0), BuildingBlock: XUDNAN_clean_linker_2, # of connection points: 2
#     Edge 7, Type (0, 0), BuildingBlock: XUDNAN_clean_linker_2, # of connection points: 2
#     Edge 8, Type (0, 0), BuildingBlock: XUDNAN_clean_linker_2, # of connection points: 2
#     Edge 9, Type (0, 0), BuildingBlock: XUDNAN_clean_linker_2, # of connection points: 2
#     Edge 10, Type (0, 0), BuildingBlock: XUDNAN_clean_linker_2, # of connection points: 2
#     Edge 11, Type (0, 0), BuildingBlock: XUDNAN_clean_linker_2, # of connection points: 2
#     Edge 12, Type (0, 0), BuildingBlock: XUDNAN_clean_linker_2, # of connection points: 2
#     Edge 13, Type (0, 0), BuildingBlock: XUDNAN_clean_linker_2, # of connection points: 2
#     Edge 14, Type (0, 0), BuildingBlock: XUDNAN_clean_linker_2, # of connection points: 2
#     Edge 15, Type (0, 0), BuildingBlock: XUDNAN_clean_linker_2, # of connection points: 2
# Relax obj value: 0.229
# Max RMSD: 0.203
# Mean RMSD: 0.203
data_MOF--net-sxa--node1-VOLQOD_clean_sbu_1--edge1-XUDNAN_clean_linker_2
_symmetry_space_group_name_H-M    P1
_symmetry_Int_Tables_number       1
_symmetry_cell_setting            triclinic
loop_
_symmetry_equiv_pos_as_xyz
'x, y, z'
_cell_length_a     25.260698
_cell_length_b     29.675022
_cell_length_c     17.931734
_cell_angle_alpha  90.123035
_cell_angle_beta   91.001742
_cell_angle_gamma 90.430075
loop_
_atom_site_label
_atom_site_type_symbol
_atom_site_fract_x
_atom_site_fract_y
_atom_site_fract_z
_atom_type_partial_charge
O0 O 0.9796 0.7407 0.40225 0.0
Zn1 Zn 0.03427 0.72531 0.32172 0.0
O2 O 0.02469 0.77165 0.24967 0.0
Zn3 Zn 0.98333 0.74991 0.16647 0.0
Zn4 Zn -0.00815 0.82436 0.28868 0.0
Zn5 Zn 0.09072 0.78714 0.2107 0.0
O6 O 0.01623 0.77325 0.07192 0.0
O7 O 0.09609 0.75396 0.1144 0.0
O8 O 0.0288 0.66378 0.26581 0.0
O9 O -0.00974 0.68335 0.15835 0.0
O10 O 0.90699 0.7652 0.18113 0.0
O11 O 0.91531 0.82254 0.2608 0.0
O12 O 0.02221 0.88241 0.2401 0.0
O13 O 0.10962 0.72989 0.36513 0.0
O14 O 0.08943 0.85179 0.18072 0.0
O15 O 0.1506 0.77447 0.28435 0.0
C16 C 0.97022 0.77958 0.43081 0.0
C17 C 0.06415 0.76225 0.06028 0.0
C18 C 0.88697 0.79597 0.22117 0.0
C19 C 0.01072 0.65364 0.20055 0.0
C20 C 0.06041 0.88562 0.19425 0.0
C21 C 0.15117 0.75063 0.3435 0.0
O22 O -0.01261 0.81609 0.401 0.0
O23 O 0.49612 0.25253 0.38017 0.0
Zn24 Zn 0.54482 0.25447 0.29018 0.0
O25 O 0.53005 0.31145 0.24417 0.0
Zn26 Zn 0.48652 0.30397 0.15544 0.0
Zn27 Zn 0.49513 0.35108 0.31203 0.0
Zn28 Zn 0.59428 0.34047 0.21776 0.0
O29 O 0.52333 0.32779 0.06473 0.0
O30 O 0.60584 0.32607 0.11143 0.0
O31 O 0.53023 0.20222 0.21453 0.0
O32 O 0.48047 0.23852 0.13117 0.0
O33 O 0.4125 0.3275 0.17038 0.0
O34 O 0.4187 0.34928 0.28893 0.0
O35 O 0.51587 0.41688 0.29005 0.0
O36 O 0.62209 0.25437 0.32564 0.0
O37 O 0.58445 0.40724 0.21619 0.0
O38 O 0.65524 0.31931 0.28395 0.0
C39 C 0.48217 0.28286 0.42687 0.0
C40 C 0.57332 0.32792 0.05636 0.0
C41 C 0.39163 0.34163 0.2302 0.0
C42 C 0.50163 0.20238 0.15481 0.0
C43 C 0.55035 0.43282 0.24542 0.0
C44 C 0.66019 0.28283 0.32108 0.0
O45 O 0.49339 0.32455 0.41625 0.0
O46 O 0.1265 0.23518 0.71958 0.0
Zn47 Zn 0.05137 0.22912 0.75898 0.0
O48 O 0.03705 0.27804 0.82548 0.0
Zn49 Zn 0.00092 0.25519 0.91146 0.0
Zn50 Zn 0.10227 0.3046 0.85779 0.0
Zn51 Zn -0.00634 0.32476 0.7815 0.0
O52 O 0.92231 0.26281 0.89917 0.0
O53 O 0.91942 0.31726 0.81441 0.0
O54 O 0.04712 0.16833 0.81629 0.0
O55 O 0.01487 0.18979 0.92509 0.0
O56 O 0.03087 0.28639 1.0024 0.0
O57 O 0.11431 0.28607 0.96342 0.0
O58 O 0.09444 0.37111 0.86942 0.0
O59 O -0.00243 0.23691 0.6736 0.0
O60 O 0.01607 0.38801 0.81996 0.0
O61 O 0.9844 0.31149 0.67075 0.0
C62 C 0.16607 0.26041 0.73695 0.0
C63 C 0.89651 0.29019 0.8582 0.0
C64 C 0.08045 0.29055 1.01493 0.0
C65 C 0.03289 0.15926 0.88293 0.0
C66 C 0.05801 0.39954 0.85641 0.0
C67 C 0.9778 0.27204 0.64241 0.0
O68 O 0.16332 0.28944 0.78937 0.0
O69 O 0.62577 0.76604 0.74276 0.0
Zn70 Zn 0.54943 0.75589 0.78102 0.0
O71 O 0.52634 0.80998 0.83263 0.0
Zn72 Zn 0.48752 0.79465 0.92011 0.0
Zn73 Zn 0.58615 0.84465 0.86401 0.0
Zn74 Zn 0.48135 0.84799 0.77064 0.0
O75 O 0.4099 0.8028 0.9046 0.0
O76 O 0.40531 0.83974 0.79732 0.0
O77 O 0.54441 0.69905 0.85197 0.0
O78 O 0.49647 0.73029 0.94045 0.0
O79 O 0.51694 0.82417 1.01282 0.0
O80 O 0.59906 0.83369 0.97189 0.0
O81 O 0.56893 0.91023 0.86288 0.0
O82 O 0.49687 0.7515 0.69277 0.0
O83 O 0.49629 0.91508 0.79217 0.0
O84 O 0.47951 0.82339 0.66499 0.0
C85 C 0.6599 0.79728 0.75668 0.0
C86 C 0.38315 0.82061 0.85183 0.0
C87 C 0.56592 0.8322 1.02467 0.0
C88 C 0.51936 0.69621 0.91348 0.0
C89 C 0.53154 0.93344 0.8347 0.0
C90 C 0.47511 0.78118 0.65045 0.0
O91 O 0.64963 0.82927 0.80191 0.0
H92 H 0.97723 0.4589 0.89194 0.0
H93 H 0.14634 0.43797 0.91913 0.0
H94 H 0.15042 0.49673 1.01604 0.0
H95 H 0.9865 0.58374 0.92049 0.0
H96 H 0.92392 0.58559 0.96714 0.0
H97 H 0.93508 0.54349 0.89672 0.0
H98 H 0.91049 0.48145 0.99167 0.0
H99 H 0.90093 0.52327 0.06305 0.0
H100 H 0.94682 0.47792 0.07888 0.0
H101 H 0.13399 0.5485 0.12472 0.0
H102 H 0.10382 0.60835 0.20995 0.0
H103 H 0.94781 0.60265 0.1055 0.0
C104 C 0.01535 0.46748 0.91683 0.0
C105 C 0.06137 0.44302 0.89839 0.0
C106 C 0.11035 0.45549 0.93287 0.0
C107 C 0.11303 0.48858 0.98874 0.0
C108 C 0.06652 0.50971 1.00932 0.0
C109 C 0.01898 0.50117 0.97236 0.0
C110 C 0.97544 0.5305 1.00353 0.0
C111 C 0.95398 0.56275 0.9434 0.0
C112 C 0.93079 0.50154 1.0362 0.0
C113 C 0.00578 0.55592 0.06464 0.0
C114 C 0.05801 0.5426 0.06801 0.0
C115 C 0.09336 0.55978 0.12182 0.0
C116 C 0.07565 0.59324 0.17092 0.0
C117 C 0.02339 0.60988 0.16499 0.0
C118 C -0.01216 0.59024 0.1119 0.0
H119 H 0.61422 0.47726 0.14473 0.0
H120 H 0.46801 0.4908 0.26671 0.0
H121 H 0.44422 0.55632 0.18946 0.0
H122 H 0.63792 0.60019 0.12061 0.0
H123 H 0.66451 0.59297 1.02875 0.0
H124 H 0.672 0.54903 0.09725 0.0
H125 H 0.62805 0.49243 1.00483 0.0
H126 H 0.61911 0.53639 0.93674 0.0
H127 H 0.56292 0.50393 0.96718 0.0
H128 H 0.4307 0.61364 0.09144 0.0
H129 H 0.43566 0.67161 0.99475 0.0
H130 H 0.59277 0.62628 0.93653 0.0
C131 C 0.57786 0.49473 0.15675 0.0
C132 C 0.54303 0.47858 0.21245 0.0
C133 C 0.49566 0.50239 0.22531 0.0
C134 C 0.48149 0.53946 0.181 0.0
C135 C 0.51534 0.55291 0.12444 0.0
C136 C 0.56326 0.53226 0.11336 0.0
C137 C 0.59218 0.55396 0.04844 0.0
C138 C 0.64477 0.57532 0.07538 0.0
C139 C 0.60108 0.51962 0.9856 0.0
C140 C 0.55259 0.58979 1.0243 0.0
C141 C 0.50835 0.58777 0.06869 0.0
C142 C 0.46549 0.61607 0.05726 0.0
C143 C 0.46871 0.64883 1.00167 0.0
C144 C 0.51477 0.65399 0.95806 0.0
C145 C 0.55688 0.6231 0.96826 0.0
H146 H 0.59082 0.97743 0.94317 0.0
H147 H 0.45178 0.99303 0.79981 0.0
H148 H 0.42859 0.06202 0.86898 0.0
H149 H 0.53111 1.00935 0.11013 0.0
H150 H 0.58778 1.03929 0.14822 0.0
H151 H 0.59696 0.99359 0.0836 0.0
H152 H 0.65017 0.04589 0.99667 0.0
H153 H 0.6423 0.09155 0.06181 0.0
H154 H 0.62158 0.09828 0.96581 0.0
H155 H 0.4169 0.12587 0.95899 0.0
H156 H 0.42205 0.18533 0.05464 0.0
H157 H 0.56824 0.12847 0.14213 0.0
C158 C 0.55616 0.99586 0.9248 0.0
C159 C 0.52333 0.97967 0.86521 0.0
C160 C 0.47791 1.00472 0.84443 0.0
C161 C 0.46418 1.04383 0.88388 0.0
C162 C 0.49623 0.0576 0.94407 0.0
C163 C 0.54173 1.0348 0.96379 0.0
C164 C 0.56855 0.05607 1.03204 0.0
C165 C 0.57124 1.02257 0.09734 0.0
C166 C 0.62393 0.07402 1.01292 0.0
C167 C 0.53075 0.09432 0.04807 0.0
C168 C 0.4893 0.09437 0.99658 0.0
C169 C 0.44934 0.12628 0.99922 0.0
C170 C 0.45258 0.15989 0.05417 0.0
C171 C 0.49548 0.16171 0.10636 0.0
C172 C 0.53458 0.12777 0.10394 0.0
H173 H 0.00422 0.96638 0.19387 0.0
H174 H 0.13083 0.89632 0.08181 0.0
H175 H 0.13478 0.95639 0.98847 0.0
H176 H 0.93844 1.00721 1.03095 0.0
H177 H 0.92273 0.06162 0.06918 0.0
H178 H 0.93011 1.01377 0.13003 0.0
H179 H 0.00171 0.05659 0.20802 0.0
H180 H -0.00611 0.10482 0.14811 0.0
H181 H 0.05835 0.08026 0.16199 0.0
H182 H 0.12161 1.02153 0.90087 0.0
H183 H 0.10003 0.09279 0.83602 0.0
H184 H 0.98535 0.12312 1.00613 0.0
C185 C 0.03343 0.96408 0.15059 0.0
C186 C 0.06717 0.92625 0.14599 0.0
C187 C 0.10452 0.92472 0.08758 0.0
C188 C 0.10698 0.95868 1.03356 0.0
C189 C 0.07238 0.99471 0.0385 0.0
C190 C 0.03702 0.99823 0.09627 0.0
C191 C 0.00489 1.0411 0.08868 0.0
C192 C 0.94552 1.03025 0.07914 0.0
C193 C 0.01535 0.07256 0.15568 0.0
C194 C 0.02744 0.06064 1.01751 0.0
C195 C 0.06593 1.03309 0.98903 0.0
C196 C 0.09178 1.04361 0.92297 0.0
C197 C 0.07898 0.084 0.88609 0.0
C198 C 0.04109 0.1137 0.91574 0.0
C199 C 0.01464 0.10129 0.98193 0.0
H200 H 0.41851 0.83321 0.5494 0.0
H201 H 0.4389 0.69521 0.62427 0.0
H202 H 0.36057 0.67209 0.54967 0.0
H203 H 0.28147 0.8355 0.55619 0.0
H204 H 0.27101 0.86846 0.47297 0.0
H205 H 0.33209 0.87402 0.52547 0.0
H206 H 0.3856 0.85468 0.40792 0.0
H207 H 0.32468 0.84979 0.35455 0.0
H208 H 0.37062 0.8036 0.35693 0.0
H209 H 0.27239 0.66595 0.48306 0.0
H210 H 0.18799 0.67515 0.41281 0.0
H211 H 0.22734 0.81536 0.37253 0.0
C212 C 0.4075 0.79788 0.5485 0.0
C213 C 0.43528 0.76612 0.59304 0.0
C214 C 0.41884 0.7203 0.59058 0.0
C215 C 0.37406 0.70678 0.54856 0.0
C216 C 0.34641 0.73922 0.50791 0.0
C217 C 0.36319 0.78362 0.50592 0.0
C218 C 0.32536 0.81195 0.45923 0.0
C219 C 0.30106 0.8497 0.5063 0.0
C220 C 0.35323 0.83113 0.39057 0.0
C221 C 0.28404 0.77678 0.43696 0.0
C222 C 0.29676 0.73511 0.46622 0.0
C223 C 0.26262 0.69817 0.45846 0.0
C224 C 0.21461 0.70376 0.41897 0.0
C225 C 0.20146 0.74576 0.38658 0.0
C226 C 0.23687 0.78264 0.39554 0.0
H227 H 0.23861 0.32591 0.69794 0.0
H228 H 0.20672 0.18236 0.68301 0.0
H229 H 0.28982 0.17191 0.61456 0.0
H230 H 0.28686 0.33546 0.51238 0.0
H231 H 0.336 0.37784 0.53531 0.0
H232 H 0.27687 0.37339 0.58948 0.0
H233 H 0.33441 0.36496 0.70971 0.0
H234 H 0.39372 0.36892 0.65557 0.0
H235 H 0.38314 0.32095 0.71513 0.0
H236 H 0.37489 0.177 0.54495 0.0
H237 H 0.44999 0.19793 0.46612 0.0
H238 H 0.42523 0.33904 0.51891 0.0
C239 C 0.24962 0.29224 0.6811 0.0
C240 C 0.21649 0.25481 0.69655 0.0
C241 C 0.23151 0.21145 0.67194 0.0
C242 C 0.27882 0.20516 0.63343 0.0
C243 C 0.31054 0.24267 0.61884 0.0
C244 C 0.29626 0.28549 0.64092 0.0
C245 C 0.33508 0.32048 0.61211 0.0
C246 C 0.30702 0.35374 0.55918 0.0
C247 C 0.36326 0.34529 0.67701 0.0
C248 C 0.37325 0.29066 0.5703 0.0
C249 C 0.35872 0.24584 0.57596 0.0
C250 C 0.38671 0.212 0.5403 0.0
C251 C 0.42958 0.22429 0.4957 0.0
C252 C 0.44404 0.27018 0.48613 0.0
C253 C 0.41597 0.30362 0.52563 0.0
H254 H 0.91874 0.33705 0.56953 0.0
H255 H 0.94776 0.19297 0.57393 0.0
H256 H 0.873 0.18079 0.48607 0.0
H257 H 0.78168 0.3306 0.56952 0.0
H258 H 0.77008 0.37698 0.50672 0.0
H259 H 0.82975 0.37557 0.56293 0.0
H260 H 0.88652 0.38217 0.44452 0.0
H261 H 0.82697 0.38423 0.38781 0.0
H262 H 0.87647 0.34242 0.36933 0.0
H263 H 0.78767 0.18292 0.41255 0.0
H264 H 0.70349 0.20025 0.34676 0.0
H265 H 0.73163 0.343 0.38365 0.0
C266 C 0.91042 0.30301 0.55047 0.0
C267 C 0.93952 0.26598 0.57892 0.0
C268 C 0.92651 0.22198 0.55306 0.0
C269 C 0.88389 0.21468 0.50315 0.0
C270 C 0.85488 0.25168 0.47853 0.0
C271 C 0.86815 0.2951 0.50013 0.0
C272 C 0.82895 0.32876 0.46805 0.0
C273 C 0.80097 0.35448 0.53053 0.0
C274 C 0.85637 0.36132 0.41421 0.0
C275 C 0.79087 0.29736 0.42667 0.0
C276 C 0.80651 0.25301 0.4337 0.0
C277 C 0.77562 0.21758 0.40535 0.0
C278 C 0.72771 0.22772 0.36847 0.0
C279 C 0.71132 0.27294 0.35936 0.0
C280 C 0.74367 0.30815 0.38847 0.0
H281 H 0.88098 0.72872 0.45816 0.0
H282 H 0.97415 0.84142 0.54353 0.0
H283 H 0.9073 0.85477 0.63999 0.0
H284 H 0.75712 0.7821 0.47688 0.0
H285 H 0.72114 0.732 0.50273 0.0
H286 H 0.77891 0.72761 0.4458 0.0
H287 H 0.82139 0.67269 0.54119 0.0
H288 H 0.76357 0.67665 0.59826 0.0
H289 H 0.82812 0.68936 0.63765 0.0
H290 H 0.82868 0.85889 0.72217 0.0
H291 H 0.7429 0.85482 0.78432 0.0
H292 H 0.69674 0.74105 0.64409 0.0
C293 C 0.88798 0.75535 0.49861 0.0
C294 C 0.93346 0.78349 0.49437 0.0
C295 C 0.94009 0.81913 0.54637 0.0
C296 C 0.90226 0.82697 0.60129 0.0
C297 C 0.85743 0.79926 0.60311 0.0
C298 C 0.84995 0.76419 0.55315 0.0
C299 C 0.79622 0.74175 0.56389 0.0
C300 C 0.76129 0.74614 0.49313 0.0
C301 C 0.80273 0.69216 0.58661 0.0
C302 C 0.7747 0.76971 0.62767 0.0
C303 C 0.81097 0.80249 0.64946 0.0
C304 C 0.8001 0.8332 0.70582 0.0
C305 C 0.75095 0.8306 0.74079 0.0
C306 C 0.71256 0.79758 0.71957 0.0
C307 C 0.72506 0.76654 0.66223 0.0
H308 H 0.33008 0.7454 0.88842 0.0
H309 H 0.3075 0.88215 0.81158 0.0
H310 H 0.21033 0.87266 0.82294 0.0
H311 H 0.19978 0.69789 0.80263 0.0
H312 H 0.1925 0.661 0.88157 0.0
H313 H 0.2576 0.67479 0.84827 0.0
H314 H 0.2857 0.7031 0.9803 0.0
H315 H 0.22153 0.68863 1.0136 0.0
H316 H 0.24635 0.7454 1.02518 0.0
H317 H 0.12175 0.85515 0.87444 0.0
H318 H 0.05356 0.83289 0.96445 0.0
H319 H 0.13145 0.70518 0.99779 0.0
C320 C 0.30435 0.77287 0.87224 0.0
C321 C 0.32554 0.8146 0.85031 0.0
C322 C 0.29144 0.84994 0.8288 0.0
C323 C 0.23637 0.84461 0.83433 0.0
C324 C 0.21647 0.80323 0.8587 0.0
C325 C 0.24963 0.76765 0.87589 0.0
C326 C 0.22002 0.72894 0.91071 0.0
C327 C 0.21731 0.68826 0.85759 0.0
C328 C 0.24483 0.71586 0.98692 0.0
C329 C 0.16621 0.75012 0.91841 0.0
C330 C 0.1641 0.79233 0.88551 0.0
C331 C 0.12196 0.82153 0.8977 0.0
C332 C 0.0831 0.80856 0.94852 0.0
C333 C 0.08748 0.76713 0.98665 0.0
C334 C 0.12707 0.73647 0.96734 0.0
H335 H 0.12579 0.37032 1.0355 0.0
H336 H 0.08339 0.24764 0.14923 0.0
H337 H 0.14766 0.2659 0.25026 0.0
H338 H 0.24394 0.35796 1.0352 0.0
H339 H 0.27015 0.41375 0.05308 0.0
H340 H 0.20481 0.40727 1.01542 0.0
H341 H 0.16447 0.4519 0.12632 0.0
H342 H 0.23148 0.46116 0.15977 0.0
H343 H 0.18272 0.43693 0.22029 0.0
H344 H 0.23372 0.28058 0.30841 0.0
H345 H 0.33099 0.28863 0.31588 0.0
H346 H 0.3248 0.39698 0.15541 0.0
C347 C 0.12795 0.34922 0.08466 0.0
C348 C 0.10006 0.30814 0.08616 0.0
C349 C 0.10401 0.27978 0.14874 0.0
C350 C 0.14041 0.29009 0.20625 0.0
C351 C 0.17201 0.32876 0.19963 0.0
C352 C 0.16513 0.35869 0.14092 0.0
C353 C 0.21182 0.39069 0.13469 0.0
C354 C 0.23396 0.39235 0.05496 0.0
C355 C 0.19678 0.43798 0.16188 0.0
C356 C 0.24975 0.3689 0.18923 0.0
C357 C 0.22479 0.33572 0.2305 0.0
C358 C 0.25318 0.3073 0.27809 0.0
C359 C 0.30831 0.31171 0.2814 0.0
C360 C 0.33422 0.34312 0.23538 0.0
C361 C 0.3049 0.37298 0.19088 0.0
H362 H 0.63159 0.38866 0.98277 0.0
H363 H 0.56948 0.25279 0.97272 0.0
H364 H 0.64088 0.23104 0.88857 0.0
H365 H 0.69686 0.38519 0.77936 0.0
H366 H 0.75055 0.41944 0.81596 0.0
H367 H 0.68391 0.42864 0.84692 0.0
H368 H 0.71706 0.41961 0.98302 0.0
H369 H 0.78292 0.40839 0.95346 0.0
H370 H 0.74909 0.368 1.01095 0.0
H371 H 0.73294 0.21752 0.85731 0.0
H372 H 0.83067 0.21736 0.85123 0.0
H373 H 0.83335 0.3628 0.86971 0.0
C374 C 0.63097 0.35547 0.9575 0.0
C375 C 0.59529 0.32248 0.98243 0.0
C376 C 0.596 0.27862 0.9521 0.0
C377 C 0.63669 0.26598 0.90468 0.0
C378 C 0.67502 0.29811 0.88694 0.0
C379 C 0.6711 0.34273 0.90929 0.0
C380 C 0.7216 0.3687 0.89396 0.0
C381 C 0.71269 0.40248 0.83022 0.0
C382 C 0.74392 0.39247 0.96456 0.0
C383 C 0.75664 0.33055 0.8696 0.0
C384 C 0.72883 0.29025 0.86431 0.0
C385 C 0.75469 0.24908 0.85737 0.0
C386 C 0.81008 0.24915 0.85529 0.0
C387 C 0.83868 0.29013 0.85936 0.0
C388 C 0.8117 0.33125 0.86468 0.0
H389 H 0.82867 0.87099 0.20197 0.0
H390 H 0.81731 0.72853 0.24979 0.0
H391 H 0.71982 0.73366 0.25076 0.0
H392 H 0.6954 0.90677 0.29328 0.0
H393 H 0.68317 0.94546 0.21767 0.0
H394 H 0.75 0.93582 0.25074 0.0
H395 H 0.77806 0.91415 0.11694 0.0
H396 H 0.71223 0.92495 0.08421 0.0
H397 H 0.74153 0.87067 0.06736 0.0
H398 H 0.62846 0.74833 0.21696 0.0
H399 H 0.55818 0.76488 0.12469 0.0
H400 H 0.62624 0.89675 0.08831 0.0
C401 C 0.80521 0.84145 0.21512 0.0
C402 C 0.82953 0.79951 0.22588 0.0
C403 C 0.79868 0.76091 0.24103 0.0
C404 C 0.74348 0.76379 0.24316 0.0
C405 C 0.71994 0.80545 0.22936 0.0
C406 C 0.75 0.84363 0.21484 0.0
C407 C 0.71625 0.88101 0.18286 0.0
C408 C 0.71089 0.91953 0.23955 0.0
C409 C 0.73829 0.8986 0.10844 0.0
C410 C 0.6642 0.85598 0.17252 0.0
C411 C 0.66597 0.81367 0.20518 0.0
C412 C 0.6259 0.7817 0.19302 0.0
C413 C 0.58583 0.79141 0.14083 0.0
C414 C 0.58742 0.83214 0.10061 0.0
C415 C 0.62426 0.86597 0.12051 0.0
loop_
_geom_bond_atom_site_label_1
_geom_bond_atom_site_label_2
_geom_bond_distance
_geom_bond_site_symmetry_2
_ccdc_geom_bond_type
O0 Zn1 1.953 1_655 S
O0 C16 1.225 . S
Zn1 O0 1.953 1_455 S
Zn1 O2 1.949 . S
Zn1 O8 1.919 . S
Zn1 O13 1.924 . S
O2 Zn1 1.949 . S
O2 Zn3 1.923 . S
O2 Zn4 1.950 1_455 S
O2 Zn5 1.945 . S
Zn3 O2 1.923 . S
Zn3 O6 1.933 . S
Zn3 O9 1.941 . S
Zn3 O10 1.965 1_455 S
Zn4 O2 1.950 1_655 S
Zn4 O11 1.938 . S
Zn4 O12 1.906 1_655 S
Zn4 O22 1.953 . S
Zn5 O2 1.945 . S
Zn5 O7 1.932 . S
Zn5 O14 1.977 . S
Zn5 O15 1.910 . S
O6 Zn3 1.933 . S
O6 C17 1.226 . S
O7 Zn5 1.932 . S
O7 C17 1.307 . S
O8 Zn1 1.919 . S
O8 C19 1.253 . S
O9 Zn3 1.941 . S
O9 C19 1.283 . S
O10 Zn3 1.965 1_655 S
O10 C18 1.303 . S
O11 Zn4 1.938 . S
O11 C18 1.247 . S
O12 Zn4 1.906 1_455 S
O12 C20 1.303 . S
O13 Zn1 1.924 . S
O13 C21 1.311 . S
O14 Zn5 1.977 . S
O14 C20 1.272 . S
O15 Zn5 1.910 . S
O15 C21 1.231 . S
C16 O0 1.225 . S
C16 O22 1.298 . S
C17 O6 1.226 . S
C17 O7 1.307 . S
C18 O10 1.303 . S
C18 O11 1.247 . S
C19 O8 1.253 . S
C19 O9 1.283 . S
C20 O12 1.303 . S
C20 O14 1.272 . S
C21 O13 1.311 . S
C21 O15 1.231 . S
O22 Zn4 1.953 . S
O22 C16 1.298 . S
O23 Zn24 1.953 . S
O23 C39 1.225 . S
Zn24 O23 1.953 . S
Zn24 O25 1.949 . S
Zn24 O31 1.919 . S
Zn24 O36 1.924 . S
O25 Zn24 1.949 . S
O25 Zn26 1.923 . S
O25 Zn27 1.950 . S
O25 Zn28 1.945 . S
Zn26 O25 1.923 . S
Zn26 O29 1.933 . S
Zn26 O32 1.941 . S
Zn26 O33 1.965 . S
Zn27 O25 1.950 . S
Zn27 O34 1.938 . S
Zn27 O35 1.906 . S
Zn27 O45 1.953 . S
Zn28 O25 1.945 . S
Zn28 O30 1.932 . S
Zn28 O37 1.977 . S
Zn28 O38 1.910 . S
O29 Zn26 1.933 . S
O29 C40 1.226 . S
O30 Zn28 1.932 . S
O30 C40 1.307 . S
O31 Zn24 1.919 . S
O31 C42 1.253 . S
O32 Zn26 1.941 . S
O32 C42 1.283 . S
O33 Zn26 1.965 . S
O33 C41 1.303 . S
O34 Zn27 1.938 . S
O34 C41 1.247 . S
O35 Zn27 1.906 . S
O35 C43 1.304 . S
O36 Zn24 1.924 . S
O36 C44 1.311 . S
O37 Zn28 1.977 . S
O37 C43 1.272 . S
O38 Zn28 1.910 . S
O38 C44 1.231 . S
C39 O23 1.225 . S
C39 O45 1.298 . S
C40 O29 1.226 . S
C40 O30 1.307 . S
C41 O33 1.303 . S
C41 O34 1.247 . S
C42 O31 1.253 . S
C42 O32 1.283 . S
C43 O35 1.304 . S
C43 O37 1.272 . S
C44 O36 1.311 . S
C44 O38 1.231 . S
O45 Zn27 1.953 . S
O45 C39 1.298 . S
O46 Zn47 1.953 . S
O46 C62 1.225 . S
Zn47 O46 1.953 . S
Zn47 O48 1.949 . S
Zn47 O54 1.919 . S
Zn47 O59 1.924 1_455 S
O48 Zn47 1.949 . S
O48 Zn49 1.923 . S
O48 Zn50 1.950 . S
O48 Zn51 1.945 1_455 S
Zn49 O48 1.923 . S
Zn49 O52 1.933 1_455 S
Zn49 O55 1.941 . S
Zn49 O56 1.965 . S
Zn50 O48 1.950 . S
Zn50 O57 1.938 . S
Zn50 O58 1.906 . S
Zn50 O68 1.953 . S
Zn51 O48 1.945 1_655 S
Zn51 O53 1.932 . S
Zn51 O60 1.977 . S
Zn51 O61 1.910 . S
O52 Zn49 1.933 1_655 S
O52 C63 1.226 . S
O53 Zn51 1.932 . S
O53 C63 1.307 . S
O54 Zn47 1.919 . S
O54 C65 1.253 . S
O55 Zn49 1.941 . S
O55 C65 1.283 . S
O56 Zn49 1.965 . S
O56 C64 1.303 . S
O57 Zn50 1.938 . S
O57 C64 1.247 . S
O58 Zn50 1.906 . S
O58 C66 1.304 . S
O59 Zn47 1.924 1_655 S
O59 C67 1.311 . S
O60 Zn51 1.977 . S
O60 C66 1.272 1_655 S
O61 Zn51 1.910 . S
O61 C67 1.231 . S
C62 O46 1.225 . S
C62 O68 1.298 . S
C63 O52 1.226 . S
C63 O53 1.307 . S
C64 O56 1.303 . S
C64 O57 1.247 . S
C65 O54 1.253 . S
C65 O55 1.283 . S
C66 O58 1.304 . S
C66 O60 1.272 1_455 S
C67 O59 1.311 . S
C67 O61 1.231 . S
O68 Zn50 1.953 . S
O68 C62 1.298 . S
O69 Zn70 1.953 . S
O69 C85 1.225 . S
Zn70 O69 1.953 . S
Zn70 O71 1.949 . S
Zn70 O77 1.919 . S
Zn70 O82 1.924 . S
O71 Zn70 1.949 . S
O71 Zn72 1.923 . S
O71 Zn73 1.950 . S
O71 Zn74 1.945 . S
Zn72 O71 1.923 . S
Zn72 O75 1.933 . S
Zn72 O78 1.941 . S
Zn72 O79 1.965 . S
Zn73 O71 1.950 . S
Zn73 O80 1.938 . S
Zn73 O81 1.906 . S
Zn73 O91 1.953 . S
Zn74 O71 1.945 . S
Zn74 O76 1.932 . S
Zn74 O83 1.977 . S
Zn74 O84 1.910 . S
O75 Zn72 1.933 . S
O75 C86 1.226 . S
O76 Zn74 1.932 . S
O76 C86 1.307 . S
O77 Zn70 1.919 . S
O77 C88 1.253 . S
O78 Zn72 1.941 . S
O78 C88 1.283 . S
O79 Zn72 1.965 . S
O79 C87 1.303 . S
O80 Zn73 1.938 . S
O80 C87 1.247 . S
O81 Zn73 1.906 . S
O81 C89 1.304 . S
O82 Zn70 1.924 . S
O82 C90 1.311 . S
O83 Zn74 1.977 . S
O83 C89 1.272 . S
O84 Zn74 1.910 . S
O84 C90 1.231 . S
C85 O69 1.225 . S
C85 O91 1.298 . S
C86 O75 1.226 . S
C86 O76 1.307 . S
C87 O79 1.303 . S
C87 O80 1.247 . S
C88 O77 1.253 . S
C88 O78 1.283 . S
C89 O81 1.304 . S
C89 O83 1.272 . S
C90 O82 1.311 . S
C90 O84 1.231 . S
O91 Zn73 1.953 . S
O91 C85 1.298 . S
H92 C104 0.930 . S
H93 C106 0.930 . S
H94 C107 0.930 . S
H95 C111 0.959 . S
H96 C111 0.959 . S
H97 C111 0.961 . S
H98 C112 0.960 . S
H99 C112 0.961 . S
H100 C112 0.959 . S
H101 C115 0.929 . S
H102 C116 0.931 . S
H103 C118 0.930 . S
C104 H92 0.930 . S
C104 C105 1.399 . S
C104 C109 1.399 . S
C105 C104 1.399 . S
C105 C106 1.376 . S
C106 H93 0.930 . S
C106 C105 1.376 . S
C106 C107 1.388 . S
C107 H94 0.930 . S
C107 C106 1.388 . S
C107 C108 1.390 . S
C108 C107 1.390 . S
C108 C109 1.394 . S
C108 C114 1.465 . S
C109 C104 1.399 . S
C109 C108 1.394 . S
C109 C110 1.516 1_556 S
C110 C109 1.516 1_554 S
C110 C111 1.502 1_455 S
C110 C112 1.561 . S
C110 C113 1.526 . S
C111 H95 0.959 . S
C111 H96 0.959 . S
C111 H97 0.961 . S
C111 C110 1.502 1_655 S
C112 H98 0.960 . S
C112 H99 0.961 . S
C112 H100 0.959 . S
C112 C110 1.561 . S
C113 C110 1.526 . S
C113 C114 1.396 1_554 S
C113 C118 1.390 . S
C114 C108 1.465 . S
C114 C113 1.396 1_556 S
C114 C115 1.399 . S
C115 H101 0.929 . S
C115 C114 1.399 . S
C115 C116 1.385 1_556 S
C116 H102 0.931 . S
C116 C115 1.385 1_554 S
C116 C117 1.389 . S
C117 C116 1.389 . S
C117 C118 1.387 . S
C118 H103 0.930 . S
C118 C113 1.390 . S
C118 C117 1.387 . S
H119 C131 0.930 . S
H120 C133 0.930 . S
H121 C134 0.930 . S
H122 C138 0.959 . S
H123 C138 0.959 1_556 S
H124 C138 0.961 . S
H125 C139 0.960 . S
H126 C139 0.961 . S
H127 C139 0.959 . S
H128 C142 0.929 . S
H129 C143 0.931 . S
H130 C145 0.930 . S
C131 H119 0.930 . S
C131 C132 1.399 . S
C131 C136 1.399 . S
C132 C131 1.399 . S
C132 C133 1.376 . S
C133 H120 0.930 . S
C133 C132 1.376 . S
C133 C134 1.388 . S
C134 H121 0.930 . S
C134 C133 1.388 . S
C134 C135 1.390 . S
C135 C134 1.390 . S
C135 C136 1.394 . S
C135 C141 1.465 1_554 S
C136 C131 1.399 . S
C136 C135 1.394 . S
C136 C137 1.516 1_554 S
C137 C136 1.516 1_556 S
C137 C138 1.502 1_556 S
C137 C139 1.561 . S
C137 C140 1.526 . S
C138 H122 0.959 . S
C138 H123 0.959 1_554 S
C138 H124 0.961 . S
C138 C137 1.502 1_554 S
C139 H125 0.960 . S
C139 H126 0.961 . S
C139 H127 0.959 . S
C139 C137 1.561 . S
C140 C137 1.526 . S
C140 C141 1.396 . S
C140 C145 1.390 . S
C141 C135 1.465 1_556 S
C141 C140 1.396 . S
C141 C142 1.399 . S
C142 H128 0.929 . S
C142 C141 1.399 . S
C142 C143 1.385 . S
C143 H129 0.931 . S
C143 C142 1.385 . S
C143 C144 1.389 . S
C144 C143 1.389 . S
C144 C145 1.387 . S
C145 H130 0.930 . S
C145 C140 1.390 . S
C145 C144 1.387 . S
H146 C158 0.930 . S
H147 C160 0.930 . S
H148 C161 0.930 1_545 S
H149 C165 0.959 . S
H150 C165 0.959 . S
H151 C165 0.961 . S
H152 C166 0.960 1_556 S
H153 C166 0.961 1_545 S
H154 C166 0.959 1_546 S
H155 C169 0.929 . S
H156 C170 0.931 . S
H157 C172 0.930 . S
C158 H146 0.930 . S
C158 C159 1.399 . S
C158 C163 1.399 . S
C159 C158 1.399 . S
C159 C160 1.376 . S
C160 H147 0.930 . S
C160 C159 1.376 . S
C160 C161 1.388 . S
C161 H148 0.930 1_565 S
C161 C160 1.388 . S
C161 C162 1.390 . S
C162 C161 1.390 . S
C162 C163 1.394 . S
C162 C168 1.465 1_565 S
C163 C158 1.399 . S
C163 C162 1.394 . S
C163 C164 1.516 1_556 S
C164 C163 1.516 1_554 S
C164 C165 1.502 . S
C164 C166 1.561 . S
C164 C167 1.526 1_565 S
C165 H149 0.959 . S
C165 H150 0.959 . S
C165 H151 0.961 . S
C165 C164 1.502 . S
C166 H152 0.960 1_554 S
C166 H153 0.961 1_565 S
C166 H154 0.959 1_564 S
C166 C164 1.561 . S
C167 C164 1.526 1_545 S
C167 C168 1.396 1_554 S
C167 C172 1.390 . S
C168 C162 1.465 1_545 S
C168 C167 1.396 1_556 S
C168 C169 1.399 . S
C169 H155 0.929 . S
C169 C168 1.399 . S
C169 C170 1.385 1_556 S
C170 H156 0.931 . S
C170 C169 1.385 1_554 S
C170 C171 1.389 . S
C171 C170 1.389 . S
C171 C172 1.387 . S
C172 H157 0.930 . S
C172 C167 1.390 . S
C172 C171 1.387 . S
H173 C185 0.930 . S
H174 C187 0.930 . S
H175 C188 0.930 . S
H176 C192 0.959 . S
H177 C192 0.959 1_455 S
H178 C192 0.961 1_455 S
H179 C193 0.960 . S
H180 C193 0.961 . S
H181 C193 0.959 . S
H182 C196 0.929 1_565 S
H183 C197 0.931 . S
H184 C199 0.930 . S
C185 H173 0.930 . S
C185 C186 1.399 . S
C185 C190 1.399 . S
C186 C185 1.399 . S
C186 C187 1.376 . S
C187 H174 0.930 . S
C187 C186 1.376 . S
C187 C188 1.388 1_554 S
C188 H175 0.930 . S
C188 C187 1.388 1_556 S
C188 C189 1.390 . S
C189 C188 1.390 . S
C189 C190 1.394 1_556 S
C189 C195 1.465 1_565 S
C190 C185 1.399 . S
C190 C189 1.394 1_554 S
C190 C191 1.516 1_565 S
C191 C190 1.516 1_545 S
C191 C192 1.502 1_455 S
C191 C193 1.561 . S
C191 C194 1.526 1_554 S
C192 H176 0.959 . S
C192 H177 0.959 1_655 S
C192 H178 0.961 1_655 S
C192 C191 1.502 1_655 S
C193 H179 0.960 . S
C193 H180 0.961 . S
C193 H181 0.959 . S
C193 C191 1.561 . S
C194 C191 1.526 1_556 S
C194 C195 1.396 . S
C194 C199 1.390 . S
C195 C189 1.465 1_545 S
C195 C194 1.396 . S
C195 C196 1.399 . S
C196 H182 0.929 1_545 S
C196 C195 1.399 . S
C196 C197 1.385 . S
C197 H183 0.931 . S
C197 C196 1.385 . S
C197 C198 1.389 . S
C198 C197 1.389 . S
C198 C199 1.387 . S
C199 H184 0.930 . S
C199 C194 1.390 . S
C199 C198 1.387 . S
H200 C212 0.930 . S
H201 C214 0.930 . S
H202 C215 0.930 . S
H203 C219 0.959 . S
H204 C219 0.959 . S
H205 C219 0.961 . S
H206 C220 0.960 . S
H207 C220 0.961 . S
H208 C220 0.959 . S
H209 C223 0.929 . S
H210 C224 0.931 . S
H211 C226 0.930 . S
C212 H200 0.930 . S
C212 C213 1.399 . S
C212 C217 1.399 . S
C213 C212 1.399 . S
C213 C214 1.376 . S
C214 H201 0.930 . S
C214 C213 1.376 . S
C214 C215 1.388 . S
C215 H202 0.930 . S
C215 C214 1.388 . S
C215 C216 1.390 . S
C216 C215 1.390 . S
C216 C217 1.394 . S
C216 C222 1.465 . S
C217 C212 1.399 . S
C217 C216 1.394 . S
C217 C218 1.516 . S
C218 C217 1.516 . S
C218 C219 1.502 . S
C218 C220 1.561 . S
C218 C221 1.526 . S
C219 H203 0.959 . S
C219 H204 0.959 . S
C219 H205 0.961 . S
C219 C218 1.502 . S
C220 H206 0.960 . S
C220 H207 0.961 . S
C220 H208 0.959 . S
C220 C218 1.561 . S
C221 C218 1.526 . S
C221 C222 1.396 . S
C221 C226 1.390 . S
C222 C216 1.465 . S
C222 C221 1.396 . S
C222 C223 1.399 . S
C223 H209 0.929 . S
C223 C222 1.399 . S
C223 C224 1.385 . S
C224 H210 0.931 . S
C224 C223 1.385 . S
C224 C225 1.389 . S
C225 C224 1.389 . S
C225 C226 1.387 . S
C226 H211 0.930 . S
C226 C221 1.390 . S
C226 C225 1.387 . S
H227 C239 0.930 . S
H228 C241 0.930 . S
H229 C242 0.930 . S
H230 C246 0.959 . S
H231 C246 0.959 . S
H232 C246 0.961 . S
H233 C247 0.960 . S
H234 C247 0.961 . S
H235 C247 0.959 . S
H236 C250 0.929 . S
H237 C251 0.931 . S
H238 C253 0.930 . S
C239 H227 0.930 . S
C239 C240 1.399 . S
C239 C244 1.399 . S
C240 C239 1.399 . S
C240 C241 1.376 . S
C241 H228 0.930 . S
C241 C240 1.376 . S
C241 C242 1.388 . S
C242 H229 0.930 . S
C242 C241 1.388 . S
C242 C243 1.390 . S
C243 C242 1.390 . S
C243 C244 1.394 . S
C243 C249 1.465 . S
C244 C239 1.399 . S
C244 C243 1.394 . S
C244 C245 1.516 . S
C245 C244 1.516 . S
C245 C246 1.502 . S
C245 C247 1.561 . S
C245 C248 1.526 . S
C246 H230 0.959 . S
C246 H231 0.959 . S
C246 H232 0.961 . S
C246 C245 1.502 . S
C247 H233 0.960 . S
C247 H234 0.961 . S
C247 H235 0.959 . S
C247 C245 1.561 . S
C248 C245 1.526 . S
C248 C249 1.396 . S
C248 C253 1.390 . S
C249 C243 1.465 . S
C249 C248 1.396 . S
C249 C250 1.399 . S
C250 H236 0.929 . S
C250 C249 1.399 . S
C250 C251 1.385 . S
C251 H237 0.931 . S
C251 C250 1.385 . S
C251 C252 1.389 . S
C252 C251 1.389 . S
C252 C253 1.387 . S
C253 H238 0.930 . S
C253 C248 1.390 . S
C253 C252 1.387 . S
H254 C266 0.930 . S
H255 C268 0.930 . S
H256 C269 0.930 . S
H257 C273 0.959 . S
H258 C273 0.959 . S
H259 C273 0.961 . S
H260 C274 0.960 . S
H261 C274 0.961 . S
H262 C274 0.959 . S
H263 C277 0.929 . S
H264 C278 0.931 . S
H265 C280 0.930 . S
C266 H254 0.930 . S
C266 C267 1.399 . S
C266 C271 1.399 . S
C267 C266 1.399 . S
C267 C268 1.376 . S
C268 H255 0.930 . S
C268 C267 1.376 . S
C268 C269 1.388 . S
C269 H256 0.930 . S
C269 C268 1.388 . S
C269 C270 1.390 . S
C270 C269 1.390 . S
C270 C271 1.394 . S
C270 C276 1.465 . S
C271 C266 1.399 . S
C271 C270 1.394 . S
C271 C272 1.516 . S
C272 C271 1.516 . S
C272 C273 1.502 . S
C272 C274 1.561 . S
C272 C275 1.526 . S
C273 H257 0.959 . S
C273 H258 0.959 . S
C273 H259 0.961 . S
C273 C272 1.502 . S
C274 H260 0.960 . S
C274 H261 0.961 . S
C274 H262 0.959 . S
C274 C272 1.561 . S
C275 C272 1.526 . S
C275 C276 1.396 . S
C275 C280 1.390 . S
C276 C270 1.465 . S
C276 C275 1.396 . S
C276 C277 1.399 . S
C277 H263 0.929 . S
C277 C276 1.399 . S
C277 C278 1.385 . S
C278 H264 0.931 . S
C278 C277 1.385 . S
C278 C279 1.389 . S
C279 C278 1.389 . S
C279 C280 1.387 . S
C280 H265 0.930 . S
C280 C275 1.390 . S
C280 C279 1.387 . S
H281 C293 0.930 . S
H282 C295 0.930 . S
H283 C296 0.930 . S
H284 C300 0.959 . S
H285 C300 0.959 . S
H286 C300 0.961 . S
H287 C301 0.960 . S
H288 C301 0.961 . S
H289 C301 0.959 . S
H290 C304 0.929 . S
H291 C305 0.931 . S
H292 C307 0.930 . S
C293 H281 0.930 . S
C293 C294 1.399 . S
C293 C298 1.399 . S
C294 C293 1.399 . S
C294 C295 1.376 . S
C295 H282 0.930 . S
C295 C294 1.376 . S
C295 C296 1.388 . S
C296 H283 0.930 . S
C296 C295 1.388 . S
C296 C297 1.390 . S
C297 C296 1.390 . S
C297 C298 1.394 . S
C297 C303 1.465 . S
C298 C293 1.399 . S
C298 C297 1.394 . S
C298 C299 1.516 . S
C299 C298 1.516 . S
C299 C300 1.502 . S
C299 C301 1.561 . S
C299 C302 1.526 . S
C300 H284 0.959 . S
C300 H285 0.959 . S
C300 H286 0.961 . S
C300 C299 1.502 . S
C301 H287 0.960 . S
C301 H288 0.961 . S
C301 H289 0.959 . S
C301 C299 1.561 . S
C302 C299 1.526 . S
C302 C303 1.396 . S
C302 C307 1.390 . S
C303 C297 1.465 . S
C303 C302 1.396 . S
C303 C304 1.399 . S
C304 H290 0.929 . S
C304 C303 1.399 . S
C304 C305 1.385 . S
C305 H291 0.931 . S
C305 C304 1.385 . S
C305 C306 1.389 . S
C306 C305 1.389 . S
C306 C307 1.387 . S
C307 H292 0.930 . S
C307 C302 1.390 . S
C307 C306 1.387 . S
H308 C320 0.930 . S
H309 C322 0.930 . S
H310 C323 0.930 . S
H311 C327 0.959 . S
H312 C327 0.959 . S
H313 C327 0.961 . S
H314 C328 0.960 . S
H315 C328 0.961 . S
H316 C328 0.959 . S
H317 C331 0.929 . S
H318 C332 0.931 . S
H319 C334 0.930 1_556 S
C320 H308 0.930 . S
C320 C321 1.399 . S
C320 C325 1.399 . S
C321 C320 1.399 . S
C321 C322 1.376 1_556 S
C322 H309 0.930 . S
C322 C321 1.376 1_554 S
C322 C323 1.388 . S
C323 H310 0.930 . S
C323 C322 1.388 . S
C323 C324 1.390 . S
C324 C323 1.390 . S
C324 C325 1.394 1_554 S
C324 C330 1.465 . S
C325 C320 1.399 . S
C325 C324 1.394 1_556 S
C325 C326 1.516 . S
C326 C325 1.516 . S
C326 C327 1.502 . S
C326 C328 1.561 1_556 S
C326 C329 1.524 1_556 S
C327 H311 0.959 . S
C327 H312 0.959 . S
C327 H313 0.961 . S
C327 C326 1.502 . S
C328 H314 0.960 . S
C328 H315 0.961 . S
C328 H316 0.959 . S
C328 C326 1.561 1_554 S
C329 C326 1.524 1_554 S
C329 C330 1.397 . S
C329 C334 1.390 . S
C330 C324 1.465 . S
C330 C329 1.397 . S
C330 C331 1.399 . S
C331 H317 0.929 . S
C331 C330 1.399 . S
C331 C332 1.385 . S
C332 H318 0.931 . S
C332 C331 1.385 . S
C332 C333 1.389 . S
C333 C332 1.389 . S
C333 C334 1.387 . S
C334 H319 0.930 1_554 S
C334 C329 1.390 . S
C334 C333 1.387 . S
H335 C347 0.930 . S
H336 C349 0.930 . S
H337 C350 0.930 . S
H338 C354 0.959 . S
H339 C354 0.959 . S
H340 C354 0.961 . S
H341 C355 0.960 . S
H342 C355 0.960 . S
H343 C355 0.959 1_554 S
H344 C358 0.929 . S
H345 C359 0.931 . S
H346 C361 0.930 . S
C347 H335 0.930 . S
C347 C348 1.399 . S
C347 C352 1.399 . S
C348 C347 1.399 . S
C348 C349 1.376 . S
C349 H336 0.930 . S
C349 C348 1.376 . S
C349 C350 1.388 1_556 S
C350 H337 0.930 . S
C350 C349 1.388 1_554 S
C350 C351 1.390 . S
C351 C350 1.390 . S
C351 C352 1.394 1_554 S
C351 C357 1.465 . S
C352 C347 1.399 . S
C352 C351 1.394 1_556 S
C352 C353 1.516 . S
C353 C352 1.516 . S
C353 C354 1.502 . S
C353 C355 1.561 . S
C353 C356 1.526 1_556 S
C354 H338 0.959 . S
C354 H339 0.959 . S
C354 H340 0.961 . S
C354 C353 1.502 . S
C355 H341 0.960 . S
C355 H342 0.960 . S
C355 H343 0.959 1_556 S
C355 C353 1.561 . S
C356 C353 1.526 1_554 S
C356 C357 1.396 . S
C356 C361 1.390 . S
C357 C351 1.465 . S
C357 C356 1.396 . S
C357 C358 1.399 . S
C358 H344 0.929 . S
C358 C357 1.399 . S
C358 C359 1.385 . S
C359 H345 0.931 . S
C359 C358 1.385 . S
C359 C360 1.389 . S
C360 C359 1.389 . S
C360 C361 1.387 . S
C361 H346 0.930 . S
C361 C356 1.390 . S
C361 C360 1.387 . S
H362 C374 0.930 . S
H363 C376 0.930 . S
H364 C377 0.930 . S
H365 C381 0.959 . S
H366 C381 0.959 . S
H367 C381 0.961 . S
H368 C382 0.960 . S
H369 C382 0.961 . S
H370 C382 0.959 . S
H371 C385 0.929 . S
H372 C386 0.931 . S
H373 C388 0.930 . S
C374 H362 0.930 . S
C374 C375 1.399 1_556 S
C374 C379 1.399 . S
C375 C374 1.399 1_554 S
C375 C376 1.376 . S
C376 H363 0.930 . S
C376 C375 1.376 . S
C376 C377 1.388 . S
C377 H364 0.930 . S
C377 C376 1.388 . S
C377 C378 1.390 . S
C378 C377 1.390 . S
C378 C379 1.394 1_554 S
C378 C384 1.465 . S
C379 C374 1.399 . S
C379 C378 1.394 1_556 S
C379 C380 1.516 . S
C380 C379 1.516 . S
C380 C381 1.502 . S
C380 C382 1.561 . S
C380 C383 1.526 . S
C381 H365 0.959 . S
C381 H366 0.959 . S
C381 H367 0.961 . S
C381 C380 1.502 . S
C382 H368 0.960 . S
C382 H369 0.961 . S
C382 H370 0.959 . S
C382 C380 1.561 . S
C383 C380 1.526 . S
C383 C384 1.396 1_556 S
C383 C388 1.390 . S
C384 C378 1.465 . S
C384 C383 1.396 1_554 S
C384 C385 1.399 . S
C385 H371 0.929 . S
C385 C384 1.399 . S
C385 C386 1.385 . S
C386 H372 0.931 . S
C386 C385 1.385 . S
C386 C387 1.389 1_554 S
C387 C386 1.389 1_556 S
C387 C388 1.387 . S
C388 H373 0.930 . S
C388 C383 1.390 . S
C388 C387 1.387 . S
H389 C401 0.930 . S
H390 C403 0.930 . S
H391 C404 0.930 . S
H392 C408 0.959 . S
H393 C408 0.959 . S
H394 C408 0.961 . S
H395 C409 0.960 . S
H396 C409 0.961 . S
H397 C409 0.959 1_556 S
H398 C412 0.929 . S
H399 C413 0.931 . S
H400 C415 0.930 . S
C401 H389 0.930 . S
C401 C402 1.399 . S
C401 C406 1.399 . S
C402 C401 1.399 . S
C402 C403 1.376 . S
C403 H390 0.930 . S
C403 C402 1.376 . S
C403 C404 1.388 1_554 S
C404 H391 0.930 . S
C404 C403 1.388 1_556 S
C404 C405 1.390 . S
C405 C404 1.390 . S
C405 C406 1.394 1_556 S
C405 C411 1.465 . S
C406 C401 1.399 . S
C406 C405 1.394 1_554 S
C406 C407 1.516 . S
C407 C406 1.516 . S
C407 C408 1.502 . S
C407 C409 1.561 . S
C407 C410 1.526 1_554 S
C408 H392 0.959 . S
C408 H393 0.959 . S
C408 H394 0.961 . S
C408 C407 1.502 . S
C409 H395 0.960 . S
C409 H396 0.961 . S
C409 H397 0.959 1_554 S
C409 C407 1.561 . S
C410 C407 1.526 1_556 S
C410 C411 1.396 . S
C410 C415 1.390 . S
C411 C405 1.465 . S
C411 C410 1.396 . S
C411 C412 1.399 . S
C412 H398 0.929 . S
C412 C411 1.399 . S
C412 C413 1.385 . S
C413 H399 0.931 . S
C413 C412 1.385 . S
C413 C414 1.389 . S
C414 C413 1.389 . S
C414 C415 1.387 . S
C415 H400 0.930 . S
C415 C410 1.390 . S
C415 C414 1.387 . S
C105 C66 2.162 . S
C117 C19 2.084 . S
C132 C43 2.146 . S
C144 C88 2.114 . S
C159 C89 2.173 . S
C171 C42 2.062 . S
C186 C20 2.152 . S
C198 C65 2.105 . S
C213 C90 1.533 . S
C225 C21 1.500 . S
C240 C62 2.058 . S
C252 C39 2.059 . S
C267 C67 1.489 . S
C279 C44 1.545 . S
C294 C16 2.062 . S
C306 C85 2.061 . S
C321 C86 0.700 . S
C333 C17 0.580 . S
C348 C64 0.339 . S
C360 C41 0.364 . S
C375 C40 0.550 . S
C387 C63 0.718 . S
C402 C18 0.329 . S
C414 C87 0.357 . S
